# Generated by pormake.
# Topology snl, (6)-cn, num edge types: 1
# Building blocks:
#     Node 0, Type 0, BuildingBlock: MIFKUJ_clean_sbu_0, # of connection points: 6
#     Node 1, Type 0, BuildingBlock: MIFKUJ_clean_sbu_0, # of connection points: 6
#     Node 2, Type 0, BuildingBlock: MIFKUJ_clean_sbu_0, # of connection points: 6
#     Node 3, Type 0, BuildingBlock: MIFKUJ_clean_sbu_0, # of connection points: 6
#     Node 4, Type 0, BuildingBlock: MIFKUJ_clean_sbu_0, # of connection points: 6
#     Node 5, Type 0, BuildingBlock: MIFKUJ_clean_sbu_0, # of connection points: 6
#     Node 6, Type 0, BuildingBlock: MIFKUJ_clean_sbu_0, # of connection points: 6
#     Node 7, Type 0, BuildingBlock: MIFKUJ_clean_sbu_0, # of connection points: 6
#     Node 8, Type 0, BuildingBlock: MIFKUJ_clean_sbu_0, # of connection points: 6
#     Node 9, Type 0, BuildingBlock: MIFKUJ_clean_sbu_0, # of connection points: 6
#     Node 10, Type 0, BuildingBlock: MIFKUJ_clean_sbu_0, # of connection points: 6
#     Node 11, Type 0, BuildingBlock: MIFKUJ_clean_sbu_0, # of connection points: 6
#     Node 12, Type 0, BuildingBlock: MIFKUJ_clean_sbu_0, # of connection points: 6
#     Node 13, Type 0, BuildingBlock: MIFKUJ_clean_sbu_0, # of connection points: 6
#     Node 14, Type 0, BuildingBlock: MIFKUJ_clean_sbu_0, # of connection points: 6
#     Node 15, Type 0, BuildingBlock: MIFKUJ_clean_sbu_0, # of connection points: 6
#     Edge 16, Type (0, 0), BuildingBlock: TEMPAE_clean_linker_10, # of connection points: 2
#     Edge 17, Type (0, 0), BuildingBlock: TEMPAE_clean_linker_10, # of connection points: 2
#     Edge 18, Type (0, 0), BuildingBlock: TEMPAE_clean_linker_10, # of connection points: 2
#     Edge 19, Type (0, 0), BuildingBlock: TEMPAE_clean_linker_10, # of connection points: 2
#     Edge 20, Type (0, 0), BuildingBlock: TEMPAE_clean_linker_10, # of connection points: 2
#     Edge 21, Type (0, 0), BuildingBlock: TEMPAE_clean_linker_10, # of connection points: 2
#     Edge 22, Type (0, 0), BuildingBlock: TEMPAE_clean_linker_10, # of connection points: 2
#     Edge 23, Type (0, 0), BuildingBlock: TEMPAE_clean_linker_10, # of connection points: 2
#     Edge 24, Type (0, 0), BuildingBlock: TEMPAE_clean_linker_10, # of connection points: 2
#     Edge 25, Type (0, 0), BuildingBlock: TEMPAE_clean_linker_10, # of connection points: 2
#     Edge 26, Type (0, 0), BuildingBlock: TEMPAE_clean_linker_10, # of connection points: 2
#     Edge 27, Type (0, 0), BuildingBlock: TEMPAE_clean_linker_10, # of connection points: 2
#     Edge 28, Type (0, 0), BuildingBlock: TEMPAE_clean_linker_10, # of connection points: 2
#     Edge 29, Type (0, 0), BuildingBlock: TEMPAE_clean_linker_10, # of connection points: 2
#     Edge 30, Type (0, 0), BuildingBlock: TEMPAE_clean_linker_10, # of connection points: 2
#     Edge 31, Type (0, 0), BuildingBlock: TEMPAE_clean_linker_10, # of connection points: 2
#     Edge 32, Type (0, 0), BuildingBlock: TEMPAE_clean_linker_10, # of connection points: 2
#     Edge 33, Type (0, 0), BuildingBlock: TEMPAE_clean_linker_10, # of connection points: 2
#     Edge 34, Type (0, 0), BuildingBlock: TEMPAE_clean_linker_10, # of connection points: 2
#     Edge 35, Type (0, 0), BuildingBlock: TEMPAE_clean_linker_10, # of connection points: 2
#     Edge 36, Type (0, 0), BuildingBlock: TEMPAE_clean_linker_10, # of connection points: 2
#     Edge 37, Type (0, 0), BuildingBlock: TEMPAE_clean_linker_10, # of connection points: 2
#     Edge 38, Type (0, 0), BuildingBlock: TEMPAE_clean_linker_10, # of connection points: 2
#     Edge 39, Type (0, 0), BuildingBlock: TEMPAE_clean_linker_10, # of connection points: 2
#     Edge 40, Type (0, 0), BuildingBlock: TEMPAE_clean_linker_10, # of connection points: 2
#     Edge 41, Type (0, 0), BuildingBlock: TEMPAE_clean_linker_10, # of connection points: 2
#     Edge 42, Type (0, 0), BuildingBlock: TEMPAE_clean_linker_10, # of connection points: 2
#     Edge 43, Type (0, 0), BuildingBlock: TEMPAE_clean_linker_10, # of connection points: 2
#     Edge 44, Type (0, 0), BuildingBlock: TEMPAE_clean_linker_10, # of connection points: 2
#     Edge 45, Type (0, 0), BuildingBlock: TEMPAE_clean_linker_10, # of connection points: 2
#     Edge 46, Type (0, 0), BuildingBlock: TEMPAE_clean_linker_10, # of connection points: 2
#     Edge 47, Type (0, 0), BuildingBlock: TEMPAE_clean_linker_10, # of connection points: 2
#     Edge 48, Type (0, 0), BuildingBlock: TEMPAE_clean_linker_10, # of connection points: 2
#     Edge 49, Type (0, 0), BuildingBlock: TEMPAE_clean_linker_10, # of connection points: 2
#     Edge 50, Type (0, 0), BuildingBlock: TEMPAE_clean_linker_10, # of connection points: 2
#     Edge 51, Type (0, 0), BuildingBlock: TEMPAE_clean_linker_10, # of connection points: 2
#     Edge 52, Type (0, 0), BuildingBlock: TEMPAE_clean_linker_10, # of connection points: 2
#     Edge 53, Type (0, 0), BuildingBlock: TEMPAE_clean_linker_10, # of connection points: 2
#     Edge 54, Type (0, 0), BuildingBlock: TEMPAE_clean_linker_10, # of connection points: 2
#     Edge 55, Type (0, 0), BuildingBlock: TEMPAE_clean_linker_10, # of connection points: 2
#     Edge 56, Type (0, 0), BuildingBlock: TEMPAE_clean_linker_10, # of connection points: 2
#     Edge 57, Type (0, 0), BuildingBlock: TEMPAE_clean_linker_10, # of connection points: 2
#     Edge 58, Type (0, 0), BuildingBlock: TEMPAE_clean_linker_10, # of connection points: 2
#     Edge 59, Type (0, 0), BuildingBlock: TEMPAE_clean_linker_10, # of connection points: 2
#     Edge 60, Type (0, 0), BuildingBlock: TEMPAE_clean_linker_10, # of connection points: 2
#     Edge 61, Type (0, 0), BuildingBlock: TEMPAE_clean_linker_10, # of connection points: 2
#     Edge 62, Type (0, 0), BuildingBlock: TEMPAE_clean_linker_10, # of connection points: 2
#     Edge 63, Type (0, 0), BuildingBlock: TEMPAE_clean_linker_10, # of connection points: 2
# Relax obj value: 0.124
# Max RMSD: 0.180
# Mean RMSD: 0.162
data_MOF--net-snl--node1-MIFKUJ_clean_sbu_0--edge1-TEMPAE_clean_linker_10
_symmetry_space_group_name_H-M    P1
_symmetry_Int_Tables_number       1
_symmetry_cell_setting            triclinic
loop_
_symmetry_equiv_pos_as_xyz
'x, y, z'
_cell_length_a     61.4363
_cell_length_b     63.073512
_cell_length_c     18.71217
_cell_angle_alpha  88.98139
_cell_angle_beta   90.952826
_cell_angle_gamma 90.067087
loop_
_atom_site_label
_atom_site_type_symbol
_atom_site_fract_x
_atom_site_fract_y
_atom_site_fract_z
_atom_type_partial_charge
Zn0 Zn 0.13365 0.61409 0.21542 0.0
Zn1 Zn 0.12586 0.62062 0.04383 0.0
C2 C 0.1772 0.60136 0.25087 0.0
O3 O 0.16628 0.58612 0.283 0.0
C4 C 0.0809 0.63338 0.05331 0.0
O5 O 0.08828 0.6494 0.01488 0.0
O6 O 0.12623 0.61072 0.32022 0.0
O7 O 0.12203 0.64318 0.1838 0.0
O8 O 0.14019 0.64647 0.08406 0.0
C9 C 0.12595 0.62687 0.36001 0.0
O10 O 0.12986 0.64568 0.3318 0.0
O11 O 0.16668 0.61544 0.21509 0.0
C12 C 0.1121 0.61495 0.8962 0.0
O13 O 0.09651 0.60374 0.92573 0.0
O14 O 0.12625 0.62386 0.93606 0.0
O15 O 0.14067 0.59298 0.06467 0.0
O16 O 0.12413 0.58675 0.16633 0.0
O17 O 0.09417 0.61898 0.07412 0.0
C18 C 0.13216 0.65476 0.13898 0.0
C19 C 0.1329 0.57995 0.10995 0.0
Zn20 Zn 0.61805 0.89504 0.45358 0.0
Zn21 Zn 0.61392 0.85666 0.27195 0.0
C22 C 0.60808 0.94098 0.45536 0.0
O23 O 0.59448 0.93721 0.40215 0.0
C24 C 0.60136 0.81246 0.29516 0.0
O25 O 0.58158 0.81965 0.28248 0.0
O26 O 0.62076 0.87913 0.54878 0.0
O27 O 0.58828 0.88944 0.4082 0.0
O28 O 0.58647 0.86805 0.31444 0.0
C29 C 0.60422 0.87775 0.58876 0.0
O30 O 0.5854 0.88491 0.56435 0.0
O31 O 0.61908 0.92576 0.48291 0.0
C32 C 0.61627 0.84596 0.11989 0.0
O33 O 0.62374 0.82776 0.14501 0.0
O34 O 0.61096 0.86026 0.16358 0.0
O35 O 0.64187 0.87104 0.29887 0.0
O36 O 0.64526 0.89099 0.39521 0.0
O37 O 0.61723 0.8254 0.29527 0.0
C38 C 0.57746 0.87961 0.36048 0.0
C39 C 0.65322 0.8826 0.34006 0.0
Zn40 Zn 0.36851 0.37936 0.71808 0.0
Zn41 Zn 0.37298 0.3736 0.54773 0.0
C42 C 0.32608 0.39219 0.7558 0.0
O43 O 0.33782 0.40756 0.78326 0.0
C44 C 0.41804 0.36186 0.56643 0.0
O45 O 0.4109 0.34459 0.53553 0.0
O46 O 0.37731 0.38288 0.82215 0.0
O47 O 0.37976 0.3504 0.68912 0.0
O48 O 0.36065 0.34684 0.5895 0.0
C49 C 0.37717 0.36687 0.86448 0.0
O50 O 0.37249 0.34812 0.83888 0.0
O51 O 0.33564 0.37787 0.721 0.0
C52 C 0.3868 0.37981 0.40131 0.0
O53 O 0.40249 0.39063 0.43228 0.0
O54 O 0.37233 0.37103 0.4398 0.0
O55 O 0.35702 0.40025 0.56834 0.0
O56 O 0.37685 0.40659 0.66454 0.0
O57 O 0.40459 0.3766 0.579 0.0
C58 C 0.36991 0.33863 0.64446 0.0
C59 C 0.36619 0.41335 0.60981 0.0
Zn60 Zn 0.87218 0.12062 0.95307 0.0
Zn61 Zn 0.87792 0.12884 0.7836 0.0
C62 C 0.8565 0.07744 0.96291 0.0
O63 O 0.83791 0.08703 0.97382 0.0
C64 C 0.88931 0.17255 0.80179 0.0
O65 O 0.9072 0.1659 0.77185 0.0
O66 O 0.8685 0.12713 0.05773 0.0
O67 O 0.90221 0.13199 0.92833 0.0
O68 O 0.90613 0.11742 0.82315 0.0
C69 C 0.87809 0.11525 0.10399 0.0
O70 O 0.89023 0.09957 0.08223 0.0
O71 O 0.87331 0.08854 0.94951 0.0
C72 C 0.86354 0.13118 0.63641 0.0
O73 O 0.84439 0.13252 0.66613 0.0
O74 O 0.88049 0.12964 0.67615 0.0
O75 O 0.85096 0.11215 0.80479 0.0
O76 O 0.84451 0.1305 0.90071 0.0
O77 O 0.87414 0.15928 0.8139 0.0
C78 C 0.91443 0.12487 0.88 0.0
C79 C 0.83749 0.12046 0.84661 0.0
Zn80 Zn 0.13035 0.38138 0.9705 0.0
Zn81 Zn 0.1242 0.37768 0.80064 0.0
C82 C 0.14241 0.42322 0.0074 0.0
O83 O 0.15868 0.41232 0.0359 0.0
C84 C 0.11223 0.33355 0.81941 0.0
O85 O 0.09428 0.34021 0.78712 0.0
O86 O 0.13391 0.37322 0.07561 0.0
O87 O 0.10117 0.36925 0.93701 0.0
O88 O 0.097 0.38989 0.84175 0.0
C89 C 0.11732 0.37222 0.11545 0.0
O90 O 0.09789 0.37519 0.08669 0.0
O91 O 0.12777 0.41338 0.97224 0.0
C92 C 0.13019 0.36436 0.65474 0.0
O93 O 0.14175 0.3494 0.68695 0.0
O94 O 0.12096 0.37827 0.69231 0.0
O95 O 0.15201 0.39283 0.82259 0.0
O96 O 0.15872 0.37406 0.92078 0.0
O97 O 0.12733 0.34684 0.83225 0.0
C98 C 0.08883 0.37953 0.89352 0.0
C99 C 0.16554 0.38421 0.86607 0.0
Zn100 Zn 0.85693 0.88748 0.20408 0.0
Zn101 Zn 0.89623 0.88292 0.02251 0.0
C102 C 0.81233 0.90085 0.22419 0.0
O103 O 0.82077 0.91984 0.21521 0.0
C104 C 0.94163 0.8729 0.02154 0.0
O105 O 0.93413 0.85674 0.98517 0.0
O106 O 0.86972 0.89186 0.30337 0.0
O107 O 0.8667 0.8591 0.1664 0.0
O108 O 0.88682 0.85559 0.06974 0.0
C109 C 0.87889 0.8771 0.34006 0.0
O110 O 0.88175 0.85852 0.31103 0.0
O111 O 0.82459 0.88468 0.22036 0.0
C112 C 0.90363 0.89112 0.87254 0.0
O113 O 0.91781 0.90465 0.89871 0.0
O114 O 0.89242 0.87987 0.91545 0.0
O115 O 0.88132 0.90995 0.04762 0.0
O116 O 0.86108 0.91419 0.14361 0.0
O117 O 0.92825 0.8865 0.04412 0.0
C118 C 0.87646 0.84757 0.12194 0.0
C119 C 0.86968 0.92145 0.0868 0.0
Zn120 Zn 0.3763 0.61027 0.43858 0.0
Zn121 Zn 0.38126 0.61385 0.2682 0.0
C122 C 0.36134 0.56955 0.4806 0.0
O123 O 0.34608 0.58152 0.50721 0.0
C124 C 0.39594 0.6567 0.28094 0.0
O125 O 0.41263 0.64871 0.24763 0.0
O126 O 0.37332 0.61891 0.54175 0.0
O127 O 0.40653 0.61976 0.40746 0.0
O128 O 0.40894 0.60139 0.3088 0.0
C129 C 0.38949 0.61692 0.5847 0.0
O130 O 0.40817 0.61034 0.56022 0.0
O131 O 0.37637 0.57833 0.44467 0.0
C132 C 0.37571 0.62794 0.11986 0.0
O133 O 0.36622 0.64426 0.14885 0.0
O134 O 0.38331 0.61314 0.16011 0.0
O135 O 0.35304 0.59964 0.29233 0.0
O136 O 0.34834 0.6195 0.38616 0.0
O137 O 0.38008 0.6446 0.29663 0.0
C138 C 0.41806 0.61055 0.36131 0.0
C139 C 0.34038 0.60908 0.33422 0.0
Zn140 Zn 0.6323 0.12473 0.72472 0.0
Zn141 Zn 0.62619 0.13078 0.5558 0.0
C142 C 0.67551 0.10918 0.74996 0.0
O143 O 0.66444 0.09387 0.78109 0.0
C144 C 0.58187 0.14445 0.5761 0.0
O145 O 0.58974 0.16259 0.55253 0.0
O146 O 0.62613 0.12152 0.83024 0.0
O147 O 0.62218 0.15441 0.69758 0.0
O148 O 0.63865 0.15782 0.59429 0.0
C149 C 0.63793 0.13211 0.87332 0.0
O150 O 0.653 0.14475 0.84746 0.0
O151 O 0.66515 0.12414 0.71814 0.0
C152 C 0.62628 0.11698 0.40918 0.0
O153 O 0.62573 0.09812 0.43996 0.0
O154 O 0.62657 0.13335 0.44792 0.0
O155 O 0.64133 0.10352 0.58343 0.0
O156 O 0.61996 0.09878 0.67502 0.0
O157 O 0.59446 0.12851 0.58257 0.0
C158 C 0.63066 0.1661 0.64939 0.0
C159 C 0.63023 0.09117 0.62287 0.0
Zn160 Zn 0.88136 0.36675 0.97637 0.0
Zn161 Zn 0.8617 0.37216 0.7981 0.0
C162 C 0.92841 0.37089 0.99235 0.0
O163 O 0.92432 0.36493 0.05831 0.0
C164 C 0.81886 0.38939 0.77874 0.0
O165 O 0.83022 0.4046 0.74816 0.0
O166 O 0.88022 0.36494 0.08405 0.0
O167 O 0.86177 0.39138 0.94939 0.0
O168 O 0.87564 0.39787 0.84404 0.0
C169 C 0.88381 0.38134 0.12104 0.0
O170 O 0.88834 0.39934 0.0881 0.0
O171 O 0.91273 0.3729 0.94734 0.0
C172 C 0.88312 0.37051 0.65996 0.0
O173 O 0.89976 0.36279 0.69692 0.0
O174 O 0.86594 0.37561 0.69234 0.0
O175 O 0.87071 0.34198 0.82338 0.0
O176 O 0.87397 0.3377 0.94103 0.0
O177 O 0.82896 0.37385 0.80816 0.0
C178 C 0.86859 0.40456 0.90294 0.0
C179 C 0.87286 0.33006 0.87866 0.0
Zn180 Zn 0.38343 0.13768 0.74394 0.0
Zn181 Zn 0.37782 0.13334 0.57602 0.0
C182 C 0.36672 0.18042 0.73811 0.0
O183 O 0.35287 0.17246 0.78414 0.0
C184 C 0.36294 0.09155 0.55099 0.0
O185 O 0.34618 0.10254 0.52634 0.0
O186 O 0.38602 0.13794 0.8522 0.0
O187 O 0.35596 0.12204 0.7174 0.0
O188 O 0.34994 0.14266 0.62345 0.0
C189 C 0.37069 0.13194 0.89279 0.0
O190 O 0.35247 0.12493 0.86414 0.0
O191 O 0.381 0.16834 0.71211 0.0
C192 C 0.38801 0.13036 0.43026 0.0
O193 O 0.40264 0.11767 0.46 0.0
O194 O 0.37496 0.14011 0.47029 0.0
O195 O 0.40761 0.14428 0.60542 0.0
O196 O 0.41163 0.12653 0.70731 0.0
O197 O 0.37878 0.10137 0.57997 0.0
C198 C 0.34267 0.13133 0.67468 0.0
C199 C 0.41985 0.13542 0.65259 0.0
Zn200 Zn 0.62612 0.61914 0.44154 0.0
Zn201 Zn 0.63681 0.61401 0.26881 0.0
C202 C 0.58096 0.62908 0.40955 0.0
O203 O 0.5875 0.64803 0.42854 0.0
C204 C 0.68177 0.60103 0.25695 0.0
O205 O 0.6726 0.58238 0.24872 0.0
O206 O 0.62658 0.62136 0.54903 0.0
O207 O 0.64474 0.59395 0.42245 0.0
O208 O 0.62837 0.58651 0.32074 0.0
C209 C 0.61088 0.6158 0.5887 0.0
O210 O 0.59288 0.60848 0.55941 0.0
O211 O 0.5947 0.61398 0.40936 0.0
C212 C 0.63093 0.626 0.12282 0.0
O213 O 0.63769 0.64411 0.14876 0.0
O214 O 0.62896 0.61009 0.16493 0.0
O215 O 0.62366 0.64261 0.29382 0.0
O216 O 0.63633 0.64718 0.40346 0.0
O217 O 0.66977 0.61696 0.26928 0.0
C218 C 0.6376 0.58035 0.37882 0.0
C219 C 0.62901 0.65481 0.34466 0.0
Zn220 Zn 0.1383 0.85638 0.21854 0.0
Zn221 Zn 0.14409 0.89968 0.03968 0.0
C222 C 0.15091 0.81164 0.22813 0.0
O223 O 0.16465 0.81814 0.27766 0.0
C224 C 0.15553 0.94261 0.99822 0.0
O225 O 0.17254 0.93292 0.97243 0.0
O226 O 0.13729 0.85907 0.32688 0.0
O227 O 0.16524 0.8708 0.18223 0.0
O228 O 0.17239 0.89335 0.09346 0.0
C229 C 0.14833 0.87284 0.36081 0.0
O230 O 0.16094 0.88588 0.32487 0.0
O231 O 0.13882 0.82515 0.1956 0.0
C232 C 0.13258 0.89603 0.8913 0.0
O233 O 0.11739 0.90921 0.91134 0.0
O234 O 0.14612 0.88895 0.9381 0.0
O235 O 0.11611 0.88888 0.08348 0.0
O236 O 0.11019 0.86752 0.17685 0.0
O237 O 0.14124 0.93167 0.03072 0.0
C238 C 0.17864 0.88205 0.14702 0.0
C239 C 0.10318 0.8792 0.12538 0.0
Zn240 Zn 0.88121 0.64492 0.21421 0.0
Zn241 Zn 0.87726 0.60372 0.03831 0.0
C242 C 0.89033 0.6897 0.21772 0.0
O243 O 0.90624 0.68298 0.26011 0.0
C244 C 0.86312 0.56191 0.99982 0.0
O245 O 0.84595 0.57283 0.97823 0.0
O246 O 0.8846 0.64189 0.32201 0.0
O247 O 0.85329 0.62995 0.18712 0.0
O248 O 0.84955 0.60897 0.09337 0.0
C249 C 0.86826 0.64414 0.36208 0.0
O250 O 0.84928 0.64897 0.33289 0.0
O251 O 0.87741 0.67616 0.19055 0.0
C252 C 0.88382 0.60617 0.88716 0.0
O253 O 0.89593 0.58959 0.90373 0.0
O254 O 0.87408 0.61571 0.93681 0.0
O255 O 0.90645 0.61347 0.07874 0.0
O256 O 0.90933 0.63498 0.17135 0.0
O257 O 0.87896 0.57169 0.02909 0.0
C258 C 0.84174 0.61808 0.14744 0.0
C259 C 0.91796 0.62389 0.12324 0.0
Zn260 Zn 0.12123 0.13709 0.98799 0.0
Zn261 Zn 0.13875 0.13485 0.80755 0.0
C262 C 0.07678 0.14525 0.94001 0.0
O263 O 0.08368 0.16496 0.94041 0.0
C264 C 0.18075 0.12068 0.75955 0.0
O265 O 0.16859 0.10775 0.72168 0.0
O266 O 0.12174 0.13688 0.09514 0.0
O267 O 0.14172 0.11349 0.96315 0.0
O268 O 0.12808 0.10771 0.85597 0.0
C269 C 0.10827 0.14709 0.13211 0.0
O270 O 0.09294 0.15829 0.0995 0.0
O271 O 0.09007 0.13041 0.95656 0.0
C272 C 0.1346 0.14909 0.66435 0.0
O273 O 0.14788 0.16354 0.69003 0.0
O274 O 0.12784 0.13447 0.70595 0.0
O275 O 0.13226 0.16446 0.84159 0.0
O276 O 0.12884 0.16687 0.9587 0.0
O277 O 0.17159 0.13326 0.80208 0.0
C278 C 0.13629 0.10067 0.91449 0.0
C279 C 0.13039 0.17553 0.89726 0.0
Zn280 Zn 0.61859 0.36655 0.74233 0.0
Zn281 Zn 0.62369 0.38471 0.56357 0.0
C282 C 0.61048 0.32374 0.69989 0.0
O283 O 0.59034 0.32984 0.70981 0.0
C284 C 0.6421 0.42479 0.51957 0.0
O285 O 0.65702 0.41224 0.49397 0.0
O286 O 0.61669 0.36418 0.84903 0.0
O287 O 0.64296 0.38712 0.72286 0.0
O288 O 0.65047 0.37383 0.61849 0.0
C289 C 0.63372 0.36373 0.88845 0.0
O290 O 0.65293 0.36441 0.85867 0.0
O291 O 0.62585 0.33704 0.70858 0.0
C292 C 0.61515 0.38456 0.41513 0.0
O293 O 0.60263 0.40029 0.43414 0.0
O294 O 0.62598 0.37441 0.46298 0.0
O295 O 0.59242 0.37896 0.59196 0.0
O296 O 0.58866 0.37457 0.70871 0.0
O297 O 0.62653 0.41665 0.55474 0.0
C298 C 0.65686 0.38178 0.67718 0.0
C299 C 0.58044 0.37686 0.64642 0.0
Zn300 Zn 0.37938 0.85646 0.23255 0.0
Zn301 Zn 0.37162 0.8934 0.41234 0.0
C302 C 0.38691 0.81568 0.30894 0.0
O303 O 0.39552 0.82694 0.36064 0.0
C304 C 0.37546 0.93969 0.39585 0.0
O305 O 0.38199 0.93576 0.3309 0.0
O306 O 0.38138 0.8588 0.12512 0.0
O307 O 0.35047 0.86833 0.2593 0.0
O308 O 0.34416 0.8879 0.35401 0.0
C309 C 0.37048 0.87205 0.08714 0.0
O310 O 0.35759 0.88546 0.11863 0.0
O311 O 0.37926 0.82507 0.25339 0.0
C312 C 0.38504 0.88508 0.55261 0.0
O313 O 0.40008 0.89816 0.529 0.0
O314 O 0.37031 0.87891 0.50908 0.0
O315 O 0.4014 0.88824 0.37122 0.0
O316 O 0.40667 0.86941 0.27349 0.0
O317 O 0.37036 0.92433 0.43706 0.0
C318 C 0.33755 0.87865 0.29783 0.0
C319 C 0.41386 0.88057 0.32465 0.0
C320 C 0.13297 0.62296 0.78515 0.0
C321 C 0.11347 0.61674 0.81736 0.0
C322 C 0.13466 0.62416 0.71044 0.0
C323 C 0.11628 0.61942 0.66686 0.0
C324 C 0.09648 0.61337 0.69908 0.0
C325 C 0.09537 0.6119 0.77394 0.0
C326 C 0.15616 0.63037 0.67811 0.0
C327 C 0.07642 0.60857 0.65449 0.0
C328 C 0.11639 0.64224 0.47753 0.0
C329 C 0.12236 0.62458 0.43781 0.0
C330 C 0.11384 0.64065 0.55184 0.0
C331 C 0.11777 0.62102 0.58756 0.0
C332 C 0.12364 0.60308 0.54767 0.0
C333 C 0.12566 0.60503 0.47314 0.0
C334 C 0.10716 0.66005 0.59223 0.0
C335 C 0.1283 0.58195 0.58395 0.0
H336 H 0.14707 0.62657 0.81838 0.0
H337 H 0.08022 0.60719 0.7985 0.0
H338 H 0.1617 0.61778 0.64197 0.0
H339 H 0.15419 0.6451 0.64537 0.0
H340 H 0.16904 0.63304 0.71937 0.0
H341 H 0.06219 0.60437 0.6878 0.0
H342 H 0.07211 0.62253 0.62023 0.0
H343 H 0.07971 0.59523 0.61842 0.0
H344 H 0.11368 0.65737 0.45045 0.0
H345 H 0.13042 0.59136 0.44278 0.0
H346 H 0.1203 0.66454 0.63044 0.0
H347 H 0.09244 0.65654 0.62391 0.0
H348 H 0.10367 0.67384 0.55611 0.0
H349 H 0.14209 0.58361 0.62251 0.0
H350 H 0.13241 0.56949 0.54523 0.0
H351 H 0.11397 0.57663 0.6148 0.0
C352 C 0.61672 0.83301 0.99395 0.0
C353 C 0.61446 0.84983 0.0414 0.0
C354 C 0.61523 0.83638 0.91955 0.0
C355 C 0.61165 0.85712 0.89167 0.0
C356 C 0.60945 0.87419 0.93926 0.0
C357 C 0.61074 0.87033 0.01347 0.0
C358 C 0.61738 0.81771 0.87076 0.0
C359 C 0.60584 0.89659 0.91175 0.0
C360 C 0.6269 0.87016 0.69914 0.0
C361 C 0.60646 0.87057 0.66457 0.0
C362 C 0.62887 0.8656 0.77284 0.0
C363 C 0.60999 0.86099 0.81277 0.0
C364 C 0.58941 0.86063 0.77758 0.0
C365 C 0.58787 0.86558 0.70414 0.0
C366 C 0.65109 0.86637 0.80843 0.0
C367 C 0.56892 0.85543 0.81781 0.0
H368 H 0.61952 0.8171 0.01494 0.0
H369 H 0.60907 0.88344 0.04963 0.0
H370 H 0.60249 0.81624 0.83682 0.0
H371 H 0.63125 0.82024 0.8344 0.0
H372 H 0.61994 0.80255 0.90085 0.0
H373 H 0.6049 0.90816 0.95565 0.0
H374 H 0.61928 0.90136 0.87598 0.0
H375 H 0.59051 0.89745 0.87967 0.0
H376 H 0.64133 0.87414 0.66912 0.0
H377 H 0.57202 0.86577 0.67781 0.0
H378 H 0.65461 0.85112 0.8367 0.0
H379 H 0.65141 0.87895 0.84912 0.0
H380 H 0.66423 0.8696 0.76962 0.0
H381 H 0.57075 0.83999 0.84663 0.0
H382 H 0.55436 0.85464 0.78194 0.0
H383 H 0.56606 0.86765 0.8585 0.0
C384 C 0.36666 0.3721 0.28713 0.0
C385 C 0.38597 0.37803 0.32244 0.0
C386 C 0.36562 0.37077 0.21227 0.0
C387 C 0.38447 0.37507 0.17184 0.0
C388 C 0.40407 0.38086 0.20728 0.0
C389 C 0.40453 0.38246 0.28207 0.0
C390 C 0.34432 0.36486 0.1764 0.0
C391 C 0.42461 0.38519 0.16624 0.0
C392 C 0.38573 0.35173 0.98602 0.0
C393 C 0.38047 0.36938 0.94246 0.0
C394 C 0.3876 0.35349 0.06057 0.0
C395 C 0.3837 0.37328 0.09252 0.0
C396 C 0.3786 0.39121 0.04875 0.0
C397 C 0.37725 0.38909 0.97415 0.0
C398 C 0.3935 0.33409 0.10521 0.0
C399 C 0.374 0.4125 0.08084 0.0
H400 H 0.35222 0.36879 0.31796 0.0
H401 H 0.41955 0.38694 0.30903 0.0
H402 H 0.33939 0.37743 0.13717 0.0
H403 H 0.34628 0.35 0.14639 0.0
H404 H 0.33102 0.36258 0.21529 0.0
H405 H 0.43858 0.38927 0.20186 0.0
H406 H 0.42898 0.37105 0.1351 0.0
H407 H 0.4219 0.39846 0.12745 0.0
H408 H 0.38835 0.33648 0.96179 0.0
H409 H 0.37301 0.40274 0.94081 0.0
H410 H 0.3799 0.32991 0.14109 0.0
H411 H 0.40794 0.33744 0.13962 0.0
H412 H 0.39711 0.32015 0.07192 0.0
H413 H 0.35979 0.41121 0.11647 0.0
H414 H 0.37056 0.42494 0.03942 0.0
H415 H 0.38809 0.41765 0.1141 0.0
C416 C 0.88521 0.13447 0.52463 0.0
C417 C 0.86525 0.13056 0.55767 0.0
C418 C 0.88714 0.13328 0.45013 0.0
C419 C 0.86876 0.12763 0.40788 0.0
C420 C 0.84851 0.12388 0.44091 0.0
C421 C 0.84696 0.12558 0.51535 0.0
C422 C 0.90891 0.13775 0.41674 0.0
C423 C 0.82864 0.11746 0.39788 0.0
C424 C 0.86877 0.13826 0.20697 0.0
C425 C 0.87544 0.11858 0.18141 0.0
C426 C 0.86671 0.14154 0.28067 0.0
C427 C 0.87097 0.1246 0.32962 0.0
C428 C 0.87739 0.10462 0.30389 0.0
C429 C 0.87976 0.10193 0.2302 0.0
C430 C 0.86021 0.16316 0.30622 0.0
C431 C 0.88167 0.08604 0.35419 0.0
H432 H 0.89937 0.13849 0.55704 0.0
H433 H 0.8315 0.12245 0.5406 0.0
H434 H 0.91516 0.12317 0.39197 0.0
H435 H 0.9071 0.14996 0.37361 0.0
H436 H 0.9212 0.14333 0.45639 0.0
H437 H 0.81397 0.11569 0.4314 0.0
H438 H 0.82517 0.1294 0.355 0.0
H439 H 0.83173 0.10215 0.37154 0.0
H440 H 0.86552 0.15121 0.16944 0.0
H441 H 0.88475 0.08663 0.2107 0.0
H442 H 0.87294 0.16937 0.34307 0.0
H443 H 0.84491 0.16199 0.3367 0.0
H444 H 0.85776 0.17474 0.26138 0.0
H445 H 0.8952 0.08988 0.39179 0.0
H446 H 0.88596 0.07141 0.32541 0.0
H447 H 0.86706 0.08277 0.38668 0.0
C448 C 0.13977 0.37362 0.22847 0.0
C449 C 0.11981 0.36943 0.19403 0.0
C450 C 0.1418 0.37262 0.30343 0.0
C451 C 0.12352 0.36693 0.34486 0.0
C452 C 0.1035 0.36213 0.31021 0.0
C453 C 0.10184 0.36363 0.23533 0.0
C454 C 0.16335 0.37812 0.33836 0.0
C455 C 0.08375 0.35562 0.3523 0.0
C456 C 0.13354 0.34714 0.53593 0.0
C457 C 0.12823 0.36503 0.5756 0.0
C458 C 0.13194 0.34748 0.46093 0.0
C459 C 0.12524 0.36629 0.4245 0.0
C460 C 0.11999 0.38446 0.46423 0.0
C461 C 0.12135 0.38355 0.53931 0.0
C462 C 0.13731 0.32767 0.42068 0.0
C463 C 0.11306 0.40491 0.42738 0.0
H464 H 0.15368 0.37829 0.19695 0.0
H465 H 0.08638 0.36027 0.20908 0.0
H466 H 0.16129 0.39189 0.37373 0.0
H467 H 0.16921 0.36466 0.37239 0.0
H468 H 0.17603 0.38208 0.29861 0.0
H469 H 0.06965 0.35154 0.31718 0.0
H470 H 0.08768 0.3417 0.38724 0.0
H471 H 0.07887 0.36869 0.38754 0.0
H472 H 0.13875 0.33273 0.56358 0.0
H473 H 0.11735 0.39748 0.56955 0.0
H474 H 0.15092 0.33086 0.38376 0.0
H475 H 0.12307 0.32281 0.38758 0.0
H476 H 0.14197 0.31424 0.45698 0.0
H477 H 0.12584 0.41029 0.38995 0.0
H478 H 0.11001 0.41774 0.46585 0.0
H479 H 0.098 0.4023 0.39523 0.0
C480 C 0.91553 0.89878 0.74731 0.0
C481 C 0.90071 0.88915 0.79407 0.0
C482 C 0.91296 0.89716 0.67286 0.0
C483 C 0.895 0.88584 0.64436 0.0
C484 C 0.87995 0.87612 0.69126 0.0
C485 C 0.88306 0.87778 0.76551 0.0
C486 C 0.92949 0.90753 0.62469 0.0
C487 C 0.86046 0.86409 0.66297 0.0
C488 C 0.87619 0.89766 0.45303 0.0
C489 C 0.88431 0.88013 0.41679 0.0
C490 C 0.8797 0.89981 0.52694 0.0
C491 C 0.89187 0.8842 0.56546 0.0
C492 C 0.90063 0.86679 0.52885 0.0
C493 C 0.89663 0.8649 0.45508 0.0
C494 C 0.86992 0.91851 0.56412 0.0
C495 C 0.91394 0.84998 0.56782 0.0
H496 H 0.92927 0.90752 0.76887 0.0
H497 H 0.87149 0.87036 0.80121 0.0
H498 H 0.93682 0.8955 0.58986 0.0
H499 H 0.9214 0.9195 0.58918 0.0
H500 H 0.94275 0.91546 0.65529 0.0
H501 H 0.85018 0.85761 0.70648 0.0
H502 H 0.85032 0.87467 0.62811 0.0
H503 H 0.86591 0.85077 0.62975 0.0
H504 H 0.86655 0.90945 0.42401 0.0
H505 H 0.90304 0.85135 0.4275 0.0
H506 H 0.88284 0.92749 0.5926 0.0
H507 H 0.85825 0.91282 0.60485 0.0
H508 H 0.86125 0.92948 0.52631 0.0
H509 H 0.9278 0.85739 0.59684 0.0
H510 H 0.92043 0.83796 0.53107 0.0
H511 H 0.90379 0.84176 0.60825 0.0
C512 C 0.40544 0.62366 0.7059 0.0
C513 C 0.38703 0.62035 0.66223 0.0
C514 C 0.40359 0.62572 0.78014 0.0
C515 C 0.38286 0.62397 0.81171 0.0
C516 C 0.36417 0.62082 0.7678 0.0
C517 C 0.36645 0.61925 0.69347 0.0
C518 C 0.42386 0.62951 0.82489 0.0
C519 C 0.34184 0.61854 0.79953 0.0
C520 C 0.3817 0.60753 0.00823 0.0
C521 C 0.37753 0.62688 0.04112 0.0
C522 C 0.38317 0.60632 0.93356 0.0
C523 C 0.38084 0.62497 0.89085 0.0
C524 C 0.37681 0.64458 0.92383 0.0
C525 C 0.375 0.64526 0.99849 0.0
C526 C 0.38712 0.58505 0.90035 0.0
C527 C 0.37463 0.66488 0.8803 0.0
H528 H 0.42137 0.62463 0.68198 0.0
H529 H 0.35218 0.61651 0.66005 0.0
H530 H 0.42181 0.64387 0.85751 0.0
H531 H 0.4266 0.61594 0.86248 0.0
H532 H 0.43858 0.63157 0.79177 0.0
H533 H 0.32892 0.6164 0.75802 0.0
H534 H 0.34158 0.60467 0.83684 0.0
H535 H 0.33791 0.63274 0.83095 0.0
H536 H 0.38353 0.59324 0.04082 0.0
H537 H 0.3719 0.6603 0.02359 0.0
H538 H 0.40263 0.58541 0.87083 0.0
H539 H 0.37393 0.58152 0.86109 0.0
H540 H 0.38792 0.57196 0.94082 0.0
H541 H 0.38964 0.66769 0.84933 0.0
H542 H 0.37174 0.67886 0.91415 0.0
H543 H 0.36095 0.66355 0.84121 0.0
C544 C 0.61614 0.12168 0.98048 0.0
C545 C 0.63541 0.12979 0.95158 0.0
C546 C 0.61368 0.11966 0.05485 0.0
C547 C 0.63109 0.12546 0.10116 0.0
C548 C 0.65064 0.13345 0.07212 0.0
C549 C 0.65248 0.13571 0.99776 0.0
C550 C 0.59244 0.11143 0.0839 0.0
C551 C 0.66973 0.13942 0.11958 0.0
C552 C 0.62117 0.13818 0.29577 0.0
C553 C 0.62695 0.11905 0.33035 0.0
C554 C 0.62188 0.14031 0.221 0.0
C555 C 0.629 0.12305 0.18004 0.0
C556 C 0.63484 0.1037 0.21472 0.0
C557 C 0.63353 0.10186 0.2894 0.0
C558 C 0.61513 0.16107 0.18585 0.0
C559 C 0.64293 0.08506 0.1731 0.0
H560 H 0.60286 0.11719 0.94499 0.0
H561 H 0.66749 0.14183 0.97572 0.0
H562 H 0.59531 0.09662 0.11551 0.0
H563 H 0.58544 0.12317 0.12049 0.0
H564 H 0.58031 0.10812 0.04083 0.0
H565 H 0.68394 0.14502 0.08847 0.0
H566 H 0.66492 0.15214 0.15629 0.0
H567 H 0.67483 0.12556 0.15316 0.0
H568 H 0.6159 0.15146 0.32715 0.0
H569 H 0.63812 0.08707 0.31587 0.0
H570 H 0.60229 0.15827 0.14471 0.0
H571 H 0.62921 0.16833 0.15823 0.0
H572 H 0.6089 0.17255 0.22491 0.0
H573 H 0.63057 0.08042 0.1324 0.0
H574 H 0.64663 0.07107 0.20805 0.0
H575 H 0.65789 0.08961 0.14414 0.0
C576 C 0.8782 0.361 0.23536 0.0
C577 C 0.88406 0.37992 0.20013 0.0
C578 C 0.87848 0.35941 0.31027 0.0
C579 C 0.88487 0.37715 0.35094 0.0
C580 C 0.89094 0.39625 0.31575 0.0
C581 C 0.89039 0.39744 0.24076 0.0
C582 C 0.87176 0.33881 0.34593 0.0
C583 C 0.89793 0.41547 0.35733 0.0
C584 C 0.8655 0.37975 0.54207 0.0
C585 C 0.8839 0.37267 0.58104 0.0
C586 C 0.86566 0.38137 0.46725 0.0
C587 C 0.88469 0.37585 0.43037 0.0
C588 C 0.9034 0.3689 0.46928 0.0
C589 C 0.90277 0.36735 0.54422 0.0
C590 C 0.84536 0.3888 0.42763 0.0
C591 C 0.92403 0.36297 0.43171 0.0
H592 H 0.87328 0.34739 0.20439 0.0
H593 H 0.89501 0.4121 0.214 0.0
H594 H 0.88515 0.33276 0.38118 0.0
H595 H 0.85749 0.3415 0.38017 0.0
H596 H 0.86748 0.32642 0.30663 0.0
H597 H 0.90262 0.42898 0.32188 0.0
H598 H 0.88449 0.42066 0.39181 0.0
H599 H 0.91197 0.4114 0.39301 0.0
H600 H 0.85083 0.38389 0.56999 0.0
H601 H 0.91706 0.36189 0.57387 0.0
H602 H 0.8396 0.37633 0.39072 0.0
H603 H 0.84903 0.4031 0.3946 0.0
H604 H 0.83195 0.39265 0.46433 0.0
H605 H 0.92076 0.34962 0.39521 0.0
H606 H 0.93729 0.35824 0.46979 0.0
H607 H 0.92975 0.37654 0.39845 0.0
C608 C 0.37325 0.1479 0.31818 0.0
C609 C 0.38602 0.13202 0.35137 0.0
C610 C 0.37091 0.14909 0.24335 0.0
C611 C 0.38129 0.13383 0.20094 0.0
C612 C 0.39426 0.11785 0.23422 0.0
C613 C 0.39659 0.11724 0.3089 0.0
C614 C 0.35718 0.16653 0.20968 0.0
C615 C 0.40536 0.10112 0.19101 0.0
C616 C 0.35828 0.12245 0.01587 0.0
C617 C 0.37325 0.13286 0.97157 0.0
C618 C 0.36059 0.12283 0.09058 0.0
C619 C 0.37814 0.13413 0.12186 0.0
C620 C 0.39309 0.14499 0.0775 0.0
C621 C 0.39056 0.1441 0.00285 0.0
C622 C 0.34447 0.11082 0.13601 0.0
C623 C 0.41186 0.1574 0.10892 0.0
H624 H 0.36511 0.15943 0.35068 0.0
H625 H 0.40639 0.10484 0.3341 0.0
H626 H 0.36682 0.17561 0.16991 0.0
H627 H 0.34307 0.15957 0.18065 0.0
H628 H 0.35099 0.17769 0.24985 0.0
H629 H 0.41505 0.08988 0.22504 0.0
H630 H 0.393 0.09196 0.16052 0.0
H631 H 0.41631 0.1087 0.15157 0.0
H632 H 0.34488 0.1137 0.99216 0.0
H633 H 0.4021 0.15231 0.96898 0.0
H634 H 0.33668 0.12169 0.17385 0.0
H635 H 0.35306 0.09841 0.16838 0.0
H636 H 0.33152 0.10311 0.10342 0.0
H637 H 0.40572 0.16924 0.14681 0.0
H638 H 0.42143 0.16579 0.06724 0.0
H639 H 0.42289 0.14657 0.13962 0.0
C640 C 0.62359 0.64244 0.00257 0.0
C641 C 0.6264 0.62414 0.04533 0.0
C642 C 0.62009 0.64109 0.92853 0.0
C643 C 0.61976 0.62095 0.89634 0.0
C644 C 0.62237 0.60239 0.9393 0.0
C645 C 0.62548 0.6042 0.01346 0.0
C646 C 0.61703 0.66123 0.88464 0.0
C647 C 0.62239 0.58066 0.90671 0.0
C648 C 0.59465 0.61593 0.71042 0.0
C649 C 0.61309 0.61714 0.66733 0.0
C650 C 0.59655 0.61721 0.7851 0.0
C651 C 0.61741 0.6194 0.81739 0.0
C652 C 0.6361 0.62041 0.77419 0.0
C653 C 0.63369 0.61944 0.69964 0.0
C654 C 0.57623 0.61641 0.8294 0.0
C655 C 0.65865 0.62247 0.80673 0.0
H656 H 0.62411 0.6579 0.02699 0.0
H657 H 0.62774 0.59 0.04624 0.0
H658 H 0.6305 0.66303 0.84627 0.0
H659 H 0.60164 0.66043 0.85291 0.0
H660 H 0.6166 0.67555 0.91832 0.0
H661 H 0.62416 0.56778 0.94768 0.0
H662 H 0.60706 0.57809 0.87593 0.0
H663 H 0.63598 0.57947 0.86867 0.0
H664 H 0.57867 0.61424 0.68574 0.0
H665 H 0.64802 0.62023 0.66668 0.0
H666 H 0.57494 0.63109 0.86088 0.0
H667 H 0.57713 0.60289 0.86805 0.0
H668 H 0.56122 0.61474 0.79604 0.0
H669 H 0.65993 0.63741 0.8369 0.0
H670 H 0.67154 0.62244 0.76579 0.0
H671 H 0.66178 0.6092 0.84527 0.0
C672 C 0.13319 0.86081 0.47892 0.0
C673 C 0.14663 0.8746 0.4397 0.0
C674 C 0.131 0.86284 0.55323 0.0
C675 C 0.14246 0.87908 0.5893 0.0
C676 C 0.15632 0.89281 0.55021 0.0
C677 C 0.15825 0.89039 0.47608 0.0
C678 C 0.11613 0.84783 0.59297 0.0
C679 C 0.1688 0.91035 0.58648 0.0
C680 C 0.12052 0.9001 0.76327 0.0
C681 C 0.13453 0.89066 0.81459 0.0
C682 C 0.12272 0.89619 0.69009 0.0
C683 C 0.13928 0.88238 0.6673 0.0
C684 C 0.1532 0.87242 0.71884 0.0
C685 C 0.1507 0.87671 0.79183 0.0
C686 C 0.10757 0.9072 0.63699 0.0
C687 C 0.17097 0.85751 0.69676 0.0
H688 H 0.1242 0.84851 0.45146 0.0
H689 H 0.16873 0.90109 0.44648 0.0
H690 H 0.12513 0.83998 0.63797 0.0
H691 H 0.10254 0.85683 0.61624 0.0
H692 H 0.10918 0.83543 0.55785 0.0
H693 H 0.17946 0.91922 0.549 0.0
H694 H 0.15725 0.92168 0.61008 0.0
H695 H 0.17902 0.90373 0.63089 0.0
H696 H 0.10796 0.91089 0.78011 0.0
H697 H 0.16158 0.8693 0.83099 0.0
H698 H 0.09914 0.89534 0.60329 0.0
H699 H 0.11708 0.91765 0.60079 0.0
H700 H 0.09511 0.91695 0.66347 0.0
H701 H 0.164 0.84465 0.66376 0.0
H702 H 0.17976 0.85027 0.74345 0.0
H703 H 0.18289 0.8662 0.66332 0.0
C704 C 0.87511 0.63371 0.79228 0.0
C705 C 0.8811 0.61289 0.81124 0.0
C706 C 0.87306 0.6401 0.72 0.0
C707 C 0.87654 0.62517 0.66563 0.0
C708 C 0.88223 0.60405 0.6847 0.0
C709 C 0.88469 0.59825 0.75713 0.0
C710 C 0.86741 0.66286 0.70179 0.0
C711 C 0.88559 0.58749 0.62859 0.0
C712 C 0.85192 0.63464 0.47986 0.0
C713 C 0.87028 0.64036 0.44029 0.0
C714 C 0.85366 0.62993 0.5534 0.0
C715 C 0.87418 0.63145 0.58863 0.0
C716 C 0.89265 0.63786 0.54932 0.0
C717 C 0.89053 0.64198 0.47544 0.0
C718 C 0.83367 0.62266 0.59287 0.0
C719 C 0.91471 0.6401 0.58514 0.0
H720 H 0.87244 0.6451 0.83391 0.0
H721 H 0.88913 0.58207 0.77142 0.0
H722 H 0.88025 0.66999 0.66791 0.0
H723 H 0.85194 0.66358 0.67041 0.0
H724 H 0.86566 0.67262 0.75021 0.0
H725 H 0.88932 0.57162 0.65237 0.0
H726 H 0.87077 0.58619 0.59422 0.0
H727 H 0.89918 0.59226 0.59348 0.0
H728 H 0.83624 0.63323 0.45289 0.0
H729 H 0.90473 0.64655 0.44519 0.0
H730 H 0.83083 0.63297 0.63916 0.0
H731 H 0.83622 0.60631 0.61423 0.0
H732 H 0.81884 0.6228 0.5581 0.0
H733 H 0.91356 0.65051 0.6321 0.0
H734 H 0.92706 0.64678 0.54831 0.0
H735 H 0.92047 0.62437 0.605 0.0
C736 C 0.11524 0.13339 0.55901 0.0
C737 C 0.12858 0.14932 0.58748 0.0
C738 C 0.11038 0.13289 0.4855 0.0
C739 C 0.11912 0.14868 0.43954 0.0
C740 C 0.13216 0.16508 0.46819 0.0
C741 C 0.13672 0.16521 0.54182 0.0
C742 C 0.09636 0.1152 0.4568 0.0
C743 C 0.14177 0.18219 0.4208 0.0
C744 C 0.12777 0.13603 0.24487 0.0
C745 C 0.1104 0.14684 0.21101 0.0
C746 C 0.13057 0.13626 0.31932 0.0
C747 C 0.1156 0.1475 0.36101 0.0
C748 C 0.0978 0.15811 0.32742 0.0
C749 C 0.09543 0.1577 0.2527 0.0
C750 C 0.1498 0.12479 0.35324 0.0
C751 C 0.08147 0.17017 0.37033 0.0
H752 H 0.10883 0.12109 0.59398 0.0
H753 H 0.14697 0.17763 0.5634 0.0
H754 H 0.08253 0.12183 0.42479 0.0
H755 H 0.10603 0.10527 0.42069 0.0
H756 H 0.0898 0.10487 0.50008 0.0
H757 H 0.15075 0.19435 0.45186 0.0
H758 H 0.15315 0.175 0.38271 0.0
H759 H 0.12873 0.19018 0.38872 0.0
H760 H 0.13941 0.12758 0.21313 0.0
H761 H 0.08193 0.16602 0.22697 0.0
H762 H 0.14414 0.11314 0.39399 0.0
H763 H 0.16052 0.13628 0.38109 0.0
H764 H 0.1596 0.1163 0.31342 0.0
H765 H 0.07437 0.15961 0.41192 0.0
H766 H 0.06803 0.17682 0.3364 0.0
H767 H 0.08971 0.18338 0.39831 0.0
C768 C 0.61177 0.39502 0.28649 0.0
C769 C 0.61771 0.37982 0.33874 0.0
C770 C 0.61484 0.39128 0.21378 0.0
C771 C 0.62367 0.37168 0.19275 0.0
C772 C 0.62937 0.3561 0.24514 0.0
C773 C 0.62651 0.36045 0.31773 0.0
C774 C 0.60887 0.40842 0.15953 0.0
C775 C 0.63846 0.33488 0.22449 0.0
C776 C 0.61227 0.35802 0.99927 0.0
C777 C 0.63183 0.36399 0.96698 0.0
C778 C 0.60972 0.35957 0.07332 0.0
C779 C 0.62699 0.36768 0.11573 0.0
C780 C 0.64696 0.37326 0.08364 0.0
C781 C 0.64921 0.37116 0.00962 0.0
C782 C 0.58833 0.35309 0.10586 0.0
C783 C 0.66563 0.38228 0.12699 0.0
H784 H 0.60513 0.4101 0.30248 0.0
H785 H 0.63103 0.34862 0.35801 0.0
H786 H 0.62336 0.41284 0.1279 0.0
H787 H 0.59634 0.40245 0.12157 0.0
H788 H 0.60251 0.4229 0.18486 0.0
H789 H 0.6415 0.32428 0.27162 0.0
H790 H 0.62697 0.32689 0.18734 0.0
H791 H 0.65397 0.33717 0.19584 0.0
H792 H 0.59886 0.35228 0.96653 0.0
H793 H 0.66433 0.37587 0.98481 0.0
H794 H 0.58002 0.36726 0.12666 0.0
H795 H 0.59119 0.342 0.15174 0.0
H796 H 0.57727 0.34536 0.06662 0.0
H797 H 0.66071 0.39767 0.14959 0.0
H798 H 0.68041 0.38487 0.09456 0.0
H799 H 0.66982 0.3715 0.17261 0.0
C800 C 0.3613 0.88768 0.96646 0.0
C801 C 0.37224 0.87224 0.0082 0.0
C802 C 0.36315 0.88831 0.89178 0.0
C803 C 0.37617 0.87307 0.85792 0.0
C804 C 0.38692 0.85719 0.89955 0.0
C805 C 0.38489 0.857 0.9742 0.0
C806 C 0.35151 0.90556 0.84923 0.0
C807 C 0.40086 0.84061 0.86534 0.0
C808 C 0.36718 0.86725 0.65751 0.0
C809 C 0.38386 0.88008 0.63015 0.0
C810 C 0.36483 0.86427 0.73164 0.0
C811 C 0.37941 0.87449 0.77933 0.0
C812 C 0.39666 0.88691 0.75193 0.0
C813 C 0.39873 0.88947 0.67779 0.0
C814 C 0.34638 0.85071 0.75894 0.0
C815 C 0.41252 0.89812 0.80096 0.0
H816 H 0.35146 0.89948 0.99217 0.0
H817 H 0.3933 0.84493 0.00594 0.0
H818 H 0.36358 0.91571 0.82135 0.0
H819 H 0.34084 0.89848 0.80761 0.0
H820 H 0.34143 0.91576 0.88336 0.0
H821 H 0.40716 0.82867 0.90479 0.0
H822 H 0.39136 0.8323 0.82337 0.0
H823 H 0.41489 0.84834 0.83888 0.0
H824 H 0.35566 0.85989 0.62109 0.0
H825 H 0.41171 0.89938 0.65728 0.0
H826 H 0.33475 0.8607 0.78806 0.0
H827 H 0.35268 0.8385 0.79735 0.0
H828 H 0.33742 0.84266 0.71506 0.0
H829 H 0.40371 0.9099 0.83295 0.0
H830 H 0.42557 0.90647 0.77116 0.0
H831 H 0.4202 0.8866 0.83908 0.0
C832 C 0.14812 0.69019 0.10657 0.0
C833 C 0.13464 0.67788 0.15077 0.0
C834 C 0.15108 0.71197 0.11801 0.0
C835 C 0.14024 0.72176 0.17484 0.0
C836 C 0.12648 0.70947 0.21936 0.0
C837 C 0.12387 0.6877 0.20685 0.0
C838 C 0.16594 0.72448 0.06948 0.0
C839 C 0.11453 0.71933 0.2803 0.0
C840 C 0.16248 0.77375 0.24649 0.0
C841 C 0.14864 0.78869 0.2129 0.0
C842 C 0.16002 0.75194 0.23428 0.0
C843 C 0.14324 0.74486 0.18761 0.0
C844 C 0.1293 0.75986 0.15323 0.0
C845 C 0.13221 0.78157 0.1661 0.0
C846 C 0.1753 0.73645 0.27162 0.0
C847 C 0.11118 0.75297 0.10328 0.0
H848 H 0.15657 0.68278 0.0632 0.0
H849 H 0.11332 0.67839 0.24105 0.0
H850 H 0.15678 0.73763 0.04284 0.0
H851 H 0.1793 0.73171 0.1014 0.0
H852 H 0.1732 0.71452 0.02773 0.0
H853 H 0.10444 0.70762 0.30996 0.0
H854 H 0.12635 0.72651 0.3183 0.0
H855 H 0.10381 0.73227 0.25958 0.0
H856 H 0.17524 0.77907 0.28265 0.0
H857 H 0.12138 0.79296 0.13998 0.0
H858 H 0.1838 0.72684 0.2316 0.0
H859 H 0.16592 0.72531 0.30582 0.0
H860 H 0.18769 0.74451 0.30548 0.0
H861 H 0.11797 0.74387 0.05864 0.0
H862 H 0.10179 0.76661 0.08055 0.0
H863 H 0.09983 0.74229 0.13217 0.0
C864 C 0.5409 0.86311 0.34491 0.0
C865 C 0.55347 0.88113 0.35924 0.0
C866 C 0.51809 0.86412 0.3428 0.0
C867 C 0.5076 0.88382 0.35265 0.0
C868 C 0.52025 0.90213 0.36678 0.0
C869 C 0.54307 0.90047 0.37125 0.0
C870 C 0.50523 0.84408 0.32998 0.0
C871 C 0.50973 0.92353 0.37528 0.0
C872 C 0.4505 0.88624 0.27191 0.0
C873 C 0.43763 0.88351 0.33247 0.0
C874 C 0.47327 0.88751 0.27818 0.0
C875 C 0.48342 0.88518 0.34641 0.0
C876 C 0.47043 0.88271 0.40788 0.0
C877 C 0.44764 0.88228 0.40025 0.0
C878 C 0.48648 0.89086 0.21159 0.0
C879 C 0.4806 0.87947 0.48128 0.0
H880 H 0.54894 0.84809 0.33642 0.0
H881 H 0.55282 0.91443 0.38192 0.0
H882 H 0.49313 0.84169 0.37278 0.0
H883 H 0.49607 0.84547 0.27854 0.0
H884 H 0.51581 0.82983 0.32832 0.0
H885 H 0.52186 0.9362 0.38607 0.0
H886 H 0.50038 0.92785 0.32589 0.0
H887 H 0.49801 0.92293 0.4197 0.0
H888 H 0.44273 0.88733 0.21952 0.0
H889 H 0.43769 0.87995 0.44705 0.0
H890 H 0.49588 0.87632 0.20062 0.0
H891 H 0.49836 0.90392 0.21937 0.0
H892 H 0.47608 0.89471 0.16397 0.0
H893 H 0.48998 0.86444 0.48288 0.0
H894 H 0.46824 0.87877 0.52394 0.0
H895 H 0.49221 0.89246 0.49319 0.0
C896 C 0.38088 0.30592 0.71401 0.0
C897 C 0.36962 0.31529 0.65575 0.0
C898 C 0.38041 0.28389 0.72602 0.0
C899 C 0.36841 0.27088 0.67865 0.0
C900 C 0.35714 0.2802 0.61947 0.0
C901 C 0.35789 0.30228 0.6087 0.0
C902 C 0.39269 0.27453 0.78966 0.0
C903 C 0.34415 0.26686 0.56782 0.0
C904 C 0.38257 0.21225 0.67596 0.0
C905 C 0.36654 0.2034 0.72001 0.0
C906 C 0.38325 0.23416 0.66146 0.0
C907 C 0.36748 0.24754 0.69152 0.0
C908 C 0.35103 0.23867 0.73494 0.0
C909 C 0.35077 0.21672 0.74872 0.0
C910 C 0.40105 0.24303 0.6149 0.0
C911 C 0.33387 0.25242 0.76768 0.0
H912 H 0.39007 0.31579 0.75048 0.0
H913 H 0.34913 0.30934 0.56352 0.0
H914 H 0.38125 0.26601 0.82537 0.0
H915 H 0.40474 0.26278 0.77158 0.0
H916 H 0.40138 0.2868 0.82108 0.0
H917 H 0.33651 0.27652 0.52399 0.0
H918 H 0.35482 0.2548 0.54395 0.0
H919 H 0.33115 0.2582 0.59669 0.0
H920 H 0.39482 0.20209 0.65351 0.0
H921 H 0.33829 0.21003 0.78266 0.0
H922 H 0.4112 0.2543 0.64583 0.0
H923 H 0.39383 0.25201 0.56883 0.0
H924 H 0.41176 0.23044 0.59425 0.0
H925 H 0.34169 0.26402 0.80386 0.0
H926 H 0.32185 0.243 0.79861 0.0
H927 H 0.32504 0.26161 0.72523 0.0
C928 C 0.94802 0.13241 0.95333 0.0
C929 C 0.93847 0.12623 0.8883 0.0
C930 C 0.97071 0.13433 0.9612 0.0
C931 C 0.98422 0.13011 0.90252 0.0
C932 C 0.97473 0.12359 0.83706 0.0
C933 C 0.95199 0.12166 0.8308 0.0
C934 C 0.98021 0.14122 0.03203 0.0
C935 C 0.98855 0.11908 0.77312 0.0
C936 C 0.03949 0.15715 0.90205 0.0
C937 C 0.05339 0.14078 0.92609 0.0
C938 C 0.01705 0.15376 0.89299 0.0
C939 C 0.00818 0.13352 0.90871 0.0
C940 C 0.02215 0.11679 0.93171 0.0
C941 C 0.04461 0.1206 0.93989 0.0
C942 C 0.00276 0.17197 0.86772 0.0
C943 C 0.01328 0.09501 0.94918 0.0
H944 H 0.93774 0.13586 0.99819 0.0
H945 H 0.94481 0.1169 0.78028 0.0
H946 H 0.99253 0.12957 0.05171 0.0
H947 H 0.98864 0.15667 0.02516 0.0
H948 H 0.96759 0.1429 0.07339 0.0
H949 H 0.97874 0.11334 0.72694 0.0
H950 H 0.99729 0.1337 0.75635 0.0
H951 H 1.00106 0.10699 0.78741 0.0
H952 H 0.04612 0.17277 0.89089 0.0
H953 H 0.05521 0.10788 0.95865 0.0
H954 H 0.99082 0.17573 0.90946 0.0
H955 H 0.99338 0.16746 0.81915 0.0
H956 H 0.01229 0.18652 0.85531 0.0
H957 H 0.0018 0.09598 0.99415 0.0
H958 H 0.02636 0.08354 0.96418 0.0
H959 H 0.00402 0.08881 0.90265 0.0
C960 C 0.09789 0.29643 0.82783 0.0
C961 C 0.11522 0.31069 0.837 0.0
C962 C 0.10068 0.2746 0.84082 0.0
C963 C 0.12134 0.26677 0.86317 0.0
C964 C 0.1388 0.28111 0.87374 0.0
C965 C 0.13552 0.3029 0.86076 0.0
C966 C 0.08159 0.25986 0.82942 0.0
C967 C 0.16108 0.27338 0.89733 0.0
C968 C 0.12357 0.21148 0.94803 0.0
C969 C 0.12921 0.19901 0.88975 0.0
C970 C 0.12125 0.23358 0.94047 0.0
C971 C 0.12476 0.2435 0.87315 0.0
C972 C 0.13089 0.23106 0.81453 0.0
C973 C 0.13298 0.209 0.82346 0.0
C974 C 0.11459 0.24627 0.00418 0.0
C975 C 0.13491 0.24103 0.74194 0.0
H976 H 0.08212 0.3023 0.80989 0.0
H977 H 0.14901 0.31379 0.86796 0.0
H978 H 0.08525 0.24865 0.7862 0.0
H979 H 0.07873 0.25027 0.87865 0.0
H980 H 0.06639 0.26854 0.81479 0.0
H981 H 0.17275 0.28662 0.90551 0.0
H982 H 0.15994 0.26404 0.94793 0.0
H983 H 0.1677 0.26269 0.85655 0.0
H984 H 0.12054 0.20395 0.99942 0.0
H985 H 0.13742 0.19957 0.77812 0.0
H986 H 0.09865 0.254 0.9929 0.0
H987 H 0.1266 0.25906 0.01434 0.0
H988 H 0.11319 0.2363 0.05342 0.0
H989 H 0.11977 0.24865 0.72109 0.0
H990 H 0.14036 0.22927 0.70253 0.0
H991 H 0.14746 0.25362 0.74636 0.0
C992 C 0.06487 0.87043 0.15893 0.0
C993 C 0.07932 0.88063 0.11215 0.0
C994 C 0.04238 0.87029 0.14481 0.0
C995 C 0.03406 0.88057 0.08234 0.0
C996 C 0.04843 0.89137 0.03581 0.0
C997 C 0.07089 0.89129 0.05129 0.0
C998 C 0.02758 0.85865 0.19589 0.0
C999 C 0.04015 0.90254 0.96872 0.0
C1000 C 0.97997 0.86023 0.01015 0.0
C1001 C 0.96531 0.87523 0.03574 0.0
C1002 C 0.00241 0.862 0.02396 0.0
C1003 C 0.01042 0.87918 0.0644 0.0
C1004 C 0.99577 0.89452 0.0897 0.0
C1005 C 0.97338 0.89237 0.07507 0.0
C1006 C 0.01752 0.8453 0.99607 0.0
C1007 C 0.00371 0.91304 0.13303 0.0
H1008 H 0.07114 0.86222 0.20628 0.0
H1009 H 0.08188 0.89924 0.01481 0.0
H1010 H 0.01454 0.86937 0.21384 0.0
H1011 H 0.01954 0.84525 0.16825 0.0
H1012 H 0.03649 0.85228 0.24373 0.0
H1013 H 0.05329 0.91108 0.93999 0.0
H1014 H 0.0327 0.89083 0.93212 0.0
H1015 H 0.02727 0.91407 0.98198 0.0
H1016 H 0.97391 0.84697 0.97957 0.0
H1017 H 0.96219 0.90407 0.09491 0.0
H1018 H 0.02596 0.83705 0.04145 0.0
H1019 H 0.03023 0.85284 0.96268 0.0
H1020 H 0.00878 0.8333 0.96365 0.0
H1021 H 0.01158 0.90718 0.18337 0.0
H1022 H 0.99031 0.92399 0.14667 0.0
H1023 H 0.01618 0.9221 0.103 0.0
C1024 C 0.41202 0.69307 0.27357 0.0
C1025 C 0.39502 0.6797 0.29533 0.0
C1026 C 0.41076 0.7151 0.2819 0.0
C1027 C 0.39208 0.72398 0.31296 0.0
C1028 C 0.37521 0.71051 0.33742 0.0
C1029 C 0.37687 0.68852 0.32822 0.0
C1030 C 0.42909 0.72892 0.25503 0.0
C1031 C 0.3551 0.71939 0.37114 0.0
C1032 C 0.39635 0.78131 0.37188 0.0
C1033 C 0.38714 0.79217 0.31269 0.0
C1034 C 0.39762 0.75904 0.37365 0.0
C1035 C 0.38956 0.74743 0.31476 0.0
C1036 C 0.37984 0.75829 0.25564 0.0
C1037 C 0.37871 0.78048 0.25539 0.0
C1038 C 0.40799 0.74798 0.43777 0.0
C1039 C 0.37107 0.74649 0.19172 0.0
H1040 H 0.42616 0.6864 0.24844 0.0
H1041 H 0.36371 0.67829 0.34555 0.0
H1042 H 0.4231 0.7391 0.20994 0.0
H1043 H 0.43493 0.73958 0.29781 0.0
H1044 H 0.44308 0.71947 0.2364 0.0
H1045 H 0.34432 0.70674 0.3927 0.0
H1046 H 0.3597 0.73016 0.41513 0.0
H1047 H 0.34572 0.7289 0.3308 0.0
H1048 H 0.40284 0.79019 0.41647 0.0
H1049 H 0.3715 0.78869 0.20946 0.0
H1050 H 0.42299 0.7397 0.42149 0.0
H1051 H 0.39679 0.73576 0.45957 0.0
H1052 H 0.41232 0.75918 0.48091 0.0
H1053 H 0.38449 0.73783 0.16608 0.0
H1054 H 0.36332 0.75725 0.15113 0.0
H1055 H 0.35889 0.73453 0.20895 0.0
C1056 C 0.54602 0.16071 0.60428 0.0
C1057 C 0.55846 0.14251 0.5927 0.0
C1058 C 0.52364 0.15926 0.61753 0.0
C1059 C 0.51336 0.13915 0.61781 0.0
C1060 C 0.52589 0.12068 0.60687 0.0
C1061 C 0.54834 0.12257 0.59514 0.0
C1062 C 0.51094 0.17928 0.63036 0.0
C1063 C 0.51547 0.09899 0.60563 0.0
C1064 C 0.45782 0.13345 0.70339 0.0
C1065 C 0.44377 0.13587 0.64397 0.0
C1066 C 0.48053 0.13449 0.69578 0.0
C1067 C 0.48936 0.13756 0.62692 0.0
C1068 C 0.47524 0.13958 0.56661 0.0
C1069 C 0.45262 0.13894 0.57596 0.0
C1070 C 0.49504 0.13267 0.7615 0.0
C1071 C 0.484 0.14248 0.49214 0.0
H1072 H 0.55379 0.17615 0.60311 0.0
H1073 H 0.55787 0.10845 0.58597 0.0
H1074 H 0.49864 0.18175 0.58693 0.0
H1075 H 0.50201 0.17781 0.68128 0.0
H1076 H 0.52158 0.19352 0.63266 0.0
H1077 H 0.52756 0.08617 0.59811 0.0
H1078 H 0.5068 0.09583 0.65623 0.0
H1079 H 0.50319 0.09838 0.56155 0.0
H1080 H 0.45106 0.13118 0.75613 0.0
H1081 H 0.44185 0.14063 0.52974 0.0
H1082 H 0.50497 0.14728 0.76687 0.0
H1083 H 0.50651 0.11924 0.75629 0.0
H1084 H 0.48562 0.13023 0.81115 0.0
H1085 H 0.49334 0.15751 0.48839 0.0
H1086 H 0.47087 0.14284 0.4506 0.0
H1087 H 0.49538 0.1294 0.48028 0.0
C1088 C 0.86642 0.20325 0.83926 0.0
C1089 C 0.8866 0.19534 0.81803 0.0
C1090 C 0.86349 0.225 0.8513 0.0
C1091 C 0.8812 0.23916 0.84241 0.0
C1092 C 0.90171 0.23119 0.82239 0.0
C1093 C 0.90414 0.20942 0.81024 0.0
C1094 C 0.84134 0.23289 0.87231 0.0
C1095 C 0.92106 0.24571 0.81293 0.0
C1096 C 0.87054 0.29764 0.80289 0.0
C1097 C 0.8743 0.30671 0.86998 0.0
C1098 C 0.87235 0.27567 0.79351 0.0
C1099 C 0.87824 0.26238 0.85247 0.0
C1100 C 0.88189 0.27136 0.92044 0.0
C1101 C 0.87981 0.29338 0.92844 0.0
C1102 C 0.86818 0.2667 0.72025 0.0
C1103 C 0.88835 0.25775 0.98451 0.0
H1104 H 0.85276 0.19251 0.84534 0.0
H1105 H 0.91983 0.20345 0.79419 0.0
H1106 H 0.84261 0.24152 0.92335 0.0
H1107 H 0.83503 0.24426 0.83108 0.0
H1108 H 0.82938 0.2198 0.87861 0.0
H1109 H 0.93607 0.23692 0.79951 0.0
H1110 H 0.91755 0.25751 0.7696 0.0
H1111 H 0.92419 0.25464 0.8626 0.0
H1112 H 0.86619 0.30774 0.75739 0.0
H1113 H 0.88282 0.30017 0.98048 0.0
H1114 H 0.85535 0.25432 0.72296 0.0
H1115 H 0.88316 0.259 0.701 0.0
H1116 H 0.86302 0.27906 0.68049 0.0
H1117 H 0.87601 0.24516 0.99344 0.0
H1118 H 0.89011 0.26709 0.03404 0.0
H1119 H 0.90404 0.24973 0.97448 0.0
C1120 C 0.62662 0.78134 0.3031 0.0
C1121 C 0.60534 0.78938 0.30464 0.0
C1122 C 0.63063 0.75947 0.30919 0.0
C1123 C 0.61297 0.74526 0.31784 0.0
C1124 C 0.59148 0.75328 0.32026 0.0
C1125 C 0.58791 0.77523 0.31324 0.0
C1126 C 0.65377 0.75154 0.3057 0.0
C1127 C 0.57224 0.73865 0.33023 0.0
C1128 C 0.62073 0.68738 0.27027 0.0
C1129 C 0.62512 0.67798 0.33746 0.0
C1130 C 0.61686 0.70927 0.26302 0.0
C1131 C 0.61703 0.72202 0.32459 0.0
C1132 C 0.62127 0.7126 0.39261 0.0
C1133 C 0.62541 0.69074 0.39817 0.0
C1134 C 0.61268 0.71877 0.18944 0.0
C1135 C 0.62131 0.7256 0.45963 0.0
H1136 H 0.64019 0.79213 0.29605 0.0
H1137 H 0.57143 0.7813 0.31463 0.0
H1138 H 0.65815 0.74267 0.3556 0.0
H1139 H 0.6553 0.74038 0.26088 0.0
H1140 H 0.66567 0.76463 0.29815 0.0
H1141 H 0.55659 0.74742 0.33218 0.0
H1142 H 0.57128 0.72727 0.28577 0.0
H1143 H 0.57434 0.72924 0.38052 0.0
H1144 H 0.62046 0.67767 0.2231 0.0
H1145 H 0.62859 0.68361 0.45042 0.0
H1146 H 0.6249 0.73129 0.17797 0.0
H1147 H 0.59643 0.72642 0.18708 0.0
H1148 H 0.61337 0.70674 0.14689 0.0
H1149 H 0.63393 0.73815 0.45626 0.0
H1150 H 0.62449 0.7158 0.5086 0.0
H1151 H 0.60537 0.73364 0.46489 0.0
C1152 C 0.87012 0.72012 0.15905 0.0
C1153 C 0.88743 0.71274 0.20261 0.0
C1154 C 0.86725 0.74191 0.14472 0.0
C1155 C 0.88206 0.75669 0.17453 0.0
C1156 C 0.89952 0.74933 0.21864 0.0
C1157 C 0.90198 0.72748 0.23215 0.0
C1158 C 0.84842 0.74913 0.0975 0.0
C1159 C 0.91568 0.76455 0.25137 0.0
C1160 C 0.8886 0.81121 0.08742 0.0
C1161 C 0.87678 0.82415 0.13321 0.0
C1162 C 0.89012 0.78922 0.09955 0.0
C1163 C 0.87955 0.77983 0.15887 0.0
C1164 C 0.86723 0.79269 0.2045 0.0
C1165 C 0.866 0.81466 0.19118 0.0
C1166 C 0.90343 0.77609 0.04966 0.0
C1167 C 0.85569 0.78327 0.26823 0.0
H1168 H 0.85877 0.70888 0.13607 0.0
H1169 H 0.9154 0.72197 0.2659 0.0
H1170 H 0.83803 0.7603 0.12676 0.0
H1171 H 0.85461 0.75779 0.04987 0.0
H1172 H 0.83819 0.73568 0.0792 0.0
H1173 H 0.92824 0.75631 0.28499 0.0
H1174 H 0.92397 0.77372 0.20859 0.0
H1175 H 0.90708 0.77611 0.28486 0.0
H1176 H 0.89701 0.8183 0.04246 0.0
H1177 H 0.8568 0.82444 0.22688 0.0
H1178 H 0.89336 0.76308 0.02753 0.0
H1179 H 0.91725 0.76865 0.07961 0.0
H1180 H 0.91002 0.78567 0.00455 0.0
H1181 H 0.84461 0.77037 0.25098 0.0
H1182 H 0.84606 0.79526 0.29683 0.0
H1183 H 0.86777 0.77616 0.30628 0.0
C1184 C 0.63419 0.20264 0.59562 0.0
C1185 C 0.62976 0.18952 0.65503 0.0
C1186 C 0.63231 0.22479 0.59934 0.0
C1187 C 0.62606 0.23407 0.66421 0.0
C1188 C 0.62211 0.22095 0.72484 0.0
C1189 C 0.6239 0.19885 0.71942 0.0
C1190 C 0.63646 0.23822 0.53336 0.0
C1191 C 0.61561 0.23024 0.79518 0.0
C1192 C 0.63602 0.29277 0.69594 0.0
C1193 C 0.61509 0.30121 0.68484 0.0
C1194 C 0.63996 0.27098 0.68822 0.0
C1195 C 0.62263 0.2574 0.66802 0.0
C1196 C 0.60167 0.26599 0.65418 0.0
C1197 C 0.59813 0.28774 0.66318 0.0
C1198 C 0.66249 0.26239 0.70398 0.0
C1199 C 0.58282 0.2521 0.63152 0.0
H1200 H 0.63867 0.19558 0.54556 0.0
H1201 H 0.6206 0.18886 0.76573 0.0
H1202 H 0.62131 0.24663 0.51667 0.0
H1203 H 0.6489 0.25049 0.54514 0.0
H1204 H 0.64208 0.22865 0.48794 0.0
H1205 H 0.61428 0.21797 0.83825 0.0
H1206 H 0.62769 0.24231 0.81221 0.0
H1207 H 0.59967 0.23836 0.78879 0.0
H1208 H 0.64919 0.30307 0.71293 0.0
H1209 H 0.58195 0.29417 0.65397 0.0
H1210 H 0.66833 0.25325 0.65798 0.0
H1211 H 0.66199 0.25132 0.75069 0.0
H1212 H 0.67443 0.27516 0.71571 0.0
H1213 H 0.58719 0.24291 0.58384 0.0
H1214 H 0.56788 0.26142 0.61874 0.0
H1215 H 0.5791 0.24051 0.67492 0.0
C1216 C 0.96657 0.38113 0.02227 0.0
C1217 C 0.95124 0.37436 0.97126 0.0
C1218 C 0.98867 0.38302 0.00568 0.0
C1219 C 0.99575 0.3774 0.93694 0.0
C1220 C 0.98028 0.37085 0.88474 0.0
C1221 C 0.95811 0.3697 0.90225 0.0
C1222 C 0.00451 0.39064 0.06228 0.0
C1223 C 0.98725 0.36426 0.81143 0.0
C1224 C 0.05197 0.39604 0.88054 0.0
C1225 C 0.06494 0.37868 0.90158 0.0
C1226 C 0.02937 0.3958 0.89102 0.0
C1227 C 0.01947 0.37752 0.92127 0.0
C1228 C 0.03246 0.35968 0.9403 0.0
C1229 C 0.05508 0.36061 0.93127 0.0
C1230 C 0.0162 0.41536 0.87196 0.0
C1231 C 0.0225 0.33968 0.97104 0.0
H1232 H 0.96126 0.38491 0.07553 0.0
H1233 H 0.9463 0.36429 0.86292 0.0
H1234 H 0.01587 0.37765 0.07799 0.0
H1235 H 0.01445 0.40393 0.04083 0.0
H1236 H 0.99616 0.39603 0.11091 0.0
H1237 H 0.97316 0.36036 0.77606 0.0
H1238 H 0.99684 0.37707 0.78553 0.0
H1239 H 0.99795 0.35013 0.81642 0.0
H1240 H 0.0596 0.41008 0.85794 0.0
H1241 H 0.06507 0.34708 0.94684 0.0
H1242 H 0.00877 0.42167 0.92086 0.0
H1243 H 0.0027 0.41133 0.83454 0.0
H1244 H 0.02625 0.42805 0.84703 0.0
H1245 H 0.01562 0.34292 0.02418 0.0
H1246 H 0.03455 0.32663 0.9773 0.0
H1247 H 0.0089 0.33426 0.93607 0.0
C1248 C 0.45259 0.61732 0.43043 0.0
C1249 C 0.44218 0.61185 0.36606 0.0
C1250 C 0.47536 0.61907 0.43544 0.0
C1251 C 0.48807 0.61574 0.37417 0.0
C1252 C 0.47767 0.61021 0.30899 0.0
C1253 C 0.45488 0.60813 0.30588 0.0
C1254 C 0.4858 0.62467 0.50626 0.0
C1255 C 0.49058 0.60693 0.24213 0.0
C1256 C 0.54372 0.6422 0.37634 0.0
C1257 C 0.55753 0.6252 0.39474 0.0
C1258 C 0.5212 0.63919 0.36714 0.0
C1259 C 0.51216 0.61874 0.37803 0.0
C1260 C 0.52607 0.60143 0.39538 0.0
C1261 C 0.54862 0.60483 0.40284 0.0
C1262 C 0.50703 0.658 0.34715 0.0
C1263 C 0.51704 0.57946 0.4085 0.0
H1264 H 0.44294 0.62018 0.47719 0.0
H1265 H 0.44697 0.60408 0.25574 0.0
H1266 H 0.49828 0.61268 0.52182 0.0
H1267 H 0.49421 0.64019 0.5014 0.0
H1268 H 0.47375 0.62562 0.5497 0.0
H1269 H 0.4801 0.60234 0.19597 0.0
H1270 H 0.49938 0.62174 0.2278 0.0
H1271 H 0.50302 0.59442 0.25169 0.0
H1272 H 0.55053 0.65796 0.36949 0.0
H1273 H 0.55919 0.59165 0.41752 0.0
H1274 H 0.49581 0.66135 0.39137 0.0
H1275 H 0.49686 0.65442 0.29931 0.0
H1276 H 0.51673 0.67251 0.33578 0.0
H1277 H 0.50612 0.57959 0.45512 0.0
H1278 H 0.53007 0.56755 0.41902 0.0
H1279 H 0.50714 0.57439 0.36172 0.0
C1280 C 0.44986 0.38415 0.60495 0.0
C1281 C 0.44161 0.36459 0.58225 0.0
C1282 C 0.4723 0.38713 0.61682 0.0
C1283 C 0.48683 0.3701 0.60619 0.0
C1284 C 0.47856 0.35024 0.58433 0.0
C1285 C 0.45609 0.34774 0.57245 0.0
C1286 C 0.48049 0.40857 0.63988 0.0
C1287 C 0.49349 0.33163 0.57295 0.0
C1288 C 0.54665 0.38079 0.56994 0.0
C1289 C 0.55638 0.37628 0.6369 0.0
C1290 C 0.52399 0.3793 0.55961 0.0
C1291 C 0.51072 0.37301 0.61743 0.0
C1292 C 0.52038 0.36875 0.68537 0.0
C1293 C 0.54305 0.3705 0.69434 0.0
C1294 C 0.51429 0.38413 0.48646 0.0
C1295 C 0.50682 0.36188 0.74826 0.0
H1296 H 0.4388 0.39728 0.61249 0.0
H1297 H 0.44988 0.33255 0.55514 0.0
H1298 H 0.48967 0.40699 0.69124 0.0
H1299 H 0.4919 0.41507 0.59969 0.0
H1300 H 0.46706 0.42011 0.64656 0.0
H1301 H 0.48445 0.31713 0.55729 0.0
H1302 H 0.5053 0.33563 0.53055 0.0
H1303 H 0.50302 0.32807 0.6226 0.0
H1304 H 0.55675 0.38534 0.52527 0.0
H1305 H 0.55036 0.36691 0.74625 0.0
H1306 H 0.50149 0.39644 0.49015 0.0
H1307 H 0.50639 0.36969 0.46499 0.0
H1308 H 0.5267 0.38973 0.44794 0.0
H1309 H 0.49387 0.37371 0.75755 0.0
H1310 H 0.51672 0.35987 0.79814 0.0
H1311 H 0.49864 0.34661 0.73657 0.0
C1312 C 0.04265 0.64679 0.03977 0.0
C1313 C 0.05725 0.6316 0.06808 0.0
C1314 C 0.02014 0.64503 0.05058 0.0
C1315 C 0.01191 0.62769 0.091 0.0
C1316 C 0.02656 0.61242 0.1205 0.0
C1317 C 0.04903 0.61453 0.1086 0.0
C1318 C 0.00512 0.66165 0.01807 0.0
C1319 C 0.01846 0.59376 0.1642 0.0
C1320 C 0.95527 0.63446 0.16717 0.0
C1321 C 0.94213 0.62382 0.11714 0.0
C1322 C 0.97801 0.63541 0.16027 0.0
C1323 C 0.98795 0.62556 0.10176 0.0
C1324 C 0.97487 0.61446 0.0518 0.0
C1325 C 0.95217 0.61368 0.06014 0.0
C1326 C 0.99136 0.64733 0.2149 0.0
C1327 C 0.98481 0.6038 0.98853 0.0
H1328 H 0.04877 0.66003 0.00833 0.0
H1329 H 0.06015 0.60271 0.13075 0.0
H1330 H 0.99335 0.65413 0.98071 0.0
H1331 H 0.99556 0.66917 0.06052 0.0
H1332 H 0.01409 0.67424 0.98848 0.0
H1333 H 0.03195 0.58349 0.18456 0.0
H1334 H 0.00912 0.59943 0.21035 0.0
H1335 H 0.00722 0.58404 0.13129 0.0
H1336 H 0.94778 0.6423 0.21159 0.0
H1337 H 0.94225 0.60541 0.0211 0.0
H1338 H 0.99945 0.66108 0.18875 0.0
H1339 H 0.00436 0.63695 0.23784 0.0
H1340 H 0.98131 0.65322 0.25918 0.0
H1341 H 0.99273 0.61585 0.95371 0.0
H1342 H 0.97253 0.5951 0.95607 0.0
H1343 H 0.99762 0.59249 0.00693 0.0
C1344 C 0.14275 0.54977 0.03157 0.0
C1345 C 0.13366 0.55688 0.09523 0.0
C1346 C 0.14365 0.5281 0.01611 0.0
C1347 C 0.13525 0.51306 0.06541 0.0
C1348 C 0.12591 0.52007 0.12956 0.0
C1349 C 0.12523 0.5419 0.14375 0.0
C1350 C 0.1538 0.52131 0.94719 0.0
C1351 C 0.11677 0.5045 0.18345 0.0
C1352 C 0.12218 0.4578 0.99735 0.0
C1353 C 0.14063 0.44631 0.02035 0.0
C1354 C 0.1201 0.47949 0.01213 0.0
C1355 C 0.13689 0.48996 0.05059 0.0
C1356 C 0.15558 0.47846 0.07358 0.0
C1357 C 0.1572 0.45682 0.05827 0.0
C1358 C 0.09993 0.49121 0.9867 0.0
C1359 C 0.1739 0.48903 0.11435 0.0
H1360 H 0.14926 0.56117 0.99349 0.0
H1361 H 0.11813 0.5472 0.19296 0.0
H1362 H 0.1681 0.51104 0.95909 0.0
H1363 H 0.14199 0.51181 0.91565 0.0
H1364 H 0.15915 0.53502 0.91376 0.0
H1365 H 0.10955 0.51251 0.22983 0.0
H1366 H 0.10408 0.49455 0.15771 0.0
H1367 H 0.12983 0.49368 0.2034 0.0
H1368 H 0.10925 0.44982 0.9683 0.0
H1369 H 0.17152 0.44811 0.07633 0.0
H1370 H 0.10448 0.50447 0.95014 0.0
H1371 H 0.09163 0.49825 0.03285 0.0
H1372 H 0.08823 0.48074 0.95826 0.0
H1373 H 0.18076 0.5022 0.08168 0.0
H1374 H 0.18724 0.47782 0.12902 0.0
H1375 H 0.16763 0.49601 0.16396 0.0
C1376 C 0.6911 0.89389 0.37491 0.0
C1377 C 0.67649 0.88609 0.32323 0.0
C1378 C 0.71329 0.89653 0.35989 0.0
C1379 C 0.72099 0.89154 0.29127 0.0
C1380 C 0.70627 0.884 0.23856 0.0
C1381 C 0.68427 0.88124 0.2553 0.0
C1382 C 0.72854 0.90439 0.41772 0.0
C1383 C 0.71378 0.87878 0.16446 0.0
C1384 C 0.77461 0.91554 0.23111 0.0
C1385 C 0.78895 0.89839 0.24076 0.0
C1386 C 0.75245 0.91353 0.24722 0.0
C1387 C 0.74449 0.89399 0.27461 0.0
C1388 C 0.75892 0.87667 0.28496 0.0
C1389 C 0.78093 0.87903 0.26741 0.0
C1390 C 0.73752 0.93226 0.23444 0.0
C1391 C 0.7511 0.85565 0.3148 0.0
H1392 H 0.68527 0.89759 0.4276 0.0
H1393 H 0.6731 0.87535 0.2148 0.0
H1394 H 0.74146 0.89245 0.42894 0.0
H1395 H 0.73672 0.91917 0.3995 0.0
H1396 H 0.71999 0.9076 0.46824 0.0
H1397 H 0.70017 0.87364 0.12899 0.0
H1398 H 0.72171 0.89284 0.13961 0.0
H1399 H 0.7261 0.86594 0.16765 0.0
H1400 H 0.78066 0.93053 0.21031 0.0
H1401 H 0.79194 0.86575 0.27547 0.0
H1402 H 0.72976 0.9367 0.28515 0.0
H1403 H 0.72426 0.92796 0.19639 0.0
H1404 H 0.74624 0.94633 0.21259 0.0
H1405 H 0.74356 0.85795 0.36757 0.0
H1406 H 0.76449 0.84392 0.32129 0.0
H1407 H 0.7384 0.84896 0.27888 0.0
C1408 C 0.37541 0.45126 0.63597 0.0
C1409 C 0.36535 0.43633 0.5916 0.0
C1410 C 0.375 0.473 0.61802 0.0
C1411 C 0.36429 0.47994 0.5542 0.0
C1412 C 0.35408 0.46496 0.50931 0.0
C1413 C 0.35472 0.44337 0.52854 0.0
C1414 C 0.38603 0.48853 0.6673 0.0
C1415 C 0.34248 0.47173 0.44084 0.0
C1416 C 0.34544 0.53719 0.5387 0.0
C1417 C 0.3618 0.54648 0.49703 0.0
C1418 C 0.34608 0.51559 0.55777 0.0
C1419 C 0.3635 0.50291 0.53461 0.0
C1420 C 0.37999 0.51211 0.49204 0.0
C1421 C 0.37893 0.53379 0.47372 0.0
C1422 C 0.32816 0.50634 0.60302 0.0
C1423 C 0.39879 0.49907 0.46618 0.0
H1424 H 0.38366 0.44599 0.68474 0.0
H1425 H 0.34693 0.43199 0.49372 0.0
H1426 H 0.39872 0.49751 0.63802 0.0
H1427 H 0.374 0.50023 0.68597 0.0
H1428 H 0.39374 0.48058 0.71473 0.0
H1429 H 0.33548 0.45807 0.41162 0.0
H1430 H 0.32915 0.48291 0.45275 0.0
H1431 H 0.35394 0.48024 0.40519 0.0
H1432 H 0.33214 0.54685 0.55704 0.0
H1433 H 0.39167 0.54083 0.44165 0.0
H1434 H 0.33515 0.49948 0.65334 0.0
H1435 H 0.31992 0.49327 0.57427 0.0
H1436 H 0.31576 0.51835 0.61674 0.0
H1437 H 0.40787 0.49203 0.51251 0.0
H1438 H 0.41028 0.50861 0.4335 0.0
H1439 H 0.3926 0.48577 0.43359 0.0
C1440 C 0.79855 0.12749 0.87727 0.0
C1441 C 0.81377 0.11865 0.83136 0.0
C1442 C 0.77608 0.12595 0.8628 0.0
C1443 C 0.76865 0.11537 0.80083 0.0
C1444 C 0.78392 0.10644 0.75427 0.0
C1445 C 0.80626 0.10812 0.77021 0.0
C1446 C 0.76029 0.1356 0.91391 0.0
C1447 C 0.77667 0.09508 0.68761 0.0
C1448 C 0.71063 0.09435 0.79858 0.0
C1449 C 0.69954 0.11017 0.75889 0.0
C1450 C 0.73313 0.09576 0.81209 0.0
C1451 C 0.74488 0.11341 0.78518 0.0
C1452 C 0.73388 0.12924 0.74393 0.0
C1453 C 0.71135 0.12743 0.73128 0.0
C1454 C 0.74427 0.07853 0.85617 0.0
C1455 C 0.74587 0.14824 0.71406 0.0
H1456 H 0.80417 0.13562 0.92468 0.0
H1457 H 0.81784 0.10116 0.73443 0.0
H1458 H 0.74997 0.14754 0.88531 0.0
H1459 H 0.74927 0.12316 0.93531 0.0
H1460 H 0.76868 0.14338 0.95952 0.0
H1461 H 0.79062 0.08938 0.65618 0.0
H1462 H 0.76635 0.08127 0.70221 0.0
H1463 H 0.7666 0.1058 0.65303 0.0
H1464 H 0.70168 0.08095 0.82019 0.0
H1465 H 0.70293 0.13975 0.70064 0.0
H1466 H 0.75157 0.08536 0.90527 0.0
H1467 H 0.75773 0.07154 0.82561 0.0
H1468 H 0.73289 0.06564 0.87203 0.0
H1469 H 0.75314 0.15747 0.75841 0.0
H1470 H 0.73506 0.15888 0.68157 0.0
H1471 H 0.75943 0.14298 0.68022 0.0
C1472 C 0.84662 0.52823 0.95493 0.0
C1473 C 0.86425 0.53874 0.98731 0.0
C1474 C 0.84748 0.50643 0.94125 0.0
C1475 C 0.86644 0.49477 0.96032 0.0
C1476 C 0.88429 0.50524 0.9932 0.0
C1477 C 0.88298 0.52709 0.00632 0.0
C1478 C 0.82808 0.49587 0.90621 0.0
C1479 C 0.90479 0.49336 0.01436 0.0
C1480 C 0.86058 0.43497 0.98299 0.0
C1481 C 0.86828 0.42765 0.91764 0.0
C1482 C 0.86017 0.45671 0.99791 0.0
C1483 C 0.86749 0.47159 0.94609 0.0
C1484 C 0.87533 0.46433 0.88008 0.0
C1485 C 0.87565 0.44247 0.86668 0.0
C1486 C 0.85173 0.46376 0.06899 0.0
C1487 C 0.88324 0.47969 0.82338 0.0
H1488 H 0.83207 0.53706 0.93998 0.0
H1489 H 0.89671 0.53505 0.03121 0.0
H1490 H 0.83298 0.48859 0.85538 0.0
H1491 H 0.82195 0.48291 0.94136 0.0
H1492 H 0.81456 0.50716 0.89461 0.0
H1493 H 0.9172 0.50378 0.03953 0.0
H1494 H 0.90089 0.48027 0.05246 0.0
H1495 H 0.91195 0.48607 0.96661 0.0
H1496 H 0.85477 0.4237 0.0227 0.0
H1497 H 0.88162 0.43701 0.81603 0.0
H1498 H 0.83717 0.47394 0.06036 0.0
H1499 H 0.86422 0.47343 0.09692 0.0
H1500 H 0.84726 0.45017 0.10438 0.0
H1501 H 0.86985 0.49057 0.80659 0.0
H1502 H 0.8892 0.4715 0.77542 0.0
H1503 H 0.89661 0.4896 0.84536 0.0
C1504 C 0.21751 0.1364 0.78569 0.0
C1505 C 0.20465 0.12158 0.74912 0.0
C1506 C 0.23999 0.13802 0.77385 0.0
C1507 C 0.24988 0.12448 0.72431 0.0
C1508 C 0.23703 0.10935 0.68776 0.0
C1509 C 0.2146 0.10808 0.70058 0.0
C1510 C 0.25313 0.15434 0.81398 0.0
C1511 C 0.24698 0.09458 0.63471 0.0
C1512 C 0.30399 0.14134 0.6447 0.0
C1513 C 0.31889 0.12937 0.68622 0.0
C1514 C 0.28149 0.13988 0.6564 0.0
C1515 C 0.27368 0.12611 0.71086 0.0
C1516 C 0.28862 0.11389 0.7526 0.0
C1517 C 0.311 0.11564 0.73971 0.0
C1518 C 0.26607 0.15317 0.61072 0.0
C1519 C 0.28096 0.09899 0.81108 0.0
H1520 H 0.21 0.14693 0.82321 0.0
H1521 H 0.20482 0.09658 0.67201 0.0
H1522 H 0.2664 0.14645 0.84534 0.0
H1523 H 0.2609 0.1655 0.77563 0.0
H1524 H 0.24303 0.16358 0.85099 0.0
H1525 H 0.2348 0.08359 0.61112 0.0
H1526 H 0.25453 0.10391 0.59083 0.0
H1527 H 0.26009 0.08506 0.66112 0.0
H1528 H 0.30991 0.152 0.60328 0.0
H1529 H 0.32232 0.10618 0.77174 0.0
H1530 H 0.25656 0.1638 0.645 0.0
H1531 H 0.25426 0.14278 0.58258 0.0
H1532 H 0.27471 0.163 0.57032 0.0
H1533 H 0.27176 0.10793 0.85118 0.0
H1534 H 0.29467 0.09062 0.83882 0.0
H1535 H 0.26972 0.08699 0.78836 0.0
C1536 C 0.63016 0.54202 0.35305 0.0
C1537 C 0.63917 0.55743 0.39793 0.0
C1538 C 0.63091 0.52038 0.37233 0.0
C1539 C 0.64094 0.51398 0.43795 0.0
C1540 C 0.65029 0.52943 0.48299 0.0
C1541 C 0.64928 0.55093 0.46251 0.0
C1542 C 0.62075 0.50436 0.32284 0.0
C1543 C 0.6612 0.52328 0.55325 0.0
C1544 C 0.62498 0.46087 0.52141 0.0
C1545 C 0.64227 0.44781 0.5016 0.0
C1546 C 0.62434 0.48241 0.50104 0.0
C1547 C 0.64144 0.49116 0.46004 0.0
C1548 C 0.65906 0.47815 0.44062 0.0
C1549 C 0.65926 0.45664 0.46156 0.0
C1550 C 0.60527 0.49578 0.52283 0.0
C1551 C 0.67765 0.4869 0.39727 0.0
H1552 H 0.62232 0.54686 0.30308 0.0
H1553 H 0.65633 0.56267 0.49762 0.0
H1554 H 0.63306 0.49246 0.30781 0.0
H1555 H 0.60754 0.49569 0.35065 0.0
H1556 H 0.61388 0.51186 0.27327 0.0
H1557 H 0.66805 0.53718 0.58155 0.0
H1558 H 0.64932 0.51525 0.58861 0.0
H1559 H 0.67454 0.51185 0.54411 0.0
H1560 H 0.61174 0.4542 0.55211 0.0
H1561 H 0.67268 0.44671 0.44592 0.0
H1562 H 0.59681 0.5024 0.47459 0.0
H1563 H 0.6111 0.50938 0.55474 0.0
H1564 H 0.59332 0.4866 0.55487 0.0
H1565 H 0.67139 0.49321 0.34516 0.0
H1566 H 0.69023 0.47475 0.38706 0.0
H1567 H 0.68545 0.5003 0.42559 0.0
C1568 C 0.30627 0.86769 0.21907 0.0
C1569 C 0.31417 0.87977 0.27629 0.0
C1570 C 0.28425 0.86836 0.19802 0.0
C1571 C 0.26971 0.88156 0.23462 0.0
C1572 C 0.27755 0.89395 0.29199 0.0
C1573 C 0.29967 0.89285 0.31233 0.0
C1574 C 0.27652 0.8548 0.1369 0.0
C1575 C 0.26257 0.90834 0.33194 0.0
C1576 C 0.2167 0.89634 0.1382 0.0
C1577 C 0.20192 0.88215 0.16974 0.0
C1578 C 0.23874 0.89655 0.15955 0.0
C1579 C 0.24624 0.88212 0.21333 0.0
C1580 C 0.23141 0.86782 0.24552 0.0
C1581 C 0.20945 0.86806 0.22358 0.0
C1582 C 0.25403 0.91214 0.12431 0.0
C1583 C 0.23879 0.85207 0.30264 0.0
H1584 H 0.31729 0.85751 0.19079 0.0
H1585 H 0.30559 0.90232 0.35634 0.0
H1586 H 0.26374 0.84366 0.15561 0.0
H1587 H 0.2691 0.86492 0.09397 0.0
H1588 H 0.28992 0.84546 0.11375 0.0
H1589 H 0.27128 0.91727 0.37434 0.0
H1590 H 0.25469 0.91985 0.2942 0.0
H1591 H 0.24941 0.89888 0.35698 0.0
H1592 H 0.21106 0.90736 0.09687 0.0
H1593 H 0.19821 0.85702 0.24835 0.0
H1594 H 0.26701 0.90348 0.09646 0.0
H1595 H 0.26212 0.92205 0.16537 0.0
H1596 H 0.24552 0.92275 0.08491 0.0
H1597 H 0.25135 0.84144 0.28099 0.0
H1598 H 0.22517 0.8422 0.32298 0.0
H1599 H 0.24638 0.86052 0.34821 0.0
C1600 C 0.62552 0.96668 0.53952 0.0
C1601 C 0.61088 0.96279 0.48282 0.0
C1602 C 0.62871 0.98725 0.56532 0.0
C1603 C 0.61697 0.00439 0.53376 0.0
C1604 C 0.60199 1.00057 0.47706 0.0
C1605 C 0.59912 0.97982 0.45228 0.0
C1606 C 0.64483 0.99066 0.62583 0.0
C1607 C 0.58916 0.01844 0.44202 0.0
C1608 C 0.61178 0.05579 0.63593 0.0
C1609 C 0.62756 0.0686 0.60315 0.0
C1610 C 0.60824 0.03481 0.61428 0.0
C1611 C 0.62082 0.02642 0.55868 0.0
C1612 C 0.63704 0.03915 0.52635 0.0
C1613 C 0.64024 0.06003 0.54905 0.0
C1614 C 0.59081 0.02173 0.65013 0.0
C1615 C 0.65085 0.0308 0.46707 0.0
H1616 H 0.63467 0.95365 0.56365 0.0
H1617 H 0.58774 0.97699 0.4086 0.0
H1618 H 0.65804 0.00139 0.60772 0.0
H1619 H 0.63671 0.99846 0.67088 0.0
H1620 H 0.65223 0.97558 0.64584 0.0
H1621 H 0.57776 0.01277 0.3998 0.0
H1622 H 0.57968 0.02688 0.48268 0.0
H1623 H 0.60045 0.03015 0.41768 0.0
H1624 H 0.60189 0.06226 0.67771 0.0
H1625 H 0.65259 0.06973 0.52376 0.0
H1626 H 0.59795 0.00689 0.67295 0.0
H1627 H 0.57824 0.0171 0.6101 0.0
H1628 H 0.58277 0.03041 0.69355 0.0
H1629 H 0.65962 0.0163 0.48567 0.0
H1630 H 0.66299 0.04262 0.44819 0.0
H1631 H 0.64032 0.0263 0.42105 0.0
C1632 C 0.19631 0.39534 0.7876 0.0
C1633 C 0.18916 0.38524 0.8505 0.0
C1634 C 0.21848 0.39622 0.77097 0.0
C1635 C 0.234 0.3868 0.81834 0.0
C1636 C 0.22695 0.37656 0.88191 0.0
C1637 C 0.20462 0.3759 0.89723 0.0
C1638 C 0.22531 0.4073 0.70269 0.0
C1639 C 0.24303 0.36637 0.93383 0.0
C1640 C 0.2899 0.37377 0.74578 0.0
C1641 C 0.30239 0.39096 0.7697 0.0
C1642 C 0.26764 0.37214 0.76146 0.0
C1643 C 0.25763 0.38809 0.80193 0.0
C1644 C 0.27013 0.40553 0.82582 0.0
C1645 C 0.29231 0.40675 0.80943 0.0
C1646 C 0.25484 0.35332 0.73492 0.0
C1647 C 0.26007 0.4229 0.86889 0.0
H1648 H 0.18454 0.40256 0.75092 0.0
H1649 H 0.19929 0.36804 0.94587 0.0
H1650 H 0.23638 0.42068 0.71527 0.0
H1651 H 0.23446 0.39618 0.6691 0.0
H1652 H 0.2112 0.41356 0.67103 0.0
H1653 H 0.23492 0.3588 0.98038 0.0
H1654 H 0.25264 0.35417 0.90637 0.0
H1655 H 0.25467 0.37845 0.95373 0.0
H1656 H 0.29754 0.36146 0.71524 0.0
H1657 H 0.3018 0.4201 0.82826 0.0
H1658 H 0.24113 0.35881 0.69999 0.0
H1659 H 0.2477 0.34453 0.78077 0.0
H1660 H 0.26503 0.34223 0.70443 0.0
H1661 H 0.24655 0.43048 0.83785 0.0
H1662 H 0.27205 0.43534 0.88381 0.0
H1663 H 0.25304 0.4161 0.91849 0.0
C1664 C 0.86069 0.959 0.11702 0.0
C1665 C 0.8666 0.94408 0.06615 0.0
C1666 C 0.85882 0.98063 0.09857 0.0
C1667 C 0.86251 0.98744 0.02721 0.0
C1668 C 0.86794 0.97238 0.97526 0.0
C1669 C 0.87013 0.95093 0.99549 0.0
C1670 C 0.85335 0.99625 0.15579 0.0
C1671 C 0.87155 0.97892 0.89834 0.0
C1672 C 0.83969 0.04135 0.97073 0.0
C1673 C 0.8583 0.05421 0.97427 0.0
C1674 C 0.8409 0.0195 0.9862 0.0
C1675 C 0.86112 0.01039 0.00727 0.0
C1676 C 0.87999 0.02328 0.01034 0.0
C1677 C 0.8784 0.04499 0.99305 0.0
C1678 C 0.8205 0.00621 0.98071 0.0
C1679 C 0.90178 0.01426 0.03372 0.0
H1680 H 0.85805 0.95385 0.17178 0.0
H1681 H 0.87453 0.93948 0.95568 0.0
H1682 H 0.86663 0.00809 0.16098 0.0
H1683 H 0.8383 0.00504 0.14061 0.0
H1684 H 0.85096 0.9884 0.2087 0.0
H1685 H 0.87473 0.96514 0.86387 0.0
H1686 H 0.85709 0.98755 0.87673 0.0
H1687 H 0.88561 0.98993 0.89503 0.0
H1688 H 0.82413 0.0484 0.95597 0.0
H1689 H 0.8928 0.05489 0.99657 0.0
H1690 H 0.81647 0.99949 0.03406 0.0
H1691 H 0.8232 0.99267 0.94484 0.0
H1692 H 0.80631 0.01549 0.96005 0.0
H1693 H 0.90067 0.00749 0.08869 0.0
H1694 H 0.91491 0.02639 0.03306 0.0
H1695 H 0.90642 1.00117 0.99826 0.0
C1696 C 0.21308 0.61954 0.23011 0.0
C1697 C 0.20125 0.60261 0.25995 0.0
C1698 C 0.23575 0.62116 0.24097 0.0
C1699 C 0.24687 0.60548 0.28261 0.0
C1700 C 0.23504 0.58829 0.31235 0.0
C1701 C 0.21243 0.58706 0.30067 0.0
C1702 C 0.24778 0.63972 0.20823 0.0
C1703 C 0.24625 0.57121 0.35693 0.0
C1704 C 0.30786 0.59795 0.26106 0.0
C1705 C 0.31645 0.60839 0.32095 0.0
C1706 C 0.28532 0.59712 0.24752 0.0
C1707 C 0.2709 0.60693 0.29499 0.0
C1708 C 0.27942 0.6176 0.35532 0.0
C1709 C 0.30207 0.61821 0.36756 0.0
C1710 C 0.27692 0.58558 0.18261 0.0
C1711 C 0.26459 0.62822 0.40731 0.0
H1712 H 0.20461 0.63165 0.19869 0.0
H1713 H 0.20349 0.57392 0.32402 0.0
H1714 H 0.25599 0.64893 0.25084 0.0
H1715 H 0.26063 0.63393 0.17248 0.0
H1716 H 0.2368 0.6505 0.17695 0.0
H1717 H 0.23474 0.55885 0.37611 0.0
H1718 H 0.25901 0.56347 0.32523 0.0
H1719 H 0.25447 0.57834 0.40398 0.0
H1720 H 0.31878 0.59036 0.22451 0.0
H1721 H 0.30849 0.62633 0.41393 0.0
H1722 H 0.26684 0.59641 0.14846 0.0
H1723 H 0.26631 0.57221 0.1995 0.0
H1724 H 0.29028 0.57921 0.14999 0.0
H1725 H 0.25421 0.64011 0.37871 0.0
H1726 H 0.27378 0.63627 0.45071 0.0
H1727 H 0.25357 0.6163 0.43176 0.0
C1728 C 0.37851 0.979 0.37565 0.0
C1729 C 0.37398 0.96177 0.42142 0.0
C1730 C 0.37691 0.99995 0.39932 0.0
C1731 C 0.37066 0.00375 0.47049 0.0
C1732 C 0.36622 0.98643 0.5171 0.0
C1733 C 0.36792 0.96567 0.49203 0.0
C1734 C 0.38175 0.01803 0.348 0.0
C1735 C 0.35953 0.98983 0.59334 0.0
C1736 C 0.3842 0.05771 0.54713 0.0
C1737 C 0.36446 0.06859 0.5366 0.0
C1738 C 0.38638 0.0365 0.52683 0.0
C1739 C 0.36835 0.02588 0.49567 0.0
C1740 C 0.34821 0.03657 0.48696 0.0
C1741 C 0.34653 0.05779 0.50738 0.0
C1742 C 0.40812 0.02562 0.53696 0.0
C1743 C 0.32856 0.02573 0.45453 0.0
H1744 H 0.38321 0.97615 0.32108 0.0
H1745 H 0.36444 0.95246 0.52793 0.0
H1746 H 0.36712 0.02818 0.34064 0.0
H1747 H 0.39491 0.02813 0.37032 0.0
H1748 H 0.38678 0.0124 0.29483 0.0
H1749 H 0.35703 0.97466 0.62315 0.0
H1750 H 0.37213 0.9992 0.62192 0.0
H1751 H 0.34419 0.99908 0.59403 0.0
H1752 H 0.39817 0.06595 0.56943 0.0
H1753 H 0.33119 0.06604 0.49929 0.0
H1754 H 0.4146 0.02129 0.48419 0.0
H1755 H 0.40619 0.0107 0.5685 0.0
H1756 H 0.42028 0.03579 0.56456 0.0
H1757 H 0.33201 0.02129 0.39873 0.0
H1758 H 0.31386 0.03597 0.45413 0.0
H1759 H 0.32494 0.01088 0.48471 0.0
C1760 C 0.80307 0.61018 0.11117 0.0
C1761 C 0.81843 0.61498 0.16478 0.0
C1762 C 0.78085 0.608 0.12691 0.0
C1763 C 0.77387 0.61027 0.19821 0.0
C1764 C 0.78939 0.61469 0.25273 0.0
C1765 C 0.81142 0.61711 0.23528 0.0
C1766 C 0.7648 0.60354 0.06706 0.0
C1767 C 0.78276 0.6168 0.32963 0.0
C1768 C 0.71442 0.62368 0.23099 0.0
C1769 C 0.70552 0.60362 0.24598 0.0
C1770 C 0.73661 0.62607 0.21529 0.0
C1771 C 0.75034 0.60802 0.21578 0.0
C1772 C 0.74154 0.58781 0.23262 0.0
C1773 C 0.71923 0.58584 0.24689 0.0
C1774 C 0.74527 0.64786 0.19678 0.0
C1775 C 0.75567 0.56823 0.23504 0.0
H1776 H 0.80835 0.60857 0.05655 0.0
H1777 H 0.82323 0.62038 0.27721 0.0
H1778 H 0.75609 0.58846 0.07815 0.0
H1779 H 0.75238 0.6163 0.06361 0.0
H1780 H 0.7728 0.60242 0.01445 0.0
H1781 H 0.79687 0.6199 0.36586 0.0
H1782 H 0.77093 0.62995 0.33428 0.0
H1783 H 0.77452 0.60207 0.34809 0.0
H1784 H 0.70391 0.63748 0.22965 0.0
H1785 H 0.71251 0.57029 0.25871 0.0
H1786 H 0.75212 0.6479 0.14227 0.0
H1787 H 0.75869 0.65208 0.23431 0.0
H1788 H 0.7325 0.66028 0.19878 0.0
H1789 H 0.76261 0.56556 0.18159 0.0
H1790 H 0.74652 0.55382 0.25161 0.0
H1791 H 0.76954 0.57046 0.27292 0.0
C1792 C 0.13253 0.06298 0.87456 0.0
C1793 C 0.13911 0.07746 0.92681 0.0
C1794 C 0.135 0.04101 0.88593 0.0
C1795 C 0.14433 0.03328 0.95102 0.0
C1796 C 0.15105 0.04779 0.0039 0.0
C1797 C 0.14834 0.06967 0.99123 0.0
C1798 C 0.12759 0.02606 0.82825 0.0
C1799 C 0.16114 0.04021 0.0739 0.0
C1800 C 0.1336 0.97599 0.00816 0.0
C1801 C 0.15276 0.96586 0.98736 0.0
C1802 C 0.13062 0.99789 0.99655 0.0
C1803 C 0.14723 0.01001 0.96365 0.0
C1804 C 0.16665 0.99991 0.94295 0.0
C1805 C 0.16915 0.97798 0.95489 0.0
C1806 C 0.10965 0.00805 0.01921 0.0
C1807 C 0.18479 0.01227 0.90805 0.0
H1808 H 0.12539 0.0688 0.82463 0.0
H1809 H 0.15349 0.08067 0.03201 0.0
H1810 H 0.14154 0.01641 0.81066 0.0
H1811 H 0.11523 0.01491 0.84968 0.0
H1812 H 0.12049 0.03457 0.78092 0.0
H1813 H 0.16548 0.05352 0.10955 0.0
H1814 H 0.1497 0.02951 0.10228 0.0
H1815 H 0.17608 0.03094 0.06373 0.0
H1816 H 0.1208 0.96677 0.03307 0.0
H1817 H 0.18402 0.97034 0.93868 0.0
H1818 H 0.10136 0.01563 0.97225 0.0
H1819 H 0.11317 0.02072 0.05813 0.0
H1820 H 0.09832 0.99643 0.04399 0.0
H1821 H 0.17872 0.01995 0.85778 0.0
H1822 H 0.19892 0.00209 0.8955 0.0
H1823 H 0.19045 0.02508 0.94375 0.0
C1824 C 0.69605 0.37615 0.64681 0.0
C1825 C 0.68049 0.38354 0.69445 0.0
C1826 C 0.71843 0.37736 0.6631 0.0
C1827 C 0.72549 0.38618 0.72863 0.0
C1828 C 0.70989 0.39376 0.77682 0.0
C1829 C 0.68762 0.39241 0.75908 0.0
C1830 C 0.73453 0.36915 0.61016 0.0
C1831 C 0.71673 0.40329 0.84717 0.0
C1832 C 0.78259 0.37167 0.79494 0.0
C1833 C 0.79473 0.38927 0.77171 0.0
C1834 C 0.75997 0.37063 0.78257 0.0
C1835 C 0.74921 0.38761 0.74627 0.0
C1836 C 0.76127 0.40569 0.72462 0.0
C1837 C 0.78385 0.40629 0.73755 0.0
C1838 C 0.74768 0.3511 0.80666 0.0
C1839 C 0.75041 0.42418 0.6861 0.0
H1840 H 0.69076 0.36931 0.59671 0.0
H1841 H 0.67578 0.39832 0.79609 0.0
H1842 H 0.74572 0.38208 0.59349 0.0
H1843 H 0.74464 0.35646 0.63561 0.0
H1844 H 0.72642 0.36271 0.56167 0.0
H1845 H 0.70258 0.40813 0.87928 0.0
H1846 H 0.72659 0.3917 0.87908 0.0
H1847 H 0.72715 0.41739 0.83743 0.0
H1848 H 0.79082 0.35843 0.82136 0.0
H1849 H 0.79305 0.42 0.71954 0.0
H1850 H 0.74069 0.34297 0.75945 0.0
H1851 H 0.7339 0.35562 0.84078 0.0
H1852 H 0.75823 0.33971 0.83707 0.0
H1853 H 0.74348 0.41892 0.63423 0.0
H1854 H 0.76189 0.43746 0.67572 0.0
H1855 H 0.73672 0.43017 0.71796 0.0
loop_
_geom_bond_atom_site_label_1
_geom_bond_atom_site_label_2
_geom_bond_distance
_geom_bond_site_symmetry_2
_ccdc_geom_bond_type
Zn0 O6 1.969 . S
Zn0 O7 1.965 . S
Zn0 O11 2.024 . S
Zn0 O16 1.969 . S
Zn1 O8 1.969 . S
Zn1 O14 1.969 1_554 S
Zn1 O15 1.965 . S
Zn1 O17 2.024 . S
C2 O3 1.229 . S
C2 O11 1.058 . S
O3 C2 1.229 . S
C4 O5 1.229 . S
C4 O17 1.058 . S
O5 C4 1.229 . S
O6 Zn0 1.969 . S
O6 C9 1.267 . S
O7 Zn0 1.965 . S
O7 C18 1.260 . S
O8 Zn1 1.969 . S
O8 C18 1.258 . S
C9 O6 1.267 . S
C9 O10 1.228 . S
O10 C9 1.228 . S
O11 Zn0 2.024 . S
O11 C2 1.058 . S
C12 O13 1.228 . S
C12 O14 1.267 . S
O13 C12 1.228 . S
O14 Zn1 1.969 1_556 S
O14 C12 1.267 . S
O15 Zn1 1.965 . S
O15 C19 1.260 . S
O16 Zn0 1.969 . S
O16 C19 1.258 . S
O17 Zn1 2.024 . S
O17 C4 1.058 . S
C18 O7 1.260 . S
C18 O8 1.258 . S
C19 O15 1.260 . S
C19 O16 1.258 . S
Zn20 O26 1.969 . S
Zn20 O27 1.965 . S
Zn20 O31 2.024 . S
Zn20 O36 1.969 . S
Zn21 O28 1.969 . S
Zn21 O34 1.969 . S
Zn21 O35 1.965 . S
Zn21 O37 2.024 . S
C22 O23 1.229 . S
C22 O31 1.058 . S
O23 C22 1.229 . S
C24 O25 1.229 . S
C24 O37 1.058 . S
O25 C24 1.229 . S
O26 Zn20 1.969 . S
O26 C29 1.267 . S
O27 Zn20 1.965 . S
O27 C38 1.260 . S
O28 Zn21 1.969 . S
O28 C38 1.258 . S
C29 O26 1.267 . S
C29 O30 1.228 . S
O30 C29 1.228 . S
O31 Zn20 2.024 . S
O31 C22 1.058 . S
C32 O33 1.228 . S
C32 O34 1.267 . S
O33 C32 1.228 . S
O34 Zn21 1.969 . S
O34 C32 1.267 . S
O35 Zn21 1.965 . S
O35 C39 1.260 . S
O36 Zn20 1.969 . S
O36 C39 1.258 . S
O37 Zn21 2.024 . S
O37 C24 1.058 . S
C38 O27 1.260 . S
C38 O28 1.258 . S
C39 O35 1.260 . S
C39 O36 1.258 . S
Zn40 O46 1.969 . S
Zn40 O47 1.965 . S
Zn40 O51 2.024 . S
Zn40 O56 1.969 . S
Zn41 O48 1.969 . S
Zn41 O54 1.969 . S
Zn41 O55 1.965 . S
Zn41 O57 2.024 . S
C42 O43 1.229 . S
C42 O51 1.058 . S
O43 C42 1.229 . S
C44 O45 1.229 . S
C44 O57 1.058 . S
O45 C44 1.229 . S
O46 Zn40 1.969 . S
O46 C49 1.267 . S
O47 Zn40 1.965 . S
O47 C58 1.260 . S
O48 Zn41 1.969 . S
O48 C58 1.258 . S
C49 O46 1.267 . S
C49 O50 1.228 . S
O50 C49 1.228 . S
O51 Zn40 2.024 . S
O51 C42 1.058 . S
C52 O53 1.228 . S
C52 O54 1.267 . S
O53 C52 1.228 . S
O54 Zn41 1.969 . S
O54 C52 1.267 . S
O55 Zn41 1.965 . S
O55 C59 1.260 . S
O56 Zn40 1.969 . S
O56 C59 1.258 . S
O57 Zn41 2.024 . S
O57 C44 1.058 . S
C58 O47 1.260 . S
C58 O48 1.258 . S
C59 O55 1.260 . S
C59 O56 1.258 . S
Zn60 O66 1.969 . S
Zn60 O67 1.965 1_554 S
Zn60 O71 2.024 1_554 S
Zn60 O76 1.969 1_554 S
Zn61 O68 1.969 . S
Zn61 O74 1.969 . S
Zn61 O75 1.965 . S
Zn61 O77 2.024 . S
C62 O63 1.229 . S
C62 O71 1.058 1_554 S
O63 C62 1.229 . S
C64 O65 1.229 . S
C64 O77 1.058 . S
O65 C64 1.229 . S
O66 Zn60 1.969 . S
O66 C69 1.267 . S
O67 Zn60 1.965 1_556 S
O67 C78 1.260 . S
O68 Zn61 1.969 . S
O68 C78 1.258 . S
C69 O66 1.267 . S
C69 O70 1.228 . S
O70 C69 1.228 . S
O71 Zn60 2.024 1_556 S
O71 C62 1.058 1_556 S
C72 O73 1.228 . S
C72 O74 1.267 . S
O73 C72 1.228 . S
O74 Zn61 1.969 . S
O74 C72 1.267 . S
O75 Zn61 1.965 . S
O75 C79 1.260 . S
O76 Zn60 1.969 1_556 S
O76 C79 1.258 . S
O77 Zn61 2.024 . S
O77 C64 1.058 . S
C78 O67 1.260 . S
C78 O68 1.258 . S
C79 O75 1.260 . S
C79 O76 1.258 . S
Zn80 O86 1.969 . S
Zn80 O87 1.965 1_554 S
Zn80 O91 2.024 1_554 S
Zn80 O96 1.969 1_554 S
Zn81 O88 1.969 . S
Zn81 O94 1.969 . S
Zn81 O95 1.965 . S
Zn81 O97 2.024 . S
C82 O83 1.229 . S
C82 O91 1.058 1_554 S
O83 C82 1.229 . S
C84 O85 1.229 . S
C84 O97 1.058 . S
O85 C84 1.229 . S
O86 Zn80 1.969 . S
O86 C89 1.267 . S
O87 Zn80 1.965 1_556 S
O87 C98 1.260 . S
O88 Zn81 1.969 . S
O88 C98 1.258 . S
C89 O86 1.267 . S
C89 O90 1.228 . S
O90 C89 1.228 . S
O91 Zn80 2.024 1_556 S
O91 C82 1.058 1_556 S
C92 O93 1.228 . S
C92 O94 1.267 . S
O93 C92 1.228 . S
O94 Zn81 1.969 . S
O94 C92 1.267 . S
O95 Zn81 1.965 . S
O95 C99 1.260 . S
O96 Zn80 1.969 1_556 S
O96 C99 1.258 . S
O97 Zn81 2.024 . S
O97 C84 1.058 . S
C98 O87 1.260 . S
C98 O88 1.258 . S
C99 O95 1.260 . S
C99 O96 1.258 . S
Zn100 O106 1.969 . S
Zn100 O107 1.965 . S
Zn100 O111 2.024 . S
Zn100 O116 1.969 . S
Zn101 O108 1.969 . S
Zn101 O114 1.969 1_554 S
Zn101 O115 1.965 . S
Zn101 O117 2.024 . S
C102 O103 1.229 . S
C102 O111 1.058 . S
O103 C102 1.229 . S
C104 O105 1.229 . S
C104 O117 1.058 . S
O105 C104 1.229 . S
O106 Zn100 1.969 . S
O106 C109 1.267 . S
O107 Zn100 1.965 . S
O107 C118 1.260 . S
O108 Zn101 1.969 . S
O108 C118 1.258 . S
C109 O106 1.267 . S
C109 O110 1.228 . S
O110 C109 1.228 . S
O111 Zn100 2.024 . S
O111 C102 1.058 . S
C112 O113 1.228 . S
C112 O114 1.267 . S
O113 C112 1.228 . S
O114 Zn101 1.969 1_556 S
O114 C112 1.267 . S
O115 Zn101 1.965 . S
O115 C119 1.260 . S
O116 Zn100 1.969 . S
O116 C119 1.258 . S
O117 Zn101 2.024 . S
O117 C104 1.058 . S
C118 O107 1.260 . S
C118 O108 1.258 . S
C119 O115 1.260 . S
C119 O116 1.258 . S
Zn120 O126 1.969 . S
Zn120 O127 1.965 . S
Zn120 O131 2.024 . S
Zn120 O136 1.969 . S
Zn121 O128 1.969 . S
Zn121 O134 1.969 . S
Zn121 O135 1.965 . S
Zn121 O137 2.024 . S
C122 O123 1.229 . S
C122 O131 1.058 . S
O123 C122 1.229 . S
C124 O125 1.229 . S
C124 O137 1.058 . S
O125 C124 1.229 . S
O126 Zn120 1.969 . S
O126 C129 1.267 . S
O127 Zn120 1.965 . S
O127 C138 1.260 . S
O128 Zn121 1.969 . S
O128 C138 1.258 . S
C129 O126 1.267 . S
C129 O130 1.228 . S
O130 C129 1.228 . S
O131 Zn120 2.024 . S
O131 C122 1.058 . S
C132 O133 1.228 . S
C132 O134 1.267 . S
O133 C132 1.228 . S
O134 Zn121 1.969 . S
O134 C132 1.267 . S
O135 Zn121 1.965 . S
O135 C139 1.260 . S
O136 Zn120 1.969 . S
O136 C139 1.258 . S
O137 Zn121 2.024 . S
O137 C124 1.058 . S
C138 O127 1.260 . S
C138 O128 1.258 . S
C139 O135 1.260 . S
C139 O136 1.258 . S
Zn140 O146 1.969 . S
Zn140 O147 1.965 . S
Zn140 O151 2.024 . S
Zn140 O156 1.969 . S
Zn141 O148 1.969 . S
Zn141 O154 1.969 . S
Zn141 O155 1.965 . S
Zn141 O157 2.024 . S
C142 O143 1.229 . S
C142 O151 1.058 . S
O143 C142 1.229 . S
C144 O145 1.229 . S
C144 O157 1.058 . S
O145 C144 1.229 . S
O146 Zn140 1.969 . S
O146 C149 1.267 . S
O147 Zn140 1.965 . S
O147 C158 1.260 . S
O148 Zn141 1.969 . S
O148 C158 1.258 . S
C149 O146 1.267 . S
C149 O150 1.228 . S
O150 C149 1.228 . S
O151 Zn140 2.024 . S
O151 C142 1.058 . S
C152 O153 1.228 . S
C152 O154 1.267 . S
O153 C152 1.228 . S
O154 Zn141 1.969 . S
O154 C152 1.267 . S
O155 Zn141 1.965 . S
O155 C159 1.260 . S
O156 Zn140 1.969 . S
O156 C159 1.258 . S
O157 Zn141 2.024 . S
O157 C144 1.058 . S
C158 O147 1.260 . S
C158 O148 1.258 . S
C159 O155 1.260 . S
C159 O156 1.258 . S
Zn160 O166 1.969 1_556 S
Zn160 O167 1.965 . S
Zn160 O171 2.024 . S
Zn160 O176 1.969 . S
Zn161 O168 1.969 . S
Zn161 O174 1.969 . S
Zn161 O175 1.965 . S
Zn161 O177 2.024 . S
C162 O163 1.229 . S
C162 O171 1.058 . S
O163 C162 1.229 . S
C164 O165 1.229 . S
C164 O177 1.058 . S
O165 C164 1.229 . S
O166 Zn160 1.969 1_554 S
O166 C169 1.267 . S
O167 Zn160 1.965 . S
O167 C178 1.260 . S
O168 Zn161 1.969 . S
O168 C178 1.258 . S
C169 O166 1.267 . S
C169 O170 1.228 . S
O170 C169 1.228 . S
O171 Zn160 2.024 . S
O171 C162 1.058 . S
C172 O173 1.228 . S
C172 O174 1.267 . S
O173 C172 1.228 . S
O174 Zn161 1.969 . S
O174 C172 1.267 . S
O175 Zn161 1.965 . S
O175 C179 1.260 . S
O176 Zn160 1.969 . S
O176 C179 1.258 . S
O177 Zn161 2.024 . S
O177 C164 1.058 . S
C178 O167 1.260 . S
C178 O168 1.258 . S
C179 O175 1.260 . S
C179 O176 1.258 . S
Zn180 O186 1.969 . S
Zn180 O187 1.965 . S
Zn180 O191 2.024 . S
Zn180 O196 1.969 . S
Zn181 O188 1.969 . S
Zn181 O194 1.969 . S
Zn181 O195 1.965 . S
Zn181 O197 2.024 . S
C182 O183 1.229 . S
C182 O191 1.058 . S
O183 C182 1.229 . S
C184 O185 1.229 . S
C184 O197 1.058 . S
O185 C184 1.229 . S
O186 Zn180 1.969 . S
O186 C189 1.267 . S
O187 Zn180 1.965 . S
O187 C198 1.260 . S
O188 Zn181 1.969 . S
O188 C198 1.258 . S
C189 O186 1.267 . S
C189 O190 1.228 . S
O190 C189 1.228 . S
O191 Zn180 2.024 . S
O191 C182 1.058 . S
C192 O193 1.228 . S
C192 O194 1.267 . S
O193 C192 1.228 . S
O194 Zn181 1.969 . S
O194 C192 1.267 . S
O195 Zn181 1.965 . S
O195 C199 1.260 . S
O196 Zn180 1.969 . S
O196 C199 1.258 . S
O197 Zn181 2.024 . S
O197 C184 1.058 . S
C198 O187 1.260 . S
C198 O188 1.258 . S
C199 O195 1.260 . S
C199 O196 1.258 . S
Zn200 O206 1.969 . S
Zn200 O207 1.965 . S
Zn200 O211 2.024 . S
Zn200 O216 1.969 . S
Zn201 O208 1.969 . S
Zn201 O214 1.969 . S
Zn201 O215 1.965 . S
Zn201 O217 2.024 . S
C202 O203 1.229 . S
C202 O211 1.058 . S
O203 C202 1.229 . S
C204 O205 1.229 . S
C204 O217 1.058 . S
O205 C204 1.229 . S
O206 Zn200 1.969 . S
O206 C209 1.267 . S
O207 Zn200 1.965 . S
O207 C218 1.260 . S
O208 Zn201 1.969 . S
O208 C218 1.258 . S
C209 O206 1.267 . S
C209 O210 1.228 . S
O210 C209 1.228 . S
O211 Zn200 2.024 . S
O211 C202 1.058 . S
C212 O213 1.228 . S
C212 O214 1.267 . S
O213 C212 1.228 . S
O214 Zn201 1.969 . S
O214 C212 1.267 . S
O215 Zn201 1.965 . S
O215 C219 1.260 . S
O216 Zn200 1.969 . S
O216 C219 1.258 . S
O217 Zn201 2.024 . S
O217 C204 1.058 . S
C218 O207 1.260 . S
C218 O208 1.258 . S
C219 O215 1.260 . S
C219 O216 1.258 . S
Zn220 O226 1.969 . S
Zn220 O227 1.965 . S
Zn220 O231 2.024 . S
Zn220 O236 1.969 . S
Zn221 O228 1.969 . S
Zn221 O234 1.969 1_554 S
Zn221 O235 1.965 . S
Zn221 O237 2.024 . S
C222 O223 1.229 . S
C222 O231 1.058 . S
O223 C222 1.229 . S
C224 O225 1.229 1_554 S
C224 O237 1.058 . S
O225 C224 1.229 1_556 S
O226 Zn220 1.969 . S
O226 C229 1.267 . S
O227 Zn220 1.965 . S
O227 C238 1.260 . S
O228 Zn221 1.969 . S
O228 C238 1.258 . S
C229 O226 1.267 . S
C229 O230 1.228 . S
O230 C229 1.228 . S
O231 Zn220 2.024 . S
O231 C222 1.058 . S
C232 O233 1.228 . S
C232 O234 1.267 . S
O233 C232 1.228 . S
O234 Zn221 1.969 1_556 S
O234 C232 1.267 . S
O235 Zn221 1.965 . S
O235 C239 1.260 . S
O236 Zn220 1.969 . S
O236 C239 1.258 . S
O237 Zn221 2.024 . S
O237 C224 1.058 . S
C238 O227 1.260 . S
C238 O228 1.258 . S
C239 O235 1.260 . S
C239 O236 1.258 . S
Zn240 O246 1.969 . S
Zn240 O247 1.965 . S
Zn240 O251 2.024 . S
Zn240 O256 1.969 . S
Zn241 O248 1.969 1_556 S
Zn241 O254 1.969 . S
Zn241 O255 1.965 1_556 S
Zn241 O257 2.024 1_556 S
C242 O243 1.229 . S
C242 O251 1.058 . S
O243 C242 1.229 . S
C244 O245 1.229 . S
C244 O257 1.058 1_556 S
O245 C244 1.229 . S
O246 Zn240 1.969 . S
O246 C249 1.267 . S
O247 Zn240 1.965 . S
O247 C258 1.260 . S
O248 Zn241 1.969 1_554 S
O248 C258 1.258 . S
C249 O246 1.267 . S
C249 O250 1.228 . S
O250 C249 1.228 . S
O251 Zn240 2.024 . S
O251 C242 1.058 . S
C252 O253 1.228 . S
C252 O254 1.267 . S
O253 C252 1.228 . S
O254 Zn241 1.969 . S
O254 C252 1.267 . S
O255 Zn241 1.965 1_554 S
O255 C259 1.260 . S
O256 Zn240 1.969 . S
O256 C259 1.258 . S
O257 Zn241 2.024 1_554 S
O257 C244 1.058 1_554 S
C258 O247 1.260 . S
C258 O248 1.258 . S
C259 O255 1.260 . S
C259 O256 1.258 . S
Zn260 O266 1.969 1_556 S
Zn260 O267 1.965 . S
Zn260 O271 2.024 . S
Zn260 O276 1.969 . S
Zn261 O268 1.969 . S
Zn261 O274 1.969 . S
Zn261 O275 1.965 . S
Zn261 O277 2.024 . S
C262 O263 1.229 . S
C262 O271 1.058 . S
O263 C262 1.229 . S
C264 O265 1.229 . S
C264 O277 1.058 . S
O265 C264 1.229 . S
O266 Zn260 1.969 1_554 S
O266 C269 1.267 . S
O267 Zn260 1.965 . S
O267 C278 1.260 . S
O268 Zn261 1.969 . S
O268 C278 1.258 . S
C269 O266 1.267 . S
C269 O270 1.228 . S
O270 C269 1.228 . S
O271 Zn260 2.024 . S
O271 C262 1.058 . S
C272 O273 1.228 . S
C272 O274 1.267 . S
O273 C272 1.228 . S
O274 Zn261 1.969 . S
O274 C272 1.267 . S
O275 Zn261 1.965 . S
O275 C279 1.260 . S
O276 Zn260 1.969 . S
O276 C279 1.258 . S
O277 Zn261 2.024 . S
O277 C264 1.058 . S
C278 O267 1.260 . S
C278 O268 1.258 . S
C279 O275 1.260 . S
C279 O276 1.258 . S
Zn280 O286 1.969 . S
Zn280 O287 1.965 . S
Zn280 O291 2.024 . S
Zn280 O296 1.969 . S
Zn281 O288 1.969 . S
Zn281 O294 1.969 . S
Zn281 O295 1.965 . S
Zn281 O297 2.024 . S
C282 O283 1.229 . S
C282 O291 1.058 . S
O283 C282 1.229 . S
C284 O285 1.229 . S
C284 O297 1.058 . S
O285 C284 1.229 . S
O286 Zn280 1.969 . S
O286 C289 1.267 . S
O287 Zn280 1.965 . S
O287 C298 1.260 . S
O288 Zn281 1.969 . S
O288 C298 1.258 . S
C289 O286 1.267 . S
C289 O290 1.228 . S
O290 C289 1.228 . S
O291 Zn280 2.024 . S
O291 C282 1.058 . S
C292 O293 1.228 . S
C292 O294 1.267 . S
O293 C292 1.228 . S
O294 Zn281 1.969 . S
O294 C292 1.267 . S
O295 Zn281 1.965 . S
O295 C299 1.260 . S
O296 Zn280 1.969 . S
O296 C299 1.258 . S
O297 Zn281 2.024 . S
O297 C284 1.058 . S
C298 O287 1.260 . S
C298 O288 1.258 . S
C299 O295 1.260 . S
C299 O296 1.258 . S
Zn300 O306 1.969 . S
Zn300 O307 1.965 . S
Zn300 O311 2.024 . S
Zn300 O316 1.969 . S
Zn301 O308 1.969 . S
Zn301 O314 1.969 . S
Zn301 O315 1.965 . S
Zn301 O317 2.024 . S
C302 O303 1.229 . S
C302 O311 1.058 . S
O303 C302 1.229 . S
C304 O305 1.229 . S
C304 O317 1.058 . S
O305 C304 1.229 . S
O306 Zn300 1.969 . S
O306 C309 1.267 . S
O307 Zn300 1.965 . S
O307 C318 1.260 . S
O308 Zn301 1.969 . S
O308 C318 1.258 . S
C309 O306 1.267 . S
C309 O310 1.228 . S
O310 C309 1.228 . S
O311 Zn300 2.024 . S
O311 C302 1.058 . S
C312 O313 1.228 . S
C312 O314 1.267 . S
O313 C312 1.228 . S
O314 Zn301 1.969 . S
O314 C312 1.267 . S
O315 Zn301 1.965 . S
O315 C319 1.260 . S
O316 Zn300 1.969 . S
O316 C319 1.258 . S
O317 Zn301 2.024 . S
O317 C304 1.058 . S
C318 O307 1.260 . S
C318 O308 1.258 . S
C319 O315 1.260 . S
C319 O316 1.258 . S
C320 C321 1.391 . S
C320 C322 1.394 . S
C320 H336 0.931 . S
C321 C320 1.391 . S
C321 C325 1.376 . S
C322 C320 1.394 . S
C322 C323 1.369 . S
C322 C326 1.531 . S
C323 C322 1.369 . S
C323 C324 1.410 . S
C323 C331 1.503 . S
C324 C323 1.410 . S
C324 C325 1.392 . S
C324 C327 1.511 . S
C325 C321 1.376 . S
C325 C324 1.392 . S
C325 H337 0.929 . S
C326 C322 1.531 . S
C326 H338 0.960 . S
C326 H339 0.962 . S
C326 H340 0.960 . S
C327 C324 1.511 . S
C327 H341 0.961 . S
C327 H342 0.961 . S
C327 H343 0.961 . S
C328 C329 1.370 . S
C328 C330 1.363 . S
C328 H344 0.931 . S
C329 C328 1.370 . S
C329 C333 1.408 . S
C330 C328 1.363 . S
C330 C331 1.370 . S
C330 C334 1.524 . S
C331 C323 1.503 . S
C331 C330 1.370 . S
C331 C332 1.403 . S
C332 C331 1.403 . S
C332 C333 1.404 . S
C332 C335 1.539 . S
C333 C329 1.408 . S
C333 C332 1.404 . S
C333 H345 0.930 . S
C334 C330 1.524 . S
C334 H346 0.956 . S
C334 H347 0.961 . S
C334 H348 0.961 . S
C335 C332 1.539 . S
C335 H349 0.958 . S
C335 H350 0.961 . S
C335 H351 0.960 . S
H336 C320 0.931 . S
H337 C325 0.929 . S
H338 C326 0.960 . S
H339 C326 0.962 . S
H340 C326 0.960 . S
H341 C327 0.961 . S
H342 C327 0.961 . S
H343 C327 0.961 . S
H344 C328 0.931 . S
H345 C333 0.930 . S
H346 C334 0.956 . S
H347 C334 0.961 . S
H348 C334 0.961 . S
H349 C335 0.958 . S
H350 C335 0.961 . S
H351 C335 0.960 . S
C352 C353 1.391 . S
C352 C354 1.394 1_554 S
C352 H368 0.931 . S
C353 C352 1.391 . S
C353 C357 1.376 . S
C354 C352 1.394 1_556 S
C354 C355 1.369 . S
C354 C358 1.531 . S
C355 C354 1.369 . S
C355 C356 1.410 . S
C355 C363 1.503 . S
C356 C355 1.410 . S
C356 C357 1.392 1_556 S
C356 C359 1.511 . S
C357 C353 1.376 . S
C357 C356 1.392 1_554 S
C357 H369 0.929 . S
C358 C354 1.531 . S
C358 H370 0.960 . S
C358 H371 0.962 . S
C358 H372 0.960 . S
C359 C356 1.511 . S
C359 H373 0.961 . S
C359 H374 0.961 . S
C359 H375 0.961 . S
C360 C361 1.370 . S
C360 C362 1.363 . S
C360 H376 0.931 . S
C361 C360 1.370 . S
C361 C365 1.408 . S
C362 C360 1.363 . S
C362 C363 1.370 . S
C362 C366 1.524 . S
C363 C355 1.503 . S
C363 C362 1.370 . S
C363 C364 1.403 . S
C364 C363 1.403 . S
C364 C365 1.404 . S
C364 C367 1.539 . S
C365 C361 1.408 . S
C365 C364 1.404 . S
C365 H377 0.930 . S
C366 C362 1.524 . S
C366 H378 0.956 . S
C366 H379 0.961 . S
C366 H380 0.961 . S
C367 C364 1.539 . S
C367 H381 0.958 . S
C367 H382 0.961 . S
C367 H383 0.960 . S
H368 C352 0.931 . S
H369 C357 0.929 . S
H370 C358 0.960 . S
H371 C358 0.962 . S
H372 C358 0.960 . S
H373 C359 0.961 . S
H374 C359 0.961 . S
H375 C359 0.961 . S
H376 C360 0.931 . S
H377 C365 0.930 . S
H378 C366 0.956 . S
H379 C366 0.961 . S
H380 C366 0.961 . S
H381 C367 0.958 . S
H382 C367 0.961 . S
H383 C367 0.960 . S
C384 C385 1.391 . S
C384 C386 1.394 . S
C384 H400 0.931 . S
C385 C384 1.391 . S
C385 C389 1.376 . S
C386 C384 1.394 . S
C386 C387 1.369 . S
C386 C390 1.531 . S
C387 C386 1.369 . S
C387 C388 1.410 . S
C387 C395 1.503 . S
C388 C387 1.410 . S
C388 C389 1.392 . S
C388 C391 1.511 . S
C389 C385 1.376 . S
C389 C388 1.392 . S
C389 H401 0.929 . S
C390 C386 1.531 . S
C390 H402 0.960 . S
C390 H403 0.962 . S
C390 H404 0.960 . S
C391 C388 1.511 . S
C391 H405 0.961 . S
C391 H406 0.961 . S
C391 H407 0.961 . S
C392 C393 1.370 1_554 S
C392 C394 1.363 . S
C392 H408 0.931 . S
C393 C392 1.370 1_556 S
C393 C397 1.408 1_556 S
C394 C392 1.363 . S
C394 C395 1.370 . S
C394 C398 1.524 . S
C395 C387 1.503 . S
C395 C394 1.370 . S
C395 C396 1.403 . S
C396 C395 1.403 . S
C396 C397 1.404 . S
C396 C399 1.539 . S
C397 C393 1.408 1_554 S
C397 C396 1.404 . S
C397 H409 0.930 1_554 S
C398 C394 1.524 . S
C398 H410 0.956 . S
C398 H411 0.961 . S
C398 H412 0.961 . S
C399 C396 1.539 . S
C399 H413 0.958 . S
C399 H414 0.961 . S
C399 H415 0.960 . S
H400 C384 0.931 . S
H401 C389 0.929 . S
H402 C390 0.960 . S
H403 C390 0.962 . S
H404 C390 0.960 . S
H405 C391 0.961 . S
H406 C391 0.961 . S
H407 C391 0.961 . S
H408 C392 0.931 . S
H409 C397 0.930 1_556 S
H410 C398 0.956 . S
H411 C398 0.961 . S
H412 C398 0.961 . S
H413 C399 0.958 . S
H414 C399 0.961 . S
H415 C399 0.960 . S
C416 C417 1.391 . S
C416 C418 1.394 . S
C416 H432 0.931 . S
C417 C416 1.391 . S
C417 C421 1.376 . S
C418 C416 1.394 . S
C418 C419 1.369 . S
C418 C422 1.531 . S
C419 C418 1.369 . S
C419 C420 1.410 . S
C419 C427 1.503 . S
C420 C419 1.410 . S
C420 C421 1.392 . S
C420 C423 1.511 . S
C421 C417 1.376 . S
C421 C420 1.392 . S
C421 H433 0.929 . S
C422 C418 1.531 . S
C422 H434 0.960 . S
C422 H435 0.962 . S
C422 H436 0.960 . S
C423 C420 1.511 . S
C423 H437 0.961 . S
C423 H438 0.961 . S
C423 H439 0.961 . S
C424 C425 1.370 . S
C424 C426 1.363 . S
C424 H440 0.931 . S
C425 C424 1.370 . S
C425 C429 1.408 . S
C426 C424 1.363 . S
C426 C427 1.370 . S
C426 C430 1.524 . S
C427 C419 1.503 . S
C427 C426 1.370 . S
C427 C428 1.403 . S
C428 C427 1.403 . S
C428 C429 1.404 . S
C428 C431 1.539 . S
C429 C425 1.408 . S
C429 C428 1.404 . S
C429 H441 0.930 . S
C430 C426 1.524 . S
C430 H442 0.956 . S
C430 H443 0.961 . S
C430 H444 0.961 . S
C431 C428 1.539 . S
C431 H445 0.958 . S
C431 H446 0.961 . S
C431 H447 0.960 . S
H432 C416 0.931 . S
H433 C421 0.929 . S
H434 C422 0.960 . S
H435 C422 0.962 . S
H436 C422 0.960 . S
H437 C423 0.961 . S
H438 C423 0.961 . S
H439 C423 0.961 . S
H440 C424 0.931 . S
H441 C429 0.930 . S
H442 C430 0.956 . S
H443 C430 0.961 . S
H444 C430 0.961 . S
H445 C431 0.958 . S
H446 C431 0.961 . S
H447 C431 0.960 . S
C448 C449 1.391 . S
C448 C450 1.394 . S
C448 H464 0.931 . S
C449 C448 1.391 . S
C449 C453 1.376 . S
C450 C448 1.394 . S
C450 C451 1.369 . S
C450 C454 1.531 . S
C451 C450 1.369 . S
C451 C452 1.410 . S
C451 C459 1.503 . S
C452 C451 1.410 . S
C452 C453 1.392 . S
C452 C455 1.511 . S
C453 C449 1.376 . S
C453 C452 1.392 . S
C453 H465 0.929 . S
C454 C450 1.531 . S
C454 H466 0.960 . S
C454 H467 0.962 . S
C454 H468 0.960 . S
C455 C452 1.511 . S
C455 H469 0.961 . S
C455 H470 0.961 . S
C455 H471 0.961 . S
C456 C457 1.370 . S
C456 C458 1.363 . S
C456 H472 0.931 . S
C457 C456 1.370 . S
C457 C461 1.408 . S
C458 C456 1.363 . S
C458 C459 1.370 . S
C458 C462 1.524 . S
C459 C451 1.503 . S
C459 C458 1.370 . S
C459 C460 1.403 . S
C460 C459 1.403 . S
C460 C461 1.404 . S
C460 C463 1.539 . S
C461 C457 1.408 . S
C461 C460 1.404 . S
C461 H473 0.930 . S
C462 C458 1.524 . S
C462 H474 0.956 . S
C462 H475 0.961 . S
C462 H476 0.961 . S
C463 C460 1.539 . S
C463 H477 0.958 . S
C463 H478 0.961 . S
C463 H479 0.960 . S
H464 C448 0.931 . S
H465 C453 0.929 . S
H466 C454 0.960 . S
H467 C454 0.962 . S
H468 C454 0.960 . S
H469 C455 0.961 . S
H470 C455 0.961 . S
H471 C455 0.961 . S
H472 C456 0.931 . S
H473 C461 0.930 . S
H474 C462 0.956 . S
H475 C462 0.961 . S
H476 C462 0.961 . S
H477 C463 0.958 . S
H478 C463 0.961 . S
H479 C463 0.960 . S
C480 C481 1.391 . S
C480 C482 1.394 . S
C480 H496 0.931 . S
C481 C480 1.391 . S
C481 C485 1.376 . S
C482 C480 1.394 . S
C482 C483 1.369 . S
C482 C486 1.531 . S
C483 C482 1.369 . S
C483 C484 1.410 . S
C483 C491 1.503 . S
C484 C483 1.410 . S
C484 C485 1.392 . S
C484 C487 1.511 . S
C485 C481 1.376 . S
C485 C484 1.392 . S
C485 H497 0.929 . S
C486 C482 1.531 . S
C486 H498 0.960 . S
C486 H499 0.962 . S
C486 H500 0.960 . S
C487 C484 1.511 . S
C487 H501 0.961 . S
C487 H502 0.961 . S
C487 H503 0.961 . S
C488 C489 1.370 . S
C488 C490 1.363 . S
C488 H504 0.931 . S
C489 C488 1.370 . S
C489 C493 1.408 . S
C490 C488 1.363 . S
C490 C491 1.370 . S
C490 C494 1.524 . S
C491 C483 1.503 . S
C491 C490 1.370 . S
C491 C492 1.403 . S
C492 C491 1.403 . S
C492 C493 1.404 . S
C492 C495 1.539 . S
C493 C489 1.408 . S
C493 C492 1.404 . S
C493 H505 0.930 . S
C494 C490 1.524 . S
C494 H506 0.956 . S
C494 H507 0.961 . S
C494 H508 0.961 . S
C495 C492 1.539 . S
C495 H509 0.958 . S
C495 H510 0.961 . S
C495 H511 0.960 . S
H496 C480 0.931 . S
H497 C485 0.929 . S
H498 C486 0.960 . S
H499 C486 0.962 . S
H500 C486 0.960 . S
H501 C487 0.961 . S
H502 C487 0.961 . S
H503 C487 0.961 . S
H504 C488 0.931 . S
H505 C493 0.930 . S
H506 C494 0.956 . S
H507 C494 0.961 . S
H508 C494 0.961 . S
H509 C495 0.958 . S
H510 C495 0.961 . S
H511 C495 0.960 . S
C512 C513 1.391 . S
C512 C514 1.394 . S
C512 H528 0.931 . S
C513 C512 1.391 . S
C513 C517 1.376 . S
C514 C512 1.394 . S
C514 C515 1.369 . S
C514 C518 1.531 . S
C515 C514 1.369 . S
C515 C516 1.410 . S
C515 C523 1.503 . S
C516 C515 1.410 . S
C516 C517 1.392 . S
C516 C519 1.511 . S
C517 C513 1.376 . S
C517 C516 1.392 . S
C517 H529 0.929 . S
C518 C514 1.531 . S
C518 H530 0.960 . S
C518 H531 0.962 . S
C518 H532 0.960 . S
C519 C516 1.511 . S
C519 H533 0.961 . S
C519 H534 0.961 . S
C519 H535 0.961 . S
C520 C521 1.370 . S
C520 C522 1.363 1_554 S
C520 H536 0.931 . S
C521 C520 1.370 . S
C521 C525 1.408 . S
C522 C520 1.363 1_556 S
C522 C523 1.370 . S
C522 C526 1.524 . S
C523 C515 1.503 . S
C523 C522 1.370 . S
C523 C524 1.403 . S
C524 C523 1.403 . S
C524 C525 1.404 1_556 S
C524 C527 1.539 . S
C525 C521 1.408 . S
C525 C524 1.404 1_554 S
C525 H537 0.930 . S
C526 C522 1.524 . S
C526 H538 0.956 . S
C526 H539 0.961 . S
C526 H540 0.961 . S
C527 C524 1.539 . S
C527 H541 0.958 . S
C527 H542 0.961 . S
C527 H543 0.960 . S
H528 C512 0.931 . S
H529 C517 0.929 . S
H530 C518 0.960 . S
H531 C518 0.962 . S
H532 C518 0.960 . S
H533 C519 0.961 . S
H534 C519 0.961 . S
H535 C519 0.961 . S
H536 C520 0.931 . S
H537 C525 0.930 . S
H538 C526 0.956 . S
H539 C526 0.961 . S
H540 C526 0.961 . S
H541 C527 0.958 . S
H542 C527 0.961 . S
H543 C527 0.960 . S
C544 C545 1.391 1_554 S
C544 C546 1.394 . S
C544 H560 0.931 1_554 S
C545 C544 1.391 1_556 S
C545 C549 1.376 1_556 S
C546 C544 1.394 . S
C546 C547 1.369 . S
C546 C550 1.531 . S
C547 C546 1.369 . S
C547 C548 1.410 . S
C547 C555 1.503 . S
C548 C547 1.410 . S
C548 C549 1.392 . S
C548 C551 1.511 . S
C549 C545 1.376 1_554 S
C549 C548 1.392 . S
C549 H561 0.929 . S
C550 C546 1.531 . S
C550 H562 0.960 . S
C550 H563 0.962 . S
C550 H564 0.960 . S
C551 C548 1.511 . S
C551 H565 0.961 . S
C551 H566 0.961 . S
C551 H567 0.961 . S
C552 C553 1.370 . S
C552 C554 1.363 . S
C552 H568 0.931 . S
C553 C552 1.370 . S
C553 C557 1.408 . S
C554 C552 1.363 . S
C554 C555 1.370 . S
C554 C558 1.524 . S
C555 C547 1.503 . S
C555 C554 1.370 . S
C555 C556 1.403 . S
C556 C555 1.403 . S
C556 C557 1.404 . S
C556 C559 1.539 . S
C557 C553 1.408 . S
C557 C556 1.404 . S
C557 H569 0.930 . S
C558 C554 1.524 . S
C558 H570 0.956 . S
C558 H571 0.961 . S
C558 H572 0.961 . S
C559 C556 1.539 . S
C559 H573 0.958 . S
C559 H574 0.961 . S
C559 H575 0.960 . S
H560 C544 0.931 1_556 S
H561 C549 0.929 . S
H562 C550 0.960 . S
H563 C550 0.962 . S
H564 C550 0.960 . S
H565 C551 0.961 . S
H566 C551 0.961 . S
H567 C551 0.961 . S
H568 C552 0.931 . S
H569 C557 0.930 . S
H570 C558 0.956 . S
H571 C558 0.961 . S
H572 C558 0.961 . S
H573 C559 0.958 . S
H574 C559 0.961 . S
H575 C559 0.960 . S
C576 C577 1.391 . S
C576 C578 1.394 . S
C576 H592 0.931 . S
C577 C576 1.391 . S
C577 C581 1.376 . S
C578 C576 1.394 . S
C578 C579 1.369 . S
C578 C582 1.531 . S
C579 C578 1.369 . S
C579 C580 1.410 . S
C579 C587 1.503 . S
C580 C579 1.410 . S
C580 C581 1.392 . S
C580 C583 1.511 . S
C581 C577 1.376 . S
C581 C580 1.392 . S
C581 H593 0.929 . S
C582 C578 1.531 . S
C582 H594 0.960 . S
C582 H595 0.962 . S
C582 H596 0.960 . S
C583 C580 1.511 . S
C583 H597 0.961 . S
C583 H598 0.961 . S
C583 H599 0.961 . S
C584 C585 1.370 . S
C584 C586 1.363 . S
C584 H600 0.931 . S
C585 C584 1.370 . S
C585 C589 1.408 . S
C586 C584 1.363 . S
C586 C587 1.370 . S
C586 C590 1.524 . S
C587 C579 1.503 . S
C587 C586 1.370 . S
C587 C588 1.403 . S
C588 C587 1.403 . S
C588 C589 1.404 . S
C588 C591 1.539 . S
C589 C585 1.408 . S
C589 C588 1.404 . S
C589 H601 0.930 . S
C590 C586 1.524 . S
C590 H602 0.956 . S
C590 H603 0.961 . S
C590 H604 0.961 . S
C591 C588 1.539 . S
C591 H605 0.958 . S
C591 H606 0.961 . S
C591 H607 0.960 . S
H592 C576 0.931 . S
H593 C581 0.929 . S
H594 C582 0.960 . S
H595 C582 0.962 . S
H596 C582 0.960 . S
H597 C583 0.961 . S
H598 C583 0.961 . S
H599 C583 0.961 . S
H600 C584 0.931 . S
H601 C589 0.930 . S
H602 C590 0.956 . S
H603 C590 0.961 . S
H604 C590 0.961 . S
H605 C591 0.958 . S
H606 C591 0.961 . S
H607 C591 0.960 . S
C608 C609 1.391 . S
C608 C610 1.394 . S
C608 H624 0.931 . S
C609 C608 1.391 . S
C609 C613 1.376 . S
C610 C608 1.394 . S
C610 C611 1.369 . S
C610 C614 1.531 . S
C611 C610 1.369 . S
C611 C612 1.410 . S
C611 C619 1.503 . S
C612 C611 1.410 . S
C612 C613 1.392 . S
C612 C615 1.511 . S
C613 C609 1.376 . S
C613 C612 1.392 . S
C613 H625 0.929 . S
C614 C610 1.531 . S
C614 H626 0.960 . S
C614 H627 0.962 . S
C614 H628 0.960 . S
C615 C612 1.511 . S
C615 H629 0.961 . S
C615 H630 0.961 . S
C615 H631 0.961 . S
C616 C617 1.370 . S
C616 C618 1.363 1_556 S
C616 H632 0.931 . S
C617 C616 1.370 . S
C617 C621 1.408 . S
C618 C616 1.363 1_554 S
C618 C619 1.370 . S
C618 C622 1.524 . S
C619 C611 1.503 . S
C619 C618 1.370 . S
C619 C620 1.403 . S
C620 C619 1.403 . S
C620 C621 1.404 1_554 S
C620 C623 1.539 . S
C621 C617 1.408 . S
C621 C620 1.404 1_556 S
C621 H633 0.930 . S
C622 C618 1.524 . S
C622 H634 0.956 . S
C622 H635 0.961 . S
C622 H636 0.961 . S
C623 C620 1.539 . S
C623 H637 0.958 . S
C623 H638 0.961 . S
C623 H639 0.960 . S
H624 C608 0.931 . S
H625 C613 0.929 . S
H626 C614 0.960 . S
H627 C614 0.962 . S
H628 C614 0.960 . S
H629 C615 0.961 . S
H630 C615 0.961 . S
H631 C615 0.961 . S
H632 C616 0.931 . S
H633 C621 0.930 . S
H634 C622 0.956 . S
H635 C622 0.961 . S
H636 C622 0.961 . S
H637 C623 0.958 . S
H638 C623 0.961 . S
H639 C623 0.960 . S
C640 C641 1.391 . S
C640 C642 1.394 . S
C640 H656 0.931 . S
C641 C640 1.391 . S
C641 C645 1.376 . S
C642 C640 1.394 . S
C642 C643 1.369 . S
C642 C646 1.531 . S
C643 C642 1.369 . S
C643 C644 1.410 . S
C643 C651 1.503 . S
C644 C643 1.410 . S
C644 C645 1.392 . S
C644 C647 1.511 . S
C645 C641 1.376 . S
C645 C644 1.392 . S
C645 H657 0.929 . S
C646 C642 1.531 . S
C646 H658 0.960 . S
C646 H659 0.962 . S
C646 H660 0.960 . S
C647 C644 1.511 . S
C647 H661 0.961 . S
C647 H662 0.961 . S
C647 H663 0.961 . S
C648 C649 1.370 . S
C648 C650 1.363 . S
C648 H664 0.931 . S
C649 C648 1.370 . S
C649 C653 1.408 . S
C650 C648 1.363 . S
C650 C651 1.370 . S
C650 C654 1.524 . S
C651 C643 1.503 . S
C651 C650 1.370 . S
C651 C652 1.403 . S
C652 C651 1.403 . S
C652 C653 1.404 . S
C652 C655 1.539 . S
C653 C649 1.408 . S
C653 C652 1.404 . S
C653 H665 0.930 . S
C654 C650 1.524 . S
C654 H666 0.956 . S
C654 H667 0.961 . S
C654 H668 0.961 . S
C655 C652 1.539 . S
C655 H669 0.958 . S
C655 H670 0.961 . S
C655 H671 0.960 . S
H656 C640 0.931 . S
H657 C645 0.929 . S
H658 C646 0.960 . S
H659 C646 0.962 . S
H660 C646 0.960 . S
H661 C647 0.961 . S
H662 C647 0.961 . S
H663 C647 0.961 . S
H664 C648 0.931 . S
H665 C653 0.930 . S
H666 C654 0.956 . S
H667 C654 0.961 . S
H668 C654 0.961 . S
H669 C655 0.958 . S
H670 C655 0.961 . S
H671 C655 0.960 . S
C672 C673 1.391 . S
C672 C674 1.394 . S
C672 H688 0.931 . S
C673 C672 1.391 . S
C673 C677 1.376 . S
C674 C672 1.394 . S
C674 C675 1.369 . S
C674 C678 1.531 . S
C675 C674 1.369 . S
C675 C676 1.410 . S
C675 C683 1.503 . S
C676 C675 1.410 . S
C676 C677 1.392 . S
C676 C679 1.511 . S
C677 C673 1.376 . S
C677 C676 1.392 . S
C677 H689 0.929 . S
C678 C674 1.531 . S
C678 H690 0.960 . S
C678 H691 0.962 . S
C678 H692 0.960 . S
C679 C676 1.511 . S
C679 H693 0.961 . S
C679 H694 0.961 . S
C679 H695 0.961 . S
C680 C681 1.370 . S
C680 C682 1.363 . S
C680 H696 0.931 . S
C681 C680 1.370 . S
C681 C685 1.408 . S
C682 C680 1.363 . S
C682 C683 1.370 . S
C682 C686 1.524 . S
C683 C675 1.503 . S
C683 C682 1.370 . S
C683 C684 1.403 . S
C684 C683 1.403 . S
C684 C685 1.404 . S
C684 C687 1.539 . S
C685 C681 1.408 . S
C685 C684 1.404 . S
C685 H697 0.930 . S
C686 C682 1.524 . S
C686 H698 0.956 . S
C686 H699 0.961 . S
C686 H700 0.961 . S
C687 C684 1.539 . S
C687 H701 0.958 . S
C687 H702 0.961 . S
C687 H703 0.960 . S
H688 C672 0.931 . S
H689 C677 0.929 . S
H690 C678 0.960 . S
H691 C678 0.962 . S
H692 C678 0.960 . S
H693 C679 0.961 . S
H694 C679 0.961 . S
H695 C679 0.961 . S
H696 C680 0.931 . S
H697 C685 0.930 . S
H698 C686 0.956 . S
H699 C686 0.961 . S
H700 C686 0.961 . S
H701 C687 0.958 . S
H702 C687 0.961 . S
H703 C687 0.960 . S
C704 C705 1.391 . S
C704 C706 1.394 . S
C704 H720 0.931 . S
C705 C704 1.391 . S
C705 C709 1.376 . S
C706 C704 1.394 . S
C706 C707 1.369 . S
C706 C710 1.531 . S
C707 C706 1.369 . S
C707 C708 1.410 . S
C707 C715 1.503 . S
C708 C707 1.410 . S
C708 C709 1.392 . S
C708 C711 1.511 . S
C709 C705 1.376 . S
C709 C708 1.392 . S
C709 H721 0.929 . S
C710 C706 1.531 . S
C710 H722 0.960 . S
C710 H723 0.962 . S
C710 H724 0.960 . S
C711 C708 1.511 . S
C711 H725 0.961 . S
C711 H726 0.961 . S
C711 H727 0.961 . S
C712 C713 1.370 . S
C712 C714 1.363 . S
C712 H728 0.931 . S
C713 C712 1.370 . S
C713 C717 1.408 . S
C714 C712 1.363 . S
C714 C715 1.370 . S
C714 C718 1.524 . S
C715 C707 1.503 . S
C715 C714 1.370 . S
C715 C716 1.403 . S
C716 C715 1.403 . S
C716 C717 1.404 . S
C716 C719 1.539 . S
C717 C713 1.408 . S
C717 C716 1.404 . S
C717 H729 0.930 . S
C718 C714 1.524 . S
C718 H730 0.956 . S
C718 H731 0.961 . S
C718 H732 0.961 . S
C719 C716 1.539 . S
C719 H733 0.958 . S
C719 H734 0.961 . S
C719 H735 0.960 . S
H720 C704 0.931 . S
H721 C709 0.929 . S
H722 C710 0.960 . S
H723 C710 0.962 . S
H724 C710 0.960 . S
H725 C711 0.961 . S
H726 C711 0.961 . S
H727 C711 0.961 . S
H728 C712 0.931 . S
H729 C717 0.930 . S
H730 C718 0.956 . S
H731 C718 0.961 . S
H732 C718 0.961 . S
H733 C719 0.958 . S
H734 C719 0.961 . S
H735 C719 0.960 . S
C736 C737 1.391 . S
C736 C738 1.394 . S
C736 H752 0.931 . S
C737 C736 1.391 . S
C737 C741 1.376 . S
C738 C736 1.394 . S
C738 C739 1.369 . S
C738 C742 1.531 . S
C739 C738 1.369 . S
C739 C740 1.410 . S
C739 C747 1.503 . S
C740 C739 1.410 . S
C740 C741 1.392 . S
C740 C743 1.511 . S
C741 C737 1.376 . S
C741 C740 1.392 . S
C741 H753 0.929 . S
C742 C738 1.531 . S
C742 H754 0.960 . S
C742 H755 0.962 . S
C742 H756 0.960 . S
C743 C740 1.511 . S
C743 H757 0.961 . S
C743 H758 0.961 . S
C743 H759 0.961 . S
C744 C745 1.370 . S
C744 C746 1.363 . S
C744 H760 0.931 . S
C745 C744 1.370 . S
C745 C749 1.408 . S
C746 C744 1.363 . S
C746 C747 1.370 . S
C746 C750 1.524 . S
C747 C739 1.503 . S
C747 C746 1.370 . S
C747 C748 1.403 . S
C748 C747 1.403 . S
C748 C749 1.404 . S
C748 C751 1.539 . S
C749 C745 1.408 . S
C749 C748 1.404 . S
C749 H761 0.930 . S
C750 C746 1.524 . S
C750 H762 0.956 . S
C750 H763 0.961 . S
C750 H764 0.961 . S
C751 C748 1.539 . S
C751 H765 0.958 . S
C751 H766 0.961 . S
C751 H767 0.960 . S
H752 C736 0.931 . S
H753 C741 0.929 . S
H754 C742 0.960 . S
H755 C742 0.962 . S
H756 C742 0.960 . S
H757 C743 0.961 . S
H758 C743 0.961 . S
H759 C743 0.961 . S
H760 C744 0.931 . S
H761 C749 0.930 . S
H762 C750 0.956 . S
H763 C750 0.961 . S
H764 C750 0.961 . S
H765 C751 0.958 . S
H766 C751 0.961 . S
H767 C751 0.960 . S
C768 C769 1.391 . S
C768 C770 1.394 . S
C768 H784 0.931 . S
C769 C768 1.391 . S
C769 C773 1.376 . S
C770 C768 1.394 . S
C770 C771 1.369 . S
C770 C774 1.531 . S
C771 C770 1.369 . S
C771 C772 1.410 . S
C771 C779 1.503 . S
C772 C771 1.410 . S
C772 C773 1.392 . S
C772 C775 1.511 . S
C773 C769 1.376 . S
C773 C772 1.392 . S
C773 H785 0.929 . S
C774 C770 1.531 . S
C774 H786 0.960 . S
C774 H787 0.962 . S
C774 H788 0.960 . S
C775 C772 1.511 . S
C775 H789 0.961 . S
C775 H790 0.961 . S
C775 H791 0.961 . S
C776 C777 1.370 . S
C776 C778 1.349 1_556 S
C776 H792 0.931 . S
C777 C776 1.370 . S
C777 C781 1.408 . S
C778 C776 1.349 1_554 S
C778 C779 1.376 . S
C778 C782 1.532 . S
C779 C771 1.503 . S
C779 C778 1.376 . S
C779 C780 1.403 1_554 S
C780 C779 1.403 1_556 S
C780 C781 1.404 . S
C780 C783 1.539 1_556 S
C781 C777 1.408 . S
C781 C780 1.404 . S
C781 H793 0.930 . S
C782 C778 1.532 . S
C782 H794 0.956 . S
C782 H795 0.961 . S
C782 H796 0.961 . S
C783 C780 1.539 1_554 S
C783 H797 0.958 . S
C783 H798 0.961 1_554 S
C783 H799 0.960 . S
H784 C768 0.931 . S
H785 C773 0.929 . S
H786 C774 0.960 . S
H787 C774 0.962 . S
H788 C774 0.960 . S
H789 C775 0.961 . S
H790 C775 0.961 . S
H791 C775 0.961 . S
H792 C776 0.931 . S
H793 C781 0.930 . S
H794 C782 0.956 . S
H795 C782 0.961 . S
H796 C782 0.961 . S
H797 C783 0.958 . S
H798 C783 0.961 1_556 S
H799 C783 0.960 . S
C800 C801 1.391 . S
C800 C802 1.394 . S
C800 H816 0.931 . S
C801 C800 1.391 . S
C801 C805 1.376 . S
C802 C800 1.394 . S
C802 C803 1.369 . S
C802 C806 1.531 . S
C803 C802 1.369 . S
C803 C804 1.410 . S
C803 C811 1.503 . S
C804 C803 1.410 . S
C804 C805 1.392 . S
C804 C807 1.511 . S
C805 C801 1.376 . S
C805 C804 1.392 . S
C805 H817 0.929 . S
C806 C802 1.531 . S
C806 H818 0.960 . S
C806 H819 0.962 . S
C806 H820 0.960 . S
C807 C804 1.511 . S
C807 H821 0.961 . S
C807 H822 0.961 . S
C807 H823 0.961 . S
C808 C809 1.370 . S
C808 C810 1.363 . S
C808 H824 0.931 . S
C809 C808 1.370 . S
C809 C813 1.408 . S
C810 C808 1.363 . S
C810 C811 1.370 . S
C810 C814 1.524 . S
C811 C803 1.503 . S
C811 C810 1.370 . S
C811 C812 1.403 . S
C812 C811 1.403 . S
C812 C813 1.404 . S
C812 C815 1.539 . S
C813 C809 1.408 . S
C813 C812 1.404 . S
C813 H825 0.930 . S
C814 C810 1.524 . S
C814 H826 0.956 . S
C814 H827 0.961 . S
C814 H828 0.961 . S
C815 C812 1.539 . S
C815 H829 0.958 . S
C815 H830 0.961 . S
C815 H831 0.960 . S
H816 C800 0.931 . S
H817 C805 0.929 . S
H818 C806 0.960 . S
H819 C806 0.962 . S
H820 C806 0.960 . S
H821 C807 0.961 . S
H822 C807 0.961 . S
H823 C807 0.961 . S
H824 C808 0.931 . S
H825 C813 0.930 . S
H826 C814 0.956 . S
H827 C814 0.961 . S
H828 C814 0.961 . S
H829 C815 0.958 . S
H830 C815 0.961 . S
H831 C815 0.960 . S
C832 C833 1.391 . S
C832 C834 1.394 . S
C832 H848 0.931 . S
C833 C832 1.391 . S
C833 C837 1.376 . S
C834 C832 1.394 . S
C834 C835 1.369 . S
C834 C838 1.531 . S
C835 C834 1.369 . S
C835 C836 1.410 . S
C835 C843 1.503 . S
C836 C835 1.410 . S
C836 C837 1.392 . S
C836 C839 1.511 . S
C837 C833 1.376 . S
C837 C836 1.392 . S
C837 H849 0.929 . S
C838 C834 1.531 . S
C838 H850 0.960 . S
C838 H851 0.962 . S
C838 H852 0.960 . S
C839 C836 1.511 . S
C839 H853 0.961 . S
C839 H854 0.961 . S
C839 H855 0.961 . S
C840 C841 1.370 . S
C840 C842 1.363 . S
C840 H856 0.931 . S
C841 C840 1.370 . S
C841 C845 1.408 . S
C842 C840 1.363 . S
C842 C843 1.370 . S
C842 C846 1.524 . S
C843 C835 1.503 . S
C843 C842 1.370 . S
C843 C844 1.403 . S
C844 C843 1.403 . S
C844 C845 1.404 . S
C844 C847 1.539 . S
C845 C841 1.408 . S
C845 C844 1.404 . S
C845 H857 0.930 . S
C846 C842 1.524 . S
C846 H858 0.956 . S
C846 H859 0.961 . S
C846 H860 0.961 . S
C847 C844 1.539 . S
C847 H861 0.958 . S
C847 H862 0.961 . S
C847 H863 0.960 . S
H848 C832 0.931 . S
H849 C837 0.929 . S
H850 C838 0.960 . S
H851 C838 0.962 . S
H852 C838 0.960 . S
H853 C839 0.961 . S
H854 C839 0.961 . S
H855 C839 0.961 . S
H856 C840 0.931 . S
H857 C845 0.930 . S
H858 C846 0.956 . S
H859 C846 0.961 . S
H860 C846 0.961 . S
H861 C847 0.958 . S
H862 C847 0.961 . S
H863 C847 0.960 . S
C864 C865 1.391 . S
C864 C866 1.394 . S
C864 H880 0.931 . S
C865 C864 1.391 . S
C865 C869 1.376 . S
C866 C864 1.394 . S
C866 C867 1.369 . S
C866 C870 1.531 . S
C867 C866 1.369 . S
C867 C868 1.410 . S
C867 C875 1.503 . S
C868 C867 1.410 . S
C868 C869 1.392 . S
C868 C871 1.511 . S
C869 C865 1.376 . S
C869 C868 1.392 . S
C869 H881 0.929 . S
C870 C866 1.531 . S
C870 H882 0.960 . S
C870 H883 0.962 . S
C870 H884 0.960 . S
C871 C868 1.511 . S
C871 H885 0.961 . S
C871 H886 0.961 . S
C871 H887 0.961 . S
C872 C873 1.370 . S
C872 C874 1.363 . S
C872 H888 0.931 . S
C873 C872 1.370 . S
C873 C877 1.408 . S
C874 C872 1.363 . S
C874 C875 1.370 . S
C874 C878 1.524 . S
C875 C867 1.503 . S
C875 C874 1.370 . S
C875 C876 1.403 . S
C876 C875 1.403 . S
C876 C877 1.404 . S
C876 C879 1.539 . S
C877 C873 1.408 . S
C877 C876 1.404 . S
C877 H889 0.930 . S
C878 C874 1.524 . S
C878 H890 0.956 . S
C878 H891 0.961 . S
C878 H892 0.961 . S
C879 C876 1.539 . S
C879 H893 0.958 . S
C879 H894 0.961 . S
C879 H895 0.960 . S
H880 C864 0.931 . S
H881 C869 0.929 . S
H882 C870 0.960 . S
H883 C870 0.962 . S
H884 C870 0.960 . S
H885 C871 0.961 . S
H886 C871 0.961 . S
H887 C871 0.961 . S
H888 C872 0.931 . S
H889 C877 0.930 . S
H890 C878 0.956 . S
H891 C878 0.961 . S
H892 C878 0.961 . S
H893 C879 0.958 . S
H894 C879 0.961 . S
H895 C879 0.960 . S
C896 C897 1.391 . S
C896 C898 1.394 . S
C896 H912 0.931 . S
C897 C896 1.391 . S
C897 C901 1.376 . S
C898 C896 1.394 . S
C898 C899 1.369 . S
C898 C902 1.531 . S
C899 C898 1.369 . S
C899 C900 1.410 . S
C899 C907 1.503 . S
C900 C899 1.410 . S
C900 C901 1.392 . S
C900 C903 1.511 . S
C901 C897 1.376 . S
C901 C900 1.392 . S
C901 H913 0.929 . S
C902 C898 1.531 . S
C902 H914 0.960 . S
C902 H915 0.962 . S
C902 H916 0.960 . S
C903 C900 1.511 . S
C903 H917 0.961 . S
C903 H918 0.961 . S
C903 H919 0.961 . S
C904 C905 1.370 . S
C904 C906 1.363 . S
C904 H920 0.931 . S
C905 C904 1.370 . S
C905 C909 1.408 . S
C906 C904 1.363 . S
C906 C907 1.370 . S
C906 C910 1.524 . S
C907 C899 1.503 . S
C907 C906 1.370 . S
C907 C908 1.403 . S
C908 C907 1.403 . S
C908 C909 1.404 . S
C908 C911 1.539 . S
C909 C905 1.408 . S
C909 C908 1.404 . S
C909 H921 0.930 . S
C910 C906 1.524 . S
C910 H922 0.956 . S
C910 H923 0.961 . S
C910 H924 0.961 . S
C911 C908 1.539 . S
C911 H925 0.958 . S
C911 H926 0.961 . S
C911 H927 0.960 . S
H912 C896 0.931 . S
H913 C901 0.929 . S
H914 C902 0.960 . S
H915 C902 0.962 . S
H916 C902 0.960 . S
H917 C903 0.961 . S
H918 C903 0.961 . S
H919 C903 0.961 . S
H920 C904 0.931 . S
H921 C909 0.930 . S
H922 C910 0.956 . S
H923 C910 0.961 . S
H924 C910 0.961 . S
H925 C911 0.958 . S
H926 C911 0.961 . S
H927 C911 0.960 . S
C928 C929 1.391 1_554 S
C928 C930 1.394 1_554 S
C928 H944 0.931 . S
C929 C928 1.391 1_556 S
C929 C933 1.376 . S
C930 C928 1.394 1_556 S
C930 C931 1.369 . S
C930 C934 1.531 1_556 S
C931 C930 1.369 . S
C931 C932 1.410 . S
C931 C939 1.503 . S
C932 C931 1.410 . S
C932 C933 1.392 . S
C932 C935 1.511 . S
C933 C929 1.376 . S
C933 C932 1.392 . S
C933 H945 0.929 . S
C934 C930 1.531 1_554 S
C934 H946 0.960 . S
C934 H947 0.962 . S
C934 H948 0.960 . S
C935 C932 1.511 . S
C935 H949 0.961 . S
C935 H950 0.961 . S
C935 H951 0.961 . S
C936 C937 1.370 . S
C936 C938 1.363 . S
C936 H952 0.931 . S
C937 C936 1.370 . S
C937 C941 1.408 . S
C938 C936 1.363 . S
C938 C939 1.370 1_455 S
C938 C942 1.524 1_455 S
C939 C931 1.503 . S
C939 C938 1.370 1_655 S
C939 C940 1.403 1_655 S
C940 C939 1.403 1_455 S
C940 C941 1.404 . S
C940 C943 1.539 1_556 S
C941 C937 1.408 . S
C941 C940 1.404 . S
C941 H953 0.921 1_556 S
C942 C938 1.524 1_655 S
C942 H954 0.956 . S
C942 H955 0.961 . S
C942 H956 0.961 1_655 S
C943 C940 1.539 1_554 S
C943 H957 0.958 . S
C943 H958 0.961 . S
C943 H959 0.960 1_455 S
H944 C928 0.931 . S
H945 C933 0.929 . S
H946 C934 0.960 . S
H947 C934 0.962 . S
H948 C934 0.960 . S
H949 C935 0.961 . S
H950 C935 0.961 . S
H951 C935 0.961 . S
H952 C936 0.931 . S
H953 C941 0.921 1_554 S
H954 C942 0.956 . S
H955 C942 0.961 . S
H956 C942 0.961 1_455 S
H957 C943 0.958 . S
H958 C943 0.961 . S
H959 C943 0.960 1_655 S
C960 C961 1.391 . S
C960 C962 1.394 . S
C960 H976 0.931 . S
C961 C960 1.391 . S
C961 C965 1.376 . S
C962 C960 1.394 . S
C962 C963 1.369 . S
C962 C966 1.531 . S
C963 C962 1.369 . S
C963 C964 1.410 . S
C963 C971 1.503 . S
C964 C963 1.410 . S
C964 C965 1.392 . S
C964 C967 1.511 . S
C965 C961 1.376 . S
C965 C964 1.392 . S
C965 H977 0.929 . S
C966 C962 1.531 . S
C966 H978 0.960 . S
C966 H979 0.962 . S
C966 H980 0.960 . S
C967 C964 1.511 . S
C967 H981 0.961 . S
C967 H982 0.961 . S
C967 H983 0.961 . S
C968 C969 1.370 . S
C968 C970 1.363 . S
C968 H984 0.931 . S
C969 C968 1.370 . S
C969 C973 1.408 . S
C970 C968 1.363 . S
C970 C971 1.370 . S
C970 C974 1.524 . S
C971 C963 1.503 . S
C971 C970 1.370 . S
C971 C972 1.403 . S
C972 C971 1.403 . S
C972 C973 1.404 . S
C972 C975 1.539 . S
C973 C969 1.408 . S
C973 C972 1.404 . S
C973 H985 0.930 . S
C974 C970 1.524 . S
C974 H986 0.956 . S
C974 H987 0.961 . S
C974 H988 0.961 . S
C975 C972 1.539 . S
C975 H989 0.958 . S
C975 H990 0.961 . S
C975 H991 0.960 . S
H976 C960 0.931 . S
H977 C965 0.929 . S
H978 C966 0.960 . S
H979 C966 0.962 . S
H980 C966 0.960 . S
H981 C967 0.961 . S
H982 C967 0.961 . S
H983 C967 0.961 . S
H984 C968 0.931 . S
H985 C973 0.930 . S
H986 C974 0.956 . S
H987 C974 0.961 . S
H988 C974 0.961 . S
H989 C975 0.958 . S
H990 C975 0.961 . S
H991 C975 0.960 . S
C992 C993 1.391 . S
C992 C994 1.394 . S
C992 H1008 0.931 . S
C993 C992 1.391 . S
C993 C997 1.376 . S
C994 C992 1.394 . S
C994 C995 1.369 . S
C994 C998 1.531 . S
C995 C994 1.369 . S
C995 C996 1.410 . S
C995 C1003 1.503 . S
C996 C995 1.410 . S
C996 C997 1.392 . S
C996 C999 1.511 . S
C997 C993 1.376 . S
C997 C996 1.392 . S
C997 H1009 0.929 . S
C998 C994 1.531 . S
C998 H1010 0.960 . S
C998 H1011 0.962 . S
C998 H1012 0.960 . S
C999 C996 1.511 . S
C999 H1013 0.961 . S
C999 H1014 0.961 . S
C999 H1015 0.961 . S
C1000 C1001 1.370 . S
C1000 C1002 1.363 . S
C1000 H1016 0.929 1_554 S
C1001 C1000 1.370 . S
C1001 C1005 1.408 . S
C1002 C1000 1.363 . S
C1002 C1003 1.370 1_655 S
C1002 C1006 1.524 1_654 S
C1003 C995 1.503 . S
C1003 C1002 1.370 1_455 S
C1003 C1004 1.403 1_455 S
C1004 C1003 1.403 1_655 S
C1004 C1005 1.404 . S
C1004 C1007 1.539 1_655 S
C1005 C1001 1.408 . S
C1005 C1004 1.404 . S
C1005 H1017 0.930 . S
C1006 C1002 1.524 1_456 S
C1006 H1018 0.956 . S
C1006 H1019 0.961 . S
C1006 H1020 0.933 1_455 S
C1007 C1004 1.539 1_455 S
C1007 H1021 0.958 . S
C1007 H1022 0.955 1_455 S
C1007 H1023 0.960 . S
H1008 C992 0.931 . S
H1009 C997 0.929 . S
H1010 C998 0.960 . S
H1011 C998 0.962 . S
H1012 C998 0.960 . S
H1013 C999 0.961 . S
H1014 C999 0.961 . S
H1015 C999 0.961 . S
H1016 C1000 0.929 1_556 S
H1017 C1005 0.930 . S
H1018 C1006 0.956 . S
H1019 C1006 0.961 . S
H1020 C1006 0.933 1_655 S
H1021 C1007 0.958 . S
H1022 C1007 0.955 1_655 S
H1023 C1007 0.960 . S
C1024 C1025 1.391 . S
C1024 C1026 1.394 . S
C1024 H1040 0.931 . S
C1025 C1024 1.391 . S
C1025 C1029 1.376 . S
C1026 C1024 1.394 . S
C1026 C1027 1.369 . S
C1026 C1030 1.531 . S
C1027 C1026 1.369 . S
C1027 C1028 1.410 . S
C1027 C1035 1.503 . S
C1028 C1027 1.410 . S
C1028 C1029 1.392 . S
C1028 C1031 1.511 . S
C1029 C1025 1.376 . S
C1029 C1028 1.392 . S
C1029 H1041 0.929 . S
C1030 C1026 1.531 . S
C1030 H1042 0.960 . S
C1030 H1043 0.962 . S
C1030 H1044 0.960 . S
C1031 C1028 1.511 . S
C1031 H1045 0.961 . S
C1031 H1046 0.961 . S
C1031 H1047 0.961 . S
C1032 C1033 1.370 . S
C1032 C1034 1.363 . S
C1032 H1048 0.931 . S
C1033 C1032 1.370 . S
C1033 C1037 1.408 . S
C1034 C1032 1.363 . S
C1034 C1035 1.370 . S
C1034 C1038 1.524 . S
C1035 C1027 1.503 . S
C1035 C1034 1.370 . S
C1035 C1036 1.403 . S
C1036 C1035 1.403 . S
C1036 C1037 1.404 . S
C1036 C1039 1.539 . S
C1037 C1033 1.408 . S
C1037 C1036 1.404 . S
C1037 H1049 0.930 . S
C1038 C1034 1.524 . S
C1038 H1050 0.956 . S
C1038 H1051 0.961 . S
C1038 H1052 0.961 . S
C1039 C1036 1.539 . S
C1039 H1053 0.958 . S
C1039 H1054 0.961 . S
C1039 H1055 0.960 . S
H1040 C1024 0.931 . S
H1041 C1029 0.929 . S
H1042 C1030 0.960 . S
H1043 C1030 0.962 . S
H1044 C1030 0.960 . S
H1045 C1031 0.961 . S
H1046 C1031 0.961 . S
H1047 C1031 0.961 . S
H1048 C1032 0.931 . S
H1049 C1037 0.930 . S
H1050 C1038 0.956 . S
H1051 C1038 0.961 . S
H1052 C1038 0.961 . S
H1053 C1039 0.958 . S
H1054 C1039 0.961 . S
H1055 C1039 0.960 . S
C1056 C1057 1.391 . S
C1056 C1058 1.394 . S
C1056 H1072 0.931 . S
C1057 C1056 1.391 . S
C1057 C1061 1.376 . S
C1058 C1056 1.394 . S
C1058 C1059 1.369 . S
C1058 C1062 1.531 . S
C1059 C1058 1.369 . S
C1059 C1060 1.410 . S
C1059 C1067 1.503 . S
C1060 C1059 1.410 . S
C1060 C1061 1.392 . S
C1060 C1063 1.511 . S
C1061 C1057 1.376 . S
C1061 C1060 1.392 . S
C1061 H1073 0.929 . S
C1062 C1058 1.531 . S
C1062 H1074 0.960 . S
C1062 H1075 0.962 . S
C1062 H1076 0.960 . S
C1063 C1060 1.511 . S
C1063 H1077 0.961 . S
C1063 H1078 0.961 . S
C1063 H1079 0.961 . S
C1064 C1065 1.370 . S
C1064 C1066 1.363 . S
C1064 H1080 0.931 . S
C1065 C1064 1.370 . S
C1065 C1069 1.408 . S
C1066 C1064 1.363 . S
C1066 C1067 1.370 . S
C1066 C1070 1.524 . S
C1067 C1059 1.503 . S
C1067 C1066 1.370 . S
C1067 C1068 1.403 . S
C1068 C1067 1.403 . S
C1068 C1069 1.404 . S
C1068 C1071 1.539 . S
C1069 C1065 1.408 . S
C1069 C1068 1.404 . S
C1069 H1081 0.930 . S
C1070 C1066 1.524 . S
C1070 H1082 0.956 . S
C1070 H1083 0.961 . S
C1070 H1084 0.961 . S
C1071 C1068 1.539 . S
C1071 H1085 0.958 . S
C1071 H1086 0.961 . S
C1071 H1087 0.960 . S
H1072 C1056 0.931 . S
H1073 C1061 0.929 . S
H1074 C1062 0.960 . S
H1075 C1062 0.962 . S
H1076 C1062 0.960 . S
H1077 C1063 0.961 . S
H1078 C1063 0.961 . S
H1079 C1063 0.961 . S
H1080 C1064 0.931 . S
H1081 C1069 0.930 . S
H1082 C1070 0.956 . S
H1083 C1070 0.961 . S
H1084 C1070 0.961 . S
H1085 C1071 0.958 . S
H1086 C1071 0.961 . S
H1087 C1071 0.960 . S
C1088 C1089 1.391 . S
C1088 C1090 1.394 . S
C1088 H1104 0.931 . S
C1089 C1088 1.391 . S
C1089 C1093 1.376 . S
C1090 C1088 1.394 . S
C1090 C1091 1.369 . S
C1090 C1094 1.531 . S
C1091 C1090 1.369 . S
C1091 C1092 1.410 . S
C1091 C1099 1.503 . S
C1092 C1091 1.410 . S
C1092 C1093 1.392 . S
C1092 C1095 1.511 . S
C1093 C1089 1.376 . S
C1093 C1092 1.392 . S
C1093 H1105 0.929 . S
C1094 C1090 1.531 . S
C1094 H1106 0.960 . S
C1094 H1107 0.962 . S
C1094 H1108 0.960 . S
C1095 C1092 1.511 . S
C1095 H1109 0.961 . S
C1095 H1110 0.961 . S
C1095 H1111 0.961 . S
C1096 C1097 1.370 . S
C1096 C1098 1.363 . S
C1096 H1112 0.931 . S
C1097 C1096 1.370 . S
C1097 C1101 1.408 . S
C1098 C1096 1.363 . S
C1098 C1099 1.370 . S
C1098 C1102 1.524 . S
C1099 C1091 1.503 . S
C1099 C1098 1.370 . S
C1099 C1100 1.403 . S
C1100 C1099 1.403 . S
C1100 C1101 1.404 . S
C1100 C1103 1.539 . S
C1101 C1097 1.408 . S
C1101 C1100 1.404 . S
C1101 H1113 0.930 . S
C1102 C1098 1.524 . S
C1102 H1114 0.956 . S
C1102 H1115 0.961 . S
C1102 H1116 0.961 . S
C1103 C1100 1.539 . S
C1103 H1117 0.958 . S
C1103 H1118 0.961 . S
C1103 H1119 0.960 . S
H1104 C1088 0.931 . S
H1105 C1093 0.929 . S
H1106 C1094 0.960 . S
H1107 C1094 0.962 . S
H1108 C1094 0.960 . S
H1109 C1095 0.961 . S
H1110 C1095 0.961 . S
H1111 C1095 0.961 . S
H1112 C1096 0.931 . S
H1113 C1101 0.930 . S
H1114 C1102 0.956 . S
H1115 C1102 0.961 . S
H1116 C1102 0.961 . S
H1117 C1103 0.958 . S
H1118 C1103 0.961 . S
H1119 C1103 0.960 . S
C1120 C1121 1.391 . S
C1120 C1122 1.394 . S
C1120 H1136 0.931 . S
C1121 C1120 1.391 . S
C1121 C1125 1.376 . S
C1122 C1120 1.394 . S
C1122 C1123 1.369 . S
C1122 C1126 1.531 . S
C1123 C1122 1.369 . S
C1123 C1124 1.410 . S
C1123 C1131 1.503 . S
C1124 C1123 1.410 . S
C1124 C1125 1.392 . S
C1124 C1127 1.511 . S
C1125 C1121 1.376 . S
C1125 C1124 1.392 . S
C1125 H1137 0.929 . S
C1126 C1122 1.531 . S
C1126 H1138 0.960 . S
C1126 H1139 0.962 . S
C1126 H1140 0.960 . S
C1127 C1124 1.511 . S
C1127 H1141 0.961 . S
C1127 H1142 0.961 . S
C1127 H1143 0.961 . S
C1128 C1129 1.370 . S
C1128 C1130 1.363 . S
C1128 H1144 0.931 . S
C1129 C1128 1.370 . S
C1129 C1133 1.408 . S
C1130 C1128 1.363 . S
C1130 C1131 1.370 . S
C1130 C1134 1.524 . S
C1131 C1123 1.503 . S
C1131 C1130 1.370 . S
C1131 C1132 1.403 . S
C1132 C1131 1.403 . S
C1132 C1133 1.404 . S
C1132 C1135 1.539 . S
C1133 C1129 1.408 . S
C1133 C1132 1.404 . S
C1133 H1145 0.930 . S
C1134 C1130 1.524 . S
C1134 H1146 0.956 . S
C1134 H1147 0.961 . S
C1134 H1148 0.961 . S
C1135 C1132 1.539 . S
C1135 H1149 0.958 . S
C1135 H1150 0.961 . S
C1135 H1151 0.960 . S
H1136 C1120 0.931 . S
H1137 C1125 0.929 . S
H1138 C1126 0.960 . S
H1139 C1126 0.962 . S
H1140 C1126 0.960 . S
H1141 C1127 0.961 . S
H1142 C1127 0.961 . S
H1143 C1127 0.961 . S
H1144 C1128 0.931 . S
H1145 C1133 0.930 . S
H1146 C1134 0.956 . S
H1147 C1134 0.961 . S
H1148 C1134 0.961 . S
H1149 C1135 0.958 . S
H1150 C1135 0.961 . S
H1151 C1135 0.960 . S
C1152 C1153 1.391 . S
C1152 C1154 1.394 . S
C1152 H1168 0.931 . S
C1153 C1152 1.391 . S
C1153 C1157 1.376 . S
C1154 C1152 1.394 . S
C1154 C1155 1.369 . S
C1154 C1158 1.531 . S
C1155 C1154 1.369 . S
C1155 C1156 1.410 . S
C1155 C1163 1.503 . S
C1156 C1155 1.410 . S
C1156 C1157 1.392 . S
C1156 C1159 1.511 . S
C1157 C1153 1.376 . S
C1157 C1156 1.392 . S
C1157 H1169 0.929 . S
C1158 C1154 1.531 . S
C1158 H1170 0.960 . S
C1158 H1171 0.962 . S
C1158 H1172 0.960 . S
C1159 C1156 1.511 . S
C1159 H1173 0.961 . S
C1159 H1174 0.961 . S
C1159 H1175 0.961 . S
C1160 C1161 1.370 . S
C1160 C1162 1.363 . S
C1160 H1176 0.931 . S
C1161 C1160 1.370 . S
C1161 C1165 1.408 . S
C1162 C1160 1.363 . S
C1162 C1163 1.370 . S
C1162 C1166 1.524 . S
C1163 C1155 1.503 . S
C1163 C1162 1.370 . S
C1163 C1164 1.403 . S
C1164 C1163 1.403 . S
C1164 C1165 1.404 . S
C1164 C1167 1.539 . S
C1165 C1161 1.408 . S
C1165 C1164 1.404 . S
C1165 H1177 0.930 . S
C1166 C1162 1.524 . S
C1166 H1178 0.956 . S
C1166 H1179 0.961 . S
C1166 H1180 0.961 . S
C1167 C1164 1.539 . S
C1167 H1181 0.958 . S
C1167 H1182 0.961 . S
C1167 H1183 0.960 . S
H1168 C1152 0.931 . S
H1169 C1157 0.929 . S
H1170 C1158 0.960 . S
H1171 C1158 0.962 . S
H1172 C1158 0.960 . S
H1173 C1159 0.961 . S
H1174 C1159 0.961 . S
H1175 C1159 0.961 . S
H1176 C1160 0.931 . S
H1177 C1165 0.930 . S
H1178 C1166 0.956 . S
H1179 C1166 0.961 . S
H1180 C1166 0.961 . S
H1181 C1167 0.958 . S
H1182 C1167 0.961 . S
H1183 C1167 0.960 . S
C1184 C1185 1.391 . S
C1184 C1186 1.394 . S
C1184 H1200 0.931 . S
C1185 C1184 1.391 . S
C1185 C1189 1.376 . S
C1186 C1184 1.394 . S
C1186 C1187 1.369 . S
C1186 C1190 1.531 . S
C1187 C1186 1.369 . S
C1187 C1188 1.410 . S
C1187 C1195 1.503 . S
C1188 C1187 1.410 . S
C1188 C1189 1.392 . S
C1188 C1191 1.511 . S
C1189 C1185 1.376 . S
C1189 C1188 1.392 . S
C1189 H1201 0.929 . S
C1190 C1186 1.531 . S
C1190 H1202 0.960 . S
C1190 H1203 0.962 . S
C1190 H1204 0.960 . S
C1191 C1188 1.511 . S
C1191 H1205 0.961 . S
C1191 H1206 0.961 . S
C1191 H1207 0.961 . S
C1192 C1193 1.370 . S
C1192 C1194 1.363 . S
C1192 H1208 0.931 . S
C1193 C1192 1.370 . S
C1193 C1197 1.408 . S
C1194 C1192 1.363 . S
C1194 C1195 1.370 . S
C1194 C1198 1.524 . S
C1195 C1187 1.503 . S
C1195 C1194 1.370 . S
C1195 C1196 1.403 . S
C1196 C1195 1.403 . S
C1196 C1197 1.404 . S
C1196 C1199 1.539 . S
C1197 C1193 1.408 . S
C1197 C1196 1.404 . S
C1197 H1209 0.930 . S
C1198 C1194 1.524 . S
C1198 H1210 0.956 . S
C1198 H1211 0.961 . S
C1198 H1212 0.961 . S
C1199 C1196 1.539 . S
C1199 H1213 0.958 . S
C1199 H1214 0.961 . S
C1199 H1215 0.960 . S
H1200 C1184 0.931 . S
H1201 C1189 0.929 . S
H1202 C1190 0.960 . S
H1203 C1190 0.962 . S
H1204 C1190 0.960 . S
H1205 C1191 0.961 . S
H1206 C1191 0.961 . S
H1207 C1191 0.961 . S
H1208 C1192 0.931 . S
H1209 C1197 0.930 . S
H1210 C1198 0.956 . S
H1211 C1198 0.961 . S
H1212 C1198 0.961 . S
H1213 C1199 0.958 . S
H1214 C1199 0.961 . S
H1215 C1199 0.960 . S
C1216 C1217 1.391 . S
C1216 C1218 1.394 . S
C1216 H1232 0.931 1_556 S
C1217 C1216 1.391 . S
C1217 C1221 1.376 . S
C1218 C1216 1.394 . S
C1218 C1219 1.369 1_655 S
C1218 C1222 1.531 1_656 S
C1219 C1218 1.369 1_455 S
C1219 C1220 1.410 1_455 S
C1219 C1227 1.503 . S
C1220 C1219 1.410 1_655 S
C1220 C1221 1.392 . S
C1220 C1223 1.511 1_655 S
C1221 C1217 1.376 . S
C1221 C1220 1.392 . S
C1221 H1233 0.929 . S
C1222 C1218 1.531 1_454 S
C1222 H1234 0.960 . S
C1222 H1235 0.962 . S
C1222 H1236 0.960 1_455 S
C1223 C1220 1.511 1_455 S
C1223 H1237 0.941 1_455 S
C1223 H1238 0.961 . S
C1223 H1239 0.961 . S
C1224 C1225 1.370 . S
C1224 C1226 1.363 . S
C1224 H1240 0.931 . S
C1225 C1224 1.370 . S
C1225 C1229 1.408 . S
C1226 C1224 1.363 . S
C1226 C1227 1.370 . S
C1226 C1230 1.524 . S
C1227 C1219 1.503 . S
C1227 C1226 1.370 . S
C1227 C1228 1.403 . S
C1228 C1227 1.403 . S
C1228 C1229 1.404 . S
C1228 C1231 1.539 . S
C1229 C1225 1.408 . S
C1229 C1228 1.404 . S
C1229 H1241 0.930 . S
C1230 C1226 1.524 . S
C1230 H1242 0.956 . S
C1230 H1243 0.961 . S
C1230 H1244 0.961 . S
C1231 C1228 1.539 . S
C1231 H1245 0.958 1_556 S
C1231 H1246 0.961 . S
C1231 H1247 0.960 . S
H1232 C1216 0.931 1_554 S
H1233 C1221 0.929 . S
H1234 C1222 0.960 . S
H1235 C1222 0.962 . S
H1236 C1222 0.960 1_655 S
H1237 C1223 0.941 1_655 S
H1238 C1223 0.961 . S
H1239 C1223 0.961 . S
H1240 C1224 0.931 . S
H1241 C1229 0.930 . S
H1242 C1230 0.956 . S
H1243 C1230 0.961 . S
H1244 C1230 0.961 . S
H1245 C1231 0.958 1_554 S
H1246 C1231 0.961 . S
H1247 C1231 0.960 . S
C1248 C1249 1.391 . S
C1248 C1250 1.394 . S
C1248 H1264 0.931 . S
C1249 C1248 1.391 . S
C1249 C1253 1.376 . S
C1250 C1248 1.394 . S
C1250 C1251 1.369 . S
C1250 C1254 1.531 . S
C1251 C1250 1.369 . S
C1251 C1252 1.410 . S
C1251 C1259 1.503 . S
C1252 C1251 1.410 . S
C1252 C1253 1.392 . S
C1252 C1255 1.511 . S
C1253 C1249 1.376 . S
C1253 C1252 1.392 . S
C1253 H1265 0.929 . S
C1254 C1250 1.531 . S
C1254 H1266 0.960 . S
C1254 H1267 0.962 . S
C1254 H1268 0.960 . S
C1255 C1252 1.511 . S
C1255 H1269 0.961 . S
C1255 H1270 0.961 . S
C1255 H1271 0.961 . S
C1256 C1257 1.370 . S
C1256 C1258 1.363 . S
C1256 H1272 0.931 . S
C1257 C1256 1.370 . S
C1257 C1261 1.408 . S
C1258 C1256 1.363 . S
C1258 C1259 1.370 . S
C1258 C1262 1.524 . S
C1259 C1251 1.503 . S
C1259 C1258 1.370 . S
C1259 C1260 1.403 . S
C1260 C1259 1.403 . S
C1260 C1261 1.404 . S
C1260 C1263 1.539 . S
C1261 C1257 1.408 . S
C1261 C1260 1.404 . S
C1261 H1273 0.930 . S
C1262 C1258 1.524 . S
C1262 H1274 0.956 . S
C1262 H1275 0.961 . S
C1262 H1276 0.961 . S
C1263 C1260 1.539 . S
C1263 H1277 0.958 . S
C1263 H1278 0.961 . S
C1263 H1279 0.960 . S
H1264 C1248 0.931 . S
H1265 C1253 0.929 . S
H1266 C1254 0.960 . S
H1267 C1254 0.962 . S
H1268 C1254 0.960 . S
H1269 C1255 0.961 . S
H1270 C1255 0.961 . S
H1271 C1255 0.961 . S
H1272 C1256 0.931 . S
H1273 C1261 0.930 . S
H1274 C1262 0.956 . S
H1275 C1262 0.961 . S
H1276 C1262 0.961 . S
H1277 C1263 0.958 . S
H1278 C1263 0.961 . S
H1279 C1263 0.960 . S
C1280 C1281 1.391 . S
C1280 C1282 1.394 . S
C1280 H1296 0.931 . S
C1281 C1280 1.391 . S
C1281 C1285 1.376 . S
C1282 C1280 1.394 . S
C1282 C1283 1.369 . S
C1282 C1286 1.531 . S
C1283 C1282 1.369 . S
C1283 C1284 1.410 . S
C1283 C1291 1.503 . S
C1284 C1283 1.410 . S
C1284 C1285 1.392 . S
C1284 C1287 1.511 . S
C1285 C1281 1.376 . S
C1285 C1284 1.392 . S
C1285 H1297 0.929 . S
C1286 C1282 1.531 . S
C1286 H1298 0.960 . S
C1286 H1299 0.962 . S
C1286 H1300 0.960 . S
C1287 C1284 1.511 . S
C1287 H1301 0.961 . S
C1287 H1302 0.961 . S
C1287 H1303 0.961 . S
C1288 C1289 1.370 . S
C1288 C1290 1.363 . S
C1288 H1304 0.931 . S
C1289 C1288 1.370 . S
C1289 C1293 1.408 . S
C1290 C1288 1.363 . S
C1290 C1291 1.370 . S
C1290 C1294 1.524 . S
C1291 C1283 1.503 . S
C1291 C1290 1.370 . S
C1291 C1292 1.403 . S
C1292 C1291 1.403 . S
C1292 C1293 1.404 . S
C1292 C1295 1.539 . S
C1293 C1289 1.408 . S
C1293 C1292 1.404 . S
C1293 H1305 0.930 . S
C1294 C1290 1.524 . S
C1294 H1306 0.956 . S
C1294 H1307 0.961 . S
C1294 H1308 0.961 . S
C1295 C1292 1.539 . S
C1295 H1309 0.958 . S
C1295 H1310 0.961 . S
C1295 H1311 0.960 . S
H1296 C1280 0.931 . S
H1297 C1285 0.929 . S
H1298 C1286 0.960 . S
H1299 C1286 0.962 . S
H1300 C1286 0.960 . S
H1301 C1287 0.961 . S
H1302 C1287 0.961 . S
H1303 C1287 0.961 . S
H1304 C1288 0.931 . S
H1305 C1293 0.930 . S
H1306 C1294 0.956 . S
H1307 C1294 0.961 . S
H1308 C1294 0.961 . S
H1309 C1295 0.958 . S
H1310 C1295 0.961 . S
H1311 C1295 0.960 . S
C1312 C1313 1.391 . S
C1312 C1314 1.394 . S
C1312 H1328 0.931 1_554 S
C1313 C1312 1.391 . S
C1313 C1317 1.376 . S
C1314 C1312 1.394 . S
C1314 C1315 1.369 1_455 S
C1314 C1318 1.525 1_454 S
C1315 C1314 1.369 1_655 S
C1315 C1316 1.410 1_655 S
C1315 C1323 1.503 . S
C1316 C1315 1.410 1_455 S
C1316 C1317 1.392 . S
C1316 C1319 1.511 1_455 S
C1317 C1313 1.376 . S
C1317 C1316 1.392 . S
C1317 H1329 0.929 . S
C1318 C1314 1.525 1_656 S
C1318 H1330 0.972 . S
C1318 H1331 0.965 . S
C1318 H1332 0.951 1_655 S
C1319 C1316 1.511 1_655 S
C1319 H1333 0.944 1_655 S
C1319 H1334 0.961 . S
C1319 H1335 0.961 . S
C1320 C1321 1.370 . S
C1320 C1322 1.363 . S
C1320 H1336 0.931 . S
C1321 C1320 1.370 . S
C1321 C1325 1.408 . S
C1322 C1320 1.363 . S
C1322 C1323 1.370 . S
C1322 C1326 1.524 . S
C1323 C1315 1.503 . S
C1323 C1322 1.370 . S
C1323 C1324 1.403 . S
C1324 C1323 1.403 . S
C1324 C1325 1.404 . S
C1324 C1327 1.539 1_554 S
C1325 C1321 1.408 . S
C1325 C1324 1.404 . S
C1325 H1337 0.930 1_554 S
C1326 C1322 1.524 . S
C1326 H1338 0.956 . S
C1326 H1339 0.961 . S
C1326 H1340 0.961 . S
C1327 C1324 1.539 1_556 S
C1327 H1341 0.958 . S
C1327 H1342 0.961 . S
C1327 H1343 0.960 1_556 S
H1328 C1312 0.931 1_556 S
H1329 C1317 0.929 . S
H1330 C1318 0.972 . S
H1331 C1318 0.965 . S
H1332 C1318 0.951 1_455 S
H1333 C1319 0.944 1_455 S
H1334 C1319 0.961 . S
H1335 C1319 0.961 . S
H1336 C1320 0.931 . S
H1337 C1325 0.930 1_556 S
H1338 C1326 0.956 . S
H1339 C1326 0.961 . S
H1340 C1326 0.961 . S
H1341 C1327 0.958 . S
H1342 C1327 0.961 . S
H1343 C1327 0.960 1_554 S
C1344 C1345 1.391 . S
C1344 C1346 1.394 . S
C1344 H1360 0.931 . S
C1345 C1344 1.391 . S
C1345 C1349 1.376 . S
C1346 C1344 1.394 . S
C1346 C1347 1.369 . S
C1346 C1350 1.531 1_554 S
C1347 C1346 1.369 . S
C1347 C1348 1.410 . S
C1347 C1355 1.503 . S
C1348 C1347 1.410 . S
C1348 C1349 1.392 . S
C1348 C1351 1.511 . S
C1349 C1345 1.376 . S
C1349 C1348 1.392 . S
C1349 H1361 0.929 . S
C1350 C1346 1.531 1_556 S
C1350 H1362 0.960 . S
C1350 H1363 0.962 . S
C1350 H1364 0.960 . S
C1351 C1348 1.511 . S
C1351 H1365 0.961 . S
C1351 H1366 0.961 . S
C1351 H1367 0.961 . S
C1352 C1353 1.370 . S
C1352 C1354 1.363 . S
C1352 H1368 0.931 1_554 S
C1353 C1352 1.370 . S
C1353 C1357 1.408 . S
C1354 C1352 1.363 . S
C1354 C1355 1.370 . S
C1354 C1358 1.524 . S
C1355 C1347 1.503 . S
C1355 C1354 1.370 . S
C1355 C1356 1.403 . S
C1356 C1355 1.403 . S
C1356 C1357 1.404 . S
C1356 C1359 1.539 . S
C1357 C1353 1.408 . S
C1357 C1356 1.404 . S
C1357 H1369 0.930 . S
C1358 C1354 1.524 . S
C1358 H1370 0.956 . S
C1358 H1371 0.961 . S
C1358 H1372 0.961 . S
C1359 C1356 1.539 . S
C1359 H1373 0.958 . S
C1359 H1374 0.961 . S
C1359 H1375 0.960 . S
H1360 C1344 0.931 . S
H1361 C1349 0.929 . S
H1362 C1350 0.960 . S
H1363 C1350 0.962 . S
H1364 C1350 0.960 . S
H1365 C1351 0.961 . S
H1366 C1351 0.961 . S
H1367 C1351 0.961 . S
H1368 C1352 0.931 1_556 S
H1369 C1357 0.930 . S
H1370 C1358 0.956 . S
H1371 C1358 0.961 . S
H1372 C1358 0.961 . S
H1373 C1359 0.958 . S
H1374 C1359 0.961 . S
H1375 C1359 0.960 . S
C1376 C1377 1.391 . S
C1376 C1378 1.394 . S
C1376 H1392 0.931 . S
C1377 C1376 1.391 . S
C1377 C1381 1.376 . S
C1378 C1376 1.394 . S
C1378 C1379 1.369 . S
C1378 C1382 1.531 . S
C1379 C1378 1.369 . S
C1379 C1380 1.410 . S
C1379 C1387 1.503 . S
C1380 C1379 1.410 . S
C1380 C1381 1.392 . S
C1380 C1383 1.511 . S
C1381 C1377 1.376 . S
C1381 C1380 1.392 . S
C1381 H1393 0.929 . S
C1382 C1378 1.531 . S
C1382 H1394 0.960 . S
C1382 H1395 0.962 . S
C1382 H1396 0.960 . S
C1383 C1380 1.511 . S
C1383 H1397 0.961 . S
C1383 H1398 0.961 . S
C1383 H1399 0.961 . S
C1384 C1385 1.370 . S
C1384 C1386 1.363 . S
C1384 H1400 0.931 . S
C1385 C1384 1.370 . S
C1385 C1389 1.408 . S
C1386 C1384 1.363 . S
C1386 C1387 1.370 . S
C1386 C1390 1.524 . S
C1387 C1379 1.503 . S
C1387 C1386 1.370 . S
C1387 C1388 1.403 . S
C1388 C1387 1.403 . S
C1388 C1389 1.404 . S
C1388 C1391 1.539 . S
C1389 C1385 1.408 . S
C1389 C1388 1.404 . S
C1389 H1401 0.930 . S
C1390 C1386 1.524 . S
C1390 H1402 0.956 . S
C1390 H1403 0.961 . S
C1390 H1404 0.961 . S
C1391 C1388 1.539 . S
C1391 H1405 0.958 . S
C1391 H1406 0.961 . S
C1391 H1407 0.960 . S
H1392 C1376 0.931 . S
H1393 C1381 0.929 . S
H1394 C1382 0.960 . S
H1395 C1382 0.962 . S
H1396 C1382 0.960 . S
H1397 C1383 0.961 . S
H1398 C1383 0.961 . S
H1399 C1383 0.961 . S
H1400 C1384 0.931 . S
H1401 C1389 0.930 . S
H1402 C1390 0.956 . S
H1403 C1390 0.961 . S
H1404 C1390 0.961 . S
H1405 C1391 0.958 . S
H1406 C1391 0.961 . S
H1407 C1391 0.960 . S
C1408 C1409 1.391 . S
C1408 C1410 1.394 . S
C1408 H1424 0.931 . S
C1409 C1408 1.391 . S
C1409 C1413 1.376 . S
C1410 C1408 1.394 . S
C1410 C1411 1.369 . S
C1410 C1414 1.531 . S
C1411 C1410 1.369 . S
C1411 C1412 1.410 . S
C1411 C1419 1.503 . S
C1412 C1411 1.410 . S
C1412 C1413 1.392 . S
C1412 C1415 1.511 . S
C1413 C1409 1.376 . S
C1413 C1412 1.392 . S
C1413 H1425 0.929 . S
C1414 C1410 1.531 . S
C1414 H1426 0.960 . S
C1414 H1427 0.962 . S
C1414 H1428 0.960 . S
C1415 C1412 1.511 . S
C1415 H1429 0.961 . S
C1415 H1430 0.961 . S
C1415 H1431 0.961 . S
C1416 C1417 1.370 . S
C1416 C1418 1.363 . S
C1416 H1432 0.931 . S
C1417 C1416 1.370 . S
C1417 C1421 1.408 . S
C1418 C1416 1.363 . S
C1418 C1419 1.370 . S
C1418 C1422 1.524 . S
C1419 C1411 1.503 . S
C1419 C1418 1.370 . S
C1419 C1420 1.403 . S
C1420 C1419 1.403 . S
C1420 C1421 1.404 . S
C1420 C1423 1.539 . S
C1421 C1417 1.408 . S
C1421 C1420 1.404 . S
C1421 H1433 0.930 . S
C1422 C1418 1.524 . S
C1422 H1434 0.956 . S
C1422 H1435 0.961 . S
C1422 H1436 0.961 . S
C1423 C1420 1.539 . S
C1423 H1437 0.958 . S
C1423 H1438 0.961 . S
C1423 H1439 0.960 . S
H1424 C1408 0.931 . S
H1425 C1413 0.929 . S
H1426 C1414 0.960 . S
H1427 C1414 0.962 . S
H1428 C1414 0.960 . S
H1429 C1415 0.961 . S
H1430 C1415 0.961 . S
H1431 C1415 0.961 . S
H1432 C1416 0.931 . S
H1433 C1421 0.930 . S
H1434 C1422 0.956 . S
H1435 C1422 0.961 . S
H1436 C1422 0.961 . S
H1437 C1423 0.958 . S
H1438 C1423 0.961 . S
H1439 C1423 0.960 . S
C1440 C1441 1.391 . S
C1440 C1442 1.394 . S
C1440 H1456 0.931 . S
C1441 C1440 1.391 . S
C1441 C1445 1.376 . S
C1442 C1440 1.394 . S
C1442 C1443 1.369 . S
C1442 C1446 1.531 . S
C1443 C1442 1.369 . S
C1443 C1444 1.410 . S
C1443 C1451 1.503 . S
C1444 C1443 1.410 . S
C1444 C1445 1.392 . S
C1444 C1447 1.511 . S
C1445 C1441 1.376 . S
C1445 C1444 1.392 . S
C1445 H1457 0.929 . S
C1446 C1442 1.531 . S
C1446 H1458 0.960 . S
C1446 H1459 0.962 . S
C1446 H1460 0.960 1_556 S
C1447 C1444 1.511 . S
C1447 H1461 0.961 . S
C1447 H1462 0.961 . S
C1447 H1463 0.961 . S
C1448 C1449 1.370 . S
C1448 C1450 1.363 . S
C1448 H1464 0.931 . S
C1449 C1448 1.370 . S
C1449 C1453 1.408 . S
C1450 C1448 1.363 . S
C1450 C1451 1.370 . S
C1450 C1454 1.524 . S
C1451 C1443 1.503 . S
C1451 C1450 1.370 . S
C1451 C1452 1.403 . S
C1452 C1451 1.403 . S
C1452 C1453 1.404 . S
C1452 C1455 1.539 . S
C1453 C1449 1.408 . S
C1453 C1452 1.404 . S
C1453 H1465 0.930 . S
C1454 C1450 1.524 . S
C1454 H1466 0.956 . S
C1454 H1467 0.961 . S
C1454 H1468 0.961 . S
C1455 C1452 1.539 . S
C1455 H1469 0.958 . S
C1455 H1470 0.961 . S
C1455 H1471 0.960 . S
H1456 C1440 0.931 . S
H1457 C1445 0.929 . S
H1458 C1446 0.960 . S
H1459 C1446 0.962 . S
H1460 C1446 0.960 1_554 S
H1461 C1447 0.961 . S
H1462 C1447 0.961 . S
H1463 C1447 0.961 . S
H1464 C1448 0.931 . S
H1465 C1453 0.930 . S
H1466 C1454 0.956 . S
H1467 C1454 0.961 . S
H1468 C1454 0.961 . S
H1469 C1455 0.958 . S
H1470 C1455 0.961 . S
H1471 C1455 0.960 . S
C1472 C1473 1.391 . S
C1472 C1474 1.394 . S
C1472 H1488 0.931 . S
C1473 C1472 1.391 . S
C1473 C1477 1.376 . S
C1474 C1472 1.394 . S
C1474 C1475 1.369 . S
C1474 C1478 1.531 . S
C1475 C1474 1.369 . S
C1475 C1476 1.410 . S
C1475 C1483 1.503 . S
C1476 C1475 1.410 . S
C1476 C1477 1.392 . S
C1476 C1479 1.511 . S
C1477 C1473 1.376 . S
C1477 C1476 1.392 . S
C1477 H1489 0.929 1_556 S
C1478 C1474 1.531 . S
C1478 H1490 0.960 . S
C1478 H1491 0.962 . S
C1478 H1492 0.960 . S
C1479 C1476 1.511 . S
C1479 H1493 0.961 1_556 S
C1479 H1494 0.961 . S
C1479 H1495 0.961 . S
C1480 C1481 1.370 . S
C1480 C1482 1.363 . S
C1480 H1496 0.931 . S
C1481 C1480 1.370 . S
C1481 C1485 1.408 . S
C1482 C1480 1.363 . S
C1482 C1483 1.370 . S
C1482 C1486 1.524 1_556 S
C1483 C1475 1.503 . S
C1483 C1482 1.370 . S
C1483 C1484 1.403 . S
C1484 C1483 1.403 . S
C1484 C1485 1.404 . S
C1484 C1487 1.539 . S
C1485 C1481 1.408 . S
C1485 C1484 1.404 . S
C1485 H1497 0.930 . S
C1486 C1482 1.524 1_554 S
C1486 H1498 0.956 . S
C1486 H1499 0.961 . S
C1486 H1500 0.961 . S
C1487 C1484 1.539 . S
C1487 H1501 0.958 . S
C1487 H1502 0.961 . S
C1487 H1503 0.960 . S
H1488 C1472 0.931 . S
H1489 C1477 0.929 1_554 S
H1490 C1478 0.960 . S
H1491 C1478 0.962 . S
H1492 C1478 0.960 . S
H1493 C1479 0.961 1_554 S
H1494 C1479 0.961 . S
H1495 C1479 0.961 . S
H1496 C1480 0.931 . S
H1497 C1485 0.930 . S
H1498 C1486 0.956 . S
H1499 C1486 0.961 . S
H1500 C1486 0.961 . S
H1501 C1487 0.958 . S
H1502 C1487 0.961 . S
H1503 C1487 0.960 . S
C1504 C1505 1.391 . S
C1504 C1506 1.394 . S
C1504 H1520 0.931 . S
C1505 C1504 1.391 . S
C1505 C1509 1.376 . S
C1506 C1504 1.394 . S
C1506 C1507 1.369 . S
C1506 C1510 1.531 . S
C1507 C1506 1.369 . S
C1507 C1508 1.410 . S
C1507 C1515 1.503 . S
C1508 C1507 1.410 . S
C1508 C1509 1.392 . S
C1508 C1511 1.511 . S
C1509 C1505 1.376 . S
C1509 C1508 1.392 . S
C1509 H1521 0.929 . S
C1510 C1506 1.531 . S
C1510 H1522 0.960 . S
C1510 H1523 0.962 . S
C1510 H1524 0.960 . S
C1511 C1508 1.511 . S
C1511 H1525 0.961 . S
C1511 H1526 0.961 . S
C1511 H1527 0.961 . S
C1512 C1513 1.370 . S
C1512 C1514 1.363 . S
C1512 H1528 0.931 . S
C1513 C1512 1.370 . S
C1513 C1517 1.408 . S
C1514 C1512 1.363 . S
C1514 C1515 1.370 . S
C1514 C1518 1.524 . S
C1515 C1507 1.503 . S
C1515 C1514 1.370 . S
C1515 C1516 1.403 . S
C1516 C1515 1.403 . S
C1516 C1517 1.404 . S
C1516 C1519 1.539 . S
C1517 C1513 1.408 . S
C1517 C1516 1.404 . S
C1517 H1529 0.930 . S
C1518 C1514 1.524 . S
C1518 H1530 0.956 . S
C1518 H1531 0.961 . S
C1518 H1532 0.961 . S
C1519 C1516 1.539 . S
C1519 H1533 0.958 . S
C1519 H1534 0.961 . S
C1519 H1535 0.960 . S
H1520 C1504 0.931 . S
H1521 C1509 0.929 . S
H1522 C1510 0.960 . S
H1523 C1510 0.962 . S
H1524 C1510 0.960 . S
H1525 C1511 0.961 . S
H1526 C1511 0.961 . S
H1527 C1511 0.961 . S
H1528 C1512 0.931 . S
H1529 C1517 0.930 . S
H1530 C1518 0.956 . S
H1531 C1518 0.961 . S
H1532 C1518 0.961 . S
H1533 C1519 0.958 . S
H1534 C1519 0.961 . S
H1535 C1519 0.960 . S
C1536 C1537 1.391 . S
C1536 C1538 1.394 . S
C1536 H1552 0.931 . S
C1537 C1536 1.391 . S
C1537 C1541 1.376 . S
C1538 C1536 1.394 . S
C1538 C1539 1.369 . S
C1538 C1542 1.531 . S
C1539 C1538 1.369 . S
C1539 C1540 1.410 . S
C1539 C1547 1.503 . S
C1540 C1539 1.410 . S
C1540 C1541 1.392 . S
C1540 C1543 1.511 . S
C1541 C1537 1.376 . S
C1541 C1540 1.392 . S
C1541 H1553 0.929 . S
C1542 C1538 1.531 . S
C1542 H1554 0.960 . S
C1542 H1555 0.962 . S
C1542 H1556 0.960 . S
C1543 C1540 1.511 . S
C1543 H1557 0.961 . S
C1543 H1558 0.961 . S
C1543 H1559 0.961 . S
C1544 C1545 1.370 . S
C1544 C1546 1.363 . S
C1544 H1560 0.931 . S
C1545 C1544 1.370 . S
C1545 C1549 1.408 . S
C1546 C1544 1.363 . S
C1546 C1547 1.370 . S
C1546 C1550 1.524 . S
C1547 C1539 1.503 . S
C1547 C1546 1.370 . S
C1547 C1548 1.403 . S
C1548 C1547 1.403 . S
C1548 C1549 1.404 . S
C1548 C1551 1.539 . S
C1549 C1545 1.408 . S
C1549 C1548 1.404 . S
C1549 H1561 0.930 . S
C1550 C1546 1.524 . S
C1550 H1562 0.956 . S
C1550 H1563 0.961 . S
C1550 H1564 0.961 . S
C1551 C1548 1.539 . S
C1551 H1565 0.958 . S
C1551 H1566 0.961 . S
C1551 H1567 0.960 . S
H1552 C1536 0.931 . S
H1553 C1541 0.929 . S
H1554 C1542 0.960 . S
H1555 C1542 0.962 . S
H1556 C1542 0.960 . S
H1557 C1543 0.961 . S
H1558 C1543 0.961 . S
H1559 C1543 0.961 . S
H1560 C1544 0.931 . S
H1561 C1549 0.930 . S
H1562 C1550 0.956 . S
H1563 C1550 0.961 . S
H1564 C1550 0.961 . S
H1565 C1551 0.958 . S
H1566 C1551 0.961 . S
H1567 C1551 0.960 . S
C1568 C1569 1.391 . S
C1568 C1570 1.394 . S
C1568 H1584 0.931 . S
C1569 C1568 1.391 . S
C1569 C1573 1.376 . S
C1570 C1568 1.394 . S
C1570 C1571 1.369 . S
C1570 C1574 1.531 . S
C1571 C1570 1.369 . S
C1571 C1572 1.410 . S
C1571 C1579 1.503 . S
C1572 C1571 1.410 . S
C1572 C1573 1.392 . S
C1572 C1575 1.511 . S
C1573 C1569 1.376 . S
C1573 C1572 1.392 . S
C1573 H1585 0.929 . S
C1574 C1570 1.531 . S
C1574 H1586 0.960 . S
C1574 H1587 0.962 . S
C1574 H1588 0.960 . S
C1575 C1572 1.511 . S
C1575 H1589 0.961 . S
C1575 H1590 0.961 . S
C1575 H1591 0.961 . S
C1576 C1577 1.370 . S
C1576 C1578 1.363 . S
C1576 H1592 0.931 . S
C1577 C1576 1.370 . S
C1577 C1581 1.408 . S
C1578 C1576 1.363 . S
C1578 C1579 1.370 . S
C1578 C1582 1.524 . S
C1579 C1571 1.503 . S
C1579 C1578 1.370 . S
C1579 C1580 1.403 . S
C1580 C1579 1.403 . S
C1580 C1581 1.404 . S
C1580 C1583 1.539 . S
C1581 C1577 1.408 . S
C1581 C1580 1.404 . S
C1581 H1593 0.930 . S
C1582 C1578 1.524 . S
C1582 H1594 0.956 . S
C1582 H1595 0.961 . S
C1582 H1596 0.961 . S
C1583 C1580 1.539 . S
C1583 H1597 0.958 . S
C1583 H1598 0.961 . S
C1583 H1599 0.960 . S
H1584 C1568 0.931 . S
H1585 C1573 0.929 . S
H1586 C1574 0.960 . S
H1587 C1574 0.962 . S
H1588 C1574 0.960 . S
H1589 C1575 0.961 . S
H1590 C1575 0.961 . S
H1591 C1575 0.961 . S
H1592 C1576 0.931 . S
H1593 C1581 0.930 . S
H1594 C1582 0.956 . S
H1595 C1582 0.961 . S
H1596 C1582 0.961 . S
H1597 C1583 0.958 . S
H1598 C1583 0.961 . S
H1599 C1583 0.960 . S
C1600 C1601 1.391 . S
C1600 C1602 1.394 . S
C1600 H1616 0.931 . S
C1601 C1600 1.391 . S
C1601 C1605 1.376 . S
C1602 C1600 1.394 . S
C1602 C1603 1.388 . S
C1602 C1606 1.531 . S
C1603 C1602 1.388 . S
C1603 C1604 1.414 . S
C1603 C1611 1.479 1_565 S
C1604 C1603 1.414 . S
C1604 C1605 1.392 . S
C1604 C1607 1.511 1_565 S
C1605 C1601 1.376 . S
C1605 C1604 1.392 . S
C1605 H1617 0.929 . S
C1606 C1602 1.531 . S
C1606 H1618 0.960 . S
C1606 H1619 0.962 . S
C1606 H1620 0.960 . S
C1607 C1604 1.511 1_545 S
C1607 H1621 0.961 . S
C1607 H1622 0.961 . S
C1607 H1623 0.961 . S
C1608 C1609 1.370 . S
C1608 C1610 1.363 . S
C1608 H1624 0.931 . S
C1609 C1608 1.370 . S
C1609 C1613 1.408 . S
C1610 C1608 1.363 . S
C1610 C1611 1.370 . S
C1610 C1614 1.524 . S
C1611 C1603 1.479 1_545 S
C1611 C1610 1.370 . S
C1611 C1612 1.403 . S
C1612 C1611 1.403 . S
C1612 C1613 1.404 . S
C1612 C1615 1.539 . S
C1613 C1609 1.408 . S
C1613 C1612 1.404 . S
C1613 H1625 0.930 . S
C1614 C1610 1.524 . S
C1614 H1626 0.956 . S
C1614 H1627 0.961 . S
C1614 H1628 0.961 . S
C1615 C1612 1.539 . S
C1615 H1629 0.958 . S
C1615 H1630 0.961 . S
C1615 H1631 0.960 . S
H1616 C1600 0.931 . S
H1617 C1605 0.929 . S
H1618 C1606 0.960 . S
H1619 C1606 0.962 . S
H1620 C1606 0.960 . S
H1621 C1607 0.961 . S
H1622 C1607 0.961 . S
H1623 C1607 0.961 . S
H1624 C1608 0.931 . S
H1625 C1613 0.930 . S
H1626 C1614 0.956 . S
H1627 C1614 0.961 . S
H1628 C1614 0.961 . S
H1629 C1615 0.958 . S
H1630 C1615 0.961 . S
H1631 C1615 0.960 . S
C1632 C1633 1.391 . S
C1632 C1634 1.394 . S
C1632 H1648 0.931 . S
C1633 C1632 1.391 . S
C1633 C1637 1.376 . S
C1634 C1632 1.394 . S
C1634 C1635 1.369 . S
C1634 C1638 1.531 . S
C1635 C1634 1.369 . S
C1635 C1636 1.410 . S
C1635 C1643 1.503 . S
C1636 C1635 1.410 . S
C1636 C1637 1.392 . S
C1636 C1639 1.511 . S
C1637 C1633 1.376 . S
C1637 C1636 1.392 . S
C1637 H1649 0.929 . S
C1638 C1634 1.531 . S
C1638 H1650 0.960 . S
C1638 H1651 0.962 . S
C1638 H1652 0.960 . S
C1639 C1636 1.511 . S
C1639 H1653 0.961 . S
C1639 H1654 0.961 . S
C1639 H1655 0.961 . S
C1640 C1641 1.370 . S
C1640 C1642 1.363 . S
C1640 H1656 0.931 . S
C1641 C1640 1.370 . S
C1641 C1645 1.408 . S
C1642 C1640 1.363 . S
C1642 C1643 1.370 . S
C1642 C1646 1.524 . S
C1643 C1635 1.503 . S
C1643 C1642 1.370 . S
C1643 C1644 1.403 . S
C1644 C1643 1.403 . S
C1644 C1645 1.404 . S
C1644 C1647 1.539 . S
C1645 C1641 1.408 . S
C1645 C1644 1.404 . S
C1645 H1657 0.930 . S
C1646 C1642 1.524 . S
C1646 H1658 0.956 . S
C1646 H1659 0.961 . S
C1646 H1660 0.961 . S
C1647 C1644 1.539 . S
C1647 H1661 0.958 . S
C1647 H1662 0.961 . S
C1647 H1663 0.960 . S
H1648 C1632 0.931 . S
H1649 C1637 0.929 . S
H1650 C1638 0.960 . S
H1651 C1638 0.962 . S
H1652 C1638 0.960 . S
H1653 C1639 0.961 . S
H1654 C1639 0.961 . S
H1655 C1639 0.961 . S
H1656 C1640 0.931 . S
H1657 C1645 0.930 . S
H1658 C1646 0.956 . S
H1659 C1646 0.961 . S
H1660 C1646 0.961 . S
H1661 C1647 0.958 . S
H1662 C1647 0.961 . S
H1663 C1647 0.960 . S
C1664 C1665 1.391 . S
C1664 C1666 1.394 . S
C1664 H1680 0.931 . S
C1665 C1664 1.391 . S
C1665 C1669 1.376 . S
C1666 C1664 1.394 . S
C1666 C1667 1.369 . S
C1666 C1670 1.531 . S
C1667 C1666 1.369 . S
C1667 C1668 1.410 . S
C1667 C1675 1.503 1_565 S
C1668 C1667 1.410 . S
C1668 C1669 1.392 . S
C1668 C1671 1.511 . S
C1669 C1665 1.376 . S
C1669 C1668 1.392 . S
C1669 H1681 0.929 . S
C1670 C1666 1.531 . S
C1670 H1682 0.960 . S
C1670 H1683 0.962 . S
C1670 H1684 0.960 . S
C1671 C1668 1.511 . S
C1671 H1685 0.961 . S
C1671 H1686 0.961 . S
C1671 H1687 0.961 . S
C1672 C1673 1.370 1_556 S
C1672 C1674 1.363 1_556 S
C1672 H1688 0.931 . S
C1673 C1672 1.370 1_554 S
C1673 C1677 1.408 . S
C1674 C1672 1.363 1_554 S
C1674 C1675 1.370 . S
C1674 C1678 1.524 1_544 S
C1675 C1667 1.503 1_545 S
C1675 C1674 1.370 . S
C1675 C1676 1.403 . S
C1676 C1675 1.403 . S
C1676 C1677 1.404 . S
C1676 C1679 1.539 . S
C1677 C1673 1.408 . S
C1677 C1676 1.404 . S
C1677 H1689 0.930 . S
C1678 C1674 1.524 1_566 S
C1678 H1690 0.956 . S
C1678 H1691 0.961 . S
C1678 H1692 0.961 . S
C1679 C1676 1.539 . S
C1679 H1693 0.958 . S
C1679 H1694 0.961 . S
C1679 H1695 0.960 . S
H1680 C1664 0.931 . S
H1681 C1669 0.929 . S
H1682 C1670 0.960 . S
H1683 C1670 0.962 . S
H1684 C1670 0.960 . S
H1685 C1671 0.961 . S
H1686 C1671 0.961 . S
H1687 C1671 0.961 . S
H1688 C1672 0.931 . S
H1689 C1677 0.930 . S
H1690 C1678 0.956 . S
H1691 C1678 0.961 . S
H1692 C1678 0.961 . S
H1693 C1679 0.958 . S
H1694 C1679 0.961 . S
H1695 C1679 0.960 . S
C1696 C1697 1.391 . S
C1696 C1698 1.394 . S
C1696 H1712 0.931 . S
C1697 C1696 1.391 . S
C1697 C1701 1.376 . S
C1698 C1696 1.394 . S
C1698 C1699 1.369 . S
C1698 C1702 1.531 . S
C1699 C1698 1.369 . S
C1699 C1700 1.410 . S
C1699 C1707 1.503 . S
C1700 C1699 1.410 . S
C1700 C1701 1.392 . S
C1700 C1703 1.511 . S
C1701 C1697 1.376 . S
C1701 C1700 1.392 . S
C1701 H1713 0.929 . S
C1702 C1698 1.531 . S
C1702 H1714 0.960 . S
C1702 H1715 0.962 . S
C1702 H1716 0.960 . S
C1703 C1700 1.511 . S
C1703 H1717 0.961 . S
C1703 H1718 0.961 . S
C1703 H1719 0.961 . S
C1704 C1705 1.370 . S
C1704 C1706 1.363 . S
C1704 H1720 0.931 . S
C1705 C1704 1.370 . S
C1705 C1709 1.408 . S
C1706 C1704 1.363 . S
C1706 C1707 1.370 . S
C1706 C1710 1.524 . S
C1707 C1699 1.503 . S
C1707 C1706 1.370 . S
C1707 C1708 1.403 . S
C1708 C1707 1.403 . S
C1708 C1709 1.404 . S
C1708 C1711 1.539 . S
C1709 C1705 1.408 . S
C1709 C1708 1.404 . S
C1709 H1721 0.930 . S
C1710 C1706 1.524 . S
C1710 H1722 0.956 . S
C1710 H1723 0.961 . S
C1710 H1724 0.961 . S
C1711 C1708 1.539 . S
C1711 H1725 0.958 . S
C1711 H1726 0.961 . S
C1711 H1727 0.960 . S
H1712 C1696 0.931 . S
H1713 C1701 0.929 . S
H1714 C1702 0.960 . S
H1715 C1702 0.962 . S
H1716 C1702 0.960 . S
H1717 C1703 0.961 . S
H1718 C1703 0.961 . S
H1719 C1703 0.961 . S
H1720 C1704 0.931 . S
H1721 C1709 0.930 . S
H1722 C1710 0.956 . S
H1723 C1710 0.961 . S
H1724 C1710 0.961 . S
H1725 C1711 0.958 . S
H1726 C1711 0.961 . S
H1727 C1711 0.960 . S
C1728 C1729 1.391 . S
C1728 C1730 1.394 . S
C1728 H1744 0.931 . S
C1729 C1728 1.391 . S
C1729 C1733 1.376 . S
C1730 C1728 1.394 . S
C1730 C1731 1.369 . S
C1730 C1734 1.531 1_565 S
C1731 C1730 1.369 . S
C1731 C1732 1.410 . S
C1731 C1739 1.503 1_565 S
C1732 C1731 1.410 . S
C1732 C1733 1.392 . S
C1732 C1735 1.511 . S
C1733 C1729 1.376 . S
C1733 C1732 1.392 . S
C1733 H1745 0.929 . S
C1734 C1730 1.531 1_545 S
C1734 H1746 0.960 . S
C1734 H1747 0.962 . S
C1734 H1748 0.960 1_545 S
C1735 C1732 1.511 . S
C1735 H1749 0.961 . S
C1735 H1750 0.961 1_565 S
C1735 H1751 0.961 . S
C1736 C1737 1.370 . S
C1736 C1738 1.363 . S
C1736 H1752 0.931 . S
C1737 C1736 1.370 . S
C1737 C1741 1.408 . S
C1738 C1736 1.363 . S
C1738 C1739 1.370 . S
C1738 C1742 1.524 . S
C1739 C1731 1.503 1_545 S
C1739 C1738 1.370 . S
C1739 C1740 1.403 . S
C1740 C1739 1.403 . S
C1740 C1741 1.404 . S
C1740 C1743 1.539 . S
C1741 C1737 1.408 . S
C1741 C1740 1.404 . S
C1741 H1753 0.930 . S
C1742 C1738 1.524 . S
C1742 H1754 0.956 . S
C1742 H1755 0.961 . S
C1742 H1756 0.961 . S
C1743 C1740 1.539 . S
C1743 H1757 0.958 . S
C1743 H1758 0.961 . S
C1743 H1759 0.960 1_545 S
H1744 C1728 0.931 . S
H1745 C1733 0.929 . S
H1746 C1734 0.960 . S
H1747 C1734 0.962 . S
H1748 C1734 0.960 1_565 S
H1749 C1735 0.961 . S
H1750 C1735 0.961 1_545 S
H1751 C1735 0.961 . S
H1752 C1736 0.931 . S
H1753 C1741 0.930 . S
H1754 C1742 0.956 . S
H1755 C1742 0.961 . S
H1756 C1742 0.961 . S
H1757 C1743 0.958 . S
H1758 C1743 0.961 . S
H1759 C1743 0.960 1_565 S
C1760 C1761 1.391 . S
C1760 C1762 1.394 . S
C1760 H1776 0.931 . S
C1761 C1760 1.391 . S
C1761 C1765 1.376 . S
C1762 C1760 1.394 . S
C1762 C1763 1.369 . S
C1762 C1766 1.531 . S
C1763 C1762 1.369 . S
C1763 C1764 1.410 . S
C1763 C1771 1.503 . S
C1764 C1763 1.410 . S
C1764 C1765 1.392 . S
C1764 C1767 1.511 . S
C1765 C1761 1.376 . S
C1765 C1764 1.392 . S
C1765 H1777 0.929 . S
C1766 C1762 1.531 . S
C1766 H1778 0.960 . S
C1766 H1779 0.962 . S
C1766 H1780 0.960 . S
C1767 C1764 1.511 . S
C1767 H1781 0.961 . S
C1767 H1782 0.961 . S
C1767 H1783 0.961 . S
C1768 C1769 1.370 . S
C1768 C1770 1.363 . S
C1768 H1784 0.931 . S
C1769 C1768 1.370 . S
C1769 C1773 1.408 . S
C1770 C1768 1.363 . S
C1770 C1771 1.370 . S
C1770 C1774 1.524 . S
C1771 C1763 1.503 . S
C1771 C1770 1.370 . S
C1771 C1772 1.403 . S
C1772 C1771 1.403 . S
C1772 C1773 1.404 . S
C1772 C1775 1.539 . S
C1773 C1769 1.408 . S
C1773 C1772 1.404 . S
C1773 H1785 0.930 . S
C1774 C1770 1.524 . S
C1774 H1786 0.956 . S
C1774 H1787 0.961 . S
C1774 H1788 0.961 . S
C1775 C1772 1.539 . S
C1775 H1789 0.958 . S
C1775 H1790 0.961 . S
C1775 H1791 0.960 . S
H1776 C1760 0.931 . S
H1777 C1765 0.929 . S
H1778 C1766 0.960 . S
H1779 C1766 0.962 . S
H1780 C1766 0.960 . S
H1781 C1767 0.961 . S
H1782 C1767 0.961 . S
H1783 C1767 0.961 . S
H1784 C1768 0.931 . S
H1785 C1773 0.930 . S
H1786 C1774 0.956 . S
H1787 C1774 0.961 . S
H1788 C1774 0.961 . S
H1789 C1775 0.958 . S
H1790 C1775 0.961 . S
H1791 C1775 0.960 . S
C1792 C1793 1.391 . S
C1792 C1794 1.394 . S
C1792 H1808 0.931 . S
C1793 C1792 1.391 . S
C1793 C1797 1.376 . S
C1794 C1792 1.394 . S
C1794 C1795 1.369 . S
C1794 C1798 1.531 . S
C1795 C1794 1.369 . S
C1795 C1796 1.410 . S
C1795 C1803 1.513 . S
C1796 C1795 1.410 . S
C1796 C1797 1.392 . S
C1796 C1799 1.511 . S
C1797 C1793 1.376 . S
C1797 C1796 1.392 . S
C1797 H1809 0.929 . S
C1798 C1794 1.531 . S
C1798 H1810 0.993 . S
C1798 H1811 0.962 . S
C1798 H1812 0.960 . S
C1799 C1796 1.511 . S
C1799 H1813 0.961 . S
C1799 H1814 0.961 . S
C1799 H1815 0.961 . S
C1800 C1801 1.370 . S
C1800 C1802 1.363 . S
C1800 H1816 0.931 . S
C1801 C1800 1.370 . S
C1801 C1805 1.408 1_554 S
C1802 C1800 1.363 . S
C1802 C1803 1.369 1_564 S
C1802 C1806 1.524 1_565 S
C1803 C1795 1.513 . S
C1803 C1802 1.369 1_546 S
C1803 C1804 1.395 1_545 S
C1804 C1803 1.395 1_565 S
C1804 C1805 1.404 . S
C1804 C1807 1.539 . S
C1805 C1801 1.408 1_556 S
C1805 C1804 1.404 . S
C1805 H1817 0.930 . S
C1806 C1802 1.524 1_545 S
C1806 H1818 0.956 . S
C1806 H1819 0.961 . S
C1806 H1820 0.961 . S
C1807 C1804 1.539 . S
C1807 H1821 0.958 . S
C1807 H1822 0.961 . S
C1807 H1823 0.960 1_565 S
H1808 C1792 0.931 . S
H1809 C1797 0.929 . S
H1810 C1798 0.993 . S
H1811 C1798 0.962 . S
H1812 C1798 0.960 . S
H1813 C1799 0.961 . S
H1814 C1799 0.961 . S
H1815 C1799 0.961 . S
H1816 C1800 0.931 . S
H1817 C1805 0.930 . S
H1818 C1806 0.956 . S
H1819 C1806 0.961 . S
H1820 C1806 0.961 . S
H1821 C1807 0.958 . S
H1822 C1807 0.961 . S
H1823 C1807 0.960 1_545 S
C1824 C1825 1.391 . S
C1824 C1826 1.394 . S
C1824 H1840 0.931 . S
C1825 C1824 1.391 . S
C1825 C1829 1.376 . S
C1826 C1824 1.394 . S
C1826 C1827 1.369 . S
C1826 C1830 1.531 . S
C1827 C1826 1.369 . S
C1827 C1828 1.410 . S
C1827 C1835 1.503 . S
C1828 C1827 1.410 . S
C1828 C1829 1.392 . S
C1828 C1831 1.511 . S
C1829 C1825 1.376 . S
C1829 C1828 1.392 . S
C1829 H1841 0.929 . S
C1830 C1826 1.531 . S
C1830 H1842 0.960 . S
C1830 H1843 0.962 . S
C1830 H1844 0.960 . S
C1831 C1828 1.511 . S
C1831 H1845 0.961 . S
C1831 H1846 0.961 . S
C1831 H1847 0.961 . S
C1832 C1833 1.370 . S
C1832 C1834 1.363 . S
C1832 H1848 0.931 . S
C1833 C1832 1.370 . S
C1833 C1837 1.408 . S
C1834 C1832 1.363 . S
C1834 C1835 1.370 . S
C1834 C1838 1.524 . S
C1835 C1827 1.503 . S
C1835 C1834 1.370 . S
C1835 C1836 1.403 . S
C1836 C1835 1.403 . S
C1836 C1837 1.404 . S
C1836 C1839 1.539 . S
C1837 C1833 1.408 . S
C1837 C1836 1.404 . S
C1837 H1849 0.930 . S
C1838 C1834 1.524 . S
C1838 H1850 0.956 . S
C1838 H1851 0.961 . S
C1838 H1852 0.961 . S
C1839 C1836 1.539 . S
C1839 H1853 0.958 . S
C1839 H1854 0.961 . S
C1839 H1855 0.960 . S
H1840 C1824 0.931 . S
H1841 C1829 0.929 . S
H1842 C1830 0.960 . S
H1843 C1830 0.962 . S
H1844 C1830 0.960 . S
H1845 C1831 0.961 . S
H1846 C1831 0.961 . S
H1847 C1831 0.961 . S
H1848 C1832 0.931 . S
H1849 C1837 0.930 . S
H1850 C1838 0.956 . S
H1851 C1838 0.961 . S
H1852 C1838 0.961 . S
H1853 C1839 0.958 . S
H1854 C1839 0.961 . S
H1855 C1839 0.960 . S
C321 C12 1.583 . S
C329 C9 1.596 . S
C353 C32 1.555 . S
C361 C29 1.564 . S
C385 C52 1.540 . S
C393 C49 1.560 . S
C417 C72 1.598 . S
C425 C69 1.594 . S
C449 C89 1.558 . S
C457 C92 1.578 . S
C481 C112 1.598 . S
C489 C109 1.610 . S
C513 C129 1.594 . S
C521 C132 1.583 . S
C545 C149 1.594 . S
C553 C152 1.596 . S
C577 C169 1.576 . S
C585 C172 1.583 . S
C609 C192 1.553 . S
C617 C189 1.552 . S
C641 C212 1.565 1_556 S
C649 C209 1.582 . S
C673 C229 1.600 . S
C681 C232 1.616 . S
C705 C252 1.571 . S
C713 C249 1.566 . S
C737 C272 1.586 . S
C745 C269 1.576 . S
C769 C292 1.584 . S
C777 C289 1.592 . S
C801 C309 1.619 1_556 S
C809 C312 1.612 . S
C833 C18 1.789 . S
C841 C222 1.801 . S
C865 C38 2.013 . S
C873 C319 2.022 . S
C897 C58 1.440 . S
C905 C182 1.413 . S
C929 C78 1.576 . S
C937 C262 1.547 . S
C961 C84 1.659 . S
C969 C279 1.693 . S
C993 C239 1.784 . S
C1001 C104 1.799 . S
C1025 C124 1.357 . S
C1033 C302 1.406 . S
C1057 C144 1.469 . S
C1065 C199 1.509 . S
C1089 C64 1.732 . S
C1097 C179 1.723 . S
C1121 C24 1.815 . S
C1129 C219 1.808 . S
C1153 C242 1.700 . S
C1161 C118 1.720 . S
C1185 C158 1.668 . S
C1193 C282 1.693 . S
C1217 C162 1.506 . S
C1225 C98 1.524 . S
C1249 C138 1.451 . S
C1257 C202 1.453 . S
C1281 C44 1.526 . S
C1289 C299 1.535 . S
C1313 C4 1.551 . S
C1321 C259 1.579 . S
C1345 C19 1.590 . S
C1353 C82 1.536 . S
C1377 C39 1.760 . S
C1385 C102 1.680 . S
C1409 C59 1.361 . S
C1417 C122 1.281 . S
C1441 C79 1.533 . S
C1449 C142 1.446 . S
C1473 C244 1.585 . S
C1481 C178 1.694 . S
C1505 C264 1.412 . S
C1513 C198 1.435 . S
C1537 C218 1.615 . S
C1545 C284 1.545 . S
C1569 C318 1.954 . S
C1577 C238 1.942 . S
C1601 C22 1.690 . S
C1609 C159 1.814 . S
C1633 C99 1.536 . S
C1641 C42 1.452 . S
C1665 C119 1.623 . S
C1673 C62 1.544 . S
C1697 C2 1.317 . S
C1705 C139 1.362 . S
C1729 C304 1.117 . S
C1737 C184 1.202 . S
C1761 C258 1.499 . S
C1769 C204 1.461 . S
C1793 C278 1.684 . S
C1801 C224 1.607 . S
C1825 C298 1.436 . S
C1833 C164 1.403 . S
