# Generated by pormake.
# Topology fcq, (5)-cn, num edge types: 1
# Building blocks:
#     Node 0, Type 0, BuildingBlock: XOMCOT_clean_sbu_1, # of connection points: 5
#     Node 1, Type 0, BuildingBlock: XOMCOT_clean_sbu_1, # of connection points: 5
#     Node 2, Type 0, BuildingBlock: XOMCOT_clean_sbu_1, # of connection points: 5
#     Node 3, Type 0, BuildingBlock: XOMCOT_clean_sbu_1, # of connection points: 5
#     Node 4, Type 0, BuildingBlock: XOMCOT_clean_sbu_1, # of connection points: 5
#     Node 5, Type 0, BuildingBlock: XOMCOT_clean_sbu_1, # of connection points: 5
#     Node 6, Type 0, BuildingBlock: XOMCOT_clean_sbu_1, # of connection points: 5
#     Node 7, Type 0, BuildingBlock: XOMCOT_clean_sbu_1, # of connection points: 5
#     Node 8, Type 0, BuildingBlock: XOMCOT_clean_sbu_1, # of connection points: 5
#     Node 9, Type 0, BuildingBlock: XOMCOT_clean_sbu_1, # of connection points: 5
#     Node 10, Type 0, BuildingBlock: XOMCOT_clean_sbu_1, # of connection points: 5
#     Node 11, Type 0, BuildingBlock: XOMCOT_clean_sbu_1, # of connection points: 5
#     Node 12, Type 0, BuildingBlock: XOMCOT_clean_sbu_1, # of connection points: 5
#     Node 13, Type 0, BuildingBlock: XOMCOT_clean_sbu_1, # of connection points: 5
#     Node 14, Type 0, BuildingBlock: XOMCOT_clean_sbu_1, # of connection points: 5
#     Node 15, Type 0, BuildingBlock: XOMCOT_clean_sbu_1, # of connection points: 5
#     Node 16, Type 0, BuildingBlock: XOMCOT_clean_sbu_1, # of connection points: 5
#     Node 17, Type 0, BuildingBlock: XOMCOT_clean_sbu_1, # of connection points: 5
#     Node 18, Type 0, BuildingBlock: XOMCOT_clean_sbu_1, # of connection points: 5
#     Node 19, Type 0, BuildingBlock: XOMCOT_clean_sbu_1, # of connection points: 5
#     Node 20, Type 0, BuildingBlock: XOMCOT_clean_sbu_1, # of connection points: 5
#     Node 21, Type 0, BuildingBlock: XOMCOT_clean_sbu_1, # of connection points: 5
#     Node 22, Type 0, BuildingBlock: XOMCOT_clean_sbu_1, # of connection points: 5
#     Node 23, Type 0, BuildingBlock: XOMCOT_clean_sbu_1, # of connection points: 5
#     Node 24, Type 0, BuildingBlock: XOMCOT_clean_sbu_1, # of connection points: 5
#     Node 25, Type 0, BuildingBlock: XOMCOT_clean_sbu_1, # of connection points: 5
#     Node 26, Type 0, BuildingBlock: XOMCOT_clean_sbu_1, # of connection points: 5
#     Node 27, Type 0, BuildingBlock: XOMCOT_clean_sbu_1, # of connection points: 5
#     Node 28, Type 0, BuildingBlock: XOMCOT_clean_sbu_1, # of connection points: 5
#     Node 29, Type 0, BuildingBlock: XOMCOT_clean_sbu_1, # of connection points: 5
#     Node 30, Type 0, BuildingBlock: XOMCOT_clean_sbu_1, # of connection points: 5
#     Node 31, Type 0, BuildingBlock: XOMCOT_clean_sbu_1, # of connection points: 5
#     Node 32, Type 0, BuildingBlock: XOMCOT_clean_sbu_1, # of connection points: 5
#     Node 33, Type 0, BuildingBlock: XOMCOT_clean_sbu_1, # of connection points: 5
#     Node 34, Type 0, BuildingBlock: XOMCOT_clean_sbu_1, # of connection points: 5
#     Node 35, Type 0, BuildingBlock: XOMCOT_clean_sbu_1, # of connection points: 5
#     Node 36, Type 0, BuildingBlock: XOMCOT_clean_sbu_1, # of connection points: 5
#     Node 37, Type 0, BuildingBlock: XOMCOT_clean_sbu_1, # of connection points: 5
#     Node 38, Type 0, BuildingBlock: XOMCOT_clean_sbu_1, # of connection points: 5
#     Node 39, Type 0, BuildingBlock: XOMCOT_clean_sbu_1, # of connection points: 5
#     Node 40, Type 0, BuildingBlock: XOMCOT_clean_sbu_1, # of connection points: 5
#     Node 41, Type 0, BuildingBlock: XOMCOT_clean_sbu_1, # of connection points: 5
#     Node 42, Type 0, BuildingBlock: XOMCOT_clean_sbu_1, # of connection points: 5
#     Node 43, Type 0, BuildingBlock: XOMCOT_clean_sbu_1, # of connection points: 5
#     Node 44, Type 0, BuildingBlock: XOMCOT_clean_sbu_1, # of connection points: 5
#     Node 45, Type 0, BuildingBlock: XOMCOT_clean_sbu_1, # of connection points: 5
#     Node 46, Type 0, BuildingBlock: XOMCOT_clean_sbu_1, # of connection points: 5
#     Node 47, Type 0, BuildingBlock: XOMCOT_clean_sbu_1, # of connection points: 5
#     Edge 48, Type (0, 0), BuildingBlock: KIFKEQ_clean_linker_1, # of connection points: 2
#     Edge 49, Type (0, 0), BuildingBlock: KIFKEQ_clean_linker_1, # of connection points: 2
#     Edge 50, Type (0, 0), BuildingBlock: KIFKEQ_clean_linker_1, # of connection points: 2
#     Edge 51, Type (0, 0), BuildingBlock: KIFKEQ_clean_linker_1, # of connection points: 2
#     Edge 52, Type (0, 0), BuildingBlock: KIFKEQ_clean_linker_1, # of connection points: 2
#     Edge 53, Type (0, 0), BuildingBlock: KIFKEQ_clean_linker_1, # of connection points: 2
#     Edge 54, Type (0, 0), BuildingBlock: KIFKEQ_clean_linker_1, # of connection points: 2
#     Edge 55, Type (0, 0), BuildingBlock: KIFKEQ_clean_linker_1, # of connection points: 2
#     Edge 56, Type (0, 0), BuildingBlock: KIFKEQ_clean_linker_1, # of connection points: 2
#     Edge 57, Type (0, 0), BuildingBlock: KIFKEQ_clean_linker_1, # of connection points: 2
#     Edge 58, Type (0, 0), BuildingBlock: KIFKEQ_clean_linker_1, # of connection points: 2
#     Edge 59, Type (0, 0), BuildingBlock: KIFKEQ_clean_linker_1, # of connection points: 2
#     Edge 60, Type (0, 0), BuildingBlock: KIFKEQ_clean_linker_1, # of connection points: 2
#     Edge 61, Type (0, 0), BuildingBlock: KIFKEQ_clean_linker_1, # of connection points: 2
#     Edge 62, Type (0, 0), BuildingBlock: KIFKEQ_clean_linker_1, # of connection points: 2
#     Edge 63, Type (0, 0), BuildingBlock: KIFKEQ_clean_linker_1, # of connection points: 2
#     Edge 64, Type (0, 0), BuildingBlock: KIFKEQ_clean_linker_1, # of connection points: 2
#     Edge 65, Type (0, 0), BuildingBlock: KIFKEQ_clean_linker_1, # of connection points: 2
#     Edge 66, Type (0, 0), BuildingBlock: KIFKEQ_clean_linker_1, # of connection points: 2
#     Edge 67, Type (0, 0), BuildingBlock: KIFKEQ_clean_linker_1, # of connection points: 2
#     Edge 68, Type (0, 0), BuildingBlock: KIFKEQ_clean_linker_1, # of connection points: 2
#     Edge 69, Type (0, 0), BuildingBlock: KIFKEQ_clean_linker_1, # of connection points: 2
#     Edge 70, Type (0, 0), BuildingBlock: KIFKEQ_clean_linker_1, # of connection points: 2
#     Edge 71, Type (0, 0), BuildingBlock: KIFKEQ_clean_linker_1, # of connection points: 2
#     Edge 72, Type (0, 0), BuildingBlock: KIFKEQ_clean_linker_1, # of connection points: 2
#     Edge 73, Type (0, 0), BuildingBlock: KIFKEQ_clean_linker_1, # of connection points: 2
#     Edge 74, Type (0, 0), BuildingBlock: KIFKEQ_clean_linker_1, # of connection points: 2
#     Edge 75, Type (0, 0), BuildingBlock: KIFKEQ_clean_linker_1, # of connection points: 2
#     Edge 76, Type (0, 0), BuildingBlock: KIFKEQ_clean_linker_1, # of connection points: 2
#     Edge 77, Type (0, 0), BuildingBlock: KIFKEQ_clean_linker_1, # of connection points: 2
#     Edge 78, Type (0, 0), BuildingBlock: KIFKEQ_clean_linker_1, # of connection points: 2
#     Edge 79, Type (0, 0), BuildingBlock: KIFKEQ_clean_linker_1, # of connection points: 2
#     Edge 80, Type (0, 0), BuildingBlock: KIFKEQ_clean_linker_1, # of connection points: 2
#     Edge 81, Type (0, 0), BuildingBlock: KIFKEQ_clean_linker_1, # of connection points: 2
#     Edge 82, Type (0, 0), BuildingBlock: KIFKEQ_clean_linker_1, # of connection points: 2
#     Edge 83, Type (0, 0), BuildingBlock: KIFKEQ_clean_linker_1, # of connection points: 2
#     Edge 84, Type (0, 0), BuildingBlock: KIFKEQ_clean_linker_1, # of connection points: 2
#     Edge 85, Type (0, 0), BuildingBlock: KIFKEQ_clean_linker_1, # of connection points: 2
#     Edge 86, Type (0, 0), BuildingBlock: KIFKEQ_clean_linker_1, # of connection points: 2
#     Edge 87, Type (0, 0), BuildingBlock: KIFKEQ_clean_linker_1, # of connection points: 2
#     Edge 88, Type (0, 0), BuildingBlock: KIFKEQ_clean_linker_1, # of connection points: 2
#     Edge 89, Type (0, 0), BuildingBlock: KIFKEQ_clean_linker_1, # of connection points: 2
#     Edge 90, Type (0, 0), BuildingBlock: KIFKEQ_clean_linker_1, # of connection points: 2
#     Edge 91, Type (0, 0), BuildingBlock: KIFKEQ_clean_linker_1, # of connection points: 2
#     Edge 92, Type (0, 0), BuildingBlock: KIFKEQ_clean_linker_1, # of connection points: 2
#     Edge 93, Type (0, 0), BuildingBlock: KIFKEQ_clean_linker_1, # of connection points: 2
#     Edge 94, Type (0, 0), BuildingBlock: KIFKEQ_clean_linker_1, # of connection points: 2
#     Edge 95, Type (0, 0), BuildingBlock: KIFKEQ_clean_linker_1, # of connection points: 2
#     Edge 96, Type (0, 0), BuildingBlock: KIFKEQ_clean_linker_1, # of connection points: 2
#     Edge 97, Type (0, 0), BuildingBlock: KIFKEQ_clean_linker_1, # of connection points: 2
#     Edge 98, Type (0, 0), BuildingBlock: KIFKEQ_clean_linker_1, # of connection points: 2
#     Edge 99, Type (0, 0), BuildingBlock: KIFKEQ_clean_linker_1, # of connection points: 2
#     Edge 100, Type (0, 0), BuildingBlock: KIFKEQ_clean_linker_1, # of connection points: 2
#     Edge 101, Type (0, 0), BuildingBlock: KIFKEQ_clean_linker_1, # of connection points: 2
#     Edge 102, Type (0, 0), BuildingBlock: KIFKEQ_clean_linker_1, # of connection points: 2
#     Edge 103, Type (0, 0), BuildingBlock: KIFKEQ_clean_linker_1, # of connection points: 2
#     Edge 104, Type (0, 0), BuildingBlock: KIFKEQ_clean_linker_1, # of connection points: 2
#     Edge 105, Type (0, 0), BuildingBlock: KIFKEQ_clean_linker_1, # of connection points: 2
#     Edge 106, Type (0, 0), BuildingBlock: KIFKEQ_clean_linker_1, # of connection points: 2
#     Edge 107, Type (0, 0), BuildingBlock: KIFKEQ_clean_linker_1, # of connection points: 2
#     Edge 108, Type (0, 0), BuildingBlock: KIFKEQ_clean_linker_1, # of connection points: 2
#     Edge 109, Type (0, 0), BuildingBlock: KIFKEQ_clean_linker_1, # of connection points: 2
#     Edge 110, Type (0, 0), BuildingBlock: KIFKEQ_clean_linker_1, # of connection points: 2
#     Edge 111, Type (0, 0), BuildingBlock: KIFKEQ_clean_linker_1, # of connection points: 2
#     Edge 112, Type (0, 0), BuildingBlock: KIFKEQ_clean_linker_1, # of connection points: 2
#     Edge 113, Type (0, 0), BuildingBlock: KIFKEQ_clean_linker_1, # of connection points: 2
#     Edge 114, Type (0, 0), BuildingBlock: KIFKEQ_clean_linker_1, # of connection points: 2
#     Edge 115, Type (0, 0), BuildingBlock: KIFKEQ_clean_linker_1, # of connection points: 2
#     Edge 116, Type (0, 0), BuildingBlock: KIFKEQ_clean_linker_1, # of connection points: 2
#     Edge 117, Type (0, 0), BuildingBlock: KIFKEQ_clean_linker_1, # of connection points: 2
#     Edge 118, Type (0, 0), BuildingBlock: KIFKEQ_clean_linker_1, # of connection points: 2
#     Edge 119, Type (0, 0), BuildingBlock: KIFKEQ_clean_linker_1, # of connection points: 2
#     Edge 120, Type (0, 0), BuildingBlock: KIFKEQ_clean_linker_1, # of connection points: 2
#     Edge 121, Type (0, 0), BuildingBlock: KIFKEQ_clean_linker_1, # of connection points: 2
#     Edge 122, Type (0, 0), BuildingBlock: KIFKEQ_clean_linker_1, # of connection points: 2
#     Edge 123, Type (0, 0), BuildingBlock: KIFKEQ_clean_linker_1, # of connection points: 2
#     Edge 124, Type (0, 0), BuildingBlock: KIFKEQ_clean_linker_1, # of connection points: 2
#     Edge 125, Type (0, 0), BuildingBlock: KIFKEQ_clean_linker_1, # of connection points: 2
#     Edge 126, Type (0, 0), BuildingBlock: KIFKEQ_clean_linker_1, # of connection points: 2
#     Edge 127, Type (0, 0), BuildingBlock: KIFKEQ_clean_linker_1, # of connection points: 2
#     Edge 128, Type (0, 0), BuildingBlock: KIFKEQ_clean_linker_1, # of connection points: 2
#     Edge 129, Type (0, 0), BuildingBlock: KIFKEQ_clean_linker_1, # of connection points: 2
#     Edge 130, Type (0, 0), BuildingBlock: KIFKEQ_clean_linker_1, # of connection points: 2
#     Edge 131, Type (0, 0), BuildingBlock: KIFKEQ_clean_linker_1, # of connection points: 2
#     Edge 132, Type (0, 0), BuildingBlock: KIFKEQ_clean_linker_1, # of connection points: 2
#     Edge 133, Type (0, 0), BuildingBlock: KIFKEQ_clean_linker_1, # of connection points: 2
#     Edge 134, Type (0, 0), BuildingBlock: KIFKEQ_clean_linker_1, # of connection points: 2
#     Edge 135, Type (0, 0), BuildingBlock: KIFKEQ_clean_linker_1, # of connection points: 2
#     Edge 136, Type (0, 0), BuildingBlock: KIFKEQ_clean_linker_1, # of connection points: 2
#     Edge 137, Type (0, 0), BuildingBlock: KIFKEQ_clean_linker_1, # of connection points: 2
#     Edge 138, Type (0, 0), BuildingBlock: KIFKEQ_clean_linker_1, # of connection points: 2
#     Edge 139, Type (0, 0), BuildingBlock: KIFKEQ_clean_linker_1, # of connection points: 2
#     Edge 140, Type (0, 0), BuildingBlock: KIFKEQ_clean_linker_1, # of connection points: 2
#     Edge 141, Type (0, 0), BuildingBlock: KIFKEQ_clean_linker_1, # of connection points: 2
#     Edge 142, Type (0, 0), BuildingBlock: KIFKEQ_clean_linker_1, # of connection points: 2
#     Edge 143, Type (0, 0), BuildingBlock: KIFKEQ_clean_linker_1, # of connection points: 2
#     Edge 144, Type (0, 0), BuildingBlock: KIFKEQ_clean_linker_1, # of connection points: 2
#     Edge 145, Type (0, 0), BuildingBlock: KIFKEQ_clean_linker_1, # of connection points: 2
#     Edge 146, Type (0, 0), BuildingBlock: KIFKEQ_clean_linker_1, # of connection points: 2
#     Edge 147, Type (0, 0), BuildingBlock: KIFKEQ_clean_linker_1, # of connection points: 2
#     Edge 148, Type (0, 0), BuildingBlock: KIFKEQ_clean_linker_1, # of connection points: 2
#     Edge 149, Type (0, 0), BuildingBlock: KIFKEQ_clean_linker_1, # of connection points: 2
#     Edge 150, Type (0, 0), BuildingBlock: KIFKEQ_clean_linker_1, # of connection points: 2
#     Edge 151, Type (0, 0), BuildingBlock: KIFKEQ_clean_linker_1, # of connection points: 2
#     Edge 152, Type (0, 0), BuildingBlock: KIFKEQ_clean_linker_1, # of connection points: 2
#     Edge 153, Type (0, 0), BuildingBlock: KIFKEQ_clean_linker_1, # of connection points: 2
#     Edge 154, Type (0, 0), BuildingBlock: KIFKEQ_clean_linker_1, # of connection points: 2
#     Edge 155, Type (0, 0), BuildingBlock: KIFKEQ_clean_linker_1, # of connection points: 2
#     Edge 156, Type (0, 0), BuildingBlock: KIFKEQ_clean_linker_1, # of connection points: 2
#     Edge 157, Type (0, 0), BuildingBlock: KIFKEQ_clean_linker_1, # of connection points: 2
#     Edge 158, Type (0, 0), BuildingBlock: KIFKEQ_clean_linker_1, # of connection points: 2
#     Edge 159, Type (0, 0), BuildingBlock: KIFKEQ_clean_linker_1, # of connection points: 2
#     Edge 160, Type (0, 0), BuildingBlock: KIFKEQ_clean_linker_1, # of connection points: 2
#     Edge 161, Type (0, 0), BuildingBlock: KIFKEQ_clean_linker_1, # of connection points: 2
#     Edge 162, Type (0, 0), BuildingBlock: KIFKEQ_clean_linker_1, # of connection points: 2
#     Edge 163, Type (0, 0), BuildingBlock: KIFKEQ_clean_linker_1, # of connection points: 2
#     Edge 164, Type (0, 0), BuildingBlock: KIFKEQ_clean_linker_1, # of connection points: 2
#     Edge 165, Type (0, 0), BuildingBlock: KIFKEQ_clean_linker_1, # of connection points: 2
#     Edge 166, Type (0, 0), BuildingBlock: KIFKEQ_clean_linker_1, # of connection points: 2
#     Edge 167, Type (0, 0), BuildingBlock: KIFKEQ_clean_linker_1, # of connection points: 2
# Relax obj value: 0.454
# Max RMSD: 0.267
# Mean RMSD: 0.267
data_MOF--net-fcq--node1-XOMCOT_clean_sbu_1--edge1-KIFKEQ_clean_linker_1
_symmetry_space_group_name_H-M    P1
_symmetry_Int_Tables_number       1
_symmetry_cell_setting            triclinic
loop_
_symmetry_equiv_pos_as_xyz
'x, y, z'
_cell_length_a     67.006146
_cell_length_b     66.943081
_cell_length_c     67.026179
_cell_angle_alpha  90.036381
_cell_angle_beta   89.957221
_cell_angle_gamma 90.00532
loop_
_atom_site_label
_atom_site_type_symbol
_atom_site_fract_x
_atom_site_fract_y
_atom_site_fract_z
_atom_type_partial_charge
C0 C 0.20849 0.22462 0.39323 0.0
C1 C 0.22084 0.23082 0.40833 0.0
N2 N 0.21239 0.22583 0.42589 0.0
N3 N 0.1923 0.21572 0.40112 0.0
C4 C 0.19493 0.21687 0.42109 0.0
H5 H 0.2114 0.22586 0.3774 0.0
Co6 Co 0.17311 0.20403 0.38493 0.0
C7 C 0.15473 0.17273 0.40992 0.0
O8 O 0.15673 0.16055 0.39463 0.0
N9 N 0.15368 0.19361 0.36739 0.0
C10 C 0.13733 0.18713 0.33917 0.0
C11 C 0.15474 0.19436 0.34729 0.0
C12 C 0.13478 0.18741 0.37099 0.0
N13 N 0.12479 0.18253 0.35417 0.0
O14 O 0.15649 0.22674 0.38843 0.0
H15 H 0.167 0.20067 0.33894 0.0
H16 H 0.1283 0.18676 0.3857 0.0
O17 O 0.16026 0.19101 0.40824 0.0
C18 C 0.15922 0.24151 0.37683 0.0
O19 O 0.17355 0.24051 0.36347 0.0
N20 N 0.19044 0.1816 0.38139 0.0
C21 C 0.21482 0.148 0.3778 0.0
C22 C 0.20954 0.15534 0.39655 0.0
C23 C 0.19786 0.17236 0.39803 0.0
C24 C 0.19687 0.17559 0.36297 0.0
C25 C 0.209 0.15864 0.3608 0.0
H26 H 0.19437 0.17772 0.41279 0.0
H27 H 0.19301 0.18396 0.34986 0.0
H28 H 0.18459 0.21071 0.43184 0.0
H29 H 0.23539 0.23759 0.40645 0.0
H30 H 0.13406 0.1859 0.32341 0.0
H31 H 0.21459 0.14805 0.41007 0.0
H32 H 0.21364 0.15385 0.34608 0.0
C33 C 0.4776 0.54983 0.84269 0.0
C34 C 0.48166 0.53425 0.82999 0.0
N35 N 0.47847 0.54041 0.81111 0.0
N36 N 0.47195 0.56587 0.832 0.0
C37 C 0.4728 0.55977 0.81276 0.0
H38 H 0.47811 0.54936 0.85881 0.0
Co39 Co 0.46278 0.58913 0.84425 0.0
C40 C 0.45182 0.61491 0.80955 0.0
O41 O 0.46063 0.63085 0.81684 0.0
N42 N 0.45394 0.61203 0.85743 0.0
C43 C 0.45414 0.63662 0.87965 0.0
C44 C 0.46433 0.62037 0.87249 0.0
C45 C 0.43715 0.6232 0.85599 0.0
N46 N 0.43706 0.63845 0.86926 0.0
O47 O 0.48773 0.60222 0.83879 0.0
H48 H 0.47833 0.6148 0.8782 0.0
H49 H 0.42534 0.62027 0.84537 0.0
O50 O 0.45213 0.59853 0.81921 0.0
C51 C 0.50289 0.59793 0.84941 0.0
O52 O 0.50129 0.58367 0.86277 0.0
N53 N 0.43867 0.57614 0.8501 0.0
C54 C 0.40478 0.55417 0.86037 0.0
C55 C 0.40948 0.55789 0.84032 0.0
C56 C 0.42652 0.56876 0.83549 0.0
C57 C 0.43438 0.57279 0.86969 0.0
C58 C 0.41744 0.56186 0.87519 0.0
H59 H 0.43025 0.57051 0.81994 0.0
H60 H 0.44437 0.57833 0.8811 0.0
H61 H 0.46855 0.56903 0.80029 0.0
H62 H 0.48632 0.51944 0.83444 0.0
H63 H 0.45875 0.6461 0.89189 0.0
H64 H 0.40051 0.55174 0.82836 0.0
H65 H 0.41441 0.55927 0.89085 0.0
C66 C 0.78526 0.27337 0.39535 0.0
C67 C 0.77071 0.26449 0.40675 0.0
N68 N 0.77884 0.25886 0.42426 0.0
N69 N 0.8025 0.27381 0.4057 0.0
C70 C 0.79845 0.26351 0.42257 0.0
H71 H 0.78295 0.28072 0.38117 0.0
Co72 Co 0.82416 0.29023 0.39837 0.0
C73 C 0.82483 0.29944 0.44447 0.0
O74 O 0.80752 0.29235 0.45029 0.0
N75 N 0.84557 0.30683 0.3907 0.0
C76 C 0.86308 0.33491 0.38771 0.0
C77 C 0.84726 0.32596 0.39696 0.0
C78 C 0.86095 0.3044 0.37775 0.0
N79 N 0.87165 0.32142 0.37562 0.0
O80 O 0.84188 0.26792 0.40074 0.0
H81 H 0.83725 0.33322 0.40734 0.0
H82 H 0.86397 0.2907 0.36971 0.0
O83 O 0.83008 0.29846 0.42611 0.0
C84 C 0.84172 0.25649 0.38552 0.0
O85 O 0.82985 0.26106 0.37059 0.0
N86 N 0.80654 0.31182 0.39467 0.0
C87 C 0.78346 0.34563 0.38735 0.0
C88 C 0.783 0.3362 0.40602 0.0
C89 C 0.79453 0.31924 0.40932 0.0
C90 C 0.80618 0.31996 0.37601 0.0
C91 C 0.79492 0.33706 0.37206 0.0
H92 H 0.79349 0.31201 0.42354 0.0
H93 H 0.81521 0.31349 0.36428 0.0
H94 H 0.80933 0.2609 0.43417 0.0
H95 H 0.75501 0.26376 0.40304 0.0
H96 H 0.86806 0.35016 0.38978 0.0
H97 H 0.77359 0.3417 0.41796 0.0
H98 H 0.79548 0.34368 0.35734 0.0
C99 C 0.51144 0.95753 0.84428 0.0
C100 C 0.50717 0.97078 0.82924 0.0
N101 N 0.51566 0.96416 0.81224 0.0
N102 N 0.5226 0.94249 0.83699 0.0
C103 C 0.52465 0.94672 0.81729 0.0
H104 H 0.50733 0.95912 0.85981 0.0
Co105 Co 0.53369 0.92327 0.8541 0.0
C106 C 0.567 0.90616 0.8316 0.0
O107 O 0.57786 0.90884 0.84772 0.0
N108 N 0.54376 0.90357 0.87213 0.0
C109 C 0.55094 0.88691 0.90006 0.0
C110 C 0.54317 0.90426 0.89227 0.0
C111 C 0.55038 0.88479 0.86825 0.0
N112 N 0.55575 0.87468 0.88486 0.0
O113 O 0.51138 0.90615 0.8494 0.0
H114 H 0.53666 0.91616 0.90096 0.0
H115 H 0.55126 0.87855 0.85343 0.0
O116 O 0.54846 0.91095 0.83177 0.0
C117 C 0.4976 0.90788 0.86238 0.0
O118 O 0.49985 0.92111 0.8767 0.0
N119 N 0.55526 0.94133 0.8593 0.0
C120 C 0.58592 0.96892 0.86658 0.0
C121 C 0.58131 0.96286 0.84713 0.0
C122 C 0.56586 0.94941 0.84381 0.0
C123 C 0.55855 0.94822 0.87819 0.0
C124 C 0.57408 0.96164 0.88225 0.0
H125 H 0.56261 0.94548 0.82857 0.0
H126 H 0.54883 0.94396 0.8902 0.0
H127 H 0.53359 0.93789 0.80713 0.0
H128 H 0.49878 0.9845 0.83087 0.0
H129 H 0.55247 0.88346 0.91575 0.0
H130 H 0.58921 0.96886 0.83437 0.0
H131 H 0.57658 0.9664 0.89748 0.0
C132 C 0.21306 0.77818 0.10221 0.0
C133 C 0.22509 0.77305 0.08644 0.0
N134 N 0.21699 0.78041 0.06956 0.0
N135 N 0.19737 0.78875 0.09548 0.0
C136 C 0.20008 0.78982 0.07548 0.0
H137 H 0.21584 0.77495 0.11777 0.0
Co138 Co 0.17878 0.79958 0.11309 0.0
C139 C 0.16045 0.83298 0.09115 0.0
O140 O 0.16245 0.84384 0.10739 0.0
N141 N 0.15987 0.80935 0.1318 0.0
C142 C 0.14404 0.81568 0.16037 0.0
C143 C 0.16143 0.80883 0.15187 0.0
C144 C 0.14074 0.81511 0.12866 0.0
N145 N 0.131 0.81991 0.14569 0.0
O146 O 0.16134 0.77766 0.10835 0.0
H147 H 0.17391 0.80286 0.16006 0.0
H148 H 0.134 0.81561 0.11406 0.0
O149 O 0.166 0.81465 0.09126 0.0
C150 C 0.16357 0.76276 0.11992 0.0
O151 O 0.17797 0.76329 0.1332 0.0
N152 N 0.19695 0.82094 0.11808 0.0
C153 C 0.22416 0.85166 0.12534 0.0
C154 C 0.21671 0.84843 0.10617 0.0
C155 C 0.20373 0.8326 0.10273 0.0
C156 C 0.20534 0.82294 0.13653 0.0
C157 C 0.21885 0.83838 0.14058 0.0
H158 H 0.19926 0.82978 0.08753 0.0
H159 H 0.20228 0.81216 0.14802 0.0
H160 H 0.19008 0.79765 0.06554 0.0
H161 H 0.23915 0.76518 0.0875 0.0
H162 H 0.14117 0.8169 0.17621 0.0
H163 H 0.22143 0.85767 0.09376 0.0
H164 H 0.22523 0.83979 0.15535 0.0
C165 C 0.02568 0.56627 0.16443 0.0
C166 C 0.02177 0.54927 0.1753 0.0
N167 N 0.02304 0.55382 0.19486 0.0
N168 N 0.02939 0.58151 0.17702 0.0
C169 C 0.02754 0.5735 0.19546 0.0
H170 H 0.02632 0.56737 0.14834 0.0
Co171 Co 0.03684 0.60706 0.16879 0.0
C172 C 0.05786 0.62584 0.20281 0.0
O173 O 0.0694 0.63532 0.19014 0.0
N174 N 0.04379 0.63337 0.16004 0.0
C175 C 0.0429 0.66668 0.15845 0.0
C176 C 0.03397 0.64996 0.16618 0.0
C177 C 0.05871 0.6407 0.14842 0.0
N178 N 0.05857 0.66088 0.14735 0.0
O179 O 0.00993 0.61602 0.17284 0.0
H180 H 0.02164 0.65015 0.17658 0.0
H181 H 0.07009 0.63173 0.14149 0.0
O182 O 0.04413 0.61417 0.19641 0.0
C183 C 0.99902 0.61409 0.15739 0.0
O184 O 0.00668 0.6053 0.1416 0.0
N185 N 0.06259 0.59697 0.16353 0.0
C186 C 0.09614 0.57446 0.15202 0.0
C187 C 0.09107 0.57696 0.17227 0.0
C188 C 0.07436 0.58823 0.17769 0.0
C189 C 0.06683 0.59426 0.14386 0.0
C190 C 0.08393 0.58399 0.13781 0.0
H191 H 0.07013 0.5885 0.19321 0.0
H192 H 0.05665 0.59995 0.13269 0.0
H193 H 0.02953 0.58188 0.20909 0.0
H194 H 0.01893 0.53456 0.16923 0.0
H195 H 0.03884 0.68197 0.16179 0.0
H196 H 0.09909 0.56936 0.18401 0.0
H197 H 0.08695 0.58314 0.122 0.0
C198 C 0.79786 0.74335 0.09224 0.0
C199 C 0.78472 0.74803 0.07717 0.0
N200 N 0.78544 0.73342 0.06336 0.0
N201 N 0.80685 0.72585 0.08801 0.0
C202 C 0.79901 0.72017 0.07026 0.0
H203 H 0.80024 0.75185 0.10575 0.0
Co204 Co 0.82379 0.712 0.1053 0.0
C205 C 0.84974 0.70024 0.07034 0.0
O206 O 0.86247 0.71511 0.07166 0.0
N207 N 0.84049 0.69829 0.12287 0.0
C208 C 0.85069 0.68298 0.15039 0.0
C209 C 0.83504 0.6927 0.14138 0.0
C210 C 0.8596 0.69205 0.121 0.0
N211 N 0.86623 0.68256 0.13759 0.0
O212 O 0.8428 0.73332 0.10393 0.0
H213 H 0.82049 0.69541 0.14785 0.0
H214 H 0.86852 0.69468 0.10784 0.0
O215 O 0.83548 0.69866 0.08277 0.0
C216 C 0.84273 0.74508 0.11889 0.0
O217 O 0.82995 0.7417 0.13339 0.0
N218 N 0.80483 0.69157 0.10754 0.0
C219 C 0.77493 0.66276 0.11126 0.0
C220 C 0.7938 0.65772 0.10362 0.0
C221 C 0.80863 0.67226 0.10218 0.0
C222 C 0.7869 0.69666 0.11567 0.0
C223 C 0.77173 0.6825 0.11764 0.0
H224 H 0.82318 0.66791 0.09677 0.0
H225 H 0.78436 0.71184 0.12058 0.0
H226 H 0.80245 0.70615 0.06299 0.0
H227 H 0.77522 0.76109 0.07652 0.0
H228 H 0.85039 0.67644 0.16513 0.0
H229 H 0.79707 0.64275 0.09844 0.0
H230 H 0.75765 0.68702 0.12417 0.0
C231 C 0.97924 0.94948 0.15874 0.0
C232 C 0.98354 0.96442 0.17218 0.0
N233 N 0.98113 0.95713 0.19076 0.0
N234 N 0.97414 0.9328 0.16874 0.0
C235 C 0.97563 0.93784 0.18823 0.0
H236 H 0.97908 0.95086 0.14267 0.0
Co237 Co 0.96491 0.9097 0.15616 0.0
C238 C 0.95358 0.88454 0.19152 0.0
O239 O 0.96274 0.86828 0.18545 0.0
N240 N 0.95599 0.88686 0.14282 0.0
C241 C 0.95546 0.86287 0.11994 0.0
C242 C 0.96533 0.87955 0.12658 0.0
C243 C 0.94012 0.87462 0.14553 0.0
N244 N 0.93963 0.85967 0.13191 0.0
O245 O 0.98967 0.89655 0.1617 0.0
H246 H 0.97843 0.88606 0.11979 0.0
H247 H 0.92928 0.87652 0.15735 0.0
O248 O 0.954 0.90032 0.18096 0.0
C249 C 0.00432 0.90027 0.1502 0.0
O250 O 0.00204 0.91373 0.13611 0.0
N251 N 0.94086 0.92281 0.15028 0.0
C252 C 0.90636 0.94387 0.14034 0.0
C253 C 0.91148 0.94061 0.16033 0.0
C254 C 0.92886 0.93025 0.16499 0.0
C255 C 0.93626 0.92591 0.13071 0.0
C256 C 0.91901 0.93644 0.12538 0.0
H257 H 0.93287 0.92883 0.18049 0.0
H258 H 0.94615 0.9204 0.1192 0.0
H259 H 0.97248 0.92769 0.20035 0.0
H260 H 0.98724 0.97972 0.16849 0.0
H261 H 0.95948 0.854 0.10705 0.0
H262 H 0.90251 0.94666 0.17235 0.0
H263 H 0.91566 0.93882 0.10976 0.0
C264 C 0.42822 0.19663 0.22955 0.0
C265 C 0.4398 0.21333 0.23226 0.0
N266 N 0.45912 0.208 0.23058 0.0
N267 N 0.44009 0.18074 0.22621 0.0
C268 C 0.45888 0.18807 0.22708 0.0
H269 H 0.41208 0.19615 0.2294 0.0
Co270 Co 0.4297 0.15588 0.21921 0.0
C271 C 0.4653 0.13144 0.20861 0.0
O272 O 0.45808 0.1152 0.21691 0.0
N273 N 0.41831 0.13131 0.21234 0.0
C274 C 0.3985 0.10481 0.21423 0.0
C275 C 0.40526 0.12148 0.22405 0.0
C276 C 0.41901 0.1205 0.19526 0.0
N277 N 0.40715 0.10413 0.19609 0.0
O278 O 0.43656 0.14539 0.24495 0.0
H279 H 0.40045 0.12642 0.23863 0.0
H280 H 0.42797 0.12467 0.18248 0.0
O281 O 0.45539 0.14768 0.20892 0.0
C282 C 0.42653 0.151 0.2601 0.0
O283 O 0.41272 0.16472 0.25774 0.0
N284 N 0.42244 0.16638 0.19444 0.0
C285 C 0.40929 0.186 0.16022 0.0
C286 C 0.42973 0.1833 0.1638 0.0
C287 C 0.43602 0.17359 0.18106 0.0
C288 C 0.40249 0.16849 0.19109 0.0
C289 C 0.39556 0.17822 0.17401 0.0
H290 H 0.45184 0.17275 0.184 0.0
H291 H 0.39194 0.16307 0.20205 0.0
H292 H 0.47206 0.17921 0.22437 0.0
H293 H 0.43435 0.2283 0.235 0.0
H294 H 0.3875 0.09439 0.21984 0.0
H295 H 0.44086 0.18955 0.15387 0.0
H296 H 0.37965 0.17999 0.17183 0.0
C297 C 0.44612 0.33891 0.03054 0.0
C298 C 0.46064 0.32704 0.02203 0.0
N299 N 0.4559 0.30777 0.02543 0.0
N300 N 0.43237 0.32721 0.0394 0.0
C301 C 0.43859 0.30831 0.03576 0.0
H302 H 0.44619 0.35505 0.03127 0.0
Co303 Co 0.41244 0.33636 0.05667 0.0
C304 C 0.39137 0.29936 0.06677 0.0
O305 O 0.37434 0.30736 0.06127 0.0
N306 N 0.39262 0.34555 0.07441 0.0
C307 C 0.37602 0.35018 0.1028 0.0
C308 C 0.39136 0.34007 0.09378 0.0
C309 C 0.37768 0.35896 0.07201 0.0
N310 N 0.36743 0.36206 0.08911 0.0
O311 O 0.39321 0.33354 0.03577 0.0
H312 H 0.40108 0.32937 0.10097 0.0
H313 H 0.37444 0.36653 0.05816 0.0
O314 O 0.40745 0.30946 0.06559 0.0
C315 C 0.39096 0.34909 0.02512 0.0
O316 O 0.40149 0.3651 0.0294 0.0
N317 N 0.43174 0.34021 0.07644 0.0
C318 C 0.46043 0.34947 0.10517 0.0
C319 C 0.45773 0.3297 0.09861 0.0
C320 C 0.44328 0.32536 0.08424 0.0
C321 C 0.43433 0.35952 0.08229 0.0
C322 C 0.44836 0.36445 0.09684 0.0
H323 H 0.44167 0.31015 0.07915 0.0
H324 H 0.42529 0.37116 0.07569 0.0
H325 H 0.43144 0.29517 0.0418 0.0
H326 H 0.47402 0.33221 0.01459 0.0
H327 H 0.37123 0.34857 0.11815 0.0
H328 H 0.46703 0.31768 0.10412 0.0
H329 H 0.44967 0.37988 0.10149 0.0
C330 C 0.60838 0.31083 0.23746 0.0
C331 C 0.59483 0.29641 0.24289 0.0
N332 N 0.57734 0.30031 0.23374 0.0
N333 N 0.59958 0.32384 0.22495 0.0
C334 C 0.58061 0.31719 0.22311 0.0
H335 H 0.62396 0.31133 0.24164 0.0
Co336 Co 0.61392 0.3438 0.21208 0.0
C337 C 0.58637 0.36195 0.18271 0.0
O338 O 0.60132 0.36253 0.17 0.0
N339 N 0.62934 0.36416 0.19992 0.0
C340 C 0.65301 0.38161 0.18442 0.0
C341 C 0.64801 0.36336 0.19235 0.0
C342 C 0.62399 0.38354 0.19762 0.0
N343 N 0.63771 0.39428 0.18745 0.0
O344 O 0.61047 0.3609 0.23465 0.0
H345 H 0.65764 0.3505 0.19234 0.0
H346 H 0.60986 0.38946 0.20271 0.0
O347 O 0.58919 0.35487 0.20027 0.0
C348 C 0.62444 0.3617 0.24748 0.0
O349 O 0.64038 0.35057 0.24476 0.0
N350 N 0.61757 0.32602 0.19011 0.0
C351 C 0.62399 0.30127 0.1572 0.0
C352 C 0.60483 0.30801 0.16189 0.0
C353 C 0.60184 0.31973 0.17871 0.0
C354 C 0.63588 0.3175 0.18721 0.0
C355 C 0.63957 0.30532 0.17054 0.0
H356 H 0.5867 0.32363 0.18236 0.0
H357 H 0.64765 0.31999 0.19791 0.0
H358 H 0.5696 0.3242 0.21368 0.0
H359 H 0.59798 0.28349 0.25205 0.0
H360 H 0.66654 0.38492 0.17625 0.0
H361 H 0.59212 0.30399 0.15273 0.0
H362 H 0.65437 0.29935 0.16802 0.0
C363 C 0.55245 0.15501 0.03083 0.0
C364 C 0.53598 0.16603 0.02554 0.0
N365 N 0.54174 0.18503 0.02252 0.0
N366 N 0.56862 0.16703 0.03196 0.0
C367 C 0.56168 0.18498 0.02556 0.0
H368 H 0.55236 0.13913 0.03341 0.0
Co369 Co 0.59522 0.1602 0.0395 0.0
C370 C 0.59024 0.20011 0.05849 0.0
O371 O 0.57211 0.1953 0.06427 0.0
N372 N 0.62156 0.1537 0.04597 0.0
C373 C 0.65464 0.15574 0.04645 0.0
C374 C 0.63742 0.16433 0.03955 0.0
C375 C 0.62953 0.13871 0.05693 0.0
N376 N 0.6497 0.13965 0.05741 0.0
O377 O 0.60381 0.16662 0.0131 0.0
H378 H 0.63653 0.17771 0.03055 0.0
H379 H 0.62077 0.12741 0.06446 0.0
O380 O 0.60066 0.18768 0.04838 0.0
C381 C 0.60249 0.15229 0.00069 0.0
O382 O 0.59379 0.13566 0.00643 0.0
N383 N 0.58695 0.15243 0.06555 0.0
C384 C 0.56966 0.14187 0.10187 0.0
C385 C 0.58386 0.15721 0.10092 0.0
C386 C 0.59289 0.16178 0.0827 0.0
C387 C 0.57571 0.1355 0.06688 0.0
C388 C 0.56648 0.13017 0.08482 0.0
H389 H 0.6043 0.17314 0.08242 0.0
H390 H 0.57364 0.1262 0.0539 0.0
H391 H 0.57096 0.19809 0.02395 0.0
H392 H 0.52088 0.16046 0.02415 0.0
H393 H 0.66963 0.16133 0.04418 0.0
H394 H 0.58765 0.16585 0.11406 0.0
H395 H 0.55633 0.11759 0.0851 0.0
C396 C 0.39767 0.80737 0.2634 0.0
C397 C 0.41159 0.79298 0.2589 0.0
N398 N 0.429 0.79812 0.26753 0.0
N399 N 0.40615 0.8215 0.27491 0.0
C400 C 0.42541 0.81567 0.27688 0.0
H401 H 0.38204 0.80707 0.25942 0.0
Co402 Co 0.39069 0.84115 0.28706 0.0
C403 C 0.41579 0.85712 0.31965 0.0
O404 O 0.40005 0.85603 0.33134 0.0
N405 N 0.37403 0.86116 0.29832 0.0
C406 C 0.34728 0.87746 0.30947 0.0
C407 C 0.35397 0.86053 0.30002 0.0
C408 C 0.37881 0.87962 0.30511 0.0
N409 N 0.36304 0.88942 0.31308 0.0
O410 O 0.39587 0.85879 0.26517 0.0
H411 H 0.34451 0.84878 0.29442 0.0
H412 H 0.39372 0.88569 0.30439 0.0
O413 O 0.41432 0.85189 0.30128 0.0
C414 C 0.38275 0.85961 0.25147 0.0
O415 O 0.36679 0.84831 0.25307 0.0
N416 N 0.38532 0.82282 0.30839 0.0
C417 C 0.37744 0.79868 0.34137 0.0
C418 C 0.39702 0.80364 0.3363 0.0
C419 C 0.40067 0.8151 0.31943 0.0
C420 C 0.3664 0.81591 0.31167 0.0
C421 C 0.36201 0.80405 0.32838 0.0
H422 H 0.41601 0.81824 0.31581 0.0
H423 H 0.35464 0.81926 0.30129 0.0
H424 H 0.43618 0.82326 0.28618 0.0
H425 H 0.40892 0.77941 0.25052 0.0
H426 H 0.33199 0.88035 0.31371 0.0
H427 H 0.40946 0.79872 0.34538 0.0
H428 H 0.34679 0.79943 0.33125 0.0
C429 C 0.04464 0.34582 0.95265 0.0
C430 C 0.02864 0.33319 0.95472 0.0
N431 N 0.03548 0.31427 0.95541 0.0
N432 N 0.06159 0.33502 0.95197 0.0
C433 C 0.05558 0.31581 0.95387 0.0
H434 H 0.04402 0.36192 0.9515 0.0
Co435 Co 0.08631 0.3471 0.9481 0.0
C436 C 0.11358 0.31257 0.94138 0.0
O437 O 0.12817 0.31996 0.95217 0.0
N438 N 0.11062 0.36022 0.9445 0.0
C439 C 0.13448 0.38247 0.95027 0.0
C440 C 0.11633 0.37533 0.95648 0.0
C441 C 0.12535 0.35873 0.93073 0.0
N442 N 0.14029 0.37197 0.93411 0.0
O443 O 0.09395 0.34066 0.97463 0.0
H444 H 0.10769 0.38097 0.96889 0.0
H445 H 0.12521 0.34798 0.91867 0.0
O446 O 0.09733 0.32213 0.93919 0.0
C447 C 0.08669 0.34999 0.98948 0.0
O448 O 0.07236 0.36302 0.98644 0.0
N449 N 0.0787 0.35382 0.92216 0.0
C450 C 0.06246 0.36534 0.88573 0.0
C451 C 0.06781 0.34541 0.88921 0.0
C452 C 0.07565 0.33989 0.90759 0.0
C453 C 0.07432 0.37342 0.91885 0.0
C454 C 0.06604 0.37953 0.9007 0.0
H455 H 0.0782 0.32421 0.91024 0.0
H456 H 0.07649 0.3842 0.93069 0.0
H457 H 0.06566 0.30321 0.95368 0.0
H458 H 0.01315 0.33765 0.95574 0.0
H459 H 0.14259 0.39472 0.957 0.0
H460 H 0.06469 0.33386 0.87831 0.0
H461 H 0.06187 0.39503 0.89864 0.0
C462 C 0.58178 0.70075 0.2832 0.0
C463 C 0.56982 0.71722 0.2805 0.0
N464 N 0.5507 0.71106 0.27976 0.0
N465 N 0.57027 0.68428 0.28441 0.0
C466 C 0.55139 0.691 0.28199 0.0
H467 H 0.59785 0.70078 0.28464 0.0
Co468 Co 0.58032 0.65895 0.28996 0.0
C469 C 0.54864 0.63691 0.31159 0.0
O470 O 0.56253 0.62796 0.32208 0.0
N471 N 0.59114 0.63302 0.29504 0.0
C472 C 0.59545 0.60005 0.29251 0.0
C473 C 0.58642 0.61651 0.28436 0.0
C474 C 0.60327 0.62594 0.30966 0.0
N475 N 0.60593 0.60594 0.30856 0.0
O476 O 0.57495 0.65111 0.26314 0.0
H477 H 0.57609 0.61605 0.272 0.0
H478 H 0.60924 0.63491 0.3216 0.0
O479 O 0.5536 0.64969 0.29824 0.0
C480 C 0.58947 0.65358 0.25113 0.0
O481 O 0.60568 0.66243 0.25775 0.0
N482 N 0.58657 0.66801 0.31576 0.0
C483 C 0.59838 0.68939 0.34958 0.0
C484 C 0.57828 0.68439 0.34653 0.0
C485 C 0.57263 0.67404 0.32938 0.0
C486 C 0.60616 0.6729 0.31837 0.0
C487 C 0.61245 0.68326 0.33533 0.0
H488 H 0.5569 0.67228 0.32655 0.0
H489 H 0.61688 0.66919 0.30687 0.0
H490 H 0.53835 0.6815 0.28244 0.0
H491 H 0.5748 0.73255 0.27921 0.0
H492 H 0.59331 0.58475 0.28776 0.0
H493 H 0.56677 0.6896 0.35663 0.0
H494 H 0.6281 0.68697 0.33693 0.0
C495 C 0.93712 0.16301 0.97821 0.0
C496 C 0.95099 0.17755 0.98256 0.0
N497 N 0.94774 0.19334 0.97049 0.0
N498 N 0.92511 0.16953 0.96352 0.0
C499 C 0.93175 0.18814 0.9593 0.0
H500 H 0.93646 0.1482 0.98462 0.0
Co501 Co 0.90682 0.15329 0.95037 0.0
C502 C 0.8883 0.17899 0.91949 0.0
O503 O 0.889 0.1638 0.90706 0.0
N504 N 0.88817 0.13614 0.93762 0.0
C505 C 0.87326 0.11027 0.92297 0.0
C506 C 0.89081 0.11731 0.93082 0.0
C507 C 0.86848 0.13968 0.9346 0.0
N508 N 0.8592 0.12444 0.92516 0.0
O509 O 0.88844 0.15617 0.97226 0.0
H510 H 0.90443 0.10883 0.93153 0.0
H511 H 0.86118 0.15341 0.939 0.0
O512 O 0.89488 0.17686 0.93731 0.0
C513 C 0.88589 0.14062 0.98292 0.0
O514 O 0.89599 0.12439 0.97849 0.0
N515 N 0.9259 0.14974 0.9296 0.0
C516 C 0.95413 0.14135 0.89993 0.0
C517 C 0.9455 0.16037 0.90152 0.0
C518 C 0.93177 0.16435 0.91661 0.0
C519 C 0.93592 0.13201 0.92977 0.0
C520 C 0.94965 0.12723 0.91474 0.0
H521 H 0.92626 0.17939 0.91781 0.0
H522 H 0.93319 0.12141 0.94162 0.0
H523 H 0.92542 0.19745 0.94776 0.0
H524 H 0.96321 0.17609 0.993 0.0
H525 H 0.87126 0.09599 0.91566 0.0
H526 H 0.94954 0.17228 0.89137 0.0
H527 H 0.95648 0.11258 0.91469 0.0
C528 C 0.21699 0.41504 0.18436 0.0
C529 C 0.22025 0.42554 0.2017 0.0
N530 N 0.21291 0.44414 0.19936 0.0
N531 N 0.20766 0.42693 0.17114 0.0
C532 C 0.2054 0.44459 0.18065 0.0
H533 H 0.22096 0.39963 0.18159 0.0
Co534 Co 0.19943 0.41831 0.1462 0.0
C535 C 0.17633 0.45108 0.12812 0.0
O536 O 0.16471 0.43729 0.12041 0.0
N537 N 0.19175 0.40898 0.12059 0.0
C538 C 0.19131 0.40649 0.08744 0.0
C539 C 0.19952 0.41626 0.10342 0.0
C540 C 0.17883 0.39466 0.11447 0.0
N541 N 0.17825 0.39294 0.09441 0.0
O542 O 0.22591 0.42259 0.13618 0.0
H543 H 0.21016 0.42837 0.1025 0.0
H544 H 0.16979 0.38568 0.12428 0.0
O545 O 0.19131 0.44581 0.13879 0.0
C546 C 0.23482 0.40589 0.13416 0.0
O547 O 0.22547 0.38954 0.13969 0.0
N548 N 0.17426 0.41258 0.15728 0.0
C549 C 0.14088 0.40007 0.1789 0.0
C550 C 0.14397 0.42037 0.17482 0.0
C551 C 0.16099 0.42636 0.16443 0.0
C552 C 0.17183 0.39288 0.16175 0.0
C553 C 0.15506 0.38622 0.17216 0.0
H554 H 0.16386 0.44215 0.16329 0.0
H555 H 0.18323 0.38227 0.15744 0.0
H556 H 0.19787 0.45733 0.17424 0.0
H557 H 0.22757 0.4199 0.21493 0.0
H558 H 0.19415 0.40968 0.07186 0.0
H559 H 0.13395 0.43165 0.18065 0.0
H560 H 0.1535 0.37044 0.17533 0.0
C561 C 0.21443 0.58694 0.31085 0.0
C562 C 0.21728 0.57559 0.29402 0.0
N563 N 0.21428 0.55626 0.29879 0.0
N564 N 0.2097 0.5749 0.32623 0.0
C565 C 0.20973 0.55626 0.31846 0.0
H566 H 0.21521 0.60306 0.31175 0.0
Co567 Co 0.20331 0.58454 0.3514 0.0
C568 C 0.1787 0.55365 0.37098 0.0
O569 O 0.16856 0.56818 0.3794 0.0
N570 N 0.19747 0.59494 0.37717 0.0
C571 C 0.19901 0.59826 0.41025 0.0
C572 C 0.20645 0.58831 0.394 0.0
C573 C 0.18447 0.60901 0.38384 0.0
N574 N 0.18511 0.61121 0.40387 0.0
O575 O 0.22975 0.5782 0.3605 0.0
H576 H 0.21715 0.57627 0.39467 0.0
H577 H 0.17423 0.61715 0.37451 0.0
O578 O 0.1935 0.5579 0.35962 0.0
C579 C 0.2429 0.59146 0.35685 0.0
O580 O 0.23781 0.60692 0.34592 0.0
N581 N 0.17807 0.59184 0.34122 0.0
C582 C 0.14503 0.60519 0.3195 0.0
C583 C 0.14753 0.58486 0.32376 0.0
C584 C 0.16436 0.57844 0.33418 0.0
C585 C 0.17613 0.61162 0.33676 0.0
C586 C 0.15956 0.61868 0.32626 0.0
H587 H 0.16685 0.56258 0.33524 0.0
H588 H 0.18783 0.62193 0.34099 0.0
H589 H 0.20633 0.54298 0.32697 0.0
H590 H 0.2206 0.58125 0.27927 0.0
H591 H 0.20277 0.59538 0.42569 0.0
H592 H 0.13725 0.5738 0.31795 0.0
H593 H 0.15844 0.63448 0.32298 0.0
C594 C 0.8264 0.51005 0.95041 0.0
C595 C 0.81069 0.50743 0.96336 0.0
N596 N 0.79804 0.5229 0.96119 0.0
N597 N 0.82373 0.52713 0.94009 0.0
C598 C 0.80626 0.53463 0.94698 0.0
H599 H 0.83927 0.50043 0.94911 0.0
Co600 Co 0.84242 0.53824 0.9226 0.0
C601 C 0.80801 0.55195 0.89698 0.0
O602 O 0.80655 0.53544 0.88648 0.0
N603 N 0.86129 0.54903 0.90539 0.0
C604 C 0.8902 0.56053 0.89411 0.0
C605 C 0.88059 0.55199 0.9101 0.0
C606 C 0.85953 0.55554 0.88641 0.0
N607 N 0.87693 0.56281 0.87913 0.0
O608 O 0.83875 0.51633 0.90443 0.0
H609 H 0.88713 0.54846 0.92442 0.0
H610 H 0.84572 0.55487 0.87813 0.0
O611 O 0.82141 0.55365 0.91033 0.0
C612 C 0.85169 0.50252 0.90637 0.0
O613 O 0.86538 0.50446 0.92028 0.0
N614 N 0.847 0.55923 0.94063 0.0
C615 C 0.85414 0.5893 0.96861 0.0
C616 C 0.84819 0.59404 0.94912 0.0
C617 C 0.84486 0.5788 0.93531 0.0
C618 C 0.85362 0.55432 0.95921 0.0
C619 C 0.85712 0.56912 0.9735 0.0
H620 H 0.84063 0.58281 0.92029 0.0
H621 H 0.85609 0.53882 0.96301 0.0
H622 H 0.80011 0.54883 0.94235 0.0
H623 H 0.80879 0.49516 0.9737 0.0
H624 H 0.90566 0.56516 0.89385 0.0
H625 H 0.84569 0.60938 0.94465 0.0
H626 H 0.86216 0.56478 0.98822 0.0
C627 C 0.76499 0.90921 0.31029 0.0
C628 C 0.75788 0.92173 0.2956 0.0
N629 N 0.76664 0.93973 0.29777 0.0
N630 N 0.77821 0.91923 0.32166 0.0
C631 C 0.77877 0.93782 0.31376 0.0
H632 H 0.76154 0.89352 0.31194 0.0
Co633 Co 0.79492 0.90758 0.34063 0.0
C634 C 0.80609 0.94044 0.36684 0.0
O635 O 0.80187 0.92925 0.38237 0.0
N636 N 0.81235 0.89568 0.3596 0.0
C637 C 0.84065 0.88803 0.37532 0.0
C638 C 0.8324 0.89825 0.3597 0.0
C639 C 0.80884 0.88405 0.37582 0.0
N640 N 0.82585 0.87916 0.38548 0.0
O641 O 0.77364 0.90859 0.35971 0.0
H642 H 0.84066 0.90758 0.34949 0.0
H643 H 0.79421 0.87958 0.38089 0.0
O644 O 0.80389 0.93365 0.3492 0.0
C645 C 0.76285 0.893 0.36098 0.0
O646 O 0.76746 0.87737 0.35003 0.0
N647 N 0.81489 0.90563 0.32121 0.0
C648 C 0.8459 0.89793 0.29458 0.0
C649 C 0.84168 0.91755 0.30073 0.0
C650 C 0.826 0.92113 0.31399 0.0
C651 C 0.8181 0.88664 0.31466 0.0
C652 C 0.83362 0.88241 0.30141 0.0
H653 H 0.8232 0.93627 0.31876 0.0
H654 H 0.80895 0.8746 0.32036 0.0
H655 H 0.78887 0.9494 0.31871 0.0
H656 H 0.74754 0.91771 0.28387 0.0
H657 H 0.85624 0.88802 0.37957 0.0
H658 H 0.85048 0.93003 0.29542 0.0
H659 H 0.83633 0.86707 0.29706 0.0
C660 C 0.65689 0.48679 0.456 0.0
C661 C 0.67195 0.49064 0.46935 0.0
N662 N 0.68838 0.48058 0.46352 0.0
N663 N 0.66367 0.47438 0.4417 0.0
C664 C 0.68302 0.47101 0.44654 0.0
H665 H 0.64168 0.49206 0.45706 0.0
Co666 Co 0.64648 0.46324 0.42285 0.0
C667 C 0.67004 0.43422 0.3998 0.0
O668 O 0.65482 0.42186 0.40094 0.0
N669 N 0.62836 0.45274 0.40368 0.0
C670 C 0.60322 0.43777 0.38788 0.0
C671 C 0.61009 0.4445 0.40599 0.0
C672 C 0.63151 0.45197 0.3837 0.0
N673 N 0.61691 0.44215 0.37384 0.0
O674 O 0.64887 0.48662 0.40675 0.0
H675 H 0.60211 0.44292 0.41983 0.0
H676 H 0.64487 0.45769 0.37667 0.0
O677 O 0.66907 0.45131 0.40837 0.0
C678 C 0.63537 0.49984 0.40862 0.0
O679 O 0.62113 0.49696 0.4218 0.0
N680 N 0.6438 0.44059 0.43974 0.0
C681 C 0.6384 0.40908 0.46677 0.0
C682 C 0.65676 0.41202 0.45716 0.0
C683 C 0.65924 0.42794 0.44403 0.0
C684 C 0.62649 0.4391 0.45032 0.0
C685 C 0.62318 0.42312 0.46337 0.0
H686 H 0.67392 0.43027 0.43792 0.0
H687 H 0.61525 0.45058 0.44891 0.0
H688 H 0.69267 0.46089 0.43846 0.0
H689 H 0.67074 0.49982 0.48259 0.0
H690 H 0.58968 0.42929 0.38552 0.0
H691 H 0.66949 0.40256 0.46025 0.0
H692 H 0.60891 0.42202 0.47085 0.0
C693 C 0.28495 0.58282 0.70454 0.0
C694 C 0.28099 0.56925 0.71939 0.0
N695 N 0.28334 0.55071 0.71189 0.0
N696 N 0.28979 0.57297 0.6877 0.0
C697 C 0.28872 0.55339 0.6926 0.0
H698 H 0.28441 0.59891 0.7059 0.0
Co699 Co 0.29568 0.58606 0.66394 0.0
C700 C 0.32212 0.5596 0.64099 0.0
O701 O 0.33199 0.57573 0.63585 0.0
N702 N 0.30086 0.59987 0.63944 0.0
C703 C 0.29832 0.60663 0.60693 0.0
C704 C 0.29125 0.5952 0.62229 0.0
C705 C 0.314 0.6143 0.63377 0.0
N706 N 0.31275 0.61857 0.61407 0.0
O707 O 0.26953 0.57958 0.65427 0.0
H708 H 0.28043 0.58337 0.62055 0.0
H709 H 0.32504 0.62091 0.64343 0.0
O710 O 0.30675 0.56121 0.6523 0.0
C711 C 0.25603 0.59216 0.65893 0.0
O712 O 0.26073 0.60681 0.67111 0.0
N713 N 0.32059 0.59331 0.675 0.0
C714 C 0.35343 0.60519 0.69797 0.0
C715 C 0.35088 0.58517 0.69235 0.0
C716 C 0.33422 0.57948 0.68128 0.0
C717 C 0.32241 0.61273 0.68093 0.0
C718 C 0.33889 0.61908 0.69209 0.0
H719 H 0.3318 0.56374 0.67887 0.0
H720 H 0.31074 0.62329 0.6773 0.0
H721 H 0.29157 0.54134 0.68221 0.0
H722 H 0.277 0.57279 0.73464 0.0
H723 H 0.29413 0.60522 0.5914 0.0
H724 H 0.36109 0.5737 0.69741 0.0
H725 H 0.34 0.63464 0.69639 0.0
C726 C 0.84351 0.49206 0.55635 0.0
C727 C 0.82859 0.49634 0.5429 0.0
N728 N 0.81552 0.48103 0.54277 0.0
N729 N 0.83989 0.47415 0.56478 0.0
C730 C 0.82275 0.46779 0.55618 0.0
H731 H 0.85641 0.50124 0.55944 0.0
Co732 Co 0.85683 0.46068 0.58241 0.0
C733 C 0.82221 0.44955 0.60953 0.0
O734 O 0.8253 0.46304 0.62343 0.0
N735 N 0.87416 0.44741 0.59961 0.0
C736 C 0.90198 0.43284 0.61011 0.0
C737 C 0.89334 0.44364 0.59497 0.0
C738 C 0.87149 0.43898 0.61773 0.0
N739 N 0.88819 0.42984 0.62447 0.0
O740 O 0.85582 0.48281 0.60067 0.0
H741 H 0.90043 0.4481 0.58117 0.0
H742 H 0.85759 0.43945 0.62582 0.0
O743 O 0.83374 0.44844 0.59448 0.0
C744 C 0.87073 0.49463 0.60007 0.0
O745 O 0.8849 0.49115 0.58695 0.0
N746 N 0.85868 0.43921 0.56451 0.0
C747 C 0.86256 0.40767 0.53751 0.0
C748 C 0.85504 0.40445 0.55677 0.0
C749 C 0.85346 0.4203 0.5701 0.0
C750 C 0.86648 0.44269 0.54605 0.0
C751 C 0.86847 0.42712 0.53224 0.0
H752 H 0.84816 0.41723 0.585 0.0
H753 H 0.87116 0.45762 0.54203 0.0
H754 H 0.81614 0.45336 0.5591 0.0
H755 H 0.82749 0.50972 0.53391 0.0
H756 H 0.91709 0.42714 0.61016 0.0
H757 H 0.85005 0.38982 0.56153 0.0
H758 H 0.87468 0.43029 0.51767 0.0
C759 C 0.16721 0.02056 0.54373 0.0
C760 C 0.18274 0.01559 0.53132 0.0
N761 N 0.19995 0.02116 0.5401 0.0
N762 N 0.17445 0.02926 0.56033 0.0
C763 C 0.19453 0.02918 0.55786 0.0
H764 H 0.15151 0.01857 0.5406 0.0
Co765 Co 0.15725 0.03993 0.57951 0.0
C766 C 0.18042 0.07287 0.59708 0.0
O767 O 0.16474 0.0844 0.5945 0.0
N768 N 0.13891 0.0493 0.59891 0.0
C769 C 0.10993 0.0524 0.61503 0.0
C770 C 0.11914 0.04549 0.59804 0.0
C771 C 0.14145 0.05715 0.6174 0.0
N772 N 0.12401 0.05988 0.62721 0.0
O773 O 0.16198 0.01748 0.59637 0.0
H774 H 0.11188 0.03738 0.58613 0.0
H775 H 0.15581 0.06037 0.6239 0.0
O776 O 0.17951 0.0544 0.59215 0.0
C777 C 0.15174 0.00189 0.59266 0.0
O778 O 0.13979 0.00197 0.57713 0.0
N779 N 0.15212 0.06193 0.56194 0.0
C780 C 0.14518 0.09254 0.53414 0.0
C781 C 0.16463 0.08726 0.53969 0.0
C782 C 0.16777 0.07192 0.55336 0.0
C783 C 0.13311 0.06631 0.55606 0.0
C784 C 0.12928 0.08178 0.54255 0.0
H785 H 0.18298 0.06802 0.5569 0.0
H786 H 0.12072 0.05755 0.56122 0.0
H787 H 0.20486 0.03586 0.56831 0.0
H788 H 0.18139 0.00871 0.51677 0.0
H789 H 0.09417 0.05135 0.6184 0.0
H790 H 0.1775 0.09445 0.53306 0.0
H791 H 0.11397 0.08502 0.53855 0.0
C792 C 0.69149 0.748 0.90972 0.0
C793 C 0.70495 0.75163 0.92481 0.0
N794 N 0.70368 0.73664 0.93816 0.0
N795 N 0.6818 0.73078 0.91347 0.0
C796 C 0.6895 0.72421 0.93095 0.0
H797 H 0.68932 0.75704 0.89653 0.0
Co798 Co 0.66405 0.71846 0.89589 0.0
C799 C 0.63774 0.708 0.93053 0.0
O800 O 0.62683 0.72426 0.9295 0.0
N801 N 0.64657 0.70631 0.87798 0.0
C802 C 0.63505 0.69429 0.84934 0.0
C803 C 0.65018 0.70494 0.85827 0.0
C804 C 0.62914 0.69651 0.88074 0.0
N805 N 0.62182 0.68891 0.86352 0.0
O806 O 0.64598 0.74068 0.89844 0.0
H807 H 0.66327 0.71091 0.85095 0.0
H808 H 0.62201 0.69481 0.89508 0.0
O809 O 0.6518 0.70501 0.9181 0.0
C810 C 0.64487 0.75338 0.88432 0.0
O811 O 0.65646 0.75108 0.86867 0.0
N812 N 0.68191 0.69699 0.89269 0.0
C813 C 0.70962 0.6661 0.88782 0.0
C814 C 0.69022 0.66215 0.89468 0.0
C815 C 0.67655 0.67774 0.89682 0.0
C816 C 0.70042 0.7011 0.88532 0.0
C817 C 0.71456 0.6859 0.88289 0.0
H818 H 0.66163 0.67423 0.90181 0.0
H819 H 0.70429 0.71629 0.88142 0.0
H820 H 0.68544 0.71016 0.93783 0.0
H821 H 0.71498 0.76426 0.92582 0.0
H822 H 0.63428 0.69025 0.83373 0.0
H823 H 0.68566 0.64718 0.89876 0.0
H824 H 0.72918 0.68965 0.87712 0.0
C825 C 0.97701 0.04967 0.34747 0.0
C826 C 0.98194 0.03428 0.33481 0.0
N827 N 0.97911 0.0404 0.31585 0.0
N828 N 0.97112 0.06554 0.33667 0.0
C829 C 0.97285 0.05958 0.31744 0.0
H830 H 0.97713 0.04918 0.3636 0.0
Co831 Co 0.961 0.08876 0.34845 0.0
C832 C 0.95131 0.11308 0.31238 0.0
O833 O 0.96099 0.12903 0.31846 0.0
N834 N 0.95148 0.11177 0.36112 0.0
C835 C 0.95057 0.13555 0.3842 0.0
C836 C 0.96026 0.1187 0.37782 0.0
C837 C 0.93609 0.12449 0.35782 0.0
N838 N 0.9354 0.13932 0.37159 0.0
O839 O 0.98564 0.10212 0.34328 0.0
H840 H 0.97283 0.11175 0.38512 0.0
H841 H 0.92576 0.12303 0.34551 0.0
O842 O 0.95073 0.09748 0.3232 0.0
C843 C 1.00037 0.09912 0.35485 0.0
O844 O 0.99849 0.08612 0.36941 0.0
N845 N 0.93685 0.07542 0.35372 0.0
C846 C 0.90201 0.05385 0.36188 0.0
C847 C 0.90978 0.05492 0.34246 0.0
C848 C 0.92698 0.06586 0.33869 0.0
C849 C 0.92984 0.07441 0.3728 0.0
C850 C 0.91227 0.06394 0.37718 0.0
H851 H 0.93267 0.06603 0.32365 0.0
H852 H 0.93795 0.08163 0.38474 0.0
H853 H 0.96872 0.06882 0.30491 0.0
H854 H 0.9869 0.0196 0.33938 0.0
H855 H 0.95422 0.14416 0.39738 0.0
H856 H 0.90308 0.04685 0.33017 0.0
H857 H 0.90693 0.06369 0.39241 0.0
C858 C 0.29204 0.77682 0.90383 0.0
C859 C 0.27761 0.77418 0.91819 0.0
N860 N 0.28588 0.77752 0.93621 0.0
N861 N 0.30938 0.78181 0.91265 0.0
C862 C 0.30524 0.78191 0.93242 0.0
H863 H 0.28987 0.77593 0.88786 0.0
Co864 Co 0.33182 0.7898 0.89821 0.0
C865 C 0.36106 0.79972 0.93036 0.0
O866 O 0.37568 0.78962 0.92204 0.0
N867 N 0.3539 0.79767 0.88309 0.0
C868 C 0.37734 0.7973 0.85964 0.0
C869 C 0.36093 0.78757 0.86715 0.0
C870 C 0.36595 0.81382 0.88464 0.0
N871 N 0.38056 0.81379 0.8707 0.0
O872 O 0.34409 0.76436 0.90262 0.0
H873 H 0.3545 0.774 0.86127 0.0
H874 H 0.36427 0.82516 0.89604 0.0
O875 O 0.34392 0.80023 0.92217 0.0
C876 C 0.33895 0.74983 0.89147 0.0
O877 O 0.32434 0.75252 0.87868 0.0
N878 N 0.31954 0.81436 0.89327 0.0
C879 C 0.29915 0.84942 0.88406 0.0
C880 C 0.30467 0.84517 0.90376 0.0
C881 C 0.31468 0.82748 0.9081 0.0
C882 C 0.31432 0.81818 0.87399 0.0
C883 C 0.30408 0.83568 0.86903 0.0
H884 H 0.31789 0.82418 0.92351 0.0
H885 H 0.31789 0.80743 0.86248 0.0
H886 H 0.31591 0.78603 0.94376 0.0
H887 H 0.26214 0.77041 0.91549 0.0
H888 H 0.38611 0.79267 0.84689 0.0
H889 H 0.30061 0.85507 0.91589 0.0
H890 H 0.29993 0.83837 0.85365 0.0
C891 C 0.01827 0.43846 0.33591 0.0
C892 C 0.01452 0.45596 0.32578 0.0
N893 N 0.01952 0.45334 0.30645 0.0
N894 N 0.0256 0.42481 0.3231 0.0
C895 C 0.02605 0.43425 0.30527 0.0
H896 H 0.01613 0.43591 0.3517 0.0
Co897 Co 0.0343 0.39941 0.33047 0.0
C898 C 0.05535 0.38216 0.29589 0.0
O899 O 0.06798 0.37374 0.30827 0.0
N900 N 0.04248 0.37321 0.33832 0.0
C901 C 0.04276 0.33988 0.33864 0.0
C902 C 0.03375 0.35651 0.33094 0.0
C903 C 0.05695 0.36604 0.35055 0.0
N904 N 0.05743 0.34585 0.35092 0.0
O905 O 0.00774 0.38935 0.32672 0.0
H906 H 0.02205 0.3563 0.31986 0.0
H907 H 0.06742 0.37517 0.35865 0.0
O908 O 0.04118 0.39311 0.30259 0.0
C909 C 0.99874 0.38633 0.3432 0.0
O910 O 0.00761 0.3919 0.35978 0.0
N911 N 0.05975 0.41039 0.33548 0.0
C912 C 0.09296 0.43333 0.34695 0.0
C913 C 0.08791 0.43087 0.32672 0.0
C914 C 0.07133 0.41941 0.32132 0.0
C915 C 0.06402 0.41302 0.35516 0.0
C916 C 0.08091 0.42364 0.36119 0.0
H917 H 0.06714 0.41908 0.30579 0.0
H918 H 0.054 0.40706 0.36633 0.0
H919 H 0.0317 0.4275 0.29181 0.0
H920 H 0.00865 0.46955 0.33225 0.0
H921 H 0.03948 0.32456 0.33462 0.0
H922 H 0.0959 0.4386 0.31502 0.0
H923 H 0.08398 0.42463 0.37699 0.0
C924 C 0.71089 0.26056 0.59227 0.0
C925 C 0.72253 0.25439 0.57657 0.0
N926 N 0.71408 0.26076 0.55948 0.0
N927 N 0.69515 0.27089 0.58529 0.0
C928 C 0.69727 0.27052 0.56516 0.0
H929 H 0.71402 0.25824 0.60793 0.0
Co930 Co 0.67749 0.28335 0.603 0.0
C931 C 0.66147 0.31773 0.5812 0.0
O932 O 0.66581 0.32825 0.59721 0.0
N933 N 0.6594 0.29464 0.62181 0.0
C934 C 0.64465 0.30284 0.65051 0.0
C935 C 0.66099 0.29387 0.64187 0.0
C936 C 0.64096 0.30247 0.61885 0.0
N937 N 0.63206 0.30856 0.63594 0.0
O938 O 0.65873 0.262 0.59929 0.0
H939 H 0.67286 0.28655 0.64991 0.0
H940 H 0.63392 0.30326 0.6044 0.0
O941 O 0.66504 0.29888 0.58101 0.0
C942 C 0.66061 0.24732 0.61125 0.0
O943 O 0.67521 0.24777 0.62432 0.0
N944 N 0.69705 0.30409 0.60703 0.0
C945 C 0.72372 0.33606 0.61198 0.0
C946 C 0.71822 0.3295 0.59292 0.0
C947 C 0.7052 0.31343 0.59077 0.0
C948 C 0.70399 0.30886 0.6256 0.0
C949 C 0.71697 0.32505 0.62847 0.0
H950 H 0.70109 0.30907 0.57583 0.0
H951 H 0.69974 0.30019 0.63836 0.0
H952 H 0.68736 0.27818 0.55498 0.0
H953 H 0.73636 0.24611 0.57768 0.0
H954 H 0.64238 0.30491 0.66635 0.0
H955 H 0.72384 0.3368 0.57963 0.0
H956 H 0.72136 0.32906 0.64349 0.0
C957 C 0.52021 0.04611 0.64958 0.0
C958 C 0.51654 0.03161 0.66365 0.0
N959 N 0.51923 0.03959 0.68195 0.0
N960 N 0.52519 0.06327 0.65878 0.0
C961 C 0.52431 0.0589 0.67851 0.0
H962 H 0.5201 0.04407 0.63357 0.0
Co963 Co 0.53418 0.08588 0.64488 0.0
C964 C 0.54194 0.11483 0.67695 0.0
O965 O 0.53173 0.12883 0.66777 0.0
N966 N 0.54312 0.10822 0.63046 0.0
C967 C 0.54485 0.13187 0.60726 0.0
C968 C 0.53409 0.1158 0.61417 0.0
C969 C 0.55956 0.11973 0.63296 0.0
N970 N 0.56087 0.1344 0.61914 0.0
O971 O 0.50889 0.0984 0.64853 0.0
H972 H 0.52054 0.11 0.60765 0.0
H973 H 0.57046 0.11725 0.64461 0.0
O974 O 0.54369 0.09753 0.66925 0.0
C975 C 0.49468 0.09376 0.63683 0.0
O976 O 0.49759 0.07965 0.62351 0.0
N977 N 0.55864 0.07327 0.64067 0.0
C978 C 0.5922 0.0501 0.63219 0.0
C979 C 0.5869 0.05455 0.652 0.0
C980 C 0.57012 0.06622 0.65592 0.0
C981 C 0.56373 0.06958 0.62134 0.0
C982 C 0.58064 0.0583 0.61675 0.0
H983 H 0.56584 0.06868 0.67126 0.0
H984 H 0.55431 0.07499 0.60942 0.0
H985 H 0.52778 0.06954 0.69011 0.0
H986 H 0.51308 0.01614 0.66052 0.0
H987 H 0.54096 0.14116 0.59465 0.0
H988 H 0.59492 0.04821 0.66449 0.0
H989 H 0.58422 0.05557 0.60124 0.0
C990 C 0.2952 0.23037 0.58719 0.0
C991 C 0.28015 0.23364 0.57368 0.0
N992 N 0.28722 0.2297 0.55526 0.0
N993 N 0.31172 0.22444 0.57741 0.0
C994 C 0.3065 0.22432 0.55794 0.0
H995 H 0.29404 0.23162 0.60324 0.0
Co996 Co 0.33447 0.21619 0.59085 0.0
C997 C 0.36303 0.20687 0.55866 0.0
O998 O 0.37703 0.21736 0.56751 0.0
N999 N 0.35686 0.20828 0.60523 0.0
C1000 C 0.38076 0.2089 0.62811 0.0
C1001 C 0.36475 0.219 0.62032 0.0
C1002 C 0.36803 0.19148 0.60438 0.0
N1003 N 0.38285 0.1916 0.61806 0.0
O1004 O 0.34693 0.24131 0.58547 0.0
H1005 H 0.35905 0.23317 0.62554 0.0
H1006 H 0.36545 0.17952 0.59382 0.0
O1007 O 0.34574 0.20547 0.56649 0.0
C1008 C 0.34244 0.25693 0.59531 0.0
O1009 O 0.3281 0.25595 0.60865 0.0
N1010 N 0.32203 0.19178 0.59642 0.0
C1011 C 0.30005 0.15769 0.6061 0.0
C1012 C 0.30435 0.16241 0.58615 0.0
C1013 C 0.31533 0.17947 0.58162 0.0
C1014 C 0.31833 0.18739 0.61592 0.0
C1015 C 0.30754 0.17029 0.62112 0.0
H1016 H 0.31762 0.18318 0.56612 0.0
H1017 H 0.32344 0.19744 0.62748 0.0
H1018 H 0.31629 0.21949 0.54607 0.0
H1019 H 0.26509 0.23829 0.57722 0.0
H1020 H 0.38992 0.21376 0.64049 0.0
H1021 H 0.29845 0.15358 0.57396 0.0
H1022 H 0.30472 0.16724 0.63673 0.0
C1023 C 0.48606 0.44416 0.6569 0.0
C1024 C 0.48924 0.45985 0.66978 0.0
N1025 N 0.48365 0.45415 0.68824 0.0
N1026 N 0.47855 0.42857 0.66713 0.0
C1027 C 0.47736 0.43505 0.68621 0.0
H1028 H 0.48845 0.44428 0.64094 0.0
Co1029 Co 0.47026 0.4049 0.65507 0.0
C1030 C 0.44544 0.38353 0.68425 0.0
O1031 O 0.43384 0.37834 0.66935 0.0
N1032 N 0.46254 0.38055 0.64228 0.0
C1033 C 0.46166 0.3477 0.6366 0.0
C1034 C 0.4709 0.36273 0.64692 0.0
C1035 C 0.44811 0.37567 0.62888 0.0
N1036 N 0.44719 0.3558 0.62534 0.0
O1037 O 0.49619 0.39363 0.6597 0.0
H1038 H 0.48223 0.36042 0.65812 0.0
H1039 H 0.43768 0.38609 0.62252 0.0
O1040 O 0.46092 0.39425 0.68086 0.0
C1041 C 0.50948 0.39571 0.64627 0.0
O1042 O 0.5054 0.4068 0.63063 0.0
N1043 N 0.4453 0.41726 0.65001 0.0
C1044 C 0.41162 0.44069 0.64127 0.0
C1045 C 0.41656 0.43575 0.66102 0.0
C1046 C 0.43339 0.42422 0.66506 0.0
C1047 C 0.44149 0.42282 0.63084 0.0
C1048 C 0.42439 0.43383 0.62603 0.0
H1049 H 0.43731 0.42196 0.68048 0.0
H1050 H 0.45182 0.41866 0.61914 0.0
H1051 H 0.47161 0.4261 0.69833 0.0
H1052 H 0.49451 0.47457 0.66568 0.0
H1053 H 0.46446 0.33188 0.63839 0.0
H1054 H 0.40816 0.44152 0.67354 0.0
H1055 H 0.42156 0.43718 0.61051 0.0
C1056 C 0.92623 0.68516 0.75223 0.0
C1057 C 0.94017 0.69932 0.75739 0.0
N1058 N 0.95386 0.70044 0.74271 0.0
N1059 N 0.93106 0.6772 0.73439 0.0
C1060 C 0.94797 0.6869 0.7289 0.0
H1061 H 0.91312 0.68132 0.76078 0.0
Co1062 Co 0.91517 0.65887 0.72035 0.0
C1063 C 0.95477 0.64003 0.71688 0.0
O1064 O 0.95739 0.64075 0.73629 0.0
N1065 N 0.89886 0.64109 0.70647 0.0
C1066 C 0.8716 0.62928 0.69191 0.0
C1067 C 0.87954 0.64489 0.70256 0.0
C1068 C 0.90237 0.62299 0.69817 0.0
N1069 N 0.88593 0.6154 0.68912 0.0
O1070 O 0.91549 0.64091 0.7426 0.0
H1071 H 0.87177 0.65834 0.707 0.0
H1072 H 0.91668 0.61554 0.69884 0.0
O1073 O 0.93861 0.6465 0.70925 0.0
C1074 C 0.89985 0.64194 0.75338 0.0
O1075 O 0.8859 0.65481 0.74842 0.0
N1076 N 0.91351 0.67668 0.69903 0.0
C1077 C 0.90459 0.70307 0.66806 0.0
C1078 C 0.9182 0.68736 0.66522 0.0
C1079 C 0.92227 0.67416 0.68081 0.0
C1080 C 0.90065 0.69207 0.70228 0.0
C1081 C 0.89589 0.70539 0.68701 0.0
H1082 H 0.93205 0.6617 0.67792 0.0
H1083 H 0.89351 0.69356 0.71669 0.0
H1084 H 0.95541 0.68457 0.71475 0.0
H1085 H 0.94014 0.70818 0.7709 0.0
H1086 H 0.85649 0.62853 0.68627 0.0
H1087 H 0.92556 0.68509 0.65102 0.0
H1088 H 0.88502 0.71699 0.68992 0.0
C1089 C 0.93683 0.83701 0.51775 0.0
C1090 C 0.95182 0.82449 0.51114 0.0
N1091 N 0.94944 0.80654 0.51994 0.0
N1092 N 0.92509 0.82702 0.53067 0.0
C1093 C 0.93305 0.80848 0.5315 0.0
H1094 H 0.93531 0.85271 0.51428 0.0
Co1095 Co 0.90589 0.83838 0.54737 0.0
C1096 C 0.88159 0.80438 0.56095 0.0
O1097 O 0.86496 0.81408 0.55723 0.0
N1098 N 0.88675 0.84994 0.56479 0.0
C1099 C 0.87117 0.85755 0.59318 0.0
C1100 C 0.88676 0.84737 0.58483 0.0
C1101 C 0.87047 0.86149 0.56137 0.0
N1102 N 0.86093 0.8664 0.57845 0.0
O1103 O 0.88662 0.83636 0.52644 0.0
H1104 H 0.89706 0.83809 0.59303 0.0
H1105 H 0.86534 0.86597 0.54678 0.0
O1106 O 0.89838 0.81238 0.55708 0.0
C1107 C 0.88514 0.8518 0.5155 0.0
O1108 O 0.89607 0.86753 0.51979 0.0
N1109 N 0.92535 0.84116 0.56717 0.0
C1110 C 0.94934 0.84907 0.59996 0.0
C1111 C 0.94461 0.82936 0.59478 0.0
C1112 C 0.93277 0.82567 0.57815 0.0
C1113 C 0.93098 0.86033 0.57112 0.0
C1114 C 0.94303 0.86466 0.58757 0.0
H1115 H 0.92897 0.81038 0.57478 0.0
H1116 H 0.92522 0.87237 0.56204 0.0
H1117 H 0.92793 0.797 0.54157 0.0
H1118 H 0.96394 0.82855 0.50126 0.0
H1119 H 0.86699 0.85756 0.60879 0.0
H1120 H 0.94976 0.81691 0.60373 0.0
H1121 H 0.94667 0.88005 0.59103 0.0
C1122 C 0.10088 0.80391 0.72556 0.0
C1123 C 0.09042 0.78752 0.73219 0.0
N1124 N 0.07183 0.79335 0.73715 0.0
N1125 N 0.08889 0.82013 0.72561 0.0
C1126 C 0.07183 0.81336 0.73421 0.0
H1127 H 0.11615 0.8035 0.72059 0.0
Co1128 Co 0.09307 0.8463 0.71476 0.0
C1129 C 0.05291 0.83572 0.69992 0.0
O1130 O 0.05958 0.81784 0.69527 0.0
N1131 N 0.0969 0.87209 0.70492 0.0
C1132 C 0.09218 0.9045 0.69984 0.0
C1133 C 0.0848 0.88769 0.70893 0.0
C1134 C 0.11155 0.87975 0.69334 0.0
N1135 N 0.10899 0.89951 0.69002 0.0
O1136 O 0.08833 0.8574 0.74067 0.0
H1137 H 0.07142 0.88689 0.71793 0.0
H1138 H 0.12386 0.87104 0.68753 0.0
O1139 O 0.0646 0.84851 0.70799 0.0
C1140 C 0.10452 0.86303 0.74888 0.0
O1141 O 0.12143 0.85896 0.7398 0.0
N1142 N 0.0992 0.83599 0.68905 0.0
C1143 C 0.10816 0.8169 0.65318 0.0
C1144 C 0.09221 0.83041 0.65435 0.0
C1145 C 0.08838 0.8403 0.67229 0.0
C1146 C 0.11665 0.82572 0.68715 0.0
C1147 C 0.12115 0.8155 0.66954 0.0
H1148 H 0.07639 0.85107 0.67274 0.0
H1149 H 0.12702 0.82521 0.69944 0.0
H1150 H 0.0591 0.82284 0.73712 0.0
H1151 H 0.09585 0.77231 0.73211 0.0
H1152 H 0.0854 0.91918 0.70004 0.0
H1153 H 0.08254 0.83299 0.64168 0.0
H1154 H 0.13419 0.80597 0.66911 0.0
C1155 C 0.05066 0.65891 0.54544 0.0
C1156 C 0.0347 0.67068 0.5402 0.0
N1157 N 0.04113 0.68966 0.53819 0.0
N1158 N 0.06713 0.67035 0.54684 0.0
C1159 C 0.0609 0.68902 0.54227 0.0
H1160 H 0.05032 0.64298 0.54812 0.0
Co1161 Co 0.09228 0.66044 0.55324 0.0
C1162 C 0.11355 0.69267 0.57453 0.0
O1163 O 0.12197 0.67911 0.5859 0.0
N1164 N 0.11812 0.64991 0.55904 0.0
C1165 C 0.15111 0.64608 0.55652 0.0
C1166 C 0.13473 0.65585 0.54918 0.0
C1167 C 0.12509 0.63641 0.5725 0.0
N1168 N 0.14509 0.63386 0.57124 0.0
O1169 O 0.10074 0.66522 0.52649 0.0
H1170 H 0.1352 0.66727 0.53781 0.0
H1171 H 0.11598 0.62881 0.58335 0.0
O1172 O 0.10126 0.6873 0.56093 0.0
C1173 C 0.09631 0.65206 0.51353 0.0
O1174 O 0.08478 0.6371 0.51885 0.0
N1175 N 0.08271 0.65487 0.5791 0.0
C1176 C 0.06144 0.64402 0.61338 0.0
C1177 C 0.06582 0.66411 0.60935 0.0
C1178 C 0.07614 0.66925 0.59201 0.0
C1179 C 0.07819 0.63531 0.58251 0.0
C1180 C 0.06796 0.62949 0.59974 0.0
H1181 H 0.07754 0.68489 0.58846 0.0
H1182 H 0.0821 0.62418 0.57147 0.0
H1183 H 0.07072 0.70182 0.54161 0.0
H1184 H 0.01947 0.66565 0.53836 0.0
H1185 H 0.16643 0.64853 0.55198 0.0
H1186 H 0.06028 0.67595 0.61887 0.0
H1187 H 0.06475 0.61381 0.60204 0.0
C1188 C 0.90224 0.29835 0.78222 0.0
C1189 C 0.91275 0.28167 0.77645 0.0
N1190 N 0.93104 0.28741 0.7704 0.0
N1191 N 0.91391 0.31469 0.78037 0.0
C1192 C 0.9309 0.30757 0.77191 0.0
H1193 H 0.88717 0.29823 0.78788 0.0
Co1194 Co 0.90826 0.3412 0.78913 0.0
C1195 C 0.95029 0.33489 0.80366 0.0
O1196 O 0.94698 0.31616 0.80855 0.0
N1197 N 0.90284 0.36753 0.79718 0.0
C1198 C 0.90605 0.40054 0.79922 0.0
C1199 C 0.91352 0.38341 0.79084 0.0
C1200 C 0.88894 0.37546 0.80958 0.0
N1201 N 0.89058 0.39558 0.81105 0.0
O1202 O 0.91386 0.35072 0.76289 0.0
H1203 H 0.92623 0.38259 0.78091 0.0
H1204 H 0.87784 0.36674 0.81742 0.0
O1205 O 0.93619 0.34561 0.79659 0.0
C1206 C 0.89969 0.3488 0.75041 0.0
O1207 O 0.88353 0.33914 0.75593 0.0
N1208 N 0.90102 0.33178 0.81474 0.0
C1209 C 0.88748 0.30939 0.84724 0.0
C1210 C 0.90622 0.31896 0.84772 0.0
C1211 C 0.91235 0.33075 0.83162 0.0
C1212 C 0.88177 0.32533 0.81527 0.0
C1213 C 0.87462 0.31427 0.83139 0.0
H1214 H 0.92645 0.33835 0.83269 0.0
H1215 H 0.87223 0.3278 0.80248 0.0
H1216 H 0.9436 0.31689 0.7684 0.0
H1217 H 0.90749 0.26641 0.77734 0.0
H1218 H 0.91199 0.41545 0.79729 0.0
H1219 H 0.91664 0.31671 0.8598 0.0
H1220 H 0.85943 0.30886 0.83079 0.0
C1221 C 0.55463 0.84145 0.48139 0.0
C1222 C 0.54037 0.82918 0.48976 0.0
N1223 N 0.54363 0.81033 0.48345 0.0
N1224 N 0.56692 0.83043 0.46988 0.0
C1225 C 0.55991 0.81154 0.47159 0.0
H1226 H 0.5554 0.85751 0.48286 0.0
Co1227 Co 0.58641 0.84052 0.45253 0.0
C1228 C 0.60964 0.80479 0.44237 0.0
O1229 O 0.62622 0.81385 0.44761 0.0
N1230 N 0.60587 0.85052 0.4347 0.0
C1231 C 0.62203 0.85607 0.40619 0.0
C1232 C 0.606 0.84681 0.41485 0.0
C1233 C 0.62241 0.86178 0.43776 0.0
N1234 N 0.63234 0.86543 0.42058 0.0
O1235 O 0.60569 0.83918 0.47356 0.0
H1236 H 0.59535 0.8375 0.40709 0.0
H1237 H 0.62732 0.86701 0.4522 0.0
O1238 O 0.59299 0.81386 0.44386 0.0
C1239 C 0.60568 0.85479 0.48444 0.0
O1240 O 0.59361 0.8695 0.47966 0.0
N1241 N 0.56691 0.84312 0.43279 0.0
C1242 C 0.53831 0.85102 0.40361 0.0
C1243 C 0.54256 0.8313 0.40942 0.0
C1244 C 0.55694 0.82764 0.42404 0.0
C1245 C 0.56266 0.86235 0.42777 0.0
C1246 C 0.54865 0.86665 0.41302 0.0
H1247 H 0.55988 0.81241 0.42837 0.0
H1248 H 0.57052 0.87443 0.43508 0.0
H1249 H 0.5658 0.79906 0.46327 0.0
H1250 H 0.5282 0.83396 0.49925 0.0
H1251 H 0.62631 0.85527 0.39063 0.0
H1252 H 0.5346 0.81875 0.40304 0.0
H1253 H 0.54609 0.88209 0.40898 0.0
C1254 C 0.08379 0.18906 0.75244 0.0
C1255 C 0.069 0.20235 0.74726 0.0
N1256 N 0.05499 0.20245 0.76175 0.0
N1257 N 0.07924 0.18063 0.7701 0.0
C1258 C 0.0617 0.18914 0.77545 0.0
H1259 H 0.09724 0.18604 0.74405 0.0
Co1260 Co 0.09545 0.16258 0.78398 0.0
C1261 C 0.06034 0.13654 0.79485 0.0
O1262 O 0.0636 0.12264 0.78141 0.0
N1263 N 0.11212 0.14488 0.79769 0.0
C1264 C 0.1398 0.1336 0.81199 0.0
C1265 C 0.13123 0.14933 0.80202 0.0
C1266 C 0.10942 0.12623 0.80503 0.0
N1267 N 0.12608 0.11898 0.8139 0.0
O1268 O 0.0938 0.14406 0.76221 0.0
H1269 H 0.13845 0.16327 0.79823 0.0
H1270 H 0.09564 0.11803 0.80372 0.0
O1271 O 0.07199 0.1515 0.7963 0.0
C1272 C 0.10916 0.14364 0.75099 0.0
O1273 O 0.12404 0.15576 0.75507 0.0
N1274 N 0.0981 0.18094 0.80491 0.0
C1275 C 0.10657 0.20824 0.83535 0.0
C1276 C 0.09497 0.19115 0.83907 0.0
C1277 C 0.09121 0.17754 0.82378 0.0
C1278 C 0.10921 0.19749 0.80085 0.0
C1279 C 0.11368 0.2113 0.81584 0.0
H1280 H 0.08315 0.16405 0.82738 0.0
H1281 H 0.11507 0.19968 0.78596 0.0
H1282 H 0.05415 0.18575 0.78925 0.0
H1283 H 0.06897 0.21158 0.73403 0.0
H1284 H 0.15488 0.13323 0.81772 0.0
H1285 H 0.08884 0.18816 0.85371 0.0
H1286 H 0.12302 0.22399 0.81222 0.0
C1287 C 0.44826 0.65885 0.47037 0.0
C1288 C 0.46365 0.67079 0.47687 0.0
N1289 N 0.45625 0.68899 0.48104 0.0
N1290 N 0.43114 0.66952 0.46981 0.0
C1291 C 0.43645 0.68752 0.47747 0.0
H1292 H 0.4498 0.64331 0.46652 0.0
Co1293 Co 0.40502 0.66133 0.46192 0.0
C1294 C 0.40857 0.70158 0.44381 0.0
O1295 O 0.42702 0.69744 0.43853 0.0
N1296 N 0.37916 0.65337 0.45508 0.0
C1297 C 0.34603 0.6531 0.45389 0.0
C1298 C 0.36248 0.6627 0.46142 0.0
C1299 C 0.37247 0.63813 0.44359 0.0
N1300 N 0.35231 0.63768 0.44263 0.0
O1301 O 0.39593 0.66699 0.48841 0.0
H1302 H 0.36227 0.67587 0.47078 0.0
H1303 H 0.38213 0.62762 0.43601 0.0
O1304 O 0.39826 0.68864 0.45338 0.0
C1305 C 0.39955 0.65359 0.50138 0.0
O1306 O 0.41028 0.63804 0.49606 0.0
N1307 N 0.41383 0.65444 0.43583 0.0
C1308 C 0.43103 0.64452 0.39926 0.0
C1309 C 0.4164 0.65942 0.40042 0.0
C1310 C 0.40745 0.66367 0.41877 0.0
C1311 C 0.4257 0.63799 0.43436 0.0
C1312 C 0.43488 0.63301 0.41631 0.0
H1313 H 0.39563 0.67459 0.41918 0.0
H1314 H 0.42823 0.62875 0.4473 0.0
H1315 H 0.42601 0.69958 0.48 0.0
H1316 H 0.47921 0.66655 0.47775 0.0
H1317 H 0.33063 0.65754 0.45598 0.0
H1318 H 0.41211 0.66788 0.38734 0.0
H1319 H 0.44548 0.6208 0.41595 0.0
C1320 C 0.727 0.91298 0.69123 0.0
C1321 C 0.73104 0.92771 0.70496 0.0
N1322 N 0.71793 0.94275 0.70232 0.0
N1323 N 0.71142 0.9186 0.67987 0.0
C1324 C 0.70632 0.93693 0.68683 0.0
H1325 H 0.73447 0.89871 0.69002 0.0
Co1326 Co 0.69923 0.90122 0.66184 0.0
C1327 C 0.66913 0.92508 0.6402 0.0
O1328 O 0.65689 0.90973 0.64059 0.0
N1329 N 0.6875 0.88286 0.64358 0.0
C1330 C 0.67365 0.85603 0.62963 0.0
C1331 C 0.67995 0.86448 0.64716 0.0
C1332 C 0.6863 0.88475 0.62347 0.0
N1333 N 0.67752 0.86883 0.61464 0.0
O1334 O 0.72138 0.90401 0.64414 0.0
H1335 H 0.6791 0.85722 0.66144 0.0
H1336 H 0.69162 0.89776 0.6155 0.0
O1337 O 0.68627 0.92373 0.64849 0.0
C1338 C 0.7325 0.88876 0.64201 0.0
O1339 O 0.72846 0.87254 0.65228 0.0
N1340 N 0.67813 0.89798 0.68022 0.0
C1341 C 0.64963 0.89023 0.70975 0.0
C1342 C 0.64956 0.90833 0.6992 0.0
C1343 C 0.66399 0.912 0.6847 0.0
C1344 C 0.6795 0.88112 0.69149 0.0
C1345 C 0.66504 0.87656 0.70578 0.0
H1346 H 0.66405 0.92651 0.67784 0.0
H1347 H 0.69193 0.87105 0.68929 0.0
H1348 H 0.69376 0.94542 0.68132 0.0
H1349 H 0.74258 0.92719 0.71624 0.0
H1350 H 0.66629 0.84172 0.6282 0.0
H1351 H 0.6389 0.92001 0.70255 0.0
H1352 H 0.66615 0.86252 0.71369 0.0
C1353 C 0.72673 0.09774 0.79571 0.0
C1354 C 0.73074 0.08262 0.78245 0.0
N1355 N 0.71788 0.06752 0.78585 0.0
N1356 N 0.71145 0.09235 0.80758 0.0
C1357 C 0.70648 0.0737 0.8014 0.0
H1358 H 0.73398 0.11217 0.79613 0.0
Co1359 Co 0.69971 0.11081 0.8249 0.0
C1360 C 0.66817 0.08926 0.84699 0.0
O1361 O 0.6566 0.10496 0.84473 0.0
N1362 N 0.68868 0.1303 0.84239 0.0
C1363 C 0.67501 0.15771 0.85541 0.0
C1364 C 0.68233 0.14902 0.83834 0.0
C1365 C 0.68614 0.12857 0.86239 0.0
N1366 N 0.67714 0.14471 0.87056 0.0
O1367 O 0.72172 0.1082 0.84277 0.0
H1368 H 0.68276 0.15623 0.82401 0.0
H1369 H 0.69028 0.11536 0.87068 0.0
O1370 O 0.68575 0.08928 0.8394 0.0
C1371 C 0.73471 0.12206 0.84213 0.0
O1372 O 0.73231 0.13663 0.82921 0.0
N1373 N 0.67862 0.11387 0.80635 0.0
C1374 C 0.64785 0.12171 0.77948 0.0
C1375 C 0.64883 0.1034 0.78952 0.0
C1376 C 0.66456 0.09959 0.80248 0.0
C1377 C 0.67928 0.13063 0.7948 0.0
C1378 C 0.66376 0.13514 0.78159 0.0
H1379 H 0.66524 0.08503 0.80923 0.0
H1380 H 0.69182 0.14071 0.79604 0.0
H1381 H 0.69411 0.06524 0.80741 0.0
H1382 H 0.74201 0.08293 0.77088 0.0
H1383 H 0.66792 0.1722 0.85633 0.0
H1384 H 0.6376 0.09198 0.78725 0.0
H1385 H 0.66408 0.14908 0.77342 0.0
C1386 C 0.36383 0.03407 0.46446 0.0
C1387 C 0.35169 0.02808 0.4799 0.0
N1388 N 0.33355 0.02385 0.47243 0.0
N1389 N 0.3533 0.03436 0.44727 0.0
C1390 C 0.33525 0.02689 0.45257 0.0
H1391 H 0.37932 0.03804 0.46605 0.0
Co1392 Co 0.36134 0.04322 0.4215 0.0
C1393 C 0.32031 0.06064 0.42486 0.0
O1394 O 0.32318 0.06588 0.44356 0.0
N1395 N 0.36905 0.05116 0.39594 0.0
C1396 C 0.3685 0.05366 0.36292 0.0
C1397 C 0.35898 0.04597 0.37928 0.0
C1398 C 0.38463 0.06218 0.3893 0.0
N1399 N 0.38462 0.06386 0.36918 0.0
O1400 O 0.35514 0.01748 0.4111 0.0
H1401 H 0.3454 0.03725 0.37905 0.0
H1402 H 0.39574 0.06883 0.39896 0.0
O1403 O 0.33418 0.05184 0.41516 0.0
C1404 C 0.36859 0.00411 0.41039 0.0
O1405 O 0.38583 0.00755 0.41907 0.0
N1406 N 0.36842 0.06882 0.43148 0.0
C1407 C 0.37801 0.10418 0.45149 0.0
C1408 C 0.36261 0.10372 0.43728 0.0
C1409 C 0.35858 0.08609 0.4269 0.0
C1410 C 0.38532 0.06978 0.44273 0.0
C1411 C 0.39022 0.08719 0.45318 0.0
H1412 H 0.3472 0.08638 0.41554 0.0
H1413 H 0.39485 0.05683 0.44394 0.0
H1414 H 0.3231 0.02477 0.44217 0.0
H1415 H 0.35582 0.02729 0.49549 0.0
H1416 H 0.36359 0.05236 0.34758 0.0
H1417 H 0.35311 0.11651 0.43464 0.0
H1418 H 0.4032 0.08713 0.46278 0.0
C1419 C 0.28442 0.39755 0.80957 0.0
C1420 C 0.27788 0.4088 0.79363 0.0
N1421 N 0.28045 0.42828 0.79808 0.0
N1422 N 0.2911 0.40983 0.82402 0.0
C1423 C 0.28821 0.42843 0.81669 0.0
H1424 H 0.28538 0.38143 0.81009 0.0
Co1425 Co 0.30573 0.40185 0.84643 0.0
C1426 C 0.311 0.43945 0.86853 0.0
O1427 O 0.30383 0.43121 0.88482 0.0
N1428 N 0.32081 0.39397 0.86877 0.0
C1429 C 0.34698 0.39119 0.88897 0.0
C1430 C 0.33969 0.40024 0.87219 0.0
C1431 C 0.31681 0.38132 0.88403 0.0
N1432 N 0.33263 0.37932 0.89637 0.0
O1433 O 0.28193 0.40314 0.86231 0.0
H1434 H 0.34775 0.41079 0.863 0.0
H1435 H 0.30277 0.37359 0.88601 0.0
O1436 O 0.31214 0.4293 0.85248 0.0
C1437 C 0.27111 0.38752 0.86114 0.0
O1438 O 0.27749 0.37253 0.85019 0.0
N1439 N 0.32842 0.39939 0.83029 0.0
C1440 C 0.36145 0.39226 0.80581 0.0
C1441 C 0.35296 0.41144 0.80721 0.0
C1442 C 0.33655 0.41472 0.81963 0.0
C1443 C 0.33616 0.38063 0.82896 0.0
C1444 C 0.35292 0.37683 0.8172 0.0
H1445 H 0.33015 0.4295 0.82028 0.0
H1446 H 0.32937 0.36857 0.83729 0.0
H1447 H 0.29313 0.44184 0.82416 0.0
H1448 H 0.27241 0.403 0.77959 0.0
H1449 H 0.36158 0.39342 0.89552 0.0
H1450 H 0.35848 0.42378 0.79836 0.0
H1451 H 0.35897 0.36185 0.81702 0.0
C1452 C 0.16674 0.99412 0.94736 0.0
C1453 C 0.18096 1.00056 0.96079 0.0
N1454 N 0.19844 0.99159 0.9564 0.0
N1455 N 0.17516 0.98117 0.93446 0.0
C1456 C 0.19451 0.98018 0.94022 0.0
H1457 H 0.15099 0.99758 0.94788 0.0
Co1458 Co 0.16129 0.96386 0.91729 0.0
C1459 C 0.19222 0.95139 0.8891 0.0
O1460 O 0.18092 0.957 0.87411 0.0
N1461 N 0.14759 0.94575 0.90026 0.0
C1462 C 0.13865 0.91655 0.88703 0.0
C1463 C 0.14987 0.92568 0.90138 0.0
C1464 C 0.13518 0.94836 0.88446 0.0
N1465 N 0.12943 0.93074 0.87634 0.0
O1466 O 0.16065 0.98428 0.89714 0.0
H1467 H 0.15974 0.91794 0.91148 0.0
H1468 H 0.13086 0.96278 0.87862 0.0
O1469 O 0.18611 0.95362 0.90698 0.0
C1470 C 0.14571 0.99599 0.89848 0.0
O1471 O 0.13246 0.99261 0.91254 0.0
N1472 N 0.16073 0.94497 0.93779 0.0
C1473 C 0.15531 0.91712 0.96824 0.0
C1474 C 0.17439 0.92083 0.96033 0.0
C1475 C 0.17679 0.93478 0.94506 0.0
C1476 C 0.14221 0.94205 0.94562 0.0
C1477 C 0.1391 0.928 0.96063 0.0
H1478 H 0.19155 0.93727 0.93913 0.0
H1479 H 0.1297 0.95043 0.93979 0.0
H1480 H 0.20521 0.96999 0.93377 0.0
H1481 H 0.17833 0.0104 0.97333 0.0
H1482 H 0.13829 0.90069 0.88387 0.0
H1483 H 0.18746 0.91324 0.96604 0.0
H1484 H 0.12406 0.92558 0.96604 0.0
C1485 C 0.77334 0.08951 0.19588 0.0
C1486 C 0.76649 0.07707 0.21071 0.0
N1487 N 0.77041 0.05798 0.2055 0.0
N1488 N 0.78151 0.07846 0.18122 0.0
C1489 C 0.77935 0.05933 0.1874 0.0
H1490 H 0.77357 0.10565 0.19638 0.0
Co1491 Co 0.79693 0.08905 0.16045 0.0
C1492 C 0.8069 0.05383 0.13647 0.0
O1493 O 0.80016 0.06278 0.12039 0.0
N1494 N 0.81297 0.09967 0.13978 0.0
C1495 C 0.84032 0.10615 0.12206 0.0
C1496 C 0.83287 0.09651 0.13843 0.0
C1497 C 0.80861 0.11098 0.12356 0.0
N1498 N 0.82513 0.11524 0.11271 0.0
O1499 O 0.77468 0.08667 0.14264 0.0
H1500 H 0.84151 0.08734 0.14848 0.0
H1501 H 0.79373 0.11585 0.11965 0.0
O1502 O 0.80614 0.0627 0.15329 0.0
C1503 C 0.7617 0.10042 0.14465 0.0
O1504 O 0.76498 0.1146 0.15781 0.0
N1505 N 0.81788 0.09251 0.17853 0.0
C1506 C 0.84936 0.10118 0.20422 0.0
C1507 C 0.84397 0.08131 0.2002 0.0
C1508 C 0.82804 0.07727 0.18743 0.0
C1509 C 0.82235 0.1119 0.18284 0.0
C1510 C 0.83813 0.11659 0.1956 0.0
H1511 H 0.82398 0.06191 0.18471 0.0
H1512 H 0.81382 0.12377 0.17597 0.0
H1513 H 0.7851 0.04669 0.1792 0.0
H1514 H 0.7603 0.08195 0.22479 0.0
H1515 H 0.85564 0.10585 0.11692 0.0
H1516 H 0.85188 0.06897 0.20702 0.0
H1517 H 0.84173 0.13212 0.19837 0.0
C1518 C 0.35611 0.99156 0.04746 0.0
C1519 C 0.34142 0.99762 0.03452 0.0
N1520 N 0.32502 0.98636 0.03767 0.0
N1521 N 0.34916 0.9766 0.05892 0.0
C1522 C 0.33009 0.97382 0.05273 0.0
H1523 H 0.37113 0.99739 0.04814 0.0
Co1524 Co 0.3657 0.96313 0.0769 0.0
C1525 C 0.34019 0.93601 0.10052 0.0
O1526 O 0.35429 0.92241 0.09957 0.0
N1527 N 0.3832 0.95026 0.09522 0.0
C1528 C 0.40679 0.93198 0.10984 0.0
C1529 C 0.39992 0.93944 0.09201 0.0
C1530 C 0.38106 0.95006 0.11534 0.0
N1531 N 0.3947 0.93839 0.12457 0.0
O1532 O 0.36593 0.98613 0.09398 0.0
H1533 H 0.40668 0.93653 0.07773 0.0
H1534 H 0.36893 0.95755 0.12295 0.0
O1535 O 0.34227 0.95275 0.09148 0.0
C1536 C 0.38126 0.99737 0.09319 0.0
O1537 O 0.39549 0.99297 0.08041 0.0
N1538 N 0.36611 0.94098 0.05913 0.0
C1539 C 0.36983 0.90921 0.03218 0.0
C1540 C 0.35201 0.91238 0.04268 0.0
C1541 C 0.35032 0.92849 0.05574 0.0
C1542 C 0.38278 0.93935 0.04755 0.0
C1543 C 0.38518 0.92332 0.03432 0.0
H1544 H 0.33607 0.93089 0.06276 0.0
H1545 H 0.39448 0.95041 0.04885 0.0
H1546 H 0.32036 0.96237 0.0586 0.0
H1547 H 0.34286 0.00934 0.02352 0.0
H1548 H 0.41911 0.92168 0.11155 0.0
H1549 H 0.33925 0.90266 0.0406 0.0
H1550 H 0.39903 0.92188 0.02611 0.0
C1551 C 0.64224 0.51822 0.05129 0.0
C1552 C 0.65721 0.51411 0.03783 0.0
N1553 N 0.67056 0.52915 0.03844 0.0
N1554 N 0.6461 0.53577 0.06036 0.0
C1555 C 0.66346 0.5421 0.05219 0.0
H1556 H 0.62916 0.50917 0.05403 0.0
Co1557 Co 0.6291 0.54835 0.07848 0.0
C1558 C 0.66678 0.55841 0.09977 0.0
O1559 O 0.66936 0.54013 0.10638 0.0
N1560 N 0.61182 0.56056 0.09634 0.0
C1561 C 0.58356 0.57114 0.10996 0.0
C1562 C 0.59186 0.56099 0.09415 0.0
C1563 C 0.61537 0.57041 0.11357 0.0
N1564 N 0.59838 0.57713 0.12219 0.0
O1565 O 0.63299 0.52717 0.09707 0.0
H1566 H 0.5839 0.5543 0.08181 0.0
H1567 H 0.63017 0.57285 0.11949 0.0
O1568 O 0.65156 0.56278 0.08926 0.0
C1569 C 0.61999 0.51342 0.09858 0.0
O1570 O 0.60425 0.5139 0.0869 0.0
N1571 N 0.62458 0.56897 0.06018 0.0
C1572 C 0.61886 0.59862 0.03155 0.0
C1573 C 0.62576 0.60347 0.0507 0.0
C1574 C 0.62835 0.58846 0.06485 0.0
C1575 C 0.61688 0.56403 0.04202 0.0
C1576 C 0.61405 0.57862 0.02739 0.0
H1577 H 0.63354 0.59258 0.07953 0.0
H1578 H 0.61323 0.54864 0.03876 0.0
H1579 H 0.67045 0.55623 0.05576 0.0
H1580 H 0.65825 0.50103 0.02838 0.0
H1581 H 0.56778 0.57367 0.1123 0.0
H1582 H 0.62972 0.61866 0.05461 0.0
H1583 H 0.60828 0.57426 0.01295 0.0
H1584 H 0.09641 0.35432 0.35795 0.0
H1585 H 0.0518 0.30821 0.36414 0.0
H1586 H 0.12213 0.33079 0.36859 0.0
H1587 H 0.07748 0.28453 0.37406 0.0
H1588 H 0.12619 0.24714 0.40032 0.0
H1589 H 0.10217 0.27451 0.39854 0.0
H1590 H 0.13729 0.30223 0.35209 0.0
H1591 H 0.16142 0.27521 0.35414 0.0
C1592 C 0.09203 0.33929 0.36196 0.0
C1593 C 0.07211 0.33304 0.35999 0.0
C1594 C 0.10679 0.32574 0.36785 0.0
C1595 C 0.1019 0.30572 0.37195 0.0
C1596 C 0.08178 0.29985 0.37115 0.0
C1597 C 0.06708 0.31336 0.36524 0.0
C1598 C 0.12891 0.25923 0.38993 0.0
C1599 C 0.14561 0.2589 0.37723 0.0
C1600 C 0.11511 0.27487 0.38887 0.0
C1601 C 0.11775 0.29051 0.37511 0.0
C1602 C 0.13491 0.29057 0.36303 0.0
C1603 C 0.14867 0.27496 0.36408 0.0
H1604 H 0.5085 0.63382 0.83036 0.0
H1605 H 0.53826 0.59088 0.86811 0.0
H1606 H 0.53714 0.65625 0.83336 0.0
H1607 H 0.56692 0.61299 0.87075 0.0
H1608 H 0.60368 0.6658 0.8915 0.0
H1609 H 0.57502 0.64405 0.88689 0.0
H1610 H 0.57205 0.66098 0.82479 0.0
H1611 H 0.60025 0.68347 0.82961 0.0
C1612 C 0.52127 0.62903 0.83902 0.0
C1613 C 0.52104 0.6106 0.84909 0.0
C1614 C 0.5377 0.64187 0.84073 0.0
C1615 C 0.55426 0.63655 0.85251 0.0
C1616 C 0.55426 0.6178 0.86194 0.0
C1617 C 0.53786 0.60502 0.86028 0.0
C1618 C 0.59679 0.66516 0.87692 0.0
C1619 C 0.60439 0.67644 0.86093 0.0
C1620 C 0.58048 0.65243 0.8742 0.0
C1621 C 0.57131 0.65058 0.8554 0.0
C1622 C 0.57866 0.66209 0.83948 0.0
C1623 C 0.595 0.67485 0.84221 0.0
H1624 H 0.84475 0.23048 0.35436 0.0
H1625 H 0.86853 0.24226 0.41309 0.0
H1626 H 0.86697 0.202 0.35088 0.0
H1627 H 0.89055 0.21333 0.40979 0.0
H1628 H 0.89692 0.14082 0.35876 0.0
H1629 H 0.87354 0.16862 0.36272 0.0
H1630 H 0.91973 0.20338 0.3913 0.0
H1631 H 0.94285 0.17572 0.38745 0.0
C1632 C 0.85463 0.22691 0.36663 0.0
C1633 C 0.8549 0.23874 0.384 0.0
C1634 C 0.8673 0.21044 0.36467 0.0
C1635 C 0.8806 0.20532 0.38002 0.0
C1636 C 0.8807 0.217 0.39753 0.0
C1637 C 0.868 0.23353 0.39949 0.0
C1638 C 0.90207 0.15445 0.36574 0.0
C1639 C 0.92171 0.15594 0.37294 0.0
C1640 C 0.88869 0.1704 0.36805 0.0
C1641 C 0.89468 0.18822 0.37754 0.0
C1642 C 0.91442 0.18976 0.38439 0.0
C1643 C 0.92772 0.17386 0.38212 0.0
H1644 H 0.38052 0.85315 0.88033 0.0
H1645 H 0.41748 0.80619 0.85618 0.0
H1646 H 0.40815 0.87666 0.87689 0.0
H1647 H 0.44518 0.82946 0.85305 0.0
H1648 H 0.48673 0.87981 0.83446 0.0
H1649 H 0.45762 0.8578 0.8353 0.0
H1650 H 0.43962 0.88391 0.89149 0.0
H1651 H 0.46815 0.90618 0.89031 0.0
C1652 C 0.39458 0.84783 0.87441 0.0
C1653 C 0.39677 0.82781 0.86851 0.0
C1654 C 0.41045 0.86128 0.87243 0.0
C1655 C 0.42897 0.85499 0.86468 0.0
C1656 C 0.43107 0.83497 0.85871 0.0
C1657 C 0.41518 0.82158 0.86056 0.0
C1658 C 0.47646 0.8809 0.8469 0.0
C1659 C 0.47978 0.89475 0.8623 0.0
C1660 C 0.45983 0.86821 0.84746 0.0
C1661 C 0.44622 0.86903 0.86348 0.0
C1662 C 0.44953 0.88304 0.87875 0.0
C1663 C 0.46603 0.89576 0.87813 0.0
H1664 H 0.12935 0.75869 0.09776 0.0
H1665 H 0.16509 0.72897 0.14241 0.0
H1666 H 0.10421 0.73236 0.10051 0.0
H1667 H 0.13992 0.7031 0.14551 0.0
H1668 H 0.05369 0.69906 0.13488 0.0
H1669 H 0.07974 0.72239 0.12508 0.0
H1670 H 0.12359 0.67532 0.12983 0.0
H1671 H 0.09768 0.65224 0.14057 0.0
C1672 C 0.13194 0.74646 0.10801 0.0
C1673 C 0.14916 0.74599 0.11996 0.0
C1674 C 0.11748 0.73144 0.10968 0.0
C1675 C 0.11998 0.71563 0.12329 0.0
C1676 C 0.13758 0.71486 0.13467 0.0
C1677 C 0.15198 0.72982 0.13301 0.0
C1678 C 0.06887 0.69366 0.13378 0.0
C1679 C 0.07357 0.67381 0.13881 0.0
C1680 C 0.0838 0.70699 0.1279 0.0
C1681 C 0.10381 0.7008 0.12683 0.0
C1682 C 0.10836 0.68068 0.13081 0.0
C1683 C 0.09343 0.66735 0.13676 0.0
H1684 H 0.883 0.6724 0.17322 0.0
H1685 H 0.8938 0.67182 0.10962 0.0
H1686 H 0.91445 0.65532 0.17871 0.0
H1687 H 0.9258 0.65577 0.11526 0.0
H1688 H 0.97096 0.60765 0.12882 0.0
H1689 H 0.93908 0.62433 0.12456 0.0
H1690 H 0.94988 0.6588 0.17803 0.0
H1691 H 0.98169 0.64151 0.18261 0.0
C1692 C 0.89202 0.66871 0.16036 0.0
C1693 C 0.88556 0.67342 0.14091 0.0
C1694 C 0.91028 0.6591 0.16357 0.0
C1695 C 0.92271 0.65401 0.14745 0.0
C1696 C 0.91649 0.6591 0.12805 0.0
C1697 C 0.89816 0.6686 0.12481 0.0
C1698 C 0.9665 0.61868 0.13978 0.0
C1699 C 0.97891 0.62326 0.15605 0.0
C1700 C 0.94825 0.62842 0.13722 0.0
C1701 C 0.94192 0.64316 0.15077 0.0
C1702 C 0.95415 0.64743 0.16735 0.0
C1703 C 0.97242 0.63754 0.16999 0.0
H1704 H 0.94644 0.82296 0.11636 0.0
H1705 H 0.90086 0.85929 0.14392 0.0
H1706 H 0.92278 0.7957 0.11278 0.0
H1707 H 0.877 0.83194 0.14022 0.0
H1708 H 0.84659 0.77132 0.14975 0.0
H1709 H 0.86975 0.79908 0.15288 0.0
H1710 H 0.89351 0.78581 0.0944 0.0
H1711 H 0.87054 0.7576 0.09147 0.0
C1712 C 0.93129 0.82523 0.12147 0.0
C1713 C 0.92554 0.84341 0.13032 0.0
C1714 C 0.91768 0.80956 0.11938 0.0
C1715 C 0.89791 0.81161 0.12606 0.0
C1716 C 0.89217 0.82974 0.13508 0.0
C1717 C 0.90584 0.84544 0.13722 0.0
C1718 C 0.85672 0.7743 0.13751 0.0
C1719 C 0.85673 0.76218 0.12036 0.0
C1720 C 0.86993 0.79035 0.13927 0.0
C1721 C 0.8835 0.79476 0.1239 0.0
C1722 C 0.88343 0.7827 0.10666 0.0
C1723 C 0.87021 0.76658 0.10491 0.0
H1724 H 0.03445 0.89963 0.12297 0.0
H1725 H 0.01591 0.87328 0.17884 0.0
H1726 H 0.06405 0.87859 0.12278 0.0
H1727 H 0.04587 0.85219 0.17865 0.0
H1728 H 0.11527 0.8384 0.17848 0.0
H1729 H 0.08401 0.85673 0.18052 0.0
H1730 H 0.07101 0.8415 0.11937 0.0
H1731 H 0.10188 0.82269 0.11727 0.0
C1732 C 0.03673 0.88942 0.13529 0.0
C1733 C 0.0228 0.88814 0.15093 0.0
C1734 C 0.05363 0.87725 0.13508 0.0
C1735 C 0.05717 0.86363 0.1506 0.0
C1736 C 0.04351 0.86259 0.1665 0.0
C1737 C 0.02638 0.87463 0.16659 0.0
C1738 C 0.10569 0.83852 0.16552 0.0
C1739 C 0.1115 0.8291 0.1476 0.0
C1740 C 0.08772 0.84912 0.16674 0.0
C1741 C 0.07521 0.85074 0.15004 0.0
C1742 C 0.08056 0.84079 0.13239 0.0
C1743 C 0.09838 0.83001 0.1312 0.0
H1744 H 0.44611 0.11584 0.26781 0.0
H1745 H 0.40885 0.16072 0.2954 0.0
H1746 H 0.44219 0.09462 0.29721 0.0
H1747 H 0.40462 0.13945 0.32445 0.0
H1748 H 0.40131 0.09983 0.3774 0.0
H1749 H 0.41798 0.1219 0.35341 0.0
H1750 H 0.41316 0.076 0.30829 0.0
H1751 H 0.39704 0.05408 0.3323 0.0
C1752 C 0.43745 0.12137 0.2803 0.0
C1753 C 0.42753 0.13983 0.27914 0.0
C1754 C 0.43511 0.10916 0.2971 0.0
C1755 C 0.42288 0.11521 0.31309 0.0
C1756 C 0.41426 0.13435 0.31252 0.0
C1757 C 0.41656 0.14649 0.29574 0.0
C1758 C 0.4044 0.09434 0.36252 0.0
C1759 C 0.39767 0.07538 0.35659 0.0
C1760 C 0.41378 0.10699 0.34873 0.0
C1761 C 0.41674 0.1008 0.32885 0.0
C1762 C 0.41131 0.08125 0.32347 0.0
C1763 C 0.40186 0.06873 0.33716 0.0
H1764 H 0.37892 0.31818 0.00112 0.0
H1765 H 0.37121 0.38142 0.01109 0.0
H1766 H 0.35913 0.32072 0.97036 0.0
H1767 H 0.3513 0.38388 0.9808 0.0
H1768 H 0.31007 0.38369 0.92931 0.0
H1769 H 0.31927 0.37227 0.96294 0.0
H1770 H 0.36898 0.33962 0.93802 0.0
H1771 H 0.35987 0.35138 0.9047 0.0
C1772 C 0.3726 0.33248 0.99699 0.0
C1773 C 0.37677 0.34965 0.0083 0.0
C1774 C 0.36132 0.33393 0.97943 0.0
C1775 C 0.35363 0.35248 0.97324 0.0
C1776 C 0.35679 0.36935 0.98531 0.0
C1777 C 0.36837 0.36798 0.00254 0.0
C1778 C 0.32242 0.37341 0.93108 0.0
C1779 C 0.33428 0.3683 0.91461 0.0
C1780 C 0.32779 0.36701 0.95024 0.0
C1781 C 0.3449 0.35514 0.95308 0.0
C1782 C 0.35561 0.34857 0.93629 0.0
C1783 C 0.35046 0.35528 0.91726 0.0
H1784 H 0.64976 0.36344 0.27922 0.0
H1785 H 0.5961 0.3902 0.25557 0.0
H1786 H 0.64769 0.38492 0.30834 0.0
H1787 H 0.59433 0.41227 0.28458 0.0
H1788 H 0.58568 0.43003 0.35096 0.0
H1789 H 0.58739 0.41172 0.31962 0.0
H1790 H 0.65153 0.41843 0.31926 0.0
H1791 H 0.64993 0.43566 0.35106 0.0
C1792 C 0.63758 0.37405 0.28015 0.0
C1793 C 0.62307 0.37506 0.26507 0.0
C1794 C 0.63648 0.38653 0.29682 0.0
C1795 C 0.62092 0.40049 0.29882 0.0
C1796 C 0.60642 0.40157 0.28366 0.0
C1797 C 0.60746 0.38896 0.26699 0.0
C1798 C 0.60015 0.42764 0.3442 0.0
C1799 C 0.61765 0.43419 0.35378 0.0
C1800 C 0.60112 0.4173 0.32607 0.0
C1801 C 0.61963 0.41333 0.31698 0.0
C1802 C 0.63704 0.42082 0.32602 0.0
C1803 C 0.63608 0.43104 0.34419 0.0
H1804 H 0.66677 0.11457 0.89571 0.0
H1805 H 0.66758 0.17889 0.89033 0.0
H1806 H 0.64938 0.11746 0.92734 0.0
H1807 H 0.64916 0.18174 0.92152 0.0
H1808 H 0.63072 0.17911 0.98789 0.0
H1809 H 0.65021 0.17765 0.95709 0.0
H1810 H 0.61669 0.12572 0.93849 0.0
H1811 H 0.59774 0.12686 0.9694 0.0
C1812 C 0.66347 0.12936 0.90131 0.0
C1813 C 0.66857 0.1465 0.8903 0.0
C1814 C 0.65315 0.13102 0.91937 0.0
C1815 C 0.64752 0.14983 0.92688 0.0
C1816 C 0.65326 0.167 0.91625 0.0
C1817 C 0.66368 0.16535 0.89822 0.0
C1818 C 0.6274 0.16753 0.9771 0.0
C1819 C 0.61274 0.15305 0.98112 0.0
C1820 C 0.63858 0.16667 0.95944 0.0
C1821 C 0.63524 0.15139 0.94538 0.0
C1822 C 0.62006 0.13738 0.94917 0.0
C1823 C 0.60903 0.13815 0.96683 0.0
H1824 H 0.42511 0.92164 0.14565 0.0
H1825 H 0.36281 0.9378 0.14982 0.0
H1826 H 0.42261 0.90414 0.17741 0.0
H1827 H 0.36055 0.92097 0.18178 0.0
H1828 H 0.35664 0.865 0.22081 0.0
H1829 H 0.36023 0.88636 0.19178 0.0
H1830 H 0.41752 0.9065 0.21343 0.0
H1831 H 0.41406 0.88469 0.24254 0.0
C1832 C 0.41094 0.92169 0.15338 0.0
C1833 C 0.39409 0.93089 0.14483 0.0
C1834 C 0.40956 0.9118 0.17174 0.0
C1835 C 0.3913 0.91087 0.18204 0.0
C1836 C 0.37476 0.92103 0.17406 0.0
C1837 C 0.37613 0.93092 0.15574 0.0
C1838 C 0.37001 0.874 0.21947 0.0
C1839 C 0.38509 0.87307 0.23402 0.0
C1840 C 0.37199 0.88642 0.20286 0.0
C1841 C 0.38911 0.8983 0.20028 0.0
C1842 C 0.4042 0.89746 0.21487 0.0
C1843 C 0.40219 0.88501 0.23159 0.0
H1844 H 0.18591 0.37728 0.05816 0.0
H1845 H 0.1406 0.38139 0.10378 0.0
H1846 H 0.16211 0.36146 0.03582 0.0
H1847 H 0.11677 0.36494 0.08158 0.0
H1848 H 0.07822 0.37163 0.02298 0.0
H1849 H 0.09997 0.3769 0.05151 0.0
H1850 H 0.14104 0.33282 0.0284 0.0
H1851 H 0.11947 0.32783 0.99957 0.0
C1852 C 0.17093 0.37447 0.06351 0.0
C1853 C 0.16505 0.38083 0.08258 0.0
C1854 C 0.15733 0.36516 0.05081 0.0
C1855 C 0.1375 0.362 0.0569 0.0
C1856 C 0.1319 0.36733 0.07642 0.0
C1857 C 0.14558 0.3766 0.08917 0.0
C1858 C 0.09165 0.3627 0.02419 0.0
C1859 C 0.09732 0.34963 0.00879 0.0
C1860 C 0.10408 0.36564 0.04064 0.0
C1861 C 0.1224 0.35551 0.04205 0.0
C1862 C 0.1272 0.34113 0.02753 0.0
C1863 C 0.11478 0.33821 0.01106 0.0
H1864 H 0.55948 0.63213 0.23322 0.0
H1865 H 0.61962 0.65354 0.22383 0.0
H1866 H 0.56113 0.61397 0.20155 0.0
H1867 H 0.62117 0.63551 0.19234 0.0
H1868 H 0.6254 0.58001 0.15236 0.0
H1869 H 0.62242 0.59959 0.18276 0.0
H1870 H 0.56396 0.61952 0.16452 0.0
H1871 H 0.567 0.60026 0.13383 0.0
C1872 C 0.57294 0.63316 0.22431 0.0
C1873 C 0.58944 0.64421 0.2311 0.0
C1874 C 0.57387 0.62279 0.20618 0.0
C1875 C 0.59136 0.62316 0.19457 0.0
C1876 C 0.60761 0.63467 0.20111 0.0
C1877 C 0.60664 0.64512 0.21912 0.0
C1878 C 0.61198 0.5887 0.15461 0.0
C1879 C 0.59649 0.58851 0.14045 0.0
C1880 C 0.61027 0.59992 0.17211 0.0
C1881 C 0.59298 0.61116 0.17599 0.0
C1882 C 0.57739 0.61085 0.16202 0.0
C1883 C 0.57915 0.59974 0.14442 0.0
H1884 H 0.87259 0.1721 0.00574 0.0
H1885 H 0.86737 0.10822 0.99855 0.0
H1886 H 0.8523 0.17019 0.03624 0.0
H1887 H 0.84711 0.10635 0.02861 0.0
H1888 H 0.80464 0.10684 0.07909 0.0
H1889 H 0.81471 0.1165 0.04517 0.0
H1890 H 0.86067 0.15444 0.06976 0.0
H1891 H 0.85063 0.14457 0.1034 0.0
C1892 C 0.8668 0.15775 0.01045 0.0
C1893 C 0.87176 0.14028 0.99992 0.0
C1894 C 0.85522 0.15665 0.02788 0.0
C1895 C 0.84805 0.13812 0.0348 0.0
C1896 C 0.85215 0.12088 0.02358 0.0
C1897 C 0.86396 0.12193 0.00645 0.0
C1898 C 0.81632 0.11785 0.07714 0.0
C1899 C 0.82689 0.12501 0.09372 0.0
C1900 C 0.82223 0.12324 0.05779 0.0
C1901 C 0.83861 0.1361 0.0548 0.0
C1902 C 0.84791 0.14465 0.07153 0.0
C1903 C 0.84221 0.13901 0.09077 0.0
H1904 H 0.33703 0.36794 0.06325 0.0
H1905 H 0.35816 0.3832 0.12209 0.0
H1906 H 0.30477 0.38343 0.07092 0.0
H1907 H 0.32603 0.39866 0.12978 0.0
H1908 H 0.26662 0.43187 0.13484 0.0
H1909 H 0.30003 0.42595 0.12065 0.0
H1910 H 0.27952 0.36994 0.09612 0.0
H1911 H 0.24666 0.37564 0.11042 0.0
C1912 C 0.33494 0.37509 0.0776 0.0
C1913 C 0.34994 0.37415 0.09219 0.0
C1914 C 0.3165 0.38387 0.08202 0.0
C1915 C 0.31288 0.39214 0.10099 0.0
C1916 C 0.32843 0.39254 0.115 0.0
C1917 C 0.34673 0.38352 0.11068 0.0
C1918 C 0.26928 0.4185 0.12613 0.0
C1919 C 0.25422 0.4041 0.1239 0.0
C1920 C 0.28833 0.41509 0.11807 0.0
C1921 C 0.29232 0.39751 0.10723 0.0
C1922 C 0.27685 0.38372 0.10416 0.0
C1923 C 0.25809 0.3869 0.11254 0.0
H1924 H 0.31602 0.62359 0.45267 0.0
H1925 H 0.35992 0.62325 0.4056 0.0
H1926 H 0.2922 0.60693 0.43079 0.0
H1927 H 0.33607 0.60635 0.38355 0.0
H1928 H 0.25398 0.57053 0.39035 0.0
H1929 H 0.28342 0.57662 0.41108 0.0
H1930 H 0.30499 0.61936 0.36792 0.0
H1931 H 0.27571 0.61334 0.34733 0.0
C1932 C 0.32066 0.61959 0.43772 0.0
C1933 C 0.33972 0.6249 0.43076 0.0
C1934 C 0.3071 0.60987 0.42523 0.0
C1935 C 0.3122 0.60539 0.40538 0.0
C1936 C 0.33166 0.60972 0.39873 0.0
C1937 C 0.34535 0.61926 0.41136 0.0
C1938 C 0.26524 0.58087 0.38508 0.0
C1939 C 0.26236 0.59169 0.36734 0.0
C1940 C 0.28206 0.58442 0.39699 0.0
C1941 C 0.29645 0.59862 0.39124 0.0
C1942 C 0.29429 0.60823 0.37274 0.0
C1943 C 0.27741 0.60487 0.36099 0.0
H1944 H 0.87508 0.38796 0.84768 0.0
H1945 H 0.8815 0.43409 0.80323 0.0
H1946 H 0.86099 0.41245 0.87092 0.0
H1947 H 0.86784 0.45858 0.82643 0.0
H1948 H 0.87155 0.46769 0.91234 0.0
H1949 H 0.87653 0.4404 0.88896 0.0
H1950 H 0.83881 0.47022 0.84607 0.0
H1951 H 0.83389 0.49785 0.86965 0.0
C1952 C 0.87311 0.40322 0.84275 0.0
C1953 C 0.87962 0.40914 0.82372 0.0
C1954 C 0.8652 0.41729 0.85609 0.0
C1955 C 0.86345 0.43753 0.8506 0.0
C1956 C 0.86884 0.44314 0.83113 0.0
C1957 C 0.87687 0.42914 0.81789 0.0
C1958 C 0.86409 0.46836 0.89802 0.0
C1959 C 0.85246 0.48504 0.89279 0.0
C1960 C 0.86681 0.45258 0.88466 0.0
C1961 C 0.85811 0.4531 0.86561 0.0
C1962 C 0.84585 0.46945 0.86059 0.0
C1963 C 0.84294 0.48521 0.87411 0.0
H1964 H 0.66606 0.85851 0.44142 0.0
H1965 H 0.64163 0.89266 0.39278 0.0
H1966 H 0.69992 0.86842 0.43133 0.0
H1967 H 0.67525 0.90292 0.38286 0.0
H1968 H 0.73931 0.92372 0.37425 0.0
H1969 H 0.70829 0.92092 0.39363 0.0
H1970 H 0.71698 0.85719 0.39813 0.0
H1971 H 0.74754 0.8599 0.37855 0.0
C1972 C 0.66796 0.86874 0.42906 0.0
C1973 C 0.6514 0.87484 0.41781 0.0
C1974 C 0.68725 0.8743 0.4232 0.0
C1975 C 0.69017 0.88638 0.40627 0.0
C1976 C 0.67344 0.89376 0.39606 0.0
C1977 C 0.65425 0.88787 0.40166 0.0
C1978 C 0.73472 0.9092 0.3797 0.0
C1979 C 0.74566 0.89199 0.37474 0.0
C1980 C 0.71702 0.9076 0.39075 0.0
C1981 C 0.7103 0.88885 0.39742 0.0
C1982 C 0.72191 0.87185 0.39339 0.0
C1983 C 0.7393 0.87339 0.38202 0.0
H1984 H 0.60936 0.53108 0.4102 0.0
H1985 H 0.65944 0.50826 0.37654 0.0
H1986 H 0.60576 0.55831 0.38655 0.0
H1987 H 0.65607 0.53591 0.35296 0.0
H1988 H 0.60958 0.61257 0.34841 0.0
H1989 H 0.62042 0.58864 0.37354 0.0
H1990 H 0.63232 0.54532 0.32723 0.0
H1991 H 0.62223 0.56953 0.30208 0.0
C1992 C 0.6198 0.53202 0.39789 0.0
C1993 C 0.63459 0.51739 0.39519 0.0
C1994 C 0.61783 0.54778 0.38439 0.0
C1995 C 0.63062 0.54933 0.36782 0.0
C1996 C 0.64584 0.53504 0.36545 0.0
C1997 C 0.64784 0.51925 0.37902 0.0
C1998 C 0.61501 0.59815 0.34353 0.0
C1999 C 0.61485 0.59291 0.32321 0.0
C2000 C 0.62101 0.58432 0.35797 0.0
C2001 C 0.62701 0.56495 0.35244 0.0
C2002 C 0.6279 0.56011 0.33205 0.0
C2003 C 0.6219 0.57393 0.31762 0.0
H2004 H 0.22408 0.61584 0.66722 0.0
H2005 H 0.2441 0.57 0.62648 0.0
H2006 H 0.19482 0.62152 0.64666 0.0
H2007 H 0.21444 0.57545 0.60596 0.0
H2008 H 0.18032 0.6169 0.56137 0.0
H2009 H 0.20471 0.6024 0.58396 0.0
H2010 H 0.16354 0.60982 0.63306 0.0
H2011 H 0.13934 0.62503 0.6104 0.0
C2012 C 0.22202 0.60665 0.65408 0.0
C2013 C 0.2366 0.59267 0.64835 0.0
C2014 C 0.20511 0.60982 0.64233 0.0
C2015 C 0.20232 0.59909 0.62451 0.0
C2016 C 0.21628 0.5842 0.61943 0.0
C2017 C 0.23322 0.58098 0.63126 0.0
C2018 C 0.17641 0.61529 0.57695 0.0
C2019 C 0.15801 0.62241 0.58412 0.0
C2020 C 0.19031 0.60673 0.5899 0.0
C2021 C 0.18619 0.60505 0.6104 0.0
C2022 C 0.16731 0.61112 0.6174 0.0
C2023 C 0.15335 0.61967 0.60439 0.0
H2024 H 0.85167 0.59546 0.68021 0.0
H2025 H 0.91569 0.59294 0.67272 0.0
H2026 H 0.848 0.56618 0.65927 0.0
H2027 H 0.91207 0.56283 0.6527 0.0
H2028 H 0.8976 0.52505 0.59811 0.0
H2029 H 0.90135 0.55326 0.62055 0.0
H2030 H 0.85243 0.53122 0.65639 0.0
H2031 H 0.84824 0.50321 0.63334 0.0
C2032 C 0.86503 0.58867 0.6742 0.0
C2033 C 0.88399 0.59691 0.67803 0.0
C2034 C 0.86291 0.57159 0.66236 0.0
C2035 C 0.8797 0.56209 0.65411 0.0
C2036 C 0.89873 0.56992 0.65846 0.0
C2037 C 0.90084 0.58712 0.67021 0.0
C2038 C 0.8876 0.52619 0.61076 0.0
C2039 C 0.87258 0.51187 0.61389 0.0
C2040 C 0.88988 0.54234 0.62379 0.0
C2041 C 0.87732 0.54456 0.64046 0.0
C2042 C 0.86226 0.53018 0.6436 0.0
C2043 C 0.85987 0.51406 0.63043 0.0
H2044 H 0.16646 1.00014 0.63082 0.0
H2045 H 0.13548 0.96518 0.58636 0.0
H2046 H 0.161 0.97358 0.65529 0.0
H2047 H 0.12985 0.93891 0.61074 0.0
H2048 H 0.12869 0.88986 0.656 0.0
H2049 H 0.14431 0.91317 0.63255 0.0
H2050 H 0.13055 0.96216 0.67224 0.0
H2051 H 0.11543 0.93887 0.69568 0.0
C2052 C 0.15882 0.98666 0.62617 0.0
C2053 C 0.15122 0.98485 0.60671 0.0
C2054 C 0.1556 0.9715 0.6402 0.0
C2055 C 0.14487 0.95418 0.635 0.0
C2056 C 0.13833 0.95193 0.61522 0.0
C2057 C 0.14142 0.9671 0.60126 0.0
C2058 C 0.12947 0.90554 0.65987 0.0
C2059 C 0.12063 0.9126 0.67754 0.0
C2060 C 0.13826 0.91891 0.64641 0.0
C2061 C 0.13854 0.93955 0.65046 0.0
C2062 C 0.13075 0.94637 0.6687 0.0
C2063 C 0.12187 0.93306 0.68204 0.0
H2064 H 0.63625 0.7799 0.8547 0.0
H2065 H 0.62103 0.7653 0.91561 0.0
H2066 H 0.6132 0.80793 0.8556 0.0
H2067 H 0.59768 0.79343 0.91644 0.0
H2068 H 0.57845 0.86066 0.91549 0.0
H2069 H 0.59856 0.8304 0.91598 0.0
H2070 H 0.57738 0.81523 0.85709 0.0
H2071 H 0.55706 0.84533 0.85661 0.0
C2072 C 0.62794 0.78261 0.8683 0.0
C2073 C 0.63055 0.77032 0.88511 0.0
C2074 C 0.61457 0.79863 0.86875 0.0
C2075 C 0.60349 0.80291 0.88605 0.0
C2076 C 0.60608 0.79063 0.9029 0.0
C2077 C 0.61939 0.77446 0.90241 0.0
C2078 C 0.5777 0.85074 0.90277 0.0
C2079 C 0.56614 0.85571 0.88593 0.0
C2080 C 0.58931 0.83334 0.90306 0.0
C2081 C 0.58976 0.82046 0.8865 0.0
C2082 C 0.57769 0.82502 0.86996 0.0
C2083 C 0.56602 0.84236 0.86969 0.0
H2084 H 0.03055 0.10194 0.38187 0.0
H2085 H 0.01122 0.12462 0.32469 0.0
H2086 H 0.05965 0.12367 0.38066 0.0
H2087 H 0.04063 0.14637 0.32349 0.0
H2088 H 0.10975 0.16174 0.32262 0.0
H2089 H 0.07895 0.14244 0.32174 0.0
H2090 H 0.0653 0.16133 0.38176 0.0
H2091 H 0.09566 0.18112 0.38259 0.0
C2092 C 0.03256 0.11147 0.36898 0.0
C2093 C 0.01856 0.11156 0.35338 0.0
C2094 C 0.04916 0.12404 0.36838 0.0
C2095 C 0.05228 0.13682 0.35207 0.0
C2096 C 0.03856 0.13663 0.33622 0.0
C2097 C 0.02175 0.12422 0.33694 0.0
C2098 C 0.10006 0.1622 0.33551 0.0
C2099 C 0.10551 0.17289 0.35279 0.0
C2100 C 0.08241 0.15105 0.33498 0.0
C2101 C 0.06991 0.15019 0.35177 0.0
C2102 C 0.07488 0.16144 0.36873 0.0
C2103 C 0.09238 0.17275 0.3692 0.0
H2104 H 0.39697 0.63497 0.8644 0.0
H2105 H 0.44339 0.6765 0.88078 0.0
H2106 H 0.37176 0.66052 0.87146 0.0
H2107 H 0.41853 0.70204 0.88742 0.0
H2108 H 0.33566 0.71917 0.86478 0.0
H2109 H 0.35864 0.69152 0.85969 0.0
H2110 H 0.39322 0.71111 0.91048 0.0
H2111 H 0.37058 0.73925 0.91511 0.0
C2112 C 0.40177 0.64961 0.8693 0.0
C2113 C 0.42213 0.65368 0.87219 0.0
C2114 C 0.38736 0.66426 0.87338 0.0
C2115 C 0.39306 0.68332 0.88029 0.0
C2116 C 0.41349 0.68741 0.88271 0.0
C2117 C 0.42779 0.67278 0.87879 0.0
C2118 C 0.34804 0.71748 0.87502 0.0
C2119 C 0.35138 0.73155 0.89025 0.0
C2120 C 0.3612 0.70152 0.87214 0.0
C2121 C 0.37797 0.69915 0.88451 0.0
C2122 C 0.38073 0.71271 0.90036 0.0
C2123 C 0.36765 0.72876 0.90315 0.0
H2124 H 0.90646 0.30133 0.37707 0.0
H2125 H 0.87664 0.35092 0.34915 0.0
H2126 H 0.93872 0.31407 0.36513 0.0
H2127 H 0.90864 0.36364 0.337 0.0
H2128 H 0.97145 0.37827 0.31353 0.0
H2129 H 0.94083 0.35819 0.31646 0.0
H2130 H 0.95477 0.34614 0.37816 0.0
H2131 H 0.98484 0.36619 0.3754 0.0
C2132 C 0.90679 0.31445 0.36764 0.0
C2133 C 0.88923 0.32519 0.36397 0.0
C2134 C 0.92519 0.32186 0.36097 0.0
C2135 C 0.92619 0.33997 0.35031 0.0
C2136 C 0.90835 0.34961 0.34505 0.0
C2137 C 0.89007 0.34237 0.35199 0.0
C2138 C 0.96795 0.37124 0.32766 0.0
C2139 C 0.98041 0.37403 0.34429 0.0
C2140 C 0.95051 0.35972 0.32931 0.0
C2141 C 0.94554 0.35042 0.34748 0.0
C2142 C 0.95835 0.3528 0.36387 0.0
C2143 C 0.97546 0.36455 0.36234 0.0
H2144 H 0.58287 0.15042 0.64915 0.0
H2145 H 0.57259 0.15399 0.58568 0.0
H2146 H 0.60695 0.17761 0.64676 0.0
H2147 H 0.59678 0.18104 0.5832 0.0
H2148 H 0.62579 0.2431 0.5899 0.0
H2149 H 0.60178 0.21563 0.59169 0.0
H2150 H 0.63948 0.18551 0.63442 0.0
H2151 H 0.66307 0.21303 0.63299 0.0
C2152 C 0.58593 0.15682 0.63464 0.0
C2153 C 0.57575 0.14998 0.61763 0.0
C2154 C 0.59976 0.17246 0.63324 0.0
C2155 C 0.60386 0.18162 0.61477 0.0
C2156 C 0.59379 0.17464 0.59773 0.0
C2157 C 0.57992 0.15906 0.59915 0.0
C2158 C 0.62896 0.23057 0.5996 0.0
C2159 C 0.64633 0.23033 0.61134 0.0
C2160 C 0.61523 0.21476 0.60059 0.0
C2161 C 0.61859 0.19833 0.6133 0.0
C2162 C 0.63615 0.19803 0.62476 0.0
C2163 C 0.64979 0.21381 0.62382 0.0
H2164 H 0.42035 0.19779 0.63136 0.0
H2165 H 0.37972 0.15162 0.61211 0.0
H2166 H 0.446 0.17288 0.63731 0.0
H2167 H 0.40537 0.12643 0.61839 0.0
H2168 H 0.46463 0.09197 0.60941 0.0
H2169 H 0.43671 0.11487 0.60561 0.0
H2170 H 0.45506 0.14615 0.65897 0.0
H2171 H 0.48342 0.12362 0.66237 0.0
C2172 C 0.41682 0.18225 0.62864 0.0
C2173 C 0.39798 0.17667 0.62133 0.0
C2174 C 0.43151 0.16792 0.63213 0.0
C2175 C 0.42773 0.14758 0.62853 0.0
C2176 C 0.40887 0.14198 0.62116 0.0
C2177 C 0.39417 0.15639 0.61753 0.0
C2178 C 0.4626 0.1036 0.62046 0.0
C2179 C 0.47636 0.10608 0.63609 0.0
C2180 C 0.4465 0.11669 0.61833 0.0
C2181 C 0.44372 0.13251 0.63186 0.0
C2182 C 0.45699 0.1344 0.64802 0.0
C2183 C 0.47317 0.12139 0.65007 0.0
H2184 H 0.34043 0.29049 0.61836 0.0
H2185 H 0.37419 0.26361 0.5704 0.0
H2186 H 0.36506 0.31696 0.62096 0.0
H2187 H 0.3986 0.29055 0.57257 0.0
H2188 H 0.45092 0.31973 0.6077 0.0
H2189 H 0.42406 0.29828 0.59619 0.0
H2190 H 0.38159 0.34557 0.60741 0.0
H2191 H 0.40848 0.36671 0.61986 0.0
C2192 C 0.35287 0.29048 0.60804 0.0
C2193 C 0.3555 0.27476 0.59439 0.0
C2194 C 0.36697 0.30579 0.60942 0.0
C2195 C 0.38398 0.30582 0.59711 0.0
C2196 C 0.38589 0.29079 0.58255 0.0
C2197 C 0.37183 0.2754 0.58123 0.0
C2198 C 0.43587 0.32561 0.60753 0.0
C2199 C 0.43184 0.3448 0.61501 0.0
C2200 C 0.42045 0.31339 0.60068 0.0
C2201 C 0.40057 0.3201 0.60105 0.0
C2202 C 0.39669 0.33981 0.60724 0.0
C2203 C 0.41216 0.35204 0.61416 0.0
H2204 H 0.51848 0.36352 0.66998 0.0
H2205 H 0.54272 0.40092 0.62343 0.0
H2206 H 0.54764 0.34183 0.66774 0.0
H2207 H 0.57223 0.37987 0.62178 0.0
H2208 H 0.6115 0.32782 0.60654 0.0
H2209 H 0.58212 0.34842 0.61008 0.0
H2210 H 0.58217 0.33794 0.67368 0.0
H2211 H 0.61088 0.31616 0.67002 0.0
C2212 C 0.53019 0.3673 0.6595 0.0
C2213 C 0.52818 0.38386 0.64676 0.0
C2214 C 0.54699 0.35488 0.65825 0.0
C2215 C 0.56229 0.35886 0.64438 0.0
C2216 C 0.56057 0.37594 0.63225 0.0
C2217 C 0.5437 0.38817 0.63333 0.0
C2218 C 0.60516 0.32947 0.62128 0.0
C2219 C 0.61383 0.32009 0.63797 0.0
C2220 C 0.58837 0.34168 0.62336 0.0
C2221 C 0.5798 0.34516 0.64222 0.0
C2222 C 0.5882 0.33556 0.65888 0.0
C2223 C 0.60491 0.32315 0.65678 0.0
H2224 H 0.87143 0.64595 0.78196 0.0
H2225 H 0.92212 0.60961 0.76552 0.0
H2226 H 0.86628 0.62572 0.81146 0.0
H2227 H 0.91651 0.5887 0.79496 0.0
H2228 H 0.91276 0.57025 0.86124 0.0
H2229 H 0.91862 0.58862 0.83058 0.0
H2230 H 0.85498 0.59403 0.82179 0.0
H2231 H 0.84908 0.57683 0.85299 0.0
C2232 C 0.88141 0.63349 0.78456 0.0
C2233 C 0.89717 0.62937 0.77135 0.0
C2234 C 0.87834 0.62175 0.80146 0.0
C2235 C 0.89081 0.60538 0.80556 0.0
C2236 C 0.90669 0.60127 0.79238 0.0
C2237 C 0.90988 0.6132 0.77547 0.0
C2238 C 0.89996 0.57546 0.85293 0.0
C2239 C 0.88041 0.57219 0.85997 0.0
C2240 C 0.90336 0.5858 0.83511 0.0
C2241 C 0.8873 0.59302 0.82374 0.0
C2242 C 0.86776 0.58908 0.83035 0.0
C2243 C 0.86436 0.57892 0.84824 0.0
H2244 H 0.80482 0.88637 0.41906 0.0
H2245 H 0.85285 0.85113 0.39479 0.0
H2246 H 0.81452 0.87626 0.45292 0.0
H2247 H 0.86243 0.84075 0.42842 0.0
H2248 H 0.87168 0.82083 0.49238 0.0
H2249 H 0.85201 0.82336 0.46155 0.0
H2250 H 0.84744 0.88715 0.46987 0.0
H2251 H 0.86724 0.88469 0.50024 0.0
C2252 C 0.81695 0.87585 0.42098 0.0
C2253 C 0.82818 0.86954 0.40447 0.0
C2254 C 0.82258 0.87017 0.44028 0.0
C2255 C 0.83929 0.8578 0.44326 0.0
C2256 C 0.8494 0.85014 0.42657 0.0
C2257 C 0.844 0.85611 0.40737 0.0
C2258 C 0.86613 0.8353 0.48775 0.0
C2259 C 0.87115 0.8526 0.49852 0.0
C2260 C 0.85492 0.83674 0.47016 0.0
C2261 C 0.84817 0.85544 0.46338 0.0
C2262 C 0.85223 0.87252 0.47485 0.0
C2263 C 0.86374 0.87114 0.49213 0.0
H2264 H 0.10168 0.90257 0.87006 0.0
H2265 H 0.13479 0.94944 0.84102 0.0
H2266 H 0.09175 0.88918 0.83768 0.0
H2267 H 0.12476 0.93621 0.8084 0.0
H2268 H 0.13589 0.88385 0.76378 0.0
H2269 H 0.13707 0.90461 0.7934 0.0
H2270 H 0.07475 0.89256 0.80461 0.0
H2271 H 0.07351 0.87153 0.77458 0.0
C2272 C 0.10619 0.91041 0.85666 0.0
C2273 C 0.11909 0.92691 0.85795 0.0
C2274 C 0.10048 0.90279 0.83812 0.0
C2275 C 0.10774 0.91144 0.82047 0.0
C2276 C 0.11916 0.92907 0.82178 0.0
C2277 C 0.12472 0.9368 0.84039 0.0
C2278 C 0.12235 0.88563 0.77245 0.0
C2279 C 0.10464 0.87584 0.76692 0.0
C2280 C 0.12298 0.8978 0.78932 0.0
C2281 C 0.10596 0.90042 0.80127 0.0
C2282 C 0.08811 0.89084 0.79567 0.0
C2283 C 0.08741 0.87878 0.77854 0.0
H2284 H 0.12725 0.67561 0.50069 0.0
H2285 H 0.08895 0.62705 0.4823 0.0
H2286 H 0.14792 0.67042 0.4711 0.0
H2287 H 0.10964 0.62178 0.45294 0.0
H2288 H 0.14609 0.61965 0.39726 0.0
H2289 H 0.12275 0.6346 0.42105 0.0
H2290 H 0.171 0.64295 0.46295 0.0
H2291 H 0.19425 0.62843 0.43905 0.0
C2292 C 0.12301 0.66409 0.49016 0.0
C2293 C 0.10663 0.65153 0.494 0.0
C2294 C 0.1349 0.66107 0.47326 0.0
C2295 C 0.13055 0.64555 0.45978 0.0
C2296 C 0.11334 0.63396 0.46292 0.0
C2297 C 0.10155 0.63689 0.47986 0.0
C2298 C 0.15176 0.62519 0.41134 0.0
C2299 C 0.17196 0.62271 0.41641 0.0
C2300 C 0.13838 0.63359 0.42502 0.0
C2301 C 0.14499 0.63983 0.44394 0.0
C2302 C 0.16542 0.63847 0.44846 0.0
C2303 C 0.17873 0.62996 0.43486 0.0
H2304 H 0.85886 0.41324 0.64719 0.0
H2305 H 0.92291 0.41997 0.64312 0.0
H2306 H 0.86284 0.39353 0.67724 0.0
H2307 H 0.92691 0.3992 0.67257 0.0
H2308 H 0.92461 0.37897 0.73843 0.0
H2309 H 0.92231 0.39868 0.70788 0.0
H2310 H 0.87353 0.36151 0.68778 0.0
H2311 H 0.87542 0.34236 0.71854 0.0
C2312 C 0.87381 0.4106 0.65264 0.0
C2313 C 0.89054 0.41831 0.64256 0.0
C2314 C 0.87612 0.39897 0.66979 0.0
C2315 C 0.89522 0.39455 0.67729 0.0
C2316 C 0.91196 0.40238 0.66734 0.0
C2317 C 0.90965 0.41414 0.65025 0.0
C2318 C 0.91356 0.3749 0.72736 0.0
C2319 C 0.90012 0.35919 0.73094 0.0
C2320 C 0.91225 0.38617 0.70981 0.0
C2321 C 0.89756 0.38187 0.69542 0.0
C2322 C 0.88469 0.3656 0.69872 0.0
C2323 C 0.88589 0.35449 0.7163 0.0
H2324 H 0.63555 0.82955 0.49708 0.0
H2325 H 0.60539 0.88465 0.51186 0.0
H2326 H 0.65643 0.83319 0.52683 0.0
H2327 H 0.62555 0.88794 0.54162 0.0
H2328 H 0.67184 0.89836 0.58734 0.0
H2329 H 0.65775 0.89492 0.55413 0.0
H2330 H 0.6539 0.831 0.56227 0.0
H2331 H 0.66915 0.83431 0.59494 0.0
C2332 C 0.63337 0.8424 0.50666 0.0
C2333 C 0.6188 0.85678 0.50211 0.0
C2334 C 0.64528 0.84448 0.52374 0.0
C2335 C 0.64277 0.86093 0.53665 0.0
C2336 C 0.62828 0.87532 0.53188 0.0
C2337 C 0.61653 0.87332 0.51483 0.0
C2338 C 0.66848 0.88352 0.58192 0.0
C2339 C 0.6714 0.86666 0.59407 0.0
C2340 C 0.66012 0.88155 0.56291 0.0
C2341 C 0.65429 0.86271 0.5556 0.0
C2342 C 0.65821 0.84575 0.56731 0.0
C2343 C 0.66673 0.8477 0.58625 0.0
H2344 H 0.08091 0.11745 0.7366 0.0
H2345 H 0.14091 0.13869 0.7262 0.0
H2346 H 0.08394 0.09519 0.70771 0.0
H2347 H 0.1438 0.11686 0.69744 0.0
H2348 H 0.1506 0.06313 0.65771 0.0
H2349 H 0.14636 0.0818 0.6886 0.0
H2350 H 0.08633 0.09737 0.67113 0.0
H2351 H 0.09057 0.07873 0.64019 0.0
C2352 C 0.09471 0.11737 0.72818 0.0
C2353 C 0.11065 0.12987 0.73371 0.0
C2354 C 0.09643 0.10468 0.7116 0.0
C2355 C 0.11416 0.10416 0.7003 0.0
C2356 C 0.13007 0.1166 0.70597 0.0
C2357 C 0.12833 0.12927 0.72242 0.0
C2358 C 0.1365 0.07053 0.66039 0.0
C2359 C 0.121 0.06953 0.64629 0.0
C2360 C 0.13406 0.08123 0.67815 0.0
C2361 C 0.11606 0.09124 0.68229 0.0
C2362 C 0.10031 0.08968 0.66853 0.0
C2363 C 0.10276 0.07897 0.65076 0.0
H2364 H 0.35259 0.62375 0.6193 0.0
H2365 H 0.30331 0.63925 0.58096 0.0
H2366 H 0.37594 0.63754 0.59484 0.0
H2367 H 0.32646 0.65241 0.55629 0.0
H2368 H 0.37074 0.67936 0.51511 0.0
H2369 H 0.35129 0.67629 0.54584 0.0
H2370 H 0.38643 0.62491 0.56276 0.0
H2371 H 0.40603 0.62826 0.53248 0.0
C2372 C 0.34672 0.63058 0.60589 0.0
C2373 C 0.32614 0.63022 0.60191 0.0
C2374 C 0.36009 0.63828 0.59177 0.0
C2375 C 0.35312 0.64584 0.57343 0.0
C2376 C 0.33242 0.64686 0.57024 0.0
C2377 C 0.31912 0.63914 0.5843 0.0
C2378 C 0.37457 0.66769 0.52562 0.0
C2379 C 0.38977 0.6539 0.52122 0.0
C2380 C 0.36336 0.66586 0.54318 0.0
C2381 C 0.36715 0.65023 0.55672 0.0
C2382 C 0.38318 0.63725 0.55284 0.0
C2383 C 0.39434 0.63907 0.53533 0.0
H2384 H 0.85185 0.89482 0.60509 0.0
H2385 H 0.8271 0.85837 0.55826 0.0
H2386 H 0.81826 0.90419 0.61582 0.0
H2387 H 0.79329 0.86749 0.56908 0.0
H2388 H 0.74899 0.85665 0.62374 0.0
H2389 H 0.77857 0.85576 0.60265 0.0
H2390 H 0.78393 0.91988 0.60723 0.0
H2391 H 0.75389 0.92082 0.62825 0.0
C2392 C 0.83914 0.88943 0.59669 0.0
C2393 C 0.84191 0.87587 0.58095 0.0
C2394 C 0.81996 0.89481 0.60276 0.0
C2395 C 0.80321 0.88642 0.59338 0.0
C2396 C 0.806 0.8741 0.57659 0.0
C2397 C 0.82526 0.869 0.57031 0.0
C2398 C 0.7563 0.8706 0.62003 0.0
C2399 C 0.74932 0.88878 0.62781 0.0
C2400 C 0.77309 0.87011 0.60776 0.0
C2401 C 0.78347 0.88776 0.60324 0.0
C2402 C 0.77613 0.90607 0.61046 0.0
C2403 C 0.75902 0.9066 0.62247 0.0
H2404 H 0.83687 0.09191 0.91577 0.0
H2405 H 0.83642 0.15644 0.91498 0.0
H2406 H 0.80585 0.09143 0.89698 0.0
H2407 H 0.80485 0.15597 0.89716 0.0
H2408 H 0.76627 0.14763 0.84166 0.0
H2409 H 0.79484 0.14831 0.86389 0.0
H2410 H 0.77066 0.09817 0.89654 0.0
H2411 H 0.74218 0.09715 0.87379 0.0
C2412 C 0.83006 0.10601 0.91182 0.0
C2413 C 0.83938 0.12421 0.91669 0.0
C2414 C 0.81209 0.10573 0.90123 0.0
C2415 C 0.80293 0.12366 0.89532 0.0
C2416 C 0.8117 0.14186 0.90111 0.0
C2417 C 0.82971 0.14214 0.91161 0.0
C2418 C 0.76699 0.13675 0.85359 0.0
C2419 C 0.75197 0.12229 0.8559 0.0
C2420 C 0.78332 0.13725 0.86648 0.0
C2421 C 0.78503 0.12339 0.88214 0.0
C2422 C 0.76993 0.10896 0.88453 0.0
C2423 C 0.75358 0.10839 0.87153 0.0
H2424 H 0.39129 0.97028 0.40939 0.0
H2425 H 0.34063 0.99843 0.38125 0.0
H2426 H 0.38936 0.94287 0.38558 0.0
H2427 H 0.33925 0.9716 0.35682 0.0
H2428 H 0.33127 0.9113 0.32637 0.0
H2429 H 0.33175 0.938 0.35073 0.0
H2430 H 0.39618 0.93564 0.35204 0.0
H2431 H 0.39573 0.90805 0.32883 0.0
C2432 C 0.37972 0.97059 0.39813 0.0
C2433 C 0.36614 0.98653 0.39722 0.0
C2434 C 0.37873 0.95497 0.3843 0.0
C2435 C 0.36432 0.95507 0.36901 0.0
C2436 C 0.35043 0.97083 0.36845 0.0
C2437 C 0.35124 0.98629 0.38246 0.0
C2438 C 0.34559 0.9163 0.33184 0.0
C2439 C 0.36344 0.90711 0.32556 0.0
C2440 C 0.34586 0.93188 0.34576 0.0
C2441 C 0.36399 0.93893 0.35362 0.0
C2442 C 0.38187 0.93032 0.34675 0.0
C2443 C 0.3816 0.91459 0.33304 0.0
H2444 H 0.14796 0.36184 0.89551 0.0
H2445 H 0.17498 0.38748 0.94813 0.0
H2446 H 0.17927 0.36636 0.87739 0.0
H2447 H 0.20606 0.39205 0.93008 0.0
H2448 H 0.25329 0.41476 0.88622 0.0
H2449 H 0.22114 0.41152 0.90326 0.0
H2450 H 0.21308 0.35316 0.87693 0.0
H2451 H 0.24485 0.3565 0.85975 0.0
C2452 C 0.16054 0.36833 0.90326 0.0
C2453 C 0.15881 0.37438 0.92328 0.0
C2454 C 0.17851 0.37096 0.89287 0.0
C2455 C 0.19518 0.37969 0.90225 0.0
C2456 C 0.19343 0.38567 0.92226 0.0
C2457 C 0.17554 0.38302 0.93263 0.0
C2458 C 0.24462 0.40128 0.88406 0.0
C2459 C 0.25168 0.3859 0.87165 0.0
C2460 C 0.22623 0.39937 0.89388 0.0
C2461 C 0.21449 0.38208 0.89144 0.0
C2462 C 0.22156 0.3668 0.87893 0.0
C2463 C 0.2399 0.36867 0.86919 0.0
H2464 H 0.16743 0.00571 0.86494 0.0
H2465 H 0.11745 0.02504 0.90081 0.0
H2466 H 0.16224 0.03418 0.84263 0.0
H2467 H 0.11266 0.05357 0.8791 0.0
H2468 H 0.09711 0.09451 0.82868 0.0
H2469 H 0.10171 0.06357 0.84707 0.0
H2470 H 0.16565 0.06968 0.84146 0.0
H2471 H 0.16105 0.09997 0.82212 0.0
C2472 C 0.1554 0.01605 0.8681 0.0
C2473 C 0.14287 0.01307 0.88466 0.0
C2474 C 0.15245 0.03242 0.85537 0.0
C2475 C 0.13696 0.04622 0.85897 0.0
C2476 C 0.12447 0.04311 0.87554 0.0
C2477 C 0.12734 0.02677 0.88814 0.0
C2478 C 0.11215 0.08915 0.83103 0.0
C2479 C 0.12869 0.10001 0.82398 0.0
C2480 C 0.11482 0.07145 0.84183 0.0
C2481 C 0.13408 0.06415 0.84601 0.0
C2482 C 0.15058 0.0747 0.83846 0.0
C2483 C 0.14793 0.09232 0.82757 0.0
H2484 H 0.75414 0.08115 0.10921 0.0
H2485 H 0.72796 0.12147 0.15222 0.0
H2486 H 0.72486 0.08541 0.08764 0.0
H2487 H 0.69902 0.12574 0.13085 0.0
H2488 H 0.64389 0.12394 0.09419 0.0
H2489 H 0.66955 0.10928 0.11571 0.0
H2490 H 0.71251 0.11444 0.06791 0.0
H2491 H 0.68684 0.12875 0.04648 0.0
C2492 C 0.74203 0.09066 0.11417 0.0
C2493 C 0.74343 0.10113 0.13229 0.0
C2494 C 0.72532 0.09315 0.10183 0.0
C2495 C 0.7096 0.1059 0.10755 0.0
C2496 C 0.71069 0.1156 0.1261 0.0
C2497 C 0.72742 0.11331 0.13826 0.0
C2498 C 0.65867 0.12138 0.08816 0.0
C2499 C 0.66347 0.12769 0.06878 0.0
C2500 C 0.67339 0.11315 0.1005 0.0
C2501 C 0.69312 0.1109 0.09357 0.0
C2502 C 0.69747 0.11585 0.07368 0.0
C2503 C 0.68282 0.12422 0.06146 0.0
H2504 H 0.39462 0.066 0.20145 0.0
H2505 H 0.41167 0.10833 0.1559 0.0
H2506 H 0.38736 0.04127 0.17594 0.0
H2507 H 0.4045 0.08339 0.13026 0.0
H2508 H 0.35762 0.00782 0.12498 0.0
H2509 H 0.36347 0.03444 0.14925 0.0
H2510 H 0.41714 0.05138 0.11778 0.0
H2511 H 0.41115 0.02506 0.09342 0.0
C2512 C 0.39667 0.07014 0.18599 0.0
C2513 C 0.40362 0.08928 0.1808 0.0
C2514 C 0.39246 0.05591 0.17133 0.0
C2515 C 0.39517 0.06037 0.15103 0.0
C2516 C 0.40238 0.07941 0.14578 0.0
C2517 C 0.40655 0.09371 0.16049 0.0
C2518 C 0.37056 0.01734 0.12314 0.0
C2519 C 0.38394 0.01425 0.10729 0.0
C2520 C 0.374 0.03251 0.13713 0.0
C2521 C 0.39085 0.04499 0.13553 0.0
C2522 C 0.40393 0.04219 0.11937 0.0
C2523 C 0.40054 0.02699 0.10546 0.0
H2524 H 0.60267 0.413 0.17902 0.0
H2525 H 0.66669 0.41957 0.17453 0.0
H2526 H 0.59821 0.44333 0.15977 0.0
H2527 H 0.66219 0.44932 0.15424 0.0
H2528 H 0.64776 0.5104 0.12842 0.0
H2529 H 0.65161 0.48338 0.15254 0.0
H2530 H 0.60184 0.45235 0.12565 0.0
H2531 H 0.59765 0.47956 0.10204 0.0
C2532 C 0.61584 0.421 0.17422 0.0
C2533 C 0.63508 0.41363 0.17827 0.0
C2534 C 0.61326 0.4383 0.16285 0.0
C2535 C 0.62982 0.44863 0.15512 0.0
C2536 C 0.64907 0.44183 0.15998 0.0
C2537 C 0.65166 0.42459 0.17146 0.0
C2538 C 0.63763 0.49781 0.12771 0.0
C2539 C 0.62243 0.49711 0.11328 0.0
C2540 C 0.63987 0.48229 0.1415 0.0
C2541 C 0.62701 0.46567 0.14111 0.0
C2542 C 0.61178 0.46507 0.12669 0.0
C2543 C 0.60947 0.48062 0.11301 0.0
H2544 H 0.31514 0.06524 0.38462 0.0
H2545 H 0.28528 0.07264 0.4413 0.0
H2546 H 0.28724 0.08178 0.36782 0.0
H2547 H 0.25761 0.08911 0.42463 0.0
H2548 H 0.25175 0.14405 0.3612 0.0
H2549 H 0.27581 0.11764 0.36885 0.0
H2550 H 0.22997 0.08511 0.40049 0.0
H2551 H 0.20614 0.11166 0.39308 0.0
C2552 C 0.30244 0.07001 0.39342 0.0
C2553 C 0.30242 0.06783 0.4143 0.0
C2554 C 0.28655 0.07953 0.38381 0.0
C2555 C 0.27027 0.08672 0.39489 0.0
C2556 C 0.26981 0.08349 0.41562 0.0
C2557 C 0.28574 0.07422 0.42522 0.0
C2558 C 0.24671 0.13085 0.36907 0.0
C2559 C 0.22727 0.12988 0.37678 0.0
C2560 C 0.26044 0.11574 0.37348 0.0
C2561 C 0.25482 0.09952 0.38561 0.0
C2562 C 0.23478 0.09762 0.39143 0.0
C2563 C 0.22114 0.11271 0.38711 0.0
H2564 H 0.3224 0.46076 0.90155 0.0
H2565 H 0.3215 0.46302 0.83713 0.0
H2566 H 0.34216 0.4915 0.90227 0.0
H2567 H 0.34123 0.49345 0.83786 0.0
H2568 H 0.40329 0.5243 0.8882 0.0
H2569 H 0.37721 0.49923 0.89235 0.0
H2570 H 0.34152 0.52894 0.8477 0.0
H2571 H 0.36755 0.5541 0.84362 0.0
C2572 C 0.3261 0.46798 0.88758 0.0
C2573 C 0.32051 0.45937 0.86928 0.0
C2574 C 0.33751 0.4855 0.88799 0.0
C2575 C 0.3433 0.49486 0.87013 0.0
C2576 C 0.33684 0.48675 0.8519 0.0
C2577 C 0.32563 0.4692 0.85148 0.0
C2578 C 0.38965 0.52581 0.87968 0.0
C2579 C 0.38761 0.54103 0.86538 0.0
C2580 C 0.37469 0.51143 0.88205 0.0
C2581 C 0.35742 0.51197 0.87017 0.0
C2582 C 0.35483 0.52793 0.85681 0.0
C2583 C 0.36974 0.54231 0.85447 0.0
H2584 H 0.67486 0.40218 0.37563 0.0
H2585 H 0.70777 0.4495 0.40462 0.0
H2586 H 0.70576 0.38536 0.36758 0.0
H2587 H 0.73908 0.43286 0.39593 0.0
H2588 H 0.77827 0.37718 0.41257 0.0
H2589 H 0.75343 0.4034 0.4101 0.0
H2590 H 0.73713 0.38234 0.35133 0.0
H2591 H 0.76129 0.35529 0.35435 0.0
C2592 C 0.68878 0.40924 0.37986 0.0
C2593 C 0.68891 0.42684 0.39125 0.0
C2594 C 0.70659 0.3997 0.375 0.0
C2595 C 0.72495 0.4076 0.38136 0.0
C2596 C 0.72514 0.42621 0.39115 0.0
C2597 C 0.70724 0.43579 0.39605 0.0
C2598 C 0.76949 0.37824 0.39905 0.0
C2599 C 0.77132 0.36382 0.38392 0.0
C2600 C 0.75546 0.39352 0.39746 0.0
C2601 C 0.74305 0.39482 0.38063 0.0
C2602 C 0.7462 0.38151 0.36467 0.0
C2603 C 0.76016 0.36609 0.36633 0.0
H2604 H 0.63142 0.08504 0.86348 0.0
H2605 H 0.68523 0.05201 0.85025 0.0
H2606 H 0.61486 0.05455 0.87311 0.0
H2607 H 0.66882 0.0212 0.86095 0.0
H2608 H 0.62185 0.97179 0.84735 0.0
H2609 H 0.64448 1.00001 0.84732 0.0
H2610 H 0.61014 0.02761 0.89453 0.0
H2611 H 0.58651 1.00008 0.89334 0.0
C2612 C 0.63989 0.07127 0.86302 0.0
C2613 C 0.65954 0.07091 0.85572 0.0
C2614 C 0.63041 0.0537 0.86883 0.0
C2615 C 0.64039 0.03526 0.86774 0.0
C2616 C 0.66053 0.03507 0.86164 0.0
C2617 C 0.67 0.05273 0.85562 0.0
C2618 C 0.61912 0.98387 0.85777 0.0
C2619 C 0.60197 0.98392 0.86989 0.0
C2620 C 0.63236 0.99996 0.858 0.0
C2621 C 0.62897 0.01638 0.87064 0.0
C2622 C 0.61291 0.01549 0.88418 0.0
C2623 C 0.59947 0.99953 0.8837 0.0
H2624 H 0.26191 0.84773 0.13928 0.0
H2625 H 0.21979 0.89131 0.11771 0.0
H2626 H 0.28842 0.87238 0.13762 0.0
H2627 H 0.24602 0.91664 0.11711 0.0
H2628 H 0.30278 0.94135 0.08562 0.0
H2629 H 0.27277 0.92396 0.09647 0.0
H2630 H 0.3048 0.90084 0.14756 0.0
H2631 H 0.33505 0.917 0.13562 0.0
C2632 C 0.25824 0.86287 0.1349 0.0
C2633 C 0.23895 0.86767 0.12851 0.0
C2634 C 0.27341 0.87713 0.13401 0.0
C2635 C 0.26951 0.89662 0.12702 0.0
C2636 C 0.24975 0.90172 0.12209 0.0
C2637 C 0.23467 0.88731 0.12261 0.0
C2638 C 0.30316 0.93296 0.09942 0.0
C2639 C 0.32115 0.93029 0.10971 0.0
C2640 C 0.28594 0.92299 0.10575 0.0
C2641 C 0.28636 0.91055 0.12274 0.0
C2642 C 0.30401 0.90968 0.13407 0.0
C2643 C 0.3213 0.91914 0.1274 0.0
H2644 H 0.14314 0.46505 0.10987 0.0
H2645 H 0.19248 0.48439 0.14657 0.0
H2646 H 0.12727 0.49684 0.11401 0.0
H2647 H 0.17704 0.5174 0.14969 0.0
H2648 H 0.12934 0.56165 0.17356 0.0
H2649 H 0.15129 0.53407 0.16576 0.0
H2650 H 0.12477 0.5296 0.10718 0.0
H2651 H 0.10098 0.55473 0.11586 0.0
C2652 C 0.15093 0.47633 0.11845 0.0
C2653 C 0.16903 0.472 0.12807 0.0
C2654 C 0.14184 0.49487 0.12066 0.0
C2655 C 0.15076 0.51002 0.13217 0.0
C2656 C 0.16948 0.50608 0.14097 0.0
C2657 C 0.17848 0.48722 0.13903 0.0
C2658 C 0.12776 0.55459 0.15914 0.0
C2659 C 0.11251 0.56035 0.14579 0.0
C2660 C 0.14084 0.53893 0.15446 0.0
C2661 C 0.13955 0.529 0.136 0.0
C2662 C 0.12577 0.53617 0.12191 0.0
C2663 C 0.11222 0.5512 0.12683 0.0
H2664 H 0.69691 0.55844 0.12742 0.0
H2665 H 0.67172 0.5931 0.07928 0.0
H2666 H 0.72246 0.58403 0.13231 0.0
H2667 H 0.69745 0.61813 0.08359 0.0
H2668 H 0.73494 0.66863 0.10492 0.0
H2669 H 0.70852 0.64388 0.10461 0.0
H2670 H 0.75159 0.59754 0.11735 0.0
H2671 H 0.77782 0.62255 0.11925 0.0
C2672 C 0.69686 0.57149 0.11787 0.0
C2673 C 0.68221 0.57382 0.10309 0.0
C2674 C 0.71155 0.58611 0.12059 0.0
C2675 C 0.712 0.60325 0.10842 0.0
C2676 C 0.69733 0.60543 0.09359 0.0
C2677 C 0.68258 0.59098 0.09104 0.0
C2678 C 0.73877 0.65325 0.10814 0.0
C2679 C 0.75862 0.64765 0.11201 0.0
C2680 C 0.72361 0.63896 0.10763 0.0
C2681 C 0.72791 0.61862 0.11069 0.0
C2682 C 0.74766 0.61306 0.11506 0.0
C2683 C 0.7628 0.62741 0.11583 0.0
H2684 H 0.86919 0.94145 0.15682 0.0
H2685 H 0.90359 0.97439 0.1134 0.0
H2686 H 0.84197 0.96542 0.15352 0.0
H2687 H 0.87643 0.99847 0.11017 0.0
H2688 H 0.82033 0.03519 0.10262 0.0
H2689 H 0.8416 0.00557 0.10061 0.0
H2690 H 0.8395 0.99995 0.16479 0.0
H2691 H 0.81811 0.02916 0.16677 0.0
C2692 C 0.8708 0.95368 0.14637 0.0
C2693 C 0.88861 0.95621 0.13556 0.0
C2694 C 0.85525 0.96742 0.1445 0.0
C2695 C 0.85717 0.98401 0.13181 0.0
C2696 C 0.87442 0.98577 0.11998 0.0
C2697 C 0.89 0.97198 0.12182 0.0
C2698 C 0.82414 0.02741 0.11625 0.0
C2699 C 0.81769 0.03463 0.13487 0.0
C2700 C 0.83642 0.01052 0.1151 0.0
C2701 C 0.8423 1.00045 0.13253 0.0
C2702 C 0.83507 0.0072 0.15105 0.0
C2703 C 0.82294 0.02408 0.1522 0.0
H2704 H 0.42355 0.18597 0.12194 0.0
H2705 H 0.38034 0.21474 0.16024 0.0
H2706 H 0.41685 0.21061 0.09596 0.0
H2707 H 0.37363 0.23928 0.13431 0.0
H2708 H 0.3598 0.27742 0.08076 0.0
H2709 H 0.36127 0.24662 0.10033 0.0
H2710 H 0.42549 0.2462 0.0946 0.0
H2711 H 0.42404 0.27661 0.07496 0.0
C2712 C 0.41243 0.19738 0.1247 0.0
C2713 C 0.40266 0.19855 0.14323 0.0
C2714 C 0.40859 0.21147 0.10983 0.0
C2715 C 0.39489 0.22701 0.11318 0.0
C2716 C 0.38414 0.22738 0.13119 0.0
C2717 C 0.38799 0.21329 0.14607 0.0
C2718 C 0.37419 0.27054 0.08341 0.0
C2719 C 0.39183 0.27956 0.0765 0.0
C2720 C 0.37502 0.25297 0.09468 0.0
C2721 C 0.39349 0.24402 0.09907 0.0
C2722 C 0.411 0.25256 0.0913 0.0
C2723 C 0.41019 0.27013 0.08018 0.0
H2724 H 0.57628 0.37851 0.14723 0.0
H2725 H 0.55039 0.35285 0.20043 0.0
H2726 H 0.54402 0.37808 0.13117 0.0
H2727 H 0.51759 0.35302 0.18445 0.0
H2728 H 0.47335 0.32736 0.13724 0.0
H2729 H 0.50197 0.3339 0.15856 0.0
H2730 H 0.51131 0.39037 0.12876 0.0
H2731 H 0.48377 0.38316 0.10646 0.0
C2732 C 0.56357 0.37317 0.15569 0.0
C2733 C 0.56599 0.36536 0.17498 0.0
C2734 C 0.54494 0.37308 0.1465 0.0
C2735 C 0.52815 0.36534 0.15641 0.0
C2736 C 0.53029 0.35874 0.17624 0.0
C2737 C 0.54905 0.35879 0.18547 0.0
C2738 C 0.48156 0.34113 0.13514 0.0
C2739 C 0.47636 0.35454 0.11984 0.0
C2740 C 0.49779 0.34506 0.14765 0.0
C2741 C 0.50911 0.36261 0.1453 0.0
C2742 C 0.50318 0.37654 0.13077 0.0
C2743 C 0.48715 0.37249 0.11811 0.0
H2744 H 0.57181 0.23428 0.06962 0.0
H2745 H 0.6296 0.20579 0.06785 0.0
H2746 H 0.5855 0.26106 0.08996 0.0
H2747 H 0.64341 0.23273 0.08849 0.0
H2748 H 0.6132 0.31154 0.1197 0.0
H2749 H 0.60966 0.28925 0.09111 0.0
H2750 H 0.63668 0.24151 0.12495 0.0
H2751 H 0.6404 0.26401 0.15356 0.0
C2752 C 0.58757 0.23403 0.07321 0.0
C2753 C 0.59962 0.21798 0.06724 0.0
C2754 C 0.59546 0.24941 0.08477 0.0
C2755 C 0.61554 0.24897 0.09084 0.0
C2756 C 0.62788 0.2334 0.08406 0.0
C2757 C 0.62002 0.2181 0.07216 0.0
C2758 C 0.6189 0.29643 0.12079 0.0
C2759 C 0.6268 0.28934 0.13885 0.0
C2760 C 0.61684 0.28369 0.10447 0.0
C2761 C 0.62257 0.26357 0.10593 0.0
C2762 C 0.63222 0.25698 0.12338 0.0
C2763 C 0.63434 0.26981 0.13975 0.0
H2764 H 0.49465 0.15928 0.2065 0.0
H2765 H 0.47696 0.10199 0.18304 0.0
H2766 H 0.52252 0.16039 0.18335 0.0
H2767 H 0.50412 0.1035 0.15878 0.0
H2768 H 0.56042 0.10704 0.12156 0.0
H2769 H 0.53785 0.103 0.14999 0.0
H2770 H 0.52709 0.16674 0.15001 0.0
H2771 H 0.55024 0.17066 0.12253 0.0
C2772 C 0.4968 0.14688 0.19637 0.0
C2773 C 0.48363 0.13061 0.19647 0.0
C2774 C 0.51269 0.14756 0.18291 0.0
C2775 C 0.51545 0.13225 0.16875 0.0
C2776 C 0.5027 0.11551 0.1695 0.0
C2777 C 0.48706 0.11463 0.18336 0.0
C2778 C 0.55336 0.12014 0.12791 0.0
C2779 C 0.55719 0.13918 0.11996 0.0
C2780 C 0.54032 0.11785 0.14412 0.0
C2781 C 0.53056 0.13453 0.15248 0.0
C2782 C 0.53463 0.15356 0.14449 0.0
C2783 C 0.54788 0.15585 0.1286 0.0
H2784 H 0.42627 0.73643 0.43387 0.0
H2785 H 0.36946 0.70602 0.43284 0.0
H2786 H 0.41289 0.76247 0.41252 0.0
H2787 H 0.35587 0.73231 0.41128 0.0
H2788 H 0.38678 0.81066 0.37867 0.0
H2789 H 0.38901 0.78975 0.4084 0.0
H2790 H 0.36353 0.74042 0.37553 0.0
H2791 H 0.36089 0.76166 0.34589 0.0
C2792 C 0.41073 0.73564 0.42949 0.0
C2793 C 0.39894 0.71921 0.43488 0.0
C2794 C 0.40299 0.75062 0.41733 0.0
C2795 C 0.38331 0.74941 0.41013 0.0
C2796 C 0.37111 0.73356 0.41652 0.0
C2797 C 0.37882 0.71864 0.42897 0.0
C2798 C 0.38107 0.79553 0.37806 0.0
C2799 C 0.37386 0.78762 0.36006 0.0
C2800 C 0.38241 0.78355 0.39501 0.0
C2801 C 0.37679 0.76335 0.39421 0.0
C2802 C 0.36788 0.75596 0.37666 0.0
C2803 C 0.36639 0.76805 0.35968 0.0
H2804 H 0.98545 0.3159 0.80982 0.0
H2805 H 0.95852 0.37453 0.80964 0.0
H2806 H 0.01576 0.32982 0.82391 0.0
H2807 H 0.98914 0.38862 0.8238 0.0
H2808 H 0.06968 0.35451 0.84709 0.0
H2809 H 0.04469 0.35236 0.82068 0.0
H2810 H 0.00267 0.38393 0.85809 0.0
H2811 H 0.02764 0.38617 0.88431 0.0
C2812 C 0.98619 0.33186 0.81243 0.0
C2813 C 0.96956 0.34407 0.80896 0.0
C2814 C 0.00366 0.33991 0.82029 0.0
C2815 C 0.00484 0.36035 0.825 0.0
C2816 C 0.98861 0.37281 0.82037 0.0
C2817 C 0.97113 0.36476 0.81226 0.0
C2818 C 0.05533 0.36162 0.84933 0.0
C2819 C 0.05042 0.37013 0.86786 0.0
C2820 C 0.04103 0.36036 0.83426 0.0
C2821 C 0.02159 0.36753 0.83752 0.0
C2822 C 0.01752 0.37828 0.85509 0.0
C2823 C 0.03185 0.37958 0.87016 0.0
H2824 H 0.64229 0.78491 0.42778 0.0
H2825 H 0.57834 0.77995 0.4346 0.0
H2826 H 0.64249 0.75408 0.40818 0.0
H2827 H 0.57855 0.74944 0.41501 0.0
H2828 H 0.58468 0.68886 0.38812 0.0
H2829 H 0.58978 0.71433 0.41372 0.0
H2830 H 0.62976 0.74598 0.37429 0.0
H2831 H 0.62455 0.72075 0.34869 0.0
C2832 C 0.62834 0.77711 0.42537 0.0
C2833 C 0.61028 0.78498 0.4326 0.0
C2834 C 0.62845 0.75952 0.41408 0.0
C2835 C 0.61054 0.74937 0.41001 0.0
C2836 C 0.59264 0.75676 0.41807 0.0
C2837 C 0.59251 0.77438 0.42918 0.0
C2838 C 0.59473 0.70114 0.38501 0.0
C2839 C 0.60404 0.70286 0.36628 0.0
C2840 C 0.59766 0.7157 0.39967 0.0
C2841 C 0.61003 0.73224 0.39595 0.0
C2842 C 0.62031 0.7333 0.3777 0.0
C2843 C 0.61733 0.7188 0.36302 0.0
H2844 H 0.98836 0.11839 0.90054 0.0
H2845 H 0.95156 0.15402 0.86125 0.0
H2846 H 0.01272 0.11415 0.87359 0.0
H2847 H 0.9764 0.15047 0.83491 0.0
H2848 H 0.04388 0.1665 0.81667 0.0
H2849 H 0.01681 0.16449 0.84071 0.0
H2850 H 0.01213 0.10104 0.83062 0.0
H2851 H 0.03912 0.10303 0.80569 0.0
C2852 C 0.98524 0.12501 0.88614 0.0
C2853 C 0.9681 0.13684 0.88322 0.0
C2854 C 0.99921 0.12256 0.87076 0.0
C2855 C 0.99633 0.13203 0.85232 0.0
C2856 C 0.97889 0.14308 0.84908 0.0
C2857 C 0.96482 0.14528 0.86426 0.0
C2858 C 0.03703 0.15211 0.8193 0.0
C2859 C 0.04354 0.13495 0.80909 0.0
C2860 C 0.02154 0.151 0.83311 0.0
C2861 C 0.01248 0.13265 0.83738 0.0
C2862 C 0.01898 0.11535 0.82746 0.0
C2863 C 0.03429 0.11653 0.81319 0.0
H2864 H 0.05306 0.41271 0.26897 0.0
H2865 H 0.06971 0.35078 0.275 0.0
H2866 H 0.07014 0.41426 0.23698 0.0
H2867 H 0.08605 0.35191 0.24253 0.0
H2868 H 0.1425 0.37374 0.20974 0.0
H2869 H 0.11694 0.36674 0.23427 0.0
H2870 H 0.07591 0.40539 0.20287 0.0
H2871 H 0.10191 0.41267 0.17828 0.0
C2872 C 0.0596 0.3992 0.26304 0.0
C2873 C 0.06028 0.3817 0.27451 0.0
C2874 C 0.06944 0.40005 0.24465 0.0
C2875 C 0.07989 0.38332 0.23736 0.0
C2876 C 0.07866 0.36524 0.24796 0.0
C2877 C 0.06917 0.36451 0.26647 0.0
C2878 C 0.12788 0.38034 0.20773 0.0
C2879 C 0.12425 0.3938 0.1921 0.0
C2880 C 0.11313 0.37628 0.2218 0.0
C2881 C 0.09428 0.38548 0.22058 0.0
C2882 C 0.09033 0.39824 0.2044 0.0
C2883 C 0.10519 0.4024 0.19032 0.0
H2884 H 0.14744 0.63133 0.28846 0.0
H2885 H 0.10578 0.5934 0.3198 0.0
H2886 H 0.12222 0.63866 0.26364 0.0
H2887 H 0.08019 0.60099 0.29494 0.0
H2888 H 0.05597 0.59485 0.22938 0.0
H2889 H 0.07402 0.59238 0.2608 0.0
H2890 H 0.09168 0.65427 0.25544 0.0
H2891 H 0.07428 0.65636 0.2236 0.0
C2892 C 0.13268 0.62501 0.29037 0.0
C2893 C 0.12865 0.61175 0.30609 0.0
C2894 C 0.11813 0.62924 0.27611 0.0
C2895 C 0.09909 0.62042 0.27723 0.0
C2896 C 0.09476 0.60783 0.29346 0.0
C2897 C 0.1094 0.60351 0.30771 0.0
C2898 C 0.06317 0.60807 0.23523 0.0
C2899 C 0.0639 0.62573 0.22397 0.0
C2900 C 0.07357 0.60669 0.25328 0.0
C2901 C 0.0847 0.62302 0.26049 0.0
C2902 C 0.08376 0.64123 0.25007 0.0
C2903 C 0.07365 0.6425 0.23192 0.0
H2904 H 0.88181 0.69261 0.04569 0.0
H2905 H 0.82196 0.67282 0.0594 0.0
H2906 H 0.88495 0.66546 0.02124 0.0
H2907 H 0.82505 0.64614 0.03524 0.0
H2908 H 0.87055 0.6267 0.96425 0.0
H2909 H 0.87085 0.65386 0.98865 0.0
H2910 H 0.8435 0.61488 0.03211 0.0
H2911 H 0.8425 0.58807 0.00763 0.0
C2912 C 0.86934 0.68257 0.04344 0.0
C2913 C 0.85176 0.68472 0.05471 0.0
C2914 C 0.87112 0.66706 0.02946 0.0
C2915 C 0.85536 0.65345 0.02656 0.0
C2916 C 0.83766 0.65601 0.03748 0.0
C2917 C 0.83589 0.6714 0.05133 0.0
C2918 C 0.8646 0.62395 0.97902 0.0
C2919 C 0.85632 0.60525 0.98392 0.0
C2920 C 0.86498 0.63945 0.99305 0.0
C2921 C 0.85701 0.63658 0.01223 0.0
C2922 C 0.84947 0.61766 0.01734 0.0
C2923 C 0.84911 0.6022 0.00337 0.0
H2924 H 0.94185 0.91661 0.21335 0.0
H2925 H 0.9357 0.85248 0.20994 0.0
H2926 H 0.91736 0.91781 0.23981 0.0
H2927 H 0.91097 0.85366 0.23697 0.0
H2928 H 0.84791 0.87216 0.26278 0.0
H2929 H 0.87609 0.86668 0.24028 0.0
H2930 H 0.91138 0.90847 0.27442 0.0
H2931 H 0.88328 0.91395 0.29686 0.0
C2932 C 0.93549 0.90269 0.21845 0.0
C2933 C 0.94069 0.88446 0.20944 0.0
C2934 C 0.92149 0.90337 0.23378 0.0
C2935 C 0.91219 0.88584 0.2405 0.0
C2936 C 0.9178 0.86744 0.23198 0.0
C2937 C 0.93205 0.86674 0.21665 0.0
C2938 C 0.86178 0.87996 0.26563 0.0
C2939 C 0.86327 0.89372 0.28143 0.0
C2940 C 0.87795 0.87674 0.25279 0.0
C2941 C 0.89592 0.88722 0.25551 0.0
C2942 C 0.89762 0.90041 0.27175 0.0
C2943 C 0.88149 0.90363 0.28454 0.0
H2944 H 0.65503 0.37152 0.46556 0.0
H2945 H 0.61634 0.40874 0.50148 0.0
H2946 H 0.6567 0.34732 0.49243 0.0
H2947 H 0.61642 0.38362 0.52744 0.0
H2948 H 0.65012 0.35646 0.57965 0.0
H2949 H 0.64039 0.37571 0.55102 0.0
H2950 H 0.64348 0.32274 0.51414 0.0
H2951 H 0.65433 0.30334 0.54321 0.0
C2952 C 0.6466 0.37445 0.47904 0.0
C2953 C 0.63608 0.39251 0.48149 0.0
C2954 C 0.64726 0.3603 0.49435 0.0
C2955 C 0.63707 0.36366 0.51237 0.0
C2956 C 0.62498 0.38079 0.51403 0.0
C2957 C 0.62468 0.39514 0.49891 0.0
C2958 C 0.64862 0.34875 0.56552 0.0
C2959 C 0.65326 0.32836 0.56369 0.0
C2960 C 0.64272 0.35983 0.54902 0.0
C2961 C 0.64101 0.35087 0.53014 0.0
C2962 C 0.64485 0.33022 0.5284 0.0
C2963 C 0.65094 0.31905 0.54505 0.0
H2964 H 0.44001 0.58387 0.78615 0.0
H2965 H 0.4366 0.64815 0.79086 0.0
H2966 H 0.41851 0.58468 0.75711 0.0
H2967 H 0.41463 0.6489 0.76154 0.0
H2968 H 0.35283 0.63097 0.7299 0.0
H2969 H 0.37901 0.63607 0.75472 0.0
H2970 H 0.41805 0.59692 0.7216 0.0
H2971 H 0.3921 0.59208 0.69657 0.0
C2972 C 0.43487 0.59823 0.78087 0.0
C2973 C 0.44007 0.61595 0.79086 0.0
C2974 C 0.42259 0.59869 0.7641 0.0
C2975 C 0.41495 0.61686 0.75698 0.0
C2976 C 0.42032 0.63468 0.76673 0.0
C2977 C 0.43295 0.63425 0.78342 0.0
C2978 C 0.36718 0.6239 0.72757 0.0
C2979 C 0.37025 0.61088 0.71136 0.0
C2980 C 0.38217 0.62682 0.74183 0.0
C2981 C 0.40047 0.6167 0.74021 0.0
C2982 C 0.40397 0.60467 0.72339 0.0
C2983 C 0.38907 0.60185 0.7091 0.0
H2984 H 0.85488 0.40877 0.4973 0.0
H2985 H 0.87188 0.36839 0.54469 0.0
H2986 H 0.85129 0.38045 0.47468 0.0
H2987 H 0.86735 0.3401 0.52218 0.0
H2988 H 0.8569 0.32394 0.43663 0.0
H2989 H 0.87073 0.34954 0.45864 0.0
H2990 H 0.83328 0.32842 0.50658 0.0
H2991 H 0.81885 0.30342 0.4845 0.0
C2992 C 0.8583 0.39396 0.50281 0.0
C2993 C 0.86333 0.39088 0.52295 0.0
C2994 C 0.85621 0.37774 0.48983 0.0
C2995 C 0.85889 0.35814 0.49679 0.0
C2996 C 0.86501 0.35509 0.51655 0.0
C2997 C 0.86742 0.37129 0.52944 0.0
C2998 C 0.85163 0.3247 0.45183 0.0
C2999 C 0.83627 0.31206 0.45857 0.0
C3000 C 0.85965 0.33929 0.46444 0.0
C3001 C 0.8529 0.34103 0.48419 0.0
C3002 C 0.83876 0.32735 0.49141 0.0
C3003 C 0.83044 0.31309 0.47871 0.0
H3004 H 0.11652 0.09322 0.50482 0.0
H3005 H 0.16624 0.12723 0.52797 0.0
H3006 H 0.11398 0.1161 0.47688 0.0
H3007 H 0.16471 0.14915 0.49915 0.0
H3008 H 0.15566 0.19025 0.44715 0.0
H3009 H 0.14892 0.17398 0.47917 0.0
H3010 H 0.13333 0.1196 0.44799 0.0
H3011 H 0.13927 0.13591 0.41645 0.0
C3012 C 0.12675 0.10572 0.50418 0.0
C3013 C 0.14184 0.10808 0.51855 0.0
C3014 C 0.12546 0.11873 0.48793 0.0
C3015 C 0.13942 0.13425 0.48545 0.0
C3016 C 0.15366 0.13742 0.50051 0.0
C3017 C 0.15476 0.12459 0.51692 0.0
C3018 C 0.15039 0.17496 0.44721 0.0
C3019 C 0.14821 0.16432 0.42927 0.0
C3020 C 0.14666 0.16558 0.46555 0.0
C3021 C 0.14067 0.1454 0.46624 0.0
C3022 C 0.1376 0.1352 0.44817 0.0
C3023 C 0.14124 0.14454 0.42998 0.0
H3024 H 0.80273 0.58435 0.92098 0.0
H3025 H 0.7809 0.55742 0.86661 0.0
H3026 H 0.77964 0.61184 0.9169 0.0
H3027 H 0.75777 0.58542 0.86229 0.0
H3028 H 0.74946 0.66781 0.89688 0.0
H3029 H 0.77359 0.64069 0.89685 0.0
H3030 H 0.72789 0.59982 0.87679 0.0
H3031 H 0.70396 0.62722 0.8758 0.0
C3032 C 0.79318 0.5844 0.90797 0.0
C3033 C 0.79382 0.5687 0.89403 0.0
C3034 C 0.77993 0.60029 0.90558 0.0
C3035 C 0.76695 0.60102 0.88915 0.0
C3036 C 0.76748 0.58528 0.8752 0.0
C3037 C 0.78077 0.56926 0.87763 0.0
C3038 C 0.74461 0.65316 0.89206 0.0
C3039 C 0.72467 0.64974 0.88647 0.0
C3040 C 0.75841 0.6375 0.8923 0.0
C3041 C 0.75266 0.61797 0.88706 0.0
C3042 C 0.7329 0.61467 0.88083 0.0
C3043 C 0.71909 0.63036 0.88051 0.0
H3044 H 0.7981 0.97597 0.34901 0.0
H3045 H 0.83775 0.94737 0.39072 0.0
H3046 H 0.81725 0.00678 0.35167 0.0
H3047 H 0.85827 0.97717 0.39198 0.0
H3048 H 0.89287 0.03242 0.39589 0.0
H3049 H 0.86609 0.00861 0.40047 0.0
H3050 H 0.84517 0.02101 0.34063 0.0
H3051 H 0.87005 0.04662 0.33726 0.0
C3052 C 0.811 0.97639 0.35874 0.0
C3053 C 0.81653 0.95948 0.36969 0.0
C3054 C 0.8222 0.99396 0.36013 0.0
C3055 C 0.83972 0.99467 0.3718 0.0
C3056 C 0.84479 0.97766 0.38314 0.0
C3057 C 0.83313 0.9604 0.38232 0.0
C3058 C 0.88215 0.0306 0.38396 0.0
C3059 C 0.88411 0.0412 0.36595 0.0
C3060 C 0.86692 0.01651 0.38643 0.0
C3061 C 0.8536 0.01217 0.37073 0.0
C3062 C 0.85488 0.02371 0.35323 0.0
C3063 C 0.86962 0.03824 0.35106 0.0
H3064 H 0.2656 0.85185 0.8611 0.0
H3065 H 0.30498 0.88738 0.89773 0.0
H3066 H 0.24222 0.8797 0.85928 0.0
H3067 H 0.2817 0.91534 0.89576 0.0
H3068 H 0.22086 0.94148 0.91619 0.0
H3069 H 0.24922 0.91954 0.91136 0.0
H3070 H 0.23463 0.91407 0.84881 0.0
H3071 H 0.2058 0.93592 0.85375 0.0
C3072 C 0.26953 0.86582 0.86826 0.0
C3073 C 0.28696 0.86737 0.87979 0.0
C3074 C 0.25615 0.8818 0.8672 0.0
C3075 C 0.25999 0.89963 0.87761 0.0
C3076 C 0.27814 0.90165 0.88792 0.0
C3077 C 0.29146 0.88567 0.88903 0.0
C3078 C 0.22378 0.93583 0.90134 0.0
C3079 C 0.21092 0.94027 0.88541 0.0
C3080 C 0.2402 0.92337 0.89852 0.0
C3081 C 0.24417 0.91501 0.87969 0.0
C3082 C 0.23183 0.92014 0.86353 0.0
C3083 C 0.2154 0.93273 0.86635 0.0
H3084 H 0.12688 0.4447 0.32595 0.0
H3085 H 0.09671 0.4544 0.38231 0.0
H3086 H 0.1496 0.47173 0.33368 0.0
H3087 H 0.12099 0.47923 0.39103 0.0
H3088 H 0.14353 0.5425 0.38762 0.0
H3089 H 0.12573 0.5117 0.38338 0.0
H3090 H 0.17566 0.48706 0.35057 0.0
H3091 H 0.19316 0.51898 0.35379 0.0
C3092 C 0.1251 0.4523 0.34009 0.0
C3093 C 0.1093 0.44742 0.35313 0.0
C3094 C 0.13856 0.46763 0.34474 0.0
C3095 C 0.13699 0.47818 0.36284 0.0
C3096 C 0.12234 0.47209 0.37659 0.0
C3097 C 0.10851 0.45729 0.37169 0.0
C3098 C 0.15094 0.53052 0.37967 0.0
C3099 C 0.16977 0.53336 0.37091 0.0
C3100 C 0.14071 0.51257 0.37739 0.0
C3101 C 0.14913 0.49658 0.36665 0.0
C3102 C 0.16846 0.49906 0.35865 0.0
C3103 C 0.17862 0.51731 0.36066 0.0
H3104 H 0.80675 0.42626 0.58018 0.0
H3105 H 0.80175 0.43815 0.64337 0.0
H3106 H 0.78167 0.4003 0.58292 0.0
H3107 H 0.77657 0.41153 0.64613 0.0
H3108 H 0.7542 0.34297 0.63884 0.0
H3109 H 0.77645 0.37201 0.64026 0.0
H3110 H 0.74422 0.39911 0.5916 0.0
H3111 H 0.72171 0.37062 0.59049 0.0
C3112 C 0.8002 0.42346 0.59467 0.0
C3113 C 0.80617 0.43443 0.61153 0.0
C3114 C 0.78578 0.40856 0.59621 0.0
C3115 C 0.77711 0.40397 0.61471 0.0
C3116 C 0.78305 0.4148 0.63169 0.0
C3117 C 0.79733 0.43007 0.63008 0.0
C3118 C 0.75161 0.35529 0.62872 0.0
C3119 C 0.73637 0.35425 0.61429 0.0
C3120 C 0.76434 0.37191 0.62955 0.0
C3121 C 0.76215 0.38768 0.6159 0.0
C3122 C 0.74642 0.38702 0.60211 0.0
C3123 C 0.73363 0.3706 0.60139 0.0
H3124 H 0.68783 0.96156 0.64195 0.0
H3125 H 0.6331 0.93289 0.62341 0.0
H3126 H 0.67308 0.99418 0.63489 0.0
H3127 H 0.61819 0.96513 0.61723 0.0
H3128 H 0.59351 0.02242 0.60196 0.0
H3129 H 0.61619 0.99451 0.59855 0.0
H3130 H 0.64878 0.01468 0.65042 0.0
H3131 H 0.62719 0.0437 0.65275 0.0
C3132 C 0.67276 0.9622 0.63614 0.0
C3133 C 0.66154 0.94466 0.63347 0.0
C3134 C 0.66426 0.98089 0.63221 0.0
C3135 C 0.64438 0.98236 0.62561 0.0
C3136 C 0.63363 0.96469 0.62198 0.0
C3137 C 0.64213 0.9461 0.62575 0.0
C3138 C 0.60594 0.02145 0.61222 0.0
C3139 C 0.60817 0.0352 0.62794 0.0
C3140 C 0.61881 0.00517 0.61043 0.0
C3141 C 0.63397 0.00196 0.62455 0.0
C3142 C 0.63725 0.01658 0.63927 0.0
C3143 C 0.62461 0.0331 0.64083 0.0
H3144 H 0.21789 0.05605 0.5986 0.0
H3145 H 0.18554 0.11045 0.61127 0.0
H3146 H 0.24928 0.07314 0.60622 0.0
H3147 H 0.21652 0.1275 0.61818 0.0
H3148 H 0.27142 0.15626 0.63535 0.0
H3149 H 0.24465 0.13209 0.63875 0.0
H3150 H 0.26917 0.09791 0.58982 0.0
H3151 H 0.29683 0.12125 0.58743 0.0
C3152 C 0.21745 0.07154 0.60325 0.0
C3153 C 0.19926 0.08196 0.60409 0.0
C3154 C 0.23542 0.08136 0.60752 0.0
C3155 C 0.2355 0.10175 0.61275 0.0
C3156 C 0.21714 0.11175 0.61454 0.0
C3157 C 0.19929 0.10199 0.61033 0.0
C3158 C 0.27159 0.14322 0.62579 0.0
C3159 C 0.2861 0.141 0.61078 0.0
C3160 C 0.25602 0.12946 0.62756 0.0
C3161 C 0.2544 0.11334 0.61419 0.0
C3162 C 0.26986 0.11015 0.60036 0.0
C3163 C 0.28559 0.12375 0.59877 0.0
H3164 H 0.407 0.4672 0.60995 0.0
H3165 H 0.37666 0.44561 0.66273 0.0
H3166 H 0.38155 0.49222 0.60565 0.0
H3167 H 0.35273 0.47246 0.6599 0.0
H3168 H 0.30845 0.5218 0.65056 0.0
H3169 H 0.32649 0.49025 0.64659 0.0
H3170 H 0.37568 0.52232 0.6196 0.0
H3171 H 0.35733 0.55294 0.62227 0.0
C3172 C 0.39492 0.46756 0.62065 0.0
C3173 C 0.39447 0.45446 0.63706 0.0
C3174 C 0.3804 0.48236 0.61839 0.0
C3175 C 0.36536 0.48507 0.63284 0.0
C3176 C 0.36404 0.47111 0.64846 0.0
C3177 C 0.37819 0.45585 0.65034 0.0
C3178 C 0.32294 0.5219 0.64339 0.0
C3179 C 0.33145 0.53993 0.63685 0.0
C3180 C 0.33341 0.50384 0.64126 0.0
C3181 C 0.35272 0.50351 0.63282 0.0
C3182 C 0.36075 0.52158 0.62573 0.0
C3183 C 0.35022 0.53939 0.62751 0.0
H3184 H 0.90089 0.69389 0.62822 0.0
H3185 H 0.89586 0.74316 0.66976 0.0
H3186 H 0.89303 0.71645 0.60076 0.0
H3187 H 0.88702 0.76529 0.64233 0.0
H3188 H 0.8548 0.79487 0.59003 0.0
H3189 H 0.85841 0.76881 0.61541 0.0
H3190 H 0.91193 0.74782 0.58629 0.0
H3191 H 0.9085 0.77397 0.56113 0.0
C3192 C 0.89817 0.70948 0.63157 0.0
C3193 C 0.89918 0.71666 0.65131 0.0
C3194 C 0.89347 0.72232 0.61582 0.0
C3195 C 0.88928 0.74251 0.6195 0.0
C3196 C 0.88987 0.74967 0.63917 0.0
C3197 C 0.89491 0.73694 0.65488 0.0
C3198 C 0.86703 0.78436 0.58878 0.0
C3199 C 0.88141 0.78643 0.57367 0.0
C3200 C 0.86918 0.7696 0.60337 0.0
C3201 C 0.88551 0.75645 0.60282 0.0
C3202 C 0.89917 0.75773 0.58699 0.0
C3203 C 0.89723 0.77271 0.57264 0.0
H3204 H 0.02137 0.81181 0.69228 0.0
H3205 H 0.04079 0.87325 0.68922 0.0
H3206 H 0.99268 0.81973 0.67174 0.0
H3207 H 0.01167 0.88139 0.66872 0.0
H3208 H 0.94053 0.83572 0.63709 0.0
H3209 H 0.96168 0.83725 0.66667 0.0
H3210 H 0.00482 0.87226 0.63382 0.0
H3211 H 0.98328 0.87114 0.60443 0.0
C3212 C 0.01913 0.82717 0.68767 0.0
C3213 C 0.03337 0.84185 0.69207 0.0
C3214 C 0.0026 0.83177 0.67601 0.0
C3215 C 1.0 0.85117 0.66842 0.0
C3216 C 0.01343 0.86626 0.67417 0.0
C3217 C 0.02997 0.86165 0.68603 0.0
C3218 C 0.95437 0.84406 0.63639 0.0
C3219 C 0.96055 0.85299 0.61848 0.0
C3220 C 0.96645 0.84496 0.65328 0.0
C3221 C 0.98506 0.85459 0.65249 0.0
C3222 C 0.9905 0.86486 0.63498 0.0
C3223 C 0.97827 0.86412 0.61811 0.0
H3224 H 0.1425 0.80474 0.63417 0.0
H3225 H 0.07842 0.79759 0.63329 0.0
H3226 H 0.14577 0.77769 0.60992 0.0
H3227 H 0.08168 0.77066 0.60928 0.0
H3228 H 0.09062 0.72456 0.5626 0.0
H3229 H 0.09098 0.75827 0.57658 0.0
H3230 H 0.14122 0.74217 0.61364 0.0
H3231 H 0.14114 0.70887 0.59942 0.0
C3232 C 0.12911 0.79759 0.62862 0.0
C3233 C 0.11022 0.80317 0.63586 0.0
C3234 C 0.13098 0.78211 0.61471 0.0
C3235 C 0.114 0.77184 0.60781 0.0
C3236 C 0.09506 0.77836 0.61405 0.0
C3237 C 0.09319 0.79384 0.62789 0.0
C3238 C 0.10203 0.72839 0.57337 0.0
C3239 C 0.11567 0.71395 0.58011 0.0
C3240 C 0.10216 0.74767 0.58147 0.0
C3241 C 0.116 0.75289 0.59639 0.0
C3242 C 0.13046 0.7388 0.60207 0.0
C3243 C 0.1303 0.71958 0.59403 0.0
H3244 H 0.0614 0.66027 0.65097 0.0
H3245 H 0.03177 0.6158 0.6148 0.0
H3246 H 0.03678 0.65528 0.67721 0.0
H3247 H 0.00787 0.61 0.64148 0.0
H3248 H 0.95282 0.63127 0.67727 0.0
H3249 H 0.9803 0.6287 0.65384 0.0
H3250 H 0.02234 0.63418 0.70242 0.0
H3251 H 0.99462 0.63753 0.72591 0.0
C3252 C 0.04983 0.64919 0.64873 0.0
C3253 C 0.04845 0.63866 0.63062 0.0
C3254 C 0.03585 0.64612 0.66392 0.0
C3255 C 0.02019 0.63236 0.66141 0.0
C3256 C 0.01953 0.62096 0.64379 0.0
C3257 C 0.03343 0.62412 0.62856 0.0
C3258 C 0.96792 0.63177 0.68301 0.0
C3259 C 0.97153 0.63495 0.70341 0.0
C3260 C 0.98373 0.63006 0.66957 0.0
C3261 C 0.0036 0.63138 0.67619 0.0
C3262 C 0.00723 0.63342 0.69678 0.0
C3263 C 0.99134 0.63516 0.71026 0.0
H3264 H 0.86118 0.27806 0.84182 0.0
H3265 H 0.90197 0.30248 0.88568 0.0
H3266 H 0.85661 0.24904 0.86216 0.0
H3267 H 0.89925 0.27188 0.90476 0.0
H3268 H 0.88733 0.21504 0.93943 0.0
H3269 H 0.88276 0.24824 0.92483 0.0
H3270 H 0.87574 0.22111 0.86665 0.0
H3271 H 0.87912 0.18847 0.88125 0.0
C3272 C 0.86908 0.27762 0.85586 0.0
C3273 C 0.88236 0.29292 0.8616 0.0
C3274 C 0.86674 0.26048 0.86743 0.0
C3275 C 0.87813 0.2576 0.88478 0.0
C3276 C 0.89031 0.27339 0.8914 0.0
C3277 C 0.89218 0.29091 0.88011 0.0
C3278 C 0.8844 0.21626 0.92359 0.0
C3279 C 0.88361 0.19909 0.91152 0.0
C3280 C 0.88195 0.2353 0.91517 0.0
C3281 C 0.87882 0.23753 0.8945 0.0
C3282 C 0.87759 0.2202 0.88266 0.0
C3283 C 0.87975 0.20132 0.89106 0.0
H3284 H 0.4533 0.85154 0.30374 0.0
H3285 H 0.42253 0.87177 0.35671 0.0
H3286 H 0.48508 0.85339 0.32163 0.0
H3287 H 0.45378 0.87296 0.3746 0.0
H3288 H 0.51201 0.88243 0.40265 0.0
H3289 H 0.48504 0.88819 0.37926 0.0
H3290 H 0.50099 0.8343 0.3475 0.0
H3291 H 0.529 0.82933 0.37002 0.0
C3292 C 0.45334 0.85663 0.31907 0.0
C3293 C 0.43538 0.86124 0.32888 0.0
C3294 C 0.47151 0.85754 0.32938 0.0
C3295 C 0.47201 0.86315 0.34963 0.0
C3296 C 0.45411 0.86882 0.35898 0.0
C3297 C 0.43607 0.86795 0.34873 0.0
C3298 C 0.51018 0.87206 0.39039 0.0
C3299 C 0.52264 0.85526 0.38843 0.0
C3300 C 0.4945 0.87525 0.37708 0.0
C3301 C 0.49062 0.86157 0.36164 0.0
C3302 C 0.50358 0.84524 0.35912 0.0
C3303 C 0.51945 0.84218 0.37229 0.0
H3304 H 0.14409 0.3054 0.91559 0.0
H3305 H 0.08926 0.28048 0.93838 0.0
H3306 H 0.14538 0.27899 0.89006 0.0
H3307 H 0.09085 0.25385 0.91342 0.0
H3308 H 0.11273 0.20015 0.87515 0.0
H3309 H 0.11721 0.22394 0.90233 0.0
H3310 H 0.11683 0.27258 0.86022 0.0
H3311 H 0.11106 0.24909 0.83299 0.0
C3312 C 0.13272 0.29389 0.91552 0.0
C3313 C 0.11666 0.29476 0.92895 0.0
C3314 C 0.13336 0.27896 0.90089 0.0
C3315 C 0.11821 0.26448 0.89988 0.0
C3316 C 0.10277 0.26479 0.91402 0.0
C3317 C 0.10185 0.27997 0.92826 0.0
C3318 C 0.11336 0.2159 0.87157 0.0
C3319 C 0.11118 0.22261 0.85176 0.0
C3320 C 0.11618 0.22946 0.88717 0.0
C3321 C 0.11744 0.24998 0.88328 0.0
C3322 C 0.11616 0.25674 0.86351 0.0
C3323 C 0.1129 0.24323 0.84793 0.0
H3324 H 0.51627 0.66034 0.3018 0.0
H3325 H 0.53363 0.60921 0.33703 0.0
H3326 H 0.48368 0.66045 0.31819 0.0
H3327 H 0.50168 0.60971 0.35378 0.0
H3328 H 0.44208 0.60967 0.38072 0.0
H3329 H 0.46672 0.60577 0.35413 0.0
H3330 H 0.47297 0.66996 0.35077 0.0
H3331 H 0.44801 0.67376 0.3768 0.0
C3332 C 0.51303 0.64892 0.31275 0.0
C3333 C 0.52768 0.63499 0.31834 0.0
C3334 C 0.4944 0.64906 0.32228 0.0
C3335 C 0.49007 0.63526 0.33754 0.0
C3336 C 0.50427 0.62047 0.34201 0.0
C3337 C 0.52278 0.62031 0.3325 0.0
C3338 C 0.4485 0.62291 0.37401 0.0
C3339 C 0.44329 0.642 0.38098 0.0
C3340 C 0.46264 0.62071 0.35881 0.0
C3341 C 0.4721 0.63754 0.35046 0.0
C3342 C 0.46589 0.65665 0.35661 0.0
C3343 C 0.4516 0.65884 0.37163 0.0
H3344 H 0.60644 0.89916 0.82667 0.0
H3345 H 0.55024 0.89733 0.79511 0.0
H3346 H 0.62397 0.8909 0.79649 0.0
H3347 H 0.56794 0.88788 0.76455 0.0
H3348 H 0.61056 0.9028 0.71158 0.0
H3349 H 0.58885 0.90276 0.74052 0.0
H3350 H 0.63205 0.86729 0.77272 0.0
H3351 H 0.65467 0.86926 0.74473 0.0
C3352 C 0.59773 0.89657 0.81331 0.0
C3353 C 0.57693 0.89906 0.81327 0.0
C3354 C 0.60783 0.89155 0.79592 0.0
C3355 C 0.59743 0.88854 0.77798 0.0
C3356 C 0.57647 0.8903 0.77805 0.0
C3357 C 0.5663 0.89561 0.79555 0.0
C3358 C 0.61555 0.89512 0.72488 0.0
C3359 C 0.63476 0.88664 0.7259 0.0
C3360 C 0.60285 0.89475 0.74141 0.0
C3361 C 0.60886 0.88544 0.7592 0.0
C3362 C 0.62719 0.8752 0.7595 0.0
C3363 C 0.6401 0.87604 0.7432 0.0
H3364 H 0.55932 0.15051 0.68664 0.0
H3365 H 0.55256 0.08953 0.70655 0.0
H3366 H 0.58361 0.15647 0.71345 0.0
H3367 H 0.57633 0.09553 0.73325 0.0
H3368 H 0.60871 0.11469 0.78764 0.0
H3369 H 0.58056 0.11681 0.76474 0.0
H3370 H 0.61928 0.14109 0.71931 0.0
H3371 H 0.64766 0.13868 0.74217 0.0
C3372 C 0.56263 0.13858 0.69704 0.0
C3373 C 0.55405 0.11958 0.69462 0.0
C3374 C 0.57658 0.14195 0.71222 0.0
C3375 C 0.58174 0.12648 0.7254 0.0
C3376 C 0.57243 0.10779 0.72346 0.0
C3377 C 0.55887 0.10433 0.70813 0.0
C3378 C 0.61121 0.12064 0.77282 0.0
C3379 C 0.63047 0.12611 0.76654 0.0
C3380 C 0.59508 0.12196 0.75979 0.0
C3381 C 0.59784 0.12893 0.74026 0.0
C3382 C 0.61677 0.13579 0.73438 0.0
C3383 C 0.633 0.13437 0.74743 0.0
H3384 H 0.39094 0.10389 0.49039 0.0
H3385 H 0.37004 0.14414 0.44437 0.0
H3386 H 0.39036 0.13119 0.51432 0.0
H3387 H 0.36827 0.17101 0.46891 0.0
H3388 H 0.3373 0.19428 0.52985 0.0
H3389 H 0.3443 0.17176 0.50202 0.0
H3390 H 0.40606 0.1686 0.51989 0.0
H3391 H 0.39923 0.19171 0.54751 0.0
C3392 C 0.38664 0.11856 0.48515 0.0
C3393 C 0.38033 0.12157 0.46532 0.0
C3394 C 0.38621 0.13418 0.49898 0.0
C3395 C 0.37914 0.15309 0.49344 0.0
C3396 C 0.37362 0.15646 0.47354 0.0
C3397 C 0.37447 0.14096 0.45956 0.0
C3398 C 0.35244 0.18908 0.52765 0.0
C3399 C 0.36773 0.19478 0.54082 0.0
C3400 C 0.35645 0.17628 0.51168 0.0
C3401 C 0.37571 0.16855 0.50885 0.0
C3402 C 0.3911 0.17445 0.52178 0.0
C3403 C 0.3872 0.18769 0.53749 0.0
H3404 H 0.3694 0.35755 0.78524 0.0
H3405 H 0.39182 0.41755 0.79403 0.0
H3406 H 0.39437 0.35192 0.7599 0.0
H3407 H 0.41541 0.41255 0.76701 0.0
H3408 H 0.46028 0.39854 0.71964 0.0
H3409 H 0.4438 0.39779 0.75221 0.0
H3410 H 0.39649 0.36174 0.72705 0.0
H3411 H 0.41322 0.36175 0.69529 0.0
C3412 C 0.37973 0.36954 0.78203 0.0
C3413 C 0.37819 0.38818 0.79164 0.0
C3414 C 0.39394 0.36638 0.76713 0.0
C3415 C 0.40663 0.38192 0.76094 0.0
C3416 C 0.40593 0.40018 0.77131 0.0
C3417 C 0.39203 0.40319 0.7866 0.0
C3418 C 0.44659 0.39011 0.72127 0.0
C3419 C 0.43791 0.38048 0.70478 0.0
C3420 C 0.43705 0.3898 0.73989 0.0
C3421 C 0.41866 0.37988 0.74233 0.0
C3422 C 0.41073 0.36931 0.72602 0.0
C3423 C 0.42029 0.36949 0.7076 0.0
H3424 H 0.12914 0.91931 0.99967 0.0
H3425 H 0.17496 0.88158 0.97421 0.0
H3426 H 0.12585 0.8965 0.02753 0.0
H3427 H 0.17282 0.85963 0.003 0.0
H3428 H 0.15944 0.81732 0.0532 0.0
H3429 H 0.15458 0.83571 0.02207 0.0
H3430 H 0.1452 0.88998 0.05584 0.0
H3431 H 0.14922 0.87164 0.08657 0.0
C3432 C 0.13841 0.90608 0.99986 0.0
C3433 C 0.15249 0.90247 0.98471 0.0
C3434 C 0.13671 0.89309 0.01605 0.0
C3435 C 0.14927 0.87636 0.01772 0.0
C3436 C 0.16279 0.87229 0.00219 0.0
C3437 C 0.16429 0.88512 0.98582 0.0
C3438 C 0.15596 0.8331 0.05391 0.0
C3439 C 0.15491 0.84304 0.07234 0.0
C3440 C 0.15332 0.84367 0.03608 0.0
C3441 C 0.14963 0.86438 0.0364 0.0
C3442 C 0.14771 0.87403 0.05493 0.0
C3443 C 0.15021 0.86349 0.07264 0.0
H3444 H 0.88588 0.08325 0.20442 0.0
H3445 H 0.85164 0.12931 0.23386 0.0
H3446 H 0.91309 0.08841 0.22798 0.0
H3447 H 0.87887 0.13441 0.25756 0.0
H3448 H 0.93711 0.1455 0.29154 0.0
H3449 H 0.91434 0.1449 0.26285 0.0
H3450 H 0.91573 0.08038 0.2633 0.0
H3451 H 0.93831 0.08097 0.29137 0.0
C3452 C 0.8842 0.09451 0.21591 0.0
C3453 C 0.8665 0.10565 0.21749 0.0
C3454 C 0.8998 0.09752 0.22935 0.0
C3455 C 0.89804 0.11169 0.24474 0.0
C3456 C 0.88075 0.12352 0.24575 0.0
C3457 C 0.86512 0.12054 0.23223 0.0
C3458 C 0.93278 0.13124 0.28523 0.0
C3459 C 0.93944 0.11328 0.2938 0.0
C3460 C 0.91966 0.13089 0.26893 0.0
C3461 C 0.91325 0.11258 0.26081 0.0
C3462 C 0.92056 0.09474 0.26899 0.0
C3463 C 0.93343 0.09509 0.28525 0.0
H3464 H 0.3881 0.90692 0.99539 0.0
H3465 H 0.35636 0.87125 0.03879 0.0
H3466 H 0.38865 0.87841 0.97256 0.0
H3467 H 0.35655 0.84306 0.0158 0.0
H3468 H 0.33387 0.81347 0.95714 0.0
H3469 H 0.33865 0.83843 0.98299 0.0
H3470 H 0.40124 0.8421 0.96808 0.0
H3471 H 0.39646 0.81671 0.94205 0.0
C3472 C 0.38154 0.89296 1.00022 0.0
C3473 C 0.37191 0.89151 0.01883 0.0
C3474 C 0.38187 0.87663 0.98713 0.0
C3475 C 0.37249 0.85859 0.99235 0.0
C3476 C 0.36364 0.85688 0.01127 0.0
C3477 C 0.36344 0.87309 0.02437 0.0
C3478 C 0.34873 0.8193 0.95953 0.0
C3479 C 0.36479 0.81305 0.94758 0.0
C3480 C 0.35148 0.83359 0.97441 0.0
C3481 C 0.37032 0.84221 0.97756 0.0
C3482 C 0.38654 0.83573 0.96591 0.0
C3483 C 0.38384 0.8211 0.95116 0.0
H3484 H 0.60485 0.70445 0.9548 0.0
H3485 H 0.66093 0.67611 0.94009 0.0
H3486 H 0.59759 0.67748 0.9784 0.0
H3487 H 0.65384 0.64958 0.96361 0.0
H3488 H 0.60639 0.63752 0.03511 0.0
H3489 H 0.60946 0.66408 0.01038 0.0
H3490 H 0.63164 0.62133 0.96744 0.0
H3491 H 0.62947 0.59502 0.99236 0.0
C3492 C 0.61564 0.69255 0.95665 0.0
C3493 C 0.63337 0.69234 0.94545 0.0
C3494 C 0.61149 0.67713 0.97016 0.0
C3495 C 0.62502 0.66125 0.97268 0.0
C3496 C 0.64286 0.66129 0.96166 0.0
C3497 C 0.64697 0.67661 0.94823 0.0
C3498 C 0.61189 0.6338 0.02037 0.0
C3499 C 0.61792 0.61419 0.0158 0.0
C3500 C 0.61344 0.64898 0.00614 0.0
C3501 C 0.62104 0.64486 0.98704 0.0
C3502 C 0.62607 0.62505 0.98216 0.0
C3503 C 0.62458 0.60991 0.99637 0.0
H3504 H 0.23951 0.25344 0.43756 0.0
H3505 H 0.20625 0.20222 0.45829 0.0
H3506 H 0.25738 0.25471 0.46916 0.0
H3507 H 0.22408 0.20355 0.48998 0.0
H3508 H 0.24739 0.22389 0.55094 0.0
H3509 H 0.22835 0.224 0.52003 0.0
H3510 H 0.28252 0.2347 0.48674 0.0
H3511 H 0.30152 0.23523 0.5178 0.0
C3512 C 0.23601 0.24243 0.44885 0.0
C3513 C 0.22152 0.22764 0.4453 0.0
C3514 C 0.24629 0.24314 0.46695 0.0
C3515 C 0.2423 0.22912 0.48202 0.0
C3516 C 0.22739 0.21469 0.47874 0.0
C3517 C 0.21711 0.21395 0.46058 0.0
C3518 C 0.25524 0.22652 0.53708 0.0
C3519 C 0.27601 0.22969 0.53689 0.0
C3520 C 0.24433 0.22634 0.51932 0.0
C3521 C 0.25389 0.22938 0.50092 0.0
C3522 C 0.27466 0.23255 0.5007 0.0
C3523 C 0.28559 0.23265 0.51847 0.0
H3524 H 0.47491 0.50006 0.80873 0.0
H3525 H 0.48364 0.5529 0.77279 0.0
H3526 H 0.47665 0.47941 0.77906 0.0
H3527 H 0.48456 0.53214 0.74282 0.0
H3528 H 0.50684 0.48635 0.69653 0.0
H3529 H 0.50544 0.50759 0.72605 0.0
H3530 H 0.45765 0.47134 0.74973 0.0
H3531 H 0.45909 0.4501 0.72027 0.0
C3532 C 0.47729 0.50733 0.79453 0.0
C3533 C 0.4793 0.52823 0.79328 0.0
C3534 C 0.47801 0.49544 0.77741 0.0
C3535 C 0.48069 0.50406 0.75849 0.0
C3536 C 0.48267 0.52496 0.75717 0.0
C3537 C 0.48194 0.53691 0.77435 0.0
C3538 C 0.49596 0.48296 0.70797 0.0
C3539 C 0.48313 0.46644 0.70598 0.0
C3540 C 0.49512 0.49519 0.7249 0.0
C3541 C 0.48144 0.49122 0.7403 0.0
C3542 C 0.46861 0.47468 0.73832 0.0
C3543 C 0.46946 0.46244 0.72141 0.0
H3544 H 0.69431 0.25761 0.52425 0.0
H3545 H 0.75328 0.26022 0.54983 0.0
H3546 H 0.70899 0.25417 0.49099 0.0
H3547 H 0.76799 0.25746 0.51686 0.0
H3548 H 0.79135 0.23842 0.45697 0.0
H3549 H 0.77482 0.23682 0.48947 0.0
H3550 H 0.72598 0.27196 0.46623 0.0
H3551 H 0.74212 0.27298 0.43398 0.0
C3552 C 0.71039 0.25758 0.52274 0.0
C3553 C 0.72259 0.25906 0.53971 0.0
C3554 C 0.71887 0.25563 0.50367 0.0
C3555 C 0.73979 0.2554 0.50106 0.0
C3556 C 0.75189 0.25702 0.51814 0.0
C3557 C 0.74342 0.25872 0.53714 0.0
C3558 C 0.77694 0.24552 0.45879 0.0
C3559 C 0.76808 0.25568 0.44274 0.0
C3560 C 0.76749 0.24477 0.47748 0.0
C3561 C 0.74902 0.2544 0.48069 0.0
C3562 C 0.73994 0.26404 0.46442 0.0
C3563 C 0.74928 0.2646 0.44576 0.0
H3564 H 0.53726 0.04998 0.71696 0.0
H3565 H 0.49968 0.00489 0.69019 0.0
H3566 H 0.53695 0.03148 0.74825 0.0
H3567 H 0.49957 0.98636 0.72141 0.0
H3568 H 0.52008 0.94842 0.77501 0.0
H3569 H 0.52137 0.96667 0.74336 0.0
H3570 H 0.51445 0.02233 0.77521 0.0
H3571 H 0.5137 0.00426 0.80661 0.0
C3572 C 0.52876 0.03626 0.71771 0.0
C3573 C 0.51851 0.02903 0.70085 0.0
C3574 C 0.52863 0.02558 0.73571 0.0
C3575 C 0.5183 0.00732 0.7374 0.0
C3576 C 0.50799 1.00014 0.7206 0.0
C3577 C 0.50804 0.01085 0.70264 0.0
C3578 C 0.51897 0.96455 0.77523 0.0
C3579 C 0.51661 0.97478 0.79342 0.0
C3580 C 0.51953 0.97503 0.75708 0.0
C3581 C 0.51797 0.99603 0.75667 0.0
C3582 C 0.51588 0.00622 0.77489 0.0
C3583 C 0.51518 0.99577 0.79295 0.0
H3584 H 0.21092 0.80603 0.03854 0.0
H3585 H 0.24301 0.75271 0.05551 0.0
H3586 H 0.22745 0.80546 0.00605 0.0
H3587 H 0.25959 0.7523 0.02325 0.0
H3588 H 0.3019 0.77079 0.9728 0.0
H3589 H 0.28468 0.77173 0.00491 0.0
H3590 H 0.22944 0.78593 0.97498 0.0
H3591 H 0.24672 0.78552 0.943 0.0
C3592 C 0.2213 0.79407 0.03532 0.0
C3593 C 0.2257 0.77951 0.0498 0.0
C3594 C 0.23083 0.79377 0.01669 0.0
C3595 C 0.24502 0.77895 0.0121 0.0
C3596 C 0.24908 0.76418 0.02642 0.0
C3597 C 0.23953 0.76442 0.04496 0.0
C3598 C 0.28612 0.77424 0.97307 0.0
C3599 C 0.27572 0.77796 0.95525 0.0
C3600 C 0.27619 0.7746 0.99147 0.0
C3601 C 0.25563 0.77883 0.99253 0.0
C3602 C 0.24528 0.78275 0.97474 0.0
C3603 C 0.25518 0.78227 0.95635 0.0
H3604 H 0.01911 0.49387 0.31024 0.0
H3605 H 0.01899 0.4465 0.2664 0.0
H3606 H 0.01874 0.51854 0.28363 0.0
H3607 H 0.01958 0.47118 0.23984 0.0
H3608 H 0.00116 0.5198 0.19638 0.0
H3609 H 0.99949 0.49579 0.22362 0.0
H3610 H 0.03975 0.53245 0.2582 0.0
H3611 H 0.04121 0.55654 0.23099 0.0
C3612 C 0.01894 0.48864 0.29497 0.0
C3613 C 0.01906 0.46806 0.29061 0.0
C3614 C 0.01898 0.50286 0.27966 0.0
C3615 C 0.01917 0.49692 0.25952 0.0
C3616 C 0.01919 0.47636 0.25514 0.0
C3617 C 0.0191 0.46214 0.27045 0.0
C3618 C 0.00969 0.52272 0.20977 0.0
C3619 C 0.02135 0.54011 0.21143 0.0
C3620 C 0.00877 0.50891 0.22541 0.0
C3621 C 0.01957 0.51206 0.24314 0.0
C3622 C 0.031 0.52962 0.24491 0.0
C3623 C 0.03185 0.54348 0.22928 0.0
H3624 H 0.69199 0.72088 0.97351 0.0
H3625 H 0.7424 0.74691 0.94307 0.0
H3626 H 0.71185 0.71839 0.00417 0.0
H3627 H 0.76227 0.74429 0.97356 0.0
H3628 H 0.79654 0.71804 0.02763 0.0
H3629 H 0.77665 0.7171 0.9969 0.0
H3630 H 0.72733 0.74445 0.02807 0.0
H3631 H 0.74723 0.74552 0.05862 0.0
C3632 C 0.70735 0.72587 0.97333 0.0
C3633 C 0.7156 0.7342 0.95594 0.0
C3634 C 0.71868 0.72455 0.99088 0.0
C3635 C 0.73862 0.73116 0.99126 0.0
C3636 C 0.74701 0.73896 0.9737 0.0
C3637 C 0.73558 0.74062 0.9563 0.0
C3638 C 0.78141 0.72369 0.0279 0.0
C3639 C 0.7735 0.73197 0.04549 0.0
C3640 C 0.77007 0.72326 0.01032 0.0
C3641 C 0.75043 0.73071 0.01008 0.0
C3642 C 0.74236 0.73848 0.02781 0.0
C3643 C 0.75381 0.73926 0.04526 0.0
H3644 H 0.97862 0.99978 0.31327 0.0
H3645 H 0.9826 0.05328 0.2774 0.0
H3646 H 0.98043 0.97948 0.28339 0.0
H3647 H 0.98344 0.03285 0.24733 0.0
H3648 H 0.00371 0.98988 0.19836 0.0
H3649 H 0.00398 0.00999 0.2287 0.0
H3650 H 0.96064 0.97026 0.25523 0.0
H3651 H 0.96056 0.9501 0.22498 0.0
C3652 C 0.97999 0.00731 0.29907 0.0
C3653 C 0.98053 0.02832 0.29794 0.0
C3654 C 0.98075 0.99558 0.28182 0.0
C3655 C 0.98199 0.00445 0.26286 0.0
C3656 C 0.9827 0.02545 0.26167 0.0
C3657 C 0.98199 0.03722 0.27896 0.0
C3658 C 0.99423 0.98545 0.21066 0.0
C3659 C 0.98212 0.96834 0.20918 0.0
C3660 C 0.99433 0.99703 0.22806 0.0
C3661 C 0.98228 0.99185 0.24446 0.0
C3662 C 0.97036 0.97458 0.24306 0.0
C3663 C 0.97031 0.96296 0.22568 0.0
H3664 H 0.49715 0.19886 0.24117 0.0
H3665 H 0.45985 0.24721 0.22055 0.0
H3666 H 0.52583 0.22146 0.24186 0.0
H3667 H 0.48824 0.26981 0.22173 0.0
H3668 H 0.54844 0.29835 0.20526 0.0
H3669 H 0.5199 0.27586 0.20441 0.0
H3670 H 0.53784 0.25072 0.26092 0.0
H3671 H 0.56628 0.27335 0.26193 0.0
C3672 C 0.49507 0.21427 0.23677 0.0
C3673 C 0.47616 0.22121 0.23093 0.0
C3674 C 0.51145 0.22727 0.23734 0.0
C3675 C 0.50932 0.24747 0.2319 0.0
C3676 C 0.49045 0.25433 0.22587 0.0
C3677 C 0.4741 0.24139 0.22543 0.0
C3678 C 0.5462 0.28827 0.21767 0.0
C3679 C 0.55978 0.28773 0.23366 0.0
C3680 C 0.52983 0.2753 0.21714 0.0
C3681 C 0.52664 0.2614 0.23255 0.0
C3682 C 0.54007 0.26099 0.24864 0.0
C3683 C 0.55638 0.27401 0.24922 0.0
H3684 H 0.49634 0.30584 0.02517 0.0
H3685 H 0.44327 0.27014 0.01784 0.0
H3686 H 0.5169 0.27598 0.02235 0.0
H3687 H 0.46377 0.24023 0.01435 0.0
H3688 H 0.50374 0.18922 0.03559 0.0
H3689 H 0.48303 0.21887 0.03414 0.0
H3690 H 0.52975 0.24997 0.0023 0.0
H3691 H 0.55074 0.22019 0.00427 0.0
C3692 C 0.48908 0.29164 0.02251 0.0
C3693 C 0.46814 0.29036 0.02182 0.0
C3694 C 0.50089 0.27446 0.02085 0.0
C3695 C 0.49209 0.25552 0.01824 0.0
C3696 C 0.47114 0.25441 0.01681 0.0
C3697 C 0.45934 0.27157 0.01871 0.0
C3698 C 0.50951 0.20224 0.02795 0.0
C3699 C 0.52893 0.20224 0.01999 0.0
C3700 C 0.49757 0.21934 0.02709 0.0
C3701 C 0.50459 0.23697 0.01807 0.0
C3702 C 0.52389 0.23684 0.00967 0.0
C3703 C 0.53593 0.21973 0.01071 0.0
H3704 H 0.51634 0.70226 0.2605 0.0
H3705 H 0.54558 0.74813 0.2949 0.0
H3706 H 0.48714 0.72368 0.25674 0.0
H3707 H 0.5162 0.76932 0.29203 0.0
H3708 H 0.46747 0.81048 0.26871 0.0
H3709 H 0.49724 0.7895 0.271 0.0
H3710 H 0.45977 0.73693 0.2733 0.0
H3711 H 0.43037 0.75789 0.27013 0.0
C3712 C 0.51639 0.71686 0.26745 0.0
C3713 C 0.53325 0.72354 0.27792 0.0
C3714 C 0.49963 0.72918 0.2654 0.0
C3715 C 0.49915 0.74837 0.27409 0.0
C3716 C 0.51605 0.7549 0.28473 0.0
C3717 C 0.53291 0.7427 0.28649 0.0
C3718 C 0.46572 0.79443 0.26966 0.0
C3719 C 0.44663 0.78583 0.26902 0.0
C3720 C 0.48275 0.78235 0.27109 0.0
C3721 C 0.48106 0.76138 0.27228 0.0
C3722 C 0.46184 0.7529 0.2719 0.0
C3723 C 0.4449 0.76494 0.27014 0.0
H3724 H 0.99765 0.30924 0.94224 0.0
H3725 H 0.04595 0.27869 0.97194 0.0
H3726 H 0.97658 0.27994 0.94612 0.0
H3727 H 0.0249 0.24897 0.9754 0.0
H3728 H 0.97283 0.20933 0.99809 0.0
H3729 H 0.99483 0.23806 0.99396 0.0
H3730 H 0.97332 0.24586 0.93377 0.0
H3731 H 0.95152 0.21712 0.93776 0.0
C3732 C 0.00379 0.29626 0.94963 0.0
C3733 C 0.02347 0.29641 0.95693 0.0
C3734 C 0.99175 0.27935 0.95166 0.0
C3735 C 0.99901 0.26208 0.96109 0.0
C3736 C 0.01877 0.2621 0.96824 0.0
C3737 C 0.03091 0.27905 0.96609 0.0
C3738 C 0.97285 0.21707 0.98393 0.0
C3739 C 0.96024 0.21084 0.96831 0.0
C3740 C 0.98553 0.23353 0.98155 0.0
C3741 C 0.98587 0.24427 0.96354 0.0
C3742 C 0.97324 0.23811 0.94795 0.0
C3743 C 0.96063 0.22162 0.95029 0.0
H3744 H 0.21178 0.48402 0.1922 0.0
H3745 H 0.21382 0.44047 0.23969 0.0
H3746 H 0.21189 0.51084 0.21677 0.0
H3747 H 0.21463 0.46732 0.26424 0.0
H3748 H 0.19406 0.5212 0.30219 0.0
H3749 H 0.19354 0.49373 0.27824 0.0
H3750 H 0.23493 0.52582 0.24063 0.0
H3751 H 0.23549 0.55318 0.26452 0.0
C3752 C 0.2122 0.48014 0.20786 0.0
C3753 C 0.21285 0.46005 0.21392 0.0
C3754 C 0.21249 0.49553 0.22196 0.0
C3755 C 0.21339 0.49123 0.24248 0.0
C3756 C 0.21381 0.47115 0.24856 0.0
C3757 C 0.21357 0.45575 0.23446 0.0
C3758 C 0.20323 0.5223 0.28895 0.0
C3759 C 0.21472 0.53949 0.28525 0.0
C3760 C 0.20291 0.50655 0.27519 0.0
C3761 C 0.21406 0.50765 0.25743 0.0
C3762 C 0.22583 0.52467 0.25394 0.0
C3763 C 0.22617 0.54036 0.26767 0.0
H3764 H 0.6763 0.51675 0.00048 0.0
H3765 H 0.70569 0.54529 0.05015 0.0
H3766 H 0.70746 0.51763 0.98145 0.0
H3767 H 0.73696 0.54609 0.03114 0.0
H3768 H 0.79152 0.51431 1.0 0.0
H3769 H 0.76035 0.51822 0.01856 0.0
H3770 H 0.73229 0.54305 0.9662 0.0
H3771 H 0.76367 0.53925 0.94763 0.0
C3772 C 0.68943 0.52327 0.00729 0.0
C3773 C 0.68861 0.53084 0.02684 0.0
C3774 C 0.7072 0.52393 0.99634 0.0
C3775 C 0.72464 0.5319 0.00483 0.0
C3776 C 0.72376 0.53978 0.02426 0.0
C3777 C 0.70587 0.53943 0.03509 0.0
C3778 C 0.77871 0.52067 0.99249 0.0
C3779 C 0.77996 0.52636 0.97234 0.0
C3780 C 0.76093 0.52306 0.00315 0.0
C3781 C 0.74389 0.53091 0.99382 0.0
C3782 C 0.74518 0.53688 0.97374 0.0
C3783 C 0.76312 0.53481 0.96316 0.0
H3784 H 0.74796 0.0542 0.23931 0.0
H3785 H 0.78756 0.02117 0.20036 0.0
H3786 H 0.74619 0.02558 0.26155 0.0
H3787 H 0.7852 0.9925 0.22241 0.0
H3788 H 0.76052 0.93885 0.25778 0.0
H3789 H 0.7601 0.96726 0.23491 0.0
H3790 H 0.77012 0.00732 0.28439 0.0
H3791 H 0.77043 0.97887 0.30729 0.0
C3792 C 0.75633 0.04097 0.23538 0.0
C3793 C 0.76809 0.04035 0.21793 0.0
C3794 C 0.75524 0.02449 0.24819 0.0
C3795 C 0.76562 0.0068 0.24381 0.0
C3796 C 0.77689 0.00587 0.22613 0.0
C3797 C 0.77819 0.02243 0.21342 0.0
C3798 C 0.76238 0.95373 0.26382 0.0
C3799 C 0.76547 0.9566 0.28438 0.0
C3800 C 0.76233 0.96999 0.25068 0.0
C3801 C 0.7651 0.98954 0.25782 0.0
C3802 C 0.7678 0.99246 0.27844 0.0
C3803 C 0.76812 0.97616 0.29154 0.0
H3804 H 0.69342 0.48292 0.50353 0.0
H3805 H 0.7255 0.47446 0.44831 0.0
H3806 H 0.72461 0.48161 0.522 0.0
H3807 H 0.75695 0.47279 0.46695 0.0
H3808 H 0.80893 0.4975 0.50636 0.0
H3809 H 0.7784 0.49588 0.48662 0.0
H3810 H 0.75138 0.45829 0.53146 0.0
H3811 H 0.78182 0.46026 0.55142 0.0
C3812 C 0.70715 0.48082 0.4953 0.0
C3813 C 0.70695 0.47902 0.47438 0.0
C3814 C 0.72505 0.47981 0.50595 0.0
C3815 C 0.74331 0.47708 0.49599 0.0
C3816 C 0.74315 0.47506 0.47507 0.0
C3817 C 0.72515 0.47588 0.46439 0.0
C3818 C 0.79647 0.48893 0.51206 0.0
C3819 C 0.7978 0.47916 0.5306 0.0
C3820 C 0.77903 0.48781 0.50061 0.0
C3821 C 0.7624 0.47701 0.50746 0.0
C3822 C 0.76385 0.46691 0.52583 0.0
C3823 C 0.78136 0.4679 0.5372 0.0
H3824 H 0.25818 0.54361 0.74263 0.0
H3825 H 0.30297 0.51576 0.70563 0.0
H3826 H 0.25568 0.51336 0.76256 0.0
H3827 H 0.30075 0.48542 0.7258 0.0
H3828 H 0.28148 0.42831 0.75743 0.0
H3829 H 0.28039 0.45727 0.73544 0.0
H3830 H 0.27507 0.496 0.78675 0.0
H3831 H 0.27522 0.46707 0.8086 0.0
C3832 C 0.26757 0.53102 0.7388 0.0
C3833 C 0.28093 0.53218 0.72266 0.0
C3834 C 0.26617 0.51365 0.75026 0.0
C3835 C 0.27818 0.49696 0.746 0.0
C3836 C 0.29112 0.49789 0.72944 0.0
C3837 C 0.29244 0.51529 0.71787 0.0
C3838 C 0.2797 0.44295 0.76403 0.0
C3839 C 0.27847 0.44527 0.78488 0.0
C3840 C 0.27935 0.45962 0.75139 0.0
C3841 C 0.27773 0.47904 0.75926 0.0
C3842 C 0.2761 0.4813 0.78008 0.0
C3843 C 0.27642 0.46467 0.79268 0.0
H3844 H 0.20892 0.02344 0.50082 0.0
H3845 H 0.23561 0.01758 0.55909 0.0
H3846 H 0.24166 0.02224 0.48547 0.0
H3847 H 0.2687 0.01595 0.54366 0.0
H3848 H 0.32475 0.03759 0.50947 0.0
H3849 H 0.2928 0.03573 0.52659 0.0
H3850 H 0.26879 0.00107 0.47777 0.0
H3851 H 0.30074 0.00339 0.46045 0.0
C3852 C 0.22179 0.02156 0.51037 0.0
C3853 C 0.21959 0.02044 0.53121 0.0
C3854 C 0.24065 0.0208 0.50153 0.0
C3855 C 0.25794 0.01876 0.51324 0.0
C3856 C 0.25577 0.0177 0.53414 0.0
C3857 C 0.23682 0.01862 0.54302 0.0
C3858 C 0.31278 0.02925 0.50254 0.0
C3859 C 0.31532 0.02069 0.48352 0.0
C3860 C 0.29439 0.02818 0.51239 0.0
C3861 C 0.27805 0.0184 0.50356 0.0
C3862 C 0.28086 0.00914 0.48487 0.0
C3863 C 0.29921 0.01036 0.47495 0.0
H3864 H 0.07176 0.75415 0.74836 0.0
H3865 H 0.03246 0.80277 0.73224 0.0
H3866 H 0.04324 0.73156 0.74936 0.0
H3867 H 0.00411 0.78026 0.73375 0.0
H3868 H 0.95605 0.73765 0.75837 0.0
H3869 H 0.98468 0.76013 0.75821 0.0
H3870 H 0.01865 0.71658 0.72495 0.0
H3871 H 0.98988 0.69391 0.72528 0.0
C3872 C 0.05713 0.76013 0.74511 0.0
C3873 C 0.05466 0.78045 0.74017 0.0
C3874 C 0.04075 0.7471 0.74564 0.0
C3875 C 0.0214 0.75405 0.74151 0.0
C3876 C 0.01879 0.77443 0.73718 0.0
C3877 C 0.03516 0.78742 0.73644 0.0
C3878 C 0.96964 0.73281 0.7511 0.0
C3879 C 0.97069 0.71393 0.7419 0.0
C3880 C 0.98601 0.74577 0.75088 0.0
C3881 C 0.00398 0.74016 0.74162 0.0
C3882 C 0.00508 0.72128 0.73238 0.0
C3883 C 0.98856 0.70838 0.73238 0.0
H3884 H 0.04792 0.72841 0.54836 0.0
H3885 H 0.00691 0.69009 0.51666 0.0
H3886 H 0.0262 0.75698 0.54191 0.0
H3887 H 0.98529 0.71854 0.51021 0.0
H3888 H 0.94019 0.7677 0.52623 0.0
H3889 H 0.96321 0.73977 0.52931 0.0
H3890 H 0.01264 0.77904 0.5161 0.0
H3891 H 0.98956 0.80718 0.51365 0.0
C3892 C 0.03444 0.72611 0.53978 0.0
C3893 C 0.02909 0.70687 0.53323 0.0
C3894 C 0.02197 0.74251 0.53606 0.0
C3895 C 0.00388 0.74005 0.52568 0.0
C3896 C 0.99888 0.72092 0.51861 0.0
C3897 C 0.0113 0.70458 0.52233 0.0
C3898 C 0.95595 0.7704 0.52396 0.0
C3899 C 0.96299 0.78973 0.51977 0.0
C3900 C 0.96917 0.75432 0.52554 0.0
C3901 C 0.98982 0.75712 0.52298 0.0
C3902 C 0.99685 0.77638 0.51836 0.0
C3903 C 0.98359 0.79248 0.51671 0.0
H3904 H 0.03146 0.21023 0.79419 0.0
H3905 H 0.03715 0.22253 0.7311 0.0
H3906 H 0.00139 0.23051 0.79533 0.0
H3907 H 0.00725 0.24305 0.73247 0.0
H3908 H 0.96463 0.29554 0.74898 0.0
H3909 H 0.99479 0.27502 0.74664 0.0
H3910 H 0.96682 0.22982 0.78307 0.0
H3911 H 0.93705 0.25035 0.78576 0.0
C3912 C 0.02636 0.21707 0.7805 0.0
C3913 C 0.03701 0.21456 0.76254 0.0
C3914 C 0.00903 0.22878 0.78119 0.0
C3915 C 0.00186 0.23844 0.76399 0.0
C3916 C 0.01248 0.23605 0.74606 0.0
C3917 C 0.02973 0.22422 0.74532 0.0
C3918 C 0.9649 0.28121 0.75643 0.0
C3919 C 0.94828 0.27465 0.76748 0.0
C3920 C 0.98215 0.26938 0.755 0.0
C3921 C 0.98329 0.25079 0.76477 0.0
C3922 C 0.96658 0.24414 0.77555 0.0
C3923 C 0.94933 0.25585 0.77685 0.0
H3924 H 0.49199 0.69163 0.49986 0.0
H3925 H 0.44662 0.72704 0.47095 0.0
H3926 H 0.51297 0.72124 0.50314 0.0
H3927 H 0.46758 0.75655 0.474 0.0
H3928 H 0.50416 0.80975 0.49328 0.0
H3929 H 0.48254 0.78065 0.49585 0.0
H3930 H 0.53245 0.7423 0.48179 0.0
H3931 H 0.55424 0.77127 0.48013 0.0
C3932 C 0.48645 0.70575 0.49429 0.0
C3933 C 0.46762 0.70689 0.4851 0.0
C3934 C 0.49851 0.72274 0.4961 0.0
C3935 C 0.49209 0.74133 0.48869 0.0
C3936 C 0.47296 0.7426 0.48013 0.0
C3937 C 0.46087 0.72562 0.47839 0.0
C3938 C 0.51066 0.79512 0.49111 0.0
C3939 C 0.53103 0.79299 0.48637 0.0
C3940 C 0.49815 0.77839 0.49235 0.0
C3941 C 0.50565 0.75906 0.4889 0.0
C3942 C 0.52612 0.75689 0.48473 0.0
C3943 C 0.53863 0.7736 0.48352 0.0
H3944 H 0.7279 0.94688 0.74135 0.0
H3945 H 0.70326 0.97894 0.69124 0.0
H3946 H 0.72606 0.97701 0.76164 0.0
H3947 H 0.70098 0.00911 0.71175 0.0
H3948 H 0.72602 0.06335 0.74648 0.0
H3949 H 0.72434 0.03304 0.72656 0.0
H3950 H 0.70273 1.00049 0.77781 0.0
H3951 H 0.70482 0.031 0.79798 0.0
C3952 C 0.72209 0.96036 0.73462 0.0
C3953 C 0.71595 0.9605 0.71453 0.0
C3954 C 0.72078 0.97761 0.74638 0.0
C3955 C 0.71341 0.99554 0.73836 0.0
C3956 C 0.70692 0.99561 0.71837 0.0
C3957 C 0.70809 0.97828 0.70663 0.0
C3958 C 0.721 0.04974 0.75359 0.0
C3959 C 0.7158 0.04959 0.77394 0.0
C3960 C 0.71979 0.03237 0.74206 0.0
C3961 C 0.71342 0.01427 0.75053 0.0
C3962 C 0.70787 0.01414 0.77083 0.0
C3963 C 0.70892 0.03163 0.78237 0.0
H3964 H 0.32014 1.0 0.99981 0.0
H3965 H 0.28801 0.97388 0.04923 0.0
H3966 H 0.2895 0.00186 0.98073 0.0
H3967 H 0.25722 0.97504 0.02965 0.0
H3968 H 0.20242 0.99965 0.99609 0.0
H3969 H 0.23287 0.99832 0.01594 0.0
H3970 H 0.26619 0.98097 0.96355 0.0
H3971 H 0.23595 0.98305 0.94359 0.0
C3972 C 0.30654 0.99469 0.00671 0.0
C3973 C 0.30666 0.98693 0.02624 0.0
C3974 C 0.28892 0.99552 0.99558 0.0
C3975 C 0.2708 0.98857 0.00355 0.0
C3976 C 0.27085 0.98074 0.02306 0.0
C3977 C 0.28856 0.97987 0.03424 0.0
C3978 C 0.21626 0.99583 0.98871 0.0
C3979 C 0.21662 0.99154 0.96813 0.0
C3980 C 0.23372 0.99478 1.00019 0.0
C3981 C 0.25206 0.98949 0.99142 0.0
C3982 C 0.25243 0.98531 0.97083 0.0
C3983 C 0.23499 0.98633 0.95937 0.0
loop_
_geom_bond_atom_site_label_1
_geom_bond_atom_site_label_2
_geom_bond_distance
_geom_bond_site_symmetry_2
_ccdc_geom_bond_type
C0 C1 1.351 . S
C0 N3 1.368 . S
C0 H5 0.931 . S
C1 C0 1.351 . S
C1 N2 1.373 . S
C1 H29 0.930 . S
N2 C1 1.373 . S
N2 C4 1.340 . S
N3 C0 1.368 . S
N3 C4 1.321 . S
N3 Co6 2.135 . S
C4 N2 1.340 . S
C4 N3 1.321 . S
C4 H28 0.930 . S
H5 C0 0.931 . S
Co6 N3 2.135 . S
Co6 N9 2.121 . S
Co6 O14 2.055 . S
Co6 O17 2.039 . S
Co6 N20 2.140 . S
C7 O8 1.227 . S
C7 O17 1.265 . S
O8 C7 1.227 . S
N9 Co6 2.121 . S
N9 C11 1.375 . S
N9 C12 1.313 . S
C10 C11 1.338 . S
C10 N13 1.377 . S
C10 H30 0.930 . S
C11 N9 1.375 . S
C11 C10 1.338 . S
C11 H15 0.931 . S
C12 N9 1.313 . S
C12 N13 1.344 . S
C12 H16 0.930 . S
N13 C10 1.377 . S
N13 C12 1.344 . S
O14 Co6 2.055 . S
O14 C18 1.253 . S
H15 C11 0.931 . S
H16 C12 0.930 . S
O17 Co6 2.039 . S
O17 C7 1.265 . S
C18 O14 1.253 . S
C18 O19 1.227 . S
O19 C18 1.227 . S
N20 Co6 2.140 . S
N20 C23 1.346 . S
N20 C24 1.345 . S
C21 C22 1.387 . S
C21 C25 1.391 . S
C22 C21 1.387 . S
C22 C23 1.369 . S
C22 H31 0.929 . S
C23 N20 1.346 . S
C23 C22 1.369 . S
C23 H26 0.928 . S
C24 N20 1.345 . S
C24 C25 1.371 . S
C24 H27 0.931 . S
C25 C21 1.391 . S
C25 C24 1.371 . S
C25 H32 0.930 . S
H26 C23 0.928 . S
H27 C24 0.931 . S
H28 C4 0.930 . S
H29 C1 0.930 . S
H30 C10 0.930 . S
H31 C22 0.929 . S
H32 C25 0.930 . S
C33 C34 1.351 . S
C33 N36 1.368 . S
C33 H38 0.931 . S
C34 C33 1.351 . S
C34 N35 1.373 . S
C34 H62 0.930 . S
N35 C34 1.373 . S
N35 C37 1.340 . S
N36 C33 1.368 . S
N36 C37 1.321 . S
N36 Co39 2.135 . S
C37 N35 1.340 . S
C37 N36 1.321 . S
C37 H61 0.930 . S
H38 C33 0.931 . S
Co39 N36 2.135 . S
Co39 N42 2.121 . S
Co39 O47 2.055 . S
Co39 O50 2.039 . S
Co39 N53 2.140 . S
C40 O41 1.227 . S
C40 O50 1.265 . S
O41 C40 1.227 . S
N42 Co39 2.121 . S
N42 C44 1.375 . S
N42 C45 1.313 . S
C43 C44 1.338 . S
C43 N46 1.377 . S
C43 H63 0.930 . S
C44 N42 1.375 . S
C44 C43 1.338 . S
C44 H48 0.931 . S
C45 N42 1.313 . S
C45 N46 1.344 . S
C45 H49 0.930 . S
N46 C43 1.377 . S
N46 C45 1.344 . S
O47 Co39 2.055 . S
O47 C51 1.253 . S
H48 C44 0.931 . S
H49 C45 0.930 . S
O50 Co39 2.039 . S
O50 C40 1.265 . S
C51 O47 1.253 . S
C51 O52 1.227 . S
O52 C51 1.227 . S
N53 Co39 2.140 . S
N53 C56 1.346 . S
N53 C57 1.345 . S
C54 C55 1.387 . S
C54 C58 1.391 . S
C55 C54 1.387 . S
C55 C56 1.369 . S
C55 H64 0.929 . S
C56 N53 1.346 . S
C56 C55 1.369 . S
C56 H59 0.928 . S
C57 N53 1.345 . S
C57 C58 1.371 . S
C57 H60 0.931 . S
C58 C54 1.391 . S
C58 C57 1.371 . S
C58 H65 0.930 . S
H59 C56 0.928 . S
H60 C57 0.931 . S
H61 C37 0.930 . S
H62 C34 0.930 . S
H63 C43 0.930 . S
H64 C55 0.929 . S
H65 C58 0.930 . S
C66 C67 1.351 . S
C66 N69 1.368 . S
C66 H71 0.931 . S
C67 C66 1.351 . S
C67 N68 1.373 . S
C67 H95 0.930 . S
N68 C67 1.373 . S
N68 C70 1.340 . S
N69 C66 1.368 . S
N69 C70 1.321 . S
N69 Co72 2.135 . S
C70 N68 1.340 . S
C70 N69 1.321 . S
C70 H94 0.930 . S
H71 C66 0.931 . S
Co72 N69 2.135 . S
Co72 N75 2.121 . S
Co72 O80 2.055 . S
Co72 O83 2.039 . S
Co72 N86 2.140 . S
C73 O74 1.227 . S
C73 O83 1.265 . S
O74 C73 1.227 . S
N75 Co72 2.121 . S
N75 C77 1.375 . S
N75 C78 1.313 . S
C76 C77 1.338 . S
C76 N79 1.377 . S
C76 H96 0.930 . S
C77 N75 1.375 . S
C77 C76 1.338 . S
C77 H81 0.931 . S
C78 N75 1.313 . S
C78 N79 1.344 . S
C78 H82 0.930 . S
N79 C76 1.377 . S
N79 C78 1.344 . S
O80 Co72 2.055 . S
O80 C84 1.253 . S
H81 C77 0.931 . S
H82 C78 0.930 . S
O83 Co72 2.039 . S
O83 C73 1.265 . S
C84 O80 1.253 . S
C84 O85 1.227 . S
O85 C84 1.227 . S
N86 Co72 2.140 . S
N86 C89 1.346 . S
N86 C90 1.345 . S
C87 C88 1.387 . S
C87 C91 1.391 . S
C88 C87 1.387 . S
C88 C89 1.369 . S
C88 H97 0.929 . S
C89 N86 1.346 . S
C89 C88 1.369 . S
C89 H92 0.928 . S
C90 N86 1.345 . S
C90 C91 1.371 . S
C90 H93 0.931 . S
C91 C87 1.391 . S
C91 C90 1.371 . S
C91 H98 0.930 . S
H92 C89 0.928 . S
H93 C90 0.931 . S
H94 C70 0.930 . S
H95 C67 0.930 . S
H96 C76 0.930 . S
H97 C88 0.929 . S
H98 C91 0.930 . S
C99 C100 1.351 . S
C99 N102 1.368 . S
C99 H104 0.931 . S
C100 C99 1.351 . S
C100 N101 1.373 . S
C100 H128 0.930 . S
N101 C100 1.373 . S
N101 C103 1.340 . S
N102 C99 1.368 . S
N102 C103 1.321 . S
N102 Co105 2.135 . S
C103 N101 1.340 . S
C103 N102 1.321 . S
C103 H127 0.930 . S
H104 C99 0.931 . S
Co105 N102 2.135 . S
Co105 N108 2.121 . S
Co105 O113 2.055 . S
Co105 O116 2.039 . S
Co105 N119 2.140 . S
C106 O107 1.227 . S
C106 O116 1.265 . S
O107 C106 1.227 . S
N108 Co105 2.121 . S
N108 C110 1.375 . S
N108 C111 1.313 . S
C109 C110 1.338 . S
C109 N112 1.377 . S
C109 H129 0.930 . S
C110 N108 1.375 . S
C110 C109 1.338 . S
C110 H114 0.931 . S
C111 N108 1.313 . S
C111 N112 1.344 . S
C111 H115 0.930 . S
N112 C109 1.377 . S
N112 C111 1.344 . S
O113 Co105 2.055 . S
O113 C117 1.253 . S
H114 C110 0.931 . S
H115 C111 0.930 . S
O116 Co105 2.039 . S
O116 C106 1.265 . S
C117 O113 1.253 . S
C117 O118 1.227 . S
O118 C117 1.227 . S
N119 Co105 2.140 . S
N119 C122 1.346 . S
N119 C123 1.345 . S
C120 C121 1.387 . S
C120 C124 1.391 . S
C121 C120 1.387 . S
C121 C122 1.369 . S
C121 H130 0.929 . S
C122 N119 1.346 . S
C122 C121 1.369 . S
C122 H125 0.928 . S
C123 N119 1.345 . S
C123 C124 1.371 . S
C123 H126 0.931 . S
C124 C120 1.391 . S
C124 C123 1.371 . S
C124 H131 0.930 . S
H125 C122 0.928 . S
H126 C123 0.931 . S
H127 C103 0.930 . S
H128 C100 0.930 . S
H129 C109 0.930 . S
H130 C121 0.929 . S
H131 C124 0.930 . S
C132 C133 1.351 . S
C132 N135 1.368 . S
C132 H137 0.931 . S
C133 C132 1.351 . S
C133 N134 1.373 . S
C133 H161 0.930 . S
N134 C133 1.373 . S
N134 C136 1.340 . S
N135 C132 1.368 . S
N135 C136 1.321 . S
N135 Co138 2.135 . S
C136 N134 1.340 . S
C136 N135 1.321 . S
C136 H160 0.930 . S
H137 C132 0.931 . S
Co138 N135 2.135 . S
Co138 N141 2.121 . S
Co138 O146 2.055 . S
Co138 O149 2.039 . S
Co138 N152 2.140 . S
C139 O140 1.227 . S
C139 O149 1.265 . S
O140 C139 1.227 . S
N141 Co138 2.121 . S
N141 C143 1.375 . S
N141 C144 1.313 . S
C142 C143 1.338 . S
C142 N145 1.377 . S
C142 H162 0.930 . S
C143 N141 1.375 . S
C143 C142 1.338 . S
C143 H147 0.931 . S
C144 N141 1.313 . S
C144 N145 1.344 . S
C144 H148 0.930 . S
N145 C142 1.377 . S
N145 C144 1.344 . S
O146 Co138 2.055 . S
O146 C150 1.253 . S
H147 C143 0.931 . S
H148 C144 0.930 . S
O149 Co138 2.039 . S
O149 C139 1.265 . S
C150 O146 1.253 . S
C150 O151 1.227 . S
O151 C150 1.227 . S
N152 Co138 2.140 . S
N152 C155 1.346 . S
N152 C156 1.345 . S
C153 C154 1.387 . S
C153 C157 1.391 . S
C154 C153 1.387 . S
C154 C155 1.369 . S
C154 H163 0.929 . S
C155 N152 1.346 . S
C155 C154 1.369 . S
C155 H158 0.928 . S
C156 N152 1.345 . S
C156 C157 1.371 . S
C156 H159 0.931 . S
C157 C153 1.391 . S
C157 C156 1.371 . S
C157 H164 0.930 . S
H158 C155 0.928 . S
H159 C156 0.931 . S
H160 C136 0.930 . S
H161 C133 0.930 . S
H162 C142 0.930 . S
H163 C154 0.929 . S
H164 C157 0.930 . S
C165 C166 1.351 . S
C165 N168 1.368 . S
C165 H170 0.931 . S
C166 C165 1.351 . S
C166 N167 1.373 . S
C166 H194 0.930 . S
N167 C166 1.373 . S
N167 C169 1.340 . S
N168 C165 1.368 . S
N168 C169 1.321 . S
N168 Co171 2.135 . S
C169 N167 1.340 . S
C169 N168 1.321 . S
C169 H193 0.930 . S
H170 C165 0.931 . S
Co171 N168 2.135 . S
Co171 N174 2.121 . S
Co171 O179 2.055 . S
Co171 O182 2.039 . S
Co171 N185 2.140 . S
C172 O173 1.227 . S
C172 O182 1.265 . S
O173 C172 1.227 . S
N174 Co171 2.121 . S
N174 C176 1.375 . S
N174 C177 1.313 . S
C175 C176 1.338 . S
C175 N178 1.377 . S
C175 H195 0.930 . S
C176 N174 1.375 . S
C176 C175 1.338 . S
C176 H180 0.931 . S
C177 N174 1.313 . S
C177 N178 1.344 . S
C177 H181 0.930 . S
N178 C175 1.377 . S
N178 C177 1.344 . S
O179 Co171 2.055 . S
O179 C183 1.253 . S
H180 C176 0.931 . S
H181 C177 0.930 . S
O182 Co171 2.039 . S
O182 C172 1.265 . S
C183 O179 1.253 . S
C183 O184 1.227 . S
O184 C183 1.227 . S
N185 Co171 2.140 . S
N185 C188 1.346 . S
N185 C189 1.345 . S
C186 C187 1.387 . S
C186 C190 1.391 . S
C187 C186 1.387 . S
C187 C188 1.369 . S
C187 H196 0.929 . S
C188 N185 1.346 . S
C188 C187 1.369 . S
C188 H191 0.928 . S
C189 N185 1.345 . S
C189 C190 1.371 . S
C189 H192 0.931 . S
C190 C186 1.391 . S
C190 C189 1.371 . S
C190 H197 0.930 . S
H191 C188 0.928 . S
H192 C189 0.931 . S
H193 C169 0.930 . S
H194 C166 0.930 . S
H195 C175 0.930 . S
H196 C187 0.929 . S
H197 C190 0.930 . S
C198 C199 1.351 . S
C198 N201 1.368 . S
C198 H203 0.931 . S
C199 C198 1.351 . S
C199 N200 1.373 . S
C199 H227 0.930 . S
N200 C199 1.373 . S
N200 C202 1.340 . S
N201 C198 1.368 . S
N201 C202 1.321 . S
N201 Co204 2.135 . S
C202 N200 1.340 . S
C202 N201 1.321 . S
C202 H226 0.930 . S
H203 C198 0.931 . S
Co204 N201 2.135 . S
Co204 N207 2.121 . S
Co204 O212 2.055 . S
Co204 O215 2.039 . S
Co204 N218 2.140 . S
C205 O206 1.227 . S
C205 O215 1.265 . S
O206 C205 1.227 . S
N207 Co204 2.121 . S
N207 C209 1.375 . S
N207 C210 1.313 . S
C208 C209 1.338 . S
C208 N211 1.377 . S
C208 H228 0.930 . S
C209 N207 1.375 . S
C209 C208 1.338 . S
C209 H213 0.931 . S
C210 N207 1.313 . S
C210 N211 1.344 . S
C210 H214 0.930 . S
N211 C208 1.377 . S
N211 C210 1.344 . S
O212 Co204 2.055 . S
O212 C216 1.253 . S
H213 C209 0.931 . S
H214 C210 0.930 . S
O215 Co204 2.039 . S
O215 C205 1.265 . S
C216 O212 1.253 . S
C216 O217 1.227 . S
O217 C216 1.227 . S
N218 Co204 2.140 . S
N218 C221 1.346 . S
N218 C222 1.345 . S
C219 C220 1.387 . S
C219 C223 1.391 . S
C220 C219 1.387 . S
C220 C221 1.369 . S
C220 H229 0.929 . S
C221 N218 1.346 . S
C221 C220 1.369 . S
C221 H224 0.928 . S
C222 N218 1.345 . S
C222 C223 1.371 . S
C222 H225 0.931 . S
C223 C219 1.391 . S
C223 C222 1.371 . S
C223 H230 0.930 . S
H224 C221 0.928 . S
H225 C222 0.931 . S
H226 C202 0.930 . S
H227 C199 0.930 . S
H228 C208 0.930 . S
H229 C220 0.929 . S
H230 C223 0.930 . S
C231 C232 1.351 . S
C231 N234 1.368 . S
C231 H236 0.931 . S
C232 C231 1.351 . S
C232 N233 1.373 . S
C232 H260 0.930 . S
N233 C232 1.373 . S
N233 C235 1.340 . S
N234 C231 1.368 . S
N234 C235 1.321 . S
N234 Co237 2.135 . S
C235 N233 1.340 . S
C235 N234 1.321 . S
C235 H259 0.930 . S
H236 C231 0.931 . S
Co237 N234 2.135 . S
Co237 N240 2.121 . S
Co237 O245 2.055 . S
Co237 O248 2.039 . S
Co237 N251 2.140 . S
C238 O239 1.227 . S
C238 O248 1.265 . S
O239 C238 1.227 . S
N240 Co237 2.121 . S
N240 C242 1.375 . S
N240 C243 1.313 . S
C241 C242 1.338 . S
C241 N244 1.377 . S
C241 H261 0.930 . S
C242 N240 1.375 . S
C242 C241 1.338 . S
C242 H246 0.931 . S
C243 N240 1.313 . S
C243 N244 1.344 . S
C243 H247 0.930 . S
N244 C241 1.377 . S
N244 C243 1.344 . S
O245 Co237 2.055 . S
O245 C249 1.253 . S
H246 C242 0.931 . S
H247 C243 0.930 . S
O248 Co237 2.039 . S
O248 C238 1.265 . S
C249 O245 1.253 . S
C249 O250 1.227 . S
O250 C249 1.227 . S
N251 Co237 2.140 . S
N251 C254 1.346 . S
N251 C255 1.345 . S
C252 C253 1.387 . S
C252 C256 1.391 . S
C253 C252 1.387 . S
C253 C254 1.369 . S
C253 H262 0.929 . S
C254 N251 1.346 . S
C254 C253 1.369 . S
C254 H257 0.928 . S
C255 N251 1.345 . S
C255 C256 1.371 . S
C255 H258 0.931 . S
C256 C252 1.391 . S
C256 C255 1.371 . S
C256 H263 0.930 . S
H257 C254 0.928 . S
H258 C255 0.931 . S
H259 C235 0.930 . S
H260 C232 0.930 . S
H261 C241 0.930 . S
H262 C253 0.929 . S
H263 C256 0.930 . S
C264 C265 1.351 . S
C264 N267 1.368 . S
C264 H269 0.931 . S
C265 C264 1.351 . S
C265 N266 1.373 . S
C265 H293 0.930 . S
N266 C265 1.373 . S
N266 C268 1.340 . S
N267 C264 1.368 . S
N267 C268 1.321 . S
N267 Co270 2.135 . S
C268 N266 1.340 . S
C268 N267 1.321 . S
C268 H292 0.930 . S
H269 C264 0.931 . S
Co270 N267 2.135 . S
Co270 N273 2.121 . S
Co270 O278 2.055 . S
Co270 O281 2.039 . S
Co270 N284 2.140 . S
C271 O272 1.227 . S
C271 O281 1.265 . S
O272 C271 1.227 . S
N273 Co270 2.121 . S
N273 C275 1.375 . S
N273 C276 1.313 . S
C274 C275 1.338 . S
C274 N277 1.377 . S
C274 H294 0.930 . S
C275 N273 1.375 . S
C275 C274 1.338 . S
C275 H279 0.931 . S
C276 N273 1.313 . S
C276 N277 1.344 . S
C276 H280 0.930 . S
N277 C274 1.377 . S
N277 C276 1.344 . S
O278 Co270 2.055 . S
O278 C282 1.253 . S
H279 C275 0.931 . S
H280 C276 0.930 . S
O281 Co270 2.039 . S
O281 C271 1.265 . S
C282 O278 1.253 . S
C282 O283 1.227 . S
O283 C282 1.227 . S
N284 Co270 2.140 . S
N284 C287 1.346 . S
N284 C288 1.345 . S
C285 C286 1.387 . S
C285 C289 1.391 . S
C286 C285 1.387 . S
C286 C287 1.369 . S
C286 H295 0.929 . S
C287 N284 1.346 . S
C287 C286 1.369 . S
C287 H290 0.928 . S
C288 N284 1.345 . S
C288 C289 1.371 . S
C288 H291 0.931 . S
C289 C285 1.391 . S
C289 C288 1.371 . S
C289 H296 0.930 . S
H290 C287 0.928 . S
H291 C288 0.931 . S
H292 C268 0.930 . S
H293 C265 0.930 . S
H294 C274 0.930 . S
H295 C286 0.929 . S
H296 C289 0.930 . S
C297 C298 1.351 . S
C297 N300 1.368 . S
C297 H302 0.931 . S
C298 C297 1.351 . S
C298 N299 1.373 . S
C298 H326 0.930 . S
N299 C298 1.373 . S
N299 C301 1.340 . S
N300 C297 1.368 . S
N300 C301 1.321 . S
N300 Co303 2.135 . S
C301 N299 1.340 . S
C301 N300 1.321 . S
C301 H325 0.930 . S
H302 C297 0.931 . S
Co303 N300 2.135 . S
Co303 N306 2.121 . S
Co303 O311 2.055 . S
Co303 O314 2.039 . S
Co303 N317 2.140 . S
C304 O305 1.227 . S
C304 O314 1.265 . S
O305 C304 1.227 . S
N306 Co303 2.121 . S
N306 C308 1.375 . S
N306 C309 1.313 . S
C307 C308 1.338 . S
C307 N310 1.377 . S
C307 H327 0.930 . S
C308 N306 1.375 . S
C308 C307 1.338 . S
C308 H312 0.931 . S
C309 N306 1.313 . S
C309 N310 1.344 . S
C309 H313 0.930 . S
N310 C307 1.377 . S
N310 C309 1.344 . S
O311 Co303 2.055 . S
O311 C315 1.253 . S
H312 C308 0.931 . S
H313 C309 0.930 . S
O314 Co303 2.039 . S
O314 C304 1.265 . S
C315 O311 1.253 . S
C315 O316 1.227 . S
O316 C315 1.227 . S
N317 Co303 2.140 . S
N317 C320 1.346 . S
N317 C321 1.345 . S
C318 C319 1.387 . S
C318 C322 1.391 . S
C319 C318 1.387 . S
C319 C320 1.369 . S
C319 H328 0.929 . S
C320 N317 1.346 . S
C320 C319 1.369 . S
C320 H323 0.928 . S
C321 N317 1.345 . S
C321 C322 1.371 . S
C321 H324 0.931 . S
C322 C318 1.391 . S
C322 C321 1.371 . S
C322 H329 0.930 . S
H323 C320 0.928 . S
H324 C321 0.931 . S
H325 C301 0.930 . S
H326 C298 0.930 . S
H327 C307 0.930 . S
H328 C319 0.929 . S
H329 C322 0.930 . S
C330 C331 1.351 . S
C330 N333 1.368 . S
C330 H335 0.931 . S
C331 C330 1.351 . S
C331 N332 1.373 . S
C331 H359 0.930 . S
N332 C331 1.373 . S
N332 C334 1.340 . S
N333 C330 1.368 . S
N333 C334 1.321 . S
N333 Co336 2.135 . S
C334 N332 1.340 . S
C334 N333 1.321 . S
C334 H358 0.930 . S
H335 C330 0.931 . S
Co336 N333 2.135 . S
Co336 N339 2.121 . S
Co336 O344 2.055 . S
Co336 O347 2.039 . S
Co336 N350 2.140 . S
C337 O338 1.227 . S
C337 O347 1.265 . S
O338 C337 1.227 . S
N339 Co336 2.121 . S
N339 C341 1.375 . S
N339 C342 1.313 . S
C340 C341 1.338 . S
C340 N343 1.377 . S
C340 H360 0.930 . S
C341 N339 1.375 . S
C341 C340 1.338 . S
C341 H345 0.931 . S
C342 N339 1.313 . S
C342 N343 1.344 . S
C342 H346 0.930 . S
N343 C340 1.377 . S
N343 C342 1.344 . S
O344 Co336 2.055 . S
O344 C348 1.253 . S
H345 C341 0.931 . S
H346 C342 0.930 . S
O347 Co336 2.039 . S
O347 C337 1.265 . S
C348 O344 1.253 . S
C348 O349 1.227 . S
O349 C348 1.227 . S
N350 Co336 2.140 . S
N350 C353 1.346 . S
N350 C354 1.345 . S
C351 C352 1.387 . S
C351 C355 1.391 . S
C352 C351 1.387 . S
C352 C353 1.369 . S
C352 H361 0.929 . S
C353 N350 1.346 . S
C353 C352 1.369 . S
C353 H356 0.928 . S
C354 N350 1.345 . S
C354 C355 1.371 . S
C354 H357 0.931 . S
C355 C351 1.391 . S
C355 C354 1.371 . S
C355 H362 0.930 . S
H356 C353 0.928 . S
H357 C354 0.931 . S
H358 C334 0.930 . S
H359 C331 0.930 . S
H360 C340 0.930 . S
H361 C352 0.929 . S
H362 C355 0.930 . S
C363 C364 1.351 . S
C363 N366 1.368 . S
C363 H368 0.931 . S
C364 C363 1.351 . S
C364 N365 1.373 . S
C364 H392 0.930 . S
N365 C364 1.373 . S
N365 C367 1.340 . S
N366 C363 1.368 . S
N366 C367 1.321 . S
N366 Co369 2.135 . S
C367 N365 1.340 . S
C367 N366 1.321 . S
C367 H391 0.930 . S
H368 C363 0.931 . S
Co369 N366 2.135 . S
Co369 N372 2.121 . S
Co369 O377 2.055 . S
Co369 O380 2.039 . S
Co369 N383 2.140 . S
C370 O371 1.227 . S
C370 O380 1.265 . S
O371 C370 1.227 . S
N372 Co369 2.121 . S
N372 C374 1.375 . S
N372 C375 1.313 . S
C373 C374 1.338 . S
C373 N376 1.377 . S
C373 H393 0.930 . S
C374 N372 1.375 . S
C374 C373 1.338 . S
C374 H378 0.931 . S
C375 N372 1.313 . S
C375 N376 1.344 . S
C375 H379 0.930 . S
N376 C373 1.377 . S
N376 C375 1.344 . S
O377 Co369 2.055 . S
O377 C381 1.253 . S
H378 C374 0.931 . S
H379 C375 0.930 . S
O380 Co369 2.039 . S
O380 C370 1.265 . S
C381 O377 1.253 . S
C381 O382 1.227 . S
O382 C381 1.227 . S
N383 Co369 2.140 . S
N383 C386 1.346 . S
N383 C387 1.345 . S
C384 C385 1.387 . S
C384 C388 1.391 . S
C385 C384 1.387 . S
C385 C386 1.369 . S
C385 H394 0.929 . S
C386 N383 1.346 . S
C386 C385 1.369 . S
C386 H389 0.928 . S
C387 N383 1.345 . S
C387 C388 1.371 . S
C387 H390 0.931 . S
C388 C384 1.391 . S
C388 C387 1.371 . S
C388 H395 0.930 . S
H389 C386 0.928 . S
H390 C387 0.931 . S
H391 C367 0.930 . S
H392 C364 0.930 . S
H393 C373 0.930 . S
H394 C385 0.929 . S
H395 C388 0.930 . S
C396 C397 1.351 . S
C396 N399 1.368 . S
C396 H401 0.931 . S
C397 C396 1.351 . S
C397 N398 1.373 . S
C397 H425 0.930 . S
N398 C397 1.373 . S
N398 C400 1.340 . S
N399 C396 1.368 . S
N399 C400 1.321 . S
N399 Co402 2.135 . S
C400 N398 1.340 . S
C400 N399 1.321 . S
C400 H424 0.930 . S
H401 C396 0.931 . S
Co402 N399 2.135 . S
Co402 N405 2.121 . S
Co402 O410 2.055 . S
Co402 O413 2.039 . S
Co402 N416 2.140 . S
C403 O404 1.227 . S
C403 O413 1.265 . S
O404 C403 1.227 . S
N405 Co402 2.121 . S
N405 C407 1.375 . S
N405 C408 1.313 . S
C406 C407 1.338 . S
C406 N409 1.377 . S
C406 H426 0.930 . S
C407 N405 1.375 . S
C407 C406 1.338 . S
C407 H411 0.931 . S
C408 N405 1.313 . S
C408 N409 1.344 . S
C408 H412 0.930 . S
N409 C406 1.377 . S
N409 C408 1.344 . S
O410 Co402 2.055 . S
O410 C414 1.253 . S
H411 C407 0.931 . S
H412 C408 0.930 . S
O413 Co402 2.039 . S
O413 C403 1.265 . S
C414 O410 1.253 . S
C414 O415 1.227 . S
O415 C414 1.227 . S
N416 Co402 2.140 . S
N416 C419 1.346 . S
N416 C420 1.345 . S
C417 C418 1.387 . S
C417 C421 1.391 . S
C418 C417 1.387 . S
C418 C419 1.369 . S
C418 H427 0.929 . S
C419 N416 1.346 . S
C419 C418 1.369 . S
C419 H422 0.928 . S
C420 N416 1.345 . S
C420 C421 1.371 . S
C420 H423 0.931 . S
C421 C417 1.391 . S
C421 C420 1.371 . S
C421 H428 0.930 . S
H422 C419 0.928 . S
H423 C420 0.931 . S
H424 C400 0.930 . S
H425 C397 0.930 . S
H426 C406 0.930 . S
H427 C418 0.929 . S
H428 C421 0.930 . S
C429 C430 1.351 . S
C429 N432 1.368 . S
C429 H434 0.931 . S
C430 C429 1.351 . S
C430 N431 1.373 . S
C430 H458 0.930 . S
N431 C430 1.373 . S
N431 C433 1.340 . S
N432 C429 1.368 . S
N432 C433 1.321 . S
N432 Co435 2.135 . S
C433 N431 1.340 . S
C433 N432 1.321 . S
C433 H457 0.930 . S
H434 C429 0.931 . S
Co435 N432 2.135 . S
Co435 N438 2.121 . S
Co435 O443 2.055 . S
Co435 O446 2.039 . S
Co435 N449 2.140 . S
C436 O437 1.227 . S
C436 O446 1.265 . S
O437 C436 1.227 . S
N438 Co435 2.121 . S
N438 C440 1.375 . S
N438 C441 1.313 . S
C439 C440 1.338 . S
C439 N442 1.377 . S
C439 H459 0.930 . S
C440 N438 1.375 . S
C440 C439 1.338 . S
C440 H444 0.931 . S
C441 N438 1.313 . S
C441 N442 1.344 . S
C441 H445 0.930 . S
N442 C439 1.377 . S
N442 C441 1.344 . S
O443 Co435 2.055 . S
O443 C447 1.253 . S
H444 C440 0.931 . S
H445 C441 0.930 . S
O446 Co435 2.039 . S
O446 C436 1.265 . S
C447 O443 1.253 . S
C447 O448 1.227 . S
O448 C447 1.227 . S
N449 Co435 2.140 . S
N449 C452 1.346 . S
N449 C453 1.345 . S
C450 C451 1.387 . S
C450 C454 1.391 . S
C451 C450 1.387 . S
C451 C452 1.369 . S
C451 H460 0.929 . S
C452 N449 1.346 . S
C452 C451 1.369 . S
C452 H455 0.928 . S
C453 N449 1.345 . S
C453 C454 1.371 . S
C453 H456 0.931 . S
C454 C450 1.391 . S
C454 C453 1.371 . S
C454 H461 0.930 . S
H455 C452 0.928 . S
H456 C453 0.931 . S
H457 C433 0.930 . S
H458 C430 0.930 . S
H459 C439 0.930 . S
H460 C451 0.929 . S
H461 C454 0.930 . S
C462 C463 1.351 . S
C462 N465 1.368 . S
C462 H467 0.931 . S
C463 C462 1.351 . S
C463 N464 1.373 . S
C463 H491 0.930 . S
N464 C463 1.373 . S
N464 C466 1.340 . S
N465 C462 1.368 . S
N465 C466 1.321 . S
N465 Co468 2.135 . S
C466 N464 1.340 . S
C466 N465 1.321 . S
C466 H490 0.930 . S
H467 C462 0.931 . S
Co468 N465 2.135 . S
Co468 N471 2.121 . S
Co468 O476 2.055 . S
Co468 O479 2.039 . S
Co468 N482 2.140 . S
C469 O470 1.227 . S
C469 O479 1.265 . S
O470 C469 1.227 . S
N471 Co468 2.121 . S
N471 C473 1.375 . S
N471 C474 1.313 . S
C472 C473 1.338 . S
C472 N475 1.377 . S
C472 H492 0.930 . S
C473 N471 1.375 . S
C473 C472 1.338 . S
C473 H477 0.931 . S
C474 N471 1.313 . S
C474 N475 1.344 . S
C474 H478 0.930 . S
N475 C472 1.377 . S
N475 C474 1.344 . S
O476 Co468 2.055 . S
O476 C480 1.253 . S
H477 C473 0.931 . S
H478 C474 0.930 . S
O479 Co468 2.039 . S
O479 C469 1.265 . S
C480 O476 1.253 . S
C480 O481 1.227 . S
O481 C480 1.227 . S
N482 Co468 2.140 . S
N482 C485 1.346 . S
N482 C486 1.345 . S
C483 C484 1.387 . S
C483 C487 1.391 . S
C484 C483 1.387 . S
C484 C485 1.369 . S
C484 H493 0.929 . S
C485 N482 1.346 . S
C485 C484 1.369 . S
C485 H488 0.928 . S
C486 N482 1.345 . S
C486 C487 1.371 . S
C486 H489 0.931 . S
C487 C483 1.391 . S
C487 C486 1.371 . S
C487 H494 0.930 . S
H488 C485 0.928 . S
H489 C486 0.931 . S
H490 C466 0.930 . S
H491 C463 0.930 . S
H492 C472 0.930 . S
H493 C484 0.929 . S
H494 C487 0.930 . S
C495 C496 1.351 . S
C495 N498 1.368 . S
C495 H500 0.931 . S
C496 C495 1.351 . S
C496 N497 1.373 . S
C496 H524 0.930 . S
N497 C496 1.373 . S
N497 C499 1.340 . S
N498 C495 1.368 . S
N498 C499 1.321 . S
N498 Co501 2.135 . S
C499 N497 1.340 . S
C499 N498 1.321 . S
C499 H523 0.930 . S
H500 C495 0.931 . S
Co501 N498 2.135 . S
Co501 N504 2.121 . S
Co501 O509 2.055 . S
Co501 O512 2.039 . S
Co501 N515 2.140 . S
C502 O503 1.227 . S
C502 O512 1.265 . S
O503 C502 1.227 . S
N504 Co501 2.121 . S
N504 C506 1.375 . S
N504 C507 1.313 . S
C505 C506 1.338 . S
C505 N508 1.377 . S
C505 H525 0.930 . S
C506 N504 1.375 . S
C506 C505 1.338 . S
C506 H510 0.931 . S
C507 N504 1.313 . S
C507 N508 1.344 . S
C507 H511 0.930 . S
N508 C505 1.377 . S
N508 C507 1.344 . S
O509 Co501 2.055 . S
O509 C513 1.253 . S
H510 C506 0.931 . S
H511 C507 0.930 . S
O512 Co501 2.039 . S
O512 C502 1.265 . S
C513 O509 1.253 . S
C513 O514 1.227 . S
O514 C513 1.227 . S
N515 Co501 2.140 . S
N515 C518 1.346 . S
N515 C519 1.345 . S
C516 C517 1.387 . S
C516 C520 1.391 . S
C517 C516 1.387 . S
C517 C518 1.369 . S
C517 H526 0.929 . S
C518 N515 1.346 . S
C518 C517 1.369 . S
C518 H521 0.928 . S
C519 N515 1.345 . S
C519 C520 1.371 . S
C519 H522 0.931 . S
C520 C516 1.391 . S
C520 C519 1.371 . S
C520 H527 0.930 . S
H521 C518 0.928 . S
H522 C519 0.931 . S
H523 C499 0.930 . S
H524 C496 0.930 . S
H525 C505 0.930 . S
H526 C517 0.929 . S
H527 C520 0.930 . S
C528 C529 1.351 . S
C528 N531 1.368 . S
C528 H533 0.931 . S
C529 C528 1.351 . S
C529 N530 1.373 . S
C529 H557 0.930 . S
N530 C529 1.373 . S
N530 C532 1.340 . S
N531 C528 1.368 . S
N531 C532 1.321 . S
N531 Co534 2.135 . S
C532 N530 1.340 . S
C532 N531 1.321 . S
C532 H556 0.930 . S
H533 C528 0.931 . S
Co534 N531 2.135 . S
Co534 N537 2.121 . S
Co534 O542 2.055 . S
Co534 O545 2.039 . S
Co534 N548 2.140 . S
C535 O536 1.227 . S
C535 O545 1.265 . S
O536 C535 1.227 . S
N537 Co534 2.121 . S
N537 C539 1.375 . S
N537 C540 1.313 . S
C538 C539 1.338 . S
C538 N541 1.377 . S
C538 H558 0.930 . S
C539 N537 1.375 . S
C539 C538 1.338 . S
C539 H543 0.931 . S
C540 N537 1.313 . S
C540 N541 1.344 . S
C540 H544 0.930 . S
N541 C538 1.377 . S
N541 C540 1.344 . S
O542 Co534 2.055 . S
O542 C546 1.253 . S
H543 C539 0.931 . S
H544 C540 0.930 . S
O545 Co534 2.039 . S
O545 C535 1.265 . S
C546 O542 1.253 . S
C546 O547 1.227 . S
O547 C546 1.227 . S
N548 Co534 2.140 . S
N548 C551 1.346 . S
N548 C552 1.345 . S
C549 C550 1.387 . S
C549 C553 1.391 . S
C550 C549 1.387 . S
C550 C551 1.369 . S
C550 H559 0.929 . S
C551 N548 1.346 . S
C551 C550 1.369 . S
C551 H554 0.928 . S
C552 N548 1.345 . S
C552 C553 1.371 . S
C552 H555 0.931 . S
C553 C549 1.391 . S
C553 C552 1.371 . S
C553 H560 0.930 . S
H554 C551 0.928 . S
H555 C552 0.931 . S
H556 C532 0.930 . S
H557 C529 0.930 . S
H558 C538 0.930 . S
H559 C550 0.929 . S
H560 C553 0.930 . S
C561 C562 1.351 . S
C561 N564 1.368 . S
C561 H566 0.931 . S
C562 C561 1.351 . S
C562 N563 1.373 . S
C562 H590 0.930 . S
N563 C562 1.373 . S
N563 C565 1.340 . S
N564 C561 1.368 . S
N564 C565 1.321 . S
N564 Co567 2.135 . S
C565 N563 1.340 . S
C565 N564 1.321 . S
C565 H589 0.930 . S
H566 C561 0.931 . S
Co567 N564 2.135 . S
Co567 N570 2.121 . S
Co567 O575 2.055 . S
Co567 O578 2.039 . S
Co567 N581 2.140 . S
C568 O569 1.227 . S
C568 O578 1.265 . S
O569 C568 1.227 . S
N570 Co567 2.121 . S
N570 C572 1.375 . S
N570 C573 1.313 . S
C571 C572 1.338 . S
C571 N574 1.377 . S
C571 H591 0.930 . S
C572 N570 1.375 . S
C572 C571 1.338 . S
C572 H576 0.931 . S
C573 N570 1.313 . S
C573 N574 1.344 . S
C573 H577 0.930 . S
N574 C571 1.377 . S
N574 C573 1.344 . S
O575 Co567 2.055 . S
O575 C579 1.253 . S
H576 C572 0.931 . S
H577 C573 0.930 . S
O578 Co567 2.039 . S
O578 C568 1.265 . S
C579 O575 1.253 . S
C579 O580 1.227 . S
O580 C579 1.227 . S
N581 Co567 2.140 . S
N581 C584 1.346 . S
N581 C585 1.345 . S
C582 C583 1.387 . S
C582 C586 1.391 . S
C583 C582 1.387 . S
C583 C584 1.369 . S
C583 H592 0.929 . S
C584 N581 1.346 . S
C584 C583 1.369 . S
C584 H587 0.928 . S
C585 N581 1.345 . S
C585 C586 1.371 . S
C585 H588 0.931 . S
C586 C582 1.391 . S
C586 C585 1.371 . S
C586 H593 0.930 . S
H587 C584 0.928 . S
H588 C585 0.931 . S
H589 C565 0.930 . S
H590 C562 0.930 . S
H591 C571 0.930 . S
H592 C583 0.929 . S
H593 C586 0.930 . S
C594 C595 1.351 . S
C594 N597 1.368 . S
C594 H599 0.931 . S
C595 C594 1.351 . S
C595 N596 1.373 . S
C595 H623 0.930 . S
N596 C595 1.373 . S
N596 C598 1.340 . S
N597 C594 1.368 . S
N597 C598 1.321 . S
N597 Co600 2.135 . S
C598 N596 1.340 . S
C598 N597 1.321 . S
C598 H622 0.930 . S
H599 C594 0.931 . S
Co600 N597 2.135 . S
Co600 N603 2.121 . S
Co600 O608 2.055 . S
Co600 O611 2.039 . S
Co600 N614 2.140 . S
C601 O602 1.227 . S
C601 O611 1.265 . S
O602 C601 1.227 . S
N603 Co600 2.121 . S
N603 C605 1.375 . S
N603 C606 1.313 . S
C604 C605 1.338 . S
C604 N607 1.377 . S
C604 H624 0.930 . S
C605 N603 1.375 . S
C605 C604 1.338 . S
C605 H609 0.931 . S
C606 N603 1.313 . S
C606 N607 1.344 . S
C606 H610 0.930 . S
N607 C604 1.377 . S
N607 C606 1.344 . S
O608 Co600 2.055 . S
O608 C612 1.253 . S
H609 C605 0.931 . S
H610 C606 0.930 . S
O611 Co600 2.039 . S
O611 C601 1.265 . S
C612 O608 1.253 . S
C612 O613 1.227 . S
O613 C612 1.227 . S
N614 Co600 2.140 . S
N614 C617 1.346 . S
N614 C618 1.345 . S
C615 C616 1.387 . S
C615 C619 1.391 . S
C616 C615 1.387 . S
C616 C617 1.369 . S
C616 H625 0.929 . S
C617 N614 1.346 . S
C617 C616 1.369 . S
C617 H620 0.928 . S
C618 N614 1.345 . S
C618 C619 1.371 . S
C618 H621 0.931 . S
C619 C615 1.391 . S
C619 C618 1.371 . S
C619 H626 0.930 . S
H620 C617 0.928 . S
H621 C618 0.931 . S
H622 C598 0.930 . S
H623 C595 0.930 . S
H624 C604 0.930 . S
H625 C616 0.929 . S
H626 C619 0.930 . S
C627 C628 1.351 . S
C627 N630 1.368 . S
C627 H632 0.931 . S
C628 C627 1.351 . S
C628 N629 1.373 . S
C628 H656 0.930 . S
N629 C628 1.373 . S
N629 C631 1.340 . S
N630 C627 1.368 . S
N630 C631 1.321 . S
N630 Co633 2.135 . S
C631 N629 1.340 . S
C631 N630 1.321 . S
C631 H655 0.930 . S
H632 C627 0.931 . S
Co633 N630 2.135 . S
Co633 N636 2.121 . S
Co633 O641 2.055 . S
Co633 O644 2.039 . S
Co633 N647 2.140 . S
C634 O635 1.227 . S
C634 O644 1.265 . S
O635 C634 1.227 . S
N636 Co633 2.121 . S
N636 C638 1.375 . S
N636 C639 1.313 . S
C637 C638 1.338 . S
C637 N640 1.377 . S
C637 H657 0.930 . S
C638 N636 1.375 . S
C638 C637 1.338 . S
C638 H642 0.931 . S
C639 N636 1.313 . S
C639 N640 1.344 . S
C639 H643 0.930 . S
N640 C637 1.377 . S
N640 C639 1.344 . S
O641 Co633 2.055 . S
O641 C645 1.253 . S
H642 C638 0.931 . S
H643 C639 0.930 . S
O644 Co633 2.039 . S
O644 C634 1.265 . S
C645 O641 1.253 . S
C645 O646 1.227 . S
O646 C645 1.227 . S
N647 Co633 2.140 . S
N647 C650 1.346 . S
N647 C651 1.345 . S
C648 C649 1.387 . S
C648 C652 1.391 . S
C649 C648 1.387 . S
C649 C650 1.369 . S
C649 H658 0.929 . S
C650 N647 1.346 . S
C650 C649 1.369 . S
C650 H653 0.928 . S
C651 N647 1.345 . S
C651 C652 1.371 . S
C651 H654 0.931 . S
C652 C648 1.391 . S
C652 C651 1.371 . S
C652 H659 0.930 . S
H653 C650 0.928 . S
H654 C651 0.931 . S
H655 C631 0.930 . S
H656 C628 0.930 . S
H657 C637 0.930 . S
H658 C649 0.929 . S
H659 C652 0.930 . S
C660 C661 1.351 . S
C660 N663 1.368 . S
C660 H665 0.931 . S
C661 C660 1.351 . S
C661 N662 1.373 . S
C661 H689 0.930 . S
N662 C661 1.373 . S
N662 C664 1.340 . S
N663 C660 1.368 . S
N663 C664 1.321 . S
N663 Co666 2.135 . S
C664 N662 1.340 . S
C664 N663 1.321 . S
C664 H688 0.930 . S
H665 C660 0.931 . S
Co666 N663 2.135 . S
Co666 N669 2.121 . S
Co666 O674 2.055 . S
Co666 O677 2.039 . S
Co666 N680 2.140 . S
C667 O668 1.227 . S
C667 O677 1.265 . S
O668 C667 1.227 . S
N669 Co666 2.121 . S
N669 C671 1.375 . S
N669 C672 1.313 . S
C670 C671 1.338 . S
C670 N673 1.377 . S
C670 H690 0.930 . S
C671 N669 1.375 . S
C671 C670 1.338 . S
C671 H675 0.931 . S
C672 N669 1.313 . S
C672 N673 1.344 . S
C672 H676 0.930 . S
N673 C670 1.377 . S
N673 C672 1.344 . S
O674 Co666 2.055 . S
O674 C678 1.253 . S
H675 C671 0.931 . S
H676 C672 0.930 . S
O677 Co666 2.039 . S
O677 C667 1.265 . S
C678 O674 1.253 . S
C678 O679 1.227 . S
O679 C678 1.227 . S
N680 Co666 2.140 . S
N680 C683 1.346 . S
N680 C684 1.345 . S
C681 C682 1.387 . S
C681 C685 1.391 . S
C682 C681 1.387 . S
C682 C683 1.369 . S
C682 H691 0.929 . S
C683 N680 1.346 . S
C683 C682 1.369 . S
C683 H686 0.928 . S
C684 N680 1.345 . S
C684 C685 1.371 . S
C684 H687 0.931 . S
C685 C681 1.391 . S
C685 C684 1.371 . S
C685 H692 0.930 . S
H686 C683 0.928 . S
H687 C684 0.931 . S
H688 C664 0.930 . S
H689 C661 0.930 . S
H690 C670 0.930 . S
H691 C682 0.929 . S
H692 C685 0.930 . S
C693 C694 1.351 . S
C693 N696 1.368 . S
C693 H698 0.931 . S
C694 C693 1.351 . S
C694 N695 1.373 . S
C694 H722 0.930 . S
N695 C694 1.373 . S
N695 C697 1.340 . S
N696 C693 1.368 . S
N696 C697 1.321 . S
N696 Co699 2.135 . S
C697 N695 1.340 . S
C697 N696 1.321 . S
C697 H721 0.930 . S
H698 C693 0.931 . S
Co699 N696 2.135 . S
Co699 N702 2.121 . S
Co699 O707 2.055 . S
Co699 O710 2.039 . S
Co699 N713 2.140 . S
C700 O701 1.227 . S
C700 O710 1.265 . S
O701 C700 1.227 . S
N702 Co699 2.121 . S
N702 C704 1.375 . S
N702 C705 1.313 . S
C703 C704 1.338 . S
C703 N706 1.377 . S
C703 H723 0.930 . S
C704 N702 1.375 . S
C704 C703 1.338 . S
C704 H708 0.931 . S
C705 N702 1.313 . S
C705 N706 1.344 . S
C705 H709 0.930 . S
N706 C703 1.377 . S
N706 C705 1.344 . S
O707 Co699 2.055 . S
O707 C711 1.253 . S
H708 C704 0.931 . S
H709 C705 0.930 . S
O710 Co699 2.039 . S
O710 C700 1.265 . S
C711 O707 1.253 . S
C711 O712 1.227 . S
O712 C711 1.227 . S
N713 Co699 2.140 . S
N713 C716 1.346 . S
N713 C717 1.345 . S
C714 C715 1.387 . S
C714 C718 1.391 . S
C715 C714 1.387 . S
C715 C716 1.369 . S
C715 H724 0.929 . S
C716 N713 1.346 . S
C716 C715 1.369 . S
C716 H719 0.928 . S
C717 N713 1.345 . S
C717 C718 1.371 . S
C717 H720 0.931 . S
C718 C714 1.391 . S
C718 C717 1.371 . S
C718 H725 0.930 . S
H719 C716 0.928 . S
H720 C717 0.931 . S
H721 C697 0.930 . S
H722 C694 0.930 . S
H723 C703 0.930 . S
H724 C715 0.929 . S
H725 C718 0.930 . S
C726 C727 1.351 . S
C726 N729 1.368 . S
C726 H731 0.931 . S
C727 C726 1.351 . S
C727 N728 1.373 . S
C727 H755 0.930 . S
N728 C727 1.373 . S
N728 C730 1.340 . S
N729 C726 1.368 . S
N729 C730 1.321 . S
N729 Co732 2.135 . S
C730 N728 1.340 . S
C730 N729 1.321 . S
C730 H754 0.930 . S
H731 C726 0.931 . S
Co732 N729 2.135 . S
Co732 N735 2.121 . S
Co732 O740 2.055 . S
Co732 O743 2.039 . S
Co732 N746 2.140 . S
C733 O734 1.227 . S
C733 O743 1.265 . S
O734 C733 1.227 . S
N735 Co732 2.121 . S
N735 C737 1.375 . S
N735 C738 1.313 . S
C736 C737 1.338 . S
C736 N739 1.377 . S
C736 H756 0.930 . S
C737 N735 1.375 . S
C737 C736 1.338 . S
C737 H741 0.931 . S
C738 N735 1.313 . S
C738 N739 1.344 . S
C738 H742 0.930 . S
N739 C736 1.377 . S
N739 C738 1.344 . S
O740 Co732 2.055 . S
O740 C744 1.253 . S
H741 C737 0.931 . S
H742 C738 0.930 . S
O743 Co732 2.039 . S
O743 C733 1.265 . S
C744 O740 1.253 . S
C744 O745 1.227 . S
O745 C744 1.227 . S
N746 Co732 2.140 . S
N746 C749 1.346 . S
N746 C750 1.345 . S
C747 C748 1.387 . S
C747 C751 1.391 . S
C748 C747 1.387 . S
C748 C749 1.369 . S
C748 H757 0.929 . S
C749 N746 1.346 . S
C749 C748 1.369 . S
C749 H752 0.928 . S
C750 N746 1.345 . S
C750 C751 1.371 . S
C750 H753 0.931 . S
C751 C747 1.391 . S
C751 C750 1.371 . S
C751 H758 0.930 . S
H752 C749 0.928 . S
H753 C750 0.931 . S
H754 C730 0.930 . S
H755 C727 0.930 . S
H756 C736 0.930 . S
H757 C748 0.929 . S
H758 C751 0.930 . S
C759 C760 1.351 . S
C759 N762 1.368 . S
C759 H764 0.931 . S
C760 C759 1.351 . S
C760 N761 1.373 . S
C760 H788 0.930 . S
N761 C760 1.373 . S
N761 C763 1.340 . S
N762 C759 1.368 . S
N762 C763 1.321 . S
N762 Co765 2.135 . S
C763 N761 1.340 . S
C763 N762 1.321 . S
C763 H787 0.930 . S
H764 C759 0.931 . S
Co765 N762 2.135 . S
Co765 N768 2.121 . S
Co765 O773 2.055 . S
Co765 O776 2.039 . S
Co765 N779 2.140 . S
C766 O767 1.227 . S
C766 O776 1.265 . S
O767 C766 1.227 . S
N768 Co765 2.121 . S
N768 C770 1.375 . S
N768 C771 1.313 . S
C769 C770 1.338 . S
C769 N772 1.377 . S
C769 H789 0.930 . S
C770 N768 1.375 . S
C770 C769 1.338 . S
C770 H774 0.931 . S
C771 N768 1.313 . S
C771 N772 1.344 . S
C771 H775 0.930 . S
N772 C769 1.377 . S
N772 C771 1.344 . S
O773 Co765 2.055 . S
O773 C777 1.253 . S
H774 C770 0.931 . S
H775 C771 0.930 . S
O776 Co765 2.039 . S
O776 C766 1.265 . S
C777 O773 1.253 . S
C777 O778 1.227 . S
O778 C777 1.227 . S
N779 Co765 2.140 . S
N779 C782 1.346 . S
N779 C783 1.345 . S
C780 C781 1.387 . S
C780 C784 1.391 . S
C781 C780 1.387 . S
C781 C782 1.369 . S
C781 H790 0.929 . S
C782 N779 1.346 . S
C782 C781 1.369 . S
C782 H785 0.928 . S
C783 N779 1.345 . S
C783 C784 1.371 . S
C783 H786 0.931 . S
C784 C780 1.391 . S
C784 C783 1.371 . S
C784 H791 0.930 . S
H785 C782 0.928 . S
H786 C783 0.931 . S
H787 C763 0.930 . S
H788 C760 0.930 . S
H789 C769 0.930 . S
H790 C781 0.929 . S
H791 C784 0.930 . S
C792 C793 1.351 . S
C792 N795 1.368 . S
C792 H797 0.931 . S
C793 C792 1.351 . S
C793 N794 1.373 . S
C793 H821 0.930 . S
N794 C793 1.373 . S
N794 C796 1.340 . S
N795 C792 1.368 . S
N795 C796 1.321 . S
N795 Co798 2.135 . S
C796 N794 1.340 . S
C796 N795 1.321 . S
C796 H820 0.930 . S
H797 C792 0.931 . S
Co798 N795 2.135 . S
Co798 N801 2.121 . S
Co798 O806 2.055 . S
Co798 O809 2.039 . S
Co798 N812 2.140 . S
C799 O800 1.227 . S
C799 O809 1.265 . S
O800 C799 1.227 . S
N801 Co798 2.121 . S
N801 C803 1.375 . S
N801 C804 1.313 . S
C802 C803 1.338 . S
C802 N805 1.377 . S
C802 H822 0.930 . S
C803 N801 1.375 . S
C803 C802 1.338 . S
C803 H807 0.931 . S
C804 N801 1.313 . S
C804 N805 1.344 . S
C804 H808 0.930 . S
N805 C802 1.377 . S
N805 C804 1.344 . S
O806 Co798 2.055 . S
O806 C810 1.253 . S
H807 C803 0.931 . S
H808 C804 0.930 . S
O809 Co798 2.039 . S
O809 C799 1.265 . S
C810 O806 1.253 . S
C810 O811 1.227 . S
O811 C810 1.227 . S
N812 Co798 2.140 . S
N812 C815 1.346 . S
N812 C816 1.345 . S
C813 C814 1.387 . S
C813 C817 1.391 . S
C814 C813 1.387 . S
C814 C815 1.369 . S
C814 H823 0.929 . S
C815 N812 1.346 . S
C815 C814 1.369 . S
C815 H818 0.928 . S
C816 N812 1.345 . S
C816 C817 1.371 . S
C816 H819 0.931 . S
C817 C813 1.391 . S
C817 C816 1.371 . S
C817 H824 0.930 . S
H818 C815 0.928 . S
H819 C816 0.931 . S
H820 C796 0.930 . S
H821 C793 0.930 . S
H822 C802 0.930 . S
H823 C814 0.929 . S
H824 C817 0.930 . S
C825 C826 1.351 . S
C825 N828 1.368 . S
C825 H830 0.931 . S
C826 C825 1.351 . S
C826 N827 1.373 . S
C826 H854 0.930 . S
N827 C826 1.373 . S
N827 C829 1.340 . S
N828 C825 1.368 . S
N828 C829 1.321 . S
N828 Co831 2.135 . S
C829 N827 1.340 . S
C829 N828 1.321 . S
C829 H853 0.930 . S
H830 C825 0.931 . S
Co831 N828 2.135 . S
Co831 N834 2.121 . S
Co831 O839 2.055 . S
Co831 O842 2.039 . S
Co831 N845 2.140 . S
C832 O833 1.227 . S
C832 O842 1.265 . S
O833 C832 1.227 . S
N834 Co831 2.121 . S
N834 C836 1.375 . S
N834 C837 1.313 . S
C835 C836 1.338 . S
C835 N838 1.377 . S
C835 H855 0.930 . S
C836 N834 1.375 . S
C836 C835 1.338 . S
C836 H840 0.931 . S
C837 N834 1.313 . S
C837 N838 1.344 . S
C837 H841 0.930 . S
N838 C835 1.377 . S
N838 C837 1.344 . S
O839 Co831 2.055 . S
O839 C843 1.253 . S
H840 C836 0.931 . S
H841 C837 0.930 . S
O842 Co831 2.039 . S
O842 C832 1.265 . S
C843 O839 1.253 . S
C843 O844 1.227 . S
O844 C843 1.227 . S
N845 Co831 2.140 . S
N845 C848 1.346 . S
N845 C849 1.345 . S
C846 C847 1.387 . S
C846 C850 1.391 . S
C847 C846 1.387 . S
C847 C848 1.369 . S
C847 H856 0.929 . S
C848 N845 1.346 . S
C848 C847 1.369 . S
C848 H851 0.928 . S
C849 N845 1.345 . S
C849 C850 1.371 . S
C849 H852 0.931 . S
C850 C846 1.391 . S
C850 C849 1.371 . S
C850 H857 0.930 . S
H851 C848 0.928 . S
H852 C849 0.931 . S
H853 C829 0.930 . S
H854 C826 0.930 . S
H855 C835 0.930 . S
H856 C847 0.929 . S
H857 C850 0.930 . S
C858 C859 1.351 . S
C858 N861 1.368 . S
C858 H863 0.931 . S
C859 C858 1.351 . S
C859 N860 1.373 . S
C859 H887 0.930 . S
N860 C859 1.373 . S
N860 C862 1.340 . S
N861 C858 1.368 . S
N861 C862 1.321 . S
N861 Co864 2.135 . S
C862 N860 1.340 . S
C862 N861 1.321 . S
C862 H886 0.930 . S
H863 C858 0.931 . S
Co864 N861 2.135 . S
Co864 N867 2.121 . S
Co864 O872 2.055 . S
Co864 O875 2.039 . S
Co864 N878 2.140 . S
C865 O866 1.227 . S
C865 O875 1.265 . S
O866 C865 1.227 . S
N867 Co864 2.121 . S
N867 C869 1.375 . S
N867 C870 1.313 . S
C868 C869 1.338 . S
C868 N871 1.377 . S
C868 H888 0.930 . S
C869 N867 1.375 . S
C869 C868 1.338 . S
C869 H873 0.931 . S
C870 N867 1.313 . S
C870 N871 1.344 . S
C870 H874 0.930 . S
N871 C868 1.377 . S
N871 C870 1.344 . S
O872 Co864 2.055 . S
O872 C876 1.253 . S
H873 C869 0.931 . S
H874 C870 0.930 . S
O875 Co864 2.039 . S
O875 C865 1.265 . S
C876 O872 1.253 . S
C876 O877 1.227 . S
O877 C876 1.227 . S
N878 Co864 2.140 . S
N878 C881 1.346 . S
N878 C882 1.345 . S
C879 C880 1.387 . S
C879 C883 1.391 . S
C880 C879 1.387 . S
C880 C881 1.369 . S
C880 H889 0.929 . S
C881 N878 1.346 . S
C881 C880 1.369 . S
C881 H884 0.928 . S
C882 N878 1.345 . S
C882 C883 1.371 . S
C882 H885 0.931 . S
C883 C879 1.391 . S
C883 C882 1.371 . S
C883 H890 0.930 . S
H884 C881 0.928 . S
H885 C882 0.931 . S
H886 C862 0.930 . S
H887 C859 0.930 . S
H888 C868 0.930 . S
H889 C880 0.929 . S
H890 C883 0.930 . S
C891 C892 1.351 . S
C891 N894 1.368 . S
C891 H896 0.931 . S
C892 C891 1.351 . S
C892 N893 1.373 . S
C892 H920 0.930 . S
N893 C892 1.373 . S
N893 C895 1.340 . S
N894 C891 1.368 . S
N894 C895 1.321 . S
N894 Co897 2.135 . S
C895 N893 1.340 . S
C895 N894 1.321 . S
C895 H919 0.930 . S
H896 C891 0.931 . S
Co897 N894 2.135 . S
Co897 N900 2.121 . S
Co897 O905 2.055 . S
Co897 O908 2.039 . S
Co897 N911 2.140 . S
C898 O899 1.227 . S
C898 O908 1.265 . S
O899 C898 1.227 . S
N900 Co897 2.121 . S
N900 C902 1.375 . S
N900 C903 1.313 . S
C901 C902 1.338 . S
C901 N904 1.377 . S
C901 H921 0.930 . S
C902 N900 1.375 . S
C902 C901 1.338 . S
C902 H906 0.931 . S
C903 N900 1.313 . S
C903 N904 1.344 . S
C903 H907 0.930 . S
N904 C901 1.377 . S
N904 C903 1.344 . S
O905 Co897 2.055 . S
O905 C909 1.253 . S
H906 C902 0.931 . S
H907 C903 0.930 . S
O908 Co897 2.039 . S
O908 C898 1.265 . S
C909 O905 1.253 . S
C909 O910 1.227 . S
O910 C909 1.227 . S
N911 Co897 2.140 . S
N911 C914 1.346 . S
N911 C915 1.345 . S
C912 C913 1.387 . S
C912 C916 1.391 . S
C913 C912 1.387 . S
C913 C914 1.369 . S
C913 H922 0.929 . S
C914 N911 1.346 . S
C914 C913 1.369 . S
C914 H917 0.928 . S
C915 N911 1.345 . S
C915 C916 1.371 . S
C915 H918 0.931 . S
C916 C912 1.391 . S
C916 C915 1.371 . S
C916 H923 0.930 . S
H917 C914 0.928 . S
H918 C915 0.931 . S
H919 C895 0.930 . S
H920 C892 0.930 . S
H921 C901 0.930 . S
H922 C913 0.929 . S
H923 C916 0.930 . S
C924 C925 1.351 . S
C924 N927 1.368 . S
C924 H929 0.931 . S
C925 C924 1.351 . S
C925 N926 1.373 . S
C925 H953 0.930 . S
N926 C925 1.373 . S
N926 C928 1.340 . S
N927 C924 1.368 . S
N927 C928 1.321 . S
N927 Co930 2.135 . S
C928 N926 1.340 . S
C928 N927 1.321 . S
C928 H952 0.930 . S
H929 C924 0.931 . S
Co930 N927 2.135 . S
Co930 N933 2.121 . S
Co930 O938 2.055 . S
Co930 O941 2.039 . S
Co930 N944 2.140 . S
C931 O932 1.227 . S
C931 O941 1.265 . S
O932 C931 1.227 . S
N933 Co930 2.121 . S
N933 C935 1.375 . S
N933 C936 1.313 . S
C934 C935 1.338 . S
C934 N937 1.377 . S
C934 H954 0.930 . S
C935 N933 1.375 . S
C935 C934 1.338 . S
C935 H939 0.931 . S
C936 N933 1.313 . S
C936 N937 1.344 . S
C936 H940 0.930 . S
N937 C934 1.377 . S
N937 C936 1.344 . S
O938 Co930 2.055 . S
O938 C942 1.253 . S
H939 C935 0.931 . S
H940 C936 0.930 . S
O941 Co930 2.039 . S
O941 C931 1.265 . S
C942 O938 1.253 . S
C942 O943 1.227 . S
O943 C942 1.227 . S
N944 Co930 2.140 . S
N944 C947 1.346 . S
N944 C948 1.345 . S
C945 C946 1.387 . S
C945 C949 1.391 . S
C946 C945 1.387 . S
C946 C947 1.369 . S
C946 H955 0.929 . S
C947 N944 1.346 . S
C947 C946 1.369 . S
C947 H950 0.928 . S
C948 N944 1.345 . S
C948 C949 1.371 . S
C948 H951 0.931 . S
C949 C945 1.391 . S
C949 C948 1.371 . S
C949 H956 0.930 . S
H950 C947 0.928 . S
H951 C948 0.931 . S
H952 C928 0.930 . S
H953 C925 0.930 . S
H954 C934 0.930 . S
H955 C946 0.929 . S
H956 C949 0.930 . S
C957 C958 1.351 . S
C957 N960 1.368 . S
C957 H962 0.931 . S
C958 C957 1.351 . S
C958 N959 1.373 . S
C958 H986 0.930 . S
N959 C958 1.373 . S
N959 C961 1.340 . S
N960 C957 1.368 . S
N960 C961 1.321 . S
N960 Co963 2.135 . S
C961 N959 1.340 . S
C961 N960 1.321 . S
C961 H985 0.930 . S
H962 C957 0.931 . S
Co963 N960 2.135 . S
Co963 N966 2.121 . S
Co963 O971 2.055 . S
Co963 O974 2.039 . S
Co963 N977 2.140 . S
C964 O965 1.227 . S
C964 O974 1.265 . S
O965 C964 1.227 . S
N966 Co963 2.121 . S
N966 C968 1.375 . S
N966 C969 1.313 . S
C967 C968 1.338 . S
C967 N970 1.377 . S
C967 H987 0.930 . S
C968 N966 1.375 . S
C968 C967 1.338 . S
C968 H972 0.931 . S
C969 N966 1.313 . S
C969 N970 1.344 . S
C969 H973 0.930 . S
N970 C967 1.377 . S
N970 C969 1.344 . S
O971 Co963 2.055 . S
O971 C975 1.253 . S
H972 C968 0.931 . S
H973 C969 0.930 . S
O974 Co963 2.039 . S
O974 C964 1.265 . S
C975 O971 1.253 . S
C975 O976 1.227 . S
O976 C975 1.227 . S
N977 Co963 2.140 . S
N977 C980 1.346 . S
N977 C981 1.345 . S
C978 C979 1.387 . S
C978 C982 1.391 . S
C979 C978 1.387 . S
C979 C980 1.369 . S
C979 H988 0.929 . S
C980 N977 1.346 . S
C980 C979 1.369 . S
C980 H983 0.928 . S
C981 N977 1.345 . S
C981 C982 1.371 . S
C981 H984 0.931 . S
C982 C978 1.391 . S
C982 C981 1.371 . S
C982 H989 0.930 . S
H983 C980 0.928 . S
H984 C981 0.931 . S
H985 C961 0.930 . S
H986 C958 0.930 . S
H987 C967 0.930 . S
H988 C979 0.929 . S
H989 C982 0.930 . S
C990 C991 1.351 . S
C990 N993 1.368 . S
C990 H995 0.931 . S
C991 C990 1.351 . S
C991 N992 1.373 . S
C991 H1019 0.930 . S
N992 C991 1.373 . S
N992 C994 1.340 . S
N993 C990 1.368 . S
N993 C994 1.321 . S
N993 Co996 2.135 . S
C994 N992 1.340 . S
C994 N993 1.321 . S
C994 H1018 0.930 . S
H995 C990 0.931 . S
Co996 N993 2.135 . S
Co996 N999 2.121 . S
Co996 O1004 2.055 . S
Co996 O1007 2.039 . S
Co996 N1010 2.140 . S
C997 O998 1.227 . S
C997 O1007 1.265 . S
O998 C997 1.227 . S
N999 Co996 2.121 . S
N999 C1001 1.375 . S
N999 C1002 1.313 . S
C1000 C1001 1.338 . S
C1000 N1003 1.377 . S
C1000 H1020 0.930 . S
C1001 N999 1.375 . S
C1001 C1000 1.338 . S
C1001 H1005 0.931 . S
C1002 N999 1.313 . S
C1002 N1003 1.344 . S
C1002 H1006 0.930 . S
N1003 C1000 1.377 . S
N1003 C1002 1.344 . S
O1004 Co996 2.055 . S
O1004 C1008 1.253 . S
H1005 C1001 0.931 . S
H1006 C1002 0.930 . S
O1007 Co996 2.039 . S
O1007 C997 1.265 . S
C1008 O1004 1.253 . S
C1008 O1009 1.227 . S
O1009 C1008 1.227 . S
N1010 Co996 2.140 . S
N1010 C1013 1.346 . S
N1010 C1014 1.345 . S
C1011 C1012 1.387 . S
C1011 C1015 1.391 . S
C1012 C1011 1.387 . S
C1012 C1013 1.369 . S
C1012 H1021 0.929 . S
C1013 N1010 1.346 . S
C1013 C1012 1.369 . S
C1013 H1016 0.928 . S
C1014 N1010 1.345 . S
C1014 C1015 1.371 . S
C1014 H1017 0.931 . S
C1015 C1011 1.391 . S
C1015 C1014 1.371 . S
C1015 H1022 0.930 . S
H1016 C1013 0.928 . S
H1017 C1014 0.931 . S
H1018 C994 0.930 . S
H1019 C991 0.930 . S
H1020 C1000 0.930 . S
H1021 C1012 0.929 . S
H1022 C1015 0.930 . S
C1023 C1024 1.351 . S
C1023 N1026 1.368 . S
C1023 H1028 0.931 . S
C1024 C1023 1.351 . S
C1024 N1025 1.373 . S
C1024 H1052 0.930 . S
N1025 C1024 1.373 . S
N1025 C1027 1.340 . S
N1026 C1023 1.368 . S
N1026 C1027 1.321 . S
N1026 Co1029 2.135 . S
C1027 N1025 1.340 . S
C1027 N1026 1.321 . S
C1027 H1051 0.930 . S
H1028 C1023 0.931 . S
Co1029 N1026 2.135 . S
Co1029 N1032 2.121 . S
Co1029 O1037 2.055 . S
Co1029 O1040 2.039 . S
Co1029 N1043 2.140 . S
C1030 O1031 1.227 . S
C1030 O1040 1.265 . S
O1031 C1030 1.227 . S
N1032 Co1029 2.121 . S
N1032 C1034 1.375 . S
N1032 C1035 1.313 . S
C1033 C1034 1.338 . S
C1033 N1036 1.377 . S
C1033 H1053 0.930 . S
C1034 N1032 1.375 . S
C1034 C1033 1.338 . S
C1034 H1038 0.931 . S
C1035 N1032 1.313 . S
C1035 N1036 1.344 . S
C1035 H1039 0.930 . S
N1036 C1033 1.377 . S
N1036 C1035 1.344 . S
O1037 Co1029 2.055 . S
O1037 C1041 1.253 . S
H1038 C1034 0.931 . S
H1039 C1035 0.930 . S
O1040 Co1029 2.039 . S
O1040 C1030 1.265 . S
C1041 O1037 1.253 . S
C1041 O1042 1.227 . S
O1042 C1041 1.227 . S
N1043 Co1029 2.140 . S
N1043 C1046 1.346 . S
N1043 C1047 1.345 . S
C1044 C1045 1.387 . S
C1044 C1048 1.391 . S
C1045 C1044 1.387 . S
C1045 C1046 1.369 . S
C1045 H1054 0.929 . S
C1046 N1043 1.346 . S
C1046 C1045 1.369 . S
C1046 H1049 0.928 . S
C1047 N1043 1.345 . S
C1047 C1048 1.371 . S
C1047 H1050 0.931 . S
C1048 C1044 1.391 . S
C1048 C1047 1.371 . S
C1048 H1055 0.930 . S
H1049 C1046 0.928 . S
H1050 C1047 0.931 . S
H1051 C1027 0.930 . S
H1052 C1024 0.930 . S
H1053 C1033 0.930 . S
H1054 C1045 0.929 . S
H1055 C1048 0.930 . S
C1056 C1057 1.351 . S
C1056 N1059 1.368 . S
C1056 H1061 0.931 . S
C1057 C1056 1.351 . S
C1057 N1058 1.373 . S
C1057 H1085 0.930 . S
N1058 C1057 1.373 . S
N1058 C1060 1.340 . S
N1059 C1056 1.368 . S
N1059 C1060 1.321 . S
N1059 Co1062 2.135 . S
C1060 N1058 1.340 . S
C1060 N1059 1.321 . S
C1060 H1084 0.930 . S
H1061 C1056 0.931 . S
Co1062 N1059 2.135 . S
Co1062 N1065 2.121 . S
Co1062 O1070 2.055 . S
Co1062 O1073 2.039 . S
Co1062 N1076 2.140 . S
C1063 O1064 1.227 . S
C1063 O1073 1.265 . S
O1064 C1063 1.227 . S
N1065 Co1062 2.121 . S
N1065 C1067 1.375 . S
N1065 C1068 1.313 . S
C1066 C1067 1.338 . S
C1066 N1069 1.377 . S
C1066 H1086 0.930 . S
C1067 N1065 1.375 . S
C1067 C1066 1.338 . S
C1067 H1071 0.931 . S
C1068 N1065 1.313 . S
C1068 N1069 1.344 . S
C1068 H1072 0.930 . S
N1069 C1066 1.377 . S
N1069 C1068 1.344 . S
O1070 Co1062 2.055 . S
O1070 C1074 1.253 . S
H1071 C1067 0.931 . S
H1072 C1068 0.930 . S
O1073 Co1062 2.039 . S
O1073 C1063 1.265 . S
C1074 O1070 1.253 . S
C1074 O1075 1.227 . S
O1075 C1074 1.227 . S
N1076 Co1062 2.140 . S
N1076 C1079 1.346 . S
N1076 C1080 1.345 . S
C1077 C1078 1.387 . S
C1077 C1081 1.391 . S
C1078 C1077 1.387 . S
C1078 C1079 1.369 . S
C1078 H1087 0.929 . S
C1079 N1076 1.346 . S
C1079 C1078 1.369 . S
C1079 H1082 0.928 . S
C1080 N1076 1.345 . S
C1080 C1081 1.371 . S
C1080 H1083 0.931 . S
C1081 C1077 1.391 . S
C1081 C1080 1.371 . S
C1081 H1088 0.930 . S
H1082 C1079 0.928 . S
H1083 C1080 0.931 . S
H1084 C1060 0.930 . S
H1085 C1057 0.930 . S
H1086 C1066 0.930 . S
H1087 C1078 0.929 . S
H1088 C1081 0.930 . S
C1089 C1090 1.351 . S
C1089 N1092 1.368 . S
C1089 H1094 0.931 . S
C1090 C1089 1.351 . S
C1090 N1091 1.373 . S
C1090 H1118 0.930 . S
N1091 C1090 1.373 . S
N1091 C1093 1.340 . S
N1092 C1089 1.368 . S
N1092 C1093 1.321 . S
N1092 Co1095 2.135 . S
C1093 N1091 1.340 . S
C1093 N1092 1.321 . S
C1093 H1117 0.930 . S
H1094 C1089 0.931 . S
Co1095 N1092 2.135 . S
Co1095 N1098 2.121 . S
Co1095 O1103 2.055 . S
Co1095 O1106 2.039 . S
Co1095 N1109 2.140 . S
C1096 O1097 1.227 . S
C1096 O1106 1.265 . S
O1097 C1096 1.227 . S
N1098 Co1095 2.121 . S
N1098 C1100 1.375 . S
N1098 C1101 1.313 . S
C1099 C1100 1.338 . S
C1099 N1102 1.377 . S
C1099 H1119 0.930 . S
C1100 N1098 1.375 . S
C1100 C1099 1.338 . S
C1100 H1104 0.931 . S
C1101 N1098 1.313 . S
C1101 N1102 1.344 . S
C1101 H1105 0.930 . S
N1102 C1099 1.377 . S
N1102 C1101 1.344 . S
O1103 Co1095 2.055 . S
O1103 C1107 1.253 . S
H1104 C1100 0.931 . S
H1105 C1101 0.930 . S
O1106 Co1095 2.039 . S
O1106 C1096 1.265 . S
C1107 O1103 1.253 . S
C1107 O1108 1.227 . S
O1108 C1107 1.227 . S
N1109 Co1095 2.140 . S
N1109 C1112 1.346 . S
N1109 C1113 1.345 . S
C1110 C1111 1.387 . S
C1110 C1114 1.391 . S
C1111 C1110 1.387 . S
C1111 C1112 1.369 . S
C1111 H1120 0.929 . S
C1112 N1109 1.346 . S
C1112 C1111 1.369 . S
C1112 H1115 0.928 . S
C1113 N1109 1.345 . S
C1113 C1114 1.371 . S
C1113 H1116 0.931 . S
C1114 C1110 1.391 . S
C1114 C1113 1.371 . S
C1114 H1121 0.930 . S
H1115 C1112 0.928 . S
H1116 C1113 0.931 . S
H1117 C1093 0.930 . S
H1118 C1090 0.930 . S
H1119 C1099 0.930 . S
H1120 C1111 0.929 . S
H1121 C1114 0.930 . S
C1122 C1123 1.351 . S
C1122 N1125 1.368 . S
C1122 H1127 0.931 . S
C1123 C1122 1.351 . S
C1123 N1124 1.373 . S
C1123 H1151 0.930 . S
N1124 C1123 1.373 . S
N1124 C1126 1.340 . S
N1125 C1122 1.368 . S
N1125 C1126 1.321 . S
N1125 Co1128 2.135 . S
C1126 N1124 1.340 . S
C1126 N1125 1.321 . S
C1126 H1150 0.930 . S
H1127 C1122 0.931 . S
Co1128 N1125 2.135 . S
Co1128 N1131 2.121 . S
Co1128 O1136 2.055 . S
Co1128 O1139 2.039 . S
Co1128 N1142 2.140 . S
C1129 O1130 1.227 . S
C1129 O1139 1.265 . S
O1130 C1129 1.227 . S
N1131 Co1128 2.121 . S
N1131 C1133 1.375 . S
N1131 C1134 1.313 . S
C1132 C1133 1.338 . S
C1132 N1135 1.377 . S
C1132 H1152 0.930 . S
C1133 N1131 1.375 . S
C1133 C1132 1.338 . S
C1133 H1137 0.931 . S
C1134 N1131 1.313 . S
C1134 N1135 1.344 . S
C1134 H1138 0.930 . S
N1135 C1132 1.377 . S
N1135 C1134 1.344 . S
O1136 Co1128 2.055 . S
O1136 C1140 1.253 . S
H1137 C1133 0.931 . S
H1138 C1134 0.930 . S
O1139 Co1128 2.039 . S
O1139 C1129 1.265 . S
C1140 O1136 1.253 . S
C1140 O1141 1.227 . S
O1141 C1140 1.227 . S
N1142 Co1128 2.140 . S
N1142 C1145 1.346 . S
N1142 C1146 1.345 . S
C1143 C1144 1.387 . S
C1143 C1147 1.391 . S
C1144 C1143 1.387 . S
C1144 C1145 1.369 . S
C1144 H1153 0.929 . S
C1145 N1142 1.346 . S
C1145 C1144 1.369 . S
C1145 H1148 0.928 . S
C1146 N1142 1.345 . S
C1146 C1147 1.371 . S
C1146 H1149 0.931 . S
C1147 C1143 1.391 . S
C1147 C1146 1.371 . S
C1147 H1154 0.930 . S
H1148 C1145 0.928 . S
H1149 C1146 0.931 . S
H1150 C1126 0.930 . S
H1151 C1123 0.930 . S
H1152 C1132 0.930 . S
H1153 C1144 0.929 . S
H1154 C1147 0.930 . S
C1155 C1156 1.351 . S
C1155 N1158 1.368 . S
C1155 H1160 0.931 . S
C1156 C1155 1.351 . S
C1156 N1157 1.373 . S
C1156 H1184 0.930 . S
N1157 C1156 1.373 . S
N1157 C1159 1.340 . S
N1158 C1155 1.368 . S
N1158 C1159 1.321 . S
N1158 Co1161 2.135 . S
C1159 N1157 1.340 . S
C1159 N1158 1.321 . S
C1159 H1183 0.930 . S
H1160 C1155 0.931 . S
Co1161 N1158 2.135 . S
Co1161 N1164 2.121 . S
Co1161 O1169 2.055 . S
Co1161 O1172 2.039 . S
Co1161 N1175 2.140 . S
C1162 O1163 1.227 . S
C1162 O1172 1.265 . S
O1163 C1162 1.227 . S
N1164 Co1161 2.121 . S
N1164 C1166 1.375 . S
N1164 C1167 1.313 . S
C1165 C1166 1.338 . S
C1165 N1168 1.377 . S
C1165 H1185 0.930 . S
C1166 N1164 1.375 . S
C1166 C1165 1.338 . S
C1166 H1170 0.931 . S
C1167 N1164 1.313 . S
C1167 N1168 1.344 . S
C1167 H1171 0.930 . S
N1168 C1165 1.377 . S
N1168 C1167 1.344 . S
O1169 Co1161 2.055 . S
O1169 C1173 1.253 . S
H1170 C1166 0.931 . S
H1171 C1167 0.930 . S
O1172 Co1161 2.039 . S
O1172 C1162 1.265 . S
C1173 O1169 1.253 . S
C1173 O1174 1.227 . S
O1174 C1173 1.227 . S
N1175 Co1161 2.140 . S
N1175 C1178 1.346 . S
N1175 C1179 1.345 . S
C1176 C1177 1.387 . S
C1176 C1180 1.391 . S
C1177 C1176 1.387 . S
C1177 C1178 1.369 . S
C1177 H1186 0.929 . S
C1178 N1175 1.346 . S
C1178 C1177 1.369 . S
C1178 H1181 0.928 . S
C1179 N1175 1.345 . S
C1179 C1180 1.371 . S
C1179 H1182 0.931 . S
C1180 C1176 1.391 . S
C1180 C1179 1.371 . S
C1180 H1187 0.930 . S
H1181 C1178 0.928 . S
H1182 C1179 0.931 . S
H1183 C1159 0.930 . S
H1184 C1156 0.930 . S
H1185 C1165 0.930 . S
H1186 C1177 0.929 . S
H1187 C1180 0.930 . S
C1188 C1189 1.351 . S
C1188 N1191 1.368 . S
C1188 H1193 0.931 . S
C1189 C1188 1.351 . S
C1189 N1190 1.373 . S
C1189 H1217 0.930 . S
N1190 C1189 1.373 . S
N1190 C1192 1.340 . S
N1191 C1188 1.368 . S
N1191 C1192 1.321 . S
N1191 Co1194 2.135 . S
C1192 N1190 1.340 . S
C1192 N1191 1.321 . S
C1192 H1216 0.930 . S
H1193 C1188 0.931 . S
Co1194 N1191 2.135 . S
Co1194 N1197 2.121 . S
Co1194 O1202 2.055 . S
Co1194 O1205 2.039 . S
Co1194 N1208 2.140 . S
C1195 O1196 1.227 . S
C1195 O1205 1.265 . S
O1196 C1195 1.227 . S
N1197 Co1194 2.121 . S
N1197 C1199 1.375 . S
N1197 C1200 1.313 . S
C1198 C1199 1.338 . S
C1198 N1201 1.377 . S
C1198 H1218 0.930 . S
C1199 N1197 1.375 . S
C1199 C1198 1.338 . S
C1199 H1203 0.931 . S
C1200 N1197 1.313 . S
C1200 N1201 1.344 . S
C1200 H1204 0.930 . S
N1201 C1198 1.377 . S
N1201 C1200 1.344 . S
O1202 Co1194 2.055 . S
O1202 C1206 1.253 . S
H1203 C1199 0.931 . S
H1204 C1200 0.930 . S
O1205 Co1194 2.039 . S
O1205 C1195 1.265 . S
C1206 O1202 1.253 . S
C1206 O1207 1.227 . S
O1207 C1206 1.227 . S
N1208 Co1194 2.140 . S
N1208 C1211 1.346 . S
N1208 C1212 1.345 . S
C1209 C1210 1.387 . S
C1209 C1213 1.391 . S
C1210 C1209 1.387 . S
C1210 C1211 1.369 . S
C1210 H1219 0.929 . S
C1211 N1208 1.346 . S
C1211 C1210 1.369 . S
C1211 H1214 0.928 . S
C1212 N1208 1.345 . S
C1212 C1213 1.371 . S
C1212 H1215 0.931 . S
C1213 C1209 1.391 . S
C1213 C1212 1.371 . S
C1213 H1220 0.930 . S
H1214 C1211 0.928 . S
H1215 C1212 0.931 . S
H1216 C1192 0.930 . S
H1217 C1189 0.930 . S
H1218 C1198 0.930 . S
H1219 C1210 0.929 . S
H1220 C1213 0.930 . S
C1221 C1222 1.351 . S
C1221 N1224 1.368 . S
C1221 H1226 0.931 . S
C1222 C1221 1.351 . S
C1222 N1223 1.373 . S
C1222 H1250 0.930 . S
N1223 C1222 1.373 . S
N1223 C1225 1.340 . S
N1224 C1221 1.368 . S
N1224 C1225 1.321 . S
N1224 Co1227 2.135 . S
C1225 N1223 1.340 . S
C1225 N1224 1.321 . S
C1225 H1249 0.930 . S
H1226 C1221 0.931 . S
Co1227 N1224 2.135 . S
Co1227 N1230 2.121 . S
Co1227 O1235 2.055 . S
Co1227 O1238 2.039 . S
Co1227 N1241 2.140 . S
C1228 O1229 1.227 . S
C1228 O1238 1.265 . S
O1229 C1228 1.227 . S
N1230 Co1227 2.121 . S
N1230 C1232 1.375 . S
N1230 C1233 1.313 . S
C1231 C1232 1.338 . S
C1231 N1234 1.377 . S
C1231 H1251 0.930 . S
C1232 N1230 1.375 . S
C1232 C1231 1.338 . S
C1232 H1236 0.931 . S
C1233 N1230 1.313 . S
C1233 N1234 1.344 . S
C1233 H1237 0.930 . S
N1234 C1231 1.377 . S
N1234 C1233 1.344 . S
O1235 Co1227 2.055 . S
O1235 C1239 1.253 . S
H1236 C1232 0.931 . S
H1237 C1233 0.930 . S
O1238 Co1227 2.039 . S
O1238 C1228 1.265 . S
C1239 O1235 1.253 . S
C1239 O1240 1.227 . S
O1240 C1239 1.227 . S
N1241 Co1227 2.140 . S
N1241 C1244 1.346 . S
N1241 C1245 1.345 . S
C1242 C1243 1.387 . S
C1242 C1246 1.391 . S
C1243 C1242 1.387 . S
C1243 C1244 1.369 . S
C1243 H1252 0.929 . S
C1244 N1241 1.346 . S
C1244 C1243 1.369 . S
C1244 H1247 0.928 . S
C1245 N1241 1.345 . S
C1245 C1246 1.371 . S
C1245 H1248 0.931 . S
C1246 C1242 1.391 . S
C1246 C1245 1.371 . S
C1246 H1253 0.930 . S
H1247 C1244 0.928 . S
H1248 C1245 0.931 . S
H1249 C1225 0.930 . S
H1250 C1222 0.930 . S
H1251 C1231 0.930 . S
H1252 C1243 0.929 . S
H1253 C1246 0.930 . S
C1254 C1255 1.351 . S
C1254 N1257 1.368 . S
C1254 H1259 0.931 . S
C1255 C1254 1.351 . S
C1255 N1256 1.373 . S
C1255 H1283 0.930 . S
N1256 C1255 1.373 . S
N1256 C1258 1.340 . S
N1257 C1254 1.368 . S
N1257 C1258 1.321 . S
N1257 Co1260 2.135 . S
C1258 N1256 1.340 . S
C1258 N1257 1.321 . S
C1258 H1282 0.930 . S
H1259 C1254 0.931 . S
Co1260 N1257 2.135 . S
Co1260 N1263 2.121 . S
Co1260 O1268 2.055 . S
Co1260 O1271 2.039 . S
Co1260 N1274 2.140 . S
C1261 O1262 1.227 . S
C1261 O1271 1.265 . S
O1262 C1261 1.227 . S
N1263 Co1260 2.121 . S
N1263 C1265 1.375 . S
N1263 C1266 1.313 . S
C1264 C1265 1.338 . S
C1264 N1267 1.377 . S
C1264 H1284 0.930 . S
C1265 N1263 1.375 . S
C1265 C1264 1.338 . S
C1265 H1269 0.931 . S
C1266 N1263 1.313 . S
C1266 N1267 1.344 . S
C1266 H1270 0.930 . S
N1267 C1264 1.377 . S
N1267 C1266 1.344 . S
O1268 Co1260 2.055 . S
O1268 C1272 1.253 . S
H1269 C1265 0.931 . S
H1270 C1266 0.930 . S
O1271 Co1260 2.039 . S
O1271 C1261 1.265 . S
C1272 O1268 1.253 . S
C1272 O1273 1.227 . S
O1273 C1272 1.227 . S
N1274 Co1260 2.140 . S
N1274 C1277 1.346 . S
N1274 C1278 1.345 . S
C1275 C1276 1.387 . S
C1275 C1279 1.391 . S
C1276 C1275 1.387 . S
C1276 C1277 1.369 . S
C1276 H1285 0.929 . S
C1277 N1274 1.346 . S
C1277 C1276 1.369 . S
C1277 H1280 0.928 . S
C1278 N1274 1.345 . S
C1278 C1279 1.371 . S
C1278 H1281 0.931 . S
C1279 C1275 1.391 . S
C1279 C1278 1.371 . S
C1279 H1286 0.930 . S
H1280 C1277 0.928 . S
H1281 C1278 0.931 . S
H1282 C1258 0.930 . S
H1283 C1255 0.930 . S
H1284 C1264 0.930 . S
H1285 C1276 0.929 . S
H1286 C1279 0.930 . S
C1287 C1288 1.351 . S
C1287 N1290 1.368 . S
C1287 H1292 0.931 . S
C1288 C1287 1.351 . S
C1288 N1289 1.373 . S
C1288 H1316 0.930 . S
N1289 C1288 1.373 . S
N1289 C1291 1.340 . S
N1290 C1287 1.368 . S
N1290 C1291 1.321 . S
N1290 Co1293 2.135 . S
C1291 N1289 1.340 . S
C1291 N1290 1.321 . S
C1291 H1315 0.930 . S
H1292 C1287 0.931 . S
Co1293 N1290 2.135 . S
Co1293 N1296 2.121 . S
Co1293 O1301 2.055 . S
Co1293 O1304 2.039 . S
Co1293 N1307 2.140 . S
C1294 O1295 1.227 . S
C1294 O1304 1.265 . S
O1295 C1294 1.227 . S
N1296 Co1293 2.121 . S
N1296 C1298 1.375 . S
N1296 C1299 1.313 . S
C1297 C1298 1.338 . S
C1297 N1300 1.377 . S
C1297 H1317 0.930 . S
C1298 N1296 1.375 . S
C1298 C1297 1.338 . S
C1298 H1302 0.931 . S
C1299 N1296 1.313 . S
C1299 N1300 1.344 . S
C1299 H1303 0.930 . S
N1300 C1297 1.377 . S
N1300 C1299 1.344 . S
O1301 Co1293 2.055 . S
O1301 C1305 1.253 . S
H1302 C1298 0.931 . S
H1303 C1299 0.930 . S
O1304 Co1293 2.039 . S
O1304 C1294 1.265 . S
C1305 O1301 1.253 . S
C1305 O1306 1.227 . S
O1306 C1305 1.227 . S
N1307 Co1293 2.140 . S
N1307 C1310 1.346 . S
N1307 C1311 1.345 . S
C1308 C1309 1.387 . S
C1308 C1312 1.391 . S
C1309 C1308 1.387 . S
C1309 C1310 1.369 . S
C1309 H1318 0.929 . S
C1310 N1307 1.346 . S
C1310 C1309 1.369 . S
C1310 H1313 0.928 . S
C1311 N1307 1.345 . S
C1311 C1312 1.371 . S
C1311 H1314 0.931 . S
C1312 C1308 1.391 . S
C1312 C1311 1.371 . S
C1312 H1319 0.930 . S
H1313 C1310 0.928 . S
H1314 C1311 0.931 . S
H1315 C1291 0.930 . S
H1316 C1288 0.930 . S
H1317 C1297 0.930 . S
H1318 C1309 0.929 . S
H1319 C1312 0.930 . S
C1320 C1321 1.351 . S
C1320 N1323 1.368 . S
C1320 H1325 0.931 . S
C1321 C1320 1.351 . S
C1321 N1322 1.373 . S
C1321 H1349 0.930 . S
N1322 C1321 1.373 . S
N1322 C1324 1.340 . S
N1323 C1320 1.368 . S
N1323 C1324 1.321 . S
N1323 Co1326 2.135 . S
C1324 N1322 1.340 . S
C1324 N1323 1.321 . S
C1324 H1348 0.930 . S
H1325 C1320 0.931 . S
Co1326 N1323 2.135 . S
Co1326 N1329 2.121 . S
Co1326 O1334 2.055 . S
Co1326 O1337 2.039 . S
Co1326 N1340 2.140 . S
C1327 O1328 1.227 . S
C1327 O1337 1.265 . S
O1328 C1327 1.227 . S
N1329 Co1326 2.121 . S
N1329 C1331 1.375 . S
N1329 C1332 1.313 . S
C1330 C1331 1.338 . S
C1330 N1333 1.377 . S
C1330 H1350 0.930 . S
C1331 N1329 1.375 . S
C1331 C1330 1.338 . S
C1331 H1335 0.931 . S
C1332 N1329 1.313 . S
C1332 N1333 1.344 . S
C1332 H1336 0.930 . S
N1333 C1330 1.377 . S
N1333 C1332 1.344 . S
O1334 Co1326 2.055 . S
O1334 C1338 1.253 . S
H1335 C1331 0.931 . S
H1336 C1332 0.930 . S
O1337 Co1326 2.039 . S
O1337 C1327 1.265 . S
C1338 O1334 1.253 . S
C1338 O1339 1.227 . S
O1339 C1338 1.227 . S
N1340 Co1326 2.140 . S
N1340 C1343 1.346 . S
N1340 C1344 1.345 . S
C1341 C1342 1.387 . S
C1341 C1345 1.391 . S
C1342 C1341 1.387 . S
C1342 C1343 1.369 . S
C1342 H1351 0.929 . S
C1343 N1340 1.346 . S
C1343 C1342 1.369 . S
C1343 H1346 0.928 . S
C1344 N1340 1.345 . S
C1344 C1345 1.371 . S
C1344 H1347 0.931 . S
C1345 C1341 1.391 . S
C1345 C1344 1.371 . S
C1345 H1352 0.930 . S
H1346 C1343 0.928 . S
H1347 C1344 0.931 . S
H1348 C1324 0.930 . S
H1349 C1321 0.930 . S
H1350 C1330 0.930 . S
H1351 C1342 0.929 . S
H1352 C1345 0.930 . S
C1353 C1354 1.351 . S
C1353 N1356 1.368 . S
C1353 H1358 0.931 . S
C1354 C1353 1.351 . S
C1354 N1355 1.373 . S
C1354 H1382 0.930 . S
N1355 C1354 1.373 . S
N1355 C1357 1.340 . S
N1356 C1353 1.368 . S
N1356 C1357 1.321 . S
N1356 Co1359 2.135 . S
C1357 N1355 1.340 . S
C1357 N1356 1.321 . S
C1357 H1381 0.930 . S
H1358 C1353 0.931 . S
Co1359 N1356 2.135 . S
Co1359 N1362 2.121 . S
Co1359 O1367 2.055 . S
Co1359 O1370 2.039 . S
Co1359 N1373 2.140 . S
C1360 O1361 1.227 . S
C1360 O1370 1.265 . S
O1361 C1360 1.227 . S
N1362 Co1359 2.121 . S
N1362 C1364 1.375 . S
N1362 C1365 1.313 . S
C1363 C1364 1.338 . S
C1363 N1366 1.377 . S
C1363 H1383 0.930 . S
C1364 N1362 1.375 . S
C1364 C1363 1.338 . S
C1364 H1368 0.931 . S
C1365 N1362 1.313 . S
C1365 N1366 1.344 . S
C1365 H1369 0.930 . S
N1366 C1363 1.377 . S
N1366 C1365 1.344 . S
O1367 Co1359 2.055 . S
O1367 C1371 1.253 . S
H1368 C1364 0.931 . S
H1369 C1365 0.930 . S
O1370 Co1359 2.039 . S
O1370 C1360 1.265 . S
C1371 O1367 1.253 . S
C1371 O1372 1.227 . S
O1372 C1371 1.227 . S
N1373 Co1359 2.140 . S
N1373 C1376 1.346 . S
N1373 C1377 1.345 . S
C1374 C1375 1.387 . S
C1374 C1378 1.391 . S
C1375 C1374 1.387 . S
C1375 C1376 1.369 . S
C1375 H1384 0.929 . S
C1376 N1373 1.346 . S
C1376 C1375 1.369 . S
C1376 H1379 0.928 . S
C1377 N1373 1.345 . S
C1377 C1378 1.371 . S
C1377 H1380 0.931 . S
C1378 C1374 1.391 . S
C1378 C1377 1.371 . S
C1378 H1385 0.930 . S
H1379 C1376 0.928 . S
H1380 C1377 0.931 . S
H1381 C1357 0.930 . S
H1382 C1354 0.930 . S
H1383 C1363 0.930 . S
H1384 C1375 0.929 . S
H1385 C1378 0.930 . S
C1386 C1387 1.351 . S
C1386 N1389 1.368 . S
C1386 H1391 0.931 . S
C1387 C1386 1.351 . S
C1387 N1388 1.373 . S
C1387 H1415 0.930 . S
N1388 C1387 1.373 . S
N1388 C1390 1.340 . S
N1389 C1386 1.368 . S
N1389 C1390 1.321 . S
N1389 Co1392 2.135 . S
C1390 N1388 1.340 . S
C1390 N1389 1.321 . S
C1390 H1414 0.930 . S
H1391 C1386 0.931 . S
Co1392 N1389 2.135 . S
Co1392 N1395 2.121 . S
Co1392 O1400 2.055 . S
Co1392 O1403 2.039 . S
Co1392 N1406 2.140 . S
C1393 O1394 1.227 . S
C1393 O1403 1.265 . S
O1394 C1393 1.227 . S
N1395 Co1392 2.121 . S
N1395 C1397 1.375 . S
N1395 C1398 1.313 . S
C1396 C1397 1.338 . S
C1396 N1399 1.377 . S
C1396 H1416 0.930 . S
C1397 N1395 1.375 . S
C1397 C1396 1.338 . S
C1397 H1401 0.931 . S
C1398 N1395 1.313 . S
C1398 N1399 1.344 . S
C1398 H1402 0.930 . S
N1399 C1396 1.377 . S
N1399 C1398 1.344 . S
O1400 Co1392 2.055 . S
O1400 C1404 1.253 . S
H1401 C1397 0.931 . S
H1402 C1398 0.930 . S
O1403 Co1392 2.039 . S
O1403 C1393 1.265 . S
C1404 O1400 1.253 . S
C1404 O1405 1.227 . S
O1405 C1404 1.227 . S
N1406 Co1392 2.140 . S
N1406 C1409 1.346 . S
N1406 C1410 1.345 . S
C1407 C1408 1.387 . S
C1407 C1411 1.391 . S
C1408 C1407 1.387 . S
C1408 C1409 1.369 . S
C1408 H1417 0.929 . S
C1409 N1406 1.346 . S
C1409 C1408 1.369 . S
C1409 H1412 0.928 . S
C1410 N1406 1.345 . S
C1410 C1411 1.371 . S
C1410 H1413 0.931 . S
C1411 C1407 1.391 . S
C1411 C1410 1.371 . S
C1411 H1418 0.930 . S
H1412 C1409 0.928 . S
H1413 C1410 0.931 . S
H1414 C1390 0.930 . S
H1415 C1387 0.930 . S
H1416 C1396 0.930 . S
H1417 C1408 0.929 . S
H1418 C1411 0.930 . S
C1419 C1420 1.351 . S
C1419 N1422 1.368 . S
C1419 H1424 0.931 . S
C1420 C1419 1.351 . S
C1420 N1421 1.373 . S
C1420 H1448 0.930 . S
N1421 C1420 1.373 . S
N1421 C1423 1.340 . S
N1422 C1419 1.368 . S
N1422 C1423 1.321 . S
N1422 Co1425 2.135 . S
C1423 N1421 1.340 . S
C1423 N1422 1.321 . S
C1423 H1447 0.930 . S
H1424 C1419 0.931 . S
Co1425 N1422 2.135 . S
Co1425 N1428 2.121 . S
Co1425 O1433 2.055 . S
Co1425 O1436 2.039 . S
Co1425 N1439 2.140 . S
C1426 O1427 1.227 . S
C1426 O1436 1.265 . S
O1427 C1426 1.227 . S
N1428 Co1425 2.121 . S
N1428 C1430 1.375 . S
N1428 C1431 1.313 . S
C1429 C1430 1.338 . S
C1429 N1432 1.377 . S
C1429 H1449 0.930 . S
C1430 N1428 1.375 . S
C1430 C1429 1.338 . S
C1430 H1434 0.931 . S
C1431 N1428 1.313 . S
C1431 N1432 1.344 . S
C1431 H1435 0.930 . S
N1432 C1429 1.377 . S
N1432 C1431 1.344 . S
O1433 Co1425 2.055 . S
O1433 C1437 1.253 . S
H1434 C1430 0.931 . S
H1435 C1431 0.930 . S
O1436 Co1425 2.039 . S
O1436 C1426 1.265 . S
C1437 O1433 1.253 . S
C1437 O1438 1.227 . S
O1438 C1437 1.227 . S
N1439 Co1425 2.140 . S
N1439 C1442 1.346 . S
N1439 C1443 1.345 . S
C1440 C1441 1.387 . S
C1440 C1444 1.391 . S
C1441 C1440 1.387 . S
C1441 C1442 1.369 . S
C1441 H1450 0.929 . S
C1442 N1439 1.346 . S
C1442 C1441 1.369 . S
C1442 H1445 0.928 . S
C1443 N1439 1.345 . S
C1443 C1444 1.371 . S
C1443 H1446 0.931 . S
C1444 C1440 1.391 . S
C1444 C1443 1.371 . S
C1444 H1451 0.930 . S
H1445 C1442 0.928 . S
H1446 C1443 0.931 . S
H1447 C1423 0.930 . S
H1448 C1420 0.930 . S
H1449 C1429 0.930 . S
H1450 C1441 0.929 . S
H1451 C1444 0.930 . S
C1452 C1453 1.351 . S
C1452 N1455 1.368 . S
C1452 H1457 0.931 . S
C1453 C1452 1.351 . S
C1453 N1454 1.373 . S
C1453 H1481 0.930 . S
N1454 C1453 1.373 . S
N1454 C1456 1.340 . S
N1455 C1452 1.368 . S
N1455 C1456 1.321 . S
N1455 Co1458 2.135 . S
C1456 N1454 1.340 . S
C1456 N1455 1.321 . S
C1456 H1480 0.930 . S
H1457 C1452 0.931 . S
Co1458 N1455 2.135 . S
Co1458 N1461 2.121 . S
Co1458 O1466 2.055 . S
Co1458 O1469 2.039 . S
Co1458 N1472 2.140 . S
C1459 O1460 1.227 . S
C1459 O1469 1.265 . S
O1460 C1459 1.227 . S
N1461 Co1458 2.121 . S
N1461 C1463 1.375 . S
N1461 C1464 1.313 . S
C1462 C1463 1.338 . S
C1462 N1465 1.377 . S
C1462 H1482 0.930 . S
C1463 N1461 1.375 . S
C1463 C1462 1.338 . S
C1463 H1467 0.931 . S
C1464 N1461 1.313 . S
C1464 N1465 1.344 . S
C1464 H1468 0.930 . S
N1465 C1462 1.377 . S
N1465 C1464 1.344 . S
O1466 Co1458 2.055 . S
O1466 C1470 1.253 . S
H1467 C1463 0.931 . S
H1468 C1464 0.930 . S
O1469 Co1458 2.039 . S
O1469 C1459 1.265 . S
C1470 O1466 1.253 . S
C1470 O1471 1.227 . S
O1471 C1470 1.227 . S
N1472 Co1458 2.140 . S
N1472 C1475 1.346 . S
N1472 C1476 1.345 . S
C1473 C1474 1.387 . S
C1473 C1477 1.391 . S
C1474 C1473 1.387 . S
C1474 C1475 1.369 . S
C1474 H1483 0.929 . S
C1475 N1472 1.346 . S
C1475 C1474 1.369 . S
C1475 H1478 0.928 . S
C1476 N1472 1.345 . S
C1476 C1477 1.371 . S
C1476 H1479 0.931 . S
C1477 C1473 1.391 . S
C1477 C1476 1.371 . S
C1477 H1484 0.930 . S
H1478 C1475 0.928 . S
H1479 C1476 0.931 . S
H1480 C1456 0.930 . S
H1481 C1453 0.930 . S
H1482 C1462 0.930 . S
H1483 C1474 0.929 . S
H1484 C1477 0.930 . S
C1485 C1486 1.351 . S
C1485 N1488 1.368 . S
C1485 H1490 0.931 . S
C1486 C1485 1.351 . S
C1486 N1487 1.373 . S
C1486 H1514 0.930 . S
N1487 C1486 1.373 . S
N1487 C1489 1.340 . S
N1488 C1485 1.368 . S
N1488 C1489 1.321 . S
N1488 Co1491 2.135 . S
C1489 N1487 1.340 . S
C1489 N1488 1.321 . S
C1489 H1513 0.930 . S
H1490 C1485 0.931 . S
Co1491 N1488 2.135 . S
Co1491 N1494 2.121 . S
Co1491 O1499 2.055 . S
Co1491 O1502 2.039 . S
Co1491 N1505 2.140 . S
C1492 O1493 1.227 . S
C1492 O1502 1.265 . S
O1493 C1492 1.227 . S
N1494 Co1491 2.121 . S
N1494 C1496 1.375 . S
N1494 C1497 1.313 . S
C1495 C1496 1.338 . S
C1495 N1498 1.377 . S
C1495 H1515 0.930 . S
C1496 N1494 1.375 . S
C1496 C1495 1.338 . S
C1496 H1500 0.931 . S
C1497 N1494 1.313 . S
C1497 N1498 1.344 . S
C1497 H1501 0.930 . S
N1498 C1495 1.377 . S
N1498 C1497 1.344 . S
O1499 Co1491 2.055 . S
O1499 C1503 1.253 . S
H1500 C1496 0.931 . S
H1501 C1497 0.930 . S
O1502 Co1491 2.039 . S
O1502 C1492 1.265 . S
C1503 O1499 1.253 . S
C1503 O1504 1.227 . S
O1504 C1503 1.227 . S
N1505 Co1491 2.140 . S
N1505 C1508 1.346 . S
N1505 C1509 1.345 . S
C1506 C1507 1.387 . S
C1506 C1510 1.391 . S
C1507 C1506 1.387 . S
C1507 C1508 1.369 . S
C1507 H1516 0.929 . S
C1508 N1505 1.346 . S
C1508 C1507 1.369 . S
C1508 H1511 0.928 . S
C1509 N1505 1.345 . S
C1509 C1510 1.371 . S
C1509 H1512 0.931 . S
C1510 C1506 1.391 . S
C1510 C1509 1.371 . S
C1510 H1517 0.930 . S
H1511 C1508 0.928 . S
H1512 C1509 0.931 . S
H1513 C1489 0.930 . S
H1514 C1486 0.930 . S
H1515 C1495 0.930 . S
H1516 C1507 0.929 . S
H1517 C1510 0.930 . S
C1518 C1519 1.351 . S
C1518 N1521 1.368 . S
C1518 H1523 0.931 . S
C1519 C1518 1.351 . S
C1519 N1520 1.373 . S
C1519 H1547 0.930 . S
N1520 C1519 1.373 . S
N1520 C1522 1.340 . S
N1521 C1518 1.368 . S
N1521 C1522 1.321 . S
N1521 Co1524 2.135 . S
C1522 N1520 1.340 . S
C1522 N1521 1.321 . S
C1522 H1546 0.930 . S
H1523 C1518 0.931 . S
Co1524 N1521 2.135 . S
Co1524 N1527 2.121 . S
Co1524 O1532 2.055 . S
Co1524 O1535 2.039 . S
Co1524 N1538 2.140 . S
C1525 O1526 1.227 . S
C1525 O1535 1.265 . S
O1526 C1525 1.227 . S
N1527 Co1524 2.121 . S
N1527 C1529 1.375 . S
N1527 C1530 1.313 . S
C1528 C1529 1.338 . S
C1528 N1531 1.377 . S
C1528 H1548 0.930 . S
C1529 N1527 1.375 . S
C1529 C1528 1.338 . S
C1529 H1533 0.931 . S
C1530 N1527 1.313 . S
C1530 N1531 1.344 . S
C1530 H1534 0.930 . S
N1531 C1528 1.377 . S
N1531 C1530 1.344 . S
O1532 Co1524 2.055 . S
O1532 C1536 1.253 . S
H1533 C1529 0.931 . S
H1534 C1530 0.930 . S
O1535 Co1524 2.039 . S
O1535 C1525 1.265 . S
C1536 O1532 1.253 . S
C1536 O1537 1.227 . S
O1537 C1536 1.227 . S
N1538 Co1524 2.140 . S
N1538 C1541 1.346 . S
N1538 C1542 1.345 . S
C1539 C1540 1.387 . S
C1539 C1543 1.391 . S
C1540 C1539 1.387 . S
C1540 C1541 1.369 . S
C1540 H1549 0.929 . S
C1541 N1538 1.346 . S
C1541 C1540 1.369 . S
C1541 H1544 0.928 . S
C1542 N1538 1.345 . S
C1542 C1543 1.371 . S
C1542 H1545 0.931 . S
C1543 C1539 1.391 . S
C1543 C1542 1.371 . S
C1543 H1550 0.930 . S
H1544 C1541 0.928 . S
H1545 C1542 0.931 . S
H1546 C1522 0.930 . S
H1547 C1519 0.930 . S
H1548 C1528 0.930 . S
H1549 C1540 0.929 . S
H1550 C1543 0.930 . S
C1551 C1552 1.351 . S
C1551 N1554 1.368 . S
C1551 H1556 0.931 . S
C1552 C1551 1.351 . S
C1552 N1553 1.373 . S
C1552 H1580 0.930 . S
N1553 C1552 1.373 . S
N1553 C1555 1.340 . S
N1554 C1551 1.368 . S
N1554 C1555 1.321 . S
N1554 Co1557 2.135 . S
C1555 N1553 1.340 . S
C1555 N1554 1.321 . S
C1555 H1579 0.930 . S
H1556 C1551 0.931 . S
Co1557 N1554 2.135 . S
Co1557 N1560 2.121 . S
Co1557 O1565 2.055 . S
Co1557 O1568 2.039 . S
Co1557 N1571 2.140 . S
C1558 O1559 1.227 . S
C1558 O1568 1.265 . S
O1559 C1558 1.227 . S
N1560 Co1557 2.121 . S
N1560 C1562 1.375 . S
N1560 C1563 1.313 . S
C1561 C1562 1.338 . S
C1561 N1564 1.377 . S
C1561 H1581 0.930 . S
C1562 N1560 1.375 . S
C1562 C1561 1.338 . S
C1562 H1566 0.931 . S
C1563 N1560 1.313 . S
C1563 N1564 1.344 . S
C1563 H1567 0.930 . S
N1564 C1561 1.377 . S
N1564 C1563 1.344 . S
O1565 Co1557 2.055 . S
O1565 C1569 1.253 . S
H1566 C1562 0.931 . S
H1567 C1563 0.930 . S
O1568 Co1557 2.039 . S
O1568 C1558 1.265 . S
C1569 O1565 1.253 . S
C1569 O1570 1.227 . S
O1570 C1569 1.227 . S
N1571 Co1557 2.140 . S
N1571 C1574 1.346 . S
N1571 C1575 1.345 . S
C1572 C1573 1.387 . S
C1572 C1576 1.391 . S
C1573 C1572 1.387 . S
C1573 C1574 1.369 . S
C1573 H1582 0.929 . S
C1574 N1571 1.346 . S
C1574 C1573 1.369 . S
C1574 H1577 0.928 . S
C1575 N1571 1.345 . S
C1575 C1576 1.371 . S
C1575 H1578 0.931 . S
C1576 C1572 1.391 . S
C1576 C1575 1.371 . S
C1576 H1583 0.930 . S
H1577 C1574 0.928 . S
H1578 C1575 0.931 . S
H1579 C1555 0.930 . S
H1580 C1552 0.930 . S
H1581 C1561 0.930 . S
H1582 C1573 0.929 . S
H1583 C1576 0.930 . S
H1584 C1592 0.950 . S
H1585 C1597 0.950 . S
H1586 C1594 0.950 . S
H1587 C1596 0.950 . S
H1588 C1598 0.950 . S
H1589 C1600 0.950 . S
H1590 C1602 0.950 . S
H1591 C1603 0.950 . S
C1592 H1584 0.950 . S
C1592 C1593 1.386 . S
C1592 C1594 1.391 . S
C1593 C1592 1.386 . S
C1593 C1597 1.393 . S
C1594 H1586 0.950 . S
C1594 C1592 1.391 . S
C1594 C1595 1.400 . S
C1595 C1594 1.400 . S
C1595 C1596 1.398 . S
C1595 C1601 1.491 . S
C1596 H1587 0.950 . S
C1596 C1595 1.398 . S
C1596 C1597 1.391 . S
C1597 H1585 0.950 . S
C1597 C1593 1.393 . S
C1597 C1596 1.391 . S
C1598 H1588 0.950 . S
C1598 C1599 1.386 . S
C1598 C1600 1.391 . S
C1599 C1598 1.386 . S
C1599 C1603 1.393 . S
C1600 H1589 0.950 . S
C1600 C1598 1.391 . S
C1600 C1601 1.400 . S
C1601 C1595 1.491 . S
C1601 C1600 1.400 . S
C1601 C1602 1.398 . S
C1602 H1590 0.950 . S
C1602 C1601 1.398 . S
C1602 C1603 1.391 . S
C1603 H1591 0.950 . S
C1603 C1599 1.393 . S
C1603 C1602 1.391 . S
H1604 C1612 0.950 . S
H1605 C1617 0.950 . S
H1606 C1614 0.950 . S
H1607 C1616 0.950 . S
H1608 C1618 0.950 . S
H1609 C1620 0.950 . S
H1610 C1622 0.950 . S
H1611 C1623 0.950 . S
C1612 H1604 0.950 . S
C1612 C1613 1.386 . S
C1612 C1614 1.391 . S
C1613 C1612 1.386 . S
C1613 C1617 1.393 . S
C1614 H1606 0.950 . S
C1614 C1612 1.391 . S
C1614 C1615 1.400 . S
C1615 C1614 1.400 . S
C1615 C1616 1.398 . S
C1615 C1621 1.491 . S
C1616 H1607 0.950 . S
C1616 C1615 1.398 . S
C1616 C1617 1.391 . S
C1617 H1605 0.950 . S
C1617 C1613 1.393 . S
C1617 C1616 1.391 . S
C1618 H1608 0.950 . S
C1618 C1619 1.386 . S
C1618 C1620 1.391 . S
C1619 C1618 1.386 . S
C1619 C1623 1.393 . S
C1620 H1609 0.950 . S
C1620 C1618 1.391 . S
C1620 C1621 1.400 . S
C1621 C1615 1.491 . S
C1621 C1620 1.400 . S
C1621 C1622 1.398 . S
C1622 H1610 0.950 . S
C1622 C1621 1.398 . S
C1622 C1623 1.391 . S
C1623 H1611 0.950 . S
C1623 C1619 1.393 . S
C1623 C1622 1.391 . S
H1624 C1632 0.950 . S
H1625 C1637 0.950 . S
H1626 C1634 0.950 . S
H1627 C1636 0.950 . S
H1628 C1638 0.950 . S
H1629 C1640 0.950 . S
H1630 C1642 0.950 . S
H1631 C1643 0.950 . S
C1632 H1624 0.950 . S
C1632 C1633 1.386 . S
C1632 C1634 1.391 . S
C1633 C1632 1.386 . S
C1633 C1637 1.393 . S
C1634 H1626 0.950 . S
C1634 C1632 1.391 . S
C1634 C1635 1.400 . S
C1635 C1634 1.400 . S
C1635 C1636 1.398 . S
C1635 C1641 1.491 . S
C1636 H1627 0.950 . S
C1636 C1635 1.398 . S
C1636 C1637 1.391 . S
C1637 H1625 0.950 . S
C1637 C1633 1.393 . S
C1637 C1636 1.391 . S
C1638 H1628 0.950 . S
C1638 C1639 1.386 . S
C1638 C1640 1.391 . S
C1639 C1638 1.386 . S
C1639 C1643 1.393 . S
C1640 H1629 0.950 . S
C1640 C1638 1.391 . S
C1640 C1641 1.400 . S
C1641 C1635 1.491 . S
C1641 C1640 1.400 . S
C1641 C1642 1.398 . S
C1642 H1630 0.950 . S
C1642 C1641 1.398 . S
C1642 C1643 1.391 . S
C1643 H1631 0.950 . S
C1643 C1639 1.393 . S
C1643 C1642 1.391 . S
H1644 C1652 0.950 . S
H1645 C1657 0.950 . S
H1646 C1654 0.950 . S
H1647 C1656 0.950 . S
H1648 C1658 0.950 . S
H1649 C1660 0.950 . S
H1650 C1662 0.950 . S
H1651 C1663 0.950 . S
C1652 H1644 0.950 . S
C1652 C1653 1.386 . S
C1652 C1654 1.391 . S
C1653 C1652 1.386 . S
C1653 C1657 1.393 . S
C1654 H1646 0.950 . S
C1654 C1652 1.391 . S
C1654 C1655 1.400 . S
C1655 C1654 1.400 . S
C1655 C1656 1.398 . S
C1655 C1661 1.491 . S
C1656 H1647 0.950 . S
C1656 C1655 1.398 . S
C1656 C1657 1.391 . S
C1657 H1645 0.950 . S
C1657 C1653 1.393 . S
C1657 C1656 1.391 . S
C1658 H1648 0.950 . S
C1658 C1659 1.386 . S
C1658 C1660 1.391 . S
C1659 C1658 1.386 . S
C1659 C1663 1.393 . S
C1660 H1649 0.950 . S
C1660 C1658 1.391 . S
C1660 C1661 1.400 . S
C1661 C1655 1.491 . S
C1661 C1660 1.400 . S
C1661 C1662 1.398 . S
C1662 H1650 0.950 . S
C1662 C1661 1.398 . S
C1662 C1663 1.391 . S
C1663 H1651 0.950 . S
C1663 C1659 1.393 . S
C1663 C1662 1.391 . S
H1664 C1672 0.950 . S
H1665 C1677 0.950 . S
H1666 C1674 0.950 . S
H1667 C1676 0.950 . S
H1668 C1678 0.950 . S
H1669 C1680 0.950 . S
H1670 C1682 0.950 . S
H1671 C1683 0.950 . S
C1672 H1664 0.950 . S
C1672 C1673 1.386 . S
C1672 C1674 1.391 . S
C1673 C1672 1.386 . S
C1673 C1677 1.393 . S
C1674 H1666 0.950 . S
C1674 C1672 1.391 . S
C1674 C1675 1.400 . S
C1675 C1674 1.400 . S
C1675 C1676 1.398 . S
C1675 C1681 1.491 . S
C1676 H1667 0.950 . S
C1676 C1675 1.398 . S
C1676 C1677 1.391 . S
C1677 H1665 0.950 . S
C1677 C1673 1.393 . S
C1677 C1676 1.391 . S
C1678 H1668 0.950 . S
C1678 C1679 1.386 . S
C1678 C1680 1.391 . S
C1679 C1678 1.386 . S
C1679 C1683 1.393 . S
C1680 H1669 0.950 . S
C1680 C1678 1.391 . S
C1680 C1681 1.400 . S
C1681 C1675 1.491 . S
C1681 C1680 1.400 . S
C1681 C1682 1.398 . S
C1682 H1670 0.950 . S
C1682 C1681 1.398 . S
C1682 C1683 1.391 . S
C1683 H1671 0.950 . S
C1683 C1679 1.393 . S
C1683 C1682 1.391 . S
H1684 C1692 0.950 . S
H1685 C1697 0.950 . S
H1686 C1694 0.950 . S
H1687 C1696 0.950 . S
H1688 C1698 0.950 . S
H1689 C1700 0.950 . S
H1690 C1702 0.950 . S
H1691 C1703 0.950 . S
C1692 H1684 0.950 . S
C1692 C1693 1.386 . S
C1692 C1694 1.391 . S
C1693 C1692 1.386 . S
C1693 C1697 1.393 . S
C1694 H1686 0.950 . S
C1694 C1692 1.391 . S
C1694 C1695 1.400 . S
C1695 C1694 1.400 . S
C1695 C1696 1.398 . S
C1695 C1701 1.491 . S
C1696 H1687 0.950 . S
C1696 C1695 1.398 . S
C1696 C1697 1.391 . S
C1697 H1685 0.950 . S
C1697 C1693 1.393 . S
C1697 C1696 1.391 . S
C1698 H1688 0.950 . S
C1698 C1699 1.386 . S
C1698 C1700 1.391 1_455 S
C1699 C1698 1.386 . S
C1699 C1703 1.393 1_455 S
C1700 H1689 0.950 . S
C1700 C1698 1.391 1_655 S
C1700 C1701 1.400 . S
C1701 C1695 1.491 . S
C1701 C1700 1.400 . S
C1701 C1702 1.398 . S
C1702 H1690 0.950 . S
C1702 C1701 1.398 . S
C1702 C1703 1.391 . S
C1703 H1691 0.950 . S
C1703 C1699 1.393 1_655 S
C1703 C1702 1.391 . S
H1704 C1712 0.950 . S
H1705 C1717 0.950 . S
H1706 C1714 0.950 . S
H1707 C1716 0.950 . S
H1708 C1718 0.950 . S
H1709 C1720 0.950 . S
H1710 C1722 0.950 . S
H1711 C1723 0.950 . S
C1712 H1704 0.950 . S
C1712 C1713 1.386 . S
C1712 C1714 1.391 . S
C1713 C1712 1.386 . S
C1713 C1717 1.393 . S
C1714 H1706 0.950 . S
C1714 C1712 1.391 . S
C1714 C1715 1.400 . S
C1715 C1714 1.400 . S
C1715 C1716 1.398 . S
C1715 C1721 1.491 . S
C1716 H1707 0.950 . S
C1716 C1715 1.398 . S
C1716 C1717 1.391 . S
C1717 H1705 0.950 . S
C1717 C1713 1.393 . S
C1717 C1716 1.391 . S
C1718 H1708 0.950 . S
C1718 C1719 1.386 . S
C1718 C1720 1.391 . S
C1719 C1718 1.386 . S
C1719 C1723 1.393 . S
C1720 H1709 0.950 . S
C1720 C1718 1.391 . S
C1720 C1721 1.400 . S
C1721 C1715 1.491 . S
C1721 C1720 1.400 . S
C1721 C1722 1.398 . S
C1722 H1710 0.950 . S
C1722 C1721 1.398 . S
C1722 C1723 1.391 . S
C1723 H1711 0.950 . S
C1723 C1719 1.393 . S
C1723 C1722 1.391 . S
H1724 C1732 0.950 . S
H1725 C1737 0.948 1_655 S
H1726 C1734 0.950 . S
H1727 C1736 0.950 . S
H1728 C1738 0.950 . S
H1729 C1740 0.950 . S
H1730 C1742 0.950 . S
H1731 C1743 0.950 . S
C1732 H1724 0.950 . S
C1732 C1733 1.386 . S
C1732 C1734 1.391 1_655 S
C1733 C1732 1.386 . S
C1733 C1737 1.393 1_655 S
C1734 H1726 0.950 . S
C1734 C1732 1.391 1_455 S
C1734 C1735 1.400 . S
C1735 C1734 1.400 . S
C1735 C1736 1.398 . S
C1735 C1741 1.491 . S
C1736 H1727 0.950 . S
C1736 C1735 1.398 . S
C1736 C1737 1.391 . S
C1737 H1725 0.948 1_455 S
C1737 C1733 1.393 1_455 S
C1737 C1736 1.391 . S
C1738 H1728 0.950 . S
C1738 C1739 1.386 . S
C1738 C1740 1.391 . S
C1739 C1738 1.386 . S
C1739 C1743 1.393 . S
C1740 H1729 0.950 . S
C1740 C1738 1.391 . S
C1740 C1741 1.400 . S
C1741 C1735 1.491 . S
C1741 C1740 1.400 . S
C1741 C1742 1.398 . S
C1742 H1730 0.950 . S
C1742 C1741 1.398 . S
C1742 C1743 1.391 . S
C1743 H1731 0.950 . S
C1743 C1739 1.393 . S
C1743 C1742 1.391 . S
H1744 C1752 0.950 . S
H1745 C1757 0.950 . S
H1746 C1754 0.950 . S
H1747 C1756 0.950 . S
H1748 C1758 0.950 . S
H1749 C1760 0.950 . S
H1750 C1762 0.950 . S
H1751 C1763 0.950 . S
C1752 H1744 0.950 . S
C1752 C1753 1.386 . S
C1752 C1754 1.391 . S
C1753 C1752 1.386 . S
C1753 C1757 1.393 . S
C1754 H1746 0.950 . S
C1754 C1752 1.391 . S
C1754 C1755 1.400 . S
C1755 C1754 1.400 . S
C1755 C1756 1.398 . S
C1755 C1761 1.491 . S
C1756 H1747 0.950 . S
C1756 C1755 1.398 . S
C1756 C1757 1.391 . S
C1757 H1745 0.950 . S
C1757 C1753 1.393 . S
C1757 C1756 1.391 . S
C1758 H1748 0.950 . S
C1758 C1759 1.386 . S
C1758 C1760 1.391 . S
C1759 C1758 1.386 . S
C1759 C1763 1.393 . S
C1760 H1749 0.950 . S
C1760 C1758 1.391 . S
C1760 C1761 1.400 . S
C1761 C1755 1.491 . S
C1761 C1760 1.400 . S
C1761 C1762 1.398 . S
C1762 H1750 0.950 . S
C1762 C1761 1.398 . S
C1762 C1763 1.391 . S
C1763 H1751 0.950 . S
C1763 C1759 1.393 . S
C1763 C1762 1.391 . S
H1764 C1772 0.948 1_554 S
H1765 C1777 0.950 . S
H1766 C1774 0.950 . S
H1767 C1776 0.950 . S
H1768 C1778 0.950 . S
H1769 C1780 0.950 . S
H1770 C1782 0.950 . S
H1771 C1783 0.950 . S
C1772 H1764 0.948 1_556 S
C1772 C1773 1.380 1_556 S
C1772 C1774 1.399 . S
C1773 C1772 1.380 1_554 S
C1773 C1777 1.393 . S
C1774 H1766 0.950 . S
C1774 C1772 1.399 . S
C1774 C1775 1.400 . S
C1775 C1774 1.400 . S
C1775 C1776 1.398 . S
C1775 C1781 1.491 . S
C1776 H1767 0.950 . S
C1776 C1775 1.398 . S
C1776 C1777 1.391 1_556 S
C1777 H1765 0.950 . S
C1777 C1773 1.393 . S
C1777 C1776 1.391 1_554 S
C1778 H1768 0.950 . S
C1778 C1779 1.386 . S
C1778 C1780 1.391 . S
C1779 C1778 1.386 . S
C1779 C1783 1.393 . S
C1780 H1769 0.950 . S
C1780 C1778 1.391 . S
C1780 C1781 1.400 . S
C1781 C1775 1.491 . S
C1781 C1780 1.400 . S
C1781 C1782 1.398 . S
C1782 H1770 0.950 . S
C1782 C1781 1.398 . S
C1782 C1783 1.391 . S
C1783 H1771 0.950 . S
C1783 C1779 1.393 . S
C1783 C1782 1.391 . S
H1784 C1792 0.950 . S
H1785 C1797 0.950 . S
H1786 C1794 0.950 . S
H1787 C1796 0.950 . S
H1788 C1798 0.950 . S
H1789 C1800 0.950 . S
H1790 C1802 0.950 . S
H1791 C1803 0.950 . S
C1792 H1784 0.950 . S
C1792 C1793 1.386 . S
C1792 C1794 1.391 . S
C1793 C1792 1.386 . S
C1793 C1797 1.393 . S
C1794 H1786 0.950 . S
C1794 C1792 1.391 . S
C1794 C1795 1.400 . S
C1795 C1794 1.400 . S
C1795 C1796 1.398 . S
C1795 C1801 1.491 . S
C1796 H1787 0.950 . S
C1796 C1795 1.398 . S
C1796 C1797 1.391 . S
C1797 H1785 0.950 . S
C1797 C1793 1.393 . S
C1797 C1796 1.391 . S
C1798 H1788 0.950 . S
C1798 C1799 1.386 . S
C1798 C1800 1.391 . S
C1799 C1798 1.386 . S
C1799 C1803 1.393 . S
C1800 H1789 0.950 . S
C1800 C1798 1.391 . S
C1800 C1801 1.400 . S
C1801 C1795 1.491 . S
C1801 C1800 1.400 . S
C1801 C1802 1.398 . S
C1802 H1790 0.950 . S
C1802 C1801 1.398 . S
C1802 C1803 1.391 . S
C1803 H1791 0.950 . S
C1803 C1799 1.393 . S
C1803 C1802 1.391 . S
H1804 C1812 0.950 . S
H1805 C1817 0.950 . S
H1806 C1814 0.950 . S
H1807 C1816 0.950 . S
H1808 C1818 0.950 . S
H1809 C1820 0.950 . S
H1810 C1822 0.950 . S
H1811 C1823 0.950 . S
C1812 H1804 0.950 . S
C1812 C1813 1.386 . S
C1812 C1814 1.391 . S
C1813 C1812 1.386 . S
C1813 C1817 1.393 . S
C1814 H1806 0.950 . S
C1814 C1812 1.391 . S
C1814 C1815 1.400 . S
C1815 C1814 1.400 . S
C1815 C1816 1.398 . S
C1815 C1821 1.491 . S
C1816 H1807 0.950 . S
C1816 C1815 1.398 . S
C1816 C1817 1.391 . S
C1817 H1805 0.950 . S
C1817 C1813 1.393 . S
C1817 C1816 1.391 . S
C1818 H1808 0.950 . S
C1818 C1819 1.386 1_556 S
C1818 C1820 1.391 . S
C1819 C1818 1.386 1_554 S
C1819 C1823 1.393 . S
C1820 H1809 0.950 . S
C1820 C1818 1.391 . S
C1820 C1821 1.400 . S
C1821 C1815 1.491 . S
C1821 C1820 1.400 . S
C1821 C1822 1.398 . S
C1822 H1810 0.950 . S
C1822 C1821 1.398 . S
C1822 C1823 1.391 1_556 S
C1823 H1811 0.950 . S
C1823 C1819 1.393 . S
C1823 C1822 1.391 1_554 S
H1824 C1832 0.950 . S
H1825 C1837 0.950 . S
H1826 C1834 0.950 . S
H1827 C1836 0.950 . S
H1828 C1838 0.950 . S
H1829 C1840 0.950 . S
H1830 C1842 0.950 . S
H1831 C1843 0.950 . S
C1832 H1824 0.950 . S
C1832 C1833 1.386 . S
C1832 C1834 1.391 . S
C1833 C1832 1.386 . S
C1833 C1837 1.393 . S
C1834 H1826 0.950 . S
C1834 C1832 1.391 . S
C1834 C1835 1.400 . S
C1835 C1834 1.400 . S
C1835 C1836 1.398 . S
C1835 C1841 1.491 . S
C1836 H1827 0.950 . S
C1836 C1835 1.398 . S
C1836 C1837 1.391 . S
C1837 H1825 0.950 . S
C1837 C1833 1.393 . S
C1837 C1836 1.391 . S
C1838 H1828 0.950 . S
C1838 C1839 1.386 . S
C1838 C1840 1.391 . S
C1839 C1838 1.386 . S
C1839 C1843 1.393 . S
C1840 H1829 0.950 . S
C1840 C1838 1.391 . S
C1840 C1841 1.400 . S
C1841 C1835 1.491 . S
C1841 C1840 1.400 . S
C1841 C1842 1.398 . S
C1842 H1830 0.950 . S
C1842 C1841 1.398 . S
C1842 C1843 1.391 . S
C1843 H1831 0.950 . S
C1843 C1839 1.393 . S
C1843 C1842 1.391 . S
H1844 C1852 0.950 . S
H1845 C1857 0.950 . S
H1846 C1854 0.950 . S
H1847 C1856 0.950 . S
H1848 C1858 0.948 1_556 S
H1849 C1860 0.950 . S
H1850 C1862 0.950 . S
H1851 C1863 0.950 . S
C1852 H1844 0.950 . S
C1852 C1853 1.386 . S
C1852 C1854 1.391 . S
C1853 C1852 1.386 . S
C1853 C1857 1.393 . S
C1854 H1846 0.950 . S
C1854 C1852 1.391 . S
C1854 C1855 1.400 . S
C1855 C1854 1.400 . S
C1855 C1856 1.398 . S
C1855 C1861 1.491 . S
C1856 H1847 0.950 . S
C1856 C1855 1.398 . S
C1856 C1857 1.391 . S
C1857 H1845 0.950 . S
C1857 C1853 1.393 . S
C1857 C1856 1.391 . S
C1858 H1848 0.948 1_554 S
C1858 C1859 1.386 1_554 S
C1858 C1860 1.391 . S
C1859 C1858 1.386 1_556 S
C1859 C1863 1.393 . S
C1860 H1849 0.950 . S
C1860 C1858 1.391 . S
C1860 C1861 1.400 . S
C1861 C1855 1.491 . S
C1861 C1860 1.400 . S
C1861 C1862 1.398 . S
C1862 H1850 0.950 . S
C1862 C1861 1.398 . S
C1862 C1863 1.391 1_554 S
C1863 H1851 0.950 . S
C1863 C1859 1.393 . S
C1863 C1862 1.391 1_556 S
H1864 C1872 0.950 . S
H1865 C1877 0.950 . S
H1866 C1874 0.950 . S
H1867 C1876 0.950 . S
H1868 C1878 0.950 . S
H1869 C1880 0.950 . S
H1870 C1882 0.950 . S
H1871 C1883 0.950 . S
C1872 H1864 0.950 . S
C1872 C1873 1.386 . S
C1872 C1874 1.391 . S
C1873 C1872 1.386 . S
C1873 C1877 1.393 . S
C1874 H1866 0.950 . S
C1874 C1872 1.391 . S
C1874 C1875 1.400 . S
C1875 C1874 1.400 . S
C1875 C1876 1.398 . S
C1875 C1881 1.491 . S
C1876 H1867 0.950 . S
C1876 C1875 1.398 . S
C1876 C1877 1.391 . S
C1877 H1865 0.950 . S
C1877 C1873 1.393 . S
C1877 C1876 1.391 . S
C1878 H1868 0.950 . S
C1878 C1879 1.386 . S
C1878 C1880 1.391 . S
C1879 C1878 1.386 . S
C1879 C1883 1.393 . S
C1880 H1869 0.950 . S
C1880 C1878 1.391 . S
C1880 C1881 1.400 . S
C1881 C1875 1.491 . S
C1881 C1880 1.400 . S
C1881 C1882 1.398 . S
C1882 H1870 0.950 . S
C1882 C1881 1.398 . S
C1882 C1883 1.391 . S
C1883 H1871 0.950 . S
C1883 C1879 1.393 . S
C1883 C1882 1.391 . S
H1884 C1892 0.950 . S
H1885 C1897 0.950 . S
H1886 C1894 0.950 . S
H1887 C1896 0.950 . S
H1888 C1898 0.950 . S
H1889 C1900 0.950 . S
H1890 C1902 0.950 . S
H1891 C1903 0.950 . S
C1892 H1884 0.950 . S
C1892 C1893 1.386 1_554 S
C1892 C1894 1.391 . S
C1893 C1892 1.386 1_556 S
C1893 C1897 1.393 . S
C1894 H1886 0.950 . S
C1894 C1892 1.391 . S
C1894 C1895 1.400 . S
C1895 C1894 1.400 . S
C1895 C1896 1.398 . S
C1895 C1901 1.491 . S
C1896 H1887 0.950 . S
C1896 C1895 1.398 . S
C1896 C1897 1.391 1_554 S
C1897 H1885 0.950 . S
C1897 C1893 1.393 . S
C1897 C1896 1.391 1_556 S
C1898 H1888 0.950 . S
C1898 C1899 1.386 . S
C1898 C1900 1.391 . S
C1899 C1898 1.386 . S
C1899 C1903 1.393 . S
C1900 H1889 0.950 . S
C1900 C1898 1.391 . S
C1900 C1901 1.400 . S
C1901 C1895 1.491 . S
C1901 C1900 1.400 . S
C1901 C1902 1.398 . S
C1902 H1890 0.950 . S
C1902 C1901 1.398 . S
C1902 C1903 1.391 . S
C1903 H1891 0.950 . S
C1903 C1899 1.393 . S
C1903 C1902 1.391 . S
H1904 C1912 0.950 . S
H1905 C1917 0.950 . S
H1906 C1914 0.950 . S
H1907 C1916 0.950 . S
H1908 C1918 0.950 . S
H1909 C1920 0.950 . S
H1910 C1922 0.950 . S
H1911 C1923 0.950 . S
C1912 H1904 0.950 . S
C1912 C1913 1.386 . S
C1912 C1914 1.391 . S
C1913 C1912 1.386 . S
C1913 C1917 1.393 . S
C1914 H1906 0.950 . S
C1914 C1912 1.391 . S
C1914 C1915 1.400 . S
C1915 C1914 1.400 . S
C1915 C1916 1.398 . S
C1915 C1921 1.491 . S
C1916 H1907 0.950 . S
C1916 C1915 1.398 . S
C1916 C1917 1.391 . S
C1917 H1905 0.950 . S
C1917 C1913 1.393 . S
C1917 C1916 1.391 . S
C1918 H1908 0.950 . S
C1918 C1919 1.386 . S
C1918 C1920 1.391 . S
C1919 C1918 1.386 . S
C1919 C1923 1.393 . S
C1920 H1909 0.950 . S
C1920 C1918 1.391 . S
C1920 C1921 1.400 . S
C1921 C1915 1.491 . S
C1921 C1920 1.400 . S
C1921 C1922 1.398 . S
C1922 H1910 0.950 . S
C1922 C1921 1.398 . S
C1922 C1923 1.391 . S
C1923 H1911 0.950 . S
C1923 C1919 1.393 . S
C1923 C1922 1.391 . S
H1924 C1932 0.950 . S
H1925 C1937 0.950 . S
H1926 C1934 0.950 . S
H1927 C1936 0.950 . S
H1928 C1938 0.950 . S
H1929 C1940 0.950 . S
H1930 C1942 0.950 . S
H1931 C1943 0.950 . S
C1932 H1924 0.950 . S
C1932 C1933 1.386 . S
C1932 C1934 1.391 . S
C1933 C1932 1.386 . S
C1933 C1937 1.393 . S
C1934 H1926 0.950 . S
C1934 C1932 1.391 . S
C1934 C1935 1.400 . S
C1935 C1934 1.400 . S
C1935 C1936 1.398 . S
C1935 C1941 1.491 . S
C1936 H1927 0.950 . S
C1936 C1935 1.398 . S
C1936 C1937 1.391 . S
C1937 H1925 0.950 . S
C1937 C1933 1.393 . S
C1937 C1936 1.391 . S
C1938 H1928 0.950 . S
C1938 C1939 1.386 . S
C1938 C1940 1.391 . S
C1939 C1938 1.386 . S
C1939 C1943 1.393 . S
C1940 H1929 0.950 . S
C1940 C1938 1.391 . S
C1940 C1941 1.400 . S
C1941 C1935 1.491 . S
C1941 C1940 1.400 . S
C1941 C1942 1.398 . S
C1942 H1930 0.950 . S
C1942 C1941 1.398 . S
C1942 C1943 1.391 . S
C1943 H1931 0.950 . S
C1943 C1939 1.393 . S
C1943 C1942 1.391 . S
H1944 C1952 0.950 . S
H1945 C1957 0.950 . S
H1946 C1954 0.950 . S
H1947 C1956 0.950 . S
H1948 C1958 0.950 . S
H1949 C1960 0.950 . S
H1950 C1962 0.950 . S
H1951 C1963 0.950 . S
C1952 H1944 0.950 . S
C1952 C1953 1.386 . S
C1952 C1954 1.391 . S
C1953 C1952 1.386 . S
C1953 C1957 1.393 . S
C1954 H1946 0.950 . S
C1954 C1952 1.391 . S
C1954 C1955 1.400 . S
C1955 C1954 1.400 . S
C1955 C1956 1.398 . S
C1955 C1961 1.491 . S
C1956 H1947 0.950 . S
C1956 C1955 1.398 . S
C1956 C1957 1.391 . S
C1957 H1945 0.950 . S
C1957 C1953 1.393 . S
C1957 C1956 1.391 . S
C1958 H1948 0.950 . S
C1958 C1959 1.386 . S
C1958 C1960 1.391 . S
C1959 C1958 1.386 . S
C1959 C1963 1.393 . S
C1960 H1949 0.950 . S
C1960 C1958 1.391 . S
C1960 C1961 1.400 . S
C1961 C1955 1.491 . S
C1961 C1960 1.400 . S
C1961 C1962 1.398 . S
C1962 H1950 0.950 . S
C1962 C1961 1.398 . S
C1962 C1963 1.391 . S
C1963 H1951 0.950 . S
C1963 C1959 1.393 . S
C1963 C1962 1.391 . S
H1964 C1972 0.950 . S
H1965 C1977 0.950 . S
H1966 C1974 0.950 . S
H1967 C1976 0.950 . S
H1968 C1978 0.950 . S
H1969 C1980 0.950 . S
H1970 C1982 0.950 . S
H1971 C1983 0.950 . S
C1972 H1964 0.950 . S
C1972 C1973 1.386 . S
C1972 C1974 1.391 . S
C1973 C1972 1.386 . S
C1973 C1977 1.393 . S
C1974 H1966 0.950 . S
C1974 C1972 1.391 . S
C1974 C1975 1.400 . S
C1975 C1974 1.400 . S
C1975 C1976 1.398 . S
C1975 C1981 1.491 . S
C1976 H1967 0.950 . S
C1976 C1975 1.398 . S
C1976 C1977 1.391 . S
C1977 H1965 0.950 . S
C1977 C1973 1.393 . S
C1977 C1976 1.391 . S
C1978 H1968 0.950 . S
C1978 C1979 1.386 . S
C1978 C1980 1.391 . S
C1979 C1978 1.386 . S
C1979 C1983 1.393 . S
C1980 H1969 0.950 . S
C1980 C1978 1.391 . S
C1980 C1981 1.400 . S
C1981 C1975 1.491 . S
C1981 C1980 1.400 . S
C1981 C1982 1.398 . S
C1982 H1970 0.950 . S
C1982 C1981 1.398 . S
C1982 C1983 1.391 . S
C1983 H1971 0.950 . S
C1983 C1979 1.393 . S
C1983 C1982 1.391 . S
H1984 C1992 0.950 . S
H1985 C1997 0.950 . S
H1986 C1994 0.950 . S
H1987 C1996 0.950 . S
H1988 C1998 0.950 . S
H1989 C2000 0.950 . S
H1990 C2002 0.950 . S
H1991 C2003 0.950 . S
C1992 H1984 0.950 . S
C1992 C1993 1.386 . S
C1992 C1994 1.391 . S
C1993 C1992 1.386 . S
C1993 C1997 1.393 . S
C1994 H1986 0.950 . S
C1994 C1992 1.391 . S
C1994 C1995 1.400 . S
C1995 C1994 1.400 . S
C1995 C1996 1.398 . S
C1995 C2001 1.491 . S
C1996 H1987 0.950 . S
C1996 C1995 1.398 . S
C1996 C1997 1.391 . S
C1997 H1985 0.950 . S
C1997 C1993 1.393 . S
C1997 C1996 1.391 . S
C1998 H1988 0.950 . S
C1998 C1999 1.386 . S
C1998 C2000 1.391 . S
C1999 C1998 1.386 . S
C1999 C2003 1.393 . S
C2000 H1989 0.950 . S
C2000 C1998 1.391 . S
C2000 C2001 1.400 . S
C2001 C1995 1.491 . S
C2001 C2000 1.400 . S
C2001 C2002 1.398 . S
C2002 H1990 0.950 . S
C2002 C2001 1.398 . S
C2002 C2003 1.391 . S
C2003 H1991 0.950 . S
C2003 C1999 1.393 . S
C2003 C2002 1.391 . S
H2004 C2012 0.950 . S
H2005 C2017 0.950 . S
H2006 C2014 0.950 . S
H2007 C2016 0.950 . S
H2008 C2018 0.950 . S
H2009 C2020 0.950 . S
H2010 C2022 0.950 . S
H2011 C2023 0.950 . S
C2012 H2004 0.950 . S
C2012 C2013 1.386 . S
C2012 C2014 1.391 . S
C2013 C2012 1.386 . S
C2013 C2017 1.393 . S
C2014 H2006 0.950 . S
C2014 C2012 1.391 . S
C2014 C2015 1.400 . S
C2015 C2014 1.400 . S
C2015 C2016 1.398 . S
C2015 C2021 1.491 . S
C2016 H2007 0.950 . S
C2016 C2015 1.398 . S
C2016 C2017 1.391 . S
C2017 H2005 0.950 . S
C2017 C2013 1.393 . S
C2017 C2016 1.391 . S
C2018 H2008 0.950 . S
C2018 C2019 1.386 . S
C2018 C2020 1.391 . S
C2019 C2018 1.386 . S
C2019 C2023 1.393 . S
C2020 H2009 0.950 . S
C2020 C2018 1.391 . S
C2020 C2021 1.400 . S
C2021 C2015 1.491 . S
C2021 C2020 1.400 . S
C2021 C2022 1.398 . S
C2022 H2010 0.950 . S
C2022 C2021 1.398 . S
C2022 C2023 1.391 . S
C2023 H2011 0.950 . S
C2023 C2019 1.393 . S
C2023 C2022 1.391 . S
H2024 C2032 0.950 . S
H2025 C2037 0.950 . S
H2026 C2034 0.950 . S
H2027 C2036 0.950 . S
H2028 C2038 0.950 . S
H2029 C2040 0.950 . S
H2030 C2042 0.950 . S
H2031 C2043 0.950 . S
C2032 H2024 0.950 . S
C2032 C2033 1.386 . S
C2032 C2034 1.391 . S
C2033 C2032 1.386 . S
C2033 C2037 1.393 . S
C2034 H2026 0.950 . S
C2034 C2032 1.391 . S
C2034 C2035 1.400 . S
C2035 C2034 1.400 . S
C2035 C2036 1.398 . S
C2035 C2041 1.491 . S
C2036 H2027 0.950 . S
C2036 C2035 1.398 . S
C2036 C2037 1.391 . S
C2037 H2025 0.950 . S
C2037 C2033 1.393 . S
C2037 C2036 1.391 . S
C2038 H2028 0.950 . S
C2038 C2039 1.386 . S
C2038 C2040 1.391 . S
C2039 C2038 1.386 . S
C2039 C2043 1.393 . S
C2040 H2029 0.950 . S
C2040 C2038 1.391 . S
C2040 C2041 1.400 . S
C2041 C2035 1.491 . S
C2041 C2040 1.400 . S
C2041 C2042 1.398 . S
C2042 H2030 0.950 . S
C2042 C2041 1.398 . S
C2042 C2043 1.391 . S
C2043 H2031 0.950 . S
C2043 C2039 1.393 . S
C2043 C2042 1.391 . S
H2044 C2052 0.950 . S
H2045 C2057 0.953 . S
H2046 C2054 0.950 . S
H2047 C2056 0.950 . S
H2048 C2058 0.950 . S
H2049 C2060 0.950 . S
H2050 C2062 0.950 . S
H2051 C2063 0.950 . S
C2052 H2044 0.950 . S
C2052 C2053 1.386 . S
C2052 C2054 1.391 1_545 S
C2053 C2052 1.386 . S
C2053 C2057 1.393 1_545 S
C2054 H2046 0.950 . S
C2054 C2052 1.391 1_565 S
C2054 C2055 1.400 . S
C2055 C2054 1.400 . S
C2055 C2056 1.398 . S
C2055 C2061 1.491 . S
C2056 H2047 0.950 . S
C2056 C2055 1.398 . S
C2056 C2057 1.391 . S
C2057 H2045 0.953 . S
C2057 C2053 1.393 1_565 S
C2057 C2056 1.391 . S
C2058 H2048 0.950 . S
C2058 C2059 1.386 . S
C2058 C2060 1.391 . S
C2059 C2058 1.386 . S
C2059 C2063 1.393 . S
C2060 H2049 0.950 . S
C2060 C2058 1.391 . S
C2060 C2061 1.400 . S
C2061 C2055 1.491 . S
C2061 C2060 1.400 . S
C2061 C2062 1.398 . S
C2062 H2050 0.950 . S
C2062 C2061 1.398 . S
C2062 C2063 1.391 . S
C2063 H2051 0.950 . S
C2063 C2059 1.393 . S
C2063 C2062 1.391 . S
H2064 C2072 0.950 . S
H2065 C2077 0.950 . S
H2066 C2074 0.950 . S
H2067 C2076 0.950 . S
H2068 C2078 0.950 . S
H2069 C2080 0.950 . S
H2070 C2082 0.950 . S
H2071 C2083 0.950 . S
C2072 H2064 0.950 . S
C2072 C2073 1.386 . S
C2072 C2074 1.391 . S
C2073 C2072 1.386 . S
C2073 C2077 1.393 . S
C2074 H2066 0.950 . S
C2074 C2072 1.391 . S
C2074 C2075 1.400 . S
C2075 C2074 1.400 . S
C2075 C2076 1.398 . S
C2075 C2081 1.491 . S
C2076 H2067 0.950 . S
C2076 C2075 1.398 . S
C2076 C2077 1.391 . S
C2077 H2065 0.950 . S
C2077 C2073 1.393 . S
C2077 C2076 1.391 . S
C2078 H2068 0.950 . S
C2078 C2079 1.386 . S
C2078 C2080 1.391 . S
C2079 C2078 1.386 . S
C2079 C2083 1.393 . S
C2080 H2069 0.950 . S
C2080 C2078 1.391 . S
C2080 C2081 1.400 . S
C2081 C2075 1.491 . S
C2081 C2080 1.400 . S
C2081 C2082 1.398 . S
C2082 H2070 0.950 . S
C2082 C2081 1.398 . S
C2082 C2083 1.391 . S
C2083 H2071 0.950 . S
C2083 C2079 1.393 . S
C2083 C2082 1.391 . S
H2084 C2092 0.950 . S
H2085 C2097 0.950 . S
H2086 C2094 0.950 . S
H2087 C2096 0.950 . S
H2088 C2098 0.950 . S
H2089 C2100 0.950 . S
H2090 C2102 0.950 . S
H2091 C2103 0.950 . S
C2092 H2084 0.950 . S
C2092 C2093 1.386 . S
C2092 C2094 1.391 1_655 S
C2093 C2092 1.386 . S
C2093 C2097 1.393 1_655 S
C2094 H2086 0.950 . S
C2094 C2092 1.391 1_455 S
C2094 C2095 1.400 . S
C2095 C2094 1.400 . S
C2095 C2096 1.398 . S
C2095 C2101 1.491 . S
C2096 H2087 0.950 . S
C2096 C2095 1.398 . S
C2096 C2097 1.391 . S
C2097 H2085 0.950 . S
C2097 C2093 1.393 1_455 S
C2097 C2096 1.391 . S
C2098 H2088 0.950 . S
C2098 C2099 1.386 . S
C2098 C2100 1.391 . S
C2099 C2098 1.386 . S
C2099 C2103 1.393 . S
C2100 H2089 0.950 . S
C2100 C2098 1.391 . S
C2100 C2101 1.400 . S
C2101 C2095 1.491 . S
C2101 C2100 1.400 . S
C2101 C2102 1.398 . S
C2102 H2090 0.950 . S
C2102 C2101 1.398 . S
C2102 C2103 1.391 . S
C2103 H2091 0.950 . S
C2103 C2099 1.393 . S
C2103 C2102 1.391 . S
H2104 C2112 0.950 . S
H2105 C2117 0.950 . S
H2106 C2114 0.950 . S
H2107 C2116 0.950 . S
H2108 C2118 0.950 . S
H2109 C2120 0.950 . S
H2110 C2122 0.950 . S
H2111 C2123 0.950 . S
C2112 H2104 0.950 . S
C2112 C2113 1.386 . S
C2112 C2114 1.391 . S
C2113 C2112 1.386 . S
C2113 C2117 1.393 . S
C2114 H2106 0.950 . S
C2114 C2112 1.391 . S
C2114 C2115 1.400 . S
C2115 C2114 1.400 . S
C2115 C2116 1.398 . S
C2115 C2121 1.491 . S
C2116 H2107 0.950 . S
C2116 C2115 1.398 . S
C2116 C2117 1.391 . S
C2117 H2105 0.950 . S
C2117 C2113 1.393 . S
C2117 C2116 1.391 . S
C2118 H2108 0.950 . S
C2118 C2119 1.386 . S
C2118 C2120 1.391 . S
C2119 C2118 1.386 . S
C2119 C2123 1.393 . S
C2120 H2109 0.950 . S
C2120 C2118 1.391 . S
C2120 C2121 1.400 . S
C2121 C2115 1.491 . S
C2121 C2120 1.400 . S
C2121 C2122 1.398 . S
C2122 H2110 0.950 . S
C2122 C2121 1.398 . S
C2122 C2123 1.391 . S
C2123 H2111 0.950 . S
C2123 C2119 1.393 . S
C2123 C2122 1.391 . S
H2124 C2132 0.950 . S
H2125 C2137 0.950 . S
H2126 C2134 0.950 . S
H2127 C2136 0.950 . S
H2128 C2138 0.950 . S
H2129 C2140 0.950 . S
H2130 C2142 0.950 . S
H2131 C2143 0.950 . S
C2132 H2124 0.950 . S
C2132 C2133 1.386 . S
C2132 C2134 1.391 . S
C2133 C2132 1.386 . S
C2133 C2137 1.393 . S
C2134 H2126 0.950 . S
C2134 C2132 1.391 . S
C2134 C2135 1.400 . S
C2135 C2134 1.400 . S
C2135 C2136 1.398 . S
C2135 C2141 1.491 . S
C2136 H2127 0.950 . S
C2136 C2135 1.398 . S
C2136 C2137 1.391 . S
C2137 H2125 0.950 . S
C2137 C2133 1.393 . S
C2137 C2136 1.391 . S
C2138 H2128 0.950 . S
C2138 C2139 1.386 1_655 S
C2138 C2140 1.391 . S
C2139 C2138 1.386 1_455 S
C2139 C2143 1.393 . S
C2140 H2129 0.950 . S
C2140 C2138 1.391 . S
C2140 C2141 1.400 . S
C2141 C2135 1.491 . S
C2141 C2140 1.400 . S
C2141 C2142 1.398 . S
C2142 H2130 0.950 . S
C2142 C2141 1.398 . S
C2142 C2143 1.391 1_655 S
C2143 H2131 0.950 . S
C2143 C2139 1.393 . S
C2143 C2142 1.391 1_455 S
H2144 C2152 0.950 . S
H2145 C2157 0.950 . S
H2146 C2154 0.950 . S
H2147 C2156 0.950 . S
H2148 C2158 0.950 . S
H2149 C2160 0.950 . S
H2150 C2162 0.950 . S
H2151 C2163 0.950 . S
C2152 H2144 0.950 . S
C2152 C2153 1.386 . S
C2152 C2154 1.391 . S
C2153 C2152 1.386 . S
C2153 C2157 1.393 . S
C2154 H2146 0.950 . S
C2154 C2152 1.391 . S
C2154 C2155 1.400 . S
C2155 C2154 1.400 . S
C2155 C2156 1.398 . S
C2155 C2161 1.491 . S
C2156 H2147 0.950 . S
C2156 C2155 1.398 . S
C2156 C2157 1.391 . S
C2157 H2145 0.950 . S
C2157 C2153 1.393 . S
C2157 C2156 1.391 . S
C2158 H2148 0.950 . S
C2158 C2159 1.386 . S
C2158 C2160 1.391 . S
C2159 C2158 1.386 . S
C2159 C2163 1.393 . S
C2160 H2149 0.950 . S
C2160 C2158 1.391 . S
C2160 C2161 1.400 . S
C2161 C2155 1.491 . S
C2161 C2160 1.400 . S
C2161 C2162 1.398 . S
C2162 H2150 0.950 . S
C2162 C2161 1.398 . S
C2162 C2163 1.391 . S
C2163 H2151 0.950 . S
C2163 C2159 1.393 . S
C2163 C2162 1.391 . S
H2164 C2172 0.950 . S
H2165 C2177 0.950 . S
H2166 C2174 0.950 . S
H2167 C2176 0.950 . S
H2168 C2178 0.950 . S
H2169 C2180 0.950 . S
H2170 C2182 0.950 . S
H2171 C2183 0.950 . S
C2172 H2164 0.950 . S
C2172 C2173 1.386 . S
C2172 C2174 1.391 . S
C2173 C2172 1.386 . S
C2173 C2177 1.393 . S
C2174 H2166 0.950 . S
C2174 C2172 1.391 . S
C2174 C2175 1.400 . S
C2175 C2174 1.400 . S
C2175 C2176 1.398 . S
C2175 C2181 1.491 . S
C2176 H2167 0.950 . S
C2176 C2175 1.398 . S
C2176 C2177 1.391 . S
C2177 H2165 0.950 . S
C2177 C2173 1.393 . S
C2177 C2176 1.391 . S
C2178 H2168 0.950 . S
C2178 C2179 1.386 . S
C2178 C2180 1.391 . S
C2179 C2178 1.386 . S
C2179 C2183 1.393 . S
C2180 H2169 0.950 . S
C2180 C2178 1.391 . S
C2180 C2181 1.400 . S
C2181 C2175 1.491 . S
C2181 C2180 1.400 . S
C2181 C2182 1.398 . S
C2182 H2170 0.950 . S
C2182 C2181 1.398 . S
C2182 C2183 1.391 . S
C2183 H2171 0.950 . S
C2183 C2179 1.393 . S
C2183 C2182 1.391 . S
H2184 C2192 0.950 . S
H2185 C2197 0.950 . S
H2186 C2194 0.950 . S
H2187 C2196 0.950 . S
H2188 C2198 0.950 . S
H2189 C2200 0.950 . S
H2190 C2202 0.950 . S
H2191 C2203 0.950 . S
C2192 H2184 0.950 . S
C2192 C2193 1.386 . S
C2192 C2194 1.391 . S
C2193 C2192 1.386 . S
C2193 C2197 1.393 . S
C2194 H2186 0.950 . S
C2194 C2192 1.391 . S
C2194 C2195 1.400 . S
C2195 C2194 1.400 . S
C2195 C2196 1.398 . S
C2195 C2201 1.491 . S
C2196 H2187 0.950 . S
C2196 C2195 1.398 . S
C2196 C2197 1.391 . S
C2197 H2185 0.950 . S
C2197 C2193 1.393 . S
C2197 C2196 1.391 . S
C2198 H2188 0.950 . S
C2198 C2199 1.386 . S
C2198 C2200 1.391 . S
C2199 C2198 1.386 . S
C2199 C2203 1.393 . S
C2200 H2189 0.950 . S
C2200 C2198 1.391 . S
C2200 C2201 1.400 . S
C2201 C2195 1.491 . S
C2201 C2200 1.400 . S
C2201 C2202 1.398 . S
C2202 H2190 0.950 . S
C2202 C2201 1.398 . S
C2202 C2203 1.391 . S
C2203 H2191 0.950 . S
C2203 C2199 1.393 . S
C2203 C2202 1.391 . S
H2204 C2212 0.950 . S
H2205 C2217 0.950 . S
H2206 C2214 0.950 . S
H2207 C2216 0.950 . S
H2208 C2218 0.950 . S
H2209 C2220 0.950 . S
H2210 C2222 0.950 . S
H2211 C2223 0.950 . S
C2212 H2204 0.950 . S
C2212 C2213 1.386 . S
C2212 C2214 1.391 . S
C2213 C2212 1.386 . S
C2213 C2217 1.393 . S
C2214 H2206 0.950 . S
C2214 C2212 1.391 . S
C2214 C2215 1.400 . S
C2215 C2214 1.400 . S
C2215 C2216 1.398 . S
C2215 C2221 1.491 . S
C2216 H2207 0.950 . S
C2216 C2215 1.398 . S
C2216 C2217 1.391 . S
C2217 H2205 0.950 . S
C2217 C2213 1.393 . S
C2217 C2216 1.391 . S
C2218 H2208 0.950 . S
C2218 C2219 1.386 . S
C2218 C2220 1.391 . S
C2219 C2218 1.386 . S
C2219 C2223 1.393 . S
C2220 H2209 0.950 . S
C2220 C2218 1.391 . S
C2220 C2221 1.400 . S
C2221 C2215 1.491 . S
C2221 C2220 1.400 . S
C2221 C2222 1.398 . S
C2222 H2210 0.950 . S
C2222 C2221 1.398 . S
C2222 C2223 1.391 . S
C2223 H2211 0.950 . S
C2223 C2219 1.393 . S
C2223 C2222 1.391 . S
H2224 C2232 0.950 . S
H2225 C2237 0.950 . S
H2226 C2234 0.950 . S
H2227 C2236 0.950 . S
H2228 C2238 0.950 . S
H2229 C2240 0.950 . S
H2230 C2242 0.950 . S
H2231 C2243 0.950 . S
C2232 H2224 0.950 . S
C2232 C2233 1.386 . S
C2232 C2234 1.391 . S
C2233 C2232 1.386 . S
C2233 C2237 1.393 . S
C2234 H2226 0.950 . S
C2234 C2232 1.391 . S
C2234 C2235 1.400 . S
C2235 C2234 1.400 . S
C2235 C2236 1.398 . S
C2235 C2241 1.491 . S
C2236 H2227 0.950 . S
C2236 C2235 1.398 . S
C2236 C2237 1.391 . S
C2237 H2225 0.950 . S
C2237 C2233 1.393 . S
C2237 C2236 1.391 . S
C2238 H2228 0.950 . S
C2238 C2239 1.386 . S
C2238 C2240 1.391 . S
C2239 C2238 1.386 . S
C2239 C2243 1.393 . S
C2240 H2229 0.950 . S
C2240 C2238 1.391 . S
C2240 C2241 1.400 . S
C2241 C2235 1.491 . S
C2241 C2240 1.400 . S
C2241 C2242 1.398 . S
C2242 H2230 0.950 . S
C2242 C2241 1.398 . S
C2242 C2243 1.391 . S
C2243 H2231 0.950 . S
C2243 C2239 1.393 . S
C2243 C2242 1.391 . S
H2244 C2252 0.950 . S
H2245 C2257 0.950 . S
H2246 C2254 0.950 . S
H2247 C2256 0.950 . S
H2248 C2258 0.950 . S
H2249 C2260 0.950 . S
H2250 C2262 0.950 . S
H2251 C2263 0.950 . S
C2252 H2244 0.950 . S
C2252 C2253 1.386 . S
C2252 C2254 1.391 . S
C2253 C2252 1.386 . S
C2253 C2257 1.393 . S
C2254 H2246 0.950 . S
C2254 C2252 1.391 . S
C2254 C2255 1.400 . S
C2255 C2254 1.400 . S
C2255 C2256 1.398 . S
C2255 C2261 1.491 . S
C2256 H2247 0.950 . S
C2256 C2255 1.398 . S
C2256 C2257 1.391 . S
C2257 H2245 0.950 . S
C2257 C2253 1.393 . S
C2257 C2256 1.391 . S
C2258 H2248 0.950 . S
C2258 C2259 1.386 . S
C2258 C2260 1.391 . S
C2259 C2258 1.386 . S
C2259 C2263 1.393 . S
C2260 H2249 0.950 . S
C2260 C2258 1.391 . S
C2260 C2261 1.400 . S
C2261 C2255 1.491 . S
C2261 C2260 1.400 . S
C2261 C2262 1.398 . S
C2262 H2250 0.950 . S
C2262 C2261 1.398 . S
C2262 C2263 1.391 . S
C2263 H2251 0.950 . S
C2263 C2259 1.393 . S
C2263 C2262 1.391 . S
H2264 C2272 0.950 . S
H2265 C2277 0.950 . S
H2266 C2274 0.950 . S
H2267 C2276 0.950 . S
H2268 C2278 0.950 . S
H2269 C2280 0.950 . S
H2270 C2282 0.950 . S
H2271 C2283 0.950 . S
C2272 H2264 0.950 . S
C2272 C2273 1.386 . S
C2272 C2274 1.391 . S
C2273 C2272 1.386 . S
C2273 C2277 1.393 . S
C2274 H2266 0.950 . S
C2274 C2272 1.391 . S
C2274 C2275 1.400 . S
C2275 C2274 1.400 . S
C2275 C2276 1.398 . S
C2275 C2281 1.491 . S
C2276 H2267 0.950 . S
C2276 C2275 1.398 . S
C2276 C2277 1.391 . S
C2277 H2265 0.950 . S
C2277 C2273 1.393 . S
C2277 C2276 1.391 . S
C2278 H2268 0.950 . S
C2278 C2279 1.386 . S
C2278 C2280 1.391 . S
C2279 C2278 1.386 . S
C2279 C2283 1.393 . S
C2280 H2269 0.950 . S
C2280 C2278 1.391 . S
C2280 C2281 1.400 . S
C2281 C2275 1.491 . S
C2281 C2280 1.400 . S
C2281 C2282 1.398 . S
C2282 H2270 0.950 . S
C2282 C2281 1.398 . S
C2282 C2283 1.391 . S
C2283 H2271 0.950 . S
C2283 C2279 1.393 . S
C2283 C2282 1.391 . S
H2284 C2292 0.950 . S
H2285 C2297 0.950 . S
H2286 C2294 0.950 . S
H2287 C2296 0.950 . S
H2288 C2298 0.950 . S
H2289 C2300 0.950 . S
H2290 C2302 0.950 . S
H2291 C2303 0.950 . S
C2292 H2284 0.950 . S
C2292 C2293 1.386 . S
C2292 C2294 1.391 . S
C2293 C2292 1.386 . S
C2293 C2297 1.393 . S
C2294 H2286 0.950 . S
C2294 C2292 1.391 . S
C2294 C2295 1.400 . S
C2295 C2294 1.400 . S
C2295 C2296 1.398 . S
C2295 C2301 1.491 . S
C2296 H2287 0.950 . S
C2296 C2295 1.398 . S
C2296 C2297 1.391 . S
C2297 H2285 0.950 . S
C2297 C2293 1.393 . S
C2297 C2296 1.391 . S
C2298 H2288 0.950 . S
C2298 C2299 1.386 . S
C2298 C2300 1.391 . S
C2299 C2298 1.386 . S
C2299 C2303 1.393 . S
C2300 H2289 0.950 . S
C2300 C2298 1.391 . S
C2300 C2301 1.400 . S
C2301 C2295 1.491 . S
C2301 C2300 1.400 . S
C2301 C2302 1.398 . S
C2302 H2290 0.950 . S
C2302 C2301 1.398 . S
C2302 C2303 1.391 . S
C2303 H2291 0.950 . S
C2303 C2299 1.393 . S
C2303 C2302 1.391 . S
H2304 C2312 0.950 . S
H2305 C2317 0.950 . S
H2306 C2314 0.950 . S
H2307 C2316 0.950 . S
H2308 C2318 0.950 . S
H2309 C2320 0.950 . S
H2310 C2322 0.950 . S
H2311 C2323 0.950 . S
C2312 H2304 0.950 . S
C2312 C2313 1.386 . S
C2312 C2314 1.391 . S
C2313 C2312 1.386 . S
C2313 C2317 1.393 . S
C2314 H2306 0.950 . S
C2314 C2312 1.391 . S
C2314 C2315 1.400 . S
C2315 C2314 1.400 . S
C2315 C2316 1.398 . S
C2315 C2321 1.491 . S
C2316 H2307 0.950 . S
C2316 C2315 1.398 . S
C2316 C2317 1.391 . S
C2317 H2305 0.950 . S
C2317 C2313 1.393 . S
C2317 C2316 1.391 . S
C2318 H2308 0.950 . S
C2318 C2319 1.386 . S
C2318 C2320 1.391 . S
C2319 C2318 1.386 . S
C2319 C2323 1.393 . S
C2320 H2309 0.950 . S
C2320 C2318 1.391 . S
C2320 C2321 1.400 . S
C2321 C2315 1.491 . S
C2321 C2320 1.400 . S
C2321 C2322 1.398 . S
C2322 H2310 0.950 . S
C2322 C2321 1.398 . S
C2322 C2323 1.391 . S
C2323 H2311 0.950 . S
C2323 C2319 1.393 . S
C2323 C2322 1.391 . S
H2324 C2332 0.950 . S
H2325 C2337 0.950 . S
H2326 C2334 0.950 . S
H2327 C2336 0.950 . S
H2328 C2338 0.950 . S
H2329 C2340 0.950 . S
H2330 C2342 0.950 . S
H2331 C2343 0.950 . S
C2332 H2324 0.950 . S
C2332 C2333 1.386 . S
C2332 C2334 1.391 . S
C2333 C2332 1.386 . S
C2333 C2337 1.393 . S
C2334 H2326 0.950 . S
C2334 C2332 1.391 . S
C2334 C2335 1.400 . S
C2335 C2334 1.400 . S
C2335 C2336 1.398 . S
C2335 C2341 1.491 . S
C2336 H2327 0.950 . S
C2336 C2335 1.398 . S
C2336 C2337 1.391 . S
C2337 H2325 0.950 . S
C2337 C2333 1.393 . S
C2337 C2336 1.391 . S
C2338 H2328 0.950 . S
C2338 C2339 1.386 . S
C2338 C2340 1.391 . S
C2339 C2338 1.386 . S
C2339 C2343 1.393 . S
C2340 H2329 0.950 . S
C2340 C2338 1.391 . S
C2340 C2341 1.400 . S
C2341 C2335 1.491 . S
C2341 C2340 1.400 . S
C2341 C2342 1.398 . S
C2342 H2330 0.950 . S
C2342 C2341 1.398 . S
C2342 C2343 1.391 . S
C2343 H2331 0.950 . S
C2343 C2339 1.393 . S
C2343 C2342 1.391 . S
H2344 C2352 0.950 . S
H2345 C2357 0.950 . S
H2346 C2354 0.950 . S
H2347 C2356 0.950 . S
H2348 C2358 0.950 . S
H2349 C2360 0.950 . S
H2350 C2362 0.950 . S
H2351 C2363 0.950 . S
C2352 H2344 0.950 . S
C2352 C2353 1.386 . S
C2352 C2354 1.391 . S
C2353 C2352 1.386 . S
C2353 C2357 1.393 . S
C2354 H2346 0.950 . S
C2354 C2352 1.391 . S
C2354 C2355 1.400 . S
C2355 C2354 1.400 . S
C2355 C2356 1.398 . S
C2355 C2361 1.491 . S
C2356 H2347 0.950 . S
C2356 C2355 1.398 . S
C2356 C2357 1.391 . S
C2357 H2345 0.950 . S
C2357 C2353 1.393 . S
C2357 C2356 1.391 . S
C2358 H2348 0.950 . S
C2358 C2359 1.386 . S
C2358 C2360 1.391 . S
C2359 C2358 1.386 . S
C2359 C2363 1.393 . S
C2360 H2349 0.950 . S
C2360 C2358 1.391 . S
C2360 C2361 1.400 . S
C2361 C2355 1.491 . S
C2361 C2360 1.400 . S
C2361 C2362 1.398 . S
C2362 H2350 0.950 . S
C2362 C2361 1.398 . S
C2362 C2363 1.391 . S
C2363 H2351 0.950 . S
C2363 C2359 1.393 . S
C2363 C2362 1.391 . S
H2364 C2372 0.950 . S
H2365 C2377 0.950 . S
H2366 C2374 0.950 . S
H2367 C2376 0.950 . S
H2368 C2378 0.950 . S
H2369 C2380 0.950 . S
H2370 C2382 0.950 . S
H2371 C2383 0.950 . S
C2372 H2364 0.950 . S
C2372 C2373 1.386 . S
C2372 C2374 1.391 . S
C2373 C2372 1.386 . S
C2373 C2377 1.393 . S
C2374 H2366 0.950 . S
C2374 C2372 1.391 . S
C2374 C2375 1.400 . S
C2375 C2374 1.400 . S
C2375 C2376 1.398 . S
C2375 C2381 1.491 . S
C2376 H2367 0.950 . S
C2376 C2375 1.398 . S
C2376 C2377 1.391 . S
C2377 H2365 0.950 . S
C2377 C2373 1.393 . S
C2377 C2376 1.391 . S
C2378 H2368 0.950 . S
C2378 C2379 1.386 . S
C2378 C2380 1.391 . S
C2379 C2378 1.386 . S
C2379 C2383 1.393 . S
C2380 H2369 0.950 . S
C2380 C2378 1.391 . S
C2380 C2381 1.400 . S
C2381 C2375 1.491 . S
C2381 C2380 1.400 . S
C2381 C2382 1.398 . S
C2382 H2370 0.950 . S
C2382 C2381 1.398 . S
C2382 C2383 1.391 . S
C2383 H2371 0.950 . S
C2383 C2379 1.393 . S
C2383 C2382 1.391 . S
H2384 C2392 0.950 . S
H2385 C2397 0.950 . S
H2386 C2394 0.950 . S
H2387 C2396 0.950 . S
H2388 C2398 0.950 . S
H2389 C2400 0.950 . S
H2390 C2402 0.950 . S
H2391 C2403 0.950 . S
C2392 H2384 0.950 . S
C2392 C2393 1.386 . S
C2392 C2394 1.391 . S
C2393 C2392 1.386 . S
C2393 C2397 1.393 . S
C2394 H2386 0.950 . S
C2394 C2392 1.391 . S
C2394 C2395 1.400 . S
C2395 C2394 1.400 . S
C2395 C2396 1.398 . S
C2395 C2401 1.491 . S
C2396 H2387 0.950 . S
C2396 C2395 1.398 . S
C2396 C2397 1.391 . S
C2397 H2385 0.950 . S
C2397 C2393 1.393 . S
C2397 C2396 1.391 . S
C2398 H2388 0.950 . S
C2398 C2399 1.386 . S
C2398 C2400 1.391 . S
C2399 C2398 1.386 . S
C2399 C2403 1.393 . S
C2400 H2389 0.950 . S
C2400 C2398 1.391 . S
C2400 C2401 1.400 . S
C2401 C2395 1.491 . S
C2401 C2400 1.400 . S
C2401 C2402 1.398 . S
C2402 H2390 0.950 . S
C2402 C2401 1.398 . S
C2402 C2403 1.391 . S
C2403 H2391 0.950 . S
C2403 C2399 1.393 . S
C2403 C2402 1.391 . S
H2404 C2412 0.950 . S
H2405 C2417 0.950 . S
H2406 C2414 0.950 . S
H2407 C2416 0.950 . S
H2408 C2418 0.950 . S
H2409 C2420 0.950 . S
H2410 C2422 0.950 . S
H2411 C2423 0.950 . S
C2412 H2404 0.950 . S
C2412 C2413 1.386 . S
C2412 C2414 1.391 . S
C2413 C2412 1.386 . S
C2413 C2417 1.393 . S
C2414 H2406 0.950 . S
C2414 C2412 1.391 . S
C2414 C2415 1.400 . S
C2415 C2414 1.400 . S
C2415 C2416 1.398 . S
C2415 C2421 1.491 . S
C2416 H2407 0.950 . S
C2416 C2415 1.398 . S
C2416 C2417 1.391 . S
C2417 H2405 0.950 . S
C2417 C2413 1.393 . S
C2417 C2416 1.391 . S
C2418 H2408 0.950 . S
C2418 C2419 1.386 . S
C2418 C2420 1.391 . S
C2419 C2418 1.386 . S
C2419 C2423 1.393 . S
C2420 H2409 0.950 . S
C2420 C2418 1.391 . S
C2420 C2421 1.400 . S
C2421 C2415 1.491 . S
C2421 C2420 1.400 . S
C2421 C2422 1.398 . S
C2422 H2410 0.950 . S
C2422 C2421 1.398 . S
C2422 C2423 1.391 . S
C2423 H2411 0.950 . S
C2423 C2419 1.393 . S
C2423 C2422 1.391 . S
H2424 C2432 0.950 . S
H2425 C2437 0.950 . S
H2426 C2434 0.950 . S
H2427 C2436 0.950 . S
H2428 C2438 0.950 . S
H2429 C2440 0.950 . S
H2430 C2442 0.950 . S
H2431 C2443 0.950 . S
C2432 H2424 0.950 . S
C2432 C2433 1.386 . S
C2432 C2434 1.391 1_545 S
C2433 C2432 1.386 . S
C2433 C2437 1.393 1_545 S
C2434 H2426 0.950 . S
C2434 C2432 1.391 1_565 S
C2434 C2435 1.400 . S
C2435 C2434 1.400 . S
C2435 C2436 1.398 . S
C2435 C2441 1.491 . S
C2436 H2427 0.950 . S
C2436 C2435 1.398 . S
C2436 C2437 1.391 . S
C2437 H2425 0.950 . S
C2437 C2433 1.393 1_565 S
C2437 C2436 1.391 . S
C2438 H2428 0.950 . S
C2438 C2439 1.386 . S
C2438 C2440 1.391 . S
C2439 C2438 1.386 . S
C2439 C2443 1.393 . S
C2440 H2429 0.950 . S
C2440 C2438 1.391 . S
C2440 C2441 1.400 . S
C2441 C2435 1.491 . S
C2441 C2440 1.400 . S
C2441 C2442 1.398 . S
C2442 H2430 0.950 . S
C2442 C2441 1.398 . S
C2442 C2443 1.391 . S
C2443 H2431 0.950 . S
C2443 C2439 1.393 . S
C2443 C2442 1.391 . S
H2444 C2452 0.950 . S
H2445 C2457 0.950 . S
H2446 C2454 0.950 . S
H2447 C2456 0.950 . S
H2448 C2458 0.950 . S
H2449 C2460 0.950 . S
H2450 C2462 0.950 . S
H2451 C2463 0.950 . S
C2452 H2444 0.950 . S
C2452 C2453 1.386 . S
C2452 C2454 1.391 . S
C2453 C2452 1.386 . S
C2453 C2457 1.393 . S
C2454 H2446 0.950 . S
C2454 C2452 1.391 . S
C2454 C2455 1.400 . S
C2455 C2454 1.400 . S
C2455 C2456 1.398 . S
C2455 C2461 1.491 . S
C2456 H2447 0.950 . S
C2456 C2455 1.398 . S
C2456 C2457 1.391 . S
C2457 H2445 0.950 . S
C2457 C2453 1.393 . S
C2457 C2456 1.391 . S
C2458 H2448 0.950 . S
C2458 C2459 1.386 . S
C2458 C2460 1.391 . S
C2459 C2458 1.386 . S
C2459 C2463 1.393 . S
C2460 H2449 0.950 . S
C2460 C2458 1.391 . S
C2460 C2461 1.400 . S
C2461 C2455 1.491 . S
C2461 C2460 1.400 . S
C2461 C2462 1.398 . S
C2462 H2450 0.950 . S
C2462 C2461 1.398 . S
C2462 C2463 1.391 . S
C2463 H2451 0.950 . S
C2463 C2459 1.393 . S
C2463 C2462 1.391 . S
H2464 C2472 0.946 1_565 S
H2465 C2477 0.950 . S
H2466 C2474 0.950 . S
H2467 C2476 0.950 . S
H2468 C2478 0.950 . S
H2469 C2480 0.950 . S
H2470 C2482 0.950 . S
H2471 C2483 0.950 . S
C2472 H2464 0.946 1_545 S
C2472 C2473 1.372 1_545 S
C2472 C2474 1.408 . S
C2473 C2472 1.372 1_565 S
C2473 C2477 1.393 . S
C2474 H2466 0.950 . S
C2474 C2472 1.408 . S
C2474 C2475 1.400 . S
C2475 C2474 1.400 . S
C2475 C2476 1.398 . S
C2475 C2481 1.491 . S
C2476 H2467 0.950 . S
C2476 C2475 1.398 . S
C2476 C2477 1.391 1_545 S
C2477 H2465 0.950 . S
C2477 C2473 1.393 . S
C2477 C2476 1.391 1_565 S
C2478 H2468 0.950 . S
C2478 C2479 1.386 . S
C2478 C2480 1.391 . S
C2479 C2478 1.386 . S
C2479 C2483 1.393 . S
C2480 H2469 0.950 . S
C2480 C2478 1.391 . S
C2480 C2481 1.400 . S
C2481 C2475 1.491 . S
C2481 C2480 1.400 . S
C2481 C2482 1.398 . S
C2482 H2470 0.950 . S
C2482 C2481 1.398 . S
C2482 C2483 1.391 . S
C2483 H2471 0.950 . S
C2483 C2479 1.393 . S
C2483 C2482 1.391 . S
H2484 C2492 0.950 . S
H2485 C2497 0.950 . S
H2486 C2494 0.950 . S
H2487 C2496 0.950 . S
H2488 C2498 0.950 . S
H2489 C2500 0.950 . S
H2490 C2502 0.950 . S
H2491 C2503 0.950 . S
C2492 H2484 0.950 . S
C2492 C2493 1.386 . S
C2492 C2494 1.391 . S
C2493 C2492 1.386 . S
C2493 C2497 1.393 . S
C2494 H2486 0.950 . S
C2494 C2492 1.391 . S
C2494 C2495 1.400 . S
C2495 C2494 1.400 . S
C2495 C2496 1.398 . S
C2495 C2501 1.491 . S
C2496 H2487 0.950 . S
C2496 C2495 1.398 . S
C2496 C2497 1.391 . S
C2497 H2485 0.950 . S
C2497 C2493 1.393 . S
C2497 C2496 1.391 . S
C2498 H2488 0.950 . S
C2498 C2499 1.386 . S
C2498 C2500 1.391 . S
C2499 C2498 1.386 . S
C2499 C2503 1.393 . S
C2500 H2489 0.950 . S
C2500 C2498 1.391 . S
C2500 C2501 1.400 . S
C2501 C2495 1.491 . S
C2501 C2500 1.400 . S
C2501 C2502 1.398 . S
C2502 H2490 0.950 . S
C2502 C2501 1.398 . S
C2502 C2503 1.391 . S
C2503 H2491 0.950 . S
C2503 C2499 1.393 . S
C2503 C2502 1.391 . S
H2504 C2512 0.950 . S
H2505 C2517 0.950 . S
H2506 C2514 0.950 . S
H2507 C2516 0.950 . S
H2508 C2518 0.950 . S
H2509 C2520 0.950 . S
H2510 C2522 0.950 . S
H2511 C2523 0.950 . S
C2512 H2504 0.950 . S
C2512 C2513 1.386 . S
C2512 C2514 1.391 . S
C2513 C2512 1.386 . S
C2513 C2517 1.393 . S
C2514 H2506 0.950 . S
C2514 C2512 1.391 . S
C2514 C2515 1.400 . S
C2515 C2514 1.400 . S
C2515 C2516 1.398 . S
C2515 C2521 1.491 . S
C2516 H2507 0.950 . S
C2516 C2515 1.398 . S
C2516 C2517 1.391 . S
C2517 H2505 0.950 . S
C2517 C2513 1.393 . S
C2517 C2516 1.391 . S
C2518 H2508 0.950 . S
C2518 C2519 1.386 1_545 S
C2518 C2520 1.391 . S
C2519 C2518 1.386 1_565 S
C2519 C2523 1.393 . S
C2520 H2509 0.950 . S
C2520 C2518 1.391 . S
C2520 C2521 1.400 . S
C2521 C2515 1.491 . S
C2521 C2520 1.400 . S
C2521 C2522 1.398 . S
C2522 H2510 0.950 . S
C2522 C2521 1.398 . S
C2522 C2523 1.391 1_545 S
C2523 H2511 0.950 . S
C2523 C2519 1.393 . S
C2523 C2522 1.391 1_565 S
H2524 C2532 0.950 . S
H2525 C2537 0.950 . S
H2526 C2534 0.950 . S
H2527 C2536 0.950 . S
H2528 C2538 0.950 . S
H2529 C2540 0.950 . S
H2530 C2542 0.950 . S
H2531 C2543 0.950 . S
C2532 H2524 0.950 . S
C2532 C2533 1.386 . S
C2532 C2534 1.391 . S
C2533 C2532 1.386 . S
C2533 C2537 1.393 . S
C2534 H2526 0.950 . S
C2534 C2532 1.391 . S
C2534 C2535 1.400 . S
C2535 C2534 1.400 . S
C2535 C2536 1.398 . S
C2535 C2541 1.491 . S
C2536 H2527 0.950 . S
C2536 C2535 1.398 . S
C2536 C2537 1.391 . S
C2537 H2525 0.950 . S
C2537 C2533 1.393 . S
C2537 C2536 1.391 . S
C2538 H2528 0.950 . S
C2538 C2539 1.386 . S
C2538 C2540 1.391 . S
C2539 C2538 1.386 . S
C2539 C2543 1.393 . S
C2540 H2529 0.950 . S
C2540 C2538 1.391 . S
C2540 C2541 1.400 . S
C2541 C2535 1.491 . S
C2541 C2540 1.400 . S
C2541 C2542 1.398 . S
C2542 H2530 0.950 . S
C2542 C2541 1.398 . S
C2542 C2543 1.391 . S
C2543 H2531 0.950 . S
C2543 C2539 1.393 . S
C2543 C2542 1.391 . S
H2544 C2552 0.950 . S
H2545 C2557 0.950 . S
H2546 C2554 0.950 . S
H2547 C2556 0.950 . S
H2548 C2558 0.950 . S
H2549 C2560 0.950 . S
H2550 C2562 0.950 . S
H2551 C2563 0.950 . S
C2552 H2544 0.950 . S
C2552 C2553 1.386 . S
C2552 C2554 1.391 . S
C2553 C2552 1.386 . S
C2553 C2557 1.393 . S
C2554 H2546 0.950 . S
C2554 C2552 1.391 . S
C2554 C2555 1.400 . S
C2555 C2554 1.400 . S
C2555 C2556 1.398 . S
C2555 C2561 1.491 . S
C2556 H2547 0.950 . S
C2556 C2555 1.398 . S
C2556 C2557 1.391 . S
C2557 H2545 0.950 . S
C2557 C2553 1.393 . S
C2557 C2556 1.391 . S
C2558 H2548 0.950 . S
C2558 C2559 1.386 . S
C2558 C2560 1.391 . S
C2559 C2558 1.386 . S
C2559 C2563 1.393 . S
C2560 H2549 0.950 . S
C2560 C2558 1.391 . S
C2560 C2561 1.400 . S
C2561 C2555 1.491 . S
C2561 C2560 1.400 . S
C2561 C2562 1.398 . S
C2562 H2550 0.950 . S
C2562 C2561 1.398 . S
C2562 C2563 1.391 . S
C2563 H2551 0.950 . S
C2563 C2559 1.393 . S
C2563 C2562 1.391 . S
H2564 C2572 0.950 . S
H2565 C2577 0.950 . S
H2566 C2574 0.950 . S
H2567 C2576 0.950 . S
H2568 C2578 0.950 . S
H2569 C2580 0.950 . S
H2570 C2582 0.950 . S
H2571 C2583 0.950 . S
C2572 H2564 0.950 . S
C2572 C2573 1.386 . S
C2572 C2574 1.391 . S
C2573 C2572 1.386 . S
C2573 C2577 1.393 . S
C2574 H2566 0.950 . S
C2574 C2572 1.391 . S
C2574 C2575 1.400 . S
C2575 C2574 1.400 . S
C2575 C2576 1.398 . S
C2575 C2581 1.491 . S
C2576 H2567 0.950 . S
C2576 C2575 1.398 . S
C2576 C2577 1.391 . S
C2577 H2565 0.950 . S
C2577 C2573 1.393 . S
C2577 C2576 1.391 . S
C2578 H2568 0.950 . S
C2578 C2579 1.386 . S
C2578 C2580 1.391 . S
C2579 C2578 1.386 . S
C2579 C2583 1.393 . S
C2580 H2569 0.950 . S
C2580 C2578 1.391 . S
C2580 C2581 1.400 . S
C2581 C2575 1.491 . S
C2581 C2580 1.400 . S
C2581 C2582 1.398 . S
C2582 H2570 0.950 . S
C2582 C2581 1.398 . S
C2582 C2583 1.391 . S
C2583 H2571 0.950 . S
C2583 C2579 1.393 . S
C2583 C2582 1.391 . S
H2584 C2592 0.950 . S
H2585 C2597 0.950 . S
H2586 C2594 0.950 . S
H2587 C2596 0.950 . S
H2588 C2598 0.950 . S
H2589 C2600 0.950 . S
H2590 C2602 0.950 . S
H2591 C2603 0.950 . S
C2592 H2584 0.950 . S
C2592 C2593 1.386 . S
C2592 C2594 1.391 . S
C2593 C2592 1.386 . S
C2593 C2597 1.393 . S
C2594 H2586 0.950 . S
C2594 C2592 1.391 . S
C2594 C2595 1.400 . S
C2595 C2594 1.400 . S
C2595 C2596 1.398 . S
C2595 C2601 1.491 . S
C2596 H2587 0.950 . S
C2596 C2595 1.398 . S
C2596 C2597 1.391 . S
C2597 H2585 0.950 . S
C2597 C2593 1.393 . S
C2597 C2596 1.391 . S
C2598 H2588 0.950 . S
C2598 C2599 1.386 . S
C2598 C2600 1.391 . S
C2599 C2598 1.386 . S
C2599 C2603 1.393 . S
C2600 H2589 0.950 . S
C2600 C2598 1.391 . S
C2600 C2601 1.400 . S
C2601 C2595 1.491 . S
C2601 C2600 1.400 . S
C2601 C2602 1.398 . S
C2602 H2590 0.950 . S
C2602 C2601 1.398 . S
C2602 C2603 1.391 . S
C2603 H2591 0.950 . S
C2603 C2599 1.393 . S
C2603 C2602 1.391 . S
H2604 C2612 0.950 . S
H2605 C2617 0.950 . S
H2606 C2614 0.950 . S
H2607 C2616 0.950 . S
H2608 C2618 0.950 . S
H2609 C2620 0.950 . S
H2610 C2622 0.950 . S
H2611 C2623 0.950 . S
C2612 H2604 0.950 . S
C2612 C2613 1.386 . S
C2612 C2614 1.391 . S
C2613 C2612 1.386 . S
C2613 C2617 1.393 . S
C2614 H2606 0.950 . S
C2614 C2612 1.391 . S
C2614 C2615 1.400 1_545 S
C2615 C2614 1.400 1_565 S
C2615 C2616 1.398 . S
C2615 C2621 1.491 . S
C2616 H2607 0.950 . S
C2616 C2615 1.398 . S
C2616 C2617 1.391 1_565 S
C2617 H2605 0.950 . S
C2617 C2613 1.393 . S
C2617 C2616 1.391 1_545 S
C2618 H2608 0.950 . S
C2618 C2619 1.386 . S
C2618 C2620 1.391 . S
C2619 C2618 1.386 . S
C2619 C2623 1.393 . S
C2620 H2609 0.950 . S
C2620 C2618 1.391 . S
C2620 C2621 1.400 . S
C2621 C2615 1.491 . S
C2621 C2620 1.400 . S
C2621 C2622 1.398 . S
C2622 H2610 0.950 . S
C2622 C2621 1.398 . S
C2622 C2623 1.391 . S
C2623 H2611 0.950 . S
C2623 C2619 1.393 . S
C2623 C2622 1.391 . S
H2624 C2632 0.950 . S
H2625 C2637 0.950 . S
H2626 C2634 0.950 . S
H2627 C2636 0.950 . S
H2628 C2638 0.950 . S
H2629 C2640 0.950 . S
H2630 C2642 0.950 . S
H2631 C2643 0.950 . S
C2632 H2624 0.950 . S
C2632 C2633 1.386 . S
C2632 C2634 1.391 . S
C2633 C2632 1.386 . S
C2633 C2637 1.393 . S
C2634 H2626 0.950 . S
C2634 C2632 1.391 . S
C2634 C2635 1.400 . S
C2635 C2634 1.400 . S
C2635 C2636 1.398 . S
C2635 C2641 1.491 . S
C2636 H2627 0.950 . S
C2636 C2635 1.398 . S
C2636 C2637 1.391 . S
C2637 H2625 0.950 . S
C2637 C2633 1.393 . S
C2637 C2636 1.391 . S
C2638 H2628 0.950 . S
C2638 C2639 1.386 . S
C2638 C2640 1.391 . S
C2639 C2638 1.386 . S
C2639 C2643 1.393 . S
C2640 H2629 0.950 . S
C2640 C2638 1.391 . S
C2640 C2641 1.400 . S
C2641 C2635 1.491 . S
C2641 C2640 1.400 . S
C2641 C2642 1.398 . S
C2642 H2630 0.950 . S
C2642 C2641 1.398 . S
C2642 C2643 1.391 . S
C2643 H2631 0.950 . S
C2643 C2639 1.393 . S
C2643 C2642 1.391 . S
H2644 C2652 0.950 . S
H2645 C2657 0.950 . S
H2646 C2654 0.950 . S
H2647 C2656 0.950 . S
H2648 C2658 0.950 . S
H2649 C2660 0.950 . S
H2650 C2662 0.950 . S
H2651 C2663 0.950 . S
C2652 H2644 0.950 . S
C2652 C2653 1.386 . S
C2652 C2654 1.391 . S
C2653 C2652 1.386 . S
C2653 C2657 1.393 . S
C2654 H2646 0.950 . S
C2654 C2652 1.391 . S
C2654 C2655 1.400 . S
C2655 C2654 1.400 . S
C2655 C2656 1.398 . S
C2655 C2661 1.491 . S
C2656 H2647 0.950 . S
C2656 C2655 1.398 . S
C2656 C2657 1.391 . S
C2657 H2645 0.950 . S
C2657 C2653 1.393 . S
C2657 C2656 1.391 . S
C2658 H2648 0.950 . S
C2658 C2659 1.386 . S
C2658 C2660 1.391 . S
C2659 C2658 1.386 . S
C2659 C2663 1.393 . S
C2660 H2649 0.950 . S
C2660 C2658 1.391 . S
C2660 C2661 1.400 . S
C2661 C2655 1.491 . S
C2661 C2660 1.400 . S
C2661 C2662 1.398 . S
C2662 H2650 0.950 . S
C2662 C2661 1.398 . S
C2662 C2663 1.391 . S
C2663 H2651 0.950 . S
C2663 C2659 1.393 . S
C2663 C2662 1.391 . S
H2664 C2672 0.950 . S
H2665 C2677 0.950 . S
H2666 C2674 0.950 . S
H2667 C2676 0.950 . S
H2668 C2678 0.950 . S
H2669 C2680 0.950 . S
H2670 C2682 0.950 . S
H2671 C2683 0.950 . S
C2672 H2664 0.950 . S
C2672 C2673 1.386 . S
C2672 C2674 1.391 . S
C2673 C2672 1.386 . S
C2673 C2677 1.393 . S
C2674 H2666 0.950 . S
C2674 C2672 1.391 . S
C2674 C2675 1.400 . S
C2675 C2674 1.400 . S
C2675 C2676 1.398 . S
C2675 C2681 1.491 . S
C2676 H2667 0.950 . S
C2676 C2675 1.398 . S
C2676 C2677 1.391 . S
C2677 H2665 0.950 . S
C2677 C2673 1.393 . S
C2677 C2676 1.391 . S
C2678 H2668 0.950 . S
C2678 C2679 1.386 . S
C2678 C2680 1.391 . S
C2679 C2678 1.386 . S
C2679 C2683 1.393 . S
C2680 H2669 0.950 . S
C2680 C2678 1.391 . S
C2680 C2681 1.400 . S
C2681 C2675 1.491 . S
C2681 C2680 1.400 . S
C2681 C2682 1.398 . S
C2682 H2670 0.950 . S
C2682 C2681 1.398 . S
C2682 C2683 1.391 . S
C2683 H2671 0.950 . S
C2683 C2679 1.393 . S
C2683 C2682 1.391 . S
H2684 C2692 0.950 . S
H2685 C2697 0.950 . S
H2686 C2694 0.950 . S
H2687 C2696 0.950 . S
H2688 C2698 0.950 . S
H2689 C2700 0.950 . S
H2690 C2702 0.950 . S
H2691 C2703 0.950 . S
C2692 H2684 0.950 . S
C2692 C2693 1.386 . S
C2692 C2694 1.391 . S
C2693 C2692 1.386 . S
C2693 C2697 1.393 . S
C2694 H2686 0.950 . S
C2694 C2692 1.391 . S
C2694 C2695 1.400 . S
C2695 C2694 1.400 . S
C2695 C2696 1.398 . S
C2695 C2701 1.491 . S
C2696 H2687 0.950 . S
C2696 C2695 1.398 . S
C2696 C2697 1.391 . S
C2697 H2685 0.950 . S
C2697 C2693 1.393 . S
C2697 C2696 1.391 . S
C2698 H2688 0.950 . S
C2698 C2699 1.386 . S
C2698 C2700 1.391 . S
C2699 C2698 1.386 . S
C2699 C2703 1.393 . S
C2700 H2689 0.950 . S
C2700 C2698 1.391 . S
C2700 C2701 1.400 1_545 S
C2701 C2695 1.491 . S
C2701 C2700 1.400 1_565 S
C2701 C2702 1.398 . S
C2702 H2690 0.950 . S
C2702 C2701 1.398 . S
C2702 C2703 1.391 1_565 S
C2703 H2691 0.950 . S
C2703 C2699 1.393 . S
C2703 C2702 1.391 1_545 S
H2704 C2712 0.950 . S
H2705 C2717 0.950 . S
H2706 C2714 0.950 . S
H2707 C2716 0.950 . S
H2708 C2718 0.950 . S
H2709 C2720 0.950 . S
H2710 C2722 0.950 . S
H2711 C2723 0.950 . S
C2712 H2704 0.950 . S
C2712 C2713 1.386 . S
C2712 C2714 1.391 . S
C2713 C2712 1.386 . S
C2713 C2717 1.393 . S
C2714 H2706 0.950 . S
C2714 C2712 1.391 . S
C2714 C2715 1.400 . S
C2715 C2714 1.400 . S
C2715 C2716 1.398 . S
C2715 C2721 1.491 . S
C2716 H2707 0.950 . S
C2716 C2715 1.398 . S
C2716 C2717 1.391 . S
C2717 H2705 0.950 . S
C2717 C2713 1.393 . S
C2717 C2716 1.391 . S
C2718 H2708 0.950 . S
C2718 C2719 1.386 . S
C2718 C2720 1.391 . S
C2719 C2718 1.386 . S
C2719 C2723 1.393 . S
C2720 H2709 0.950 . S
C2720 C2718 1.391 . S
C2720 C2721 1.400 . S
C2721 C2715 1.491 . S
C2721 C2720 1.400 . S
C2721 C2722 1.398 . S
C2722 H2710 0.950 . S
C2722 C2721 1.398 . S
C2722 C2723 1.391 . S
C2723 H2711 0.950 . S
C2723 C2719 1.393 . S
C2723 C2722 1.391 . S
H2724 C2732 0.950 . S
H2725 C2737 0.950 . S
H2726 C2734 0.950 . S
H2727 C2736 0.950 . S
H2728 C2738 0.950 . S
H2729 C2740 0.950 . S
H2730 C2742 0.950 . S
H2731 C2743 0.950 . S
C2732 H2724 0.950 . S
C2732 C2733 1.386 . S
C2732 C2734 1.391 . S
C2733 C2732 1.386 . S
C2733 C2737 1.393 . S
C2734 H2726 0.950 . S
C2734 C2732 1.391 . S
C2734 C2735 1.400 . S
C2735 C2734 1.400 . S
C2735 C2736 1.398 . S
C2735 C2741 1.491 . S
C2736 H2727 0.950 . S
C2736 C2735 1.398 . S
C2736 C2737 1.391 . S
C2737 H2725 0.950 . S
C2737 C2733 1.393 . S
C2737 C2736 1.391 . S
C2738 H2728 0.950 . S
C2738 C2739 1.386 . S
C2738 C2740 1.391 . S
C2739 C2738 1.386 . S
C2739 C2743 1.393 . S
C2740 H2729 0.950 . S
C2740 C2738 1.391 . S
C2740 C2741 1.400 . S
C2741 C2735 1.491 . S
C2741 C2740 1.400 . S
C2741 C2742 1.398 . S
C2742 H2730 0.950 . S
C2742 C2741 1.398 . S
C2742 C2743 1.391 . S
C2743 H2731 0.950 . S
C2743 C2739 1.393 . S
C2743 C2742 1.391 . S
H2744 C2752 0.950 . S
H2745 C2757 0.950 . S
H2746 C2754 0.950 . S
H2747 C2756 0.950 . S
H2748 C2758 0.950 . S
H2749 C2760 0.950 . S
H2750 C2762 0.950 . S
H2751 C2763 0.950 . S
C2752 H2744 0.950 . S
C2752 C2753 1.386 . S
C2752 C2754 1.391 . S
C2753 C2752 1.386 . S
C2753 C2757 1.393 . S
C2754 H2746 0.950 . S
C2754 C2752 1.391 . S
C2754 C2755 1.400 . S
C2755 C2754 1.400 . S
C2755 C2756 1.398 . S
C2755 C2761 1.491 . S
C2756 H2747 0.950 . S
C2756 C2755 1.398 . S
C2756 C2757 1.391 . S
C2757 H2745 0.950 . S
C2757 C2753 1.393 . S
C2757 C2756 1.391 . S
C2758 H2748 0.950 . S
C2758 C2759 1.386 . S
C2758 C2760 1.391 . S
C2759 C2758 1.386 . S
C2759 C2763 1.393 . S
C2760 H2749 0.950 . S
C2760 C2758 1.391 . S
C2760 C2761 1.400 . S
C2761 C2755 1.491 . S
C2761 C2760 1.400 . S
C2761 C2762 1.398 . S
C2762 H2750 0.950 . S
C2762 C2761 1.398 . S
C2762 C2763 1.391 . S
C2763 H2751 0.950 . S
C2763 C2759 1.393 . S
C2763 C2762 1.391 . S
H2764 C2772 0.950 . S
H2765 C2777 0.950 . S
H2766 C2774 0.950 . S
H2767 C2776 0.950 . S
H2768 C2778 0.950 . S
H2769 C2780 0.950 . S
H2770 C2782 0.950 . S
H2771 C2783 0.950 . S
C2772 H2764 0.950 . S
C2772 C2773 1.386 . S
C2772 C2774 1.391 . S
C2773 C2772 1.386 . S
C2773 C2777 1.393 . S
C2774 H2766 0.950 . S
C2774 C2772 1.391 . S
C2774 C2775 1.400 . S
C2775 C2774 1.400 . S
C2775 C2776 1.398 . S
C2775 C2781 1.491 . S
C2776 H2767 0.950 . S
C2776 C2775 1.398 . S
C2776 C2777 1.391 . S
C2777 H2765 0.950 . S
C2777 C2773 1.393 . S
C2777 C2776 1.391 . S
C2778 H2768 0.950 . S
C2778 C2779 1.386 . S
C2778 C2780 1.391 . S
C2779 C2778 1.386 . S
C2779 C2783 1.393 . S
C2780 H2769 0.950 . S
C2780 C2778 1.391 . S
C2780 C2781 1.400 . S
C2781 C2775 1.491 . S
C2781 C2780 1.400 . S
C2781 C2782 1.398 . S
C2782 H2770 0.950 . S
C2782 C2781 1.398 . S
C2782 C2783 1.391 . S
C2783 H2771 0.950 . S
C2783 C2779 1.393 . S
C2783 C2782 1.391 . S
H2784 C2792 0.950 . S
H2785 C2797 0.950 . S
H2786 C2794 0.950 . S
H2787 C2796 0.950 . S
H2788 C2798 0.950 . S
H2789 C2800 0.950 . S
H2790 C2802 0.950 . S
H2791 C2803 0.950 . S
C2792 H2784 0.950 . S
C2792 C2793 1.386 . S
C2792 C2794 1.391 . S
C2793 C2792 1.386 . S
C2793 C2797 1.393 . S
C2794 H2786 0.950 . S
C2794 C2792 1.391 . S
C2794 C2795 1.400 . S
C2795 C2794 1.400 . S
C2795 C2796 1.398 . S
C2795 C2801 1.491 . S
C2796 H2787 0.950 . S
C2796 C2795 1.398 . S
C2796 C2797 1.391 . S
C2797 H2785 0.950 . S
C2797 C2793 1.393 . S
C2797 C2796 1.391 . S
C2798 H2788 0.950 . S
C2798 C2799 1.386 . S
C2798 C2800 1.391 . S
C2799 C2798 1.386 . S
C2799 C2803 1.393 . S
C2800 H2789 0.950 . S
C2800 C2798 1.391 . S
C2800 C2801 1.400 . S
C2801 C2795 1.491 . S
C2801 C2800 1.400 . S
C2801 C2802 1.398 . S
C2802 H2790 0.950 . S
C2802 C2801 1.398 . S
C2802 C2803 1.391 . S
C2803 H2791 0.950 . S
C2803 C2799 1.393 . S
C2803 C2802 1.391 . S
H2804 C2812 0.950 . S
H2805 C2817 0.950 . S
H2806 C2814 0.950 . S
H2807 C2816 0.950 . S
H2808 C2818 0.950 . S
H2809 C2820 0.950 . S
H2810 C2822 0.950 . S
H2811 C2823 0.950 . S
C2812 H2804 0.950 . S
C2812 C2813 1.386 . S
C2812 C2814 1.391 . S
C2813 C2812 1.386 . S
C2813 C2817 1.393 . S
C2814 H2806 0.950 . S
C2814 C2812 1.391 . S
C2814 C2815 1.400 1_655 S
C2815 C2814 1.400 1_455 S
C2815 C2816 1.398 . S
C2815 C2821 1.491 . S
C2816 H2807 0.950 . S
C2816 C2815 1.398 . S
C2816 C2817 1.391 1_455 S
C2817 H2805 0.950 . S
C2817 C2813 1.393 . S
C2817 C2816 1.391 1_655 S
C2818 H2808 0.950 . S
C2818 C2819 1.386 . S
C2818 C2820 1.391 . S
C2819 C2818 1.386 . S
C2819 C2823 1.393 . S
C2820 H2809 0.950 . S
C2820 C2818 1.391 . S
C2820 C2821 1.400 . S
C2821 C2815 1.491 . S
C2821 C2820 1.400 . S
C2821 C2822 1.398 . S
C2822 H2810 0.950 . S
C2822 C2821 1.398 . S
C2822 C2823 1.391 . S
C2823 H2811 0.950 . S
C2823 C2819 1.393 . S
C2823 C2822 1.391 . S
H2824 C2832 0.950 . S
H2825 C2837 0.950 . S
H2826 C2834 0.950 . S
H2827 C2836 0.950 . S
H2828 C2838 0.950 . S
H2829 C2840 0.950 . S
H2830 C2842 0.950 . S
H2831 C2843 0.950 . S
C2832 H2824 0.950 . S
C2832 C2833 1.386 . S
C2832 C2834 1.391 . S
C2833 C2832 1.386 . S
C2833 C2837 1.393 . S
C2834 H2826 0.950 . S
C2834 C2832 1.391 . S
C2834 C2835 1.400 . S
C2835 C2834 1.400 . S
C2835 C2836 1.398 . S
C2835 C2841 1.491 . S
C2836 H2827 0.950 . S
C2836 C2835 1.398 . S
C2836 C2837 1.391 . S
C2837 H2825 0.950 . S
C2837 C2833 1.393 . S
C2837 C2836 1.391 . S
C2838 H2828 0.950 . S
C2838 C2839 1.386 . S
C2838 C2840 1.391 . S
C2839 C2838 1.386 . S
C2839 C2843 1.393 . S
C2840 H2829 0.950 . S
C2840 C2838 1.391 . S
C2840 C2841 1.400 . S
C2841 C2835 1.491 . S
C2841 C2840 1.400 . S
C2841 C2842 1.398 . S
C2842 H2830 0.950 . S
C2842 C2841 1.398 . S
C2842 C2843 1.391 . S
C2843 H2831 0.950 . S
C2843 C2839 1.393 . S
C2843 C2842 1.391 . S
H2844 C2852 0.950 . S
H2845 C2857 0.950 . S
H2846 C2854 0.950 . S
H2847 C2856 0.950 . S
H2848 C2858 0.950 . S
H2849 C2860 0.950 . S
H2850 C2862 0.934 1_655 S
H2851 C2863 0.950 . S
C2852 H2844 0.950 . S
C2852 C2853 1.386 . S
C2852 C2854 1.391 . S
C2853 C2852 1.386 . S
C2853 C2857 1.393 . S
C2854 H2846 0.950 . S
C2854 C2852 1.391 . S
C2854 C2855 1.400 . S
C2855 C2854 1.400 . S
C2855 C2856 1.398 . S
C2855 C2861 1.491 . S
C2856 H2847 0.950 . S
C2856 C2855 1.398 . S
C2856 C2857 1.391 . S
C2857 H2845 0.950 . S
C2857 C2853 1.393 . S
C2857 C2856 1.391 . S
C2858 H2848 0.950 . S
C2858 C2859 1.386 . S
C2858 C2860 1.391 . S
C2859 C2858 1.386 . S
C2859 C2863 1.393 . S
C2860 H2849 0.950 . S
C2860 C2858 1.391 . S
C2860 C2861 1.400 1_455 S
C2861 C2855 1.491 . S
C2861 C2860 1.400 1_655 S
C2861 C2862 1.398 1_655 S
C2862 H2850 0.934 1_455 S
C2862 C2861 1.398 1_455 S
C2862 C2863 1.391 . S
C2863 H2851 0.950 . S
C2863 C2859 1.393 . S
C2863 C2862 1.391 . S
H2864 C2872 0.950 . S
H2865 C2877 0.950 . S
H2866 C2874 0.950 . S
H2867 C2876 0.950 . S
H2868 C2878 0.950 . S
H2869 C2880 0.950 . S
H2870 C2882 0.950 . S
H2871 C2883 0.950 . S
C2872 H2864 0.950 . S
C2872 C2873 1.386 . S
C2872 C2874 1.391 . S
C2873 C2872 1.386 . S
C2873 C2877 1.393 . S
C2874 H2866 0.950 . S
C2874 C2872 1.391 . S
C2874 C2875 1.400 . S
C2875 C2874 1.400 . S
C2875 C2876 1.398 . S
C2875 C2881 1.491 . S
C2876 H2867 0.950 . S
C2876 C2875 1.398 . S
C2876 C2877 1.391 . S
C2877 H2865 0.950 . S
C2877 C2873 1.393 . S
C2877 C2876 1.391 . S
C2878 H2868 0.950 . S
C2878 C2879 1.386 . S
C2878 C2880 1.391 . S
C2879 C2878 1.386 . S
C2879 C2883 1.393 . S
C2880 H2869 0.950 . S
C2880 C2878 1.391 . S
C2880 C2881 1.400 . S
C2881 C2875 1.491 . S
C2881 C2880 1.400 . S
C2881 C2882 1.398 . S
C2882 H2870 0.950 . S
C2882 C2881 1.398 . S
C2882 C2883 1.391 . S
C2883 H2871 0.950 . S
C2883 C2879 1.393 . S
C2883 C2882 1.391 . S
H2884 C2892 0.950 . S
H2885 C2897 0.950 . S
H2886 C2894 0.950 . S
H2887 C2896 0.950 . S
H2888 C2898 0.950 . S
H2889 C2900 0.950 . S
H2890 C2902 0.950 . S
H2891 C2903 0.950 . S
C2892 H2884 0.950 . S
C2892 C2893 1.386 . S
C2892 C2894 1.391 . S
C2893 C2892 1.386 . S
C2893 C2897 1.393 . S
C2894 H2886 0.950 . S
C2894 C2892 1.391 . S
C2894 C2895 1.400 . S
C2895 C2894 1.400 . S
C2895 C2896 1.398 . S
C2895 C2901 1.491 . S
C2896 H2887 0.950 . S
C2896 C2895 1.398 . S
C2896 C2897 1.391 . S
C2897 H2885 0.950 . S
C2897 C2893 1.393 . S
C2897 C2896 1.391 . S
C2898 H2888 0.950 . S
C2898 C2899 1.386 . S
C2898 C2900 1.391 . S
C2899 C2898 1.386 . S
C2899 C2903 1.393 . S
C2900 H2889 0.950 . S
C2900 C2898 1.391 . S
C2900 C2901 1.400 . S
C2901 C2895 1.491 . S
C2901 C2900 1.400 . S
C2901 C2902 1.398 . S
C2902 H2890 0.950 . S
C2902 C2901 1.398 . S
C2902 C2903 1.391 . S
C2903 H2891 0.950 . S
C2903 C2899 1.393 . S
C2903 C2902 1.391 . S
H2904 C2912 0.950 . S
H2905 C2917 0.950 . S
H2906 C2914 0.950 . S
H2907 C2916 0.950 . S
H2908 C2918 0.950 . S
H2909 C2920 0.950 . S
H2910 C2922 0.950 . S
H2911 C2923 0.950 . S
C2912 H2904 0.950 . S
C2912 C2913 1.386 . S
C2912 C2914 1.391 . S
C2913 C2912 1.386 . S
C2913 C2917 1.393 . S
C2914 H2906 0.950 . S
C2914 C2912 1.391 . S
C2914 C2915 1.400 1_554 S
C2915 C2914 1.400 1_556 S
C2915 C2916 1.398 . S
C2915 C2921 1.491 . S
C2916 H2907 0.950 . S
C2916 C2915 1.398 . S
C2916 C2917 1.391 1_556 S
C2917 H2905 0.950 . S
C2917 C2913 1.393 . S
C2917 C2916 1.391 1_554 S
C2918 H2908 0.950 . S
C2918 C2919 1.386 . S
C2918 C2920 1.391 . S
C2919 C2918 1.386 . S
C2919 C2923 1.393 . S
C2920 H2909 0.950 . S
C2920 C2918 1.391 . S
C2920 C2921 1.400 . S
C2921 C2915 1.491 . S
C2921 C2920 1.400 . S
C2921 C2922 1.398 . S
C2922 H2910 0.950 . S
C2922 C2921 1.398 . S
C2922 C2923 1.391 . S
C2923 H2911 0.950 . S
C2923 C2919 1.393 . S
C2923 C2922 1.391 . S
H2924 C2932 0.950 . S
H2925 C2937 0.950 . S
H2926 C2934 0.950 . S
H2927 C2936 0.950 . S
H2928 C2938 0.950 . S
H2929 C2940 0.950 . S
H2930 C2942 0.950 . S
H2931 C2943 0.950 . S
C2932 H2924 0.950 . S
C2932 C2933 1.386 . S
C2932 C2934 1.391 . S
C2933 C2932 1.386 . S
C2933 C2937 1.393 . S
C2934 H2926 0.950 . S
C2934 C2932 1.391 . S
C2934 C2935 1.400 . S
C2935 C2934 1.400 . S
C2935 C2936 1.398 . S
C2935 C2941 1.491 . S
C2936 H2927 0.950 . S
C2936 C2935 1.398 . S
C2936 C2937 1.391 . S
C2937 H2925 0.950 . S
C2937 C2933 1.393 . S
C2937 C2936 1.391 . S
C2938 H2928 0.950 . S
C2938 C2939 1.386 . S
C2938 C2940 1.391 . S
C2939 C2938 1.386 . S
C2939 C2943 1.393 . S
C2940 H2929 0.950 . S
C2940 C2938 1.391 . S
C2940 C2941 1.400 . S
C2941 C2935 1.491 . S
C2941 C2940 1.400 . S
C2941 C2942 1.398 . S
C2942 H2930 0.950 . S
C2942 C2941 1.398 . S
C2942 C2943 1.391 . S
C2943 H2931 0.950 . S
C2943 C2939 1.393 . S
C2943 C2942 1.391 . S
H2944 C2952 0.950 . S
H2945 C2957 0.950 . S
H2946 C2954 0.950 . S
H2947 C2956 0.950 . S
H2948 C2958 0.950 . S
H2949 C2960 0.950 . S
H2950 C2962 0.950 . S
H2951 C2963 0.950 . S
C2952 H2944 0.950 . S
C2952 C2953 1.386 . S
C2952 C2954 1.391 . S
C2953 C2952 1.386 . S
C2953 C2957 1.393 . S
C2954 H2946 0.950 . S
C2954 C2952 1.391 . S
C2954 C2955 1.400 . S
C2955 C2954 1.400 . S
C2955 C2956 1.398 . S
C2955 C2961 1.491 . S
C2956 H2947 0.950 . S
C2956 C2955 1.398 . S
C2956 C2957 1.391 . S
C2957 H2945 0.950 . S
C2957 C2953 1.393 . S
C2957 C2956 1.391 . S
C2958 H2948 0.950 . S
C2958 C2959 1.386 . S
C2958 C2960 1.391 . S
C2959 C2958 1.386 . S
C2959 C2963 1.393 . S
C2960 H2949 0.950 . S
C2960 C2958 1.391 . S
C2960 C2961 1.400 . S
C2961 C2955 1.491 . S
C2961 C2960 1.400 . S
C2961 C2962 1.398 . S
C2962 H2950 0.950 . S
C2962 C2961 1.398 . S
C2962 C2963 1.391 . S
C2963 H2951 0.950 . S
C2963 C2959 1.393 . S
C2963 C2962 1.391 . S
H2964 C2972 0.950 . S
H2965 C2977 0.950 . S
H2966 C2974 0.950 . S
H2967 C2976 0.950 . S
H2968 C2978 0.950 . S
H2969 C2980 0.950 . S
H2970 C2982 0.950 . S
H2971 C2983 0.950 . S
C2972 H2964 0.950 . S
C2972 C2973 1.386 . S
C2972 C2974 1.391 . S
C2973 C2972 1.386 . S
C2973 C2977 1.393 . S
C2974 H2966 0.950 . S
C2974 C2972 1.391 . S
C2974 C2975 1.400 . S
C2975 C2974 1.400 . S
C2975 C2976 1.398 . S
C2975 C2981 1.491 . S
C2976 H2967 0.950 . S
C2976 C2975 1.398 . S
C2976 C2977 1.391 . S
C2977 H2965 0.950 . S
C2977 C2973 1.393 . S
C2977 C2976 1.391 . S
C2978 H2968 0.950 . S
C2978 C2979 1.386 . S
C2978 C2980 1.391 . S
C2979 C2978 1.386 . S
C2979 C2983 1.393 . S
C2980 H2969 0.950 . S
C2980 C2978 1.391 . S
C2980 C2981 1.400 . S
C2981 C2975 1.491 . S
C2981 C2980 1.400 . S
C2981 C2982 1.398 . S
C2982 H2970 0.950 . S
C2982 C2981 1.398 . S
C2982 C2983 1.391 . S
C2983 H2971 0.950 . S
C2983 C2979 1.393 . S
C2983 C2982 1.391 . S
H2984 C2992 0.950 . S
H2985 C2997 0.950 . S
H2986 C2994 0.950 . S
H2987 C2996 0.950 . S
H2988 C2998 0.950 . S
H2989 C3000 0.950 . S
H2990 C3002 0.950 . S
H2991 C3003 0.950 . S
C2992 H2984 0.950 . S
C2992 C2993 1.386 . S
C2992 C2994 1.391 . S
C2993 C2992 1.386 . S
C2993 C2997 1.393 . S
C2994 H2986 0.950 . S
C2994 C2992 1.391 . S
C2994 C2995 1.400 . S
C2995 C2994 1.400 . S
C2995 C2996 1.398 . S
C2995 C3001 1.491 . S
C2996 H2987 0.950 . S
C2996 C2995 1.398 . S
C2996 C2997 1.391 . S
C2997 H2985 0.950 . S
C2997 C2993 1.393 . S
C2997 C2996 1.391 . S
C2998 H2988 0.950 . S
C2998 C2999 1.386 . S
C2998 C3000 1.391 . S
C2999 C2998 1.386 . S
C2999 C3003 1.393 . S
C3000 H2989 0.950 . S
C3000 C2998 1.391 . S
C3000 C3001 1.400 . S
C3001 C2995 1.491 . S
C3001 C3000 1.400 . S
C3001 C3002 1.398 . S
C3002 H2990 0.950 . S
C3002 C3001 1.398 . S
C3002 C3003 1.391 . S
C3003 H2991 0.950 . S
C3003 C2999 1.393 . S
C3003 C3002 1.391 . S
H3004 C3012 0.950 . S
H3005 C3017 0.950 . S
H3006 C3014 0.950 . S
H3007 C3016 0.950 . S
H3008 C3018 0.950 . S
H3009 C3020 0.950 . S
H3010 C3022 0.950 . S
H3011 C3023 0.950 . S
C3012 H3004 0.950 . S
C3012 C3013 1.386 . S
C3012 C3014 1.391 . S
C3013 C3012 1.386 . S
C3013 C3017 1.393 . S
C3014 H3006 0.950 . S
C3014 C3012 1.391 . S
C3014 C3015 1.400 . S
C3015 C3014 1.400 . S
C3015 C3016 1.398 . S
C3015 C3021 1.491 . S
C3016 H3007 0.950 . S
C3016 C3015 1.398 . S
C3016 C3017 1.391 . S
C3017 H3005 0.950 . S
C3017 C3013 1.393 . S
C3017 C3016 1.391 . S
C3018 H3008 0.950 . S
C3018 C3019 1.386 . S
C3018 C3020 1.391 . S
C3019 C3018 1.386 . S
C3019 C3023 1.393 . S
C3020 H3009 0.950 . S
C3020 C3018 1.391 . S
C3020 C3021 1.400 . S
C3021 C3015 1.491 . S
C3021 C3020 1.400 . S
C3021 C3022 1.398 . S
C3022 H3010 0.950 . S
C3022 C3021 1.398 . S
C3022 C3023 1.391 . S
C3023 H3011 0.950 . S
C3023 C3019 1.393 . S
C3023 C3022 1.391 . S
H3024 C3032 0.950 . S
H3025 C3037 0.950 . S
H3026 C3034 0.950 . S
H3027 C3036 0.950 . S
H3028 C3038 0.950 . S
H3029 C3040 0.950 . S
H3030 C3042 0.950 . S
H3031 C3043 0.950 . S
C3032 H3024 0.950 . S
C3032 C3033 1.386 . S
C3032 C3034 1.391 . S
C3033 C3032 1.386 . S
C3033 C3037 1.393 . S
C3034 H3026 0.950 . S
C3034 C3032 1.391 . S
C3034 C3035 1.400 . S
C3035 C3034 1.400 . S
C3035 C3036 1.398 . S
C3035 C3041 1.491 . S
C3036 H3027 0.950 . S
C3036 C3035 1.398 . S
C3036 C3037 1.391 . S
C3037 H3025 0.950 . S
C3037 C3033 1.393 . S
C3037 C3036 1.391 . S
C3038 H3028 0.950 . S
C3038 C3039 1.386 . S
C3038 C3040 1.391 . S
C3039 C3038 1.386 . S
C3039 C3043 1.393 . S
C3040 H3029 0.950 . S
C3040 C3038 1.391 . S
C3040 C3041 1.400 . S
C3041 C3035 1.491 . S
C3041 C3040 1.400 . S
C3041 C3042 1.398 . S
C3042 H3030 0.950 . S
C3042 C3041 1.398 . S
C3042 C3043 1.391 . S
C3043 H3031 0.950 . S
C3043 C3039 1.393 . S
C3043 C3042 1.391 . S
H3044 C3052 0.950 . S
H3045 C3057 0.950 . S
H3046 C3054 0.950 . S
H3047 C3056 0.950 . S
H3048 C3058 0.950 . S
H3049 C3060 0.950 . S
H3050 C3062 0.950 . S
H3051 C3063 0.950 . S
C3052 H3044 0.950 . S
C3052 C3053 1.386 . S
C3052 C3054 1.391 1_565 S
C3053 C3052 1.386 . S
C3053 C3057 1.393 . S
C3054 H3046 0.950 . S
C3054 C3052 1.391 1_545 S
C3054 C3055 1.400 . S
C3055 C3054 1.400 . S
C3055 C3056 1.398 1_545 S
C3055 C3061 1.491 . S
C3056 H3047 0.950 . S
C3056 C3055 1.398 1_565 S
C3056 C3057 1.391 . S
C3057 H3045 0.950 . S
C3057 C3053 1.393 . S
C3057 C3056 1.391 . S
C3058 H3048 0.950 . S
C3058 C3059 1.386 . S
C3058 C3060 1.391 . S
C3059 C3058 1.386 . S
C3059 C3063 1.393 . S
C3060 H3049 0.950 . S
C3060 C3058 1.391 . S
C3060 C3061 1.400 . S
C3061 C3055 1.491 . S
C3061 C3060 1.400 . S
C3061 C3062 1.398 . S
C3062 H3050 0.950 . S
C3062 C3061 1.398 . S
C3062 C3063 1.391 . S
C3063 H3051 0.950 . S
C3063 C3059 1.393 . S
C3063 C3062 1.391 . S
H3064 C3072 0.950 . S
H3065 C3077 0.950 . S
H3066 C3074 0.950 . S
H3067 C3076 0.950 . S
H3068 C3078 0.950 . S
H3069 C3080 0.950 . S
H3070 C3082 0.950 . S
H3071 C3083 0.950 . S
C3072 H3064 0.950 . S
C3072 C3073 1.386 . S
C3072 C3074 1.391 . S
C3073 C3072 1.386 . S
C3073 C3077 1.393 . S
C3074 H3066 0.950 . S
C3074 C3072 1.391 . S
C3074 C3075 1.400 . S
C3075 C3074 1.400 . S
C3075 C3076 1.398 . S
C3075 C3081 1.491 . S
C3076 H3067 0.950 . S
C3076 C3075 1.398 . S
C3076 C3077 1.391 . S
C3077 H3065 0.950 . S
C3077 C3073 1.393 . S
C3077 C3076 1.391 . S
C3078 H3068 0.950 . S
C3078 C3079 1.386 . S
C3078 C3080 1.391 . S
C3079 C3078 1.386 . S
C3079 C3083 1.393 . S
C3080 H3069 0.950 . S
C3080 C3078 1.391 . S
C3080 C3081 1.400 . S
C3081 C3075 1.491 . S
C3081 C3080 1.400 . S
C3081 C3082 1.398 . S
C3082 H3070 0.950 . S
C3082 C3081 1.398 . S
C3082 C3083 1.391 . S
C3083 H3071 0.950 . S
C3083 C3079 1.393 . S
C3083 C3082 1.391 . S
H3084 C3092 0.950 . S
H3085 C3097 0.950 . S
H3086 C3094 0.950 . S
H3087 C3096 0.950 . S
H3088 C3098 0.950 . S
H3089 C3100 0.950 . S
H3090 C3102 0.950 . S
H3091 C3103 0.950 . S
C3092 H3084 0.950 . S
C3092 C3093 1.386 . S
C3092 C3094 1.391 . S
C3093 C3092 1.386 . S
C3093 C3097 1.393 . S
C3094 H3086 0.950 . S
C3094 C3092 1.391 . S
C3094 C3095 1.400 . S
C3095 C3094 1.400 . S
C3095 C3096 1.398 . S
C3095 C3101 1.491 . S
C3096 H3087 0.950 . S
C3096 C3095 1.398 . S
C3096 C3097 1.391 . S
C3097 H3085 0.950 . S
C3097 C3093 1.393 . S
C3097 C3096 1.391 . S
C3098 H3088 0.950 . S
C3098 C3099 1.386 . S
C3098 C3100 1.391 . S
C3099 C3098 1.386 . S
C3099 C3103 1.393 . S
C3100 H3089 0.950 . S
C3100 C3098 1.391 . S
C3100 C3101 1.400 . S
C3101 C3095 1.491 . S
C3101 C3100 1.400 . S
C3101 C3102 1.398 . S
C3102 H3090 0.950 . S
C3102 C3101 1.398 . S
C3102 C3103 1.391 . S
C3103 H3091 0.950 . S
C3103 C3099 1.393 . S
C3103 C3102 1.391 . S
H3104 C3112 0.950 . S
H3105 C3117 0.950 . S
H3106 C3114 0.950 . S
H3107 C3116 0.950 . S
H3108 C3118 0.950 . S
H3109 C3120 0.950 . S
H3110 C3122 0.950 . S
H3111 C3123 0.950 . S
C3112 H3104 0.950 . S
C3112 C3113 1.386 . S
C3112 C3114 1.391 . S
C3113 C3112 1.386 . S
C3113 C3117 1.393 . S
C3114 H3106 0.950 . S
C3114 C3112 1.391 . S
C3114 C3115 1.400 . S
C3115 C3114 1.400 . S
C3115 C3116 1.398 . S
C3115 C3121 1.491 . S
C3116 H3107 0.950 . S
C3116 C3115 1.398 . S
C3116 C3117 1.391 . S
C3117 H3105 0.950 . S
C3117 C3113 1.393 . S
C3117 C3116 1.391 . S
C3118 H3108 0.950 . S
C3118 C3119 1.386 . S
C3118 C3120 1.391 . S
C3119 C3118 1.386 . S
C3119 C3123 1.393 . S
C3120 H3109 0.950 . S
C3120 C3118 1.391 . S
C3120 C3121 1.400 . S
C3121 C3115 1.491 . S
C3121 C3120 1.400 . S
C3121 C3122 1.398 . S
C3122 H3110 0.950 . S
C3122 C3121 1.398 . S
C3122 C3123 1.391 . S
C3123 H3111 0.950 . S
C3123 C3119 1.393 . S
C3123 C3122 1.391 . S
H3124 C3132 0.950 . S
H3125 C3137 0.950 . S
H3126 C3134 0.950 . S
H3127 C3136 0.950 . S
H3128 C3138 0.950 . S
H3129 C3140 0.950 . S
H3130 C3142 0.950 . S
H3131 C3143 0.950 . S
C3132 H3124 0.950 . S
C3132 C3133 1.386 . S
C3132 C3134 1.391 1_565 S
C3133 C3132 1.386 . S
C3133 C3137 1.393 . S
C3134 H3126 0.950 . S
C3134 C3132 1.391 1_545 S
C3134 C3135 1.400 . S
C3135 C3134 1.400 . S
C3135 C3136 1.398 1_545 S
C3135 C3141 1.491 . S
C3136 H3127 0.950 . S
C3136 C3135 1.398 1_565 S
C3136 C3137 1.391 . S
C3137 H3125 0.950 . S
C3137 C3133 1.393 . S
C3137 C3136 1.391 . S
C3138 H3128 0.950 . S
C3138 C3139 1.386 . S
C3138 C3140 1.391 . S
C3139 C3138 1.386 . S
C3139 C3143 1.393 . S
C3140 H3129 0.950 . S
C3140 C3138 1.391 . S
C3140 C3141 1.400 . S
C3141 C3135 1.491 . S
C3141 C3140 1.400 . S
C3141 C3142 1.398 . S
C3142 H3130 0.950 . S
C3142 C3141 1.398 . S
C3142 C3143 1.391 . S
C3143 H3131 0.950 . S
C3143 C3139 1.393 . S
C3143 C3142 1.391 . S
H3144 C3152 0.950 . S
H3145 C3157 0.950 . S
H3146 C3154 0.950 . S
H3147 C3156 0.950 . S
H3148 C3158 0.950 . S
H3149 C3160 0.950 . S
H3150 C3162 0.950 . S
H3151 C3163 0.950 . S
C3152 H3144 0.950 . S
C3152 C3153 1.386 . S
C3152 C3154 1.391 . S
C3153 C3152 1.386 . S
C3153 C3157 1.393 . S
C3154 H3146 0.950 . S
C3154 C3152 1.391 . S
C3154 C3155 1.400 . S
C3155 C3154 1.400 . S
C3155 C3156 1.398 . S
C3155 C3161 1.491 . S
C3156 H3147 0.950 . S
C3156 C3155 1.398 . S
C3156 C3157 1.391 . S
C3157 H3145 0.950 . S
C3157 C3153 1.393 . S
C3157 C3156 1.391 . S
C3158 H3148 0.950 . S
C3158 C3159 1.386 . S
C3158 C3160 1.391 . S
C3159 C3158 1.386 . S
C3159 C3163 1.393 . S
C3160 H3149 0.950 . S
C3160 C3158 1.391 . S
C3160 C3161 1.400 . S
C3161 C3155 1.491 . S
C3161 C3160 1.400 . S
C3161 C3162 1.398 . S
C3162 H3150 0.950 . S
C3162 C3161 1.398 . S
C3162 C3163 1.391 . S
C3163 H3151 0.950 . S
C3163 C3159 1.393 . S
C3163 C3162 1.391 . S
H3164 C3172 0.950 . S
H3165 C3177 0.950 . S
H3166 C3174 0.950 . S
H3167 C3176 0.950 . S
H3168 C3178 0.950 . S
H3169 C3180 0.950 . S
H3170 C3182 0.950 . S
H3171 C3183 0.950 . S
C3172 H3164 0.950 . S
C3172 C3173 1.386 . S
C3172 C3174 1.391 . S
C3173 C3172 1.386 . S
C3173 C3177 1.393 . S
C3174 H3166 0.950 . S
C3174 C3172 1.391 . S
C3174 C3175 1.400 . S
C3175 C3174 1.400 . S
C3175 C3176 1.398 . S
C3175 C3181 1.491 . S
C3176 H3167 0.950 . S
C3176 C3175 1.398 . S
C3176 C3177 1.391 . S
C3177 H3165 0.950 . S
C3177 C3173 1.393 . S
C3177 C3176 1.391 . S
C3178 H3168 0.950 . S
C3178 C3179 1.386 . S
C3178 C3180 1.391 . S
C3179 C3178 1.386 . S
C3179 C3183 1.393 . S
C3180 H3169 0.950 . S
C3180 C3178 1.391 . S
C3180 C3181 1.400 . S
C3181 C3175 1.491 . S
C3181 C3180 1.400 . S
C3181 C3182 1.398 . S
C3182 H3170 0.950 . S
C3182 C3181 1.398 . S
C3182 C3183 1.391 . S
C3183 H3171 0.950 . S
C3183 C3179 1.393 . S
C3183 C3182 1.391 . S
H3184 C3192 0.950 . S
H3185 C3197 0.950 . S
H3186 C3194 0.950 . S
H3187 C3196 0.950 . S
H3188 C3198 0.950 . S
H3189 C3200 0.950 . S
H3190 C3202 0.950 . S
H3191 C3203 0.950 . S
C3192 H3184 0.950 . S
C3192 C3193 1.386 . S
C3192 C3194 1.391 . S
C3193 C3192 1.386 . S
C3193 C3197 1.393 . S
C3194 H3186 0.950 . S
C3194 C3192 1.391 . S
C3194 C3195 1.400 . S
C3195 C3194 1.400 . S
C3195 C3196 1.398 . S
C3195 C3201 1.491 . S
C3196 H3187 0.950 . S
C3196 C3195 1.398 . S
C3196 C3197 1.391 . S
C3197 H3185 0.950 . S
C3197 C3193 1.393 . S
C3197 C3196 1.391 . S
C3198 H3188 0.950 . S
C3198 C3199 1.386 . S
C3198 C3200 1.391 . S
C3199 C3198 1.386 . S
C3199 C3203 1.393 . S
C3200 H3189 0.950 . S
C3200 C3198 1.391 . S
C3200 C3201 1.400 . S
C3201 C3195 1.491 . S
C3201 C3200 1.400 . S
C3201 C3202 1.398 . S
C3202 H3190 0.950 . S
C3202 C3201 1.398 . S
C3202 C3203 1.391 . S
C3203 H3191 0.950 . S
C3203 C3199 1.393 . S
C3203 C3202 1.391 . S
H3204 C3212 0.950 . S
H3205 C3217 0.950 . S
H3206 C3214 0.950 . S
H3207 C3216 0.954 . S
H3208 C3218 0.950 . S
H3209 C3220 0.950 . S
H3210 C3222 0.950 . S
H3211 C3223 0.950 . S
C3212 H3204 0.950 . S
C3212 C3213 1.386 . S
C3212 C3214 1.391 . S
C3213 C3212 1.386 . S
C3213 C3217 1.393 . S
C3214 H3206 0.950 . S
C3214 C3212 1.391 . S
C3214 C3215 1.400 1_455 S
C3215 C3214 1.400 1_655 S
C3215 C3216 1.399 . S
C3215 C3221 1.491 . S
C3216 H3207 0.954 . S
C3216 C3215 1.399 . S
C3216 C3217 1.386 1_655 S
C3217 H3205 0.950 . S
C3217 C3213 1.393 . S
C3217 C3216 1.386 1_455 S
C3218 H3208 0.950 . S
C3218 C3219 1.386 . S
C3218 C3220 1.391 . S
C3219 C3218 1.386 . S
C3219 C3223 1.393 . S
C3220 H3209 0.950 . S
C3220 C3218 1.391 . S
C3220 C3221 1.400 . S
C3221 C3215 1.491 . S
C3221 C3220 1.400 . S
C3221 C3222 1.398 . S
C3222 H3210 0.950 . S
C3222 C3221 1.398 . S
C3222 C3223 1.391 . S
C3223 H3211 0.950 . S
C3223 C3219 1.393 . S
C3223 C3222 1.391 . S
H3224 C3232 0.950 . S
H3225 C3237 0.950 . S
H3226 C3234 0.950 . S
H3227 C3236 0.950 . S
H3228 C3238 0.950 . S
H3229 C3240 0.950 . S
H3230 C3242 0.950 . S
H3231 C3243 0.950 . S
C3232 H3224 0.950 . S
C3232 C3233 1.386 . S
C3232 C3234 1.391 . S
C3233 C3232 1.386 . S
C3233 C3237 1.393 . S
C3234 H3226 0.950 . S
C3234 C3232 1.391 . S
C3234 C3235 1.400 . S
C3235 C3234 1.400 . S
C3235 C3236 1.398 . S
C3235 C3241 1.491 . S
C3236 H3227 0.950 . S
C3236 C3235 1.398 . S
C3236 C3237 1.391 . S
C3237 H3225 0.950 . S
C3237 C3233 1.393 . S
C3237 C3236 1.391 . S
C3238 H3228 0.950 . S
C3238 C3239 1.386 . S
C3238 C3240 1.391 . S
C3239 C3238 1.386 . S
C3239 C3243 1.393 . S
C3240 H3229 0.950 . S
C3240 C3238 1.391 . S
C3240 C3241 1.400 . S
C3241 C3235 1.491 . S
C3241 C3240 1.400 . S
C3241 C3242 1.398 . S
C3242 H3230 0.950 . S
C3242 C3241 1.398 . S
C3242 C3243 1.391 . S
C3243 H3231 0.950 . S
C3243 C3239 1.393 . S
C3243 C3242 1.391 . S
H3244 C3252 0.950 . S
H3245 C3257 0.950 . S
H3246 C3254 0.950 . S
H3247 C3256 0.950 . S
H3248 C3258 0.950 . S
H3249 C3260 0.950 . S
H3250 C3262 0.950 . S
H3251 C3263 0.950 . S
C3252 H3244 0.950 . S
C3252 C3253 1.386 . S
C3252 C3254 1.391 . S
C3253 C3252 1.386 . S
C3253 C3257 1.393 . S
C3254 H3246 0.950 . S
C3254 C3252 1.391 . S
C3254 C3255 1.400 . S
C3255 C3254 1.400 . S
C3255 C3256 1.398 . S
C3255 C3261 1.491 . S
C3256 H3247 0.950 . S
C3256 C3255 1.398 . S
C3256 C3257 1.391 . S
C3257 H3245 0.950 . S
C3257 C3253 1.393 . S
C3257 C3256 1.391 . S
C3258 H3248 0.950 . S
C3258 C3259 1.386 . S
C3258 C3260 1.391 . S
C3259 C3258 1.386 . S
C3259 C3263 1.393 . S
C3260 H3249 0.950 . S
C3260 C3258 1.391 . S
C3260 C3261 1.400 1_655 S
C3261 C3255 1.491 . S
C3261 C3260 1.400 1_455 S
C3261 C3262 1.398 . S
C3262 H3250 0.950 . S
C3262 C3261 1.398 . S
C3262 C3263 1.391 1_455 S
C3263 H3251 0.950 . S
C3263 C3259 1.393 . S
C3263 C3262 1.391 1_655 S
H3264 C3272 0.950 . S
H3265 C3277 0.950 . S
H3266 C3274 0.950 . S
H3267 C3276 0.950 . S
H3268 C3278 0.950 . S
H3269 C3280 0.950 . S
H3270 C3282 0.950 . S
H3271 C3283 0.950 . S
C3272 H3264 0.950 . S
C3272 C3273 1.386 . S
C3272 C3274 1.391 . S
C3273 C3272 1.386 . S
C3273 C3277 1.393 . S
C3274 H3266 0.950 . S
C3274 C3272 1.391 . S
C3274 C3275 1.400 . S
C3275 C3274 1.400 . S
C3275 C3276 1.398 . S
C3275 C3281 1.491 . S
C3276 H3267 0.950 . S
C3276 C3275 1.398 . S
C3276 C3277 1.391 . S
C3277 H3265 0.950 . S
C3277 C3273 1.393 . S
C3277 C3276 1.391 . S
C3278 H3268 0.950 . S
C3278 C3279 1.386 . S
C3278 C3280 1.391 . S
C3279 C3278 1.386 . S
C3279 C3283 1.393 . S
C3280 H3269 0.950 . S
C3280 C3278 1.391 . S
C3280 C3281 1.400 . S
C3281 C3275 1.491 . S
C3281 C3280 1.400 . S
C3281 C3282 1.398 . S
C3282 H3270 0.950 . S
C3282 C3281 1.398 . S
C3282 C3283 1.391 . S
C3283 H3271 0.950 . S
C3283 C3279 1.393 . S
C3283 C3282 1.391 . S
H3284 C3292 0.950 . S
H3285 C3297 0.950 . S
H3286 C3294 0.950 . S
H3287 C3296 0.950 . S
H3288 C3298 0.950 . S
H3289 C3300 0.950 . S
H3290 C3302 0.950 . S
H3291 C3303 0.950 . S
C3292 H3284 0.950 . S
C3292 C3293 1.386 . S
C3292 C3294 1.391 . S
C3293 C3292 1.386 . S
C3293 C3297 1.393 . S
C3294 H3286 0.950 . S
C3294 C3292 1.391 . S
C3294 C3295 1.400 . S
C3295 C3294 1.400 . S
C3295 C3296 1.398 . S
C3295 C3301 1.491 . S
C3296 H3287 0.950 . S
C3296 C3295 1.398 . S
C3296 C3297 1.391 . S
C3297 H3285 0.950 . S
C3297 C3293 1.393 . S
C3297 C3296 1.391 . S
C3298 H3288 0.950 . S
C3298 C3299 1.386 . S
C3298 C3300 1.391 . S
C3299 C3298 1.386 . S
C3299 C3303 1.393 . S
C3300 H3289 0.950 . S
C3300 C3298 1.391 . S
C3300 C3301 1.400 . S
C3301 C3295 1.491 . S
C3301 C3300 1.400 . S
C3301 C3302 1.398 . S
C3302 H3290 0.950 . S
C3302 C3301 1.398 . S
C3302 C3303 1.391 . S
C3303 H3291 0.950 . S
C3303 C3299 1.393 . S
C3303 C3302 1.391 . S
H3304 C3312 0.950 . S
H3305 C3317 0.950 . S
H3306 C3314 0.950 . S
H3307 C3316 0.950 . S
H3308 C3318 0.950 . S
H3309 C3320 0.950 . S
H3310 C3322 0.950 . S
H3311 C3323 0.950 . S
C3312 H3304 0.950 . S
C3312 C3313 1.386 . S
C3312 C3314 1.391 . S
C3313 C3312 1.386 . S
C3313 C3317 1.393 . S
C3314 H3306 0.950 . S
C3314 C3312 1.391 . S
C3314 C3315 1.400 . S
C3315 C3314 1.400 . S
C3315 C3316 1.398 . S
C3315 C3321 1.491 . S
C3316 H3307 0.950 . S
C3316 C3315 1.398 . S
C3316 C3317 1.391 . S
C3317 H3305 0.950 . S
C3317 C3313 1.393 . S
C3317 C3316 1.391 . S
C3318 H3308 0.950 . S
C3318 C3319 1.386 . S
C3318 C3320 1.391 . S
C3319 C3318 1.386 . S
C3319 C3323 1.393 . S
C3320 H3309 0.950 . S
C3320 C3318 1.391 . S
C3320 C3321 1.400 . S
C3321 C3315 1.491 . S
C3321 C3320 1.400 . S
C3321 C3322 1.398 . S
C3322 H3310 0.950 . S
C3322 C3321 1.398 . S
C3322 C3323 1.391 . S
C3323 H3311 0.950 . S
C3323 C3319 1.393 . S
C3323 C3322 1.391 . S
H3324 C3332 0.950 . S
H3325 C3337 0.950 . S
H3326 C3334 0.950 . S
H3327 C3336 0.950 . S
H3328 C3338 0.950 . S
H3329 C3340 0.950 . S
H3330 C3342 0.950 . S
H3331 C3343 0.950 . S
C3332 H3324 0.950 . S
C3332 C3333 1.386 . S
C3332 C3334 1.391 . S
C3333 C3332 1.386 . S
C3333 C3337 1.393 . S
C3334 H3326 0.950 . S
C3334 C3332 1.391 . S
C3334 C3335 1.400 . S
C3335 C3334 1.400 . S
C3335 C3336 1.398 . S
C3335 C3341 1.491 . S
C3336 H3327 0.950 . S
C3336 C3335 1.398 . S
C3336 C3337 1.391 . S
C3337 H3325 0.950 . S
C3337 C3333 1.393 . S
C3337 C3336 1.391 . S
C3338 H3328 0.950 . S
C3338 C3339 1.386 . S
C3338 C3340 1.391 . S
C3339 C3338 1.386 . S
C3339 C3343 1.393 . S
C3340 H3329 0.950 . S
C3340 C3338 1.391 . S
C3340 C3341 1.400 . S
C3341 C3335 1.491 . S
C3341 C3340 1.400 . S
C3341 C3342 1.398 . S
C3342 H3330 0.950 . S
C3342 C3341 1.398 . S
C3342 C3343 1.391 . S
C3343 H3331 0.950 . S
C3343 C3339 1.393 . S
C3343 C3342 1.391 . S
H3344 C3352 0.950 . S
H3345 C3357 0.950 . S
H3346 C3354 0.950 . S
H3347 C3356 0.950 . S
H3348 C3358 0.950 . S
H3349 C3360 0.950 . S
H3350 C3362 0.950 . S
H3351 C3363 0.950 . S
C3352 H3344 0.950 . S
C3352 C3353 1.386 . S
C3352 C3354 1.391 . S
C3353 C3352 1.386 . S
C3353 C3357 1.393 . S
C3354 H3346 0.950 . S
C3354 C3352 1.391 . S
C3354 C3355 1.400 . S
C3355 C3354 1.400 . S
C3355 C3356 1.398 . S
C3355 C3361 1.491 . S
C3356 H3347 0.950 . S
C3356 C3355 1.398 . S
C3356 C3357 1.391 . S
C3357 H3345 0.950 . S
C3357 C3353 1.393 . S
C3357 C3356 1.391 . S
C3358 H3348 0.950 . S
C3358 C3359 1.386 . S
C3358 C3360 1.391 . S
C3359 C3358 1.386 . S
C3359 C3363 1.393 . S
C3360 H3349 0.950 . S
C3360 C3358 1.391 . S
C3360 C3361 1.400 . S
C3361 C3355 1.491 . S
C3361 C3360 1.400 . S
C3361 C3362 1.398 . S
C3362 H3350 0.950 . S
C3362 C3361 1.398 . S
C3362 C3363 1.391 . S
C3363 H3351 0.950 . S
C3363 C3359 1.393 . S
C3363 C3362 1.391 . S
H3364 C3372 0.950 . S
H3365 C3377 0.950 . S
H3366 C3374 0.950 . S
H3367 C3376 0.950 . S
H3368 C3378 0.950 . S
H3369 C3380 0.950 . S
H3370 C3382 0.950 . S
H3371 C3383 0.950 . S
C3372 H3364 0.950 . S
C3372 C3373 1.386 . S
C3372 C3374 1.391 . S
C3373 C3372 1.386 . S
C3373 C3377 1.393 . S
C3374 H3366 0.950 . S
C3374 C3372 1.391 . S
C3374 C3375 1.400 . S
C3375 C3374 1.400 . S
C3375 C3376 1.398 . S
C3375 C3381 1.491 . S
C3376 H3367 0.950 . S
C3376 C3375 1.398 . S
C3376 C3377 1.391 . S
C3377 H3365 0.950 . S
C3377 C3373 1.393 . S
C3377 C3376 1.391 . S
C3378 H3368 0.950 . S
C3378 C3379 1.386 . S
C3378 C3380 1.391 . S
C3379 C3378 1.386 . S
C3379 C3383 1.393 . S
C3380 H3369 0.950 . S
C3380 C3378 1.391 . S
C3380 C3381 1.400 . S
C3381 C3375 1.491 . S
C3381 C3380 1.400 . S
C3381 C3382 1.398 . S
C3382 H3370 0.950 . S
C3382 C3381 1.398 . S
C3382 C3383 1.391 . S
C3383 H3371 0.950 . S
C3383 C3379 1.393 . S
C3383 C3382 1.391 . S
H3384 C3392 0.950 . S
H3385 C3397 0.950 . S
H3386 C3394 0.950 . S
H3387 C3396 0.950 . S
H3388 C3398 0.950 . S
H3389 C3400 0.950 . S
H3390 C3402 0.950 . S
H3391 C3403 0.950 . S
C3392 H3384 0.950 . S
C3392 C3393 1.386 . S
C3392 C3394 1.391 . S
C3393 C3392 1.386 . S
C3393 C3397 1.393 . S
C3394 H3386 0.950 . S
C3394 C3392 1.391 . S
C3394 C3395 1.400 . S
C3395 C3394 1.400 . S
C3395 C3396 1.398 . S
C3395 C3401 1.491 . S
C3396 H3387 0.950 . S
C3396 C3395 1.398 . S
C3396 C3397 1.391 . S
C3397 H3385 0.950 . S
C3397 C3393 1.393 . S
C3397 C3396 1.391 . S
C3398 H3388 0.950 . S
C3398 C3399 1.386 . S
C3398 C3400 1.391 . S
C3399 C3398 1.386 . S
C3399 C3403 1.393 . S
C3400 H3389 0.950 . S
C3400 C3398 1.391 . S
C3400 C3401 1.400 . S
C3401 C3395 1.491 . S
C3401 C3400 1.400 . S
C3401 C3402 1.398 . S
C3402 H3390 0.950 . S
C3402 C3401 1.398 . S
C3402 C3403 1.391 . S
C3403 H3391 0.950 . S
C3403 C3399 1.393 . S
C3403 C3402 1.391 . S
H3404 C3412 0.950 . S
H3405 C3417 0.950 . S
H3406 C3414 0.950 . S
H3407 C3416 0.950 . S
H3408 C3418 0.950 . S
H3409 C3420 0.950 . S
H3410 C3422 0.950 . S
H3411 C3423 0.950 . S
C3412 H3404 0.950 . S
C3412 C3413 1.386 . S
C3412 C3414 1.391 . S
C3413 C3412 1.386 . S
C3413 C3417 1.393 . S
C3414 H3406 0.950 . S
C3414 C3412 1.391 . S
C3414 C3415 1.400 . S
C3415 C3414 1.400 . S
C3415 C3416 1.398 . S
C3415 C3421 1.491 . S
C3416 H3407 0.950 . S
C3416 C3415 1.398 . S
C3416 C3417 1.391 . S
C3417 H3405 0.950 . S
C3417 C3413 1.393 . S
C3417 C3416 1.391 . S
C3418 H3408 0.950 . S
C3418 C3419 1.386 . S
C3418 C3420 1.391 . S
C3419 C3418 1.386 . S
C3419 C3423 1.393 . S
C3420 H3409 0.950 . S
C3420 C3418 1.391 . S
C3420 C3421 1.400 . S
C3421 C3415 1.491 . S
C3421 C3420 1.400 . S
C3421 C3422 1.398 . S
C3422 H3410 0.950 . S
C3422 C3421 1.398 . S
C3422 C3423 1.391 . S
C3423 H3411 0.950 . S
C3423 C3419 1.393 . S
C3423 C3422 1.391 . S
H3424 C3432 0.950 . S
H3425 C3437 0.950 . S
H3426 C3434 0.950 . S
H3427 C3436 0.950 . S
H3428 C3438 0.950 . S
H3429 C3440 0.947 1_556 S
H3430 C3442 0.950 . S
H3431 C3443 0.950 . S
C3432 H3424 0.950 . S
C3432 C3433 1.386 . S
C3432 C3434 1.391 . S
C3433 C3432 1.386 . S
C3433 C3437 1.393 . S
C3434 H3426 0.950 . S
C3434 C3432 1.391 . S
C3434 C3435 1.400 . S
C3435 C3434 1.400 . S
C3435 C3436 1.398 . S
C3435 C3441 1.491 . S
C3436 H3427 0.950 . S
C3436 C3435 1.398 . S
C3436 C3437 1.391 . S
C3437 H3425 0.950 . S
C3437 C3433 1.393 . S
C3437 C3436 1.391 . S
C3438 H3428 0.950 . S
C3438 C3439 1.386 . S
C3438 C3440 1.394 . S
C3439 C3438 1.386 . S
C3439 C3443 1.393 . S
C3440 H3429 0.947 1_554 S
C3440 C3438 1.394 . S
C3440 C3441 1.400 1_554 S
C3441 C3435 1.491 . S
C3441 C3440 1.400 1_556 S
C3441 C3442 1.398 1_556 S
C3442 H3430 0.950 . S
C3442 C3441 1.398 1_554 S
C3442 C3443 1.391 . S
C3443 H3431 0.950 . S
C3443 C3439 1.393 . S
C3443 C3442 1.391 . S
H3444 C3452 0.950 . S
H3445 C3457 0.950 . S
H3446 C3454 0.950 . S
H3447 C3456 0.950 . S
H3448 C3458 0.950 . S
H3449 C3460 0.950 . S
H3450 C3462 0.950 . S
H3451 C3463 0.950 . S
C3452 H3444 0.950 . S
C3452 C3453 1.386 . S
C3452 C3454 1.391 . S
C3453 C3452 1.386 . S
C3453 C3457 1.393 . S
C3454 H3446 0.950 . S
C3454 C3452 1.391 . S
C3454 C3455 1.400 . S
C3455 C3454 1.400 . S
C3455 C3456 1.398 . S
C3455 C3461 1.491 . S
C3456 H3447 0.950 . S
C3456 C3455 1.398 . S
C3456 C3457 1.391 . S
C3457 H3445 0.950 . S
C3457 C3453 1.393 . S
C3457 C3456 1.391 . S
C3458 H3448 0.950 . S
C3458 C3459 1.386 . S
C3458 C3460 1.391 . S
C3459 C3458 1.386 . S
C3459 C3463 1.393 . S
C3460 H3449 0.950 . S
C3460 C3458 1.391 . S
C3460 C3461 1.400 . S
C3461 C3455 1.491 . S
C3461 C3460 1.400 . S
C3461 C3462 1.398 . S
C3462 H3450 0.950 . S
C3462 C3461 1.398 . S
C3462 C3463 1.391 . S
C3463 H3451 0.950 . S
C3463 C3459 1.393 . S
C3463 C3462 1.391 . S
H3464 C3472 0.950 . S
H3465 C3477 0.950 . S
H3466 C3474 0.950 . S
H3467 C3476 0.950 . S
H3468 C3478 0.950 . S
H3469 C3480 0.950 1_554 S
H3470 C3482 0.950 . S
H3471 C3483 0.950 . S
C3472 H3464 0.950 . S
C3472 C3473 1.386 . S
C3472 C3474 1.391 . S
C3473 C3472 1.386 . S
C3473 C3477 1.393 . S
C3474 H3466 0.950 . S
C3474 C3472 1.391 . S
C3474 C3475 1.400 . S
C3475 C3474 1.400 . S
C3475 C3476 1.398 . S
C3475 C3481 1.491 . S
C3476 H3467 0.950 . S
C3476 C3475 1.398 . S
C3476 C3477 1.391 . S
C3477 H3465 0.950 . S
C3477 C3473 1.393 . S
C3477 C3476 1.391 . S
C3478 H3468 0.950 . S
C3478 C3479 1.386 . S
C3478 C3480 1.391 . S
C3479 C3478 1.386 . S
C3479 C3483 1.393 . S
C3480 H3469 0.950 1_556 S
C3480 C3478 1.391 . S
C3480 C3481 1.400 1_556 S
C3481 C3475 1.491 . S
C3481 C3480 1.400 1_554 S
C3481 C3482 1.398 1_554 S
C3482 H3470 0.950 . S
C3482 C3481 1.398 1_556 S
C3482 C3483 1.391 . S
C3483 H3471 0.950 . S
C3483 C3479 1.393 . S
C3483 C3482 1.391 . S
H3484 C3492 0.950 . S
H3485 C3497 0.950 . S
H3486 C3494 0.950 . S
H3487 C3496 0.950 1_554 S
H3488 C3498 0.950 . S
H3489 C3500 0.950 . S
H3490 C3502 0.950 . S
H3491 C3503 0.950 . S
C3492 H3484 0.950 . S
C3492 C3493 1.386 . S
C3492 C3494 1.391 . S
C3493 C3492 1.386 . S
C3493 C3497 1.393 . S
C3494 H3486 0.950 . S
C3494 C3492 1.391 . S
C3494 C3495 1.400 1_556 S
C3495 C3494 1.400 1_554 S
C3495 C3496 1.398 1_554 S
C3495 C3501 1.491 . S
C3496 H3487 0.950 1_556 S
C3496 C3495 1.398 1_556 S
C3496 C3497 1.391 . S
C3497 H3485 0.950 . S
C3497 C3493 1.393 . S
C3497 C3496 1.391 . S
C3498 H3488 0.950 . S
C3498 C3499 1.386 . S
C3498 C3500 1.391 . S
C3499 C3498 1.386 . S
C3499 C3503 1.393 . S
C3500 H3489 0.950 . S
C3500 C3498 1.391 . S
C3500 C3501 1.400 . S
C3501 C3495 1.491 . S
C3501 C3500 1.400 . S
C3501 C3502 1.398 . S
C3502 H3490 0.950 . S
C3502 C3501 1.398 . S
C3502 C3503 1.391 . S
C3503 H3491 0.950 . S
C3503 C3499 1.393 . S
C3503 C3502 1.391 . S
H3504 C3512 0.950 . S
H3505 C3517 0.950 . S
H3506 C3514 0.950 . S
H3507 C3516 0.950 . S
H3508 C3518 0.950 . S
H3509 C3520 0.950 . S
H3510 C3522 0.950 . S
H3511 C3523 0.950 . S
C3512 H3504 0.950 . S
C3512 C3513 1.386 . S
C3512 C3514 1.391 . S
C3513 C3512 1.386 . S
C3513 C3517 1.393 . S
C3514 H3506 0.950 . S
C3514 C3512 1.391 . S
C3514 C3515 1.400 . S
C3515 C3514 1.400 . S
C3515 C3516 1.398 . S
C3515 C3521 1.491 . S
C3516 H3507 0.950 . S
C3516 C3515 1.398 . S
C3516 C3517 1.391 . S
C3517 H3505 0.950 . S
C3517 C3513 1.393 . S
C3517 C3516 1.391 . S
C3518 H3508 0.950 . S
C3518 C3519 1.386 . S
C3518 C3520 1.391 . S
C3519 C3518 1.386 . S
C3519 C3523 1.393 . S
C3520 H3509 0.950 . S
C3520 C3518 1.391 . S
C3520 C3521 1.400 . S
C3521 C3515 1.491 . S
C3521 C3520 1.400 . S
C3521 C3522 1.398 . S
C3522 H3510 0.950 . S
C3522 C3521 1.398 . S
C3522 C3523 1.391 . S
C3523 H3511 0.950 . S
C3523 C3519 1.393 . S
C3523 C3522 1.391 . S
H3524 C3532 0.950 . S
H3525 C3537 0.950 . S
H3526 C3534 0.950 . S
H3527 C3536 0.950 . S
H3528 C3538 0.950 . S
H3529 C3540 0.950 . S
H3530 C3542 0.950 . S
H3531 C3543 0.950 . S
C3532 H3524 0.950 . S
C3532 C3533 1.386 . S
C3532 C3534 1.391 . S
C3533 C3532 1.386 . S
C3533 C3537 1.393 . S
C3534 H3526 0.950 . S
C3534 C3532 1.391 . S
C3534 C3535 1.400 . S
C3535 C3534 1.400 . S
C3535 C3536 1.398 . S
C3535 C3541 1.491 . S
C3536 H3527 0.950 . S
C3536 C3535 1.398 . S
C3536 C3537 1.391 . S
C3537 H3525 0.950 . S
C3537 C3533 1.393 . S
C3537 C3536 1.391 . S
C3538 H3528 0.950 . S
C3538 C3539 1.386 . S
C3538 C3540 1.391 . S
C3539 C3538 1.386 . S
C3539 C3543 1.393 . S
C3540 H3529 0.950 . S
C3540 C3538 1.391 . S
C3540 C3541 1.400 . S
C3541 C3535 1.491 . S
C3541 C3540 1.400 . S
C3541 C3542 1.398 . S
C3542 H3530 0.950 . S
C3542 C3541 1.398 . S
C3542 C3543 1.391 . S
C3543 H3531 0.950 . S
C3543 C3539 1.393 . S
C3543 C3542 1.391 . S
H3544 C3552 0.950 . S
H3545 C3557 0.950 . S
H3546 C3554 0.950 . S
H3547 C3556 0.950 . S
H3548 C3558 0.950 . S
H3549 C3560 0.950 . S
H3550 C3562 0.950 . S
H3551 C3563 0.950 . S
C3552 H3544 0.950 . S
C3552 C3553 1.386 . S
C3552 C3554 1.391 . S
C3553 C3552 1.386 . S
C3553 C3557 1.393 . S
C3554 H3546 0.950 . S
C3554 C3552 1.391 . S
C3554 C3555 1.400 . S
C3555 C3554 1.400 . S
C3555 C3556 1.398 . S
C3555 C3561 1.491 . S
C3556 H3547 0.950 . S
C3556 C3555 1.398 . S
C3556 C3557 1.391 . S
C3557 H3545 0.950 . S
C3557 C3553 1.393 . S
C3557 C3556 1.391 . S
C3558 H3548 0.950 . S
C3558 C3559 1.386 . S
C3558 C3560 1.391 . S
C3559 C3558 1.386 . S
C3559 C3563 1.393 . S
C3560 H3549 0.950 . S
C3560 C3558 1.391 . S
C3560 C3561 1.400 . S
C3561 C3555 1.491 . S
C3561 C3560 1.400 . S
C3561 C3562 1.398 . S
C3562 H3550 0.950 . S
C3562 C3561 1.398 . S
C3562 C3563 1.391 . S
C3563 H3551 0.950 . S
C3563 C3559 1.393 . S
C3563 C3562 1.391 . S
H3564 C3572 0.950 . S
H3565 C3577 0.950 . S
H3566 C3574 0.950 . S
H3567 C3576 0.963 . S
H3568 C3578 0.950 . S
H3569 C3580 0.950 . S
H3570 C3582 0.963 . S
H3571 C3583 0.950 . S
C3572 H3564 0.950 . S
C3572 C3573 1.386 . S
C3572 C3574 1.391 . S
C3573 C3572 1.386 . S
C3573 C3577 1.393 . S
C3574 H3566 0.950 . S
C3574 C3572 1.391 . S
C3574 C3575 1.400 . S
C3575 C3574 1.400 . S
C3575 C3576 1.398 . S
C3575 C3581 1.491 1_545 S
C3576 H3567 0.963 . S
C3576 C3575 1.398 . S
C3576 C3577 1.391 . S
C3577 H3565 0.950 . S
C3577 C3573 1.393 . S
C3577 C3576 1.391 . S
C3578 H3568 0.950 . S
C3578 C3579 1.386 . S
C3578 C3580 1.391 . S
C3579 C3578 1.386 . S
C3579 C3583 1.393 . S
C3580 H3569 0.950 . S
C3580 C3578 1.391 . S
C3580 C3581 1.400 . S
C3581 C3575 1.491 1_565 S
C3581 C3580 1.400 . S
C3581 C3582 1.398 . S
C3582 H3570 0.963 . S
C3582 C3581 1.398 . S
C3582 C3583 1.391 . S
C3583 H3571 0.950 . S
C3583 C3579 1.393 . S
C3583 C3582 1.391 . S
H3584 C3592 0.950 . S
H3585 C3597 0.950 . S
H3586 C3594 0.950 1_556 S
H3587 C3596 0.950 . S
H3588 C3598 0.950 . S
H3589 C3600 0.950 1_554 S
H3590 C3602 0.950 . S
H3591 C3603 0.950 . S
C3592 H3584 0.950 . S
C3592 C3593 1.386 . S
C3592 C3594 1.391 . S
C3593 C3592 1.386 . S
C3593 C3597 1.393 . S
C3594 H3586 0.950 1_554 S
C3594 C3592 1.391 . S
C3594 C3595 1.400 . S
C3595 C3594 1.400 . S
C3595 C3596 1.398 . S
C3595 C3601 1.491 1_554 S
C3596 H3587 0.950 . S
C3596 C3595 1.398 . S
C3596 C3597 1.391 . S
C3597 H3585 0.950 . S
C3597 C3593 1.393 . S
C3597 C3596 1.391 . S
C3598 H3588 0.950 . S
C3598 C3599 1.386 . S
C3598 C3600 1.391 . S
C3599 C3598 1.386 . S
C3599 C3603 1.393 . S
C3600 H3589 0.950 1_556 S
C3600 C3598 1.391 . S
C3600 C3601 1.400 . S
C3601 C3595 1.491 1_556 S
C3601 C3600 1.400 . S
C3601 C3602 1.398 . S
C3602 H3590 0.950 . S
C3602 C3601 1.398 . S
C3602 C3603 1.391 . S
C3603 H3591 0.950 . S
C3603 C3599 1.393 . S
C3603 C3602 1.391 . S
H3604 C3612 0.950 . S
H3605 C3617 0.950 . S
H3606 C3614 0.950 . S
H3607 C3616 0.950 . S
H3608 C3618 0.950 . S
H3609 C3620 0.950 . S
H3610 C3622 0.950 . S
H3611 C3623 0.950 . S
C3612 H3604 0.950 . S
C3612 C3613 1.386 . S
C3612 C3614 1.391 . S
C3613 C3612 1.386 . S
C3613 C3617 1.393 . S
C3614 H3606 0.950 . S
C3614 C3612 1.391 . S
C3614 C3615 1.400 . S
C3615 C3614 1.400 . S
C3615 C3616 1.398 . S
C3615 C3621 1.491 . S
C3616 H3607 0.950 . S
C3616 C3615 1.398 . S
C3616 C3617 1.391 . S
C3617 H3605 0.950 . S
C3617 C3613 1.393 . S
C3617 C3616 1.391 . S
C3618 H3608 0.950 . S
C3618 C3619 1.386 . S
C3618 C3620 1.391 . S
C3619 C3618 1.386 . S
C3619 C3623 1.393 . S
C3620 H3609 0.950 . S
C3620 C3618 1.391 . S
C3620 C3621 1.400 . S
C3621 C3615 1.491 . S
C3621 C3620 1.400 . S
C3621 C3622 1.398 . S
C3622 H3610 0.950 . S
C3622 C3621 1.398 . S
C3622 C3623 1.391 . S
C3623 H3611 0.950 . S
C3623 C3619 1.393 . S
C3623 C3622 1.391 . S
H3624 C3632 0.950 . S
H3625 C3637 0.950 . S
H3626 C3634 0.950 1_554 S
H3627 C3636 0.950 . S
H3628 C3638 0.950 . S
H3629 C3640 0.950 1_556 S
H3630 C3642 0.950 . S
H3631 C3643 0.950 . S
C3632 H3624 0.950 . S
C3632 C3633 1.386 . S
C3632 C3634 1.391 . S
C3633 C3632 1.386 . S
C3633 C3637 1.393 . S
C3634 H3626 0.950 1_556 S
C3634 C3632 1.391 . S
C3634 C3635 1.400 . S
C3635 C3634 1.400 . S
C3635 C3636 1.398 . S
C3635 C3641 1.491 1_556 S
C3636 H3627 0.950 . S
C3636 C3635 1.398 . S
C3636 C3637 1.391 . S
C3637 H3625 0.950 . S
C3637 C3633 1.393 . S
C3637 C3636 1.391 . S
C3638 H3628 0.950 . S
C3638 C3639 1.386 . S
C3638 C3640 1.391 . S
C3639 C3638 1.386 . S
C3639 C3643 1.393 . S
C3640 H3629 0.950 1_554 S
C3640 C3638 1.391 . S
C3640 C3641 1.400 . S
C3641 C3635 1.491 1_554 S
C3641 C3640 1.400 . S
C3641 C3642 1.398 . S
C3642 H3630 0.950 . S
C3642 C3641 1.398 . S
C3642 C3643 1.391 . S
C3643 H3631 0.950 . S
C3643 C3639 1.393 . S
C3643 C3642 1.391 . S
H3644 C3652 0.950 . S
H3645 C3657 0.950 . S
H3646 C3654 0.950 . S
H3647 C3656 0.950 . S
H3648 C3658 0.950 . S
H3649 C3660 0.950 . S
H3650 C3662 0.950 . S
H3651 C3663 0.950 . S
C3652 H3644 0.950 . S
C3652 C3653 1.386 . S
C3652 C3654 1.391 . S
C3653 C3652 1.386 . S
C3653 C3657 1.393 . S
C3654 H3646 0.950 . S
C3654 C3652 1.391 . S
C3654 C3655 1.400 . S
C3655 C3654 1.400 . S
C3655 C3656 1.398 . S
C3655 C3661 1.491 1_545 S
C3656 H3647 0.950 . S
C3656 C3655 1.398 . S
C3656 C3657 1.391 . S
C3657 H3645 0.950 . S
C3657 C3653 1.393 . S
C3657 C3656 1.391 . S
C3658 H3648 0.950 . S
C3658 C3659 1.386 . S
C3658 C3660 1.391 . S
C3659 C3658 1.386 . S
C3659 C3663 1.393 . S
C3660 H3649 0.950 . S
C3660 C3658 1.391 . S
C3660 C3661 1.400 . S
C3661 C3655 1.491 1_565 S
C3661 C3660 1.400 . S
C3661 C3662 1.398 . S
C3662 H3650 0.950 . S
C3662 C3661 1.398 . S
C3662 C3663 1.391 . S
C3663 H3651 0.950 . S
C3663 C3659 1.393 . S
C3663 C3662 1.391 . S
H3664 C3672 0.950 . S
H3665 C3677 0.950 . S
H3666 C3674 0.950 . S
H3667 C3676 0.950 . S
H3668 C3678 0.950 . S
H3669 C3680 0.950 . S
H3670 C3682 0.950 . S
H3671 C3683 0.950 . S
C3672 H3664 0.950 . S
C3672 C3673 1.386 . S
C3672 C3674 1.391 . S
C3673 C3672 1.386 . S
C3673 C3677 1.393 . S
C3674 H3666 0.950 . S
C3674 C3672 1.391 . S
C3674 C3675 1.400 . S
C3675 C3674 1.400 . S
C3675 C3676 1.398 . S
C3675 C3681 1.491 . S
C3676 H3667 0.950 . S
C3676 C3675 1.398 . S
C3676 C3677 1.391 . S
C3677 H3665 0.950 . S
C3677 C3673 1.393 . S
C3677 C3676 1.391 . S
C3678 H3668 0.950 . S
C3678 C3679 1.386 . S
C3678 C3680 1.391 . S
C3679 C3678 1.386 . S
C3679 C3683 1.393 . S
C3680 H3669 0.950 . S
C3680 C3678 1.391 . S
C3680 C3681 1.400 . S
C3681 C3675 1.491 . S
C3681 C3680 1.400 . S
C3681 C3682 1.398 . S
C3682 H3670 0.950 . S
C3682 C3681 1.398 . S
C3682 C3683 1.391 . S
C3683 H3671 0.950 . S
C3683 C3679 1.393 . S
C3683 C3682 1.391 . S
H3684 C3692 0.950 . S
H3685 C3697 0.950 . S
H3686 C3694 0.950 . S
H3687 C3696 0.950 . S
H3688 C3698 0.950 . S
H3689 C3700 0.950 . S
H3690 C3702 0.950 . S
H3691 C3703 0.950 . S
C3692 H3684 0.950 . S
C3692 C3693 1.386 . S
C3692 C3694 1.391 . S
C3693 C3692 1.386 . S
C3693 C3697 1.393 . S
C3694 H3686 0.950 . S
C3694 C3692 1.391 . S
C3694 C3695 1.400 . S
C3695 C3694 1.400 . S
C3695 C3696 1.398 . S
C3695 C3701 1.491 . S
C3696 H3687 0.950 . S
C3696 C3695 1.398 . S
C3696 C3697 1.391 . S
C3697 H3685 0.950 . S
C3697 C3693 1.393 . S
C3697 C3696 1.391 . S
C3698 H3688 0.950 . S
C3698 C3699 1.386 . S
C3698 C3700 1.391 . S
C3699 C3698 1.386 . S
C3699 C3703 1.393 . S
C3700 H3689 0.950 . S
C3700 C3698 1.391 . S
C3700 C3701 1.400 . S
C3701 C3695 1.491 . S
C3701 C3700 1.400 . S
C3701 C3702 1.398 . S
C3702 H3690 0.950 . S
C3702 C3701 1.398 . S
C3702 C3703 1.391 . S
C3703 H3691 0.950 . S
C3703 C3699 1.393 . S
C3703 C3702 1.391 . S
H3704 C3712 0.950 . S
H3705 C3717 0.950 . S
H3706 C3714 0.950 . S
H3707 C3716 0.950 . S
H3708 C3718 0.950 . S
H3709 C3720 0.950 . S
H3710 C3722 0.950 . S
H3711 C3723 0.950 . S
C3712 H3704 0.950 . S
C3712 C3713 1.386 . S
C3712 C3714 1.391 . S
C3713 C3712 1.386 . S
C3713 C3717 1.393 . S
C3714 H3706 0.950 . S
C3714 C3712 1.391 . S
C3714 C3715 1.400 . S
C3715 C3714 1.400 . S
C3715 C3716 1.398 . S
C3715 C3721 1.491 . S
C3716 H3707 0.950 . S
C3716 C3715 1.398 . S
C3716 C3717 1.391 . S
C3717 H3705 0.950 . S
C3717 C3713 1.393 . S
C3717 C3716 1.391 . S
C3718 H3708 0.950 . S
C3718 C3719 1.386 . S
C3718 C3720 1.391 . S
C3719 C3718 1.386 . S
C3719 C3723 1.393 . S
C3720 H3709 0.950 . S
C3720 C3718 1.391 . S
C3720 C3721 1.400 . S
C3721 C3715 1.491 . S
C3721 C3720 1.400 . S
C3721 C3722 1.398 . S
C3722 H3710 0.950 . S
C3722 C3721 1.398 . S
C3722 C3723 1.391 . S
C3723 H3711 0.950 . S
C3723 C3719 1.393 . S
C3723 C3722 1.391 . S
H3724 C3732 0.950 . S
H3725 C3737 0.950 . S
H3726 C3734 0.950 . S
H3727 C3736 0.950 . S
H3728 C3738 0.950 . S
H3729 C3740 0.950 . S
H3730 C3742 0.950 . S
H3731 C3743 0.950 . S
C3732 H3724 0.950 . S
C3732 C3733 1.386 . S
C3732 C3734 1.391 . S
C3733 C3732 1.386 . S
C3733 C3737 1.393 . S
C3734 H3726 0.950 . S
C3734 C3732 1.391 . S
C3734 C3735 1.400 . S
C3735 C3734 1.400 . S
C3735 C3736 1.398 . S
C3735 C3741 1.491 1_455 S
C3736 H3727 0.950 . S
C3736 C3735 1.398 . S
C3736 C3737 1.391 . S
C3737 H3725 0.950 . S
C3737 C3733 1.393 . S
C3737 C3736 1.391 . S
C3738 H3728 0.950 . S
C3738 C3739 1.386 . S
C3738 C3740 1.391 . S
C3739 C3738 1.386 . S
C3739 C3743 1.393 . S
C3740 H3729 0.950 . S
C3740 C3738 1.391 . S
C3740 C3741 1.400 . S
C3741 C3735 1.491 1_655 S
C3741 C3740 1.400 . S
C3741 C3742 1.398 . S
C3742 H3730 0.950 . S
C3742 C3741 1.398 . S
C3742 C3743 1.391 . S
C3743 H3731 0.950 . S
C3743 C3739 1.393 . S
C3743 C3742 1.391 . S
H3744 C3752 0.950 . S
H3745 C3757 0.950 . S
H3746 C3754 0.950 . S
H3747 C3756 0.950 . S
H3748 C3758 0.950 . S
H3749 C3760 0.950 . S
H3750 C3762 0.950 . S
H3751 C3763 0.950 . S
C3752 H3744 0.950 . S
C3752 C3753 1.386 . S
C3752 C3754 1.391 . S
C3753 C3752 1.386 . S
C3753 C3757 1.393 . S
C3754 H3746 0.950 . S
C3754 C3752 1.391 . S
C3754 C3755 1.400 . S
C3755 C3754 1.400 . S
C3755 C3756 1.398 . S
C3755 C3761 1.491 . S
C3756 H3747 0.950 . S
C3756 C3755 1.398 . S
C3756 C3757 1.391 . S
C3757 H3745 0.950 . S
C3757 C3753 1.393 . S
C3757 C3756 1.391 . S
C3758 H3748 0.950 . S
C3758 C3759 1.386 . S
C3758 C3760 1.391 . S
C3759 C3758 1.386 . S
C3759 C3763 1.393 . S
C3760 H3749 0.950 . S
C3760 C3758 1.391 . S
C3760 C3761 1.400 . S
C3761 C3755 1.491 . S
C3761 C3760 1.400 . S
C3761 C3762 1.398 . S
C3762 H3750 0.950 . S
C3762 C3761 1.398 . S
C3762 C3763 1.391 . S
C3763 H3751 0.950 . S
C3763 C3759 1.393 . S
C3763 C3762 1.391 . S
H3764 C3772 0.950 . S
H3765 C3777 0.950 . S
H3766 C3774 0.950 . S
H3767 C3776 0.950 . S
H3768 C3778 0.950 . S
H3769 C3780 0.950 . S
H3770 C3782 0.950 . S
H3771 C3783 0.950 . S
C3772 H3764 0.950 . S
C3772 C3773 1.386 . S
C3772 C3774 1.391 . S
C3773 C3772 1.386 . S
C3773 C3777 1.393 . S
C3774 H3766 0.950 . S
C3774 C3772 1.391 . S
C3774 C3775 1.400 . S
C3775 C3774 1.400 . S
C3775 C3776 1.398 . S
C3775 C3781 1.491 1_554 S
C3776 H3767 0.950 . S
C3776 C3775 1.398 . S
C3776 C3777 1.391 . S
C3777 H3765 0.950 . S
C3777 C3773 1.393 . S
C3777 C3776 1.391 . S
C3778 H3768 0.950 . S
C3778 C3779 1.386 . S
C3778 C3780 1.391 . S
C3779 C3778 1.386 . S
C3779 C3783 1.393 . S
C3780 H3769 0.950 . S
C3780 C3778 1.391 . S
C3780 C3781 1.400 . S
C3781 C3775 1.491 1_556 S
C3781 C3780 1.400 . S
C3781 C3782 1.398 . S
C3782 H3770 0.950 . S
C3782 C3781 1.398 . S
C3782 C3783 1.391 . S
C3783 H3771 0.950 . S
C3783 C3779 1.393 . S
C3783 C3782 1.391 . S
H3784 C3792 0.950 . S
H3785 C3797 0.950 . S
H3786 C3794 0.950 . S
H3787 C3796 0.950 1_565 S
H3788 C3798 0.950 . S
H3789 C3800 0.950 . S
H3790 C3802 0.950 1_545 S
H3791 C3803 0.950 . S
C3792 H3784 0.950 . S
C3792 C3793 1.386 . S
C3792 C3794 1.391 . S
C3793 C3792 1.386 . S
C3793 C3797 1.393 . S
C3794 H3786 0.950 . S
C3794 C3792 1.391 . S
C3794 C3795 1.400 . S
C3795 C3794 1.400 . S
C3795 C3796 1.398 . S
C3795 C3801 1.491 1_545 S
C3796 H3787 0.950 1_545 S
C3796 C3795 1.398 . S
C3796 C3797 1.391 . S
C3797 H3785 0.950 . S
C3797 C3793 1.393 . S
C3797 C3796 1.391 . S
C3798 H3788 0.950 . S
C3798 C3799 1.386 . S
C3798 C3800 1.391 . S
C3799 C3798 1.386 . S
C3799 C3803 1.393 . S
C3800 H3789 0.950 . S
C3800 C3798 1.391 . S
C3800 C3801 1.400 . S
C3801 C3795 1.491 1_565 S
C3801 C3800 1.400 . S
C3801 C3802 1.398 . S
C3802 H3790 0.950 1_565 S
C3802 C3801 1.398 . S
C3802 C3803 1.391 . S
C3803 H3791 0.950 . S
C3803 C3799 1.393 . S
C3803 C3802 1.391 . S
H3804 C3812 0.950 . S
H3805 C3817 0.950 . S
H3806 C3814 0.950 . S
H3807 C3816 0.950 . S
H3808 C3818 0.950 . S
H3809 C3820 0.950 . S
H3810 C3822 0.950 . S
H3811 C3823 0.950 . S
C3812 H3804 0.950 . S
C3812 C3813 1.386 . S
C3812 C3814 1.391 . S
C3813 C3812 1.386 . S
C3813 C3817 1.393 . S
C3814 H3806 0.950 . S
C3814 C3812 1.391 . S
C3814 C3815 1.400 . S
C3815 C3814 1.400 . S
C3815 C3816 1.398 . S
C3815 C3821 1.491 . S
C3816 H3807 0.950 . S
C3816 C3815 1.398 . S
C3816 C3817 1.391 . S
C3817 H3805 0.950 . S
C3817 C3813 1.393 . S
C3817 C3816 1.391 . S
C3818 H3808 0.950 . S
C3818 C3819 1.386 . S
C3818 C3820 1.391 . S
C3819 C3818 1.386 . S
C3819 C3823 1.393 . S
C3820 H3809 0.950 . S
C3820 C3818 1.391 . S
C3820 C3821 1.400 . S
C3821 C3815 1.491 . S
C3821 C3820 1.400 . S
C3821 C3822 1.398 . S
C3822 H3810 0.950 . S
C3822 C3821 1.398 . S
C3822 C3823 1.391 . S
C3823 H3811 0.950 . S
C3823 C3819 1.393 . S
C3823 C3822 1.391 . S
H3824 C3832 0.950 . S
H3825 C3837 0.950 . S
H3826 C3834 0.950 . S
H3827 C3836 0.950 . S
H3828 C3838 0.950 . S
H3829 C3840 0.950 . S
H3830 C3842 0.950 . S
H3831 C3843 0.950 . S
C3832 H3824 0.950 . S
C3832 C3833 1.386 . S
C3832 C3834 1.391 . S
C3833 C3832 1.386 . S
C3833 C3837 1.393 . S
C3834 H3826 0.950 . S
C3834 C3832 1.391 . S
C3834 C3835 1.400 . S
C3835 C3834 1.400 . S
C3835 C3836 1.398 . S
C3835 C3841 1.491 . S
C3836 H3827 0.950 . S
C3836 C3835 1.398 . S
C3836 C3837 1.391 . S
C3837 H3825 0.950 . S
C3837 C3833 1.393 . S
C3837 C3836 1.391 . S
C3838 H3828 0.950 . S
C3838 C3839 1.386 . S
C3838 C3840 1.391 . S
C3839 C3838 1.386 . S
C3839 C3843 1.393 . S
C3840 H3829 0.950 . S
C3840 C3838 1.391 . S
C3840 C3841 1.400 . S
C3841 C3835 1.491 . S
C3841 C3840 1.400 . S
C3841 C3842 1.398 . S
C3842 H3830 0.950 . S
C3842 C3841 1.398 . S
C3842 C3843 1.391 . S
C3843 H3831 0.950 . S
C3843 C3839 1.393 . S
C3843 C3842 1.391 . S
H3844 C3852 0.950 . S
H3845 C3857 0.950 . S
H3846 C3854 0.950 . S
H3847 C3856 0.950 . S
H3848 C3858 0.950 . S
H3849 C3860 0.950 . S
H3850 C3862 0.950 . S
H3851 C3863 0.950 . S
C3852 H3844 0.950 . S
C3852 C3853 1.386 . S
C3852 C3854 1.391 . S
C3853 C3852 1.386 . S
C3853 C3857 1.393 . S
C3854 H3846 0.950 . S
C3854 C3852 1.391 . S
C3854 C3855 1.400 . S
C3855 C3854 1.400 . S
C3855 C3856 1.398 . S
C3855 C3861 1.491 . S
C3856 H3847 0.950 . S
C3856 C3855 1.398 . S
C3856 C3857 1.391 . S
C3857 H3845 0.950 . S
C3857 C3853 1.393 . S
C3857 C3856 1.391 . S
C3858 H3848 0.950 . S
C3858 C3859 1.386 . S
C3858 C3860 1.391 . S
C3859 C3858 1.386 . S
C3859 C3863 1.393 . S
C3860 H3849 0.950 . S
C3860 C3858 1.391 . S
C3860 C3861 1.400 . S
C3861 C3855 1.491 . S
C3861 C3860 1.400 . S
C3861 C3862 1.398 . S
C3862 H3850 0.950 . S
C3862 C3861 1.398 . S
C3862 C3863 1.391 . S
C3863 H3851 0.950 . S
C3863 C3859 1.393 . S
C3863 C3862 1.391 . S
H3864 C3872 0.950 . S
H3865 C3877 0.950 . S
H3866 C3874 0.950 . S
H3867 C3876 0.943 1_655 S
H3868 C3878 0.950 . S
H3869 C3880 0.950 . S
H3870 C3882 0.943 1_455 S
H3871 C3883 0.950 . S
C3872 H3864 0.950 . S
C3872 C3873 1.386 . S
C3872 C3874 1.391 . S
C3873 C3872 1.386 . S
C3873 C3877 1.393 . S
C3874 H3866 0.950 . S
C3874 C3872 1.391 . S
C3874 C3875 1.400 . S
C3875 C3874 1.400 . S
C3875 C3876 1.401 . S
C3875 C3881 1.491 1_455 S
C3876 H3867 0.943 1_455 S
C3876 C3875 1.401 . S
C3876 C3877 1.395 . S
C3877 H3865 0.950 . S
C3877 C3873 1.393 . S
C3877 C3876 1.395 . S
C3878 H3868 0.950 . S
C3878 C3879 1.386 . S
C3878 C3880 1.391 . S
C3879 C3878 1.386 . S
C3879 C3883 1.393 . S
C3880 H3869 0.950 . S
C3880 C3878 1.391 . S
C3880 C3881 1.400 . S
C3881 C3875 1.491 1_655 S
C3881 C3880 1.400 . S
C3881 C3882 1.401 . S
C3882 H3870 0.943 1_655 S
C3882 C3881 1.401 . S
C3882 C3883 1.395 . S
C3883 H3871 0.950 . S
C3883 C3879 1.393 . S
C3883 C3882 1.395 . S
H3884 C3892 0.950 . S
H3885 C3897 0.950 . S
H3886 C3894 0.950 . S
H3887 C3896 0.922 1_655 S
H3888 C3898 0.950 . S
H3889 C3900 0.950 . S
H3890 C3902 0.922 1_455 S
H3891 C3903 0.950 . S
C3892 H3884 0.950 . S
C3892 C3893 1.386 . S
C3892 C3894 1.391 . S
C3893 C3892 1.386 . S
C3893 C3897 1.393 . S
C3894 H3886 0.950 . S
C3894 C3892 1.391 . S
C3894 C3895 1.400 . S
C3895 C3894 1.400 . S
C3895 C3896 1.398 . S
C3895 C3901 1.491 1_455 S
C3896 H3887 0.922 1_455 S
C3896 C3895 1.398 . S
C3896 C3897 1.391 . S
C3897 H3885 0.950 . S
C3897 C3893 1.393 . S
C3897 C3896 1.391 . S
C3898 H3888 0.950 . S
C3898 C3899 1.386 . S
C3898 C3900 1.391 . S
C3899 C3898 1.386 . S
C3899 C3903 1.393 . S
C3900 H3889 0.950 . S
C3900 C3898 1.391 . S
C3900 C3901 1.400 . S
C3901 C3895 1.491 1_655 S
C3901 C3900 1.400 . S
C3901 C3902 1.398 . S
C3902 H3890 0.922 1_655 S
C3902 C3901 1.398 . S
C3902 C3903 1.391 . S
C3903 H3891 0.950 . S
C3903 C3899 1.393 . S
C3903 C3902 1.391 . S
H3904 C3912 0.950 . S
H3905 C3917 0.950 . S
H3906 C3914 0.950 . S
H3907 C3916 0.950 . S
H3908 C3918 0.950 . S
H3909 C3920 0.950 . S
H3910 C3922 0.950 . S
H3911 C3923 0.950 . S
C3912 H3904 0.950 . S
C3912 C3913 1.386 . S
C3912 C3914 1.391 . S
C3913 C3912 1.386 . S
C3913 C3917 1.393 . S
C3914 H3906 0.950 . S
C3914 C3912 1.391 . S
C3914 C3915 1.400 . S
C3915 C3914 1.400 . S
C3915 C3916 1.398 . S
C3915 C3921 1.491 1_455 S
C3916 H3907 0.950 . S
C3916 C3915 1.398 . S
C3916 C3917 1.391 . S
C3917 H3905 0.950 . S
C3917 C3913 1.393 . S
C3917 C3916 1.391 . S
C3918 H3908 0.950 . S
C3918 C3919 1.386 . S
C3918 C3920 1.391 . S
C3919 C3918 1.386 . S
C3919 C3923 1.393 . S
C3920 H3909 0.950 . S
C3920 C3918 1.391 . S
C3920 C3921 1.400 . S
C3921 C3915 1.491 1_655 S
C3921 C3920 1.400 . S
C3921 C3922 1.398 . S
C3922 H3910 0.950 . S
C3922 C3921 1.398 . S
C3922 C3923 1.391 . S
C3923 H3911 0.950 . S
C3923 C3919 1.393 . S
C3923 C3922 1.391 . S
H3924 C3932 0.950 . S
H3925 C3937 0.950 . S
H3926 C3934 0.950 . S
H3927 C3936 0.950 . S
H3928 C3938 0.950 . S
H3929 C3940 0.950 . S
H3930 C3942 0.950 . S
H3931 C3943 0.950 . S
C3932 H3924 0.950 . S
C3932 C3933 1.386 . S
C3932 C3934 1.391 . S
C3933 C3932 1.386 . S
C3933 C3937 1.393 . S
C3934 H3926 0.950 . S
C3934 C3932 1.391 . S
C3934 C3935 1.400 . S
C3935 C3934 1.400 . S
C3935 C3936 1.398 . S
C3935 C3941 1.491 . S
C3936 H3927 0.950 . S
C3936 C3935 1.398 . S
C3936 C3937 1.391 . S
C3937 H3925 0.950 . S
C3937 C3933 1.393 . S
C3937 C3936 1.391 . S
C3938 H3928 0.950 . S
C3938 C3939 1.386 . S
C3938 C3940 1.391 . S
C3939 C3938 1.386 . S
C3939 C3943 1.393 . S
C3940 H3929 0.950 . S
C3940 C3938 1.391 . S
C3940 C3941 1.400 . S
C3941 C3935 1.491 . S
C3941 C3940 1.400 . S
C3941 C3942 1.398 . S
C3942 H3930 0.950 . S
C3942 C3941 1.398 . S
C3942 C3943 1.391 . S
C3943 H3931 0.950 . S
C3943 C3939 1.393 . S
C3943 C3942 1.391 . S
H3944 C3952 0.950 . S
H3945 C3957 0.950 . S
H3946 C3954 0.950 . S
H3947 C3956 0.950 1_545 S
H3948 C3958 0.950 . S
H3949 C3960 0.950 . S
H3950 C3962 0.950 1_565 S
H3951 C3963 0.950 . S
C3952 H3944 0.950 . S
C3952 C3953 1.386 . S
C3952 C3954 1.391 . S
C3953 C3952 1.386 . S
C3953 C3957 1.393 . S
C3954 H3946 0.950 . S
C3954 C3952 1.391 . S
C3954 C3955 1.400 . S
C3955 C3954 1.400 . S
C3955 C3956 1.398 . S
C3955 C3961 1.491 1_565 S
C3956 H3947 0.950 1_565 S
C3956 C3955 1.398 . S
C3956 C3957 1.391 . S
C3957 H3945 0.950 . S
C3957 C3953 1.393 . S
C3957 C3956 1.391 . S
C3958 H3948 0.950 . S
C3958 C3959 1.386 . S
C3958 C3960 1.391 . S
C3959 C3958 1.386 . S
C3959 C3963 1.393 . S
C3960 H3949 0.950 . S
C3960 C3958 1.391 . S
C3960 C3961 1.400 . S
C3961 C3955 1.491 1_545 S
C3961 C3960 1.400 . S
C3961 C3962 1.398 . S
C3962 H3950 0.950 1_545 S
C3962 C3961 1.398 . S
C3962 C3963 1.391 . S
C3963 H3951 0.950 . S
C3963 C3959 1.393 . S
C3963 C3962 1.391 . S
H3964 C3972 0.950 . S
H3965 C3977 0.950 . S
H3966 C3974 0.950 . S
H3967 C3976 0.950 . S
H3968 C3978 0.950 . S
H3969 C3980 0.950 . S
H3970 C3982 0.950 . S
H3971 C3983 0.950 . S
C3972 H3964 0.950 . S
C3972 C3973 1.386 . S
C3972 C3974 1.391 . S
C3973 C3972 1.386 . S
C3973 C3977 1.393 . S
C3974 H3966 0.950 . S
C3974 C3972 1.391 . S
C3974 C3975 1.400 . S
C3975 C3974 1.400 . S
C3975 C3976 1.398 . S
C3975 C3981 1.491 1_554 S
C3976 H3967 0.950 . S
C3976 C3975 1.398 . S
C3976 C3977 1.391 . S
C3977 H3965 0.950 . S
C3977 C3973 1.393 . S
C3977 C3976 1.391 . S
C3978 H3968 0.950 . S
C3978 C3979 1.386 . S
C3978 C3980 1.391 . S
C3979 C3978 1.386 . S
C3979 C3983 1.393 . S
C3980 H3969 0.950 . S
C3980 C3978 1.391 . S
C3980 C3981 1.400 . S
C3981 C3975 1.491 1_556 S
C3981 C3980 1.400 . S
C3981 C3982 1.398 . S
C3982 H3970 0.950 . S
C3982 C3981 1.398 . S
C3982 C3983 1.391 . S
C3983 H3971 0.950 . S
C3983 C3979 1.393 . S
C3983 C3982 1.391 . S
C1593 N904 1.252 . S
C1599 C18 1.279 . S
C1613 C51 1.282 . S
C1619 N805 1.224 . S
C1633 C84 1.280 . S
C1639 N838 1.233 . S
C1653 N871 1.226 . S
C1659 C117 1.284 . S
C1673 C150 1.284 . S
C1679 N178 1.233 . S
C1693 N211 1.223 . S
C1699 C183 1.284 . S
C1713 N244 1.224 . S
C1719 C216 1.284 . S
C1733 C249 1.282 . S
C1739 N145 1.245 . S
C1753 C282 1.284 . S
C1759 N1399 1.224 . S
C1773 C315 1.280 . S
C1779 N1432 1.232 . S
C1793 C348 1.283 . S
C1799 N673 1.223 . S
C1813 N1366 1.252 . S
C1819 C381 1.281 . S
C1833 N1531 1.234 . S
C1839 C414 1.284 . S
C1853 N541 1.248 . S
C1859 C447 1.278 . S
C1873 C480 1.281 . S
C1879 N1564 1.251 . S
C1893 C513 1.283 . S
C1899 N1498 1.223 . S
C1913 N310 1.223 . S
C1919 C546 1.283 . S
C1933 N1300 1.231 . S
C1939 C579 1.280 . S
C1953 N1201 1.226 . S
C1959 C612 1.281 . S
C1973 N1234 1.228 . S
C1979 C645 1.281 . S
C1993 C678 1.283 . S
C1999 N475 1.242 . S
C2013 C711 1.278 . S
C2019 N1168 1.247 . S
C2033 N1069 1.223 . S
C2039 C744 1.282 . S
C2053 C777 1.278 . S
C2059 N1135 1.251 . S
C2073 C810 1.280 . S
C2079 N112 1.231 . S
C2093 C843 1.281 . S
C2099 N13 1.249 . S
C2113 N46 1.239 . S
C2119 C876 1.284 . S
C2133 N79 1.253 . S
C2139 C909 1.279 . S
C2153 N970 1.224 . S
C2159 C942 1.282 . S
C2173 N1003 1.244 . S
C2179 C975 1.278 . S
C2193 C1008 1.278 . S
C2199 N1036 1.250 . S
C2213 C1041 1.280 . S
C2219 N937 1.234 . S
C2233 C1074 1.281 . S
C2239 N607 1.229 . S
C2253 N640 1.242 . S
C2259 C1107 1.283 . S
C2273 N1465 1.248 . S
C2279 C1140 1.282 . S
C2293 C1173 1.278 . S
C2299 N574 1.247 . S
C2313 N739 1.229 . S
C2319 C1206 1.281 . S
C2333 C1239 1.282 . S
C2339 N1333 1.225 . S
C2353 C1272 1.282 . S
C2359 N772 1.245 . S
C2373 N706 1.228 . S
C2379 C1305 1.284 . S
C2393 N1102 1.248 . S
C2399 C1338 1.282 . S
C2413 N508 1.251 . S
C2419 C1371 1.281 . S
C2433 C1404 1.282 . S
C2439 N409 1.248 . S
C2453 N442 1.246 . S
C2459 C1437 1.278 . S
C2473 C1470 1.280 . S
C2479 N1267 1.232 . S
C2493 C1503 1.284 . S
C2499 N376 1.231 . S
C2513 N277 1.253 . S
C2519 C1536 1.279 . S
C2533 N343 1.252 . S
C2539 C1569 1.281 . S
C2553 C1393 0.397 . S
C2559 C21 0.521 . S
C2573 C1426 0.422 . S
C2579 C54 0.500 . S
C2593 C667 0.441 . S
C2599 C87 0.473 . S
C2613 C1360 0.394 . S
C2619 C120 0.525 . S
C2633 C153 0.480 . S
C2639 C1525 0.430 . S
C2653 C535 0.404 . S
C2659 C186 0.512 . S
C2673 C1558 0.386 . S
C2679 C219 0.536 . S
C2693 C252 0.457 . S
C2699 C1492 0.447 . S
C2713 C285 0.508 . S
C2719 C304 0.416 . S
C2733 C337 0.404 . S
C2739 C318 0.512 . S
C2753 C370 0.446 . S
C2759 C351 0.466 . S
C2773 C271 0.432 . S
C2779 C384 0.487 . S
C2793 C1294 0.447 . S
C2799 C417 0.465 . S
C2813 C1195 0.395 . S
C2819 C450 0.524 . S
C2833 C1228 0.447 . S
C2839 C483 0.457 . S
C2853 C516 0.494 . S
C2859 C1261 0.426 . S
C2873 C898 0.401 . S
C2879 C549 0.524 . S
C2893 C582 0.477 . S
C2899 C172 0.432 . S
C2913 C205 0.385 . S
C2919 C615 0.539 . S
C2933 C238 0.393 . S
C2939 C648 0.532 . S
C2953 C681 0.450 . S
C2959 C931 0.455 . S
C2973 C40 0.414 . S
C2979 C714 0.510 . S
C2993 C747 0.514 . S
C2999 C73 0.402 . S
C3013 C780 0.517 . S
C3019 C7 0.400 . S
C3033 C601 0.392 . S
C3039 C813 0.533 . S
C3053 C634 0.454 . S
C3059 C846 0.451 . S
C3073 C879 0.450 . S
C3079 C1459 0.455 . S
C3093 C912 0.453 . S
C3099 C568 0.451 . S
C3113 C733 0.402 . S
C3119 C945 0.522 . S
C3133 C1327 0.452 . S
C3139 C978 0.456 . S
C3153 C766 0.387 . S
C3159 C1011 0.533 . S
C3173 C1044 0.537 . S
C3179 C700 0.388 . S
C3193 C1077 0.513 . S
C3199 C1096 0.411 . S
C3213 C1129 0.403 . S
C3219 C1110 0.513 . S
C3233 C1143 0.449 . S
C3239 C1162 0.455 . S
C3253 C1176 0.456 . S
C3259 C1063 0.452 . S
C3273 C1209 0.495 . S
C3279 C502 0.426 . S
C3293 C403 0.454 . S
C3299 C1242 0.451 . S
C3313 C436 0.435 . S
C3319 C1275 0.473 . S
C3333 C469 0.438 . S
C3339 C1308 0.479 . S
C3353 C106 0.452 . S
C3359 C1341 0.456 . S
C3373 C964 0.452 . S
C3379 C1374 0.452 . S
C3393 C1407 0.534 . S
C3399 C997 0.391 . S
C3413 C1440 0.457 . S
C3419 C1030 0.451 . S
C3433 C1473 0.522 . S
C3439 C139 0.396 . S
C3453 C1506 0.521 . S
C3459 C832 0.404 . S
C3473 C1539 0.514 . S
C3479 C865 0.410 . S
C3493 C799 0.401 . S
C3499 C1572 0.524 . S
C3513 N2 1.084 . S
C3519 N992 1.088 . S
C3533 N35 1.088 . S
C3539 N1025 1.087 . S
C3553 N926 1.082 . S
C3559 N68 1.076 . S
C3573 N959 1.082 . S
C3579 N101 1.087 . S
C3593 N134 1.077 . S
C3599 N860 1.074 . S
C3613 N893 1.087 . S
C3619 N167 1.082 . S
C3633 N794 1.077 . S
C3639 N200 1.074 . S
C3653 N827 1.089 . S
C3659 N233 1.086 . S
C3673 N266 1.088 . S
C3679 N332 1.083 . S
C3693 N299 1.085 . S
C3699 N365 1.080 . S
C3713 N464 1.079 . S
C3719 N398 1.075 . S
C3733 N431 1.088 . S
C3739 N497 1.085 . S
C3753 N530 1.088 . S
C3759 N563 1.086 . S
C3773 N1553 1.088 . S
C3779 N596 1.085 . S
C3793 N1487 1.086 . S
C3799 N629 1.088 . S
C3813 N662 1.088 . S
C3819 N728 1.086 . S
C3833 N695 1.086 . S
C3839 N1421 1.088 . S
C3853 N761 1.081 . S
C3859 N1388 1.076 . S
C3873 N1124 1.085 . S
C3879 N1058 1.088 . S
C3893 N1157 1.082 . S
C3899 N1091 1.087 . S
C3913 N1256 1.074 . S
C3919 N1190 1.076 . S
C3933 N1289 1.087 . S
C3939 N1223 1.083 . S
C3953 N1322 1.085 . S
C3959 N1355 1.088 . S
C3973 N1520 1.078 . S
C3979 N1454 1.074 . S
