# Generated by pormake.
# Topology ske, (6)-cn, num edge types: 1
# Building blocks:
#     Node 0, Type 0, BuildingBlock: BETGAK_clean_sbu_0, # of connection points: 6
#     Node 1, Type 0, BuildingBlock: BETGAK_clean_sbu_0, # of connection points: 6
#     Node 2, Type 0, BuildingBlock: BETGAK_clean_sbu_0, # of connection points: 6
#     Node 3, Type 0, BuildingBlock: BETGAK_clean_sbu_0, # of connection points: 6
#     Node 4, Type 0, BuildingBlock: BETGAK_clean_sbu_0, # of connection points: 6
#     Node 5, Type 0, BuildingBlock: BETGAK_clean_sbu_0, # of connection points: 6
#     Node 6, Type 0, BuildingBlock: BETGAK_clean_sbu_0, # of connection points: 6
#     Node 7, Type 0, BuildingBlock: BETGAK_clean_sbu_0, # of connection points: 6
#     Edge 8, Type (0, 0), BuildingBlock: TEMPAE_clean_linker_10, # of connection points: 2
#     Edge 9, Type (0, 0), BuildingBlock: TEMPAE_clean_linker_10, # of connection points: 2
#     Edge 10, Type (0, 0), BuildingBlock: TEMPAE_clean_linker_10, # of connection points: 2
#     Edge 11, Type (0, 0), BuildingBlock: TEMPAE_clean_linker_10, # of connection points: 2
#     Edge 12, Type (0, 0), BuildingBlock: TEMPAE_clean_linker_10, # of connection points: 2
#     Edge 13, Type (0, 0), BuildingBlock: TEMPAE_clean_linker_10, # of connection points: 2
#     Edge 14, Type (0, 0), BuildingBlock: TEMPAE_clean_linker_10, # of connection points: 2
#     Edge 15, Type (0, 0), BuildingBlock: TEMPAE_clean_linker_10, # of connection points: 2
#     Edge 16, Type (0, 0), BuildingBlock: TEMPAE_clean_linker_10, # of connection points: 2
#     Edge 17, Type (0, 0), BuildingBlock: TEMPAE_clean_linker_10, # of connection points: 2
#     Edge 18, Type (0, 0), BuildingBlock: TEMPAE_clean_linker_10, # of connection points: 2
#     Edge 19, Type (0, 0), BuildingBlock: TEMPAE_clean_linker_10, # of connection points: 2
#     Edge 20, Type (0, 0), BuildingBlock: TEMPAE_clean_linker_10, # of connection points: 2
#     Edge 21, Type (0, 0), BuildingBlock: TEMPAE_clean_linker_10, # of connection points: 2
#     Edge 22, Type (0, 0), BuildingBlock: TEMPAE_clean_linker_10, # of connection points: 2
#     Edge 23, Type (0, 0), BuildingBlock: TEMPAE_clean_linker_10, # of connection points: 2
#     Edge 24, Type (0, 0), BuildingBlock: TEMPAE_clean_linker_10, # of connection points: 2
#     Edge 25, Type (0, 0), BuildingBlock: TEMPAE_clean_linker_10, # of connection points: 2
#     Edge 26, Type (0, 0), BuildingBlock: TEMPAE_clean_linker_10, # of connection points: 2
#     Edge 27, Type (0, 0), BuildingBlock: TEMPAE_clean_linker_10, # of connection points: 2
#     Edge 28, Type (0, 0), BuildingBlock: TEMPAE_clean_linker_10, # of connection points: 2
#     Edge 29, Type (0, 0), BuildingBlock: TEMPAE_clean_linker_10, # of connection points: 2
#     Edge 30, Type (0, 0), BuildingBlock: TEMPAE_clean_linker_10, # of connection points: 2
#     Edge 31, Type (0, 0), BuildingBlock: TEMPAE_clean_linker_10, # of connection points: 2
# Relax obj value: 0.199
# Max RMSD: 0.203
# Mean RMSD: 0.196
data_MOF--net-ske--node1-BETGAK_clean_sbu_0--edge1-TEMPAE_clean_linker_10
_symmetry_space_group_name_H-M    P1
_symmetry_Int_Tables_number       1
_symmetry_cell_setting            triclinic
loop_
_symmetry_equiv_pos_as_xyz
'x, y, z'
_cell_length_a     103.92575
_cell_length_b     29.70702
_cell_length_c     15.720107
_cell_angle_alpha  90.039589
_cell_angle_beta   90.009648
_cell_angle_gamma 84.656702
loop_
_atom_site_label
_atom_site_type_symbol
_atom_site_fract_x
_atom_site_fract_y
_atom_site_fract_z
_atom_type_partial_charge
La0 La 0.16404 0.26252 0.54092 0.0
La1 La 0.13587 0.26394 0.54582 0.0
C2 C 0.18728 0.28114 0.55519 0.0
C3 C 0.19946 0.27438 0.60541 0.0
C4 C 0.20739 0.2333 0.60307 0.0
C5 C 0.21983 0.23 0.6389 0.0
C6 C 0.2247 0.26774 0.67747 0.0
C7 C 0.21655 0.30828 0.68241 0.0
C8 C 0.20414 0.31155 0.64669 0.0
C9 C 0.15592 0.18074 0.5211 0.0
C10 C 0.14972 0.25895 0.72198 0.0
C11 C 0.11202 0.25686 0.53028 0.0
C12 C 0.09788 0.25446 0.51994 0.0
C13 C 0.09007 0.29194 0.48834 0.0
C14 C 0.07662 0.29169 0.48473 0.0
C15 C 0.07055 0.25388 0.51244 0.0
C16 C 0.07841 0.21599 0.54267 0.0
C17 C 0.0919 0.21631 0.54646 0.0
C18 C 0.1447 0.34503 0.56408 0.0
C19 C 0.15001 0.26332 0.36877 0.0
O20 O 0.18366 0.24708 0.51134 0.0
O21 O 0.1774 0.30572 0.58816 0.0
O22 O 0.16607 0.19475 0.48596 0.0
O23 O 0.15107 0.21132 0.57101 0.0
O24 O 0.16064 0.26212 0.67965 0.0
O25 O 0.13863 0.25621 0.68215 0.0
O26 O 0.11775 0.29104 0.50131 0.0
O27 O 0.11989 0.22524 0.56565 0.0
O28 O 0.13517 0.33077 0.60581 0.0
O29 O 0.14887 0.31417 0.51312 0.0
O30 O 0.14064 0.24667 0.41225 0.0
O31 O 0.15942 0.2811 0.4095 0.0
H32 H 0.20421 0.20407 0.57088 0.0
H33 H 0.22582 0.19833 0.63313 0.0
H34 H 0.21985 0.33787 0.71276 0.0
H35 H 0.19834 0.34381 0.64878 0.0
H36 H 0.09433 0.32209 0.4681 0.0
H37 H 0.07094 0.32177 0.46231 0.0
H38 H 0.07413 0.186 0.56349 0.0
H39 H 0.09764 0.18692 0.57128 0.0
La40 La 0.87868 0.25921 0.53445 0.0
La41 La 0.90678 0.25598 0.54226 0.0
C42 C 0.85498 0.24548 0.54702 0.0
C43 C 0.84325 0.24783 0.60192 0.0
C44 C 0.83586 0.28921 0.61735 0.0
C45 C 0.82361 0.29025 0.65518 0.0
C46 C 0.81835 0.24997 0.67828 0.0
C47 C 0.82599 0.20875 0.66593 0.0
C48 C 0.83823 0.20771 0.62802 0.0
C49 C 0.88752 0.33991 0.51555 0.0
C50 C 0.8926 0.26354 0.7152 0.0
C51 C 0.93076 0.26235 0.53154 0.0
C52 C 0.94502 0.26348 0.52622 0.0
C53 C 0.95318 0.22357 0.53901 0.0
C54 C 0.96662 0.2238 0.53515 0.0
C55 C 0.97234 0.26395 0.5183 0.0
C56 C 0.96417 0.30403 0.50575 0.0
C57 C 0.95066 0.30377 0.50953 0.0
C58 C 0.89747 0.17564 0.55778 0.0
C59 C 0.89293 0.25495 0.36083 0.0
O60 O 0.85915 0.28336 0.5217 0.0
O61 O 0.86452 0.21463 0.56258 0.0
O62 O 0.87766 0.3261 0.47674 0.0
O63 O 0.89186 0.30944 0.56728 0.0
O64 O 0.88236 0.25253 0.67255 0.0
O65 O 0.90305 0.27401 0.67483 0.0
O66 O 0.92567 0.22497 0.549 0.0
O67 O 0.92224 0.29708 0.51914 0.0
O68 O 0.90673 0.18965 0.60255 0.0
O69 O 0.89361 0.20666 0.50619 0.0
O70 O 0.90339 0.26331 0.40404 0.0
O71 O 0.88229 0.24556 0.40027 0.0
H72 H 0.83929 0.3208 0.59702 0.0
H73 H 0.81801 0.32263 0.6627 0.0
H74 H 0.82239 0.17706 0.68406 0.0
H75 H 0.84358 0.17525 0.61612 0.0
H76 H 0.94919 0.19193 0.55247 0.0
H77 H 0.97255 0.19245 0.54667 0.0
H78 H 0.96821 0.33552 0.49195 0.0
H79 H 0.94464 0.33508 0.49945 0.0
La80 La 0.13482 0.76101 0.50766 0.0
La81 La 0.16314 0.76616 0.50862 0.0
C82 C 0.11184 0.74239 0.53602 0.0
C83 C 0.09778 0.7514 0.51712 0.0
C84 C 0.09249 0.74522 0.43597 0.0
C85 C 0.07899 0.7494 0.42381 0.0
C86 C 0.07045 0.75959 0.49253 0.0
C87 C 0.07587 0.76622 0.5732 0.0
C88 C 0.08928 0.76223 0.58513 0.0
C89 C 0.14182 0.84488 0.49211 0.0
C90 C 0.14975 0.76302 0.68171 0.0
C91 C 0.18598 0.78877 0.49159 0.0
C92 C 0.1984 0.78046 0.44398 0.0
C93 C 0.20614 0.73904 0.44964 0.0
C94 C 0.21871 0.73436 0.41581 0.0
C95 C 0.22395 0.77099 0.37575 0.0
C96 C 0.216 0.81187 0.3676 0.0
C97 C 0.20344 0.81653 0.40141 0.0
C98 C 0.15652 0.68214 0.52726 0.0
C99 C 0.14816 0.76122 0.32949 0.0
O100 O 0.11954 0.7211 0.48018 0.0
O101 O 0.11747 0.77366 0.57634 0.0
O102 O 0.13181 0.82997 0.45651 0.0
O103 O 0.14707 0.81384 0.53891 0.0
O104 O 0.14104 0.7427 0.63849 0.0
O105 O 0.15838 0.7845 0.64021 0.0
O106 O 0.18272 0.75718 0.54301 0.0
O107 O 0.17592 0.80918 0.45271 0.0
O108 O 0.16666 0.69765 0.55955 0.0
O109 O 0.15099 0.71249 0.47978 0.0
O110 O 0.15911 0.76583 0.3708 0.0
O111 O 0.13722 0.75649 0.37015 0.0
H112 H 0.09876 0.73649 0.38224 0.0
H113 H 0.07526 0.7445 0.36051 0.0
H114 H 0.06974 0.77314 0.62825 0.0
H115 H 0.09304 0.76638 0.6487 0.0
H116 H 0.20266 0.7106 0.48275 0.0
H117 H 0.22452 0.70246 0.42418 0.0
H118 H 0.21954 0.84065 0.33599 0.0
H119 H 0.1978 0.84899 0.39665 0.0
La120 La 0.90795 0.7601 0.5028 0.0
La121 La 0.87963 0.75393 0.50454 0.0
C122 C 0.93091 0.77996 0.52761 0.0
C123 C 0.94472 0.77393 0.50023 0.0
C124 C 0.95206 0.73169 0.50433 0.0
C125 C 0.96553 0.72828 0.49231 0.0
C126 C 0.97204 0.76697 0.47615 0.0
C127 C 0.96458 0.8089 0.46904 0.0
C128 C 0.95114 0.81229 0.48112 0.0
C129 C 0.90113 0.67601 0.48751 0.0
C130 C 0.89317 0.75687 0.67753 0.0
C131 C 0.85682 0.73088 0.48794 0.0
C132 C 0.84433 0.7398 0.44133 0.0
C133 C 0.83648 0.78075 0.45107 0.0
C134 C 0.82387 0.78583 0.41797 0.0
C135 C 0.81872 0.75014 0.37428 0.0
C136 C 0.82676 0.70977 0.3621 0.0
C137 C 0.83935 0.70466 0.39543 0.0
C138 C 0.88606 0.83822 0.52241 0.0
C139 C 0.89452 0.75877 0.32507 0.0
O140 O 0.92592 0.7457 0.56279 0.0
O141 O 0.92251 0.80397 0.48004 0.0
O142 O 0.91103 0.69128 0.45105 0.0
O143 O 0.89585 0.70693 0.53453 0.0
O144 O 0.90193 0.77709 0.63461 0.0
O145 O 0.88451 0.73555 0.63589 0.0
O146 O 0.86012 0.7618 0.54078 0.0
O147 O 0.86685 0.71121 0.44754 0.0
O148 O 0.87598 0.82253 0.55503 0.0
O149 O 0.89161 0.80787 0.47499 0.0
O150 O 0.88361 0.75395 0.36661 0.0
O151 O 0.90546 0.76398 0.36541 0.0
H152 H 0.94748 0.7014 0.51942 0.0
H153 H 0.97086 0.69528 0.49699 0.0
H154 H 0.96918 0.83959 0.45778 0.0
H155 H 0.94581 0.8454 0.47892 0.0
H156 H 0.83992 0.80855 0.48642 0.0
H157 H 0.81808 0.81767 0.42757 0.0
H158 H 0.82315 0.68132 0.32971 0.0
H159 H 0.84505 0.67247 0.38795 0.0
La160 La 0.66378 0.76641 0.04039 0.0
La161 La 0.63534 0.7659 0.04631 0.0
C162 C 0.68712 0.78462 0.05453 0.0
C163 C 0.69928 0.77878 0.10562 0.0
C164 C 0.70674 0.73679 0.11077 0.0
C165 C 0.71922 0.73351 0.14618 0.0
C166 C 0.72463 0.77214 0.17705 0.0
C167 C 0.71693 0.81378 0.17466 0.0
C168 C 0.70447 0.81704 0.13926 0.0
C169 C 0.65589 0.68431 1.02179 0.0
C170 C 0.6495 0.76119 0.22097 0.0
C171 C 0.61151 0.75643 0.03332 0.0
C172 C 0.59731 0.75312 1.02532 0.0
C173 C 0.58884 0.79251 1.01458 0.0
C174 C 0.57543 0.79045 1.01113 0.0
C175 C 0.57001 0.74891 1.01833 0.0
C176 C 0.5785 0.7093 0.02764 0.0
C177 C 0.59198 0.7114 0.03131 0.0
C178 C 0.64401 0.84719 0.06377 0.0
C179 C 0.64952 0.76763 0.86704 0.0
O180 O 0.68345 0.74942 1.01465 0.0
O181 O 0.67725 0.81065 0.08376 0.0
O182 O 0.66602 0.69851 0.98698 0.0
O183 O 0.65098 0.71486 0.07148 0.0
O184 O 0.65999 0.77037 0.17866 0.0
O185 O 0.63882 0.75247 0.18098 0.0
O186 O 0.61642 0.79512 0.02654 0.0
O187 O 0.62016 0.7221 0.04581 0.0
O188 O 0.63464 0.83254 0.10684 0.0
O189 O 0.64822 0.81647 1.01254 0.0
O190 O 0.63947 0.7551 0.90978 0.0
O191 O 0.65963 0.7814 0.90703 0.0
H192 H 0.70317 0.70661 0.08459 0.0
H193 H 0.72482 0.70091 0.14599 0.0
H194 H 0.72062 0.84419 0.19899 0.0
H195 H 0.69906 0.84996 0.13547 0.0
H196 H 0.59257 0.82526 1.00955 0.0
H197 H 0.56929 0.8216 1.00237 0.0
H198 H 0.57473 0.67671 0.03405 0.0
H199 H 0.5982 0.68042 0.03991 0.0
La200 La 0.3793 0.74936 0.0537 0.0
La201 La 0.40748 0.75591 0.06275 0.0
C202 C 0.35623 0.72775 0.06571 0.0
C203 C 0.34368 0.73685 0.11186 0.0
C204 C 0.33528 0.77572 0.09433 0.0
C205 C 0.32267 0.78058 0.12726 0.0
C206 C 0.31804 0.74671 0.17854 0.0
C207 C 0.3266 0.70856 0.19839 0.0
C208 C 0.33921 0.70362 0.16516 0.0
C209 C 0.38582 0.83394 0.04023 0.0
C210 C 0.39254 0.7585 0.23395 0.0
C211 C 0.43059 0.77736 0.05995 0.0
C212 C 0.44426 0.76726 0.032 0.0
C213 C 0.45118 0.72504 0.04732 0.0
C214 C 0.46467 0.7192 0.0367 0.0
C215 C 0.47161 0.75542 1.01075 0.0
C216 C 0.46454 0.79703 0.99185 0.0
C217 C 0.45108 0.80282 1.00249 0.0
C218 C 0.40071 0.67094 0.07035 0.0
C219 C 0.39407 0.74949 0.88096 0.0
O220 O 0.35987 0.75936 1.01598 0.0
O221 O 0.36608 0.70647 0.10522 0.0
O222 O 0.37587 0.81847 1.00572 0.0
O223 O 0.39111 0.80353 0.0884 0.0
O224 O 0.38314 0.74158 0.19131 0.0
O225 O 0.40198 0.77586 0.19271 0.0
O226 O 0.42606 0.7502 0.11537 0.0
O227 O 0.42174 0.79299 1.00551 0.0
O228 O 0.41055 0.68564 0.1079 0.0
O229 O 0.39567 0.70263 1.02459 0.0
O230 O 0.40407 0.76237 0.92421 0.0
O231 O 0.38403 0.73487 0.92064 0.0
H232 H 0.33828 0.80194 0.05297 0.0
H233 H 0.31647 0.81077 0.11154 0.0
H234 H 0.32339 0.68153 0.23689 0.0
H235 H 0.34532 0.67291 0.17878 0.0
H236 H 0.44626 0.69693 0.07063 0.0
H237 H 0.46969 0.68643 0.0505 0.0
H238 H 0.46947 0.82593 0.9727 0.0
H239 H 0.44605 0.83594 0.99156 0.0
La240 La 0.63592 0.26555 1.00786 0.0
La241 La 0.66405 0.26629 1.01282 0.0
C242 C 0.61216 0.25699 1.02332 0.0
C243 C 0.59798 0.25498 0.03278 0.0
C244 C 0.58993 0.29487 0.04778 0.0
C245 C 0.57649 0.29428 0.0516 0.0
C246 C 0.57067 0.25369 0.04113 0.0
C247 C 0.57878 0.21358 0.02702 0.0
C248 C 0.59227 0.21426 1.02259 0.0
C249 C 0.6442 0.34739 0.98978 0.0
C250 C 0.65001 0.26651 0.18485 0.0
C251 C 0.6872 0.28594 0.99848 0.0
C252 C 0.69947 0.27747 0.9498 0.0
C253 C 0.70677 0.23512 0.95092 0.0
C254 C 0.71927 0.22988 0.91612 0.0
C255 C 0.7248 0.26682 0.87945 0.0
C256 C 0.71728 0.30873 0.87579 0.0
C257 C 0.70481 0.31397 0.91071 0.0
C258 C 0.65646 0.18375 0.03223 0.0
C259 C 0.64977 0.26157 0.83172 0.0
O260 O 0.6177 0.29206 0.05011 0.0
O261 O 0.62018 0.22504 0.99028 0.0
O262 O 0.63479 0.33237 0.94802 0.0
O263 O 0.64863 0.31685 0.04055 0.0
O264 O 0.64079 0.24891 0.14148 0.0
O265 O 0.65924 0.2852 0.14394 0.0
O266 O 0.68359 0.25341 0.04635 0.0
O267 O 0.67733 0.30878 0.96174 0.0
O268 O 0.66653 0.19849 0.06706 0.0
O269 O 0.65145 0.21405 0.98243 0.0
O270 O 0.66064 0.26576 0.87408 0.0
O271 O 0.63873 0.25777 0.87153 0.0
H272 H 0.59399 0.32695 0.05479 0.0
H273 H 0.57065 0.32604 0.0608 0.0
H274 H 0.57472 0.18154 1.01972 0.0
H275 H 0.59822 0.18298 1.01076 0.0
H276 H 0.70301 0.20625 0.98088 0.0
H277 H 0.72467 0.19693 0.919 0.0
H278 H 0.72121 0.33811 0.84905 0.0
H279 H 0.69951 0.34716 0.91 0.0
La280 La 0.40698 0.25163 1.01389 0.0
La281 La 0.37882 0.25322 1.01904 0.0
C282 C 0.43083 0.25895 0.02843 0.0
C283 C 0.44503 0.26056 0.03735 0.0
C284 C 0.45303 0.22047 0.05144 0.0
C285 C 0.46649 0.22073 0.05445 0.0
C286 C 0.47238 0.2612 0.04409 0.0
C287 C 0.46431 0.30151 0.03104 0.0
C288 C 0.45081 0.30115 0.02739 0.0
C289 C 0.39815 0.17046 0.99704 0.0
C290 C 0.39289 0.25201 0.1911 0.0
C291 C 0.35551 0.23529 1.00475 0.0
C292 C 0.34326 0.24383 0.95549 0.0
C293 C 0.33493 0.2834 0.96818 0.0
C294 C 0.32248 0.28776 0.9328 0.0
C295 C 0.31798 0.25264 0.88402 0.0
C296 C 0.3265 0.21377 0.86885 0.0
C297 C 0.33894 0.20938 0.90442 0.0
C298 C 0.387 0.33499 0.0381 0.0
C299 C 0.39312 0.25629 0.83783 0.0
O300 O 0.4252 0.224 0.05474 0.0
O301 O 0.42287 0.29137 0.99648 0.0
O302 O 0.40767 0.18455 0.95491 0.0
O303 O 0.39393 0.20157 0.04734 0.0
O304 O 0.40229 0.26856 0.14771 0.0
O305 O 0.38348 0.2343 0.15027 0.0
O306 O 0.35928 0.26813 0.05125 0.0
O307 O 0.36529 0.21126 0.96946 0.0
O308 O 0.37686 0.3211 0.07347 0.0
O309 O 0.39178 0.30428 0.9882 0.0
O310 O 0.38221 0.25318 0.88026 0.0
O311 O 0.40421 0.25916 0.87755 0.0
H312 H 0.44892 0.18848 0.05827 0.0
H313 H 0.47228 0.18883 0.0629 0.0
H314 H 0.46842 0.33348 1.02393 0.0
H315 H 0.4449 0.3326 1.01629 0.0
H316 H 0.33783 0.31052 1.00778 0.0
H317 H 0.31628 0.31847 0.94484 0.0
H318 H 0.32338 0.18581 0.83247 0.0
H319 H 0.34501 0.17813 0.89462 0.0
C320 C 0.2459 0.30176 0.69482 0.0
C321 C 0.23837 0.26554 0.70889 0.0
C322 C 0.25883 0.30009 0.72239 0.0
C323 C 0.26449 0.26124 0.76531 0.0
C324 C 0.25696 0.22454 0.77982 0.0
C325 C 0.24405 0.22709 0.75143 0.0
C326 C 0.26647 0.33993 0.70514 0.0
C327 C 0.26256 0.18255 0.82562 0.0
C328 C 0.30135 0.23975 0.77127 0.0
C329 C 0.3043 0.25561 0.85255 0.0
C330 C 0.28849 0.24139 0.74211 0.0
C331 C 0.27824 0.25917 0.79542 0.0
C332 C 0.28115 0.27528 0.87742 0.0
C333 C 0.29409 0.27334 0.90485 0.0
C334 C 0.28586 0.2241 0.65407 0.0
C335 C 0.27056 0.29434 0.93658 0.0
H336 H 0.24175 0.33132 0.66073 0.0
H337 H 0.23833 0.19907 0.76348 0.0
H338 H 0.26996 0.35342 0.76591 0.0
H339 H 0.27512 0.32899 0.66633 0.0
H340 H 0.26069 0.36766 0.67111 0.0
H341 H 0.25549 0.1569 0.83174 0.0
H342 H 0.27117 0.16715 0.79102 0.0
H343 H 0.26579 0.19154 0.89019 0.0
H344 H 0.30913 0.2264 0.72991 0.0
H345 H 0.29619 0.28499 0.96826 0.0
H346 H 0.28078 0.25153 0.61551 0.0
H347 H 0.27942 0.19642 0.65803 0.0
H348 H 0.29487 0.21128 0.62041 0.0
H349 H 0.26492 0.32357 0.9062 0.0
H350 H 0.2744 0.30555 0.99826 0.0
H351 H 0.26376 0.26846 0.94929 0.0
C352 C 0.74825 0.23718 0.89525 0.0
C353 C 0.73852 0.26233 0.84865 0.0
C354 C 0.76127 0.23413 0.86913 0.0
C355 C 0.76475 0.25673 0.7944 0.0
C356 C 0.75498 0.28181 0.74659 0.0
C357 C 0.74203 0.28431 0.77421 0.0
C358 C 0.77133 0.2071 0.92219 0.0
C359 C 0.75822 0.30623 0.66632 0.0
C360 C 0.79967 0.28497 0.76659 0.0
C361 C 0.80475 0.25084 0.71081 0.0
C362 C 0.78674 0.28712 0.7946 0.0
C363 C 0.77861 0.25436 0.76644 0.0
C364 C 0.7837 0.21957 0.71088 0.0
C365 C 0.79665 0.21827 0.68377 0.0
C366 C 0.78176 0.3247 0.85404 0.0
C367 C 0.77541 0.18397 0.6791 0.0
H368 H 0.74573 0.22062 0.95351 0.0
H369 H 0.73462 0.30338 0.73705 0.0
H370 H 0.7766 0.18042 0.88272 0.0
H371 H 0.77856 0.22943 0.94562 0.0
H372 H 0.76706 0.19086 0.97774 0.0
H373 H 0.74952 0.32394 0.63588 0.0
H374 H 0.76514 0.33143 0.68088 0.0
H375 H 0.76298 0.2819 0.61999 0.0
H376 H 0.80583 0.31001 0.78885 0.0
H377 H 0.80033 0.19218 0.6396 0.0
H378 H 0.7781 0.31028 0.91343 0.0
H379 H 0.77353 0.34533 0.82409 0.0
H380 H 0.78931 0.34728 0.87087 0.0
H381 H 0.7714 0.16616 0.73367 0.0
H382 H 0.78087 0.15858 0.6377 0.0
H383 H 0.7671 0.20019 0.64256 0.0
C384 C 0.301 0.73693 0.29062 0.0
C385 C 0.30423 0.75041 0.20823 0.0
C386 C 0.28804 0.73983 0.31854 0.0
C387 C 0.27795 0.75641 0.26286 0.0
C388 C 0.28113 0.76993 0.1796 0.0
C389 C 0.29416 0.76684 0.15347 0.0
C390 C 0.28515 0.7253 0.40797 0.0
C391 C 0.27075 0.78755 0.11776 0.0
C392 C 0.24341 0.72738 0.30747 0.0
C393 C 0.23776 0.76723 0.3457 0.0
C394 C 0.25642 0.72337 0.28045 0.0
C395 C 0.26408 0.76001 0.29177 0.0
C396 C 0.25845 0.80028 0.33027 0.0
C397 C 0.24543 0.80338 0.35666 0.0
C398 C 0.26196 0.67986 0.23945 0.0
C399 C 0.26621 0.84018 0.34401 0.0
H400 H 0.30864 0.7246 0.3339 0.0
H401 H 0.29646 0.77665 0.08925 0.0
H402 H 0.28011 0.75405 0.44343 0.0
H403 H 0.27857 0.69795 0.40633 0.0
H404 H 0.29403 0.71299 0.44342 0.0
H405 H 0.27477 0.79656 0.05523 0.0
H406 H 0.26386 0.7617 0.10744 0.0
H407 H 0.26517 0.81795 0.14454 0.0
H408 H 0.23761 0.69935 0.29765 0.0
H409 H 0.24132 0.83407 0.3874 0.0
H410 H 0.27046 0.66518 0.27612 0.0
H411 H 0.26537 0.6867 0.17425 0.0
H412 H 0.2548 0.65439 0.23556 0.0
H413 H 0.27474 0.83005 0.38448 0.0
H414 H 0.26045 0.86911 0.37476 0.0
H415 H 0.26989 0.85166 0.28222 0.0
C416 C 0.74371 0.73215 0.25563 0.0
C417 C 0.73838 0.76939 0.20802 0.0
C418 C 0.7567 0.7288 0.28302 0.0
C419 C 0.76468 0.76347 0.26252 0.0
C420 C 0.75937 0.8012 0.21482 0.0
C421 C 0.74636 0.80368 0.18825 0.0
C422 C 0.76189 0.68805 0.33399 0.0
C423 C 0.76747 0.83891 0.19115 0.0
C424 C 0.79503 0.77563 0.39573 0.0
C425 C 0.8049 0.7543 0.34459 0.0
C426 C 0.78198 0.77879 0.36997 0.0
C427 C 0.77857 0.76029 0.29083 0.0
C428 C 0.78847 0.7389 0.23869 0.0
C429 C 0.80145 0.7361 0.26613 0.0
C430 C 0.77179 0.80172 0.42793 0.0
C431 C 0.78535 0.71894 0.15366 0.0
H432 H 0.73767 0.70565 0.27231 0.0
H433 H 0.74251 0.83226 0.15033 0.0
H434 H 0.77022 0.66996 0.3004 0.0
H435 H 0.76545 0.69896 0.39654 0.0
H436 H 0.75448 0.66404 0.34493 0.0
H437 H 0.76191 0.86616 0.15453 0.0
H438 H 0.77134 0.85388 0.24941 0.0
H439 H 0.77587 0.8253 0.15241 0.0
H440 H 0.79747 0.78918 0.45704 0.0
H441 H 0.80895 0.71999 0.2255 0.0
H442 H 0.76468 0.77765 0.44538 0.0
H443 H 0.76642 0.83046 0.39437 0.0
H444 H 0.77598 0.81458 0.4872 0.0
H445 H 0.77855 0.69268 0.1624 0.0
H446 H 0.79412 0.70349 0.12047 0.0
H447 H 0.78049 0.74556 0.11221 0.0
C448 C 0.13625 0.92611 0.44989 0.0
C449 C 0.14388 0.89407 0.49834 0.0
C450 C 0.1377 0.97281 0.4559 0.0
C451 C 0.14701 0.98846 0.51196 0.0
C452 C 0.15474 0.95621 0.5613 0.0
C453 C 0.1531 0.90958 0.55379 0.0
C454 C 0.1293 1.00545 0.4014 0.0
C455 C 0.1648 0.97096 0.62182 0.0
C456 C 0.16 0.10222 0.4623 0.0
C457 C 0.15314 0.13211 0.51914 0.0
C458 C 0.15811 0.05584 0.45966 0.0
C459 C 0.14912 0.03816 0.51537 0.0
C460 C 0.14207 0.06822 0.57272 0.0
C461 C 0.14413 0.11475 0.57381 0.0
C462 C 0.1658 0.02569 0.39689 0.0
C463 C 0.13238 0.05115 0.63329 0.0
H464 H 0.12909 0.91462 0.40683 0.0
H465 H 0.15903 0.88524 0.5917 0.0
H466 H 0.12391 0.03129 0.44201 0.0
H467 H 0.13544 0.02355 0.35776 0.0
H468 H 0.12226 0.98823 0.36283 0.0
H469 H 0.16968 0.94217 0.65812 0.0
H470 H 0.17222 0.98765 0.58591 0.0
H471 H 0.16027 0.99616 0.6675 0.0
H472 H 0.16695 0.11514 0.41945 0.0
H473 H 0.13878 0.13742 0.61802 0.0
H474 H 0.15916 0.00956 0.35355 0.0
H475 H 0.1716 0.99815 0.43115 0.0
H476 H 0.17244 0.04448 0.35794 0.0
H477 H 0.12476 0.03563 0.59705 0.0
H478 H 0.12771 0.07849 0.67419 0.0
H479 H 0.13721 0.02442 0.67464 0.0
C480 C 0.88381 0.41825 0.45603 0.0
C481 C 0.89035 0.3885 0.51453 0.0
C482 C 0.88567 0.46463 0.45402 0.0
C483 C 0.89433 0.48248 0.51193 0.0
C484 C 0.90107 0.45257 0.57095 0.0
C485 C 0.89902 0.40602 0.57152 0.0
C486 C 0.87829 0.49462 0.3896 0.0
C487 C 0.91041 0.46984 0.63376 0.0
C488 C 0.90721 0.59464 0.44794 0.0
C489 C 0.89927 0.62671 0.49439 0.0
C490 C 0.90591 0.54787 0.45457 0.0
C491 C 0.89639 0.5322 0.509 0.0
C492 C 0.88837 0.56447 0.55641 0.0
C493 C 0.88988 0.61116 0.54852 0.0
C494 C 0.91465 0.51519 0.40231 0.0
C495 C 0.87807 0.5497 0.61499 0.0
H496 H 0.87712 0.40522 0.41141 0.0
H497 H 0.90411 0.38346 0.61701 0.0
H498 H 0.87231 0.5222 0.42259 0.0
H499 H 0.88513 0.51069 0.34776 0.0
H500 H 0.87186 0.47571 0.34919 0.0
H501 H 0.91487 0.44262 0.67572 0.0
H502 H 0.91821 0.48532 0.59933 0.0
H503 H 0.90535 0.49664 0.67396 0.0
H504 H 0.91451 0.60615 0.406 0.0
H505 H 0.88371 0.63552 0.58488 0.0
H506 H 0.9088 0.49696 0.35699 0.0
H507 H 0.91981 0.48945 0.44425 0.0
H508 H 0.92191 0.5324 0.3657 0.0
H509 H 0.87083 0.53285 0.57762 0.0
H510 H 0.873 0.57851 0.65034 0.0
H511 H 0.88241 0.52463 0.6615 0.0
C512 C 0.89779 0.9054 0.47525 0.0
C513 C 0.88811 0.88749 0.52345 0.0
C514 C 0.89935 0.95229 0.47658 0.0
C515 C 0.89104 0.98219 0.52717 0.0
C516 C 0.88125 0.96405 0.57564 0.0
C517 C 0.87994 0.91727 0.5733 0.0
C518 C 0.90996 0.96986 0.4242 0.0
C519 C 0.87218 0.99408 0.63083 0.0
C520 C 0.90202 0.09491 0.60438 0.0
C521 C 0.89542 0.12656 0.54966 0.0
C522 C 0.90085 0.04816 0.59671 0.0
C523 C 0.89282 0.03203 0.53275 0.0
C524 C 0.88607 0.06386 0.47735 0.0
C525 C 0.88745 0.11062 0.48641 0.0
C526 C 0.9082 0.01598 0.65766 0.0
C527 C 0.87735 0.04849 0.40861 0.0
H528 H 0.90413 0.8828 0.43644 0.0
H529 H 0.87243 0.90394 0.611 0.0
H530 H 0.90581 0.99633 0.37974 0.0
H531 H 0.91679 0.98582 0.46641 0.0
H532 H 0.91545 0.94269 0.38689 0.0
H533 H 0.86483 0.97508 0.66278 0.0
H534 H 0.87775 0.01052 0.68032 0.0
H535 H 0.86711 0.02138 0.59189 0.0
H536 H 0.90821 0.10671 0.65351 0.0
H537 H 0.88233 0.13468 0.44365 0.0
H538 H 0.91445 0.99026 0.62178 0.0
H539 H 0.90132 0.99767 0.6954 0.0
H540 H 0.91434 0.03361 0.70224 0.0
H541 H 0.88285 0.02366 0.36648 0.0
H542 H 0.87303 0.07706 0.36924 0.0
H543 H 0.86942 0.03115 0.43765 0.0
C544 C 0.1447 0.61508 0.48045 0.0
C545 C 0.15432 0.63302 0.52925 0.0
C546 C 0.14304 0.56825 0.48233 0.0
C547 C 0.15117 0.53848 0.53429 0.0
C548 C 0.16086 0.55669 0.58363 0.0
C549 C 0.16229 0.60337 0.58055 0.0
C550 C 0.13256 0.55061 0.42885 0.0
C551 C 0.16973 0.5268 0.64035 0.0
C552 C 0.13992 0.42588 0.6101 0.0
C553 C 0.14673 0.39414 0.55647 0.0
C554 C 0.14112 0.47264 0.60259 0.0
C555 C 0.14936 0.48866 0.53979 0.0
C556 C 0.15629 0.45673 0.48543 0.0
C557 C 0.15491 0.40999 0.49443 0.0
C558 C 0.13358 0.50494 0.66248 0.0
C559 C 0.16523 0.47196 0.41783 0.0
H560 H 0.1385 0.63758 0.44058 0.0
H561 H 0.16974 0.61674 0.61878 0.0
H562 H 0.13682 0.52398 0.385 0.0
H563 H 0.12561 0.53482 0.47034 0.0
H564 H 0.12719 0.57769 0.39076 0.0
H565 H 0.17694 0.54589 0.67349 0.0
H566 H 0.16397 0.51044 0.6889 0.0
H567 H 0.17495 0.49944 0.60227 0.0
H568 H 0.13356 0.41413 0.65826 0.0
H569 H 0.16018 0.38587 0.45247 0.0
H570 H 0.12743 0.53054 0.62571 0.0
H571 H 0.14033 0.52338 0.70103 0.0
H572 H 0.12731 0.48739 0.7063 0.0
H573 H 0.15986 0.49682 0.37512 0.0
H574 H 0.16962 0.44332 0.37888 0.0
H575 H 0.17309 0.48919 0.44792 0.0
C576 C 0.66088 0.60563 0.96674 0.0
C577 C 0.65344 0.63546 1.02079 0.0
C578 C 0.65936 0.55904 0.96477 0.0
C579 C 0.6501 0.54112 1.01797 0.0
C580 C 0.64245 0.57107 0.07251 0.0
C581 C 0.64421 0.61783 0.07333 0.0
C582 C 0.66771 0.52894 0.90529 0.0
C583 C 0.63242 0.55366 0.12998 0.0
C584 C 0.63859 0.42822 0.94642 0.0
C585 C 0.64595 0.39668 0.9975 0.0
C586 C 0.63961 0.47507 0.95397 0.0
C587 C 0.64826 0.49133 1.01397 0.0
C588 C 0.65571 0.4596 0.06593 0.0
C589 C 0.65447 0.41279 0.05713 0.0
C590 C 0.6315 0.50719 0.89683 0.0
C591 C 0.66512 0.47511 0.13036 0.0
H592 H 0.66801 0.61876 0.92558 0.0
H593 H 0.63842 0.64048 0.11534 0.0
H594 H 0.67326 0.5017 0.94184 0.0
H595 H 0.66155 0.51243 0.85935 0.0
H596 H 0.67463 0.54788 0.86905 0.0
H597 H 0.62735 0.58092 0.16924 0.0
H598 H 0.62515 0.53763 0.09137 0.0
H599 H 0.63703 0.52726 0.17291 0.0
H600 H 0.63195 0.41625 0.90022 0.0
H601 H 0.66017 0.38879 0.09709 0.0
H602 H 0.63787 0.52547 0.85508 0.0
H603 H 0.62572 0.53294 0.93561 0.0
H604 H 0.62482 0.48951 0.85614 0.0
H605 H 0.67275 0.49219 0.09743 0.0
H606 H 0.66979 0.44663 0.16846 0.0
H607 H 0.66007 0.50017 0.1742 0.0
C608 C 0.38026 0.91264 0.98617 0.0
C609 C 0.38809 0.88302 0.03839 0.0
C610 C 0.38182 0.9592 0.98231 0.0
C611 C 0.3915 0.97735 0.03179 0.0
C612 C 0.39947 0.94763 0.08482 0.0
C613 C 0.39769 0.9009 0.08747 0.0
C614 C 0.37311 0.98901 0.9245 0.0
C615 C 0.40994 0.96523 0.13853 0.0
C616 C 0.40302 0.08916 0.95366 0.0
C617 C 0.39615 0.12139 1.00598 0.0
C618 C 0.40179 0.04248 0.96252 0.0
C619 C 0.39345 0.02704 1.02536 0.0
C620 C 0.38647 0.05948 0.07848 0.0
C621 C 0.38788 0.10611 0.06815 0.0
C622 C 0.40937 0.00962 0.9039 0.0
C623 C 0.37743 0.04492 0.14607 0.0
H624 H 0.37283 0.89933 0.94768 0.0
H625 H 0.40379 0.87841 0.12794 0.0
H626 H 0.36791 0.01676 0.96172 0.0
H627 H 0.37898 1.00484 0.87592 0.0
H628 H 0.36587 0.96999 0.89137 0.0
H629 H 0.41514 0.93826 0.17777 0.0
H630 H 0.41703 0.98029 0.09706 0.0
H631 H 0.4057 0.99241 0.18128 0.0
H632 H 0.40944 0.10046 0.90546 0.0
H633 H 0.38256 0.13061 0.10914 0.0
H634 H 0.40264 0.99116 0.86517 0.0
H635 H 0.41539 0.98409 0.94165 0.0
H636 H 0.41577 0.02671 0.86024 0.0
H637 H 0.36954 0.02782 0.11601 0.0
H638 H 0.37307 0.07387 0.18439 0.0
H639 H 0.38269 0.0201 0.18938 0.0
C640 C 0.39869 0.40106 0.98436 0.0
C641 C 0.38971 0.3837 0.03922 0.0
C642 C 0.40069 0.44766 0.98502 0.0
C643 C 0.39359 0.47777 0.04206 0.0
C644 C 0.38459 0.4601 0.09778 0.0
C645 C 0.38279 0.41367 0.09563 0.0
C646 C 0.41039 0.46472 0.92452 0.0
C647 C 0.37685 0.49031 0.16022 0.0
C648 C 0.40639 0.58948 0.10973 0.0
C649 C 0.39877 0.62177 0.06176 0.0
C650 C 0.40499 0.54281 0.10255 0.0
C651 C 0.39572 0.52742 0.04584 0.0
C652 C 0.38803 0.55991 0.99678 0.0
C653 C 0.38962 0.60654 1.00541 0.0
C654 C 0.41336 0.50994 0.15678 0.0
C655 C 0.37802 0.54541 0.93564 0.0
H656 H 0.40408 0.37833 0.94047 0.0
H657 H 0.37585 0.40076 0.13861 0.0
H658 H 0.40558 0.4916 0.88339 0.0
H659 H 0.41803 0.48005 0.96085 0.0
H660 H 0.41502 0.43742 0.88341 0.0
H661 H 0.37014 0.47158 0.1987 0.0
H662 H 0.38345 0.50627 0.20404 0.0
H663 H 0.37113 0.51795 0.12578 0.0
H664 H 0.41348 0.60075 0.15351 0.0
H665 H 0.3837 0.6311 0.96792 0.0
H666 H 0.41871 0.48406 0.11601 0.0
H667 H 0.4072 0.4919 0.20038 0.0
H668 H 0.42043 0.52695 0.19542 0.0
H669 H 0.38257 0.52024 0.88999 0.0
H670 H 0.37321 0.57434 0.89935 0.0
H671 H 0.37054 0.52877 0.97106 0.0
C672 C 0.64468 0.11723 0.98213 0.0
C673 C 0.65409 0.1348 0.03333 0.0
C674 C 0.64289 0.07051 0.98319 0.0
C675 C 0.65068 0.04047 0.03663 0.0
C676 C 0.66016 0.0583 0.08837 0.0
C677 C 0.6617 0.10489 0.08619 0.0
C678 C 0.63263 0.05324 0.92724 0.0
C679 C 0.66868 0.0281 0.14664 0.0
C680 C 0.63899 0.92802 0.10918 0.0
C681 C 0.64603 0.89629 0.05669 0.0
C682 C 0.64023 0.97476 0.1021 0.0
C683 C 0.64876 0.99074 0.04108 0.0
C684 C 0.65592 0.95882 0.98787 0.0
C685 C 0.65447 0.91211 0.99626 0.0
C686 C 0.63243 1.0071 0.1606 0.0
C687 C 0.66519 0.97401 0.92232 0.0
H688 H 0.63875 0.13995 0.94106 0.0
H689 H 0.66899 0.11796 0.12628 0.0
H690 H 0.63706 0.02668 0.88386 0.0
H691 H 0.62546 0.03746 0.96699 0.0
H692 H 0.62748 0.08054 0.88852 0.0
H693 H 0.67578 0.04691 0.18159 0.0
H694 H 0.66266 0.0118 0.19368 0.0
H695 H 0.67404 1.00069 0.10936 0.0
H696 H 0.63243 0.91629 0.15605 0.0
H697 H 0.65993 0.88797 0.95524 0.0
H698 H 0.62653 0.03292 0.12277 0.0
H699 H 0.63901 0.02526 0.20103 0.0
H700 H 0.62589 0.98961 0.20263 0.0
H701 H 0.66006 0.99898 0.87875 0.0
H702 H 0.66974 0.94537 0.88403 0.0
H703 H 0.67292 0.9911 0.95422 0.0
C704 C 0.15536 0.296 0.22728 0.0
C705 C 0.14995 0.26225 0.2741 0.0
C706 C 0.1553 0.29569 0.13762 0.0
C707 C 0.15011 0.25991 0.09328 0.0
C708 C 0.14486 0.22527 0.14047 0.0
C709 C 0.14464 0.22727 0.2301 0.0
C710 C 0.16064 0.33408 0.09034 0.0
C711 C 0.13958 0.18579 0.09629 0.0
C712 C 0.13902 0.27696 0.8626 0.0
C713 C 0.14986 0.25861 0.81676 0.0
C714 C 0.13905 0.27812 0.95219 0.0
C715 C 0.15002 0.25912 0.99769 0.0
C716 C 0.16091 0.23977 0.95163 0.0
C717 C 0.16078 0.24046 0.86188 0.0
C718 C 0.12738 0.30037 0.99816 0.0
C719 C 0.17266 0.21793 0.99718 0.0
H720 H 0.15941 0.32329 0.26087 0.0
H721 H 0.14057 0.20084 0.26591 0.0
H722 H 0.16889 0.32092 0.04993 0.0
H723 H 0.15313 0.35052 0.04745 0.0
H724 H 0.16395 0.36006 0.134 0.0
H725 H 0.1364 0.16054 0.142 0.0
H726 H 0.13123 0.19792 0.05581 0.0
H727 H 0.14705 0.16876 0.05383 0.0
H728 H 0.13059 0.29147 0.82822 0.0
H729 H 0.16916 0.22597 0.82695 0.0
H730 H 0.13031 0.32784 0.03976 0.0
H731 H 0.12314 0.27547 0.03973 0.0
H732 H 0.11979 0.31484 0.95362 0.0
H733 H 0.17706 0.24336 0.03673 0.0
H734 H 0.1801 0.20262 0.95239 0.0
H735 H 0.1698 0.19122 0.04073 0.0
C736 C 0.8823 0.27683 0.22228 0.0
C737 C 0.89303 0.25645 0.26641 0.0
C738 C 0.88224 0.27955 0.13285 0.0
C739 C 0.89296 0.25972 0.08587 0.0
C740 C 0.90375 0.23841 0.13035 0.0
C741 C 0.90377 0.2379 0.22007 0.0
C742 C 0.87075 0.30414 0.0887 0.0
C743 C 0.91518 0.21541 0.08314 0.0
C744 C 0.88657 0.22979 0.85396 0.0
C745 C 0.89244 0.26339 0.80974 0.0
C746 C 0.88691 0.22764 0.94348 0.0
C747 C 0.89281 0.26098 0.99037 0.0
C748 C 0.89848 0.29567 0.9458 0.0
C749 C 0.89846 0.29588 0.85611 0.0
C750 C 0.88115 0.18916 0.98783 0.0
C751 C 0.90443 0.33289 0.99286 0.0
H752 H 0.87404 0.29167 0.25802 0.0
H753 H 0.91205 0.2219 0.25403 0.0
H754 H 0.874 0.33091 0.04674 0.0
H755 H 0.86593 0.28036 0.04774 0.0
H756 H 0.86353 0.31995 0.13444 0.0
H757 H 0.92257 0.1988 0.12683 0.0
H758 H 0.9119 0.18952 0.03925 0.0
H759 H 0.91979 0.24037 0.04378 0.0
H760 H 0.88204 0.20427 0.81831 0.0
H761 H 0.90295 0.32205 0.82215 0.0
H762 H 0.87305 0.20252 0.02933 0.0
H763 H 0.88852 0.17079 0.02929 0.0
H764 H 0.87749 0.16477 0.94223 0.0
H765 H 0.89726 0.34999 0.03735 0.0
H766 H 0.90786 0.35858 0.94908 0.0
H767 H 0.91273 0.31844 0.03155 0.0
C768 C 0.13732 0.77657 0.1878 0.0
C769 C 0.14832 0.76061 0.23455 0.0
C770 C 0.1375 0.77757 0.09806 0.0
C771 C 0.14881 0.76084 0.05339 0.0
C772 C 0.15986 0.74381 0.10044 0.0
C773 C 0.15955 0.7446 0.19013 0.0
C774 C 0.12562 0.79725 0.05103 0.0
C775 C 0.172 0.72436 0.056 0.0
C776 C 0.14487 0.72627 0.82065 0.0
C777 C 0.14966 0.76225 0.77658 0.0
C778 C 0.14474 0.725 0.91035 0.0
C779 C 0.14912 0.7613 0.95767 0.0
C780 C 0.15381 0.79802 0.91328 0.0
C781 C 0.15422 0.79769 0.82357 0.0
C782 C 0.14004 0.68451 0.9545 0.0
C783 C 0.15824 0.83804 0.96058 0.0
H784 H 0.12864 0.78938 0.22153 0.0
H785 H 0.16806 0.73189 0.22564 0.0
H786 H 0.12811 0.82544 1.0097 0.0
H787 H 0.12196 0.77126 1.00906 0.0
H788 H 0.11773 0.81012 0.09488 0.0
H789 H 0.17957 0.71071 0.10148 0.0
H790 H 0.16973 0.69682 1.01233 0.0
H791 H 0.176 0.75077 1.01674 0.0
H792 H 0.14142 0.69859 0.78488 0.0
H793 H 0.15783 0.82581 0.79005 0.0
H794 H 0.13143 0.69517 0.99382 0.0
H795 H 0.14763 0.6692 0.99809 0.0
H796 H 0.13745 0.65826 0.90883 0.0
H797 H 0.15035 0.85308 1.00224 0.0
H798 H 0.16118 0.86462 0.9169 0.0
H799 H 0.16654 0.82693 1.00224 0.0
C800 C 0.89801 0.79341 0.81679 0.0
C801 C 0.89325 0.75747 0.77237 0.0
C802 C 0.89808 0.79462 0.90648 0.0
C803 C 0.89365 0.75831 0.95341 0.0
C804 C 0.88899 0.72162 0.90868 0.0
C805 C 0.88865 0.722 0.81897 0.0
C806 C 0.90276 0.83506 0.95103 0.0
C807 C 0.88453 0.68158 0.9556 0.0
C808 C 0.90536 0.74302 0.1836 0.0
C809 C 0.89435 0.75907 0.23018 0.0
C810 C 0.90521 0.74193 0.09389 0.0
C811 C 0.89391 0.75868 0.0491 0.0
C812 C 0.88285 0.77573 0.09597 0.0
C813 C 0.88313 0.77501 0.18566 0.0
C814 C 0.9171 0.72221 0.04703 0.0
C815 C 0.87072 0.79518 0.05135 0.0
H816 H 0.90149 0.82112 0.78129 0.0
H817 H 0.88505 0.69393 0.78516 0.0
H818 H 0.89514 0.85035 0.99446 0.0
H819 H 0.91134 0.82436 0.99056 0.0
H820 H 0.90539 0.86134 0.90561 0.0
H821 H 0.88161 0.65504 0.91167 0.0
H822 H 0.89239 0.66648 0.99741 0.0
H823 H 0.8762 0.69267 0.99707 0.0
H824 H 0.91403 0.73026 0.21745 0.0
H825 H 0.87461 0.78778 0.22108 0.0
H826 H 0.9208 0.74823 1.00543 0.0
H827 H 0.91461 0.69413 1.00535 0.0
H828 H 0.92495 0.70918 0.09099 0.0
H829 H 0.87301 0.82281 1.008 0.0
H830 H 0.86313 0.80874 0.09673 0.0
H831 H 0.86676 0.76883 1.01173 0.0
C832 C 0.64361 0.72874 0.3617 0.0
C833 C 0.64973 0.76106 0.31557 0.0
C834 C 0.64373 0.72848 0.45142 0.0
C835 C 0.64962 0.76257 0.49638 0.0
C836 C 0.65562 0.79575 0.44974 0.0
C837 C 0.65583 0.79402 0.36013 0.0
C838 C 0.63767 0.6914 0.49808 0.0
C839 C 0.66161 0.83366 0.49445 0.0
C840 C 0.63878 0.78535 0.72649 0.0
C841 C 0.64947 0.76629 0.77263 0.0
C842 C 0.6388 0.78517 0.63676 0.0
C843 C 0.64952 0.76357 0.59198 0.0
C844 C 0.6602 0.74321 0.6388 0.0
C845 C 0.66016 0.74572 0.72835 0.0
C846 C 0.62744 0.80884 0.58988 0.0
C847 C 0.6716 0.71821 0.59437 0.0
H848 H 0.63895 0.70302 0.3275 0.0
H849 H 0.66045 0.81937 0.32469 0.0
H850 H 0.64481 0.67393 0.54235 0.0
H851 H 0.62942 0.70604 0.53697 0.0
H852 H 0.63415 0.66599 0.45403 0.0
H853 H 0.66535 0.85796 0.44908 0.0
H854 H 0.65435 0.85229 0.53638 0.0
H855 H 0.66969 0.81973 0.53553 0.0
H856 H 0.63055 0.80152 0.76068 0.0
H857 H 0.66838 0.73055 0.76402 0.0
H858 H 0.62268 0.78422 0.5505 0.0
H859 H 0.63082 0.83453 0.54605 0.0
H860 H 0.62014 0.8258 0.6338 0.0
H861 H 0.66823 0.69177 0.55207 0.0
H862 H 0.67876 0.70195 0.63994 0.0
H863 H 0.67651 0.74184 0.55372 0.0
C864 C 0.38271 0.76655 0.74265 0.0
C865 C 0.39404 0.7511 0.7863 0.0
C866 C 0.38243 0.76933 0.65316 0.0
C867 C 0.39361 0.75448 0.60541 0.0
C868 C 0.40503 0.7381 0.64938 0.0
C869 C 0.40519 0.73755 0.73922 0.0
C870 C 0.37019 0.78873 0.60976 0.0
C871 C 0.41703 0.72036 0.60149 0.0
C872 C 0.38809 0.72177 0.37335 0.0
C873 C 0.39248 0.75827 0.32875 0.0
C874 C 0.38867 0.71965 0.46293 0.0
C875 C 0.39327 0.75575 0.50971 0.0
C876 C 0.39742 0.79324 0.46479 0.0
C877 C 0.39723 0.79359 0.37503 0.0
C878 C 0.38456 0.67831 0.50744 0.0
C879 C 0.40192 0.83329 0.51159 0.0
H880 H 0.3741 0.77756 0.77882 0.0
H881 H 0.41395 0.72534 0.77267 0.0
H882 H 0.3723 0.8171 0.56766 0.0
H883 H 0.36631 0.76265 0.56906 0.0
H884 H 0.36259 0.80124 0.65597 0.0
H885 H 0.42495 0.7071 0.64474 0.0
H886 H 0.41474 0.69289 0.5577 0.0
H887 H 0.42055 0.74758 0.56196 0.0
H888 H 0.38457 0.6941 0.33794 0.0
H889 H 0.40058 0.82198 0.34095 0.0
H890 H 0.37619 0.6879 0.54949 0.0
H891 H 0.39254 0.66326 0.54838 0.0
H892 H 0.38184 0.65218 0.46195 0.0
H893 H 0.39434 0.84708 0.55669 0.0
H894 H 0.40423 0.8607 0.46769 0.0
H895 H 0.41066 0.82258 0.54959 0.0
C896 C 0.65522 0.29954 0.32651 0.0
C897 C 0.64999 0.26543 0.27955 0.0
C898 C 0.65517 0.29918 0.41618 0.0
C899 C 0.65018 0.26299 0.46039 0.0
C900 C 0.64511 0.22799 0.41304 0.0
C901 C 0.64488 0.23004 0.32342 0.0
C902 C 0.6603 0.33793 0.46363 0.0
C903 C 0.64004 0.18809 0.45704 0.0
C904 C 0.66092 0.24394 0.69175 0.0
C905 C 0.64992 0.26133 0.73693 0.0
C906 C 0.66105 0.24338 0.60199 0.0
C907 C 0.65009 0.26213 0.55599 0.0
C908 C 0.63903 0.28039 0.60155 0.0
C909 C 0.63901 0.27907 0.69115 0.0
C910 C 0.6729 0.22231 0.55637 0.0
C911 C 0.62728 0.302 0.55566 0.0
H912 H 0.65911 0.32714 0.29303 0.0
H913 H 0.64094 0.20331 0.28752 0.0
H914 H 0.65272 0.35392 0.50656 0.0
H915 H 0.66861 0.32524 0.50401 0.0
H916 H 0.66348 0.36416 0.42008 0.0
H917 H 0.63701 0.16262 0.41122 0.0
H918 H 0.64759 0.17151 0.49947 0.0
H919 H 0.63164 0.19969 0.49753 0.0
H920 H 0.66936 0.22992 0.72664 0.0
H921 H 0.63051 0.29302 0.72558 0.0
H922 H 0.67716 0.24809 0.51696 0.0
H923 H 0.67018 0.1954 0.51268 0.0
H924 H 0.6804 0.20742 0.60111 0.0
H925 H 0.63006 0.32971 0.5142 0.0
H926 H 0.61963 0.31601 0.60026 0.0
H927 H 0.62317 0.27683 0.51397 0.0
C928 C 0.38749 0.21928 0.33245 0.0
C929 C 0.39294 0.25299 0.28577 0.0
C930 C 0.38753 0.21954 0.4221 0.0
C931 C 0.39274 0.25524 0.46657 0.0
C932 C 0.39804 0.28983 0.4195 0.0
C933 C 0.39828 0.28787 0.32988 0.0
C934 C 0.38215 0.1812 0.46925 0.0
C935 C 0.40335 0.32922 0.46382 0.0
C936 C 0.38206 0.27475 0.6979 0.0
C937 C 0.39297 0.25651 0.74306 0.0
C938 C 0.38194 0.27543 0.60816 0.0
C939 C 0.39283 0.25598 0.56215 0.0
C940 C 0.40378 0.23686 0.60768 0.0
C941 C 0.4038 0.23804 0.69727 0.0
C942 C 0.37021 0.29739 0.56256 0.0
C943 C 0.41543 0.21449 0.56175 0.0
H944 H 0.38343 0.19207 0.29876 0.0
H945 H 0.40238 0.31428 0.29417 0.0
H946 H 0.38964 0.16466 0.51218 0.0
H947 H 0.3739 0.19442 0.50959 0.0
H948 H 0.37882 0.15529 0.42549 0.0
H949 H 0.40656 0.35445 0.4182 0.0
H950 H 0.39588 0.3463 0.50624 0.0
H951 H 0.41169 0.31699 0.50436 0.0
H952 H 0.37369 0.28934 0.73281 0.0
H953 H 0.41221 0.22346 0.73168 0.0
H954 H 0.3658 0.27205 0.52287 0.0
H955 H 0.3731 0.32412 0.51914 0.0
H956 H 0.36278 0.31272 0.60732 0.0
H957 H 0.41248 0.18711 0.52002 0.0
H958 H 0.423 0.19988 0.60632 0.0
H959 H 0.41971 0.23936 0.52031 0.0
C960 C 0.0495 0.23573 0.5787 0.0
C961 C 0.0561 0.25463 0.5115 0.0
C962 C 0.03591 0.23744 0.57977 0.0
C963 C 0.02865 0.25872 0.5122 0.0
C964 C 0.03523 0.27771 0.44406 0.0
C965 C 0.04883 0.27534 0.4444 0.0
C966 C 0.02931 0.21666 0.65361 0.0
C967 C 0.0279 0.30062 0.37063 0.0
C968 C 0.99427 0.22743 0.4758 0.0
C969 C 0.98676 0.26359 0.51443 0.0
C970 C 1.00785 0.22552 0.47443 0.0
C971 C 1.01418 0.26069 0.51234 0.0
C972 C 1.00667 0.29759 0.55054 0.0
C973 C 0.99309 0.29861 0.5511 0.0
C974 C 1.01544 0.18564 0.43272 0.0
C975 C 1.01301 0.33581 0.59168 0.0
H976 H 0.05495 0.22025 0.63155 0.0
H977 H 0.05377 0.28948 0.39147 0.0
H978 H 0.02275 0.24285 0.68613 0.0
H979 H 0.02327 0.19035 0.63015 0.0
H980 H 0.03631 0.20107 0.70089 0.0
H981 H 0.03443 0.31412 0.32291 0.0
H982 H 0.02201 0.27637 0.33851 0.0
H983 H 1.02114 0.32892 0.39448 0.0
H984 H 0.98952 0.20054 0.44601 0.0
H985 H 0.98742 0.32644 0.58198 0.0
H986 H 0.02203 0.16778 0.47978 0.0
H987 H 0.02153 0.19749 0.38089 0.0
H988 H 1.00908 0.16114 0.40576 0.0
H989 H 1.01936 0.32253 0.64441 0.0
H990 H 1.00583 0.36242 0.61737 0.0
H991 H 1.0192 0.35147 0.54479 0.0
C992 C 0.99424 0.73593 0.52666 0.0
C993 C 0.98656 0.76414 0.47108 0.0
C994 C 1.00784 0.73469 0.52608 0.0
C995 C 1.01407 0.76227 0.46849 0.0
C996 C 1.00642 0.7902 0.41113 0.0
C997 C 0.99283 0.79084 0.41317 0.0
C998 C 1.01553 0.70453 0.5887 0.0
C999 C 1.0126 0.81993 0.34821 0.0
C1000 C 0.04783 0.79326 0.52883 0.0
C1001 C 0.05599 0.76204 0.48175 0.0
C1002 C 0.03426 0.79398 0.52432 0.0
C1003 C 0.02854 0.76308 0.47066 0.0
C1004 C 0.03667 0.7323 0.42112 0.0
C1005 C 0.05024 0.73205 0.42741 0.0
C1006 C 0.02604 0.82747 0.5783 0.0
C1007 C 0.03104 0.69892 0.36264 0.0
H1008 H 0.98959 0.71563 0.57264 0.0
H1009 H 0.98708 0.81234 0.36907 0.0
H1010 H 0.02281 0.68151 0.5546 0.0
H1011 H 1.02087 0.72545 0.63251 0.0
H1012 H 1.00932 0.68384 0.62712 0.0
H1013 H 1.00539 0.83841 0.30567 0.0
H1014 H 1.01793 0.84499 0.38271 0.0
H1015 H 1.01973 0.79924 0.30855 0.0
H1016 H 0.05204 0.81731 0.56975 0.0
H1017 H 0.05633 0.70738 0.39132 0.0
H1018 H 1.02013 0.80915 0.62303 0.0
H1019 H 1.01926 0.84888 0.53746 0.0
H1020 H 0.03193 0.84978 0.61569 0.0
H1021 H 0.02568 0.6753 0.4005 0.0
H1022 H 0.03859 0.67889 0.32489 0.0
H1023 H 0.02403 0.7169 0.31824 0.0
C1024 C 0.54746 0.7808 0.05913 0.0
C1025 C 0.55559 0.74738 1.01712 0.0
C1026 C 0.53391 0.7807 0.05723 0.0
C1027 C 0.52818 0.74634 1.0122 0.0
C1028 C 0.5363 0.71224 0.97029 0.0
C1029 C 0.54986 0.71311 0.97336 0.0
C1030 C 0.5257 0.81757 0.10343 0.0
C1031 C 0.53065 0.67501 0.92142 0.0
C1032 C 0.4934 0.72633 0.07104 0.0
C1033 C 0.48615 0.75077 1.00789 0.0
C1034 C 0.50702 0.72387 0.07225 0.0
C1035 C 0.5137 0.74641 1.00887 0.0
C1036 C 0.50647 0.77043 0.94407 0.0
C1037 C 0.49286 0.77231 0.94434 0.0
C1038 C 0.51426 0.69796 0.14272 0.0
C1039 C 0.51313 0.79485 0.87502 0.0
H1040 H 0.55171 0.80702 0.09446 0.0
H1041 H 0.55597 0.68735 0.93994 0.0
H1042 H 0.51912 0.83667 0.05785 0.0
H1043 H 0.51957 0.80249 0.15147 0.0
H1044 H 0.53161 0.8417 0.13601 0.0
H1045 H 0.53823 0.65062 0.8933 0.0
H1046 H 0.5245 0.65632 0.96394 0.0
H1047 H 0.52438 0.68976 0.8695 0.0
H1048 H 0.48841 0.71009 0.12133 0.0
H1049 H 0.48745 0.79079 0.8945 0.0
H1050 H 0.5195 0.72141 0.18186 0.0
H1051 H 0.52159 0.6724 0.11556 0.0
H1052 H 0.50773 0.68052 0.18492 0.0
H1053 H 0.51852 0.82164 0.90362 0.0
H1054 H 0.50622 0.81067 0.82746 0.0
H1055 H 0.52028 0.77101 0.84165 0.0
C1056 C 0.49435 0.23174 0.10042 0.0
C1057 C 0.48684 0.26089 0.04553 0.0
C1058 C 0.50794 0.22973 0.10031 0.0
C1059 C 0.5143 0.25796 0.04478 0.0
C1060 C 0.50681 0.2879 0.99001 0.0
C1061 C 0.49323 0.28886 0.99074 0.0
C1062 C 0.5155 0.19719 0.15957 0.0
C1063 C 0.51316 0.31884 0.93021 0.0
C1064 C 0.54877 0.2825 0.09944 0.0
C1065 C 0.55622 0.2537 0.04358 0.0
C1066 C 0.53518 0.28437 0.10015 0.0
C1067 C 0.52876 0.25634 0.04446 0.0
C1068 C 0.53619 0.2267 0.98879 0.0
C1069 C 0.54977 0.22588 0.98873 0.0
C1070 C 0.52768 0.31659 0.16037 0.0
C1071 C 0.52978 0.19599 0.92878 0.0
H1072 H 0.4896 0.21052 0.14422 0.0
H1073 H 0.48762 0.31104 0.94708 0.0
H1074 H 0.52227 0.17368 0.12245 0.0
H1075 H 0.52141 0.21601 0.20353 0.0
H1076 H 0.50915 0.17699 0.1979 0.0
H1077 H 0.506 0.34079 0.89282 0.0
H1078 H 0.51929 0.34067 0.96671 0.0
H1079 H 0.51959 0.29854 0.88539 0.0
H1080 H 0.55356 0.30359 0.1433 0.0
H1081 H 0.55533 0.20395 0.94436 0.0
H1082 H 0.52182 0.29754 0.20415 0.0
H1083 H 0.52088 0.34031 0.12399 0.0
H1084 H 0.53408 0.33657 0.19889 0.0
H1085 H 0.52368 0.17404 0.96518 0.0
H1086 H 0.5369 0.17418 0.8908 0.0
H1087 H 0.52331 0.21646 0.8845 0.0
loop_
_geom_bond_atom_site_label_1
_geom_bond_atom_site_label_2
_geom_bond_distance
_geom_bond_site_symmetry_2
_ccdc_geom_bond_type
La0 C2 2.928 . S
La0 O20 2.521 . S
La0 O21 2.628 . S
La0 O22 2.554 . S
La0 O23 2.757 . S
La0 O24 2.470 . S
La0 O29 2.482 . S
La0 O31 2.503 . S
La1 C11 2.928 . S
La1 O23 2.482 . S
La1 O25 2.503 . S
La1 O26 2.521 . S
La1 O27 2.628 . S
La1 O28 2.554 . S
La1 O29 2.757 . S
La1 O30 2.470 . S
C2 La0 2.928 . S
C2 C3 1.503 . S
C2 O20 1.261 . S
C2 O21 1.243 . S
C3 C2 1.503 . S
C3 C4 1.394 . S
C3 C8 1.373 . S
C4 C3 1.394 . S
C4 C5 1.380 . S
C4 H32 0.930 . S
C5 C4 1.380 . S
C5 C6 1.376 . S
C5 H33 0.930 . S
C6 C5 1.376 . S
C6 C7 1.370 . S
C7 C6 1.370 . S
C7 C8 1.396 . S
C7 H34 0.929 . S
C8 C3 1.373 . S
C8 C7 1.396 . S
C8 H35 0.929 . S
C9 O22 1.240 . S
C9 O23 1.289 . S
C10 O24 1.258 . S
C10 O25 1.256 . S
C11 La1 2.928 . S
C11 C12 1.503 . S
C11 O26 1.261 . S
C11 O27 1.243 . S
C12 C11 1.503 . S
C12 C13 1.394 . S
C12 C17 1.373 . S
C13 C12 1.394 . S
C13 C14 1.380 . S
C13 H36 0.930 . S
C14 C13 1.380 . S
C14 C15 1.376 . S
C14 H37 0.930 . S
C15 C14 1.376 . S
C15 C16 1.370 . S
C16 C15 1.370 . S
C16 C17 1.396 . S
C16 H38 0.929 . S
C17 C12 1.373 . S
C17 C16 1.396 . S
C17 H39 0.929 . S
C18 O28 1.240 . S
C18 O29 1.289 . S
C19 O30 1.258 . S
C19 O31 1.256 . S
O20 La0 2.521 . S
O20 C2 1.261 . S
O21 La0 2.628 . S
O21 C2 1.243 . S
O22 La0 2.554 . S
O22 C9 1.240 . S
O23 La0 2.757 . S
O23 La1 2.482 . S
O23 C9 1.289 . S
O24 La0 2.470 . S
O24 C10 1.258 . S
O25 La1 2.503 . S
O25 C10 1.256 . S
O26 La1 2.521 . S
O26 C11 1.261 . S
O27 La1 2.628 . S
O27 C11 1.243 . S
O28 La1 2.554 . S
O28 C18 1.240 . S
O29 La0 2.482 . S
O29 La1 2.757 . S
O29 C18 1.289 . S
O30 La1 2.470 . S
O30 C19 1.258 . S
O31 La0 2.503 . S
O31 C19 1.256 . S
H32 C4 0.930 . S
H33 C5 0.930 . S
H34 C7 0.929 . S
H35 C8 0.929 . S
H36 C13 0.930 . S
H37 C14 0.930 . S
H38 C16 0.929 . S
H39 C17 0.929 . S
La40 C42 2.928 . S
La40 O60 2.521 . S
La40 O61 2.628 . S
La40 O62 2.554 . S
La40 O63 2.757 . S
La40 O64 2.470 . S
La40 O69 2.482 . S
La40 O71 2.503 . S
La41 C51 2.928 . S
La41 O63 2.482 . S
La41 O65 2.503 . S
La41 O66 2.521 . S
La41 O67 2.628 . S
La41 O68 2.554 . S
La41 O69 2.757 . S
La41 O70 2.470 . S
C42 La40 2.928 . S
C42 C43 1.503 . S
C42 O60 1.261 . S
C42 O61 1.243 . S
C43 C42 1.503 . S
C43 C44 1.394 . S
C43 C48 1.373 . S
C44 C43 1.394 . S
C44 C45 1.380 . S
C44 H72 0.930 . S
C45 C44 1.380 . S
C45 C46 1.376 . S
C45 H73 0.930 . S
C46 C45 1.376 . S
C46 C47 1.370 . S
C47 C46 1.370 . S
C47 C48 1.396 . S
C47 H74 0.929 . S
C48 C43 1.373 . S
C48 C47 1.396 . S
C48 H75 0.929 . S
C49 O62 1.240 . S
C49 O63 1.289 . S
C50 O64 1.258 . S
C50 O65 1.256 . S
C51 La41 2.928 . S
C51 C52 1.503 . S
C51 O66 1.261 . S
C51 O67 1.243 . S
C52 C51 1.503 . S
C52 C53 1.394 . S
C52 C57 1.373 . S
C53 C52 1.394 . S
C53 C54 1.380 . S
C53 H76 0.930 . S
C54 C53 1.380 . S
C54 C55 1.376 . S
C54 H77 0.930 . S
C55 C54 1.376 . S
C55 C56 1.370 . S
C56 C55 1.370 . S
C56 C57 1.396 . S
C56 H78 0.929 . S
C57 C52 1.373 . S
C57 C56 1.396 . S
C57 H79 0.929 . S
C58 O68 1.240 . S
C58 O69 1.289 . S
C59 O70 1.258 . S
C59 O71 1.256 . S
O60 La40 2.521 . S
O60 C42 1.261 . S
O61 La40 2.628 . S
O61 C42 1.243 . S
O62 La40 2.554 . S
O62 C49 1.240 . S
O63 La40 2.757 . S
O63 La41 2.482 . S
O63 C49 1.289 . S
O64 La40 2.470 . S
O64 C50 1.258 . S
O65 La41 2.503 . S
O65 C50 1.256 . S
O66 La41 2.521 . S
O66 C51 1.261 . S
O67 La41 2.628 . S
O67 C51 1.243 . S
O68 La41 2.554 . S
O68 C58 1.240 . S
O69 La40 2.482 . S
O69 La41 2.757 . S
O69 C58 1.289 . S
O70 La41 2.470 . S
O70 C59 1.258 . S
O71 La40 2.503 . S
O71 C59 1.256 . S
H72 C44 0.930 . S
H73 C45 0.930 . S
H74 C47 0.929 . S
H75 C48 0.929 . S
H76 C53 0.930 . S
H77 C54 0.930 . S
H78 C56 0.929 . S
H79 C57 0.929 . S
La80 C82 2.928 . S
La80 O100 2.521 . S
La80 O101 2.628 . S
La80 O102 2.554 . S
La80 O103 2.757 . S
La80 O104 2.470 . S
La80 O109 2.482 . S
La80 O111 2.503 . S
La81 C91 2.928 . S
La81 O103 2.482 . S
La81 O105 2.503 . S
La81 O106 2.521 . S
La81 O107 2.628 . S
La81 O108 2.554 . S
La81 O109 2.757 . S
La81 O110 2.470 . S
C82 La80 2.928 . S
C82 C83 1.503 . S
C82 O100 1.261 . S
C82 O101 1.243 . S
C83 C82 1.503 . S
C83 C84 1.394 . S
C83 C88 1.373 . S
C84 C83 1.394 . S
C84 C85 1.380 . S
C84 H112 0.930 . S
C85 C84 1.380 . S
C85 C86 1.376 . S
C85 H113 0.930 . S
C86 C85 1.376 . S
C86 C87 1.370 . S
C87 C86 1.370 . S
C87 C88 1.396 . S
C87 H114 0.929 . S
C88 C83 1.373 . S
C88 C87 1.396 . S
C88 H115 0.929 . S
C89 O102 1.240 . S
C89 O103 1.289 . S
C90 O104 1.258 . S
C90 O105 1.256 . S
C91 La81 2.928 . S
C91 C92 1.503 . S
C91 O106 1.261 . S
C91 O107 1.243 . S
C92 C91 1.503 . S
C92 C93 1.394 . S
C92 C97 1.373 . S
C93 C92 1.394 . S
C93 C94 1.380 . S
C93 H116 0.930 . S
C94 C93 1.380 . S
C94 C95 1.376 . S
C94 H117 0.930 . S
C95 C94 1.376 . S
C95 C96 1.370 . S
C96 C95 1.370 . S
C96 C97 1.396 . S
C96 H118 0.929 . S
C97 C92 1.373 . S
C97 C96 1.396 . S
C97 H119 0.929 . S
C98 O108 1.240 . S
C98 O109 1.289 . S
C99 O110 1.258 . S
C99 O111 1.256 . S
O100 La80 2.521 . S
O100 C82 1.261 . S
O101 La80 2.628 . S
O101 C82 1.243 . S
O102 La80 2.554 . S
O102 C89 1.240 . S
O103 La80 2.757 . S
O103 La81 2.482 . S
O103 C89 1.289 . S
O104 La80 2.470 . S
O104 C90 1.258 . S
O105 La81 2.503 . S
O105 C90 1.256 . S
O106 La81 2.521 . S
O106 C91 1.261 . S
O107 La81 2.628 . S
O107 C91 1.243 . S
O108 La81 2.554 . S
O108 C98 1.240 . S
O109 La80 2.482 . S
O109 La81 2.757 . S
O109 C98 1.289 . S
O110 La81 2.470 . S
O110 C99 1.258 . S
O111 La80 2.503 . S
O111 C99 1.256 . S
H112 C84 0.930 . S
H113 C85 0.930 . S
H114 C87 0.929 . S
H115 C88 0.929 . S
H116 C93 0.930 . S
H117 C94 0.930 . S
H118 C96 0.929 . S
H119 C97 0.929 . S
La120 C122 2.928 . S
La120 O140 2.521 . S
La120 O141 2.628 . S
La120 O142 2.554 . S
La120 O143 2.757 . S
La120 O144 2.470 . S
La120 O149 2.482 . S
La120 O151 2.503 . S
La121 C131 2.928 . S
La121 O143 2.482 . S
La121 O145 2.503 . S
La121 O146 2.521 . S
La121 O147 2.628 . S
La121 O148 2.554 . S
La121 O149 2.757 . S
La121 O150 2.470 . S
C122 La120 2.928 . S
C122 C123 1.503 . S
C122 O140 1.261 . S
C122 O141 1.243 . S
C123 C122 1.503 . S
C123 C124 1.394 . S
C123 C128 1.373 . S
C124 C123 1.394 . S
C124 C125 1.380 . S
C124 H152 0.930 . S
C125 C124 1.380 . S
C125 C126 1.376 . S
C125 H153 0.930 . S
C126 C125 1.376 . S
C126 C127 1.370 . S
C127 C126 1.370 . S
C127 C128 1.396 . S
C127 H154 0.929 . S
C128 C123 1.373 . S
C128 C127 1.396 . S
C128 H155 0.929 . S
C129 O142 1.240 . S
C129 O143 1.289 . S
C130 O144 1.258 . S
C130 O145 1.256 . S
C131 La121 2.928 . S
C131 C132 1.503 . S
C131 O146 1.261 . S
C131 O147 1.243 . S
C132 C131 1.503 . S
C132 C133 1.394 . S
C132 C137 1.373 . S
C133 C132 1.394 . S
C133 C134 1.380 . S
C133 H156 0.930 . S
C134 C133 1.380 . S
C134 C135 1.376 . S
C134 H157 0.930 . S
C135 C134 1.376 . S
C135 C136 1.370 . S
C136 C135 1.370 . S
C136 C137 1.396 . S
C136 H158 0.929 . S
C137 C132 1.373 . S
C137 C136 1.396 . S
C137 H159 0.929 . S
C138 O148 1.240 . S
C138 O149 1.289 . S
C139 O150 1.258 . S
C139 O151 1.256 . S
O140 La120 2.521 . S
O140 C122 1.261 . S
O141 La120 2.628 . S
O141 C122 1.243 . S
O142 La120 2.554 . S
O142 C129 1.240 . S
O143 La120 2.757 . S
O143 La121 2.482 . S
O143 C129 1.289 . S
O144 La120 2.470 . S
O144 C130 1.258 . S
O145 La121 2.503 . S
O145 C130 1.256 . S
O146 La121 2.521 . S
O146 C131 1.261 . S
O147 La121 2.628 . S
O147 C131 1.243 . S
O148 La121 2.554 . S
O148 C138 1.240 . S
O149 La120 2.482 . S
O149 La121 2.757 . S
O149 C138 1.289 . S
O150 La121 2.470 . S
O150 C139 1.258 . S
O151 La120 2.503 . S
O151 C139 1.256 . S
H152 C124 0.930 . S
H153 C125 0.930 . S
H154 C127 0.929 . S
H155 C128 0.929 . S
H156 C133 0.930 . S
H157 C134 0.930 . S
H158 C136 0.929 . S
H159 C137 0.929 . S
La160 C162 2.928 1_556 S
La160 O180 2.521 1_556 S
La160 O181 2.628 1_556 S
La160 O182 2.554 . S
La160 O183 2.757 . S
La160 O184 2.470 1_556 S
La160 O189 2.482 1_556 S
La160 O191 2.503 . S
La161 C171 2.928 1_554 S
La161 O183 2.482 1_554 S
La161 O185 2.503 . S
La161 O186 2.521 1_554 S
La161 O187 2.628 1_554 S
La161 O188 2.554 . S
La161 O189 2.757 . S
La161 O190 2.470 1_554 S
C162 La160 2.928 1_554 S
C162 C163 1.503 . S
C162 O180 1.261 . S
C162 O181 1.243 . S
C163 C162 1.503 . S
C163 C164 1.394 . S
C163 C168 1.373 . S
C164 C163 1.394 . S
C164 C165 1.380 . S
C164 H192 0.930 . S
C165 C164 1.380 . S
C165 C166 1.376 . S
C165 H193 0.930 . S
C166 C165 1.376 . S
C166 C167 1.370 . S
C167 C166 1.370 . S
C167 C168 1.396 . S
C167 H194 0.929 . S
C168 C163 1.373 . S
C168 C167 1.396 . S
C168 H195 0.929 . S
C169 O182 1.240 . S
C169 O183 1.289 . S
C170 O184 1.258 . S
C170 O185 1.256 . S
C171 La161 2.928 1_556 S
C171 C172 1.503 . S
C171 O186 1.261 . S
C171 O187 1.243 . S
C172 C171 1.503 . S
C172 C173 1.394 . S
C172 C177 1.373 . S
C173 C172 1.394 . S
C173 C174 1.380 . S
C173 H196 0.930 . S
C174 C173 1.380 . S
C174 C175 1.376 . S
C174 H197 0.930 . S
C175 C174 1.376 . S
C175 C176 1.370 . S
C176 C175 1.370 . S
C176 C177 1.396 . S
C176 H198 0.929 . S
C177 C172 1.373 . S
C177 C176 1.396 . S
C177 H199 0.929 . S
C178 O188 1.240 . S
C178 O189 1.289 . S
C179 O190 1.258 . S
C179 O191 1.256 . S
O180 La160 2.521 1_554 S
O180 C162 1.261 . S
O181 La160 2.628 1_554 S
O181 C162 1.243 . S
O182 La160 2.554 . S
O182 C169 1.240 . S
O183 La160 2.757 . S
O183 La161 2.482 1_556 S
O183 C169 1.289 . S
O184 La160 2.470 1_554 S
O184 C170 1.258 . S
O185 La161 2.503 . S
O185 C170 1.256 . S
O186 La161 2.521 1_556 S
O186 C171 1.261 . S
O187 La161 2.628 1_556 S
O187 C171 1.243 . S
O188 La161 2.554 . S
O188 C178 1.240 . S
O189 La160 2.482 1_554 S
O189 La161 2.757 . S
O189 C178 1.289 . S
O190 La161 2.470 1_556 S
O190 C179 1.258 . S
O191 La160 2.503 . S
O191 C179 1.256 . S
H192 C164 0.930 . S
H193 C165 0.930 . S
H194 C167 0.929 . S
H195 C168 0.929 . S
H196 C173 0.930 . S
H197 C174 0.930 . S
H198 C176 0.929 . S
H199 C177 0.929 . S
La200 C202 2.928 1_556 S
La200 O220 2.521 1_556 S
La200 O221 2.628 1_556 S
La200 O222 2.554 . S
La200 O223 2.757 . S
La200 O224 2.470 1_556 S
La200 O229 2.482 1_556 S
La200 O231 2.503 . S
La201 C211 2.928 1_554 S
La201 O223 2.482 1_554 S
La201 O225 2.503 . S
La201 O226 2.521 1_554 S
La201 O227 2.628 1_554 S
La201 O228 2.554 . S
La201 O229 2.757 . S
La201 O230 2.470 1_554 S
C202 La200 2.928 1_554 S
C202 C203 1.503 . S
C202 O220 1.261 . S
C202 O221 1.243 . S
C203 C202 1.503 . S
C203 C204 1.394 . S
C203 C208 1.373 . S
C204 C203 1.394 . S
C204 C205 1.380 . S
C204 H232 0.930 . S
C205 C204 1.380 . S
C205 C206 1.376 . S
C205 H233 0.930 . S
C206 C205 1.376 . S
C206 C207 1.370 . S
C207 C206 1.370 . S
C207 C208 1.396 . S
C207 H234 0.929 . S
C208 C203 1.373 . S
C208 C207 1.396 . S
C208 H235 0.929 . S
C209 O222 1.240 . S
C209 O223 1.289 . S
C210 O224 1.258 . S
C210 O225 1.256 . S
C211 La201 2.928 1_556 S
C211 C212 1.503 . S
C211 O226 1.261 . S
C211 O227 1.243 . S
C212 C211 1.503 . S
C212 C213 1.394 . S
C212 C217 1.373 . S
C213 C212 1.394 . S
C213 C214 1.380 . S
C213 H236 0.930 . S
C214 C213 1.380 . S
C214 C215 1.376 . S
C214 H237 0.930 . S
C215 C214 1.376 . S
C215 C216 1.370 . S
C216 C215 1.370 . S
C216 C217 1.396 . S
C216 H238 0.929 . S
C217 C212 1.373 . S
C217 C216 1.396 . S
C217 H239 0.929 . S
C218 O228 1.240 . S
C218 O229 1.289 . S
C219 O230 1.258 . S
C219 O231 1.256 . S
O220 La200 2.521 1_554 S
O220 C202 1.261 . S
O221 La200 2.628 1_554 S
O221 C202 1.243 . S
O222 La200 2.554 . S
O222 C209 1.240 . S
O223 La200 2.757 . S
O223 La201 2.482 1_556 S
O223 C209 1.289 . S
O224 La200 2.470 1_554 S
O224 C210 1.258 . S
O225 La201 2.503 . S
O225 C210 1.256 . S
O226 La201 2.521 1_556 S
O226 C211 1.261 . S
O227 La201 2.628 1_556 S
O227 C211 1.243 . S
O228 La201 2.554 . S
O228 C218 1.240 . S
O229 La200 2.482 1_554 S
O229 La201 2.757 . S
O229 C218 1.289 . S
O230 La201 2.470 1_556 S
O230 C219 1.258 . S
O231 La200 2.503 . S
O231 C219 1.256 . S
H232 C204 0.930 . S
H233 C205 0.930 . S
H234 C207 0.929 . S
H235 C208 0.929 . S
H236 C213 0.930 . S
H237 C214 0.930 . S
H238 C216 0.929 . S
H239 C217 0.929 . S
La240 C242 2.928 1_556 S
La240 O260 2.521 1_556 S
La240 O261 2.628 1_556 S
La240 O262 2.554 . S
La240 O263 2.757 . S
La240 O264 2.470 1_556 S
La240 O269 2.482 1_556 S
La240 O271 2.503 . S
La241 C251 2.928 1_554 S
La241 O263 2.482 1_554 S
La241 O265 2.503 . S
La241 O266 2.521 1_554 S
La241 O267 2.628 1_554 S
La241 O268 2.554 . S
La241 O269 2.757 . S
La241 O270 2.470 1_554 S
C242 La240 2.928 1_554 S
C242 C243 1.503 . S
C242 O260 1.261 . S
C242 O261 1.243 . S
C243 C242 1.503 . S
C243 C244 1.394 . S
C243 C248 1.373 . S
C244 C243 1.394 . S
C244 C245 1.380 . S
C244 H272 0.930 . S
C245 C244 1.380 . S
C245 C246 1.376 . S
C245 H273 0.930 . S
C246 C245 1.376 . S
C246 C247 1.370 . S
C247 C246 1.370 . S
C247 C248 1.396 . S
C247 H274 0.929 . S
C248 C243 1.373 . S
C248 C247 1.396 . S
C248 H275 0.929 . S
C249 O262 1.240 . S
C249 O263 1.289 . S
C250 O264 1.258 . S
C250 O265 1.256 . S
C251 La241 2.928 1_556 S
C251 C252 1.503 . S
C251 O266 1.261 . S
C251 O267 1.243 . S
C252 C251 1.503 . S
C252 C253 1.394 . S
C252 C257 1.373 . S
C253 C252 1.394 . S
C253 C254 1.380 . S
C253 H276 0.930 . S
C254 C253 1.380 . S
C254 C255 1.376 . S
C254 H277 0.930 . S
C255 C254 1.376 . S
C255 C256 1.370 . S
C256 C255 1.370 . S
C256 C257 1.396 . S
C256 H278 0.929 . S
C257 C252 1.373 . S
C257 C256 1.396 . S
C257 H279 0.929 . S
C258 O268 1.240 . S
C258 O269 1.289 . S
C259 O270 1.258 . S
C259 O271 1.256 . S
O260 La240 2.521 1_554 S
O260 C242 1.261 . S
O261 La240 2.628 1_554 S
O261 C242 1.243 . S
O262 La240 2.554 . S
O262 C249 1.240 . S
O263 La240 2.757 . S
O263 La241 2.482 1_556 S
O263 C249 1.289 . S
O264 La240 2.470 1_554 S
O264 C250 1.258 . S
O265 La241 2.503 . S
O265 C250 1.256 . S
O266 La241 2.521 1_556 S
O266 C251 1.261 . S
O267 La241 2.628 1_556 S
O267 C251 1.243 . S
O268 La241 2.554 . S
O268 C258 1.240 . S
O269 La240 2.482 1_554 S
O269 La241 2.757 . S
O269 C258 1.289 . S
O270 La241 2.470 1_556 S
O270 C259 1.258 . S
O271 La240 2.503 . S
O271 C259 1.256 . S
H272 C244 0.930 . S
H273 C245 0.930 . S
H274 C247 0.929 . S
H275 C248 0.929 . S
H276 C253 0.930 . S
H277 C254 0.930 . S
H278 C256 0.929 . S
H279 C257 0.929 . S
La280 C282 2.928 1_556 S
La280 O300 2.521 1_556 S
La280 O301 2.628 1_556 S
La280 O302 2.554 . S
La280 O303 2.757 . S
La280 O304 2.470 1_556 S
La280 O309 2.482 1_556 S
La280 O311 2.503 . S
La281 C291 2.928 1_554 S
La281 O303 2.482 1_554 S
La281 O305 2.503 . S
La281 O306 2.521 1_554 S
La281 O307 2.628 1_554 S
La281 O308 2.554 . S
La281 O309 2.757 . S
La281 O310 2.470 1_554 S
C282 La280 2.928 1_554 S
C282 C283 1.503 . S
C282 O300 1.261 . S
C282 O301 1.243 . S
C283 C282 1.503 . S
C283 C284 1.394 . S
C283 C288 1.373 . S
C284 C283 1.394 . S
C284 C285 1.380 . S
C284 H312 0.930 . S
C285 C284 1.380 . S
C285 C286 1.376 . S
C285 H313 0.930 . S
C286 C285 1.376 . S
C286 C287 1.370 . S
C287 C286 1.370 . S
C287 C288 1.396 . S
C287 H314 0.929 . S
C288 C283 1.373 . S
C288 C287 1.396 . S
C288 H315 0.929 . S
C289 O302 1.240 . S
C289 O303 1.289 . S
C290 O304 1.258 . S
C290 O305 1.256 . S
C291 La281 2.928 1_556 S
C291 C292 1.503 . S
C291 O306 1.261 . S
C291 O307 1.243 . S
C292 C291 1.503 . S
C292 C293 1.394 . S
C292 C297 1.373 . S
C293 C292 1.394 . S
C293 C294 1.380 . S
C293 H316 0.930 . S
C294 C293 1.380 . S
C294 C295 1.376 . S
C294 H317 0.930 . S
C295 C294 1.376 . S
C295 C296 1.370 . S
C296 C295 1.370 . S
C296 C297 1.396 . S
C296 H318 0.929 . S
C297 C292 1.373 . S
C297 C296 1.396 . S
C297 H319 0.929 . S
C298 O308 1.240 . S
C298 O309 1.289 . S
C299 O310 1.258 . S
C299 O311 1.256 . S
O300 La280 2.521 1_554 S
O300 C282 1.261 . S
O301 La280 2.628 1_554 S
O301 C282 1.243 . S
O302 La280 2.554 . S
O302 C289 1.240 . S
O303 La280 2.757 . S
O303 La281 2.482 1_556 S
O303 C289 1.289 . S
O304 La280 2.470 1_554 S
O304 C290 1.258 . S
O305 La281 2.503 . S
O305 C290 1.256 . S
O306 La281 2.521 1_556 S
O306 C291 1.261 . S
O307 La281 2.628 1_556 S
O307 C291 1.243 . S
O308 La281 2.554 . S
O308 C298 1.240 . S
O309 La280 2.482 1_554 S
O309 La281 2.757 . S
O309 C298 1.289 . S
O310 La281 2.470 1_556 S
O310 C299 1.258 . S
O311 La280 2.503 . S
O311 C299 1.256 . S
H312 C284 0.930 . S
H313 C285 0.930 . S
H314 C287 0.929 . S
H315 C288 0.929 . S
H316 C293 0.930 . S
H317 C294 0.930 . S
H318 C296 0.929 . S
H319 C297 0.929 . S
C320 C321 1.391 . S
C320 C322 1.394 . S
C320 H336 0.931 . S
C321 C320 1.391 . S
C321 C325 1.376 . S
C322 C320 1.394 . S
C322 C323 1.369 . S
C322 C326 1.531 . S
C323 C322 1.369 . S
C323 C324 1.410 . S
C323 C331 1.503 . S
C324 C323 1.410 . S
C324 C325 1.392 . S
C324 C327 1.511 . S
C325 C321 1.376 . S
C325 C324 1.392 . S
C325 H337 0.929 . S
C326 C322 1.531 . S
C326 H338 0.960 . S
C326 H339 0.962 . S
C326 H340 0.960 . S
C327 C324 1.511 . S
C327 H341 0.961 . S
C327 H342 0.961 . S
C327 H343 0.961 . S
C328 C329 1.370 . S
C328 C330 1.363 . S
C328 H344 0.931 . S
C329 C328 1.370 . S
C329 C333 1.408 . S
C330 C328 1.363 . S
C330 C331 1.370 . S
C330 C334 1.524 . S
C331 C323 1.503 . S
C331 C330 1.370 . S
C331 C332 1.403 . S
C332 C331 1.403 . S
C332 C333 1.404 . S
C332 C335 1.539 . S
C333 C329 1.408 . S
C333 C332 1.404 . S
C333 H345 0.930 . S
C334 C330 1.524 . S
C334 H346 0.956 . S
C334 H347 0.961 . S
C334 H348 0.961 . S
C335 C332 1.539 . S
C335 H349 0.958 . S
C335 H350 0.961 . S
C335 H351 0.960 . S
H336 C320 0.931 . S
H337 C325 0.929 . S
H338 C326 0.960 . S
H339 C326 0.962 . S
H340 C326 0.960 . S
H341 C327 0.961 . S
H342 C327 0.961 . S
H343 C327 0.961 . S
H344 C328 0.931 . S
H345 C333 0.930 . S
H346 C334 0.956 . S
H347 C334 0.961 . S
H348 C334 0.961 . S
H349 C335 0.958 . S
H350 C335 0.961 . S
H351 C335 0.960 . S
C352 C353 1.391 . S
C352 C354 1.394 . S
C352 H368 0.931 . S
C353 C352 1.391 . S
C353 C357 1.376 . S
C354 C352 1.394 . S
C354 C355 1.369 . S
C354 C358 1.531 . S
C355 C354 1.369 . S
C355 C356 1.410 . S
C355 C363 1.503 . S
C356 C355 1.410 . S
C356 C357 1.392 . S
C356 C359 1.511 . S
C357 C353 1.376 . S
C357 C356 1.392 . S
C357 H369 0.929 . S
C358 C354 1.531 . S
C358 H370 0.960 . S
C358 H371 0.962 . S
C358 H372 0.960 . S
C359 C356 1.511 . S
C359 H373 0.961 . S
C359 H374 0.961 . S
C359 H375 0.961 . S
C360 C361 1.370 . S
C360 C362 1.363 . S
C360 H376 0.931 . S
C361 C360 1.370 . S
C361 C365 1.408 . S
C362 C360 1.363 . S
C362 C363 1.370 . S
C362 C366 1.524 . S
C363 C355 1.503 . S
C363 C362 1.370 . S
C363 C364 1.403 . S
C364 C363 1.403 . S
C364 C365 1.404 . S
C364 C367 1.539 . S
C365 C361 1.408 . S
C365 C364 1.404 . S
C365 H377 0.930 . S
C366 C362 1.524 . S
C366 H378 0.956 . S
C366 H379 0.961 . S
C366 H380 0.961 . S
C367 C364 1.539 . S
C367 H381 0.958 . S
C367 H382 0.961 . S
C367 H383 0.960 . S
H368 C352 0.931 . S
H369 C357 0.929 . S
H370 C358 0.960 . S
H371 C358 0.962 . S
H372 C358 0.960 . S
H373 C359 0.961 . S
H374 C359 0.961 . S
H375 C359 0.961 . S
H376 C360 0.931 . S
H377 C365 0.930 . S
H378 C366 0.956 . S
H379 C366 0.961 . S
H380 C366 0.961 . S
H381 C367 0.958 . S
H382 C367 0.961 . S
H383 C367 0.960 . S
C384 C385 1.391 . S
C384 C386 1.394 . S
C384 H400 0.931 . S
C385 C384 1.391 . S
C385 C389 1.376 . S
C386 C384 1.394 . S
C386 C387 1.369 . S
C386 C390 1.531 . S
C387 C386 1.369 . S
C387 C388 1.410 . S
C387 C395 1.503 . S
C388 C387 1.410 . S
C388 C389 1.392 . S
C388 C391 1.511 . S
C389 C385 1.376 . S
C389 C388 1.392 . S
C389 H401 0.929 . S
C390 C386 1.531 . S
C390 H402 0.960 . S
C390 H403 0.962 . S
C390 H404 0.960 . S
C391 C388 1.511 . S
C391 H405 0.961 . S
C391 H406 0.961 . S
C391 H407 0.961 . S
C392 C393 1.370 . S
C392 C394 1.363 . S
C392 H408 0.931 . S
C393 C392 1.370 . S
C393 C397 1.408 . S
C394 C392 1.363 . S
C394 C395 1.370 . S
C394 C398 1.524 . S
C395 C387 1.503 . S
C395 C394 1.370 . S
C395 C396 1.403 . S
C396 C395 1.403 . S
C396 C397 1.404 . S
C396 C399 1.539 . S
C397 C393 1.408 . S
C397 C396 1.404 . S
C397 H409 0.930 . S
C398 C394 1.524 . S
C398 H410 0.956 . S
C398 H411 0.961 . S
C398 H412 0.961 . S
C399 C396 1.539 . S
C399 H413 0.958 . S
C399 H414 0.961 . S
C399 H415 0.960 . S
H400 C384 0.931 . S
H401 C389 0.929 . S
H402 C390 0.960 . S
H403 C390 0.962 . S
H404 C390 0.960 . S
H405 C391 0.961 . S
H406 C391 0.961 . S
H407 C391 0.961 . S
H408 C392 0.931 . S
H409 C397 0.930 . S
H410 C398 0.956 . S
H411 C398 0.961 . S
H412 C398 0.961 . S
H413 C399 0.958 . S
H414 C399 0.961 . S
H415 C399 0.960 . S
C416 C417 1.391 . S
C416 C418 1.394 . S
C416 H432 0.931 . S
C417 C416 1.391 . S
C417 C421 1.376 . S
C418 C416 1.394 . S
C418 C419 1.369 . S
C418 C422 1.531 . S
C419 C418 1.369 . S
C419 C420 1.410 . S
C419 C427 1.503 . S
C420 C419 1.410 . S
C420 C421 1.392 . S
C420 C423 1.511 . S
C421 C417 1.376 . S
C421 C420 1.392 . S
C421 H433 0.929 . S
C422 C418 1.531 . S
C422 H434 0.960 . S
C422 H435 0.962 . S
C422 H436 0.960 . S
C423 C420 1.511 . S
C423 H437 0.961 . S
C423 H438 0.961 . S
C423 H439 0.961 . S
C424 C425 1.370 . S
C424 C426 1.363 . S
C424 H440 0.931 . S
C425 C424 1.370 . S
C425 C429 1.408 . S
C426 C424 1.363 . S
C426 C427 1.370 . S
C426 C430 1.524 . S
C427 C419 1.503 . S
C427 C426 1.370 . S
C427 C428 1.403 . S
C428 C427 1.403 . S
C428 C429 1.404 . S
C428 C431 1.539 . S
C429 C425 1.408 . S
C429 C428 1.404 . S
C429 H441 0.930 . S
C430 C426 1.524 . S
C430 H442 0.956 . S
C430 H443 0.961 . S
C430 H444 0.961 . S
C431 C428 1.539 . S
C431 H445 0.958 . S
C431 H446 0.961 . S
C431 H447 0.960 . S
H432 C416 0.931 . S
H433 C421 0.929 . S
H434 C422 0.960 . S
H435 C422 0.962 . S
H436 C422 0.960 . S
H437 C423 0.961 . S
H438 C423 0.961 . S
H439 C423 0.961 . S
H440 C424 0.931 . S
H441 C429 0.930 . S
H442 C430 0.956 . S
H443 C430 0.961 . S
H444 C430 0.961 . S
H445 C431 0.958 . S
H446 C431 0.961 . S
H447 C431 0.960 . S
C448 C449 1.391 . S
C448 C450 1.394 . S
C448 H464 0.931 . S
C449 C448 1.391 . S
C449 C453 1.376 . S
C450 C448 1.394 . S
C450 C451 1.369 . S
C450 C454 1.531 . S
C451 C450 1.369 . S
C451 C452 1.410 . S
C451 C459 1.503 1_565 S
C452 C451 1.410 . S
C452 C453 1.392 . S
C452 C455 1.511 . S
C453 C449 1.376 . S
C453 C452 1.392 . S
C453 H465 0.929 . S
C454 C450 1.531 . S
C454 H466 0.960 1_565 S
C454 H467 0.962 . S
C454 H468 0.960 . S
C455 C452 1.511 . S
C455 H469 0.961 . S
C455 H470 0.961 . S
C455 H471 0.961 . S
C456 C457 1.370 . S
C456 C458 1.363 . S
C456 H472 0.931 . S
C457 C456 1.370 . S
C457 C461 1.408 . S
C458 C456 1.363 . S
C458 C459 1.370 . S
C458 C462 1.524 . S
C459 C451 1.503 1_545 S
C459 C458 1.370 . S
C459 C460 1.403 . S
C460 C459 1.403 . S
C460 C461 1.404 . S
C460 C463 1.539 . S
C461 C457 1.408 . S
C461 C460 1.404 . S
C461 H473 0.930 . S
C462 C458 1.524 . S
C462 H474 0.956 1_545 S
C462 H475 0.961 1_545 S
C462 H476 0.961 . S
C463 C460 1.539 . S
C463 H477 0.958 . S
C463 H478 0.961 . S
C463 H479 0.960 . S
H464 C448 0.931 . S
H465 C453 0.929 . S
H466 C454 0.960 1_545 S
H467 C454 0.962 . S
H468 C454 0.960 . S
H469 C455 0.961 . S
H470 C455 0.961 . S
H471 C455 0.961 . S
H472 C456 0.931 . S
H473 C461 0.930 . S
H474 C462 0.956 1_565 S
H475 C462 0.961 1_565 S
H476 C462 0.961 . S
H477 C463 0.958 . S
H478 C463 0.961 . S
H479 C463 0.960 . S
C480 C481 1.391 . S
C480 C482 1.394 . S
C480 H496 0.931 . S
C481 C480 1.391 . S
C481 C485 1.376 . S
C482 C480 1.394 . S
C482 C483 1.369 . S
C482 C486 1.531 . S
C483 C482 1.369 . S
C483 C484 1.410 . S
C483 C491 1.503 . S
C484 C483 1.410 . S
C484 C485 1.392 . S
C484 C487 1.511 . S
C485 C481 1.376 . S
C485 C484 1.392 . S
C485 H497 0.929 . S
C486 C482 1.531 . S
C486 H498 0.960 . S
C486 H499 0.962 . S
C486 H500 0.960 . S
C487 C484 1.511 . S
C487 H501 0.961 . S
C487 H502 0.961 . S
C487 H503 0.961 . S
C488 C489 1.370 . S
C488 C490 1.363 . S
C488 H504 0.931 . S
C489 C488 1.370 . S
C489 C493 1.408 . S
C490 C488 1.363 . S
C490 C491 1.370 . S
C490 C494 1.524 . S
C491 C483 1.503 . S
C491 C490 1.370 . S
C491 C492 1.403 . S
C492 C491 1.403 . S
C492 C493 1.404 . S
C492 C495 1.539 . S
C493 C489 1.408 . S
C493 C492 1.404 . S
C493 H505 0.930 . S
C494 C490 1.524 . S
C494 H506 0.956 . S
C494 H507 0.961 . S
C494 H508 0.961 . S
C495 C492 1.539 . S
C495 H509 0.958 . S
C495 H510 0.961 . S
C495 H511 0.960 . S
H496 C480 0.931 . S
H497 C485 0.929 . S
H498 C486 0.960 . S
H499 C486 0.962 . S
H500 C486 0.960 . S
H501 C487 0.961 . S
H502 C487 0.961 . S
H503 C487 0.961 . S
H504 C488 0.931 . S
H505 C493 0.930 . S
H506 C494 0.956 . S
H507 C494 0.961 . S
H508 C494 0.961 . S
H509 C495 0.958 . S
H510 C495 0.961 . S
H511 C495 0.960 . S
C512 C513 1.391 . S
C512 C514 1.394 . S
C512 H528 0.931 . S
C513 C512 1.391 . S
C513 C517 1.376 . S
C514 C512 1.394 . S
C514 C515 1.369 . S
C514 C518 1.531 . S
C515 C514 1.369 . S
C515 C516 1.410 . S
C515 C523 1.503 1_565 S
C516 C515 1.410 . S
C516 C517 1.392 . S
C516 C519 1.511 . S
C517 C513 1.376 . S
C517 C516 1.392 . S
C517 H529 0.929 . S
C518 C514 1.531 . S
C518 H530 0.960 . S
C518 H531 0.962 . S
C518 H532 0.960 . S
C519 C516 1.511 . S
C519 H533 0.961 . S
C519 H534 0.961 1_565 S
C519 H535 0.961 . S
C520 C521 1.370 . S
C520 C522 1.363 . S
C520 H536 0.931 . S
C521 C520 1.370 . S
C521 C525 1.408 . S
C522 C520 1.363 . S
C522 C523 1.370 . S
C522 C526 1.524 . S
C523 C515 1.503 1_545 S
C523 C522 1.370 . S
C523 C524 1.403 . S
C524 C523 1.403 . S
C524 C525 1.404 . S
C524 C527 1.539 . S
C525 C521 1.408 . S
C525 C524 1.404 . S
C525 H537 0.930 . S
C526 C522 1.524 . S
C526 H538 0.956 . S
C526 H539 0.961 . S
C526 H540 0.961 . S
C527 C524 1.539 . S
C527 H541 0.957 1_545 S
C527 H542 0.961 . S
C527 H543 0.960 1_545 S
H528 C512 0.931 . S
H529 C517 0.929 . S
H530 C518 0.960 . S
H531 C518 0.962 . S
H532 C518 0.960 . S
H533 C519 0.961 . S
H534 C519 0.961 1_545 S
H535 C519 0.961 . S
H536 C520 0.931 . S
H537 C525 0.930 . S
H538 C526 0.956 . S
H539 C526 0.961 . S
H540 C526 0.961 . S
H541 C527 0.957 1_565 S
H542 C527 0.961 . S
H543 C527 0.960 1_565 S
C544 C545 1.391 . S
C544 C546 1.394 . S
C544 H560 0.931 . S
C545 C544 1.391 . S
C545 C549 1.376 . S
C546 C544 1.394 . S
C546 C547 1.369 . S
C546 C550 1.531 . S
C547 C546 1.369 . S
C547 C548 1.410 . S
C547 C555 1.503 . S
C548 C547 1.410 . S
C548 C549 1.392 . S
C548 C551 1.511 . S
C549 C545 1.376 . S
C549 C548 1.392 . S
C549 H561 0.929 . S
C550 C546 1.531 . S
C550 H562 0.960 . S
C550 H563 0.962 . S
C550 H564 0.960 . S
C551 C548 1.511 . S
C551 H565 0.961 . S
C551 H566 0.961 . S
C551 H567 0.961 . S
C552 C553 1.370 . S
C552 C554 1.363 . S
C552 H568 0.931 . S
C553 C552 1.370 . S
C553 C557 1.408 . S
C554 C552 1.363 . S
C554 C555 1.370 . S
C554 C558 1.524 . S
C555 C547 1.503 . S
C555 C554 1.370 . S
C555 C556 1.403 . S
C556 C555 1.403 . S
C556 C557 1.404 . S
C556 C559 1.539 . S
C557 C553 1.408 . S
C557 C556 1.404 . S
C557 H569 0.930 . S
C558 C554 1.524 . S
C558 H570 0.956 . S
C558 H571 0.961 . S
C558 H572 0.961 . S
C559 C556 1.539 . S
C559 H573 0.958 . S
C559 H574 0.961 . S
C559 H575 0.960 . S
H560 C544 0.931 . S
H561 C549 0.929 . S
H562 C550 0.960 . S
H563 C550 0.962 . S
H564 C550 0.960 . S
H565 C551 0.961 . S
H566 C551 0.961 . S
H567 C551 0.961 . S
H568 C552 0.931 . S
H569 C557 0.930 . S
H570 C558 0.956 . S
H571 C558 0.961 . S
H572 C558 0.961 . S
H573 C559 0.958 . S
H574 C559 0.961 . S
H575 C559 0.960 . S
C576 C577 1.391 . S
C576 C578 1.394 . S
C576 H592 0.931 . S
C577 C576 1.391 . S
C577 C581 1.376 1_554 S
C578 C576 1.394 . S
C578 C579 1.369 . S
C578 C582 1.531 . S
C579 C578 1.369 . S
C579 C580 1.410 1_554 S
C579 C587 1.503 . S
C580 C579 1.410 1_556 S
C580 C581 1.392 . S
C580 C583 1.511 . S
C581 C577 1.376 1_556 S
C581 C580 1.392 . S
C581 H593 0.929 . S
C582 C578 1.531 . S
C582 H594 0.960 . S
C582 H595 0.962 . S
C582 H596 0.960 . S
C583 C580 1.511 . S
C583 H597 0.961 . S
C583 H598 0.961 . S
C583 H599 0.961 . S
C584 C585 1.370 . S
C584 C586 1.363 . S
C584 H600 0.931 . S
C585 C584 1.370 . S
C585 C589 1.408 1_556 S
C586 C584 1.363 . S
C586 C587 1.370 1_556 S
C586 C590 1.524 . S
C587 C579 1.503 . S
C587 C586 1.370 1_554 S
C587 C588 1.403 . S
C588 C587 1.403 . S
C588 C589 1.404 . S
C588 C591 1.539 . S
C589 C585 1.408 1_554 S
C589 C588 1.404 . S
C589 H601 0.930 . S
C590 C586 1.524 . S
C590 H602 0.956 . S
C590 H603 0.961 . S
C590 H604 0.961 . S
C591 C588 1.539 . S
C591 H605 0.958 . S
C591 H606 0.961 . S
C591 H607 0.960 . S
H592 C576 0.931 . S
H593 C581 0.929 . S
H594 C582 0.960 . S
H595 C582 0.962 . S
H596 C582 0.960 . S
H597 C583 0.961 . S
H598 C583 0.961 . S
H599 C583 0.961 . S
H600 C584 0.931 . S
H601 C589 0.930 . S
H602 C590 0.956 . S
H603 C590 0.961 . S
H604 C590 0.961 . S
H605 C591 0.958 . S
H606 C591 0.961 . S
H607 C591 0.960 . S
C608 C609 1.391 . S
C608 C610 1.394 . S
C608 H624 0.931 . S
C609 C608 1.391 . S
C609 C613 1.376 1_554 S
C610 C608 1.394 . S
C610 C611 1.369 . S
C610 C614 1.531 . S
C611 C610 1.369 . S
C611 C612 1.410 1_554 S
C611 C619 1.503 1_565 S
C612 C611 1.410 1_556 S
C612 C613 1.392 . S
C612 C615 1.511 . S
C613 C609 1.376 1_556 S
C613 C612 1.392 . S
C613 H625 0.929 . S
C614 C610 1.531 . S
C614 H626 0.960 1_565 S
C614 H627 0.962 . S
C614 H628 0.960 . S
C615 C612 1.511 . S
C615 H629 0.961 . S
C615 H630 0.975 . S
C615 H631 0.961 . S
C616 C617 1.370 . S
C616 C618 1.363 . S
C616 H632 0.931 . S
C617 C616 1.370 . S
C617 C621 1.408 1_556 S
C618 C616 1.363 . S
C618 C619 1.370 1_556 S
C618 C622 1.524 . S
C619 C611 1.503 1_545 S
C619 C618 1.370 1_554 S
C619 C620 1.403 . S
C620 C619 1.403 . S
C620 C621 1.404 . S
C620 C623 1.539 . S
C621 C617 1.408 1_554 S
C621 C620 1.404 . S
C621 H633 0.930 . S
C622 C618 1.524 . S
C622 H634 0.956 . S
C622 H635 0.974 . S
C622 H636 0.961 . S
C623 C620 1.539 . S
C623 H637 0.958 . S
C623 H638 0.961 . S
C623 H639 0.960 1_545 S
H624 C608 0.931 . S
H625 C613 0.929 . S
H626 C614 0.960 1_545 S
H627 C614 0.962 . S
H628 C614 0.960 . S
H629 C615 0.961 . S
H630 C615 0.975 . S
H631 C615 0.961 . S
H632 C616 0.931 . S
H633 C621 0.930 . S
H634 C622 0.956 . S
H635 C622 0.974 . S
H636 C622 0.961 . S
H637 C623 0.958 . S
H638 C623 0.961 . S
H639 C623 0.960 1_565 S
C640 C641 1.391 . S
C640 C642 1.394 . S
C640 H656 0.931 . S
C641 C640 1.391 . S
C641 C645 1.376 1_556 S
C642 C640 1.394 . S
C642 C643 1.369 . S
C642 C646 1.531 . S
C643 C642 1.369 . S
C643 C644 1.410 1_556 S
C643 C651 1.503 . S
C644 C643 1.410 1_554 S
C644 C645 1.392 . S
C644 C647 1.511 . S
C645 C641 1.376 1_554 S
C645 C644 1.392 . S
C645 H657 0.929 . S
C646 C642 1.531 . S
C646 H658 0.960 . S
C646 H659 0.962 . S
C646 H660 0.960 . S
C647 C644 1.511 . S
C647 H661 0.961 . S
C647 H662 0.961 . S
C647 H663 0.961 1_554 S
C648 C649 1.370 . S
C648 C650 1.363 . S
C648 H664 0.931 . S
C649 C648 1.370 . S
C649 C653 1.408 1_554 S
C650 C648 1.363 . S
C650 C651 1.370 1_554 S
C650 C654 1.524 . S
C651 C643 1.503 . S
C651 C650 1.370 1_556 S
C651 C652 1.403 . S
C652 C651 1.403 . S
C652 C653 1.404 . S
C652 C655 1.539 . S
C653 C649 1.408 1_556 S
C653 C652 1.404 . S
C653 H665 0.930 . S
C654 C650 1.524 . S
C654 H666 0.956 . S
C654 H667 0.961 . S
C654 H668 0.961 . S
C655 C652 1.539 . S
C655 H669 0.958 . S
C655 H670 0.961 . S
C655 H671 0.960 . S
H656 C640 0.931 . S
H657 C645 0.929 . S
H658 C646 0.960 . S
H659 C646 0.962 . S
H660 C646 0.960 . S
H661 C647 0.961 . S
H662 C647 0.961 . S
H663 C647 0.961 1_556 S
H664 C648 0.931 . S
H665 C653 0.930 . S
H666 C654 0.956 . S
H667 C654 0.961 . S
H668 C654 0.961 . S
H669 C655 0.958 . S
H670 C655 0.961 . S
H671 C655 0.960 . S
C672 C673 1.390 . S
C672 C674 1.394 . S
C672 H688 0.931 . S
C673 C672 1.390 . S
C673 C677 1.377 1_556 S
C674 C672 1.394 . S
C674 C675 1.369 . S
C674 C678 1.531 . S
C675 C674 1.369 . S
C675 C676 1.410 1_556 S
C675 C683 1.503 1_545 S
C676 C675 1.410 1_554 S
C676 C677 1.392 . S
C676 C679 1.511 . S
C677 C673 1.377 1_554 S
C677 C676 1.392 . S
C677 H689 0.929 . S
C678 C674 1.531 . S
C678 H690 0.960 1_545 S
C678 H691 0.962 . S
C678 H692 0.960 . S
C679 C676 1.511 . S
C679 H693 0.961 . S
C679 H694 0.961 1_545 S
C679 H695 0.961 . S
C680 C681 1.370 . S
C680 C682 1.363 . S
C680 H696 0.931 . S
C681 C680 1.370 . S
C681 C685 1.408 1_554 S
C682 C680 1.363 . S
C682 C683 1.370 1_554 S
C682 C686 1.524 . S
C683 C675 1.503 1_565 S
C683 C682 1.370 1_556 S
C683 C684 1.403 . S
C684 C683 1.403 . S
C684 C685 1.404 . S
C684 C687 1.539 . S
C685 C681 1.408 1_556 S
C685 C684 1.404 . S
C685 H697 0.930 . S
C686 C682 1.524 . S
C686 H698 0.956 1_565 S
C686 H699 0.961 1_565 S
C686 H700 0.961 . S
C687 C684 1.539 . S
C687 H701 0.958 . S
C687 H702 0.961 . S
C687 H703 0.960 . S
H688 C672 0.931 . S
H689 C677 0.929 . S
H690 C678 0.960 1_565 S
H691 C678 0.962 . S
H692 C678 0.960 . S
H693 C679 0.961 . S
H694 C679 0.961 1_565 S
H695 C679 0.961 . S
H696 C680 0.931 . S
H697 C685 0.930 . S
H698 C686 0.956 1_545 S
H699 C686 0.961 1_545 S
H700 C686 0.961 . S
H701 C687 0.958 . S
H702 C687 0.961 . S
H703 C687 0.960 . S
C704 C705 1.391 . S
C704 C706 1.394 . S
C704 H720 0.931 . S
C705 C704 1.391 . S
C705 C709 1.376 . S
C706 C704 1.394 . S
C706 C707 1.369 1_554 S
C706 C710 1.531 1_554 S
C707 C706 1.369 1_556 S
C707 C708 1.410 1_556 S
C707 C715 1.503 . S
C708 C707 1.410 1_554 S
C708 C709 1.392 . S
C708 C711 1.511 1_554 S
C709 C705 1.376 . S
C709 C708 1.392 . S
C709 H721 0.929 . S
C710 C706 1.531 1_556 S
C710 H722 0.960 . S
C710 H723 0.962 . S
C710 H724 0.960 1_556 S
C711 C708 1.511 1_556 S
C711 H725 0.961 1_556 S
C711 H726 0.961 . S
C711 H727 0.961 . S
C712 C713 1.370 . S
C712 C714 1.363 . S
C712 H728 0.931 . S
C713 C712 1.370 . S
C713 C717 1.408 . S
C714 C712 1.363 . S
C714 C715 1.370 . S
C714 C718 1.524 . S
C715 C707 1.503 . S
C715 C714 1.370 . S
C715 C716 1.403 . S
C716 C715 1.403 . S
C716 C717 1.404 . S
C716 C719 1.539 . S
C717 C713 1.408 . S
C717 C716 1.404 . S
C717 H729 0.930 . S
C718 C714 1.524 . S
C718 H730 0.956 . S
C718 H731 0.961 . S
C718 H732 0.961 . S
C719 C716 1.539 . S
C719 H733 0.958 . S
C719 H734 0.961 . S
C719 H735 0.960 . S
H720 C704 0.931 . S
H721 C709 0.929 . S
H722 C710 0.960 . S
H723 C710 0.962 . S
H724 C710 0.960 1_554 S
H725 C711 0.961 1_554 S
H726 C711 0.961 . S
H727 C711 0.961 . S
H728 C712 0.931 . S
H729 C717 0.930 . S
H730 C718 0.956 . S
H731 C718 0.961 . S
H732 C718 0.961 . S
H733 C719 0.958 . S
H734 C719 0.961 . S
H735 C719 0.960 . S
C736 C737 1.391 . S
C736 C738 1.394 . S
C736 H752 0.931 . S
C737 C736 1.391 . S
C737 C741 1.376 . S
C738 C736 1.394 . S
C738 C739 1.369 1_554 S
C738 C742 1.531 1_554 S
C739 C738 1.369 1_556 S
C739 C740 1.410 1_556 S
C739 C747 1.503 . S
C740 C739 1.410 1_554 S
C740 C741 1.392 . S
C740 C743 1.511 1_554 S
C741 C737 1.376 . S
C741 C740 1.392 . S
C741 H753 0.929 . S
C742 C738 1.531 1_556 S
C742 H754 0.960 . S
C742 H755 0.962 . S
C742 H756 0.960 1_556 S
C743 C740 1.511 1_556 S
C743 H757 0.961 . S
C743 H758 0.961 . S
C743 H759 0.961 . S
C744 C745 1.370 . S
C744 C746 1.363 . S
C744 H760 0.931 . S
C745 C744 1.370 . S
C745 C749 1.408 . S
C746 C744 1.363 . S
C746 C747 1.370 . S
C746 C750 1.524 . S
C747 C739 1.503 . S
C747 C746 1.370 . S
C747 C748 1.403 . S
C748 C747 1.403 . S
C748 C749 1.404 . S
C748 C751 1.539 . S
C749 C745 1.408 . S
C749 C748 1.404 . S
C749 H761 0.930 . S
C750 C746 1.524 . S
C750 H762 0.956 . S
C750 H763 0.961 . S
C750 H764 0.961 . S
C751 C748 1.539 . S
C751 H765 0.958 . S
C751 H766 0.961 . S
C751 H767 0.960 . S
H752 C736 0.931 . S
H753 C741 0.929 . S
H754 C742 0.960 . S
H755 C742 0.962 . S
H756 C742 0.960 1_554 S
H757 C743 0.961 . S
H758 C743 0.961 . S
H759 C743 0.961 . S
H760 C744 0.931 . S
H761 C749 0.930 . S
H762 C750 0.956 . S
H763 C750 0.961 . S
H764 C750 0.961 . S
H765 C751 0.958 . S
H766 C751 0.961 . S
H767 C751 0.960 . S
C768 C769 1.391 . S
C768 C770 1.394 . S
C768 H784 0.931 . S
C769 C768 1.391 . S
C769 C773 1.376 . S
C770 C768 1.394 . S
C770 C771 1.369 . S
C770 C774 1.531 . S
C771 C770 1.369 . S
C771 C772 1.410 . S
C771 C779 1.503 . S
C772 C771 1.410 . S
C772 C773 1.392 . S
C772 C775 1.511 . S
C773 C769 1.376 . S
C773 C772 1.392 . S
C773 H785 0.929 . S
C774 C770 1.531 . S
C774 H786 0.960 . S
C774 H787 0.962 . S
C774 H788 0.960 . S
C775 C772 1.511 . S
C775 H789 0.961 . S
C775 H790 0.961 . S
C775 H791 0.961 . S
C776 C777 1.370 . S
C776 C778 1.363 . S
C776 H792 0.931 . S
C777 C776 1.370 . S
C777 C781 1.408 . S
C778 C776 1.363 . S
C778 C779 1.370 1_556 S
C778 C782 1.524 1_556 S
C779 C771 1.503 . S
C779 C778 1.370 1_554 S
C779 C780 1.403 1_554 S
C780 C779 1.403 1_556 S
C780 C781 1.404 . S
C780 C783 1.539 . S
C781 C777 1.408 . S
C781 C780 1.404 . S
C781 H793 0.930 . S
C782 C778 1.524 1_554 S
C782 H794 0.956 . S
C782 H795 0.961 . S
C782 H796 0.961 . S
C783 C780 1.539 . S
C783 H797 0.958 1_556 S
C783 H798 0.961 . S
C783 H799 0.960 1_556 S
H784 C768 0.931 . S
H785 C773 0.929 . S
H786 C774 0.960 . S
H787 C774 0.962 . S
H788 C774 0.960 . S
H789 C775 0.961 . S
H790 C775 0.961 . S
H791 C775 0.961 . S
H792 C776 0.931 . S
H793 C781 0.930 . S
H794 C782 0.956 . S
H795 C782 0.961 . S
H796 C782 0.961 . S
H797 C783 0.958 1_554 S
H798 C783 0.961 . S
H799 C783 0.960 1_554 S
C800 C801 1.391 . S
C800 C802 1.394 . S
C800 H816 0.931 . S
C801 C800 1.391 . S
C801 C805 1.376 . S
C802 C800 1.394 . S
C802 C803 1.369 1_556 S
C802 C806 1.531 1_556 S
C803 C802 1.369 1_554 S
C803 C804 1.410 1_554 S
C803 C811 1.503 . S
C804 C803 1.410 1_556 S
C804 C805 1.392 . S
C804 C807 1.511 . S
C805 C801 1.376 . S
C805 C804 1.392 . S
C805 H817 0.929 . S
C806 C802 1.531 1_554 S
C806 H818 0.960 . S
C806 H819 0.962 . S
C806 H820 0.960 . S
C807 C804 1.511 . S
C807 H821 0.961 . S
C807 H822 0.961 1_556 S
C807 H823 0.960 1_556 S
C808 C809 1.370 . S
C808 C810 1.363 . S
C808 H824 0.931 . S
C809 C808 1.370 . S
C809 C813 1.408 . S
C810 C808 1.363 . S
C810 C811 1.370 . S
C810 C814 1.524 . S
C811 C803 1.503 . S
C811 C810 1.370 . S
C811 C812 1.403 . S
C812 C811 1.403 . S
C812 C813 1.404 . S
C812 C815 1.539 . S
C813 C809 1.408 . S
C813 C812 1.404 . S
C813 H825 0.930 . S
C814 C810 1.524 . S
C814 H826 0.956 . S
C814 H827 0.961 . S
C814 H828 0.961 . S
C815 C812 1.539 . S
C815 H829 0.958 . S
C815 H830 0.961 . S
C815 H831 0.960 . S
H816 C800 0.931 . S
H817 C805 0.929 . S
H818 C806 0.960 . S
H819 C806 0.962 . S
H820 C806 0.960 . S
H821 C807 0.961 . S
H822 C807 0.961 1_554 S
H823 C807 0.960 1_554 S
H824 C808 0.931 . S
H825 C813 0.930 . S
H826 C814 0.956 . S
H827 C814 0.961 . S
H828 C814 0.961 . S
H829 C815 0.958 . S
H830 C815 0.961 . S
H831 C815 0.960 . S
C832 C833 1.391 . S
C832 C834 1.394 . S
C832 H848 0.931 . S
C833 C832 1.391 . S
C833 C837 1.376 . S
C834 C832 1.394 . S
C834 C835 1.369 . S
C834 C838 1.531 . S
C835 C834 1.369 . S
C835 C836 1.410 . S
C835 C843 1.503 . S
C836 C835 1.410 . S
C836 C837 1.392 . S
C836 C839 1.511 . S
C837 C833 1.376 . S
C837 C836 1.392 . S
C837 H849 0.929 . S
C838 C834 1.531 . S
C838 H850 0.960 . S
C838 H851 0.962 . S
C838 H852 0.960 . S
C839 C836 1.511 . S
C839 H853 0.961 . S
C839 H854 0.961 . S
C839 H855 0.961 . S
C840 C841 1.370 . S
C840 C842 1.363 . S
C840 H856 0.931 . S
C841 C840 1.370 . S
C841 C845 1.408 . S
C842 C840 1.363 . S
C842 C843 1.370 . S
C842 C846 1.524 . S
C843 C835 1.503 . S
C843 C842 1.370 . S
C843 C844 1.403 . S
C844 C843 1.403 . S
C844 C845 1.404 . S
C844 C847 1.539 . S
C845 C841 1.408 . S
C845 C844 1.404 . S
C845 H857 0.930 . S
C846 C842 1.524 . S
C846 H858 0.956 . S
C846 H859 0.961 . S
C846 H860 0.961 . S
C847 C844 1.539 . S
C847 H861 0.958 . S
C847 H862 0.961 . S
C847 H863 0.960 . S
H848 C832 0.931 . S
H849 C837 0.929 . S
H850 C838 0.960 . S
H851 C838 0.962 . S
H852 C838 0.960 . S
H853 C839 0.961 . S
H854 C839 0.961 . S
H855 C839 0.961 . S
H856 C840 0.931 . S
H857 C845 0.930 . S
H858 C846 0.956 . S
H859 C846 0.961 . S
H860 C846 0.961 . S
H861 C847 0.958 . S
H862 C847 0.961 . S
H863 C847 0.960 . S
C864 C865 1.391 . S
C864 C866 1.394 . S
C864 H880 0.931 . S
C865 C864 1.391 . S
C865 C869 1.376 . S
C866 C864 1.394 . S
C866 C867 1.369 . S
C866 C870 1.531 . S
C867 C866 1.369 . S
C867 C868 1.410 . S
C867 C875 1.503 . S
C868 C867 1.410 . S
C868 C869 1.392 . S
C868 C871 1.511 . S
C869 C865 1.376 . S
C869 C868 1.392 . S
C869 H881 0.929 . S
C870 C866 1.531 . S
C870 H882 0.960 . S
C870 H883 0.962 . S
C870 H884 0.960 . S
C871 C868 1.511 . S
C871 H885 0.961 . S
C871 H886 0.961 . S
C871 H887 0.961 . S
C872 C873 1.370 . S
C872 C874 1.363 . S
C872 H888 0.931 . S
C873 C872 1.370 . S
C873 C877 1.408 . S
C874 C872 1.363 . S
C874 C875 1.370 . S
C874 C878 1.524 . S
C875 C867 1.503 . S
C875 C874 1.370 . S
C875 C876 1.403 . S
C876 C875 1.403 . S
C876 C877 1.404 . S
C876 C879 1.539 . S
C877 C873 1.408 . S
C877 C876 1.404 . S
C877 H889 0.930 . S
C878 C874 1.524 . S
C878 H890 0.956 . S
C878 H891 0.961 . S
C878 H892 0.961 . S
C879 C876 1.539 . S
C879 H893 0.958 . S
C879 H894 0.961 . S
C879 H895 0.960 . S
H880 C864 0.931 . S
H881 C869 0.929 . S
H882 C870 0.960 . S
H883 C870 0.962 . S
H884 C870 0.960 . S
H885 C871 0.961 . S
H886 C871 0.961 . S
H887 C871 0.961 . S
H888 C872 0.931 . S
H889 C877 0.930 . S
H890 C878 0.956 . S
H891 C878 0.961 . S
H892 C878 0.961 . S
H893 C879 0.958 . S
H894 C879 0.961 . S
H895 C879 0.960 . S
C896 C897 1.391 . S
C896 C898 1.394 . S
C896 H912 0.931 . S
C897 C896 1.391 . S
C897 C901 1.376 . S
C898 C896 1.394 . S
C898 C899 1.369 . S
C898 C902 1.531 . S
C899 C898 1.369 . S
C899 C900 1.410 . S
C899 C907 1.503 . S
C900 C899 1.410 . S
C900 C901 1.392 . S
C900 C903 1.511 . S
C901 C897 1.376 . S
C901 C900 1.392 . S
C901 H913 0.929 . S
C902 C898 1.531 . S
C902 H914 0.960 . S
C902 H915 0.962 . S
C902 H916 0.960 . S
C903 C900 1.511 . S
C903 H917 0.961 . S
C903 H918 0.961 . S
C903 H919 0.961 . S
C904 C905 1.370 . S
C904 C906 1.363 . S
C904 H920 0.931 . S
C905 C904 1.370 . S
C905 C909 1.408 . S
C906 C904 1.363 . S
C906 C907 1.370 . S
C906 C910 1.524 . S
C907 C899 1.503 . S
C907 C906 1.370 . S
C907 C908 1.403 . S
C908 C907 1.403 . S
C908 C909 1.404 . S
C908 C911 1.539 . S
C909 C905 1.408 . S
C909 C908 1.404 . S
C909 H921 0.930 . S
C910 C906 1.524 . S
C910 H922 0.956 . S
C910 H923 0.961 . S
C910 H924 0.961 . S
C911 C908 1.539 . S
C911 H925 0.958 . S
C911 H926 0.961 . S
C911 H927 0.960 . S
H912 C896 0.931 . S
H913 C901 0.929 . S
H914 C902 0.960 . S
H915 C902 0.962 . S
H916 C902 0.960 . S
H917 C903 0.961 . S
H918 C903 0.961 . S
H919 C903 0.961 . S
H920 C904 0.931 . S
H921 C909 0.930 . S
H922 C910 0.956 . S
H923 C910 0.961 . S
H924 C910 0.961 . S
H925 C911 0.958 . S
H926 C911 0.961 . S
H927 C911 0.960 . S
C928 C929 1.391 . S
C928 C930 1.394 . S
C928 H944 0.931 . S
C929 C928 1.391 . S
C929 C933 1.376 . S
C930 C928 1.394 . S
C930 C931 1.369 . S
C930 C934 1.531 . S
C931 C930 1.369 . S
C931 C932 1.410 . S
C931 C939 1.503 . S
C932 C931 1.410 . S
C932 C933 1.392 . S
C932 C935 1.511 . S
C933 C929 1.376 . S
C933 C932 1.392 . S
C933 H945 0.929 . S
C934 C930 1.531 . S
C934 H946 0.960 . S
C934 H947 0.962 . S
C934 H948 0.960 . S
C935 C932 1.511 . S
C935 H949 0.961 . S
C935 H950 0.961 . S
C935 H951 0.961 . S
C936 C937 1.370 . S
C936 C938 1.363 . S
C936 H952 0.931 . S
C937 C936 1.370 . S
C937 C941 1.408 . S
C938 C936 1.363 . S
C938 C939 1.370 . S
C938 C942 1.524 . S
C939 C931 1.503 . S
C939 C938 1.370 . S
C939 C940 1.403 . S
C940 C939 1.403 . S
C940 C941 1.404 . S
C940 C943 1.539 . S
C941 C937 1.408 . S
C941 C940 1.404 . S
C941 H953 0.930 . S
C942 C938 1.524 . S
C942 H954 0.956 . S
C942 H955 0.961 . S
C942 H956 0.961 . S
C943 C940 1.539 . S
C943 H957 0.958 . S
C943 H958 0.961 . S
C943 H959 0.960 . S
H944 C928 0.931 . S
H945 C933 0.929 . S
H946 C934 0.960 . S
H947 C934 0.962 . S
H948 C934 0.960 . S
H949 C935 0.961 . S
H950 C935 0.961 . S
H951 C935 0.961 . S
H952 C936 0.931 . S
H953 C941 0.930 . S
H954 C942 0.956 . S
H955 C942 0.961 . S
H956 C942 0.961 . S
H957 C943 0.958 . S
H958 C943 0.961 . S
H959 C943 0.960 . S
C960 C961 1.391 . S
C960 C962 1.394 . S
C960 H976 0.931 . S
C961 C960 1.391 . S
C961 C965 1.376 . S
C962 C960 1.394 . S
C962 C963 1.369 . S
C962 C966 1.531 . S
C963 C962 1.369 . S
C963 C964 1.410 . S
C963 C971 1.503 1_455 S
C964 C963 1.410 . S
C964 C965 1.392 . S
C964 C967 1.511 . S
C965 C961 1.376 . S
C965 C964 1.392 . S
C965 H977 0.929 . S
C966 C962 1.531 . S
C966 H978 1.003 . S
C966 H979 0.962 . S
C966 H980 0.960 . S
C967 C964 1.511 . S
C967 H981 0.961 . S
C967 H982 0.961 1_455 S
C967 H983 0.961 . S
C968 C969 1.370 . S
C968 C970 1.363 . S
C968 H984 0.931 . S
C969 C968 1.370 . S
C969 C973 1.408 . S
C970 C968 1.363 . S
C970 C971 1.370 . S
C970 C974 1.524 . S
C971 C963 1.503 1_655 S
C971 C970 1.370 . S
C971 C972 1.403 . S
C972 C971 1.403 . S
C972 C973 1.404 . S
C972 C975 1.539 . S
C973 C969 1.408 . S
C973 C972 1.404 . S
C973 H985 0.930 . S
C974 C970 1.524 . S
C974 H986 0.917 1_655 S
C974 H987 0.910 1_655 S
C974 H988 0.961 . S
C975 C972 1.539 . S
C975 H989 0.958 . S
C975 H990 0.961 . S
C975 H991 0.960 . S
H976 C960 0.931 . S
H977 C965 0.929 . S
H978 C966 1.003 . S
H979 C966 0.962 . S
H980 C966 0.960 . S
H981 C967 0.961 . S
H982 C967 0.961 1_655 S
H983 C967 0.961 . S
H984 C968 0.931 . S
H985 C973 0.930 . S
H986 C974 0.917 1_455 S
H987 C974 0.910 1_455 S
H988 C974 0.961 . S
H989 C975 0.958 . S
H990 C975 0.961 . S
H991 C975 0.960 . S
C992 C993 1.391 . S
C992 C994 1.394 . S
C992 H1008 0.931 . S
C993 C992 1.391 . S
C993 C997 1.376 . S
C994 C992 1.394 . S
C994 C995 1.369 . S
C994 C998 1.531 . S
C995 C994 1.369 . S
C995 C996 1.410 . S
C995 C1003 1.503 1_655 S
C996 C995 1.410 . S
C996 C997 1.392 . S
C996 C999 1.511 . S
C997 C993 1.376 . S
C997 C996 1.392 . S
C997 H1009 0.929 . S
C998 C994 1.531 . S
C998 H1010 0.960 1_655 S
C998 H1011 0.962 . S
C998 H1012 0.960 . S
C999 C996 1.511 . S
C999 H1013 0.961 . S
C999 H1014 1.028 . S
C999 H1015 0.961 . S
C1000 C1001 1.370 . S
C1000 C1002 1.363 . S
C1000 H1016 0.931 . S
C1001 C1000 1.370 . S
C1001 C1005 1.408 . S
C1002 C1000 1.363 . S
C1002 C1003 1.370 . S
C1002 C1006 1.524 . S
C1003 C995 1.503 1_455 S
C1003 C1002 1.370 . S
C1003 C1004 1.403 . S
C1004 C1003 1.403 . S
C1004 C1005 1.404 . S
C1004 C1007 1.539 . S
C1005 C1001 1.408 . S
C1005 C1004 1.404 . S
C1005 H1017 0.930 . S
C1006 C1002 1.524 . S
C1006 H1018 0.956 . S
C1006 H1019 0.961 1_455 S
C1006 H1020 0.961 . S
C1007 C1004 1.539 . S
C1007 H1021 0.958 . S
C1007 H1022 0.961 . S
C1007 H1023 0.926 1_455 S
H1008 C992 0.931 . S
H1009 C997 0.929 . S
H1010 C998 0.960 1_455 S
H1011 C998 0.962 . S
H1012 C998 0.960 . S
H1013 C999 0.961 . S
H1014 C999 1.028 . S
H1015 C999 0.961 . S
H1016 C1000 0.931 . S
H1017 C1005 0.930 . S
H1018 C1006 0.956 . S
H1019 C1006 0.961 1_655 S
H1020 C1006 0.961 . S
H1021 C1007 0.958 . S
H1022 C1007 0.961 . S
H1023 C1007 0.926 1_655 S
C1024 C1025 1.391 . S
C1024 C1026 1.394 . S
C1024 H1040 0.931 . S
C1025 C1024 1.391 . S
C1025 C1029 1.376 . S
C1026 C1024 1.394 . S
C1026 C1027 1.369 . S
C1026 C1030 1.531 . S
C1027 C1026 1.369 . S
C1027 C1028 1.410 . S
C1027 C1035 1.503 . S
C1028 C1027 1.410 . S
C1028 C1029 1.392 . S
C1028 C1031 1.511 . S
C1029 C1025 1.376 . S
C1029 C1028 1.392 . S
C1029 H1041 0.929 . S
C1030 C1026 1.531 . S
C1030 H1042 0.960 . S
C1030 H1043 0.962 . S
C1030 H1044 0.960 . S
C1031 C1028 1.511 . S
C1031 H1045 0.961 . S
C1031 H1046 0.961 . S
C1031 H1047 0.961 . S
C1032 C1033 1.370 . S
C1032 C1034 1.363 . S
C1032 H1048 0.931 . S
C1033 C1032 1.370 . S
C1033 C1037 1.408 . S
C1034 C1032 1.363 . S
C1034 C1035 1.370 . S
C1034 C1038 1.524 . S
C1035 C1027 1.503 . S
C1035 C1034 1.370 . S
C1035 C1036 1.403 . S
C1036 C1035 1.403 . S
C1036 C1037 1.404 . S
C1036 C1039 1.539 . S
C1037 C1033 1.408 . S
C1037 C1036 1.404 . S
C1037 H1049 0.930 . S
C1038 C1034 1.524 . S
C1038 H1050 0.956 . S
C1038 H1051 0.961 . S
C1038 H1052 0.961 . S
C1039 C1036 1.539 . S
C1039 H1053 0.958 . S
C1039 H1054 0.961 . S
C1039 H1055 0.960 . S
H1040 C1024 0.931 . S
H1041 C1029 0.929 . S
H1042 C1030 0.960 . S
H1043 C1030 0.962 . S
H1044 C1030 0.960 . S
H1045 C1031 0.961 . S
H1046 C1031 0.961 . S
H1047 C1031 0.961 . S
H1048 C1032 0.931 . S
H1049 C1037 0.930 . S
H1050 C1038 0.956 . S
H1051 C1038 0.961 . S
H1052 C1038 0.961 . S
H1053 C1039 0.958 . S
H1054 C1039 0.961 . S
H1055 C1039 0.960 . S
C1056 C1057 1.391 . S
C1056 C1058 1.394 . S
C1056 H1072 0.931 . S
C1057 C1056 1.391 . S
C1057 C1061 1.376 . S
C1058 C1056 1.394 . S
C1058 C1059 1.369 . S
C1058 C1062 1.531 . S
C1059 C1058 1.369 . S
C1059 C1060 1.410 . S
C1059 C1067 1.503 . S
C1060 C1059 1.410 . S
C1060 C1061 1.392 . S
C1060 C1063 1.511 . S
C1061 C1057 1.376 . S
C1061 C1060 1.392 . S
C1061 H1073 0.929 . S
C1062 C1058 1.531 . S
C1062 H1074 0.960 . S
C1062 H1075 0.962 . S
C1062 H1076 0.960 . S
C1063 C1060 1.511 . S
C1063 H1077 0.961 . S
C1063 H1078 0.961 . S
C1063 H1079 0.961 . S
C1064 C1065 1.370 . S
C1064 C1066 1.363 . S
C1064 H1080 0.931 . S
C1065 C1064 1.370 . S
C1065 C1069 1.408 . S
C1066 C1064 1.363 . S
C1066 C1067 1.370 . S
C1066 C1070 1.524 . S
C1067 C1059 1.503 . S
C1067 C1066 1.370 . S
C1067 C1068 1.403 . S
C1068 C1067 1.403 . S
C1068 C1069 1.404 . S
C1068 C1071 1.539 . S
C1069 C1065 1.408 . S
C1069 C1068 1.404 . S
C1069 H1081 0.930 . S
C1070 C1066 1.524 . S
C1070 H1082 0.956 . S
C1070 H1083 0.961 . S
C1070 H1084 0.961 . S
C1071 C1068 1.539 . S
C1071 H1085 0.958 . S
C1071 H1086 0.961 . S
C1071 H1087 0.960 . S
H1072 C1056 0.931 . S
H1073 C1061 0.929 . S
H1074 C1062 0.960 . S
H1075 C1062 0.962 . S
H1076 C1062 0.960 . S
H1077 C1063 0.961 . S
H1078 C1063 0.961 . S
H1079 C1063 0.961 . S
H1080 C1064 0.931 . S
H1081 C1069 0.930 . S
H1082 C1070 0.956 . S
H1083 C1070 0.961 . S
H1084 C1070 0.961 . S
H1085 C1071 0.958 . S
H1086 C1071 0.961 . S
H1087 C1071 0.960 . S
C321 C6 1.679 . S
C329 C295 1.667 . S
C353 C255 1.671 . S
C361 C46 1.670 . S
C385 C206 1.665 . S
C393 C95 1.674 . S
C417 C166 1.656 . S
C425 C135 1.676 . S
C449 C89 1.570 . S
C457 C9 1.559 . S
C481 C49 1.552 . S
C489 C129 1.556 . S
C513 C138 1.546 . S
C521 C58 1.560 . S
C545 C98 1.541 . S
C553 C18 1.554 . S
C577 C169 1.459 1_554 S
C585 C249 1.431 . S
C609 C209 1.457 1_554 S
C617 C289 1.432 . S
C641 C298 1.429 1_556 S
C649 C218 1.447 . S
C673 C258 1.414 1_556 S
C681 C178 1.451 . S
C705 C19 2.012 . S
C713 C10 2.049 . S
C737 C59 2.056 . S
C745 C50 2.030 . S
C769 C99 2.058 . S
C777 C90 2.030 . S
C801 C130 2.037 . S
C809 C139 2.041 . S
C833 C170 2.031 . S
C841 C179 2.039 . S
C865 C219 2.056 . S
C873 C210 2.030 . S
C897 C250 2.031 . S
C905 C259 2.039 . S
C929 C290 2.033 . S
C937 C299 2.038 . S
C961 C15 2.280 . S
C969 C55 2.295 . S
C993 C126 2.279 . S
C1001 C86 2.294 . S
C1025 C175 2.312 . S
C1033 C215 2.309 . S
C1057 C286 2.284 . S
C1065 C246 2.297 . S
