# Generated by pormake.
# Topology vby, (6)-cn, num edge types: 1
# Building blocks:
#     Node 0, Type 0, BuildingBlock: MIDCAF_clean_sbu_0, # of connection points: 6
#     Node 1, Type 0, BuildingBlock: MIDCAF_clean_sbu_0, # of connection points: 6
#     Node 2, Type 0, BuildingBlock: MIDCAF_clean_sbu_0, # of connection points: 6
#     Node 3, Type 0, BuildingBlock: MIDCAF_clean_sbu_0, # of connection points: 6
#     Node 4, Type 0, BuildingBlock: MIDCAF_clean_sbu_0, # of connection points: 6
#     Node 5, Type 0, BuildingBlock: MIDCAF_clean_sbu_0, # of connection points: 6
#     Node 6, Type 0, BuildingBlock: MIDCAF_clean_sbu_0, # of connection points: 6
#     Node 7, Type 0, BuildingBlock: MIDCAF_clean_sbu_0, # of connection points: 6
#     Edge 8, Type (0, 0), BuildingBlock: EYOCIG_clean_linker_4, # of connection points: 2
#     Edge 9, Type (0, 0), BuildingBlock: EYOCIG_clean_linker_4, # of connection points: 2
#     Edge 10, Type (0, 0), BuildingBlock: EYOCIG_clean_linker_4, # of connection points: 2
#     Edge 11, Type (0, 0), BuildingBlock: EYOCIG_clean_linker_4, # of connection points: 2
#     Edge 12, Type (0, 0), BuildingBlock: EYOCIG_clean_linker_4, # of connection points: 2
#     Edge 13, Type (0, 0), BuildingBlock: EYOCIG_clean_linker_4, # of connection points: 2
#     Edge 14, Type (0, 0), BuildingBlock: EYOCIG_clean_linker_4, # of connection points: 2
#     Edge 15, Type (0, 0), BuildingBlock: EYOCIG_clean_linker_4, # of connection points: 2
#     Edge 16, Type (0, 0), BuildingBlock: EYOCIG_clean_linker_4, # of connection points: 2
#     Edge 17, Type (0, 0), BuildingBlock: EYOCIG_clean_linker_4, # of connection points: 2
#     Edge 18, Type (0, 0), BuildingBlock: EYOCIG_clean_linker_4, # of connection points: 2
#     Edge 19, Type (0, 0), BuildingBlock: EYOCIG_clean_linker_4, # of connection points: 2
#     Edge 20, Type (0, 0), BuildingBlock: EYOCIG_clean_linker_4, # of connection points: 2
#     Edge 21, Type (0, 0), BuildingBlock: EYOCIG_clean_linker_4, # of connection points: 2
#     Edge 22, Type (0, 0), BuildingBlock: EYOCIG_clean_linker_4, # of connection points: 2
#     Edge 23, Type (0, 0), BuildingBlock: EYOCIG_clean_linker_4, # of connection points: 2
#     Edge 24, Type (0, 0), BuildingBlock: EYOCIG_clean_linker_4, # of connection points: 2
#     Edge 25, Type (0, 0), BuildingBlock: EYOCIG_clean_linker_4, # of connection points: 2
#     Edge 26, Type (0, 0), BuildingBlock: EYOCIG_clean_linker_4, # of connection points: 2
#     Edge 27, Type (0, 0), BuildingBlock: EYOCIG_clean_linker_4, # of connection points: 2
#     Edge 28, Type (0, 0), BuildingBlock: EYOCIG_clean_linker_4, # of connection points: 2
#     Edge 29, Type (0, 0), BuildingBlock: EYOCIG_clean_linker_4, # of connection points: 2
#     Edge 30, Type (0, 0), BuildingBlock: EYOCIG_clean_linker_4, # of connection points: 2
#     Edge 31, Type (0, 0), BuildingBlock: EYOCIG_clean_linker_4, # of connection points: 2
# Relax obj value: 0.138
# Max RMSD: 0.180
# Mean RMSD: 0.180
data_MOF--net-vby--node1-MIDCAF_clean_sbu_0--edge1-EYOCIG_clean_linker_4
_symmetry_space_group_name_H-M    P1
_symmetry_Int_Tables_number       1
_symmetry_cell_setting            triclinic
loop_
_symmetry_equiv_pos_as_xyz
'x, y, z'
_cell_length_a     12.408861
_cell_length_b     47.843917
_cell_length_c     24.769323
_cell_angle_alpha  90.007821
_cell_angle_beta   90.001027
_cell_angle_gamma 89.984301
loop_
_atom_site_label
_atom_site_type_symbol
_atom_site_fract_x
_atom_site_fract_y
_atom_site_fract_z
_atom_type_partial_charge
Zn0 Zn 0.95064 0.33569 0.05723 0.0
Zn1 Zn 0.14684 0.40694 0.94551 0.0
Zn2 Zn 0.04601 0.36904 -0.00564 0.0
C3 C 0.0563 0.43533 0.02605 0.0
C4 C 0.00689 0.3806 0.87256 0.0
O5 O 0.1487 0.33158 -0.00085 0.0
O6 O 0.03351 0.3024 0.03778 0.0
C7 C -0.00587 0.37878 0.12217 0.0
O8 O 0.04065 0.4096 0.03948 0.0
O9 O 0.09674 0.44133 0.98092 0.0
O10 O 0.08837 0.39623 0.87473 0.0
O11 O 0.96452 0.37063 0.91589 0.0
O12 O 0.97197 0.35329 0.12815 0.0
O13 O 0.01618 0.38865 0.075 0.0
O14 O 0.89144 0.35915 0.95369 0.0
O15 O 0.80837 0.3398 0.02346 0.0
C16 C 0.80596 0.34907 0.9759 0.0
O17 O 0.21183 0.35363 0.97707 0.0
O18 O 0.29452 0.39339 0.95745 0.0
C19 C 0.1213 0.30676 0.0138 0.0
C20 C 0.29802 0.36738 0.96526 0.0
Zn21 Zn 0.81257 0.58301 0.94593 0.0
Zn22 Zn 0.00857 0.65427 0.05769 0.0
Zn23 Zn 0.91332 0.62089 -0.00515 0.0
C24 C 0.15334 0.64087 0.97643 0.0
C25 C 0.96512 0.61119 0.12266 0.0
O26 O 0.74747 0.63627 0.97758 0.0
O27 O 0.66484 0.5965 0.95794 0.0
C28 C 0.95242 0.60938 0.87303 0.0
O29 O 0.06787 0.63078 0.9542 0.0
O30 O 0.1509 0.65015 0.02399 0.0
O31 O -0.01287 0.63669 0.1286 0.0
O32 O 0.94319 0.60128 0.07549 0.0
O33 O 0.87092 0.59377 0.87516 0.0
O34 O -0.00518 0.61933 0.91638 0.0
O35 O 0.91882 0.58033 0.03995 0.0
O36 O 0.86291 0.54863 0.98126 0.0
C37 C 0.9033 0.5546 0.02642 0.0
O38 O 0.81055 0.65834 -0.00035 0.0
O39 O 0.92574 0.68755 0.03819 0.0
C40 C 0.66129 0.62252 0.96577 0.0
C41 C 0.83793 0.68317 0.01424 0.0
Zn42 Zn 0.14745 0.58315 0.54186 0.0
Zn43 Zn 0.95109 0.65439 0.43014 0.0
Zn44 Zn 0.04652 0.62105 0.49301 0.0
C45 C 0.80642 0.641 0.51146 0.0
C46 C -0.00535 0.61131 0.36519 0.0
O47 O 0.2123 0.63646 0.51029 0.0
O48 O 0.29509 0.5967 0.52991 0.0
C49 C 0.00742 0.60948 0.61481 0.0
O50 O 0.89193 0.63093 0.53368 0.0
O51 O 0.80882 0.65027 0.46389 0.0
O52 O 0.97248 0.6368 0.35921 0.0
O53 O 0.0167 0.60143 0.41236 0.0
O54 O 0.08895 0.59386 0.61264 0.0
O55 O 0.96503 0.61945 0.57148 0.0
O56 O 0.04121 0.58048 0.44788 0.0
O57 O 0.09738 0.54877 0.50646 0.0
C58 C 0.0569 0.55476 0.46132 0.0
O59 O 0.1491 0.65852 0.48823 0.0
O60 O 0.0338 0.68768 0.44961 0.0
C61 C 0.29853 0.62271 0.5221 0.0
C62 C 0.1216 0.68333 0.4736 0.0
Zn63 Zn 0.00891 0.33586 0.42969 0.0
Zn64 Zn 0.81276 0.40709 0.54139 0.0
Zn65 Zn 0.91359 0.36921 0.49253 0.0
C66 C 0.9036 0.4355 0.46098 0.0
C67 C 0.95253 0.3807 0.61435 0.0
O68 O 0.81092 0.33175 0.48775 0.0
O69 O 0.92628 0.30256 0.44925 0.0
C70 C 0.9652 0.37891 0.36471 0.0
O71 O 0.9191 0.40978 0.44744 0.0
O72 O 0.86316 0.44148 0.50613 0.0
O73 O 0.87098 0.39631 0.61218 0.0
O74 O -0.00495 0.37077 0.57101 0.0
O75 O -0.01272 0.35341 0.35877 0.0
O76 O 0.94332 0.38882 0.41189 0.0
O77 O 0.06816 0.35932 0.53318 0.0
O78 O 0.15125 0.34001 0.46336 0.0
C79 C 0.15367 0.34927 0.51094 0.0
O80 O 0.74778 0.35383 0.50979 0.0
O81 O 0.66505 0.39361 0.52931 0.0
C82 C 0.83844 0.30693 0.47318 0.0
C83 C 0.66157 0.3676 0.52154 0.0
Zn84 Zn 0.45017 0.83567 0.05752 0.0
Zn85 Zn 0.64641 0.9069 0.94575 0.0
Zn86 Zn 0.54553 0.86902 -0.00537 0.0
C87 C 0.55592 0.93532 0.02628 0.0
C88 C 0.50635 0.88059 0.87283 0.0
O89 O 0.64821 0.83156 -0.00056 0.0
O90 O 0.53306 0.80239 0.0381 0.0
C91 C 0.49362 0.87878 0.12243 0.0
O92 O 0.54021 0.9096 0.03973 0.0
O93 O 0.59639 0.9413 0.98115 0.0
O94 O 0.58787 0.8962 0.87498 0.0
O95 O 0.46401 0.87062 0.91616 0.0
O96 O 0.47146 0.8533 0.12842 0.0
O97 O 0.51569 0.88865 0.07525 0.0
O98 O 0.39095 0.85913 0.95397 0.0
O99 O 0.3079 0.83977 0.02373 0.0
C100 C 0.30548 0.84904 0.97618 0.0
O101 O 0.71135 0.8536 0.97734 0.0
O102 O 0.79408 0.89335 0.95766 0.0
C103 C 0.62083 0.80675 0.01411 0.0
C104 C 0.79756 0.86734 0.96551 0.0
Zn105 Zn 0.31282 0.08298 0.9457 0.0
Zn106 Zn 0.50882 0.15427 0.05744 0.0
Zn107 Zn 0.41354 0.12089 -0.00538 0.0
C108 C 0.65359 0.14085 0.97619 0.0
C109 C 0.46534 0.11121 0.12243 0.0
O110 O 0.24771 0.13627 0.97732 0.0
O111 O 0.1651 0.0965 0.95765 0.0
C112 C 0.45275 0.10934 0.8728 0.0
O113 O 0.56812 0.13077 0.95398 0.0
O114 O 0.65115 0.15015 0.02374 0.0
O115 O 0.4874 0.1367 0.12837 0.0
O116 O 0.44338 0.1013 0.07527 0.0
O117 O 0.37128 0.09371 0.87493 0.0
O118 O 0.49508 0.1193 0.91616 0.0
O119 O 0.41893 0.08033 0.03976 0.0
O120 O 0.36306 0.04862 0.98111 0.0
C121 C 0.40338 0.05461 0.02628 0.0
O122 O 0.3108 0.15834 -0.00063 0.0
O123 O 0.42599 0.18755 0.03791 0.0
C124 C 0.16155 0.12251 0.96549 0.0
C125 C 0.33819 0.18317 0.01395 0.0
Zn126 Zn 0.64772 0.08314 0.54161 0.0
Zn127 Zn 0.45139 0.15439 0.42993 0.0
Zn128 Zn 0.54677 0.12104 0.49278 0.0
C129 C 0.30672 0.14101 0.51125 0.0
C130 C 0.49488 0.11131 0.36497 0.0
O131 O 0.71259 0.13644 0.51005 0.0
O132 O 0.79539 0.09667 0.52962 0.0
C133 C 0.50776 0.10948 0.61458 0.0
O134 O 0.39222 0.13094 0.53347 0.0
O135 O 0.30912 0.15028 0.46369 0.0
O136 O 0.47275 0.1368 0.359 0.0
O137 O 0.51691 0.10143 0.41214 0.0
O138 O 0.58931 0.09387 0.6124 0.0
O139 O 0.46533 0.11945 0.57126 0.0
O140 O 0.5413 0.08047 0.44767 0.0
O141 O 0.59751 0.04876 0.50625 0.0
C142 C 0.55694 0.05475 0.46113 0.0
O143 O 0.64943 0.1585 0.48798 0.0
O144 O 0.53416 0.18768 0.44939 0.0
C145 C 0.79883 0.12268 0.52183 0.0
C146 C 0.62198 0.18331 0.47335 0.0
Zn147 Zn 0.50811 0.8359 0.43 0.0
Zn148 Zn 0.31198 0.90718 0.54163 0.0
Zn149 Zn 0.41278 0.86927 0.49279 0.0
C150 C 0.40287 0.93555 0.46116 0.0
C151 C 0.45172 0.88078 0.61461 0.0
O152 O 0.3101 0.83181 0.48804 0.0
O153 O 0.42548 0.80262 0.44958 0.0
C154 C 0.46444 0.87893 0.36497 0.0
O155 O 0.41833 0.90982 0.44767 0.0
O156 O 0.36244 0.94155 0.5063 0.0
O157 O 0.37021 0.89641 0.61243 0.0
O158 O 0.49422 0.87084 0.57128 0.0
O159 O 0.48651 0.85343 0.35904 0.0
O160 O 0.44256 0.88885 0.41213 0.0
O161 O 0.56734 0.85939 0.53347 0.0
O162 O 0.65045 0.84007 0.46366 0.0
C163 C 0.65286 0.84933 0.51123 0.0
O164 O 0.24697 0.8539 0.51007 0.0
O165 O 0.16428 0.89369 0.52955 0.0
C166 C 0.33763 0.80699 0.47351 0.0
C167 C 0.16077 0.86767 0.5218 0.0
C168 C 0.49349 0.34875 0.949 0.0
C169 C 0.39999 0.35385 0.95776 0.0
C170 C 0.6067 0.34817 0.94363 0.0
C171 C 0.70261 0.34997 0.95033 0.0
C172 C 0.35261 0.64175 0.94418 0.0
C173 C 0.2567 0.63995 0.95088 0.0
C174 C 0.46582 0.64115 0.94954 0.0
C175 C 0.55931 0.63603 0.95829 0.0
C176 C 0.60717 0.64192 0.54372 0.0
C177 C 0.70308 0.64011 0.53703 0.0
C178 C 0.49396 0.64134 0.53835 0.0
C179 C 0.40047 0.63624 0.52959 0.0
C180 C 0.46614 0.34897 0.5378 0.0
C181 C 0.55962 0.35408 0.52905 0.0
C182 C 0.35293 0.34838 0.54318 0.0
C183 C 0.25702 0.35017 0.53649 0.0
C184 C -0.00699 0.8487 0.94927 0.0
C185 C 0.89951 0.85381 0.95802 0.0
C186 C 0.10623 0.84813 0.94391 0.0
C187 C 0.20214 0.84994 0.9506 0.0
C188 C 0.96606 0.14114 0.94927 0.0
C189 C 0.05956 0.13603 0.95801 0.0
C190 C 0.85285 0.14173 0.94393 0.0
C191 C 0.75694 0.13994 0.95063 0.0
C192 C 0.10745 0.14191 0.54349 0.0
C193 C 0.20337 0.14011 0.53681 0.0
C194 C -0.00576 0.14132 0.53811 0.0
C195 C 0.90076 0.13621 0.52934 0.0
C196 C 0.85212 0.84846 0.54347 0.0
C197 C 0.75621 0.85025 0.53679 0.0
C198 C 0.96533 0.84906 0.5381 0.0
C199 C 0.05881 0.85417 0.52933 0.0
C200 C 0.96512 0.50917 0.07568 0.0
C201 C 0.94103 0.53209 0.05962 0.0
C202 C -0.00533 0.48072 0.07556 0.0
C203 C 0.01868 0.45782 0.05934 0.0
C204 C 0.96556 0.48093 0.41176 0.0
C205 C 0.94141 0.45801 0.42781 0.0
C206 C -0.00481 0.50937 0.41186 0.0
C207 C 0.01924 0.53226 0.42807 0.0
C208 C 0.49438 0.98074 0.0757 0.0
C209 C 0.51833 0.95783 0.05954 0.0
C210 C 0.46493 0.0092 0.0757 0.0
C211 C 0.44096 0.03211 0.05955 0.0
C212 C 0.49483 0.00935 0.41182 0.0
C213 C 0.51905 0.03225 0.42795 0.0
C214 C 0.465 0.98093 0.41182 0.0
C215 C 0.44075 0.95803 0.42796 0.0
C216 C 0.21636 0.25924 -0.00487 0.0
C217 C 0.18424 0.28279 0.00036 0.0
C218 C 0.24312 0.23067 -0.00483 0.0
C219 C 0.27524 0.20713 0.00046 0.0
C220 C 0.71595 0.75923 -0.00453 0.0
C221 C 0.68379 0.78278 0.00069 0.0
C222 C 0.74277 0.73066 -0.0045 0.0
C223 C 0.77494 0.70712 0.00077 0.0
C224 C 0.21633 0.73087 0.49232 0.0
C225 C 0.1844 0.70731 0.48707 0.0
C226 C 0.24285 0.75946 0.49229 0.0
C227 C 0.27479 0.78302 0.48701 0.0
C228 C 0.74357 0.25941 0.49196 0.0
C229 C 0.77559 0.28296 0.48667 0.0
C230 C 0.71693 0.23083 0.492 0.0
C231 C 0.68488 0.20728 0.48678 0.0
C232 C -0.01466 0.40421 0.21511 0.0
C233 C -0.00694 0.39626 0.16915 0.0
C234 C 0.97388 0.40426 0.27171 0.0
C235 C 0.96621 0.39637 0.3177 0.0
C236 C 0.97413 0.58584 0.21566 0.0
C237 C 0.9663 0.59373 0.16967 0.0
C238 C -0.01427 0.58588 0.27225 0.0
C239 C -0.00647 0.59382 0.3182 0.0
C240 C -0.01415 0.62159 0.77224 0.0
C241 C -0.01545 0.61845 0.82046 0.0
C242 C 0.97392 0.62161 0.71562 0.0
C243 C 0.97524 0.6185 0.6674 0.0
C244 C -0.01428 0.36847 0.71514 0.0
C245 C -0.01545 0.37162 0.66692 0.0
C246 C 0.97361 0.36845 0.77175 0.0
C247 C 0.97481 0.37156 0.81998 0.0
C248 C 0.48475 0.90423 0.21536 0.0
C249 C 0.49251 0.89627 0.1694 0.0
C250 C 0.47323 0.90427 0.27195 0.0
C251 C 0.46551 0.89638 0.31794 0.0
C252 C 0.47431 0.08586 0.21543 0.0
C253 C 0.4665 0.09375 0.16945 0.0
C254 C 0.48592 0.08589 0.27202 0.0
C255 C 0.49373 0.09383 0.31799 0.0
C256 C 0.4862 0.12156 0.77203 0.0
C257 C 0.48487 0.11841 0.82024 0.0
C258 C 0.47428 0.1216 0.71541 0.0
C259 C 0.4756 0.1185 0.66718 0.0
C260 C 0.4849 0.86854 0.7154 0.0
C261 C 0.4837 0.8717 0.66718 0.0
C262 C 0.47286 0.86849 0.77201 0.0
C263 C 0.47415 0.87158 0.82024 0.0
loop_
_geom_bond_atom_site_label_1
_geom_bond_atom_site_label_2
_geom_bond_distance
_geom_bond_site_symmetry_2
_ccdc_geom_bond_type
Zn0 O6 1.920 1_655 S
Zn0 O12 1.898 . S
Zn0 O15 1.905 . S
Zn1 O9 1.905 . S
Zn1 O10 1.898 . S
Zn1 O18 1.920 . S
Zn2 O5 2.080 1_554 S
Zn2 O8 2.114 1_554 S
Zn2 O11 2.120 1_554 S
Zn2 O13 2.120 . S
Zn2 O14 2.114 1_455 S
Zn2 O17 2.080 . S
C3 O8 1.167 . S
C3 O9 1.194 . S
C4 O10 1.167 . S
C4 O11 1.299 . S
O5 Zn2 2.080 1_556 S
O5 C19 1.305 1_556 S
O6 Zn0 1.920 1_455 S
O6 C19 1.234 . S
C7 O12 1.167 1_455 S
C7 O13 1.299 . S
O8 Zn2 2.114 1_556 S
O8 C3 1.167 . S
O9 Zn1 1.905 . S
O9 C3 1.194 . S
O10 Zn1 1.898 . S
O10 C4 1.167 . S
O11 Zn2 2.120 1_556 S
O11 C4 1.299 . S
O12 Zn0 1.898 . S
O12 C7 1.167 1_655 S
O13 Zn2 2.120 . S
O13 C7 1.299 . S
O14 Zn2 2.114 1_655 S
O14 C16 1.166 . S
O15 Zn0 1.905 . S
O15 C16 1.182 . S
C16 O14 1.166 . S
C16 O15 1.182 . S
O17 Zn2 2.080 . S
O17 C20 1.305 1_554 S
O18 Zn1 1.920 . S
O18 C20 1.234 . S
C19 O5 1.305 1_554 S
C19 O6 1.234 . S
C20 O17 1.305 1_556 S
C20 O18 1.234 . S
Zn21 O27 1.920 . S
Zn21 O33 1.898 . S
Zn21 O36 1.905 . S
Zn22 O30 1.905 . S
Zn22 O31 1.898 . S
Zn22 O39 1.920 1_455 S
Zn23 O26 2.080 . S
Zn23 O29 2.114 1_655 S
Zn23 O32 2.120 . S
Zn23 O34 2.120 1_554 S
Zn23 O35 2.114 1_554 S
Zn23 O38 2.080 1_554 S
C24 O29 1.166 . S
C24 O30 1.182 . S
C25 O31 1.167 1_655 S
C25 O32 1.299 . S
O26 Zn23 2.080 . S
O26 C40 1.305 1_554 S
O27 Zn21 1.920 . S
O27 C40 1.234 . S
C28 O33 1.167 . S
C28 O34 1.299 . S
O29 Zn23 2.114 1_455 S
O29 C24 1.166 . S
O30 Zn22 1.905 . S
O30 C24 1.182 . S
O31 Zn22 1.898 . S
O31 C25 1.167 1_455 S
O32 Zn23 2.120 . S
O32 C25 1.299 . S
O33 Zn21 1.898 . S
O33 C28 1.167 . S
O34 Zn23 2.120 1_556 S
O34 C28 1.299 . S
O35 Zn23 2.114 1_556 S
O35 C37 1.167 . S
O36 Zn21 1.905 . S
O36 C37 1.194 . S
C37 O35 1.167 . S
C37 O36 1.194 . S
O38 Zn23 2.080 1_556 S
O38 C41 1.305 1_556 S
O39 Zn22 1.920 1_655 S
O39 C41 1.234 . S
C40 O26 1.305 1_556 S
C40 O27 1.234 . S
C41 O38 1.305 1_554 S
C41 O39 1.234 . S
Zn42 O48 1.920 . S
Zn42 O54 1.898 . S
Zn42 O57 1.905 . S
Zn43 O51 1.905 . S
Zn43 O52 1.898 . S
Zn43 O60 1.920 1_655 S
Zn44 O47 2.080 . S
Zn44 O50 2.114 1_455 S
Zn44 O53 2.120 . S
Zn44 O55 2.120 . S
Zn44 O56 2.114 . S
Zn44 O59 2.080 . S
C45 O50 1.166 . S
C45 O51 1.182 . S
C46 O52 1.167 1_455 S
C46 O53 1.299 . S
O47 Zn44 2.080 . S
O47 C61 1.305 . S
O48 Zn42 1.920 . S
O48 C61 1.234 . S
C49 O54 1.167 . S
C49 O55 1.299 . S
O50 Zn44 2.114 1_655 S
O50 C45 1.166 . S
O51 Zn43 1.905 . S
O51 C45 1.182 . S
O52 Zn43 1.898 . S
O52 C46 1.167 1_655 S
O53 Zn44 2.120 . S
O53 C46 1.299 . S
O54 Zn42 1.898 . S
O54 C49 1.167 . S
O55 Zn44 2.120 . S
O55 C49 1.299 . S
O56 Zn44 2.114 . S
O56 C58 1.166 . S
O57 Zn42 1.905 . S
O57 C58 1.182 . S
C58 O56 1.166 . S
C58 O57 1.182 . S
O59 Zn44 2.080 . S
O59 C62 1.305 . S
O60 Zn43 1.920 1_455 S
O60 C62 1.234 . S
C61 O47 1.305 . S
C61 O48 1.234 . S
C62 O59 1.305 . S
C62 O60 1.234 . S
Zn63 O69 1.920 1_455 S
Zn63 O75 1.898 . S
Zn63 O78 1.905 . S
Zn64 O72 1.905 . S
Zn64 O73 1.898 . S
Zn64 O81 1.920 . S
Zn65 O68 2.080 . S
Zn65 O71 2.114 . S
Zn65 O74 2.120 . S
Zn65 O76 2.120 . S
Zn65 O77 2.114 1_655 S
Zn65 O80 2.080 . S
C66 O71 1.166 . S
C66 O72 1.182 . S
C67 O73 1.167 . S
C67 O74 1.299 . S
O68 Zn65 2.080 . S
O68 C82 1.305 . S
O69 Zn63 1.920 1_655 S
O69 C82 1.234 . S
C70 O75 1.167 1_655 S
C70 O76 1.299 . S
O71 Zn65 2.114 . S
O71 C66 1.166 . S
O72 Zn64 1.905 . S
O72 C66 1.182 . S
O73 Zn64 1.898 . S
O73 C67 1.167 . S
O74 Zn65 2.120 . S
O74 C67 1.299 . S
O75 Zn63 1.898 . S
O75 C70 1.167 1_455 S
O76 Zn65 2.120 . S
O76 C70 1.299 . S
O77 Zn65 2.114 1_455 S
O77 C79 1.166 . S
O78 Zn63 1.905 . S
O78 C79 1.182 . S
C79 O77 1.166 . S
C79 O78 1.182 . S
O80 Zn65 2.080 . S
O80 C83 1.305 . S
O81 Zn64 1.920 . S
O81 C83 1.234 . S
C82 O68 1.305 . S
C82 O69 1.234 . S
C83 O80 1.305 . S
C83 O81 1.234 . S
Zn84 O90 1.920 . S
Zn84 O96 1.898 . S
Zn84 O99 1.905 . S
Zn85 O93 1.905 . S
Zn85 O94 1.898 . S
Zn85 O102 1.920 . S
Zn86 O89 2.080 1_554 S
Zn86 O92 2.114 1_554 S
Zn86 O95 2.120 1_554 S
Zn86 O97 2.120 . S
Zn86 O98 2.114 . S
Zn86 O101 2.080 . S
C87 O92 1.167 . S
C87 O93 1.194 . S
C88 O94 1.167 . S
C88 O95 1.299 . S
O89 Zn86 2.080 1_556 S
O89 C103 1.305 1_556 S
O90 Zn84 1.920 . S
O90 C103 1.234 . S
C91 O96 1.167 . S
C91 O97 1.299 . S
O92 Zn86 2.114 1_556 S
O92 C87 1.167 . S
O93 Zn85 1.905 . S
O93 C87 1.194 . S
O94 Zn85 1.898 . S
O94 C88 1.167 . S
O95 Zn86 2.120 1_556 S
O95 C88 1.299 . S
O96 Zn84 1.898 . S
O96 C91 1.167 . S
O97 Zn86 2.120 . S
O97 C91 1.299 . S
O98 Zn86 2.114 . S
O98 C100 1.166 . S
O99 Zn84 1.905 . S
O99 C100 1.182 . S
C100 O98 1.166 . S
C100 O99 1.182 . S
O101 Zn86 2.080 . S
O101 C104 1.305 1_554 S
O102 Zn85 1.920 . S
O102 C104 1.234 . S
C103 O89 1.305 1_554 S
C103 O90 1.234 . S
C104 O101 1.305 1_556 S
C104 O102 1.234 . S
Zn105 O111 1.920 . S
Zn105 O117 1.898 . S
Zn105 O120 1.905 . S
Zn106 O114 1.905 . S
Zn106 O115 1.898 . S
Zn106 O123 1.920 . S
Zn107 O110 2.080 . S
Zn107 O113 2.114 . S
Zn107 O116 2.120 . S
Zn107 O118 2.120 1_554 S
Zn107 O119 2.114 1_554 S
Zn107 O122 2.080 1_554 S
C108 O113 1.166 . S
C108 O114 1.182 . S
C109 O115 1.167 . S
C109 O116 1.299 . S
O110 Zn107 2.080 . S
O110 C124 1.305 1_554 S
O111 Zn105 1.920 . S
O111 C124 1.234 . S
C112 O117 1.167 . S
C112 O118 1.299 . S
O113 Zn107 2.114 . S
O113 C108 1.166 . S
O114 Zn106 1.905 . S
O114 C108 1.182 . S
O115 Zn106 1.898 . S
O115 C109 1.167 . S
O116 Zn107 2.120 . S
O116 C109 1.299 . S
O117 Zn105 1.898 . S
O117 C112 1.167 . S
O118 Zn107 2.120 1_556 S
O118 C112 1.299 . S
O119 Zn107 2.114 1_556 S
O119 C121 1.167 . S
O120 Zn105 1.905 . S
O120 C121 1.194 . S
C121 O119 1.167 . S
C121 O120 1.194 . S
O122 Zn107 2.080 1_556 S
O122 C125 1.305 1_556 S
O123 Zn106 1.920 . S
O123 C125 1.234 . S
C124 O110 1.305 1_556 S
C124 O111 1.234 . S
C125 O122 1.305 1_554 S
C125 O123 1.234 . S
Zn126 O132 1.920 . S
Zn126 O138 1.898 . S
Zn126 O141 1.905 . S
Zn127 O135 1.905 . S
Zn127 O136 1.898 . S
Zn127 O144 1.920 . S
Zn128 O131 2.080 . S
Zn128 O134 2.114 . S
Zn128 O137 2.120 . S
Zn128 O139 2.120 . S
Zn128 O140 2.114 . S
Zn128 O143 2.080 . S
C129 O134 1.166 . S
C129 O135 1.182 . S
C130 O136 1.167 . S
C130 O137 1.299 . S
O131 Zn128 2.080 . S
O131 C145 1.305 . S
O132 Zn126 1.920 . S
O132 C145 1.234 . S
C133 O138 1.167 . S
C133 O139 1.299 . S
O134 Zn128 2.114 . S
O134 C129 1.166 . S
O135 Zn127 1.905 . S
O135 C129 1.182 . S
O136 Zn127 1.898 . S
O136 C130 1.167 . S
O137 Zn128 2.120 . S
O137 C130 1.299 . S
O138 Zn126 1.898 . S
O138 C133 1.167 . S
O139 Zn128 2.120 . S
O139 C133 1.299 . S
O140 Zn128 2.114 . S
O140 C142 1.166 . S
O141 Zn126 1.905 . S
O141 C142 1.182 . S
C142 O140 1.166 . S
C142 O141 1.182 . S
O143 Zn128 2.080 . S
O143 C146 1.305 . S
O144 Zn127 1.920 . S
O144 C146 1.234 . S
C145 O131 1.305 . S
C145 O132 1.234 . S
C146 O143 1.305 . S
C146 O144 1.234 . S
Zn147 O153 1.920 . S
Zn147 O159 1.898 . S
Zn147 O162 1.905 . S
Zn148 O156 1.905 . S
Zn148 O157 1.898 . S
Zn148 O165 1.920 . S
Zn149 O152 2.080 . S
Zn149 O155 2.114 . S
Zn149 O158 2.120 . S
Zn149 O160 2.120 . S
Zn149 O161 2.114 . S
Zn149 O164 2.080 . S
C150 O155 1.166 . S
C150 O156 1.182 . S
C151 O157 1.167 . S
C151 O158 1.299 . S
O152 Zn149 2.080 . S
O152 C166 1.305 . S
O153 Zn147 1.920 . S
O153 C166 1.234 . S
C154 O159 1.167 . S
C154 O160 1.299 . S
O155 Zn149 2.114 . S
O155 C150 1.166 . S
O156 Zn148 1.905 . S
O156 C150 1.182 . S
O157 Zn148 1.898 . S
O157 C151 1.167 . S
O158 Zn149 2.120 . S
O158 C151 1.299 . S
O159 Zn147 1.898 . S
O159 C154 1.167 . S
O160 Zn149 2.120 . S
O160 C154 1.299 . S
O161 Zn149 2.114 . S
O161 C163 1.166 . S
O162 Zn147 1.905 . S
O162 C163 1.182 . S
C163 O161 1.166 . S
C163 O162 1.182 . S
O164 Zn149 2.080 . S
O164 C167 1.305 . S
O165 Zn148 1.920 . S
O165 C167 1.234 . S
C166 O152 1.305 . S
C166 O153 1.234 . S
C167 O164 1.305 . S
C167 O165 1.234 . S
C168 C169 1.170 . S
C168 C170 1.380 . S
C169 C168 1.170 . S
C170 C168 1.380 . S
C170 C171 1.170 . S
C171 C170 1.170 . S
C172 C173 1.170 . S
C172 C174 1.380 . S
C173 C172 1.170 . S
C174 C172 1.380 . S
C174 C175 1.170 . S
C175 C174 1.170 . S
C176 C177 1.170 . S
C176 C178 1.380 . S
C177 C176 1.170 . S
C178 C176 1.380 . S
C178 C179 1.170 . S
C179 C178 1.170 . S
C180 C181 1.170 . S
C180 C182 1.380 . S
C181 C180 1.170 . S
C182 C180 1.380 . S
C182 C183 1.170 . S
C183 C182 1.170 . S
C184 C185 1.170 1_455 S
C184 C186 1.380 . S
C185 C184 1.170 1_655 S
C186 C184 1.380 . S
C186 C187 1.170 . S
C187 C186 1.170 . S
C188 C189 1.170 1_655 S
C188 C190 1.380 . S
C189 C188 1.170 1_455 S
C190 C188 1.380 . S
C190 C191 1.170 . S
C191 C190 1.170 . S
C192 C193 1.170 . S
C192 C194 1.380 . S
C193 C192 1.170 . S
C194 C192 1.380 . S
C194 C195 1.170 1_455 S
C195 C194 1.170 1_655 S
C196 C197 1.170 . S
C196 C198 1.380 . S
C197 C196 1.170 . S
C198 C196 1.380 . S
C198 C199 1.170 1_655 S
C199 C198 1.170 1_455 S
C200 C201 1.170 . S
C200 C202 1.380 1_655 S
C201 C200 1.170 . S
C202 C200 1.380 1_455 S
C202 C203 1.170 . S
C203 C202 1.170 . S
C204 C205 1.170 . S
C204 C206 1.380 1_655 S
C205 C204 1.170 . S
C206 C204 1.380 1_455 S
C206 C207 1.170 . S
C207 C206 1.170 . S
C208 C209 1.170 . S
C208 C210 1.380 1_565 S
C209 C208 1.170 . S
C210 C208 1.380 1_545 S
C210 C211 1.170 . S
C211 C210 1.170 . S
C212 C213 1.170 . S
C212 C214 1.380 1_545 S
C213 C212 1.170 . S
C214 C212 1.380 1_565 S
C214 C215 1.170 . S
C215 C214 1.170 . S
C216 C217 1.170 . S
C216 C218 1.380 . S
C217 C216 1.170 . S
C218 C216 1.380 . S
C218 C219 1.170 . S
C219 C218 1.170 . S
C220 C221 1.170 . S
C220 C222 1.380 . S
C221 C220 1.170 . S
C222 C220 1.380 . S
C222 C223 1.170 . S
C223 C222 1.170 . S
C224 C225 1.170 . S
C224 C226 1.380 . S
C225 C224 1.170 . S
C226 C224 1.380 . S
C226 C227 1.170 . S
C227 C226 1.170 . S
C228 C229 1.170 . S
C228 C230 1.380 . S
C229 C228 1.170 . S
C230 C228 1.380 . S
C230 C231 1.170 . S
C231 C230 1.170 . S
C232 C233 1.169 1_655 S
C232 C234 1.381 . S
C233 C232 1.169 1_455 S
C234 C232 1.381 . S
C234 C235 1.170 . S
C235 C234 1.170 . S
C236 C237 1.170 . S
C236 C238 1.381 . S
C237 C236 1.170 . S
C238 C236 1.381 . S
C238 C239 1.169 1_655 S
C239 C238 1.169 1_455 S
C240 C241 1.170 1_455 S
C240 C242 1.380 . S
C241 C240 1.170 1_655 S
C242 C240 1.380 . S
C242 C243 1.170 . S
C243 C242 1.170 . S
C244 C245 1.170 . S
C244 C246 1.380 1_655 S
C245 C244 1.170 . S
C246 C244 1.380 1_455 S
C246 C247 1.170 . S
C247 C246 1.170 . S
C248 C249 1.170 . S
C248 C250 1.380 . S
C249 C248 1.170 . S
C250 C248 1.380 . S
C250 C251 1.170 . S
C251 C250 1.170 . S
C252 C253 1.170 . S
C252 C254 1.380 . S
C253 C252 1.170 . S
C254 C252 1.380 . S
C254 C255 1.170 . S
C255 C254 1.170 . S
C256 C257 1.170 . S
C256 C258 1.380 . S
C257 C256 1.170 . S
C258 C256 1.380 . S
C258 C259 1.170 . S
C259 C258 1.170 . S
C260 C261 1.170 . S
C260 C262 1.380 . S
C261 C260 1.170 . S
C262 C260 1.380 . S
C262 C263 1.170 . S
C263 C262 1.170 . S
C169 C20 1.294 . S
C171 C16 1.296 1_556 S
C173 C24 1.303 1_556 S
C175 C40 1.285 . S
C177 C45 1.297 . S
C179 C61 1.293 . S
C181 C83 1.307 . S
C183 C79 1.268 . S
C185 C104 1.334 . S
C187 C100 1.245 1_556 S
C189 C124 1.285 . S
C191 C108 1.298 1_556 S
C193 C129 1.302 . S
C195 C145 1.284 . S
C197 C163 1.264 . S
C199 C167 1.311 . S
C201 C37 1.446 1_554 S
C203 C3 1.424 1_554 S
C205 C66 1.427 . S
C207 C58 1.400 . S
C209 C87 1.439 1_554 S
C211 C121 1.445 1_554 S
C213 C142 1.455 . S
C215 C150 1.435 . S
C217 C19 1.415 . S
C219 C125 1.427 . S
C221 C103 1.385 . S
C223 C41 1.415 . S
C225 C62 1.389 . S
C227 C166 1.382 . S
C229 C82 1.380 . S
C231 C146 1.396 . S
C233 C7 1.278 . S
C235 C70 1.313 . S
C237 C25 1.313 . S
C239 C46 1.275 . S
C241 C28 1.348 . S
C243 C49 1.314 . S
C245 C67 1.356 . S
C247 C4 1.375 . S
C249 C91 1.277 . S
C251 C154 1.298 . S
C253 C109 1.277 . S
C255 C130 1.306 . S
C257 C112 1.329 . S
C259 C133 1.313 . S
C261 C151 1.317 . S
C263 C88 1.359 . S
