# Generated by pormake.
# Topology wjd, (6)-cn, num edge types: 1
# Building blocks:
#     Node 0, Type 0, BuildingBlock: NUHQIS_clean_sbu_0, # of connection points: 6
#     Node 1, Type 0, BuildingBlock: NUHQIS_clean_sbu_0, # of connection points: 6
#     Node 2, Type 0, BuildingBlock: NUHQIS_clean_sbu_0, # of connection points: 6
#     Node 3, Type 0, BuildingBlock: NUHQIS_clean_sbu_0, # of connection points: 6
#     Node 4, Type 0, BuildingBlock: NUHQIS_clean_sbu_0, # of connection points: 6
#     Node 5, Type 0, BuildingBlock: NUHQIS_clean_sbu_0, # of connection points: 6
#     Node 6, Type 0, BuildingBlock: NUHQIS_clean_sbu_0, # of connection points: 6
#     Node 7, Type 0, BuildingBlock: NUHQIS_clean_sbu_0, # of connection points: 6
#     Node 8, Type 0, BuildingBlock: NUHQIS_clean_sbu_0, # of connection points: 6
#     Node 9, Type 0, BuildingBlock: NUHQIS_clean_sbu_0, # of connection points: 6
#     Node 10, Type 0, BuildingBlock: NUHQIS_clean_sbu_0, # of connection points: 6
#     Node 11, Type 0, BuildingBlock: NUHQIS_clean_sbu_0, # of connection points: 6
#     Edge 12, Type (0, 0), BuildingBlock: AJUNOK_clean_linker_0, # of connection points: 2
#     Edge 13, Type (0, 0), BuildingBlock: AJUNOK_clean_linker_0, # of connection points: 2
#     Edge 14, Type (0, 0), BuildingBlock: AJUNOK_clean_linker_0, # of connection points: 2
#     Edge 15, Type (0, 0), BuildingBlock: AJUNOK_clean_linker_0, # of connection points: 2
#     Edge 16, Type (0, 0), BuildingBlock: AJUNOK_clean_linker_0, # of connection points: 2
#     Edge 17, Type (0, 0), BuildingBlock: AJUNOK_clean_linker_0, # of connection points: 2
#     Edge 18, Type (0, 0), BuildingBlock: AJUNOK_clean_linker_0, # of connection points: 2
#     Edge 19, Type (0, 0), BuildingBlock: AJUNOK_clean_linker_0, # of connection points: 2
#     Edge 20, Type (0, 0), BuildingBlock: AJUNOK_clean_linker_0, # of connection points: 2
#     Edge 21, Type (0, 0), BuildingBlock: AJUNOK_clean_linker_0, # of connection points: 2
#     Edge 22, Type (0, 0), BuildingBlock: AJUNOK_clean_linker_0, # of connection points: 2
#     Edge 23, Type (0, 0), BuildingBlock: AJUNOK_clean_linker_0, # of connection points: 2
#     Edge 24, Type (0, 0), BuildingBlock: AJUNOK_clean_linker_0, # of connection points: 2
#     Edge 25, Type (0, 0), BuildingBlock: AJUNOK_clean_linker_0, # of connection points: 2
#     Edge 26, Type (0, 0), BuildingBlock: AJUNOK_clean_linker_0, # of connection points: 2
#     Edge 27, Type (0, 0), BuildingBlock: AJUNOK_clean_linker_0, # of connection points: 2
#     Edge 28, Type (0, 0), BuildingBlock: AJUNOK_clean_linker_0, # of connection points: 2
#     Edge 29, Type (0, 0), BuildingBlock: AJUNOK_clean_linker_0, # of connection points: 2
#     Edge 30, Type (0, 0), BuildingBlock: AJUNOK_clean_linker_0, # of connection points: 2
#     Edge 31, Type (0, 0), BuildingBlock: AJUNOK_clean_linker_0, # of connection points: 2
#     Edge 32, Type (0, 0), BuildingBlock: AJUNOK_clean_linker_0, # of connection points: 2
#     Edge 33, Type (0, 0), BuildingBlock: AJUNOK_clean_linker_0, # of connection points: 2
#     Edge 34, Type (0, 0), BuildingBlock: AJUNOK_clean_linker_0, # of connection points: 2
#     Edge 35, Type (0, 0), BuildingBlock: AJUNOK_clean_linker_0, # of connection points: 2
#     Edge 36, Type (0, 0), BuildingBlock: AJUNOK_clean_linker_0, # of connection points: 2
#     Edge 37, Type (0, 0), BuildingBlock: AJUNOK_clean_linker_0, # of connection points: 2
#     Edge 38, Type (0, 0), BuildingBlock: AJUNOK_clean_linker_0, # of connection points: 2
#     Edge 39, Type (0, 0), BuildingBlock: AJUNOK_clean_linker_0, # of connection points: 2
#     Edge 40, Type (0, 0), BuildingBlock: AJUNOK_clean_linker_0, # of connection points: 2
#     Edge 41, Type (0, 0), BuildingBlock: AJUNOK_clean_linker_0, # of connection points: 2
#     Edge 42, Type (0, 0), BuildingBlock: AJUNOK_clean_linker_0, # of connection points: 2
#     Edge 43, Type (0, 0), BuildingBlock: AJUNOK_clean_linker_0, # of connection points: 2
#     Edge 44, Type (0, 0), BuildingBlock: AJUNOK_clean_linker_0, # of connection points: 2
#     Edge 45, Type (0, 0), BuildingBlock: AJUNOK_clean_linker_0, # of connection points: 2
#     Edge 46, Type (0, 0), BuildingBlock: AJUNOK_clean_linker_0, # of connection points: 2
#     Edge 47, Type (0, 0), BuildingBlock: AJUNOK_clean_linker_0, # of connection points: 2
# Relax obj value: 0.101
# Max RMSD: 0.226
# Mean RMSD: 0.226
data_MOF--net-wjd--node1-NUHQIS_clean_sbu_0--edge1-AJUNOK_clean_linker_0
_symmetry_space_group_name_H-M    P1
_symmetry_Int_Tables_number       1
_symmetry_cell_setting            triclinic
loop_
_symmetry_equiv_pos_as_xyz
'x, y, z'
_cell_length_a     32.103305
_cell_length_b     32.011972
_cell_length_c     38.329499
_cell_angle_alpha  89.9870528
_cell_angle_beta   90.445381
_cell_angle_gamma 119.88003
loop_
_atom_site_label
_atom_site_type_symbol
_atom_site_fract_x
_atom_site_fract_y
_atom_site_fract_z
_atom_type_partial_charge
Tb0 Tb 0.42267 0.19995 0.11794 0.0
Eu1 Eu 0.34437 0.09967 0.15894 0.0
C2 C 0.35948 0.09903 0.0771 0.0
C3 C 0.32116 0.18087 0.13777 0.0
C4 C 0.51345 0.33106 0.10484 0.0
C5 C 0.56029 0.41732 0.09229 0.0
C6 C 0.5277 0.3698 0.08167 0.0
C7 C 0.53118 0.34123 0.13936 0.0
C8 C 0.56396 0.38869 0.14992 0.0
C9 C 0.57988 0.42735 0.12632 0.0
C10 C 0.48372 0.28041 0.09196 0.0
O11 O 0.44404 0.21214 0.17342 0.0
O12 O 0.37407 0.15627 0.20012 0.0
O13 O 0.42059 0.11116 0.16767 0.0
O14 O 0.45125 0.15147 0.11632 0.0
C15 C 0.41649 0.19495 0.2011 0.0
O16 O 0.28463 0.06518 0.19534 0.0
O17 O 0.30688 1.02147 0.16704 0.0
O18 O 0.35171 0.07596 0.10648 0.0
O19 O 0.3783 0.14679 0.07608 0.0
O20 O 0.36725 0.21124 0.14055 0.0
O21 O 0.306 0.13485 0.133 0.0
C22 C 0.45442 0.12838 0.14348 0.0
O23 O 0.4941 0.24912 0.10509 0.0
O24 O 0.43728 0.26244 0.08927 0.0
C25 C 0.22338 0.98709 0.17869 0.0
C26 C 0.12542 0.92036 0.16339 0.0
C27 C 0.14868 0.91399 0.19252 0.0
C28 C 0.19703 0.94691 0.20004 0.0
C29 C 0.20018 0.99427 0.14991 0.0
C30 C 0.1516 0.9613 0.14241 0.0
C31 C 0.27445 1.02156 0.18729 0.0
H32 H 0.57179 0.44602 0.07336 0.0
H33 H 0.51479 0.36314 0.05493 0.0
H34 H 0.52077 0.31228 0.15796 0.0
H35 H 0.5776 0.39503 0.17647 0.0
H36 H 0.12938 0.88334 0.20957 0.0
H37 H 0.21391 0.9409 0.22258 0.0
H38 H 0.21971 1.02525 0.13319 0.0
H39 H 0.13479 0.96723 0.1198 0.0
Tb40 Tb 0.82714 0.73876 0.3888 0.0
Eu41 Eu 0.8701 0.67485 0.42508 0.0
C42 C 0.84934 0.67331 0.34203 0.0
C43 C 0.75999 0.62632 0.40447 0.0
C44 C 0.82062 0.84937 0.37537 0.0
C45 C 0.85977 0.93268 0.35521 0.0
C46 C 0.8406 0.88334 0.3484 0.0
C47 C 0.82029 0.86591 0.40933 0.0
C48 C 0.83929 0.91509 0.41608 0.0
C49 C 0.8594 0.94916 0.38919 0.0
C50 C 0.80132 0.79724 0.36804 0.0
O51 O 0.85488 0.76746 0.4399 0.0
O52 O 0.83315 0.69687 0.4665 0.0
O53 O 0.92911 0.75205 0.42729 0.0
O54 O 0.9048 0.77605 0.37896 0.0
C55 C 0.8378 0.74021 0.4672 0.0
O56 O 0.8625 0.61458 0.45689 0.0
O57 O 0.93104 0.6635 0.43383 0.0
O58 O 0.87912 0.67402 0.36622 0.0
O59 O 0.81907 0.68874 0.34799 0.0
O60 O 0.76406 0.66965 0.40544 0.0
O61 O 0.79802 0.62129 0.40397 0.0
C62 C 0.93888 0.78182 0.40112 0.0
O63 O 0.82877 0.78617 0.34996 0.0
O64 O 0.78137 0.7676 0.39403 0.0
C65 C 0.91166 0.58227 0.43905 0.0
C66 C 0.92513 0.50524 0.41685 0.0
C67 C 0.9467 0.53076 0.44786 0.0
C68 C 0.94013 0.56889 0.45874 0.0
C69 C 0.89008 0.5571 0.40803 0.0
C70 C 0.89659 0.51885 0.39712 0.0
C71 C 0.90605 0.62328 0.4507 0.0
H72 H 0.87378 0.95775 0.3337 0.0
H73 H 0.84121 0.8717 0.32197 0.0
H74 H 0.80526 0.84093 0.43082 0.0
H75 H 0.83813 0.92655 0.44245 0.0
H76 H 0.96775 0.52052 0.46424 0.0
H77 H 0.95713 0.58782 0.48274 0.0
H78 H 0.86817 0.56699 0.39229 0.0
H79 H 0.8793 0.49989 0.37321 0.0
Tb80 Tb 0.87564 0.22759 0.11718 0.0
Eu81 Eu 0.98145 0.2697 0.15351 0.0
C82 C 0.97204 0.28283 0.07488 0.0
C83 C 0.90992 0.15749 0.13616 0.0
C84 C 0.74284 0.18559 0.10512 0.0
C85 C 0.65989 0.16188 0.08989 0.0
C86 C 0.70639 0.17316 0.08004 0.0
C87 C 0.73188 0.18724 0.14042 0.0
C88 C 0.68523 0.1759 0.15034 0.0
C89 C 0.64834 0.16265 0.12521 0.0
C90 C 0.78997 0.19151 0.09423 0.0
O91 O 0.86504 0.21809 0.17455 0.0
O92 O 0.94043 0.26038 0.2013 0.0
O93 O 0.97446 0.33712 0.15461 0.0
O94 O 0.89781 0.30247 0.12982 0.0
C95 C 0.89334 0.2363 0.20245 0.0
O96 O 0.05218 0.29606 0.18059 0.0
O97 O 1.0317 0.25188 0.13212 0.0
O98 O 0.98703 0.30686 0.10366 0.0
O99 O 0.92855 0.2445 0.07432 0.0
O100 O 0.8931 0.17094 0.11011 0.0
O101 O 0.93443 0.18876 0.16068 0.0
C102 C 0.93613 0.3394 0.14402 0.0
O103 O 0.82455 0.23453 0.086 0.0
O104 O 0.80605 0.16836 0.1128 0.0
C105 C 0.10983 0.27351 0.15456 0.0
C106 C 0.1839 0.24993 0.15101 0.0
C107 C 0.17376 0.26525 0.18271 0.0
C108 C 0.13693 0.27689 0.18448 0.0
C109 C 0.1222 0.26106 0.12258 0.0
C110 C 0.15852 0.24922 0.12088 0.0
C111 C 0.06377 0.27371 0.15689 0.0
H112 H 0.63282 0.15246 0.06971 0.0
H113 H 0.71363 0.17116 0.05271 0.0
H114 H 0.75909 0.19615 0.16042 0.0
H115 H 0.67778 0.17628 0.1778 0.0
H116 H 0.19272 0.26599 0.20641 0.0
H117 H 0.12785 0.28572 0.20953 0.0
H118 H 0.10226 0.25829 0.09892 0.0
H119 H 0.16601 0.2383 0.09604 0.0
Tb120 Tb 0.34983 0.10799 0.39133 0.0
Eu121 Eu 0.41552 0.21491 0.42928 0.0
C122 C 0.41932 0.19611 0.34661 0.0
C123 C 0.46025 0.14884 0.41297 0.0
C124 C 0.24068 0.99068 0.37133 0.0
C125 C 0.1584 0.97502 0.37627 0.0
C126 C 0.20765 1.00742 0.37227 0.0
C127 C 0.22361 0.94113 0.37465 0.0
C128 C 0.17449 0.90882 0.37888 0.0
C129 C 0.14127 0.92532 0.37968 0.0
C130 C 0.29299 1.02429 0.36832 0.0
O131 O 0.32123 0.10727 0.44212 0.0
O132 O 0.39147 0.15486 0.47027 0.0
O133 O 0.3388 0.19823 0.42913 0.0
O134 O 0.31325 0.14937 0.38086 0.0
C135 C 0.34824 0.11636 0.46977 0.0
O136 O 0.47592 0.26696 0.46181 0.0
O137 O 0.42694 0.28712 0.43876 0.0
O138 O 0.41872 0.22551 0.37043 0.0
O139 O 0.40316 0.15026 0.35283 0.0
O140 O 0.41644 0.11088 0.41091 0.0
O141 O 0.46794 0.193 0.41189 0.0
C142 C 0.30946 0.17944 0.40236 0.0
O143 O 0.30633 0.06359 0.3504 0.0
O144 O 0.31791 1.03288 0.39711 0.0
C145 C 0.50777 0.34952 0.44607 0.0
C146 C 0.58461 0.44197 0.4277 0.0
C147 C 0.57123 0.43014 0.46278 0.0
C148 C 0.53333 0.38445 0.47183 0.0
C149 C 0.52051 0.36129 0.41096 0.0
C150 C 0.55838 0.40701 0.40187 0.0
C151 C 0.46693 0.30192 0.45615 0.0
H152 H 0.13386 0.98896 0.37746 0.0
H153 H 0.21994 0.04557 0.3703 0.0
H154 H 0.2484 0.92743 0.37424 0.0
H155 H 0.16241 0.87076 0.38141 0.0
H156 H 0.59073 0.45595 0.48334 0.0
H157 H 0.52398 0.37637 0.49906 0.0
H158 H 0.50106 0.33518 0.39054 0.0
H159 H 0.56703 0.41506 0.37456 0.0
Tb160 Tb 0.85059 0.66816 0.1136 0.0
Eu161 Eu 0.81414 0.73669 0.15195 0.0
C162 C 0.80165 0.71846 0.07331 0.0
C163 C 0.92413 0.77291 0.13597 0.0
C164 C 0.89557 0.58159 0.09889 0.0
C165 C 0.92916 0.52915 0.08788 0.0
C166 C 0.91842 0.56456 0.07662 0.0
C167 C 0.88485 0.56346 0.13305 0.0
C168 C 0.8956 0.52806 0.14434 0.0
C169 C 0.9171 0.50967 0.12169 0.0
C170 C 0.88148 0.61659 0.08576 0.0
O171 O 0.84454 0.64795 0.16894 0.0
O172 O 0.84315 0.71235 0.19542 0.0
O173 O 0.75342 0.65913 0.16162 0.0
O174 O 0.77365 0.6214 0.11876 0.0
C175 C 0.84774 0.67392 0.19666 0.0
O176 O 0.81595 0.7863 0.19234 0.0
O177 O 0.77495 0.77552 0.14503 0.0
O178 O 0.77661 0.70926 0.10145 0.0
O179 O 0.84009 0.71322 0.07376 0.0
O180 O 0.91245 0.72765 0.13857 0.0
O181 O 0.8901 0.78397 0.1312 0.0
C182 C 0.74387 0.62078 0.14239 0.0
O183 O 0.83632 0.60382 0.08849 0.0
O184 O 0.90874 0.66152 0.09469 0.0
C185 C 0.81355 0.85396 0.16889 0.0
C186 C 0.84901 0.95362 0.15768 0.0
C187 C 0.81714 0.92929 0.18513 0.0
C188 C 0.79945 0.87994 0.19057 0.0
C189 C 0.84641 0.87837 0.14204 0.0
C190 C 0.86391 0.92766 0.13648 0.0
C191 C 0.79213 0.80123 0.1733 0.0
H192 H 0.94548 0.51581 0.06965 0.0
H193 H 0.92709 0.57793 0.05018 0.0
H194 H 0.86744 0.5761 0.15084 0.0
H195 H 0.88663 0.51473 0.17076 0.0
H196 H 0.80497 0.94823 0.2019 0.0
H197 H 0.77412 0.86188 0.21139 0.0
H198 H 0.85801 0.85914 0.12506 0.0
H199 H 0.88913 0.94548 0.11556 0.0
Tb200 Tb 0.97909 0.26124 0.39466 0.0
Eu201 Eu 0.87159 0.21891 0.43103 0.0
C202 C 0.88632 0.22142 0.34786 0.0
C203 C 0.9307 0.32799 0.39933 0.0
C204 C 0.09621 0.26757 0.37366 0.0
C205 C 0.175 0.27838 0.36029 0.0
C206 C 0.14167 0.29451 0.35857 0.0
C207 C 0.0839 0.22316 0.38926 0.0
C208 C 0.117 0.20667 0.39058 0.0
C209 C 0.1634 0.23482 0.37702 0.0
C210 C 0.06509 0.28922 0.37735 0.0
O211 O 0.98187 0.29705 0.44275 0.0
O212 O 0.92942 0.23169 0.47199 0.0
O213 O 0.87485 0.15546 0.41085 0.0
O214 O 0.95643 0.1878 0.41314 0.0
C215 C 0.97044 0.27257 0.47144 0.0
O216 O 0.8217 0.22679 0.4656 0.0
O217 O 0.79991 0.15831 0.44072 0.0
O218 O 0.862 0.22709 0.37319 0.0
O219 O 0.92802 0.22387 0.35294 0.0
O220 O 0.96361 0.32019 0.38464 0.0
O221 O 0.89641 0.29641 0.41948 0.0
C222 C 0.91268 0.15027 0.41087 0.0
O223 O 1.03016 0.27717 0.35479 0.0
O224 O 0.05114 0.28978 0.40906 0.0
C225 C 0.73815 0.17586 0.45304 0.0
C226 C 0.64368 0.15866 0.44029 0.0
C227 C 0.65528 0.14348 0.47153 0.0
C228 C 0.70196 0.15208 0.47782 0.0
C229 C 0.72675 0.19045 0.42151 0.0
C230 C 0.67991 0.18184 0.41518 0.0
C231 C 0.78665 0.18292 0.46013 0.0
H232 H 0.21044 0.30066 0.34947 0.0
H233 H 0.15219 0.3291 0.34678 0.0
H234 H 0.04957 0.20241 0.40191 0.0
H235 H 0.10724 0.17317 0.40384 0.0
H236 H 0.62812 0.12472 0.49112 0.0
H237 H 0.70976 0.13989 0.50209 0.0
H238 H 0.75404 0.20846 0.40187 0.0
H239 H 0.67222 0.19411 0.39091 0.0
Tb240 Tb 0.12218 0.32832 0.64655 0.0
Eu241 Eu 0.22904 0.3922 0.61115 0.0
C242 C 0.20929 0.39439 0.69363 0.0
C243 C 0.16613 0.44046 0.6289 0.0
C244 C 1.00641 0.21698 0.66351 0.0
C245 C 0.95388 0.13846 0.68935 0.0
C246 C 0.98528 0.18815 0.69293 0.0
C247 C 0.99642 0.19474 0.63044 0.0
C248 C 0.96492 0.14501 0.62683 0.0
C249 C 0.94257 0.1164 0.65619 0.0
C250 C 1.03878 0.26978 0.66786 0.0
O251 O 0.1216 0.30069 0.59525 0.0
O252 O 0.17062 0.3714 0.56923 0.0
O253 O 0.2103 0.31466 0.60885 0.0
O254 O 0.16341 0.29172 0.65735 0.0
C255 C 0.1313 0.32881 0.56841 0.0
O256 O 0.28162 0.4517 0.57912 0.0
O257 O 0.30127 0.40333 0.60411 0.0
O258 O 0.23822 0.39294 0.67007 0.0
O259 O 0.16398 0.37991 0.68679 0.0
O260 O 0.12723 0.39698 0.6289 0.0
O261 O 0.20934 0.44582 0.63057 0.0
C262 C 0.19128 0.28554 0.6354 0.0
O263 O 0.07767 0.28314 0.68641 0.0
O264 O 1.0474 0.29643 0.64009 0.0
C265 C 0.36335 0.48546 0.59878 0.0
C266 C 0.45338 0.56516 0.61917 0.0
C267 C 0.42234 0.57119 0.59618 0.0
C268 C 0.37799 0.53193 0.58614 0.0
C269 C 0.39473 0.47924 0.62137 0.0
C270 C 0.4392 0.5186 0.63138 0.0
C271 C 0.31663 0.44365 0.58717 0.0
H272 H 0.93799 0.11731 0.71256 0.0
H273 H 0.99275 0.20418 0.71875 0.0
H274 H 1.01242 0.21582 0.60727 0.0
H275 H 0.95689 0.12919 0.60095 0.0
H276 H 0.43269 0.6063 0.58543 0.0
H277 H 0.3553 0.53796 0.56819 0.0
H278 H 0.38507 0.4439 0.63128 0.0
H279 H 0.46236 0.51267 0.64891 0.0
Tb280 Tb 0.24904 0.86682 0.91698 0.0
Eu281 Eu 0.27423 0.96877 0.87566 0.0
C282 C 0.28279 0.96695 0.95969 0.0
C283 C 0.16863 0.89412 0.90103 0.0
C284 C 0.20948 0.73333 0.9284 0.0
C285 C 0.14707 0.64847 0.93383 0.0
C286 C 0.16465 0.69768 0.94105 0.0
C287 C 0.23549 0.71817 0.90743 0.0
C288 C 0.21799 0.66901 0.90032 0.0
C289 C 0.17405 0.63318 0.91411 0.0
C290 C 0.23125 0.78496 0.94017 0.0
O291 O 0.25733 0.85782 0.86091 0.0
O292 O 0.23387 0.9088 0.83789 0.0
O293 O 0.33681 0.95345 0.86955 0.0
O294 O 0.32561 0.91616 0.92218 0.0
C295 C 0.23991 0.87158 0.83495 0.0
O296 O 0.25391 1.00629 0.83748 0.0
O297 O 0.32013 0.0462 0.86663 0.0
O298 O 0.29158 0.99124 0.93072 0.0
O299 O 0.26359 0.91908 0.96056 0.0
O300 O 0.18034 0.86012 0.90077 0.0
O301 O 0.2021 0.93979 0.90151 0.0
C302 C 0.35291 0.93765 0.89538 0.0
O303 O 0.27136 0.81621 0.92563 0.0
O304 O 0.20334 0.80328 0.94528 0.0
C305 C 0.27448 0.08472 0.85576 0.0
C306 C 0.24451 0.1519 0.87304 0.0
C307 C 0.27346 0.15897 0.8437 0.0
C308 C 0.28811 0.12563 0.8351 0.0
C309 C 0.24605 0.07775 0.88528 0.0
C310 C 0.23121 0.11094 0.89383 0.0
C311 C 0.28889 0.04888 0.84613 0.0
H312 H 0.11257 0.62228 0.94429 0.0
H313 H 0.14362 0.7077 0.95738 0.0
H314 H 0.27033 0.74417 0.89733 0.0
H315 H 0.24002 0.65896 0.88519 0.0
H316 H 0.28421 0.19 0.82709 0.0
H317 H 0.30988 0.13167 0.81216 0.0
H318 H 0.23523 0.04651 0.90171 0.0
H319 H 0.20973 0.10478 0.91693 0.0
Tb320 Tb 0.75215 0.80604 0.64391 0.0
Eu321 Eu 0.68671 0.84717 0.60522 0.0
C322 C 0.68978 0.8374 0.6892 0.0
C323 C 0.63884 0.73762 0.63516 0.0
C324 C 0.86454 0.80114 0.66305 0.0
C325 C 0.9328 0.78766 0.66395 0.0
C326 C 0.88362 0.77059 0.66821 0.0
C327 C 0.89569 0.84949 0.65406 0.0
C328 C 0.94509 0.86672 0.64996 0.0
C329 C 0.96415 0.83582 0.65453 0.0
C330 C 0.81184 0.78076 0.66435 0.0
O331 O 0.72567 0.77256 0.5938 0.0
O332 O 0.73512 0.83817 0.56557 0.0
O333 O 0.7481 0.90858 0.6328 0.0
O334 O 0.80019 0.88053 0.62643 0.0
C335 C 0.73829 0.79868 0.56583 0.0
O336 O 0.62495 0.83635 0.57348 0.0
O337 O 0.67747 0.90803 0.5902 0.0
O338 O 0.66451 0.83758 0.66198 0.0
O339 O 0.72795 0.83238 0.68686 0.0
O340 O 0.67831 0.74646 0.65261 0.0
O341 O 0.63724 0.76818 0.61301 0.0
C342 C 0.792 0.91618 0.63304 0.0
O343 O 0.7954 0.80224 0.68419 0.0
O344 O 0.7899 0.76933 0.63429 0.0
C345 C 0.5965 0.89051 0.5858 0.0
C346 C 0.51993 0.90633 0.60457 0.0
C347 C 0.5342 0.90957 0.56956 0.0
C348 C 0.57197 0.90167 0.56031 0.0
C349 C 0.58313 0.88818 0.62087 0.0
C350 C 0.54542 0.89619 0.63017 0.0
C351 C 0.63566 0.88128 0.57544 0.0
H352 H 0.94633 0.763 0.66776 0.0
H353 H 0.86025 0.73309 0.67486 0.0
H354 H 0.88169 0.87361 0.64948 0.0
H355 H 0.96811 0.90379 0.64216 0.0
H356 H 0.5153 0.91702 0.54915 0.0
H357 H 0.5817 0.90378 0.5331 0.0
H358 H 0.6017 0.87993 0.64106 0.0
H359 H 0.53615 0.89433 0.65744 0.0
Tb360 Tb 0.21449 0.4031 0.9214 0.0
Eu361 Eu 0.1107 0.32727 0.88013 0.0
C362 C 0.11569 0.33615 0.9643 0.0
C363 C 0.18666 0.29593 0.90277 0.0
C364 C 0.34783 0.4956 0.93262 0.0
C365 C 0.43359 0.54396 0.94717 0.0
C366 C 0.38599 0.5108 0.95671 0.0
C367 C 0.35887 0.51333 0.89828 0.0
C368 C 0.40648 0.54662 0.88874 0.0
C369 C 0.44458 0.56338 0.91324 0.0
C370 C 0.29691 0.46601 0.94477 0.0
O371 O 0.22172 0.42216 0.86579 0.0
O372 O 0.16927 0.34877 0.84165 0.0
O373 O 0.12455 0.40524 0.87615 0.0
O374 O 0.16531 0.43025 0.92806 0.0
C375 C 0.20689 0.39167 0.83945 0.0
O376 O 0.07232 0.26994 0.84169 0.0
O377 O 1.033 0.29544 0.87197 0.0
O378 O 0.09069 0.3211 0.93543 0.0
O379 O 0.16343 0.36482 0.96505 0.0
O380 O 0.22038 0.34161 0.90276 0.0
O381 O 0.14113 0.28375 0.90442 0.0
C382 C 0.14194 0.43659 0.90234 0.0
O383 O 0.26566 0.47561 0.93055 0.0
O384 O 0.2787 0.41961 0.94898 0.0
C385 C 0.99396 0.21152 0.85915 0.0
C386 C 0.925 0.11418 0.87429 0.0
C387 C 0.91654 0.13962 0.84776 0.0
C388 C 0.95061 0.18767 0.8403 0.0
C389 C 1.00277 0.18627 0.88555 0.0
C390 C 0.96881 0.13804 0.89289 0.0
C391 C 1.02999 0.26217 0.85072 0.0
H392 H 0.46161 0.55589 0.96687 0.0
H393 H 0.37879 0.49822 0.9834 0.0
H394 H 0.33047 0.50244 0.87897 0.0
H395 H 0.41334 0.55969 0.86217 0.0
H396 H 0.88367 0.12215 0.83245 0.0
H397 H 0.94312 0.20618 0.81965 0.0
H398 H 1.03594 0.2039 0.90051 0.0
H399 H 0.97651 0.11961 0.91346 0.0
Tb400 Tb 0.27769 0.96003 0.64431 0.0
Eu401 Eu 0.23453 0.85396 0.60529 0.0
C402 C 0.24998 0.86932 0.6889 0.0
C403 C 0.344 0.91433 0.62795 0.0
C404 C 0.2866 0.07704 0.6644 0.0
C405 C 0.28027 0.14537 0.68564 0.0
C406 C 0.2979 0.11333 0.68931 0.0
C407 C 0.25691 0.0729 0.63592 0.0
C408 C 0.23949 0.10502 0.63214 0.0
C409 C 0.25092 0.14165 0.65695 0.0
C410 C 0.30539 0.04343 0.66837 0.0
O411 O 0.25133 0.96339 0.59319 0.0
O412 O 0.27283 0.91494 0.56529 0.0
O413 O 0.17521 0.87212 0.6042 0.0
O414 O 0.19967 0.92134 0.65236 0.0
C415 C 0.26878 0.95398 0.56573 0.0
O416 O 0.24373 0.80242 0.57306 0.0
O417 O 0.17396 0.7823 0.59383 0.0
O418 O 0.22143 0.8418 0.66362 0.0
O419 O 0.28255 0.91455 0.68389 0.0
O420 O 0.34036 0.95379 0.62725 0.0
O421 O 0.30567 0.87143 0.6281 0.0
C422 C 0.1657 0.89273 0.63021 0.0
O423 O 0.27815 1.00389 0.68543 0.0
O424 O 0.32274 0.03494 0.64026 0.0
C425 C 0.19195 0.71934 0.58652 0.0
C426 C 0.17467 0.6255 0.60377 0.0
C427 C 0.16654 0.63639 0.56965 0.0
C428 C 0.17496 0.68266 0.5612 0.0
C429 C 0.2002 0.70883 0.62061 0.0
C430 C 0.19176 0.66252 0.62911 0.0
C431 C 0.19956 0.76768 0.57709 0.0
H432 H 0.2904 0.17366 0.70488 0.0
H433 H 0.32063 0.11711 0.71151 0.0
H434 H 0.24733 0.04493 0.6165 0.0
H435 H 0.21686 0.10111 0.60985 0.0
H436 H 0.1547 0.60945 0.54919 0.0
H437 H 0.16835 0.68987 0.53472 0.0
H438 H 0.21315 0.73644 0.64066 0.0
H439 H 0.19853 0.65561 0.65562 0.0
Tb440 Tb 0.6742 0.83073 0.91654 0.0
Eu441 Eu 0.75054 0.80271 0.87744 0.0
C442 C 0.74335 0.80296 0.96099 0.0
C443 C 0.78028 0.91107 0.89848 0.0
C444 C 0.57771 0.86646 0.92786 0.0
C445 C 0.4956 0.84809 0.9142 0.0
C446 C 0.52851 0.83303 0.92318 0.0
C447 C 0.59297 0.91572 0.92327 0.0
C448 C 0.55982 0.93086 0.9143 0.0
C449 C 0.51059 0.8972 0.90954 0.0
C450 C 0.61096 0.84906 0.9401 0.0
O451 O 0.65615 0.82173 0.86034 0.0
O452 O 0.72861 0.83801 0.8373 0.0
O453 O 0.67285 0.73954 0.87104 0.0
O454 O 0.64671 0.75405 0.92238 0.0
C455 C 0.68656 0.83476 0.83422 0.0
O456 O 0.80784 0.82029 0.8398 0.0
O457 O 0.78275 0.75672 0.87167 0.0
O458 O 0.75423 0.78761 0.93294 0.0
O459 O 0.71651 0.82406 0.96061 0.0
O460 O 0.73443 0.89812 0.8979 0.0
O461 O 0.79378 0.87839 0.89977 0.0
C462 C 0.64041 0.72538 0.89609 0.0
O463 O 0.60213 0.80723 0.92839 0.0
O464 O 0.65716 0.87916 0.94193 0.0
C465 C 0.86735 0.80196 0.85971 0.0
C466 C 0.96538 0.83399 0.87639 0.0
C467 C 0.95273 0.84959 0.84584 0.0
C468 C 0.90444 0.83372 0.8376 0.0
C469 C 0.87991 0.7859 0.89015 0.0
C470 C 0.92829 0.80153 0.89826 0.0
C471 C 0.81631 0.78664 0.85074 0.0
H472 H 0.45795 0.82111 0.91189 0.0
H473 H 0.51511 0.79494 0.92718 0.0
H474 H 0.63038 0.94266 0.92706 0.0
H475 H 0.57269 0.96898 0.91117 0.0
H476 H 0.98023 0.87368 0.82798 0.0
H477 H 0.89607 0.84646 0.81382 0.0
H478 H 0.85245 0.76142 0.90786 0.0
H479 H 0.93677 0.78869 0.92193 0.0
C480 C 0.20551 0.18718 0.13427 0.0
C481 C 0.21918 0.23256 0.14913 0.0
C482 C 0.23835 0.17044 0.13106 0.0
C483 C 0.28651 0.19878 0.14199 0.0
H484 H 0.16895 0.16429 0.12514 0.0
H485 H 0.22601 0.1353 0.11946 0.0
S486 S 0.34032 0.32043 0.1828 0.0
N487 N 0.28382 0.30527 0.17519 0.0
N488 N 0.34584 0.27466 0.16885 0.0
C489 C 0.30052 0.24426 0.15705 0.0
C490 C 0.26683 0.26089 0.16073 0.0
C491 C 0.07487 0.8571 0.41248 0.0
C492 C 0.08916 0.8906 0.38511 0.0
C493 C 1.02634 0.82301 0.41775 0.0
C494 C 0.98977 0.82053 0.3957 0.0
H495 H 0.10151 0.85726 0.4301 0.0
H496 H 1.01767 0.79798 0.43913 0.0
S497 S 1.00836 0.90034 0.31995 0.0
N498 N 0.063 0.9194 0.33562 0.0
N499 N 0.97177 0.8555 0.34537 0.0
C500 C 1.00359 0.85426 0.36835 0.0
C501 C 0.05317 0.88921 0.36313 0.0
C502 C 0.89969 0.08831 0.17342 0.0
C503 C 0.89614 0.10577 0.14039 0.0
C504 C 0.88464 0.03934 0.17871 0.0
C505 C 0.86606 1.00574 0.15112 0.0
H506 H 0.91336 0.11246 0.19566 0.0
H507 H 0.8877 1.02768 0.20467 0.0
S508 S 0.84993 1.03257 0.05939 0.0
N509 N 0.87305 0.08518 0.0795 0.0
N510 N 0.84512 0.99349 0.08945 0.0
C511 C 0.863 1.02276 0.11785 0.0
C512 C 0.87786 0.07256 0.11251 0.0
C513 C 0.22977 0.16336 0.37726 0.0
C514 C 0.27238 0.19378 0.39592 0.0
C515 C 0.19441 0.1765 0.37134 0.0
C516 C 0.20091 0.22106 0.38308 0.0
H517 H 0.22336 0.12887 0.36755 0.0
H518 H 0.16197 0.15186 0.3572 0.0
S519 S 0.30593 0.31405 0.43272 0.0
N520 N 0.31868 0.27075 0.42594 0.0
N521 N 0.25285 0.29533 0.41433 0.0
C522 C 0.24338 0.25187 0.40146 0.0
C523 C 0.27891 0.23828 0.408 0.0
C524 C 1.03877 0.89578 0.14893 0.0
C525 C 0.07463 0.88319 0.15446 0.0
C526 C 0.99037 0.86035 0.14243 0.0
C527 C 0.97595 0.8109 0.14087 0.0
H528 H 1.04797 0.9332 0.1505 0.0
H529 H 0.96403 0.8718 0.13914 0.0
S530 S 0.05748 0.75984 0.14994 0.0
N531 N 0.093 0.81834 0.15541 0.0
N532 N 1.00329 0.75216 0.1432 0.0
C533 C 1.01213 0.7983 0.14518 0.0
C534 C 0.06101 0.83423 0.15196 0.0
C535 C 0.84771 1.01393 0.41596 0.0
C536 C 0.87663 1.00117 0.39642 0.0
C537 C 0.86097 0.06224 0.42159 0.0
C538 C 0.90397 0.10018 0.40818 0.0
H539 H 0.81361 0.98631 0.42612 0.0
H540 H 0.83666 0.0699 0.43606 0.0
S541 S 0.99398 0.08658 0.35685 0.0
N542 N 0.95171 1.03067 0.36508 0.0
N543 N 0.97616 0.12164 0.37524 0.0
C544 C 0.93408 0.08814 0.38951 0.0
C545 C 0.92045 0.03868 0.38362 0.0
C546 C 0.24016 0.20031 0.61983 0.0
C547 C 0.23373 0.1769 0.65206 0.0
C548 C 0.22582 0.23477 0.61469 0.0
C549 C 0.20387 0.24703 0.64142 0.0
H550 H 0.25736 0.19265 0.59853 0.0
H551 H 0.23226 0.25208 0.58946 0.0
S552 S 0.17682 0.19437 0.73041 0.0
N553 N 0.20252 0.16717 0.71086 0.0
N554 N 0.17544 0.23173 0.70132 0.0
C555 C 0.19637 0.22315 0.67366 0.0
C556 C 0.2114 0.18829 0.67896 0.0
C557 C 0.08045 0.83154 0.8991 0.0
C558 C 0.11674 0.8804 0.89746 0.0
C559 C 1.03174 0.81706 0.89315 0.0
C560 C 1.01703 0.85065 0.88489 0.0
H561 H 0.08969 0.80394 0.90453 0.0
H562 H 1.0055 0.77898 0.89407 0.0
S563 S 0.09658 0.98326 0.87966 0.0
N564 N 0.13349 0.96271 0.88862 0.0
N565 N 1.04236 0.93535 0.87745 0.0
C566 C 0.0526 0.89969 0.88403 0.0
C567 C 0.1022 0.91456 0.89035 0.0
C568 C 0.87776 0.98419 0.62655 0.0
C569 C 0.83167 0.96599 0.64088 0.0
C570 C 0.91371 1.03272 0.63171 0.0
C571 C 0.9052 0.06448 0.652 0.0
H572 H 0.88566 0.96125 0.61043 0.0
H573 H 0.94839 0.04553 0.61968 0.0
S574 S 0.79139 1.03401 0.69662 0.0
N575 N 0.78035 0.98343 0.67729 0.0
N576 N 0.84741 0.07369 0.68685 0.0
C577 C 0.85969 0.04624 0.66714 0.0
C578 C 0.82314 0.99731 0.66162 0.0
C579 C 0.24861 0.27155 0.89026 0.0
C580 C 0.20042 0.25796 0.89736 0.0
C581 C 0.26241 0.23719 0.88262 0.0
C582 C 0.22882 0.18754 0.88197 0.0
H583 H 0.27608 0.30922 0.89002 0.0
H584 H 0.29988 0.24971 0.87725 0.0
S585 S 0.09801 0.13218 0.8982 0.0
N586 N 0.11893 0.19055 0.9031 0.0
N587 N 0.14497 0.12641 0.88866 0.0
C588 C 0.18061 0.17323 0.88931 0.0
C589 C 0.16643 0.20824 0.89697 0.0
C590 C 0.07701 0.8394 0.61999 0.0
C591 C 0.11491 0.88078 0.63584 0.0
C592 C 1.02873 0.82549 0.62611 0.0
C593 C 1.01601 0.85259 0.64801 0.0
H594 H 0.08453 0.81684 0.60315 0.0
H595 H 1.00102 0.79317 0.61345 0.0
S596 S 0.10103 0.96466 0.69528 0.0
N597 N 0.13603 0.94929 0.67411 0.0
N598 N 1.04533 0.92318 0.68535 0.0
C599 C 0.05339 0.8945 0.66358 0.0
C600 C 0.10271 0.90849 0.65764 0.0
C601 C 0.90096 1.02685 0.88455 0.0
C602 C 0.88816 0.063 0.88241 0.0
C603 C 0.86627 0.97819 0.89043 0.0
C604 C 0.81721 0.96349 0.89472 0.0
H605 H 0.93797 0.03605 0.88077 0.0
H606 H 0.87803 0.95182 0.89099 0.0
S607 S 0.76587 0.04521 0.89505 0.0
N608 N 0.82358 0.08122 0.88759 0.0
N609 N 0.75867 0.99063 0.89866 0.0
C610 C 0.80435 0.99977 0.89381 0.0
C611 C 0.83964 0.04914 0.88764 0.0
C612 C 0.45815 0.19398 0.2914 0.0
C613 C 0.43337 0.21231 0.31037 0.0
C614 C 0.45888 0.19512 0.25485 0.0
C615 C 0.43453 0.21427 0.23614 0.0
H616 H 0.47367 0.17505 0.30477 0.0
H617 H 0.47395 0.17612 0.24125 0.0
S618 S 0.36918 0.27167 0.27345 0.0
N619 N 0.38854 0.25496 0.30787 0.0
N620 N 0.38898 0.25598 0.23901 0.0
C621 C 0.41346 0.23662 0.25481 0.0
C622 C 0.41322 0.23605 0.29207 0.0
C623 C 0.89513 0.68593 0.28736 0.0
C624 C 0.85216 0.65958 0.30588 0.0
C625 C 0.89487 0.6857 0.25071 0.0
C626 C 0.85192 0.65819 0.23177 0.0
H627 H 0.928 0.71064 0.30104 0.0
H628 H 0.92747 0.71049 0.23718 0.0
S629 S 0.73167 0.57748 0.26835 0.0
N630 N 0.76688 0.60133 0.30288 0.0
N631 N 0.76681 0.59998 0.23409 0.0
C632 C 0.80994 0.62791 0.25009 0.0
C633 C 0.80996 0.62884 0.28724 0.0
C634 C 0.87188 0.18422 0.25407 0.0
C635 C 0.8728 0.22375 0.23748 0.0
C636 C 0.87072 0.18075 0.29051 0.0
C637 C 0.86987 0.21641 0.31139 0.0
H638 H 0.87676 0.15833 0.23901 0.0
H639 H 0.87451 0.15213 0.3025 0.0
S640 S 0.86641 0.32411 0.28015 0.0
N641 N 0.86876 0.29701 0.24412 0.0
N642 N 0.86532 0.28987 0.31283 0.0
C643 C 0.8661 0.25361 0.29498 0.0
C644 C 0.86802 0.25751 0.25784 0.0
C645 C 0.21244 0.43607 0.74904 0.0
C646 C 0.22512 0.40641 0.73018 0.0
C647 C 0.21341 0.43671 0.78563 0.0
C648 C 0.22606 0.40687 0.80426 0.0
H649 H 0.19829 0.45611 0.73547 0.0
H650 H 0.19931 0.45662 0.79925 0.0
S651 S 0.2666 0.32642 0.76717 0.0
N652 N 0.25544 0.35049 0.73274 0.0
N653 N 0.2555 0.35032 0.80157 0.0
C654 C 0.24254 0.38017 0.78574 0.0
C655 C 0.24254 0.3803 0.74855 0.0
C656 C 0.27867 0.8609 0.78271 0.0
C657 C 0.23654 0.85307 0.79927 0.0
C658 C 0.28144 0.86112 0.74621 0.0
C659 C 0.24183 0.85257 0.72524 0.0
H660 H 0.31115 0.87209 0.79771 0.0
H661 H 0.31583 0.87179 0.73434 0.0
S662 S 0.12172 0.82474 0.75605 0.0
N663 N 0.15327 0.83262 0.79219 0.0
N664 N 0.15802 0.83158 0.72351 0.0
C665 C 0.19818 0.8401 0.74148 0.0
C666 C 0.19566 0.8408 0.77861 0.0
C667 C 0.70998 0.88347 0.74417 0.0
C668 C 0.67644 0.84362 0.72461 0.0
C669 C 0.70854 0.88308 0.78063 0.0
C670 C 0.67385 0.84256 0.79877 0.0
H671 H 0.7401 0.91327 0.73136 0.0
H672 H 0.73773 0.91262 0.79477 0.0
S673 S 0.5745 0.73166 0.75931 0.0
N674 N 0.60446 0.76495 0.72556 0.0
N675 N 0.60205 0.7639 0.79443 0.0
C676 C 0.63721 0.80457 0.77947 0.0
C677 C 0.63855 0.8051 0.74217 0.0
C678 C 0.29647 0.04106 0.99211 0.0
C679 C 0.29906 0.99809 0.99164 0.0
C680 C 0.31714 0.07305 0.01851 0.0
C681 C 0.34338 0.06706 0.04554 0.0
H682 H 0.2772 0.04777 0.97155 0.0
H683 H 0.31427 0.10766 1.01823 0.0
S684 S 0.36498 0.96354 0.05506 0.0
N685 N 0.33076 0.95014 0.01978 0.0
N686 N 0.37272 1.01569 0.06921 0.0
C687 C 0.34694 1.02463 0.04504 0.0
C688 C 0.32554 0.99195 1.01832 0.0
C689 C 0.77324 0.72176 0.51127 0.0
C690 C 0.81511 0.75577 0.49425 0.0
C691 C 0.74756 0.73631 0.53297 0.0
C692 C 0.7623 0.78544 0.53837 0.0
H693 H 0.75952 0.68359 0.50721 0.0
H694 H 0.71582 0.70867 0.54585 0.0
S695 S 0.8723 0.88887 0.50282 0.0
N696 N 0.87196 0.8411 0.48619 0.0
N697 N 0.82345 0.86798 0.52679 0.0
C698 C 0.8044 0.81981 0.52192 0.0
C699 C 0.83084 0.80508 0.50001 0.0
C700 C 1.04126 0.27714 0.99588 0.0
C701 C 0.085 0.32172 0.99613 0.0
C702 C 1.00325 0.26289 0.02052 0.0
C703 C 1.00868 0.29605 0.0466 0.0
H704 H 1.03442 0.2508 0.97564 0.0
H705 H 0.97076 0.22809 0.01913 0.0
S706 S 0.11632 0.41797 0.05904 0.0
N707 N 0.12987 0.39561 0.02499 0.0
N708 N 0.06233 0.37585 0.07125 0.0
C709 C 0.05275 0.34056 0.04751 0.0
C710 C 0.08986 0.35146 0.02248 0.0
C711 C 0.28246 0.0549 0.50653 0.0
C712 C 0.33105 0.0779 0.49669 0.0
C713 C 0.26231 1.01358 0.52759 0.0
C714 C 0.28922 0.99213 0.53861 0.0
H715 H 0.25971 0.069 0.4978 0.0
H716 H 0.2252 0.99831 0.53546 0.0
S717 S 0.41783 0.03747 0.51958 0.0
N718 N 0.40568 0.07594 0.49954 0.0
N719 N 0.36742 0.99753 0.53848 0.0
C720 C 0.33774 1.01435 0.5287 0.0
C721 C 0.35872 0.05736 0.50792 0.0
C722 C 0.74159 0.73548 0.04372 0.0
C723 C 0.78835 0.74118 0.04441 0.0
C724 C 0.72761 0.75854 0.01877 0.0
C725 C 0.76148 0.79185 0.99348 0.0
H726 H 0.71492 0.71208 0.06233 0.0
H727 H 0.69222 0.75379 1.0181 0.0
S728 S 0.88909 0.8229 0.9853 0.0
N729 N 0.8676 0.78218 0.01863 0.0
N730 N 0.84315 0.82845 0.97165 0.0
C731 C 0.8088 0.79935 0.99459 0.0
C732 C 0.82135 0.77246 0.0199 0.0
C733 C 0.05529 0.26679 0.53881 0.0
C734 C 0.0922 0.31542 0.542 0.0
C735 C 1.01452 0.25314 0.51751 0.0
C736 C 1.00902 0.28749 0.49838 0.0
H737 H 0.05794 0.23894 0.55285 0.0
H738 H 0.98788 0.21517 0.51523 0.0
S739 S 0.09361 0.41972 0.49869 0.0
N740 N 0.1192 0.39805 0.52496 0.0
N741 N 1.04326 0.37263 0.48484 0.0
C742 C 1.0454 0.33628 0.50156 0.0
C743 C 0.08682 0.35013 0.52325 0.0
C744 C 0.55797 0.10964 0.11939 0.0
C745 C 0.5979 0.14945 0.13525 0.0
C746 C 0.51055 0.09977 0.12503 0.0
C747 C 0.50072 0.12868 0.14729 0.0
H748 H 0.5635 0.08677 0.10142 0.0
H749 H 0.48154 0.07084 0.11036 0.0
S750 S 0.59137 0.23736 0.19498 0.0
N751 N 0.62351 0.21788 0.1744 0.0
N752 N 0.53472 0.1989 0.18504 0.0
C753 C 0.5399 0.16743 0.16429 0.0
C754 C 0.58827 0.17778 0.15841 0.0
C755 C 0.67478 0.57794 0.42654 0.0
C756 C 0.71236 0.58105 0.40596 0.0
C757 C 0.63314 0.53314 0.43288 0.0
C758 C 0.62709 0.48981 0.41845 0.0
H759 H 0.67852 0.60991 0.43918 0.0
H760 H 0.60577 0.53231 0.44968 0.0
S761 S 0.71377 0.47892 0.36095 0.0
N762 N 0.73958 0.53702 0.36982 0.0
N763 N 0.66203 0.4537 0.38163 0.0
C764 C 0.66363 0.49292 0.39671 0.0
C765 C 0.70599 0.53822 0.39053 0.0
C766 C 0.97318 0.42843 0.13163 0.0
C767 C 0.93516 0.38553 0.1451 0.0
C768 C 0.96774 0.46896 0.12513 0.0
C769 C 0.92432 0.46841 0.13226 0.0
H770 H 1.00632 0.4298 0.12417 0.0
H771 H 0.99741 0.5006 0.11362 0.0
S772 S 0.81498 0.36547 0.16981 0.0
N773 N 0.85361 0.34583 0.16704 0.0
N774 N 0.84338 0.4212 0.15494 0.0
C775 C 0.88695 0.42632 0.14726 0.0
C776 C 0.89238 0.38519 0.1536 0.0
C777 C 0.52376 0.12821 0.3967 0.0
C778 C 0.50246 0.14363 0.4217 0.0
C779 C 0.56912 0.13243 0.40298 0.0
C780 C 0.59448 0.15189 0.43456 0.0
H781 H 0.50628 0.11475 0.37165 0.0
H782 H 0.58473 0.12098 0.38281 0.0
S783 S 0.55332 0.19716 0.50823 0.0
N784 N 0.50953 0.17861 0.47904 0.0
N785 N 0.59404 0.18642 0.49098 0.0
C786 C 0.57267 0.16628 0.45995 0.0
C787 C 0.52692 0.16225 0.45345 0.0
C788 C 0.61564 0.51839 0.12838 0.0
C789 C 0.6194 0.47718 0.13606 0.0
C790 C 0.65471 0.56557 0.1337 0.0
C791 C 0.69919 0.57338 0.14667 0.0
H792 H 0.58267 0.51413 0.11716 0.0
H793 H 0.65098 0.59597 0.12559 0.0
S794 S 0.72845 0.47862 0.17081 0.0
N795 N 0.67171 0.44825 0.15795 0.0
N796 N 0.74456 0.5361 0.16721 0.0
C797 C 0.70293 0.53265 0.15533 0.0
C798 C 0.66327 0.48486 0.15031 0.0
C799 C 0.88772 0.41864 0.39809 0.0
C800 C 0.92937 0.46232 0.40667 0.0
C801 C 0.88931 0.37599 0.39316 0.0
C802 C 0.93268 0.37519 0.39603 0.0
H803 H 0.85308 0.41673 0.39706 0.0
H804 H 0.85582 0.34281 0.38855 0.0
S805 S 0.05277 0.48048 0.41435 0.0
N806 N 1.01612 0.50277 0.41492 0.0
N807 N 1.01881 0.42242 0.40565 0.0
C808 C 0.97506 0.41901 0.40243 0.0
C809 C 0.97345 0.46253 0.40785 0.0
C810 C 0.20479 0.57395 0.63122 0.0
C811 C 0.16854 0.5769 0.61239 0.0
C812 C 0.20232 0.52955 0.63753 0.0
C813 C 0.16329 0.4856 0.62561 0.0
H814 H 0.23639 0.60648 0.64018 0.0
H815 H 0.23206 0.52989 0.65135 0.0
S816 S 0.05681 0.47251 0.5773 0.0
N817 N 0.09059 0.5312 0.58365 0.0
N818 N 0.08622 0.44783 0.59541 0.0
C819 C 0.12577 0.48764 0.60791 0.0
C820 C 0.12842 0.53314 0.60122 0.0
C821 C 0.43538 0.95975 0.91759 0.0
C822 C 0.39809 0.9353 0.89295 0.0
C823 C 0.47307 0.94928 0.92142 0.0
C824 C 0.47432 0.91284 0.90149 0.0
H825 H 0.43433 0.9858 0.93506 0.0
H826 H 0.49994 0.96804 0.94154 0.0
S827 S 0.38525 0.83847 0.83318 0.0
N828 N 0.36521 0.87349 0.84822 0.0
N829 N 0.43546 0.85389 0.85499 0.0
C830 C 0.43787 0.88917 0.87608 0.0
C831 C 0.39995 0.90027 0.87199 0.0
C832 C 0.58908 0.64722 0.6315 0.0
C833 C 0.59292 0.69188 0.63949 0.0
C834 C 0.5437 0.60561 0.6266 0.0
C835 C 0.50077 0.6074 0.62948 0.0
H836 H 0.62118 0.64506 0.62674 0.0
H837 H 0.54234 0.5725 0.61861 0.0
S838 S 0.49194 0.71438 0.65545 0.0
N839 N 0.55023 0.73439 0.65357 0.0
N840 N 0.46555 0.65654 0.6454 0.0
C841 C 0.50446 0.65122 0.63997 0.0
C842 C 0.55035 0.69333 0.6447 0.0
C843 C 0.16252 0.56134 0.87759 0.0
C844 C 0.15856 0.58038 0.90994 0.0
C845 C 0.15304 0.51327 0.87427 0.0
C846 C 0.13975 0.48231 0.90327 0.0
H847 H 0.17421 0.58419 0.85476 0.0
H848 H 0.15895 0.50128 0.84932 0.0
S849 S 0.12217 0.51285 0.99341 0.0
N850 N 0.13854 0.56279 0.97122 0.0
N851 N 0.12082 0.47349 0.96496 0.0
C852 C 0.13387 0.50026 0.93533 0.0
C853 C 0.14317 0.54883 0.93868 0.0
C854 C 0.42948 0.95174 0.60649 0.0
C855 C 0.39153 0.9165 0.62638 0.0
C856 C 0.4713 0.94892 0.60014 0.0
C857 C 0.47717 0.91119 0.61387 0.0
H858 H 0.42598 0.98046 0.59444 0.0
H859 H 0.49898 0.97614 0.5839 0.0
S860 S 0.38956 0.81157 0.66957 0.0
N861 N 0.36385 0.84417 0.66136 0.0
N862 N 0.44161 0.83877 0.6493 0.0
C863 C 0.44021 0.87689 0.63492 0.0
C864 C 0.39771 0.87958 0.64118 0.0
C865 C 0.58311 0.63787 0.90995 0.0
C866 C 0.59215 0.68083 0.89336 0.0
C867 C 0.53567 0.59954 0.91516 0.0
C868 C 0.49502 0.60256 0.90428 0.0
H869 H 0.61285 0.63465 0.92034 0.0
H870 H 0.53078 0.56768 0.92862 0.0
S871 S 0.49954 0.70884 0.86127 0.0
N872 N 0.55653 0.7246 0.86704 0.0
N873 N 0.46815 0.65355 0.87667 0.0
C874 C 0.50392 0.64526 0.88716 0.0
C875 C 0.55211 0.68408 0.88191 0.0
loop_
_geom_bond_atom_site_label_1
_geom_bond_atom_site_label_2
_geom_bond_distance
_geom_bond_site_symmetry_2
_ccdc_geom_bond_type
Tb0 C10 2.825 . S
Tb0 O11 2.347 . S
Tb0 O14 2.366 . S
Tb0 O19 2.418 . S
Tb0 O20 2.384 . S
Tb0 O23 2.479 . S
Tb0 O24 2.471 . S
Eu1 O12 2.418 . S
Eu1 O13 2.384 . S
Eu1 O16 2.479 . S
Eu1 O17 2.471 . S
Eu1 O18 2.347 . S
Eu1 O21 2.366 . S
Eu1 C31 2.825 1_545 S
C2 O18 1.259 . S
C2 O19 1.265 . S
C3 O20 1.255 . S
C3 O21 1.265 . S
C4 C6 1.380 . S
C4 C7 1.374 . S
C4 C10 1.507 . S
C5 C6 1.384 . S
C5 C9 1.387 . S
C5 H32 0.930 . S
C6 C4 1.380 . S
C6 C5 1.384 . S
C6 H33 0.931 . S
C7 C4 1.374 . S
C7 C8 1.390 . S
C7 H34 0.930 . S
C8 C7 1.390 . S
C8 C9 1.391 . S
C8 H35 0.930 . S
C9 C5 1.387 . S
C9 C8 1.391 . S
C10 Tb0 2.825 . S
C10 C4 1.507 . S
C10 O23 1.238 . S
C10 O24 1.247 . S
O11 Tb0 2.347 . S
O11 C15 1.259 . S
O12 Eu1 2.418 . S
O12 C15 1.265 . S
O13 Eu1 2.384 . S
O13 C22 1.255 . S
O14 Tb0 2.366 . S
O14 C22 1.265 . S
C15 O11 1.259 . S
C15 O12 1.265 . S
O16 Eu1 2.479 . S
O16 C31 1.238 1_545 S
O17 Eu1 2.471 . S
O17 C31 1.247 1_545 S
O18 Eu1 2.347 . S
O18 C2 1.259 . S
O19 Tb0 2.418 . S
O19 C2 1.265 . S
O20 Tb0 2.384 . S
O20 C3 1.255 . S
O21 Eu1 2.366 . S
O21 C3 1.265 . S
C22 O13 1.255 . S
C22 O14 1.265 . S
O23 Tb0 2.479 . S
O23 C10 1.238 . S
O24 Tb0 2.471 . S
O24 C10 1.247 . S
C25 C28 1.380 . S
C25 C29 1.374 . S
C25 C31 1.507 . S
C26 C27 1.387 . S
C26 C30 1.391 . S
C27 C26 1.387 . S
C27 C28 1.384 . S
C27 H36 0.930 . S
C28 C25 1.380 . S
C28 C27 1.384 . S
C28 H37 0.931 . S
C29 C25 1.374 . S
C29 C30 1.390 . S
C29 H38 0.930 . S
C30 C26 1.391 . S
C30 C29 1.390 . S
C30 H39 0.930 . S
C31 Eu1 2.825 1_565 S
C31 O16 1.238 1_565 S
C31 O17 1.247 1_565 S
C31 C25 1.507 . S
H32 C5 0.930 . S
H33 C6 0.931 . S
H34 C7 0.930 . S
H35 C8 0.930 . S
H36 C27 0.930 . S
H37 C28 0.931 . S
H38 C29 0.930 . S
H39 C30 0.930 . S
Tb40 C50 2.825 . S
Tb40 O51 2.347 . S
Tb40 O54 2.366 . S
Tb40 O59 2.418 . S
Tb40 O60 2.384 . S
Tb40 O63 2.479 . S
Tb40 O64 2.471 . S
Eu41 O52 2.418 . S
Eu41 O53 2.384 . S
Eu41 O56 2.479 . S
Eu41 O57 2.471 . S
Eu41 O58 2.347 . S
Eu41 O61 2.366 . S
Eu41 C71 2.825 . S
C42 O58 1.259 . S
C42 O59 1.265 . S
C43 O60 1.255 . S
C43 O61 1.265 . S
C44 C46 1.380 . S
C44 C47 1.374 . S
C44 C50 1.507 . S
C45 C46 1.384 . S
C45 C49 1.387 . S
C45 H72 0.930 . S
C46 C44 1.380 . S
C46 C45 1.384 . S
C46 H73 0.931 . S
C47 C44 1.374 . S
C47 C48 1.390 . S
C47 H74 0.930 . S
C48 C47 1.390 . S
C48 C49 1.391 . S
C48 H75 0.930 . S
C49 C45 1.387 . S
C49 C48 1.391 . S
C50 Tb40 2.825 . S
C50 C44 1.507 . S
C50 O63 1.238 . S
C50 O64 1.247 . S
O51 Tb40 2.347 . S
O51 C55 1.259 . S
O52 Eu41 2.418 . S
O52 C55 1.265 . S
O53 Eu41 2.384 . S
O53 C62 1.255 . S
O54 Tb40 2.366 . S
O54 C62 1.265 . S
C55 O51 1.259 . S
C55 O52 1.265 . S
O56 Eu41 2.479 . S
O56 C71 1.238 . S
O57 Eu41 2.471 . S
O57 C71 1.247 . S
O58 Eu41 2.347 . S
O58 C42 1.259 . S
O59 Tb40 2.418 . S
O59 C42 1.265 . S
O60 Tb40 2.384 . S
O60 C43 1.255 . S
O61 Eu41 2.366 . S
O61 C43 1.265 . S
C62 O53 1.255 . S
C62 O54 1.265 . S
O63 Tb40 2.479 . S
O63 C50 1.238 . S
O64 Tb40 2.471 . S
O64 C50 1.247 . S
C65 C68 1.380 . S
C65 C69 1.374 . S
C65 C71 1.507 . S
C66 C67 1.387 . S
C66 C70 1.391 . S
C67 C66 1.387 . S
C67 C68 1.384 . S
C67 H76 0.930 . S
C68 C65 1.380 . S
C68 C67 1.384 . S
C68 H77 0.931 . S
C69 C65 1.374 . S
C69 C70 1.390 . S
C69 H78 0.930 . S
C70 C66 1.391 . S
C70 C69 1.390 . S
C70 H79 0.930 . S
C71 Eu41 2.825 . S
C71 O56 1.238 . S
C71 O57 1.247 . S
C71 C65 1.507 . S
H72 C45 0.930 . S
H73 C46 0.931 . S
H74 C47 0.930 . S
H75 C48 0.930 . S
H76 C67 0.930 . S
H77 C68 0.931 . S
H78 C69 0.930 . S
H79 C70 0.930 . S
Tb80 C90 2.825 . S
Tb80 O91 2.347 . S
Tb80 O94 2.366 . S
Tb80 O99 2.418 . S
Tb80 O100 2.384 . S
Tb80 O103 2.479 . S
Tb80 O104 2.471 . S
Eu81 O92 2.418 . S
Eu81 O93 2.384 . S
Eu81 O96 2.479 . S
Eu81 O97 2.471 . S
Eu81 O98 2.347 . S
Eu81 O101 2.366 . S
Eu81 C111 2.825 1_655 S
C82 O98 1.259 . S
C82 O99 1.265 . S
C83 O100 1.255 . S
C83 O101 1.265 . S
C84 C86 1.380 . S
C84 C87 1.374 . S
C84 C90 1.507 . S
C85 C86 1.384 . S
C85 C89 1.387 . S
C85 H112 0.930 . S
C86 C84 1.380 . S
C86 C85 1.384 . S
C86 H113 0.931 . S
C87 C84 1.374 . S
C87 C88 1.390 . S
C87 H114 0.930 . S
C88 C87 1.390 . S
C88 C89 1.391 . S
C88 H115 0.930 . S
C89 C85 1.387 . S
C89 C88 1.391 . S
C90 Tb80 2.825 . S
C90 C84 1.507 . S
C90 O103 1.238 . S
C90 O104 1.247 . S
O91 Tb80 2.347 . S
O91 C95 1.259 . S
O92 Eu81 2.418 . S
O92 C95 1.265 . S
O93 Eu81 2.384 . S
O93 C102 1.255 . S
O94 Tb80 2.366 . S
O94 C102 1.265 . S
C95 O91 1.259 . S
C95 O92 1.265 . S
O96 Eu81 2.479 . S
O96 C111 1.238 1_655 S
O97 Eu81 2.471 . S
O97 C111 1.247 1_655 S
O98 Eu81 2.347 . S
O98 C82 1.259 . S
O99 Tb80 2.418 . S
O99 C82 1.265 . S
O100 Tb80 2.384 . S
O100 C83 1.255 . S
O101 Eu81 2.366 . S
O101 C83 1.265 . S
C102 O93 1.255 . S
C102 O94 1.265 . S
O103 Tb80 2.479 . S
O103 C90 1.238 . S
O104 Tb80 2.471 . S
O104 C90 1.247 . S
C105 C108 1.380 . S
C105 C109 1.374 . S
C105 C111 1.507 . S
C106 C107 1.387 . S
C106 C110 1.391 . S
C107 C106 1.387 . S
C107 C108 1.384 . S
C107 H116 0.930 . S
C108 C105 1.380 . S
C108 C107 1.384 . S
C108 H117 0.931 . S
C109 C105 1.374 . S
C109 C110 1.390 . S
C109 H118 0.930 . S
C110 C106 1.391 . S
C110 C109 1.390 . S
C110 H119 0.930 . S
C111 Eu81 2.825 1_455 S
C111 O96 1.238 1_455 S
C111 O97 1.247 1_455 S
C111 C105 1.507 . S
H112 C85 0.930 . S
H113 C86 0.931 . S
H114 C87 0.930 . S
H115 C88 0.930 . S
H116 C107 0.930 . S
H117 C108 0.931 . S
H118 C109 0.930 . S
H119 C110 0.930 . S
Tb120 C130 2.825 1_545 S
Tb120 O131 2.347 . S
Tb120 O134 2.366 . S
Tb120 O139 2.418 . S
Tb120 O140 2.384 . S
Tb120 O143 2.479 . S
Tb120 O144 2.471 . S
Eu121 O132 2.418 . S
Eu121 O133 2.384 . S
Eu121 O136 2.479 . S
Eu121 O137 2.471 . S
Eu121 O138 2.347 . S
Eu121 O141 2.366 . S
Eu121 C151 2.825 . S
C122 O138 1.259 . S
C122 O139 1.265 . S
C123 O140 1.255 . S
C123 O141 1.265 . S
C124 C126 1.380 . S
C124 C127 1.374 . S
C124 C130 1.507 . S
C125 C126 1.384 . S
C125 C129 1.387 . S
C125 H152 0.930 . S
C126 C124 1.380 . S
C126 C125 1.384 . S
C126 H153 0.931 . S
C127 C124 1.374 . S
C127 C128 1.390 . S
C127 H154 0.930 . S
C128 C127 1.390 . S
C128 C129 1.391 . S
C128 H155 0.930 . S
C129 C125 1.387 . S
C129 C128 1.391 . S
C130 Tb120 2.825 1_565 S
C130 C124 1.507 . S
C130 O143 1.238 1_565 S
C130 O144 1.247 1_565 S
O131 Tb120 2.347 . S
O131 C135 1.259 . S
O132 Eu121 2.418 . S
O132 C135 1.265 . S
O133 Eu121 2.384 . S
O133 C142 1.255 . S
O134 Tb120 2.366 . S
O134 C142 1.265 . S
C135 O131 1.259 . S
C135 O132 1.265 . S
O136 Eu121 2.479 . S
O136 C151 1.238 . S
O137 Eu121 2.471 . S
O137 C151 1.247 . S
O138 Eu121 2.347 . S
O138 C122 1.259 . S
O139 Tb120 2.418 . S
O139 C122 1.265 . S
O140 Tb120 2.384 . S
O140 C123 1.255 . S
O141 Eu121 2.366 . S
O141 C123 1.265 . S
C142 O133 1.255 . S
C142 O134 1.265 . S
O143 Tb120 2.479 . S
O143 C130 1.238 1_545 S
O144 Tb120 2.471 . S
O144 C130 1.247 1_545 S
C145 C148 1.380 . S
C145 C149 1.374 . S
C145 C151 1.507 . S
C146 C147 1.387 . S
C146 C150 1.391 . S
C147 C146 1.387 . S
C147 C148 1.384 . S
C147 H156 0.930 . S
C148 C145 1.380 . S
C148 C147 1.384 . S
C148 H157 0.931 . S
C149 C145 1.374 . S
C149 C150 1.390 . S
C149 H158 0.930 . S
C150 C146 1.391 . S
C150 C149 1.390 . S
C150 H159 0.930 . S
C151 Eu121 2.825 . S
C151 O136 1.238 . S
C151 O137 1.247 . S
C151 C145 1.507 . S
H152 C125 0.930 . S
H153 C126 0.931 . S
H154 C127 0.930 . S
H155 C128 0.930 . S
H156 C147 0.930 . S
H157 C148 0.931 . S
H158 C149 0.930 . S
H159 C150 0.930 . S
Tb160 C170 2.825 . S
Tb160 O171 2.347 . S
Tb160 O174 2.366 . S
Tb160 O179 2.418 . S
Tb160 O180 2.384 . S
Tb160 O183 2.479 . S
Tb160 O184 2.471 . S
Eu161 O172 2.418 . S
Eu161 O173 2.384 . S
Eu161 O176 2.479 . S
Eu161 O177 2.471 . S
Eu161 O178 2.347 . S
Eu161 O181 2.366 . S
Eu161 C191 2.825 . S
C162 O178 1.259 . S
C162 O179 1.265 . S
C163 O180 1.255 . S
C163 O181 1.265 . S
C164 C166 1.380 . S
C164 C167 1.374 . S
C164 C170 1.507 . S
C165 C166 1.384 . S
C165 C169 1.387 . S
C165 H192 0.930 . S
C166 C164 1.380 . S
C166 C165 1.384 . S
C166 H193 0.931 . S
C167 C164 1.374 . S
C167 C168 1.390 . S
C167 H194 0.930 . S
C168 C167 1.390 . S
C168 C169 1.391 . S
C168 H195 0.930 . S
C169 C165 1.387 . S
C169 C168 1.391 . S
C170 Tb160 2.825 . S
C170 C164 1.507 . S
C170 O183 1.238 . S
C170 O184 1.247 . S
O171 Tb160 2.347 . S
O171 C175 1.259 . S
O172 Eu161 2.418 . S
O172 C175 1.265 . S
O173 Eu161 2.384 . S
O173 C182 1.255 . S
O174 Tb160 2.366 . S
O174 C182 1.265 . S
C175 O171 1.259 . S
C175 O172 1.265 . S
O176 Eu161 2.479 . S
O176 C191 1.238 . S
O177 Eu161 2.471 . S
O177 C191 1.247 . S
O178 Eu161 2.347 . S
O178 C162 1.259 . S
O179 Tb160 2.418 . S
O179 C162 1.265 . S
O180 Tb160 2.384 . S
O180 C163 1.255 . S
O181 Eu161 2.366 . S
O181 C163 1.265 . S
C182 O173 1.255 . S
C182 O174 1.265 . S
O183 Tb160 2.479 . S
O183 C170 1.238 . S
O184 Tb160 2.471 . S
O184 C170 1.247 . S
C185 C188 1.380 . S
C185 C189 1.374 . S
C185 C191 1.507 . S
C186 C187 1.387 . S
C186 C190 1.391 . S
C187 C186 1.387 . S
C187 C188 1.384 . S
C187 H196 0.930 . S
C188 C185 1.380 . S
C188 C187 1.384 . S
C188 H197 0.931 . S
C189 C185 1.374 . S
C189 C190 1.390 . S
C189 H198 0.930 . S
C190 C186 1.391 . S
C190 C189 1.390 . S
C190 H199 0.930 . S
C191 Eu161 2.825 . S
C191 O176 1.238 . S
C191 O177 1.247 . S
C191 C185 1.507 . S
H192 C165 0.930 . S
H193 C166 0.931 . S
H194 C167 0.930 . S
H195 C168 0.930 . S
H196 C187 0.930 . S
H197 C188 0.931 . S
H198 C189 0.930 . S
H199 C190 0.930 . S
Tb200 C210 2.825 1_655 S
Tb200 O211 2.347 . S
Tb200 O214 2.366 . S
Tb200 O219 2.418 . S
Tb200 O220 2.384 . S
Tb200 O223 2.479 . S
Tb200 O224 2.471 . S
Eu201 O212 2.418 . S
Eu201 O213 2.384 . S
Eu201 O216 2.479 . S
Eu201 O217 2.471 . S
Eu201 O218 2.347 . S
Eu201 O221 2.366 . S
Eu201 C231 2.825 . S
C202 O218 1.259 . S
C202 O219 1.265 . S
C203 O220 1.255 . S
C203 O221 1.265 . S
C204 C206 1.380 . S
C204 C207 1.374 . S
C204 C210 1.507 . S
C205 C206 1.384 . S
C205 C209 1.387 . S
C205 H232 0.930 . S
C206 C204 1.380 . S
C206 C205 1.384 . S
C206 H233 0.931 . S
C207 C204 1.374 . S
C207 C208 1.390 . S
C207 H234 0.930 . S
C208 C207 1.390 . S
C208 C209 1.391 . S
C208 H235 0.930 . S
C209 C205 1.387 . S
C209 C208 1.391 . S
C210 Tb200 2.825 1_455 S
C210 C204 1.507 . S
C210 O223 1.238 1_455 S
C210 O224 1.247 1_455 S
O211 Tb200 2.347 . S
O211 C215 1.259 . S
O212 Eu201 2.418 . S
O212 C215 1.265 . S
O213 Eu201 2.384 . S
O213 C222 1.255 . S
O214 Tb200 2.366 . S
O214 C222 1.265 . S
C215 O211 1.259 . S
C215 O212 1.265 . S
O216 Eu201 2.479 . S
O216 C231 1.238 . S
O217 Eu201 2.471 . S
O217 C231 1.247 . S
O218 Eu201 2.347 . S
O218 C202 1.259 . S
O219 Tb200 2.418 . S
O219 C202 1.265 . S
O220 Tb200 2.384 . S
O220 C203 1.255 . S
O221 Eu201 2.366 . S
O221 C203 1.265 . S
C222 O213 1.255 . S
C222 O214 1.265 . S
O223 Tb200 2.479 . S
O223 C210 1.238 1_655 S
O224 Tb200 2.471 . S
O224 C210 1.247 1_655 S
C225 C228 1.380 . S
C225 C229 1.374 . S
C225 C231 1.507 . S
C226 C227 1.387 . S
C226 C230 1.391 . S
C227 C226 1.387 . S
C227 C228 1.384 . S
C227 H236 0.930 . S
C228 C225 1.380 . S
C228 C227 1.384 . S
C228 H237 0.931 . S
C229 C225 1.374 . S
C229 C230 1.390 . S
C229 H238 0.930 . S
C230 C226 1.391 . S
C230 C229 1.390 . S
C230 H239 0.930 . S
C231 Eu201 2.825 . S
C231 O216 1.238 . S
C231 O217 1.247 . S
C231 C225 1.507 . S
H232 C205 0.930 . S
H233 C206 0.931 . S
H234 C207 0.930 . S
H235 C208 0.930 . S
H236 C227 0.930 . S
H237 C228 0.931 . S
H238 C229 0.930 . S
H239 C230 0.930 . S
Tb240 C250 2.825 1_455 S
Tb240 O251 2.347 . S
Tb240 O254 2.366 . S
Tb240 O259 2.418 . S
Tb240 O260 2.384 . S
Tb240 O263 2.479 . S
Tb240 O264 2.471 . S
Eu241 O252 2.418 . S
Eu241 O253 2.384 . S
Eu241 O256 2.479 . S
Eu241 O257 2.471 . S
Eu241 O258 2.347 . S
Eu241 O261 2.366 . S
Eu241 C271 2.825 . S
C242 O258 1.259 . S
C242 O259 1.265 . S
C243 O260 1.255 . S
C243 O261 1.265 . S
C244 C246 1.380 . S
C244 C247 1.374 . S
C244 C250 1.507 . S
C245 C246 1.384 . S
C245 C249 1.387 . S
C245 H272 0.930 . S
C246 C244 1.380 . S
C246 C245 1.384 . S
C246 H273 0.931 . S
C247 C244 1.374 . S
C247 C248 1.390 . S
C247 H274 0.930 . S
C248 C247 1.390 . S
C248 C249 1.391 . S
C248 H275 0.930 . S
C249 C245 1.387 . S
C249 C248 1.391 . S
C250 Tb240 2.825 1_655 S
C250 C244 1.507 . S
C250 O263 1.238 1_655 S
C250 O264 1.247 1_655 S
O251 Tb240 2.347 . S
O251 C255 1.259 . S
O252 Eu241 2.418 . S
O252 C255 1.265 . S
O253 Eu241 2.384 . S
O253 C262 1.255 . S
O254 Tb240 2.366 . S
O254 C262 1.265 . S
C255 O251 1.259 . S
C255 O252 1.265 . S
O256 Eu241 2.479 . S
O256 C271 1.238 . S
O257 Eu241 2.471 . S
O257 C271 1.247 . S
O258 Eu241 2.347 . S
O258 C242 1.259 . S
O259 Tb240 2.418 . S
O259 C242 1.265 . S
O260 Tb240 2.384 . S
O260 C243 1.255 . S
O261 Eu241 2.366 . S
O261 C243 1.265 . S
C262 O253 1.255 . S
C262 O254 1.265 . S
O263 Tb240 2.479 . S
O263 C250 1.238 1_455 S
O264 Tb240 2.471 . S
O264 C250 1.247 1_455 S
C265 C268 1.380 . S
C265 C269 1.374 . S
C265 C271 1.507 . S
C266 C267 1.387 . S
C266 C270 1.391 . S
C267 C266 1.387 . S
C267 C268 1.384 . S
C267 H276 0.930 . S
C268 C265 1.380 . S
C268 C267 1.384 . S
C268 H277 0.931 . S
C269 C265 1.374 . S
C269 C270 1.390 . S
C269 H278 0.930 . S
C270 C266 1.391 . S
C270 C269 1.390 . S
C270 H279 0.930 . S
C271 Eu241 2.825 . S
C271 O256 1.238 . S
C271 O257 1.247 . S
C271 C265 1.507 . S
H272 C245 0.930 . S
H273 C246 0.931 . S
H274 C247 0.930 . S
H275 C248 0.930 . S
H276 C267 0.930 . S
H277 C268 0.931 . S
H278 C269 0.930 . S
H279 C270 0.930 . S
Tb280 C290 2.825 . S
Tb280 O291 2.347 . S
Tb280 O294 2.366 . S
Tb280 O299 2.418 . S
Tb280 O300 2.384 . S
Tb280 O303 2.479 . S
Tb280 O304 2.471 . S
Eu281 O292 2.418 . S
Eu281 O293 2.384 . S
Eu281 O296 2.479 . S
Eu281 O297 2.471 . S
Eu281 O298 2.347 . S
Eu281 O301 2.366 . S
Eu281 C311 2.825 1_565 S
C282 O298 1.259 . S
C282 O299 1.265 . S
C283 O300 1.255 . S
C283 O301 1.265 . S
C284 C286 1.380 . S
C284 C287 1.374 . S
C284 C290 1.507 . S
C285 C286 1.384 . S
C285 C289 1.387 . S
C285 H312 0.930 . S
C286 C284 1.380 . S
C286 C285 1.384 . S
C286 H313 0.931 . S
C287 C284 1.374 . S
C287 C288 1.390 . S
C287 H314 0.930 . S
C288 C287 1.390 . S
C288 C289 1.391 . S
C288 H315 0.930 . S
C289 C285 1.387 . S
C289 C288 1.391 . S
C290 Tb280 2.825 . S
C290 C284 1.507 . S
C290 O303 1.238 . S
C290 O304 1.247 . S
O291 Tb280 2.347 . S
O291 C295 1.259 . S
O292 Eu281 2.418 . S
O292 C295 1.265 . S
O293 Eu281 2.384 . S
O293 C302 1.255 . S
O294 Tb280 2.366 . S
O294 C302 1.265 . S
C295 O291 1.259 . S
C295 O292 1.265 . S
O296 Eu281 2.479 . S
O296 C311 1.238 1_565 S
O297 Eu281 2.471 . S
O297 C311 1.247 1_565 S
O298 Eu281 2.347 . S
O298 C282 1.259 . S
O299 Tb280 2.418 . S
O299 C282 1.265 . S
O300 Tb280 2.384 . S
O300 C283 1.255 . S
O301 Eu281 2.366 . S
O301 C283 1.265 . S
C302 O293 1.255 . S
C302 O294 1.265 . S
O303 Tb280 2.479 . S
O303 C290 1.238 . S
O304 Tb280 2.471 . S
O304 C290 1.247 . S
C305 C308 1.380 . S
C305 C309 1.374 . S
C305 C311 1.507 . S
C306 C307 1.387 . S
C306 C310 1.391 . S
C307 C306 1.387 . S
C307 C308 1.384 . S
C307 H316 0.930 . S
C308 C305 1.380 . S
C308 C307 1.384 . S
C308 H317 0.931 . S
C309 C305 1.374 . S
C309 C310 1.390 . S
C309 H318 0.930 . S
C310 C306 1.391 . S
C310 C309 1.390 . S
C310 H319 0.930 . S
C311 Eu281 2.825 1_545 S
C311 O296 1.238 1_545 S
C311 O297 1.247 1_545 S
C311 C305 1.507 . S
H312 C285 0.930 . S
H313 C286 0.931 . S
H314 C287 0.930 . S
H315 C288 0.930 . S
H316 C307 0.930 . S
H317 C308 0.931 . S
H318 C309 0.930 . S
H319 C310 0.930 . S
Tb320 C330 2.825 . S
Tb320 O331 2.347 . S
Tb320 O334 2.366 . S
Tb320 O339 2.418 . S
Tb320 O340 2.384 . S
Tb320 O343 2.479 . S
Tb320 O344 2.471 . S
Eu321 O332 2.418 . S
Eu321 O333 2.384 . S
Eu321 O336 2.479 . S
Eu321 O337 2.471 . S
Eu321 O338 2.347 . S
Eu321 O341 2.366 . S
Eu321 C351 2.825 . S
C322 O338 1.259 . S
C322 O339 1.265 . S
C323 O340 1.255 . S
C323 O341 1.265 . S
C324 C326 1.380 . S
C324 C327 1.374 . S
C324 C330 1.507 . S
C325 C326 1.384 . S
C325 C329 1.387 . S
C325 H352 0.930 . S
C326 C324 1.380 . S
C326 C325 1.384 . S
C326 H353 0.931 . S
C327 C324 1.374 . S
C327 C328 1.390 . S
C327 H354 0.930 . S
C328 C327 1.390 . S
C328 C329 1.391 . S
C328 H355 0.930 . S
C329 C325 1.387 . S
C329 C328 1.391 . S
C330 Tb320 2.825 . S
C330 C324 1.507 . S
C330 O343 1.238 . S
C330 O344 1.247 . S
O331 Tb320 2.347 . S
O331 C335 1.259 . S
O332 Eu321 2.418 . S
O332 C335 1.265 . S
O333 Eu321 2.384 . S
O333 C342 1.255 . S
O334 Tb320 2.366 . S
O334 C342 1.265 . S
C335 O331 1.259 . S
C335 O332 1.265 . S
O336 Eu321 2.479 . S
O336 C351 1.238 . S
O337 Eu321 2.471 . S
O337 C351 1.247 . S
O338 Eu321 2.347 . S
O338 C322 1.259 . S
O339 Tb320 2.418 . S
O339 C322 1.265 . S
O340 Tb320 2.384 . S
O340 C323 1.255 . S
O341 Eu321 2.366 . S
O341 C323 1.265 . S
C342 O333 1.255 . S
C342 O334 1.265 . S
O343 Tb320 2.479 . S
O343 C330 1.238 . S
O344 Tb320 2.471 . S
O344 C330 1.247 . S
C345 C348 1.380 . S
C345 C349 1.374 . S
C345 C351 1.507 . S
C346 C347 1.387 . S
C346 C350 1.391 . S
C347 C346 1.387 . S
C347 C348 1.384 . S
C347 H356 0.930 . S
C348 C345 1.380 . S
C348 C347 1.384 . S
C348 H357 0.931 . S
C349 C345 1.374 . S
C349 C350 1.390 . S
C349 H358 0.930 . S
C350 C346 1.391 . S
C350 C349 1.390 . S
C350 H359 0.930 . S
C351 Eu321 2.825 . S
C351 O336 1.238 . S
C351 O337 1.247 . S
C351 C345 1.507 . S
H352 C325 0.930 . S
H353 C326 0.931 . S
H354 C327 0.930 . S
H355 C328 0.930 . S
H356 C347 0.930 . S
H357 C348 0.931 . S
H358 C349 0.930 . S
H359 C350 0.930 . S
Tb360 C370 2.825 . S
Tb360 O371 2.347 . S
Tb360 O374 2.366 . S
Tb360 O379 2.418 . S
Tb360 O380 2.384 . S
Tb360 O383 2.479 . S
Tb360 O384 2.471 . S
Eu361 O372 2.418 . S
Eu361 O373 2.384 . S
Eu361 O376 2.479 . S
Eu361 O377 2.471 . S
Eu361 O378 2.347 . S
Eu361 O381 2.366 . S
Eu361 C391 2.825 1_455 S
C362 O378 1.259 . S
C362 O379 1.265 . S
C363 O380 1.255 . S
C363 O381 1.265 . S
C364 C366 1.380 . S
C364 C367 1.374 . S
C364 C370 1.507 . S
C365 C366 1.384 . S
C365 C369 1.387 . S
C365 H392 0.930 . S
C366 C364 1.380 . S
C366 C365 1.384 . S
C366 H393 0.931 . S
C367 C364 1.374 . S
C367 C368 1.390 . S
C367 H394 0.930 . S
C368 C367 1.390 . S
C368 C369 1.391 . S
C368 H395 0.930 . S
C369 C365 1.387 . S
C369 C368 1.391 . S
C370 Tb360 2.825 . S
C370 C364 1.507 . S
C370 O383 1.238 . S
C370 O384 1.247 . S
O371 Tb360 2.347 . S
O371 C375 1.259 . S
O372 Eu361 2.418 . S
O372 C375 1.265 . S
O373 Eu361 2.384 . S
O373 C382 1.255 . S
O374 Tb360 2.366 . S
O374 C382 1.265 . S
C375 O371 1.259 . S
C375 O372 1.265 . S
O376 Eu361 2.479 . S
O376 C391 1.238 1_455 S
O377 Eu361 2.471 . S
O377 C391 1.247 1_455 S
O378 Eu361 2.347 . S
O378 C362 1.259 . S
O379 Tb360 2.418 . S
O379 C362 1.265 . S
O380 Tb360 2.384 . S
O380 C363 1.255 . S
O381 Eu361 2.366 . S
O381 C363 1.265 . S
C382 O373 1.255 . S
C382 O374 1.265 . S
O383 Tb360 2.479 . S
O383 C370 1.238 . S
O384 Tb360 2.471 . S
O384 C370 1.247 . S
C385 C388 1.380 . S
C385 C389 1.374 . S
C385 C391 1.507 . S
C386 C387 1.387 . S
C386 C390 1.391 . S
C387 C386 1.387 . S
C387 C388 1.384 . S
C387 H396 0.930 . S
C388 C385 1.380 . S
C388 C387 1.384 . S
C388 H397 0.931 . S
C389 C385 1.374 . S
C389 C390 1.390 . S
C389 H398 0.930 . S
C390 C386 1.391 . S
C390 C389 1.390 . S
C390 H399 0.930 . S
C391 Eu361 2.825 1_655 S
C391 O376 1.238 1_655 S
C391 O377 1.247 1_655 S
C391 C385 1.507 . S
H392 C365 0.930 . S
H393 C366 0.931 . S
H394 C367 0.930 . S
H395 C368 0.930 . S
H396 C387 0.930 . S
H397 C388 0.931 . S
H398 C389 0.930 . S
H399 C390 0.930 . S
Tb400 C410 2.825 1_565 S
Tb400 O411 2.347 . S
Tb400 O414 2.366 . S
Tb400 O419 2.418 . S
Tb400 O420 2.384 . S
Tb400 O423 2.479 . S
Tb400 O424 2.471 . S
Eu401 O412 2.418 . S
Eu401 O413 2.384 . S
Eu401 O416 2.479 . S
Eu401 O417 2.471 . S
Eu401 O418 2.347 . S
Eu401 O421 2.366 . S
Eu401 C431 2.825 . S
C402 O418 1.259 . S
C402 O419 1.265 . S
C403 O420 1.255 . S
C403 O421 1.265 . S
C404 C406 1.380 . S
C404 C407 1.374 . S
C404 C410 1.507 . S
C405 C406 1.384 . S
C405 C409 1.387 . S
C405 H432 0.930 . S
C406 C404 1.380 . S
C406 C405 1.384 . S
C406 H433 0.931 . S
C407 C404 1.374 . S
C407 C408 1.390 . S
C407 H434 0.930 . S
C408 C407 1.390 . S
C408 C409 1.391 . S
C408 H435 0.930 . S
C409 C405 1.387 . S
C409 C408 1.391 . S
C410 Tb400 2.825 1_545 S
C410 C404 1.507 . S
C410 O423 1.238 1_545 S
C410 O424 1.247 1_545 S
O411 Tb400 2.347 . S
O411 C415 1.259 . S
O412 Eu401 2.418 . S
O412 C415 1.265 . S
O413 Eu401 2.384 . S
O413 C422 1.255 . S
O414 Tb400 2.366 . S
O414 C422 1.265 . S
C415 O411 1.259 . S
C415 O412 1.265 . S
O416 Eu401 2.479 . S
O416 C431 1.238 . S
O417 Eu401 2.471 . S
O417 C431 1.247 . S
O418 Eu401 2.347 . S
O418 C402 1.259 . S
O419 Tb400 2.418 . S
O419 C402 1.265 . S
O420 Tb400 2.384 . S
O420 C403 1.255 . S
O421 Eu401 2.366 . S
O421 C403 1.265 . S
C422 O413 1.255 . S
C422 O414 1.265 . S
O423 Tb400 2.479 . S
O423 C410 1.238 1_565 S
O424 Tb400 2.471 . S
O424 C410 1.247 1_565 S
C425 C428 1.380 . S
C425 C429 1.374 . S
C425 C431 1.507 . S
C426 C427 1.387 . S
C426 C430 1.391 . S
C427 C426 1.387 . S
C427 C428 1.384 . S
C427 H436 0.930 . S
C428 C425 1.380 . S
C428 C427 1.384 . S
C428 H437 0.931 . S
C429 C425 1.374 . S
C429 C430 1.390 . S
C429 H438 0.930 . S
C430 C426 1.391 . S
C430 C429 1.390 . S
C430 H439 0.930 . S
C431 Eu401 2.825 . S
C431 O416 1.238 . S
C431 O417 1.247 . S
C431 C425 1.507 . S
H432 C405 0.930 . S
H433 C406 0.931 . S
H434 C407 0.930 . S
H435 C408 0.930 . S
H436 C427 0.930 . S
H437 C428 0.931 . S
H438 C429 0.930 . S
H439 C430 0.930 . S
Tb440 C450 2.825 . S
Tb440 O451 2.347 . S
Tb440 O454 2.366 . S
Tb440 O459 2.418 . S
Tb440 O460 2.384 . S
Tb440 O463 2.479 . S
Tb440 O464 2.471 . S
Eu441 O452 2.418 . S
Eu441 O453 2.384 . S
Eu441 O456 2.479 . S
Eu441 O457 2.471 . S
Eu441 O458 2.347 . S
Eu441 O461 2.366 . S
Eu441 C471 2.825 . S
C442 O458 1.259 . S
C442 O459 1.265 . S
C443 O460 1.255 . S
C443 O461 1.265 . S
C444 C446 1.380 . S
C444 C447 1.374 . S
C444 C450 1.507 . S
C445 C446 1.384 . S
C445 C449 1.387 . S
C445 H472 0.930 . S
C446 C444 1.380 . S
C446 C445 1.384 . S
C446 H473 0.931 . S
C447 C444 1.374 . S
C447 C448 1.390 . S
C447 H474 0.930 . S
C448 C447 1.390 . S
C448 C449 1.391 . S
C448 H475 0.930 . S
C449 C445 1.387 . S
C449 C448 1.391 . S
C450 Tb440 2.825 . S
C450 C444 1.507 . S
C450 O463 1.238 . S
C450 O464 1.247 . S
O451 Tb440 2.347 . S
O451 C455 1.259 . S
O452 Eu441 2.418 . S
O452 C455 1.265 . S
O453 Eu441 2.384 . S
O453 C462 1.255 . S
O454 Tb440 2.366 . S
O454 C462 1.265 . S
C455 O451 1.259 . S
C455 O452 1.265 . S
O456 Eu441 2.479 . S
O456 C471 1.238 . S
O457 Eu441 2.471 . S
O457 C471 1.247 . S
O458 Eu441 2.347 . S
O458 C442 1.259 . S
O459 Tb440 2.418 . S
O459 C442 1.265 . S
O460 Tb440 2.384 . S
O460 C443 1.255 . S
O461 Eu441 2.366 . S
O461 C443 1.265 . S
C462 O453 1.255 . S
C462 O454 1.265 . S
O463 Tb440 2.479 . S
O463 C450 1.238 . S
O464 Tb440 2.471 . S
O464 C450 1.247 . S
C465 C468 1.380 . S
C465 C469 1.374 . S
C465 C471 1.507 . S
C466 C467 1.387 . S
C466 C470 1.391 . S
C467 C466 1.387 . S
C467 C468 1.384 . S
C467 H476 0.930 . S
C468 C465 1.380 . S
C468 C467 1.384 . S
C468 H477 0.931 . S
C469 C465 1.374 . S
C469 C470 1.390 . S
C469 H478 0.930 . S
C470 C466 1.391 . S
C470 C469 1.390 . S
C470 H479 0.930 . S
C471 Eu441 2.825 . S
C471 O456 1.238 . S
C471 O457 1.247 . S
C471 C465 1.507 . S
H472 C445 0.930 . S
H473 C446 0.931 . S
H474 C447 0.930 . S
H475 C448 0.930 . S
H476 C467 0.930 . S
H477 C468 0.931 . S
H478 C469 0.930 . S
H479 C470 0.930 . S
C480 C481 1.369 . S
C480 C482 1.419 . S
C480 H484 0.930 . S
C481 C480 1.369 . S
C481 C490 1.429 . S
C482 C480 1.419 . S
C482 C483 1.363 . S
C482 H485 0.929 . S
C483 C482 1.363 . S
C483 C489 1.428 . S
H484 C480 0.930 . S
H485 C482 0.929 . S
S486 N487 1.613 . S
S486 N488 1.610 . S
N487 S486 1.613 . S
N487 C490 1.350 . S
N488 S486 1.610 . S
N488 C489 1.351 . S
C489 C483 1.428 . S
C489 N488 1.351 . S
C489 C490 1.434 . S
C490 C481 1.429 . S
C490 N487 1.350 . S
C490 C489 1.434 . S
C491 C492 1.369 . S
C491 C493 1.419 1_455 S
C491 H495 0.930 . S
C492 C491 1.369 . S
C492 C501 1.429 1_455 S
C493 C491 1.419 1_655 S
C493 C494 1.363 . S
C493 H496 0.929 . S
C494 C493 1.363 . S
C494 C500 1.428 . S
H495 C491 0.930 . S
H496 C493 0.929 . S
S497 N498 1.613 1_655 S
S497 N499 1.610 . S
N498 S497 1.613 1_455 S
N498 C501 1.350 1_455 S
N499 S497 1.610 . S
N499 C500 1.351 . S
C500 C494 1.428 . S
C500 N499 1.351 . S
C500 C501 1.434 . S
C501 C492 1.429 1_655 S
C501 N498 1.350 1_655 S
C501 C500 1.434 . S
C502 C503 1.369 . S
C502 C504 1.419 . S
C502 H506 0.930 . S
C503 C502 1.369 . S
C503 C512 1.429 . S
C504 C502 1.419 . S
C504 C505 1.363 1_545 S
C504 H507 0.929 1_545 S
C505 C504 1.363 1_565 S
C505 C511 1.428 . S
H506 C502 0.930 . S
H507 C504 0.929 1_565 S
S508 N509 1.613 1_565 S
S508 N510 1.610 . S
N509 S508 1.613 1_545 S
N509 C512 1.350 . S
N510 S508 1.610 . S
N510 C511 1.351 . S
C511 C505 1.428 . S
C511 N510 1.351 . S
C511 C512 1.434 1_565 S
C512 C503 1.429 . S
C512 N509 1.350 . S
C512 C511 1.434 1_545 S
C513 C514 1.369 . S
C513 C515 1.419 . S
C513 H517 0.930 . S
C514 C513 1.369 . S
C514 C523 1.429 . S
C515 C513 1.419 . S
C515 C516 1.363 . S
C515 H518 0.929 . S
C516 C515 1.363 . S
C516 C522 1.428 . S
H517 C513 0.930 . S
H518 C515 0.929 . S
S519 N520 1.613 . S
S519 N521 1.610 . S
N520 S519 1.613 . S
N520 C523 1.350 . S
N521 S519 1.610 . S
N521 C522 1.351 . S
C522 C516 1.428 . S
C522 N521 1.351 . S
C522 C523 1.434 . S
C523 C514 1.429 . S
C523 N520 1.350 . S
C523 C522 1.434 . S
C524 C525 1.369 1_655 S
C524 C526 1.419 . S
C524 H528 0.930 1_655 S
C525 C524 1.369 1_455 S
C525 C534 1.429 . S
C526 C524 1.419 . S
C526 C527 1.363 . S
C526 H529 0.929 . S
C527 C526 1.363 . S
C527 C533 1.428 . S
H528 C524 0.930 1_455 S
H529 C526 0.929 . S
S530 N531 1.613 1_655 S
S530 N532 1.610 . S
N531 S530 1.613 1_455 S
N531 C534 1.350 . S
N532 S530 1.610 . S
N532 C533 1.351 . S
C533 C527 1.428 . S
C533 N532 1.351 . S
C533 C534 1.434 1_655 S
C534 C525 1.429 . S
C534 N531 1.350 . S
C534 C533 1.434 1_455 S
C535 C536 1.369 . S
C535 C537 1.419 1_565 S
C535 H539 0.930 . S
C536 C535 1.369 . S
C536 C545 1.429 1_565 S
C537 C535 1.419 1_545 S
C537 C538 1.363 . S
C537 H540 0.929 . S
C538 C537 1.363 . S
C538 C544 1.428 . S
H539 C535 0.930 . S
H540 C537 0.929 . S
S541 N542 1.613 . S
S541 N543 1.610 . S
N542 S541 1.613 . S
N542 C545 1.350 . S
N543 S541 1.610 . S
N543 C544 1.351 . S
C544 C538 1.428 . S
C544 N543 1.351 . S
C544 C545 1.434 . S
C545 C536 1.429 1_545 S
C545 N542 1.350 . S
C545 C544 1.434 . S
C546 C547 1.369 . S
C546 C548 1.419 . S
C546 H550 0.930 . S
C547 C546 1.369 . S
C547 C556 1.429 . S
C548 C546 1.419 . S
C548 C549 1.363 . S
C548 H551 0.929 . S
C549 C548 1.363 . S
C549 C555 1.428 . S
H550 C546 0.930 . S
H551 C548 0.929 . S
S552 N553 1.613 . S
S552 N554 1.610 . S
N553 S552 1.613 . S
N553 C556 1.350 . S
N554 S552 1.610 . S
N554 C555 1.351 . S
C555 C549 1.428 . S
C555 N554 1.351 . S
C555 C556 1.434 . S
C556 C547 1.429 . S
C556 N553 1.350 . S
C556 C555 1.434 . S
C557 C558 1.369 . S
C557 C559 1.419 1_455 S
C557 H561 0.930 . S
C558 C557 1.369 . S
C558 C567 1.429 . S
C559 C557 1.419 1_655 S
C559 C560 1.363 . S
C559 H562 0.929 . S
C560 C559 1.363 . S
C560 C566 1.428 1_655 S
H561 C557 0.930 . S
H562 C559 0.929 . S
S563 N564 1.613 . S
S563 N565 1.610 . S
N564 S563 1.613 . S
N564 C567 1.350 . S
N565 S563 1.610 . S
N565 C566 1.351 . S
C566 C560 1.428 1_455 S
C566 N565 1.351 . S
C566 C567 1.434 . S
C567 C558 1.429 . S
C567 N564 1.350 . S
C567 C566 1.434 . S
C568 C569 1.369 . S
C568 C570 1.419 1_565 S
C568 H572 0.930 . S
C569 C568 1.369 . S
C569 C578 1.429 . S
C570 C568 1.419 1_545 S
C570 C571 1.363 . S
C570 H573 0.929 . S
C571 C570 1.363 . S
C571 C577 1.428 1_545 S
H572 C568 0.930 . S
H573 C570 0.929 . S
S574 N575 1.613 . S
S574 N576 1.610 1_565 S
N575 S574 1.613 . S
N575 C578 1.350 . S
N576 S574 1.610 1_545 S
N576 C577 1.351 1_545 S
C577 C571 1.428 1_565 S
C577 N576 1.351 1_565 S
C577 C578 1.434 . S
C578 C569 1.429 . S
C578 N575 1.350 . S
C578 C577 1.434 . S
C579 C580 1.369 . S
C579 C581 1.419 . S
C579 H583 0.930 . S
C580 C579 1.369 . S
C580 C589 1.429 . S
C581 C579 1.419 . S
C581 C582 1.363 . S
C581 H584 0.929 . S
C582 C581 1.363 . S
C582 C588 1.428 . S
H583 C579 0.930 . S
H584 C581 0.929 . S
S585 N586 1.613 . S
S585 N587 1.610 . S
N586 S585 1.613 . S
N586 C589 1.350 . S
N587 S585 1.610 . S
N587 C588 1.351 . S
C588 C582 1.428 . S
C588 N587 1.351 . S
C588 C589 1.434 . S
C589 C580 1.429 . S
C589 N586 1.350 . S
C589 C588 1.434 . S
C590 C591 1.369 . S
C590 C592 1.419 1_455 S
C590 H594 0.930 . S
C591 C590 1.369 . S
C591 C600 1.429 . S
C592 C590 1.419 1_655 S
C592 C593 1.363 . S
C592 H595 0.929 . S
C593 C592 1.363 . S
C593 C599 1.428 1_655 S
H594 C590 0.930 . S
H595 C592 0.929 . S
S596 N597 1.613 . S
S596 N598 1.611 1_455 S
N597 S596 1.613 . S
N597 C600 1.350 . S
N598 S596 1.611 1_655 S
N598 C599 1.351 1_655 S
C599 C593 1.428 1_455 S
C599 N598 1.351 1_455 S
C599 C600 1.434 . S
C600 C591 1.429 . S
C600 N597 1.350 . S
C600 C599 1.434 . S
C601 C602 1.369 1_565 S
C601 C603 1.419 . S
C601 H605 0.930 . S
C602 C601 1.369 1_545 S
C602 C611 1.429 . S
C603 C601 1.419 . S
C603 C604 1.363 . S
C603 H606 0.929 . S
C604 C603 1.363 . S
C604 C610 1.428 . S
H605 C601 0.930 . S
H606 C603 0.929 . S
S607 N608 1.613 . S
S607 N609 1.610 1_545 S
N608 S607 1.613 . S
N608 C611 1.350 . S
N609 S607 1.610 1_565 S
N609 C610 1.351 . S
C610 C604 1.428 . S
C610 N609 1.351 . S
C610 C611 1.434 1_565 S
C611 C602 1.429 . S
C611 N608 1.350 . S
C611 C610 1.434 1_545 S
C612 C613 1.369 . S
C612 C614 1.419 . S
C612 H616 0.930 . S
C613 C612 1.369 . S
C613 C622 1.429 . S
C614 C612 1.419 . S
C614 C615 1.363 . S
C614 H617 0.929 . S
C615 C614 1.363 . S
C615 C621 1.428 . S
H616 C612 0.930 . S
H617 C614 0.929 . S
S618 N619 1.613 . S
S618 N620 1.610 . S
N619 S618 1.613 . S
N619 C622 1.350 . S
N620 S618 1.610 . S
N620 C621 1.351 . S
C621 C615 1.428 . S
C621 N620 1.351 . S
C621 C622 1.434 . S
C622 C613 1.429 . S
C622 N619 1.350 . S
C622 C621 1.434 . S
C623 C624 1.369 . S
C623 C625 1.419 . S
C623 H627 0.930 . S
C624 C623 1.369 . S
C624 C633 1.429 . S
C625 C623 1.419 . S
C625 C626 1.363 . S
C625 H628 0.929 . S
C626 C625 1.363 . S
C626 C632 1.428 . S
H627 C623 0.930 . S
H628 C625 0.929 . S
S629 N630 1.613 . S
S629 N631 1.610 . S
N630 S629 1.613 . S
N630 C633 1.350 . S
N631 S629 1.610 . S
N631 C632 1.351 . S
C632 C626 1.428 . S
C632 N631 1.351 . S
C632 C633 1.434 . S
C633 C624 1.429 . S
C633 N630 1.350 . S
C633 C632 1.434 . S
C634 C635 1.369 . S
C634 C636 1.419 . S
C634 H638 0.930 . S
C635 C634 1.369 . S
C635 C644 1.429 . S
C636 C634 1.419 . S
C636 C637 1.363 . S
C636 H639 0.929 . S
C637 C636 1.363 . S
C637 C643 1.428 . S
H638 C634 0.930 . S
H639 C636 0.929 . S
S640 N641 1.613 . S
S640 N642 1.610 . S
N641 S640 1.613 . S
N641 C644 1.350 . S
N642 S640 1.610 . S
N642 C643 1.351 . S
C643 C637 1.428 . S
C643 N642 1.351 . S
C643 C644 1.434 . S
C644 C635 1.429 . S
C644 N641 1.350 . S
C644 C643 1.434 . S
C645 C646 1.369 . S
C645 C647 1.419 . S
C645 H649 0.930 . S
C646 C645 1.369 . S
C646 C655 1.429 . S
C647 C645 1.419 . S
C647 C648 1.363 . S
C647 H650 0.929 . S
C648 C647 1.363 . S
C648 C654 1.428 . S
H649 C645 0.930 . S
H650 C647 0.929 . S
S651 N652 1.613 . S
S651 N653 1.610 . S
N652 S651 1.613 . S
N652 C655 1.350 . S
N653 S651 1.610 . S
N653 C654 1.351 . S
C654 C648 1.428 . S
C654 N653 1.351 . S
C654 C655 1.434 . S
C655 C646 1.429 . S
C655 N652 1.350 . S
C655 C654 1.434 . S
C656 C657 1.369 . S
C656 C658 1.419 . S
C656 H660 0.930 . S
C657 C656 1.369 . S
C657 C666 1.429 . S
C658 C656 1.419 . S
C658 C659 1.363 . S
C658 H661 0.929 . S
C659 C658 1.363 . S
C659 C665 1.428 . S
H660 C656 0.930 . S
H661 C658 0.929 . S
S662 N663 1.613 . S
S662 N664 1.610 . S
N663 S662 1.613 . S
N663 C666 1.350 . S
N664 S662 1.610 . S
N664 C665 1.351 . S
C665 C659 1.428 . S
C665 N664 1.351 . S
C665 C666 1.434 . S
C666 C657 1.429 . S
C666 N663 1.350 . S
C666 C665 1.434 . S
C667 C668 1.369 . S
C667 C669 1.419 . S
C667 H671 0.930 . S
C668 C667 1.369 . S
C668 C677 1.429 . S
C669 C667 1.419 . S
C669 C670 1.363 . S
C669 H672 0.929 . S
C670 C669 1.363 . S
C670 C676 1.428 . S
H671 C667 0.930 . S
H672 C669 0.929 . S
S673 N674 1.613 . S
S673 N675 1.610 . S
N674 S673 1.613 . S
N674 C677 1.350 . S
N675 S673 1.610 . S
N675 C676 1.351 . S
C676 C670 1.428 . S
C676 N675 1.351 . S
C676 C677 1.434 . S
C677 C668 1.429 . S
C677 N674 1.350 . S
C677 C676 1.434 . S
C678 C679 1.369 . S
C678 C680 1.419 1_565 S
C678 H682 0.930 . S
C679 C678 1.369 . S
C679 C688 1.429 1_556 S
C680 C678 1.419 1_545 S
C680 C681 1.363 1_556 S
C680 H683 0.929 . S
C681 C680 1.363 1_554 S
C681 C687 1.428 . S
H682 C678 0.930 . S
H683 C680 0.929 . S
S684 N685 1.613 . S
S684 N686 1.610 1_565 S
N685 S684 1.613 . S
N685 C688 1.350 . S
N686 S684 1.610 1_545 S
N686 C687 1.351 . S
C687 C681 1.428 . S
C687 N686 1.351 . S
C687 C688 1.434 1_545 S
C688 C679 1.429 1_554 S
C688 N685 1.350 . S
C688 C687 1.434 1_565 S
C689 C690 1.369 . S
C689 C691 1.419 . S
C689 H693 0.930 . S
C690 C689 1.369 . S
C690 C699 1.429 . S
C691 C689 1.419 . S
C691 C692 1.363 . S
C691 H694 0.929 . S
C692 C691 1.363 . S
C692 C698 1.428 . S
H693 C689 0.930 . S
H694 C691 0.929 . S
S695 N696 1.613 . S
S695 N697 1.610 . S
N696 S695 1.613 . S
N696 C699 1.350 . S
N697 S695 1.610 . S
N697 C698 1.351 . S
C698 C692 1.428 . S
C698 N697 1.351 . S
C698 C699 1.434 . S
C699 C690 1.429 . S
C699 N696 1.350 . S
C699 C698 1.434 . S
C700 C701 1.369 . S
C700 C702 1.419 1_455 S
C700 H704 0.930 . S
C701 C700 1.369 . S
C701 C710 1.429 1_556 S
C702 C700 1.419 1_655 S
C702 C703 1.363 1_556 S
C702 H705 0.929 . S
C703 C702 1.363 1_554 S
C703 C709 1.428 . S
H704 C700 0.930 . S
H705 C702 0.929 . S
S706 N707 1.613 . S
S706 N708 1.610 1_455 S
N707 S706 1.613 . S
N707 C710 1.350 . S
N708 S706 1.610 1_655 S
N708 C709 1.351 . S
C709 C703 1.428 . S
C709 N708 1.351 . S
C709 C710 1.434 1_655 S
C710 C701 1.429 1_554 S
C710 N707 1.350 . S
C710 C709 1.434 1_455 S
C711 C712 1.369 . S
C711 C713 1.419 1_545 S
C711 H715 0.930 . S
C712 C711 1.369 . S
C712 C721 1.429 . S
C713 C711 1.419 1_565 S
C713 C714 1.363 . S
C713 H716 0.929 . S
C714 C713 1.363 . S
C714 C720 1.428 . S
H715 C711 0.930 . S
H716 C713 0.929 . S
S717 N718 1.613 1_565 S
S717 N719 1.610 . S
N718 S717 1.613 1_545 S
N718 C721 1.350 . S
N719 S717 1.610 . S
N719 C720 1.351 . S
C720 C714 1.428 . S
C720 N719 1.351 . S
C720 C721 1.434 1_565 S
C721 C712 1.429 . S
C721 N718 1.350 . S
C721 C720 1.434 1_545 S
C722 C723 1.369 . S
C722 C724 1.419 . S
C722 H726 0.930 . S
C723 C722 1.369 . S
C723 C732 1.429 1_554 S
C724 C722 1.419 . S
C724 C725 1.363 1_554 S
C724 H727 0.929 . S
C725 C724 1.363 1_556 S
C725 C731 1.428 . S
H726 C722 0.930 . S
H727 C724 0.929 . S
S728 N729 1.613 . S
S728 N730 1.610 . S
N729 S728 1.613 . S
N729 C732 1.350 . S
N730 S728 1.610 . S
N730 C731 1.351 . S
C731 C725 1.428 . S
C731 N730 1.351 . S
C731 C732 1.434 . S
C732 C723 1.429 1_556 S
C732 N729 1.350 . S
C732 C731 1.434 . S
C733 C734 1.369 . S
C733 C735 1.419 1_455 S
C733 H737 0.930 . S
C734 C733 1.369 . S
C734 C743 1.429 . S
C735 C733 1.419 1_655 S
C735 C736 1.363 . S
C735 H738 0.929 . S
C736 C735 1.363 . S
C736 C742 1.428 . S
H737 C733 0.930 . S
H738 C735 0.929 . S
S739 N740 1.613 . S
S739 N741 1.610 1_455 S
N740 S739 1.613 . S
N740 C743 1.350 . S
N741 S739 1.610 1_655 S
N741 C742 1.351 . S
C742 C736 1.428 . S
C742 N741 1.351 . S
C742 C743 1.434 1_655 S
C743 C734 1.429 . S
C743 N740 1.350 . S
C743 C742 1.434 1_455 S
C744 C745 1.369 . S
C744 C746 1.419 . S
C744 H748 0.930 . S
C745 C744 1.369 . S
C745 C754 1.429 . S
C746 C744 1.419 . S
C746 C747 1.363 . S
C746 H749 0.929 . S
C747 C746 1.363 . S
C747 C753 1.428 . S
H748 C744 0.930 . S
H749 C746 0.929 . S
S750 N751 1.613 . S
S750 N752 1.610 . S
N751 S750 1.613 . S
N751 C754 1.350 . S
N752 S750 1.610 . S
N752 C753 1.351 . S
C753 C747 1.428 . S
C753 N752 1.351 . S
C753 C754 1.434 . S
C754 C745 1.429 . S
C754 N751 1.350 . S
C754 C753 1.434 . S
C755 C756 1.369 . S
C755 C757 1.419 . S
C755 H759 0.930 . S
C756 C755 1.369 . S
C756 C765 1.429 . S
C757 C755 1.419 . S
C757 C758 1.363 . S
C757 H760 0.929 . S
C758 C757 1.363 . S
C758 C764 1.428 . S
H759 C755 0.930 . S
H760 C757 0.929 . S
S761 N762 1.613 . S
S761 N763 1.610 . S
N762 S761 1.613 . S
N762 C765 1.350 . S
N763 S761 1.610 . S
N763 C764 1.351 . S
C764 C758 1.428 . S
C764 N763 1.351 . S
C764 C765 1.434 . S
C765 C756 1.429 . S
C765 N762 1.350 . S
C765 C764 1.434 . S
C766 C767 1.369 . S
C766 C768 1.419 . S
C766 H770 0.930 . S
C767 C766 1.369 . S
C767 C776 1.429 . S
C768 C766 1.419 . S
C768 C769 1.363 . S
C768 H771 0.929 . S
C769 C768 1.363 . S
C769 C775 1.428 . S
H770 C766 0.930 . S
H771 C768 0.929 . S
S772 N773 1.613 . S
S772 N774 1.610 . S
N773 S772 1.613 . S
N773 C776 1.350 . S
N774 S772 1.610 . S
N774 C775 1.351 . S
C775 C769 1.428 . S
C775 N774 1.351 . S
C775 C776 1.434 . S
C776 C767 1.429 . S
C776 N773 1.350 . S
C776 C775 1.434 . S
C777 C778 1.369 . S
C777 C779 1.419 . S
C777 H781 0.930 . S
C778 C777 1.369 . S
C778 C787 1.429 . S
C779 C777 1.419 . S
C779 C780 1.363 . S
C779 H782 0.929 . S
C780 C779 1.363 . S
C780 C786 1.428 . S
H781 C777 0.930 . S
H782 C779 0.929 . S
S783 N784 1.613 . S
S783 N785 1.610 . S
N784 S783 1.613 . S
N784 C787 1.350 . S
N785 S783 1.610 . S
N785 C786 1.351 . S
C786 C780 1.428 . S
C786 N785 1.351 . S
C786 C787 1.434 . S
C787 C778 1.429 . S
C787 N784 1.350 . S
C787 C786 1.434 . S
C788 C789 1.369 . S
C788 C790 1.419 . S
C788 H792 0.930 . S
C789 C788 1.369 . S
C789 C798 1.429 . S
C790 C788 1.419 . S
C790 C791 1.363 . S
C790 H793 0.929 . S
C791 C790 1.363 . S
C791 C797 1.428 . S
H792 C788 0.930 . S
H793 C790 0.929 . S
S794 N795 1.613 . S
S794 N796 1.610 . S
N795 S794 1.613 . S
N795 C798 1.350 . S
N796 S794 1.610 . S
N796 C797 1.351 . S
C797 C791 1.428 . S
C797 N796 1.351 . S
C797 C798 1.434 . S
C798 C789 1.429 . S
C798 N795 1.350 . S
C798 C797 1.434 . S
C799 C800 1.369 . S
C799 C801 1.419 . S
C799 H803 0.930 . S
C800 C799 1.369 . S
C800 C809 1.429 . S
C801 C799 1.419 . S
C801 C802 1.363 . S
C801 H804 0.929 . S
C802 C801 1.363 . S
C802 C808 1.428 . S
H803 C799 0.930 . S
H804 C801 0.929 . S
S805 N806 1.613 . S
S805 N807 1.610 . S
N806 S805 1.613 . S
N806 C809 1.350 . S
N807 S805 1.610 . S
N807 C808 1.351 . S
C808 C802 1.428 . S
C808 N807 1.351 . S
C808 C809 1.434 . S
C809 C800 1.429 . S
C809 N806 1.350 . S
C809 C808 1.434 . S
C810 C811 1.369 . S
C810 C812 1.419 . S
C810 H814 0.930 . S
C811 C810 1.369 . S
C811 C820 1.429 . S
C812 C810 1.419 . S
C812 C813 1.363 . S
C812 H815 0.929 . S
C813 C812 1.363 . S
C813 C819 1.428 . S
H814 C810 0.930 . S
H815 C812 0.929 . S
S816 N817 1.613 . S
S816 N818 1.610 . S
N817 S816 1.613 . S
N817 C820 1.350 . S
N818 S816 1.610 . S
N818 C819 1.351 . S
C819 C813 1.428 . S
C819 N818 1.351 . S
C819 C820 1.434 . S
C820 C811 1.429 . S
C820 N817 1.350 . S
C820 C819 1.434 . S
C821 C822 1.369 . S
C821 C823 1.419 . S
C821 H825 0.930 . S
C822 C821 1.369 . S
C822 C831 1.429 . S
C823 C821 1.419 . S
C823 C824 1.363 . S
C823 H826 0.929 . S
C824 C823 1.363 . S
C824 C830 1.428 . S
H825 C821 0.930 . S
H826 C823 0.929 . S
S827 N828 1.613 . S
S827 N829 1.610 . S
N828 S827 1.613 . S
N828 C831 1.350 . S
N829 S827 1.610 . S
N829 C830 1.351 . S
C830 C824 1.428 . S
C830 N829 1.351 . S
C830 C831 1.434 . S
C831 C822 1.429 . S
C831 N828 1.350 . S
C831 C830 1.434 . S
C832 C833 1.369 . S
C832 C834 1.419 . S
C832 H836 0.930 . S
C833 C832 1.369 . S
C833 C842 1.429 . S
C834 C832 1.419 . S
C834 C835 1.363 . S
C834 H837 0.929 . S
C835 C834 1.363 . S
C835 C841 1.428 . S
H836 C832 0.930 . S
H837 C834 0.929 . S
S838 N839 1.613 . S
S838 N840 1.610 . S
N839 S838 1.613 . S
N839 C842 1.350 . S
N840 S838 1.610 . S
N840 C841 1.351 . S
C841 C835 1.428 . S
C841 N840 1.351 . S
C841 C842 1.434 . S
C842 C833 1.429 . S
C842 N839 1.350 . S
C842 C841 1.434 . S
C843 C844 1.369 . S
C843 C845 1.419 . S
C843 H847 0.930 . S
C844 C843 1.369 . S
C844 C853 1.429 . S
C845 C843 1.419 . S
C845 C846 1.363 . S
C845 H848 0.929 . S
C846 C845 1.363 . S
C846 C852 1.428 . S
H847 C843 0.930 . S
H848 C845 0.929 . S
S849 N850 1.613 . S
S849 N851 1.610 . S
N850 S849 1.613 . S
N850 C853 1.350 . S
N851 S849 1.610 . S
N851 C852 1.351 . S
C852 C846 1.428 . S
C852 N851 1.351 . S
C852 C853 1.434 . S
C853 C844 1.429 . S
C853 N850 1.350 . S
C853 C852 1.434 . S
C854 C855 1.369 . S
C854 C856 1.419 . S
C854 H858 0.930 . S
C855 C854 1.369 . S
C855 C864 1.429 . S
C856 C854 1.419 . S
C856 C857 1.363 . S
C856 H859 0.929 . S
C857 C856 1.363 . S
C857 C863 1.428 . S
H858 C854 0.930 . S
H859 C856 0.929 . S
S860 N861 1.613 . S
S860 N862 1.610 . S
N861 S860 1.613 . S
N861 C864 1.350 . S
N862 S860 1.610 . S
N862 C863 1.351 . S
C863 C857 1.428 . S
C863 N862 1.351 . S
C863 C864 1.434 . S
C864 C855 1.429 . S
C864 N861 1.350 . S
C864 C863 1.434 . S
C865 C866 1.369 . S
C865 C867 1.419 . S
C865 H869 0.930 . S
C866 C865 1.369 . S
C866 C875 1.429 . S
C867 C865 1.419 . S
C867 C868 1.363 . S
C867 H870 0.929 . S
C868 C867 1.363 . S
C868 C874 1.428 . S
H869 C865 0.930 . S
H870 C867 0.929 . S
S871 N872 1.613 . S
S871 N873 1.610 . S
N872 S871 1.613 . S
N872 C875 1.350 . S
N873 S871 1.610 . S
N873 C874 1.351 . S
C874 C868 1.428 . S
C874 N873 1.351 . S
C874 C875 1.434 . S
C875 C866 1.429 . S
C875 N872 1.350 . S
C875 C874 1.434 . S
C481 C106 1.371 . S
C483 C3 1.344 . S
C492 C129 1.371 . S
C494 C62 1.346 . S
C503 C83 1.348 . S
C505 C186 1.369 . S
C514 C142 1.344 . S
C516 C209 1.371 . S
C525 C26 1.370 . S
C527 C163 1.345 . S
C536 C49 1.371 . S
C538 C222 1.348 . S
C547 C409 1.371 . S
C549 C262 1.347 . S
C558 C283 1.347 . S
C560 C466 1.371 . S
C569 C342 1.343 . S
C571 C249 1.371 . S
C580 C363 1.351 . S
C582 C306 1.369 . S
C591 C422 1.350 . S
C593 C329 1.369 . S
C602 C386 1.369 . S
C604 C443 1.345 . S
C613 C122 1.742 . S
C615 C15 1.741 . S
C624 C42 1.743 . S
C626 C175 1.742 . S
C635 C95 1.736 . S
C637 C202 1.737 . S
C646 C242 1.738 . S
C648 C375 1.738 . S
C657 C295 1.742 . S
C659 C402 1.741 . S
C668 C322 1.738 . S
C670 C455 1.737 . S
C679 C282 2.494 . S
C681 C2 2.489 . S
C690 C55 2.492 . S
C692 C335 2.492 . S
C701 C362 2.493 . S
C703 C82 2.490 . S
C712 C135 2.489 . S
C714 C415 2.493 . S
C723 C162 2.492 . S
C725 C442 2.492 . S
C734 C255 2.494 . S
C736 C215 2.490 . S
C745 C89 1.722 . S
C747 C22 1.780 . S
C756 C43 1.780 . S
C758 C146 1.722 . S
C767 C102 1.780 . S
C769 C169 1.721 . S
C778 C123 1.778 . S
C780 C226 1.722 . S
C789 C9 1.717 . S
C791 C182 1.783 . S
C800 C66 1.715 . S
C802 C203 1.783 . S
C811 C426 1.715 . S
C813 C243 1.783 . S
C822 C302 1.779 . S
C824 C449 1.722 . S
C833 C323 1.779 . S
C835 C266 1.723 . S
C844 C289 1.722 . S
C846 C382 1.780 . S
C855 C403 1.779 . S
C857 C346 1.723 . S
C866 C462 1.779 . S
C868 C369 1.723 . S
