# Generated by pormake.
# Topology fne, (5)-cn, num edge types: 1
# Building blocks:
#     Node 0, Type 0, BuildingBlock: BEQFEK_clean_sbu_0, # of connection points: 5
#     Node 1, Type 0, BuildingBlock: BEQFEK_clean_sbu_0, # of connection points: 5
#     Node 2, Type 0, BuildingBlock: BEQFEK_clean_sbu_0, # of connection points: 5
#     Node 3, Type 0, BuildingBlock: BEQFEK_clean_sbu_0, # of connection points: 5
#     Node 4, Type 0, BuildingBlock: BEQFEK_clean_sbu_0, # of connection points: 5
#     Node 5, Type 0, BuildingBlock: BEQFEK_clean_sbu_0, # of connection points: 5
#     Edge 6, Type (0, 0), BuildingBlock: AJUNOK_clean_linker_0, # of connection points: 2
#     Edge 7, Type (0, 0), BuildingBlock: AJUNOK_clean_linker_0, # of connection points: 2
#     Edge 8, Type (0, 0), BuildingBlock: AJUNOK_clean_linker_0, # of connection points: 2
#     Edge 9, Type (0, 0), BuildingBlock: AJUNOK_clean_linker_0, # of connection points: 2
#     Edge 10, Type (0, 0), BuildingBlock: AJUNOK_clean_linker_0, # of connection points: 2
#     Edge 11, Type (0, 0), BuildingBlock: AJUNOK_clean_linker_0, # of connection points: 2
#     Edge 12, Type (0, 0), BuildingBlock: AJUNOK_clean_linker_0, # of connection points: 2
#     Edge 13, Type (0, 0), BuildingBlock: AJUNOK_clean_linker_0, # of connection points: 2
#     Edge 14, Type (0, 0), BuildingBlock: AJUNOK_clean_linker_0, # of connection points: 2
#     Edge 15, Type (0, 0), BuildingBlock: AJUNOK_clean_linker_0, # of connection points: 2
#     Edge 16, Type (0, 0), BuildingBlock: AJUNOK_clean_linker_0, # of connection points: 2
#     Edge 17, Type (0, 0), BuildingBlock: AJUNOK_clean_linker_0, # of connection points: 2
#     Edge 18, Type (0, 0), BuildingBlock: AJUNOK_clean_linker_0, # of connection points: 2
#     Edge 19, Type (0, 0), BuildingBlock: AJUNOK_clean_linker_0, # of connection points: 2
#     Edge 20, Type (0, 0), BuildingBlock: AJUNOK_clean_linker_0, # of connection points: 2
# Relax obj value: 0.247
# Max RMSD: 0.190
# Mean RMSD: 0.190
data_MOF--net-fne--node1-BEQFEK_clean_sbu_0--edge1-AJUNOK_clean_linker_0
_symmetry_space_group_name_H-M    P1
_symmetry_Int_Tables_number       1
_symmetry_cell_setting            triclinic
loop_
_symmetry_equiv_pos_as_xyz
'x, y, z'
_cell_length_a     32.951081
_cell_length_b     32.985873
_cell_length_c     14.791838
_cell_angle_alpha  90.047779
_cell_angle_beta   89.909087
_cell_angle_gamma 119.98962
loop_
_atom_site_label
_atom_site_type_symbol
_atom_site_fract_x
_atom_site_fract_y
_atom_site_fract_z
_atom_type_partial_charge
Co0 Co 0.52122 0.22487 0.90959 0.0
Co1 Co 0.48949 0.17631 0.09704 0.0
C2 C 0.58181 0.19853 0.0109 0.0
O3 O 0.57546 0.21903 0.9444 0.0
O4 O 0.55125 0.18013 0.07336 0.0
C5 C 0.54154 0.22731 0.73464 0.0
O6 O 0.55168 0.19724 0.77129 0.0
C7 C 0.50641 0.18442 0.28806 0.0
C8 C 0.43656 0.13778 0.34709 0.0
C9 C 0.48225 0.17094 0.36884 0.0
N10 N 0.47632 0.1611 0.22099 0.0
N11 N 0.43478 0.13248 0.25653 0.0
C12 C 0.55562 0.22337 0.2736 0.0
H13 H 0.55954 0.23897 0.2055 0.0
H14 H 0.5657 0.2509 0.32595 0.0
H15 H 0.57972 0.20912 0.27863 0.0
C16 C 0.51205 0.29965 0.0048 0.0
N17 N 0.50826 0.25708 -0.00011 0.0
N18 N 0.4918 0.23491 0.07697 0.0
C19 C 0.48256 0.26193 0.13192 0.0
C20 C 0.49603 0.30418 0.08925 0.0
C21 C 0.53321 0.33575 0.93195 0.0
H22 H 0.50569 0.32979 0.88196 0.0
H23 H 0.56097 0.33233 0.89613 0.0
H24 H 0.54797 0.37158 0.96012 0.0
O25 O 0.46609 0.16224 0.89013 0.0
O26 O 0.44047 0.12623 0.02128 0.0
H27 H 0.43128 0.20867 0.21849 0.0
H28 H 0.4387 0.26587 0.23624 0.0
C29 C 0.45734 0.24649 0.22055 0.0
H30 H 0.48293 0.2536 0.27536 0.0
H31 H 0.40471 0.11145 0.21876 0.0
O32 O 0.53044 0.2511 0.78636 0.0
C33 C 0.43707 0.12692 0.93562 0.0
Co34 Co 0.47418 0.54117 0.23907 0.0
Co35 Co 0.4935 0.5115 0.42889 0.0
C36 C 0.56381 0.60074 0.33311 0.0
O37 O 0.53678 0.59397 0.26649 0.0
O38 O 0.55116 0.57187 0.39862 0.0
C39 C 0.48243 0.57576 0.06065 0.0
O40 O 0.52136 0.61081 0.09239 0.0
C41 C 0.50325 0.5327 0.61974 0.0
C42 C 0.48191 0.46451 0.6839 0.0
C43 C 0.49308 0.51016 0.70252 0.0
N44 N 0.49737 0.50165 0.55491 0.0
N45 N 0.48571 0.46118 0.59375 0.0
C46 C 0.51118 0.58076 0.6012 0.0
H47 H 0.5027 0.58396 0.52999 0.0
H48 H 0.48962 0.58898 0.64724 0.0
H49 H 0.54859 0.60671 0.61346 0.0
C50 C 0.39485 0.53845 0.34315 0.0
N51 N 0.43194 0.53194 0.33406 0.0
N52 N 0.43793 0.51488 0.41009 0.0
C53 C 0.40335 0.50761 0.46796 0.0
C54 C 0.37608 0.52396 0.4292 0.0
C55 C 0.37894 0.55957 0.27208 0.0
H56 H 0.35062 0.53104 0.23196 0.0
H57 H 0.40832 0.58181 0.22586 0.0
H58 H 0.36471 0.58048 0.30343 0.0
O59 O 0.47995 0.48484 0.22321 0.0
O60 O 0.49259 0.46091 0.35456 0.0
H61 H 0.40338 0.45321 0.54788 0.0
H62 H 0.35411 0.46161 0.5679 0.0
C63 C 0.39229 0.47974 0.55357 0.0
H64 H 0.41044 0.5032 0.6113 0.0
H65 H 0.47735 0.43059 0.5584 0.0
O66 O 0.45278 0.54669 0.11642 0.0
C67 C 0.48677 0.45628 0.26919 0.0
Co68 Co 0.12145 0.50388 0.59614 0.0
Co69 Co 0.16883 0.51729 0.78383 0.0
C70 C 0.14584 0.58797 0.70508 0.0
O71 O 0.12627 0.5627 0.63627 0.0
O72 O 0.16415 0.57497 0.76593 0.0
C73 C 0.1246 0.5266 0.42455 0.0
O74 O 0.15378 0.56494 0.46811 0.0
C75 C 0.1569 0.51926 0.97579 0.0
C76 C 0.21603 0.51415 0.03306 0.0
C77 C 0.1764 0.51636 0.05591 0.0
N78 N 0.18292 0.51763 0.90763 0.0
N79 N 0.2184 0.51472 0.94199 0.0
C80 C 0.11431 0.52395 0.96432 0.0
H81 H 0.12193 0.55869 0.98992 0.0
H82 H 0.10378 0.52042 0.8923 0.0
H83 H 0.08492 0.497 0.00513 0.0
C84 C 0.04622 0.4179 0.68677 0.0
N85 N 0.08887 0.45669 0.68288 0.0
N86 N 0.11131 0.4609 0.75896 0.0
C87 C 0.08472 0.42351 0.81147 0.0
C88 C 0.04212 0.39575 0.76919 0.0
C89 C 0.00958 0.40456 0.6155 0.0
H90 H 0.01413 0.43633 0.5805 0.0
H91 H 0.97389 0.38472 0.64513 0.0
H92 H 0.01371 0.38216 0.56457 0.0
O93 O 0.18473 0.51243 0.57707 0.0
O94 O 0.22031 0.52141 0.70826 0.0
H95 H 0.08398 0.37316 0.90514 0.0
H96 H 0.09101 0.42559 0.95551 0.0
C97 C 0.101 0.41169 0.89675 0.0
H98 H 0.1395 0.42669 0.89569 0.0
H99 H 0.24398 0.51288 0.90342 0.0
O100 O 0.09753 0.49042 0.47082 0.0
C101 C 0.22017 0.51893 0.6224 0.0
Co102 Co 0.80132 0.1408 0.91907 0.0
Co103 Co 0.83193 0.18828 0.10977 0.0
C104 C 0.74319 0.17165 0.01745 0.0
O105 O 0.74973 0.15177 0.94997 0.0
O106 O 0.77186 0.18698 0.08318 0.0
C107 C 0.76487 0.11788 0.74289 0.0
O108 O 0.73179 0.12384 0.7787 0.0
C109 C 0.81049 0.17749 0.29962 0.0
C110 C 0.87777 0.22584 0.36545 0.0
C111 C 0.83182 0.19163 0.3833 0.0
N112 N 0.84228 0.20193 0.23541 0.0
N113 N 0.88227 0.23142 0.27498 0.0
C114 C 0.76265 0.13716 0.27968 0.0
H115 H 0.76208 0.12175 0.21275 0.0
H116 H 0.75133 0.10981 0.33271 0.0
H117 H 0.73731 0.14997 0.27745 0.0
C118 C 0.80687 0.06443 0.01543 0.0
N119 N 0.81123 0.10724 0.01122 0.0
N120 N 0.82761 0.12897 0.0887 0.0
C121 C 0.83614 0.10139 0.14327 0.0
C122 C 0.82239 0.05926 0.09982 0.0
C123 C 0.78628 0.02896 0.94139 0.0
H124 H 0.81416 0.03544 0.89169 0.0
H125 H 0.75872 0.03263 0.90555 0.0
H126 H 0.7714 0.99289 0.96839 0.0
O127 O 0.85816 0.20195 0.90288 0.0
O128 O 0.88284 0.23779 0.03478 0.0
H129 H 0.88684 0.1544 0.2311 0.0
H130 H 0.88025 0.09729 0.24642 0.0
C131 C 0.86124 0.11642 0.23199 0.0
H132 H 0.8355 0.10854 0.28705 0.0
H133 H 0.91318 0.25361 0.24024 0.0
O134 O 0.79346 0.11435 0.79551 0.0
C135 C 0.88731 0.2368 0.94923 0.0
Co136 Co 0.84242 0.82039 0.24166 0.0
Co137 Co 0.82376 0.84943 0.43239 0.0
C138 C 0.75269 0.76114 0.33613 0.0
O139 O 0.77966 0.76815 0.2692 0.0
O140 O 0.76557 0.78941 0.40265 0.0
C141 C 0.83332 0.78543 0.0637 0.0
O142 O 0.79404 0.75088 0.09565 0.0
C143 C 0.81416 0.82869 0.62305 0.0
C144 C 0.83523 0.89693 0.68683 0.0
C145 C 0.82405 0.85131 0.70566 0.0
N146 N 0.82014 0.85963 0.55808 0.0
N147 N 0.83167 0.90014 0.59663 0.0
C148 C 0.80588 0.78047 0.60477 0.0
H149 H 0.82714 0.77205 0.65105 0.0
H150 H 0.76836 0.75475 0.61686 0.0
H151 H 0.81448 0.77714 0.53363 0.0
C152 C 0.92279 0.82393 0.34118 0.0
N153 N 0.88492 0.82931 0.33531 0.0
N154 N 0.87922 0.84577 0.4124 0.0
C155 C 0.91479 0.85379 0.46807 0.0
C156 C 0.94291 0.83913 0.42619 0.0
C157 C 0.93735 0.80235 0.26836 0.0
H158 H 0.95993 0.82985 0.21914 0.0
H159 H 0.90604 0.77553 0.23154 0.0
H160 H 0.95721 0.78631 0.29679 0.0
O161 O 0.83748 0.87718 0.22635 0.0
O162 O 0.825 0.90035 0.35889 0.0
H163 H 0.91269 0.90536 0.55383 0.0
H164 H 0.96334 0.89902 0.56961 0.0
C165 C 0.92511 0.8798 0.55584 0.0
H166 H 0.90767 0.85473 0.61193 0.0
H167 H 0.84 0.93066 0.56106 0.0
O168 O 0.86332 0.81421 0.11921 0.0
C169 C 0.83092 0.90557 0.2736 0.0
Co170 Co 0.19934 0.8593 0.589 0.0
Co171 Co 0.15203 0.84897 0.77664 0.0
C172 C 0.17221 0.77555 0.70006 0.0
O173 O 0.19226 0.79981 0.63031 0.0
O174 O 0.15486 0.79008 0.76026 0.0
C175 C 0.19453 0.83674 0.41677 0.0
O176 O 0.1649 0.79846 0.46007 0.0
C177 C 0.16354 0.84802 0.96941 0.0
C178 C 0.10509 0.85489 0.02532 0.0
C179 C 0.14405 0.85174 0.04917 0.0
N180 N 0.13816 0.8501 0.9006 0.0
N181 N 0.10315 0.85415 0.9342 0.0
C182 C 0.20509 0.84148 0.95892 0.0
H183 H 0.21511 0.84327 0.88681 0.0
H184 H 0.23519 0.86868 -0.00222 0.0
H185 H 0.19659 0.80699 0.98736 0.0
C186 C 0.27624 0.94435 0.67777 0.0
N187 N 0.23286 0.90661 0.67477 0.0
N188 N 0.21068 0.90398 0.75054 0.0
C189 C 0.23834 0.94145 0.80201 0.0
C190 C 0.28123 0.96757 0.75926 0.0
C191 C 0.31264 0.95557 0.60664 0.0
H192 H 0.3069 0.92292 0.57347 0.0
H193 H 0.34841 0.97475 0.63592 0.0
H194 H 0.30944 0.97785 0.55421 0.0
O195 O 0.13703 0.85249 0.57018 0.0
O196 O 0.10117 0.84594 0.70016 0.0
H197 H 0.18458 0.94106 0.88565 0.0
H198 H 0.24107 0.99357 0.89361 0.0
C199 C 0.22291 0.95491 0.8866 0.0
H200 H 0.23218 0.94091 0.9461 0.0
H201 H 0.07805 0.85645 0.89508 0.0
O202 O 0.2229 0.8722 0.46328 0.0
C203 C 0.1019 0.84782 0.61416 0.0
C204 C 0.63887 0.18247 0.09358 0.0
C205 C 0.62426 0.19377 0.0126 0.0
C206 C 0.67794 0.1761 0.09543 0.0
C207 C 0.70302 0.17973 0.016 0.0
H208 H 0.62002 0.17853 0.15603 0.0
H209 H 0.68797 0.16731 0.15897 0.0
S210 S 0.68083 0.21048 0.7873 0.0
N211 N 0.63958 0.20993 0.85151 0.0
N212 N 0.71215 0.19728 0.85533 0.0
C213 C 0.68926 0.19155 0.93504 0.0
C214 C 0.65013 0.19877 0.93326 0.0
C215 C 0.68122 0.69928 0.41546 0.0
C216 C 0.70463 0.72042 0.33441 0.0
C217 C 0.63567 0.66049 0.41463 0.0
C218 C 0.61163 0.64205 0.33278 0.0
H219 H 0.69841 0.71241 0.47994 0.0
H220 H 0.61906 0.64509 0.47859 0.0
S221 S 0.65716 0.68566 0.10208 0.0
N222 N 0.69997 0.7208 0.17034 0.0
N223 N 0.61492 0.64794 0.16866 0.0
C224 C 0.63459 0.66322 0.25141 0.0
C225 C 0.68095 0.70236 0.25225 0.0
C226 C 0.15374 0.65796 0.62645 0.0
C227 C 0.15138 0.63525 0.70833 0.0
C228 C 0.16109 0.70343 0.6252 0.0
C229 C 0.16547 0.72788 0.70579 0.0
H230 H 0.15078 0.64085 0.56227 0.0
H231 H 0.16275 0.7193 0.56018 0.0
S232 S 0.16087 0.68395 0.93849 0.0
N233 N 0.1539 0.6405 0.87246 0.0
N234 N 0.16636 0.726 0.8701 0.0
C235 C 0.1625 0.70551 0.78845 0.0
C236 C 0.15592 0.65925 0.78971 0.0
C237 C 0.53971 0.19113 0.49314 0.0
C238 C 0.50009 0.19107 0.45861 0.0
C239 C 0.55523 0.20669 0.58104 0.0
C240 C 0.53207 0.22339 0.63677 0.0
H241 H 0.55757 0.17715 0.45341 0.0
H242 H 0.58435 0.20367 0.607 0.0
S243 S 0.43057 0.23655 0.57182 0.0
N244 N 0.44075 0.21316 0.48197 0.0
N245 N 0.47029 0.2432 0.64747 0.0
C246 C 0.4944 0.22662 0.60042 0.0
C247 C 0.47814 0.21001 0.51125 0.0
C248 C 0.52362 0.57123 0.8233 0.0
C249 C 0.48761 0.52836 0.79033 0.0
C250 C 0.52019 0.58786 0.90856 0.0
C251 C 0.4805 0.56228 0.96407 0.0
H252 H 0.55543 0.59125 0.78435 0.0
H253 H 0.54989 0.62008 0.93248 0.0
S254 S 0.3731 0.45176 0.90053 0.0
N255 N 0.40884 0.46333 0.81374 0.0
N256 N 0.40193 0.49446 0.97389 0.0
C257 C 0.44291 0.52075 0.92884 0.0
C258 C 0.44667 0.50372 0.8422 0.0
C259 C 0.18514 0.5594 0.1976 0.0
C260 C 0.1603 0.51834 0.14726 0.0
C261 C 0.1713 0.5623 0.28543 0.0
C262 C 0.13253 0.52385 0.32678 0.0
H263 H 0.21571 0.5894 0.16904 0.0
H264 H 0.19238 0.59465 0.32199 0.0
S265 S 0.05446 0.40901 0.21897 0.0
N266 N 0.09404 0.43923 0.14078 0.0
N267 N 0.06812 0.44402 0.30753 0.0
C268 C 0.10651 0.48288 0.27549 0.0
C269 C 0.12045 0.48026 0.18526 0.0
C270 C 0.82098 0.13706 0.61383 0.0
C271 C 0.77772 0.13017 0.64633 0.0
C272 C 0.83812 0.15694 0.52865 0.0
C273 C 0.81252 0.17024 0.47228 0.0
H274 H 0.84272 0.12866 0.65567 0.0
H275 H 0.87183 0.16217 0.50695 0.0
S276 S 0.69729 0.15932 0.52326 0.0
N277 N 0.7091 0.13728 0.6129 0.0
N278 N 0.74211 0.17549 0.45401 0.0
C279 C 0.76889 0.16268 0.5025 0.0
C280 C 0.75124 0.1423 0.58907 0.0
C281 C 0.79288 0.79027 0.82631 0.0
C282 C 0.82905 0.83314 0.79365 0.0
C283 C 0.79599 0.77352 0.91155 0.0
C284 C 0.83554 0.79899 0.96724 0.0
H285 H 0.7612 0.7703 0.78711 0.0
H286 H 0.7662 0.74129 0.93525 0.0
S287 S 0.94307 0.90977 0.90491 0.0
N288 N 0.90767 0.89826 0.81781 0.0
N289 N 0.91403 0.86689 0.97788 0.0
C290 C 0.87324 0.84061 0.93242 0.0
C291 C 0.86978 0.85776 0.84586 0.0
C292 C 0.14496 0.80441 0.2797 0.0
C293 C 0.1859 0.84073 0.31984 0.0
C294 C 0.13161 0.8086 0.19226 0.0
C295 C 0.15904 0.84883 0.14103 0.0
H296 H 0.12202 0.77276 0.31678 0.0
H297 H 0.09958 0.78013 0.16447 0.0
S298 S 0.26998 0.95329 0.21087 0.0
N299 N 0.25426 0.91811 0.29946 0.0
N300 N 0.2292 0.92531 0.13354 0.0
C301 C 0.20055 0.88498 0.17838 0.0
C302 C 0.21402 0.88108 0.26822 0.0
C303 C 0.51419 0.35969 0.21764 0.0
C304 C 0.49583 0.34508 0.13021 0.0
C305 C 0.5107 0.39526 0.26243 0.0
C306 C 0.48924 0.41807 0.22099 0.0
H307 H 0.5311 0.34316 0.25217 0.0
H308 H 0.52527 0.40512 0.32978 0.0
S309 S 0.43551 0.3925 0.99197 0.0
N310 N 0.45496 0.35541 0.00409 0.0
N311 N 0.4495 0.42339 0.08626 0.0
C312 C 0.47142 0.40424 0.13256 0.0
C313 C 0.47457 0.36758 0.08756 0.0
C314 C 0.29334 0.50759 0.43568 0.0
C315 C 0.33797 0.52751 0.47474 0.0
C316 C 0.25562 0.50556 0.48371 0.0
C317 C 0.26119 0.52302 0.57279 0.0
H318 H 0.28716 0.49206 0.36896 0.0
H319 H 0.22157 0.48906 0.45146 0.0
S320 S 0.37296 0.58405 0.70009 0.0
N321 N 0.38711 0.56964 0.603 0.0
N322 N 0.31605 0.56433 0.69467 0.0
C323 C 0.30621 0.54458 0.61105 0.0
C324 C 0.34464 0.54727 0.56158 0.0
C325 C 0.95119 0.32071 0.94387 0.0
C326 C 0.92628 0.27691 0.90115 0.0
C327 C 0.98752 0.35917 0.89917 0.0
C328 C 0.0008 0.35527 0.81051 0.0
H329 H 0.94239 0.32552 0.01212 0.0
H330 H 0.00553 0.39232 0.9346 0.0
S331 S 0.94781 0.24851 0.66863 0.0
N332 N 0.91768 0.23208 0.76394 0.0
N333 N 0.98698 0.30441 0.68184 0.0
C334 C 0.97625 0.31199 0.76661 0.0
C335 C 0.93886 0.27278 0.81158 0.0
C336 C 0.80408 0.00288 0.22649 0.0
C337 C 0.82265 0.01817 0.13937 0.0
C338 C 0.80732 0.96686 0.26976 0.0
C339 C 0.82879 0.94431 0.22707 0.0
H340 H 0.78711 0.01916 0.26187 0.0
H341 H 0.79251 0.95641 0.33688 0.0
S342 S 0.8835 0.97197 -0.00134 0.0
N343 N 0.86406 0.00898 0.01246 0.0
N344 N 0.86906 0.94018 0.09181 0.0
C345 C 0.84698 0.95894 0.13907 0.0
C346 C 0.84407 -0.00396 0.0956 0.0
C347 C 0.01712 0.82427 0.60386 0.0
C348 C 0.06154 0.84428 0.56312 0.0
C349 C 0.97863 0.82085 0.55703 0.0
C350 C 0.98317 0.83809 0.46833 0.0
H351 H 0.01193 0.81099 0.67237 0.0
H352 H 0.94506 0.8051 0.59119 0.0
S353 S 0.09166 0.89336 0.33041 0.0
N354 N 0.10751 0.8804 0.42705 0.0
N355 N 0.03534 0.87569 0.34121 0.0
C356 C 0.02707 0.8575 0.42606 0.0
C357 C 0.06622 0.86031 0.47306 0.0
C358 C 0.3361 0.00461 0.88844 0.0
C359 C 0.32334 0.00778 0.7991 0.0
C360 C 0.3729 0.04315 0.93189 0.0
C361 C 0.39884 0.08632 0.88727 0.0
H362 H 0.3172 0.97205 0.92553 0.0
H363 H 0.38099 0.03898 0.00103 0.0
S364 S 0.37972 0.11228 0.65142 0.0
N365 N 0.33922 0.05705 0.66714 0.0
N366 N 0.40954 0.12944 0.74687 0.0
C367 C 0.38712 0.08954 0.79667 0.0
C368 C 0.34919 0.05027 0.75298 0.0
loop_
_geom_bond_atom_site_label_1
_geom_bond_atom_site_label_2
_geom_bond_distance
_geom_bond_site_symmetry_2
_ccdc_geom_bond_type
Co0 O3 1.970 . S
Co0 N17 1.989 . S
Co0 O25 1.967 . S
Co0 O32 1.920 . S
Co1 O4 1.966 . S
Co1 N10 2.022 . S
Co1 N18 1.993 . S
Co1 O26 1.941 . S
C2 O3 1.258 1_554 S
C2 O4 1.263 . S
O3 Co0 1.970 . S
O3 C2 1.258 1_556 S
O4 Co1 1.966 . S
O4 C2 1.263 . S
C5 O6 1.235 . S
C5 O32 1.289 . S
O6 C5 1.235 . S
C7 C9 1.400 . S
C7 N10 1.351 . S
C7 C12 1.501 . S
C8 C9 1.387 . S
C8 N11 1.341 . S
C9 C7 1.400 . S
C9 C8 1.387 . S
N10 Co1 2.022 . S
N10 C7 1.351 . S
N10 N11 1.365 . S
N11 C8 1.341 . S
N11 N10 1.365 . S
N11 H31 0.862 . S
C12 C7 1.501 . S
C12 H13 0.961 . S
C12 H14 0.961 . S
C12 H15 0.960 . S
H13 C12 0.961 . S
H14 C12 0.961 . S
H15 C12 0.960 . S
C16 N17 1.342 . S
C16 C20 1.401 1_556 S
C16 C21 1.499 . S
N17 Co0 1.989 . S
N17 C16 1.342 . S
N17 N18 1.388 1_556 S
N18 Co1 1.993 . S
N18 N17 1.388 1_554 S
N18 C19 1.346 . S
C19 N18 1.346 . S
C19 C20 1.396 . S
C19 C29 1.510 . S
C20 C16 1.401 1_554 S
C20 C19 1.396 . S
C21 C16 1.499 . S
C21 H22 0.959 . S
C21 H23 0.960 . S
C21 H24 0.961 . S
H22 C21 0.959 . S
H23 C21 0.960 . S
H24 C21 0.961 . S
O25 Co0 1.967 . S
O25 C33 1.258 . S
O26 Co1 1.941 . S
O26 C33 1.266 1_554 S
H27 C29 0.959 . S
H28 C29 0.961 . S
C29 C19 1.510 . S
C29 H27 0.959 . S
C29 H28 0.961 . S
C29 H30 0.960 . S
H30 C29 0.960 . S
H31 N11 0.862 . S
O32 Co0 1.920 . S
O32 C5 1.289 . S
C33 O25 1.258 . S
C33 O26 1.266 1_556 S
Co34 O37 1.970 . S
Co34 N51 1.989 . S
Co34 O59 1.967 . S
Co34 O66 1.920 . S
Co35 O38 1.966 . S
Co35 N44 2.022 . S
Co35 N52 1.993 . S
Co35 O60 1.941 . S
C36 O37 1.258 . S
C36 O38 1.263 . S
O37 Co34 1.970 . S
O37 C36 1.258 . S
O38 Co35 1.966 . S
O38 C36 1.263 . S
C39 O40 1.235 . S
C39 O66 1.289 . S
O40 C39 1.235 . S
C41 C43 1.400 . S
C41 N44 1.351 . S
C41 C46 1.501 . S
C42 C43 1.387 . S
C42 N45 1.341 . S
C43 C41 1.400 . S
C43 C42 1.387 . S
N44 Co35 2.022 . S
N44 C41 1.351 . S
N44 N45 1.365 . S
N45 C42 1.341 . S
N45 N44 1.365 . S
N45 H65 0.862 . S
C46 C41 1.501 . S
C46 H47 0.961 . S
C46 H48 0.961 . S
C46 H49 0.960 . S
H47 C46 0.961 . S
H48 C46 0.961 . S
H49 C46 0.960 . S
C50 N51 1.342 . S
C50 C54 1.401 . S
C50 C55 1.499 . S
N51 Co34 1.989 . S
N51 C50 1.342 . S
N51 N52 1.388 . S
N52 Co35 1.993 . S
N52 N51 1.388 . S
N52 C53 1.346 . S
C53 N52 1.346 . S
C53 C54 1.396 . S
C53 C63 1.510 . S
C54 C50 1.401 . S
C54 C53 1.396 . S
C55 C50 1.499 . S
C55 H56 0.959 . S
C55 H57 0.960 . S
C55 H58 0.961 . S
H56 C55 0.959 . S
H57 C55 0.960 . S
H58 C55 0.961 . S
O59 Co34 1.967 . S
O59 C67 1.258 . S
O60 Co35 1.941 . S
O60 C67 1.266 . S
H61 C63 0.959 . S
H62 C63 0.961 . S
C63 C53 1.510 . S
C63 H61 0.959 . S
C63 H62 0.961 . S
C63 H64 0.960 . S
H64 C63 0.960 . S
H65 N45 0.862 . S
O66 Co34 1.920 . S
O66 C39 1.289 . S
C67 O59 1.258 . S
C67 O60 1.266 . S
Co68 O71 1.970 . S
Co68 N85 1.989 . S
Co68 O93 1.967 . S
Co68 O100 1.920 . S
Co69 O72 1.966 . S
Co69 N78 2.022 . S
Co69 N86 1.993 . S
Co69 O94 1.941 . S
C70 O71 1.258 . S
C70 O72 1.263 . S
O71 Co68 1.970 . S
O71 C70 1.258 . S
O72 Co69 1.966 . S
O72 C70 1.263 . S
C73 O74 1.235 . S
C73 O100 1.289 . S
O74 C73 1.235 . S
C75 C77 1.400 1_556 S
C75 N78 1.351 . S
C75 C80 1.501 . S
C76 C77 1.387 . S
C76 N79 1.341 1_554 S
C77 C75 1.400 1_554 S
C77 C76 1.387 . S
N78 Co69 2.022 . S
N78 C75 1.351 . S
N78 N79 1.365 . S
N79 C76 1.341 1_556 S
N79 N78 1.365 . S
N79 H99 0.862 . S
C80 C75 1.501 . S
C80 H81 0.961 . S
C80 H82 0.961 . S
C80 H83 0.960 . S
H81 C80 0.961 . S
H82 C80 0.961 . S
H83 C80 0.960 . S
C84 N85 1.342 . S
C84 C88 1.401 . S
C84 C89 1.499 . S
N85 Co68 1.989 . S
N85 C84 1.342 . S
N85 N86 1.388 . S
N86 Co69 1.993 . S
N86 N85 1.388 . S
N86 C87 1.346 . S
C87 N86 1.346 . S
C87 C88 1.396 . S
C87 C97 1.510 . S
C88 C84 1.401 . S
C88 C87 1.396 . S
C89 C84 1.499 . S
C89 H90 0.959 . S
C89 H91 0.960 1_455 S
C89 H92 0.961 . S
H90 C89 0.959 . S
H91 C89 0.960 1_655 S
H92 C89 0.961 . S
O93 Co68 1.967 . S
O93 C101 1.258 . S
O94 Co69 1.941 . S
O94 C101 1.266 . S
H95 C97 0.959 . S
H96 C97 0.961 . S
C97 C87 1.510 . S
C97 H95 0.959 . S
C97 H96 0.961 . S
C97 H98 0.960 . S
H98 C97 0.960 . S
H99 N79 0.862 . S
O100 Co68 1.920 . S
O100 C73 1.289 . S
C101 O93 1.258 . S
C101 O94 1.266 . S
Co102 O105 1.970 . S
Co102 N119 1.989 . S
Co102 O127 1.967 . S
Co102 O134 1.920 . S
Co103 O106 1.966 . S
Co103 N112 2.022 . S
Co103 N120 1.993 . S
Co103 O128 1.941 . S
C104 O105 1.258 1_554 S
C104 O106 1.263 . S
O105 Co102 1.970 . S
O105 C104 1.258 1_556 S
O106 Co103 1.966 . S
O106 C104 1.263 . S
C107 O108 1.235 . S
C107 O134 1.289 . S
O108 C107 1.235 . S
C109 C111 1.400 . S
C109 N112 1.351 . S
C109 C114 1.501 . S
C110 C111 1.387 . S
C110 N113 1.341 . S
C111 C109 1.400 . S
C111 C110 1.387 . S
N112 Co103 2.022 . S
N112 C109 1.351 . S
N112 N113 1.365 . S
N113 C110 1.341 . S
N113 N112 1.365 . S
N113 H133 0.862 . S
C114 C109 1.501 . S
C114 H115 0.961 . S
C114 H116 0.961 . S
C114 H117 0.960 . S
H115 C114 0.961 . S
H116 C114 0.961 . S
H117 C114 0.960 . S
C118 N119 1.342 . S
C118 C122 1.401 1_556 S
C118 C123 1.499 . S
N119 Co102 1.989 . S
N119 C118 1.342 . S
N119 N120 1.388 1_556 S
N120 Co103 1.993 . S
N120 N119 1.388 1_554 S
N120 C121 1.346 . S
C121 N120 1.346 . S
C121 C122 1.396 . S
C121 C131 1.510 . S
C122 C118 1.401 1_554 S
C122 C121 1.396 . S
C123 C118 1.499 . S
C123 H124 0.959 . S
C123 H125 0.960 1_545 S
C123 H126 0.961 . S
H124 C123 0.959 . S
H125 C123 0.960 1_565 S
H126 C123 0.961 . S
O127 Co102 1.967 . S
O127 C135 1.258 . S
O128 Co103 1.941 . S
O128 C135 1.266 1_554 S
H129 C131 0.959 . S
H130 C131 0.961 . S
C131 C121 1.510 . S
C131 H129 0.959 . S
C131 H130 0.961 . S
C131 H132 0.960 . S
H132 C131 0.960 . S
H133 N113 0.862 . S
O134 Co102 1.920 . S
O134 C107 1.289 . S
C135 O127 1.258 . S
C135 O128 1.266 1_556 S
Co136 O139 1.970 . S
Co136 N153 1.989 . S
Co136 O161 1.967 . S
Co136 O168 1.920 . S
Co137 O140 1.966 . S
Co137 N146 2.022 . S
Co137 N154 1.993 . S
Co137 O162 1.941 . S
C138 O139 1.258 . S
C138 O140 1.263 . S
O139 Co136 1.970 . S
O139 C138 1.258 . S
O140 Co137 1.966 . S
O140 C138 1.263 . S
C141 O142 1.235 . S
C141 O168 1.289 . S
O142 C141 1.235 . S
C143 C145 1.400 . S
C143 N146 1.351 . S
C143 C148 1.501 . S
C144 C145 1.387 . S
C144 N147 1.341 . S
C145 C143 1.400 . S
C145 C144 1.387 . S
N146 Co137 2.022 . S
N146 C143 1.351 . S
N146 N147 1.365 . S
N147 C144 1.341 . S
N147 N146 1.365 . S
N147 H167 0.862 . S
C148 C143 1.501 . S
C148 H149 0.961 . S
C148 H150 0.961 . S
C148 H151 0.960 . S
H149 C148 0.961 . S
H150 C148 0.961 . S
H151 C148 0.960 . S
C152 N153 1.342 . S
C152 C156 1.401 . S
C152 C157 1.499 . S
N153 Co136 1.989 . S
N153 C152 1.342 . S
N153 N154 1.388 . S
N154 Co137 1.993 . S
N154 N153 1.388 . S
N154 C155 1.346 . S
C155 N154 1.346 . S
C155 C156 1.396 . S
C155 C165 1.510 . S
C156 C152 1.401 . S
C156 C155 1.396 . S
C157 C152 1.499 . S
C157 H158 0.959 . S
C157 H159 0.960 . S
C157 H160 0.960 . S
H158 C157 0.959 . S
H159 C157 0.960 . S
H160 C157 0.960 . S
O161 Co136 1.967 . S
O161 C169 1.258 . S
O162 Co137 1.941 . S
O162 C169 1.266 . S
H163 C165 0.959 . S
H164 C165 0.961 . S
C165 C155 1.510 . S
C165 H163 0.959 . S
C165 H164 0.961 . S
C165 H166 0.960 . S
H166 C165 0.960 . S
H167 N147 0.862 . S
O168 Co136 1.920 . S
O168 C141 1.289 . S
C169 O161 1.258 . S
C169 O162 1.266 . S
Co170 O173 1.970 . S
Co170 N187 1.989 . S
Co170 O195 1.967 . S
Co170 O202 1.920 . S
Co171 O174 1.966 . S
Co171 N180 2.022 . S
Co171 N188 1.993 . S
Co171 O196 1.941 . S
C172 O173 1.258 . S
C172 O174 1.263 . S
O173 Co170 1.970 . S
O173 C172 1.258 . S
O174 Co171 1.966 . S
O174 C172 1.263 . S
C175 O176 1.235 . S
C175 O202 1.289 . S
O176 C175 1.235 . S
C177 C179 1.400 1_556 S
C177 N180 1.351 . S
C177 C182 1.501 . S
C178 C179 1.387 . S
C178 N181 1.341 1_554 S
C179 C177 1.400 1_554 S
C179 C178 1.387 . S
N180 Co171 2.022 . S
N180 C177 1.351 . S
N180 N181 1.365 . S
N181 C178 1.341 1_556 S
N181 N180 1.365 . S
N181 H201 0.862 . S
C182 C177 1.501 . S
C182 H183 0.961 . S
C182 H184 0.961 . S
C182 H185 0.960 . S
H183 C182 0.961 . S
H184 C182 0.961 . S
H185 C182 0.960 . S
C186 N187 1.342 . S
C186 C190 1.401 . S
C186 C191 1.499 . S
N187 Co170 1.989 . S
N187 C186 1.342 . S
N187 N188 1.388 . S
N188 Co171 1.993 . S
N188 N187 1.388 . S
N188 C189 1.346 . S
C189 N188 1.346 . S
C189 C190 1.396 . S
C189 C199 1.510 . S
C190 C186 1.401 . S
C190 C189 1.396 . S
C191 C186 1.499 . S
C191 H192 0.959 . S
C191 H193 0.952 . S
C191 H194 0.961 1_565 S
H192 C191 0.959 . S
H193 C191 0.952 . S
H194 C191 0.961 1_545 S
O195 Co170 1.967 . S
O195 C203 1.258 . S
O196 Co171 1.941 . S
O196 C203 1.266 . S
H197 C199 0.959 . S
H198 C199 0.961 . S
C199 C189 1.510 . S
C199 H197 0.959 . S
C199 H198 0.961 . S
C199 H200 0.960 . S
H200 C199 0.960 . S
H201 N181 0.862 . S
O202 Co170 1.920 . S
O202 C175 1.289 . S
C203 O195 1.258 . S
C203 O196 1.266 . S
C204 C205 1.369 . S
C204 C206 1.419 . S
C204 H208 0.930 . S
C205 C204 1.369 . S
C205 C214 1.429 1_554 S
C206 C204 1.419 . S
C206 C207 1.363 . S
C206 H209 0.929 . S
C207 C206 1.363 . S
C207 C213 1.428 1_554 S
H208 C204 0.930 . S
H209 C206 0.929 . S
S210 N211 1.613 . S
S210 N212 1.610 . S
N211 S210 1.613 . S
N211 C214 1.350 . S
N212 S210 1.610 . S
N212 C213 1.351 . S
C213 C207 1.428 1_556 S
C213 N212 1.351 . S
C213 C214 1.434 . S
C214 C205 1.429 1_556 S
C214 N211 1.350 . S
C214 C213 1.434 . S
C215 C216 1.369 . S
C215 C217 1.419 . S
C215 H219 0.930 . S
C216 C215 1.369 . S
C216 C225 1.429 . S
C217 C215 1.419 . S
C217 C218 1.363 . S
C217 H220 0.929 . S
C218 C217 1.363 . S
C218 C224 1.428 . S
H219 C215 0.930 . S
H220 C217 0.929 . S
S221 N222 1.613 . S
S221 N223 1.610 . S
N222 S221 1.613 . S
N222 C225 1.350 . S
N223 S221 1.610 . S
N223 C224 1.351 . S
C224 C218 1.428 . S
C224 N223 1.351 . S
C224 C225 1.434 . S
C225 C216 1.429 . S
C225 N222 1.350 . S
C225 C224 1.434 . S
C226 C227 1.369 . S
C226 C228 1.419 . S
C226 H230 0.930 . S
C227 C226 1.369 . S
C227 C236 1.429 . S
C228 C226 1.419 . S
C228 C229 1.363 . S
C228 H231 0.929 . S
C229 C228 1.363 . S
C229 C235 1.428 . S
H230 C226 0.930 . S
H231 C228 0.929 . S
S232 N233 1.613 . S
S232 N234 1.610 . S
N233 S232 1.613 . S
N233 C236 1.350 . S
N234 S232 1.610 . S
N234 C235 1.351 . S
C235 C229 1.428 . S
C235 N234 1.351 . S
C235 C236 1.434 . S
C236 C227 1.429 . S
C236 N233 1.350 . S
C236 C235 1.434 . S
C237 C238 1.369 . S
C237 C239 1.419 . S
C237 H241 0.930 . S
C238 C237 1.369 . S
C238 C247 1.429 . S
C239 C237 1.419 . S
C239 C240 1.363 . S
C239 H242 0.929 . S
C240 C239 1.363 . S
C240 C246 1.428 . S
H241 C237 0.930 . S
H242 C239 0.929 . S
S243 N244 1.613 . S
S243 N245 1.610 . S
N244 S243 1.613 . S
N244 C247 1.350 . S
N245 S243 1.610 . S
N245 C246 1.351 . S
C246 C240 1.428 . S
C246 N245 1.351 . S
C246 C247 1.434 . S
C247 C238 1.429 . S
C247 N244 1.350 . S
C247 C246 1.434 . S
C248 C249 1.369 . S
C248 C250 1.419 . S
C248 H252 0.930 . S
C249 C248 1.369 . S
C249 C258 1.429 . S
C250 C248 1.419 . S
C250 C251 1.363 . S
C250 H253 0.929 . S
C251 C250 1.363 . S
C251 C257 1.428 . S
H252 C248 0.930 . S
H253 C250 0.929 . S
S254 N255 1.613 . S
S254 N256 1.610 . S
N255 S254 1.613 . S
N255 C258 1.350 . S
N256 S254 1.610 . S
N256 C257 1.351 . S
C257 C251 1.428 . S
C257 N256 1.351 . S
C257 C258 1.434 . S
C258 C249 1.429 . S
C258 N255 1.350 . S
C258 C257 1.434 . S
C259 C260 1.369 . S
C259 C261 1.419 . S
C259 H263 0.930 . S
C260 C259 1.369 . S
C260 C269 1.429 . S
C261 C259 1.419 . S
C261 C262 1.363 . S
C261 H264 0.929 . S
C262 C261 1.363 . S
C262 C268 1.428 . S
H263 C259 0.930 . S
H264 C261 0.929 . S
S265 N266 1.613 1_655 S
S265 N267 1.610 . S
N266 S265 1.613 1_455 S
N266 C269 1.350 . S
N267 S265 1.610 . S
N267 C268 1.351 1_655 S
C268 C262 1.428 . S
C268 N267 1.351 1_455 S
C268 C269 1.434 . S
C269 C260 1.429 . S
C269 N266 1.350 . S
C269 C268 1.434 . S
C270 C271 1.369 . S
C270 C272 1.419 . S
C270 H274 0.930 . S
C271 C270 1.369 . S
C271 C280 1.429 . S
C272 C270 1.419 . S
C272 C273 1.363 . S
C272 H275 0.929 . S
C273 C272 1.363 . S
C273 C279 1.428 . S
H274 C270 0.930 . S
H275 C272 0.929 . S
S276 N277 1.613 . S
S276 N278 1.610 . S
N277 S276 1.613 . S
N277 C280 1.350 . S
N278 S276 1.610 . S
N278 C279 1.351 . S
C279 C273 1.428 . S
C279 N278 1.351 . S
C279 C280 1.434 . S
C280 C271 1.429 . S
C280 N277 1.350 . S
C280 C279 1.434 . S
C281 C282 1.369 . S
C281 C283 1.419 . S
C281 H285 0.930 . S
C282 C281 1.369 . S
C282 C291 1.429 . S
C283 C281 1.419 . S
C283 C284 1.363 . S
C283 H286 0.929 1_556 S
C284 C283 1.363 . S
C284 C290 1.428 . S
H285 C281 0.930 . S
H286 C283 0.929 1_554 S
S287 N288 1.613 . S
S287 N289 1.610 . S
N288 S287 1.613 . S
N288 C291 1.350 . S
N289 S287 1.610 . S
N289 C290 1.351 . S
C290 C284 1.428 . S
C290 N289 1.351 . S
C290 C291 1.434 . S
C291 C282 1.429 . S
C291 N288 1.350 . S
C291 C290 1.434 . S
C292 C293 1.369 . S
C292 C294 1.419 . S
C292 H296 0.930 . S
C293 C292 1.369 . S
C293 C302 1.429 . S
C294 C292 1.419 . S
C294 C295 1.363 . S
C294 H297 0.929 . S
C295 C294 1.363 . S
C295 C301 1.428 . S
H296 C292 0.930 . S
H297 C294 0.929 . S
S298 N299 1.613 . S
S298 N300 1.610 . S
N299 S298 1.613 . S
N299 C302 1.350 . S
N300 S298 1.610 . S
N300 C301 1.351 . S
C301 C295 1.428 . S
C301 N300 1.351 . S
C301 C302 1.434 . S
C302 C293 1.429 . S
C302 N299 1.350 . S
C302 C301 1.434 . S
C303 C304 1.369 . S
C303 C305 1.419 . S
C303 H307 0.930 . S
C304 C303 1.369 . S
C304 C313 1.429 . S
C305 C303 1.419 . S
C305 C306 1.363 . S
C305 H308 0.929 . S
C306 C305 1.363 . S
C306 C312 1.428 . S
H307 C303 0.930 . S
H308 C305 0.929 . S
S309 N310 1.613 . S
S309 N311 1.610 . S
N310 S309 1.613 . S
N310 C313 1.350 . S
N311 S309 1.610 . S
N311 C312 1.351 . S
C312 C306 1.428 . S
C312 N311 1.351 . S
C312 C313 1.434 . S
C313 C304 1.429 . S
C313 N310 1.350 . S
C313 C312 1.434 . S
C314 C315 1.369 . S
C314 C316 1.419 . S
C314 H318 0.930 . S
C315 C314 1.369 . S
C315 C324 1.429 . S
C316 C314 1.419 . S
C316 C317 1.363 . S
C316 H319 0.929 . S
C317 C316 1.363 . S
C317 C323 1.428 . S
H318 C314 0.930 . S
H319 C316 0.929 . S
S320 N321 1.613 . S
S320 N322 1.610 . S
N321 S320 1.613 . S
N321 C324 1.350 . S
N322 S320 1.610 . S
N322 C323 1.351 . S
C323 C317 1.428 . S
C323 N322 1.351 . S
C323 C324 1.434 . S
C324 C315 1.429 . S
C324 N321 1.350 . S
C324 C323 1.434 . S
C325 C326 1.369 . S
C325 C327 1.419 . S
C325 H329 0.930 . S
C326 C325 1.369 . S
C326 C335 1.429 . S
C327 C325 1.419 . S
C327 C328 1.363 . S
C327 H330 0.929 . S
C328 C327 1.363 . S
C328 C334 1.428 . S
H329 C325 0.930 . S
H330 C327 0.929 . S
S331 N332 1.613 . S
S331 N333 1.610 . S
N332 S331 1.613 . S
N332 C335 1.350 . S
N333 S331 1.610 . S
N333 C334 1.351 . S
C334 C328 1.428 . S
C334 N333 1.351 . S
C334 C335 1.434 . S
C335 C326 1.429 . S
C335 N332 1.350 . S
C335 C334 1.434 . S
C336 C337 1.369 . S
C336 C338 1.419 . S
C336 H340 0.930 . S
C337 C336 1.369 . S
C337 C346 1.429 1_565 S
C338 C336 1.419 . S
C338 C339 1.363 . S
C338 H341 0.929 . S
C339 C338 1.363 . S
C339 C345 1.428 . S
H340 C336 0.930 . S
H341 C338 0.929 . S
S342 N343 1.613 . S
S342 N344 1.610 . S
N343 S342 1.613 . S
N343 C346 1.350 . S
N344 S342 1.610 . S
N344 C345 1.351 1_545 S
C345 C339 1.428 . S
C345 N344 1.351 1_565 S
C345 C346 1.434 1_565 S
C346 C337 1.429 1_545 S
C346 N343 1.350 . S
C346 C345 1.434 1_545 S
C347 C348 1.369 . S
C347 C349 1.419 . S
C347 H351 0.930 . S
C348 C347 1.369 . S
C348 C357 1.429 . S
C349 C347 1.419 . S
C349 C350 1.363 . S
C349 H352 0.929 . S
C350 C349 1.363 . S
C350 C356 1.428 . S
H351 C347 0.930 . S
H352 C349 0.929 . S
S353 N354 1.613 . S
S353 N355 1.610 1_455 S
N354 S353 1.613 . S
N354 C357 1.350 . S
N355 S353 1.610 1_655 S
N355 C356 1.351 1_655 S
C356 C350 1.428 . S
C356 N355 1.351 1_455 S
C356 C357 1.434 . S
C357 C348 1.429 . S
C357 N354 1.350 . S
C357 C356 1.434 . S
C358 C359 1.369 . S
C358 C360 1.419 . S
C358 H362 0.930 . S
C359 C358 1.369 . S
C359 C368 1.429 . S
C360 C358 1.419 . S
C360 C361 1.363 . S
C360 H363 0.929 . S
C361 C360 1.363 . S
C361 C367 1.428 . S
H362 C358 0.930 . S
H363 C360 0.929 . S
S364 N365 1.613 . S
S364 N366 1.610 . S
N365 S364 1.613 . S
N365 C368 1.350 . S
N366 S364 1.610 . S
N366 C367 1.351 . S
C367 C361 1.428 . S
C367 N366 1.351 . S
C367 C368 1.434 . S
C368 C359 1.429 . S
C368 N365 1.350 . S
C368 C367 1.434 . S
C205 C2 1.594 . S
C207 C104 1.593 . S
C216 C138 1.594 . S
C218 C36 1.593 . S
C227 C70 1.595 . S
C229 C172 1.593 . S
C238 C9 1.271 . S
C240 C5 1.277 . S
C249 C43 1.269 . S
C251 C39 1.275 1_556 S
C260 C77 1.277 . S
C262 C73 1.275 . S
C271 C107 1.273 . S
C273 C111 1.278 . S
C282 C145 1.275 . S
C284 C141 1.276 1_556 S
C293 C175 1.278 . S
C295 C179 1.274 . S
C304 C20 1.648 . S
C306 C67 1.673 . S
C315 C54 1.649 . S
C317 C101 1.670 . S
C326 C135 1.671 . S
C328 C88 1.649 1_655 S
C337 C122 1.647 1_565 S
C339 C169 1.673 . S
C348 C203 1.676 . S
C350 C156 1.643 1_455 S
C359 C190 1.650 1_545 S
C361 C33 1.671 . S
