# Generated by pormake.
# Topology atn, (4)-cn, num edge types: 1
# Building blocks:
#     Node 0, Type 0, BuildingBlock: ICAMEG_clean_sbu_1, # of connection points: 4
#     Node 1, Type 0, BuildingBlock: ICAMEG_clean_sbu_1, # of connection points: 4
#     Node 2, Type 0, BuildingBlock: ICAMEG_clean_sbu_1, # of connection points: 4
#     Node 3, Type 0, BuildingBlock: ICAMEG_clean_sbu_1, # of connection points: 4
#     Node 4, Type 0, BuildingBlock: ICAMEG_clean_sbu_1, # of connection points: 4
#     Node 5, Type 0, BuildingBlock: ICAMEG_clean_sbu_1, # of connection points: 4
#     Node 6, Type 0, BuildingBlock: ICAMEG_clean_sbu_1, # of connection points: 4
#     Node 7, Type 0, BuildingBlock: ICAMEG_clean_sbu_1, # of connection points: 4
#     Node 8, Type 0, BuildingBlock: ICAMEG_clean_sbu_1, # of connection points: 4
#     Node 9, Type 0, BuildingBlock: ICAMEG_clean_sbu_1, # of connection points: 4
#     Node 10, Type 0, BuildingBlock: ICAMEG_clean_sbu_1, # of connection points: 4
#     Node 11, Type 0, BuildingBlock: ICAMEG_clean_sbu_1, # of connection points: 4
#     Node 12, Type 0, BuildingBlock: ICAMEG_clean_sbu_1, # of connection points: 4
#     Node 13, Type 0, BuildingBlock: ICAMEG_clean_sbu_1, # of connection points: 4
#     Node 14, Type 0, BuildingBlock: ICAMEG_clean_sbu_1, # of connection points: 4
#     Node 15, Type 0, BuildingBlock: ICAMEG_clean_sbu_1, # of connection points: 4
#     Edge 16, Type (0, 0), BuildingBlock: XIVTED_clean_linker_0, # of connection points: 2
#     Edge 17, Type (0, 0), BuildingBlock: XIVTED_clean_linker_0, # of connection points: 2
#     Edge 18, Type (0, 0), BuildingBlock: XIVTED_clean_linker_0, # of connection points: 2
#     Edge 19, Type (0, 0), BuildingBlock: XIVTED_clean_linker_0, # of connection points: 2
#     Edge 20, Type (0, 0), BuildingBlock: XIVTED_clean_linker_0, # of connection points: 2
#     Edge 21, Type (0, 0), BuildingBlock: XIVTED_clean_linker_0, # of connection points: 2
#     Edge 22, Type (0, 0), BuildingBlock: XIVTED_clean_linker_0, # of connection points: 2
#     Edge 23, Type (0, 0), BuildingBlock: XIVTED_clean_linker_0, # of connection points: 2
#     Edge 24, Type (0, 0), BuildingBlock: XIVTED_clean_linker_0, # of connection points: 2
#     Edge 25, Type (0, 0), BuildingBlock: XIVTED_clean_linker_0, # of connection points: 2
#     Edge 26, Type (0, 0), BuildingBlock: XIVTED_clean_linker_0, # of connection points: 2
#     Edge 27, Type (0, 0), BuildingBlock: XIVTED_clean_linker_0, # of connection points: 2
#     Edge 28, Type (0, 0), BuildingBlock: XIVTED_clean_linker_0, # of connection points: 2
#     Edge 29, Type (0, 0), BuildingBlock: XIVTED_clean_linker_0, # of connection points: 2
#     Edge 30, Type (0, 0), BuildingBlock: XIVTED_clean_linker_0, # of connection points: 2
#     Edge 31, Type (0, 0), BuildingBlock: XIVTED_clean_linker_0, # of connection points: 2
#     Edge 32, Type (0, 0), BuildingBlock: XIVTED_clean_linker_0, # of connection points: 2
#     Edge 33, Type (0, 0), BuildingBlock: XIVTED_clean_linker_0, # of connection points: 2
#     Edge 34, Type (0, 0), BuildingBlock: XIVTED_clean_linker_0, # of connection points: 2
#     Edge 35, Type (0, 0), BuildingBlock: XIVTED_clean_linker_0, # of connection points: 2
#     Edge 36, Type (0, 0), BuildingBlock: XIVTED_clean_linker_0, # of connection points: 2
#     Edge 37, Type (0, 0), BuildingBlock: XIVTED_clean_linker_0, # of connection points: 2
#     Edge 38, Type (0, 0), BuildingBlock: XIVTED_clean_linker_0, # of connection points: 2
#     Edge 39, Type (0, 0), BuildingBlock: XIVTED_clean_linker_0, # of connection points: 2
#     Edge 40, Type (0, 0), BuildingBlock: XIVTED_clean_linker_0, # of connection points: 2
#     Edge 41, Type (0, 0), BuildingBlock: XIVTED_clean_linker_0, # of connection points: 2
#     Edge 42, Type (0, 0), BuildingBlock: XIVTED_clean_linker_0, # of connection points: 2
#     Edge 43, Type (0, 0), BuildingBlock: XIVTED_clean_linker_0, # of connection points: 2
#     Edge 44, Type (0, 0), BuildingBlock: XIVTED_clean_linker_0, # of connection points: 2
#     Edge 45, Type (0, 0), BuildingBlock: XIVTED_clean_linker_0, # of connection points: 2
#     Edge 46, Type (0, 0), BuildingBlock: XIVTED_clean_linker_0, # of connection points: 2
#     Edge 47, Type (0, 0), BuildingBlock: XIVTED_clean_linker_0, # of connection points: 2
# Relax obj value: 0.024
# Max RMSD: 0.061
# Mean RMSD: 0.061
data_MOF--net-atn--node1-ICAMEG_clean_sbu_1--edge1-XIVTED_clean_linker_0
_symmetry_space_group_name_H-M    P1
_symmetry_Int_Tables_number       1
_symmetry_cell_setting            triclinic
loop_
_symmetry_equiv_pos_as_xyz
'x, y, z'
_cell_length_a     62.062336
_cell_length_b     62.049939
_cell_length_c     30.425635
_cell_angle_alpha  90.004205
_cell_angle_beta   89.989446
_cell_angle_gamma 89.972483
loop_
_atom_site_label
_atom_site_type_symbol
_atom_site_fract_x
_atom_site_fract_y
_atom_site_fract_z
_atom_type_partial_charge
Co0 Co 0.17747 0.35154 0.9977 0.0
Co1 Co 0.21834 0.38384 0.03524 0.0
O2 O 0.1947 0.37788 0.99433 0.0
C3 C 0.19083 0.35271 0.90478 0.0
O4 O 0.21029 0.3577 0.91826 0.0
C5 C 0.19279 0.42492 0.033 0.0
O6 O 0.17502 0.41366 0.03749 0.0
O7 O 0.19868 0.37957 0.08641 0.0
O8 O 0.17874 0.35163 0.06339 0.0
H9 H 0.26387 0.37095 0.1692 0.0
H10 H 0.16115 0.38848 0.94599 0.0
O11 O 0.17557 0.35045 0.93228 0.0
H12 H 0.1058 0.37507 0.05902 0.0
H13 H 0.11721 0.30181 0.95312 0.0
H14 H 0.18028 0.31129 0.04978 0.0
H15 H 0.13829 0.35228 0.05486 0.0
H16 H 0.13857 0.33531 0.95056 0.0
O17 O 0.21104 0.41546 0.0332 0.0
H18 H 0.23473 0.36316 0.11642 0.0
H19 H 0.25153 0.41849 0.04177 0.0
H20 H 0.15926 0.2776 0.05371 0.0
H21 H 0.12878 0.41154 0.94865 0.0
H22 H 0.12748 0.27271 0.00512 0.0
H23 H 0.10086 0.40493 0.00558 0.0
O24 O 0.20407 0.33381 0.99466 0.0
H25 H 0.2391 0.41315 0.88718 0.0
H26 H 0.26221 0.36773 0.01155 0.0
H27 H 0.2862 0.37202 0.94758 0.0
H28 H 0.27472 0.39491 0.88483 0.0
H29 H 0.21548 0.40821 0.95155 0.0
H30 H 0.28075 0.42698 0.0939 0.0
H31 H 0.28712 0.40307 0.15808 0.0
O32 O 0.22694 0.35246 0.03731 0.0
C33 C 0.18545 0.36421 0.09358 0.0
C34 C 0.26129 0.38146 0.14129 0.0
C35 C 0.27075 0.41292 0.09906 0.0
N36 N 0.24152 0.39027 0.07591 0.0
C37 C 0.24485 0.3771 0.11124 0.0
C38 C 0.25414 0.40806 0.06971 0.0
C39 C 0.27432 0.39949 0.13506 0.0
C40 C 0.14898 0.3854 0.9706 0.0
N41 N 0.1516 0.36905 0.00019 0.0
C42 C 0.13072 0.39855 0.97206 0.0
C43 C 0.11508 0.39485 0.00405 0.0
C44 C 0.11786 0.37812 0.03407 0.0
C45 C 0.13633 0.36531 0.03166 0.0
C46 C 0.131 0.30377 0.97453 0.0
C47 C 0.16639 0.30932 0.02874 0.0
C48 C 0.14318 0.32269 0.97316 0.0
N49 N 0.16054 0.32531 0.00026 0.0
C50 C 0.15459 0.29019 0.03102 0.0
C51 C 0.13677 0.28745 0.00372 0.0
C52 C 0.2218 0.33566 0.01535 0.0
C53 C 0.24432 0.40318 0.91437 0.0
C54 C 0.25703 0.37764 0.98431 0.0
C55 C 0.27073 0.38005 0.94822 0.0
C56 C 0.26428 0.39292 0.91304 0.0
N57 N 0.23747 0.38777 0.98538 0.0
C58 C 0.23105 0.40041 0.95101 0.0
Co59 Co 0.65836 0.17817 0.00013 0.0
Co60 Co 0.62466 0.21949 0.03304 0.0
O61 O 0.63197 0.19531 0.99435 0.0
C62 C 0.65972 0.19294 0.90813 0.0
O63 O 0.65418 0.21212 0.92237 0.0
C64 C 0.58432 0.19246 0.03096 0.0
O65 O 0.59597 0.17485 0.03375 0.0
O66 O 0.62981 0.20134 0.08653 0.0
O67 O 0.656 0.17859 0.06536 0.0
H68 H 0.63559 0.26876 0.16208 0.0
H69 H 0.62331 0.16267 0.94217 0.0
O70 O 0.66158 0.17728 0.93486 0.0
H71 H 0.63273 0.10576 0.05367 0.0
H72 H 0.70942 0.11847 0.95851 0.0
H73 H 0.69673 0.17992 0.05804 0.0
H74 H 0.65558 0.13825 0.05472 0.0
H75 H 0.67612 0.14001 0.95271 0.0
O76 O 0.59339 0.21089 0.03206 0.0
H77 H 0.64462 0.23874 0.11221 0.0
H78 H 0.58852 0.25129 0.03648 0.0
H79 H 0.73017 0.1587 0.06523 0.0
H80 H 0.60024 0.13032 0.93961 0.0
H81 H 0.73668 0.12773 0.01522 0.0
H82 H 0.60483 0.10163 0.99574 0.0
O83 O 0.67648 0.20464 0.00158 0.0
H84 H 0.59526 0.23429 0.88213 0.0
H85 H 0.63744 0.26391 0.00533 0.0
H86 H 0.63215 0.28582 0.93864 0.0
H87 H 0.61087 0.27103 0.87643 0.0
H88 H 0.60122 0.21283 0.94922 0.0
H89 H 0.57878 0.28133 0.08573 0.0
H90 H 0.60245 0.29029 0.14897 0.0
O91 O 0.65545 0.22952 0.03368 0.0
C92 C 0.64397 0.18691 0.09477 0.0
C93 C 0.62517 0.26505 0.13458 0.0
C94 C 0.59327 0.27208 0.09177 0.0
N95 N 0.61717 0.24333 0.07137 0.0
C96 C 0.63023 0.2481 0.10618 0.0
C97 C 0.59883 0.255 0.06408 0.0
C98 C 0.60656 0.2771 0.12723 0.0
C99 C 0.62553 0.15015 0.96647 0.0
N100 N 0.6408 0.15233 0.99851 0.0
C101 C 0.61236 0.13192 0.96495 0.0
C102 C 0.61493 0.11584 0.9965 0.0
C103 C 0.63056 0.11816 0.02904 0.0
C104 C 0.64341 0.13663 0.02957 0.0
C105 C 0.70675 0.1319 0.98056 0.0
C106 C 0.69939 0.16638 0.03634 0.0
C107 C 0.68795 0.14418 0.97737 0.0
N108 N 0.68442 0.1611 0.00524 0.0
C109 C 0.71838 0.15447 0.04049 0.0
C110 C 0.72203 0.1371 0.01239 0.0
C111 C 0.67352 0.22332 0.01795 0.0
C112 C 0.60455 0.24092 0.90902 0.0
C113 C 0.62836 0.25728 0.9783 0.0
C114 C 0.6253 0.26981 0.94067 0.0
C115 C 0.61334 0.26152 0.90581 0.0
N116 N 0.61973 0.23707 0.98119 0.0
C117 C 0.60791 0.22887 0.94718 0.0
Co118 Co 0.83208 0.65785 -0.00093 0.0
Co119 Co 0.79065 0.62594 0.03531 0.0
O120 O 0.81476 0.6316 0.99531 0.0
C121 C 0.82009 0.65634 0.90528 0.0
O122 O 0.8004 0.65148 0.91748 0.0
C123 C 0.81597 0.58472 0.03437 0.0
O124 O 0.83373 0.59591 0.03957 0.0
O125 O 0.80981 0.63023 0.08732 0.0
O126 O 0.82999 0.65806 0.06465 0.0
H127 H 0.74379 0.63957 0.16707 0.0
H128 H 0.84882 0.62056 0.94901 0.0
O129 O 0.8349 0.65865 0.93378 0.0
H130 H 0.90292 0.63432 0.06431 0.0
H131 H 0.89313 0.70713 0.95691 0.0
H132 H 0.82874 0.69835 0.0502 0.0
H133 H 0.87061 0.65726 0.05806 0.0
H134 H 0.87169 0.67371 0.9538 0.0
O135 O 0.79776 0.59425 0.0339 0.0
H136 H 0.77354 0.64699 0.11549 0.0
H137 H 0.75718 0.59152 0.04084 0.0
H138 H 0.84983 0.73198 0.05465 0.0
H139 H 0.88103 0.59735 0.95373 0.0
H140 H 0.88228 0.73652 0.00776 0.0
H141 H 0.90831 0.60414 0.01182 0.0
O142 O 0.80559 0.67565 0.99426 0.0
H143 H 0.77124 0.59639 0.88668 0.0
H144 H 0.74714 0.64227 0.0096 0.0
H145 H 0.7238 0.63799 0.94465 0.0
H146 H 0.73578 0.61487 0.88264 0.0
H147 H 0.79422 0.60133 0.95199 0.0
H148 H 0.72734 0.58341 0.09178 0.0
H149 H 0.72044 0.60757 0.15534 0.0
O150 O 0.78226 0.6574 0.03662 0.0
C151 C 0.82299 0.6456 0.09478 0.0
C152 C 0.74659 0.62895 0.13942 0.0
C153 C 0.73738 0.59741 0.0972 0.0
N154 N 0.76701 0.61979 0.07505 0.0
C155 C 0.76338 0.6331 0.11005 0.0
C156 C 0.75433 0.60206 0.06853 0.0
C157 C 0.73351 0.61098 0.13285 0.0
C158 C 0.86072 0.62372 0.97413 0.0
N159 N 0.85784 0.64024 0.00322 0.0
C160 C 0.87888 0.61048 0.97674 0.0
C161 C 0.89417 0.61427 0.00938 0.0
C162 C 0.89114 0.63119 0.03888 0.0
C163 C 0.87276 0.64407 0.0353 0.0
C164 C 0.87905 0.70533 0.97757 0.0
C165 C 0.84292 0.70017 0.02989 0.0
C166 C 0.86682 0.68646 0.97589 0.0
N167 N 0.84908 0.68402 0.00205 0.0
C168 C 0.85477 0.71926 0.03247 0.0
C169 C 0.87296 0.72181 0.00612 0.0
C170 C 0.78764 0.674 0.0143 0.0
C171 C 0.76581 0.60646 0.91355 0.0
C172 C 0.75254 0.63226 0.98268 0.0
C173 C 0.73921 0.62985 0.94603 0.0
C174 C 0.74594 0.61686 0.91127 0.0
N175 N 0.77202 0.622 0.98469 0.0
C176 C 0.77871 0.60924 0.95072 0.0
Co177 Co 0.35088 0.83264 -0.00092 0.0
Co178 Co 0.38384 0.79084 0.03245 0.0
O179 O 0.37708 0.81515 0.99365 0.0
C180 C 0.3499 0.81823 0.90682 0.0
O181 O 0.35521 0.79893 0.92074 0.0
C182 C 0.42477 0.81703 0.02988 0.0
O183 O 0.41354 0.83495 0.0312 0.0
O184 O 0.37885 0.80911 0.08584 0.0
O185 O 0.35289 0.83202 0.06432 0.0
H186 H 0.37166 0.74187 0.1615 0.0
H187 H 0.38634 0.84792 0.94187 0.0
O188 O 0.348 0.83377 0.93381 0.0
H189 H 0.37716 0.90457 0.05402 0.0
H190 H 0.30083 0.89314 0.95719 0.0
H191 H 0.31218 0.83122 0.05612 0.0
H192 H 0.35395 0.87233 0.05432 0.0
H193 H 0.33387 0.87119 0.9518 0.0
O194 O 0.41528 0.79885 0.03194 0.0
H195 H 0.36332 0.77202 0.11144 0.0
H196 H 0.41938 0.75835 0.03634 0.0
H197 H 0.27898 0.85284 0.06287 0.0
H198 H 0.40976 0.88003 0.94003 0.0
H199 H 0.27315 0.88406 0.01316 0.0
H200 H 0.40529 0.90859 0.9965 0.0
O201 O 0.33241 0.80642 -0.00016 0.0
H202 H 0.41349 0.77553 0.88192 0.0
H203 H 0.37048 0.74661 0.00463 0.0
H204 H 0.37565 0.72459 0.93803 0.0
H205 H 0.39735 0.73902 0.87607 0.0
H206 H 0.40764 0.7971 0.94889 0.0
H207 H 0.42843 0.72819 0.08578 0.0
H208 H 0.40443 0.71973 0.1488 0.0
O209 O 0.35289 0.78133 0.0327 0.0
C210 C 0.36476 0.82363 0.09388 0.0
C211 C 0.38222 0.74537 0.13409 0.0
C212 C 0.4141 0.73772 0.09164 0.0
N213 N 0.39078 0.76688 0.0709 0.0
C214 C 0.37755 0.76238 0.10559 0.0
C215 C 0.40893 0.75486 0.06384 0.0
C216 C 0.40062 0.73296 0.12698 0.0
C217 C 0.38417 0.86039 0.9663 0.0
N218 N 0.36878 0.85827 0.99812 0.0
C219 C 0.39753 0.87848 0.9652 0.0
C220 C 0.39504 0.89449 0.99694 0.0
C221 C 0.37928 0.89223 0.02925 0.0
C222 C 0.36623 0.87389 0.02936 0.0
C223 C 0.30321 0.87961 0.9791 0.0
C224 C 0.30981 0.84486 0.03455 0.0
C225 C 0.32187 0.86709 0.97615 0.0
N226 N 0.32502 0.85004 0.00386 0.0
C227 C 0.29096 0.85701 0.03845 0.0
C228 C 0.28768 0.87451 0.01052 0.0
C229 C 0.33501 0.78774 0.01646 0.0
C230 C 0.40402 0.76905 0.9087 0.0
C231 C 0.37974 0.75308 0.97769 0.0
C232 C 0.38272 0.74049 0.94013 0.0
C233 C 0.39493 0.74859 0.90541 0.0
N234 N 0.38865 0.77317 0.98066 0.0
C235 C 0.40071 0.78117 0.9468 0.0
Co236 Co 0.17616 0.65866 0.99794 0.0
Co237 Co 0.21739 0.62491 0.96499 0.0
O238 O 0.19321 0.6322 0.00373 0.0
C239 C 0.19045 0.65992 0.09025 0.0
O240 O 0.20971 0.65426 0.07666 0.0
C241 C 0.19052 0.58444 0.96733 0.0
O242 O 0.17283 0.59597 0.96495 0.0
O243 O 0.19922 0.63001 0.91152 0.0
O244 O 0.17681 0.65646 0.93279 0.0
H245 H 0.26658 0.63588 0.83582 0.0
H246 H 0.16034 0.62355 0.05536 0.0
O247 O 0.17499 0.66178 0.0631 0.0
H248 H 0.10387 0.63336 0.94313 0.0
H249 H 0.11643 0.70981 0.03893 0.0
H250 H 0.17829 0.69718 0.94046 0.0
H251 H 0.13643 0.65612 0.94273 0.0
H252 H 0.13783 0.67643 0.0448 0.0
O253 O 0.20888 0.59361 0.96599 0.0
H254 H 0.23655 0.64487 0.88572 0.0
H255 H 0.2493 0.58885 0.9616 0.0
H256 H 0.15721 0.73071 0.93321 0.0
H257 H 0.12791 0.60058 0.0573 0.0
H258 H 0.12603 0.7372 0.98269 0.0
H259 H 0.09944 0.60537 0.00079 0.0
O260 O 0.20269 0.67671 0.99707 0.0
H261 H 0.2323 0.59553 0.11588 0.0
H262 H 0.26179 0.63778 0.99264 0.0
H263 H 0.28374 0.63252 0.05928 0.0
H264 H 0.26902 0.61119 0.12151 0.0
H265 H 0.21081 0.60147 0.04884 0.0
H266 H 0.27933 0.57916 0.91232 0.0
H267 H 0.2882 0.60281 0.84899 0.0
O268 O 0.22738 0.65571 0.96426 0.0
C269 C 0.18497 0.64436 0.90334 0.0
C270 C 0.26291 0.62547 0.86336 0.0
C271 C 0.27004 0.59362 0.90625 0.0
N272 N 0.24124 0.61746 0.92664 0.0
C273 C 0.24596 0.6305 0.89177 0.0
C274 C 0.25296 0.59915 0.93396 0.0
C275 C 0.27501 0.6069 0.87074 0.0
C276 C 0.14792 0.62585 0.03091 0.0
N277 N 0.15026 0.64117 -0.00099 0.0
C278 C 0.12964 0.61275 0.03206 0.0
C279 C 0.11368 0.61542 0.0003 0.0
C280 C 0.11617 0.63111 0.96791 0.0
C281 C 0.13469 0.6439 0.96775 0.0
C282 C 0.12995 0.70716 0.01712 0.0
C283 C 0.16466 0.69983 0.96193 0.0
C284 C 0.14215 0.6883 0.02034 0.0
N285 N 0.15919 0.6848 0.99277 0.0
C286 C 0.15283 0.71887 0.95775 0.0
C287 C 0.13535 0.72251 0.98555 0.0
C288 C 0.22131 0.67374 0.98038 0.0
C289 C 0.23891 0.60483 0.08898 0.0
C290 C 0.2552 0.62869 0.01968 0.0
C291 C 0.26774 0.62564 0.05727 0.0
C292 C 0.25949 0.61366 0.09214 0.0
N293 N 0.235 0.62003 0.01683 0.0
C294 C 0.22684 0.60819 0.05085 0.0
Co295 Co 0.35154 0.17757 0.00047 0.0
Co296 Co 0.3836 0.21833 0.96174 0.0
O297 O 0.37783 0.19489 0.00329 0.0
C298 C 0.3527 0.19122 0.09321 0.0
O299 O 0.35759 0.21069 0.0796 0.0
C300 C 0.42487 0.19306 0.9646 0.0
O301 O 0.41374 0.17517 0.96078 0.0
O302 O 0.37939 0.19833 0.91108 0.0
O303 O 0.35147 0.17857 0.93485 0.0
H304 H 0.37028 0.263 0.82675 0.0
H305 H 0.38864 0.16155 0.05206 0.0
O306 O 0.35058 0.17588 0.06587 0.0
H307 H 0.37507 0.10567 0.94019 0.0
H308 H 0.30207 0.11732 0.04639 0.0
H309 H 0.31116 0.18011 0.94878 0.0
H310 H 0.35223 0.13813 0.94401 0.0
H311 H 0.33552 0.13875 0.04831 0.0
O312 O 0.41527 0.21124 0.96381 0.0
H313 H 0.36273 0.23412 0.88028 0.0
H314 H 0.41805 0.25169 0.95419 0.0
H315 H 0.27752 0.15901 0.9455 0.0
H316 H 0.41176 0.1292 0.04975 0.0
H317 H 0.27281 0.12737 0.99457 0.0
H318 H 0.40507 0.10102 0.9934 0.0
O319 O 0.33377 0.20413 0.00328 0.0
H320 H 0.41291 0.24013 0.10918 0.0
H321 H 0.36731 0.26228 0.98437 0.0
H322 H 0.37153 0.28668 0.04772 0.0
H323 H 0.39451 0.27568 0.11067 0.0
H324 H 0.40804 0.21609 0.04543 0.0
H325 H 0.4263 0.28065 0.90129 0.0
H326 H 0.40227 0.2865 0.83709 0.0
O327 O 0.35217 0.22675 0.95963 0.0
C328 C 0.364 0.18506 0.90439 0.0
C329 C 0.38084 0.26065 0.85465 0.0
C330 C 0.4123 0.27053 0.89645 0.0
N331 N 0.38985 0.24131 0.92046 0.0
C332 C 0.37661 0.24436 0.88513 0.0
C333 C 0.40757 0.25407 0.92624 0.0
C334 C 0.3988 0.27381 0.86045 0.0
C335 C 0.38553 0.14925 0.0277 0.0
N336 N 0.3691 0.15172 0.99824 0.0
C337 C 0.39871 0.13102 0.02644 0.0
C338 C 0.39497 0.11523 0.99477 0.0
C339 C 0.37816 0.11784 0.96488 0.0
C340 C 0.36533 0.1363 0.96708 0.0
C341 C 0.30394 0.13105 0.02478 0.0
C342 C 0.30928 0.16628 0.97004 0.0
C343 C 0.32283 0.14327 0.02578 0.0
N344 N 0.32535 0.16056 0.99843 0.0
C345 C 0.29018 0.15443 0.96812 0.0
C346 C 0.28754 0.13669 0.99569 0.0
C347 C 0.3355 0.22174 0.98207 0.0
C348 C 0.4029 0.24513 0.08189 0.0
C349 C 0.37726 0.25731 0.01171 0.0
C350 C 0.37964 0.27123 0.04744 0.0
C351 C 0.39255 0.26506 0.08274 0.0
N352 N 0.38748 0.23778 0.0111 0.0
C353 C 0.40016 0.23163 0.04559 0.0
Co354 Co 0.83366 0.35138 0.99735 0.0
Co355 Co 0.79215 0.38478 0.96445 0.0
O356 O 0.81647 0.37776 0.00302 0.0
C357 C 0.81981 0.35035 0.09002 0.0
O358 O 0.80044 0.35588 0.07684 0.0
C359 C 0.8188 0.42542 0.96639 0.0
O360 O 0.83655 0.41396 0.96423 0.0
O361 O 0.81021 0.37959 0.91079 0.0
O362 O 0.83277 0.35333 0.9322 0.0
H363 H 0.74268 0.3731 0.83601 0.0
H364 H 0.84952 0.38677 0.05403 0.0
O365 O 0.83512 0.3485 0.06253 0.0
H366 H 0.90561 0.37688 0.94098 0.0
H367 H 0.89385 0.30071 0.03805 0.0
H368 H 0.83149 0.31261 0.94058 0.0
H369 H 0.87317 0.35395 0.94144 0.0
H370 H 0.8723 0.33401 0.04377 0.0
O371 O 0.80048 0.41615 0.96494 0.0
H372 H 0.77287 0.36444 0.88572 0.0
H373 H 0.76005 0.42068 0.96088 0.0
H374 H 0.8527 0.27916 0.9335 0.0
H375 H 0.88183 0.40991 0.05512 0.0
H376 H 0.88413 0.27305 0.98248 0.0
H377 H 0.91011 0.40508 0.99819 0.0
O378 O 0.80722 0.33321 0.9972 0.0
H379 H 0.77752 0.41457 0.11516 0.0
H380 H 0.74784 0.37189 0.99272 0.0
H381 H 0.72604 0.3773 0.05952 0.0
H382 H 0.74085 0.39884 0.12135 0.0
H383 H 0.79887 0.40847 0.04798 0.0
H384 H 0.72986 0.43006 0.91179 0.0
H385 H 0.72095 0.40613 0.84892 0.0
O386 O 0.78231 0.35391 0.96432 0.0
C387 C 0.82449 0.36527 0.90266 0.0
C388 C 0.74638 0.38363 0.86335 0.0
C389 C 0.7392 0.41561 0.90584 0.0
N390 N 0.76816 0.39198 0.92627 0.0
C391 C 0.76342 0.37878 0.89166 0.0
C392 C 0.75637 0.41026 0.93344 0.0
C393 C 0.7342 0.40217 0.87059 0.0
C394 C 0.86186 0.38444 0.0294 0.0
N395 N 0.85947 0.36901 0.99774 0.0
C396 C 0.88008 0.39765 0.03008 0.0
C397 C 0.89592 0.39496 0.99808 0.0
C398 C 0.89339 0.37915 0.96594 0.0
C399 C 0.87494 0.36627 0.96626 0.0
C400 C 0.88022 0.30321 0.01646 0.0
C401 C 0.84522 0.31012 0.96182 0.0
C402 C 0.86793 0.32201 0.0196 0.0
N403 N 0.85075 0.32532 0.99229 0.0
C404 C 0.85714 0.29113 0.95774 0.0
C405 C 0.87476 0.2877 0.98527 0.0
C406 C 0.78854 0.336 0.98072 0.0
C407 C 0.77088 0.40516 0.08844 0.0
C408 C 0.75448 0.38107 0.0196 0.0
C409 C 0.74201 0.3842 0.05728 0.0
C410 C 0.75032 0.39631 0.09192 0.0
N411 N 0.77466 0.38976 0.01643 0.0
C412 C 0.78287 0.40172 0.05023 0.0
Co413 Co 0.65633 0.83125 0.99679 0.0
Co414 Co 0.62478 0.7895 0.96015 0.0
O415 O 0.6304 0.8135 0.00041 0.0
C416 C 0.65577 0.81799 0.08969 0.0
O417 O 0.65115 0.79839 0.07649 0.0
C418 C 0.58386 0.81508 0.96057 0.0
O419 O 0.59529 0.83266 0.95486 0.0
O420 O 0.62918 0.80867 0.90816 0.0
O421 O 0.65611 0.82992 0.9313 0.0
H422 H 0.63858 0.74267 0.82843 0.0
H423 H 0.61909 0.84669 0.04869 0.0
O424 O 0.65752 0.83326 0.06207 0.0
H425 H 0.63105 0.9024 0.93573 0.0
H426 H 0.70478 0.89269 0.0406 0.0
H427 H 0.69651 0.82928 0.94434 0.0
H428 H 0.65464 0.87049 0.9398 0.0
H429 H 0.67179 0.87058 0.0436 0.0
O430 O 0.59314 0.79674 0.96144 0.0
H431 H 0.64598 0.77237 0.88015 0.0
H432 H 0.59026 0.75618 0.95415 0.0
H433 H 0.7297 0.85105 0.93995 0.0
H434 H 0.59521 0.87848 0.04613 0.0
H435 H 0.73398 0.88301 0.98834 0.0
H436 H 0.60109 0.90657 0.98923 0.0
O437 O 0.67465 0.80504 -0.00026 0.0
H438 H 0.595 0.76998 0.10855 0.0
H439 H 0.641 0.74595 0.98578 0.0
H440 H 0.6366 0.72254 0.05061 0.0
H441 H 0.61342 0.73449 0.11255 0.0
H442 H 0.60004 0.79302 0.04334 0.0
H443 H 0.58216 0.7264 0.90306 0.0
H444 H 0.60647 0.71944 0.83975 0.0
O445 O 0.65622 0.7811 0.95908 0.0
C446 C 0.64404 0.82247 0.90104 0.0
C447 C 0.6279 0.7455 0.85596 0.0
C448 C 0.59622 0.73639 0.89782 0.0
N449 N 0.61865 0.76591 0.92027 0.0
C450 C 0.63204 0.76226 0.88542 0.0
C451 C 0.60086 0.75331 0.92658 0.0
C452 C 0.60987 0.73249 0.86231 0.0
C453 C 0.62185 0.85895 0.02409 0.0
N454 N 0.63824 0.85674 0.99444 0.0
C455 C 0.60824 0.87687 0.02269 0.0
C456 C 0.61152 0.89261 0.99071 0.0
C457 C 0.62831 0.89026 0.96065 0.0
C458 C 0.64157 0.87211 0.963 0.0
C459 C 0.70309 0.87883 0.01928 0.0
C460 C 0.69821 0.84324 0.9653 0.0
C461 C 0.68446 0.86623 0.0209 0.0
N462 N 0.68217 0.84876 0.99392 0.0
C463 C 0.71706 0.85547 0.96276 0.0
C464 C 0.71946 0.87339 0.98995 0.0
C465 C 0.67303 0.78694 0.98025 0.0
C466 C 0.60509 0.76456 0.08171 0.0
C467 C 0.63096 0.75133 0.01266 0.0
C468 C 0.62848 0.73796 0.04924 0.0
C469 C 0.61546 0.74467 0.08397 0.0
N470 N 0.62072 0.77082 0.01066 0.0
C471 C 0.60793 0.7775 0.04459 0.0
Co472 Co 0.6775 0.84947 0.49657 0.0
Co473 Co 0.71633 0.88478 0.53355 0.0
O474 O 0.69293 0.877 0.49283 0.0
C475 C 0.69034 0.85129 0.40331 0.0
O476 O 0.70946 0.85787 0.41595 0.0
C477 C 0.68921 0.92487 0.52153 0.0
O478 O 0.67294 0.91295 0.50899 0.0
O479 O 0.69733 0.87885 0.5851 0.0
O480 O 0.67893 0.84988 0.56207 0.0
H481 H 0.76339 0.87429 0.66615 0.0
H482 H 0.65748 0.88371 0.44224 0.0
O483 O 0.67553 0.84795 0.43133 0.0
H484 H 0.60442 0.86781 0.5584 0.0
H485 H 0.62084 0.79533 0.4536 0.0
H486 H 0.68338 0.80972 0.54915 0.0
H487 H 0.63889 0.84819 0.55533 0.0
H488 H 0.6397 0.83027 0.45019 0.0
O489 O 0.70688 0.91614 0.53362 0.0
H490 H 0.73461 0.86479 0.61371 0.0
H491 H 0.74702 0.92172 0.54044 0.0
H492 H 0.66488 0.77462 0.5539 0.0
H493 H 0.62297 0.90341 0.4435 0.0
H494 H 0.63337 0.76724 0.50588 0.0
H495 H 0.59621 0.8956 0.50208 0.0
O496 O 0.70518 0.83371 0.49338 0.0
H497 H 0.73388 0.91552 0.38481 0.0
H498 H 0.76129 0.87252 0.5091 0.0
H499 H 0.7846 0.87879 0.44478 0.0
H500 H 0.77095 0.90049 0.38209 0.0
H501 H 0.71101 0.90863 0.44947 0.0
H502 H 0.77582 0.93191 0.59226 0.0
H503 H 0.78422 0.90807 0.65557 0.0
O504 O 0.72733 0.85405 0.53439 0.0
C505 C 0.685 0.86276 0.59225 0.0
C506 C 0.75992 0.88478 0.63862 0.0
C507 C 0.76688 0.91713 0.59718 0.0
N508 N 0.73923 0.8926 0.57391 0.0
C509 C 0.74369 0.87946 0.60876 0.0
C510 C 0.75051 0.9113 0.56801 0.0
C511 C 0.77159 0.90375 0.63269 0.0
C512 C 0.64584 0.88007 0.46759 0.0
N513 N 0.65032 0.86495 0.49891 0.0
C514 C 0.62636 0.89135 0.46825 0.0
C515 C 0.61137 0.88699 0.50117 0.0
C516 C 0.61599 0.87144 0.53284 0.0
C517 C 0.63564 0.86049 0.53114 0.0
C518 C 0.63452 0.79836 0.47477 0.0
C519 C 0.66959 0.80667 0.52834 0.0
C520 C 0.64529 0.81811 0.47293 0.0
N521 N 0.66251 0.82209 0.49971 0.0
C522 C 0.65922 0.78675 0.53109 0.0
C523 C 0.64156 0.78262 0.50411 0.0
C524 C 0.723 0.83683 0.51302 0.0
C525 C 0.74005 0.90614 0.41204 0.0
C526 C 0.75519 0.88196 0.48195 0.0
C527 C 0.76849 0.88548 0.44563 0.0
C528 C 0.76083 0.89767 0.41048 0.0
N529 N 0.73484 0.8904 0.48334 0.0
C530 C 0.72721 0.9023 0.44891 0.0
Co531 Co 0.16006 0.67702 0.4997 0.0
Co532 Co 0.12628 0.71818 0.53272 0.0
O533 O 0.13358 0.69404 0.49388 0.0
C534 C 0.16115 0.69109 0.40719 0.0
O535 O 0.1555 0.7104 0.42055 0.0
C536 C 0.0858 0.69134 0.53002 0.0
O537 O 0.09732 0.67363 0.53255 0.0
O538 O 0.13125 0.69989 0.58607 0.0
O539 O 0.15792 0.67775 0.56487 0.0
H540 H 0.13709 0.76713 0.66232 0.0
H541 H 0.12491 0.66104 0.44257 0.0
O542 O 0.1631 0.67573 0.43454 0.0
H543 H 0.13495 0.60475 0.55512 0.0
H544 H 0.21126 0.61729 0.45894 0.0
H545 H 0.19863 0.67933 0.55695 0.0
H546 H 0.15765 0.63735 0.55518 0.0
H547 H 0.17784 0.63862 0.45306 0.0
O548 O 0.09498 0.7097 0.53144 0.0
H549 H 0.14612 0.73718 0.61225 0.0
H550 H 0.09025 0.75012 0.53611 0.0
H551 H 0.2322 0.65833 0.56421 0.0
H552 H 0.10199 0.62857 0.44097 0.0
H553 H 0.23868 0.62706 0.51496 0.0
H554 H 0.10691 0.60018 0.49764 0.0
O555 O 0.17803 0.7036 0.50029 0.0
H556 H 0.0971 0.73341 0.3818 0.0
H557 H 0.13925 0.76262 0.50546 0.0
H558 H 0.13407 0.7847 0.43897 0.0
H559 H 0.11281 0.77013 0.37654 0.0
H560 H 0.10295 0.71177 0.44869 0.0
H561 H 0.0805 0.78007 0.58555 0.0
H562 H 0.10406 0.7888 0.6491 0.0
O563 O 0.1571 0.72814 0.5337 0.0
C564 C 0.14569 0.68574 0.59427 0.0
C565 C 0.12672 0.76351 0.63469 0.0
C566 C 0.09495 0.77076 0.59164 0.0
N567 N 0.11879 0.74197 0.57119 0.0
C568 C 0.13178 0.74661 0.60617 0.0
C569 C 0.10051 0.75373 0.56384 0.0
C570 C 0.10818 0.77565 0.62727 0.0
C571 C 0.12727 0.64866 0.46709 0.0
N572 N 0.14261 0.65108 0.49889 0.0
C573 C 0.11419 0.63036 0.46612 0.0
C574 C 0.11693 0.61445 0.49798 0.0
C575 C 0.13265 0.61702 0.53026 0.0
C576 C 0.1454 0.63555 0.53024 0.0
C577 C 0.2086 0.63085 0.48065 0.0
C578 C 0.20128 0.66566 0.53559 0.0
C579 C 0.18973 0.64302 0.47742 0.0
N580 N 0.18622 0.6601 0.50487 0.0
C581 C 0.22035 0.65387 0.53977 0.0
C582 C 0.22398 0.63634 0.5121 0.0
C583 C 0.17508 0.72216 0.51724 0.0
C584 C 0.10639 0.73995 0.40879 0.0
C585 C 0.13018 0.75608 0.47832 0.0
C586 C 0.12719 0.76871 0.44082 0.0
C587 C 0.11523 0.76053 0.40583 0.0
N588 N 0.1215 0.73588 0.48097 0.0
C589 C 0.10969 0.7278 0.44684 0.0
Co590 Co 0.3331 0.15842 0.50044 0.0
Co591 Co 0.29203 0.12459 0.53374 0.0
O592 O 0.31619 0.13188 0.49493 0.0
C593 C 0.319 0.15925 0.40792 0.0
O594 O 0.29975 0.15343 0.42125 0.0
C595 C 0.31919 0.08424 0.5317 0.0
O596 O 0.33683 0.09585 0.53362 0.0
O597 O 0.31011 0.12997 0.58726 0.0
O598 O 0.33245 0.15636 0.56557 0.0
H599 H 0.2426 0.13574 0.66249 0.0
H600 H 0.34907 0.12318 0.44347 0.0
O601 O 0.33432 0.16138 0.43529 0.0
H602 H 0.40559 0.13364 0.55534 0.0
H603 H 0.39259 0.20975 0.45917 0.0
H604 H 0.33073 0.19705 0.55757 0.0
H605 H 0.37292 0.15626 0.55551 0.0
H606 H 0.37136 0.17627 0.4535 0.0
O607 O 0.30078 0.09334 0.53323 0.0
H608 H 0.27263 0.14472 0.61262 0.0
H609 H 0.26038 0.08835 0.53753 0.0
H610 H 0.35163 0.23068 0.56462 0.0
H611 H 0.38162 0.10035 0.44173 0.0
H612 H 0.38281 0.23719 0.51517 0.0
H613 H 0.41012 0.10547 0.49807 0.0
O614 O 0.30645 0.17635 0.50104 0.0
H615 H 0.27743 0.09454 0.38327 0.0
H616 H 0.24759 0.13714 0.50572 0.0
H617 H 0.22573 0.13149 0.4391 0.0
H618 H 0.24062 0.10999 0.37727 0.0
H619 H 0.29884 0.10086 0.45027 0.0
H620 H 0.23036 0.07865 0.58679 0.0
H621 H 0.22124 0.10248 0.64971 0.0
O622 O 0.28183 0.15534 0.53397 0.0
C623 C 0.32434 0.14436 0.5952 0.0
C624 C 0.24639 0.12525 0.63514 0.0
C625 C 0.23954 0.09319 0.5927 0.0
N626 N 0.2682 0.11713 0.57211 0.0
C627 C 0.26334 0.13028 0.60674 0.0
C628 C 0.25661 0.09872 0.565 0.0
C629 C 0.23443 0.10658 0.62797 0.0
C630 C 0.3615 0.12563 0.46785 0.0
N631 N 0.35909 0.14104 0.49956 0.0
C632 C 0.37985 0.1126 0.4668 0.0
C633 C 0.39582 0.11545 0.49847 0.0
C634 C 0.39327 0.13124 0.53065 0.0
C635 C 0.37469 0.14394 0.5307 0.0
C636 C 0.37907 0.20708 0.48096 0.0
C637 C 0.34436 0.19972 0.53611 0.0
C638 C 0.36696 0.18817 0.47784 0.0
N639 N 0.34992 0.18464 0.5054 0.0
C640 C 0.3561 0.21881 0.54018 0.0
C641 C 0.37357 0.22247 0.51239 0.0
C642 C 0.28782 0.17334 0.51764 0.0
C643 C 0.27075 0.10392 0.41 0.0
C644 C 0.25426 0.12796 0.47885 0.0
C645 C 0.24176 0.12471 0.44127 0.0
C646 C 0.25011 0.11262 0.40662 0.0
N647 N 0.27451 0.11942 0.48191 0.0
C648 C 0.28277 0.10749 0.44811 0.0
Co649 Co 0.85137 0.333 0.4991 0.0
Co650 Co 0.88494 0.29175 0.5325 0.0
O651 O 0.87789 0.31602 0.49378 0.0
C652 C 0.85079 0.31924 0.40634 0.0
O653 O 0.85643 0.29989 0.41948 0.0
C654 C 0.92548 0.31862 0.53079 0.0
O655 O 0.91399 0.33637 0.53244 0.0
O656 O 0.87954 0.30984 0.586 0.0
O657 O 0.85306 0.33208 0.5643 0.0
H658 H 0.87327 0.24237 0.6611 0.0
H659 H 0.88682 0.34923 0.44301 0.0
O660 O 0.84873 0.33451 0.43389 0.0
H661 H 0.87605 0.40511 0.55616 0.0
H662 H 0.8004 0.39285 0.45785 0.0
H663 H 0.8124 0.33044 0.55519 0.0
H664 H 0.85341 0.37248 0.55524 0.0
H665 H 0.83388 0.37157 0.45258 0.0
O666 O 0.91624 0.30028 0.53235 0.0
H667 H 0.86455 0.27246 0.61117 0.0
H668 H 0.92098 0.25983 0.53649 0.0
H669 H 0.77876 0.35138 0.56182 0.0
H670 H 0.90967 0.38176 0.44237 0.0
H671 H 0.7726 0.38284 0.51291 0.0
H672 H 0.9044 0.40994 0.49936 0.0
O673 O 0.83345 0.3064 0.49883 0.0
H674 H 0.91529 0.27708 0.38228 0.0
H675 H 0.87225 0.24739 0.50419 0.0
H676 H 0.87797 0.22554 0.43757 0.0
H677 H 0.89969 0.24035 0.37601 0.0
H678 H 0.90889 0.29849 0.44928 0.0
H679 H 0.93041 0.22974 0.58581 0.0
H680 H 0.90642 0.22078 0.64855 0.0
O681 O 0.85414 0.2817 0.53236 0.0
C682 C 0.86505 0.32398 0.59396 0.0
C683 C 0.88383 0.24608 0.63382 0.0
C684 C 0.91592 0.23902 0.59161 0.0
N685 N 0.89218 0.26784 0.57085 0.0
C686 C 0.87895 0.26307 0.60539 0.0
C687 C 0.91053 0.25613 0.56387 0.0
C688 C 0.90244 0.23399 0.62678 0.0
C689 C 0.8843 0.36153 0.46765 0.0
N690 N 0.86879 0.35896 0.49909 0.0
C691 C 0.89734 0.37986 0.46724 0.0
C692 C 0.8944 0.39565 0.49926 0.0
C693 C 0.87852 0.39294 0.53118 0.0
C694 C 0.8658 0.37438 0.5306 0.0
C695 C 0.80292 0.3792 0.47941 0.0
C696 C 0.80988 0.34419 0.53397 0.0
C697 C 0.82183 0.36707 0.47652 0.0
N698 N 0.82516 0.34988 0.50379 0.0
C699 C 0.79078 0.35595 0.5378 0.0
C700 C 0.78733 0.37358 0.51032 0.0
C701 C 0.83628 0.28775 0.51545 0.0
C702 C 0.90581 0.27043 0.40889 0.0
C703 C 0.88152 0.25403 0.47744 0.0
C704 C 0.88482 0.24154 0.43985 0.0
C705 C 0.89703 0.24984 0.40536 0.0
N706 N 0.89015 0.27423 0.48065 0.0
C707 C 0.9022 0.28245 0.447 0.0
Co708 Co 0.67565 0.16217 0.49926 0.0
Co709 Co 0.71466 0.12533 0.46668 0.0
O710 O 0.69107 0.13466 0.50549 0.0
C711 C 0.69076 0.16294 0.59124 0.0
O712 O 0.70944 0.15576 0.57726 0.0
C713 C 0.687 0.08569 0.4827 0.0
O714 O 0.67235 0.09751 0.50218 0.0
O715 O 0.69705 0.13206 0.41315 0.0
O716 O 0.67557 0.1593 0.43419 0.0
H717 H 0.76483 0.13332 0.33815 0.0
H718 H 0.65715 0.13003 0.56079 0.0
O719 O 0.67536 0.166 0.56439 0.0
H720 H 0.60141 0.14129 0.44763 0.0
H721 H 0.61986 0.21761 0.54017 0.0
H722 H 0.67978 0.19987 0.44 0.0
H723 H 0.63577 0.1611 0.44432 0.0
H724 H 0.63907 0.18296 0.54679 0.0
O725 O 0.70367 0.09444 0.46573 0.0
H726 H 0.73562 0.14435 0.38838 0.0
H727 H 0.74332 0.08661 0.46172 0.0
H728 H 0.6609 0.23464 0.43201 0.0
H729 H 0.62283 0.11018 0.56585 0.0
H730 H 0.6307 0.2437 0.48234 0.0
H731 H 0.59471 0.11566 0.50883 0.0
O732 O 0.70322 0.17834 0.49662 0.0
H733 H 0.72761 0.09616 0.61906 0.0
H734 H 0.76022 0.13358 0.49267 0.0
H735 H 0.78217 0.12657 0.55854 0.0
H736 H 0.76591 0.10762 0.62234 0.0
H737 H 0.70619 0.10382 0.55298 0.0
H738 H 0.77245 0.07487 0.41206 0.0
H739 H 0.78345 0.09835 0.34986 0.0
O740 O 0.72711 0.15534 0.467 0.0
C741 C 0.68331 0.14687 0.40486 0.0
C742 C 0.76022 0.12298 0.36522 0.0
C743 C 0.76447 0.09016 0.40665 0.0
N744 N 0.73786 0.11622 0.4281 0.0
C745 C 0.74374 0.12917 0.39383 0.0
C746 C 0.74791 0.09686 0.43458 0.0
C747 C 0.77065 0.10334 0.37177 0.0
C748 C 0.64492 0.13266 0.53607 0.0
N749 N 0.64856 0.1466 0.50213 0.0
C750 C 0.62555 0.1213 0.53901 0.0
C751 C 0.6098 0.12435 0.50697 0.0
C752 C 0.61357 0.13869 0.47257 0.0
C753 C 0.63314 0.14976 0.47069 0.0
C754 C 0.63296 0.21383 0.51799 0.0
C755 C 0.66657 0.20364 0.46185 0.0
C756 C 0.64392 0.19425 0.52162 0.0
N757 N 0.66042 0.18933 0.49358 0.0
C758 C 0.65598 0.22338 0.45725 0.0
C759 C 0.63905 0.22846 0.48552 0.0
C760 C 0.72185 0.17397 0.48145 0.0
C761 C 0.73493 0.10429 0.59135 0.0
C762 C 0.75297 0.12539 0.52025 0.0
C763 C 0.76552 0.12141 0.55748 0.0
C764 C 0.7564 0.11077 0.59323 0.0
N765 N 0.73195 0.11888 0.51845 0.0
C766 C 0.72289 0.10853 0.55355 0.0
Co767 Co 0.853 0.67882 0.49803 0.0
Co768 Co 0.88554 0.71964 0.46142 0.0
O769 O 0.87956 0.69568 0.5016 0.0
C770 C 0.85486 0.69074 0.59184 0.0
O771 O 0.86003 0.71037 0.57967 0.0
C772 C 0.92652 0.69389 0.46267 0.0
O773 O 0.91521 0.67616 0.45802 0.0
O774 O 0.88099 0.70041 0.40963 0.0
O775 O 0.85272 0.68091 0.43242 0.0
H776 H 0.87253 0.76633 0.32917 0.0
H777 H 0.89006 0.6614 0.5478 0.0
O778 O 0.85226 0.67599 0.56332 0.0
H779 H 0.87512 0.60754 0.4326 0.0
H780 H 0.80275 0.6186 0.54047 0.0
H781 H 0.81248 0.68287 0.44722 0.0
H782 H 0.85281 0.64027 0.43899 0.0
H783 H 0.83653 0.63947 0.54337 0.0
O784 O 0.91711 0.71217 0.46281 0.0
H785 H 0.86472 0.73681 0.38107 0.0
H786 H 0.92034 0.75271 0.4556 0.0
H787 H 0.7785 0.66236 0.44297 0.0
H788 H 0.91266 0.62875 0.54293 0.0
H789 H 0.77347 0.62997 0.48984 0.0
H790 H 0.90528 0.60159 0.48489 0.0
O791 O 0.83568 0.70563 0.50301 0.0
H792 H 0.91535 0.73896 0.60986 0.0
H793 H 0.86981 0.76344 0.48679 0.0
H794 H 0.87441 0.78686 0.55154 0.0
H795 H 0.89737 0.77468 0.61364 0.0
H796 H 0.91009 0.71591 0.54474 0.0
H797 H 0.92884 0.7823 0.40435 0.0
H798 H 0.9048 0.78932 0.34067 0.0
O799 O 0.85421 0.72845 0.46005 0.0
C800 C 0.86534 0.68755 0.40225 0.0
C801 C 0.8831 0.76347 0.35686 0.0
C802 C 0.91472 0.77242 0.39902 0.0
N803 N 0.89198 0.74312 0.42146 0.0
C804 C 0.87873 0.74681 0.38641 0.0
C805 C 0.90985 0.7556 0.42787 0.0
C806 C 0.90122 0.77635 0.36331 0.0
C807 C 0.88665 0.64955 0.5227 0.0
N808 N 0.87014 0.65274 0.49372 0.0
C809 C 0.89954 0.63114 0.52 0.0
C810 C 0.89541 0.61593 0.48739 0.0
C811 C 0.87851 0.61927 0.458 0.0
C812 C 0.86598 0.63788 0.46166 0.0
C813 C 0.80476 0.63266 0.51982 0.0
C814 C 0.81046 0.66872 0.46751 0.0
C815 C 0.82384 0.64456 0.52138 0.0
N816 N 0.82653 0.66227 0.49523 0.0
C817 C 0.79116 0.6572 0.46506 0.0
C818 C 0.78835 0.63904 0.4914 0.0
C819 C 0.8376 0.72348 0.48271 0.0
C820 C 0.90536 0.74447 0.58296 0.0
C821 C 0.87974 0.75796 0.51374 0.0
C822 C 0.88234 0.77133 0.55028 0.0
C823 C 0.89524 0.7645 0.58509 0.0
N824 N 0.88973 0.73833 0.51188 0.0
C825 C 0.9024 0.73153 0.54589 0.0
Co826 Co 0.33458 0.85089 0.49817 0.0
Co827 Co 0.2932 0.88444 0.46509 0.0
O828 O 0.31746 0.8773 0.50364 0.0
C829 C 0.32002 0.85 0.5903 0.0
O830 O 0.30084 0.85563 0.57621 0.0
C831 C 0.32035 0.92473 0.46606 0.0
O832 O 0.33793 0.91305 0.46309 0.0
O833 O 0.31117 0.87898 0.41146 0.0
O834 O 0.33404 0.85297 0.43296 0.0
H835 H 0.24353 0.87298 0.3369 0.0
H836 H 0.3502 0.88617 0.55542 0.0
O837 O 0.33559 0.84792 0.56344 0.0
H838 H 0.40684 0.87635 0.44351 0.0
H839 H 0.39436 0.79999 0.54011 0.0
H840 H 0.33271 0.81226 0.44096 0.0
H841 H 0.37438 0.85345 0.44317 0.0
H842 H 0.37284 0.83332 0.54553 0.0
O843 O 0.3019 0.91569 0.46534 0.0
H844 H 0.27366 0.86411 0.38661 0.0
H845 H 0.26152 0.92069 0.4612 0.0
H846 H 0.3539 0.77877 0.43417 0.0
H847 H 0.38252 0.90929 0.55728 0.0
H848 H 0.38497 0.77248 0.48399 0.0
H849 H 0.41108 0.90449 0.50093 0.0
O850 O 0.30812 0.83276 0.49721 0.0
H851 H 0.2789 0.91471 0.61553 0.0
H852 H 0.2488 0.87203 0.49354 0.0
H853 H 0.22708 0.87777 0.56033 0.0
H854 H 0.24211 0.89931 0.62194 0.0
H855 H 0.30017 0.90829 0.54836 0.0
H856 H 0.23139 0.93026 0.4121 0.0
H857 H 0.22217 0.90627 0.34952 0.0
O858 O 0.28309 0.85366 0.46525 0.0
C859 C 0.32561 0.8648 0.40338 0.0
C860 C 0.24736 0.88353 0.36412 0.0
C861 C 0.24057 0.9157 0.40628 0.0
N862 N 0.26928 0.89181 0.42689 0.0
C863 C 0.26437 0.87857 0.39243 0.0
C864 C 0.2577 0.91023 0.43389 0.0
C865 C 0.23539 0.90223 0.37119 0.0
C866 C 0.36266 0.88386 0.53104 0.0
N867 N 0.36042 0.86846 0.49928 0.0
C868 C 0.38088 0.89705 0.53215 0.0
C869 C 0.39688 0.89437 0.50048 0.0
C870 C 0.3945 0.8786 0.46823 0.0
C871 C 0.37605 0.86573 0.46811 0.0
C872 C 0.38088 0.80257 0.51815 0.0
C873 C 0.34629 0.80968 0.46257 0.0
C874 C 0.36862 0.82139 0.52111 0.0
N875 N 0.35164 0.8248 0.49334 0.0
C876 C 0.35819 0.79067 0.45865 0.0
C877 C 0.37561 0.78714 0.48665 0.0
C878 C 0.28938 0.83565 0.4811 0.0
C879 C 0.27217 0.90531 0.58891 0.0
C880 C 0.25554 0.88121 0.52032 0.0
C881 C 0.24311 0.88452 0.558 0.0
C882 C 0.25154 0.89663 0.59251 0.0
N883 N 0.27578 0.88971 0.51704 0.0
C884 C 0.28411 0.90168 0.55071 0.0
Co885 Co 0.15876 0.33284 0.4967 0.0
Co886 Co 0.12525 0.29124 0.46487 0.0
O887 O 0.13241 0.31572 0.50282 0.0
C888 C 0.1597 0.31918 0.58948 0.0
O889 O 0.15408 0.29983 0.57636 0.0
C890 C 0.08498 0.31839 0.46528 0.0
O891 O 0.09668 0.3359 0.46136 0.0
O892 O 0.13052 0.30891 0.41075 0.0
O893 O 0.1566 0.33181 0.43155 0.0
H894 H 0.13655 0.24083 0.33776 0.0
H895 H 0.12342 0.34878 0.55345 0.0
O896 O 0.16179 0.33442 0.56187 0.0
H897 H 0.13318 0.40474 0.44013 0.0
H898 H 0.2096 0.39299 0.53641 0.0
H899 H 0.19732 0.33053 0.43937 0.0
H900 H 0.15615 0.37232 0.4407 0.0
H901 H 0.17632 0.3715 0.5427 0.0
O902 O 0.09398 0.29991 0.46526 0.0
H903 H 0.14545 0.27126 0.38668 0.0
H904 H 0.08906 0.2595 0.46205 0.0
H905 H 0.23076 0.35169 0.43171 0.0
H906 H 0.10022 0.38108 0.55442 0.0
H907 H 0.23706 0.38317 0.48047 0.0
H908 H 0.10499 0.4093 0.49736 0.0
O909 O 0.17693 0.30636 0.49651 0.0
H910 H 0.09535 0.27769 0.61589 0.0
H911 H 0.1379 0.24703 0.49422 0.0
H912 H 0.13238 0.22566 0.56156 0.0
H913 H 0.11091 0.24097 0.623 0.0
H914 H 0.10155 0.29861 0.54819 0.0
H915 H 0.07945 0.22906 0.41375 0.0
H916 H 0.10333 0.2195 0.35118 0.0
O917 O 0.15606 0.28118 0.46495 0.0
C918 C 0.14468 0.32328 0.40225 0.0
C919 C 0.12604 0.2448 0.36498 0.0
C920 C 0.09398 0.23822 0.40758 0.0
N921 N 0.11786 0.26708 0.4273 0.0
C922 C 0.13103 0.26198 0.39284 0.0
C923 C 0.09947 0.25552 0.43474 0.0
C924 C 0.10739 0.23286 0.3725 0.0
C925 C 0.12572 0.36109 0.52876 0.0
N926 N 0.14114 0.35867 0.49709 0.0
C927 C 0.11248 0.3793 0.52937 0.0
C928 C 0.11514 0.39511 0.4973 0.0
C929 C 0.13094 0.39255 0.46516 0.0
C930 C 0.14385 0.37411 0.46554 0.0
C931 C 0.20702 0.37934 0.51491 0.0
C932 C 0.1999 0.34429 0.46052 0.0
C933 C 0.18823 0.36708 0.51838 0.0
N934 N 0.18482 0.34988 0.49119 0.0
C935 C 0.21888 0.35617 0.45611 0.0
C936 C 0.22242 0.37382 0.48351 0.0
C937 C 0.17406 0.28754 0.48072 0.0
C938 C 0.10472 0.27084 0.58935 0.0
C939 C 0.12875 0.25389 0.52093 0.0
C940 C 0.12556 0.24166 0.55891 0.0
C941 C 0.11348 0.25025 0.59334 0.0
N942 N 0.12016 0.27409 0.51727 0.0
C943 C 0.10823 0.28258 0.55084 0.0
H944 H 0.15486 0.55839 0.98011 0.0
H945 H 0.22663 0.45258 0.0218 0.0
H946 H 0.22429 0.55626 0.97285 0.0
H947 H 0.1571 0.45132 0.0245 0.0
H948 H 0.22544 0.49088 0.00505 0.0
H949 H 0.15468 0.51958 0.9966 0.0
C950 C 0.17004 0.5498 0.98168 0.0
C951 C 0.18962 0.56072 0.97499 0.0
C952 C 0.21039 0.48232 0.00935 0.0
C953 C 0.18952 0.51633 0.99421 0.0
C954 C 0.21105 0.46035 0.01908 0.0
C955 C 0.19193 0.44857 0.02471 0.0
C956 C 0.19045 0.49286 0.00509 0.0
C957 C 0.17227 0.45971 0.02058 0.0
C958 C 0.16992 0.52765 0.99124 0.0
C959 C 0.20877 0.54869 0.97771 0.0
N960 N 0.17203 0.48121 0.011 0.0
N961 N 0.20822 0.52729 0.98714 0.0
H962 H 0.4523 0.22721 0.97438 0.0
H963 H 0.55852 0.15654 0.01931 0.0
H964 H 0.45152 0.15764 0.97454 0.0
H965 H 0.55596 0.22602 0.02389 0.0
H966 H 0.51975 0.15597 0.0026 0.0
H967 H 0.4906 0.22645 0.99122 0.0
C968 C 0.46018 0.21171 0.97775 0.0
C969 C 0.44853 0.19245 0.97289 0.0
C970 C 0.52772 0.17131 0.00742 0.0
C971 C 0.49282 0.19147 0.99263 0.0
C972 C 0.54985 0.17165 0.0171 0.0
C973 C 0.56063 0.19136 0.02313 0.0
C974 C 0.51628 0.19081 0.00364 0.0
C975 C 0.54849 0.21041 0.01959 0.0
C976 C 0.48214 0.2113 0.98753 0.0
C977 C 0.4598 0.17291 0.97783 0.0
N978 N 0.52711 0.20964 0.01005 0.0
N979 N 0.48129 0.17292 0.98746 0.0
H980 H 0.8543 0.45152 0.9802 0.0
H981 H 0.78217 0.55713 0.02166 0.0
H982 H 0.78492 0.45351 0.97131 0.0
H983 H 0.85167 0.5583 0.0267 0.0
H984 H 0.78346 0.51889 0.00424 0.0
H985 H 0.8543 0.49026 0.99726 0.0
C986 C 0.83909 0.46007 0.98151 0.0
C987 C 0.81958 0.44913 0.97421 0.0
C988 C 0.79848 0.52742 0.00921 0.0
C989 C 0.81946 0.49345 0.99412 0.0
C990 C 0.79776 0.54935 0.01933 0.0
C991 C 0.81685 0.56108 0.02582 0.0
C992 C 0.81845 0.51688 0.00541 0.0
C993 C 0.83653 0.54994 0.02214 0.0
C994 C 0.83911 0.48218 0.99141 0.0
C995 C 0.80039 0.46111 0.97664 0.0
N996 N 0.83682 0.52849 0.01215 0.0
N997 N 0.80084 0.48248 0.98643 0.0
H998 H 0.558 0.85123 0.9666 0.0
H999 H 0.45248 0.7828 0.028 0.0
H1000 H 0.55584 0.78183 0.97556 0.0
H1001 H 0.45129 0.85198 0.01345 0.0
H1002 H 0.49072 0.78286 0.01091 0.0
H1003 H 0.51943 0.85248 0.98466 0.0
C1004 C 0.54944 0.83626 0.97209 0.0
C1005 C 0.56027 0.81638 0.96938 0.0
C1006 C 0.4822 0.79808 0.01151 0.0
C1007 C 0.51613 0.81774 0.99046 0.0
C1008 C 0.46025 0.79808 0.02142 0.0
C1009 C 0.44849 0.81743 0.02221 0.0
C1010 C 0.49274 0.81758 0.00216 0.0
C1011 C 0.45966 0.83668 0.01336 0.0
C1012 C 0.52742 0.837 0.98253 0.0
C1013 C 0.54829 0.79755 0.97712 0.0
N1014 N 0.48114 0.83626 0.00361 0.0
N1015 N 0.527 0.79872 0.98731 0.0
H1016 H 0.67361 0.06278 0.55399 0.0
H1017 H 0.67153 0.94714 0.45328 0.0
H1018 H 0.69913 0.0546 0.42324 0.0
H1019 H 0.70476 0.95639 0.57624 0.0
H1020 H 0.67112 0.98647 0.4424 0.0
H1021 H 0.67442 0.02346 0.56397 0.0
C1022 C 0.6791 0.05269 0.52717 0.0
C1023 C 0.6862 0.06192 0.48759 0.0
C1024 C 0.6784 0.97981 0.47178 0.0
C1025 C 0.68678 0.01709 0.49867 0.0
C1026 C 0.67852 0.95748 0.47819 0.0
C1027 C 0.68811 0.94857 0.51584 0.0
C1028 C 0.68726 0.99334 0.50394 0.0
C1029 C 0.69719 0.96265 0.54683 0.0
C1030 C 0.6797 0.03034 0.53307 0.0
C1031 C 0.69347 0.0481 0.45417 0.0
N1032 N 0.69627 0.9844 0.54054 0.0
N1033 N 0.69331 0.02631 0.46022 0.0
H1034 H 0.95426 0.72765 0.47382 0.0
H1035 H 0.05977 0.65569 0.51687 0.0
H1036 H 0.95281 0.65811 0.4713 0.0
H1037 H 0.05769 0.72514 0.52419 0.0
H1038 H 0.02103 0.65556 0.49983 0.0
H1039 H 0.9925 0.72638 0.49091 0.0
C1040 C 0.96198 0.71205 0.47664 0.0
C1041 C 0.95016 0.69295 0.47097 0.0
C1042 C 0.02909 0.67079 0.50533 0.0
C1043 C 0.99439 0.69137 0.49101 0.0
C1044 C 0.05121 0.67088 0.5152 0.0
C1045 C 0.06212 0.69045 0.52206 0.0
C1046 C 0.01781 0.69041 0.50221 0.0
C1047 C 0.05012 0.70962 0.5192 0.0
C1048 C 0.98391 0.71134 0.48657 0.0
C1049 C 0.96123 0.67326 0.47523 0.0
N1050 N 0.02876 0.70909 0.50946 0.0
N1051 N 0.9827 0.67297 0.48503 0.0
H1052 H 0.28553 0.05598 0.52734 0.0
H1053 H 0.35635 0.95067 0.47578 0.0
H1054 H 0.3549 0.05824 0.51812 0.0
H1055 H 0.28683 0.95295 0.47509 0.0
H1056 H 0.35698 0.98946 0.49267 0.0
H1057 H 0.28655 0.01772 0.51087 0.0
C1058 C 0.30105 0.04844 0.52206 0.0
C1059 C 0.32017 0.06052 0.52418 0.0
C1060 C 0.34162 0.98142 0.48865 0.0
C1061 C 0.32143 0.01619 0.50484 0.0
C1062 C 0.34124 0.95928 0.47888 0.0
C1063 C 0.3215 0.94842 0.47389 0.0
C1064 C 0.32213 0.99275 0.49364 0.0
C1065 C 0.30246 0.96048 0.47855 0.0
C1066 C 0.30161 0.02647 0.51247 0.0
C1067 C 0.33975 0.04962 0.51695 0.0
N1068 N 0.30328 0.98184 0.48821 0.0
N1069 N 0.33989 0.02809 0.50754 0.0
H1070 H 0.05917 0.35458 0.4737 0.0
H1071 H 0.95355 0.28474 0.52746 0.0
H1072 H 0.05669 0.28506 0.47591 0.0
H1073 H 0.95171 0.35407 0.51659 0.0
H1074 H 0.99183 0.28539 0.51112 0.0
H1075 H 0.02041 0.35553 0.49068 0.0
C1076 C 0.05052 0.33953 0.47746 0.0
C1077 C 0.06132 0.3197 0.47324 0.0
C1078 C 0.98316 0.30053 0.51234 0.0
C1079 C 0.01701 0.32071 0.49308 0.0
C1080 C 0.96118 0.30018 0.52184 0.0
C1081 C 0.94922 0.31939 0.52345 0.0
C1082 C 0.99356 0.32024 0.50426 0.0
C1083 C 0.96024 0.33886 0.51582 0.0
C1084 C 0.0284 0.34011 0.48728 0.0
C1085 C 0.04921 0.30076 0.47874 0.0
N1086 N 0.98177 0.33879 0.50647 0.0
N1087 N 0.02786 0.30176 0.48841 0.0
H1088 H 0.25078 0.32193 0.07739 0.0
H1089 H 0.32147 0.25039 0.91965 0.0
H1090 H 0.2294 0.30957 0.94488 0.0
H1091 H 0.30973 0.2297 0.05285 0.0
H1092 H 0.29286 0.27761 0.92788 0.0
H1093 H 0.27793 0.29327 0.06915 0.0
C1094 C 0.25177 0.31315 0.04668 0.0
C1095 C 0.2377 0.31794 0.01192 0.0
C1096 C 0.29655 0.267 0.95512 0.0
C1097 C 0.269 0.2858 0.00193 0.0
C1098 C 0.31283 0.25155 0.95051 0.0
C1099 C 0.31778 0.23765 0.98548 0.0
C1100 C 0.28571 0.26903 0.99543 0.0
C1101 C 0.3062 0.23991 0.02491 0.0
C1102 C 0.26719 0.29683 0.04206 0.0
C1103 C 0.23975 0.30617 0.97268 0.0
N1104 N 0.29089 0.25549 0.02903 0.0
N1105 N 0.25529 0.29082 0.96852 0.0
H1106 H 0.79556 0.29356 0.00395 0.0
H1107 H 0.67202 0.26669 0.03559 0.0
H1108 H 0.74513 0.33724 0.96348 0.0
H1109 H 0.71613 0.21647 0.99585 0.0
H1110 H 0.70045 0.29323 0.02451 0.0
H1111 H 0.76829 0.26526 0.014 0.0
C1112 C 0.77884 0.29726 0.99712 0.0
C1113 C 0.77268 0.31803 0.9834 0.0
C1114 C 0.70387 0.27638 0.01826 0.0
C1115 C 0.7415 0.28585 0.99584 0.0
C1116 C 0.68764 0.26115 0.02461 0.0
C1117 C 0.69144 0.23924 0.01584 0.0
C1118 C 0.72433 0.26972 0.00414 0.0
C1119 C 0.71233 0.23318 0.00258 0.0
C1120 C 0.76333 0.28108 0.00286 0.0
C1121 C 0.75073 0.32171 0.97478 0.0
N1122 N 0.72803 0.24834 0.99726 0.0
N1123 N 0.73595 0.30592 0.98173 0.0
H1124 H 0.78042 0.69904 0.94217 0.0
H1125 H 0.69911 0.78086 0.05124 0.0
H1126 H 0.75853 0.68885 0.0751 0.0
H1127 H 0.68744 0.7573 0.92001 0.0
H1128 H 0.72744 0.75355 0.06022 0.0
H1129 H 0.75268 0.72697 0.933 0.0
C1130 C 0.76995 0.70288 0.96959 0.0
C1131 C 0.77181 0.69171 0.00955 0.0
C1132 C 0.71872 0.75449 0.02944 0.0
C1133 C 0.7404 0.72374 -0.00062 0.0
C1134 C 0.70271 0.77012 0.02413 0.0
C1135 C 0.69099 0.77138 0.98472 0.0
C1136 C 0.72349 0.74044 0.99468 0.0
C1137 C 0.69611 0.75686 0.95088 0.0
C1138 C 0.75408 0.71866 0.96418 0.0
C1139 C 0.75763 0.69711 0.0438 0.0
N1140 N 0.71216 0.74212 0.95643 0.0
N1141 N 0.74266 0.71293 0.03812 0.0
H1142 H 0.26451 0.67214 0.96137 0.0
H1143 H 0.29259 0.79524 0.99385 0.0
H1144 H 0.21482 0.71627 0.00371 0.0
H1145 H 0.33583 0.74434 0.03387 0.0
H1146 H 0.26396 0.76825 0.98424 0.0
H1147 H 0.29126 0.70037 0.97232 0.0
C1148 C 0.25913 0.68772 0.97291 0.0
C1149 C 0.23731 0.69159 0.98247 0.0
C1150 C 0.27976 0.76314 0.99519 0.0
C1151 C 0.26803 0.72424 0.99397 0.0
C1152 C 0.29612 0.77847 0.00068 0.0
C1153 C 0.31686 0.77209 0.01411 0.0
C1154 C 0.28432 0.74125 0.00217 0.0
C1155 C 0.32033 0.7501 0.02276 0.0
C1156 C 0.27448 0.70384 0.97917 0.0
C1157 C 0.23145 0.71243 0.99638 0.0
N1158 N 0.30436 0.73549 0.01603 0.0
N1159 N 0.24672 0.72802 0.00159 0.0
H1160 H 0.81247 0.73132 0.55457 0.0
H1161 H 0.73137 0.81169 0.44183 0.0
H1162 H 0.82349 0.75273 0.42159 0.0
H1163 H 0.75291 0.82385 0.57429 0.0
H1164 H 0.75952 0.78417 0.43409 0.0
H1165 H 0.78484 0.75943 0.56296 0.0
C1166 C 0.8089 0.74178 0.527 0.0
C1167 C 0.82017 0.73964 0.48721 0.0
C1168 C 0.75802 0.79286 0.46482 0.0
C1169 C 0.78853 0.7715 0.49652 0.0
C1170 C 0.74193 0.80843 0.46941 0.0
C1171 C 0.73979 0.81999 0.50885 0.0
C1172 C 0.77167 0.78833 0.50033 0.0
C1173 C 0.75406 0.8153 0.54336 0.0
C1174 C 0.79331 0.75788 0.53198 0.0
C1175 C 0.81513 0.75382 0.45276 0.0
N1176 N 0.76926 0.7996 0.53852 0.0
N1177 N 0.79948 0.769 0.45801 0.0
H1178 H 0.2967 0.79296 0.50169 0.0
H1179 H 0.17356 0.7653 0.53705 0.0
H1180 H 0.24578 0.83708 0.46608 0.0
H1181 H 0.2175 0.71578 0.49309 0.0
H1182 H 0.20177 0.7921 0.52616 0.0
H1183 H 0.26959 0.76448 0.51137 0.0
C1184 C 0.2799 0.79671 0.49585 0.0
C1185 C 0.27356 0.81765 0.48357 0.0
C1186 C 0.2052 0.77535 0.51893 0.0
C1187 C 0.24257 0.78524 0.49559 0.0
C1188 C 0.18909 0.75997 0.52516 0.0
C1189 C 0.19291 0.73818 0.51515 0.0
C1190 C 0.22554 0.76895 0.50368 0.0
C1191 C 0.21369 0.73238 0.50078 0.0
C1192 C 0.26449 0.78043 0.50137 0.0
C1193 C 0.25151 0.8214 0.47619 0.0
N1194 N 0.22927 0.74767 0.4956 0.0
N1195 N 0.23684 0.80549 0.4829 0.0
H1196 H 0.24459 0.17166 0.53647 0.0
H1197 H 0.21672 0.2949 0.50152 0.0
H1198 H 0.29413 0.21584 0.49384 0.0
H1199 H 0.17274 0.24391 0.46586 0.0
H1200 H 0.24525 0.26783 0.51131 0.0
H1201 H 0.21775 0.19983 0.52543 0.0
C1202 C 0.24992 0.18725 0.52484 0.0
C1203 C 0.27173 0.19114 0.51529 0.0
C1204 C 0.22931 0.26269 0.50127 0.0
C1205 C 0.24089 0.22373 0.50361 0.0
C1206 C 0.213 0.27809 0.4957 0.0
C1207 C 0.19209 0.27173 0.48337 0.0
C1208 C 0.22456 0.24077 0.49548 0.0
C1209 C 0.18839 0.24967 0.47602 0.0
C1210 C 0.23451 0.20333 0.51852 0.0
C1211 C 0.27751 0.21197 0.5012 0.0
N1212 N 0.20434 0.23501 0.48276 0.0
N1213 N 0.26219 0.22753 0.49592 0.0
H1214 H 0.79417 0.29444 0.49005 0.0
H1215 H 0.76576 0.16981 0.47236 0.0
H1216 H 0.83747 0.24443 0.53427 0.0
H1217 H 0.71624 0.2175 0.49447 0.0
H1218 H 0.79307 0.19776 0.48194 0.0
H1219 H 0.76596 0.26715 0.48037 0.0
C1220 C 0.7978 0.27779 0.49777 0.0
C1221 C 0.81842 0.27178 0.51257 0.0
C1222 C 0.77621 0.20207 0.48465 0.0
C1223 C 0.78627 0.24049 0.50066 0.0
C1224 C 0.76056 0.18612 0.47903 0.0
C1225 C 0.73858 0.19115 0.48315 0.0
C1226 C 0.76992 0.22336 0.49351 0.0
C1227 C 0.73296 0.21277 0.49138 0.0
C1228 C 0.78167 0.26225 0.49222 0.0
C1229 C 0.82202 0.24991 0.52223 0.0
N1230 N 0.74851 0.22808 0.49614 0.0
N1231 N 0.80622 0.23507 0.51565 0.0
H1232 H 0.12689 0.30719 0.32564 0.0
H1233 H 0.19755 0.38445 0.17031 0.0
H1234 H 0.17126 0.35545 0.37339 0.0
H1235 H 0.15625 0.3339 0.12101 0.0
H1236 H 0.18601 0.37559 0.24501 0.0
H1237 H 0.13536 0.31829 0.25019 0.0
C1238 C 0.13824 0.3202 0.3204 0.0
C1239 C 0.14834 0.33033 0.35615 0.0
C1240 C 0.1794 0.36651 0.21778 0.0
C1241 C 0.15817 0.34308 0.2699 0.0
C1242 C 0.18597 0.3716 0.17506 0.0
C1243 C 0.17794 0.35993 0.13913 0.0
C1244 C 0.16467 0.34961 0.22476 0.0
C1245 C 0.16296 0.34338 0.14754 0.0
C1246 C 0.14312 0.3265 0.27731 0.0
C1247 C 0.16301 0.34707 0.34715 0.0
N1248 N 0.15689 0.3387 0.18938 0.0
N1249 N 0.16748 0.35284 0.30511 0.0
H1250 H 0.69726 0.12708 0.32862 0.0
H1251 H 0.6254 0.20225 0.17112 0.0
H1252 H 0.6531 0.17573 0.37575 0.0
H1253 H 0.67107 0.15509 0.12376 0.0
H1254 H 0.63363 0.19111 0.24652 0.0
H1255 H 0.6862 0.13551 0.25322 0.0
C1256 C 0.68515 0.13939 0.32326 0.0
C1257 C 0.67616 0.15067 0.35883 0.0
C1258 C 0.64175 0.18314 0.21954 0.0
C1259 C 0.66347 0.16049 0.27251 0.0
C1260 C 0.637 0.18947 0.17644 0.0
C1261 C 0.64753 0.17967 0.14081 0.0
C1262 C 0.65714 0.16689 0.22716 0.0
C1263 C 0.6625 0.1632 0.14995 0.0
C1264 C 0.67886 0.14424 0.28017 0.0
C1265 C 0.66055 0.16654 0.34963 0.0
N1266 N 0.66689 0.15742 0.19207 0.0
N1267 N 0.6548 0.17098 0.30754 0.0
H1268 H 0.88483 0.70039 0.32504 0.0
H1269 H 0.8095 0.62654 0.172 0.0
H1270 H 0.83516 0.65824 0.37504 0.0
H1271 H 0.85297 0.67508 0.12208 0.0
H1272 H 0.82096 0.63563 0.2468 0.0
H1273 H 0.87561 0.68897 0.2503 0.0
C1274 C 0.87212 0.68866 0.32044 0.0
C1275 C 0.86081 0.6803 0.3566 0.0
C1276 C 0.82804 0.6442 0.21938 0.0
C1277 C 0.85014 0.66716 0.27104 0.0
C1278 C 0.82153 0.63897 0.17663 0.0
C1279 C 0.83024 0.65001 0.14048 0.0
C1280 C 0.84343 0.66052 0.22609 0.0
C1281 C 0.84576 0.66606 0.14872 0.0
C1282 C 0.86682 0.68217 0.27772 0.0
C1283 C 0.8444 0.66516 0.34839 0.0
N1284 N 0.85181 0.67081 0.1905 0.0
N1285 N 0.83958 0.65913 0.30662 0.0
H1286 H 0.31035 0.88319 0.32678 0.0
H1287 H 0.38361 0.80884 0.17042 0.0
H1288 H 0.35709 0.83724 0.37474 0.0
H1289 H 0.33725 0.85518 0.12244 0.0
H1290 H 0.37539 0.82031 0.24564 0.0
H1291 H 0.32129 0.87446 0.25147 0.0
C1292 C 0.32299 0.87142 0.32161 0.0
C1293 C 0.33273 0.86096 0.35737 0.0
C1294 C 0.36712 0.82803 0.21855 0.0
C1295 C 0.34527 0.85076 0.27117 0.0
C1296 C 0.37185 0.8215 0.17556 0.0
C1297 C 0.36113 0.83098 0.13982 0.0
C1298 C 0.35155 0.84413 0.22594 0.0
C1299 C 0.34597 0.84731 0.14873 0.0
C1300 C 0.32921 0.86639 0.27857 0.0
C1301 C 0.34902 0.84576 0.34843 0.0
N1302 N 0.3416 0.85327 0.19074 0.0
N1303 N 0.35468 0.84109 0.30638 0.0
H1304 H 0.12631 0.69993 0.67077 0.0
H1305 H 0.20003 0.62582 0.8267 0.0
H1306 H 0.17366 0.65461 0.6227 0.0
H1307 H 0.15348 0.67192 0.87489 0.0
H1308 H 0.18898 0.63453 0.75145 0.0
H1309 H 0.13448 0.6883 0.74593 0.0
C1310 C 0.13827 0.68746 0.67588 0.0
C1311 C 0.14929 0.67832 0.64015 0.0
C1312 C 0.18111 0.64263 0.7786 0.0
C1313 C 0.1588 0.66497 0.72613 0.0
C1314 C 0.1874 0.6376 0.8216 0.0
C1315 C 0.17776 0.64812 0.85739 0.0
C1316 C 0.16508 0.65829 0.7713 0.0
C1317 C 0.16147 0.66335 0.84855 0.0
C1318 C 0.14297 0.68084 0.71882 0.0
C1319 C 0.16471 0.66222 0.64898 0.0
N1320 N 0.15575 0.668 0.80655 0.0
N1321 N 0.16902 0.65615 0.69093 0.0
H1322 H 0.3567 0.17107 0.62248 0.0
H1323 H 0.33381 0.15544 0.87849 0.0
H1324 H 0.30879 0.127 0.67277 0.0
H1325 H 0.3838 0.19673 0.8268 0.0
H1326 H 0.32535 0.14381 0.80409 0.0
H1327 H 0.36759 0.17934 0.69707 0.0
C1328 C 0.34851 0.16293 0.64914 0.0
C1329 C 0.33172 0.14822 0.64099 0.0
C1330 C 0.33825 0.15531 0.80898 0.0
C1331 C 0.34418 0.15798 0.72737 0.0
C1332 C 0.34315 0.16201 0.85158 0.0
C1333 C 0.3596 0.17718 0.85917 0.0
C1334 C 0.34975 0.16386 0.77338 0.0
C1335 C 0.37102 0.18503 0.82271 0.0
C1336 C 0.35479 0.16775 0.69195 0.0
C1337 C 0.32181 0.13838 0.67731 0.0
N1338 N 0.36581 0.17835 0.78145 0.0
N1339 N 0.32811 0.14353 0.71892 0.0
H1340 H 0.80945 0.38363 0.82576 0.0
H1341 H 0.88399 0.3097 0.67085 0.0
H1342 H 0.85597 0.33764 0.87449 0.0
H1343 H 0.83676 0.35493 0.62197 0.0
H1344 H 0.87537 0.32121 0.74588 0.0
H1345 H 0.82069 0.37484 0.7506 0.0
C1346 C 0.82211 0.37185 0.8208 0.0
C1347 C 0.83171 0.3614 0.85672 0.0
C1348 C 0.86699 0.32867 0.71863 0.0
C1349 C 0.84459 0.35115 0.77076 0.0
C1350 C 0.87195 0.32212 0.67575 0.0
C1351 C 0.86113 0.33128 0.63982 0.0
C1352 C 0.85108 0.3445 0.72568 0.0
C1353 C 0.84559 0.34731 0.64841 0.0
C1354 C 0.8285 0.36678 0.77786 0.0
C1355 C 0.84802 0.34617 0.84806 0.0
N1356 N 0.84102 0.35332 0.6903 0.0
N1357 N 0.85385 0.34149 0.80614 0.0
H1358 H 0.67187 0.85415 0.8747 0.0
H1359 H 0.65706 0.83118 0.61877 0.0
H1360 H 0.62654 0.80776 0.82322 0.0
H1361 H 0.69595 0.88326 0.66963 0.0
H1362 H 0.64561 0.82265 0.6931 0.0
H1363 H 0.68053 0.86517 0.80015 0.0
C1364 C 0.66356 0.84634 0.84779 0.0
C1365 C 0.64836 0.82995 0.85552 0.0
C1366 C 0.65654 0.83603 0.68807 0.0
C1367 C 0.65853 0.8425 0.76945 0.0
C1368 C 0.66313 0.84098 0.64547 0.0
C1369 C 0.67752 0.85809 0.63764 0.0
C1370 C 0.66446 0.84809 0.7235 0.0
C1371 C 0.68483 0.86999 0.67393 0.0
C1372 C 0.66858 0.85269 0.80507 0.0
C1373 C 0.6383 0.82047 0.819 0.0
N1374 N 0.6783 0.8647 0.71528 0.0
N1375 N 0.64366 0.8268 0.77756 0.0
H1376 H 0.86762 0.71325 0.6649 0.0
H1377 H 0.79736 0.64398 0.83224 0.0
H1378 H 0.83161 0.65712 0.62447 0.0
H1379 H 0.85405 0.67909 0.87266 0.0
H1380 H 0.80599 0.6524 0.75539 0.0
H1381 H 0.85912 0.70471 0.74176 0.0
C1382 C 0.85795 0.69916 0.6722 0.0
C1383 C 0.8504 0.68582 0.63838 0.0
C1384 C 0.81653 0.65817 0.78121 0.0
C1385 C 0.8404 0.67619 0.72566 0.0
C1386 C 0.81159 0.65343 0.82494 0.0
C1387 C 0.82506 0.66076 0.85875 0.0
C1388 C 0.8348 0.67066 0.77148 0.0
C1389 C 0.84332 0.67296 0.84755 0.0
C1390 C 0.85317 0.69427 0.71594 0.0
C1391 C 0.83792 0.66775 0.64958 0.0
N1392 N 0.84758 0.67766 0.80487 0.0
N1393 N 0.83319 0.66354 0.69226 0.0
H1394 H 0.29579 0.86271 0.66099 0.0
H1395 H 0.36256 0.79411 0.83592 0.0
H1396 H 0.35241 0.82606 0.62598 0.0
H1397 H 0.32652 0.85106 0.8713 0.0
H1398 H 0.35469 0.80138 0.75825 0.0
H1399 H 0.30257 0.85435 0.73861 0.0
C1400 C 0.30958 0.85287 0.66964 0.0
C1401 C 0.32362 0.84516 0.63715 0.0
C1402 C 0.34854 0.81225 0.78314 0.0
C1403 C 0.33128 0.83537 0.72532 0.0
C1404 C 0.35295 0.80807 0.82734 0.0
C1405 C 0.34527 0.82207 0.85995 0.0
C1406 C 0.33604 0.83028 0.77174 0.0
C1407 C 0.33291 0.83996 0.84713 0.0
C1408 C 0.31348 0.84818 0.71382 0.0
C1409 C 0.34129 0.83249 0.65007 0.0
N1410 N 0.32858 0.8435 0.80401 0.0
N1411 N 0.34455 0.82789 0.69316 0.0
H1412 H 0.14662 0.29607 0.66145 0.0
H1413 H 0.21484 0.3649 0.83336 0.0
H1414 H 0.18361 0.35197 0.6235 0.0
H1415 H 0.15754 0.32978 0.86995 0.0
H1416 H 0.2076 0.35629 0.75602 0.0
H1417 H 0.15456 0.30411 0.73877 0.0
C1418 C 0.15645 0.30996 0.6694 0.0
C1419 C 0.16439 0.32344 0.63616 0.0
C1420 C 0.19663 0.35054 0.7811 0.0
C1421 C 0.17367 0.33253 0.72398 0.0
C1422 C 0.20077 0.35539 0.82511 0.0
C1423 C 0.18671 0.34814 0.85798 0.0
C1424 C 0.17856 0.33801 0.77015 0.0
C1425 C 0.1687 0.33586 0.84558 0.0
C1426 C 0.16089 0.31458 0.71339 0.0
C1427 C 0.17702 0.34127 0.64817 0.0
N1428 N 0.1652 0.33107 0.80265 0.0
N1429 N 0.18137 0.34524 0.69112 0.0
H1430 H 0.64816 0.21797 0.83778 0.0
H1431 H 0.71398 0.14857 0.66208 0.0
H1432 H 0.68269 0.15992 0.872 0.0
H1433 H 0.65976 0.18863 0.62695 0.0
H1434 H 0.70708 0.15656 0.73983 0.0
H1435 H 0.6566 0.21135 0.76018 0.0
C1436 C 0.65755 0.20389 0.82897 0.0
C1437 C 0.66464 0.18941 0.86125 0.0
C1438 C 0.69674 0.16359 0.71498 0.0
C1439 C 0.67452 0.18192 0.77302 0.0
C1440 C 0.70072 0.15911 0.67072 0.0
C1441 C 0.68735 0.16786 0.63815 0.0
C1442 C 0.67953 0.17718 0.72651 0.0
C1443 C 0.67035 0.18139 0.65108 0.0
C1444 C 0.6623 0.2001 0.78478 0.0
C1445 C 0.67675 0.1714 0.84809 0.0
N1446 N 0.66697 0.18571 0.69426 0.0
N1447 N 0.68139 0.16821 0.80498 0.0
H1448 H 0.8268 0.35213 0.37291 0.0
H1449 H 0.8528 0.3265 0.12342 0.0
H1450 H 0.86313 0.29591 0.334 0.0
H1451 H 0.79634 0.36243 0.16233 0.0
H1452 H 0.85985 0.31815 0.20051 0.0
H1453 H 0.8185 0.35919 0.29581 0.0
C1454 C 0.83309 0.34129 0.3481 0.0
C1455 C 0.84574 0.32342 0.35978 0.0
C1456 C 0.84589 0.32779 0.19214 0.0
C1457 C 0.83635 0.33152 0.27163 0.0
C1458 C 0.84191 0.33269 0.14823 0.0
C1459 C 0.82397 0.34525 0.13655 0.0
C1460 C 0.83206 0.33581 0.22468 0.0
C1461 C 0.81031 0.35267 0.16998 0.0
C1462 C 0.82821 0.34528 0.30418 0.0
C1463 C 0.85329 0.30983 0.32635 0.0
N1464 N 0.81475 0.34798 0.21269 0.0
N1465 N 0.84862 0.31427 0.28363 0.0
H1466 H 0.6451 0.79371 0.16173 0.0
H1467 H 0.71226 0.86547 0.33057 0.0
H1468 H 0.67786 0.85212 0.12327 0.0
H1469 H 0.65855 0.82579 0.37043 0.0
H1470 H 0.70411 0.85691 0.25355 0.0
H1471 H 0.65412 0.80149 0.23865 0.0
C1472 C 0.65417 0.80813 0.16948 0.0
C1473 C 0.66062 0.82236 0.13623 0.0
C1474 C 0.69414 0.85014 0.2793 0.0
C1475 C 0.67121 0.83114 0.22351 0.0
C1476 C 0.69882 0.85495 0.32311 0.0
C1477 C 0.68598 0.84644 0.35677 0.0
C1478 C 0.67679 0.83643 0.26939 0.0
C1479 C 0.66874 0.83288 0.34542 0.0
C1480 C 0.65926 0.81257 0.21324 0.0
C1481 C 0.67238 0.84082 0.14797 0.0
N1482 N 0.66471 0.8282 0.30267 0.0
N1483 N 0.6774 0.84463 0.19064 0.0
H1484 H 0.18514 0.65833 0.37325 0.0
H1485 H 0.1577 0.68388 0.12443 0.0
H1486 H 0.14859 0.71453 0.3352 0.0
H1487 H 0.21435 0.6479 0.16195 0.0
H1488 H 0.15117 0.69234 0.20168 0.0
H1489 H 0.1931 0.65132 0.29597 0.0
C1490 C 0.17874 0.66918 0.34859 0.0
C1491 C 0.16612 0.68702 0.36056 0.0
C1492 C 0.16506 0.68267 0.19296 0.0
C1493 C 0.1751 0.67897 0.27221 0.0
C1494 C 0.16875 0.67771 0.14896 0.0
C1495 C 0.18658 0.6651 0.13686 0.0
C1496 C 0.17908 0.67466 0.22516 0.0
C1497 C 0.20045 0.6577 0.16994 0.0
C1498 C 0.18342 0.66522 0.30457 0.0
C1499 C 0.15842 0.70063 0.32732 0.0
N1500 N 0.1963 0.66244 0.21274 0.0
N1501 N 0.16288 0.69621 0.2845 0.0
H1502 H 0.2959 0.14624 0.33586 0.0
H1503 H 0.36442 0.21541 0.16474 0.0
H1504 H 0.35136 0.18379 0.37421 0.0
H1505 H 0.32975 0.15788 0.12773 0.0
H1506 H 0.35554 0.20814 0.24197 0.0
H1507 H 0.3038 0.15458 0.25862 0.0
C1508 C 0.30966 0.15628 0.32802 0.0
C1509 C 0.32307 0.16423 0.36132 0.0
C1510 C 0.34995 0.19714 0.21681 0.0
C1511 C 0.332 0.17398 0.27366 0.0
C1512 C 0.35496 0.20129 0.17287 0.0
C1513 C 0.34793 0.18716 0.13993 0.0
C1514 C 0.3375 0.17898 0.22758 0.0
C1515 C 0.33568 0.16909 0.15216 0.0
C1516 C 0.31419 0.16096 0.28408 0.0
C1517 C 0.34072 0.17716 0.34947 0.0
N1518 N 0.33075 0.16558 0.195 0.0
N1519 N 0.34462 0.18172 0.3066 0.0
loop_
_geom_bond_atom_site_label_1
_geom_bond_atom_site_label_2
_geom_bond_distance
_geom_bond_site_symmetry_2
_ccdc_geom_bond_type
Co0 O2 2.143 . S
Co0 O8 2.074 1_556 S
Co0 O11 2.093 . S
Co0 O24 2.097 . S
Co0 N41 2.151 . S
Co0 N49 2.214 . S
Co1 O2 2.160 1_554 S
Co1 O7 2.058 . S
Co1 O17 2.057 . S
Co1 O32 2.037 . S
Co1 N36 2.145 . S
Co1 N57 2.257 1_554 S
O2 Co0 2.143 . S
O2 Co1 2.160 1_556 S
C3 O4 1.278 . S
C3 O11 1.224 . S
O4 C3 1.278 . S
C5 O6 1.245 1_554 S
C5 O17 1.232 . S
O6 C5 1.245 1_556 S
O7 Co1 2.058 . S
O7 C33 1.269 . S
O8 Co0 2.074 1_554 S
O8 C33 1.257 . S
H9 C34 0.930 . S
H10 C40 0.930 . S
O11 Co0 2.093 . S
O11 C3 1.224 . S
H12 C44 0.929 . S
H13 C46 0.930 . S
H14 C47 0.930 . S
H15 C45 0.929 . S
H16 C48 0.928 . S
O17 Co1 2.057 . S
O17 C5 1.232 . S
H18 C37 0.929 . S
H19 C38 0.929 . S
H20 C50 0.931 . S
H21 C42 0.929 . S
H22 C51 0.930 . S
H23 C43 0.931 . S
O24 Co0 2.097 . S
O24 C52 1.214 1_556 S
H25 C53 0.929 . S
H26 C54 0.929 . S
H27 C55 0.930 . S
H28 C56 0.929 . S
H29 C58 0.930 . S
H30 C35 0.930 . S
H31 C39 0.930 . S
O32 Co1 2.037 . S
O32 C52 1.234 . S
C33 O7 1.269 . S
C33 O8 1.257 . S
C34 H9 0.930 . S
C34 C37 1.388 . S
C34 C39 1.418 . S
C35 H30 0.930 . S
C35 C38 1.404 . S
C35 C39 1.353 . S
N36 Co1 2.145 . S
N36 C37 1.397 . S
N36 C38 1.334 . S
C37 H18 0.929 . S
C37 C34 1.388 . S
C37 N36 1.397 . S
C38 H19 0.929 . S
C38 C35 1.404 . S
C38 N36 1.334 . S
C39 H31 0.930 . S
C39 C34 1.418 . S
C39 C35 1.353 . S
C40 H10 0.930 . S
C40 N41 1.330 . S
C40 C42 1.446 . S
N41 Co0 2.151 . S
N41 C40 1.330 . S
N41 C45 1.418 1_556 S
C42 H21 0.929 . S
C42 C40 1.446 . S
C42 C43 1.332 . S
C43 H23 0.931 . S
C43 C42 1.332 . S
C43 C44 1.267 1_556 S
C44 H12 0.929 . S
C44 C43 1.267 1_554 S
C44 C45 1.251 . S
C45 H15 0.929 . S
C45 N41 1.418 1_554 S
C45 C44 1.251 . S
C46 H13 0.930 . S
C46 C48 1.406 . S
C46 C51 1.261 1_556 S
C47 H14 0.930 . S
C47 N49 1.325 1_554 S
C47 C50 1.357 . S
C48 H16 0.928 . S
C48 C46 1.406 . S
C48 N49 1.261 . S
N49 Co0 2.214 . S
N49 C47 1.325 1_556 S
N49 C48 1.261 . S
C50 H20 0.931 . S
C50 C47 1.357 . S
C50 C51 1.312 . S
C51 H22 0.930 . S
C51 C46 1.261 1_554 S
C51 C50 1.312 . S
C52 O24 1.214 1_554 S
C52 O32 1.234 . S
C53 H25 0.929 . S
C53 C56 1.391 . S
C53 C58 1.391 . S
C54 H26 0.929 . S
C54 C55 1.390 . S
C54 N57 1.391 . S
C55 H27 0.930 . S
C55 C54 1.390 . S
C55 C56 1.392 . S
C56 H28 0.929 . S
C56 C53 1.391 . S
C56 C55 1.392 . S
N57 Co1 2.257 1_556 S
N57 C54 1.391 . S
N57 C58 1.388 . S
C58 H29 0.930 . S
C58 C53 1.391 . S
C58 N57 1.388 . S
Co59 O61 2.143 . S
Co59 O67 2.074 1_556 S
Co59 O70 2.093 . S
Co59 O83 2.097 . S
Co59 N100 2.151 . S
Co59 N108 2.214 . S
Co60 O61 2.160 1_554 S
Co60 O66 2.058 . S
Co60 O76 2.057 . S
Co60 O91 2.037 . S
Co60 N95 2.145 . S
Co60 N116 2.257 1_554 S
O61 Co59 2.143 . S
O61 Co60 2.160 1_556 S
C62 O63 1.278 . S
C62 O70 1.224 . S
O63 C62 1.278 . S
C64 O65 1.245 1_554 S
C64 O76 1.232 . S
O65 C64 1.245 1_556 S
O66 Co60 2.058 . S
O66 C92 1.269 . S
O67 Co59 2.074 1_554 S
O67 C92 1.257 . S
H68 C93 0.930 . S
H69 C99 0.930 . S
O70 Co59 2.093 . S
O70 C62 1.224 . S
H71 C103 0.929 . S
H72 C105 0.930 . S
H73 C106 0.930 . S
H74 C104 0.929 . S
H75 C107 0.928 . S
O76 Co60 2.057 . S
O76 C64 1.232 . S
H77 C96 0.929 . S
H78 C97 0.929 . S
H79 C109 0.931 . S
H80 C101 0.929 . S
H81 C110 0.930 . S
H82 C102 0.931 . S
O83 Co59 2.097 . S
O83 C111 1.214 1_556 S
H84 C112 0.929 . S
H85 C113 0.929 . S
H86 C114 0.930 . S
H87 C115 0.929 . S
H88 C117 0.930 . S
H89 C94 0.930 . S
H90 C98 0.930 . S
O91 Co60 2.037 . S
O91 C111 1.234 . S
C92 O66 1.269 . S
C92 O67 1.257 . S
C93 H68 0.930 . S
C93 C96 1.388 . S
C93 C98 1.418 . S
C94 H89 0.930 . S
C94 C97 1.404 . S
C94 C98 1.353 . S
N95 Co60 2.145 . S
N95 C96 1.397 . S
N95 C97 1.334 . S
C96 H77 0.929 . S
C96 C93 1.388 . S
C96 N95 1.397 . S
C97 H78 0.929 . S
C97 C94 1.404 . S
C97 N95 1.334 . S
C98 H90 0.930 . S
C98 C93 1.418 . S
C98 C94 1.353 . S
C99 H69 0.930 . S
C99 N100 1.330 . S
C99 C101 1.446 . S
N100 Co59 2.151 . S
N100 C99 1.330 . S
N100 C104 1.418 1_556 S
C101 H80 0.929 . S
C101 C99 1.446 . S
C101 C102 1.332 . S
C102 H82 0.931 . S
C102 C101 1.332 . S
C102 C103 1.267 1_556 S
C103 H71 0.929 . S
C103 C102 1.267 1_554 S
C103 C104 1.251 . S
C104 H74 0.929 . S
C104 N100 1.418 1_554 S
C104 C103 1.251 . S
C105 H72 0.930 . S
C105 C107 1.406 . S
C105 C110 1.261 1_556 S
C106 H73 0.930 . S
C106 N108 1.325 1_554 S
C106 C109 1.357 . S
C107 H75 0.928 . S
C107 C105 1.406 . S
C107 N108 1.261 . S
N108 Co59 2.214 . S
N108 C106 1.325 1_556 S
N108 C107 1.261 . S
C109 H79 0.931 . S
C109 C106 1.357 . S
C109 C110 1.312 . S
C110 H81 0.930 . S
C110 C105 1.261 1_554 S
C110 C109 1.312 . S
C111 O83 1.214 1_554 S
C111 O91 1.234 . S
C112 H84 0.929 . S
C112 C115 1.391 . S
C112 C117 1.391 . S
C113 H85 0.929 . S
C113 C114 1.390 . S
C113 N116 1.391 . S
C114 H86 0.930 . S
C114 C113 1.390 . S
C114 C115 1.392 . S
C115 H87 0.929 . S
C115 C112 1.391 . S
C115 C114 1.392 . S
N116 Co60 2.257 1_556 S
N116 C113 1.391 . S
N116 C117 1.388 . S
C117 H88 0.930 . S
C117 C112 1.391 . S
C117 N116 1.388 . S
Co118 O120 2.143 . S
Co118 O126 2.074 1_556 S
Co118 O129 2.093 . S
Co118 O142 2.097 . S
Co118 N159 2.151 . S
Co118 N167 2.214 . S
Co119 O120 2.160 1_554 S
Co119 O125 2.058 . S
Co119 O135 2.057 . S
Co119 O150 2.037 . S
Co119 N154 2.145 . S
Co119 N175 2.257 1_554 S
O120 Co118 2.143 . S
O120 Co119 2.160 1_556 S
C121 O122 1.278 . S
C121 O129 1.224 . S
O122 C121 1.278 . S
C123 O124 1.245 1_554 S
C123 O135 1.232 . S
O124 C123 1.245 1_556 S
O125 Co119 2.058 . S
O125 C151 1.269 . S
O126 Co118 2.074 1_554 S
O126 C151 1.257 . S
H127 C152 0.930 . S
H128 C158 0.930 . S
O129 Co118 2.093 . S
O129 C121 1.224 . S
H130 C162 0.929 . S
H131 C164 0.930 . S
H132 C165 0.930 . S
H133 C163 0.929 . S
H134 C166 0.928 . S
O135 Co119 2.057 . S
O135 C123 1.232 . S
H136 C155 0.929 . S
H137 C156 0.929 . S
H138 C168 0.931 . S
H139 C160 0.929 . S
H140 C169 0.930 . S
H141 C161 0.931 . S
O142 Co118 2.097 . S
O142 C170 1.214 1_556 S
H143 C171 0.929 . S
H144 C172 0.929 . S
H145 C173 0.930 . S
H146 C174 0.929 . S
H147 C176 0.930 . S
H148 C153 0.930 . S
H149 C157 0.930 . S
O150 Co119 2.037 . S
O150 C170 1.234 . S
C151 O125 1.269 . S
C151 O126 1.257 . S
C152 H127 0.930 . S
C152 C155 1.388 . S
C152 C157 1.418 . S
C153 H148 0.930 . S
C153 C156 1.404 . S
C153 C157 1.353 . S
N154 Co119 2.145 . S
N154 C155 1.397 . S
N154 C156 1.334 . S
C155 H136 0.929 . S
C155 C152 1.388 . S
C155 N154 1.397 . S
C156 H137 0.929 . S
C156 C153 1.404 . S
C156 N154 1.334 . S
C157 H149 0.930 . S
C157 C152 1.418 . S
C157 C153 1.353 . S
C158 H128 0.930 . S
C158 N159 1.330 . S
C158 C160 1.446 . S
N159 Co118 2.151 . S
N159 C158 1.330 . S
N159 C163 1.418 1_556 S
C160 H139 0.929 . S
C160 C158 1.446 . S
C160 C161 1.332 . S
C161 H141 0.931 . S
C161 C160 1.332 . S
C161 C162 1.267 1_556 S
C162 H130 0.929 . S
C162 C161 1.267 1_554 S
C162 C163 1.251 . S
C163 H133 0.929 . S
C163 N159 1.418 1_554 S
C163 C162 1.251 . S
C164 H131 0.930 . S
C164 C166 1.406 . S
C164 C169 1.261 1_556 S
C165 H132 0.930 . S
C165 N167 1.325 1_554 S
C165 C168 1.357 . S
C166 H134 0.928 . S
C166 C164 1.406 . S
C166 N167 1.261 . S
N167 Co118 2.214 . S
N167 C165 1.325 1_556 S
N167 C166 1.261 . S
C168 H138 0.931 . S
C168 C165 1.357 . S
C168 C169 1.312 . S
C169 H140 0.930 . S
C169 C164 1.261 1_554 S
C169 C168 1.312 . S
C170 O142 1.214 1_554 S
C170 O150 1.234 . S
C171 H143 0.929 . S
C171 C174 1.391 . S
C171 C176 1.391 . S
C172 H144 0.929 . S
C172 C173 1.390 . S
C172 N175 1.391 . S
C173 H145 0.930 . S
C173 C172 1.390 . S
C173 C174 1.392 . S
C174 H146 0.929 . S
C174 C171 1.391 . S
C174 C173 1.392 . S
N175 Co119 2.257 1_556 S
N175 C172 1.391 . S
N175 C176 1.388 . S
C176 H147 0.930 . S
C176 C171 1.391 . S
C176 N175 1.388 . S
Co177 O179 2.143 . S
Co177 O185 2.074 1_556 S
Co177 O188 2.093 . S
Co177 O201 2.097 . S
Co177 N218 2.151 . S
Co177 N226 2.214 . S
Co178 O179 2.160 1_554 S
Co178 O184 2.058 . S
Co178 O194 2.057 . S
Co178 O209 2.037 . S
Co178 N213 2.145 . S
Co178 N234 2.257 1_554 S
O179 Co177 2.143 . S
O179 Co178 2.160 1_556 S
C180 O181 1.278 . S
C180 O188 1.224 . S
O181 C180 1.278 . S
C182 O183 1.245 1_554 S
C182 O194 1.232 . S
O183 C182 1.245 1_556 S
O184 Co178 2.058 . S
O184 C210 1.269 . S
O185 Co177 2.074 1_554 S
O185 C210 1.257 . S
H186 C211 0.930 . S
H187 C217 0.930 . S
O188 Co177 2.093 . S
O188 C180 1.224 . S
H189 C221 0.929 . S
H190 C223 0.930 . S
H191 C224 0.930 . S
H192 C222 0.929 . S
H193 C225 0.928 . S
O194 Co178 2.057 . S
O194 C182 1.232 . S
H195 C214 0.929 . S
H196 C215 0.929 . S
H197 C227 0.931 . S
H198 C219 0.929 . S
H199 C228 0.930 . S
H200 C220 0.931 . S
O201 Co177 2.097 . S
O201 C229 1.214 1_556 S
H202 C230 0.929 . S
H203 C231 0.929 . S
H204 C232 0.930 . S
H205 C233 0.929 . S
H206 C235 0.930 . S
H207 C212 0.930 . S
H208 C216 0.930 . S
O209 Co178 2.037 . S
O209 C229 1.234 . S
C210 O184 1.269 . S
C210 O185 1.257 . S
C211 H186 0.930 . S
C211 C214 1.388 . S
C211 C216 1.418 . S
C212 H207 0.930 . S
C212 C215 1.404 . S
C212 C216 1.353 . S
N213 Co178 2.145 . S
N213 C214 1.397 . S
N213 C215 1.334 . S
C214 H195 0.929 . S
C214 C211 1.388 . S
C214 N213 1.397 . S
C215 H196 0.929 . S
C215 C212 1.404 . S
C215 N213 1.334 . S
C216 H208 0.930 . S
C216 C211 1.418 . S
C216 C212 1.353 . S
C217 H187 0.930 . S
C217 N218 1.330 . S
C217 C219 1.446 . S
N218 Co177 2.151 . S
N218 C217 1.330 . S
N218 C222 1.418 1_556 S
C219 H198 0.929 . S
C219 C217 1.446 . S
C219 C220 1.332 . S
C220 H200 0.931 . S
C220 C219 1.332 . S
C220 C221 1.267 1_556 S
C221 H189 0.929 . S
C221 C220 1.267 1_554 S
C221 C222 1.251 . S
C222 H192 0.929 . S
C222 N218 1.418 1_554 S
C222 C221 1.251 . S
C223 H190 0.930 . S
C223 C225 1.406 . S
C223 C228 1.261 1_556 S
C224 H191 0.930 . S
C224 N226 1.325 1_554 S
C224 C227 1.357 . S
C225 H193 0.928 . S
C225 C223 1.406 . S
C225 N226 1.261 . S
N226 Co177 2.214 . S
N226 C224 1.325 1_556 S
N226 C225 1.261 . S
C227 H197 0.931 . S
C227 C224 1.357 . S
C227 C228 1.312 . S
C228 H199 0.930 . S
C228 C223 1.261 1_554 S
C228 C227 1.312 . S
C229 O201 1.214 1_554 S
C229 O209 1.234 . S
C230 H202 0.929 . S
C230 C233 1.391 . S
C230 C235 1.391 . S
C231 H203 0.929 . S
C231 C232 1.390 . S
C231 N234 1.391 . S
C232 H204 0.930 . S
C232 C231 1.390 . S
C232 C233 1.392 . S
C233 H205 0.929 . S
C233 C230 1.391 . S
C233 C232 1.392 . S
N234 Co178 2.257 1_556 S
N234 C231 1.391 . S
N234 C235 1.388 . S
C235 H206 0.930 . S
C235 C230 1.391 . S
C235 N234 1.388 . S
Co236 O238 2.143 . S
Co236 O244 2.074 1_554 S
Co236 O247 2.093 . S
Co236 O260 2.097 . S
Co236 N277 2.151 . S
Co236 N285 2.214 . S
Co237 O238 2.160 1_556 S
Co237 O243 2.058 . S
Co237 O253 2.057 . S
Co237 O268 2.037 . S
Co237 N272 2.145 . S
Co237 N293 2.257 1_556 S
O238 Co236 2.143 . S
O238 Co237 2.160 1_554 S
C239 O240 1.278 . S
C239 O247 1.224 . S
O240 C239 1.278 . S
C241 O242 1.245 1_556 S
C241 O253 1.232 . S
O242 C241 1.245 1_554 S
O243 Co237 2.058 . S
O243 C269 1.269 . S
O244 Co236 2.074 1_556 S
O244 C269 1.257 . S
H245 C270 0.930 . S
H246 C276 0.930 . S
O247 Co236 2.093 . S
O247 C239 1.224 . S
H248 C280 0.929 . S
H249 C282 0.930 . S
H250 C283 0.930 . S
H251 C281 0.929 . S
H252 C284 0.928 . S
O253 Co237 2.057 . S
O253 C241 1.232 . S
H254 C273 0.929 . S
H255 C274 0.929 . S
H256 C286 0.931 . S
H257 C278 0.929 . S
H258 C287 0.930 . S
H259 C279 0.931 . S
O260 Co236 2.097 . S
O260 C288 1.214 1_554 S
H261 C289 0.929 . S
H262 C290 0.929 . S
H263 C291 0.930 . S
H264 C292 0.929 . S
H265 C294 0.930 . S
H266 C271 0.930 . S
H267 C275 0.930 . S
O268 Co237 2.037 . S
O268 C288 1.234 . S
C269 O243 1.269 . S
C269 O244 1.257 . S
C270 H245 0.930 . S
C270 C273 1.388 . S
C270 C275 1.418 . S
C271 H266 0.930 . S
C271 C274 1.404 . S
C271 C275 1.353 . S
N272 Co237 2.145 . S
N272 C273 1.397 . S
N272 C274 1.334 . S
C273 H254 0.929 . S
C273 C270 1.388 . S
C273 N272 1.397 . S
C274 H255 0.929 . S
C274 C271 1.404 . S
C274 N272 1.334 . S
C275 H267 0.930 . S
C275 C270 1.418 . S
C275 C271 1.353 . S
C276 H246 0.930 . S
C276 N277 1.330 . S
C276 C278 1.446 . S
N277 Co236 2.151 . S
N277 C276 1.330 . S
N277 C281 1.418 1_554 S
C278 H257 0.929 . S
C278 C276 1.446 . S
C278 C279 1.332 . S
C279 H259 0.931 . S
C279 C278 1.332 . S
C279 C280 1.267 1_554 S
C280 H248 0.929 . S
C280 C279 1.267 1_556 S
C280 C281 1.251 . S
C281 H251 0.929 . S
C281 N277 1.418 1_556 S
C281 C280 1.251 . S
C282 H249 0.930 . S
C282 C284 1.406 . S
C282 C287 1.261 1_554 S
C283 H250 0.930 . S
C283 N285 1.325 1_556 S
C283 C286 1.357 . S
C284 H252 0.928 . S
C284 C282 1.406 . S
C284 N285 1.261 . S
N285 Co236 2.214 . S
N285 C283 1.325 1_554 S
N285 C284 1.261 . S
C286 H256 0.931 . S
C286 C283 1.357 . S
C286 C287 1.312 . S
C287 H258 0.930 . S
C287 C282 1.261 1_556 S
C287 C286 1.312 . S
C288 O260 1.214 1_556 S
C288 O268 1.234 . S
C289 H261 0.929 . S
C289 C292 1.391 . S
C289 C294 1.391 . S
C290 H262 0.929 . S
C290 C291 1.390 . S
C290 N293 1.391 . S
C291 H263 0.930 . S
C291 C290 1.390 . S
C291 C292 1.392 . S
C292 H264 0.929 . S
C292 C289 1.391 . S
C292 C291 1.392 . S
N293 Co237 2.257 1_554 S
N293 C290 1.391 . S
N293 C294 1.388 . S
C294 H265 0.930 . S
C294 C289 1.391 . S
C294 N293 1.388 . S
Co295 O297 2.143 . S
Co295 O303 2.074 1_554 S
Co295 O306 2.093 . S
Co295 O319 2.097 . S
Co295 N336 2.151 . S
Co295 N344 2.214 . S
Co296 O297 2.160 1_556 S
Co296 O302 2.058 . S
Co296 O312 2.057 . S
Co296 O327 2.037 . S
Co296 N331 2.145 . S
Co296 N352 2.257 1_556 S
O297 Co295 2.143 . S
O297 Co296 2.160 1_554 S
C298 O299 1.278 . S
C298 O306 1.224 . S
O299 C298 1.278 . S
C300 O301 1.245 1_556 S
C300 O312 1.232 . S
O301 C300 1.245 1_554 S
O302 Co296 2.058 . S
O302 C328 1.269 . S
O303 Co295 2.074 1_556 S
O303 C328 1.257 . S
H304 C329 0.930 . S
H305 C335 0.930 . S
O306 Co295 2.093 . S
O306 C298 1.224 . S
H307 C339 0.929 . S
H308 C341 0.930 . S
H309 C342 0.930 . S
H310 C340 0.929 . S
H311 C343 0.928 . S
O312 Co296 2.057 . S
O312 C300 1.232 . S
H313 C332 0.929 . S
H314 C333 0.929 . S
H315 C345 0.931 . S
H316 C337 0.929 . S
H317 C346 0.930 . S
H318 C338 0.931 . S
O319 Co295 2.097 . S
O319 C347 1.214 1_554 S
H320 C348 0.929 . S
H321 C349 0.929 . S
H322 C350 0.930 . S
H323 C351 0.929 . S
H324 C353 0.930 . S
H325 C330 0.930 . S
H326 C334 0.930 . S
O327 Co296 2.037 . S
O327 C347 1.234 . S
C328 O302 1.269 . S
C328 O303 1.257 . S
C329 H304 0.930 . S
C329 C332 1.388 . S
C329 C334 1.418 . S
C330 H325 0.930 . S
C330 C333 1.404 . S
C330 C334 1.353 . S
N331 Co296 2.145 . S
N331 C332 1.397 . S
N331 C333 1.334 . S
C332 H313 0.929 . S
C332 C329 1.388 . S
C332 N331 1.397 . S
C333 H314 0.929 . S
C333 C330 1.404 . S
C333 N331 1.334 . S
C334 H326 0.930 . S
C334 C329 1.418 . S
C334 C330 1.353 . S
C335 H305 0.930 . S
C335 N336 1.330 . S
C335 C337 1.446 . S
N336 Co295 2.151 . S
N336 C335 1.330 . S
N336 C340 1.418 1_554 S
C337 H316 0.929 . S
C337 C335 1.446 . S
C337 C338 1.332 . S
C338 H318 0.931 . S
C338 C337 1.332 . S
C338 C339 1.267 1_554 S
C339 H307 0.929 . S
C339 C338 1.267 1_556 S
C339 C340 1.251 . S
C340 H310 0.929 . S
C340 N336 1.418 1_556 S
C340 C339 1.251 . S
C341 H308 0.930 . S
C341 C343 1.406 . S
C341 C346 1.261 1_554 S
C342 H309 0.930 . S
C342 N344 1.325 1_556 S
C342 C345 1.357 . S
C343 H311 0.928 . S
C343 C341 1.406 . S
C343 N344 1.261 . S
N344 Co295 2.214 . S
N344 C342 1.325 1_554 S
N344 C343 1.261 . S
C345 H315 0.931 . S
C345 C342 1.357 . S
C345 C346 1.312 . S
C346 H317 0.930 . S
C346 C341 1.261 1_556 S
C346 C345 1.312 . S
C347 O319 1.214 1_556 S
C347 O327 1.234 . S
C348 H320 0.929 . S
C348 C351 1.391 . S
C348 C353 1.391 . S
C349 H321 0.929 . S
C349 C350 1.390 . S
C349 N352 1.391 . S
C350 H322 0.930 . S
C350 C349 1.390 . S
C350 C351 1.392 . S
C351 H323 0.929 . S
C351 C348 1.391 . S
C351 C350 1.392 . S
N352 Co296 2.257 1_554 S
N352 C349 1.391 . S
N352 C353 1.388 . S
C353 H324 0.930 . S
C353 C348 1.391 . S
C353 N352 1.388 . S
Co354 O356 2.143 . S
Co354 O362 2.074 1_554 S
Co354 O365 2.093 . S
Co354 O378 2.097 . S
Co354 N395 2.151 . S
Co354 N403 2.214 . S
Co355 O356 2.160 1_556 S
Co355 O361 2.058 . S
Co355 O371 2.057 . S
Co355 O386 2.037 . S
Co355 N390 2.145 . S
Co355 N411 2.257 1_556 S
O356 Co354 2.143 . S
O356 Co355 2.160 1_554 S
C357 O358 1.278 . S
C357 O365 1.224 . S
O358 C357 1.278 . S
C359 O360 1.245 1_556 S
C359 O371 1.232 . S
O360 C359 1.245 1_554 S
O361 Co355 2.058 . S
O361 C387 1.269 . S
O362 Co354 2.074 1_556 S
O362 C387 1.257 . S
H363 C388 0.930 . S
H364 C394 0.930 . S
O365 Co354 2.093 . S
O365 C357 1.224 . S
H366 C398 0.929 . S
H367 C400 0.930 . S
H368 C401 0.930 . S
H369 C399 0.929 . S
H370 C402 0.928 . S
O371 Co355 2.057 . S
O371 C359 1.232 . S
H372 C391 0.929 . S
H373 C392 0.929 . S
H374 C404 0.931 . S
H375 C396 0.929 . S
H376 C405 0.930 . S
H377 C397 0.931 . S
O378 Co354 2.097 . S
O378 C406 1.214 1_554 S
H379 C407 0.929 . S
H380 C408 0.929 . S
H381 C409 0.930 . S
H382 C410 0.929 . S
H383 C412 0.930 . S
H384 C389 0.930 . S
H385 C393 0.930 . S
O386 Co355 2.037 . S
O386 C406 1.234 . S
C387 O361 1.269 . S
C387 O362 1.257 . S
C388 H363 0.930 . S
C388 C391 1.388 . S
C388 C393 1.418 . S
C389 H384 0.930 . S
C389 C392 1.404 . S
C389 C393 1.353 . S
N390 Co355 2.145 . S
N390 C391 1.397 . S
N390 C392 1.334 . S
C391 H372 0.929 . S
C391 C388 1.388 . S
C391 N390 1.397 . S
C392 H373 0.929 . S
C392 C389 1.404 . S
C392 N390 1.334 . S
C393 H385 0.930 . S
C393 C388 1.418 . S
C393 C389 1.353 . S
C394 H364 0.930 . S
C394 N395 1.330 . S
C394 C396 1.446 . S
N395 Co354 2.151 . S
N395 C394 1.330 . S
N395 C399 1.418 1_554 S
C396 H375 0.929 . S
C396 C394 1.446 . S
C396 C397 1.332 . S
C397 H377 0.931 . S
C397 C396 1.332 . S
C397 C398 1.267 1_554 S
C398 H366 0.929 . S
C398 C397 1.267 1_556 S
C398 C399 1.251 . S
C399 H369 0.929 . S
C399 N395 1.418 1_556 S
C399 C398 1.251 . S
C400 H367 0.930 . S
C400 C402 1.406 . S
C400 C405 1.261 1_554 S
C401 H368 0.930 . S
C401 N403 1.325 1_556 S
C401 C404 1.357 . S
C402 H370 0.928 . S
C402 C400 1.406 . S
C402 N403 1.261 . S
N403 Co354 2.214 . S
N403 C401 1.325 1_554 S
N403 C402 1.261 . S
C404 H374 0.931 . S
C404 C401 1.357 . S
C404 C405 1.312 . S
C405 H376 0.930 . S
C405 C400 1.261 1_556 S
C405 C404 1.312 . S
C406 O378 1.214 1_556 S
C406 O386 1.234 . S
C407 H379 0.929 . S
C407 C410 1.391 . S
C407 C412 1.391 . S
C408 H380 0.929 . S
C408 C409 1.390 . S
C408 N411 1.391 . S
C409 H381 0.930 . S
C409 C408 1.390 . S
C409 C410 1.392 . S
C410 H382 0.929 . S
C410 C407 1.391 . S
C410 C409 1.392 . S
N411 Co355 2.257 1_554 S
N411 C408 1.391 . S
N411 C412 1.388 . S
C412 H383 0.930 . S
C412 C407 1.391 . S
C412 N411 1.388 . S
Co413 O415 2.143 . S
Co413 O421 2.074 1_554 S
Co413 O424 2.093 . S
Co413 O437 2.097 . S
Co413 N454 2.151 . S
Co413 N462 2.214 . S
Co414 O415 2.160 1_556 S
Co414 O420 2.058 . S
Co414 O430 2.057 . S
Co414 O445 2.037 . S
Co414 N449 2.145 . S
Co414 N470 2.257 1_556 S
O415 Co413 2.143 . S
O415 Co414 2.160 1_554 S
C416 O417 1.278 . S
C416 O424 1.224 . S
O417 C416 1.278 . S
C418 O419 1.245 1_556 S
C418 O430 1.232 . S
O419 C418 1.245 1_554 S
O420 Co414 2.058 . S
O420 C446 1.269 . S
O421 Co413 2.074 1_556 S
O421 C446 1.257 . S
H422 C447 0.930 . S
H423 C453 0.930 . S
O424 Co413 2.093 . S
O424 C416 1.224 . S
H425 C457 0.929 . S
H426 C459 0.930 . S
H427 C460 0.930 . S
H428 C458 0.929 . S
H429 C461 0.928 . S
O430 Co414 2.057 . S
O430 C418 1.232 . S
H431 C450 0.929 . S
H432 C451 0.929 . S
H433 C463 0.931 . S
H434 C455 0.929 . S
H435 C464 0.930 . S
H436 C456 0.931 . S
O437 Co413 2.097 . S
O437 C465 1.214 1_554 S
H438 C466 0.929 . S
H439 C467 0.929 . S
H440 C468 0.930 . S
H441 C469 0.929 . S
H442 C471 0.930 . S
H443 C448 0.930 . S
H444 C452 0.930 . S
O445 Co414 2.037 . S
O445 C465 1.234 . S
C446 O420 1.269 . S
C446 O421 1.257 . S
C447 H422 0.930 . S
C447 C450 1.388 . S
C447 C452 1.418 . S
C448 H443 0.930 . S
C448 C451 1.404 . S
C448 C452 1.353 . S
N449 Co414 2.145 . S
N449 C450 1.397 . S
N449 C451 1.334 . S
C450 H431 0.929 . S
C450 C447 1.388 . S
C450 N449 1.397 . S
C451 H432 0.929 . S
C451 C448 1.404 . S
C451 N449 1.334 . S
C452 H444 0.930 . S
C452 C447 1.418 . S
C452 C448 1.353 . S
C453 H423 0.930 . S
C453 N454 1.330 . S
C453 C455 1.446 . S
N454 Co413 2.151 . S
N454 C453 1.330 . S
N454 C458 1.418 1_554 S
C455 H434 0.929 . S
C455 C453 1.446 . S
C455 C456 1.332 . S
C456 H436 0.931 . S
C456 C455 1.332 . S
C456 C457 1.267 1_554 S
C457 H425 0.929 . S
C457 C456 1.267 1_556 S
C457 C458 1.251 . S
C458 H428 0.929 . S
C458 N454 1.418 1_556 S
C458 C457 1.251 . S
C459 H426 0.930 . S
C459 C461 1.406 . S
C459 C464 1.261 1_554 S
C460 H427 0.930 . S
C460 N462 1.325 1_556 S
C460 C463 1.357 . S
C461 H429 0.928 . S
C461 C459 1.406 . S
C461 N462 1.261 . S
N462 Co413 2.214 . S
N462 C460 1.325 1_554 S
N462 C461 1.261 . S
C463 H433 0.931 . S
C463 C460 1.357 . S
C463 C464 1.312 . S
C464 H435 0.930 . S
C464 C459 1.261 1_556 S
C464 C463 1.312 . S
C465 O437 1.214 1_556 S
C465 O445 1.234 . S
C466 H438 0.929 . S
C466 C469 1.391 . S
C466 C471 1.391 . S
C467 H439 0.929 . S
C467 C468 1.390 . S
C467 N470 1.391 . S
C468 H440 0.930 . S
C468 C467 1.390 . S
C468 C469 1.392 . S
C469 H441 0.929 . S
C469 C466 1.391 . S
C469 C468 1.392 . S
N470 Co414 2.257 1_554 S
N470 C467 1.391 . S
N470 C471 1.388 . S
C471 H442 0.930 . S
C471 C466 1.391 . S
C471 N470 1.388 . S
Co472 O474 2.143 . S
Co472 O480 2.074 . S
Co472 O483 2.093 . S
Co472 O496 2.097 . S
Co472 N513 2.151 . S
Co472 N521 2.214 . S
Co473 O474 2.160 . S
Co473 O479 2.058 . S
Co473 O489 2.057 . S
Co473 O504 2.037 . S
Co473 N508 2.145 . S
Co473 N529 2.257 . S
O474 Co472 2.143 . S
O474 Co473 2.160 . S
C475 O476 1.278 . S
C475 O483 1.224 . S
O476 C475 1.278 . S
C477 O478 1.245 . S
C477 O489 1.232 . S
O478 C477 1.245 . S
O479 Co473 2.058 . S
O479 C505 1.269 . S
O480 Co472 2.074 . S
O480 C505 1.257 . S
H481 C506 0.930 . S
H482 C512 0.930 . S
O483 Co472 2.093 . S
O483 C475 1.224 . S
H484 C516 0.929 . S
H485 C518 0.930 . S
H486 C519 0.930 . S
H487 C517 0.929 . S
H488 C520 0.928 . S
O489 Co473 2.057 . S
O489 C477 1.232 . S
H490 C509 0.929 . S
H491 C510 0.929 . S
H492 C522 0.931 . S
H493 C514 0.929 . S
H494 C523 0.930 . S
H495 C515 0.931 . S
O496 Co472 2.097 . S
O496 C524 1.214 . S
H497 C525 0.929 . S
H498 C526 0.929 . S
H499 C527 0.930 . S
H500 C528 0.929 . S
H501 C530 0.930 . S
H502 C507 0.930 . S
H503 C511 0.930 . S
O504 Co473 2.037 . S
O504 C524 1.234 . S
C505 O479 1.269 . S
C505 O480 1.257 . S
C506 H481 0.930 . S
C506 C509 1.388 . S
C506 C511 1.418 . S
C507 H502 0.930 . S
C507 C510 1.404 . S
C507 C511 1.353 . S
N508 Co473 2.145 . S
N508 C509 1.397 . S
N508 C510 1.334 . S
C509 H490 0.929 . S
C509 C506 1.388 . S
C509 N508 1.397 . S
C510 H491 0.929 . S
C510 C507 1.404 . S
C510 N508 1.334 . S
C511 H503 0.930 . S
C511 C506 1.418 . S
C511 C507 1.353 . S
C512 H482 0.930 . S
C512 N513 1.330 . S
C512 C514 1.446 . S
N513 Co472 2.151 . S
N513 C512 1.330 . S
N513 C517 1.418 . S
C514 H493 0.929 . S
C514 C512 1.446 . S
C514 C515 1.332 . S
C515 H495 0.931 . S
C515 C514 1.332 . S
C515 C516 1.267 . S
C516 H484 0.929 . S
C516 C515 1.267 . S
C516 C517 1.251 . S
C517 H487 0.929 . S
C517 N513 1.418 . S
C517 C516 1.251 . S
C518 H485 0.930 . S
C518 C520 1.406 . S
C518 C523 1.261 . S
C519 H486 0.930 . S
C519 N521 1.325 . S
C519 C522 1.357 . S
C520 H488 0.928 . S
C520 C518 1.406 . S
C520 N521 1.261 . S
N521 Co472 2.214 . S
N521 C519 1.325 . S
N521 C520 1.261 . S
C522 H492 0.931 . S
C522 C519 1.357 . S
C522 C523 1.312 . S
C523 H494 0.930 . S
C523 C518 1.261 . S
C523 C522 1.312 . S
C524 O496 1.214 . S
C524 O504 1.234 . S
C525 H497 0.929 . S
C525 C528 1.391 . S
C525 C530 1.391 . S
C526 H498 0.929 . S
C526 C527 1.390 . S
C526 N529 1.391 . S
C527 H499 0.930 . S
C527 C526 1.390 . S
C527 C528 1.392 . S
C528 H500 0.929 . S
C528 C525 1.391 . S
C528 C527 1.392 . S
N529 Co473 2.257 . S
N529 C526 1.391 . S
N529 C530 1.388 . S
C530 H501 0.930 . S
C530 C525 1.391 . S
C530 N529 1.388 . S
Co531 O533 2.143 . S
Co531 O539 2.074 . S
Co531 O542 2.093 . S
Co531 O555 2.097 . S
Co531 N572 2.151 . S
Co531 N580 2.214 . S
Co532 O533 2.160 . S
Co532 O538 2.058 . S
Co532 O548 2.057 . S
Co532 O563 2.037 . S
Co532 N567 2.145 . S
Co532 N588 2.257 . S
O533 Co531 2.143 . S
O533 Co532 2.160 . S
C534 O535 1.278 . S
C534 O542 1.224 . S
O535 C534 1.278 . S
C536 O537 1.245 . S
C536 O548 1.232 . S
O537 C536 1.245 . S
O538 Co532 2.058 . S
O538 C564 1.269 . S
O539 Co531 2.074 . S
O539 C564 1.257 . S
H540 C565 0.930 . S
H541 C571 0.930 . S
O542 Co531 2.093 . S
O542 C534 1.224 . S
H543 C575 0.929 . S
H544 C577 0.930 . S
H545 C578 0.930 . S
H546 C576 0.929 . S
H547 C579 0.928 . S
O548 Co532 2.057 . S
O548 C536 1.232 . S
H549 C568 0.929 . S
H550 C569 0.929 . S
H551 C581 0.931 . S
H552 C573 0.929 . S
H553 C582 0.930 . S
H554 C574 0.931 . S
O555 Co531 2.097 . S
O555 C583 1.214 . S
H556 C584 0.929 . S
H557 C585 0.929 . S
H558 C586 0.930 . S
H559 C587 0.929 . S
H560 C589 0.930 . S
H561 C566 0.930 . S
H562 C570 0.930 . S
O563 Co532 2.037 . S
O563 C583 1.234 . S
C564 O538 1.269 . S
C564 O539 1.257 . S
C565 H540 0.930 . S
C565 C568 1.388 . S
C565 C570 1.418 . S
C566 H561 0.930 . S
C566 C569 1.404 . S
C566 C570 1.353 . S
N567 Co532 2.145 . S
N567 C568 1.397 . S
N567 C569 1.334 . S
C568 H549 0.929 . S
C568 C565 1.388 . S
C568 N567 1.397 . S
C569 H550 0.929 . S
C569 C566 1.404 . S
C569 N567 1.334 . S
C570 H562 0.930 . S
C570 C565 1.418 . S
C570 C566 1.353 . S
C571 H541 0.930 . S
C571 N572 1.330 . S
C571 C573 1.446 . S
N572 Co531 2.151 . S
N572 C571 1.330 . S
N572 C576 1.418 . S
C573 H552 0.929 . S
C573 C571 1.446 . S
C573 C574 1.332 . S
C574 H554 0.931 . S
C574 C573 1.332 . S
C574 C575 1.267 . S
C575 H543 0.929 . S
C575 C574 1.267 . S
C575 C576 1.251 . S
C576 H546 0.929 . S
C576 N572 1.418 . S
C576 C575 1.251 . S
C577 H544 0.930 . S
C577 C579 1.406 . S
C577 C582 1.261 . S
C578 H545 0.930 . S
C578 N580 1.325 . S
C578 C581 1.357 . S
C579 H547 0.928 . S
C579 C577 1.406 . S
C579 N580 1.261 . S
N580 Co531 2.214 . S
N580 C578 1.325 . S
N580 C579 1.261 . S
C581 H551 0.931 . S
C581 C578 1.357 . S
C581 C582 1.312 . S
C582 H553 0.930 . S
C582 C577 1.261 . S
C582 C581 1.312 . S
C583 O555 1.214 . S
C583 O563 1.234 . S
C584 H556 0.929 . S
C584 C587 1.391 . S
C584 C589 1.391 . S
C585 H557 0.929 . S
C585 C586 1.390 . S
C585 N588 1.391 . S
C586 H558 0.930 . S
C586 C585 1.390 . S
C586 C587 1.392 . S
C587 H559 0.929 . S
C587 C584 1.391 . S
C587 C586 1.392 . S
N588 Co532 2.257 . S
N588 C585 1.391 . S
N588 C589 1.388 . S
C589 H560 0.930 . S
C589 C584 1.391 . S
C589 N588 1.388 . S
Co590 O592 2.143 . S
Co590 O598 2.074 . S
Co590 O601 2.093 . S
Co590 O614 2.097 . S
Co590 N631 2.151 . S
Co590 N639 2.214 . S
Co591 O592 2.160 . S
Co591 O597 2.058 . S
Co591 O607 2.057 . S
Co591 O622 2.037 . S
Co591 N626 2.145 . S
Co591 N647 2.257 . S
O592 Co590 2.143 . S
O592 Co591 2.160 . S
C593 O594 1.278 . S
C593 O601 1.224 . S
O594 C593 1.278 . S
C595 O596 1.245 . S
C595 O607 1.232 . S
O596 C595 1.245 . S
O597 Co591 2.058 . S
O597 C623 1.269 . S
O598 Co590 2.074 . S
O598 C623 1.257 . S
H599 C624 0.930 . S
H600 C630 0.930 . S
O601 Co590 2.093 . S
O601 C593 1.224 . S
H602 C634 0.929 . S
H603 C636 0.930 . S
H604 C637 0.930 . S
H605 C635 0.929 . S
H606 C638 0.928 . S
O607 Co591 2.057 . S
O607 C595 1.232 . S
H608 C627 0.929 . S
H609 C628 0.929 . S
H610 C640 0.931 . S
H611 C632 0.929 . S
H612 C641 0.930 . S
H613 C633 0.931 . S
O614 Co590 2.097 . S
O614 C642 1.214 . S
H615 C643 0.929 . S
H616 C644 0.929 . S
H617 C645 0.930 . S
H618 C646 0.929 . S
H619 C648 0.930 . S
H620 C625 0.930 . S
H621 C629 0.930 . S
O622 Co591 2.037 . S
O622 C642 1.234 . S
C623 O597 1.269 . S
C623 O598 1.257 . S
C624 H599 0.930 . S
C624 C627 1.388 . S
C624 C629 1.418 . S
C625 H620 0.930 . S
C625 C628 1.404 . S
C625 C629 1.353 . S
N626 Co591 2.145 . S
N626 C627 1.397 . S
N626 C628 1.334 . S
C627 H608 0.929 . S
C627 C624 1.388 . S
C627 N626 1.397 . S
C628 H609 0.929 . S
C628 C625 1.404 . S
C628 N626 1.334 . S
C629 H621 0.930 . S
C629 C624 1.418 . S
C629 C625 1.353 . S
C630 H600 0.930 . S
C630 N631 1.330 . S
C630 C632 1.446 . S
N631 Co590 2.151 . S
N631 C630 1.330 . S
N631 C635 1.418 . S
C632 H611 0.929 . S
C632 C630 1.446 . S
C632 C633 1.332 . S
C633 H613 0.931 . S
C633 C632 1.332 . S
C633 C634 1.267 . S
C634 H602 0.929 . S
C634 C633 1.267 . S
C634 C635 1.251 . S
C635 H605 0.929 . S
C635 N631 1.418 . S
C635 C634 1.251 . S
C636 H603 0.930 . S
C636 C638 1.406 . S
C636 C641 1.261 . S
C637 H604 0.930 . S
C637 N639 1.325 . S
C637 C640 1.357 . S
C638 H606 0.928 . S
C638 C636 1.406 . S
C638 N639 1.261 . S
N639 Co590 2.214 . S
N639 C637 1.325 . S
N639 C638 1.261 . S
C640 H610 0.931 . S
C640 C637 1.357 . S
C640 C641 1.312 . S
C641 H612 0.930 . S
C641 C636 1.261 . S
C641 C640 1.312 . S
C642 O614 1.214 . S
C642 O622 1.234 . S
C643 H615 0.929 . S
C643 C646 1.391 . S
C643 C648 1.391 . S
C644 H616 0.929 . S
C644 C645 1.390 . S
C644 N647 1.391 . S
C645 H617 0.930 . S
C645 C644 1.390 . S
C645 C646 1.392 . S
C646 H618 0.929 . S
C646 C643 1.391 . S
C646 C645 1.392 . S
N647 Co591 2.257 . S
N647 C644 1.391 . S
N647 C648 1.388 . S
C648 H619 0.930 . S
C648 C643 1.391 . S
C648 N647 1.388 . S
Co649 O651 2.143 . S
Co649 O657 2.074 . S
Co649 O660 2.093 . S
Co649 O673 2.097 . S
Co649 N690 2.151 . S
Co649 N698 2.214 . S
Co650 O651 2.160 . S
Co650 O656 2.058 . S
Co650 O666 2.057 . S
Co650 O681 2.037 . S
Co650 N685 2.145 . S
Co650 N706 2.257 . S
O651 Co649 2.143 . S
O651 Co650 2.160 . S
C652 O653 1.278 . S
C652 O660 1.224 . S
O653 C652 1.278 . S
C654 O655 1.245 . S
C654 O666 1.232 . S
O655 C654 1.245 . S
O656 Co650 2.058 . S
O656 C682 1.269 . S
O657 Co649 2.074 . S
O657 C682 1.257 . S
H658 C683 0.930 . S
H659 C689 0.930 . S
O660 Co649 2.093 . S
O660 C652 1.224 . S
H661 C693 0.929 . S
H662 C695 0.930 . S
H663 C696 0.930 . S
H664 C694 0.929 . S
H665 C697 0.928 . S
O666 Co650 2.057 . S
O666 C654 1.232 . S
H667 C686 0.929 . S
H668 C687 0.929 . S
H669 C699 0.931 . S
H670 C691 0.929 . S
H671 C700 0.930 . S
H672 C692 0.931 . S
O673 Co649 2.097 . S
O673 C701 1.214 . S
H674 C702 0.929 . S
H675 C703 0.929 . S
H676 C704 0.930 . S
H677 C705 0.929 . S
H678 C707 0.930 . S
H679 C684 0.930 . S
H680 C688 0.930 . S
O681 Co650 2.037 . S
O681 C701 1.234 . S
C682 O656 1.269 . S
C682 O657 1.257 . S
C683 H658 0.930 . S
C683 C686 1.388 . S
C683 C688 1.418 . S
C684 H679 0.930 . S
C684 C687 1.404 . S
C684 C688 1.353 . S
N685 Co650 2.145 . S
N685 C686 1.397 . S
N685 C687 1.334 . S
C686 H667 0.929 . S
C686 C683 1.388 . S
C686 N685 1.397 . S
C687 H668 0.929 . S
C687 C684 1.404 . S
C687 N685 1.334 . S
C688 H680 0.930 . S
C688 C683 1.418 . S
C688 C684 1.353 . S
C689 H659 0.930 . S
C689 N690 1.330 . S
C689 C691 1.446 . S
N690 Co649 2.151 . S
N690 C689 1.330 . S
N690 C694 1.418 . S
C691 H670 0.929 . S
C691 C689 1.446 . S
C691 C692 1.332 . S
C692 H672 0.931 . S
C692 C691 1.332 . S
C692 C693 1.267 . S
C693 H661 0.929 . S
C693 C692 1.267 . S
C693 C694 1.251 . S
C694 H664 0.929 . S
C694 N690 1.418 . S
C694 C693 1.251 . S
C695 H662 0.930 . S
C695 C697 1.406 . S
C695 C700 1.261 . S
C696 H663 0.930 . S
C696 N698 1.325 . S
C696 C699 1.357 . S
C697 H665 0.928 . S
C697 C695 1.406 . S
C697 N698 1.261 . S
N698 Co649 2.214 . S
N698 C696 1.325 . S
N698 C697 1.261 . S
C699 H669 0.931 . S
C699 C696 1.357 . S
C699 C700 1.312 . S
C700 H671 0.930 . S
C700 C695 1.261 . S
C700 C699 1.312 . S
C701 O673 1.214 . S
C701 O681 1.234 . S
C702 H674 0.929 . S
C702 C705 1.391 . S
C702 C707 1.391 . S
C703 H675 0.929 . S
C703 C704 1.390 . S
C703 N706 1.391 . S
C704 H676 0.930 . S
C704 C703 1.390 . S
C704 C705 1.392 . S
C705 H677 0.929 . S
C705 C702 1.391 . S
C705 C704 1.392 . S
N706 Co650 2.257 . S
N706 C703 1.391 . S
N706 C707 1.388 . S
C707 H678 0.930 . S
C707 C702 1.391 . S
C707 N706 1.388 . S
Co708 O710 2.143 . S
Co708 O716 2.074 . S
Co708 O719 2.093 . S
Co708 O732 2.097 . S
Co708 N749 2.151 . S
Co708 N757 2.214 . S
Co709 O710 2.160 . S
Co709 O715 2.058 . S
Co709 O725 2.057 . S
Co709 O740 2.037 . S
Co709 N744 2.145 . S
Co709 N765 2.257 . S
O710 Co708 2.143 . S
O710 Co709 2.160 . S
C711 O712 1.278 . S
C711 O719 1.224 . S
O712 C711 1.278 . S
C713 O714 1.245 . S
C713 O725 1.232 . S
O714 C713 1.245 . S
O715 Co709 2.058 . S
O715 C741 1.269 . S
O716 Co708 2.074 . S
O716 C741 1.257 . S
H717 C742 0.930 . S
H718 C748 0.930 . S
O719 Co708 2.093 . S
O719 C711 1.224 . S
H720 C752 0.929 . S
H721 C754 0.930 . S
H722 C755 0.930 . S
H723 C753 0.929 . S
H724 C756 0.928 . S
O725 Co709 2.057 . S
O725 C713 1.232 . S
H726 C745 0.929 . S
H727 C746 0.929 . S
H728 C758 0.931 . S
H729 C750 0.929 . S
H730 C759 0.930 . S
H731 C751 0.931 . S
O732 Co708 2.097 . S
O732 C760 1.214 . S
H733 C761 0.929 . S
H734 C762 0.929 . S
H735 C763 0.930 . S
H736 C764 0.929 . S
H737 C766 0.930 . S
H738 C743 0.930 . S
H739 C747 0.930 . S
O740 Co709 2.037 . S
O740 C760 1.234 . S
C741 O715 1.269 . S
C741 O716 1.257 . S
C742 H717 0.930 . S
C742 C745 1.388 . S
C742 C747 1.418 . S
C743 H738 0.930 . S
C743 C746 1.404 . S
C743 C747 1.353 . S
N744 Co709 2.145 . S
N744 C745 1.397 . S
N744 C746 1.334 . S
C745 H726 0.929 . S
C745 C742 1.388 . S
C745 N744 1.397 . S
C746 H727 0.929 . S
C746 C743 1.404 . S
C746 N744 1.334 . S
C747 H739 0.930 . S
C747 C742 1.418 . S
C747 C743 1.353 . S
C748 H718 0.930 . S
C748 N749 1.330 . S
C748 C750 1.446 . S
N749 Co708 2.151 . S
N749 C748 1.330 . S
N749 C753 1.418 . S
C750 H729 0.929 . S
C750 C748 1.446 . S
C750 C751 1.332 . S
C751 H731 0.931 . S
C751 C750 1.332 . S
C751 C752 1.267 . S
C752 H720 0.929 . S
C752 C751 1.267 . S
C752 C753 1.251 . S
C753 H723 0.929 . S
C753 N749 1.418 . S
C753 C752 1.251 . S
C754 H721 0.930 . S
C754 C756 1.406 . S
C754 C759 1.261 . S
C755 H722 0.930 . S
C755 N757 1.325 . S
C755 C758 1.357 . S
C756 H724 0.928 . S
C756 C754 1.406 . S
C756 N757 1.261 . S
N757 Co708 2.214 . S
N757 C755 1.325 . S
N757 C756 1.261 . S
C758 H728 0.931 . S
C758 C755 1.357 . S
C758 C759 1.312 . S
C759 H730 0.930 . S
C759 C754 1.261 . S
C759 C758 1.312 . S
C760 O732 1.214 . S
C760 O740 1.234 . S
C761 H733 0.929 . S
C761 C764 1.391 . S
C761 C766 1.391 . S
C762 H734 0.929 . S
C762 C763 1.390 . S
C762 N765 1.391 . S
C763 H735 0.930 . S
C763 C762 1.390 . S
C763 C764 1.392 . S
C764 H736 0.929 . S
C764 C761 1.391 . S
C764 C763 1.392 . S
N765 Co709 2.257 . S
N765 C762 1.391 . S
N765 C766 1.388 . S
C766 H737 0.930 . S
C766 C761 1.391 . S
C766 N765 1.388 . S
Co767 O769 2.143 . S
Co767 O775 2.074 . S
Co767 O778 2.093 . S
Co767 O791 2.097 . S
Co767 N808 2.151 . S
Co767 N816 2.214 . S
Co768 O769 2.160 . S
Co768 O774 2.058 . S
Co768 O784 2.057 . S
Co768 O799 2.037 . S
Co768 N803 2.145 . S
Co768 N824 2.257 . S
O769 Co767 2.143 . S
O769 Co768 2.160 . S
C770 O771 1.278 . S
C770 O778 1.224 . S
O771 C770 1.278 . S
C772 O773 1.245 . S
C772 O784 1.232 . S
O773 C772 1.245 . S
O774 Co768 2.058 . S
O774 C800 1.269 . S
O775 Co767 2.074 . S
O775 C800 1.257 . S
H776 C801 0.930 . S
H777 C807 0.930 . S
O778 Co767 2.093 . S
O778 C770 1.224 . S
H779 C811 0.929 . S
H780 C813 0.930 . S
H781 C814 0.930 . S
H782 C812 0.929 . S
H783 C815 0.928 . S
O784 Co768 2.057 . S
O784 C772 1.232 . S
H785 C804 0.929 . S
H786 C805 0.929 . S
H787 C817 0.931 . S
H788 C809 0.929 . S
H789 C818 0.930 . S
H790 C810 0.931 . S
O791 Co767 2.097 . S
O791 C819 1.214 . S
H792 C820 0.929 . S
H793 C821 0.929 . S
H794 C822 0.930 . S
H795 C823 0.929 . S
H796 C825 0.930 . S
H797 C802 0.930 . S
H798 C806 0.930 . S
O799 Co768 2.037 . S
O799 C819 1.234 . S
C800 O774 1.269 . S
C800 O775 1.257 . S
C801 H776 0.930 . S
C801 C804 1.388 . S
C801 C806 1.418 . S
C802 H797 0.930 . S
C802 C805 1.404 . S
C802 C806 1.353 . S
N803 Co768 2.145 . S
N803 C804 1.397 . S
N803 C805 1.334 . S
C804 H785 0.929 . S
C804 C801 1.388 . S
C804 N803 1.397 . S
C805 H786 0.929 . S
C805 C802 1.404 . S
C805 N803 1.334 . S
C806 H798 0.930 . S
C806 C801 1.418 . S
C806 C802 1.353 . S
C807 H777 0.930 . S
C807 N808 1.330 . S
C807 C809 1.446 . S
N808 Co767 2.151 . S
N808 C807 1.330 . S
N808 C812 1.418 . S
C809 H788 0.929 . S
C809 C807 1.446 . S
C809 C810 1.332 . S
C810 H790 0.931 . S
C810 C809 1.332 . S
C810 C811 1.267 . S
C811 H779 0.929 . S
C811 C810 1.267 . S
C811 C812 1.251 . S
C812 H782 0.929 . S
C812 N808 1.418 . S
C812 C811 1.251 . S
C813 H780 0.930 . S
C813 C815 1.406 . S
C813 C818 1.261 . S
C814 H781 0.930 . S
C814 N816 1.325 . S
C814 C817 1.357 . S
C815 H783 0.928 . S
C815 C813 1.406 . S
C815 N816 1.261 . S
N816 Co767 2.214 . S
N816 C814 1.325 . S
N816 C815 1.261 . S
C817 H787 0.931 . S
C817 C814 1.357 . S
C817 C818 1.312 . S
C818 H789 0.930 . S
C818 C813 1.261 . S
C818 C817 1.312 . S
C819 O791 1.214 . S
C819 O799 1.234 . S
C820 H792 0.929 . S
C820 C823 1.391 . S
C820 C825 1.391 . S
C821 H793 0.929 . S
C821 C822 1.390 . S
C821 N824 1.391 . S
C822 H794 0.930 . S
C822 C821 1.390 . S
C822 C823 1.392 . S
C823 H795 0.929 . S
C823 C820 1.391 . S
C823 C822 1.392 . S
N824 Co768 2.257 . S
N824 C821 1.391 . S
N824 C825 1.388 . S
C825 H796 0.930 . S
C825 C820 1.391 . S
C825 N824 1.388 . S
Co826 O828 2.143 . S
Co826 O834 2.074 . S
Co826 O837 2.093 . S
Co826 O850 2.097 . S
Co826 N867 2.151 . S
Co826 N875 2.214 . S
Co827 O828 2.160 . S
Co827 O833 2.058 . S
Co827 O843 2.057 . S
Co827 O858 2.037 . S
Co827 N862 2.145 . S
Co827 N883 2.257 . S
O828 Co826 2.143 . S
O828 Co827 2.160 . S
C829 O830 1.278 . S
C829 O837 1.224 . S
O830 C829 1.278 . S
C831 O832 1.245 . S
C831 O843 1.232 . S
O832 C831 1.245 . S
O833 Co827 2.058 . S
O833 C859 1.269 . S
O834 Co826 2.074 . S
O834 C859 1.257 . S
H835 C860 0.930 . S
H836 C866 0.930 . S
O837 Co826 2.093 . S
O837 C829 1.224 . S
H838 C870 0.929 . S
H839 C872 0.930 . S
H840 C873 0.930 . S
H841 C871 0.929 . S
H842 C874 0.928 . S
O843 Co827 2.057 . S
O843 C831 1.232 . S
H844 C863 0.929 . S
H845 C864 0.929 . S
H846 C876 0.931 . S
H847 C868 0.929 . S
H848 C877 0.930 . S
H849 C869 0.931 . S
O850 Co826 2.097 . S
O850 C878 1.214 . S
H851 C879 0.929 . S
H852 C880 0.929 . S
H853 C881 0.930 . S
H854 C882 0.929 . S
H855 C884 0.930 . S
H856 C861 0.930 . S
H857 C865 0.930 . S
O858 Co827 2.037 . S
O858 C878 1.234 . S
C859 O833 1.269 . S
C859 O834 1.257 . S
C860 H835 0.930 . S
C860 C863 1.388 . S
C860 C865 1.418 . S
C861 H856 0.930 . S
C861 C864 1.404 . S
C861 C865 1.353 . S
N862 Co827 2.145 . S
N862 C863 1.397 . S
N862 C864 1.334 . S
C863 H844 0.929 . S
C863 C860 1.388 . S
C863 N862 1.397 . S
C864 H845 0.929 . S
C864 C861 1.404 . S
C864 N862 1.334 . S
C865 H857 0.930 . S
C865 C860 1.418 . S
C865 C861 1.353 . S
C866 H836 0.930 . S
C866 N867 1.330 . S
C866 C868 1.446 . S
N867 Co826 2.151 . S
N867 C866 1.330 . S
N867 C871 1.418 . S
C868 H847 0.929 . S
C868 C866 1.446 . S
C868 C869 1.332 . S
C869 H849 0.931 . S
C869 C868 1.332 . S
C869 C870 1.267 . S
C870 H838 0.929 . S
C870 C869 1.267 . S
C870 C871 1.251 . S
C871 H841 0.929 . S
C871 N867 1.418 . S
C871 C870 1.251 . S
C872 H839 0.930 . S
C872 C874 1.406 . S
C872 C877 1.261 . S
C873 H840 0.930 . S
C873 N875 1.325 . S
C873 C876 1.357 . S
C874 H842 0.928 . S
C874 C872 1.406 . S
C874 N875 1.261 . S
N875 Co826 2.214 . S
N875 C873 1.325 . S
N875 C874 1.261 . S
C876 H846 0.931 . S
C876 C873 1.357 . S
C876 C877 1.312 . S
C877 H848 0.930 . S
C877 C872 1.261 . S
C877 C876 1.312 . S
C878 O850 1.214 . S
C878 O858 1.234 . S
C879 H851 0.929 . S
C879 C882 1.391 . S
C879 C884 1.391 . S
C880 H852 0.929 . S
C880 C881 1.390 . S
C880 N883 1.391 . S
C881 H853 0.930 . S
C881 C880 1.390 . S
C881 C882 1.392 . S
C882 H854 0.929 . S
C882 C879 1.391 . S
C882 C881 1.392 . S
N883 Co827 2.257 . S
N883 C880 1.391 . S
N883 C884 1.388 . S
C884 H855 0.930 . S
C884 C879 1.391 . S
C884 N883 1.388 . S
Co885 O887 2.143 . S
Co885 O893 2.074 . S
Co885 O896 2.093 . S
Co885 O909 2.097 . S
Co885 N926 2.151 . S
Co885 N934 2.214 . S
Co886 O887 2.160 . S
Co886 O892 2.058 . S
Co886 O902 2.057 . S
Co886 O917 2.037 . S
Co886 N921 2.145 . S
Co886 N942 2.257 . S
O887 Co885 2.143 . S
O887 Co886 2.160 . S
C888 O889 1.278 . S
C888 O896 1.224 . S
O889 C888 1.278 . S
C890 O891 1.245 . S
C890 O902 1.232 . S
O891 C890 1.245 . S
O892 Co886 2.058 . S
O892 C918 1.269 . S
O893 Co885 2.074 . S
O893 C918 1.257 . S
H894 C919 0.930 . S
H895 C925 0.930 . S
O896 Co885 2.093 . S
O896 C888 1.224 . S
H897 C929 0.929 . S
H898 C931 0.930 . S
H899 C932 0.930 . S
H900 C930 0.929 . S
H901 C933 0.928 . S
O902 Co886 2.057 . S
O902 C890 1.232 . S
H903 C922 0.929 . S
H904 C923 0.929 . S
H905 C935 0.931 . S
H906 C927 0.929 . S
H907 C936 0.930 . S
H908 C928 0.931 . S
O909 Co885 2.097 . S
O909 C937 1.214 . S
H910 C938 0.929 . S
H911 C939 0.929 . S
H912 C940 0.930 . S
H913 C941 0.929 . S
H914 C943 0.930 . S
H915 C920 0.930 . S
H916 C924 0.930 . S
O917 Co886 2.037 . S
O917 C937 1.234 . S
C918 O892 1.269 . S
C918 O893 1.257 . S
C919 H894 0.930 . S
C919 C922 1.388 . S
C919 C924 1.418 . S
C920 H915 0.930 . S
C920 C923 1.404 . S
C920 C924 1.353 . S
N921 Co886 2.145 . S
N921 C922 1.397 . S
N921 C923 1.334 . S
C922 H903 0.929 . S
C922 C919 1.388 . S
C922 N921 1.397 . S
C923 H904 0.929 . S
C923 C920 1.404 . S
C923 N921 1.334 . S
C924 H916 0.930 . S
C924 C919 1.418 . S
C924 C920 1.353 . S
C925 H895 0.930 . S
C925 N926 1.330 . S
C925 C927 1.446 . S
N926 Co885 2.151 . S
N926 C925 1.330 . S
N926 C930 1.418 . S
C927 H906 0.929 . S
C927 C925 1.446 . S
C927 C928 1.332 . S
C928 H908 0.931 . S
C928 C927 1.332 . S
C928 C929 1.267 . S
C929 H897 0.929 . S
C929 C928 1.267 . S
C929 C930 1.251 . S
C930 H900 0.929 . S
C930 N926 1.418 . S
C930 C929 1.251 . S
C931 H898 0.930 . S
C931 C933 1.406 . S
C931 C936 1.261 . S
C932 H899 0.930 . S
C932 N934 1.325 . S
C932 C935 1.357 . S
C933 H901 0.928 . S
C933 C931 1.406 . S
C933 N934 1.261 . S
N934 Co885 2.214 . S
N934 C932 1.325 . S
N934 C933 1.261 . S
C935 H905 0.931 . S
C935 C932 1.357 . S
C935 C936 1.312 . S
C936 H907 0.930 . S
C936 C931 1.261 . S
C936 C935 1.312 . S
C937 O909 1.214 . S
C937 O917 1.234 . S
C938 H910 0.929 . S
C938 C941 1.391 . S
C938 C943 1.391 . S
C939 H911 0.929 . S
C939 C940 1.390 . S
C939 N942 1.391 . S
C940 H912 0.930 . S
C940 C939 1.390 . S
C940 C941 1.392 . S
C941 H913 0.929 . S
C941 C938 1.391 . S
C941 C940 1.392 . S
N942 Co886 2.257 . S
N942 C939 1.391 . S
N942 C943 1.388 . S
C943 H914 0.930 . S
C943 C938 1.391 . S
C943 N942 1.388 . S
H944 C950 0.930 . S
H945 C954 0.930 . S
H946 C959 0.929 . S
H947 C957 0.929 . S
H948 C952 0.929 . S
H949 C958 0.929 . S
C950 H944 0.930 . S
C950 C951 1.367 1_554 S
C950 C958 1.378 . S
C951 C950 1.367 1_556 S
C951 C959 1.433 . S
C952 H948 0.929 . S
C952 C954 1.378 . S
C952 C956 1.344 1_556 S
C953 C956 1.462 1_556 S
C953 C958 1.348 1_556 S
C953 N961 1.429 . S
C954 H945 0.930 . S
C954 C952 1.378 . S
C954 C955 1.367 1_556 S
C955 C954 1.367 1_554 S
C955 C957 1.433 . S
C956 C952 1.344 1_554 S
C956 C953 1.462 1_554 S
C956 N960 1.434 . S
C957 H947 0.929 . S
C957 C955 1.433 . S
C957 N960 1.384 . S
C958 H949 0.929 . S
C958 C950 1.378 . S
C958 C953 1.348 1_554 S
C959 H946 0.929 . S
C959 C951 1.433 . S
C959 N961 1.384 . S
N960 C956 1.434 . S
N960 C957 1.384 . S
N961 C953 1.429 . S
N961 C959 1.384 . S
H962 C968 0.930 . S
H963 C972 0.930 . S
H964 C977 0.929 . S
H965 C975 0.929 . S
H966 C970 0.929 . S
H967 C976 0.929 . S
C968 H962 0.930 . S
C968 C969 1.367 . S
C968 C976 1.378 . S
C969 C968 1.367 . S
C969 C977 1.433 1_556 S
C970 H966 0.929 . S
C970 C972 1.378 . S
C970 C974 1.350 . S
C971 C974 1.463 1_556 S
C971 C976 1.350 . S
C971 N979 1.427 1_556 S
C972 H963 0.930 . S
C972 C970 1.378 . S
C972 C973 1.367 . S
C973 C972 1.367 . S
C973 C975 1.433 1_554 S
C974 C970 1.350 . S
C974 C971 1.463 1_554 S
C974 N978 1.427 1_554 S
C975 H965 0.929 . S
C975 C973 1.433 1_556 S
C975 N978 1.384 . S
C976 H967 0.929 . S
C976 C968 1.378 . S
C976 C971 1.350 . S
C977 H964 0.929 . S
C977 C969 1.433 1_554 S
C977 N979 1.384 . S
N978 C974 1.427 1_556 S
N978 C975 1.384 . S
N979 C971 1.427 1_554 S
N979 C977 1.384 . S
H980 C986 0.930 . S
H981 C990 0.930 . S
H982 C995 0.929 . S
H983 C993 0.929 . S
H984 C988 0.929 . S
H985 C994 0.929 . S
C986 H980 0.930 . S
C986 C987 1.367 1_554 S
C986 C994 1.378 . S
C987 C986 1.367 1_556 S
C987 C995 1.433 . S
C988 H984 0.929 . S
C988 C990 1.378 . S
C988 C992 1.342 1_556 S
C989 C992 1.462 1_556 S
C989 C994 1.346 1_556 S
C989 N997 1.432 . S
C990 H981 0.930 . S
C990 C988 1.378 . S
C990 C991 1.367 1_556 S
C991 C990 1.367 1_554 S
C991 C993 1.433 . S
C992 C988 1.342 1_554 S
C992 C989 1.462 1_554 S
C992 N996 1.436 . S
C993 H983 0.929 . S
C993 C991 1.433 . S
C993 N996 1.384 . S
C994 H985 0.929 . S
C994 C986 1.378 . S
C994 C989 1.346 1_554 S
C995 H982 0.929 . S
C995 C987 1.433 . S
C995 N997 1.384 . S
N996 C992 1.436 . S
N996 C993 1.384 . S
N997 C989 1.432 . S
N997 C995 1.384 . S
H998 C1004 0.930 . S
H999 C1008 0.930 . S
H1000 C1013 0.929 . S
H1001 C1011 0.929 . S
H1002 C1006 0.929 . S
H1003 C1012 0.929 . S
C1004 H998 0.930 . S
C1004 C1005 1.367 1_554 S
C1004 C1012 1.378 . S
C1005 C1004 1.367 1_556 S
C1005 C1013 1.433 . S
C1006 H1002 0.929 . S
C1006 C1008 1.378 . S
C1006 C1010 1.343 1_556 S
C1007 C1010 1.462 1_556 S
C1007 C1012 1.347 1_556 S
C1007 N1015 1.431 . S
C1008 H999 0.930 . S
C1008 C1006 1.378 . S
C1008 C1009 1.367 1_556 S
C1009 C1008 1.367 1_554 S
C1009 C1011 1.433 . S
C1010 C1006 1.343 1_554 S
C1010 C1007 1.462 1_554 S
C1010 N1014 1.435 . S
C1011 H1001 0.929 . S
C1011 C1009 1.433 . S
C1011 N1014 1.384 . S
C1012 H1003 0.929 . S
C1012 C1004 1.378 . S
C1012 C1007 1.347 1_554 S
C1013 H1000 0.929 . S
C1013 C1005 1.433 . S
C1013 N1015 1.384 . S
N1014 C1010 1.435 . S
N1014 C1011 1.384 . S
N1015 C1007 1.431 . S
N1015 C1013 1.384 . S
H1016 C1022 0.930 . S
H1017 C1026 0.930 . S
H1018 C1031 0.929 . S
H1019 C1029 0.929 . S
H1020 C1024 0.929 . S
H1021 C1030 0.929 . S
C1022 H1016 0.930 . S
C1022 C1023 1.367 . S
C1022 C1030 1.378 . S
C1023 C1022 1.367 . S
C1023 C1031 1.433 . S
C1024 H1020 0.929 . S
C1024 C1026 1.378 . S
C1024 C1028 1.350 . S
C1025 C1028 1.463 1_545 S
C1025 C1030 1.350 . S
C1025 N1033 1.427 . S
C1026 H1017 0.930 . S
C1026 C1024 1.378 . S
C1026 C1027 1.367 . S
C1027 C1026 1.367 . S
C1027 C1029 1.433 . S
C1028 C1024 1.350 . S
C1028 C1025 1.463 1_565 S
C1028 N1032 1.427 . S
C1029 H1019 0.929 . S
C1029 C1027 1.433 . S
C1029 N1032 1.384 . S
C1030 H1021 0.929 . S
C1030 C1022 1.378 . S
C1030 C1025 1.350 . S
C1031 H1018 0.929 . S
C1031 C1023 1.433 . S
C1031 N1033 1.384 . S
N1032 C1028 1.427 . S
N1032 C1029 1.384 . S
N1033 C1025 1.427 . S
N1033 C1031 1.384 . S
H1034 C1040 0.930 . S
H1035 C1044 0.930 . S
H1036 C1049 0.929 . S
H1037 C1047 0.929 . S
H1038 C1042 0.929 . S
H1039 C1048 0.929 . S
C1040 H1034 0.930 . S
C1040 C1041 1.367 . S
C1040 C1048 1.378 . S
C1041 C1040 1.367 . S
C1041 C1049 1.433 . S
C1042 H1038 0.929 . S
C1042 C1044 1.378 . S
C1042 C1046 1.350 . S
C1043 C1046 1.463 1_655 S
C1043 C1048 1.350 . S
C1043 N1051 1.427 . S
C1044 H1035 0.930 . S
C1044 C1042 1.378 . S
C1044 C1045 1.367 . S
C1045 C1044 1.367 . S
C1045 C1047 1.433 . S
C1046 C1042 1.350 . S
C1046 C1043 1.463 1_455 S
C1046 N1050 1.427 . S
C1047 H1037 0.929 . S
C1047 C1045 1.433 . S
C1047 N1050 1.384 . S
C1048 H1039 0.929 . S
C1048 C1040 1.378 . S
C1048 C1043 1.350 . S
C1049 H1036 0.929 . S
C1049 C1041 1.433 . S
C1049 N1051 1.384 . S
N1050 C1046 1.427 . S
N1050 C1047 1.384 . S
N1051 C1043 1.427 . S
N1051 C1049 1.384 . S
H1052 C1058 0.930 . S
H1053 C1062 0.930 . S
H1054 C1067 0.929 . S
H1055 C1065 0.929 . S
H1056 C1060 0.929 . S
H1057 C1066 0.929 . S
C1058 H1052 0.930 . S
C1058 C1059 1.367 . S
C1058 C1066 1.378 . S
C1059 C1058 1.367 . S
C1059 C1067 1.433 . S
C1060 H1056 0.929 . S
C1060 C1062 1.378 . S
C1060 C1064 1.350 . S
C1061 C1064 1.463 1_545 S
C1061 C1066 1.350 . S
C1061 N1069 1.427 . S
C1062 H1053 0.930 . S
C1062 C1060 1.378 . S
C1062 C1063 1.367 . S
C1063 C1062 1.367 . S
C1063 C1065 1.433 . S
C1064 C1060 1.350 . S
C1064 C1061 1.463 1_565 S
C1064 N1068 1.427 . S
C1065 H1055 0.929 . S
C1065 C1063 1.433 . S
C1065 N1068 1.384 . S
C1066 H1057 0.929 . S
C1066 C1058 1.378 . S
C1066 C1061 1.350 . S
C1067 H1054 0.929 . S
C1067 C1059 1.433 . S
C1067 N1069 1.384 . S
N1068 C1064 1.427 . S
N1068 C1065 1.384 . S
N1069 C1061 1.427 . S
N1069 C1067 1.384 . S
H1070 C1076 0.930 . S
H1071 C1080 0.930 . S
H1072 C1085 0.929 . S
H1073 C1083 0.929 . S
H1074 C1078 0.929 . S
H1075 C1084 0.929 . S
C1076 H1070 0.930 . S
C1076 C1077 1.367 . S
C1076 C1084 1.378 . S
C1077 C1076 1.367 . S
C1077 C1085 1.433 . S
C1078 H1074 0.929 . S
C1078 C1080 1.378 . S
C1078 C1082 1.350 . S
C1079 C1082 1.463 1_455 S
C1079 C1084 1.350 . S
C1079 N1087 1.427 . S
C1080 H1071 0.930 . S
C1080 C1078 1.378 . S
C1080 C1081 1.367 . S
C1081 C1080 1.367 . S
C1081 C1083 1.433 . S
C1082 C1078 1.350 . S
C1082 C1079 1.463 1_655 S
C1082 N1086 1.427 . S
C1083 H1073 0.929 . S
C1083 C1081 1.433 . S
C1083 N1086 1.384 . S
C1084 H1075 0.929 . S
C1084 C1076 1.378 . S
C1084 C1079 1.350 . S
C1085 H1072 0.929 . S
C1085 C1077 1.433 . S
C1085 N1087 1.384 . S
N1086 C1082 1.427 . S
N1086 C1083 1.384 . S
N1087 C1079 1.427 . S
N1087 C1085 1.384 . S
H1088 C1094 0.930 . S
H1089 C1098 0.930 . S
H1090 C1103 0.929 . S
H1091 C1101 0.929 . S
H1092 C1096 0.929 . S
H1093 C1102 0.929 . S
C1094 H1088 0.930 . S
C1094 C1095 1.367 . S
C1094 C1102 1.378 . S
C1095 C1094 1.367 . S
C1095 C1103 1.433 1_554 S
C1096 H1092 0.929 . S
C1096 C1098 1.378 . S
C1096 C1100 1.350 . S
C1097 C1100 1.463 1_554 S
C1097 C1102 1.350 . S
C1097 N1105 1.427 1_554 S
C1098 H1089 0.930 . S
C1098 C1096 1.378 . S
C1098 C1099 1.367 . S
C1099 C1098 1.367 . S
C1099 C1101 1.433 1_556 S
C1100 C1096 1.350 . S
C1100 C1097 1.463 1_556 S
C1100 N1104 1.427 1_556 S
C1101 H1091 0.929 . S
C1101 C1099 1.433 1_554 S
C1101 N1104 1.384 . S
C1102 H1093 0.929 . S
C1102 C1094 1.378 . S
C1102 C1097 1.350 . S
C1103 H1090 0.929 . S
C1103 C1095 1.433 1_556 S
C1103 N1105 1.384 . S
N1104 C1100 1.427 1_554 S
N1104 C1101 1.384 . S
N1105 C1097 1.427 1_556 S
N1105 C1103 1.384 . S
H1106 C1112 0.930 . S
H1107 C1116 0.930 . S
H1108 C1121 0.929 . S
H1109 C1119 0.929 . S
H1110 C1114 0.929 . S
H1111 C1120 0.929 . S
C1112 H1106 0.930 . S
C1112 C1113 1.367 . S
C1112 C1120 1.378 . S
C1113 C1112 1.367 . S
C1113 C1121 1.433 1_556 S
C1114 H1110 0.929 . S
C1114 C1116 1.378 . S
C1114 C1118 1.350 . S
C1115 C1118 1.463 1_556 S
C1115 C1120 1.350 . S
C1115 N1123 1.427 1_556 S
C1116 H1107 0.930 . S
C1116 C1114 1.378 . S
C1116 C1117 1.367 . S
C1117 C1116 1.367 . S
C1117 C1119 1.433 1_554 S
C1118 C1114 1.350 . S
C1118 C1115 1.463 1_554 S
C1118 N1122 1.427 1_554 S
C1119 H1109 0.929 . S
C1119 C1117 1.433 1_556 S
C1119 N1122 1.384 . S
C1120 H1111 0.929 . S
C1120 C1112 1.378 . S
C1120 C1115 1.350 . S
C1121 H1108 0.929 . S
C1121 C1113 1.433 1_554 S
C1121 N1123 1.384 . S
N1122 C1118 1.427 1_556 S
N1122 C1119 1.384 . S
N1123 C1115 1.427 1_554 S
N1123 C1121 1.384 . S
H1124 C1130 0.930 . S
H1125 C1134 0.930 . S
H1126 C1139 0.929 . S
H1127 C1137 0.929 . S
H1128 C1132 0.929 . S
H1129 C1138 0.929 . S
C1130 H1124 0.930 . S
C1130 C1131 1.367 1_556 S
C1130 C1138 1.378 . S
C1131 C1130 1.367 1_554 S
C1131 C1139 1.433 . S
C1132 H1128 0.929 . S
C1132 C1134 1.378 . S
C1132 C1136 1.339 1_554 S
C1133 C1136 1.462 1_554 S
C1133 C1138 1.335 1_554 S
C1133 N1141 1.444 . S
C1134 H1125 0.930 . S
C1134 C1132 1.378 . S
C1134 C1135 1.367 1_554 S
C1135 C1134 1.367 1_556 S
C1135 C1137 1.433 . S
C1136 C1132 1.339 1_556 S
C1136 C1133 1.462 1_556 S
C1136 N1140 1.439 . S
C1137 H1127 0.929 . S
C1137 C1135 1.433 . S
C1137 N1140 1.384 . S
C1138 H1129 0.929 . S
C1138 C1130 1.378 . S
C1138 C1133 1.335 1_556 S
C1139 H1126 0.929 . S
C1139 C1131 1.433 . S
C1139 N1141 1.384 . S
N1140 C1136 1.439 . S
N1140 C1137 1.384 . S
N1141 C1133 1.444 . S
N1141 C1139 1.384 . S
H1142 C1148 0.930 . S
H1143 C1152 0.930 . S
H1144 C1157 0.929 . S
H1145 C1155 0.929 . S
H1146 C1150 0.929 . S
H1147 C1156 0.929 . S
C1148 H1142 0.930 . S
C1148 C1149 1.367 1_554 S
C1148 C1156 1.378 . S
C1149 C1148 1.367 1_556 S
C1149 C1157 1.433 . S
C1150 H1146 0.929 . S
C1150 C1152 1.378 . S
C1150 C1154 1.335 1_556 S
C1151 C1154 1.462 1_556 S
C1151 C1156 1.339 1_556 S
C1151 N1159 1.439 . S
C1152 H1143 0.930 . S
C1152 C1150 1.378 . S
C1152 C1153 1.367 1_556 S
C1153 C1152 1.367 1_554 S
C1153 C1155 1.433 . S
C1154 C1150 1.335 1_554 S
C1154 C1151 1.462 1_554 S
C1154 N1158 1.444 . S
C1155 H1145 0.929 . S
C1155 C1153 1.433 . S
C1155 N1158 1.384 . S
C1156 H1147 0.929 . S
C1156 C1148 1.378 . S
C1156 C1151 1.339 1_554 S
C1157 H1144 0.929 . S
C1157 C1149 1.433 . S
C1157 N1159 1.384 . S
N1158 C1154 1.444 . S
N1158 C1155 1.384 . S
N1159 C1151 1.439 . S
N1159 C1157 1.384 . S
H1160 C1166 0.930 . S
H1161 C1170 0.930 . S
H1162 C1175 0.929 . S
H1163 C1173 0.929 . S
H1164 C1168 0.929 . S
H1165 C1174 0.929 . S
C1166 H1160 0.930 . S
C1166 C1167 1.367 . S
C1166 C1174 1.378 . S
C1167 C1166 1.367 . S
C1167 C1175 1.433 . S
C1168 H1164 0.929 . S
C1168 C1170 1.378 . S
C1168 C1172 1.350 . S
C1169 C1172 1.463 . S
C1169 C1174 1.350 . S
C1169 N1177 1.427 . S
C1170 H1161 0.930 . S
C1170 C1168 1.378 . S
C1170 C1171 1.367 . S
C1171 C1170 1.367 . S
C1171 C1173 1.433 . S
C1172 C1168 1.350 . S
C1172 C1169 1.463 . S
C1172 N1176 1.427 . S
C1173 H1163 0.929 . S
C1173 C1171 1.433 . S
C1173 N1176 1.384 . S
C1174 H1165 0.929 . S
C1174 C1166 1.378 . S
C1174 C1169 1.350 . S
C1175 H1162 0.929 . S
C1175 C1167 1.433 . S
C1175 N1177 1.384 . S
N1176 C1172 1.427 . S
N1176 C1173 1.384 . S
N1177 C1169 1.427 . S
N1177 C1175 1.384 . S
H1178 C1184 0.930 . S
H1179 C1188 0.930 . S
H1180 C1193 0.929 . S
H1181 C1191 0.929 . S
H1182 C1186 0.929 . S
H1183 C1192 0.929 . S
C1184 H1178 0.930 . S
C1184 C1185 1.367 . S
C1184 C1192 1.378 . S
C1185 C1184 1.367 . S
C1185 C1193 1.433 . S
C1186 H1182 0.929 . S
C1186 C1188 1.378 . S
C1186 C1190 1.350 . S
C1187 C1190 1.463 . S
C1187 C1192 1.350 . S
C1187 N1195 1.427 . S
C1188 H1179 0.930 . S
C1188 C1186 1.378 . S
C1188 C1189 1.367 . S
C1189 C1188 1.367 . S
C1189 C1191 1.433 . S
C1190 C1186 1.350 . S
C1190 C1187 1.463 . S
C1190 N1194 1.427 . S
C1191 H1181 0.929 . S
C1191 C1189 1.433 . S
C1191 N1194 1.384 . S
C1192 H1183 0.929 . S
C1192 C1184 1.378 . S
C1192 C1187 1.350 . S
C1193 H1180 0.929 . S
C1193 C1185 1.433 . S
C1193 N1195 1.384 . S
N1194 C1190 1.427 . S
N1194 C1191 1.384 . S
N1195 C1187 1.427 . S
N1195 C1193 1.384 . S
H1196 C1202 0.930 . S
H1197 C1206 0.930 . S
H1198 C1211 0.929 . S
H1199 C1209 0.929 . S
H1200 C1204 0.929 . S
H1201 C1210 0.929 . S
C1202 H1196 0.930 . S
C1202 C1203 1.367 . S
C1202 C1210 1.378 . S
C1203 C1202 1.367 . S
C1203 C1211 1.433 . S
C1204 H1200 0.929 . S
C1204 C1206 1.378 . S
C1204 C1208 1.350 . S
C1205 C1208 1.463 . S
C1205 C1210 1.350 . S
C1205 N1213 1.427 . S
C1206 H1197 0.930 . S
C1206 C1204 1.378 . S
C1206 C1207 1.367 . S
C1207 C1206 1.367 . S
C1207 C1209 1.433 . S
C1208 C1204 1.350 . S
C1208 C1205 1.463 . S
C1208 N1212 1.427 . S
C1209 H1199 0.929 . S
C1209 C1207 1.433 . S
C1209 N1212 1.384 . S
C1210 H1201 0.929 . S
C1210 C1202 1.378 . S
C1210 C1205 1.350 . S
C1211 H1198 0.929 . S
C1211 C1203 1.433 . S
C1211 N1213 1.384 . S
N1212 C1208 1.427 . S
N1212 C1209 1.384 . S
N1213 C1205 1.427 . S
N1213 C1211 1.384 . S
H1214 C1220 0.930 . S
H1215 C1224 0.930 . S
H1216 C1229 0.929 . S
H1217 C1227 0.929 . S
H1218 C1222 0.929 . S
H1219 C1228 0.929 . S
C1220 H1214 0.930 . S
C1220 C1221 1.367 . S
C1220 C1228 1.378 . S
C1221 C1220 1.367 . S
C1221 C1229 1.433 . S
C1222 H1218 0.929 . S
C1222 C1224 1.378 . S
C1222 C1226 1.350 . S
C1223 C1226 1.463 . S
C1223 C1228 1.350 . S
C1223 N1231 1.427 . S
C1224 H1215 0.930 . S
C1224 C1222 1.378 . S
C1224 C1225 1.367 . S
C1225 C1224 1.367 . S
C1225 C1227 1.433 . S
C1226 C1222 1.350 . S
C1226 C1223 1.463 . S
C1226 N1230 1.427 . S
C1227 H1217 0.929 . S
C1227 C1225 1.433 . S
C1227 N1230 1.384 . S
C1228 H1219 0.929 . S
C1228 C1220 1.378 . S
C1228 C1223 1.350 . S
C1229 H1216 0.929 . S
C1229 C1221 1.433 . S
C1229 N1231 1.384 . S
N1230 C1226 1.427 . S
N1230 C1227 1.384 . S
N1231 C1223 1.427 . S
N1231 C1229 1.384 . S
H1232 C1238 0.930 . S
H1233 C1242 0.930 . S
H1234 C1247 0.929 . S
H1235 C1245 0.929 . S
H1236 C1240 0.929 . S
H1237 C1246 0.929 . S
C1238 H1232 0.930 . S
C1238 C1239 1.367 . S
C1238 C1246 1.378 . S
C1239 C1238 1.367 . S
C1239 C1247 1.433 . S
C1240 H1236 0.929 . S
C1240 C1242 1.378 . S
C1240 C1244 1.350 . S
C1241 C1244 1.463 . S
C1241 C1246 1.350 . S
C1241 N1249 1.427 . S
C1242 H1233 0.930 . S
C1242 C1240 1.378 . S
C1242 C1243 1.367 . S
C1243 C1242 1.367 . S
C1243 C1245 1.433 . S
C1244 C1240 1.350 . S
C1244 C1241 1.463 . S
C1244 N1248 1.427 . S
C1245 H1235 0.929 . S
C1245 C1243 1.433 . S
C1245 N1248 1.384 . S
C1246 H1237 0.929 . S
C1246 C1238 1.378 . S
C1246 C1241 1.350 . S
C1247 H1234 0.929 . S
C1247 C1239 1.433 . S
C1247 N1249 1.384 . S
N1248 C1244 1.427 . S
N1248 C1245 1.384 . S
N1249 C1241 1.427 . S
N1249 C1247 1.384 . S
H1250 C1256 0.930 . S
H1251 C1260 0.930 . S
H1252 C1265 0.929 . S
H1253 C1263 0.929 . S
H1254 C1258 0.929 . S
H1255 C1264 0.929 . S
C1256 H1250 0.930 . S
C1256 C1257 1.367 . S
C1256 C1264 1.378 . S
C1257 C1256 1.367 . S
C1257 C1265 1.433 . S
C1258 H1254 0.929 . S
C1258 C1260 1.378 . S
C1258 C1262 1.350 . S
C1259 C1262 1.463 . S
C1259 C1264 1.350 . S
C1259 N1267 1.427 . S
C1260 H1251 0.930 . S
C1260 C1258 1.378 . S
C1260 C1261 1.367 . S
C1261 C1260 1.367 . S
C1261 C1263 1.433 . S
C1262 C1258 1.350 . S
C1262 C1259 1.463 . S
C1262 N1266 1.427 . S
C1263 H1253 0.929 . S
C1263 C1261 1.433 . S
C1263 N1266 1.384 . S
C1264 H1255 0.929 . S
C1264 C1256 1.378 . S
C1264 C1259 1.350 . S
C1265 H1252 0.929 . S
C1265 C1257 1.433 . S
C1265 N1267 1.384 . S
N1266 C1262 1.427 . S
N1266 C1263 1.384 . S
N1267 C1259 1.427 . S
N1267 C1265 1.384 . S
H1268 C1274 0.930 . S
H1269 C1278 0.930 . S
H1270 C1283 0.929 . S
H1271 C1281 0.929 . S
H1272 C1276 0.929 . S
H1273 C1282 0.929 . S
C1274 H1268 0.930 . S
C1274 C1275 1.367 . S
C1274 C1282 1.378 . S
C1275 C1274 1.367 . S
C1275 C1283 1.433 . S
C1276 H1272 0.929 . S
C1276 C1278 1.378 . S
C1276 C1280 1.350 . S
C1277 C1280 1.463 . S
C1277 C1282 1.350 . S
C1277 N1285 1.427 . S
C1278 H1269 0.930 . S
C1278 C1276 1.378 . S
C1278 C1279 1.367 . S
C1279 C1278 1.367 . S
C1279 C1281 1.433 . S
C1280 C1276 1.350 . S
C1280 C1277 1.463 . S
C1280 N1284 1.427 . S
C1281 H1271 0.929 . S
C1281 C1279 1.433 . S
C1281 N1284 1.384 . S
C1282 H1273 0.929 . S
C1282 C1274 1.378 . S
C1282 C1277 1.350 . S
C1283 H1270 0.929 . S
C1283 C1275 1.433 . S
C1283 N1285 1.384 . S
N1284 C1280 1.427 . S
N1284 C1281 1.384 . S
N1285 C1277 1.427 . S
N1285 C1283 1.384 . S
H1286 C1292 0.930 . S
H1287 C1296 0.930 . S
H1288 C1301 0.929 . S
H1289 C1299 0.929 . S
H1290 C1294 0.929 . S
H1291 C1300 0.929 . S
C1292 H1286 0.930 . S
C1292 C1293 1.367 . S
C1292 C1300 1.378 . S
C1293 C1292 1.367 . S
C1293 C1301 1.433 . S
C1294 H1290 0.929 . S
C1294 C1296 1.378 . S
C1294 C1298 1.350 . S
C1295 C1298 1.463 . S
C1295 C1300 1.350 . S
C1295 N1303 1.427 . S
C1296 H1287 0.930 . S
C1296 C1294 1.378 . S
C1296 C1297 1.367 . S
C1297 C1296 1.367 . S
C1297 C1299 1.433 . S
C1298 C1294 1.350 . S
C1298 C1295 1.463 . S
C1298 N1302 1.427 . S
C1299 H1289 0.929 . S
C1299 C1297 1.433 . S
C1299 N1302 1.384 . S
C1300 H1291 0.929 . S
C1300 C1292 1.378 . S
C1300 C1295 1.350 . S
C1301 H1288 0.929 . S
C1301 C1293 1.433 . S
C1301 N1303 1.384 . S
N1302 C1298 1.427 . S
N1302 C1299 1.384 . S
N1303 C1295 1.427 . S
N1303 C1301 1.384 . S
H1304 C1310 0.930 . S
H1305 C1314 0.930 . S
H1306 C1319 0.929 . S
H1307 C1317 0.929 . S
H1308 C1312 0.929 . S
H1309 C1318 0.929 . S
C1310 H1304 0.930 . S
C1310 C1311 1.367 . S
C1310 C1318 1.378 . S
C1311 C1310 1.367 . S
C1311 C1319 1.433 . S
C1312 H1308 0.929 . S
C1312 C1314 1.378 . S
C1312 C1316 1.350 . S
C1313 C1316 1.463 . S
C1313 C1318 1.350 . S
C1313 N1321 1.427 . S
C1314 H1305 0.930 . S
C1314 C1312 1.378 . S
C1314 C1315 1.367 . S
C1315 C1314 1.367 . S
C1315 C1317 1.433 . S
C1316 C1312 1.350 . S
C1316 C1313 1.463 . S
C1316 N1320 1.427 . S
C1317 H1307 0.929 . S
C1317 C1315 1.433 . S
C1317 N1320 1.384 . S
C1318 H1309 0.929 . S
C1318 C1310 1.378 . S
C1318 C1313 1.350 . S
C1319 H1306 0.929 . S
C1319 C1311 1.433 . S
C1319 N1321 1.384 . S
N1320 C1316 1.427 . S
N1320 C1317 1.384 . S
N1321 C1313 1.427 . S
N1321 C1319 1.384 . S
H1322 C1328 0.930 . S
H1323 C1332 0.930 . S
H1324 C1337 0.929 . S
H1325 C1335 0.929 . S
H1326 C1330 0.929 . S
H1327 C1336 0.929 . S
C1328 H1322 0.930 . S
C1328 C1329 1.367 . S
C1328 C1336 1.378 . S
C1329 C1328 1.367 . S
C1329 C1337 1.433 . S
C1330 H1326 0.929 . S
C1330 C1332 1.378 . S
C1330 C1334 1.350 . S
C1331 C1334 1.463 . S
C1331 C1336 1.350 . S
C1331 N1339 1.427 . S
C1332 H1323 0.930 . S
C1332 C1330 1.378 . S
C1332 C1333 1.367 . S
C1333 C1332 1.367 . S
C1333 C1335 1.433 . S
C1334 C1330 1.350 . S
C1334 C1331 1.463 . S
C1334 N1338 1.427 . S
C1335 H1325 0.929 . S
C1335 C1333 1.433 . S
C1335 N1338 1.384 . S
C1336 H1327 0.929 . S
C1336 C1328 1.378 . S
C1336 C1331 1.350 . S
C1337 H1324 0.929 . S
C1337 C1329 1.433 . S
C1337 N1339 1.384 . S
N1338 C1334 1.427 . S
N1338 C1335 1.384 . S
N1339 C1331 1.427 . S
N1339 C1337 1.384 . S
H1340 C1346 0.930 . S
H1341 C1350 0.930 . S
H1342 C1355 0.929 . S
H1343 C1353 0.929 . S
H1344 C1348 0.929 . S
H1345 C1354 0.929 . S
C1346 H1340 0.930 . S
C1346 C1347 1.367 . S
C1346 C1354 1.378 . S
C1347 C1346 1.367 . S
C1347 C1355 1.433 . S
C1348 H1344 0.929 . S
C1348 C1350 1.378 . S
C1348 C1352 1.350 . S
C1349 C1352 1.463 . S
C1349 C1354 1.350 . S
C1349 N1357 1.427 . S
C1350 H1341 0.930 . S
C1350 C1348 1.378 . S
C1350 C1351 1.367 . S
C1351 C1350 1.367 . S
C1351 C1353 1.433 . S
C1352 C1348 1.350 . S
C1352 C1349 1.463 . S
C1352 N1356 1.427 . S
C1353 H1343 0.929 . S
C1353 C1351 1.433 . S
C1353 N1356 1.384 . S
C1354 H1345 0.929 . S
C1354 C1346 1.378 . S
C1354 C1349 1.350 . S
C1355 H1342 0.929 . S
C1355 C1347 1.433 . S
C1355 N1357 1.384 . S
N1356 C1352 1.427 . S
N1356 C1353 1.384 . S
N1357 C1349 1.427 . S
N1357 C1355 1.384 . S
H1358 C1364 0.930 . S
H1359 C1368 0.930 . S
H1360 C1373 0.929 . S
H1361 C1371 0.929 . S
H1362 C1366 0.929 . S
H1363 C1372 0.929 . S
C1364 H1358 0.930 . S
C1364 C1365 1.367 . S
C1364 C1372 1.378 . S
C1365 C1364 1.367 . S
C1365 C1373 1.433 . S
C1366 H1362 0.929 . S
C1366 C1368 1.378 . S
C1366 C1370 1.350 . S
C1367 C1370 1.463 . S
C1367 C1372 1.350 . S
C1367 N1375 1.427 . S
C1368 H1359 0.930 . S
C1368 C1366 1.378 . S
C1368 C1369 1.367 . S
C1369 C1368 1.367 . S
C1369 C1371 1.433 . S
C1370 C1366 1.350 . S
C1370 C1367 1.463 . S
C1370 N1374 1.427 . S
C1371 H1361 0.929 . S
C1371 C1369 1.433 . S
C1371 N1374 1.384 . S
C1372 H1363 0.929 . S
C1372 C1364 1.378 . S
C1372 C1367 1.350 . S
C1373 H1360 0.929 . S
C1373 C1365 1.433 . S
C1373 N1375 1.384 . S
N1374 C1370 1.427 . S
N1374 C1371 1.384 . S
N1375 C1367 1.427 . S
N1375 C1373 1.384 . S
H1376 C1382 0.930 . S
H1377 C1386 0.930 . S
H1378 C1391 0.929 . S
H1379 C1389 0.929 . S
H1380 C1384 0.929 . S
H1381 C1390 0.929 . S
C1382 H1376 0.930 . S
C1382 C1383 1.367 . S
C1382 C1390 1.378 . S
C1383 C1382 1.367 . S
C1383 C1391 1.433 . S
C1384 H1380 0.929 . S
C1384 C1386 1.378 . S
C1384 C1388 1.350 . S
C1385 C1388 1.463 . S
C1385 C1390 1.350 . S
C1385 N1393 1.427 . S
C1386 H1377 0.930 . S
C1386 C1384 1.378 . S
C1386 C1387 1.367 . S
C1387 C1386 1.367 . S
C1387 C1389 1.433 . S
C1388 C1384 1.350 . S
C1388 C1385 1.463 . S
C1388 N1392 1.427 . S
C1389 H1379 0.929 . S
C1389 C1387 1.433 . S
C1389 N1392 1.384 . S
C1390 H1381 0.929 . S
C1390 C1382 1.378 . S
C1390 C1385 1.350 . S
C1391 H1378 0.929 . S
C1391 C1383 1.433 . S
C1391 N1393 1.384 . S
N1392 C1388 1.427 . S
N1392 C1389 1.384 . S
N1393 C1385 1.427 . S
N1393 C1391 1.384 . S
H1394 C1400 0.930 . S
H1395 C1404 0.930 . S
H1396 C1409 0.929 . S
H1397 C1407 0.929 . S
H1398 C1402 0.929 . S
H1399 C1408 0.929 . S
C1400 H1394 0.930 . S
C1400 C1401 1.367 . S
C1400 C1408 1.378 . S
C1401 C1400 1.367 . S
C1401 C1409 1.433 . S
C1402 H1398 0.929 . S
C1402 C1404 1.378 . S
C1402 C1406 1.350 . S
C1403 C1406 1.463 . S
C1403 C1408 1.350 . S
C1403 N1411 1.427 . S
C1404 H1395 0.930 . S
C1404 C1402 1.378 . S
C1404 C1405 1.367 . S
C1405 C1404 1.367 . S
C1405 C1407 1.433 . S
C1406 C1402 1.350 . S
C1406 C1403 1.463 . S
C1406 N1410 1.427 . S
C1407 H1397 0.929 . S
C1407 C1405 1.433 . S
C1407 N1410 1.384 . S
C1408 H1399 0.929 . S
C1408 C1400 1.378 . S
C1408 C1403 1.350 . S
C1409 H1396 0.929 . S
C1409 C1401 1.433 . S
C1409 N1411 1.384 . S
N1410 C1406 1.427 . S
N1410 C1407 1.384 . S
N1411 C1403 1.427 . S
N1411 C1409 1.384 . S
H1412 C1418 0.930 . S
H1413 C1422 0.930 . S
H1414 C1427 0.929 . S
H1415 C1425 0.929 . S
H1416 C1420 0.929 . S
H1417 C1426 0.929 . S
C1418 H1412 0.930 . S
C1418 C1419 1.367 . S
C1418 C1426 1.378 . S
C1419 C1418 1.367 . S
C1419 C1427 1.433 . S
C1420 H1416 0.929 . S
C1420 C1422 1.378 . S
C1420 C1424 1.350 . S
C1421 C1424 1.463 . S
C1421 C1426 1.350 . S
C1421 N1429 1.427 . S
C1422 H1413 0.930 . S
C1422 C1420 1.378 . S
C1422 C1423 1.367 . S
C1423 C1422 1.367 . S
C1423 C1425 1.433 . S
C1424 C1420 1.350 . S
C1424 C1421 1.463 . S
C1424 N1428 1.427 . S
C1425 H1415 0.929 . S
C1425 C1423 1.433 . S
C1425 N1428 1.384 . S
C1426 H1417 0.929 . S
C1426 C1418 1.378 . S
C1426 C1421 1.350 . S
C1427 H1414 0.929 . S
C1427 C1419 1.433 . S
C1427 N1429 1.384 . S
N1428 C1424 1.427 . S
N1428 C1425 1.384 . S
N1429 C1421 1.427 . S
N1429 C1427 1.384 . S
H1430 C1436 0.930 . S
H1431 C1440 0.930 . S
H1432 C1445 0.929 . S
H1433 C1443 0.929 . S
H1434 C1438 0.929 . S
H1435 C1444 0.929 . S
C1436 H1430 0.930 . S
C1436 C1437 1.367 . S
C1436 C1444 1.378 . S
C1437 C1436 1.367 . S
C1437 C1445 1.433 . S
C1438 H1434 0.929 . S
C1438 C1440 1.378 . S
C1438 C1442 1.350 . S
C1439 C1442 1.463 . S
C1439 C1444 1.350 . S
C1439 N1447 1.427 . S
C1440 H1431 0.930 . S
C1440 C1438 1.378 . S
C1440 C1441 1.367 . S
C1441 C1440 1.367 . S
C1441 C1443 1.433 . S
C1442 C1438 1.350 . S
C1442 C1439 1.463 . S
C1442 N1446 1.427 . S
C1443 H1433 0.929 . S
C1443 C1441 1.433 . S
C1443 N1446 1.384 . S
C1444 H1435 0.929 . S
C1444 C1436 1.378 . S
C1444 C1439 1.350 . S
C1445 H1432 0.929 . S
C1445 C1437 1.433 . S
C1445 N1447 1.384 . S
N1446 C1442 1.427 . S
N1446 C1443 1.384 . S
N1447 C1439 1.427 . S
N1447 C1445 1.384 . S
H1448 C1454 0.930 . S
H1449 C1458 0.930 . S
H1450 C1463 0.929 . S
H1451 C1461 0.929 . S
H1452 C1456 0.929 . S
H1453 C1462 0.929 . S
C1454 H1448 0.930 . S
C1454 C1455 1.367 . S
C1454 C1462 1.378 . S
C1455 C1454 1.367 . S
C1455 C1463 1.433 . S
C1456 H1452 0.929 . S
C1456 C1458 1.378 . S
C1456 C1460 1.350 . S
C1457 C1460 1.463 . S
C1457 C1462 1.350 . S
C1457 N1465 1.427 . S
C1458 H1449 0.930 . S
C1458 C1456 1.378 . S
C1458 C1459 1.367 . S
C1459 C1458 1.367 . S
C1459 C1461 1.433 . S
C1460 C1456 1.350 . S
C1460 C1457 1.463 . S
C1460 N1464 1.427 . S
C1461 H1451 0.929 . S
C1461 C1459 1.433 . S
C1461 N1464 1.384 . S
C1462 H1453 0.929 . S
C1462 C1454 1.378 . S
C1462 C1457 1.350 . S
C1463 H1450 0.929 . S
C1463 C1455 1.433 . S
C1463 N1465 1.384 . S
N1464 C1460 1.427 . S
N1464 C1461 1.384 . S
N1465 C1457 1.427 . S
N1465 C1463 1.384 . S
H1466 C1472 0.930 . S
H1467 C1476 0.930 . S
H1468 C1481 0.929 . S
H1469 C1479 0.929 . S
H1470 C1474 0.929 . S
H1471 C1480 0.929 . S
C1472 H1466 0.930 . S
C1472 C1473 1.367 . S
C1472 C1480 1.378 . S
C1473 C1472 1.367 . S
C1473 C1481 1.433 . S
C1474 H1470 0.929 . S
C1474 C1476 1.378 . S
C1474 C1478 1.350 . S
C1475 C1478 1.463 . S
C1475 C1480 1.350 . S
C1475 N1483 1.427 . S
C1476 H1467 0.930 . S
C1476 C1474 1.378 . S
C1476 C1477 1.367 . S
C1477 C1476 1.367 . S
C1477 C1479 1.433 . S
C1478 C1474 1.350 . S
C1478 C1475 1.463 . S
C1478 N1482 1.427 . S
C1479 H1469 0.929 . S
C1479 C1477 1.433 . S
C1479 N1482 1.384 . S
C1480 H1471 0.929 . S
C1480 C1472 1.378 . S
C1480 C1475 1.350 . S
C1481 H1468 0.929 . S
C1481 C1473 1.433 . S
C1481 N1483 1.384 . S
N1482 C1478 1.427 . S
N1482 C1479 1.384 . S
N1483 C1475 1.427 . S
N1483 C1481 1.384 . S
H1484 C1490 0.930 . S
H1485 C1494 0.930 . S
H1486 C1499 0.929 . S
H1487 C1497 0.929 . S
H1488 C1492 0.929 . S
H1489 C1498 0.929 . S
C1490 H1484 0.930 . S
C1490 C1491 1.367 . S
C1490 C1498 1.378 . S
C1491 C1490 1.367 . S
C1491 C1499 1.433 . S
C1492 H1488 0.929 . S
C1492 C1494 1.378 . S
C1492 C1496 1.350 . S
C1493 C1496 1.463 . S
C1493 C1498 1.350 . S
C1493 N1501 1.427 . S
C1494 H1485 0.930 . S
C1494 C1492 1.378 . S
C1494 C1495 1.367 . S
C1495 C1494 1.367 . S
C1495 C1497 1.433 . S
C1496 C1492 1.350 . S
C1496 C1493 1.463 . S
C1496 N1500 1.427 . S
C1497 H1487 0.929 . S
C1497 C1495 1.433 . S
C1497 N1500 1.384 . S
C1498 H1489 0.929 . S
C1498 C1490 1.378 . S
C1498 C1493 1.350 . S
C1499 H1486 0.929 . S
C1499 C1491 1.433 . S
C1499 N1501 1.384 . S
N1500 C1496 1.427 . S
N1500 C1497 1.384 . S
N1501 C1493 1.427 . S
N1501 C1499 1.384 . S
H1502 C1508 0.930 . S
H1503 C1512 0.930 . S
H1504 C1517 0.929 . S
H1505 C1515 0.929 . S
H1506 C1510 0.929 . S
H1507 C1516 0.929 . S
C1508 H1502 0.930 . S
C1508 C1509 1.367 . S
C1508 C1516 1.378 . S
C1509 C1508 1.367 . S
C1509 C1517 1.433 . S
C1510 H1506 0.929 . S
C1510 C1512 1.378 . S
C1510 C1514 1.350 . S
C1511 C1514 1.463 . S
C1511 C1516 1.350 . S
C1511 N1519 1.427 . S
C1512 H1503 0.930 . S
C1512 C1510 1.378 . S
C1512 C1513 1.367 . S
C1513 C1512 1.367 . S
C1513 C1515 1.433 . S
C1514 C1510 1.350 . S
C1514 C1511 1.463 . S
C1514 N1518 1.427 . S
C1515 H1505 0.929 . S
C1515 C1513 1.433 . S
C1515 N1518 1.384 . S
C1516 H1507 0.929 . S
C1516 C1508 1.378 . S
C1516 C1511 1.350 . S
C1517 H1504 0.929 . S
C1517 C1509 1.433 . S
C1517 N1519 1.384 . S
N1518 C1514 1.427 . S
N1518 C1515 1.384 . S
N1519 C1511 1.427 . S
N1519 C1517 1.384 . S
C951 C241 1.565 . S
C955 C5 1.564 . S
C969 C300 1.565 . S
C973 C64 1.565 . S
C987 C359 1.565 . S
C991 C123 1.564 . S
C1005 C418 1.565 . S
C1009 C182 1.564 . S
C1023 C713 1.565 . S
C1027 C477 1.565 . S
C1041 C772 1.565 . S
C1045 C536 1.565 . S
C1059 C595 1.565 . S
C1063 C831 1.565 . S
C1077 C890 1.565 . S
C1081 C654 1.565 . S
C1095 C52 1.607 . S
C1099 C347 1.606 . S
C1113 C406 1.607 . S
C1117 C111 1.606 . S
C1131 C170 1.601 . S
C1135 C465 1.602 . S
C1149 C288 1.601 . S
C1153 C229 1.602 . S
C1167 C819 1.601 . S
C1171 C524 1.602 . S
C1185 C878 1.606 . S
C1189 C583 1.606 . S
C1203 C642 1.602 . S
C1207 C937 1.603 . S
C1221 C701 1.602 . S
C1225 C760 1.601 . S
C1239 C918 1.774 . S
C1243 C33 1.772 . S
C1257 C741 1.774 . S
C1261 C92 1.773 . S
C1275 C800 1.774 . S
C1279 C151 1.772 . S
C1293 C859 1.776 . S
C1297 C210 1.772 . S
C1311 C564 1.774 . S
C1315 C269 1.776 . S
C1329 C623 1.776 . S
C1333 C328 1.776 . S
C1347 C387 1.774 . S
C1351 C682 1.777 . S
C1365 C446 1.776 . S
C1369 C505 1.777 . S
C1383 C770 1.112 . S
C1387 C121 1.124 . S
C1401 C829 1.114 . S
C1405 C180 1.120 . S
C1419 C888 1.112 . S
C1423 C3 1.123 . S
C1437 C62 1.112 . S
C1441 C711 1.124 . S
C1455 C652 1.123 . S
C1459 C357 1.110 . S
C1473 C416 1.111 . S
C1477 C475 1.121 . S
C1491 C534 1.115 . S
C1495 C239 1.119 . S
C1509 C593 1.117 . S
C1513 C298 1.113 . S
