# Generated by pormake.
# Topology ukb, (4)-cn, num edge types: 1
# Building blocks:
#     Node 0, Type 0, BuildingBlock: QUQFOY_clean_sbu_3, # of connection points: 4
#     Node 1, Type 0, BuildingBlock: QUQFOY_clean_sbu_3, # of connection points: 4
#     Node 2, Type 0, BuildingBlock: QUQFOY_clean_sbu_3, # of connection points: 4
#     Node 3, Type 0, BuildingBlock: QUQFOY_clean_sbu_3, # of connection points: 4
#     Node 4, Type 0, BuildingBlock: QUQFOY_clean_sbu_3, # of connection points: 4
#     Node 5, Type 0, BuildingBlock: QUQFOY_clean_sbu_3, # of connection points: 4
#     Node 6, Type 0, BuildingBlock: QUQFOY_clean_sbu_3, # of connection points: 4
#     Node 7, Type 0, BuildingBlock: QUQFOY_clean_sbu_3, # of connection points: 4
#     Node 8, Type 0, BuildingBlock: QUQFOY_clean_sbu_3, # of connection points: 4
#     Node 9, Type 0, BuildingBlock: QUQFOY_clean_sbu_3, # of connection points: 4
#     Node 10, Type 0, BuildingBlock: QUQFOY_clean_sbu_3, # of connection points: 4
#     Node 11, Type 0, BuildingBlock: QUQFOY_clean_sbu_3, # of connection points: 4
#     Node 12, Type 0, BuildingBlock: QUQFOY_clean_sbu_3, # of connection points: 4
#     Node 13, Type 0, BuildingBlock: QUQFOY_clean_sbu_3, # of connection points: 4
#     Node 14, Type 0, BuildingBlock: QUQFOY_clean_sbu_3, # of connection points: 4
#     Node 15, Type 0, BuildingBlock: QUQFOY_clean_sbu_3, # of connection points: 4
#     Edge 16, Type (0, 0), BuildingBlock: XIVTED_clean_linker_0, # of connection points: 2
#     Edge 17, Type (0, 0), BuildingBlock: XIVTED_clean_linker_0, # of connection points: 2
#     Edge 18, Type (0, 0), BuildingBlock: XIVTED_clean_linker_0, # of connection points: 2
#     Edge 19, Type (0, 0), BuildingBlock: XIVTED_clean_linker_0, # of connection points: 2
#     Edge 20, Type (0, 0), BuildingBlock: XIVTED_clean_linker_0, # of connection points: 2
#     Edge 21, Type (0, 0), BuildingBlock: XIVTED_clean_linker_0, # of connection points: 2
#     Edge 22, Type (0, 0), BuildingBlock: XIVTED_clean_linker_0, # of connection points: 2
#     Edge 23, Type (0, 0), BuildingBlock: XIVTED_clean_linker_0, # of connection points: 2
#     Edge 24, Type (0, 0), BuildingBlock: XIVTED_clean_linker_0, # of connection points: 2
#     Edge 25, Type (0, 0), BuildingBlock: XIVTED_clean_linker_0, # of connection points: 2
#     Edge 26, Type (0, 0), BuildingBlock: XIVTED_clean_linker_0, # of connection points: 2
#     Edge 27, Type (0, 0), BuildingBlock: XIVTED_clean_linker_0, # of connection points: 2
#     Edge 28, Type (0, 0), BuildingBlock: XIVTED_clean_linker_0, # of connection points: 2
#     Edge 29, Type (0, 0), BuildingBlock: XIVTED_clean_linker_0, # of connection points: 2
#     Edge 30, Type (0, 0), BuildingBlock: XIVTED_clean_linker_0, # of connection points: 2
#     Edge 31, Type (0, 0), BuildingBlock: XIVTED_clean_linker_0, # of connection points: 2
#     Edge 32, Type (0, 0), BuildingBlock: XIVTED_clean_linker_0, # of connection points: 2
#     Edge 33, Type (0, 0), BuildingBlock: XIVTED_clean_linker_0, # of connection points: 2
#     Edge 34, Type (0, 0), BuildingBlock: XIVTED_clean_linker_0, # of connection points: 2
#     Edge 35, Type (0, 0), BuildingBlock: XIVTED_clean_linker_0, # of connection points: 2
#     Edge 36, Type (0, 0), BuildingBlock: XIVTED_clean_linker_0, # of connection points: 2
#     Edge 37, Type (0, 0), BuildingBlock: XIVTED_clean_linker_0, # of connection points: 2
#     Edge 38, Type (0, 0), BuildingBlock: XIVTED_clean_linker_0, # of connection points: 2
#     Edge 39, Type (0, 0), BuildingBlock: XIVTED_clean_linker_0, # of connection points: 2
#     Edge 40, Type (0, 0), BuildingBlock: XIVTED_clean_linker_0, # of connection points: 2
#     Edge 41, Type (0, 0), BuildingBlock: XIVTED_clean_linker_0, # of connection points: 2
#     Edge 42, Type (0, 0), BuildingBlock: XIVTED_clean_linker_0, # of connection points: 2
#     Edge 43, Type (0, 0), BuildingBlock: XIVTED_clean_linker_0, # of connection points: 2
#     Edge 44, Type (0, 0), BuildingBlock: XIVTED_clean_linker_0, # of connection points: 2
#     Edge 45, Type (0, 0), BuildingBlock: XIVTED_clean_linker_0, # of connection points: 2
#     Edge 46, Type (0, 0), BuildingBlock: XIVTED_clean_linker_0, # of connection points: 2
#     Edge 47, Type (0, 0), BuildingBlock: XIVTED_clean_linker_0, # of connection points: 2
# Relax obj value: 0.084
# Max RMSD: 0.048
# Mean RMSD: 0.048
data_MOF--net-ukb--node1-QUQFOY_clean_sbu_3--edge1-XIVTED_clean_linker_0
_symmetry_space_group_name_H-M    P1
_symmetry_Int_Tables_number       1
_symmetry_cell_setting            triclinic
loop_
_symmetry_equiv_pos_as_xyz
'x, y, z'
_cell_length_a     46.650566
_cell_length_b     46.403602
_cell_length_c     40.111059
_cell_angle_alpha  89.924571
_cell_angle_beta   89.614377
_cell_angle_gamma 90.065625
loop_
_atom_site_label
_atom_site_type_symbol
_atom_site_fract_x
_atom_site_fract_y
_atom_site_fract_z
_atom_type_partial_charge
C0 C 0.5097 0.18105 0.08368 0.0
O1 O 0.53442 0.16969 0.0834 0.0
Cd2 Cd 0.56141 0.16398 0.13327 0.0
O3 O 0.49618 0.18503 0.11102 0.0
Cd4 Cd 0.50103 0.17071 0.1709 0.0
C5 C 0.54427 0.2283 0.17433 0.0
O6 O 0.53609 0.13141 0.16805 0.0
O7 O 0.53063 0.15184 0.21588 0.0
O8 O 0.45775 0.14235 0.1645 0.0
C9 C 0.54274 0.13241 0.19865 0.0
O10 O 0.5616 0.21226 0.1581 0.0
C11 C 0.44481 0.15214 0.19 0.0
O12 O 0.51936 0.21926 0.18257 0.0
O13 O 0.45765 0.17165 0.20646 0.0
C14 C 0.27266 0.51377 0.58597 0.0
O15 O 0.28444 0.53842 0.58608 0.0
Cd16 Cd 0.29076 0.56448 0.6367 0.0
O17 O 0.26869 0.49983 0.61304 0.0
Cd18 Cd 0.28368 0.50344 0.67277 0.0
C19 C 0.22673 0.54697 0.67825 0.0
O20 O 0.32338 0.5381 0.66973 0.0
O21 O 0.30353 0.53233 0.71794 0.0
O22 O 0.31028 0.45934 0.66303 0.0
C23 C 0.32296 0.54431 0.70052 0.0
O24 O 0.24281 0.56448 0.66222 0.0
C25 C 0.30203 0.44644 0.68931 0.0
O26 O 0.23554 0.52179 0.68581 0.0
O27 O 0.28409 0.45965 0.70779 0.0
C28 C 0.93059 0.26643 0.09377 0.0
O29 O 0.90503 0.27125 0.10331 0.0
Cd30 Cd 0.88805 0.28949 0.15515 0.0
O31 O 0.9517 0.27154 0.11296 0.0
Cd32 Cd 0.95471 0.28859 0.17221 0.0
C33 C 0.91411 0.23257 0.19927 0.0
O34 O 0.91928 0.32729 0.17043 0.0
O35 O 0.93032 0.31282 0.21939 0.0
O36 O -0.00107 0.31507 0.15964 0.0
C37 C 0.91663 0.3306 0.20155 0.0
O38 O 0.89257 0.24822 0.19225 0.0
C39 C 0.0124 0.30637 0.18516 0.0
O40 O 0.93954 0.24038 0.19158 0.0
O41 O -0.0004 0.28818 0.20372 0.0
C42 C 0.18 0.94795 0.58948 0.0
O43 O 0.16801 0.9234 0.58972 0.0
Cd44 Cd 0.16089 0.89701 0.6401 0.0
O45 O 0.18402 0.96182 0.61648 0.0
Cd46 Cd 0.16894 0.95811 0.67648 0.0
C47 C 0.22501 0.91326 0.68112 0.0
O48 O 0.12882 0.92407 0.67343 0.0
O49 O 0.1484 0.92905 0.72155 0.0
O50 O 0.14324 0.00301 0.66828 0.0
C51 C 0.129 0.91744 0.70411 0.0
O52 O 0.20869 0.89604 0.66528 0.0
C53 C 0.15198 0.01524 0.69461 0.0
O54 O 0.21663 0.9386 0.6887 0.0
O55 O 0.16975 0.0013 0.71233 0.0
C56 C 0.51025 0.27587 0.86828 0.0
O57 O 0.53501 0.2872 0.86812 0.0
Cd58 Cd 0.56159 0.29301 0.81761 0.0
O59 O 0.49659 0.27206 0.84121 0.0
Cd60 Cd 0.50099 0.28679 0.78128 0.0
C61 C 0.54352 0.22893 0.77655 0.0
O62 O 0.53609 0.32606 0.7841 0.0
O63 O 0.53068 0.30618 0.73605 0.0
O64 O 0.45742 0.31414 0.79058 0.0
C65 C 0.54277 0.32544 0.7534 0.0
O66 O 0.56104 0.24481 0.79251 0.0
C67 C 0.44456 0.30573 0.76456 0.0
O68 O 0.51868 0.23816 0.76884 0.0
O69 O 0.45762 0.28751 0.7463 0.0
C70 C 0.17887 0.51479 0.37042 0.0
O71 O 0.16793 0.53981 0.37007 0.0
Cd72 Cd 0.16192 0.56614 0.31958 0.0
O73 O 0.18265 0.50073 0.34343 0.0
Cd74 Cd 0.16892 0.50522 0.28329 0.0
C75 C 0.22604 0.54893 0.2785 0.0
O76 O 0.12919 0.53972 0.28663 0.0
O77 O 0.14921 0.53476 0.23845 0.0
O78 O 0.14266 0.46031 0.29025 0.0
C79 C 0.12963 0.5463 0.25594 0.0
O80 O 0.21001 0.56657 0.29432 0.0
C81 C 0.15182 0.44853 0.2637 0.0
O82 O 0.2171 0.52377 0.27109 0.0
O83 O 0.17003 0.46268 0.24654 0.0
C84 C 0.93011 0.1813 0.86635 0.0
O85 O 0.90502 0.17254 0.85965 0.0
Cd86 Cd 0.88622 0.16437 0.80608 0.0
O87 O 0.94902 0.18408 0.84336 0.0
Cd88 Cd 0.95185 0.17229 0.78178 0.0
C89 C 0.908 0.22876 0.76882 0.0
O90 O 0.91891 0.13161 0.78196 0.0
O91 O 0.92752 0.14937 0.73362 0.0
O92 O -0.00337 0.14744 0.79386 0.0
C93 C 0.9152 0.13002 0.75086 0.0
O94 O 0.88873 0.21216 0.78078 0.0
C95 C 0.01025 0.1567 0.76853 0.0
O96 O 0.934 0.22049 0.76649 0.0
O97 O -0.0028 0.17453 0.74996 0.0
C98 C 0.27449 0.94301 0.3729 0.0
O99 O 0.28536 0.91796 0.37233 0.0
Cd100 Cd 0.29103 0.89223 0.32129 0.0
O101 O 0.27091 0.95723 0.34603 0.0
Cd102 Cd 0.28514 0.95364 0.28589 0.0
C103 C 0.22736 0.91107 0.28097 0.0
O104 O 0.32418 0.91836 0.28798 0.0
O105 O 0.30449 0.92473 0.24009 0.0
O106 O 0.31245 -0.00276 0.29554 0.0
C107 C 0.32368 0.91235 0.25714 0.0
O108 O 0.24306 0.89311 0.29652 0.0
C109 C 0.30413 0.0106 0.26974 0.0
O110 O 0.23667 0.93617 0.27363 0.0
O111 O 0.28595 -0.00218 0.25144 0.0
C112 C 0.44268 0.77492 0.86995 0.0
O113 O 0.41775 0.7858 0.87053 0.0
Cd114 Cd 0.39114 0.79194 0.8205 0.0
O115 O 0.45629 0.77179 0.84252 0.0
Cd116 Cd 0.45154 0.78728 0.78306 0.0
C117 C 0.40989 0.72879 0.77786 0.0
O118 O 0.41616 0.82613 0.78742 0.0
O119 O 0.42166 0.80721 0.73877 0.0
O120 O 0.4949 0.81484 0.79235 0.0
C121 C 0.40951 0.82607 0.75681 0.0
O122 O 0.39214 0.74409 0.79444 0.0
C123 C 0.50791 0.80679 0.76609 0.0
O124 O 0.43457 0.7386 0.76992 0.0
O125 O 0.49496 0.78878 0.74761 0.0
C126 C 0.68141 0.44429 0.3684 0.0
O127 O 0.67118 0.41894 0.36833 0.0
Cd128 Cd 0.66632 0.39266 0.31767 0.0
O129 O 0.68475 0.45829 0.34128 0.0
Cd130 Cd 0.67106 0.45361 0.28137 0.0
C131 C 0.72991 0.41241 0.27695 0.0
O132 O 0.63242 0.4179 0.28488 0.0
O133 O 0.65185 0.42375 0.23646 0.0
O134 O 0.64352 0.49728 0.29001 0.0
C135 C 0.63274 0.41155 0.25414 0.0
O136 O 0.71462 0.39413 0.29286 0.0
C137 C 0.65213 0.51016 0.26387 0.0
O138 O 0.71988 0.43707 0.26921 0.0
O139 O 0.67049 0.49705 0.24588 0.0
C140 C 0.01005 0.6843 0.86994 0.0
O141 O 0.03483 0.67306 0.8698 0.0
Cd142 Cd 0.06116 0.66686 0.81925 0.0
O143 O -0.00373 0.68786 0.8429 0.0
Cd144 Cd 0.00051 0.67271 0.78316 0.0
C145 C 0.04299 0.73067 0.77766 0.0
O146 O 0.03528 0.6333 0.78679 0.0
O147 O 0.03007 0.65249 0.7383 0.0
O148 O 0.95653 0.64588 0.79248 0.0
C149 C 0.04192 0.63335 0.75608 0.0
O150 O 0.06063 0.71498 0.79368 0.0
C151 C 0.94393 0.65436 0.7663 0.0
O152 O 0.01817 0.72123 0.77016 0.0
O153 O 0.95735 0.67235 0.74799 0.0
C154 C 0.77055 0.01116 0.36992 0.0
O155 O 0.7791 0.03712 0.37116 0.0
Cd156 Cd 0.78854 0.06637 0.32371 0.0
O157 O 0.7695 -0.00255 0.34239 0.0
Cd158 Cd 0.78529 0.00434 0.28295 0.0
C159 C 0.72822 0.04887 0.27613 0.0
O160 O 0.82277 0.03842 0.29509 0.0
O161 O 0.81422 0.03374 0.2429 0.0
O162 O 0.80902 0.95844 0.29129 0.0
C163 C 0.82875 0.04581 0.26554 0.0
O164 O 0.74263 0.06605 0.29434 0.0
C165 C 0.80236 0.94772 0.2633 0.0
O166 O 0.73822 0.02428 0.2679 0.0
O167 O 0.78669 0.96304 0.24445 0.0
C168 C 0.44552 0.68231 0.08618 0.0
O169 O 0.42077 0.67096 0.08611 0.0
Cd170 Cd 0.39398 0.66464 0.13642 0.0
O171 O 0.45909 0.68591 0.11335 0.0
Cd172 Cd 0.45441 0.67074 0.17304 0.0
C173 C 0.41164 0.72842 0.1782 0.0
O174 O 0.41943 0.63141 0.16976 0.0
O175 O 0.42464 0.65105 0.21798 0.0
O176 O 0.49821 0.6436 0.16442 0.0
C177 C 0.41265 0.63186 0.20043 0.0
O178 O 0.39411 0.71266 0.16211 0.0
C179 C 0.51075 0.65226 0.19054 0.0
O180 O 0.43652 0.71916 0.18571 0.0
O181 O 0.49741 0.67052 0.20847 0.0
C182 C 0.7722 0.44791 0.5847 0.0
O183 O 0.78385 0.42322 0.58429 0.0
Cd184 Cd 0.7914 0.3965 0.63426 0.0
O185 O 0.76875 0.46162 0.61195 0.0
Cd186 Cd 0.78457 0.45738 0.6712 0.0
C187 C 0.72807 0.41302 0.67758 0.0
O188 O 0.8244 0.42308 0.66656 0.0
O189 O 0.80562 0.42824 0.71539 0.0
O190 O 0.81038 0.50211 0.66204 0.0
C191 C 0.82465 0.4165 0.69726 0.0
O192 O 0.74395 0.39569 0.66112 0.0
C193 C 0.80211 0.51437 0.68867 0.0
O194 O 0.73686 0.43826 0.68492 0.0
O195 O 0.78457 0.50049 0.70708 0.0
C196 C 0.0118 0.77871 0.08534 0.0
O197 O 0.03663 0.78988 0.0855 0.0
Cd198 Cd 0.06258 0.79516 0.13613 0.0
O199 O -0.00211 0.77478 0.11244 0.0
Cd200 Cd 0.00173 0.78878 0.17243 0.0
C201 C 0.04399 0.73077 0.17661 0.0
O202 O 0.03677 0.82813 0.16987 0.0
O203 O 0.03069 0.80805 0.21787 0.0
O204 O 0.95831 0.81617 0.16352 0.0
C205 C 0.04297 0.82743 0.20061 0.0
O206 O 0.06175 0.74668 0.16072 0.0
C207 C 0.94502 0.80711 0.18918 0.0
O208 O 0.01914 0.74008 0.18447 0.0
O209 O 0.95785 0.78858 0.20711 0.0
C210 C 0.68143 0.01083 0.58619 0.0
O211 O 0.67092 0.03603 0.58599 0.0
Cd212 Cd 0.6669 0.06332 0.63603 0.0
O213 O 0.68544 -0.00258 0.61351 0.0
Cd214 Cd 0.67227 0.00302 0.67365 0.0
C215 C 0.73107 0.04439 0.67519 0.0
O216 O 0.63353 0.03852 0.67043 0.0
O217 O 0.65318 0.03328 0.71852 0.0
O218 O 0.64483 0.95945 0.66492 0.0
C219 C 0.634 0.04524 0.70105 0.0
O220 O 0.71546 0.06217 0.65924 0.0
C221 C 0.65264 0.94667 0.69131 0.0
O222 O 0.7213 0.01985 0.68409 0.0
O223 O 0.67063 0.95976 0.7096 0.0
H224 H 0.41677 0.16023 0.24969 0.0
H225 H 0.33473 0.04707 0.30915 0.0
H226 H 0.41061 0.11436 0.15649 0.0
H227 H 0.30447 0.03692 0.20846 0.0
H228 H 0.36355 0.08807 0.29122 0.0
H229 H 0.37599 0.13244 0.27112 0.0
C230 C 0.40666 0.14452 0.23363 0.0
C231 C 0.41748 0.13917 0.20151 0.0
C232 C 0.34996 0.07759 0.27314 0.0
C233 C 0.37136 0.10674 0.22612 0.0
C234 C 0.33364 0.05393 0.28336 0.0
C235 C 0.31733 0.03844 0.26021 0.0
C236 C 0.35023 0.08568 0.23937 0.0
C237 C 0.31676 0.04826 0.22712 0.0
C238 C 0.38357 0.12841 0.24601 0.0
C239 C 0.40331 0.11882 0.18164 0.0
N240 N 0.33346 0.07091 0.21755 0.0
N241 N 0.38116 0.10318 0.19436 0.0
H242 H 0.33181 0.40876 0.65008 0.0
H243 H 0.40726 0.33595 0.80379 0.0
H244 H 0.30303 0.42167 0.75139 0.0
H245 H 0.41943 0.30595 0.70294 0.0
H246 H 0.36618 0.36428 0.78551 0.0
H247 H 0.36082 0.36807 0.66861 0.0
C248 C 0.33123 0.40272 0.67617 0.0
C249 C 0.31525 0.41883 0.6993 0.0
C250 C 0.37749 0.35114 0.76743 0.0
C251 C 0.34882 0.37255 0.72081 0.0
C252 C 0.401 0.33499 0.77786 0.0
C253 C 0.41699 0.31884 0.75476 0.0
C254 C 0.3702 0.35161 0.73353 0.0
C255 C 0.40778 0.31821 0.72154 0.0
C256 C 0.34779 0.37945 0.68674 0.0
C257 C 0.31514 0.40992 0.73275 0.0
N258 N 0.3853 0.3348 0.71179 0.0
N259 N 0.33211 0.3877 0.74261 0.0
H260 H 0.0395 0.30247 0.24528 0.0
H261 H 0.15298 0.42623 0.20047 0.0
H262 H 0.04781 0.34084 0.14762 0.0
H263 H 0.12177 0.40869 0.29996 0.0
H264 H 0.12485 0.38533 0.17991 0.0
H265 H 0.08003 0.33157 0.26416 0.0
C266 C 0.05022 0.31654 0.2276 0.0
C267 C 0.04001 0.31953 0.19494 0.0
C268 C 0.12457 0.39019 0.20631 0.0
C269 C 0.08634 0.35286 0.21643 0.0
C270 C 0.14071 0.41341 0.21809 0.0
C271 C 0.13939 0.42107 0.2519 0.0
C272 C 0.1073 0.37439 0.2286 0.0
C273 C 0.12312 0.40374 0.27362 0.0
C274 C 0.07326 0.33324 0.23846 0.0
C275 C 0.05477 0.33811 0.17313 0.0
N276 N 0.10754 0.38135 0.26157 0.0
N277 N 0.07704 0.35428 0.18434 0.0
H278 H 0.15219 0.03893 0.75721 0.0
H279 H 0.03791 0.16001 0.70817 0.0
H280 H 0.12282 0.0544 0.65701 0.0
H281 H 0.04634 0.12468 0.80718 0.0
H282 H 0.07935 0.13147 0.69022 0.0
H283 H 0.12377 0.08022 0.77637 0.0
C284 C 0.14028 0.05138 0.73913 0.0
C285 C 0.13952 0.043 0.70555 0.0
C286 C 0.0724 0.13037 0.716 0.0
C287 C 0.10707 0.09013 0.72726 0.0
C288 C 0.04886 0.14676 0.72632 0.0
C289 C 0.03841 0.14438 0.7591 0.0
C290 C 0.08571 0.11167 0.7387 0.0
C291 C 0.05346 0.12687 0.78155 0.0
C292 C 0.12397 0.07483 0.75011 0.0
C293 C 0.1237 0.05989 0.6832 0.0
N294 N 0.07618 0.11096 0.77087 0.0
N295 N 0.10791 0.08249 0.6945 0.0
H296 H 0.54469 0.83697 0.80552 0.0
H297 H 0.62347 0.90888 0.6521 0.0
H298 H 0.53392 0.80707 0.70457 0.0
H299 H 0.65015 0.92243 0.75365 0.0
H300 H 0.59384 0.86845 0.67061 0.0
H301 H 0.58625 0.86512 0.7875 0.0
C302 C 0.55134 0.83601 0.77962 0.0
C303 C 0.53562 0.81994 0.75641 0.0
C304 C 0.60653 0.8799 0.68881 0.0
C305 C 0.58297 0.85247 0.7355 0.0
C306 C 0.62343 0.90303 0.67826 0.0
C307 C 0.63901 0.91924 0.70146 0.0
C308 C 0.60473 0.87325 0.72292 0.0
C309 C 0.63837 0.91058 0.73497 0.0
C310 C 0.57512 0.85205 0.76935 0.0
C311 C 0.54534 0.81929 0.72325 0.0
N312 N 0.62106 0.88848 0.74481 0.0
N313 N 0.5681 0.83574 0.71366 0.0
H314 H 0.53531 0.65304 0.25244 0.0
H315 H 0.65351 0.53568 0.20219 0.0
H316 H 0.54846 0.62154 0.15233 0.0
H317 H 0.62069 0.54727 0.3021 0.0
H318 H 0.62482 0.57694 0.18391 0.0
H319 H 0.57629 0.6242 0.27083 0.0
C320 C 0.54717 0.64054 0.23421 0.0
C321 C 0.53824 0.63933 0.20091 0.0
C322 C 0.62428 0.57069 0.20993 0.0
C323 C 0.58499 0.60638 0.22174 0.0
C324 C 0.64073 0.54725 0.2204 0.0
C325 C 0.63913 0.5378 0.2536 0.0
C326 C 0.60635 0.58488 0.23291 0.0
C327 C 0.62224 0.5536 0.27616 0.0
C328 C 0.57044 0.624 0.24475 0.0
C329 C 0.55439 0.62278 0.17834 0.0
N330 N 0.60631 0.57621 0.26535 0.0
N331 N 0.57682 0.60676 0.18921 0.0
H332 H 0.90633 0.62393 0.80512 0.0
H333 H 0.83116 0.55325 0.65005 0.0
H334 H 0.91885 0.65507 0.70468 0.0
H335 H 0.8029 0.53809 0.7512 0.0
H336 H 0.85975 0.59399 0.66932 0.0
H337 H 0.86513 0.59595 0.78637 0.0
C338 C 0.90012 0.62522 0.77919 0.0
C339 C 0.91626 0.64154 0.75632 0.0
C340 C 0.84692 0.58211 0.68727 0.0
C341 C 0.86935 0.60921 0.73456 0.0
C342 C 0.8306 0.55881 0.67627 0.0
C343 C 0.81494 0.54204 0.69914 0.0
C344 C 0.84802 0.58837 0.72148 0.0
C345 C 0.8148 0.55035 0.73276 0.0
C346 C 0.87655 0.60927 0.7685 0.0
C347 C 0.90711 0.64263 0.7231 0.0
N348 N 0.83155 0.57262 0.74302 0.0
N349 N 0.88456 0.62624 0.71308 0.0
H350 H 0.80418 0.92554 0.20001 0.0
H351 H 0.91786 0.80426 0.24997 0.0
H352 H 0.82976 0.90738 0.30106 0.0
H353 H 0.90904 0.83926 0.15085 0.0
H354 H 0.87615 0.83252 0.26786 0.0
H355 H 0.83291 0.88453 0.18092 0.0
C356 C 0.81536 0.91259 0.21825 0.0
C357 C 0.81498 0.92014 0.2521 0.0
C358 C 0.88311 0.83363 0.24207 0.0
C359 C 0.84789 0.87336 0.23046 0.0
C360 C 0.90682 0.81743 0.23183 0.0
C361 C 0.91717 0.81979 0.19902 0.0
C362 C 0.86961 0.85211 0.21927 0.0
C363 C 0.90201 0.83714 0.17652 0.0
C364 C 0.83185 0.88927 0.20733 0.0
C365 C 0.82981 0.90255 0.27466 0.0
N366 N 0.87917 0.85285 0.18713 0.0
N367 N 0.84591 0.88017 0.26341 0.0
H368 H 0.58686 0.25998 0.14551 0.0
H369 H 0.59061 0.38043 0.28603 0.0
H370 H 0.52363 0.26333 0.22445 0.0
H371 H 0.63553 0.38772 0.19197 0.0
H372 H 0.56563 0.33774 0.26487 0.0
H373 H 0.60504 0.30673 0.16301 0.0
C374 C 0.57671 0.27063 0.16651 0.0
C375 C 0.5538 0.25762 0.1837 0.0
C376 C 0.58073 0.3489 0.24879 0.0
C377 C 0.57474 0.31128 0.20409 0.0
C378 C 0.59502 0.37322 0.26085 0.0
C379 C 0.61537 0.38752 0.24083 0.0
C380 C 0.5871 0.33865 0.21665 0.0
C381 C 0.62016 0.37731 0.20836 0.0
C382 C 0.58704 0.29742 0.17641 0.0
C383 C 0.54134 0.27259 0.21052 0.0
N384 N 0.60637 0.35336 0.19744 0.0
N385 N 0.5522 0.29852 0.22017 0.0
H386 H 0.19565 0.59014 0.65024 0.0
H387 H 0.07293 0.59167 0.78847 0.0
H388 H 0.19127 0.52568 0.72779 0.0
H389 H 0.06666 0.6362 0.69426 0.0
H390 H 0.11629 0.56738 0.76804 0.0
H391 H 0.14874 0.60783 0.66738 0.0
C392 C 0.18477 0.57964 0.67089 0.0
C393 C 0.19751 0.55649 0.68774 0.0
C394 C 0.1052 0.58224 0.75176 0.0
C395 C 0.14361 0.57685 0.70769 0.0
C396 C 0.08049 0.59613 0.76339 0.0
C397 C 0.06627 0.61618 0.74313 0.0
C398 C 0.11591 0.58873 0.71982 0.0
C399 C 0.07697 0.62105 0.71083 0.0
C400 C 0.15787 0.58969 0.68056 0.0
C401 C 0.18222 0.54358 0.71411 0.0
N402 N 0.10128 0.60767 0.70034 0.0
N403 N 0.15616 0.55416 0.72355 0.0
H404 H 0.84457 0.088 0.30891 0.0
H405 H 0.93573 0.18084 0.1789 0.0
H406 H 0.85423 0.06144 0.20637 0.0
H407 H 0.87903 0.21947 0.25137 0.0
H408 H 0.91921 0.13282 0.19709 0.0
H409 H 0.87071 0.13244 0.29592 0.0
C410 C 0.85256 0.09131 0.28377 0.0
C411 C 0.84701 0.07116 0.25855 0.0
C412 C 0.91086 0.15187 0.20932 0.0
C413 C 0.87725 0.12162 0.24385 0.0
C414 C 0.92041 0.17912 0.19923 0.0
C415 C 0.90867 0.20394 0.21379 0.0
C416 C 0.89007 0.14964 0.23465 0.0
C417 C 0.88853 0.20075 0.2396 0.0
C418 C 0.86737 0.11666 0.27643 0.0
C419 C 0.85785 0.07658 0.22642 0.0
N420 N 0.87989 0.17405 0.2493 0.0
N421 N 0.87249 0.10137 0.21993 0.0
H422 H 0.25508 0.86876 0.65395 0.0
H423 H 0.37872 0.86809 0.78922 0.0
H424 H 0.26099 0.9347 0.7294 0.0
H425 H 0.38416 0.82233 0.69579 0.0
H426 H 0.33528 0.89226 0.7694 0.0
H427 H 0.30174 0.85055 0.67066 0.0
C428 C 0.26623 0.87948 0.67404 0.0
C429 C 0.25401 0.90323 0.69042 0.0
C430 C 0.34619 0.87714 0.75316 0.0
C431 C 0.30761 0.88227 0.70986 0.0
C432 C 0.37094 0.86332 0.76445 0.0
C433 C 0.38498 0.84301 0.74421 0.0
C434 C 0.33525 0.87029 0.72161 0.0
C435 C 0.37401 0.83772 0.71231 0.0
C436 C 0.29298 0.86912 0.68347 0.0
C437 C 0.26963 0.91635 0.7161 0.0
N438 N 0.34967 0.85103 0.70216 0.0
N439 N 0.29554 0.9055 0.72529 0.0
H440 H 0.52279 0.19425 0.72644 0.0
H441 H 0.63551 0.0683 0.76362 0.0
H442 H 0.58536 0.19667 0.80517 0.0
H443 H 0.59286 0.07699 0.66897 0.0
H444 H 0.61004 0.1108 0.78378 0.0
H445 H 0.54147 0.14691 0.70943 0.0
C446 C 0.54022 0.18472 0.74032 0.0
C447 C 0.55272 0.19953 0.76706 0.0
C448 C 0.60611 0.10333 0.75865 0.0
C449 C 0.57392 0.14554 0.748 0.0
C450 C 0.6206 0.079 0.74714 0.0
C451 C 0.61654 0.06925 0.71443 0.0
C452 C 0.58729 0.11803 0.7374 0.0
C453 C 0.59678 0.08391 0.6943 0.0
C454 C 0.55092 0.15781 0.73054 0.0
C455 C 0.57528 0.18621 0.78416 0.0
N456 N 0.58298 0.10769 0.70604 0.0
N457 N 0.58513 0.16005 0.77434 0.0
H458 H 0.38118 0.59016 0.16868 0.0
H459 H 0.25719 0.59269 0.30536 0.0
H460 H 0.38753 0.63599 0.26192 0.0
H461 H 0.26164 0.52649 0.23001 0.0
H462 H 0.30446 0.60963 0.28821 0.0
H463 H 0.33722 0.56688 0.18922 0.0
C464 C 0.37351 0.5951 0.19357 0.0
C465 C 0.38793 0.61522 0.21353 0.0
C466 C 0.29525 0.59127 0.27552 0.0
C467 C 0.33761 0.58897 0.23693 0.0
C468 C 0.26815 0.58166 0.2852 0.0
C469 C 0.25535 0.55822 0.26897 0.0
C470 C 0.30963 0.57769 0.24903 0.0
C471 C 0.27074 0.54463 0.2432 0.0
C472 C 0.34845 0.5818 0.20526 0.0
C473 C 0.37707 0.62075 0.24559 0.0
N474 N 0.29699 0.55477 0.23376 0.0
N475 N 0.35244 0.60795 0.25613 0.0
H476 H 0.82268 0.39257 0.75934 0.0
H477 H 0.93378 0.26518 0.72303 0.0
H478 H 0.86552 0.3846 0.66405 0.0
H479 H 0.86312 0.25967 0.79275 0.0
H480 H 0.91714 0.31358 0.70661 0.0
H481 H 0.84652 0.34878 0.77805 0.0
C482 C 0.83735 0.38179 0.74243 0.0
C483 C 0.84182 0.39207 0.70991 0.0
C484 C 0.90547 0.30168 0.72558 0.0
C485 C 0.86921 0.34183 0.73127 0.0
C486 C 0.91496 0.27421 0.73501 0.0
C487 C 0.89966 0.25833 0.75908 0.0
C488 C 0.88098 0.31342 0.74097 0.0
C489 C 0.8754 0.27098 0.77382 0.0
C490 C 0.85088 0.35673 0.75311 0.0
C491 C 0.86127 0.37725 0.68923 0.0
N492 N 0.8669 0.29774 0.76462 0.0
N493 N 0.87418 0.35272 0.70019 0.0
H494 H 0.07471 0.86963 0.16952 0.0
H495 H 0.19527 0.86804 0.30842 0.0
H496 H 0.06665 0.82332 0.26251 0.0
H497 H 0.19273 0.93352 0.23198 0.0
H498 H 0.14833 0.85109 0.29089 0.0
H499 H 0.11784 0.89338 0.19086 0.0
C500 C 0.08183 0.86467 0.19452 0.0
C501 C 0.06718 0.84428 0.21417 0.0
C502 C 0.15787 0.86931 0.27805 0.0
C503 C 0.11657 0.87111 0.23852 0.0
C504 C 0.18478 0.87894 0.28796 0.0
C505 C 0.19805 0.90213 0.27149 0.0
C506 C 0.14416 0.88262 0.25108 0.0
C507 C 0.18326 0.91556 0.24535 0.0
C508 C 0.10642 0.87825 0.20668 0.0
C509 C 0.07732 0.83876 0.24641 0.0
N510 N 0.1572 0.90539 0.23566 0.0
N511 N 0.10152 0.85185 0.25741 0.0
H512 H 0.32129 0.5663 0.76358 0.0
H513 H 0.43171 0.69503 0.72725 0.0
H514 H 0.36393 0.57699 0.66851 0.0
H515 H 0.36826 0.69545 0.80607 0.0
H516 H 0.41415 0.64741 0.70978 0.0
H517 H 0.346 0.60901 0.78412 0.0
C518 C 0.33607 0.57747 0.74709 0.0
C519 C 0.34029 0.56824 0.71414 0.0
C520 C 0.40426 0.65795 0.731 0.0
C521 C 0.36865 0.61728 0.73755 0.0
C522 C 0.41431 0.68502 0.74104 0.0
C523 C 0.40124 0.69933 0.76796 0.0
C524 C 0.38135 0.64502 0.74838 0.0
C525 C 0.37876 0.68539 0.78494 0.0
C526 C 0.35011 0.60192 0.75882 0.0
C527 C 0.35987 0.5835 0.69401 0.0
N528 N 0.36956 0.65908 0.77487 0.0
N529 N 0.37323 0.60741 0.70597 0.0
H530 H 0.89532 0.32966 0.26524 0.0
H531 H 0.76424 0.43583 0.22783 0.0
H532 H 0.88351 0.37064 0.16972 0.0
H533 H 0.76336 0.371 0.30511 0.0
H534 H 0.81256 0.41995 0.21146 0.0
H535 H 0.85184 0.35318 0.28576 0.0
C536 C 0.88385 0.3439 0.24878 0.0
C537 C 0.89288 0.34791 0.21565 0.0
C538 C 0.80177 0.40938 0.23211 0.0
C539 C 0.84305 0.3749 0.23891 0.0
C540 C 0.77428 0.41846 0.24151 0.0
C541 C 0.75965 0.40453 0.26766 0.0
C542 C 0.81484 0.38659 0.24938 0.0
C543 C 0.77368 0.38214 0.28454 0.0
C544 C 0.85892 0.35723 0.2604 0.0
C545 C 0.87711 0.36675 0.19538 0.0
N546 N 0.80045 0.37389 0.27513 0.0
N547 N 0.85286 0.37944 0.20726 0.0
H548 H 0.02085 0.76566 0.72861 0.0
H549 H 0.13099 0.8938 0.76641 0.0
H550 H 0.08532 0.76304 0.80524 0.0
H551 H 0.0881 0.88539 0.67188 0.0
H552 H 0.10673 0.8503 0.78595 0.0
H553 H 0.03828 0.81369 0.71212 0.0
C554 C 0.03848 0.77525 0.7421 0.0
C555 C 0.05182 0.76022 0.76814 0.0
C556 C 0.10247 0.85806 0.761 0.0
C557 C 0.07154 0.81502 0.74972 0.0
C558 C 0.11624 0.88297 0.74985 0.0
C559 C 0.11182 0.89308 0.71731 0.0
C560 C 0.08399 0.84314 0.73958 0.0
C561 C 0.09229 0.87821 0.69706 0.0
C562 C 0.04844 0.80257 0.73263 0.0
C563 C 0.07458 0.77366 0.78478 0.0
N564 N 0.07919 0.85385 0.70846 0.0
N565 N 0.08368 0.80023 0.77531 0.0
H566 H 0.56553 0.13554 0.26102 0.0
H567 H 0.69539 0.02694 0.2251 0.0
H568 H 0.57597 0.09187 0.16676 0.0
H569 H 0.69487 0.09116 0.30288 0.0
H570 H 0.64797 0.044 0.20733 0.0
H571 H 0.60894 0.11223 0.28106 0.0
C572 C 0.5768 0.12084 0.24461 0.0
C573 C 0.56725 0.11589 0.21203 0.0
C574 C 0.6583 0.05421 0.22834 0.0
C575 C 0.61715 0.08914 0.23486 0.0
C576 C 0.68528 0.04447 0.23852 0.0
C577 C 0.69924 0.05781 0.26533 0.0
C578 C 0.64509 0.07709 0.24545 0.0
C579 C 0.68512 0.08042 0.28186 0.0
C580 C 0.60168 0.1076 0.25604 0.0
C581 C 0.5827 0.09645 0.19198 0.0
N582 N 0.65889 0.08928 0.27169 0.0
N583 N 0.60701 0.08387 0.20366 0.0
H584 H 0.43388 0.76325 0.22723 0.0
H585 H 0.32032 0.88931 0.19468 0.0
H586 H 0.36842 0.76035 0.15176 0.0
H587 H 0.36561 0.88046 0.28763 0.0
H588 H 0.3449 0.84659 0.17364 0.0
H589 H 0.41571 0.81057 0.24494 0.0
C590 C 0.41589 0.77265 0.21422 0.0
C591 C 0.40248 0.75773 0.18817 0.0
C592 C 0.34961 0.85409 0.19857 0.0
C593 C 0.38185 0.81172 0.20804 0.0
C594 C 0.33565 0.87855 0.21058 0.0
C595 C 0.3407 0.88831 0.2431 0.0
C596 C 0.36893 0.8393 0.21911 0.0
C597 C 0.36092 0.87353 0.26248 0.0
C598 C 0.40549 0.79955 0.2244 0.0
C599 C 0.37923 0.7709 0.17219 0.0
N600 N 0.37422 0.84965 0.25025 0.0
N601 N 0.36968 0.79708 0.18238 0.0
H602 H 0.69247 0.4356 0.72604 0.0
H603 H 0.56773 0.32096 0.69187 0.0
H604 H 0.69744 0.36826 0.65209 0.0
H605 H 0.57406 0.36764 0.78454 0.0
H606 H 0.61119 0.34494 0.67206 0.0
H607 H 0.6452 0.41717 0.74328 0.0
C608 C 0.68358 0.4171 0.71331 0.0
C609 C 0.69903 0.40333 0.68774 0.0
C610 C 0.603 0.35007 0.69667 0.0
C611 C 0.64506 0.38243 0.70705 0.0
C612 C 0.5781 0.33647 0.70796 0.0
C613 C 0.56737 0.34211 0.74004 0.0
C614 C 0.61725 0.36965 0.71746 0.0
C615 C 0.58171 0.36252 0.75972 0.0
C616 C 0.65669 0.40657 0.72322 0.0
C617 C 0.68648 0.37942 0.67212 0.0
N618 N 0.60601 0.37551 0.74816 0.0
N619 N 0.66029 0.36979 0.68199 0.0
H620 H 0.08799 0.57779 0.28811 0.0
H621 H 0.08561 0.69828 0.14739 0.0
H622 H 0.13187 0.56971 0.1935 0.0
H623 H 0.02281 0.69609 0.22686 0.0
H624 H 0.10274 0.65108 0.16467 0.0
H625 H 0.06344 0.62074 0.26699 0.0
C626 C 0.09224 0.58485 0.2628 0.0
C627 C 0.11223 0.5703 0.24264 0.0
C628 C 0.08506 0.66074 0.17824 0.0
C629 C 0.08446 0.61946 0.21852 0.0
C630 C 0.07534 0.68779 0.16847 0.0
C631 C 0.05288 0.70125 0.18588 0.0
C632 C 0.07261 0.64708 0.20602 0.0
C633 C 0.0402 0.68647 0.21277 0.0
C634 C 0.0782 0.60934 0.25078 0.0
C635 C 0.11681 0.58034 0.21003 0.0
N636 N 0.05049 0.66028 0.22232 0.0
N637 N 0.10329 0.60444 0.19914 0.0
H638 H 0.88467 0.08747 0.78232 0.0
H639 H 0.76382 0.08517 0.64427 0.0
H640 H 0.89263 0.13168 0.68799 0.0
H641 H 0.76609 0.02311 0.72444 0.0
H642 H 0.81147 0.10173 0.65977 0.0
H643 H 0.84215 0.06255 0.76153 0.0
C644 C 0.87769 0.09166 0.75708 0.0
C645 C 0.89205 0.11193 0.73697 0.0
C646 C 0.80172 0.08432 0.67385 0.0
C647 C 0.84324 0.08372 0.71319 0.0
C648 C 0.77441 0.07493 0.66511 0.0
C649 C 0.76082 0.05288 0.68329 0.0
C650 C 0.81551 0.07195 0.70136 0.0
C651 C 0.77576 0.04021 0.7098 0.0
C652 C 0.85342 0.07741 0.74523 0.0
C653 C 0.88214 0.11639 0.70443 0.0
N654 N 0.80218 0.05018 0.71833 0.0
N655 N 0.85814 0.10269 0.69372 0.0
H656 H 0.51245 0.15667 0.02204 0.0
H657 H 0.51366 0.30003 0.92993 0.0
H658 H 0.4825 0.23227 0.07397 0.0
H659 H 0.48232 0.22495 0.87843 0.0
H660 H 0.50316 0.27632 -0.01671 0.0
H661 H 0.50226 0.18048 0.96882 0.0
C662 C 0.50314 0.17805 0.02216 0.0
C663 C 0.49835 0.19263 0.05225 0.0
C664 C 0.49793 0.26534 0.9603 0.0
C665 C 0.48755 0.22016 -0.00818 0.0
C666 C 0.504 0.27878 0.92995 0.0
C667 C 0.4989 0.26431 0.89992 0.0
C668 C 0.48771 0.23689 0.96051 0.0
C669 C 0.48644 0.2368 0.90114 0.0
C670 C 0.49725 0.19155 -0.00811 0.0
C671 C 0.48636 0.22032 0.05121 0.0
N672 N 0.48196 0.2236 0.93103 0.0
N673 N 0.48207 0.23356 0.02138 0.0
H674 H 0.15467 0.51946 0.43213 0.0
H675 H 0.29698 0.51641 0.52416 0.0
H676 H 0.22901 0.4861 0.38076 0.0
H677 H 0.22096 0.48782 0.57628 0.0
H678 H 0.27321 0.50669 0.47098 0.0
H679 H 0.17787 0.50931 0.48554 0.0
C680 C 0.17563 0.50943 0.43218 0.0
C681 C 0.19004 0.50363 0.40216 0.0
C682 C 0.26201 0.50191 0.49408 0.0
C683 C 0.21689 0.49285 0.4628 0.0
C684 C 0.27549 0.50752 0.52432 0.0
C685 C 0.26082 0.50292 0.55446 0.0
C686 C 0.23336 0.49267 0.4941 0.0
C687 C 0.23298 0.4915 0.55348 0.0
C688 C 0.18878 0.50357 0.46257 0.0
C689 C 0.21719 0.49074 0.40345 0.0
N690 N 0.21981 0.48745 0.52369 0.0
N691 N 0.23012 0.48645 0.43335 0.0
H692 H -0.02157 0.26723 0.05228 0.0
H693 H 0.90189 0.16299 0.92159 0.0
H694 H 0.89249 0.23334 0.06092 0.0
H695 H 0.97175 0.21818 0.89072 0.0
H696 H 0.90605 0.1813 0.9779 0.0
H697 H -0.01704 0.24356 -0.00271 0.0
C698 C 0.96065 0.25478 0.04272 0.0
C699 C 0.93494 0.25247 0.061 0.0
C700 C 0.92064 0.18939 0.95895 0.0
C701 C 0.94018 0.22513 -0.0009 0.0
C702 C 0.91833 0.17886 0.92673 0.0
C703 C 0.93617 0.18944 0.90125 0.0
C704 C 0.94084 0.2109 0.96605 0.0
C705 C 0.95745 0.20961 0.90964 0.0
C706 C 0.96324 0.24138 0.01145 0.0
C707 C 0.91257 0.23608 0.04758 0.0
N708 N 0.95899 0.22005 0.94139 0.0
N709 N 0.91577 0.22305 0.01765 0.0
H710 H 0.29794 0.93702 0.43453 0.0
H711 H 0.15559 0.94648 0.52808 0.0
H712 H 0.22529 0.97337 0.38365 0.0
H713 H 0.23257 0.97204 0.57908 0.0
H714 H 0.17986 0.95504 0.47454 0.0
H715 H 0.27493 0.94825 0.4881 0.0
C716 C 0.27738 0.94787 0.43472 0.0
C717 C 0.26338 0.95422 0.40479 0.0
C718 C 0.19118 0.95946 0.49747 0.0
C719 C 0.23675 0.96633 0.46562 0.0
C720 C 0.17741 0.95452 0.52791 0.0
C721 C 0.19219 0.95859 0.55784 0.0
C722 C 0.2202 0.96743 0.49708 0.0
C723 C 0.22046 0.96885 0.55645 0.0
C724 C 0.26436 0.95436 0.46519 0.0
C725 C 0.23677 0.96824 0.40626 0.0
N726 N 0.23388 0.9722 0.52647 0.0
N727 N 0.22391 0.97318 0.43625 0.0
H728 H 0.4717 0.72454 0.87843 0.0
H729 H 0.47235 0.73388 0.0769 0.0
H730 H 0.43937 0.79824 0.93213 0.0
H731 H 0.44326 0.65847 0.02425 0.0
H732 H 0.48123 0.75787 0.02308 0.0
H733 H 0.48216 0.70092 0.93193 0.0
C734 C 0.46764 0.73606 0.90145 0.0
C735 C 0.45444 0.76319 0.90109 0.0
C736 C 0.47366 0.7358 0.02348 0.0
C737 C 0.46676 0.73672 0.96172 0.0
C738 C 0.46874 0.72209 0.05401 0.0
C739 C 0.45686 0.69432 0.05479 0.0
C740 C 0.46735 0.72126 -0.00622 0.0
C741 C 0.45222 0.68001 0.02454 0.0
C742 C 0.47348 0.72256 0.9318 0.0
C743 C 0.44932 0.77717 0.93151 0.0
N744 N 0.45737 0.6937 -0.00484 0.0
N745 N 0.4554 0.76371 0.96071 0.0
H746 H 0.71977 0.47245 0.57629 0.0
H747 H 0.7301 0.47564 0.37786 0.0
H748 H 0.79614 0.44738 0.52264 0.0
H749 H 0.65794 0.43872 0.43046 0.0
H750 H 0.75274 0.48621 0.43169 0.0
H751 H 0.69571 0.48101 0.52278 0.0
C752 C 0.73171 0.46967 0.55326 0.0
C753 C 0.75983 0.45904 0.55363 0.0
C754 C 0.73162 0.4765 0.43127 0.0
C755 C 0.73282 0.46918 0.49301 0.0
C756 C 0.71867 0.47059 0.40074 0.0
C757 C 0.6923 0.45608 0.39993 0.0
C758 C 0.71767 0.46849 0.46095 0.0
C759 C 0.67843 0.4497 0.43017 0.0
C760 C 0.71797 0.4744 0.52291 0.0
C761 C 0.77435 0.4554 0.52323 0.0
N762 N 0.69135 0.45586 0.45957 0.0
N763 N 0.76063 0.46037 0.49403 0.0
H764 H 0.01673 0.80277 0.02359 0.0
H765 H 0.01209 0.65984 0.93155 0.0
H766 H -0.0175 0.72866 0.07526 0.0
H767 H -0.01594 0.73614 0.87978 0.0
H768 H 0.0023 0.68385 -0.01516 0.0
H769 H 0.00597 0.77947 0.97028 0.0
C770 C 0.00641 0.78184 0.02363 0.0
C771 C 0.00057 0.7675 0.05369 0.0
C772 C -0.00238 0.69505 0.9618 0.0
C773 C -0.01097 0.74055 -0.00682 0.0
C774 C 0.00327 0.68143 0.9315 0.0
C775 C -0.00112 0.69613 0.90144 0.0
C776 C -0.01141 0.72388 0.9619 0.0
C777 C -0.01244 0.7241 0.90254 0.0
C778 C 0.00019 0.76864 -0.00669 0.0
C779 C -0.01276 0.7404 0.05253 0.0
N780 N -0.01649 0.73743 0.93238 0.0
N781 N -0.01741 0.72741 0.02268 0.0
H782 H 0.65597 0.01406 0.52547 0.0
H783 H 0.79636 0.01028 0.43025 0.0
H784 H 0.7307 -0.01925 0.57503 0.0
H785 H 0.71955 -0.0163 0.37968 0.0
H786 H 0.77359 -0.00155 0.48376 0.0
H787 H 0.67795 0.00218 0.47158 0.0
C788 C 0.67675 0.00365 0.52494 0.0
C789 C 0.6917 -0.00149 0.55452 0.0
C790 C 0.76201 -0.00558 0.46091 0.0
C791 C 0.71716 -0.01433 0.49331 0.0
C792 C 0.77494 0.00122 0.43049 0.0
C793 C 0.75968 -0.00203 0.40079 0.0
C794 C 0.73329 -0.01458 0.46155 0.0
C795 C 0.73195 -0.01364 0.40219 0.0
C796 C 0.6892 -0.00324 0.49428 0.0
C797 C 0.71854 -0.015 0.55266 0.0
N798 N 0.71926 -0.01877 0.43225 0.0
N799 N 0.73083 -0.02025 0.52244 0.0
loop_
_geom_bond_atom_site_label_1
_geom_bond_atom_site_label_2
_geom_bond_distance
_geom_bond_site_symmetry_2
_ccdc_geom_bond_type
C0 O1 1.306 . S
C0 O3 1.160 . S
O1 C0 1.306 . S
O1 Cd2 2.228 . S
Cd2 O1 2.228 . S
Cd2 O6 2.273 . S
Cd2 O10 2.277 . S
O3 C0 1.160 . S
O3 Cd4 2.203 . S
Cd4 O3 2.203 . S
Cd4 O6 2.411 . S
Cd4 O7 2.333 . S
Cd4 O8 2.352 . S
Cd4 O12 2.277 . S
Cd4 O13 2.356 . S
C5 O10 1.209 . S
C5 O12 1.226 . S
O6 Cd2 2.273 . S
O6 Cd4 2.411 . S
O6 C9 1.320 . S
O7 Cd4 2.333 . S
O7 C9 1.214 . S
O8 Cd4 2.352 . S
O8 C11 1.258 . S
C9 O6 1.320 . S
C9 O7 1.214 . S
O10 Cd2 2.277 . S
O10 C5 1.209 . S
C11 O8 1.258 . S
C11 O13 1.282 . S
O12 Cd4 2.277 . S
O12 C5 1.226 . S
O13 Cd4 2.356 . S
O13 C11 1.282 . S
C14 O15 1.306 . S
C14 O17 1.160 . S
O15 C14 1.306 . S
O15 Cd16 2.228 . S
Cd16 O15 2.228 . S
Cd16 O20 2.273 . S
Cd16 O24 2.277 . S
O17 C14 1.160 . S
O17 Cd18 2.203 . S
Cd18 O17 2.203 . S
Cd18 O20 2.411 . S
Cd18 O21 2.333 . S
Cd18 O22 2.352 . S
Cd18 O26 2.277 . S
Cd18 O27 2.356 . S
C19 O24 1.209 . S
C19 O26 1.226 . S
O20 Cd16 2.273 . S
O20 Cd18 2.411 . S
O20 C23 1.320 . S
O21 Cd18 2.333 . S
O21 C23 1.214 . S
O22 Cd18 2.352 . S
O22 C25 1.258 . S
C23 O20 1.320 . S
C23 O21 1.214 . S
O24 Cd16 2.277 . S
O24 C19 1.209 . S
C25 O22 1.258 . S
C25 O27 1.282 . S
O26 Cd18 2.277 . S
O26 C19 1.226 . S
O27 Cd18 2.356 . S
O27 C25 1.282 . S
C28 O29 1.306 . S
C28 O31 1.160 . S
O29 C28 1.306 . S
O29 Cd30 2.228 . S
Cd30 O29 2.228 . S
Cd30 O34 2.273 . S
Cd30 O38 2.277 . S
O31 C28 1.160 . S
O31 Cd32 2.203 . S
Cd32 O31 2.203 . S
Cd32 O34 2.411 . S
Cd32 O35 2.333 . S
Cd32 O36 2.352 1_655 S
Cd32 O40 2.277 . S
Cd32 O41 2.356 1_655 S
C33 O38 1.209 . S
C33 O40 1.226 . S
O34 Cd30 2.273 . S
O34 Cd32 2.411 . S
O34 C37 1.320 . S
O35 Cd32 2.333 . S
O35 C37 1.214 . S
O36 Cd32 2.352 1_455 S
O36 C39 1.258 . S
C37 O34 1.320 . S
C37 O35 1.214 . S
O38 Cd30 2.277 . S
O38 C33 1.209 . S
C39 O36 1.258 . S
C39 O41 1.282 . S
O40 Cd32 2.277 . S
O40 C33 1.226 . S
O41 Cd32 2.356 1_455 S
O41 C39 1.282 . S
C42 O43 1.306 . S
C42 O45 1.160 . S
O43 C42 1.306 . S
O43 Cd44 2.228 . S
Cd44 O43 2.228 . S
Cd44 O48 2.273 . S
Cd44 O52 2.277 . S
O45 C42 1.160 . S
O45 Cd46 2.203 . S
Cd46 O45 2.203 . S
Cd46 O48 2.411 . S
Cd46 O49 2.333 . S
Cd46 O50 2.352 1_565 S
Cd46 O54 2.277 . S
Cd46 O55 2.356 1_565 S
C47 O52 1.209 . S
C47 O54 1.226 . S
O48 Cd44 2.273 . S
O48 Cd46 2.411 . S
O48 C51 1.320 . S
O49 Cd46 2.333 . S
O49 C51 1.214 . S
O50 Cd46 2.352 1_545 S
O50 C53 1.258 . S
C51 O48 1.320 . S
C51 O49 1.214 . S
O52 Cd44 2.277 . S
O52 C47 1.209 . S
C53 O50 1.258 . S
C53 O55 1.282 . S
O54 Cd46 2.277 . S
O54 C47 1.226 . S
O55 Cd46 2.356 1_545 S
O55 C53 1.282 . S
C56 O57 1.306 . S
C56 O59 1.160 . S
O57 C56 1.306 . S
O57 Cd58 2.228 . S
Cd58 O57 2.228 . S
Cd58 O62 2.273 . S
Cd58 O66 2.277 . S
O59 C56 1.160 . S
O59 Cd60 2.203 . S
Cd60 O59 2.203 . S
Cd60 O62 2.411 . S
Cd60 O63 2.333 . S
Cd60 O64 2.352 . S
Cd60 O68 2.277 . S
Cd60 O69 2.356 . S
C61 O66 1.209 . S
C61 O68 1.226 . S
O62 Cd58 2.273 . S
O62 Cd60 2.411 . S
O62 C65 1.320 . S
O63 Cd60 2.333 . S
O63 C65 1.214 . S
O64 Cd60 2.352 . S
O64 C67 1.258 . S
C65 O62 1.320 . S
C65 O63 1.214 . S
O66 Cd58 2.277 . S
O66 C61 1.209 . S
C67 O64 1.258 . S
C67 O69 1.282 . S
O68 Cd60 2.277 . S
O68 C61 1.226 . S
O69 Cd60 2.356 . S
O69 C67 1.282 . S
C70 O71 1.306 . S
C70 O73 1.160 . S
O71 C70 1.306 . S
O71 Cd72 2.228 . S
Cd72 O71 2.228 . S
Cd72 O76 2.273 . S
Cd72 O80 2.277 . S
O73 C70 1.160 . S
O73 Cd74 2.203 . S
Cd74 O73 2.203 . S
Cd74 O76 2.411 . S
Cd74 O77 2.333 . S
Cd74 O78 2.352 . S
Cd74 O82 2.277 . S
Cd74 O83 2.356 . S
C75 O80 1.209 . S
C75 O82 1.226 . S
O76 Cd72 2.273 . S
O76 Cd74 2.411 . S
O76 C79 1.320 . S
O77 Cd74 2.333 . S
O77 C79 1.214 . S
O78 Cd74 2.352 . S
O78 C81 1.258 . S
C79 O76 1.320 . S
C79 O77 1.214 . S
O80 Cd72 2.277 . S
O80 C75 1.209 . S
C81 O78 1.258 . S
C81 O83 1.282 . S
O82 Cd74 2.277 . S
O82 C75 1.226 . S
O83 Cd74 2.356 . S
O83 C81 1.282 . S
C84 O85 1.306 . S
C84 O87 1.160 . S
O85 C84 1.306 . S
O85 Cd86 2.228 . S
Cd86 O85 2.228 . S
Cd86 O90 2.273 . S
Cd86 O94 2.277 . S
O87 C84 1.160 . S
O87 Cd88 2.203 . S
Cd88 O87 2.203 . S
Cd88 O90 2.411 . S
Cd88 O91 2.333 . S
Cd88 O92 2.352 1_655 S
Cd88 O96 2.277 . S
Cd88 O97 2.356 1_655 S
C89 O94 1.209 . S
C89 O96 1.226 . S
O90 Cd86 2.273 . S
O90 Cd88 2.411 . S
O90 C93 1.320 . S
O91 Cd88 2.333 . S
O91 C93 1.214 . S
O92 Cd88 2.352 1_455 S
O92 C95 1.258 . S
C93 O90 1.320 . S
C93 O91 1.214 . S
O94 Cd86 2.277 . S
O94 C89 1.209 . S
C95 O92 1.258 . S
C95 O97 1.282 . S
O96 Cd88 2.277 . S
O96 C89 1.226 . S
O97 Cd88 2.356 1_455 S
O97 C95 1.282 . S
C98 O99 1.306 . S
C98 O101 1.160 . S
O99 C98 1.306 . S
O99 Cd100 2.228 . S
Cd100 O99 2.228 . S
Cd100 O104 2.273 . S
Cd100 O108 2.277 . S
O101 C98 1.160 . S
O101 Cd102 2.203 . S
Cd102 O101 2.203 . S
Cd102 O104 2.411 . S
Cd102 O105 2.333 . S
Cd102 O106 2.352 1_565 S
Cd102 O110 2.277 . S
Cd102 O111 2.356 1_565 S
C103 O108 1.209 . S
C103 O110 1.226 . S
O104 Cd100 2.273 . S
O104 Cd102 2.411 . S
O104 C107 1.320 . S
O105 Cd102 2.333 . S
O105 C107 1.214 . S
O106 Cd102 2.352 1_545 S
O106 C109 1.258 . S
C107 O104 1.320 . S
C107 O105 1.214 . S
O108 Cd100 2.277 . S
O108 C103 1.209 . S
C109 O106 1.258 . S
C109 O111 1.282 . S
O110 Cd102 2.277 . S
O110 C103 1.226 . S
O111 Cd102 2.356 1_545 S
O111 C109 1.282 . S
C112 O113 1.306 . S
C112 O115 1.160 . S
O113 C112 1.306 . S
O113 Cd114 2.228 . S
Cd114 O113 2.228 . S
Cd114 O118 2.273 . S
Cd114 O122 2.277 . S
O115 C112 1.160 . S
O115 Cd116 2.203 . S
Cd116 O115 2.203 . S
Cd116 O118 2.411 . S
Cd116 O119 2.333 . S
Cd116 O120 2.352 . S
Cd116 O124 2.277 . S
Cd116 O125 2.356 . S
C117 O122 1.209 . S
C117 O124 1.226 . S
O118 Cd114 2.273 . S
O118 Cd116 2.411 . S
O118 C121 1.320 . S
O119 Cd116 2.333 . S
O119 C121 1.214 . S
O120 Cd116 2.352 . S
O120 C123 1.258 . S
C121 O118 1.320 . S
C121 O119 1.214 . S
O122 Cd114 2.277 . S
O122 C117 1.209 . S
C123 O120 1.258 . S
C123 O125 1.282 . S
O124 Cd116 2.277 . S
O124 C117 1.226 . S
O125 Cd116 2.356 . S
O125 C123 1.282 . S
C126 O127 1.306 . S
C126 O129 1.160 . S
O127 C126 1.306 . S
O127 Cd128 2.228 . S
Cd128 O127 2.228 . S
Cd128 O132 2.273 . S
Cd128 O136 2.277 . S
O129 C126 1.160 . S
O129 Cd130 2.203 . S
Cd130 O129 2.203 . S
Cd130 O132 2.411 . S
Cd130 O133 2.333 . S
Cd130 O134 2.352 . S
Cd130 O138 2.277 . S
Cd130 O139 2.356 . S
C131 O136 1.209 . S
C131 O138 1.226 . S
O132 Cd128 2.273 . S
O132 Cd130 2.411 . S
O132 C135 1.320 . S
O133 Cd130 2.333 . S
O133 C135 1.214 . S
O134 Cd130 2.352 . S
O134 C137 1.258 . S
C135 O132 1.320 . S
C135 O133 1.214 . S
O136 Cd128 2.277 . S
O136 C131 1.209 . S
C137 O134 1.258 . S
C137 O139 1.282 . S
O138 Cd130 2.277 . S
O138 C131 1.226 . S
O139 Cd130 2.356 . S
O139 C137 1.282 . S
C140 O141 1.306 . S
C140 O143 1.160 . S
O141 C140 1.306 . S
O141 Cd142 2.228 . S
Cd142 O141 2.228 . S
Cd142 O146 2.273 . S
Cd142 O150 2.277 . S
O143 C140 1.160 . S
O143 Cd144 2.203 . S
Cd144 O143 2.203 . S
Cd144 O146 2.411 . S
Cd144 O147 2.333 . S
Cd144 O148 2.352 1_455 S
Cd144 O152 2.277 . S
Cd144 O153 2.356 1_455 S
C145 O150 1.209 . S
C145 O152 1.226 . S
O146 Cd142 2.273 . S
O146 Cd144 2.411 . S
O146 C149 1.320 . S
O147 Cd144 2.333 . S
O147 C149 1.214 . S
O148 Cd144 2.352 1_655 S
O148 C151 1.258 . S
C149 O146 1.320 . S
C149 O147 1.214 . S
O150 Cd142 2.277 . S
O150 C145 1.209 . S
C151 O148 1.258 . S
C151 O153 1.282 . S
O152 Cd144 2.277 . S
O152 C145 1.226 . S
O153 Cd144 2.356 1_655 S
O153 C151 1.282 . S
C154 O155 1.306 . S
C154 O157 1.160 . S
O155 C154 1.306 . S
O155 Cd156 2.228 . S
Cd156 O155 2.228 . S
Cd156 O160 2.273 . S
Cd156 O164 2.277 . S
O157 C154 1.160 . S
O157 Cd158 2.203 . S
Cd158 O157 2.203 . S
Cd158 O160 2.411 . S
Cd158 O161 2.333 . S
Cd158 O162 2.352 1_545 S
Cd158 O166 2.277 . S
Cd158 O167 2.356 1_545 S
C159 O164 1.209 . S
C159 O166 1.226 . S
O160 Cd156 2.273 . S
O160 Cd158 2.411 . S
O160 C163 1.320 . S
O161 Cd158 2.333 . S
O161 C163 1.214 . S
O162 Cd158 2.352 1_565 S
O162 C165 1.258 . S
C163 O160 1.320 . S
C163 O161 1.214 . S
O164 Cd156 2.277 . S
O164 C159 1.209 . S
C165 O162 1.258 . S
C165 O167 1.282 . S
O166 Cd158 2.277 . S
O166 C159 1.226 . S
O167 Cd158 2.356 1_565 S
O167 C165 1.282 . S
C168 O169 1.306 . S
C168 O171 1.160 . S
O169 C168 1.306 . S
O169 Cd170 2.228 . S
Cd170 O169 2.228 . S
Cd170 O174 2.273 . S
Cd170 O178 2.277 . S
O171 C168 1.160 . S
O171 Cd172 2.203 . S
Cd172 O171 2.203 . S
Cd172 O174 2.411 . S
Cd172 O175 2.333 . S
Cd172 O176 2.352 . S
Cd172 O180 2.277 . S
Cd172 O181 2.356 . S
C173 O178 1.209 . S
C173 O180 1.226 . S
O174 Cd170 2.273 . S
O174 Cd172 2.411 . S
O174 C177 1.320 . S
O175 Cd172 2.333 . S
O175 C177 1.214 . S
O176 Cd172 2.352 . S
O176 C179 1.258 . S
C177 O174 1.320 . S
C177 O175 1.214 . S
O178 Cd170 2.277 . S
O178 C173 1.209 . S
C179 O176 1.258 . S
C179 O181 1.282 . S
O180 Cd172 2.277 . S
O180 C173 1.226 . S
O181 Cd172 2.356 . S
O181 C179 1.282 . S
C182 O183 1.306 . S
C182 O185 1.160 . S
O183 C182 1.306 . S
O183 Cd184 2.228 . S
Cd184 O183 2.228 . S
Cd184 O188 2.273 . S
Cd184 O192 2.277 . S
O185 C182 1.160 . S
O185 Cd186 2.203 . S
Cd186 O185 2.203 . S
Cd186 O188 2.411 . S
Cd186 O189 2.333 . S
Cd186 O190 2.352 . S
Cd186 O194 2.277 . S
Cd186 O195 2.356 . S
C187 O192 1.209 . S
C187 O194 1.226 . S
O188 Cd184 2.273 . S
O188 Cd186 2.411 . S
O188 C191 1.320 . S
O189 Cd186 2.333 . S
O189 C191 1.214 . S
O190 Cd186 2.352 . S
O190 C193 1.258 . S
C191 O188 1.320 . S
C191 O189 1.214 . S
O192 Cd184 2.277 . S
O192 C187 1.209 . S
C193 O190 1.258 . S
C193 O195 1.282 . S
O194 Cd186 2.277 . S
O194 C187 1.226 . S
O195 Cd186 2.356 . S
O195 C193 1.282 . S
C196 O197 1.306 . S
C196 O199 1.160 . S
O197 C196 1.306 . S
O197 Cd198 2.228 . S
Cd198 O197 2.228 . S
Cd198 O202 2.273 . S
Cd198 O206 2.277 . S
O199 C196 1.160 . S
O199 Cd200 2.203 . S
Cd200 O199 2.203 . S
Cd200 O202 2.411 . S
Cd200 O203 2.333 . S
Cd200 O204 2.352 1_455 S
Cd200 O208 2.277 . S
Cd200 O209 2.356 1_455 S
C201 O206 1.209 . S
C201 O208 1.226 . S
O202 Cd198 2.273 . S
O202 Cd200 2.411 . S
O202 C205 1.320 . S
O203 Cd200 2.333 . S
O203 C205 1.214 . S
O204 Cd200 2.352 1_655 S
O204 C207 1.258 . S
C205 O202 1.320 . S
C205 O203 1.214 . S
O206 Cd198 2.277 . S
O206 C201 1.209 . S
C207 O204 1.258 . S
C207 O209 1.282 . S
O208 Cd200 2.277 . S
O208 C201 1.226 . S
O209 Cd200 2.356 1_655 S
O209 C207 1.282 . S
C210 O211 1.306 . S
C210 O213 1.160 . S
O211 C210 1.306 . S
O211 Cd212 2.228 . S
Cd212 O211 2.228 . S
Cd212 O216 2.273 . S
Cd212 O220 2.277 . S
O213 C210 1.160 . S
O213 Cd214 2.203 . S
Cd214 O213 2.203 . S
Cd214 O216 2.411 . S
Cd214 O217 2.333 . S
Cd214 O218 2.352 1_545 S
Cd214 O222 2.277 . S
Cd214 O223 2.356 1_545 S
C215 O220 1.209 . S
C215 O222 1.226 . S
O216 Cd212 2.273 . S
O216 Cd214 2.411 . S
O216 C219 1.320 . S
O217 Cd214 2.333 . S
O217 C219 1.214 . S
O218 Cd214 2.352 1_565 S
O218 C221 1.258 . S
C219 O216 1.320 . S
C219 O217 1.214 . S
O220 Cd212 2.277 . S
O220 C215 1.209 . S
C221 O218 1.258 . S
C221 O223 1.282 . S
O222 Cd214 2.277 . S
O222 C215 1.226 . S
O223 Cd214 2.356 1_565 S
O223 C221 1.282 . S
H224 C230 0.930 . S
H225 C234 0.930 . S
H226 C239 0.929 . S
H227 C237 0.929 . S
H228 C232 0.929 . S
H229 C238 0.929 . S
C230 H224 0.930 . S
C230 C231 1.367 . S
C230 C238 1.378 . S
C231 C230 1.367 . S
C231 C239 1.433 . S
C232 H228 0.929 . S
C232 C234 1.378 . S
C232 C236 1.350 . S
C233 C236 1.463 . S
C233 C238 1.350 . S
C233 N241 1.427 . S
C234 H225 0.930 . S
C234 C232 1.378 . S
C234 C235 1.367 . S
C235 C234 1.367 . S
C235 C237 1.433 . S
C236 C232 1.350 . S
C236 C233 1.463 . S
C236 N240 1.427 . S
C237 H227 0.929 . S
C237 C235 1.433 . S
C237 N240 1.384 . S
C238 H229 0.929 . S
C238 C230 1.378 . S
C238 C233 1.350 . S
C239 H226 0.929 . S
C239 C231 1.433 . S
C239 N241 1.384 . S
N240 C236 1.427 . S
N240 C237 1.384 . S
N241 C233 1.427 . S
N241 C239 1.384 . S
H242 C248 0.930 . S
H243 C252 0.930 . S
H244 C257 0.929 . S
H245 C255 0.929 . S
H246 C250 0.929 . S
H247 C256 0.929 . S
C248 H242 0.930 . S
C248 C249 1.367 . S
C248 C256 1.378 . S
C249 C248 1.367 . S
C249 C257 1.433 . S
C250 H246 0.929 . S
C250 C252 1.378 . S
C250 C254 1.350 . S
C251 C254 1.463 . S
C251 C256 1.350 . S
C251 N259 1.427 . S
C252 H243 0.930 . S
C252 C250 1.378 . S
C252 C253 1.367 . S
C253 C252 1.367 . S
C253 C255 1.433 . S
C254 C250 1.350 . S
C254 C251 1.463 . S
C254 N258 1.427 . S
C255 H245 0.929 . S
C255 C253 1.433 . S
C255 N258 1.384 . S
C256 H247 0.929 . S
C256 C248 1.378 . S
C256 C251 1.350 . S
C257 H244 0.929 . S
C257 C249 1.433 . S
C257 N259 1.384 . S
N258 C254 1.427 . S
N258 C255 1.384 . S
N259 C251 1.427 . S
N259 C257 1.384 . S
H260 C266 0.930 . S
H261 C270 0.930 . S
H262 C275 0.929 . S
H263 C273 0.929 . S
H264 C268 0.929 . S
H265 C274 0.929 . S
C266 H260 0.930 . S
C266 C267 1.367 . S
C266 C274 1.378 . S
C267 C266 1.367 . S
C267 C275 1.433 . S
C268 H264 0.929 . S
C268 C270 1.378 . S
C268 C272 1.350 . S
C269 C272 1.463 . S
C269 C274 1.350 . S
C269 N277 1.427 . S
C270 H261 0.930 . S
C270 C268 1.378 . S
C270 C271 1.367 . S
C271 C270 1.367 . S
C271 C273 1.433 . S
C272 C268 1.350 . S
C272 C269 1.463 . S
C272 N276 1.427 . S
C273 H263 0.929 . S
C273 C271 1.433 . S
C273 N276 1.384 . S
C274 H265 0.929 . S
C274 C266 1.378 . S
C274 C269 1.350 . S
C275 H262 0.929 . S
C275 C267 1.433 . S
C275 N277 1.384 . S
N276 C272 1.427 . S
N276 C273 1.384 . S
N277 C269 1.427 . S
N277 C275 1.384 . S
H278 C284 0.930 . S
H279 C288 0.930 . S
H280 C293 0.929 . S
H281 C291 0.929 . S
H282 C286 0.929 . S
H283 C292 0.929 . S
C284 H278 0.930 . S
C284 C285 1.367 . S
C284 C292 1.378 . S
C285 C284 1.367 . S
C285 C293 1.433 . S
C286 H282 0.929 . S
C286 C288 1.378 . S
C286 C290 1.350 . S
C287 C290 1.463 . S
C287 C292 1.350 . S
C287 N295 1.427 . S
C288 H279 0.930 . S
C288 C286 1.378 . S
C288 C289 1.367 . S
C289 C288 1.367 . S
C289 C291 1.433 . S
C290 C286 1.350 . S
C290 C287 1.463 . S
C290 N294 1.427 . S
C291 H281 0.929 . S
C291 C289 1.433 . S
C291 N294 1.384 . S
C292 H283 0.929 . S
C292 C284 1.378 . S
C292 C287 1.350 . S
C293 H280 0.929 . S
C293 C285 1.433 . S
C293 N295 1.384 . S
N294 C290 1.427 . S
N294 C291 1.384 . S
N295 C287 1.427 . S
N295 C293 1.384 . S
H296 C302 0.930 . S
H297 C306 0.930 . S
H298 C311 0.929 . S
H299 C309 0.929 . S
H300 C304 0.929 . S
H301 C310 0.929 . S
C302 H296 0.930 . S
C302 C303 1.367 . S
C302 C310 1.378 . S
C303 C302 1.367 . S
C303 C311 1.433 . S
C304 H300 0.929 . S
C304 C306 1.378 . S
C304 C308 1.350 . S
C305 C308 1.463 . S
C305 C310 1.350 . S
C305 N313 1.427 . S
C306 H297 0.930 . S
C306 C304 1.378 . S
C306 C307 1.367 . S
C307 C306 1.367 . S
C307 C309 1.433 . S
C308 C304 1.350 . S
C308 C305 1.463 . S
C308 N312 1.427 . S
C309 H299 0.929 . S
C309 C307 1.433 . S
C309 N312 1.384 . S
C310 H301 0.929 . S
C310 C302 1.378 . S
C310 C305 1.350 . S
C311 H298 0.929 . S
C311 C303 1.433 . S
C311 N313 1.384 . S
N312 C308 1.427 . S
N312 C309 1.384 . S
N313 C305 1.427 . S
N313 C311 1.384 . S
H314 C320 0.930 . S
H315 C324 0.930 . S
H316 C329 0.929 . S
H317 C327 0.929 . S
H318 C322 0.929 . S
H319 C328 0.929 . S
C320 H314 0.930 . S
C320 C321 1.367 . S
C320 C328 1.378 . S
C321 C320 1.367 . S
C321 C329 1.433 . S
C322 H318 0.929 . S
C322 C324 1.378 . S
C322 C326 1.350 . S
C323 C326 1.463 . S
C323 C328 1.350 . S
C323 N331 1.427 . S
C324 H315 0.930 . S
C324 C322 1.378 . S
C324 C325 1.367 . S
C325 C324 1.367 . S
C325 C327 1.433 . S
C326 C322 1.350 . S
C326 C323 1.463 . S
C326 N330 1.427 . S
C327 H317 0.929 . S
C327 C325 1.433 . S
C327 N330 1.384 . S
C328 H319 0.929 . S
C328 C320 1.378 . S
C328 C323 1.350 . S
C329 H316 0.929 . S
C329 C321 1.433 . S
C329 N331 1.384 . S
N330 C326 1.427 . S
N330 C327 1.384 . S
N331 C323 1.427 . S
N331 C329 1.384 . S
H332 C338 0.930 . S
H333 C342 0.930 . S
H334 C347 0.929 . S
H335 C345 0.929 . S
H336 C340 0.929 . S
H337 C346 0.929 . S
C338 H332 0.930 . S
C338 C339 1.367 . S
C338 C346 1.378 . S
C339 C338 1.367 . S
C339 C347 1.433 . S
C340 H336 0.929 . S
C340 C342 1.378 . S
C340 C344 1.350 . S
C341 C344 1.463 . S
C341 C346 1.350 . S
C341 N349 1.427 . S
C342 H333 0.930 . S
C342 C340 1.378 . S
C342 C343 1.367 . S
C343 C342 1.367 . S
C343 C345 1.433 . S
C344 C340 1.350 . S
C344 C341 1.463 . S
C344 N348 1.427 . S
C345 H335 0.929 . S
C345 C343 1.433 . S
C345 N348 1.384 . S
C346 H337 0.929 . S
C346 C338 1.378 . S
C346 C341 1.350 . S
C347 H334 0.929 . S
C347 C339 1.433 . S
C347 N349 1.384 . S
N348 C344 1.427 . S
N348 C345 1.384 . S
N349 C341 1.427 . S
N349 C347 1.384 . S
H350 C356 0.930 . S
H351 C360 0.930 . S
H352 C365 0.929 . S
H353 C363 0.929 . S
H354 C358 0.929 . S
H355 C364 0.929 . S
C356 H350 0.930 . S
C356 C357 1.367 . S
C356 C364 1.378 . S
C357 C356 1.367 . S
C357 C365 1.433 . S
C358 H354 0.929 . S
C358 C360 1.378 . S
C358 C362 1.350 . S
C359 C362 1.463 . S
C359 C364 1.350 . S
C359 N367 1.427 . S
C360 H351 0.930 . S
C360 C358 1.378 . S
C360 C361 1.367 . S
C361 C360 1.367 . S
C361 C363 1.433 . S
C362 C358 1.350 . S
C362 C359 1.463 . S
C362 N366 1.427 . S
C363 H353 0.929 . S
C363 C361 1.433 . S
C363 N366 1.384 . S
C364 H355 0.929 . S
C364 C356 1.378 . S
C364 C359 1.350 . S
C365 H352 0.929 . S
C365 C357 1.433 . S
C365 N367 1.384 . S
N366 C362 1.427 . S
N366 C363 1.384 . S
N367 C359 1.427 . S
N367 C365 1.384 . S
H368 C374 0.930 . S
H369 C378 0.930 . S
H370 C383 0.929 . S
H371 C381 0.929 . S
H372 C376 0.929 . S
H373 C382 0.929 . S
C374 H368 0.930 . S
C374 C375 1.367 . S
C374 C382 1.378 . S
C375 C374 1.367 . S
C375 C383 1.433 . S
C376 H372 0.929 . S
C376 C378 1.378 . S
C376 C380 1.350 . S
C377 C380 1.463 . S
C377 C382 1.350 . S
C377 N385 1.427 . S
C378 H369 0.930 . S
C378 C376 1.378 . S
C378 C379 1.367 . S
C379 C378 1.367 . S
C379 C381 1.433 . S
C380 C376 1.350 . S
C380 C377 1.463 . S
C380 N384 1.427 . S
C381 H371 0.929 . S
C381 C379 1.433 . S
C381 N384 1.384 . S
C382 H373 0.929 . S
C382 C374 1.378 . S
C382 C377 1.350 . S
C383 H370 0.929 . S
C383 C375 1.433 . S
C383 N385 1.384 . S
N384 C380 1.427 . S
N384 C381 1.384 . S
N385 C377 1.427 . S
N385 C383 1.384 . S
H386 C392 0.930 . S
H387 C396 0.930 . S
H388 C401 0.929 . S
H389 C399 0.929 . S
H390 C394 0.929 . S
H391 C400 0.929 . S
C392 H386 0.930 . S
C392 C393 1.367 . S
C392 C400 1.378 . S
C393 C392 1.367 . S
C393 C401 1.433 . S
C394 H390 0.929 . S
C394 C396 1.378 . S
C394 C398 1.350 . S
C395 C398 1.463 . S
C395 C400 1.350 . S
C395 N403 1.427 . S
C396 H387 0.930 . S
C396 C394 1.378 . S
C396 C397 1.367 . S
C397 C396 1.367 . S
C397 C399 1.433 . S
C398 C394 1.350 . S
C398 C395 1.463 . S
C398 N402 1.427 . S
C399 H389 0.929 . S
C399 C397 1.433 . S
C399 N402 1.384 . S
C400 H391 0.929 . S
C400 C392 1.378 . S
C400 C395 1.350 . S
C401 H388 0.929 . S
C401 C393 1.433 . S
C401 N403 1.384 . S
N402 C398 1.427 . S
N402 C399 1.384 . S
N403 C395 1.427 . S
N403 C401 1.384 . S
H404 C410 0.930 . S
H405 C414 0.930 . S
H406 C419 0.929 . S
H407 C417 0.929 . S
H408 C412 0.929 . S
H409 C418 0.929 . S
C410 H404 0.930 . S
C410 C411 1.367 . S
C410 C418 1.378 . S
C411 C410 1.367 . S
C411 C419 1.433 . S
C412 H408 0.929 . S
C412 C414 1.378 . S
C412 C416 1.350 . S
C413 C416 1.463 . S
C413 C418 1.350 . S
C413 N421 1.427 . S
C414 H405 0.930 . S
C414 C412 1.378 . S
C414 C415 1.367 . S
C415 C414 1.367 . S
C415 C417 1.433 . S
C416 C412 1.350 . S
C416 C413 1.463 . S
C416 N420 1.427 . S
C417 H407 0.929 . S
C417 C415 1.433 . S
C417 N420 1.384 . S
C418 H409 0.929 . S
C418 C410 1.378 . S
C418 C413 1.350 . S
C419 H406 0.929 . S
C419 C411 1.433 . S
C419 N421 1.384 . S
N420 C416 1.427 . S
N420 C417 1.384 . S
N421 C413 1.427 . S
N421 C419 1.384 . S
H422 C428 0.930 . S
H423 C432 0.930 . S
H424 C437 0.929 . S
H425 C435 0.929 . S
H426 C430 0.929 . S
H427 C436 0.929 . S
C428 H422 0.930 . S
C428 C429 1.367 . S
C428 C436 1.378 . S
C429 C428 1.367 . S
C429 C437 1.433 . S
C430 H426 0.929 . S
C430 C432 1.378 . S
C430 C434 1.350 . S
C431 C434 1.463 . S
C431 C436 1.350 . S
C431 N439 1.427 . S
C432 H423 0.930 . S
C432 C430 1.378 . S
C432 C433 1.367 . S
C433 C432 1.367 . S
C433 C435 1.433 . S
C434 C430 1.350 . S
C434 C431 1.463 . S
C434 N438 1.427 . S
C435 H425 0.929 . S
C435 C433 1.433 . S
C435 N438 1.384 . S
C436 H427 0.929 . S
C436 C428 1.378 . S
C436 C431 1.350 . S
C437 H424 0.929 . S
C437 C429 1.433 . S
C437 N439 1.384 . S
N438 C434 1.427 . S
N438 C435 1.384 . S
N439 C431 1.427 . S
N439 C437 1.384 . S
H440 C446 0.930 . S
H441 C450 0.930 . S
H442 C455 0.929 . S
H443 C453 0.929 . S
H444 C448 0.929 . S
H445 C454 0.929 . S
C446 H440 0.930 . S
C446 C447 1.367 . S
C446 C454 1.378 . S
C447 C446 1.367 . S
C447 C455 1.433 . S
C448 H444 0.929 . S
C448 C450 1.378 . S
C448 C452 1.350 . S
C449 C452 1.463 . S
C449 C454 1.350 . S
C449 N457 1.427 . S
C450 H441 0.930 . S
C450 C448 1.378 . S
C450 C451 1.367 . S
C451 C450 1.367 . S
C451 C453 1.433 . S
C452 C448 1.350 . S
C452 C449 1.463 . S
C452 N456 1.427 . S
C453 H443 0.929 . S
C453 C451 1.433 . S
C453 N456 1.384 . S
C454 H445 0.929 . S
C454 C446 1.378 . S
C454 C449 1.350 . S
C455 H442 0.929 . S
C455 C447 1.433 . S
C455 N457 1.384 . S
N456 C452 1.427 . S
N456 C453 1.384 . S
N457 C449 1.427 . S
N457 C455 1.384 . S
H458 C464 0.930 . S
H459 C468 0.930 . S
H460 C473 0.929 . S
H461 C471 0.929 . S
H462 C466 0.929 . S
H463 C472 0.929 . S
C464 H458 0.930 . S
C464 C465 1.367 . S
C464 C472 1.378 . S
C465 C464 1.367 . S
C465 C473 1.433 . S
C466 H462 0.929 . S
C466 C468 1.378 . S
C466 C470 1.350 . S
C467 C470 1.463 . S
C467 C472 1.350 . S
C467 N475 1.427 . S
C468 H459 0.930 . S
C468 C466 1.378 . S
C468 C469 1.367 . S
C469 C468 1.367 . S
C469 C471 1.433 . S
C470 C466 1.350 . S
C470 C467 1.463 . S
C470 N474 1.427 . S
C471 H461 0.929 . S
C471 C469 1.433 . S
C471 N474 1.384 . S
C472 H463 0.929 . S
C472 C464 1.378 . S
C472 C467 1.350 . S
C473 H460 0.929 . S
C473 C465 1.433 . S
C473 N475 1.384 . S
N474 C470 1.427 . S
N474 C471 1.384 . S
N475 C467 1.427 . S
N475 C473 1.384 . S
H476 C482 0.930 . S
H477 C486 0.930 . S
H478 C491 0.929 . S
H479 C489 0.929 . S
H480 C484 0.929 . S
H481 C490 0.929 . S
C482 H476 0.930 . S
C482 C483 1.367 . S
C482 C490 1.378 . S
C483 C482 1.367 . S
C483 C491 1.433 . S
C484 H480 0.929 . S
C484 C486 1.378 . S
C484 C488 1.350 . S
C485 C488 1.463 . S
C485 C490 1.350 . S
C485 N493 1.427 . S
C486 H477 0.930 . S
C486 C484 1.378 . S
C486 C487 1.367 . S
C487 C486 1.367 . S
C487 C489 1.433 . S
C488 C484 1.350 . S
C488 C485 1.463 . S
C488 N492 1.427 . S
C489 H479 0.929 . S
C489 C487 1.433 . S
C489 N492 1.384 . S
C490 H481 0.929 . S
C490 C482 1.378 . S
C490 C485 1.350 . S
C491 H478 0.929 . S
C491 C483 1.433 . S
C491 N493 1.384 . S
N492 C488 1.427 . S
N492 C489 1.384 . S
N493 C485 1.427 . S
N493 C491 1.384 . S
H494 C500 0.930 . S
H495 C504 0.930 . S
H496 C509 0.929 . S
H497 C507 0.929 . S
H498 C502 0.929 . S
H499 C508 0.929 . S
C500 H494 0.930 . S
C500 C501 1.367 . S
C500 C508 1.378 . S
C501 C500 1.367 . S
C501 C509 1.433 . S
C502 H498 0.929 . S
C502 C504 1.378 . S
C502 C506 1.350 . S
C503 C506 1.463 . S
C503 C508 1.350 . S
C503 N511 1.427 . S
C504 H495 0.930 . S
C504 C502 1.378 . S
C504 C505 1.367 . S
C505 C504 1.367 . S
C505 C507 1.433 . S
C506 C502 1.350 . S
C506 C503 1.463 . S
C506 N510 1.427 . S
C507 H497 0.929 . S
C507 C505 1.433 . S
C507 N510 1.384 . S
C508 H499 0.929 . S
C508 C500 1.378 . S
C508 C503 1.350 . S
C509 H496 0.929 . S
C509 C501 1.433 . S
C509 N511 1.384 . S
N510 C506 1.427 . S
N510 C507 1.384 . S
N511 C503 1.427 . S
N511 C509 1.384 . S
H512 C518 0.930 . S
H513 C522 0.930 . S
H514 C527 0.929 . S
H515 C525 0.929 . S
H516 C520 0.929 . S
H517 C526 0.929 . S
C518 H512 0.930 . S
C518 C519 1.367 . S
C518 C526 1.378 . S
C519 C518 1.367 . S
C519 C527 1.433 . S
C520 H516 0.929 . S
C520 C522 1.378 . S
C520 C524 1.350 . S
C521 C524 1.463 . S
C521 C526 1.350 . S
C521 N529 1.427 . S
C522 H513 0.930 . S
C522 C520 1.378 . S
C522 C523 1.367 . S
C523 C522 1.367 . S
C523 C525 1.433 . S
C524 C520 1.350 . S
C524 C521 1.463 . S
C524 N528 1.427 . S
C525 H515 0.929 . S
C525 C523 1.433 . S
C525 N528 1.384 . S
C526 H517 0.929 . S
C526 C518 1.378 . S
C526 C521 1.350 . S
C527 H514 0.929 . S
C527 C519 1.433 . S
C527 N529 1.384 . S
N528 C524 1.427 . S
N528 C525 1.384 . S
N529 C521 1.427 . S
N529 C527 1.384 . S
H530 C536 0.930 . S
H531 C540 0.930 . S
H532 C545 0.929 . S
H533 C543 0.929 . S
H534 C538 0.929 . S
H535 C544 0.929 . S
C536 H530 0.930 . S
C536 C537 1.367 . S
C536 C544 1.378 . S
C537 C536 1.367 . S
C537 C545 1.433 . S
C538 H534 0.929 . S
C538 C540 1.378 . S
C538 C542 1.350 . S
C539 C542 1.463 . S
C539 C544 1.350 . S
C539 N547 1.427 . S
C540 H531 0.930 . S
C540 C538 1.378 . S
C540 C541 1.367 . S
C541 C540 1.367 . S
C541 C543 1.433 . S
C542 C538 1.350 . S
C542 C539 1.463 . S
C542 N546 1.427 . S
C543 H533 0.929 . S
C543 C541 1.433 . S
C543 N546 1.384 . S
C544 H535 0.929 . S
C544 C536 1.378 . S
C544 C539 1.350 . S
C545 H532 0.929 . S
C545 C537 1.433 . S
C545 N547 1.384 . S
N546 C542 1.427 . S
N546 C543 1.384 . S
N547 C539 1.427 . S
N547 C545 1.384 . S
H548 C554 0.930 . S
H549 C558 0.930 . S
H550 C563 0.929 . S
H551 C561 0.929 . S
H552 C556 0.929 . S
H553 C562 0.929 . S
C554 H548 0.930 . S
C554 C555 1.367 . S
C554 C562 1.378 . S
C555 C554 1.367 . S
C555 C563 1.433 . S
C556 H552 0.929 . S
C556 C558 1.378 . S
C556 C560 1.350 . S
C557 C560 1.463 . S
C557 C562 1.350 . S
C557 N565 1.427 . S
C558 H549 0.930 . S
C558 C556 1.378 . S
C558 C559 1.367 . S
C559 C558 1.367 . S
C559 C561 1.433 . S
C560 C556 1.350 . S
C560 C557 1.463 . S
C560 N564 1.427 . S
C561 H551 0.929 . S
C561 C559 1.433 . S
C561 N564 1.384 . S
C562 H553 0.929 . S
C562 C554 1.378 . S
C562 C557 1.350 . S
C563 H550 0.929 . S
C563 C555 1.433 . S
C563 N565 1.384 . S
N564 C560 1.427 . S
N564 C561 1.384 . S
N565 C557 1.427 . S
N565 C563 1.384 . S
H566 C572 0.930 . S
H567 C576 0.930 . S
H568 C581 0.929 . S
H569 C579 0.929 . S
H570 C574 0.929 . S
H571 C580 0.929 . S
C572 H566 0.930 . S
C572 C573 1.367 . S
C572 C580 1.378 . S
C573 C572 1.367 . S
C573 C581 1.433 . S
C574 H570 0.929 . S
C574 C576 1.378 . S
C574 C578 1.350 . S
C575 C578 1.463 . S
C575 C580 1.350 . S
C575 N583 1.427 . S
C576 H567 0.930 . S
C576 C574 1.378 . S
C576 C577 1.367 . S
C577 C576 1.367 . S
C577 C579 1.433 . S
C578 C574 1.350 . S
C578 C575 1.463 . S
C578 N582 1.427 . S
C579 H569 0.929 . S
C579 C577 1.433 . S
C579 N582 1.384 . S
C580 H571 0.929 . S
C580 C572 1.378 . S
C580 C575 1.350 . S
C581 H568 0.929 . S
C581 C573 1.433 . S
C581 N583 1.384 . S
N582 C578 1.427 . S
N582 C579 1.384 . S
N583 C575 1.427 . S
N583 C581 1.384 . S
H584 C590 0.930 . S
H585 C594 0.930 . S
H586 C599 0.929 . S
H587 C597 0.929 . S
H588 C592 0.929 . S
H589 C598 0.929 . S
C590 H584 0.930 . S
C590 C591 1.367 . S
C590 C598 1.378 . S
C591 C590 1.367 . S
C591 C599 1.433 . S
C592 H588 0.929 . S
C592 C594 1.378 . S
C592 C596 1.350 . S
C593 C596 1.463 . S
C593 C598 1.350 . S
C593 N601 1.427 . S
C594 H585 0.930 . S
C594 C592 1.378 . S
C594 C595 1.367 . S
C595 C594 1.367 . S
C595 C597 1.433 . S
C596 C592 1.350 . S
C596 C593 1.463 . S
C596 N600 1.427 . S
C597 H587 0.929 . S
C597 C595 1.433 . S
C597 N600 1.384 . S
C598 H589 0.929 . S
C598 C590 1.378 . S
C598 C593 1.350 . S
C599 H586 0.929 . S
C599 C591 1.433 . S
C599 N601 1.384 . S
N600 C596 1.427 . S
N600 C597 1.384 . S
N601 C593 1.427 . S
N601 C599 1.384 . S
H602 C608 0.930 . S
H603 C612 0.930 . S
H604 C617 0.929 . S
H605 C615 0.929 . S
H606 C610 0.929 . S
H607 C616 0.929 . S
C608 H602 0.930 . S
C608 C609 1.367 . S
C608 C616 1.378 . S
C609 C608 1.367 . S
C609 C617 1.433 . S
C610 H606 0.929 . S
C610 C612 1.378 . S
C610 C614 1.350 . S
C611 C614 1.463 . S
C611 C616 1.350 . S
C611 N619 1.427 . S
C612 H603 0.930 . S
C612 C610 1.378 . S
C612 C613 1.367 . S
C613 C612 1.367 . S
C613 C615 1.433 . S
C614 C610 1.350 . S
C614 C611 1.463 . S
C614 N618 1.427 . S
C615 H605 0.929 . S
C615 C613 1.433 . S
C615 N618 1.384 . S
C616 H607 0.929 . S
C616 C608 1.378 . S
C616 C611 1.350 . S
C617 H604 0.929 . S
C617 C609 1.433 . S
C617 N619 1.384 . S
N618 C614 1.427 . S
N618 C615 1.384 . S
N619 C611 1.427 . S
N619 C617 1.384 . S
H620 C626 0.930 . S
H621 C630 0.930 . S
H622 C635 0.929 . S
H623 C633 0.929 . S
H624 C628 0.929 . S
H625 C634 0.929 . S
C626 H620 0.930 . S
C626 C627 1.367 . S
C626 C634 1.378 . S
C627 C626 1.367 . S
C627 C635 1.433 . S
C628 H624 0.929 . S
C628 C630 1.378 . S
C628 C632 1.350 . S
C629 C632 1.463 . S
C629 C634 1.350 . S
C629 N637 1.427 . S
C630 H621 0.930 . S
C630 C628 1.378 . S
C630 C631 1.367 . S
C631 C630 1.367 . S
C631 C633 1.433 . S
C632 C628 1.350 . S
C632 C629 1.463 . S
C632 N636 1.427 . S
C633 H623 0.929 . S
C633 C631 1.433 . S
C633 N636 1.384 . S
C634 H625 0.929 . S
C634 C626 1.378 . S
C634 C629 1.350 . S
C635 H622 0.929 . S
C635 C627 1.433 . S
C635 N637 1.384 . S
N636 C632 1.427 . S
N636 C633 1.384 . S
N637 C629 1.427 . S
N637 C635 1.384 . S
H638 C644 0.930 . S
H639 C648 0.930 . S
H640 C653 0.929 . S
H641 C651 0.929 . S
H642 C646 0.929 . S
H643 C652 0.929 . S
C644 H638 0.930 . S
C644 C645 1.367 . S
C644 C652 1.378 . S
C645 C644 1.367 . S
C645 C653 1.433 . S
C646 H642 0.929 . S
C646 C648 1.378 . S
C646 C650 1.350 . S
C647 C650 1.463 . S
C647 C652 1.350 . S
C647 N655 1.427 . S
C648 H639 0.930 . S
C648 C646 1.378 . S
C648 C649 1.367 . S
C649 C648 1.367 . S
C649 C651 1.433 . S
C650 C646 1.350 . S
C650 C647 1.463 . S
C650 N654 1.427 . S
C651 H641 0.929 . S
C651 C649 1.433 . S
C651 N654 1.384 . S
C652 H643 0.929 . S
C652 C644 1.378 . S
C652 C647 1.350 . S
C653 H640 0.929 . S
C653 C645 1.433 . S
C653 N655 1.384 . S
N654 C650 1.427 . S
N654 C651 1.384 . S
N655 C647 1.427 . S
N655 C653 1.384 . S
H656 C662 0.930 . S
H657 C666 0.930 . S
H658 C671 0.929 . S
H659 C669 0.929 . S
H660 C664 0.929 . S
H661 C670 0.929 . S
C662 H656 0.930 . S
C662 C663 1.367 . S
C662 C670 1.378 . S
C663 C662 1.367 . S
C663 C671 1.433 . S
C664 H660 0.929 . S
C664 C666 1.378 . S
C664 C668 1.350 . S
C665 C668 1.463 1_554 S
C665 C670 1.350 . S
C665 N673 1.427 . S
C666 H657 0.930 . S
C666 C664 1.378 . S
C666 C667 1.367 . S
C667 C666 1.367 . S
C667 C669 1.433 . S
C668 C664 1.350 . S
C668 C665 1.463 1_556 S
C668 N672 1.427 . S
C669 H659 0.929 . S
C669 C667 1.433 . S
C669 N672 1.384 . S
C670 H661 0.929 . S
C670 C662 1.378 . S
C670 C665 1.350 . S
C671 H658 0.929 . S
C671 C663 1.433 . S
C671 N673 1.384 . S
N672 C668 1.427 . S
N672 C669 1.384 . S
N673 C665 1.427 . S
N673 C671 1.384 . S
H674 C680 0.930 . S
H675 C684 0.930 . S
H676 C689 0.929 . S
H677 C687 0.929 . S
H678 C682 0.929 . S
H679 C688 0.929 . S
C680 H674 0.930 . S
C680 C681 1.367 . S
C680 C688 1.378 . S
C681 C680 1.367 . S
C681 C689 1.433 . S
C682 H678 0.929 . S
C682 C684 1.378 . S
C682 C686 1.350 . S
C683 C686 1.463 . S
C683 C688 1.350 . S
C683 N691 1.427 . S
C684 H675 0.930 . S
C684 C682 1.378 . S
C684 C685 1.367 . S
C685 C684 1.367 . S
C685 C687 1.433 . S
C686 C682 1.350 . S
C686 C683 1.463 . S
C686 N690 1.427 . S
C687 H677 0.929 . S
C687 C685 1.433 . S
C687 N690 1.384 . S
C688 H679 0.929 . S
C688 C680 1.378 . S
C688 C683 1.350 . S
C689 H676 0.929 . S
C689 C681 1.433 . S
C689 N691 1.384 . S
N690 C686 1.427 . S
N690 C687 1.384 . S
N691 C683 1.427 . S
N691 C689 1.384 . S
H692 C698 0.930 . S
H693 C702 0.930 . S
H694 C707 0.929 . S
H695 C705 0.929 . S
H696 C700 0.929 . S
H697 C706 0.929 . S
C698 H692 0.930 . S
C698 C699 1.367 1_455 S
C698 C706 1.378 . S
C699 C698 1.367 1_655 S
C699 C707 1.433 . S
C700 H696 0.929 . S
C700 C702 1.378 . S
C700 C704 1.350 . S
C701 C704 1.463 1_554 S
C701 C706 1.350 1_655 S
C701 N709 1.427 . S
C702 H693 0.930 . S
C702 C700 1.378 . S
C702 C703 1.367 . S
C703 C702 1.367 . S
C703 C705 1.433 1_655 S
C704 C700 1.350 . S
C704 C701 1.463 1_556 S
C704 N708 1.427 1_655 S
C705 H695 0.929 . S
C705 C703 1.433 1_455 S
C705 N708 1.384 . S
C706 H697 0.929 . S
C706 C698 1.378 . S
C706 C701 1.350 1_455 S
C707 H694 0.929 . S
C707 C699 1.433 . S
C707 N709 1.384 . S
N708 C704 1.427 1_455 S
N708 C705 1.384 . S
N709 C701 1.427 . S
N709 C707 1.384 . S
H710 C716 0.930 . S
H711 C720 0.930 . S
H712 C725 0.929 . S
H713 C723 0.929 . S
H714 C718 0.929 . S
H715 C724 0.929 . S
C716 H710 0.930 . S
C716 C717 1.367 . S
C716 C724 1.378 . S
C717 C716 1.367 . S
C717 C725 1.433 1_565 S
C718 H714 0.929 . S
C718 C720 1.378 . S
C718 C722 1.350 1_545 S
C719 C722 1.463 . S
C719 C724 1.350 . S
C719 N727 1.427 1_565 S
C720 H711 0.930 . S
C720 C718 1.378 . S
C720 C721 1.367 1_545 S
C721 C720 1.367 1_565 S
C721 C723 1.433 . S
C722 C718 1.350 1_565 S
C722 C719 1.463 . S
C722 N726 1.427 . S
C723 H713 0.929 . S
C723 C721 1.433 . S
C723 N726 1.384 . S
C724 H715 0.929 . S
C724 C716 1.378 . S
C724 C719 1.350 . S
C725 H712 0.929 . S
C725 C717 1.433 1_545 S
C725 N727 1.384 . S
N726 C722 1.427 . S
N726 C723 1.384 . S
N727 C719 1.427 1_545 S
N727 C725 1.384 . S
H728 C734 0.930 . S
H729 C738 0.930 . S
H730 C743 0.929 . S
H731 C741 0.929 . S
H732 C736 0.929 . S
H733 C742 0.929 . S
C734 H728 0.930 . S
C734 C735 1.367 . S
C734 C742 1.378 . S
C735 C734 1.367 . S
C735 C743 1.433 . S
C736 H732 0.929 . S
C736 C738 1.378 . S
C736 C740 1.350 . S
C737 C740 1.463 1_556 S
C737 C742 1.350 . S
C737 N745 1.427 . S
C738 H729 0.930 . S
C738 C736 1.378 . S
C738 C739 1.367 . S
C739 C738 1.367 . S
C739 C741 1.433 . S
C740 C736 1.350 . S
C740 C737 1.463 1_554 S
C740 N744 1.427 . S
C741 H731 0.929 . S
C741 C739 1.433 . S
C741 N744 1.384 . S
C742 H733 0.929 . S
C742 C734 1.378 . S
C742 C737 1.350 . S
C743 H730 0.929 . S
C743 C735 1.433 . S
C743 N745 1.384 . S
N744 C740 1.427 . S
N744 C741 1.384 . S
N745 C737 1.427 . S
N745 C743 1.384 . S
H746 C752 0.930 . S
H747 C756 0.930 . S
H748 C761 0.929 . S
H749 C759 0.929 . S
H750 C754 0.929 . S
H751 C760 0.929 . S
C752 H746 0.930 . S
C752 C753 1.367 . S
C752 C760 1.378 . S
C753 C752 1.367 . S
C753 C761 1.433 . S
C754 H750 0.929 . S
C754 C756 1.378 . S
C754 C758 1.350 . S
C755 C758 1.463 . S
C755 C760 1.350 . S
C755 N763 1.427 . S
C756 H747 0.930 . S
C756 C754 1.378 . S
C756 C757 1.367 . S
C757 C756 1.367 . S
C757 C759 1.433 . S
C758 C754 1.350 . S
C758 C755 1.463 . S
C758 N762 1.427 . S
C759 H749 0.929 . S
C759 C757 1.433 . S
C759 N762 1.384 . S
C760 H751 0.929 . S
C760 C752 1.378 . S
C760 C755 1.350 . S
C761 H748 0.929 . S
C761 C753 1.433 . S
C761 N763 1.384 . S
N762 C758 1.427 . S
N762 C759 1.384 . S
N763 C755 1.427 . S
N763 C761 1.384 . S
H764 C770 0.930 . S
H765 C774 0.930 . S
H766 C779 0.929 . S
H767 C777 0.929 . S
H768 C772 0.929 . S
H769 C778 0.929 . S
C770 H764 0.930 . S
C770 C771 1.367 . S
C770 C778 1.378 . S
C771 C770 1.367 . S
C771 C779 1.433 1_455 S
C772 H768 0.929 . S
C772 C774 1.378 . S
C772 C776 1.350 1_655 S
C773 C776 1.463 1_554 S
C773 C778 1.350 . S
C773 N781 1.427 1_455 S
C774 H765 0.930 . S
C774 C772 1.378 . S
C774 C775 1.367 1_655 S
C775 C774 1.367 1_455 S
C775 C777 1.433 . S
C776 C772 1.350 1_455 S
C776 C773 1.463 1_556 S
C776 N780 1.427 . S
C777 H767 0.929 . S
C777 C775 1.433 . S
C777 N780 1.384 . S
C778 H769 0.929 . S
C778 C770 1.378 . S
C778 C773 1.350 . S
C779 H766 0.929 . S
C779 C771 1.433 1_655 S
C779 N781 1.384 . S
N780 C776 1.427 . S
N780 C777 1.384 . S
N781 C773 1.427 1_655 S
N781 C779 1.384 . S
H782 C788 0.930 . S
H783 C792 0.930 . S
H784 C797 0.929 . S
H785 C795 0.929 . S
H786 C790 0.929 . S
H787 C796 0.929 . S
C788 H782 0.930 . S
C788 C789 1.367 1_565 S
C788 C796 1.378 . S
C789 C788 1.367 1_545 S
C789 C797 1.433 . S
C790 H786 0.929 . S
C790 C792 1.378 . S
C790 C794 1.350 . S
C791 C794 1.463 . S
C791 C796 1.350 1_545 S
C791 N799 1.427 . S
C792 H783 0.930 . S
C792 C790 1.378 . S
C792 C793 1.367 . S
C793 C792 1.367 . S
C793 C795 1.433 1_545 S
C794 C790 1.350 . S
C794 C791 1.463 . S
C794 N798 1.427 1_545 S
C795 H785 0.929 . S
C795 C793 1.433 1_565 S
C795 N798 1.384 . S
C796 H787 0.929 . S
C796 C788 1.378 . S
C796 C791 1.350 1_565 S
C797 H784 0.929 . S
C797 C789 1.433 . S
C797 N799 1.384 . S
N798 C794 1.427 1_565 S
N798 C795 1.384 . S
N799 C791 1.427 . S
N799 C797 1.384 . S
C231 C11 1.315 . S
C235 C109 1.310 . S
C249 C25 1.314 . S
C253 C67 1.316 . S
C267 C39 1.309 . S
C271 C81 1.312 . S
C285 C53 1.313 . S
C289 C95 1.309 . S
C303 C123 1.314 . S
C307 C221 1.316 . S
C321 C179 1.310 . S
C325 C137 1.311 . S
C339 C151 1.312 . S
C343 C193 1.316 . S
C357 C165 1.309 . S
C361 C207 1.314 . S
C375 C5 1.443 . S
C379 C135 1.467 . S
C393 C19 1.443 . S
C397 C149 1.467 . S
C411 C163 1.468 . S
C415 C33 1.449 . S
C429 C47 1.443 . S
C433 C121 1.466 . S
C447 C61 1.446 . S
C451 C219 1.466 . S
C465 C177 1.467 . S
C469 C75 1.443 . S
C483 C191 1.468 . S
C487 C89 1.453 . S
C501 C205 1.467 . S
C505 C103 1.443 . S
C519 C23 1.467 . S
C523 C117 1.448 . S
C537 C37 1.468 . S
C541 C131 1.451 . S
C555 C145 1.451 . S
C559 C51 1.468 . S
C573 C9 1.468 . S
C577 C159 1.451 . S
C591 C173 1.451 . S
C595 C107 1.467 . S
C609 C187 1.452 . S
C613 C65 1.469 . S
C627 C79 1.468 . S
C631 C201 1.447 . S
C645 C93 1.468 . S
C649 C215 1.448 . S
C663 C0 1.575 . S
C667 C56 1.570 . S
C681 C70 1.568 . S
C685 C14 1.577 . S
C699 C28 1.578 . S
C703 C84 1.568 . S
C717 C98 1.569 . S
C721 C42 1.577 . S
C735 C112 1.575 . S
C739 C168 1.571 . S
C753 C182 1.569 . S
C757 C126 1.577 . S
C771 C196 1.570 . S
C775 C140 1.576 . S
C789 C210 1.575 . S
C793 C154 1.570 . S
