# Generated by pormake.
# Topology soi, (5)-cn, num edge types: 1
# Building blocks:
#     Node 0, Type 0, BuildingBlock: XOMCOT_clean_sbu_0, # of connection points: 5
#     Node 1, Type 0, BuildingBlock: XOMCOT_clean_sbu_0, # of connection points: 5
#     Node 2, Type 0, BuildingBlock: XOMCOT_clean_sbu_0, # of connection points: 5
#     Node 3, Type 0, BuildingBlock: XOMCOT_clean_sbu_0, # of connection points: 5
#     Node 4, Type 0, BuildingBlock: XOMCOT_clean_sbu_0, # of connection points: 5
#     Node 5, Type 0, BuildingBlock: XOMCOT_clean_sbu_0, # of connection points: 5
#     Node 6, Type 0, BuildingBlock: XOMCOT_clean_sbu_0, # of connection points: 5
#     Node 7, Type 0, BuildingBlock: XOMCOT_clean_sbu_0, # of connection points: 5
#     Node 8, Type 0, BuildingBlock: XOMCOT_clean_sbu_0, # of connection points: 5
#     Node 9, Type 0, BuildingBlock: XOMCOT_clean_sbu_0, # of connection points: 5
#     Node 10, Type 0, BuildingBlock: XOMCOT_clean_sbu_0, # of connection points: 5
#     Node 11, Type 0, BuildingBlock: XOMCOT_clean_sbu_0, # of connection points: 5
#     Node 12, Type 0, BuildingBlock: XOMCOT_clean_sbu_0, # of connection points: 5
#     Node 13, Type 0, BuildingBlock: XOMCOT_clean_sbu_0, # of connection points: 5
#     Node 14, Type 0, BuildingBlock: XOMCOT_clean_sbu_0, # of connection points: 5
#     Node 15, Type 0, BuildingBlock: XOMCOT_clean_sbu_0, # of connection points: 5
#     Edge 16, Type (0, 0), BuildingBlock: XUDNAN_clean_linker_2, # of connection points: 2
#     Edge 17, Type (0, 0), BuildingBlock: XUDNAN_clean_linker_2, # of connection points: 2
#     Edge 18, Type (0, 0), BuildingBlock: XUDNAN_clean_linker_2, # of connection points: 2
#     Edge 19, Type (0, 0), BuildingBlock: XUDNAN_clean_linker_2, # of connection points: 2
#     Edge 20, Type (0, 0), BuildingBlock: XUDNAN_clean_linker_2, # of connection points: 2
#     Edge 21, Type (0, 0), BuildingBlock: XUDNAN_clean_linker_2, # of connection points: 2
#     Edge 22, Type (0, 0), BuildingBlock: XUDNAN_clean_linker_2, # of connection points: 2
#     Edge 23, Type (0, 0), BuildingBlock: XUDNAN_clean_linker_2, # of connection points: 2
#     Edge 24, Type (0, 0), BuildingBlock: XUDNAN_clean_linker_2, # of connection points: 2
#     Edge 25, Type (0, 0), BuildingBlock: XUDNAN_clean_linker_2, # of connection points: 2
#     Edge 26, Type (0, 0), BuildingBlock: XUDNAN_clean_linker_2, # of connection points: 2
#     Edge 27, Type (0, 0), BuildingBlock: XUDNAN_clean_linker_2, # of connection points: 2
#     Edge 28, Type (0, 0), BuildingBlock: XUDNAN_clean_linker_2, # of connection points: 2
#     Edge 29, Type (0, 0), BuildingBlock: XUDNAN_clean_linker_2, # of connection points: 2
#     Edge 30, Type (0, 0), BuildingBlock: XUDNAN_clean_linker_2, # of connection points: 2
#     Edge 31, Type (0, 0), BuildingBlock: XUDNAN_clean_linker_2, # of connection points: 2
#     Edge 32, Type (0, 0), BuildingBlock: XUDNAN_clean_linker_2, # of connection points: 2
#     Edge 33, Type (0, 0), BuildingBlock: XUDNAN_clean_linker_2, # of connection points: 2
#     Edge 34, Type (0, 0), BuildingBlock: XUDNAN_clean_linker_2, # of connection points: 2
#     Edge 35, Type (0, 0), BuildingBlock: XUDNAN_clean_linker_2, # of connection points: 2
#     Edge 36, Type (0, 0), BuildingBlock: XUDNAN_clean_linker_2, # of connection points: 2
#     Edge 37, Type (0, 0), BuildingBlock: XUDNAN_clean_linker_2, # of connection points: 2
#     Edge 38, Type (0, 0), BuildingBlock: XUDNAN_clean_linker_2, # of connection points: 2
#     Edge 39, Type (0, 0), BuildingBlock: XUDNAN_clean_linker_2, # of connection points: 2
#     Edge 40, Type (0, 0), BuildingBlock: XUDNAN_clean_linker_2, # of connection points: 2
#     Edge 41, Type (0, 0), BuildingBlock: XUDNAN_clean_linker_2, # of connection points: 2
#     Edge 42, Type (0, 0), BuildingBlock: XUDNAN_clean_linker_2, # of connection points: 2
#     Edge 43, Type (0, 0), BuildingBlock: XUDNAN_clean_linker_2, # of connection points: 2
#     Edge 44, Type (0, 0), BuildingBlock: XUDNAN_clean_linker_2, # of connection points: 2
#     Edge 45, Type (0, 0), BuildingBlock: XUDNAN_clean_linker_2, # of connection points: 2
#     Edge 46, Type (0, 0), BuildingBlock: XUDNAN_clean_linker_2, # of connection points: 2
#     Edge 47, Type (0, 0), BuildingBlock: XUDNAN_clean_linker_2, # of connection points: 2
#     Edge 48, Type (0, 0), BuildingBlock: XUDNAN_clean_linker_2, # of connection points: 2
#     Edge 49, Type (0, 0), BuildingBlock: XUDNAN_clean_linker_2, # of connection points: 2
#     Edge 50, Type (0, 0), BuildingBlock: XUDNAN_clean_linker_2, # of connection points: 2
#     Edge 51, Type (0, 0), BuildingBlock: XUDNAN_clean_linker_2, # of connection points: 2
#     Edge 52, Type (0, 0), BuildingBlock: XUDNAN_clean_linker_2, # of connection points: 2
#     Edge 53, Type (0, 0), BuildingBlock: XUDNAN_clean_linker_2, # of connection points: 2
#     Edge 54, Type (0, 0), BuildingBlock: XUDNAN_clean_linker_2, # of connection points: 2
#     Edge 55, Type (0, 0), BuildingBlock: XUDNAN_clean_linker_2, # of connection points: 2
# Relax obj value: 0.117
# Max RMSD: 0.170
# Mean RMSD: 0.170
data_MOF--net-soi--node1-XOMCOT_clean_sbu_0--edge1-XUDNAN_clean_linker_2
_symmetry_space_group_name_H-M    P1
_symmetry_Int_Tables_number       1
_symmetry_cell_setting            triclinic
loop_
_symmetry_equiv_pos_as_xyz
'x, y, z'
_cell_length_a     49.040484
_cell_length_b     25.278757
_cell_length_c     65.890181
_cell_angle_alpha  89.905885
_cell_angle_beta   90.022992
_cell_angle_gamma 89.859171
loop_
_atom_site_label
_atom_site_type_symbol
_atom_site_fract_x
_atom_site_fract_y
_atom_site_fract_z
_atom_type_partial_charge
Co0 Co 0.32224 0.07859 0.14867 0.0
C1 C 0.32881 0.05309 0.19256 0.0
C2 C 0.29185 0.09596 0.18626 0.0
C3 C 0.29224 0.083 0.20655 0.0
N4 N 0.31471 0.07719 0.17751 0.0
N5 N 0.31547 0.05623 0.21049 0.0
H6 H 0.34792 0.03237 0.19033 0.0
H7 H 0.27568 0.11644 0.17828 0.0
C8 C 0.32205 0.1928 0.13887 0.0
O9 O 0.34501 0.18564 0.12895 0.0
N10 N 0.32809 0.07887 0.11927 0.0
C11 C 0.34102 0.04111 0.10834 0.0
C12 C 0.33323 0.04476 0.08833 0.0
C13 C 0.31199 0.10397 0.10551 0.0
N14 N 0.31499 0.08428 0.08658 0.0
C15 C 0.38159 0.0718 0.14718 0.0
C16 C 0.39025 0.15821 0.17201 0.0
C17 C 0.41283 0.1326 0.16348 0.0
C18 C 0.40831 0.08844 0.15109 0.0
C19 C 0.36404 0.14064 0.16758 0.0
N20 N 0.35978 0.09933 0.15458 0.0
H21 H 0.37866 0.03628 0.13857 0.0
H22 H 0.347 0.16086 0.17451 0.0
H23 H 0.35268 0.00867 0.11453 0.0
H24 H 0.29629 0.13221 0.10954 0.0
O25 O 0.32594 0.00257 0.14881 0.0
O26 O 0.28732 0.04772 0.14391 0.0
O27 O 0.31027 0.15423 0.14768 0.0
C28 C 0.29977 0.00247 0.14524 0.0
H29 H 0.2766 0.09232 0.21758 0.0
H30 H 0.33901 0.01797 0.07626 0.0
H31 H 0.39274 0.19226 0.18179 0.0
H32 H 0.42527 0.06642 0.14478 0.0
Co33 Co 0.67932 0.38253 0.15383 0.0
C34 C 0.67131 0.41369 0.19773 0.0
C35 C 0.70664 0.36565 0.19255 0.0
C36 C 0.70671 0.38108 0.21245 0.0
N37 N 0.68411 0.38468 0.18324 0.0
N38 N 0.68459 0.4114 0.21573 0.0
H39 H 0.6542 0.43962 0.19499 0.0
H40 H 0.72309 0.34486 0.1851 0.0
C41 C 0.69609 0.27113 0.16352 0.0
O42 O 0.67697 0.26718 0.1774 0.0
N43 N 0.67673 0.38085 0.12458 0.0
C44 C 0.65646 0.398 0.11239 0.0
C45 C 0.66658 0.40272 0.09284 0.0
C46 C 0.69862 0.37539 0.11244 0.0
N47 N 0.69322 0.38919 0.09309 0.0
C48 C 0.62318 0.37604 0.16593 0.0
C49 C 0.61291 0.27801 0.14906 0.0
C50 C 0.59274 0.30198 0.16102 0.0
C51 C 0.59786 0.35233 0.16901 0.0
C52 C 0.63807 0.30307 0.14651 0.0
N53 N 0.64351 0.34996 0.15599 0.0
H54 H 0.62628 0.41565 0.17136 0.0
H55 H 0.65334 0.28432 0.13713 0.0
H56 H 0.63649 0.41017 0.11759 0.0
H57 H 0.71875 0.36552 0.11807 0.0
O58 O 0.66896 0.45644 0.15339 0.0
O59 O 0.71125 0.42501 0.15125 0.0
O60 O 0.69844 0.31274 0.15275 0.0
C61 C 0.69492 0.4655 0.15086 0.0
H62 H 0.72249 0.37248 0.22348 0.0
H63 H 0.65588 0.41912 0.0799 0.0
H64 H 0.60956 0.23969 0.14219 0.0
H65 H 0.58234 0.3734 0.17748 0.0
Co66 Co 0.33305 0.89934 0.40913 0.0
C67 C 0.33735 0.92364 0.36513 0.0
C68 C 0.31488 0.85234 0.37093 0.0
C69 C 0.31447 0.86218 0.35037 0.0
N70 N 0.32895 0.89111 0.38017 0.0
N71 N 0.32861 0.90689 0.34677 0.0
H72 H 0.34878 0.95963 0.36759 0.0
H73 H 0.30512 0.81968 0.37862 0.0
C74 C 0.28988 0.83906 0.41962 0.0
O75 O 0.31228 0.81346 0.42461 0.0
N76 N 0.337 0.9078 0.43858 0.0
C77 C 0.36022 0.90643 0.44961 0.0
C78 C 0.35398 0.9137 0.46978 0.0
C79 C 0.31699 0.91638 0.45243 0.0
N80 N 0.32678 0.91982 0.47156 0.0
C81 C 0.39003 0.92518 0.40152 0.0
C82 C 0.40667 0.82101 0.40648 0.0
C83 C 0.42625 0.85946 0.40184 0.0
C84 C 0.41766 0.91216 0.39922 0.0
C85 C 0.37942 0.83557 0.40848 0.0
N86 N 0.37155 0.88687 0.40625 0.0
H87 H 0.38359 0.96572 0.39949 0.0
H88 H 0.36433 0.80574 0.41185 0.0
H89 H 0.38051 0.90045 0.4437 0.0
H90 H 0.29565 0.92073 0.4487 0.0
O91 O 0.33425 0.97734 0.40648 0.0
O92 O 0.29642 0.93734 0.40997 0.0
O93 O 0.29249 0.88645 0.41258 0.0
C94 C 0.30867 0.98213 0.40805 0.0
H95 H 0.30448 0.83841 0.33892 0.0
H96 H 0.36841 0.91355 0.4822 0.0
H97 H 0.41225 0.77976 0.40819 0.0
H98 H 0.43217 0.94301 0.3956 0.0
Co99 Co 0.68894 0.59195 0.4111 0.0
C100 C 0.67868 0.5707 0.36724 0.0
C101 C 0.71288 0.62213 0.37204 0.0
C102 C 0.71084 0.6118 0.35167 0.0
N103 N 0.69276 0.59644 0.38186 0.0
N104 N 0.68952 0.57918 0.34863 0.0
H105 H 0.66181 0.54429 0.37026 0.0
H106 H 0.72871 0.64526 0.37915 0.0
C107 C 0.71115 0.6943 0.42661 0.0
O108 O 0.69057 0.69987 0.43919 0.0
N109 N 0.68685 0.58732 0.44062 0.0
C110 C 0.66584 0.5894 0.45388 0.0
C111 C 0.67592 0.58275 0.47337 0.0
C112 C 0.70915 0.57968 0.4523 0.0
N113 N 0.70315 0.57616 0.47221 0.0
C114 C 0.63089 0.60957 0.4124 0.0
C115 C 0.63252 0.71211 0.39778 0.0
C116 C 0.6071 0.68967 0.40219 0.0
C117 C 0.60647 0.63745 0.4095 0.0
C118 C 0.6563 0.68285 0.4008 0.0
N119 N 0.65546 0.63307 0.40888 0.0
H120 H 0.63008 0.56887 0.41741 0.0
H121 H 0.67533 0.70012 0.39602 0.0
H122 H 0.64468 0.59505 0.45008 0.0
H123 H 0.72964 0.57716 0.44629 0.0
O124 O 0.67467 0.5205 0.40859 0.0
O125 O 0.71832 0.54254 0.41177 0.0
O126 O 0.71215 0.65601 0.41414 0.0
C127 C 0.70012 0.50577 0.40997 0.0
H128 H 0.7245 0.6262 0.34001 0.0
H129 H 0.66408 0.5815 0.48722 0.0
H130 H 0.63417 0.75202 0.39193 0.0
H131 H 0.58729 0.61779 0.41249 0.0
Co132 Co 0.69098 0.89021 0.88483 0.0
C133 C 0.68088 0.92491 0.84239 0.0
C134 C 0.70106 0.84995 0.84289 0.0
C135 C 0.69824 0.86599 0.82295 0.0
N136 N 0.68929 0.88611 0.85516 0.0
N137 N 0.68539 0.9132 0.82266 0.0
H138 H 0.67307 0.96263 0.84747 0.0
H139 H 0.71216 0.81539 0.84792 0.0
C140 C 0.68583 0.773 0.8796 0.0
O141 O 0.6643 0.77956 0.86798 0.0
N142 N 0.69358 0.89674 0.9141 0.0
C143 C 0.68015 0.93331 0.92514 0.0
C144 C 0.69019 0.93278 0.94462 0.0
C145 C 0.71157 0.87408 0.92704 0.0
N146 N 0.70985 0.89561 0.94579 0.0
C147 C 0.63289 0.90192 0.87525 0.0
C148 C 0.61681 0.82164 0.90114 0.0
C149 C 0.5982 0.84035 0.88668 0.0
C150 C 0.60612 0.8828 0.87425 0.0
C151 C 0.64326 0.84158 0.90151 0.0
N152 N 0.65169 0.87828 0.88759 0.0
H153 H 0.63842 0.93456 0.86568 0.0
H154 H 0.65765 0.82394 0.91195 0.0
H155 H 0.66484 0.96 0.91918 0.0
H156 H 0.72643 0.84451 0.92264 0.0
O157 O 0.69317 0.96684 0.88317 0.0
O158 O 0.72809 0.91069 0.88261 0.0
O159 O 0.6983 0.81257 0.88711 0.0
C160 C 0.71956 0.95922 0.88264 0.0
H161 H 0.70556 0.84482 0.80977 0.0
H162 H 0.68386 0.95828 0.95695 0.0
H163 H 0.6117 0.78926 0.91121 0.0
H164 H 0.59199 0.90018 0.86349 0.0
Co165 Co 0.33397 0.61134 0.90036 0.0
C166 C 0.33409 0.59783 0.85551 0.0
C167 C 0.33779 0.67912 0.86444 0.0
C168 C 0.34025 0.67609 0.84364 0.0
N169 N 0.33398 0.63009 0.87187 0.0
N170 N 0.33802 0.62493 0.83805 0.0
H171 H 0.33292 0.55517 0.85636 0.0
H172 H 0.33973 0.7144 0.87358 0.0
C173 C 0.29739 0.68778 0.90746 0.0
O174 O 0.32185 0.70398 0.9127 0.0
N175 N 0.3342 0.59146 0.92891 0.0
C176 C 0.35263 0.55868 0.93751 0.0
C177 C 0.34618 0.55187 0.95763 0.0
C178 C 0.31623 0.60299 0.9439 0.0
N179 N 0.3233 0.57955 0.96161 0.0
C180 C 0.38826 0.58328 0.88637 0.0
C181 C 0.41209 0.66343 0.90887 0.0
C182 C 0.42768 0.63795 0.89396 0.0
C183 C 0.4157 0.59624 0.88301 0.0
C184 C 0.3849 0.64974 0.91153 0.0
N185 N 0.3732 0.61138 0.90002 0.0
H186 H 0.3787 0.55313 0.87721 0.0
H187 H 0.3725 0.67225 0.922 0.0
H188 H 0.36952 0.54035 0.92964 0.0
H189 H 0.29845 0.62787 0.94208 0.0
O190 O 0.32803 0.53558 0.8937 0.0
O191 O 0.29465 0.58827 0.8987 0.0
O192 O 0.29509 0.63883 0.90217 0.0
C193 C 0.30231 0.54044 0.89489 0.0
H194 H 0.34397 0.70895 0.83348 0.0
H195 H 0.35717 0.52762 0.96845 0.0
H196 H 0.42017 0.69636 0.91746 0.0
H197 H 0.42709 0.5753 0.87145 0.0
Co198 Co 0.67611 0.08264 0.63059 0.0
C199 C 0.67129 0.07098 0.67547 0.0
C200 C 0.65933 0.14825 0.66531 0.0
C201 C 0.65616 0.14566 0.6861 0.0
N202 N 0.66888 0.10142 0.65866 0.0
N203 N 0.66375 0.09699 0.69247 0.0
H204 H 0.6775 0.03007 0.67534 0.0
H205 H 0.65467 0.18177 0.65569 0.0
C206 C 0.71186 0.16256 0.62977 0.0
O207 O 0.68798 0.17919 0.62325 0.0
N208 N 0.68344 0.06318 0.60263 0.0
C209 C 0.67711 0.01639 0.59407 0.0
C210 C 0.68771 0.01493 0.57474 0.0
C211 C 0.69744 0.08998 0.58826 0.0
N212 N 0.70041 0.06119 0.57112 0.0
C213 C 0.61979 0.05355 0.63825 0.0
C214 C 0.60054 0.12221 0.60867 0.0
C215 C 0.58187 0.09957 0.62222 0.0
C216 C 0.59168 0.06396 0.63696 0.0
C217 C 0.62821 0.11162 0.61073 0.0
N218 N 0.63752 0.0786 0.62552 0.0
H219 H 0.62746 0.02811 0.65017 0.0
H220 H 0.64255 0.1327 0.60126 0.0
H221 H 0.66599 0.98499 0.60153 0.0
H222 H 0.70604 0.12889 0.59037 0.0
O223 O 0.68203 0.0076 0.63866 0.0
O224 O 0.71507 0.06244 0.63742 0.0
O225 O 0.71415 0.11281 0.6339 0.0
C226 C 0.7075 0.01434 0.64068 0.0
H227 H 0.64891 0.1773 0.69575 0.0
H228 H 0.68624 0.98236 0.56415 0.0
H229 H 0.59407 0.15078 0.59737 0.0
H230 H 0.57791 0.04574 0.64773 0.0
Co231 Co 0.33375 0.40636 0.6472 0.0
C232 C 0.34343 0.44338 0.68958 0.0
C233 C 0.32478 0.3669 0.68916 0.0
C234 C 0.32712 0.38316 0.70902 0.0
N235 N 0.33495 0.40471 0.67686 0.0
N236 N 0.33867 0.43154 0.70932 0.0
H237 H 0.3519 0.48047 0.68448 0.0
H238 H 0.31563 0.33028 0.68421 0.0
C239 C 0.31049 0.30253 0.63465 0.0
O240 O 0.3291 0.29787 0.62041 0.0
N241 N 0.33162 0.40912 0.61752 0.0
C242 C 0.35146 0.42088 0.60402 0.0
C243 C 0.341 0.41832 0.5847 0.0
C244 C 0.30895 0.40207 0.60601 0.0
N245 N 0.31434 0.40667 0.58597 0.0
C246 C 0.39155 0.39108 0.64055 0.0
C247 C 0.39277 0.28519 0.65104 0.0
C248 C 0.41567 0.30758 0.64188 0.0
C249 C 0.41535 0.36164 0.63724 0.0
C250 C 0.36927 0.31579 0.6536 0.0
N251 N 0.36811 0.36688 0.64672 0.0
H252 H 0.39171 0.43302 0.63747 0.0
H253 H 0.35189 0.29758 0.66072 0.0
H254 H 0.37213 0.43146 0.60751 0.0
H255 H 0.28913 0.39207 0.61212 0.0
O256 O 0.34699 0.47877 0.64714 0.0
O257 O 0.3036 0.45336 0.6485 0.0
O258 O 0.31107 0.34092 0.64711 0.0
C259 C 0.32121 0.49149 0.64838 0.0
H260 H 0.32044 0.36104 0.72217 0.0
H261 H 0.35214 0.42438 0.57071 0.0
H262 H 0.39263 0.24383 0.65539 0.0
H263 H 0.43313 0.38064 0.63079 0.0
Co264 Co 0.82958 0.57522 0.65272 0.0
C265 C 0.83685 0.55105 0.6968 0.0
C266 C 0.80051 0.59555 0.69021 0.0
C267 C 0.80042 0.58282 0.71043 0.0
N268 N 0.8233 0.57594 0.68164 0.0
N269 N 0.8231 0.55461 0.71458 0.0
H270 H 0.85533 0.52825 0.69464 0.0
H271 H 0.78419 0.61505 0.68209 0.0
C272 C 0.81282 0.68531 0.63864 0.0
O273 O 0.82986 0.68339 0.62329 0.0
N274 N 0.83442 0.57422 0.62333 0.0
C275 C 0.85749 0.57022 0.61226 0.0
C276 C 0.85072 0.56551 0.5921 0.0
C277 C 0.81394 0.57198 0.60954 0.0
N278 N 0.82334 0.56633 0.59039 0.0
C279 C 0.88783 0.574 0.65545 0.0
C280 C 0.89554 0.68125 0.66087 0.0
C281 C 0.91805 0.64924 0.65623 0.0
C282 C 0.91412 0.59465 0.65455 0.0
C283 C 0.86941 0.65882 0.66149 0.0
N284 N 0.86563 0.60651 0.65698 0.0
H285 H 0.88536 0.53209 0.65309 0.0
H286 H 0.85245 0.68412 0.6652 0.0
H287 H 0.87801 0.56957 0.61799 0.0
H288 H 0.79254 0.57261 0.61354 0.0
O289 O 0.83959 0.50109 0.65403 0.0
O290 O 0.79761 0.53102 0.6495 0.0
O291 O 0.81101 0.64653 0.65104 0.0
C292 C 0.81397 0.49062 0.65126 0.0
H293 H 0.78437 0.59199 0.72115 0.0
H294 H 0.86494 0.56122 0.57965 0.0
H295 H 0.89791 0.72347 0.66297 0.0
H296 H 0.93114 0.56834 0.65162 0.0
Co297 Co 0.18322 0.90841 0.64823 0.0
C298 C 0.16846 0.93393 0.69157 0.0
C299 C 0.20652 0.89329 0.68854 0.0
C300 C 0.20342 0.90757 0.70845 0.0
N301 N 0.18433 0.90829 0.67787 0.0
N302 N 0.17949 0.93334 0.71048 0.0
H303 H 0.15024 0.95552 0.68765 0.0
H304 H 0.22487 0.87666 0.68206 0.0
C305 C 0.20401 0.79991 0.65806 0.0
O306 O 0.18434 0.79306 0.67135 0.0
N307 N 0.18427 0.90933 0.61885 0.0
C308 C 0.16433 0.91957 0.60531 0.0
C309 C 0.17596 0.92386 0.5862 0.0
C310 C 0.20752 0.90786 0.60795 0.0
N311 N 0.20317 0.91706 0.58804 0.0
C312 C 0.12555 0.89435 0.65481 0.0
C313 C 0.12186 0.79673 0.63625 0.0
C314 C 0.09809 0.81946 0.64433 0.0
C315 C 0.10021 0.86917 0.65364 0.0
C316 C 0.14666 0.82346 0.63757 0.0
N317 N 0.14858 0.87073 0.64747 0.0
H318 H 0.12639 0.93379 0.66091 0.0
H319 H 0.16421 0.80643 0.63015 0.0
H320 H 0.14312 0.92589 0.60913 0.0
H321 H 0.22746 0.90229 0.61468 0.0
O322 O 0.17012 0.98078 0.6482 0.0
O323 O 0.21358 0.95497 0.64837 0.0
O324 O 0.20517 0.84187 0.64743 0.0
C325 C 0.19591 -0.00679 0.64771 0.0
H326 H 0.21873 0.90287 0.72015 0.0
H327 H 0.16547 0.93423 0.57229 0.0
H328 H 0.12142 0.75863 0.62878 0.0
H329 H 0.08232 0.88936 0.65939 0.0
Co330 Co 0.81889 0.38562 0.91221 0.0
C331 C 0.8264 0.41119 0.86852 0.0
C332 C 0.79515 0.35309 0.87348 0.0
C333 C 0.79657 0.36371 0.85304 0.0
N334 N 0.81381 0.3828 0.88314 0.0
N335 N 0.81619 0.40019 0.84993 0.0
H336 H 0.84211 0.44017 0.87148 0.0
H337 H 0.78115 0.32619 0.88084 0.0
C338 C 0.82471 0.26915 0.92182 0.0
O339 O 0.8478 0.27554 0.93157 0.0
N340 N 0.82312 0.38766 0.94183 0.0
C341 C 0.84533 0.37553 0.95311 0.0
C342 C 0.83911 0.38057 0.97333 0.0
C343 C 0.80349 0.39885 0.95572 0.0
N344 N 0.81282 0.39523 0.97497 0.0
C345 C 0.87562 0.41471 0.91509 0.0
C346 C 0.89531 0.32646 0.89507 0.0
C347 C 0.91394 0.36036 0.90458 0.0
C348 C 0.90381 0.40624 0.91401 0.0
C349 C 0.86744 0.33607 0.89677 0.0
N350 N 0.85792 0.37754 0.90797 0.0
H351 H 0.8679 0.44923 0.9229 0.0
H352 H 0.85342 0.30922 0.88947 0.0
H353 H 0.86472 0.36194 0.94743 0.0
H354 H 0.78274 0.40954 0.95198 0.0
O355 O 0.81575 0.46196 0.91115 0.0
O356 O 0.78147 0.40536 0.91476 0.0
O357 O 0.81245 0.30789 0.91348 0.0
C358 C 0.78953 0.45393 0.91265 0.0
H359 H 0.78407 0.346 0.84135 0.0
H360 H 0.85272 0.37243 0.9859 0.0
H361 H 0.90214 0.29215 0.88665 0.0
H362 H 0.91736 0.43414 0.92128 0.0
Co363 Co 0.17847 0.10241 0.90448 0.0
C364 C 0.17138 0.08097 0.8598 0.0
C365 C 0.16749 0.16309 0.86748 0.0
C366 C 0.16261 0.15753 0.84709 0.0
N367 N 0.17309 0.11525 0.87556 0.0
N368 N 0.16491 0.10592 0.84222 0.0
H369 H 0.17383 0.03861 0.86118 0.0
H370 H 0.16623 0.19962 0.87595 0.0
C371 C 0.21841 0.18824 0.89833 0.0
O372 O 0.2328 0.15437 0.88766 0.0
N373 N 0.18381 0.0906 0.93329 0.0
C374 C 0.16896 0.05829 0.94522 0.0
C375 C 0.18049 0.0571 0.9643 0.0
C376 C 0.20401 0.10911 0.94529 0.0
N377 N 0.20241 0.08917 0.96431 0.0
C378 C 0.12103 0.11862 0.89954 0.0
C379 C 0.11799 0.20732 0.92403 0.0
C380 C 0.09521 0.19323 0.91239 0.0
C381 C 0.09663 0.14723 0.90052 0.0
C382 C 0.14191 0.17755 0.92268 0.0
N383 N 0.14351 0.13525 0.90989 0.0
H384 H 0.12239 0.08463 0.88964 0.0
H385 H 0.15946 0.18964 0.93142 0.0
H386 H 0.15123 0.03644 0.9403 0.0
H387 H 0.21997 0.13537 0.94014 0.0
O388 O 0.16722 0.02932 0.90147 0.0
O389 O 0.20977 0.05812 0.89915 0.0
O390 O 0.19638 0.1734 0.9068 0.0
C391 C 0.19296 0.01828 0.89915 0.0
H392 H 0.15764 0.18925 0.83666 0.0
H393 H 0.17327 0.03462 0.97721 0.0
H394 H 0.11753 0.24172 0.93381 0.0
H395 H 0.0795 0.13487 0.89131 0.0
Co396 Co 0.18639 0.42555 0.40416 0.0
C397 C 0.17516 0.44732 0.35964 0.0
C398 C 0.21396 0.41139 0.36558 0.0
C399 C 0.21278 0.4241 0.34538 0.0
N400 N 0.19025 0.42478 0.37466 0.0
N401 N 0.18845 0.44669 0.34163 0.0
H402 H 0.15603 0.46761 0.3619 0.0
H403 H 0.23175 0.39623 0.37336 0.0
C404 C 0.20678 0.31589 0.3959 0.0
O405 O 0.18761 0.3113 0.38208 0.0
N406 N 0.18476 0.42687 0.43353 0.0
C407 C 0.16496 0.4453 0.44581 0.0
C408 C 0.17362 0.4402 0.46574 0.0
C409 C 0.20507 0.41127 0.44599 0.0
N410 N 0.19882 0.41849 0.46576 0.0
C411 C 0.13003 0.40523 0.3945 0.0
C412 C 0.12607 0.31221 0.41636 0.0
C413 C 0.10275 0.33163 0.40648 0.0
C414 C 0.10499 0.37897 0.39547 0.0
C415 C 0.15052 0.34004 0.41521 0.0
N416 N 0.15268 0.38485 0.40369 0.0
H417 H 0.13075 0.44328 0.38721 0.0
H418 H 0.16763 0.32594 0.42403 0.0
H419 H 0.14572 0.46148 0.44066 0.0
H420 H 0.22439 0.39605 0.44062 0.0
O421 O 0.17087 0.49583 0.40288 0.0
O422 O 0.2151 0.47753 0.4054 0.0
O423 O 0.20927 0.35894 0.40593 0.0
C424 C 0.19577 0.51289 0.40431 0.0
H425 H 0.22897 0.41886 0.33439 0.0
H426 H 0.16215 0.45107 0.47914 0.0
H427 H 0.12549 0.27605 0.42517 0.0
H428 H 0.08734 0.39681 0.3883 0.0
Co429 Co 0.83474 0.08679 0.38956 0.0
C430 C 0.83634 0.04106 0.34786 0.0
C431 C 0.83348 0.12558 0.34707 0.0
C432 C 0.83282 0.10696 0.32742 0.0
N433 N 0.83569 0.08425 0.35997 0.0
N434 N 0.83442 0.05375 0.32795 0.0
H435 H 0.83774 0.00091 0.35341 0.0
H436 H 0.83149 0.16652 0.35149 0.0
C437 C 0.81675 0.19606 0.40042 0.0
O438 O 0.83528 0.19742 0.41484 0.0
N439 N 0.83297 0.08832 0.41916 0.0
C440 C 0.85064 0.06651 0.43254 0.0
C441 C 0.83901 0.0664 0.45155 0.0
C442 C 0.81059 0.10011 0.43033 0.0
N443 N 0.81394 0.08775 0.45011 0.0
C444 C 0.8926 0.08535 0.39509 0.0
C445 C 0.90251 0.19034 0.38621 0.0
C446 C 0.92365 0.15927 0.39417 0.0
C447 C 0.91869 0.10571 0.39793 0.0
C448 C 0.87651 0.1684 0.38382 0.0
N449 N 0.87136 0.11734 0.38958 0.0
H450 H 0.88945 0.04386 0.39799 0.0
H451 H 0.86066 0.19321 0.37769 0.0
H452 H 0.86995 0.04861 0.42885 0.0
H453 H 0.7917 0.11488 0.42395 0.0
O454 O 0.84423 0.01276 0.39125 0.0
O455 O 0.8021 0.04503 0.38984 0.0
O456 O 0.81572 0.1571 0.38819 0.0
C457 C 0.81807 0.00429 0.39191 0.0
H458 H 0.83006 0.13066 0.31388 0.0
H459 H 0.84798 0.05057 0.46531 0.0
H460 H 0.90575 0.23167 0.3826 0.0
H461 H 0.93479 0.07986 0.40334 0.0
Co462 Co 0.18316 0.5804 0.14097 0.0
C463 C 0.17235 0.56633 0.18553 0.0
C464 C 0.19541 0.63606 0.17907 0.0
C465 C 0.19393 0.63007 0.19977 0.0
N466 N 0.18121 0.59701 0.16995 0.0
N467 N 0.17939 0.58628 0.20383 0.0
H468 H 0.16324 0.52778 0.18373 0.0
H469 H 0.20783 0.66497 0.17134 0.0
C470 C 0.17961 0.69978 0.13927 0.0
O471 O 0.15915 0.70152 0.15214 0.0
N472 N 0.18703 0.56452 0.1124 0.0
C473 C 0.17221 0.5325 0.10038 0.0
C474 C 0.18452 0.53048 0.08147 0.0
C475 C 0.20803 0.581 0.10086 0.0
N476 N 0.20717 0.56076 0.08193 0.0
C477 C 0.12607 0.56478 0.15018 0.0
C478 C 0.10726 0.6402 0.1231 0.0
C479 C 0.08965 0.62094 0.13804 0.0
C480 C 0.09887 0.58114 0.15114 0.0
C481 C 0.13443 0.6236 0.12301 0.0
N482 N 0.14397 0.58952 0.13752 0.0
H483 H 0.13284 0.53365 0.16009 0.0
H484 H 0.1482 0.64079 0.11204 0.0
H485 H 0.15424 0.51112 0.10516 0.0
H486 H 0.22402 0.60654 0.10646 0.0
O487 O 0.18569 0.50541 0.14719 0.0
O488 O 0.22033 0.56164 0.14484 0.0
O489 O 0.19013 0.65586 0.13403 0.0
C490 C 0.212 0.51366 0.14785 0.0
H491 H 0.20379 0.65482 0.21097 0.0
H492 H 0.17799 0.50679 0.0687 0.0
H493 H 0.10062 0.67049 0.11254 0.0
H494 H 0.08545 0.56434 0.1625 0.0
Co495 Co 0.82324 0.8747 0.1355 0.0
C496 C 0.8248 0.89101 0.18079 0.0
C497 C 0.82056 0.80949 0.17251 0.0
C498 C 0.82052 0.81297 0.19326 0.0
N499 N 0.82326 0.8583 0.1645 0.0
N500 N 0.82292 0.86425 0.19859 0.0
H501 H 0.82658 0.93352 0.17973 0.0
H502 H 0.81835 0.77331 0.16401 0.0
C503 C 0.80294 0.77294 0.11638 0.0
O504 O 0.82162 0.77262 0.10209 0.0
N505 N 0.82268 0.89089 0.10657 0.0
C506 C 0.84126 0.91821 0.0957 0.0
C507 C 0.83241 0.9221 0.07586 0.0
C508 C 0.80243 0.88003 0.09327 0.0
N509 N 0.80817 0.89753 0.07439 0.0
C510 C 0.88153 0.87546 0.13333 0.0
C511 C 0.88977 0.76748 0.13567 0.0
C512 C 0.91234 0.80103 0.13579 0.0
C513 C 0.90808 0.85561 0.13453 0.0
C514 C 0.86353 0.78898 0.13495 0.0
N515 N 0.85947 0.84246 0.13344 0.0
H516 H 0.87885 0.91777 0.13307 0.0
H517 H 0.84684 0.76204 0.13667 0.0
H518 H 0.85991 0.93466 0.10162 0.0
H519 H 0.78376 0.85982 0.09724 0.0
O520 O 0.83353 0.94712 0.14102 0.0
O521 O 0.79113 0.91703 0.13893 0.0
O522 O 0.80293 0.80751 0.13042 0.0
C523 C 0.80745 0.95665 0.14182 0.0
H524 H 0.81883 0.77982 0.20357 0.0
H525 H 0.84324 0.94033 0.06337 0.0
H526 H 0.89233 0.72508 0.13726 0.0
H527 H 0.92512 0.88278 0.13491 0.0
H528 H 0.2523 0.9726 0.1627 0.0
H529 H 0.31335 0.92487 0.11881 0.0
H530 H 0.28484 0.84813 0.10911 0.0
H531 H 0.23794 0.84086 0.17984 0.0
H532 H 0.20223 0.85375 0.18407 0.0
H533 H 0.22653 0.90667 0.18614 0.0
H534 H 0.19886 0.96055 0.15963 0.0
H535 H 0.17483 0.90712 0.15714 0.0
H536 H 0.19215 0.93228 0.13503 0.0
H537 H 0.24982 0.77909 0.10389 0.0
H538 H 0.2156 0.70929 0.10827 0.0
H539 H 0.17878 0.79735 0.15779 0.0
C540 C 0.25956 0.94567 0.1511 0.0
C541 C 0.28476 0.95391 0.14138 0.0
C542 C 0.29409 0.9183 0.12645 0.0
C543 C 0.27791 0.87531 0.1207 0.0
C544 C 0.25282 0.86861 0.13032 0.0
C545 C 0.24401 0.90188 0.14559 0.0
C546 C 0.21756 0.88279 0.15486 0.0
C547 C 0.2213 0.87025 0.17757 0.0
C548 C 0.19449 0.9231 0.15146 0.0
C549 C 0.21301 0.83313 0.14255 0.0
C550 C 0.23322 0.82672 0.12811 0.0
C551 C 0.23396 0.78344 0.11519 0.0
C552 C 0.21439 0.74408 0.11781 0.0
C553 C 0.19475 0.74771 0.13355 0.0
C554 C 0.19338 0.79379 0.14554 0.0
H555 H 0.74501 0.4871 0.13558 0.0
H556 H 0.66845 0.5612 0.15266 0.0
H557 H 0.68648 0.64797 0.14147 0.0
H558 H 0.78846 0.58822 0.15215 0.0
H559 H 0.81225 0.58096 0.13148 0.0
H560 H 0.79247 0.52515 0.13975 0.0
H561 H 0.77457 0.5132 0.10316 0.0
H562 H 0.79361 0.56992 0.09467 0.0
H563 H 0.75728 0.56713 0.09063 0.0
H564 H 0.71412 0.72629 0.13125 0.0
H565 H 0.74983 0.79202 0.12368 0.0
H566 H 0.8076 0.66591 0.11169 0.0
C567 C 0.73199 0.52155 0.13702 0.0
C568 C 0.70543 0.51779 0.14515 0.0
C569 C 0.68891 0.56353 0.14656 0.0
C570 C 0.69891 0.61272 0.14011 0.0
C571 C 0.72519 0.6149 0.13205 0.0
C572 C 0.74148 0.57051 0.13046 0.0
C573 C 0.76937 0.58364 0.12207 0.0
C574 C 0.79196 0.56863 0.13728 0.0
C575 C 0.77395 0.5569 0.1014 0.0
C576 C 0.76665 0.6429 0.11983 0.0
C577 C 0.74088 0.66 0.12547 0.0
C578 C 0.73416 0.71338 0.12644 0.0
C579 C 0.75452 0.7503 0.12214 0.0
C580 C 0.78115 0.73357 0.11686 0.0
C581 C 0.78712 0.67934 0.11511 0.0
H582 H 0.25769 0.01365 0.39451 0.0
H583 H 0.33086 0.06903 0.42467 0.0
H584 H 0.31179 0.15916 0.42615 0.0
H585 H 0.25 0.12749 0.36297 0.0
H586 H 0.21327 0.12876 0.36392 0.0
H587 H 0.23127 0.06704 0.36686 0.0
H588 H 0.20703 0.05104 0.40125 0.0
H589 H 0.18885 0.11265 0.39836 0.0
H590 H 0.20899 0.1007 0.4208 0.0
H591 H 0.2858 0.24316 0.42396 0.0
H592 H 0.25504 0.31804 0.41651 0.0
H593 H 0.19953 0.21125 0.38571 0.0
C594 C 0.26937 0.04473 0.40169 0.0
C595 C 0.29561 0.03454 0.40963 0.0
C596 C 0.31069 0.07619 0.41852 0.0
C597 C 0.30002 0.12745 0.4195 0.0
C598 C 0.27433 0.13668 0.41127 0.0
C599 C 0.25919 0.09676 0.40241 0.0
C600 C 0.2329 0.11864 0.39354 0.0
C601 C 0.23181 0.10997 0.37045 0.0
C602 C 0.20797 0.09431 0.40412 0.0
C603 C 0.23584 0.17689 0.3987 0.0
C604 C 0.25974 0.18614 0.40917 0.0
C605 C 0.26701 0.23654 0.41573 0.0
C606 C 0.24941 0.27882 0.41143 0.0
C607 C 0.225 0.27062 0.40041 0.0
C608 C 0.21818 0.21886 0.394 0.0
H609 H 0.81268 0.28623 0.42319 0.0
H610 H 0.77154 0.19702 0.376 0.0
H611 H 0.73382 0.26175 0.37617 0.0
H612 H 0.75186 0.32684 0.45071 0.0
H613 H 0.76513 0.39166 0.45627 0.0
H614 H 0.78809 0.33639 0.45343 0.0
H615 H 0.81469 0.3869 0.42544 0.0
H616 H 0.79212 0.44247 0.42849 0.0
H617 H 0.79646 0.41284 0.40383 0.0
H618 H 0.70098 0.33813 0.38085 0.0
H619 H 0.679 0.42532 0.38696 0.0
H620 H 0.74226 0.46348 0.43044 0.0
C621 C 0.79574 0.28018 0.41291 0.0
C622 C 0.79506 0.23657 0.39962 0.0
C623 C 0.77255 0.23028 0.38632 0.0
C624 C 0.75089 0.26655 0.38641 0.0
C625 C 0.75204 0.30881 0.39988 0.0
C626 C 0.77404 0.31603 0.41274 0.0
C627 C 0.77126 0.36643 0.42482 0.0
C628 C 0.76894 0.3546 0.44766 0.0
C629 C 0.79503 0.40439 0.42036 0.0
C630 C 0.74463 0.38711 0.41639 0.0
C631 C 0.73348 0.35294 0.40232 0.0
C632 C 0.70939 0.36503 0.39196 0.0
C633 C 0.69694 0.41426 0.39559 0.0
C634 C 0.70901 0.45049 0.40916 0.0
C635 C 0.73264 0.43609 0.42003 0.0
H636 H 0.70972 0.06442 0.89046 0.0
H637 H 0.77463 0.94996 0.88081 0.0
H638 H 0.80862 0.0161 0.89093 0.0
H639 H 0.74857 0.17964 0.87179 0.0
H640 H 0.73365 0.22337 0.89031 0.0
H641 H 0.71455 0.16762 0.88105 0.0
H642 H 0.70775 0.13549 0.9181 0.0
H643 H 0.72738 0.19041 0.92745 0.0
H644 H 0.73718 0.1237 0.93391 0.0
H645 H 0.8353 0.09137 0.90518 0.0
H646 H 0.85354 0.17704 0.91732 0.0
H647 H 0.77175 0.24292 0.91645 0.0
C648 C 0.73112 0.05376 0.89001 0.0
C649 C 0.73951 0.00211 0.88494 0.0
C650 C 0.7677 0.98938 0.8847 0.0
C651 C 0.78721 0.02653 0.89052 0.0
C652 C 0.77824 0.07642 0.89628 0.0
C653 C 0.75097 0.09059 0.89562 0.0
C654 C 0.74687 0.14694 0.90263 0.0
C655 C 0.73523 0.18142 0.88542 0.0
C656 C 0.72872 0.14923 0.92165 0.0
C657 C 0.77601 0.16172 0.90753 0.0
C658 C 0.79378 0.12037 0.90398 0.0
C659 C 0.82167 0.12436 0.90786 0.0
C660 C 0.8318 0.17277 0.91493 0.0
C661 C 0.81401 0.21618 0.91774 0.0
C662 C 0.78577 0.2102 0.91432 0.0
H663 H 0.31484 0.4397 0.88333 0.0
H664 H 0.2484 0.53706 0.90567 0.0
H665 H 0.2193 0.45742 0.90847 0.0
H666 H 0.27257 0.3484 0.85369 0.0
H667 H 0.29375 0.29218 0.85976 0.0
H668 H 0.30847 0.35733 0.85842 0.0
H669 H 0.32716 0.34601 0.89497 0.0
H670 H 0.31223 0.28114 0.89653 0.0
H671 H 0.30394 0.33038 0.91531 0.0
H672 H 0.1989 0.36607 0.91136 0.0
H673 H 0.1872 0.27124 0.91149 0.0
H674 H 0.2668 0.23376 0.88642 0.0
C675 C 0.29401 0.44439 0.88851 0.0
C676 C 0.28378 0.49449 0.89424 0.0
C677 C 0.25652 0.49906 0.90105 0.0
C678 C 0.23992 0.45404 0.90277 0.0
C679 C 0.25086 0.40497 0.89742 0.0
C680 C 0.27716 0.40002 0.89016 0.0
C681 C 0.28422 0.34276 0.88578 0.0
C682 C 0.29009 0.33471 0.86306 0.0
C683 C 0.30831 0.32399 0.89894 0.0
C684 C 0.25793 0.31602 0.89202 0.0
C685 C 0.23897 0.35259 0.89874 0.0
C686 C 0.21349 0.33718 0.90594 0.0
C687 C 0.20711 0.28311 0.90606 0.0
C688 C 0.22606 0.24494 0.89893 0.0
C689 C 0.25181 0.26189 0.89186 0.0
H690 H 0.74811 0.97233 0.61735 0.0
H691 H 0.70619 0.95486 0.67483 0.0
H692 H 0.73134 0.872 0.68146 0.0
H693 H 0.74386 0.83875 0.6041 0.0
H694 H 0.77663 0.83451 0.59182 0.0
H695 H 0.75882 0.89681 0.59278 0.0
H696 H 0.80052 0.94059 0.60998 0.0
H697 H 0.81864 0.87853 0.60885 0.0
H698 H 0.81448 0.91191 0.63281 0.0
H699 H 0.75736 0.78805 0.68059 0.0
H700 H 0.78322 0.70745 0.67268 0.0
H701 H 0.80754 0.77524 0.61484 0.0
C702 C 0.74511 0.95184 0.63163 0.0
C703 C 0.72591 0.97047 0.64591 0.0
C704 C 0.7213 0.94169 0.66398 0.0
C705 C 0.73543 0.89454 0.66783 0.0
C706 C 0.75378 0.87633 0.65327 0.0
C707 C 0.75874 0.90397 0.63553 0.0
C708 C 0.77755 0.87286 0.62161 0.0
C709 C 0.76336 0.85998 0.60139 0.0
C710 C 0.80439 0.90276 0.61811 0.0
C711 C 0.78208 0.82327 0.63423 0.0
C712 C 0.7683 0.8265 0.65247 0.0
C713 C 0.76843 0.78518 0.66643 0.0
C714 C 0.7831 0.73928 0.6617 0.0
C715 C 0.79744 0.73465 0.6431 0.0
C716 C 0.79694 0.77752 0.62923 0.0
H717 H 0.2066 0.69959 0.67375 0.0
H718 H 0.25235 0.81386 0.63825 0.0
H719 H 0.29024 0.75034 0.63511 0.0
H720 H 0.26514 0.64051 0.7003 0.0
H721 H 0.25115 0.57475 0.69895 0.0
H722 H 0.2287 0.6312 0.70022 0.0
H723 H 0.20463 0.60101 0.66713 0.0
H724 H 0.22682 0.54439 0.66588 0.0
H725 H 0.22473 0.58932 0.64467 0.0
H726 H 0.32236 0.6724 0.63424 0.0
H727 H 0.34378 0.58318 0.63344 0.0
H728 H 0.2764 0.52128 0.66875 0.0
C729 C 0.22471 0.71145 0.66553 0.0
C730 C 0.22653 0.76157 0.65632 0.0
C731 C 0.25045 0.77547 0.64543 0.0
C732 C 0.27221 0.73988 0.64368 0.0
C733 C 0.26975 0.69064 0.6529 0.0
C734 C 0.24654 0.67632 0.66351 0.0
C735 C 0.24806 0.61964 0.67059 0.0
C736 C 0.24828 0.61636 0.6939 0.0
C737 C 0.22468 0.58667 0.66152 0.0
C738 C 0.27534 0.60399 0.66181 0.0
C739 C 0.2879 0.6456 0.652 0.0
C740 C 0.31285 0.63954 0.64203 0.0
C741 C 0.3249 0.58905 0.64167 0.0
C742 C 0.31155 0.54587 0.65091 0.0
C743 C 0.28691 0.55384 0.66147 0.0
H744 H 0.7648 0.45758 0.63682 0.0
H745 H 0.84108 0.39936 0.66166 0.0
H746 H 0.82447 0.30723 0.65832 0.0
H747 H 0.72102 0.36326 0.6604 0.0
H748 H 0.69884 0.35806 0.63868 0.0
H749 H 0.71709 0.41853 0.64331 0.0
H750 H 0.73815 0.41343 0.60724 0.0
H751 H 0.72006 0.35277 0.60256 0.0
H752 H 0.7566 0.35486 0.59977 0.0
H753 H 0.79779 0.21992 0.65284 0.0
H754 H 0.76429 0.14869 0.64525 0.0
H755 H 0.70775 0.26757 0.62283 0.0
C756 C 0.77799 0.42552 0.64165 0.0
C757 C 0.80412 0.43556 0.6496 0.0
C758 C 0.82091 0.39245 0.65553 0.0
C759 C 0.81166 0.34001 0.65369 0.0
C760 C 0.78572 0.33142 0.64569 0.0
C761 C 0.76926 0.3732 0.63969 0.0
C762 C 0.7424 0.35409 0.63135 0.0
C763 C 0.71843 0.3747 0.64421 0.0
C764 C 0.73913 0.36971 0.6089 0.0
C765 C 0.74609 0.29508 0.63377 0.0
C766 C 0.77107 0.28226 0.64208 0.0
C767 C 0.77823 0.22964 0.64618 0.0
C768 C 0.75917 0.18942 0.6418 0.0
C769 C 0.73346 0.20236 0.63337 0.0
C770 C 0.72724 0.2559 0.62917 0.0
H771 H 0.30836 0.20228 0.61922 0.0
H772 H 0.26182 0.31752 0.65368 0.0
H773 H 0.22433 0.25353 0.65737 0.0
H774 H 0.24981 0.13837 0.59357 0.0
H775 H 0.26479 0.07345 0.59585 0.0
H776 H 0.28637 0.13074 0.59343 0.0
H777 H 0.31142 0.10474 0.62669 0.0
H778 H 0.28999 0.0475 0.62912 0.0
H779 H 0.2919 0.09468 0.64956 0.0
H780 H 0.19319 0.17504 0.65941 0.0
H781 H 0.17284 0.08527 0.66174 0.0
H782 H 0.24072 0.02207 0.62721 0.0
C783 C 0.29007 0.21428 0.6272 0.0
C784 C 0.28791 0.26466 0.6361 0.0
C785 C 0.26389 0.27884 0.64679 0.0
C786 C 0.24238 0.24301 0.64882 0.0
C787 C 0.24525 0.19328 0.6401 0.0
C788 C 0.26853 0.17882 0.62957 0.0
C789 C 0.2677 0.12138 0.62342 0.0
C790 C 0.26712 0.11568 0.60019 0.0
C791 C 0.29167 0.09027 0.63277 0.0
C792 C 0.2408 0.10553 0.63272 0.0
C793 C 0.22777 0.14768 0.64187 0.0
C794 C 0.20305 0.14174 0.65214 0.0
C795 C 0.19165 0.09094 0.6534 0.0
C796 C 0.20545 0.04736 0.64481 0.0
C797 C 0.22994 0.055 0.63404 0.0
H798 H 0.79858 0.56106 0.91049 0.0
H799 H 0.73475 0.44237 0.90845 0.0
H800 H 0.701 0.51125 0.9002 0.0
H801 H 0.7559 0.66533 0.93331 0.0
H802 H 0.77209 0.71711 0.91889 0.0
H803 H 0.79106 0.65862 0.92574 0.0
H804 H 0.80269 0.64305 0.88782 0.0
H805 H 0.78352 0.70109 0.88083 0.0
H806 H 0.77544 0.63814 0.86955 0.0
H807 H 0.67491 0.5913 0.88902 0.0
H808 H 0.6574 0.6799 0.87943 0.0
H809 H 0.73757 0.74649 0.89038 0.0
C810 C 0.77744 0.54978 0.90861 0.0
C811 C 0.7693 0.49649 0.91007 0.0
C812 C 0.74145 0.48309 0.90747 0.0
C813 C 0.7221 0.52186 0.90271 0.0
C814 C 0.73084 0.57388 0.9009 0.0
C815 C 0.75773 0.58813 0.90411 0.0
C816 C 0.76173 0.64688 0.90107 0.0
C817 C 0.77072 0.67355 0.92094 0.0
C818 C 0.78204 0.65791 0.88379 0.0
C819 C 0.73306 0.66303 0.89524 0.0
C820 C 0.71556 0.62036 0.89511 0.0
C821 C 0.68831 0.62525 0.88931 0.0
C822 C 0.6786 0.67547 0.88376 0.0
C823 C 0.69611 0.71977 0.88431 0.0
C824 C 0.72365 0.71329 0.89007 0.0
H825 H 0.24448 0.9835 0.90629 0.0
H826 H 0.16373 0.92832 0.89022 0.0
H827 H 0.18067 0.83563 0.89046 0.0
H828 H 0.28324 0.8891 0.8775 0.0
H829 H 0.30917 0.88298 0.89676 0.0
H830 H 0.29043 0.94391 0.89412 0.0
H831 H 0.27627 0.93835 0.93202 0.0
H832 H 0.29476 0.87715 0.93471 0.0
H833 H 0.25908 0.88005 0.94118 0.0
H834 H 0.20824 0.74694 0.89249 0.0
H835 H 0.24262 0.67492 0.89687 0.0
H836 H 0.30281 0.79263 0.91361 0.0
C837 C 0.23039 0.95206 0.90254 0.0
C838 C 0.2029 0.96306 0.89801 0.0
C839 C 0.18498 0.92065 0.89363 0.0
C840 C 0.19442 0.86793 0.89375 0.0
C841 C 0.22173 0.85838 0.89855 0.0
C842 C 0.23931 0.89958 0.90295 0.0
C843 C 0.26736 0.87972 0.90844 0.0
C844 C 0.2888 0.90012 0.8933 0.0
C845 C 0.27479 0.8947 0.93039 0.0
C846 C 0.26305 0.8209 0.90632 0.0
C847 C 0.23677 0.80873 0.9005 0.0
C848 C 0.22883 0.75623 0.89718 0.0
C849 C 0.24839 0.71555 0.89973 0.0
C850 C 0.27537 0.72788 0.90572 0.0
C851 C 0.28238 0.7813 0.90918 0.0
H852 H 0.22858 0.56026 0.4317 0.0
H853 H 0.17597 0.59272 0.3804 0.0
H854 H 0.18812 0.68802 0.38222 0.0
H855 H 0.21301 0.68632 0.45906 0.0
H856 H 0.24738 0.69091 0.46859 0.0
H857 H 0.23227 0.62697 0.46423 0.0
H858 H 0.27257 0.60119 0.44068 0.0
H859 H 0.28791 0.66442 0.44528 0.0
H860 H 0.2811 0.64368 0.41962 0.0
H861 H 0.21261 0.77686 0.3866 0.0
H862 H 0.24629 0.84798 0.39325 0.0
H863 H 0.27759 0.75846 0.4443 0.0
C864 C 0.21942 0.58771 0.42103 0.0
C865 C 0.20168 0.5697 0.40579 0.0
C866 C 0.1897 0.60628 0.39217 0.0
C867 C 0.19638 0.66033 0.39317 0.0
C868 C 0.21423 0.67706 0.40837 0.0
C869 C 0.22514 0.64172 0.42227 0.0
C870 C 0.24472 0.66856 0.43658 0.0
C871 C 0.23367 0.66816 0.45841 0.0
C872 C 0.27324 0.64297 0.43545 0.0
C873 C 0.24453 0.72386 0.42782 0.0
C874 C 0.22666 0.72856 0.41168 0.0
C875 C 0.22603 0.77417 0.3996 0.0
C876 C 0.24503 0.81467 0.40356 0.0
C877 C 0.26423 0.80881 0.41942 0.0
C878 C 0.26279 0.76427 0.43228 0.0
H879 H 0.76769 0.9825 0.40687 0.0
H880 H 0.84398 0.90896 0.38886 0.0
H881 H 0.82604 0.82169 0.39932 0.0
H882 H 0.75649 0.8995 0.4514 0.0
H883 H 0.72006 0.89756 0.44785 0.0
H884 H 0.73918 0.95441 0.43954 0.0
H885 H 0.71977 0.94382 0.40313 0.0
H886 H 0.70038 0.88744 0.41139 0.0
H887 H 0.72351 0.88133 0.39026 0.0
H888 H 0.79905 0.74311 0.40946 0.0
H889 H 0.76412 0.6766 0.41782 0.0
H890 H 0.70602 0.80159 0.43091 0.0
C891 C 0.78055 0.94794 0.40502 0.0
C892 C 0.80708 0.95201 0.3969 0.0
C893 C 0.82353 0.90632 0.39498 0.0
C894 C 0.8136 0.85682 0.40099 0.0
C895 C 0.78742 0.85423 0.40915 0.0
C896 C 0.77113 0.89852 0.41122 0.0
C897 C 0.74354 0.88477 0.42002 0.0
C898 C 0.7396 0.91059 0.44094 0.0
C899 C 0.72044 0.90024 0.40532 0.0
C900 C 0.74646 0.82539 0.42185 0.0
C901 C 0.77207 0.80879 0.4157 0.0
C902 C 0.77909 0.75557 0.41459 0.0
C903 C 0.75915 0.7182 0.41934 0.0
C904 C 0.73262 0.73432 0.42517 0.0
C905 C 0.72639 0.78851 0.42697 0.0
H906 H 0.26847 0.21823 0.14359 0.0
H907 H 0.34931 0.28653 0.13863 0.0
H908 H 0.32965 0.37575 0.14355 0.0
H909 H 0.23473 0.31965 0.11533 0.0
H910 H 0.20406 0.31783 0.13038 0.0
H911 H 0.22474 0.25928 0.12786 0.0
H912 H 0.2284 0.25267 0.16704 0.0
H913 H 0.20793 0.31156 0.16967 0.0
H914 H 0.2412 0.30822 0.18125 0.0
H915 H 0.30175 0.456 0.14898 0.0
H916 H 0.26679 0.52544 0.15024 0.0
H917 H 0.20321 0.406 0.14986 0.0
C918 C 0.282 0.25204 0.14367 0.0
C919 C 0.31037 0.24591 0.14089 0.0
C920 C 0.3275 0.29076 0.1407 0.0
C921 C 0.31656 0.34135 0.14364 0.0
C922 C 0.28851 0.34605 0.14651 0.0
C923 C 0.27138 0.30282 0.14623 0.0
C924 C 0.24177 0.31925 0.14822 0.0
C925 C 0.22536 0.30305 0.12932 0.0
C926 C 0.22909 0.29657 0.16771 0.0
C927 C 0.24494 0.37866 0.14954 0.0
C928 C 0.27213 0.39297 0.14887 0.0
C929 C 0.2804 0.4454 0.14949 0.0
C930 C 0.26031 0.48451 0.15023 0.0
C931 C 0.23225 0.47103 0.15007 0.0
C932 C 0.22448 0.41736 0.15012 0.0
H933 H 0.69128 0.16415 0.16942 0.0
H934 H 0.74882 0.2872 0.15306 0.0
H935 H 0.78482 0.22019 0.14845 0.0
H936 H 0.73997 0.07619 0.19561 0.0
H937 H 0.72458 0.01707 0.18558 0.0
H938 H 0.70402 0.07516 0.1899 0.0
H939 H 0.68819 0.0734 0.15234 0.0
H940 H 0.7087 0.01544 0.14793 0.0
H941 H 0.71336 0.07351 0.13241 0.0
H942 H 0.81409 0.14035 0.14428 0.0
H943 H 0.83374 0.0514 0.13841 0.0
H944 H 0.75662 0.98033 0.15553 0.0
C945 C 0.71159 0.17683 0.16521 0.0
C946 C 0.7174 0.23057 0.16169 0.0
C947 C 0.744 0.24598 0.15577 0.0
C948 C 0.76463 0.20835 0.15325 0.0
C949 C 0.75824 0.15551 0.15655 0.0
C950 C 0.73236 0.1396 0.16226 0.0
C951 C 0.73036 0.07997 0.16312 0.0
C952 C 0.72439 0.061 0.18485 0.0
C953 C 0.70889 0.05939 0.14805 0.0
C954 C 0.75894 0.06507 0.15663 0.0
C955 C 0.77486 0.1092 0.15329 0.0
C956 C 0.80189 0.10538 0.1469 0.0
C957 C 0.81287 0.05489 0.14361 0.0
C958 C 0.79659 0.00939 0.1464 0.0
C959 C 0.76943 0.01463 0.15316 0.0
H960 H 0.28973 0.01399 0.06203 0.0
H961 H 0.30319 0.18126 0.07154 0.0
H962 H 0.27674 0.20151 0.04026 0.0
H963 H 0.29346 0.01312 1.00766 0.0
H964 H 0.26636 0.96575 1.0046 0.0
H965 H 0.28693 0.96491 0.02725 0.0
H966 H 0.24348 0.97369 0.04936 0.0
H967 H 0.22275 0.97427 0.02679 0.0
H968 H 0.22017 0.02768 0.04478 0.0
H969 H 0.25063 0.20208 1.00661 0.0
H970 H 0.2222 0.18407 0.97619 0.0
H971 H 0.22289 0.01696 0.99063 0.0
C972 C 0.28717 0.05482 0.05742 0.0
C973 C 0.29872 0.0962 0.06894 0.0
C974 C 0.2945 0.14922 0.0628 0.0
C975 C 0.27965 0.16092 0.04505 0.0
C976 C 0.26873 0.11909 0.03388 0.0
C977 C 0.27191 0.06714 0.04006 0.0
C978 C 0.25708 0.02952 0.026 0.0
C979 C 0.27716 0.99107 1.01578 0.0
C980 C 0.23453 -0.00046 0.03742 0.0
C981 C 0.2452 0.06825 1.01081 0.0
C982 C 0.25246 0.11969 1.01539 0.0
C983 C 0.24463 0.162 1.00303 0.0
C984 C 0.22865 0.15148 0.98576 0.0
C985 C 0.22026 0.09929 0.98124 0.0
C986 C 0.22878 0.05729 0.99393 0.0
H987 H 0.75899 0.3754 0.9824 0.0
H988 H 0.83334 0.43417 1.00989 0.0
H989 H 0.80958 0.44362 0.04264 0.0
H990 H 0.71148 0.46026 1.0114 0.0
H991 H 0.68621 0.40897 1.01377 0.0
H992 H 0.70839 0.41051 0.99197 0.0
H993 H 0.72376 0.31443 0.99961 0.0
H994 H 0.70175 0.31265 1.02146 0.0
H995 H 0.7376 0.29855 0.02424 0.0
H996 H 0.77923 0.44183 0.07263 0.0
H997 H 0.74368 0.42898 0.09854 0.0
H998 H 0.68812 0.3714 0.05242 0.0
C999 C 0.77006 0.39121 0.99523 0.0
C1000 C 0.79807 0.40402 0.9936 0.0
C1001 C 0.81201 0.42361 1.01084 0.0
C1002 C 0.79863 0.42944 0.02948 0.0
C1003 C 0.77122 0.4156 0.03068 0.0
C1004 C 0.75698 0.39706 1.01406 0.0
C1005 C 0.72796 0.38259 1.01989 0.0
C1006 C 0.70728 0.41768 1.00859 0.0
C1007 C 0.72246 0.32355 1.01607 0.0
C1008 C 0.72835 0.395 0.04244 0.0
C1009 C 0.75352 0.41434 0.04822 0.0
C1010 C 0.75941 0.4269 0.0683 0.0
C1011 C 0.73916 0.41904 0.08293 0.0
C1012 C 0.71326 0.39869 0.07751 0.0
C1013 C 0.70769 0.38728 0.05692 0.0
H1014 H 0.27395 0.89141 0.47928 0.0
H1015 H 0.345 0.96568 0.50617 0.0
H1016 H 0.32024 0.97532 0.53847 0.0
H1017 H 0.22303 0.97324 0.50529 0.0
H1018 H 0.19947 0.91927 0.50857 0.0
H1019 H 0.22236 0.91986 0.48718 0.0
H1020 H 0.24071 0.82761 0.49761 0.0
H1021 H 0.21795 0.82676 0.51905 0.0
H1022 H 0.25408 0.81792 0.52284 0.0
H1023 H 0.28883 0.97409 0.56819 0.0
H1024 H 0.25243 0.96253 0.59356 0.0
H1025 H 0.20084 0.89029 0.54793 0.0
C1026 C 0.28416 0.91045 0.49186 0.0
C1027 C 0.31156 0.92765 0.49012 0.0
C1028 C 0.32424 0.95152 0.50712 0.0
C1029 C 0.31026 0.95751 0.52553 0.0
C1030 C 0.28348 0.93961 0.52679 0.0
C1031 C 0.27045 0.91673 0.51043 0.0
C1032 C 0.24177 0.89957 0.51612 0.0
C1033 C 0.22039 0.9298 0.50354 0.0
C1034 C 0.23845 0.83939 0.51376 0.0
C1035 C 0.24086 0.91591 0.53829 0.0
C1036 C 0.26517 0.93903 0.54405 0.0
C1037 C 0.2697 0.9561 0.56385 0.0
C1038 C 0.24895 0.94903 0.5782 0.0
C1039 C 0.22387 0.92516 0.57278 0.0
C1040 C 0.21972 0.90897 0.55245 0.0
H1041 H 0.77318 0.60726 0.58111 0.0
H1042 H 0.83818 0.50743 0.55799 0.0
H1043 H 0.81302 0.49609 0.52597 0.0
H1044 H 0.71673 0.53458 0.5574 0.0
H1045 H 0.69749 0.59361 0.55167 0.0
H1046 H 0.71987 0.59206 0.57338 0.0
H1047 H 0.74507 0.67483 0.55985 0.0
H1048 H 0.7228 0.67665 0.53813 0.0
H1049 H 0.75923 0.67393 0.53461 0.0
H1050 H 0.78233 0.49792 0.49611 0.0
H1051 H 0.74778 0.51382 0.46966 0.0
H1052 H 0.70182 0.61255 0.51126 0.0
C1053 C 0.78188 0.58248 0.56939 0.0
C1054 C 0.80777 0.55845 0.57204 0.0
C1055 C 0.81864 0.52689 0.55623 0.0
C1056 C 0.80439 0.51985 0.53802 0.0
C1057 C 0.77917 0.54453 0.53578 0.0
C1058 C 0.76791 0.57519 0.55098 0.0
C1059 C 0.74088 0.59887 0.54417 0.0
C1060 C 0.71735 0.57856 0.55745 0.0
C1061 C 0.74208 0.65967 0.54419 0.0
C1062 C 0.73898 0.57723 0.52272 0.0
C1063 C 0.76128 0.54573 0.51832 0.0
C1064 C 0.76474 0.52242 0.49937 0.0
C1065 C 0.74509 0.53198 0.48439 0.0
C1066 C 0.72219 0.56469 0.48834 0.0
C1067 C 0.71896 0.58699 0.50789 0.0
H1068 H 0.73646 0.96633 0.96916 0.0
H1069 H 0.7194 0.79946 0.96233 0.0
H1070 H 0.74289 0.78114 0.99505 0.0
H1071 H 0.80478 0.94821 0.99106 0.0
H1072 H 0.80139 0.00457 1.0076 0.0
H1073 H 0.78372 0.00351 0.98362 0.0
H1074 H 0.738 0.02019 1.00225 0.0
H1075 H 0.75545 0.02071 0.02629 0.0
H1076 H 0.72753 0.97574 1.02218 0.0
H1077 H 0.76419 0.78335 0.03028 0.0
H1078 H 0.78785 0.80339 0.06264 0.0
H1079 H 0.79474 0.96771 0.04485 0.0
C1080 C 0.73801 0.92593 0.97453 0.0
C1081 C 0.72613 0.88415 0.96342 0.0
C1082 C 0.72858 0.83171 0.97067 0.0
C1083 C 0.7417 0.82115 0.98924 0.0
C1084 C 0.75275 0.86345 1.00008 0.0
C1085 C 0.75161 0.91466 0.99273 0.0
C1086 C 0.7656 0.95294 1.00702 0.0
C1087 C 0.79034 0.97882 0.99671 0.0
C1088 C 0.74544 -0.00514 1.0149 0.0
C1089 C 0.77436 0.91554 0.0238 0.0
C1090 C 0.76643 0.86418 1.01965 0.0
C1091 C 0.77086 0.82325 0.0335 0.0
C1092 C 0.7841 0.83496 0.05186 0.0
C1093 C 0.79319 0.8869 0.05606 0.0
C1094 C 0.78824 0.92759 0.04182 0.0
H1095 H 0.20017 0.55907 0.04071 0.0
H1096 H 0.26125 0.57453 0.08799 0.0
H1097 H 0.29689 0.5851 0.06208 0.0
H1098 H 0.2418 0.4839 1.00608 0.0
H1099 H 0.22883 0.51586 0.98357 0.0
H1100 H 0.20767 0.51057 1.00582 0.0
H1101 H 0.2007 0.61217 1.00572 0.0
H1102 H 0.22195 0.61777 0.98351 0.0
H1103 H 0.23004 0.65499 1.00603 0.0
H1104 H 0.32631 0.59023 0.03159 0.0
H1105 H 0.34795 0.5908 0.99776 0.0
H1106 H 0.26869 0.57461 0.96938 0.0
C1107 C 0.22106 0.5646 0.04555 0.0
C1108 C 0.22782 0.56644 0.06645 0.0
C1109 C 0.25541 0.57399 0.07216 0.0
C1110 C 0.27588 0.57976 0.05753 0.0
C1111 C 0.26854 0.57817 0.03714 0.0
C1112 C 0.24185 0.57091 0.03105 0.0
C1113 C 0.23978 0.57043 1.00803 0.0
C1114 C 0.22887 0.51701 1.00043 0.0
C1115 C 0.22206 0.6166 1.00037 0.0
C1116 C 0.2695 0.57802 1.00221 0.0
C1117 C 0.28566 0.58226 1.01932 0.0
C1118 C 0.31387 0.58734 1.01807 0.0
C1119 C 0.32599 0.5875 0.99883 0.0
C1120 C 0.30999 0.58309 0.98104 0.0
C1121 C 0.2813 0.57896 0.98276 0.0
H1122 H 0.73315 -0.00231 0.54872 0.0
H1123 H 0.70099 0.15703 0.55269 0.0
H1124 H 0.72524 0.18082 0.52091 0.0
H1125 H 0.79956 0.03513 0.53139 0.0
H1126 H 0.80351 0.9786 0.515 0.0
H1127 H 0.78249 0.97394 0.53732 0.0
H1128 H 0.74174 0.94375 0.51514 0.0
H1129 H 0.76263 0.94854 0.49272 0.0
H1130 H 0.73089 0.9844 0.49411 0.0
H1131 H 0.75197 0.18554 0.48777 0.0
H1132 H 0.78337 0.17399 0.45852 0.0
H1133 H 0.8005 0.0137 0.47798 0.0
C1134 C 0.73107 0.03744 0.54277 0.0
C1135 C 0.71502 0.0755 0.55297 0.0
C1136 C 0.71324 0.12747 0.54505 0.0
C1137 C 0.72679 0.14113 0.52699 0.0
C1138 C 0.74235 0.10251 0.51722 0.0
C1139 C 0.74486 0.05192 0.52502 0.0
C1140 C 0.76396 0.0185 0.51228 0.0
C1141 C 0.78885 0.00051 0.52474 0.0
C1142 C 0.7489 0.97099 0.50302 0.0
C1143 C 0.7719 0.05816 0.4961 0.0
C1144 C 0.75885 0.10612 0.49896 0.0
C1145 C 0.76244 0.14828 0.48551 0.0
C1146 C 0.78014 0.14141 0.46893 0.0
C1147 C 0.7944 0.09323 0.46623 0.0
C1148 C 0.79005 0.05112 0.47993 0.0
H1149 H 0.26761 0.45758 0.57496 0.0
H1150 H 0.32285 0.33125 0.55828 0.0
H1151 H 0.29673 0.31627 0.52668 0.0
H1152 H 0.2046 0.39929 0.55275 0.0
H1153 H 0.19213 0.46228 0.54379 0.0
H1154 H 0.21309 0.459 0.56625 0.0
H1155 H 0.24678 0.52571 0.55017 0.0
H1156 H 0.22604 0.52897 0.52765 0.0
H1157 H 0.26158 0.51134 0.52574 0.0
H1158 H 0.26731 0.31924 0.49603 0.0
H1159 H 0.23628 0.33981 0.46771 0.0
H1160 H 0.2001 0.4667 0.50298 0.0
C1161 C 0.27358 0.42594 0.56483 0.0
C1162 C 0.2969 0.39481 0.56904 0.0
C1163 C 0.30484 0.35487 0.55526 0.0
C1164 C 0.29014 0.34617 0.53735 0.0
C1165 C 0.26757 0.3781 0.53333 0.0
C1166 C 0.25922 0.41718 0.54663 0.0
C1167 C 0.23545 0.44837 0.53778 0.0
C1168 C 0.2098 0.44183 0.55093 0.0
C1169 C 0.24292 0.50707 0.53518 0.0
C1170 C 0.23212 0.42124 0.51735 0.0
C1171 C 0.25077 0.38056 0.51525 0.0
C1172 C 0.25252 0.35083 0.49753 0.0
C1173 C 0.23492 0.36313 0.48143 0.0
C1174 C 0.21578 0.40505 0.483 0.0
C1175 C 0.21424 0.43404 0.50137 0.0
H1176 H 0.28294 0.00627 0.23746 0.0
H1177 H 0.36598 0.05738 0.22718 0.0
H1178 H 0.37885 0.0255 0.26158 0.0
H1179 H 0.27832 0.03983 0.2898 0.0
H1180 H 0.25864 0.98238 0.29665 0.0
H1181 H 0.25631 0.00912 0.27136 0.0
H1182 H 0.26965 0.91795 0.25635 0.0
H1183 H 0.27185 0.89083 0.28159 0.0
H1184 H 0.30064 0.8861 0.26468 0.0
H1185 H 0.38136 -0.0071 0.2984 0.0
H1186 H 0.37467 0.95293 0.33251 0.0
H1187 H 0.29071 0.91829 0.31726 0.0
C1188 C 0.30383 0.01063 0.24249 0.0
C1189 C 0.32349 0.03455 0.22982 0.0
C1190 C 0.35073 0.03893 0.2367 0.0
C1191 C 0.35812 0.02123 0.25622 0.0
C1192 C 0.33809 -0.00157 0.26848 0.0
C1193 C 0.3116 -0.00772 0.26169 0.0
C1194 C 0.29404 0.96518 0.27746 0.0
C1195 C 0.27044 0.00129 0.28421 0.0
C1196 C 0.28343 0.91185 0.26954 0.0
C1197 C 0.31463 0.9575 0.29433 0.0
C1198 C 0.33987 0.97746 0.28902 0.0
C1199 C 0.36175 0.97664 0.30259 0.0
C1200 C 0.35778 0.95421 0.32193 0.0
C1201 C 0.3323 0.93218 0.32736 0.0
C1202 C 0.31052 0.93412 0.31335 0.0
H1203 H 0.7212 0.4565 0.24085 0.0
H1204 H 0.63476 0.42971 0.23248 0.0
H1205 H 0.6256 0.47096 0.26607 0.0
H1206 H 0.72416 0.42662 0.29311 0.0
H1207 H 0.74896 0.47698 0.29882 0.0
H1208 H 0.748 0.44777 0.27394 0.0
H1209 H 0.74255 0.54076 0.25772 0.0
H1210 H 0.74368 0.5703 0.28255 0.0
H1211 H 0.7152 0.58335 0.26597 0.0
H1212 H 0.62718 0.5104 0.30235 0.0
H1213 H 0.63885 0.55057 0.33566 0.0
H1214 H 0.7242 0.55076 0.3187 0.0
C1215 C 0.70032 0.45939 0.24605 0.0
C1216 C 0.67867 0.43959 0.23421 0.0
C1217 C 0.65157 0.44494 0.24135 0.0
C1218 C 0.64626 0.46799 0.26042 0.0
C1219 C 0.66828 0.486 0.27195 0.0
C1220 C 0.69473 0.48249 0.26481 0.0
C1221 C 0.715 0.50438 0.27986 0.0
C1222 C 0.73521 0.46137 0.28684 0.0
C1223 C 0.72998 0.55256 0.271 0.0
C1224 C 0.69598 0.52032 0.2968 0.0
C1225 C 0.66909 0.50938 0.29214 0.0
C1226 C 0.64816 0.51953 0.306 0.0
C1227 C 0.65494 0.54201 0.32491 0.0
C1228 C 0.68237 0.55442 0.32965 0.0
C1229 C 0.70298 0.54291 0.31537 0.0
H1230 H 0.70812 0.91001 0.7846 0.0
H1231 H 0.64634 0.98962 0.82067 0.0
H1232 H 0.6346 0.04566 0.79137 0.0
H1233 H 0.73018 0.02396 0.75649 0.0
H1234 H 0.73486 0.98852 0.73303 0.0
H1235 H 0.73873 0.95456 0.75692 0.0
H1236 H 0.70261 0.88578 0.74584 0.0
H1237 H 0.69869 0.91957 0.72191 0.0
H1238 H 0.66937 0.90815 0.73781 0.0
H1239 H 0.62947 0.09374 0.7582 0.0
H1240 H 0.63079 0.12896 0.72328 0.0
H1241 H 0.69532 0.01783 0.70836 0.0
C1242 C 0.69199 0.93889 0.78637 0.0
C1243 C 0.67839 0.94544 0.80519 0.0
C1244 C 0.65753 0.98426 0.80668 0.0
C1245 C 0.65054 0.01618 0.79002 0.0
C1246 C 0.66444 0.00887 0.77182 0.0
C1247 C 0.68466 0.97109 0.76983 0.0
C1248 C 0.69635 0.97135 0.74849 0.0
C1249 C 0.72684 0.98545 0.74876 0.0
C1250 C 0.69146 0.91804 0.73789 0.0
C1251 C 0.67952 0.01514 0.73884 0.0
C1252 C 0.66128 0.03631 0.75259 0.0
C1253 C 0.64369 0.07748 0.7473 0.0
C1254 C 0.64471 0.0975 0.72742 0.0
C1255 C 0.66314 0.07636 0.71296 0.0
C1256 C 0.68075 0.03454 0.71889 0.0
H1257 H 0.31506 0.42308 0.74693 0.0
H1258 H 0.37228 0.51726 0.71191 0.0
H1259 H 0.37806 0.57686 0.74107 0.0
H1260 H 0.28307 0.52941 0.77303 0.0
H1261 H 0.27977 0.4942 0.79671 0.0
H1262 H 0.28016 0.45833 0.77312 0.0
H1263 H 0.32063 0.40145 0.78603 0.0
H1264 H 0.32029 0.437 0.8097 0.0
H1265 H 0.35115 0.43362 0.79491 0.0
H1266 H 0.37679 0.62801 0.77378 0.0
H1267 H 0.36997 0.66465 0.80809 0.0
H1268 H 0.3148 0.53598 0.82236 0.0
C1269 C 0.32911 0.45569 0.74534 0.0
C1270 C 0.34306 0.46521 0.72683 0.0
C1271 C 0.36093 0.50917 0.72563 0.0
C1272 C 0.36451 0.54326 0.74221 0.0
C1273 C 0.35027 0.53287 0.76006 0.0
C1274 C 0.33308 0.48994 0.7618 0.0
C1275 C 0.32014 0.48771 0.78272 0.0
C1276 C 0.28894 0.49273 0.7813 0.0
C1277 C 0.32856 0.43693 0.794 0.0
C1278 C 0.33266 0.53628 0.79243 0.0
C1279 C 0.3499 0.56184 0.77906 0.0
C1280 C 0.36339 0.60823 0.78439 0.0
C1281 C 0.35922 0.62898 0.80388 0.0
C1282 C 0.3418 0.60334 0.81795 0.0
C1283 C 0.32845 0.55622 0.81205 0.0
H1284 H 0.7822 0.42086 0.81861 0.0
H1285 H 0.86641 0.43334 0.83785 0.0
H1286 H 0.87858 0.47122 0.80425 0.0
H1287 H 0.79485 0.38441 0.76679 0.0
H1288 H 0.7667 0.42287 0.7571 0.0
H1289 H 0.76525 0.39593 0.78239 0.0
H1290 H 0.75643 0.4897 0.79693 0.0
H1291 H 0.75772 0.51688 0.77169 0.0
H1292 H 0.77994 0.54233 0.79114 0.0
H1293 H 0.881 0.50674 0.76747 0.0
H1294 H 0.8725 0.54355 0.73297 0.0
H1295 H 0.7866 0.50801 0.73933 0.0
C1296 C 0.80326 0.43106 0.81571 0.0
C1297 C 0.82343 0.42372 0.83074 0.0
C1298 C 0.85065 0.43884 0.82653 0.0
C1299 C 0.85774 0.46001 0.80746 0.0
C1300 C 0.8373 0.46618 0.79288 0.0
C1301 C 0.81056 0.45255 0.79696 0.0
C1302 C 0.79204 0.46472 0.77922 0.0
C1303 C 0.77895 0.41396 0.77089 0.0
C1304 C 0.77026 0.50586 0.7851 0.0
C1305 C 0.81244 0.48741 0.76444 0.0
C1306 C 0.83853 0.48758 0.77237 0.0
C1307 C 0.86061 0.50686 0.76119 0.0
C1308 C 0.85569 0.52737 0.74161 0.0
C1309 C 0.8289 0.52899 0.73364 0.0
C1310 C 0.80723 0.50795 0.74517 0.0
H1311 H 0.18789 0.01609 0.82674 0.0
H1312 H 0.13207 0.14426 0.81242 0.0
H1313 H 0.12722 0.11026 0.77762 0.0
H1314 H 0.22236 0.01505 0.78008 0.0
H1315 H 0.22606 0.94419 0.77865 0.0
H1316 H 0.22353 0.976 0.80299 0.0
H1317 H 0.18239 0.91664 0.8123 0.0
H1318 H 0.18486 0.88444 0.78798 0.0
H1319 H 0.15319 0.91468 0.79568 0.0
H1320 H 0.13108 0.06639 0.74349 0.0
H1321 H 0.14337 0.01582 0.71288 0.0
H1322 H 0.19496 0.91357 0.7496 0.0
C1323 C 0.17424 0.03637 0.81641 0.0
C1324 C 0.16053 0.08314 0.82237 0.0
C1325 C 0.14318 0.10893 0.80821 0.0
C1326 C 0.14009 0.08966 0.7884 0.0
C1327 C 0.15429 0.04417 0.7829 0.0
C1328 C 0.17088 0.01759 0.79652 0.0
C1329 C 0.18483 0.97095 0.78643 0.0
C1330 C 0.21604 0.97694 0.78708 0.0
C1331 C 0.17577 0.91857 0.79618 0.0
C1332 C 0.17398 0.97631 0.76496 0.0
C1333 C 0.15624 0.01852 0.76326 0.0
C1334 C 0.14468 0.03275 0.74468 0.0
C1335 C 0.15172 0.0035 0.72733 0.0
C1336 C 0.17025 0.96045 0.72859 0.0
C1337 C 0.181 0.94642 0.74786 0.0
H1338 H 0.21959 0.50483 0.3163 0.0
H1339 H 0.13892 0.43842 0.32355 0.0
H1340 H 0.12691 0.46791 0.28862 0.0
H1341 H 0.19839 0.62099 0.28699 0.0
H1342 H 0.22872 0.61984 0.27154 0.0
H1343 H 0.22988 0.59542 0.29723 0.0
H1344 H 0.24869 0.50578 0.2842 0.0
H1345 H 0.24733 0.52968 0.25847 0.0
H1346 H 0.22981 0.46963 0.2653 0.0
H1347 H 0.12594 0.49807 0.25127 0.0
H1348 H 0.13406 0.53507 0.21685 0.0
H1349 H 0.21477 0.58455 0.23542 0.0
C1350 C 0.1993 0.497 0.31057 0.0
C1351 C 0.18015 0.4692 0.32249 0.0
C1352 C 0.15373 0.46001 0.31464 0.0
C1353 C 0.14687 0.47632 0.29481 0.0
C1354 C 0.16656 0.50254 0.28325 0.0
C1355 C 0.19208 0.51365 0.29106 0.0
C1356 C 0.20969 0.54229 0.27574 0.0
C1357 C 0.2171 0.59794 0.28333 0.0
C1358 C 0.23539 0.50989 0.27063 0.0
C1359 C 0.19036 0.54485 0.25787 0.0
C1360 C 0.16562 0.52145 0.26236 0.0
C1361 C 0.14511 0.51709 0.24775 0.0
C1362 C 0.14992 0.53783 0.22822 0.0
C1363 C 0.1749 0.56312 0.22357 0.0
C1364 C 0.19529 0.56637 0.23865 0.0
H1365 H 0.8486 0.07147 0.28839 0.0
H1366 H 0.81309 0.95483 0.32888 0.0
H1367 H 0.80645 0.89454 0.30001 0.0
H1368 H 0.80385 0.04757 0.24602 0.0
H1369 H 0.82996 0.05594 0.22705 0.0
H1370 H 0.8325 0.09026 0.25092 0.0
H1371 H 0.88022 0.04904 0.25699 0.0
H1372 H 0.87787 0.01478 0.2331 0.0
H1373 H 0.88425 0.97816 0.25613 0.0
H1374 H 0.80193 0.84823 0.267 0.0
H1375 H 0.80191 0.81588 0.23201 0.0
H1376 H 0.84158 0.96053 0.21211 0.0
C1377 C 0.83939 0.03329 0.29117 0.0
C1378 C 0.83149 0.01792 0.31101 0.0
C1379 C 0.81974 0.96733 0.31398 0.0
C1380 C 0.81568 0.93289 0.29761 0.0
C1381 C 0.82354 0.94937 0.27831 0.0
C1382 C 0.83531 -0.00184 0.27496 0.0
C1383 C 0.84206 0.00565 0.25262 0.0
C1384 C 0.82614 0.05265 0.24363 0.0
C1385 C 0.87294 0.01229 0.24954 0.0
C1386 C 0.8321 0.95348 0.24397 0.0
C1387 C 0.82142 0.92189 0.25912 0.0
C1388 C 0.81055 0.87232 0.25503 0.0
C1389 C 0.81085 0.85411 0.23499 0.0
C1390 C 0.82217 0.88501 0.21908 0.0
C1391 C 0.83274 0.93573 0.22375 0.0
H1392 H 0.55933 0.24812 0.13455 0.0
H1393 H 0.56734 0.29427 0.19768 0.0
H1394 H 0.52363 0.25064 0.20551 0.0
H1395 H 0.48796 0.27015 0.13103 0.0
H1396 H 0.48153 0.21451 0.11465 0.0
H1397 H 0.51428 0.2465 0.11421 0.0
H1398 H 0.5379 0.15681 0.12178 0.0
H1399 H 0.50518 0.12454 0.12232 0.0
H1400 H 0.5278 0.11921 0.14379 0.0
H1401 H 0.47858 0.20529 0.20636 0.0
H1402 H 0.43393 0.16379 0.19994 0.0
H1403 H 0.45454 0.14736 0.13621 0.0
C1404 C 0.55203 0.24837 0.15006 0.0
C1405 C 0.56671 0.27458 0.16553 0.0
C1406 C 0.55628 0.27487 0.18557 0.0
C1407 C 0.53159 0.24987 0.19019 0.0
C1408 C 0.51754 0.2247 0.17461 0.0
C1409 C 0.52729 0.22382 0.15493 0.0
C1410 C 0.50745 0.19619 0.14085 0.0
C1411 C 0.4972 0.23411 0.12421 0.0
C1412 C 0.52036 0.14622 0.13165 0.0
C1413 C 0.48492 0.18227 0.15566 0.0
C1414 C 0.4913 0.19874 0.17507 0.0
C1415 C 0.47338 0.19203 0.19125 0.0
C1416 C 0.44803 0.16865 0.18743 0.0
C1417 C 0.44075 0.15243 0.16759 0.0
C1418 C 0.45969 0.15864 0.15159 0.0
H1419 H 0.45601 0.79199 0.42583 0.0
H1420 H 0.46182 0.89051 0.37202 0.0
H1421 H 0.50893 0.85853 0.36642 0.0
H1422 H 0.5261 0.80875 0.44259 0.0
H1423 H 0.52907 0.74147 0.45144 0.0
H1424 H 0.49637 0.7741 0.4516 0.0
H1425 H 0.47613 0.69804 0.43005 0.0
H1426 H 0.5088 0.66541 0.42967 0.0
H1427 H 0.4918 0.68118 0.40616 0.0
H1428 H 0.55428 0.81153 0.3656 0.0
H1429 H 0.59565 0.7576 0.3707 0.0
H1430 H 0.56052 0.69115 0.42558 0.0
C1431 C 0.46722 0.80697 0.41289 0.0
C1432 C 0.45525 0.84371 0.39933 0.0
C1433 C 0.47069 0.86282 0.38272 0.0
C1434 C 0.49738 0.84461 0.37935 0.0
C1435 C 0.50835 0.8076 0.39281 0.0
C1436 C 0.49385 0.7894 0.40936 0.0
C1437 C 0.51021 0.74936 0.42145 0.0
C1438 C 0.51577 0.76965 0.44305 0.0
C1439 C 0.49587 0.6953 0.42184 0.0
C1440 C 0.5361 0.74736 0.40898 0.0
C1441 C 0.5346 0.7812 0.39252 0.0
C1442 C 0.55581 0.78542 0.37859 0.0
C1443 C 0.57931 0.75475 0.38169 0.0
C1444 C 0.58157 0.72042 0.39868 0.0
C1445 C 0.55947 0.71664 0.41238 0.0
H1446 H 0.56359 0.8001 0.91576 0.0
H1447 H 0.57351 0.81604 0.85057 0.0
H1448 H 0.5324 0.76159 0.84521 0.0
H1449 H 0.5421 0.6648 0.91542 0.0
H1450 H 0.51786 0.67309 0.93573 0.0
H1451 H 0.5476 0.71466 0.93451 0.0
H1452 H 0.51697 0.79839 0.93492 0.0
H1453 H 0.48719 0.7571 0.93644 0.0
H1454 H 0.49018 0.80521 0.91635 0.0
H1455 H 0.49057 0.70342 0.84702 0.0
H1456 H 0.44889 0.65388 0.85594 0.0
H1457 H 0.46761 0.67327 0.91988 0.0
C1458 C 0.55713 0.79225 0.90034 0.0
C1459 C 0.57181 0.81253 0.88359 0.0
C1460 C 0.5624 0.80174 0.86367 0.0
C1461 C 0.53924 0.7703 0.86046 0.0
C1462 C 0.52568 0.7499 0.87731 0.0
C1463 C 0.53412 0.7609 0.89686 0.0
C1464 C 0.51582 0.73472 0.91239 0.0
C1465 C 0.5318 0.69442 0.92527 0.0
C1466 C 0.5017 0.77634 0.92581 0.0
C1467 C 0.49566 0.70743 0.89853 0.0
C1468 C 0.50179 0.7163 0.87835 0.0
C1469 C 0.48565 0.69604 0.86278 0.0
C1470 C 0.46215 0.66742 0.868 0.0
C1471 C 0.45497 0.65948 0.88861 0.0
C1472 C 0.47244 0.67878 0.90399 0.0
H1473 H 0.45332 0.25667 0.66597 0.0
H1474 H 0.42928 0.28208 0.60343 0.0
H1475 H 0.46612 0.2221 0.59197 0.0
H1476 H 0.52508 0.25871 0.65626 0.0
H1477 H 0.5333 0.20914 0.675 0.0
H1478 H 0.50366 0.25037 0.67826 0.0
H1479 H 0.47359 0.16656 0.68132 0.0
H1480 H 0.50316 0.12509 0.67776 0.0
H1481 H 0.47407 0.11815 0.66126 0.0
H1482 H 0.50563 0.16133 0.58724 0.0
H1483 H 0.54933 0.11304 0.58895 0.0
H1484 H 0.54989 0.13027 0.65446 0.0
C1485 C 0.45589 0.24923 0.6499 0.0
C1486 C 0.43861 0.27359 0.63549 0.0
C1487 C 0.4425 0.2637 0.61459 0.0
C1488 C 0.46317 0.22944 0.60799 0.0
C1489 C 0.47987 0.20573 0.62253 0.0
C1490 C 0.47679 0.21574 0.64303 0.0
C1491 C 0.49895 0.18843 0.65529 0.0
C1492 C 0.51627 0.22909 0.66688 0.0
C1493 C 0.4867 0.1471 0.66976 0.0
C1494 C 0.51515 0.16217 0.63845 0.0
C1495 C 0.50342 0.17189 0.61973 0.0
C1496 C 0.51502 0.15341 0.6018 0.0
C1497 C 0.53983 0.12603 0.60293 0.0
C1498 C 0.55305 0.11793 0.62181 0.0
C1499 C 0.54007 0.13496 0.63984 0.0
H1500 H 0.94942 0.71909 0.67853 0.0
H1501 H 0.9471 0.63133 0.62204 0.0
H1502 H 0.99192 0.66773 0.61252 0.0
H1503 H 0.98339 0.8364 0.6588 0.0
H1504 H 1.00417 0.84572 0.68108 0.0
H1505 H 0.97124 0.81477 0.68326 0.0
H1506 H 0.99356 0.73324 0.70047 0.0
H1507 H 0.02653 0.76399 0.69837 0.0
H1508 H 0.02103 0.69919 0.68778 0.0
H1509 H 0.03644 0.71306 0.60887 0.0
H1510 H 0.07966 0.76137 0.612 0.0
H1511 H 0.0553 0.81655 0.67176 0.0
C1512 C 0.95836 0.70798 0.66413 0.0
C1513 C 0.9449 0.67236 0.65101 0.0
C1514 C 0.95725 0.6582 0.63236 0.0
C1515 C 0.9826 0.67886 0.62677 0.0
C1516 C 0.9955 0.71346 0.64006 0.0
C1517 C 0.98399 0.72776 0.65841 0.0
C1518 C 1.00291 0.76402 0.67015 0.0
C1519 C 0.98963 0.81846 0.67352 0.0
C1520 C 0.01152 0.73857 0.69039 0.0
C1521 C 0.02676 0.76765 0.65553 0.0
C1522 C 0.02186 0.7385 0.63821 0.0
C1523 C 0.04065 0.7357 0.62244 0.0
C1524 C 0.06531 0.76298 0.62446 0.0
C1525 C 0.07125 0.79231 0.64225 0.0
C1526 C 0.05146 0.79486 0.6579 0.0
H1527 H 0.04124 0.1639 0.91351 0.0
H1528 H 0.09397 0.30113 0.90951 0.0
H1529 H 0.05355 0.35931 0.90729 0.0
H1530 H 0.9908 0.20912 0.87824 0.0
H1531 H 0.96248 0.18214 0.89225 0.0
H1532 H 0.99557 0.15139 0.89397 0.0
H1533 H 0.99459 0.16116 0.93312 0.0
H1534 H 0.96144 0.19169 0.93152 0.0
H1535 H 0.98894 0.22548 0.94415 0.0
H1536 H 0.00714 0.40238 0.90436 0.0
H1537 H 0.95841 0.42691 0.90214 0.0
H1538 H 0.93638 0.26153 0.9091 0.0
C1539 C 0.04427 0.20618 0.91214 0.0
C1540 C 0.07076 0.22799 0.91176 0.0
C1541 C 0.07386 0.28359 0.91013 0.0
C1542 C 0.05104 0.31695 0.90873 0.0
C1543 C 0.02522 0.29415 0.90905 0.0
C1544 C 0.02172 0.24007 0.91085 0.0
C1545 C 0.9918 0.22559 0.91092 0.0
C1546 C 0.98476 0.18996 0.89276 0.0
C1547 C 0.98372 0.19945 0.93113 0.0
C1548 C 0.97904 0.27989 0.90871 0.0
C1549 C 0.99861 0.31894 0.90762 0.0
C1550 C 0.99162 0.37213 0.90533 0.0
C1551 C 0.96386 0.38572 0.90418 0.0
C1552 C 0.94343 0.34626 0.90538 0.0
C1553 C 0.95136 0.29272 0.90774 0.0
H1554 H 0.06213 0.32067 0.37771 0.0
H1555 H 0.08258 0.2806 0.44007 0.0
H1556 H 0.03931 0.23244 0.44334 0.0
H1557 H 0.99 0.34336 0.38725 0.0
H1558 H 0.9794 0.31614 0.36324 0.0
H1559 H 0.01231 0.34712 0.36555 0.0
H1560 H 0.0355 0.26179 0.35221 0.0
H1561 H 1.00269 0.2305 0.34992 0.0
H1562 H 0.02915 0.19972 0.36485 0.0
H1563 H 0.9948 0.18643 0.43979 0.0
H1564 H 0.95033 0.14871 0.43003 0.0
H1565 H 0.95694 0.22235 0.37072 0.0
C1566 C 0.05743 0.30229 0.39213 0.0
C1567 C 0.0761 0.30396 0.40853 0.0
C1568 C 0.0691 0.27886 0.42707 0.0
C1569 C 0.0444 0.25173 0.42917 0.0
C1570 C 0.02668 0.2505 0.41269 0.0
C1571 C 0.03269 0.27545 0.39459 0.0
C1572 C 0.00983 0.26833 0.37932 0.0
C1573 C 0.99713 0.32193 0.3735 0.0
C1574 C 0.0199 0.23829 0.36046 0.0
C1575 C 0.99016 0.23513 0.39166 0.0
C1576 C 1.00042 0.22517 0.41084 0.0
C1577 C 0.98647 0.19416 0.42487 0.0
C1578 C 0.96133 0.17273 0.41916 0.0
C1579 C 0.95029 0.18265 0.39966 0.0
C1580 C 0.96485 0.21457 0.38579 0.0
H1581 H 0.93979 0.72822 0.11269 0.0
H1582 H 0.94666 0.82499 0.16669 0.0
H1583 H 0.99197 0.78594 0.17385 0.0
H1584 H 0.97337 0.61183 0.13212 0.0
H1585 H 0.99102 0.59723 0.10879 0.0
H1586 H 0.95876 0.63146 0.10815 0.0
H1587 H 0.9807 0.70822 0.08785 0.0
H1588 H 0.01296 0.67404 0.08829 0.0
H1589 H 0.01052 0.74066 0.09784 0.0
H1590 H 0.03528 0.7343 0.17586 0.0
H1591 H 0.07702 0.68101 0.17044 0.0
H1592 H 0.04405 0.62246 0.11375 0.0
C1593 C 0.95096 0.74105 0.12597 0.0
C1594 C 0.93993 0.77937 0.13922 0.0
C1595 C 0.95499 0.7958 0.15638 0.0
C1596 C 0.98058 0.77365 0.1606 0.0
C1597 C 0.99089 0.73567 0.14734 0.0
C1598 C 0.97681 0.72009 0.13019 0.0
C1599 C 0.99315 0.68033 0.11797 0.0
C1600 C 0.97818 0.62706 0.11669 0.0
C1601 C 0.99973 0.70214 0.09673 0.0
C1602 C 0.01857 0.67598 0.13096 0.0
C1603 C 0.01658 0.70761 0.148 0.0
C1604 C 0.03716 0.70957 0.16255 0.0
C1605 C 0.06064 0.67906 0.15942 0.0
C1606 C 0.06345 0.64778 0.14178 0.0
C1607 C 0.04218 0.64607 0.12738 0.0
loop_
_geom_bond_atom_site_label_1
_geom_bond_atom_site_label_2
_geom_bond_distance
_geom_bond_site_symmetry_2
_ccdc_geom_bond_type
Co0 N4 2.148 . S
Co0 N10 2.128 . S
Co0 N20 2.194 . S
Co0 O25 2.351 . S
Co0 O26 2.155 . S
Co0 O27 2.096 . S
C1 N4 1.301 . S
C1 N5 1.328 . S
C1 H6 0.930 . S
C2 C3 1.333 . S
C2 N4 1.317 . S
C2 H7 0.930 . S
C3 C2 1.333 . S
C3 N5 1.350 . S
C3 H29 0.931 . S
N4 Co0 2.148 . S
N4 C1 1.301 . S
N4 C2 1.317 . S
N5 C1 1.328 . S
N5 C3 1.350 . S
H6 C1 0.930 . S
H7 C2 0.930 . S
C8 O9 1.224 . S
C8 O27 1.247 . S
O9 C8 1.224 . S
N10 Co0 2.128 . S
N10 C11 1.355 . S
N10 C13 1.311 . S
C11 N10 1.355 . S
C11 C12 1.363 . S
C11 H23 0.929 . S
C12 C11 1.363 . S
C12 N14 1.375 . S
C12 H30 0.931 . S
C13 N10 1.311 . S
C13 N14 1.347 . S
C13 H24 0.929 . S
N14 C12 1.375 . S
N14 C13 1.347 . S
C15 C18 1.365 . S
C15 N20 1.328 . S
C15 H21 0.929 . S
C16 C17 1.362 . S
C16 C19 1.378 . S
C16 H31 0.929 . S
C17 C16 1.362 . S
C17 C18 1.366 . S
C18 C15 1.365 . S
C18 C17 1.366 . S
C18 H32 0.930 . S
C19 C16 1.378 . S
C19 N20 1.315 . S
C19 H22 0.930 . S
N20 Co0 2.194 . S
N20 C15 1.328 . S
N20 C19 1.315 . S
H21 C15 0.929 . S
H22 C19 0.930 . S
H23 C11 0.929 . S
H24 C13 0.929 . S
O25 Co0 2.351 . S
O25 C28 1.244 . S
O26 Co0 2.155 . S
O26 C28 1.240 . S
O27 Co0 2.096 . S
O27 C8 1.247 . S
C28 O25 1.244 . S
C28 O26 1.240 . S
H29 C3 0.931 . S
H30 C12 0.931 . S
H31 C16 0.929 . S
H32 C18 0.930 . S
Co33 N37 2.148 . S
Co33 N43 2.128 . S
Co33 N53 2.194 . S
Co33 O58 2.351 . S
Co33 O59 2.155 . S
Co33 O60 2.096 . S
C34 N37 1.301 . S
C34 N38 1.328 . S
C34 H39 0.930 . S
C35 C36 1.333 . S
C35 N37 1.317 . S
C35 H40 0.930 . S
C36 C35 1.333 . S
C36 N38 1.350 . S
C36 H62 0.931 . S
N37 Co33 2.148 . S
N37 C34 1.301 . S
N37 C35 1.317 . S
N38 C34 1.328 . S
N38 C36 1.350 . S
H39 C34 0.930 . S
H40 C35 0.930 . S
C41 O42 1.224 . S
C41 O60 1.247 . S
O42 C41 1.224 . S
N43 Co33 2.128 . S
N43 C44 1.355 . S
N43 C46 1.311 . S
C44 N43 1.355 . S
C44 C45 1.363 . S
C44 H56 0.929 . S
C45 C44 1.363 . S
C45 N47 1.375 . S
C45 H63 0.931 . S
C46 N43 1.311 . S
C46 N47 1.347 . S
C46 H57 0.929 . S
N47 C45 1.375 . S
N47 C46 1.347 . S
C48 C51 1.365 . S
C48 N53 1.328 . S
C48 H54 0.929 . S
C49 C50 1.362 . S
C49 C52 1.378 . S
C49 H64 0.929 . S
C50 C49 1.362 . S
C50 C51 1.366 . S
C51 C48 1.365 . S
C51 C50 1.366 . S
C51 H65 0.930 . S
C52 C49 1.378 . S
C52 N53 1.315 . S
C52 H55 0.930 . S
N53 Co33 2.194 . S
N53 C48 1.328 . S
N53 C52 1.315 . S
H54 C48 0.929 . S
H55 C52 0.930 . S
H56 C44 0.929 . S
H57 C46 0.929 . S
O58 Co33 2.351 . S
O58 C61 1.244 . S
O59 Co33 2.155 . S
O59 C61 1.240 . S
O60 Co33 2.096 . S
O60 C41 1.247 . S
C61 O58 1.244 . S
C61 O59 1.240 . S
H62 C36 0.931 . S
H63 C45 0.931 . S
H64 C49 0.929 . S
H65 C51 0.930 . S
Co66 N70 2.148 . S
Co66 N76 2.128 . S
Co66 N86 2.194 . S
Co66 O91 2.351 . S
Co66 O92 2.155 . S
Co66 O93 2.096 . S
C67 N70 1.301 . S
C67 N71 1.328 . S
C67 H72 0.930 . S
C68 C69 1.333 . S
C68 N70 1.317 . S
C68 H73 0.930 . S
C69 C68 1.333 . S
C69 N71 1.350 . S
C69 H95 0.931 . S
N70 Co66 2.148 . S
N70 C67 1.301 . S
N70 C68 1.317 . S
N71 C67 1.328 . S
N71 C69 1.350 . S
H72 C67 0.930 . S
H73 C68 0.930 . S
C74 O75 1.224 . S
C74 O93 1.247 . S
O75 C74 1.224 . S
N76 Co66 2.128 . S
N76 C77 1.355 . S
N76 C79 1.311 . S
C77 N76 1.355 . S
C77 C78 1.363 . S
C77 H89 0.929 . S
C78 C77 1.363 . S
C78 N80 1.375 . S
C78 H96 0.931 . S
C79 N76 1.311 . S
C79 N80 1.347 . S
C79 H90 0.929 . S
N80 C78 1.375 . S
N80 C79 1.347 . S
C81 C84 1.365 . S
C81 N86 1.328 . S
C81 H87 0.929 . S
C82 C83 1.362 . S
C82 C85 1.378 . S
C82 H97 0.929 . S
C83 C82 1.362 . S
C83 C84 1.366 . S
C84 C81 1.365 . S
C84 C83 1.366 . S
C84 H98 0.930 . S
C85 C82 1.378 . S
C85 N86 1.315 . S
C85 H88 0.930 . S
N86 Co66 2.194 . S
N86 C81 1.328 . S
N86 C85 1.315 . S
H87 C81 0.929 . S
H88 C85 0.930 . S
H89 C77 0.929 . S
H90 C79 0.929 . S
O91 Co66 2.351 . S
O91 C94 1.244 . S
O92 Co66 2.155 . S
O92 C94 1.240 . S
O93 Co66 2.096 . S
O93 C74 1.247 . S
C94 O91 1.244 . S
C94 O92 1.240 . S
H95 C69 0.931 . S
H96 C78 0.931 . S
H97 C82 0.929 . S
H98 C84 0.930 . S
Co99 N103 2.148 . S
Co99 N109 2.128 . S
Co99 N119 2.194 . S
Co99 O124 2.351 . S
Co99 O125 2.155 . S
Co99 O126 2.096 . S
C100 N103 1.301 . S
C100 N104 1.328 . S
C100 H105 0.930 . S
C101 C102 1.333 . S
C101 N103 1.317 . S
C101 H106 0.930 . S
C102 C101 1.333 . S
C102 N104 1.350 . S
C102 H128 0.931 . S
N103 Co99 2.148 . S
N103 C100 1.301 . S
N103 C101 1.317 . S
N104 C100 1.328 . S
N104 C102 1.350 . S
H105 C100 0.930 . S
H106 C101 0.930 . S
C107 O108 1.224 . S
C107 O126 1.247 . S
O108 C107 1.224 . S
N109 Co99 2.128 . S
N109 C110 1.355 . S
N109 C112 1.311 . S
C110 N109 1.355 . S
C110 C111 1.363 . S
C110 H122 0.929 . S
C111 C110 1.363 . S
C111 N113 1.375 . S
C111 H129 0.931 . S
C112 N109 1.311 . S
C112 N113 1.347 . S
C112 H123 0.929 . S
N113 C111 1.375 . S
N113 C112 1.347 . S
C114 C117 1.365 . S
C114 N119 1.328 . S
C114 H120 0.929 . S
C115 C116 1.362 . S
C115 C118 1.378 . S
C115 H130 0.929 . S
C116 C115 1.362 . S
C116 C117 1.366 . S
C117 C114 1.365 . S
C117 C116 1.366 . S
C117 H131 0.930 . S
C118 C115 1.378 . S
C118 N119 1.315 . S
C118 H121 0.930 . S
N119 Co99 2.194 . S
N119 C114 1.328 . S
N119 C118 1.315 . S
H120 C114 0.929 . S
H121 C118 0.930 . S
H122 C110 0.929 . S
H123 C112 0.929 . S
O124 Co99 2.351 . S
O124 C127 1.244 . S
O125 Co99 2.155 . S
O125 C127 1.240 . S
O126 Co99 2.096 . S
O126 C107 1.247 . S
C127 O124 1.244 . S
C127 O125 1.240 . S
H128 C102 0.931 . S
H129 C111 0.931 . S
H130 C115 0.929 . S
H131 C117 0.930 . S
Co132 N136 2.148 . S
Co132 N142 2.128 . S
Co132 N152 2.194 . S
Co132 O157 2.351 . S
Co132 O158 2.155 . S
Co132 O159 2.096 . S
C133 N136 1.301 . S
C133 N137 1.328 . S
C133 H138 0.930 . S
C134 C135 1.333 . S
C134 N136 1.317 . S
C134 H139 0.930 . S
C135 C134 1.333 . S
C135 N137 1.350 . S
C135 H161 0.931 . S
N136 Co132 2.148 . S
N136 C133 1.301 . S
N136 C134 1.317 . S
N137 C133 1.328 . S
N137 C135 1.350 . S
H138 C133 0.930 . S
H139 C134 0.930 . S
C140 O141 1.224 . S
C140 O159 1.247 . S
O141 C140 1.224 . S
N142 Co132 2.128 . S
N142 C143 1.355 . S
N142 C145 1.311 . S
C143 N142 1.355 . S
C143 C144 1.363 . S
C143 H155 0.929 . S
C144 C143 1.363 . S
C144 N146 1.375 . S
C144 H162 0.931 . S
C145 N142 1.311 . S
C145 N146 1.347 . S
C145 H156 0.929 . S
N146 C144 1.375 . S
N146 C145 1.347 . S
C147 C150 1.365 . S
C147 N152 1.328 . S
C147 H153 0.929 . S
C148 C149 1.362 . S
C148 C151 1.378 . S
C148 H163 0.929 . S
C149 C148 1.362 . S
C149 C150 1.366 . S
C150 C147 1.365 . S
C150 C149 1.366 . S
C150 H164 0.930 . S
C151 C148 1.378 . S
C151 N152 1.315 . S
C151 H154 0.930 . S
N152 Co132 2.194 . S
N152 C147 1.328 . S
N152 C151 1.315 . S
H153 C147 0.929 . S
H154 C151 0.930 . S
H155 C143 0.929 . S
H156 C145 0.929 . S
O157 Co132 2.351 . S
O157 C160 1.244 . S
O158 Co132 2.155 . S
O158 C160 1.240 . S
O159 Co132 2.096 . S
O159 C140 1.247 . S
C160 O157 1.244 . S
C160 O158 1.240 . S
H161 C135 0.931 . S
H162 C144 0.931 . S
H163 C148 0.929 . S
H164 C150 0.930 . S
Co165 N169 2.148 . S
Co165 N175 2.128 . S
Co165 N185 2.194 . S
Co165 O190 2.351 . S
Co165 O191 2.155 . S
Co165 O192 2.096 . S
C166 N169 1.301 . S
C166 N170 1.328 . S
C166 H171 0.930 . S
C167 C168 1.333 . S
C167 N169 1.317 . S
C167 H172 0.930 . S
C168 C167 1.333 . S
C168 N170 1.350 . S
C168 H194 0.931 . S
N169 Co165 2.148 . S
N169 C166 1.301 . S
N169 C167 1.317 . S
N170 C166 1.328 . S
N170 C168 1.350 . S
H171 C166 0.930 . S
H172 C167 0.930 . S
C173 O174 1.224 . S
C173 O192 1.247 . S
O174 C173 1.224 . S
N175 Co165 2.128 . S
N175 C176 1.355 . S
N175 C178 1.311 . S
C176 N175 1.355 . S
C176 C177 1.363 . S
C176 H188 0.929 . S
C177 C176 1.363 . S
C177 N179 1.375 . S
C177 H195 0.931 . S
C178 N175 1.311 . S
C178 N179 1.347 . S
C178 H189 0.929 . S
N179 C177 1.375 . S
N179 C178 1.347 . S
C180 C183 1.365 . S
C180 N185 1.328 . S
C180 H186 0.929 . S
C181 C182 1.362 . S
C181 C184 1.378 . S
C181 H196 0.929 . S
C182 C181 1.362 . S
C182 C183 1.366 . S
C183 C180 1.365 . S
C183 C182 1.366 . S
C183 H197 0.930 . S
C184 C181 1.378 . S
C184 N185 1.315 . S
C184 H187 0.930 . S
N185 Co165 2.194 . S
N185 C180 1.328 . S
N185 C184 1.315 . S
H186 C180 0.929 . S
H187 C184 0.930 . S
H188 C176 0.929 . S
H189 C178 0.929 . S
O190 Co165 2.351 . S
O190 C193 1.244 . S
O191 Co165 2.155 . S
O191 C193 1.240 . S
O192 Co165 2.096 . S
O192 C173 1.247 . S
C193 O190 1.244 . S
C193 O191 1.240 . S
H194 C168 0.931 . S
H195 C177 0.931 . S
H196 C181 0.929 . S
H197 C183 0.930 . S
Co198 N202 2.148 . S
Co198 N208 2.128 . S
Co198 N218 2.194 . S
Co198 O223 2.351 . S
Co198 O224 2.155 . S
Co198 O225 2.096 . S
C199 N202 1.301 . S
C199 N203 1.328 . S
C199 H204 0.930 . S
C200 C201 1.333 . S
C200 N202 1.317 . S
C200 H205 0.930 . S
C201 C200 1.333 . S
C201 N203 1.350 . S
C201 H227 0.931 . S
N202 Co198 2.148 . S
N202 C199 1.301 . S
N202 C200 1.317 . S
N203 C199 1.328 . S
N203 C201 1.350 . S
H204 C199 0.930 . S
H205 C200 0.930 . S
C206 O207 1.224 . S
C206 O225 1.247 . S
O207 C206 1.224 . S
N208 Co198 2.128 . S
N208 C209 1.355 . S
N208 C211 1.311 . S
C209 N208 1.355 . S
C209 C210 1.363 . S
C209 H221 0.929 . S
C210 C209 1.363 . S
C210 N212 1.375 . S
C210 H228 0.931 . S
C211 N208 1.311 . S
C211 N212 1.347 . S
C211 H222 0.929 . S
N212 C210 1.375 . S
N212 C211 1.347 . S
C213 C216 1.365 . S
C213 N218 1.328 . S
C213 H219 0.929 . S
C214 C215 1.362 . S
C214 C217 1.378 . S
C214 H229 0.929 . S
C215 C214 1.362 . S
C215 C216 1.366 . S
C216 C213 1.365 . S
C216 C215 1.366 . S
C216 H230 0.930 . S
C217 C214 1.378 . S
C217 N218 1.315 . S
C217 H220 0.930 . S
N218 Co198 2.194 . S
N218 C213 1.328 . S
N218 C217 1.315 . S
H219 C213 0.929 . S
H220 C217 0.930 . S
H221 C209 0.929 . S
H222 C211 0.929 . S
O223 Co198 2.351 . S
O223 C226 1.244 . S
O224 Co198 2.155 . S
O224 C226 1.240 . S
O225 Co198 2.096 . S
O225 C206 1.247 . S
C226 O223 1.244 . S
C226 O224 1.240 . S
H227 C201 0.931 . S
H228 C210 0.931 . S
H229 C214 0.929 . S
H230 C216 0.930 . S
Co231 N235 2.148 . S
Co231 N241 2.128 . S
Co231 N251 2.194 . S
Co231 O256 2.351 . S
Co231 O257 2.155 . S
Co231 O258 2.096 . S
C232 N235 1.301 . S
C232 N236 1.328 . S
C232 H237 0.930 . S
C233 C234 1.333 . S
C233 N235 1.317 . S
C233 H238 0.930 . S
C234 C233 1.333 . S
C234 N236 1.350 . S
C234 H260 0.931 . S
N235 Co231 2.148 . S
N235 C232 1.301 . S
N235 C233 1.317 . S
N236 C232 1.328 . S
N236 C234 1.350 . S
H237 C232 0.930 . S
H238 C233 0.930 . S
C239 O240 1.224 . S
C239 O258 1.247 . S
O240 C239 1.224 . S
N241 Co231 2.128 . S
N241 C242 1.355 . S
N241 C244 1.311 . S
C242 N241 1.355 . S
C242 C243 1.363 . S
C242 H254 0.929 . S
C243 C242 1.363 . S
C243 N245 1.375 . S
C243 H261 0.931 . S
C244 N241 1.311 . S
C244 N245 1.347 . S
C244 H255 0.929 . S
N245 C243 1.375 . S
N245 C244 1.347 . S
C246 C249 1.365 . S
C246 N251 1.328 . S
C246 H252 0.929 . S
C247 C248 1.362 . S
C247 C250 1.378 . S
C247 H262 0.929 . S
C248 C247 1.362 . S
C248 C249 1.366 . S
C249 C246 1.365 . S
C249 C248 1.366 . S
C249 H263 0.930 . S
C250 C247 1.378 . S
C250 N251 1.315 . S
C250 H253 0.930 . S
N251 Co231 2.194 . S
N251 C246 1.328 . S
N251 C250 1.315 . S
H252 C246 0.929 . S
H253 C250 0.930 . S
H254 C242 0.929 . S
H255 C244 0.929 . S
O256 Co231 2.351 . S
O256 C259 1.244 . S
O257 Co231 2.155 . S
O257 C259 1.240 . S
O258 Co231 2.096 . S
O258 C239 1.247 . S
C259 O256 1.244 . S
C259 O257 1.240 . S
H260 C234 0.931 . S
H261 C243 0.931 . S
H262 C247 0.929 . S
H263 C249 0.930 . S
Co264 N268 2.148 . S
Co264 N274 2.128 . S
Co264 N284 2.194 . S
Co264 O289 2.351 . S
Co264 O290 2.155 . S
Co264 O291 2.096 . S
C265 N268 1.301 . S
C265 N269 1.328 . S
C265 H270 0.930 . S
C266 C267 1.333 . S
C266 N268 1.317 . S
C266 H271 0.930 . S
C267 C266 1.333 . S
C267 N269 1.350 . S
C267 H293 0.931 . S
N268 Co264 2.148 . S
N268 C265 1.301 . S
N268 C266 1.317 . S
N269 C265 1.328 . S
N269 C267 1.350 . S
H270 C265 0.930 . S
H271 C266 0.930 . S
C272 O273 1.224 . S
C272 O291 1.247 . S
O273 C272 1.224 . S
N274 Co264 2.128 . S
N274 C275 1.355 . S
N274 C277 1.311 . S
C275 N274 1.355 . S
C275 C276 1.363 . S
C275 H287 0.929 . S
C276 C275 1.363 . S
C276 N278 1.375 . S
C276 H294 0.931 . S
C277 N274 1.311 . S
C277 N278 1.347 . S
C277 H288 0.929 . S
N278 C276 1.375 . S
N278 C277 1.347 . S
C279 C282 1.365 . S
C279 N284 1.328 . S
C279 H285 0.929 . S
C280 C281 1.362 . S
C280 C283 1.378 . S
C280 H295 0.929 . S
C281 C280 1.362 . S
C281 C282 1.366 . S
C282 C279 1.365 . S
C282 C281 1.366 . S
C282 H296 0.930 . S
C283 C280 1.378 . S
C283 N284 1.315 . S
C283 H286 0.930 . S
N284 Co264 2.194 . S
N284 C279 1.328 . S
N284 C283 1.315 . S
H285 C279 0.929 . S
H286 C283 0.930 . S
H287 C275 0.929 . S
H288 C277 0.929 . S
O289 Co264 2.351 . S
O289 C292 1.244 . S
O290 Co264 2.155 . S
O290 C292 1.240 . S
O291 Co264 2.096 . S
O291 C272 1.247 . S
C292 O289 1.244 . S
C292 O290 1.240 . S
H293 C267 0.931 . S
H294 C276 0.931 . S
H295 C280 0.929 . S
H296 C282 0.930 . S
Co297 N301 2.148 . S
Co297 N307 2.128 . S
Co297 N317 2.194 . S
Co297 O322 2.351 . S
Co297 O323 2.155 . S
Co297 O324 2.096 . S
C298 N301 1.301 . S
C298 N302 1.328 . S
C298 H303 0.930 . S
C299 C300 1.333 . S
C299 N301 1.317 . S
C299 H304 0.930 . S
C300 C299 1.333 . S
C300 N302 1.350 . S
C300 H326 0.931 . S
N301 Co297 2.148 . S
N301 C298 1.301 . S
N301 C299 1.317 . S
N302 C298 1.328 . S
N302 C300 1.350 . S
H303 C298 0.930 . S
H304 C299 0.930 . S
C305 O306 1.224 . S
C305 O324 1.247 . S
O306 C305 1.224 . S
N307 Co297 2.128 . S
N307 C308 1.355 . S
N307 C310 1.311 . S
C308 N307 1.355 . S
C308 C309 1.363 . S
C308 H320 0.929 . S
C309 C308 1.363 . S
C309 N311 1.375 . S
C309 H327 0.931 . S
C310 N307 1.311 . S
C310 N311 1.347 . S
C310 H321 0.929 . S
N311 C309 1.375 . S
N311 C310 1.347 . S
C312 C315 1.365 . S
C312 N317 1.328 . S
C312 H318 0.929 . S
C313 C314 1.362 . S
C313 C316 1.378 . S
C313 H328 0.929 . S
C314 C313 1.362 . S
C314 C315 1.366 . S
C315 C312 1.365 . S
C315 C314 1.366 . S
C315 H329 0.930 . S
C316 C313 1.378 . S
C316 N317 1.315 . S
C316 H319 0.930 . S
N317 Co297 2.194 . S
N317 C312 1.328 . S
N317 C316 1.315 . S
H318 C312 0.929 . S
H319 C316 0.930 . S
H320 C308 0.929 . S
H321 C310 0.929 . S
O322 Co297 2.351 . S
O322 C325 1.244 . S
O323 Co297 2.155 . S
O323 C325 1.240 . S
O324 Co297 2.096 . S
O324 C305 1.247 . S
C325 O322 1.244 . S
C325 O323 1.240 . S
H326 C300 0.931 . S
H327 C309 0.931 . S
H328 C313 0.929 . S
H329 C315 0.930 . S
Co330 N334 2.148 . S
Co330 N340 2.128 . S
Co330 N350 2.194 . S
Co330 O355 2.351 . S
Co330 O356 2.155 . S
Co330 O357 2.096 . S
C331 N334 1.301 . S
C331 N335 1.328 . S
C331 H336 0.930 . S
C332 C333 1.333 . S
C332 N334 1.317 . S
C332 H337 0.930 . S
C333 C332 1.333 . S
C333 N335 1.350 . S
C333 H359 0.931 . S
N334 Co330 2.148 . S
N334 C331 1.301 . S
N334 C332 1.317 . S
N335 C331 1.328 . S
N335 C333 1.350 . S
H336 C331 0.930 . S
H337 C332 0.930 . S
C338 O339 1.224 . S
C338 O357 1.247 . S
O339 C338 1.224 . S
N340 Co330 2.128 . S
N340 C341 1.355 . S
N340 C343 1.311 . S
C341 N340 1.355 . S
C341 C342 1.363 . S
C341 H353 0.929 . S
C342 C341 1.363 . S
C342 N344 1.375 . S
C342 H360 0.931 . S
C343 N340 1.311 . S
C343 N344 1.347 . S
C343 H354 0.929 . S
N344 C342 1.375 . S
N344 C343 1.347 . S
C345 C348 1.365 . S
C345 N350 1.328 . S
C345 H351 0.929 . S
C346 C347 1.362 . S
C346 C349 1.378 . S
C346 H361 0.929 . S
C347 C346 1.362 . S
C347 C348 1.366 . S
C348 C345 1.365 . S
C348 C347 1.366 . S
C348 H362 0.930 . S
C349 C346 1.378 . S
C349 N350 1.315 . S
C349 H352 0.930 . S
N350 Co330 2.194 . S
N350 C345 1.328 . S
N350 C349 1.315 . S
H351 C345 0.929 . S
H352 C349 0.930 . S
H353 C341 0.929 . S
H354 C343 0.929 . S
O355 Co330 2.351 . S
O355 C358 1.244 . S
O356 Co330 2.155 . S
O356 C358 1.240 . S
O357 Co330 2.096 . S
O357 C338 1.247 . S
C358 O355 1.244 . S
C358 O356 1.240 . S
H359 C333 0.931 . S
H360 C342 0.931 . S
H361 C346 0.929 . S
H362 C348 0.930 . S
Co363 N367 2.148 . S
Co363 N373 2.128 . S
Co363 N383 2.194 . S
Co363 O388 2.351 . S
Co363 O389 2.155 . S
Co363 O390 2.096 . S
C364 N367 1.301 . S
C364 N368 1.328 . S
C364 H369 0.930 . S
C365 C366 1.333 . S
C365 N367 1.317 . S
C365 H370 0.930 . S
C366 C365 1.333 . S
C366 N368 1.350 . S
C366 H392 0.931 . S
N367 Co363 2.148 . S
N367 C364 1.301 . S
N367 C365 1.317 . S
N368 C364 1.328 . S
N368 C366 1.350 . S
H369 C364 0.930 . S
H370 C365 0.930 . S
C371 O372 1.224 . S
C371 O390 1.247 . S
O372 C371 1.224 . S
N373 Co363 2.128 . S
N373 C374 1.355 . S
N373 C376 1.311 . S
C374 N373 1.355 . S
C374 C375 1.363 . S
C374 H386 0.929 . S
C375 C374 1.363 . S
C375 N377 1.375 . S
C375 H393 0.931 . S
C376 N373 1.311 . S
C376 N377 1.347 . S
C376 H387 0.929 . S
N377 C375 1.375 . S
N377 C376 1.347 . S
C378 C381 1.365 . S
C378 N383 1.328 . S
C378 H384 0.929 . S
C379 C380 1.362 . S
C379 C382 1.378 . S
C379 H394 0.929 . S
C380 C379 1.362 . S
C380 C381 1.366 . S
C381 C378 1.365 . S
C381 C380 1.366 . S
C381 H395 0.930 . S
C382 C379 1.378 . S
C382 N383 1.315 . S
C382 H385 0.930 . S
N383 Co363 2.194 . S
N383 C378 1.328 . S
N383 C382 1.315 . S
H384 C378 0.929 . S
H385 C382 0.930 . S
H386 C374 0.929 . S
H387 C376 0.929 . S
O388 Co363 2.351 . S
O388 C391 1.244 . S
O389 Co363 2.155 . S
O389 C391 1.240 . S
O390 Co363 2.096 . S
O390 C371 1.247 . S
C391 O388 1.244 . S
C391 O389 1.240 . S
H392 C366 0.931 . S
H393 C375 0.931 . S
H394 C379 0.929 . S
H395 C381 0.930 . S
Co396 N400 2.148 . S
Co396 N406 2.128 . S
Co396 N416 2.194 . S
Co396 O421 2.351 . S
Co396 O422 2.155 . S
Co396 O423 2.096 . S
C397 N400 1.301 . S
C397 N401 1.328 . S
C397 H402 0.930 . S
C398 C399 1.333 . S
C398 N400 1.317 . S
C398 H403 0.930 . S
C399 C398 1.333 . S
C399 N401 1.350 . S
C399 H425 0.931 . S
N400 Co396 2.148 . S
N400 C397 1.301 . S
N400 C398 1.317 . S
N401 C397 1.328 . S
N401 C399 1.350 . S
H402 C397 0.930 . S
H403 C398 0.930 . S
C404 O405 1.224 . S
C404 O423 1.247 . S
O405 C404 1.224 . S
N406 Co396 2.128 . S
N406 C407 1.355 . S
N406 C409 1.311 . S
C407 N406 1.355 . S
C407 C408 1.363 . S
C407 H419 0.929 . S
C408 C407 1.363 . S
C408 N410 1.375 . S
C408 H426 0.931 . S
C409 N406 1.311 . S
C409 N410 1.347 . S
C409 H420 0.929 . S
N410 C408 1.375 . S
N410 C409 1.347 . S
C411 C414 1.365 . S
C411 N416 1.328 . S
C411 H417 0.929 . S
C412 C413 1.362 . S
C412 C415 1.378 . S
C412 H427 0.929 . S
C413 C412 1.362 . S
C413 C414 1.366 . S
C414 C411 1.365 . S
C414 C413 1.366 . S
C414 H428 0.930 . S
C415 C412 1.378 . S
C415 N416 1.315 . S
C415 H418 0.930 . S
N416 Co396 2.194 . S
N416 C411 1.328 . S
N416 C415 1.315 . S
H417 C411 0.929 . S
H418 C415 0.930 . S
H419 C407 0.929 . S
H420 C409 0.929 . S
O421 Co396 2.351 . S
O421 C424 1.244 . S
O422 Co396 2.155 . S
O422 C424 1.240 . S
O423 Co396 2.096 . S
O423 C404 1.247 . S
C424 O421 1.244 . S
C424 O422 1.240 . S
H425 C399 0.931 . S
H426 C408 0.931 . S
H427 C412 0.929 . S
H428 C414 0.930 . S
Co429 N433 2.148 . S
Co429 N439 2.128 . S
Co429 N449 2.194 . S
Co429 O454 2.351 . S
Co429 O455 2.155 . S
Co429 O456 2.096 . S
C430 N433 1.301 . S
C430 N434 1.328 . S
C430 H435 0.930 . S
C431 C432 1.333 . S
C431 N433 1.317 . S
C431 H436 0.930 . S
C432 C431 1.333 . S
C432 N434 1.350 . S
C432 H458 0.931 . S
N433 Co429 2.148 . S
N433 C430 1.301 . S
N433 C431 1.317 . S
N434 C430 1.328 . S
N434 C432 1.350 . S
H435 C430 0.930 . S
H436 C431 0.930 . S
C437 O438 1.224 . S
C437 O456 1.247 . S
O438 C437 1.224 . S
N439 Co429 2.128 . S
N439 C440 1.355 . S
N439 C442 1.311 . S
C440 N439 1.355 . S
C440 C441 1.363 . S
C440 H452 0.929 . S
C441 C440 1.363 . S
C441 N443 1.375 . S
C441 H459 0.931 . S
C442 N439 1.311 . S
C442 N443 1.347 . S
C442 H453 0.929 . S
N443 C441 1.375 . S
N443 C442 1.347 . S
C444 C447 1.365 . S
C444 N449 1.328 . S
C444 H450 0.929 . S
C445 C446 1.362 . S
C445 C448 1.378 . S
C445 H460 0.929 . S
C446 C445 1.362 . S
C446 C447 1.366 . S
C447 C444 1.365 . S
C447 C446 1.366 . S
C447 H461 0.930 . S
C448 C445 1.378 . S
C448 N449 1.315 . S
C448 H451 0.930 . S
N449 Co429 2.194 . S
N449 C444 1.328 . S
N449 C448 1.315 . S
H450 C444 0.929 . S
H451 C448 0.930 . S
H452 C440 0.929 . S
H453 C442 0.929 . S
O454 Co429 2.351 . S
O454 C457 1.244 . S
O455 Co429 2.155 . S
O455 C457 1.240 . S
O456 Co429 2.096 . S
O456 C437 1.247 . S
C457 O454 1.244 . S
C457 O455 1.240 . S
H458 C432 0.931 . S
H459 C441 0.931 . S
H460 C445 0.929 . S
H461 C447 0.930 . S
Co462 N466 2.148 . S
Co462 N472 2.128 . S
Co462 N482 2.194 . S
Co462 O487 2.351 . S
Co462 O488 2.155 . S
Co462 O489 2.096 . S
C463 N466 1.301 . S
C463 N467 1.328 . S
C463 H468 0.930 . S
C464 C465 1.333 . S
C464 N466 1.317 . S
C464 H469 0.930 . S
C465 C464 1.333 . S
C465 N467 1.350 . S
C465 H491 0.931 . S
N466 Co462 2.148 . S
N466 C463 1.301 . S
N466 C464 1.317 . S
N467 C463 1.328 . S
N467 C465 1.350 . S
H468 C463 0.930 . S
H469 C464 0.930 . S
C470 O471 1.224 . S
C470 O489 1.247 . S
O471 C470 1.224 . S
N472 Co462 2.128 . S
N472 C473 1.355 . S
N472 C475 1.311 . S
C473 N472 1.355 . S
C473 C474 1.363 . S
C473 H485 0.929 . S
C474 C473 1.363 . S
C474 N476 1.375 . S
C474 H492 0.931 . S
C475 N472 1.311 . S
C475 N476 1.347 . S
C475 H486 0.929 . S
N476 C474 1.375 . S
N476 C475 1.347 . S
C477 C480 1.365 . S
C477 N482 1.328 . S
C477 H483 0.929 . S
C478 C479 1.362 . S
C478 C481 1.378 . S
C478 H493 0.929 . S
C479 C478 1.362 . S
C479 C480 1.366 . S
C480 C477 1.365 . S
C480 C479 1.366 . S
C480 H494 0.930 . S
C481 C478 1.378 . S
C481 N482 1.315 . S
C481 H484 0.930 . S
N482 Co462 2.194 . S
N482 C477 1.328 . S
N482 C481 1.315 . S
H483 C477 0.929 . S
H484 C481 0.930 . S
H485 C473 0.929 . S
H486 C475 0.929 . S
O487 Co462 2.351 . S
O487 C490 1.244 . S
O488 Co462 2.155 . S
O488 C490 1.240 . S
O489 Co462 2.096 . S
O489 C470 1.247 . S
C490 O487 1.244 . S
C490 O488 1.240 . S
H491 C465 0.931 . S
H492 C474 0.931 . S
H493 C478 0.929 . S
H494 C480 0.930 . S
Co495 N499 2.148 . S
Co495 N505 2.128 . S
Co495 N515 2.194 . S
Co495 O520 2.351 . S
Co495 O521 2.155 . S
Co495 O522 2.096 . S
C496 N499 1.301 . S
C496 N500 1.328 . S
C496 H501 0.930 . S
C497 C498 1.333 . S
C497 N499 1.317 . S
C497 H502 0.930 . S
C498 C497 1.333 . S
C498 N500 1.350 . S
C498 H524 0.931 . S
N499 Co495 2.148 . S
N499 C496 1.301 . S
N499 C497 1.317 . S
N500 C496 1.328 . S
N500 C498 1.350 . S
H501 C496 0.930 . S
H502 C497 0.930 . S
C503 O504 1.224 . S
C503 O522 1.247 . S
O504 C503 1.224 . S
N505 Co495 2.128 . S
N505 C506 1.355 . S
N505 C508 1.311 . S
C506 N505 1.355 . S
C506 C507 1.363 . S
C506 H518 0.929 . S
C507 C506 1.363 . S
C507 N509 1.375 . S
C507 H525 0.931 . S
C508 N505 1.311 . S
C508 N509 1.347 . S
C508 H519 0.929 . S
N509 C507 1.375 . S
N509 C508 1.347 . S
C510 C513 1.365 . S
C510 N515 1.328 . S
C510 H516 0.929 . S
C511 C512 1.362 . S
C511 C514 1.378 . S
C511 H526 0.929 . S
C512 C511 1.362 . S
C512 C513 1.366 . S
C513 C510 1.365 . S
C513 C512 1.366 . S
C513 H527 0.930 . S
C514 C511 1.378 . S
C514 N515 1.315 . S
C514 H517 0.930 . S
N515 Co495 2.194 . S
N515 C510 1.328 . S
N515 C514 1.315 . S
H516 C510 0.929 . S
H517 C514 0.930 . S
H518 C506 0.929 . S
H519 C508 0.929 . S
O520 Co495 2.351 . S
O520 C523 1.244 . S
O521 Co495 2.155 . S
O521 C523 1.240 . S
O522 Co495 2.096 . S
O522 C503 1.247 . S
C523 O520 1.244 . S
C523 O521 1.240 . S
H524 C498 0.931 . S
H525 C507 0.931 . S
H526 C511 0.929 . S
H527 C513 0.930 . S
H528 C540 0.930 . S
H529 C542 0.930 . S
H530 C543 0.930 . S
H531 C547 0.959 . S
H532 C547 0.959 . S
H533 C547 0.961 . S
H534 C548 0.960 . S
H535 C548 0.961 . S
H536 C548 0.959 . S
H537 C551 0.929 . S
H538 C552 0.931 . S
H539 C554 0.930 . S
C540 H528 0.930 . S
C540 C541 1.399 1_565 S
C540 C545 1.399 . S
C541 C540 1.399 1_545 S
C541 C542 1.376 . S
C542 H529 0.930 . S
C542 C541 1.376 . S
C542 C543 1.388 1_545 S
C543 H530 0.930 . S
C543 C542 1.388 1_565 S
C543 C544 1.390 . S
C544 C543 1.390 . S
C544 C545 1.394 . S
C544 C550 1.465 . S
C545 C540 1.399 . S
C545 C544 1.394 . S
C545 C546 1.516 . S
C546 C545 1.516 . S
C546 C547 1.502 . S
C546 C548 1.561 . S
C546 C549 1.526 . S
C547 H531 0.959 . S
C547 H532 0.959 . S
C547 H533 0.961 . S
C547 C546 1.502 . S
C548 H534 0.960 . S
C548 H535 0.961 . S
C548 H536 0.959 . S
C548 C546 1.561 . S
C549 C546 1.526 . S
C549 C550 1.396 . S
C549 C554 1.390 . S
C550 C544 1.465 . S
C550 C549 1.396 . S
C550 C551 1.399 . S
C551 H537 0.929 . S
C551 C550 1.399 . S
C551 C552 1.385 . S
C552 H538 0.931 . S
C552 C551 1.385 . S
C552 C553 1.389 . S
C553 C552 1.389 . S
C553 C554 1.387 . S
C554 H539 0.930 . S
C554 C549 1.390 . S
C554 C553 1.387 . S
H555 C567 0.930 . S
H556 C569 0.930 . S
H557 C570 0.930 . S
H558 C574 0.959 . S
H559 C574 0.959 . S
H560 C574 0.961 . S
H561 C575 0.960 . S
H562 C575 0.961 . S
H563 C575 0.959 . S
H564 C578 0.929 . S
H565 C579 0.931 . S
H566 C581 0.930 . S
C567 H555 0.930 . S
C567 C568 1.399 . S
C567 C572 1.399 . S
C568 C567 1.399 . S
C568 C569 1.376 . S
C569 H556 0.930 . S
C569 C568 1.376 . S
C569 C570 1.388 . S
C570 H557 0.930 . S
C570 C569 1.388 . S
C570 C571 1.390 . S
C571 C570 1.390 . S
C571 C572 1.394 . S
C571 C577 1.465 . S
C572 C567 1.399 . S
C572 C571 1.394 . S
C572 C573 1.516 . S
C573 C572 1.516 . S
C573 C574 1.502 . S
C573 C575 1.561 . S
C573 C576 1.526 . S
C574 H558 0.959 . S
C574 H559 0.959 . S
C574 H560 0.961 . S
C574 C573 1.502 . S
C575 H561 0.960 . S
C575 H562 0.961 . S
C575 H563 0.959 . S
C575 C573 1.561 . S
C576 C573 1.526 . S
C576 C577 1.396 . S
C576 C581 1.390 . S
C577 C571 1.465 . S
C577 C576 1.396 . S
C577 C578 1.399 . S
C578 H564 0.929 . S
C578 C577 1.399 . S
C578 C579 1.385 . S
C579 H565 0.931 . S
C579 C578 1.385 . S
C579 C580 1.389 . S
C580 C579 1.389 . S
C580 C581 1.387 . S
C581 H566 0.930 . S
C581 C576 1.390 . S
C581 C580 1.387 . S
H582 C594 0.930 . S
H583 C596 0.930 . S
H584 C597 0.930 . S
H585 C601 0.959 . S
H586 C601 0.959 . S
H587 C601 0.961 . S
H588 C602 0.960 . S
H589 C602 0.961 . S
H590 C602 0.959 . S
H591 C605 0.929 . S
H592 C606 0.931 . S
H593 C608 0.930 . S
C594 H582 0.930 . S
C594 C595 1.399 1_545 S
C594 C599 1.399 . S
C595 C594 1.399 1_565 S
C595 C596 1.376 . S
C596 H583 0.930 . S
C596 C595 1.376 . S
C596 C597 1.388 1_565 S
C597 H584 0.930 . S
C597 C596 1.388 1_545 S
C597 C598 1.390 . S
C598 C597 1.390 . S
C598 C599 1.394 . S
C598 C604 1.465 . S
C599 C594 1.399 . S
C599 C598 1.394 . S
C599 C600 1.516 . S
C600 C599 1.516 . S
C600 C601 1.502 . S
C600 C602 1.561 . S
C600 C603 1.526 . S
C601 H585 0.959 . S
C601 H586 0.959 . S
C601 H587 0.961 . S
C601 C600 1.502 . S
C602 H588 0.960 . S
C602 H589 0.961 . S
C602 H590 0.959 . S
C602 C600 1.561 . S
C603 C600 1.526 . S
C603 C604 1.396 . S
C603 C608 1.390 . S
C604 C598 1.465 . S
C604 C603 1.396 . S
C604 C605 1.399 . S
C605 H591 0.929 . S
C605 C604 1.399 . S
C605 C606 1.385 . S
C606 H592 0.931 . S
C606 C605 1.385 . S
C606 C607 1.389 . S
C607 C606 1.389 . S
C607 C608 1.387 . S
C608 H593 0.930 . S
C608 C603 1.390 . S
C608 C607 1.387 . S
H609 C621 0.930 . S
H610 C623 0.930 . S
H611 C624 0.930 . S
H612 C628 0.959 . S
H613 C628 0.959 . S
H614 C628 0.961 . S
H615 C629 0.960 . S
H616 C629 0.961 . S
H617 C629 0.959 . S
H618 C632 0.929 . S
H619 C633 0.931 . S
H620 C635 0.930 . S
C621 H609 0.930 . S
C621 C622 1.399 . S
C621 C626 1.399 . S
C622 C621 1.399 . S
C622 C623 1.376 . S
C623 H610 0.930 . S
C623 C622 1.376 . S
C623 C624 1.388 . S
C624 H611 0.930 . S
C624 C623 1.388 . S
C624 C625 1.390 . S
C625 C624 1.390 . S
C625 C626 1.394 . S
C625 C631 1.465 . S
C626 C621 1.399 . S
C626 C625 1.394 . S
C626 C627 1.516 . S
C627 C626 1.516 . S
C627 C628 1.502 . S
C627 C629 1.561 . S
C627 C630 1.526 . S
C628 H612 0.959 . S
C628 H613 0.959 . S
C628 H614 0.961 . S
C628 C627 1.502 . S
C629 H615 0.960 . S
C629 H616 0.961 . S
C629 H617 0.959 . S
C629 C627 1.561 . S
C630 C627 1.526 . S
C630 C631 1.396 . S
C630 C635 1.390 . S
C631 C625 1.465 . S
C631 C630 1.396 . S
C631 C632 1.399 . S
C632 H618 0.929 . S
C632 C631 1.399 . S
C632 C633 1.385 . S
C633 H619 0.931 . S
C633 C632 1.385 . S
C633 C634 1.389 . S
C634 C633 1.389 . S
C634 C635 1.387 . S
C635 H620 0.930 . S
C635 C630 1.390 . S
C635 C634 1.387 . S
H636 C648 0.930 . S
H637 C650 0.930 . S
H638 C651 0.930 . S
H639 C655 0.959 . S
H640 C655 0.959 . S
H641 C655 0.961 . S
H642 C656 0.960 . S
H643 C656 0.961 . S
H644 C656 0.959 . S
H645 C659 0.929 . S
H646 C660 0.931 . S
H647 C662 0.930 . S
C648 H636 0.930 . S
C648 C649 1.399 1_545 S
C648 C653 1.399 . S
C649 C648 1.399 1_565 S
C649 C650 1.376 . S
C650 H637 0.930 . S
C650 C649 1.376 . S
C650 C651 1.388 1_565 S
C651 H638 0.930 . S
C651 C650 1.388 1_545 S
C651 C652 1.390 . S
C652 C651 1.390 . S
C652 C653 1.394 . S
C652 C658 1.465 . S
C653 C648 1.399 . S
C653 C652 1.394 . S
C653 C654 1.516 . S
C654 C653 1.516 . S
C654 C655 1.502 . S
C654 C656 1.561 . S
C654 C657 1.526 . S
C655 H639 0.959 . S
C655 H640 0.959 . S
C655 H641 0.961 . S
C655 C654 1.502 . S
C656 H642 0.960 . S
C656 H643 0.961 . S
C656 H644 0.959 . S
C656 C654 1.561 . S
C657 C654 1.526 . S
C657 C658 1.396 . S
C657 C662 1.390 . S
C658 C652 1.465 . S
C658 C657 1.396 . S
C658 C659 1.399 . S
C659 H645 0.929 . S
C659 C658 1.399 . S
C659 C660 1.385 . S
C660 H646 0.931 . S
C660 C659 1.385 . S
C660 C661 1.389 . S
C661 C660 1.389 . S
C661 C662 1.387 . S
C662 H647 0.930 . S
C662 C657 1.390 . S
C662 C661 1.387 . S
H663 C675 0.930 . S
H664 C677 0.930 . S
H665 C678 0.930 . S
H666 C682 0.959 . S
H667 C682 0.959 . S
H668 C682 0.961 . S
H669 C683 0.960 . S
H670 C683 0.961 . S
H671 C683 0.959 . S
H672 C686 0.929 . S
H673 C687 0.931 . S
H674 C689 0.930 . S
C675 H663 0.930 . S
C675 C676 1.399 . S
C675 C680 1.399 . S
C676 C675 1.399 . S
C676 C677 1.376 . S
C677 H664 0.930 . S
C677 C676 1.376 . S
C677 C678 1.388 . S
C678 H665 0.930 . S
C678 C677 1.388 . S
C678 C679 1.390 . S
C679 C678 1.390 . S
C679 C680 1.394 . S
C679 C685 1.465 . S
C680 C675 1.399 . S
C680 C679 1.394 . S
C680 C681 1.516 . S
C681 C680 1.516 . S
C681 C682 1.502 . S
C681 C683 1.561 . S
C681 C684 1.526 . S
C682 H666 0.959 . S
C682 H667 0.959 . S
C682 H668 0.961 . S
C682 C681 1.502 . S
C683 H669 0.960 . S
C683 H670 0.961 . S
C683 H671 0.959 . S
C683 C681 1.561 . S
C684 C681 1.526 . S
C684 C685 1.396 . S
C684 C689 1.390 . S
C685 C679 1.465 . S
C685 C684 1.396 . S
C685 C686 1.399 . S
C686 H672 0.929 . S
C686 C685 1.399 . S
C686 C687 1.385 . S
C687 H673 0.931 . S
C687 C686 1.385 . S
C687 C688 1.389 . S
C688 C687 1.389 . S
C688 C689 1.387 . S
C689 H674 0.930 . S
C689 C684 1.390 . S
C689 C688 1.387 . S
H690 C702 0.930 . S
H691 C704 0.930 . S
H692 C705 0.930 . S
H693 C709 0.959 . S
H694 C709 0.959 . S
H695 C709 0.961 . S
H696 C710 0.960 . S
H697 C710 0.961 . S
H698 C710 0.959 . S
H699 C713 0.929 . S
H700 C714 0.931 . S
H701 C716 0.930 . S
C702 H690 0.930 . S
C702 C703 1.399 1_565 S
C702 C707 1.399 . S
C703 C702 1.399 1_545 S
C703 C704 1.376 . S
C704 H691 0.930 . S
C704 C703 1.376 . S
C704 C705 1.388 1_545 S
C705 H692 0.930 . S
C705 C704 1.388 1_565 S
C705 C706 1.390 . S
C706 C705 1.390 . S
C706 C707 1.394 . S
C706 C712 1.465 . S
C707 C702 1.399 . S
C707 C706 1.394 . S
C707 C708 1.516 . S
C708 C707 1.516 . S
C708 C709 1.502 . S
C708 C710 1.561 . S
C708 C711 1.526 . S
C709 H693 0.959 . S
C709 H694 0.959 . S
C709 H695 0.961 . S
C709 C708 1.502 . S
C710 H696 0.960 . S
C710 H697 0.961 . S
C710 H698 0.959 . S
C710 C708 1.561 . S
C711 C708 1.526 . S
C711 C712 1.396 . S
C711 C716 1.390 . S
C712 C706 1.465 . S
C712 C711 1.396 . S
C712 C713 1.399 . S
C713 H699 0.929 . S
C713 C712 1.399 . S
C713 C714 1.385 . S
C714 H700 0.931 . S
C714 C713 1.385 . S
C714 C715 1.389 . S
C715 C714 1.389 . S
C715 C716 1.387 . S
C716 H701 0.930 . S
C716 C711 1.390 . S
C716 C715 1.387 . S
H717 C729 0.930 . S
H718 C731 0.930 . S
H719 C732 0.930 . S
H720 C736 0.959 . S
H721 C736 0.959 . S
H722 C736 0.961 . S
H723 C737 0.960 . S
H724 C737 0.961 . S
H725 C737 0.959 . S
H726 C740 0.929 . S
H727 C741 0.931 . S
H728 C743 0.930 . S
C729 H717 0.930 . S
C729 C730 1.399 . S
C729 C734 1.399 . S
C730 C729 1.399 . S
C730 C731 1.376 . S
C731 H718 0.930 . S
C731 C730 1.376 . S
C731 C732 1.388 . S
C732 H719 0.930 . S
C732 C731 1.388 . S
C732 C733 1.390 . S
C733 C732 1.390 . S
C733 C734 1.394 . S
C733 C739 1.465 . S
C734 C729 1.399 . S
C734 C733 1.394 . S
C734 C735 1.516 . S
C735 C734 1.516 . S
C735 C736 1.502 . S
C735 C737 1.561 . S
C735 C738 1.526 . S
C736 H720 0.959 . S
C736 H721 0.959 . S
C736 H722 0.961 . S
C736 C735 1.502 . S
C737 H723 0.960 . S
C737 H724 0.961 . S
C737 H725 0.959 . S
C737 C735 1.561 . S
C738 C735 1.526 . S
C738 C739 1.396 . S
C738 C743 1.390 . S
C739 C733 1.465 . S
C739 C738 1.396 . S
C739 C740 1.399 . S
C740 H726 0.929 . S
C740 C739 1.399 . S
C740 C741 1.385 . S
C741 H727 0.931 . S
C741 C740 1.385 . S
C741 C742 1.389 . S
C742 C741 1.389 . S
C742 C743 1.387 . S
C743 H728 0.930 . S
C743 C738 1.390 . S
C743 C742 1.387 . S
H744 C756 0.930 . S
H745 C758 0.930 . S
H746 C759 0.930 . S
H747 C763 0.959 . S
H748 C763 0.959 . S
H749 C763 0.961 . S
H750 C764 0.960 . S
H751 C764 0.961 . S
H752 C764 0.959 . S
H753 C767 0.929 . S
H754 C768 0.931 . S
H755 C770 0.930 . S
C756 H744 0.930 . S
C756 C757 1.399 . S
C756 C761 1.399 . S
C757 C756 1.399 . S
C757 C758 1.376 . S
C758 H745 0.930 . S
C758 C757 1.376 . S
C758 C759 1.388 . S
C759 H746 0.930 . S
C759 C758 1.388 . S
C759 C760 1.390 . S
C760 C759 1.390 . S
C760 C761 1.394 . S
C760 C766 1.465 . S
C761 C756 1.399 . S
C761 C760 1.394 . S
C761 C762 1.516 . S
C762 C761 1.516 . S
C762 C763 1.502 . S
C762 C764 1.561 . S
C762 C765 1.526 . S
C763 H747 0.959 . S
C763 H748 0.959 . S
C763 H749 0.961 . S
C763 C762 1.502 . S
C764 H750 0.960 . S
C764 H751 0.961 . S
C764 H752 0.959 . S
C764 C762 1.561 . S
C765 C762 1.526 . S
C765 C766 1.396 . S
C765 C770 1.390 . S
C766 C760 1.465 . S
C766 C765 1.396 . S
C766 C767 1.399 . S
C767 H753 0.929 . S
C767 C766 1.399 . S
C767 C768 1.385 . S
C768 H754 0.931 . S
C768 C767 1.385 . S
C768 C769 1.389 . S
C769 C768 1.389 . S
C769 C770 1.387 . S
C770 H755 0.930 . S
C770 C765 1.390 . S
C770 C769 1.387 . S
H771 C783 0.930 . S
H772 C785 0.930 . S
H773 C786 0.930 . S
H774 C790 0.959 . S
H775 C790 0.959 . S
H776 C790 0.961 . S
H777 C791 0.960 . S
H778 C791 0.961 . S
H779 C791 0.959 . S
H780 C794 0.929 . S
H781 C795 0.932 . S
H782 C797 0.930 . S
C783 H771 0.930 . S
C783 C784 1.399 . S
C783 C788 1.399 . S
C784 C783 1.399 . S
C784 C785 1.376 . S
C785 H772 0.930 . S
C785 C784 1.376 . S
C785 C786 1.388 . S
C786 H773 0.930 . S
C786 C785 1.388 . S
C786 C787 1.390 . S
C787 C786 1.390 . S
C787 C788 1.394 . S
C787 C793 1.465 . S
C788 C783 1.399 . S
C788 C787 1.394 . S
C788 C789 1.516 . S
C789 C788 1.516 . S
C789 C790 1.502 . S
C789 C791 1.561 . S
C789 C792 1.526 . S
C790 H774 0.959 . S
C790 H775 0.959 . S
C790 H776 0.961 . S
C790 C789 1.502 . S
C791 H777 0.960 . S
C791 H778 0.961 . S
C791 H779 0.959 . S
C791 C789 1.561 . S
C792 C789 1.526 . S
C792 C793 1.396 . S
C792 C797 1.390 1_545 S
C793 C787 1.465 . S
C793 C792 1.396 . S
C793 C794 1.399 . S
C794 H780 0.929 . S
C794 C793 1.399 . S
C794 C795 1.385 . S
C795 H781 0.932 . S
C795 C794 1.385 . S
C795 C796 1.389 1_545 S
C796 C795 1.389 1_565 S
C796 C797 1.387 . S
C797 H782 0.930 . S
C797 C792 1.390 1_565 S
C797 C796 1.387 . S
H798 C810 0.930 . S
H799 C812 0.930 . S
H800 C813 0.930 . S
H801 C817 0.959 . S
H802 C817 0.959 . S
H803 C817 0.961 . S
H804 C818 0.960 . S
H805 C818 0.961 . S
H806 C818 0.959 . S
H807 C821 0.929 . S
H808 C822 0.931 . S
H809 C824 0.930 . S
C810 H798 0.930 . S
C810 C811 1.399 . S
C810 C815 1.399 . S
C811 C810 1.399 . S
C811 C812 1.376 . S
C812 H799 0.930 . S
C812 C811 1.376 . S
C812 C813 1.388 . S
C813 H800 0.930 . S
C813 C812 1.388 . S
C813 C814 1.390 . S
C814 C813 1.390 . S
C814 C815 1.394 . S
C814 C820 1.465 . S
C815 C810 1.399 . S
C815 C814 1.394 . S
C815 C816 1.516 . S
C816 C815 1.516 . S
C816 C817 1.502 . S
C816 C818 1.561 . S
C816 C819 1.526 . S
C817 H801 0.959 . S
C817 H802 0.959 . S
C817 H803 0.961 . S
C817 C816 1.502 . S
C818 H804 0.960 . S
C818 H805 0.961 . S
C818 H806 0.959 . S
C818 C816 1.561 . S
C819 C816 1.526 . S
C819 C820 1.396 . S
C819 C824 1.390 . S
C820 C814 1.465 . S
C820 C819 1.396 . S
C820 C821 1.399 . S
C821 H807 0.929 . S
C821 C820 1.399 . S
C821 C822 1.385 . S
C822 H808 0.931 . S
C822 C821 1.385 . S
C822 C823 1.389 . S
C823 C822 1.389 . S
C823 C824 1.387 . S
C824 H809 0.930 . S
C824 C819 1.390 . S
C824 C823 1.387 . S
H825 C837 0.930 1_545 S
H826 C839 0.930 1_545 S
H827 C840 0.930 . S
H828 C844 0.959 . S
H829 C844 0.959 . S
H830 C844 0.961 . S
H831 C845 0.960 . S
H832 C845 0.961 . S
H833 C845 0.959 . S
H834 C848 0.929 . S
H835 C849 0.931 . S
H836 C851 0.930 . S
C837 H825 0.930 1_565 S
C837 C838 1.399 1_565 S
C837 C842 1.399 . S
C838 C837 1.399 1_545 S
C838 C839 1.376 1_545 S
C839 H826 0.930 1_565 S
C839 C838 1.376 1_565 S
C839 C840 1.388 . S
C840 H827 0.930 . S
C840 C839 1.388 . S
C840 C841 1.390 . S
C841 C840 1.390 . S
C841 C842 1.394 . S
C841 C847 1.465 . S
C842 C837 1.399 . S
C842 C841 1.394 . S
C842 C843 1.516 . S
C843 C842 1.516 . S
C843 C844 1.502 . S
C843 C845 1.561 . S
C843 C846 1.526 . S
C844 H828 0.959 . S
C844 H829 0.959 . S
C844 H830 0.961 . S
C844 C843 1.502 . S
C845 H831 0.960 . S
C845 H832 0.961 . S
C845 H833 0.959 . S
C845 C843 1.561 . S
C846 C843 1.526 . S
C846 C847 1.396 . S
C846 C851 1.390 . S
C847 C841 1.465 . S
C847 C846 1.396 . S
C847 C848 1.399 . S
C848 H834 0.929 . S
C848 C847 1.399 . S
C848 C849 1.385 . S
C849 H835 0.931 . S
C849 C848 1.385 . S
C849 C850 1.389 . S
C850 C849 1.389 . S
C850 C851 1.387 . S
C851 H836 0.930 . S
C851 C846 1.390 . S
C851 C850 1.387 . S
H852 C864 0.930 . S
H853 C866 0.930 . S
H854 C867 0.930 . S
H855 C871 0.959 . S
H856 C871 0.959 . S
H857 C871 0.961 . S
H858 C872 0.960 . S
H859 C872 0.961 . S
H860 C872 0.959 . S
H861 C875 0.929 . S
H862 C876 0.931 . S
H863 C878 0.930 . S
C864 H852 0.930 . S
C864 C865 1.399 . S
C864 C869 1.399 . S
C865 C864 1.399 . S
C865 C866 1.376 . S
C866 H853 0.930 . S
C866 C865 1.376 . S
C866 C867 1.388 . S
C867 H854 0.930 . S
C867 C866 1.388 . S
C867 C868 1.390 . S
C868 C867 1.390 . S
C868 C869 1.394 . S
C868 C874 1.465 . S
C869 C864 1.399 . S
C869 C868 1.394 . S
C869 C870 1.516 . S
C870 C869 1.516 . S
C870 C871 1.502 . S
C870 C872 1.561 . S
C870 C873 1.526 . S
C871 H855 0.959 . S
C871 H856 0.959 . S
C871 H857 0.961 . S
C871 C870 1.502 . S
C872 H858 0.960 . S
C872 H859 0.961 . S
C872 H860 0.959 . S
C872 C870 1.561 . S
C873 C870 1.526 . S
C873 C874 1.396 . S
C873 C878 1.390 . S
C874 C868 1.465 . S
C874 C873 1.396 . S
C874 C875 1.399 . S
C875 H861 0.929 . S
C875 C874 1.399 . S
C875 C876 1.385 . S
C876 H862 0.931 . S
C876 C875 1.385 . S
C876 C877 1.389 . S
C877 C876 1.389 . S
C877 C878 1.387 . S
C878 H863 0.930 . S
C878 C873 1.390 . S
C878 C877 1.387 . S
H879 C891 0.930 1_545 S
H880 C893 0.930 1_545 S
H881 C894 0.930 . S
H882 C898 0.959 . S
H883 C898 0.959 . S
H884 C898 0.961 . S
H885 C899 0.960 . S
H886 C899 0.961 . S
H887 C899 0.959 . S
H888 C902 0.929 . S
H889 C903 0.931 . S
H890 C905 0.930 . S
C891 H879 0.930 1_565 S
C891 C892 1.399 1_565 S
C891 C896 1.399 . S
C892 C891 1.399 1_545 S
C892 C893 1.376 1_545 S
C893 H880 0.930 1_565 S
C893 C892 1.376 1_565 S
C893 C894 1.388 . S
C894 H881 0.930 . S
C894 C893 1.388 . S
C894 C895 1.390 . S
C895 C894 1.390 . S
C895 C896 1.394 . S
C895 C901 1.465 . S
C896 C891 1.399 . S
C896 C895 1.394 . S
C896 C897 1.516 . S
C897 C896 1.516 . S
C897 C898 1.502 . S
C897 C899 1.561 . S
C897 C900 1.526 . S
C898 H882 0.959 . S
C898 H883 0.959 . S
C898 H884 0.961 . S
C898 C897 1.502 . S
C899 H885 0.960 . S
C899 H886 0.961 . S
C899 H887 0.959 . S
C899 C897 1.561 . S
C900 C897 1.526 . S
C900 C901 1.396 . S
C900 C905 1.390 . S
C901 C895 1.465 . S
C901 C900 1.396 . S
C901 C902 1.399 . S
C902 H888 0.929 . S
C902 C901 1.399 . S
C902 C903 1.385 . S
C903 H889 0.931 . S
C903 C902 1.385 . S
C903 C904 1.389 . S
C904 C903 1.389 . S
C904 C905 1.387 . S
C905 H890 0.930 . S
C905 C900 1.390 . S
C905 C904 1.387 . S
H906 C918 0.930 . S
H907 C920 0.930 . S
H908 C921 0.930 . S
H909 C925 0.959 . S
H910 C925 0.959 . S
H911 C925 0.961 . S
H912 C926 0.960 . S
H913 C926 0.961 . S
H914 C926 0.959 . S
H915 C929 0.929 . S
H916 C930 0.931 . S
H917 C932 0.930 . S
C918 H906 0.930 . S
C918 C919 1.399 . S
C918 C923 1.399 . S
C919 C918 1.399 . S
C919 C920 1.376 . S
C920 H907 0.930 . S
C920 C919 1.376 . S
C920 C921 1.388 . S
C921 H908 0.930 . S
C921 C920 1.388 . S
C921 C922 1.390 . S
C922 C921 1.390 . S
C922 C923 1.394 . S
C922 C928 1.465 . S
C923 C918 1.399 . S
C923 C922 1.394 . S
C923 C924 1.516 . S
C924 C923 1.516 . S
C924 C925 1.502 . S
C924 C926 1.561 . S
C924 C927 1.526 . S
C925 H909 0.959 . S
C925 H910 0.959 . S
C925 H911 0.961 . S
C925 C924 1.502 . S
C926 H912 0.960 . S
C926 H913 0.961 . S
C926 H914 0.959 . S
C926 C924 1.561 . S
C927 C924 1.526 . S
C927 C928 1.396 . S
C927 C932 1.390 . S
C928 C922 1.465 . S
C928 C927 1.396 . S
C928 C929 1.399 . S
C929 H915 0.929 . S
C929 C928 1.399 . S
C929 C930 1.385 . S
C930 H916 0.931 . S
C930 C929 1.385 . S
C930 C931 1.389 . S
C931 C930 1.389 . S
C931 C932 1.387 . S
C932 H917 0.930 . S
C932 C927 1.390 . S
C932 C931 1.387 . S
H933 C945 0.930 . S
H934 C947 0.930 . S
H935 C948 0.930 . S
H936 C952 0.959 . S
H937 C952 0.959 . S
H938 C952 0.961 . S
H939 C953 0.960 . S
H940 C953 0.961 . S
H941 C953 0.959 . S
H942 C956 0.929 . S
H943 C957 0.931 . S
H944 C959 0.930 . S
C945 H933 0.930 . S
C945 C946 1.399 . S
C945 C950 1.399 . S
C946 C945 1.399 . S
C946 C947 1.376 . S
C947 H934 0.930 . S
C947 C946 1.376 . S
C947 C948 1.388 . S
C948 H935 0.930 . S
C948 C947 1.388 . S
C948 C949 1.390 . S
C949 C948 1.390 . S
C949 C950 1.394 . S
C949 C955 1.465 . S
C950 C945 1.399 . S
C950 C949 1.394 . S
C950 C951 1.516 . S
C951 C950 1.516 . S
C951 C952 1.502 . S
C951 C953 1.561 . S
C951 C954 1.526 . S
C952 H936 0.959 . S
C952 H937 0.959 . S
C952 H938 0.961 . S
C952 C951 1.502 . S
C953 H939 0.960 . S
C953 H940 0.961 . S
C953 H941 0.959 . S
C953 C951 1.561 . S
C954 C951 1.526 . S
C954 C955 1.396 . S
C954 C959 1.390 . S
C955 C949 1.465 . S
C955 C954 1.396 . S
C955 C956 1.399 . S
C956 H942 0.929 . S
C956 C955 1.399 . S
C956 C957 1.385 1_545 S
C957 H943 0.931 . S
C957 C956 1.385 1_565 S
C957 C958 1.389 . S
C958 C957 1.389 . S
C958 C959 1.387 1_565 S
C959 H944 0.930 . S
C959 C954 1.390 . S
C959 C958 1.387 1_545 S
H960 C972 0.930 . S
H961 C974 0.930 . S
H962 C975 0.930 . S
H963 C979 0.959 . S
H964 C979 0.959 . S
H965 C979 0.961 . S
H966 C980 0.960 . S
H967 C980 0.961 1_556 S
H968 C980 0.959 . S
H969 C983 0.929 . S
H970 C984 0.931 . S
H971 C986 0.930 . S
C972 H960 0.930 . S
C972 C973 1.399 . S
C972 C977 1.399 . S
C973 C972 1.399 . S
C973 C974 1.376 . S
C974 H961 0.930 . S
C974 C973 1.376 . S
C974 C975 1.388 . S
C975 H962 0.930 . S
C975 C974 1.388 . S
C975 C976 1.390 . S
C976 C975 1.390 . S
C976 C977 1.394 . S
C976 C982 1.465 1_554 S
C977 C972 1.399 . S
C977 C976 1.394 . S
C977 C978 1.516 1_554 S
C978 C977 1.516 1_556 S
C978 C979 1.502 . S
C978 C980 1.561 1_556 S
C978 C981 1.526 . S
C979 H963 0.959 . S
C979 H964 0.959 . S
C979 H965 0.961 . S
C979 C978 1.502 . S
C980 H966 0.960 . S
C980 H967 0.961 1_554 S
C980 H968 0.959 . S
C980 C978 1.561 1_554 S
C981 C978 1.526 . S
C981 C982 1.396 . S
C981 C986 1.390 . S
C982 C976 1.465 1_556 S
C982 C981 1.396 . S
C982 C983 1.399 . S
C983 H969 0.929 . S
C983 C982 1.399 . S
C983 C984 1.385 . S
C984 H970 0.931 . S
C984 C983 1.385 . S
C984 C985 1.389 . S
C985 C984 1.389 . S
C985 C986 1.387 . S
C986 H971 0.930 . S
C986 C981 1.390 . S
C986 C985 1.387 . S
H987 C999 0.930 . S
H988 C1001 0.930 . S
H989 C1002 0.930 . S
H990 C1006 0.959 . S
H991 C1006 0.959 . S
H992 C1006 0.961 . S
H993 C1007 0.960 1_556 S
H994 C1007 0.961 . S
H995 C1007 0.959 . S
H996 C1010 0.929 . S
H997 C1011 0.931 . S
H998 C1013 0.930 . S
C999 H987 0.930 . S
C999 C1000 1.399 . S
C999 C1004 1.399 . S
C1000 C999 1.399 . S
C1000 C1001 1.376 . S
C1001 H988 0.930 . S
C1001 C1000 1.376 . S
C1001 C1002 1.388 . S
C1002 H989 0.930 . S
C1002 C1001 1.388 . S
C1002 C1003 1.390 . S
C1003 C1002 1.390 . S
C1003 C1004 1.394 . S
C1003 C1009 1.465 1_556 S
C1004 C999 1.399 . S
C1004 C1003 1.394 . S
C1004 C1005 1.516 . S
C1005 C1004 1.516 . S
C1005 C1006 1.502 . S
C1005 C1007 1.561 1_556 S
C1005 C1008 1.526 1_556 S
C1006 H990 0.959 . S
C1006 H991 0.959 . S
C1006 H992 0.961 . S
C1006 C1005 1.502 . S
C1007 H993 0.960 1_554 S
C1007 H994 0.961 . S
C1007 H995 0.959 . S
C1007 C1005 1.561 1_554 S
C1008 C1005 1.526 1_554 S
C1008 C1009 1.396 . S
C1008 C1013 1.390 . S
C1009 C1003 1.465 1_554 S
C1009 C1008 1.396 . S
C1009 C1010 1.399 . S
C1010 H996 0.929 . S
C1010 C1009 1.399 . S
C1010 C1011 1.385 . S
C1011 H997 0.931 . S
C1011 C1010 1.385 . S
C1011 C1012 1.389 . S
C1012 C1011 1.389 . S
C1012 C1013 1.387 . S
C1013 H998 0.930 . S
C1013 C1008 1.390 . S
C1013 C1012 1.387 . S
H1014 C1026 0.930 . S
H1015 C1028 0.930 . S
H1016 C1029 0.930 . S
H1017 C1033 0.959 . S
H1018 C1033 0.959 . S
H1019 C1033 0.961 . S
H1020 C1034 0.960 . S
H1021 C1034 0.961 . S
H1022 C1034 0.959 . S
H1023 C1037 0.929 . S
H1024 C1038 0.931 . S
H1025 C1040 0.930 . S
C1026 H1014 0.930 . S
C1026 C1027 1.399 . S
C1026 C1031 1.399 . S
C1027 C1026 1.399 . S
C1027 C1028 1.376 . S
C1028 H1015 0.930 . S
C1028 C1027 1.376 . S
C1028 C1029 1.388 . S
C1029 H1016 0.930 . S
C1029 C1028 1.388 . S
C1029 C1030 1.390 . S
C1030 C1029 1.390 . S
C1030 C1031 1.394 . S
C1030 C1036 1.465 . S
C1031 C1026 1.399 . S
C1031 C1030 1.394 . S
C1031 C1032 1.516 . S
C1032 C1031 1.516 . S
C1032 C1033 1.502 . S
C1032 C1034 1.561 . S
C1032 C1035 1.526 . S
C1033 H1017 0.959 . S
C1033 H1018 0.959 . S
C1033 H1019 0.961 . S
C1033 C1032 1.502 . S
C1034 H1020 0.960 . S
C1034 H1021 0.961 . S
C1034 H1022 0.959 . S
C1034 C1032 1.561 . S
C1035 C1032 1.526 . S
C1035 C1036 1.396 . S
C1035 C1040 1.390 . S
C1036 C1030 1.465 . S
C1036 C1035 1.396 . S
C1036 C1037 1.399 . S
C1037 H1023 0.929 . S
C1037 C1036 1.399 . S
C1037 C1038 1.385 . S
C1038 H1024 0.931 . S
C1038 C1037 1.385 . S
C1038 C1039 1.389 . S
C1039 C1038 1.389 . S
C1039 C1040 1.387 . S
C1040 H1025 0.930 . S
C1040 C1035 1.390 . S
C1040 C1039 1.387 . S
H1041 C1053 0.930 . S
H1042 C1055 0.930 . S
H1043 C1056 0.930 . S
H1044 C1060 0.959 . S
H1045 C1060 0.959 . S
H1046 C1060 0.961 . S
H1047 C1061 0.960 . S
H1048 C1061 0.961 . S
H1049 C1061 0.959 . S
H1050 C1064 0.929 . S
H1051 C1065 0.931 . S
H1052 C1067 0.930 . S
C1053 H1041 0.930 . S
C1053 C1054 1.399 . S
C1053 C1058 1.399 . S
C1054 C1053 1.399 . S
C1054 C1055 1.376 . S
C1055 H1042 0.930 . S
C1055 C1054 1.376 . S
C1055 C1056 1.388 . S
C1056 H1043 0.930 . S
C1056 C1055 1.388 . S
C1056 C1057 1.390 . S
C1057 C1056 1.390 . S
C1057 C1058 1.394 . S
C1057 C1063 1.465 . S
C1058 C1053 1.399 . S
C1058 C1057 1.394 . S
C1058 C1059 1.516 . S
C1059 C1058 1.516 . S
C1059 C1060 1.502 . S
C1059 C1061 1.561 . S
C1059 C1062 1.526 . S
C1060 H1044 0.959 . S
C1060 H1045 0.959 . S
C1060 H1046 0.961 . S
C1060 C1059 1.502 . S
C1061 H1047 0.960 . S
C1061 H1048 0.961 . S
C1061 H1049 0.959 . S
C1061 C1059 1.561 . S
C1062 C1059 1.526 . S
C1062 C1063 1.396 . S
C1062 C1067 1.390 . S
C1063 C1057 1.465 . S
C1063 C1062 1.396 . S
C1063 C1064 1.399 . S
C1064 H1050 0.929 . S
C1064 C1063 1.399 . S
C1064 C1065 1.385 . S
C1065 H1051 0.931 . S
C1065 C1064 1.385 . S
C1065 C1066 1.389 . S
C1066 C1065 1.389 . S
C1066 C1067 1.387 . S
C1067 H1052 0.930 . S
C1067 C1062 1.390 . S
C1067 C1066 1.387 . S
H1068 C1080 0.930 . S
H1069 C1082 0.930 . S
H1070 C1083 0.930 . S
H1071 C1087 0.959 . S
H1072 C1087 0.959 1_554 S
H1073 C1087 0.961 . S
H1074 C1088 0.960 . S
H1075 C1088 0.961 . S
H1076 C1088 0.959 . S
H1077 C1091 0.929 . S
H1078 C1092 0.931 . S
H1079 C1094 0.930 . S
C1080 H1068 0.930 . S
C1080 C1081 1.399 . S
C1080 C1085 1.399 . S
C1081 C1080 1.399 . S
C1081 C1082 1.376 . S
C1082 H1069 0.930 . S
C1082 C1081 1.376 . S
C1082 C1083 1.388 . S
C1083 H1070 0.930 . S
C1083 C1082 1.388 . S
C1083 C1084 1.390 . S
C1084 C1083 1.390 . S
C1084 C1085 1.394 . S
C1084 C1090 1.465 1_556 S
C1085 C1080 1.399 . S
C1085 C1084 1.394 . S
C1085 C1086 1.516 1_556 S
C1086 C1085 1.516 1_554 S
C1086 C1087 1.502 1_554 S
C1086 C1088 1.561 . S
C1086 C1089 1.526 . S
C1087 H1071 0.959 . S
C1087 H1072 0.959 1_556 S
C1087 H1073 0.961 . S
C1087 C1086 1.502 1_556 S
C1088 H1074 0.960 . S
C1088 H1075 0.961 . S
C1088 H1076 0.959 . S
C1088 C1086 1.561 . S
C1089 C1086 1.526 . S
C1089 C1090 1.396 . S
C1089 C1094 1.390 . S
C1090 C1084 1.465 1_554 S
C1090 C1089 1.396 . S
C1090 C1091 1.399 . S
C1091 H1077 0.929 . S
C1091 C1090 1.399 . S
C1091 C1092 1.385 . S
C1092 H1078 0.931 . S
C1092 C1091 1.385 . S
C1092 C1093 1.389 . S
C1093 C1092 1.389 . S
C1093 C1094 1.387 . S
C1094 H1079 0.930 . S
C1094 C1089 1.390 . S
C1094 C1093 1.387 . S
H1095 C1107 0.930 . S
H1096 C1109 0.930 . S
H1097 C1110 0.930 . S
H1098 C1114 0.959 . S
H1099 C1114 0.959 . S
H1100 C1114 0.961 . S
H1101 C1115 0.960 . S
H1102 C1115 0.961 1_556 S
H1103 C1115 0.959 . S
H1104 C1118 0.929 . S
H1105 C1119 0.931 . S
H1106 C1121 0.930 . S
C1107 H1095 0.930 . S
C1107 C1108 1.399 . S
C1107 C1112 1.399 . S
C1108 C1107 1.399 . S
C1108 C1109 1.376 . S
C1109 H1096 0.930 . S
C1109 C1108 1.376 . S
C1109 C1110 1.388 . S
C1110 H1097 0.930 . S
C1110 C1109 1.388 . S
C1110 C1111 1.390 . S
C1111 C1110 1.390 . S
C1111 C1112 1.394 . S
C1111 C1117 1.465 1_554 S
C1112 C1107 1.399 . S
C1112 C1111 1.394 . S
C1112 C1113 1.516 1_554 S
C1113 C1112 1.516 1_556 S
C1113 C1114 1.502 . S
C1113 C1115 1.561 1_556 S
C1113 C1116 1.526 . S
C1114 H1098 0.959 . S
C1114 H1099 0.959 . S
C1114 H1100 0.961 . S
C1114 C1113 1.502 . S
C1115 H1101 0.960 . S
C1115 H1102 0.961 1_554 S
C1115 H1103 0.959 . S
C1115 C1113 1.561 1_554 S
C1116 C1113 1.526 . S
C1116 C1117 1.396 . S
C1116 C1121 1.390 . S
C1117 C1111 1.465 1_556 S
C1117 C1116 1.396 . S
C1117 C1118 1.399 . S
C1118 H1104 0.929 . S
C1118 C1117 1.399 . S
C1118 C1119 1.385 . S
C1119 H1105 0.931 . S
C1119 C1118 1.385 . S
C1119 C1120 1.389 . S
C1120 C1119 1.389 . S
C1120 C1121 1.387 . S
C1121 H1106 0.930 . S
C1121 C1116 1.390 . S
C1121 C1120 1.387 . S
H1122 C1134 0.930 . S
H1123 C1136 0.930 . S
H1124 C1137 0.930 . S
H1125 C1141 0.959 . S
H1126 C1141 0.959 . S
H1127 C1141 0.961 . S
H1128 C1142 0.960 . S
H1129 C1142 0.961 . S
H1130 C1142 0.959 . S
H1131 C1145 0.929 . S
H1132 C1146 0.931 . S
H1133 C1148 0.930 . S
C1134 H1122 0.930 . S
C1134 C1135 1.399 . S
C1134 C1139 1.399 . S
C1135 C1134 1.399 . S
C1135 C1136 1.376 . S
C1136 H1123 0.930 . S
C1136 C1135 1.376 . S
C1136 C1137 1.388 . S
C1137 H1124 0.930 . S
C1137 C1136 1.388 . S
C1137 C1138 1.390 . S
C1138 C1137 1.390 . S
C1138 C1139 1.394 . S
C1138 C1144 1.465 . S
C1139 C1134 1.399 . S
C1139 C1138 1.394 . S
C1139 C1140 1.516 . S
C1140 C1139 1.516 . S
C1140 C1141 1.502 . S
C1140 C1142 1.561 . S
C1140 C1143 1.526 . S
C1141 H1125 0.959 . S
C1141 H1126 0.959 . S
C1141 H1127 0.961 . S
C1141 C1140 1.502 . S
C1142 H1128 0.960 . S
C1142 H1129 0.961 . S
C1142 H1130 0.959 . S
C1142 C1140 1.561 . S
C1143 C1140 1.526 . S
C1143 C1144 1.396 . S
C1143 C1148 1.390 . S
C1144 C1138 1.465 . S
C1144 C1143 1.396 . S
C1144 C1145 1.399 . S
C1145 H1131 0.929 . S
C1145 C1144 1.399 . S
C1145 C1146 1.385 . S
C1146 H1132 0.931 . S
C1146 C1145 1.385 . S
C1146 C1147 1.389 . S
C1147 C1146 1.389 . S
C1147 C1148 1.387 . S
C1148 H1133 0.930 . S
C1148 C1143 1.390 . S
C1148 C1147 1.387 . S
H1149 C1161 0.930 . S
H1150 C1163 0.930 . S
H1151 C1164 0.930 . S
H1152 C1168 0.959 . S
H1153 C1168 0.959 . S
H1154 C1168 0.961 . S
H1155 C1169 0.960 . S
H1156 C1169 0.961 . S
H1157 C1169 0.959 . S
H1158 C1172 0.929 . S
H1159 C1173 0.931 . S
H1160 C1175 0.930 . S
C1161 H1149 0.930 . S
C1161 C1162 1.399 . S
C1161 C1166 1.399 . S
C1162 C1161 1.399 . S
C1162 C1163 1.376 . S
C1163 H1150 0.930 . S
C1163 C1162 1.376 . S
C1163 C1164 1.388 . S
C1164 H1151 0.930 . S
C1164 C1163 1.388 . S
C1164 C1165 1.390 . S
C1165 C1164 1.390 . S
C1165 C1166 1.394 . S
C1165 C1171 1.465 . S
C1166 C1161 1.399 . S
C1166 C1165 1.394 . S
C1166 C1167 1.516 . S
C1167 C1166 1.516 . S
C1167 C1168 1.502 . S
C1167 C1169 1.561 . S
C1167 C1170 1.526 . S
C1168 H1152 0.959 . S
C1168 H1153 0.959 . S
C1168 H1154 0.961 . S
C1168 C1167 1.502 . S
C1169 H1155 0.960 . S
C1169 H1156 0.961 . S
C1169 H1157 0.959 . S
C1169 C1167 1.561 . S
C1170 C1167 1.526 . S
C1170 C1171 1.396 . S
C1170 C1175 1.390 . S
C1171 C1165 1.465 . S
C1171 C1170 1.396 . S
C1171 C1172 1.399 . S
C1172 H1158 0.929 . S
C1172 C1171 1.399 . S
C1172 C1173 1.385 . S
C1173 H1159 0.931 . S
C1173 C1172 1.385 . S
C1173 C1174 1.389 . S
C1174 C1173 1.389 . S
C1174 C1175 1.387 . S
C1175 H1160 0.930 . S
C1175 C1170 1.390 . S
C1175 C1174 1.387 . S
H1176 C1188 0.930 . S
H1177 C1190 0.930 . S
H1178 C1191 0.930 . S
H1179 C1195 0.959 . S
H1180 C1195 0.959 1_565 S
H1181 C1195 0.961 . S
H1182 C1196 0.960 . S
H1183 C1196 0.961 . S
H1184 C1196 0.959 . S
H1185 C1199 0.929 . S
H1186 C1200 0.931 . S
H1187 C1202 0.930 . S
C1188 H1176 0.930 . S
C1188 C1189 1.399 . S
C1188 C1193 1.399 . S
C1189 C1188 1.399 . S
C1189 C1190 1.376 . S
C1190 H1177 0.930 . S
C1190 C1189 1.376 . S
C1190 C1191 1.388 . S
C1191 H1178 0.930 . S
C1191 C1190 1.388 . S
C1191 C1192 1.390 . S
C1192 C1191 1.390 . S
C1192 C1193 1.394 . S
C1192 C1198 1.465 1_545 S
C1193 C1188 1.399 . S
C1193 C1192 1.394 . S
C1193 C1194 1.516 1_545 S
C1194 C1193 1.516 1_565 S
C1194 C1195 1.502 1_565 S
C1194 C1196 1.561 . S
C1194 C1197 1.526 . S
C1195 H1179 0.959 . S
C1195 H1180 0.959 1_545 S
C1195 H1181 0.961 . S
C1195 C1194 1.502 1_545 S
C1196 H1182 0.960 . S
C1196 H1183 0.961 . S
C1196 H1184 0.959 . S
C1196 C1194 1.561 . S
C1197 C1194 1.526 . S
C1197 C1198 1.396 . S
C1197 C1202 1.390 . S
C1198 C1192 1.465 1_565 S
C1198 C1197 1.396 . S
C1198 C1199 1.399 . S
C1199 H1185 0.929 . S
C1199 C1198 1.399 . S
C1199 C1200 1.385 . S
C1200 H1186 0.931 . S
C1200 C1199 1.385 . S
C1200 C1201 1.389 . S
C1201 C1200 1.389 . S
C1201 C1202 1.387 . S
C1202 H1187 0.930 . S
C1202 C1197 1.390 . S
C1202 C1201 1.387 . S
H1203 C1215 0.930 . S
H1204 C1217 0.930 . S
H1205 C1218 0.930 . S
H1206 C1222 0.959 . S
H1207 C1222 0.959 . S
H1208 C1222 0.961 . S
H1209 C1223 0.960 . S
H1210 C1223 0.961 . S
H1211 C1223 0.959 . S
H1212 C1226 0.929 . S
H1213 C1227 0.931 . S
H1214 C1229 0.930 . S
C1215 H1203 0.930 . S
C1215 C1216 1.399 . S
C1215 C1220 1.399 . S
C1216 C1215 1.399 . S
C1216 C1217 1.376 . S
C1217 H1204 0.930 . S
C1217 C1216 1.376 . S
C1217 C1218 1.388 . S
C1218 H1205 0.930 . S
C1218 C1217 1.388 . S
C1218 C1219 1.390 . S
C1219 C1218 1.390 . S
C1219 C1220 1.394 . S
C1219 C1225 1.465 . S
C1220 C1215 1.399 . S
C1220 C1219 1.394 . S
C1220 C1221 1.516 . S
C1221 C1220 1.516 . S
C1221 C1222 1.502 . S
C1221 C1223 1.561 . S
C1221 C1224 1.526 . S
C1222 H1206 0.959 . S
C1222 H1207 0.959 . S
C1222 H1208 0.961 . S
C1222 C1221 1.502 . S
C1223 H1209 0.960 . S
C1223 H1210 0.961 . S
C1223 H1211 0.959 . S
C1223 C1221 1.561 . S
C1224 C1221 1.526 . S
C1224 C1225 1.396 . S
C1224 C1229 1.390 . S
C1225 C1219 1.465 . S
C1225 C1224 1.396 . S
C1225 C1226 1.399 . S
C1226 H1212 0.929 . S
C1226 C1225 1.399 . S
C1226 C1227 1.385 . S
C1227 H1213 0.931 . S
C1227 C1226 1.385 . S
C1227 C1228 1.389 . S
C1228 C1227 1.389 . S
C1228 C1229 1.387 . S
C1229 H1214 0.930 . S
C1229 C1224 1.390 . S
C1229 C1228 1.387 . S
H1230 C1242 0.930 . S
H1231 C1244 0.930 . S
H1232 C1245 0.921 1_545 S
H1233 C1249 0.959 . S
H1234 C1249 0.959 . S
H1235 C1249 0.961 . S
H1236 C1250 0.960 . S
H1237 C1250 0.961 . S
H1238 C1250 0.959 . S
H1239 C1253 0.929 . S
H1240 C1254 0.931 . S
H1241 C1256 0.930 . S
C1242 H1230 0.930 . S
C1242 C1243 1.399 . S
C1242 C1247 1.399 . S
C1243 C1242 1.399 . S
C1243 C1244 1.376 . S
C1244 H1231 0.930 . S
C1244 C1243 1.376 . S
C1244 C1245 1.397 . S
C1245 H1232 0.921 1_565 S
C1245 C1244 1.397 . S
C1245 C1246 1.391 . S
C1246 C1245 1.391 . S
C1246 C1247 1.394 . S
C1246 C1252 1.465 1_565 S
C1247 C1242 1.399 . S
C1247 C1246 1.394 . S
C1247 C1248 1.516 . S
C1248 C1247 1.516 . S
C1248 C1249 1.502 . S
C1248 C1250 1.561 . S
C1248 C1251 1.526 1_565 S
C1249 H1233 0.959 . S
C1249 H1234 0.959 . S
C1249 H1235 0.961 . S
C1249 C1248 1.502 . S
C1250 H1236 0.960 . S
C1250 H1237 0.961 . S
C1250 H1238 0.959 . S
C1250 C1248 1.561 . S
C1251 C1248 1.526 1_545 S
C1251 C1252 1.396 . S
C1251 C1256 1.390 . S
C1252 C1246 1.465 1_545 S
C1252 C1251 1.396 . S
C1252 C1253 1.399 . S
C1253 H1239 0.929 . S
C1253 C1252 1.399 . S
C1253 C1254 1.385 . S
C1254 H1240 0.931 . S
C1254 C1253 1.385 . S
C1254 C1255 1.389 . S
C1255 C1254 1.389 . S
C1255 C1256 1.387 . S
C1256 H1241 0.930 . S
C1256 C1251 1.390 . S
C1256 C1255 1.387 . S
H1257 C1269 0.930 . S
H1258 C1271 0.930 . S
H1259 C1272 0.930 . S
H1260 C1276 0.959 . S
H1261 C1276 0.959 . S
H1262 C1276 0.961 . S
H1263 C1277 0.960 . S
H1264 C1277 0.961 . S
H1265 C1277 0.959 . S
H1266 C1280 0.929 . S
H1267 C1281 0.931 . S
H1268 C1283 0.930 . S
C1269 H1257 0.930 . S
C1269 C1270 1.399 . S
C1269 C1274 1.399 . S
C1270 C1269 1.399 . S
C1270 C1271 1.376 . S
C1271 H1258 0.930 . S
C1271 C1270 1.376 . S
C1271 C1272 1.388 . S
C1272 H1259 0.930 . S
C1272 C1271 1.388 . S
C1272 C1273 1.390 . S
C1273 C1272 1.390 . S
C1273 C1274 1.394 . S
C1273 C1279 1.465 . S
C1274 C1269 1.399 . S
C1274 C1273 1.394 . S
C1274 C1275 1.516 . S
C1275 C1274 1.516 . S
C1275 C1276 1.502 . S
C1275 C1277 1.561 . S
C1275 C1278 1.526 . S
C1276 H1260 0.959 . S
C1276 H1261 0.959 . S
C1276 H1262 0.961 . S
C1276 C1275 1.502 . S
C1277 H1263 0.960 . S
C1277 H1264 0.961 . S
C1277 H1265 0.959 . S
C1277 C1275 1.561 . S
C1278 C1275 1.526 . S
C1278 C1279 1.396 . S
C1278 C1283 1.390 . S
C1279 C1273 1.465 . S
C1279 C1278 1.396 . S
C1279 C1280 1.399 . S
C1280 H1266 0.929 . S
C1280 C1279 1.399 . S
C1280 C1281 1.385 . S
C1281 H1267 0.931 . S
C1281 C1280 1.385 . S
C1281 C1282 1.389 . S
C1282 C1281 1.389 . S
C1282 C1283 1.387 . S
C1283 H1268 0.930 . S
C1283 C1278 1.390 . S
C1283 C1282 1.387 . S
H1284 C1296 0.930 . S
H1285 C1298 0.930 . S
H1286 C1299 0.930 . S
H1287 C1303 0.959 . S
H1288 C1303 0.959 . S
H1289 C1303 0.961 . S
H1290 C1304 0.960 . S
H1291 C1304 0.961 . S
H1292 C1304 0.959 . S
H1293 C1307 0.929 . S
H1294 C1308 0.931 . S
H1295 C1310 0.930 . S
C1296 H1284 0.930 . S
C1296 C1297 1.399 . S
C1296 C1301 1.399 . S
C1297 C1296 1.399 . S
C1297 C1298 1.376 . S
C1298 H1285 0.930 . S
C1298 C1297 1.376 . S
C1298 C1299 1.388 . S
C1299 H1286 0.930 . S
C1299 C1298 1.388 . S
C1299 C1300 1.390 . S
C1300 C1299 1.390 . S
C1300 C1301 1.394 . S
C1300 C1306 1.465 . S
C1301 C1296 1.399 . S
C1301 C1300 1.394 . S
C1301 C1302 1.516 . S
C1302 C1301 1.516 . S
C1302 C1303 1.502 . S
C1302 C1304 1.561 . S
C1302 C1305 1.526 . S
C1303 H1287 0.959 . S
C1303 H1288 0.959 . S
C1303 H1289 0.961 . S
C1303 C1302 1.502 . S
C1304 H1290 0.960 . S
C1304 H1291 0.961 . S
C1304 H1292 0.959 . S
C1304 C1302 1.561 . S
C1305 C1302 1.526 . S
C1305 C1306 1.396 . S
C1305 C1310 1.390 . S
C1306 C1300 1.465 . S
C1306 C1305 1.396 . S
C1306 C1307 1.399 . S
C1307 H1293 0.929 . S
C1307 C1306 1.399 . S
C1307 C1308 1.385 . S
C1308 H1294 0.931 . S
C1308 C1307 1.385 . S
C1308 C1309 1.389 . S
C1309 C1308 1.389 . S
C1309 C1310 1.387 . S
C1310 H1295 0.930 . S
C1310 C1305 1.390 . S
C1310 C1309 1.387 . S
H1311 C1323 0.930 . S
H1312 C1325 0.930 . S
H1313 C1326 0.930 . S
H1314 C1330 0.959 . S
H1315 C1330 0.959 . S
H1316 C1330 0.961 . S
H1317 C1331 0.960 . S
H1318 C1331 0.961 . S
H1319 C1331 0.959 . S
H1320 C1334 0.929 . S
H1321 C1335 0.931 . S
H1322 C1337 0.930 . S
C1323 H1311 0.930 . S
C1323 C1324 1.399 . S
C1323 C1328 1.399 . S
C1324 C1323 1.399 . S
C1324 C1325 1.376 . S
C1325 H1312 0.930 . S
C1325 C1324 1.376 . S
C1325 C1326 1.388 . S
C1326 H1313 0.930 . S
C1326 C1325 1.388 . S
C1326 C1327 1.390 . S
C1327 C1326 1.390 . S
C1327 C1328 1.394 . S
C1327 C1333 1.465 1_545 S
C1328 C1323 1.399 . S
C1328 C1327 1.394 . S
C1328 C1329 1.516 1_545 S
C1329 C1328 1.516 1_565 S
C1329 C1330 1.502 . S
C1329 C1331 1.561 1_565 S
C1329 C1332 1.526 . S
C1330 H1314 0.959 . S
C1330 H1315 0.959 . S
C1330 H1316 0.961 . S
C1330 C1329 1.502 . S
C1331 H1317 0.960 . S
C1331 H1318 0.961 . S
C1331 H1319 0.959 . S
C1331 C1329 1.561 1_545 S
C1332 C1329 1.526 . S
C1332 C1333 1.396 . S
C1332 C1337 1.390 . S
C1333 C1327 1.465 1_565 S
C1333 C1332 1.396 . S
C1333 C1334 1.399 . S
C1334 H1320 0.929 . S
C1334 C1333 1.399 . S
C1334 C1335 1.385 . S
C1335 H1321 0.931 . S
C1335 C1334 1.385 . S
C1335 C1336 1.389 . S
C1336 C1335 1.389 . S
C1336 C1337 1.387 . S
C1337 H1322 0.930 . S
C1337 C1332 1.390 . S
C1337 C1336 1.387 . S
H1338 C1350 0.930 . S
H1339 C1352 0.930 . S
H1340 C1353 0.930 . S
H1341 C1357 0.959 . S
H1342 C1357 0.959 . S
H1343 C1357 0.961 . S
H1344 C1358 0.960 . S
H1345 C1358 0.961 . S
H1346 C1358 0.959 . S
H1347 C1361 0.929 . S
H1348 C1362 0.931 . S
H1349 C1364 0.930 . S
C1350 H1338 0.930 . S
C1350 C1351 1.399 . S
C1350 C1355 1.399 . S
C1351 C1350 1.399 . S
C1351 C1352 1.376 . S
C1352 H1339 0.930 . S
C1352 C1351 1.376 . S
C1352 C1353 1.388 . S
C1353 H1340 0.930 . S
C1353 C1352 1.388 . S
C1353 C1354 1.390 . S
C1354 C1353 1.390 . S
C1354 C1355 1.394 . S
C1354 C1360 1.465 . S
C1355 C1350 1.399 . S
C1355 C1354 1.394 . S
C1355 C1356 1.516 . S
C1356 C1355 1.516 . S
C1356 C1357 1.502 . S
C1356 C1358 1.561 . S
C1356 C1359 1.526 . S
C1357 H1341 0.959 . S
C1357 H1342 0.959 . S
C1357 H1343 0.961 . S
C1357 C1356 1.502 . S
C1358 H1344 0.960 . S
C1358 H1345 0.961 . S
C1358 H1346 0.959 . S
C1358 C1356 1.561 . S
C1359 C1356 1.526 . S
C1359 C1360 1.396 . S
C1359 C1364 1.390 . S
C1360 C1354 1.465 . S
C1360 C1359 1.396 . S
C1360 C1361 1.399 . S
C1361 H1347 0.929 . S
C1361 C1360 1.399 . S
C1361 C1362 1.385 . S
C1362 H1348 0.931 . S
C1362 C1361 1.385 . S
C1362 C1363 1.389 . S
C1363 C1362 1.389 . S
C1363 C1364 1.387 . S
C1364 H1349 0.930 . S
C1364 C1359 1.390 . S
C1364 C1363 1.387 . S
H1365 C1377 0.930 . S
H1366 C1379 0.930 . S
H1367 C1380 0.930 1_565 S
H1368 C1384 0.959 . S
H1369 C1384 0.959 . S
H1370 C1384 0.961 . S
H1371 C1385 0.960 1_545 S
H1372 C1385 0.961 . S
H1373 C1385 0.959 . S
H1374 C1388 0.929 . S
H1375 C1389 0.931 . S
H1376 C1391 0.930 . S
C1377 H1365 0.930 . S
C1377 C1378 1.399 . S
C1377 C1382 1.399 . S
C1378 C1377 1.399 . S
C1378 C1379 1.376 . S
C1379 H1366 0.930 . S
C1379 C1378 1.376 . S
C1379 C1380 1.388 . S
C1380 H1367 0.930 1_545 S
C1380 C1379 1.388 . S
C1380 C1381 1.390 . S
C1381 C1380 1.390 . S
C1381 C1382 1.394 . S
C1381 C1387 1.465 1_545 S
C1382 C1377 1.399 . S
C1382 C1381 1.394 . S
C1382 C1383 1.516 . S
C1383 C1382 1.516 . S
C1383 C1384 1.502 . S
C1383 C1385 1.561 1_545 S
C1383 C1386 1.526 1_545 S
C1384 H1368 0.959 . S
C1384 H1369 0.959 . S
C1384 H1370 0.961 . S
C1384 C1383 1.502 . S
C1385 H1371 0.960 1_565 S
C1385 H1372 0.961 . S
C1385 H1373 0.959 . S
C1385 C1383 1.561 1_565 S
C1386 C1383 1.526 1_565 S
C1386 C1387 1.396 . S
C1386 C1391 1.390 . S
C1387 C1381 1.465 1_565 S
C1387 C1386 1.396 . S
C1387 C1388 1.399 . S
C1388 H1374 0.929 . S
C1388 C1387 1.399 . S
C1388 C1389 1.385 . S
C1389 H1375 0.931 . S
C1389 C1388 1.385 . S
C1389 C1390 1.389 . S
C1390 C1389 1.389 . S
C1390 C1391 1.387 . S
C1391 H1376 0.930 . S
C1391 C1386 1.390 . S
C1391 C1390 1.387 . S
H1392 C1404 0.930 . S
H1393 C1406 0.930 . S
H1394 C1407 0.930 . S
H1395 C1411 0.959 . S
H1396 C1411 0.959 . S
H1397 C1411 0.961 . S
H1398 C1412 0.960 . S
H1399 C1412 0.961 . S
H1400 C1412 0.959 . S
H1401 C1415 0.929 . S
H1402 C1416 0.931 . S
H1403 C1418 0.930 . S
C1404 H1392 0.930 . S
C1404 C1405 1.399 . S
C1404 C1409 1.399 . S
C1405 C1404 1.399 . S
C1405 C1406 1.376 . S
C1406 H1393 0.930 . S
C1406 C1405 1.376 . S
C1406 C1407 1.388 . S
C1407 H1394 0.930 . S
C1407 C1406 1.388 . S
C1407 C1408 1.390 . S
C1408 C1407 1.390 . S
C1408 C1409 1.394 . S
C1408 C1414 1.465 . S
C1409 C1404 1.399 . S
C1409 C1408 1.394 . S
C1409 C1410 1.516 . S
C1410 C1409 1.516 . S
C1410 C1411 1.502 . S
C1410 C1412 1.561 . S
C1410 C1413 1.526 . S
C1411 H1395 0.959 . S
C1411 H1396 0.959 . S
C1411 H1397 0.961 . S
C1411 C1410 1.502 . S
C1412 H1398 0.960 . S
C1412 H1399 0.961 . S
C1412 H1400 0.959 . S
C1412 C1410 1.561 . S
C1413 C1410 1.526 . S
C1413 C1414 1.396 . S
C1413 C1418 1.390 . S
C1414 C1408 1.465 . S
C1414 C1413 1.396 . S
C1414 C1415 1.399 . S
C1415 H1401 0.929 . S
C1415 C1414 1.399 . S
C1415 C1416 1.385 . S
C1416 H1402 0.931 . S
C1416 C1415 1.385 . S
C1416 C1417 1.389 . S
C1417 C1416 1.389 . S
C1417 C1418 1.387 . S
C1418 H1403 0.930 . S
C1418 C1413 1.390 . S
C1418 C1417 1.387 . S
H1419 C1431 0.930 . S
H1420 C1433 0.930 . S
H1421 C1434 0.930 . S
H1422 C1438 0.959 . S
H1423 C1438 0.959 . S
H1424 C1438 0.961 . S
H1425 C1439 0.960 . S
H1426 C1439 0.961 . S
H1427 C1439 0.959 . S
H1428 C1442 0.929 . S
H1429 C1443 0.931 . S
H1430 C1445 0.930 . S
C1431 H1419 0.930 . S
C1431 C1432 1.399 . S
C1431 C1436 1.399 . S
C1432 C1431 1.399 . S
C1432 C1433 1.376 . S
C1433 H1420 0.930 . S
C1433 C1432 1.376 . S
C1433 C1434 1.388 . S
C1434 H1421 0.930 . S
C1434 C1433 1.388 . S
C1434 C1435 1.390 . S
C1435 C1434 1.390 . S
C1435 C1436 1.394 . S
C1435 C1441 1.465 . S
C1436 C1431 1.399 . S
C1436 C1435 1.394 . S
C1436 C1437 1.516 . S
C1437 C1436 1.516 . S
C1437 C1438 1.502 . S
C1437 C1439 1.561 . S
C1437 C1440 1.526 . S
C1438 H1422 0.959 . S
C1438 H1423 0.959 . S
C1438 H1424 0.961 . S
C1438 C1437 1.502 . S
C1439 H1425 0.960 . S
C1439 H1426 0.961 . S
C1439 H1427 0.959 . S
C1439 C1437 1.561 . S
C1440 C1437 1.526 . S
C1440 C1441 1.396 . S
C1440 C1445 1.390 . S
C1441 C1435 1.465 . S
C1441 C1440 1.396 . S
C1441 C1442 1.399 . S
C1442 H1428 0.929 . S
C1442 C1441 1.399 . S
C1442 C1443 1.385 . S
C1443 H1429 0.931 . S
C1443 C1442 1.385 . S
C1443 C1444 1.389 . S
C1444 C1443 1.389 . S
C1444 C1445 1.387 . S
C1445 H1430 0.930 . S
C1445 C1440 1.390 . S
C1445 C1444 1.387 . S
H1446 C1458 0.930 . S
H1447 C1460 0.930 . S
H1448 C1461 0.930 . S
H1449 C1465 0.959 . S
H1450 C1465 0.959 . S
H1451 C1465 0.961 . S
H1452 C1466 0.960 . S
H1453 C1466 0.961 . S
H1454 C1466 0.959 . S
H1455 C1469 0.929 . S
H1456 C1470 0.931 . S
H1457 C1472 0.930 . S
C1458 H1446 0.930 . S
C1458 C1459 1.399 . S
C1458 C1463 1.399 . S
C1459 C1458 1.399 . S
C1459 C1460 1.376 . S
C1460 H1447 0.930 . S
C1460 C1459 1.376 . S
C1460 C1461 1.388 . S
C1461 H1448 0.930 . S
C1461 C1460 1.388 . S
C1461 C1462 1.390 . S
C1462 C1461 1.390 . S
C1462 C1463 1.394 . S
C1462 C1468 1.465 . S
C1463 C1458 1.399 . S
C1463 C1462 1.394 . S
C1463 C1464 1.516 . S
C1464 C1463 1.516 . S
C1464 C1465 1.502 . S
C1464 C1466 1.561 . S
C1464 C1467 1.526 . S
C1465 H1449 0.959 . S
C1465 H1450 0.959 . S
C1465 H1451 0.961 . S
C1465 C1464 1.502 . S
C1466 H1452 0.960 . S
C1466 H1453 0.961 . S
C1466 H1454 0.959 . S
C1466 C1464 1.561 . S
C1467 C1464 1.526 . S
C1467 C1468 1.396 . S
C1467 C1472 1.390 . S
C1468 C1462 1.465 . S
C1468 C1467 1.396 . S
C1468 C1469 1.399 . S
C1469 H1455 0.929 . S
C1469 C1468 1.399 . S
C1469 C1470 1.385 . S
C1470 H1456 0.931 . S
C1470 C1469 1.385 . S
C1470 C1471 1.389 . S
C1471 C1470 1.389 . S
C1471 C1472 1.387 . S
C1472 H1457 0.930 . S
C1472 C1467 1.390 . S
C1472 C1471 1.387 . S
H1473 C1485 0.930 . S
H1474 C1487 0.930 . S
H1475 C1488 0.930 . S
H1476 C1492 0.959 . S
H1477 C1492 0.959 . S
H1478 C1492 0.961 . S
H1479 C1493 0.960 . S
H1480 C1493 0.961 . S
H1481 C1493 0.959 . S
H1482 C1496 0.929 . S
H1483 C1497 0.931 . S
H1484 C1499 0.930 . S
C1485 H1473 0.930 . S
C1485 C1486 1.399 . S
C1485 C1490 1.399 . S
C1486 C1485 1.399 . S
C1486 C1487 1.376 . S
C1487 H1474 0.930 . S
C1487 C1486 1.376 . S
C1487 C1488 1.388 . S
C1488 H1475 0.930 . S
C1488 C1487 1.388 . S
C1488 C1489 1.390 . S
C1489 C1488 1.390 . S
C1489 C1490 1.394 . S
C1489 C1495 1.465 . S
C1490 C1485 1.399 . S
C1490 C1489 1.394 . S
C1490 C1491 1.516 . S
C1491 C1490 1.516 . S
C1491 C1492 1.502 . S
C1491 C1493 1.561 . S
C1491 C1494 1.526 . S
C1492 H1476 0.959 . S
C1492 H1477 0.959 . S
C1492 H1478 0.961 . S
C1492 C1491 1.502 . S
C1493 H1479 0.960 . S
C1493 H1480 0.961 . S
C1493 H1481 0.959 . S
C1493 C1491 1.561 . S
C1494 C1491 1.526 . S
C1494 C1495 1.396 . S
C1494 C1499 1.390 . S
C1495 C1489 1.465 . S
C1495 C1494 1.396 . S
C1495 C1496 1.399 . S
C1496 H1482 0.929 . S
C1496 C1495 1.399 . S
C1496 C1497 1.385 . S
C1497 H1483 0.931 . S
C1497 C1496 1.385 . S
C1497 C1498 1.389 . S
C1498 C1497 1.389 . S
C1498 C1499 1.387 . S
C1499 H1484 0.930 . S
C1499 C1494 1.390 . S
C1499 C1498 1.387 . S
H1500 C1512 0.930 . S
H1501 C1514 0.930 . S
H1502 C1515 0.930 . S
H1503 C1519 0.959 . S
H1504 C1519 0.959 1_455 S
H1505 C1519 0.961 . S
H1506 C1520 0.960 1_655 S
H1507 C1520 0.961 . S
H1508 C1520 0.959 . S
H1509 C1523 0.929 . S
H1510 C1524 0.931 . S
H1511 C1526 0.930 . S
C1512 H1500 0.930 . S
C1512 C1513 1.399 . S
C1512 C1517 1.399 . S
C1513 C1512 1.399 . S
C1513 C1514 1.376 . S
C1514 H1501 0.930 . S
C1514 C1513 1.376 . S
C1514 C1515 1.388 . S
C1515 H1502 0.930 . S
C1515 C1514 1.388 . S
C1515 C1516 1.390 . S
C1516 C1515 1.390 . S
C1516 C1517 1.394 . S
C1516 C1522 1.465 1_655 S
C1517 C1512 1.399 . S
C1517 C1516 1.394 . S
C1517 C1518 1.515 . S
C1518 C1517 1.515 . S
C1518 C1519 1.501 . S
C1518 C1520 1.562 1_655 S
C1518 C1521 1.527 1_655 S
C1519 H1503 0.959 . S
C1519 H1504 0.959 1_655 S
C1519 H1505 0.961 . S
C1519 C1518 1.501 . S
C1520 H1506 0.960 1_455 S
C1520 H1507 0.961 . S
C1520 H1508 0.959 . S
C1520 C1518 1.562 1_455 S
C1521 C1518 1.527 1_455 S
C1521 C1522 1.396 . S
C1521 C1526 1.390 . S
C1522 C1516 1.465 1_455 S
C1522 C1521 1.396 . S
C1522 C1523 1.399 . S
C1523 H1509 0.929 . S
C1523 C1522 1.399 . S
C1523 C1524 1.385 . S
C1524 H1510 0.931 . S
C1524 C1523 1.385 . S
C1524 C1525 1.389 . S
C1525 C1524 1.389 . S
C1525 C1526 1.387 . S
C1526 H1511 0.930 . S
C1526 C1521 1.390 . S
C1526 C1525 1.387 . S
H1527 C1539 0.930 . S
H1528 C1541 0.930 . S
H1529 C1542 0.930 . S
H1530 C1546 0.959 . S
H1531 C1546 0.959 . S
H1532 C1546 0.961 . S
H1533 C1547 0.960 1_455 S
H1534 C1547 0.961 . S
H1535 C1547 0.959 1_455 S
H1536 C1550 0.929 . S
H1537 C1551 0.931 . S
H1538 C1553 0.930 . S
C1539 H1527 0.930 . S
C1539 C1540 1.399 . S
C1539 C1544 1.399 . S
C1540 C1539 1.399 . S
C1540 C1541 1.376 . S
C1541 H1528 0.930 . S
C1541 C1540 1.376 . S
C1541 C1542 1.388 . S
C1542 H1529 0.930 . S
C1542 C1541 1.388 . S
C1542 C1543 1.390 . S
C1543 C1542 1.390 . S
C1543 C1544 1.394 . S
C1543 C1549 1.465 1_455 S
C1544 C1539 1.399 . S
C1544 C1543 1.394 . S
C1544 C1545 1.516 1_455 S
C1545 C1544 1.516 1_655 S
C1545 C1546 1.502 . S
C1545 C1547 1.561 . S
C1545 C1548 1.526 . S
C1546 H1530 0.959 . S
C1546 H1531 0.959 . S
C1546 H1532 0.961 . S
C1546 C1545 1.502 . S
C1547 H1533 0.960 1_655 S
C1547 H1534 0.961 . S
C1547 H1535 0.959 1_655 S
C1547 C1545 1.561 . S
C1548 C1545 1.526 . S
C1548 C1549 1.396 . S
C1548 C1553 1.390 . S
C1549 C1543 1.465 1_655 S
C1549 C1548 1.396 . S
C1549 C1550 1.399 . S
C1550 H1536 0.929 . S
C1550 C1549 1.399 . S
C1550 C1551 1.385 . S
C1551 H1537 0.931 . S
C1551 C1550 1.385 . S
C1551 C1552 1.389 . S
C1552 C1551 1.389 . S
C1552 C1553 1.387 . S
C1553 H1538 0.930 . S
C1553 C1548 1.390 . S
C1553 C1552 1.387 . S
H1554 C1566 0.930 . S
H1555 C1568 0.930 . S
H1556 C1569 0.930 . S
H1557 C1573 0.959 . S
H1558 C1573 0.959 . S
H1559 C1573 0.961 . S
H1560 C1574 0.960 1_455 S
H1561 C1574 0.961 . S
H1562 C1574 0.959 . S
H1563 C1577 0.929 . S
H1564 C1578 0.931 . S
H1565 C1580 0.930 . S
C1566 H1554 0.930 . S
C1566 C1567 1.399 . S
C1566 C1571 1.399 . S
C1567 C1566 1.399 . S
C1567 C1568 1.376 . S
C1568 H1555 0.930 . S
C1568 C1567 1.376 . S
C1568 C1569 1.388 . S
C1569 H1556 0.930 . S
C1569 C1568 1.388 . S
C1569 C1570 1.390 . S
C1570 C1569 1.390 . S
C1570 C1571 1.394 . S
C1570 C1576 1.465 1_455 S
C1571 C1566 1.399 . S
C1571 C1570 1.394 . S
C1571 C1572 1.516 1_455 S
C1572 C1571 1.516 1_655 S
C1572 C1573 1.502 . S
C1572 C1574 1.561 . S
C1572 C1575 1.526 . S
C1573 H1557 0.959 . S
C1573 H1558 0.959 . S
C1573 H1559 0.961 . S
C1573 C1572 1.502 . S
C1574 H1560 0.960 1_655 S
C1574 H1561 0.961 . S
C1574 H1562 0.959 . S
C1574 C1572 1.561 . S
C1575 C1572 1.526 . S
C1575 C1576 1.396 . S
C1575 C1580 1.390 . S
C1576 C1570 1.465 1_655 S
C1576 C1575 1.396 . S
C1576 C1577 1.399 . S
C1577 H1563 0.929 . S
C1577 C1576 1.399 . S
C1577 C1578 1.385 . S
C1578 H1564 0.931 . S
C1578 C1577 1.385 . S
C1578 C1579 1.389 . S
C1579 C1578 1.389 . S
C1579 C1580 1.387 . S
C1580 H1565 0.930 . S
C1580 C1575 1.390 . S
C1580 C1579 1.387 . S
H1581 C1593 0.930 . S
H1582 C1595 0.930 . S
H1583 C1596 0.930 . S
H1584 C1600 0.959 . S
H1585 C1600 0.959 . S
H1586 C1600 0.961 . S
H1587 C1601 0.960 . S
H1588 C1601 0.961 1_455 S
H1589 C1601 0.939 1_455 S
H1590 C1604 0.929 . S
H1591 C1605 0.931 . S
H1592 C1607 0.930 . S
C1593 H1581 0.930 . S
C1593 C1594 1.399 . S
C1593 C1598 1.399 . S
C1594 C1593 1.399 . S
C1594 C1595 1.376 . S
C1595 H1582 0.930 . S
C1595 C1594 1.376 . S
C1595 C1596 1.388 . S
C1596 H1583 0.930 . S
C1596 C1595 1.388 . S
C1596 C1597 1.390 . S
C1597 C1596 1.390 . S
C1597 C1598 1.394 . S
C1597 C1603 1.465 1_655 S
C1598 C1593 1.399 . S
C1598 C1597 1.394 . S
C1598 C1599 1.516 . S
C1599 C1598 1.516 . S
C1599 C1600 1.502 . S
C1599 C1601 1.561 . S
C1599 C1602 1.526 1_655 S
C1600 H1584 0.959 . S
C1600 H1585 0.959 . S
C1600 H1586 0.961 . S
C1600 C1599 1.502 . S
C1601 H1587 0.960 . S
C1601 H1588 0.961 1_655 S
C1601 H1589 0.939 1_655 S
C1601 C1599 1.561 . S
C1602 C1599 1.526 1_455 S
C1602 C1603 1.396 . S
C1602 C1607 1.390 . S
C1603 C1597 1.465 1_455 S
C1603 C1602 1.396 . S
C1603 C1604 1.399 . S
C1604 H1590 0.929 . S
C1604 C1603 1.399 . S
C1604 C1605 1.385 . S
C1605 H1591 0.931 . S
C1605 C1604 1.385 . S
C1605 C1606 1.389 . S
C1606 C1605 1.389 . S
C1606 C1607 1.387 . S
C1607 H1592 0.930 . S
C1607 C1602 1.390 . S
C1607 C1606 1.387 . S
C541 C28 0.726 . S
C553 C470 0.723 . S
C568 C61 0.759 . S
C580 C503 0.764 . S
C595 C94 0.725 . S
C607 C404 0.719 . S
C622 C437 0.733 . S
C634 C127 0.743 . S
C649 C160 0.732 . S
C661 C338 0.734 . S
C676 C193 0.733 . S
C688 C371 0.735 . S
C703 C226 0.736 . S
C715 C272 0.740 . S
C730 C305 0.712 . S
C742 C259 0.726 . S
C757 C292 0.761 . S
C769 C206 0.771 . S
C784 C239 0.765 . S
C796 C325 0.751 . S
C811 C358 0.725 . S
C823 C140 0.718 . S
C838 C391 0.761 . S
C850 C173 0.769 . S
C865 C424 0.757 . S
C877 C74 0.770 . S
C892 C457 0.748 . S
C904 C107 0.743 . S
C919 C8 0.756 . S
C931 C490 0.745 . S
C946 C41 0.712 . S
C958 C523 0.726 . S
C973 N14 1.849 . S
C985 N377 1.860 . S
C1000 N344 1.815 . S
C1012 N47 1.804 . S
C1027 N80 1.813 . S
C1039 N311 1.803 . S
C1054 N278 1.817 . S
C1066 N113 1.805 . S
C1081 N146 1.863 . S
C1093 N509 1.863 . S
C1108 N476 1.810 . S
C1120 N179 1.810 . S
C1135 N212 1.859 . S
C1147 N443 1.859 . S
C1162 N245 1.855 . S
C1174 N410 1.856 . S
C1189 N5 1.901 . S
C1201 N71 1.901 . S
C1216 N38 1.896 . S
C1228 N104 1.884 . S
C1243 N137 1.898 . S
C1255 N203 1.899 . S
C1270 N236 1.889 . S
C1282 N170 1.891 . S
C1297 N335 1.902 . S
C1309 N269 1.895 . S
C1324 N368 1.871 . S
C1336 N302 1.866 . S
C1351 N401 1.873 . S
C1363 N467 1.872 . S
C1378 N434 1.871 . S
C1390 N500 1.873 . S
C1405 C50 1.527 . S
C1417 C17 1.539 . S
C1432 C83 1.525 . S
C1444 C116 1.547 . S
C1459 C149 1.560 . S
C1471 C182 1.526 . S
C1486 C248 1.547 . S
C1498 C215 1.567 . S
C1513 C281 1.569 . S
C1525 C314 1.557 . S
C1540 C380 1.526 . S
C1552 C347 1.557 . S
C1567 C413 1.532 . S
C1579 C446 1.571 . S
C1594 C512 1.565 . S
C1606 C479 1.526 . S
