# Generated by pormake.
# Topology wke, (5)-cn, num edge types: 1
# Building blocks:
#     Node 0, Type 0, BuildingBlock: BEQFEK_clean_sbu_0, # of connection points: 5
#     Node 1, Type 0, BuildingBlock: BEQFEK_clean_sbu_0, # of connection points: 5
#     Node 2, Type 0, BuildingBlock: BEQFEK_clean_sbu_0, # of connection points: 5
#     Node 3, Type 0, BuildingBlock: BEQFEK_clean_sbu_0, # of connection points: 5
#     Node 4, Type 0, BuildingBlock: BEQFEK_clean_sbu_0, # of connection points: 5
#     Node 5, Type 0, BuildingBlock: BEQFEK_clean_sbu_0, # of connection points: 5
#     Node 6, Type 0, BuildingBlock: BEQFEK_clean_sbu_0, # of connection points: 5
#     Node 7, Type 0, BuildingBlock: BEQFEK_clean_sbu_0, # of connection points: 5
#     Node 8, Type 0, BuildingBlock: BEQFEK_clean_sbu_0, # of connection points: 5
#     Node 9, Type 0, BuildingBlock: BEQFEK_clean_sbu_0, # of connection points: 5
#     Node 10, Type 0, BuildingBlock: BEQFEK_clean_sbu_0, # of connection points: 5
#     Node 11, Type 0, BuildingBlock: BEQFEK_clean_sbu_0, # of connection points: 5
#     Edge 12, Type (0, 0), BuildingBlock: ZUJKAS_clean_linker_0, # of connection points: 2
#     Edge 13, Type (0, 0), BuildingBlock: ZUJKAS_clean_linker_0, # of connection points: 2
#     Edge 14, Type (0, 0), BuildingBlock: ZUJKAS_clean_linker_0, # of connection points: 2
#     Edge 15, Type (0, 0), BuildingBlock: ZUJKAS_clean_linker_0, # of connection points: 2
#     Edge 16, Type (0, 0), BuildingBlock: ZUJKAS_clean_linker_0, # of connection points: 2
#     Edge 17, Type (0, 0), BuildingBlock: ZUJKAS_clean_linker_0, # of connection points: 2
#     Edge 18, Type (0, 0), BuildingBlock: ZUJKAS_clean_linker_0, # of connection points: 2
#     Edge 19, Type (0, 0), BuildingBlock: ZUJKAS_clean_linker_0, # of connection points: 2
#     Edge 20, Type (0, 0), BuildingBlock: ZUJKAS_clean_linker_0, # of connection points: 2
#     Edge 21, Type (0, 0), BuildingBlock: ZUJKAS_clean_linker_0, # of connection points: 2
#     Edge 22, Type (0, 0), BuildingBlock: ZUJKAS_clean_linker_0, # of connection points: 2
#     Edge 23, Type (0, 0), BuildingBlock: ZUJKAS_clean_linker_0, # of connection points: 2
#     Edge 24, Type (0, 0), BuildingBlock: ZUJKAS_clean_linker_0, # of connection points: 2
#     Edge 25, Type (0, 0), BuildingBlock: ZUJKAS_clean_linker_0, # of connection points: 2
#     Edge 26, Type (0, 0), BuildingBlock: ZUJKAS_clean_linker_0, # of connection points: 2
#     Edge 27, Type (0, 0), BuildingBlock: ZUJKAS_clean_linker_0, # of connection points: 2
#     Edge 28, Type (0, 0), BuildingBlock: ZUJKAS_clean_linker_0, # of connection points: 2
#     Edge 29, Type (0, 0), BuildingBlock: ZUJKAS_clean_linker_0, # of connection points: 2
#     Edge 30, Type (0, 0), BuildingBlock: ZUJKAS_clean_linker_0, # of connection points: 2
#     Edge 31, Type (0, 0), BuildingBlock: ZUJKAS_clean_linker_0, # of connection points: 2
#     Edge 32, Type (0, 0), BuildingBlock: ZUJKAS_clean_linker_0, # of connection points: 2
#     Edge 33, Type (0, 0), BuildingBlock: ZUJKAS_clean_linker_0, # of connection points: 2
#     Edge 34, Type (0, 0), BuildingBlock: ZUJKAS_clean_linker_0, # of connection points: 2
#     Edge 35, Type (0, 0), BuildingBlock: ZUJKAS_clean_linker_0, # of connection points: 2
#     Edge 36, Type (0, 0), BuildingBlock: ZUJKAS_clean_linker_0, # of connection points: 2
#     Edge 37, Type (0, 0), BuildingBlock: ZUJKAS_clean_linker_0, # of connection points: 2
#     Edge 38, Type (0, 0), BuildingBlock: ZUJKAS_clean_linker_0, # of connection points: 2
#     Edge 39, Type (0, 0), BuildingBlock: ZUJKAS_clean_linker_0, # of connection points: 2
#     Edge 40, Type (0, 0), BuildingBlock: ZUJKAS_clean_linker_0, # of connection points: 2
#     Edge 41, Type (0, 0), BuildingBlock: ZUJKAS_clean_linker_0, # of connection points: 2
# Relax obj value: 0.203
# Max RMSD: 0.170
# Mean RMSD: 0.170
data_MOF--net-wke--node1-BEQFEK_clean_sbu_0--edge1-ZUJKAS_clean_linker_0
_symmetry_space_group_name_H-M    P1
_symmetry_Int_Tables_number       1
_symmetry_cell_setting            triclinic
loop_
_symmetry_equiv_pos_as_xyz
'x, y, z'
_cell_length_a     92.807497
_cell_length_b     92.76198
_cell_length_c     22.988071
_cell_angle_alpha  90.012576
_cell_angle_beta   89.952214
_cell_angle_gamma 119.99098
loop_
_atom_site_label
_atom_site_type_symbol
_atom_site_fract_x
_atom_site_fract_y
_atom_site_fract_z
_atom_type_partial_charge
Co0 Co 0.10618 0.4461 0.2779 0.0
Co1 Co 0.12021 0.46105 0.39896 0.0
C2 C 0.08435 0.43386 0.38071 0.0
O3 O 0.08628 0.43272 0.32646 0.0
O4 O 0.09635 0.44427 0.4121 0.0
C5 C 0.09095 0.43812 0.16671 0.0
O6 O 0.08197 0.44421 0.18819 0.0
C7 C 0.12554 0.45714 0.51889 0.0
C8 C 0.14084 0.48288 0.55095 0.0
C9 C 0.13226 0.4664 0.56884 0.0
N10 N 0.12963 0.46759 0.47377 0.0
N11 N 0.13899 0.48298 0.4928 0.0
C12 C 0.11566 0.43858 0.51337 0.0
H13 H 0.11742 0.43468 0.46952 0.0
H14 H 0.11939 0.43257 0.54731 0.0
H15 H 0.10227 0.43431 0.51887 0.0
C16 C 0.13543 0.44126 0.2789 0.0
N17 N 0.12518 0.44559 0.30521 0.0
N18 N 0.13138 0.4522 0.35612 0.0
C19 C 0.14588 0.45243 0.36386 0.0
C20 C 0.14893 0.44544 0.31519 0.0
C21 C 0.13329 0.43518 0.21745 0.0
H22 H 0.13292 0.4445 0.18819 0.0
H23 H 0.12123 0.42342 0.21337 0.0
H24 H 0.1435 0.43307 0.20324 0.0
O25 O 0.11078 0.46947 0.27284 0.0
O26 O 0.12176 0.48057 0.35846 0.0
H27 H 0.16018 0.47296 0.4208 0.0
H28 H 0.16829 0.45887 0.41292 0.0
C29 C 0.15683 0.45974 0.41599 0.0
H30 H 0.1499 0.45299 0.45552 0.0
H31 H 0.14348 0.49356 0.46662 0.0
O32 O 0.10154 0.4372 0.19893 0.0
C33 C 0.11713 0.48185 0.30753 0.0
Co34 Co 0.66068 0.10815 0.77604 0.0
Co35 Co 0.65835 0.11928 0.90121 0.0
C36 C 0.65047 0.08406 0.87093 0.0
O37 O 0.65468 0.08718 0.81774 0.0
O38 O 0.65103 0.0952 0.90465 0.0
C39 C 0.66585 0.09445 0.66882 0.0
O40 O 0.66236 0.08094 0.69817 0.0
C41 C 0.66806 0.12114 0.01995 0.0
C42 C 0.65732 0.1348 0.06374 0.0
C43 C 0.66581 0.12627 0.07406 0.0
N44 N 0.66098 0.12608 0.97982 0.0
N45 N 0.65469 0.13439 0.00593 0.0
C46 C 0.67709 0.11199 0.00552 0.0
H47 H 0.68245 0.11532 0.9611 0.0
H48 H 0.68713 0.11489 0.03753 0.0
H49 H 0.66819 0.0984 0.00629 0.0
C50 C 0.69469 0.13717 0.78551 0.0
N51 N 0.67975 0.12647 0.80857 0.0
N52 N 0.67866 0.13166 0.86066 0.0
C53 C 0.69277 0.14605 0.87215 0.0
C54 C 0.70343 0.15006 0.8247 0.0
C55 C 0.70042 0.13504 0.72691 0.0
H56 H 0.69687 0.12182 0.72044 0.0
H57 H 0.7141 0.14291 0.72213 0.0
H58 H 0.69423 0.1385 0.69287 0.0
O59 O 0.64153 0.11241 0.77597 0.0
O60 O 0.64065 0.12179 0.86407 0.0
H61 H 0.68341 0.15625 0.93556 0.0
H62 H 0.70516 0.16958 0.91809 0.0
C63 C 0.69518 0.1565 0.92482 0.0
H64 H 0.69855 0.15123 0.96226 0.0
H65 H 0.64817 0.1393 0.98462 0.0
O66 O 0.66546 0.10642 0.69404 0.0
C67 C 0.63509 0.11796 0.81237 0.0
Co68 Co 0.55434 0.66014 0.28746 0.0
Co69 Co 0.54018 0.659 0.41036 0.0
C70 C 0.56792 0.65132 0.38835 0.0
O71 O 0.56843 0.65406 0.33397 0.0
O72 O 0.55765 0.65279 0.42104 0.0
C73 C 0.56476 0.65417 0.17777 0.0
O74 O 0.56191 0.64013 0.20172 0.0
C75 C 0.54503 0.66887 0.52979 0.0
C76 C 0.51962 0.65608 0.56627 0.0
C77 C 0.53628 0.66538 0.58155 0.0
N78 N 0.53414 0.66167 0.48631 0.0
N79 N 0.51892 0.65427 0.50801 0.0
C80 C 0.56347 0.67892 0.521 0.0
H81 H 0.56631 0.68502 0.47769 0.0
H82 H 0.56935 0.68845 0.55568 0.0
H83 H 0.56884 0.67062 0.52229 0.0
C84 C 0.55905 0.69417 0.2907 0.0
N85 N 0.5547 0.67947 0.31604 0.0
N86 N 0.54807 0.67885 0.36712 0.0
C87 C 0.54767 0.69303 0.37565 0.0
C88 C 0.55463 0.70326 0.32736 0.0
C89 C 0.56731 0.69935 0.23247 0.0
H90 H 0.57713 0.69589 0.22887 0.0
H91 H 0.57302 0.71296 0.22564 0.0
H92 H 0.55796 0.69266 0.19794 0.0
O93 O 0.53106 0.64103 0.28433 0.0
O94 O 0.52074 0.64044 0.37202 0.0
H95 H 0.5359 0.70556 0.41651 0.0
H96 H 0.54768 0.69988 0.46431 0.0
C97 C 0.53922 0.69587 0.42621 0.0
H98 H 0.52776 0.68412 0.43771 0.0
H99 H 0.50816 0.64724 0.48356 0.0
O100 O 0.56258 0.66444 0.20747 0.0
C101 C 0.5191 0.63462 0.32077 0.0
Co102 Co 0.89725 0.55498 0.77236 0.0
Co103 Co 0.8842 0.54284 0.89768 0.0
C104 C 0.91977 0.56938 0.87227 0.0
O105 O 0.91722 0.5703 0.8184 0.0
O106 O 0.90832 0.55893 0.90532 0.0
C107 C 0.90576 0.57534 0.66798 0.0
O108 O 0.90752 0.5875 0.70195 0.0
C109 C 0.88118 0.54895 0.01929 0.0
C110 C 0.86035 0.52505 0.05039 0.0
C111 C 0.87199 0.54096 0.06832 0.0
N112 N 0.8754 0.53826 0.97448 0.0
N113 N 0.86291 0.52398 0.99317 0.0
C114 C 0.89447 0.56682 0.01382 0.0
H115 H 0.89398 0.57161 0.97005 0.0
H116 H 0.89302 0.57457 0.04756 0.0
H117 H 0.90682 0.56784 0.01921 0.0
C118 C 0.8667 0.5582 0.76958 0.0
N119 N 0.87786 0.55536 0.79736 0.0
N120 N 0.87306 0.55127 0.85167 0.0
C121 C 0.85904 0.55193 0.86073 0.0
C122 C 0.85451 0.55629 0.80894 0.0
C123 C 0.86631 0.56028 0.7051 0.0
H124 H 0.8712 0.5531 0.68227 0.0
H125 H 0.87408 0.57365 0.69392 0.0
H126 H 0.85346 0.55593 0.6896 0.0
O127 O 0.89342 0.53193 0.77704 0.0
O128 O 0.88142 0.52206 0.86277 0.0
H129 H 0.84399 0.53484 0.92697 0.0
H130 H 0.84076 0.5524 0.91826 0.0
C131 C 0.85018 0.54838 0.91791 0.0
H132 H 0.85928 0.55506 0.95301 0.0
H133 H 0.8562 0.51351 0.96699 0.0
O134 O 0.90182 0.56127 0.68986 0.0
C135 C 0.88661 0.52008 0.81372 0.0
Co136 Co 0.34405 0.89546 0.27846 0.0
Co137 Co 0.34298 0.88265 0.40473 0.0
C138 C 0.35099 0.918 0.37815 0.0
O139 O 0.34866 0.9155 0.32364 0.0
O140 O 0.34951 0.90652 0.41222 0.0
C141 C 0.33467 0.90615 0.17253 0.0
O142 O 0.3268 0.91146 0.20601 0.0
C143 C 0.33123 0.87707 0.5246 0.0
C144 C 0.3435 0.86398 0.56142 0.0
C145 C 0.33391 0.87106 0.57633 0.0
N146 N 0.33898 0.87381 0.48151 0.0
N147 N 0.34601 0.86568 0.50356 0.0
C148 C 0.32296 0.88727 0.51689 0.0
H149 H 0.32351 0.89111 0.47095 0.0
H150 H 0.30967 0.87981 0.5293 0.0
H151 H 0.32893 0.89839 0.54552 0.0
C152 C 0.31032 0.86512 0.2762 0.0
N153 N 0.32437 0.87608 0.30406 0.0
N154 N 0.32386 0.87083 0.3576 0.0
C155 C 0.30946 0.85644 0.36567 0.0
C156 C 0.3004 0.85236 0.31436 0.0
C157 C 0.30659 0.86676 0.214 0.0
H158 H 0.31699 0.86827 0.18599 0.0
H159 H 0.30542 0.87801 0.20934 0.0
H160 H 0.29482 0.85587 0.19904 0.0
O161 O 0.36348 0.89205 0.28413 0.0
O162 O 0.36186 0.88105 0.37136 0.0
H163 H 0.31606 0.84471 0.43246 0.0
H164 H 0.29426 0.83351 0.41312 0.0
C165 C 0.30527 0.84604 0.41953 0.0
H166 H 0.30266 0.85241 0.4554 0.0
H167 H 0.3533 0.86213 0.47969 0.0
O168 O 0.34231 0.89939 0.19521 0.0
C169 C 0.36893 0.88596 0.32208 0.0
Co170 Co 0.44991 0.34228 0.77825 0.0
Co171 Co 0.46147 0.34327 0.9055 0.0
C172 C 0.43473 0.35162 0.87243 0.0
O173 O 0.43491 0.34852 0.8186 0.0
O174 O 0.44442 0.35018 0.90803 0.0
C175 C 0.43001 0.33406 0.67278 0.0
O176 O 0.41764 0.33237 0.70546 0.0
C177 C 0.45274 0.33263 0.02352 0.0
C178 C 0.47687 0.34273 0.06861 0.0
C179 C 0.4598 0.33422 0.07789 0.0
N180 N 0.46499 0.34004 0.98428 0.0
N181 N 0.47943 0.34599 0.0112 0.0
C182 C 0.43466 0.32348 0.00778 0.0
H183 H 0.43299 0.31914 0.962 0.0
H184 H 0.42759 0.31268 0.03717 0.0
H185 H 0.42955 0.33196 0.01187 0.0
C186 C 0.44496 0.30811 0.78539 0.0
N187 N 0.44876 0.32282 0.80968 0.0
N188 N 0.454 0.3233 0.86312 0.0
C189 C 0.45377 0.30894 0.87466 0.0
C190 C 0.44796 0.29878 0.8258 0.0
C191 C 0.44038 0.30396 0.7227 0.0
H192 H 0.42833 0.30338 0.71434 0.0
H193 H 0.43939 0.29196 0.71012 0.0
H194 H 0.44998 0.31393 0.69504 0.0
O195 O 0.47315 0.36114 0.78126 0.0
O196 O 0.4822 0.36147 0.87092 0.0
H197 H 0.47194 0.31539 0.94188 0.0
H198 H 0.45901 0.29316 0.93028 0.0
C199 C 0.45923 0.3052 0.93121 0.0
H200 H 0.45076 0.30463 0.96626 0.0
H201 H 0.49098 0.35261 0.99071 0.0
O202 O 0.44404 0.33837 0.69564 0.0
C203 C 0.48463 0.36734 0.81943 0.0
Co204 Co 0.55554 0.89797 0.21749 0.0
Co205 Co 0.5428 0.88412 0.09342 0.0
C206 C 0.56966 0.91986 0.11608 0.0
O207 O 0.57076 0.91765 0.17013 0.0
O208 O 0.55905 0.90819 0.08414 0.0
C209 C 0.57611 0.9073 0.32172 0.0
O210 O 0.58831 0.9089 0.28824 0.0
C211 C 0.54875 0.88069 0.97217 0.0
C212 C 0.5245 0.8606 0.94063 0.0
C213 C 0.54054 0.8719 0.92281 0.0
N214 N 0.53808 0.87505 0.01704 0.0
N215 N 0.5236 0.86296 -0.00187 0.0
C216 C 0.56673 0.89368 0.97758 0.0
H217 H 0.57147 0.89297 0.0212 0.0
H218 H 0.57429 0.89206 0.94349 0.0
H219 H 0.56807 0.90618 0.97256 0.0
C220 C 0.55885 0.86743 0.2221 0.0
N221 N 0.55581 0.87839 0.19378 0.0
N222 N 0.55113 0.87307 0.14026 0.0
C223 C 0.55137 0.85878 0.13246 0.0
C224 C 0.55629 0.85475 0.18404 0.0
C225 C 0.56187 0.86776 0.28619 0.0
H226 H 0.55475 0.87259 0.30977 0.0
H227 H 0.57532 0.87594 0.29495 0.0
H228 H 0.55811 0.85515 0.30298 0.0
O229 O 0.53248 0.8942 0.21306 0.0
O230 O 0.52222 0.88174 0.12833 0.0
H231 H 0.53313 0.84373 0.0693 0.0
H232 H 0.5496 0.83885 0.07809 0.0
C233 C 0.54665 0.84905 0.07697 0.0
H234 H 0.55347 0.85745 0.0402 0.0
H235 H 0.51305 0.85652 0.0242 0.0
O236 O 0.562 0.90305 0.29969 0.0
C237 C 0.52049 0.88726 0.17702 0.0
Co238 Co 0.65874 0.55377 0.72221 0.0
Co239 Co 0.6595 0.54262 0.59484 0.0
C240 C 0.65088 0.56929 0.62406 0.0
O241 O 0.65321 0.56876 0.67841 0.0
O242 O 0.65268 0.55974 0.58873 0.0
C243 C 0.66827 0.57403 0.82742 0.0
O244 O 0.67567 0.58713 0.79338 0.0
C245 C 0.67109 0.54906 0.47486 0.0
C246 C 0.65884 0.52378 0.43726 0.0
C247 C 0.66846 0.54049 0.42289 0.0
N248 N 0.66331 0.53795 0.51762 0.0
N249 N 0.65627 0.52284 0.4951 0.0
C250 C 0.67937 0.56752 0.48312 0.0
H251 H 0.67859 0.5707 0.52902 0.0
H252 H 0.69272 0.57333 0.47153 0.0
H253 H 0.67358 0.57277 0.45413 0.0
C254 C 0.6928 0.55809 0.7215 0.0
N255 N 0.67854 0.55475 0.69468 0.0
N256 N 0.67889 0.55012 0.64082 0.0
C257 C 0.69341 0.55046 0.63153 0.0
C258 C 0.7027 0.55554 0.68234 0.0
C259 C 0.69672 0.56338 0.78371 0.0
H260 H 0.68654 0.55429 0.81204 0.0
H261 H 0.69762 0.57567 0.78911 0.0
H262 H 0.70868 0.56454 0.79771 0.0
O263 O 0.63991 0.53061 0.71759 0.0
O264 O 0.64086 0.52197 0.62842 0.0
H265 H 0.68678 0.53235 0.56387 0.0
H266 H 0.7086 0.54298 0.58275 0.0
C267 C 0.69754 0.54446 0.57702 0.0
H268 H 0.70007 0.55355 0.54164 0.0
H269 H 0.649 0.51194 0.51868 0.0
O270 O 0.66084 0.55954 0.80533 0.0
C271 C 0.63428 0.5193 0.67879 0.0
Co272 Co 0.10736 0.6571 0.20913 0.0
Co273 Co 0.11991 0.65856 0.08241 0.0
C274 C 0.08463 0.64994 0.10959 0.0
O275 O 0.08726 0.6526 0.16391 0.0
O276 O 0.096 0.65135 0.0752 0.0
C277 C 0.09825 0.66788 0.31511 0.0
O278 O 0.09497 0.67742 0.28196 0.0
C279 C 0.12419 0.66856 0.96073 0.0
C280 C 0.14408 0.6637 0.93161 0.0
C281 C 0.13353 0.66925 0.91258 0.0
N282 N 0.12914 0.66303 0.00622 0.0
N283 N 0.14111 0.66026 0.98873 0.0
C284 C 0.10965 0.67137 0.96308 0.0
H285 H 0.11001 0.67781 0.00421 0.0
H286 H 0.10926 0.67866 0.92568 0.0
H287 H 0.098 0.65913 0.96276 0.0
C288 C 0.13773 0.69084 0.21261 0.0
N289 N 0.12665 0.67691 0.18438 0.0
N290 N 0.13145 0.67779 0.13 0.0
C291 C 0.14546 0.69252 0.12143 0.0
C292 C 0.14996 0.70127 0.17357 0.0
C293 C 0.13784 0.6932 0.2771 0.0
H294 H 0.13356 0.68119 0.29971 0.0
H295 H 0.12934 0.69796 0.28808 0.0
H296 H 0.15047 0.70225 0.29308 0.0
O297 O 0.1113 0.638 0.20309 0.0
O298 O 0.1218 0.63977 0.11492 0.0
H299 H 0.16016 0.69057 0.05358 0.0
H300 H 0.16387 0.71147 0.0647 0.0
C301 C 0.15425 0.6981 0.0642 0.0
H302 H 0.14512 0.69609 0.02966 0.0
H303 H 0.14699 0.65568 0.0155 0.0
O304 O 0.10316 0.65864 0.29207 0.0
C305 C 0.11733 0.63269 0.16436 0.0
Co306 Co 0.44928 0.10545 0.71646 0.0
Co307 Co 0.45955 0.11804 0.58898 0.0
C308 C 0.43341 0.08261 0.61633 0.0
O309 O 0.43428 0.08512 0.671 0.0
O310 O 0.44263 0.0942 0.58126 0.0
C311 C 0.42929 0.09593 0.82214 0.0
O312 O 0.41653 0.0927 0.78879 0.0
C313 C 0.45403 0.12433 0.46809 0.0
C314 C 0.47978 0.14059 0.43741 0.0
C315 C 0.46335 0.13245 0.41913 0.0
N316 N 0.4645 0.12754 0.51299 0.0
N317 N 0.47985 0.13745 0.49452 0.0
C318 C 0.4356 0.11289 0.47153 0.0
H319 H 0.43183 0.10692 0.51471 0.0
H320 H 0.42917 0.12011 0.46497 0.0
H321 H 0.43149 0.1033 0.43689 0.0
C322 C 0.44543 0.13555 0.72113 0.0
N323 N 0.44823 0.12453 0.69208 0.0
N324 N 0.45208 0.12952 0.63782 0.0
C325 C 0.45148 0.14363 0.63026 0.0
C326 C 0.44724 0.14793 0.68283 0.0
C327 C 0.44328 0.1355 0.78572 0.0
H328 H 0.45116 0.13131 0.80773 0.0
H329 H 0.43006 0.12686 0.7969 0.0
H330 H 0.44673 0.14807 0.80217 0.0
O331 O 0.47247 0.11013 0.71041 0.0
O332 O 0.48029 0.11974 0.62073 0.0
H333 H 0.46808 0.15751 0.56106 0.0
H334 H 0.45239 0.16322 0.57587 0.0
C335 C 0.45492 0.15275 0.57366 0.0
H336 H 0.44688 0.14404 0.53949 0.0
H337 H 0.49043 0.14158 0.52042 0.0
O338 O 0.44349 0.10098 0.79935 0.0
C339 C 0.48344 0.11589 0.67045 0.0
Co340 Co 0.34389 0.4489 0.20464 0.0
Co341 Co 0.34441 0.46245 0.08121 0.0
C342 C 0.3525 0.43505 0.10381 0.0
O343 O 0.34991 0.43474 0.15824 0.0
O344 O 0.35086 0.44514 0.07077 0.0
C345 C 0.35003 0.43835 0.31399 0.0
O346 O 0.3639 0.44086 0.28948 0.0
C347 C 0.33444 0.45712 0.96194 0.0
C348 C 0.34666 0.48246 0.92485 0.0
C349 C 0.33773 0.46574 0.90994 0.0
N350 N 0.34142 0.46815 0.00518 0.0
N351 N 0.34848 0.48332 0.98311 0.0
C352 C 0.3248 0.43867 0.97119 0.0
H353 H 0.31871 0.43579 0.01452 0.0
H354 H 0.31531 0.43251 0.93661 0.0
H355 H 0.33339 0.43363 0.97017 0.0
C356 C 0.30976 0.44386 0.20274 0.0
N357 N 0.32438 0.44823 0.17674 0.0
N358 N 0.32467 0.45449 0.12522 0.0
C359 C 0.31033 0.45458 0.11699 0.0
C360 C 0.30037 0.44784 0.16601 0.0
C361 C 0.30494 0.43598 0.26166 0.0
H362 H 0.30834 0.42614 0.26549 0.0
H363 H 0.2914 0.43038 0.26962 0.0
H364 H 0.3119 0.44555 0.29532 0.0
O365 O 0.36285 0.47226 0.20652 0.0
O366 O 0.36294 0.48217 0.11853 0.0
H367 H 0.31854 0.47415 0.0539 0.0
H368 H 0.29699 0.46532 0.07498 0.0
C369 C 0.30705 0.46248 0.0658 0.0
H370 H 0.30336 0.45388 0.02813 0.0
H371 H 0.35529 0.49419 0.00732 0.0
O372 O 0.33989 0.44086 0.28487 0.0
C373 C 0.36899 0.48409 0.16951 0.0
Co374 Co 0.8971 0.34509 0.722 0.0
Co375 Co 0.88446 0.34291 0.59533 0.0
C376 C 0.92001 0.35195 0.62394 0.0
O377 O 0.91742 0.34998 0.67846 0.0
O378 O 0.90845 0.34984 0.58919 0.0
C379 C 0.90774 0.33593 0.82688 0.0
O380 O 0.91258 0.32786 0.7924 0.0
C381 C 0.88098 0.33025 0.479 0.0
C382 C 0.86646 0.33981 0.43398 0.0
C383 C 0.87506 0.33133 0.42472 0.0
N384 N 0.87639 0.33796 0.51794 0.0
N385 N 0.86753 0.34351 0.49108 0.0
C386 C 0.89035 0.32155 0.49495 0.0
H387 H 0.88786 0.31738 0.54095 0.0
H388 H 0.88682 0.31071 0.46602 0.0
H389 H 0.90388 0.3303 0.49053 0.0
C390 C 0.8673 0.31096 0.72626 0.0
N391 N 0.87808 0.32493 0.69753 0.0
N392 N 0.87271 0.32409 0.64399 0.0
C393 C 0.85834 0.30963 0.63694 0.0
C394 C 0.85449 0.30077 0.68877 0.0
C395 C 0.8682 0.30822 0.79002 0.0
H396 H 0.87115 0.31969 0.81435 0.0
H397 H 0.87824 0.30529 0.79789 0.0
H398 H 0.85633 0.29781 0.80678 0.0
O399 O 0.89303 0.36405 0.71345 0.0
O400 O 0.88224 0.36178 0.62534 0.0
H401 H 0.84553 0.31455 0.56938 0.0
H402 H 0.83658 0.29264 0.58663 0.0
C403 C 0.84834 0.30467 0.58203 0.0
H404 H 0.85576 0.30345 0.5466 0.0
H405 H 0.8628 0.35035 0.5112 0.0
O406 O 0.90118 0.34388 0.8052 0.0
C407 C 0.88688 0.36911 0.67432 0.0
H408 H 0.05487 0.41283 0.32626 0.0
H409 H 0.02722 0.39738 0.37024 0.0
H410 H 0.04855 0.41548 0.5397 0.0
H411 H 0.07604 0.4315 0.49603 0.0
H412 H 0.01366 0.37297 0.4511 0.0
H413 H 0.01384 0.42922 0.53383 0.0
H414 H 0.02937 0.43039 0.48385 0.0
H415 H 0.03101 0.42738 0.56041 0.0
C416 C 0.0537 0.41351 0.37292 0.0
C417 C 0.06772 0.42349 0.40753 0.0
C418 C 0.03787 0.40464 0.398 0.0
C419 C 0.03576 0.40554 0.45812 0.0
C420 C 0.0498 0.41495 0.49303 0.0
H421 H 0.9488 0.36145 0.68481 0.0
H422 H 0.97701 0.37319 0.6455 0.0
C423 C 0.06558 0.42398 0.46797 0.0
C424 C 0.01885 0.39683 0.48419 0.0
H425 H 0.9916 0.40315 0.56518 0.0
C426 C 0.00883 0.37958 0.47592 0.0
C427 C 0.01251 0.40548 0.51634 0.0
C428 C 0.02217 0.42416 0.52368 0.0
C429 C 0.99272 0.37074 0.49948 0.0
C430 C 0.98653 0.37938 0.53209 0.0
C431 C 0.99653 0.39657 0.54063 0.0
C432 C 0.96941 0.37099 0.55555 0.0
C433 C 0.98242 0.35222 0.48973 0.0
C434 C 0.95586 0.36588 0.51784 0.0
C435 C 0.93977 0.35934 0.54004 0.0
C436 C 0.93691 0.35769 0.60048 0.0
C437 C 0.95053 0.36247 0.63809 0.0
C438 C 0.96665 0.36918 0.61577 0.0
H439 H 0.98998 0.34693 0.47246 0.0
H440 H 0.97639 0.34576 0.53094 0.0
H441 H 0.97242 0.34965 0.45794 0.0
H442 H 0.9578 0.3674 0.47124 0.0
H443 H 0.92965 0.35594 0.50976 0.0
H444 H 0.65917 0.06096 0.8388 0.0
H445 H 0.64883 0.03314 0.88039 0.0
H446 H 0.61646 0.04102 0.99473 0.0
H447 H 0.62761 0.06908 0.95635 0.0
H448 H 0.629 0.02691 0.05259 0.0
H449 H 0.60701 0.99208 0.84532 0.0
H450 H 0.62895 0.00645 0.84526 0.0
H451 H 0.61454 0.01409 0.84982 0.0
C452 C 0.64984 0.05667 0.87279 0.0
C453 C 0.64414 0.06712 0.89425 0.0
C454 C 0.64382 0.04073 0.89623 0.0
C455 C 0.63155 0.03474 0.93994 0.0
C456 C 0.62591 0.04526 0.96116 0.0
H457 H 0.56181 0.93337 0.02554 0.0
H458 H 0.57823 0.96122 0.98476 0.0
C459 C 0.63226 0.06131 0.93906 0.0
C460 C 0.62457 0.01768 0.96461 0.0
H461 H 0.60522 0.97645 0.92884 0.0
C462 C 0.62375 0.01587 0.02544 0.0
C463 C 0.61762 0.00321 0.92936 0.0
C464 C 0.6169 0.00401 0.86389 0.0
C465 C 0.61568 1.00013 0.052 0.0
C466 C 0.60902 0.98567 0.01678 0.0
C467 C 0.61038 0.98749 0.95597 0.0
C468 C 0.59943 0.96856 0.04152 0.0
C469 C 0.61364 0.9993 0.11731 0.0
C470 C 0.60584 0.9632 0.08673 0.0
C471 C 0.59618 0.94739 0.11151 0.0
C472 C 0.5802 0.93645 0.08991 0.0
C473 C 0.5741 0.94154 0.04306 0.0
C474 C 0.58352 0.95747 0.01959 0.0
H475 H 0.61495 0.01102 0.13527 0.0
H476 H 0.60131 0.98885 0.13053 0.0
H477 H 0.62347 0.99745 0.13735 0.0
H478 H 0.61829 0.97122 0.10311 0.0
H479 H 0.60126 0.94366 0.14702 0.0
H480 H 0.6488 0.57678 0.51045 0.0
H481 H 0.63722 0.59346 0.47263 0.0
H482 H 0.62834 0.60387 0.64762 0.0
H483 H 0.63993 0.5872 0.68614 0.0
H484 H 0.59998 0.59014 0.56843 0.0
H485 H 0.65594 0.64489 0.47594 0.0
H486 H 0.65313 0.62484 0.45685 0.0
H487 H 0.65723 0.6317 0.5311 0.0
C488 C 0.64458 0.58276 0.54104 0.0
C489 C 0.64524 0.5806 0.60139 0.0
C490 C 0.63806 0.59238 0.51927 0.0
C491 C 0.63208 0.6 0.55737 0.0
C492 C 0.633 0.59815 0.61759 0.0
H493 H 0.57189 0.64663 0.50344 0.0
H494 H 0.58831 0.63535 0.54526 0.0
C495 C 0.63964 0.58864 0.63948 0.0
C496 C 0.62364 0.60874 0.53419 0.0
H497 H 0.62977 0.6422 0.45325 0.0
C498 C 0.60649 0.6016 0.54365 0.0
C499 C 0.63218 0.62355 0.50133 0.0
C500 C 0.65067 0.63182 0.49089 0.0
C501 C 0.59753 0.6087 0.52013 0.0
C502 C 0.60607 0.62364 0.48764 0.0
C503 C 0.62326 0.6308 0.47832 0.0
C504 C 0.59727 0.63185 0.46252 0.0
C505 C 0.57891 0.59981 0.52874 0.0
C506 C 0.5975 0.63441 0.40226 0.0
C507 C 0.58835 0.64118 0.37814 0.0
C508 C 0.57877 0.64548 0.41393 0.0
C509 C 0.57905 0.64341 0.47448 0.0
C510 C 0.58833 0.63681 0.49852 0.0
H511 H 0.57383 0.58646 0.53955 0.0
H512 H 0.57592 0.60566 0.56541 0.0
H513 H 0.5725 0.60065 0.4892 0.0
H514 H 0.60442 0.63076 0.3737 0.0
H515 H 0.58845 0.64263 0.33137 0.0
H516 H 0.06138 0.658 0.1458 0.0
H517 H 0.03356 0.64801 0.105 0.0
H518 H 0.04203 0.6179 0.98163 0.0
H519 H 0.07011 0.62881 0.01926 0.0
H520 H 0.0271 0.63038 0.9292 0.0
H521 H 0.99327 0.60534 0.13681 0.0
H522 H 0.00721 0.62736 0.13955 0.0
H523 H 0.01533 0.61345 0.13055 0.0
C524 C 0.05724 0.64928 0.10987 0.0
C525 C 0.06783 0.64411 0.08581 0.0
C526 C 0.04129 0.64345 0.08689 0.0
C527 C 0.03544 0.63184 0.04105 0.0
C528 C 0.04616 0.62683 0.01692 0.0
H529 H 0.93424 0.5612 0.95849 0.0
H530 H 0.96228 0.57776 -0.00267 0.0
C531 C 0.06222 0.63304 0.03858 0.0
C532 C 0.01825 0.62479 0.01756 0.0
H533 H 0.97718 0.60414 0.05563 0.0
C534 C 0.01618 0.62459 0.95692 0.0
C535 C 0.00394 0.61712 0.05353 0.0
C536 C 0.00501 0.61566 0.11862 0.0
C537 C 1.00035 0.61644 0.93115 0.0
C538 C 0.98604 0.60907 0.96716 0.0
C539 C 0.9881 0.60983 0.02789 0.0
C540 C 0.96886 0.59932 0.94321 0.0
C541 C 0.9993 0.6151 0.86564 0.0
C542 C 0.963 0.60587 0.90001 0.0
C543 C 0.94709 0.59612 0.87621 0.0
C544 C 0.93653 0.57993 0.89695 0.0
C545 C 0.94213 0.57366 0.94173 0.0
C546 C 0.95816 0.58316 0.9641 0.0
H547 H 0.01106 0.61691 0.84622 0.0
H548 H 0.98901 0.60278 0.85151 0.0
H549 H 0.99707 0.62493 0.8479 0.0
H550 H 0.97071 0.61849 0.88455 0.0
H551 H 0.94296 0.60132 0.84229 0.0
H552 H 0.41642 0.05311 0.67599 0.0
H553 H 0.40009 0.02511 0.63475 0.0
H554 H 0.4083 0.04607 0.46231 0.0
H555 H 0.42487 0.07398 0.50274 0.0
H556 H 0.3717 0.00993 0.56473 0.0
H557 H 0.42632 0.01419 0.4498 0.0
H558 H 0.42827 0.02897 0.50465 0.0
H559 H 0.42225 0.03064 0.4317 0.0
C560 C 0.41465 0.05176 0.62932 0.0
C561 C 0.42215 0.06577 0.59263 0.0
C562 C 0.40532 0.03576 0.60585 0.0
C563 C 0.4033 0.03351 0.54539 0.0
C564 C 0.41006 0.04751 0.50896 0.0
H565 H 0.35982 0.94689 0.31878 0.0
H566 H 0.37093 0.97486 0.35942 0.0
C567 C 0.41948 0.06346 0.53225 0.0
C568 C 0.39459 0.01652 0.52015 0.0
H569 H 0.40012 0.99065 0.42878 0.0
C570 C 0.3779 0.00568 0.53511 0.0
C571 C 0.40275 0.011 0.48165 0.0
C572 C 0.42092 0.02173 0.46637 0.0
C573 C 0.36906 0.98953 0.5118 0.0
C574 C 0.37721 0.98409 0.47307 0.0
C575 C 0.39388 0.99493 0.45809 0.0
C576 C 0.36895 0.96698 0.44905 0.0
C577 C 0.35104 0.97849 0.52815 0.0
C578 C 0.3641 0.9533 0.48605 0.0
C579 C 0.35781 0.93732 0.46304 0.0
C580 C 0.3563 0.93473 0.40247 0.0
C581 C 0.36078 0.94843 0.36558 0.0
C582 C 0.36715 0.96442 0.38869 0.0
H583 H 0.34553 0.98578 0.54612 0.0
H584 H 0.3436 0.97129 0.48995 0.0
H585 H 0.35009 0.96951 0.5619 0.0
H586 H 0.36567 0.95504 0.53269 0.0
H587 H 0.35448 0.92707 0.49276 0.0
H588 H 0.42988 0.35731 0.9853 0.0
H589 H 0.41317 0.36885 0.02187 0.0
H590 H 0.3986 0.37232 0.84663 0.0
H591 H 0.41489 0.36013 0.80952 0.0
H592 H 0.41805 0.39921 -0.00077 0.0
H593 H 0.35434 0.35201 0.92989 0.0
H594 H 0.37151 0.34805 0.92891 0.0
H595 H 0.36916 0.35988 0.87147 0.0
C596 C 0.42289 0.36019 0.95441 0.0
C597 C 0.42367 0.35768 0.89439 0.0
C598 C 0.41336 0.36686 0.97548 0.0
C599 C 0.40447 0.37128 0.93714 0.0
C600 C 0.40504 0.36864 0.8772 0.0
H601 H 0.35839 0.43173 0.98914 0.0
H602 H 0.36993 0.41529 0.94853 0.0
C603 C 0.41446 0.36178 0.85601 0.0
C604 C 0.39564 0.37974 0.96005 0.0
H605 H 0.35777 0.37747 0.96767 0.0
C606 C 0.40484 0.39438 0.99257 0.0
C607 C 0.37842 0.37345 0.95124 0.0
C608 C 0.36773 0.3574 0.91895 0.0
C609 C 0.39734 0.40294 0.01618 0.0
C610 C 0.38018 0.3967 0.0072 0.0
C611 C 0.37094 0.38216 0.97441 0.0
C612 C 0.37177 0.40533 0.03138 0.0
C613 C 0.40781 0.41874 0.05012 0.0
C614 C 0.36873 0.40488 0.0913 0.0
C615 C 0.36203 0.41417 0.11476 0.0
C616 C 0.35833 0.42414 0.07862 0.0
C617 C 0.36102 0.42417 0.01829 0.0
C618 C 0.36761 0.41479 0.9949 0.0
H619 H 0.42132 0.42319 0.04613 0.0
H620 H 0.40543 0.42873 0.03494 0.0
H621 H 0.40435 0.41646 0.09682 0.0
H622 H 0.37186 0.39759 0.12002 0.0
H623 H 0.36012 0.41383 0.16134 0.0
H624 H 0.11023 0.61532 0.26642 0.0
H625 H 0.11183 0.59036 0.28687 0.0
H626 H 0.12905 0.59107 0.11206 0.0
H627 H 0.12769 0.61625 0.09117 0.0
H628 H 0.09454 0.55982 0.22994 0.0
H629 H 0.16292 0.5861 0.2128 0.0
H630 H 0.15356 0.59902 0.22007 0.0
H631 H 0.15335 0.58982 0.15108 0.0
C632 C 0.11447 0.61028 0.2323 0.0
C633 C 0.11885 0.61783 0.17711 0.0
C634 C 0.11537 0.59599 0.24412 0.0
C635 C 0.12072 0.58897 0.20121 0.0
C636 C 0.12518 0.59647 0.14613 0.0
H637 H 0.10515 0.48828 0.20791 0.0
H638 H 0.10648 0.51436 0.1799 0.0
C639 C 0.12431 0.61081 0.13421 0.0
C640 C 0.12093 0.5734 0.21375 0.0
H641 H 0.14647 0.55688 0.22547 0.0
C642 C 0.10588 0.55916 0.22886 0.0
C643 C 0.13578 0.57265 0.21275 0.0
C644 C 0.15236 0.58773 0.1988 0.0
C645 C 0.10528 0.54415 0.24283 0.0
C646 C 0.12007 0.54334 0.24109 0.0
C647 C 0.13514 0.55756 0.22626 0.0
C648 C 0.12013 0.52787 0.2563 0.0
C649 C 0.08888 0.52934 0.2605 0.0
C650 C 0.12767 0.52699 0.30795 0.0
C651 C 0.12689 0.5121 0.32428 0.0
C652 C 0.11867 0.49786 0.2889 0.0
C653 C 0.11154 0.49897 0.23627 0.0
C654 C 0.11224 0.51384 0.22021 0.0
H655 H 0.07926 0.53283 0.26956 0.0
H656 H 0.0843 0.52003 0.22485 0.0
H657 H 0.09046 0.52331 0.29984 0.0
H658 H 0.13384 0.53773 0.33626 0.0
H659 H 0.13259 0.51172 0.36492 0.0
H660 H 0.49611 0.11403 0.77545 0.0
H661 H 0.52296 0.11626 0.79518 0.0
H662 H 0.53504 0.12387 0.61244 0.0
H663 H 0.50829 0.12208 0.59236 0.0
H664 H 0.53416 0.09631 0.7563 0.0
H665 H 0.57693 0.16114 0.68392 0.0
H666 H 0.55495 0.15311 0.69472 0.0
H667 H 0.56233 0.14827 0.62934 0.0
C668 C 0.50451 0.11631 0.73939 0.0
C669 C 0.50004 0.11789 0.68228 0.0
C670 C 0.51987 0.11759 0.7508 0.0
C671 C 0.5311 0.12043 0.70544 0.0
C672 C 0.52674 0.12206 0.64833 0.0
H673 H 0.62161 0.11403 0.70345 0.0
H674 H 0.59672 0.11518 0.6758 0.0
C675 C 0.51139 0.12093 0.63688 0.0
C676 C 0.54696 0.12079 0.71803 0.0
H677 H 0.58928 0.14479 0.70802 0.0
C678 C 0.54619 0.10694 0.74585 0.0
C679 C 0.56268 0.13468 0.70437 0.0
C680 C 0.56434 0.15021 0.67694 0.0
C681 C 0.56069 0.10658 0.76027 0.0
C682 C 0.57633 0.12041 0.74654 0.0
C683 C 0.57719 0.13421 0.71824 0.0
C684 C 0.59191 0.12077 0.76251 0.0
C685 C 0.55926 0.09143 0.79008 0.0
C686 C 0.59748 0.12376 0.82026 0.0
C687 C 0.6117 0.12318 0.83625 0.0
C688 C 0.62056 0.1195 0.79473 0.0
C689 C 0.61507 0.11682 0.73657 0.0
C690 C 0.60089 0.11752 0.7206 0.0
H691 H 0.54622 0.08096 0.79155 0.0
H692 H 0.56707 0.08722 0.76733 0.0
H693 H 0.56393 0.0947 0.83535 0.0
H694 H 0.59067 0.12631 0.8531 0.0
H695 H 0.61556 0.12531 0.88137 0.0
H696 H 0.4929 0.61446 0.39129 0.0
H697 H 0.4672 0.58927 0.36423 0.0
H698 H 0.48316 0.59625 0.18509 0.0
H699 H 0.50914 0.62122 0.21197 0.0
H700 H 0.44228 0.58417 0.29146 0.0
H701 H 0.47234 0.54899 0.21312 0.0
H702 H 0.48355 0.56821 0.2531 0.0
H703 H 0.47966 0.56851 0.17655 0.0
C704 C 0.49097 0.61066 0.34609 0.0
C705 C 0.50316 0.61979 0.30387 0.0
C706 C 0.47626 0.59624 0.33071 0.0
C707 C 0.4734 0.59068 0.27285 0.0
C708 C 0.4853 0.60005 0.23028 0.0
H709 H 0.3882 0.51043 0.09799 0.0
H710 H 0.41319 0.53658 0.12373 0.0
C711 C 0.5001 0.61438 0.24568 0.0
C712 C 0.45792 0.57513 0.25721 0.0
H713 H 0.44333 0.53682 0.19523 0.0
C714 C 0.44252 0.57381 0.27062 0.0
C715 C 0.45824 0.56155 0.23033 0.0
C716 C 0.47433 0.56177 0.21793 0.0
C717 C 0.42747 0.55936 0.25714 0.0
C718 C 0.42786 0.54598 0.22954 0.0
C719 C 0.44317 0.54723 0.21611 0.0
C720 C 0.41244 0.53044 0.21477 0.0
C721 C 0.41121 0.55845 0.27198 0.0
C722 C 0.40382 0.5184 0.25764 0.0
C723 C 0.3896 0.50339 0.24314 0.0
C724 C 0.38373 0.50022 0.18548 0.0
C725 C 0.39234 0.51247 0.14283 0.0
C726 C 0.40662 0.52741 0.15734 0.0
H727 H 0.41299 0.57045 0.28889 0.0
H728 H 0.40312 0.55485 0.23288 0.0
H729 H 0.40459 0.54869 0.30546 0.0
H730 H 0.40823 0.52055 0.30217 0.0
H731 H 0.38327 0.49425 0.27706 0.0
H732 H 0.86359 0.48926 0.85412 0.0
H733 H 0.86103 0.46245 0.82823 0.0
H734 H 0.90397 0.48766 0.71634 0.0
H735 H 0.90596 0.51427 0.73947 0.0
H736 H 0.88173 0.46118 0.66474 0.0
H737 H 0.88783 0.44351 0.88981 0.0
H738 H 0.87031 0.44649 0.88129 0.0
H739 H 0.89107 0.46383 0.87207 0.0
C740 C 0.87248 0.48903 0.82407 0.0
C741 C 0.88502 0.50384 0.79902 0.0
C742 C 0.87108 0.47373 0.8096 0.0
C743 C 0.88253 0.47302 0.7713 0.0
C744 C 0.89498 0.48783 0.74604 0.0
H745 H 0.906 0.39461 0.74742 0.0
H746 H 0.90401 0.41936 0.76775 0.0
C747 C 0.89614 0.50306 0.75939 0.0
C748 C 0.88164 0.45696 0.75693 0.0
H749 H 0.88131 0.42314 0.81698 0.0
C750 C 0.88168 0.45288 0.69807 0.0
C751 C 0.88174 0.44618 0.80035 0.0
C752 C 0.88291 0.45029 0.86436 0.0
C753 C 0.88216 0.43856 0.68138 0.0
C754 C 0.88184 0.42757 0.7248 0.0
C755 C 0.88145 0.43148 0.78363 0.0
C756 C 0.88298 0.41252 0.71076 0.0
C757 C 0.88374 0.43581 0.6175 0.0
C758 C 0.87182 0.40034 0.6719 0.0
C759 C 0.87323 0.38633 0.65904 0.0
C760 C 0.88547 0.38401 0.68626 0.0
C761 C 0.89639 0.39603 0.72594 0.0
C762 C 0.89524 0.41017 0.73767 0.0
H763 H 0.88875 0.44758 0.59233 0.0
H764 H 0.89201 0.43052 0.61041 0.0
H765 H 0.87126 0.42699 0.59975 0.0
H766 H 0.86194 0.40156 0.6519 0.0
H767 H 0.86452 0.37715 0.62881 0.0
H768 H 0.48952 0.86424 0.13816 0.0
H769 H 0.46289 0.86201 0.16439 0.0
H770 H 0.48861 0.90542 0.27375 0.0
H771 H 0.51506 0.90711 0.25028 0.0
H772 H 0.46232 0.88354 0.32693 0.0
H773 H 0.44378 0.8886 0.10226 0.0
H774 H 0.44678 0.87108 0.1111 0.0
H775 H 0.46415 0.89188 0.11925 0.0
C776 C 0.48945 0.87331 0.16771 0.0
C777 C 0.50436 0.8859 0.19198 0.0
C778 C 0.47424 0.8721 0.18236 0.0
C779 C 0.47373 0.88377 0.22004 0.0
C780 C 0.48864 0.89628 0.2445 0.0
H781 H 0.39371 0.90527 0.2465 0.0
H782 H 0.41882 0.90409 0.22459 0.0
C783 C 0.50377 0.89725 0.23098 0.0
C784 C 0.45773 0.88296 0.23487 0.0
H785 H 0.42346 0.88186 0.17576 0.0
C786 C 0.45385 0.88323 0.29382 0.0
C787 C 0.44674 0.88277 0.19175 0.0
C788 C 0.45064 0.88374 0.1276 0.0
C789 C 0.43946 0.88353 0.31088 0.0
C790 C 0.42821 0.88278 0.2678 0.0
C791 C 0.43198 0.88229 0.20887 0.0
C792 C 0.4129 0.8834 0.28236 0.0
C793 C 0.43691 0.88532 0.37476 0.0
C794 C 0.40109 0.87213 0.32199 0.0
C795 C 0.38688 0.87307 0.3357 0.0
C796 C 0.38397 0.88495 0.3086 0.0
C797 C 0.39559 0.89594 0.26795 0.0
C798 C 0.40994 0.89525 0.25533 0.0
H799 H 0.44881 0.89078 0.39923 0.0
H800 H 0.43128 0.89331 0.38166 0.0
H801 H 0.42846 0.87285 0.39345 0.0
H802 H 0.40278 0.86252 0.34207 0.0
H803 H 0.37803 0.86431 0.36665 0.0
H804 H 0.49338 0.38411 0.716 0.0
H805 H 0.51965 0.40884 0.69081 0.0
H806 H 0.53902 0.40862 0.86098 0.0
H807 H 0.51272 0.38375 0.88684 0.0
H808 H 0.53381 0.43974 0.75138 0.0
H809 H 0.57593 0.41326 0.74641 0.0
H810 H 0.55357 0.40047 0.74185 0.0
H811 H 0.56333 0.40878 0.81068 0.0
C812 C 0.50324 0.38919 0.74807 0.0
C813 C 0.5009 0.38192 0.80355 0.0
C814 C 0.51825 0.40334 0.73351 0.0
C815 C 0.53131 0.41044 0.7738 0.0
C816 C 0.52916 0.40316 0.82896 0.0
H817 H 0.61557 0.51025 0.77813 0.0
H818 H 0.59084 0.4836 0.79995 0.0
C819 C 0.51409 0.389 0.84374 0.0
C820 C 0.54679 0.42601 0.75894 0.0
H821 H 0.58856 0.44262 0.73761 0.0
C822 C 0.54578 0.44037 0.74825 0.0
C823 C 0.56233 0.42671 0.75438 0.0
C824 C 0.56394 0.41148 0.76344 0.0
C825 C 0.55997 0.45552 0.73402 0.0
C826 C 0.57557 0.45633 0.73081 0.0
C827 C 0.57657 0.44193 0.74048 0.0
C828 C 0.59098 0.47217 0.71816 0.0
C829 C 0.55819 0.47056 0.72211 0.0
C830 C 0.59941 0.47441 0.6653 0.0
C831 C 0.61357 0.48968 0.65245 0.0
C832 C 0.6196 0.5029 0.69258 0.0
C833 C 0.61127 0.5004 0.74608 0.0
C834 C 0.59711 0.48518 0.75867 0.0
H835 H 0.54502 0.46709 0.71458 0.0
H836 H 0.56287 0.47906 0.76011 0.0
H837 H 0.56568 0.47748 0.68357 0.0
H838 H 0.59485 0.46445 0.63359 0.0
H839 H 0.61971 0.49115 0.61099 0.0
H840 H 0.1532 0.4766 0.6619 0.0
H841 H 0.14581 0.4682 0.76396 0.0
H842 H 0.09473 0.43578 0.71365 0.0
H843 H 0.10195 0.44413 0.61281 0.0
H844 H 0.12367 0.47288 0.8276 0.0
H845 H 0.10319 0.40566 0.81927 0.0
H846 H 0.11525 0.41994 0.76194 0.0
H847 H 0.09313 0.41168 0.76578 0.0
C848 C 0.14048 0.46746 0.67279 0.0
C849 C 0.12826 0.46059 0.62939 0.0
C850 C 0.13629 0.46266 0.73079 0.0
C851 C 0.11981 0.45103 0.74594 0.0
C852 C 0.10762 0.44427 0.70258 0.0
H853 H 0.07461 0.44463 0.08076 0.0
H854 H 0.08004 0.44575 0.97617 0.0
C855 C 0.1118 0.44901 0.64483 0.0
C856 C 0.11492 0.44714 0.8075 0.0
H857 H 0.09493 0.41504 0.90343 0.0
C858 C 0.11752 0.46026 0.84437 0.0
C859 C 0.10696 0.43066 0.82909 0.0
C860 C 0.10461 0.4162 0.7921 0.0
C861 C 0.11208 0.45732 0.90217 0.0
C862 C 0.10347 0.44076 0.92306 0.0
C863 C 0.10122 0.42766 0.88668 0.0
C864 C 0.09769 0.43707 0.98381 0.0
C865 C 0.11579 0.47198 0.94059 0.0
C866 C 0.10501 0.43078 0.02175 0.0
C867 C 0.10184 0.42998 0.08123 0.0
C868 C 0.09133 0.43552 0.10361 0.0
C869 C 0.08291 0.44046 0.06488 0.0
C870 C 0.08606 0.4412 0.00524 0.0
H871 H 0.12572 0.48389 0.92195 0.0
H872 H 0.10439 0.47293 0.94526 0.0
H873 H 0.11971 0.47041 0.98465 0.0
H874 H 0.11391 0.42739 0.00577 0.0
H875 H 0.10833 0.42587 0.10988 0.0
H876 H 0.6626 0.06998 0.59362 0.0
H877 H 0.66731 0.07259 0.48802 0.0
H878 H 0.68287 0.1248 0.49827 0.0
H879 H 0.67833 0.12239 0.60265 0.0
H880 H 0.65021 0.08252 0.41409 0.0
H881 H 0.7179 0.12498 0.39094 0.0
H882 H 0.70859 0.11363 0.45724 0.0
H883 H 0.70885 0.1328 0.44198 0.0
C884 C 0.66731 0.08206 0.57338 0.0
C885 C 0.67 0.09595 0.60635 0.0
C886 C 0.67003 0.08353 0.51323 0.0
C887 C 0.67572 0.09895 0.48566 0.0
C888 C 0.6789 0.11289 0.51888 0.0
H889 H 0.67575 0.14544 0.17148 0.0
H890 H 0.67954 0.13727 0.26926 0.0
C891 C 0.6761 0.11142 0.57858 0.0
C892 C 0.67633 0.10032 0.42165 0.0
H893 H 0.70078 0.12478 0.3108 0.0
C894 C 0.66134 0.09143 0.39104 0.0
C895 C 0.69088 0.11202 0.39203 0.0
C896 C 0.70749 0.12127 0.42222 0.0
C897 C 0.66022 0.0948 0.33234 0.0
C898 C 0.67458 0.10717 0.30356 0.0
C899 C 0.68978 0.11541 0.33329 0.0
C900 C 0.67372 0.11247 0.24378 0.0
C901 C 0.64349 0.08581 0.30263 0.0
C902 C 0.66943 0.10129 0.19738 0.0
C903 C 0.66712 0.10586 0.14193 0.0
C904 C 0.6694 0.12182 0.13174 0.0
C905 C 0.67404 0.13312 0.17812 0.0
C906 C 0.67628 0.1285 0.23373 0.0
H907 H 0.63315 0.07905 0.33409 0.0
H908 H 0.64113 0.09469 0.27775 0.0
H909 H 0.64334 0.07659 0.27153 0.0
H910 H 0.66744 0.08887 0.20438 0.0
H911 H 0.66291 0.09662 0.10782 0.0
H912 H 0.56196 0.66127 0.61849 0.0
H913 H 0.57086 0.66145 0.71807 0.0
H914 H 0.53339 0.67224 0.78014 0.0
H915 H 0.52453 0.67238 0.6796 0.0
H916 H 0.5818 0.68577 0.80934 0.0
H917 H 0.52265 0.62762 0.85833 0.0
H918 H 0.52914 0.63509 0.7851 0.0
H919 H 0.52013 0.64432 0.8304 0.0
C920 C 0.55601 0.66435 0.65288 0.0
C921 C 0.54282 0.66727 0.64116 0.0
C922 C 0.561 0.66424 0.70991 0.0
C923 C 0.55272 0.66677 0.75617 0.0
C924 C 0.53983 0.67013 0.74475 0.0
H925 H 0.57262 0.68247 0.11774 0.0
H926 H 0.57276 0.68566 0.01268 0.0
C927 C 0.53482 0.67026 0.68755 0.0
C928 C 0.55693 0.66485 0.81637 0.0
H929 H 0.54085 0.6409 0.9375 0.0
C930 C 0.5729 0.67594 0.83746 0.0
C931 C 0.54541 0.65174 0.85209 0.0
C932 C 0.52842 0.6389 0.83033 0.0
C933 C 0.57747 0.67461 0.89449 0.0
C934 C 0.56565 0.66198 0.93111 0.0
C935 C 0.54988 0.65058 0.90925 0.0
C936 C 0.56873 0.66106 0.99358 0.0
C937 C 0.59485 0.6867 0.91501 0.0
C938 C 0.56661 0.64622 0.01768 0.0
C939 C 0.56635 0.64427 0.07798 0.0
C940 C 0.56803 0.6571 0.11488 0.0
C941 C 0.57117 0.6723 0.09047 0.0
C942 C 0.57143 0.67423 0.03034 0.0
H943 H 0.6037 0.69182 0.87795 0.0
H944 H 0.59481 0.69728 0.93741 0.0
H945 H 0.5994 0.68071 0.9461 0.0
H946 H 0.56443 0.6359 0.98983 0.0
H947 H 0.56396 0.63244 0.09552 0.0
H948 H 0.89772 0.59545 0.60543 0.0
H949 H 0.8909 0.59297 0.50136 0.0
H950 H 0.90501 0.55537 0.48357 0.0
H951 H 0.91143 0.55749 0.58721 0.0
H952 H 0.90788 0.59559 0.3975 0.0
H953 H 0.85633 0.53128 0.43255 0.0
H954 H 0.86691 0.54544 0.49183 0.0
H955 H 0.87577 0.53405 0.45857 0.0
C956 C 0.89969 0.58692 0.57896 0.0
C957 C 0.90491 0.57652 0.60432 0.0
C958 C 0.89571 0.58546 0.51971 0.0
C959 C 0.89701 0.57365 0.48536 0.0
C960 C 0.90347 0.56422 0.5098 0.0
H961 H 0.90147 0.55839 0.125 0.0
H962 H 0.90602 0.56819 0.22528 0.0
C963 C 0.90724 0.56552 0.56886 0.0
C964 C 0.89094 0.57044 0.4247 0.0
H965 H 0.86549 0.53884 0.33387 0.0
C966 C 0.89845 0.58326 0.38354 0.0
C967 C 0.87826 0.55448 0.40697 0.0
C968 C 0.86872 0.54058 0.44994 0.0
C969 C 0.89436 0.58022 0.32431 0.0
C970 C 0.88279 0.56385 0.30595 0.0
C971 C 0.87453 0.55133 0.34773 0.0
C972 C 0.87998 0.55905 0.24374 0.0
C973 C 0.90257 0.59454 0.28209 0.0
C974 C 0.86376 0.55012 0.22116 0.0
C975 C 0.86112 0.54425 0.16389 0.0
C976 C 0.87467 0.54741 0.12828 0.0
C977 C 0.89085 0.55628 0.15094 0.0
C978 C 0.89347 0.56196 0.20822 0.0
H979 H 0.9058 0.60651 0.30359 0.0
H980 H 0.91432 0.59553 0.26607 0.0
H981 H 0.89444 0.59277 0.2442 0.0
H982 H 0.85314 0.54751 0.24807 0.0
H983 H 0.84852 0.53731 0.14738 0.0
H984 H 0.30591 0.8699 0.62223 0.0
H985 H 0.30292 0.87904 0.71937 0.0
H986 H 0.35222 0.88905 0.76367 0.0
H987 H 0.35551 0.88054 0.66638 0.0
H988 H 0.30519 0.8669 0.82908 0.0
H989 H 0.35375 0.93295 0.80317 0.0
H990 H 0.34472 0.91903 0.74205 0.0
H991 H 0.36112 0.91902 0.78381 0.0
C992 C 0.31622 0.87437 0.65226 0.0
C993 C 0.33113 0.87497 0.63618 0.0
C994 C 0.31443 0.87942 0.70787 0.0
C995 C 0.32754 0.88517 0.74797 0.0
C996 C 0.34214 0.8851 0.73273 0.0
H997 H 0.35449 0.90283 0.09331 0.0
H998 H 0.35062 0.89964 0.98824 0.0
C999 C 0.34392 0.88005 0.67739 0.0
C1000 C 0.32601 0.89082 0.80661 0.0
H1001 H 0.34669 0.92291 0.90195 0.0
C1002 C 0.31396 0.87927 0.84479 0.0
C1003 C 0.33738 0.90703 0.82665 0.0
C1004 C 0.34986 0.92028 0.78657 0.0
C1005 C 0.31387 0.88313 0.90379 0.0
C1006 C 0.32606 0.89891 0.92459 0.0
C1007 C 0.3374 0.9108 0.88568 0.0
C1008 C 0.32879 0.90234 0.98746 0.0
C1009 C 0.3015 0.86999 0.94443 0.0
C1010 C 0.31795 0.90528 0.02141 0.0
C1011 C 0.3202 0.90724 0.08174 0.0
C1012 C 0.33321 0.90611 0.10861 0.0
C1013 C 0.34429 0.90367 0.07394 0.0
C1014 C 0.34214 0.90188 0.01393 0.0
H1015 H 0.29318 0.85812 0.92162 0.0
H1016 H 0.30818 0.86751 0.97958 0.0
H1017 H 0.29374 0.87456 0.96524 0.0
H1018 H 0.30761 0.90572 0.00142 0.0
H1019 H 0.31144 0.90904 0.10745 0.0
H1020 H 0.45137 0.33099 0.60004 0.0
H1021 H 0.44862 0.32597 0.49578 0.0
H1022 H 0.40102 0.3236 0.49797 0.0
H1023 H 0.40362 0.32863 0.60354 0.0
H1024 H 0.42065 0.29813 0.42932 0.0
H1025 H 0.43248 0.36211 0.3808 0.0
H1026 H 0.43816 0.35715 0.44992 0.0
H1027 H 0.41668 0.34942 0.43298 0.0
C1028 C 0.44025 0.32935 0.57868 0.0
C1029 C 0.42777 0.33037 0.60995 0.0
C1030 C 0.43867 0.32637 0.51912 0.0
C1031 C 0.42466 0.32447 0.48951 0.0
C1032 C 0.41194 0.32509 0.52041 0.0
H1033 H 0.43214 0.33541 0.11275 0.0
H1034 H 0.41941 0.32933 0.2087 0.0
C1035 C 0.41346 0.32797 0.58049 0.0
C1036 C 0.42424 0.32291 0.42571 0.0
H1037 H 0.43407 0.34665 0.30327 0.0
C1038 C 0.4232 0.30856 0.40134 0.0
C1039 C 0.42751 0.33654 0.38971 0.0
C1040 C 0.42884 0.35225 0.41429 0.0
C1041 C 0.4262 0.30781 0.34195 0.0
C1042 C 0.43073 0.32194 0.30673 0.0
C1043 C 0.43069 0.33586 0.33049 0.0
C1044 C 0.43701 0.32323 0.24671 0.0
C1045 C 0.42484 0.29205 0.31787 0.0
C1046 C 0.45115 0.3218 0.23609 0.0
C1047 C 0.45828 0.32493 0.18071 0.0
C1048 C 0.45143 0.32962 0.13511 0.0
C1049 C 0.43728 0.33106 0.14594 0.0
C1050 C 0.43009 0.3278 0.20112 0.0
H1051 H 0.41586 0.28101 0.34342 0.0
H1052 H 0.42086 0.29014 0.27162 0.0
H1053 H 0.43716 0.29286 0.32072 0.0
H1054 H 0.45704 0.31884 0.27111 0.0
H1055 H 0.46932 0.32398 0.17379 0.0
H1056 H 0.55961 0.91546 0.40005 0.0
H1057 H 0.55731 0.91018 0.50458 0.0
H1058 H 0.592 0.89216 0.49136 0.0
H1059 H 0.59478 0.898 0.38665 0.0
H1060 H 0.54471 0.87934 0.54783 0.0
H1061 H 0.60795 0.9201 0.63796 0.0
H1062 H 0.60199 0.92314 0.56628 0.0
H1063 H 0.60707 0.90707 0.57868 0.0
C1064 C 0.56709 0.9108 0.41975 0.0
C1065 C 0.57738 0.90714 0.38549 0.0
C1066 C 0.56573 0.90774 0.47936 0.0
C1067 C 0.57447 0.90078 0.50577 0.0
C1068 C 0.58537 0.89782 0.47211 0.0
H1069 H 0.53619 0.84913 0.83963 0.0
H1070 H 0.54567 0.8547 0.73803 0.0
C1071 C 0.58695 0.90115 0.41233 0.0
C1072 C 0.57074 0.89516 0.567 0.0
H1073 H 0.58764 0.90064 0.70256 0.0
C1074 C 0.55411 0.88397 0.58169 0.0
C1075 C 0.58303 0.90121 0.61092 0.0
C1076 C 0.60099 0.91365 0.59796 0.0
C1077 C 0.5493 0.87906 0.63937 0.0
C1078 C 0.56157 0.88508 0.6834 0.0
C1079 C 0.57829 0.89594 0.66856 0.0
C1080 C 0.55708 0.88148 0.74562 0.0
C1081 C 0.53102 0.86808 0.65276 0.0
C1082 C 0.56083 0.89468 0.78383 0.0
C1083 C 0.55566 0.89153 0.84165 0.0
C1084 C 0.54669 0.87512 0.8624 0.0
C1085 C 0.54309 0.86189 0.82447 0.0
C1086 C 0.54845 0.86506 0.76658 0.0
H1087 H 0.52303 0.86787 0.61642 0.0
H1088 H 0.52832 0.85514 0.65999 0.0
H1089 H 0.52751 0.87234 0.6927 0.0
H1090 H 0.56735 0.90743 0.76845 0.0
H1091 H 0.55822 0.90195 0.86956 0.0
H1092 H 0.6967 0.56734 0.37839 0.0
H1093 H 0.7001 0.57971 0.28147 0.0
H1094 H 0.65082 0.54076 0.23505 0.0
H1095 H 0.64713 0.52872 0.33207 0.0
H1096 H 0.69797 0.56528 0.17143 0.0
H1097 H 0.64996 0.58357 0.19586 0.0
H1098 H 0.65877 0.57853 0.25728 0.0
H1099 H 0.64231 0.56223 0.21536 0.0
C1100 C 0.68649 0.56163 0.34792 0.0
C1101 C 0.67147 0.54734 0.36329 0.0
C1102 C 0.68851 0.56861 0.29246 0.0
C1103 C 0.67553 0.56141 0.25185 0.0
C1104 C 0.66081 0.54677 0.26641 0.0
H1105 H 0.64912 0.5509 0.90765 0.0
H1106 H 0.65322 0.55211 0.01266 0.0
C1107 C 0.6588 0.5398 0.32158 0.0
C1108 C 0.67731 0.5687 0.19331 0.0
H1109 H 0.65698 0.5803 0.0972 0.0
C1110 C 0.68932 0.56901 0.15545 0.0
C1111 C 0.66611 0.57371 0.17293 0.0
C1112 C 0.65368 0.57467 0.2127 0.0
C1113 C 0.68951 0.57289 0.09635 0.0
C1114 C 0.67743 0.57659 0.07518 0.0
C1115 C 0.66618 0.57741 0.1138 0.0
C1116 C 0.6746 0.57694 0.01227 0.0
C1117 C 0.7018 0.5719 0.05597 0.0
C1118 C 0.68512 0.5907 0.97772 0.0
C1119 C 0.68274 0.59011 0.91741 0.0
C1120 C 0.66991 0.57568 0.89123 0.0
C1121 C 0.65916 0.56216 0.9265 0.0
C1122 C 0.66145 0.56282 0.98646 0.0
H1123 H 0.71034 0.56876 0.07933 0.0
H1124 H 0.69503 0.56232 0.0221 0.0
H1125 H 0.70932 0.58401 0.03348 0.0
H1126 H 0.69532 0.6017 -0.00276 0.0
H1127 H 0.69124 0.60068 0.89121 0.0
H1128 H 0.09921 0.6932 0.38022 0.0
H1129 H 0.10558 0.69822 0.48459 0.0
H1130 H 0.10622 0.65218 0.49744 0.0
H1131 H 0.09991 0.64705 0.39411 0.0
H1132 H 0.08874 0.67495 0.59043 0.0
H1133 H 0.15419 0.69199 0.54616 0.0
H1134 H 0.14073 0.69283 0.49111 0.0
H1135 H 0.13884 0.67323 0.51105 0.0
C1136 C 0.10038 0.684 0.40563 0.0
C1137 C 0.09924 0.66982 0.37893 0.0
C1138 C 0.10406 0.68692 0.46502 0.0
C1139 C 0.10662 0.67569 0.49804 0.0
C1140 C 0.1045 0.66108 0.47223 0.0
H1141 H 0.13041 0.65057 0.81806 0.0
H1142 H 0.125 0.65527 0.71758 0.0
C1143 C 0.10087 0.65817 0.41324 0.0
C1144 C 0.11242 0.67935 0.55876 0.0
H1145 H 0.14479 0.68493 0.64441 0.0
C1146 C 0.1011 0.67752 0.6025 0.0
C1147 C 0.12858 0.68275 0.57384 0.0
C1148 C 0.14137 0.68547 0.52811 0.0
C1149 C 0.10521 0.67789 0.66147 0.0
C1150 C 0.12104 0.68028 0.6764 0.0
C1151 C 0.13265 0.68304 0.6326 0.0
C1152 C 0.12516 0.67819 0.73663 0.0
C1153 C 0.09233 0.67476 0.70733 0.0
C1154 C 0.12748 0.6898 0.77995 0.0
C1155 C 0.13068 0.68718 0.83723 0.0
C1156 C 0.13139 0.67284 0.85181 0.0
C1157 C 0.12975 0.66163 0.80788 0.0
C1158 C 0.12663 0.66427 0.7507 0.0
H1159 H 0.08005 0.67136 0.68813 0.0
H1160 H 0.09076 0.66459 0.73685 0.0
H1161 H 0.09658 0.68614 0.73402 0.0
H1162 H 0.12675 0.7008 0.76948 0.0
H1163 H 0.13256 0.69632 0.87011 0.0
H1164 H 0.45136 0.09696 0.90161 0.0
H1165 H 0.45247 0.10323 0.005 0.0
H1166 H 0.40645 0.10383 0.99092 0.0
H1167 H 0.40516 0.09745 0.88665 0.0
H1168 H 0.45242 0.13395 0.04187 0.0
H1169 H 0.40236 0.07542 0.14201 0.0
H1170 H 0.41205 0.07521 0.07404 0.0
H1171 H 0.39804 0.08322 0.07637 0.0
C1172 C 0.44129 0.09812 0.92057 0.0
C1173 C 0.42822 0.09681 0.88597 0.0
C1174 C 0.44196 0.10171 0.97962 0.0
C1175 C 0.42958 0.10402 0.00528 0.0
C1176 C 0.41605 0.10195 0.97175 0.0
H1177 H 0.43513 0.13128 0.3749 0.0
H1178 H 0.42528 0.12563 0.27422 0.0
C1179 C 0.41533 0.09828 0.91234 0.0
C1180 C 0.43186 0.11 0.06587 0.0
H1181 H 0.41994 0.09705 0.20544 0.0
C1182 C 0.44517 0.12599 0.07767 0.0
C1183 C 0.42224 0.09963 0.11209 0.0
C1184 C 0.40787 0.08237 0.10103 0.0
C1185 C 0.44964 0.13161 0.1349 0.0
C1186 C 0.44072 0.12083 0.18131 0.0
C1187 C 0.42678 0.10522 0.16955 0.0
C1188 C 0.44676 0.12486 0.24181 0.0
C1189 C 0.46416 0.14884 0.14528 0.0
C1190 C 0.46207 0.12629 0.25664 0.0
C1191 C 0.46757 0.1292 0.31411 0.0
C1192 C 0.45777 0.13057 0.35796 0.0
C1193 C 0.44264 0.1296 0.34271 0.0
C1194 C 0.43708 0.12659 0.28508 0.0
H1195 H 0.4664 0.1571 0.10727 0.0
H1196 H 0.4621 0.1546 0.18444 0.0
H1197 H 0.47556 0.14803 0.15235 0.0
H1198 H 0.46961 0.12478 0.22387 0.0
H1199 H 0.47928 0.12988 0.32448 0.0
H1200 H 0.34235 0.44026 0.87374 0.0
H1201 H 0.34248 0.43135 0.77439 0.0
H1202 H 0.33115 0.46831 0.71108 0.0
H1203 H 0.33063 0.47716 0.81139 0.0
H1204 H 0.3181 0.4202 0.68184 0.0
H1205 H 0.37638 0.47946 0.63518 0.0
H1206 H 0.36874 0.47277 0.70814 0.0
H1207 H 0.35961 0.48188 0.66299 0.0
C1208 C 0.33919 0.44608 0.83915 0.0
C1209 C 0.33601 0.45913 0.85047 0.0
C1210 C 0.33949 0.44108 0.78224 0.0
C1211 C 0.33689 0.44923 0.73572 0.0
C1212 C 0.33328 0.46197 0.74671 0.0
H1213 H 0.32181 0.43046 0.37443 0.0
H1214 H 0.31859 0.42992 0.47954 0.0
C1215 C 0.33295 0.46697 0.80378 0.0
C1216 C 0.33905 0.44508 0.67568 0.0
H1217 H 0.36332 0.46141 0.55538 0.0
C1218 C 0.32801 0.42914 0.6541 0.0
C1219 C 0.35227 0.45666 0.64051 0.0
C1220 C 0.36504 0.47361 0.66288 0.0
C1221 C 0.32946 0.42471 0.59698 0.0
C1222 C 0.34218 0.43661 0.56083 0.0
C1223 C 0.35357 0.45231 0.58328 0.0
C1224 C 0.34312 0.43375 0.49815 0.0
C1225 C 0.31739 0.40739 0.57582 0.0
C1226 C 0.35794 0.43591 0.47375 0.0
C1227 C 0.3599 0.4364 0.4134 0.0
C1228 C 0.34712 0.43492 0.3768 0.0
C1229 C 0.33194 0.43176 0.40147 0.0
C1230 C 0.33 0.43127 0.46162 0.0
H1231 H 0.31223 0.39843 0.61255 0.0
H1232 H 0.30683 0.4075 0.55361 0.0
H1233 H 0.32339 0.40292 0.54442 0.0
H1234 H 0.36823 0.43794 0.50143 0.0
H1235 H 0.37172 0.4388 0.39564 0.0
H1236 H 0.85573 0.3219 0.32767 0.0
H1237 H 0.86369 0.31866 0.22915 0.0
H1238 H 0.91146 0.32843 0.29265 0.0
H1239 H 0.90405 0.33269 0.38978 0.0
H1240 H 0.91487 0.34786 0.20439 0.0
H1241 H 0.86855 0.28329 0.14412 0.0
H1242 H 0.85869 0.29445 0.17025 0.0
H1243 H 0.87168 0.29057 0.21843 0.0
C1244 C 0.8678 0.32302 0.32076 0.0
C1245 C 0.87905 0.32709 0.36707 0.0
C1246 C 0.87227 0.32099 0.26456 0.0
C1247 C 0.88803 0.3229 0.25377 0.0
C1248 C 0.89912 0.32659 0.30017 0.0
H1249 H 0.91311 0.31395 0.89006 0.0
H1250 H 0.91091 0.31008 -0.00391 0.0
C1251 C 0.89473 0.32878 0.35614 0.0
C1252 C 0.89371 0.32323 0.19333 0.0
H1253 H 0.88224 0.30238 0.06412 0.0
C1254 C 0.90791 0.33775 0.17406 0.0
C1255 C 0.88482 0.30998 0.15391 0.0
C1256 C 0.87019 0.29363 0.17292 0.0
C1257 C 0.91283 0.3398 0.11566 0.0
C1258 C 0.90311 0.32712 0.07537 0.0
C1259 C 0.88956 0.31216 0.09514 0.0
C1260 C 0.90565 0.32997 0.01208 0.0
C1261 C 0.92812 0.35571 0.09726 0.0
C1262 C 0.90341 0.34241 0.9864 0.0
C1263 C 0.90462 0.34462 0.92636 0.0
C1264 C 0.90803 0.33439 0.89069 0.0
C1265 C 0.91059 0.3221 0.91652 0.0
C1266 C 0.90928 0.31983 0.9769 0.0
H1267 H 0.93692 0.36149 0.1341 0.0
H1268 H 0.93468 0.35348 0.061 0.0
H1269 H 0.92437 0.36473 0.08225 0.0
H1270 H 0.9003 0.35015 0.01275 0.0
H1271 H 0.90255 0.35417 0.90784 0.0
H1272 H 0.18063 0.47146 0.31105 0.0
H1273 H 0.20583 0.4708 0.28335 0.0
H1274 H 0.1766 0.4177 0.25772 0.0
H1275 H 0.15139 0.41832 0.28636 0.0
H1276 H 0.20633 0.42816 0.32135 0.0
H1277 H 0.21767 0.46393 0.11644 0.0
H1278 H 0.21528 0.47396 0.17959 0.0
H1279 H 0.19803 0.45469 0.15455 0.0
C1280 C 0.17966 0.45965 0.29996 0.0
C1281 C 0.16418 0.44493 0.30087 0.0
C1282 C 0.19399 0.45931 0.28362 0.0
C1283 C 0.19302 0.44424 0.26763 0.0
C1284 C 0.17758 0.42946 0.26957 0.0
H1285 H 0.2724 0.43474 0.09876 0.0
H1286 H 0.24573 0.43303 0.1222 0.0
C1287 C 0.16324 0.42982 0.28583 0.0
C1288 C 0.20817 0.4439 0.24956 0.0
H1289 H 0.23936 0.45923 0.14857 0.0
C1290 C 0.21351 0.43487 0.28341 0.0
C1291 C 0.21737 0.45247 0.19957 0.0
C1292 C 0.21175 0.46169 0.16004 0.0
C1293 C 0.22811 0.43459 0.26955 0.0
C1294 C 0.23767 0.44373 0.22095 0.0
C1295 C 0.23207 0.45235 0.1861 0.0
C1296 C 0.25374 0.44481 0.20643 0.0
C1297 C 0.23313 0.42446 0.30689 0.0
C1298 C 0.2671 0.45228 0.2455 0.0
C1299 C 0.28227 0.45332 0.23208 0.0
C1300 C 0.28434 0.44694 0.17932 0.0
C1301 C 0.27107 0.43974 0.1397 0.0
C1302 C 0.25588 0.43873 0.1531 0.0
H1303 H 0.22246 0.41485 0.33234 0.0
H1304 H 0.23836 0.41823 0.27994 0.0
H1305 H 0.24286 0.43284 0.33807 0.0
H1306 H 0.26583 0.4574 0.28626 0.0
H1307 H 0.29243 0.45925 0.26279 0.0
H1308 H 0.82237 0.29381 0.68208 0.0
H1309 H 0.79726 0.26781 0.7098 0.0
H1310 H 0.82755 0.24644 0.75748 0.0
H1311 H 0.85269 0.27245 0.72956 0.0
H1312 H 0.79864 0.22585 0.68408 0.0
H1313 H 0.78346 0.25051 0.8809 0.0
H1314 H 0.7874 0.26271 0.81588 0.0
H1315 H 0.8039 0.26067 0.84814 0.0
C1316 C 0.8236 0.28348 0.69807 0.0
C1317 C 0.83934 0.28496 0.7034 0.0
C1318 C 0.80932 0.26874 0.71433 0.0
C1319 C 0.81061 0.25531 0.73621 0.0
C1320 C 0.82633 0.25672 0.74091 0.0
H1321 H 0.73057 0.16486 0.89609 0.0
H1322 H 0.75722 0.19035 0.87681 0.0
C1323 C 0.84063 0.2715 0.725 0.0
C1324 C 0.79549 0.23968 0.75322 0.0
H1325 H 0.76304 0.22351 0.84924 0.0
C1326 C 0.79089 0.22529 0.72036 0.0
C1327 C 0.78556 0.239 0.801 0.0
C1328 C 0.79034 0.25399 0.83896 0.0
C1329 C 0.77631 0.21029 0.73301 0.0
C1330 C 0.76605 0.20976 0.77945 0.0
C1331 C 0.7709 0.22402 0.81344 0.0
C1332 C 0.74994 0.19463 0.79203 0.0
C1333 C 0.77196 0.19512 0.69656 0.0
C1334 C 0.73699 0.18887 0.75131 0.0
C1335 C 0.72183 0.17449 0.7624 0.0
C1336 C 0.71937 0.16558 0.81435 0.0
C1337 C 0.73221 0.17154 0.85572 0.0
C1338 C 0.74739 0.18601 0.8447 0.0
H1339 H 0.78293 0.19645 0.67241 0.0
H1340 H 0.76684 0.18377 0.72404 0.0
H1341 H 0.76232 0.19337 0.66431 0.0
H1342 H 0.7386 0.19555 0.71096 0.0
H1343 H 0.712 0.17035 0.73039 0.0
H1344 H 0.58186 0.85256 0.23233 0.0
H1345 H 0.58242 0.82716 0.25849 0.0
H1346 H 0.5323 0.79726 0.19455 0.0
H1347 H 0.53168 0.82263 0.16875 0.0
H1348 H 0.53923 0.78885 0.31088 0.0
H1349 H 0.58383 0.7932 0.14025 0.0
H1350 H 0.58984 0.81163 0.18285 0.0
H1351 H 0.57232 0.80411 0.13485 0.0
C1352 C 0.57103 0.84054 0.22369 0.0
C1353 C 0.55681 0.83946 0.19797 0.0
C1354 C 0.57137 0.82609 0.23842 0.0
C1355 C 0.55746 0.81038 0.22788 0.0
C1356 C 0.54318 0.80929 0.20267 0.0
H1357 H 0.54429 0.71167 0.22892 0.0
H1358 H 0.54549 0.73808 0.20693 0.0
C1359 C 0.54288 0.82373 0.18763 0.0
C1360 C 0.55765 0.79503 0.24397 0.0
H1361 H 0.57509 0.77136 0.20852 0.0
C1362 C 0.54709 0.78502 0.28871 0.0
C1363 C 0.56785 0.79008 0.21457 0.0
C1364 C 0.57905 0.8002 0.16513 0.0
C1365 C 0.54651 0.77015 0.30499 0.0
C1366 C 0.5568 0.76526 0.27586 0.0
C1367 C 0.56732 0.77525 0.231 0.0
C1368 C 0.55631 0.74944 0.28964 0.0
C1369 C 0.53465 0.75956 0.35229 0.0
C1370 C 0.56211 0.74717 0.3433 0.0
C1371 C 0.5616 0.73214 0.35568 0.0
C1372 C 0.55529 0.71922 0.31456 0.0
C1373 C 0.54947 0.72154 0.26098 0.0
C1374 C 0.55007 0.73656 0.2485 0.0
H1375 H 0.52553 0.76359 0.3633 0.0
H1376 H 0.52775 0.74629 0.33891 0.0
H1377 H 0.54181 0.7605 0.39211 0.0
H1378 H 0.56714 0.75705 0.37534 0.0
H1379 H 0.56626 0.73067 0.39713 0.0
H1380 H 0.82249 0.53343 0.83741 0.0
H1381 H 0.79722 0.53453 0.815 0.0
H1382 H 0.82676 0.58143 0.72723 0.0
H1383 H 0.85216 0.58063 0.751 0.0
H1384 H 0.79212 0.56466 0.84293 0.0
H1385 H 0.78866 0.54687 0.60962 0.0
H1386 H 0.79913 0.54115 0.66332 0.0
H1387 H 0.80849 0.56227 0.63872 0.0
C1388 C 0.8236 0.54409 0.81416 0.0
C1389 C 0.83925 0.55704 0.79639 0.0
C1390 C 0.80919 0.54464 0.80106 0.0
C1391 C 0.81019 0.55802 0.76931 0.0
C1392 C 0.82578 0.57097 0.75147 0.0
H1393 H 0.7324 0.57458 0.62814 0.0
H1394 H 0.75902 0.57599 0.64975 0.0
C1395 C 0.84022 0.57049 0.76498 0.0
C1396 C 0.79489 0.55843 0.7551 0.0
H1397 H 0.76799 0.55234 0.64428 0.0
C1398 C 0.78681 0.562 0.79955 0.0
C1399 C 0.78818 0.55509 0.69835 0.0
C1400 C 0.79645 0.55104 0.64952 0.0
C1401 C 0.77211 0.56236 0.78869 0.0
C1402 C 0.76509 0.55855 0.7322 0.0
C1403 C 0.77335 0.5552 0.68756 0.0
C1404 C 0.74904 0.55767 0.71883 0.0
C1405 C 0.76443 0.56709 0.83763 0.0
C1406 C 0.73458 0.54668 0.7496 0.0
C1407 C 0.7195 0.546 0.7376 0.0
C1408 C 0.71861 0.55614 0.69417 0.0
C1409 C 0.73291 0.56676 0.66211 0.0
C1410 C 0.74804 0.56754 0.67442 0.0
H1411 H 0.77377 0.5745 0.8715 0.0
H1412 H 0.75877 0.57441 0.82137 0.0
H1413 H 0.75454 0.55562 0.85861 0.0
H1414 H 0.73492 0.53858 0.78277 0.0
H1415 H 0.70851 0.53749 0.76204 0.0
H1416 H 0.27037 0.8409 0.36707 0.0
H1417 H 0.2442 0.81518 0.34458 0.0
H1418 H 0.26926 0.80345 0.21061 0.0
H1419 H 0.29535 0.82913 0.23281 0.0
H1420 H 0.22899 0.80546 0.21884 0.0
H1421 H 0.24473 0.76157 0.32848 0.0
H1422 H 0.25393 0.78314 0.34987 0.0
H1423 H 0.26051 0.77778 0.28401 0.0
C1424 C 0.2702 0.83277 0.3329 0.0
C1425 C 0.28471 0.83692 0.30128 0.0
C1426 C 0.25533 0.81818 0.32007 0.0
C1427 C 0.25489 0.80747 0.27611 0.0
C1428 C 0.26942 0.81156 0.24481 0.0
H1429 H 0.18203 0.71063 0.14571 0.0
H1430 H 0.20718 0.73694 0.16905 0.0
C1431 C 0.28423 0.8262 0.2573 0.0
C1432 C 0.23922 0.79206 0.26228 0.0
H1433 H 0.21984 0.7498 0.2743 0.0
C1434 C 0.22689 0.79326 0.23114 0.0
C1435 C 0.23669 0.77626 0.27812 0.0
C1436 C 0.24958 0.77447 0.31226 0.0
C1437 C 0.21212 0.77895 0.21425 0.0
C1438 C 0.20949 0.76308 0.23039 0.0
C1439 C 0.22185 0.76195 0.26196 0.0
C1440 C 0.19413 0.74745 0.21449 0.0
C1441 C 0.19973 0.78098 0.17778 0.0
C1442 C 0.17844 0.74458 0.23245 0.0
C1443 C 0.16406 0.72968 0.21825 0.0
C1444 C 0.16514 0.71731 0.18652 0.0
C1445 C 0.18084 0.72011 0.16914 0.0
C1446 C 0.1952 0.73506 0.1829 0.0
H1447 H 0.20562 0.79324 0.15544 0.0
H1448 H 0.19395 0.77101 0.14447 0.0
H1449 H 0.18973 0.78022 0.20633 0.0
H1450 H 0.17732 0.75376 0.2581 0.0
H1451 H 0.15209 0.72777 0.23233 0.0
H1452 H 0.42108 0.27002 0.78942 0.0
H1453 H 0.41974 0.24344 0.76765 0.0
H1454 H 0.47115 0.26456 0.81793 0.0
H1455 H 0.47259 0.29121 0.83866 0.0
H1456 H 0.44166 0.23938 0.68528 0.0
H1457 H 0.44517 0.21959 0.91071 0.0
H1458 H 0.43882 0.23469 0.89492 0.0
H1459 H 0.46041 0.24063 0.89182 0.0
C1460 C 0.43203 0.26889 0.79608 0.0
C1461 C 0.44688 0.28252 0.81615 0.0
C1462 C 0.43126 0.25377 0.78373 0.0
C1463 C 0.44529 0.25202 0.79185 0.0
C1464 C 0.46011 0.2656 0.81234 0.0
H1465 H 0.47032 0.1802 0.65878 0.0
H1466 H 0.46908 0.20526 0.68385 0.0
C1467 C 0.46091 0.28076 0.82428 0.0
C1468 C 0.44467 0.23625 0.77641 0.0
H1469 H 0.44735 0.20372 0.83379 0.0
C1470 C 0.44282 0.23153 0.71769 0.0
C1471 C 0.4461 0.22603 0.81896 0.0
C1472 C 0.44761 0.23036 0.88276 0.0
C1473 C 0.44272 0.21698 0.70021 0.0
C1474 C 0.44456 0.20698 0.74259 0.0
C1475 C 0.44604 0.2115 0.80146 0.0
C1476 C 0.44512 0.19184 0.72646 0.0
C1477 C 0.44061 0.21234 0.63664 0.0
C1478 C 0.43214 0.17608 0.74264 0.0
C1479 C 0.43273 0.16178 0.72773 0.0
C1480 C 0.4464 0.16306 0.69689 0.0
C1481 C 0.45948 0.17887 0.68137 0.0
C1482 C 0.45882 0.19316 0.69586 0.0
H1483 H 0.43616 0.21954 0.61116 0.0
H1484 H 0.45275 0.21493 0.61844 0.0
H1485 H 0.43166 0.19885 0.63104 0.0
H1486 H 0.42151 0.17485 0.7665 0.0
H1487 H 0.42253 0.1497 0.74026 0.0
loop_
_geom_bond_atom_site_label_1
_geom_bond_atom_site_label_2
_geom_bond_distance
_geom_bond_site_symmetry_2
_ccdc_geom_bond_type
Co0 O3 1.970 . S
Co0 N17 1.989 . S
Co0 O25 1.967 . S
Co0 O32 1.920 . S
Co1 O4 1.966 . S
Co1 N10 2.022 . S
Co1 N18 1.993 . S
Co1 O26 1.941 . S
C2 O3 1.258 . S
C2 O4 1.263 . S
O3 Co0 1.970 . S
O3 C2 1.258 . S
O4 Co1 1.966 . S
O4 C2 1.263 . S
C5 O6 1.235 . S
C5 O32 1.289 . S
O6 C5 1.235 . S
C7 C9 1.400 . S
C7 N10 1.351 . S
C7 C12 1.501 . S
C8 C9 1.387 . S
C8 N11 1.341 . S
C9 C7 1.400 . S
C9 C8 1.387 . S
N10 Co1 2.022 . S
N10 C7 1.351 . S
N10 N11 1.365 . S
N11 C8 1.341 . S
N11 N10 1.365 . S
N11 H31 0.862 . S
C12 C7 1.501 . S
C12 H13 0.961 . S
C12 H14 0.961 . S
C12 H15 0.960 . S
H13 C12 0.961 . S
H14 C12 0.961 . S
H15 C12 0.960 . S
C16 N17 1.342 . S
C16 C20 1.401 . S
C16 C21 1.499 . S
N17 Co0 1.989 . S
N17 C16 1.342 . S
N17 N18 1.388 . S
N18 Co1 1.993 . S
N18 N17 1.388 . S
N18 C19 1.346 . S
C19 N18 1.346 . S
C19 C20 1.396 . S
C19 C29 1.510 . S
C20 C16 1.401 . S
C20 C19 1.396 . S
C21 C16 1.499 . S
C21 H22 0.959 . S
C21 H23 0.960 . S
C21 H24 0.961 . S
H22 C21 0.959 . S
H23 C21 0.960 . S
H24 C21 0.961 . S
O25 Co0 1.967 . S
O25 C33 1.258 . S
O26 Co1 1.941 . S
O26 C33 1.266 . S
H27 C29 0.959 . S
H28 C29 0.961 . S
C29 C19 1.510 . S
C29 H27 0.959 . S
C29 H28 0.961 . S
C29 H30 0.960 . S
H30 C29 0.960 . S
H31 N11 0.862 . S
O32 Co0 1.920 . S
O32 C5 1.289 . S
C33 O25 1.258 . S
C33 O26 1.266 . S
Co34 O37 1.970 . S
Co34 N51 1.989 . S
Co34 O59 1.967 . S
Co34 O66 1.920 . S
Co35 O38 1.966 . S
Co35 N44 2.022 1_556 S
Co35 N52 1.993 . S
Co35 O60 1.941 . S
C36 O37 1.258 . S
C36 O38 1.263 . S
O37 Co34 1.970 . S
O37 C36 1.258 . S
O38 Co35 1.966 . S
O38 C36 1.263 . S
C39 O40 1.235 . S
C39 O66 1.289 . S
O40 C39 1.235 . S
C41 C43 1.400 . S
C41 N44 1.351 . S
C41 C46 1.501 . S
C42 C43 1.387 . S
C42 N45 1.341 . S
C43 C41 1.400 . S
C43 C42 1.387 . S
N44 Co35 2.022 1_554 S
N44 C41 1.351 . S
N44 N45 1.365 . S
N45 C42 1.341 . S
N45 N44 1.365 . S
N45 H65 0.862 . S
C46 C41 1.501 . S
C46 H47 0.961 . S
C46 H48 0.961 . S
C46 H49 0.960 . S
H47 C46 0.961 . S
H48 C46 0.961 . S
H49 C46 0.960 . S
C50 N51 1.342 . S
C50 C54 1.401 . S
C50 C55 1.499 . S
N51 Co34 1.989 . S
N51 C50 1.342 . S
N51 N52 1.388 . S
N52 Co35 1.993 . S
N52 N51 1.388 . S
N52 C53 1.346 . S
C53 N52 1.346 . S
C53 C54 1.396 . S
C53 C63 1.510 . S
C54 C50 1.401 . S
C54 C53 1.396 . S
C55 C50 1.499 . S
C55 H56 0.959 . S
C55 H57 0.960 . S
C55 H58 0.961 . S
H56 C55 0.959 . S
H57 C55 0.960 . S
H58 C55 0.961 . S
O59 Co34 1.967 . S
O59 C67 1.258 . S
O60 Co35 1.941 . S
O60 C67 1.266 . S
H61 C63 0.959 . S
H62 C63 0.961 . S
C63 C53 1.510 . S
C63 H61 0.959 . S
C63 H62 0.961 . S
C63 H64 0.960 . S
H64 C63 0.960 . S
H65 N45 0.862 . S
O66 Co34 1.920 . S
O66 C39 1.289 . S
C67 O59 1.258 . S
C67 O60 1.266 . S
Co68 O71 1.970 . S
Co68 N85 1.989 . S
Co68 O93 1.967 . S
Co68 O100 1.920 . S
Co69 O72 1.966 . S
Co69 N78 2.022 . S
Co69 N86 1.993 . S
Co69 O94 1.941 . S
C70 O71 1.258 . S
C70 O72 1.263 . S
O71 Co68 1.970 . S
O71 C70 1.258 . S
O72 Co69 1.966 . S
O72 C70 1.263 . S
C73 O74 1.235 . S
C73 O100 1.289 . S
O74 C73 1.235 . S
C75 C77 1.400 . S
C75 N78 1.351 . S
C75 C80 1.501 . S
C76 C77 1.387 . S
C76 N79 1.341 . S
C77 C75 1.400 . S
C77 C76 1.387 . S
N78 Co69 2.022 . S
N78 C75 1.351 . S
N78 N79 1.365 . S
N79 C76 1.341 . S
N79 N78 1.365 . S
N79 H99 0.862 . S
C80 C75 1.501 . S
C80 H81 0.961 . S
C80 H82 0.961 . S
C80 H83 0.960 . S
H81 C80 0.961 . S
H82 C80 0.961 . S
H83 C80 0.960 . S
C84 N85 1.342 . S
C84 C88 1.401 . S
C84 C89 1.499 . S
N85 Co68 1.989 . S
N85 C84 1.342 . S
N85 N86 1.388 . S
N86 Co69 1.993 . S
N86 N85 1.388 . S
N86 C87 1.346 . S
C87 N86 1.346 . S
C87 C88 1.396 . S
C87 C97 1.510 . S
C88 C84 1.401 . S
C88 C87 1.396 . S
C89 C84 1.499 . S
C89 H90 0.959 . S
C89 H91 0.960 . S
C89 H92 0.961 . S
H90 C89 0.959 . S
H91 C89 0.960 . S
H92 C89 0.961 . S
O93 Co68 1.967 . S
O93 C101 1.258 . S
O94 Co69 1.941 . S
O94 C101 1.266 . S
H95 C97 0.959 . S
H96 C97 0.961 . S
C97 C87 1.510 . S
C97 H95 0.959 . S
C97 H96 0.961 . S
C97 H98 0.960 . S
H98 C97 0.960 . S
H99 N79 0.862 . S
O100 Co68 1.920 . S
O100 C73 1.289 . S
C101 O93 1.258 . S
C101 O94 1.266 . S
Co102 O105 1.970 . S
Co102 N119 1.989 . S
Co102 O127 1.967 . S
Co102 O134 1.920 . S
Co103 O106 1.966 . S
Co103 N112 2.022 1_556 S
Co103 N120 1.993 . S
Co103 O128 1.941 . S
C104 O105 1.258 . S
C104 O106 1.263 . S
O105 Co102 1.970 . S
O105 C104 1.258 . S
O106 Co103 1.966 . S
O106 C104 1.263 . S
C107 O108 1.235 . S
C107 O134 1.289 . S
O108 C107 1.235 . S
C109 C111 1.400 . S
C109 N112 1.351 . S
C109 C114 1.501 . S
C110 C111 1.387 . S
C110 N113 1.341 . S
C111 C109 1.400 . S
C111 C110 1.387 . S
N112 Co103 2.022 1_554 S
N112 C109 1.351 . S
N112 N113 1.365 . S
N113 C110 1.341 . S
N113 N112 1.365 . S
N113 H133 0.862 . S
C114 C109 1.501 . S
C114 H115 0.961 . S
C114 H116 0.961 . S
C114 H117 0.960 . S
H115 C114 0.961 . S
H116 C114 0.961 . S
H117 C114 0.960 . S
C118 N119 1.342 . S
C118 C122 1.401 . S
C118 C123 1.499 . S
N119 Co102 1.989 . S
N119 C118 1.342 . S
N119 N120 1.388 . S
N120 Co103 1.993 . S
N120 N119 1.388 . S
N120 C121 1.346 . S
C121 N120 1.346 . S
C121 C122 1.396 . S
C121 C131 1.510 . S
C122 C118 1.401 . S
C122 C121 1.396 . S
C123 C118 1.499 . S
C123 H124 0.959 . S
C123 H125 0.960 . S
C123 H126 0.961 . S
H124 C123 0.959 . S
H125 C123 0.960 . S
H126 C123 0.961 . S
O127 Co102 1.967 . S
O127 C135 1.258 . S
O128 Co103 1.941 . S
O128 C135 1.266 . S
H129 C131 0.959 . S
H130 C131 0.961 . S
C131 C121 1.510 . S
C131 H129 0.959 . S
C131 H130 0.961 . S
C131 H132 0.960 . S
H132 C131 0.960 . S
H133 N113 0.862 . S
O134 Co102 1.920 . S
O134 C107 1.289 . S
C135 O127 1.258 . S
C135 O128 1.266 . S
Co136 O139 1.970 . S
Co136 N153 1.989 . S
Co136 O161 1.967 . S
Co136 O168 1.920 . S
Co137 O140 1.966 . S
Co137 N146 2.022 . S
Co137 N154 1.993 . S
Co137 O162 1.941 . S
C138 O139 1.258 . S
C138 O140 1.263 . S
O139 Co136 1.970 . S
O139 C138 1.258 . S
O140 Co137 1.966 . S
O140 C138 1.263 . S
C141 O142 1.235 . S
C141 O168 1.289 . S
O142 C141 1.235 . S
C143 C145 1.400 . S
C143 N146 1.351 . S
C143 C148 1.501 . S
C144 C145 1.387 . S
C144 N147 1.341 . S
C145 C143 1.400 . S
C145 C144 1.387 . S
N146 Co137 2.022 . S
N146 C143 1.351 . S
N146 N147 1.365 . S
N147 C144 1.341 . S
N147 N146 1.365 . S
N147 H167 0.862 . S
C148 C143 1.501 . S
C148 H149 0.961 . S
C148 H150 0.961 . S
C148 H151 0.960 . S
H149 C148 0.961 . S
H150 C148 0.961 . S
H151 C148 0.960 . S
C152 N153 1.342 . S
C152 C156 1.401 . S
C152 C157 1.499 . S
N153 Co136 1.989 . S
N153 C152 1.342 . S
N153 N154 1.388 . S
N154 Co137 1.993 . S
N154 N153 1.388 . S
N154 C155 1.346 . S
C155 N154 1.346 . S
C155 C156 1.396 . S
C155 C165 1.510 . S
C156 C152 1.401 . S
C156 C155 1.396 . S
C157 C152 1.499 . S
C157 H158 0.959 . S
C157 H159 0.960 . S
C157 H160 0.961 . S
H158 C157 0.959 . S
H159 C157 0.960 . S
H160 C157 0.961 . S
O161 Co136 1.967 . S
O161 C169 1.258 . S
O162 Co137 1.941 . S
O162 C169 1.266 . S
H163 C165 0.959 . S
H164 C165 0.961 . S
C165 C155 1.510 . S
C165 H163 0.959 . S
C165 H164 0.961 . S
C165 H166 0.960 . S
H166 C165 0.960 . S
H167 N147 0.862 . S
O168 Co136 1.920 . S
O168 C141 1.289 . S
C169 O161 1.258 . S
C169 O162 1.266 . S
Co170 O173 1.970 . S
Co170 N187 1.989 . S
Co170 O195 1.967 . S
Co170 O202 1.920 . S
Co171 O174 1.966 . S
Co171 N180 2.022 1_556 S
Co171 N188 1.993 . S
Co171 O196 1.941 . S
C172 O173 1.258 . S
C172 O174 1.263 . S
O173 Co170 1.970 . S
O173 C172 1.258 . S
O174 Co171 1.966 . S
O174 C172 1.263 . S
C175 O176 1.235 . S
C175 O202 1.289 . S
O176 C175 1.235 . S
C177 C179 1.400 . S
C177 N180 1.351 . S
C177 C182 1.501 . S
C178 C179 1.387 . S
C178 N181 1.341 . S
C179 C177 1.400 . S
C179 C178 1.387 . S
N180 Co171 2.022 1_554 S
N180 C177 1.351 . S
N180 N181 1.365 . S
N181 C178 1.341 . S
N181 N180 1.365 . S
N181 H201 0.862 . S
C182 C177 1.501 . S
C182 H183 0.961 . S
C182 H184 0.961 . S
C182 H185 0.960 . S
H183 C182 0.961 . S
H184 C182 0.961 . S
H185 C182 0.960 . S
C186 N187 1.342 . S
C186 C190 1.401 . S
C186 C191 1.499 . S
N187 Co170 1.989 . S
N187 C186 1.342 . S
N187 N188 1.388 . S
N188 Co171 1.993 . S
N188 N187 1.388 . S
N188 C189 1.346 . S
C189 N188 1.346 . S
C189 C190 1.396 . S
C189 C199 1.510 . S
C190 C186 1.401 . S
C190 C189 1.396 . S
C191 C186 1.499 . S
C191 H192 0.959 . S
C191 H193 0.960 . S
C191 H194 0.961 . S
H192 C191 0.959 . S
H193 C191 0.960 . S
H194 C191 0.961 . S
O195 Co170 1.967 . S
O195 C203 1.258 . S
O196 Co171 1.941 . S
O196 C203 1.266 . S
H197 C199 0.959 . S
H198 C199 0.961 . S
C199 C189 1.510 . S
C199 H197 0.959 . S
C199 H198 0.961 . S
C199 H200 0.960 . S
H200 C199 0.960 . S
H201 N181 0.862 . S
O202 Co170 1.920 . S
O202 C175 1.289 . S
C203 O195 1.258 . S
C203 O196 1.266 . S
Co204 O207 1.970 . S
Co204 N221 1.989 . S
Co204 O229 1.967 . S
Co204 O236 1.920 . S
Co205 O208 1.966 . S
Co205 N214 2.022 1_554 S
Co205 N222 1.993 . S
Co205 O230 1.941 . S
C206 O207 1.258 . S
C206 O208 1.263 . S
O207 Co204 1.970 . S
O207 C206 1.258 . S
O208 Co205 1.966 . S
O208 C206 1.263 . S
C209 O210 1.235 . S
C209 O236 1.289 . S
O210 C209 1.235 . S
C211 C213 1.400 . S
C211 N214 1.351 . S
C211 C216 1.501 . S
C212 C213 1.387 . S
C212 N215 1.341 . S
C213 C211 1.400 . S
C213 C212 1.387 . S
N214 Co205 2.022 1_556 S
N214 C211 1.351 . S
N214 N215 1.365 . S
N215 C212 1.341 . S
N215 N214 1.365 . S
N215 H235 0.862 . S
C216 C211 1.501 . S
C216 H217 0.961 . S
C216 H218 0.961 . S
C216 H219 0.960 . S
H217 C216 0.961 . S
H218 C216 0.961 . S
H219 C216 0.960 . S
C220 N221 1.342 . S
C220 C224 1.401 . S
C220 C225 1.499 . S
N221 Co204 1.989 . S
N221 C220 1.342 . S
N221 N222 1.388 . S
N222 Co205 1.993 . S
N222 N221 1.388 . S
N222 C223 1.346 . S
C223 N222 1.346 . S
C223 C224 1.396 . S
C223 C233 1.510 . S
C224 C220 1.401 . S
C224 C223 1.396 . S
C225 C220 1.499 . S
C225 H226 0.959 . S
C225 H227 0.960 . S
C225 H228 0.961 . S
H226 C225 0.959 . S
H227 C225 0.960 . S
H228 C225 0.961 . S
O229 Co204 1.967 . S
O229 C237 1.258 . S
O230 Co205 1.941 . S
O230 C237 1.266 . S
H231 C233 0.959 . S
H232 C233 0.961 . S
C233 C223 1.510 . S
C233 H231 0.959 . S
C233 H232 0.961 . S
C233 H234 0.960 . S
H234 C233 0.960 . S
H235 N215 0.862 . S
O236 Co204 1.920 . S
O236 C209 1.289 . S
C237 O229 1.258 . S
C237 O230 1.266 . S
Co238 O241 1.970 . S
Co238 N255 1.989 . S
Co238 O263 1.967 . S
Co238 O270 1.920 . S
Co239 O242 1.966 . S
Co239 N248 2.022 . S
Co239 N256 1.993 . S
Co239 O264 1.941 . S
C240 O241 1.258 . S
C240 O242 1.263 . S
O241 Co238 1.970 . S
O241 C240 1.258 . S
O242 Co239 1.966 . S
O242 C240 1.263 . S
C243 O244 1.235 . S
C243 O270 1.289 . S
O244 C243 1.235 . S
C245 C247 1.400 . S
C245 N248 1.351 . S
C245 C250 1.501 . S
C246 C247 1.387 . S
C246 N249 1.341 . S
C247 C245 1.400 . S
C247 C246 1.387 . S
N248 Co239 2.022 . S
N248 C245 1.351 . S
N248 N249 1.365 . S
N249 C246 1.341 . S
N249 N248 1.365 . S
N249 H269 0.862 . S
C250 C245 1.501 . S
C250 H251 0.961 . S
C250 H252 0.961 . S
C250 H253 0.960 . S
H251 C250 0.961 . S
H252 C250 0.961 . S
H253 C250 0.960 . S
C254 N255 1.342 . S
C254 C258 1.401 . S
C254 C259 1.499 . S
N255 Co238 1.989 . S
N255 C254 1.342 . S
N255 N256 1.388 . S
N256 Co239 1.993 . S
N256 N255 1.388 . S
N256 C257 1.346 . S
C257 N256 1.346 . S
C257 C258 1.396 . S
C257 C267 1.510 . S
C258 C254 1.401 . S
C258 C257 1.396 . S
C259 C254 1.499 . S
C259 H260 0.959 . S
C259 H261 0.960 . S
C259 H262 0.961 . S
H260 C259 0.959 . S
H261 C259 0.960 . S
H262 C259 0.961 . S
O263 Co238 1.967 . S
O263 C271 1.258 . S
O264 Co239 1.941 . S
O264 C271 1.266 . S
H265 C267 0.959 . S
H266 C267 0.961 . S
C267 C257 1.510 . S
C267 H265 0.959 . S
C267 H266 0.961 . S
C267 H268 0.960 . S
H268 C267 0.960 . S
H269 N249 0.862 . S
O270 Co238 1.920 . S
O270 C243 1.289 . S
C271 O263 1.258 . S
C271 O264 1.266 . S
Co272 O275 1.970 . S
Co272 N289 1.989 . S
Co272 O297 1.967 . S
Co272 O304 1.920 . S
Co273 O276 1.966 . S
Co273 N282 2.022 1_554 S
Co273 N290 1.993 . S
Co273 O298 1.941 . S
C274 O275 1.258 . S
C274 O276 1.263 . S
O275 Co272 1.970 . S
O275 C274 1.258 . S
O276 Co273 1.966 . S
O276 C274 1.263 . S
C277 O278 1.235 . S
C277 O304 1.289 . S
O278 C277 1.235 . S
C279 C281 1.400 . S
C279 N282 1.351 . S
C279 C284 1.501 . S
C280 C281 1.387 . S
C280 N283 1.341 . S
C281 C279 1.400 . S
C281 C280 1.387 . S
N282 Co273 2.022 1_556 S
N282 C279 1.351 . S
N282 N283 1.365 . S
N283 C280 1.341 . S
N283 N282 1.365 . S
N283 H303 0.862 . S
C284 C279 1.501 . S
C284 H285 0.961 . S
C284 H286 0.961 . S
C284 H287 0.960 . S
H285 C284 0.961 . S
H286 C284 0.961 . S
H287 C284 0.960 . S
C288 N289 1.342 . S
C288 C292 1.401 . S
C288 C293 1.499 . S
N289 Co272 1.989 . S
N289 C288 1.342 . S
N289 N290 1.388 . S
N290 Co273 1.993 . S
N290 N289 1.388 . S
N290 C291 1.346 . S
C291 N290 1.346 . S
C291 C292 1.396 . S
C291 C301 1.510 . S
C292 C288 1.401 . S
C292 C291 1.396 . S
C293 C288 1.499 . S
C293 H294 0.959 . S
C293 H295 0.960 . S
C293 H296 0.961 . S
H294 C293 0.959 . S
H295 C293 0.960 . S
H296 C293 0.961 . S
O297 Co272 1.967 . S
O297 C305 1.258 . S
O298 Co273 1.941 . S
O298 C305 1.266 . S
H299 C301 0.959 . S
H300 C301 0.961 . S
C301 C291 1.510 . S
C301 H299 0.959 . S
C301 H300 0.961 . S
C301 H302 0.960 . S
H302 C301 0.960 . S
H303 N283 0.862 . S
O304 Co272 1.920 . S
O304 C277 1.289 . S
C305 O297 1.258 . S
C305 O298 1.266 . S
Co306 O309 1.970 . S
Co306 N323 1.989 . S
Co306 O331 1.967 . S
Co306 O338 1.920 . S
Co307 O310 1.966 . S
Co307 N316 2.022 . S
Co307 N324 1.993 . S
Co307 O332 1.941 . S
C308 O309 1.258 . S
C308 O310 1.263 . S
O309 Co306 1.970 . S
O309 C308 1.258 . S
O310 Co307 1.966 . S
O310 C308 1.263 . S
C311 O312 1.235 . S
C311 O338 1.289 . S
O312 C311 1.235 . S
C313 C315 1.400 . S
C313 N316 1.351 . S
C313 C318 1.501 . S
C314 C315 1.387 . S
C314 N317 1.341 . S
C315 C313 1.400 . S
C315 C314 1.387 . S
N316 Co307 2.022 . S
N316 C313 1.351 . S
N316 N317 1.365 . S
N317 C314 1.341 . S
N317 N316 1.365 . S
N317 H337 0.862 . S
C318 C313 1.501 . S
C318 H319 0.961 . S
C318 H320 0.961 . S
C318 H321 0.960 . S
H319 C318 0.961 . S
H320 C318 0.961 . S
H321 C318 0.960 . S
C322 N323 1.342 . S
C322 C326 1.401 . S
C322 C327 1.499 . S
N323 Co306 1.989 . S
N323 C322 1.342 . S
N323 N324 1.388 . S
N324 Co307 1.993 . S
N324 N323 1.388 . S
N324 C325 1.346 . S
C325 N324 1.346 . S
C325 C326 1.396 . S
C325 C335 1.510 . S
C326 C322 1.401 . S
C326 C325 1.396 . S
C327 C322 1.499 . S
C327 H328 0.959 . S
C327 H329 0.960 . S
C327 H330 0.961 . S
H328 C327 0.959 . S
H329 C327 0.960 . S
H330 C327 0.961 . S
O331 Co306 1.967 . S
O331 C339 1.258 . S
O332 Co307 1.941 . S
O332 C339 1.266 . S
H333 C335 0.959 . S
H334 C335 0.961 . S
C335 C325 1.510 . S
C335 H333 0.959 . S
C335 H334 0.961 . S
C335 H336 0.960 . S
H336 C335 0.960 . S
H337 N317 0.862 . S
O338 Co306 1.920 . S
O338 C311 1.289 . S
C339 O331 1.258 . S
C339 O332 1.266 . S
Co340 O343 1.970 . S
Co340 N357 1.989 . S
Co340 O365 1.967 . S
Co340 O372 1.920 . S
Co341 O344 1.966 . S
Co341 N350 2.022 1_554 S
Co341 N358 1.993 . S
Co341 O366 1.941 . S
C342 O343 1.258 . S
C342 O344 1.263 . S
O343 Co340 1.970 . S
O343 C342 1.258 . S
O344 Co341 1.966 . S
O344 C342 1.263 . S
C345 O346 1.235 . S
C345 O372 1.289 . S
O346 C345 1.235 . S
C347 C349 1.400 . S
C347 N350 1.351 . S
C347 C352 1.501 . S
C348 C349 1.387 . S
C348 N351 1.341 . S
C349 C347 1.400 . S
C349 C348 1.387 . S
N350 Co341 2.022 1_556 S
N350 C347 1.351 . S
N350 N351 1.365 . S
N351 C348 1.341 . S
N351 N350 1.365 . S
N351 H371 0.862 . S
C352 C347 1.501 . S
C352 H353 0.961 . S
C352 H354 0.961 . S
C352 H355 0.960 . S
H353 C352 0.961 . S
H354 C352 0.961 . S
H355 C352 0.960 . S
C356 N357 1.342 . S
C356 C360 1.401 . S
C356 C361 1.499 . S
N357 Co340 1.989 . S
N357 C356 1.342 . S
N357 N358 1.388 . S
N358 Co341 1.993 . S
N358 N357 1.388 . S
N358 C359 1.346 . S
C359 N358 1.346 . S
C359 C360 1.396 . S
C359 C369 1.510 . S
C360 C356 1.401 . S
C360 C359 1.396 . S
C361 C356 1.499 . S
C361 H362 0.959 . S
C361 H363 0.960 . S
C361 H364 0.961 . S
H362 C361 0.959 . S
H363 C361 0.960 . S
H364 C361 0.961 . S
O365 Co340 1.967 . S
O365 C373 1.258 . S
O366 Co341 1.941 . S
O366 C373 1.266 . S
H367 C369 0.959 . S
H368 C369 0.961 . S
C369 C359 1.510 . S
C369 H367 0.959 . S
C369 H368 0.961 . S
C369 H370 0.960 . S
H370 C369 0.960 . S
H371 N351 0.862 . S
O372 Co340 1.920 . S
O372 C345 1.289 . S
C373 O365 1.258 . S
C373 O366 1.266 . S
Co374 O377 1.970 . S
Co374 N391 1.989 . S
Co374 O399 1.967 . S
Co374 O406 1.920 . S
Co375 O378 1.966 . S
Co375 N384 2.022 . S
Co375 N392 1.993 . S
Co375 O400 1.941 . S
C376 O377 1.258 . S
C376 O378 1.263 . S
O377 Co374 1.970 . S
O377 C376 1.258 . S
O378 Co375 1.966 . S
O378 C376 1.263 . S
C379 O380 1.235 . S
C379 O406 1.289 . S
O380 C379 1.235 . S
C381 C383 1.400 . S
C381 N384 1.351 . S
C381 C386 1.501 . S
C382 C383 1.387 . S
C382 N385 1.341 . S
C383 C381 1.400 . S
C383 C382 1.387 . S
N384 Co375 2.022 . S
N384 C381 1.351 . S
N384 N385 1.365 . S
N385 C382 1.341 . S
N385 N384 1.365 . S
N385 H405 0.862 . S
C386 C381 1.501 . S
C386 H387 0.961 . S
C386 H388 0.961 . S
C386 H389 0.960 . S
H387 C386 0.961 . S
H388 C386 0.961 . S
H389 C386 0.960 . S
C390 N391 1.342 . S
C390 C394 1.401 . S
C390 C395 1.499 . S
N391 Co374 1.989 . S
N391 C390 1.342 . S
N391 N392 1.388 . S
N392 Co375 1.993 . S
N392 N391 1.388 . S
N392 C393 1.346 . S
C393 N392 1.346 . S
C393 C394 1.396 . S
C393 C403 1.510 . S
C394 C390 1.401 . S
C394 C393 1.396 . S
C395 C390 1.499 . S
C395 H396 0.959 . S
C395 H397 0.960 . S
C395 H398 0.961 . S
H396 C395 0.959 . S
H397 C395 0.960 . S
H398 C395 0.961 . S
O399 Co374 1.967 . S
O399 C407 1.258 . S
O400 Co375 1.941 . S
O400 C407 1.266 . S
H401 C403 0.959 . S
H402 C403 0.961 . S
C403 C393 1.510 . S
C403 H401 0.959 . S
C403 H402 0.961 . S
C403 H404 0.960 . S
H404 C403 0.960 . S
H405 N385 0.862 . S
O406 Co374 1.920 . S
O406 C379 1.289 . S
C407 O399 1.258 . S
C407 O400 1.266 . S
H408 C416 0.929 . S
H409 C418 0.930 . S
H410 C420 0.930 . S
H411 C423 0.929 . S
H412 C426 0.930 . S
H413 C428 0.960 . S
H414 C428 0.960 . S
H415 C428 0.960 . S
C416 H408 0.929 . S
C416 C417 1.377 . S
C416 C418 1.384 . S
C417 C416 1.377 . S
C417 C423 1.390 . S
C418 H409 0.930 . S
C418 C416 1.384 . S
C418 C419 1.372 . S
C419 C418 1.372 . S
C419 C420 1.400 . S
C419 C424 1.490 . S
C420 H410 0.930 . S
C420 C419 1.400 . S
C420 C423 1.386 . S
H421 C437 0.930 . S
H422 C438 0.931 . S
C423 H411 0.929 . S
C423 C417 1.390 . S
C423 C420 1.386 . S
C424 C419 1.490 . S
C424 C426 1.395 . S
C424 C427 1.403 . S
H425 C431 0.930 . S
C426 H412 0.930 . S
C426 C424 1.395 . S
C426 C429 1.403 1_455 S
C427 C424 1.403 . S
C427 C428 1.524 . S
C427 C431 1.400 1_455 S
C428 H413 0.960 . S
C428 H414 0.960 . S
C428 H415 0.960 . S
C428 C427 1.524 . S
C429 C426 1.403 1_655 S
C429 C430 1.392 . S
C429 C433 1.495 . S
C430 C429 1.392 . S
C430 C431 1.385 . S
C430 C432 1.478 . S
C431 H425 0.930 . S
C431 C427 1.400 1_655 S
C431 C430 1.385 . S
C432 C430 1.478 . S
C432 C434 1.381 . S
C432 C438 1.383 . S
C433 C429 1.495 . S
C433 H439 0.959 . S
C433 H440 0.961 . S
C433 H441 0.960 . S
C434 C432 1.381 . S
C434 C435 1.394 . S
C434 H442 0.930 . S
C435 C434 1.394 . S
C435 C436 1.383 . S
C435 H443 0.929 . S
C436 C435 1.383 . S
C436 C437 1.377 . S
C437 H421 0.930 . S
C437 C436 1.377 . S
C437 C438 1.379 . S
C438 H422 0.931 . S
C438 C432 1.383 . S
C438 C437 1.379 . S
H439 C433 0.959 . S
H440 C433 0.961 . S
H441 C433 0.960 . S
H442 C434 0.930 . S
H443 C435 0.929 . S
H444 C452 0.929 . S
H445 C454 0.930 . S
H446 C456 0.930 . S
H447 C459 0.929 . S
H448 C462 0.930 . S
H449 C464 0.960 1_565 S
H450 C464 0.960 . S
H451 C464 0.960 . S
C452 H444 0.929 . S
C452 C453 1.377 . S
C452 C454 1.384 . S
C453 C452 1.377 . S
C453 C459 1.390 . S
C454 H445 0.930 . S
C454 C452 1.384 . S
C454 C455 1.372 . S
C455 C454 1.372 . S
C455 C456 1.400 . S
C455 C460 1.490 . S
C456 H446 0.930 . S
C456 C455 1.400 . S
C456 C459 1.386 . S
H457 C473 0.930 . S
H458 C474 0.931 . S
C459 H447 0.929 . S
C459 C453 1.390 . S
C459 C456 1.386 . S
C460 C455 1.490 . S
C460 C462 1.395 1_556 S
C460 C463 1.403 . S
H461 C467 0.930 . S
C462 H448 0.930 . S
C462 C460 1.395 1_554 S
C462 C465 1.388 1_545 S
C463 C460 1.403 . S
C463 C464 1.524 . S
C463 C467 1.400 1_545 S
C464 H449 0.960 1_545 S
C464 H450 0.960 . S
C464 H451 0.960 . S
C464 C463 1.524 . S
C465 C462 1.388 1_565 S
C465 C466 1.403 . S
C465 C469 1.492 . S
C466 C465 1.403 . S
C466 C467 1.385 1_554 S
C466 C468 1.478 . S
C467 H461 0.930 . S
C467 C463 1.400 1_565 S
C467 C466 1.385 1_556 S
C468 C466 1.478 . S
C468 C470 1.381 . S
C468 C474 1.383 . S
C469 C465 1.492 . S
C469 H475 0.935 1_565 S
C469 H476 0.958 . S
C469 H477 0.995 . S
C470 C468 1.381 . S
C470 C471 1.394 . S
C470 H478 0.930 . S
C471 C470 1.394 . S
C471 C472 1.383 . S
C471 H479 0.929 . S
C472 C471 1.383 . S
C472 C473 1.377 . S
C473 H457 0.930 . S
C473 C472 1.377 . S
C473 C474 1.379 . S
C474 H458 0.931 . S
C474 C468 1.383 . S
C474 C473 1.379 . S
H475 C469 0.935 1_545 S
H476 C469 0.958 . S
H477 C469 0.995 . S
H478 C470 0.930 . S
H479 C471 0.929 . S
H480 C488 0.929 . S
H481 C490 0.930 . S
H482 C492 0.930 . S
H483 C495 0.929 . S
H484 C498 0.930 . S
H485 C500 0.960 . S
H486 C500 0.960 . S
H487 C500 0.960 . S
C488 H480 0.929 . S
C488 C489 1.377 . S
C488 C490 1.384 . S
C489 C488 1.377 . S
C489 C495 1.390 . S
C490 H481 0.930 . S
C490 C488 1.384 . S
C490 C491 1.372 . S
C491 C490 1.372 . S
C491 C492 1.400 . S
C491 C496 1.490 . S
C492 H482 0.930 . S
C492 C491 1.400 . S
C492 C495 1.386 . S
H493 C509 0.930 . S
H494 C510 0.931 . S
C495 H483 0.929 . S
C495 C489 1.390 . S
C495 C492 1.386 . S
C496 C491 1.490 . S
C496 C498 1.395 . S
C496 C499 1.403 . S
H497 C503 0.930 . S
C498 H484 0.930 . S
C498 C496 1.395 . S
C498 C501 1.403 . S
C499 C496 1.403 . S
C499 C500 1.524 . S
C499 C503 1.400 . S
C500 H485 0.960 . S
C500 H486 0.960 . S
C500 H487 0.960 . S
C500 C499 1.524 . S
C501 C498 1.403 . S
C501 C502 1.392 . S
C501 C505 1.495 . S
C502 C501 1.392 . S
C502 C503 1.385 . S
C502 C504 1.478 . S
C503 H497 0.930 . S
C503 C499 1.400 . S
C503 C502 1.385 . S
C504 C502 1.478 . S
C504 C506 1.381 . S
C504 C510 1.383 . S
C505 C501 1.495 . S
C505 H511 0.959 . S
C505 H512 0.961 . S
C505 H513 0.960 . S
C506 C504 1.381 . S
C506 C507 1.394 . S
C506 H514 0.930 . S
C507 C506 1.394 . S
C507 C508 1.383 . S
C507 H515 0.929 . S
C508 C507 1.383 . S
C508 C509 1.377 . S
C509 H493 0.930 . S
C509 C508 1.377 . S
C509 C510 1.379 . S
C510 H494 0.931 . S
C510 C504 1.383 . S
C510 C509 1.379 . S
H511 C505 0.959 . S
H512 C505 0.961 . S
H513 C505 0.960 . S
H514 C506 0.930 . S
H515 C507 0.929 . S
H516 C524 0.929 . S
H517 C526 0.930 . S
H518 C528 0.930 . S
H519 C531 0.929 . S
H520 C534 0.930 . S
H521 C536 0.960 1_655 S
H522 C536 0.960 . S
H523 C536 0.960 . S
C524 H516 0.929 . S
C524 C525 1.377 . S
C524 C526 1.384 . S
C525 C524 1.377 . S
C525 C531 1.390 . S
C526 H517 0.930 . S
C526 C524 1.384 . S
C526 C527 1.372 . S
C527 C526 1.372 . S
C527 C528 1.400 . S
C527 C532 1.490 . S
C528 H518 0.930 . S
C528 C527 1.400 . S
C528 C531 1.386 . S
H529 C545 0.930 . S
H530 C546 0.931 . S
C531 H519 0.929 . S
C531 C525 1.390 . S
C531 C528 1.386 . S
C532 C527 1.490 . S
C532 C534 1.395 1_554 S
C532 C535 1.403 . S
H533 C539 0.930 . S
C534 H520 0.930 . S
C534 C532 1.395 1_556 S
C534 C537 1.361 1_455 S
C535 C532 1.403 . S
C535 C536 1.524 . S
C535 C539 1.400 1_455 S
C536 H521 0.960 1_455 S
C536 H522 0.960 . S
C536 H523 0.960 . S
C536 C535 1.524 . S
C537 C534 1.361 1_655 S
C537 C538 1.421 . S
C537 C541 1.509 . S
C538 C537 1.421 . S
C538 C539 1.385 1_556 S
C538 C540 1.478 . S
C539 H533 0.930 . S
C539 C535 1.400 1_655 S
C539 C538 1.385 1_554 S
C540 C538 1.478 . S
C540 C542 1.381 . S
C540 C546 1.383 . S
C541 C537 1.509 . S
C541 H547 0.959 1_655 S
C541 H548 0.961 . S
C541 H549 0.960 . S
C542 C540 1.381 . S
C542 C543 1.394 . S
C542 H550 0.930 . S
C543 C542 1.394 . S
C543 C544 1.383 . S
C543 H551 0.929 . S
C544 C543 1.383 . S
C544 C545 1.377 . S
C545 H529 0.930 . S
C545 C544 1.377 . S
C545 C546 1.379 . S
C546 H530 0.931 . S
C546 C540 1.383 . S
C546 C545 1.379 . S
H547 C541 0.959 1_455 S
H548 C541 0.961 . S
H549 C541 0.960 . S
H550 C542 0.930 . S
H551 C543 0.929 . S
H552 C560 0.929 . S
H553 C562 0.930 . S
H554 C564 0.930 . S
H555 C567 0.929 . S
H556 C570 0.930 . S
H557 C572 0.960 . S
H558 C572 0.960 . S
H559 C572 0.960 . S
C560 H552 0.929 . S
C560 C561 1.377 . S
C560 C562 1.384 . S
C561 C560 1.377 . S
C561 C567 1.390 . S
C562 H553 0.930 . S
C562 C560 1.384 . S
C562 C563 1.372 . S
C563 C562 1.372 . S
C563 C564 1.400 . S
C563 C568 1.490 . S
C564 H554 0.930 . S
C564 C563 1.400 . S
C564 C567 1.386 . S
H565 C581 0.930 . S
H566 C582 0.931 . S
C567 H555 0.929 . S
C567 C561 1.390 . S
C567 C564 1.386 . S
C568 C563 1.490 . S
C568 C570 1.395 . S
C568 C571 1.403 . S
H569 C575 0.930 . S
C570 H556 0.930 . S
C570 C568 1.395 . S
C570 C573 1.403 1_545 S
C571 C568 1.403 . S
C571 C572 1.524 . S
C571 C575 1.400 1_545 S
C572 H557 0.960 . S
C572 H558 0.960 . S
C572 H559 0.960 . S
C572 C571 1.524 . S
C573 C570 1.403 1_565 S
C573 C574 1.392 . S
C573 C577 1.495 . S
C574 C573 1.392 . S
C574 C575 1.385 . S
C574 C576 1.478 . S
C575 H569 0.930 . S
C575 C571 1.400 1_565 S
C575 C574 1.385 . S
C576 C574 1.478 . S
C576 C578 1.381 . S
C576 C582 1.383 . S
C577 C573 1.495 . S
C577 H583 0.959 . S
C577 H584 0.961 . S
C577 H585 0.960 . S
C578 C576 1.381 . S
C578 C579 1.394 . S
C578 H586 0.930 . S
C579 C578 1.394 . S
C579 C580 1.383 . S
C579 H587 0.929 . S
C580 C579 1.383 . S
C580 C581 1.377 . S
C581 H565 0.930 . S
C581 C580 1.377 . S
C581 C582 1.379 . S
C582 H566 0.931 . S
C582 C576 1.383 . S
C582 C581 1.379 . S
H583 C577 0.959 . S
H584 C577 0.961 . S
H585 C577 0.960 . S
H586 C578 0.930 . S
H587 C579 0.929 . S
H588 C596 0.929 . S
H589 C598 0.930 1_554 S
H590 C600 0.930 . S
H591 C603 0.929 . S
H592 C606 0.930 . S
H593 C608 0.960 . S
H594 C608 0.960 . S
H595 C608 0.960 . S
C596 H588 0.929 . S
C596 C597 1.377 . S
C596 C598 1.384 . S
C597 C596 1.377 . S
C597 C603 1.390 . S
C598 H589 0.930 1_556 S
C598 C596 1.384 . S
C598 C599 1.372 . S
C599 C598 1.372 . S
C599 C600 1.400 . S
C599 C604 1.490 . S
C600 H590 0.930 . S
C600 C599 1.400 . S
C600 C603 1.386 . S
H601 C617 0.930 . S
H602 C618 0.931 1_556 S
C603 H591 0.929 . S
C603 C597 1.390 . S
C603 C600 1.386 . S
C604 C599 1.490 . S
C604 C606 1.395 1_556 S
C604 C607 1.403 . S
H605 C611 0.930 . S
C606 H592 0.930 . S
C606 C604 1.395 1_554 S
C606 C609 1.403 . S
C607 C604 1.403 . S
C607 C608 1.524 . S
C607 C611 1.400 . S
C608 H593 0.960 . S
C608 H594 0.960 . S
C608 H595 0.960 . S
C608 C607 1.524 . S
C609 C606 1.403 . S
C609 C610 1.392 . S
C609 C613 1.495 . S
C610 C609 1.392 . S
C610 C611 1.385 1_554 S
C610 C612 1.478 . S
C611 H605 0.930 . S
C611 C607 1.400 . S
C611 C610 1.385 1_556 S
C612 C610 1.478 . S
C612 C614 1.381 . S
C612 C618 1.383 . S
C613 C609 1.495 . S
C613 H619 0.959 . S
C613 H620 0.961 . S
C613 H621 0.960 . S
C614 C612 1.381 . S
C614 C615 1.394 . S
C614 H622 0.930 . S
C615 C614 1.394 . S
C615 C616 1.383 . S
C615 H623 0.929 . S
C616 C615 1.383 . S
C616 C617 1.377 . S
C617 H601 0.930 . S
C617 C616 1.377 . S
C617 C618 1.379 . S
C618 H602 0.931 1_554 S
C618 C612 1.383 . S
C618 C617 1.379 . S
H619 C613 0.959 . S
H620 C613 0.961 . S
H621 C613 0.960 . S
H622 C614 0.930 . S
H623 C615 0.929 . S
H624 C632 0.929 . S
H625 C634 0.930 . S
H626 C636 0.930 . S
H627 C639 0.929 . S
H628 C642 0.930 . S
H629 C644 0.960 . S
H630 C644 0.960 . S
H631 C644 0.960 . S
C632 H624 0.929 . S
C632 C633 1.377 . S
C632 C634 1.384 . S
C633 C632 1.377 . S
C633 C639 1.390 . S
C634 H625 0.930 . S
C634 C632 1.384 . S
C634 C635 1.372 . S
C635 C634 1.372 . S
C635 C636 1.400 . S
C635 C640 1.490 . S
C636 H626 0.930 . S
C636 C635 1.400 . S
C636 C639 1.386 . S
H637 C653 0.930 . S
H638 C654 0.931 . S
C639 H627 0.929 . S
C639 C633 1.390 . S
C639 C636 1.386 . S
C640 C635 1.490 . S
C640 C642 1.395 . S
C640 C643 1.403 . S
H641 C647 0.930 . S
C642 H628 0.930 . S
C642 C640 1.395 . S
C642 C645 1.403 . S
C643 C640 1.403 . S
C643 C644 1.524 . S
C643 C647 1.400 . S
C644 H629 0.960 . S
C644 H630 0.960 . S
C644 H631 0.960 . S
C644 C643 1.524 . S
C645 C642 1.403 . S
C645 C646 1.392 . S
C645 C649 1.495 . S
C646 C645 1.392 . S
C646 C647 1.385 . S
C646 C648 1.478 . S
C647 H641 0.930 . S
C647 C643 1.400 . S
C647 C646 1.385 . S
C648 C646 1.478 . S
C648 C650 1.381 . S
C648 C654 1.383 . S
C649 C645 1.495 . S
C649 H655 0.959 . S
C649 H656 0.961 . S
C649 H657 0.960 . S
C650 C648 1.381 . S
C650 C651 1.394 . S
C650 H658 0.930 . S
C651 C650 1.394 . S
C651 C652 1.383 . S
C651 H659 0.929 . S
C652 C651 1.383 . S
C652 C653 1.377 . S
C653 H637 0.930 . S
C653 C652 1.377 . S
C653 C654 1.379 . S
C654 H638 0.931 . S
C654 C648 1.383 . S
C654 C653 1.379 . S
H655 C649 0.959 . S
H656 C649 0.961 . S
H657 C649 0.960 . S
H658 C650 0.930 . S
H659 C651 0.929 . S
H660 C668 0.929 . S
H661 C670 0.930 . S
H662 C672 0.930 . S
H663 C675 0.929 . S
H664 C678 0.930 . S
H665 C680 0.960 . S
H666 C680 0.960 . S
H667 C680 0.960 . S
C668 H660 0.929 . S
C668 C669 1.377 . S
C668 C670 1.384 . S
C669 C668 1.377 . S
C669 C675 1.390 . S
C670 H661 0.930 . S
C670 C668 1.384 . S
C670 C671 1.372 . S
C671 C670 1.372 . S
C671 C672 1.400 . S
C671 C676 1.490 . S
C672 H662 0.930 . S
C672 C671 1.400 . S
C672 C675 1.386 . S
H673 C689 0.930 . S
H674 C690 0.931 . S
C675 H663 0.929 . S
C675 C669 1.390 . S
C675 C672 1.386 . S
C676 C671 1.490 . S
C676 C678 1.395 . S
C676 C679 1.403 . S
H677 C683 0.930 . S
C678 H664 0.930 . S
C678 C676 1.395 . S
C678 C681 1.403 . S
C679 C676 1.403 . S
C679 C680 1.524 . S
C679 C683 1.400 . S
C680 H665 0.960 . S
C680 H666 0.960 . S
C680 H667 0.960 . S
C680 C679 1.524 . S
C681 C678 1.403 . S
C681 C682 1.392 . S
C681 C685 1.495 . S
C682 C681 1.392 . S
C682 C683 1.385 . S
C682 C684 1.478 . S
C683 H677 0.930 . S
C683 C679 1.400 . S
C683 C682 1.385 . S
C684 C682 1.478 . S
C684 C686 1.381 . S
C684 C690 1.383 . S
C685 C681 1.495 . S
C685 H691 0.959 . S
C685 H692 0.961 . S
C685 H693 0.960 . S
C686 C684 1.381 . S
C686 C687 1.394 . S
C686 H694 0.930 . S
C687 C686 1.394 . S
C687 C688 1.383 . S
C687 H695 0.929 . S
C688 C687 1.383 . S
C688 C689 1.377 . S
C689 H673 0.930 . S
C689 C688 1.377 . S
C689 C690 1.379 . S
C690 H674 0.931 . S
C690 C684 1.383 . S
C690 C689 1.379 . S
H691 C685 0.959 . S
H692 C685 0.961 . S
H693 C685 0.960 . S
H694 C686 0.930 . S
H695 C687 0.929 . S
H696 C704 0.929 . S
H697 C706 0.930 . S
H698 C708 0.930 . S
H699 C711 0.929 . S
H700 C714 0.930 . S
H701 C716 0.960 . S
H702 C716 0.960 . S
H703 C716 0.960 . S
C704 H696 0.929 . S
C704 C705 1.377 . S
C704 C706 1.384 . S
C705 C704 1.377 . S
C705 C711 1.390 . S
C706 H697 0.930 . S
C706 C704 1.384 . S
C706 C707 1.372 . S
C707 C706 1.372 . S
C707 C708 1.400 . S
C707 C712 1.490 . S
C708 H698 0.930 . S
C708 C707 1.400 . S
C708 C711 1.386 . S
H709 C725 0.930 . S
H710 C726 0.931 . S
C711 H699 0.929 . S
C711 C705 1.390 . S
C711 C708 1.386 . S
C712 C707 1.490 . S
C712 C714 1.395 . S
C712 C715 1.403 . S
H713 C719 0.930 . S
C714 H700 0.930 . S
C714 C712 1.395 . S
C714 C717 1.403 . S
C715 C712 1.403 . S
C715 C716 1.524 . S
C715 C719 1.400 . S
C716 H701 0.960 . S
C716 H702 0.960 . S
C716 H703 0.960 . S
C716 C715 1.524 . S
C717 C714 1.403 . S
C717 C718 1.392 . S
C717 C721 1.495 . S
C718 C717 1.392 . S
C718 C719 1.385 . S
C718 C720 1.478 . S
C719 H713 0.930 . S
C719 C715 1.400 . S
C719 C718 1.385 . S
C720 C718 1.478 . S
C720 C722 1.381 . S
C720 C726 1.383 . S
C721 C717 1.495 . S
C721 H727 0.959 . S
C721 H728 0.961 . S
C721 H729 0.960 . S
C722 C720 1.381 . S
C722 C723 1.394 . S
C722 H730 0.930 . S
C723 C722 1.394 . S
C723 C724 1.383 . S
C723 H731 0.929 . S
C724 C723 1.383 . S
C724 C725 1.377 . S
C725 H709 0.930 . S
C725 C724 1.377 . S
C725 C726 1.379 . S
C726 H710 0.931 . S
C726 C720 1.383 . S
C726 C725 1.379 . S
H727 C721 0.959 . S
H728 C721 0.961 . S
H729 C721 0.960 . S
H730 C722 0.930 . S
H731 C723 0.929 . S
H732 C740 0.929 . S
H733 C742 0.930 . S
H734 C744 0.930 . S
H735 C747 0.929 . S
H736 C750 0.930 . S
H737 C752 0.960 . S
H738 C752 0.960 . S
H739 C752 0.960 . S
C740 H732 0.929 . S
C740 C741 1.377 . S
C740 C742 1.384 . S
C741 C740 1.377 . S
C741 C747 1.390 . S
C742 H733 0.930 . S
C742 C740 1.384 . S
C742 C743 1.372 . S
C743 C742 1.372 . S
C743 C744 1.400 . S
C743 C748 1.490 . S
C744 H734 0.930 . S
C744 C743 1.400 . S
C744 C747 1.386 . S
H745 C761 0.930 . S
H746 C762 0.931 . S
C747 H735 0.929 . S
C747 C741 1.390 . S
C747 C744 1.386 . S
C748 C743 1.490 . S
C748 C750 1.395 . S
C748 C751 1.403 . S
H749 C755 0.930 . S
C750 H736 0.930 . S
C750 C748 1.395 . S
C750 C753 1.403 . S
C751 C748 1.403 . S
C751 C752 1.524 . S
C751 C755 1.400 . S
C752 H737 0.960 . S
C752 H738 0.960 . S
C752 H739 0.960 . S
C752 C751 1.524 . S
C753 C750 1.403 . S
C753 C754 1.392 . S
C753 C757 1.495 . S
C754 C753 1.392 . S
C754 C755 1.385 . S
C754 C756 1.478 . S
C755 H749 0.930 . S
C755 C751 1.400 . S
C755 C754 1.385 . S
C756 C754 1.478 . S
C756 C758 1.381 . S
C756 C762 1.383 . S
C757 C753 1.495 . S
C757 H763 0.959 . S
C757 H764 0.961 . S
C757 H765 0.960 . S
C758 C756 1.381 . S
C758 C759 1.394 . S
C758 H766 0.930 . S
C759 C758 1.394 . S
C759 C760 1.383 . S
C759 H767 0.929 . S
C760 C759 1.383 . S
C760 C761 1.377 . S
C761 H745 0.930 . S
C761 C760 1.377 . S
C761 C762 1.379 . S
C762 H746 0.931 . S
C762 C756 1.383 . S
C762 C761 1.379 . S
H763 C757 0.959 . S
H764 C757 0.961 . S
H765 C757 0.960 . S
H766 C758 0.930 . S
H767 C759 0.929 . S
H768 C776 0.929 . S
H769 C778 0.930 . S
H770 C780 0.930 . S
H771 C783 0.929 . S
H772 C786 0.930 . S
H773 C788 0.960 . S
H774 C788 0.960 . S
H775 C788 0.960 . S
C776 H768 0.929 . S
C776 C777 1.377 . S
C776 C778 1.384 . S
C777 C776 1.377 . S
C777 C783 1.390 . S
C778 H769 0.930 . S
C778 C776 1.384 . S
C778 C779 1.372 . S
C779 C778 1.372 . S
C779 C780 1.400 . S
C779 C784 1.490 . S
C780 H770 0.930 . S
C780 C779 1.400 . S
C780 C783 1.386 . S
H781 C797 0.930 . S
H782 C798 0.931 . S
C783 H771 0.929 . S
C783 C777 1.390 . S
C783 C780 1.386 . S
C784 C779 1.490 . S
C784 C786 1.395 . S
C784 C787 1.403 . S
H785 C791 0.930 . S
C786 H772 0.930 . S
C786 C784 1.395 . S
C786 C789 1.403 . S
C787 C784 1.403 . S
C787 C788 1.524 . S
C787 C791 1.400 . S
C788 H773 0.960 . S
C788 H774 0.960 . S
C788 H775 0.960 . S
C788 C787 1.524 . S
C789 C786 1.403 . S
C789 C790 1.392 . S
C789 C793 1.495 . S
C790 C789 1.392 . S
C790 C791 1.385 . S
C790 C792 1.478 . S
C791 H785 0.930 . S
C791 C787 1.400 . S
C791 C790 1.385 . S
C792 C790 1.478 . S
C792 C794 1.381 . S
C792 C798 1.383 . S
C793 C789 1.495 . S
C793 H799 0.959 . S
C793 H800 0.961 . S
C793 H801 0.960 . S
C794 C792 1.381 . S
C794 C795 1.394 . S
C794 H802 0.930 . S
C795 C794 1.394 . S
C795 C796 1.383 . S
C795 H803 0.929 . S
C796 C795 1.383 . S
C796 C797 1.377 . S
C797 H781 0.930 . S
C797 C796 1.377 . S
C797 C798 1.379 . S
C798 H782 0.931 . S
C798 C792 1.383 . S
C798 C797 1.379 . S
H799 C793 0.959 . S
H800 C793 0.961 . S
H801 C793 0.960 . S
H802 C794 0.930 . S
H803 C795 0.929 . S
H804 C812 0.929 . S
H805 C814 0.930 . S
H806 C816 0.930 . S
H807 C819 0.929 . S
H808 C822 0.930 . S
H809 C824 0.960 . S
H810 C824 0.960 . S
H811 C824 0.960 . S
C812 H804 0.929 . S
C812 C813 1.377 . S
C812 C814 1.384 . S
C813 C812 1.377 . S
C813 C819 1.390 . S
C814 H805 0.930 . S
C814 C812 1.384 . S
C814 C815 1.372 . S
C815 C814 1.372 . S
C815 C816 1.400 . S
C815 C820 1.490 . S
C816 H806 0.930 . S
C816 C815 1.400 . S
C816 C819 1.386 . S
H817 C833 0.930 . S
H818 C834 0.931 . S
C819 H807 0.929 . S
C819 C813 1.390 . S
C819 C816 1.386 . S
C820 C815 1.490 . S
C820 C822 1.395 . S
C820 C823 1.403 . S
H821 C827 0.930 . S
C822 H808 0.930 . S
C822 C820 1.395 . S
C822 C825 1.403 . S
C823 C820 1.403 . S
C823 C824 1.524 . S
C823 C827 1.400 . S
C824 H809 0.960 . S
C824 H810 0.960 . S
C824 H811 0.960 . S
C824 C823 1.524 . S
C825 C822 1.403 . S
C825 C826 1.392 . S
C825 C829 1.495 . S
C826 C825 1.392 . S
C826 C827 1.385 . S
C826 C828 1.478 . S
C827 H821 0.930 . S
C827 C823 1.400 . S
C827 C826 1.385 . S
C828 C826 1.478 . S
C828 C830 1.381 . S
C828 C834 1.383 . S
C829 C825 1.495 . S
C829 H835 0.959 . S
C829 H836 0.961 . S
C829 H837 0.960 . S
C830 C828 1.381 . S
C830 C831 1.394 . S
C830 H838 0.930 . S
C831 C830 1.394 . S
C831 C832 1.383 . S
C831 H839 0.929 . S
C832 C831 1.383 . S
C832 C833 1.377 . S
C833 H817 0.930 . S
C833 C832 1.377 . S
C833 C834 1.379 . S
C834 H818 0.931 . S
C834 C828 1.383 . S
C834 C833 1.379 . S
H835 C829 0.959 . S
H836 C829 0.961 . S
H837 C829 0.960 . S
H838 C830 0.930 . S
H839 C831 0.929 . S
H840 C848 0.929 . S
H841 C850 0.930 . S
H842 C852 0.930 . S
H843 C855 0.929 . S
H844 C858 0.930 . S
H845 C860 0.960 . S
H846 C860 0.960 . S
H847 C860 0.960 . S
C848 H840 0.929 . S
C848 C849 1.377 . S
C848 C850 1.384 . S
C849 C848 1.377 . S
C849 C855 1.390 . S
C850 H841 0.930 . S
C850 C848 1.384 . S
C850 C851 1.372 . S
C851 C850 1.372 . S
C851 C852 1.400 . S
C851 C856 1.490 . S
C852 H842 0.930 . S
C852 C851 1.400 . S
C852 C855 1.386 . S
H853 C869 0.930 . S
H854 C870 0.931 . S
C855 H843 0.929 . S
C855 C849 1.390 . S
C855 C852 1.386 . S
C856 C851 1.490 . S
C856 C858 1.395 . S
C856 C859 1.403 . S
H857 C863 0.930 . S
C858 H844 0.930 . S
C858 C856 1.395 . S
C858 C861 1.403 . S
C859 C856 1.403 . S
C859 C860 1.524 . S
C859 C863 1.400 . S
C860 H845 0.960 . S
C860 H846 0.960 . S
C860 H847 0.960 . S
C860 C859 1.524 . S
C861 C858 1.403 . S
C861 C862 1.392 . S
C861 C865 1.495 . S
C862 C861 1.392 . S
C862 C863 1.385 . S
C862 C864 1.478 1_556 S
C863 H857 0.930 . S
C863 C859 1.400 . S
C863 C862 1.385 . S
C864 C862 1.478 1_554 S
C864 C866 1.381 . S
C864 C870 1.383 . S
C865 C861 1.495 . S
C865 H871 0.959 . S
C865 H872 0.961 . S
C865 H873 0.960 . S
C866 C864 1.381 . S
C866 C867 1.394 . S
C866 H874 0.930 . S
C867 C866 1.394 . S
C867 C868 1.383 . S
C867 H875 0.929 . S
C868 C867 1.383 . S
C868 C869 1.377 . S
C869 H853 0.930 . S
C869 C868 1.377 . S
C869 C870 1.379 . S
C870 H854 0.931 . S
C870 C864 1.383 . S
C870 C869 1.379 . S
H871 C865 0.959 . S
H872 C865 0.961 . S
H873 C865 0.960 . S
H874 C866 0.930 . S
H875 C867 0.929 . S
H876 C884 0.929 . S
H877 C886 0.930 . S
H878 C888 0.930 . S
H879 C891 0.929 . S
H880 C894 0.930 . S
H881 C896 0.960 . S
H882 C896 0.960 . S
H883 C896 0.960 . S
C884 H876 0.929 . S
C884 C885 1.377 . S
C884 C886 1.384 . S
C885 C884 1.377 . S
C885 C891 1.390 . S
C886 H877 0.930 . S
C886 C884 1.384 . S
C886 C887 1.372 . S
C887 C886 1.372 . S
C887 C888 1.400 . S
C887 C892 1.490 . S
C888 H878 0.930 . S
C888 C887 1.400 . S
C888 C891 1.386 . S
H889 C905 0.930 . S
H890 C906 0.931 . S
C891 H879 0.929 . S
C891 C885 1.390 . S
C891 C888 1.386 . S
C892 C887 1.490 . S
C892 C894 1.395 . S
C892 C895 1.403 . S
H893 C899 0.930 . S
C894 H880 0.930 . S
C894 C892 1.395 . S
C894 C897 1.403 . S
C895 C892 1.403 . S
C895 C896 1.524 . S
C895 C899 1.400 . S
C896 H881 0.960 . S
C896 H882 0.960 . S
C896 H883 0.960 . S
C896 C895 1.524 . S
C897 C894 1.403 . S
C897 C898 1.392 . S
C897 C901 1.495 . S
C898 C897 1.392 . S
C898 C899 1.385 . S
C898 C900 1.478 . S
C899 H893 0.930 . S
C899 C895 1.400 . S
C899 C898 1.385 . S
C900 C898 1.478 . S
C900 C902 1.381 . S
C900 C906 1.383 . S
C901 C897 1.495 . S
C901 H907 0.959 . S
C901 H908 0.961 . S
C901 H909 0.960 . S
C902 C900 1.381 . S
C902 C903 1.394 . S
C902 H910 0.930 . S
C903 C902 1.394 . S
C903 C904 1.383 . S
C903 H911 0.929 . S
C904 C903 1.383 . S
C904 C905 1.377 . S
C905 H889 0.930 . S
C905 C904 1.377 . S
C905 C906 1.379 . S
C906 H890 0.931 . S
C906 C900 1.383 . S
C906 C905 1.379 . S
H907 C901 0.959 . S
H908 C901 0.961 . S
H909 C901 0.960 . S
H910 C902 0.930 . S
H911 C903 0.929 . S
H912 C920 0.929 . S
H913 C922 0.930 . S
H914 C924 0.930 . S
H915 C927 0.929 . S
H916 C930 0.930 . S
H917 C932 0.960 . S
H918 C932 0.960 . S
H919 C932 0.960 . S
C920 H912 0.929 . S
C920 C921 1.377 . S
C920 C922 1.384 . S
C921 C920 1.377 . S
C921 C927 1.390 . S
C922 H913 0.930 . S
C922 C920 1.384 . S
C922 C923 1.372 . S
C923 C922 1.372 . S
C923 C924 1.400 . S
C923 C928 1.490 . S
C924 H914 0.930 . S
C924 C923 1.400 . S
C924 C927 1.386 . S
H925 C941 0.930 . S
H926 C942 0.931 . S
C927 H915 0.929 . S
C927 C921 1.390 . S
C927 C924 1.386 . S
C928 C923 1.490 . S
C928 C930 1.395 . S
C928 C931 1.403 . S
H929 C935 0.930 . S
C930 H916 0.930 . S
C930 C928 1.395 . S
C930 C933 1.403 . S
C931 C928 1.403 . S
C931 C932 1.524 . S
C931 C935 1.400 . S
C932 H917 0.960 . S
C932 H918 0.960 . S
C932 H919 0.960 . S
C932 C931 1.524 . S
C933 C930 1.403 . S
C933 C934 1.392 . S
C933 C937 1.495 . S
C934 C933 1.392 . S
C934 C935 1.385 . S
C934 C936 1.478 1_556 S
C935 H929 0.930 . S
C935 C931 1.400 . S
C935 C934 1.385 . S
C936 C934 1.478 1_554 S
C936 C938 1.381 . S
C936 C942 1.383 . S
C937 C933 1.495 . S
C937 H943 0.959 . S
C937 H944 0.961 . S
C937 H945 0.960 . S
C938 C936 1.381 . S
C938 C939 1.394 . S
C938 H946 0.930 . S
C939 C938 1.394 . S
C939 C940 1.383 . S
C939 H947 0.929 . S
C940 C939 1.383 . S
C940 C941 1.377 . S
C941 H925 0.930 . S
C941 C940 1.377 . S
C941 C942 1.379 . S
C942 H926 0.931 . S
C942 C936 1.383 . S
C942 C941 1.379 . S
H943 C937 0.959 . S
H944 C937 0.961 . S
H945 C937 0.960 . S
H946 C938 0.930 . S
H947 C939 0.929 . S
H948 C956 0.929 . S
H949 C958 0.930 . S
H950 C960 0.930 . S
H951 C963 0.929 . S
H952 C966 0.930 . S
H953 C968 0.960 . S
H954 C968 0.960 . S
H955 C968 0.960 . S
C956 H948 0.929 . S
C956 C957 1.377 . S
C956 C958 1.384 . S
C957 C956 1.377 . S
C957 C963 1.390 . S
C958 H949 0.930 . S
C958 C956 1.384 . S
C958 C959 1.372 . S
C959 C958 1.372 . S
C959 C960 1.400 . S
C959 C964 1.490 . S
C960 H950 0.930 . S
C960 C959 1.400 . S
C960 C963 1.386 . S
H961 C977 0.930 . S
H962 C978 0.931 . S
C963 H951 0.929 . S
C963 C957 1.390 . S
C963 C960 1.386 . S
C964 C959 1.490 . S
C964 C966 1.395 . S
C964 C967 1.403 . S
H965 C971 0.930 . S
C966 H952 0.930 . S
C966 C964 1.395 . S
C966 C969 1.403 . S
C967 C964 1.403 . S
C967 C968 1.524 . S
C967 C971 1.400 . S
C968 H953 0.960 . S
C968 H954 0.960 . S
C968 H955 0.960 . S
C968 C967 1.524 . S
C969 C966 1.403 . S
C969 C970 1.392 . S
C969 C973 1.495 . S
C970 C969 1.392 . S
C970 C971 1.385 . S
C970 C972 1.478 . S
C971 H965 0.930 . S
C971 C967 1.400 . S
C971 C970 1.385 . S
C972 C970 1.478 . S
C972 C974 1.381 . S
C972 C978 1.383 . S
C973 C969 1.495 . S
C973 H979 0.959 . S
C973 H980 0.961 . S
C973 H981 0.960 . S
C974 C972 1.381 . S
C974 C975 1.394 . S
C974 H982 0.930 . S
C975 C974 1.394 . S
C975 C976 1.383 . S
C975 H983 0.929 . S
C976 C975 1.383 . S
C976 C977 1.377 . S
C977 H961 0.930 . S
C977 C976 1.377 . S
C977 C978 1.379 . S
C978 H962 0.931 . S
C978 C972 1.383 . S
C978 C977 1.379 . S
H979 C973 0.959 . S
H980 C973 0.961 . S
H981 C973 0.960 . S
H982 C974 0.930 . S
H983 C975 0.929 . S
H984 C992 0.929 . S
H985 C994 0.930 . S
H986 C996 0.930 . S
H987 C999 0.929 . S
H988 C1002 0.930 . S
H989 C1004 0.960 . S
H990 C1004 0.960 . S
H991 C1004 0.960 . S
C992 H984 0.929 . S
C992 C993 1.377 . S
C992 C994 1.384 . S
C993 C992 1.377 . S
C993 C999 1.390 . S
C994 H985 0.930 . S
C994 C992 1.384 . S
C994 C995 1.372 . S
C995 C994 1.372 . S
C995 C996 1.400 . S
C995 C1000 1.490 . S
C996 H986 0.930 . S
C996 C995 1.400 . S
C996 C999 1.386 . S
H997 C1013 0.930 . S
H998 C1014 0.931 . S
C999 H987 0.929 . S
C999 C993 1.390 . S
C999 C996 1.386 . S
C1000 C995 1.490 . S
C1000 C1002 1.395 . S
C1000 C1003 1.403 . S
H1001 C1007 0.930 . S
C1002 H988 0.930 . S
C1002 C1000 1.395 . S
C1002 C1005 1.403 . S
C1003 C1000 1.403 . S
C1003 C1004 1.524 . S
C1003 C1007 1.400 . S
C1004 H989 0.960 . S
C1004 H990 0.960 . S
C1004 H991 0.960 . S
C1004 C1003 1.524 . S
C1005 C1002 1.403 . S
C1005 C1006 1.392 . S
C1005 C1009 1.495 . S
C1006 C1005 1.392 . S
C1006 C1007 1.385 . S
C1006 C1008 1.478 1_556 S
C1007 H1001 0.930 . S
C1007 C1003 1.400 . S
C1007 C1006 1.385 . S
C1008 C1006 1.478 1_554 S
C1008 C1010 1.381 . S
C1008 C1014 1.383 . S
C1009 C1005 1.495 . S
C1009 H1015 0.959 . S
C1009 H1016 0.961 . S
C1009 H1017 0.960 . S
C1010 C1008 1.381 . S
C1010 C1011 1.394 . S
C1010 H1018 0.930 . S
C1011 C1010 1.394 . S
C1011 C1012 1.383 . S
C1011 H1019 0.929 . S
C1012 C1011 1.383 . S
C1012 C1013 1.377 . S
C1013 H997 0.930 . S
C1013 C1012 1.377 . S
C1013 C1014 1.379 . S
C1014 H998 0.931 . S
C1014 C1008 1.383 . S
C1014 C1013 1.379 . S
H1015 C1009 0.959 . S
H1016 C1009 0.961 . S
H1017 C1009 0.960 . S
H1018 C1010 0.930 . S
H1019 C1011 0.929 . S
H1020 C1028 0.929 . S
H1021 C1030 0.930 . S
H1022 C1032 0.930 . S
H1023 C1035 0.929 . S
H1024 C1038 0.930 . S
H1025 C1040 0.960 . S
H1026 C1040 0.960 . S
H1027 C1040 0.960 . S
C1028 H1020 0.929 . S
C1028 C1029 1.377 . S
C1028 C1030 1.384 . S
C1029 C1028 1.377 . S
C1029 C1035 1.390 . S
C1030 H1021 0.930 . S
C1030 C1028 1.384 . S
C1030 C1031 1.372 . S
C1031 C1030 1.372 . S
C1031 C1032 1.400 . S
C1031 C1036 1.490 . S
C1032 H1022 0.930 . S
C1032 C1031 1.400 . S
C1032 C1035 1.386 . S
H1033 C1049 0.930 . S
H1034 C1050 0.931 . S
C1035 H1023 0.929 . S
C1035 C1029 1.390 . S
C1035 C1032 1.386 . S
C1036 C1031 1.490 . S
C1036 C1038 1.395 . S
C1036 C1039 1.403 . S
H1037 C1043 0.930 . S
C1038 H1024 0.930 . S
C1038 C1036 1.395 . S
C1038 C1041 1.403 . S
C1039 C1036 1.403 . S
C1039 C1040 1.524 . S
C1039 C1043 1.400 . S
C1040 H1025 0.960 . S
C1040 H1026 0.960 . S
C1040 H1027 0.960 . S
C1040 C1039 1.524 . S
C1041 C1038 1.403 . S
C1041 C1042 1.392 . S
C1041 C1045 1.495 . S
C1042 C1041 1.392 . S
C1042 C1043 1.385 . S
C1042 C1044 1.478 . S
C1043 H1037 0.930 . S
C1043 C1039 1.400 . S
C1043 C1042 1.385 . S
C1044 C1042 1.478 . S
C1044 C1046 1.381 . S
C1044 C1050 1.383 . S
C1045 C1041 1.495 . S
C1045 H1051 0.959 . S
C1045 H1052 0.961 . S
C1045 H1053 0.960 . S
C1046 C1044 1.381 . S
C1046 C1047 1.394 . S
C1046 H1054 0.930 . S
C1047 C1046 1.394 . S
C1047 C1048 1.383 . S
C1047 H1055 0.929 . S
C1048 C1047 1.383 . S
C1048 C1049 1.377 . S
C1049 H1033 0.930 . S
C1049 C1048 1.377 . S
C1049 C1050 1.379 . S
C1050 H1034 0.931 . S
C1050 C1044 1.383 . S
C1050 C1049 1.379 . S
H1051 C1045 0.959 . S
H1052 C1045 0.961 . S
H1053 C1045 0.960 . S
H1054 C1046 0.930 . S
H1055 C1047 0.929 . S
H1056 C1064 0.929 . S
H1057 C1066 0.930 . S
H1058 C1068 0.930 . S
H1059 C1071 0.929 . S
H1060 C1074 0.930 . S
H1061 C1076 0.960 . S
H1062 C1076 0.960 . S
H1063 C1076 0.960 . S
C1064 H1056 0.929 . S
C1064 C1065 1.377 . S
C1064 C1066 1.384 . S
C1065 C1064 1.377 . S
C1065 C1071 1.390 . S
C1066 H1057 0.930 . S
C1066 C1064 1.384 . S
C1066 C1067 1.372 . S
C1067 C1066 1.372 . S
C1067 C1068 1.400 . S
C1067 C1072 1.490 . S
C1068 H1058 0.930 . S
C1068 C1067 1.400 . S
C1068 C1071 1.386 . S
H1069 C1085 0.930 . S
H1070 C1086 0.931 . S
C1071 H1059 0.929 . S
C1071 C1065 1.390 . S
C1071 C1068 1.386 . S
C1072 C1067 1.490 . S
C1072 C1074 1.395 . S
C1072 C1075 1.403 . S
H1073 C1079 0.930 . S
C1074 H1060 0.930 . S
C1074 C1072 1.395 . S
C1074 C1077 1.403 . S
C1075 C1072 1.403 . S
C1075 C1076 1.524 . S
C1075 C1079 1.400 . S
C1076 H1061 0.960 . S
C1076 H1062 0.960 . S
C1076 H1063 0.960 . S
C1076 C1075 1.524 . S
C1077 C1074 1.403 . S
C1077 C1078 1.392 . S
C1077 C1081 1.495 . S
C1078 C1077 1.392 . S
C1078 C1079 1.385 . S
C1078 C1080 1.478 . S
C1079 H1073 0.930 . S
C1079 C1075 1.400 . S
C1079 C1078 1.385 . S
C1080 C1078 1.478 . S
C1080 C1082 1.381 . S
C1080 C1086 1.383 . S
C1081 C1077 1.495 . S
C1081 H1087 0.959 . S
C1081 H1088 0.961 . S
C1081 H1089 0.960 . S
C1082 C1080 1.381 . S
C1082 C1083 1.394 . S
C1082 H1090 0.930 . S
C1083 C1082 1.394 . S
C1083 C1084 1.383 . S
C1083 H1091 0.929 . S
C1084 C1083 1.383 . S
C1084 C1085 1.377 . S
C1085 H1069 0.930 . S
C1085 C1084 1.377 . S
C1085 C1086 1.379 . S
C1086 H1070 0.931 . S
C1086 C1080 1.383 . S
C1086 C1085 1.379 . S
H1087 C1081 0.959 . S
H1088 C1081 0.961 . S
H1089 C1081 0.960 . S
H1090 C1082 0.930 . S
H1091 C1083 0.929 . S
H1092 C1100 0.929 . S
H1093 C1102 0.930 . S
H1094 C1104 0.930 . S
H1095 C1107 0.929 . S
H1096 C1110 0.930 . S
H1097 C1112 0.960 . S
H1098 C1112 0.960 . S
H1099 C1112 0.960 . S
C1100 H1092 0.929 . S
C1100 C1101 1.377 . S
C1100 C1102 1.384 . S
C1101 C1100 1.377 . S
C1101 C1107 1.390 . S
C1102 H1093 0.930 . S
C1102 C1100 1.384 . S
C1102 C1103 1.372 . S
C1103 C1102 1.372 . S
C1103 C1104 1.400 . S
C1103 C1108 1.490 . S
C1104 H1094 0.930 . S
C1104 C1103 1.400 . S
C1104 C1107 1.386 . S
H1105 C1121 0.930 . S
H1106 C1122 0.931 . S
C1107 H1095 0.929 . S
C1107 C1101 1.390 . S
C1107 C1104 1.386 . S
C1108 C1103 1.490 . S
C1108 C1110 1.395 . S
C1108 C1111 1.403 . S
H1109 C1115 0.930 . S
C1110 H1096 0.930 . S
C1110 C1108 1.395 . S
C1110 C1113 1.403 . S
C1111 C1108 1.403 . S
C1111 C1112 1.524 . S
C1111 C1115 1.400 . S
C1112 H1097 0.960 . S
C1112 H1098 0.960 . S
C1112 H1099 0.960 . S
C1112 C1111 1.524 . S
C1113 C1110 1.403 . S
C1113 C1114 1.392 . S
C1113 C1117 1.495 . S
C1114 C1113 1.392 . S
C1114 C1115 1.385 . S
C1114 C1116 1.478 1_554 S
C1115 H1109 0.930 . S
C1115 C1111 1.400 . S
C1115 C1114 1.385 . S
C1116 C1114 1.478 1_556 S
C1116 C1118 1.381 . S
C1116 C1122 1.383 . S
C1117 C1113 1.495 . S
C1117 H1123 0.959 . S
C1117 H1124 0.961 . S
C1117 H1125 0.960 . S
C1118 C1116 1.381 . S
C1118 C1119 1.394 . S
C1118 H1126 0.930 . S
C1119 C1118 1.394 . S
C1119 C1120 1.383 . S
C1119 H1127 0.929 . S
C1120 C1119 1.383 . S
C1120 C1121 1.377 . S
C1121 H1105 0.930 . S
C1121 C1120 1.377 . S
C1121 C1122 1.379 . S
C1122 H1106 0.931 . S
C1122 C1116 1.383 . S
C1122 C1121 1.379 . S
H1123 C1117 0.959 . S
H1124 C1117 0.961 . S
H1125 C1117 0.960 . S
H1126 C1118 0.930 . S
H1127 C1119 0.929 . S
H1128 C1136 0.929 . S
H1129 C1138 0.930 . S
H1130 C1140 0.930 . S
H1131 C1143 0.929 . S
H1132 C1146 0.930 . S
H1133 C1148 0.960 . S
H1134 C1148 0.960 . S
H1135 C1148 0.960 . S
C1136 H1128 0.929 . S
C1136 C1137 1.377 . S
C1136 C1138 1.384 . S
C1137 C1136 1.377 . S
C1137 C1143 1.390 . S
C1138 H1129 0.930 . S
C1138 C1136 1.384 . S
C1138 C1139 1.372 . S
C1139 C1138 1.372 . S
C1139 C1140 1.400 . S
C1139 C1144 1.490 . S
C1140 H1130 0.930 . S
C1140 C1139 1.400 . S
C1140 C1143 1.386 . S
H1141 C1157 0.930 . S
H1142 C1158 0.931 . S
C1143 H1131 0.929 . S
C1143 C1137 1.390 . S
C1143 C1140 1.386 . S
C1144 C1139 1.490 . S
C1144 C1146 1.395 . S
C1144 C1147 1.403 . S
H1145 C1151 0.930 . S
C1146 H1132 0.930 . S
C1146 C1144 1.395 . S
C1146 C1149 1.403 . S
C1147 C1144 1.403 . S
C1147 C1148 1.524 . S
C1147 C1151 1.400 . S
C1148 H1133 0.960 . S
C1148 H1134 0.960 . S
C1148 H1135 0.960 . S
C1148 C1147 1.524 . S
C1149 C1146 1.403 . S
C1149 C1150 1.392 . S
C1149 C1153 1.495 . S
C1150 C1149 1.392 . S
C1150 C1151 1.385 . S
C1150 C1152 1.478 . S
C1151 H1145 0.930 . S
C1151 C1147 1.400 . S
C1151 C1150 1.385 . S
C1152 C1150 1.478 . S
C1152 C1154 1.381 . S
C1152 C1158 1.383 . S
C1153 C1149 1.495 . S
C1153 H1159 0.959 . S
C1153 H1160 0.961 . S
C1153 H1161 0.960 . S
C1154 C1152 1.381 . S
C1154 C1155 1.394 . S
C1154 H1162 0.930 . S
C1155 C1154 1.394 . S
C1155 C1156 1.383 . S
C1155 H1163 0.929 . S
C1156 C1155 1.383 . S
C1156 C1157 1.377 . S
C1157 H1141 0.930 . S
C1157 C1156 1.377 . S
C1157 C1158 1.379 . S
C1158 H1142 0.931 . S
C1158 C1152 1.383 . S
C1158 C1157 1.379 . S
H1159 C1153 0.959 . S
H1160 C1153 0.961 . S
H1161 C1153 0.960 . S
H1162 C1154 0.930 . S
H1163 C1155 0.929 . S
H1164 C1172 0.929 . S
H1165 C1174 0.930 . S
H1166 C1176 0.930 . S
H1167 C1179 0.929 . S
H1168 C1182 0.930 . S
H1169 C1184 0.960 . S
H1170 C1184 0.960 . S
H1171 C1184 0.960 . S
C1172 H1164 0.929 . S
C1172 C1173 1.377 . S
C1172 C1174 1.384 . S
C1173 C1172 1.377 . S
C1173 C1179 1.390 . S
C1174 H1165 0.930 . S
C1174 C1172 1.384 . S
C1174 C1175 1.372 . S
C1175 C1174 1.372 . S
C1175 C1176 1.400 . S
C1175 C1180 1.490 1_556 S
C1176 H1166 0.930 . S
C1176 C1175 1.400 . S
C1176 C1179 1.386 . S
H1177 C1193 0.930 . S
H1178 C1194 0.931 . S
C1179 H1167 0.929 . S
C1179 C1173 1.390 . S
C1179 C1176 1.386 . S
C1180 C1175 1.490 1_554 S
C1180 C1182 1.395 . S
C1180 C1183 1.403 . S
H1181 C1187 0.930 . S
C1182 H1168 0.930 . S
C1182 C1180 1.395 . S
C1182 C1185 1.403 . S
C1183 C1180 1.403 . S
C1183 C1184 1.524 . S
C1183 C1187 1.400 . S
C1184 H1169 0.960 . S
C1184 H1170 0.960 . S
C1184 H1171 0.960 . S
C1184 C1183 1.524 . S
C1185 C1182 1.403 . S
C1185 C1186 1.392 . S
C1185 C1189 1.495 . S
C1186 C1185 1.392 . S
C1186 C1187 1.385 . S
C1186 C1188 1.478 . S
C1187 H1181 0.930 . S
C1187 C1183 1.400 . S
C1187 C1186 1.385 . S
C1188 C1186 1.478 . S
C1188 C1190 1.381 . S
C1188 C1194 1.383 . S
C1189 C1185 1.495 . S
C1189 H1195 0.959 . S
C1189 H1196 0.961 . S
C1189 H1197 0.960 . S
C1190 C1188 1.381 . S
C1190 C1191 1.394 . S
C1190 H1198 0.930 . S
C1191 C1190 1.394 . S
C1191 C1192 1.383 . S
C1191 H1199 0.929 . S
C1192 C1191 1.383 . S
C1192 C1193 1.377 . S
C1193 H1177 0.930 . S
C1193 C1192 1.377 . S
C1193 C1194 1.379 . S
C1194 H1178 0.931 . S
C1194 C1188 1.383 . S
C1194 C1193 1.379 . S
H1195 C1189 0.959 . S
H1196 C1189 0.961 . S
H1197 C1189 0.960 . S
H1198 C1190 0.930 . S
H1199 C1191 0.929 . S
H1200 C1208 0.929 . S
H1201 C1210 0.930 . S
H1202 C1212 0.930 . S
H1203 C1215 0.929 . S
H1204 C1218 0.930 . S
H1205 C1220 0.960 . S
H1206 C1220 0.960 . S
H1207 C1220 0.960 . S
C1208 H1200 0.929 . S
C1208 C1209 1.377 . S
C1208 C1210 1.384 . S
C1209 C1208 1.377 . S
C1209 C1215 1.390 . S
C1210 H1201 0.930 . S
C1210 C1208 1.384 . S
C1210 C1211 1.372 . S
C1211 C1210 1.372 . S
C1211 C1212 1.400 . S
C1211 C1216 1.490 . S
C1212 H1202 0.930 . S
C1212 C1211 1.400 . S
C1212 C1215 1.386 . S
H1213 C1229 0.930 . S
H1214 C1230 0.931 . S
C1215 H1203 0.929 . S
C1215 C1209 1.390 . S
C1215 C1212 1.386 . S
C1216 C1211 1.490 . S
C1216 C1218 1.395 . S
C1216 C1219 1.403 . S
H1217 C1223 0.930 . S
C1218 H1204 0.930 . S
C1218 C1216 1.395 . S
C1218 C1221 1.403 . S
C1219 C1216 1.403 . S
C1219 C1220 1.524 . S
C1219 C1223 1.400 . S
C1220 H1205 0.960 . S
C1220 H1206 0.960 . S
C1220 H1207 0.960 . S
C1220 C1219 1.524 . S
C1221 C1218 1.403 . S
C1221 C1222 1.392 . S
C1221 C1225 1.495 . S
C1222 C1221 1.392 . S
C1222 C1223 1.385 . S
C1222 C1224 1.478 . S
C1223 H1217 0.930 . S
C1223 C1219 1.400 . S
C1223 C1222 1.385 . S
C1224 C1222 1.478 . S
C1224 C1226 1.381 . S
C1224 C1230 1.383 . S
C1225 C1221 1.495 . S
C1225 H1231 0.959 . S
C1225 H1232 0.961 . S
C1225 H1233 0.960 . S
C1226 C1224 1.381 . S
C1226 C1227 1.394 . S
C1226 H1234 0.930 . S
C1227 C1226 1.394 . S
C1227 C1228 1.383 . S
C1227 H1235 0.929 . S
C1228 C1227 1.383 . S
C1228 C1229 1.377 . S
C1229 H1213 0.930 . S
C1229 C1228 1.377 . S
C1229 C1230 1.379 . S
C1230 H1214 0.931 . S
C1230 C1224 1.383 . S
C1230 C1229 1.379 . S
H1231 C1225 0.959 . S
H1232 C1225 0.961 . S
H1233 C1225 0.960 . S
H1234 C1226 0.930 . S
H1235 C1227 0.929 . S
H1236 C1244 0.929 . S
H1237 C1246 0.930 . S
H1238 C1248 0.930 . S
H1239 C1251 0.929 . S
H1240 C1254 0.930 . S
H1241 C1256 0.960 . S
H1242 C1256 0.960 . S
H1243 C1256 0.960 . S
C1244 H1236 0.929 . S
C1244 C1245 1.377 . S
C1244 C1246 1.384 . S
C1245 C1244 1.377 . S
C1245 C1251 1.390 . S
C1246 H1237 0.930 . S
C1246 C1244 1.384 . S
C1246 C1247 1.372 . S
C1247 C1246 1.372 . S
C1247 C1248 1.400 . S
C1247 C1252 1.490 . S
C1248 H1238 0.930 . S
C1248 C1247 1.400 . S
C1248 C1251 1.386 . S
H1249 C1265 0.930 . S
H1250 C1266 0.931 . S
C1251 H1239 0.929 . S
C1251 C1245 1.390 . S
C1251 C1248 1.386 . S
C1252 C1247 1.490 . S
C1252 C1254 1.395 . S
C1252 C1255 1.403 . S
H1253 C1259 0.930 . S
C1254 H1240 0.930 . S
C1254 C1252 1.395 . S
C1254 C1257 1.403 . S
C1255 C1252 1.403 . S
C1255 C1256 1.524 . S
C1255 C1259 1.400 . S
C1256 H1241 0.960 . S
C1256 H1242 0.960 . S
C1256 H1243 0.960 . S
C1256 C1255 1.524 . S
C1257 C1254 1.403 . S
C1257 C1258 1.392 . S
C1257 C1261 1.495 . S
C1258 C1257 1.392 . S
C1258 C1259 1.385 . S
C1258 C1260 1.478 1_554 S
C1259 H1253 0.930 . S
C1259 C1255 1.400 . S
C1259 C1258 1.385 . S
C1260 C1258 1.478 1_556 S
C1260 C1262 1.381 . S
C1260 C1266 1.383 . S
C1261 C1257 1.495 . S
C1261 H1267 0.959 . S
C1261 H1268 0.961 . S
C1261 H1269 0.960 . S
C1262 C1260 1.381 . S
C1262 C1263 1.394 . S
C1262 H1270 0.930 . S
C1263 C1262 1.394 . S
C1263 C1264 1.383 . S
C1263 H1271 0.929 . S
C1264 C1263 1.383 . S
C1264 C1265 1.377 . S
C1265 H1249 0.930 . S
C1265 C1264 1.377 . S
C1265 C1266 1.379 . S
C1266 H1250 0.931 . S
C1266 C1260 1.383 . S
C1266 C1265 1.379 . S
H1267 C1261 0.959 . S
H1268 C1261 0.961 . S
H1269 C1261 0.960 . S
H1270 C1262 0.930 . S
H1271 C1263 0.929 . S
H1272 C1280 0.929 . S
H1273 C1282 0.930 . S
H1274 C1284 0.930 . S
H1275 C1287 0.929 . S
H1276 C1290 0.930 . S
H1277 C1292 0.960 . S
H1278 C1292 0.960 . S
H1279 C1292 0.960 . S
C1280 H1272 0.929 . S
C1280 C1281 1.377 . S
C1280 C1282 1.384 . S
C1281 C1280 1.377 . S
C1281 C1287 1.390 . S
C1282 H1273 0.930 . S
C1282 C1280 1.384 . S
C1282 C1283 1.372 . S
C1283 C1282 1.372 . S
C1283 C1284 1.400 . S
C1283 C1288 1.490 . S
C1284 H1274 0.930 . S
C1284 C1283 1.400 . S
C1284 C1287 1.386 . S
H1285 C1301 0.930 . S
H1286 C1302 0.931 . S
C1287 H1275 0.929 . S
C1287 C1281 1.390 . S
C1287 C1284 1.386 . S
C1288 C1283 1.490 . S
C1288 C1290 1.395 . S
C1288 C1291 1.403 . S
H1289 C1295 0.930 . S
C1290 H1276 0.930 . S
C1290 C1288 1.395 . S
C1290 C1293 1.403 . S
C1291 C1288 1.403 . S
C1291 C1292 1.524 . S
C1291 C1295 1.400 . S
C1292 H1277 0.960 . S
C1292 H1278 0.960 . S
C1292 H1279 0.960 . S
C1292 C1291 1.524 . S
C1293 C1290 1.403 . S
C1293 C1294 1.392 . S
C1293 C1297 1.495 . S
C1294 C1293 1.392 . S
C1294 C1295 1.385 . S
C1294 C1296 1.478 . S
C1295 H1289 0.930 . S
C1295 C1291 1.400 . S
C1295 C1294 1.385 . S
C1296 C1294 1.478 . S
C1296 C1298 1.381 . S
C1296 C1302 1.383 . S
C1297 C1293 1.495 . S
C1297 H1303 0.959 . S
C1297 H1304 0.961 . S
C1297 H1305 0.960 . S
C1298 C1296 1.381 . S
C1298 C1299 1.394 . S
C1298 H1306 0.930 . S
C1299 C1298 1.394 . S
C1299 C1300 1.383 . S
C1299 H1307 0.929 . S
C1300 C1299 1.383 . S
C1300 C1301 1.377 . S
C1301 H1285 0.930 . S
C1301 C1300 1.377 . S
C1301 C1302 1.379 . S
C1302 H1286 0.931 . S
C1302 C1296 1.383 . S
C1302 C1301 1.379 . S
H1303 C1297 0.959 . S
H1304 C1297 0.961 . S
H1305 C1297 0.960 . S
H1306 C1298 0.930 . S
H1307 C1299 0.929 . S
H1308 C1316 0.929 . S
H1309 C1318 0.930 . S
H1310 C1320 0.930 . S
H1311 C1323 0.929 . S
H1312 C1326 0.930 . S
H1313 C1328 0.960 . S
H1314 C1328 0.960 . S
H1315 C1328 0.960 . S
C1316 H1308 0.929 . S
C1316 C1317 1.377 . S
C1316 C1318 1.384 . S
C1317 C1316 1.377 . S
C1317 C1323 1.390 . S
C1318 H1309 0.930 . S
C1318 C1316 1.384 . S
C1318 C1319 1.372 . S
C1319 C1318 1.372 . S
C1319 C1320 1.400 . S
C1319 C1324 1.490 . S
C1320 H1310 0.930 . S
C1320 C1319 1.400 . S
C1320 C1323 1.386 . S
H1321 C1337 0.930 . S
H1322 C1338 0.931 . S
C1323 H1311 0.929 . S
C1323 C1317 1.390 . S
C1323 C1320 1.386 . S
C1324 C1319 1.490 . S
C1324 C1326 1.395 . S
C1324 C1327 1.403 . S
H1325 C1331 0.930 . S
C1326 H1312 0.930 . S
C1326 C1324 1.395 . S
C1326 C1329 1.403 . S
C1327 C1324 1.403 . S
C1327 C1328 1.524 . S
C1327 C1331 1.400 . S
C1328 H1313 0.960 . S
C1328 H1314 0.960 . S
C1328 H1315 0.960 . S
C1328 C1327 1.524 . S
C1329 C1326 1.403 . S
C1329 C1330 1.392 . S
C1329 C1333 1.495 . S
C1330 C1329 1.392 . S
C1330 C1331 1.385 . S
C1330 C1332 1.478 . S
C1331 H1325 0.930 . S
C1331 C1327 1.400 . S
C1331 C1330 1.385 . S
C1332 C1330 1.478 . S
C1332 C1334 1.381 . S
C1332 C1338 1.383 . S
C1333 C1329 1.495 . S
C1333 H1339 0.959 . S
C1333 H1340 0.961 . S
C1333 H1341 0.960 . S
C1334 C1332 1.381 . S
C1334 C1335 1.394 . S
C1334 H1342 0.930 . S
C1335 C1334 1.394 . S
C1335 C1336 1.383 . S
C1335 H1343 0.929 . S
C1336 C1335 1.383 . S
C1336 C1337 1.377 . S
C1337 H1321 0.930 . S
C1337 C1336 1.377 . S
C1337 C1338 1.379 . S
C1338 H1322 0.931 . S
C1338 C1332 1.383 . S
C1338 C1337 1.379 . S
H1339 C1333 0.959 . S
H1340 C1333 0.961 . S
H1341 C1333 0.960 . S
H1342 C1334 0.930 . S
H1343 C1335 0.929 . S
H1344 C1352 0.929 . S
H1345 C1354 0.930 . S
H1346 C1356 0.930 . S
H1347 C1359 0.929 . S
H1348 C1362 0.930 . S
H1349 C1364 0.960 . S
H1350 C1364 0.960 . S
H1351 C1364 0.960 . S
C1352 H1344 0.929 . S
C1352 C1353 1.377 . S
C1352 C1354 1.384 . S
C1353 C1352 1.377 . S
C1353 C1359 1.390 . S
C1354 H1345 0.930 . S
C1354 C1352 1.384 . S
C1354 C1355 1.372 . S
C1355 C1354 1.372 . S
C1355 C1356 1.400 . S
C1355 C1360 1.490 . S
C1356 H1346 0.930 . S
C1356 C1355 1.400 . S
C1356 C1359 1.386 . S
H1357 C1373 0.930 . S
H1358 C1374 0.931 . S
C1359 H1347 0.929 . S
C1359 C1353 1.390 . S
C1359 C1356 1.386 . S
C1360 C1355 1.490 . S
C1360 C1362 1.395 . S
C1360 C1363 1.403 . S
H1361 C1367 0.930 . S
C1362 H1348 0.930 . S
C1362 C1360 1.395 . S
C1362 C1365 1.403 . S
C1363 C1360 1.403 . S
C1363 C1364 1.524 . S
C1363 C1367 1.400 . S
C1364 H1349 0.960 . S
C1364 H1350 0.960 . S
C1364 H1351 0.960 . S
C1364 C1363 1.524 . S
C1365 C1362 1.403 . S
C1365 C1366 1.392 . S
C1365 C1369 1.495 . S
C1366 C1365 1.392 . S
C1366 C1367 1.385 . S
C1366 C1368 1.478 . S
C1367 H1361 0.930 . S
C1367 C1363 1.400 . S
C1367 C1366 1.385 . S
C1368 C1366 1.478 . S
C1368 C1370 1.381 . S
C1368 C1374 1.383 . S
C1369 C1365 1.495 . S
C1369 H1375 0.959 . S
C1369 H1376 0.961 . S
C1369 H1377 0.960 . S
C1370 C1368 1.381 . S
C1370 C1371 1.394 . S
C1370 H1378 0.930 . S
C1371 C1370 1.394 . S
C1371 C1372 1.383 . S
C1371 H1379 0.929 . S
C1372 C1371 1.383 . S
C1372 C1373 1.377 . S
C1373 H1357 0.930 . S
C1373 C1372 1.377 . S
C1373 C1374 1.379 . S
C1374 H1358 0.931 . S
C1374 C1368 1.383 . S
C1374 C1373 1.379 . S
H1375 C1369 0.959 . S
H1376 C1369 0.961 . S
H1377 C1369 0.960 . S
H1378 C1370 0.930 . S
H1379 C1371 0.929 . S
H1380 C1388 0.929 . S
H1381 C1390 0.930 . S
H1382 C1392 0.930 . S
H1383 C1395 0.929 . S
H1384 C1398 0.930 . S
H1385 C1400 0.960 . S
H1386 C1400 0.960 . S
H1387 C1400 0.960 . S
C1388 H1380 0.929 . S
C1388 C1389 1.377 . S
C1388 C1390 1.384 . S
C1389 C1388 1.377 . S
C1389 C1395 1.390 . S
C1390 H1381 0.930 . S
C1390 C1388 1.384 . S
C1390 C1391 1.372 . S
C1391 C1390 1.372 . S
C1391 C1392 1.400 . S
C1391 C1396 1.490 . S
C1392 H1382 0.930 . S
C1392 C1391 1.400 . S
C1392 C1395 1.386 . S
H1393 C1409 0.930 . S
H1394 C1410 0.931 . S
C1395 H1383 0.929 . S
C1395 C1389 1.390 . S
C1395 C1392 1.386 . S
C1396 C1391 1.490 . S
C1396 C1398 1.395 . S
C1396 C1399 1.403 . S
H1397 C1403 0.930 . S
C1398 H1384 0.930 . S
C1398 C1396 1.395 . S
C1398 C1401 1.403 . S
C1399 C1396 1.403 . S
C1399 C1400 1.524 . S
C1399 C1403 1.400 . S
C1400 H1385 0.960 . S
C1400 H1386 0.960 . S
C1400 H1387 0.960 . S
C1400 C1399 1.524 . S
C1401 C1398 1.403 . S
C1401 C1402 1.392 . S
C1401 C1405 1.495 . S
C1402 C1401 1.392 . S
C1402 C1403 1.385 . S
C1402 C1404 1.478 . S
C1403 H1397 0.930 . S
C1403 C1399 1.400 . S
C1403 C1402 1.385 . S
C1404 C1402 1.478 . S
C1404 C1406 1.381 . S
C1404 C1410 1.383 . S
C1405 C1401 1.495 . S
C1405 H1411 0.959 . S
C1405 H1412 0.961 . S
C1405 H1413 0.960 . S
C1406 C1404 1.381 . S
C1406 C1407 1.394 . S
C1406 H1414 0.930 . S
C1407 C1406 1.394 . S
C1407 C1408 1.383 . S
C1407 H1415 0.929 . S
C1408 C1407 1.383 . S
C1408 C1409 1.377 . S
C1409 H1393 0.930 . S
C1409 C1408 1.377 . S
C1409 C1410 1.379 . S
C1410 H1394 0.931 . S
C1410 C1404 1.383 . S
C1410 C1409 1.379 . S
H1411 C1405 0.959 . S
H1412 C1405 0.961 . S
H1413 C1405 0.960 . S
H1414 C1406 0.930 . S
H1415 C1407 0.929 . S
H1416 C1424 0.929 . S
H1417 C1426 0.930 . S
H1418 C1428 0.930 . S
H1419 C1431 0.929 . S
H1420 C1434 0.930 . S
H1421 C1436 0.960 . S
H1422 C1436 0.960 . S
H1423 C1436 0.960 . S
C1424 H1416 0.929 . S
C1424 C1425 1.377 . S
C1424 C1426 1.384 . S
C1425 C1424 1.377 . S
C1425 C1431 1.390 . S
C1426 H1417 0.930 . S
C1426 C1424 1.384 . S
C1426 C1427 1.372 . S
C1427 C1426 1.372 . S
C1427 C1428 1.400 . S
C1427 C1432 1.490 . S
C1428 H1418 0.930 . S
C1428 C1427 1.400 . S
C1428 C1431 1.386 . S
H1429 C1445 0.930 . S
H1430 C1446 0.931 . S
C1431 H1419 0.929 . S
C1431 C1425 1.390 . S
C1431 C1428 1.386 . S
C1432 C1427 1.490 . S
C1432 C1434 1.395 . S
C1432 C1435 1.403 . S
H1433 C1439 0.930 . S
C1434 H1420 0.930 . S
C1434 C1432 1.395 . S
C1434 C1437 1.403 . S
C1435 C1432 1.403 . S
C1435 C1436 1.524 . S
C1435 C1439 1.400 . S
C1436 H1421 0.960 . S
C1436 H1422 0.960 . S
C1436 H1423 0.960 . S
C1436 C1435 1.524 . S
C1437 C1434 1.403 . S
C1437 C1438 1.392 . S
C1437 C1441 1.495 . S
C1438 C1437 1.392 . S
C1438 C1439 1.385 . S
C1438 C1440 1.478 . S
C1439 H1433 0.930 . S
C1439 C1435 1.400 . S
C1439 C1438 1.385 . S
C1440 C1438 1.478 . S
C1440 C1442 1.381 . S
C1440 C1446 1.383 . S
C1441 C1437 1.495 . S
C1441 H1447 0.959 . S
C1441 H1448 0.961 . S
C1441 H1449 0.960 . S
C1442 C1440 1.381 . S
C1442 C1443 1.394 . S
C1442 H1450 0.930 . S
C1443 C1442 1.394 . S
C1443 C1444 1.383 . S
C1443 H1451 0.929 . S
C1444 C1443 1.383 . S
C1444 C1445 1.377 . S
C1445 H1429 0.930 . S
C1445 C1444 1.377 . S
C1445 C1446 1.379 . S
C1446 H1430 0.931 . S
C1446 C1440 1.383 . S
C1446 C1445 1.379 . S
H1447 C1441 0.959 . S
H1448 C1441 0.961 . S
H1449 C1441 0.960 . S
H1450 C1442 0.930 . S
H1451 C1443 0.929 . S
H1452 C1460 0.929 . S
H1453 C1462 0.930 . S
H1454 C1464 0.930 . S
H1455 C1467 0.929 . S
H1456 C1470 0.930 . S
H1457 C1472 0.960 . S
H1458 C1472 0.960 . S
H1459 C1472 0.960 . S
C1460 H1452 0.929 . S
C1460 C1461 1.377 . S
C1460 C1462 1.384 . S
C1461 C1460 1.377 . S
C1461 C1467 1.390 . S
C1462 H1453 0.930 . S
C1462 C1460 1.384 . S
C1462 C1463 1.372 . S
C1463 C1462 1.372 . S
C1463 C1464 1.400 . S
C1463 C1468 1.490 . S
C1464 H1454 0.930 . S
C1464 C1463 1.400 . S
C1464 C1467 1.386 . S
H1465 C1481 0.930 . S
H1466 C1482 0.931 . S
C1467 H1455 0.929 . S
C1467 C1461 1.390 . S
C1467 C1464 1.386 . S
C1468 C1463 1.490 . S
C1468 C1470 1.395 . S
C1468 C1471 1.403 . S
H1469 C1475 0.930 . S
C1470 H1456 0.930 . S
C1470 C1468 1.395 . S
C1470 C1473 1.403 . S
C1471 C1468 1.403 . S
C1471 C1472 1.524 . S
C1471 C1475 1.400 . S
C1472 H1457 0.960 . S
C1472 H1458 0.960 . S
C1472 H1459 0.960 . S
C1472 C1471 1.524 . S
C1473 C1470 1.403 . S
C1473 C1474 1.392 . S
C1473 C1477 1.495 . S
C1474 C1473 1.392 . S
C1474 C1475 1.385 . S
C1474 C1476 1.478 . S
C1475 H1469 0.930 . S
C1475 C1471 1.400 . S
C1475 C1474 1.385 . S
C1476 C1474 1.478 . S
C1476 C1478 1.381 . S
C1476 C1482 1.383 . S
C1477 C1473 1.495 . S
C1477 H1483 0.959 . S
C1477 H1484 0.961 . S
C1477 H1485 0.960 . S
C1478 C1476 1.381 . S
C1478 C1479 1.394 . S
C1478 H1486 0.930 . S
C1479 C1478 1.394 . S
C1479 C1480 1.383 . S
C1479 H1487 0.929 . S
C1480 C1479 1.383 . S
C1480 C1481 1.377 . S
C1481 H1465 0.930 . S
C1481 C1480 1.377 . S
C1481 C1482 1.379 . S
C1482 H1466 0.931 . S
C1482 C1476 1.383 . S
C1482 C1481 1.379 . S
H1483 C1477 0.959 . S
H1484 C1477 0.961 . S
H1485 C1477 0.960 . S
H1486 C1478 0.930 . S
H1487 C1479 0.929 . S
C417 C2 1.552 . S
C436 C376 1.548 . S
C453 C36 1.554 . S
C472 C206 1.560 . S
C489 C240 1.549 . S
C508 C70 1.537 . S
C525 C274 1.554 . S
C544 C104 1.560 . S
C561 C308 1.550 . S
C580 C138 1.538 . S
C597 C172 1.550 . S
C616 C342 1.548 . S
C633 C305 1.615 . S
C652 C33 1.613 . S
C669 C339 1.615 . S
C688 C67 1.612 . S
C705 C101 1.615 . S
C724 C373 1.611 . S
C741 C135 1.616 . S
C760 C407 1.616 . S
C777 C237 1.616 . S
C796 C169 1.616 . S
C813 C203 1.614 . S
C832 C271 1.608 . S
C849 C9 0.993 . S
C868 C5 1.008 . S
C885 C39 1.010 . S
C904 C43 0.959 . S
C921 C77 0.980 . S
C940 C73 1.011 . S
C957 C107 1.006 . S
C976 C111 1.020 . S
C993 C145 0.993 . S
C1012 C141 0.991 . S
C1029 C175 1.010 . S
C1048 C179 1.015 . S
C1065 C209 1.013 . S
C1084 C213 0.945 . S
C1101 C247 0.994 . S
C1120 C243 0.991 . S
C1137 C277 1.006 . S
C1156 C281 1.008 . S
C1173 C311 1.014 . S
C1192 C315 0.955 . S
C1209 C349 0.982 . S
C1228 C345 1.007 . S
C1245 C383 0.989 . S
C1264 C379 1.016 . S
C1281 C20 1.562 . S
C1300 C360 1.547 . S
C1317 C394 1.561 . S
C1336 C54 1.547 . S
C1353 C224 1.560 . S
C1372 C88 1.567 . S
C1389 C122 1.562 . S
C1408 C258 1.546 . S
C1425 C156 1.565 . S
C1444 C292 1.562 . S
C1461 C190 1.563 . S
C1480 C326 1.569 . S
