# Generated by pormake.
# Topology unl, (4)-cn, num edge types: 1
# Building blocks:
#     Node 0, Type 0, BuildingBlock: QUQFOY_clean_sbu_3, # of connection points: 4
#     Node 1, Type 0, BuildingBlock: QUQFOY_clean_sbu_3, # of connection points: 4
#     Node 2, Type 0, BuildingBlock: QUQFOY_clean_sbu_3, # of connection points: 4
#     Node 3, Type 0, BuildingBlock: QUQFOY_clean_sbu_3, # of connection points: 4
#     Node 4, Type 0, BuildingBlock: QUQFOY_clean_sbu_3, # of connection points: 4
#     Node 5, Type 0, BuildingBlock: QUQFOY_clean_sbu_3, # of connection points: 4
#     Node 6, Type 0, BuildingBlock: QUQFOY_clean_sbu_3, # of connection points: 4
#     Node 7, Type 0, BuildingBlock: QUQFOY_clean_sbu_3, # of connection points: 4
#     Node 8, Type 0, BuildingBlock: QUQFOY_clean_sbu_3, # of connection points: 4
#     Node 9, Type 0, BuildingBlock: QUQFOY_clean_sbu_3, # of connection points: 4
#     Node 10, Type 0, BuildingBlock: QUQFOY_clean_sbu_3, # of connection points: 4
#     Node 11, Type 0, BuildingBlock: QUQFOY_clean_sbu_3, # of connection points: 4
#     Node 12, Type 0, BuildingBlock: QUQFOY_clean_sbu_3, # of connection points: 4
#     Node 13, Type 0, BuildingBlock: QUQFOY_clean_sbu_3, # of connection points: 4
#     Node 14, Type 0, BuildingBlock: QUQFOY_clean_sbu_3, # of connection points: 4
#     Node 15, Type 0, BuildingBlock: QUQFOY_clean_sbu_3, # of connection points: 4
#     Node 16, Type 0, BuildingBlock: QUQFOY_clean_sbu_3, # of connection points: 4
#     Node 17, Type 0, BuildingBlock: QUQFOY_clean_sbu_3, # of connection points: 4
#     Node 18, Type 0, BuildingBlock: QUQFOY_clean_sbu_3, # of connection points: 4
#     Node 19, Type 0, BuildingBlock: QUQFOY_clean_sbu_3, # of connection points: 4
#     Node 20, Type 0, BuildingBlock: QUQFOY_clean_sbu_3, # of connection points: 4
#     Node 21, Type 0, BuildingBlock: QUQFOY_clean_sbu_3, # of connection points: 4
#     Node 22, Type 0, BuildingBlock: QUQFOY_clean_sbu_3, # of connection points: 4
#     Node 23, Type 0, BuildingBlock: QUQFOY_clean_sbu_3, # of connection points: 4
#     Node 24, Type 0, BuildingBlock: QUQFOY_clean_sbu_3, # of connection points: 4
#     Node 25, Type 0, BuildingBlock: QUQFOY_clean_sbu_3, # of connection points: 4
#     Node 26, Type 0, BuildingBlock: QUQFOY_clean_sbu_3, # of connection points: 4
#     Node 27, Type 0, BuildingBlock: QUQFOY_clean_sbu_3, # of connection points: 4
#     Node 28, Type 0, BuildingBlock: QUQFOY_clean_sbu_3, # of connection points: 4
#     Node 29, Type 0, BuildingBlock: QUQFOY_clean_sbu_3, # of connection points: 4
#     Node 30, Type 0, BuildingBlock: QUQFOY_clean_sbu_3, # of connection points: 4
#     Node 31, Type 0, BuildingBlock: QUQFOY_clean_sbu_3, # of connection points: 4
#     Node 32, Type 0, BuildingBlock: QUQFOY_clean_sbu_3, # of connection points: 4
#     Node 33, Type 0, BuildingBlock: QUQFOY_clean_sbu_3, # of connection points: 4
#     Node 34, Type 0, BuildingBlock: QUQFOY_clean_sbu_3, # of connection points: 4
#     Node 35, Type 0, BuildingBlock: QUQFOY_clean_sbu_3, # of connection points: 4
#     Edge 36, Type (0, 0), BuildingBlock: OJICUG_clean_linker_0, # of connection points: 2
#     Edge 37, Type (0, 0), BuildingBlock: OJICUG_clean_linker_0, # of connection points: 2
#     Edge 38, Type (0, 0), BuildingBlock: OJICUG_clean_linker_0, # of connection points: 2
#     Edge 39, Type (0, 0), BuildingBlock: OJICUG_clean_linker_0, # of connection points: 2
#     Edge 40, Type (0, 0), BuildingBlock: OJICUG_clean_linker_0, # of connection points: 2
#     Edge 41, Type (0, 0), BuildingBlock: OJICUG_clean_linker_0, # of connection points: 2
#     Edge 42, Type (0, 0), BuildingBlock: OJICUG_clean_linker_0, # of connection points: 2
#     Edge 43, Type (0, 0), BuildingBlock: OJICUG_clean_linker_0, # of connection points: 2
#     Edge 44, Type (0, 0), BuildingBlock: OJICUG_clean_linker_0, # of connection points: 2
#     Edge 45, Type (0, 0), BuildingBlock: OJICUG_clean_linker_0, # of connection points: 2
#     Edge 46, Type (0, 0), BuildingBlock: OJICUG_clean_linker_0, # of connection points: 2
#     Edge 47, Type (0, 0), BuildingBlock: OJICUG_clean_linker_0, # of connection points: 2
#     Edge 48, Type (0, 0), BuildingBlock: OJICUG_clean_linker_0, # of connection points: 2
#     Edge 49, Type (0, 0), BuildingBlock: OJICUG_clean_linker_0, # of connection points: 2
#     Edge 50, Type (0, 0), BuildingBlock: OJICUG_clean_linker_0, # of connection points: 2
#     Edge 51, Type (0, 0), BuildingBlock: OJICUG_clean_linker_0, # of connection points: 2
#     Edge 52, Type (0, 0), BuildingBlock: OJICUG_clean_linker_0, # of connection points: 2
#     Edge 53, Type (0, 0), BuildingBlock: OJICUG_clean_linker_0, # of connection points: 2
#     Edge 54, Type (0, 0), BuildingBlock: OJICUG_clean_linker_0, # of connection points: 2
#     Edge 55, Type (0, 0), BuildingBlock: OJICUG_clean_linker_0, # of connection points: 2
#     Edge 56, Type (0, 0), BuildingBlock: OJICUG_clean_linker_0, # of connection points: 2
#     Edge 57, Type (0, 0), BuildingBlock: OJICUG_clean_linker_0, # of connection points: 2
#     Edge 58, Type (0, 0), BuildingBlock: OJICUG_clean_linker_0, # of connection points: 2
#     Edge 59, Type (0, 0), BuildingBlock: OJICUG_clean_linker_0, # of connection points: 2
#     Edge 60, Type (0, 0), BuildingBlock: OJICUG_clean_linker_0, # of connection points: 2
#     Edge 61, Type (0, 0), BuildingBlock: OJICUG_clean_linker_0, # of connection points: 2
#     Edge 62, Type (0, 0), BuildingBlock: OJICUG_clean_linker_0, # of connection points: 2
#     Edge 63, Type (0, 0), BuildingBlock: OJICUG_clean_linker_0, # of connection points: 2
#     Edge 64, Type (0, 0), BuildingBlock: OJICUG_clean_linker_0, # of connection points: 2
#     Edge 65, Type (0, 0), BuildingBlock: OJICUG_clean_linker_0, # of connection points: 2
#     Edge 66, Type (0, 0), BuildingBlock: OJICUG_clean_linker_0, # of connection points: 2
#     Edge 67, Type (0, 0), BuildingBlock: OJICUG_clean_linker_0, # of connection points: 2
#     Edge 68, Type (0, 0), BuildingBlock: OJICUG_clean_linker_0, # of connection points: 2
#     Edge 69, Type (0, 0), BuildingBlock: OJICUG_clean_linker_0, # of connection points: 2
#     Edge 70, Type (0, 0), BuildingBlock: OJICUG_clean_linker_0, # of connection points: 2
#     Edge 71, Type (0, 0), BuildingBlock: OJICUG_clean_linker_0, # of connection points: 2
#     Edge 72, Type (0, 0), BuildingBlock: OJICUG_clean_linker_0, # of connection points: 2
#     Edge 73, Type (0, 0), BuildingBlock: OJICUG_clean_linker_0, # of connection points: 2
#     Edge 74, Type (0, 0), BuildingBlock: OJICUG_clean_linker_0, # of connection points: 2
#     Edge 75, Type (0, 0), BuildingBlock: OJICUG_clean_linker_0, # of connection points: 2
#     Edge 76, Type (0, 0), BuildingBlock: OJICUG_clean_linker_0, # of connection points: 2
#     Edge 77, Type (0, 0), BuildingBlock: OJICUG_clean_linker_0, # of connection points: 2
#     Edge 78, Type (0, 0), BuildingBlock: OJICUG_clean_linker_0, # of connection points: 2
#     Edge 79, Type (0, 0), BuildingBlock: OJICUG_clean_linker_0, # of connection points: 2
#     Edge 80, Type (0, 0), BuildingBlock: OJICUG_clean_linker_0, # of connection points: 2
#     Edge 81, Type (0, 0), BuildingBlock: OJICUG_clean_linker_0, # of connection points: 2
#     Edge 82, Type (0, 0), BuildingBlock: OJICUG_clean_linker_0, # of connection points: 2
#     Edge 83, Type (0, 0), BuildingBlock: OJICUG_clean_linker_0, # of connection points: 2
#     Edge 84, Type (0, 0), BuildingBlock: OJICUG_clean_linker_0, # of connection points: 2
#     Edge 85, Type (0, 0), BuildingBlock: OJICUG_clean_linker_0, # of connection points: 2
#     Edge 86, Type (0, 0), BuildingBlock: OJICUG_clean_linker_0, # of connection points: 2
#     Edge 87, Type (0, 0), BuildingBlock: OJICUG_clean_linker_0, # of connection points: 2
#     Edge 88, Type (0, 0), BuildingBlock: OJICUG_clean_linker_0, # of connection points: 2
#     Edge 89, Type (0, 0), BuildingBlock: OJICUG_clean_linker_0, # of connection points: 2
#     Edge 90, Type (0, 0), BuildingBlock: OJICUG_clean_linker_0, # of connection points: 2
#     Edge 91, Type (0, 0), BuildingBlock: OJICUG_clean_linker_0, # of connection points: 2
#     Edge 92, Type (0, 0), BuildingBlock: OJICUG_clean_linker_0, # of connection points: 2
#     Edge 93, Type (0, 0), BuildingBlock: OJICUG_clean_linker_0, # of connection points: 2
#     Edge 94, Type (0, 0), BuildingBlock: OJICUG_clean_linker_0, # of connection points: 2
#     Edge 95, Type (0, 0), BuildingBlock: OJICUG_clean_linker_0, # of connection points: 2
#     Edge 96, Type (0, 0), BuildingBlock: OJICUG_clean_linker_0, # of connection points: 2
#     Edge 97, Type (0, 0), BuildingBlock: OJICUG_clean_linker_0, # of connection points: 2
#     Edge 98, Type (0, 0), BuildingBlock: OJICUG_clean_linker_0, # of connection points: 2
#     Edge 99, Type (0, 0), BuildingBlock: OJICUG_clean_linker_0, # of connection points: 2
#     Edge 100, Type (0, 0), BuildingBlock: OJICUG_clean_linker_0, # of connection points: 2
#     Edge 101, Type (0, 0), BuildingBlock: OJICUG_clean_linker_0, # of connection points: 2
#     Edge 102, Type (0, 0), BuildingBlock: OJICUG_clean_linker_0, # of connection points: 2
#     Edge 103, Type (0, 0), BuildingBlock: OJICUG_clean_linker_0, # of connection points: 2
#     Edge 104, Type (0, 0), BuildingBlock: OJICUG_clean_linker_0, # of connection points: 2
#     Edge 105, Type (0, 0), BuildingBlock: OJICUG_clean_linker_0, # of connection points: 2
#     Edge 106, Type (0, 0), BuildingBlock: OJICUG_clean_linker_0, # of connection points: 2
#     Edge 107, Type (0, 0), BuildingBlock: OJICUG_clean_linker_0, # of connection points: 2
# Relax obj value: 0.039
# Max RMSD: 0.118
# Mean RMSD: 0.118
data_MOF--net-unl--node1-QUQFOY_clean_sbu_3--edge1-OJICUG_clean_linker_0
_symmetry_space_group_name_H-M    P1
_symmetry_Int_Tables_number       1
_symmetry_cell_setting            triclinic
loop_
_symmetry_equiv_pos_as_xyz
'x, y, z'
_cell_length_a     51.269025
_cell_length_b     50.809543
_cell_length_c     31.538417
_cell_angle_alpha  90.078083
_cell_angle_beta   90.041868
_cell_angle_gamma 120.28396
loop_
_atom_site_label
_atom_site_type_symbol
_atom_site_fract_x
_atom_site_fract_y
_atom_site_fract_z
_atom_type_partial_charge
C0 C 0.15597 0.03871 0.06181 0.0
O1 O 0.13673 0.02908 0.09147 0.0
Cd2 Cd 0.12436 0.06747 0.10734 0.0
O3 O 0.17252 0.0673 0.05598 0.0
Cd4 Cd 0.18522 0.11523 0.09425 0.0
C5 C 0.14334 0.11188 0.01562 0.0
O6 O 0.15506 0.10457 0.15908 0.0
O7 O 0.16336 0.14415 0.12243 0.0
O8 O 0.22656 0.11663 0.13283 0.0
C9 C 0.15378 0.12885 0.15634 0.0
O10 O 0.12403 0.09019 0.03866 0.0
C11 C 0.2467 0.14277 0.12012 0.0
O12 O 0.17072 0.12796 0.02747 0.0
O13 O 0.23847 0.15621 0.09388 0.0
C14 C 0.91174 0.07782 0.0684 0.0
O15 O 0.90804 0.05328 0.08461 0.0
Cd16 Cd 0.86289 0.01316 0.11582 0.0
O17 O 0.8907 0.08421 0.06993 0.0
Cd18 Cd 0.83854 0.0599 0.0987 0.0
C19 C 0.8178 0.0025 0.02899 0.0
O20 O 0.84287 0.03496 0.16169 0.0
O21 O 0.79753 0.01952 0.14001 0.0
O22 O 0.84677 0.10718 0.13043 0.0
C23 C 0.81474 0.01781 0.16735 0.0
O24 O 0.82892 -0.00812 0.05544 0.0
C25 C 0.82398 0.10621 0.11291 0.0
O26 O 0.82044 0.02863 0.0341 0.0
O27 O 0.80905 0.08458 0.08688 0.0
C28 C 0.8562 0.81926 0.06997 0.0
O29 O 0.87567 0.8413 0.09224 0.0
Cd30 Cd 0.9221 0.84492 0.11326 0.0
O31 O 0.85795 0.79528 0.06509 0.0
Cd32 Cd 0.88842 0.77284 0.09147 0.0
C33 C 0.93618 0.81902 0.01799 0.0
O34 O 0.9131 0.80255 0.15474 0.0
O35 O 0.93318 0.77839 0.12535 0.0
O36 O 0.84537 0.73283 0.12785 0.0
C37 C 0.93344 0.79526 0.15519 0.0
O38 O 0.94047 0.83979 0.04448 0.0
C39 C 0.84666 0.71087 0.11076 0.0
O40 O 0.9178 0.79093 0.02563 0.0
O41 O 0.86668 0.71761 0.08236 0.0
C42 C 0.00533 0.13239 0.38629 0.0
O43 O 0.00864 0.11167 0.36909 0.0
Cd44 Cd 0.0542 0.11909 0.33762 0.0
O45 O 0.02656 0.16009 0.38471 0.0
Cd46 Cd 0.07807 0.18665 0.35301 0.0
C47 C 0.10063 0.15397 0.42308 0.0
O48 O 0.07453 0.15917 0.2874 0.0
O49 O 0.11767 0.18092 0.31938 0.0
O50 O 0.07237 0.22608 0.31763 0.0
C51 C 0.10243 0.16778 0.28645 0.0
O52 O 0.08967 0.13209 0.39646 0.0
C53 C 0.09586 0.24821 0.33397 0.0
O54 O 0.09702 0.17682 0.41864 0.0
O55 O 0.11005 0.24166 0.36108 0.0
C56 C 0.81199 0.86497 0.38472 0.0
O57 O 0.83105 0.89032 0.36831 0.0
Cd58 Cd 0.82205 0.92728 0.33508 0.0
O59 O 0.78377 0.8556 0.38294 0.0
Cd60 Cd 0.75249 0.87624 0.3537 0.0
C61 C 0.78594 0.9358 0.42107 0.0
O62 O 0.7802 0.90167 0.2898 0.0
O63 O 0.74854 0.91464 0.31187 0.0
O64 O 0.7133 0.82822 0.32274 0.0
C65 C 0.76746 0.9172 0.28401 0.0
O66 O 0.80727 0.94777 0.39407 0.0
C67 C 0.69173 0.82866 0.34193 0.0
O68 O 0.76421 0.90848 0.41706 0.0
O69 O 0.69881 0.84999 0.36861 0.0
C70 C 0.08807 0.94225 0.37809 0.0
O71 O 0.06318 0.93755 0.36263 0.0
Cd72 Cd 0.02444 0.89225 0.32933 0.0
O73 O 0.09571 0.92201 0.37511 0.0
Cd74 Cd 0.07229 0.86974 0.34481 0.0
C75 C 0.01444 0.8457 0.41385 0.0
O76 O 0.04741 0.87444 0.28178 0.0
O77 O 0.03317 0.82868 0.30217 0.0
O78 O 0.11896 0.87697 0.31291 0.0
C79 C 0.03131 0.84605 0.27511 0.0
O80 O 0.0032 0.85643 0.38779 0.0
C81 C 0.11748 0.85389 0.3309 0.0
O82 O 0.04087 0.84975 0.40877 0.0
O83 O 0.0962 0.8397 0.35734 0.0
C84 C 0.79479 0.92554 0.88839 0.0
O85 O 0.81852 0.93421 0.86659 0.0
Cd86 Cd 0.82969 0.89536 0.84745 0.0
O87 O 0.77457 0.89744 0.8895 0.0
Cd88 Cd 0.76103 0.8486 0.85377 0.0
C89 C 0.80099 0.84704 0.93501 0.0
O90 O 0.79643 0.86213 0.79431 0.0
O91 O 0.77548 0.8159 0.81855 0.0
O92 O 0.72166 0.85006 0.81341 0.0
C93 C 0.79236 0.83535 0.79125 0.0
O94 O 0.82272 0.86821 0.91421 0.0
C95 C 0.70022 0.82469 0.82641 0.0
O96 O 0.77403 0.83385 0.92087 0.0
O97 O 0.70686 0.81044 0.85349 0.0
C98 C 0.02316 0.87871 0.88786 0.0
O99 O 0.02597 0.9034 0.87364 0.0
Cd100 Cd 0.06921 0.94463 0.84018 0.0
O101 O 0.0446 0.87304 0.88405 0.0
Cd102 Cd 0.09615 0.89998 0.85304 0.0
C103 C 0.11948 0.95864 0.92131 0.0
O104 O 0.08757 0.92321 0.79081 0.0
O105 O 0.13403 0.93966 0.8083 0.0
O106 O 0.08989 0.85402 0.81975 0.0
C107 C 0.11537 0.9401 0.78242 0.0
O108 O 0.10648 0.96822 0.89647 0.0
C109 C 0.11371 0.85626 0.83563 0.0
O110 O 0.11702 0.93261 0.91613 0.0
O111 O 0.12824 0.87777 0.86197 0.0
C112 C 0.0795 0.13155 0.88346 0.0
O113 O 0.05943 0.10839 0.8636 0.0
Cd114 Cd 0.01259 0.10341 0.8423 0.0
O115 O 0.07761 0.15558 0.88643 0.0
Cd116 Cd 0.04452 0.17491 0.85926 0.0
C117 C -0.00233 0.13051 0.93515 0.0
O118 O 0.02076 0.1436 0.79617 0.0
O119 O -0.00103 0.16641 0.82458 0.0
O120 O 0.08579 0.21746 0.8224 0.0
C121 C 0.0001 0.15039 0.7946 0.0
O122 O -0.00658 0.10896 0.9102 0.0
C123 C 0.08192 0.23789 0.83949 0.0
O124 O 0.01571 0.15831 0.92564 0.0
O125 O 0.06175 0.22921 0.86804 0.0
C126 C 0.93656 0.81364 0.5548 0.0
O127 O 0.9436 0.83625 0.57893 0.0
Cd128 Cd 0.90272 0.84288 0.60212 0.0
O129 O 0.90924 0.79205 0.5526 0.0
Cd130 Cd 0.86053 0.77498 0.58901 0.0
C131 C 0.8554 0.81776 0.51418 0.0
O132 O 0.87032 0.80652 0.65334 0.0
O133 O 0.82554 0.7851 0.62505 0.0
O134 O 0.86162 0.73306 0.62451 0.0
C135 C 0.84296 0.80018 0.65536 0.0
O136 O 0.87533 0.83926 0.53693 0.0
C137 C 0.83662 0.71243 0.60937 0.0
O138 O 0.8446 0.79 0.5248 0.0
O139 O 0.82344 0.72083 0.58306 0.0
C140 C 0.13985 0.11081 0.5598 0.0
O141 O 0.11826 0.09431 0.58464 0.0
Cd142 Cd 0.1132 0.04654 0.60462 0.0
O143 O 0.16194 0.10619 0.55566 0.0
Cd144 Cd 0.18254 0.07598 0.58793 0.0
C145 C 0.13923 0.02938 0.51209 0.0
O146 O 0.15214 0.05243 0.65128 0.0
O147 O 0.17419 0.0301 0.62193 0.0
O148 O 0.22282 0.11975 0.62415 0.0
C149 C 0.15853 0.03129 0.65216 0.0
O150 O 0.11813 0.02647 0.53651 0.0
C151 C 0.2441 0.11694 0.60846 0.0
O152 O 0.16691 0.0465 0.5221 0.0
O153 O 0.23682 0.09581 0.58129 0.0
C154 C 0.83311 0.01543 0.56097 0.0
O155 O 0.84889 0.00864 0.58459 0.0
Cd156 Cd 0.89677 0.04949 0.60812 0.0
O157 O 0.83888 0.04288 0.55872 0.0
Cd158 Cd 0.87052 0.09302 0.59325 0.0
C159 C 0.91786 0.09642 0.51875 0.0
O160 O 0.891 0.08201 0.65656 0.0
O161 O 0.91482 0.1283 0.63236 0.0
O162 O 0.82669 0.08968 0.62745 0.0
C163 C 0.91232 0.10943 0.66059 0.0
O164 O 0.91912 0.07662 0.54209 0.0
C165 C 0.83045 0.11465 0.6129 0.0
O166 O 0.9016 0.10784 0.52901 0.0
O167 O 0.85242 0.12921 0.5875 0.0
C168 C 0.78739 0.35117 0.40594 0.0
O169 O 0.76558 0.34711 0.42936 0.0
Cd170 Cd 0.76165 0.39004 0.44913 0.0
O171 O 0.80999 0.37789 0.40089 0.0
Cd172 Cd 0.82904 0.43002 0.43063 0.0
C173 C 0.7857 0.43251 0.35561 0.0
O174 O 0.80092 0.42315 0.496 0.0
O175 O 0.81534 0.46518 0.46179 0.0
O176 O 0.86983 0.42886 0.46751 0.0
C177 C 0.80412 0.44959 0.49512 0.0
O178 O 0.76501 0.41469 0.38109 0.0
C179 C 0.89094 0.45349 0.45215 0.0
O180 O 0.81348 0.44289 0.3643 0.0
O181 O 0.88346 0.46701 0.42498 0.0
C182 C 0.59053 0.45453 0.40279 0.0
O183 O 0.59769 0.43884 0.42614 0.0
Cd184 Cd 0.55739 0.38903 0.44407 0.0
O185 O 0.56301 0.44763 0.39988 0.0
Cd186 Cd 0.51335 0.41344 0.43293 0.0
C187 C 0.51288 0.37108 0.353 0.0
O188 O 0.52329 0.39005 0.49424 0.0
O189 O 0.47867 0.3658 0.4656 0.0
O190 O 0.51319 0.45481 0.47136 0.0
C191 C 0.49636 0.36766 0.49506 0.0
O192 O 0.53257 0.36939 0.37564 0.0
C193 C 0.48821 0.45008 0.45624 0.0
O194 O 0.50038 0.3859 0.36559 0.0
O195 O 0.47549 0.42898 0.42874 0.0
C196 C 0.52511 0.16343 0.39232 0.0
O197 O 0.55008 0.1836 0.40823 0.0
Cd198 Cd 0.58782 0.17711 0.44362 0.0
O199 O 0.51667 0.13521 0.39542 0.0
Cd200 Cd 0.53905 0.10609 0.4269 0.0
C201 C 0.59892 0.13997 0.36087 0.0
O202 O 0.56315 0.13597 0.4907 0.0
O203 O 0.57653 0.10372 0.47137 0.0
O204 O 0.49186 0.06638 0.4581 0.0
C205 C 0.57829 0.12304 0.49833 0.0
O206 O 0.60988 0.16209 0.38708 0.0
C207 C 0.49317 0.04452 0.44065 0.0
O208 O 0.57206 0.11758 0.36467 0.0
O209 O 0.5145 0.05156 0.41445 0.0
C210 C 0.67429 0.4972 0.7262 0.0
O211 O 0.6645 0.47681 0.69773 0.0
Cd212 Cd 0.70169 0.46401 0.67752 0.0
O213 O 0.70263 0.5143 0.73142 0.0
Cd214 Cd 0.74979 0.526 0.694 0.0
C215 C 0.7464 0.47988 0.76807 0.0
O216 O 0.73862 0.497 0.62753 0.0
O217 O 0.77789 0.50436 0.6634 0.0
O218 O 0.75271 0.56906 0.65765 0.0
C219 C 0.76266 0.4956 0.62937 0.0
O220 O 0.72522 0.46106 0.74385 0.0
C221 C 0.77888 0.58854 0.67075 0.0
O222 O 0.76141 0.50811 0.75889 0.0
O223 O 0.79155 0.57919 0.69657 0.0
C224 C 0.47075 0.19622 0.71614 0.0
O225 O 0.49356 0.2148 0.69455 0.0
Cd226 Cd 0.49895 0.26243 0.67312 0.0
O227 O 0.44788 0.19969 0.71904 0.0
Cd228 Cd 0.42839 0.23157 0.68913 0.0
C229 C 0.47212 0.27933 0.7648 0.0
O230 O 0.45961 0.25514 0.62634 0.0
O231 O 0.436 0.27661 0.65335 0.0
O232 O 0.38799 0.18809 0.65267 0.0
C233 C 0.45263 0.27582 0.62426 0.0
O234 O 0.49342 0.28268 0.74047 0.0
C235 C 0.36674 0.19078 0.66867 0.0
O236 O 0.44451 0.26155 0.75494 0.0
O237 O 0.37406 0.21178 0.69609 0.0
C238 C 0.75338 0.26282 0.71816 0.0
O239 O 0.73793 0.26926 0.6933 0.0
Cd240 Cd 0.68934 0.22773 0.67363 0.0
O241 O 0.74721 0.23531 0.72206 0.0
Cd242 Cd 0.7155 0.18426 0.68992 0.0
C243 C 0.67178 0.18453 0.76672 0.0
O244 O 0.69278 0.19281 0.62722 0.0
O245 O 0.66935 0.14771 0.65535 0.0
O246 O 0.75869 0.18728 0.65416 0.0
C247 C 0.67091 0.16546 0.62597 0.0
O248 O 0.66995 0.20352 0.74232 0.0
C249 C 0.75544 0.16268 0.6694 0.0
O250 O 0.68712 0.17211 0.75639 0.0
O251 O 0.73404 0.14849 0.69577 0.0
C252 C 0.48299 0.28846 0.21504 0.0
O253 O 0.50426 0.28919 0.19348 0.0
Cd254 Cd 0.50308 0.24442 0.1676 0.0
O255 O 0.4576 0.26385 0.21809 0.0
Cd256 Cd 0.43165 0.21084 0.18978 0.0
C257 C 0.47551 0.20185 0.2603 0.0
O258 O 0.45971 0.21573 0.12497 0.0
O259 O 0.43252 0.17034 0.15076 0.0
O260 O 0.39149 0.21661 0.15828 0.0
C261 C 0.44984 0.18731 0.12167 0.0
O262 O 0.49666 0.21777 0.23426 0.0
C263 C 0.37011 0.19343 0.17632 0.0
O264 O 0.44836 0.19521 0.25325 0.0
O265 O 0.37749 0.17928 0.20253 0.0
C266 C 0.68024 0.18642 0.22389 0.0
O267 O 0.6741 0.20307 0.20092 0.0
Cd268 Cd 0.71532 0.25169 0.18069 0.0
O269 O 0.70727 0.19165 0.22626 0.0
Cd270 Cd 0.75717 0.22369 0.19159 0.0
C271 C 0.76168 0.26889 0.26992 0.0
O272 O 0.74682 0.24656 0.13038 0.0
O273 O 0.79239 0.27008 0.15572 0.0
O274 O 0.75439 0.18077 0.1541 0.0
C275 C 0.77396 0.2683 0.12747 0.0
O276 O 0.74231 0.27147 0.24775 0.0
C277 C 0.77908 0.18428 0.16851 0.0
O278 O 0.77252 0.25248 0.25771 0.0
O279 O 0.7932 0.20562 0.19529 0.0
C280 C 0.73436 0.46924 0.22364 0.0
O281 O 0.70864 0.44921 0.20964 0.0
Cd282 Cd 0.67068 0.45682 0.17752 0.0
O283 O 0.74345 0.49754 0.2194 0.0
Cd284 Cd 0.72176 0.52747 0.18841 0.0
C285 C 0.66606 0.49803 0.26068 0.0
O286 O 0.69376 0.49636 0.12755 0.0
O287 O 0.68193 0.5294 0.14848 0.0
O288 O 0.76802 0.56498 0.1525 0.0
C289 C 0.6783 0.50916 0.12177 0.0
O290 O 0.65311 0.47507 0.23601 0.0
C291 C 0.76856 0.58785 0.16984 0.0
O292 O 0.69291 0.51964 0.2539 0.0
O293 O 0.74854 0.58235 0.19765 0.0
C294 C 0.58878 0.16071 0.90074 0.0
O295 O 0.58836 0.18373 0.91562 0.0
Cd296 Cd 0.54461 0.18388 0.94109 0.0
O297 O 0.5654 0.13421 0.90304 0.0
Cd298 Cd 0.51348 0.11077 0.93329 0.0
C299 C 0.49896 0.14597 0.85487 0.0
O300 O 0.52084 0.14505 -0.00776 0.0
O301 O 0.47486 0.1156 0.97124 0.0
O302 O 0.51853 0.07191 0.97129 0.0
C303 C 0.49292 0.13539 -0.00263 0.0
O304 O 0.51357 0.16992 0.87733 0.0
C305 C 0.49481 0.0496 0.95567 0.0
O306 O 0.49619 0.1206 0.86593 0.0
O307 O 0.48063 0.05575 0.92803 0.0
C308 C 0.77745 0.41902 0.89406 0.0
O309 O 0.75646 0.39366 0.90797 0.0
Cd310 Cd 0.76122 0.35371 0.94057 0.0
O311 O 0.80503 0.42622 0.89799 0.0
Cd312 Cd 0.83148 0.40061 0.92781 0.0
C313 C 0.79796 0.34331 0.85735 0.0
O314 O 0.80084 0.37529 -0.00942 0.0
O315 O 0.8313 0.36034 0.96915 0.0
O316 O 0.87172 0.44648 0.96165 0.0
C317 C 0.81286 0.35909 -0.00313 0.0
O318 O 0.77562 0.332 0.88272 0.0
C319 C 0.89298 0.4443 0.94451 0.0
O320 O 0.82062 0.36987 0.86307 0.0
O321 O 0.8855 0.42321 0.91732 0.0
C322 C 0.52271 0.36662 0.89896 0.0
O323 O 0.54734 0.37105 0.91504 0.0
Cd324 Cd 0.58556 0.41589 0.94992 0.0
O325 O 0.51509 0.38687 0.90215 0.0
Cd326 Cd 0.53794 0.43865 0.93438 0.0
C327 C 0.59675 0.46452 0.86731 0.0
O328 O 0.56213 0.43309 -0.00251 0.0
O329 O 0.57683 0.47914 -0.02179 0.0
O330 O 0.49086 0.42992 0.96589 0.0
C331 C 0.57848 0.46137 0.0048 0.0
O332 O 0.60745 0.45307 0.8931 0.0
C333 C 0.49183 0.45303 0.9488 0.0
O334 O 0.57019 0.46026 0.87167 0.0
O335 O 0.51328 0.46825 0.923 0.0
C336 C 0.45728 0.70054 0.73103 0.0
O337 O 0.43858 0.70664 0.74838 0.0
Cd338 Cd 0.44879 0.75282 0.78301 0.0
O339 O 0.48557 0.71971 0.73211 0.0
Cd340 Cd 0.51833 0.77199 0.76122 0.0
C341 C 0.48416 0.79879 0.69708 0.0
O342 O 0.4915 0.76848 0.82604 0.0
O343 O 0.52422 0.81397 0.80649 0.0
O344 O 0.55566 0.76023 0.78917 0.0
C345 C 0.50492 0.79681 0.83362 0.0
O346 O 0.46323 0.78876 0.72472 0.0
C347 C 0.57804 0.78256 0.77122 0.0
O348 O 0.5059 0.79345 0.69962 0.0
O349 O 0.57227 0.79871 0.74646 0.0
C350 C 0.25229 0.75768 0.72939 0.0
O351 O 0.24879 0.73299 0.74469 0.0
Cd352 Cd 0.2028 0.69098 0.77037 0.0
O353 O 0.23062 0.76321 0.72993 0.0
Cd354 Cd 0.17765 0.73702 0.75676 0.0
C355 C 0.15944 0.6835 0.68224 0.0
O356 O 0.18063 0.70957 0.81832 0.0
O357 O 0.13603 0.69491 0.79355 0.0
O358 O 0.18368 0.78198 0.79319 0.0
C359 C 0.15225 0.69256 0.82188 0.0
O360 O 0.17161 0.67291 0.70687 0.0
C361 C 0.161 0.78122 0.77562 0.0
O362 O 0.15987 0.70827 0.69041 0.0
O363 O 0.14742 0.76112 0.74713 0.0
C364 C 0.17075 0.47896 0.73225 0.0
O365 O 0.19452 0.50026 0.74936 0.0
Cd366 Cd 0.23443 0.49734 0.78444 0.0
O367 O 0.16472 0.45138 0.73454 0.0
Cd368 Cd 0.19032 0.42533 0.76656 0.0
C369 C 0.24916 0.46383 0.70028 0.0
O370 O 0.21321 0.45545 0.83069 0.0
O371 O 0.23036 0.42667 0.80928 0.0
O372 O 0.14496 0.38341 0.79832 0.0
C373 C 0.23051 0.44475 0.83707 0.0
O374 O 0.25842 0.4857 0.72676 0.0
C375 C 0.14808 0.36258 0.78094 0.0
O376 O 0.22343 0.43974 0.70408 0.0
O377 O 0.16944 0.37102 0.75436 0.0
C378 C 0.36218 0.80863 0.05498 0.0
O379 O 0.36585 0.78787 0.03859 0.0
Cd380 Cd 0.41093 0.79366 0.00708 0.0
O381 O 0.38338 0.8364 0.05399 0.0
Cd382 Cd 0.4359 0.86492 0.02594 0.0
C383 C 0.45659 0.8278 0.09382 0.0
O384 O 0.4311 0.83616 0.96194 0.0
O385 O 0.47657 0.86609 -0.01614 0.0
O386 O 0.42795 0.904 -0.00514 0.0
C387 C 0.45918 0.84746 0.95604 0.0
O388 O 0.44517 0.80618 0.06683 0.0
C389 C 0.45094 0.92622 0.01203 0.0
O390 O 0.45406 0.85137 0.08981 0.0
O391 O 0.46591 0.91978 0.03792 0.0
C392 C 0.12927 0.53397 0.0497 0.0
O393 O 0.15113 0.55726 0.03252 0.0
Cd394 Cd 0.15011 0.59901 -0.00079 0.0
O395 O 0.10259 0.52982 0.04827 0.0
Cd396 Cd 0.0786 0.5577 0.01773 0.0
C397 C 0.1193 0.61593 0.0846 0.0
O398 O 0.10816 0.57921 0.95351 0.0
O399 O 0.0817 0.59892 0.97463 0.0
O400 O 0.03707 0.5122 -0.01369 0.0
C401 C 0.099 0.59781 0.94692 0.0
O402 O 0.14066 0.62409 0.05794 0.0
C403 C 0.0164 0.51583 0.00246 0.0
O404 O 0.09447 0.59081 0.08071 0.0
O405 O 0.02464 0.5378 0.02841 0.0
C406 C 0.40091 0.59473 0.05011 0.0
O407 O 0.37889 0.59525 0.03248 0.0
Cd408 Cd 0.33354 0.5506 0.01085 0.0
O409 O 0.40177 0.57009 0.05134 0.0
Cd410 Cd 0.37177 0.51678 0.02401 0.0
C411 C 0.324 0.50803 0.10183 0.0
O412 O 0.34515 0.52199 0.96325 0.0
O413 O 0.32726 0.47669 -0.01084 0.0
O414 O 0.41481 0.52067 -0.01366 0.0
C415 C 0.32595 0.49371 0.96094 0.0
O416 O 0.31675 0.52351 0.07793 0.0
C417 C 0.41339 0.49734 0.00334 0.0
O418 O 0.34445 0.50205 0.0914 0.0
O419 O 0.39336 0.48379 0.03167 0.0
C420 C 0.12395 0.59864 0.54914 0.0
O421 O 0.14608 0.60096 0.52798 0.0
Cd422 Cd 0.14762 0.55696 0.50524 0.0
O423 O 0.0996 0.573 0.55243 0.0
Cd424 Cd 0.07572 0.52007 0.5245 0.0
C425 C 0.11956 0.51334 0.59742 0.0
O426 O 0.10545 0.52768 0.4609 0.0
O427 O 0.07923 0.48141 0.4842 0.0
O428 O 0.03571 0.52528 0.49159 0.0
C429 C 0.09673 0.49963 0.45623 0.0
O430 O 0.14098 0.53054 0.57247 0.0
C431 C 0.01416 0.50152 0.50823 0.0
O432 O 0.09216 0.505 0.58882 0.0
O433 O 0.02126 0.4871 0.53438 0.0
C434 C 0.33169 0.51689 0.56526 0.0
O435 O 0.32509 0.53276 0.5414 0.0
Cd436 Cd 0.36565 0.58074 0.51709 0.0
O437 O 0.35893 0.52294 0.56823 0.0
Cd438 Cd 0.4083 0.55597 0.53373 0.0
C439 C 0.41279 0.60605 0.60523 0.0
O440 O 0.39805 0.57547 0.46798 0.0
O441 O 0.44314 0.60046 0.49519 0.0
O442 O 0.40749 0.51266 0.50029 0.0
C443 C 0.42538 0.59688 0.46492 0.0
O444 O 0.39301 0.60672 0.58152 0.0
C445 C 0.43243 0.51759 0.51577 0.0
O446 O 0.4235 0.58887 0.5964 0.0
O447 O 0.44561 0.53972 0.54168 0.0
C448 C 0.43187 0.8262 0.55976 0.0
O449 O 0.41713 0.80294 0.53638 0.0
Cd450 Cd 0.3675 0.7912 0.51583 0.0
O451 O 0.42383 0.84613 0.56253 0.0
Cd452 Cd 0.38821 0.85891 0.52721 0.0
C453 C 0.34393 0.81508 0.60404 0.0
O454 O 0.36794 0.8256 0.46453 0.0
O455 O 0.34141 0.84392 0.49161 0.0
O456 O 0.42829 0.90066 0.48841 0.0
C457 C 0.34514 0.82915 0.46215 0.0
O458 O 0.34424 0.79431 0.58173 0.0
C459 C 0.42309 0.92106 0.50217 0.0
O460 O 0.35838 0.84287 0.59244 0.0
O461 O 0.40228 0.91288 0.5297 0.0
C462 C 0.24141 0.48047 0.23521 0.0
O463 O 0.24382 0.50311 0.25575 0.0
Cd464 Cd 0.20066 0.50597 0.27687 0.0
O465 O 0.21581 0.45617 0.23145 0.0
Cd466 Cd 0.16309 0.4339 0.25769 0.0
C467 C 0.15881 0.47838 0.18345 0.0
O468 O 0.16995 0.46406 0.32118 0.0
O469 O 0.12471 0.43889 0.29507 0.0
O470 O 0.1667 0.39349 0.29243 0.0
C471 C 0.14219 0.4559 0.32413 0.0
O472 O 0.17569 0.49985 0.2088 0.0
C473 C 0.14303 0.37178 0.27583 0.0
O474 O 0.14988 0.45061 0.19214 0.0
O475 O 0.12931 0.37889 0.24859 0.0
C476 C 0.47714 0.77006 0.23055 0.0
O477 O 0.45345 0.75547 0.25272 0.0
Cd478 Cd 0.43899 0.70428 0.27122 0.0
O479 O 0.49595 0.76073 0.2278 0.0
Cd480 Cd 0.50643 0.72254 0.26043 0.0
C481 C 0.46208 0.68122 0.18137 0.0
O482 O 0.47254 0.70271 0.32175 0.0
O483 O 0.48952 0.67466 0.29567 0.0
O484 O 0.54833 0.76169 0.30007 0.0
C485 C 0.47459 0.67885 0.32421 0.0
O486 O 0.44192 0.68219 0.20379 0.0
C487 C 0.56816 0.75614 0.28563 0.0
O488 O 0.48947 0.69404 0.19373 0.0
O489 O 0.55955 0.73528 0.25768 0.0
C490 C 0.17804 0.69683 0.2205 0.0
O491 O 0.19208 0.68792 0.24415 0.0
Cd492 Cd 0.24166 0.7256 0.26733 0.0
O493 O 0.18688 0.72511 0.21773 0.0
Cd494 Cd 0.22315 0.77383 0.25257 0.0
C495 C 0.26902 0.77303 0.17923 0.0
O496 O 0.24131 0.76071 0.31702 0.0
O497 O 0.26892 0.806 0.2903 0.0
O498 O 0.18275 0.77559 0.28888 0.0
C499 C 0.26427 0.78735 0.31999 0.0
O500 O 0.26756 0.75184 0.20248 0.0
C501 C 0.18834 0.80121 0.2744 0.0
O502 O 0.25465 0.7866 0.18895 0.0
O503 O 0.20971 0.81395 0.24761 0.0
C504 C 0.1644 0.02868 -0.01272 0.0
C505 C 0.15388 0.01738 0.02821 0.0
H506 H 0.16125 0.01852 0.92094 0.0
C507 C 0.13659 -0.01436 0.03421 0.0
H508 H 0.17777 0.05297 -0.01855 0.0
C509 C 0.12773 0.96584 -0.00064 0.0
C510 C 0.13557 0.97764 0.95817 0.0
H511 H 0.12824 0.97627 0.06539 0.0
H512 H 0.11264 0.94166 0.0043 0.0
C513 C 0.15492 0.00902 0.95253 0.0
C514 C 0.95763 0.08465 0.0312 0.0
C515 C 0.93858 0.09617 0.04143 0.0
H516 H -0.00875 0.08668 -0.01092 0.0
C517 C 0.94291 0.12264 0.02073 0.0
H518 H 0.95517 0.06448 0.04662 0.0
C519 C 0.9642 0.13574 -0.01194 0.0
C520 C -0.01904 0.1222 -0.02462 0.0
H521 H 0.92872 0.13217 0.02803 0.0
H522 H -0.03409 0.15494 0.97074 0.0
C523 C -0.02169 0.09731 -0.00182 0.0
C524 C 0.82707 0.86069 0.00436 0.0
C525 C 0.80816 0.83796 -0.0244 0.0
H526 H 0.8561 0.87233 0.05809 0.0
C527 C 0.80063 0.8077 -0.01718 0.0
H528 H 0.83303 0.88418 -0.0006 0.0
C529 C 0.81437 0.80085 0.01609 0.0
C530 C 0.83541 0.82416 0.04283 0.0
H531 H 0.78614 0.78986 0.9608 0.0
H532 H 0.81004 0.77775 0.01908 0.0
C533 C 0.84023 0.85381 0.03802 0.0
C534 C 0.9532 0.13655 0.46797 0.0
C535 C 0.9359 0.10576 0.47957 0.0
H536 H -0.01082 0.16943 0.42895 0.0
C537 C 0.93851 0.08376 0.45607 0.0
H538 H 0.95153 0.1539 0.48575 0.0
C539 C 0.95943 0.09243 0.42331 0.0
C540 C -0.02123 0.12342 0.41391 0.0
H541 H 0.92513 0.05982 0.46417 0.0
H542 H 0.96166 0.07483 0.40719 0.0
C543 C -0.02527 0.14538 0.43555 0.0
C544 C 0.80332 0.82159 0.43257 0.0
C545 C 0.8233 0.84894 0.41167 0.0
H546 H 0.79802 0.78976 0.48138 0.0
C547 C 0.85432 0.86324 0.42106 0.0
H548 H 0.77932 0.80994 0.42595 0.0
C549 C 0.86478 0.85204 0.45307 0.0
C550 C 0.84462 0.82592 0.47583 0.0
H551 H 0.87045 0.8842 0.40548 0.0
H552 H 0.88859 0.86451 0.46109 0.0
C553 C 0.81398 0.81 0.46422 0.0
C554 C 0.09305 -0.01264 0.41682 0.0
C555 C 0.10553 0.96921 0.4057 0.0
H556 H 0.09406 0.02055 0.45955 0.0
C557 C 0.1323 0.97457 0.42589 0.0
H558 H 0.07262 -0.01588 0.40181 0.0
C559 C 0.14492 -0.00396 0.45875 0.0
C560 C 0.13061 0.01195 0.47219 0.0
H561 H 0.14256 0.96109 0.41792 0.0
H562 H 0.16454 -0.00139 0.47548 0.0
C563 C 0.10526 0.00822 0.45001 0.0
C564 C 0.81885 -0.00244 0.95081 0.0
C565 C 0.80494 -0.01484 -0.01021 0.0
H566 H 0.82648 -0.01195 0.88722 0.0
C567 C 0.78329 0.9541 -0.00766 0.0
H568 H 0.83589 0.02146 0.94842 0.0
C569 C 0.77739 0.93513 0.95728 0.0
C570 C 0.79385 0.9468 0.91956 0.0
H571 H 0.77248 0.94413 0.02229 0.0
H572 H 0.76206 0.91089 0.96117 0.0
C573 C 0.81357 0.97842 0.91594 0.0
C574 C 0.95458 0.85354 0.95642 0.0
C575 C 0.9531 0.82876 -0.02195 0.0
H576 H -0.0228 0.88814 0.90996 0.0
C577 C -0.02833 0.8173 0.96524 0.0
H578 H 0.94032 0.86263 0.96578 0.0
C579 C -0.0066 0.83232 0.93359 0.0
C580 C -0.00353 0.85869 0.91416 0.0
H581 H -0.02905 0.79828 -0.01819 0.0
H582 H 0.00886 0.82432 0.92614 0.0
C583 C -0.02422 0.86815 0.92448 0.0
C584 C 0.12389 0.15302 0.93337 0.0
C585 C 0.10156 0.12825 0.90996 0.0
H586 H 0.15542 0.16725 -0.01479 0.0
C587 C 0.09716 0.09898 0.91738 0.0
H588 H 0.12792 0.17585 0.92831 0.0
C589 C 0.11234 0.09409 0.95032 0.0
C590 C 0.13286 0.11844 -0.02426 0.0
H591 H 0.08031 0.07936 0.89989 0.0
H592 H 0.10696 0.071 0.95724 0.0
C593 C 0.13967 0.14816 0.96585 0.0
C594 C -0.01053 0.8369 0.52707 0.0
C595 C 0.95848 0.81559 0.52273 0.0
H596 H 0.0321 0.86253 0.49534 0.0
C597 C 0.94777 0.80008 0.48394 0.0
H598 H -0.00165 0.84915 0.55659 0.0
C599 C -0.03313 0.80825 0.44891 0.0
C600 C -0.00281 0.83127 0.45244 0.0
H601 H 0.92404 0.78359 0.47947 0.0
H602 H 0.95752 0.79795 0.4184 0.0
C603 C 0.00879 0.84446 0.49216 0.0
C604 C 0.1397 0.1452 0.4548 0.0
C605 C 0.11616 0.15129 0.46042 0.0
H606 H 0.16676 0.12889 0.48279 0.0
C607 C 0.10429 0.14944 0.50107 0.0
H608 H 0.14904 0.14647 0.42356 0.0
C609 C 0.11386 0.13863 0.53498 0.0
C610 C 0.13583 0.13019 0.52866 0.0
H611 H 0.08592 0.15386 0.50584 0.0
H612 H 0.10271 0.13501 0.56536 0.0
C613 C 0.14985 0.13524 0.48881 0.0
C614 C 0.80282 0.9618 0.534 0.0
C615 C 0.81265 -0.00703 0.52938 0.0
H616 H 0.78541 0.9186 0.50266 0.0
C617 C 0.80759 0.00336 0.49066 0.0
H618 H 0.80636 0.95315 0.56351 0.0
C619 C 0.79632 -0.01619 0.45584 0.0
C620 C 0.78898 0.95336 0.45955 0.0
H621 H 0.81491 0.02722 0.486 0.0
H622 H 0.79519 -0.00704 0.42531 0.0
C623 C 0.79073 0.94202 0.49932 0.0
C624 C 0.80028 0.30966 0.31627 0.0
C625 C 0.77085 0.28516 0.31048 0.0
H626 H 0.82892 0.35015 0.3519 0.0
C627 C 0.74861 0.27959 0.3406 0.0
H628 H 0.81766 0.31435 0.29305 0.0
C629 C 0.75503 0.29956 0.37451 0.0
C630 C 0.78363 0.32598 0.37814 0.0
H631 H 0.72575 0.26073 0.33652 0.0
H632 H 0.73681 0.29551 0.3958 0.0
C633 C 0.80663 0.3301 0.34985 0.0
C634 C 0.64331 0.48446 0.37464 0.0
C635 C 0.61253 0.47536 0.37119 0.0
H636 H 0.68511 0.49996 0.34149 0.0
C637 C 0.60183 0.48073 0.33297 0.0
H638 H 0.65222 0.48073 0.40372 0.0
C639 C 0.62042 0.49102 0.29737 0.0
C640 C 0.65025 0.49715 0.29981 0.0
H641 H 0.57828 0.47406 0.32919 0.0
H642 H 0.61087 0.49206 0.26718 0.0
C643 C 0.66216 0.49556 0.33914 0.0
C644 C 0.52141 0.20441 0.35433 0.0
C645 C 0.50826 0.17338 0.36475 0.0
H646 H 0.52114 0.23747 0.31275 0.0
C647 C 0.48124 0.15215 0.34437 0.0
H648 H 0.54206 0.22149 0.36945 0.0
C649 C 0.46889 0.1616 0.31217 0.0
C650 C 0.48373 0.19226 0.29961 0.0
H651 H 0.47048 0.1281 0.35178 0.0
H652 H 0.44903 0.14474 0.29526 0.0
C653 C 0.50947 0.21365 0.3218 0.0
C654 C 0.64587 0.50042 0.83443 0.0
C655 C 0.61484 0.48007 0.82972 0.0
H656 H 0.68906 0.523 0.80464 0.0
C657 C 0.6027 0.47036 0.78899 0.0
H658 H 0.65562 0.5082 0.86565 0.0
C659 C 0.62193 0.47821 0.75393 0.0
C660 C 0.6534 0.49632 0.75924 0.0
H661 H 0.57878 0.45449 0.78479 0.0
H662 H 0.61235 0.46835 0.72333 0.0
C663 C 0.66496 0.50888 0.79939 0.0
C664 C 0.45241 0.16058 0.77794 0.0
C665 C 0.47339 0.17466 0.74487 0.0
H666 H 0.4443 0.14001 0.83953 0.0
C667 C 0.49979 0.17268 0.74471 0.0
H668 H 0.4318 0.16157 0.77901 0.0
C669 C 0.50668 0.16009 0.77924 0.0
C670 C 0.48717 0.14906 0.81411 0.0
H671 H 0.51633 0.18309 0.71964 0.0
H672 H 0.52838 0.16127 0.78025 0.0
C673 C 0.45943 0.14812 0.81255 0.0
C674 C 0.78905 0.29559 0.82344 0.0
C675 C 0.79564 0.32576 0.81919 0.0
H676 H 0.77176 0.25216 0.79384 0.0
C677 C 0.79388 0.3367 0.77912 0.0
H678 H 0.79018 0.28677 0.85424 0.0
C679 C 0.78256 0.31672 0.74454 0.0
C680 C 0.77343 0.28574 0.74962 0.0
H681 H 0.79863 0.35991 0.77541 0.0
H682 H 0.77898 0.325 0.71473 0.0
C683 C 0.77853 0.27585 0.78877 0.0
C684 C 0.52738 0.35606 0.28636 0.0
C685 C 0.50458 0.35494 0.31212 0.0
H686 H 0.53836 0.33673 0.23419 0.0
C687 C 0.47423 0.33531 0.30122 0.0
H688 H 0.55097 0.37126 0.29406 0.0
C689 C 0.46686 0.31493 0.26726 0.0
C690 C 0.4898 0.31444 0.24336 0.0
H691 H 0.4563 0.33411 0.3208 0.0
H692 H 0.44332 0.29844 0.2613 0.0
C693 C 0.52009 0.33632 0.25195 0.0
C694 C 0.66734 0.16162 0.29472 0.0
C695 C 0.65758 0.16588 0.25499 0.0
H696 H 0.65596 0.15013 0.36007 0.0
C697 C 0.62671 0.15551 0.24883 0.0
H698 H 0.69098 0.16948 0.30057 0.0
C699 C 0.60651 0.14364 0.28282 0.0
C700 C 0.61712 0.14268 0.32347 0.0
H701 H 0.61858 0.1585 0.21853 0.0
H702 H 0.58328 0.1379 0.27817 0.0
C703 C 0.64736 0.1506 0.32885 0.0
C704 C 0.79182 0.47148 0.30171 0.0
C705 C 0.77654 0.44125 0.31625 0.0
H706 H 0.79036 0.50435 0.26061 0.0
C707 C 0.74996 0.41974 0.29574 0.0
H708 H 0.81238 0.48847 0.31714 0.0
C709 C 0.73769 0.42855 0.26312 0.0
C710 C 0.75137 0.4593 0.25088 0.0
H711 H 0.73795 0.3962 0.30611 0.0
H712 H 0.71643 0.41147 0.2494 0.0
C713 C 0.77917 0.48053 0.26944 0.0
C714 C 0.63746 0.19581 0.86476 0.0
C715 C 0.61468 0.1658 0.87398 0.0
H716 H 0.67335 0.22504 0.82307 0.0
C717 C 0.61454 0.14154 0.85208 0.0
H718 H 0.63853 0.21507 0.88116 0.0
C719 C 0.63508 0.1474 0.81908 0.0
C720 C 0.65563 0.17754 0.80734 0.0
H721 H 0.59741 0.11816 0.85854 0.0
H722 H 0.63333 0.12853 0.80073 0.0
C723 C 0.65744 0.20159 0.83145 0.0
C724 C 0.73903 0.4266 0.85602 0.0
C725 C 0.76932 0.43807 0.86794 0.0
H726 H 0.7082 0.43092 0.81503 0.0
C727 C 0.79167 0.46592 0.85058 0.0
H728 H 0.72115 0.40536 0.86887 0.0
C729 C 0.78404 0.48086 0.81991 0.0
C730 C 0.75407 0.46791 0.80572 0.0
H731 H 0.81518 0.47546 0.85924 0.0
H732 H 0.80182 0.50148 0.80551 0.0
C733 C 0.73156 0.44119 0.82502 0.0
C734 C 0.47889 0.33464 0.85019 0.0
C735 C 0.50543 0.33983 0.87093 0.0
H736 H 0.44691 0.3106 0.80027 0.0
C737 C 0.51777 0.32146 0.86035 0.0
H738 H 0.46873 0.3483 0.85773 0.0
C739 C 0.50564 0.3005 0.82727 0.0
C740 C 0.48049 0.29685 0.80463 0.0
H741 H 0.53801 0.32456 0.87578 0.0
H742 H 0.51675 0.28799 0.81819 0.0
C743 C 0.46634 0.31306 0.81743 0.0
C744 C 0.40391 0.6336 0.66326 0.0
C745 C 0.42368 0.62641 0.64244 0.0
H746 H 0.39883 0.66194 0.70838 0.0
C747 C 0.45416 0.64111 0.65482 0.0
H748 H 0.38023 0.62235 0.6546 0.0
C749 C 0.46508 0.66435 0.68538 0.0
C750 C 0.44553 0.67275 0.70449 0.0
H751 H 0.46984 0.63593 0.63915 0.0
H752 H 0.48899 0.67651 0.69275 0.0
C753 C 0.41462 0.65626 0.69422 0.0
C754 C 0.32331 0.78177 0.66696 0.0
C755 C 0.32527 0.80576 0.64262 0.0
H756 H 0.29944 0.74851 0.71462 0.0
C757 C 0.30623 0.81737 0.65204 0.0
H758 H 0.33802 0.77266 0.66054 0.0
C759 C 0.28356 0.80314 0.68274 0.0
C760 C 0.28002 0.77743 0.70474 0.0
H761 H 0.30735 0.83587 0.63357 0.0
H762 H 0.26776 0.81112 0.68736 0.0
C763 C 0.30118 0.76797 0.698 0.0
C764 C 0.11484 0.4734 0.64852 0.0
C765 C 0.12766 0.50419 0.63728 0.0
H766 H 0.11855 0.44095 0.68784 0.0
C767 C 0.15156 0.52649 0.66144 0.0
H768 H 0.09644 0.45585 0.63007 0.0
C769 C 0.16379 0.51819 0.69472 0.0
C770 C 0.1529 0.48728 0.70392 0.0
H771 H 0.16166 0.5504 0.65341 0.0
H772 H 0.1831 0.53608 0.7114 0.0
C773 C 0.12755 0.46495 0.68147 0.0
C774 C 0.31492 0.76873 0.08951 0.0
C775 C 0.33468 0.79969 0.08048 0.0
H776 H 0.27867 0.7362 0.12796 0.0
C777 C 0.32974 0.8217 0.10014 0.0
H778 H 0.31783 0.75109 0.07483 0.0
C779 C 0.30676 0.81297 0.13033 0.0
C780 C 0.28881 0.78219 0.14171 0.0
H781 H 0.34447 0.84573 0.09371 0.0
H782 H 0.30436 0.83039 0.14668 0.0
C783 C 0.29246 0.76013 0.12006 0.0
C784 C 0.16629 0.52339 0.08583 0.0
C785 C 0.13602 0.51449 0.0772 0.0
H786 H 0.19701 0.51871 0.12672 0.0
C787 C 0.11299 0.48971 0.09966 0.0
H788 H 0.18465 0.54218 0.06906 0.0
C789 C 0.12026 0.47581 0.13236 0.0
C790 C 0.15058 0.48684 0.14323 0.0
H791 H 0.08945 0.48221 0.09367 0.0
H792 H 0.10229 0.45807 0.15106 0.0
C793 C 0.17346 0.50996 0.11885 0.0
C794 C 0.43114 0.66598 0.11595 0.0
C795 C 0.4525 0.66395 0.14136 0.0
H796 H 0.39895 0.64644 0.06592 0.0
C797 C 0.46081 0.64223 0.1315 0.0
H798 H 0.42461 0.68278 0.1228 0.0
C799 C 0.44564 0.62083 0.09922 0.0
C800 C 0.42235 0.62128 0.07606 0.0
H801 H 0.47723 0.64027 0.15081 0.0
H802 H 0.45083 0.60287 0.09427 0.0
C803 C 0.4165 0.64514 0.08329 0.0
C804 C 0.10903 0.6192 0.61068 0.0
C805 C 0.12873 0.62435 0.57657 0.0
H806 H 0.10368 0.63461 0.67166 0.0
C807 C 0.15579 0.65255 0.57387 0.0
H808 H 0.088 0.59778 0.61372 0.0
C809 C 0.16447 0.6737 0.60688 0.0
C810 C 0.14616 0.66697 0.64281 0.0
H811 H 0.17137 0.65732 0.5479 0.0
H812 H 0.18656 0.6941 0.60593 0.0
C813 C 0.11788 0.64026 0.64383 0.0
C814 C 0.29826 0.47707 0.66817 0.0
C815 C 0.26789 0.4686 0.66278 0.0
H816 H 0.34223 0.49796 0.64059 0.0
C817 C 0.25754 0.47112 0.62266 0.0
H818 H 0.30665 0.47549 0.69906 0.0
C819 C 0.27803 0.48479 0.58933 0.0
C820 C 0.30896 0.4955 0.59563 0.0
H821 H 0.23421 0.46503 0.61812 0.0
H822 H 0.27 0.48869 0.55955 0.0
C823 C 0.31856 0.48994 0.63465 0.0
C824 C 0.47068 0.83449 0.66383 0.0
C825 C 0.48021 0.81317 0.65915 0.0
H826 H 0.44894 0.8564 0.63508 0.0
C827 C 0.4794 0.801 0.6189 0.0
H828 H 0.47108 0.84408 0.6947 0.0
C829 C 0.46598 0.8074 0.58484 0.0
C830 C 0.45381 0.82655 0.59053 0.0
H831 H 0.48641 0.78429 0.61474 0.0
H832 H 0.46318 0.79567 0.555 0.0
C833 C 0.45803 0.84152 0.62962 0.0
C834 C 0.29337 0.51348 0.20644 0.0
C835 C 0.26713 0.48458 0.20894 0.0
H836 H 0.33232 0.54344 0.16972 0.0
C837 C 0.26367 0.4616 0.18054 0.0
H838 H 0.29693 0.53166 0.22791 0.0
C839 C 0.28432 0.4684 0.14753 0.0
C840 C 0.30861 0.49815 0.1427 0.0
H841 H 0.24381 0.43907 0.18172 0.0
H842 H 0.27988 0.45116 0.12384 0.0
C843 C 0.31375 0.52027 0.17326 0.0
C844 C 0.4608 0.80638 0.20576 0.0
C845 C 0.47936 0.79356 0.20079 0.0
H846 H 0.43976 0.82862 0.17512 0.0
C847 C 0.4956 0.79868 0.16284 0.0
H848 H 0.44814 0.80293 0.23474 0.0
C849 C 0.49031 0.81279 0.12869 0.0
C850 C 0.46952 0.82287 0.1324 0.0
H851 H 0.51011 0.78917 0.15796 0.0
H852 H 0.50075 0.81377 0.09841 0.0
C853 C 0.45612 0.82123 0.1718 0.0
C854 C 0.14212 0.64354 0.19589 0.0
C855 C 0.15538 0.67519 0.19012 0.0
H856 H 0.11896 0.59941 0.16642 0.0
C857 C 0.15089 0.68614 0.15148 0.0
H858 H 0.14511 0.63447 0.22538 0.0
C859 C 0.13654 0.66619 0.11774 0.0
C860 C 0.12554 0.63492 0.12251 0.0
H861 H 0.16083 0.71037 0.14597 0.0
H862 H 0.13579 0.67541 0.08709 0.0
C863 C 0.12701 0.62348 0.16234 0.0
C864 C 0.1334 0.14517 0.26405 0.0
C865 C 0.11499 0.15727 0.25316 0.0
H866 H 0.15945 0.12569 0.24148 0.0
C867 C 0.10881 0.15931 0.2104 0.0
H868 H 0.13822 0.14322 0.29699 0.0
C869 C 0.12169 0.15022 0.17878 0.0
C870 C 0.13993 0.13792 0.18967 0.0
H871 H 0.09464 0.16857 0.20146 0.0
H872 H 0.11715 0.1525 0.14584 0.0
C873 C 0.14536 0.13504 0.2325 0.0
C874 C 0.76116 0.95421 0.2396 0.0
C875 C 0.77921 0.94228 0.25313 0.0
H876 H 0.75833 -0.01249 0.20131 0.0
C877 C 0.80914 0.95566 0.23881 0.0
H878 H 0.73803 0.94432 0.25036 0.0
C879 C 0.82097 -0.01919 0.21182 0.0
C880 C 0.80283 -0.00747 0.19791 0.0
H881 H 0.82363 0.94708 0.24913 0.0
H882 H 0.84414 -0.00928 0.20125 0.0
C883 C 0.77277 0.97891 0.21175 0.0
C884 C -0.03168 0.83727 0.20361 0.0
C885 C 0.95826 0.80828 0.18616 0.0
H886 H 0.00021 0.87246 0.24473 0.0
C887 C -0.02717 0.79216 0.19732 0.0
H888 H 0.95757 0.85022 0.19512 0.0
C889 C -0.00325 0.80457 0.22617 0.0
C890 C 0.00704 0.83368 0.24329 0.0
H891 H -0.03455 0.76976 0.18417 0.0
H892 H 0.00732 0.79153 0.2349 0.0
C893 C -0.00716 0.85007 0.23155 0.0
C894 C 0.84769 0.83842 0.70936 0.0
C895 C 0.83119 0.80918 0.69153 0.0
H896 H 0.84771 0.87013 0.75456 0.0
C897 C 0.80222 0.78871 0.7069 0.0
H898 H 0.86999 0.85459 0.69761 0.0
C899 C 0.78992 0.79722 0.73986 0.0
C900 C 0.80596 0.82669 0.75699 0.0
H901 H 0.78913 0.76603 0.69351 0.0
H902 H 0.76756 0.78095 0.75132 0.0
C903 C 0.8349 0.84733 0.7415 0.0
C904 C 0.1196 -0.00096 0.70565 0.0
C905 C 0.14733 0.00815 0.6857 0.0
H906 H 0.0872 0.96938 0.75143 0.0
C907 C 0.16411 -0.00564 0.69716 0.0
H908 H 0.10621 0.00924 0.69701 0.0
C909 C 0.15361 0.97216 0.72868 0.0
C910 C 0.12575 0.96276 0.7483 0.0
H911 H 0.18557 0.00107 0.68216 0.0
H912 H 0.16715 0.96215 0.7375 0.0
C913 C 0.10865 0.97613 0.73636 0.0
C914 C 0.94537 0.14829 0.71331 0.0
C915 C 0.93403 0.11915 0.69572 0.0
H916 H -0.02512 0.1807 0.75927 0.0
C917 C 0.94452 0.10015 0.71073 0.0
H918 H 0.93755 0.16329 0.70212 0.0
C919 C -0.03337 0.11051 0.74243 0.0
C920 C -0.02234 0.13955 0.76033 0.0
H921 H 0.93617 0.07767 0.69727 0.0
H922 H -0.02526 0.09571 0.75341 0.0
C923 C -0.03336 0.1582 0.74588 0.0
C924 C 0.76856 0.48883 0.55243 0.0
C925 C 0.77176 0.48263 0.5948 0.0
H926 H 0.77723 0.48375 0.48732 0.0
C927 C 0.78491 0.46485 0.60417 0.0
H928 H 0.75859 0.50262 0.54463 0.0
C929 C 0.79471 0.45337 0.57155 0.0
C930 C 0.79246 0.46042 0.52926 0.0
H931 H 0.78748 0.45975 0.63673 0.0
H932 H 0.80479 0.4397 0.57942 0.0
C933 C 0.77934 0.47823 0.51985 0.0
C934 C 0.44533 0.30923 0.57449 0.0
C935 C 0.46396 0.29874 0.59051 0.0
H936 H 0.44104 0.33905 0.53087 0.0
C937 C 0.49359 0.3112 0.57528 0.0
H938 H 0.4224 0.29991 0.58588 0.0
C939 C 0.5046 0.33436 0.54487 0.0
C940 C 0.48572 0.34447 0.52844 0.0
H941 H 0.50837 0.30353 0.58758 0.0
H942 H 0.52758 0.34393 0.53361 0.0
C943 C 0.45596 0.33155 0.54316 0.0
C944 C 0.60918 0.11375 0.55032 0.0
C945 C 0.60116 0.13384 0.53209 0.0
H946 H 0.63742 0.1081 0.59499 0.0
C947 C 0.61627 0.16454 0.54478 0.0
H948 H 0.59785 0.08999 0.5409 0.0
C949 C 0.63952 0.1751 0.57475 0.0
C950 C 0.64732 0.15489 0.59323 0.0
H951 H 0.61062 0.18051 0.5308 0.0
H952 H 0.65106 0.19891 0.58391 0.0
C953 C 0.63178 0.12409 0.58112 0.0
C954 C 0.50056 0.1792 0.04244 0.0
C955 C 0.48205 0.14893 0.02897 0.0
H956 H 0.50442 0.2155 0.08174 0.0
C957 C 0.45269 0.13175 0.04522 0.0
H958 H 0.52322 0.19296 0.03002 0.0
C959 C 0.44221 0.1444 0.07524 0.0
C960 C 0.46061 0.1747 0.08857 0.0
H961 H 0.438 0.10837 0.03524 0.0
H962 H 0.41964 0.13052 0.08792 0.0
C963 C 0.48975 0.19215 0.07163 0.0
C964 C 0.82307 0.32839 0.04824 0.0
C965 C 0.8029 0.3366 0.03121 0.0
H966 H 0.82968 0.30052 0.09276 0.0
C967 C 0.773 0.3222 0.04595 0.0
H968 H 0.84623 0.33921 0.03728 0.0
C969 C 0.76329 0.29943 0.07677 0.0
C970 C 0.7836 0.29146 0.09405 0.0
H971 H 0.75701 0.32804 0.03294 0.0
H972 H 0.74007 0.28839 0.08752 0.0
C973 C 0.81362 0.30632 0.07987 0.0
C974 C 0.61654 0.50338 0.05032 0.0
C975 C 0.60318 0.47313 0.03605 0.0
H976 H 0.65082 0.53845 0.08904 0.0
C977 C 0.61483 0.45483 0.04989 0.0
H978 H 0.608 0.51796 0.03998 0.0
C979 C 0.63976 0.46676 0.07703 0.0
C980 C 0.65301 0.49699 0.09148 0.0
H981 H 0.60511 0.4315 0.03903 0.0
H982 H 0.64839 0.45222 0.08718 0.0
C983 C 0.64104 0.51511 0.0782 0.0
C984 C 0.45226 0.80506 0.9088 0.0
C985 C 0.47078 0.8348 0.92416 0.0
H986 H 0.4489 0.76939 0.8689 0.0
C987 C 0.50083 0.85178 0.91029 0.0
H988 H 0.42909 0.79138 0.91934 0.0
C989 C 0.51206 0.83935 0.88095 0.0
C990 C 0.49361 0.80949 0.86592 0.0
H991 H 0.51556 0.87474 0.92182 0.0
H992 H 0.53518 0.85301 0.8702 0.0
C993 C 0.46369 0.79238 0.8803 0.0
C994 C 0.15516 0.65529 0.87017 0.0
C995 C 0.13878 0.66834 0.85387 0.0
H996 H 0.15494 0.62188 0.91181 0.0
C997 C 0.10902 0.65748 0.86748 0.0
H998 H 0.17806 0.66314 0.85981 0.0
C999 C 0.09602 0.63435 0.89765 0.0
C1000 C 0.11229 0.62115 0.91374 0.0
H1001 H 0.09596 0.66721 0.85526 0.0
H1002 H 0.07323 0.62669 0.90826 0.0
C1003 C 0.14186 0.63157 0.8995 0.0
C1004 C 0.29043 0.49957 0.91295 0.0
C1005 C 0.30141 0.48136 0.92947 0.0
H1006 H 0.25849 0.50184 0.8714 0.0
C1007 C 0.28828 0.45085 0.91645 0.0
H1008 H 0.30006 0.52311 0.92283 0.0
C1009 C 0.26499 0.43892 0.8866 0.0
C1010 C 0.25388 0.45703 0.87023 0.0
H1011 H 0.29637 0.43637 0.92881 0.0
H1012 H 0.2556 0.41548 0.87638 0.0
C1013 C 0.26652 0.48736 0.88393 0.0
C1014 C 0.13783 0.50732 0.40667 0.0
C1015 C 0.10835 0.48883 0.422 0.0
H1016 H 0.17206 0.51087 0.36409 0.0
C1017 C 0.09023 0.45947 0.40522 0.0
H1018 H 0.15224 0.52997 0.41946 0.0
C1019 C 0.10125 0.44889 0.37305 0.0
C1020 C 0.13087 0.46715 0.35818 0.0
H1021 H 0.06742 0.44486 0.41664 0.0
H1022 H 0.08677 0.42627 0.3602 0.0
C1023 C 0.14919 0.49635 0.37537 0.0
C1024 C 0.42071 0.62961 0.41005 0.0
C1025 C 0.4367 0.61653 0.42752 0.0
H1026 H 0.42088 0.66075 0.36387 0.0
C1027 C 0.46476 0.62365 0.4105 0.0
H1028 H 0.39911 0.62451 0.42308 0.0
C1029 C 0.47669 0.64348 0.37624 0.0
C1030 C 0.46124 0.65734 0.3595 0.0
H1031 H 0.47742 0.61376 0.42365 0.0
H1032 H 0.49838 0.64859 0.36352 0.0
C1033 C 0.4332 0.65038 0.37661 0.0
C1034 C 0.31337 0.83605 0.40935 0.0
C1035 C 0.32441 0.81794 0.42588 0.0
H1036 H 0.28599 0.84053 0.36194 0.0
C1037 C 0.31509 0.78921 0.40801 0.0
H1038 H 0.32033 0.8583 0.4227 0.0
C1039 C 0.29457 0.77859 0.3742 0.0
C1040 C 0.28416 0.79711 0.35713 0.0
H1041 H 0.32328 0.77487 0.4206 0.0
H1042 H 0.28746 0.75634 0.36073 0.0
C1043 C 0.29381 0.82594 0.37473 0.0
C1044 C 0.28556 0.1418 0.16689 0.0
C1045 C 0.27813 0.15671 0.13574 0.0
H1046 H 0.32031 0.1419 0.20457 0.0
C1047 C 0.30092 0.1848 0.1199 0.0
H1048 H 0.26847 0.12022 0.18 0.0
C1049 C 0.33071 0.19728 0.13412 0.0
C1050 C 0.33823 0.18196 0.16455 0.0
H1051 H 0.29586 0.19691 0.09607 0.0
H1052 H 0.34794 0.21863 0.12063 0.0
C1053 C 0.31526 0.1543 0.18119 0.0
C1054 C 0.81834 0.16874 0.16998 0.0
C1055 C 0.79112 0.16489 0.1537 0.0
H1056 H 0.85031 0.15339 0.16949 0.0
C1057 C 0.77566 0.14265 0.12236 0.0
H1058 H 0.83087 0.18584 0.19395 0.0
C1059 C 0.78688 0.12426 0.10812 0.0
C1060 C 0.81378 0.12767 0.12498 0.0
H1061 H 0.75473 0.13927 0.10893 0.0
H1062 H 0.77415 0.10698 0.08446 0.0
C1063 C 0.82956 0.15028 0.15579 0.0
C1064 C 0.78812 0.6438 0.17379 0.0
C1065 C 0.7898 0.61936 0.15594 0.0
H1066 H 0.80441 0.69163 0.17316 0.0
C1067 C 0.81036 0.62518 0.12281 0.0
H1068 H 0.77242 0.64008 0.19919 0.0
C1069 C 0.8287 0.65487 0.10766 0.0
C1070 C 0.82674 0.67923 0.12531 0.0
H1071 H 0.81203 0.60678 0.10823 0.0
H1072 H 0.84437 0.65872 0.08215 0.0
C1073 C 0.80634 0.67335 0.15863 0.0
C1074 C 0.10395 0.31623 0.27328 0.0
C1075 C 0.13116 0.33999 0.28977 0.0
H1076 H 0.07123 0.26856 0.27468 0.0
C1077 C 0.14628 0.33341 0.32151 0.0
H1078 H 0.09168 0.32062 0.249 0.0
C1079 C 0.13447 0.3037 0.33644 0.0
C1080 C 0.1073 0.27991 0.31994 0.0
H1081 H 0.16721 0.35125 0.33506 0.0
H1082 H 0.1468 0.29937 0.36071 0.0
C1083 C 0.09214 0.28645 0.28821 0.0
C1084 C 0.62234 0.76901 0.28322 0.0
C1085 C 0.59962 0.77313 0.30137 0.0
H1086 H 0.66943 0.78319 0.28214 0.0
C1087 C 0.60714 0.79385 0.3351 0.0
H1088 H 0.61718 0.75305 0.25739 0.0
C1089 C 0.63685 0.8108 0.34951 0.0
C1090 C 0.65982 0.80755 0.33044 0.0
H1091 H 0.59011 0.79733 0.3501 0.0
H1092 H 0.64194 0.82711 0.37485 0.0
C1093 C 0.65221 0.78613 0.29757 0.0
C1094 C 0.17612 0.84329 0.27229 0.0
C1095 C 0.17115 0.81561 0.2894 0.0
H1096 H 0.1632 0.87738 0.27231 0.0
C1097 C 0.14977 0.80177 0.32194 0.0
H1098 H 0.19261 0.8546 0.2474 0.0
C1099 C 0.13324 0.81491 0.33646 0.0
C1100 C 0.13758 0.84215 0.31869 0.0
H1101 H 0.14559 0.78058 0.33611 0.0
H1102 H 0.11655 0.80328 0.36102 0.0
C1103 C 0.15942 0.85642 0.28675 0.0
C1104 C 0.645 0.78539 0.82663 0.0
C1105 C 0.66907 0.81258 0.8105 0.0
H1106 H 0.59724 0.75432 0.82648 0.0
C1107 C 0.66316 0.82844 0.77901 0.0
H1108 H 0.64887 0.77256 0.85071 0.0
C1109 C 0.6337 0.81791 0.76492 0.0
C1110 C 0.60947 0.79132 0.78207 0.0
H1111 H 0.68125 0.84933 0.76564 0.0
H1112 H 0.62987 0.83113 0.74142 0.0
C1113 C 0.61546 0.77487 0.81258 0.0
C1114 C 0.12247 0.79754 0.77334 0.0
C1115 C 0.14948 0.80113 0.79006 0.0
H1116 H 0.08972 0.81179 0.77514 0.0
C1117 C 0.16427 0.82248 0.82265 0.0
H1118 H 0.11041 0.78109 0.74845 0.0
C1119 C 0.1523 0.83995 0.83814 0.0
C1120 C 0.12527 0.83635 0.82143 0.0
H1121 H 0.18501 0.82561 0.8364 0.0
H1122 H 0.16435 0.85642 0.86302 0.0
C1123 C 0.11046 0.81494 0.78891 0.0
C1124 C 0.13526 0.30818 0.77666 0.0
C1125 C 0.12972 0.33035 0.79415 0.0
H1126 H 0.12482 0.26178 0.77761 0.0
C1127 C 0.10834 0.32188 0.82684 0.0
H1128 H 0.15173 0.314 0.75163 0.0
C1129 C 0.09306 0.29194 0.84201 0.0
C1130 C 0.09886 0.26988 0.8248 0.0
H1131 H 0.10372 0.33848 0.84119 0.0
H1132 H 0.07671 0.2861 0.86721 0.0
C1133 C 0.12 0.27829 0.79181 0.0
C1134 C 0.83714 0.67186 0.65391 0.0
C1135 C 0.82261 0.68048 0.62378 0.0
H1136 H 0.83468 0.63603 0.69266 0.0
C1137 C 0.79377 0.65863 0.60925 0.0
H1138 H 0.85935 0.68823 0.66584 0.0
C1139 C 0.77962 0.6289 0.62482 0.0
C1140 C 0.79399 0.62029 0.6552 0.0
H1141 H 0.78192 0.66457 0.5862 0.0
H1142 H 0.75733 0.61265 0.61298 0.0
C1143 C 0.82298 0.64202 0.66944 0.0
C1144 C 0.28264 0.15849 0.65466 0.0
C1145 C 0.2756 0.13631 0.6231 0.0
H1146 H 0.31688 0.1929 0.69415 0.0
C1147 C 0.29867 0.13185 0.60722 0.0
H1148 H 0.26531 0.16236 0.66773 0.0
C1149 C 0.32817 0.14923 0.62256 0.0
C1150 C 0.33521 0.17142 0.65411 0.0
H1151 H 0.29394 0.11482 0.58309 0.0
H1152 H 0.34548 0.14535 0.6095 0.0
C1153 C 0.31214 0.17587 0.67001 0.0
C1154 C 0.78776 0.11062 0.65628 0.0
C1155 C 0.81091 0.1267 0.62659 0.0
H1156 H 0.75225 0.10948 0.69337 0.0
C1157 C 0.81588 0.15485 0.6115 0.0
H1158 H 0.78344 0.08891 0.66866 0.0
C1159 C 0.79806 0.16667 0.62581 0.0
C1160 C 0.77494 0.15061 0.65554 0.0
H1161 H 0.83361 0.16783 0.58877 0.0
H1162 H 0.80238 0.18839 0.61345 0.0
C1163 C 0.76997 0.12246 0.67062 0.0
C1164 C 0.95911 0.46262 0.51193 0.0
C1165 C -0.01754 0.49011 0.49544 0.0
H1166 H 0.91201 0.42944 0.51093 0.0
C1167 C -0.02452 0.50566 0.46469 0.0
H1168 H 0.96376 0.45004 0.53551 0.0
C1169 C 0.94579 0.49377 0.4504 0.0
C1170 C 0.9225 0.46609 0.46655 0.0
H1171 H -0.00699 0.52685 0.45124 0.0
H1172 H 0.94111 0.50621 0.42662 0.0
C1173 C 0.92946 0.45074 0.49764 0.0
C1174 C 0.47464 0.50626 0.51742 0.0
C1175 C 0.44624 0.49957 0.50196 0.0
H1176 H 0.5103 0.49601 0.51484 0.0
C1177 C 0.43181 0.47654 0.47127 0.0
H1178 H 0.48639 0.52398 0.54093 0.0
C1179 C 0.44558 0.46067 0.45611 0.0
C1180 C 0.47405 0.46748 0.47136 0.0
H1181 H 0.40996 0.47092 0.45857 0.0
H1182 H 0.43386 0.44305 0.43247 0.0
C1183 C 0.4884 0.49035 0.50229 0.0
C1184 C 0.47727 -0.01065 0.43688 0.0
C1185 C 0.47303 0.01253 0.45369 0.0
H1186 H 0.46511 0.94251 0.43931 0.0
C1187 C 0.45149 0.00524 0.48591 0.0
H1188 H 0.49374 -0.00579 0.41216 0.0
C1189 C 0.43508 0.97549 0.50168 0.0
C1190 C 0.44 0.95254 0.48562 0.0
H1191 H 0.44781 0.02264 0.49965 0.0
H1192 H 0.41887 0.97058 0.5268 0.0
C1193 C 0.46099 0.95973 0.4527 0.0
C1194 C 0.49909 0.01192 0.00187 0.0
C1195 C 0.48351 0.01807 0.97034 0.0
H1196 H 0.50081 0.97809 0.0402 0.0
C1197 C 0.45646 -0.00605 0.95402 0.0
H1198 H 0.51989 0.03007 0.01529 0.0
C1199 C 0.44541 0.96423 0.96852 0.0
C1200 C 0.4612 0.958 -0.00038 0.0
H1201 H 0.44381 -0.00202 0.92994 0.0
H1202 H 0.42473 0.94607 0.95485 0.0
C1203 C 0.48805 -0.01782 0.01635 0.0
C1204 C 0.9472 0.45836 0.9418 0.0
C1205 C 0.92471 0.46353 0.95827 0.0
H1206 H -0.00639 0.47042 0.94337 0.0
C1207 C 0.93247 0.48562 -0.00983 0.0
H1208 H 0.9419 0.44132 0.91745 0.0
C1209 C 0.96214 0.50219 0.00526 0.0
C1210 C -0.01541 0.49693 -0.01117 0.0
H1211 H 0.91559 0.48995 0.00373 0.0
H1212 H -0.03249 0.51924 0.02961 0.0
C1213 C -0.02321 0.47484 0.95695 0.0
C1214 C 0.47317 0.48983 0.94328 0.0
C1215 C 0.47053 0.46325 0.96102 0.0
H1216 H 0.45738 0.52157 0.94301 0.0
C1217 C 0.44883 0.44784 -0.00728 0.0
H1218 H 0.48976 0.5023 0.91894 0.0
C1219 C 0.43039 0.45902 0.00676 0.0
C1220 C 0.4333 0.48581 -0.01065 0.0
H1221 H 0.44636 0.42738 0.00717 0.0
H1222 H 0.41392 0.4467 0.0313 0.0
C1223 C 0.45474 0.50098 0.95728 0.0
loop_
_geom_bond_atom_site_label_1
_geom_bond_atom_site_label_2
_geom_bond_distance
_geom_bond_site_symmetry_2
_ccdc_geom_bond_type
C0 O1 1.306 . S
C0 O3 1.160 . S
O1 C0 1.306 . S
O1 Cd2 2.228 . S
Cd2 O1 2.228 . S
Cd2 O6 2.273 . S
Cd2 O10 2.277 . S
O3 C0 1.160 . S
O3 Cd4 2.203 . S
Cd4 O3 2.203 . S
Cd4 O6 2.411 . S
Cd4 O7 2.333 . S
Cd4 O8 2.352 . S
Cd4 O12 2.277 . S
Cd4 O13 2.356 . S
C5 O10 1.209 . S
C5 O12 1.226 . S
O6 Cd2 2.273 . S
O6 Cd4 2.411 . S
O6 C9 1.320 . S
O7 Cd4 2.333 . S
O7 C9 1.214 . S
O8 Cd4 2.352 . S
O8 C11 1.258 . S
C9 O6 1.320 . S
C9 O7 1.214 . S
O10 Cd2 2.277 . S
O10 C5 1.209 . S
C11 O8 1.258 . S
C11 O13 1.282 . S
O12 Cd4 2.277 . S
O12 C5 1.226 . S
O13 Cd4 2.356 . S
O13 C11 1.282 . S
C14 O15 1.306 . S
C14 O17 1.160 . S
O15 C14 1.306 . S
O15 Cd16 2.228 . S
Cd16 O15 2.228 . S
Cd16 O20 2.273 . S
Cd16 O24 2.277 . S
O17 C14 1.160 . S
O17 Cd18 2.203 . S
Cd18 O17 2.203 . S
Cd18 O20 2.411 . S
Cd18 O21 2.333 . S
Cd18 O22 2.352 . S
Cd18 O26 2.277 . S
Cd18 O27 2.356 . S
C19 O24 1.209 . S
C19 O26 1.226 . S
O20 Cd16 2.273 . S
O20 Cd18 2.411 . S
O20 C23 1.320 . S
O21 Cd18 2.333 . S
O21 C23 1.214 . S
O22 Cd18 2.352 . S
O22 C25 1.258 . S
C23 O20 1.320 . S
C23 O21 1.214 . S
O24 Cd16 2.277 . S
O24 C19 1.209 . S
C25 O22 1.258 . S
C25 O27 1.282 . S
O26 Cd18 2.277 . S
O26 C19 1.226 . S
O27 Cd18 2.356 . S
O27 C25 1.282 . S
C28 O29 1.306 . S
C28 O31 1.160 . S
O29 C28 1.306 . S
O29 Cd30 2.228 . S
Cd30 O29 2.228 . S
Cd30 O34 2.273 . S
Cd30 O38 2.277 . S
O31 C28 1.160 . S
O31 Cd32 2.203 . S
Cd32 O31 2.203 . S
Cd32 O34 2.411 . S
Cd32 O35 2.333 . S
Cd32 O36 2.352 . S
Cd32 O40 2.277 . S
Cd32 O41 2.356 . S
C33 O38 1.209 . S
C33 O40 1.226 . S
O34 Cd30 2.273 . S
O34 Cd32 2.411 . S
O34 C37 1.320 . S
O35 Cd32 2.333 . S
O35 C37 1.214 . S
O36 Cd32 2.352 . S
O36 C39 1.258 . S
C37 O34 1.320 . S
C37 O35 1.214 . S
O38 Cd30 2.277 . S
O38 C33 1.209 . S
C39 O36 1.258 . S
C39 O41 1.282 . S
O40 Cd32 2.277 . S
O40 C33 1.226 . S
O41 Cd32 2.356 . S
O41 C39 1.282 . S
C42 O43 1.306 . S
C42 O45 1.160 . S
O43 C42 1.306 . S
O43 Cd44 2.228 . S
Cd44 O43 2.228 . S
Cd44 O48 2.273 . S
Cd44 O52 2.277 . S
O45 C42 1.160 . S
O45 Cd46 2.203 . S
Cd46 O45 2.203 . S
Cd46 O48 2.411 . S
Cd46 O49 2.333 . S
Cd46 O50 2.352 . S
Cd46 O54 2.277 . S
Cd46 O55 2.356 . S
C47 O52 1.209 . S
C47 O54 1.226 . S
O48 Cd44 2.273 . S
O48 Cd46 2.411 . S
O48 C51 1.320 . S
O49 Cd46 2.333 . S
O49 C51 1.214 . S
O50 Cd46 2.352 . S
O50 C53 1.258 . S
C51 O48 1.320 . S
C51 O49 1.214 . S
O52 Cd44 2.277 . S
O52 C47 1.209 . S
C53 O50 1.258 . S
C53 O55 1.282 . S
O54 Cd46 2.277 . S
O54 C47 1.226 . S
O55 Cd46 2.356 . S
O55 C53 1.282 . S
C56 O57 1.306 . S
C56 O59 1.160 . S
O57 C56 1.306 . S
O57 Cd58 2.228 . S
Cd58 O57 2.228 . S
Cd58 O62 2.273 . S
Cd58 O66 2.277 . S
O59 C56 1.160 . S
O59 Cd60 2.203 . S
Cd60 O59 2.203 . S
Cd60 O62 2.411 . S
Cd60 O63 2.333 . S
Cd60 O64 2.352 . S
Cd60 O68 2.277 . S
Cd60 O69 2.356 . S
C61 O66 1.209 . S
C61 O68 1.226 . S
O62 Cd58 2.273 . S
O62 Cd60 2.411 . S
O62 C65 1.320 . S
O63 Cd60 2.333 . S
O63 C65 1.214 . S
O64 Cd60 2.352 . S
O64 C67 1.258 . S
C65 O62 1.320 . S
C65 O63 1.214 . S
O66 Cd58 2.277 . S
O66 C61 1.209 . S
C67 O64 1.258 . S
C67 O69 1.282 . S
O68 Cd60 2.277 . S
O68 C61 1.226 . S
O69 Cd60 2.356 . S
O69 C67 1.282 . S
C70 O71 1.306 . S
C70 O73 1.160 . S
O71 C70 1.306 . S
O71 Cd72 2.228 . S
Cd72 O71 2.228 . S
Cd72 O76 2.273 . S
Cd72 O80 2.277 . S
O73 C70 1.160 . S
O73 Cd74 2.203 . S
Cd74 O73 2.203 . S
Cd74 O76 2.411 . S
Cd74 O77 2.333 . S
Cd74 O78 2.352 . S
Cd74 O82 2.277 . S
Cd74 O83 2.356 . S
C75 O80 1.209 . S
C75 O82 1.226 . S
O76 Cd72 2.273 . S
O76 Cd74 2.411 . S
O76 C79 1.320 . S
O77 Cd74 2.333 . S
O77 C79 1.214 . S
O78 Cd74 2.352 . S
O78 C81 1.258 . S
C79 O76 1.320 . S
C79 O77 1.214 . S
O80 Cd72 2.277 . S
O80 C75 1.209 . S
C81 O78 1.258 . S
C81 O83 1.282 . S
O82 Cd74 2.277 . S
O82 C75 1.226 . S
O83 Cd74 2.356 . S
O83 C81 1.282 . S
C84 O85 1.306 . S
C84 O87 1.160 . S
O85 C84 1.306 . S
O85 Cd86 2.228 . S
Cd86 O85 2.228 . S
Cd86 O90 2.273 . S
Cd86 O94 2.277 . S
O87 C84 1.160 . S
O87 Cd88 2.203 . S
Cd88 O87 2.203 . S
Cd88 O90 2.411 . S
Cd88 O91 2.333 . S
Cd88 O92 2.352 . S
Cd88 O96 2.277 . S
Cd88 O97 2.356 . S
C89 O94 1.209 . S
C89 O96 1.226 . S
O90 Cd86 2.273 . S
O90 Cd88 2.411 . S
O90 C93 1.320 . S
O91 Cd88 2.333 . S
O91 C93 1.214 . S
O92 Cd88 2.352 . S
O92 C95 1.258 . S
C93 O90 1.320 . S
C93 O91 1.214 . S
O94 Cd86 2.277 . S
O94 C89 1.209 . S
C95 O92 1.258 . S
C95 O97 1.282 . S
O96 Cd88 2.277 . S
O96 C89 1.226 . S
O97 Cd88 2.356 . S
O97 C95 1.282 . S
C98 O99 1.306 . S
C98 O101 1.160 . S
O99 C98 1.306 . S
O99 Cd100 2.228 . S
Cd100 O99 2.228 . S
Cd100 O104 2.273 . S
Cd100 O108 2.277 . S
O101 C98 1.160 . S
O101 Cd102 2.203 . S
Cd102 O101 2.203 . S
Cd102 O104 2.411 . S
Cd102 O105 2.333 . S
Cd102 O106 2.352 . S
Cd102 O110 2.277 . S
Cd102 O111 2.356 . S
C103 O108 1.209 . S
C103 O110 1.226 . S
O104 Cd100 2.273 . S
O104 Cd102 2.411 . S
O104 C107 1.320 . S
O105 Cd102 2.333 . S
O105 C107 1.214 . S
O106 Cd102 2.352 . S
O106 C109 1.258 . S
C107 O104 1.320 . S
C107 O105 1.214 . S
O108 Cd100 2.277 . S
O108 C103 1.209 . S
C109 O106 1.258 . S
C109 O111 1.282 . S
O110 Cd102 2.277 . S
O110 C103 1.226 . S
O111 Cd102 2.356 . S
O111 C109 1.282 . S
C112 O113 1.306 . S
C112 O115 1.160 . S
O113 C112 1.306 . S
O113 Cd114 2.228 . S
Cd114 O113 2.228 . S
Cd114 O118 2.273 . S
Cd114 O122 2.277 . S
O115 C112 1.160 . S
O115 Cd116 2.203 . S
Cd116 O115 2.203 . S
Cd116 O118 2.411 . S
Cd116 O119 2.333 . S
Cd116 O120 2.352 . S
Cd116 O124 2.277 . S
Cd116 O125 2.356 . S
C117 O122 1.209 . S
C117 O124 1.226 . S
O118 Cd114 2.273 . S
O118 Cd116 2.411 . S
O118 C121 1.320 . S
O119 Cd116 2.333 . S
O119 C121 1.214 . S
O120 Cd116 2.352 . S
O120 C123 1.258 . S
C121 O118 1.320 . S
C121 O119 1.214 . S
O122 Cd114 2.277 . S
O122 C117 1.209 . S
C123 O120 1.258 . S
C123 O125 1.282 . S
O124 Cd116 2.277 . S
O124 C117 1.226 . S
O125 Cd116 2.356 . S
O125 C123 1.282 . S
C126 O127 1.306 . S
C126 O129 1.160 . S
O127 C126 1.306 . S
O127 Cd128 2.228 . S
Cd128 O127 2.228 . S
Cd128 O132 2.273 . S
Cd128 O136 2.277 . S
O129 C126 1.160 . S
O129 Cd130 2.203 . S
Cd130 O129 2.203 . S
Cd130 O132 2.411 . S
Cd130 O133 2.333 . S
Cd130 O134 2.352 . S
Cd130 O138 2.277 . S
Cd130 O139 2.356 . S
C131 O136 1.209 . S
C131 O138 1.226 . S
O132 Cd128 2.273 . S
O132 Cd130 2.411 . S
O132 C135 1.320 . S
O133 Cd130 2.333 . S
O133 C135 1.214 . S
O134 Cd130 2.352 . S
O134 C137 1.258 . S
C135 O132 1.320 . S
C135 O133 1.214 . S
O136 Cd128 2.277 . S
O136 C131 1.209 . S
C137 O134 1.258 . S
C137 O139 1.282 . S
O138 Cd130 2.277 . S
O138 C131 1.226 . S
O139 Cd130 2.356 . S
O139 C137 1.282 . S
C140 O141 1.306 . S
C140 O143 1.160 . S
O141 C140 1.306 . S
O141 Cd142 2.228 . S
Cd142 O141 2.228 . S
Cd142 O146 2.273 . S
Cd142 O150 2.277 . S
O143 C140 1.160 . S
O143 Cd144 2.203 . S
Cd144 O143 2.203 . S
Cd144 O146 2.411 . S
Cd144 O147 2.333 . S
Cd144 O148 2.352 . S
Cd144 O152 2.277 . S
Cd144 O153 2.356 . S
C145 O150 1.209 . S
C145 O152 1.226 . S
O146 Cd142 2.273 . S
O146 Cd144 2.411 . S
O146 C149 1.320 . S
O147 Cd144 2.333 . S
O147 C149 1.214 . S
O148 Cd144 2.352 . S
O148 C151 1.258 . S
C149 O146 1.320 . S
C149 O147 1.214 . S
O150 Cd142 2.277 . S
O150 C145 1.209 . S
C151 O148 1.258 . S
C151 O153 1.282 . S
O152 Cd144 2.277 . S
O152 C145 1.226 . S
O153 Cd144 2.356 . S
O153 C151 1.282 . S
C154 O155 1.306 . S
C154 O157 1.160 . S
O155 C154 1.306 . S
O155 Cd156 2.228 . S
Cd156 O155 2.228 . S
Cd156 O160 2.273 . S
Cd156 O164 2.277 . S
O157 C154 1.160 . S
O157 Cd158 2.203 . S
Cd158 O157 2.203 . S
Cd158 O160 2.411 . S
Cd158 O161 2.333 . S
Cd158 O162 2.352 . S
Cd158 O166 2.277 . S
Cd158 O167 2.356 . S
C159 O164 1.209 . S
C159 O166 1.226 . S
O160 Cd156 2.273 . S
O160 Cd158 2.411 . S
O160 C163 1.320 . S
O161 Cd158 2.333 . S
O161 C163 1.214 . S
O162 Cd158 2.352 . S
O162 C165 1.258 . S
C163 O160 1.320 . S
C163 O161 1.214 . S
O164 Cd156 2.277 . S
O164 C159 1.209 . S
C165 O162 1.258 . S
C165 O167 1.282 . S
O166 Cd158 2.277 . S
O166 C159 1.226 . S
O167 Cd158 2.356 . S
O167 C165 1.282 . S
C168 O169 1.306 . S
C168 O171 1.160 . S
O169 C168 1.306 . S
O169 Cd170 2.228 . S
Cd170 O169 2.228 . S
Cd170 O174 2.273 . S
Cd170 O178 2.277 . S
O171 C168 1.160 . S
O171 Cd172 2.203 . S
Cd172 O171 2.203 . S
Cd172 O174 2.411 . S
Cd172 O175 2.333 . S
Cd172 O176 2.352 . S
Cd172 O180 2.277 . S
Cd172 O181 2.356 . S
C173 O178 1.209 . S
C173 O180 1.226 . S
O174 Cd170 2.273 . S
O174 Cd172 2.411 . S
O174 C177 1.320 . S
O175 Cd172 2.333 . S
O175 C177 1.214 . S
O176 Cd172 2.352 . S
O176 C179 1.258 . S
C177 O174 1.320 . S
C177 O175 1.214 . S
O178 Cd170 2.277 . S
O178 C173 1.209 . S
C179 O176 1.258 . S
C179 O181 1.282 . S
O180 Cd172 2.277 . S
O180 C173 1.226 . S
O181 Cd172 2.356 . S
O181 C179 1.282 . S
C182 O183 1.306 . S
C182 O185 1.160 . S
O183 C182 1.306 . S
O183 Cd184 2.228 . S
Cd184 O183 2.228 . S
Cd184 O188 2.273 . S
Cd184 O192 2.277 . S
O185 C182 1.160 . S
O185 Cd186 2.203 . S
Cd186 O185 2.203 . S
Cd186 O188 2.411 . S
Cd186 O189 2.333 . S
Cd186 O190 2.352 . S
Cd186 O194 2.277 . S
Cd186 O195 2.356 . S
C187 O192 1.209 . S
C187 O194 1.226 . S
O188 Cd184 2.273 . S
O188 Cd186 2.411 . S
O188 C191 1.320 . S
O189 Cd186 2.333 . S
O189 C191 1.214 . S
O190 Cd186 2.352 . S
O190 C193 1.258 . S
C191 O188 1.320 . S
C191 O189 1.214 . S
O192 Cd184 2.277 . S
O192 C187 1.209 . S
C193 O190 1.258 . S
C193 O195 1.282 . S
O194 Cd186 2.277 . S
O194 C187 1.226 . S
O195 Cd186 2.356 . S
O195 C193 1.282 . S
C196 O197 1.306 . S
C196 O199 1.160 . S
O197 C196 1.306 . S
O197 Cd198 2.228 . S
Cd198 O197 2.228 . S
Cd198 O202 2.273 . S
Cd198 O206 2.277 . S
O199 C196 1.160 . S
O199 Cd200 2.203 . S
Cd200 O199 2.203 . S
Cd200 O202 2.411 . S
Cd200 O203 2.333 . S
Cd200 O204 2.352 . S
Cd200 O208 2.277 . S
Cd200 O209 2.356 . S
C201 O206 1.209 . S
C201 O208 1.226 . S
O202 Cd198 2.273 . S
O202 Cd200 2.411 . S
O202 C205 1.320 . S
O203 Cd200 2.333 . S
O203 C205 1.214 . S
O204 Cd200 2.352 . S
O204 C207 1.258 . S
C205 O202 1.320 . S
C205 O203 1.214 . S
O206 Cd198 2.277 . S
O206 C201 1.209 . S
C207 O204 1.258 . S
C207 O209 1.282 . S
O208 Cd200 2.277 . S
O208 C201 1.226 . S
O209 Cd200 2.356 . S
O209 C207 1.282 . S
C210 O211 1.306 . S
C210 O213 1.160 . S
O211 C210 1.306 . S
O211 Cd212 2.228 . S
Cd212 O211 2.228 . S
Cd212 O216 2.273 . S
Cd212 O220 2.277 . S
O213 C210 1.160 . S
O213 Cd214 2.203 . S
Cd214 O213 2.203 . S
Cd214 O216 2.411 . S
Cd214 O217 2.333 . S
Cd214 O218 2.352 . S
Cd214 O222 2.277 . S
Cd214 O223 2.356 . S
C215 O220 1.209 . S
C215 O222 1.226 . S
O216 Cd212 2.273 . S
O216 Cd214 2.411 . S
O216 C219 1.320 . S
O217 Cd214 2.333 . S
O217 C219 1.214 . S
O218 Cd214 2.352 . S
O218 C221 1.258 . S
C219 O216 1.320 . S
C219 O217 1.214 . S
O220 Cd212 2.277 . S
O220 C215 1.209 . S
C221 O218 1.258 . S
C221 O223 1.282 . S
O222 Cd214 2.277 . S
O222 C215 1.226 . S
O223 Cd214 2.356 . S
O223 C221 1.282 . S
C224 O225 1.306 . S
C224 O227 1.160 . S
O225 C224 1.306 . S
O225 Cd226 2.228 . S
Cd226 O225 2.228 . S
Cd226 O230 2.273 . S
Cd226 O234 2.277 . S
O227 C224 1.160 . S
O227 Cd228 2.203 . S
Cd228 O227 2.203 . S
Cd228 O230 2.411 . S
Cd228 O231 2.333 . S
Cd228 O232 2.352 . S
Cd228 O236 2.277 . S
Cd228 O237 2.356 . S
C229 O234 1.209 . S
C229 O236 1.226 . S
O230 Cd226 2.273 . S
O230 Cd228 2.411 . S
O230 C233 1.320 . S
O231 Cd228 2.333 . S
O231 C233 1.214 . S
O232 Cd228 2.352 . S
O232 C235 1.258 . S
C233 O230 1.320 . S
C233 O231 1.214 . S
O234 Cd226 2.277 . S
O234 C229 1.209 . S
C235 O232 1.258 . S
C235 O237 1.282 . S
O236 Cd228 2.277 . S
O236 C229 1.226 . S
O237 Cd228 2.356 . S
O237 C235 1.282 . S
C238 O239 1.306 . S
C238 O241 1.160 . S
O239 C238 1.306 . S
O239 Cd240 2.228 . S
Cd240 O239 2.228 . S
Cd240 O244 2.273 . S
Cd240 O248 2.277 . S
O241 C238 1.160 . S
O241 Cd242 2.203 . S
Cd242 O241 2.203 . S
Cd242 O244 2.411 . S
Cd242 O245 2.333 . S
Cd242 O246 2.352 . S
Cd242 O250 2.277 . S
Cd242 O251 2.356 . S
C243 O248 1.209 . S
C243 O250 1.226 . S
O244 Cd240 2.273 . S
O244 Cd242 2.411 . S
O244 C247 1.320 . S
O245 Cd242 2.333 . S
O245 C247 1.214 . S
O246 Cd242 2.352 . S
O246 C249 1.258 . S
C247 O244 1.320 . S
C247 O245 1.214 . S
O248 Cd240 2.277 . S
O248 C243 1.209 . S
C249 O246 1.258 . S
C249 O251 1.282 . S
O250 Cd242 2.277 . S
O250 C243 1.226 . S
O251 Cd242 2.356 . S
O251 C249 1.282 . S
C252 O253 1.306 . S
C252 O255 1.160 . S
O253 C252 1.306 . S
O253 Cd254 2.228 . S
Cd254 O253 2.228 . S
Cd254 O258 2.273 . S
Cd254 O262 2.277 . S
O255 C252 1.160 . S
O255 Cd256 2.203 . S
Cd256 O255 2.203 . S
Cd256 O258 2.411 . S
Cd256 O259 2.333 . S
Cd256 O260 2.352 . S
Cd256 O264 2.277 . S
Cd256 O265 2.356 . S
C257 O262 1.209 . S
C257 O264 1.226 . S
O258 Cd254 2.273 . S
O258 Cd256 2.411 . S
O258 C261 1.320 . S
O259 Cd256 2.333 . S
O259 C261 1.214 . S
O260 Cd256 2.352 . S
O260 C263 1.258 . S
C261 O258 1.320 . S
C261 O259 1.214 . S
O262 Cd254 2.277 . S
O262 C257 1.209 . S
C263 O260 1.258 . S
C263 O265 1.282 . S
O264 Cd256 2.277 . S
O264 C257 1.226 . S
O265 Cd256 2.356 . S
O265 C263 1.282 . S
C266 O267 1.306 . S
C266 O269 1.160 . S
O267 C266 1.306 . S
O267 Cd268 2.228 . S
Cd268 O267 2.228 . S
Cd268 O272 2.273 . S
Cd268 O276 2.277 . S
O269 C266 1.160 . S
O269 Cd270 2.203 . S
Cd270 O269 2.203 . S
Cd270 O272 2.411 . S
Cd270 O273 2.333 . S
Cd270 O274 2.352 . S
Cd270 O278 2.277 . S
Cd270 O279 2.356 . S
C271 O276 1.209 . S
C271 O278 1.226 . S
O272 Cd268 2.273 . S
O272 Cd270 2.411 . S
O272 C275 1.320 . S
O273 Cd270 2.333 . S
O273 C275 1.214 . S
O274 Cd270 2.352 . S
O274 C277 1.258 . S
C275 O272 1.320 . S
C275 O273 1.214 . S
O276 Cd268 2.277 . S
O276 C271 1.209 . S
C277 O274 1.258 . S
C277 O279 1.282 . S
O278 Cd270 2.277 . S
O278 C271 1.226 . S
O279 Cd270 2.356 . S
O279 C277 1.282 . S
C280 O281 1.306 . S
C280 O283 1.160 . S
O281 C280 1.306 . S
O281 Cd282 2.228 . S
Cd282 O281 2.228 . S
Cd282 O286 2.273 . S
Cd282 O290 2.277 . S
O283 C280 1.160 . S
O283 Cd284 2.203 . S
Cd284 O283 2.203 . S
Cd284 O286 2.411 . S
Cd284 O287 2.333 . S
Cd284 O288 2.352 . S
Cd284 O292 2.277 . S
Cd284 O293 2.356 . S
C285 O290 1.209 . S
C285 O292 1.226 . S
O286 Cd282 2.273 . S
O286 Cd284 2.411 . S
O286 C289 1.320 . S
O287 Cd284 2.333 . S
O287 C289 1.214 . S
O288 Cd284 2.352 . S
O288 C291 1.258 . S
C289 O286 1.320 . S
C289 O287 1.214 . S
O290 Cd282 2.277 . S
O290 C285 1.209 . S
C291 O288 1.258 . S
C291 O293 1.282 . S
O292 Cd284 2.277 . S
O292 C285 1.226 . S
O293 Cd284 2.356 . S
O293 C291 1.282 . S
C294 O295 1.306 . S
C294 O297 1.160 . S
O295 C294 1.306 . S
O295 Cd296 2.228 . S
Cd296 O295 2.228 . S
Cd296 O300 2.273 . S
Cd296 O304 2.277 . S
O297 C294 1.160 . S
O297 Cd298 2.203 . S
Cd298 O297 2.203 . S
Cd298 O300 2.411 . S
Cd298 O301 2.333 . S
Cd298 O302 2.352 . S
Cd298 O306 2.277 . S
Cd298 O307 2.356 . S
C299 O304 1.209 . S
C299 O306 1.226 . S
O300 Cd296 2.273 . S
O300 Cd298 2.411 . S
O300 C303 1.320 1_556 S
O301 Cd298 2.333 . S
O301 C303 1.214 1_556 S
O302 Cd298 2.352 . S
O302 C305 1.258 . S
C303 O300 1.320 1_554 S
C303 O301 1.214 1_554 S
O304 Cd296 2.277 . S
O304 C299 1.209 . S
C305 O302 1.258 . S
C305 O307 1.282 . S
O306 Cd298 2.277 . S
O306 C299 1.226 . S
O307 Cd298 2.356 . S
O307 C305 1.282 . S
C308 O309 1.306 . S
C308 O311 1.160 . S
O309 C308 1.306 . S
O309 Cd310 2.228 . S
Cd310 O309 2.228 . S
Cd310 O314 2.273 . S
Cd310 O318 2.277 . S
O311 C308 1.160 . S
O311 Cd312 2.203 . S
Cd312 O311 2.203 . S
Cd312 O314 2.411 . S
Cd312 O315 2.333 . S
Cd312 O316 2.352 . S
Cd312 O320 2.277 . S
Cd312 O321 2.356 . S
C313 O318 1.209 . S
C313 O320 1.226 . S
O314 Cd310 2.273 . S
O314 Cd312 2.411 . S
O314 C317 1.320 1_556 S
O315 Cd312 2.333 . S
O315 C317 1.214 1_556 S
O316 Cd312 2.352 . S
O316 C319 1.258 . S
C317 O314 1.320 1_554 S
C317 O315 1.214 1_554 S
O318 Cd310 2.277 . S
O318 C313 1.209 . S
C319 O316 1.258 . S
C319 O321 1.282 . S
O320 Cd312 2.277 . S
O320 C313 1.226 . S
O321 Cd312 2.356 . S
O321 C319 1.282 . S
C322 O323 1.306 . S
C322 O325 1.160 . S
O323 C322 1.306 . S
O323 Cd324 2.228 . S
Cd324 O323 2.228 . S
Cd324 O328 2.273 . S
Cd324 O332 2.277 . S
O325 C322 1.160 . S
O325 Cd326 2.203 . S
Cd326 O325 2.203 . S
Cd326 O328 2.411 . S
Cd326 O329 2.333 . S
Cd326 O330 2.352 . S
Cd326 O334 2.277 . S
Cd326 O335 2.356 . S
C327 O332 1.209 . S
C327 O334 1.226 . S
O328 Cd324 2.273 . S
O328 Cd326 2.411 . S
O328 C331 1.320 1_556 S
O329 Cd326 2.333 . S
O329 C331 1.214 1_556 S
O330 Cd326 2.352 . S
O330 C333 1.258 . S
C331 O328 1.320 1_554 S
C331 O329 1.214 1_554 S
O332 Cd324 2.277 . S
O332 C327 1.209 . S
C333 O330 1.258 . S
C333 O335 1.282 . S
O334 Cd326 2.277 . S
O334 C327 1.226 . S
O335 Cd326 2.356 . S
O335 C333 1.282 . S
C336 O337 1.306 . S
C336 O339 1.160 . S
O337 C336 1.306 . S
O337 Cd338 2.228 . S
Cd338 O337 2.228 . S
Cd338 O342 2.273 . S
Cd338 O346 2.277 . S
O339 C336 1.160 . S
O339 Cd340 2.203 . S
Cd340 O339 2.203 . S
Cd340 O342 2.411 . S
Cd340 O343 2.333 . S
Cd340 O344 2.352 . S
Cd340 O348 2.277 . S
Cd340 O349 2.356 . S
C341 O346 1.209 . S
C341 O348 1.226 . S
O342 Cd338 2.273 . S
O342 Cd340 2.411 . S
O342 C345 1.320 . S
O343 Cd340 2.333 . S
O343 C345 1.214 . S
O344 Cd340 2.352 . S
O344 C347 1.258 . S
C345 O342 1.320 . S
C345 O343 1.214 . S
O346 Cd338 2.277 . S
O346 C341 1.209 . S
C347 O344 1.258 . S
C347 O349 1.282 . S
O348 Cd340 2.277 . S
O348 C341 1.226 . S
O349 Cd340 2.356 . S
O349 C347 1.282 . S
C350 O351 1.306 . S
C350 O353 1.160 . S
O351 C350 1.306 . S
O351 Cd352 2.228 . S
Cd352 O351 2.228 . S
Cd352 O356 2.273 . S
Cd352 O360 2.277 . S
O353 C350 1.160 . S
O353 Cd354 2.203 . S
Cd354 O353 2.203 . S
Cd354 O356 2.411 . S
Cd354 O357 2.333 . S
Cd354 O358 2.352 . S
Cd354 O362 2.277 . S
Cd354 O363 2.356 . S
C355 O360 1.209 . S
C355 O362 1.226 . S
O356 Cd352 2.273 . S
O356 Cd354 2.411 . S
O356 C359 1.320 . S
O357 Cd354 2.333 . S
O357 C359 1.214 . S
O358 Cd354 2.352 . S
O358 C361 1.258 . S
C359 O356 1.320 . S
C359 O357 1.214 . S
O360 Cd352 2.277 . S
O360 C355 1.209 . S
C361 O358 1.258 . S
C361 O363 1.282 . S
O362 Cd354 2.277 . S
O362 C355 1.226 . S
O363 Cd354 2.356 . S
O363 C361 1.282 . S
C364 O365 1.306 . S
C364 O367 1.160 . S
O365 C364 1.306 . S
O365 Cd366 2.228 . S
Cd366 O365 2.228 . S
Cd366 O370 2.273 . S
Cd366 O374 2.277 . S
O367 C364 1.160 . S
O367 Cd368 2.203 . S
Cd368 O367 2.203 . S
Cd368 O370 2.411 . S
Cd368 O371 2.333 . S
Cd368 O372 2.352 . S
Cd368 O376 2.277 . S
Cd368 O377 2.356 . S
C369 O374 1.209 . S
C369 O376 1.226 . S
O370 Cd366 2.273 . S
O370 Cd368 2.411 . S
O370 C373 1.320 . S
O371 Cd368 2.333 . S
O371 C373 1.214 . S
O372 Cd368 2.352 . S
O372 C375 1.258 . S
C373 O370 1.320 . S
C373 O371 1.214 . S
O374 Cd366 2.277 . S
O374 C369 1.209 . S
C375 O372 1.258 . S
C375 O377 1.282 . S
O376 Cd368 2.277 . S
O376 C369 1.226 . S
O377 Cd368 2.356 . S
O377 C375 1.282 . S
C378 O379 1.306 . S
C378 O381 1.160 . S
O379 C378 1.306 . S
O379 Cd380 2.228 . S
Cd380 O379 2.228 . S
Cd380 O384 2.273 . S
Cd380 O388 2.277 . S
O381 C378 1.160 . S
O381 Cd382 2.203 . S
Cd382 O381 2.203 . S
Cd382 O384 2.411 . S
Cd382 O385 2.333 . S
Cd382 O386 2.352 . S
Cd382 O390 2.277 . S
Cd382 O391 2.356 . S
C383 O388 1.209 . S
C383 O390 1.226 . S
O384 Cd380 2.273 . S
O384 Cd382 2.411 . S
O384 C387 1.320 1_554 S
O385 Cd382 2.333 . S
O385 C387 1.214 1_554 S
O386 Cd382 2.352 . S
O386 C389 1.258 . S
C387 O384 1.320 1_556 S
C387 O385 1.214 1_556 S
O388 Cd380 2.277 . S
O388 C383 1.209 . S
C389 O386 1.258 . S
C389 O391 1.282 . S
O390 Cd382 2.277 . S
O390 C383 1.226 . S
O391 Cd382 2.356 . S
O391 C389 1.282 . S
C392 O393 1.306 . S
C392 O395 1.160 . S
O393 C392 1.306 . S
O393 Cd394 2.228 . S
Cd394 O393 2.228 . S
Cd394 O398 2.273 . S
Cd394 O402 2.277 . S
O395 C392 1.160 . S
O395 Cd396 2.203 . S
Cd396 O395 2.203 . S
Cd396 O398 2.411 . S
Cd396 O399 2.333 . S
Cd396 O400 2.352 . S
Cd396 O404 2.277 . S
Cd396 O405 2.356 . S
C397 O402 1.209 . S
C397 O404 1.226 . S
O398 Cd394 2.273 . S
O398 Cd396 2.411 . S
O398 C401 1.320 1_554 S
O399 Cd396 2.333 . S
O399 C401 1.214 1_554 S
O400 Cd396 2.352 . S
O400 C403 1.258 . S
C401 O398 1.320 1_556 S
C401 O399 1.214 1_556 S
O402 Cd394 2.277 . S
O402 C397 1.209 . S
C403 O400 1.258 . S
C403 O405 1.282 . S
O404 Cd396 2.277 . S
O404 C397 1.226 . S
O405 Cd396 2.356 . S
O405 C403 1.282 . S
C406 O407 1.306 . S
C406 O409 1.160 . S
O407 C406 1.306 . S
O407 Cd408 2.228 . S
Cd408 O407 2.228 . S
Cd408 O412 2.273 . S
Cd408 O416 2.277 . S
O409 C406 1.160 . S
O409 Cd410 2.203 . S
Cd410 O409 2.203 . S
Cd410 O412 2.411 . S
Cd410 O413 2.333 . S
Cd410 O414 2.352 . S
Cd410 O418 2.277 . S
Cd410 O419 2.356 . S
C411 O416 1.209 . S
C411 O418 1.226 . S
O412 Cd408 2.273 . S
O412 Cd410 2.411 . S
O412 C415 1.320 1_554 S
O413 Cd410 2.333 . S
O413 C415 1.214 1_554 S
O414 Cd410 2.352 . S
O414 C417 1.258 . S
C415 O412 1.320 1_556 S
C415 O413 1.214 1_556 S
O416 Cd408 2.277 . S
O416 C411 1.209 . S
C417 O414 1.258 . S
C417 O419 1.282 . S
O418 Cd410 2.277 . S
O418 C411 1.226 . S
O419 Cd410 2.356 . S
O419 C417 1.282 . S
C420 O421 1.306 . S
C420 O423 1.160 . S
O421 C420 1.306 . S
O421 Cd422 2.228 . S
Cd422 O421 2.228 . S
Cd422 O426 2.273 . S
Cd422 O430 2.277 . S
O423 C420 1.160 . S
O423 Cd424 2.203 . S
Cd424 O423 2.203 . S
Cd424 O426 2.411 . S
Cd424 O427 2.333 . S
Cd424 O428 2.352 . S
Cd424 O432 2.277 . S
Cd424 O433 2.356 . S
C425 O430 1.209 . S
C425 O432 1.226 . S
O426 Cd422 2.273 . S
O426 Cd424 2.411 . S
O426 C429 1.320 . S
O427 Cd424 2.333 . S
O427 C429 1.214 . S
O428 Cd424 2.352 . S
O428 C431 1.258 . S
C429 O426 1.320 . S
C429 O427 1.214 . S
O430 Cd422 2.277 . S
O430 C425 1.209 . S
C431 O428 1.258 . S
C431 O433 1.282 . S
O432 Cd424 2.277 . S
O432 C425 1.226 . S
O433 Cd424 2.356 . S
O433 C431 1.282 . S
C434 O435 1.306 . S
C434 O437 1.160 . S
O435 C434 1.306 . S
O435 Cd436 2.228 . S
Cd436 O435 2.228 . S
Cd436 O440 2.273 . S
Cd436 O444 2.277 . S
O437 C434 1.160 . S
O437 Cd438 2.203 . S
Cd438 O437 2.203 . S
Cd438 O440 2.411 . S
Cd438 O441 2.333 . S
Cd438 O442 2.352 . S
Cd438 O446 2.277 . S
Cd438 O447 2.356 . S
C439 O444 1.209 . S
C439 O446 1.226 . S
O440 Cd436 2.273 . S
O440 Cd438 2.411 . S
O440 C443 1.320 . S
O441 Cd438 2.333 . S
O441 C443 1.214 . S
O442 Cd438 2.352 . S
O442 C445 1.258 . S
C443 O440 1.320 . S
C443 O441 1.214 . S
O444 Cd436 2.277 . S
O444 C439 1.209 . S
C445 O442 1.258 . S
C445 O447 1.282 . S
O446 Cd438 2.277 . S
O446 C439 1.226 . S
O447 Cd438 2.356 . S
O447 C445 1.282 . S
C448 O449 1.306 . S
C448 O451 1.160 . S
O449 C448 1.306 . S
O449 Cd450 2.228 . S
Cd450 O449 2.228 . S
Cd450 O454 2.273 . S
Cd450 O458 2.277 . S
O451 C448 1.160 . S
O451 Cd452 2.203 . S
Cd452 O451 2.203 . S
Cd452 O454 2.411 . S
Cd452 O455 2.333 . S
Cd452 O456 2.352 . S
Cd452 O460 2.277 . S
Cd452 O461 2.356 . S
C453 O458 1.209 . S
C453 O460 1.226 . S
O454 Cd450 2.273 . S
O454 Cd452 2.411 . S
O454 C457 1.320 . S
O455 Cd452 2.333 . S
O455 C457 1.214 . S
O456 Cd452 2.352 . S
O456 C459 1.258 . S
C457 O454 1.320 . S
C457 O455 1.214 . S
O458 Cd450 2.277 . S
O458 C453 1.209 . S
C459 O456 1.258 . S
C459 O461 1.282 . S
O460 Cd452 2.277 . S
O460 C453 1.226 . S
O461 Cd452 2.356 . S
O461 C459 1.282 . S
C462 O463 1.306 . S
C462 O465 1.160 . S
O463 C462 1.306 . S
O463 Cd464 2.228 . S
Cd464 O463 2.228 . S
Cd464 O468 2.273 . S
Cd464 O472 2.277 . S
O465 C462 1.160 . S
O465 Cd466 2.203 . S
Cd466 O465 2.203 . S
Cd466 O468 2.411 . S
Cd466 O469 2.333 . S
Cd466 O470 2.352 . S
Cd466 O474 2.277 . S
Cd466 O475 2.356 . S
C467 O472 1.209 . S
C467 O474 1.226 . S
O468 Cd464 2.273 . S
O468 Cd466 2.411 . S
O468 C471 1.320 . S
O469 Cd466 2.333 . S
O469 C471 1.214 . S
O470 Cd466 2.352 . S
O470 C473 1.258 . S
C471 O468 1.320 . S
C471 O469 1.214 . S
O472 Cd464 2.277 . S
O472 C467 1.209 . S
C473 O470 1.258 . S
C473 O475 1.282 . S
O474 Cd466 2.277 . S
O474 C467 1.226 . S
O475 Cd466 2.356 . S
O475 C473 1.282 . S
C476 O477 1.306 . S
C476 O479 1.160 . S
O477 C476 1.306 . S
O477 Cd478 2.228 . S
Cd478 O477 2.228 . S
Cd478 O482 2.273 . S
Cd478 O486 2.277 . S
O479 C476 1.160 . S
O479 Cd480 2.203 . S
Cd480 O479 2.203 . S
Cd480 O482 2.411 . S
Cd480 O483 2.333 . S
Cd480 O484 2.352 . S
Cd480 O488 2.277 . S
Cd480 O489 2.356 . S
C481 O486 1.209 . S
C481 O488 1.226 . S
O482 Cd478 2.273 . S
O482 Cd480 2.411 . S
O482 C485 1.320 . S
O483 Cd480 2.333 . S
O483 C485 1.214 . S
O484 Cd480 2.352 . S
O484 C487 1.258 . S
C485 O482 1.320 . S
C485 O483 1.214 . S
O486 Cd478 2.277 . S
O486 C481 1.209 . S
C487 O484 1.258 . S
C487 O489 1.282 . S
O488 Cd480 2.277 . S
O488 C481 1.226 . S
O489 Cd480 2.356 . S
O489 C487 1.282 . S
C490 O491 1.306 . S
C490 O493 1.160 . S
O491 C490 1.306 . S
O491 Cd492 2.228 . S
Cd492 O491 2.228 . S
Cd492 O496 2.273 . S
Cd492 O500 2.277 . S
O493 C490 1.160 . S
O493 Cd494 2.203 . S
Cd494 O493 2.203 . S
Cd494 O496 2.411 . S
Cd494 O497 2.333 . S
Cd494 O498 2.352 . S
Cd494 O502 2.277 . S
Cd494 O503 2.356 . S
C495 O500 1.209 . S
C495 O502 1.226 . S
O496 Cd492 2.273 . S
O496 Cd494 2.411 . S
O496 C499 1.320 . S
O497 Cd494 2.333 . S
O497 C499 1.214 . S
O498 Cd494 2.352 . S
O498 C501 1.258 . S
C499 O496 1.320 . S
C499 O497 1.214 . S
O500 Cd492 2.277 . S
O500 C495 1.209 . S
C501 O498 1.258 . S
C501 O503 1.282 . S
O502 Cd494 2.277 . S
O502 C495 1.226 . S
O503 Cd494 2.356 . S
O503 C501 1.282 . S
C504 C505 1.378 1_556 S
C504 H508 0.952 . S
C504 C513 1.397 . S
C505 C504 1.378 1_554 S
C505 C507 1.387 . S
H506 C513 0.950 . S
C507 C505 1.387 . S
C507 C509 1.390 . S
C507 H511 0.950 . S
H508 C504 0.952 . S
C509 C507 1.390 . S
C509 C510 1.387 1_554 S
C509 H512 0.950 1_545 S
C510 C509 1.387 1_556 S
C510 C513 1.387 . S
H511 C507 0.950 . S
H512 C509 0.950 1_565 S
C513 C504 1.397 . S
C513 H506 0.950 . S
C513 C510 1.387 . S
C514 C515 1.387 . S
C514 H518 0.950 . S
C514 C523 1.390 1_655 S
C515 C514 1.387 . S
C515 C517 1.387 1_554 S
H516 C523 0.950 . S
C517 C515 1.387 1_556 S
C517 C519 1.390 . S
C517 H521 0.950 . S
H518 C514 0.950 . S
C519 C517 1.390 . S
C519 C520 1.387 . S
C519 H522 0.950 . S
C520 C519 1.387 . S
C520 C523 1.387 1_656 S
H521 C517 0.950 . S
H522 C519 0.950 . S
C523 C514 1.390 1_455 S
C523 H516 0.950 . S
C523 C520 1.387 1_454 S
C524 C525 1.387 1_554 S
C524 H528 0.950 . S
C524 C533 1.390 . S
C525 C524 1.387 1_556 S
C525 C527 1.387 . S
H526 C533 0.950 . S
C527 C525 1.387 . S
C527 C529 1.390 . S
C527 H531 0.950 . S
H528 C524 0.950 . S
C529 C527 1.390 . S
C529 C530 1.387 1_556 S
C529 H532 0.950 . S
C530 C529 1.387 1_554 S
C530 C533 1.387 . S
H531 C527 0.950 . S
H532 C529 0.950 . S
C533 C524 1.390 . S
C533 H526 0.950 . S
C533 C530 1.387 . S
C534 C535 1.387 . S
C534 H538 0.950 . S
C534 C543 1.390 . S
C535 C534 1.387 . S
C535 C537 1.387 . S
H536 C543 0.950 . S
C537 C535 1.387 . S
C537 C539 1.390 . S
C537 H541 0.950 1_455 S
H538 C534 0.950 . S
C539 C537 1.390 . S
C539 C540 1.387 . S
C539 H542 0.950 . S
C540 C539 1.387 . S
C540 C543 1.387 . S
H541 C537 0.950 1_655 S
H542 C539 0.950 . S
C543 C534 1.390 . S
C543 H536 0.950 . S
C543 C540 1.387 . S
C544 C545 1.387 . S
C544 H548 0.950 . S
C544 C553 1.390 . S
C545 C544 1.387 . S
C545 C547 1.387 . S
H546 C553 0.950 . S
C547 C545 1.387 . S
C547 C549 1.390 . S
C547 H551 0.950 . S
H548 C544 0.950 . S
C549 C547 1.390 . S
C549 C550 1.387 . S
C549 H552 0.950 . S
C550 C549 1.387 . S
C550 C553 1.387 . S
H551 C547 0.950 . S
H552 C549 0.950 . S
C553 C544 1.390 . S
C553 H546 0.950 . S
C553 C550 1.387 . S
C554 C555 1.387 . S
C554 H558 0.950 . S
C554 C563 1.390 . S
C555 C554 1.387 . S
C555 C557 1.387 . S
H556 C563 0.950 . S
C557 C555 1.387 . S
C557 C559 1.390 . S
C557 H561 0.950 . S
H558 C554 0.950 . S
C559 C557 1.390 . S
C559 C560 1.387 . S
C559 H562 0.950 1_565 S
C560 C559 1.387 . S
C560 C563 1.387 . S
H561 C557 0.950 . S
H562 C559 0.950 1_545 S
C563 C554 1.390 . S
C563 H556 0.950 . S
C563 C560 1.387 . S
C564 C565 1.394 1_556 S
C564 H568 0.912 1_565 S
C564 C573 1.422 . S
C565 C564 1.394 1_554 S
C565 C567 1.387 . S
H566 C573 0.950 . S
C567 C565 1.387 . S
C567 C569 1.390 . S
C567 H571 0.950 . S
H568 C564 0.912 1_545 S
C569 C567 1.390 . S
C569 C570 1.387 1_554 S
C569 H572 0.950 . S
C570 C569 1.387 1_556 S
C570 C573 1.387 . S
H571 C567 0.950 . S
H572 C569 0.950 . S
C573 C564 1.422 . S
C573 H566 0.950 . S
C573 C570 1.387 . S
C574 C575 1.387 1_556 S
C574 H578 0.950 1_455 S
C574 C583 1.390 . S
C575 C574 1.387 1_554 S
C575 C577 1.387 . S
H576 C583 0.950 . S
C577 C575 1.387 . S
C577 C579 1.390 . S
C577 H581 0.950 . S
H578 C574 0.950 1_655 S
C579 C577 1.390 . S
C579 C580 1.387 1_554 S
C579 H582 0.950 . S
C580 C579 1.387 1_556 S
C580 C583 1.387 . S
H581 C577 0.950 . S
H582 C579 0.950 . S
C583 C574 1.390 . S
C583 H576 0.950 . S
C583 C580 1.387 . S
C584 C585 1.388 1_554 S
C584 H588 0.949 . S
C584 C593 1.390 . S
C585 C584 1.388 1_556 S
C585 C587 1.387 . S
H586 C593 0.950 . S
C587 C585 1.387 . S
C587 C589 1.390 . S
C587 H591 0.950 . S
H588 C584 0.949 . S
C589 C587 1.390 . S
C589 C590 1.387 1_556 S
C589 H592 0.950 . S
C590 C589 1.387 1_554 S
C590 C593 1.387 . S
H591 C587 0.950 . S
H592 C589 0.950 . S
C593 C584 1.390 . S
C593 H586 0.950 . S
C593 C590 1.387 . S
C594 C595 1.387 . S
C594 H598 0.950 . S
C594 C603 1.406 . S
C595 C594 1.387 . S
C595 C597 1.387 . S
H596 C603 0.942 1_455 S
C597 C595 1.387 . S
C597 C599 1.390 . S
C597 H601 0.950 . S
H598 C594 0.950 . S
C599 C597 1.390 . S
C599 C600 1.387 . S
C599 H602 0.950 . S
C600 C599 1.387 . S
C600 C603 1.380 . S
H601 C597 0.950 . S
H602 C599 0.950 . S
C603 C594 1.406 . S
C603 H596 0.942 1_655 S
C603 C600 1.380 . S
C604 C605 1.387 . S
C604 H608 0.950 . S
C604 C613 1.390 . S
C605 C604 1.387 . S
C605 C607 1.387 . S
H606 C613 0.950 . S
C607 C605 1.387 . S
C607 C609 1.390 . S
C607 H611 0.950 . S
H608 C604 0.950 . S
C609 C607 1.390 . S
C609 C610 1.387 . S
C609 H612 0.950 . S
C610 C609 1.387 . S
C610 C613 1.387 . S
H611 C607 0.950 . S
H612 C609 0.950 . S
C613 C604 1.390 . S
C613 H606 0.950 . S
C613 C610 1.387 . S
C614 C615 1.387 . S
C614 H618 0.950 . S
C614 C623 1.390 . S
C615 C614 1.387 . S
C615 C617 1.387 . S
H616 C623 0.950 1_565 S
C617 C615 1.387 . S
C617 C619 1.390 . S
C617 H621 0.950 . S
H618 C614 0.950 . S
C619 C617 1.390 . S
C619 C620 1.387 . S
C619 H622 0.950 . S
C620 C619 1.387 . S
C620 C623 1.387 . S
H621 C617 0.950 . S
H622 C619 0.950 . S
C623 C614 1.390 . S
C623 H616 0.950 1_545 S
C623 C620 1.387 . S
C624 C625 1.387 . S
C624 H628 0.950 . S
C624 C633 1.390 . S
C625 C624 1.387 . S
C625 C627 1.387 . S
H626 C633 0.950 . S
C627 C625 1.387 . S
C627 C629 1.390 . S
C627 H631 0.950 . S
H628 C624 0.950 . S
C629 C627 1.390 . S
C629 C630 1.387 . S
C629 H632 0.950 . S
C630 C629 1.387 . S
C630 C633 1.387 . S
H631 C627 0.950 . S
H632 C629 0.950 . S
C633 C624 1.390 . S
C633 H626 0.950 . S
C633 C630 1.387 . S
C634 C635 1.387 . S
C634 H638 0.950 . S
C634 C643 1.390 . S
C635 C634 1.387 . S
C635 C637 1.387 . S
H636 C643 0.950 . S
C637 C635 1.387 . S
C637 C639 1.390 . S
C637 H641 0.950 . S
H638 C634 0.950 . S
C639 C637 1.390 . S
C639 C640 1.387 . S
C639 H642 0.950 . S
C640 C639 1.387 . S
C640 C643 1.387 . S
H641 C637 0.950 . S
H642 C639 0.950 . S
C643 C634 1.390 . S
C643 H636 0.950 . S
C643 C640 1.387 . S
C644 C645 1.387 . S
C644 H648 0.950 . S
C644 C653 1.390 . S
C645 C644 1.387 . S
C645 C647 1.387 . S
H646 C653 0.950 . S
C647 C645 1.387 . S
C647 C649 1.390 . S
C647 H651 0.950 . S
H648 C644 0.950 . S
C649 C647 1.390 . S
C649 C650 1.387 . S
C649 H652 0.950 . S
C650 C649 1.387 . S
C650 C653 1.387 . S
H651 C647 0.950 . S
H652 C649 0.950 . S
C653 C644 1.390 . S
C653 H646 0.950 . S
C653 C650 1.387 . S
C654 C655 1.387 . S
C654 H658 0.950 . S
C654 C663 1.390 . S
C655 C654 1.387 . S
C655 C657 1.387 . S
H656 C663 0.950 . S
C657 C655 1.387 . S
C657 C659 1.390 . S
C657 H661 0.950 . S
H658 C654 0.950 . S
C659 C657 1.390 . S
C659 C660 1.387 . S
C659 H662 0.950 . S
C660 C659 1.387 . S
C660 C663 1.387 . S
H661 C657 0.950 . S
H662 C659 0.950 . S
C663 C654 1.390 . S
C663 H656 0.950 . S
C663 C660 1.387 . S
C664 C665 1.387 . S
C664 H668 0.950 . S
C664 C673 1.390 . S
C665 C664 1.387 . S
C665 C667 1.387 . S
H666 C673 0.950 . S
C667 C665 1.387 . S
C667 C669 1.390 . S
C667 H671 0.950 . S
H668 C664 0.950 . S
C669 C667 1.390 . S
C669 C670 1.387 . S
C669 H672 0.950 . S
C670 C669 1.387 . S
C670 C673 1.387 . S
H671 C667 0.950 . S
H672 C669 0.950 . S
C673 C664 1.390 . S
C673 H666 0.950 . S
C673 C670 1.387 . S
C674 C675 1.387 . S
C674 H678 0.950 . S
C674 C683 1.390 . S
C675 C674 1.387 . S
C675 C677 1.387 . S
H676 C683 0.950 . S
C677 C675 1.387 . S
C677 C679 1.390 . S
C677 H681 0.950 . S
H678 C674 0.950 . S
C679 C677 1.390 . S
C679 C680 1.387 . S
C679 H682 0.950 . S
C680 C679 1.387 . S
C680 C683 1.387 . S
H681 C677 0.950 . S
H682 C679 0.950 . S
C683 C674 1.390 . S
C683 H676 0.950 . S
C683 C680 1.387 . S
C684 C685 1.387 . S
C684 H688 0.950 . S
C684 C693 1.390 . S
C685 C684 1.387 . S
C685 C687 1.387 . S
H686 C693 0.950 . S
C687 C685 1.387 . S
C687 C689 1.390 . S
C687 H691 0.950 . S
H688 C684 0.950 . S
C689 C687 1.390 . S
C689 C690 1.387 . S
C689 H692 0.950 . S
C690 C689 1.387 . S
C690 C693 1.387 . S
H691 C687 0.950 . S
H692 C689 0.950 . S
C693 C684 1.390 . S
C693 H686 0.950 . S
C693 C690 1.387 . S
C694 C695 1.387 . S
C694 H698 0.950 . S
C694 C703 1.390 . S
C695 C694 1.387 . S
C695 C697 1.387 . S
H696 C703 0.950 . S
C697 C695 1.387 . S
C697 C699 1.390 . S
C697 H701 0.950 . S
H698 C694 0.950 . S
C699 C697 1.390 . S
C699 C700 1.387 . S
C699 H702 0.950 . S
C700 C699 1.387 . S
C700 C703 1.387 . S
H701 C697 0.950 . S
H702 C699 0.950 . S
C703 C694 1.390 . S
C703 H696 0.950 . S
C703 C700 1.387 . S
C704 C705 1.387 . S
C704 H708 0.950 . S
C704 C713 1.390 . S
C705 C704 1.387 . S
C705 C707 1.387 . S
H706 C713 0.950 . S
C707 C705 1.387 . S
C707 C709 1.390 . S
C707 H711 0.950 . S
H708 C704 0.950 . S
C709 C707 1.390 . S
C709 C710 1.387 . S
C709 H712 0.950 . S
C710 C709 1.387 . S
C710 C713 1.387 . S
H711 C707 0.950 . S
H712 C709 0.950 . S
C713 C704 1.390 . S
C713 H706 0.950 . S
C713 C710 1.387 . S
C714 C715 1.387 . S
C714 H718 0.950 . S
C714 C723 1.390 . S
C715 C714 1.387 . S
C715 C717 1.387 . S
H716 C723 0.950 . S
C717 C715 1.387 . S
C717 C719 1.390 . S
C717 H721 0.950 . S
H718 C714 0.950 . S
C719 C717 1.390 . S
C719 C720 1.387 . S
C719 H722 0.950 . S
C720 C719 1.387 . S
C720 C723 1.387 . S
H721 C717 0.950 . S
H722 C719 0.950 . S
C723 C714 1.390 . S
C723 H716 0.950 . S
C723 C720 1.387 . S
C724 C725 1.387 . S
C724 H728 0.950 . S
C724 C733 1.390 . S
C725 C724 1.387 . S
C725 C727 1.387 . S
H726 C733 0.950 . S
C727 C725 1.387 . S
C727 C729 1.390 . S
C727 H731 0.950 . S
H728 C724 0.950 . S
C729 C727 1.390 . S
C729 C730 1.387 . S
C729 H732 0.950 . S
C730 C729 1.387 . S
C730 C733 1.387 . S
H731 C727 0.950 . S
H732 C729 0.950 . S
C733 C724 1.390 . S
C733 H726 0.950 . S
C733 C730 1.387 . S
C734 C735 1.387 . S
C734 H738 0.950 . S
C734 C743 1.390 . S
C735 C734 1.387 . S
C735 C737 1.387 . S
H736 C743 0.950 . S
C737 C735 1.387 . S
C737 C739 1.390 . S
C737 H741 0.950 . S
H738 C734 0.950 . S
C739 C737 1.390 . S
C739 C740 1.387 . S
C739 H742 0.950 . S
C740 C739 1.387 . S
C740 C743 1.387 . S
H741 C737 0.950 . S
H742 C739 0.950 . S
C743 C734 1.390 . S
C743 H736 0.950 . S
C743 C740 1.387 . S
C744 C745 1.387 . S
C744 H748 0.950 . S
C744 C753 1.390 . S
C745 C744 1.387 . S
C745 C747 1.387 . S
H746 C753 0.950 . S
C747 C745 1.387 . S
C747 C749 1.390 . S
C747 H751 0.950 . S
H748 C744 0.950 . S
C749 C747 1.390 . S
C749 C750 1.387 . S
C749 H752 0.950 . S
C750 C749 1.387 . S
C750 C753 1.387 . S
H751 C747 0.950 . S
H752 C749 0.950 . S
C753 C744 1.390 . S
C753 H746 0.950 . S
C753 C750 1.387 . S
C754 C755 1.387 . S
C754 H758 0.950 . S
C754 C763 1.390 . S
C755 C754 1.387 . S
C755 C757 1.387 . S
H756 C763 0.950 . S
C757 C755 1.387 . S
C757 C759 1.390 . S
C757 H761 0.950 . S
H758 C754 0.950 . S
C759 C757 1.390 . S
C759 C760 1.387 . S
C759 H762 0.950 . S
C760 C759 1.387 . S
C760 C763 1.387 . S
H761 C757 0.950 . S
H762 C759 0.950 . S
C763 C754 1.390 . S
C763 H756 0.950 . S
C763 C760 1.387 . S
C764 C765 1.387 . S
C764 H768 0.950 . S
C764 C773 1.390 . S
C765 C764 1.387 . S
C765 C767 1.387 . S
H766 C773 0.950 . S
C767 C765 1.387 . S
C767 C769 1.390 . S
C767 H771 0.950 . S
H768 C764 0.950 . S
C769 C767 1.390 . S
C769 C770 1.387 . S
C769 H772 0.950 . S
C770 C769 1.387 . S
C770 C773 1.387 . S
H771 C767 0.950 . S
H772 C769 0.950 . S
C773 C764 1.390 . S
C773 H766 0.950 . S
C773 C770 1.387 . S
C774 C775 1.387 . S
C774 H778 0.950 . S
C774 C783 1.390 . S
C775 C774 1.387 . S
C775 C777 1.387 . S
H776 C783 0.950 . S
C777 C775 1.387 . S
C777 C779 1.390 . S
C777 H781 0.950 . S
H778 C774 0.950 . S
C779 C777 1.390 . S
C779 C780 1.387 . S
C779 H782 0.950 . S
C780 C779 1.387 . S
C780 C783 1.387 . S
H781 C777 0.950 . S
H782 C779 0.950 . S
C783 C774 1.390 . S
C783 H776 0.950 . S
C783 C780 1.387 . S
C784 C785 1.387 . S
C784 H788 0.950 . S
C784 C793 1.390 . S
C785 C784 1.387 . S
C785 C787 1.387 . S
H786 C793 0.950 . S
C787 C785 1.387 . S
C787 C789 1.390 . S
C787 H791 0.950 . S
H788 C784 0.950 . S
C789 C787 1.390 . S
C789 C790 1.387 . S
C789 H792 0.950 . S
C790 C789 1.387 . S
C790 C793 1.387 . S
H791 C787 0.950 . S
H792 C789 0.950 . S
C793 C784 1.390 . S
C793 H786 0.950 . S
C793 C790 1.387 . S
C794 C795 1.387 . S
C794 H798 0.950 . S
C794 C803 1.390 . S
C795 C794 1.387 . S
C795 C797 1.387 . S
H796 C803 0.950 . S
C797 C795 1.387 . S
C797 C799 1.390 . S
C797 H801 0.950 . S
H798 C794 0.950 . S
C799 C797 1.390 . S
C799 C800 1.387 . S
C799 H802 0.950 . S
C800 C799 1.387 . S
C800 C803 1.387 . S
H801 C797 0.950 . S
H802 C799 0.950 . S
C803 C794 1.390 . S
C803 H796 0.950 . S
C803 C800 1.387 . S
C804 C805 1.387 . S
C804 H808 0.950 . S
C804 C813 1.390 . S
C805 C804 1.387 . S
C805 C807 1.387 . S
H806 C813 0.950 . S
C807 C805 1.387 . S
C807 C809 1.390 . S
C807 H811 0.950 . S
H808 C804 0.950 . S
C809 C807 1.390 . S
C809 C810 1.387 . S
C809 H812 0.950 . S
C810 C809 1.387 . S
C810 C813 1.387 . S
H811 C807 0.950 . S
H812 C809 0.950 . S
C813 C804 1.390 . S
C813 H806 0.950 . S
C813 C810 1.387 . S
C814 C815 1.387 . S
C814 H818 0.950 . S
C814 C823 1.390 . S
C815 C814 1.387 . S
C815 C817 1.387 . S
H816 C823 0.950 . S
C817 C815 1.387 . S
C817 C819 1.390 . S
C817 H821 0.950 . S
H818 C814 0.950 . S
C819 C817 1.390 . S
C819 C820 1.387 . S
C819 H822 0.950 . S
C820 C819 1.387 . S
C820 C823 1.387 . S
H821 C817 0.950 . S
H822 C819 0.950 . S
C823 C814 1.390 . S
C823 H816 0.950 . S
C823 C820 1.387 . S
C824 C825 1.387 . S
C824 H828 0.950 . S
C824 C833 1.390 . S
C825 C824 1.387 . S
C825 C827 1.387 . S
H826 C833 0.950 . S
C827 C825 1.387 . S
C827 C829 1.390 . S
C827 H831 0.950 . S
H828 C824 0.950 . S
C829 C827 1.390 . S
C829 C830 1.387 . S
C829 H832 0.950 . S
C830 C829 1.387 . S
C830 C833 1.387 . S
H831 C827 0.950 . S
H832 C829 0.950 . S
C833 C824 1.390 . S
C833 H826 0.950 . S
C833 C830 1.387 . S
C834 C835 1.387 . S
C834 H838 0.950 . S
C834 C843 1.390 . S
C835 C834 1.387 . S
C835 C837 1.387 . S
H836 C843 0.950 . S
C837 C835 1.387 . S
C837 C839 1.390 . S
C837 H841 0.950 . S
H838 C834 0.950 . S
C839 C837 1.390 . S
C839 C840 1.387 . S
C839 H842 0.950 . S
C840 C839 1.387 . S
C840 C843 1.387 . S
H841 C837 0.950 . S
H842 C839 0.950 . S
C843 C834 1.390 . S
C843 H836 0.950 . S
C843 C840 1.387 . S
C844 C845 1.387 . S
C844 H848 0.950 . S
C844 C853 1.390 . S
C845 C844 1.387 . S
C845 C847 1.387 . S
H846 C853 0.950 . S
C847 C845 1.387 . S
C847 C849 1.390 . S
C847 H851 0.950 . S
H848 C844 0.950 . S
C849 C847 1.390 . S
C849 C850 1.387 . S
C849 H852 0.950 . S
C850 C849 1.387 . S
C850 C853 1.387 . S
H851 C847 0.950 . S
H852 C849 0.950 . S
C853 C844 1.390 . S
C853 H846 0.950 . S
C853 C850 1.387 . S
C854 C855 1.387 . S
C854 H858 0.950 . S
C854 C863 1.390 . S
C855 C854 1.387 . S
C855 C857 1.387 . S
H856 C863 0.950 . S
C857 C855 1.387 . S
C857 C859 1.390 . S
C857 H861 0.950 . S
H858 C854 0.950 . S
C859 C857 1.390 . S
C859 C860 1.387 . S
C859 H862 0.950 . S
C860 C859 1.387 . S
C860 C863 1.387 . S
H861 C857 0.950 . S
H862 C859 0.950 . S
C863 C854 1.390 . S
C863 H856 0.950 . S
C863 C860 1.387 . S
C864 C865 1.387 . S
C864 H868 0.950 . S
C864 C873 1.390 . S
C865 C864 1.387 . S
C865 C867 1.387 . S
H866 C873 0.950 . S
C867 C865 1.387 . S
C867 C869 1.390 . S
C867 H871 0.950 . S
H868 C864 0.950 . S
C869 C867 1.390 . S
C869 C870 1.387 . S
C869 H872 0.950 . S
C870 C869 1.387 . S
C870 C873 1.387 . S
H871 C867 0.950 . S
H872 C869 0.950 . S
C873 C864 1.390 . S
C873 H866 0.950 . S
C873 C870 1.387 . S
C874 C875 1.387 . S
C874 H878 0.950 . S
C874 C883 1.390 1_565 S
C875 C874 1.387 . S
C875 C877 1.387 . S
H876 C883 0.950 . S
C877 C875 1.387 . S
C877 C879 1.390 1_565 S
C877 H881 0.950 . S
H878 C874 0.950 . S
C879 C877 1.390 1_545 S
C879 C880 1.387 . S
C879 H882 0.950 . S
C880 C879 1.387 . S
C880 C883 1.387 . S
H881 C877 0.950 . S
H882 C879 0.950 . S
C883 C874 1.390 1_545 S
C883 H876 0.950 . S
C883 C880 1.387 . S
C884 C885 1.387 . S
C884 H888 0.950 . S
C884 C893 1.390 1_655 S
C885 C884 1.387 . S
C885 C887 1.387 . S
H886 C893 0.950 . S
C887 C885 1.387 . S
C887 C889 1.390 1_655 S
C887 H891 0.950 . S
H888 C884 0.950 . S
C889 C887 1.390 1_455 S
C889 C890 1.387 . S
C889 H892 0.950 . S
C890 C889 1.387 . S
C890 C893 1.387 . S
H891 C887 0.950 . S
H892 C889 0.950 . S
C893 C884 1.390 1_455 S
C893 H886 0.950 . S
C893 C890 1.387 . S
C894 C895 1.387 . S
C894 H898 0.950 . S
C894 C903 1.390 . S
C895 C894 1.387 . S
C895 C897 1.387 . S
H896 C903 0.950 . S
C897 C895 1.387 . S
C897 C899 1.390 . S
C897 H901 0.950 . S
H898 C894 0.950 . S
C899 C897 1.390 . S
C899 C900 1.387 . S
C899 H902 0.950 . S
C900 C899 1.387 . S
C900 C903 1.387 . S
H901 C897 0.950 . S
H902 C899 0.950 . S
C903 C894 1.390 . S
C903 H896 0.950 . S
C903 C900 1.387 . S
C904 C905 1.387 . S
C904 H908 0.950 . S
C904 C913 1.390 1_545 S
C905 C904 1.387 . S
C905 C907 1.387 . S
H906 C913 0.950 . S
C907 C905 1.387 . S
C907 C909 1.390 1_545 S
C907 H911 0.950 . S
H908 C904 0.950 . S
C909 C907 1.390 1_565 S
C909 C910 1.387 . S
C909 H912 0.950 . S
C910 C909 1.387 . S
C910 C913 1.387 . S
H911 C907 0.950 . S
H912 C909 0.950 . S
C913 C904 1.390 1_565 S
C913 H906 0.950 . S
C913 C910 1.387 . S
C914 C915 1.387 1_455 S
C914 H918 0.950 . S
C914 C923 1.390 . S
C915 C914 1.387 1_655 S
C915 C917 1.387 . S
H916 C923 0.950 . S
C917 C915 1.387 . S
C917 C919 1.390 . S
C917 H921 0.950 . S
H918 C914 0.950 . S
C919 C917 1.390 . S
C919 C920 1.387 1_655 S
C919 H922 0.950 . S
C920 C919 1.387 1_455 S
C920 C923 1.387 . S
H921 C917 0.950 . S
H922 C919 0.950 . S
C923 C914 1.390 . S
C923 H916 0.950 . S
C923 C920 1.387 . S
C924 C925 1.387 . S
C924 H928 0.950 . S
C924 C933 1.390 . S
C925 C924 1.387 . S
C925 C927 1.387 . S
H926 C933 0.950 . S
C927 C925 1.387 . S
C927 C929 1.390 . S
C927 H931 0.950 . S
H928 C924 0.950 . S
C929 C927 1.390 . S
C929 C930 1.387 . S
C929 H932 0.950 . S
C930 C929 1.387 . S
C930 C933 1.387 . S
H931 C927 0.950 . S
H932 C929 0.950 . S
C933 C924 1.390 . S
C933 H926 0.950 . S
C933 C930 1.387 . S
C934 C935 1.387 . S
C934 H938 0.950 . S
C934 C943 1.390 . S
C935 C934 1.387 . S
C935 C937 1.387 . S
H936 C943 0.950 . S
C937 C935 1.387 . S
C937 C939 1.390 . S
C937 H941 0.950 . S
H938 C934 0.950 . S
C939 C937 1.390 . S
C939 C940 1.387 . S
C939 H942 0.950 . S
C940 C939 1.387 . S
C940 C943 1.387 . S
H941 C937 0.950 . S
H942 C939 0.950 . S
C943 C934 1.390 . S
C943 H936 0.950 . S
C943 C940 1.387 . S
C944 C945 1.387 . S
C944 H948 0.950 . S
C944 C953 1.390 . S
C945 C944 1.387 . S
C945 C947 1.387 . S
H946 C953 0.950 . S
C947 C945 1.387 . S
C947 C949 1.390 . S
C947 H951 0.950 . S
H948 C944 0.950 . S
C949 C947 1.390 . S
C949 C950 1.387 . S
C949 H952 0.950 . S
C950 C949 1.387 . S
C950 C953 1.387 . S
H951 C947 0.950 . S
H952 C949 0.950 . S
C953 C944 1.390 . S
C953 H946 0.950 . S
C953 C950 1.387 . S
C954 C955 1.387 . S
C954 H958 0.950 . S
C954 C963 1.390 . S
C955 C954 1.387 . S
C955 C957 1.387 . S
H956 C963 0.950 . S
C957 C955 1.387 . S
C957 C959 1.390 . S
C957 H961 0.950 . S
H958 C954 0.950 . S
C959 C957 1.390 . S
C959 C960 1.387 . S
C959 H962 0.950 . S
C960 C959 1.387 . S
C960 C963 1.387 . S
H961 C957 0.950 . S
H962 C959 0.950 . S
C963 C954 1.390 . S
C963 H956 0.950 . S
C963 C960 1.387 . S
C964 C965 1.387 . S
C964 H968 0.950 . S
C964 C973 1.390 . S
C965 C964 1.387 . S
C965 C967 1.387 . S
H966 C973 0.950 . S
C967 C965 1.387 . S
C967 C969 1.390 . S
C967 H971 0.950 . S
H968 C964 0.950 . S
C969 C967 1.390 . S
C969 C970 1.387 . S
C969 H972 0.950 . S
C970 C969 1.387 . S
C970 C973 1.387 . S
H971 C967 0.950 . S
H972 C969 0.950 . S
C973 C964 1.390 . S
C973 H966 0.950 . S
C973 C970 1.387 . S
C974 C975 1.387 . S
C974 H978 0.950 . S
C974 C983 1.390 . S
C975 C974 1.387 . S
C975 C977 1.387 . S
H976 C983 0.950 . S
C977 C975 1.387 . S
C977 C979 1.390 . S
C977 H981 0.950 . S
H978 C974 0.950 . S
C979 C977 1.390 . S
C979 C980 1.387 . S
C979 H982 0.950 . S
C980 C979 1.387 . S
C980 C983 1.387 . S
H981 C977 0.950 . S
H982 C979 0.950 . S
C983 C974 1.390 . S
C983 H976 0.950 . S
C983 C980 1.387 . S
C984 C985 1.387 . S
C984 H988 0.950 . S
C984 C993 1.390 . S
C985 C984 1.387 . S
C985 C987 1.387 . S
H986 C993 0.950 . S
C987 C985 1.387 . S
C987 C989 1.390 . S
C987 H991 0.950 . S
H988 C984 0.950 . S
C989 C987 1.390 . S
C989 C990 1.387 . S
C989 H992 0.950 . S
C990 C989 1.387 . S
C990 C993 1.387 . S
H991 C987 0.950 . S
H992 C989 0.950 . S
C993 C984 1.390 . S
C993 H986 0.950 . S
C993 C990 1.387 . S
C994 C995 1.387 . S
C994 H998 0.950 . S
C994 C1003 1.390 . S
C995 C994 1.387 . S
C995 C997 1.387 . S
H996 C1003 0.950 . S
C997 C995 1.387 . S
C997 C999 1.390 . S
C997 H1001 0.950 . S
H998 C994 0.950 . S
C999 C997 1.390 . S
C999 C1000 1.387 . S
C999 H1002 0.950 . S
C1000 C999 1.387 . S
C1000 C1003 1.387 . S
H1001 C997 0.950 . S
H1002 C999 0.950 . S
C1003 C994 1.390 . S
C1003 H996 0.950 . S
C1003 C1000 1.387 . S
C1004 C1005 1.387 . S
C1004 H1008 0.950 . S
C1004 C1013 1.390 . S
C1005 C1004 1.387 . S
C1005 C1007 1.387 . S
H1006 C1013 0.950 . S
C1007 C1005 1.387 . S
C1007 C1009 1.390 . S
C1007 H1011 0.950 . S
H1008 C1004 0.950 . S
C1009 C1007 1.390 . S
C1009 C1010 1.387 . S
C1009 H1012 0.950 . S
C1010 C1009 1.387 . S
C1010 C1013 1.387 . S
H1011 C1007 0.950 . S
H1012 C1009 0.950 . S
C1013 C1004 1.390 . S
C1013 H1006 0.950 . S
C1013 C1010 1.387 . S
C1014 C1015 1.387 . S
C1014 H1018 0.950 . S
C1014 C1023 1.390 . S
C1015 C1014 1.387 . S
C1015 C1017 1.387 . S
H1016 C1023 0.950 . S
C1017 C1015 1.387 . S
C1017 C1019 1.390 . S
C1017 H1021 0.950 . S
H1018 C1014 0.950 . S
C1019 C1017 1.390 . S
C1019 C1020 1.387 . S
C1019 H1022 0.950 . S
C1020 C1019 1.387 . S
C1020 C1023 1.387 . S
H1021 C1017 0.950 . S
H1022 C1019 0.950 . S
C1023 C1014 1.390 . S
C1023 H1016 0.950 . S
C1023 C1020 1.387 . S
C1024 C1025 1.387 . S
C1024 H1028 0.950 . S
C1024 C1033 1.390 . S
C1025 C1024 1.387 . S
C1025 C1027 1.387 . S
H1026 C1033 0.950 . S
C1027 C1025 1.387 . S
C1027 C1029 1.390 . S
C1027 H1031 0.950 . S
H1028 C1024 0.950 . S
C1029 C1027 1.390 . S
C1029 C1030 1.387 . S
C1029 H1032 0.950 . S
C1030 C1029 1.387 . S
C1030 C1033 1.387 . S
H1031 C1027 0.950 . S
H1032 C1029 0.950 . S
C1033 C1024 1.390 . S
C1033 H1026 0.950 . S
C1033 C1030 1.387 . S
C1034 C1035 1.387 . S
C1034 H1038 0.950 . S
C1034 C1043 1.390 . S
C1035 C1034 1.387 . S
C1035 C1037 1.387 . S
H1036 C1043 0.950 . S
C1037 C1035 1.387 . S
C1037 C1039 1.390 . S
C1037 H1041 0.950 . S
H1038 C1034 0.950 . S
C1039 C1037 1.390 . S
C1039 C1040 1.387 . S
C1039 H1042 0.950 . S
C1040 C1039 1.387 . S
C1040 C1043 1.387 . S
H1041 C1037 0.950 . S
H1042 C1039 0.950 . S
C1043 C1034 1.390 . S
C1043 H1036 0.950 . S
C1043 C1040 1.387 . S
C1044 C1045 1.387 . S
C1044 H1048 0.950 . S
C1044 C1053 1.390 . S
C1045 C1044 1.387 . S
C1045 C1047 1.387 . S
H1046 C1053 0.950 . S
C1047 C1045 1.387 . S
C1047 C1049 1.390 . S
C1047 H1051 0.950 . S
H1048 C1044 0.950 . S
C1049 C1047 1.390 . S
C1049 C1050 1.387 . S
C1049 H1052 0.950 . S
C1050 C1049 1.387 . S
C1050 C1053 1.387 . S
H1051 C1047 0.950 . S
H1052 C1049 0.950 . S
C1053 C1044 1.390 . S
C1053 H1046 0.950 . S
C1053 C1050 1.387 . S
C1054 C1055 1.387 . S
C1054 H1058 0.950 . S
C1054 C1063 1.390 . S
C1055 C1054 1.387 . S
C1055 C1057 1.387 . S
H1056 C1063 0.950 . S
C1057 C1055 1.387 . S
C1057 C1059 1.390 . S
C1057 H1061 0.950 . S
H1058 C1054 0.950 . S
C1059 C1057 1.390 . S
C1059 C1060 1.387 . S
C1059 H1062 0.950 . S
C1060 C1059 1.387 . S
C1060 C1063 1.387 . S
H1061 C1057 0.950 . S
H1062 C1059 0.950 . S
C1063 C1054 1.390 . S
C1063 H1056 0.950 . S
C1063 C1060 1.387 . S
C1064 C1065 1.387 . S
C1064 H1068 0.950 . S
C1064 C1073 1.390 . S
C1065 C1064 1.387 . S
C1065 C1067 1.387 . S
H1066 C1073 0.950 . S
C1067 C1065 1.387 . S
C1067 C1069 1.390 . S
C1067 H1071 0.950 . S
H1068 C1064 0.950 . S
C1069 C1067 1.390 . S
C1069 C1070 1.387 . S
C1069 H1072 0.950 . S
C1070 C1069 1.387 . S
C1070 C1073 1.387 . S
H1071 C1067 0.950 . S
H1072 C1069 0.950 . S
C1073 C1064 1.390 . S
C1073 H1066 0.950 . S
C1073 C1070 1.387 . S
C1074 C1075 1.387 . S
C1074 H1078 0.950 . S
C1074 C1083 1.390 . S
C1075 C1074 1.387 . S
C1075 C1077 1.387 . S
H1076 C1083 0.950 . S
C1077 C1075 1.387 . S
C1077 C1079 1.390 . S
C1077 H1081 0.950 . S
H1078 C1074 0.950 . S
C1079 C1077 1.390 . S
C1079 C1080 1.387 . S
C1079 H1082 0.950 . S
C1080 C1079 1.387 . S
C1080 C1083 1.387 . S
H1081 C1077 0.950 . S
H1082 C1079 0.950 . S
C1083 C1074 1.390 . S
C1083 H1076 0.950 . S
C1083 C1080 1.387 . S
C1084 C1085 1.387 . S
C1084 H1088 0.950 . S
C1084 C1093 1.390 . S
C1085 C1084 1.387 . S
C1085 C1087 1.387 . S
H1086 C1093 0.950 . S
C1087 C1085 1.387 . S
C1087 C1089 1.390 . S
C1087 H1091 0.950 . S
H1088 C1084 0.950 . S
C1089 C1087 1.390 . S
C1089 C1090 1.387 . S
C1089 H1092 0.950 . S
C1090 C1089 1.387 . S
C1090 C1093 1.387 . S
H1091 C1087 0.950 . S
H1092 C1089 0.950 . S
C1093 C1084 1.390 . S
C1093 H1086 0.950 . S
C1093 C1090 1.387 . S
C1094 C1095 1.387 . S
C1094 H1098 0.950 . S
C1094 C1103 1.390 . S
C1095 C1094 1.387 . S
C1095 C1097 1.387 . S
H1096 C1103 0.950 . S
C1097 C1095 1.387 . S
C1097 C1099 1.390 . S
C1097 H1101 0.950 . S
H1098 C1094 0.950 . S
C1099 C1097 1.390 . S
C1099 C1100 1.387 . S
C1099 H1102 0.950 . S
C1100 C1099 1.387 . S
C1100 C1103 1.387 . S
H1101 C1097 0.950 . S
H1102 C1099 0.950 . S
C1103 C1094 1.390 . S
C1103 H1096 0.950 . S
C1103 C1100 1.387 . S
C1104 C1105 1.387 . S
C1104 H1108 0.950 . S
C1104 C1113 1.390 . S
C1105 C1104 1.387 . S
C1105 C1107 1.387 . S
H1106 C1113 0.950 . S
C1107 C1105 1.387 . S
C1107 C1109 1.390 . S
C1107 H1111 0.950 . S
H1108 C1104 0.950 . S
C1109 C1107 1.390 . S
C1109 C1110 1.387 . S
C1109 H1112 0.950 . S
C1110 C1109 1.387 . S
C1110 C1113 1.387 . S
H1111 C1107 0.950 . S
H1112 C1109 0.950 . S
C1113 C1104 1.390 . S
C1113 H1106 0.950 . S
C1113 C1110 1.387 . S
C1114 C1115 1.387 . S
C1114 H1118 0.950 . S
C1114 C1123 1.390 . S
C1115 C1114 1.387 . S
C1115 C1117 1.387 . S
H1116 C1123 0.950 . S
C1117 C1115 1.387 . S
C1117 C1119 1.390 . S
C1117 H1121 0.950 . S
H1118 C1114 0.950 . S
C1119 C1117 1.390 . S
C1119 C1120 1.387 . S
C1119 H1122 0.950 . S
C1120 C1119 1.387 . S
C1120 C1123 1.387 . S
H1121 C1117 0.950 . S
H1122 C1119 0.950 . S
C1123 C1114 1.390 . S
C1123 H1116 0.950 . S
C1123 C1120 1.387 . S
C1124 C1125 1.387 . S
C1124 H1128 0.950 . S
C1124 C1133 1.390 . S
C1125 C1124 1.387 . S
C1125 C1127 1.387 . S
H1126 C1133 0.950 . S
C1127 C1125 1.387 . S
C1127 C1129 1.390 . S
C1127 H1131 0.950 . S
H1128 C1124 0.950 . S
C1129 C1127 1.390 . S
C1129 C1130 1.387 . S
C1129 H1132 0.950 . S
C1130 C1129 1.387 . S
C1130 C1133 1.387 . S
H1131 C1127 0.950 . S
H1132 C1129 0.950 . S
C1133 C1124 1.390 . S
C1133 H1126 0.950 . S
C1133 C1130 1.387 . S
C1134 C1135 1.387 . S
C1134 H1138 0.950 . S
C1134 C1143 1.390 . S
C1135 C1134 1.387 . S
C1135 C1137 1.387 . S
H1136 C1143 0.950 . S
C1137 C1135 1.387 . S
C1137 C1139 1.390 . S
C1137 H1141 0.950 . S
H1138 C1134 0.950 . S
C1139 C1137 1.390 . S
C1139 C1140 1.387 . S
C1139 H1142 0.950 . S
C1140 C1139 1.387 . S
C1140 C1143 1.387 . S
H1141 C1137 0.950 . S
H1142 C1139 0.950 . S
C1143 C1134 1.390 . S
C1143 H1136 0.950 . S
C1143 C1140 1.387 . S
C1144 C1145 1.387 . S
C1144 H1148 0.950 . S
C1144 C1153 1.390 . S
C1145 C1144 1.387 . S
C1145 C1147 1.387 . S
H1146 C1153 0.950 . S
C1147 C1145 1.387 . S
C1147 C1149 1.390 . S
C1147 H1151 0.950 . S
H1148 C1144 0.950 . S
C1149 C1147 1.390 . S
C1149 C1150 1.387 . S
C1149 H1152 0.950 . S
C1150 C1149 1.387 . S
C1150 C1153 1.387 . S
H1151 C1147 0.950 . S
H1152 C1149 0.950 . S
C1153 C1144 1.390 . S
C1153 H1146 0.950 . S
C1153 C1150 1.387 . S
C1154 C1155 1.387 . S
C1154 H1158 0.950 . S
C1154 C1163 1.390 . S
C1155 C1154 1.387 . S
C1155 C1157 1.387 . S
H1156 C1163 0.950 . S
C1157 C1155 1.387 . S
C1157 C1159 1.390 . S
C1157 H1161 0.950 . S
H1158 C1154 0.950 . S
C1159 C1157 1.390 . S
C1159 C1160 1.387 . S
C1159 H1162 0.950 . S
C1160 C1159 1.387 . S
C1160 C1163 1.387 . S
H1161 C1157 0.950 . S
H1162 C1159 0.950 . S
C1163 C1154 1.390 . S
C1163 H1156 0.950 . S
C1163 C1160 1.387 . S
C1164 C1165 1.387 . S
C1164 H1168 0.950 . S
C1164 C1173 1.390 1_455 S
C1165 C1164 1.387 . S
C1165 C1167 1.387 . S
H1166 C1173 0.950 . S
C1167 C1165 1.387 . S
C1167 C1169 1.390 1_455 S
C1167 H1171 0.950 . S
H1168 C1164 0.950 . S
C1169 C1167 1.390 1_655 S
C1169 C1170 1.387 . S
C1169 H1172 0.950 . S
C1170 C1169 1.387 . S
C1170 C1173 1.387 . S
H1171 C1167 0.950 . S
H1172 C1169 0.950 . S
C1173 C1164 1.390 1_655 S
C1173 H1166 0.950 . S
C1173 C1170 1.387 . S
C1174 C1175 1.387 . S
C1174 H1178 0.950 . S
C1174 C1183 1.390 . S
C1175 C1174 1.387 . S
C1175 C1177 1.387 . S
H1176 C1183 0.950 . S
C1177 C1175 1.387 . S
C1177 C1179 1.390 . S
C1177 H1181 0.950 . S
H1178 C1174 0.950 . S
C1179 C1177 1.390 . S
C1179 C1180 1.387 . S
C1179 H1182 0.950 . S
C1180 C1179 1.387 . S
C1180 C1183 1.387 . S
H1181 C1177 0.950 . S
H1182 C1179 0.950 . S
C1183 C1174 1.390 . S
C1183 H1176 0.950 . S
C1183 C1180 1.387 . S
C1184 C1185 1.387 . S
C1184 H1188 0.950 . S
C1184 C1193 1.390 1_545 S
C1185 C1184 1.387 . S
C1185 C1187 1.387 . S
H1186 C1193 0.950 . S
C1187 C1185 1.387 . S
C1187 C1189 1.390 1_545 S
C1187 H1191 0.950 . S
H1188 C1184 0.950 . S
C1189 C1187 1.390 1_565 S
C1189 C1190 1.387 . S
C1189 H1192 0.950 . S
C1190 C1189 1.387 . S
C1190 C1193 1.387 . S
H1191 C1187 0.950 . S
H1192 C1189 0.950 . S
C1193 C1184 1.390 1_565 S
C1193 H1186 0.950 . S
C1193 C1190 1.387 . S
C1194 C1195 1.387 1_554 S
C1194 H1198 0.950 . S
C1194 C1203 1.390 1_545 S
C1195 C1194 1.387 1_556 S
C1195 C1197 1.387 . S
H1196 C1203 0.950 . S
C1197 C1195 1.387 . S
C1197 C1199 1.390 1_545 S
C1197 H1201 0.950 . S
H1198 C1194 0.950 . S
C1199 C1197 1.390 1_565 S
C1199 C1200 1.387 1_556 S
C1199 H1202 0.950 . S
C1200 C1199 1.387 1_554 S
C1200 C1203 1.387 . S
H1201 C1197 0.950 . S
H1202 C1199 0.950 . S
C1203 C1194 1.390 1_565 S
C1203 H1196 0.950 . S
C1203 C1200 1.387 . S
C1204 C1205 1.387 . S
C1204 H1208 0.950 . S
C1204 C1213 1.390 1_655 S
C1205 C1204 1.387 . S
C1205 C1207 1.387 1_556 S
H1206 C1213 0.950 . S
C1207 C1205 1.387 1_554 S
C1207 C1209 1.390 1_655 S
C1207 H1211 0.950 . S
H1208 C1204 0.950 . S
C1209 C1207 1.390 1_455 S
C1209 C1210 1.387 . S
C1209 H1212 0.950 . S
C1210 C1209 1.387 . S
C1210 C1213 1.387 1_554 S
H1211 C1207 0.950 . S
H1212 C1209 0.950 . S
C1213 C1204 1.390 1_455 S
C1213 H1206 0.950 . S
C1213 C1210 1.387 1_556 S
C1214 C1215 1.387 . S
C1214 H1218 0.950 . S
C1214 C1223 1.390 1_556 S
C1215 C1214 1.387 . S
C1215 C1217 1.387 . S
H1216 C1223 0.950 . S
C1217 C1215 1.387 . S
C1217 C1219 1.390 1_556 S
C1217 H1221 0.950 . S
H1218 C1214 0.950 . S
C1219 C1217 1.390 1_554 S
C1219 C1220 1.387 . S
C1219 H1222 0.950 . S
C1220 C1219 1.387 . S
C1220 C1223 1.387 . S
H1221 C1217 0.950 . S
H1222 C1219 0.950 . S
C1223 C1214 1.390 1_554 S
C1223 H1216 0.950 . S
C1223 C1220 1.387 . S
C505 C0 1.375 . S
C510 C103 1.369 1_545 S
C515 C14 1.376 . S
C520 C117 1.368 1_655 S
C525 C89 1.368 . S
C530 C28 1.376 . S
C535 C159 1.369 1_455 S
C540 C42 1.375 . S
C545 C56 1.375 . S
C550 C131 1.368 . S
C555 C70 1.376 . S
C560 C145 1.369 1_565 S
C565 C19 1.369 1_565 S
C570 C84 1.375 . S
C575 C33 1.369 1_455 S
C580 C98 1.375 . S
C585 C112 1.376 . S
C590 C5 1.368 . S
C595 C126 1.375 . S
C600 C75 1.369 1_655 S
C605 C47 1.368 . S
C610 C140 1.375 . S
C615 C154 1.375 . S
C620 C61 1.369 1_545 S
C625 C271 1.369 . S
C630 C168 1.375 . S
C635 C182 1.376 . S
C640 C285 1.368 . S
C645 C196 1.376 . S
C650 C257 1.368 . S
C655 C327 1.370 . S
C660 C210 1.375 . S
C665 C224 1.375 . S
C670 C299 1.369 . S
C675 C313 1.370 . S
C680 C238 1.375 . S
C685 C187 1.370 . S
C690 C252 1.375 . S
C695 C266 1.375 . S
C700 C201 1.368 . S
C705 C173 1.368 . S
C710 C280 1.376 . S
C715 C294 1.375 . S
C720 C243 1.370 . S
C725 C308 1.375 . S
C730 C215 1.368 . S
C735 C322 1.375 . S
C740 C229 1.368 . S
C745 C439 1.369 . S
C750 C336 1.376 . S
C755 C453 1.368 . S
C760 C350 1.375 . S
C765 C425 1.369 . S
C770 C364 1.375 . S
C775 C378 1.376 . S
C780 C495 1.368 . S
C785 C392 1.376 . S
C790 C467 1.368 . S
C795 C481 1.368 . S
C800 C406 1.376 . S
C805 C420 1.376 . S
C810 C355 1.368 . S
C815 C369 1.368 . S
C820 C434 1.375 . S
C825 C341 1.368 . S
C830 C448 1.376 . S
C835 C462 1.375 . S
C840 C411 1.369 . S
C845 C476 1.375 . S
C850 C383 1.369 . S
C855 C490 1.375 . S
C860 C397 1.369 . S
C865 C51 1.410 . S
C870 C9 1.411 . S
C875 C65 1.411 . S
C880 C23 1.411 . S
C885 C37 1.410 . S
C890 C79 1.410 . S
C895 C135 1.412 . S
C900 C93 1.411 . S
C905 C149 1.411 . S
C910 C107 1.411 . S
C915 C163 1.411 . S
C920 C121 1.410 . S
C925 C219 1.412 . S
C930 C177 1.410 . S
C935 C233 1.411 . S
C940 C191 1.411 . S
C945 C205 1.411 . S
C950 C247 1.411 . S
C955 C303 1.411 . S
C960 C261 1.411 . S
C965 C317 1.410 . S
C970 C275 1.410 . S
C975 C331 1.411 . S
C980 C289 1.410 . S
C985 C387 1.410 . S
C990 C345 1.410 . S
C995 C359 1.410 . S
C1000 C401 1.410 . S
C1005 C415 1.410 . S
C1010 C373 1.410 . S
C1015 C429 1.411 . S
C1020 C471 1.412 . S
C1025 C443 1.411 . S
C1030 C485 1.411 . S
C1035 C457 1.410 . S
C1040 C499 1.411 . S
C1045 C11 1.471 . S
C1050 C263 1.471 . S
C1055 C277 1.471 . S
C1060 C25 1.471 . S
C1065 C291 1.472 . S
C1070 C39 1.472 . S
C1075 C473 1.471 . S
C1080 C53 1.471 . S
C1085 C487 1.472 . S
C1090 C67 1.472 . S
C1095 C501 1.470 . S
C1100 C81 1.470 . S
C1105 C95 1.470 . S
C1110 C347 1.470 . S
C1115 C361 1.472 . S
C1120 C109 1.472 . S
C1125 C375 1.472 . S
C1130 C123 1.472 . S
C1135 C137 1.471 . S
C1140 C221 1.471 . S
C1145 C151 1.471 . S
C1150 C235 1.471 . S
C1155 C165 1.472 . S
C1160 C249 1.472 . S
C1165 C431 1.471 . S
C1170 C179 1.471 . S
C1175 C445 1.471 . S
C1180 C193 1.471 . S
C1185 C207 1.471 . S
C1190 C459 1.471 . S
C1195 C305 1.471 . S
C1200 C389 1.471 . S
C1205 C319 1.472 . S
C1210 C403 1.472 . S
C1215 C333 1.470 . S
C1220 C417 1.470 . S
