# Generated by pormake.
# Topology uoa, (4)-cn, num edge types: 1
# Building blocks:
#     Node 0, Type 0, BuildingBlock: CEKHIL_clean_sbu_0, # of connection points: 4
#     Node 1, Type 0, BuildingBlock: CEKHIL_clean_sbu_0, # of connection points: 4
#     Node 2, Type 0, BuildingBlock: CEKHIL_clean_sbu_0, # of connection points: 4
#     Node 3, Type 0, BuildingBlock: CEKHIL_clean_sbu_0, # of connection points: 4
#     Node 4, Type 0, BuildingBlock: CEKHIL_clean_sbu_0, # of connection points: 4
#     Node 5, Type 0, BuildingBlock: CEKHIL_clean_sbu_0, # of connection points: 4
#     Node 6, Type 0, BuildingBlock: CEKHIL_clean_sbu_0, # of connection points: 4
#     Node 7, Type 0, BuildingBlock: CEKHIL_clean_sbu_0, # of connection points: 4
#     Node 8, Type 0, BuildingBlock: CEKHIL_clean_sbu_0, # of connection points: 4
#     Node 9, Type 0, BuildingBlock: CEKHIL_clean_sbu_0, # of connection points: 4
#     Node 10, Type 0, BuildingBlock: CEKHIL_clean_sbu_0, # of connection points: 4
#     Node 11, Type 0, BuildingBlock: CEKHIL_clean_sbu_0, # of connection points: 4
#     Node 12, Type 0, BuildingBlock: CEKHIL_clean_sbu_0, # of connection points: 4
#     Node 13, Type 0, BuildingBlock: CEKHIL_clean_sbu_0, # of connection points: 4
#     Node 14, Type 0, BuildingBlock: CEKHIL_clean_sbu_0, # of connection points: 4
#     Node 15, Type 0, BuildingBlock: CEKHIL_clean_sbu_0, # of connection points: 4
#     Node 16, Type 0, BuildingBlock: CEKHIL_clean_sbu_0, # of connection points: 4
#     Node 17, Type 0, BuildingBlock: CEKHIL_clean_sbu_0, # of connection points: 4
#     Node 18, Type 0, BuildingBlock: CEKHIL_clean_sbu_0, # of connection points: 4
#     Node 19, Type 0, BuildingBlock: CEKHIL_clean_sbu_0, # of connection points: 4
#     Node 20, Type 0, BuildingBlock: CEKHIL_clean_sbu_0, # of connection points: 4
#     Node 21, Type 0, BuildingBlock: CEKHIL_clean_sbu_0, # of connection points: 4
#     Node 22, Type 0, BuildingBlock: CEKHIL_clean_sbu_0, # of connection points: 4
#     Node 23, Type 0, BuildingBlock: CEKHIL_clean_sbu_0, # of connection points: 4
#     Node 24, Type 0, BuildingBlock: CEKHIL_clean_sbu_0, # of connection points: 4
#     Node 25, Type 0, BuildingBlock: CEKHIL_clean_sbu_0, # of connection points: 4
#     Node 26, Type 0, BuildingBlock: CEKHIL_clean_sbu_0, # of connection points: 4
#     Node 27, Type 0, BuildingBlock: CEKHIL_clean_sbu_0, # of connection points: 4
#     Node 28, Type 0, BuildingBlock: CEKHIL_clean_sbu_0, # of connection points: 4
#     Node 29, Type 0, BuildingBlock: CEKHIL_clean_sbu_0, # of connection points: 4
#     Node 30, Type 0, BuildingBlock: CEKHIL_clean_sbu_0, # of connection points: 4
#     Node 31, Type 0, BuildingBlock: CEKHIL_clean_sbu_0, # of connection points: 4
#     Edge 32, Type (0, 0), BuildingBlock: EZIPEK_clean_linker_0, # of connection points: 2
#     Edge 33, Type (0, 0), BuildingBlock: EZIPEK_clean_linker_0, # of connection points: 2
#     Edge 34, Type (0, 0), BuildingBlock: EZIPEK_clean_linker_0, # of connection points: 2
#     Edge 35, Type (0, 0), BuildingBlock: EZIPEK_clean_linker_0, # of connection points: 2
#     Edge 36, Type (0, 0), BuildingBlock: EZIPEK_clean_linker_0, # of connection points: 2
#     Edge 37, Type (0, 0), BuildingBlock: EZIPEK_clean_linker_0, # of connection points: 2
#     Edge 38, Type (0, 0), BuildingBlock: EZIPEK_clean_linker_0, # of connection points: 2
#     Edge 39, Type (0, 0), BuildingBlock: EZIPEK_clean_linker_0, # of connection points: 2
#     Edge 40, Type (0, 0), BuildingBlock: EZIPEK_clean_linker_0, # of connection points: 2
#     Edge 41, Type (0, 0), BuildingBlock: EZIPEK_clean_linker_0, # of connection points: 2
#     Edge 42, Type (0, 0), BuildingBlock: EZIPEK_clean_linker_0, # of connection points: 2
#     Edge 43, Type (0, 0), BuildingBlock: EZIPEK_clean_linker_0, # of connection points: 2
#     Edge 44, Type (0, 0), BuildingBlock: EZIPEK_clean_linker_0, # of connection points: 2
#     Edge 45, Type (0, 0), BuildingBlock: EZIPEK_clean_linker_0, # of connection points: 2
#     Edge 46, Type (0, 0), BuildingBlock: EZIPEK_clean_linker_0, # of connection points: 2
#     Edge 47, Type (0, 0), BuildingBlock: EZIPEK_clean_linker_0, # of connection points: 2
#     Edge 48, Type (0, 0), BuildingBlock: EZIPEK_clean_linker_0, # of connection points: 2
#     Edge 49, Type (0, 0), BuildingBlock: EZIPEK_clean_linker_0, # of connection points: 2
#     Edge 50, Type (0, 0), BuildingBlock: EZIPEK_clean_linker_0, # of connection points: 2
#     Edge 51, Type (0, 0), BuildingBlock: EZIPEK_clean_linker_0, # of connection points: 2
#     Edge 52, Type (0, 0), BuildingBlock: EZIPEK_clean_linker_0, # of connection points: 2
#     Edge 53, Type (0, 0), BuildingBlock: EZIPEK_clean_linker_0, # of connection points: 2
#     Edge 54, Type (0, 0), BuildingBlock: EZIPEK_clean_linker_0, # of connection points: 2
#     Edge 55, Type (0, 0), BuildingBlock: EZIPEK_clean_linker_0, # of connection points: 2
#     Edge 56, Type (0, 0), BuildingBlock: EZIPEK_clean_linker_0, # of connection points: 2
#     Edge 57, Type (0, 0), BuildingBlock: EZIPEK_clean_linker_0, # of connection points: 2
#     Edge 58, Type (0, 0), BuildingBlock: EZIPEK_clean_linker_0, # of connection points: 2
#     Edge 59, Type (0, 0), BuildingBlock: EZIPEK_clean_linker_0, # of connection points: 2
#     Edge 60, Type (0, 0), BuildingBlock: EZIPEK_clean_linker_0, # of connection points: 2
#     Edge 61, Type (0, 0), BuildingBlock: EZIPEK_clean_linker_0, # of connection points: 2
#     Edge 62, Type (0, 0), BuildingBlock: EZIPEK_clean_linker_0, # of connection points: 2
#     Edge 63, Type (0, 0), BuildingBlock: EZIPEK_clean_linker_0, # of connection points: 2
#     Edge 64, Type (0, 0), BuildingBlock: EZIPEK_clean_linker_0, # of connection points: 2
#     Edge 65, Type (0, 0), BuildingBlock: EZIPEK_clean_linker_0, # of connection points: 2
#     Edge 66, Type (0, 0), BuildingBlock: EZIPEK_clean_linker_0, # of connection points: 2
#     Edge 67, Type (0, 0), BuildingBlock: EZIPEK_clean_linker_0, # of connection points: 2
#     Edge 68, Type (0, 0), BuildingBlock: EZIPEK_clean_linker_0, # of connection points: 2
#     Edge 69, Type (0, 0), BuildingBlock: EZIPEK_clean_linker_0, # of connection points: 2
#     Edge 70, Type (0, 0), BuildingBlock: EZIPEK_clean_linker_0, # of connection points: 2
#     Edge 71, Type (0, 0), BuildingBlock: EZIPEK_clean_linker_0, # of connection points: 2
#     Edge 72, Type (0, 0), BuildingBlock: EZIPEK_clean_linker_0, # of connection points: 2
#     Edge 73, Type (0, 0), BuildingBlock: EZIPEK_clean_linker_0, # of connection points: 2
#     Edge 74, Type (0, 0), BuildingBlock: EZIPEK_clean_linker_0, # of connection points: 2
#     Edge 75, Type (0, 0), BuildingBlock: EZIPEK_clean_linker_0, # of connection points: 2
#     Edge 76, Type (0, 0), BuildingBlock: EZIPEK_clean_linker_0, # of connection points: 2
#     Edge 77, Type (0, 0), BuildingBlock: EZIPEK_clean_linker_0, # of connection points: 2
#     Edge 78, Type (0, 0), BuildingBlock: EZIPEK_clean_linker_0, # of connection points: 2
#     Edge 79, Type (0, 0), BuildingBlock: EZIPEK_clean_linker_0, # of connection points: 2
#     Edge 80, Type (0, 0), BuildingBlock: EZIPEK_clean_linker_0, # of connection points: 2
#     Edge 81, Type (0, 0), BuildingBlock: EZIPEK_clean_linker_0, # of connection points: 2
#     Edge 82, Type (0, 0), BuildingBlock: EZIPEK_clean_linker_0, # of connection points: 2
#     Edge 83, Type (0, 0), BuildingBlock: EZIPEK_clean_linker_0, # of connection points: 2
#     Edge 84, Type (0, 0), BuildingBlock: EZIPEK_clean_linker_0, # of connection points: 2
#     Edge 85, Type (0, 0), BuildingBlock: EZIPEK_clean_linker_0, # of connection points: 2
#     Edge 86, Type (0, 0), BuildingBlock: EZIPEK_clean_linker_0, # of connection points: 2
#     Edge 87, Type (0, 0), BuildingBlock: EZIPEK_clean_linker_0, # of connection points: 2
#     Edge 88, Type (0, 0), BuildingBlock: EZIPEK_clean_linker_0, # of connection points: 2
#     Edge 89, Type (0, 0), BuildingBlock: EZIPEK_clean_linker_0, # of connection points: 2
#     Edge 90, Type (0, 0), BuildingBlock: EZIPEK_clean_linker_0, # of connection points: 2
#     Edge 91, Type (0, 0), BuildingBlock: EZIPEK_clean_linker_0, # of connection points: 2
#     Edge 92, Type (0, 0), BuildingBlock: EZIPEK_clean_linker_0, # of connection points: 2
#     Edge 93, Type (0, 0), BuildingBlock: EZIPEK_clean_linker_0, # of connection points: 2
#     Edge 94, Type (0, 0), BuildingBlock: EZIPEK_clean_linker_0, # of connection points: 2
#     Edge 95, Type (0, 0), BuildingBlock: EZIPEK_clean_linker_0, # of connection points: 2
# Relax obj value: 0.136
# Max RMSD: 0.207
# Mean RMSD: 0.207
data_MOF--net-uoa--node1-CEKHIL_clean_sbu_0--edge1-EZIPEK_clean_linker_0
_symmetry_space_group_name_H-M    P1
_symmetry_Int_Tables_number       1
_symmetry_cell_setting            triclinic
loop_
_symmetry_equiv_pos_as_xyz
'x, y, z'
_cell_length_a     55.984103
_cell_length_b     55.906065
_cell_length_c     19.511895
_cell_angle_alpha  90.049214
_cell_angle_beta   89.992274
_cell_angle_gamma 89.967496
loop_
_atom_site_label
_atom_site_type_symbol
_atom_site_fract_x
_atom_site_fract_y
_atom_site_fract_z
_atom_type_partial_charge
Co0 Co 0.03551 0.10677 0.04484 0.0
O1 O 0.05088 0.13721 0.05868 0.0
O2 O 0.06932 0.10217 0.06333 0.0
C3 C 0.01505 0.11818 0.952 0.0
O4 O 0.02556 0.07151 0.03065 0.0
Co5 Co 0.98063 0.10126 0.05354 0.0
O6 O 0.98562 0.06852 0.01902 0.0
C7 C 0.00892 0.10637 0.17934 0.0
C8 C 0.0705 0.12537 0.06835 0.0
C9 C 0.00636 0.0593 0.01852 0.0
O10 O 0.02838 0.1051 0.14503 0.0
O11 O 0.98819 0.10696 0.152 0.0
O12 O 0.03714 0.11121 0.9469 0.0
O13 O 0.0064 0.11954 0.01317 0.0
Co14 Co 0.16486 0.78681 0.26695 0.0
O15 O 0.13394 0.80478 0.26718 0.0
O16 O 0.16463 0.81524 0.32795 0.0
C17 C 0.13837 0.77095 0.18308 0.0
O18 O 0.1988 0.77604 0.28525 0.0
Co19 Co 0.16468 0.73225 0.24435 0.0
O20 O 0.19964 0.73911 0.23791 0.0
C21 C 0.15044 0.74747 0.37551 0.0
C22 C 0.14282 0.81954 0.31178 0.0
C23 C 0.21004 0.75738 0.26341 0.0
O24 O 0.15269 0.76844 0.34969 0.0
O25 O 0.154 0.72862 0.34056 0.0
O26 O 0.13212 0.78843 0.22335 0.0
O27 O 0.15885 0.76263 0.19815 0.0
Co28 Co 0.46312 0.90995 0.53572 0.0
O29 O 0.44662 0.88 0.54598 0.0
O30 O 0.43481 0.91427 0.59205 0.0
C31 C 0.46897 0.90644 0.42148 0.0
O32 O 0.47552 0.94446 0.53504 0.0
Co33 Co 0.51588 0.90982 0.48811 0.0
O34 O 0.51186 0.94518 0.48578 0.0
C35 C 0.50454 0.89728 0.63025 0.0
C36 C 0.43124 0.89146 0.58317 0.0
C37 C 0.49398 0.95583 0.5126 0.0
O38 O 0.48271 0.90343 0.62013 0.0
O39 O 0.51993 0.89547 0.58202 0.0
O40 O 0.44883 0.91451 0.44504 0.0
O41 O 0.48395 0.8989 0.46693 0.0
Co42 Co 0.35677 0.22056 0.74129 0.0
O43 O 0.3864 0.20418 0.75864 0.0
O44 O 0.3511 0.19222 0.79675 0.0
C45 C 0.36249 0.22648 0.62818 0.0
O46 O 0.32253 0.2332 0.73139 0.0
Co47 Co 0.35917 0.2739 0.69511 0.0
O48 O 0.32383 0.27142 0.69383 0.0
C49 C 0.36554 0.26206 0.84031 0.0
C50 C 0.37408 0.18875 0.79323 0.0
C51 C 0.3123 0.25295 0.71312 0.0
O52 O 0.36065 0.2401 0.82718 0.0
O53 O 0.36817 0.27809 0.79412 0.0
O54 O 0.35485 0.206 0.65058 0.0
O55 O 0.36911 0.24146 0.675 0.0
Co56 Co 0.03829 0.89634 0.47983 0.0
O57 O 0.05405 0.86713 0.45372 0.0
O58 O 0.06848 0.90346 0.43498 0.0
C59 C 0.02875 0.88427 0.58705 0.0
O60 O 0.02709 0.93041 0.502 0.0
Co61 Co 0.98421 0.89558 0.51309 0.0
O62 O 0.98909 0.92926 0.54049 0.0
C63 C 0.99958 0.89383 0.37058 0.0
C64 C 0.07108 0.88039 0.42976 0.0
C65 C 0.0082 0.94055 0.52659 0.0
O66 O 0.02123 0.89781 0.38917 0.0
O67 O 0.98251 0.88969 0.41234 0.0
O68 O 0.04983 0.89271 0.57331 0.0
O69 O 0.01494 0.88157 0.53454 0.0
Co70 Co 0.34555 0.79211 0.7393 0.0
O71 O 0.37617 0.80641 0.72085 0.0
O72 O 0.34133 0.82321 0.69658 0.0
C73 C 0.35573 0.78051 0.84653 0.0
O74 O 0.31017 0.78324 0.75286 0.0
Co75 Co 0.34045 0.73828 0.76951 0.0
O76 O 0.30634 0.74487 0.78604 0.0
C77 C 0.35086 0.75437 0.63002 0.0
C78 C 0.36455 0.82444 0.69585 0.0
C79 C 0.29738 0.76513 0.77137 0.0
O80 O 0.34608 0.77606 0.64706 0.0
O81 O 0.35179 0.73703 0.67252 0.0
O82 O 0.34783 0.80202 0.8349 0.0
O83 O 0.35784 0.76713 0.79304 0.0
Co84 Co 0.46798 0.10243 0.97537 0.0
O85 O 0.45313 0.13303 0.95992 0.0
O86 O 0.43982 0.09869 0.91806 0.0
C87 C 0.47328 0.10767 0.08945 0.0
O88 O 0.4786 0.06731 0.98174 0.0
Co89 Co 0.52037 0.10021 0.02634 0.0
O90 O 0.51346 0.06558 0.0389 0.0
C91 C 0.5106 0.11112 0.8815 0.0
C92 C 0.43739 0.12179 0.92346 0.0
C93 C 0.49567 0.05538 0.0103 0.0
O94 O 0.48838 0.10655 0.89133 0.0
O95 O 0.52592 0.11227 0.93015 0.0
O96 O 0.45288 0.1004 0.06551 0.0
O97 O 0.48899 0.11335 0.04376 0.0
Co98 Co 0.15971 0.22309 0.20796 0.0
O99 O 0.12949 0.20782 0.1913 0.0
O100 O 0.16432 0.19428 0.15357 0.0
C101 C 0.1543 0.2296 0.32103 0.0
O102 O 0.1944 0.23429 0.21729 0.0
Co103 Co 0.1596 0.27661 0.25369 0.0
O104 O 0.19482 0.27267 0.25364 0.0
C105 C 0.15247 0.26476 0.10866 0.0
C106 C 0.14127 0.19162 0.15795 0.0
C107 C 0.2055 0.25364 0.23467 0.0
O108 O 0.15648 0.24259 0.12169 0.0
O109 O 0.15055 0.2809 0.15487 0.0
O110 O 0.16116 0.20878 0.29902 0.0
O111 O 0.14825 0.24469 0.27394 0.0
Co112 Co 0.96727 0.91049 0.97364 0.0
O113 O 0.9501 0.88091 0.96207 0.0
O114 O 0.93803 0.91587 0.92175 0.0
C115 C 0.97498 0.9054 0.08528 0.0
O116 O 0.9803 0.94512 0.97911 0.0
Co117 Co 0.02105 0.90955 0.01225 0.0
O118 O 0.01786 0.94446 0.02126 0.0
C119 C 0.00697 0.89998 0.86993 0.0
C120 C 0.93426 0.89299 0.92834 0.0
C121 C 0.99943 0.95576 0.00106 0.0
O122 O 0.98512 0.90378 0.88673 0.0
O123 O 0.02419 0.90112 0.91282 0.0
O124 O 0.9544 0.91364 0.06549 0.0
O125 O 0.98927 0.89853 0.03699 0.0
Co126 Co 0.85132 0.21397 0.69852 0.0
O127 O 0.87973 0.19601 0.67816 0.0
O128 O 0.8429 0.18333 0.65766 0.0
C129 C 0.86343 0.22457 0.80473 0.0
O130 O 0.81767 0.22783 0.71409 0.0
Co131 Co 0.85426 0.26835 0.72655 0.0
O132 O 0.82046 0.26555 0.75416 0.0
C133 C 0.85642 0.2506 0.58527 0.0
C134 C 0.86581 0.17933 0.65539 0.0
C135 C 0.80818 0.24736 0.73707 0.0
O136 O 0.85229 0.22919 0.60567 0.0
O137 O 0.8596 0.26841 0.62528 0.0
O138 O 0.8532 0.20406 0.79385 0.0
O139 O 0.86715 0.23738 0.75075 0.0
Co140 Co 0.53632 0.10389 0.47663 0.0
O141 O 0.55308 0.13335 0.46028 0.0
O142 O 0.56429 0.09802 0.41993 0.0
C143 C 0.5313 0.10979 0.59055 0.0
O144 O 0.52312 0.06973 0.48447 0.0
Co145 Co 0.48387 0.10526 0.52727 0.0
O146 O 0.49075 0.07143 0.55224 0.0
C147 C 0.49424 0.11245 0.38027 0.0
C148 C 0.56818 0.12093 0.42472 0.0
C149 C 0.50634 0.05948 0.5191 0.0
O150 O 0.51648 0.10865 0.39191 0.0
O151 O 0.47844 0.11372 0.42773 0.0
O152 O 0.55125 0.10137 0.56663 0.0
O153 O 0.51599 0.1164 0.54463 0.0
Co154 Co 0.65835 0.79158 0.22966 0.0
O155 O 0.62689 0.8051 0.21959 0.0
O156 O 0.66002 0.82122 0.17809 0.0
C157 C 0.65415 0.78327 0.34251 0.0
O158 O 0.69402 0.78323 0.23051 0.0
Co159 Co 0.66415 0.73832 0.27053 0.0
O160 O 0.69894 0.74501 0.26434 0.0
C161 C 0.6505 0.75061 0.12996 0.0
C162 C 0.63695 0.82232 0.18588 0.0
C163 C 0.70728 0.76497 0.24386 0.0
O164 O 0.65451 0.77283 0.14235 0.0
O165 O 0.65017 0.73445 0.17635 0.0
O166 O 0.66058 0.80449 0.32266 0.0
O167 O 0.64905 0.76833 0.29429 0.0
Co168 Co 0.96728 0.08957 0.55565 0.0
O169 O 0.95084 0.11978 0.55538 0.0
O170 O 0.93385 0.08499 0.57915 0.0
C171 C 0.98689 0.0954 0.45709 0.0
O172 O 0.97843 0.0545 0.55808 0.0
Co173 Co 0.02236 0.08744 0.56543 0.0
O174 O 0.01866 0.05249 0.55812 0.0
C175 C 0.99408 0.10212 0.68409 0.0
C176 C 0.93188 0.10812 0.57354 0.0
C177 C 0.99823 0.04265 0.55698 0.0
O178 O 0.97503 0.09491 0.65429 0.0
O179 O 0.01455 0.10243 0.65518 0.0
O180 O 0.96502 0.08756 0.45689 0.0
O181 O 0.99559 0.10132 0.51594 0.0
Co182 Co 0.65111 0.21804 0.24888 0.0
O183 O 0.62144 0.20179 0.26587 0.0
O184 O 0.65671 0.18944 0.30324 0.0
C185 C 0.64475 0.22409 0.13572 0.0
O186 O 0.68551 0.23061 0.23978 0.0
Co187 Co 0.6508 0.27101 0.20166 0.0
O188 O 0.6841 0.26351 0.17387 0.0
C189 C 0.64578 0.25963 0.34893 0.0
C190 C 0.63372 0.18609 0.2996 0.0
C191 C 0.69587 0.24745 0.20553 0.0
O192 O 0.64743 0.23725 0.33524 0.0
O193 O 0.64583 0.27607 0.3032 0.0
O194 O 0.65267 0.20371 0.15805 0.0
O195 O 0.63871 0.23926 0.18284 0.0
Co196 Co 0.5341 0.90519 0.03249 0.0
O197 O 0.55002 0.87505 0.0462 0.0
O198 O 0.56335 0.90989 0.0845 0.0
C199 C 0.52681 0.89936 0.91977 0.0
O200 O 0.52236 0.94002 0.02671 0.0
Co201 Co 0.48081 0.90654 0.98884 0.0
O202 O 0.48762 0.94068 0.96892 0.0
C203 C 0.49341 0.899 0.13438 0.0
C204 C 0.56634 0.88687 0.07883 0.0
C205 C 0.50503 0.95143 -0.00242 0.0
O206 O 0.51566 0.90112 0.1199 0.0
O207 O 0.4767 0.89948 0.08954 0.0
O208 O 0.54744 0.90711 0.9406 0.0
O209 O 0.51199 0.89354 0.9678 0.0
Co210 Co 0.84865 0.79409 0.76928 0.0
O211 O 0.87859 0.8106 0.7809 0.0
O212 O 0.84403 0.82316 0.8227 0.0
C213 C 0.85324 0.78686 0.65712 0.0
O214 O 0.81382 0.78177 0.765 0.0
Co215 Co 0.84788 0.74051 0.72692 0.0
O216 O 0.81316 0.74494 0.7175 0.0
C217 C 0.85617 0.75335 0.87136 0.0
C218 C 0.86692 0.82653 0.81561 0.0
C219 C 0.80254 0.76321 0.74163 0.0
O220 O 0.85487 0.77554 0.85506 0.0
O221 O 0.85387 0.73643 0.8277 0.0
O222 O 0.84558 0.80756 0.67815 0.0
O223 O 0.85987 0.77212 0.70449 0.0
Co224 Co 0.54123 0.59988 0.5197 0.0
O225 O 0.55559 0.63024 0.54061 0.0
O226 O 0.57196 0.59509 0.56413 0.0
C227 C 0.53068 0.61037 0.41214 0.0
O228 O 0.53158 0.56483 0.50394 0.0
Co229 Co 0.48714 0.59711 0.4869 0.0
O230 O 0.49271 0.56255 0.47409 0.0
C231 C 0.50287 0.60315 0.62851 0.0
C232 C 0.57334 0.61833 0.56587 0.0
C233 C 0.51269 0.5528 0.4876 0.0
O234 O 0.52465 0.59946 0.61082 0.0
O235 O 0.48563 0.60553 0.58619 0.0
O236 O 0.55205 0.60251 0.42521 0.0
O237 O 0.51697 0.61277 0.46483 0.0
Co238 Co 0.65824 0.2877 0.75179 0.0
O239 O 0.62803 0.30373 0.76227 0.0
O240 O 0.66207 0.31609 0.80816 0.0
C241 C 0.65462 0.28183 0.63763 0.0
O242 O 0.69292 0.27588 0.7511 0.0
Co243 Co 0.65954 0.23498 0.70377 0.0
O244 O 0.69474 0.23987 0.69981 0.0
C245 C 0.64596 0.24607 0.84563 0.0
C246 C 0.63921 0.31927 0.79963 0.0
C247 C 0.70483 0.25786 0.72774 0.0
O248 O 0.65196 0.26799 0.83605 0.0
O249 O 0.64468 0.2307 0.79712 0.0
O250 O 0.66247 0.30208 0.66124 0.0
O251 O 0.64755 0.26663 0.68312 0.0
Co252 Co 0.97193 0.39955 0.01009 0.0
O253 O 0.95598 0.37052 0.03641 0.0
O254 O 0.94114 0.40695 0.05095 0.0
C255 C 0.98276 0.38656 0.90482 0.0
O256 O 0.98309 0.43349 0.98663 0.0
Co257 Co 0.02636 0.39911 0.98117 0.0
O258 O 0.02131 0.43237 0.95005 0.0
C259 C 0.00956 0.39874 0.12291 0.0
C260 C 0.9385 0.38392 0.05692 0.0
C261 C 1.00197 0.44358 0.962 0.0
O262 O 0.98796 0.40186 0.10236 0.0
O263 O 0.02717 0.39482 0.08278 0.0
O264 O 0.96151 0.39504 0.916 0.0
O265 O 0.99603 0.38445 0.95869 0.0
Co266 Co 0.85332 0.72179 0.26559 0.0
O267 O 0.88238 0.70534 0.28822 0.0
O268 O 0.84603 0.69203 0.31253 0.0
C269 C 0.86453 0.73028 0.1569 0.0
O270 O 0.81925 0.73378 0.24842 0.0
Co271 Co 0.85461 0.77553 0.2278 0.0
O272 O 0.82025 0.77151 0.20772 0.0
C273 C 0.8594 0.76129 0.37091 0.0
C274 C 0.86905 0.68878 0.31436 0.0
C275 C 0.80894 0.75272 0.22489 0.0
O276 O 0.854 0.73962 0.35522 0.0
O277 O 0.8636 0.77762 0.32674 0.0
O278 O 0.8552 0.70967 0.17206 0.0
O279 O 0.86798 0.74435 0.2084 0.0
Co280 Co 0.53958 0.4 0.97475 0.0
O281 O 0.55591 0.37048 0.95583 0.0
O282 O 0.56777 0.40607 0.91917 0.0
C283 C 0.53412 0.39378 0.08775 0.0
O284 O 0.52689 0.43414 0.98683 0.0
Co285 Co 0.48645 0.39712 0.02236 0.0
O286 O 0.48939 0.43237 0.02965 0.0
C287 C 0.4978 0.39206 0.87623 0.0
C288 C 0.57135 0.38306 0.9221 0.0
C289 C 0.50752 0.44413 0.00904 0.0
O290 O 0.51982 0.39657 0.88919 0.0
O291 O 0.48187 0.38925 0.9226 0.0
O292 O 0.55449 0.40143 0.06484 0.0
O293 O 0.51897 0.3873 0.0412 0.0
Co294 Co 0.84631 0.28806 0.19268 0.0
O295 O 0.87661 0.30425 0.19064 0.0
O296 O 0.84346 0.31799 0.14274 0.0
C297 C 0.84791 0.27889 0.30404 0.0
O298 O 0.81149 0.27644 0.18593 0.0
Co299 Co 0.84315 0.23418 0.22811 0.0
O300 O 0.80859 0.24033 0.23611 0.0
C301 C 0.85563 0.24884 0.08762 0.0
C302 C 0.86615 0.32079 0.1552 0.0
C303 C 0.79908 0.25862 0.20851 0.0
O304 O 0.85475 0.27086 0.10605 0.0
O305 O 0.8517 0.23143 0.12861 0.0
O306 O 0.84039 0.29985 0.28498 0.0
O307 O 0.85578 0.26491 0.25643 0.0
Co308 Co 0.97205 0.60923 0.45668 0.0
O309 O 0.95442 0.6376 0.43427 0.0
O310 O 0.94077 0.60068 0.42076 0.0
C311 C 0.98413 0.6229 0.55914 0.0
O312 O 0.98549 0.57558 0.47644 0.0
Co313 Co 0.02686 0.61185 0.47778 0.0
O314 O 0.02403 0.57846 0.50915 0.0
C315 C 0.00723 0.61075 0.33866 0.0
C316 C 0.93716 0.62363 0.41582 0.0
C317 C 0.00527 0.56625 0.49803 0.0
O318 O 0.98601 0.60819 0.36239 0.0
O319 O 0.02572 0.61417 0.37578 0.0
O320 O 0.96328 0.61305 0.55194 0.0
O321 O 0.99641 0.62553 0.50362 0.0
Co322 Co 0.65462 0.71922 0.72975 0.0
O323 O 0.62509 0.70268 0.71267 0.0
O324 O 0.66057 0.69059 0.67586 0.0
C325 C 0.64868 0.72569 0.84219 0.0
O326 O 0.6889 0.73169 0.74016 0.0
Co327 Co 0.65263 0.77277 0.77424 0.0
O328 O 0.68796 0.77007 0.77616 0.0
C329 C 0.64555 0.76034 0.6298 0.0
C330 C 0.63763 0.68695 0.67969 0.0
C331 C 0.69935 0.75137 0.75788 0.0
O332 O 0.65071 0.73846 0.64332 0.0
O333 O 0.64334 0.77663 0.67543 0.0
O334 O 0.65632 0.70508 0.82066 0.0
O335 O 0.64219 0.74053 0.79489 0.0
Co336 Co 0.46945 0.40549 0.47417 0.0
O337 O 0.45263 0.37609 0.45761 0.0
O338 O 0.44133 0.41152 0.41832 0.0
C339 C 0.47503 0.39954 0.58747 0.0
O340 O 0.48266 0.43963 0.48291 0.0
Co341 Co 0.52252 0.40253 0.52129 0.0
O342 O 0.5203 0.43793 0.52446 0.0
C343 C 0.51062 0.39461 0.37666 0.0
C344 C 0.4375 0.38858 0.42247 0.0
C345 C 0.50226 0.44967 0.50302 0.0
O346 O 0.48893 0.40067 0.38883 0.0
O347 O 0.52644 0.39191 0.42338 0.0
O348 O 0.45488 0.40789 0.56472 0.0
O349 O 0.49001 0.39282 0.54082 0.0
Co350 Co 0.35702 0.71601 0.23788 0.0
O351 O 0.38608 0.69828 0.22342 0.0
O352 O 0.35042 0.68723 0.18551 0.0
C353 C 0.3616 0.72371 0.34944 0.0
O354 O 0.32296 0.72981 0.24573 0.0
Co355 Co 0.3594 0.76999 0.27762 0.0
O356 O 0.32468 0.767 0.29105 0.0
C357 C 0.36267 0.75605 0.13245 0.0
C358 C 0.37321 0.6829 0.19007 0.0
C359 C 0.31296 0.74894 0.27006 0.0
O360 O 0.36244 0.73401 0.15051 0.0
O361 O 0.36169 0.77333 0.17538 0.0
O362 O 0.35435 0.70279 0.32937 0.0
O363 O 0.3693 0.73777 0.30157 0.0
Co364 Co 0.04117 0.59361 0.9457 0.0
O365 O 0.05622 0.62451 0.94582 0.0
O366 O 0.07228 0.59171 0.90173 0.0
C367 C 0.02907 0.59498 0.05502 0.0
O368 O 0.03123 0.55829 0.9382 0.0
Co369 Co 0.98673 0.58916 0.96699 0.0
O370 O 0.99164 0.55447 0.95628 0.0
C371 C 0.00491 0.60562 0.83493 0.0
C372 C 0.07383 0.61459 0.91344 0.0
C373 C 0.01206 0.54559 0.94364 0.0
O374 O 0.02623 0.6017 0.85587 0.0
O375 O 0.98645 0.60265 0.8724 0.0
O376 O 0.05069 0.58829 0.04006 0.0
O377 O 0.01608 0.60243 0.00466 0.0
Co378 Co 0.16375 0.29607 0.70795 0.0
O379 O 0.13355 0.31159 0.69289 0.0
O380 O 0.16816 0.32488 0.65328 0.0
C381 C 0.15836 0.28979 0.82117 0.0
O382 O 0.19847 0.28435 0.71577 0.0
Co383 Co 0.16337 0.24268 0.75377 0.0
O384 O 0.19853 0.24666 0.75767 0.0
C385 C 0.15507 0.25462 0.60916 0.0
C386 C 0.14512 0.32768 0.65877 0.0
C387 C 0.2094 0.26521 0.73607 0.0
O388 O 0.15975 0.27666 0.62189 0.0
O389 O 0.15331 0.23852 0.65551 0.0
O390 O 0.16566 0.31042 0.79896 0.0
O391 O 0.15222 0.27468 0.77418 0.0
Co392 Co 0.46711 0.59434 0.02314 0.0
O393 O 0.45136 0.62465 0.03503 0.0
O394 O 0.43772 0.59014 0.07484 0.0
C395 C 0.47534 0.59881 0.9121 0.0
O396 O 0.47852 0.55928 0.01759 0.0
Co397 Co 0.52103 0.59292 0.9852 0.0
O398 O 0.51692 0.55796 0.98265 0.0
C399 C 0.50708 0.60186 0.12791 0.0
C400 C 0.4351 0.61321 0.06896 0.0
C401 C 0.49764 0.54765 0.00034 0.0
O402 O 0.48509 0.59986 0.1104 0.0
O403 O 0.52434 0.60008 0.08531 0.0
O404 O 0.45425 0.59174 0.93118 0.0
O405 O 0.48976 0.60527 0.96041 0.0
Co406 Co 0.15034 0.72444 0.78063 0.0
O407 O 0.12177 0.70543 0.78718 0.0
O408 O 0.15731 0.69438 0.82606 0.0
C409 C 0.14571 0.73491 0.66897 0.0
O410 O 0.18407 0.73869 0.78073 0.0
Co411 Co 0.14667 0.77826 0.75769 0.0
O412 O 0.18221 0.778 0.75675 0.0
C413 C 0.13449 0.75968 0.89149 0.0
C414 C 0.13476 0.68953 0.81796 0.0
C415 C 0.19404 0.75911 0.76975 0.0
O416 O 0.14325 0.73948 0.87268 0.0
O417 O 0.13121 0.77705 0.85007 0.0
O418 O 0.15498 0.71447 0.68599 0.0
O419 O 0.13725 0.74745 0.71941 0.0
Co420 Co 0.04388 0.4152 0.5187 0.0
O421 O 0.05992 0.38463 0.52144 0.0
O422 O 0.07441 0.41815 0.56524 0.0
C423 C 0.03324 0.41219 0.40813 0.0
O424 O 0.03303 0.45041 0.52416 0.0
Co425 Co 0.98982 0.41978 0.48854 0.0
O426 O 0.99623 0.4543 0.4792 0.0
C427 C 0.00589 0.40494 0.62616 0.0
C428 C 0.07697 0.39532 0.55439 0.0
C429 C 0.01526 0.46332 0.5036 0.0
O430 O 0.02772 0.4074 0.60735 0.0
O431 O 0.98814 0.40865 0.58621 0.0
O432 O 0.05439 0.41987 0.42471 0.0
O433 O 0.01967 0.40561 0.45819 0.0
Co434 Co 0.35425 0.2925 0.24156 0.0
O435 O 0.38423 0.30815 0.25889 0.0
O436 O 0.34916 0.321 0.29673 0.0
C437 C 0.36026 0.28641 0.12854 0.0
O438 O 0.31968 0.28088 0.23194 0.0
Co439 Co 0.35465 0.23922 0.19465 0.0
O440 O 0.31948 0.24322 0.1898 0.0
C441 C 0.36247 0.25083 0.33974 0.0
C442 C 0.3722 0.32394 0.29319 0.0
C443 C 0.30869 0.26187 0.21121 0.0
O444 O 0.35784 0.27289 0.32731 0.0
O445 O 0.36436 0.23481 0.29312 0.0
O446 O 0.35285 0.30702 0.15083 0.0
O447 O 0.36616 0.2712 0.17548 0.0
C448 C 0.00576 0.1329 0.76932 0.0
C449 C 0.9925 0.1119 0.75395 0.0
C450 C 0.98141 0.10927 0.87399 0.0
C451 C 1.00116 0.12374 0.89008 0.0
N452 N 0.02956 0.15342 0.8548 0.0
N453 N 0.96689 0.07968 0.79489 0.0
C454 C 0.01226 0.13724 0.83814 0.0
C455 C 0.97953 0.10015 0.80678 0.0
N456 N 0.01184 0.14855 0.71851 0.0
N457 N 0.96435 0.10486 0.92193 0.0
H458 H 0.9661 0.07111 0.74762 0.0
H459 H 0.95892 0.06994 0.83428 0.0
H460 H 0.96403 0.11449 0.96761 0.0
H461 H 0.94889 0.09514 0.91149 0.0
H462 H 0.02015 0.1649 0.72787 0.0
H463 H 0.00612 0.14632 0.66798 0.0
H464 H 0.04033 0.16184 0.81857 0.0
H465 H 0.03345 0.15771 0.90572 0.0
C466 C 0.14612 0.78295 -0.00434 0.0
C467 C 0.13213 0.76448 0.96594 0.0
C468 C 0.11874 0.75215 0.08058 0.0
C469 C 0.13186 0.77135 0.10951 0.0
N470 N 0.15344 0.80845 0.09304 0.0
N471 N 0.10195 0.73406 0.97793 0.0
C472 C 0.14375 0.78801 0.06642 0.0
C473 C 0.11739 0.74986 0.00781 0.0
N474 N 0.16331 0.79434 0.95788 0.0
N475 N 0.10826 0.73574 0.12279 0.0
H476 H 0.10056 0.73208 0.9249 0.0
H477 H 0.08927 0.72431 0.00512 0.0
H478 H 0.10801 0.73771 0.176 0.0
H479 H 0.10084 0.71976 0.10553 0.0
H480 H 0.17601 0.80572 0.97929 0.0
H481 H 0.16681 0.7906 0.90655 0.0
H482 H 0.1596 0.82246 0.06259 0.0
H483 H 0.15349 0.81258 0.14498 0.0
C484 C 0.48548 0.92351 0.23845 0.0
C485 C 0.48664 0.90056 0.20743 0.0
C486 C 0.47383 0.88176 0.31485 0.0
C487 C 0.47396 0.90458 0.34696 0.0
N488 N 0.48035 0.9471 0.3414 0.0
N489 N 0.48445 0.85771 0.21537 0.0
C490 C 0.47972 0.92546 0.30908 0.0
C491 C 0.48143 0.87961 0.24537 0.0
N492 N 0.48959 0.94352 0.19978 0.0
N493 N 0.4656 0.86233 0.35025 0.0
H494 H 0.48956 0.85567 0.16426 0.0
H495 H 0.48344 0.84157 0.24175 0.0
H496 H 0.45984 0.86331 0.40102 0.0
H497 H 0.46273 0.84561 0.32829 0.0
H498 H 0.48603 0.96089 0.21592 0.0
H499 H 0.49572 0.94283 0.14943 0.0
H500 H 0.48747 0.96264 0.3205 0.0
H501 H 0.47438 0.94932 0.39122 0.0
C502 C 0.34401 0.23022 0.44037 0.0
C503 C 0.3634 0.24334 0.41238 0.0
C504 C 0.38342 0.24296 0.52406 0.0
C505 C 0.36283 0.23234 0.55388 0.0
N506 N 0.32158 0.22004 0.54201 0.0
N507 N 0.40014 0.2651 0.4287 0.0
C508 C 0.34264 0.22692 0.51243 0.0
C509 C 0.38262 0.2507 0.45469 0.0
N510 N 0.3267 0.2211 0.39835 0.0
N511 N 0.40424 0.24435 0.56051 0.0
H512 H 0.40096 0.27002 0.37718 0.0
H513 H 0.41294 0.27346 0.45919 0.0
H514 H 0.40606 0.23774 0.61015 0.0
H515 H 0.42041 0.24971 0.53907 0.0
H516 H 0.31386 0.20892 0.41486 0.0
H517 H 0.32608 0.2242 0.34573 0.0
H518 H 0.3056 0.21847 0.51505 0.0
H519 H 0.31916 0.21854 0.59472 0.0
C520 C 0.03077 0.87696 0.78057 0.0
C521 C 0.0121 0.89336 0.79748 0.0
C522 C 0.99861 0.89092 0.6794 0.0
C523 C 0.02074 0.88128 0.65916 0.0
N524 N 0.05793 0.86288 0.69261 0.0
N525 N 0.98169 0.92053 0.75344 0.0
C526 C 0.03702 0.87377 0.71048 0.0
C527 C 0.99693 0.90174 0.74422 0.0
N528 N 0.04129 0.86318 0.82987 0.0
N529 N 0.97884 0.88834 0.63971 0.0
H530 H 0.98185 0.93127 0.79711 0.0
H531 H 0.97128 0.92724 0.71345 0.0
H532 H 0.97848 0.87579 0.60023 0.0
H533 H 0.96217 0.89495 0.65442 0.0
H534 H 0.0537 0.84985 0.81863 0.0
H535 H 0.03538 0.86264 0.88045 0.0
H536 H 0.07166 0.85971 0.72756 0.0
H537 H 0.06167 0.85761 0.64241 0.0
C538 C 0.35579 0.74958 0.93989 0.0
C539 C 0.36278 0.77242 0.91643 0.0
C540 C 0.37681 0.78133 0.03278 0.0
C541 C 0.36344 0.76152 0.05787 0.0
N542 N 0.3353 0.72954 0.03067 0.0
N543 N 0.38298 0.80966 0.94057 0.0
C544 C 0.35146 0.7464 0.01028 0.0
C545 C 0.37402 0.78836 0.96309 0.0
N546 N 0.35493 0.73042 0.89685 0.0
N547 N 0.39333 0.79236 0.07356 0.0
H548 H 0.38473 0.81378 0.88871 0.0
H549 H 0.38836 0.82327 0.97367 0.0
H550 H 0.39763 0.78632 0.12254 0.0
H551 H 0.40488 0.80559 0.0559 0.0
H552 H 0.35055 0.71327 0.91376 0.0
H553 H 0.36341 0.73066 0.84948 0.0
H554 H 0.32525 0.7197 -0.00448 0.0
H555 H 0.3298 0.7272 0.0811 0.0
C556 C 0.48798 0.13081 0.19258 0.0
C557 C 0.47801 0.10956 0.16442 0.0
C558 C 0.47383 0.09306 0.28026 0.0
C559 C 0.48654 0.1129 0.30741 0.0
N560 N 0.5083 0.14951 0.28846 0.0
N561 N 0.46631 0.06843 0.181 0.0
C562 C 0.49448 0.1314 0.26317 0.0
C563 C 0.47205 0.0902 0.20819 0.0
N564 N 0.49006 0.15088 0.15305 0.0
N565 N 0.46371 0.07661 0.32303 0.0
H566 H 0.46619 0.06516 0.12861 0.0
H567 H 0.46438 0.05295 0.21015 0.0
H568 H 0.46547 0.07724 0.37596 0.0
H569 H 0.45184 0.06349 0.30629 0.0
H570 H 0.49501 0.16749 0.1726 0.0
H571 H 0.48448 0.15164 0.10215 0.0
H572 H 0.51717 0.16175 0.25728 0.0
H573 H 0.51209 0.15145 0.34052 0.0
C574 C 0.13494 0.25485 0.49418 0.0
C575 C 0.15407 0.2472 0.53643 0.0
C576 C 0.17434 0.22996 0.43649 0.0
C577 C 0.15421 0.23571 0.39518 0.0
N578 N 0.11312 0.24879 0.38853 0.0
N579 N 0.19056 0.22457 0.55042 0.0
C580 C 0.13391 0.24695 0.42492 0.0
C581 C 0.17322 0.23367 0.50846 0.0
N582 N 0.11772 0.26966 0.52011 0.0
N583 N 0.19513 0.22233 0.40676 0.0
H584 H 0.19152 0.22813 0.60277 0.0
H585 H 0.20315 0.21205 0.53425 0.0
H586 H 0.19735 0.22039 0.35409 0.0
H587 H 0.21115 0.22048 0.43335 0.0
H588 H 0.10508 0.27824 0.48962 0.0
H589 H 0.11703 0.2747 0.57157 0.0
H590 H 0.09709 0.2546 0.40993 0.0
H591 H 0.11112 0.24216 0.33893 0.0
C592 C 0.97949 0.91677 0.27735 0.0
C593 C 0.99345 0.89679 0.29776 0.0
C594 C 0.99235 0.88105 0.18116 0.0
C595 C 0.98099 0.90242 0.15871 0.0
N596 N 0.9668 0.9424 0.18463 0.0
N597 N 0.01644 0.86178 0.26805 0.0
C598 C 0.97522 0.92074 0.2066 0.0
C599 C 1.00109 0.87963 0.2492 0.0
N600 N 0.97035 0.93208 0.32546 0.0
N601 N 0.99315 0.86138 0.13948 0.0
H602 H 0.0223 0.85935 0.3183 0.0
H603 H 0.02475 0.85051 0.23276 0.0
H604 H 0.98499 0.86071 0.09152 0.0
H605 H 0.99925 0.84472 0.1558 0.0
H606 H 0.95748 0.94497 0.31448 0.0
H607 H 0.97429 0.93098 0.37755 0.0
H608 H 0.96487 0.9572 0.21656 0.0
H609 H 0.96424 0.94673 0.1333 0.0
C610 C 0.87517 0.22329 -0.00369 0.0
C611 C 0.86102 0.2435 0.01475 0.0
C612 C 0.86162 0.25598 0.89561 0.0
C613 C 0.86876 0.23288 0.87537 0.0
N614 N 0.88517 0.1946 0.90758 0.0
N615 N 0.83586 0.27619 0.97445 0.0
C616 C 0.87633 0.21641 0.92619 0.0
C617 C 0.85285 0.25916 0.96242 0.0
N618 N 0.88852 0.21159 0.04438 0.0
N619 N 0.86451 0.27511 0.85345 0.0
H620 H 0.82645 0.2775 0.02037 0.0
H621 H 0.82902 0.28686 0.93521 0.0
H622 H 0.87567 0.27409 0.81085 0.0
H623 H 0.85993 0.29246 0.8683 0.0
H624 H 0.90045 0.19793 0.03221 0.0
H625 H 0.88999 0.21744 0.09493 0.0
H626 H 0.88816 0.18084 0.94257 0.0
H627 H 0.88896 0.19019 0.85674 0.0
C628 C 0.53335 0.09503 0.78088 0.0
C629 C 0.5188 0.11328 0.80933 0.0
C630 C 0.51543 0.13157 0.69527 0.0
C631 C 0.52648 0.11108 0.6657 0.0
N632 N 0.54028 0.07045 0.68162 0.0
N633 N 0.4941 0.14817 0.79251 0.0
C634 C 0.53401 0.09207 0.70885 0.0
C635 C 0.50914 0.13127 0.76606 0.0
N636 N 0.54653 0.08032 0.82199 0.0
N637 N 0.51215 0.15181 0.65722 0.0
H638 H 0.49057 0.1497 0.84483 0.0
H639 H 0.48417 0.15979 0.76199 0.0
H640 H 0.51781 0.15342 0.60658 0.0
H641 H 0.50623 0.16791 0.6781 0.0
H642 H 0.559 0.06819 0.80272 0.0
H643 H 0.54725 0.08204 0.87496 0.0
H644 H 0.54356 0.05532 0.71134 0.0
H645 H 0.53914 0.06677 0.62958 0.0
C646 C 0.66901 0.77494 0.53044 0.0
C647 C 0.64665 0.76775 0.55737 0.0
C648 C 0.62843 0.77247 0.44396 0.0
C649 C 0.65142 0.77709 0.41601 0.0
N650 N 0.69403 0.77618 0.43016 0.0
N651 N 0.60551 0.75686 0.53982 0.0
C652 C 0.67183 0.77666 0.45866 0.0
C653 C 0.62643 0.76565 0.51411 0.0
N654 N 0.68758 0.78021 0.57335 0.0
N655 N 0.60853 0.7754 0.40429 0.0
H656 H 0.60334 0.75253 0.59147 0.0
H657 H 0.59089 0.75245 0.50935 0.0
H658 H 0.60933 0.78042 0.35286 0.0
H659 H 0.59121 0.7747 0.4236 0.0
H660 H 0.70354 0.78776 0.55639 0.0
H661 H 0.68632 0.77907 0.62656 0.0
H662 H 0.70965 0.77356 0.45823 0.0
H663 H 0.69632 0.77521 0.37746 0.0
C664 C 0.01735 0.08928 0.36533 0.0
C665 C 0.99837 0.1029 0.39287 0.0
C666 C 0.99602 0.12576 0.28692 0.0
C667 C 0.01 0.10793 0.25449 0.0
N668 N 0.03522 0.07275 0.26343 0.0
N669 N 0.97111 0.13616 0.38381 0.0
C670 C 0.02153 0.08997 0.2939 0.0
C671 C 0.98833 0.12202 0.35509 0.0
N672 N 0.03153 0.07602 0.4074 0.0
N673 N 0.99041 0.14627 0.2524 0.0
H674 H 0.96638 0.135 0.43538 0.0
H675 H 0.96097 0.14841 0.35605 0.0
H676 H 0.99661 0.14964 0.20287 0.0
H677 H 0.98185 0.16082 0.27497 0.0
H678 H 0.0469 0.06719 0.39098 0.0
H679 H 0.02948 0.07645 0.46017 0.0
H680 H 0.04093 0.05739 0.28886 0.0
H681 H 0.04004 0.073 0.21204 0.0
C682 C 0.66303 0.22152 0.01828 0.0
C683 C 0.64415 0.22968 0.06096 0.0
C684 C 0.62542 0.24843 0.96048 0.0
C685 C 0.64306 0.23796 0.91757 0.0
N686 N 0.67487 0.20881 0.9055 0.0
N687 N 0.60426 0.24617 0.06855 0.0
C688 C 0.66047 0.2225 0.94628 0.0
C689 C 0.62444 0.24192 0.03107 0.0
N690 N 0.68424 0.21437 0.04601 0.0
N691 N 0.6095 0.26446 0.93388 0.0
H692 H 0.60216 0.24051 0.11904 0.0
H693 H 0.58861 0.25301 0.04732 0.0
H694 H 0.60851 0.26831 0.88164 0.0
H695 H 0.59823 0.27486 0.96425 0.0
H696 H 0.69937 0.21064 0.01672 0.0
H697 H 0.68773 0.21527 0.09813 0.0
H698 H 0.68617 0.19565 0.92505 0.0
H699 H 0.67379 0.20851 0.85238 0.0
C700 C 0.52793 0.91306 0.72961 0.0
C701 C 0.51264 0.89519 0.70238 0.0
C702 C 0.5088 0.87782 0.81739 0.0
C703 C 0.52086 0.89799 0.84547 0.0
N704 N 0.53558 0.93811 0.82732 0.0
N705 N 0.48635 0.86168 0.72159 0.0
C706 C 0.52876 0.91649 0.8013 0.0
C707 C 0.50227 0.87798 0.74677 0.0
N708 N 0.54166 0.92697 0.68774 0.0
N709 N 0.50478 0.85798 0.85656 0.0
H710 H 0.48245 0.86015 0.66948 0.0
H711 H 0.47606 0.85067 0.75296 0.0
H712 H 0.51049 0.85644 0.90717 0.0
H713 H 0.49808 0.84205 0.83665 0.0
H714 H 0.55462 0.93866 0.70649 0.0
H715 H 0.54222 0.92508 0.6348 0.0
H716 H 0.53929 0.95293 0.79671 0.0
H717 H 0.53436 0.94218 0.87915 0.0
C718 C 0.87551 0.76835 0.55861 0.0
C719 C 0.85512 0.78089 0.58333 0.0
C720 C 0.83989 0.78393 0.46605 0.0
C721 C 0.85839 0.7684 0.44354 0.0
N722 N 0.89225 0.74327 0.46956 0.0
N723 N 0.81565 0.79699 0.56113 0.0
C724 C 0.87559 0.75962 0.49033 0.0
C725 C 0.83674 0.78785 0.53722 0.0
N726 N 0.89552 0.76629 0.59835 0.0
N727 N 0.82521 0.79496 0.41979 0.0
H728 H 0.81172 0.79914 0.61289 0.0
H729 H 0.80077 0.79978 0.53008 0.0
H730 H 0.82579 0.79181 0.36722 0.0
H731 H 0.81353 0.80873 0.43308 0.0
H732 H 0.91156 0.75923 0.58031 0.0
H733 H 0.8972 0.7743 0.64634 0.0
H734 H 0.90334 0.73419 0.50366 0.0
H735 H 0.89386 0.73749 0.41892 0.0
C736 C 0.49735 0.59748 0.2533 0.0
C737 C 0.51248 0.60674 0.20114 0.0
C738 C 0.53856 0.62328 0.2903 0.0
C739 C 0.52251 0.6147 0.34085 0.0
N740 N 0.48055 0.60811 0.36201 0.0
N741 N 0.54249 0.63648 0.17285 0.0
C742 C 0.49993 0.60627 0.32025 0.0
C743 C 0.53179 0.622 0.22014 0.0
N744 N 0.48122 0.57972 0.24084 0.0
N745 N 0.55972 0.63346 0.30913 0.0
H746 H 0.5364 0.63816 0.12264 0.0
H747 H 0.55538 0.64915 0.18566 0.0
H748 H 0.56375 0.63773 0.35989 0.0
H749 H 0.57332 0.6372 0.27425 0.0
H750 H 0.47114 0.57199 0.28002 0.0
H751 H 0.48002 0.57078 0.19426 0.0
H752 H 0.46358 0.60246 0.34694 0.0
H753 H 0.48068 0.61947 0.40432 0.0
C754 C 0.67038 0.27219 0.44942 0.0
C755 C 0.64755 0.26666 0.42191 0.0
C756 C 0.62916 0.27336 0.53436 0.0
C757 C 0.6522 0.27711 0.56304 0.0
N758 N 0.695 0.27742 0.55033 0.0
N759 N 0.60569 0.25877 0.43831 0.0
C760 C 0.67288 0.27605 0.52107 0.0
C761 C 0.62705 0.26631 0.46445 0.0
N762 N 0.68975 0.27355 0.40689 0.0
N763 N 0.60924 0.27756 0.57317 0.0
H764 H 0.60338 0.25432 0.38678 0.0
H765 H 0.59069 0.25537 0.46831 0.0
H766 H 0.61003 0.28315 0.62414 0.0
H767 H 0.59197 0.27758 0.55346 0.0
H768 H 0.7062 0.28057 0.42147 0.0
H769 H 0.6891 0.26876 0.35535 0.0
H770 H 0.71089 0.27398 0.52447 0.0
H771 H 0.69747 0.28027 0.60244 0.0
C772 C 0.98219 0.38054 0.71153 0.0
C773 C 1.00117 0.39681 0.69733 0.0
C774 C 0.01411 0.39261 0.81557 0.0
C775 C 0.99162 0.38332 0.83366 0.0
N776 N 0.95465 0.36534 0.79689 0.0
N777 N 0.03256 0.42213 0.74434 0.0
C778 C 0.97566 0.37637 0.78091 0.0
C779 C 0.01655 0.40391 0.75161 0.0
N780 N 0.97146 0.368 0.65989 0.0
N781 N 0.03342 0.38942 0.85679 0.0
H782 H 0.03324 0.43307 0.70117 0.0
H783 H 0.04294 0.42818 0.78527 0.0
H784 H 0.03299 0.37713 0.89692 0.0
H785 H 0.05043 0.39545 0.84333 0.0
H786 H 0.9588 0.35469 0.66863 0.0
H787 H 0.97732 0.36861 0.60922 0.0
H788 H 0.94105 0.3626 0.76126 0.0
H789 H 0.95073 0.35949 0.84642 0.0
C790 C 0.86156 0.76052 0.06316 0.0
C791 C 0.86868 0.73756 0.08461 0.0
C792 C 0.87457 0.72713 0.96385 0.0
C793 C 0.86059 0.74741 0.9446 0.0
N794 N 0.8353 0.78009 0.98479 0.0
N795 N 0.8843 0.69877 0.05352 0.0
C796 C 0.85238 0.76318 -0.00326 0.0
C797 C 0.87567 0.7206 0.03431 0.0
N798 N 0.86516 0.7801 0.10323 0.0
N799 N 0.88815 0.71524 0.91664 0.0
H800 H 0.88846 0.69462 0.10425 0.0
H801 H 0.88681 0.68476 0.01896 0.0
H802 H 0.89018 0.721 0.86624 0.0
H803 H 0.89993 0.70155 0.92969 0.0
H804 H 0.86042 0.79729 0.08739 0.0
H805 H 0.877 0.77956 0.14437 0.0
H806 H 0.82852 0.79083 0.02408 0.0
H807 H 0.82586 0.78133 0.93899 0.0
C808 C 0.51704 0.37342 0.1921 0.0
C809 C 0.52854 0.39356 0.16228 0.0
C810 C 0.53211 0.41196 0.27618 0.0
C811 C 0.51807 0.39324 0.3041 0.0
N812 N 0.4943 0.35772 0.2877 0.0
N813 N 0.54309 0.43415 0.17489 0.0
C814 C 0.50956 0.3745 0.26167 0.0
C815 C 0.53522 0.41335 0.20407 0.0
N816 N 0.51459 0.35269 0.15555 0.0
N817 N 0.54219 0.42873 0.31831 0.0
H818 H 0.54417 0.43686 0.12224 0.0
H819 H 0.54574 0.44992 0.20231 0.0
H820 H 0.53914 0.42951 0.37094 0.0
H821 H 0.55506 0.44089 0.30188 0.0
H822 H 0.50848 0.33677 0.17699 0.0
H823 H 0.5211 0.35052 0.1059 0.0
H824 H 0.48519 0.34546 0.25716 0.0
H825 H 0.48949 0.35709 0.33933 0.0
C826 C 0.87292 0.2699 0.40627 0.0
C827 C 0.84987 0.27214 0.37668 0.0
C828 C 0.8312 0.25869 0.4833 0.0
C829 C 0.85431 0.25573 0.51186 0.0
N830 N 0.89704 0.25449 0.49978 0.0
N831 N 0.80711 0.26809 0.38384 0.0
C832 C 0.87517 0.26018 0.47309 0.0
C833 C 0.82899 0.26645 0.41444 0.0
N834 N 0.8925 0.27811 0.37155 0.0
N835 N 0.81141 0.25466 0.52287 0.0
H836 H 0.80479 0.27568 0.3358 0.0
H837 H 0.79134 0.2614 0.40446 0.0
H838 H 0.81226 0.24729 0.57185 0.0
H839 H 0.7941 0.2593 0.50881 0.0
H840 H 0.90949 0.2793 0.39288 0.0
H841 H 0.89148 0.2857 0.32282 0.0
H842 H 0.91286 0.25497 0.47184 0.0
H843 H 0.89914 0.24731 0.54876 0.0
C844 C 0.01716 0.60653 0.71095 0.0
C845 C 1.00172 0.61445 0.76423 0.0
C846 C 0.97787 0.63613 0.67985 0.0
C847 C 0.99357 0.62795 0.62815 0.0
N848 N 0.03494 0.61968 0.60539 0.0
N849 N 0.97354 0.64498 0.80048 0.0
C850 C 0.01554 0.61778 0.64687 0.0
C851 C 0.98386 0.63185 0.74934 0.0
N852 N 0.03217 0.58749 0.71894 0.0
N853 N 0.9574 0.64792 0.66245 0.0
H854 H 0.97907 0.64398 0.85141 0.0
H855 H 0.96166 0.65896 0.79109 0.0
H856 H 0.95379 0.65307 0.61206 0.0
H857 H 0.94393 0.65184 0.69761 0.0
H858 H 0.0425 0.58093 0.67853 0.0
H859 H 0.03208 0.5765 0.76204 0.0
H860 H 0.05164 0.61289 0.61911 0.0
H861 H 0.03497 0.63159 0.56434 0.0
C862 C 0.66761 0.72896 0.02899 0.0
C863 C 0.64893 0.74303 0.05747 0.0
C864 C 0.6286 0.74337 0.94624 0.0
C865 C 0.64874 0.73199 0.91606 0.0
N866 N 0.68977 0.71881 0.92709 0.0
N867 N 0.61287 0.76609 0.04203 0.0
C868 C 0.66883 0.72595 0.95699 0.0
C869 C 0.62987 0.75114 0.01559 0.0
N870 N 0.68443 0.71856 0.07018 0.0
N871 N 0.60774 0.74545 0.91029 0.0
H872 H 0.6122 0.77084 0.0937 0.0
H873 H 0.60034 0.77494 0.01181 0.0
H874 H 0.60554 0.73885 0.86074 0.0
H875 H 0.59183 0.75143 0.93207 0.0
H876 H 0.69638 0.70565 0.05261 0.0
H877 H 0.6856 0.72139 0.12279 0.0
H878 H 0.7057 0.71685 0.95411 0.0
H879 H 0.69223 0.71766 0.87433 0.0
C880 C 0.47722 0.41288 0.77934 0.0
C881 C 0.49023 0.39278 0.8036 0.0
C882 C 0.49014 0.37562 0.68804 0.0
C883 C 0.48 0.39713 0.66207 0.0
N884 N 0.46739 0.43794 0.68249 0.0
N885 N 0.5118 0.35634 0.78025 0.0
C886 C 0.47427 0.41617 0.70762 0.0
C887 C 0.49762 0.37461 0.75761 0.0
N888 N 0.46787 0.42907 0.82464 0.0
N889 N 0.49123 0.35564 0.64772 0.0
H890 H 0.51652 0.35419 0.83161 0.0
H891 H 0.52016 0.34427 0.74735 0.0
H892 H 0.48447 0.355 0.598 0.0
H893 H 0.49632 0.3389 0.6661 0.0
H894 H 0.45576 0.44233 0.8105 0.0
H895 H 0.4707 0.42831 0.87736 0.0
H896 H 0.46566 0.45319 0.71279 0.0
H897 H 0.46594 0.44172 0.63042 0.0
C898 C 0.33707 0.72669 0.45768 0.0
C899 C 0.35854 0.73198 0.4212 0.0
C900 C 0.37379 0.75444 0.52017 0.0
C901 C 0.35292 0.74828 0.55696 0.0
N902 N 0.31293 0.73256 0.5597 0.0
N903 N 0.39941 0.74595 0.42337 0.0
C904 C 0.33419 0.73523 0.52571 0.0
C905 C 0.37737 0.7448 0.4536 0.0
N906 N 0.31935 0.71346 0.42774 0.0
N907 N 0.39011 0.76968 0.54871 0.0
H908 H 0.40346 0.7377 0.3769 0.0
H909 H 0.4145 0.7528 0.44752 0.0
H910 H 0.38854 0.77634 0.59845 0.0
H911 H 0.40416 0.77729 0.52143 0.0
H912 H 0.30579 0.70502 0.45501 0.0
H913 H 0.31773 0.71094 0.37517 0.0
H914 H 0.29736 0.726 0.53749 0.0
H915 H 0.3101 0.73864 0.60959 0.0
C916 C 0.02936 0.62123 0.15845 0.0
C917 C 0.02198 0.59968 0.12635 0.0
C918 C 0.00491 0.58541 0.23381 0.0
C919 C 0.0109 0.60757 0.26479 0.0
N920 N 0.02404 0.64844 0.25399 0.0
N921 N 0.99793 0.56396 0.12852 0.0
C922 C 0.02176 0.62607 0.22635 0.0
C923 C 0.00821 0.58262 0.16246 0.0
N924 N 0.04391 0.6369 0.12458 0.0
N925 N 0.99731 0.56655 0.27281 0.0
H926 H 1.00002 0.56152 0.0762 0.0
H927 H 0.98563 0.55236 0.15082 0.0
H928 H 0.99481 0.56752 0.32564 0.0
H929 H 0.99554 0.54924 0.25372 0.0
H930 H 0.05213 0.65144 0.14819 0.0
H931 H 0.04915 0.6345 0.07382 0.0
H932 H 0.02958 0.66329 0.22605 0.0
H933 H 0.01819 0.65267 0.30332 0.0
C934 C 0.13515 0.2739 0.92175 0.0
C935 C 0.15643 0.28437 0.89558 0.0
C936 C 0.17325 0.2854 0.01188 0.0
C937 C 0.15316 0.27239 0.0361 0.0
N938 N 0.11603 0.25202 0.01391 0.0
N939 N 0.19694 0.29793 0.91461 0.0
C940 C 0.13448 0.26587 0.99086 0.0
C941 C 0.17572 0.28981 0.94045 0.0
N942 N 0.11504 0.27306 0.88202 0.0
N943 N 0.19022 0.29331 0.05706 0.0
H944 H 0.20008 0.3007 0.86265 0.0
H945 H 0.21246 0.29967 0.94352 0.0
H946 H 0.1904 0.2888 0.10884 0.0
H947 H 0.20341 0.30565 0.04435 0.0
H948 H 0.09839 0.26783 0.90044 0.0
H949 H 0.11423 0.2801 0.83263 0.0
H950 H 0.10347 0.2442 0.98153 0.0
H951 H 0.11417 0.24697 0.0651 0.0
C952 C 0.4838 0.58151 0.72536 0.0
C953 C 0.49675 0.60167 0.70146 0.0
C954 C 0.49345 0.62078 0.81342 0.0
C955 C 0.48236 0.59978 0.83932 0.0
N956 N 0.47002 0.55868 0.82283 0.0
N957 N 0.51755 0.6386 0.72398 0.0
C958 C 0.4782 0.57976 0.79604 0.0
C959 C 0.50287 0.62065 0.74604 0.0
N960 N 0.47697 0.56395 0.6805 0.0
N961 N 0.49349 0.64138 0.85129 0.0
H962 H 0.52398 0.63968 0.67391 0.0
H963 H 0.52486 0.65137 0.75674 0.0
H964 H 0.48537 0.64282 0.89919 0.0
H965 H 0.49918 0.65781 0.83217 0.0
H966 H 0.46478 0.55055 0.69266 0.0
H967 H 0.48239 0.5634 0.62941 0.0
H968 H 0.46905 0.54278 0.79522 0.0
H969 H 0.46648 0.55614 0.87467 0.0
C970 C 0.16029 0.76032 0.4959 0.0
C971 C 0.14666 0.74561 0.45098 0.0
C972 C 0.12954 0.72529 0.55129 0.0
C973 C 0.14217 0.74117 0.59529 0.0
N974 N 0.16139 0.77954 0.60591 0.0
N975 N 0.11388 0.71802 0.43702 0.0
C976 C 0.15483 0.76056 0.56653 0.0
C977 C 0.12994 0.72917 0.47896 0.0
N978 N 0.17953 0.77301 0.4727 0.0
N979 N 0.11708 0.70658 0.57859 0.0
H980 H 0.11307 0.7212 0.38442 0.0
H981 H 0.09989 0.70752 0.45515 0.0
H982 H 0.11458 0.70447 0.63123 0.0
H983 H 0.11005 0.69272 0.54914 0.0
H984 H 0.19126 0.78186 0.50558 0.0
H985 H 0.18552 0.77259 0.42229 0.0
H986 H 0.16917 0.79496 0.5858 0.0
H987 H 0.15576 0.78125 0.65614 0.0
C988 C 0.02679 0.42334 0.21757 0.0
C989 C 0.01486 0.40221 0.19618 0.0
C990 C 0.01641 0.38675 0.31314 0.0
C991 C 0.02598 0.40897 0.33576 0.0
N992 N 0.03439 0.45041 0.31148 0.0
N993 N 0.99445 0.36558 0.22493 0.0
C994 C 0.02955 0.42785 0.2885 0.0
C995 C 0.00823 0.38456 0.24453 0.0
N996 N 0.03574 0.43902 0.17041 0.0
N997 N 0.01664 0.36722 0.35529 0.0
H998 H 0.98901 0.36282 0.17441 0.0
H999 H 0.9869 0.35366 0.25977 0.0
H1000 H 0.02392 0.36741 0.40441 0.0
H1001 H 0.01203 0.3501 0.33886 0.0
H1002 H 0.04676 0.45332 0.18354 0.0
H1003 H 0.03388 0.43673 0.11769 0.0
H1004 H 0.03485 0.46535 0.2796 0.0
H1005 H 0.03514 0.45461 0.36338 0.0
C1006 C 0.38296 0.26981 0.02767 0.0
C1007 C 0.36204 0.28093 0.0541 0.0
C1008 C 0.3455 0.28319 0.93764 0.0
C1009 C 0.36516 0.2696 0.913 0.0
N1010 N 0.40105 0.24707 0.93542 0.0
N1011 N 0.32165 0.29497 0.03533 0.0
C1012 C 0.38336 0.26192 0.95838 0.0
C1013 C 0.34291 0.28698 0.00931 0.0
N1014 N 0.40304 0.26812 0.0673 0.0
N1015 N 0.32902 0.29221 0.89275 0.0
H1016 H 0.31833 0.29703 0.08748 0.0
H1017 H 0.30626 0.29709 0.00603 0.0
H1018 H 0.32896 0.28836 0.84049 0.0
H1019 H 0.31622 0.30486 0.90644 0.0
H1020 H 0.41947 0.26233 0.04853 0.0
H1021 H 0.40412 0.27501 0.11685 0.0
H1022 H 0.41304 0.2385 0.96803 0.0
H1023 H 0.40276 0.242 0.88419 0.0
C1024 C 0.01142 0.01858 0.07026 0.0
C1025 C 0.00742 0.03279 0.01116 0.0
C1026 C 0.99895 0.99642 0.94385 0.0
C1027 C 1.00079 0.98243 0.00444 0.0
N1028 N 0.00671 0.98038 0.127 0.0
N1029 N 0.99592 0.03593 0.8926 0.0
C1030 C 0.00666 0.99357 0.06796 0.0
C1031 C 1.00072 0.02187 0.94822 0.0
N1032 N 0.01975 0.02901 0.12898 0.0
N1033 N 0.99685 0.98533 0.88164 0.0
H1034 H 0.99886 0.05436 0.89247 0.0
H1035 H 0.98804 0.0296 0.8478 0.0
H1036 H 0.99575 0.96682 0.87611 0.0
H1037 H 0.99817 0.99424 0.83501 0.0
H1038 H 0.02607 0.01947 0.17102 0.0
H1039 H 0.02196 0.04739 0.13433 0.0
H1040 H 0.00752 0.98777 0.17592 0.0
H1041 H 0.00421 0.96196 0.12798 0.0
C1042 C 0.24953 0.7579 0.20378 0.0
C1043 C 0.2364 0.75674 0.26592 0.0
C1044 C 0.27356 0.75337 0.33108 0.0
C1045 C 0.28657 0.7514 0.2687 0.0
N1046 N 0.28733 0.75239 0.14509 0.0
N1047 N 0.2353 0.74892 0.38731 0.0
C1048 C 0.2746 0.75367 0.20478 0.0
C1049 C 0.24823 0.75333 0.32926 0.0
N1050 N 0.23807 0.76398 0.14431 0.0
N1051 N 0.28528 0.75598 0.39203 0.0
H1052 H 0.21671 0.74813 0.38754 0.0
H1053 H 0.24301 0.74374 0.43358 0.0
H1054 H 0.30379 0.75663 0.39591 0.0
H1055 H 0.27665 0.75992 0.43798 0.0
H1056 H 0.24678 0.76747 0.09828 0.0
H1057 H 0.21977 0.76743 0.14196 0.0
H1058 H 0.27956 0.75068 0.09687 0.0
H1059 H 0.30592 0.75228 0.14387 0.0
C1060 C 0.52189 0.01725 0.53608 0.0
C1061 C 0.50318 0.03288 0.51573 0.0
C1062 C 0.47726 0.99777 0.49439 0.0
C1063 C 0.4955 0.98247 0.51973 0.0
N1064 N 0.53191 0.9788 0.58456 0.0
N1065 N 0.46184 0.03785 0.48097 0.0
C1066 C 0.51689 0.99259 0.54611 0.0
C1067 C 0.4805 0.02307 0.49691 0.0
N1068 N 0.54458 0.02562 0.54551 0.0
N1069 N 0.45719 0.98832 0.46502 0.0
H1070 H 0.46358 0.05616 0.47354 0.0
H1071 H 0.44418 0.03211 0.47805 0.0
H1072 H 0.45278 0.97029 0.46672 0.0
H1073 H 0.44531 0.99825 0.43541 0.0
H1074 H 0.5592 0.01438 0.55292 0.0
H1075 H 0.54945 0.04342 0.53945 0.0
H1076 H 0.54649 0.98564 0.61136 0.0
H1077 H 0.528 0.96112 0.59667 0.0
C1078 C 0.27215 0.26111 0.6593 0.0
C1079 C 0.28584 0.25534 0.71851 0.0
C1080 C 0.24979 0.259 0.79019 0.0
C1081 C 0.23591 0.26348 0.73046 0.0
N1082 N 0.23302 0.26491 0.6071 0.0
N1083 N 0.28798 0.24811 0.84041 0.0
C1084 C 0.24689 0.26368 0.66476 0.0
C1085 C 0.2747 0.25401 0.78396 0.0
N1086 N 0.28331 0.26433 0.59762 0.0
N1087 N 0.23919 0.26026 0.85326 0.0
H1088 H 0.30651 0.24646 0.8398 0.0
H1089 H 0.28074 0.24383 0.88793 0.0
H1090 H 0.2209 0.26265 0.85977 0.0
H1091 H 0.24841 0.26032 0.89951 0.0
H1092 H 0.27498 0.27162 0.55475 0.0
H1093 H 0.30143 0.26106 0.58985 0.0
H1094 H 0.23944 0.26189 0.55779 0.0
H1095 H 0.21454 0.26712 0.60835 0.0
C1096 C 0.00393 0.97691 0.60052 0.0
C1097 C 0.00733 0.96692 0.53429 0.0
C1098 C 1.00253 0.00663 0.48238 0.0
C1099 C 0.99801 0.01636 0.54836 0.0
N1100 N 0.99085 0.01089 0.66882 0.0
N1101 N 0.00722 0.97136 0.4112 0.0
C1102 C 0.99758 1.00149 0.60706 0.0
C1103 C 0.00605 0.98156 0.47489 0.0
N1104 N 0.00775 0.96302 0.65713 0.0
N1105 N 1.00379 0.02154 0.42694 0.0
H1106 H 0.01082 0.95328 0.40326 0.0
H1107 H 1.00334 0.98042 0.36599 0.0
H1108 H 0.99913 0.03959 0.42944 0.0
H1109 H 0.01027 0.01638 0.37916 0.0
H1110 H 0.00769 0.96954 0.70711 0.0
H1111 H 0.01308 0.94517 0.65378 0.0
H1112 H 0.98773 1.00062 0.71235 0.0
H1113 H 0.98636 0.02888 0.67509 0.0
C1114 C 0.23316 0.76291 0.70806 0.0
C1115 C 0.22052 0.76097 0.77088 0.0
C1116 C 0.25827 0.76399 0.83485 0.0
C1117 C 0.27082 0.76687 0.77202 0.0
N1118 N 0.2701 0.77274 0.64944 0.0
N1119 N 0.22007 0.76278 0.8942 0.0
C1120 C 0.25818 0.76762 0.70884 0.0
C1121 C 0.23282 0.76237 0.8344 0.0
N1122 N 0.22135 0.75912 0.64761 0.0
N1123 N 0.27079 0.76248 0.8949 0.0
H1124 H 0.20155 0.76085 0.8958 0.0
H1125 H 0.22751 0.76644 0.94193 0.0
H1126 H 0.28917 0.76538 0.89776 0.0
H1127 H 0.26326 0.75744 0.94146 0.0
H1128 H 0.22977 0.75769 0.60023 0.0
H1129 H 0.20314 0.7553 0.64524 0.0
H1130 H 0.26164 0.77611 0.60294 0.0
H1131 H 0.28848 0.77548 0.64718 0.0
C1132 C 0.48182 0.98844 0.03027 0.0
C1133 C 0.50322 0.9781 0.00351 0.0
C1134 C 0.51788 0.01829 0.97484 0.0
C1135 C 0.49686 0.02869 0.00311 0.0
N1136 N 0.45647 0.02335 0.04357 0.0
N1137 N 0.54373 0.98383 0.96375 0.0
C1138 C 0.47813 0.01369 0.02674 0.0
C1139 C 0.52188 0.99319 0.97986 0.0
N1140 N 0.46566 0.97425 0.06375 0.0
N1141 N 0.53323 0.03228 0.93795 0.0
H1142 H 0.54768 0.96568 0.96548 0.0
H1143 H 0.55881 0.99426 0.95478 0.0
H1144 H 0.53013 0.05039 0.92943 0.0
H1145 H 0.54734 0.0256 0.90895 0.0
H1146 H 0.45143 0.98084 0.09242 0.0
H1147 H 0.46761 0.95583 0.06916 0.0
H1148 H 0.44119 0.01325 0.05261 0.0
H1149 H 0.45289 0.04158 0.0424 0.0
C1150 C 0.24595 0.26016 0.28812 0.0
C1151 C 0.23201 0.25473 0.22914 0.0
C1152 C 0.26817 0.25628 0.15732 0.0
C1153 C 0.2822 0.2605 0.21688 0.0
N1154 N 0.2852 0.26214 0.34023 0.0
N1155 N 0.2296 0.24657 0.10767 0.0
C1156 C 0.27128 0.26142 0.28259 0.0
C1157 C 0.24309 0.25236 0.16381 0.0
N1158 N 0.23498 0.26435 0.34964 0.0
N1159 N 0.27877 0.25691 0.09417 0.0
H1160 H 0.21102 0.24576 0.10826 0.0
H1161 H 0.23671 0.24151 0.06059 0.0
H1162 H 0.29713 0.25874 0.08743 0.0
H1163 H 0.2695 0.25707 0.04799 0.0
H1164 H 0.24369 0.27152 0.39209 0.0
H1165 H 0.21673 0.26207 0.3576 0.0
H1166 H 0.27862 0.25962 0.3896 0.0
H1167 H 0.30377 0.26329 0.33896 0.0
C1168 C 0.77124 0.26929 0.69919 0.0
C1169 C 0.78171 0.25021 0.73706 0.0
C1170 C 0.74176 0.23718 0.77304 0.0
C1171 C 0.73136 0.2568 0.73701 0.0
N1172 N 0.73709 0.29508 0.68181 0.0
N1173 N 0.7775 0.21892 0.82079 0.0
C1174 C 0.74636 0.274 0.70531 0.0
C1175 C 0.76711 0.23488 0.77683 0.0
N1176 N 0.78483 0.28232 0.65448 0.0
N1177 N 0.72733 0.22085 0.80453 0.0
H1178 H 0.79597 0.21697 0.8254 0.0
H1179 H 0.76806 0.20898 0.85681 0.0
H1180 H 0.70902 0.22338 0.80994 0.0
H1181 H 0.73331 0.20449 0.82332 0.0
H1182 H 0.77762 0.29425 0.6191 0.0
H1183 H 0.8031 0.27967 0.64764 0.0
H1184 H 0.74765 0.30931 0.66539 0.0
H1185 H 0.71911 0.29956 0.68515 0.0
C1186 C 0.74845 0.77226 0.28765 0.0
C1187 C 0.73349 0.76621 0.23224 0.0
C1188 C 0.76862 0.7524 0.16752 0.0
C1189 C 0.7826 0.75472 0.22787 0.0
N1190 N 0.78464 0.76296 0.34925 0.0
N1191 N 0.7289 0.75182 0.11685 0.0
C1192 C 0.77212 0.7634 0.28921 0.0
C1193 C 0.74349 0.75667 0.17114 0.0
N1194 N 0.74052 0.78778 0.33647 0.0
N1195 N 0.77943 0.74648 0.10703 0.0
H1196 H 0.71099 0.757 0.11624 0.0
H1197 H 0.7343 0.7424 0.07349 0.0
H1198 H 0.79758 0.74234 0.1037 0.0
H1199 H 0.7708 0.74679 0.0598 0.0
H1200 H 0.75124 0.79412 0.37618 0.0
H1201 H 0.72444 0.79699 0.33053 0.0
H1202 H 0.77699 0.76727 0.3964 0.0
H1203 H 0.80186 0.75596 0.35286 0.0
C1204 C 0.73246 0.27283 0.22809 0.0
C1205 C 0.72244 0.25034 0.208 0.0
C1206 C 0.76225 0.23691 0.17235 0.0
C1207 C 0.77261 0.25798 0.19997 0.0
N1208 N 0.7677 0.29563 0.25892 0.0
N1209 N 0.72933 0.20912 0.17491 0.0
C1210 C 0.75775 0.27599 0.22843 0.0
C1211 C 0.73776 0.23181 0.18445 0.0
N1212 N 0.7179 0.29127 0.24772 0.0
N1213 N 0.77574 0.22211 0.13209 0.0
H1214 H 0.71178 0.20409 0.18451 0.0
H1215 H 0.74042 0.1946 0.1645 0.0
H1216 H 0.79348 0.22586 0.11955 0.0
H1217 H 0.76862 0.20778 0.10475 0.0
H1218 H 0.7237 0.3089 0.25207 0.0
H1219 H 0.69971 0.2894 0.25727 0.0
H1220 H 0.75819 0.30744 0.28993 0.0
H1221 H 0.78582 0.29963 0.25664 0.0
C1222 C 0.73909 0.75973 0.81438 0.0
C1223 C 0.72593 0.75321 0.75471 0.0
C1224 C 0.76257 0.75663 0.68568 0.0
C1225 C 0.77596 0.76166 0.74596 0.0
N1226 N 0.77779 0.7625 0.86945 0.0
N1227 N 0.72582 0.74235 0.63463 0.0
C1228 C 0.76443 0.76189 0.8108 0.0
C1229 C 0.7379 0.75064 0.69078 0.0
N1230 N 0.72743 0.76376 0.87491 0.0
N1231 N 0.77331 0.75834 0.62293 0.0
H1232 H 0.70752 0.73917 0.63384 0.0
H1233 H 0.73417 0.73705 0.58943 0.0
H1234 H 0.79146 0.76171 0.61683 0.0
H1235 H 0.76404 0.75822 0.57668 0.0
H1236 H 0.73552 0.77157 0.91745 0.0
H1237 H 0.70926 0.76058 0.88183 0.0
H1238 H 0.77073 0.75988 0.91824 0.0
H1239 H 0.79637 0.76329 0.86929 0.0
C1240 C 0.50743 0.51294 0.42971 0.0
C1241 C 0.513 0.52618 0.48986 0.0
C1242 C 0.5098 0.48952 0.55902 0.0
C1243 C 0.5049 0.47615 0.49861 0.0
N1244 N 0.50331 0.47412 0.37512 0.0
N1245 N 0.52228 0.52695 0.61082 0.0
C1246 C 0.50478 0.4876 0.43354 0.0
C1247 C 0.51518 0.51438 0.55413 0.0
N1248 N 0.5045 0.5247 0.36882 0.0
N1249 N 0.50829 0.47859 0.6216 0.0
H1250 H 0.52487 0.54538 0.6112 0.0
H1251 H 0.52711 0.51901 0.65699 0.0
H1252 H 0.50517 0.46035 0.62741 0.0
H1253 H 0.50843 0.48767 0.66816 0.0
H1254 H 0.49731 0.51683 0.32508 0.0
H1255 H 0.50831 0.54285 0.36266 0.0
H1256 H 0.50596 0.48091 0.32606 0.0
H1257 H 0.50119 0.4556 0.37547 0.0
C1258 C 0.00786 0.4837 0.01471 0.0
C1259 C 1.00293 0.46994 0.95532 0.0
C1260 C 0.00667 0.50603 0.88432 0.0
C1261 C 0.01343 0.51917 0.94347 0.0
N1262 N 0.02682 0.51914 0.06062 0.0
N1263 N 1.00032 0.46699 0.83231 0.0
C1264 C 0.01604 0.50753 0.00732 0.0
C1265 C 1.00323 0.4808 0.88952 0.0
N1266 N 0.00422 0.47422 0.07837 0.0
N1267 N 1.00308 0.51778 0.82381 0.0
H1268 H 0.9964 0.44876 0.83482 0.0
H1269 H 1.0029 0.47327 0.78264 0.0
H1270 H 0.00665 0.53599 0.81798 0.0
H1271 H 0.99564 0.50981 0.78055 0.0
H1272 H 0.00537 0.48423 0.1233 0.0
H1273 H 0.99766 0.45698 0.08605 0.0
H1274 H 0.03109 0.51084 0.10682 0.0
H1275 H 0.03392 0.53629 0.05567 0.0
C1276 C 0.50661 0.48274 0.94319 0.0
C1277 C 0.50513 0.47062 0.00694 0.0
C1278 C 0.49441 0.50844 0.06417 0.0
C1279 C 0.49809 0.52093 0.00153 0.0
N1280 N 0.51039 0.52019 0.88249 0.0
N1281 N 0.49966 0.4719 0.12951 0.0
C1282 C 0.505 0.50813 0.94145 0.0
C1283 C 0.49937 0.48345 0.06771 0.0
N1284 N 0.50826 0.46993 0.88356 0.0
N1285 N 0.48642 0.52044 0.12076 0.0
H1286 H 0.50246 0.45357 0.13436 0.0
H1287 H 0.49885 0.48057 0.17668 0.0
H1288 H 0.48456 0.53891 0.12262 0.0
H1289 H 0.48029 0.51206 0.165 0.0
H1290 H 0.50616 0.47744 0.83512 0.0
H1291 H 0.50959 0.45135 0.88198 0.0
H1292 H 0.51873 0.51227 0.8405 0.0
H1293 H 0.50795 0.53852 0.87643 0.0
C1294 C 0.03039 0.50383 0.46883 0.0
C1295 C 0.01563 0.48982 0.51185 0.0
C1296 C 0.99557 0.52647 0.5527 0.0
C1297 C 0.00789 0.53982 0.50208 0.0
N1298 N 0.03463 0.54062 0.40483 0.0
N1299 N 0.98436 0.48738 0.59657 0.0
C1300 C 0.02474 0.52835 0.45842 0.0
C1301 C 0.99827 0.50107 0.55446 0.0
N1302 N 0.05006 0.49389 0.43872 0.0
N1303 N 0.98203 0.53815 0.60052 0.0
H1304 H 0.9873 0.46912 0.60376 0.0
H1305 H 0.96947 0.49387 0.6226 0.0
H1306 H 0.97961 0.55666 0.60023 0.0
H1307 H 0.97464 0.52986 0.64328 0.0
H1308 H 0.06273 0.50381 0.41191 0.0
H1309 H 0.0552 0.47622 0.44696 0.0
H1310 H 0.0448 0.53247 0.36668 0.0
H1311 H 0.03084 0.55852 0.3945 0.0
C1312 C 0.1018 0.15548 0.03822 0.0
C1313 C 0.09291 0.1383 0.0853 0.0
C1314 C 0.12247 0.15138 0.17039 0.0
C1315 C 0.12839 0.17099 0.12772 0.0
N1316 N 0.12461 0.19196 0.0207 0.0
N1317 N 0.09399 0.12007 0.19735 0.0
C1318 C 0.11856 0.17292 0.06103 0.0
C1319 C 0.10336 0.13592 0.15129 0.0
N1320 N 0.09433 0.15485 0.97153 0.0
N1321 N 0.1351 0.14772 0.2294 0.0
H1322 H 0.08016 0.10832 0.18536 0.0
H1323 H 0.09884 0.11951 0.24882 0.0
H1324 H 0.14908 0.15889 0.24448 0.0
H1325 H 0.13327 0.13257 0.25993 0.0
H1326 H 0.10147 0.16552 0.93295 0.0
H1327 H 0.08231 0.14207 0.95336 0.0
H1328 H 0.116 0.19621 0.97504 0.0
H1329 H 0.1378 0.20422 0.03462 0.0
C1330 C 0.11562 0.855 0.30101 0.0
C1331 C 0.128 0.83862 0.34384 0.0
C1332 C 0.10781 0.85564 0.44439 0.0
C1333 C 0.09276 0.86907 0.40045 0.0
N1334 N 0.08112 0.88084 0.28652 0.0
N1335 N 0.13425 0.82166 0.45644 0.0
C1336 C 0.09651 0.86883 0.32861 0.0
C1337 C 0.12398 0.83872 0.4158 0.0
N1338 N 0.12247 0.85762 0.23421 0.0
N1339 N 0.10667 0.8592 0.51364 0.0
H1340 H 0.14601 0.80876 0.43802 0.0
H1341 H 0.12966 0.81904 0.50761 0.0
H1342 H 0.09504 0.87155 0.53601 0.0
H1343 H 0.11875 0.85175 0.54814 0.0
H1344 H 0.11566 0.87077 0.20189 0.0
H1345 H 0.13671 0.84811 0.21299 0.0
H1346 H 0.08107 0.87898 0.23342 0.0
H1347 H 0.06729 0.89157 0.30502 0.0
C1348 C 0.39176 0.85936 0.71294 0.0
C1349 C 0.37772 0.84526 0.66785 0.0
C1350 C 0.3941 0.86714 0.56963 0.0
C1351 C 0.41076 0.87847 0.61382 0.0
N1352 N 0.42681 0.88434 0.72732 0.0
N1353 N 0.36628 0.83439 0.55286 0.0
C1354 C 0.40975 0.87461 0.68564 0.0
C1355 C 0.3788 0.84901 0.59604 0.0
N1356 N 0.38765 0.85829 0.78192 0.0
N1357 N 0.39279 0.87395 0.50246 0.0
H1358 H 0.35459 0.82121 0.57025 0.0
H1359 H 0.36862 0.83422 0.49993 0.0
H1360 H 0.40364 0.88732 0.48188 0.0
H1361 H 0.37958 0.86806 0.46893 0.0
H1362 H 0.3957 0.86968 0.81727 0.0
H1363 H 0.3744 0.84747 0.80318 0.0
H1364 H 0.42885 0.87976 0.7787 0.0
H1365 H 0.44009 0.89583 0.70952 0.0
C1366 C 0.41677 0.13684 0.81706 0.0
C1367 C 0.4178 0.13528 0.88959 0.0
C1368 C 0.38769 0.16712 0.89955 0.0
C1369 C 0.38632 0.16833 0.82702 0.0
N1370 N 0.39497 0.15069 0.71716 0.0
N1371 N 0.4004 0.14455 -0.00066 0.0
C1372 C 0.3994 0.15195 0.78596 0.0
C1373 C 0.40197 0.14904 0.93063 0.0
N1374 N 0.43329 0.12508 0.77789 0.0
N1375 N 0.37656 0.18407 0.93875 0.0
H1376 H 0.41043 0.13126 0.02344 0.0
H1377 H 0.38761 0.15234 0.03107 0.0
H1378 H 0.36579 0.19747 0.91814 0.0
H1379 H 0.37935 0.18592 0.99125 0.0
H1380 H 0.43532 0.12789 0.72546 0.0
H1381 H 0.44626 0.11379 0.79846 0.0
H1382 H 0.4022 0.13759 0.68536 0.0
H1383 H 0.38219 0.16137 0.69306 0.0
C1384 C 0.89217 0.86307 0.80039 0.0
C1385 C 0.87974 0.84744 0.84519 0.0
C1386 C 0.89767 0.8679 0.94397 0.0
C1387 C 0.91308 0.88056 0.89906 0.0
N1388 N 0.92593 0.88961 0.78401 0.0
N1389 N 0.87127 0.83399 0.96005 0.0
C1390 C 0.91032 0.87833 0.82702 0.0
C1391 C 0.88231 0.84985 0.91724 0.0
N1392 N 0.88638 0.86345 0.73234 0.0
N1393 N 0.89761 0.87339 0.01225 0.0
H1394 H 0.85966 0.82078 0.94262 0.0
H1395 H 0.8748 0.8329 0.01234 0.0
H1396 H 0.90848 0.88672 0.03302 0.0
H1397 H 0.88529 0.86648 0.04695 0.0
H1398 H 0.89311 0.87595 0.69788 0.0
H1399 H 0.873 0.85264 0.71163 0.0
H1400 H 0.92677 0.88632 0.73155 0.0
H1401 H 0.93917 0.90122 0.80133 0.0
C1402 C 0.90095 0.12206 0.65864 0.0
C1403 C 0.90965 0.12142 0.59019 0.0
C1404 C 0.88428 0.15569 0.56013 0.0
C1405 C 0.87632 0.15683 0.62898 0.0
N1406 N 0.8717 0.13798 0.73876 0.0
N1407 N 0.9053 0.13315 0.47223 0.0
C1408 C 0.88277 0.13879 0.67639 0.0
C1409 C 0.89979 0.13679 0.5397 0.0
N1410 N 0.91129 0.10805 0.70782 0.0
N1411 N 0.87786 0.17333 0.51528 0.0
H1412 H 0.9164 0.11923 0.45607 0.0
H1413 H 0.89733 0.14241 0.43203 0.0
H1414 H 0.86562 0.1867 0.52799 0.0
H1415 H 0.88534 0.17535 0.46679 0.0
H1416 H 0.90789 0.10991 0.76001 0.0
H1417 H 0.92449 0.09545 0.69722 0.0
H1418 H 0.87394 0.12408 0.77364 0.0
H1419 H 0.85848 0.15021 0.75288 0.0
C1420 C 0.60775 0.14993 0.28937 0.0
C1421 C 0.6214 0.16541 0.3317 0.0
C1422 C 0.60536 0.14544 0.43364 0.0
C1423 C 0.58878 0.13302 0.39167 0.0
N1424 N 0.57295 0.12436 0.27938 0.0
N1425 N 0.63238 0.1791 0.44469 0.0
C1426 C 0.58987 0.13517 0.31932 0.0
C1427 C 0.62033 0.16324 0.40408 0.0
N1428 N 0.6121 0.14925 0.22046 0.0
N1429 N 0.60683 0.14004 0.50182 0.0
H1430 H 0.64367 0.19226 0.42519 0.0
H1431 H 0.62995 0.18031 0.49749 0.0
H1432 H 0.59622 0.12692 0.52464 0.0
H1433 H 0.62 0.1468 0.53412 0.0
H1434 H 0.60435 0.1368 0.18755 0.0
H1435 H 0.6253 0.15965 0.1973 0.0
H1436 H 0.571 0.12772 0.2272 0.0
H1437 H 0.55973 0.11321 0.29918 0.0
C1438 C 0.60271 0.86171 0.06036 0.0
C1439 C 0.58755 0.87418 0.10651 0.0
C1440 C 0.60971 0.85729 0.2036 0.0
C1441 C 0.6223 0.84213 0.15772 0.0
N1442 N 0.6297 0.82834 0.04249 0.0
N1443 N 0.5753 0.88289 0.22236 0.0
C1444 C 0.61877 0.84412 0.08597 0.0
C1445 C 0.5909 0.87201 0.17832 0.0
N1446 N 0.60195 0.86701 0.992 0.0
N1447 N 0.61599 0.85779 0.27128 0.0
H1448 H 0.56149 0.89402 0.20593 0.0
H1449 H 0.57499 0.87965 0.27489 0.0
H1450 H 0.62977 0.84731 0.29118 0.0
H1451 H 0.60915 0.87008 0.30629 0.0
H1452 H 0.61408 0.86026 0.95644 0.0
H1453 H 0.59059 0.88001 0.97181 0.0
H1454 H 0.62553 0.82692 0.99065 0.0
H1455 H 0.64182 0.81541 0.05906 0.0
C1456 C 0.60862 0.64505 0.55007 0.0
C1457 C 0.59408 0.63135 0.59482 0.0
C1458 C 0.61421 0.64926 0.69389 0.0
C1459 C 0.62579 0.66567 0.6495 0.0
N1460 N 0.63365 0.68011 0.53533 0.0
N1461 N 0.58201 0.62071 0.70933 0.0
C1462 C 0.62326 0.66357 0.57741 0.0
C1463 C 0.59686 0.63322 0.66683 0.0
N1464 N 0.6084 0.64019 0.4814 0.0
N1465 N 0.62004 0.64892 0.76191 0.0
H1466 H 0.56953 0.60836 0.69139 0.0
H1467 H 0.58103 0.62357 0.76199 0.0
H1468 H 0.63285 0.66032 0.78295 0.0
H1469 H 0.61393 0.63599 0.79605 0.0
H1470 H 0.62009 0.64798 0.44644 0.0
H1471 H 0.59792 0.62663 0.46024 0.0
H1472 H 0.63013 0.68135 0.48307 0.0
H1473 H 0.64479 0.69367 0.55338 0.0
C1474 C 0.5944 0.36963 0.81804 0.0
C1475 C 0.59229 0.37111 0.89034 0.0
C1476 C 0.62349 0.34061 0.90402 0.0
C1477 C 0.62582 0.33929 0.8317 0.0
N1478 N 0.61805 0.35646 0.72075 0.0
N1479 N 0.60878 0.363 0.00188 0.0
C1480 C 0.61273 0.35514 0.78901 0.0
C1481 C 0.6082 0.35822 0.93319 0.0
N1482 N 0.57806 0.38085 0.7771 0.0
N1483 N 0.63459 0.32411 0.94476 0.0
H1484 H 0.59797 0.376 0.02457 0.0
H1485 H 0.62152 0.35587 0.03498 0.0
H1486 H 0.64594 0.31091 0.92573 0.0
H1487 H 0.63113 0.32233 -0.00304 0.0
H1488 H 0.57687 0.37803 0.72446 0.0
H1489 H 0.56455 0.39182 0.79633 0.0
H1490 H 0.61073 0.3692 0.68798 0.0
H1491 H 0.63157 0.34627 0.69825 0.0
C1492 C 0.88388 0.34442 0.05769 0.0
C1493 C 0.88025 0.34138 0.12922 0.0
C1494 C 0.91237 0.37009 0.15368 0.0
C1495 C 0.91619 0.37279 0.08235 0.0
N1496 N 0.9021 0.36779 0.96677 0.0
N1497 N 0.88646 0.35555 0.24439 0.0
C1498 C 0.90068 0.36172 0.0345 0.0
C1499 C 0.89304 0.35567 0.17693 0.0
N1500 N 0.87259 0.32969 0.01207 0.0
N1501 N 0.9279 0.38037 0.19904 0.0
H1502 H 0.87213 0.34542 0.26251 0.0
H1503 H 0.89361 0.36706 0.28099 0.0
H1504 H 0.94172 0.39167 0.18366 0.0
H1505 H 0.92793 0.37671 0.25135 0.0
H1506 H 0.87678 0.32897 0.96012 0.0
H1507 H 0.86004 0.31693 0.02665 0.0
H1508 H 0.88988 0.3621 0.92998 0.0
H1509 H 0.91426 0.38041 0.94849 0.0
C1510 C 0.90118 0.64838 0.43978 0.0
C1511 C 0.91431 0.63424 0.39257 0.0
C1512 C 0.89004 0.64988 0.2982 0.0
C1513 C 0.88027 0.66711 0.34361 0.0
N1514 N 0.87547 0.68285 0.4576 0.0
N1515 N 0.92126 0.62056 0.27723 0.0
C1516 C 0.88514 0.66608 0.41476 0.0
C1517 C 0.90836 0.63427 0.32196 0.0
N1518 N 0.90422 0.64478 0.50851 0.0
N1519 N 0.88184 0.64873 0.23231 0.0
H1520 H 0.93431 0.60849 0.29331 0.0
H1521 H 0.91986 0.62185 0.22418 0.0
H1522 H 0.86841 0.66002 0.21412 0.0
H1523 H 0.88671 0.63542 0.19769 0.0
H1524 H 0.89395 0.6531 0.54608 0.0
H1525 H 0.91571 0.6317 0.52777 0.0
H1526 H 0.88056 0.68506 0.50851 0.0
H1527 H 0.86296 0.69543 0.44108 0.0
C1528 C 0.39852 0.35992 0.28505 0.0
C1529 C 0.3848 0.34421 0.32643 0.0
C1530 C 0.40056 0.36368 0.4296 0.0
C1531 C 0.41709 0.37649 0.38851 0.0
N1532 N 0.43325 0.38564 0.27693 0.0
N1533 N 0.37392 0.32965 0.43855 0.0
C1534 C 0.41624 0.37462 0.31603 0.0
C1535 C 0.3858 0.34592 0.39893 0.0
N1536 N 0.39437 0.36091 0.21607 0.0
N1537 N 0.3989 0.36869 0.49801 0.0
H1538 H 0.36286 0.31643 0.41825 0.0
H1539 H 0.37634 0.32813 0.49128 0.0
H1540 H 0.40934 0.38177 0.52167 0.0
H1541 H 0.38571 0.36162 0.52971 0.0
H1542 H 0.40216 0.37355 0.1839 0.0
H1543 H 0.38132 0.35054 0.19207 0.0
H1544 H 0.4354 0.38247 0.22469 0.0
H1545 H 0.44638 0.39675 0.29746 0.0
C1546 C 0.38603 0.65924 0.08639 0.0
C1547 C 0.38457 0.66152 0.15873 0.0
C1548 C 0.41334 0.62873 0.17294 0.0
C1549 C 0.415 0.62661 0.10059 0.0
N1550 N 0.39865 0.63515 0.98925 0.0
N1551 N 0.39158 0.6447 0.27044 0.0
C1552 C 0.39987 0.64036 0.05762 0.0
C1553 C 0.39653 0.64498 0.20184 0.0
N1554 N 0.37543 0.67592 0.04519 0.0
N1555 N 0.42879 0.61637 0.214 0.0
H1556 H 0.37919 0.65626 0.29287 0.0
H1557 H 0.39793 0.63163 0.30381 0.0
H1558 H 0.44104 0.604 0.19507 0.0
H1559 H 0.43055 0.61948 0.26638 0.0
H1560 H 0.37826 0.67695 0.99254 0.0
H1561 H 0.36496 0.68985 0.06418 0.0
H1562 H 0.38638 0.64296 0.95599 0.0
H1563 H 0.40843 0.62125 0.96708 0.0
C1564 C 0.10697 0.6433 0.93702 0.0
C1565 C 0.09393 0.62958 0.88863 0.0
C1566 C 0.1139 0.65089 0.79482 0.0
C1567 C 0.12378 0.66707 0.84308 0.0
N1568 N 0.12902 0.67975 0.9603 0.0
N1569 N 0.08371 0.621 0.77091 0.0
C1570 C 0.12047 0.66337 0.91439 0.0
C1571 C 0.09736 0.63323 0.81725 0.0
N1572 N 0.10651 0.63695 0.00465 0.0
N1573 N 0.12051 0.65238 0.7275 0.0
H1574 H 0.07171 0.60765 0.78488 0.0
H1575 H 0.08312 0.6251 0.7189 0.0
H1576 H 0.13265 0.66511 0.7097 0.0
H1577 H 0.11578 0.63976 0.69067 0.0
H1578 H 0.11727 0.64482 0.04188 0.0
H1579 H 0.09695 0.62218 0.02243 0.0
H1580 H 0.12459 0.67974 0.01213 0.0
H1581 H 0.13935 0.69442 0.94591 0.0
C1582 C 0.11179 0.36794 0.53338 0.0
C1583 C 0.09781 0.38147 0.58028 0.0
C1584 C 0.12088 0.36466 0.67583 0.0
C1585 C 0.13206 0.34848 0.62993 0.0
N1586 N 0.13736 0.33342 0.51523 0.0
N1587 N 0.08741 0.39108 0.6973 0.0
C1588 C 0.12757 0.34996 0.55854 0.0
C1589 C 0.10215 0.37971 0.65186 0.0
N1590 N 0.11023 0.37262 0.46478 0.0
N1591 N 0.12833 0.36569 0.74248 0.0
H1592 H 0.0734 0.40215 0.68227 0.0
H1593 H 0.08784 0.38809 0.74995 0.0
H1594 H 0.14211 0.35497 0.76133 0.0
H1595 H 0.12255 0.37865 0.77709 0.0
H1596 H 0.12151 0.365 0.42837 0.0
H1597 H 0.09911 0.3859 0.4449 0.0
H1598 H 0.13244 0.33164 0.46402 0.0
H1599 H 0.14941 0.32038 0.53161 0.0
loop_
_geom_bond_atom_site_label_1
_geom_bond_atom_site_label_2
_geom_bond_distance
_geom_bond_site_symmetry_2
_ccdc_geom_bond_type
Co0 O1 2.216 . S
Co0 O2 2.091 . S
Co0 O4 2.004 . S
Co0 O10 2.021 . S
Co0 O12 2.137 1_554 S
Co0 O13 2.244 1_454 S
O1 Co0 2.216 . S
O1 C8 1.247 . S
O2 Co0 2.091 . S
O2 C8 1.261 . S
C3 O12 1.247 . S
C3 O13 1.272 1_455 S
O4 Co0 2.004 . S
O4 C9 1.259 . S
Co5 O6 2.061 . S
Co5 O11 2.052 . S
Co5 O13 2.135 1_554 S
O6 Co5 2.061 . S
O6 C9 1.235 1_655 S
C7 O10 1.238 1_655 S
C7 O11 1.241 . S
C8 O1 1.247 . S
C8 O2 1.261 . S
C9 O4 1.259 . S
C9 O6 1.235 1_455 S
O10 Co0 2.021 . S
O10 C7 1.238 1_455 S
O11 Co5 2.052 . S
O11 C7 1.241 . S
O12 Co0 2.137 1_556 S
O12 C3 1.247 . S
O13 Co0 2.244 1_656 S
O13 C3 1.272 1_655 S
O13 Co5 2.135 1_556 S
Co14 O15 2.216 . S
Co14 O16 2.091 . S
Co14 O18 2.004 . S
Co14 O24 2.021 . S
Co14 O26 2.137 . S
Co14 O27 2.244 . S
O15 Co14 2.216 . S
O15 C22 1.247 . S
O16 Co14 2.091 . S
O16 C22 1.261 . S
C17 O26 1.247 . S
C17 O27 1.272 . S
O18 Co14 2.004 . S
O18 C23 1.259 . S
Co19 O20 2.061 . S
Co19 O25 2.052 . S
Co19 O27 2.135 . S
O20 Co19 2.061 . S
O20 C23 1.235 . S
C21 O24 1.238 . S
C21 O25 1.241 . S
C22 O15 1.247 . S
C22 O16 1.261 . S
C23 O18 1.259 . S
C23 O20 1.235 . S
O24 Co14 2.021 . S
O24 C21 1.238 . S
O25 Co19 2.052 . S
O25 C21 1.241 . S
O26 Co14 2.137 . S
O26 C17 1.247 . S
O27 Co14 2.244 . S
O27 C17 1.272 . S
O27 Co19 2.135 . S
Co28 O29 2.216 . S
Co28 O30 2.091 . S
Co28 O32 2.004 . S
Co28 O38 2.021 . S
Co28 O40 2.137 . S
Co28 O41 2.244 . S
O29 Co28 2.216 . S
O29 C36 1.247 . S
O30 Co28 2.091 . S
O30 C36 1.261 . S
C31 O40 1.247 . S
C31 O41 1.272 . S
O32 Co28 2.004 . S
O32 C37 1.259 . S
Co33 O34 2.061 . S
Co33 O39 2.052 . S
Co33 O41 2.135 . S
O34 Co33 2.061 . S
O34 C37 1.235 . S
C35 O38 1.238 . S
C35 O39 1.241 . S
C36 O29 1.247 . S
C36 O30 1.261 . S
C37 O32 1.259 . S
C37 O34 1.235 . S
O38 Co28 2.021 . S
O38 C35 1.238 . S
O39 Co33 2.052 . S
O39 C35 1.241 . S
O40 Co28 2.137 . S
O40 C31 1.247 . S
O41 Co28 2.244 . S
O41 C31 1.272 . S
O41 Co33 2.135 . S
Co42 O43 2.216 . S
Co42 O44 2.091 . S
Co42 O46 2.004 . S
Co42 O52 2.021 . S
Co42 O54 2.137 . S
Co42 O55 2.244 . S
O43 Co42 2.216 . S
O43 C50 1.247 . S
O44 Co42 2.091 . S
O44 C50 1.261 . S
C45 O54 1.247 . S
C45 O55 1.272 . S
O46 Co42 2.004 . S
O46 C51 1.259 . S
Co47 O48 2.061 . S
Co47 O53 2.052 . S
Co47 O55 2.135 . S
O48 Co47 2.061 . S
O48 C51 1.235 . S
C49 O52 1.238 . S
C49 O53 1.241 . S
C50 O43 1.247 . S
C50 O44 1.261 . S
C51 O46 1.259 . S
C51 O48 1.235 . S
O52 Co42 2.021 . S
O52 C49 1.238 . S
O53 Co47 2.052 . S
O53 C49 1.241 . S
O54 Co42 2.137 . S
O54 C45 1.247 . S
O55 Co42 2.244 . S
O55 C45 1.272 . S
O55 Co47 2.135 . S
Co56 O57 2.216 . S
Co56 O58 2.091 . S
Co56 O60 2.004 . S
Co56 O66 2.021 . S
Co56 O68 2.137 . S
Co56 O69 2.244 1_455 S
O57 Co56 2.216 . S
O57 C64 1.247 . S
O58 Co56 2.091 . S
O58 C64 1.261 . S
C59 O68 1.247 . S
C59 O69 1.272 1_455 S
O60 Co56 2.004 . S
O60 C65 1.259 . S
Co61 O62 2.061 . S
Co61 O67 2.052 . S
Co61 O69 2.135 . S
O62 Co61 2.061 . S
O62 C65 1.235 1_655 S
C63 O66 1.238 1_655 S
C63 O67 1.241 . S
C64 O57 1.247 . S
C64 O58 1.261 . S
C65 O60 1.259 . S
C65 O62 1.235 1_455 S
O66 Co56 2.021 . S
O66 C63 1.238 1_455 S
O67 Co61 2.052 . S
O67 C63 1.241 . S
O68 Co56 2.137 . S
O68 C59 1.247 . S
O69 Co56 2.244 1_655 S
O69 C59 1.272 1_655 S
O69 Co61 2.135 . S
Co70 O71 2.216 . S
Co70 O72 2.091 . S
Co70 O74 2.004 . S
Co70 O80 2.021 . S
Co70 O82 2.137 . S
Co70 O83 2.244 . S
O71 Co70 2.216 . S
O71 C78 1.247 . S
O72 Co70 2.091 . S
O72 C78 1.261 . S
C73 O82 1.247 . S
C73 O83 1.272 . S
O74 Co70 2.004 . S
O74 C79 1.259 . S
Co75 O76 2.061 . S
Co75 O81 2.052 . S
Co75 O83 2.135 . S
O76 Co75 2.061 . S
O76 C79 1.235 . S
C77 O80 1.238 . S
C77 O81 1.241 . S
C78 O71 1.247 . S
C78 O72 1.261 . S
C79 O74 1.259 . S
C79 O76 1.235 . S
O80 Co70 2.021 . S
O80 C77 1.238 . S
O81 Co75 2.052 . S
O81 C77 1.241 . S
O82 Co70 2.137 . S
O82 C73 1.247 . S
O83 Co70 2.244 . S
O83 C73 1.272 . S
O83 Co75 2.135 . S
Co84 O85 2.216 . S
Co84 O86 2.091 . S
Co84 O88 2.004 . S
Co84 O94 2.021 . S
Co84 O96 2.137 1_556 S
Co84 O97 2.244 1_556 S
O85 Co84 2.216 . S
O85 C92 1.247 . S
O86 Co84 2.091 . S
O86 C92 1.261 . S
C87 O96 1.247 . S
C87 O97 1.272 . S
O88 Co84 2.004 . S
O88 C93 1.259 . S
Co89 O90 2.061 . S
Co89 O95 2.052 . S
Co89 O97 2.135 1_556 S
O90 Co89 2.061 . S
O90 C93 1.235 . S
C91 O94 1.238 . S
C91 O95 1.241 . S
C92 O85 1.247 . S
C92 O86 1.261 . S
C93 O88 1.259 . S
C93 O90 1.235 . S
O94 Co84 2.021 . S
O94 C91 1.238 . S
O95 Co89 2.052 . S
O95 C91 1.241 . S
O96 Co84 2.137 1_554 S
O96 C87 1.247 . S
O97 Co84 2.244 1_554 S
O97 C87 1.272 . S
O97 Co89 2.135 1_554 S
Co98 O99 2.216 . S
Co98 O100 2.091 . S
Co98 O102 2.004 . S
Co98 O108 2.021 . S
Co98 O110 2.137 . S
Co98 O111 2.244 . S
O99 Co98 2.216 . S
O99 C106 1.247 . S
O100 Co98 2.091 . S
O100 C106 1.261 . S
C101 O110 1.247 . S
C101 O111 1.272 . S
O102 Co98 2.004 . S
O102 C107 1.259 . S
Co103 O104 2.061 . S
Co103 O109 2.052 . S
Co103 O111 2.135 . S
O104 Co103 2.061 . S
O104 C107 1.235 . S
C105 O108 1.238 . S
C105 O109 1.241 . S
C106 O99 1.247 . S
C106 O100 1.261 . S
C107 O102 1.259 . S
C107 O104 1.235 . S
O108 Co98 2.021 . S
O108 C105 1.238 . S
O109 Co103 2.052 . S
O109 C105 1.241 . S
O110 Co98 2.137 . S
O110 C101 1.247 . S
O111 Co98 2.244 . S
O111 C101 1.272 . S
O111 Co103 2.135 . S
Co112 O113 2.216 . S
Co112 O114 2.091 . S
Co112 O116 2.004 . S
Co112 O122 2.021 . S
Co112 O124 2.137 1_556 S
Co112 O125 2.244 1_656 S
O113 Co112 2.216 . S
O113 C120 1.247 . S
O114 Co112 2.091 . S
O114 C120 1.261 . S
C115 O124 1.247 . S
C115 O125 1.272 1_655 S
O116 Co112 2.004 . S
O116 C121 1.259 . S
Co117 O118 2.061 . S
Co117 O123 2.052 . S
Co117 O125 2.135 1_556 S
O118 Co117 2.061 . S
O118 C121 1.235 1_455 S
C119 O122 1.238 1_455 S
C119 O123 1.241 . S
C120 O113 1.247 . S
C120 O114 1.261 . S
C121 O116 1.259 . S
C121 O118 1.235 1_655 S
O122 Co112 2.021 . S
O122 C119 1.238 1_655 S
O123 Co117 2.052 . S
O123 C119 1.241 . S
O124 Co112 2.137 1_554 S
O124 C115 1.247 . S
O125 Co112 2.244 1_454 S
O125 C115 1.272 1_455 S
O125 Co117 2.135 1_554 S
Co126 O127 2.216 . S
Co126 O128 2.091 . S
Co126 O130 2.004 . S
Co126 O136 2.021 . S
Co126 O138 2.137 . S
Co126 O139 2.244 . S
O127 Co126 2.216 . S
O127 C134 1.247 . S
O128 Co126 2.091 . S
O128 C134 1.261 . S
C129 O138 1.247 . S
C129 O139 1.272 . S
O130 Co126 2.004 . S
O130 C135 1.259 . S
Co131 O132 2.061 . S
Co131 O137 2.052 . S
Co131 O139 2.135 . S
O132 Co131 2.061 . S
O132 C135 1.235 . S
C133 O136 1.238 . S
C133 O137 1.241 . S
C134 O127 1.247 . S
C134 O128 1.261 . S
C135 O130 1.259 . S
C135 O132 1.235 . S
O136 Co126 2.021 . S
O136 C133 1.238 . S
O137 Co131 2.052 . S
O137 C133 1.241 . S
O138 Co126 2.137 . S
O138 C129 1.247 . S
O139 Co126 2.244 . S
O139 C129 1.272 . S
O139 Co131 2.135 . S
Co140 O141 2.216 . S
Co140 O142 2.091 . S
Co140 O144 2.004 . S
Co140 O150 2.021 . S
Co140 O152 2.137 . S
Co140 O153 2.244 . S
O141 Co140 2.216 . S
O141 C148 1.247 . S
O142 Co140 2.091 . S
O142 C148 1.261 . S
C143 O152 1.247 . S
C143 O153 1.272 . S
O144 Co140 2.004 . S
O144 C149 1.259 . S
Co145 O146 2.061 . S
Co145 O151 2.052 . S
Co145 O153 2.135 . S
O146 Co145 2.061 . S
O146 C149 1.235 . S
C147 O150 1.238 . S
C147 O151 1.241 . S
C148 O141 1.247 . S
C148 O142 1.261 . S
C149 O144 1.259 . S
C149 O146 1.235 . S
O150 Co140 2.021 . S
O150 C147 1.238 . S
O151 Co145 2.052 . S
O151 C147 1.241 . S
O152 Co140 2.137 . S
O152 C143 1.247 . S
O153 Co140 2.244 . S
O153 C143 1.272 . S
O153 Co145 2.135 . S
Co154 O155 2.216 . S
Co154 O156 2.091 . S
Co154 O158 2.004 . S
Co154 O164 2.021 . S
Co154 O166 2.137 . S
Co154 O167 2.244 . S
O155 Co154 2.216 . S
O155 C162 1.247 . S
O156 Co154 2.091 . S
O156 C162 1.261 . S
C157 O166 1.247 . S
C157 O167 1.272 . S
O158 Co154 2.004 . S
O158 C163 1.259 . S
Co159 O160 2.061 . S
Co159 O165 2.052 . S
Co159 O167 2.135 . S
O160 Co159 2.061 . S
O160 C163 1.235 . S
C161 O164 1.238 . S
C161 O165 1.241 . S
C162 O155 1.247 . S
C162 O156 1.261 . S
C163 O158 1.259 . S
C163 O160 1.235 . S
O164 Co154 2.021 . S
O164 C161 1.238 . S
O165 Co159 2.052 . S
O165 C161 1.241 . S
O166 Co154 2.137 . S
O166 C157 1.247 . S
O167 Co154 2.244 . S
O167 C157 1.272 . S
O167 Co159 2.135 . S
Co168 O169 2.216 . S
Co168 O170 2.091 . S
Co168 O172 2.004 . S
Co168 O178 2.021 . S
Co168 O180 2.137 . S
Co168 O181 2.244 1_655 S
O169 Co168 2.216 . S
O169 C176 1.247 . S
O170 Co168 2.091 . S
O170 C176 1.261 . S
C171 O180 1.247 . S
C171 O181 1.272 1_655 S
O172 Co168 2.004 . S
O172 C177 1.259 . S
Co173 O174 2.061 . S
Co173 O179 2.052 . S
Co173 O181 2.135 . S
O174 Co173 2.061 . S
O174 C177 1.235 1_455 S
C175 O178 1.238 1_455 S
C175 O179 1.241 . S
C176 O169 1.247 . S
C176 O170 1.261 . S
C177 O172 1.259 . S
C177 O174 1.235 1_655 S
O178 Co168 2.021 . S
O178 C175 1.238 1_655 S
O179 Co173 2.052 . S
O179 C175 1.241 . S
O180 Co168 2.137 . S
O180 C171 1.247 . S
O181 Co168 2.244 1_455 S
O181 C171 1.272 1_455 S
O181 Co173 2.135 . S
Co182 O183 2.216 . S
Co182 O184 2.091 . S
Co182 O186 2.004 . S
Co182 O192 2.021 . S
Co182 O194 2.137 . S
Co182 O195 2.244 . S
O183 Co182 2.216 . S
O183 C190 1.247 . S
O184 Co182 2.091 . S
O184 C190 1.261 . S
C185 O194 1.247 . S
C185 O195 1.272 . S
O186 Co182 2.004 . S
O186 C191 1.259 . S
Co187 O188 2.061 . S
Co187 O193 2.052 . S
Co187 O195 2.135 . S
O188 Co187 2.061 . S
O188 C191 1.235 . S
C189 O192 1.238 . S
C189 O193 1.241 . S
C190 O183 1.247 . S
C190 O184 1.261 . S
C191 O186 1.259 . S
C191 O188 1.235 . S
O192 Co182 2.021 . S
O192 C189 1.238 . S
O193 Co187 2.052 . S
O193 C189 1.241 . S
O194 Co182 2.137 . S
O194 C185 1.247 . S
O195 Co182 2.244 . S
O195 C185 1.272 . S
O195 Co187 2.135 . S
Co196 O197 2.216 . S
Co196 O198 2.091 . S
Co196 O200 2.004 . S
Co196 O206 2.021 . S
Co196 O208 2.137 1_554 S
Co196 O209 2.244 1_554 S
O197 Co196 2.216 . S
O197 C204 1.247 . S
O198 Co196 2.091 . S
O198 C204 1.261 . S
C199 O208 1.247 . S
C199 O209 1.272 . S
O200 Co196 2.004 . S
O200 C205 1.259 . S
Co201 O202 2.061 . S
Co201 O207 2.052 . S
Co201 O209 2.135 1_554 S
O202 Co201 2.061 . S
O202 C205 1.235 . S
C203 O206 1.238 . S
C203 O207 1.241 . S
C204 O197 1.247 . S
C204 O198 1.261 . S
C205 O200 1.259 . S
C205 O202 1.235 . S
O206 Co196 2.021 . S
O206 C203 1.238 . S
O207 Co201 2.052 . S
O207 C203 1.241 . S
O208 Co196 2.137 1_556 S
O208 C199 1.247 . S
O209 Co196 2.244 1_556 S
O209 C199 1.272 . S
O209 Co201 2.135 1_556 S
Co210 O211 2.216 . S
Co210 O212 2.091 . S
Co210 O214 2.004 . S
Co210 O220 2.021 . S
Co210 O222 2.137 . S
Co210 O223 2.244 . S
O211 Co210 2.216 . S
O211 C218 1.247 . S
O212 Co210 2.091 . S
O212 C218 1.261 . S
C213 O222 1.247 . S
C213 O223 1.272 . S
O214 Co210 2.004 . S
O214 C219 1.259 . S
Co215 O216 2.061 . S
Co215 O221 2.052 . S
Co215 O223 2.135 . S
O216 Co215 2.061 . S
O216 C219 1.235 . S
C217 O220 1.238 . S
C217 O221 1.241 . S
C218 O211 1.247 . S
C218 O212 1.261 . S
C219 O214 1.259 . S
C219 O216 1.235 . S
O220 Co210 2.021 . S
O220 C217 1.238 . S
O221 Co215 2.052 . S
O221 C217 1.241 . S
O222 Co210 2.137 . S
O222 C213 1.247 . S
O223 Co210 2.244 . S
O223 C213 1.272 . S
O223 Co215 2.135 . S
Co224 O225 2.216 . S
Co224 O226 2.091 . S
Co224 O228 2.004 . S
Co224 O234 2.021 . S
Co224 O236 2.137 . S
Co224 O237 2.244 . S
O225 Co224 2.216 . S
O225 C232 1.247 . S
O226 Co224 2.091 . S
O226 C232 1.261 . S
C227 O236 1.247 . S
C227 O237 1.272 . S
O228 Co224 2.004 . S
O228 C233 1.259 . S
Co229 O230 2.061 . S
Co229 O235 2.052 . S
Co229 O237 2.135 . S
O230 Co229 2.061 . S
O230 C233 1.235 . S
C231 O234 1.238 . S
C231 O235 1.241 . S
C232 O225 1.247 . S
C232 O226 1.261 . S
C233 O228 1.259 . S
C233 O230 1.235 . S
O234 Co224 2.021 . S
O234 C231 1.238 . S
O235 Co229 2.052 . S
O235 C231 1.241 . S
O236 Co224 2.137 . S
O236 C227 1.247 . S
O237 Co224 2.244 . S
O237 C227 1.272 . S
O237 Co229 2.135 . S
Co238 O239 2.216 . S
Co238 O240 2.091 . S
Co238 O242 2.004 . S
Co238 O248 2.021 . S
Co238 O250 2.137 . S
Co238 O251 2.244 . S
O239 Co238 2.216 . S
O239 C246 1.247 . S
O240 Co238 2.091 . S
O240 C246 1.261 . S
C241 O250 1.247 . S
C241 O251 1.272 . S
O242 Co238 2.004 . S
O242 C247 1.259 . S
Co243 O244 2.061 . S
Co243 O249 2.052 . S
Co243 O251 2.135 . S
O244 Co243 2.061 . S
O244 C247 1.235 . S
C245 O248 1.238 . S
C245 O249 1.241 . S
C246 O239 1.247 . S
C246 O240 1.261 . S
C247 O242 1.259 . S
C247 O244 1.235 . S
O248 Co238 2.021 . S
O248 C245 1.238 . S
O249 Co243 2.052 . S
O249 C245 1.241 . S
O250 Co238 2.137 . S
O250 C241 1.247 . S
O251 Co238 2.244 . S
O251 C241 1.272 . S
O251 Co243 2.135 . S
Co252 O253 2.216 . S
Co252 O254 2.091 . S
Co252 O256 2.004 . S
Co252 O262 2.021 . S
Co252 O264 2.137 1_554 S
Co252 O265 2.244 1_654 S
O253 Co252 2.216 . S
O253 C260 1.247 . S
O254 Co252 2.091 . S
O254 C260 1.261 . S
C255 O264 1.247 . S
C255 O265 1.272 1_655 S
O256 Co252 2.004 . S
O256 C261 1.259 . S
Co257 O258 2.061 . S
Co257 O263 2.052 . S
Co257 O265 2.135 1_554 S
O258 Co257 2.061 . S
O258 C261 1.235 1_455 S
C259 O262 1.238 1_455 S
C259 O263 1.241 . S
C260 O253 1.247 . S
C260 O254 1.261 . S
C261 O256 1.259 . S
C261 O258 1.235 1_655 S
O262 Co252 2.021 . S
O262 C259 1.238 1_655 S
O263 Co257 2.052 . S
O263 C259 1.241 . S
O264 Co252 2.137 1_556 S
O264 C255 1.247 . S
O265 Co252 2.244 1_456 S
O265 C255 1.272 1_455 S
O265 Co257 2.135 1_556 S
Co266 O267 2.216 . S
Co266 O268 2.091 . S
Co266 O270 2.004 . S
Co266 O276 2.021 . S
Co266 O278 2.137 . S
Co266 O279 2.244 . S
O267 Co266 2.216 . S
O267 C274 1.247 . S
O268 Co266 2.091 . S
O268 C274 1.261 . S
C269 O278 1.247 . S
C269 O279 1.272 . S
O270 Co266 2.004 . S
O270 C275 1.259 . S
Co271 O272 2.061 . S
Co271 O277 2.052 . S
Co271 O279 2.135 . S
O272 Co271 2.061 . S
O272 C275 1.235 . S
C273 O276 1.238 . S
C273 O277 1.241 . S
C274 O267 1.247 . S
C274 O268 1.261 . S
C275 O270 1.259 . S
C275 O272 1.235 . S
O276 Co266 2.021 . S
O276 C273 1.238 . S
O277 Co271 2.052 . S
O277 C273 1.241 . S
O278 Co266 2.137 . S
O278 C269 1.247 . S
O279 Co266 2.244 . S
O279 C269 1.272 . S
O279 Co271 2.135 . S
Co280 O281 2.216 . S
Co280 O282 2.091 . S
Co280 O284 2.004 . S
Co280 O290 2.021 . S
Co280 O292 2.137 1_556 S
Co280 O293 2.244 1_556 S
O281 Co280 2.216 . S
O281 C288 1.247 . S
O282 Co280 2.091 . S
O282 C288 1.261 . S
C283 O292 1.247 . S
C283 O293 1.272 . S
O284 Co280 2.004 . S
O284 C289 1.259 . S
Co285 O286 2.061 . S
Co285 O291 2.052 . S
Co285 O293 2.135 1_556 S
O286 Co285 2.061 . S
O286 C289 1.235 . S
C287 O290 1.238 . S
C287 O291 1.241 . S
C288 O281 1.247 . S
C288 O282 1.261 . S
C289 O284 1.259 . S
C289 O286 1.235 . S
O290 Co280 2.021 . S
O290 C287 1.238 . S
O291 Co285 2.052 . S
O291 C287 1.241 . S
O292 Co280 2.137 1_554 S
O292 C283 1.247 . S
O293 Co280 2.244 1_554 S
O293 C283 1.272 . S
O293 Co285 2.135 1_554 S
Co294 O295 2.216 . S
Co294 O296 2.091 . S
Co294 O298 2.004 . S
Co294 O304 2.021 . S
Co294 O306 2.137 . S
Co294 O307 2.244 . S
O295 Co294 2.216 . S
O295 C302 1.247 . S
O296 Co294 2.091 . S
O296 C302 1.261 . S
C297 O306 1.247 . S
C297 O307 1.272 . S
O298 Co294 2.004 . S
O298 C303 1.259 . S
Co299 O300 2.061 . S
Co299 O305 2.052 . S
Co299 O307 2.135 . S
O300 Co299 2.061 . S
O300 C303 1.235 . S
C301 O304 1.238 . S
C301 O305 1.241 . S
C302 O295 1.247 . S
C302 O296 1.261 . S
C303 O298 1.259 . S
C303 O300 1.235 . S
O304 Co294 2.021 . S
O304 C301 1.238 . S
O305 Co299 2.052 . S
O305 C301 1.241 . S
O306 Co294 2.137 . S
O306 C297 1.247 . S
O307 Co294 2.244 . S
O307 C297 1.272 . S
O307 Co299 2.135 . S
Co308 O309 2.216 . S
Co308 O310 2.091 . S
Co308 O312 2.004 . S
Co308 O318 2.021 . S
Co308 O320 2.137 . S
Co308 O321 2.244 1_655 S
O309 Co308 2.216 . S
O309 C316 1.247 . S
O310 Co308 2.091 . S
O310 C316 1.261 . S
C311 O320 1.247 . S
C311 O321 1.272 1_655 S
O312 Co308 2.004 . S
O312 C317 1.259 . S
Co313 O314 2.061 . S
Co313 O319 2.052 . S
Co313 O321 2.135 . S
O314 Co313 2.061 . S
O314 C317 1.235 1_455 S
C315 O318 1.238 1_455 S
C315 O319 1.241 . S
C316 O309 1.247 . S
C316 O310 1.261 . S
C317 O312 1.259 . S
C317 O314 1.235 1_655 S
O318 Co308 2.021 . S
O318 C315 1.238 1_655 S
O319 Co313 2.052 . S
O319 C315 1.241 . S
O320 Co308 2.137 . S
O320 C311 1.247 . S
O321 Co308 2.244 1_455 S
O321 C311 1.272 1_455 S
O321 Co313 2.135 . S
Co322 O323 2.216 . S
Co322 O324 2.091 . S
Co322 O326 2.004 . S
Co322 O332 2.021 . S
Co322 O334 2.137 . S
Co322 O335 2.244 . S
O323 Co322 2.216 . S
O323 C330 1.247 . S
O324 Co322 2.091 . S
O324 C330 1.261 . S
C325 O334 1.247 . S
C325 O335 1.272 . S
O326 Co322 2.004 . S
O326 C331 1.259 . S
Co327 O328 2.061 . S
Co327 O333 2.052 . S
Co327 O335 2.135 . S
O328 Co327 2.061 . S
O328 C331 1.235 . S
C329 O332 1.238 . S
C329 O333 1.241 . S
C330 O323 1.247 . S
C330 O324 1.261 . S
C331 O326 1.259 . S
C331 O328 1.235 . S
O332 Co322 2.021 . S
O332 C329 1.238 . S
O333 Co327 2.052 . S
O333 C329 1.241 . S
O334 Co322 2.137 . S
O334 C325 1.247 . S
O335 Co322 2.244 . S
O335 C325 1.272 . S
O335 Co327 2.135 . S
Co336 O337 2.216 . S
Co336 O338 2.091 . S
Co336 O340 2.004 . S
Co336 O346 2.021 . S
Co336 O348 2.137 . S
Co336 O349 2.244 . S
O337 Co336 2.216 . S
O337 C344 1.247 . S
O338 Co336 2.091 . S
O338 C344 1.261 . S
C339 O348 1.247 . S
C339 O349 1.272 . S
O340 Co336 2.004 . S
O340 C345 1.259 . S
Co341 O342 2.061 . S
Co341 O347 2.052 . S
Co341 O349 2.135 . S
O342 Co341 2.061 . S
O342 C345 1.235 . S
C343 O346 1.238 . S
C343 O347 1.241 . S
C344 O337 1.247 . S
C344 O338 1.261 . S
C345 O340 1.259 . S
C345 O342 1.235 . S
O346 Co336 2.021 . S
O346 C343 1.238 . S
O347 Co341 2.052 . S
O347 C343 1.241 . S
O348 Co336 2.137 . S
O348 C339 1.247 . S
O349 Co336 2.244 . S
O349 C339 1.272 . S
O349 Co341 2.135 . S
Co350 O351 2.216 . S
Co350 O352 2.091 . S
Co350 O354 2.004 . S
Co350 O360 2.021 . S
Co350 O362 2.137 . S
Co350 O363 2.244 . S
O351 Co350 2.216 . S
O351 C358 1.247 . S
O352 Co350 2.091 . S
O352 C358 1.261 . S
C353 O362 1.247 . S
C353 O363 1.272 . S
O354 Co350 2.004 . S
O354 C359 1.259 . S
Co355 O356 2.061 . S
Co355 O361 2.052 . S
Co355 O363 2.135 . S
O356 Co355 2.061 . S
O356 C359 1.235 . S
C357 O360 1.238 . S
C357 O361 1.241 . S
C358 O351 1.247 . S
C358 O352 1.261 . S
C359 O354 1.259 . S
C359 O356 1.235 . S
O360 Co350 2.021 . S
O360 C357 1.238 . S
O361 Co355 2.052 . S
O361 C357 1.241 . S
O362 Co350 2.137 . S
O362 C353 1.247 . S
O363 Co350 2.244 . S
O363 C353 1.272 . S
O363 Co355 2.135 . S
Co364 O365 2.216 . S
Co364 O366 2.091 . S
Co364 O368 2.004 . S
Co364 O374 2.021 . S
Co364 O376 2.137 1_556 S
Co364 O377 2.244 1_456 S
O365 Co364 2.216 . S
O365 C372 1.247 . S
O366 Co364 2.091 . S
O366 C372 1.261 . S
C367 O376 1.247 . S
C367 O377 1.272 1_455 S
O368 Co364 2.004 . S
O368 C373 1.259 . S
Co369 O370 2.061 . S
Co369 O375 2.052 . S
Co369 O377 2.135 1_556 S
O370 Co369 2.061 . S
O370 C373 1.235 1_655 S
C371 O374 1.238 1_655 S
C371 O375 1.241 . S
C372 O365 1.247 . S
C372 O366 1.261 . S
C373 O368 1.259 . S
C373 O370 1.235 1_455 S
O374 Co364 2.021 . S
O374 C371 1.238 1_455 S
O375 Co369 2.052 . S
O375 C371 1.241 . S
O376 Co364 2.137 1_554 S
O376 C367 1.247 . S
O377 Co364 2.244 1_654 S
O377 C367 1.272 1_655 S
O377 Co369 2.135 1_554 S
Co378 O379 2.216 . S
Co378 O380 2.091 . S
Co378 O382 2.004 . S
Co378 O388 2.021 . S
Co378 O390 2.137 . S
Co378 O391 2.244 . S
O379 Co378 2.216 . S
O379 C386 1.247 . S
O380 Co378 2.091 . S
O380 C386 1.261 . S
C381 O390 1.247 . S
C381 O391 1.272 . S
O382 Co378 2.004 . S
O382 C387 1.259 . S
Co383 O384 2.061 . S
Co383 O389 2.052 . S
Co383 O391 2.135 . S
O384 Co383 2.061 . S
O384 C387 1.235 . S
C385 O388 1.238 . S
C385 O389 1.241 . S
C386 O379 1.247 . S
C386 O380 1.261 . S
C387 O382 1.259 . S
C387 O384 1.235 . S
O388 Co378 2.021 . S
O388 C385 1.238 . S
O389 Co383 2.052 . S
O389 C385 1.241 . S
O390 Co378 2.137 . S
O390 C381 1.247 . S
O391 Co378 2.244 . S
O391 C381 1.272 . S
O391 Co383 2.135 . S
Co392 O393 2.216 . S
Co392 O394 2.091 . S
Co392 O396 2.004 . S
Co392 O402 2.021 . S
Co392 O404 2.137 1_554 S
Co392 O405 2.244 1_554 S
O393 Co392 2.216 . S
O393 C400 1.247 . S
O394 Co392 2.091 . S
O394 C400 1.261 . S
C395 O404 1.247 . S
C395 O405 1.272 . S
O396 Co392 2.004 . S
O396 C401 1.259 . S
Co397 O398 2.061 . S
Co397 O403 2.052 . S
Co397 O405 2.135 1_554 S
O398 Co397 2.061 . S
O398 C401 1.235 . S
C399 O402 1.238 . S
C399 O403 1.241 . S
C400 O393 1.247 . S
C400 O394 1.261 . S
C401 O396 1.259 . S
C401 O398 1.235 . S
O402 Co392 2.021 . S
O402 C399 1.238 . S
O403 Co397 2.052 . S
O403 C399 1.241 . S
O404 Co392 2.137 1_556 S
O404 C395 1.247 . S
O405 Co392 2.244 1_556 S
O405 C395 1.272 . S
O405 Co397 2.135 1_556 S
Co406 O407 2.216 . S
Co406 O408 2.091 . S
Co406 O410 2.004 . S
Co406 O416 2.021 . S
Co406 O418 2.137 . S
Co406 O419 2.244 . S
O407 Co406 2.216 . S
O407 C414 1.247 . S
O408 Co406 2.091 . S
O408 C414 1.261 . S
C409 O418 1.247 . S
C409 O419 1.272 . S
O410 Co406 2.004 . S
O410 C415 1.259 . S
Co411 O412 2.061 . S
Co411 O417 2.052 . S
Co411 O419 2.135 . S
O412 Co411 2.061 . S
O412 C415 1.235 . S
C413 O416 1.238 . S
C413 O417 1.241 . S
C414 O407 1.247 . S
C414 O408 1.261 . S
C415 O410 1.259 . S
C415 O412 1.235 . S
O416 Co406 2.021 . S
O416 C413 1.238 . S
O417 Co411 2.052 . S
O417 C413 1.241 . S
O418 Co406 2.137 . S
O418 C409 1.247 . S
O419 Co406 2.244 . S
O419 C409 1.272 . S
O419 Co411 2.135 . S
Co420 O421 2.216 . S
Co420 O422 2.091 . S
Co420 O424 2.004 . S
Co420 O430 2.021 . S
Co420 O432 2.137 . S
Co420 O433 2.244 1_455 S
O421 Co420 2.216 . S
O421 C428 1.247 . S
O422 Co420 2.091 . S
O422 C428 1.261 . S
C423 O432 1.247 . S
C423 O433 1.272 1_455 S
O424 Co420 2.004 . S
O424 C429 1.259 . S
Co425 O426 2.061 . S
Co425 O431 2.052 . S
Co425 O433 2.135 . S
O426 Co425 2.061 . S
O426 C429 1.235 1_655 S
C427 O430 1.238 1_655 S
C427 O431 1.241 . S
C428 O421 1.247 . S
C428 O422 1.261 . S
C429 O424 1.259 . S
C429 O426 1.235 1_455 S
O430 Co420 2.021 . S
O430 C427 1.238 1_455 S
O431 Co425 2.052 . S
O431 C427 1.241 . S
O432 Co420 2.137 . S
O432 C423 1.247 . S
O433 Co420 2.244 1_655 S
O433 C423 1.272 1_655 S
O433 Co425 2.135 . S
Co434 O435 2.216 . S
Co434 O436 2.091 . S
Co434 O438 2.004 . S
Co434 O444 2.021 . S
Co434 O446 2.137 . S
Co434 O447 2.244 . S
O435 Co434 2.216 . S
O435 C442 1.247 . S
O436 Co434 2.091 . S
O436 C442 1.261 . S
C437 O446 1.247 . S
C437 O447 1.272 . S
O438 Co434 2.004 . S
O438 C443 1.259 . S
Co439 O440 2.061 . S
Co439 O445 2.052 . S
Co439 O447 2.135 . S
O440 Co439 2.061 . S
O440 C443 1.235 . S
C441 O444 1.238 . S
C441 O445 1.241 . S
C442 O435 1.247 . S
C442 O436 1.261 . S
C443 O438 1.259 . S
C443 O440 1.235 . S
O444 Co434 2.021 . S
O444 C441 1.238 . S
O445 Co439 2.052 . S
O445 C441 1.241 . S
O446 Co434 2.137 . S
O446 C437 1.247 . S
O447 Co434 2.244 . S
O447 C437 1.272 . S
O447 Co439 2.135 . S
C448 C449 1.363 . S
C448 C454 1.379 . S
C448 N456 1.356 . S
C449 C448 1.363 . S
C449 C455 1.354 1_455 S
C450 C451 1.362 1_655 S
C450 C455 1.383 . S
C450 N457 1.356 . S
C451 C450 1.362 1_455 S
C451 C454 1.365 . S
N452 C454 1.356 . S
N452 H464 0.984 . S
N452 H465 0.985 . S
N453 C455 1.361 . S
N453 H458 0.988 . S
N453 H459 0.985 . S
C454 C448 1.379 . S
C454 C451 1.365 . S
C454 N452 1.356 . S
C455 C449 1.354 1_655 S
C455 C450 1.383 . S
C455 N453 1.361 . S
N456 C448 1.356 . S
N456 H462 0.984 . S
N456 H463 0.984 . S
N457 C450 1.356 . S
N457 H460 0.984 . S
N457 H461 0.985 . S
H458 N453 0.988 . S
H459 N453 0.985 . S
H460 N457 0.984 . S
H461 N457 0.985 . S
H462 N456 0.984 . S
H463 N456 0.984 . S
H464 N452 0.984 . S
H465 N452 0.985 . S
C466 C467 1.363 1_554 S
C466 C472 1.379 . S
C466 N474 1.356 1_554 S
C467 C466 1.363 1_556 S
C467 C473 1.363 1_556 S
C468 C469 1.363 . S
C468 C473 1.379 . S
C468 N475 1.356 . S
C469 C468 1.363 . S
C469 C472 1.363 . S
N470 C472 1.356 . S
N470 H482 0.984 . S
N470 H483 0.985 . S
N471 C473 1.356 1_556 S
N471 H476 0.984 . S
N471 H477 0.985 . S
C472 C466 1.379 . S
C472 C469 1.363 . S
C472 N470 1.356 . S
C473 C467 1.363 1_554 S
C473 C468 1.379 . S
C473 N471 1.356 1_554 S
N474 C466 1.356 1_556 S
N474 H480 0.984 1_556 S
N474 H481 0.984 . S
N475 C468 1.356 . S
N475 H478 0.984 . S
N475 H479 0.985 . S
H476 N471 0.984 . S
H477 N471 0.985 . S
H478 N475 0.984 . S
H479 N475 0.985 . S
H480 N474 0.984 1_554 S
H481 N474 0.984 . S
H482 N470 0.984 . S
H483 N470 0.985 . S
C484 C485 1.363 . S
C484 C490 1.379 . S
C484 N492 1.356 . S
C485 C484 1.363 . S
C485 C491 1.363 . S
C486 C487 1.363 . S
C486 C491 1.379 . S
C486 N493 1.356 . S
C487 C486 1.363 . S
C487 C490 1.363 . S
N488 C490 1.356 . S
N488 H500 0.984 . S
N488 H501 0.985 . S
N489 C491 1.356 . S
N489 H494 0.984 . S
N489 H495 0.985 . S
C490 C484 1.379 . S
C490 C487 1.363 . S
C490 N488 1.356 . S
C491 C485 1.363 . S
C491 C486 1.379 . S
C491 N489 1.356 . S
N492 C484 1.356 . S
N492 H498 0.984 . S
N492 H499 0.984 . S
N493 C486 1.356 . S
N493 H496 0.984 . S
N493 H497 0.985 . S
H494 N489 0.984 . S
H495 N489 0.985 . S
H496 N493 0.984 . S
H497 N493 0.985 . S
H498 N492 0.984 . S
H499 N492 0.984 . S
H500 N488 0.984 . S
H501 N488 0.985 . S
C502 C503 1.363 . S
C502 C508 1.379 . S
C502 N510 1.356 . S
C503 C502 1.363 . S
C503 C509 1.363 . S
C504 C505 1.363 . S
C504 C509 1.379 . S
C504 N511 1.356 . S
C505 C504 1.363 . S
C505 C508 1.363 . S
N506 C508 1.356 . S
N506 H518 0.984 . S
N506 H519 0.985 . S
N507 C509 1.356 . S
N507 H512 0.984 . S
N507 H513 0.985 . S
C508 C502 1.379 . S
C508 C505 1.363 . S
C508 N506 1.356 . S
C509 C503 1.363 . S
C509 C504 1.379 . S
C509 N507 1.356 . S
N510 C502 1.356 . S
N510 H516 0.984 . S
N510 H517 0.984 . S
N511 C504 1.356 . S
N511 H514 0.984 . S
N511 H515 0.985 . S
H512 N507 0.984 . S
H513 N507 0.985 . S
H514 N511 0.984 . S
H515 N511 0.985 . S
H516 N510 0.984 . S
H517 N510 0.984 . S
H518 N506 0.984 . S
H519 N506 0.985 . S
C520 C521 1.363 . S
C520 C526 1.379 . S
C520 N528 1.356 . S
C521 C520 1.363 . S
C521 C527 1.363 1_455 S
C522 C523 1.359 1_655 S
C522 C527 1.379 . S
C522 N529 1.356 . S
C523 C522 1.359 1_455 S
C523 C526 1.367 . S
N524 C526 1.356 . S
N524 H536 0.984 . S
N524 H537 0.985 . S
N525 C527 1.356 . S
N525 H530 0.984 . S
N525 H531 0.985 . S
C526 C520 1.379 . S
C526 C523 1.367 . S
C526 N524 1.356 . S
C527 C521 1.363 1_655 S
C527 C522 1.379 . S
C527 N525 1.356 . S
N528 C520 1.356 . S
N528 H534 0.984 . S
N528 H535 0.984 . S
N529 C522 1.356 . S
N529 H532 0.984 . S
N529 H533 0.985 . S
H530 N525 0.984 . S
H531 N525 0.985 . S
H532 N529 0.984 . S
H533 N529 0.985 . S
H534 N528 0.984 . S
H535 N528 0.984 . S
H536 N524 0.984 . S
H537 N524 0.985 . S
C538 C539 1.363 . S
C538 C544 1.379 . S
C538 N546 1.356 . S
C539 C538 1.363 . S
C539 C545 1.363 . S
C540 C541 1.363 1_556 S
C540 C545 1.379 . S
C540 N547 1.356 1_556 S
C541 C540 1.363 1_554 S
C541 C544 1.363 1_554 S
N542 C544 1.356 1_554 S
N542 H554 0.984 . S
N542 H555 0.985 . S
N543 C545 1.356 . S
N543 H548 0.984 . S
N543 H549 0.985 . S
C544 C538 1.379 . S
C544 C541 1.363 1_556 S
C544 N542 1.356 1_556 S
C545 C539 1.363 . S
C545 C540 1.379 . S
C545 N543 1.356 . S
N546 C538 1.356 . S
N546 H552 0.984 . S
N546 H553 0.984 . S
N547 C540 1.356 1_554 S
N547 H550 0.984 . S
N547 H551 0.985 . S
H548 N543 0.984 . S
H549 N543 0.985 . S
H550 N547 0.984 . S
H551 N547 0.985 . S
H552 N546 0.984 . S
H553 N546 0.984 . S
H554 N542 0.984 . S
H555 N542 0.985 . S
C556 C557 1.363 . S
C556 C562 1.379 . S
C556 N564 1.356 . S
C557 C556 1.363 . S
C557 C563 1.363 . S
C558 C559 1.363 . S
C558 C563 1.379 . S
C558 N565 1.356 . S
C559 C558 1.363 . S
C559 C562 1.363 . S
N560 C562 1.356 . S
N560 H572 0.984 . S
N560 H573 0.985 . S
N561 C563 1.356 . S
N561 H566 0.984 . S
N561 H567 0.985 . S
C562 C556 1.379 . S
C562 C559 1.363 . S
C562 N560 1.356 . S
C563 C557 1.363 . S
C563 C558 1.379 . S
C563 N561 1.356 . S
N564 C556 1.356 . S
N564 H570 0.984 . S
N564 H571 0.984 . S
N565 C558 1.356 . S
N565 H568 0.984 . S
N565 H569 0.985 . S
H566 N561 0.984 . S
H567 N561 0.985 . S
H568 N565 0.984 . S
H569 N565 0.985 . S
H570 N564 0.984 . S
H571 N564 0.984 . S
H572 N560 0.984 . S
H573 N560 0.985 . S
C574 C575 1.363 . S
C574 C580 1.379 . S
C574 N582 1.356 . S
C575 C574 1.363 . S
C575 C581 1.363 . S
C576 C577 1.363 . S
C576 C581 1.379 . S
C576 N583 1.356 . S
C577 C576 1.363 . S
C577 C580 1.363 . S
N578 C580 1.356 . S
N578 H590 0.984 . S
N578 H591 0.985 . S
N579 C581 1.356 . S
N579 H584 0.984 . S
N579 H585 0.985 . S
C580 C574 1.379 . S
C580 C577 1.363 . S
C580 N578 1.356 . S
C581 C575 1.363 . S
C581 C576 1.379 . S
C581 N579 1.356 . S
N582 C574 1.356 . S
N582 H588 0.984 . S
N582 H589 0.984 . S
N583 C576 1.356 . S
N583 H586 0.984 . S
N583 H587 0.985 . S
H584 N579 0.984 . S
H585 N579 0.985 . S
H586 N583 0.984 . S
H587 N583 0.985 . S
H588 N582 0.984 . S
H589 N582 0.984 . S
H590 N578 0.984 . S
H591 N578 0.985 . S
C592 C593 1.363 . S
C592 C598 1.379 . S
C592 N600 1.356 . S
C593 C592 1.363 . S
C593 C599 1.363 1_655 S
C594 C595 1.359 1_455 S
C594 C599 1.379 . S
C594 N601 1.356 . S
C595 C594 1.359 1_655 S
C595 C598 1.367 . S
N596 C598 1.356 . S
N596 H608 0.984 . S
N596 H609 0.985 . S
N597 C599 1.356 . S
N597 H602 0.984 . S
N597 H603 0.985 . S
C598 C592 1.379 . S
C598 C595 1.367 . S
C598 N596 1.356 . S
C599 C593 1.363 1_455 S
C599 C594 1.379 . S
C599 N597 1.356 . S
N600 C592 1.356 . S
N600 H606 0.984 . S
N600 H607 0.984 . S
N601 C594 1.356 . S
N601 H604 0.984 . S
N601 H605 0.985 . S
H602 N597 0.984 . S
H603 N597 0.985 . S
H604 N601 0.984 . S
H605 N601 0.985 . S
H606 N600 0.984 . S
H607 N600 0.984 . S
H608 N596 0.984 . S
H609 N596 0.985 . S
C610 C611 1.363 1_556 S
C610 C616 1.379 . S
C610 N618 1.356 1_556 S
C611 C610 1.363 1_554 S
C611 C617 1.363 1_554 S
C612 C613 1.363 . S
C612 C617 1.379 . S
C612 N619 1.356 . S
C613 C612 1.363 . S
C613 C616 1.363 . S
N614 C616 1.356 . S
N614 H626 0.984 . S
N614 H627 0.985 . S
N615 C617 1.356 1_554 S
N615 H620 0.984 . S
N615 H621 0.985 . S
C616 C610 1.379 . S
C616 C613 1.363 . S
C616 N614 1.356 . S
C617 C611 1.363 1_556 S
C617 C612 1.379 . S
C617 N615 1.356 1_556 S
N618 C610 1.356 1_554 S
N618 H624 0.984 . S
N618 H625 0.984 . S
N619 C612 1.356 . S
N619 H622 0.984 . S
N619 H623 0.985 . S
H620 N615 0.984 . S
H621 N615 0.985 . S
H622 N619 0.984 . S
H623 N619 0.985 . S
H624 N618 0.984 . S
H625 N618 0.984 . S
H626 N614 0.984 . S
H627 N614 0.985 . S
C628 C629 1.363 . S
C628 C634 1.379 . S
C628 N636 1.356 . S
C629 C628 1.363 . S
C629 C635 1.363 . S
C630 C631 1.363 . S
C630 C635 1.379 . S
C630 N637 1.356 . S
C631 C630 1.363 . S
C631 C634 1.363 . S
N632 C634 1.356 . S
N632 H644 0.984 . S
N632 H645 0.985 . S
N633 C635 1.356 . S
N633 H638 0.984 . S
N633 H639 0.985 . S
C634 C628 1.379 . S
C634 C631 1.363 . S
C634 N632 1.356 . S
C635 C629 1.363 . S
C635 C630 1.379 . S
C635 N633 1.356 . S
N636 C628 1.356 . S
N636 H642 0.984 . S
N636 H643 0.984 . S
N637 C630 1.356 . S
N637 H640 0.984 . S
N637 H641 0.985 . S
H638 N633 0.984 . S
H639 N633 0.985 . S
H640 N637 0.984 . S
H641 N637 0.985 . S
H642 N636 0.984 . S
H643 N636 0.984 . S
H644 N632 0.984 . S
H645 N632 0.985 . S
C646 C647 1.363 . S
C646 C652 1.379 . S
C646 N654 1.356 . S
C647 C646 1.363 . S
C647 C653 1.363 . S
C648 C649 1.363 . S
C648 C653 1.379 . S
C648 N655 1.356 . S
C649 C648 1.363 . S
C649 C652 1.363 . S
N650 C652 1.356 . S
N650 H662 0.984 . S
N650 H663 0.985 . S
N651 C653 1.356 . S
N651 H656 0.984 . S
N651 H657 0.985 . S
C652 C646 1.379 . S
C652 C649 1.363 . S
C652 N650 1.356 . S
C653 C647 1.363 . S
C653 C648 1.379 . S
C653 N651 1.356 . S
N654 C646 1.356 . S
N654 H660 0.984 . S
N654 H661 0.984 . S
N655 C648 1.356 . S
N655 H658 0.984 . S
N655 H659 0.985 . S
H656 N651 0.984 . S
H657 N651 0.985 . S
H658 N655 0.984 . S
H659 N655 0.985 . S
H660 N654 0.984 . S
H661 N654 0.984 . S
H662 N650 0.984 . S
H663 N650 0.985 . S
C664 C665 1.359 1_455 S
C664 C670 1.379 . S
C664 N672 1.356 . S
C665 C664 1.359 1_655 S
C665 C671 1.368 . S
C666 C667 1.363 . S
C666 C671 1.379 . S
C666 N673 1.356 . S
C667 C666 1.363 . S
C667 C670 1.363 1_655 S
N668 C670 1.356 . S
N668 H680 0.984 . S
N668 H681 0.985 . S
N669 C671 1.356 . S
N669 H674 0.984 . S
N669 H675 0.985 . S
C670 C664 1.379 . S
C670 C667 1.363 1_455 S
C670 N668 1.356 . S
C671 C665 1.368 . S
C671 C666 1.379 . S
C671 N669 1.356 . S
N672 C664 1.356 . S
N672 H678 0.984 . S
N672 H679 0.984 . S
N673 C666 1.356 . S
N673 H676 0.984 . S
N673 H677 0.985 . S
H674 N669 0.984 . S
H675 N669 0.985 . S
H676 N673 0.984 . S
H677 N673 0.985 . S
H678 N672 0.984 . S
H679 N672 0.984 . S
H680 N668 0.984 . S
H681 N668 0.985 . S
C682 C683 1.363 . S
C682 C688 1.379 . S
C682 N690 1.356 . S
C683 C682 1.363 . S
C683 C689 1.363 . S
C684 C685 1.363 1_554 S
C684 C689 1.379 . S
C684 N691 1.356 1_554 S
C685 C684 1.363 1_556 S
C685 C688 1.363 1_556 S
N686 C688 1.356 1_556 S
N686 H698 0.984 1_556 S
N686 H699 0.985 . S
N687 C689 1.356 . S
N687 H692 0.984 . S
N687 H693 0.985 . S
C688 C682 1.379 . S
C688 C685 1.363 1_554 S
C688 N686 1.356 1_554 S
C689 C683 1.363 . S
C689 C684 1.379 . S
C689 N687 1.356 . S
N690 C682 1.356 . S
N690 H696 0.984 . S
N690 H697 0.984 . S
N691 C684 1.356 1_556 S
N691 H694 0.984 . S
N691 H695 0.985 . S
H692 N687 0.984 . S
H693 N687 0.985 . S
H694 N691 0.984 . S
H695 N691 0.985 . S
H696 N690 0.984 . S
H697 N690 0.984 . S
H698 N686 0.984 1_554 S
H699 N686 0.985 . S
C700 C701 1.363 . S
C700 C706 1.379 . S
C700 N708 1.356 . S
C701 C700 1.363 . S
C701 C707 1.363 . S
C702 C703 1.363 . S
C702 C707 1.379 . S
C702 N709 1.356 . S
C703 C702 1.363 . S
C703 C706 1.363 . S
N704 C706 1.356 . S
N704 H716 0.984 . S
N704 H717 0.985 . S
N705 C707 1.356 . S
N705 H710 0.984 . S
N705 H711 0.985 . S
C706 C700 1.379 . S
C706 C703 1.363 . S
C706 N704 1.356 . S
C707 C701 1.363 . S
C707 C702 1.379 . S
C707 N705 1.356 . S
N708 C700 1.356 . S
N708 H714 0.984 . S
N708 H715 0.984 . S
N709 C702 1.356 . S
N709 H712 0.984 . S
N709 H713 0.985 . S
H710 N705 0.984 . S
H711 N705 0.985 . S
H712 N709 0.984 . S
H713 N709 0.985 . S
H714 N708 0.984 . S
H715 N708 0.984 . S
H716 N704 0.984 . S
H717 N704 0.985 . S
C718 C719 1.363 . S
C718 C724 1.379 . S
C718 N726 1.356 . S
C719 C718 1.363 . S
C719 C725 1.363 . S
C720 C721 1.363 . S
C720 C725 1.379 . S
C720 N727 1.356 . S
C721 C720 1.363 . S
C721 C724 1.363 . S
N722 C724 1.356 . S
N722 H734 0.984 . S
N722 H735 0.985 . S
N723 C725 1.356 . S
N723 H728 0.984 . S
N723 H729 0.985 . S
C724 C718 1.379 . S
C724 C721 1.363 . S
C724 N722 1.356 . S
C725 C719 1.363 . S
C725 C720 1.379 . S
C725 N723 1.356 . S
N726 C718 1.356 . S
N726 H732 0.984 . S
N726 H733 0.984 . S
N727 C720 1.356 . S
N727 H730 0.984 . S
N727 H731 0.985 . S
H728 N723 0.984 . S
H729 N723 0.985 . S
H730 N727 0.984 . S
H731 N727 0.985 . S
H732 N726 0.984 . S
H733 N726 0.984 . S
H734 N722 0.984 . S
H735 N722 0.985 . S
C736 C737 1.363 . S
C736 C742 1.379 . S
C736 N744 1.356 . S
C737 C736 1.363 . S
C737 C743 1.363 . S
C738 C739 1.363 . S
C738 C743 1.379 . S
C738 N745 1.356 . S
C739 C738 1.363 . S
C739 C742 1.363 . S
N740 C742 1.356 . S
N740 H752 0.984 . S
N740 H753 0.985 . S
N741 C743 1.356 . S
N741 H746 0.984 . S
N741 H747 0.985 . S
C742 C736 1.379 . S
C742 C739 1.363 . S
C742 N740 1.356 . S
C743 C737 1.363 . S
C743 C738 1.379 . S
C743 N741 1.356 . S
N744 C736 1.356 . S
N744 H750 0.984 . S
N744 H751 0.984 . S
N745 C738 1.356 . S
N745 H748 0.984 . S
N745 H749 0.985 . S
H746 N741 0.984 . S
H747 N741 0.985 . S
H748 N745 0.984 . S
H749 N745 0.985 . S
H750 N744 0.984 . S
H751 N744 0.984 . S
H752 N740 0.984 . S
H753 N740 0.985 . S
C754 C755 1.363 . S
C754 C760 1.379 . S
C754 N762 1.356 . S
C755 C754 1.363 . S
C755 C761 1.363 . S
C756 C757 1.363 . S
C756 C761 1.379 . S
C756 N763 1.356 . S
C757 C756 1.363 . S
C757 C760 1.363 . S
N758 C760 1.356 . S
N758 H770 0.984 . S
N758 H771 0.985 . S
N759 C761 1.356 . S
N759 H764 0.984 . S
N759 H765 0.985 . S
C760 C754 1.379 . S
C760 C757 1.363 . S
C760 N758 1.356 . S
C761 C755 1.363 . S
C761 C756 1.379 . S
C761 N759 1.356 . S
N762 C754 1.356 . S
N762 H768 0.984 . S
N762 H769 0.984 . S
N763 C756 1.356 . S
N763 H766 0.984 . S
N763 H767 0.985 . S
H764 N759 0.984 . S
H765 N759 0.985 . S
H766 N763 0.984 . S
H767 N763 0.985 . S
H768 N762 0.984 . S
H769 N762 0.984 . S
H770 N758 0.984 . S
H771 N758 0.985 . S
C772 C773 1.363 . S
C772 C778 1.379 . S
C772 N780 1.356 . S
C773 C772 1.363 . S
C773 C779 1.363 1_655 S
C774 C775 1.359 1_455 S
C774 C779 1.379 . S
C774 N781 1.356 . S
C775 C774 1.359 1_655 S
C775 C778 1.368 . S
N776 C778 1.356 . S
N776 H788 0.984 . S
N776 H789 0.985 . S
N777 C779 1.356 . S
N777 H782 0.984 . S
N777 H783 0.985 . S
C778 C772 1.379 . S
C778 C775 1.368 . S
C778 N776 1.356 . S
C779 C773 1.363 1_455 S
C779 C774 1.379 . S
C779 N777 1.356 . S
N780 C772 1.356 . S
N780 H786 0.984 . S
N780 H787 0.984 . S
N781 C774 1.356 . S
N781 H784 0.984 . S
N781 H785 0.985 . S
H782 N777 0.984 . S
H783 N777 0.985 . S
H784 N781 0.984 . S
H785 N781 0.985 . S
H786 N780 0.984 . S
H787 N780 0.984 . S
H788 N776 0.984 . S
H789 N776 0.985 . S
C790 C791 1.363 . S
C790 C796 1.379 . S
C790 N798 1.356 . S
C791 C790 1.363 . S
C791 C797 1.363 . S
C792 C793 1.363 1_554 S
C792 C797 1.379 . S
C792 N799 1.356 1_554 S
C793 C792 1.363 1_556 S
C793 C796 1.363 1_556 S
N794 C796 1.356 1_556 S
N794 H806 0.984 . S
N794 H807 0.985 . S
N795 C797 1.356 . S
N795 H800 0.984 . S
N795 H801 0.985 . S
C796 C790 1.379 . S
C796 C793 1.363 1_554 S
C796 N794 1.356 1_554 S
C797 C791 1.363 . S
C797 C792 1.379 . S
C797 N795 1.356 . S
N798 C790 1.356 . S
N798 H804 0.984 . S
N798 H805 0.984 . S
N799 C792 1.356 1_556 S
N799 H802 0.984 . S
N799 H803 0.985 . S
H800 N795 0.984 . S
H801 N795 0.985 . S
H802 N799 0.984 . S
H803 N799 0.985 . S
H804 N798 0.984 . S
H805 N798 0.984 . S
H806 N794 0.984 . S
H807 N794 0.985 . S
C808 C809 1.363 . S
C808 C814 1.379 . S
C808 N816 1.356 . S
C809 C808 1.363 . S
C809 C815 1.363 . S
C810 C811 1.363 . S
C810 C815 1.379 . S
C810 N817 1.356 . S
C811 C810 1.363 . S
C811 C814 1.363 . S
N812 C814 1.356 . S
N812 H824 0.984 . S
N812 H825 0.985 . S
N813 C815 1.356 . S
N813 H818 0.984 . S
N813 H819 0.985 . S
C814 C808 1.379 . S
C814 C811 1.363 . S
C814 N812 1.356 . S
C815 C809 1.363 . S
C815 C810 1.379 . S
C815 N813 1.356 . S
N816 C808 1.356 . S
N816 H822 0.984 . S
N816 H823 0.984 . S
N817 C810 1.356 . S
N817 H820 0.984 . S
N817 H821 0.985 . S
H818 N813 0.984 . S
H819 N813 0.985 . S
H820 N817 0.984 . S
H821 N817 0.985 . S
H822 N816 0.984 . S
H823 N816 0.984 . S
H824 N812 0.984 . S
H825 N812 0.985 . S
C826 C827 1.363 . S
C826 C832 1.379 . S
C826 N834 1.356 . S
C827 C826 1.363 . S
C827 C833 1.363 . S
C828 C829 1.363 . S
C828 C833 1.379 . S
C828 N835 1.356 . S
C829 C828 1.363 . S
C829 C832 1.363 . S
N830 C832 1.356 . S
N830 H842 0.984 . S
N830 H843 0.985 . S
N831 C833 1.356 . S
N831 H836 0.984 . S
N831 H837 0.985 . S
C832 C826 1.379 . S
C832 C829 1.363 . S
C832 N830 1.356 . S
C833 C827 1.363 . S
C833 C828 1.379 . S
C833 N831 1.356 . S
N834 C826 1.356 . S
N834 H840 0.984 . S
N834 H841 0.984 . S
N835 C828 1.356 . S
N835 H838 0.984 . S
N835 H839 0.985 . S
H836 N831 0.984 . S
H837 N831 0.985 . S
H838 N835 0.984 . S
H839 N835 0.985 . S
H840 N834 0.984 . S
H841 N834 0.984 . S
H842 N830 0.984 . S
H843 N830 0.985 . S
C844 C845 1.363 1_455 S
C844 C850 1.379 . S
C844 N852 1.356 . S
C845 C844 1.363 1_655 S
C845 C851 1.363 . S
C846 C847 1.367 . S
C846 C851 1.379 . S
C846 N853 1.356 . S
C847 C846 1.367 . S
C847 C850 1.360 1_655 S
N848 C850 1.356 . S
N848 H860 0.984 . S
N848 H861 0.985 . S
N849 C851 1.356 . S
N849 H854 0.984 . S
N849 H855 0.985 . S
C850 C844 1.379 . S
C850 C847 1.360 1_455 S
C850 N848 1.356 . S
C851 C845 1.363 . S
C851 C846 1.379 . S
C851 N849 1.356 . S
N852 C844 1.356 . S
N852 H858 0.984 . S
N852 H859 0.984 . S
N853 C846 1.356 . S
N853 H856 0.984 . S
N853 H857 0.985 . S
H854 N849 0.984 . S
H855 N849 0.985 . S
H856 N853 0.984 . S
H857 N853 0.985 . S
H858 N852 0.984 . S
H859 N852 0.984 . S
H860 N848 0.984 . S
H861 N848 0.985 . S
C862 C863 1.363 1_556 S
C862 C868 1.379 . S
C862 N870 1.356 1_556 S
C863 C862 1.363 1_554 S
C863 C869 1.363 1_554 S
C864 C865 1.363 . S
C864 C869 1.379 . S
C864 N871 1.356 . S
C865 C864 1.363 . S
C865 C868 1.363 . S
N866 C868 1.356 . S
N866 H878 0.984 . S
N866 H879 0.985 . S
N867 C869 1.356 1_554 S
N867 H872 0.984 . S
N867 H873 0.985 . S
C868 C862 1.379 . S
C868 C865 1.363 . S
C868 N866 1.356 . S
C869 C863 1.363 1_556 S
C869 C864 1.379 . S
C869 N867 1.356 1_556 S
N870 C862 1.356 1_554 S
N870 H876 0.984 1_554 S
N870 H877 0.984 . S
N871 C864 1.356 . S
N871 H874 0.984 . S
N871 H875 0.985 . S
H872 N867 0.984 . S
H873 N867 0.985 . S
H874 N871 0.984 . S
H875 N871 0.985 . S
H876 N870 0.984 1_556 S
H877 N870 0.984 . S
H878 N866 0.984 . S
H879 N866 0.985 . S
C880 C881 1.363 . S
C880 C886 1.379 . S
C880 N888 1.356 . S
C881 C880 1.363 . S
C881 C887 1.363 . S
C882 C883 1.363 . S
C882 C887 1.379 . S
C882 N889 1.356 . S
C883 C882 1.363 . S
C883 C886 1.363 . S
N884 C886 1.356 . S
N884 H896 0.984 . S
N884 H897 0.985 . S
N885 C887 1.356 . S
N885 H890 0.984 . S
N885 H891 0.985 . S
C886 C880 1.379 . S
C886 C883 1.363 . S
C886 N884 1.356 . S
C887 C881 1.363 . S
C887 C882 1.379 . S
C887 N885 1.356 . S
N888 C880 1.356 . S
N888 H894 0.984 . S
N888 H895 0.984 . S
N889 C882 1.356 . S
N889 H892 0.984 . S
N889 H893 0.985 . S
H890 N885 0.984 . S
H891 N885 0.985 . S
H892 N889 0.984 . S
H893 N889 0.985 . S
H894 N888 0.984 . S
H895 N888 0.984 . S
H896 N884 0.984 . S
H897 N884 0.985 . S
C898 C899 1.363 . S
C898 C904 1.379 . S
C898 N906 1.356 . S
C899 C898 1.363 . S
C899 C905 1.363 . S
C900 C901 1.363 . S
C900 C905 1.379 . S
C900 N907 1.356 . S
C901 C900 1.363 . S
C901 C904 1.363 . S
N902 C904 1.356 . S
N902 H914 0.984 . S
N902 H915 0.985 . S
N903 C905 1.356 . S
N903 H908 0.984 . S
N903 H909 0.985 . S
C904 C898 1.379 . S
C904 C901 1.363 . S
C904 N902 1.356 . S
C905 C899 1.363 . S
C905 C900 1.379 . S
C905 N903 1.356 . S
N906 C898 1.356 . S
N906 H912 0.984 . S
N906 H913 0.984 . S
N907 C900 1.356 . S
N907 H910 0.984 . S
N907 H911 0.985 . S
H908 N903 0.984 . S
H909 N903 0.985 . S
H910 N907 0.984 . S
H911 N907 0.985 . S
H912 N906 0.984 . S
H913 N906 0.984 . S
H914 N902 0.984 . S
H915 N902 0.985 . S
C916 C917 1.367 . S
C916 C922 1.379 . S
C916 N924 1.356 . S
C917 C916 1.367 . S
C917 C923 1.360 1_455 S
C918 C919 1.363 1_655 S
C918 C923 1.379 . S
C918 N925 1.356 . S
C919 C918 1.363 1_455 S
C919 C922 1.363 . S
N920 C922 1.356 . S
N920 H932 0.984 . S
N920 H933 0.985 . S
N921 C923 1.356 . S
N921 H926 0.984 . S
N921 H927 0.985 . S
C922 C916 1.379 . S
C922 C919 1.363 . S
C922 N920 1.356 . S
C923 C917 1.360 1_655 S
C923 C918 1.379 . S
C923 N921 1.356 . S
N924 C916 1.356 . S
N924 H930 0.984 . S
N924 H931 0.984 . S
N925 C918 1.356 . S
N925 H928 0.984 . S
N925 H929 0.985 . S
H926 N921 0.984 . S
H927 N921 0.985 . S
H928 N925 0.984 . S
H929 N925 0.985 . S
H930 N924 0.984 . S
H931 N924 0.984 . S
H932 N920 0.984 . S
H933 N920 0.985 . S
C934 C935 1.363 . S
C934 C940 1.379 . S
C934 N942 1.356 . S
C935 C934 1.363 . S
C935 C941 1.363 . S
C936 C937 1.363 1_556 S
C936 C941 1.379 . S
C936 N943 1.356 1_556 S
C937 C936 1.363 1_554 S
C937 C940 1.363 1_554 S
N938 C940 1.356 1_554 S
N938 H950 0.984 . S
N938 H951 0.985 . S
N939 C941 1.356 . S
N939 H944 0.984 . S
N939 H945 0.985 . S
C940 C934 1.379 . S
C940 C937 1.363 1_556 S
C940 N938 1.356 1_556 S
C941 C935 1.363 . S
C941 C936 1.379 . S
C941 N939 1.356 . S
N942 C934 1.356 . S
N942 H948 0.984 . S
N942 H949 0.984 . S
N943 C936 1.356 1_554 S
N943 H946 0.984 . S
N943 H947 0.985 1_554 S
H944 N939 0.984 . S
H945 N939 0.985 . S
H946 N943 0.984 . S
H947 N943 0.985 1_556 S
H948 N942 0.984 . S
H949 N942 0.984 . S
H950 N938 0.984 . S
H951 N938 0.985 . S
C952 C953 1.363 . S
C952 C958 1.379 . S
C952 N960 1.356 . S
C953 C952 1.363 . S
C953 C959 1.363 . S
C954 C955 1.363 . S
C954 C959 1.379 . S
C954 N961 1.356 . S
C955 C954 1.363 . S
C955 C958 1.363 . S
N956 C958 1.356 . S
N956 H968 0.984 . S
N956 H969 0.985 . S
N957 C959 1.356 . S
N957 H962 0.984 . S
N957 H963 0.985 . S
C958 C952 1.379 . S
C958 C955 1.363 . S
C958 N956 1.356 . S
C959 C953 1.363 . S
C959 C954 1.379 . S
C959 N957 1.356 . S
N960 C952 1.356 . S
N960 H966 0.984 . S
N960 H967 0.984 . S
N961 C954 1.356 . S
N961 H964 0.984 . S
N961 H965 0.985 . S
H962 N957 0.984 . S
H963 N957 0.985 . S
H964 N961 0.984 . S
H965 N961 0.985 . S
H966 N960 0.984 . S
H967 N960 0.984 . S
H968 N956 0.984 . S
H969 N956 0.985 . S
C970 C971 1.363 . S
C970 C976 1.379 . S
C970 N978 1.356 . S
C971 C970 1.363 . S
C971 C977 1.363 . S
C972 C973 1.363 . S
C972 C977 1.379 . S
C972 N979 1.356 . S
C973 C972 1.363 . S
C973 C976 1.363 . S
N974 C976 1.356 . S
N974 H986 0.984 . S
N974 H987 0.985 . S
N975 C977 1.356 . S
N975 H980 0.984 . S
N975 H981 0.985 . S
C976 C970 1.379 . S
C976 C973 1.363 . S
C976 N974 1.356 . S
C977 C971 1.363 . S
C977 C972 1.379 . S
C977 N975 1.356 . S
N978 C970 1.356 . S
N978 H984 0.984 . S
N978 H985 0.984 . S
N979 C972 1.356 . S
N979 H982 0.984 . S
N979 H983 0.985 . S
H980 N975 0.984 . S
H981 N975 0.985 . S
H982 N979 0.984 . S
H983 N979 0.985 . S
H984 N978 0.984 . S
H985 N978 0.984 . S
H986 N974 0.984 . S
H987 N974 0.985 . S
C988 C989 1.363 . S
C988 C994 1.379 . S
C988 N996 1.356 . S
C989 C988 1.363 . S
C989 C995 1.363 1_455 S
C990 C991 1.360 1_655 S
C990 C995 1.379 . S
C990 N997 1.356 . S
C991 C990 1.360 1_455 S
C991 C994 1.367 . S
N992 C994 1.356 . S
N992 H1004 0.984 . S
N992 H1005 0.985 . S
N993 C995 1.356 . S
N993 H998 0.984 . S
N993 H999 0.985 . S
C994 C988 1.379 . S
C994 C991 1.367 . S
C994 N992 1.356 . S
C995 C989 1.363 1_655 S
C995 C990 1.379 . S
C995 N993 1.356 . S
N996 C988 1.356 . S
N996 H1002 0.984 . S
N996 H1003 0.984 . S
N997 C990 1.356 . S
N997 H1000 0.984 . S
N997 H1001 0.985 . S
H998 N993 0.984 . S
H999 N993 0.985 . S
H1000 N997 0.984 . S
H1001 N997 0.985 . S
H1002 N996 0.984 . S
H1003 N996 0.984 . S
H1004 N992 0.984 . S
H1005 N992 0.985 . S
C1006 C1007 1.363 . S
C1006 C1012 1.379 . S
C1006 N1014 1.356 . S
C1007 C1006 1.363 . S
C1007 C1013 1.363 . S
C1008 C1009 1.363 1_554 S
C1008 C1013 1.379 . S
C1008 N1015 1.356 1_554 S
C1009 C1008 1.363 1_556 S
C1009 C1012 1.363 1_556 S
N1010 C1012 1.356 1_556 S
N1010 H1022 0.984 . S
N1010 H1023 0.985 . S
N1011 C1013 1.356 . S
N1011 H1016 0.984 . S
N1011 H1017 0.985 . S
C1012 C1006 1.379 . S
C1012 C1009 1.363 1_554 S
C1012 N1010 1.356 1_554 S
C1013 C1007 1.363 . S
C1013 C1008 1.379 . S
C1013 N1011 1.356 . S
N1014 C1006 1.356 . S
N1014 H1020 0.984 . S
N1014 H1021 0.984 . S
N1015 C1008 1.356 1_556 S
N1015 H1018 0.984 . S
N1015 H1019 0.985 1_556 S
H1016 N1011 0.984 . S
H1017 N1011 0.985 . S
H1018 N1015 0.984 . S
H1019 N1015 0.985 1_554 S
H1020 N1014 0.984 . S
H1021 N1014 0.984 . S
H1022 N1010 0.984 . S
H1023 N1010 0.985 . S
C1024 C1025 1.363 . S
C1024 C1030 1.379 1_445 S
C1024 N1032 1.356 . S
C1025 C1024 1.363 . S
C1025 C1031 1.363 1_554 S
C1026 C1027 1.363 . S
C1026 C1031 1.379 1_665 S
C1026 N1033 1.356 . S
C1027 C1026 1.363 . S
C1027 C1030 1.363 1_556 S
N1028 C1030 1.356 . S
N1028 H1040 0.984 . S
N1028 H1041 0.985 . S
N1029 C1031 1.356 . S
N1029 H1034 0.984 . S
N1029 H1035 0.985 . S
C1030 C1024 1.379 1_665 S
C1030 C1027 1.363 1_554 S
C1030 N1028 1.356 . S
C1031 C1025 1.363 1_556 S
C1031 C1026 1.379 1_445 S
C1031 N1029 1.356 . S
N1032 C1024 1.356 . S
N1032 H1038 0.984 . S
N1032 H1039 0.984 . S
N1033 C1026 1.356 . S
N1033 H1036 0.984 . S
N1033 H1037 0.985 . S
H1034 N1029 0.984 . S
H1035 N1029 0.985 . S
H1036 N1033 0.984 . S
H1037 N1033 0.985 . S
H1038 N1032 0.984 . S
H1039 N1032 0.984 . S
H1040 N1028 0.984 . S
H1041 N1028 0.985 . S
C1042 C1043 1.363 . S
C1042 C1048 1.379 . S
C1042 N1050 1.356 . S
C1043 C1042 1.363 . S
C1043 C1049 1.363 . S
C1044 C1045 1.363 . S
C1044 C1049 1.379 . S
C1044 N1051 1.356 . S
C1045 C1044 1.363 . S
C1045 C1048 1.363 . S
N1046 C1048 1.356 . S
N1046 H1058 0.984 . S
N1046 H1059 0.985 . S
N1047 C1049 1.356 . S
N1047 H1052 0.984 . S
N1047 H1053 0.985 . S
C1048 C1042 1.379 . S
C1048 C1045 1.363 . S
C1048 N1046 1.356 . S
C1049 C1043 1.363 . S
C1049 C1044 1.379 . S
C1049 N1047 1.356 . S
N1050 C1042 1.356 . S
N1050 H1056 0.984 . S
N1050 H1057 0.984 . S
N1051 C1044 1.356 . S
N1051 H1054 0.984 . S
N1051 H1055 0.985 . S
H1052 N1047 0.984 . S
H1053 N1047 0.985 . S
H1054 N1051 0.984 . S
H1055 N1051 0.985 . S
H1056 N1050 0.984 . S
H1057 N1050 0.984 . S
H1058 N1046 0.984 . S
H1059 N1046 0.985 . S
C1060 C1061 1.363 . S
C1060 C1066 1.379 1_545 S
C1060 N1068 1.356 . S
C1061 C1060 1.363 . S
C1061 C1067 1.363 . S
C1062 C1063 1.363 . S
C1062 C1067 1.379 1_565 S
C1062 N1069 1.356 . S
C1063 C1062 1.363 . S
C1063 C1066 1.363 . S
N1064 C1066 1.356 . S
N1064 H1076 0.984 . S
N1064 H1077 0.985 . S
N1065 C1067 1.356 . S
N1065 H1070 0.984 . S
N1065 H1071 0.985 . S
C1066 C1060 1.379 1_565 S
C1066 C1063 1.363 . S
C1066 N1064 1.356 . S
C1067 C1061 1.363 . S
C1067 C1062 1.379 1_545 S
C1067 N1065 1.356 . S
N1068 C1060 1.356 . S
N1068 H1074 0.984 . S
N1068 H1075 0.984 . S
N1069 C1062 1.356 . S
N1069 H1072 0.984 . S
N1069 H1073 0.985 . S
H1070 N1065 0.984 . S
H1071 N1065 0.985 . S
H1072 N1069 0.984 . S
H1073 N1069 0.985 . S
H1074 N1068 0.984 . S
H1075 N1068 0.984 . S
H1076 N1064 0.984 . S
H1077 N1064 0.985 . S
C1078 C1079 1.363 . S
C1078 C1084 1.379 . S
C1078 N1086 1.356 . S
C1079 C1078 1.363 . S
C1079 C1085 1.363 . S
C1080 C1081 1.363 . S
C1080 C1085 1.379 . S
C1080 N1087 1.356 . S
C1081 C1080 1.363 . S
C1081 C1084 1.363 . S
N1082 C1084 1.356 . S
N1082 H1094 0.984 . S
N1082 H1095 0.985 . S
N1083 C1085 1.356 . S
N1083 H1088 0.984 . S
N1083 H1089 0.985 . S
C1084 C1078 1.379 . S
C1084 C1081 1.363 . S
C1084 N1082 1.356 . S
C1085 C1079 1.363 . S
C1085 C1080 1.379 . S
C1085 N1083 1.356 . S
N1086 C1078 1.356 . S
N1086 H1092 0.984 . S
N1086 H1093 0.984 . S
N1087 C1080 1.356 . S
N1087 H1090 0.984 . S
N1087 H1091 0.985 . S
H1088 N1083 0.984 . S
H1089 N1083 0.985 . S
H1090 N1087 0.984 . S
H1091 N1087 0.985 . S
H1092 N1086 0.984 . S
H1093 N1086 0.984 . S
H1094 N1082 0.984 . S
H1095 N1082 0.985 . S
C1096 C1097 1.363 1_655 S
C1096 C1102 1.379 . S
C1096 N1104 1.356 . S
C1097 C1096 1.363 1_455 S
C1097 C1103 1.363 1_565 S
C1098 C1099 1.363 1_455 S
C1098 C1103 1.379 . S
C1098 N1105 1.356 . S
C1099 C1098 1.363 1_655 S
C1099 C1102 1.363 1_545 S
N1100 C1102 1.356 1_545 S
N1100 H1112 0.984 1_545 S
N1100 H1113 0.985 . S
N1101 C1103 1.356 1_565 S
N1101 H1106 0.984 . S
N1101 H1107 0.985 1_565 S
C1102 C1096 1.379 . S
C1102 C1099 1.363 1_565 S
C1102 N1100 1.356 1_565 S
C1103 C1097 1.363 1_545 S
C1103 C1098 1.379 . S
C1103 N1101 1.356 1_545 S
N1104 C1096 1.356 . S
N1104 H1110 0.984 . S
N1104 H1111 0.984 1_655 S
N1105 C1098 1.356 . S
N1105 H1108 0.984 1_455 S
N1105 H1109 0.985 . S
H1106 N1101 0.984 . S
H1107 N1101 0.985 1_545 S
H1108 N1105 0.984 1_655 S
H1109 N1105 0.985 . S
H1110 N1104 0.984 . S
H1111 N1104 0.984 1_455 S
H1112 N1100 0.984 1_565 S
H1113 N1100 0.985 . S
C1114 C1115 1.363 . S
C1114 C1120 1.379 . S
C1114 N1122 1.356 . S
C1115 C1114 1.363 . S
C1115 C1121 1.363 . S
C1116 C1117 1.363 . S
C1116 C1121 1.379 . S
C1116 N1123 1.356 . S
C1117 C1116 1.363 . S
C1117 C1120 1.363 . S
N1118 C1120 1.356 . S
N1118 H1130 0.984 . S
N1118 H1131 0.985 . S
N1119 C1121 1.356 . S
N1119 H1124 0.984 . S
N1119 H1125 0.985 . S
C1120 C1114 1.379 . S
C1120 C1117 1.363 . S
C1120 N1118 1.356 . S
C1121 C1115 1.363 . S
C1121 C1116 1.379 . S
C1121 N1119 1.356 . S
N1122 C1114 1.356 . S
N1122 H1128 0.984 . S
N1122 H1129 0.984 . S
N1123 C1116 1.356 . S
N1123 H1126 0.984 . S
N1123 H1127 0.985 . S
H1124 N1119 0.984 . S
H1125 N1119 0.985 . S
H1126 N1123 0.984 . S
H1127 N1123 0.985 . S
H1128 N1122 0.984 . S
H1129 N1122 0.984 . S
H1130 N1118 0.984 . S
H1131 N1118 0.985 . S
C1132 C1133 1.363 . S
C1132 C1138 1.379 1_565 S
C1132 N1140 1.356 . S
C1133 C1132 1.363 . S
C1133 C1139 1.363 1_554 S
C1134 C1135 1.363 . S
C1134 C1139 1.379 1_545 S
C1134 N1141 1.356 . S
C1135 C1134 1.363 . S
C1135 C1138 1.363 1_556 S
N1136 C1138 1.356 . S
N1136 H1148 0.984 . S
N1136 H1149 0.985 . S
N1137 C1139 1.356 . S
N1137 H1142 0.984 . S
N1137 H1143 0.985 . S
C1138 C1132 1.379 1_545 S
C1138 C1135 1.363 1_554 S
C1138 N1136 1.356 . S
C1139 C1133 1.363 1_556 S
C1139 C1134 1.379 1_565 S
C1139 N1137 1.356 . S
N1140 C1132 1.356 . S
N1140 H1146 0.984 . S
N1140 H1147 0.984 . S
N1141 C1134 1.356 . S
N1141 H1144 0.984 . S
N1141 H1145 0.985 . S
H1142 N1137 0.984 . S
H1143 N1137 0.985 . S
H1144 N1141 0.984 . S
H1145 N1141 0.985 . S
H1146 N1140 0.984 . S
H1147 N1140 0.984 . S
H1148 N1136 0.984 . S
H1149 N1136 0.985 . S
C1150 C1151 1.363 . S
C1150 C1156 1.379 . S
C1150 N1158 1.356 . S
C1151 C1150 1.363 . S
C1151 C1157 1.363 . S
C1152 C1153 1.363 . S
C1152 C1157 1.379 . S
C1152 N1159 1.356 . S
C1153 C1152 1.363 . S
C1153 C1156 1.363 . S
N1154 C1156 1.356 . S
N1154 H1166 0.984 . S
N1154 H1167 0.985 . S
N1155 C1157 1.356 . S
N1155 H1160 0.984 . S
N1155 H1161 0.985 . S
C1156 C1150 1.379 . S
C1156 C1153 1.363 . S
C1156 N1154 1.356 . S
C1157 C1151 1.363 . S
C1157 C1152 1.379 . S
C1157 N1155 1.356 . S
N1158 C1150 1.356 . S
N1158 H1164 0.984 . S
N1158 H1165 0.984 . S
N1159 C1152 1.356 . S
N1159 H1162 0.984 . S
N1159 H1163 0.985 . S
H1160 N1155 0.984 . S
H1161 N1155 0.985 . S
H1162 N1159 0.984 . S
H1163 N1159 0.985 . S
H1164 N1158 0.984 . S
H1165 N1158 0.984 . S
H1166 N1154 0.984 . S
H1167 N1154 0.985 . S
C1168 C1169 1.363 . S
C1168 C1174 1.379 . S
C1168 N1176 1.356 . S
C1169 C1168 1.363 . S
C1169 C1175 1.363 . S
C1170 C1171 1.363 . S
C1170 C1175 1.379 . S
C1170 N1177 1.356 . S
C1171 C1170 1.363 . S
C1171 C1174 1.363 . S
N1172 C1174 1.356 . S
N1172 H1184 0.984 . S
N1172 H1185 0.985 . S
N1173 C1175 1.356 . S
N1173 H1178 0.984 . S
N1173 H1179 0.985 . S
C1174 C1168 1.379 . S
C1174 C1171 1.363 . S
C1174 N1172 1.356 . S
C1175 C1169 1.363 . S
C1175 C1170 1.379 . S
C1175 N1173 1.356 . S
N1176 C1168 1.356 . S
N1176 H1182 0.984 . S
N1176 H1183 0.984 . S
N1177 C1170 1.356 . S
N1177 H1180 0.984 . S
N1177 H1181 0.985 . S
H1178 N1173 0.984 . S
H1179 N1173 0.985 . S
H1180 N1177 0.984 . S
H1181 N1177 0.985 . S
H1182 N1176 0.984 . S
H1183 N1176 0.984 . S
H1184 N1172 0.984 . S
H1185 N1172 0.985 . S
C1186 C1187 1.363 . S
C1186 C1192 1.379 . S
C1186 N1194 1.356 . S
C1187 C1186 1.363 . S
C1187 C1193 1.363 . S
C1188 C1189 1.363 . S
C1188 C1193 1.379 . S
C1188 N1195 1.356 . S
C1189 C1188 1.363 . S
C1189 C1192 1.363 . S
N1190 C1192 1.356 . S
N1190 H1202 0.984 . S
N1190 H1203 0.985 . S
N1191 C1193 1.356 . S
N1191 H1196 0.984 . S
N1191 H1197 0.985 . S
C1192 C1186 1.379 . S
C1192 C1189 1.363 . S
C1192 N1190 1.356 . S
C1193 C1187 1.363 . S
C1193 C1188 1.379 . S
C1193 N1191 1.356 . S
N1194 C1186 1.356 . S
N1194 H1200 0.984 . S
N1194 H1201 0.984 . S
N1195 C1188 1.356 . S
N1195 H1198 0.984 . S
N1195 H1199 0.985 . S
H1196 N1191 0.984 . S
H1197 N1191 0.985 . S
H1198 N1195 0.984 . S
H1199 N1195 0.985 . S
H1200 N1194 0.984 . S
H1201 N1194 0.984 . S
H1202 N1190 0.984 . S
H1203 N1190 0.985 . S
C1204 C1205 1.363 . S
C1204 C1210 1.379 . S
C1204 N1212 1.356 . S
C1205 C1204 1.363 . S
C1205 C1211 1.363 . S
C1206 C1207 1.363 . S
C1206 C1211 1.379 . S
C1206 N1213 1.356 . S
C1207 C1206 1.363 . S
C1207 C1210 1.363 . S
N1208 C1210 1.356 . S
N1208 H1220 0.984 . S
N1208 H1221 0.985 . S
N1209 C1211 1.356 . S
N1209 H1214 0.984 . S
N1209 H1215 0.985 . S
C1210 C1204 1.379 . S
C1210 C1207 1.363 . S
C1210 N1208 1.356 . S
C1211 C1205 1.363 . S
C1211 C1206 1.379 . S
C1211 N1209 1.356 . S
N1212 C1204 1.356 . S
N1212 H1218 0.984 . S
N1212 H1219 0.984 . S
N1213 C1206 1.356 . S
N1213 H1216 0.984 . S
N1213 H1217 0.985 . S
H1214 N1209 0.984 . S
H1215 N1209 0.985 . S
H1216 N1213 0.984 . S
H1217 N1213 0.985 . S
H1218 N1212 0.984 . S
H1219 N1212 0.984 . S
H1220 N1208 0.984 . S
H1221 N1208 0.985 . S
C1222 C1223 1.363 . S
C1222 C1228 1.379 . S
C1222 N1230 1.356 . S
C1223 C1222 1.363 . S
C1223 C1229 1.363 . S
C1224 C1225 1.363 . S
C1224 C1229 1.379 . S
C1224 N1231 1.356 . S
C1225 C1224 1.363 . S
C1225 C1228 1.363 . S
N1226 C1228 1.356 . S
N1226 H1238 0.984 . S
N1226 H1239 0.985 . S
N1227 C1229 1.356 . S
N1227 H1232 0.984 . S
N1227 H1233 0.985 . S
C1228 C1222 1.379 . S
C1228 C1225 1.363 . S
C1228 N1226 1.356 . S
C1229 C1223 1.363 . S
C1229 C1224 1.379 . S
C1229 N1227 1.356 . S
N1230 C1222 1.356 . S
N1230 H1236 0.984 . S
N1230 H1237 0.984 . S
N1231 C1224 1.356 . S
N1231 H1234 0.984 . S
N1231 H1235 0.985 . S
H1232 N1227 0.984 . S
H1233 N1227 0.985 . S
H1234 N1231 0.984 . S
H1235 N1231 0.985 . S
H1236 N1230 0.984 . S
H1237 N1230 0.984 . S
H1238 N1226 0.984 . S
H1239 N1226 0.985 . S
C1240 C1241 1.363 . S
C1240 C1246 1.379 . S
C1240 N1248 1.356 . S
C1241 C1240 1.363 . S
C1241 C1247 1.363 . S
C1242 C1243 1.363 . S
C1242 C1247 1.379 . S
C1242 N1249 1.356 . S
C1243 C1242 1.363 . S
C1243 C1246 1.363 . S
N1244 C1246 1.356 . S
N1244 H1256 0.984 . S
N1244 H1257 0.985 . S
N1245 C1247 1.356 . S
N1245 H1250 0.984 . S
N1245 H1251 0.985 . S
C1246 C1240 1.379 . S
C1246 C1243 1.363 . S
C1246 N1244 1.356 . S
C1247 C1241 1.363 . S
C1247 C1242 1.379 . S
C1247 N1245 1.356 . S
N1248 C1240 1.356 . S
N1248 H1254 0.984 . S
N1248 H1255 0.984 . S
N1249 C1242 1.356 . S
N1249 H1252 0.984 . S
N1249 H1253 0.985 . S
H1250 N1245 0.984 . S
H1251 N1245 0.985 . S
H1252 N1249 0.984 . S
H1253 N1249 0.985 . S
H1254 N1248 0.984 . S
H1255 N1248 0.984 . S
H1256 N1244 0.984 . S
H1257 N1244 0.985 . S
C1258 C1259 1.363 . S
C1258 C1264 1.379 1_655 S
C1258 N1266 1.356 . S
C1259 C1258 1.363 . S
C1259 C1265 1.363 1_554 S
C1260 C1261 1.363 . S
C1260 C1265 1.379 1_455 S
C1260 N1267 1.356 . S
C1261 C1260 1.363 . S
C1261 C1264 1.363 1_556 S
N1262 C1264 1.356 . S
N1262 H1274 0.984 . S
N1262 H1275 0.985 . S
N1263 C1265 1.356 . S
N1263 H1268 0.984 . S
N1263 H1269 0.985 . S
C1264 C1258 1.379 1_455 S
C1264 C1261 1.363 1_554 S
C1264 N1262 1.356 . S
C1265 C1259 1.363 1_556 S
C1265 C1260 1.379 1_655 S
C1265 N1263 1.356 . S
N1266 C1258 1.356 . S
N1266 H1272 0.984 . S
N1266 H1273 0.984 . S
N1267 C1260 1.356 . S
N1267 H1270 0.984 . S
N1267 H1271 0.985 . S
H1268 N1263 0.984 . S
H1269 N1263 0.985 . S
H1270 N1267 0.984 . S
H1271 N1267 0.985 . S
H1272 N1266 0.984 . S
H1273 N1266 0.984 . S
H1274 N1262 0.984 . S
H1275 N1262 0.985 . S
C1276 C1277 1.363 . S
C1276 C1282 1.379 . S
C1276 N1284 1.356 . S
C1277 C1276 1.363 . S
C1277 C1283 1.363 1_556 S
C1278 C1279 1.363 . S
C1278 C1283 1.379 . S
C1278 N1285 1.356 . S
C1279 C1278 1.363 . S
C1279 C1282 1.363 1_554 S
N1280 C1282 1.356 . S
N1280 H1292 0.984 . S
N1280 H1293 0.985 1_556 S
N1281 C1283 1.356 . S
N1281 H1286 0.984 1_554 S
N1281 H1287 0.985 . S
C1282 C1276 1.379 . S
C1282 C1279 1.363 1_556 S
C1282 N1280 1.356 . S
C1283 C1277 1.363 1_554 S
C1283 C1278 1.379 . S
C1283 N1281 1.356 . S
N1284 C1276 1.356 . S
N1284 H1290 0.984 . S
N1284 H1291 0.984 . S
N1285 C1278 1.356 . S
N1285 H1288 0.984 . S
N1285 H1289 0.985 . S
H1286 N1281 0.984 1_556 S
H1287 N1281 0.985 . S
H1288 N1285 0.984 . S
H1289 N1285 0.985 . S
H1290 N1284 0.984 . S
H1291 N1284 0.984 . S
H1292 N1280 0.984 . S
H1293 N1280 0.985 1_554 S
C1294 C1295 1.363 . S
C1294 C1300 1.379 . S
C1294 N1302 1.356 . S
C1295 C1294 1.363 . S
C1295 C1301 1.363 1_455 S
C1296 C1297 1.363 . S
C1296 C1301 1.379 . S
C1296 N1303 1.356 . S
C1297 C1296 1.363 . S
C1297 C1300 1.363 1_655 S
N1298 C1300 1.356 . S
N1298 H1310 0.984 . S
N1298 H1311 0.985 . S
N1299 C1301 1.356 . S
N1299 H1304 0.984 . S
N1299 H1305 0.985 . S
C1300 C1294 1.379 . S
C1300 C1297 1.363 1_455 S
C1300 N1298 1.356 . S
C1301 C1295 1.363 1_655 S
C1301 C1296 1.379 . S
C1301 N1299 1.356 . S
N1302 C1294 1.356 . S
N1302 H1308 0.984 . S
N1302 H1309 0.984 . S
N1303 C1296 1.356 . S
N1303 H1306 0.984 . S
N1303 H1307 0.985 . S
H1304 N1299 0.984 . S
H1305 N1299 0.985 . S
H1306 N1303 0.984 . S
H1307 N1303 0.985 . S
H1308 N1302 0.984 . S
H1309 N1302 0.984 . S
H1310 N1298 0.984 . S
H1311 N1298 0.985 . S
C1312 C1313 1.363 . S
C1312 C1318 1.379 . S
C1312 N1320 1.356 1_554 S
C1313 C1312 1.363 . S
C1313 C1319 1.363 . S
C1314 C1315 1.363 . S
C1314 C1319 1.379 . S
C1314 N1321 1.356 . S
C1315 C1314 1.363 . S
C1315 C1318 1.363 . S
N1316 C1318 1.356 . S
N1316 H1328 0.984 . S
N1316 H1329 0.985 . S
N1317 C1319 1.356 . S
N1317 H1322 0.984 . S
N1317 H1323 0.985 . S
C1318 C1312 1.379 . S
C1318 C1315 1.363 . S
C1318 N1316 1.356 . S
C1319 C1313 1.363 . S
C1319 C1314 1.379 . S
C1319 N1317 1.356 . S
N1320 C1312 1.356 1_556 S
N1320 H1326 0.984 . S
N1320 H1327 0.984 . S
N1321 C1314 1.356 . S
N1321 H1324 0.984 . S
N1321 H1325 0.985 . S
H1322 N1317 0.984 . S
H1323 N1317 0.985 . S
H1324 N1321 0.984 . S
H1325 N1321 0.985 . S
H1326 N1320 0.984 . S
H1327 N1320 0.984 . S
H1328 N1316 0.984 . S
H1329 N1316 0.985 . S
C1330 C1331 1.363 . S
C1330 C1336 1.379 . S
C1330 N1338 1.356 . S
C1331 C1330 1.363 . S
C1331 C1337 1.363 . S
C1332 C1333 1.363 . S
C1332 C1337 1.379 . S
C1332 N1339 1.356 . S
C1333 C1332 1.363 . S
C1333 C1336 1.363 . S
N1334 C1336 1.356 . S
N1334 H1346 0.984 . S
N1334 H1347 0.985 . S
N1335 C1337 1.356 . S
N1335 H1340 0.984 . S
N1335 H1341 0.985 . S
C1336 C1330 1.379 . S
C1336 C1333 1.363 . S
C1336 N1334 1.356 . S
C1337 C1331 1.363 . S
C1337 C1332 1.379 . S
C1337 N1335 1.356 . S
N1338 C1330 1.356 . S
N1338 H1344 0.984 . S
N1338 H1345 0.984 . S
N1339 C1332 1.356 . S
N1339 H1342 0.984 . S
N1339 H1343 0.985 . S
H1340 N1335 0.984 . S
H1341 N1335 0.985 . S
H1342 N1339 0.984 . S
H1343 N1339 0.985 . S
H1344 N1338 0.984 . S
H1345 N1338 0.984 . S
H1346 N1334 0.984 . S
H1347 N1334 0.985 . S
C1348 C1349 1.363 . S
C1348 C1354 1.379 . S
C1348 N1356 1.356 . S
C1349 C1348 1.363 . S
C1349 C1355 1.363 . S
C1350 C1351 1.363 . S
C1350 C1355 1.379 . S
C1350 N1357 1.356 . S
C1351 C1350 1.363 . S
C1351 C1354 1.363 . S
N1352 C1354 1.356 . S
N1352 H1364 0.984 . S
N1352 H1365 0.985 . S
N1353 C1355 1.356 . S
N1353 H1358 0.984 . S
N1353 H1359 0.985 . S
C1354 C1348 1.379 . S
C1354 C1351 1.363 . S
C1354 N1352 1.356 . S
C1355 C1349 1.363 . S
C1355 C1350 1.379 . S
C1355 N1353 1.356 . S
N1356 C1348 1.356 . S
N1356 H1362 0.984 . S
N1356 H1363 0.984 . S
N1357 C1350 1.356 . S
N1357 H1360 0.984 . S
N1357 H1361 0.985 . S
H1358 N1353 0.984 . S
H1359 N1353 0.985 . S
H1360 N1357 0.984 . S
H1361 N1357 0.985 . S
H1362 N1356 0.984 . S
H1363 N1356 0.984 . S
H1364 N1352 0.984 . S
H1365 N1352 0.985 . S
C1366 C1367 1.363 . S
C1366 C1372 1.379 . S
C1366 N1374 1.356 . S
C1367 C1366 1.363 . S
C1367 C1373 1.363 . S
C1368 C1369 1.363 . S
C1368 C1373 1.379 . S
C1368 N1375 1.356 . S
C1369 C1368 1.363 . S
C1369 C1372 1.363 . S
N1370 C1372 1.356 . S
N1370 H1382 0.984 . S
N1370 H1383 0.985 . S
N1371 C1373 1.356 1_554 S
N1371 H1376 0.984 . S
N1371 H1377 0.985 . S
C1372 C1366 1.379 . S
C1372 C1369 1.363 . S
C1372 N1370 1.356 . S
C1373 C1367 1.363 . S
C1373 C1368 1.379 . S
C1373 N1371 1.356 1_556 S
N1374 C1366 1.356 . S
N1374 H1380 0.984 . S
N1374 H1381 0.984 . S
N1375 C1368 1.356 . S
N1375 H1378 0.984 . S
N1375 H1379 0.985 . S
H1376 N1371 0.984 . S
H1377 N1371 0.985 . S
H1378 N1375 0.984 . S
H1379 N1375 0.985 . S
H1380 N1374 0.984 . S
H1381 N1374 0.984 . S
H1382 N1370 0.984 . S
H1383 N1370 0.985 . S
C1384 C1385 1.363 . S
C1384 C1390 1.379 . S
C1384 N1392 1.356 . S
C1385 C1384 1.363 . S
C1385 C1391 1.363 . S
C1386 C1387 1.363 . S
C1386 C1391 1.379 . S
C1386 N1393 1.356 . S
C1387 C1386 1.363 . S
C1387 C1390 1.363 . S
N1388 C1390 1.356 . S
N1388 H1400 0.984 . S
N1388 H1401 0.985 . S
N1389 C1391 1.356 . S
N1389 H1394 0.984 . S
N1389 H1395 0.985 . S
C1390 C1384 1.379 . S
C1390 C1387 1.363 . S
C1390 N1388 1.356 . S
C1391 C1385 1.363 . S
C1391 C1386 1.379 . S
C1391 N1389 1.356 . S
N1392 C1384 1.356 . S
N1392 H1398 0.984 . S
N1392 H1399 0.984 . S
N1393 C1386 1.356 . S
N1393 H1396 0.984 . S
N1393 H1397 0.985 1_556 S
H1394 N1389 0.984 . S
H1395 N1389 0.985 . S
H1396 N1393 0.984 . S
H1397 N1393 0.985 1_554 S
H1398 N1392 0.984 . S
H1399 N1392 0.984 . S
H1400 N1388 0.984 . S
H1401 N1388 0.985 . S
C1402 C1403 1.363 . S
C1402 C1408 1.379 . S
C1402 N1410 1.356 . S
C1403 C1402 1.363 . S
C1403 C1409 1.363 . S
C1404 C1405 1.363 . S
C1404 C1409 1.379 . S
C1404 N1411 1.356 . S
C1405 C1404 1.363 . S
C1405 C1408 1.363 . S
N1406 C1408 1.356 . S
N1406 H1418 0.984 . S
N1406 H1419 0.985 . S
N1407 C1409 1.356 . S
N1407 H1412 0.984 . S
N1407 H1413 0.985 . S
C1408 C1402 1.379 . S
C1408 C1405 1.363 . S
C1408 N1406 1.356 . S
C1409 C1403 1.363 . S
C1409 C1404 1.379 . S
C1409 N1407 1.356 . S
N1410 C1402 1.356 . S
N1410 H1416 0.984 . S
N1410 H1417 0.984 . S
N1411 C1404 1.356 . S
N1411 H1414 0.984 . S
N1411 H1415 0.985 . S
H1412 N1407 0.984 . S
H1413 N1407 0.985 . S
H1414 N1411 0.984 . S
H1415 N1411 0.985 . S
H1416 N1410 0.984 . S
H1417 N1410 0.984 . S
H1418 N1406 0.984 . S
H1419 N1406 0.985 . S
C1420 C1421 1.363 . S
C1420 C1426 1.379 . S
C1420 N1428 1.356 . S
C1421 C1420 1.363 . S
C1421 C1427 1.363 . S
C1422 C1423 1.363 . S
C1422 C1427 1.379 . S
C1422 N1429 1.356 . S
C1423 C1422 1.363 . S
C1423 C1426 1.363 . S
N1424 C1426 1.356 . S
N1424 H1436 0.984 . S
N1424 H1437 0.985 . S
N1425 C1427 1.356 . S
N1425 H1430 0.984 . S
N1425 H1431 0.985 . S
C1426 C1420 1.379 . S
C1426 C1423 1.363 . S
C1426 N1424 1.356 . S
C1427 C1421 1.363 . S
C1427 C1422 1.379 . S
C1427 N1425 1.356 . S
N1428 C1420 1.356 . S
N1428 H1434 0.984 . S
N1428 H1435 0.984 . S
N1429 C1422 1.356 . S
N1429 H1432 0.984 . S
N1429 H1433 0.985 . S
H1430 N1425 0.984 . S
H1431 N1425 0.985 . S
H1432 N1429 0.984 . S
H1433 N1429 0.985 . S
H1434 N1428 0.984 . S
H1435 N1428 0.984 . S
H1436 N1424 0.984 . S
H1437 N1424 0.985 . S
C1438 C1439 1.363 . S
C1438 C1444 1.379 . S
C1438 N1446 1.356 . S
C1439 C1438 1.363 . S
C1439 C1445 1.363 . S
C1440 C1441 1.363 . S
C1440 C1445 1.379 . S
C1440 N1447 1.356 . S
C1441 C1440 1.363 . S
C1441 C1444 1.363 . S
N1442 C1444 1.356 . S
N1442 H1454 0.984 . S
N1442 H1455 0.985 . S
N1443 C1445 1.356 . S
N1443 H1448 0.984 . S
N1443 H1449 0.985 . S
C1444 C1438 1.379 . S
C1444 C1441 1.363 . S
C1444 N1442 1.356 . S
C1445 C1439 1.363 . S
C1445 C1440 1.379 . S
C1445 N1443 1.356 . S
N1446 C1438 1.356 . S
N1446 H1452 0.984 . S
N1446 H1453 0.984 . S
N1447 C1440 1.356 . S
N1447 H1450 0.984 . S
N1447 H1451 0.985 . S
H1448 N1443 0.984 . S
H1449 N1443 0.985 . S
H1450 N1447 0.984 . S
H1451 N1447 0.985 . S
H1452 N1446 0.984 . S
H1453 N1446 0.984 . S
H1454 N1442 0.984 . S
H1455 N1442 0.985 . S
C1456 C1457 1.363 . S
C1456 C1462 1.379 . S
C1456 N1464 1.356 . S
C1457 C1456 1.363 . S
C1457 C1463 1.363 . S
C1458 C1459 1.363 . S
C1458 C1463 1.379 . S
C1458 N1465 1.356 . S
C1459 C1458 1.363 . S
C1459 C1462 1.363 . S
N1460 C1462 1.356 . S
N1460 H1472 0.984 . S
N1460 H1473 0.985 . S
N1461 C1463 1.356 . S
N1461 H1466 0.984 . S
N1461 H1467 0.985 . S
C1462 C1456 1.379 . S
C1462 C1459 1.363 . S
C1462 N1460 1.356 . S
C1463 C1457 1.363 . S
C1463 C1458 1.379 . S
C1463 N1461 1.356 . S
N1464 C1456 1.356 . S
N1464 H1470 0.984 . S
N1464 H1471 0.984 . S
N1465 C1458 1.356 . S
N1465 H1468 0.984 . S
N1465 H1469 0.985 . S
H1466 N1461 0.984 . S
H1467 N1461 0.985 . S
H1468 N1465 0.984 . S
H1469 N1465 0.985 . S
H1470 N1464 0.984 . S
H1471 N1464 0.984 . S
H1472 N1460 0.984 . S
H1473 N1460 0.985 . S
C1474 C1475 1.363 . S
C1474 C1480 1.379 . S
C1474 N1482 1.356 . S
C1475 C1474 1.363 . S
C1475 C1481 1.363 . S
C1476 C1477 1.363 . S
C1476 C1481 1.379 . S
C1476 N1483 1.356 . S
C1477 C1476 1.363 . S
C1477 C1480 1.363 . S
N1478 C1480 1.356 . S
N1478 H1490 0.984 . S
N1478 H1491 0.985 . S
N1479 C1481 1.356 . S
N1479 H1484 0.984 . S
N1479 H1485 0.985 . S
C1480 C1474 1.379 . S
C1480 C1477 1.363 . S
C1480 N1478 1.356 . S
C1481 C1475 1.363 . S
C1481 C1476 1.379 . S
C1481 N1479 1.356 . S
N1482 C1474 1.356 . S
N1482 H1488 0.984 . S
N1482 H1489 0.984 . S
N1483 C1476 1.356 . S
N1483 H1486 0.984 . S
N1483 H1487 0.985 . S
H1484 N1479 0.984 . S
H1485 N1479 0.985 . S
H1486 N1483 0.984 . S
H1487 N1483 0.985 . S
H1488 N1482 0.984 . S
H1489 N1482 0.984 . S
H1490 N1478 0.984 . S
H1491 N1478 0.985 . S
C1492 C1493 1.363 . S
C1492 C1498 1.379 . S
C1492 N1500 1.356 . S
C1493 C1492 1.363 . S
C1493 C1499 1.363 . S
C1494 C1495 1.363 . S
C1494 C1499 1.379 . S
C1494 N1501 1.356 . S
C1495 C1494 1.363 . S
C1495 C1498 1.363 . S
N1496 C1498 1.356 . S
N1496 H1508 0.984 . S
N1496 H1509 0.985 . S
N1497 C1499 1.356 . S
N1497 H1502 0.984 . S
N1497 H1503 0.985 . S
C1498 C1492 1.379 . S
C1498 C1495 1.363 . S
C1498 N1496 1.356 . S
C1499 C1493 1.363 . S
C1499 C1494 1.379 . S
C1499 N1497 1.356 . S
N1500 C1492 1.356 . S
N1500 H1506 0.984 . S
N1500 H1507 0.984 . S
N1501 C1494 1.356 . S
N1501 H1504 0.984 . S
N1501 H1505 0.985 . S
H1502 N1497 0.984 . S
H1503 N1497 0.985 . S
H1504 N1501 0.984 . S
H1505 N1501 0.985 . S
H1506 N1500 0.984 . S
H1507 N1500 0.984 . S
H1508 N1496 0.984 . S
H1509 N1496 0.985 . S
C1510 C1511 1.363 . S
C1510 C1516 1.379 . S
C1510 N1518 1.356 . S
C1511 C1510 1.363 . S
C1511 C1517 1.363 . S
C1512 C1513 1.363 . S
C1512 C1517 1.379 . S
C1512 N1519 1.356 . S
C1513 C1512 1.363 . S
C1513 C1516 1.363 . S
N1514 C1516 1.356 . S
N1514 H1526 0.984 . S
N1514 H1527 0.985 . S
N1515 C1517 1.356 . S
N1515 H1520 0.984 . S
N1515 H1521 0.985 . S
C1516 C1510 1.379 . S
C1516 C1513 1.363 . S
C1516 N1514 1.356 . S
C1517 C1511 1.363 . S
C1517 C1512 1.379 . S
C1517 N1515 1.356 . S
N1518 C1510 1.356 . S
N1518 H1524 0.984 . S
N1518 H1525 0.984 . S
N1519 C1512 1.356 . S
N1519 H1522 0.984 . S
N1519 H1523 0.985 . S
H1520 N1515 0.984 . S
H1521 N1515 0.985 . S
H1522 N1519 0.984 . S
H1523 N1519 0.985 . S
H1524 N1518 0.984 . S
H1525 N1518 0.984 . S
H1526 N1514 0.984 . S
H1527 N1514 0.985 . S
C1528 C1529 1.363 . S
C1528 C1534 1.379 . S
C1528 N1536 1.356 . S
C1529 C1528 1.363 . S
C1529 C1535 1.363 . S
C1530 C1531 1.363 . S
C1530 C1535 1.379 . S
C1530 N1537 1.356 . S
C1531 C1530 1.363 . S
C1531 C1534 1.363 . S
N1532 C1534 1.356 . S
N1532 H1544 0.984 . S
N1532 H1545 0.985 . S
N1533 C1535 1.356 . S
N1533 H1538 0.984 . S
N1533 H1539 0.985 . S
C1534 C1528 1.379 . S
C1534 C1531 1.363 . S
C1534 N1532 1.356 . S
C1535 C1529 1.363 . S
C1535 C1530 1.379 . S
C1535 N1533 1.356 . S
N1536 C1528 1.356 . S
N1536 H1542 0.984 . S
N1536 H1543 0.984 . S
N1537 C1530 1.356 . S
N1537 H1540 0.984 . S
N1537 H1541 0.985 . S
H1538 N1533 0.984 . S
H1539 N1533 0.985 . S
H1540 N1537 0.984 . S
H1541 N1537 0.985 . S
H1542 N1536 0.984 . S
H1543 N1536 0.984 . S
H1544 N1532 0.984 . S
H1545 N1532 0.985 . S
C1546 C1547 1.363 . S
C1546 C1552 1.379 . S
C1546 N1554 1.356 . S
C1547 C1546 1.363 . S
C1547 C1553 1.363 . S
C1548 C1549 1.363 . S
C1548 C1553 1.379 . S
C1548 N1555 1.356 . S
C1549 C1548 1.363 . S
C1549 C1552 1.363 . S
N1550 C1552 1.356 . S
N1550 H1562 0.984 1_554 S
N1550 H1563 0.985 1_554 S
N1551 C1553 1.356 . S
N1551 H1556 0.984 . S
N1551 H1557 0.985 . S
C1552 C1546 1.379 . S
C1552 C1549 1.363 . S
C1552 N1550 1.356 . S
C1553 C1547 1.363 . S
C1553 C1548 1.379 . S
C1553 N1551 1.356 . S
N1554 C1546 1.356 . S
N1554 H1560 0.984 . S
N1554 H1561 0.984 . S
N1555 C1548 1.356 . S
N1555 H1558 0.984 . S
N1555 H1559 0.985 . S
H1556 N1551 0.984 . S
H1557 N1551 0.985 . S
H1558 N1555 0.984 . S
H1559 N1555 0.985 . S
H1560 N1554 0.984 . S
H1561 N1554 0.984 . S
H1562 N1550 0.984 1_556 S
H1563 N1550 0.985 1_556 S
C1564 C1565 1.363 . S
C1564 C1570 1.379 . S
C1564 N1572 1.356 . S
C1565 C1564 1.363 . S
C1565 C1571 1.363 . S
C1566 C1567 1.363 . S
C1566 C1571 1.379 . S
C1566 N1573 1.356 . S
C1567 C1566 1.363 . S
C1567 C1570 1.363 . S
N1568 C1570 1.356 . S
N1568 H1580 0.984 . S
N1568 H1581 0.985 . S
N1569 C1571 1.356 . S
N1569 H1574 0.984 . S
N1569 H1575 0.985 . S
C1570 C1564 1.379 . S
C1570 C1567 1.363 . S
C1570 N1568 1.356 . S
C1571 C1565 1.363 . S
C1571 C1566 1.379 . S
C1571 N1569 1.356 . S
N1572 C1564 1.356 . S
N1572 H1578 0.984 . S
N1572 H1579 0.984 . S
N1573 C1566 1.356 . S
N1573 H1576 0.984 . S
N1573 H1577 0.985 . S
H1574 N1569 0.984 . S
H1575 N1569 0.985 . S
H1576 N1573 0.984 . S
H1577 N1573 0.985 . S
H1578 N1572 0.984 . S
H1579 N1572 0.984 . S
H1580 N1568 0.984 . S
H1581 N1568 0.985 . S
C1582 C1583 1.363 . S
C1582 C1588 1.379 . S
C1582 N1590 1.356 . S
C1583 C1582 1.363 . S
C1583 C1589 1.363 . S
C1584 C1585 1.363 . S
C1584 C1589 1.379 . S
C1584 N1591 1.356 . S
C1585 C1584 1.363 . S
C1585 C1588 1.363 . S
N1586 C1588 1.356 . S
N1586 H1598 0.984 . S
N1586 H1599 0.985 . S
N1587 C1589 1.356 . S
N1587 H1592 0.984 . S
N1587 H1593 0.985 . S
C1588 C1582 1.379 . S
C1588 C1585 1.363 . S
C1588 N1586 1.356 . S
C1589 C1583 1.363 . S
C1589 C1584 1.379 . S
C1589 N1587 1.356 . S
N1590 C1582 1.356 . S
N1590 H1596 0.984 . S
N1590 H1597 0.984 . S
N1591 C1584 1.356 . S
N1591 H1594 0.984 . S
N1591 H1595 0.985 . S
H1592 N1587 0.984 . S
H1593 N1587 0.985 . S
H1594 N1591 0.984 . S
H1595 N1591 0.985 . S
H1596 N1590 0.984 . S
H1597 N1590 0.984 . S
H1598 N1586 0.984 . S
H1599 N1586 0.985 . S
C449 C175 1.287 . S
C451 C3 1.218 . S
C467 C413 1.287 . S
C469 C17 1.216 . S
C485 C203 1.287 . S
C487 C31 1.216 . S
C503 C441 1.287 . S
C505 C45 1.216 . S
C521 C119 1.287 . S
C523 C59 1.218 . S
C539 C73 1.216 . S
C541 C357 1.287 . S
C557 C87 1.216 . S
C559 C147 1.287 . S
C575 C385 1.287 . S
C577 C101 1.216 . S
C593 C63 1.287 . S
C595 C115 1.218 . S
C611 C301 1.287 . S
C613 C129 1.216 . S
C629 C91 1.287 . S
C631 C143 1.216 . S
C647 C329 1.287 . S
C649 C157 1.216 . S
C665 C171 1.218 . S
C667 C7 1.287 . S
C683 C185 1.216 . S
C685 C245 1.287 . S
C701 C35 1.287 . S
C703 C199 1.216 . S
C719 C213 1.216 . S
C721 C273 1.287 . S
C737 C399 1.287 . S
C739 C227 1.216 . S
C755 C189 1.287 . S
C757 C241 1.216 . S
C773 C427 1.287 . S
C775 C255 1.218 . S
C791 C269 1.216 . S
C793 C217 1.287 . S
C809 C283 1.216 . S
C811 C343 1.287 . S
C827 C297 1.216 . S
C829 C133 1.287 . S
C845 C371 1.287 . S
C847 C311 1.218 . S
C863 C161 1.287 . S
C865 C325 1.216 . S
C881 C287 1.287 . S
C883 C339 1.216 . S
C899 C353 1.216 . S
C901 C77 1.287 . S
C917 C367 1.218 . S
C919 C315 1.287 . S
C935 C381 1.216 . S
C937 C105 1.287 . S
C953 C231 1.287 . S
C955 C395 1.216 . S
C971 C21 1.287 . S
C973 C409 1.216 . S
C989 C259 1.287 . S
C991 C423 1.218 . S
C1007 C437 1.216 . S
C1009 C49 1.287 . S
C1025 C9 1.412 . S
C1027 C121 1.412 . S
C1043 C23 1.412 . S
C1045 C359 1.412 . S
C1061 C149 1.412 . S
C1063 C37 1.412 . S
C1079 C51 1.412 . S
C1081 C387 1.412 . S
C1097 C65 1.412 . S
C1099 C177 1.412 . S
C1115 C415 1.412 . S
C1117 C79 1.412 . S
C1133 C205 1.412 . S
C1135 C93 1.412 . S
C1151 C107 1.412 . S
C1153 C443 1.412 . S
C1169 C135 1.412 . S
C1171 C247 1.412 . S
C1187 C163 1.412 . S
C1189 C275 1.412 . S
C1205 C191 1.412 . S
C1207 C303 1.412 . S
C1223 C331 1.412 . S
C1225 C219 1.412 . S
C1241 C233 1.412 . S
C1243 C345 1.412 . S
C1259 C261 1.412 . S
C1261 C373 1.412 . S
C1277 C289 1.412 . S
C1279 C401 1.412 . S
C1295 C429 1.412 . S
C1297 C317 1.412 . S
C1313 C8 1.429 . S
C1315 C106 1.429 . S
C1331 C22 1.429 . S
C1333 C64 1.429 . S
C1349 C78 1.429 . S
C1351 C36 1.429 . S
C1367 C92 1.429 . S
C1369 C50 1.429 . S
C1385 C218 1.429 . S
C1387 C120 1.429 . S
C1403 C176 1.429 . S
C1405 C134 1.429 . S
C1421 C190 1.429 . S
C1423 C148 1.429 . S
C1439 C204 1.429 . S
C1441 C162 1.429 . S
C1457 C232 1.429 . S
C1459 C330 1.429 . S
C1475 C288 1.429 . S
C1477 C246 1.429 . S
C1493 C302 1.429 . S
C1495 C260 1.429 . S
C1511 C316 1.429 . S
C1513 C274 1.429 . S
C1529 C442 1.429 . S
C1531 C344 1.429 . S
C1547 C358 1.429 . S
C1549 C400 1.429 . S
C1565 C372 1.429 . S
C1567 C414 1.429 . S
C1583 C428 1.429 . S
C1585 C386 1.429 . S
