# Generated by pormake.
# Topology nfa, (4)-cn, num edge types: 1
# Building blocks:
#     Node 0, Type 0, BuildingBlock: KOZSID_clean_sbu_0, # of connection points: 4
#     Node 1, Type 0, BuildingBlock: KOZSID_clean_sbu_0, # of connection points: 4
#     Node 2, Type 0, BuildingBlock: KOZSID_clean_sbu_0, # of connection points: 4
#     Node 3, Type 0, BuildingBlock: KOZSID_clean_sbu_0, # of connection points: 4
#     Node 4, Type 0, BuildingBlock: KOZSID_clean_sbu_0, # of connection points: 4
#     Node 5, Type 0, BuildingBlock: KOZSID_clean_sbu_0, # of connection points: 4
#     Node 6, Type 0, BuildingBlock: KOZSID_clean_sbu_0, # of connection points: 4
#     Node 7, Type 0, BuildingBlock: KOZSID_clean_sbu_0, # of connection points: 4
#     Node 8, Type 0, BuildingBlock: KOZSID_clean_sbu_0, # of connection points: 4
#     Node 9, Type 0, BuildingBlock: KOZSID_clean_sbu_0, # of connection points: 4
#     Node 10, Type 0, BuildingBlock: KOZSID_clean_sbu_0, # of connection points: 4
#     Node 11, Type 0, BuildingBlock: KOZSID_clean_sbu_0, # of connection points: 4
#     Node 12, Type 0, BuildingBlock: KOZSID_clean_sbu_0, # of connection points: 4
#     Node 13, Type 0, BuildingBlock: KOZSID_clean_sbu_0, # of connection points: 4
#     Node 14, Type 0, BuildingBlock: KOZSID_clean_sbu_0, # of connection points: 4
#     Node 15, Type 0, BuildingBlock: KOZSID_clean_sbu_0, # of connection points: 4
#     Node 16, Type 0, BuildingBlock: KOZSID_clean_sbu_0, # of connection points: 4
#     Node 17, Type 0, BuildingBlock: KOZSID_clean_sbu_0, # of connection points: 4
#     Node 18, Type 0, BuildingBlock: KOZSID_clean_sbu_0, # of connection points: 4
#     Node 19, Type 0, BuildingBlock: KOZSID_clean_sbu_0, # of connection points: 4
#     Node 20, Type 0, BuildingBlock: KOZSID_clean_sbu_0, # of connection points: 4
#     Node 21, Type 0, BuildingBlock: KOZSID_clean_sbu_0, # of connection points: 4
#     Node 22, Type 0, BuildingBlock: KOZSID_clean_sbu_0, # of connection points: 4
#     Node 23, Type 0, BuildingBlock: KOZSID_clean_sbu_0, # of connection points: 4
#     Edge 24, Type (0, 0), BuildingBlock: UVAHIK_clean_linker_0, # of connection points: 2
#     Edge 25, Type (0, 0), BuildingBlock: UVAHIK_clean_linker_0, # of connection points: 2
#     Edge 26, Type (0, 0), BuildingBlock: UVAHIK_clean_linker_0, # of connection points: 2
#     Edge 27, Type (0, 0), BuildingBlock: UVAHIK_clean_linker_0, # of connection points: 2
#     Edge 28, Type (0, 0), BuildingBlock: UVAHIK_clean_linker_0, # of connection points: 2
#     Edge 29, Type (0, 0), BuildingBlock: UVAHIK_clean_linker_0, # of connection points: 2
#     Edge 30, Type (0, 0), BuildingBlock: UVAHIK_clean_linker_0, # of connection points: 2
#     Edge 31, Type (0, 0), BuildingBlock: UVAHIK_clean_linker_0, # of connection points: 2
#     Edge 32, Type (0, 0), BuildingBlock: UVAHIK_clean_linker_0, # of connection points: 2
#     Edge 33, Type (0, 0), BuildingBlock: UVAHIK_clean_linker_0, # of connection points: 2
#     Edge 34, Type (0, 0), BuildingBlock: UVAHIK_clean_linker_0, # of connection points: 2
#     Edge 35, Type (0, 0), BuildingBlock: UVAHIK_clean_linker_0, # of connection points: 2
#     Edge 36, Type (0, 0), BuildingBlock: UVAHIK_clean_linker_0, # of connection points: 2
#     Edge 37, Type (0, 0), BuildingBlock: UVAHIK_clean_linker_0, # of connection points: 2
#     Edge 38, Type (0, 0), BuildingBlock: UVAHIK_clean_linker_0, # of connection points: 2
#     Edge 39, Type (0, 0), BuildingBlock: UVAHIK_clean_linker_0, # of connection points: 2
#     Edge 40, Type (0, 0), BuildingBlock: UVAHIK_clean_linker_0, # of connection points: 2
#     Edge 41, Type (0, 0), BuildingBlock: UVAHIK_clean_linker_0, # of connection points: 2
#     Edge 42, Type (0, 0), BuildingBlock: UVAHIK_clean_linker_0, # of connection points: 2
#     Edge 43, Type (0, 0), BuildingBlock: UVAHIK_clean_linker_0, # of connection points: 2
#     Edge 44, Type (0, 0), BuildingBlock: UVAHIK_clean_linker_0, # of connection points: 2
#     Edge 45, Type (0, 0), BuildingBlock: UVAHIK_clean_linker_0, # of connection points: 2
#     Edge 46, Type (0, 0), BuildingBlock: UVAHIK_clean_linker_0, # of connection points: 2
#     Edge 47, Type (0, 0), BuildingBlock: UVAHIK_clean_linker_0, # of connection points: 2
#     Edge 48, Type (0, 0), BuildingBlock: UVAHIK_clean_linker_0, # of connection points: 2
#     Edge 49, Type (0, 0), BuildingBlock: UVAHIK_clean_linker_0, # of connection points: 2
#     Edge 50, Type (0, 0), BuildingBlock: UVAHIK_clean_linker_0, # of connection points: 2
#     Edge 51, Type (0, 0), BuildingBlock: UVAHIK_clean_linker_0, # of connection points: 2
#     Edge 52, Type (0, 0), BuildingBlock: UVAHIK_clean_linker_0, # of connection points: 2
#     Edge 53, Type (0, 0), BuildingBlock: UVAHIK_clean_linker_0, # of connection points: 2
#     Edge 54, Type (0, 0), BuildingBlock: UVAHIK_clean_linker_0, # of connection points: 2
#     Edge 55, Type (0, 0), BuildingBlock: UVAHIK_clean_linker_0, # of connection points: 2
#     Edge 56, Type (0, 0), BuildingBlock: UVAHIK_clean_linker_0, # of connection points: 2
#     Edge 57, Type (0, 0), BuildingBlock: UVAHIK_clean_linker_0, # of connection points: 2
#     Edge 58, Type (0, 0), BuildingBlock: UVAHIK_clean_linker_0, # of connection points: 2
#     Edge 59, Type (0, 0), BuildingBlock: UVAHIK_clean_linker_0, # of connection points: 2
#     Edge 60, Type (0, 0), BuildingBlock: UVAHIK_clean_linker_0, # of connection points: 2
#     Edge 61, Type (0, 0), BuildingBlock: UVAHIK_clean_linker_0, # of connection points: 2
#     Edge 62, Type (0, 0), BuildingBlock: UVAHIK_clean_linker_0, # of connection points: 2
#     Edge 63, Type (0, 0), BuildingBlock: UVAHIK_clean_linker_0, # of connection points: 2
#     Edge 64, Type (0, 0), BuildingBlock: UVAHIK_clean_linker_0, # of connection points: 2
#     Edge 65, Type (0, 0), BuildingBlock: UVAHIK_clean_linker_0, # of connection points: 2
#     Edge 66, Type (0, 0), BuildingBlock: UVAHIK_clean_linker_0, # of connection points: 2
#     Edge 67, Type (0, 0), BuildingBlock: UVAHIK_clean_linker_0, # of connection points: 2
#     Edge 68, Type (0, 0), BuildingBlock: UVAHIK_clean_linker_0, # of connection points: 2
#     Edge 69, Type (0, 0), BuildingBlock: UVAHIK_clean_linker_0, # of connection points: 2
#     Edge 70, Type (0, 0), BuildingBlock: UVAHIK_clean_linker_0, # of connection points: 2
#     Edge 71, Type (0, 0), BuildingBlock: UVAHIK_clean_linker_0, # of connection points: 2
# Relax obj value: 0.043
# Max RMSD: 0.132
# Mean RMSD: 0.107
data_MOF--net-nfa--node1-KOZSID_clean_sbu_0--edge1-UVAHIK_clean_linker_0
_symmetry_space_group_name_H-M    P1
_symmetry_Int_Tables_number       1
_symmetry_cell_setting            triclinic
loop_
_symmetry_equiv_pos_as_xyz
'x, y, z'
_cell_length_a     61.516155
_cell_length_b     62.520856
_cell_length_c     63.426709
_cell_angle_alpha  89.20337
_cell_angle_beta   88.302449
_cell_angle_gamma 87.449477
loop_
_atom_site_label
_atom_site_type_symbol
_atom_site_fract_x
_atom_site_fract_y
_atom_site_fract_z
_atom_type_partial_charge
C0 C 0.05119 0.38151 0.36957 0.0
C1 C 0.02993 0.38842 0.37461 0.0
C2 C 0.03108 0.40735 0.38486 0.0
C3 C 0.05286 0.41099 0.38536 0.0
N4 N 0.06571 0.39564 0.37583 0.0
Co5 Co 0.09829 0.39473 0.37261 0.0
N6 N 0.10007 0.42172 0.38912 0.0
C7 C 0.08338 0.43311 0.39859 0.0
C8 C 0.08967 0.45098 0.40867 0.0
C9 C 0.11166 0.45116 0.40527 0.0
C10 C 0.1175 0.43336 0.39319 0.0
N11 N 0.13086 0.39412 0.36899 0.0
C12 C 0.14529 0.4086 0.37469 0.0
C13 C 0.16641 0.40255 0.36823 0.0
C14 C 0.16529 0.38366 0.35793 0.0
C15 C 0.14365 0.37932 0.35861 0.0
N16 N 0.09654 0.36746 0.3565 0.0
C17 C 0.11339 0.35546 0.34807 0.0
C18 C 0.10734 0.33696 0.33904 0.0
C19 C 0.08532 0.33695 0.34208 0.0
C20 C 0.07914 0.35564 0.3527 0.0
N21 N 0.09584 0.41175 0.3461 0.0
C22 C 0.09248 0.4363 0.30867 0.0
C23 C 0.10528 0.41729 0.30919 0.0
C24 C 0.10671 0.40535 0.32793 0.0
C25 C 0.08139 0.44276 0.32718 0.0
C26 C 0.08328 0.43038 0.34552 0.0
N27 N 0.10061 0.37764 0.39912 0.0
C28 C 0.11584 0.34723 0.41847 0.0
C29 C 0.10108 0.35103 0.43529 0.0
C30 C 0.08666 0.36883 0.43406 0.0
C31 C 0.0868 0.38189 0.41605 0.0
C32 C 0.11532 0.36062 0.40068 0.0
H33 H 0.07532 0.39512 0.41609 0.0
H34 H 0.12668 0.35659 0.38825 0.0
H35 H 0.11677 0.39106 0.32732 0.0
H36 H 0.07454 0.43634 0.35905 0.0
C37 C 0.06181 0.42774 0.39604 0.0
C38 C 0.05675 0.361 0.35968 0.0
C39 C 0.13964 0.42872 0.38526 0.0
C40 C 0.1348 0.3617 0.34934 0.0
H41 H 0.01515 0.38036 0.37158 0.0
H42 H 0.01768 0.41701 0.39166 0.0
H43 H 0.0794 0.46284 0.41691 0.0
H44 H 0.12218 0.46326 0.41065 0.0
H45 H 0.18108 0.4111 0.37038 0.0
H46 H 0.17861 0.37439 0.35049 0.0
H47 H 0.11775 0.32471 0.33154 0.0
H48 H 0.07511 0.32432 0.33735 0.0
H49 H 0.11406 0.41153 0.29519 0.0
H50 H 0.07159 0.45759 0.3277 0.0
H51 H 0.12728 0.33355 0.41868 0.0
H52 H 0.07519 0.37262 0.4469 0.0
C53 C 0.87899 0.81041 0.61743 0.0
C54 C 0.87496 0.78915 0.62197 0.0
C55 C 0.85711 0.78923 0.63529 0.0
C56 C 0.85123 0.81044 0.63801 0.0
N57 N 0.864 0.82389 0.62688 0.0
Co58 Co 0.86168 0.85595 0.62641 0.0
N59 N 0.83682 0.85624 0.64765 0.0
C60 C 0.82838 0.8392 0.65783 0.0
C61 C 0.81035 0.84444 0.67024 0.0
C62 C 0.80672 0.86598 0.66738 0.0
C63 C 0.82288 0.87265 0.6534 0.0
N64 N 0.85906 0.88799 0.62569 0.0
C65 C 0.84309 0.9012 0.63389 0.0
C66 C 0.84646 0.92249 0.62891 0.0
C67 C 0.86493 0.92267 0.61644 0.0
C68 C 0.87169 0.90157 0.61461 0.0
N69 N 0.88668 0.85574 0.60535 0.0
C70 C 0.89583 0.87296 0.59614 0.0
C71 C 0.91361 0.86784 0.5834 0.0
C72 C 0.91629 0.84612 0.58488 0.0
C73 C 0.89982 0.83916 0.59842 0.0
N74 N 0.84066 0.85538 0.60339 0.0
C75 C 0.80826 0.85765 0.57293 0.0
C76 C 0.82687 0.8696 0.57054 0.0
C77 C 0.84274 0.86824 0.58585 0.0
C78 C 0.80652 0.84408 0.5905 0.0
C79 C 0.82283 0.84306 0.60528 0.0
N80 N 0.88267 0.85656 0.64957 0.0
C81 C 0.91429 0.87106 0.66494 0.0
C82 C 0.91336 0.85637 0.68166 0.0
C83 C 0.89677 0.84187 0.68217 0.0
C84 C 0.88168 0.8423 0.66616 0.0
C85 C 0.89897 0.87083 0.64917 0.0
H86 H 0.86948 0.83083 0.66753 0.0
H87 H 0.90083 0.88221 0.63674 0.0
H88 H 0.85637 0.87799 0.58334 0.0
H89 H 0.82037 0.83257 0.61837 0.0
C90 C 0.8353 0.81829 0.65249 0.0
C91 C 0.89832 0.817 0.60567 0.0
C92 C 0.82321 0.89409 0.6442 0.0
C93 C 0.88839 0.89381 0.60098 0.0
H94 H 0.88449 0.77511 0.61681 0.0
H95 H 0.84989 0.77551 0.64282 0.0
H96 H 0.80013 0.83365 0.6791 0.0
H97 H 0.79311 0.87544 0.67401 0.0
H98 H 0.83599 0.93628 0.63299 0.0
H99 H 0.87189 0.93642 0.6087 0.0
H100 H 0.92393 0.8787 0.57476 0.0
H101 H 0.9294 0.83668 0.57738 0.0
H102 H 0.8292 0.88004 0.55697 0.0
H103 H 0.79235 0.83463 0.59325 0.0
H104 H 0.92705 0.88246 0.66377 0.0
H105 H 0.89526 0.83034 0.69498 0.0
C106 C 0.43041 0.61502 0.88536 0.0
C107 C 0.45076 0.60748 0.89164 0.0
C108 C 0.44726 0.59194 0.90658 0.0
C109 C 0.42504 0.59102 0.90856 0.0
N110 N 0.41421 0.60457 0.89531 0.0
Co111 Co 0.38203 0.61063 0.89438 0.0
N112 N 0.37664 0.58989 0.91807 0.0
C113 C 0.39156 0.57761 0.9285 0.0
C114 C 0.38251 0.56344 0.94259 0.0
C115 C 0.36052 0.56642 0.9405 0.0
C116 C 0.35753 0.58234 0.92534 0.0
N117 N 0.34998 0.61748 0.89414 0.0
C118 C 0.33372 0.60802 0.90498 0.0
C119 C 0.31357 0.61759 0.90045 0.0
C120 C 0.31729 0.63323 0.88569 0.0
C121 C 0.33939 0.63236 0.88212 0.0
N122 N 0.38724 0.63062 0.87008 0.0
C123 C 0.3721 0.64144 0.85857 0.0
C124 C 0.38088 0.65412 0.843 0.0
C125 C 0.4029 0.65159 0.84505 0.0
C126 C 0.40624 0.63746 0.86183 0.0
N127 N 0.37899 0.58703 0.87415 0.0
C128 C 0.37478 0.55358 0.84525 0.0
C129 C 0.36136 0.5722 0.8444 0.0
C130 C 0.3638 0.5886 0.85876 0.0
C131 C 0.39012 0.55192 0.86109 0.0
C132 C 0.39181 0.56857 0.87532 0.0
N133 N 0.38503 0.63423 0.91458 0.0
C134 C 0.3787 0.67133 0.92425 0.0
C135 C 0.38862 0.66758 0.94356 0.0
C136 C 0.39711 0.64696 0.94791 0.0
C137 C 0.39518 0.63068 0.93333 0.0
C138 C 0.37716 0.6546 0.91009 0.0
H139 H 0.40196 0.61535 0.93764 0.0
H140 H 0.36953 0.65856 0.89561 0.0
H141 H 0.35313 0.60238 0.8571 0.0
H142 H 0.40364 0.56611 0.88711 0.0
C143 C 0.41382 0.57873 0.92356 0.0
C144 C 0.42716 0.63357 0.87159 0.0
C145 C 0.33658 0.5877 0.91621 0.0
C146 C 0.35019 0.64239 0.86523 0.0
H147 H 0.4664 0.61329 0.88653 0.0
H148 H 0.45941 0.58307 0.91558 0.0
H149 H 0.3909 0.55163 0.9524 0.0
H150 H 0.34807 0.55726 0.94837 0.0
H151 H 0.29771 0.61299 0.90617 0.0
H152 H 0.30519 0.64298 0.87746 0.0
H153 H 0.37232 0.66507 0.83244 0.0
H154 H 0.41498 0.66013 0.83602 0.0
H155 H 0.34888 0.57418 0.83275 0.0
H156 H 0.40111 0.53798 0.86239 0.0
H157 H 0.37223 0.68715 0.91998 0.0
H158 H 0.40481 0.6432 0.96273 0.0
C159 C 0.61164 0.17724 0.12128 0.0
C160 C 0.61676 0.19822 0.12502 0.0
C161 C 0.63239 0.19734 0.13988 0.0
C162 C 0.63595 0.17597 0.14426 0.0
N163 N 0.62387 0.16312 0.13274 0.0
Co164 Co 0.62342 0.13115 0.13421 0.0
N165 N 0.64543 0.12982 0.15697 0.0
C166 C 0.65429 0.14644 0.16649 0.0
C167 C 0.6702 0.1403 0.1803 0.0
C168 C 0.67205 0.1185 0.17905 0.0
C169 C 0.65703 0.11264 0.16456 0.0
N170 N 0.62297 0.09918 0.13579 0.0
C171 C 0.63643 0.08518 0.14603 0.0
C172 C 0.63154 0.06414 0.14247 0.0
C173 C 0.61467 0.06487 0.12891 0.0
C174 C 0.61031 0.08625 0.12504 0.0
N175 N 0.6016 0.13236 0.11129 0.0
C176 C 0.59247 0.11559 0.10222 0.0
C177 C 0.57739 0.12152 0.08754 0.0
C178 C 0.57655 0.14336 0.08747 0.0
C179 C 0.59131 0.14954 0.10213 0.0
N180 N 0.64743 0.12895 0.11268 0.0
C181 C 0.68142 0.12611 0.08196 0.0
C182 C 0.66344 0.11333 0.08087 0.0
C183 C 0.64677 0.11498 0.09627 0.0
C184 C 0.68223 0.14009 0.09887 0.0
C185 C 0.66524 0.14122 0.11393 0.0
N186 N 0.59929 0.13341 0.15576 0.0
C187 C 0.56343 0.12386 0.16827 0.0
C188 C 0.56423 0.13758 0.18539 0.0
C189 C 0.58293 0.14919 0.18742 0.0
C190 C 0.60008 0.1469 0.17256 0.0
C191 C 0.58095 0.122 0.15387 0.0
H192 H 0.61374 0.15631 0.17498 0.0
H193 H 0.57911 0.11136 0.14122 0.0
H194 H 0.63354 0.10479 0.09459 0.0
H195 H 0.66691 0.15208 0.12649 0.0
C196 C 0.64958 0.16753 0.15988 0.0
C197 C 0.59366 0.1717 0.10826 0.0
C198 C 0.6559 0.09105 0.15656 0.0
C199 C 0.59676 0.09456 0.10932 0.0
H200 H 0.60934 0.21266 0.11824 0.0
H201 H 0.63974 0.21072 0.14713 0.0
H202 H 0.68023 0.15052 0.18917 0.0
H203 H 0.68382 0.10825 0.18712 0.0
H204 H 0.6402 0.04983 0.14811 0.0
H205 H 0.60745 0.05142 0.12167 0.0
H206 H 0.56747 0.11121 0.07864 0.0
H207 H 0.56568 0.15347 0.07819 0.0
H208 H 0.662 0.10232 0.06799 0.0
H209 H 0.69602 0.15004 0.10062 0.0
H210 H 0.54918 0.11476 0.16574 0.0
H211 H 0.58448 0.15987 0.20054 0.0
C212 C 0.11239 0.61387 0.15171 0.0
C213 C 0.11721 0.61841 0.17235 0.0
C214 C 0.13298 0.63312 0.17131 0.0
C215 C 0.13682 0.63668 0.15017 0.0
N216 N 0.12404 0.62553 0.13768 0.0
Co217 Co 0.12494 0.62459 0.10612 0.0
N218 N 0.14974 0.64434 0.10445 0.0
C219 C 0.16024 0.65275 0.12063 0.0
C220 C 0.17539 0.66716 0.11428 0.0
C221 C 0.17398 0.66849 0.09284 0.0
C222 C 0.15806 0.65474 0.08743 0.0
N223 N 0.12604 0.62354 0.07457 0.0
C224 C 0.13711 0.63581 0.0606 0.0
C225 C 0.13259 0.63108 0.03994 0.0
C226 C 0.11763 0.61556 0.04092 0.0
C227 C 0.1139 0.61179 0.06205 0.0
N228 N 0.09995 0.60507 0.10774 0.0
C229 C 0.08957 0.59673 0.09143 0.0
C230 C 0.0737 0.58307 0.09762 0.0
C231 C 0.07431 0.58226 0.11912 0.0
C232 C 0.09057 0.59556 0.12479 0.0
N233 N 0.10426 0.64978 0.10486 0.0
C234 C 0.07539 0.68595 0.10262 0.0
C235 C 0.07275 0.66815 0.09001 0.0
C236 C 0.08727 0.65041 0.09135 0.0
C237 C 0.09282 0.68536 0.11625 0.0
C238 C 0.10689 0.66728 0.11715 0.0
N239 N 0.14561 0.59931 0.10749 0.0
C240 C 0.15526 0.56244 0.09897 0.0
C241 C 0.17276 0.56218 0.11251 0.0
C242 C 0.17678 0.58101 0.12302 0.0
C243 C 0.16315 0.59919 0.12031 0.0
C244 C 0.14208 0.58104 0.09664 0.0
H245 H 0.16703 0.61284 0.12899 0.0
H246 H 0.12892 0.58007 0.08626 0.0
H247 H 0.08443 0.63741 0.08128 0.0
H248 H 0.11988 0.66793 0.12778 0.0
C249 C 0.15352 0.64891 0.14157 0.0
C250 C 0.0982 0.59693 0.1462 0.0
C251 C 0.14953 0.65395 0.06639 0.0
C252 C 0.09689 0.59997 0.07058 0.0
H253 H 0.1106 0.61116 0.18661 0.0
H254 H 0.14133 0.63968 0.18436 0.0
H255 H 0.18527 0.67656 0.12415 0.0
H256 H 0.18278 0.67914 0.08242 0.0
H257 H 0.13857 0.63887 0.02571 0.0
H258 H 0.10939 0.60891 0.02785 0.0
H259 H 0.0637 0.57389 0.08765 0.0
H260 H 0.06456 0.57227 0.12935 0.0
H261 H 0.05935 0.66771 0.07935 0.0
H262 H 0.09582 0.69889 0.12608 0.0
H263 H 0.1514 0.54823 0.09051 0.0
H264 H 0.19046 0.58181 0.13331 0.0
C265 C 0.63232 0.89116 0.40971 0.0
C266 C 0.62084 0.90113 0.42625 0.0
C267 C 0.60708 0.91625 0.41743 0.0
C268 C 0.61098 0.91465 0.3961 0.0
N269 N 0.62604 0.89905 0.39077 0.0
Co270 Co 0.63799 0.89225 0.3618 0.0
N271 N 0.61841 0.91488 0.3488 0.0
C272 C 0.60368 0.92821 0.35872 0.0
C273 C 0.59116 0.94042 0.34515 0.0
C274 C 0.59782 0.93391 0.32541 0.0
C275 C 0.61413 0.91823 0.32819 0.0
N276 N 0.65059 0.88624 0.33294 0.0
C277 C 0.64358 0.89347 0.31403 0.0
C278 C 0.6566 0.88532 0.29755 0.0
C279 C 0.67201 0.87189 0.30644 0.0
C280 C 0.66752 0.87267 0.32773 0.0
N281 N 0.65683 0.86886 0.37448 0.0
C282 C 0.67073 0.85503 0.36407 0.0
C283 C 0.68138 0.84067 0.37708 0.0
C284 C 0.67406 0.84581 0.39697 0.0
C285 C 0.65927 0.86313 0.39495 0.0
N286 N 0.61524 0.87126 0.3579 0.0
C287 C 0.58331 0.84092 0.35345 0.0
C288 C 0.60388 0.8379 0.34382 0.0
C289 C 0.61958 0.85306 0.3464 0.0
C290 C 0.5788 0.85952 0.36497 0.0
C291 C 0.59479 0.87448 0.36678 0.0
N292 N 0.66085 0.91318 0.36595 0.0
C293 C 0.69883 0.92107 0.36855 0.0
C294 C 0.69328 0.94188 0.3751 0.0
C295 C 0.67125 0.94823 0.37653 0.0
C296 C 0.65546 0.93379 0.37187 0.0
C297 C 0.68252 0.90713 0.36407 0.0
H298 H 0.63903 0.93967 0.37342 0.0
H299 H 0.68791 0.89145 0.35945 0.0
H300 H 0.63515 0.84966 0.33905 0.0
H301 H 0.59017 0.88857 0.37535 0.0
C302 C 0.60089 0.92755 0.38069 0.0
C303 C 0.64987 0.87513 0.41282 0.0
C304 C 0.62256 0.90453 0.31125 0.0
C305 C 0.67569 0.8579 0.34258 0.0
H306 H 0.62261 0.89805 0.44296 0.0
H307 H 0.59588 0.92736 0.4256 0.0
H308 H 0.57794 0.95178 0.34915 0.0
H309 H 0.59072 0.93909 0.31068 0.0
H310 H 0.65444 0.8877 0.28083 0.0
H311 H 0.6839 0.86151 0.29824 0.0
H312 H 0.69384 0.82864 0.37274 0.0
H313 H 0.67975 0.83821 0.41131 0.0
H314 H 0.60804 0.82363 0.33481 0.0
H315 H 0.56291 0.8626 0.37242 0.0
H316 H 0.71569 0.91535 0.36731 0.0
H317 H 0.66613 0.96434 0.38113 0.0
C318 C 0.36253 0.37269 0.6868 0.0
C319 C 0.3516 0.36604 0.70505 0.0
C320 C 0.33899 0.34977 0.69946 0.0
C321 C 0.34278 0.34748 0.67821 0.0
N322 N 0.35743 0.36102 0.66991 0.0
Co323 Co 0.3662 0.36451 0.63933 0.0
N324 N 0.34585 0.34219 0.63081 0.0
C325 C 0.33222 0.33112 0.64355 0.0
C326 C 0.32094 0.31624 0.63321 0.0
C327 C 0.32817 0.31751 0.61271 0.0
C328 C 0.34357 0.33308 0.61179 0.0
N329 N 0.37478 0.36817 0.60874 0.0
C330 C 0.3697 0.35651 0.59183 0.0
C331 C 0.38011 0.36362 0.57348 0.0
C332 C 0.3924 0.38016 0.57904 0.0
C333 C 0.38891 0.38217 0.60036 0.0
N334 N 0.38677 0.3866 0.64786 0.0
C335 C 0.40068 0.39736 0.63514 0.0
C336 C 0.41247 0.41178 0.64556 0.0
C337 C 0.40536 0.41047 0.6661 0.0
C338 C 0.38948 0.39536 0.66696 0.0
N339 N 0.38954 0.3418 0.64228 0.0
C340 C 0.42168 0.30831 0.64394 0.0
C341 C 0.42587 0.32763 0.63361 0.0
C342 C 0.40974 0.34403 0.63303 0.0
C343 C 0.40133 0.30626 0.65391 0.0
C344 C 0.38565 0.32306 0.65292 0.0
N345 N 0.34286 0.38727 0.63648 0.0
C346 C 0.33173 0.42394 0.62807 0.0
C347 C 0.31115 0.42123 0.63738 0.0
C348 C 0.30639 0.40096 0.64526 0.0
C349 C 0.32229 0.38436 0.64458 0.0
C350 C 0.34718 0.40686 0.62773 0.0
H351 H 0.31764 0.36945 0.65111 0.0
H352 H 0.36267 0.41006 0.62077 0.0
H353 H 0.41392 0.35824 0.62475 0.0
H354 H 0.37038 0.32033 0.66055 0.0
C355 C 0.33152 0.33405 0.66536 0.0
C356 C 0.37629 0.39113 0.68591 0.0
C357 C 0.35662 0.3376 0.59282 0.0
C358 C 0.40073 0.39506 0.61326 0.0
H359 H 0.35205 0.37269 0.72067 0.0
H360 H 0.32769 0.34125 0.70952 0.0
H361 H 0.30942 0.30526 0.63991 0.0
H362 H 0.32323 0.30762 0.59998 0.0
H363 H 0.37964 0.35704 0.55784 0.0
H364 H 0.40348 0.38889 0.56893 0.0
H365 H 0.42418 0.42258 0.63888 0.0
H366 H 0.41066 0.42008 0.67888 0.0
H367 H 0.44155 0.33012 0.62595 0.0
H368 H 0.39723 0.29153 0.66198 0.0
H369 H 0.33619 0.43935 0.62169 0.0
H370 H 0.29047 0.39791 0.65212 0.0
C371 C 0.87186 0.11134 0.92473 0.0
C372 C 0.8777 0.10588 0.94516 0.0
C373 C 0.89885 0.09841 0.94398 0.0
C374 C 0.90471 0.09978 0.92301 0.0
N375 N 0.88866 0.10791 0.91071 0.0
Co376 Co 0.88997 0.1121 0.87925 0.0
N377 N 0.92099 0.10062 0.87746 0.0
C378 C 0.93342 0.09373 0.89367 0.0
C379 C 0.95439 0.08782 0.88774 0.0
C380 C 0.95556 0.09135 0.86649 0.0
C381 C 0.93508 0.09912 0.86064 0.0
N382 N 0.89113 0.11589 0.84777 0.0
C383 C 0.90788 0.11235 0.83373 0.0
C384 C 0.90168 0.1167 0.81317 0.0
C385 C 0.88038 0.12372 0.81431 0.0
C386 C 0.87477 0.12311 0.83536 0.0
N387 N 0.85911 0.12396 0.88106 0.0
C388 C 0.84688 0.13144 0.86492 0.0
C389 C 0.82623 0.13837 0.87099 0.0
C390 C 0.8251 0.13503 0.89227 0.0
C391 C 0.84525 0.12626 0.89798 0.0
N392 N 0.90042 0.14137 0.88256 0.0
C393 C 0.91639 0.18256 0.88639 0.0
C394 C 0.90083 0.17854 0.87155 0.0
C395 C 0.89301 0.15801 0.87001 0.0
C396 C 0.92355 0.16576 0.89951 0.0
C397 C 0.91549 0.14546 0.89729 0.0
N398 N 0.87944 0.08283 0.87604 0.0
C399 C 0.85295 0.05934 0.8629 0.0
C400 C 0.86126 0.04237 0.87521 0.0
C401 C 0.8795 0.04566 0.88711 0.0
C402 C 0.88837 0.06582 0.88716 0.0
C403 C 0.86223 0.07924 0.86353 0.0
H404 H 0.90214 0.06734 0.89668 0.0
H405 H 0.85479 0.09161 0.8542 0.0
H406 H 0.88115 0.15597 0.85842 0.0
H407 H 0.92195 0.13329 0.90748 0.0
C408 C 0.92513 0.09357 0.9144 0.0
C409 C 0.85009 0.11949 0.91949 0.0
C410 C 0.93007 0.1057 0.8391 0.0
C411 C 0.85475 0.13045 0.84407 0.0
H412 H 0.86765 0.10705 0.95943 0.0
H413 H 0.90875 0.09255 0.95684 0.0
H414 H 0.9674 0.08205 0.89775 0.0
H415 H 0.97001 0.08884 0.85654 0.0
H416 H 0.91164 0.11532 0.79886 0.0
H417 H 0.87033 0.1291 0.80138 0.0
H418 H 0.81336 0.14458 0.86105 0.0
H419 H 0.81088 0.13828 0.90236 0.0
H420 H 0.89471 0.19117 0.86115 0.0
H421 H 0.93584 0.16808 0.91105 0.0
H422 H 0.83874 0.05758 0.85349 0.0
H423 H 0.88672 0.03283 0.89659 0.0
C424 C 0.31347 0.11039 0.40327 0.0
C425 C 0.29151 0.11548 0.40056 0.0
C426 C 0.29023 0.12879 0.38338 0.0
C427 C 0.31136 0.13093 0.37652 0.0
N428 N 0.32607 0.11951 0.38808 0.0
Co429 Co 0.3585 0.11781 0.38359 0.0
N430 N 0.35679 0.1386 0.35922 0.0
C431 C 0.33867 0.14872 0.3517 0.0
C432 C 0.34258 0.16151 0.3344 0.0
C433 C 0.36447 0.15921 0.33042 0.0
C434 C 0.37267 0.14514 0.34563 0.0
N435 N 0.39094 0.11598 0.37898 0.0
C436 C 0.40348 0.12473 0.36354 0.0
C437 C 0.42539 0.11919 0.36587 0.0
C438 C 0.42671 0.10604 0.38315 0.0
C439 C 0.40564 0.10439 0.39038 0.0
N440 N 0.36023 0.09713 0.40806 0.0
C441 C 0.37843 0.08736 0.41582 0.0
C442 C 0.37465 0.07489 0.43334 0.0
C443 C 0.35275 0.077 0.43724 0.0
C444 C 0.34438 0.09062 0.4217 0.0
N445 N 0.35589 0.09365 0.3639 0.0
C446 C 0.35208 0.0594 0.33583 0.0
C447 C 0.36787 0.05859 0.3513 0.0
C448 C 0.3694 0.07568 0.36508 0.0
C449 C 0.3383 0.07774 0.3347 0.0
C450 C 0.34057 0.09454 0.34863 0.0
N451 N 0.36103 0.14198 0.40333 0.0
C452 C 0.37813 0.15785 0.43286 0.0
C453 C 0.36312 0.17531 0.43278 0.0
C454 C 0.34729 0.17593 0.41738 0.0
C455 C 0.34664 0.15935 0.40289 0.0
C456 C 0.37675 0.1415 0.41822 0.0
H457 H 0.33413 0.16083 0.39168 0.0
H458 H 0.38847 0.12856 0.41941 0.0
H459 H 0.38173 0.07402 0.37649 0.0
H460 H 0.32972 0.10808 0.34667 0.0
C461 C 0.31802 0.14445 0.36006 0.0
C462 C 0.32155 0.09796 0.42125 0.0
C463 C 0.39534 0.13738 0.34576 0.0
C464 C 0.39902 0.09132 0.40717 0.0
H465 H 0.27789 0.11051 0.41035 0.0
H466 H 0.27569 0.13644 0.37699 0.0
H467 H 0.3308 0.17076 0.32529 0.0
H468 H 0.37328 0.16659 0.31743 0.0
H469 H 0.43896 0.1238 0.3558 0.0
H470 H 0.44123 0.09819 0.38939 0.0
H471 H 0.38649 0.0659 0.4426 0.0
H472 H 0.34412 0.06977 0.4504 0.0
H473 H 0.37925 0.04496 0.35266 0.0
H474 H 0.32558 0.07915 0.32326 0.0
H475 H 0.39101 0.15672 0.44416 0.0
H476 H 0.33506 0.1889 0.41671 0.0
C477 C 0.1749 0.1143 0.61479 0.0
C478 C 0.19475 0.12347 0.61769 0.0
C479 C 0.1908 0.14034 0.63101 0.0
C480 C 0.16889 0.14044 0.6357 0.0
N481 N 0.15888 0.12443 0.62645 0.0
Co482 Co 0.12751 0.11861 0.62944 0.0
N483 N 0.12379 0.13708 0.65458 0.0
C484 C 0.13721 0.1522 0.6604 0.0
C485 C 0.1307 0.16161 0.67912 0.0
C486 C 0.11205 0.15175 0.68541 0.0
C487 C 0.10816 0.13695 0.67002 0.0
N488 N 0.09618 0.11293 0.63253 0.0
C489 C 0.08286 0.11495 0.64976 0.0
C490 C 0.06194 0.10922 0.64539 0.0
C491 C 0.06239 0.10327 0.62462 0.0
C492 C 0.08345 0.10578 0.61753 0.0
N493 N 0.13097 0.10014 0.60425 0.0
C494 C 0.11465 0.09379 0.59239 0.0
C495 C 0.12183 0.08173 0.57549 0.0
C496 C 0.14404 0.08073 0.57652 0.0
C497 C 0.14925 0.09231 0.59411 0.0
N498 N 0.13437 0.09406 0.64771 0.0
C499 C 0.13997 0.06088 0.67721 0.0
C500 C 0.12716 0.05832 0.65963 0.0
C501 C 0.12452 0.07514 0.64507 0.0
C502 C 0.15078 0.07994 0.67915 0.0
C503 C 0.1479 0.09624 0.66417 0.0
N504 N 0.12052 0.14329 0.61127 0.0
C505 C 0.12781 0.16412 0.57994 0.0
C506 C 0.11085 0.17883 0.58545 0.0
C507 C 0.09879 0.1754 0.60416 0.0
C508 C 0.1038 0.15747 0.61678 0.0
C509 C 0.13242 0.14657 0.59307 0.0
H510 H 0.09415 0.1551 0.63103 0.0
H511 H 0.14572 0.13572 0.58847 0.0
H512 H 0.11391 0.07312 0.6321 0.0
H513 H 0.15605 0.1109 0.66634 0.0
C514 C 0.15785 0.15341 0.65073 0.0
C515 C 0.1715 0.09832 0.59854 0.0
C516 C 0.08938 0.1233 0.66994 0.0
C517 C 0.09285 0.0975 0.59885 0.0
H518 H 0.21035 0.11888 0.61036 0.0
H519 H 0.20258 0.15099 0.63686 0.0
H520 H 0.13923 0.17321 0.68787 0.0
H521 H 0.10273 0.15489 0.69984 0.0
H522 H 0.04792 0.10924 0.65611 0.0
H523 H 0.04922 0.09683 0.6161 0.0
H524 H 0.11209 0.0744 0.56387 0.0
H525 H 0.15511 0.073 0.56514 0.0
H526 H 0.1185 0.04381 0.65761 0.0
H527 H 0.16112 0.08239 0.69237 0.0
H528 H 0.13772 0.16635 0.56574 0.0
H529 H 0.08545 0.18634 0.60889 0.0
C530 C 0.13691 0.91502 0.86823 0.0
C531 C 0.12865 0.93563 0.87219 0.0
C532 C 0.11595 0.93444 0.89014 0.0
C533 C 0.11724 0.91327 0.89609 0.0
N534 N 0.13042 0.90094 0.88329 0.0
Co535 Co 0.13611 0.86915 0.88525 0.0
N536 N 0.11575 0.86697 0.91043 0.0
C537 C 0.10405 0.88311 0.92001 0.0
C538 C 0.09249 0.87674 0.93764 0.0
C539 C 0.09743 0.85533 0.9397 0.0
C540 C 0.11176 0.84992 0.92314 0.0
N541 N 0.14149 0.83731 0.88697 0.0
C542 C 0.13447 0.82306 0.90163 0.0
C543 C 0.14235 0.80238 0.89729 0.0
C544 C 0.15513 0.80367 0.87942 0.0
C545 C 0.15432 0.82495 0.8739 0.0
N546 N 0.15675 0.87138 0.86031 0.0
C547 C 0.16902 0.85533 0.85124 0.0
C548 C 0.18093 0.86166 0.83385 0.0
C549 C 0.1757 0.88296 0.83142 0.0
C550 C 0.16087 0.88841 0.8476 0.0
N551 N 0.16039 0.87302 0.90456 0.0
C552 C 0.19253 0.87499 0.93506 0.0
C553 C 0.19526 0.86105 0.91809 0.0
C554 C 0.1792 0.86046 0.90304 0.0
C555 C 0.17397 0.88863 0.93596 0.0
C556 C 0.15826 0.8874 0.92068 0.0
N557 N 0.11178 0.86524 0.86605 0.0
C558 C 0.09773 0.84998 0.83467 0.0
C559 C 0.07784 0.86129 0.83776 0.0
C560 C 0.07508 0.8743 0.85542 0.0
C561 C 0.09209 0.87597 0.86927 0.0
C562 C 0.11437 0.85221 0.84887 0.0
H563 H 0.08894 0.88619 0.88236 0.0
H564 H 0.12925 0.84345 0.84545 0.0
H565 H 0.18215 0.84937 0.89059 0.0
H566 H 0.14428 0.89785 0.92263 0.0
C567 C 0.10532 0.90427 0.91283 0.0
C568 C 0.14971 0.9094 0.84926 0.0
C569 C 0.12204 0.82866 0.92079 0.0
C570 C 0.16704 0.83409 0.85786 0.0
H571 H 0.13107 0.94991 0.86271 0.0
H572 H 0.10635 0.94733 0.89756 0.0
H573 H 0.08225 0.88662 0.94812 0.0
H574 H 0.09163 0.84495 0.95225 0.0
H575 H 0.13978 0.78798 0.90652 0.0
H576 H 0.16462 0.79078 0.87188 0.0
H577 H 0.19134 0.85175 0.82354 0.0
H578 H 0.18153 0.89305 0.81868 0.0
H579 H 0.20962 0.85045 0.91654 0.0
H580 H 0.17109 0.89965 0.94888 0.0
H581 H 0.10067 0.83984 0.82108 0.0
H582 H 0.05982 0.88314 0.85862 0.0
C583 C 0.38294 0.88878 0.17878 0.0
C584 C 0.39365 0.90792 0.17875 0.0
C585 C 0.4116 0.90527 0.16557 0.0
C586 C 0.41096 0.88475 0.15834 0.0
N587 N 0.39358 0.87442 0.16598 0.0
Co588 Co 0.38745 0.8442 0.16056 0.0
N589 N 0.40694 0.84363 0.13514 0.0
C590 C 0.42288 0.85712 0.13058 0.0
C591 C 0.4333 0.85283 0.11154 0.0
C592 C 0.42327 0.83552 0.10377 0.0
C593 C 0.40732 0.8302 0.11862 0.0
N594 N 0.38164 0.81395 0.15514 0.0
C595 C 0.38422 0.80299 0.13697 0.0
C596 C 0.37806 0.78204 0.13975 0.0
C597 C 0.37132 0.77999 0.1605 0.0
C598 C 0.37379 0.79973 0.16918 0.0
N599 N 0.36794 0.84469 0.186 0.0
C600 C 0.36088 0.8274 0.19663 0.0
C601 C 0.34722 0.8327 0.21342 0.0
C602 C 0.34585 0.85465 0.2135 0.0
C603 C 0.359 0.86158 0.19681 0.0
N604 N 0.36313 0.85337 0.14317 0.0
C605 C 0.33082 0.86196 0.1139 0.0
C606 C 0.32775 0.84698 0.13023 0.0
C607 C 0.34405 0.84301 0.14477 0.0
C608 C 0.34983 0.87348 0.11332 0.0
C609 C 0.36577 0.86896 0.12812 0.0
N610 N 0.41195 0.83495 0.1778 0.0
C611 C 0.43388 0.84046 0.20775 0.0
C612 C 0.45015 0.8263 0.19955 0.0
C613 C 0.44633 0.8155 0.18094 0.0
C614 C 0.42699 0.81989 0.17042 0.0
C615 C 0.41495 0.84459 0.19663 0.0
H616 H 0.42465 0.81175 0.15583 0.0
H617 H 0.40322 0.85635 0.20283 0.0
H618 H 0.34158 0.83095 0.15678 0.0
H619 H 0.38065 0.87741 0.12679 0.0
C620 C 0.42451 0.87574 0.14234 0.0
C621 C 0.36433 0.88406 0.19293 0.0
C622 C 0.39346 0.81182 0.11734 0.0
C623 C 0.36475 0.80676 0.18854 0.0
H624 H 0.38932 0.92218 0.18768 0.0
H625 H 0.42343 0.91705 0.16146 0.0
H626 H 0.44591 0.86183 0.10374 0.0
H627 H 0.4272 0.82783 0.08888 0.0
H628 H 0.3783 0.76963 0.128 0.0
H629 H 0.36437 0.76611 0.168 0.0
H630 H 0.33872 0.82193 0.22395 0.0
H631 H 0.33647 0.8644 0.22476 0.0
H632 H 0.3131 0.83801 0.13146 0.0
H633 H 0.35289 0.88515 0.10093 0.0
H634 H 0.43628 0.8493 0.222 0.0
H635 H 0.45846 0.80428 0.17423 0.0
C636 C 0.33812 0.37715 0.15211 0.0
C637 C 0.32312 0.37198 0.16789 0.0
C638 C 0.32623 0.35054 0.17181 0.0
C639 C 0.34282 0.34392 0.15818 0.0
N640 N 0.35091 0.35996 0.14621 0.0
Co641 Co 0.37346 0.35749 0.12274 0.0
N642 N 0.37538 0.32556 0.12576 0.0
C643 C 0.36406 0.31332 0.13959 0.0
C644 C 0.36953 0.29188 0.13827 0.0
C645 C 0.38565 0.29038 0.12302 0.0
C646 C 0.38908 0.31109 0.11598 0.0
N647 N 0.39572 0.35508 0.09902 0.0
C648 C 0.40738 0.33767 0.09181 0.0
C649 C 0.42182 0.34304 0.07554 0.0
C650 C 0.41939 0.36465 0.07257 0.0
C651 C 0.40374 0.37125 0.08716 0.0
N652 N 0.37168 0.38942 0.11987 0.0
C653 C 0.38369 0.40182 0.10683 0.0
C654 C 0.37793 0.42323 0.10802 0.0
C655 C 0.36086 0.42448 0.12228 0.0
C656 C 0.35724 0.40368 0.1289 0.0
N657 N 0.39717 0.35939 0.14326 0.0
C658 C 0.43157 0.3609 0.17174 0.0
C659 C 0.43224 0.37207 0.15251 0.0
C660 C 0.41502 0.37118 0.13871 0.0
C661 C 0.41324 0.34908 0.17649 0.0
C662 C 0.39647 0.34848 0.16214 0.0
N663 N 0.34981 0.3556 0.10228 0.0
C664 C 0.33269 0.36751 0.07009 0.0
C665 C 0.31513 0.35446 0.07421 0.0
C666 C 0.31544 0.34177 0.09251 0.0
C667 C 0.33281 0.34252 0.10616 0.0
C668 C 0.34964 0.36788 0.08423 0.0
H669 H 0.33194 0.33259 0.11989 0.0
H670 H 0.36234 0.37839 0.08032 0.0
H671 H 0.41671 0.37999 0.12436 0.0
H672 H 0.38319 0.33896 0.16668 0.0
C673 C 0.34932 0.32256 0.15441 0.0
C674 C 0.33832 0.39796 0.14164 0.0
C675 C 0.40681 0.31636 0.10136 0.0
C676 C 0.39799 0.39264 0.09163 0.0
H677 H 0.31063 0.38241 0.17515 0.0
H678 H 0.31669 0.34075 0.18245 0.0
H679 H 0.3631 0.27896 0.14775 0.0
H680 H 0.39445 0.27582 0.11813 0.0
H681 H 0.43354 0.33265 0.06718 0.0
H682 H 0.42868 0.3745 0.06177 0.0
H683 H 0.38445 0.43621 0.09868 0.0
H684 H 0.35137 0.43886 0.12652 0.0
H685 H 0.44617 0.38122 0.14784 0.0
H686 H 0.41167 0.34039 0.1913 0.0
H687 H 0.33347 0.37741 0.05597 0.0
H688 H 0.30214 0.33158 0.09662 0.0
C689 C 0.91641 0.87963 0.0933 0.0
C690 C 0.93555 0.88486 0.08267 0.0
C691 C 0.93189 0.90471 0.07398 0.0
C692 C 0.91088 0.9105 0.07989 0.0
N693 N 0.90087 0.8956 0.0919 0.0
Co694 Co 0.87049 0.89775 0.10441 0.0
N695 N 0.86521 0.92705 0.09171 0.0
C696 C 0.87899 0.93789 0.07891 0.0
C697 C 0.87128 0.95805 0.07352 0.0
C698 C 0.85149 0.96038 0.08367 0.0
C699 C 0.8482 0.94135 0.09462 0.0
N700 N 0.84027 0.90006 0.11722 0.0
C701 C 0.82564 0.9169 0.11761 0.0
C702 C 0.8066 0.91197 0.1286 0.0
C703 C 0.80954 0.89148 0.13593 0.0
C704 C 0.83006 0.88507 0.12895 0.0
N705 N 0.87565 0.86837 0.11695 0.0
C706 C 0.86128 0.85693 0.1285 0.0
C707 C 0.86922 0.83699 0.13436 0.0
C708 C 0.88989 0.83551 0.12603 0.0
C709 C 0.89344 0.8548 0.11561 0.0
N710 N 0.88158 0.91073 0.13002 0.0
C711 C 0.89322 0.9323 0.16629 0.0
C712 C 0.88047 0.91439 0.16788 0.0
C713 C 0.87499 0.90384 0.14969 0.0
C714 C 0.90104 0.9385 0.14635 0.0
C715 C 0.8951 0.92754 0.12855 0.0
N716 N 0.85931 0.88473 0.07868 0.0
C717 C 0.83723 0.8588 0.06253 0.0
C718 C 0.84611 0.86355 0.04262 0.0
C719 C 0.861 0.87972 0.04089 0.0
C720 C 0.8672 0.89013 0.05896 0.0
C721 C 0.844 0.86948 0.08016 0.0
H722 H 0.87868 0.9022 0.05656 0.0
H723 H 0.83692 0.86466 0.09481 0.0
H724 H 0.86496 0.89049 0.15187 0.0
H725 H 0.90111 0.93335 0.11374 0.0
C726 C 0.9 0.92967 0.07413 0.0
C727 C 0.91378 0.85924 0.10431 0.0
C728 C 0.82934 0.93803 0.10859 0.0
C729 C 0.84046 0.86538 0.13374 0.0
H730 H 0.95061 0.8753 0.08127 0.0
H731 H 0.94317 0.9138 0.06444 0.0
H732 H 0.87949 0.96999 0.06411 0.0
H733 H 0.84106 0.97477 0.08352 0.0
H734 H 0.79222 0.92227 0.13136 0.0
H735 H 0.79826 0.8825 0.14558 0.0
H736 H 0.86092 0.82492 0.14352 0.0
H737 H 0.90102 0.82169 0.12734 0.0
H738 H 0.8744 0.90875 0.18308 0.0
H739 H 0.91092 0.95234 0.14434 0.0
H740 H 0.82576 0.84624 0.0647 0.0
H741 H 0.86809 0.88414 0.0257 0.0
C742 C 0.1464 0.61086 0.66026 0.0
C743 C 0.16019 0.61496 0.67647 0.0
C744 C 0.15927 0.63665 0.679 0.0
C745 C 0.1451 0.64447 0.66417 0.0
N746 N 0.13641 0.62903 0.65275 0.0
Co747 Co 0.11715 0.63302 0.62791 0.0
N748 N 0.11834 0.66493 0.62938 0.0
C749 C 0.12922 0.67637 0.64328 0.0
C750 C 0.12566 0.69809 0.6411 0.0
C751 C 0.11113 0.70063 0.62529 0.0
C752 C 0.1067 0.68024 0.61878 0.0
N753 N 0.09839 0.63696 0.60272 0.0
C754 C 0.08893 0.65511 0.59462 0.0
C755 C 0.07621 0.65085 0.57759 0.0
C756 C 0.07734 0.62916 0.57515 0.0
C757 C 0.09058 0.62144 0.59077 0.0
N758 N 0.11548 0.60116 0.62678 0.0
C759 C 0.10375 0.58978 0.61356 0.0
C760 C 0.10673 0.56803 0.61618 0.0
C761 C 0.12167 0.56542 0.63161 0.0
C762 C 0.12694 0.5858 0.63744 0.0
N763 N 0.09076 0.63462 0.64672 0.0
C764 C 0.05175 0.64155 0.67053 0.0
C765 C 0.05247 0.62866 0.65271 0.0
C766 C 0.07199 0.62537 0.64117 0.0
C767 C 0.07109 0.65016 0.67674 0.0
C768 C 0.09025 0.64642 0.66478 0.0
N769 N 0.14346 0.6316 0.60901 0.0
C770 C 0.16367 0.61643 0.5791 0.0
C771 C 0.18074 0.62989 0.58221 0.0
C772 C 0.17906 0.64394 0.59911 0.0
C773 C 0.16052 0.6444 0.6123 0.0
C774 C 0.14524 0.61763 0.59251 0.0
H775 H 0.16043 0.65525 0.62505 0.0
H776 H 0.13266 0.60715 0.58916 0.0
H777 H 0.07135 0.61573 0.62753 0.0
H778 H 0.10434 0.65361 0.67025 0.0
C779 C 0.14133 0.66617 0.65915 0.0
C780 C 0.14484 0.58982 0.65108 0.0
C781 C 0.0896 0.67612 0.60419 0.0
C782 C 0.09301 0.59986 0.59675 0.0
H783 H 0.1705 0.60355 0.68497 0.0
H784 H 0.16869 0.6457 0.68961 0.0
H785 H 0.13207 0.71052 0.65052 0.0
H786 H 0.10382 0.71568 0.61979 0.0
H787 H 0.06626 0.66202 0.56849 0.0
H788 H 0.0684 0.62004 0.5642 0.0
H789 H 0.09999 0.5556 0.60699 0.0
H790 H 0.12885 0.55032 0.63714 0.0
H791 H 0.03791 0.62161 0.64727 0.0
H792 H 0.07147 0.65981 0.69076 0.0
H793 H 0.16428 0.60536 0.56608 0.0
H794 H 0.19208 0.65446 0.60224 0.0
C795 C 0.65683 0.80873 0.89846 0.0
C796 C 0.66981 0.79085 0.89291 0.0
C797 C 0.67279 0.79174 0.87152 0.0
C798 C 0.66157 0.81007 0.86529 0.0
N799 N 0.65176 0.82108 0.88144 0.0
Co800 Co 0.63358 0.84848 0.8796 0.0
N801 N 0.63654 0.84889 0.84801 0.0
C802 C 0.647 0.83402 0.83561 0.0
C803 C 0.64626 0.83879 0.81448 0.0
C804 C 0.63487 0.85797 0.81329 0.0
C805 C 0.62941 0.86383 0.83387 0.0
N806 N 0.61562 0.87601 0.87775 0.0
C807 C 0.61077 0.88849 0.86074 0.0
C808 C 0.59854 0.90683 0.86644 0.0
C809 C 0.59565 0.90597 0.88782 0.0
C810 C 0.60631 0.88731 0.89394 0.0
N811 N 0.63041 0.84791 0.91119 0.0
C812 C 0.61935 0.86242 0.92352 0.0
C813 C 0.61945 0.85735 0.94459 0.0
C814 C 0.63104 0.8383 0.94582 0.0
C815 C 0.63742 0.83289 0.92532 0.0
N816 N 0.66023 0.86499 0.8813 0.0
C817 C 0.69794 0.88868 0.88311 0.0
C818 C 0.67988 0.89346 0.89633 0.0
C819 C 0.6613 0.88155 0.89511 0.0
C820 C 0.69689 0.8718 0.8691 0.0
C821 C 0.67808 0.86024 0.8685 0.0
N822 N 0.60696 0.83191 0.8779 0.0
C823 C 0.56983 0.82537 0.88893 0.0
C824 C 0.56999 0.80705 0.87655 0.0
C825 C 0.58884 0.80158 0.8647 0.0
C826 C 0.60691 0.81412 0.86557 0.0
C827 C 0.58834 0.83751 0.88932 0.0
H828 H 0.62074 0.80885 0.85634 0.0
H829 H 0.58726 0.85122 0.89912 0.0
H830 H 0.64796 0.88616 0.90537 0.0
H831 H 0.67839 0.84759 0.85748 0.0
C832 C 0.65864 0.81652 0.84434 0.0
C833 C 0.64909 0.81281 0.91999 0.0
C834 C 0.61833 0.8842 0.83918 0.0
C835 C 0.6085 0.88036 0.9148 0.0
H836 H 0.67609 0.77826 0.90324 0.0
H837 H 0.68159 0.78012 0.86164 0.0
H838 H 0.65362 0.82968 0.80153 0.0
H839 H 0.63138 0.86688 0.79895 0.0
H840 H 0.59266 0.91972 0.85626 0.0
H841 H 0.58721 0.91777 0.89776 0.0
H842 H 0.61165 0.86622 0.95748 0.0
H843 H 0.63405 0.82923 0.96017 0.0
H844 H 0.67989 0.90661 0.90728 0.0
H845 H 0.7106 0.86738 0.8587 0.0
H846 H 0.5555 0.83034 0.89826 0.0
H847 H 0.58994 0.78732 0.85516 0.0
C848 C 0.92419 0.16613 0.37314 0.0
C849 C 0.94571 0.16415 0.37914 0.0
C850 C 0.94754 0.14612 0.39144 0.0
C851 C 0.92715 0.13813 0.39216 0.0
N852 N 0.91247 0.14971 0.3807 0.0
Co853 Co 0.88079 0.14432 0.37785 0.0
N854 N 0.88295 0.11894 0.39754 0.0
C855 C 0.90089 0.11112 0.4074 0.0
C856 C 0.89745 0.09308 0.41934 0.0
C857 C 0.87611 0.08893 0.41674 0.0
C858 C 0.86779 0.10474 0.40329 0.0
N859 N 0.84904 0.13908 0.37518 0.0
C860 C 0.83708 0.12314 0.3834 0.0
C861 C 0.81556 0.12518 0.37735 0.0
C862 C 0.81392 0.1429 0.36464 0.0
C863 C 0.83442 0.15063 0.36365 0.0
N864 N 0.8787 0.1696 0.35802 0.0
C865 C 0.86089 0.17704 0.34773 0.0
C866 C 0.86417 0.19522 0.336 0.0
C867 C 0.88524 0.19991 0.3392 0.0
C868 C 0.89367 0.18416 0.3527 0.0
N869 N 0.8878 0.12507 0.35373 0.0
C870 C 0.89482 0.09452 0.32184 0.0
C871 C 0.87807 0.11023 0.3205 0.0
C872 C 0.87501 0.12538 0.33639 0.0
C873 C 0.90863 0.09495 0.33884 0.0
C874 C 0.90484 0.11021 0.35449 0.0
N875 N 0.87374 0.16343 0.40197 0.0
C876 C 0.853 0.19332 0.41739 0.0
C877 C 0.86567 0.19222 0.43532 0.0
C878 C 0.88203 0.17606 0.43649 0.0
C879 C 0.88565 0.1619 0.41986 0.0
C880 C 0.85731 0.17891 0.40102 0.0
H881 H 0.89849 0.15014 0.42168 0.0
H882 H 0.84733 0.18083 0.38764 0.0
H883 H 0.86193 0.13687 0.3345 0.0
H884 H 0.9156 0.10924 0.36728 0.0
C885 C 0.92097 0.12048 0.40434 0.0
C886 C 0.91542 0.18449 0.36121 0.0
C887 C 0.84566 0.10506 0.39579 0.0
C888 C 0.84076 0.16787 0.35103 0.0
H889 H 0.95861 0.17493 0.37543 0.0
H890 H 0.96186 0.13993 0.3994 0.0
H891 H 0.90918 0.08378 0.42846 0.0
H892 H 0.8677 0.07556 0.42362 0.0
H893 H 0.80252 0.11463 0.38127 0.0
H894 H 0.79964 0.14906 0.35658 0.0
H895 H 0.85238 0.2045 0.32692 0.0
H896 H 0.89319 0.21377 0.33285 0.0
H897 H 0.86721 0.11071 0.30734 0.0
H898 H 0.92182 0.08302 0.34053 0.0
H899 H 0.8399 0.20536 0.41585 0.0
H900 H 0.89256 0.17468 0.44987 0.0
C901 C 0.57129 0.11014 0.62314 0.0
C902 C 0.55025 0.10579 0.61776 0.0
C903 C 0.55187 0.0882 0.60521 0.0
C904 C 0.5737 0.08282 0.60371 0.0
N905 N 0.5861 0.0957 0.61486 0.0
Co906 Co 0.61861 0.09424 0.61654 0.0
N907 N 0.62117 0.06926 0.59697 0.0
C908 C 0.60492 0.06014 0.58691 0.0
C909 C 0.61161 0.04217 0.57593 0.0
C910 C 0.6333 0.03929 0.57969 0.0
C911 C 0.63857 0.0558 0.59272 0.0
N912 N 0.6511 0.09265 0.6183 0.0
C913 C 0.66551 0.07707 0.6116 0.0
C914 C 0.68663 0.08118 0.61684 0.0
C915 C 0.68542 0.09978 0.62794 0.0
C916 C 0.66372 0.10589 0.62875 0.0
N917 N 0.61617 0.11918 0.63616 0.0
C918 C 0.63266 0.12886 0.64535 0.0
C919 C 0.62593 0.14609 0.65738 0.0
C920 C 0.60388 0.14775 0.65549 0.0
C921 C 0.59842 0.13134 0.64239 0.0
N922 N 0.61666 0.07415 0.64086 0.0
C923 C 0.61497 0.04479 0.67484 0.0
C924 C 0.62809 0.06242 0.67542 0.0
C925 C 0.62868 0.07679 0.6584 0.0
C926 C 0.6026 0.04219 0.65702 0.0
C927 C 0.60367 0.05694 0.64036 0.0
N928 N 0.62043 0.11452 0.59218 0.0
C929 C 0.63271 0.14782 0.57725 0.0
C930 C 0.61855 0.14662 0.56056 0.0
C931 C 0.60623 0.12848 0.55931 0.0
C932 C 0.60751 0.11271 0.5751 0.0
C933 C 0.63343 0.13172 0.59268 0.0
H934 H 0.59746 0.09951 0.57336 0.0
H935 H 0.64431 0.13388 0.60507 0.0
H936 H 0.63907 0.08984 0.65974 0.0
H937 H 0.59405 0.05395 0.62713 0.0
C938 C 0.58318 0.06679 0.5908 0.0
C939 C 0.57648 0.12894 0.635 0.0
C940 C 0.65957 0.057 0.60251 0.0
C941 C 0.65439 0.12226 0.64131 0.0
H942 H 0.53537 0.11481 0.622 0.0
H943 H 0.53877 0.08068 0.59753 0.0
H944 H 0.60164 0.0316 0.5674 0.0
H945 H 0.64372 0.02598 0.57428 0.0
H946 H 0.70116 0.07114 0.6139 0.0
H947 H 0.69859 0.10724 0.63557 0.0
H948 H 0.63593 0.15662 0.66592 0.0
H949 H 0.59313 0.16005 0.66245 0.0
H950 H 0.63778 0.06527 0.689 0.0
H951 H 0.59241 0.02861 0.65571 0.0
H952 H 0.6431 0.16125 0.57857 0.0
H953 H 0.59507 0.12675 0.54662 0.0
C954 C 0.13609 0.38771 0.91871 0.0
C955 C 0.13194 0.39971 0.9368 0.0
C956 C 0.12198 0.41866 0.93055 0.0
C957 C 0.12035 0.41715 0.90911 0.0
N958 N 0.12827 0.39822 0.90152 0.0
Co959 Co 0.12862 0.38943 0.87156 0.0
N960 N 0.10727 0.41287 0.86419 0.0
C961 C 0.10227 0.43058 0.87544 0.0
C962 C 0.08636 0.44352 0.86643 0.0
C963 C 0.08105 0.43325 0.84843 0.0
C964 C 0.09412 0.4146 0.84749 0.0
N965 N 0.12898 0.38096 0.84158 0.0
C966 C 0.11401 0.38547 0.82682 0.0
C967 C 0.12025 0.37625 0.80768 0.0
C968 C 0.13987 0.3655 0.81076 0.0
C969 C 0.14446 0.36879 0.83151 0.0
N970 N 0.14997 0.36584 0.87878 0.0
C971 C 0.16283 0.35469 0.86484 0.0
C972 C 0.17663 0.3399 0.87427 0.0
C973 C 0.17254 0.34211 0.89547 0.0
C974 C 0.15638 0.35824 0.89786 0.0
N975 N 0.10474 0.37066 0.87767 0.0
C976 C 0.06876 0.34529 0.88303 0.0
C977 C 0.08729 0.33781 0.87156 0.0
C978 C 0.10515 0.35068 0.8692 0.0
C979 C 0.06887 0.36542 0.89235 0.0
C980 C 0.08699 0.37788 0.88942 0.0
N981 N 0.15247 0.40831 0.86532 0.0
C982 C 0.18679 0.42183 0.87455 0.0
C983 C 0.18577 0.43644 0.85775 0.0
C984 C 0.16803 0.43656 0.84449 0.0
C985 C 0.15167 0.42208 0.84836 0.0
C986 C 0.1699 0.40809 0.87819 0.0
H987 H 0.13819 0.42229 0.83785 0.0
H988 H 0.17085 0.3976 0.8917 0.0
H989 H 0.1191 0.34464 0.86009 0.0
H990 H 0.08638 0.39359 0.89622 0.0
C991 C 0.10919 0.43195 0.89614 0.0
C992 C 0.15045 0.36825 0.9182 0.0
C993 C 0.09436 0.39912 0.83038 0.0
C994 C 0.16016 0.35726 0.84307 0.0
H995 H 0.1364 0.39551 0.95276 0.0
H996 H 0.11634 0.43182 0.94049 0.0
H997 H 0.07862 0.45801 0.8728 0.0
H998 H 0.0688 0.43872 0.83746 0.0
H999 H 0.11146 0.37708 0.79314 0.0
H1000 H 0.14903 0.35551 0.79954 0.0
H1001 H 0.18828 0.32881 0.86665 0.0
H1002 H 0.18116 0.33344 0.90776 0.0
H1003 H 0.08795 0.32216 0.86439 0.0
H1004 H 0.05481 0.37179 0.90128 0.0
H1005 H 0.20017 0.4216 0.88531 0.0
H1006 H 0.16677 0.44782 0.83139 0.0
C1007 C 0.36453 0.63008 0.41508 0.0
C1008 C 0.37508 0.61834 0.43077 0.0
C1009 C 0.39011 0.60497 0.42083 0.0
C1010 C 0.38778 0.60921 0.39974 0.0
N1011 N 0.37261 0.62492 0.39561 0.0
Co1012 Co 0.36209 0.63455 0.36723 0.0
N1013 N 0.38218 0.61307 0.35256 0.0
C1014 C 0.39646 0.5989 0.36156 0.0
C1015 C 0.40926 0.58746 0.34728 0.0
C1016 C 0.40325 0.59525 0.328 0.0
C1017 C 0.38699 0.61097 0.3317 0.0
N1018 N 0.35095 0.64365 0.339 0.0
C1019 C 0.35848 0.63805 0.31953 0.0
C1020 C 0.34668 0.6484 0.30383 0.0
C1021 C 0.33141 0.66153 0.31381 0.0
C1022 C 0.33477 0.65837 0.33494 0.0
N1023 N 0.34258 0.65652 0.38175 0.0
C1024 C 0.32943 0.67169 0.37267 0.0
C1025 C 0.31776 0.6842 0.38698 0.0
C1026 C 0.32347 0.67623 0.4063 0.0
C1027 C 0.33826 0.65921 0.40259 0.0
N1028 N 0.38522 0.65571 0.36448 0.0
C1029 C 0.41856 0.68509 0.35874 0.0
C1030 C 0.39759 0.68982 0.35159 0.0
C1031 C 0.38131 0.67515 0.35475 0.0
C1032 C 0.42244 0.66538 0.36897 0.0
C1033 C 0.40575 0.65103 0.37154 0.0
N1034 N 0.33894 0.61342 0.36993 0.0
C1035 C 0.30089 0.60519 0.36993 0.0
C1036 C 0.30589 0.58372 0.37485 0.0
C1037 C 0.32776 0.57739 0.37727 0.0
C1038 C 0.34386 0.59235 0.37477 0.0
C1039 C 0.3175 0.61962 0.36754 0.0
H1040 H 0.36016 0.58649 0.37691 0.0
H1041 H 0.31253 0.63574 0.36395 0.0
H1042 H 0.36575 0.67986 0.34892 0.0
H1043 H 0.40992 0.63622 0.37918 0.0
C1044 C 0.39843 0.59773 0.38344 0.0
C1045 C 0.34564 0.64447 0.41909 0.0
C1046 C 0.37828 0.62513 0.31527 0.0
C1047 C 0.32581 0.67146 0.35099 0.0
H1048 H 0.37177 0.61876 0.44759 0.0
H1049 H 0.40077 0.59293 0.42806 0.0
H1050 H 0.42209 0.57556 0.35052 0.0
H1051 H 0.41065 0.59046 0.31303 0.0
H1052 H 0.34966 0.64739 0.28695 0.0
H1053 H 0.32023 0.67305 0.30652 0.0
H1054 H 0.30553 0.69671 0.38375 0.0
H1055 H 0.31668 0.68149 0.42139 0.0
H1056 H 0.3937 0.70467 0.34327 0.0
H1057 H 0.43824 0.661 0.3752 0.0
H1058 H 0.28417 0.61099 0.36821 0.0
H1059 H 0.33252 0.56087 0.38083 0.0
C1060 C 0.79493 0.62002 0.8649 0.0
C1061 C 0.77275 0.62042 0.86161 0.0
C1062 C 0.76931 0.63287 0.84404 0.0
C1063 C 0.78953 0.63936 0.83774 0.0
N1064 N 0.80575 0.63125 0.84985 0.0
Co1065 Co 0.83719 0.63839 0.84823 0.0
N1066 N 0.83194 0.65899 0.82422 0.0
C1067 C 0.81286 0.66375 0.81477 0.0
C1068 C 0.8149 0.6769 0.79739 0.0
C1069 C 0.83666 0.68024 0.79527 0.0
C1070 C 0.84657 0.66895 0.81158 0.0
N1071 N 0.86845 0.6461 0.84721 0.0
C1072 C 0.87918 0.65836 0.83299 0.0
C1073 C 0.90102 0.65938 0.83756 0.0
C1074 C 0.9043 0.64682 0.85507 0.0
C1075 C 0.88435 0.63893 0.86016 0.0
N1076 N 0.84266 0.61723 0.87166 0.0
C1077 C 0.86201 0.61131 0.88006 0.0
C1078 C 0.86028 0.59688 0.89645 0.0
C1079 C 0.8385 0.59381 0.89896 0.0
C1080 C 0.82823 0.60661 0.88389 0.0
N1081 N 0.84387 0.61559 0.82729 0.0
C1082 C 0.85653 0.58859 0.79355 0.0
C1083 C 0.87014 0.59094 0.81052 0.0
C1084 C 0.86345 0.60424 0.82718 0.0
C1085 C 0.83592 0.59892 0.79444 0.0
C1086 C 0.82996 0.61219 0.81133 0.0
N1087 N 0.83067 0.66136 0.86899 0.0
C1088 C 0.83884 0.67888 0.90131 0.0
C1089 C 0.8226 0.69476 0.89786 0.0
C1090 C 0.81008 0.69334 0.87997 0.0
C1091 C 0.81431 0.67659 0.86588 0.0
C1092 C 0.84253 0.66247 0.88684 0.0
H1093 H 0.80421 0.67637 0.85257 0.0
H1094 H 0.85523 0.65099 0.89036 0.0
H1095 H 0.87473 0.6056 0.83944 0.0
H1096 H 0.81423 0.61993 0.81081 0.0
C1097 C 0.79367 0.65428 0.82164 0.0
C1098 C 0.80478 0.61036 0.88349 0.0
C1099 C 0.87004 0.66671 0.81352 0.0
C1100 C 0.88075 0.6223 0.87468 0.0
H1101 H 0.76033 0.61313 0.87139 0.0
H1102 H 0.75382 0.63746 0.83727 0.0
H1103 H 0.80222 0.68259 0.78696 0.0
H1104 H 0.8445 0.68929 0.78276 0.0
H1105 H 0.91348 0.66741 0.82847 0.0
H1106 H 0.91967 0.64281 0.86235 0.0
H1107 H 0.87314 0.59051 0.90634 0.0
H1108 H 0.83092 0.58419 0.91118 0.0
H1109 H 0.88625 0.58321 0.81066 0.0
H1110 H 0.82447 0.59703 0.78202 0.0
H1111 H 0.84915 0.67939 0.91482 0.0
H1112 H 0.79709 0.7051 0.8768 0.0
C1113 C 0.61763 0.57619 0.13178 0.0
C1114 C 0.60574 0.55882 0.12629 0.0
C1115 C 0.58843 0.56686 0.11502 0.0
C1116 C 0.59076 0.58859 0.11404 0.0
N1117 N 0.60863 0.59458 0.12381 0.0
Co1118 Co 0.61836 0.62419 0.1258 0.0
N1119 N 0.60038 0.63379 0.10193 0.0
C1120 C 0.5831 0.62411 0.09462 0.0
C1121 C 0.57455 0.63461 0.07733 0.0
C1122 C 0.58736 0.65186 0.07367 0.0
C1123 C 0.60301 0.6508 0.08897 0.0
N1124 N 0.62781 0.65385 0.1278 0.0
C1125 C 0.62803 0.66922 0.11268 0.0
C1126 C 0.63663 0.68773 0.12008 0.0
C1127 C 0.64185 0.68358 0.14073 0.0
C1128 C 0.63622 0.66284 0.14469 0.0
N1129 N 0.63636 0.61477 0.14975 0.0
C1130 C 0.64404 0.62759 0.16445 0.0
C1131 C 0.65547 0.61641 0.1796 0.0
C1132 C 0.65473 0.5953 0.17414 0.0
C1133 C 0.64288 0.59476 0.15583 0.0
N1134 N 0.64256 0.61744 0.10614 0.0
C1135 C 0.67568 0.61127 0.07548 0.0
C1136 C 0.67954 0.62199 0.09417 0.0
C1137 C 0.66279 0.62473 0.10942 0.0
C1138 C 0.65513 0.60315 0.0728 0.0
C1139 C 0.63884 0.60644 0.08824 0.0
N1140 N 0.59393 0.63094 0.14527 0.0
C1141 C 0.56959 0.61981 0.1732 0.0
C1142 C 0.55622 0.63822 0.17016 0.0
C1143 C 0.56261 0.65342 0.15509 0.0
C1144 C 0.58151 0.64945 0.14275 0.0
C1145 C 0.58842 0.61654 0.16072 0.0
H1146 H 0.58572 0.66105 0.13073 0.0
H1147 H 0.59818 0.60204 0.16319 0.0
H1148 H 0.66601 0.63322 0.1236 0.0
H1149 H 0.62299 0.60063 0.08535 0.0
C1150 C 0.57889 0.60315 0.10125 0.0
C1151 C 0.6361 0.575 0.14607 0.0
C1152 C 0.61967 0.66644 0.09159 0.0
C1153 C 0.64294 0.64994 0.16176 0.0
H1154 H 0.60906 0.54211 0.13014 0.0
H1155 H 0.57612 0.55783 0.10775 0.0
H1156 H 0.56143 0.62967 0.06776 0.0
H1157 H 0.58556 0.66369 0.06115 0.0
H1158 H 0.63914 0.70251 0.11148 0.0
H1159 H 0.65 0.69401 0.15112 0.0
H1160 H 0.66381 0.62283 0.19273 0.0
H1161 H 0.66176 0.58186 0.1829 0.0
H1162 H 0.69529 0.62836 0.0969 0.0
H1163 H 0.65137 0.59501 0.05847 0.0
H1164 H 0.56539 0.60786 0.18499 0.0
H1165 H 0.55268 0.66787 0.1523 0.0
C1166 C 0.69549 0.36074 0.36554 0.0
C1167 C 0.71349 0.34661 0.3635 0.0
C1168 C 0.70682 0.32911 0.35312 0.0
C1169 C 0.68526 0.33354 0.34928 0.0
N1170 N 0.678 0.3529 0.35628 0.0
Co1171 Co 0.64787 0.36534 0.35397 0.0
N1172 N 0.64083 0.34429 0.33228 0.0
C1173 C 0.65194 0.32574 0.32809 0.0
C1174 C 0.6436 0.31494 0.31168 0.0
C1175 C 0.62611 0.32744 0.30522 0.0
C1176 C 0.62464 0.34516 0.31824 0.0
N1177 N 0.61772 0.37759 0.35171 0.0
C1178 C 0.60335 0.37549 0.33621 0.0
C1179 C 0.58377 0.38649 0.34104 0.0
C1180 C 0.58611 0.39583 0.36022 0.0
C1181 C 0.60687 0.38997 0.36604 0.0
N1182 N 0.65474 0.38645 0.37567 0.0
C1183 C 0.64004 0.39834 0.38715 0.0
C1184 C 0.64939 0.41116 0.40139 0.0
C1185 C 0.67132 0.40684 0.39898 0.0
C1186 C 0.67417 0.39152 0.38334 0.0
N1187 N 0.65767 0.38482 0.33175 0.0
C1188 C 0.66825 0.41179 0.29782 0.0
C1189 C 0.65581 0.4196 0.31515 0.0
C1190 C 0.65072 0.40587 0.33194 0.0
C1191 C 0.676 0.3904 0.29825 0.0
C1192 C 0.6706 0.37722 0.31537 0.0
N1193 N 0.638 0.34574 0.37616 0.0
C1194 C 0.64341 0.32843 0.40977 0.0
C1195 C 0.62483 0.31667 0.40737 0.0
C1196 C 0.61278 0.31995 0.38914 0.0
C1197 C 0.61955 0.33467 0.3738 0.0
C1198 C 0.64974 0.34275 0.394 0.0
H1199 H 0.60995 0.33694 0.35993 0.0
H1200 H 0.66434 0.35119 0.3962 0.0
H1201 H 0.64061 0.41215 0.34477 0.0
H1202 H 0.67642 0.36073 0.31506 0.0
C1203 C 0.67224 0.32129 0.33686 0.0
C1204 C 0.69504 0.37996 0.37866 0.0
C1205 C 0.60721 0.36198 0.31765 0.0
C1206 C 0.61793 0.39879 0.38253 0.0
H1207 H 0.72962 0.34851 0.36938 0.0
H1208 H 0.71665 0.31504 0.34857 0.0
H1209 H 0.65013 0.30032 0.30452 0.0
H1210 H 0.6158 0.32394 0.2923 0.0
H1211 H 0.56929 0.38759 0.33172 0.0
H1212 H 0.57439 0.40635 0.36848 0.0
H1213 H 0.64126 0.42246 0.41209 0.0
H1214 H 0.68373 0.41367 0.40822 0.0
H1215 H 0.64928 0.43597 0.31541 0.0
H1216 H 0.6859 0.38378 0.28532 0.0
H1217 H 0.65335 0.32615 0.42351 0.0
H1218 H 0.59824 0.31124 0.38676 0.0
C1219 C 0.90192 0.4493 0.59967 0.0
C1220 C 0.91525 0.46409 0.5901 0.0
C1221 C 0.92958 0.45275 0.57719 0.0
C1222 C 0.92419 0.43179 0.57972 0.0
N1223 N 0.9069 0.42915 0.59304 0.0
Co1224 Co 0.89482 0.40152 0.60334 0.0
N1225 N 0.91777 0.38455 0.58701 0.0
C1226 C 0.93415 0.39207 0.57472 0.0
C1227 C 0.94619 0.3763 0.56427 0.0
C1228 C 0.93648 0.3577 0.56974 0.0
C1229 C 0.91911 0.36329 0.58327 0.0
N1230 N 0.88303 0.37392 0.61401 0.0
C1231 C 0.8883 0.3537 0.60782 0.0
C1232 C 0.87573 0.33888 0.61841 0.0
C1233 C 0.86161 0.35027 0.63146 0.0
C1234 C 0.86634 0.37129 0.62804 0.0
N1235 N 0.87159 0.41843 0.61932 0.0
C1236 C 0.85483 0.41085 0.63106 0.0
C1237 C 0.84196 0.42663 0.64054 0.0
C1238 C 0.85139 0.44532 0.63492 0.0
C1239 C 0.86952 0.43978 0.62231 0.0
N1240 N 0.87573 0.40091 0.57863 0.0
C1241 C 0.8491 0.39796 0.54342 0.0
C1242 C 0.84136 0.39287 0.56371 0.0
C1243 C 0.85478 0.39448 0.58091 0.0
C1244 C 0.87035 0.40484 0.54109 0.0
C1245 C 0.88328 0.40615 0.55875 0.0
N1246 N 0.91393 0.40209 0.62804 0.0
C1247 C 0.91896 0.39966 0.66573 0.0
C1248 C 0.94103 0.40365 0.66305 0.0
C1249 C 0.94928 0.40689 0.64257 0.0
C1250 C 0.9356 0.40601 0.62547 0.0
C1251 C 0.90581 0.39904 0.64817 0.0
H1252 H 0.94295 0.40863 0.61033 0.0
H1253 H 0.88909 0.39624 0.65133 0.0
H1254 H 0.84787 0.39026 0.59588 0.0
H1255 H 0.89942 0.41114 0.55587 0.0
C1256 C 0.93637 0.41411 0.57168 0.0
C1257 C 0.8861 0.45474 0.61635 0.0
C1258 C 0.90269 0.34843 0.58991 0.0
C1259 C 0.85339 0.38889 0.63511 0.0
H1260 H 0.9151 0.48114 0.59288 0.0
H1261 H 0.94304 0.45892 0.56793 0.0
H1262 H 0.95963 0.37822 0.55311 0.0
H1263 H 0.94086 0.34194 0.56367 0.0
H1264 H 0.87593 0.32177 0.61611 0.0
H1265 H 0.8485 0.34408 0.64118 0.0
H1266 H 0.82817 0.42469 0.65129 0.0
H1267 H 0.8463 0.46112 0.64045 0.0
H1268 H 0.82488 0.38781 0.56641 0.0
H1269 H 0.87717 0.40878 0.52565 0.0
H1270 H 0.91175 0.39732 0.68134 0.0
H1271 H 0.96634 0.4098 0.63965 0.0
C1272 C 0.07995 0.32921 0.46143 0.0
C1273 C 0.10012 0.336 0.45353 0.0
C1274 C 0.07902 0.31391 0.47765 0.0
C1275 C 0.11061 0.28791 0.52014 0.0
H1276 H 0.0742 0.23993 0.51123 0.0
C1277 C 0.10313 0.21826 0.58051 0.0
C1278 C 0.10611 0.19776 0.5718 0.0
C1279 C 0.10014 0.23626 0.56742 0.0
C1280 C 0.08439 0.25326 0.51395 0.0
H1281 H 0.13508 0.3327 0.45689 0.0
H1282 H 0.13346 0.30586 0.4852 0.0
H1283 H 0.07376 0.26991 0.48614 0.0
H1284 H 0.10746 0.17988 0.54273 0.0
H1285 H 0.10224 0.21128 0.51987 0.0
H1286 H 0.12166 0.27096 0.54766 0.0
C1287 C 0.11837 0.31243 0.47889 0.0
C1288 C 0.084 0.27049 0.49971 0.0
C1289 C 0.11932 0.32762 0.46256 0.0
C1290 C 0.1054 0.19552 0.54983 0.0
C1291 C 0.10221 0.21346 0.53678 0.0
C1292 C 0.11086 0.27074 0.53449 0.0
C1293 C 0.09823 0.3052 0.48638 0.0
C1294 C 0.09737 0.28783 0.50247 0.0
C1295 C 0.09984 0.23403 0.54541 0.0
C1296 C 0.09803 0.25309 0.53133 0.0
H1297 H 0.06489 0.33524 0.45465 0.0
H1298 H 0.06326 0.30874 0.48323 0.0
H1299 H 0.12093 0.30115 0.52275 0.0
H1300 H 0.10373 0.22044 0.59739 0.0
H1301 H 0.0982 0.25193 0.57448 0.0
C1302 C 0.93911 0.83665 0.70575 0.0
C1303 C 0.92964 0.85613 0.69841 0.0
C1304 C 0.95463 0.83646 0.72139 0.0
C1305 C 0.97441 0.86875 0.76427 0.0
H1306 H 0.02746 0.83334 0.75733 0.0
C1307 C 0.04849 0.8785 0.81597 0.0
C1308 C 0.06024 0.85991 0.82246 0.0
C1309 C 0.03207 0.87735 0.80137 0.0
C1310 C 0.0126 0.84308 0.75966 0.0
H1311 H 0.92874 0.89061 0.70186 0.0
H1312 H 0.95597 0.89028 0.72909 0.0
H1313 H -0.00047 0.83252 0.73087 0.0
H1314 H 0.06381 0.82548 0.819 0.0
H1315 H 0.03496 0.8234 0.79358 0.0
H1316 H 0.98741 0.87932 0.79303 0.0
C1317 C 0.95131 0.87517 0.72282 0.0
C1318 C 0.99663 0.84263 0.74449 0.0
C1319 C 0.9359 0.87538 0.7071 0.0
C1320 C 0.05519 0.8401 0.81409 0.0
C1321 C 0.0387 0.83893 0.79953 0.0
C1322 C 0.99033 0.86914 0.77947 0.0
C1323 C 0.96087 0.85572 0.73009 0.0
C1324 C 0.97746 0.85559 0.74656 0.0
C1325 C 0.02698 0.85755 0.79298 0.0
C1326 C 0.00969 0.85646 0.77725 0.0
H1327 H 0.93473 0.82158 0.6992 0.0
H1328 H 0.96162 0.82122 0.7268 0.0
H1329 H 0.95964 0.87865 0.76644 0.0
H1330 H 0.05227 0.89404 0.82189 0.0
H1331 H 0.02365 0.89204 0.79637 0.0
C1332 C 0.37443 0.79976 0.08572 0.0
C1333 C 0.39316 0.79928 0.09777 0.0
C1334 C 0.37383 0.78726 0.06765 0.0
C1335 C 0.40934 0.75752 0.02886 0.0
H1336 H 0.3577 0.72591 0.01975 0.0
C1337 C 0.40829 0.68699 0.97114 0.0
C1338 C 0.38956 0.68486 0.95931 0.0
C1339 C 0.40872 0.70252 0.98673 0.0
C1340 C 0.37212 0.73487 0.02187 0.0
H1341 H 0.4257 0.78535 0.10109 0.0
H1342 H 0.42474 0.76336 0.06955 0.0
H1343 H 0.35831 0.75022 0.0494 0.0
H1344 H 0.3567 0.69759 0.9544 0.0
H1345 H 0.35759 0.72493 0.98137 0.0
H1346 H 0.42326 0.74194 0.00147 0.0
C1347 C 0.41068 0.77366 0.07366 0.0
C1348 C 0.37247 0.74881 0.03888 0.0
C1349 C 0.41124 0.78613 0.09171 0.0
C1350 C 0.37144 0.69892 0.96312 0.0
C1351 C 0.37186 0.71443 0.97874 0.0
C1352 C 0.409 0.74358 0.01185 0.0
C1353 C 0.39194 0.77402 0.06144 0.0
C1354 C 0.39116 0.76013 0.04269 0.0
C1355 C 0.39042 0.71627 0.99087 0.0
C1356 C 0.39045 0.73194 0.00827 0.0
H1357 H 0.36029 0.80976 0.09034 0.0
H1358 H 0.35922 0.78801 0.0585 0.0
H1359 H 0.42387 0.76628 0.03117 0.0
H1360 H 0.42261 0.67657 0.96841 0.0
H1361 H 0.42322 0.7034 0.99591 0.0
C1362 C 0.41892 0.15994 0.32241 0.0
C1363 C 0.40976 0.1402 0.3269 0.0
C1364 C 0.43397 0.16189 0.30559 0.0
C1365 C 0.4554 0.13453 0.2571 0.0
H1366 H 0.50752 0.16512 0.26714 0.0
C1367 C 0.53419 0.12155 0.20715 0.0
C1368 C 0.5457 0.13963 0.20094 0.0
C1369 C 0.51654 0.12341 0.22144 0.0
C1370 C 0.49293 0.15677 0.26399 0.0
H1371 H 0.40871 0.10712 0.31769 0.0
H1372 H 0.43517 0.1103 0.28847 0.0
H1373 H 0.47807 0.16539 0.29379 0.0
H1374 H 0.54752 0.17393 0.20488 0.0
H1375 H 0.51684 0.17707 0.23019 0.0
H1376 H 0.47055 0.12544 0.22756 0.0
C1377 C 0.43054 0.12443 0.29752 0.0
C1378 C 0.47602 0.15696 0.27923 0.0
C1379 C 0.41551 0.12253 0.31427 0.0
C1380 C 0.53922 0.15962 0.20954 0.0
C1381 C 0.52161 0.16145 0.22397 0.0
C1382 C 0.47233 0.13426 0.24194 0.0
C1383 C 0.44013 0.14408 0.29309 0.0
C1384 C 0.45721 0.14555 0.27611 0.0
C1385 C 0.51003 0.14337 0.22998 0.0
C1386 C 0.49142 0.14508 0.24537 0.0
H1387 H 0.41472 0.1737 0.33216 0.0
H1388 H 0.44088 0.17729 0.30248 0.0
H1389 H 0.44095 0.12594 0.25401 0.0
H1390 H 0.53898 0.10584 0.20119 0.0
H1391 H 0.5082 0.10911 0.22608 0.0
C1392 C 0.13833 0.81574 0.95433 0.0
C1393 C 0.12266 0.81367 0.93899 0.0
C1394 C 0.14063 0.80034 0.97035 0.0
C1395 C 0.11342 0.75534 0.99713 0.0
H1396 H 0.17253 0.73487 0.00808 0.0
C1397 C 0.16046 0.67648 0.0353 0.0
C1398 C 0.14767 0.67388 0.0537 0.0
C1399 C 0.15768 0.69496 0.02287 0.0
C1400 C 0.15593 0.74038 0.00515 0.0
H1401 H 0.09672 0.7947 0.92832 0.0
H1402 H 0.10072 0.76752 0.9563 0.0
H1403 H 0.16626 0.7648 0.98365 0.0
H1404 H 0.12241 0.68827 0.07405 0.0
H1405 H 0.11762 0.72079 0.05247 0.0
H1406 H 0.10308 0.73044 0.01809 0.0
C1407 C 0.11108 0.78108 0.95619 0.0
C1408 C 0.15234 0.75769 0.99136 0.0
C1409 C 0.1088 0.7965 0.94017 0.0
C1410 C 0.13239 0.69008 0.05982 0.0
C1411 C 0.12958 0.70855 0.04742 0.0
C1412 C 0.11702 0.73804 0.01095 0.0
C1413 C 0.12729 0.78263 0.97124 0.0
C1414 C 0.13104 0.76522 0.98702 0.0
C1415 C 0.14205 0.71111 0.02869 0.0
C1416 C 0.13831 0.73022 0.01492 0.0
H1417 H 0.14915 0.82896 0.95354 0.0
H1418 H 0.15305 0.80213 0.98187 0.0
H1419 H 0.09683 0.76089 0.99425 0.0
H1420 H 0.17232 0.66406 0.03042 0.0
H1421 H 0.16737 0.69636 0.00842 0.0
C1422 C 0.58949 0.88371 0.30686 0.0
C1423 C 0.60683 0.89461 0.29756 0.0
C1424 C 0.57563 0.87255 0.29449 0.0
C1425 C 0.55603 0.86941 0.24054 0.0
H1426 H 0.53333 0.81609 0.26184 0.0
C1427 C 0.49054 0.82801 0.19635 0.0
C1428 C 0.47181 0.82505 0.20909 0.0
C1429 C 0.51037 0.83165 0.20552 0.0
C1430 C 0.53965 0.83089 0.25565 0.0
H1431 H 0.62254 0.90363 0.26798 0.0
H1432 H 0.59852 0.8837 0.24613 0.0
H1433 H 0.56177 0.83305 0.28081 0.0
H1434 H 0.45945 0.82161 0.24123 0.0
H1435 H 0.49411 0.82794 0.25729 0.0
H1436 H 0.5336 0.86747 0.21561 0.0
C1437 C 0.59575 0.88362 0.26307 0.0
C1438 C 0.55581 0.84068 0.26655 0.0
C1439 C 0.60962 0.89485 0.27554 0.0
C1440 C 0.47363 0.82403 0.23109 0.0
C1441 C 0.4935 0.8275 0.24026 0.0
C1442 C 0.54 0.85953 0.22955 0.0
C1443 C 0.57875 0.87214 0.27246 0.0
C1444 C 0.5637 0.86038 0.25945 0.0
C1445 C 0.51181 0.83222 0.22756 0.0
C1446 C 0.53126 0.84048 0.2373 0.0
H1447 H 0.58679 0.88359 0.32377 0.0
H1448 H 0.56234 0.86442 0.30221 0.0
H1449 H 0.56157 0.88467 0.23475 0.0
H1450 H 0.48957 0.829 0.17934 0.0
H1451 H 0.52432 0.83504 0.19539 0.0
C1452 C 0.34966 0.32622 0.55586 0.0
C1453 C 0.35835 0.32159 0.57569 0.0
C1454 C 0.3509 0.31077 0.54006 0.0
C1455 C 0.35511 0.25278 0.53252 0.0
H1456 H 0.37475 0.26679 0.47555 0.0
C1457 C 0.36931 0.18747 0.46973 0.0
C1458 C 0.36365 0.19247 0.44885 0.0
C1459 C 0.36931 0.20343 0.48495 0.0
C1460 C 0.36893 0.26265 0.49129 0.0
H1461 H 0.37481 0.29738 0.59487 0.0
H1462 H 0.37671 0.27017 0.56736 0.0
H1463 H 0.37311 0.29438 0.50249 0.0
H1464 H 0.35394 0.2185 0.42765 0.0
H1465 H 0.35302 0.24609 0.45432 0.0
H1466 H 0.35036 0.22127 0.52141 0.0
C1467 C 0.36908 0.28573 0.56394 0.0
C1468 C 0.36807 0.27846 0.50673 0.0
C1469 C 0.36808 0.30126 0.57961 0.0
C1470 C 0.3581 0.21393 0.44361 0.0
C1471 C 0.35789 0.22987 0.45888 0.0
C1472 C 0.35572 0.23704 0.51706 0.0
C1473 C 0.36049 0.29032 0.544 0.0
C1474 C 0.36124 0.27365 0.52752 0.0
C1475 C 0.36341 0.22483 0.4798 0.0
C1476 C 0.36272 0.24171 0.49624 0.0
H1477 H 0.34179 0.34172 0.55267 0.0
H1478 H 0.34393 0.31465 0.52492 0.0
H1479 H 0.34948 0.2487 0.54835 0.0
H1480 H 0.37341 0.17113 0.4745 0.0
H1481 H 0.374 0.19894 0.50078 0.0
C1482 C 0.07189 0.10158 0.69845 0.0
C1483 C 0.07456 0.12154 0.68862 0.0
C1484 C 0.05683 0.09951 0.71522 0.0
C1485 C 0.00752 0.12679 0.73916 0.0
H1486 H 0.01996 0.08934 0.78696 0.0
C1487 C 0.95351 0.12712 0.81482 0.0
C1488 C 0.94775 0.10706 0.82279 0.0
C1489 C 0.9694 0.12857 0.79876 0.0
C1490 C 0.01623 0.09973 0.77362 0.0
H1491 H 0.06344 0.15484 0.68789 0.0
H1492 H 0.03774 0.15157 0.71771 0.0
H1493 H 0.04719 0.09266 0.7584 0.0
H1494 H 0.95378 0.07282 0.82052 0.0
H1495 H 0.98199 0.07528 0.79248 0.0
H1496 H 0.97671 0.13409 0.75456 0.0
C1497 C 0.04702 0.1374 0.71247 0.0
C1498 C 0.03178 0.1016 0.75724 0.0
C1499 C 0.06193 0.13939 0.69562 0.0
C1500 C 0.95822 0.08844 0.81466 0.0
C1501 C 0.9743 0.08987 0.79871 0.0
C1502 C 0.99209 0.12506 0.75561 0.0
C1503 C 0.04413 0.1174 0.72239 0.0
C1504 C 0.02763 0.11521 0.73982 0.0
C1505 C 0.9799 0.10996 0.79048 0.0
C1506 C 0.9963 0.11156 0.77302 0.0
H1507 H 0.08127 0.08756 0.69295 0.0
H1508 H 0.05479 0.08381 0.72223 0.0
H1509 H 0.00353 0.13704 0.72579 0.0
H1510 H 0.94554 0.14165 0.82093 0.0
H1511 H 0.97354 0.14425 0.79285 0.0
C1512 C 0.19457 0.53713 0.13577 0.0
C1513 C 0.18679 0.54252 0.11568 0.0
C1514 C 0.20861 0.51924 0.13863 0.0
C1515 C 0.24787 0.4842 0.10891 0.0
H1516 H 0.24635 0.44946 0.16005 0.0
C1517 C 0.30731 0.41189 0.1205 0.0
C1518 C 0.31795 0.41116 0.13975 0.0
C1519 C 0.28925 0.42581 0.11771 0.0
C1520 C 0.24698 0.45909 0.14573 0.0
H1521 H 0.18726 0.53296 0.08291 0.0
H1522 H 0.21125 0.50138 0.08801 0.0
H1523 H 0.21811 0.47757 0.15459 0.0
H1524 H 0.31828 0.42383 0.17127 0.0
H1525 H 0.28646 0.44832 0.1665 0.0
H1526 H 0.27678 0.46584 0.10011 0.0
C1527 C 0.20682 0.51124 0.1015 0.0
C1528 C 0.23086 0.47519 0.14261 0.0
C1529 C 0.19286 0.52922 0.09862 0.0
C1530 C 0.31004 0.42408 0.1564 0.0
C1531 C 0.29189 0.43798 0.15365 0.0
C1532 C 0.26387 0.46803 0.11198 0.0
C1533 C 0.2151 0.50621 0.12148 0.0
C1534 C 0.23127 0.4881 0.12426 0.0
C1535 C 0.28156 0.43925 0.13414 0.0
C1536 C 0.26373 0.45546 0.1305 0.0
H1537 H 0.18991 0.54682 0.14933 0.0
H1538 H 0.21483 0.51597 0.1542 0.0
H1539 H 0.24894 0.49407 0.09479 0.0
H1540 H 0.31328 0.40198 0.1075 0.0
H1541 H 0.28147 0.42628 0.1026 0.0
C1542 C 0.84567 0.01253 0.8966 0.0
C1543 C 0.84989 0.022 0.87676 0.0
C1544 C 0.83247 0.99498 0.89848 0.0
C1545 C 0.80728 0.95265 0.86866 0.0
H1546 H 0.76031 0.95992 0.91045 0.0
C1547 C 0.7278 0.90812 0.86466 0.0
C1548 C 0.7176 0.90146 0.88358 0.0
C1549 C 0.74608 0.92051 0.86498 0.0
C1550 C 0.77352 0.95738 0.89897 0.0
H1551 H 0.84474 0.01975 0.84322 0.0
H1552 H 0.82153 0.98915 0.8465 0.0
H1553 H 0.7894 0.98506 0.90898 0.0
H1554 H 0.71882 0.90205 0.91768 0.0
H1555 H 0.75095 0.9236 0.91829 0.0
H1556 H 0.7912 0.92514 0.85843 0.0
C1557 C 0.82846 0.99527 0.86059 0.0
C1558 C 0.7902 0.9718 0.89813 0.0
C1559 C 0.84157 0.0129 0.85872 0.0
C1560 C 0.7262 0.90722 0.90286 0.0
C1561 C 0.74458 0.91953 0.90319 0.0
C1562 C 0.79065 0.93814 0.86956 0.0
C1563 C 0.82333 0.98649 0.88054 0.0
C1564 C 0.80704 0.9698 0.88274 0.0
C1565 C 0.75464 0.92644 0.88425 0.0
C1566 C 0.77337 0.94059 0.88449 0.0
H1567 H 0.85173 0.0193 0.9108 0.0
H1568 H 0.82895 0.98838 0.91403 0.0
H1569 H 0.82021 0.9506 0.85679 0.0
H1570 H 0.72133 0.90417 0.84956 0.0
H1571 H 0.75316 0.92592 0.85011 0.0
C1572 C 0.83583 0.06911 0.38385 0.0
C1573 C 0.83269 0.08579 0.39827 0.0
C1574 C 0.82212 0.05189 0.38462 0.0
C1575 C 0.76672 0.03903 0.40176 0.0
H1576 H 0.78667 0.98092 0.3885 0.0
C1577 C 0.70738 0.97041 0.39785 0.0
C1578 C 0.7103 0.95687 0.38039 0.0
C1579 C 0.72315 0.98488 0.40255 0.0
C1580 C 0.78085 0.9971 0.39213 0.0
H1581 H 0.81366 0.09765 0.42516 0.0
H1582 H 0.78966 0.06733 0.42679 0.0
H1583 H 0.81321 0.00831 0.39285 0.0
H1584 H 0.73213 0.94786 0.35422 0.0
H1585 H 0.75962 0.97315 0.36237 0.0
H1586 H 0.73438 0.02797 0.40064 0.0
C1587 C 0.80249 0.06759 0.41473 0.0
C1588 C 0.79604 0.01277 0.39463 0.0
C1589 C 0.81623 0.08482 0.41394 0.0
C1590 C 0.72951 0.95788 0.36793 0.0
C1591 C 0.74528 0.97235 0.37262 0.0
C1592 C 0.75154 0.02337 0.39928 0.0
C1593 C 0.80504 0.05113 0.39983 0.0
C1594 C 0.78913 0.03399 0.39916 0.0
C1595 C 0.7422 0.98612 0.38989 0.0
C1596 C 0.75842 0.0023 0.39412 0.0
H1597 H 0.84843 0.06977 0.37158 0.0
H1598 H 0.82436 0.03964 0.37275 0.0
H1599 H 0.76082 0.05529 0.40491 0.0
H1600 H 0.69294 0.96973 0.40799 0.0
H1601 H 0.72045 0.99507 0.41613 0.0
C1602 C 0.68445 0.07445 0.13272 0.0
C1603 C 0.67608 0.07759 0.15328 0.0
C1604 C 0.70284 0.06104 0.12908 0.0
C1605 C 0.73502 0.01646 0.15372 0.0
H1606 H 0.77548 0.02802 0.10731 0.0
C1607 C 0.81235 0.9632 0.13517 0.0
C1608 C 0.81408 0.9562 0.11424 0.0
C1609 C 0.79703 0.97939 0.14091 0.0
C1610 C 0.76428 0.02464 0.12031 0.0
H1611 H 0.67999 0.06933 0.18621 0.0
H1612 H 0.71284 0.04645 0.18007 0.0
H1613 H 0.7463 0.05434 0.11618 0.0
H1614 H 0.80142 0.96026 0.08291 0.0
H1615 H 0.77492 0.98911 0.09281 0.0
H1616 H 0.75332 0.98682 0.1579 0.0
C1617 C 0.70504 0.05403 0.16666 0.0
C1618 C 0.7475 0.03963 0.12535 0.0
C1619 C 0.68644 0.06731 0.17025 0.0
C1620 C 0.80051 0.96572 0.09906 0.0
C1621 C 0.78544 0.98215 0.10472 0.0
C1622 C 0.75201 0.00163 0.14886 0.0
C1623 C 0.71337 0.05059 0.14599 0.0
C1624 C 0.73239 0.03555 0.14186 0.0
C1625 C 0.78342 0.98896 0.12574 0.0
C1626 C 0.76654 0.00543 0.13189 0.0
H1627 H 0.67655 0.08218 0.11941 0.0
H1628 H 0.70843 0.05846 0.11293 0.0
H1629 H 0.72354 0.01259 0.16632 0.0
H1630 H 0.82265 0.95591 0.14709 0.0
H1631 H 0.79579 0.98443 0.15719 0.0
C1632 C 0.16712 0.56083 0.66897 0.0
C1633 C 0.16363 0.57425 0.65143 0.0
C1634 C 0.18407 0.54516 0.66847 0.0
C1635 C 0.23548 0.52898 0.63985 0.0
H1636 H 0.22279 0.47231 0.66112 0.0
C1637 C 0.29189 0.45433 0.62286 0.0
C1638 C 0.29494 0.43946 0.63945 0.0
C1639 C 0.27649 0.47138 0.62494 0.0
C1640 C 0.2267 0.48811 0.65535 0.0
H1641 H 0.17474 0.5823 0.61976 0.0
H1642 H 0.20432 0.55484 0.6187 0.0
H1643 H 0.19508 0.50125 0.66412 0.0
H1644 H 0.28473 0.43124 0.67147 0.0
H1645 H 0.25792 0.4609 0.67506 0.0
H1646 H 0.26706 0.51574 0.63092 0.0
C1647 C 0.19431 0.55649 0.63297 0.0
C1648 C 0.21082 0.50471 0.65711 0.0
C1649 C 0.17737 0.5721 0.6335 0.0
C1650 C 0.28245 0.44216 0.65823 0.0
C1651 C 0.2671 0.45917 0.6603 0.0
C1652 C 0.25137 0.51237 0.6381 0.0
C1653 C 0.19773 0.54269 0.65038 0.0
C1654 C 0.21498 0.52531 0.6493 0.0
C1655 C 0.26386 0.47392 0.64366 0.0
C1656 C 0.24713 0.49172 0.64576 0.0
H1657 H 0.15654 0.56226 0.68289 0.0
H1658 H 0.18643 0.53493 0.68221 0.0
H1659 H 0.23929 0.54475 0.63393 0.0
H1660 H 0.30111 0.45258 0.60813 0.0
H1661 H 0.27419 0.48232 0.61172 0.0
C1662 C 0.17258 0.44365 0.40087 0.0
C1663 C 0.15599 0.44535 0.38619 0.0
C1664 C 0.18841 0.45901 0.40112 0.0
C1665 C 0.19972 0.51418 0.38307 0.0
H1666 H 0.2601 0.49509 0.38903 0.0
C1667 C 0.27081 0.56887 0.36368 0.0
C1668 C 0.28846 0.56807 0.37731 0.0
C1669 C 0.25443 0.55417 0.36592 0.0
C1670 C 0.24329 0.50071 0.38761 0.0
H1671 H 0.14245 0.46414 0.3605 0.0
H1672 H 0.17021 0.49098 0.36067 0.0
H1673 H 0.23174 0.46902 0.39107 0.0
H1674 H 0.30249 0.55133 0.4042 0.0
H1675 H 0.27393 0.52556 0.40799 0.0
H1676 H 0.21131 0.54583 0.37935 0.0
C1677 C 0.17096 0.47804 0.37219 0.0
C1678 C 0.22703 0.48578 0.3888 0.0
C1679 C 0.15516 0.46268 0.37198 0.0
C1680 C 0.28931 0.55219 0.39323 0.0
C1681 C 0.27293 0.53744 0.39543 0.0
C1682 C 0.21598 0.52909 0.38184 0.0
C1683 C 0.18786 0.47633 0.38668 0.0
C1684 C 0.20506 0.49231 0.38638 0.0
C1685 C 0.2553 0.53828 0.3818 0.0
C1686 C 0.23796 0.52251 0.38393 0.0
H1687 H 0.17335 0.43036 0.412 0.0
H1688 H 0.20103 0.45737 0.41265 0.0
H1689 H 0.18293 0.51981 0.38151 0.0
H1690 H 0.26983 0.58065 0.35103 0.0
H1691 H 0.24126 0.55501 0.35493 0.0
C1692 C 0.33131 0.55393 0.89702 0.0
C1693 C 0.32273 0.57008 0.91045 0.0
C1694 C 0.31777 0.53886 0.88907 0.0
C1695 C 0.26317 0.53322 0.87296 0.0
H1696 H 0.27196 0.47212 0.88245 0.0
C1697 C 0.1964 0.47412 0.8596 0.0
C1698 C 0.20231 0.45263 0.85565 0.0
C1699 C 0.2124 0.48884 0.86252 0.0
C1700 C 0.26952 0.48907 0.87911 0.0
H1701 H 0.29389 0.58232 0.92742 0.0
H1702 H 0.26987 0.55631 0.91282 0.0
H1703 H 0.29771 0.49652 0.89624 0.0
H1704 H 0.22917 0.42974 0.85 0.0
H1705 H 0.25729 0.45567 0.85381 0.0
H1706 H 0.23535 0.52602 0.85544 0.0
C1707 C 0.28703 0.55552 0.90837 0.0
C1708 C 0.28417 0.503 0.88724 0.0
C1709 C 0.30067 0.57034 0.91664 0.0
C1710 C 0.22436 0.44631 0.85308 0.0
C1711 C 0.24039 0.46111 0.85554 0.0
C1712 C 0.24876 0.5193 0.86443 0.0
C1713 C 0.29545 0.53993 0.89427 0.0
C1714 C 0.2808 0.52515 0.88461 0.0
C1715 C 0.23462 0.48235 0.8612 0.0
C1716 C 0.25145 0.49705 0.8678 0.0
H1717 H 0.34833 0.55344 0.8921 0.0
H1718 H 0.32455 0.52689 0.87825 0.0
H1719 H 0.26054 0.55031 0.87051 0.0
H1720 H 0.17943 0.47919 0.86192 0.0
H1721 H 0.20724 0.50492 0.86711 0.0
C1722 C 0.66579 0.79624 0.95211 0.0
C1723 C 0.65072 0.79548 0.93605 0.0
C1724 C 0.66589 0.78084 0.96829 0.0
C1725 C 0.64583 0.7276 0.98362 0.0
H1726 H 0.64717 0.74959 0.04042 0.0
C1727 C 0.63987 0.67293 0.05774 0.0
C1728 C 0.62581 0.6807 0.07393 0.0
C1729 C 0.6455 0.68625 0.04076 0.0
C1730 C 0.64676 0.74322 0.02465 0.0
H1731 H 0.6245 0.77811 0.9235 0.0
H1732 H 0.62445 0.75115 0.95184 0.0
H1733 H 0.65274 0.77365 0.01038 0.0
H1734 H 0.60613 0.70789 0.08526 0.0
H1735 H 0.61579 0.73131 0.05552 0.0
H1736 H 0.63903 0.69732 0.99793 0.0
C1737 C 0.63636 0.7634 0.95195 0.0
C1738 C 0.65021 0.75693 0.00744 0.0
C1739 C 0.63627 0.77881 0.93582 0.0
C1740 C 0.61727 0.70181 0.07298 0.0
C1741 C 0.62289 0.71515 0.05605 0.0
C1742 C 0.64242 0.71386 0.00084 0.0
C1743 C 0.65092 0.76445 0.96856 0.0
C1744 C 0.64942 0.74936 0.98674 0.0
C1745 C 0.63706 0.70752 0.03975 0.0
C1746 C 0.64246 0.72162 0.02153 0.0
H1747 H 0.6771 0.80903 0.95239 0.0
H1748 H 0.67746 0.78191 0.98073 0.0
H1749 H 0.64535 0.72125 0.96784 0.0
H1750 H 0.64652 0.65659 0.05829 0.0
H1751 H 0.65655 0.67998 0.02851 0.0
C1752 C 0.57613 0.34464 0.3011 0.0
C1753 C 0.59017 0.36168 0.30158 0.0
C1754 C 0.5593 0.34488 0.28679 0.0
C1755 C 0.53979 0.37156 0.2376 0.0
H1756 H 0.48506 0.3476 0.25551 0.0
C1757 C 0.46136 0.38019 0.18899 0.0
C1758 C 0.44987 0.36143 0.18662 0.0
C1759 C 0.4786 0.3806 0.20285 0.0
C1760 C 0.5003 0.35421 0.25024 0.0
H1761 H 0.59733 0.39267 0.28826 0.0
H1762 H 0.56753 0.39348 0.26345 0.0
H1763 H 0.51477 0.34793 0.28003 0.0
H1764 H 0.44795 0.32826 0.19686 0.0
H1765 H 0.47762 0.32922 0.22138 0.0
H1766 H 0.52498 0.37818 0.20789 0.0
C1767 C 0.56991 0.37955 0.27359 0.0
C1768 C 0.5174 0.35434 0.26426 0.0
C1769 C 0.5869 0.37918 0.28781 0.0
C1770 C 0.45607 0.34313 0.19854 0.0
C1771 C 0.47315 0.34362 0.21256 0.0
C1772 C 0.52259 0.37163 0.22365 0.0
C1773 C 0.55583 0.36241 0.27293 0.0
C1774 C 0.53745 0.36283 0.25808 0.0
C1775 C 0.48461 0.36235 0.21485 0.0
C1776 C 0.50273 0.3628 0.22977 0.0
H1777 H 0.5781 0.3312 0.31194 0.0
H1778 H 0.54903 0.33127 0.28659 0.0
H1779 H 0.55506 0.37797 0.23217 0.0
H1780 H 0.45685 0.39471 0.18037 0.0
H1781 H 0.48699 0.39534 0.20448 0.0
C1782 C 0.89879 0.3106 0.57871 0.0
C1783 C 0.89592 0.3326 0.57464 0.0
C1784 C 0.89205 0.29588 0.56415 0.0
C1785 C 0.88265 0.29055 0.50808 0.0
H1786 H 0.85113 0.24054 0.52528 0.0
C1787 C 0.85879 0.2302 0.44681 0.0
C1788 C 0.86293 0.20852 0.45209 0.0
C1789 C 0.85893 0.24589 0.46224 0.0
C1790 C 0.86005 0.25435 0.52024 0.0
H1791 H 0.8839 0.35676 0.55262 0.0
H1792 H 0.87231 0.33105 0.52696 0.0
H1793 H 0.85977 0.26685 0.55157 0.0
H1794 H 0.86887 0.18621 0.47802 0.0
H1795 H 0.87004 0.2136 0.50473 0.0
H1796 H 0.88376 0.27788 0.477 0.0
C1797 C 0.87973 0.32512 0.54131 0.0
C1798 C 0.86496 0.26939 0.53529 0.0
C1799 C 0.88632 0.33978 0.55591 0.0
C1800 C 0.86608 0.20281 0.47334 0.0
C1801 C 0.86643 0.21851 0.48873 0.0
C1802 C 0.87793 0.27546 0.4931 0.0
C1803 C 0.88258 0.30303 0.54526 0.0
C1804 C 0.87645 0.28752 0.52934 0.0
C1805 C 0.86342 0.24028 0.48326 0.0
C1806 C 0.86674 0.25708 0.49901 0.0
H1807 H 0.90633 0.30485 0.59306 0.0
H1808 H 0.89468 0.27892 0.56743 0.0
H1809 H 0.89178 0.30426 0.50312 0.0
H1810 H 0.85642 0.23522 0.4306 0.0
H1811 H 0.85611 0.26248 0.45756 0.0
C1812 C 0.8884 0.64897 0.78262 0.0
C1813 C 0.88438 0.66754 0.79447 0.0
C1814 C 0.90427 0.64851 0.76642 0.0
C1815 C 0.95482 0.67443 0.75112 0.0
H1816 H 0.95082 0.64148 0.70013 0.0
C1817 C 0.02585 0.66695 0.68995 0.0
C1818 C 0.03099 0.64623 0.68246 0.0
C1819 C 0.00656 0.67131 0.70158 0.0
C1820 C 0.9522 0.65066 0.71435 0.0
H1821 H 0.89275 0.70038 0.79858 0.0
H1822 H 0.9204 0.69987 0.76989 0.0
H1823 H 0.91885 0.64658 0.72358 0.0
H1824 H 0.0198 0.61388 0.68111 0.0
H1825 H 0.98614 0.62148 0.70146 0.0
H1826 H 0.98822 0.67819 0.74213 0.0
C1827 C 0.91156 0.68555 0.77322 0.0
C1828 C 0.9339 0.6536 0.72777 0.0
C1829 C 0.89568 0.68596 0.78946 0.0
C1830 C 0.01621 0.63006 0.68649 0.0
C1831 C 0.9969 0.63442 0.69811 0.0
C1832 C 0.97308 0.67153 0.7377 0.0
C1833 C 0.91639 0.66666 0.76185 0.0
C1834 C 0.93509 0.66526 0.74647 0.0
C1835 C 0.99195 0.65506 0.70593 0.0
C1836 C 0.97207 0.65936 0.71932 0.0
H1837 H 0.87986 0.63457 0.78647 0.0
H1838 H 0.90773 0.63363 0.75819 0.0
H1839 H 0.95644 0.68317 0.76557 0.0
H1840 H 0.03668 0.67986 0.68672 0.0
H1841 H 0.00304 0.68744 0.70711 0.0
C1842 C 0.61411 0.27966 0.41746 0.0
C1843 C 0.61882 0.30045 0.42347 0.0
C1844 C 0.61104 0.26365 0.43272 0.0
C1845 C 0.62609 0.25029 0.48723 0.0
H1846 H 0.58623 0.20447 0.4818 0.0
C1847 C 0.6161 0.18581 0.55174 0.0
C1848 C 0.61627 0.16447 0.545 0.0
C1849 C 0.61436 0.20271 0.53722 0.0
C1850 C 0.59752 0.21711 0.48343 0.0
H1851 H 0.62258 0.32121 0.45006 0.0
H1852 H 0.61679 0.29341 0.47674 0.0
H1853 H 0.58589 0.23396 0.45606 0.0
H1854 H 0.61445 0.14419 0.51769 0.0
H1855 H 0.61135 0.17382 0.49227 0.0
H1856 H 0.6378 0.23346 0.51448 0.0
C1857 C 0.61608 0.28927 0.46025 0.0
C1858 C 0.59734 0.23399 0.46871 0.0
C1859 C 0.61932 0.30521 0.44501 0.0
C1860 C 0.6142 0.16044 0.52341 0.0
C1861 C 0.61239 0.1774 0.50886 0.0
C1862 C 0.6262 0.23352 0.50195 0.0
C1863 C 0.61248 0.26817 0.45428 0.0
C1864 C 0.61171 0.25072 0.47039 0.0
C1865 C 0.61268 0.19869 0.51562 0.0
C1866 C 0.612 0.2167 0.50017 0.0
H1867 H 0.61381 0.27553 0.40094 0.0
H1868 H 0.6085 0.24754 0.42755 0.0
H1869 H 0.63772 0.26264 0.48876 0.0
H1870 H 0.61714 0.18947 0.56831 0.0
H1871 H 0.61425 0.21897 0.54293 0.0
C1872 C 0.07768 0.41675 0.79882 0.0
C1873 C 0.07749 0.40048 0.81423 0.0
C1874 C 0.06226 0.41753 0.78307 0.0
C1875 C 0.00846 0.39846 0.76967 0.0
H1876 H 0.0279 0.41096 0.71228 0.0
C1877 C 0.9541 0.38885 0.69769 0.0
C1878 C 0.95546 0.40423 0.68138 0.0
C1879 C 0.96837 0.38884 0.71444 0.0
C1880 C 0.02212 0.40773 0.72826 0.0
H1881 H 0.06164 0.37215 0.82543 0.0
H1882 H 0.03455 0.37337 0.79777 0.0
H1883 H 0.05397 0.41001 0.74045 0.0
H1884 H 0.97229 0.43217 0.6703 0.0
H1885 H 0.9971 0.43225 0.69956 0.0
H1886 H 0.97658 0.39617 0.75743 0.0
C1887 C 0.04632 0.38573 0.798 0.0
C1888 C 0.03709 0.40716 0.74441 0.0
C1889 C 0.06181 0.38494 0.81373 0.0
C1890 C 0.9711 0.41987 0.68243 0.0
C1891 C 0.98532 0.41989 0.69919 0.0
C1892 C 0.99346 0.39906 0.7535 0.0
C1893 C 0.04645 0.40198 0.78242 0.0
C1894 C 0.03044 0.40255 0.76531 0.0
C1895 C 0.9843 0.40425 0.71529 0.0
C1896 C 0.00012 0.40373 0.7326 0.0
H1897 H 0.08984 0.42875 0.79892 0.0
H1898 H 0.06267 0.43037 0.77145 0.0
H1899 H 0.00278 0.39511 0.78565 0.0
H1900 H 0.94238 0.37646 0.69722 0.0
H1901 H 0.9673 0.37641 0.72644 0.0
C1902 C 0.82156 0.71005 0.93419 0.0
C1903 C 0.81965 0.71315 0.91233 0.0
C1904 C 0.82164 0.72755 0.94757 0.0
C1905 C 0.80865 0.78532 0.95241 0.0
H1906 H 0.85716 0.78292 0.99022 0.0
C1907 C 0.81991 0.84403 0.02113 0.0
C1908 C 0.84119 0.8504 0.02426 0.0
C1909 C 0.8159 0.82914 0.00564 0.0
C1910 C 0.84363 0.7839 0.97964 0.0
H1911 H 0.81521 0.73704 0.8875 0.0
H1912 H 0.8151 0.76765 0.911 0.0
H1913 H 0.85141 0.75264 0.96764 0.0
H1914 H 0.8748 0.84693 0.01304 0.0
H1915 H 0.86777 0.82104 0.98594 0.0
H1916 H 0.80094 0.81671 0.96458 0.0
C1917 C 0.81651 0.75164 0.91772 0.0
C1918 C 0.84018 0.76646 0.96692 0.0
C1919 C 0.81655 0.73411 0.90429 0.0
C1920 C 0.85821 0.84244 0.01091 0.0
C1921 C 0.85423 0.82747 0.99555 0.0
C1922 C 0.81198 0.80276 0.96536 0.0
C1923 C 0.81967 0.74852 0.93939 0.0
C1924 C 0.82267 0.76698 0.95319 0.0
C1925 C 0.83315 0.82025 0.99316 0.0
C1926 C 0.82959 0.80221 0.979 0.0
H1927 H 0.82349 0.69408 0.94092 0.0
H1928 H 0.8237 0.72471 0.9643 0.0
H1929 H 0.79501 0.78608 0.94197 0.0
H1930 H 0.80646 0.85009 0.03107 0.0
H1931 H 0.79951 0.82381 0.00415 0.0
C1932 C 0.39651 0.6162 0.28051 0.0
C1933 C 0.39239 0.6307 0.29692 0.0
C1934 C 0.41157 0.62079 0.26435 0.0
C1935 C 0.4597 0.65286 0.25464 0.0
H1936 H 0.45528 0.63237 0.19758 0.0
C1937 C 0.52924 0.66037 0.19199 0.0
C1938 C 0.53528 0.64095 0.1821 0.0
C1939 C 0.50982 0.66239 0.20399 0.0
C1940 C 0.45668 0.63823 0.21345 0.0
H1941 H 0.3994 0.66176 0.30898 0.0
H1942 H 0.42536 0.67016 0.28045 0.0
H1943 H 0.4241 0.63036 0.22215 0.0
H1944 H 0.52542 0.60878 0.17616 0.0
H1945 H 0.49159 0.61228 0.19707 0.0
H1946 H 0.4924 0.66039 0.246 0.0
C1947 C 0.4175 0.65501 0.28024 0.0
C1948 C 0.43889 0.63701 0.22754 0.0
C1949 C 0.40257 0.65032 0.29646 0.0
C1950 C 0.52127 0.62384 0.18385 0.0
C1951 C 0.5018 0.62593 0.19561 0.0
C1952 C 0.47742 0.65422 0.2405 0.0
C1953 C 0.42257 0.64008 0.26425 0.0
C1954 C 0.44037 0.64382 0.24847 0.0
C1955 C 0.496 0.64512 0.206 0.0
C1956 C 0.47627 0.64642 0.21994 0.0
H1957 H 0.38861 0.60105 0.28058 0.0
H1958 H 0.41523 0.60882 0.25243 0.0
H1959 H 0.46155 0.65798 0.27071 0.0
H1960 H 0.53979 0.67379 0.19088 0.0
H1961 H 0.50567 0.67738 0.2118 0.0
C1962 C 0.79223 0.91744 0.65864 0.0
C1963 C 0.80277 0.90713 0.64148 0.0
C1964 C 0.77415 0.93134 0.65547 0.0
C1965 C 0.73362 0.94909 0.61531 0.0
H1966 H 0.73098 0.00145 0.64752 0.0
C1967 C 0.68489 0.02652 0.59103 0.0
C1968 C 0.67295 0.0373 0.60711 0.0
C1969 C 0.69863 0.00883 0.59588 0.0
C1970 C 0.73134 0.98679 0.63858 0.0
H1971 H 0.80297 0.90291 0.60768 0.0
H1972 H 0.77189 0.92766 0.60191 0.0
H1973 H 0.75872 0.97367 0.65505 0.0
H1974 H 0.66569 0.03834 0.64068 0.0
H1975 H 0.68996 0.00752 0.64928 0.0
H1976 H 0.70669 0.96281 0.59829 0.0
C1977 C 0.77699 0.92467 0.61791 0.0
C1978 C 0.74719 0.97079 0.64295 0.0
C1979 C 0.79488 0.91063 0.62115 0.0
C1980 C 0.67478 0.03013 0.62807 0.0
C1981 C 0.68866 0.01261 0.63296 0.0
C1982 C 0.71792 0.96523 0.61078 0.0
C1983 C 0.76654 0.93545 0.635 0.0
C1984 C 0.74867 0.95179 0.63126 0.0
C1985 C 0.70087 0.0019 0.61693 0.0
C1986 C 0.71674 0.98429 0.62229 0.0
H1987 H 0.79829 0.91512 0.67441 0.0
H1988 H 0.76634 0.93909 0.66903 0.0
H1989 H 0.734 0.93453 0.60623 0.0
H1990 H 0.68396 0.03209 0.57482 0.0
H1991 H 0.70808 0.00102 0.58327 0.0
C1992 C 0.07565 0.57561 0.17159 0.0
C1993 C 0.09559 0.5787 0.16101 0.0
C1994 C 0.0736 0.55856 0.18589 0.0
C1995 C 0.10028 0.50679 0.2023 0.0
H1996 H 0.06917 0.51789 0.25535 0.0
C1997 C 0.10982 0.45316 0.27659 0.0
C1998 C 0.09111 0.44973 0.28924 0.0
C1999 C 0.10885 0.4672 0.25929 0.0
C2000 C 0.07763 0.51443 0.24048 0.0
H2001 H 0.129 0.56693 0.15678 0.0
H2002 H 0.12568 0.53734 0.1821 0.0
H2003 H 0.07024 0.54588 0.22832 0.0
H2004 H 0.05648 0.45745 0.29293 0.0
H2005 H 0.05487 0.48209 0.26282 0.0
H2006 H 0.10813 0.47547 0.21479 0.0
C2007 C 0.11147 0.54766 0.17913 0.0
C2008 C 0.07823 0.53047 0.22498 0.0
C2009 C 0.11346 0.56464 0.1648 0.0
C2010 C 0.07127 0.46008 0.28376 0.0
C2011 C 0.07033 0.47416 0.26651 0.0
C2012 C 0.09976 0.49077 0.21786 0.0
C2013 C 0.09153 0.54445 0.1899 0.0
C2014 C 0.08976 0.52692 0.20579 0.0
C2015 C 0.08918 0.47813 0.2543 0.0
C2016 C 0.08861 0.49451 0.23719 0.0
H2017 H 0.06175 0.58642 0.16884 0.0
H2018 H 0.05798 0.5564 0.19377 0.0
H2019 H 0.10899 0.50342 0.18754 0.0
H2020 H 0.1254 0.44562 0.28052 0.0
H2021 H 0.1237 0.47012 0.2503 0.0
C2022 C 0.77911 0.84151 0.5522 0.0
C2023 C 0.79055 0.85955 0.55751 0.0
C2024 C 0.76191 0.84339 0.53836 0.0
C2025 C 0.72362 0.88347 0.51389 0.0
H2026 H 0.71676 0.83807 0.47389 0.0
C2027 C 0.67419 0.89179 0.43792 0.0
C2028 C 0.6615 0.8746 0.43289 0.0
C2029 C 0.68739 0.89043 0.45544 0.0
C2030 C 0.7183 0.85072 0.48518 0.0
H2031 H 0.79278 0.89379 0.55238 0.0
H2032 H 0.76351 0.89688 0.5274 0.0
H2033 H 0.74576 0.83471 0.49913 0.0
H2034 H 0.65133 0.84319 0.44253 0.0
H2035 H 0.67486 0.84054 0.47315 0.0
H2036 H 0.6966 0.89981 0.49911 0.0
C2037 C 0.76747 0.88134 0.53437 0.0
C2038 C 0.73489 0.84881 0.49968 0.0
C2039 C 0.78453 0.8795 0.54842 0.0
C2040 C 0.66124 0.85649 0.44614 0.0
C2041 C 0.67466 0.85499 0.46352 0.0
C2042 C 0.70718 0.88548 0.49917 0.0
C2043 C 0.75589 0.86332 0.52923 0.0
C2044 C 0.73784 0.8652 0.51416 0.0
C2045 C 0.68819 0.87177 0.46803 0.0
C2046 C 0.70445 0.86915 0.48465 0.0
H2047 H 0.78346 0.82584 0.55869 0.0
H2048 H 0.75321 0.82921 0.53498 0.0
H2049 H 0.72515 0.89621 0.52506 0.0
H2050 H 0.67453 0.90589 0.4278 0.0
H2051 H 0.69777 0.90352 0.45851 0.0
C2052 C 0.37691 0.51466 0.83511 0.0
C2053 C 0.37325 0.53633 0.82943 0.0
C2054 C 0.37657 0.49862 0.81998 0.0
C2055 C 0.38083 0.49099 0.76189 0.0
H2056 H 0.35948 0.43495 0.7759 0.0
C2057 C 0.36617 0.42777 0.69908 0.0
C2058 C 0.37503 0.4071 0.70306 0.0
C2059 C 0.36562 0.44324 0.71478 0.0
C2060 C 0.36561 0.4505 0.77184 0.0
H2061 H 0.36602 0.55794 0.80321 0.0
H2062 H 0.36433 0.53004 0.7772 0.0
H2063 H 0.35839 0.46263 0.80275 0.0
H2064 H 0.39048 0.38628 0.72624 0.0
H2065 H 0.38903 0.41328 0.75407 0.0
H2066 H 0.38753 0.47891 0.73083 0.0
C2067 C 0.36809 0.52541 0.79325 0.0
C2068 C 0.36508 0.46636 0.78722 0.0
C2069 C 0.36869 0.54145 0.8083 0.0
C2070 C 0.38328 0.40207 0.723 0.0
C2071 C 0.38245 0.41746 0.73884 0.0
C2072 C 0.38108 0.47524 0.74648 0.0
C2073 C 0.37232 0.50379 0.7988 0.0
C2074 C 0.37269 0.48684 0.78246 0.0
C2075 C 0.37375 0.43825 0.73481 0.0
C2076 C 0.37349 0.45485 0.75129 0.0
H2077 H 0.38011 0.51002 0.85127 0.0
H2078 H 0.38009 0.4822 0.82487 0.0
H2079 H 0.38732 0.50634 0.75771 0.0
H2080 H 0.35979 0.43195 0.68374 0.0
H2081 H 0.3587 0.4591 0.7113 0.0
C2082 C 0.82359 0.10104 0.94324 0.0
C2083 C 0.83258 0.1201 0.93603 0.0
C2084 C 0.80723 0.10151 0.95899 0.0
C2085 C 0.76527 0.1374 0.98422 0.0
H2086 H 0.76709 0.09511 0.02953 0.0
C2087 C 0.70814 0.14402 0.05771 0.0
C2088 C 0.69902 0.12513 0.06543 0.0
C2089 C 0.72446 0.14322 0.04194 0.0
C2090 C 0.76621 0.10688 0.01685 0.0
H2091 H 0.83201 0.15448 0.93937 0.0
H2092 H 0.80336 0.15543 0.96707 0.0
H2093 H 0.7955 0.09409 0.00185 0.0
H2094 H 0.70014 0.09054 0.06286 0.0
H2095 H 0.72841 0.08916 0.03502 0.0
H2096 H 0.73597 0.15017 -0.00083 0.0
C2097 C 0.80869 0.14015 0.96044 0.0
C2098 C 0.78249 0.1063 0.00101 0.0
C2099 C 0.82509 0.13965 0.94472 0.0
C2100 C 0.70668 0.1054 0.05709 0.0
C2101 C 0.72304 0.10459 0.04131 0.0
C2102 C 0.74898 0.13796 4e-05 0.0
C2103 C 0.79959 0.12107 0.96777 0.0
C2104 C 0.78222 0.12158 0.98454 0.0
C2105 C 0.73207 0.12351 0.0335 0.0
C2106 C 0.74929 0.12274 0.01658 0.0
H2107 H 0.82923 0.08583 0.93663 0.0
H2108 H 0.80038 0.08658 0.96412 0.0
H2109 H 0.76441 0.14919 0.97156 0.0
H2110 H 0.70245 0.15949 0.06366 0.0
H2111 H 0.73125 0.15806 0.03646 0.0
C2112 C 0.2994 0.11364 0.45119 0.0
C2113 C 0.30708 0.09542 0.44017 0.0
C2114 C 0.2848 0.11174 0.46828 0.0
C2115 C 0.26598 0.07689 0.5101 0.0
H2116 H 0.21255 0.11207 0.50795 0.0
C2117 C 0.19846 0.07607 0.57652 0.0
C2118 C 0.18815 0.09597 0.58119 0.0
C2119 C 0.21293 0.07406 0.5591 0.0
C2120 C 0.22749 0.10233 0.50897 0.0
H2121 H 0.30579 0.06097 0.43814 0.0
H2122 H 0.28058 0.05752 0.46875 0.0
H2123 H 0.23841 0.11231 0.47818 0.0
H2124 H 0.18472 0.12931 0.57169 0.0
H2125 H 0.21056 0.12616 0.54209 0.0
H2126 H 0.25551 0.06757 0.54129 0.0
C2127 C 0.28587 0.07322 0.46405 0.0
C2128 C 0.2422 0.10239 0.49185 0.0
C2129 C 0.30022 0.07518 0.44666 0.0
C2130 C 0.19265 0.11383 0.56845 0.0
C2131 C 0.20722 0.11191 0.55132 0.0
C2132 C 0.25136 0.07707 0.52746 0.0
C2133 C 0.27785 0.09155 0.4748 0.0
C2134 C 0.2617 0.08995 0.49238 0.0
C2135 C 0.21731 0.09196 0.54617 0.0
C2136 C 0.23213 0.09014 0.52725 0.0
H2137 H 0.30452 0.12939 0.44637 0.0
H2138 H 0.27892 0.12607 0.47642 0.0
H2139 H 0.28098 0.06719 0.51082 0.0
H2140 H 0.19497 0.06208 0.58608 0.0
H2141 H 0.22028 0.05843 0.5555 0.0
C2142 C 0.14506 0.02264 0.68932 0.0
C2143 C 0.14111 0.04436 0.69411 0.0
C2144 C 0.14597 0.00719 0.70548 0.0
C2145 C 0.12699 0.99729 0.75985 0.0
H2146 H 0.17514 0.95517 0.76202 0.0
C2147 C 0.16733 0.93487 0.8239 0.0
C2148 C 0.1489 0.924 0.8307 0.0
C2149 C 0.1663 0.94871 0.80644 0.0
C2150 C 0.16163 0.96687 0.76159 0.0
H2151 H 0.13455 0.06695 0.71938 0.0
H2152 H 0.13602 0.04 0.74755 0.0
H2153 H 0.17334 0.98101 0.73268 0.0
H2154 H 0.11498 0.91902 0.82516 0.0
H2155 H 0.11301 0.94351 0.7947 0.0
H2156 H 0.11533 0.9833 0.78878 0.0
C2157 C 0.13851 0.03491 0.73136 0.0
C2158 C 0.16051 0.9815 0.74475 0.0
C2159 C 0.13788 0.05034 0.71528 0.0
C2160 C 0.12936 0.92729 0.82005 0.0
C2161 C 0.12826 0.94128 0.80273 0.0
C2162 C 0.12798 0.98253 0.77653 0.0
C2163 C 0.14259 0.0132 0.72664 0.0
C2164 C 0.14329 0.99698 0.74385 0.0
C2165 C 0.14672 0.95211 0.79575 0.0
C2166 C 0.1454 0.9673 0.77766 0.0
H2167 H 0.14764 0.01765 0.67312 0.0
H2168 H 0.14901 0.99053 0.70143 0.0
H2169 H 0.11345 0.00897 0.75944 0.0
H2170 H 0.18246 0.93267 0.83214 0.0
H2171 H 0.18068 0.95708 0.80154 0.0
C2172 C 0.30688 0.84615 0.08764 0.0
C2173 C 0.3151 0.86439 0.0967 0.0
C2174 C 0.2932 0.84814 0.07051 0.0
C2175 C 0.27815 0.88492 0.02693 0.0
H2176 H 0.2297 0.84777 0.02252 0.0
C2177 C 0.21453 0.89356 0.96139 0.0
C2178 C 0.20817 0.87448 0.95239 0.0
C2179 C 0.22791 0.89294 0.97883 0.0
C2180 C 0.2433 0.85811 0.02344 0.0
H2181 H 0.31508 0.89905 0.09523 0.0
H2182 H 0.29092 0.90257 0.06536 0.0
H2183 H 0.25149 0.84595 0.05399 0.0
H2184 H 0.21101 0.83982 0.95443 0.0
H2185 H 0.23456 0.83874 0.98472 0.0
H2186 H 0.26982 0.89711 0.99634 0.0
C2187 C 0.29535 0.88671 0.07132 0.0
C2188 C 0.25578 0.85708 0.04147 0.0
C2189 C 0.30911 0.88471 0.08845 0.0
C2190 C 0.21582 0.85478 0.96089 0.0
C2191 C 0.22908 0.85417 0.97838 0.0
C2192 C 0.26559 0.88601 0.00892 0.0
C2193 C 0.28738 0.86842 0.06206 0.0
C2194 C 0.27347 0.87033 0.04335 0.0
C2195 C 0.23504 0.87323 0.98769 0.0
C2196 C 0.24817 0.87247 0.00692 0.0
H2197 H 0.31157 0.83025 0.09337 0.0
H2198 H 0.28768 0.83371 0.06352 0.0
H2199 H 0.29185 0.89514 0.02777 0.0
H2200 H 0.20899 0.90897 0.95507 0.0
H2201 H 0.23217 0.90788 0.98574 0.0
C2202 C 0.34431 0.04528 0.29992 0.0
C2203 C 0.35002 0.04135 0.32099 0.0
C2204 C 0.34239 0.02837 0.286 0.0
C2205 C 0.33758 0.96909 0.28448 0.0
H2206 H 0.35863 0.97625 0.22669 0.0
C2207 C 0.36301 0.89932 0.2292 0.0
C2208 C 0.35662 0.9008 0.20815 0.0
C2209 C 0.35848 0.91629 0.24294 0.0
C2210 C 0.35238 0.97412 0.24269 0.0
H2211 H 0.35785 0.01627 0.3439 0.0
H2212 H 0.35556 0.98696 0.31946 0.0
H2213 H 0.35862 0.0063 0.2507 0.0
H2214 H 0.34065 0.921 0.18481 0.0
H2215 H 0.33296 0.95107 0.20886 0.0
H2216 H 0.33234 0.93653 0.27654 0.0
C2217 C 0.35205 0.00311 0.31377 0.0
C2218 C 0.35233 0.99136 0.25649 0.0
C2219 C 0.35374 0.02001 0.32774 0.0
C2220 C 0.34539 0.91944 0.20109 0.0
C2221 C 0.34115 0.93661 0.21477 0.0
C2222 C 0.3379 0.95178 0.27073 0.0
C2223 C 0.34636 0.00704 0.29269 0.0
C2224 C 0.34517 0.98902 0.27766 0.0
C2225 C 0.3479 0.93527 0.23576 0.0
C2226 C 0.34552 0.95407 0.24977 0.0
H2227 H 0.34159 0.06148 0.29401 0.0
H2228 H 0.33772 0.03207 0.26999 0.0
H2229 H 0.33149 0.96678 0.3005 0.0
H2230 H 0.37224 0.88532 0.23481 0.0
H2231 H 0.36418 0.91495 0.25892 0.0
C2232 C 0.56352 0.19516 0.12324 0.0
C2233 C 0.57542 0.18765 0.10544 0.0
C2234 C 0.54635 0.21025 0.121 0.0
C2235 C 0.50461 0.22868 0.08603 0.0
H2236 H 0.50253 0.28065 0.11882 0.0
C2237 C 0.43294 0.29161 0.08138 0.0
C2238 C 0.42649 0.30187 0.10019 0.0
C2239 C 0.45194 0.27848 0.08046 0.0
C2240 C 0.50268 0.2661 0.10976 0.0
H2241 H 0.57934 0.19015 0.07149 0.0
H2242 H 0.54846 0.21613 0.06743 0.0
H2243 H 0.53442 0.25616 0.12015 0.0
H2244 H 0.43394 0.3061 0.13294 0.0
H2245 H 0.4665 0.28244 0.13177 0.0
H2246 H 0.4725 0.23791 0.0764 0.0
C2247 C 0.55255 0.21034 0.08306 0.0
C2248 C 0.52103 0.25221 0.11041 0.0
C2249 C 0.57006 0.19553 0.08535 0.0
C2250 C 0.43883 0.29841 0.11822 0.0
C2251 C 0.45758 0.28507 0.11743 0.0
C2252 C 0.48606 0.24239 0.08564 0.0
C2253 C 0.54064 0.21783 0.1009 0.0
C2254 C 0.52202 0.2333 0.09875 0.0
C2255 C 0.46455 0.27512 0.09848 0.0
C2256 C 0.48474 0.26114 0.09774 0.0
H2257 H 0.56748 0.18926 0.13888 0.0
H2258 H 0.53727 0.21572 0.13495 0.0
H2259 H 0.50502 0.21405 0.07703 0.0
H2260 H 0.42342 0.29395 0.06737 0.0
H2261 H 0.45686 0.27123 0.06557 0.0
C2262 C 0.92962 0.21301 0.90706 0.0
C2263 C 0.92609 0.20375 0.88748 0.0
C2264 C 0.94093 0.23182 0.90813 0.0
C2265 C 0.96292 0.27644 0.87555 0.0
H2266 H 0.00765 0.2748 0.91744 0.0
C2267 C 0.04145 0.32262 0.86688 0.0
C2268 C 0.04927 0.3323 0.88482 0.0
C2269 C 0.02338 0.30992 0.86852 0.0
C2270 C 0.99501 0.2757 0.90589 0.0
H2271 H 0.93098 0.2072 0.85365 0.0
H2272 H 0.95104 0.23976 0.85547 0.0
H2273 H 0.98086 0.24732 0.91801 0.0
H2274 H 0.04421 0.33665 0.91848 0.0
H2275 H 0.01261 0.31421 0.9214 0.0
H2276 H 0.97783 0.30436 0.86291 0.0
C2277 C 0.94472 0.23282 0.87002 0.0
C2278 C 0.97959 0.25998 0.90623 0.0
C2279 C 0.93328 0.21411 0.86895 0.0
C2280 C 0.03846 0.32938 0.9044 0.0
C2281 C 0.02049 0.31649 0.90608 0.0
C2282 C 0.97845 0.29208 0.87512 0.0
C2283 C 0.94909 0.24165 0.88964 0.0
C2284 C 0.96364 0.2599 0.89079 0.0
C2285 C 0.01288 0.30654 0.88817 0.0
C2286 C 0.9949 0.29159 0.89004 0.0
H2287 H 0.92395 0.20549 0.92158 0.0
H2288 H 0.94366 0.23843 0.92348 0.0
H2289 H 0.95061 0.27707 0.86367 0.0
H2290 H 0.04933 0.32485 0.85155 0.0
H2291 H 0.01801 0.30226 0.85449 0.0
C2292 C 0.05152 0.71222 0.0825 0.0
C2293 C 0.05994 0.70486 0.1018 0.0
C2294 C 0.03662 0.72973 0.08189 0.0
C2295 C 0.0168 0.77709 0.11166 0.0
H2296 H 0.96427 0.77229 0.08007 0.0
C2297 C 0.94324 0.83685 0.12128 0.0
C2298 C 0.93159 0.84251 0.10324 0.0
C2299 C 0.95967 0.82072 0.12037 0.0
C2300 C 0.979 0.77405 0.0887 0.0
H2301 H 0.05917 0.71012 0.13558 0.0
H2302 H 0.03345 0.74084 0.13441 0.0
H2303 H 0.99186 0.74307 0.07953 0.0
H2304 H 0.92785 0.83633 0.07012 0.0
H2305 H 0.95697 0.8084 0.06826 0.0
H2306 H 0.00406 0.80808 0.12078 0.0
C2307 C 0.03854 0.73316 0.11976 0.0
C2308 C 0.99477 0.75729 0.08841 0.0
C2309 C 0.0533 0.71557 0.12041 0.0
C2310 C 0.9367 0.83207 0.0842 0.0
C2311 C 0.95322 0.81604 0.08323 0.0
C2312 C 0.00111 0.79393 0.11183 0.0
C2313 C 0.02996 0.74034 0.10052 0.0
C2314 C 0.01374 0.75856 0.10003 0.0
C2315 C 0.96482 0.81007 0.10134 0.0
C2316 C 0.98192 0.79253 0.10051 0.0
H2317 H 0.05658 0.70456 0.06784 0.0
H2318 H 0.03044 0.7351 0.0668 0.0
H2319 H 0.03142 0.7786 0.12054 0.0
H2320 H 0.93943 0.84478 0.1361 0.0
H2321 H 0.96803 0.81632 0.13468 0.0
C2322 C 0.45791 0.69343 0.35201 0.0
C2323 C 0.43613 0.70062 0.35572 0.0
C2324 C 0.47445 0.70801 0.34985 0.0
C2325 C 0.48546 0.76368 0.33637 0.0
H2326 H 0.53498 0.75549 0.37256 0.0
C2327 C 0.56151 0.81616 0.33257 0.0
C2328 C 0.56684 0.82449 0.35212 0.0
C2329 C 0.54591 0.80061 0.33151 0.0
C2330 C 0.52128 0.7579 0.36231 0.0
H2331 H 0.41486 0.72903 0.35995 0.0
H2332 H 0.44366 0.75436 0.35548 0.0
H2333 H 0.50695 0.7289 0.37292 0.0
H2334 H 0.56041 0.82298 0.38586 0.0
H2335 H 0.53351 0.79547 0.38407 0.0
H2336 H 0.49983 0.79275 0.32581 0.0
C2337 C 0.44782 0.73739 0.35425 0.0
C2338 C 0.50535 0.74266 0.36242 0.0
C2339 C 0.43132 0.72283 0.35674 0.0
C2340 C 0.55648 0.81689 0.37059 0.0
C2341 C 0.54123 0.80109 0.36957 0.0
C2342 C 0.50162 0.77875 0.33598 0.0
C2343 C 0.46955 0.73011 0.351 0.0
C2344 C 0.48713 0.74556 0.34969 0.0
C2345 C 0.53578 0.79283 0.35004 0.0
C2346 C 0.51948 0.77615 0.3492 0.0
H2347 H 0.46224 0.67652 0.35066 0.0
H2348 H 0.49108 0.70201 0.34716 0.0
H2349 H 0.47161 0.76621 0.32633 0.0
H2350 H 0.56928 0.82184 0.31813 0.0
H2351 H 0.54199 0.79445 0.31627 0.0
C2352 C 0.06497 0.70212 0.58468 0.0
C2353 C 0.07037 0.6912 0.6034 0.0
C2354 C 0.0465 0.71597 0.58417 0.0
C2355 C 0.01113 0.75042 0.617 0.0
H2356 H 0.96661 0.74177 0.57633 0.0
C2357 C 0.92806 0.79587 0.6233 0.0
C2358 C 0.91785 0.80222 0.60463 0.0
C2359 C 0.94668 0.78229 0.62262 0.0
C2360 C 0.97902 0.7447 0.58756 0.0
H2361 H 0.06142 0.68642 0.63634 0.0
H2362 H 0.02944 0.71119 0.63564 0.0
H2363 H -0.00022 0.71882 0.57574 0.0
H2364 H 0.91837 0.79903 0.57072 0.0
H2365 H 0.95161 0.77608 0.56927 0.0
H2366 H 0.99096 0.77661 0.62852 0.0
C2367 C 0.03926 0.70883 0.62133 0.0
C2368 C 0.99795 0.73147 0.58725 0.0
C2369 C 0.05746 0.69471 0.62173 0.0
C2370 C 0.92625 0.7945 0.58527 0.0
C2371 C 0.94512 0.78118 0.58453 0.0
C2372 C 0.99242 0.76389 0.61709 0.0
C2373 C 0.03354 0.71946 0.60251 0.0
C2374 C 0.01402 0.73408 0.60212 0.0
C2375 C 0.95566 0.77498 0.60321 0.0
C2376 C 0.97596 0.76105 0.60255 0.0
H2377 H 0.075 0.6999 0.57049 0.0
H2378 H 0.0425 0.72418 0.56954 0.0
H2379 H 0.02346 0.75287 0.62847 0.0
H2380 H 0.92165 0.80152 0.63842 0.0
H2381 H 0.95394 0.77745 0.63738 0.0
C2382 C 0.03158 0.33553 0.37718 0.0
C2383 C 0.03996 0.34475 0.35856 0.0
C2384 C 0.01632 0.3197 0.37629 0.0
C2385 C -0.00118 0.27764 0.34245 0.0
H2386 H 0.94739 0.27828 0.37933 0.0
C2387 C 0.93692 0.21093 0.34015 0.0
C2388 C 0.92796 0.2042 0.35957 0.0
C2389 C 0.94918 0.22923 0.33892 0.0
C2390 C 0.9618 0.27771 0.36909 0.0
H2391 H 0.03875 0.34541 0.3245 0.0
H2392 H 0.01228 0.31725 0.32285 0.0
H2393 H 0.97137 0.30833 0.37937 0.0
H2394 H 0.92489 0.21072 0.39293 0.0
H2395 H 0.94689 0.24228 0.39106 0.0
H2396 H 0.98984 0.24675 0.33268 0.0
C2397 C 0.01755 0.32223 0.3381 0.0
C2398 C 0.97545 0.29498 0.36906 0.0
C2399 C 0.03259 0.33828 0.33902 0.0
C2400 C 0.93154 0.21584 0.37777 0.0
C2401 C 0.94397 0.23398 0.37661 0.0
C2402 C 0.98531 0.26024 0.34265 0.0
C2403 C 0.00936 0.31271 0.35674 0.0
C2404 C 0.99418 0.29503 0.35587 0.0
C2405 C 0.95298 0.24094 0.35717 0.0
C2406 C 0.96672 0.25996 0.35612 0.0
H2407 H 0.03709 0.34037 0.39239 0.0
H2408 H 0.01041 0.31252 0.39088 0.0
H2409 H 0.0133 0.27717 0.33229 0.0
H2410 H 0.93444 0.202 0.32597 0.0
H2411 H 0.95562 0.23423 0.32365 0.0
C2412 C 0.45435 0.65808 0.8557 0.0
C2413 C 0.44174 0.65155 0.87317 0.0
C2414 C 0.46658 0.67628 0.85688 0.0
C2415 C 0.49248 0.71085 0.89369 0.0
H2416 H 0.48867 0.75288 0.84823 0.0
C2417 C 0.54003 0.78789 0.89545 0.0
C2418 C 0.55115 0.79307 0.87653 0.0
C2419 C 0.5241 0.77263 0.89573 0.0
C2420 C 0.49003 0.74124 0.86098 0.0
H2421 H 0.43228 0.65807 0.90567 0.0
H2422 H 0.45405 0.68979 0.90793 0.0
H2423 H 0.46706 0.72114 0.84735 0.0
H2424 H 0.55328 0.78742 0.84285 0.0
H2425 H 0.5261 0.76041 0.84342 0.0
H2426 H 0.51596 0.73047 0.90702 0.0
C2427 C 0.45442 0.68098 0.89332 0.0
C2428 C 0.47766 0.72309 0.86045 0.0
C2429 C 0.44203 0.66291 0.89206 0.0
C2430 C 0.54526 0.7835 0.85775 0.0
C2431 C 0.52945 0.76819 0.85804 0.0
C2432 C 0.50501 0.72891 0.89413 0.0
C2433 C 0.46654 0.68801 0.87564 0.0
C2434 C 0.47899 0.70762 0.87667 0.0
C2435 C 0.51903 0.76222 0.8771 0.0
C2436 C 0.50414 0.74418 0.87764 0.0
H2437 H 0.45442 0.64932 0.84108 0.0
H2438 H 0.47607 0.6812 0.84314 0.0
H2439 H 0.49388 0.69908 0.90632 0.0
H2440 H 0.54426 0.79494 0.9102 0.0
H2441 H 0.51611 0.76864 0.91062 0.0
C2442 C 0.63564 0.91184 0.8165 0.0
C2443 C 0.61686 0.9014 0.82297 0.0
C2444 C 0.63452 0.92798 0.80111 0.0
C2445 C 0.60106 0.94858 0.75744 0.0
H2446 H 0.63448 -0.00077 0.7632 0.0
C2447 C 0.59461 0.02046 0.69942 0.0
C2448 C 0.61437 0.02909 0.69257 0.0
C2449 C 0.59413 0.00544 0.71591 0.0
C2450 C 0.62519 0.9851 0.7613 0.0
H2451 H 0.58231 0.89915 0.81873 0.0
H2452 H 0.58014 0.9277 0.79185 0.0
H2453 H 0.6349 0.97196 0.79106 0.0
H2454 H 0.64914 0.02852 0.69752 0.0
H2455 H 0.64826 0.00239 0.72638 0.0
H2456 H 0.59142 0.96172 0.72763 0.0
C2457 C 0.59577 0.92334 0.79848 0.0
C2458 C 0.62544 0.96948 0.77724 0.0
C2459 C 0.59693 0.90716 0.81388 0.0
C2460 C 0.63361 0.02245 0.70265 0.0
C2461 C 0.63311 0.00748 0.71917 0.0
C2462 C 0.60077 0.96423 0.74152 0.0
C2463 C 0.61458 0.93393 0.79193 0.0
C2464 C 0.61354 0.95095 0.77541 0.0
C2465 C 0.61338 -0.00122 0.72594 0.0
C2466 C 0.61299 0.98257 0.74321 0.0
H2467 H 0.65117 0.90744 0.82333 0.0
H2468 H 0.64936 0.93557 0.79617 0.0
H2469 H 0.59194 0.93436 0.75543 0.0
H2470 H 0.57947 0.02549 0.69218 0.0
H2471 H 0.57865 -0.00079 0.72097 0.0
C2472 C 0.18045 0.38052 0.94004 0.0
C2473 C 0.16568 0.36475 0.93585 0.0
C2474 C 0.19474 0.37783 0.95659 0.0
C2475 C 0.22447 0.33851 0.98803 0.0
H2476 H 0.22876 0.38533 0.02697 0.0
C2477 C 0.2861 0.33531 0.05565 0.0
C2478 C 0.29654 0.35435 0.05968 0.0
C2479 C 0.26864 0.33532 0.042 0.0
C2480 C 0.22798 0.37218 0.01612 0.0
H2481 H 0.15465 0.33351 0.94503 0.0
H2482 H 0.18033 0.32845 0.97401 0.0
H2483 H 0.20103 0.38735 0.0003 0.0
H2484 H 0.2964 0.38843 0.05268 0.0
H2485 H 0.26674 0.38831 0.02832 0.0
H2486 H 0.25201 0.32372 0.00318 0.0
C2487 C 0.18047 0.34304 0.9646 0.0
C2488 C 0.21197 0.3733 0.00095 0.0
C2489 C 0.16582 0.34592 0.94816 0.0
C2490 C 0.28902 0.3734 0.04974 0.0
C2491 C 0.2717 0.37338 0.036 0.0
C2492 C 0.24071 0.33749 0.00307 0.0
C2493 C 0.19488 0.35912 0.96908 0.0
C2494 C 0.2103 0.35666 0.98653 0.0
C2495 C 0.26123 0.35437 0.03196 0.0
C2496 C 0.24292 0.35451 0.01706 0.0
H2497 H 0.18086 0.39503 0.93052 0.0
H2498 H 0.20592 0.39031 0.95948 0.0
H2499 H 0.22359 0.32554 0.97698 0.0
H2500 H 0.29158 0.32029 0.06284 0.0
H2501 H 0.26086 0.32042 0.03944 0.0
C2502 C 0.91769 0.07061 0.29779 0.0
C2503 C 0.89714 0.07706 0.30633 0.0
C2504 C 0.91984 0.05343 0.2839 0.0
C2505 C 0.89291 0.005 0.26896 0.0
H2506 H 0.92385 0.01111 0.21521 0.0
C2507 C 0.87944 0.95056 0.19912 0.0
C2508 C 0.89686 0.94544 0.18501 0.0
C2509 C 0.88204 0.96463 0.21561 0.0
C2510 C 0.91554 0.00894 0.23033 0.0
H2511 H 0.8628 0.07059 0.30727 0.0
H2512 H 0.86653 0.04062 0.28301 0.0
H2513 H 0.92358 0.04002 0.24068 0.0
H2514 H 0.93094 0.95026 0.17766 0.0
H2515 H 0.9356 0.97476 0.20673 0.0
H2516 H 0.8847 0.97404 0.25867 0.0
C2517 C 0.88096 0.04881 0.28706 0.0
C2518 C 0.91533 0.02555 0.24486 0.0
C2519 C 0.87879 0.06609 0.30072 0.0
C2520 C 0.91717 0.95413 0.18816 0.0
C2521 C 0.91981 0.96817 0.20477 0.0
C2522 C 0.89327 0.98834 0.25453 0.0
C2523 C 0.90151 0.04225 0.27859 0.0
C2524 C 0.90358 0.02391 0.26408 0.0
C2525 C 0.90216 0.97385 0.21846 0.0
C2526 C 0.90414 0.99033 0.23484 0.0
H2527 H 0.93208 0.07887 0.30183 0.0
H2528 H 0.93585 0.04866 0.2776 0.0
H2529 H 0.88407 0.0032 0.28386 0.0
H2530 H 0.86349 0.94442 0.19688 0.0
H2531 H 0.86799 0.96895 0.2256 0.0
C2532 C 0.20732 0.64921 0.5593 0.0
C2533 C 0.1999 0.62983 0.56755 0.0
C2534 C 0.22497 0.64931 0.54498 0.0
C2535 C 0.25626 0.61439 0.50731 0.0
H2536 H 0.29509 0.66159 0.50604 0.0
C2537 C 0.31062 0.63247 0.43471 0.0
C2538 C 0.33106 0.64083 0.43765 0.0
C2539 C 0.29629 0.62961 0.45185 0.0
C2540 C 0.28466 0.64809 0.50632 0.0
H2541 H 0.20538 0.59537 0.56784 0.0
H2542 H 0.23667 0.59548 0.54318 0.0
H2543 H 0.26779 0.65909 0.53432 0.0
H2544 H 0.35273 0.6529 0.46045 0.0
H2545 H 0.328 0.64719 0.49077 0.0
H2546 H 0.27351 0.60307 0.47963 0.0
C2547 C 0.22853 0.61061 0.54734 0.0
C2548 C 0.26874 0.64684 0.52239 0.0
C2549 C 0.21067 0.61052 0.56149 0.0
C2550 C 0.33708 0.64621 0.45797 0.0
C2551 C 0.32283 0.64313 0.47521 0.0
C2552 C 0.27234 0.61551 0.49137 0.0
C2553 C 0.2358 0.63002 0.53877 0.0
C2554 C 0.25403 0.63023 0.52284 0.0
C2555 C 0.30218 0.63491 0.47235 0.0
C2556 C 0.28644 0.63262 0.49041 0.0
H2557 H 0.19911 0.66431 0.56351 0.0
H2558 H 0.22976 0.66452 0.53839 0.0
H2559 H 0.24516 0.60144 0.50702 0.0
H2560 H 0.30568 0.62837 0.41906 0.0
H2561 H 0.2804 0.62369 0.44893 0.0
C2562 C 0.6958 0.59026 0.04718 0.0
C2563 C 0.69239 0.6095 0.05821 0.0
C2564 C 0.70963 0.58924 0.02934 0.0
C2565 C 0.75295 0.61754 -3e-05 0.0
H2566 H 0.731 0.58852 0.95184 0.0
C2567 C 0.78934 0.62789 0.91586 0.0
C2568 C 0.79197 0.6095 0.90351 0.0
C2569 C 0.77798 0.62715 0.93522 0.0
C2570 C 0.7375 0.59645 0.9652 0.0
H2571 H 0.70119 0.64262 0.05956 0.0
H2572 H 0.72531 0.64091 0.02832 0.0
H2573 H 0.71053 0.5883 0.98529 0.0
H2574 H 0.78511 0.57604 0.9012 0.0
H2575 H 0.76514 0.57458 0.93523 0.0
H2576 H 0.7798 0.62591 0.97972 0.0
C2577 C 0.71752 0.62651 0.03361 0.0
C2578 C 0.72579 0.5963 0.9844 0.0
C2579 C 0.70373 0.62751 0.05152 0.0
C2580 C 0.78306 0.59037 0.91058 0.0
C2581 C 0.77164 0.58962 0.92994 0.0
C2582 C 0.76466 0.61771 0.98074 0.0
C2583 C 0.72029 0.60747 0.02208 0.0
C2584 C 0.73332 0.60693 0.00198 0.0
C2585 C 0.76906 0.60799 0.94252 0.0
C2586 C 0.75699 0.60727 0.96311 0.0
H2587 H 0.68747 0.57606 0.05217 0.0
H2588 H 0.71175 0.57422 0.02106 0.0
H2589 H 0.75934 0.62564 0.01328 0.0
H2590 H 0.79619 0.64277 0.91055 0.0
H2591 H 0.77601 0.64164 0.94437 0.0
C2592 C 0.6763 0.4472 0.28086 0.0
C2593 C 0.67174 0.42551 0.27885 0.0
C2594 C 0.67705 0.46066 0.26311 0.0
C2595 C 0.65287 0.46605 0.21152 0.0
H2596 H 0.69071 0.51381 0.20465 0.0
C2597 C 0.66382 0.54584 0.15469 0.0
C2598 C 0.64235 0.55432 0.15641 0.0
C2599 C 0.67018 0.52762 0.16645 0.0
C2600 C 0.68025 0.50035 0.20614 0.0
H2601 H 0.66528 0.40073 0.25655 0.0
H2602 H 0.6668 0.42421 0.22556 0.0
H2603 H 0.6985 0.4862 0.23144 0.0
H2604 H 0.61082 0.55102 0.17187 0.0
H2605 H 0.62166 0.51897 0.19197 0.0
H2606 H 0.63422 0.48052 0.18674 0.0
C2607 C 0.66965 0.43081 0.24088 0.0
C2608 C 0.68459 0.48468 0.22159 0.0
C2609 C 0.66897 0.41734 0.25861 0.0
C2610 C 0.62729 0.54433 0.16984 0.0
C2611 C 0.63352 0.52604 0.18134 0.0
C2612 C 0.64847 0.48175 0.19621 0.0
C2613 C 0.67317 0.45272 0.243 0.0
C2614 C 0.67062 0.46765 0.22477 0.0
C2615 C 0.65507 0.51763 0.17996 0.0
C2616 C 0.66177 0.49935 0.19375 0.0
H2617 H 0.67876 0.45389 0.29623 0.0
H2618 H 0.67963 0.4775 0.2653 0.0
H2619 H 0.64169 0.45324 0.21368 0.0
H2620 H 0.67574 0.55362 0.14467 0.0
H2621 H 0.6869 0.52148 0.16517 0.0
C2622 C 0.83457 0.41183 0.50889 0.0
C2623 C 0.83502 0.39607 0.52494 0.0
C2624 C 0.82044 0.4105 0.4921 0.0
C2625 C 0.76911 0.38655 0.47872 0.0
H2626 H 0.7865 0.399 0.42073 0.0
C2627 C 0.71484 0.36705 0.41041 0.0
C2628 C 0.71275 0.38201 0.39384 0.0
C2629 C 0.73046 0.36929 0.42562 0.0
C2630 C 0.78134 0.39573 0.43688 0.0
H2631 H 0.82178 0.36599 0.53533 0.0
H2632 H 0.79712 0.36373 0.50617 0.0
H2633 H 0.81277 0.40177 0.4487 0.0
H2634 H 0.72501 0.41104 0.38001 0.0
H2635 H 0.75246 0.41521 0.40689 0.0
H2636 H 0.73773 0.3806 0.46711 0.0
C2637 C 0.80735 0.37735 0.50678 0.0
C2638 C 0.79638 0.39728 0.45289 0.0
C2639 C 0.82147 0.37866 0.5235 0.0
C2640 C 0.72658 0.39924 0.3926 0.0
C2641 C 0.74226 0.40154 0.40791 0.0
C2642 C 0.75411 0.38505 0.4628 0.0
C2643 C 0.80645 0.39339 0.49103 0.0
C2644 C 0.79048 0.39246 0.47396 0.0
C2645 C 0.7442 0.38668 0.42473 0.0
C2646 C 0.76008 0.38935 0.44164 0.0
H2647 H 0.84468 0.42553 0.50962 0.0
H2648 H 0.82001 0.42318 0.4803 0.0
H2649 H 0.76389 0.3832 0.49485 0.0
H2650 H 0.70419 0.35372 0.4117 0.0
H2651 H 0.73173 0.35736 0.43812 0.0
C2652 C 0.87664 0.55686 0.77708 0.0
C2653 C 0.86393 0.57595 0.77482 0.0
C2654 C 0.88347 0.54501 0.7594 0.0
C2655 C 0.88903 0.54811 0.7008 0.0
H2656 H 0.88498 0.4865 0.70531 0.0
C2657 C 0.88013 0.49166 0.63046 0.0
C2658 C 0.89077 0.47143 0.63155 0.0
C2659 C 0.88142 0.50589 0.64712 0.0
C2660 C 0.88658 0.50365 0.70388 0.0
H2661 H 0.84906 0.59791 0.75209 0.0
H2662 H 0.86009 0.5768 0.72141 0.0
H2663 H 0.87804 0.5083 0.73639 0.0
H2664 H 0.91188 0.45027 0.64986 0.0
H2665 H 0.91426 0.47517 0.67906 0.0
H2666 H 0.89663 0.54331 0.66793 0.0
C2667 C 0.86514 0.57113 0.7368 0.0
C2668 C 0.88262 0.51617 0.72172 0.0
C2669 C 0.85847 0.58306 0.75445 0.0
C2670 C 0.90365 0.46593 0.64882 0.0
C2671 C 0.90487 0.48007 0.6655 0.0
C2672 C 0.8928 0.53556 0.68288 0.0
C2673 C 0.8776 0.55189 0.73906 0.0
C2674 C 0.88352 0.53857 0.72036 0.0
C2675 C 0.89322 0.49992 0.6651 0.0
C2676 C 0.89138 0.51323 0.68423 0.0
H2677 H 0.88105 0.55085 0.79254 0.0
H2678 H 0.89329 0.5304 0.7617 0.0
H2679 H 0.89024 0.56529 0.69928 0.0
H2680 H 0.86997 0.49596 0.61727 0.0
H2681 H 0.87213 0.52101 0.6465 0.0
C2682 C 0.55655 0.16023 0.61881 0.0
C2683 C 0.56036 0.14715 0.63654 0.0
C2684 C 0.54146 0.17753 0.62005 0.0
C2685 C 0.51276 0.21383 0.65796 0.0
H2686 H 0.47415 0.22545 0.61153 0.0
C2687 C 0.44149 0.27746 0.6619 0.0
C2688 C 0.43815 0.29022 0.64376 0.0
C2689 C 0.45651 0.26002 0.66144 0.0
C2690 C 0.48498 0.22256 0.62452 0.0
H2691 H 0.55162 0.14135 0.66931 0.0
H2692 H 0.52493 0.17165 0.67159 0.0
H2693 H 0.49993 0.19474 0.60998 0.0
H2694 H 0.44794 0.29463 0.61091 0.0
H2695 H 0.4744 0.26447 0.61022 0.0
H2696 H 0.49777 0.24171 0.67248 0.0
C2697 C 0.53377 0.16877 0.6568 0.0
C2698 C 0.49974 0.20496 0.62364 0.0
C2699 C 0.54888 0.15143 0.65553 0.0
C2700 C 0.45029 0.28527 0.62521 0.0
C2701 C 0.46526 0.26782 0.62475 0.0
C2702 C 0.49797 0.23146 0.65885 0.0
C2703 C 0.52989 0.18201 0.63906 0.0
C2704 C 0.51387 0.20045 0.64029 0.0
C2705 C 0.46845 0.25492 0.64281 0.0
C2706 C 0.48399 0.23607 0.64208 0.0
H2707 H 0.56538 0.15711 0.60406 0.0
H2708 H 0.53908 0.18759 0.60619 0.0
H2709 H 0.52362 0.21095 0.67092 0.0
H2710 H 0.43252 0.28098 0.67648 0.0
H2711 H 0.45849 0.2503 0.67558 0.0
loop_
_geom_bond_atom_site_label_1
_geom_bond_atom_site_label_2
_geom_bond_distance
_geom_bond_site_symmetry_2
_ccdc_geom_bond_type
C0 C1 1.443 . S
C0 N4 1.376 . S
C0 C38 1.389 . S
C1 C0 1.443 . S
C1 C2 1.340 . S
C1 H41 0.951 . S
C2 C1 1.340 . S
C2 C3 1.439 . S
C2 H42 0.950 . S
C3 C2 1.439 . S
C3 N4 1.374 . S
C3 C37 1.395 . S
N4 C0 1.376 . S
N4 C3 1.374 . S
N4 Co5 2.008 . S
Co5 N4 2.008 . S
Co5 N6 1.995 . S
Co5 N11 2.008 . S
Co5 N16 1.995 . S
Co5 N21 2.282 . S
Co5 N27 2.282 . S
N6 Co5 1.995 . S
N6 C7 1.376 . S
N6 C10 1.383 . S
C7 N6 1.376 . S
C7 C8 1.446 . S
C7 C37 1.391 . S
C8 C7 1.446 . S
C8 C9 1.339 . S
C8 H43 0.949 . S
C9 C8 1.339 . S
C9 C10 1.439 . S
C9 H44 0.950 . S
C10 N6 1.383 . S
C10 C9 1.439 . S
C10 C39 1.392 . S
N11 Co5 2.008 . S
N11 C12 1.376 . S
N11 C15 1.374 . S
C12 N11 1.376 . S
C12 C13 1.443 . S
C12 C39 1.389 . S
C13 C12 1.443 . S
C13 C14 1.340 . S
C13 H45 0.951 . S
C14 C13 1.340 . S
C14 C15 1.439 . S
C14 H46 0.950 . S
C15 N11 1.374 . S
C15 C14 1.439 . S
C15 C40 1.395 . S
N16 Co5 1.995 . S
N16 C17 1.376 . S
N16 C20 1.383 . S
C17 N16 1.376 . S
C17 C18 1.446 . S
C17 C40 1.391 . S
C18 C17 1.446 . S
C18 C19 1.339 . S
C18 H47 0.949 . S
C19 C18 1.339 . S
C19 C20 1.439 . S
C19 H48 0.950 . S
C20 N16 1.383 . S
C20 C19 1.439 . S
C20 C38 1.392 . S
N21 Co5 2.282 . S
N21 C24 1.332 . S
N21 C26 1.332 . S
C22 C23 1.386 . S
C22 C25 1.388 . S
C23 C22 1.386 . S
C23 C24 1.382 . S
C23 H49 0.950 . S
C24 N21 1.332 . S
C24 C23 1.382 . S
C24 H35 0.952 . S
C25 C22 1.388 . S
C25 C26 1.382 . S
C25 H50 0.950 . S
C26 N21 1.332 . S
C26 C25 1.382 . S
C26 H36 0.948 . S
N27 Co5 2.282 . S
N27 C31 1.332 . S
N27 C32 1.332 . S
C28 C29 1.388 . S
C28 C32 1.382 . S
C28 H51 0.950 . S
C29 C28 1.388 . S
C29 C30 1.386 . S
C30 C29 1.386 . S
C30 C31 1.382 . S
C30 H52 0.950 . S
C31 N27 1.332 . S
C31 C30 1.382 . S
C31 H33 0.952 . S
C32 N27 1.332 . S
C32 C28 1.382 . S
C32 H34 0.948 . S
H33 C31 0.952 . S
H34 C32 0.948 . S
H35 C24 0.952 . S
H36 C26 0.948 . S
C37 C3 1.395 . S
C37 C7 1.391 . S
C38 C0 1.389 . S
C38 C20 1.392 . S
C39 C10 1.392 . S
C39 C12 1.389 . S
C40 C15 1.395 . S
C40 C17 1.391 . S
H41 C1 0.951 . S
H42 C2 0.950 . S
H43 C8 0.949 . S
H44 C9 0.950 . S
H45 C13 0.951 . S
H46 C14 0.950 . S
H47 C18 0.949 . S
H48 C19 0.950 . S
H49 C23 0.950 . S
H50 C25 0.950 . S
H51 C28 0.950 . S
H52 C30 0.950 . S
C53 C54 1.443 . S
C53 N57 1.376 . S
C53 C91 1.389 . S
C54 C53 1.443 . S
C54 C55 1.340 . S
C54 H94 0.951 . S
C55 C54 1.340 . S
C55 C56 1.439 . S
C55 H95 0.950 . S
C56 C55 1.439 . S
C56 N57 1.374 . S
C56 C90 1.395 . S
N57 C53 1.376 . S
N57 C56 1.374 . S
N57 Co58 2.008 . S
Co58 N57 2.008 . S
Co58 N59 1.995 . S
Co58 N64 2.008 . S
Co58 N69 1.995 . S
Co58 N74 2.282 . S
Co58 N80 2.282 . S
N59 Co58 1.995 . S
N59 C60 1.376 . S
N59 C63 1.383 . S
C60 N59 1.376 . S
C60 C61 1.446 . S
C60 C90 1.391 . S
C61 C60 1.446 . S
C61 C62 1.339 . S
C61 H96 0.949 . S
C62 C61 1.339 . S
C62 C63 1.439 . S
C62 H97 0.950 . S
C63 N59 1.383 . S
C63 C62 1.439 . S
C63 C92 1.392 . S
N64 Co58 2.008 . S
N64 C65 1.376 . S
N64 C68 1.374 . S
C65 N64 1.376 . S
C65 C66 1.443 . S
C65 C92 1.389 . S
C66 C65 1.443 . S
C66 C67 1.340 . S
C66 H98 0.951 . S
C67 C66 1.340 . S
C67 C68 1.439 . S
C67 H99 0.950 . S
C68 N64 1.374 . S
C68 C67 1.439 . S
C68 C93 1.395 . S
N69 Co58 1.995 . S
N69 C70 1.376 . S
N69 C73 1.383 . S
C70 N69 1.376 . S
C70 C71 1.446 . S
C70 C93 1.391 . S
C71 C70 1.446 . S
C71 C72 1.339 . S
C71 H100 0.949 . S
C72 C71 1.339 . S
C72 C73 1.439 . S
C72 H101 0.950 . S
C73 N69 1.383 . S
C73 C72 1.439 . S
C73 C91 1.392 . S
N74 Co58 2.282 . S
N74 C77 1.332 . S
N74 C79 1.332 . S
C75 C76 1.386 . S
C75 C78 1.388 . S
C76 C75 1.386 . S
C76 C77 1.382 . S
C76 H102 0.950 . S
C77 N74 1.332 . S
C77 C76 1.382 . S
C77 H88 0.952 . S
C78 C75 1.388 . S
C78 C79 1.382 . S
C78 H103 0.950 . S
C79 N74 1.332 . S
C79 C78 1.382 . S
C79 H89 0.948 . S
N80 Co58 2.282 . S
N80 C84 1.332 . S
N80 C85 1.332 . S
C81 C82 1.388 . S
C81 C85 1.382 . S
C81 H104 0.950 . S
C82 C81 1.388 . S
C82 C83 1.386 . S
C83 C82 1.386 . S
C83 C84 1.382 . S
C83 H105 0.950 . S
C84 N80 1.332 . S
C84 C83 1.382 . S
C84 H86 0.952 . S
C85 N80 1.332 . S
C85 C81 1.382 . S
C85 H87 0.948 . S
H86 C84 0.952 . S
H87 C85 0.948 . S
H88 C77 0.952 . S
H89 C79 0.948 . S
C90 C56 1.395 . S
C90 C60 1.391 . S
C91 C53 1.389 . S
C91 C73 1.392 . S
C92 C63 1.392 . S
C92 C65 1.389 . S
C93 C68 1.395 . S
C93 C70 1.391 . S
H94 C54 0.951 . S
H95 C55 0.950 . S
H96 C61 0.949 . S
H97 C62 0.950 . S
H98 C66 0.951 . S
H99 C67 0.950 . S
H100 C71 0.949 . S
H101 C72 0.950 . S
H102 C76 0.950 . S
H103 C78 0.950 . S
H104 C81 0.950 . S
H105 C83 0.950 . S
C106 C107 1.443 . S
C106 N110 1.376 . S
C106 C144 1.389 . S
C107 C106 1.443 . S
C107 C108 1.340 . S
C107 H147 0.951 . S
C108 C107 1.340 . S
C108 C109 1.439 . S
C108 H148 0.950 . S
C109 C108 1.439 . S
C109 N110 1.374 . S
C109 C143 1.395 . S
N110 C106 1.376 . S
N110 C109 1.374 . S
N110 Co111 2.008 . S
Co111 N110 2.008 . S
Co111 N112 1.995 . S
Co111 N117 2.008 . S
Co111 N122 1.995 . S
Co111 N127 2.282 . S
Co111 N133 2.282 . S
N112 Co111 1.995 . S
N112 C113 1.376 . S
N112 C116 1.383 . S
C113 N112 1.376 . S
C113 C114 1.446 . S
C113 C143 1.391 . S
C114 C113 1.446 . S
C114 C115 1.339 . S
C114 H149 0.949 . S
C115 C114 1.339 . S
C115 C116 1.439 . S
C115 H150 0.950 . S
C116 N112 1.383 . S
C116 C115 1.439 . S
C116 C145 1.392 . S
N117 Co111 2.008 . S
N117 C118 1.376 . S
N117 C121 1.374 . S
C118 N117 1.376 . S
C118 C119 1.443 . S
C118 C145 1.389 . S
C119 C118 1.443 . S
C119 C120 1.340 . S
C119 H151 0.951 . S
C120 C119 1.340 . S
C120 C121 1.439 . S
C120 H152 0.950 . S
C121 N117 1.374 . S
C121 C120 1.439 . S
C121 C146 1.395 . S
N122 Co111 1.995 . S
N122 C123 1.376 . S
N122 C126 1.383 . S
C123 N122 1.376 . S
C123 C124 1.446 . S
C123 C146 1.391 . S
C124 C123 1.446 . S
C124 C125 1.339 . S
C124 H153 0.949 . S
C125 C124 1.339 . S
C125 C126 1.439 . S
C125 H154 0.950 . S
C126 N122 1.383 . S
C126 C125 1.439 . S
C126 C144 1.392 . S
N127 Co111 2.282 . S
N127 C130 1.332 . S
N127 C132 1.332 . S
C128 C129 1.386 . S
C128 C131 1.388 . S
C129 C128 1.386 . S
C129 C130 1.382 . S
C129 H155 0.950 . S
C130 N127 1.332 . S
C130 C129 1.382 . S
C130 H141 0.952 . S
C131 C128 1.388 . S
C131 C132 1.382 . S
C131 H156 0.950 . S
C132 N127 1.332 . S
C132 C131 1.382 . S
C132 H142 0.948 . S
N133 Co111 2.282 . S
N133 C137 1.332 . S
N133 C138 1.332 . S
C134 C135 1.388 . S
C134 C138 1.382 . S
C134 H157 0.950 . S
C135 C134 1.388 . S
C135 C136 1.386 . S
C136 C135 1.386 . S
C136 C137 1.382 . S
C136 H158 0.950 . S
C137 N133 1.332 . S
C137 C136 1.382 . S
C137 H139 0.952 . S
C138 N133 1.332 . S
C138 C134 1.382 . S
C138 H140 0.948 . S
H139 C137 0.952 . S
H140 C138 0.948 . S
H141 C130 0.952 . S
H142 C132 0.948 . S
C143 C109 1.395 . S
C143 C113 1.391 . S
C144 C106 1.389 . S
C144 C126 1.392 . S
C145 C116 1.392 . S
C145 C118 1.389 . S
C146 C121 1.395 . S
C146 C123 1.391 . S
H147 C107 0.951 . S
H148 C108 0.950 . S
H149 C114 0.949 . S
H150 C115 0.950 . S
H151 C119 0.951 . S
H152 C120 0.950 . S
H153 C124 0.949 . S
H154 C125 0.950 . S
H155 C129 0.950 . S
H156 C131 0.950 . S
H157 C134 0.950 . S
H158 C136 0.950 . S
C159 C160 1.443 . S
C159 N163 1.376 . S
C159 C197 1.389 . S
C160 C159 1.443 . S
C160 C161 1.340 . S
C160 H200 0.951 . S
C161 C160 1.340 . S
C161 C162 1.439 . S
C161 H201 0.950 . S
C162 C161 1.439 . S
C162 N163 1.374 . S
C162 C196 1.395 . S
N163 C159 1.376 . S
N163 C162 1.374 . S
N163 Co164 2.008 . S
Co164 N163 2.008 . S
Co164 N165 1.995 . S
Co164 N170 2.008 . S
Co164 N175 1.995 . S
Co164 N180 2.282 . S
Co164 N186 2.282 . S
N165 Co164 1.995 . S
N165 C166 1.376 . S
N165 C169 1.383 . S
C166 N165 1.376 . S
C166 C167 1.446 . S
C166 C196 1.391 . S
C167 C166 1.446 . S
C167 C168 1.339 . S
C167 H202 0.949 . S
C168 C167 1.339 . S
C168 C169 1.439 . S
C168 H203 0.950 . S
C169 N165 1.383 . S
C169 C168 1.439 . S
C169 C198 1.392 . S
N170 Co164 2.008 . S
N170 C171 1.376 . S
N170 C174 1.374 . S
C171 N170 1.376 . S
C171 C172 1.443 . S
C171 C198 1.389 . S
C172 C171 1.443 . S
C172 C173 1.340 . S
C172 H204 0.951 . S
C173 C172 1.340 . S
C173 C174 1.439 . S
C173 H205 0.950 . S
C174 N170 1.374 . S
C174 C173 1.439 . S
C174 C199 1.395 . S
N175 Co164 1.995 . S
N175 C176 1.376 . S
N175 C179 1.383 . S
C176 N175 1.376 . S
C176 C177 1.446 . S
C176 C199 1.391 . S
C177 C176 1.446 . S
C177 C178 1.339 . S
C177 H206 0.949 . S
C178 C177 1.339 . S
C178 C179 1.439 . S
C178 H207 0.950 . S
C179 N175 1.383 . S
C179 C178 1.439 . S
C179 C197 1.392 . S
N180 Co164 2.282 . S
N180 C183 1.332 . S
N180 C185 1.332 . S
C181 C182 1.386 . S
C181 C184 1.388 . S
C182 C181 1.386 . S
C182 C183 1.382 . S
C182 H208 0.950 . S
C183 N180 1.332 . S
C183 C182 1.382 . S
C183 H194 0.952 . S
C184 C181 1.388 . S
C184 C185 1.382 . S
C184 H209 0.950 . S
C185 N180 1.332 . S
C185 C184 1.382 . S
C185 H195 0.948 . S
N186 Co164 2.282 . S
N186 C190 1.332 . S
N186 C191 1.332 . S
C187 C188 1.388 . S
C187 C191 1.382 . S
C187 H210 0.950 . S
C188 C187 1.388 . S
C188 C189 1.386 . S
C189 C188 1.386 . S
C189 C190 1.382 . S
C189 H211 0.950 . S
C190 N186 1.332 . S
C190 C189 1.382 . S
C190 H192 0.952 . S
C191 N186 1.332 . S
C191 C187 1.382 . S
C191 H193 0.948 . S
H192 C190 0.952 . S
H193 C191 0.948 . S
H194 C183 0.952 . S
H195 C185 0.948 . S
C196 C162 1.395 . S
C196 C166 1.391 . S
C197 C159 1.389 . S
C197 C179 1.392 . S
C198 C169 1.392 . S
C198 C171 1.389 . S
C199 C174 1.395 . S
C199 C176 1.391 . S
H200 C160 0.951 . S
H201 C161 0.950 . S
H202 C167 0.949 . S
H203 C168 0.950 . S
H204 C172 0.951 . S
H205 C173 0.950 . S
H206 C177 0.949 . S
H207 C178 0.950 . S
H208 C182 0.950 . S
H209 C184 0.950 . S
H210 C187 0.950 . S
H211 C189 0.950 . S
C212 C213 1.443 . S
C212 N216 1.376 . S
C212 C250 1.389 . S
C213 C212 1.443 . S
C213 C214 1.340 . S
C213 H253 0.951 . S
C214 C213 1.340 . S
C214 C215 1.439 . S
C214 H254 0.950 . S
C215 C214 1.439 . S
C215 N216 1.374 . S
C215 C249 1.395 . S
N216 C212 1.376 . S
N216 C215 1.374 . S
N216 Co217 2.008 . S
Co217 N216 2.008 . S
Co217 N218 1.995 . S
Co217 N223 2.008 . S
Co217 N228 1.995 . S
Co217 N233 2.282 . S
Co217 N239 2.282 . S
N218 Co217 1.995 . S
N218 C219 1.376 . S
N218 C222 1.383 . S
C219 N218 1.376 . S
C219 C220 1.446 . S
C219 C249 1.391 . S
C220 C219 1.446 . S
C220 C221 1.339 . S
C220 H255 0.949 . S
C221 C220 1.339 . S
C221 C222 1.439 . S
C221 H256 0.950 . S
C222 N218 1.383 . S
C222 C221 1.439 . S
C222 C251 1.392 . S
N223 Co217 2.008 . S
N223 C224 1.376 . S
N223 C227 1.374 . S
C224 N223 1.376 . S
C224 C225 1.443 . S
C224 C251 1.389 . S
C225 C224 1.443 . S
C225 C226 1.340 . S
C225 H257 0.951 . S
C226 C225 1.340 . S
C226 C227 1.439 . S
C226 H258 0.950 . S
C227 N223 1.374 . S
C227 C226 1.439 . S
C227 C252 1.395 . S
N228 Co217 1.995 . S
N228 C229 1.376 . S
N228 C232 1.383 . S
C229 N228 1.376 . S
C229 C230 1.446 . S
C229 C252 1.391 . S
C230 C229 1.446 . S
C230 C231 1.339 . S
C230 H259 0.949 . S
C231 C230 1.339 . S
C231 C232 1.439 . S
C231 H260 0.950 . S
C232 N228 1.383 . S
C232 C231 1.439 . S
C232 C250 1.392 . S
N233 Co217 2.282 . S
N233 C236 1.332 . S
N233 C238 1.332 . S
C234 C235 1.386 . S
C234 C237 1.388 . S
C235 C234 1.386 . S
C235 C236 1.382 . S
C235 H261 0.950 . S
C236 N233 1.332 . S
C236 C235 1.382 . S
C236 H247 0.952 . S
C237 C234 1.388 . S
C237 C238 1.382 . S
C237 H262 0.950 . S
C238 N233 1.332 . S
C238 C237 1.382 . S
C238 H248 0.948 . S
N239 Co217 2.282 . S
N239 C243 1.332 . S
N239 C244 1.332 . S
C240 C241 1.388 . S
C240 C244 1.382 . S
C240 H263 0.950 . S
C241 C240 1.388 . S
C241 C242 1.386 . S
C242 C241 1.386 . S
C242 C243 1.382 . S
C242 H264 0.950 . S
C243 N239 1.332 . S
C243 C242 1.382 . S
C243 H245 0.952 . S
C244 N239 1.332 . S
C244 C240 1.382 . S
C244 H246 0.948 . S
H245 C243 0.952 . S
H246 C244 0.948 . S
H247 C236 0.952 . S
H248 C238 0.948 . S
C249 C215 1.395 . S
C249 C219 1.391 . S
C250 C212 1.389 . S
C250 C232 1.392 . S
C251 C222 1.392 . S
C251 C224 1.389 . S
C252 C227 1.395 . S
C252 C229 1.391 . S
H253 C213 0.951 . S
H254 C214 0.950 . S
H255 C220 0.949 . S
H256 C221 0.950 . S
H257 C225 0.951 . S
H258 C226 0.950 . S
H259 C230 0.949 . S
H260 C231 0.950 . S
H261 C235 0.950 . S
H262 C237 0.950 . S
H263 C240 0.950 . S
H264 C242 0.950 . S
C265 C266 1.443 . S
C265 N269 1.376 . S
C265 C303 1.389 . S
C266 C265 1.443 . S
C266 C267 1.340 . S
C266 H306 0.951 . S
C267 C266 1.340 . S
C267 C268 1.439 . S
C267 H307 0.950 . S
C268 C267 1.439 . S
C268 N269 1.374 . S
C268 C302 1.395 . S
N269 C265 1.376 . S
N269 C268 1.374 . S
N269 Co270 2.008 . S
Co270 N269 2.008 . S
Co270 N271 1.995 . S
Co270 N276 2.008 . S
Co270 N281 1.995 . S
Co270 N286 2.282 . S
Co270 N292 2.282 . S
N271 Co270 1.995 . S
N271 C272 1.376 . S
N271 C275 1.383 . S
C272 N271 1.376 . S
C272 C273 1.446 . S
C272 C302 1.391 . S
C273 C272 1.446 . S
C273 C274 1.339 . S
C273 H308 0.949 . S
C274 C273 1.339 . S
C274 C275 1.439 . S
C274 H309 0.950 . S
C275 N271 1.383 . S
C275 C274 1.439 . S
C275 C304 1.392 . S
N276 Co270 2.008 . S
N276 C277 1.376 . S
N276 C280 1.374 . S
C277 N276 1.376 . S
C277 C278 1.443 . S
C277 C304 1.389 . S
C278 C277 1.443 . S
C278 C279 1.340 . S
C278 H310 0.951 . S
C279 C278 1.340 . S
C279 C280 1.439 . S
C279 H311 0.950 . S
C280 N276 1.374 . S
C280 C279 1.439 . S
C280 C305 1.395 . S
N281 Co270 1.995 . S
N281 C282 1.376 . S
N281 C285 1.383 . S
C282 N281 1.376 . S
C282 C283 1.446 . S
C282 C305 1.391 . S
C283 C282 1.446 . S
C283 C284 1.339 . S
C283 H312 0.949 . S
C284 C283 1.339 . S
C284 C285 1.439 . S
C284 H313 0.950 . S
C285 N281 1.383 . S
C285 C284 1.439 . S
C285 C303 1.392 . S
N286 Co270 2.282 . S
N286 C289 1.332 . S
N286 C291 1.332 . S
C287 C288 1.386 . S
C287 C290 1.388 . S
C288 C287 1.386 . S
C288 C289 1.382 . S
C288 H314 0.950 . S
C289 N286 1.332 . S
C289 C288 1.382 . S
C289 H300 0.952 . S
C290 C287 1.388 . S
C290 C291 1.382 . S
C290 H315 0.950 . S
C291 N286 1.332 . S
C291 C290 1.382 . S
C291 H301 0.948 . S
N292 Co270 2.282 . S
N292 C296 1.332 . S
N292 C297 1.332 . S
C293 C294 1.388 . S
C293 C297 1.382 . S
C293 H316 0.950 . S
C294 C293 1.388 . S
C294 C295 1.386 . S
C295 C294 1.386 . S
C295 C296 1.382 . S
C295 H317 0.950 . S
C296 N292 1.332 . S
C296 C295 1.382 . S
C296 H298 0.952 . S
C297 N292 1.332 . S
C297 C293 1.382 . S
C297 H299 0.948 . S
H298 C296 0.952 . S
H299 C297 0.948 . S
H300 C289 0.952 . S
H301 C291 0.948 . S
C302 C268 1.395 . S
C302 C272 1.391 . S
C303 C265 1.389 . S
C303 C285 1.392 . S
C304 C275 1.392 . S
C304 C277 1.389 . S
C305 C280 1.395 . S
C305 C282 1.391 . S
H306 C266 0.951 . S
H307 C267 0.950 . S
H308 C273 0.949 . S
H309 C274 0.950 . S
H310 C278 0.951 . S
H311 C279 0.950 . S
H312 C283 0.949 . S
H313 C284 0.950 . S
H314 C288 0.950 . S
H315 C290 0.950 . S
H316 C293 0.950 . S
H317 C295 0.950 . S
C318 C319 1.443 . S
C318 N322 1.376 . S
C318 C356 1.389 . S
C319 C318 1.443 . S
C319 C320 1.340 . S
C319 H359 0.951 . S
C320 C319 1.340 . S
C320 C321 1.439 . S
C320 H360 0.950 . S
C321 C320 1.439 . S
C321 N322 1.374 . S
C321 C355 1.395 . S
N322 C318 1.376 . S
N322 C321 1.374 . S
N322 Co323 2.008 . S
Co323 N322 2.008 . S
Co323 N324 1.995 . S
Co323 N329 2.008 . S
Co323 N334 1.995 . S
Co323 N339 2.282 . S
Co323 N345 2.282 . S
N324 Co323 1.995 . S
N324 C325 1.376 . S
N324 C328 1.383 . S
C325 N324 1.376 . S
C325 C326 1.446 . S
C325 C355 1.391 . S
C326 C325 1.446 . S
C326 C327 1.339 . S
C326 H361 0.949 . S
C327 C326 1.339 . S
C327 C328 1.439 . S
C327 H362 0.950 . S
C328 N324 1.383 . S
C328 C327 1.439 . S
C328 C357 1.392 . S
N329 Co323 2.008 . S
N329 C330 1.376 . S
N329 C333 1.374 . S
C330 N329 1.376 . S
C330 C331 1.443 . S
C330 C357 1.389 . S
C331 C330 1.443 . S
C331 C332 1.340 . S
C331 H363 0.951 . S
C332 C331 1.340 . S
C332 C333 1.439 . S
C332 H364 0.950 . S
C333 N329 1.374 . S
C333 C332 1.439 . S
C333 C358 1.395 . S
N334 Co323 1.995 . S
N334 C335 1.376 . S
N334 C338 1.383 . S
C335 N334 1.376 . S
C335 C336 1.446 . S
C335 C358 1.391 . S
C336 C335 1.446 . S
C336 C337 1.339 . S
C336 H365 0.949 . S
C337 C336 1.339 . S
C337 C338 1.439 . S
C337 H366 0.950 . S
C338 N334 1.383 . S
C338 C337 1.439 . S
C338 C356 1.392 . S
N339 Co323 2.282 . S
N339 C342 1.332 . S
N339 C344 1.332 . S
C340 C341 1.386 . S
C340 C343 1.388 . S
C341 C340 1.386 . S
C341 C342 1.382 . S
C341 H367 0.950 . S
C342 N339 1.332 . S
C342 C341 1.382 . S
C342 H353 0.952 . S
C343 C340 1.388 . S
C343 C344 1.382 . S
C343 H368 0.950 . S
C344 N339 1.332 . S
C344 C343 1.382 . S
C344 H354 0.948 . S
N345 Co323 2.282 . S
N345 C349 1.332 . S
N345 C350 1.332 . S
C346 C347 1.388 . S
C346 C350 1.382 . S
C346 H369 0.950 . S
C347 C346 1.388 . S
C347 C348 1.386 . S
C348 C347 1.386 . S
C348 C349 1.382 . S
C348 H370 0.950 . S
C349 N345 1.332 . S
C349 C348 1.382 . S
C349 H351 0.952 . S
C350 N345 1.332 . S
C350 C346 1.382 . S
C350 H352 0.948 . S
H351 C349 0.952 . S
H352 C350 0.948 . S
H353 C342 0.952 . S
H354 C344 0.948 . S
C355 C321 1.395 . S
C355 C325 1.391 . S
C356 C318 1.389 . S
C356 C338 1.392 . S
C357 C328 1.392 . S
C357 C330 1.389 . S
C358 C333 1.395 . S
C358 C335 1.391 . S
H359 C319 0.951 . S
H360 C320 0.950 . S
H361 C326 0.949 . S
H362 C327 0.950 . S
H363 C331 0.951 . S
H364 C332 0.950 . S
H365 C336 0.949 . S
H366 C337 0.950 . S
H367 C341 0.950 . S
H368 C343 0.950 . S
H369 C346 0.950 . S
H370 C348 0.950 . S
C371 C372 1.443 . S
C371 N375 1.376 . S
C371 C409 1.389 . S
C372 C371 1.443 . S
C372 C373 1.340 . S
C372 H412 0.951 . S
C373 C372 1.340 . S
C373 C374 1.439 . S
C373 H413 0.950 . S
C374 C373 1.439 . S
C374 N375 1.374 . S
C374 C408 1.395 . S
N375 C371 1.376 . S
N375 C374 1.374 . S
N375 Co376 2.008 . S
Co376 N375 2.008 . S
Co376 N377 1.995 . S
Co376 N382 2.008 . S
Co376 N387 1.995 . S
Co376 N392 2.282 . S
Co376 N398 2.282 . S
N377 Co376 1.995 . S
N377 C378 1.376 . S
N377 C381 1.383 . S
C378 N377 1.376 . S
C378 C379 1.446 . S
C378 C408 1.391 . S
C379 C378 1.446 . S
C379 C380 1.339 . S
C379 H414 0.949 . S
C380 C379 1.339 . S
C380 C381 1.439 . S
C380 H415 0.950 . S
C381 N377 1.383 . S
C381 C380 1.439 . S
C381 C410 1.392 . S
N382 Co376 2.008 . S
N382 C383 1.376 . S
N382 C386 1.374 . S
C383 N382 1.376 . S
C383 C384 1.443 . S
C383 C410 1.389 . S
C384 C383 1.443 . S
C384 C385 1.340 . S
C384 H416 0.951 . S
C385 C384 1.340 . S
C385 C386 1.439 . S
C385 H417 0.950 . S
C386 N382 1.374 . S
C386 C385 1.439 . S
C386 C411 1.395 . S
N387 Co376 1.995 . S
N387 C388 1.376 . S
N387 C391 1.383 . S
C388 N387 1.376 . S
C388 C389 1.446 . S
C388 C411 1.391 . S
C389 C388 1.446 . S
C389 C390 1.339 . S
C389 H418 0.949 . S
C390 C389 1.339 . S
C390 C391 1.439 . S
C390 H419 0.950 . S
C391 N387 1.383 . S
C391 C390 1.439 . S
C391 C409 1.392 . S
N392 Co376 2.282 . S
N392 C395 1.332 . S
N392 C397 1.332 . S
C393 C394 1.386 . S
C393 C396 1.388 . S
C394 C393 1.386 . S
C394 C395 1.382 . S
C394 H420 0.950 . S
C395 N392 1.332 . S
C395 C394 1.382 . S
C395 H406 0.952 . S
C396 C393 1.388 . S
C396 C397 1.382 . S
C396 H421 0.950 . S
C397 N392 1.332 . S
C397 C396 1.382 . S
C397 H407 0.948 . S
N398 Co376 2.282 . S
N398 C402 1.332 . S
N398 C403 1.332 . S
C399 C400 1.388 . S
C399 C403 1.382 . S
C399 H422 0.950 . S
C400 C399 1.388 . S
C400 C401 1.386 . S
C401 C400 1.386 . S
C401 C402 1.382 . S
C401 H423 0.950 . S
C402 N398 1.332 . S
C402 C401 1.382 . S
C402 H404 0.952 . S
C403 N398 1.332 . S
C403 C399 1.382 . S
C403 H405 0.948 . S
H404 C402 0.952 . S
H405 C403 0.948 . S
H406 C395 0.952 . S
H407 C397 0.948 . S
C408 C374 1.395 . S
C408 C378 1.391 . S
C409 C371 1.389 . S
C409 C391 1.392 . S
C410 C381 1.392 . S
C410 C383 1.389 . S
C411 C386 1.395 . S
C411 C388 1.391 . S
H412 C372 0.951 . S
H413 C373 0.950 . S
H414 C379 0.949 . S
H415 C380 0.950 . S
H416 C384 0.951 . S
H417 C385 0.950 . S
H418 C389 0.949 . S
H419 C390 0.950 . S
H420 C394 0.950 . S
H421 C396 0.950 . S
H422 C399 0.950 . S
H423 C401 0.950 . S
C424 C425 1.443 . S
C424 N428 1.376 . S
C424 C462 1.389 . S
C425 C424 1.443 . S
C425 C426 1.340 . S
C425 H465 0.951 . S
C426 C425 1.340 . S
C426 C427 1.439 . S
C426 H466 0.950 . S
C427 C426 1.439 . S
C427 N428 1.374 . S
C427 C461 1.395 . S
N428 C424 1.376 . S
N428 C427 1.374 . S
N428 Co429 2.008 . S
Co429 N428 2.008 . S
Co429 N430 1.995 . S
Co429 N435 2.008 . S
Co429 N440 1.995 . S
Co429 N445 2.282 . S
Co429 N451 2.282 . S
N430 Co429 1.995 . S
N430 C431 1.376 . S
N430 C434 1.383 . S
C431 N430 1.376 . S
C431 C432 1.446 . S
C431 C461 1.391 . S
C432 C431 1.446 . S
C432 C433 1.339 . S
C432 H467 0.949 . S
C433 C432 1.339 . S
C433 C434 1.439 . S
C433 H468 0.950 . S
C434 N430 1.383 . S
C434 C433 1.439 . S
C434 C463 1.392 . S
N435 Co429 2.008 . S
N435 C436 1.376 . S
N435 C439 1.374 . S
C436 N435 1.376 . S
C436 C437 1.443 . S
C436 C463 1.389 . S
C437 C436 1.443 . S
C437 C438 1.340 . S
C437 H469 0.951 . S
C438 C437 1.340 . S
C438 C439 1.439 . S
C438 H470 0.950 . S
C439 N435 1.374 . S
C439 C438 1.439 . S
C439 C464 1.395 . S
N440 Co429 1.995 . S
N440 C441 1.376 . S
N440 C444 1.383 . S
C441 N440 1.376 . S
C441 C442 1.446 . S
C441 C464 1.391 . S
C442 C441 1.446 . S
C442 C443 1.339 . S
C442 H471 0.949 . S
C443 C442 1.339 . S
C443 C444 1.439 . S
C443 H472 0.950 . S
C444 N440 1.383 . S
C444 C443 1.439 . S
C444 C462 1.392 . S
N445 Co429 2.282 . S
N445 C448 1.332 . S
N445 C450 1.332 . S
C446 C447 1.386 . S
C446 C449 1.388 . S
C447 C446 1.386 . S
C447 C448 1.382 . S
C447 H473 0.950 . S
C448 N445 1.332 . S
C448 C447 1.382 . S
C448 H459 0.952 . S
C449 C446 1.388 . S
C449 C450 1.382 . S
C449 H474 0.950 . S
C450 N445 1.332 . S
C450 C449 1.382 . S
C450 H460 0.948 . S
N451 Co429 2.282 . S
N451 C455 1.332 . S
N451 C456 1.332 . S
C452 C453 1.388 . S
C452 C456 1.382 . S
C452 H475 0.950 . S
C453 C452 1.388 . S
C453 C454 1.386 . S
C454 C453 1.386 . S
C454 C455 1.382 . S
C454 H476 0.950 . S
C455 N451 1.332 . S
C455 C454 1.382 . S
C455 H457 0.952 . S
C456 N451 1.332 . S
C456 C452 1.382 . S
C456 H458 0.948 . S
H457 C455 0.952 . S
H458 C456 0.948 . S
H459 C448 0.952 . S
H460 C450 0.948 . S
C461 C427 1.395 . S
C461 C431 1.391 . S
C462 C424 1.389 . S
C462 C444 1.392 . S
C463 C434 1.392 . S
C463 C436 1.389 . S
C464 C439 1.395 . S
C464 C441 1.391 . S
H465 C425 0.951 . S
H466 C426 0.950 . S
H467 C432 0.949 . S
H468 C433 0.950 . S
H469 C437 0.951 . S
H470 C438 0.950 . S
H471 C442 0.949 . S
H472 C443 0.950 . S
H473 C447 0.950 . S
H474 C449 0.950 . S
H475 C452 0.950 . S
H476 C454 0.950 . S
C477 C478 1.443 . S
C477 N481 1.376 . S
C477 C515 1.389 . S
C478 C477 1.443 . S
C478 C479 1.340 . S
C478 H518 0.951 . S
C479 C478 1.340 . S
C479 C480 1.439 . S
C479 H519 0.950 . S
C480 C479 1.439 . S
C480 N481 1.374 . S
C480 C514 1.395 . S
N481 C477 1.376 . S
N481 C480 1.374 . S
N481 Co482 2.008 . S
Co482 N481 2.008 . S
Co482 N483 1.995 . S
Co482 N488 2.008 . S
Co482 N493 1.995 . S
Co482 N498 2.282 . S
Co482 N504 2.282 . S
N483 Co482 1.995 . S
N483 C484 1.376 . S
N483 C487 1.383 . S
C484 N483 1.376 . S
C484 C485 1.446 . S
C484 C514 1.391 . S
C485 C484 1.446 . S
C485 C486 1.339 . S
C485 H520 0.949 . S
C486 C485 1.339 . S
C486 C487 1.439 . S
C486 H521 0.950 . S
C487 N483 1.383 . S
C487 C486 1.439 . S
C487 C516 1.392 . S
N488 Co482 2.008 . S
N488 C489 1.376 . S
N488 C492 1.374 . S
C489 N488 1.376 . S
C489 C490 1.443 . S
C489 C516 1.389 . S
C490 C489 1.443 . S
C490 C491 1.340 . S
C490 H522 0.951 . S
C491 C490 1.340 . S
C491 C492 1.439 . S
C491 H523 0.950 . S
C492 N488 1.374 . S
C492 C491 1.439 . S
C492 C517 1.395 . S
N493 Co482 1.995 . S
N493 C494 1.376 . S
N493 C497 1.383 . S
C494 N493 1.376 . S
C494 C495 1.446 . S
C494 C517 1.391 . S
C495 C494 1.446 . S
C495 C496 1.339 . S
C495 H524 0.949 . S
C496 C495 1.339 . S
C496 C497 1.439 . S
C496 H525 0.950 . S
C497 N493 1.383 . S
C497 C496 1.439 . S
C497 C515 1.392 . S
N498 Co482 2.282 . S
N498 C501 1.332 . S
N498 C503 1.332 . S
C499 C500 1.386 . S
C499 C502 1.388 . S
C500 C499 1.386 . S
C500 C501 1.382 . S
C500 H526 0.950 . S
C501 N498 1.332 . S
C501 C500 1.382 . S
C501 H512 0.952 . S
C502 C499 1.388 . S
C502 C503 1.382 . S
C502 H527 0.950 . S
C503 N498 1.332 . S
C503 C502 1.382 . S
C503 H513 0.948 . S
N504 Co482 2.282 . S
N504 C508 1.332 . S
N504 C509 1.332 . S
C505 C506 1.388 . S
C505 C509 1.382 . S
C505 H528 0.950 . S
C506 C505 1.388 . S
C506 C507 1.386 . S
C507 C506 1.386 . S
C507 C508 1.382 . S
C507 H529 0.950 . S
C508 N504 1.332 . S
C508 C507 1.382 . S
C508 H510 0.952 . S
C509 N504 1.332 . S
C509 C505 1.382 . S
C509 H511 0.948 . S
H510 C508 0.952 . S
H511 C509 0.948 . S
H512 C501 0.952 . S
H513 C503 0.948 . S
C514 C480 1.395 . S
C514 C484 1.391 . S
C515 C477 1.389 . S
C515 C497 1.392 . S
C516 C487 1.392 . S
C516 C489 1.389 . S
C517 C492 1.395 . S
C517 C494 1.391 . S
H518 C478 0.951 . S
H519 C479 0.950 . S
H520 C485 0.949 . S
H521 C486 0.950 . S
H522 C490 0.951 . S
H523 C491 0.950 . S
H524 C495 0.949 . S
H525 C496 0.950 . S
H526 C500 0.950 . S
H527 C502 0.950 . S
H528 C505 0.950 . S
H529 C507 0.950 . S
C530 C531 1.443 . S
C530 N534 1.376 . S
C530 C568 1.389 . S
C531 C530 1.443 . S
C531 C532 1.340 . S
C531 H571 0.951 . S
C532 C531 1.340 . S
C532 C533 1.439 . S
C532 H572 0.950 . S
C533 C532 1.439 . S
C533 N534 1.374 . S
C533 C567 1.395 . S
N534 C530 1.376 . S
N534 C533 1.374 . S
N534 Co535 2.008 . S
Co535 N534 2.008 . S
Co535 N536 1.995 . S
Co535 N541 2.008 . S
Co535 N546 1.995 . S
Co535 N551 2.282 . S
Co535 N557 2.282 . S
N536 Co535 1.995 . S
N536 C537 1.376 . S
N536 C540 1.383 . S
C537 N536 1.376 . S
C537 C538 1.446 . S
C537 C567 1.391 . S
C538 C537 1.446 . S
C538 C539 1.339 . S
C538 H573 0.949 . S
C539 C538 1.339 . S
C539 C540 1.439 . S
C539 H574 0.950 . S
C540 N536 1.383 . S
C540 C539 1.439 . S
C540 C569 1.392 . S
N541 Co535 2.008 . S
N541 C542 1.376 . S
N541 C545 1.374 . S
C542 N541 1.376 . S
C542 C543 1.443 . S
C542 C569 1.389 . S
C543 C542 1.443 . S
C543 C544 1.340 . S
C543 H575 0.951 . S
C544 C543 1.340 . S
C544 C545 1.439 . S
C544 H576 0.950 . S
C545 N541 1.374 . S
C545 C544 1.439 . S
C545 C570 1.395 . S
N546 Co535 1.995 . S
N546 C547 1.376 . S
N546 C550 1.383 . S
C547 N546 1.376 . S
C547 C548 1.446 . S
C547 C570 1.391 . S
C548 C547 1.446 . S
C548 C549 1.339 . S
C548 H577 0.949 . S
C549 C548 1.339 . S
C549 C550 1.439 . S
C549 H578 0.950 . S
C550 N546 1.383 . S
C550 C549 1.439 . S
C550 C568 1.392 . S
N551 Co535 2.282 . S
N551 C554 1.332 . S
N551 C556 1.332 . S
C552 C553 1.386 . S
C552 C555 1.388 . S
C553 C552 1.386 . S
C553 C554 1.382 . S
C553 H579 0.950 . S
C554 N551 1.332 . S
C554 C553 1.382 . S
C554 H565 0.952 . S
C555 C552 1.388 . S
C555 C556 1.382 . S
C555 H580 0.950 . S
C556 N551 1.332 . S
C556 C555 1.382 . S
C556 H566 0.948 . S
N557 Co535 2.282 . S
N557 C561 1.332 . S
N557 C562 1.332 . S
C558 C559 1.388 . S
C558 C562 1.382 . S
C558 H581 0.950 . S
C559 C558 1.388 . S
C559 C560 1.386 . S
C560 C559 1.386 . S
C560 C561 1.382 . S
C560 H582 0.950 . S
C561 N557 1.332 . S
C561 C560 1.382 . S
C561 H563 0.952 . S
C562 N557 1.332 . S
C562 C558 1.382 . S
C562 H564 0.948 . S
H563 C561 0.952 . S
H564 C562 0.948 . S
H565 C554 0.952 . S
H566 C556 0.948 . S
C567 C533 1.395 . S
C567 C537 1.391 . S
C568 C530 1.389 . S
C568 C550 1.392 . S
C569 C540 1.392 . S
C569 C542 1.389 . S
C570 C545 1.395 . S
C570 C547 1.391 . S
H571 C531 0.951 . S
H572 C532 0.950 . S
H573 C538 0.949 . S
H574 C539 0.950 . S
H575 C543 0.951 . S
H576 C544 0.950 . S
H577 C548 0.949 . S
H578 C549 0.950 . S
H579 C553 0.950 . S
H580 C555 0.950 . S
H581 C558 0.950 . S
H582 C560 0.950 . S
C583 C584 1.443 . S
C583 N587 1.376 . S
C583 C621 1.389 . S
C584 C583 1.443 . S
C584 C585 1.340 . S
C584 H624 0.951 . S
C585 C584 1.340 . S
C585 C586 1.439 . S
C585 H625 0.950 . S
C586 C585 1.439 . S
C586 N587 1.374 . S
C586 C620 1.395 . S
N587 C583 1.376 . S
N587 C586 1.374 . S
N587 Co588 2.008 . S
Co588 N587 2.008 . S
Co588 N589 1.995 . S
Co588 N594 2.008 . S
Co588 N599 1.995 . S
Co588 N604 2.282 . S
Co588 N610 2.282 . S
N589 Co588 1.995 . S
N589 C590 1.376 . S
N589 C593 1.383 . S
C590 N589 1.376 . S
C590 C591 1.446 . S
C590 C620 1.391 . S
C591 C590 1.446 . S
C591 C592 1.339 . S
C591 H626 0.949 . S
C592 C591 1.339 . S
C592 C593 1.439 . S
C592 H627 0.950 . S
C593 N589 1.383 . S
C593 C592 1.439 . S
C593 C622 1.392 . S
N594 Co588 2.008 . S
N594 C595 1.376 . S
N594 C598 1.374 . S
C595 N594 1.376 . S
C595 C596 1.443 . S
C595 C622 1.389 . S
C596 C595 1.443 . S
C596 C597 1.340 . S
C596 H628 0.951 . S
C597 C596 1.340 . S
C597 C598 1.439 . S
C597 H629 0.950 . S
C598 N594 1.374 . S
C598 C597 1.439 . S
C598 C623 1.395 . S
N599 Co588 1.995 . S
N599 C600 1.376 . S
N599 C603 1.383 . S
C600 N599 1.376 . S
C600 C601 1.446 . S
C600 C623 1.391 . S
C601 C600 1.446 . S
C601 C602 1.339 . S
C601 H630 0.949 . S
C602 C601 1.339 . S
C602 C603 1.439 . S
C602 H631 0.950 . S
C603 N599 1.383 . S
C603 C602 1.439 . S
C603 C621 1.392 . S
N604 Co588 2.282 . S
N604 C607 1.332 . S
N604 C609 1.332 . S
C605 C606 1.386 . S
C605 C608 1.388 . S
C606 C605 1.386 . S
C606 C607 1.382 . S
C606 H632 0.950 . S
C607 N604 1.332 . S
C607 C606 1.382 . S
C607 H618 0.952 . S
C608 C605 1.388 . S
C608 C609 1.382 . S
C608 H633 0.950 . S
C609 N604 1.332 . S
C609 C608 1.382 . S
C609 H619 0.948 . S
N610 Co588 2.282 . S
N610 C614 1.332 . S
N610 C615 1.332 . S
C611 C612 1.388 . S
C611 C615 1.382 . S
C611 H634 0.950 . S
C612 C611 1.388 . S
C612 C613 1.386 . S
C613 C612 1.386 . S
C613 C614 1.382 . S
C613 H635 0.950 . S
C614 N610 1.332 . S
C614 C613 1.382 . S
C614 H616 0.952 . S
C615 N610 1.332 . S
C615 C611 1.382 . S
C615 H617 0.948 . S
H616 C614 0.952 . S
H617 C615 0.948 . S
H618 C607 0.952 . S
H619 C609 0.948 . S
C620 C586 1.395 . S
C620 C590 1.391 . S
C621 C583 1.389 . S
C621 C603 1.392 . S
C622 C593 1.392 . S
C622 C595 1.389 . S
C623 C598 1.395 . S
C623 C600 1.391 . S
H624 C584 0.951 . S
H625 C585 0.950 . S
H626 C591 0.949 . S
H627 C592 0.950 . S
H628 C596 0.951 . S
H629 C597 0.950 . S
H630 C601 0.949 . S
H631 C602 0.950 . S
H632 C606 0.950 . S
H633 C608 0.950 . S
H634 C611 0.950 . S
H635 C613 0.950 . S
C636 C637 1.443 . S
C636 N640 1.376 . S
C636 C674 1.389 . S
C637 C636 1.443 . S
C637 C638 1.340 . S
C637 H677 0.951 . S
C638 C637 1.340 . S
C638 C639 1.439 . S
C638 H678 0.950 . S
C639 C638 1.439 . S
C639 N640 1.374 . S
C639 C673 1.395 . S
N640 C636 1.376 . S
N640 C639 1.374 . S
N640 Co641 2.008 . S
Co641 N640 2.008 . S
Co641 N642 1.995 . S
Co641 N647 2.008 . S
Co641 N652 1.995 . S
Co641 N657 2.282 . S
Co641 N663 2.282 . S
N642 Co641 1.995 . S
N642 C643 1.376 . S
N642 C646 1.383 . S
C643 N642 1.376 . S
C643 C644 1.446 . S
C643 C673 1.391 . S
C644 C643 1.446 . S
C644 C645 1.339 . S
C644 H679 0.949 . S
C645 C644 1.339 . S
C645 C646 1.439 . S
C645 H680 0.950 . S
C646 N642 1.383 . S
C646 C645 1.439 . S
C646 C675 1.392 . S
N647 Co641 2.008 . S
N647 C648 1.376 . S
N647 C651 1.374 . S
C648 N647 1.376 . S
C648 C649 1.443 . S
C648 C675 1.389 . S
C649 C648 1.443 . S
C649 C650 1.340 . S
C649 H681 0.951 . S
C650 C649 1.340 . S
C650 C651 1.439 . S
C650 H682 0.950 . S
C651 N647 1.374 . S
C651 C650 1.439 . S
C651 C676 1.395 . S
N652 Co641 1.995 . S
N652 C653 1.376 . S
N652 C656 1.383 . S
C653 N652 1.376 . S
C653 C654 1.446 . S
C653 C676 1.391 . S
C654 C653 1.446 . S
C654 C655 1.339 . S
C654 H683 0.949 . S
C655 C654 1.339 . S
C655 C656 1.439 . S
C655 H684 0.950 . S
C656 N652 1.383 . S
C656 C655 1.439 . S
C656 C674 1.392 . S
N657 Co641 2.282 . S
N657 C660 1.332 . S
N657 C662 1.332 . S
C658 C659 1.386 . S
C658 C661 1.388 . S
C659 C658 1.386 . S
C659 C660 1.382 . S
C659 H685 0.950 . S
C660 N657 1.332 . S
C660 C659 1.382 . S
C660 H671 0.952 . S
C661 C658 1.388 . S
C661 C662 1.382 . S
C661 H686 0.950 . S
C662 N657 1.332 . S
C662 C661 1.382 . S
C662 H672 0.948 . S
N663 Co641 2.282 . S
N663 C667 1.332 . S
N663 C668 1.332 . S
C664 C665 1.388 . S
C664 C668 1.382 . S
C664 H687 0.950 . S
C665 C664 1.388 . S
C665 C666 1.386 . S
C666 C665 1.386 . S
C666 C667 1.382 . S
C666 H688 0.950 . S
C667 N663 1.332 . S
C667 C666 1.382 . S
C667 H669 0.952 . S
C668 N663 1.332 . S
C668 C664 1.382 . S
C668 H670 0.948 . S
H669 C667 0.952 . S
H670 C668 0.948 . S
H671 C660 0.952 . S
H672 C662 0.948 . S
C673 C639 1.395 . S
C673 C643 1.391 . S
C674 C636 1.389 . S
C674 C656 1.392 . S
C675 C646 1.392 . S
C675 C648 1.389 . S
C676 C651 1.395 . S
C676 C653 1.391 . S
H677 C637 0.951 . S
H678 C638 0.950 . S
H679 C644 0.949 . S
H680 C645 0.950 . S
H681 C649 0.951 . S
H682 C650 0.950 . S
H683 C654 0.949 . S
H684 C655 0.950 . S
H685 C659 0.950 . S
H686 C661 0.950 . S
H687 C664 0.950 . S
H688 C666 0.950 . S
C689 C690 1.443 . S
C689 N693 1.376 . S
C689 C727 1.389 . S
C690 C689 1.443 . S
C690 C691 1.340 . S
C690 H730 0.951 . S
C691 C690 1.340 . S
C691 C692 1.439 . S
C691 H731 0.950 . S
C692 C691 1.439 . S
C692 N693 1.374 . S
C692 C726 1.395 . S
N693 C689 1.376 . S
N693 C692 1.374 . S
N693 Co694 2.008 . S
Co694 N693 2.008 . S
Co694 N695 1.995 . S
Co694 N700 2.008 . S
Co694 N705 1.995 . S
Co694 N710 2.282 . S
Co694 N716 2.282 . S
N695 Co694 1.995 . S
N695 C696 1.376 . S
N695 C699 1.383 . S
C696 N695 1.376 . S
C696 C697 1.446 . S
C696 C726 1.391 . S
C697 C696 1.446 . S
C697 C698 1.339 . S
C697 H732 0.949 . S
C698 C697 1.339 . S
C698 C699 1.439 . S
C698 H733 0.950 . S
C699 N695 1.383 . S
C699 C698 1.439 . S
C699 C728 1.392 . S
N700 Co694 2.008 . S
N700 C701 1.376 . S
N700 C704 1.374 . S
C701 N700 1.376 . S
C701 C702 1.443 . S
C701 C728 1.389 . S
C702 C701 1.443 . S
C702 C703 1.340 . S
C702 H734 0.951 . S
C703 C702 1.340 . S
C703 C704 1.439 . S
C703 H735 0.950 . S
C704 N700 1.374 . S
C704 C703 1.439 . S
C704 C729 1.395 . S
N705 Co694 1.995 . S
N705 C706 1.376 . S
N705 C709 1.383 . S
C706 N705 1.376 . S
C706 C707 1.446 . S
C706 C729 1.391 . S
C707 C706 1.446 . S
C707 C708 1.339 . S
C707 H736 0.949 . S
C708 C707 1.339 . S
C708 C709 1.439 . S
C708 H737 0.950 . S
C709 N705 1.383 . S
C709 C708 1.439 . S
C709 C727 1.392 . S
N710 Co694 2.282 . S
N710 C713 1.332 . S
N710 C715 1.332 . S
C711 C712 1.386 . S
C711 C714 1.388 . S
C712 C711 1.386 . S
C712 C713 1.382 . S
C712 H738 0.950 . S
C713 N710 1.332 . S
C713 C712 1.382 . S
C713 H724 0.952 . S
C714 C711 1.388 . S
C714 C715 1.382 . S
C714 H739 0.950 . S
C715 N710 1.332 . S
C715 C714 1.382 . S
C715 H725 0.948 . S
N716 Co694 2.282 . S
N716 C720 1.332 . S
N716 C721 1.332 . S
C717 C718 1.388 . S
C717 C721 1.382 . S
C717 H740 0.950 . S
C718 C717 1.388 . S
C718 C719 1.386 . S
C719 C718 1.386 . S
C719 C720 1.382 . S
C719 H741 0.950 . S
C720 N716 1.332 . S
C720 C719 1.382 . S
C720 H722 0.952 . S
C721 N716 1.332 . S
C721 C717 1.382 . S
C721 H723 0.948 . S
H722 C720 0.952 . S
H723 C721 0.948 . S
H724 C713 0.952 . S
H725 C715 0.948 . S
C726 C692 1.395 . S
C726 C696 1.391 . S
C727 C689 1.389 . S
C727 C709 1.392 . S
C728 C699 1.392 . S
C728 C701 1.389 . S
C729 C704 1.395 . S
C729 C706 1.391 . S
H730 C690 0.951 . S
H731 C691 0.950 . S
H732 C697 0.949 . S
H733 C698 0.950 . S
H734 C702 0.951 . S
H735 C703 0.950 . S
H736 C707 0.949 . S
H737 C708 0.950 . S
H738 C712 0.950 . S
H739 C714 0.950 . S
H740 C717 0.950 . S
H741 C719 0.950 . S
C742 C743 1.443 . S
C742 N746 1.376 . S
C742 C780 1.389 . S
C743 C742 1.443 . S
C743 C744 1.340 . S
C743 H783 0.951 . S
C744 C743 1.340 . S
C744 C745 1.439 . S
C744 H784 0.950 . S
C745 C744 1.439 . S
C745 N746 1.374 . S
C745 C779 1.395 . S
N746 C742 1.376 . S
N746 C745 1.374 . S
N746 Co747 2.008 . S
Co747 N746 2.008 . S
Co747 N748 1.995 . S
Co747 N753 2.008 . S
Co747 N758 1.995 . S
Co747 N763 2.282 . S
Co747 N769 2.282 . S
N748 Co747 1.995 . S
N748 C749 1.376 . S
N748 C752 1.383 . S
C749 N748 1.376 . S
C749 C750 1.446 . S
C749 C779 1.391 . S
C750 C749 1.446 . S
C750 C751 1.339 . S
C750 H785 0.949 . S
C751 C750 1.339 . S
C751 C752 1.439 . S
C751 H786 0.950 . S
C752 N748 1.383 . S
C752 C751 1.439 . S
C752 C781 1.392 . S
N753 Co747 2.008 . S
N753 C754 1.376 . S
N753 C757 1.374 . S
C754 N753 1.376 . S
C754 C755 1.443 . S
C754 C781 1.389 . S
C755 C754 1.443 . S
C755 C756 1.340 . S
C755 H787 0.951 . S
C756 C755 1.340 . S
C756 C757 1.439 . S
C756 H788 0.950 . S
C757 N753 1.374 . S
C757 C756 1.439 . S
C757 C782 1.395 . S
N758 Co747 1.995 . S
N758 C759 1.376 . S
N758 C762 1.383 . S
C759 N758 1.376 . S
C759 C760 1.446 . S
C759 C782 1.391 . S
C760 C759 1.446 . S
C760 C761 1.339 . S
C760 H789 0.949 . S
C761 C760 1.339 . S
C761 C762 1.439 . S
C761 H790 0.950 . S
C762 N758 1.383 . S
C762 C761 1.439 . S
C762 C780 1.392 . S
N763 Co747 2.282 . S
N763 C766 1.332 . S
N763 C768 1.332 . S
C764 C765 1.386 . S
C764 C767 1.388 . S
C765 C764 1.386 . S
C765 C766 1.382 . S
C765 H791 0.950 . S
C766 N763 1.332 . S
C766 C765 1.382 . S
C766 H777 0.952 . S
C767 C764 1.388 . S
C767 C768 1.382 . S
C767 H792 0.950 . S
C768 N763 1.332 . S
C768 C767 1.382 . S
C768 H778 0.948 . S
N769 Co747 2.282 . S
N769 C773 1.332 . S
N769 C774 1.332 . S
C770 C771 1.388 . S
C770 C774 1.382 . S
C770 H793 0.950 . S
C771 C770 1.388 . S
C771 C772 1.386 . S
C772 C771 1.386 . S
C772 C773 1.382 . S
C772 H794 0.950 . S
C773 N769 1.332 . S
C773 C772 1.382 . S
C773 H775 0.952 . S
C774 N769 1.332 . S
C774 C770 1.382 . S
C774 H776 0.948 . S
H775 C773 0.952 . S
H776 C774 0.948 . S
H777 C766 0.952 . S
H778 C768 0.948 . S
C779 C745 1.395 . S
C779 C749 1.391 . S
C780 C742 1.389 . S
C780 C762 1.392 . S
C781 C752 1.392 . S
C781 C754 1.389 . S
C782 C757 1.395 . S
C782 C759 1.391 . S
H783 C743 0.951 . S
H784 C744 0.950 . S
H785 C750 0.949 . S
H786 C751 0.950 . S
H787 C755 0.951 . S
H788 C756 0.950 . S
H789 C760 0.949 . S
H790 C761 0.950 . S
H791 C765 0.950 . S
H792 C767 0.950 . S
H793 C770 0.950 . S
H794 C772 0.950 . S
C795 C796 1.443 . S
C795 N799 1.376 . S
C795 C833 1.389 . S
C796 C795 1.443 . S
C796 C797 1.340 . S
C796 H836 0.951 . S
C797 C796 1.340 . S
C797 C798 1.439 . S
C797 H837 0.950 . S
C798 C797 1.439 . S
C798 N799 1.374 . S
C798 C832 1.395 . S
N799 C795 1.376 . S
N799 C798 1.374 . S
N799 Co800 2.008 . S
Co800 N799 2.008 . S
Co800 N801 1.995 . S
Co800 N806 2.008 . S
Co800 N811 1.995 . S
Co800 N816 2.282 . S
Co800 N822 2.282 . S
N801 Co800 1.995 . S
N801 C802 1.376 . S
N801 C805 1.383 . S
C802 N801 1.376 . S
C802 C803 1.446 . S
C802 C832 1.391 . S
C803 C802 1.446 . S
C803 C804 1.339 . S
C803 H838 0.949 . S
C804 C803 1.339 . S
C804 C805 1.439 . S
C804 H839 0.950 . S
C805 N801 1.383 . S
C805 C804 1.439 . S
C805 C834 1.392 . S
N806 Co800 2.008 . S
N806 C807 1.376 . S
N806 C810 1.374 . S
C807 N806 1.376 . S
C807 C808 1.443 . S
C807 C834 1.389 . S
C808 C807 1.443 . S
C808 C809 1.340 . S
C808 H840 0.951 . S
C809 C808 1.340 . S
C809 C810 1.439 . S
C809 H841 0.950 . S
C810 N806 1.374 . S
C810 C809 1.439 . S
C810 C835 1.395 . S
N811 Co800 1.995 . S
N811 C812 1.376 . S
N811 C815 1.383 . S
C812 N811 1.376 . S
C812 C813 1.446 . S
C812 C835 1.391 . S
C813 C812 1.446 . S
C813 C814 1.339 . S
C813 H842 0.949 . S
C814 C813 1.339 . S
C814 C815 1.439 . S
C814 H843 0.950 . S
C815 N811 1.383 . S
C815 C814 1.439 . S
C815 C833 1.392 . S
N816 Co800 2.282 . S
N816 C819 1.332 . S
N816 C821 1.332 . S
C817 C818 1.386 . S
C817 C820 1.388 . S
C818 C817 1.386 . S
C818 C819 1.382 . S
C818 H844 0.950 . S
C819 N816 1.332 . S
C819 C818 1.382 . S
C819 H830 0.952 . S
C820 C817 1.388 . S
C820 C821 1.382 . S
C820 H845 0.950 . S
C821 N816 1.332 . S
C821 C820 1.382 . S
C821 H831 0.948 . S
N822 Co800 2.282 . S
N822 C826 1.332 . S
N822 C827 1.332 . S
C823 C824 1.388 . S
C823 C827 1.382 . S
C823 H846 0.950 . S
C824 C823 1.388 . S
C824 C825 1.386 . S
C825 C824 1.386 . S
C825 C826 1.382 . S
C825 H847 0.950 . S
C826 N822 1.332 . S
C826 C825 1.382 . S
C826 H828 0.952 . S
C827 N822 1.332 . S
C827 C823 1.382 . S
C827 H829 0.948 . S
H828 C826 0.952 . S
H829 C827 0.948 . S
H830 C819 0.952 . S
H831 C821 0.948 . S
C832 C798 1.395 . S
C832 C802 1.391 . S
C833 C795 1.389 . S
C833 C815 1.392 . S
C834 C805 1.392 . S
C834 C807 1.389 . S
C835 C810 1.395 . S
C835 C812 1.391 . S
H836 C796 0.951 . S
H837 C797 0.950 . S
H838 C803 0.949 . S
H839 C804 0.950 . S
H840 C808 0.951 . S
H841 C809 0.950 . S
H842 C813 0.949 . S
H843 C814 0.950 . S
H844 C818 0.950 . S
H845 C820 0.950 . S
H846 C823 0.950 . S
H847 C825 0.950 . S
C848 C849 1.443 . S
C848 N852 1.376 . S
C848 C886 1.389 . S
C849 C848 1.443 . S
C849 C850 1.340 . S
C849 H889 0.951 . S
C850 C849 1.340 . S
C850 C851 1.439 . S
C850 H890 0.950 . S
C851 C850 1.439 . S
C851 N852 1.374 . S
C851 C885 1.395 . S
N852 C848 1.376 . S
N852 C851 1.374 . S
N852 Co853 2.008 . S
Co853 N852 2.008 . S
Co853 N854 1.995 . S
Co853 N859 2.008 . S
Co853 N864 1.995 . S
Co853 N869 2.282 . S
Co853 N875 2.282 . S
N854 Co853 1.995 . S
N854 C855 1.376 . S
N854 C858 1.383 . S
C855 N854 1.376 . S
C855 C856 1.446 . S
C855 C885 1.391 . S
C856 C855 1.446 . S
C856 C857 1.339 . S
C856 H891 0.949 . S
C857 C856 1.339 . S
C857 C858 1.439 . S
C857 H892 0.950 . S
C858 N854 1.383 . S
C858 C857 1.439 . S
C858 C887 1.392 . S
N859 Co853 2.008 . S
N859 C860 1.376 . S
N859 C863 1.374 . S
C860 N859 1.376 . S
C860 C861 1.443 . S
C860 C887 1.389 . S
C861 C860 1.443 . S
C861 C862 1.340 . S
C861 H893 0.951 . S
C862 C861 1.340 . S
C862 C863 1.439 . S
C862 H894 0.950 . S
C863 N859 1.374 . S
C863 C862 1.439 . S
C863 C888 1.395 . S
N864 Co853 1.995 . S
N864 C865 1.376 . S
N864 C868 1.383 . S
C865 N864 1.376 . S
C865 C866 1.446 . S
C865 C888 1.391 . S
C866 C865 1.446 . S
C866 C867 1.339 . S
C866 H895 0.949 . S
C867 C866 1.339 . S
C867 C868 1.439 . S
C867 H896 0.950 . S
C868 N864 1.383 . S
C868 C867 1.439 . S
C868 C886 1.392 . S
N869 Co853 2.282 . S
N869 C872 1.332 . S
N869 C874 1.332 . S
C870 C871 1.386 . S
C870 C873 1.388 . S
C871 C870 1.386 . S
C871 C872 1.382 . S
C871 H897 0.950 . S
C872 N869 1.332 . S
C872 C871 1.382 . S
C872 H883 0.952 . S
C873 C870 1.388 . S
C873 C874 1.382 . S
C873 H898 0.950 . S
C874 N869 1.332 . S
C874 C873 1.382 . S
C874 H884 0.948 . S
N875 Co853 2.282 . S
N875 C879 1.332 . S
N875 C880 1.332 . S
C876 C877 1.388 . S
C876 C880 1.382 . S
C876 H899 0.950 . S
C877 C876 1.388 . S
C877 C878 1.386 . S
C878 C877 1.386 . S
C878 C879 1.382 . S
C878 H900 0.950 . S
C879 N875 1.332 . S
C879 C878 1.382 . S
C879 H881 0.952 . S
C880 N875 1.332 . S
C880 C876 1.382 . S
C880 H882 0.948 . S
H881 C879 0.952 . S
H882 C880 0.948 . S
H883 C872 0.952 . S
H884 C874 0.948 . S
C885 C851 1.395 . S
C885 C855 1.391 . S
C886 C848 1.389 . S
C886 C868 1.392 . S
C887 C858 1.392 . S
C887 C860 1.389 . S
C888 C863 1.395 . S
C888 C865 1.391 . S
H889 C849 0.951 . S
H890 C850 0.950 . S
H891 C856 0.949 . S
H892 C857 0.950 . S
H893 C861 0.951 . S
H894 C862 0.950 . S
H895 C866 0.949 . S
H896 C867 0.950 . S
H897 C871 0.950 . S
H898 C873 0.950 . S
H899 C876 0.950 . S
H900 C878 0.950 . S
C901 C902 1.443 . S
C901 N905 1.376 . S
C901 C939 1.389 . S
C902 C901 1.443 . S
C902 C903 1.340 . S
C902 H942 0.951 . S
C903 C902 1.340 . S
C903 C904 1.439 . S
C903 H943 0.950 . S
C904 C903 1.439 . S
C904 N905 1.374 . S
C904 C938 1.395 . S
N905 C901 1.376 . S
N905 C904 1.374 . S
N905 Co906 2.008 . S
Co906 N905 2.008 . S
Co906 N907 1.995 . S
Co906 N912 2.008 . S
Co906 N917 1.995 . S
Co906 N922 2.282 . S
Co906 N928 2.282 . S
N907 Co906 1.995 . S
N907 C908 1.376 . S
N907 C911 1.383 . S
C908 N907 1.376 . S
C908 C909 1.446 . S
C908 C938 1.391 . S
C909 C908 1.446 . S
C909 C910 1.339 . S
C909 H944 0.949 . S
C910 C909 1.339 . S
C910 C911 1.439 . S
C910 H945 0.950 . S
C911 N907 1.383 . S
C911 C910 1.439 . S
C911 C940 1.392 . S
N912 Co906 2.008 . S
N912 C913 1.376 . S
N912 C916 1.374 . S
C913 N912 1.376 . S
C913 C914 1.443 . S
C913 C940 1.389 . S
C914 C913 1.443 . S
C914 C915 1.340 . S
C914 H946 0.951 . S
C915 C914 1.340 . S
C915 C916 1.439 . S
C915 H947 0.950 . S
C916 N912 1.374 . S
C916 C915 1.439 . S
C916 C941 1.395 . S
N917 Co906 1.995 . S
N917 C918 1.376 . S
N917 C921 1.383 . S
C918 N917 1.376 . S
C918 C919 1.446 . S
C918 C941 1.391 . S
C919 C918 1.446 . S
C919 C920 1.339 . S
C919 H948 0.949 . S
C920 C919 1.339 . S
C920 C921 1.439 . S
C920 H949 0.950 . S
C921 N917 1.383 . S
C921 C920 1.439 . S
C921 C939 1.392 . S
N922 Co906 2.282 . S
N922 C925 1.332 . S
N922 C927 1.332 . S
C923 C924 1.386 . S
C923 C926 1.388 . S
C924 C923 1.386 . S
C924 C925 1.382 . S
C924 H950 0.950 . S
C925 N922 1.332 . S
C925 C924 1.382 . S
C925 H936 0.952 . S
C926 C923 1.388 . S
C926 C927 1.382 . S
C926 H951 0.950 . S
C927 N922 1.332 . S
C927 C926 1.382 . S
C927 H937 0.948 . S
N928 Co906 2.282 . S
N928 C932 1.332 . S
N928 C933 1.332 . S
C929 C930 1.388 . S
C929 C933 1.382 . S
C929 H952 0.950 . S
C930 C929 1.388 . S
C930 C931 1.386 . S
C931 C930 1.386 . S
C931 C932 1.382 . S
C931 H953 0.950 . S
C932 N928 1.332 . S
C932 C931 1.382 . S
C932 H934 0.952 . S
C933 N928 1.332 . S
C933 C929 1.382 . S
C933 H935 0.948 . S
H934 C932 0.952 . S
H935 C933 0.948 . S
H936 C925 0.952 . S
H937 C927 0.948 . S
C938 C904 1.395 . S
C938 C908 1.391 . S
C939 C901 1.389 . S
C939 C921 1.392 . S
C940 C911 1.392 . S
C940 C913 1.389 . S
C941 C916 1.395 . S
C941 C918 1.391 . S
H942 C902 0.951 . S
H943 C903 0.950 . S
H944 C909 0.949 . S
H945 C910 0.950 . S
H946 C914 0.951 . S
H947 C915 0.950 . S
H948 C919 0.949 . S
H949 C920 0.950 . S
H950 C924 0.950 . S
H951 C926 0.950 . S
H952 C929 0.950 . S
H953 C931 0.950 . S
C954 C955 1.443 . S
C954 N958 1.376 . S
C954 C992 1.389 . S
C955 C954 1.443 . S
C955 C956 1.340 . S
C955 H995 0.951 . S
C956 C955 1.340 . S
C956 C957 1.439 . S
C956 H996 0.950 . S
C957 C956 1.439 . S
C957 N958 1.374 . S
C957 C991 1.395 . S
N958 C954 1.376 . S
N958 C957 1.374 . S
N958 Co959 2.008 . S
Co959 N958 2.008 . S
Co959 N960 1.995 . S
Co959 N965 2.008 . S
Co959 N970 1.995 . S
Co959 N975 2.282 . S
Co959 N981 2.282 . S
N960 Co959 1.995 . S
N960 C961 1.376 . S
N960 C964 1.383 . S
C961 N960 1.376 . S
C961 C962 1.446 . S
C961 C991 1.391 . S
C962 C961 1.446 . S
C962 C963 1.339 . S
C962 H997 0.949 . S
C963 C962 1.339 . S
C963 C964 1.439 . S
C963 H998 0.950 . S
C964 N960 1.383 . S
C964 C963 1.439 . S
C964 C993 1.392 . S
N965 Co959 2.008 . S
N965 C966 1.376 . S
N965 C969 1.374 . S
C966 N965 1.376 . S
C966 C967 1.443 . S
C966 C993 1.389 . S
C967 C966 1.443 . S
C967 C968 1.340 . S
C967 H999 0.951 . S
C968 C967 1.340 . S
C968 C969 1.439 . S
C968 H1000 0.950 . S
C969 N965 1.374 . S
C969 C968 1.439 . S
C969 C994 1.395 . S
N970 Co959 1.995 . S
N970 C971 1.376 . S
N970 C974 1.383 . S
C971 N970 1.376 . S
C971 C972 1.446 . S
C971 C994 1.391 . S
C972 C971 1.446 . S
C972 C973 1.339 . S
C972 H1001 0.949 . S
C973 C972 1.339 . S
C973 C974 1.439 . S
C973 H1002 0.950 . S
C974 N970 1.383 . S
C974 C973 1.439 . S
C974 C992 1.392 . S
N975 Co959 2.282 . S
N975 C978 1.332 . S
N975 C980 1.332 . S
C976 C977 1.386 . S
C976 C979 1.388 . S
C977 C976 1.386 . S
C977 C978 1.382 . S
C977 H1003 0.950 . S
C978 N975 1.332 . S
C978 C977 1.382 . S
C978 H989 0.952 . S
C979 C976 1.388 . S
C979 C980 1.382 . S
C979 H1004 0.950 . S
C980 N975 1.332 . S
C980 C979 1.382 . S
C980 H990 0.948 . S
N981 Co959 2.282 . S
N981 C985 1.332 . S
N981 C986 1.332 . S
C982 C983 1.388 . S
C982 C986 1.382 . S
C982 H1005 0.950 . S
C983 C982 1.388 . S
C983 C984 1.386 . S
C984 C983 1.386 . S
C984 C985 1.382 . S
C984 H1006 0.950 . S
C985 N981 1.332 . S
C985 C984 1.382 . S
C985 H987 0.952 . S
C986 N981 1.332 . S
C986 C982 1.382 . S
C986 H988 0.948 . S
H987 C985 0.952 . S
H988 C986 0.948 . S
H989 C978 0.952 . S
H990 C980 0.948 . S
C991 C957 1.395 . S
C991 C961 1.391 . S
C992 C954 1.389 . S
C992 C974 1.392 . S
C993 C964 1.392 . S
C993 C966 1.389 . S
C994 C969 1.395 . S
C994 C971 1.391 . S
H995 C955 0.951 . S
H996 C956 0.950 . S
H997 C962 0.949 . S
H998 C963 0.950 . S
H999 C967 0.951 . S
H1000 C968 0.950 . S
H1001 C972 0.949 . S
H1002 C973 0.950 . S
H1003 C977 0.950 . S
H1004 C979 0.950 . S
H1005 C982 0.950 . S
H1006 C984 0.950 . S
C1007 C1008 1.443 . S
C1007 N1011 1.376 . S
C1007 C1045 1.389 . S
C1008 C1007 1.443 . S
C1008 C1009 1.340 . S
C1008 H1048 0.951 . S
C1009 C1008 1.340 . S
C1009 C1010 1.439 . S
C1009 H1049 0.950 . S
C1010 C1009 1.439 . S
C1010 N1011 1.374 . S
C1010 C1044 1.395 . S
N1011 C1007 1.376 . S
N1011 C1010 1.374 . S
N1011 Co1012 2.008 . S
Co1012 N1011 2.008 . S
Co1012 N1013 1.995 . S
Co1012 N1018 2.008 . S
Co1012 N1023 1.995 . S
Co1012 N1028 2.282 . S
Co1012 N1034 2.282 . S
N1013 Co1012 1.995 . S
N1013 C1014 1.376 . S
N1013 C1017 1.383 . S
C1014 N1013 1.376 . S
C1014 C1015 1.446 . S
C1014 C1044 1.391 . S
C1015 C1014 1.446 . S
C1015 C1016 1.339 . S
C1015 H1050 0.949 . S
C1016 C1015 1.339 . S
C1016 C1017 1.439 . S
C1016 H1051 0.950 . S
C1017 N1013 1.383 . S
C1017 C1016 1.439 . S
C1017 C1046 1.392 . S
N1018 Co1012 2.008 . S
N1018 C1019 1.376 . S
N1018 C1022 1.374 . S
C1019 N1018 1.376 . S
C1019 C1020 1.443 . S
C1019 C1046 1.389 . S
C1020 C1019 1.443 . S
C1020 C1021 1.340 . S
C1020 H1052 0.951 . S
C1021 C1020 1.340 . S
C1021 C1022 1.439 . S
C1021 H1053 0.950 . S
C1022 N1018 1.374 . S
C1022 C1021 1.439 . S
C1022 C1047 1.395 . S
N1023 Co1012 1.995 . S
N1023 C1024 1.376 . S
N1023 C1027 1.383 . S
C1024 N1023 1.376 . S
C1024 C1025 1.446 . S
C1024 C1047 1.391 . S
C1025 C1024 1.446 . S
C1025 C1026 1.339 . S
C1025 H1054 0.949 . S
C1026 C1025 1.339 . S
C1026 C1027 1.439 . S
C1026 H1055 0.950 . S
C1027 N1023 1.383 . S
C1027 C1026 1.439 . S
C1027 C1045 1.392 . S
N1028 Co1012 2.282 . S
N1028 C1031 1.332 . S
N1028 C1033 1.332 . S
C1029 C1030 1.386 . S
C1029 C1032 1.388 . S
C1030 C1029 1.386 . S
C1030 C1031 1.382 . S
C1030 H1056 0.950 . S
C1031 N1028 1.332 . S
C1031 C1030 1.382 . S
C1031 H1042 0.952 . S
C1032 C1029 1.388 . S
C1032 C1033 1.382 . S
C1032 H1057 0.950 . S
C1033 N1028 1.332 . S
C1033 C1032 1.382 . S
C1033 H1043 0.948 . S
N1034 Co1012 2.282 . S
N1034 C1038 1.332 . S
N1034 C1039 1.332 . S
C1035 C1036 1.388 . S
C1035 C1039 1.382 . S
C1035 H1058 0.950 . S
C1036 C1035 1.388 . S
C1036 C1037 1.386 . S
C1037 C1036 1.386 . S
C1037 C1038 1.382 . S
C1037 H1059 0.950 . S
C1038 N1034 1.332 . S
C1038 C1037 1.382 . S
C1038 H1040 0.952 . S
C1039 N1034 1.332 . S
C1039 C1035 1.382 . S
C1039 H1041 0.948 . S
H1040 C1038 0.952 . S
H1041 C1039 0.948 . S
H1042 C1031 0.952 . S
H1043 C1033 0.948 . S
C1044 C1010 1.395 . S
C1044 C1014 1.391 . S
C1045 C1007 1.389 . S
C1045 C1027 1.392 . S
C1046 C1017 1.392 . S
C1046 C1019 1.389 . S
C1047 C1022 1.395 . S
C1047 C1024 1.391 . S
H1048 C1008 0.951 . S
H1049 C1009 0.950 . S
H1050 C1015 0.949 . S
H1051 C1016 0.950 . S
H1052 C1020 0.951 . S
H1053 C1021 0.950 . S
H1054 C1025 0.949 . S
H1055 C1026 0.950 . S
H1056 C1030 0.950 . S
H1057 C1032 0.950 . S
H1058 C1035 0.950 . S
H1059 C1037 0.950 . S
C1060 C1061 1.443 . S
C1060 N1064 1.376 . S
C1060 C1098 1.389 . S
C1061 C1060 1.443 . S
C1061 C1062 1.340 . S
C1061 H1101 0.951 . S
C1062 C1061 1.340 . S
C1062 C1063 1.439 . S
C1062 H1102 0.950 . S
C1063 C1062 1.439 . S
C1063 N1064 1.374 . S
C1063 C1097 1.395 . S
N1064 C1060 1.376 . S
N1064 C1063 1.374 . S
N1064 Co1065 2.008 . S
Co1065 N1064 2.008 . S
Co1065 N1066 1.995 . S
Co1065 N1071 2.008 . S
Co1065 N1076 1.995 . S
Co1065 N1081 2.282 . S
Co1065 N1087 2.282 . S
N1066 Co1065 1.995 . S
N1066 C1067 1.376 . S
N1066 C1070 1.383 . S
C1067 N1066 1.376 . S
C1067 C1068 1.446 . S
C1067 C1097 1.391 . S
C1068 C1067 1.446 . S
C1068 C1069 1.339 . S
C1068 H1103 0.949 . S
C1069 C1068 1.339 . S
C1069 C1070 1.439 . S
C1069 H1104 0.950 . S
C1070 N1066 1.383 . S
C1070 C1069 1.439 . S
C1070 C1099 1.392 . S
N1071 Co1065 2.008 . S
N1071 C1072 1.376 . S
N1071 C1075 1.374 . S
C1072 N1071 1.376 . S
C1072 C1073 1.443 . S
C1072 C1099 1.389 . S
C1073 C1072 1.443 . S
C1073 C1074 1.340 . S
C1073 H1105 0.951 . S
C1074 C1073 1.340 . S
C1074 C1075 1.439 . S
C1074 H1106 0.950 . S
C1075 N1071 1.374 . S
C1075 C1074 1.439 . S
C1075 C1100 1.395 . S
N1076 Co1065 1.995 . S
N1076 C1077 1.376 . S
N1076 C1080 1.383 . S
C1077 N1076 1.376 . S
C1077 C1078 1.446 . S
C1077 C1100 1.391 . S
C1078 C1077 1.446 . S
C1078 C1079 1.339 . S
C1078 H1107 0.949 . S
C1079 C1078 1.339 . S
C1079 C1080 1.439 . S
C1079 H1108 0.950 . S
C1080 N1076 1.383 . S
C1080 C1079 1.439 . S
C1080 C1098 1.392 . S
N1081 Co1065 2.282 . S
N1081 C1084 1.332 . S
N1081 C1086 1.332 . S
C1082 C1083 1.386 . S
C1082 C1085 1.388 . S
C1083 C1082 1.386 . S
C1083 C1084 1.382 . S
C1083 H1109 0.950 . S
C1084 N1081 1.332 . S
C1084 C1083 1.382 . S
C1084 H1095 0.952 . S
C1085 C1082 1.388 . S
C1085 C1086 1.382 . S
C1085 H1110 0.950 . S
C1086 N1081 1.332 . S
C1086 C1085 1.382 . S
C1086 H1096 0.948 . S
N1087 Co1065 2.282 . S
N1087 C1091 1.332 . S
N1087 C1092 1.332 . S
C1088 C1089 1.388 . S
C1088 C1092 1.382 . S
C1088 H1111 0.950 . S
C1089 C1088 1.388 . S
C1089 C1090 1.386 . S
C1090 C1089 1.386 . S
C1090 C1091 1.382 . S
C1090 H1112 0.950 . S
C1091 N1087 1.332 . S
C1091 C1090 1.382 . S
C1091 H1093 0.952 . S
C1092 N1087 1.332 . S
C1092 C1088 1.382 . S
C1092 H1094 0.948 . S
H1093 C1091 0.952 . S
H1094 C1092 0.948 . S
H1095 C1084 0.952 . S
H1096 C1086 0.948 . S
C1097 C1063 1.395 . S
C1097 C1067 1.391 . S
C1098 C1060 1.389 . S
C1098 C1080 1.392 . S
C1099 C1070 1.392 . S
C1099 C1072 1.389 . S
C1100 C1075 1.395 . S
C1100 C1077 1.391 . S
H1101 C1061 0.951 . S
H1102 C1062 0.950 . S
H1103 C1068 0.949 . S
H1104 C1069 0.950 . S
H1105 C1073 0.951 . S
H1106 C1074 0.950 . S
H1107 C1078 0.949 . S
H1108 C1079 0.950 . S
H1109 C1083 0.950 . S
H1110 C1085 0.950 . S
H1111 C1088 0.950 . S
H1112 C1090 0.950 . S
C1113 C1114 1.443 . S
C1113 N1117 1.376 . S
C1113 C1151 1.389 . S
C1114 C1113 1.443 . S
C1114 C1115 1.340 . S
C1114 H1154 0.951 . S
C1115 C1114 1.340 . S
C1115 C1116 1.439 . S
C1115 H1155 0.950 . S
C1116 C1115 1.439 . S
C1116 N1117 1.374 . S
C1116 C1150 1.395 . S
N1117 C1113 1.376 . S
N1117 C1116 1.374 . S
N1117 Co1118 2.008 . S
Co1118 N1117 2.008 . S
Co1118 N1119 1.995 . S
Co1118 N1124 2.008 . S
Co1118 N1129 1.995 . S
Co1118 N1134 2.282 . S
Co1118 N1140 2.282 . S
N1119 Co1118 1.995 . S
N1119 C1120 1.376 . S
N1119 C1123 1.383 . S
C1120 N1119 1.376 . S
C1120 C1121 1.446 . S
C1120 C1150 1.391 . S
C1121 C1120 1.446 . S
C1121 C1122 1.339 . S
C1121 H1156 0.949 . S
C1122 C1121 1.339 . S
C1122 C1123 1.439 . S
C1122 H1157 0.950 . S
C1123 N1119 1.383 . S
C1123 C1122 1.439 . S
C1123 C1152 1.392 . S
N1124 Co1118 2.008 . S
N1124 C1125 1.376 . S
N1124 C1128 1.374 . S
C1125 N1124 1.376 . S
C1125 C1126 1.443 . S
C1125 C1152 1.389 . S
C1126 C1125 1.443 . S
C1126 C1127 1.340 . S
C1126 H1158 0.951 . S
C1127 C1126 1.340 . S
C1127 C1128 1.439 . S
C1127 H1159 0.950 . S
C1128 N1124 1.374 . S
C1128 C1127 1.439 . S
C1128 C1153 1.395 . S
N1129 Co1118 1.995 . S
N1129 C1130 1.376 . S
N1129 C1133 1.383 . S
C1130 N1129 1.376 . S
C1130 C1131 1.446 . S
C1130 C1153 1.391 . S
C1131 C1130 1.446 . S
C1131 C1132 1.339 . S
C1131 H1160 0.949 . S
C1132 C1131 1.339 . S
C1132 C1133 1.439 . S
C1132 H1161 0.950 . S
C1133 N1129 1.383 . S
C1133 C1132 1.439 . S
C1133 C1151 1.392 . S
N1134 Co1118 2.282 . S
N1134 C1137 1.332 . S
N1134 C1139 1.332 . S
C1135 C1136 1.386 . S
C1135 C1138 1.388 . S
C1136 C1135 1.386 . S
C1136 C1137 1.382 . S
C1136 H1162 0.950 . S
C1137 N1134 1.332 . S
C1137 C1136 1.382 . S
C1137 H1148 0.952 . S
C1138 C1135 1.388 . S
C1138 C1139 1.382 . S
C1138 H1163 0.950 . S
C1139 N1134 1.332 . S
C1139 C1138 1.382 . S
C1139 H1149 0.948 . S
N1140 Co1118 2.282 . S
N1140 C1144 1.332 . S
N1140 C1145 1.332 . S
C1141 C1142 1.388 . S
C1141 C1145 1.382 . S
C1141 H1164 0.950 . S
C1142 C1141 1.388 . S
C1142 C1143 1.386 . S
C1143 C1142 1.386 . S
C1143 C1144 1.382 . S
C1143 H1165 0.950 . S
C1144 N1140 1.332 . S
C1144 C1143 1.382 . S
C1144 H1146 0.952 . S
C1145 N1140 1.332 . S
C1145 C1141 1.382 . S
C1145 H1147 0.948 . S
H1146 C1144 0.952 . S
H1147 C1145 0.948 . S
H1148 C1137 0.952 . S
H1149 C1139 0.948 . S
C1150 C1116 1.395 . S
C1150 C1120 1.391 . S
C1151 C1113 1.389 . S
C1151 C1133 1.392 . S
C1152 C1123 1.392 . S
C1152 C1125 1.389 . S
C1153 C1128 1.395 . S
C1153 C1130 1.391 . S
H1154 C1114 0.951 . S
H1155 C1115 0.950 . S
H1156 C1121 0.949 . S
H1157 C1122 0.950 . S
H1158 C1126 0.951 . S
H1159 C1127 0.950 . S
H1160 C1131 0.949 . S
H1161 C1132 0.950 . S
H1162 C1136 0.950 . S
H1163 C1138 0.950 . S
H1164 C1141 0.950 . S
H1165 C1143 0.950 . S
C1166 C1167 1.443 . S
C1166 N1170 1.376 . S
C1166 C1204 1.389 . S
C1167 C1166 1.443 . S
C1167 C1168 1.340 . S
C1167 H1207 0.951 . S
C1168 C1167 1.340 . S
C1168 C1169 1.439 . S
C1168 H1208 0.950 . S
C1169 C1168 1.439 . S
C1169 N1170 1.374 . S
C1169 C1203 1.395 . S
N1170 C1166 1.376 . S
N1170 C1169 1.374 . S
N1170 Co1171 2.008 . S
Co1171 N1170 2.008 . S
Co1171 N1172 1.995 . S
Co1171 N1177 2.008 . S
Co1171 N1182 1.995 . S
Co1171 N1187 2.282 . S
Co1171 N1193 2.282 . S
N1172 Co1171 1.995 . S
N1172 C1173 1.376 . S
N1172 C1176 1.383 . S
C1173 N1172 1.376 . S
C1173 C1174 1.446 . S
C1173 C1203 1.391 . S
C1174 C1173 1.446 . S
C1174 C1175 1.339 . S
C1174 H1209 0.949 . S
C1175 C1174 1.339 . S
C1175 C1176 1.439 . S
C1175 H1210 0.950 . S
C1176 N1172 1.383 . S
C1176 C1175 1.439 . S
C1176 C1205 1.392 . S
N1177 Co1171 2.008 . S
N1177 C1178 1.376 . S
N1177 C1181 1.374 . S
C1178 N1177 1.376 . S
C1178 C1179 1.443 . S
C1178 C1205 1.389 . S
C1179 C1178 1.443 . S
C1179 C1180 1.340 . S
C1179 H1211 0.951 . S
C1180 C1179 1.340 . S
C1180 C1181 1.439 . S
C1180 H1212 0.950 . S
C1181 N1177 1.374 . S
C1181 C1180 1.439 . S
C1181 C1206 1.395 . S
N1182 Co1171 1.995 . S
N1182 C1183 1.376 . S
N1182 C1186 1.383 . S
C1183 N1182 1.376 . S
C1183 C1184 1.446 . S
C1183 C1206 1.391 . S
C1184 C1183 1.446 . S
C1184 C1185 1.339 . S
C1184 H1213 0.949 . S
C1185 C1184 1.339 . S
C1185 C1186 1.439 . S
C1185 H1214 0.950 . S
C1186 N1182 1.383 . S
C1186 C1185 1.439 . S
C1186 C1204 1.392 . S
N1187 Co1171 2.282 . S
N1187 C1190 1.332 . S
N1187 C1192 1.332 . S
C1188 C1189 1.386 . S
C1188 C1191 1.388 . S
C1189 C1188 1.386 . S
C1189 C1190 1.382 . S
C1189 H1215 0.950 . S
C1190 N1187 1.332 . S
C1190 C1189 1.382 . S
C1190 H1201 0.952 . S
C1191 C1188 1.388 . S
C1191 C1192 1.382 . S
C1191 H1216 0.950 . S
C1192 N1187 1.332 . S
C1192 C1191 1.382 . S
C1192 H1202 0.948 . S
N1193 Co1171 2.282 . S
N1193 C1197 1.332 . S
N1193 C1198 1.332 . S
C1194 C1195 1.388 . S
C1194 C1198 1.382 . S
C1194 H1217 0.950 . S
C1195 C1194 1.388 . S
C1195 C1196 1.386 . S
C1196 C1195 1.386 . S
C1196 C1197 1.382 . S
C1196 H1218 0.950 . S
C1197 N1193 1.332 . S
C1197 C1196 1.382 . S
C1197 H1199 0.952 . S
C1198 N1193 1.332 . S
C1198 C1194 1.382 . S
C1198 H1200 0.948 . S
H1199 C1197 0.952 . S
H1200 C1198 0.948 . S
H1201 C1190 0.952 . S
H1202 C1192 0.948 . S
C1203 C1169 1.395 . S
C1203 C1173 1.391 . S
C1204 C1166 1.389 . S
C1204 C1186 1.392 . S
C1205 C1176 1.392 . S
C1205 C1178 1.389 . S
C1206 C1181 1.395 . S
C1206 C1183 1.391 . S
H1207 C1167 0.951 . S
H1208 C1168 0.950 . S
H1209 C1174 0.949 . S
H1210 C1175 0.950 . S
H1211 C1179 0.951 . S
H1212 C1180 0.950 . S
H1213 C1184 0.949 . S
H1214 C1185 0.950 . S
H1215 C1189 0.950 . S
H1216 C1191 0.950 . S
H1217 C1194 0.950 . S
H1218 C1196 0.950 . S
C1219 C1220 1.443 . S
C1219 N1223 1.376 . S
C1219 C1257 1.389 . S
C1220 C1219 1.443 . S
C1220 C1221 1.340 . S
C1220 H1260 0.951 . S
C1221 C1220 1.340 . S
C1221 C1222 1.439 . S
C1221 H1261 0.950 . S
C1222 C1221 1.439 . S
C1222 N1223 1.374 . S
C1222 C1256 1.395 . S
N1223 C1219 1.376 . S
N1223 C1222 1.374 . S
N1223 Co1224 2.008 . S
Co1224 N1223 2.008 . S
Co1224 N1225 1.995 . S
Co1224 N1230 2.008 . S
Co1224 N1235 1.995 . S
Co1224 N1240 2.282 . S
Co1224 N1246 2.282 . S
N1225 Co1224 1.995 . S
N1225 C1226 1.376 . S
N1225 C1229 1.383 . S
C1226 N1225 1.376 . S
C1226 C1227 1.446 . S
C1226 C1256 1.391 . S
C1227 C1226 1.446 . S
C1227 C1228 1.339 . S
C1227 H1262 0.949 . S
C1228 C1227 1.339 . S
C1228 C1229 1.439 . S
C1228 H1263 0.950 . S
C1229 N1225 1.383 . S
C1229 C1228 1.439 . S
C1229 C1258 1.392 . S
N1230 Co1224 2.008 . S
N1230 C1231 1.376 . S
N1230 C1234 1.374 . S
C1231 N1230 1.376 . S
C1231 C1232 1.443 . S
C1231 C1258 1.389 . S
C1232 C1231 1.443 . S
C1232 C1233 1.340 . S
C1232 H1264 0.951 . S
C1233 C1232 1.340 . S
C1233 C1234 1.439 . S
C1233 H1265 0.950 . S
C1234 N1230 1.374 . S
C1234 C1233 1.439 . S
C1234 C1259 1.395 . S
N1235 Co1224 1.995 . S
N1235 C1236 1.376 . S
N1235 C1239 1.383 . S
C1236 N1235 1.376 . S
C1236 C1237 1.446 . S
C1236 C1259 1.391 . S
C1237 C1236 1.446 . S
C1237 C1238 1.339 . S
C1237 H1266 0.949 . S
C1238 C1237 1.339 . S
C1238 C1239 1.439 . S
C1238 H1267 0.950 . S
C1239 N1235 1.383 . S
C1239 C1238 1.439 . S
C1239 C1257 1.392 . S
N1240 Co1224 2.282 . S
N1240 C1243 1.332 . S
N1240 C1245 1.332 . S
C1241 C1242 1.386 . S
C1241 C1244 1.388 . S
C1242 C1241 1.386 . S
C1242 C1243 1.382 . S
C1242 H1268 0.950 . S
C1243 N1240 1.332 . S
C1243 C1242 1.382 . S
C1243 H1254 0.952 . S
C1244 C1241 1.388 . S
C1244 C1245 1.382 . S
C1244 H1269 0.950 . S
C1245 N1240 1.332 . S
C1245 C1244 1.382 . S
C1245 H1255 0.948 . S
N1246 Co1224 2.282 . S
N1246 C1250 1.332 . S
N1246 C1251 1.332 . S
C1247 C1248 1.388 . S
C1247 C1251 1.382 . S
C1247 H1270 0.950 . S
C1248 C1247 1.388 . S
C1248 C1249 1.386 . S
C1249 C1248 1.386 . S
C1249 C1250 1.382 . S
C1249 H1271 0.950 . S
C1250 N1246 1.332 . S
C1250 C1249 1.382 . S
C1250 H1252 0.952 . S
C1251 N1246 1.332 . S
C1251 C1247 1.382 . S
C1251 H1253 0.948 . S
H1252 C1250 0.952 . S
H1253 C1251 0.948 . S
H1254 C1243 0.952 . S
H1255 C1245 0.948 . S
C1256 C1222 1.395 . S
C1256 C1226 1.391 . S
C1257 C1219 1.389 . S
C1257 C1239 1.392 . S
C1258 C1229 1.392 . S
C1258 C1231 1.389 . S
C1259 C1234 1.395 . S
C1259 C1236 1.391 . S
H1260 C1220 0.951 . S
H1261 C1221 0.950 . S
H1262 C1227 0.949 . S
H1263 C1228 0.950 . S
H1264 C1232 0.951 . S
H1265 C1233 0.950 . S
H1266 C1237 0.949 . S
H1267 C1238 0.950 . S
H1268 C1242 0.950 . S
H1269 C1244 0.950 . S
H1270 C1247 0.950 . S
H1271 C1249 0.950 . S
C1272 C1273 1.349 . S
C1272 C1274 1.327 . S
C1272 H1297 0.950 . S
C1273 C1272 1.349 . S
C1273 C1289 1.349 . S
C1274 C1272 1.327 . S
C1274 C1293 1.429 . S
C1274 H1298 0.950 . S
C1275 C1292 1.574 . S
C1275 C1294 1.368 . S
C1275 H1299 0.949 . S
H1276 C1280 0.949 . S
C1277 C1278 1.349 . S
C1277 C1279 1.327 . S
C1277 H1300 0.950 . S
C1278 C1277 1.349 . S
C1278 C1290 1.349 . S
C1279 C1277 1.327 . S
C1279 C1295 1.429 . S
C1279 H1301 0.950 . S
C1280 H1276 0.949 . S
C1280 C1288 1.574 . S
C1280 C1296 1.368 . S
H1281 C1289 0.950 . S
H1282 C1287 0.950 . S
H1283 C1288 0.949 . S
H1284 C1290 0.950 . S
H1285 C1291 0.950 . S
H1286 C1292 0.949 . S
C1287 H1282 0.950 . S
C1287 C1289 1.327 . S
C1287 C1293 1.429 . S
C1288 C1280 1.574 . S
C1288 H1283 0.949 . S
C1288 C1294 1.368 . S
C1289 C1273 1.349 . S
C1289 H1281 0.950 . S
C1289 C1287 1.327 . S
C1290 C1278 1.349 . S
C1290 H1284 0.950 . S
C1290 C1291 1.327 . S
C1291 H1285 0.950 . S
C1291 C1290 1.327 . S
C1291 C1295 1.429 . S
C1292 C1275 1.574 . S
C1292 H1286 0.949 . S
C1292 C1296 1.368 . S
C1293 C1274 1.429 . S
C1293 C1287 1.429 . S
C1293 C1294 1.523 . S
C1294 C1275 1.368 . S
C1294 C1288 1.368 . S
C1294 C1293 1.523 . S
C1295 C1279 1.429 . S
C1295 C1291 1.429 . S
C1295 C1296 1.523 . S
C1296 C1280 1.368 . S
C1296 C1292 1.368 . S
C1296 C1295 1.523 . S
H1297 C1272 0.950 . S
H1298 C1274 0.950 . S
H1299 C1275 0.949 . S
H1300 C1277 0.950 . S
H1301 C1279 0.950 . S
C1302 C1303 1.349 . S
C1302 C1304 1.327 . S
C1302 H1327 0.950 . S
C1303 C1302 1.349 . S
C1303 C1319 1.349 . S
C1304 C1302 1.327 . S
C1304 C1323 1.429 . S
C1304 H1328 0.950 . S
C1305 C1322 1.574 . S
C1305 C1324 1.368 . S
C1305 H1329 0.949 . S
H1306 C1310 0.949 . S
C1307 C1308 1.349 . S
C1307 C1309 1.327 . S
C1307 H1330 0.950 . S
C1308 C1307 1.349 . S
C1308 C1320 1.349 . S
C1309 C1307 1.327 . S
C1309 C1325 1.429 . S
C1309 H1331 0.950 . S
C1310 H1306 0.949 . S
C1310 C1318 1.574 1_455 S
C1310 C1326 1.368 . S
H1311 C1319 0.950 . S
H1312 C1317 0.950 . S
H1313 C1318 0.948 . S
H1314 C1320 0.950 . S
H1315 C1321 0.950 . S
H1316 C1322 0.949 . S
C1317 H1312 0.950 . S
C1317 C1319 1.327 . S
C1317 C1323 1.429 . S
C1318 C1310 1.574 1_655 S
C1318 H1313 0.948 . S
C1318 C1324 1.368 . S
C1319 C1303 1.349 . S
C1319 H1311 0.950 . S
C1319 C1317 1.327 . S
C1320 C1308 1.349 . S
C1320 H1314 0.950 . S
C1320 C1321 1.327 . S
C1321 H1315 0.950 . S
C1321 C1320 1.327 . S
C1321 C1325 1.429 . S
C1322 C1305 1.574 . S
C1322 H1316 0.949 . S
C1322 C1326 1.368 1_655 S
C1323 C1304 1.429 . S
C1323 C1317 1.429 . S
C1323 C1324 1.523 . S
C1324 C1305 1.368 . S
C1324 C1318 1.368 . S
C1324 C1323 1.523 . S
C1325 C1309 1.429 . S
C1325 C1321 1.429 . S
C1325 C1326 1.523 . S
C1326 C1310 1.368 . S
C1326 C1322 1.368 1_455 S
C1326 C1325 1.523 . S
H1327 C1302 0.950 . S
H1328 C1304 0.950 . S
H1329 C1305 0.949 . S
H1330 C1307 0.950 . S
H1331 C1309 0.950 . S
C1332 C1333 1.349 . S
C1332 C1334 1.327 . S
C1332 H1357 0.950 . S
C1333 C1332 1.349 . S
C1333 C1349 1.349 . S
C1334 C1332 1.327 . S
C1334 C1353 1.429 . S
C1334 H1358 0.950 . S
C1335 C1352 1.574 . S
C1335 C1354 1.368 . S
C1335 H1359 0.949 . S
H1336 C1340 0.949 . S
C1337 C1338 1.349 . S
C1337 C1339 1.327 . S
C1337 H1360 0.950 . S
C1338 C1337 1.349 . S
C1338 C1350 1.349 . S
C1339 C1337 1.327 . S
C1339 C1355 1.429 . S
C1339 H1361 0.950 . S
C1340 H1336 0.949 . S
C1340 C1348 1.574 . S
C1340 C1356 1.368 . S
H1341 C1349 0.950 . S
H1342 C1347 0.950 . S
H1343 C1348 0.949 . S
H1344 C1350 0.950 . S
H1345 C1351 0.950 1_554 S
H1346 C1352 0.949 1_556 S
C1347 H1342 0.950 . S
C1347 C1349 1.327 . S
C1347 C1353 1.429 . S
C1348 C1340 1.574 . S
C1348 H1343 0.949 . S
C1348 C1354 1.368 . S
C1349 C1333 1.349 . S
C1349 H1341 0.950 . S
C1349 C1347 1.327 . S
C1350 C1338 1.349 . S
C1350 H1344 0.950 . S
C1350 C1351 1.327 . S
C1351 H1345 0.950 1_556 S
C1351 C1350 1.327 . S
C1351 C1355 1.429 . S
C1352 C1335 1.574 . S
C1352 H1346 0.949 1_554 S
C1352 C1356 1.368 . S
C1353 C1334 1.429 . S
C1353 C1347 1.429 . S
C1353 C1354 1.523 . S
C1354 C1335 1.368 . S
C1354 C1348 1.368 . S
C1354 C1353 1.523 . S
C1355 C1339 1.429 . S
C1355 C1351 1.429 . S
C1355 C1356 1.523 1_556 S
C1356 C1340 1.368 . S
C1356 C1352 1.368 . S
C1356 C1355 1.523 1_554 S
H1357 C1332 0.950 . S
H1358 C1334 0.950 . S
H1359 C1335 0.949 . S
H1360 C1337 0.950 . S
H1361 C1339 0.950 . S
C1362 C1363 1.349 . S
C1362 C1364 1.327 . S
C1362 H1387 0.950 . S
C1363 C1362 1.349 . S
C1363 C1379 1.349 . S
C1364 C1362 1.327 . S
C1364 C1383 1.429 . S
C1364 H1388 0.950 . S
C1365 C1382 1.574 . S
C1365 C1384 1.368 . S
C1365 H1389 0.949 . S
H1366 C1370 0.949 . S
C1367 C1368 1.349 . S
C1367 C1369 1.327 . S
C1367 H1390 0.950 . S
C1368 C1367 1.349 . S
C1368 C1380 1.349 . S
C1369 C1367 1.327 . S
C1369 C1385 1.429 . S
C1369 H1391 0.950 . S
C1370 H1366 0.949 . S
C1370 C1378 1.574 . S
C1370 C1386 1.368 . S
H1371 C1379 0.950 . S
H1372 C1377 0.950 . S
H1373 C1378 0.949 . S
H1374 C1380 0.950 . S
H1375 C1381 0.950 . S
H1376 C1382 0.949 . S
C1377 H1372 0.950 . S
C1377 C1379 1.327 . S
C1377 C1383 1.429 . S
C1378 C1370 1.574 . S
C1378 H1373 0.949 . S
C1378 C1384 1.368 . S
C1379 C1363 1.349 . S
C1379 H1371 0.950 . S
C1379 C1377 1.327 . S
C1380 C1368 1.349 . S
C1380 H1374 0.950 . S
C1380 C1381 1.327 . S
C1381 H1375 0.950 . S
C1381 C1380 1.327 . S
C1381 C1385 1.429 . S
C1382 C1365 1.574 . S
C1382 H1376 0.949 . S
C1382 C1386 1.368 . S
C1383 C1364 1.429 . S
C1383 C1377 1.429 . S
C1383 C1384 1.523 . S
C1384 C1365 1.368 . S
C1384 C1378 1.368 . S
C1384 C1383 1.523 . S
C1385 C1369 1.429 . S
C1385 C1381 1.429 . S
C1385 C1386 1.523 . S
C1386 C1370 1.368 . S
C1386 C1382 1.368 . S
C1386 C1385 1.523 . S
H1387 C1362 0.950 . S
H1388 C1364 0.950 . S
H1389 C1365 0.949 . S
H1390 C1367 0.950 . S
H1391 C1369 0.950 . S
C1392 C1393 1.349 . S
C1392 C1394 1.327 . S
C1392 H1417 0.950 . S
C1393 C1392 1.349 . S
C1393 C1409 1.349 . S
C1394 C1392 1.327 . S
C1394 C1413 1.429 . S
C1394 H1418 0.950 . S
C1395 C1412 1.574 . S
C1395 C1414 1.368 . S
C1395 H1419 0.949 . S
H1396 C1400 0.949 . S
C1397 C1398 1.349 . S
C1397 C1399 1.327 . S
C1397 H1420 0.950 . S
C1398 C1397 1.349 . S
C1398 C1410 1.349 . S
C1399 C1397 1.327 . S
C1399 C1415 1.429 . S
C1399 H1421 0.950 . S
C1400 H1396 0.949 . S
C1400 C1408 1.574 . S
C1400 C1416 1.368 . S
H1401 C1409 0.950 . S
H1402 C1407 0.950 . S
H1403 C1408 0.949 . S
H1404 C1410 0.950 . S
H1405 C1411 0.950 . S
H1406 C1412 0.949 . S
C1407 H1402 0.950 . S
C1407 C1409 1.327 . S
C1407 C1413 1.429 . S
C1408 C1400 1.574 . S
C1408 H1403 0.949 . S
C1408 C1414 1.368 1_554 S
C1409 C1393 1.349 . S
C1409 H1401 0.950 . S
C1409 C1407 1.327 . S
C1410 C1398 1.349 . S
C1410 H1404 0.950 . S
C1410 C1411 1.327 . S
C1411 H1405 0.950 . S
C1411 C1410 1.327 . S
C1411 C1415 1.429 . S
C1412 C1395 1.574 . S
C1412 H1406 0.949 . S
C1412 C1416 1.368 1_556 S
C1413 C1394 1.429 . S
C1413 C1407 1.429 . S
C1413 C1414 1.523 . S
C1414 C1395 1.368 . S
C1414 C1408 1.368 1_556 S
C1414 C1413 1.523 . S
C1415 C1399 1.429 . S
C1415 C1411 1.429 . S
C1415 C1416 1.523 . S
C1416 C1400 1.368 . S
C1416 C1412 1.368 1_554 S
C1416 C1415 1.523 . S
H1417 C1392 0.950 . S
H1418 C1394 0.950 . S
H1419 C1395 0.949 . S
H1420 C1397 0.950 . S
H1421 C1399 0.950 . S
C1422 C1423 1.349 . S
C1422 C1424 1.327 . S
C1422 H1447 0.950 . S
C1423 C1422 1.349 . S
C1423 C1439 1.349 . S
C1424 C1422 1.327 . S
C1424 C1443 1.429 . S
C1424 H1448 0.950 . S
C1425 C1442 1.574 . S
C1425 C1444 1.368 . S
C1425 H1449 0.949 . S
H1426 C1430 0.949 . S
C1427 C1428 1.349 . S
C1427 C1429 1.327 . S
C1427 H1450 0.950 . S
C1428 C1427 1.349 . S
C1428 C1440 1.349 . S
C1429 C1427 1.327 . S
C1429 C1445 1.429 . S
C1429 H1451 0.950 . S
C1430 H1426 0.949 . S
C1430 C1438 1.574 . S
C1430 C1446 1.368 . S
H1431 C1439 0.950 . S
H1432 C1437 0.950 . S
H1433 C1438 0.949 . S
H1434 C1440 0.950 . S
H1435 C1441 0.950 . S
H1436 C1442 0.949 . S
C1437 H1432 0.950 . S
C1437 C1439 1.327 . S
C1437 C1443 1.429 . S
C1438 C1430 1.574 . S
C1438 H1433 0.949 . S
C1438 C1444 1.368 . S
C1439 C1423 1.349 . S
C1439 H1431 0.950 . S
C1439 C1437 1.327 . S
C1440 C1428 1.349 . S
C1440 H1434 0.950 . S
C1440 C1441 1.327 . S
C1441 H1435 0.950 . S
C1441 C1440 1.327 . S
C1441 C1445 1.429 . S
C1442 C1425 1.574 . S
C1442 H1436 0.949 . S
C1442 C1446 1.368 . S
C1443 C1424 1.429 . S
C1443 C1437 1.429 . S
C1443 C1444 1.523 . S
C1444 C1425 1.368 . S
C1444 C1438 1.368 . S
C1444 C1443 1.523 . S
C1445 C1429 1.429 . S
C1445 C1441 1.429 . S
C1445 C1446 1.523 . S
C1446 C1430 1.368 . S
C1446 C1442 1.368 . S
C1446 C1445 1.523 . S
H1447 C1422 0.950 . S
H1448 C1424 0.950 . S
H1449 C1425 0.949 . S
H1450 C1427 0.950 . S
H1451 C1429 0.950 . S
C1452 C1453 1.349 . S
C1452 C1454 1.327 . S
C1452 H1477 0.950 . S
C1453 C1452 1.349 . S
C1453 C1469 1.349 . S
C1454 C1452 1.327 . S
C1454 C1473 1.429 . S
C1454 H1478 0.950 . S
C1455 C1472 1.574 . S
C1455 C1474 1.368 . S
C1455 H1479 0.949 . S
H1456 C1460 0.949 . S
C1457 C1458 1.349 . S
C1457 C1459 1.327 . S
C1457 H1480 0.950 . S
C1458 C1457 1.349 . S
C1458 C1470 1.349 . S
C1459 C1457 1.327 . S
C1459 C1475 1.429 . S
C1459 H1481 0.950 . S
C1460 H1456 0.949 . S
C1460 C1468 1.574 . S
C1460 C1476 1.368 . S
H1461 C1469 0.950 . S
H1462 C1467 0.950 . S
H1463 C1468 0.949 . S
H1464 C1470 0.950 . S
H1465 C1471 0.950 . S
H1466 C1472 0.949 . S
C1467 H1462 0.950 . S
C1467 C1469 1.327 . S
C1467 C1473 1.429 . S
C1468 C1460 1.574 . S
C1468 H1463 0.949 . S
C1468 C1474 1.368 . S
C1469 C1453 1.349 . S
C1469 H1461 0.950 . S
C1469 C1467 1.327 . S
C1470 C1458 1.349 . S
C1470 H1464 0.950 . S
C1470 C1471 1.327 . S
C1471 H1465 0.950 . S
C1471 C1470 1.327 . S
C1471 C1475 1.429 . S
C1472 C1455 1.574 . S
C1472 H1466 0.949 . S
C1472 C1476 1.368 . S
C1473 C1454 1.429 . S
C1473 C1467 1.429 . S
C1473 C1474 1.523 . S
C1474 C1455 1.368 . S
C1474 C1468 1.368 . S
C1474 C1473 1.523 . S
C1475 C1459 1.429 . S
C1475 C1471 1.429 . S
C1475 C1476 1.523 . S
C1476 C1460 1.368 . S
C1476 C1472 1.368 . S
C1476 C1475 1.523 . S
H1477 C1452 0.950 . S
H1478 C1454 0.950 . S
H1479 C1455 0.949 . S
H1480 C1457 0.950 . S
H1481 C1459 0.950 . S
C1482 C1483 1.349 . S
C1482 C1484 1.327 . S
C1482 H1507 0.950 . S
C1483 C1482 1.349 . S
C1483 C1499 1.349 . S
C1484 C1482 1.327 . S
C1484 C1503 1.429 . S
C1484 H1508 0.950 . S
C1485 C1502 1.574 1_455 S
C1485 C1504 1.368 . S
C1485 H1509 0.949 . S
H1486 C1490 0.949 . S
C1487 C1488 1.349 . S
C1487 C1489 1.327 . S
C1487 H1510 0.950 . S
C1488 C1487 1.349 . S
C1488 C1500 1.349 . S
C1489 C1487 1.327 . S
C1489 C1505 1.429 . S
C1489 H1511 0.950 . S
C1490 H1486 0.949 . S
C1490 C1498 1.574 . S
C1490 C1506 1.368 1_455 S
H1491 C1499 0.950 . S
H1492 C1497 0.950 . S
H1493 C1498 0.949 . S
H1494 C1500 0.950 . S
H1495 C1501 0.950 . S
H1496 C1502 0.949 . S
C1497 H1492 0.950 . S
C1497 C1499 1.327 . S
C1497 C1503 1.429 . S
C1498 C1490 1.574 . S
C1498 H1493 0.949 . S
C1498 C1504 1.368 . S
C1499 C1483 1.349 . S
C1499 H1491 0.950 . S
C1499 C1497 1.327 . S
C1500 C1488 1.349 . S
C1500 H1494 0.950 . S
C1500 C1501 1.327 . S
C1501 H1495 0.950 . S
C1501 C1500 1.327 . S
C1501 C1505 1.429 . S
C1502 C1485 1.574 1_655 S
C1502 H1496 0.949 . S
C1502 C1506 1.368 . S
C1503 C1484 1.429 . S
C1503 C1497 1.429 . S
C1503 C1504 1.523 . S
C1504 C1485 1.368 . S
C1504 C1498 1.368 . S
C1504 C1503 1.523 . S
C1505 C1489 1.429 . S
C1505 C1501 1.429 . S
C1505 C1506 1.523 . S
C1506 C1490 1.368 1_655 S
C1506 C1502 1.368 . S
C1506 C1505 1.523 . S
H1507 C1482 0.950 . S
H1508 C1484 0.950 . S
H1509 C1485 0.949 . S
H1510 C1487 0.950 . S
H1511 C1489 0.950 . S
C1512 C1513 1.349 . S
C1512 C1514 1.327 . S
C1512 H1537 0.950 . S
C1513 C1512 1.349 . S
C1513 C1529 1.349 . S
C1514 C1512 1.327 . S
C1514 C1533 1.429 . S
C1514 H1538 0.950 . S
C1515 C1532 1.574 . S
C1515 C1534 1.368 . S
C1515 H1539 0.949 . S
H1516 C1520 0.949 . S
C1517 C1518 1.349 . S
C1517 C1519 1.327 . S
C1517 H1540 0.950 . S
C1518 C1517 1.349 . S
C1518 C1530 1.349 . S
C1519 C1517 1.327 . S
C1519 C1535 1.429 . S
C1519 H1541 0.950 . S
C1520 H1516 0.949 . S
C1520 C1528 1.574 . S
C1520 C1536 1.368 . S
H1521 C1529 0.950 . S
H1522 C1527 0.950 . S
H1523 C1528 0.949 . S
H1524 C1530 0.950 . S
H1525 C1531 0.950 . S
H1526 C1532 0.949 . S
C1527 H1522 0.950 . S
C1527 C1529 1.327 . S
C1527 C1533 1.429 . S
C1528 C1520 1.574 . S
C1528 H1523 0.949 . S
C1528 C1534 1.368 . S
C1529 C1513 1.349 . S
C1529 H1521 0.950 . S
C1529 C1527 1.327 . S
C1530 C1518 1.349 . S
C1530 H1524 0.950 . S
C1530 C1531 1.327 . S
C1531 H1525 0.950 . S
C1531 C1530 1.327 . S
C1531 C1535 1.429 . S
C1532 C1515 1.574 . S
C1532 H1526 0.949 . S
C1532 C1536 1.368 . S
C1533 C1514 1.429 . S
C1533 C1527 1.429 . S
C1533 C1534 1.523 . S
C1534 C1515 1.368 . S
C1534 C1528 1.368 . S
C1534 C1533 1.523 . S
C1535 C1519 1.429 . S
C1535 C1531 1.429 . S
C1535 C1536 1.523 . S
C1536 C1520 1.368 . S
C1536 C1532 1.368 . S
C1536 C1535 1.523 . S
H1537 C1512 0.950 . S
H1538 C1514 0.950 . S
H1539 C1515 0.949 . S
H1540 C1517 0.950 . S
H1541 C1519 0.950 . S
C1542 C1543 1.349 . S
C1542 C1544 1.327 . S
C1542 H1567 0.950 . S
C1543 C1542 1.349 . S
C1543 C1559 1.349 . S
C1544 C1542 1.327 . S
C1544 C1563 1.429 . S
C1544 H1568 0.950 . S
C1545 C1562 1.574 . S
C1545 C1564 1.352 1_565 S
C1545 H1569 0.949 . S
H1546 C1550 0.949 . S
C1547 C1548 1.349 . S
C1547 C1549 1.327 . S
C1547 H1570 0.950 . S
C1548 C1547 1.349 . S
C1548 C1560 1.349 . S
C1549 C1547 1.327 . S
C1549 C1565 1.429 . S
C1549 H1571 0.950 . S
C1550 H1546 0.949 . S
C1550 C1558 1.574 1_565 S
C1550 C1566 1.368 . S
H1551 C1559 0.950 . S
H1552 C1557 0.950 . S
H1553 C1558 0.949 . S
H1554 C1560 0.950 . S
H1555 C1561 0.950 . S
H1556 C1562 0.949 . S
C1557 H1552 0.950 . S
C1557 C1559 1.327 . S
C1557 C1563 1.429 . S
C1558 C1550 1.574 1_545 S
C1558 H1553 0.949 . S
C1558 C1564 1.370 . S
C1559 C1543 1.349 . S
C1559 H1551 0.950 . S
C1559 C1557 1.327 . S
C1560 C1548 1.349 . S
C1560 H1554 0.950 . S
C1560 C1561 1.327 . S
C1561 H1555 0.950 . S
C1561 C1560 1.327 . S
C1561 C1565 1.429 . S
C1562 C1545 1.574 . S
C1562 H1556 0.949 . S
C1562 C1566 1.368 . S
C1563 C1544 1.429 . S
C1563 C1557 1.429 . S
C1563 C1564 1.544 . S
C1564 C1545 1.352 1_545 S
C1564 C1558 1.370 . S
C1564 C1563 1.544 . S
C1565 C1549 1.429 . S
C1565 C1561 1.429 . S
C1565 C1566 1.523 . S
C1566 C1550 1.368 . S
C1566 C1562 1.368 . S
C1566 C1565 1.523 . S
H1567 C1542 0.950 . S
H1568 C1544 0.950 . S
H1569 C1545 0.949 . S
H1570 C1547 0.950 . S
H1571 C1549 0.950 . S
C1572 C1573 1.349 . S
C1572 C1574 1.327 . S
C1572 H1597 0.950 . S
C1573 C1572 1.349 . S
C1573 C1589 1.349 . S
C1574 C1572 1.327 . S
C1574 C1593 1.429 . S
C1574 H1598 0.950 . S
C1575 C1592 1.574 . S
C1575 C1594 1.368 . S
C1575 H1599 0.949 . S
H1576 C1580 0.949 . S
C1577 C1578 1.349 . S
C1577 C1579 1.327 . S
C1577 H1600 0.950 . S
C1578 C1577 1.349 . S
C1578 C1590 1.349 . S
C1579 C1577 1.327 . S
C1579 C1595 1.429 . S
C1579 H1601 0.950 1_565 S
C1580 H1576 0.949 . S
C1580 C1588 1.574 . S
C1580 C1596 1.368 . S
H1581 C1589 0.950 . S
H1582 C1587 0.950 . S
H1583 C1588 0.949 . S
H1584 C1590 0.950 . S
H1585 C1591 0.950 . S
H1586 C1592 0.949 . S
C1587 H1582 0.950 . S
C1587 C1589 1.327 . S
C1587 C1593 1.429 . S
C1588 C1580 1.574 . S
C1588 H1583 0.949 . S
C1588 C1594 1.368 . S
C1589 C1573 1.349 . S
C1589 H1581 0.950 . S
C1589 C1587 1.327 . S
C1590 C1578 1.349 . S
C1590 H1584 0.950 . S
C1590 C1591 1.327 . S
C1591 H1585 0.950 . S
C1591 C1590 1.327 . S
C1591 C1595 1.429 . S
C1592 C1575 1.574 . S
C1592 H1586 0.949 . S
C1592 C1596 1.368 . S
C1593 C1574 1.429 . S
C1593 C1587 1.429 . S
C1593 C1594 1.523 . S
C1594 C1575 1.368 . S
C1594 C1588 1.368 . S
C1594 C1593 1.523 . S
C1595 C1579 1.429 . S
C1595 C1591 1.429 . S
C1595 C1596 1.523 1_565 S
C1596 C1580 1.368 . S
C1596 C1592 1.368 . S
C1596 C1595 1.523 1_545 S
H1597 C1572 0.950 . S
H1598 C1574 0.950 . S
H1599 C1575 0.949 . S
H1600 C1577 0.950 . S
H1601 C1579 0.950 1_545 S
C1602 C1603 1.349 . S
C1602 C1604 1.327 . S
C1602 H1627 0.950 . S
C1603 C1602 1.349 . S
C1603 C1619 1.349 . S
C1604 C1602 1.327 . S
C1604 C1623 1.429 . S
C1604 H1628 0.950 . S
C1605 C1622 1.574 1_545 S
C1605 C1624 1.368 . S
C1605 H1629 0.949 . S
H1606 C1610 0.949 . S
C1607 C1608 1.349 . S
C1607 C1609 1.327 . S
C1607 H1630 0.950 . S
C1608 C1607 1.349 . S
C1608 C1620 1.349 . S
C1609 C1607 1.327 . S
C1609 C1625 1.429 . S
C1609 H1631 0.950 . S
C1610 H1606 0.949 . S
C1610 C1618 1.574 . S
C1610 C1626 1.368 1_545 S
H1611 C1619 0.950 . S
H1612 C1617 0.950 . S
H1613 C1618 0.949 . S
H1614 C1620 0.950 . S
H1615 C1621 0.950 . S
H1616 C1622 0.949 . S
C1617 H1612 0.950 . S
C1617 C1619 1.327 . S
C1617 C1623 1.429 . S
C1618 C1610 1.574 . S
C1618 H1613 0.949 . S
C1618 C1624 1.368 . S
C1619 C1603 1.349 . S
C1619 H1611 0.950 . S
C1619 C1617 1.327 . S
C1620 C1608 1.349 . S
C1620 H1614 0.950 . S
C1620 C1621 1.327 . S
C1621 H1615 0.950 . S
C1621 C1620 1.327 . S
C1621 C1625 1.429 . S
C1622 C1605 1.574 1_565 S
C1622 H1616 0.949 . S
C1622 C1626 1.368 . S
C1623 C1604 1.429 . S
C1623 C1617 1.429 . S
C1623 C1624 1.523 . S
C1624 C1605 1.368 . S
C1624 C1618 1.368 . S
C1624 C1623 1.523 . S
C1625 C1609 1.429 . S
C1625 C1621 1.429 . S
C1625 C1626 1.523 . S
C1626 C1610 1.368 1_565 S
C1626 C1622 1.368 . S
C1626 C1625 1.523 . S
H1627 C1602 0.950 . S
H1628 C1604 0.950 . S
H1629 C1605 0.949 . S
H1630 C1607 0.950 . S
H1631 C1609 0.950 . S
C1632 C1633 1.349 . S
C1632 C1634 1.327 . S
C1632 H1657 0.950 . S
C1633 C1632 1.349 . S
C1633 C1649 1.349 . S
C1634 C1632 1.327 . S
C1634 C1653 1.429 . S
C1634 H1658 0.950 . S
C1635 C1652 1.574 . S
C1635 C1654 1.368 . S
C1635 H1659 0.949 . S
H1636 C1640 0.949 . S
C1637 C1638 1.349 . S
C1637 C1639 1.327 . S
C1637 H1660 0.950 . S
C1638 C1637 1.349 . S
C1638 C1650 1.349 . S
C1639 C1637 1.327 . S
C1639 C1655 1.429 . S
C1639 H1661 0.950 . S
C1640 H1636 0.949 . S
C1640 C1648 1.574 . S
C1640 C1656 1.368 . S
H1641 C1649 0.950 . S
H1642 C1647 0.950 . S
H1643 C1648 0.949 . S
H1644 C1650 0.950 . S
H1645 C1651 0.950 . S
H1646 C1652 0.949 . S
C1647 H1642 0.950 . S
C1647 C1649 1.327 . S
C1647 C1653 1.429 . S
C1648 C1640 1.574 . S
C1648 H1643 0.949 . S
C1648 C1654 1.368 . S
C1649 C1633 1.349 . S
C1649 H1641 0.950 . S
C1649 C1647 1.327 . S
C1650 C1638 1.349 . S
C1650 H1644 0.950 . S
C1650 C1651 1.327 . S
C1651 H1645 0.950 . S
C1651 C1650 1.327 . S
C1651 C1655 1.429 . S
C1652 C1635 1.574 . S
C1652 H1646 0.949 . S
C1652 C1656 1.368 . S
C1653 C1634 1.429 . S
C1653 C1647 1.429 . S
C1653 C1654 1.523 . S
C1654 C1635 1.368 . S
C1654 C1648 1.368 . S
C1654 C1653 1.523 . S
C1655 C1639 1.429 . S
C1655 C1651 1.429 . S
C1655 C1656 1.523 . S
C1656 C1640 1.368 . S
C1656 C1652 1.368 . S
C1656 C1655 1.523 . S
H1657 C1632 0.950 . S
H1658 C1634 0.950 . S
H1659 C1635 0.949 . S
H1660 C1637 0.950 . S
H1661 C1639 0.950 . S
C1662 C1663 1.349 . S
C1662 C1664 1.327 . S
C1662 H1687 0.950 . S
C1663 C1662 1.349 . S
C1663 C1679 1.349 . S
C1664 C1662 1.327 . S
C1664 C1683 1.429 . S
C1664 H1688 0.950 . S
C1665 C1682 1.574 . S
C1665 C1684 1.368 . S
C1665 H1689 0.949 . S
H1666 C1670 0.949 . S
C1667 C1668 1.349 . S
C1667 C1669 1.327 . S
C1667 H1690 0.950 . S
C1668 C1667 1.349 . S
C1668 C1680 1.349 . S
C1669 C1667 1.327 . S
C1669 C1685 1.429 . S
C1669 H1691 0.950 . S
C1670 H1666 0.949 . S
C1670 C1678 1.574 . S
C1670 C1686 1.368 . S
H1671 C1679 0.950 . S
H1672 C1677 0.950 . S
H1673 C1678 0.949 . S
H1674 C1680 0.950 . S
H1675 C1681 0.950 . S
H1676 C1682 0.949 . S
C1677 H1672 0.950 . S
C1677 C1679 1.327 . S
C1677 C1683 1.429 . S
C1678 C1670 1.574 . S
C1678 H1673 0.949 . S
C1678 C1684 1.368 . S
C1679 C1663 1.349 . S
C1679 H1671 0.950 . S
C1679 C1677 1.327 . S
C1680 C1668 1.349 . S
C1680 H1674 0.950 . S
C1680 C1681 1.327 . S
C1681 H1675 0.950 . S
C1681 C1680 1.327 . S
C1681 C1685 1.429 . S
C1682 C1665 1.574 . S
C1682 H1676 0.949 . S
C1682 C1686 1.368 . S
C1683 C1664 1.429 . S
C1683 C1677 1.429 . S
C1683 C1684 1.523 . S
C1684 C1665 1.368 . S
C1684 C1678 1.368 . S
C1684 C1683 1.523 . S
C1685 C1669 1.429 . S
C1685 C1681 1.429 . S
C1685 C1686 1.523 . S
C1686 C1670 1.368 . S
C1686 C1682 1.368 . S
C1686 C1685 1.523 . S
H1687 C1662 0.950 . S
H1688 C1664 0.950 . S
H1689 C1665 0.949 . S
H1690 C1667 0.950 . S
H1691 C1669 0.950 . S
C1692 C1693 1.349 . S
C1692 C1694 1.327 . S
C1692 H1717 0.950 . S
C1693 C1692 1.349 . S
C1693 C1709 1.349 . S
C1694 C1692 1.327 . S
C1694 C1713 1.429 . S
C1694 H1718 0.950 . S
C1695 C1712 1.574 . S
C1695 C1714 1.368 . S
C1695 H1719 0.949 . S
H1696 C1700 0.949 . S
C1697 C1698 1.349 . S
C1697 C1699 1.327 . S
C1697 H1720 0.950 . S
C1698 C1697 1.349 . S
C1698 C1710 1.349 . S
C1699 C1697 1.327 . S
C1699 C1715 1.429 . S
C1699 H1721 0.950 . S
C1700 H1696 0.949 . S
C1700 C1708 1.574 . S
C1700 C1716 1.368 . S
H1701 C1709 0.950 . S
H1702 C1707 0.950 . S
H1703 C1708 0.949 . S
H1704 C1710 0.950 . S
H1705 C1711 0.950 . S
H1706 C1712 0.949 . S
C1707 H1702 0.950 . S
C1707 C1709 1.327 . S
C1707 C1713 1.429 . S
C1708 C1700 1.574 . S
C1708 H1703 0.949 . S
C1708 C1714 1.368 . S
C1709 C1693 1.349 . S
C1709 H1701 0.950 . S
C1709 C1707 1.327 . S
C1710 C1698 1.349 . S
C1710 H1704 0.950 . S
C1710 C1711 1.327 . S
C1711 H1705 0.950 . S
C1711 C1710 1.327 . S
C1711 C1715 1.429 . S
C1712 C1695 1.574 . S
C1712 H1706 0.949 . S
C1712 C1716 1.368 . S
C1713 C1694 1.429 . S
C1713 C1707 1.429 . S
C1713 C1714 1.523 . S
C1714 C1695 1.368 . S
C1714 C1708 1.368 . S
C1714 C1713 1.523 . S
C1715 C1699 1.429 . S
C1715 C1711 1.429 . S
C1715 C1716 1.523 . S
C1716 C1700 1.368 . S
C1716 C1712 1.368 . S
C1716 C1715 1.523 . S
H1717 C1692 0.950 . S
H1718 C1694 0.950 . S
H1719 C1695 0.949 . S
H1720 C1697 0.950 . S
H1721 C1699 0.950 . S
C1722 C1723 1.349 . S
C1722 C1724 1.327 . S
C1722 H1747 0.950 . S
C1723 C1722 1.349 . S
C1723 C1739 1.349 . S
C1724 C1722 1.327 . S
C1724 C1743 1.429 . S
C1724 H1748 0.950 . S
C1725 C1742 1.574 . S
C1725 C1744 1.368 . S
C1725 H1749 0.949 . S
H1726 C1730 0.949 . S
C1727 C1728 1.349 . S
C1727 C1729 1.327 . S
C1727 H1750 0.950 . S
C1728 C1727 1.349 . S
C1728 C1740 1.349 . S
C1729 C1727 1.327 . S
C1729 C1745 1.429 . S
C1729 H1751 0.950 . S
C1730 H1726 0.949 . S
C1730 C1738 1.574 . S
C1730 C1746 1.368 . S
H1731 C1739 0.950 . S
H1732 C1737 0.950 . S
H1733 C1738 0.949 . S
H1734 C1740 0.950 . S
H1735 C1741 0.950 . S
H1736 C1742 0.949 . S
C1737 H1732 0.950 . S
C1737 C1739 1.327 . S
C1737 C1743 1.429 . S
C1738 C1730 1.574 . S
C1738 H1733 0.949 . S
C1738 C1744 1.368 1_554 S
C1739 C1723 1.349 . S
C1739 H1731 0.950 . S
C1739 C1737 1.327 . S
C1740 C1728 1.349 . S
C1740 H1734 0.950 . S
C1740 C1741 1.327 . S
C1741 H1735 0.950 . S
C1741 C1740 1.327 . S
C1741 C1745 1.429 . S
C1742 C1725 1.574 . S
C1742 H1736 0.949 . S
C1742 C1746 1.368 1_556 S
C1743 C1724 1.429 . S
C1743 C1737 1.429 . S
C1743 C1744 1.523 . S
C1744 C1725 1.368 . S
C1744 C1738 1.368 1_556 S
C1744 C1743 1.523 . S
C1745 C1729 1.429 . S
C1745 C1741 1.429 . S
C1745 C1746 1.523 . S
C1746 C1730 1.368 . S
C1746 C1742 1.368 1_554 S
C1746 C1745 1.523 . S
H1747 C1722 0.950 . S
H1748 C1724 0.950 . S
H1749 C1725 0.949 . S
H1750 C1727 0.950 . S
H1751 C1729 0.950 . S
C1752 C1753 1.349 . S
C1752 C1754 1.327 . S
C1752 H1777 0.950 . S
C1753 C1752 1.349 . S
C1753 C1769 1.349 . S
C1754 C1752 1.327 . S
C1754 C1773 1.429 . S
C1754 H1778 0.950 . S
C1755 C1772 1.574 . S
C1755 C1774 1.368 . S
C1755 H1779 0.949 . S
H1756 C1760 0.949 . S
C1757 C1758 1.349 . S
C1757 C1759 1.327 . S
C1757 H1780 0.950 . S
C1758 C1757 1.349 . S
C1758 C1770 1.349 . S
C1759 C1757 1.327 . S
C1759 C1775 1.429 . S
C1759 H1781 0.950 . S
C1760 H1756 0.949 . S
C1760 C1768 1.574 . S
C1760 C1776 1.368 . S
H1761 C1769 0.950 . S
H1762 C1767 0.950 . S
H1763 C1768 0.949 . S
H1764 C1770 0.950 . S
H1765 C1771 0.950 . S
H1766 C1772 0.949 . S
C1767 H1762 0.950 . S
C1767 C1769 1.327 . S
C1767 C1773 1.429 . S
C1768 C1760 1.574 . S
C1768 H1763 0.949 . S
C1768 C1774 1.368 . S
C1769 C1753 1.349 . S
C1769 H1761 0.950 . S
C1769 C1767 1.327 . S
C1770 C1758 1.349 . S
C1770 H1764 0.950 . S
C1770 C1771 1.327 . S
C1771 H1765 0.950 . S
C1771 C1770 1.327 . S
C1771 C1775 1.429 . S
C1772 C1755 1.574 . S
C1772 H1766 0.949 . S
C1772 C1776 1.368 . S
C1773 C1754 1.429 . S
C1773 C1767 1.429 . S
C1773 C1774 1.523 . S
C1774 C1755 1.368 . S
C1774 C1768 1.368 . S
C1774 C1773 1.523 . S
C1775 C1759 1.429 . S
C1775 C1771 1.429 . S
C1775 C1776 1.523 . S
C1776 C1760 1.368 . S
C1776 C1772 1.368 . S
C1776 C1775 1.523 . S
H1777 C1752 0.950 . S
H1778 C1754 0.950 . S
H1779 C1755 0.949 . S
H1780 C1757 0.950 . S
H1781 C1759 0.950 . S
C1782 C1783 1.349 . S
C1782 C1784 1.327 . S
C1782 H1807 0.950 . S
C1783 C1782 1.349 . S
C1783 C1799 1.349 . S
C1784 C1782 1.327 . S
C1784 C1803 1.429 . S
C1784 H1808 0.950 . S
C1785 C1802 1.574 . S
C1785 C1804 1.368 . S
C1785 H1809 0.949 . S
H1786 C1790 0.949 . S
C1787 C1788 1.349 . S
C1787 C1789 1.327 . S
C1787 H1810 0.950 . S
C1788 C1787 1.349 . S
C1788 C1800 1.349 . S
C1789 C1787 1.327 . S
C1789 C1805 1.429 . S
C1789 H1811 0.950 . S
C1790 H1786 0.949 . S
C1790 C1798 1.574 . S
C1790 C1806 1.368 . S
H1791 C1799 0.950 . S
H1792 C1797 0.950 . S
H1793 C1798 0.949 . S
H1794 C1800 0.950 . S
H1795 C1801 0.950 . S
H1796 C1802 0.949 . S
C1797 H1792 0.950 . S
C1797 C1799 1.327 . S
C1797 C1803 1.429 . S
C1798 C1790 1.574 . S
C1798 H1793 0.949 . S
C1798 C1804 1.368 . S
C1799 C1783 1.349 . S
C1799 H1791 0.950 . S
C1799 C1797 1.327 . S
C1800 C1788 1.349 . S
C1800 H1794 0.950 . S
C1800 C1801 1.327 . S
C1801 H1795 0.950 . S
C1801 C1800 1.327 . S
C1801 C1805 1.429 . S
C1802 C1785 1.574 . S
C1802 H1796 0.949 . S
C1802 C1806 1.368 . S
C1803 C1784 1.429 . S
C1803 C1797 1.429 . S
C1803 C1804 1.523 . S
C1804 C1785 1.368 . S
C1804 C1798 1.368 . S
C1804 C1803 1.523 . S
C1805 C1789 1.429 . S
C1805 C1801 1.429 . S
C1805 C1806 1.523 . S
C1806 C1790 1.368 . S
C1806 C1802 1.368 . S
C1806 C1805 1.523 . S
H1807 C1782 0.950 . S
H1808 C1784 0.950 . S
H1809 C1785 0.949 . S
H1810 C1787 0.950 . S
H1811 C1789 0.950 . S
C1812 C1813 1.349 . S
C1812 C1814 1.327 . S
C1812 H1837 0.950 . S
C1813 C1812 1.349 . S
C1813 C1829 1.349 . S
C1814 C1812 1.327 . S
C1814 C1833 1.429 . S
C1814 H1838 0.950 . S
C1815 C1832 1.574 . S
C1815 C1834 1.368 . S
C1815 H1839 0.949 . S
H1816 C1820 0.949 . S
C1817 C1818 1.349 . S
C1817 C1819 1.327 . S
C1817 H1840 0.950 . S
C1818 C1817 1.349 . S
C1818 C1830 1.349 . S
C1819 C1817 1.327 . S
C1819 C1835 1.429 . S
C1819 H1841 0.950 . S
C1820 H1816 0.949 . S
C1820 C1828 1.574 . S
C1820 C1836 1.368 . S
H1821 C1829 0.950 . S
H1822 C1827 0.950 . S
H1823 C1828 0.949 . S
H1824 C1830 0.950 . S
H1825 C1831 0.950 . S
H1826 C1832 0.949 1_455 S
C1827 H1822 0.950 . S
C1827 C1829 1.327 . S
C1827 C1833 1.429 . S
C1828 C1820 1.574 . S
C1828 H1823 0.949 . S
C1828 C1834 1.368 . S
C1829 C1813 1.349 . S
C1829 H1821 0.950 . S
C1829 C1827 1.327 . S
C1830 C1818 1.349 . S
C1830 H1824 0.950 . S
C1830 C1831 1.327 . S
C1831 H1825 0.950 . S
C1831 C1830 1.327 . S
C1831 C1835 1.429 . S
C1832 C1815 1.574 . S
C1832 H1826 0.949 1_655 S
C1832 C1836 1.368 . S
C1833 C1814 1.429 . S
C1833 C1827 1.429 . S
C1833 C1834 1.523 . S
C1834 C1815 1.368 . S
C1834 C1828 1.368 . S
C1834 C1833 1.523 . S
C1835 C1819 1.429 . S
C1835 C1831 1.429 . S
C1835 C1836 1.523 1_455 S
C1836 C1820 1.368 . S
C1836 C1832 1.368 . S
C1836 C1835 1.523 1_655 S
H1837 C1812 0.950 . S
H1838 C1814 0.950 . S
H1839 C1815 0.949 . S
H1840 C1817 0.950 . S
H1841 C1819 0.950 . S
C1842 C1843 1.349 . S
C1842 C1844 1.327 . S
C1842 H1867 0.950 . S
C1843 C1842 1.349 . S
C1843 C1859 1.349 . S
C1844 C1842 1.327 . S
C1844 C1863 1.429 . S
C1844 H1868 0.950 . S
C1845 C1862 1.574 . S
C1845 C1864 1.368 . S
C1845 H1869 0.949 . S
H1846 C1850 0.949 . S
C1847 C1848 1.349 . S
C1847 C1849 1.327 . S
C1847 H1870 0.950 . S
C1848 C1847 1.349 . S
C1848 C1860 1.349 . S
C1849 C1847 1.327 . S
C1849 C1865 1.429 . S
C1849 H1871 0.950 . S
C1850 H1846 0.949 . S
C1850 C1858 1.574 . S
C1850 C1866 1.368 . S
H1851 C1859 0.950 . S
H1852 C1857 0.950 . S
H1853 C1858 0.949 . S
H1854 C1860 0.950 . S
H1855 C1861 0.950 . S
H1856 C1862 0.949 . S
C1857 H1852 0.950 . S
C1857 C1859 1.327 . S
C1857 C1863 1.429 . S
C1858 C1850 1.574 . S
C1858 H1853 0.949 . S
C1858 C1864 1.368 . S
C1859 C1843 1.349 . S
C1859 H1851 0.950 . S
C1859 C1857 1.327 . S
C1860 C1848 1.349 . S
C1860 H1854 0.950 . S
C1860 C1861 1.327 . S
C1861 H1855 0.950 . S
C1861 C1860 1.327 . S
C1861 C1865 1.429 . S
C1862 C1845 1.574 . S
C1862 H1856 0.949 . S
C1862 C1866 1.368 . S
C1863 C1844 1.429 . S
C1863 C1857 1.429 . S
C1863 C1864 1.523 . S
C1864 C1845 1.368 . S
C1864 C1858 1.368 . S
C1864 C1863 1.523 . S
C1865 C1849 1.429 . S
C1865 C1861 1.429 . S
C1865 C1866 1.523 . S
C1866 C1850 1.368 . S
C1866 C1862 1.368 . S
C1866 C1865 1.523 . S
H1867 C1842 0.950 . S
H1868 C1844 0.950 . S
H1869 C1845 0.949 . S
H1870 C1847 0.950 . S
H1871 C1849 0.950 . S
C1872 C1873 1.349 . S
C1872 C1874 1.327 . S
C1872 H1897 0.950 . S
C1873 C1872 1.349 . S
C1873 C1889 1.349 . S
C1874 C1872 1.327 . S
C1874 C1893 1.429 . S
C1874 H1898 0.950 . S
C1875 C1892 1.573 1_455 S
C1875 C1894 1.368 . S
C1875 H1899 0.949 . S
H1876 C1880 0.949 . S
C1877 C1878 1.349 . S
C1877 C1879 1.327 . S
C1877 H1900 0.950 . S
C1878 C1877 1.349 . S
C1878 C1890 1.349 . S
C1879 C1877 1.327 . S
C1879 C1895 1.429 . S
C1879 H1901 0.950 . S
C1880 H1876 0.949 . S
C1880 C1888 1.574 . S
C1880 C1896 1.368 . S
H1881 C1889 0.950 . S
H1882 C1887 0.950 . S
H1883 C1888 0.949 . S
H1884 C1890 0.950 . S
H1885 C1891 0.950 1_455 S
H1886 C1892 0.949 . S
C1887 H1882 0.950 . S
C1887 C1889 1.327 . S
C1887 C1893 1.429 . S
C1888 C1880 1.574 . S
C1888 H1883 0.949 . S
C1888 C1894 1.368 . S
C1889 C1873 1.349 . S
C1889 H1881 0.950 . S
C1889 C1887 1.327 . S
C1890 C1878 1.349 . S
C1890 H1884 0.950 . S
C1890 C1891 1.327 . S
C1891 H1885 0.950 1_655 S
C1891 C1890 1.327 . S
C1891 C1895 1.429 . S
C1892 C1875 1.573 1_655 S
C1892 H1886 0.949 . S
C1892 C1896 1.368 1_655 S
C1893 C1874 1.429 . S
C1893 C1887 1.429 . S
C1893 C1894 1.523 . S
C1894 C1875 1.368 . S
C1894 C1888 1.368 . S
C1894 C1893 1.523 . S
C1895 C1879 1.429 . S
C1895 C1891 1.429 . S
C1895 C1896 1.523 1_655 S
C1896 C1880 1.368 . S
C1896 C1892 1.368 1_455 S
C1896 C1895 1.523 1_455 S
H1897 C1872 0.950 . S
H1898 C1874 0.950 . S
H1899 C1875 0.949 . S
H1900 C1877 0.950 . S
H1901 C1879 0.950 . S
C1902 C1903 1.349 . S
C1902 C1904 1.327 . S
C1902 H1927 0.950 . S
C1903 C1902 1.349 . S
C1903 C1919 1.349 . S
C1904 C1902 1.327 . S
C1904 C1923 1.429 . S
C1904 H1928 0.950 . S
C1905 C1922 1.574 . S
C1905 C1924 1.368 . S
C1905 H1929 0.949 . S
H1906 C1910 0.949 . S
C1907 C1908 1.349 . S
C1907 C1909 1.327 . S
C1907 H1930 0.950 . S
C1908 C1907 1.349 . S
C1908 C1920 1.349 . S
C1909 C1907 1.327 . S
C1909 C1925 1.429 . S
C1909 H1931 0.954 1_554 S
C1910 H1906 0.949 . S
C1910 C1918 1.574 1_554 S
C1910 C1926 1.368 . S
H1911 C1919 0.950 . S
H1912 C1917 0.950 . S
H1913 C1918 0.949 . S
H1914 C1920 0.950 . S
H1915 C1921 0.950 . S
H1916 C1922 0.949 . S
C1917 H1912 0.950 . S
C1917 C1919 1.327 . S
C1917 C1923 1.429 . S
C1918 C1910 1.574 1_556 S
C1918 H1913 0.949 . S
C1918 C1924 1.368 . S
C1919 C1903 1.349 . S
C1919 H1911 0.950 . S
C1919 C1917 1.327 . S
C1920 C1908 1.349 . S
C1920 H1914 0.950 . S
C1920 C1921 1.327 . S
C1921 H1915 0.950 . S
C1921 C1920 1.327 . S
C1921 C1925 1.429 . S
C1922 C1905 1.574 . S
C1922 H1916 0.949 . S
C1922 C1926 1.368 1_556 S
C1923 C1904 1.429 . S
C1923 C1917 1.429 . S
C1923 C1924 1.523 . S
C1924 C1905 1.368 . S
C1924 C1918 1.368 . S
C1924 C1923 1.523 . S
C1925 C1909 1.429 . S
C1925 C1921 1.429 . S
C1925 C1926 1.523 . S
C1926 C1910 1.368 . S
C1926 C1922 1.368 1_554 S
C1926 C1925 1.523 . S
H1927 C1902 0.950 . S
H1928 C1904 0.950 . S
H1929 C1905 0.949 . S
H1930 C1907 0.950 . S
H1931 C1909 0.954 1_556 S
C1932 C1933 1.349 . S
C1932 C1934 1.327 . S
C1932 H1957 0.950 . S
C1933 C1932 1.349 . S
C1933 C1949 1.349 . S
C1934 C1932 1.327 . S
C1934 C1953 1.429 . S
C1934 H1958 0.950 . S
C1935 C1952 1.574 . S
C1935 C1954 1.368 . S
C1935 H1959 0.949 . S
H1936 C1940 0.949 . S
C1937 C1938 1.349 . S
C1937 C1939 1.327 . S
C1937 H1960 0.950 . S
C1938 C1937 1.349 . S
C1938 C1950 1.349 . S
C1939 C1937 1.327 . S
C1939 C1955 1.429 . S
C1939 H1961 0.950 . S
C1940 H1936 0.949 . S
C1940 C1948 1.574 . S
C1940 C1956 1.368 . S
H1941 C1949 0.950 . S
H1942 C1947 0.950 . S
H1943 C1948 0.949 . S
H1944 C1950 0.950 . S
H1945 C1951 0.950 . S
H1946 C1952 0.949 . S
C1947 H1942 0.950 . S
C1947 C1949 1.327 . S
C1947 C1953 1.429 . S
C1948 C1940 1.574 . S
C1948 H1943 0.949 . S
C1948 C1954 1.368 . S
C1949 C1933 1.349 . S
C1949 H1941 0.950 . S
C1949 C1947 1.327 . S
C1950 C1938 1.349 . S
C1950 H1944 0.950 . S
C1950 C1951 1.327 . S
C1951 H1945 0.950 . S
C1951 C1950 1.327 . S
C1951 C1955 1.429 . S
C1952 C1935 1.574 . S
C1952 H1946 0.949 . S
C1952 C1956 1.368 . S
C1953 C1934 1.429 . S
C1953 C1947 1.429 . S
C1953 C1954 1.523 . S
C1954 C1935 1.368 . S
C1954 C1948 1.368 . S
C1954 C1953 1.523 . S
C1955 C1939 1.429 . S
C1955 C1951 1.429 . S
C1955 C1956 1.523 . S
C1956 C1940 1.368 . S
C1956 C1952 1.368 . S
C1956 C1955 1.523 . S
H1957 C1932 0.950 . S
H1958 C1934 0.950 . S
H1959 C1935 0.949 . S
H1960 C1937 0.950 . S
H1961 C1939 0.950 . S
C1962 C1963 1.349 . S
C1962 C1964 1.327 . S
C1962 H1987 0.950 . S
C1963 C1962 1.349 . S
C1963 C1979 1.349 . S
C1964 C1962 1.327 . S
C1964 C1983 1.429 . S
C1964 H1988 0.950 . S
C1965 C1982 1.574 . S
C1965 C1984 1.368 . S
C1965 H1989 0.949 . S
H1966 C1970 0.989 . S
C1967 C1968 1.349 . S
C1967 C1969 1.327 . S
C1967 H1990 0.950 . S
C1968 C1967 1.349 . S
C1968 C1980 1.349 . S
C1969 C1967 1.327 . S
C1969 C1985 1.429 . S
C1969 H1991 0.950 . S
C1970 H1966 0.989 . S
C1970 C1978 1.539 1_545 S
C1970 C1986 1.361 1_545 S
H1971 C1979 0.950 . S
H1972 C1977 0.950 . S
H1973 C1978 0.949 . S
H1974 C1980 0.950 . S
H1975 C1981 0.950 . S
H1976 C1982 0.949 . S
C1977 H1972 0.950 . S
C1977 C1979 1.327 . S
C1977 C1983 1.429 . S
C1978 C1970 1.539 1_565 S
C1978 H1973 0.949 . S
C1978 C1984 1.368 . S
C1979 C1963 1.349 . S
C1979 H1971 0.950 . S
C1979 C1977 1.327 . S
C1980 C1968 1.349 . S
C1980 H1974 0.950 . S
C1980 C1981 1.327 . S
C1981 H1975 0.950 . S
C1981 C1980 1.327 . S
C1981 C1985 1.429 . S
C1982 C1965 1.574 . S
C1982 H1976 0.949 . S
C1982 C1986 1.368 . S
C1983 C1964 1.429 . S
C1983 C1977 1.429 . S
C1983 C1984 1.523 . S
C1984 C1965 1.368 . S
C1984 C1978 1.368 . S
C1984 C1983 1.523 . S
C1985 C1969 1.429 . S
C1985 C1981 1.429 . S
C1985 C1986 1.523 1_545 S
C1986 C1970 1.361 1_565 S
C1986 C1982 1.368 . S
C1986 C1985 1.523 1_565 S
H1987 C1962 0.950 . S
H1988 C1964 0.950 . S
H1989 C1965 0.949 . S
H1990 C1967 0.950 . S
H1991 C1969 0.950 . S
C1992 C1993 1.349 . S
C1992 C1994 1.327 . S
C1992 H2017 0.950 . S
C1993 C1992 1.349 . S
C1993 C2009 1.349 . S
C1994 C1992 1.327 . S
C1994 C2013 1.429 . S
C1994 H2018 0.950 . S
C1995 C2012 1.574 . S
C1995 C2014 1.368 . S
C1995 H2019 0.949 . S
H1996 C2000 0.949 . S
C1997 C1998 1.349 . S
C1997 C1999 1.327 . S
C1997 H2020 0.950 . S
C1998 C1997 1.349 . S
C1998 C2010 1.349 . S
C1999 C1997 1.327 . S
C1999 C2015 1.429 . S
C1999 H2021 0.950 . S
C2000 H1996 0.949 . S
C2000 C2008 1.574 . S
C2000 C2016 1.368 . S
H2001 C2009 0.950 . S
H2002 C2007 0.950 . S
H2003 C2008 0.949 . S
H2004 C2010 0.950 . S
H2005 C2011 0.950 . S
H2006 C2012 0.949 . S
C2007 H2002 0.950 . S
C2007 C2009 1.327 . S
C2007 C2013 1.429 . S
C2008 C2000 1.574 . S
C2008 H2003 0.949 . S
C2008 C2014 1.368 . S
C2009 C1993 1.349 . S
C2009 H2001 0.950 . S
C2009 C2007 1.327 . S
C2010 C1998 1.349 . S
C2010 H2004 0.950 . S
C2010 C2011 1.327 . S
C2011 H2005 0.950 . S
C2011 C2010 1.327 . S
C2011 C2015 1.429 . S
C2012 C1995 1.574 . S
C2012 H2006 0.949 . S
C2012 C2016 1.368 . S
C2013 C1994 1.429 . S
C2013 C2007 1.429 . S
C2013 C2014 1.523 . S
C2014 C1995 1.368 . S
C2014 C2008 1.368 . S
C2014 C2013 1.523 . S
C2015 C1999 1.429 . S
C2015 C2011 1.429 . S
C2015 C2016 1.523 . S
C2016 C2000 1.368 . S
C2016 C2012 1.368 . S
C2016 C2015 1.523 . S
H2017 C1992 0.950 . S
H2018 C1994 0.950 . S
H2019 C1995 0.949 . S
H2020 C1997 0.950 . S
H2021 C1999 0.950 . S
C2022 C2023 1.349 . S
C2022 C2024 1.327 . S
C2022 H2047 0.950 . S
C2023 C2022 1.349 . S
C2023 C2039 1.349 . S
C2024 C2022 1.327 . S
C2024 C2043 1.429 . S
C2024 H2048 0.950 . S
C2025 C2042 1.574 . S
C2025 C2044 1.368 . S
C2025 H2049 0.949 . S
H2026 C2030 0.949 . S
C2027 C2028 1.349 . S
C2027 C2029 1.327 . S
C2027 H2050 0.950 . S
C2028 C2027 1.349 . S
C2028 C2040 1.349 . S
C2029 C2027 1.327 . S
C2029 C2045 1.429 . S
C2029 H2051 0.950 . S
C2030 H2026 0.949 . S
C2030 C2038 1.574 . S
C2030 C2046 1.368 . S
H2031 C2039 0.950 . S
H2032 C2037 0.950 . S
H2033 C2038 0.949 . S
H2034 C2040 0.950 . S
H2035 C2041 0.950 . S
H2036 C2042 0.949 . S
C2037 H2032 0.950 . S
C2037 C2039 1.327 . S
C2037 C2043 1.429 . S
C2038 C2030 1.574 . S
C2038 H2033 0.949 . S
C2038 C2044 1.368 . S
C2039 C2023 1.349 . S
C2039 H2031 0.950 . S
C2039 C2037 1.327 . S
C2040 C2028 1.349 . S
C2040 H2034 0.950 . S
C2040 C2041 1.327 . S
C2041 H2035 0.950 . S
C2041 C2040 1.327 . S
C2041 C2045 1.429 . S
C2042 C2025 1.574 . S
C2042 H2036 0.949 . S
C2042 C2046 1.368 . S
C2043 C2024 1.429 . S
C2043 C2037 1.429 . S
C2043 C2044 1.523 . S
C2044 C2025 1.368 . S
C2044 C2038 1.368 . S
C2044 C2043 1.523 . S
C2045 C2029 1.429 . S
C2045 C2041 1.429 . S
C2045 C2046 1.523 . S
C2046 C2030 1.368 . S
C2046 C2042 1.368 . S
C2046 C2045 1.523 . S
H2047 C2022 0.950 . S
H2048 C2024 0.950 . S
H2049 C2025 0.949 . S
H2050 C2027 0.950 . S
H2051 C2029 0.950 . S
C2052 C2053 1.349 . S
C2052 C2054 1.327 . S
C2052 H2077 0.950 . S
C2053 C2052 1.349 . S
C2053 C2069 1.349 . S
C2054 C2052 1.327 . S
C2054 C2073 1.429 . S
C2054 H2078 0.950 . S
C2055 C2072 1.574 . S
C2055 C2074 1.368 . S
C2055 H2079 0.949 . S
H2056 C2060 0.949 . S
C2057 C2058 1.349 . S
C2057 C2059 1.327 . S
C2057 H2080 0.950 . S
C2058 C2057 1.349 . S
C2058 C2070 1.349 . S
C2059 C2057 1.327 . S
C2059 C2075 1.429 . S
C2059 H2081 0.950 . S
C2060 H2056 0.949 . S
C2060 C2068 1.574 . S
C2060 C2076 1.368 . S
H2061 C2069 0.950 . S
H2062 C2067 0.950 . S
H2063 C2068 0.949 . S
H2064 C2070 0.950 . S
H2065 C2071 0.950 . S
H2066 C2072 0.949 . S
C2067 H2062 0.950 . S
C2067 C2069 1.327 . S
C2067 C2073 1.429 . S
C2068 C2060 1.574 . S
C2068 H2063 0.949 . S
C2068 C2074 1.368 . S
C2069 C2053 1.349 . S
C2069 H2061 0.950 . S
C2069 C2067 1.327 . S
C2070 C2058 1.349 . S
C2070 H2064 0.950 . S
C2070 C2071 1.327 . S
C2071 H2065 0.950 . S
C2071 C2070 1.327 . S
C2071 C2075 1.429 . S
C2072 C2055 1.574 . S
C2072 H2066 0.949 . S
C2072 C2076 1.368 . S
C2073 C2054 1.429 . S
C2073 C2067 1.429 . S
C2073 C2074 1.523 . S
C2074 C2055 1.368 . S
C2074 C2068 1.368 . S
C2074 C2073 1.523 . S
C2075 C2059 1.429 . S
C2075 C2071 1.429 . S
C2075 C2076 1.523 . S
C2076 C2060 1.368 . S
C2076 C2072 1.368 . S
C2076 C2075 1.523 . S
H2077 C2052 0.950 . S
H2078 C2054 0.950 . S
H2079 C2055 0.949 . S
H2080 C2057 0.950 . S
H2081 C2059 0.950 . S
C2082 C2083 1.349 . S
C2082 C2084 1.327 . S
C2082 H2107 0.950 . S
C2083 C2082 1.349 . S
C2083 C2099 1.349 . S
C2084 C2082 1.327 . S
C2084 C2103 1.429 . S
C2084 H2108 0.950 . S
C2085 C2102 1.574 . S
C2085 C2104 1.368 . S
C2085 H2109 0.949 . S
H2086 C2090 0.949 . S
C2087 C2088 1.349 . S
C2087 C2089 1.327 . S
C2087 H2110 0.950 . S
C2088 C2087 1.349 . S
C2088 C2100 1.349 . S
C2089 C2087 1.327 . S
C2089 C2105 1.429 . S
C2089 H2111 0.950 . S
C2090 H2086 0.949 . S
C2090 C2098 1.574 1_554 S
C2090 C2106 1.368 . S
H2091 C2099 0.950 . S
H2092 C2097 0.950 . S
H2093 C2098 0.949 . S
H2094 C2100 0.950 . S
H2095 C2101 0.950 . S
H2096 C2102 0.949 . S
C2097 H2092 0.950 . S
C2097 C2099 1.327 . S
C2097 C2103 1.429 . S
C2098 C2090 1.574 1_556 S
C2098 H2093 0.949 . S
C2098 C2104 1.368 . S
C2099 C2083 1.349 . S
C2099 H2091 0.950 . S
C2099 C2097 1.327 . S
C2100 C2088 1.349 . S
C2100 H2094 0.950 . S
C2100 C2101 1.327 . S
C2101 H2095 0.950 . S
C2101 C2100 1.327 . S
C2101 C2105 1.429 . S
C2102 C2085 1.574 . S
C2102 H2096 0.949 . S
C2102 C2106 1.368 1_556 S
C2103 C2084 1.429 . S
C2103 C2097 1.429 . S
C2103 C2104 1.523 . S
C2104 C2085 1.368 . S
C2104 C2098 1.368 . S
C2104 C2103 1.523 . S
C2105 C2089 1.429 . S
C2105 C2101 1.429 . S
C2105 C2106 1.523 . S
C2106 C2090 1.368 . S
C2106 C2102 1.368 1_554 S
C2106 C2105 1.523 . S
H2107 C2082 0.950 . S
H2108 C2084 0.950 . S
H2109 C2085 0.949 . S
H2110 C2087 0.950 . S
H2111 C2089 0.950 . S
C2112 C2113 1.349 . S
C2112 C2114 1.327 . S
C2112 H2137 0.950 . S
C2113 C2112 1.349 . S
C2113 C2129 1.349 . S
C2114 C2112 1.327 . S
C2114 C2133 1.429 . S
C2114 H2138 0.950 . S
C2115 C2132 1.574 . S
C2115 C2134 1.368 . S
C2115 H2139 0.949 . S
H2116 C2120 0.949 . S
C2117 C2118 1.349 . S
C2117 C2119 1.327 . S
C2117 H2140 0.950 . S
C2118 C2117 1.349 . S
C2118 C2130 1.349 . S
C2119 C2117 1.327 . S
C2119 C2135 1.429 . S
C2119 H2141 0.950 . S
C2120 H2116 0.949 . S
C2120 C2128 1.574 . S
C2120 C2136 1.368 . S
H2121 C2129 0.950 . S
H2122 C2127 0.950 . S
H2123 C2128 0.949 . S
H2124 C2130 0.950 . S
H2125 C2131 0.950 . S
H2126 C2132 0.949 . S
C2127 H2122 0.950 . S
C2127 C2129 1.327 . S
C2127 C2133 1.429 . S
C2128 C2120 1.574 . S
C2128 H2123 0.949 . S
C2128 C2134 1.368 . S
C2129 C2113 1.349 . S
C2129 H2121 0.950 . S
C2129 C2127 1.327 . S
C2130 C2118 1.349 . S
C2130 H2124 0.950 . S
C2130 C2131 1.327 . S
C2131 H2125 0.950 . S
C2131 C2130 1.327 . S
C2131 C2135 1.429 . S
C2132 C2115 1.574 . S
C2132 H2126 0.949 . S
C2132 C2136 1.368 . S
C2133 C2114 1.429 . S
C2133 C2127 1.429 . S
C2133 C2134 1.523 . S
C2134 C2115 1.368 . S
C2134 C2128 1.368 . S
C2134 C2133 1.523 . S
C2135 C2119 1.429 . S
C2135 C2131 1.429 . S
C2135 C2136 1.523 . S
C2136 C2120 1.368 . S
C2136 C2132 1.368 . S
C2136 C2135 1.523 . S
H2137 C2112 0.950 . S
H2138 C2114 0.950 . S
H2139 C2115 0.949 . S
H2140 C2117 0.950 . S
H2141 C2119 0.950 . S
C2142 C2143 1.349 . S
C2142 C2144 1.327 . S
C2142 H2167 0.950 . S
C2143 C2142 1.349 . S
C2143 C2159 1.349 . S
C2144 C2142 1.327 . S
C2144 C2163 1.429 . S
C2144 H2168 0.950 1_545 S
C2145 C2162 1.574 . S
C2145 C2164 1.368 . S
C2145 H2169 0.949 1_565 S
H2146 C2150 0.949 . S
C2147 C2148 1.349 . S
C2147 C2149 1.327 . S
C2147 H2170 0.950 . S
C2148 C2147 1.349 . S
C2148 C2160 1.349 . S
C2149 C2147 1.327 . S
C2149 C2165 1.429 . S
C2149 H2171 0.950 . S
C2150 H2146 0.949 . S
C2150 C2158 1.574 . S
C2150 C2166 1.368 . S
H2151 C2159 0.950 . S
H2152 C2157 0.950 . S
H2153 C2158 0.949 . S
H2154 C2160 0.950 . S
H2155 C2161 0.950 . S
H2156 C2162 0.949 . S
C2157 H2152 0.950 . S
C2157 C2159 1.327 . S
C2157 C2163 1.429 . S
C2158 C2150 1.574 . S
C2158 H2153 0.949 . S
C2158 C2164 1.368 . S
C2159 C2143 1.349 . S
C2159 H2151 0.950 . S
C2159 C2157 1.327 . S
C2160 C2148 1.349 . S
C2160 H2154 0.950 . S
C2160 C2161 1.327 . S
C2161 H2155 0.950 . S
C2161 C2160 1.327 . S
C2161 C2165 1.429 . S
C2162 C2145 1.574 . S
C2162 H2156 0.949 . S
C2162 C2166 1.368 . S
C2163 C2144 1.429 . S
C2163 C2157 1.429 . S
C2163 C2164 1.523 1_545 S
C2164 C2145 1.368 . S
C2164 C2158 1.368 . S
C2164 C2163 1.523 1_565 S
C2165 C2149 1.429 . S
C2165 C2161 1.429 . S
C2165 C2166 1.523 . S
C2166 C2150 1.368 . S
C2166 C2162 1.368 . S
C2166 C2165 1.523 . S
H2167 C2142 0.950 . S
H2168 C2144 0.950 1_565 S
H2169 C2145 0.949 1_545 S
H2170 C2147 0.950 . S
H2171 C2149 0.950 . S
C2172 C2173 1.349 . S
C2172 C2174 1.327 . S
C2172 H2197 0.950 . S
C2173 C2172 1.349 . S
C2173 C2189 1.349 . S
C2174 C2172 1.327 . S
C2174 C2193 1.429 . S
C2174 H2198 0.950 . S
C2175 C2192 1.574 1_554 S
C2175 C2194 1.368 . S
C2175 H2199 0.949 . S
H2176 C2180 0.949 . S
C2177 C2178 1.349 . S
C2177 C2179 1.327 . S
C2177 H2200 0.950 . S
C2178 C2177 1.349 . S
C2178 C2190 1.349 . S
C2179 C2177 1.327 . S
C2179 C2195 1.429 . S
C2179 H2201 0.950 . S
C2180 H2176 0.949 . S
C2180 C2188 1.574 . S
C2180 C2196 1.368 1_554 S
H2181 C2189 0.950 . S
H2182 C2187 0.950 . S
H2183 C2188 0.949 . S
H2184 C2190 0.950 . S
H2185 C2191 0.950 . S
H2186 C2192 0.949 . S
C2187 H2182 0.950 . S
C2187 C2189 1.327 . S
C2187 C2193 1.429 . S
C2188 C2180 1.574 . S
C2188 H2183 0.949 . S
C2188 C2194 1.368 . S
C2189 C2173 1.349 . S
C2189 H2181 0.950 . S
C2189 C2187 1.327 . S
C2190 C2178 1.349 . S
C2190 H2184 0.950 . S
C2190 C2191 1.327 . S
C2191 H2185 0.950 . S
C2191 C2190 1.327 . S
C2191 C2195 1.429 . S
C2192 C2175 1.574 1_556 S
C2192 H2186 0.949 . S
C2192 C2196 1.368 . S
C2193 C2174 1.429 . S
C2193 C2187 1.429 . S
C2193 C2194 1.523 . S
C2194 C2175 1.368 . S
C2194 C2188 1.368 . S
C2194 C2193 1.523 . S
C2195 C2179 1.429 . S
C2195 C2191 1.429 . S
C2195 C2196 1.523 . S
C2196 C2180 1.368 1_556 S
C2196 C2192 1.368 . S
C2196 C2195 1.523 . S
H2197 C2172 0.950 . S
H2198 C2174 0.950 . S
H2199 C2175 0.949 . S
H2200 C2177 0.950 . S
H2201 C2179 0.950 . S
C2202 C2203 1.349 . S
C2202 C2204 1.327 . S
C2202 H2227 0.950 . S
C2203 C2202 1.349 . S
C2203 C2219 1.349 . S
C2204 C2202 1.327 . S
C2204 C2223 1.429 . S
C2204 H2228 0.950 . S
C2205 C2222 1.574 . S
C2205 C2224 1.368 . S
C2205 H2229 0.949 . S
H2206 C2210 0.949 . S
C2207 C2208 1.349 . S
C2207 C2209 1.327 . S
C2207 H2230 0.950 . S
C2208 C2207 1.349 . S
C2208 C2220 1.349 . S
C2209 C2207 1.327 . S
C2209 C2225 1.429 . S
C2209 H2231 0.950 . S
C2210 H2206 0.949 . S
C2210 C2218 1.574 1_565 S
C2210 C2226 1.368 . S
H2211 C2219 0.950 . S
H2212 C2217 0.950 1_565 S
H2213 C2218 0.949 . S
H2214 C2220 0.950 . S
H2215 C2221 0.950 . S
H2216 C2222 0.949 . S
C2217 H2212 0.950 1_545 S
C2217 C2219 1.327 . S
C2217 C2223 1.429 . S
C2218 C2210 1.574 1_545 S
C2218 H2213 0.949 . S
C2218 C2224 1.368 1_545 S
C2219 C2203 1.349 . S
C2219 H2211 0.950 . S
C2219 C2217 1.327 . S
C2220 C2208 1.349 . S
C2220 H2214 0.950 . S
C2220 C2221 1.327 . S
C2221 H2215 0.950 . S
C2221 C2220 1.327 . S
C2221 C2225 1.429 . S
C2222 C2205 1.574 . S
C2222 H2216 0.949 . S
C2222 C2226 1.368 . S
C2223 C2204 1.429 . S
C2223 C2217 1.429 . S
C2223 C2224 1.523 1_545 S
C2224 C2205 1.368 . S
C2224 C2218 1.368 1_565 S
C2224 C2223 1.523 1_565 S
C2225 C2209 1.429 . S
C2225 C2221 1.429 . S
C2225 C2226 1.523 . S
C2226 C2210 1.368 . S
C2226 C2222 1.368 . S
C2226 C2225 1.523 . S
H2227 C2202 0.950 . S
H2228 C2204 0.950 . S
H2229 C2205 0.949 . S
H2230 C2207 0.950 . S
H2231 C2209 0.950 . S
C2232 C2233 1.349 . S
C2232 C2234 1.327 . S
C2232 H2257 0.950 . S
C2233 C2232 1.349 . S
C2233 C2249 1.349 . S
C2234 C2232 1.327 . S
C2234 C2253 1.429 . S
C2234 H2258 0.950 . S
C2235 C2252 1.574 . S
C2235 C2254 1.368 . S
C2235 H2259 0.949 . S
H2236 C2240 0.949 . S
C2237 C2238 1.349 . S
C2237 C2239 1.327 . S
C2237 H2260 0.950 . S
C2238 C2237 1.349 . S
C2238 C2250 1.349 . S
C2239 C2237 1.327 . S
C2239 C2255 1.429 . S
C2239 H2261 0.950 . S
C2240 H2236 0.949 . S
C2240 C2248 1.574 . S
C2240 C2256 1.368 . S
H2241 C2249 0.950 . S
H2242 C2247 0.950 . S
H2243 C2248 0.949 . S
H2244 C2250 0.950 . S
H2245 C2251 0.950 . S
H2246 C2252 0.949 . S
C2247 H2242 0.950 . S
C2247 C2249 1.327 . S
C2247 C2253 1.429 . S
C2248 C2240 1.574 . S
C2248 H2243 0.949 . S
C2248 C2254 1.368 . S
C2249 C2233 1.349 . S
C2249 H2241 0.950 . S
C2249 C2247 1.327 . S
C2250 C2238 1.349 . S
C2250 H2244 0.950 . S
C2250 C2251 1.327 . S
C2251 H2245 0.950 . S
C2251 C2250 1.327 . S
C2251 C2255 1.429 . S
C2252 C2235 1.574 . S
C2252 H2246 0.949 . S
C2252 C2256 1.368 . S
C2253 C2234 1.429 . S
C2253 C2247 1.429 . S
C2253 C2254 1.523 . S
C2254 C2235 1.368 . S
C2254 C2248 1.368 . S
C2254 C2253 1.523 . S
C2255 C2239 1.429 . S
C2255 C2251 1.429 . S
C2255 C2256 1.523 . S
C2256 C2240 1.368 . S
C2256 C2252 1.368 . S
C2256 C2255 1.523 . S
H2257 C2232 0.950 . S
H2258 C2234 0.950 . S
H2259 C2235 0.949 . S
H2260 C2237 0.950 . S
H2261 C2239 0.950 . S
C2262 C2263 1.349 . S
C2262 C2264 1.327 . S
C2262 H2287 0.950 . S
C2263 C2262 1.349 . S
C2263 C2279 1.349 . S
C2264 C2262 1.327 . S
C2264 C2283 1.429 . S
C2264 H2288 0.950 . S
C2265 C2282 1.574 1_655 S
C2265 C2284 1.368 . S
C2265 H2289 0.949 . S
H2266 C2270 0.949 . S
C2267 C2268 1.349 . S
C2267 C2269 1.327 . S
C2267 H2290 0.950 . S
C2268 C2267 1.349 . S
C2268 C2280 1.349 . S
C2269 C2267 1.327 . S
C2269 C2285 1.429 . S
C2269 H2291 0.950 . S
C2270 H2266 0.949 . S
C2270 C2278 1.574 . S
C2270 C2286 1.368 . S
H2271 C2279 0.950 . S
H2272 C2277 0.950 . S
H2273 C2278 0.949 . S
H2274 C2280 0.950 . S
H2275 C2281 0.950 . S
H2276 C2282 0.949 . S
C2277 H2272 0.950 . S
C2277 C2279 1.327 . S
C2277 C2283 1.429 . S
C2278 C2270 1.574 . S
C2278 H2273 0.949 . S
C2278 C2284 1.368 1_455 S
C2279 C2263 1.349 . S
C2279 H2271 0.950 . S
C2279 C2277 1.327 . S
C2280 C2268 1.349 . S
C2280 H2274 0.950 . S
C2280 C2281 1.327 . S
C2281 H2275 0.950 . S
C2281 C2280 1.327 . S
C2281 C2285 1.429 . S
C2282 C2265 1.574 1_455 S
C2282 H2276 0.949 . S
C2282 C2286 1.368 . S
C2283 C2264 1.429 . S
C2283 C2277 1.429 . S
C2283 C2284 1.523 . S
C2284 C2265 1.368 . S
C2284 C2278 1.368 1_655 S
C2284 C2283 1.523 . S
C2285 C2269 1.429 . S
C2285 C2281 1.429 . S
C2285 C2286 1.523 . S
C2286 C2270 1.368 . S
C2286 C2282 1.368 . S
C2286 C2285 1.523 . S
H2287 C2262 0.950 . S
H2288 C2264 0.950 . S
H2289 C2265 0.949 . S
H2290 C2267 0.950 . S
H2291 C2269 0.950 . S
C2292 C2293 1.349 . S
C2292 C2294 1.327 . S
C2292 H2317 0.950 . S
C2293 C2292 1.349 . S
C2293 C2309 1.349 . S
C2294 C2292 1.327 . S
C2294 C2313 1.429 . S
C2294 H2318 0.950 . S
C2295 C2312 1.559 1_455 S
C2295 C2314 1.364 1_455 S
C2295 H2319 0.967 . S
H2296 C2300 0.949 . S
C2297 C2298 1.349 . S
C2297 C2299 1.327 . S
C2297 H2320 0.950 . S
C2298 C2297 1.349 . S
C2298 C2310 1.349 . S
C2299 C2297 1.327 . S
C2299 C2315 1.429 . S
C2299 H2321 0.950 . S
C2300 H2296 0.949 . S
C2300 C2308 1.574 . S
C2300 C2316 1.368 . S
H2301 C2309 0.950 . S
H2302 C2307 0.950 . S
H2303 C2308 0.949 . S
H2304 C2310 0.950 . S
H2305 C2311 0.950 . S
H2306 C2312 0.949 . S
C2307 H2302 0.950 . S
C2307 C2309 1.327 . S
C2307 C2313 1.429 . S
C2308 C2300 1.574 . S
C2308 H2303 0.949 . S
C2308 C2314 1.368 . S
C2309 C2293 1.349 . S
C2309 H2301 0.950 . S
C2309 C2307 1.327 . S
C2310 C2298 1.349 . S
C2310 H2304 0.950 . S
C2310 C2311 1.327 . S
C2311 H2305 0.950 . S
C2311 C2310 1.327 . S
C2311 C2315 1.429 . S
C2312 C2295 1.559 1_655 S
C2312 H2306 0.949 . S
C2312 C2316 1.368 . S
C2313 C2294 1.429 . S
C2313 C2307 1.429 . S
C2313 C2314 1.523 1_455 S
C2314 C2295 1.364 1_655 S
C2314 C2308 1.368 . S
C2314 C2313 1.523 1_655 S
C2315 C2299 1.429 . S
C2315 C2311 1.429 . S
C2315 C2316 1.523 . S
C2316 C2300 1.368 . S
C2316 C2312 1.368 . S
C2316 C2315 1.523 . S
H2317 C2292 0.950 . S
H2318 C2294 0.950 . S
H2319 C2295 0.967 . S
H2320 C2297 0.950 . S
H2321 C2299 0.950 . S
C2322 C2323 1.349 . S
C2322 C2324 1.327 . S
C2322 H2347 0.950 . S
C2323 C2322 1.349 . S
C2323 C2339 1.349 . S
C2324 C2322 1.327 . S
C2324 C2343 1.429 . S
C2324 H2348 0.950 . S
C2325 C2342 1.574 . S
C2325 C2344 1.368 . S
C2325 H2349 0.949 . S
H2326 C2330 0.949 . S
C2327 C2328 1.349 . S
C2327 C2329 1.327 . S
C2327 H2350 0.950 . S
C2328 C2327 1.349 . S
C2328 C2340 1.349 . S
C2329 C2327 1.327 . S
C2329 C2345 1.429 . S
C2329 H2351 0.950 . S
C2330 H2326 0.949 . S
C2330 C2338 1.574 . S
C2330 C2346 1.368 . S
H2331 C2339 0.950 . S
H2332 C2337 0.950 . S
H2333 C2338 0.949 . S
H2334 C2340 0.950 . S
H2335 C2341 0.950 . S
H2336 C2342 0.949 . S
C2337 H2332 0.950 . S
C2337 C2339 1.327 . S
C2337 C2343 1.429 . S
C2338 C2330 1.574 . S
C2338 H2333 0.949 . S
C2338 C2344 1.368 . S
C2339 C2323 1.349 . S
C2339 H2331 0.950 . S
C2339 C2337 1.327 . S
C2340 C2328 1.349 . S
C2340 H2334 0.950 . S
C2340 C2341 1.327 . S
C2341 H2335 0.950 . S
C2341 C2340 1.327 . S
C2341 C2345 1.429 . S
C2342 C2325 1.574 . S
C2342 H2336 0.949 . S
C2342 C2346 1.368 . S
C2343 C2324 1.429 . S
C2343 C2337 1.429 . S
C2343 C2344 1.523 . S
C2344 C2325 1.368 . S
C2344 C2338 1.368 . S
C2344 C2343 1.523 . S
C2345 C2329 1.429 . S
C2345 C2341 1.429 . S
C2345 C2346 1.523 . S
C2346 C2330 1.368 . S
C2346 C2342 1.368 . S
C2346 C2345 1.523 . S
H2347 C2322 0.950 . S
H2348 C2324 0.950 . S
H2349 C2325 0.949 . S
H2350 C2327 0.950 . S
H2351 C2329 0.950 . S
C2352 C2353 1.349 . S
C2352 C2354 1.327 . S
C2352 H2377 0.950 . S
C2353 C2352 1.349 . S
C2353 C2369 1.349 . S
C2354 C2352 1.327 . S
C2354 C2373 1.429 . S
C2354 H2378 0.950 . S
C2355 C2372 1.574 1_455 S
C2355 C2374 1.368 . S
C2355 H2379 0.949 . S
H2356 C2360 0.949 . S
C2357 C2358 1.349 . S
C2357 C2359 1.327 . S
C2357 H2380 0.950 . S
C2358 C2357 1.349 . S
C2358 C2370 1.349 . S
C2359 C2357 1.327 . S
C2359 C2375 1.429 . S
C2359 H2381 0.950 . S
C2360 H2356 0.949 . S
C2360 C2368 1.574 . S
C2360 C2376 1.368 . S
H2361 C2369 0.950 . S
H2362 C2367 0.950 . S
H2363 C2368 0.949 1_455 S
H2364 C2370 0.950 . S
H2365 C2371 0.950 . S
H2366 C2372 0.949 . S
C2367 H2362 0.950 . S
C2367 C2369 1.327 . S
C2367 C2373 1.429 . S
C2368 C2360 1.574 . S
C2368 H2363 0.949 1_655 S
C2368 C2374 1.368 1_655 S
C2369 C2353 1.349 . S
C2369 H2361 0.950 . S
C2369 C2367 1.327 . S
C2370 C2358 1.349 . S
C2370 H2364 0.950 . S
C2370 C2371 1.327 . S
C2371 H2365 0.950 . S
C2371 C2370 1.327 . S
C2371 C2375 1.429 . S
C2372 C2355 1.574 1_655 S
C2372 H2366 0.949 . S
C2372 C2376 1.368 . S
C2373 C2354 1.429 . S
C2373 C2367 1.429 . S
C2373 C2374 1.523 . S
C2374 C2355 1.368 . S
C2374 C2368 1.368 1_455 S
C2374 C2373 1.523 . S
C2375 C2359 1.429 . S
C2375 C2371 1.429 . S
C2375 C2376 1.523 . S
C2376 C2360 1.368 . S
C2376 C2372 1.368 . S
C2376 C2375 1.523 . S
H2377 C2352 0.950 . S
H2378 C2354 0.950 . S
H2379 C2355 0.949 . S
H2380 C2357 0.950 . S
H2381 C2359 0.950 . S
C2382 C2383 1.349 . S
C2382 C2384 1.327 . S
C2382 H2407 0.950 . S
C2383 C2382 1.349 . S
C2383 C2399 1.349 . S
C2384 C2382 1.327 . S
C2384 C2403 1.429 . S
C2384 H2408 0.950 . S
C2385 C2402 1.574 1_455 S
C2385 C2404 1.368 . S
C2385 H2409 0.949 . S
H2386 C2390 0.949 . S
C2387 C2388 1.349 . S
C2387 C2389 1.327 . S
C2387 H2410 0.950 . S
C2388 C2387 1.349 . S
C2388 C2400 1.349 . S
C2389 C2387 1.327 . S
C2389 C2405 1.429 . S
C2389 H2411 0.950 . S
C2390 H2386 0.949 . S
C2390 C2398 1.574 . S
C2390 C2406 1.368 . S
H2391 C2399 0.950 . S
H2392 C2397 0.950 . S
H2393 C2398 0.949 . S
H2394 C2400 0.950 . S
H2395 C2401 0.950 . S
H2396 C2402 0.949 . S
C2397 H2392 0.950 . S
C2397 C2399 1.327 . S
C2397 C2403 1.429 . S
C2398 C2390 1.574 . S
C2398 H2393 0.949 . S
C2398 C2404 1.368 1_655 S
C2399 C2383 1.349 . S
C2399 H2391 0.950 . S
C2399 C2397 1.327 . S
C2400 C2388 1.349 . S
C2400 H2394 0.950 . S
C2400 C2401 1.327 . S
C2401 H2395 0.950 . S
C2401 C2400 1.327 . S
C2401 C2405 1.429 . S
C2402 C2385 1.574 1_655 S
C2402 H2396 0.949 . S
C2402 C2406 1.368 . S
C2403 C2384 1.429 . S
C2403 C2397 1.429 . S
C2403 C2404 1.523 . S
C2404 C2385 1.368 . S
C2404 C2398 1.368 1_455 S
C2404 C2403 1.523 . S
C2405 C2389 1.429 . S
C2405 C2401 1.429 . S
C2405 C2406 1.523 . S
C2406 C2390 1.368 . S
C2406 C2402 1.368 . S
C2406 C2405 1.523 . S
H2407 C2382 0.950 . S
H2408 C2384 0.950 . S
H2409 C2385 0.949 . S
H2410 C2387 0.950 . S
H2411 C2389 0.950 . S
C2412 C2413 1.349 . S
C2412 C2414 1.327 . S
C2412 H2437 0.950 . S
C2413 C2412 1.349 . S
C2413 C2429 1.349 . S
C2414 C2412 1.327 . S
C2414 C2433 1.429 . S
C2414 H2438 0.950 . S
C2415 C2432 1.574 . S
C2415 C2434 1.368 . S
C2415 H2439 0.949 . S
H2416 C2420 0.949 . S
C2417 C2418 1.349 . S
C2417 C2419 1.327 . S
C2417 H2440 0.950 . S
C2418 C2417 1.349 . S
C2418 C2430 1.349 . S
C2419 C2417 1.327 . S
C2419 C2435 1.429 . S
C2419 H2441 0.950 . S
C2420 H2416 0.949 . S
C2420 C2428 1.574 . S
C2420 C2436 1.368 . S
H2421 C2429 0.950 . S
H2422 C2427 0.950 . S
H2423 C2428 0.949 . S
H2424 C2430 0.950 . S
H2425 C2431 0.950 . S
H2426 C2432 0.949 . S
C2427 H2422 0.950 . S
C2427 C2429 1.327 . S
C2427 C2433 1.429 . S
C2428 C2420 1.574 . S
C2428 H2423 0.949 . S
C2428 C2434 1.368 . S
C2429 C2413 1.349 . S
C2429 H2421 0.950 . S
C2429 C2427 1.327 . S
C2430 C2418 1.349 . S
C2430 H2424 0.950 . S
C2430 C2431 1.327 . S
C2431 H2425 0.950 . S
C2431 C2430 1.327 . S
C2431 C2435 1.429 . S
C2432 C2415 1.574 . S
C2432 H2426 0.949 . S
C2432 C2436 1.368 . S
C2433 C2414 1.429 . S
C2433 C2427 1.429 . S
C2433 C2434 1.523 . S
C2434 C2415 1.368 . S
C2434 C2428 1.368 . S
C2434 C2433 1.523 . S
C2435 C2419 1.429 . S
C2435 C2431 1.429 . S
C2435 C2436 1.523 . S
C2436 C2420 1.368 . S
C2436 C2432 1.368 . S
C2436 C2435 1.523 . S
H2437 C2412 0.950 . S
H2438 C2414 0.950 . S
H2439 C2415 0.949 . S
H2440 C2417 0.950 . S
H2441 C2419 0.950 . S
C2442 C2443 1.349 . S
C2442 C2444 1.327 . S
C2442 H2467 0.950 . S
C2443 C2442 1.349 . S
C2443 C2459 1.349 . S
C2444 C2442 1.327 . S
C2444 C2463 1.429 . S
C2444 H2468 0.950 . S
C2445 C2462 1.574 . S
C2445 C2464 1.368 . S
C2445 H2469 0.949 . S
H2446 C2450 0.932 1_545 S
C2447 C2448 1.349 . S
C2447 C2449 1.327 . S
C2447 H2470 0.950 . S
C2448 C2447 1.349 . S
C2448 C2460 1.349 . S
C2449 C2447 1.327 . S
C2449 C2465 1.429 . S
C2449 H2471 0.950 1_545 S
C2450 H2446 0.932 1_565 S
C2450 C2458 1.574 . S
C2450 C2466 1.368 . S
H2451 C2459 0.950 . S
H2452 C2457 0.950 . S
H2453 C2458 0.949 . S
H2454 C2460 0.950 . S
H2455 C2461 0.950 . S
H2456 C2462 0.949 . S
C2457 H2452 0.950 . S
C2457 C2459 1.327 . S
C2457 C2463 1.429 . S
C2458 C2450 1.574 . S
C2458 H2453 0.949 . S
C2458 C2464 1.368 . S
C2459 C2443 1.349 . S
C2459 H2451 0.950 . S
C2459 C2457 1.327 . S
C2460 C2448 1.349 . S
C2460 H2454 0.950 . S
C2460 C2461 1.327 . S
C2461 H2455 0.950 . S
C2461 C2460 1.327 . S
C2461 C2465 1.429 . S
C2462 C2445 1.574 . S
C2462 H2456 0.949 . S
C2462 C2466 1.368 . S
C2463 C2444 1.429 . S
C2463 C2457 1.429 . S
C2463 C2464 1.523 . S
C2464 C2445 1.368 . S
C2464 C2458 1.368 . S
C2464 C2463 1.523 . S
C2465 C2449 1.429 . S
C2465 C2461 1.429 . S
C2465 C2466 1.523 1_545 S
C2466 C2450 1.368 . S
C2466 C2462 1.368 . S
C2466 C2465 1.523 1_565 S
H2467 C2442 0.950 . S
H2468 C2444 0.950 . S
H2469 C2445 0.949 . S
H2470 C2447 0.950 . S
H2471 C2449 0.950 1_565 S
C2472 C2473 1.349 . S
C2472 C2474 1.327 . S
C2472 H2497 0.950 . S
C2473 C2472 1.349 . S
C2473 C2489 1.349 . S
C2474 C2472 1.327 . S
C2474 C2493 1.429 . S
C2474 H2498 0.950 . S
C2475 C2492 1.574 . S
C2475 C2494 1.368 . S
C2475 H2499 0.949 . S
H2476 C2480 0.949 1_554 S
C2477 C2478 1.349 . S
C2477 C2479 1.327 . S
C2477 H2500 0.950 . S
C2478 C2477 1.349 . S
C2478 C2490 1.349 . S
C2479 C2477 1.327 . S
C2479 C2495 1.429 . S
C2479 H2501 0.950 . S
C2480 H2476 0.949 1_556 S
C2480 C2488 1.574 . S
C2480 C2496 1.368 1_556 S
H2481 C2489 0.950 . S
H2482 C2487 0.950 . S
H2483 C2488 0.949 . S
H2484 C2490 0.950 . S
H2485 C2491 0.950 . S
H2486 C2492 0.949 1_554 S
C2487 H2482 0.950 . S
C2487 C2489 1.327 . S
C2487 C2493 1.429 . S
C2488 C2480 1.574 . S
C2488 H2483 0.949 . S
C2488 C2494 1.368 . S
C2489 C2473 1.349 . S
C2489 H2481 0.950 . S
C2489 C2487 1.327 . S
C2490 C2478 1.349 . S
C2490 H2484 0.950 . S
C2490 C2491 1.327 . S
C2491 H2485 0.950 . S
C2491 C2490 1.327 . S
C2491 C2495 1.429 . S
C2492 C2475 1.574 . S
C2492 H2486 0.949 1_556 S
C2492 C2496 1.368 1_556 S
C2493 C2474 1.429 . S
C2493 C2487 1.429 . S
C2493 C2494 1.523 . S
C2494 C2475 1.368 . S
C2494 C2488 1.368 . S
C2494 C2493 1.523 . S
C2495 C2479 1.429 . S
C2495 C2491 1.429 . S
C2495 C2496 1.523 . S
C2496 C2480 1.368 1_554 S
C2496 C2492 1.368 1_554 S
C2496 C2495 1.523 . S
H2497 C2472 0.950 . S
H2498 C2474 0.950 . S
H2499 C2475 0.949 . S
H2500 C2477 0.950 . S
H2501 C2479 0.950 . S
C2502 C2503 1.349 . S
C2502 C2504 1.327 . S
C2502 H2527 0.950 . S
C2503 C2502 1.349 . S
C2503 C2519 1.349 . S
C2504 C2502 1.327 . S
C2504 C2523 1.429 . S
C2504 H2528 0.950 . S
C2505 C2522 1.574 . S
C2505 C2524 1.368 . S
C2505 H2529 0.949 . S
H2506 C2510 0.949 . S
C2507 C2508 1.349 . S
C2507 C2509 1.327 . S
C2507 H2530 0.950 . S
C2508 C2507 1.349 . S
C2508 C2520 1.349 . S
C2509 C2507 1.327 . S
C2509 C2525 1.429 . S
C2509 H2531 0.950 . S
C2510 H2506 0.949 . S
C2510 C2518 1.574 . S
C2510 C2526 1.368 . S
H2511 C2519 0.950 . S
H2512 C2517 0.950 . S
H2513 C2518 0.949 . S
H2514 C2520 0.950 . S
H2515 C2521 0.950 . S
H2516 C2522 0.949 1_565 S
C2517 H2512 0.950 . S
C2517 C2519 1.327 . S
C2517 C2523 1.429 . S
C2518 C2510 1.574 . S
C2518 H2513 0.949 . S
C2518 C2524 1.368 . S
C2519 C2503 1.349 . S
C2519 H2511 0.950 . S
C2519 C2517 1.327 . S
C2520 C2508 1.349 . S
C2520 H2514 0.950 . S
C2520 C2521 1.327 . S
C2521 H2515 0.950 . S
C2521 C2520 1.327 . S
C2521 C2525 1.429 . S
C2522 C2505 1.574 . S
C2522 H2516 0.949 1_545 S
C2522 C2526 1.368 . S
C2523 C2504 1.429 . S
C2523 C2517 1.429 . S
C2523 C2524 1.523 . S
C2524 C2505 1.368 . S
C2524 C2518 1.368 . S
C2524 C2523 1.523 . S
C2525 C2509 1.429 . S
C2525 C2521 1.429 . S
C2525 C2526 1.523 1_565 S
C2526 C2510 1.368 . S
C2526 C2522 1.368 . S
C2526 C2525 1.523 1_545 S
H2527 C2502 0.950 . S
H2528 C2504 0.950 . S
H2529 C2505 0.949 . S
H2530 C2507 0.950 . S
H2531 C2509 0.950 . S
C2532 C2533 1.349 . S
C2532 C2534 1.327 . S
C2532 H2557 0.950 . S
C2533 C2532 1.349 . S
C2533 C2549 1.349 . S
C2534 C2532 1.327 . S
C2534 C2553 1.429 . S
C2534 H2558 0.950 . S
C2535 C2552 1.574 . S
C2535 C2554 1.368 . S
C2535 H2559 0.949 . S
H2536 C2540 0.949 . S
C2537 C2538 1.349 . S
C2537 C2539 1.327 . S
C2537 H2560 0.950 . S
C2538 C2537 1.349 . S
C2538 C2550 1.349 . S
C2539 C2537 1.327 . S
C2539 C2555 1.429 . S
C2539 H2561 0.950 . S
C2540 H2536 0.949 . S
C2540 C2548 1.574 . S
C2540 C2556 1.368 . S
H2541 C2549 0.950 . S
H2542 C2547 0.950 . S
H2543 C2548 0.949 . S
H2544 C2550 0.950 . S
H2545 C2551 0.950 . S
H2546 C2552 0.949 . S
C2547 H2542 0.950 . S
C2547 C2549 1.327 . S
C2547 C2553 1.429 . S
C2548 C2540 1.574 . S
C2548 H2543 0.949 . S
C2548 C2554 1.368 . S
C2549 C2533 1.349 . S
C2549 H2541 0.950 . S
C2549 C2547 1.327 . S
C2550 C2538 1.349 . S
C2550 H2544 0.950 . S
C2550 C2551 1.327 . S
C2551 H2545 0.950 . S
C2551 C2550 1.327 . S
C2551 C2555 1.429 . S
C2552 C2535 1.574 . S
C2552 H2546 0.949 . S
C2552 C2556 1.368 . S
C2553 C2534 1.429 . S
C2553 C2547 1.429 . S
C2553 C2554 1.523 . S
C2554 C2535 1.368 . S
C2554 C2548 1.368 . S
C2554 C2553 1.523 . S
C2555 C2539 1.429 . S
C2555 C2551 1.429 . S
C2555 C2556 1.523 . S
C2556 C2540 1.368 . S
C2556 C2552 1.368 . S
C2556 C2555 1.523 . S
H2557 C2532 0.950 . S
H2558 C2534 0.950 . S
H2559 C2535 0.949 . S
H2560 C2537 0.950 . S
H2561 C2539 0.950 . S
C2562 C2563 1.349 . S
C2562 C2564 1.327 . S
C2562 H2587 0.950 . S
C2563 C2562 1.349 . S
C2563 C2579 1.349 . S
C2564 C2562 1.327 . S
C2564 C2583 1.429 . S
C2564 H2588 0.950 . S
C2565 C2582 1.574 . S
C2565 C2584 1.368 . S
C2565 H2589 0.949 1_556 S
H2566 C2570 0.949 . S
C2567 C2568 1.349 . S
C2567 C2569 1.327 . S
C2567 H2590 0.950 . S
C2568 C2567 1.349 . S
C2568 C2580 1.349 . S
C2569 C2567 1.327 . S
C2569 C2585 1.429 . S
C2569 H2591 0.950 . S
C2570 H2566 0.949 . S
C2570 C2578 1.574 . S
C2570 C2586 1.368 . S
H2571 C2579 0.950 . S
H2572 C2577 0.950 . S
H2573 C2578 0.949 . S
H2574 C2580 0.950 . S
H2575 C2581 0.950 . S
H2576 C2582 0.949 . S
C2577 H2572 0.950 . S
C2577 C2579 1.327 . S
C2577 C2583 1.429 . S
C2578 C2570 1.574 . S
C2578 H2573 0.949 . S
C2578 C2584 1.368 . S
C2579 C2563 1.349 . S
C2579 H2571 0.950 . S
C2579 C2577 1.327 . S
C2580 C2568 1.349 . S
C2580 H2574 0.950 . S
C2580 C2581 1.327 . S
C2581 H2575 0.950 . S
C2581 C2580 1.327 . S
C2581 C2585 1.429 . S
C2582 C2565 1.574 . S
C2582 H2576 0.949 . S
C2582 C2586 1.368 . S
C2583 C2564 1.429 . S
C2583 C2577 1.429 . S
C2583 C2584 1.523 1_554 S
C2584 C2565 1.368 . S
C2584 C2578 1.368 . S
C2584 C2583 1.523 1_556 S
C2585 C2569 1.429 . S
C2585 C2581 1.429 . S
C2585 C2586 1.523 . S
C2586 C2570 1.368 . S
C2586 C2582 1.368 . S
C2586 C2585 1.523 . S
H2587 C2562 0.950 . S
H2588 C2564 0.950 . S
H2589 C2565 0.949 1_554 S
H2590 C2567 0.950 . S
H2591 C2569 0.950 . S
C2592 C2593 1.349 . S
C2592 C2594 1.327 . S
C2592 H2617 0.950 . S
C2593 C2592 1.349 . S
C2593 C2609 1.349 . S
C2594 C2592 1.327 . S
C2594 C2613 1.429 . S
C2594 H2618 0.950 . S
C2595 C2612 1.574 . S
C2595 C2614 1.368 . S
C2595 H2619 0.949 . S
H2596 C2600 0.949 . S
C2597 C2598 1.349 . S
C2597 C2599 1.327 . S
C2597 H2620 0.950 . S
C2598 C2597 1.349 . S
C2598 C2610 1.349 . S
C2599 C2597 1.327 . S
C2599 C2615 1.429 . S
C2599 H2621 0.950 . S
C2600 H2596 0.949 . S
C2600 C2608 1.574 . S
C2600 C2616 1.368 . S
H2601 C2609 0.950 . S
H2602 C2607 0.950 . S
H2603 C2608 0.949 . S
H2604 C2610 0.950 . S
H2605 C2611 0.950 . S
H2606 C2612 0.949 . S
C2607 H2602 0.950 . S
C2607 C2609 1.327 . S
C2607 C2613 1.429 . S
C2608 C2600 1.574 . S
C2608 H2603 0.949 . S
C2608 C2614 1.368 . S
C2609 C2593 1.349 . S
C2609 H2601 0.950 . S
C2609 C2607 1.327 . S
C2610 C2598 1.349 . S
C2610 H2604 0.950 . S
C2610 C2611 1.327 . S
C2611 H2605 0.950 . S
C2611 C2610 1.327 . S
C2611 C2615 1.429 . S
C2612 C2595 1.574 . S
C2612 H2606 0.949 . S
C2612 C2616 1.368 . S
C2613 C2594 1.429 . S
C2613 C2607 1.429 . S
C2613 C2614 1.523 . S
C2614 C2595 1.368 . S
C2614 C2608 1.368 . S
C2614 C2613 1.523 . S
C2615 C2599 1.429 . S
C2615 C2611 1.429 . S
C2615 C2616 1.523 . S
C2616 C2600 1.368 . S
C2616 C2612 1.368 . S
C2616 C2615 1.523 . S
H2617 C2592 0.950 . S
H2618 C2594 0.950 . S
H2619 C2595 0.949 . S
H2620 C2597 0.950 . S
H2621 C2599 0.950 . S
C2622 C2623 1.349 . S
C2622 C2624 1.327 . S
C2622 H2647 0.950 . S
C2623 C2622 1.349 . S
C2623 C2639 1.349 . S
C2624 C2622 1.327 . S
C2624 C2643 1.429 . S
C2624 H2648 0.950 . S
C2625 C2642 1.574 . S
C2625 C2644 1.368 . S
C2625 H2649 0.949 . S
H2626 C2630 0.949 . S
C2627 C2628 1.349 . S
C2627 C2629 1.327 . S
C2627 H2650 0.950 . S
C2628 C2627 1.349 . S
C2628 C2640 1.349 . S
C2629 C2627 1.327 . S
C2629 C2645 1.429 . S
C2629 H2651 0.950 . S
C2630 H2626 0.949 . S
C2630 C2638 1.574 . S
C2630 C2646 1.368 . S
H2631 C2639 0.950 . S
H2632 C2637 0.950 . S
H2633 C2638 0.949 . S
H2634 C2640 0.950 . S
H2635 C2641 0.950 . S
H2636 C2642 0.949 . S
C2637 H2632 0.950 . S
C2637 C2639 1.327 . S
C2637 C2643 1.429 . S
C2638 C2630 1.574 . S
C2638 H2633 0.949 . S
C2638 C2644 1.368 . S
C2639 C2623 1.349 . S
C2639 H2631 0.950 . S
C2639 C2637 1.327 . S
C2640 C2628 1.349 . S
C2640 H2634 0.950 . S
C2640 C2641 1.327 . S
C2641 H2635 0.950 . S
C2641 C2640 1.327 . S
C2641 C2645 1.429 . S
C2642 C2625 1.574 . S
C2642 H2636 0.949 . S
C2642 C2646 1.368 . S
C2643 C2624 1.429 . S
C2643 C2637 1.429 . S
C2643 C2644 1.523 . S
C2644 C2625 1.368 . S
C2644 C2638 1.368 . S
C2644 C2643 1.523 . S
C2645 C2629 1.429 . S
C2645 C2641 1.429 . S
C2645 C2646 1.523 . S
C2646 C2630 1.368 . S
C2646 C2642 1.368 . S
C2646 C2645 1.523 . S
H2647 C2622 0.950 . S
H2648 C2624 0.950 . S
H2649 C2625 0.949 . S
H2650 C2627 0.950 . S
H2651 C2629 0.950 . S
C2652 C2653 1.349 . S
C2652 C2654 1.327 . S
C2652 H2677 0.950 . S
C2653 C2652 1.349 . S
C2653 C2669 1.349 . S
C2654 C2652 1.327 . S
C2654 C2673 1.429 . S
C2654 H2678 0.950 . S
C2655 C2672 1.574 . S
C2655 C2674 1.368 . S
C2655 H2679 0.949 . S
H2656 C2660 0.949 . S
C2657 C2658 1.349 . S
C2657 C2659 1.327 . S
C2657 H2680 0.950 . S
C2658 C2657 1.349 . S
C2658 C2670 1.349 . S
C2659 C2657 1.327 . S
C2659 C2675 1.429 . S
C2659 H2681 0.950 . S
C2660 H2656 0.949 . S
C2660 C2668 1.574 . S
C2660 C2676 1.368 . S
H2661 C2669 0.950 . S
H2662 C2667 0.950 . S
H2663 C2668 0.949 . S
H2664 C2670 0.950 . S
H2665 C2671 0.950 . S
H2666 C2672 0.949 . S
C2667 H2662 0.950 . S
C2667 C2669 1.327 . S
C2667 C2673 1.429 . S
C2668 C2660 1.574 . S
C2668 H2663 0.949 . S
C2668 C2674 1.368 . S
C2669 C2653 1.349 . S
C2669 H2661 0.950 . S
C2669 C2667 1.327 . S
C2670 C2658 1.349 . S
C2670 H2664 0.950 . S
C2670 C2671 1.327 . S
C2671 H2665 0.950 . S
C2671 C2670 1.327 . S
C2671 C2675 1.429 . S
C2672 C2655 1.574 . S
C2672 H2666 0.949 . S
C2672 C2676 1.368 . S
C2673 C2654 1.429 . S
C2673 C2667 1.429 . S
C2673 C2674 1.523 . S
C2674 C2655 1.368 . S
C2674 C2668 1.368 . S
C2674 C2673 1.523 . S
C2675 C2659 1.429 . S
C2675 C2671 1.429 . S
C2675 C2676 1.523 . S
C2676 C2660 1.368 . S
C2676 C2672 1.368 . S
C2676 C2675 1.523 . S
H2677 C2652 0.950 . S
H2678 C2654 0.950 . S
H2679 C2655 0.949 . S
H2680 C2657 0.950 . S
H2681 C2659 0.950 . S
C2682 C2683 1.349 . S
C2682 C2684 1.327 . S
C2682 H2707 0.950 . S
C2683 C2682 1.349 . S
C2683 C2699 1.349 . S
C2684 C2682 1.327 . S
C2684 C2703 1.429 . S
C2684 H2708 0.950 . S
C2685 C2702 1.574 . S
C2685 C2704 1.368 . S
C2685 H2709 0.949 . S
H2686 C2690 0.949 . S
C2687 C2688 1.349 . S
C2687 C2689 1.327 . S
C2687 H2710 0.950 . S
C2688 C2687 1.349 . S
C2688 C2700 1.349 . S
C2689 C2687 1.327 . S
C2689 C2705 1.429 . S
C2689 H2711 0.950 . S
C2690 H2686 0.949 . S
C2690 C2698 1.574 . S
C2690 C2706 1.368 . S
H2691 C2699 0.950 . S
H2692 C2697 0.950 . S
H2693 C2698 0.949 . S
H2694 C2700 0.950 . S
H2695 C2701 0.950 . S
H2696 C2702 0.949 . S
C2697 H2692 0.950 . S
C2697 C2699 1.327 . S
C2697 C2703 1.429 . S
C2698 C2690 1.574 . S
C2698 H2693 0.949 . S
C2698 C2704 1.368 . S
C2699 C2683 1.349 . S
C2699 H2691 0.950 . S
C2699 C2697 1.327 . S
C2700 C2688 1.349 . S
C2700 H2694 0.950 . S
C2700 C2701 1.327 . S
C2701 H2695 0.950 . S
C2701 C2700 1.327 . S
C2701 C2705 1.429 . S
C2702 C2685 1.574 . S
C2702 H2696 0.949 . S
C2702 C2706 1.368 . S
C2703 C2684 1.429 . S
C2703 C2697 1.429 . S
C2703 C2704 1.523 . S
C2704 C2685 1.368 . S
C2704 C2698 1.368 . S
C2704 C2703 1.523 . S
C2705 C2689 1.429 . S
C2705 C2701 1.429 . S
C2705 C2706 1.523 . S
C2706 C2690 1.368 . S
C2706 C2702 1.368 . S
C2706 C2705 1.523 . S
H2707 C2682 0.950 . S
H2708 C2684 0.950 . S
H2709 C2685 0.949 . S
H2710 C2687 0.950 . S
H2711 C2689 0.950 . S
C1273 C29 1.395 . S
C1278 C506 1.395 . S
C1303 C82 1.174 . S
C1308 C559 1.173 . S
C1333 C622 1.672 . S
C1338 C135 1.674 . S
C1363 C463 1.656 . S
C1368 C188 1.656 . S
C1393 C569 1.480 . S
C1398 C251 1.479 . S
C1423 C304 1.219 . S
C1428 C612 1.221 . S
C1453 C357 1.570 . S
C1458 C453 1.570 . S
C1483 C516 1.720 . S
C1488 C410 1.720 . S
C1513 C241 1.486 . S
C1518 C674 1.487 . S
C1543 C400 1.210 . S
C1548 C817 1.209 . S
C1573 C887 1.664 . S
C1578 C294 1.666 . S
C1603 C198 1.500 . S
C1608 C728 1.501 . S
C1633 C780 1.563 . S
C1638 C347 1.563 . S
C1663 C39 1.597 . S
C1668 C1036 1.596 . S
C1693 C145 1.206 . S
C1698 C983 1.206 . S
C1723 C833 1.427 . S
C1728 C1152 1.425 . S
C1753 C1205 1.555 . S
C1758 C658 1.556 . S
C1783 C1258 1.196 . S
C1788 C877 1.197 . S
C1813 C1099 1.220 . S
C1818 C764 1.221 . S
C1843 C1195 1.452 . S
C1848 C930 1.450 . S
C1873 C993 1.699 . S
C1878 C1248 1.700 . S
C1903 C1089 1.218 . S
C1908 C718 1.218 . S
C1933 C1046 1.341 . S
C1938 C1142 1.341 . S
C1963 C92 1.528 . S
C1968 C940 1.528 . S
C1993 C250 1.033 . S
C1998 C22 1.030 . S
C2023 C75 0.776 . S
C2028 C303 0.776 . S
C2053 C128 1.212 . S
C2058 C356 1.215 . S
C2083 C409 1.219 . S
C2088 C181 1.216 . S
C2113 C462 1.298 . S
C2118 C515 1.296 . S
C2143 C499 1.021 . S
C2148 C568 1.023 . S
C2173 C605 0.772 . S
C2178 C552 0.772 . S
C2203 C446 1.147 . S
C2208 C621 1.150 . S
C2233 C197 1.092 . S
C2238 C675 1.090 . S
C2263 C393 0.802 . S
C2268 C976 0.802 . S
C2293 C234 1.125 . S
C2298 C727 1.126 . S
C2323 C1029 1.105 . S
C2328 C287 1.103 . S
C2353 C781 1.065 . S
C2358 C91 1.066 . S
C2383 C38 1.145 . S
C2388 C886 1.146 . S
C2413 C144 0.695 . S
C2418 C824 0.695 . S
C2443 C834 1.019 . S
C2448 C923 1.020 . S
C2473 C992 1.093 . S
C2478 C665 1.090 . S
C2503 C870 0.763 . S
C2508 C711 0.763 . S
C2533 C771 0.889 . S
C2538 C1045 0.890 . S
C2563 C1135 0.852 . S
C2568 C1098 0.853 . S
C2593 C1188 1.021 . S
C2598 C1151 1.023 . S
C2623 C1241 1.215 . S
C2628 C1204 1.219 . S
C2653 C1082 0.800 . S
C2658 C1257 0.800 . S
C2683 C939 1.106 . S
C2688 C340 1.105 . S
