# Generated by pormake.
# Topology ukc, (4)-cn, num edge types: 1
# Building blocks:
#     Node 0, Type 0, BuildingBlock: CEKHIL_clean_sbu_0, # of connection points: 4
#     Node 1, Type 0, BuildingBlock: CEKHIL_clean_sbu_0, # of connection points: 4
#     Node 2, Type 0, BuildingBlock: CEKHIL_clean_sbu_0, # of connection points: 4
#     Node 3, Type 0, BuildingBlock: CEKHIL_clean_sbu_0, # of connection points: 4
#     Node 4, Type 0, BuildingBlock: CEKHIL_clean_sbu_0, # of connection points: 4
#     Node 5, Type 0, BuildingBlock: CEKHIL_clean_sbu_0, # of connection points: 4
#     Node 6, Type 0, BuildingBlock: CEKHIL_clean_sbu_0, # of connection points: 4
#     Node 7, Type 0, BuildingBlock: CEKHIL_clean_sbu_0, # of connection points: 4
#     Node 8, Type 0, BuildingBlock: CEKHIL_clean_sbu_0, # of connection points: 4
#     Node 9, Type 0, BuildingBlock: CEKHIL_clean_sbu_0, # of connection points: 4
#     Node 10, Type 0, BuildingBlock: CEKHIL_clean_sbu_0, # of connection points: 4
#     Node 11, Type 0, BuildingBlock: CEKHIL_clean_sbu_0, # of connection points: 4
#     Node 12, Type 0, BuildingBlock: CEKHIL_clean_sbu_0, # of connection points: 4
#     Node 13, Type 0, BuildingBlock: CEKHIL_clean_sbu_0, # of connection points: 4
#     Node 14, Type 0, BuildingBlock: CEKHIL_clean_sbu_0, # of connection points: 4
#     Node 15, Type 0, BuildingBlock: CEKHIL_clean_sbu_0, # of connection points: 4
#     Node 16, Type 0, BuildingBlock: CEKHIL_clean_sbu_0, # of connection points: 4
#     Node 17, Type 0, BuildingBlock: CEKHIL_clean_sbu_0, # of connection points: 4
#     Node 18, Type 0, BuildingBlock: CEKHIL_clean_sbu_0, # of connection points: 4
#     Node 19, Type 0, BuildingBlock: CEKHIL_clean_sbu_0, # of connection points: 4
#     Node 20, Type 0, BuildingBlock: CEKHIL_clean_sbu_0, # of connection points: 4
#     Node 21, Type 0, BuildingBlock: CEKHIL_clean_sbu_0, # of connection points: 4
#     Node 22, Type 0, BuildingBlock: CEKHIL_clean_sbu_0, # of connection points: 4
#     Node 23, Type 0, BuildingBlock: CEKHIL_clean_sbu_0, # of connection points: 4
#     Node 24, Type 0, BuildingBlock: CEKHIL_clean_sbu_0, # of connection points: 4
#     Node 25, Type 0, BuildingBlock: CEKHIL_clean_sbu_0, # of connection points: 4
#     Node 26, Type 0, BuildingBlock: CEKHIL_clean_sbu_0, # of connection points: 4
#     Node 27, Type 0, BuildingBlock: CEKHIL_clean_sbu_0, # of connection points: 4
#     Node 28, Type 0, BuildingBlock: CEKHIL_clean_sbu_0, # of connection points: 4
#     Node 29, Type 0, BuildingBlock: CEKHIL_clean_sbu_0, # of connection points: 4
#     Node 30, Type 0, BuildingBlock: CEKHIL_clean_sbu_0, # of connection points: 4
#     Node 31, Type 0, BuildingBlock: CEKHIL_clean_sbu_0, # of connection points: 4
#     Edge 32, Type (0, 0), BuildingBlock: TEMPAE_clean_linker_10, # of connection points: 2
#     Edge 33, Type (0, 0), BuildingBlock: TEMPAE_clean_linker_10, # of connection points: 2
#     Edge 34, Type (0, 0), BuildingBlock: TEMPAE_clean_linker_10, # of connection points: 2
#     Edge 35, Type (0, 0), BuildingBlock: TEMPAE_clean_linker_10, # of connection points: 2
#     Edge 36, Type (0, 0), BuildingBlock: TEMPAE_clean_linker_10, # of connection points: 2
#     Edge 37, Type (0, 0), BuildingBlock: TEMPAE_clean_linker_10, # of connection points: 2
#     Edge 38, Type (0, 0), BuildingBlock: TEMPAE_clean_linker_10, # of connection points: 2
#     Edge 39, Type (0, 0), BuildingBlock: TEMPAE_clean_linker_10, # of connection points: 2
#     Edge 40, Type (0, 0), BuildingBlock: TEMPAE_clean_linker_10, # of connection points: 2
#     Edge 41, Type (0, 0), BuildingBlock: TEMPAE_clean_linker_10, # of connection points: 2
#     Edge 42, Type (0, 0), BuildingBlock: TEMPAE_clean_linker_10, # of connection points: 2
#     Edge 43, Type (0, 0), BuildingBlock: TEMPAE_clean_linker_10, # of connection points: 2
#     Edge 44, Type (0, 0), BuildingBlock: TEMPAE_clean_linker_10, # of connection points: 2
#     Edge 45, Type (0, 0), BuildingBlock: TEMPAE_clean_linker_10, # of connection points: 2
#     Edge 46, Type (0, 0), BuildingBlock: TEMPAE_clean_linker_10, # of connection points: 2
#     Edge 47, Type (0, 0), BuildingBlock: TEMPAE_clean_linker_10, # of connection points: 2
#     Edge 48, Type (0, 0), BuildingBlock: TEMPAE_clean_linker_10, # of connection points: 2
#     Edge 49, Type (0, 0), BuildingBlock: TEMPAE_clean_linker_10, # of connection points: 2
#     Edge 50, Type (0, 0), BuildingBlock: TEMPAE_clean_linker_10, # of connection points: 2
#     Edge 51, Type (0, 0), BuildingBlock: TEMPAE_clean_linker_10, # of connection points: 2
#     Edge 52, Type (0, 0), BuildingBlock: TEMPAE_clean_linker_10, # of connection points: 2
#     Edge 53, Type (0, 0), BuildingBlock: TEMPAE_clean_linker_10, # of connection points: 2
#     Edge 54, Type (0, 0), BuildingBlock: TEMPAE_clean_linker_10, # of connection points: 2
#     Edge 55, Type (0, 0), BuildingBlock: TEMPAE_clean_linker_10, # of connection points: 2
#     Edge 56, Type (0, 0), BuildingBlock: TEMPAE_clean_linker_10, # of connection points: 2
#     Edge 57, Type (0, 0), BuildingBlock: TEMPAE_clean_linker_10, # of connection points: 2
#     Edge 58, Type (0, 0), BuildingBlock: TEMPAE_clean_linker_10, # of connection points: 2
#     Edge 59, Type (0, 0), BuildingBlock: TEMPAE_clean_linker_10, # of connection points: 2
#     Edge 60, Type (0, 0), BuildingBlock: TEMPAE_clean_linker_10, # of connection points: 2
#     Edge 61, Type (0, 0), BuildingBlock: TEMPAE_clean_linker_10, # of connection points: 2
#     Edge 62, Type (0, 0), BuildingBlock: TEMPAE_clean_linker_10, # of connection points: 2
#     Edge 63, Type (0, 0), BuildingBlock: TEMPAE_clean_linker_10, # of connection points: 2
#     Edge 64, Type (0, 0), BuildingBlock: TEMPAE_clean_linker_10, # of connection points: 2
#     Edge 65, Type (0, 0), BuildingBlock: TEMPAE_clean_linker_10, # of connection points: 2
#     Edge 66, Type (0, 0), BuildingBlock: TEMPAE_clean_linker_10, # of connection points: 2
#     Edge 67, Type (0, 0), BuildingBlock: TEMPAE_clean_linker_10, # of connection points: 2
#     Edge 68, Type (0, 0), BuildingBlock: TEMPAE_clean_linker_10, # of connection points: 2
#     Edge 69, Type (0, 0), BuildingBlock: TEMPAE_clean_linker_10, # of connection points: 2
#     Edge 70, Type (0, 0), BuildingBlock: TEMPAE_clean_linker_10, # of connection points: 2
#     Edge 71, Type (0, 0), BuildingBlock: TEMPAE_clean_linker_10, # of connection points: 2
#     Edge 72, Type (0, 0), BuildingBlock: TEMPAE_clean_linker_10, # of connection points: 2
#     Edge 73, Type (0, 0), BuildingBlock: TEMPAE_clean_linker_10, # of connection points: 2
#     Edge 74, Type (0, 0), BuildingBlock: TEMPAE_clean_linker_10, # of connection points: 2
#     Edge 75, Type (0, 0), BuildingBlock: TEMPAE_clean_linker_10, # of connection points: 2
#     Edge 76, Type (0, 0), BuildingBlock: TEMPAE_clean_linker_10, # of connection points: 2
#     Edge 77, Type (0, 0), BuildingBlock: TEMPAE_clean_linker_10, # of connection points: 2
#     Edge 78, Type (0, 0), BuildingBlock: TEMPAE_clean_linker_10, # of connection points: 2
#     Edge 79, Type (0, 0), BuildingBlock: TEMPAE_clean_linker_10, # of connection points: 2
#     Edge 80, Type (0, 0), BuildingBlock: TEMPAE_clean_linker_10, # of connection points: 2
#     Edge 81, Type (0, 0), BuildingBlock: TEMPAE_clean_linker_10, # of connection points: 2
#     Edge 82, Type (0, 0), BuildingBlock: TEMPAE_clean_linker_10, # of connection points: 2
#     Edge 83, Type (0, 0), BuildingBlock: TEMPAE_clean_linker_10, # of connection points: 2
#     Edge 84, Type (0, 0), BuildingBlock: TEMPAE_clean_linker_10, # of connection points: 2
#     Edge 85, Type (0, 0), BuildingBlock: TEMPAE_clean_linker_10, # of connection points: 2
#     Edge 86, Type (0, 0), BuildingBlock: TEMPAE_clean_linker_10, # of connection points: 2
#     Edge 87, Type (0, 0), BuildingBlock: TEMPAE_clean_linker_10, # of connection points: 2
#     Edge 88, Type (0, 0), BuildingBlock: TEMPAE_clean_linker_10, # of connection points: 2
#     Edge 89, Type (0, 0), BuildingBlock: TEMPAE_clean_linker_10, # of connection points: 2
#     Edge 90, Type (0, 0), BuildingBlock: TEMPAE_clean_linker_10, # of connection points: 2
#     Edge 91, Type (0, 0), BuildingBlock: TEMPAE_clean_linker_10, # of connection points: 2
#     Edge 92, Type (0, 0), BuildingBlock: TEMPAE_clean_linker_10, # of connection points: 2
#     Edge 93, Type (0, 0), BuildingBlock: TEMPAE_clean_linker_10, # of connection points: 2
#     Edge 94, Type (0, 0), BuildingBlock: TEMPAE_clean_linker_10, # of connection points: 2
#     Edge 95, Type (0, 0), BuildingBlock: TEMPAE_clean_linker_10, # of connection points: 2
# Relax obj value: 0.050
# Max RMSD: 0.066
# Mean RMSD: 0.066
data_MOF--net-ukc--node1-CEKHIL_clean_sbu_0--edge1-TEMPAE_clean_linker_10
_symmetry_space_group_name_H-M    P1
_symmetry_Int_Tables_number       1
_symmetry_cell_setting            triclinic
loop_
_symmetry_equiv_pos_as_xyz
'x, y, z'
_cell_length_a     44.974405
_cell_length_b     44.973183
_cell_length_c     86.675197
_cell_angle_alpha  89.999072
_cell_angle_beta   89.999675
_cell_angle_gamma 89.998245
loop_
_atom_site_label
_atom_site_type_symbol
_atom_site_fract_x
_atom_site_fract_y
_atom_site_fract_z
_atom_type_partial_charge
Co0 Co 0.11207 0.39143 0.04352 0.0
O1 O 0.14593 0.41626 0.03862 0.0
O2 O 0.13213 0.37737 0.02493 0.0
C3 C 0.12373 0.38722 0.06875 0.0
O4 O 0.07977 0.35922 0.0454 0.0
Co5 Co 0.06451 0.40987 0.06797 0.0
O6 O 0.05229 0.3677 0.06661 0.0
C7 C 0.06143 0.43407 0.03607 0.0
C8 C 0.15152 0.3984 0.02725 0.0
C9 C 0.05966 0.35133 0.05523 0.0
O10 O 0.0839 0.41837 0.03149 0.0
O11 O 0.0522 0.43474 0.05004 0.0
O12 O 0.13619 0.36981 0.0587 0.0
O13 O 0.10621 0.4072 0.06329 0.0
Co14 Co 0.8663 0.86253 0.29307 0.0
O15 O 0.84061 0.89586 0.28817 0.0
O16 O 0.88027 0.88328 0.27473 0.0
C17 C 0.86992 0.87314 0.31852 0.0
O18 O 0.89953 0.83114 0.2949 0.0
Co19 Co 0.84798 0.81317 0.31676 0.0
O20 O 0.88993 0.80067 0.31488 0.0
C21 C 0.82473 0.81128 0.28478 0.0
C22 C 0.85869 0.90207 0.27694 0.0
C23 C 0.90693 0.80975 0.30411 0.0
O24 O 0.84058 0.83392 0.28057 0.0
O25 O 0.82343 0.8016 0.29863 0.0
O26 O 0.88639 0.88722 0.30862 0.0
O27 O 0.85069 0.85514 0.31275 0.0
Co28 Co 0.39692 0.62003 0.54282 0.0
O29 O 0.36309 0.59488 0.53828 0.0
O30 O 0.3758 0.63409 0.52455 0.0
C31 C 0.38661 0.62381 0.56825 0.0
O32 O 0.42897 0.65257 0.5444 0.0
Co33 Co 0.44592 0.60149 0.56654 0.0
O34 O 0.4583 0.64357 0.5649 0.0
C35 C 0.44739 0.57774 0.53455 0.0
C36 C 0.3568 0.61275 0.52701 0.0
C37 C 0.44994 0.66019 0.5538 0.0
O38 O 0.42472 0.59352 0.53032 0.0
O39 O 0.4573 0.57683 0.54838 0.0
O40 O 0.37335 0.64115 0.55844 0.0
O41 O 0.404 0.6041 0.56243 0.0
Co42 Co 0.6432 0.14571 0.79305 0.0
O43 O 0.66632 0.11021 0.78913 0.0
O44 O 0.62913 0.12533 0.77455 0.0
C45 C 0.63694 0.13618 0.8184 0.0
O46 O 0.61285 0.17986 0.79395 0.0
Co47 Co 0.66411 0.19373 0.8167 0.0
O48 O 0.62355 0.20995 0.81395 0.0
C49 C 0.69294 0.18929 0.78611 0.0
C50 C 0.649 0.10503 0.77748 0.0
C51 C 0.60659 0.20197 0.80291 0.0
O52 O 0.67269 0.17125 0.78109 0.0
O53 O 0.69469 0.19779 0.80017 0.0
O54 O 0.61938 0.12391 0.80834 0.0
O55 O 0.65818 0.15202 0.81287 0.0
Co56 Co 0.11328 0.61411 0.45944 0.0
O57 O 0.14798 0.59021 0.46405 0.0
O58 O 0.13367 0.62887 0.47779 0.0
C59 C 0.12372 0.61848 0.43405 0.0
O60 O 0.08011 0.64543 0.45784 0.0
Co61 Co 0.06523 0.59391 0.43559 0.0
O62 O 0.05083 0.63531 0.43746 0.0
C63 C 0.06387 0.57051 0.46765 0.0
C64 C 0.1535 0.6083 0.47535 0.0
C65 C 0.05866 0.65219 0.44855 0.0
O66 O 0.08626 0.58669 0.47187 0.0
O67 O 0.05403 0.56933 0.45381 0.0
O68 O 0.13621 0.63619 0.44394 0.0
O69 O 0.10703 0.59803 0.43974 0.0
Co70 Co 0.63893 0.86189 0.70983 0.0
O71 O 0.66433 0.89542 0.71463 0.0
O72 O 0.62448 0.88311 0.72797 0.0
C73 C 0.63616 0.87223 0.68437 0.0
O74 O 0.60601 0.83035 0.708 0.0
Co75 Co 0.65718 0.8125 0.68633 0.0
O76 O 0.61462 0.80156 0.68728 0.0
C77 C 0.67988 0.81061 0.71853 0.0
C78 C 0.64609 0.90187 0.72572 0.0
C79 C 0.59798 0.80998 0.69834 0.0
O80 O 0.66461 0.83374 0.72258 0.0
O81 O 0.68083 0.80048 0.70474 0.0
O82 O 0.6187 0.88574 0.69403 0.0
O83 O 0.6554 0.85452 0.69036 0.0
Co84 Co 0.39467 0.39245 0.95929 0.0
O85 O 0.36037 0.41686 0.96396 0.0
O86 O 0.37375 0.37755 0.97745 0.0
C87 C 0.38456 0.38906 0.93383 0.0
O88 O 0.42733 0.36058 0.95756 0.0
Co89 Co 0.44343 0.41257 0.93579 0.0
O90 O 0.45712 0.37091 0.9374 0.0
C91 C 0.44455 0.43511 0.96801 0.0
C92 C 0.35437 0.39859 0.9751 0.0
C93 C 0.44883 0.3538 0.94831 0.0
O94 O 0.42195 0.41905 0.97204 0.0
O95 O 0.45461 0.43656 0.95422 0.0
O96 O 0.37158 0.37127 0.94352 0.0
O97 O 0.40153 0.40899 0.93978 0.0
Co98 Co 0.86551 0.14563 0.20913 0.0
O99 O 0.84189 0.11041 0.21299 0.0
O100 O 0.87994 0.12434 0.22728 0.0
C101 C 0.87056 0.13725 0.18355 0.0
O102 O 0.89638 0.17932 0.20821 0.0
Co103 Co 0.84413 0.19506 0.18631 0.0
O104 O 0.88537 0.20992 0.18848 0.0
C105 C 0.81658 0.18937 0.21712 0.0
C106 C 0.85949 0.10458 0.22445 0.0
C107 C 0.90272 0.2014 0.19924 0.0
O108 O 0.83705 0.17118 0.22172 0.0
O109 O 0.8141 0.19838 0.20318 0.0
O110 O 0.88815 0.124 0.19326 0.0
O111 O 0.84989 0.15316 0.18959 0.0
Co112 Co 0.8969 0.6177 0.95958 0.0
O113 O 0.8612 0.59458 0.96306 0.0
O114 O 0.87529 0.63232 0.97755 0.0
C115 C 0.88955 0.62317 0.93394 0.0
O116 O 0.93095 0.6481 0.9591 0.0
Co117 Co 0.94695 0.59596 0.93728 0.0
O118 O 0.96262 0.63684 0.93988 0.0
C119 C 0.93973 0.56818 0.96793 0.0
C120 C 0.85531 0.6122 0.97451 0.0
C121 C 0.95366 0.65419 0.95055 0.0
O122 O 0.92161 0.58883 0.97236 0.0
O123 O 0.94923 0.56565 0.95407 0.0
O124 O 0.87621 0.64083 0.94359 0.0
O125 O 0.90493 0.60216 0.94005 0.0
Co126 Co 0.14352 0.14598 0.70969 0.0
O127 O 0.16681 0.11052 0.71348 0.0
O128 O 0.12923 0.125 0.72796 0.0
C129 C 0.13772 0.13758 0.68417 0.0
O130 O 0.11301 0.17999 0.70886 0.0
Co131 Co 0.16509 0.195 0.68667 0.0
O132 O 0.12412 0.21048 0.68909 0.0
C133 C 0.19311 0.18924 0.71735 0.0
C134 C 0.1494 0.10498 0.72505 0.0
C135 C 0.10683 0.20215 0.69992 0.0
O136 O 0.17253 0.1713 0.72207 0.0
O137 O 0.19545 0.19812 0.70338 0.0
O138 O 0.12022 0.12456 0.69401 0.0
O139 O 0.15878 0.1532 0.69004 0.0
Co140 Co 0.61171 0.39322 0.45885 0.0
O141 O 0.64725 0.41626 0.46284 0.0
O142 O 0.63242 0.37846 0.47708 0.0
C143 C 0.62052 0.38799 0.43335 0.0
O144 O 0.57768 0.36281 0.45789 0.0
Co145 Co 0.56285 0.41477 0.43583 0.0
O146 O 0.54685 0.37402 0.43829 0.0
C147 C 0.56842 0.44269 0.46657 0.0
C148 C 0.6526 0.39851 0.47431 0.0
C149 C 0.55532 0.35672 0.44908 0.0
O150 O 0.58639 0.42213 0.47129 0.0
O151 O 0.5596 0.44503 0.45259 0.0
O152 O 0.6332 0.37014 0.44314 0.0
O153 O 0.60473 0.40891 0.43925 0.0
Co154 Co 0.36734 0.86319 0.2101 0.0
O155 O 0.3439 0.89843 0.21414 0.0
O156 O 0.38141 0.88359 0.22857 0.0
C157 C 0.37327 0.8727 0.18474 0.0
O158 O 0.39808 0.82945 0.20911 0.0
Co159 Co 0.34693 0.81481 0.18655 0.0
O160 O 0.38813 0.79988 0.18883 0.0
C161 C 0.31825 0.81899 0.21719 0.0
C162 C 0.36128 0.90369 0.22576 0.0
C163 C 0.40495 0.80791 0.19992 0.0
O164 O 0.33831 0.83729 0.22215 0.0
O165 O 0.31648 0.81038 0.20314 0.0
O166 O 0.39076 0.88523 0.19475 0.0
O167 O 0.35223 0.85665 0.19032 0.0
Co168 Co 0.895 0.38959 0.54293 0.0
O169 O 0.8602 0.4136 0.53875 0.0
O170 O 0.87434 0.37553 0.52453 0.0
C171 C 0.88529 0.38445 0.56834 0.0
O172 O 0.92819 0.35826 0.54405 0.0
Co173 Co 0.94375 0.40946 0.56637 0.0
O174 O 0.95782 0.3679 0.56434 0.0
C175 C 0.94012 0.43769 0.53559 0.0
C176 C 0.85462 0.39608 0.52723 0.0
C177 C 0.94956 0.3511 0.5533 0.0
O178 O 0.92142 0.41791 0.53072 0.0
O179 O 0.94881 0.43949 0.54962 0.0
O180 O 0.87249 0.36695 0.55843 0.0
O181 O 0.90181 0.40498 0.56262 0.0
Co182 Co 0.36658 0.14676 0.29403 0.0
O183 O 0.34339 0.11129 0.2901 0.0
O184 O 0.38118 0.12592 0.2758 0.0
C185 C 0.3719 0.13801 0.31954 0.0
O186 O 0.39708 0.18073 0.29495 0.0
Co187 Co 0.3451 0.1957 0.31705 0.0
O188 O 0.38581 0.21173 0.31448 0.0
C189 C 0.31714 0.19011 0.28633 0.0
C190 C 0.36105 0.10583 0.27862 0.0
C191 C 0.40313 0.20318 0.30371 0.0
O192 O 0.3377 0.17214 0.2816 0.0
O193 O 0.31479 0.19891 0.30031 0.0
O194 O 0.38965 0.12523 0.30974 0.0
O195 O 0.35099 0.15382 0.31365 0.0
Co196 Co 0.6123 0.61769 0.04253 0.0
O197 O 0.64743 0.59414 0.03839 0.0
O198 O 0.63255 0.63171 0.024 0.0
C199 C 0.62212 0.62361 0.06786 0.0
O200 O 0.57867 0.64853 0.04362 0.0
Co201 Co 0.56413 0.5975 0.06625 0.0
O202 O 0.54954 0.63885 0.0641 0.0
C203 C 0.56782 0.56877 0.03559 0.0
C204 C 0.65262 0.61153 0.02677 0.0
C205 C 0.5574 0.65559 0.05295 0.0
O206 O 0.5862 0.58871 0.03057 0.0
O207 O 0.5593 0.56712 0.04966 0.0
O208 O 0.63457 0.64106 0.05781 0.0
O209 O 0.60594 0.60261 0.06233 0.0
Co210 Co 0.1395 0.86259 0.79325 0.0
O211 O 0.1658 0.89557 0.78852 0.0
O212 O 0.12581 0.88404 0.77509 0.0
C213 C 0.13629 0.8725 0.8188 0.0
O214 O 0.10562 0.83192 0.79488 0.0
Co215 Co 0.15668 0.8121 0.81651 0.0
O216 O 0.11448 0.80052 0.81454 0.0
C217 C 0.18 0.81077 0.78453 0.0
C218 C 0.14776 0.90236 0.77736 0.0
C219 C 0.0977 0.81039 0.80387 0.0
O220 O 0.16459 0.83383 0.7805 0.0
O221 O 0.18108 0.80065 0.7983 0.0
O222 O 0.12006 0.88724 0.80905 0.0
O223 O 0.15508 0.85425 0.81284 0.0
Co224 Co 0.61488 0.89369 0.54341 0.0
O225 O 0.65034 0.91685 0.53948 0.0
O226 O 0.63554 0.87937 0.52503 0.0
C227 C 0.62398 0.88789 0.56884 0.0
O228 O 0.58075 0.86331 0.54435 0.0
Co229 Co 0.56646 0.91519 0.56668 0.0
O230 O 0.55083 0.87425 0.56436 0.0
C231 C 0.57136 0.94319 0.53594 0.0
C232 C 0.65569 0.89943 0.5279 0.0
C233 C 0.55881 0.85707 0.55341 0.0
O234 O 0.58944 0.92278 0.53116 0.0
O235 O 0.56265 0.94545 0.54994 0.0
O236 O 0.63649 0.87022 0.55891 0.0
O237 O 0.60824 0.90903 0.56312 0.0
Co238 Co 0.36907 0.36281 0.79296 0.0
O239 O 0.34375 0.39631 0.78805 0.0
O240 O 0.38325 0.3834 0.77457 0.0
C241 C 0.37237 0.37399 0.8183 0.0
O242 O 0.40184 0.3311 0.79485 0.0
Co243 Co 0.35107 0.31431 0.81701 0.0
O244 O 0.39345 0.30279 0.81578 0.0
C245 C 0.32748 0.31165 0.78498 0.0
C246 C 0.36179 0.40235 0.7768 0.0
C247 C 0.4099 0.31082 0.80456 0.0
O248 O 0.34293 0.33443 0.78061 0.0
O249 O 0.32671 0.30206 0.79888 0.0
O250 O 0.38978 0.38704 0.80845 0.0
O251 O 0.35294 0.35617 0.81258 0.0
Co252 Co 0.89501 0.11688 0.04282 0.0
O253 O 0.86063 0.09256 0.03822 0.0
O254 O 0.87471 0.13106 0.02431 0.0
C255 C 0.88415 0.1217 0.06811 0.0
O256 O 0.92788 0.14855 0.04443 0.0
Co257 Co 0.94278 0.09736 0.06699 0.0
O258 O 0.95704 0.13876 0.06491 0.0
C259 C 0.94463 0.07317 0.03511 0.0
C260 C 0.85506 0.11034 0.02681 0.0
C261 C 0.94919 0.15549 0.05377 0.0
O262 O 0.92243 0.08938 0.03066 0.0
O263 O 0.95409 0.07218 0.04902 0.0
O264 O 0.87167 0.13913 0.05808 0.0
O265 O 0.90106 0.10124 0.06261 0.0
Co266 Co 0.14169 0.64562 0.29311 0.0
O267 O 0.1661 0.61127 0.28851 0.0
O268 O 0.12708 0.62482 0.27485 0.0
C269 C 0.13782 0.63539 0.31858 0.0
O270 O 0.10991 0.67839 0.2947 0.0
Co271 Co 0.16155 0.69421 0.3168 0.0
O272 O 0.12014 0.70843 0.31477 0.0
C273 C 0.18463 0.69545 0.28468 0.0
C274 C 0.14803 0.60538 0.27726 0.0
C275 C 0.10319 0.70014 0.30381 0.0
O276 O 0.16857 0.67293 0.28053 0.0
O277 O 0.18592 0.70535 0.2985 0.0
O278 O 0.12022 0.62247 0.30878 0.0
O279 O 0.15785 0.65236 0.31272 0.0
Co280 Co 0.61161 0.11782 0.95923 0.0
O281 O 0.64564 0.09308 0.96396 0.0
O282 O 0.63257 0.13252 0.97742 0.0
C283 C 0.62191 0.12109 0.93379 0.0
O284 O 0.57926 0.15001 0.95741 0.0
Co285 Co 0.56282 0.09832 0.93559 0.0
O286 O 0.55072 0.14054 0.93668 0.0
C287 C 0.56131 0.07559 0.96779 0.0
C288 C 0.65176 0.11131 0.9751 0.0
C289 C 0.55865 0.15742 0.94775 0.0
O290 O 0.584 0.09143 0.9719 0.0
O291 O 0.55135 0.07433 0.95398 0.0
O292 O 0.63503 0.13875 0.9435 0.0
O293 O 0.60469 0.10136 0.93973 0.0
Co294 Co 0.14047 0.36192 0.20972 0.0
O295 O 0.16548 0.3958 0.21442 0.0
O296 O 0.12594 0.38304 0.22788 0.0
C297 C 0.13737 0.37212 0.18423 0.0
O298 O 0.10794 0.32991 0.20801 0.0
Co299 Co 0.1593 0.31272 0.18616 0.0
O300 O 0.11725 0.30021 0.18769 0.0
C301 C 0.18252 0.31144 0.21827 0.0
C302 C 0.14728 0.40208 0.22556 0.0
C303 C 0.10047 0.30876 0.19868 0.0
O304 O 0.16667 0.33412 0.22242 0.0
O305 O 0.18368 0.30152 0.20445 0.0
O306 O 0.11984 0.38548 0.19391 0.0
O307 O 0.15683 0.35467 0.19023 0.0
Co308 Co 0.89785 0.89029 0.45944 0.0
O309 O 0.86481 0.9163 0.46441 0.0
O310 O 0.87671 0.87614 0.47762 0.0
C311 C 0.88742 0.8875 0.43395 0.0
O312 O 0.92881 0.85669 0.4575 0.0
Co313 Co 0.94774 0.90842 0.43601 0.0
O314 O 0.9599 0.86636 0.4378 0.0
C315 C 0.94951 0.93097 0.46816 0.0
C316 C 0.85824 0.89802 0.4755 0.0
C317 C 0.95037 0.84925 0.44841 0.0
O318 O 0.9266 0.91535 0.47218 0.0
O319 O 0.95945 0.93237 0.45435 0.0
O320 O 0.87306 0.87094 0.4437 0.0
O321 O 0.90568 0.90631 0.43988 0.0
Co322 Co 0.36424 0.64599 0.70913 0.0
O323 O 0.34138 0.61026 0.7129 0.0
O324 O 0.37865 0.62528 0.72745 0.0
C325 C 0.37029 0.63729 0.68368 0.0
O326 O 0.39438 0.68029 0.70837 0.0
Co327 Co 0.34269 0.69462 0.68597 0.0
O328 O 0.38323 0.71099 0.6887 0.0
C329 C 0.31425 0.68894 0.71657 0.0
C330 C 0.35884 0.60496 0.72448 0.0
C331 C 0.40041 0.7027 0.69958 0.0
O332 O 0.33481 0.67106 0.72139 0.0
O333 O 0.31212 0.69776 0.70258 0.0
O334 O 0.38797 0.62475 0.69359 0.0
O335 O 0.34901 0.65282 0.68941 0.0
Co336 Co 0.39665 0.11815 0.46027 0.0
O337 O 0.36304 0.093 0.46521 0.0
O338 O 0.37625 0.13238 0.4787 0.0
C339 C 0.38542 0.12179 0.43497 0.0
O340 O 0.42846 0.15077 0.45832 0.0
Co341 Co 0.4449 0.09987 0.43615 0.0
O342 O 0.45636 0.14228 0.43726 0.0
C343 C 0.44776 0.07637 0.46818 0.0
C344 C 0.35716 0.11105 0.47648 0.0
C345 C 0.44852 0.15879 0.44849 0.0
O346 O 0.42499 0.09185 0.47256 0.0
O347 O 0.4573 0.07558 0.45428 0.0
O348 O 0.37249 0.13914 0.44489 0.0
O349 O 0.40307 0.1021 0.44061 0.0
Co350 Co 0.64105 0.64639 0.20889 0.0
O351 O 0.66463 0.61104 0.21249 0.0
O352 O 0.62679 0.62487 0.22697 0.0
C353 C 0.6357 0.63846 0.18331 0.0
O354 O 0.61013 0.68001 0.2083 0.0
Co355 Co 0.66167 0.69636 0.18625 0.0
O356 O 0.62045 0.71113 0.1887 0.0
C357 C 0.6901 0.68997 0.21683 0.0
C358 C 0.64711 0.60507 0.22397 0.0
C359 C 0.60342 0.70223 0.19952 0.0
O360 O 0.66975 0.67168 0.22147 0.0
O361 O 0.69215 0.6993 0.20292 0.0
O362 O 0.61815 0.62512 0.19301 0.0
O363 O 0.65643 0.65431 0.18933 0.0
Co364 Co 0.11354 0.892 0.95982 0.0
O365 O 0.14783 0.91691 0.96396 0.0
O366 O 0.13451 0.87849 0.97817 0.0
C367 C 0.12266 0.88658 0.93435 0.0
O368 O 0.08118 0.85973 0.95883 0.0
Co369 Co 0.06353 0.91119 0.93676 0.0
O370 O 0.04906 0.87001 0.93966 0.0
C371 C 0.06798 0.9396 0.96735 0.0
C372 C 0.15379 0.89942 0.97547 0.0
C373 C 0.05874 0.85285 0.95023 0.0
O374 O 0.08651 0.91959 0.97212 0.0
O375 O 0.05932 0.94171 0.95333 0.0
O376 O 0.13684 0.87025 0.94428 0.0
O377 O 0.10563 0.90671 0.94008 0.0
Co378 Co 0.8689 0.36217 0.70946 0.0
O379 O 0.84398 0.39614 0.71415 0.0
O380 O 0.88368 0.38343 0.72751 0.0
C381 C 0.87178 0.37199 0.68395 0.0
O382 O 0.90138 0.33015 0.70777 0.0
Co383 Co 0.84993 0.31259 0.68622 0.0
O384 O 0.89218 0.3006 0.68741 0.0
C385 C 0.82729 0.31162 0.71843 0.0
C386 C 0.8623 0.40244 0.72524 0.0
C387 C 0.90899 0.30919 0.69837 0.0
O388 O 0.84288 0.3346 0.72235 0.0
O389 O 0.82617 0.30119 0.7047 0.0
O390 O 0.88943 0.38545 0.69353 0.0
O391 O 0.85228 0.35467 0.69003 0.0
Co392 Co 0.39661 0.89219 0.04375 0.0
O393 O 0.36148 0.916 0.03996 0.0
O394 O 0.3754 0.87812 0.02553 0.0
C395 C 0.3882 0.88679 0.06928 0.0
O396 O 0.43003 0.86108 0.04447 0.0
Co397 Co 0.4463 0.9125 0.06661 0.0
O398 O 0.46114 0.87132 0.06409 0.0
C399 C 0.44055 0.94103 0.03604 0.0
C400 C 0.3557 0.89859 0.02841 0.0
C401 C 0.45223 0.85433 0.05326 0.0
O402 O 0.42227 0.92076 0.03131 0.0
O403 O 0.44964 0.94303 0.04999 0.0
O404 O 0.37491 0.86936 0.0595 0.0
O405 O 0.40426 0.90746 0.06335 0.0
Co406 Co 0.86498 0.64588 0.79321 0.0
O407 O 0.84256 0.60983 0.78955 0.0
O408 O 0.87904 0.62557 0.77468 0.0
C409 C 0.8722 0.63706 0.81856 0.0
O410 O 0.89453 0.6807 0.79378 0.0
Co411 Co 0.84327 0.69384 0.81668 0.0
O412 O 0.88349 0.71085 0.81369 0.0
C413 C 0.81424 0.68835 0.78623 0.0
C414 C 0.85964 0.60492 0.77778 0.0
C415 C 0.90045 0.70307 0.80261 0.0
O416 O 0.83478 0.6706 0.78128 0.0
O417 O 0.81235 0.69706 0.80025 0.0
O418 O 0.88969 0.62492 0.80843 0.0
O419 O 0.85036 0.6522 0.81311 0.0
Co420 Co 0.11285 0.11647 0.54341 0.0
O421 O 0.14851 0.09335 0.53991 0.0
O422 O 0.13388 0.13036 0.52507 0.0
C423 C 0.12125 0.12309 0.56882 0.0
O424 O 0.0787 0.14682 0.54386 0.0
Co425 Co 0.06381 0.09566 0.56646 0.0
O426 O 0.04798 0.13639 0.56362 0.0
C427 C 0.06988 0.06643 0.53609 0.0
C428 C 0.15405 0.1105 0.52823 0.0
C429 C 0.05641 0.15329 0.55265 0.0
O430 O 0.08787 0.08686 0.53123 0.0
O431 O 0.06081 0.06465 0.55005 0.0
O432 O 0.13396 0.14051 0.55884 0.0
O433 O 0.10573 0.10169 0.5632 0.0
Co434 Co 0.64081 0.36316 0.29264 0.0
O435 O 0.66577 0.39689 0.28763 0.0
O436 O 0.62655 0.38325 0.27412 0.0
C437 C 0.63699 0.37463 0.31791 0.0
O438 O 0.60838 0.33116 0.29463 0.0
Co439 Co 0.65922 0.31528 0.31694 0.0
O440 O 0.61688 0.30355 0.3158 0.0
C441 C 0.683 0.31228 0.28497 0.0
C442 C 0.64776 0.4025 0.27631 0.0
C443 C 0.60041 0.31116 0.3045 0.0
O444 O 0.66737 0.33486 0.28048 0.0
O445 O 0.68378 0.30292 0.29891 0.0
O446 O 0.6196 0.38737 0.30794 0.0
O447 O 0.65679 0.35704 0.31234 0.0
C448 C 0.95831 0.5178 0.97443 0.0
C449 C 0.95266 0.54711 0.97914 0.0
C450 C 0.97579 0.49862 0.98338 0.0
C451 C 0.9884 0.50914 0.9973 0.0
C452 C 0.98201 0.53846 0.00238 0.0
C453 C 0.96395 0.55707 0.99327 0.0
C454 C 0.98131 0.46731 0.97776 0.0
C455 C 0.99512 0.55046 0.01715 0.0
C456 C 0.01251 0.45284 0.02729 0.0
C457 C 0.04338 0.45134 0.02496 0.0
C458 C 0.99445 0.47128 0.01829 0.0
C459 C 0.00754 0.48908 0.00671 0.0
C460 C 0.03866 0.48726 0.00402 0.0
C461 C 0.05626 0.46813 0.01313 0.0
C462 C 0.96136 0.47194 0.0213 0.0
C463 C 0.05338 0.50604 0.99179 0.0
H464 H 0.94964 0.5101 0.96346 0.0
H465 H 0.96006 0.57988 0.99678 0.0
H466 H 0.00539 0.46403 0.97558 0.0
H467 H 0.9746 0.45104 0.98673 0.0
H468 H 0.96895 0.46227 0.96697 0.0
H469 H 0.98788 0.57362 0.01954 0.0
H470 H 0.98858 0.5362 0.02702 0.0
H471 H 0.01976 0.55 0.01644 0.0
H472 H 1.00239 0.43961 0.03635 0.0
H473 H 0.08011 0.46716 0.01139 0.0
H474 H 0.94903 0.46639 0.0106 0.0
H475 H 0.95446 0.49463 0.02481 0.0
H476 H 0.9546 0.45609 0.03049 0.0
H477 H 0.04341 0.50126 0.98035 0.0
H478 H 0.07773 0.50207 0.99112 0.0
H479 H 0.04948 0.52994 0.99426 0.0
C480 C 0.70244 0.7131 0.24236 0.0
C481 C 0.71154 0.70313 0.2278 0.0
C482 C 0.72127 0.73108 0.25139 0.0
C483 C 0.7499 0.7388 0.24578 0.0
C484 C 0.75959 0.72757 0.2314 0.0
C485 C 0.74025 0.71005 0.22257 0.0
C486 C 0.7102 0.74264 0.26669 0.0
C487 C 0.79016 0.7346 0.22515 0.0
C488 C 0.78988 0.80676 0.26217 0.0
C489 C 0.80804 0.79354 0.27334 0.0
C490 C 0.77069 0.78922 0.25307 0.0
C491 C 0.77018 0.75787 0.2551 0.0
C492 C 0.78945 0.74449 0.26594 0.0
C493 C 0.80795 0.76248 0.27495 0.0
C494 C 0.75037 0.80422 0.24162 0.0
C495 C 0.79018 0.71119 0.26823 0.0
H496 H 0.6801 0.70818 0.24631 0.0
H497 H 0.74735 0.70233 0.21131 0.0
H498 H 0.72553 0.7358 0.27607 0.0
H499 H 0.70985 0.76731 0.26652 0.0
H500 H 0.68752 0.73446 0.26947 0.0
H501 H 0.79459 0.72336 0.21397 0.0
H502 H 0.79249 0.75895 0.22348 0.0
H503 H 0.80744 0.72768 0.23355 0.0
H504 H 0.78972 0.83076 0.26104 0.0
H505 H 0.82218 0.75219 0.28353 0.0
H506 H 0.72686 0.79952 0.24464 0.0
H507 H 0.75426 0.79516 0.22989 0.0
H508 H 0.75365 0.8287 0.24131 0.0
H509 H 0.76812 0.70326 0.2722 0.0
H510 H 0.80718 0.70427 0.27681 0.0
H511 H 0.79499 0.6999 0.25712 0.0
C512 C 0.5479 0.49271 0.47229 0.0
C513 C 0.55502 0.46404 0.47753 0.0
C514 C 0.53032 0.51197 0.48113 0.0
C515 C 0.51926 0.50226 0.49554 0.0
C516 C 0.52712 0.47367 0.50115 0.0
C517 C 0.54514 0.4549 0.49209 0.0
C518 C 0.52312 0.5425 0.47489 0.0
C519 C 0.51575 0.46259 0.51649 0.0
C520 C 0.49602 0.56054 0.52469 0.0
C521 C 0.46495 0.56071 0.52317 0.0
C522 C 0.51385 0.54189 0.51568 0.0
C523 C 0.50031 0.52255 0.50493 0.0
C524 C 0.46894 0.5231 0.50301 0.0
C525 C 0.45155 0.54244 0.5121 0.0
C526 C 0.54719 0.54258 0.51785 0.0
C527 C 0.45376 0.50271 0.49165 0.0
H528 H 0.55555 0.49986 0.46102 0.0
H529 H 0.55022 0.43261 0.49606 0.0
H530 H 0.49874 0.5448 0.47335 0.0
H531 H 0.53022 0.55982 0.48322 0.0
H532 H 0.53411 0.54688 0.46364 0.0
H533 H 0.52394 0.4399 0.51923 0.0
H534 H 0.52272 0.47791 0.52584 0.0
H535 H 0.49107 0.46226 0.51639 0.0
H536 H 0.50645 0.57485 0.53319 0.0
H537 H 0.42754 0.54236 0.51103 0.0
H538 H 0.55833 0.54743 0.50671 0.0
H539 H 0.55516 0.5205 0.52178 0.0
H540 H 0.55424 0.55954 0.52642 0.0
H541 H 0.46261 0.50657 0.47988 0.0
H542 H 0.42927 0.50595 0.49145 0.0
H543 H 0.45855 0.47921 0.49467 0.0
C544 C 0.81296 0.26316 0.72956 0.0
C545 C 0.81082 0.29427 0.73007 0.0
C546 C 0.79448 0.2451 0.73856 0.0
C547 C 0.77293 0.25844 0.7482 0.0
C548 C 0.77115 0.28993 0.74911 0.0
C549 C 0.79036 0.30757 0.74008 0.0
C550 C 0.79765 0.21172 0.73749 0.0
C551 C 0.74838 0.3049 0.75926 0.0
C552 C 0.70665 0.21086 0.76031 0.0
C553 C 0.71457 0.20319 0.77542 0.0
C554 C 0.72541 0.22894 0.75128 0.0
C555 C 0.75274 0.23924 0.7575 0.0
C556 C 0.76129 0.23047 0.77251 0.0
C557 C 0.74214 0.21265 0.78126 0.0
C558 C 0.71564 0.23774 0.73526 0.0
C559 C 0.79045 0.24041 0.77947 0.0
H560 H 0.82886 0.25288 0.72181 0.0
H561 H 0.78844 0.3316 0.7403 0.0
H562 H 0.80164 0.20218 0.74911 0.0
H563 H 0.77673 0.20183 0.73306 0.0
H564 H 0.81618 0.20493 0.72978 0.0
H565 H 0.75006 0.32953 0.75882 0.0
H566 H 0.7257 0.29827 0.75559 0.0
H567 H 0.75119 0.29757 0.77139 0.0
H568 H 0.68525 0.20392 0.75582 0.0
H569 H 0.74848 0.20664 0.79292 0.0
H570 H 0.73257 0.23078 0.72668 0.0
H571 H 0.71369 0.2623 0.73452 0.0
H572 H 0.69394 0.22769 0.73205 0.0
H573 H 0.80922 0.23348 0.77198 0.0
H574 H 0.79406 0.23111 0.79119 0.0
H575 H 0.79105 0.26503 0.78023 0.0
C576 C 0.96331 0.44981 0.51 0.0
C577 C 0.95437 0.45876 0.52476 0.0
C578 C 0.98175 0.46818 0.50095 0.0
C579 C 0.99102 0.4962 0.50675 0.0
C580 C 0.98097 0.50575 0.52139 0.0
C581 C 0.96294 0.48689 0.53021 0.0
C582 C 0.99202 0.45728 0.48536 0.0
C583 C 0.98966 0.53571 0.52786 0.0
C584 C 0.05944 0.53454 0.48979 0.0
C585 C 0.04624 0.55374 0.47909 0.0
C586 C 0.04174 0.51547 0.49888 0.0
C587 C 0.01029 0.51615 0.49734 0.0
C588 C 0.99702 0.53641 0.48696 0.0
C589 C 0.01513 0.55474 0.47792 0.0
C590 C 0.05665 0.49405 0.50981 0.0
C591 C 0.96364 0.53844 0.48521 0.0
H592 H 0.9571 0.42794 0.50584 0.0
H593 H 0.95599 0.49394 0.54162 0.0
H594 H 0.98515 0.47318 0.47625 0.0
H595 H 0.01666 0.45609 0.48513 0.0
H596 H 0.9829 0.43499 0.48251 0.0
H597 H 0.97944 0.54002 0.53932 0.0
H598 H 0.01418 0.53704 0.52906 0.0
H599 H 0.98278 0.55364 0.51983 0.0
H600 H 0.08347 0.53354 0.49056 0.0
H601 H 0.0049 0.56975 0.46968 0.0
H602 H 0.05083 0.47088 0.5066 0.0
H603 H 0.0485 0.49774 0.52174 0.0
H604 H 0.08125 0.49636 0.50973 0.0
H605 H 0.95467 0.51684 0.48114 0.0
H606 H 0.95686 0.55602 0.47691 0.0
H607 H 0.9532 0.54323 0.49653 0.0
C608 C 0.69558 0.76179 0.72882 0.0
C609 C 0.69634 0.7929 0.73007 0.0
C610 C 0.71393 0.74372 0.73787 0.0
C611 C 0.73392 0.75704 0.74838 0.0
C612 C 0.73424 0.78846 0.75006 0.0
C613 C 0.71519 0.80611 0.74093 0.0
C614 C 0.71231 0.71036 0.73595 0.0
C615 C 0.75533 0.80342 0.76114 0.0
C616 C 0.76428 0.70962 0.78097 0.0
C617 C 0.79259 0.70187 0.77546 0.0
C618 C 0.74494 0.72732 0.77224 0.0
C619 C 0.7542 0.73786 0.75764 0.0
C620 C 0.78239 0.72933 0.75176 0.0
C621 C 0.80123 0.71122 0.76071 0.0
C622 C 0.71484 0.73525 0.77879 0.0
C623 C 0.793 0.74012 0.73622 0.0
H624 H 0.68084 0.75153 0.72046 0.0
H625 H 0.71601 0.83014 0.74178 0.0
H626 H 0.73398 0.70177 0.73176 0.0
H627 H 0.70782 0.69961 0.74723 0.0
H628 H 0.69474 0.70351 0.72768 0.0
H629 H 0.75254 0.82796 0.76129 0.0
H630 H 0.7518 0.79479 0.77299 0.0
H631 H 0.77861 0.79817 0.75789 0.0
H632 H 0.75749 0.70238 0.79238 0.0
H633 H 0.82325 0.70565 0.75652 0.0
H634 H 0.69702 0.72838 0.77068 0.0
H635 H 0.7131 0.7597 0.78023 0.0
H636 H 0.7107 0.72454 0.79014 0.0
H637 H 0.77714 0.73323 0.72709 0.0
H638 H 0.8154 0.73142 0.73326 0.0
H639 H 0.79382 0.76479 0.73614 0.0
C640 C 0.49319 0.45007 0.97868 0.0
C641 C 0.46207 0.45155 0.9796 0.0
C642 C 0.51129 0.46843 0.98771 0.0
C643 C 0.49799 0.48918 0.99782 0.0
C644 C 0.46652 0.49025 0.99915 0.0
C645 C 0.44883 0.47117 0.99007 0.0
C646 C 0.54468 0.46601 0.98618 0.0
C647 C 0.45159 0.51216 0.00982 0.0
C648 C 0.54492 0.51944 0.0306 0.0
C649 C 0.55368 0.54734 0.02491 0.0
C650 C 0.52696 0.50033 0.02189 0.0
C651 C 0.51724 0.50935 0.00711 0.0
C652 C 0.52674 0.5371 1.00105 0.0
C653 C 0.54506 0.55575 0.01001 0.0
C654 C 0.51797 0.47068 0.02864 0.0
C655 C 0.51685 0.54742 0.9853 0.0
H656 H 0.50343 0.43476 0.9706 0.0
H657 H 0.42479 0.47255 0.99063 0.0
H658 H 0.55392 0.48732 0.98188 0.0
H659 H 0.55486 0.46169 0.99762 0.0
H660 H 0.55146 0.44798 0.97815 0.0
H661 H 0.42699 0.50995 0.00969 0.0
H662 H 0.45961 0.50893 0.0218 0.0
H663 H 0.45753 0.53517 0.00636 0.0
H664 H 0.55164 0.51278 0.04211 0.0
H665 H 0.55143 0.57743 0.00566 0.0
H666 H 0.52487 0.4524 0.02083 0.0
H667 H 0.49342 0.46955 0.02973 0.0
H668 H 0.52795 0.46676 0.04018 0.0
H669 H 0.52379 0.53109 0.9764 0.0
H670 H 0.52618 0.56952 0.98224 0.0
H671 H 0.49223 0.54877 0.98492 0.0
C672 C 0.8052 0.21333 0.24255 0.0
C673 C 0.79553 0.20283 0.2282 0.0
C674 C 0.7867 0.23157 0.25163 0.0
C675 C 0.75781 0.239 0.24627 0.0
C676 C 0.74757 0.22727 0.2321 0.0
C677 C 0.7666 0.20952 0.22322 0.0
C678 C 0.79836 0.2437 0.26669 0.0
C679 C 0.71672 0.23397 0.22614 0.0
C680 C 0.70061 0.26328 0.27576 0.0
C681 C 0.70006 0.29426 0.27379 0.0
C682 C 0.71906 0.24514 0.2668 0.0
C683 C 0.73783 0.25827 0.25565 0.0
C684 C 0.73695 0.28952 0.25331 0.0
C685 C 0.7178 0.30722 0.26235 0.0
C686 C 0.7187 0.21192 0.26943 0.0
C687 C 0.75677 0.30428 0.24154 0.0
H688 H 0.82771 0.20861 0.2463 0.0
H689 H 0.75908 0.20141 0.2121 0.0
H690 H 0.7986 0.26836 0.26628 0.0
H691 H 0.78347 0.23712 0.2763 0.0
H692 H 0.8212 0.23572 0.26928 0.0
H693 H 0.71188 0.22235 0.21511 0.0
H694 H 0.69983 0.22723 0.23479 0.0
H695 H 0.7142 0.25824 0.22429 0.0
H696 H 0.68669 0.25316 0.28453 0.0
H697 H 0.71759 0.33116 0.26092 0.0
H698 H 0.74102 0.20427 0.27315 0.0
H699 H 0.71338 0.20021 0.2585 0.0
H700 H 0.70222 0.20519 0.27831 0.0
H701 H 0.78041 0.29966 0.24431 0.0
H702 H 0.75345 0.32874 0.24111 0.0
H703 H 0.75238 0.29493 0.22992 0.0
C704 C 0.31026 0.2627 0.77552 0.0
C705 C 0.31054 0.29372 0.77372 0.0
C706 C 0.29176 0.24461 0.76657 0.0
C707 C 0.27268 0.25783 0.75559 0.0
C708 C 0.27332 0.28913 0.7534 0.0
C709 C 0.29252 0.30678 0.76244 0.0
C710 C 0.29235 0.21134 0.76903 0.0
C711 C 0.25318 0.30398 0.7418 0.0
C712 C 0.2432 0.20945 0.72318 0.0
C713 C 0.2144 0.20263 0.72833 0.0
C714 C 0.26241 0.22713 0.73199 0.0
C715 C 0.25251 0.23863 0.74627 0.0
C716 C 0.22379 0.23105 0.75181 0.0
C717 C 0.20509 0.21291 0.74279 0.0
C718 C 0.29308 0.23401 0.72584 0.0
C719 C 0.21249 0.24292 0.767 0.0
H720 H 0.32439 0.25251 0.78418 0.0
H721 H 0.29251 0.33075 0.76114 0.0
H722 H 0.27018 0.20354 0.77292 0.0
H723 H 0.29738 0.19984 0.75801 0.0
H724 H 0.30914 0.20454 0.77775 0.0
H725 H 0.25646 0.32845 0.74142 0.0
H726 H 0.25727 0.29475 0.73013 0.0
H727 H 0.22962 0.29931 0.74473 0.0
H728 H 0.25046 0.20151 0.71198 0.0
H729 H 0.18269 0.20807 0.74668 0.0
H730 H 0.31022 0.22719 0.73434 0.0
H731 H 0.29548 0.25832 0.72407 0.0
H732 H 0.29766 0.22258 0.71473 0.0
H733 H 0.22765 0.23622 0.77648 0.0
H734 H 0.18974 0.23484 0.76972 0.0
H735 H 0.21219 0.26758 0.7667 0.0
C736 C 0.2203 0.69999 0.26243 0.0
C737 C 0.20119 0.71313 0.27318 0.0
C738 C 0.23935 0.71772 0.25334 0.0
C739 C 0.23876 0.74916 0.25497 0.0
C740 C 0.21853 0.76239 0.26538 0.0
C741 C 0.20019 0.74424 0.27439 0.0
C742 C 0.26069 0.70286 0.24235 0.0
C743 C 0.21662 0.79575 0.26724 0.0
C744 C 0.30558 0.79576 0.24268 0.0
C745 C 0.29686 0.80498 0.22793 0.0
C746 C 0.28695 0.77738 0.25161 0.0
C747 C 0.25891 0.76845 0.2457 0.0
C748 C 0.24958 0.77882 0.23108 0.0
C749 C 0.26869 0.7968 0.22238 0.0
C750 C 0.29761 0.76679 0.26718 0.0
C751 C 0.21962 0.77048 0.2245 0.0
H752 H 0.22128 0.67595 0.26162 0.0
H753 H 0.18524 0.75443 0.28267 0.0
H754 H 0.25717 0.71133 0.23047 0.0
H755 H 0.28389 0.70838 0.24565 0.0
H756 H 0.25815 0.67829 0.24228 0.0
H757 H 0.19895 0.80251 0.27548 0.0
H758 H 0.2382 0.80457 0.27142 0.0
H759 H 0.21206 0.80638 0.25593 0.0
H760 H 0.32748 0.80167 0.24691 0.0
H761 H 0.26183 0.80396 0.21097 0.0
H762 H 0.29864 0.74214 0.26731 0.0
H763 H 0.28165 0.77362 0.27628 0.0
H764 H 0.31992 0.77572 0.27015 0.0
H765 H 0.21813 0.74599 0.22316 0.0
H766 H 0.21547 0.78096 0.21309 0.0
H767 H 0.20167 0.7773 0.23253 0.0
C768 C 0.30508 0.21372 0.26088 0.0
C769 C 0.29583 0.20356 0.27537 0.0
C770 C 0.28634 0.23183 0.25185 0.0
C771 C 0.25765 0.23948 0.25742 0.0
C772 C 0.24785 0.22814 0.27175 0.0
C773 C 0.26709 0.21049 0.28056 0.0
C774 C 0.29753 0.24351 0.2366 0.0
C775 C 0.21722 0.2351 0.27794 0.0
C776 C 0.21739 0.30721 0.24091 0.0
C777 C 0.19935 0.29385 0.22973 0.0
C778 C 0.23664 0.2898 0.25004 0.0
C779 C 0.23736 0.25845 0.24804 0.0
C780 C 0.21823 0.24494 0.23718 0.0
C781 C 0.19964 0.26278 0.22814 0.0
C782 C 0.2568 0.30494 0.26152 0.0
C783 C 0.21773 0.21163 0.23489 0.0
H784 H 0.32743 0.20881 0.25695 0.0
H785 H 0.25987 0.20263 0.29178 0.0
H786 H 0.28237 0.23658 0.22717 0.0
H787 H 0.29771 0.26818 0.23679 0.0
H788 H 0.3203 0.23549 0.2339 0.0
H789 H 0.21278 0.22394 0.28913 0.0
H790 H 0.21477 0.25945 0.27955 0.0
H791 H 0.20002 0.22803 0.26953 0.0
H792 H 0.21739 0.33122 0.24203 0.0
H793 H 0.1855 0.25238 0.21956 0.0
H794 H 0.28036 0.30038 0.25855 0.0
H795 H 0.25289 0.29586 0.27325 0.0
H796 H 0.25336 0.3294 0.26182 0.0
H797 H 0.23989 0.20382 0.231 0.0
H798 H 0.20089 0.20459 0.22625 0.0
H799 H 0.21284 0.20032 0.24598 0.0
C800 C 0.19599 0.76201 0.7743 0.0
C801 C 0.1965 0.79312 0.77298 0.0
C802 C 0.21443 0.74401 0.76526 0.0
C803 C 0.23422 0.75739 0.75468 0.0
C804 C 0.23428 0.7888 0.75292 0.0
C805 C 0.21517 0.80638 0.76205 0.0
C806 C 0.21311 0.71065 0.76728 0.0
C807 C 0.25514 0.80382 0.74174 0.0
C808 C 0.30162 0.71189 0.74213 0.0
C809 C 0.29275 0.70237 0.72745 0.0
C810 C 0.28282 0.72996 0.75114 0.0
C811 C 0.25448 0.73828 0.74537 0.0
C812 C 0.24501 0.72756 0.73085 0.0
C813 C 0.26429 0.70989 0.72206 0.0
C814 C 0.29363 0.74093 0.76661 0.0
C815 C 0.21475 0.73527 0.72442 0.0
H816 H 0.18139 0.7517 0.7827 0.0
H817 H 0.21579 0.83041 0.76114 0.0
H818 H 0.20848 0.69977 0.75604 0.0
H819 H 0.23492 0.70226 0.77137 0.0
H820 H 0.19574 0.70375 0.77566 0.0
H821 H 0.2522 0.82835 0.74157 0.0
H822 H 0.2785 0.79873 0.74493 0.0
H823 H 0.2515 0.7951 0.72992 0.0
H824 H 0.32375 0.7065 0.74622 0.0
H825 H 0.25733 0.70251 0.71071 0.0
H826 H 0.27794 0.73405 0.77581 0.0
H827 H 0.29434 0.7656 0.76662 0.0
H828 H 0.31612 0.73235 0.76949 0.0
H829 H 0.19711 0.72832 0.73261 0.0
H830 H 0.2105 0.72447 0.7131 0.0
H831 H 0.21283 0.7597 0.72295 0.0
C832 C 0.54723 0.95481 0.51058 0.0
C833 C 0.55761 0.96431 0.52499 0.0
C834 C 0.52886 0.97331 0.50158 0.0
C835 C 0.5212 1.00205 0.50705 0.0
C836 C 0.53278 0.01214 0.52128 0.0
C837 C 0.55064 0.9931 0.5301 0.0
C838 C 0.51689 0.96179 0.48645 0.0
C839 C 0.52584 0.04285 0.52736 0.0
C840 C 0.4968 0.05931 0.4776 0.0
C841 C 0.46579 0.05954 0.47946 0.0
C842 C 0.51499 0.041 0.48662 0.0
C843 C 0.50189 0.02206 0.4977 0.0
C844 C 0.4706 0.02266 0.49993 0.0
C845 C 0.45285 0.04167 0.49084 0.0
C846 C 0.54824 0.04165 0.4841 0.0
C847 C 0.45587 1.00265 0.51163 0.0
H848 H 0.55217 0.93241 0.50673 0.0
H849 H 0.55866 1.0005 0.54126 0.0
H850 H 0.49222 0.9615 0.48679 0.0
H851 H 0.52353 0.97681 0.4769 0.0
H852 H 0.52495 0.939 0.4838 0.0
H853 H 0.53731 0.04757 0.53844 0.0
H854 H 0.53256 0.05992 0.5188 0.0
H855 H 0.50153 0.0452 0.52916 0.0
H856 H 0.5069 0.07334 0.46888 0.0
H857 H 0.42888 0.04164 0.49218 0.0
H858 H 0.55608 0.01946 0.48028 0.0
H859 H 0.55979 0.04684 0.49508 0.0
H860 H 0.55495 0.05835 0.47532 0.0
H861 H 0.46058 0.97906 0.50878 0.0
H862 H 0.43139 0.00588 0.51204 0.0
H863 H 0.46515 0.00693 0.52327 0.0
C864 C 0.04343 0.9509 0.99265 0.0
C865 C 0.05387 0.96052 0.97827 0.0
C866 C 0.02496 0.96931 0.00165 0.0
C867 C 0.01726 0.99807 0.99621 0.0
C868 C 0.02883 0.00823 0.98199 0.0
C869 C 0.04678 0.98928 0.97317 0.0
C870 C 0.01298 0.95771 0.01676 0.0
C871 C 0.02189 0.03898 0.97596 0.0
C872 C 0.94925 0.03816 0.01253 0.0
C873 C 0.9624 0.05598 0.02387 0.0
C874 C 0.96681 0.01896 0.00344 0.0
C875 C 0.99811 0.01812 0.00563 0.0
C876 C 0.01141 0.03697 0.01669 0.0
C877 C 0.99342 0.05546 0.0257 0.0
C878 C 0.95187 0.99904 0.99177 0.0
C879 C 0.04468 0.03738 0.01916 0.0
H880 H 0.04846 0.92852 0.99649 0.0
H881 H 0.05485 0.99677 0.96203 0.0
H882 H 0.01978 0.97258 0.02634 0.0
H883 H 0.98831 0.9576 0.01645 0.0
H884 H 0.02089 0.93484 0.01932 0.0
H885 H 0.03321 0.04369 0.96483 0.0
H886 H 0.99756 0.04142 0.97427 0.0
H887 H 0.02882 0.056 0.98449 0.0
H888 H 0.92529 0.03836 0.01121 0.0
H889 H 1.00368 0.06945 0.03439 0.0
H890 H 0.95653 0.97542 0.99458 0.0
H891 H 0.96104 1.00333 0.9801 0.0
H892 H 0.9274 1.00237 0.99143 0.0
H893 H 0.05241 0.0151 0.02291 0.0
H894 H 0.05155 0.05395 0.02797 0.0
H895 H 0.05619 0.04262 0.00817 0.0
C896 C 0.55722 0.0405 0.99031 0.0
C897 C 0.54379 0.05887 0.9793 0.0
C898 C 0.53982 0.02132 0.99948 0.0
C899 C 0.50842 0.02103 0.99768 0.0
C900 C 0.49485 0.04051 0.98701 0.0
C901 C 0.51269 0.059 0.97792 0.0
C902 C 0.55502 1.00076 0.01074 0.0
C903 C 0.46149 0.04148 0.98498 0.0
C904 C 0.46349 0.95345 0.01047 0.0
C905 C 0.45391 0.96244 0.02512 0.0
C906 C 0.48142 0.97226 1.00141 0.0
C907 C 0.48949 1.00075 0.00707 0.0
C908 C 0.47871 0.01032 0.02156 0.0
C909 C 0.46123 0.99101 0.03042 0.0
C910 C 0.49251 0.96132 0.98598 0.0
C911 C 0.48612 0.04075 0.02787 0.0
H912 H 0.58125 0.04019 0.99126 0.0
H913 H 0.50226 0.07339 0.96946 0.0
H914 H 0.54629 0.00455 0.02255 0.0
H915 H 0.5501 0.97732 0.00768 0.0
H916 H 0.57952 1.0039 0.01089 0.0
H917 H 0.45443 0.05864 0.97652 0.0
H918 H 0.45332 0.01952 0.98098 0.0
H919 H 0.45055 0.0462 0.99619 0.0
H920 H 0.45824 0.93124 0.00646 0.0
H921 H 0.4538 0.99804 0.04175 0.0
H922 H 0.51718 0.96088 0.98597 0.0
H923 H 0.48544 0.97678 0.97671 0.0
H924 H 0.48418 0.93869 0.9832 0.0
H925 H 0.51053 0.04293 0.02934 0.0
H926 H 0.47527 0.04507 0.03916 0.0
H927 H 0.47902 0.0582 0.0196 0.0
C928 C 0.04729 0.05321 0.51055 0.0
C929 C 0.05674 0.04465 0.52528 0.0
C930 C 0.02951 0.03412 0.50156 0.0
C931 C 0.02147 0.00575 0.50739 0.0
C932 C 0.03216 0.99658 0.52197 0.0
C933 C 0.04947 0.01618 0.53075 0.0
C934 C 0.01852 0.04465 0.48604 0.0
C935 C 0.02477 0.96629 0.52847 0.0
C936 C 0.9537 0.96594 0.4907 0.0
C937 C 0.96709 0.94743 0.47974 0.0
C938 C 0.97113 0.98511 0.49986 0.0
C939 C 1.00254 0.98525 0.49812 0.0
C940 C 0.01608 0.96556 0.48753 0.0
C941 C 0.9982 0.94709 0.47844 0.0
C942 C 0.95594 0.00588 0.51103 0.0
C943 C 0.04944 0.96442 0.48556 0.0
H944 H 0.05248 0.07535 0.50639 0.0
H945 H 0.05681 0.00946 0.54215 0.0
H946 H 0.02563 0.02894 0.47688 0.0
H947 H 0.99384 0.04508 0.48598 0.0
H948 H 0.02686 0.0672 0.48311 0.0
H949 H 0.03566 0.96222 0.53978 0.0
H950 H 1.00037 0.96415 0.52997 0.0
H951 H 0.03184 0.94866 0.5203 0.0
H952 H 0.92966 0.96643 0.49159 0.0
H953 H 0.0086 0.93261 0.47001 0.0
H954 H 0.96082 0.02926 0.50782 0.0
H955 H 0.96471 1.00236 0.52285 0.0
H956 H 0.93145 1.00272 0.51121 0.0
H957 H 0.05769 0.98621 0.48137 0.0
H958 H 0.05648 0.94696 0.47726 0.0
H959 H 0.06032 0.96004 0.49682 0.0
C960 C 0.99381 0.18734 0.05876 0.0
C961 C 0.96603 0.18372 0.05158 0.0
C962 C 0.00962 0.21417 0.05775 0.0
C963 C 0.99737 0.23832 0.04945 0.0
C964 C 0.96979 0.23463 0.04174 0.0
C965 C 0.9545 0.20732 0.04282 0.0
C966 C 0.03902 0.21695 0.06607 0.0
C967 C 0.95589 0.25988 0.03283 0.0
C968 C 0.02128 0.31444 0.06387 0.0
C969 C 0.04348 0.32259 0.05325 0.0
C970 C 0.00565 0.28758 0.06246 0.0
C971 C 0.01224 0.26804 0.05013 0.0
C972 C 0.03428 0.27618 0.03921 0.0
C973 C 0.04965 0.30333 0.0409 0.0
C974 C 0.98243 0.27984 0.07441 0.0
C975 C 0.04201 0.25592 0.02593 0.0
H976 H 1.00323 0.16919 0.06538 0.0
H977 H 0.93311 0.20478 0.03721 0.0
H978 H 0.05637 0.22542 0.0581 0.0
H979 H 0.0369 0.23323 0.07562 0.0
H980 H 0.04664 0.19543 0.07096 0.0
H981 H 0.93581 0.25274 0.02635 0.0
H982 H 0.94946 0.27789 0.04091 0.0
H983 H 0.97217 0.26941 0.02458 0.0
H984 H 0.01611 0.32902 0.07346 0.0
H985 H 0.06661 0.30935 0.03258 0.0
H986 H 0.98936 0.25965 0.08082 0.0
H987 H 0.96094 0.27473 0.06871 0.0
H988 H 0.97883 0.2981 0.08283 0.0
H989 H 0.05148 0.23485 0.03041 0.0
H990 H 0.05834 0.26617 0.01792 0.0
H991 H 0.02166 0.25012 0.01935 0.0
C992 C 0.07098 0.74447 0.30898 0.0
C993 C 0.07502 0.71705 0.30148 0.0
C994 C 0.04428 0.76042 0.3077 0.0
C995 C 0.0207 0.74873 0.29877 0.0
C996 C 0.02486 0.72158 0.29072 0.0
C997 C 0.05201 0.7061 0.29212 0.0
C998 C 0.04094 0.7893 0.31645 0.0
C999 C 1.00024 0.70831 0.28111 0.0
C1000 C 0.94372 0.77114 0.31247 0.0
C1001 C 0.93598 0.79409 0.30219 0.0
C1002 C 0.97075 0.75581 0.31116 0.0
C1003 C 0.99089 0.76344 0.29928 0.0
C1004 C 0.98322 0.78625 0.28869 0.0
C1005 C 0.95586 0.80134 0.29028 0.0
C1006 C 0.97798 0.73179 0.32277 0.0
C1007 C 1.00412 0.79503 0.27587 0.0
H1008 H 0.08866 0.75348 0.31607 0.0
H1009 H 0.05488 0.68504 0.28622 0.0
H1010 H 0.03288 0.80712 0.30865 0.0
H1011 H 0.02414 0.78657 0.32572 0.0
H1012 H 0.06216 0.79665 0.32179 0.0
H1013 H 0.00785 0.68873 0.27437 0.0
H1014 H 0.98174 0.70125 0.28875 0.0
H1015 H 0.99119 0.72516 0.27303 0.0
H1016 H 0.92869 0.76513 0.32173 0.0
H1017 H 0.95015 0.81887 0.28223 0.0
H1018 H 0.99782 0.73832 0.32958 0.0
H1019 H 0.98346 0.71073 0.31674 0.0
H1020 H 0.95933 0.72753 0.33087 0.0
H1021 H 0.0249 0.80426 0.28084 0.0
H1022 H 0.99422 0.81191 0.26804 0.0
H1023 H 0.01038 0.7752 0.26898 0.0
C1024 C 0.45578 0.71073 0.54131 0.0
C1025 C 0.4659 0.68901 0.5517 0.0
C1026 C 0.47054 0.73827 0.53985 0.0
C1027 C 0.4961 0.74421 0.54893 0.0
C1028 C 0.50683 0.72207 0.55911 0.0
C1029 C 0.49165 0.69493 0.56038 0.0
C1030 C 0.45836 0.76132 0.52889 0.0
C1031 C 0.53398 0.72733 0.56901 0.0
C1032 C 0.55035 0.80748 0.54033 0.0
C1033 C 0.5418 0.82884 0.55129 0.0
C1034 C 0.535 0.78025 0.53897 0.0
C1035 C 0.51052 0.77419 0.5488 0.0
C1036 C 0.50127 0.796 0.55954 0.0
C1037 C 0.51694 0.82291 0.56065 0.0
C1038 C 0.54556 0.75758 0.52737 0.0
C1039 C 0.47537 0.79054 0.57027 0.0
H1040 H 0.43601 0.70645 0.53451 0.0
H1041 H 0.5 0.67834 0.56835 0.0
H1042 H 0.45029 0.78081 0.53552 0.0
H1043 H 0.47616 0.76932 0.52106 0.0
H1044 H 0.43971 0.75257 0.52182 0.0
H1045 H 0.54049 0.70725 0.57567 0.0
H1046 H 0.55306 0.73421 0.56172 0.0
H1047 H 0.52956 0.74567 0.57726 0.0
H1048 H 0.5694 0.81175 0.533 0.0
H1049 H 0.50984 0.83918 0.5691 0.0
H1050 H 0.52668 0.74979 0.52018 0.0
H1051 H 0.5546 0.7379 0.53349 0.0
H1052 H 0.56312 0.7666 0.51966 0.0
H1053 H 0.45546 0.78372 0.56361 0.0
H1054 H 0.46967 0.81051 0.57722 0.0
H1055 H 0.48084 0.77209 0.57829 0.0
C1056 C 0.57469 0.24655 0.80811 0.0
C1057 C 0.57855 0.2191 0.80061 0.0
C1058 C 0.5478 0.26228 0.80717 0.0
C1059 C 0.52386 0.25033 0.79858 0.0
C1060 C 0.52786 0.2232 0.7905 0.0
C1061 C 0.55518 0.20794 0.79156 0.0
C1062 C 0.54465 0.29116 0.81592 0.0
C1063 C 0.50287 0.20967 0.78124 0.0
C1064 C 0.44715 0.27255 0.81291 0.0
C1065 C 0.43894 0.2952 0.80256 0.0
C1066 C 0.47427 0.25738 0.81145 0.0
C1067 C 0.49401 0.26492 0.79935 0.0
C1068 C 0.48584 0.28746 0.78872 0.0
C1069 C 0.45843 0.30233 0.79045 0.0
C1070 C 0.48202 0.23358 0.82308 0.0
C1071 C 0.5063 0.29618 0.77569 0.0
H1072 H 0.59263 0.25567 0.81499 0.0
H1073 H 0.55787 0.18682 0.7857 0.0
H1074 H 0.53612 0.30889 0.8082 0.0
H1075 H 0.52828 0.28837 0.82539 0.0
H1076 H 0.56605 0.29869 0.821 0.0
H1077 H 0.5103 0.19009 0.77444 0.0
H1078 H 0.4848 0.20254 0.78913 0.0
H1079 H 0.49331 0.22639 0.77324 0.0
H1080 H 0.43239 0.26662 0.8223 0.0
H1081 H 0.45237 0.31966 0.78235 0.0
H1082 H 0.50208 0.24029 0.82967 0.0
H1083 H 0.48735 0.21245 0.81709 0.0
H1084 H 0.46368 0.22939 0.83139 0.0
H1085 H 0.52721 0.30553 0.78044 0.0
H1086 H 0.49608 0.31293 0.7679 0.0
H1087 H 0.51239 0.2763 0.7688 0.0
C1088 C 0.95698 0.79936 0.46156 0.0
C1089 C 0.9657 0.82002 0.45028 0.0
C1090 C 0.97166 0.77176 0.46306 0.0
C1091 C 0.9956 0.76466 0.45305 0.0
C1092 C 0.00473 0.7856 0.44184 0.0
C1093 C 0.98975 0.81283 0.44059 0.0
C1094 C 0.96125 0.74999 0.47515 0.0
C1095 C 0.03003 0.77901 0.43088 0.0
C1096 C 0.05165 0.70268 0.46086 0.0
C1097 C 0.04168 0.68036 0.45078 0.0
C1098 C 0.03619 0.72982 0.46226 0.0
C1099 C 0.01007 0.73473 0.45345 0.0
C1100 C 0.99934 0.71186 0.44372 0.0
C1101 C 0.01524 0.68512 0.44248 0.0
C1102 C 0.04841 0.75367 0.47274 0.0
C1103 C 0.9716 0.71603 0.43413 0.0
H1104 H 0.93857 0.80462 0.46915 0.0
H1105 H 0.99694 0.82848 0.43185 0.0
H1106 H 0.95248 0.72969 0.46948 0.0
H1107 H 0.98019 0.74304 0.48252 0.0
H1108 H 0.94356 0.75947 0.48263 0.0
H1109 H 0.03533 0.7982 0.42329 0.0
H1110 H 0.05032 0.77296 0.43745 0.0
H1111 H 0.02422 0.75972 0.4235 0.0
H1112 H 0.07194 0.69926 0.46737 0.0
H1113 H 0.00699 0.668 0.4348 0.0
H1114 H 0.03068 0.76223 0.48045 0.0
H1115 H 0.05641 0.77266 0.4657 0.0
H1116 H 0.06715 0.74547 0.47992 0.0
H1117 H 0.95292 0.72367 0.44148 0.0
H1118 H 0.9648 0.69527 0.42815 0.0
H1119 H 0.97553 0.73346 0.4253 0.0
C1120 C 0.56033 0.77228 0.6898 0.0
C1121 C 0.5687 0.79476 0.7002 0.0
C1122 C 0.53302 0.75743 0.69115 0.0
C1123 C 0.51326 0.76512 0.70321 0.0
C1124 C 0.52156 0.78752 0.71389 0.0
C1125 C 0.54916 0.80208 0.71226 0.0
C1126 C 0.52513 0.73377 0.67947 0.0
C1127 C 0.50108 0.79639 0.72689 0.0
C1128 C 0.4325 0.74718 0.6944 0.0
C1129 C 0.42851 0.71973 0.70188 0.0
C1130 C 0.45947 0.76278 0.69536 0.0
C1131 C 0.48333 0.7507 0.70395 0.0
C1132 C 0.4792 0.72357 0.71202 0.0
C1133 C 0.45182 0.70844 0.71092 0.0
C1134 C 0.46277 0.79167 0.68663 0.0
C1135 C 0.5041 0.70991 0.72128 0.0
H1136 H 0.57512 0.76623 0.68043 0.0
H1137 H 0.55533 0.81929 0.72041 0.0
H1138 H 0.51967 0.71262 0.68542 0.0
H1139 H 0.5051 0.74064 0.6729 0.0
H1140 H 0.54344 0.72953 0.67115 0.0
H1141 H 0.51133 0.81314 0.73466 0.0
H1142 H 0.48022 0.80578 0.7221 0.0
H1143 H 0.49489 0.77656 0.7338 0.0
H1144 H 0.41461 0.75639 0.68752 0.0
H1145 H 0.44904 0.68733 0.71677 0.0
H1146 H 0.47912 0.78881 0.67716 0.0
H1147 H 0.4714 0.80933 0.69436 0.0
H1148 H 0.44141 0.79933 0.68156 0.0
H1149 H 0.52217 0.70274 0.7134 0.0
H1150 H 0.49658 0.69033 0.72805 0.0
H1151 H 0.5137 0.72656 0.72931 0.0
C1152 C 0.54956 0.2063 0.96145 0.0
C1153 C 0.54253 0.18624 0.94957 0.0
C1154 C 0.53429 0.23356 0.96294 0.0
C1155 C 0.51146 0.24095 0.95232 0.0
C1156 C 0.50398 0.22059 0.9405 0.0
C1157 C 0.51954 0.19365 0.93927 0.0
C1158 C 0.54296 0.2547 0.97568 0.0
C1159 C 0.4799 0.22752 0.92888 0.0
C1160 C 0.45442 0.30232 0.95968 0.0
C1161 C 0.46545 0.32538 0.95038 0.0
C1162 C 0.46966 0.275 0.9609 0.0
C1163 C 0.49666 0.27072 0.95273 0.0
C1164 C 0.50837 0.29429 0.94379 0.0
C1165 C 0.49265 0.32116 0.94269 0.0
C1166 C 0.45638 0.25039 0.97051 0.0
C1167 C 0.53711 0.29084 0.93493 0.0
H1168 H 0.56714 0.20086 0.96951 0.0
H1169 H 0.51367 0.17844 0.93006 0.0
H1170 H 0.55215 0.27542 0.97063 0.0
H1171 H 0.52309 0.26102 0.98252 0.0
H1172 H 0.55983 0.24497 0.98357 0.0
H1173 H 0.47568 0.20869 0.92088 0.0
H1174 H 0.45885 0.23306 0.93489 0.0
H1175 H 0.48635 0.24724 0.92195 0.0
H1176 H 0.43352 0.30532 0.9657 0.0
H1177 H 0.5017 0.33886 0.93562 0.0
H1178 H 0.47318 0.24147 0.97865 0.0
H1179 H 0.44949 0.2318 0.96288 0.0
H1180 H 0.43669 0.25796 0.97717 0.0
H1181 H 0.55505 0.28296 0.9427 0.0
H1182 H 0.54435 0.31196 0.92945 0.0
H1183 H 0.53428 0.27384 0.92577 0.0
C1184 C 0.06571 0.26701 0.19218 0.0
C1185 C 0.07161 0.29287 0.20077 0.0
C1186 C 0.03852 0.2519 0.19346 0.0
C1187 C 0.01634 0.26283 0.20356 0.0
C1188 C 0.02228 0.28849 0.21256 0.0
C1189 C 0.04986 0.30317 0.2111 0.0
C1190 C 0.03326 0.22464 0.18365 0.0
C1191 C 0.9992 0.30088 0.22344 0.0
C1192 C 0.93751 0.2426 0.1918 0.0
C1193 C 0.93124 0.21796 0.20126 0.0
C1194 C 0.96461 0.25793 0.19286 0.0
C1195 C 0.98628 0.24859 0.20365 0.0
C1196 C 0.97992 0.2243 0.21355 0.0
C1197 C 0.95251 0.20926 0.21224 0.0
C1198 C 0.9704 0.28361 0.18202 0.0
C1199 C 1.00242 0.21367 0.22523 0.0
H1200 H 0.08233 0.25853 0.18427 0.0
H1201 H 0.05413 0.32302 0.21783 0.0
H1202 H 0.02617 0.2057 0.19098 0.0
H1203 H 0.01506 0.22904 0.17532 0.0
H1204 H 0.05339 0.21793 0.17709 0.0
H1205 H 0.00797 0.31954 0.23049 0.0
H1206 H 0.9798 0.30899 0.21674 0.0
H1207 H 0.99103 0.28318 0.23128 0.0
H1208 H 0.92135 0.24979 0.18332 0.0
H1209 H 0.94797 0.19039 0.21965 0.0
H1210 H 0.98895 0.27791 0.17412 0.0
H1211 H 0.97723 0.3036 0.18863 0.0
H1212 H 0.95059 0.28933 0.17497 0.0
H1213 H 0.02212 0.20451 0.21916 0.0
H1214 H 0.99325 0.19618 0.23293 0.0
H1215 H 0.01023 0.23254 0.23241 0.0
C1216 C 0.9598 0.7046 0.96304 0.0
C1217 C 0.97024 0.68258 0.9529 0.0
C1218 C 0.97457 0.73212 0.96444 0.0
C1219 C 1.00039 0.73778 0.95553 0.0
C1220 C 0.01159 0.71526 0.94572 0.0
C1221 C 0.99645 0.68807 0.94453 0.0
C1222 C 0.96193 0.75553 0.97505 0.0
C1223 C 0.039 0.72027 0.93598 0.0
C1224 C 0.01888 0.81651 0.94292 0.0
C1225 C 0.04318 0.82383 0.9524 0.0
C1226 C 0.00435 0.78902 0.94417 0.0
C1227 C 0.01415 0.76804 0.95521 0.0
C1228 C 0.03817 0.7754 0.9651 0.0
C1229 C 0.05244 0.80318 0.96357 0.0
C1230 C 0.97894 0.78215 0.93333 0.0
C1231 C 0.04921 0.75366 0.97706 0.0
H1232 H 0.93969 0.70066 0.96961 0.0
H1233 H 0.00501 0.67124 0.93676 0.0
H1234 H 0.97958 0.76448 0.9827 0.0
H1235 H 0.95328 0.77437 0.96812 0.0
H1236 H 0.94356 0.74676 0.98232 0.0
H1237 H 0.04614 0.69981 0.92984 0.0
H1238 H 0.03447 0.73782 0.92729 0.0
H1239 H 0.05767 0.72817 0.94327 0.0
H1240 H 0.0113 0.83216 0.93426 0.0
H1241 H 0.07106 0.80853 0.971 0.0
H1242 H 0.95894 0.7755 0.93998 0.0
H1243 H 0.98502 0.76315 0.92579 0.0
H1244 H 0.97307 0.80139 0.92589 0.0
H1245 H 0.03049 0.74593 0.98437 0.0
H1246 H 0.06659 0.76348 0.98461 0.0
H1247 H 0.05863 0.73379 0.97126 0.0
C1248 C 0.94518 0.26926 0.6909 0.0
C1249 C 0.93801 0.29357 0.7004 0.0
C1250 C 0.97241 0.25427 0.6923 0.0
C1251 C 0.99332 0.2637 0.70347 0.0
C1252 C 0.98616 0.28785 0.71331 0.0
C1253 C 0.9586 0.30248 0.71168 0.0
C1254 C 0.97905 0.22868 0.68153 0.0
C1255 C 0.00788 0.29861 0.72535 0.0
C1256 C 0.05604 0.20878 0.71197 0.0
C1257 C 0.07846 0.2189 0.70198 0.0
C1258 C 0.02856 0.22375 0.71305 0.0
C1259 C 0.02336 0.24947 0.70397 0.0
C1260 C 0.04626 0.26032 0.6943 0.0
C1261 C 0.07337 0.24498 0.69342 0.0
C1262 C 0.00472 0.21147 0.72351 0.0
C1263 C 0.04177 0.28763 0.68441 0.0
H1264 H 0.92952 0.26191 0.68219 0.0
H1265 H 0.95336 0.32111 0.71913 0.0
H1266 H 0.99827 0.23439 0.67407 0.0
H1267 H 0.98526 0.20863 0.68825 0.0
H1268 H 0.95984 0.22308 0.67402 0.0
H1269 H 0.99828 0.31632 0.73277 0.0
H1270 H 0.01502 0.27984 0.73278 0.0
H1271 H 0.02808 0.30749 0.71963 0.0
H1272 H 0.05965 0.18876 0.71867 0.0
H1273 H 0.0905 0.2533 0.68576 0.0
H1274 H 0.98589 0.20314 0.71646 0.0
H1275 H 0.99588 0.22925 0.7311 0.0
H1276 H 0.01303 0.19296 0.73082 0.0
H1277 H 0.02433 0.2832 0.67565 0.0
H1278 H 0.06243 0.29441 0.67833 0.0
H1279 H 0.03399 0.30652 0.69158 0.0
C1280 C 0.5115 0.32394 0.44351 0.0
C1281 C 0.53853 0.32844 0.45131 0.0
C1282 C 0.49607 0.29688 0.44453 0.0
C1283 C 0.5079 0.27344 0.45354 0.0
C1284 C 0.53464 0.27806 0.46187 0.0
C1285 C 0.5496 0.30551 0.46069 0.0
C1286 C 0.46761 0.29303 0.43549 0.0
C1287 C 0.54802 0.25363 0.47157 0.0
C1288 C 0.45624 0.20797 0.46208 0.0
C1289 C 0.46398 0.18795 0.45031 0.0
C1290 C 0.47078 0.23562 0.46355 0.0
C1291 C 0.4936 0.24345 0.45302 0.0
C1292 C 0.50179 0.22315 0.44129 0.0
C1293 C 0.48693 0.19582 0.44007 0.0
C1294 C 0.46136 0.25668 0.47619 0.0
C1295 C 0.52594 0.23052 0.42979 0.0
H1296 H 0.50246 0.3415 0.43634 0.0
H1297 H 0.5704 0.30869 0.46679 0.0
H1298 H 0.47095 0.27618 0.4263 0.0
H1299 H 0.44962 0.28477 0.44313 0.0
H1300 H 0.46014 0.31408 0.43002 0.0
H1301 H 0.56736 0.2615 0.47842 0.0
H1302 H 0.53111 0.24439 0.47956 0.0
H1303 H 0.55548 0.2352 0.46399 0.0
H1304 H 0.43865 0.20219 0.47008 0.0
H1305 H 0.49333 0.18064 0.43095 0.0
H1306 H 0.45197 0.27722 0.47104 0.0
H1307 H 0.48092 0.26336 0.48318 0.0
H1308 H 0.44443 0.2467 0.48396 0.0
H1309 H 0.5193 0.25018 0.42286 0.0
H1310 H 0.53061 0.2118 0.42179 0.0
H1311 H 0.5468 0.23637 0.43591 0.0
C1312 C 0.44004 0.7668 0.19273 0.0
C1313 C 0.43354 0.79156 0.20205 0.0
C1314 C 0.46734 0.75184 0.19384 0.0
C1315 C 0.48896 0.76173 0.20453 0.0
C1316 C 0.48234 0.78613 0.21431 0.0
C1317 C 0.45473 0.80075 0.21296 0.0
C1318 C 0.47339 0.72597 0.18317 0.0
C1319 C 0.50478 0.79734 0.22588 0.0
C1320 C 0.55314 0.70806 0.21222 0.0
C1321 C 0.57475 0.71836 0.20181 0.0
C1322 C 0.52545 0.72252 0.21366 0.0
C1323 C 0.5192 0.74788 0.2045 0.0
C1324 C 0.54124 0.75886 0.19434 0.0
C1325 C 0.56859 0.74404 0.19312 0.0
C1326 C 0.50256 0.71013 0.22465 0.0
C1327 C 0.53559 0.78581 0.18434 0.0
H1328 H 0.4239 0.75924 0.18432 0.0
H1329 H 0.45001 0.81974 0.22026 0.0
H1330 H 0.49184 0.73169 0.1752 0.0
H1331 H 0.4805 0.70623 0.1899 0.0
H1332 H 0.45362 0.71984 0.17618 0.0
H1333 H 0.4954 0.81484 0.2335 0.0
H1334 H 0.51294 0.77874 0.23314 0.0
H1335 H 0.52428 0.80667 0.21971 0.0
H1336 H 0.55757 0.68834 0.21902 0.0
H1337 H 0.58507 0.75247 0.18511 0.0
H1338 H 0.48332 0.70146 0.21802 0.0
H1339 H 0.49408 0.72794 0.23233 0.0
H1340 H 0.51163 0.69185 0.23187 0.0
H1341 H 0.51746 0.78093 0.17604 0.0
H1342 H 0.55564 0.79263 0.17774 0.0
H1343 H 0.52823 0.80483 0.19154 0.0
C1344 C 0.95768 0.30221 0.53948 0.0
C1345 C 0.96558 0.3223 0.5512 0.0
C1346 C 0.97234 0.27465 0.53791 0.0
C1347 C 0.99541 0.26692 0.54832 0.0
C1348 C 1.00385 0.28733 0.55995 0.0
C1349 C 0.98892 0.31462 0.56124 0.0
C1350 C 0.96271 0.25353 0.52535 0.0
C1351 C 0.02822 0.28004 0.57134 0.0
C1352 C 0.0128 0.18642 0.55809 0.0
C1353 C 0.03973 0.18159 0.55025 0.0
C1354 C 0.99758 0.21359 0.557 0.0
C1355 C 0.0095 0.2368 0.54788 0.0
C1356 C 0.0361 0.23183 0.53948 0.0
C1357 C 0.05088 0.20428 0.54073 0.0
C1358 C 0.96926 0.2178 0.56612 0.0
C1359 C 0.04955 0.256 0.52962 0.0
H1360 H 0.9398 0.30784 0.53162 0.0
H1361 H 0.99543 0.32984 0.57032 0.0
H1362 H 0.98219 0.24646 0.5184 0.0
H1363 H 0.95301 0.23321 0.53058 0.0
H1364 H 0.94594 0.26361 0.51752 0.0
H1365 H 0.03318 0.2989 0.57921 0.0
H1366 H 0.02159 0.26058 0.57842 0.0
H1367 H 0.04891 0.27392 0.56513 0.0
H1368 H 1.00369 0.16904 0.56535 0.0
H1369 H 0.0716 0.20086 0.5346 0.0
H1370 H 0.95122 0.22602 0.5585 0.0
H1371 H 0.97282 0.23481 0.5752 0.0
H1372 H 0.96173 0.1969 0.57173 0.0
H1373 H 0.03258 0.26532 0.52169 0.0
H1374 H 0.06867 0.24783 0.5227 0.0
H1375 H 0.05735 0.27444 0.5371 0.0
C1376 C 0.43546 0.24748 0.30892 0.0
C1377 C 0.43136 0.22003 0.30146 0.0
C1378 C 0.46245 0.26302 0.30791 0.0
C1379 C 0.48625 0.25087 0.29929 0.0
C1380 C 0.48205 0.22368 0.29129 0.0
C1381 C 0.45464 0.20862 0.29243 0.0
C1382 C 0.46584 0.29197 0.31658 0.0
C1383 C 0.50688 0.20994 0.282 0.0
C1384 C 0.55169 0.3025 0.29062 0.0
C1385 C 0.57137 0.29549 0.30268 0.0
C1386 C 0.52419 0.28771 0.2891 0.0
C1387 C 0.51615 0.26537 0.29987 0.0
C1388 C 0.53609 0.25793 0.31189 0.0
C1389 C 0.56329 0.27302 0.31315 0.0
C1390 C 0.50351 0.29632 0.27614 0.0
C1391 C 0.52847 0.23434 0.32366 0.0
H1392 H 0.41761 0.25678 0.3158 0.0
H1393 H 0.45177 0.18749 0.2866 0.0
H1394 H 0.48239 0.28921 0.32596 0.0
H1395 H 0.47426 0.3096 0.30877 0.0
H1396 H 0.44456 0.29959 0.32175 0.0
H1397 H 0.49934 0.19021 0.27535 0.0
H1398 H 0.51631 0.22648 0.27386 0.0
H1399 H 0.52508 0.20297 0.28985 0.0
H1400 H 0.55764 0.3197 0.28243 0.0
H1401 H 0.5782 0.26719 0.3225 0.0
H1402 H 0.48273 0.30581 0.28097 0.0
H1403 H 0.49722 0.27637 0.26936 0.0
H1404 H 0.51364 0.31293 0.26824 0.0
H1405 H 0.50855 0.24122 0.33032 0.0
H1406 H 0.54694 0.23021 0.33189 0.0
H1407 H 0.52295 0.21313 0.31778 0.0
C1408 C 0.49459 0.81991 0.05922 0.0
C1409 C 0.46831 0.82565 0.05095 0.0
C1410 C 0.50939 0.79253 0.05802 0.0
C1411 C 0.49773 0.77004 0.04833 0.0
C1412 C 0.47174 0.77589 0.03958 0.0
C1413 C 0.45736 0.80362 0.04097 0.0
C1414 C 0.53704 0.78734 0.06755 0.0
C1415 C 0.45859 0.7525 0.02912 0.0
C1416 C 0.54973 0.70499 0.03961 0.0
C1417 C 0.54119 0.68427 0.0509 0.0
C1418 C 0.53518 0.73264 0.03825 0.0
C1419 C 0.51154 0.7398 0.04842 0.0
C1420 C 0.50234 0.71868 0.05954 0.0
C1421 C 0.5172 0.69132 0.06064 0.0
C1422 C 0.54563 0.75453 0.02622 0.0
C1423 C 0.47731 0.72532 0.07065 0.0
H1424 H 0.50353 0.83673 0.06687 0.0
H1425 H 0.43715 0.80774 0.0345 0.0
H1426 H 0.53275 0.76965 0.07619 0.0
H1427 H 0.55551 0.77957 0.06009 0.0
H1428 H 0.54435 0.8077 0.07373 0.0
H1429 H 0.43985 0.76127 0.02212 0.0
H1430 H 0.47587 0.74363 0.02123 0.0
H1431 H 0.45035 0.7336 0.03615 0.0
H1432 H 0.56813 0.69986 0.03198 0.0
H1433 H 0.51017 0.67557 0.06937 0.0
H1434 H 0.55532 0.77433 0.03197 0.0
H1435 H 0.52657 0.76235 0.01918 0.0
H1436 H 0.56264 0.74481 0.01842 0.0
H1437 H 0.48365 0.74414 0.07824 0.0
H1438 H 0.47169 0.70591 0.07802 0.0
H1439 H 0.45709 0.73213 0.06422 0.0
C1440 C 0.95087 0.71046 0.79033 0.0
C1441 C 0.92819 0.72062 0.80015 0.0
C1442 C 0.97801 0.72595 0.78906 0.0
C1443 C 0.98258 0.75227 0.79776 0.0
C1444 C 0.95929 0.7633 0.80713 0.0
C1445 C 0.93252 0.74739 0.80822 0.0
C1446 C 1.00227 0.71344 0.77894 0.0
C1447 C 0.96309 0.79125 0.81659 0.0
C1448 C 0.06029 0.77185 0.81153 0.0
C1449 C 0.06828 0.79555 0.80179 0.0
C1450 C 0.03288 0.75728 0.81005 0.0
C1451 C 0.01259 0.76649 0.79853 0.0
C1452 C 0.02049 0.79012 0.78849 0.0
C1453 C 0.04824 0.80439 0.79024 0.0
C1454 C 0.02543 0.73229 0.82105 0.0
C1455 C 0.99945 0.80058 0.77607 0.0
H1456 H 0.94781 0.68991 0.784 0.0
H1457 H 0.91513 0.75576 0.8157 0.0
H1458 H 0.0115 0.73105 0.77136 0.0
H1459 H 0.02074 0.70517 0.78627 0.0
H1460 H 0.99422 0.69481 0.77163 0.0
H1461 H 0.94201 0.7984 0.82214 0.0
H1462 H 0.97987 0.78736 0.82576 0.0
H1463 H 0.97142 0.80967 0.80926 0.0
H1464 H 0.07544 0.7646 0.8205 0.0
H1465 H 0.05413 0.82254 0.7826 0.0
H1466 H 0.01962 0.7119 0.81451 0.0
H1467 H 0.00574 0.73842 0.82808 0.0
H1468 H 0.0441 0.72702 0.82899 0.0
H1469 H 0.99274 0.78161 0.76866 0.0
H1470 H 0.00945 0.81811 0.76868 0.0
H1471 H 0.97892 0.80956 0.78142 0.0
C1472 C 0.30299 0.41958 0.97831 0.0
C1473 C 0.3253 0.40003 0.98342 0.0
C1474 C 0.27446 0.41971 0.98501 0.0
C1475 C 0.2679 0.40006 0.99732 0.0
C1476 C 0.29049 0.38065 0.00276 0.0
C1477 C 0.31879 0.38072 0.99569 0.0
C1478 C 0.25115 0.44062 0.97872 0.0
C1479 C 0.28469 0.35964 0.01599 0.0
C1480 C 0.20276 0.41956 0.02379 0.0
C1481 C 0.18035 0.40009 0.01871 0.0
C1482 C 0.2312 0.41969 0.01699 0.0
C1483 C 0.23756 0.40015 0.00461 0.0
C1484 C 0.21483 0.38091 0.99916 0.0
C1485 C 0.18662 0.38096 0.00633 0.0
C1486 C 0.25466 0.44043 0.02328 0.0
C1487 C 0.22041 0.36004 0.98584 0.0
H1488 H 0.30759 0.43446 0.96877 0.0
H1489 H 0.33576 0.36546 0.99971 0.0
H1490 H 0.23165 0.42775 0.97461 0.0
H1491 H 0.24321 0.45567 0.98799 0.0
H1492 H 0.25965 0.45437 0.96903 0.0
H1493 H 0.30467 0.34641 0.0191 0.0
H1494 H 0.27737 0.37234 0.02629 0.0
H1495 H 0.26643 0.34414 0.01293 0.0
H1496 H 0.19835 0.43431 0.03341 0.0
H1497 H 0.16957 0.36578 0.00233 0.0
H1498 H 0.26273 0.45542 0.01402 0.0
H1499 H 0.27405 0.4274 0.0274 0.0
H1500 H 0.24626 0.45424 0.03298 0.0
H1501 H 0.22792 0.37279 0.9756 0.0
H1502 H 0.20028 0.3471 0.98267 0.0
H1503 H 0.23846 0.34426 0.98886 0.0
C1504 C 0.83836 0.0532 0.22753 0.0
C1505 C 0.85771 0.07555 0.2328 0.0
C1506 C 0.83776 0.02481 0.23438 0.0
C1507 C 0.85677 0.01843 0.24699 0.0
C1508 C 0.87596 0.04106 0.25258 0.0
C1509 C 0.87633 0.06923 0.24538 0.0
C1510 C 0.8171 1.00145 0.22794 0.0
C1511 C 0.89633 0.03542 0.2661 0.0
C1512 C 0.83688 0.95309 0.27333 0.0
C1513 C 0.85672 0.93089 0.26841 0.0
C1514 C 0.83667 0.98153 0.2665 0.0
C1515 C 0.85656 0.98807 0.25428 0.0
C1516 C 0.87617 0.96553 0.24901 0.0
C1517 C 0.87614 0.93735 0.25618 0.0
C1518 C 0.8155 0.0048 0.27258 0.0
C1519 C 0.89747 0.97129 0.23589 0.0
H1520 H 0.82397 0.05767 0.21777 0.0
H1521 H 0.8914 0.08624 0.24953 0.0
H1522 H 0.83015 0.98199 0.22393 0.0
H1523 H 0.80181 0.99345 0.23708 0.0
H1524 H 0.80362 0.00991 0.21814 0.0
H1525 H 0.9093 0.05549 0.26936 0.0
H1526 H 0.88318 0.02807 0.27624 0.0
H1527 H 0.91208 0.01725 0.26326 0.0
H1528 H 0.82191 0.94852 0.28284 0.0
H1529 H 0.89163 0.92046 0.2523 0.0
H1530 H 0.80089 0.01287 0.26315 0.0
H1531 H 0.82822 0.02423 0.2769 0.0
H1532 H 0.8013 0.99622 0.28208 0.0
H1533 H 0.88503 0.97871 0.22552 0.0
H1534 H 0.91068 0.95127 0.23283 0.0
H1535 H 0.91299 0.98946 0.23906 0.0
C1536 C 0.20535 0.58845 0.47849 0.0
C1537 C 0.18256 0.60733 0.4837 0.0
C1538 C 0.23389 0.58893 0.48518 0.0
C1539 C 0.23996 0.60852 0.49759 0.0
C1540 C 0.21688 0.62721 0.50314 0.0
C1541 C 0.18858 0.62654 0.49608 0.0
C1542 C 0.25772 0.56877 0.47877 0.0
C1543 C 0.22216 0.64811 0.51648 0.0
C1544 C 0.30597 0.59046 0.52377 0.0
C1545 C 0.32779 0.61057 0.51867 0.0
C1546 C 0.27744 0.58966 0.51708 0.0
C1547 C 0.27037 0.6092 0.5048 0.0
C1548 C 0.29248 0.62916 0.49936 0.0
C1549 C 0.3208 0.62974 0.50641 0.0
C1550 C 0.25466 0.56816 0.52336 0.0
C1551 C 0.28614 0.65009 0.48616 0.0
H1552 H 0.20113 0.57365 0.46886 0.0
H1553 H 0.17123 0.64128 0.50018 0.0
H1554 H 0.2768 0.58225 0.47464 0.0
H1555 H 0.2662 0.55385 0.48796 0.0
H1556 H 0.24953 0.55489 0.46906 0.0
H1557 H 0.20181 0.66066 0.5197 0.0
H1558 H 0.22997 0.63545 0.52669 0.0
H1559 H 0.23989 0.66424 0.51345 0.0
H1560 H 0.31094 0.57567 0.5333 0.0
H1561 H 0.33738 0.64542 0.5024 0.0
H1562 H 0.24696 0.55305 0.51407 0.0
H1563 H 0.23492 0.58056 0.52756 0.0
H1564 H 0.26355 0.5545 0.53299 0.0
H1565 H 0.27898 0.6373 0.47587 0.0
H1566 H 0.30582 0.66374 0.48302 0.0
H1567 H 0.2676 0.66522 0.48929 0.0
C1568 C 0.66877 0.05312 0.77456 0.0
C1569 C 0.65017 0.07597 0.76914 0.0
C1570 C 0.66859 0.02464 0.76781 0.0
C1571 C 0.64956 0.01866 0.75516 0.0
C1572 C 0.63115 0.04179 0.74941 0.0
C1573 C 0.63154 0.07006 0.75651 0.0
C1574 C 0.68846 1.00075 0.77442 0.0
C1575 C 0.61082 0.03659 0.73583 0.0
C1576 C 0.6685 0.9526 0.72918 0.0
C1577 C 0.64813 0.93086 0.73408 0.0
C1578 C 0.66912 0.98114 0.73587 0.0
C1579 C 0.6491 0.98827 0.74794 0.0
C1580 C 0.62888 0.96622 0.75317 0.0
C1581 C 0.62852 0.93791 0.74614 0.0
C1582 C 0.69092 1.00386 0.72983 0.0
C1583 C 0.60743 0.97265 0.76614 0.0
H1584 H 0.68315 0.05727 0.78436 0.0
H1585 H 0.61703 0.08746 0.75225 0.0
H1586 H 0.67478 0.98169 0.77839 0.0
H1587 H 0.70371 0.99226 0.76538 0.0
H1588 H 0.70197 0.0089 0.78428 0.0
H1589 H 0.59847 0.05698 0.73247 0.0
H1590 H 0.62391 0.02878 0.72576 0.0
H1591 H 0.59454 0.01889 0.73865 0.0
H1592 H 0.68364 0.94757 0.71981 0.0
H1593 H 0.61263 0.92138 0.74999 0.0
H1594 H 0.70564 0.01156 0.73929 0.0
H1595 H 0.67875 0.0236 0.72547 0.0
H1596 H 0.70498 0.99491 0.72037 0.0
H1597 H 0.61983 0.97976 0.77658 0.0
H1598 H 0.5936 0.95301 0.76913 0.0
H1599 H 0.5925 0.99123 0.76285 0.0
C1600 C 0.68755 0.62932 0.00588 0.0
C1601 C 0.68146 0.61009 0.01824 0.0
C1602 C 0.71568 0.62951 0.99864 0.0
C1603 C 0.73847 0.61022 0.00395 0.0
C1604 C 0.73229 0.59054 0.01631 0.0
C1605 C 0.70395 0.59063 0.02322 0.0
C1606 C 0.72112 0.65061 0.9854 0.0
C1607 C 0.75581 0.56967 0.02242 0.0
C1608 C 0.80371 0.5915 0.97739 0.0
C1609 C 0.82607 0.61083 0.98267 0.0
C1610 C 0.77522 0.5912 0.98413 0.0
C1611 C 0.76875 0.6105 0.99661 0.0
C1612 C 0.79135 0.62976 0.00215 0.0
C1613 C 0.81963 0.6298 0.99509 0.0
C1614 C 0.7519 0.57039 0.97777 0.0
C1615 C 0.7856 0.65048 0.01552 0.0
H1616 H 0.67043 0.6445 0.00196 0.0
H1617 H 0.69965 0.57576 0.0328 0.0
H1618 H 0.73924 0.6663 0.98843 0.0
H1619 H 0.72848 0.63804 0.97507 0.0
H1620 H 0.70097 0.66364 0.98236 0.0
H1621 H 0.74748 0.55563 0.03204 0.0
H1622 H 0.76382 0.55491 0.01305 0.0
H1623 H 0.77522 0.58261 0.02658 0.0
H1624 H 0.80829 0.57686 0.96775 0.0
H1625 H 0.83665 0.64487 0.99924 0.0
H1626 H 0.73234 0.58332 0.97378 0.0
H1627 H 0.74407 0.55512 0.98696 0.0
H1628 H 0.76034 0.55689 0.96797 0.0
H1629 H 0.76719 0.66591 0.01261 0.0
H1630 H 0.80553 0.66378 0.01862 0.0
H1631 H 0.77852 0.63753 0.02578 0.0
C1632 C 0.1308 0.93815 0.75675 0.0
C1633 C 0.1502 0.93124 0.76893 0.0
C1634 C 0.1312 0.96638 0.74965 0.0
C1635 C 0.15124 0.98853 0.75492 0.0
C1636 C 0.17112 0.98153 0.76708 0.0
C1637 C 0.17047 0.95304 0.77386 0.0
C1638 C 0.10989 0.97263 0.73659 0.0
C1639 C 0.19275 0.00437 0.77316 0.0
C1640 C 0.17004 0.05342 0.72813 0.0
C1641 C 0.15101 0.076 0.73345 0.0
C1642 C 0.1704 0.02505 0.73502 0.0
C1643 C 0.15148 0.01893 0.7477 0.0
C1644 C 0.13267 0.04182 0.75335 0.0
C1645 C 0.13253 0.06997 0.74612 0.0
C1646 C 0.19066 1.0014 0.7285 0.0
C1647 C 0.1124 0.03646 0.76694 0.0
H1648 H 0.115 0.92157 0.75286 0.0
H1649 H 0.18542 0.94811 0.78332 0.0
H1650 H 0.09473 0.99105 0.73984 0.0
H1651 H 0.12236 0.97989 0.72621 0.0
H1652 H 0.09628 0.95288 0.73353 0.0
H1653 H 0.20689 0.99546 0.7826 0.0
H1654 H 0.20739 0.01229 0.76372 0.0
H1655 H 0.18041 0.02398 0.77757 0.0
H1656 H 0.18433 0.05767 0.71831 0.0
H1657 H 0.11772 0.08717 0.75032 0.0
H1658 H 0.17728 0.9822 0.72446 0.0
H1659 H 0.20585 0.99307 0.73761 0.0
H1660 H 0.20425 0.00973 0.71871 0.0
H1661 H 0.09627 0.01861 0.76413 0.0
H1662 H 0.09986 0.05674 0.77029 0.0
H1663 H 0.12556 0.02879 0.77701 0.0
C1664 C 0.81948 0.37883 0.50632 0.0
C1665 C 0.82579 0.39789 0.51872 0.0
C1666 C 0.79138 0.37908 0.49905 0.0
C1667 C 0.76884 0.39866 0.50437 0.0
C1668 C 0.77523 0.41813 0.51678 0.0
C1669 C 0.80353 0.4176 0.52373 0.0
C1670 C 0.78572 0.3582 0.48574 0.0
C1671 C 0.75197 0.43926 0.52292 0.0
C1672 C 0.7043 0.41866 0.47761 0.0
C1673 C 0.6816 0.39955 0.4827 0.0
C1674 C 0.73267 0.41851 0.48449 0.0
C1675 C 0.73866 0.39897 0.49693 0.0
C1676 C 0.71568 0.37997 0.50231 0.0
C1677 C 0.68754 0.38038 0.4951 0.0
C1678 C 0.75639 0.43905 0.47829 0.0
C1679 C 0.72091 0.35903 0.51564 0.0
H1680 H 0.83641 0.36346 0.50238 0.0
H1681 H 0.80801 0.43233 0.53334 0.0
H1682 H 0.76729 0.34281 0.48867 0.0
H1683 H 0.77873 0.37101 0.47542 0.0
H1684 H 0.80567 0.34484 0.48273 0.0
H1685 H 0.76039 0.453 0.53263 0.0
H1686 H 0.74431 0.45431 0.51359 0.0
H1687 H 0.7323 0.42656 0.52695 0.0
H1688 H 0.70012 0.43347 0.46798 0.0
H1689 H 0.67025 0.36547 0.4991 0.0
H1690 H 0.77578 0.42587 0.4743 0.0
H1691 H 0.76438 0.45403 0.48758 0.0
H1692 H 0.74828 0.45286 0.46854 0.0
H1693 H 0.73904 0.34326 0.51274 0.0
H1694 H 0.7007 0.34607 0.51866 0.0
H1695 H 0.72814 0.37173 0.52595 0.0
C1696 C 0.3403 0.05437 0.27526 0.0
C1697 C 0.35979 0.07681 0.27024 0.0
C1698 C 0.34017 0.026 0.26839 0.0
C1699 C 0.35983 0.01972 0.25604 0.0
C1700 C 0.37923 0.04242 0.25073 0.0
C1701 C 0.37908 0.07059 0.25793 0.0
C1702 C 0.31919 1.00258 0.2745 0.0
C1703 C 0.40033 0.03687 0.2375 0.0
C1704 C 0.3788 0.93857 0.24674 0.0
C1705 C 0.35983 0.93256 0.23426 0.0
C1706 C 0.3789 0.96667 0.254 0.0
C1707 C 0.35979 0.98953 0.24859 0.0
C1708 C 0.34042 0.98346 0.23609 0.0
C1709 C 0.34058 0.95514 0.22916 0.0
C1710 C 0.39966 0.972 0.2674 0.0
C1711 C 0.31976 0.00706 0.22987 0.0
H1712 H 0.3254 0.05878 0.28482 0.0
H1713 H 0.39429 0.08766 0.25398 0.0
H1714 H 0.30422 0.99484 0.26515 0.0
H1715 H 0.33201 0.98299 0.27853 0.0
H1716 H 0.30537 0.01089 0.2842 0.0
H1717 H 0.41366 0.05688 0.23456 0.0
H1718 H 0.41574 0.01848 0.24048 0.0
H1719 H 0.38769 0.02987 0.22713 0.0
H1720 H 0.39382 0.92138 0.25075 0.0
H1721 H 0.32593 0.95091 0.21948 0.0
H1722 H 0.3868 0.97918 0.27767 0.0
H1723 H 0.41537 0.99019 0.26454 0.0
H1724 H 0.41266 0.95184 0.27045 0.0
H1725 H 0.30468 0.01494 0.23913 0.0
H1726 H 0.30606 0.99886 0.22009 0.0
H1727 H 0.33284 0.02653 0.2259 0.0
C1728 C 0.80764 0.92071 0.47926 0.0
C1729 C 0.82937 0.90015 0.48396 0.0
C1730 C 0.77916 0.92119 0.48603 0.0
C1731 C 0.77207 0.90083 0.49795 0.0
C1732 C 0.79412 0.88045 0.50299 0.0
C1733 C 0.82237 0.88025 0.4959 0.0
C1734 C 0.75643 0.94321 0.4802 0.0
C1735 C 0.78776 0.85862 0.5158 0.0
C1736 C 0.70751 0.91942 0.52497 0.0
C1737 C 0.68467 0.90088 0.51949 0.0
C1738 C 0.73588 0.91961 0.5181 0.0
C1739 C 0.74173 0.90106 0.50524 0.0
C1740 C 0.7186 0.88273 0.49943 0.0
C1741 C 0.69045 0.88271 0.50667 0.0
C1742 C 0.75979 0.93934 0.52479 0.0
C1743 C 0.72367 0.86289 0.48564 0.0
H1744 H 0.81264 0.93606 0.46997 0.0
H1745 H 0.83888 0.86421 0.4996 0.0
H1746 H 0.73667 0.93118 0.47575 0.0
H1747 H 0.74874 0.95759 0.4898 0.0
H1748 H 0.76536 0.95759 0.47087 0.0
H1749 H 0.80741 0.8447 0.51865 0.0
H1750 H 0.78069 0.8707 0.52634 0.0
H1751 H 0.76918 0.84378 0.51241 0.0
H1752 H 0.70345 0.93344 0.53492 0.0
H1753 H 0.67305 0.86826 0.50235 0.0
H1754 H 0.76818 0.95485 0.51585 0.0
H1755 H 0.77889 0.92558 0.52862 0.0
H1756 H 0.7517 0.95256 0.53477 0.0
H1757 H 0.73138 0.87634 0.47568 0.0
H1758 H 0.70325 0.85066 0.48222 0.0
H1759 H 0.74139 0.84651 0.48826 0.0
C1760 C 0.37642 0.56998 0.74541 0.0
C1761 C 0.3578 0.57584 0.73277 0.0
C1762 C 0.37683 0.54174 0.75252 0.0
C1763 C 0.35844 0.51858 0.74679 0.0
C1764 C 0.33947 0.52448 0.73411 0.0
C1765 C 0.33927 0.55295 0.72734 0.0
C1766 C 0.39712 0.53661 0.76613 0.0
C1767 C 0.31962 0.50056 0.72752 0.0
C1768 C 0.37934 0.43794 0.75616 0.0
C1769 C 0.35971 0.43113 0.76825 0.0
C1770 C 0.379 0.46612 0.74899 0.0
C1771 C 0.3588 0.48827 0.75411 0.0
C1772 C 0.33874 0.48137 0.76619 0.0
C1773 C 0.33933 0.45297 0.77302 0.0
C1774 C 0.40051 0.47231 0.73601 0.0
C1775 C 0.31693 0.50421 0.77211 0.0
H1776 H 0.39088 0.58741 0.74968 0.0
H1777 H 0.3249 0.55706 0.71753 0.0
H1778 H 0.38397 0.529 0.77622 0.0
H1779 H 0.41332 0.51877 0.76338 0.0
H1780 H 0.40958 0.55697 0.76942 0.0
H1781 H 0.30623 0.50862 0.7176 0.0
H1782 H 0.33329 0.48143 0.72365 0.0
H1783 H 0.30426 0.49222 0.73655 0.0
H1784 H 0.39524 0.42133 0.75241 0.0
H1785 H 0.32417 0.44812 0.78241 0.0
H1786 H 0.41551 0.49086 0.73926 0.0
H1787 H 0.38817 0.47937 0.72555 0.0
H1788 H 0.41427 0.45258 0.73309 0.0
H1789 H 0.32911 0.52397 0.77644 0.0
H1790 H 0.30277 0.4954 0.78156 0.0
H1791 H 0.3023 0.51184 0.76259 0.0
C1792 C 0.81985 0.12782 0.00594 0.0
C1793 C 0.82607 0.10887 0.0184 0.0
C1794 C 0.79156 0.12801 0.99886 0.0
C1795 C 0.7687 0.10911 0.00447 0.0
C1796 C 0.775 0.08977 0.01695 0.0
C1797 C 0.80351 0.08976 0.02367 0.0
C1798 C 0.78605 0.14866 0.98544 0.0
C1799 C 0.7514 0.06939 0.02342 0.0
C1800 C 0.68759 0.12912 0.9956 0.0
C1801 C 0.68083 0.10966 0.98343 0.0
C1802 C 0.71593 0.12905 0.00262 0.0
C1803 C 0.73829 0.10931 0.99725 0.0
C1804 C 0.73147 0.08948 0.98506 0.0
C1805 C 0.7029 0.08977 0.97839 0.0
C1806 C 0.72202 0.15026 0.01573 0.0
C1807 C 0.75453 0.0682 0.97885 0.0
H1808 H 0.83701 0.14274 0.00181 0.0
H1809 H 0.80789 0.07515 0.03335 0.0
H1810 H 0.77838 0.13576 0.97528 0.0
H1811 H 0.76813 0.16462 0.9884 0.0
H1812 H 0.80625 0.16139 0.98216 0.0
H1813 H 0.75976 0.05573 0.03318 0.0
H1814 H 0.73216 0.08268 0.02749 0.0
H1815 H 0.74313 0.05425 0.01427 0.0
H1816 H 0.6708 0.14464 0.99956 0.0
H1817 H 0.69811 0.07476 0.96893 0.0
H1818 H 0.74036 0.16556 0.01254 0.0
H1819 H 0.72932 0.13771 0.02608 0.0
H1820 H 0.70217 0.16372 0.01881 0.0
H1821 H 0.7741 0.0808 0.97461 0.0
H1822 H 0.74582 0.0543 0.96927 0.0
H1823 H 0.76242 0.05331 0.98819 0.0
C1824 C 0.13033 0.56993 0.25657 0.0
C1825 C 0.14955 0.57636 0.26889 0.0
C1826 C 0.13025 0.54164 0.24949 0.0
C1827 C 0.14957 0.51899 0.25495 0.0
C1828 C 0.16918 0.5255 0.26729 0.0
C1829 C 0.16905 0.55401 0.27401 0.0
C1830 C 0.10929 0.5359 0.23623 0.0
C1831 C 0.18999 0.50213 0.2736 0.0
C1832 C 0.12992 0.43774 0.24621 0.0
C1833 C 0.14905 0.43113 0.23388 0.0
C1834 C 0.13003 0.46606 0.25326 0.0
C1835 C 0.14944 0.48857 0.24775 0.0
C1836 C 0.16895 0.4819 0.23539 0.0
C1837 C 0.16865 0.45334 0.2287 0.0
C1838 C 0.10918 0.47197 0.26655 0.0
C1839 C 0.18985 0.50512 0.22901 0.0
H1840 H 0.11512 0.58693 0.25254 0.0
H1841 H 0.18388 0.55856 0.28359 0.0
H1842 H 0.12198 0.52836 0.22597 0.0
H1843 H 0.0936 0.51783 0.23931 0.0
H1844 H 0.09626 0.55597 0.23305 0.0
H1845 H 0.20384 0.51064 0.28326 0.0
H1846 H 0.17702 0.48275 0.27779 0.0
H1847 H 0.20494 0.494 0.26434 0.0
H1848 H 0.11463 0.42085 0.25029 0.0
H1849 H 0.1834 0.44866 0.21912 0.0
H1850 H 0.09359 0.49015 0.26348 0.0
H1851 H 0.12198 0.47943 0.27679 0.0
H1852 H 0.09602 0.45199 0.26976 0.0
H1853 H 0.17696 0.52457 0.22484 0.0
H1854 H 0.20358 0.49651 0.21934 0.0
H1855 H 0.20492 0.51319 0.23824 0.0
C1856 C 0.20595 0.0905 0.52568 0.0
C1857 C 0.18326 0.10906 0.52005 0.0
C1858 C 0.23449 0.09033 0.519 0.0
C1859 C 0.24067 0.10895 0.50621 0.0
C1860 C 0.21772 0.12736 0.50028 0.0
C1861 C 0.18939 0.12733 0.50731 0.0
C1862 C 0.25819 0.07047 0.52579 0.0
C1863 C 0.22316 0.14727 0.48656 0.0
C1864 C 0.32154 0.12913 0.49697 0.0
C1865 C 0.32834 0.10922 0.485 0.0
C1866 C 0.29328 0.12911 0.50407 0.0
C1867 C 0.27107 0.10892 0.499 0.0
C1868 C 0.27798 0.08855 0.48706 0.0
C1869 C 0.30645 0.08884 0.4803 0.0
C1870 C 0.28708 0.15094 0.51689 0.0
C1871 C 0.25508 0.06673 0.48121 0.0
H1872 H 0.20161 0.07641 0.53557 0.0
H1873 H 0.17211 0.1418 0.50289 0.0
H1874 H 0.26655 0.05485 0.51689 0.0
H1875 H 0.27736 0.0841 0.52965 0.0
H1876 H 0.2499 0.05736 0.53577 0.0
H1877 H 0.20292 0.15979 0.48311 0.0
H1878 H 0.24106 0.16341 0.48926 0.0
H1879 H 0.23079 0.13383 0.47658 0.0
H1880 H 0.33818 0.14502 0.50067 0.0
H1881 H 0.31129 0.07346 0.471 0.0
H1882 H 0.27978 0.1389 0.5274 0.0
H1883 H 0.26869 0.16601 0.51348 0.0
H1884 H 0.30687 0.16462 0.5198 0.0
H1885 H 0.24722 0.05242 0.4908 0.0
H1886 H 0.26393 0.05226 0.47189 0.0
H1887 H 0.23546 0.07893 0.47672 0.0
C1888 C 0.62977 0.4376 0.25555 0.0
C1889 C 0.6495 0.43118 0.26765 0.0
C1890 C 0.62968 0.46572 0.24831 0.0
C1891 C 0.64956 0.48821 0.25337 0.0
C1892 C 0.66978 0.48169 0.26544 0.0
C1893 C 0.6696 0.45334 0.27235 0.0
C1894 C 0.60803 0.4715 0.23535 0.0
C1895 C 0.69125 0.50489 0.2713 0.0
C1896 C 0.66765 0.55338 0.22664 0.0
C1897 C 0.64872 0.57587 0.23215 0.0
C1898 C 0.66804 0.52487 0.23337 0.0
C1899 C 0.64928 0.51854 0.24608 0.0
C1900 C 0.63048 0.5413 0.25188 0.0
C1901 C 0.6303 0.56958 0.2448 0.0
C1902 C 0.68829 0.50137 0.22671 0.0
C1903 C 0.6104 0.53572 0.26552 0.0
H1904 H 0.61409 0.42074 0.25185 0.0
H1905 H 0.68484 0.4488 0.28174 0.0
H1906 H 0.59264 0.48971 0.23863 0.0
H1907 H 0.62019 0.47886 0.22489 0.0
H1908 H 0.59468 0.4515 0.23242 0.0
H1909 H 0.7057 0.49631 0.2807 0.0
H1910 H 0.7056 0.51283 0.26174 0.0
H1911 H 0.67876 0.52441 0.2757 0.0
H1912 H 0.68186 0.55784 0.21681 0.0
H1913 H 0.61555 0.58671 0.24914 0.0
H1914 H 0.67497 0.48198 0.22285 0.0
H1915 H 0.70389 0.49329 0.23569 0.0
H1916 H 0.70144 0.50973 0.21676 0.0
H1917 H 0.59456 0.51756 0.26279 0.0
H1918 H 0.59754 0.55581 0.26885 0.0
H1919 H 0.62377 0.52837 0.27558 0.0
C1920 C 0.20493 0.92104 0.97893 0.0
C1921 C 0.18263 0.90142 0.98396 0.0
C1922 C 0.23329 0.92139 0.98584 0.0
C1923 C 0.23964 0.90184 0.99823 0.0
C1924 C 0.21701 0.88243 0.0036 0.0
C1925 C 0.1889 0.88236 0.99637 0.0
C1926 C 0.25666 0.94236 0.97968 0.0
C1927 C 0.22261 0.86146 0.01688 0.0
C1928 C 0.32055 0.88182 0.00742 0.0
C1929 C 0.32682 0.90056 0.01995 0.0
C1930 C 0.29248 0.88225 1.00013 0.0
C1931 C 0.26992 0.90168 0.00557 0.0
C1932 C 0.27628 0.92086 0.01811 0.0
C1933 C 0.30457 0.92016 0.02507 0.0
C1934 C 0.28685 0.86165 0.9867 0.0
C1935 C 0.25299 0.94181 0.02437 0.0
H1936 H 0.20047 0.93575 0.9693 0.0
H1937 H 0.17192 0.86707 1.00034 0.0
H1938 H 0.26472 0.95714 0.98903 0.0
H1939 H 0.27607 0.92948 0.97546 0.0
H1940 H 0.24818 0.95637 0.97008 0.0
H1941 H 0.20254 0.84835 0.01997 0.0
H1942 H 0.24078 0.84582 0.01385 0.0
H1943 H 0.22995 0.87414 0.02717 0.0
H1944 H 0.3375 0.86656 0.00338 0.0
H1945 H 0.30903 0.93466 0.03479 0.0
H1946 H 0.27962 0.87464 0.97648 0.0
H1947 H 0.2686 0.84603 0.98959 0.0
H1948 H 0.30688 0.84854 0.98355 0.0
H1949 H 0.24507 0.95687 0.01511 0.0
H1950 H 0.26147 0.95553 0.03408 0.0
H1951 H 0.23347 0.92895 0.02847 0.0
C1952 C 0.88053 0.43841 0.74552 0.0
C1953 C 0.86048 0.43139 0.73365 0.0
C1954 C 0.88029 0.46664 0.75265 0.0
C1955 C 0.85971 0.48861 0.74773 0.0
C1956 C 0.83927 0.48151 0.73585 0.0
C1957 C 0.83981 0.45308 0.72904 0.0
C1958 C 0.90225 0.47304 0.76539 0.0
C1959 C 0.81703 0.50415 0.73015 0.0
C1960 C 0.84052 0.55275 0.77491 0.0
C1961 C 0.85861 0.57591 0.76938 0.0
C1962 C 0.84073 0.52439 0.76802 0.0
C1963 C 0.85926 0.51886 0.75512 0.0
C1964 C 0.87718 0.54229 0.74928 0.0
C1965 C 0.87677 0.57042 0.75652 0.0
C1966 C 0.82138 0.50017 0.77472 0.0
C1967 C 0.89699 0.53755 0.73545 0.0
H1968 H 0.89666 0.42193 0.74916 0.0
H1969 H 0.82432 0.44806 0.71982 0.0
H1970 H 0.91681 0.49187 0.76203 0.0
H1971 H 0.89024 0.47978 0.77602 0.0
H1972 H 0.91644 0.45351 0.7681 0.0
H1973 H 0.8027 0.49526 0.72079 0.0
H1974 H 0.8026 0.51151 0.7398 0.0
H1975 H 0.82885 0.5241 0.72578 0.0
H1976 H 0.8265 0.55657 0.78488 0.0
H1977 H 0.89089 0.58807 0.75217 0.0
H1978 H 0.83541 0.48116 0.77842 0.0
H1979 H 0.80581 0.49174 0.76582 0.0
H1980 H 0.80824 0.50798 0.78479 0.0
H1981 H 0.91352 0.51991 0.73798 0.0
H1982 H 0.90905 0.55811 0.73208 0.0
H1983 H 0.88355 0.52987 0.72548 0.0
C1984 C 0.12446 0.35591 0.0925 0.0
C1985 C 0.12725 0.38377 0.08548 0.0
C1986 C 0.12471 0.35334 0.10867 0.0
C1987 C 0.12893 0.37911 0.11784 0.0
C1988 C 0.13253 0.40715 0.11067 0.0
C1989 C 0.13104 0.40918 0.09457 0.0
C1990 C 0.11994 0.32321 0.11594 0.0
C1991 C 0.13814 0.43498 0.11999 0.0
C1992 C 0.10745 0.3811 0.1603 0.0
C1993 C 0.13469 0.37467 0.16734 0.0
C1994 C 0.10499 0.3818 0.14413 0.0
C1995 C 0.13058 0.3768 0.13493 0.0
C1996 C 0.1582 0.37075 0.14206 0.0
C1997 C 0.1598 0.36935 0.15817 0.0
C1998 C 0.07503 0.38764 0.13688 0.0
C1999 C 0.18617 0.3662 0.1327 0.0
H2000 H 0.12095 0.3364 0.08539 0.0
H2001 H 0.13311 0.43071 0.08903 0.0
H2002 H 0.13972 0.31684 0.12281 0.0
H2003 H 0.10075 0.32413 0.12397 0.0
H2004 H 0.11572 0.30563 0.1072 0.0
H2005 H 0.1414 0.45487 0.11258 0.0
H2006 H 0.11916 0.43922 0.12785 0.0
H2007 H 0.15821 0.432 0.12728 0.0
H2008 H 0.08797 0.38486 0.16741 0.0
H2009 H 0.18094 0.36448 0.16364 0.0
H2010 H 0.06939 0.36947 0.12872 0.0
H2011 H 0.07576 0.40859 0.13014 0.0
H2012 H 0.05705 0.38944 0.14562 0.0
H2013 H 0.18337 0.34707 0.12476 0.0
H2014 H 0.20595 0.36205 0.14007 0.0
H2015 H 0.1905 0.38612 0.12549 0.0
C2016 C 0.8568 0.88261 0.41013 0.0
C2017 C 0.88477 0.88412 0.41714 0.0
C2018 C 0.85419 0.88205 0.39397 0.0
C2019 C 0.88024 0.88166 0.38476 0.0
C2020 C 0.90853 0.88227 0.39188 0.0
C2021 C 0.91041 0.88425 0.40798 0.0
C2022 C 0.82364 0.88246 0.38677 0.0
C2023 C 0.93683 0.88049 0.38253 0.0
C2024 C 0.87239 0.84993 0.34448 0.0
C2025 C 0.87407 0.87552 0.33532 0.0
C2026 C 0.87505 0.85158 0.36055 0.0
C2027 C 0.87802 0.87971 0.36768 0.0
C2028 C 0.87935 0.90575 0.35848 0.0
C2029 C 0.87801 0.90327 0.34233 0.0
C2030 C 0.87488 0.82318 0.36987 0.0
C2031 C 0.8815 0.9362 0.36572 0.0
H2032 H 0.83701 0.88297 0.41727 0.0
H2033 H 0.93203 0.88546 0.4134 0.0
H2034 H 0.82186 0.90134 0.37857 0.0
H2035 H 0.81995 0.86178 0.38008 0.0
H2036 H 0.80571 0.88451 0.39552 0.0
H2037 H 0.95699 0.87974 0.38992 0.0
H2038 H 0.93648 0.86034 0.37514 0.0
H2039 H 0.93855 0.9 0.37476 0.0
H2040 H 0.86937 0.82847 0.33909 0.0
H2041 H 0.8789 0.92307 0.33521 0.0
H2042 H 0.85531 0.82279 0.37764 0.0
H2043 H 0.89502 0.82207 0.37725 0.0
H2044 H 0.8742 0.80305 0.36245 0.0
H2045 H 0.86279 0.93953 0.37389 0.0
H2046 H 0.88099 0.95427 0.35698 0.0
H2047 H 0.90238 0.93813 0.37244 0.0
C2048 C 0.34863 0.63537 0.65749 0.0
C2049 C 0.37399 0.63505 0.66686 0.0
C2050 C 0.35099 0.63416 0.64141 0.0
C2051 C 0.37949 0.63366 0.63451 0.0
C2052 C 0.40528 0.63384 0.64394 0.0
C2053 C 0.4022 0.63401 0.66009 0.0
C2054 C 0.32296 0.63295 0.63181 0.0
C2055 C 0.43602 0.63412 0.63695 0.0
C2056 C 0.3855 0.60137 0.59428 0.0
C2057 C 0.38392 0.62691 0.58508 0.0
C2058 C 0.38407 0.60329 0.61038 0.0
C2059 C 0.38206 0.63157 0.61746 0.0
C2060 C 0.38101 0.65755 0.60819 0.0
C2061 C 0.38143 0.65486 0.59203 0.0
C2062 C 0.38419 0.57502 0.6198 0.0
C2063 C 0.37968 0.6881 0.61536 0.0
H2064 H 0.3268 0.63608 0.66279 0.0
H2065 H 0.42178 0.63419 0.66738 0.0
H2066 H 0.32207 0.65225 0.62386 0.0
H2067 H 0.32297 0.61256 0.6246 0.0
H2068 H 0.30253 0.63301 0.63902 0.0
H2069 H 0.45371 0.63602 0.64584 0.0
H2070 H 0.43975 0.61344 0.63026 0.0
H2071 H 0.43814 0.65302 0.62879 0.0
H2072 H 0.38739 0.57974 0.58884 0.0
H2073 H 0.38069 0.6746 0.58486 0.0
H2074 H 0.36368 0.57377 0.6269 0.0
H2075 H 0.40334 0.57498 0.62785 0.0
H2076 H 0.38548 0.55479 0.61248 0.0
H2077 H 0.3587 0.69068 0.62195 0.0
H2078 H 0.3809 0.70608 0.60659 0.0
H2079 H 0.39829 0.69094 0.62364 0.0
C2080 C 0.60508 0.13281 0.842 0.0
C2081 C 0.63327 0.13319 0.83517 0.0
C2082 C 0.60213 0.13225 0.85815 0.0
C2083 C 0.62797 0.13101 0.86751 0.0
C2084 C 0.65642 0.13072 0.86056 0.0
C2085 C 0.65869 0.13234 0.84448 0.0
C2086 C 0.57147 0.13339 0.86521 0.0
C2087 C 0.68447 0.12836 0.87008 0.0
C2088 C 0.62737 0.15206 0.91 0.0
C2089 C 0.6242 0.12417 0.91695 0.0
C2090 C 0.62755 0.1548 0.89384 0.0
C2091 C 0.6255 0.12891 0.88456 0.0
C2092 C 0.62272 0.10068 0.89161 0.0
C2093 C 0.62162 0.09873 0.90772 0.0
C2094 C 0.62976 0.18533 0.8867 0.0
C2095 C 0.6215 0.07247 0.88217 0.0
H2096 H 0.58548 0.1339 0.83474 0.0
H2097 H 0.6805 0.13255 0.83913 0.0
H2098 H 0.56725 0.11288 0.87196 0.0
H2099 H 0.56995 0.15241 0.87333 0.0
H2100 H 0.55375 0.1357 0.85636 0.0
H2101 H 0.70482 0.12763 0.86282 0.0
H2102 H 0.68619 0.1476 0.87803 0.0
H2103 H 0.68374 0.10797 0.87728 0.0
H2104 H 0.6289 0.17175 0.91718 0.0
H2105 H 0.6192 0.07714 0.91315 0.0
H2106 H 0.61122 0.18876 0.87844 0.0
H2107 H 0.65079 0.18728 0.88009 0.0
H2108 H 0.62914 0.2033 0.89549 0.0
H2109 H 0.60233 0.07319 0.87413 0.0
H2110 H 0.61948 0.05228 0.88947 0.0
H2111 H 0.64192 0.07049 0.87505 0.0
C2112 C 0.16004 0.63604 0.34472 0.0
C2113 C 0.13477 0.63264 0.33544 0.0
C2114 C 0.15813 0.63427 0.36082 0.0
C2115 C 0.13006 0.62992 0.36783 0.0
C2116 C 0.10431 0.62695 0.3585 0.0
C2117 C 0.10705 0.62787 0.34234 0.0
C2118 C 0.18623 0.63658 0.3703 0.0
C2119 C 0.07392 0.62306 0.3656 0.0
C2120 C 0.12822 0.59661 0.40798 0.0
C2121 C 0.12644 0.62202 0.41725 0.0
C2122 C 0.12962 0.59891 0.39188 0.0
C2123 C 0.12802 0.6273 0.38489 0.0
C2124 C 0.12568 0.65308 0.39424 0.0
C2125 C 0.12547 0.65015 0.41039 0.0
C2126 C 0.13322 0.57098 0.38238 0.0
C2127 C 0.12302 0.68364 0.38717 0.0
H2128 H 0.18152 0.63963 0.33935 0.0
H2129 H 0.08747 0.62562 0.33514 0.0
H2130 H 0.18471 0.6557 0.37834 0.0
H2131 H 0.18901 0.61624 0.3774 0.0
H2132 H 0.20635 0.63944 0.36301 0.0
H2133 H 0.05598 0.62277 0.35679 0.0
H2134 H 0.07305 0.60194 0.37219 0.0
H2135 H 0.06947 0.64137 0.37387 0.0
H2136 H 0.12896 0.57486 0.41337 0.0
H2137 H 0.12358 0.66973 0.41763 0.0
H2138 H 0.15359 0.5726 0.3752 0.0
H2139 H 0.11412 0.56842 0.3744 0.0
H2140 H 0.13481 0.5507 0.38965 0.0
H2141 H 0.14338 0.68892 0.38049 0.0
H2142 H 0.11969 0.70122 0.39601 0.0
H2143 H 0.10405 0.68419 0.37899 0.0
C2144 C 0.60578 0.87837 0.66041 0.0
C2145 C 0.63348 0.87482 0.66751 0.0
C2146 C 0.60339 0.87879 0.64423 0.0
C2147 C 0.62946 0.87662 0.63509 0.0
C2148 C 0.65751 0.87351 0.6423 0.0
C2149 C 0.65909 0.87214 0.65842 0.0
C2150 C 0.57304 0.88132 0.63692 0.0
C2151 C 0.68591 0.87216 0.63302 0.0
C2152 C 0.62645 0.85614 0.5925 0.0
C2153 C 0.62644 0.8843 0.58565 0.0
C2154 C 0.62656 0.85323 0.60866 0.0
C2155 C 0.62774 0.87909 0.61802 0.0
C2156 C 0.62839 0.90751 0.61104 0.0
C2157 C 0.62719 0.90975 0.59494 0.0
C2158 C 0.62501 0.8226 0.61573 0.0
C2159 C 0.63071 0.93557 0.62055 0.0
H2160 H 0.58595 0.87998 0.66748 0.0
H2161 H 0.68054 0.86944 0.66397 0.0
H2162 H 0.57144 0.90234 0.63028 0.0
H2163 H 0.56958 0.86279 0.62865 0.0
H2164 H 0.55489 0.8809 0.64561 0.0
H2165 H 0.70594 0.87009 0.64044 0.0
H2166 H 0.68529 0.85296 0.625 0.0
H2167 H 0.68812 0.89255 0.62589 0.0
H2168 H 0.62543 0.83652 0.58526 0.0
H2169 H 0.62725 0.93154 0.58957 0.0
H2170 H 0.60586 0.82127 0.62378 0.0
H2171 H 0.64539 0.81819 0.62256 0.0
H2172 H 0.62266 0.80488 0.60688 0.0
H2173 H 0.61133 0.93743 0.6284 0.0
H2174 H 0.63171 0.9559 0.61328 0.0
H2175 H 0.65095 0.93473 0.62786 0.0
C2176 C 0.34942 0.37593 0.8442 0.0
C2177 C 0.37512 0.37734 0.83511 0.0
C2178 C 0.35104 0.37763 0.8603 0.0
C2179 C 0.37918 0.37975 0.86751 0.0
C2180 C 0.40532 0.38084 0.85837 0.0
C2181 C 0.40293 0.38013 0.84219 0.0
C2182 C 0.3226 0.37744 0.86959 0.0
C2183 C 0.43574 0.38229 0.86568 0.0
C2184 C 0.38249 0.41183 0.90788 0.0
C2185 C 0.38211 0.38612 0.91699 0.0
C2186 C 0.38138 0.41005 0.89177 0.0
C2187 C 0.38099 0.38179 0.88459 0.0
C2188 C 0.38109 0.35568 0.89376 0.0
C2189 C 0.38111 0.35817 0.90993 0.0
C2190 C 0.38021 0.4384 0.88244 0.0
C2191 C 0.38152 0.32518 0.88649 0.0
H2192 H 0.3279 0.37382 0.83866 0.0
H2193 H 0.4228 0.38077 0.83512 0.0
H2194 H 0.32228 0.35799 0.87745 0.0
H2195 H 0.32137 0.39769 0.87687 0.0
H2196 H 0.30249 0.37655 0.86215 0.0
H2197 H 0.45387 0.38166 0.85698 0.0
H2198 H 0.43794 0.40301 0.87253 0.0
H2199 H 0.43867 0.36337 0.87376 0.0
H2200 H 0.38323 0.43345 0.91342 0.0
H2201 H 0.3813 0.33832 0.91704 0.0
H2202 H 0.35992 0.43858 0.87515 0.0
H2203 H 0.39962 0.43963 0.87458 0.0
H2204 H 0.38009 0.45857 0.88984 0.0
H2205 H 0.36094 0.32166 0.87969 0.0
H2206 H 0.38332 0.30718 0.89522 0.0
H2207 H 0.40054 0.32337 0.87839 0.0
C2208 C 0.90082 0.12735 0.15977 0.0
C2209 C 0.8739 0.13564 0.16664 0.0
C2210 C 0.90368 0.12662 0.14361 0.0
C2211 C 0.8788 0.13364 0.13423 0.0
C2212 C 0.85159 0.14191 0.14118 0.0
C2213 C 0.84959 0.14312 0.15728 0.0
C2214 C 0.93322 0.11832 0.13656 0.0
C2215 C 0.82434 0.14881 0.13163 0.0
C2216 C 0.88663 0.15321 0.09173 0.0
C2217 C 0.88128 0.12562 0.08483 0.0
C2218 C 0.88686 0.15603 0.10788 0.0
C2219 C 0.88053 0.13086 0.11717 0.0
C2220 C 0.8745 0.10311 0.11013 0.0
C2221 C 0.87557 0.10073 0.09404 0.0
C2222 C 0.89426 0.18575 0.11501 0.0
C2223 C 0.86661 0.07601 0.11958 0.0
H2224 H 0.9197 0.12184 0.167 0.0
H2225 H 0.82868 0.14944 0.16257 0.0
H2226 H 0.93101 0.09724 0.13002 0.0
H2227 H 0.94035 0.1357 0.12826 0.0
H2228 H 0.95087 0.11547 0.14541 0.0
H2229 H 0.8049 0.155 0.13885 0.0
H2230 H 0.82906 0.16735 0.12356 0.0
H2231 H 0.81829 0.12916 0.12455 0.0
H2232 H 0.89167 0.17226 0.08451 0.0
H2233 H 0.8716 0.07938 0.08858 0.0
H2234 H 0.91316 0.18328 0.12314 0.0
H2235 H 0.87503 0.19404 0.12176 0.0
H2236 H 0.90019 0.20269 0.1062 0.0
H2237 H 0.88508 0.07047 0.12756 0.0
H2238 H 0.86192 0.05627 0.11227 0.0
H2239 H 0.84672 0.0807 0.12676 0.0
C2240 C 0.85178 0.63178 0.84487 0.0
C2241 C 0.87668 0.63476 0.83531 0.0
C2242 C 0.85478 0.63066 0.86093 0.0
C2243 C 0.88333 0.63375 0.86761 0.0
C2244 C 0.90858 0.63733 0.85798 0.0
C2245 C 0.905 0.63724 0.84186 0.0
C2246 C 0.82744 0.62574 0.87073 0.0
C2247 C 0.93923 0.64157 0.86472 0.0
C2248 C 0.88275 0.65429 0.9102 0.0
C2249 C 0.8883 0.62665 0.91705 0.0
C2250 C 0.88232 0.65726 0.89404 0.0
C2251 C 0.88663 0.6318 0.88465 0.0
C2252 C 0.89217 0.60388 0.89158 0.0
C2253 C 0.89335 0.60175 0.90768 0.0
C2254 C 0.8771 0.68752 0.88703 0.0
C2255 C 0.89598 0.57604 0.88201 0.0
H2256 H 0.82988 0.62985 0.83973 0.0
H2257 H 0.92415 0.64005 0.8344 0.0
H2258 H 0.83032 0.60549 0.8779 0.0
H2259 H 0.82425 0.64472 0.87872 0.0
H2260 H 0.80697 0.62314 0.86368 0.0
H2261 H 0.95627 0.64572 0.85569 0.0
H2262 H 0.93913 0.6606 0.87287 0.0
H2263 H 0.94579 0.62156 0.87137 0.0
H2264 H 0.87921 0.6736 0.91745 0.0
H2265 H 0.89755 0.58031 0.91297 0.0
H2266 H 0.85558 0.6877 0.88077 0.0
H2267 H 0.89476 0.6926 0.87848 0.0
H2268 H 0.8767 0.70541 0.89586 0.0
H2269 H 0.87554 0.57194 0.87516 0.0
H2270 H 0.90049 0.55611 0.88922 0.0
H2271 H 0.91456 0.57886 0.87374 0.0
C2272 C 0.1205 0.15492 0.59244 0.0
C2273 C 0.12369 0.12695 0.58558 0.0
C2274 C 0.12057 0.15783 0.60859 0.0
C2275 C 0.12506 0.13231 0.61792 0.0
C2276 C 0.1288 0.10413 0.61093 0.0
C2277 C 0.12749 0.10175 0.59484 0.0
C2278 C 0.1156 0.18808 0.61568 0.0
C2279 C 0.13472 0.07656 0.6204 0.0
C2280 C 0.15818 0.14201 0.65774 0.0
C2281 C 0.13372 0.13621 0.66731 0.0
C2282 C 0.15553 0.14114 0.64166 0.0
C2283 C 0.12752 0.13505 0.63496 0.0
C2284 C 0.10252 0.12982 0.64456 0.0
C2285 C 0.10601 0.13006 0.66069 0.0
C2286 C 0.1829 0.14598 0.63187 0.0
C2287 C 0.07217 0.12393 0.63778 0.0
H2288 H 0.11704 0.17427 0.58519 0.0
H2289 H 0.12993 0.08013 0.58944 0.0
H2290 H 0.09693 0.18707 0.62404 0.0
H2291 H 0.13567 0.19504 0.62218 0.0
H2292 H 0.11054 0.20529 0.60687 0.0
H2293 H 0.13753 0.05642 0.61312 0.0
H2294 H 0.15517 0.07966 0.62739 0.0
H2295 H 0.11613 0.07264 0.62855 0.0
H2296 H 0.17968 0.14669 0.66285 0.0
H2297 H 0.08704 0.12593 0.66809 0.0
H2298 H 0.17934 0.16484 0.62384 0.0
H2299 H 0.18722 0.12594 0.62474 0.0
H2300 H 0.20299 0.15067 0.63892 0.0
H2301 H 0.06622 0.1418 0.62951 0.0
H2302 H 0.05464 0.12257 0.64678 0.0
H2303 H 0.07244 0.10271 0.63126 0.0
C2304 C 0.62053 0.41042 0.40729 0.0
C2305 C 0.62294 0.38491 0.41649 0.0
C2306 C 0.62213 0.40863 0.39119 0.0
C2307 C 0.6253 0.3805 0.38409 0.0
C2308 C 0.62724 0.35453 0.39333 0.0
C2309 C 0.62652 0.3571 0.4095 0.0
C2310 C 0.62096 0.43693 0.38181 0.0
C2311 C 0.62988 0.3241 0.38611 0.0
C2312 C 0.60519 0.3775 0.34149 0.0
C2313 C 0.63339 0.37754 0.33469 0.0
C2314 C 0.60216 0.3775 0.35763 0.0
C2315 C 0.62794 0.37863 0.36703 0.0
C2316 C 0.65643 0.37931 0.36011 0.0
C2317 C 0.65879 0.37819 0.34401 0.0
C2318 C 0.57147 0.37591 0.36463 0.0
C2319 C 0.68441 0.38158 0.36968 0.0
H2320 H 0.61789 0.43198 0.41273 0.0
H2321 H 0.62801 0.33737 0.41664 0.0
H2322 H 0.64145 0.43904 0.37477 0.0
H2323 H 0.60188 0.43625 0.37372 0.0
H2324 H 0.61879 0.45706 0.38916 0.0
H2325 H 0.62932 0.30604 0.39486 0.0
H2326 H 0.61148 0.32055 0.37778 0.0
H2327 H 0.651 0.32243 0.37957 0.0
H2328 H 0.58562 0.37644 0.3342 0.0
H2329 H 0.68059 0.37817 0.33867 0.0
H2330 H 0.56697 0.39631 0.37144 0.0
H2331 H 0.57011 0.35679 0.37269 0.0
H2332 H 0.55383 0.37351 0.35575 0.0
H2333 H 0.68357 0.40185 0.37697 0.0
H2334 H 0.7048 0.38248 0.36246 0.0
H2335 H 0.68614 0.36222 0.37756 0.0
C2336 C 0.3907 0.90844 0.09549 0.0
C2337 C 0.3864 0.88336 0.08615 0.0
C2338 C 0.38966 0.90634 0.11159 0.0
C2339 C 0.38503 0.87828 0.11855 0.0
C2340 C 0.38125 0.8527 0.10918 0.0
C2341 C 0.38153 0.85562 0.09302 0.0
C2342 C 0.39284 0.93429 0.12113 0.0
C2343 C 0.37698 0.82231 0.11623 0.0
C2344 C 0.40518 0.87352 0.16113 0.0
C2345 C 0.37707 0.87528 0.16796 0.0
C2346 C 0.40812 0.87343 0.14497 0.0
C2347 C 0.38241 0.87624 0.13561 0.0
C2348 C 0.35406 0.87861 0.14257 0.0
C2349 C 0.35172 0.87753 0.15867 0.0
C2350 C 0.43861 0.87002 0.13792 0.0
C2351 C 0.32621 0.88272 0.13306 0.0
H2352 H 0.39437 0.92995 0.09017 0.0
H2353 H 0.37858 0.83619 0.08577 0.0
H2354 H 0.37258 0.93764 0.12823 0.0
H2355 H 0.41188 0.93214 0.12918 0.0
H2356 H 0.39631 0.95438 0.11389 0.0
H2357 H 0.3765 0.80444 0.10739 0.0
H2358 H 0.39518 0.81758 0.12452 0.0
H2359 H 0.35581 0.82169 0.12279 0.0
H2360 H 0.42468 0.87124 0.16839 0.0
H2361 H 0.32998 0.87887 0.16404 0.0
H2362 H 0.44437 0.8902 0.13121 0.0
H2363 H 0.43872 0.85099 0.12976 0.0
H2364 H 0.4561 0.86633 0.14677 0.0
H2365 H 0.32822 0.90305 0.12587 0.0
H2366 H 0.30595 0.8847 0.14031 0.0
H2367 H 0.3233 0.86365 0.12509 0.0
C2368 C 0.90236 0.37599 0.65995 0.0
C2369 C 0.87452 0.37415 0.66708 0.0
C2370 C 0.90472 0.37583 0.64377 0.0
C2371 C 0.87855 0.37486 0.63465 0.0
C2372 C 0.85039 0.37351 0.6419 0.0
C2373 C 0.84878 0.37264 0.65802 0.0
C2374 C 0.93515 0.37645 0.63643 0.0
C2375 C 0.82194 0.37352 0.63263 0.0
C2376 C 0.88286 0.40695 0.59432 0.0
C2377 C 0.88234 0.38131 0.58516 0.0
C2378 C 0.88137 0.40512 0.61042 0.0
C2379 C 0.88038 0.37685 0.61756 0.0
C2380 C 0.88019 0.35078 0.60835 0.0
C2381 C 0.88067 0.35334 0.59217 0.0
C2382 C 0.88056 0.43347 0.61977 0.0
C2383 C 0.87995 0.32026 0.61559 0.0
H2384 H 0.92225 0.37666 0.667 0.0
H2385 H 0.82724 0.37123 0.6636 0.0
H2386 H 0.93752 0.35757 0.62827 0.0
H2387 H 0.93794 0.3972 0.62968 0.0
H2388 H 0.95327 0.37516 0.64512 0.0
H2389 H 0.80184 0.37272 0.64007 0.0
H2390 H 0.82083 0.39385 0.62539 0.0
H2391 H 0.82148 0.35415 0.62472 0.0
H2392 H 0.88406 0.4286 0.58884 0.0
H2393 H 0.8807 0.33353 0.58504 0.0
H2394 H 0.90004 0.43446 0.6276 0.0
H2395 H 0.86033 0.43386 0.6271 0.0
H2396 H 0.88062 0.45366 0.61239 0.0
H2397 H 0.89904 0.31796 0.62362 0.0
H2398 H 0.88117 0.30225 0.60684 0.0
H2399 H 0.8594 0.31722 0.62248 0.0
C2400 C 0.34967 0.13861 0.34565 0.0
C2401 C 0.37505 0.13564 0.3364 0.0
C2402 C 0.35154 0.13702 0.36174 0.0
C2403 C 0.37965 0.13325 0.36879 0.0
C2404 C 0.4055 0.13073 0.35951 0.0
C2405 C 0.40283 0.13149 0.34334 0.0
C2406 C 0.32335 0.13883 0.37118 0.0
C2407 C 0.43592 0.12744 0.36666 0.0
C2408 C 0.38325 0.15348 0.41136 0.0
C2409 C 0.38262 0.12532 0.4182 0.0
C2410 C 0.3833 0.15644 0.39521 0.0
C2411 C 0.38158 0.13063 0.38585 0.0
C2412 C 0.38033 0.1022 0.39281 0.0
C2413 C 0.38145 0.0999 0.40891 0.0
C2414 C 0.38554 0.18705 0.38817 0.0
C2415 C 0.37741 0.07423 0.38328 0.0
H2416 H 0.32814 0.14169 0.34026 0.0
H2417 H 0.42248 0.12955 0.33616 0.0
H2418 H 0.32085 0.11842 0.37825 0.0
H2419 H 0.3245 0.15793 0.37925 0.0
H2420 H 0.30322 0.1414 0.36387 0.0
H2421 H 0.45392 0.12757 0.35789 0.0
H2422 H 0.43993 0.14579 0.37497 0.0
H2423 H 0.43717 0.10631 0.37322 0.0
H2424 H 0.38473 0.17307 0.41862 0.0
H2425 H 0.38103 0.07813 0.41429 0.0
H2426 H 0.36519 0.19199 0.38141 0.0
H2427 H 0.40461 0.18793 0.38006 0.0
H2428 H 0.38844 0.20466 0.39703 0.0
H2429 H 0.3571 0.07546 0.37603 0.0
H2430 H 0.37613 0.0539 0.39053 0.0
H2431 H 0.39666 0.07206 0.37537 0.0
C2432 C 0.6047 0.63206 0.1595 0.0
C2433 C 0.63239 0.63685 0.16643 0.0
C2434 C 0.6019 0.63185 0.14334 0.0
C2435 C 0.62757 0.63562 0.13403 0.0
C2436 C 0.65557 0.64022 0.14105 0.0
C2437 C 0.65754 0.64119 0.15715 0.0
C2438 C 0.57158 0.62762 0.13622 0.0
C2439 C 0.6836 0.64338 0.13157 0.0
C2440 C 0.62702 0.60217 0.09395 0.0
C2441 C 0.62478 0.62748 0.08462 0.0
C2442 C 0.62805 0.60457 0.11004 0.0
C2443 C 0.62567 0.63295 0.11697 0.0
C2444 C 0.62292 0.65863 0.10758 0.0
C2445 C 0.62304 0.65562 0.09142 0.0
C2446 C 0.6321 0.57675 0.11959 0.0
C2447 C 0.61949 0.68915 0.1146 0.0
H2448 H 0.58521 0.62908 0.1667 0.0
H2449 H 0.67902 0.6448 0.16252 0.0
H2450 H 0.56696 0.64578 0.12788 0.0
H2451 H 0.57096 0.60641 0.1297 0.0
H2452 H 0.55362 0.62723 0.14501 0.0
H2453 H 0.70362 0.64692 0.13885 0.0
H2454 H 0.68704 0.62308 0.12451 0.0
H2455 H 0.6815 0.66237 0.12349 0.0
H2456 H 0.62834 0.5804 0.0886 0.0
H2457 H 0.62077 0.67509 0.08414 0.0
H2458 H 0.61295 0.57385 0.12751 0.0
H2459 H 0.65235 0.5788 0.12682 0.0
H2460 H 0.63416 0.55647 0.11235 0.0
H2461 H 0.60037 0.68932 0.12269 0.0
H2462 H 0.61596 0.70662 0.10572 0.0
H2463 H 0.63961 0.69488 0.12137 0.0
C2464 C 0.12958 0.90209 0.84289 0.0
C2465 C 0.13238 0.87447 0.83563 0.0
C2466 C 0.12871 0.9041 0.85908 0.0
C2467 C 0.12938 0.87773 0.86805 0.0
C2468 C 0.13114 0.84975 0.86066 0.0
C2469 C 0.13333 0.84854 0.84456 0.0
C2470 C 0.12781 0.93437 0.86658 0.0
C2471 C 0.13057 0.82108 0.86974 0.0
C2472 C 0.1522 0.87952 0.91031 0.0
C2473 C 0.12456 0.88211 0.91758 0.0
C2474 C 0.1542 0.87871 0.89413 0.0
C2475 C 0.12782 0.87925 0.88516 0.0
C2476 C 0.09983 0.88074 0.89257 0.0
C2477 C 0.09861 0.88287 0.90867 0.0
C2478 C 0.18448 0.87808 0.88662 0.0
C2479 C 0.07116 0.88002 0.88349 0.0
H2480 H 0.12925 0.92215 0.83595 0.0
H2481 H 0.13547 0.82716 0.83897 0.0
H2482 H 0.10723 0.93676 0.87351 0.0
H2483 H 0.14688 0.93682 0.87461 0.0
H2484 H 0.12862 0.95269 0.85799 0.0
H2485 H 0.1303 0.80117 0.86216 0.0
H2486 H 0.15036 0.81975 0.87734 0.0
H2487 H 0.11064 0.82045 0.87729 0.0
H2488 H 0.17226 0.87942 0.91725 0.0
H2489 H 0.07724 0.88491 0.91431 0.0
H2490 H 0.1868 0.89725 0.87865 0.0
H2491 H 0.18701 0.85758 0.87964 0.0
H2492 H 0.20279 0.87892 0.89522 0.0
H2493 H 0.06967 0.89986 0.87594 0.0
H2494 H 0.05126 0.87952 0.89108 0.0
H2495 H 0.07069 0.86014 0.8759 0.0
loop_
_geom_bond_atom_site_label_1
_geom_bond_atom_site_label_2
_geom_bond_distance
_geom_bond_site_symmetry_2
_ccdc_geom_bond_type
Co0 O1 2.216 . S
Co0 O2 2.091 . S
Co0 O4 2.004 . S
Co0 O10 2.021 . S
Co0 O12 2.137 . S
Co0 O13 2.244 . S
O1 Co0 2.216 . S
O1 C8 1.247 . S
O2 Co0 2.091 . S
O2 C8 1.261 . S
C3 O12 1.247 . S
C3 O13 1.272 . S
O4 Co0 2.004 . S
O4 C9 1.259 . S
Co5 O6 2.061 . S
Co5 O11 2.052 . S
Co5 O13 2.135 . S
O6 Co5 2.061 . S
O6 C9 1.235 . S
C7 O10 1.238 . S
C7 O11 1.241 . S
C8 O1 1.247 . S
C8 O2 1.261 . S
C9 O4 1.259 . S
C9 O6 1.235 . S
O10 Co0 2.021 . S
O10 C7 1.238 . S
O11 Co5 2.052 . S
O11 C7 1.241 . S
O12 Co0 2.137 . S
O12 C3 1.247 . S
O13 Co0 2.244 . S
O13 C3 1.272 . S
O13 Co5 2.135 . S
Co14 O15 2.216 . S
Co14 O16 2.091 . S
Co14 O18 2.004 . S
Co14 O24 2.021 . S
Co14 O26 2.137 . S
Co14 O27 2.244 . S
O15 Co14 2.216 . S
O15 C22 1.247 . S
O16 Co14 2.091 . S
O16 C22 1.261 . S
C17 O26 1.247 . S
C17 O27 1.272 . S
O18 Co14 2.004 . S
O18 C23 1.259 . S
Co19 O20 2.061 . S
Co19 O25 2.052 . S
Co19 O27 2.135 . S
O20 Co19 2.061 . S
O20 C23 1.235 . S
C21 O24 1.238 . S
C21 O25 1.241 . S
C22 O15 1.247 . S
C22 O16 1.261 . S
C23 O18 1.259 . S
C23 O20 1.235 . S
O24 Co14 2.021 . S
O24 C21 1.238 . S
O25 Co19 2.052 . S
O25 C21 1.241 . S
O26 Co14 2.137 . S
O26 C17 1.247 . S
O27 Co14 2.244 . S
O27 C17 1.272 . S
O27 Co19 2.135 . S
Co28 O29 2.216 . S
Co28 O30 2.091 . S
Co28 O32 2.004 . S
Co28 O38 2.021 . S
Co28 O40 2.137 . S
Co28 O41 2.244 . S
O29 Co28 2.216 . S
O29 C36 1.247 . S
O30 Co28 2.091 . S
O30 C36 1.261 . S
C31 O40 1.247 . S
C31 O41 1.272 . S
O32 Co28 2.004 . S
O32 C37 1.259 . S
Co33 O34 2.061 . S
Co33 O39 2.052 . S
Co33 O41 2.135 . S
O34 Co33 2.061 . S
O34 C37 1.235 . S
C35 O38 1.238 . S
C35 O39 1.241 . S
C36 O29 1.247 . S
C36 O30 1.261 . S
C37 O32 1.259 . S
C37 O34 1.235 . S
O38 Co28 2.021 . S
O38 C35 1.238 . S
O39 Co33 2.052 . S
O39 C35 1.241 . S
O40 Co28 2.137 . S
O40 C31 1.247 . S
O41 Co28 2.244 . S
O41 C31 1.272 . S
O41 Co33 2.135 . S
Co42 O43 2.216 . S
Co42 O44 2.091 . S
Co42 O46 2.004 . S
Co42 O52 2.021 . S
Co42 O54 2.137 . S
Co42 O55 2.244 . S
O43 Co42 2.216 . S
O43 C50 1.247 . S
O44 Co42 2.091 . S
O44 C50 1.261 . S
C45 O54 1.247 . S
C45 O55 1.272 . S
O46 Co42 2.004 . S
O46 C51 1.259 . S
Co47 O48 2.061 . S
Co47 O53 2.052 . S
Co47 O55 2.135 . S
O48 Co47 2.061 . S
O48 C51 1.235 . S
C49 O52 1.238 . S
C49 O53 1.241 . S
C50 O43 1.247 . S
C50 O44 1.261 . S
C51 O46 1.259 . S
C51 O48 1.235 . S
O52 Co42 2.021 . S
O52 C49 1.238 . S
O53 Co47 2.052 . S
O53 C49 1.241 . S
O54 Co42 2.137 . S
O54 C45 1.247 . S
O55 Co42 2.244 . S
O55 C45 1.272 . S
O55 Co47 2.135 . S
Co56 O57 2.216 . S
Co56 O58 2.091 . S
Co56 O60 2.004 . S
Co56 O66 2.021 . S
Co56 O68 2.137 . S
Co56 O69 2.244 . S
O57 Co56 2.216 . S
O57 C64 1.247 . S
O58 Co56 2.091 . S
O58 C64 1.261 . S
C59 O68 1.247 . S
C59 O69 1.272 . S
O60 Co56 2.004 . S
O60 C65 1.259 . S
Co61 O62 2.061 . S
Co61 O67 2.052 . S
Co61 O69 2.135 . S
O62 Co61 2.061 . S
O62 C65 1.235 . S
C63 O66 1.238 . S
C63 O67 1.241 . S
C64 O57 1.247 . S
C64 O58 1.261 . S
C65 O60 1.259 . S
C65 O62 1.235 . S
O66 Co56 2.021 . S
O66 C63 1.238 . S
O67 Co61 2.052 . S
O67 C63 1.241 . S
O68 Co56 2.137 . S
O68 C59 1.247 . S
O69 Co56 2.244 . S
O69 C59 1.272 . S
O69 Co61 2.135 . S
Co70 O71 2.216 . S
Co70 O72 2.091 . S
Co70 O74 2.004 . S
Co70 O80 2.021 . S
Co70 O82 2.137 . S
Co70 O83 2.244 . S
O71 Co70 2.216 . S
O71 C78 1.247 . S
O72 Co70 2.091 . S
O72 C78 1.261 . S
C73 O82 1.247 . S
C73 O83 1.272 . S
O74 Co70 2.004 . S
O74 C79 1.259 . S
Co75 O76 2.061 . S
Co75 O81 2.052 . S
Co75 O83 2.135 . S
O76 Co75 2.061 . S
O76 C79 1.235 . S
C77 O80 1.238 . S
C77 O81 1.241 . S
C78 O71 1.247 . S
C78 O72 1.261 . S
C79 O74 1.259 . S
C79 O76 1.235 . S
O80 Co70 2.021 . S
O80 C77 1.238 . S
O81 Co75 2.052 . S
O81 C77 1.241 . S
O82 Co70 2.137 . S
O82 C73 1.247 . S
O83 Co70 2.244 . S
O83 C73 1.272 . S
O83 Co75 2.135 . S
Co84 O85 2.216 . S
Co84 O86 2.091 . S
Co84 O88 2.004 . S
Co84 O94 2.021 . S
Co84 O96 2.137 . S
Co84 O97 2.244 . S
O85 Co84 2.216 . S
O85 C92 1.247 . S
O86 Co84 2.091 . S
O86 C92 1.261 . S
C87 O96 1.247 . S
C87 O97 1.272 . S
O88 Co84 2.004 . S
O88 C93 1.259 . S
Co89 O90 2.061 . S
Co89 O95 2.052 . S
Co89 O97 2.135 . S
O90 Co89 2.061 . S
O90 C93 1.235 . S
C91 O94 1.238 . S
C91 O95 1.241 . S
C92 O85 1.247 . S
C92 O86 1.261 . S
C93 O88 1.259 . S
C93 O90 1.235 . S
O94 Co84 2.021 . S
O94 C91 1.238 . S
O95 Co89 2.052 . S
O95 C91 1.241 . S
O96 Co84 2.137 . S
O96 C87 1.247 . S
O97 Co84 2.244 . S
O97 C87 1.272 . S
O97 Co89 2.135 . S
Co98 O99 2.216 . S
Co98 O100 2.091 . S
Co98 O102 2.004 . S
Co98 O108 2.021 . S
Co98 O110 2.137 . S
Co98 O111 2.244 . S
O99 Co98 2.216 . S
O99 C106 1.247 . S
O100 Co98 2.091 . S
O100 C106 1.261 . S
C101 O110 1.247 . S
C101 O111 1.272 . S
O102 Co98 2.004 . S
O102 C107 1.259 . S
Co103 O104 2.061 . S
Co103 O109 2.052 . S
Co103 O111 2.135 . S
O104 Co103 2.061 . S
O104 C107 1.235 . S
C105 O108 1.238 . S
C105 O109 1.241 . S
C106 O99 1.247 . S
C106 O100 1.261 . S
C107 O102 1.259 . S
C107 O104 1.235 . S
O108 Co98 2.021 . S
O108 C105 1.238 . S
O109 Co103 2.052 . S
O109 C105 1.241 . S
O110 Co98 2.137 . S
O110 C101 1.247 . S
O111 Co98 2.244 . S
O111 C101 1.272 . S
O111 Co103 2.135 . S
Co112 O113 2.216 . S
Co112 O114 2.091 . S
Co112 O116 2.004 . S
Co112 O122 2.021 . S
Co112 O124 2.137 . S
Co112 O125 2.244 . S
O113 Co112 2.216 . S
O113 C120 1.247 . S
O114 Co112 2.091 . S
O114 C120 1.261 . S
C115 O124 1.247 . S
C115 O125 1.272 . S
O116 Co112 2.004 . S
O116 C121 1.259 . S
Co117 O118 2.061 . S
Co117 O123 2.052 . S
Co117 O125 2.135 . S
O118 Co117 2.061 . S
O118 C121 1.235 . S
C119 O122 1.238 . S
C119 O123 1.241 . S
C120 O113 1.247 . S
C120 O114 1.261 . S
C121 O116 1.259 . S
C121 O118 1.235 . S
O122 Co112 2.021 . S
O122 C119 1.238 . S
O123 Co117 2.052 . S
O123 C119 1.241 . S
O124 Co112 2.137 . S
O124 C115 1.247 . S
O125 Co112 2.244 . S
O125 C115 1.272 . S
O125 Co117 2.135 . S
Co126 O127 2.216 . S
Co126 O128 2.091 . S
Co126 O130 2.004 . S
Co126 O136 2.021 . S
Co126 O138 2.137 . S
Co126 O139 2.244 . S
O127 Co126 2.216 . S
O127 C134 1.247 . S
O128 Co126 2.091 . S
O128 C134 1.261 . S
C129 O138 1.247 . S
C129 O139 1.272 . S
O130 Co126 2.004 . S
O130 C135 1.259 . S
Co131 O132 2.061 . S
Co131 O137 2.052 . S
Co131 O139 2.135 . S
O132 Co131 2.061 . S
O132 C135 1.235 . S
C133 O136 1.238 . S
C133 O137 1.241 . S
C134 O127 1.247 . S
C134 O128 1.261 . S
C135 O130 1.259 . S
C135 O132 1.235 . S
O136 Co126 2.021 . S
O136 C133 1.238 . S
O137 Co131 2.052 . S
O137 C133 1.241 . S
O138 Co126 2.137 . S
O138 C129 1.247 . S
O139 Co126 2.244 . S
O139 C129 1.272 . S
O139 Co131 2.135 . S
Co140 O141 2.216 . S
Co140 O142 2.091 . S
Co140 O144 2.004 . S
Co140 O150 2.021 . S
Co140 O152 2.137 . S
Co140 O153 2.244 . S
O141 Co140 2.216 . S
O141 C148 1.247 . S
O142 Co140 2.091 . S
O142 C148 1.261 . S
C143 O152 1.247 . S
C143 O153 1.272 . S
O144 Co140 2.004 . S
O144 C149 1.259 . S
Co145 O146 2.061 . S
Co145 O151 2.052 . S
Co145 O153 2.135 . S
O146 Co145 2.061 . S
O146 C149 1.235 . S
C147 O150 1.238 . S
C147 O151 1.241 . S
C148 O141 1.247 . S
C148 O142 1.261 . S
C149 O144 1.259 . S
C149 O146 1.235 . S
O150 Co140 2.021 . S
O150 C147 1.238 . S
O151 Co145 2.052 . S
O151 C147 1.241 . S
O152 Co140 2.137 . S
O152 C143 1.247 . S
O153 Co140 2.244 . S
O153 C143 1.272 . S
O153 Co145 2.135 . S
Co154 O155 2.216 . S
Co154 O156 2.091 . S
Co154 O158 2.004 . S
Co154 O164 2.021 . S
Co154 O166 2.137 . S
Co154 O167 2.244 . S
O155 Co154 2.216 . S
O155 C162 1.247 . S
O156 Co154 2.091 . S
O156 C162 1.261 . S
C157 O166 1.247 . S
C157 O167 1.272 . S
O158 Co154 2.004 . S
O158 C163 1.259 . S
Co159 O160 2.061 . S
Co159 O165 2.052 . S
Co159 O167 2.135 . S
O160 Co159 2.061 . S
O160 C163 1.235 . S
C161 O164 1.238 . S
C161 O165 1.241 . S
C162 O155 1.247 . S
C162 O156 1.261 . S
C163 O158 1.259 . S
C163 O160 1.235 . S
O164 Co154 2.021 . S
O164 C161 1.238 . S
O165 Co159 2.052 . S
O165 C161 1.241 . S
O166 Co154 2.137 . S
O166 C157 1.247 . S
O167 Co154 2.244 . S
O167 C157 1.272 . S
O167 Co159 2.135 . S
Co168 O169 2.216 . S
Co168 O170 2.091 . S
Co168 O172 2.004 . S
Co168 O178 2.021 . S
Co168 O180 2.137 . S
Co168 O181 2.244 . S
O169 Co168 2.216 . S
O169 C176 1.247 . S
O170 Co168 2.091 . S
O170 C176 1.261 . S
C171 O180 1.247 . S
C171 O181 1.272 . S
O172 Co168 2.004 . S
O172 C177 1.259 . S
Co173 O174 2.061 . S
Co173 O179 2.052 . S
Co173 O181 2.135 . S
O174 Co173 2.061 . S
O174 C177 1.235 . S
C175 O178 1.238 . S
C175 O179 1.241 . S
C176 O169 1.247 . S
C176 O170 1.261 . S
C177 O172 1.259 . S
C177 O174 1.235 . S
O178 Co168 2.021 . S
O178 C175 1.238 . S
O179 Co173 2.052 . S
O179 C175 1.241 . S
O180 Co168 2.137 . S
O180 C171 1.247 . S
O181 Co168 2.244 . S
O181 C171 1.272 . S
O181 Co173 2.135 . S
Co182 O183 2.216 . S
Co182 O184 2.091 . S
Co182 O186 2.004 . S
Co182 O192 2.021 . S
Co182 O194 2.137 . S
Co182 O195 2.244 . S
O183 Co182 2.216 . S
O183 C190 1.247 . S
O184 Co182 2.091 . S
O184 C190 1.261 . S
C185 O194 1.247 . S
C185 O195 1.272 . S
O186 Co182 2.004 . S
O186 C191 1.259 . S
Co187 O188 2.061 . S
Co187 O193 2.052 . S
Co187 O195 2.135 . S
O188 Co187 2.061 . S
O188 C191 1.235 . S
C189 O192 1.238 . S
C189 O193 1.241 . S
C190 O183 1.247 . S
C190 O184 1.261 . S
C191 O186 1.259 . S
C191 O188 1.235 . S
O192 Co182 2.021 . S
O192 C189 1.238 . S
O193 Co187 2.052 . S
O193 C189 1.241 . S
O194 Co182 2.137 . S
O194 C185 1.247 . S
O195 Co182 2.244 . S
O195 C185 1.272 . S
O195 Co187 2.135 . S
Co196 O197 2.216 . S
Co196 O198 2.091 . S
Co196 O200 2.004 . S
Co196 O206 2.021 . S
Co196 O208 2.137 . S
Co196 O209 2.244 . S
O197 Co196 2.216 . S
O197 C204 1.247 . S
O198 Co196 2.091 . S
O198 C204 1.261 . S
C199 O208 1.247 . S
C199 O209 1.272 . S
O200 Co196 2.004 . S
O200 C205 1.259 . S
Co201 O202 2.061 . S
Co201 O207 2.052 . S
Co201 O209 2.135 . S
O202 Co201 2.061 . S
O202 C205 1.235 . S
C203 O206 1.238 . S
C203 O207 1.241 . S
C204 O197 1.247 . S
C204 O198 1.261 . S
C205 O200 1.259 . S
C205 O202 1.235 . S
O206 Co196 2.021 . S
O206 C203 1.238 . S
O207 Co201 2.052 . S
O207 C203 1.241 . S
O208 Co196 2.137 . S
O208 C199 1.247 . S
O209 Co196 2.244 . S
O209 C199 1.272 . S
O209 Co201 2.135 . S
Co210 O211 2.216 . S
Co210 O212 2.091 . S
Co210 O214 2.004 . S
Co210 O220 2.021 . S
Co210 O222 2.137 . S
Co210 O223 2.244 . S
O211 Co210 2.216 . S
O211 C218 1.247 . S
O212 Co210 2.091 . S
O212 C218 1.261 . S
C213 O222 1.247 . S
C213 O223 1.272 . S
O214 Co210 2.004 . S
O214 C219 1.259 . S
Co215 O216 2.061 . S
Co215 O221 2.052 . S
Co215 O223 2.135 . S
O216 Co215 2.061 . S
O216 C219 1.235 . S
C217 O220 1.238 . S
C217 O221 1.241 . S
C218 O211 1.247 . S
C218 O212 1.261 . S
C219 O214 1.259 . S
C219 O216 1.235 . S
O220 Co210 2.021 . S
O220 C217 1.238 . S
O221 Co215 2.052 . S
O221 C217 1.241 . S
O222 Co210 2.137 . S
O222 C213 1.247 . S
O223 Co210 2.244 . S
O223 C213 1.272 . S
O223 Co215 2.135 . S
Co224 O225 2.216 . S
Co224 O226 2.091 . S
Co224 O228 2.004 . S
Co224 O234 2.021 . S
Co224 O236 2.137 . S
Co224 O237 2.244 . S
O225 Co224 2.216 . S
O225 C232 1.247 . S
O226 Co224 2.091 . S
O226 C232 1.261 . S
C227 O236 1.247 . S
C227 O237 1.272 . S
O228 Co224 2.004 . S
O228 C233 1.259 . S
Co229 O230 2.061 . S
Co229 O235 2.052 . S
Co229 O237 2.135 . S
O230 Co229 2.061 . S
O230 C233 1.235 . S
C231 O234 1.238 . S
C231 O235 1.241 . S
C232 O225 1.247 . S
C232 O226 1.261 . S
C233 O228 1.259 . S
C233 O230 1.235 . S
O234 Co224 2.021 . S
O234 C231 1.238 . S
O235 Co229 2.052 . S
O235 C231 1.241 . S
O236 Co224 2.137 . S
O236 C227 1.247 . S
O237 Co224 2.244 . S
O237 C227 1.272 . S
O237 Co229 2.135 . S
Co238 O239 2.216 . S
Co238 O240 2.091 . S
Co238 O242 2.004 . S
Co238 O248 2.021 . S
Co238 O250 2.137 . S
Co238 O251 2.244 . S
O239 Co238 2.216 . S
O239 C246 1.247 . S
O240 Co238 2.091 . S
O240 C246 1.261 . S
C241 O250 1.247 . S
C241 O251 1.272 . S
O242 Co238 2.004 . S
O242 C247 1.259 . S
Co243 O244 2.061 . S
Co243 O249 2.052 . S
Co243 O251 2.135 . S
O244 Co243 2.061 . S
O244 C247 1.235 . S
C245 O248 1.238 . S
C245 O249 1.241 . S
C246 O239 1.247 . S
C246 O240 1.261 . S
C247 O242 1.259 . S
C247 O244 1.235 . S
O248 Co238 2.021 . S
O248 C245 1.238 . S
O249 Co243 2.052 . S
O249 C245 1.241 . S
O250 Co238 2.137 . S
O250 C241 1.247 . S
O251 Co238 2.244 . S
O251 C241 1.272 . S
O251 Co243 2.135 . S
Co252 O253 2.216 . S
Co252 O254 2.091 . S
Co252 O256 2.004 . S
Co252 O262 2.021 . S
Co252 O264 2.137 . S
Co252 O265 2.244 . S
O253 Co252 2.216 . S
O253 C260 1.247 . S
O254 Co252 2.091 . S
O254 C260 1.261 . S
C255 O264 1.247 . S
C255 O265 1.272 . S
O256 Co252 2.004 . S
O256 C261 1.259 . S
Co257 O258 2.061 . S
Co257 O263 2.052 . S
Co257 O265 2.135 . S
O258 Co257 2.061 . S
O258 C261 1.235 . S
C259 O262 1.238 . S
C259 O263 1.241 . S
C260 O253 1.247 . S
C260 O254 1.261 . S
C261 O256 1.259 . S
C261 O258 1.235 . S
O262 Co252 2.021 . S
O262 C259 1.238 . S
O263 Co257 2.052 . S
O263 C259 1.241 . S
O264 Co252 2.137 . S
O264 C255 1.247 . S
O265 Co252 2.244 . S
O265 C255 1.272 . S
O265 Co257 2.135 . S
Co266 O267 2.216 . S
Co266 O268 2.091 . S
Co266 O270 2.004 . S
Co266 O276 2.021 . S
Co266 O278 2.137 . S
Co266 O279 2.244 . S
O267 Co266 2.216 . S
O267 C274 1.247 . S
O268 Co266 2.091 . S
O268 C274 1.261 . S
C269 O278 1.247 . S
C269 O279 1.272 . S
O270 Co266 2.004 . S
O270 C275 1.259 . S
Co271 O272 2.061 . S
Co271 O277 2.052 . S
Co271 O279 2.135 . S
O272 Co271 2.061 . S
O272 C275 1.235 . S
C273 O276 1.238 . S
C273 O277 1.241 . S
C274 O267 1.247 . S
C274 O268 1.261 . S
C275 O270 1.259 . S
C275 O272 1.235 . S
O276 Co266 2.021 . S
O276 C273 1.238 . S
O277 Co271 2.052 . S
O277 C273 1.241 . S
O278 Co266 2.137 . S
O278 C269 1.247 . S
O279 Co266 2.244 . S
O279 C269 1.272 . S
O279 Co271 2.135 . S
Co280 O281 2.216 . S
Co280 O282 2.091 . S
Co280 O284 2.004 . S
Co280 O290 2.021 . S
Co280 O292 2.137 . S
Co280 O293 2.244 . S
O281 Co280 2.216 . S
O281 C288 1.247 . S
O282 Co280 2.091 . S
O282 C288 1.261 . S
C283 O292 1.247 . S
C283 O293 1.272 . S
O284 Co280 2.004 . S
O284 C289 1.259 . S
Co285 O286 2.061 . S
Co285 O291 2.052 . S
Co285 O293 2.135 . S
O286 Co285 2.061 . S
O286 C289 1.235 . S
C287 O290 1.238 . S
C287 O291 1.241 . S
C288 O281 1.247 . S
C288 O282 1.261 . S
C289 O284 1.259 . S
C289 O286 1.235 . S
O290 Co280 2.021 . S
O290 C287 1.238 . S
O291 Co285 2.052 . S
O291 C287 1.241 . S
O292 Co280 2.137 . S
O292 C283 1.247 . S
O293 Co280 2.244 . S
O293 C283 1.272 . S
O293 Co285 2.135 . S
Co294 O295 2.216 . S
Co294 O296 2.091 . S
Co294 O298 2.004 . S
Co294 O304 2.021 . S
Co294 O306 2.137 . S
Co294 O307 2.244 . S
O295 Co294 2.216 . S
O295 C302 1.247 . S
O296 Co294 2.091 . S
O296 C302 1.261 . S
C297 O306 1.247 . S
C297 O307 1.272 . S
O298 Co294 2.004 . S
O298 C303 1.259 . S
Co299 O300 2.061 . S
Co299 O305 2.052 . S
Co299 O307 2.135 . S
O300 Co299 2.061 . S
O300 C303 1.235 . S
C301 O304 1.238 . S
C301 O305 1.241 . S
C302 O295 1.247 . S
C302 O296 1.261 . S
C303 O298 1.259 . S
C303 O300 1.235 . S
O304 Co294 2.021 . S
O304 C301 1.238 . S
O305 Co299 2.052 . S
O305 C301 1.241 . S
O306 Co294 2.137 . S
O306 C297 1.247 . S
O307 Co294 2.244 . S
O307 C297 1.272 . S
O307 Co299 2.135 . S
Co308 O309 2.216 . S
Co308 O310 2.091 . S
Co308 O312 2.004 . S
Co308 O318 2.021 . S
Co308 O320 2.137 . S
Co308 O321 2.244 . S
O309 Co308 2.216 . S
O309 C316 1.247 . S
O310 Co308 2.091 . S
O310 C316 1.261 . S
C311 O320 1.247 . S
C311 O321 1.272 . S
O312 Co308 2.004 . S
O312 C317 1.259 . S
Co313 O314 2.061 . S
Co313 O319 2.052 . S
Co313 O321 2.135 . S
O314 Co313 2.061 . S
O314 C317 1.235 . S
C315 O318 1.238 . S
C315 O319 1.241 . S
C316 O309 1.247 . S
C316 O310 1.261 . S
C317 O312 1.259 . S
C317 O314 1.235 . S
O318 Co308 2.021 . S
O318 C315 1.238 . S
O319 Co313 2.052 . S
O319 C315 1.241 . S
O320 Co308 2.137 . S
O320 C311 1.247 . S
O321 Co308 2.244 . S
O321 C311 1.272 . S
O321 Co313 2.135 . S
Co322 O323 2.216 . S
Co322 O324 2.091 . S
Co322 O326 2.004 . S
Co322 O332 2.021 . S
Co322 O334 2.137 . S
Co322 O335 2.244 . S
O323 Co322 2.216 . S
O323 C330 1.247 . S
O324 Co322 2.091 . S
O324 C330 1.261 . S
C325 O334 1.247 . S
C325 O335 1.272 . S
O326 Co322 2.004 . S
O326 C331 1.259 . S
Co327 O328 2.061 . S
Co327 O333 2.052 . S
Co327 O335 2.135 . S
O328 Co327 2.061 . S
O328 C331 1.235 . S
C329 O332 1.238 . S
C329 O333 1.241 . S
C330 O323 1.247 . S
C330 O324 1.261 . S
C331 O326 1.259 . S
C331 O328 1.235 . S
O332 Co322 2.021 . S
O332 C329 1.238 . S
O333 Co327 2.052 . S
O333 C329 1.241 . S
O334 Co322 2.137 . S
O334 C325 1.247 . S
O335 Co322 2.244 . S
O335 C325 1.272 . S
O335 Co327 2.135 . S
Co336 O337 2.216 . S
Co336 O338 2.091 . S
Co336 O340 2.004 . S
Co336 O346 2.021 . S
Co336 O348 2.137 . S
Co336 O349 2.244 . S
O337 Co336 2.216 . S
O337 C344 1.247 . S
O338 Co336 2.091 . S
O338 C344 1.261 . S
C339 O348 1.247 . S
C339 O349 1.272 . S
O340 Co336 2.004 . S
O340 C345 1.259 . S
Co341 O342 2.061 . S
Co341 O347 2.052 . S
Co341 O349 2.135 . S
O342 Co341 2.061 . S
O342 C345 1.235 . S
C343 O346 1.238 . S
C343 O347 1.241 . S
C344 O337 1.247 . S
C344 O338 1.261 . S
C345 O340 1.259 . S
C345 O342 1.235 . S
O346 Co336 2.021 . S
O346 C343 1.238 . S
O347 Co341 2.052 . S
O347 C343 1.241 . S
O348 Co336 2.137 . S
O348 C339 1.247 . S
O349 Co336 2.244 . S
O349 C339 1.272 . S
O349 Co341 2.135 . S
Co350 O351 2.216 . S
Co350 O352 2.091 . S
Co350 O354 2.004 . S
Co350 O360 2.021 . S
Co350 O362 2.137 . S
Co350 O363 2.244 . S
O351 Co350 2.216 . S
O351 C358 1.247 . S
O352 Co350 2.091 . S
O352 C358 1.261 . S
C353 O362 1.247 . S
C353 O363 1.272 . S
O354 Co350 2.004 . S
O354 C359 1.259 . S
Co355 O356 2.061 . S
Co355 O361 2.052 . S
Co355 O363 2.135 . S
O356 Co355 2.061 . S
O356 C359 1.235 . S
C357 O360 1.238 . S
C357 O361 1.241 . S
C358 O351 1.247 . S
C358 O352 1.261 . S
C359 O354 1.259 . S
C359 O356 1.235 . S
O360 Co350 2.021 . S
O360 C357 1.238 . S
O361 Co355 2.052 . S
O361 C357 1.241 . S
O362 Co350 2.137 . S
O362 C353 1.247 . S
O363 Co350 2.244 . S
O363 C353 1.272 . S
O363 Co355 2.135 . S
Co364 O365 2.216 . S
Co364 O366 2.091 . S
Co364 O368 2.004 . S
Co364 O374 2.021 . S
Co364 O376 2.137 . S
Co364 O377 2.244 . S
O365 Co364 2.216 . S
O365 C372 1.247 . S
O366 Co364 2.091 . S
O366 C372 1.261 . S
C367 O376 1.247 . S
C367 O377 1.272 . S
O368 Co364 2.004 . S
O368 C373 1.259 . S
Co369 O370 2.061 . S
Co369 O375 2.052 . S
Co369 O377 2.135 . S
O370 Co369 2.061 . S
O370 C373 1.235 . S
C371 O374 1.238 . S
C371 O375 1.241 . S
C372 O365 1.247 . S
C372 O366 1.261 . S
C373 O368 1.259 . S
C373 O370 1.235 . S
O374 Co364 2.021 . S
O374 C371 1.238 . S
O375 Co369 2.052 . S
O375 C371 1.241 . S
O376 Co364 2.137 . S
O376 C367 1.247 . S
O377 Co364 2.244 . S
O377 C367 1.272 . S
O377 Co369 2.135 . S
Co378 O379 2.216 . S
Co378 O380 2.091 . S
Co378 O382 2.004 . S
Co378 O388 2.021 . S
Co378 O390 2.137 . S
Co378 O391 2.244 . S
O379 Co378 2.216 . S
O379 C386 1.247 . S
O380 Co378 2.091 . S
O380 C386 1.261 . S
C381 O390 1.247 . S
C381 O391 1.272 . S
O382 Co378 2.004 . S
O382 C387 1.259 . S
Co383 O384 2.061 . S
Co383 O389 2.052 . S
Co383 O391 2.135 . S
O384 Co383 2.061 . S
O384 C387 1.235 . S
C385 O388 1.238 . S
C385 O389 1.241 . S
C386 O379 1.247 . S
C386 O380 1.261 . S
C387 O382 1.259 . S
C387 O384 1.235 . S
O388 Co378 2.021 . S
O388 C385 1.238 . S
O389 Co383 2.052 . S
O389 C385 1.241 . S
O390 Co378 2.137 . S
O390 C381 1.247 . S
O391 Co378 2.244 . S
O391 C381 1.272 . S
O391 Co383 2.135 . S
Co392 O393 2.216 . S
Co392 O394 2.091 . S
Co392 O396 2.004 . S
Co392 O402 2.021 . S
Co392 O404 2.137 . S
Co392 O405 2.244 . S
O393 Co392 2.216 . S
O393 C400 1.247 . S
O394 Co392 2.091 . S
O394 C400 1.261 . S
C395 O404 1.247 . S
C395 O405 1.272 . S
O396 Co392 2.004 . S
O396 C401 1.259 . S
Co397 O398 2.061 . S
Co397 O403 2.052 . S
Co397 O405 2.135 . S
O398 Co397 2.061 . S
O398 C401 1.235 . S
C399 O402 1.238 . S
C399 O403 1.241 . S
C400 O393 1.247 . S
C400 O394 1.261 . S
C401 O396 1.259 . S
C401 O398 1.235 . S
O402 Co392 2.021 . S
O402 C399 1.238 . S
O403 Co397 2.052 . S
O403 C399 1.241 . S
O404 Co392 2.137 . S
O404 C395 1.247 . S
O405 Co392 2.244 . S
O405 C395 1.272 . S
O405 Co397 2.135 . S
Co406 O407 2.216 . S
Co406 O408 2.091 . S
Co406 O410 2.004 . S
Co406 O416 2.021 . S
Co406 O418 2.137 . S
Co406 O419 2.244 . S
O407 Co406 2.216 . S
O407 C414 1.247 . S
O408 Co406 2.091 . S
O408 C414 1.261 . S
C409 O418 1.247 . S
C409 O419 1.272 . S
O410 Co406 2.004 . S
O410 C415 1.259 . S
Co411 O412 2.061 . S
Co411 O417 2.052 . S
Co411 O419 2.135 . S
O412 Co411 2.061 . S
O412 C415 1.235 . S
C413 O416 1.238 . S
C413 O417 1.241 . S
C414 O407 1.247 . S
C414 O408 1.261 . S
C415 O410 1.259 . S
C415 O412 1.235 . S
O416 Co406 2.021 . S
O416 C413 1.238 . S
O417 Co411 2.052 . S
O417 C413 1.241 . S
O418 Co406 2.137 . S
O418 C409 1.247 . S
O419 Co406 2.244 . S
O419 C409 1.272 . S
O419 Co411 2.135 . S
Co420 O421 2.216 . S
Co420 O422 2.091 . S
Co420 O424 2.004 . S
Co420 O430 2.021 . S
Co420 O432 2.137 . S
Co420 O433 2.244 . S
O421 Co420 2.216 . S
O421 C428 1.247 . S
O422 Co420 2.091 . S
O422 C428 1.261 . S
C423 O432 1.247 . S
C423 O433 1.272 . S
O424 Co420 2.004 . S
O424 C429 1.259 . S
Co425 O426 2.061 . S
Co425 O431 2.052 . S
Co425 O433 2.135 . S
O426 Co425 2.061 . S
O426 C429 1.235 . S
C427 O430 1.238 . S
C427 O431 1.241 . S
C428 O421 1.247 . S
C428 O422 1.261 . S
C429 O424 1.259 . S
C429 O426 1.235 . S
O430 Co420 2.021 . S
O430 C427 1.238 . S
O431 Co425 2.052 . S
O431 C427 1.241 . S
O432 Co420 2.137 . S
O432 C423 1.247 . S
O433 Co420 2.244 . S
O433 C423 1.272 . S
O433 Co425 2.135 . S
Co434 O435 2.216 . S
Co434 O436 2.091 . S
Co434 O438 2.004 . S
Co434 O444 2.021 . S
Co434 O446 2.137 . S
Co434 O447 2.244 . S
O435 Co434 2.216 . S
O435 C442 1.247 . S
O436 Co434 2.091 . S
O436 C442 1.261 . S
C437 O446 1.247 . S
C437 O447 1.272 . S
O438 Co434 2.004 . S
O438 C443 1.259 . S
Co439 O440 2.061 . S
Co439 O445 2.052 . S
Co439 O447 2.135 . S
O440 Co439 2.061 . S
O440 C443 1.235 . S
C441 O444 1.238 . S
C441 O445 1.241 . S
C442 O435 1.247 . S
C442 O436 1.261 . S
C443 O438 1.259 . S
C443 O440 1.235 . S
O444 Co434 2.021 . S
O444 C441 1.238 . S
O445 Co439 2.052 . S
O445 C441 1.241 . S
O446 Co434 2.137 . S
O446 C437 1.247 . S
O447 Co434 2.244 . S
O447 C437 1.272 . S
O447 Co439 2.135 . S
C448 C449 1.391 . S
C448 C450 1.394 . S
C448 H464 0.931 . S
C449 C448 1.391 . S
C449 C453 1.376 . S
C450 C448 1.394 . S
C450 C451 1.369 . S
C450 C454 1.531 . S
C451 C450 1.369 . S
C451 C452 1.410 . S
C451 C459 1.503 1_656 S
C452 C451 1.410 . S
C452 C453 1.392 . S
C452 C455 1.511 1_656 S
C453 C449 1.376 . S
C453 C452 1.392 . S
C453 H465 0.929 . S
C454 C450 1.531 . S
C454 H466 0.960 . S
C454 H467 0.962 . S
C454 H468 0.960 . S
C455 C452 1.511 1_454 S
C455 H469 0.961 . S
C455 H470 0.961 . S
C455 H471 0.990 . S
C456 C457 1.370 . S
C456 C458 1.363 . S
C456 H472 0.931 . S
C457 C456 1.370 . S
C457 C461 1.408 . S
C458 C456 1.363 . S
C458 C459 1.370 . S
C458 C462 1.524 1_455 S
C459 C451 1.503 1_454 S
C459 C458 1.370 . S
C459 C460 1.403 1_554 S
C460 C459 1.403 1_556 S
C460 C461 1.404 1_556 S
C460 C463 1.539 . S
C461 C457 1.408 . S
C461 C460 1.404 1_554 S
C461 H473 0.947 . S
C462 C458 1.524 1_655 S
C462 H474 0.956 . S
C462 H475 0.961 . S
C462 H476 0.961 . S
C463 C460 1.539 . S
C463 H477 0.958 . S
C463 H478 0.961 . S
C463 H479 0.960 . S
H464 C448 0.931 . S
H465 C453 0.929 . S
H466 C454 0.960 . S
H467 C454 0.962 . S
H468 C454 0.960 . S
H469 C455 0.961 . S
H470 C455 0.961 . S
H471 C455 0.990 . S
H472 C456 0.931 . S
H473 C461 0.947 . S
H474 C462 0.956 . S
H475 C462 0.961 . S
H476 C462 0.961 . S
H477 C463 0.958 . S
H478 C463 0.961 . S
H479 C463 0.960 . S
C480 C481 1.391 . S
C480 C482 1.394 . S
C480 H496 0.931 . S
C481 C480 1.391 . S
C481 C485 1.376 . S
C482 C480 1.394 . S
C482 C483 1.369 . S
C482 C486 1.531 . S
C483 C482 1.369 . S
C483 C484 1.410 . S
C483 C491 1.503 . S
C484 C483 1.410 . S
C484 C485 1.392 . S
C484 C487 1.511 . S
C485 C481 1.376 . S
C485 C484 1.392 . S
C485 H497 0.929 . S
C486 C482 1.531 . S
C486 H498 0.960 . S
C486 H499 0.962 . S
C486 H500 0.960 . S
C487 C484 1.511 . S
C487 H501 0.961 . S
C487 H502 0.961 . S
C487 H503 0.961 . S
C488 C489 1.370 . S
C488 C490 1.363 . S
C488 H504 0.931 . S
C489 C488 1.370 . S
C489 C493 1.408 . S
C490 C488 1.363 . S
C490 C491 1.370 . S
C490 C494 1.524 . S
C491 C483 1.503 . S
C491 C490 1.370 . S
C491 C492 1.403 . S
C492 C491 1.403 . S
C492 C493 1.404 . S
C492 C495 1.539 . S
C493 C489 1.408 . S
C493 C492 1.404 . S
C493 H505 0.930 . S
C494 C490 1.524 . S
C494 H506 0.956 . S
C494 H507 0.961 . S
C494 H508 0.961 . S
C495 C492 1.539 . S
C495 H509 0.958 . S
C495 H510 0.961 . S
C495 H511 0.960 . S
H496 C480 0.931 . S
H497 C485 0.929 . S
H498 C486 0.960 . S
H499 C486 0.962 . S
H500 C486 0.960 . S
H501 C487 0.961 . S
H502 C487 0.961 . S
H503 C487 0.961 . S
H504 C488 0.931 . S
H505 C493 0.930 . S
H506 C494 0.956 . S
H507 C494 0.961 . S
H508 C494 0.961 . S
H509 C495 0.958 . S
H510 C495 0.961 . S
H511 C495 0.960 . S
C512 C513 1.391 . S
C512 C514 1.394 . S
C512 H528 0.931 . S
C513 C512 1.391 . S
C513 C517 1.376 . S
C514 C512 1.394 . S
C514 C515 1.369 . S
C514 C518 1.531 . S
C515 C514 1.369 . S
C515 C516 1.410 . S
C515 C523 1.503 . S
C516 C515 1.410 . S
C516 C517 1.392 . S
C516 C519 1.511 . S
C517 C513 1.376 . S
C517 C516 1.392 . S
C517 H529 0.929 . S
C518 C514 1.531 . S
C518 H530 0.960 . S
C518 H531 0.962 . S
C518 H532 0.960 . S
C519 C516 1.511 . S
C519 H533 0.961 . S
C519 H534 0.961 . S
C519 H535 0.961 . S
C520 C521 1.370 . S
C520 C522 1.363 . S
C520 H536 0.931 . S
C521 C520 1.370 . S
C521 C525 1.408 . S
C522 C520 1.363 . S
C522 C523 1.370 . S
C522 C526 1.524 . S
C523 C515 1.503 . S
C523 C522 1.370 . S
C523 C524 1.403 . S
C524 C523 1.403 . S
C524 C525 1.404 . S
C524 C527 1.539 . S
C525 C521 1.408 . S
C525 C524 1.404 . S
C525 H537 0.930 . S
C526 C522 1.524 . S
C526 H538 0.956 . S
C526 H539 0.961 . S
C526 H540 0.961 . S
C527 C524 1.539 . S
C527 H541 0.958 . S
C527 H542 0.961 . S
C527 H543 0.960 . S
H528 C512 0.931 . S
H529 C517 0.929 . S
H530 C518 0.960 . S
H531 C518 0.962 . S
H532 C518 0.960 . S
H533 C519 0.961 . S
H534 C519 0.961 . S
H535 C519 0.961 . S
H536 C520 0.931 . S
H537 C525 0.930 . S
H538 C526 0.956 . S
H539 C526 0.961 . S
H540 C526 0.961 . S
H541 C527 0.958 . S
H542 C527 0.961 . S
H543 C527 0.960 . S
C544 C545 1.391 . S
C544 C546 1.394 . S
C544 H560 0.931 . S
C545 C544 1.391 . S
C545 C549 1.376 . S
C546 C544 1.394 . S
C546 C547 1.369 . S
C546 C550 1.531 . S
C547 C546 1.369 . S
C547 C548 1.410 . S
C547 C555 1.503 . S
C548 C547 1.410 . S
C548 C549 1.392 . S
C548 C551 1.511 . S
C549 C545 1.376 . S
C549 C548 1.392 . S
C549 H561 0.929 . S
C550 C546 1.531 . S
C550 H562 0.960 . S
C550 H563 0.962 . S
C550 H564 0.960 . S
C551 C548 1.511 . S
C551 H565 0.961 . S
C551 H566 0.961 . S
C551 H567 0.961 . S
C552 C553 1.370 . S
C552 C554 1.363 . S
C552 H568 0.931 . S
C553 C552 1.370 . S
C553 C557 1.408 . S
C554 C552 1.363 . S
C554 C555 1.370 . S
C554 C558 1.524 . S
C555 C547 1.503 . S
C555 C554 1.370 . S
C555 C556 1.403 . S
C556 C555 1.403 . S
C556 C557 1.404 . S
C556 C559 1.539 . S
C557 C553 1.408 . S
C557 C556 1.404 . S
C557 H569 0.930 . S
C558 C554 1.524 . S
C558 H570 0.956 . S
C558 H571 0.961 . S
C558 H572 0.961 . S
C559 C556 1.539 . S
C559 H573 0.958 . S
C559 H574 0.961 . S
C559 H575 0.960 . S
H560 C544 0.931 . S
H561 C549 0.929 . S
H562 C550 0.960 . S
H563 C550 0.962 . S
H564 C550 0.960 . S
H565 C551 0.961 . S
H566 C551 0.961 . S
H567 C551 0.961 . S
H568 C552 0.931 . S
H569 C557 0.930 . S
H570 C558 0.956 . S
H571 C558 0.961 . S
H572 C558 0.961 . S
H573 C559 0.958 . S
H574 C559 0.961 . S
H575 C559 0.960 . S
C576 C577 1.391 . S
C576 C578 1.394 . S
C576 H592 0.931 . S
C577 C576 1.391 . S
C577 C581 1.376 . S
C578 C576 1.394 . S
C578 C579 1.369 . S
C578 C582 1.531 . S
C579 C578 1.369 . S
C579 C580 1.410 . S
C579 C587 1.503 1_655 S
C580 C579 1.410 . S
C580 C581 1.392 . S
C580 C583 1.511 1_655 S
C581 C577 1.376 . S
C581 C580 1.392 . S
C581 H593 0.929 . S
C582 C578 1.531 . S
C582 H594 0.960 . S
C582 H595 0.962 . S
C582 H596 0.960 . S
C583 C580 1.511 1_455 S
C583 H597 0.961 . S
C583 H598 0.961 . S
C583 H599 0.961 1_455 S
C584 C585 1.370 . S
C584 C586 1.363 . S
C584 H600 0.931 . S
C585 C584 1.370 . S
C585 C589 1.408 . S
C586 C584 1.363 . S
C586 C587 1.370 . S
C586 C590 1.524 . S
C587 C579 1.503 1_455 S
C587 C586 1.370 . S
C587 C588 1.394 1_455 S
C588 C587 1.394 1_655 S
C588 C589 1.380 1_655 S
C588 C591 1.571 . S
C589 C585 1.408 . S
C589 C588 1.380 1_455 S
C589 H601 0.930 . S
C590 C586 1.524 . S
C590 H602 0.956 . S
C590 H603 0.961 . S
C590 H604 0.961 . S
C591 C588 1.571 . S
C591 H605 0.958 . S
C591 H606 0.961 . S
C591 H607 0.960 . S
H592 C576 0.931 . S
H593 C581 0.929 . S
H594 C582 0.960 . S
H595 C582 0.962 . S
H596 C582 0.960 . S
H597 C583 0.961 . S
H598 C583 0.961 . S
H599 C583 0.961 1_655 S
H600 C584 0.931 . S
H601 C589 0.930 . S
H602 C590 0.956 . S
H603 C590 0.961 . S
H604 C590 0.961 . S
H605 C591 0.958 . S
H606 C591 0.961 . S
H607 C591 0.960 . S
C608 C609 1.391 . S
C608 C610 1.394 . S
C608 H624 0.931 . S
C609 C608 1.391 . S
C609 C613 1.376 . S
C610 C608 1.394 . S
C610 C611 1.369 . S
C610 C614 1.531 . S
C611 C610 1.369 . S
C611 C612 1.410 . S
C611 C619 1.503 . S
C612 C611 1.410 . S
C612 C613 1.392 . S
C612 C615 1.511 . S
C613 C609 1.376 . S
C613 C612 1.392 . S
C613 H625 0.929 . S
C614 C610 1.531 . S
C614 H626 0.960 . S
C614 H627 0.962 . S
C614 H628 0.960 . S
C615 C612 1.511 . S
C615 H629 0.961 . S
C615 H630 0.961 . S
C615 H631 0.961 . S
C616 C617 1.370 . S
C616 C618 1.363 . S
C616 H632 0.931 . S
C617 C616 1.370 . S
C617 C621 1.408 . S
C618 C616 1.363 . S
C618 C619 1.370 . S
C618 C622 1.524 . S
C619 C611 1.503 . S
C619 C618 1.370 . S
C619 C620 1.403 . S
C620 C619 1.403 . S
C620 C621 1.404 . S
C620 C623 1.539 . S
C621 C617 1.408 . S
C621 C620 1.404 . S
C621 H633 0.930 . S
C622 C618 1.524 . S
C622 H634 0.956 . S
C622 H635 0.961 . S
C622 H636 0.961 . S
C623 C620 1.539 . S
C623 H637 0.958 . S
C623 H638 0.961 . S
C623 H639 0.960 . S
H624 C608 0.931 . S
H625 C613 0.929 . S
H626 C614 0.960 . S
H627 C614 0.962 . S
H628 C614 0.960 . S
H629 C615 0.961 . S
H630 C615 0.961 . S
H631 C615 0.961 . S
H632 C616 0.931 . S
H633 C621 0.930 . S
H634 C622 0.956 . S
H635 C622 0.961 . S
H636 C622 0.961 . S
H637 C623 0.958 . S
H638 C623 0.961 . S
H639 C623 0.960 . S
C640 C641 1.391 . S
C640 C642 1.394 . S
C640 H656 0.931 . S
C641 C640 1.391 . S
C641 C645 1.376 . S
C642 C640 1.394 . S
C642 C643 1.369 . S
C642 C646 1.531 . S
C643 C642 1.369 . S
C643 C644 1.410 . S
C643 C651 1.503 1_556 S
C644 C643 1.410 . S
C644 C645 1.392 . S
C644 C647 1.511 . S
C645 C641 1.376 . S
C645 C644 1.392 . S
C645 H657 0.929 . S
C646 C642 1.531 . S
C646 H658 0.960 . S
C646 H659 0.962 1_556 S
C646 H660 0.960 . S
C647 C644 1.511 . S
C647 H661 0.961 . S
C647 H662 0.943 1_556 S
C647 H663 0.961 . S
C648 C649 1.370 . S
C648 C650 1.363 . S
C648 H664 0.931 . S
C649 C648 1.370 . S
C649 C653 1.408 . S
C650 C648 1.363 . S
C650 C651 1.370 . S
C650 C654 1.524 . S
C651 C643 1.503 1_554 S
C651 C650 1.370 . S
C651 C652 1.403 1_554 S
C652 C651 1.403 1_556 S
C652 C653 1.404 1_556 S
C652 C655 1.539 . S
C653 C649 1.408 . S
C653 C652 1.404 1_554 S
C653 H665 0.930 1_554 S
C654 C650 1.524 . S
C654 H666 0.956 . S
C654 H667 0.961 . S
C654 H668 0.961 . S
C655 C652 1.539 . S
C655 H669 0.958 . S
C655 H670 0.961 . S
C655 H671 0.960 . S
H656 C640 0.931 . S
H657 C645 0.929 . S
H658 C646 0.960 . S
H659 C646 0.962 1_554 S
H660 C646 0.960 . S
H661 C647 0.961 . S
H662 C647 0.943 1_554 S
H663 C647 0.961 . S
H664 C648 0.931 . S
H665 C653 0.930 1_556 S
H666 C654 0.956 . S
H667 C654 0.961 . S
H668 C654 0.961 . S
H669 C655 0.958 . S
H670 C655 0.961 . S
H671 C655 0.960 . S
C672 C673 1.391 . S
C672 C674 1.394 . S
C672 H688 0.931 . S
C673 C672 1.391 . S
C673 C677 1.376 . S
C674 C672 1.394 . S
C674 C675 1.369 . S
C674 C678 1.531 . S
C675 C674 1.369 . S
C675 C676 1.410 . S
C675 C683 1.503 . S
C676 C675 1.410 . S
C676 C677 1.392 . S
C676 C679 1.511 . S
C677 C673 1.376 . S
C677 C676 1.392 . S
C677 H689 0.929 . S
C678 C674 1.531 . S
C678 H690 0.960 . S
C678 H691 0.962 . S
C678 H692 0.960 . S
C679 C676 1.511 . S
C679 H693 0.961 . S
C679 H694 0.961 . S
C679 H695 0.961 . S
C680 C681 1.370 . S
C680 C682 1.363 . S
C680 H696 0.931 . S
C681 C680 1.370 . S
C681 C685 1.408 . S
C682 C680 1.363 . S
C682 C683 1.370 . S
C682 C686 1.524 . S
C683 C675 1.503 . S
C683 C682 1.370 . S
C683 C684 1.403 . S
C684 C683 1.403 . S
C684 C685 1.404 . S
C684 C687 1.539 . S
C685 C681 1.408 . S
C685 C684 1.404 . S
C685 H697 0.930 . S
C686 C682 1.524 . S
C686 H698 0.956 . S
C686 H699 0.961 . S
C686 H700 0.961 . S
C687 C684 1.539 . S
C687 H701 0.958 . S
C687 H702 0.961 . S
C687 H703 0.960 . S
H688 C672 0.931 . S
H689 C677 0.929 . S
H690 C678 0.960 . S
H691 C678 0.962 . S
H692 C678 0.960 . S
H693 C679 0.961 . S
H694 C679 0.961 . S
H695 C679 0.961 . S
H696 C680 0.931 . S
H697 C685 0.930 . S
H698 C686 0.956 . S
H699 C686 0.961 . S
H700 C686 0.961 . S
H701 C687 0.958 . S
H702 C687 0.961 . S
H703 C687 0.960 . S
C704 C705 1.391 . S
C704 C706 1.394 . S
C704 H720 0.931 . S
C705 C704 1.391 . S
C705 C709 1.376 . S
C706 C704 1.394 . S
C706 C707 1.369 . S
C706 C710 1.531 . S
C707 C706 1.369 . S
C707 C708 1.410 . S
C707 C715 1.503 . S
C708 C707 1.410 . S
C708 C709 1.392 . S
C708 C711 1.511 . S
C709 C705 1.376 . S
C709 C708 1.392 . S
C709 H721 0.929 . S
C710 C706 1.531 . S
C710 H722 0.960 . S
C710 H723 0.962 . S
C710 H724 0.960 . S
C711 C708 1.511 . S
C711 H725 0.961 . S
C711 H726 0.961 . S
C711 H727 0.961 . S
C712 C713 1.370 . S
C712 C714 1.363 . S
C712 H728 0.931 . S
C713 C712 1.370 . S
C713 C717 1.408 . S
C714 C712 1.363 . S
C714 C715 1.370 . S
C714 C718 1.524 . S
C715 C707 1.503 . S
C715 C714 1.370 . S
C715 C716 1.403 . S
C716 C715 1.403 . S
C716 C717 1.404 . S
C716 C719 1.539 . S
C717 C713 1.408 . S
C717 C716 1.404 . S
C717 H729 0.930 . S
C718 C714 1.524 . S
C718 H730 0.956 . S
C718 H731 0.961 . S
C718 H732 0.961 . S
C719 C716 1.539 . S
C719 H733 0.958 . S
C719 H734 0.961 . S
C719 H735 0.960 . S
H720 C704 0.931 . S
H721 C709 0.929 . S
H722 C710 0.960 . S
H723 C710 0.962 . S
H724 C710 0.960 . S
H725 C711 0.961 . S
H726 C711 0.961 . S
H727 C711 0.961 . S
H728 C712 0.931 . S
H729 C717 0.930 . S
H730 C718 0.956 . S
H731 C718 0.961 . S
H732 C718 0.961 . S
H733 C719 0.958 . S
H734 C719 0.961 . S
H735 C719 0.960 . S
C736 C737 1.391 . S
C736 C738 1.394 . S
C736 H752 0.931 . S
C737 C736 1.391 . S
C737 C741 1.376 . S
C738 C736 1.394 . S
C738 C739 1.369 . S
C738 C742 1.531 . S
C739 C738 1.369 . S
C739 C740 1.410 . S
C739 C747 1.503 . S
C740 C739 1.410 . S
C740 C741 1.392 . S
C740 C743 1.511 . S
C741 C737 1.376 . S
C741 C740 1.392 . S
C741 H753 0.929 . S
C742 C738 1.531 . S
C742 H754 0.960 . S
C742 H755 0.962 . S
C742 H756 0.960 . S
C743 C740 1.511 . S
C743 H757 0.961 . S
C743 H758 0.961 . S
C743 H759 0.961 . S
C744 C745 1.370 . S
C744 C746 1.363 . S
C744 H760 0.931 . S
C745 C744 1.370 . S
C745 C749 1.408 . S
C746 C744 1.363 . S
C746 C747 1.370 . S
C746 C750 1.524 . S
C747 C739 1.503 . S
C747 C746 1.370 . S
C747 C748 1.403 . S
C748 C747 1.403 . S
C748 C749 1.404 . S
C748 C751 1.539 . S
C749 C745 1.408 . S
C749 C748 1.404 . S
C749 H761 0.930 . S
C750 C746 1.524 . S
C750 H762 0.956 . S
C750 H763 0.961 . S
C750 H764 0.961 . S
C751 C748 1.539 . S
C751 H765 0.958 . S
C751 H766 0.961 . S
C751 H767 0.960 . S
H752 C736 0.931 . S
H753 C741 0.929 . S
H754 C742 0.960 . S
H755 C742 0.962 . S
H756 C742 0.960 . S
H757 C743 0.961 . S
H758 C743 0.961 . S
H759 C743 0.961 . S
H760 C744 0.931 . S
H761 C749 0.930 . S
H762 C750 0.956 . S
H763 C750 0.961 . S
H764 C750 0.961 . S
H765 C751 0.958 . S
H766 C751 0.961 . S
H767 C751 0.960 . S
C768 C769 1.391 . S
C768 C770 1.394 . S
C768 H784 0.931 . S
C769 C768 1.391 . S
C769 C773 1.376 . S
C770 C768 1.394 . S
C770 C771 1.369 . S
C770 C774 1.531 . S
C771 C770 1.369 . S
C771 C772 1.410 . S
C771 C779 1.503 . S
C772 C771 1.410 . S
C772 C773 1.392 . S
C772 C775 1.511 . S
C773 C769 1.376 . S
C773 C772 1.392 . S
C773 H785 0.929 . S
C774 C770 1.531 . S
C774 H786 0.960 . S
C774 H787 0.962 . S
C774 H788 0.960 . S
C775 C772 1.511 . S
C775 H789 0.961 . S
C775 H790 0.961 . S
C775 H791 0.961 . S
C776 C777 1.370 . S
C776 C778 1.363 . S
C776 H792 0.931 . S
C777 C776 1.370 . S
C777 C781 1.408 . S
C778 C776 1.363 . S
C778 C779 1.370 . S
C778 C782 1.524 . S
C779 C771 1.503 . S
C779 C778 1.370 . S
C779 C780 1.403 . S
C780 C779 1.403 . S
C780 C781 1.404 . S
C780 C783 1.539 . S
C781 C777 1.408 . S
C781 C780 1.404 . S
C781 H793 0.930 . S
C782 C778 1.524 . S
C782 H794 0.956 . S
C782 H795 0.961 . S
C782 H796 0.961 . S
C783 C780 1.539 . S
C783 H797 0.958 . S
C783 H798 0.961 . S
C783 H799 0.960 . S
H784 C768 0.931 . S
H785 C773 0.929 . S
H786 C774 0.960 . S
H787 C774 0.962 . S
H788 C774 0.960 . S
H789 C775 0.961 . S
H790 C775 0.961 . S
H791 C775 0.961 . S
H792 C776 0.931 . S
H793 C781 0.930 . S
H794 C782 0.956 . S
H795 C782 0.961 . S
H796 C782 0.961 . S
H797 C783 0.958 . S
H798 C783 0.961 . S
H799 C783 0.960 . S
C800 C801 1.391 . S
C800 C802 1.394 . S
C800 H816 0.931 . S
C801 C800 1.391 . S
C801 C805 1.376 . S
C802 C800 1.394 . S
C802 C803 1.369 . S
C802 C806 1.531 . S
C803 C802 1.369 . S
C803 C804 1.410 . S
C803 C811 1.503 . S
C804 C803 1.410 . S
C804 C805 1.392 . S
C804 C807 1.511 . S
C805 C801 1.376 . S
C805 C804 1.392 . S
C805 H817 0.929 . S
C806 C802 1.531 . S
C806 H818 0.960 . S
C806 H819 0.962 . S
C806 H820 0.960 . S
C807 C804 1.511 . S
C807 H821 0.961 . S
C807 H822 0.961 . S
C807 H823 0.961 . S
C808 C809 1.370 . S
C808 C810 1.363 . S
C808 H824 0.931 . S
C809 C808 1.370 . S
C809 C813 1.408 . S
C810 C808 1.363 . S
C810 C811 1.370 . S
C810 C814 1.524 . S
C811 C803 1.503 . S
C811 C810 1.370 . S
C811 C812 1.403 . S
C812 C811 1.403 . S
C812 C813 1.404 . S
C812 C815 1.539 . S
C813 C809 1.408 . S
C813 C812 1.404 . S
C813 H825 0.930 . S
C814 C810 1.524 . S
C814 H826 0.956 . S
C814 H827 0.961 . S
C814 H828 0.961 . S
C815 C812 1.539 . S
C815 H829 0.958 . S
C815 H830 0.961 . S
C815 H831 0.960 . S
H816 C800 0.931 . S
H817 C805 0.929 . S
H818 C806 0.960 . S
H819 C806 0.962 . S
H820 C806 0.960 . S
H821 C807 0.961 . S
H822 C807 0.961 . S
H823 C807 0.961 . S
H824 C808 0.931 . S
H825 C813 0.930 . S
H826 C814 0.956 . S
H827 C814 0.961 . S
H828 C814 0.961 . S
H829 C815 0.958 . S
H830 C815 0.961 . S
H831 C815 0.960 . S
C832 C833 1.391 . S
C832 C834 1.394 . S
C832 H848 0.931 . S
C833 C832 1.391 . S
C833 C837 1.376 . S
C834 C832 1.394 . S
C834 C835 1.369 . S
C834 C838 1.531 . S
C835 C834 1.369 . S
C835 C836 1.410 . S
C835 C843 1.503 1_565 S
C836 C835 1.410 . S
C836 C837 1.392 . S
C836 C839 1.511 1_565 S
C837 C833 1.376 . S
C837 C836 1.392 . S
C837 H849 0.929 . S
C838 C834 1.531 . S
C838 H850 0.960 . S
C838 H851 0.962 . S
C838 H852 0.960 . S
C839 C836 1.511 1_545 S
C839 H853 0.961 . S
C839 H854 0.961 . S
C839 H855 0.961 . S
C840 C841 1.370 . S
C840 C842 1.363 . S
C840 H856 0.931 . S
C841 C840 1.370 . S
C841 C845 1.408 . S
C842 C840 1.363 . S
C842 C843 1.370 . S
C842 C846 1.524 . S
C843 C835 1.503 1_545 S
C843 C842 1.370 . S
C843 C844 1.403 . S
C844 C843 1.403 . S
C844 C845 1.404 . S
C844 C847 1.523 1_545 S
C845 C841 1.408 . S
C845 C844 1.404 . S
C845 H857 0.930 . S
C846 C842 1.524 . S
C846 H858 0.918 1_545 S
C846 H859 0.961 . S
C846 H860 0.961 . S
C847 C844 1.523 1_565 S
C847 H861 0.991 . S
C847 H862 0.938 1_565 S
C847 H863 0.968 . S
H848 C832 0.931 . S
H849 C837 0.929 . S
H850 C838 0.960 . S
H851 C838 0.962 . S
H852 C838 0.960 . S
H853 C839 0.961 . S
H854 C839 0.961 . S
H855 C839 0.961 . S
H856 C840 0.931 . S
H857 C845 0.930 . S
H858 C846 0.918 1_565 S
H859 C846 0.961 . S
H860 C846 0.961 . S
H861 C847 0.991 . S
H862 C847 0.938 1_545 S
H863 C847 0.968 . S
C864 C865 1.391 . S
C864 C866 1.394 1_556 S
C864 H880 0.931 . S
C865 C864 1.391 . S
C865 C869 1.376 . S
C866 C864 1.394 1_554 S
C866 C867 1.369 1_554 S
C866 C870 1.513 1_455 S
C867 C866 1.369 1_556 S
C867 C868 1.410 1_565 S
C867 C875 1.503 1_466 S
C868 C867 1.410 1_545 S
C868 C869 1.392 1_545 S
C868 C871 1.511 . S
C869 C865 1.376 . S
C869 C868 1.392 1_565 S
C869 H881 0.929 . S
C870 C866 1.513 1_655 S
C870 H882 0.964 . S
C870 H883 0.992 . S
C870 H884 0.945 1_655 S
C871 C868 1.511 . S
C871 H885 0.961 . S
C871 H886 0.961 . S
C871 H887 0.961 . S
C872 C873 1.370 . S
C872 C874 1.362 . S
C872 H888 0.931 . S
C873 C872 1.370 . S
C873 C877 1.408 . S
C874 C872 1.362 . S
C874 C875 1.370 . S
C874 C878 1.526 1_544 S
C875 C867 1.503 1_644 S
C875 C874 1.370 . S
C875 C876 1.403 1_655 S
C876 C875 1.403 1_455 S
C876 C877 1.404 1_455 S
C876 C879 1.539 . S
C877 C873 1.408 . S
C877 C876 1.404 1_655 S
C877 H889 0.930 . S
C878 C874 1.526 1_566 S
C878 H890 0.956 . S
C878 H891 0.961 . S
C878 H892 0.951 1_565 S
C879 C876 1.539 . S
C879 H893 0.958 . S
C879 H894 0.961 . S
C879 H895 0.960 . S
H880 C864 0.931 . S
H881 C869 0.929 . S
H882 C870 0.964 . S
H883 C870 0.992 . S
H884 C870 0.945 1_455 S
H885 C871 0.961 . S
H886 C871 0.961 . S
H887 C871 0.961 . S
H888 C872 0.931 . S
H889 C877 0.930 . S
H890 C878 0.956 . S
H891 C878 0.961 . S
H892 C878 0.951 1_545 S
H893 C879 0.958 . S
H894 C879 0.961 . S
H895 C879 0.960 . S
C896 C897 1.391 . S
C896 C898 1.394 . S
C896 H912 0.931 . S
C897 C896 1.391 . S
C897 C901 1.376 . S
C898 C896 1.394 . S
C898 C899 1.381 . S
C898 C902 1.531 1_546 S
C899 C898 1.381 . S
C899 C900 1.435 . S
C899 C907 1.476 1_546 S
C900 C899 1.435 . S
C900 C901 1.392 . S
C900 C903 1.511 . S
C901 C897 1.376 . S
C901 C900 1.392 . S
C901 H913 0.929 . S
C902 C898 1.531 1_564 S
C902 H914 0.960 . S
C902 H915 0.962 1_554 S
C902 H916 0.960 . S
C903 C900 1.511 . S
C903 H917 0.961 . S
C903 H918 0.961 . S
C903 H919 0.961 1_556 S
C904 C905 1.370 . S
C904 C906 1.363 1_554 S
C904 H920 0.931 1_554 S
C905 C904 1.370 . S
C905 C909 1.408 . S
C906 C904 1.363 1_556 S
C906 C907 1.370 1_556 S
C906 C910 1.524 . S
C907 C899 1.476 1_564 S
C907 C906 1.370 1_554 S
C907 C908 1.403 . S
C908 C907 1.403 . S
C908 C909 1.404 . S
C908 C911 1.539 1_565 S
C909 C905 1.408 . S
C909 C908 1.404 . S
C909 H921 0.930 . S
C910 C906 1.524 . S
C910 H922 0.956 . S
C910 H923 0.961 . S
C910 H924 0.961 . S
C911 C908 1.539 1_545 S
C911 H925 0.958 . S
C911 H926 0.961 . S
C911 H927 0.960 . S
H912 C896 0.931 . S
H913 C901 0.929 . S
H914 C902 0.960 . S
H915 C902 0.962 1_556 S
H916 C902 0.960 . S
H917 C903 0.961 . S
H918 C903 0.961 . S
H919 C903 0.961 1_554 S
H920 C904 0.931 1_556 S
H921 C909 0.930 . S
H922 C910 0.956 . S
H923 C910 0.961 . S
H924 C910 0.961 . S
H925 C911 0.958 . S
H926 C911 0.961 . S
H927 C911 0.960 . S
C928 C929 1.391 . S
C928 C930 1.394 . S
C928 H944 0.931 . S
C929 C928 1.391 . S
C929 C933 1.376 . S
C930 C928 1.394 . S
C930 C931 1.369 . S
C930 C934 1.531 1_455 S
C931 C930 1.369 . S
C931 C932 1.410 1_545 S
C931 C939 1.503 1_445 S
C932 C931 1.410 1_565 S
C932 C933 1.392 1_565 S
C932 C935 1.511 . S
C933 C929 1.376 . S
C933 C932 1.392 1_545 S
C933 H945 0.929 . S
C934 C930 1.531 1_655 S
C934 H946 0.960 . S
C934 H947 0.962 . S
C934 H948 0.960 1_655 S
C935 C932 1.511 . S
C935 H949 0.961 . S
C935 H950 0.961 . S
C935 H951 0.961 . S
C936 C937 1.370 . S
C936 C938 1.363 . S
C936 H952 0.931 . S
C937 C936 1.370 . S
C937 C941 1.408 . S
C938 C936 1.363 . S
C938 C939 1.370 . S
C938 C942 1.517 1_565 S
C939 C931 1.503 1_665 S
C939 C938 1.370 . S
C939 C940 1.400 1_655 S
C940 C939 1.400 1_455 S
C940 C941 1.397 1_455 S
C940 C943 1.549 . S
C941 C937 1.408 . S
C941 C940 1.397 1_655 S
C941 H953 0.930 . S
C942 C938 1.517 1_545 S
C942 H954 0.972 . S
C942 H955 0.958 1_545 S
C942 H956 0.955 1_545 S
C943 C940 1.549 . S
C943 H957 0.958 . S
C943 H958 0.961 . S
C943 H959 0.960 . S
H944 C928 0.931 . S
H945 C933 0.929 . S
H946 C934 0.960 . S
H947 C934 0.962 . S
H948 C934 0.960 1_455 S
H949 C935 0.961 . S
H950 C935 0.961 . S
H951 C935 0.961 . S
H952 C936 0.931 . S
H953 C941 0.930 . S
H954 C942 0.972 . S
H955 C942 0.958 1_565 S
H956 C942 0.955 1_565 S
H957 C943 0.958 . S
H958 C943 0.961 . S
H959 C943 0.960 . S
C960 C961 1.391 . S
C960 C962 1.394 . S
C960 H976 0.931 . S
C961 C960 1.391 . S
C961 C965 1.376 . S
C962 C960 1.394 . S
C962 C963 1.369 . S
C962 C966 1.531 1_655 S
C963 C962 1.369 . S
C963 C964 1.410 . S
C963 C971 1.503 1_655 S
C964 C963 1.410 . S
C964 C965 1.392 . S
C964 C967 1.511 . S
C965 C961 1.376 . S
C965 C964 1.392 . S
C965 H977 0.929 . S
C966 C962 1.531 1_455 S
C966 H978 0.960 . S
C966 H979 0.962 . S
C966 H980 0.960 . S
C967 C964 1.511 . S
C967 H981 0.961 . S
C967 H982 0.961 . S
C967 H983 0.961 . S
C968 C969 1.370 . S
C968 C970 1.363 . S
C968 H984 0.931 . S
C969 C968 1.370 . S
C969 C973 1.408 . S
C970 C968 1.363 . S
C970 C971 1.370 . S
C970 C974 1.524 . S
C971 C963 1.503 1_455 S
C971 C970 1.370 . S
C971 C972 1.403 . S
C972 C971 1.403 . S
C972 C973 1.404 . S
C972 C975 1.539 1_455 S
C973 C969 1.408 . S
C973 C972 1.404 . S
C973 H985 0.930 . S
C974 C970 1.524 . S
C974 H986 0.956 . S
C974 H987 0.961 . S
C974 H988 0.961 . S
C975 C972 1.539 1_655 S
C975 H989 0.958 . S
C975 H990 0.961 . S
C975 H991 0.960 . S
H976 C960 0.931 . S
H977 C965 0.929 . S
H978 C966 0.960 . S
H979 C966 0.962 . S
H980 C966 0.960 . S
H981 C967 0.961 . S
H982 C967 0.961 . S
H983 C967 0.961 . S
H984 C968 0.931 . S
H985 C973 0.930 . S
H986 C974 0.956 . S
H987 C974 0.961 . S
H988 C974 0.961 . S
H989 C975 0.958 . S
H990 C975 0.961 . S
H991 C975 0.960 . S
C992 C993 1.391 . S
C992 C994 1.394 . S
C992 H1008 0.931 . S
C993 C992 1.391 . S
C993 C997 1.376 . S
C994 C992 1.394 . S
C994 C995 1.369 . S
C994 C998 1.531 . S
C995 C994 1.369 . S
C995 C996 1.410 . S
C995 C1003 1.503 1_455 S
C996 C995 1.410 . S
C996 C997 1.392 . S
C996 C999 1.511 1_455 S
C997 C993 1.376 . S
C997 C996 1.392 . S
C997 H1009 0.929 . S
C998 C994 1.531 . S
C998 H1010 0.960 . S
C998 H1011 0.962 . S
C998 H1012 0.960 . S
C999 C996 1.511 1_655 S
C999 H1013 0.961 . S
C999 H1014 0.961 . S
C999 H1015 0.961 . S
C1000 C1001 1.370 . S
C1000 C1002 1.363 . S
C1000 H1016 0.931 . S
C1001 C1000 1.370 . S
C1001 C1005 1.408 . S
C1002 C1000 1.363 . S
C1002 C1003 1.370 . S
C1002 C1006 1.524 . S
C1003 C995 1.503 1_655 S
C1003 C1002 1.370 . S
C1003 C1004 1.403 . S
C1004 C1003 1.403 . S
C1004 C1005 1.404 . S
C1004 C1007 1.539 . S
C1005 C1001 1.408 . S
C1005 C1004 1.404 . S
C1005 H1017 0.930 . S
C1006 C1002 1.524 . S
C1006 H1018 0.956 1_655 S
C1006 H1019 0.961 . S
C1006 H1020 0.961 . S
C1007 C1004 1.539 . S
C1007 H1021 0.958 . S
C1007 H1022 0.961 . S
C1007 H1023 0.960 . S
H1008 C992 0.931 . S
H1009 C997 0.929 . S
H1010 C998 0.960 . S
H1011 C998 0.962 . S
H1012 C998 0.960 . S
H1013 C999 0.961 . S
H1014 C999 0.961 . S
H1015 C999 0.961 . S
H1016 C1000 0.931 . S
H1017 C1005 0.930 . S
H1018 C1006 0.956 1_455 S
H1019 C1006 0.961 . S
H1020 C1006 0.961 . S
H1021 C1007 0.958 . S
H1022 C1007 0.961 . S
H1023 C1007 0.960 . S
C1024 C1025 1.391 . S
C1024 C1026 1.394 . S
C1024 H1040 0.931 . S
C1025 C1024 1.391 . S
C1025 C1029 1.376 . S
C1026 C1024 1.394 . S
C1026 C1027 1.369 . S
C1026 C1030 1.531 . S
C1027 C1026 1.369 . S
C1027 C1028 1.410 . S
C1027 C1035 1.503 . S
C1028 C1027 1.410 . S
C1028 C1029 1.392 . S
C1028 C1031 1.511 . S
C1029 C1025 1.376 . S
C1029 C1028 1.392 . S
C1029 H1041 0.929 . S
C1030 C1026 1.531 . S
C1030 H1042 0.960 . S
C1030 H1043 0.962 . S
C1030 H1044 0.960 . S
C1031 C1028 1.511 . S
C1031 H1045 0.961 . S
C1031 H1046 0.961 . S
C1031 H1047 0.961 . S
C1032 C1033 1.370 . S
C1032 C1034 1.363 . S
C1032 H1048 0.931 . S
C1033 C1032 1.370 . S
C1033 C1037 1.408 . S
C1034 C1032 1.363 . S
C1034 C1035 1.370 . S
C1034 C1038 1.524 . S
C1035 C1027 1.503 . S
C1035 C1034 1.370 . S
C1035 C1036 1.403 . S
C1036 C1035 1.403 . S
C1036 C1037 1.404 . S
C1036 C1039 1.539 . S
C1037 C1033 1.408 . S
C1037 C1036 1.404 . S
C1037 H1049 0.930 . S
C1038 C1034 1.524 . S
C1038 H1050 0.956 . S
C1038 H1051 0.961 . S
C1038 H1052 0.961 . S
C1039 C1036 1.539 . S
C1039 H1053 0.958 . S
C1039 H1054 0.961 . S
C1039 H1055 0.960 . S
H1040 C1024 0.931 . S
H1041 C1029 0.929 . S
H1042 C1030 0.960 . S
H1043 C1030 0.962 . S
H1044 C1030 0.960 . S
H1045 C1031 0.961 . S
H1046 C1031 0.961 . S
H1047 C1031 0.961 . S
H1048 C1032 0.931 . S
H1049 C1037 0.930 . S
H1050 C1038 0.956 . S
H1051 C1038 0.961 . S
H1052 C1038 0.961 . S
H1053 C1039 0.958 . S
H1054 C1039 0.961 . S
H1055 C1039 0.960 . S
C1056 C1057 1.391 . S
C1056 C1058 1.394 . S
C1056 H1072 0.931 . S
C1057 C1056 1.391 . S
C1057 C1061 1.376 . S
C1058 C1056 1.394 . S
C1058 C1059 1.369 . S
C1058 C1062 1.531 . S
C1059 C1058 1.369 . S
C1059 C1060 1.410 . S
C1059 C1067 1.503 . S
C1060 C1059 1.410 . S
C1060 C1061 1.392 . S
C1060 C1063 1.511 . S
C1061 C1057 1.376 . S
C1061 C1060 1.392 . S
C1061 H1073 0.929 . S
C1062 C1058 1.531 . S
C1062 H1074 0.960 . S
C1062 H1075 0.962 . S
C1062 H1076 0.960 . S
C1063 C1060 1.511 . S
C1063 H1077 0.961 . S
C1063 H1078 0.961 . S
C1063 H1079 0.961 . S
C1064 C1065 1.370 . S
C1064 C1066 1.363 . S
C1064 H1080 0.931 . S
C1065 C1064 1.370 . S
C1065 C1069 1.408 . S
C1066 C1064 1.363 . S
C1066 C1067 1.370 . S
C1066 C1070 1.524 . S
C1067 C1059 1.503 . S
C1067 C1066 1.370 . S
C1067 C1068 1.403 . S
C1068 C1067 1.403 . S
C1068 C1069 1.404 . S
C1068 C1071 1.539 . S
C1069 C1065 1.408 . S
C1069 C1068 1.404 . S
C1069 H1081 0.930 . S
C1070 C1066 1.524 . S
C1070 H1082 0.956 . S
C1070 H1083 0.961 . S
C1070 H1084 0.961 . S
C1071 C1068 1.539 . S
C1071 H1085 0.958 . S
C1071 H1086 0.961 . S
C1071 H1087 0.960 . S
H1072 C1056 0.931 . S
H1073 C1061 0.929 . S
H1074 C1062 0.960 . S
H1075 C1062 0.962 . S
H1076 C1062 0.960 . S
H1077 C1063 0.961 . S
H1078 C1063 0.961 . S
H1079 C1063 0.961 . S
H1080 C1064 0.931 . S
H1081 C1069 0.930 . S
H1082 C1070 0.956 . S
H1083 C1070 0.961 . S
H1084 C1070 0.961 . S
H1085 C1071 0.958 . S
H1086 C1071 0.961 . S
H1087 C1071 0.960 . S
C1088 C1089 1.391 . S
C1088 C1090 1.394 . S
C1088 H1104 0.931 . S
C1089 C1088 1.391 . S
C1089 C1093 1.376 . S
C1090 C1088 1.394 . S
C1090 C1091 1.369 . S
C1090 C1094 1.531 . S
C1091 C1090 1.369 . S
C1091 C1092 1.410 . S
C1091 C1099 1.503 1_655 S
C1092 C1091 1.410 . S
C1092 C1093 1.392 . S
C1092 C1095 1.511 . S
C1093 C1089 1.376 . S
C1093 C1092 1.392 . S
C1093 H1105 0.929 . S
C1094 C1090 1.531 . S
C1094 H1106 0.960 . S
C1094 H1107 0.962 . S
C1094 H1108 0.960 . S
C1095 C1092 1.511 . S
C1095 H1109 0.961 1_655 S
C1095 H1110 0.961 1_655 S
C1095 H1111 0.961 . S
C1096 C1097 1.370 . S
C1096 C1098 1.363 . S
C1096 H1112 0.931 . S
C1097 C1096 1.370 . S
C1097 C1101 1.408 . S
C1098 C1096 1.363 . S
C1098 C1099 1.370 . S
C1098 C1102 1.524 . S
C1099 C1091 1.503 1_455 S
C1099 C1098 1.370 . S
C1099 C1100 1.403 1_455 S
C1100 C1099 1.403 1_655 S
C1100 C1101 1.404 1_655 S
C1100 C1103 1.539 . S
C1101 C1097 1.408 . S
C1101 C1100 1.404 1_455 S
C1101 H1113 0.930 1_455 S
C1102 C1098 1.524 . S
C1102 H1114 0.956 . S
C1102 H1115 0.961 . S
C1102 H1116 0.961 . S
C1103 C1100 1.539 . S
C1103 H1117 0.958 . S
C1103 H1118 0.961 . S
C1103 H1119 0.960 . S
H1104 C1088 0.931 . S
H1105 C1093 0.929 . S
H1106 C1094 0.960 . S
H1107 C1094 0.962 . S
H1108 C1094 0.960 . S
H1109 C1095 0.961 1_455 S
H1110 C1095 0.961 1_455 S
H1111 C1095 0.961 . S
H1112 C1096 0.931 . S
H1113 C1101 0.930 1_655 S
H1114 C1102 0.956 . S
H1115 C1102 0.961 . S
H1116 C1102 0.961 . S
H1117 C1103 0.958 . S
H1118 C1103 0.961 . S
H1119 C1103 0.960 . S
C1120 C1121 1.391 . S
C1120 C1122 1.394 . S
C1120 H1136 0.931 . S
C1121 C1120 1.391 . S
C1121 C1125 1.376 . S
C1122 C1120 1.394 . S
C1122 C1123 1.369 . S
C1122 C1126 1.531 . S
C1123 C1122 1.369 . S
C1123 C1124 1.410 . S
C1123 C1131 1.503 . S
C1124 C1123 1.410 . S
C1124 C1125 1.392 . S
C1124 C1127 1.511 . S
C1125 C1121 1.376 . S
C1125 C1124 1.392 . S
C1125 H1137 0.929 . S
C1126 C1122 1.531 . S
C1126 H1138 0.960 . S
C1126 H1139 0.962 . S
C1126 H1140 0.960 . S
C1127 C1124 1.511 . S
C1127 H1141 0.961 . S
C1127 H1142 0.961 . S
C1127 H1143 0.961 . S
C1128 C1129 1.370 . S
C1128 C1130 1.363 . S
C1128 H1144 0.931 . S
C1129 C1128 1.370 . S
C1129 C1133 1.408 . S
C1130 C1128 1.363 . S
C1130 C1131 1.370 . S
C1130 C1134 1.524 . S
C1131 C1123 1.503 . S
C1131 C1130 1.370 . S
C1131 C1132 1.403 . S
C1132 C1131 1.403 . S
C1132 C1133 1.404 . S
C1132 C1135 1.539 . S
C1133 C1129 1.408 . S
C1133 C1132 1.404 . S
C1133 H1145 0.930 . S
C1134 C1130 1.524 . S
C1134 H1146 0.956 . S
C1134 H1147 0.961 . S
C1134 H1148 0.961 . S
C1135 C1132 1.539 . S
C1135 H1149 0.958 . S
C1135 H1150 0.961 . S
C1135 H1151 0.960 . S
H1136 C1120 0.931 . S
H1137 C1125 0.929 . S
H1138 C1126 0.960 . S
H1139 C1126 0.962 . S
H1140 C1126 0.960 . S
H1141 C1127 0.961 . S
H1142 C1127 0.961 . S
H1143 C1127 0.961 . S
H1144 C1128 0.931 . S
H1145 C1133 0.930 . S
H1146 C1134 0.956 . S
H1147 C1134 0.961 . S
H1148 C1134 0.961 . S
H1149 C1135 0.958 . S
H1150 C1135 0.961 . S
H1151 C1135 0.960 . S
C1152 C1153 1.391 . S
C1152 C1154 1.394 . S
C1152 H1168 0.931 . S
C1153 C1152 1.391 . S
C1153 C1157 1.376 . S
C1154 C1152 1.394 . S
C1154 C1155 1.369 . S
C1154 C1158 1.531 . S
C1155 C1154 1.369 . S
C1155 C1156 1.410 . S
C1155 C1163 1.503 . S
C1156 C1155 1.410 . S
C1156 C1157 1.392 . S
C1156 C1159 1.511 . S
C1157 C1153 1.376 . S
C1157 C1156 1.392 . S
C1157 H1169 0.929 . S
C1158 C1154 1.531 . S
C1158 H1170 0.960 . S
C1158 H1171 0.962 . S
C1158 H1172 0.960 . S
C1159 C1156 1.511 . S
C1159 H1173 0.961 . S
C1159 H1174 0.961 . S
C1159 H1175 0.961 . S
C1160 C1161 1.370 . S
C1160 C1162 1.363 . S
C1160 H1176 0.931 . S
C1161 C1160 1.370 . S
C1161 C1165 1.408 . S
C1162 C1160 1.363 . S
C1162 C1163 1.370 . S
C1162 C1166 1.524 . S
C1163 C1155 1.503 . S
C1163 C1162 1.370 . S
C1163 C1164 1.403 . S
C1164 C1163 1.403 . S
C1164 C1165 1.404 . S
C1164 C1167 1.539 . S
C1165 C1161 1.408 . S
C1165 C1164 1.404 . S
C1165 H1177 0.930 . S
C1166 C1162 1.524 . S
C1166 H1178 0.956 . S
C1166 H1179 0.961 . S
C1166 H1180 0.961 . S
C1167 C1164 1.539 . S
C1167 H1181 0.958 . S
C1167 H1182 0.961 . S
C1167 H1183 0.960 . S
H1168 C1152 0.931 . S
H1169 C1157 0.929 . S
H1170 C1158 0.960 . S
H1171 C1158 0.962 . S
H1172 C1158 0.960 . S
H1173 C1159 0.961 . S
H1174 C1159 0.961 . S
H1175 C1159 0.961 . S
H1176 C1160 0.931 . S
H1177 C1165 0.930 . S
H1178 C1166 0.956 . S
H1179 C1166 0.961 . S
H1180 C1166 0.961 . S
H1181 C1167 0.958 . S
H1182 C1167 0.961 . S
H1183 C1167 0.960 . S
C1184 C1185 1.391 . S
C1184 C1186 1.394 . S
C1184 H1200 0.931 . S
C1185 C1184 1.391 . S
C1185 C1189 1.376 . S
C1186 C1184 1.394 . S
C1186 C1187 1.369 . S
C1186 C1190 1.531 . S
C1187 C1186 1.369 . S
C1187 C1188 1.410 . S
C1187 C1195 1.503 1_455 S
C1188 C1187 1.410 . S
C1188 C1189 1.392 . S
C1188 C1191 1.511 1_455 S
C1189 C1185 1.376 . S
C1189 C1188 1.392 . S
C1189 H1201 0.929 . S
C1190 C1186 1.531 . S
C1190 H1202 0.960 . S
C1190 H1203 0.962 . S
C1190 H1204 0.960 . S
C1191 C1188 1.511 1_655 S
C1191 H1205 0.961 . S
C1191 H1206 0.961 . S
C1191 H1207 0.961 . S
C1192 C1193 1.370 . S
C1192 C1194 1.363 . S
C1192 H1208 0.931 . S
C1193 C1192 1.370 . S
C1193 C1197 1.408 . S
C1194 C1192 1.363 . S
C1194 C1195 1.370 . S
C1194 C1198 1.524 . S
C1195 C1187 1.503 1_655 S
C1195 C1194 1.370 . S
C1195 C1196 1.403 . S
C1196 C1195 1.403 . S
C1196 C1197 1.404 . S
C1196 C1199 1.539 . S
C1197 C1193 1.408 . S
C1197 C1196 1.404 . S
C1197 H1209 0.930 . S
C1198 C1194 1.524 . S
C1198 H1210 0.956 1_655 S
C1198 H1211 0.961 . S
C1198 H1212 0.961 . S
C1199 C1196 1.539 . S
C1199 H1213 0.958 . S
C1199 H1214 0.961 . S
C1199 H1215 0.960 . S
H1200 C1184 0.931 . S
H1201 C1189 0.929 . S
H1202 C1190 0.960 . S
H1203 C1190 0.962 . S
H1204 C1190 0.960 . S
H1205 C1191 0.961 . S
H1206 C1191 0.961 . S
H1207 C1191 0.961 . S
H1208 C1192 0.931 . S
H1209 C1197 0.930 . S
H1210 C1198 0.956 1_455 S
H1211 C1198 0.961 . S
H1212 C1198 0.961 . S
H1213 C1199 0.958 . S
H1214 C1199 0.961 . S
H1215 C1199 0.960 . S
C1216 C1217 1.391 . S
C1216 C1218 1.394 . S
C1216 H1232 0.931 . S
C1217 C1216 1.391 . S
C1217 C1221 1.376 . S
C1218 C1216 1.394 . S
C1218 C1219 1.369 . S
C1218 C1222 1.531 . S
C1219 C1218 1.369 . S
C1219 C1220 1.410 1_655 S
C1219 C1227 1.503 1_655 S
C1220 C1219 1.410 1_455 S
C1220 C1221 1.392 1_455 S
C1220 C1223 1.511 . S
C1221 C1217 1.376 . S
C1221 C1220 1.392 1_655 S
C1221 H1233 0.913 1_655 S
C1222 C1218 1.531 . S
C1222 H1234 0.960 . S
C1222 H1235 0.962 . S
C1222 H1236 0.960 . S
C1223 C1220 1.511 . S
C1223 H1237 0.961 . S
C1223 H1238 0.961 . S
C1223 H1239 0.961 . S
C1224 C1225 1.370 . S
C1224 C1226 1.363 . S
C1224 H1240 0.931 . S
C1225 C1224 1.370 . S
C1225 C1229 1.408 . S
C1226 C1224 1.363 . S
C1226 C1227 1.370 . S
C1226 C1230 1.524 1_455 S
C1227 C1219 1.503 1_455 S
C1227 C1226 1.370 . S
C1227 C1228 1.403 . S
C1228 C1227 1.403 . S
C1228 C1229 1.404 . S
C1228 C1231 1.539 . S
C1229 C1225 1.408 . S
C1229 C1228 1.404 . S
C1229 H1241 0.930 . S
C1230 C1226 1.524 1_655 S
C1230 H1242 0.956 . S
C1230 H1243 0.961 . S
C1230 H1244 0.961 . S
C1231 C1228 1.539 . S
C1231 H1245 0.958 . S
C1231 H1246 0.961 . S
C1231 H1247 0.960 . S
H1232 C1216 0.931 . S
H1233 C1221 0.913 1_455 S
H1234 C1222 0.960 . S
H1235 C1222 0.962 . S
H1236 C1222 0.960 . S
H1237 C1223 0.961 . S
H1238 C1223 0.961 . S
H1239 C1223 0.961 . S
H1240 C1224 0.931 . S
H1241 C1229 0.930 . S
H1242 C1230 0.956 . S
H1243 C1230 0.961 . S
H1244 C1230 0.961 . S
H1245 C1231 0.958 . S
H1246 C1231 0.961 . S
H1247 C1231 0.960 . S
C1248 C1249 1.391 . S
C1248 C1250 1.394 . S
C1248 H1264 0.931 . S
C1249 C1248 1.391 . S
C1249 C1253 1.376 . S
C1250 C1248 1.394 . S
C1250 C1251 1.369 . S
C1250 C1254 1.531 . S
C1251 C1250 1.369 . S
C1251 C1252 1.410 . S
C1251 C1259 1.503 1_655 S
C1252 C1251 1.410 . S
C1252 C1253 1.392 . S
C1252 C1255 1.511 1_655 S
C1253 C1249 1.376 . S
C1253 C1252 1.392 . S
C1253 H1265 0.929 . S
C1254 C1250 1.531 . S
C1254 H1266 0.960 . S
C1254 H1267 0.962 . S
C1254 H1268 0.960 . S
C1255 C1252 1.511 1_455 S
C1255 H1269 0.961 . S
C1255 H1270 0.961 . S
C1255 H1271 0.961 . S
C1256 C1257 1.370 . S
C1256 C1258 1.363 . S
C1256 H1272 0.931 . S
C1257 C1256 1.370 . S
C1257 C1261 1.408 . S
C1258 C1256 1.363 . S
C1258 C1259 1.370 . S
C1258 C1262 1.524 1_455 S
C1259 C1251 1.503 1_455 S
C1259 C1258 1.370 . S
C1259 C1260 1.403 . S
C1260 C1259 1.403 . S
C1260 C1261 1.404 . S
C1260 C1263 1.539 . S
C1261 C1257 1.408 . S
C1261 C1260 1.404 . S
C1261 H1273 0.930 . S
C1262 C1258 1.524 1_655 S
C1262 H1274 0.956 . S
C1262 H1275 0.961 . S
C1262 H1276 0.949 1_655 S
C1263 C1260 1.539 . S
C1263 H1277 0.958 . S
C1263 H1278 0.961 . S
C1263 H1279 0.960 . S
H1264 C1248 0.931 . S
H1265 C1253 0.929 . S
H1266 C1254 0.960 . S
H1267 C1254 0.962 . S
H1268 C1254 0.960 . S
H1269 C1255 0.961 . S
H1270 C1255 0.961 . S
H1271 C1255 0.961 . S
H1272 C1256 0.931 . S
H1273 C1261 0.930 . S
H1274 C1262 0.956 . S
H1275 C1262 0.961 . S
H1276 C1262 0.949 1_455 S
H1277 C1263 0.958 . S
H1278 C1263 0.961 . S
H1279 C1263 0.960 . S
C1280 C1281 1.391 . S
C1280 C1282 1.394 . S
C1280 H1296 0.931 . S
C1281 C1280 1.391 . S
C1281 C1285 1.376 . S
C1282 C1280 1.394 . S
C1282 C1283 1.369 . S
C1282 C1286 1.531 . S
C1283 C1282 1.369 . S
C1283 C1284 1.410 . S
C1283 C1291 1.503 . S
C1284 C1283 1.410 . S
C1284 C1285 1.392 . S
C1284 C1287 1.511 . S
C1285 C1281 1.376 . S
C1285 C1284 1.392 . S
C1285 H1297 0.929 . S
C1286 C1282 1.531 . S
C1286 H1298 0.960 . S
C1286 H1299 0.962 . S
C1286 H1300 0.960 . S
C1287 C1284 1.511 . S
C1287 H1301 0.961 . S
C1287 H1302 0.961 . S
C1287 H1303 0.961 . S
C1288 C1289 1.370 . S
C1288 C1290 1.363 . S
C1288 H1304 0.931 . S
C1289 C1288 1.370 . S
C1289 C1293 1.408 . S
C1290 C1288 1.363 . S
C1290 C1291 1.370 . S
C1290 C1294 1.524 . S
C1291 C1283 1.503 . S
C1291 C1290 1.370 . S
C1291 C1292 1.403 . S
C1292 C1291 1.403 . S
C1292 C1293 1.404 . S
C1292 C1295 1.539 . S
C1293 C1289 1.408 . S
C1293 C1292 1.404 . S
C1293 H1305 0.930 . S
C1294 C1290 1.524 . S
C1294 H1306 0.956 . S
C1294 H1307 0.961 . S
C1294 H1308 0.961 . S
C1295 C1292 1.539 . S
C1295 H1309 0.958 . S
C1295 H1310 0.961 . S
C1295 H1311 0.960 . S
H1296 C1280 0.931 . S
H1297 C1285 0.929 . S
H1298 C1286 0.960 . S
H1299 C1286 0.962 . S
H1300 C1286 0.960 . S
H1301 C1287 0.961 . S
H1302 C1287 0.961 . S
H1303 C1287 0.961 . S
H1304 C1288 0.931 . S
H1305 C1293 0.930 . S
H1306 C1294 0.956 . S
H1307 C1294 0.961 . S
H1308 C1294 0.961 . S
H1309 C1295 0.958 . S
H1310 C1295 0.961 . S
H1311 C1295 0.960 . S
C1312 C1313 1.391 . S
C1312 C1314 1.394 . S
C1312 H1328 0.931 . S
C1313 C1312 1.391 . S
C1313 C1317 1.376 . S
C1314 C1312 1.394 . S
C1314 C1315 1.369 . S
C1314 C1318 1.531 . S
C1315 C1314 1.369 . S
C1315 C1316 1.410 . S
C1315 C1323 1.503 . S
C1316 C1315 1.410 . S
C1316 C1317 1.392 . S
C1316 C1319 1.511 . S
C1317 C1313 1.376 . S
C1317 C1316 1.392 . S
C1317 H1329 0.929 . S
C1318 C1314 1.531 . S
C1318 H1330 0.960 . S
C1318 H1331 0.962 . S
C1318 H1332 0.960 . S
C1319 C1316 1.511 . S
C1319 H1333 0.961 . S
C1319 H1334 0.961 . S
C1319 H1335 0.961 . S
C1320 C1321 1.370 . S
C1320 C1322 1.363 . S
C1320 H1336 0.931 . S
C1321 C1320 1.370 . S
C1321 C1325 1.408 . S
C1322 C1320 1.363 . S
C1322 C1323 1.370 . S
C1322 C1326 1.524 . S
C1323 C1315 1.503 . S
C1323 C1322 1.370 . S
C1323 C1324 1.403 . S
C1324 C1323 1.403 . S
C1324 C1325 1.404 . S
C1324 C1327 1.539 . S
C1325 C1321 1.408 . S
C1325 C1324 1.404 . S
C1325 H1337 0.930 . S
C1326 C1322 1.524 . S
C1326 H1338 0.956 . S
C1326 H1339 0.961 . S
C1326 H1340 0.961 . S
C1327 C1324 1.539 . S
C1327 H1341 0.958 . S
C1327 H1342 0.961 . S
C1327 H1343 0.960 . S
H1328 C1312 0.931 . S
H1329 C1317 0.929 . S
H1330 C1318 0.960 . S
H1331 C1318 0.962 . S
H1332 C1318 0.960 . S
H1333 C1319 0.961 . S
H1334 C1319 0.961 . S
H1335 C1319 0.961 . S
H1336 C1320 0.931 . S
H1337 C1325 0.930 . S
H1338 C1326 0.956 . S
H1339 C1326 0.961 . S
H1340 C1326 0.961 . S
H1341 C1327 0.958 . S
H1342 C1327 0.961 . S
H1343 C1327 0.960 . S
C1344 C1345 1.391 . S
C1344 C1346 1.394 . S
C1344 H1360 0.931 . S
C1345 C1344 1.391 . S
C1345 C1349 1.376 . S
C1346 C1344 1.394 . S
C1346 C1347 1.369 . S
C1346 C1350 1.531 1_655 S
C1347 C1346 1.369 . S
C1347 C1348 1.410 . S
C1347 C1355 1.503 1_655 S
C1348 C1347 1.410 . S
C1348 C1349 1.392 . S
C1348 C1351 1.511 . S
C1349 C1345 1.376 . S
C1349 C1348 1.392 . S
C1349 H1361 0.929 . S
C1350 C1346 1.531 1_455 S
C1350 H1362 0.960 . S
C1350 H1363 0.966 . S
C1350 H1364 0.960 . S
C1351 C1348 1.511 . S
C1351 H1365 0.961 . S
C1351 H1366 0.961 . S
C1351 H1367 0.961 1_655 S
C1352 C1353 1.370 . S
C1352 C1354 1.363 1_455 S
C1352 H1368 0.922 1_455 S
C1353 C1352 1.370 . S
C1353 C1357 1.408 . S
C1354 C1352 1.363 1_655 S
C1354 C1355 1.370 1_655 S
C1354 C1358 1.524 . S
C1355 C1347 1.503 1_455 S
C1355 C1354 1.370 1_455 S
C1355 C1356 1.403 . S
C1356 C1355 1.403 . S
C1356 C1357 1.404 . S
C1356 C1359 1.539 . S
C1357 C1353 1.408 . S
C1357 C1356 1.404 . S
C1357 H1369 0.930 . S
C1358 C1354 1.524 . S
C1358 H1370 0.956 . S
C1358 H1371 0.961 . S
C1358 H1372 0.961 . S
C1359 C1356 1.539 . S
C1359 H1373 0.958 . S
C1359 H1374 0.961 . S
C1359 H1375 0.960 . S
H1360 C1344 0.931 . S
H1361 C1349 0.929 . S
H1362 C1350 0.960 . S
H1363 C1350 0.966 . S
H1364 C1350 0.960 . S
H1365 C1351 0.961 . S
H1366 C1351 0.961 . S
H1367 C1351 0.961 1_455 S
H1368 C1352 0.922 1_655 S
H1369 C1357 0.930 . S
H1370 C1358 0.956 . S
H1371 C1358 0.961 . S
H1372 C1358 0.961 . S
H1373 C1359 0.958 . S
H1374 C1359 0.961 . S
H1375 C1359 0.960 . S
C1376 C1377 1.391 . S
C1376 C1378 1.394 . S
C1376 H1392 0.931 . S
C1377 C1376 1.391 . S
C1377 C1381 1.376 . S
C1378 C1376 1.394 . S
C1378 C1379 1.369 . S
C1378 C1382 1.531 . S
C1379 C1378 1.369 . S
C1379 C1380 1.410 . S
C1379 C1387 1.503 . S
C1380 C1379 1.410 . S
C1380 C1381 1.392 . S
C1380 C1383 1.511 . S
C1381 C1377 1.376 . S
C1381 C1380 1.392 . S
C1381 H1393 0.929 . S
C1382 C1378 1.531 . S
C1382 H1394 0.960 . S
C1382 H1395 0.962 . S
C1382 H1396 0.960 . S
C1383 C1380 1.511 . S
C1383 H1397 0.961 . S
C1383 H1398 0.961 . S
C1383 H1399 0.961 . S
C1384 C1385 1.370 . S
C1384 C1386 1.363 . S
C1384 H1400 0.931 . S
C1385 C1384 1.370 . S
C1385 C1389 1.408 . S
C1386 C1384 1.363 . S
C1386 C1387 1.370 . S
C1386 C1390 1.524 . S
C1387 C1379 1.503 . S
C1387 C1386 1.370 . S
C1387 C1388 1.403 . S
C1388 C1387 1.403 . S
C1388 C1389 1.404 . S
C1388 C1391 1.539 . S
C1389 C1385 1.408 . S
C1389 C1388 1.404 . S
C1389 H1401 0.930 . S
C1390 C1386 1.524 . S
C1390 H1402 0.956 . S
C1390 H1403 0.961 . S
C1390 H1404 0.961 . S
C1391 C1388 1.539 . S
C1391 H1405 0.958 . S
C1391 H1406 0.961 . S
C1391 H1407 0.960 . S
H1392 C1376 0.931 . S
H1393 C1381 0.929 . S
H1394 C1382 0.960 . S
H1395 C1382 0.962 . S
H1396 C1382 0.960 . S
H1397 C1383 0.961 . S
H1398 C1383 0.961 . S
H1399 C1383 0.961 . S
H1400 C1384 0.931 . S
H1401 C1389 0.930 . S
H1402 C1390 0.956 . S
H1403 C1390 0.961 . S
H1404 C1390 0.961 . S
H1405 C1391 0.958 . S
H1406 C1391 0.961 . S
H1407 C1391 0.960 . S
C1408 C1409 1.391 . S
C1408 C1410 1.394 . S
C1408 H1424 0.931 . S
C1409 C1408 1.391 . S
C1409 C1413 1.376 . S
C1410 C1408 1.394 . S
C1410 C1411 1.369 . S
C1410 C1414 1.531 . S
C1411 C1410 1.369 . S
C1411 C1412 1.410 . S
C1411 C1419 1.503 . S
C1412 C1411 1.410 . S
C1412 C1413 1.392 . S
C1412 C1415 1.511 . S
C1413 C1409 1.376 . S
C1413 C1412 1.392 . S
C1413 H1425 0.929 . S
C1414 C1410 1.531 . S
C1414 H1426 0.960 . S
C1414 H1427 0.962 . S
C1414 H1428 0.960 . S
C1415 C1412 1.511 . S
C1415 H1429 0.961 . S
C1415 H1430 0.961 . S
C1415 H1431 0.961 . S
C1416 C1417 1.370 . S
C1416 C1418 1.363 . S
C1416 H1432 0.931 . S
C1417 C1416 1.370 . S
C1417 C1421 1.408 . S
C1418 C1416 1.363 . S
C1418 C1419 1.370 . S
C1418 C1422 1.524 . S
C1419 C1411 1.503 . S
C1419 C1418 1.370 . S
C1419 C1420 1.403 . S
C1420 C1419 1.403 . S
C1420 C1421 1.404 . S
C1420 C1423 1.539 . S
C1421 C1417 1.408 . S
C1421 C1420 1.404 . S
C1421 H1433 0.930 . S
C1422 C1418 1.524 . S
C1422 H1434 0.956 . S
C1422 H1435 0.961 . S
C1422 H1436 0.961 . S
C1423 C1420 1.539 . S
C1423 H1437 0.958 . S
C1423 H1438 0.961 . S
C1423 H1439 0.960 . S
H1424 C1408 0.931 . S
H1425 C1413 0.929 . S
H1426 C1414 0.960 . S
H1427 C1414 0.962 . S
H1428 C1414 0.960 . S
H1429 C1415 0.961 . S
H1430 C1415 0.961 . S
H1431 C1415 0.961 . S
H1432 C1416 0.931 . S
H1433 C1421 0.930 . S
H1434 C1422 0.956 . S
H1435 C1422 0.961 . S
H1436 C1422 0.961 . S
H1437 C1423 0.958 . S
H1438 C1423 0.961 . S
H1439 C1423 0.960 . S
C1440 C1441 1.391 . S
C1440 C1442 1.394 . S
C1440 H1456 0.931 . S
C1441 C1440 1.391 . S
C1441 C1445 1.376 . S
C1442 C1440 1.394 . S
C1442 C1443 1.369 . S
C1442 C1446 1.531 1_655 S
C1443 C1442 1.369 . S
C1443 C1444 1.410 . S
C1443 C1451 1.503 1_655 S
C1444 C1443 1.410 . S
C1444 C1445 1.392 . S
C1444 C1447 1.511 . S
C1445 C1441 1.376 . S
C1445 C1444 1.392 . S
C1445 H1457 0.929 . S
C1446 C1442 1.531 1_455 S
C1446 H1458 0.960 . S
C1446 H1459 0.962 . S
C1446 H1460 0.960 . S
C1447 C1444 1.511 . S
C1447 H1461 0.961 . S
C1447 H1462 0.961 . S
C1447 H1463 0.961 . S
C1448 C1449 1.370 . S
C1448 C1450 1.363 . S
C1448 H1464 0.931 . S
C1449 C1448 1.370 . S
C1449 C1453 1.408 . S
C1450 C1448 1.363 . S
C1450 C1451 1.370 . S
C1450 C1454 1.524 . S
C1451 C1443 1.503 1_455 S
C1451 C1450 1.370 . S
C1451 C1452 1.403 . S
C1452 C1451 1.403 . S
C1452 C1453 1.404 . S
C1452 C1455 1.539 . S
C1453 C1449 1.408 . S
C1453 C1452 1.404 . S
C1453 H1465 0.930 . S
C1454 C1450 1.524 . S
C1454 H1466 0.956 . S
C1454 H1467 0.961 . S
C1454 H1468 0.961 . S
C1455 C1452 1.539 . S
C1455 H1469 0.958 . S
C1455 H1470 0.961 . S
C1455 H1471 0.960 1_455 S
H1456 C1440 0.931 . S
H1457 C1445 0.929 . S
H1458 C1446 0.960 . S
H1459 C1446 0.962 . S
H1460 C1446 0.960 . S
H1461 C1447 0.961 . S
H1462 C1447 0.961 . S
H1463 C1447 0.961 . S
H1464 C1448 0.931 . S
H1465 C1453 0.930 . S
H1466 C1454 0.956 . S
H1467 C1454 0.961 . S
H1468 C1454 0.961 . S
H1469 C1455 0.958 . S
H1470 C1455 0.961 . S
H1471 C1455 0.960 1_655 S
C1472 C1473 1.391 . S
C1472 C1474 1.394 . S
C1472 H1488 0.931 . S
C1473 C1472 1.391 . S
C1473 C1477 1.376 . S
C1474 C1472 1.394 . S
C1474 C1475 1.369 . S
C1474 C1478 1.531 . S
C1475 C1474 1.369 . S
C1475 C1476 1.410 . S
C1475 C1483 1.503 1_556 S
C1476 C1475 1.410 . S
C1476 C1477 1.392 . S
C1476 C1479 1.511 . S
C1477 C1473 1.376 . S
C1477 C1476 1.392 . S
C1477 H1489 0.929 . S
C1478 C1474 1.531 . S
C1478 H1490 0.960 . S
C1478 H1491 0.962 1_556 S
C1478 H1492 0.960 . S
C1479 C1476 1.511 . S
C1479 H1493 0.961 . S
C1479 H1494 0.961 1_556 S
C1479 H1495 0.961 . S
C1480 C1481 1.370 . S
C1480 C1482 1.363 . S
C1480 H1496 0.931 . S
C1481 C1480 1.370 . S
C1481 C1485 1.408 . S
C1482 C1480 1.363 . S
C1482 C1483 1.370 . S
C1482 C1486 1.524 . S
C1483 C1475 1.503 1_554 S
C1483 C1482 1.370 . S
C1483 C1484 1.403 1_554 S
C1484 C1483 1.403 1_556 S
C1484 C1485 1.404 1_556 S
C1484 C1487 1.539 . S
C1485 C1481 1.408 . S
C1485 C1484 1.404 1_554 S
C1485 H1497 0.930 1_554 S
C1486 C1482 1.524 . S
C1486 H1498 0.956 . S
C1486 H1499 0.961 . S
C1486 H1500 0.961 . S
C1487 C1484 1.539 . S
C1487 H1501 0.958 . S
C1487 H1502 0.961 . S
C1487 H1503 0.960 . S
H1488 C1472 0.931 . S
H1489 C1477 0.929 . S
H1490 C1478 0.960 . S
H1491 C1478 0.962 1_554 S
H1492 C1478 0.960 . S
H1493 C1479 0.961 . S
H1494 C1479 0.961 1_554 S
H1495 C1479 0.961 . S
H1496 C1480 0.931 . S
H1497 C1485 0.930 1_556 S
H1498 C1486 0.956 . S
H1499 C1486 0.961 . S
H1500 C1486 0.961 . S
H1501 C1487 0.958 . S
H1502 C1487 0.961 . S
H1503 C1487 0.960 . S
C1504 C1505 1.391 . S
C1504 C1506 1.394 . S
C1504 H1520 0.931 . S
C1505 C1504 1.391 . S
C1505 C1509 1.376 . S
C1506 C1504 1.394 . S
C1506 C1507 1.369 . S
C1506 C1510 1.531 . S
C1507 C1506 1.369 . S
C1507 C1508 1.410 . S
C1507 C1515 1.503 1_545 S
C1508 C1507 1.410 . S
C1508 C1509 1.392 . S
C1508 C1511 1.511 . S
C1509 C1505 1.376 . S
C1509 C1508 1.392 . S
C1509 H1521 0.929 . S
C1510 C1506 1.531 . S
C1510 H1522 0.960 1_545 S
C1510 H1523 0.962 . S
C1510 H1524 0.960 . S
C1511 C1508 1.511 . S
C1511 H1525 0.961 . S
C1511 H1526 0.961 . S
C1511 H1527 0.961 . S
C1512 C1513 1.370 . S
C1512 C1514 1.363 . S
C1512 H1528 0.931 . S
C1513 C1512 1.370 . S
C1513 C1517 1.408 . S
C1514 C1512 1.363 . S
C1514 C1515 1.370 . S
C1514 C1518 1.524 1_565 S
C1515 C1507 1.503 1_565 S
C1515 C1514 1.370 . S
C1515 C1516 1.403 . S
C1516 C1515 1.403 . S
C1516 C1517 1.404 . S
C1516 C1519 1.539 . S
C1517 C1513 1.408 . S
C1517 C1516 1.404 . S
C1517 H1529 0.930 . S
C1518 C1514 1.524 1_545 S
C1518 H1530 0.956 . S
C1518 H1531 0.961 . S
C1518 H1532 0.961 . S
C1519 C1516 1.539 . S
C1519 H1533 0.958 . S
C1519 H1534 0.961 . S
C1519 H1535 0.960 . S
H1520 C1504 0.931 . S
H1521 C1509 0.929 . S
H1522 C1510 0.960 1_565 S
H1523 C1510 0.962 . S
H1524 C1510 0.960 . S
H1525 C1511 0.961 . S
H1526 C1511 0.961 . S
H1527 C1511 0.961 . S
H1528 C1512 0.931 . S
H1529 C1517 0.930 . S
H1530 C1518 0.956 . S
H1531 C1518 0.961 . S
H1532 C1518 0.961 . S
H1533 C1519 0.958 . S
H1534 C1519 0.961 . S
H1535 C1519 0.960 . S
C1536 C1537 1.391 . S
C1536 C1538 1.394 . S
C1536 H1552 0.931 . S
C1537 C1536 1.391 . S
C1537 C1541 1.376 . S
C1538 C1536 1.394 . S
C1538 C1539 1.369 . S
C1538 C1542 1.531 . S
C1539 C1538 1.369 . S
C1539 C1540 1.410 . S
C1539 C1547 1.503 . S
C1540 C1539 1.410 . S
C1540 C1541 1.392 . S
C1540 C1543 1.511 . S
C1541 C1537 1.376 . S
C1541 C1540 1.392 . S
C1541 H1553 0.929 . S
C1542 C1538 1.531 . S
C1542 H1554 0.960 . S
C1542 H1555 0.962 . S
C1542 H1556 0.960 . S
C1543 C1540 1.511 . S
C1543 H1557 0.961 . S
C1543 H1558 0.961 . S
C1543 H1559 0.961 . S
C1544 C1545 1.370 . S
C1544 C1546 1.363 . S
C1544 H1560 0.931 . S
C1545 C1544 1.370 . S
C1545 C1549 1.408 . S
C1546 C1544 1.363 . S
C1546 C1547 1.370 . S
C1546 C1550 1.524 . S
C1547 C1539 1.503 . S
C1547 C1546 1.370 . S
C1547 C1548 1.403 . S
C1548 C1547 1.403 . S
C1548 C1549 1.404 . S
C1548 C1551 1.539 . S
C1549 C1545 1.408 . S
C1549 C1548 1.404 . S
C1549 H1561 0.930 . S
C1550 C1546 1.524 . S
C1550 H1562 0.956 . S
C1550 H1563 0.961 . S
C1550 H1564 0.961 . S
C1551 C1548 1.539 . S
C1551 H1565 0.958 . S
C1551 H1566 0.961 . S
C1551 H1567 0.960 . S
H1552 C1536 0.931 . S
H1553 C1541 0.929 . S
H1554 C1542 0.960 . S
H1555 C1542 0.962 . S
H1556 C1542 0.960 . S
H1557 C1543 0.961 . S
H1558 C1543 0.961 . S
H1559 C1543 0.961 . S
H1560 C1544 0.931 . S
H1561 C1549 0.930 . S
H1562 C1550 0.956 . S
H1563 C1550 0.961 . S
H1564 C1550 0.961 . S
H1565 C1551 0.958 . S
H1566 C1551 0.961 . S
H1567 C1551 0.960 . S
C1568 C1569 1.391 . S
C1568 C1570 1.394 . S
C1568 H1584 0.931 . S
C1569 C1568 1.391 . S
C1569 C1573 1.376 . S
C1570 C1568 1.394 . S
C1570 C1571 1.369 . S
C1570 C1574 1.531 1_545 S
C1571 C1570 1.369 . S
C1571 C1572 1.410 . S
C1571 C1579 1.503 1_545 S
C1572 C1571 1.410 . S
C1572 C1573 1.392 . S
C1572 C1575 1.511 . S
C1573 C1569 1.376 . S
C1573 C1572 1.392 . S
C1573 H1585 0.929 . S
C1574 C1570 1.531 1_565 S
C1574 H1586 0.960 . S
C1574 H1587 0.962 1_565 S
C1574 H1588 0.960 1_565 S
C1575 C1572 1.511 . S
C1575 H1589 0.961 . S
C1575 H1590 0.961 . S
C1575 H1591 0.961 . S
C1576 C1577 1.370 . S
C1576 C1578 1.363 . S
C1576 H1592 0.931 . S
C1577 C1576 1.370 . S
C1577 C1581 1.408 . S
C1578 C1576 1.363 . S
C1578 C1579 1.370 . S
C1578 C1582 1.524 1_565 S
C1579 C1571 1.503 1_565 S
C1579 C1578 1.370 . S
C1579 C1580 1.403 . S
C1580 C1579 1.403 . S
C1580 C1581 1.404 . S
C1580 C1583 1.539 . S
C1581 C1577 1.408 . S
C1581 C1580 1.404 . S
C1581 H1593 0.930 . S
C1582 C1578 1.524 1_545 S
C1582 H1594 0.956 . S
C1582 H1595 0.961 . S
C1582 H1596 0.961 . S
C1583 C1580 1.539 . S
C1583 H1597 0.958 . S
C1583 H1598 0.961 . S
C1583 H1599 0.960 . S
H1584 C1568 0.931 . S
H1585 C1573 0.929 . S
H1586 C1574 0.960 . S
H1587 C1574 0.962 1_545 S
H1588 C1574 0.960 1_545 S
H1589 C1575 0.961 . S
H1590 C1575 0.961 . S
H1591 C1575 0.961 . S
H1592 C1576 0.931 . S
H1593 C1581 0.930 . S
H1594 C1582 0.956 . S
H1595 C1582 0.961 . S
H1596 C1582 0.961 . S
H1597 C1583 0.958 . S
H1598 C1583 0.961 . S
H1599 C1583 0.960 . S
C1600 C1601 1.391 . S
C1600 C1602 1.394 . S
C1600 H1616 0.931 . S
C1601 C1600 1.391 . S
C1601 C1605 1.376 . S
C1602 C1600 1.394 . S
C1602 C1603 1.369 . S
C1602 C1606 1.531 1_554 S
C1603 C1602 1.369 . S
C1603 C1604 1.410 . S
C1603 C1611 1.503 1_554 S
C1604 C1603 1.410 . S
C1604 C1605 1.392 . S
C1604 C1607 1.511 . S
C1605 C1601 1.376 . S
C1605 C1604 1.392 . S
C1605 H1617 0.929 . S
C1606 C1602 1.531 1_556 S
C1606 H1618 0.960 . S
C1606 H1619 0.962 . S
C1606 H1620 0.960 . S
C1607 C1604 1.511 . S
C1607 H1621 0.961 . S
C1607 H1622 0.961 . S
C1607 H1623 0.961 . S
C1608 C1609 1.370 . S
C1608 C1610 1.363 . S
C1608 H1624 0.931 . S
C1609 C1608 1.370 . S
C1609 C1613 1.408 . S
C1610 C1608 1.363 . S
C1610 C1611 1.370 . S
C1610 C1614 1.524 . S
C1611 C1603 1.503 1_556 S
C1611 C1610 1.370 . S
C1611 C1612 1.395 1_556 S
C1612 C1611 1.395 1_554 S
C1612 C1613 1.383 1_554 S
C1612 C1615 1.570 . S
C1613 C1609 1.408 . S
C1613 C1612 1.383 1_556 S
C1613 H1625 0.930 . S
C1614 C1610 1.524 . S
C1614 H1626 0.956 . S
C1614 H1627 0.961 . S
C1614 H1628 0.961 . S
C1615 C1612 1.570 . S
C1615 H1629 0.958 . S
C1615 H1630 0.961 . S
C1615 H1631 0.960 . S
H1616 C1600 0.931 . S
H1617 C1605 0.929 . S
H1618 C1606 0.960 . S
H1619 C1606 0.962 . S
H1620 C1606 0.960 . S
H1621 C1607 0.961 . S
H1622 C1607 0.961 . S
H1623 C1607 0.961 . S
H1624 C1608 0.931 . S
H1625 C1613 0.930 . S
H1626 C1614 0.956 . S
H1627 C1614 0.961 . S
H1628 C1614 0.961 . S
H1629 C1615 0.958 . S
H1630 C1615 0.961 . S
H1631 C1615 0.960 . S
C1632 C1633 1.391 . S
C1632 C1634 1.394 . S
C1632 H1648 0.931 . S
C1633 C1632 1.391 . S
C1633 C1637 1.376 . S
C1634 C1632 1.394 . S
C1634 C1635 1.369 . S
C1634 C1638 1.531 1_565 S
C1635 C1634 1.369 . S
C1635 C1636 1.410 . S
C1635 C1643 1.503 1_565 S
C1636 C1635 1.410 . S
C1636 C1637 1.392 . S
C1636 C1639 1.511 . S
C1637 C1633 1.376 . S
C1637 C1636 1.392 . S
C1637 H1649 0.929 . S
C1638 C1634 1.531 1_545 S
C1638 H1650 0.960 . S
C1638 H1651 0.966 . S
C1638 H1652 0.964 . S
C1639 C1636 1.511 . S
C1639 H1653 0.961 . S
C1639 H1654 0.961 . S
C1639 H1655 0.961 . S
C1640 C1641 1.370 . S
C1640 C1642 1.363 . S
C1640 H1656 0.931 . S
C1641 C1640 1.370 . S
C1641 C1645 1.408 . S
C1642 C1640 1.363 . S
C1642 C1643 1.370 . S
C1642 C1646 1.524 1_545 S
C1643 C1635 1.503 1_545 S
C1643 C1642 1.370 . S
C1643 C1644 1.403 . S
C1644 C1643 1.403 . S
C1644 C1645 1.404 . S
C1644 C1647 1.539 . S
C1645 C1641 1.408 . S
C1645 C1644 1.404 . S
C1645 H1657 0.930 . S
C1646 C1642 1.524 1_565 S
C1646 H1658 0.956 . S
C1646 H1659 0.961 . S
C1646 H1660 0.961 . S
C1647 C1644 1.539 . S
C1647 H1661 0.958 . S
C1647 H1662 0.961 . S
C1647 H1663 0.960 . S
H1648 C1632 0.931 . S
H1649 C1637 0.929 . S
H1650 C1638 0.960 . S
H1651 C1638 0.966 . S
H1652 C1638 0.964 . S
H1653 C1639 0.961 . S
H1654 C1639 0.961 . S
H1655 C1639 0.961 . S
H1656 C1640 0.931 . S
H1657 C1645 0.930 . S
H1658 C1646 0.956 . S
H1659 C1646 0.961 . S
H1660 C1646 0.961 . S
H1661 C1647 0.958 . S
H1662 C1647 0.961 . S
H1663 C1647 0.960 . S
C1664 C1665 1.391 . S
C1664 C1666 1.394 . S
C1664 H1680 0.931 . S
C1665 C1664 1.391 . S
C1665 C1669 1.376 . S
C1666 C1664 1.394 . S
C1666 C1667 1.369 . S
C1666 C1670 1.531 . S
C1667 C1666 1.369 . S
C1667 C1668 1.410 . S
C1667 C1675 1.503 . S
C1668 C1667 1.410 . S
C1668 C1669 1.392 . S
C1668 C1671 1.511 . S
C1669 C1665 1.376 . S
C1669 C1668 1.392 . S
C1669 H1681 0.929 . S
C1670 C1666 1.531 . S
C1670 H1682 0.960 . S
C1670 H1683 0.962 . S
C1670 H1684 0.960 . S
C1671 C1668 1.511 . S
C1671 H1685 0.961 . S
C1671 H1686 0.961 . S
C1671 H1687 0.961 . S
C1672 C1673 1.370 . S
C1672 C1674 1.363 . S
C1672 H1688 0.931 . S
C1673 C1672 1.370 . S
C1673 C1677 1.408 . S
C1674 C1672 1.363 . S
C1674 C1675 1.370 . S
C1674 C1678 1.524 . S
C1675 C1667 1.503 . S
C1675 C1674 1.370 . S
C1675 C1676 1.403 . S
C1676 C1675 1.403 . S
C1676 C1677 1.404 . S
C1676 C1679 1.539 . S
C1677 C1673 1.408 . S
C1677 C1676 1.404 . S
C1677 H1689 0.930 . S
C1678 C1674 1.524 . S
C1678 H1690 0.956 . S
C1678 H1691 0.961 . S
C1678 H1692 0.961 . S
C1679 C1676 1.539 . S
C1679 H1693 0.958 . S
C1679 H1694 0.961 . S
C1679 H1695 0.960 . S
H1680 C1664 0.931 . S
H1681 C1669 0.929 . S
H1682 C1670 0.960 . S
H1683 C1670 0.962 . S
H1684 C1670 0.960 . S
H1685 C1671 0.961 . S
H1686 C1671 0.961 . S
H1687 C1671 0.961 . S
H1688 C1672 0.931 . S
H1689 C1677 0.930 . S
H1690 C1678 0.956 . S
H1691 C1678 0.961 . S
H1692 C1678 0.961 . S
H1693 C1679 0.958 . S
H1694 C1679 0.961 . S
H1695 C1679 0.960 . S
C1696 C1697 1.391 . S
C1696 C1698 1.394 . S
C1696 H1712 0.931 . S
C1697 C1696 1.391 . S
C1697 C1701 1.376 . S
C1698 C1696 1.394 . S
C1698 C1699 1.369 . S
C1698 C1702 1.531 . S
C1699 C1698 1.369 . S
C1699 C1700 1.410 . S
C1699 C1707 1.503 1_545 S
C1700 C1699 1.410 . S
C1700 C1701 1.392 . S
C1700 C1703 1.511 . S
C1701 C1697 1.376 . S
C1701 C1700 1.392 . S
C1701 H1713 0.929 . S
C1702 C1698 1.531 . S
C1702 H1714 0.960 . S
C1702 H1715 0.962 . S
C1702 H1716 0.960 . S
C1703 C1700 1.511 . S
C1703 H1717 0.961 . S
C1703 H1718 0.961 1_545 S
C1703 H1719 0.961 . S
C1704 C1705 1.370 . S
C1704 C1706 1.363 . S
C1704 H1720 0.931 . S
C1705 C1704 1.370 . S
C1705 C1709 1.408 . S
C1706 C1704 1.363 . S
C1706 C1707 1.370 . S
C1706 C1710 1.524 . S
C1707 C1699 1.503 1_565 S
C1707 C1706 1.370 . S
C1707 C1708 1.403 . S
C1708 C1707 1.403 . S
C1708 C1709 1.404 . S
C1708 C1711 1.539 1_565 S
C1709 C1705 1.408 . S
C1709 C1708 1.404 . S
C1709 H1721 0.930 . S
C1710 C1706 1.524 . S
C1710 H1722 0.956 . S
C1710 H1723 0.961 . S
C1710 H1724 0.961 . S
C1711 C1708 1.539 1_545 S
C1711 H1725 0.958 . S
C1711 H1726 0.961 . S
C1711 H1727 0.960 . S
H1712 C1696 0.931 . S
H1713 C1701 0.929 . S
H1714 C1702 0.960 . S
H1715 C1702 0.962 . S
H1716 C1702 0.960 . S
H1717 C1703 0.961 . S
H1718 C1703 0.961 1_565 S
H1719 C1703 0.961 . S
H1720 C1704 0.931 . S
H1721 C1709 0.930 . S
H1722 C1710 0.956 . S
H1723 C1710 0.961 . S
H1724 C1710 0.961 . S
H1725 C1711 0.958 . S
H1726 C1711 0.961 . S
H1727 C1711 0.960 . S
C1728 C1729 1.391 . S
C1728 C1730 1.394 . S
C1728 H1744 0.931 . S
C1729 C1728 1.391 . S
C1729 C1733 1.376 . S
C1730 C1728 1.394 . S
C1730 C1731 1.369 . S
C1730 C1734 1.531 . S
C1731 C1730 1.369 . S
C1731 C1732 1.410 . S
C1731 C1739 1.503 . S
C1732 C1731 1.410 . S
C1732 C1733 1.392 . S
C1732 C1735 1.511 . S
C1733 C1729 1.376 . S
C1733 C1732 1.392 . S
C1733 H1745 0.929 . S
C1734 C1730 1.531 . S
C1734 H1746 0.960 . S
C1734 H1747 0.962 . S
C1734 H1748 0.960 . S
C1735 C1732 1.511 . S
C1735 H1749 0.961 . S
C1735 H1750 0.961 . S
C1735 H1751 0.961 . S
C1736 C1737 1.370 . S
C1736 C1738 1.363 . S
C1736 H1752 0.931 . S
C1737 C1736 1.370 . S
C1737 C1741 1.408 . S
C1738 C1736 1.363 . S
C1738 C1739 1.370 . S
C1738 C1742 1.524 . S
C1739 C1731 1.503 . S
C1739 C1738 1.370 . S
C1739 C1740 1.403 . S
C1740 C1739 1.403 . S
C1740 C1741 1.404 . S
C1740 C1743 1.539 . S
C1741 C1737 1.408 . S
C1741 C1740 1.404 . S
C1741 H1753 0.930 . S
C1742 C1738 1.524 . S
C1742 H1754 0.956 . S
C1742 H1755 0.961 . S
C1742 H1756 0.961 . S
C1743 C1740 1.539 . S
C1743 H1757 0.958 . S
C1743 H1758 0.961 . S
C1743 H1759 0.960 . S
H1744 C1728 0.931 . S
H1745 C1733 0.929 . S
H1746 C1734 0.960 . S
H1747 C1734 0.962 . S
H1748 C1734 0.960 . S
H1749 C1735 0.961 . S
H1750 C1735 0.961 . S
H1751 C1735 0.961 . S
H1752 C1736 0.931 . S
H1753 C1741 0.930 . S
H1754 C1742 0.956 . S
H1755 C1742 0.961 . S
H1756 C1742 0.961 . S
H1757 C1743 0.958 . S
H1758 C1743 0.961 . S
H1759 C1743 0.960 . S
C1760 C1761 1.391 . S
C1760 C1762 1.394 . S
C1760 H1776 0.931 . S
C1761 C1760 1.391 . S
C1761 C1765 1.376 . S
C1762 C1760 1.394 . S
C1762 C1763 1.369 . S
C1762 C1766 1.531 . S
C1763 C1762 1.369 . S
C1763 C1764 1.410 . S
C1763 C1771 1.503 . S
C1764 C1763 1.410 . S
C1764 C1765 1.392 . S
C1764 C1767 1.511 . S
C1765 C1761 1.376 . S
C1765 C1764 1.392 . S
C1765 H1777 0.929 . S
C1766 C1762 1.531 . S
C1766 H1778 0.960 . S
C1766 H1779 0.962 . S
C1766 H1780 0.960 . S
C1767 C1764 1.511 . S
C1767 H1781 0.961 . S
C1767 H1782 0.961 . S
C1767 H1783 0.961 . S
C1768 C1769 1.370 . S
C1768 C1770 1.363 . S
C1768 H1784 0.931 . S
C1769 C1768 1.370 . S
C1769 C1773 1.408 . S
C1770 C1768 1.363 . S
C1770 C1771 1.370 . S
C1770 C1774 1.524 . S
C1771 C1763 1.503 . S
C1771 C1770 1.370 . S
C1771 C1772 1.403 . S
C1772 C1771 1.403 . S
C1772 C1773 1.404 . S
C1772 C1775 1.539 . S
C1773 C1769 1.408 . S
C1773 C1772 1.404 . S
C1773 H1785 0.930 . S
C1774 C1770 1.524 . S
C1774 H1786 0.956 . S
C1774 H1787 0.961 . S
C1774 H1788 0.961 . S
C1775 C1772 1.539 . S
C1775 H1789 0.958 . S
C1775 H1790 0.961 . S
C1775 H1791 0.960 . S
H1776 C1760 0.931 . S
H1777 C1765 0.929 . S
H1778 C1766 0.960 . S
H1779 C1766 0.962 . S
H1780 C1766 0.960 . S
H1781 C1767 0.961 . S
H1782 C1767 0.961 . S
H1783 C1767 0.961 . S
H1784 C1768 0.931 . S
H1785 C1773 0.930 . S
H1786 C1774 0.956 . S
H1787 C1774 0.961 . S
H1788 C1774 0.961 . S
H1789 C1775 0.958 . S
H1790 C1775 0.961 . S
H1791 C1775 0.960 . S
C1792 C1793 1.391 . S
C1792 C1794 1.394 1_554 S
C1792 H1808 0.899 1_554 S
C1793 C1792 1.391 . S
C1793 C1797 1.376 . S
C1794 C1792 1.394 1_556 S
C1794 C1795 1.369 1_556 S
C1794 C1798 1.531 . S
C1795 C1794 1.369 1_554 S
C1795 C1796 1.410 . S
C1795 C1803 1.503 1_554 S
C1796 C1795 1.410 . S
C1796 C1797 1.392 . S
C1796 C1799 1.511 . S
C1797 C1793 1.376 . S
C1797 C1796 1.392 . S
C1797 H1809 0.929 . S
C1798 C1794 1.531 . S
C1798 H1810 0.960 . S
C1798 H1811 0.962 . S
C1798 H1812 0.960 . S
C1799 C1796 1.511 . S
C1799 H1813 0.961 . S
C1799 H1814 0.961 . S
C1799 H1815 0.961 . S
C1800 C1801 1.370 . S
C1800 C1802 1.363 . S
C1800 H1816 0.931 . S
C1801 C1800 1.370 . S
C1801 C1805 1.408 . S
C1802 C1800 1.363 . S
C1802 C1803 1.370 . S
C1802 C1806 1.524 1_556 S
C1803 C1795 1.503 1_556 S
C1803 C1802 1.370 . S
C1803 C1804 1.403 . S
C1804 C1803 1.403 . S
C1804 C1805 1.404 . S
C1804 C1807 1.539 . S
C1805 C1801 1.408 . S
C1805 C1804 1.404 . S
C1805 H1817 0.930 . S
C1806 C1802 1.524 1_554 S
C1806 H1818 0.938 1_554 S
C1806 H1819 0.961 . S
C1806 H1820 0.961 . S
C1807 C1804 1.539 . S
C1807 H1821 0.958 . S
C1807 H1822 0.961 . S
C1807 H1823 0.960 . S
H1808 C1792 0.899 1_556 S
H1809 C1797 0.929 . S
H1810 C1798 0.960 . S
H1811 C1798 0.962 . S
H1812 C1798 0.960 . S
H1813 C1799 0.961 . S
H1814 C1799 0.961 . S
H1815 C1799 0.961 . S
H1816 C1800 0.931 . S
H1817 C1805 0.930 . S
H1818 C1806 0.938 1_556 S
H1819 C1806 0.961 . S
H1820 C1806 0.961 . S
H1821 C1807 0.958 . S
H1822 C1807 0.961 . S
H1823 C1807 0.960 . S
C1824 C1825 1.391 . S
C1824 C1826 1.394 . S
C1824 H1840 0.931 . S
C1825 C1824 1.391 . S
C1825 C1829 1.376 . S
C1826 C1824 1.394 . S
C1826 C1827 1.369 . S
C1826 C1830 1.531 . S
C1827 C1826 1.369 . S
C1827 C1828 1.410 . S
C1827 C1835 1.503 . S
C1828 C1827 1.410 . S
C1828 C1829 1.392 . S
C1828 C1831 1.511 . S
C1829 C1825 1.376 . S
C1829 C1828 1.392 . S
C1829 H1841 0.929 . S
C1830 C1826 1.531 . S
C1830 H1842 0.960 . S
C1830 H1843 0.962 . S
C1830 H1844 0.960 . S
C1831 C1828 1.511 . S
C1831 H1845 0.961 . S
C1831 H1846 0.961 . S
C1831 H1847 0.961 . S
C1832 C1833 1.370 . S
C1832 C1834 1.363 . S
C1832 H1848 0.931 . S
C1833 C1832 1.370 . S
C1833 C1837 1.408 . S
C1834 C1832 1.363 . S
C1834 C1835 1.370 . S
C1834 C1838 1.524 . S
C1835 C1827 1.503 . S
C1835 C1834 1.370 . S
C1835 C1836 1.403 . S
C1836 C1835 1.403 . S
C1836 C1837 1.404 . S
C1836 C1839 1.539 . S
C1837 C1833 1.408 . S
C1837 C1836 1.404 . S
C1837 H1849 0.930 . S
C1838 C1834 1.524 . S
C1838 H1850 0.956 . S
C1838 H1851 0.961 . S
C1838 H1852 0.961 . S
C1839 C1836 1.539 . S
C1839 H1853 0.958 . S
C1839 H1854 0.961 . S
C1839 H1855 0.960 . S
H1840 C1824 0.931 . S
H1841 C1829 0.929 . S
H1842 C1830 0.960 . S
H1843 C1830 0.962 . S
H1844 C1830 0.960 . S
H1845 C1831 0.961 . S
H1846 C1831 0.961 . S
H1847 C1831 0.961 . S
H1848 C1832 0.931 . S
H1849 C1837 0.930 . S
H1850 C1838 0.956 . S
H1851 C1838 0.961 . S
H1852 C1838 0.961 . S
H1853 C1839 0.958 . S
H1854 C1839 0.961 . S
H1855 C1839 0.960 . S
C1856 C1857 1.391 . S
C1856 C1858 1.394 . S
C1856 H1872 0.931 . S
C1857 C1856 1.391 . S
C1857 C1861 1.376 . S
C1858 C1856 1.394 . S
C1858 C1859 1.369 . S
C1858 C1862 1.531 . S
C1859 C1858 1.369 . S
C1859 C1860 1.410 . S
C1859 C1867 1.503 . S
C1860 C1859 1.410 . S
C1860 C1861 1.392 . S
C1860 C1863 1.511 . S
C1861 C1857 1.376 . S
C1861 C1860 1.392 . S
C1861 H1873 0.929 . S
C1862 C1858 1.531 . S
C1862 H1874 0.960 . S
C1862 H1875 0.962 . S
C1862 H1876 0.960 . S
C1863 C1860 1.511 . S
C1863 H1877 0.961 . S
C1863 H1878 0.961 . S
C1863 H1879 0.961 . S
C1864 C1865 1.370 . S
C1864 C1866 1.363 . S
C1864 H1880 0.931 . S
C1865 C1864 1.370 . S
C1865 C1869 1.408 . S
C1866 C1864 1.363 . S
C1866 C1867 1.370 . S
C1866 C1870 1.524 . S
C1867 C1859 1.503 . S
C1867 C1866 1.370 . S
C1867 C1868 1.403 . S
C1868 C1867 1.403 . S
C1868 C1869 1.404 . S
C1868 C1871 1.539 . S
C1869 C1865 1.408 . S
C1869 C1868 1.404 . S
C1869 H1881 0.930 . S
C1870 C1866 1.524 . S
C1870 H1882 0.956 . S
C1870 H1883 0.961 . S
C1870 H1884 0.961 . S
C1871 C1868 1.539 . S
C1871 H1885 0.958 . S
C1871 H1886 0.961 . S
C1871 H1887 0.960 . S
H1872 C1856 0.931 . S
H1873 C1861 0.929 . S
H1874 C1862 0.960 . S
H1875 C1862 0.962 . S
H1876 C1862 0.960 . S
H1877 C1863 0.961 . S
H1878 C1863 0.961 . S
H1879 C1863 0.961 . S
H1880 C1864 0.931 . S
H1881 C1869 0.930 . S
H1882 C1870 0.956 . S
H1883 C1870 0.961 . S
H1884 C1870 0.961 . S
H1885 C1871 0.958 . S
H1886 C1871 0.961 . S
H1887 C1871 0.960 . S
C1888 C1889 1.391 . S
C1888 C1890 1.394 . S
C1888 H1904 0.931 . S
C1889 C1888 1.391 . S
C1889 C1893 1.376 . S
C1890 C1888 1.394 . S
C1890 C1891 1.369 . S
C1890 C1894 1.531 . S
C1891 C1890 1.369 . S
C1891 C1892 1.410 . S
C1891 C1899 1.503 . S
C1892 C1891 1.410 . S
C1892 C1893 1.392 . S
C1892 C1895 1.511 . S
C1893 C1889 1.376 . S
C1893 C1892 1.392 . S
C1893 H1905 0.929 . S
C1894 C1890 1.531 . S
C1894 H1906 0.960 . S
C1894 H1907 0.962 . S
C1894 H1908 0.960 . S
C1895 C1892 1.511 . S
C1895 H1909 0.961 . S
C1895 H1910 0.961 . S
C1895 H1911 0.961 . S
C1896 C1897 1.370 . S
C1896 C1898 1.363 . S
C1896 H1912 0.931 . S
C1897 C1896 1.370 . S
C1897 C1901 1.408 . S
C1898 C1896 1.363 . S
C1898 C1899 1.370 . S
C1898 C1902 1.524 . S
C1899 C1891 1.503 . S
C1899 C1898 1.370 . S
C1899 C1900 1.403 . S
C1900 C1899 1.403 . S
C1900 C1901 1.404 . S
C1900 C1903 1.539 . S
C1901 C1897 1.408 . S
C1901 C1900 1.404 . S
C1901 H1913 0.930 . S
C1902 C1898 1.524 . S
C1902 H1914 0.956 . S
C1902 H1915 0.961 . S
C1902 H1916 0.961 . S
C1903 C1900 1.539 . S
C1903 H1917 0.958 . S
C1903 H1918 0.961 . S
C1903 H1919 0.960 . S
H1904 C1888 0.931 . S
H1905 C1893 0.929 . S
H1906 C1894 0.960 . S
H1907 C1894 0.962 . S
H1908 C1894 0.960 . S
H1909 C1895 0.961 . S
H1910 C1895 0.961 . S
H1911 C1895 0.961 . S
H1912 C1896 0.931 . S
H1913 C1901 0.930 . S
H1914 C1902 0.956 . S
H1915 C1902 0.961 . S
H1916 C1902 0.961 . S
H1917 C1903 0.958 . S
H1918 C1903 0.961 . S
H1919 C1903 0.960 . S
C1920 C1921 1.391 . S
C1920 C1922 1.394 . S
C1920 H1936 0.931 . S
C1921 C1920 1.391 . S
C1921 C1925 1.376 . S
C1922 C1920 1.394 . S
C1922 C1923 1.369 . S
C1922 C1926 1.531 1_556 S
C1923 C1922 1.369 . S
C1923 C1924 1.410 . S
C1923 C1931 1.503 1_556 S
C1924 C1923 1.410 . S
C1924 C1925 1.392 . S
C1924 C1927 1.511 . S
C1925 C1921 1.376 . S
C1925 C1924 1.392 . S
C1925 H1937 0.929 . S
C1926 C1922 1.531 1_554 S
C1926 H1938 0.960 . S
C1926 H1939 0.962 1_554 S
C1926 H1940 0.960 . S
C1927 C1924 1.511 . S
C1927 H1941 0.961 . S
C1927 H1942 0.961 . S
C1927 H1943 0.961 1_556 S
C1928 C1929 1.370 . S
C1928 C1930 1.363 1_554 S
C1928 H1944 0.931 1_554 S
C1929 C1928 1.370 . S
C1929 C1933 1.408 . S
C1930 C1928 1.363 1_556 S
C1930 C1931 1.370 1_556 S
C1930 C1934 1.524 . S
C1931 C1923 1.503 1_554 S
C1931 C1930 1.370 1_554 S
C1931 C1932 1.403 . S
C1932 C1931 1.403 . S
C1932 C1933 1.404 . S
C1932 C1935 1.539 . S
C1933 C1929 1.408 . S
C1933 C1932 1.404 . S
C1933 H1945 0.930 . S
C1934 C1930 1.524 . S
C1934 H1946 0.956 . S
C1934 H1947 0.961 . S
C1934 H1948 0.961 . S
C1935 C1932 1.539 . S
C1935 H1949 0.958 . S
C1935 H1950 0.961 . S
C1935 H1951 0.960 . S
H1936 C1920 0.931 . S
H1937 C1925 0.929 . S
H1938 C1926 0.960 . S
H1939 C1926 0.962 1_556 S
H1940 C1926 0.960 . S
H1941 C1927 0.961 . S
H1942 C1927 0.961 . S
H1943 C1927 0.961 1_554 S
H1944 C1928 0.931 1_556 S
H1945 C1933 0.930 . S
H1946 C1934 0.956 . S
H1947 C1934 0.961 . S
H1948 C1934 0.961 . S
H1949 C1935 0.958 . S
H1950 C1935 0.961 . S
H1951 C1935 0.960 . S
C1952 C1953 1.391 . S
C1952 C1954 1.394 . S
C1952 H1968 0.931 . S
C1953 C1952 1.391 . S
C1953 C1957 1.376 . S
C1954 C1952 1.394 . S
C1954 C1955 1.369 . S
C1954 C1958 1.531 . S
C1955 C1954 1.369 . S
C1955 C1956 1.410 . S
C1955 C1963 1.503 . S
C1956 C1955 1.410 . S
C1956 C1957 1.392 . S
C1956 C1959 1.511 . S
C1957 C1953 1.376 . S
C1957 C1956 1.392 . S
C1957 H1969 0.929 . S
C1958 C1954 1.531 . S
C1958 H1970 0.960 . S
C1958 H1971 0.962 . S
C1958 H1972 0.960 . S
C1959 C1956 1.511 . S
C1959 H1973 0.961 . S
C1959 H1974 0.961 . S
C1959 H1975 0.961 . S
C1960 C1961 1.370 . S
C1960 C1962 1.363 . S
C1960 H1976 0.931 . S
C1961 C1960 1.370 . S
C1961 C1965 1.408 . S
C1962 C1960 1.363 . S
C1962 C1963 1.370 . S
C1962 C1966 1.524 . S
C1963 C1955 1.503 . S
C1963 C1962 1.370 . S
C1963 C1964 1.403 . S
C1964 C1963 1.403 . S
C1964 C1965 1.404 . S
C1964 C1967 1.539 . S
C1965 C1961 1.408 . S
C1965 C1964 1.404 . S
C1965 H1977 0.930 . S
C1966 C1962 1.524 . S
C1966 H1978 0.956 . S
C1966 H1979 0.961 . S
C1966 H1980 0.961 . S
C1967 C1964 1.539 . S
C1967 H1981 0.958 . S
C1967 H1982 0.961 . S
C1967 H1983 0.960 . S
H1968 C1952 0.931 . S
H1969 C1957 0.929 . S
H1970 C1958 0.960 . S
H1971 C1958 0.962 . S
H1972 C1958 0.960 . S
H1973 C1959 0.961 . S
H1974 C1959 0.961 . S
H1975 C1959 0.961 . S
H1976 C1960 0.931 . S
H1977 C1965 0.930 . S
H1978 C1966 0.956 . S
H1979 C1966 0.961 . S
H1980 C1966 0.961 . S
H1981 C1967 0.958 . S
H1982 C1967 0.961 . S
H1983 C1967 0.960 . S
C1984 C1985 1.391 . S
C1984 C1986 1.394 . S
C1984 H2000 0.931 . S
C1985 C1984 1.391 . S
C1985 C1989 1.376 . S
C1986 C1984 1.394 . S
C1986 C1987 1.369 . S
C1986 C1990 1.531 . S
C1987 C1986 1.369 . S
C1987 C1988 1.410 . S
C1987 C1995 1.503 . S
C1988 C1987 1.410 . S
C1988 C1989 1.392 . S
C1988 C1991 1.511 . S
C1989 C1985 1.376 . S
C1989 C1988 1.392 . S
C1989 H2001 0.929 . S
C1990 C1986 1.531 . S
C1990 H2002 0.960 . S
C1990 H2003 0.962 . S
C1990 H2004 0.960 . S
C1991 C1988 1.511 . S
C1991 H2005 0.961 . S
C1991 H2006 0.961 . S
C1991 H2007 0.961 . S
C1992 C1993 1.370 . S
C1992 C1994 1.363 . S
C1992 H2008 0.931 . S
C1993 C1992 1.370 . S
C1993 C1997 1.408 . S
C1994 C1992 1.363 . S
C1994 C1995 1.370 . S
C1994 C1998 1.524 . S
C1995 C1987 1.503 . S
C1995 C1994 1.370 . S
C1995 C1996 1.403 . S
C1996 C1995 1.403 . S
C1996 C1997 1.404 . S
C1996 C1999 1.539 . S
C1997 C1993 1.408 . S
C1997 C1996 1.404 . S
C1997 H2009 0.930 . S
C1998 C1994 1.524 . S
C1998 H2010 0.956 . S
C1998 H2011 0.961 . S
C1998 H2012 0.961 . S
C1999 C1996 1.539 . S
C1999 H2013 0.958 . S
C1999 H2014 0.961 . S
C1999 H2015 0.960 . S
H2000 C1984 0.931 . S
H2001 C1989 0.929 . S
H2002 C1990 0.960 . S
H2003 C1990 0.962 . S
H2004 C1990 0.960 . S
H2005 C1991 0.961 . S
H2006 C1991 0.961 . S
H2007 C1991 0.961 . S
H2008 C1992 0.931 . S
H2009 C1997 0.930 . S
H2010 C1998 0.956 . S
H2011 C1998 0.961 . S
H2012 C1998 0.961 . S
H2013 C1999 0.958 . S
H2014 C1999 0.961 . S
H2015 C1999 0.960 . S
C2016 C2017 1.391 . S
C2016 C2018 1.394 . S
C2016 H2032 0.931 . S
C2017 C2016 1.391 . S
C2017 C2021 1.376 . S
C2018 C2016 1.394 . S
C2018 C2019 1.369 . S
C2018 C2022 1.531 . S
C2019 C2018 1.369 . S
C2019 C2020 1.410 . S
C2019 C2027 1.503 . S
C2020 C2019 1.410 . S
C2020 C2021 1.392 . S
C2020 C2023 1.511 . S
C2021 C2017 1.376 . S
C2021 C2020 1.392 . S
C2021 H2033 0.929 . S
C2022 C2018 1.531 . S
C2022 H2034 0.960 . S
C2022 H2035 0.962 . S
C2022 H2036 0.960 . S
C2023 C2020 1.511 . S
C2023 H2037 0.961 . S
C2023 H2038 0.961 . S
C2023 H2039 0.961 . S
C2024 C2025 1.370 . S
C2024 C2026 1.363 . S
C2024 H2040 0.931 . S
C2025 C2024 1.370 . S
C2025 C2029 1.408 . S
C2026 C2024 1.363 . S
C2026 C2027 1.370 . S
C2026 C2030 1.524 . S
C2027 C2019 1.503 . S
C2027 C2026 1.370 . S
C2027 C2028 1.403 . S
C2028 C2027 1.403 . S
C2028 C2029 1.404 . S
C2028 C2031 1.539 . S
C2029 C2025 1.408 . S
C2029 C2028 1.404 . S
C2029 H2041 0.930 . S
C2030 C2026 1.524 . S
C2030 H2042 0.956 . S
C2030 H2043 0.961 . S
C2030 H2044 0.961 . S
C2031 C2028 1.539 . S
C2031 H2045 0.958 . S
C2031 H2046 0.961 . S
C2031 H2047 0.960 . S
H2032 C2016 0.931 . S
H2033 C2021 0.929 . S
H2034 C2022 0.960 . S
H2035 C2022 0.962 . S
H2036 C2022 0.960 . S
H2037 C2023 0.961 . S
H2038 C2023 0.961 . S
H2039 C2023 0.961 . S
H2040 C2024 0.931 . S
H2041 C2029 0.930 . S
H2042 C2030 0.956 . S
H2043 C2030 0.961 . S
H2044 C2030 0.961 . S
H2045 C2031 0.958 . S
H2046 C2031 0.961 . S
H2047 C2031 0.960 . S
C2048 C2049 1.391 . S
C2048 C2050 1.394 . S
C2048 H2064 0.931 . S
C2049 C2048 1.391 . S
C2049 C2053 1.376 . S
C2050 C2048 1.394 . S
C2050 C2051 1.369 . S
C2050 C2054 1.531 . S
C2051 C2050 1.369 . S
C2051 C2052 1.410 . S
C2051 C2059 1.503 . S
C2052 C2051 1.410 . S
C2052 C2053 1.392 . S
C2052 C2055 1.511 . S
C2053 C2049 1.376 . S
C2053 C2052 1.392 . S
C2053 H2065 0.929 . S
C2054 C2050 1.531 . S
C2054 H2066 0.960 . S
C2054 H2067 0.962 . S
C2054 H2068 0.960 . S
C2055 C2052 1.511 . S
C2055 H2069 0.961 . S
C2055 H2070 0.961 . S
C2055 H2071 0.961 . S
C2056 C2057 1.370 . S
C2056 C2058 1.363 . S
C2056 H2072 0.931 . S
C2057 C2056 1.370 . S
C2057 C2061 1.408 . S
C2058 C2056 1.363 . S
C2058 C2059 1.370 . S
C2058 C2062 1.524 . S
C2059 C2051 1.503 . S
C2059 C2058 1.370 . S
C2059 C2060 1.403 . S
C2060 C2059 1.403 . S
C2060 C2061 1.404 . S
C2060 C2063 1.539 . S
C2061 C2057 1.408 . S
C2061 C2060 1.404 . S
C2061 H2073 0.930 . S
C2062 C2058 1.524 . S
C2062 H2074 0.956 . S
C2062 H2075 0.961 . S
C2062 H2076 0.961 . S
C2063 C2060 1.539 . S
C2063 H2077 0.958 . S
C2063 H2078 0.961 . S
C2063 H2079 0.960 . S
H2064 C2048 0.931 . S
H2065 C2053 0.929 . S
H2066 C2054 0.960 . S
H2067 C2054 0.962 . S
H2068 C2054 0.960 . S
H2069 C2055 0.961 . S
H2070 C2055 0.961 . S
H2071 C2055 0.961 . S
H2072 C2056 0.931 . S
H2073 C2061 0.930 . S
H2074 C2062 0.956 . S
H2075 C2062 0.961 . S
H2076 C2062 0.961 . S
H2077 C2063 0.958 . S
H2078 C2063 0.961 . S
H2079 C2063 0.960 . S
C2080 C2081 1.391 . S
C2080 C2082 1.394 . S
C2080 H2096 0.931 . S
C2081 C2080 1.391 . S
C2081 C2085 1.376 . S
C2082 C2080 1.394 . S
C2082 C2083 1.369 . S
C2082 C2086 1.531 . S
C2083 C2082 1.369 . S
C2083 C2084 1.410 . S
C2083 C2091 1.503 . S
C2084 C2083 1.410 . S
C2084 C2085 1.392 . S
C2084 C2087 1.511 . S
C2085 C2081 1.376 . S
C2085 C2084 1.392 . S
C2085 H2097 0.929 . S
C2086 C2082 1.531 . S
C2086 H2098 0.960 . S
C2086 H2099 0.962 . S
C2086 H2100 0.960 . S
C2087 C2084 1.511 . S
C2087 H2101 0.961 . S
C2087 H2102 0.961 . S
C2087 H2103 0.961 . S
C2088 C2089 1.370 . S
C2088 C2090 1.363 . S
C2088 H2104 0.931 . S
C2089 C2088 1.370 . S
C2089 C2093 1.408 . S
C2090 C2088 1.363 . S
C2090 C2091 1.370 . S
C2090 C2094 1.524 . S
C2091 C2083 1.503 . S
C2091 C2090 1.370 . S
C2091 C2092 1.403 . S
C2092 C2091 1.403 . S
C2092 C2093 1.404 . S
C2092 C2095 1.539 . S
C2093 C2089 1.408 . S
C2093 C2092 1.404 . S
C2093 H2105 0.930 . S
C2094 C2090 1.524 . S
C2094 H2106 0.956 . S
C2094 H2107 0.961 . S
C2094 H2108 0.961 . S
C2095 C2092 1.539 . S
C2095 H2109 0.958 . S
C2095 H2110 0.961 . S
C2095 H2111 0.960 . S
H2096 C2080 0.931 . S
H2097 C2085 0.929 . S
H2098 C2086 0.960 . S
H2099 C2086 0.962 . S
H2100 C2086 0.960 . S
H2101 C2087 0.961 . S
H2102 C2087 0.961 . S
H2103 C2087 0.961 . S
H2104 C2088 0.931 . S
H2105 C2093 0.930 . S
H2106 C2094 0.956 . S
H2107 C2094 0.961 . S
H2108 C2094 0.961 . S
H2109 C2095 0.958 . S
H2110 C2095 0.961 . S
H2111 C2095 0.960 . S
C2112 C2113 1.391 . S
C2112 C2114 1.394 . S
C2112 H2128 0.931 . S
C2113 C2112 1.391 . S
C2113 C2117 1.376 . S
C2114 C2112 1.394 . S
C2114 C2115 1.369 . S
C2114 C2118 1.531 . S
C2115 C2114 1.369 . S
C2115 C2116 1.410 . S
C2115 C2123 1.503 . S
C2116 C2115 1.410 . S
C2116 C2117 1.392 . S
C2116 C2119 1.511 . S
C2117 C2113 1.376 . S
C2117 C2116 1.392 . S
C2117 H2129 0.929 . S
C2118 C2114 1.531 . S
C2118 H2130 0.960 . S
C2118 H2131 0.962 . S
C2118 H2132 0.960 . S
C2119 C2116 1.511 . S
C2119 H2133 0.961 . S
C2119 H2134 0.961 . S
C2119 H2135 0.961 . S
C2120 C2121 1.370 . S
C2120 C2122 1.363 . S
C2120 H2136 0.931 . S
C2121 C2120 1.370 . S
C2121 C2125 1.408 . S
C2122 C2120 1.363 . S
C2122 C2123 1.370 . S
C2122 C2126 1.524 . S
C2123 C2115 1.503 . S
C2123 C2122 1.370 . S
C2123 C2124 1.403 . S
C2124 C2123 1.403 . S
C2124 C2125 1.404 . S
C2124 C2127 1.539 . S
C2125 C2121 1.408 . S
C2125 C2124 1.404 . S
C2125 H2137 0.930 . S
C2126 C2122 1.524 . S
C2126 H2138 0.956 . S
C2126 H2139 0.961 . S
C2126 H2140 0.961 . S
C2127 C2124 1.539 . S
C2127 H2141 0.958 . S
C2127 H2142 0.961 . S
C2127 H2143 0.960 . S
H2128 C2112 0.931 . S
H2129 C2117 0.929 . S
H2130 C2118 0.960 . S
H2131 C2118 0.962 . S
H2132 C2118 0.960 . S
H2133 C2119 0.961 . S
H2134 C2119 0.961 . S
H2135 C2119 0.961 . S
H2136 C2120 0.931 . S
H2137 C2125 0.930 . S
H2138 C2126 0.956 . S
H2139 C2126 0.961 . S
H2140 C2126 0.961 . S
H2141 C2127 0.958 . S
H2142 C2127 0.961 . S
H2143 C2127 0.960 . S
C2144 C2145 1.391 . S
C2144 C2146 1.394 . S
C2144 H2160 0.931 . S
C2145 C2144 1.391 . S
C2145 C2149 1.376 . S
C2146 C2144 1.394 . S
C2146 C2147 1.369 . S
C2146 C2150 1.531 . S
C2147 C2146 1.369 . S
C2147 C2148 1.410 . S
C2147 C2155 1.503 . S
C2148 C2147 1.410 . S
C2148 C2149 1.392 . S
C2148 C2151 1.511 . S
C2149 C2145 1.376 . S
C2149 C2148 1.392 . S
C2149 H2161 0.929 . S
C2150 C2146 1.531 . S
C2150 H2162 0.960 . S
C2150 H2163 0.962 . S
C2150 H2164 0.960 . S
C2151 C2148 1.511 . S
C2151 H2165 0.961 . S
C2151 H2166 0.961 . S
C2151 H2167 0.961 . S
C2152 C2153 1.370 . S
C2152 C2154 1.363 . S
C2152 H2168 0.931 . S
C2153 C2152 1.370 . S
C2153 C2157 1.408 . S
C2154 C2152 1.363 . S
C2154 C2155 1.370 . S
C2154 C2158 1.524 . S
C2155 C2147 1.503 . S
C2155 C2154 1.370 . S
C2155 C2156 1.403 . S
C2156 C2155 1.403 . S
C2156 C2157 1.404 . S
C2156 C2159 1.539 . S
C2157 C2153 1.408 . S
C2157 C2156 1.404 . S
C2157 H2169 0.930 . S
C2158 C2154 1.524 . S
C2158 H2170 0.956 . S
C2158 H2171 0.961 . S
C2158 H2172 0.961 . S
C2159 C2156 1.539 . S
C2159 H2173 0.958 . S
C2159 H2174 0.961 . S
C2159 H2175 0.960 . S
H2160 C2144 0.931 . S
H2161 C2149 0.929 . S
H2162 C2150 0.960 . S
H2163 C2150 0.962 . S
H2164 C2150 0.960 . S
H2165 C2151 0.961 . S
H2166 C2151 0.961 . S
H2167 C2151 0.961 . S
H2168 C2152 0.931 . S
H2169 C2157 0.930 . S
H2170 C2158 0.956 . S
H2171 C2158 0.961 . S
H2172 C2158 0.961 . S
H2173 C2159 0.958 . S
H2174 C2159 0.961 . S
H2175 C2159 0.960 . S
C2176 C2177 1.391 . S
C2176 C2178 1.394 . S
C2176 H2192 0.931 . S
C2177 C2176 1.391 . S
C2177 C2181 1.376 . S
C2178 C2176 1.394 . S
C2178 C2179 1.369 . S
C2178 C2182 1.531 . S
C2179 C2178 1.369 . S
C2179 C2180 1.410 . S
C2179 C2187 1.503 . S
C2180 C2179 1.410 . S
C2180 C2181 1.392 . S
C2180 C2183 1.511 . S
C2181 C2177 1.376 . S
C2181 C2180 1.392 . S
C2181 H2193 0.929 . S
C2182 C2178 1.531 . S
C2182 H2194 0.960 . S
C2182 H2195 0.962 . S
C2182 H2196 0.960 . S
C2183 C2180 1.511 . S
C2183 H2197 0.961 . S
C2183 H2198 0.961 . S
C2183 H2199 0.961 . S
C2184 C2185 1.370 . S
C2184 C2186 1.363 . S
C2184 H2200 0.931 . S
C2185 C2184 1.370 . S
C2185 C2189 1.408 . S
C2186 C2184 1.363 . S
C2186 C2187 1.370 . S
C2186 C2190 1.524 . S
C2187 C2179 1.503 . S
C2187 C2186 1.370 . S
C2187 C2188 1.403 . S
C2188 C2187 1.403 . S
C2188 C2189 1.404 . S
C2188 C2191 1.539 . S
C2189 C2185 1.408 . S
C2189 C2188 1.404 . S
C2189 H2201 0.930 . S
C2190 C2186 1.524 . S
C2190 H2202 0.956 . S
C2190 H2203 0.961 . S
C2190 H2204 0.961 . S
C2191 C2188 1.539 . S
C2191 H2205 0.958 . S
C2191 H2206 0.961 . S
C2191 H2207 0.960 . S
H2192 C2176 0.931 . S
H2193 C2181 0.929 . S
H2194 C2182 0.960 . S
H2195 C2182 0.962 . S
H2196 C2182 0.960 . S
H2197 C2183 0.961 . S
H2198 C2183 0.961 . S
H2199 C2183 0.961 . S
H2200 C2184 0.931 . S
H2201 C2189 0.930 . S
H2202 C2190 0.956 . S
H2203 C2190 0.961 . S
H2204 C2190 0.961 . S
H2205 C2191 0.958 . S
H2206 C2191 0.961 . S
H2207 C2191 0.960 . S
C2208 C2209 1.391 . S
C2208 C2210 1.394 . S
C2208 H2224 0.931 . S
C2209 C2208 1.391 . S
C2209 C2213 1.376 . S
C2210 C2208 1.394 . S
C2210 C2211 1.369 . S
C2210 C2214 1.531 . S
C2211 C2210 1.369 . S
C2211 C2212 1.410 . S
C2211 C2219 1.503 . S
C2212 C2211 1.410 . S
C2212 C2213 1.392 . S
C2212 C2215 1.511 . S
C2213 C2209 1.376 . S
C2213 C2212 1.392 . S
C2213 H2225 0.929 . S
C2214 C2210 1.531 . S
C2214 H2226 0.960 . S
C2214 H2227 0.962 . S
C2214 H2228 0.960 . S
C2215 C2212 1.511 . S
C2215 H2229 0.961 . S
C2215 H2230 0.961 . S
C2215 H2231 0.961 . S
C2216 C2217 1.370 . S
C2216 C2218 1.363 . S
C2216 H2232 0.931 . S
C2217 C2216 1.370 . S
C2217 C2221 1.408 . S
C2218 C2216 1.363 . S
C2218 C2219 1.370 . S
C2218 C2222 1.524 . S
C2219 C2211 1.503 . S
C2219 C2218 1.370 . S
C2219 C2220 1.403 . S
C2220 C2219 1.403 . S
C2220 C2221 1.404 . S
C2220 C2223 1.539 . S
C2221 C2217 1.408 . S
C2221 C2220 1.404 . S
C2221 H2233 0.930 . S
C2222 C2218 1.524 . S
C2222 H2234 0.956 . S
C2222 H2235 0.961 . S
C2222 H2236 0.961 . S
C2223 C2220 1.539 . S
C2223 H2237 0.958 . S
C2223 H2238 0.961 . S
C2223 H2239 0.960 . S
H2224 C2208 0.931 . S
H2225 C2213 0.929 . S
H2226 C2214 0.960 . S
H2227 C2214 0.962 . S
H2228 C2214 0.960 . S
H2229 C2215 0.961 . S
H2230 C2215 0.961 . S
H2231 C2215 0.961 . S
H2232 C2216 0.931 . S
H2233 C2221 0.930 . S
H2234 C2222 0.956 . S
H2235 C2222 0.961 . S
H2236 C2222 0.961 . S
H2237 C2223 0.958 . S
H2238 C2223 0.961 . S
H2239 C2223 0.960 . S
C2240 C2241 1.391 . S
C2240 C2242 1.394 . S
C2240 H2256 0.931 . S
C2241 C2240 1.391 . S
C2241 C2245 1.376 . S
C2242 C2240 1.394 . S
C2242 C2243 1.369 . S
C2242 C2246 1.531 . S
C2243 C2242 1.369 . S
C2243 C2244 1.410 . S
C2243 C2251 1.503 . S
C2244 C2243 1.410 . S
C2244 C2245 1.392 . S
C2244 C2247 1.511 . S
C2245 C2241 1.376 . S
C2245 C2244 1.392 . S
C2245 H2257 0.929 . S
C2246 C2242 1.531 . S
C2246 H2258 0.960 . S
C2246 H2259 0.962 . S
C2246 H2260 0.960 . S
C2247 C2244 1.511 . S
C2247 H2261 0.961 . S
C2247 H2262 0.961 . S
C2247 H2263 0.961 . S
C2248 C2249 1.370 . S
C2248 C2250 1.363 . S
C2248 H2264 0.931 . S
C2249 C2248 1.370 . S
C2249 C2253 1.408 . S
C2250 C2248 1.363 . S
C2250 C2251 1.370 . S
C2250 C2254 1.524 . S
C2251 C2243 1.503 . S
C2251 C2250 1.370 . S
C2251 C2252 1.403 . S
C2252 C2251 1.403 . S
C2252 C2253 1.404 . S
C2252 C2255 1.539 . S
C2253 C2249 1.408 . S
C2253 C2252 1.404 . S
C2253 H2265 0.930 . S
C2254 C2250 1.524 . S
C2254 H2266 0.956 . S
C2254 H2267 0.961 . S
C2254 H2268 0.961 . S
C2255 C2252 1.539 . S
C2255 H2269 0.958 . S
C2255 H2270 0.961 . S
C2255 H2271 0.960 . S
H2256 C2240 0.931 . S
H2257 C2245 0.929 . S
H2258 C2246 0.960 . S
H2259 C2246 0.962 . S
H2260 C2246 0.960 . S
H2261 C2247 0.961 . S
H2262 C2247 0.961 . S
H2263 C2247 0.961 . S
H2264 C2248 0.931 . S
H2265 C2253 0.930 . S
H2266 C2254 0.956 . S
H2267 C2254 0.961 . S
H2268 C2254 0.961 . S
H2269 C2255 0.958 . S
H2270 C2255 0.961 . S
H2271 C2255 0.960 . S
C2272 C2273 1.391 . S
C2272 C2274 1.394 . S
C2272 H2288 0.931 . S
C2273 C2272 1.391 . S
C2273 C2277 1.376 . S
C2274 C2272 1.394 . S
C2274 C2275 1.369 . S
C2274 C2278 1.531 . S
C2275 C2274 1.369 . S
C2275 C2276 1.410 . S
C2275 C2283 1.503 . S
C2276 C2275 1.410 . S
C2276 C2277 1.392 . S
C2276 C2279 1.511 . S
C2277 C2273 1.376 . S
C2277 C2276 1.392 . S
C2277 H2289 0.929 . S
C2278 C2274 1.531 . S
C2278 H2290 0.960 . S
C2278 H2291 0.962 . S
C2278 H2292 0.960 . S
C2279 C2276 1.511 . S
C2279 H2293 0.961 . S
C2279 H2294 0.961 . S
C2279 H2295 0.961 . S
C2280 C2281 1.370 . S
C2280 C2282 1.363 . S
C2280 H2296 0.931 . S
C2281 C2280 1.370 . S
C2281 C2285 1.408 . S
C2282 C2280 1.363 . S
C2282 C2283 1.370 . S
C2282 C2286 1.524 . S
C2283 C2275 1.503 . S
C2283 C2282 1.370 . S
C2283 C2284 1.403 . S
C2284 C2283 1.403 . S
C2284 C2285 1.404 . S
C2284 C2287 1.539 . S
C2285 C2281 1.408 . S
C2285 C2284 1.404 . S
C2285 H2297 0.930 . S
C2286 C2282 1.524 . S
C2286 H2298 0.956 . S
C2286 H2299 0.961 . S
C2286 H2300 0.961 . S
C2287 C2284 1.539 . S
C2287 H2301 0.958 . S
C2287 H2302 0.961 . S
C2287 H2303 0.960 . S
H2288 C2272 0.931 . S
H2289 C2277 0.929 . S
H2290 C2278 0.960 . S
H2291 C2278 0.962 . S
H2292 C2278 0.960 . S
H2293 C2279 0.961 . S
H2294 C2279 0.961 . S
H2295 C2279 0.961 . S
H2296 C2280 0.931 . S
H2297 C2285 0.930 . S
H2298 C2286 0.956 . S
H2299 C2286 0.961 . S
H2300 C2286 0.961 . S
H2301 C2287 0.958 . S
H2302 C2287 0.961 . S
H2303 C2287 0.960 . S
C2304 C2305 1.391 . S
C2304 C2306 1.394 . S
C2304 H2320 0.931 . S
C2305 C2304 1.391 . S
C2305 C2309 1.376 . S
C2306 C2304 1.394 . S
C2306 C2307 1.369 . S
C2306 C2310 1.531 . S
C2307 C2306 1.369 . S
C2307 C2308 1.410 . S
C2307 C2315 1.503 . S
C2308 C2307 1.410 . S
C2308 C2309 1.392 . S
C2308 C2311 1.511 . S
C2309 C2305 1.376 . S
C2309 C2308 1.392 . S
C2309 H2321 0.929 . S
C2310 C2306 1.531 . S
C2310 H2322 0.960 . S
C2310 H2323 0.962 . S
C2310 H2324 0.960 . S
C2311 C2308 1.511 . S
C2311 H2325 0.961 . S
C2311 H2326 0.961 . S
C2311 H2327 0.961 . S
C2312 C2313 1.370 . S
C2312 C2314 1.363 . S
C2312 H2328 0.931 . S
C2313 C2312 1.370 . S
C2313 C2317 1.408 . S
C2314 C2312 1.363 . S
C2314 C2315 1.370 . S
C2314 C2318 1.524 . S
C2315 C2307 1.503 . S
C2315 C2314 1.370 . S
C2315 C2316 1.403 . S
C2316 C2315 1.403 . S
C2316 C2317 1.404 . S
C2316 C2319 1.539 . S
C2317 C2313 1.408 . S
C2317 C2316 1.404 . S
C2317 H2329 0.930 . S
C2318 C2314 1.524 . S
C2318 H2330 0.956 . S
C2318 H2331 0.961 . S
C2318 H2332 0.961 . S
C2319 C2316 1.539 . S
C2319 H2333 0.958 . S
C2319 H2334 0.961 . S
C2319 H2335 0.960 . S
H2320 C2304 0.931 . S
H2321 C2309 0.929 . S
H2322 C2310 0.960 . S
H2323 C2310 0.962 . S
H2324 C2310 0.960 . S
H2325 C2311 0.961 . S
H2326 C2311 0.961 . S
H2327 C2311 0.961 . S
H2328 C2312 0.931 . S
H2329 C2317 0.930 . S
H2330 C2318 0.956 . S
H2331 C2318 0.961 . S
H2332 C2318 0.961 . S
H2333 C2319 0.958 . S
H2334 C2319 0.961 . S
H2335 C2319 0.960 . S
C2336 C2337 1.391 . S
C2336 C2338 1.394 . S
C2336 H2352 0.931 . S
C2337 C2336 1.391 . S
C2337 C2341 1.376 . S
C2338 C2336 1.394 . S
C2338 C2339 1.369 . S
C2338 C2342 1.531 . S
C2339 C2338 1.369 . S
C2339 C2340 1.410 . S
C2339 C2347 1.503 . S
C2340 C2339 1.410 . S
C2340 C2341 1.392 . S
C2340 C2343 1.511 . S
C2341 C2337 1.376 . S
C2341 C2340 1.392 . S
C2341 H2353 0.929 . S
C2342 C2338 1.531 . S
C2342 H2354 0.960 . S
C2342 H2355 0.962 . S
C2342 H2356 0.960 . S
C2343 C2340 1.511 . S
C2343 H2357 0.961 . S
C2343 H2358 0.961 . S
C2343 H2359 0.961 . S
C2344 C2345 1.370 . S
C2344 C2346 1.363 . S
C2344 H2360 0.931 . S
C2345 C2344 1.370 . S
C2345 C2349 1.408 . S
C2346 C2344 1.363 . S
C2346 C2347 1.370 . S
C2346 C2350 1.524 . S
C2347 C2339 1.503 . S
C2347 C2346 1.370 . S
C2347 C2348 1.403 . S
C2348 C2347 1.403 . S
C2348 C2349 1.404 . S
C2348 C2351 1.539 . S
C2349 C2345 1.408 . S
C2349 C2348 1.404 . S
C2349 H2361 0.930 . S
C2350 C2346 1.524 . S
C2350 H2362 0.956 . S
C2350 H2363 0.961 . S
C2350 H2364 0.961 . S
C2351 C2348 1.539 . S
C2351 H2365 0.958 . S
C2351 H2366 0.961 . S
C2351 H2367 0.960 . S
H2352 C2336 0.931 . S
H2353 C2341 0.929 . S
H2354 C2342 0.960 . S
H2355 C2342 0.962 . S
H2356 C2342 0.960 . S
H2357 C2343 0.961 . S
H2358 C2343 0.961 . S
H2359 C2343 0.961 . S
H2360 C2344 0.931 . S
H2361 C2349 0.930 . S
H2362 C2350 0.956 . S
H2363 C2350 0.961 . S
H2364 C2350 0.961 . S
H2365 C2351 0.958 . S
H2366 C2351 0.961 . S
H2367 C2351 0.960 . S
C2368 C2369 1.391 . S
C2368 C2370 1.394 . S
C2368 H2384 0.931 . S
C2369 C2368 1.391 . S
C2369 C2373 1.376 . S
C2370 C2368 1.394 . S
C2370 C2371 1.369 . S
C2370 C2374 1.531 . S
C2371 C2370 1.369 . S
C2371 C2372 1.410 . S
C2371 C2379 1.503 . S
C2372 C2371 1.410 . S
C2372 C2373 1.392 . S
C2372 C2375 1.511 . S
C2373 C2369 1.376 . S
C2373 C2372 1.392 . S
C2373 H2385 0.929 . S
C2374 C2370 1.531 . S
C2374 H2386 0.960 . S
C2374 H2387 0.962 . S
C2374 H2388 0.960 . S
C2375 C2372 1.511 . S
C2375 H2389 0.961 . S
C2375 H2390 0.961 . S
C2375 H2391 0.961 . S
C2376 C2377 1.370 . S
C2376 C2378 1.363 . S
C2376 H2392 0.931 . S
C2377 C2376 1.370 . S
C2377 C2381 1.408 . S
C2378 C2376 1.363 . S
C2378 C2379 1.370 . S
C2378 C2382 1.524 . S
C2379 C2371 1.503 . S
C2379 C2378 1.370 . S
C2379 C2380 1.403 . S
C2380 C2379 1.403 . S
C2380 C2381 1.404 . S
C2380 C2383 1.539 . S
C2381 C2377 1.408 . S
C2381 C2380 1.404 . S
C2381 H2393 0.930 . S
C2382 C2378 1.524 . S
C2382 H2394 0.956 . S
C2382 H2395 0.961 . S
C2382 H2396 0.961 . S
C2383 C2380 1.539 . S
C2383 H2397 0.958 . S
C2383 H2398 0.961 . S
C2383 H2399 0.960 . S
H2384 C2368 0.931 . S
H2385 C2373 0.929 . S
H2386 C2374 0.960 . S
H2387 C2374 0.962 . S
H2388 C2374 0.960 . S
H2389 C2375 0.961 . S
H2390 C2375 0.961 . S
H2391 C2375 0.961 . S
H2392 C2376 0.931 . S
H2393 C2381 0.930 . S
H2394 C2382 0.956 . S
H2395 C2382 0.961 . S
H2396 C2382 0.961 . S
H2397 C2383 0.958 . S
H2398 C2383 0.961 . S
H2399 C2383 0.960 . S
C2400 C2401 1.391 . S
C2400 C2402 1.394 . S
C2400 H2416 0.931 . S
C2401 C2400 1.391 . S
C2401 C2405 1.376 . S
C2402 C2400 1.394 . S
C2402 C2403 1.369 . S
C2402 C2406 1.531 . S
C2403 C2402 1.369 . S
C2403 C2404 1.410 . S
C2403 C2411 1.503 . S
C2404 C2403 1.410 . S
C2404 C2405 1.392 . S
C2404 C2407 1.511 . S
C2405 C2401 1.376 . S
C2405 C2404 1.392 . S
C2405 H2417 0.929 . S
C2406 C2402 1.531 . S
C2406 H2418 0.960 . S
C2406 H2419 0.962 . S
C2406 H2420 0.960 . S
C2407 C2404 1.511 . S
C2407 H2421 0.961 . S
C2407 H2422 0.961 . S
C2407 H2423 0.961 . S
C2408 C2409 1.370 . S
C2408 C2410 1.363 . S
C2408 H2424 0.931 . S
C2409 C2408 1.370 . S
C2409 C2413 1.408 . S
C2410 C2408 1.363 . S
C2410 C2411 1.370 . S
C2410 C2414 1.524 . S
C2411 C2403 1.503 . S
C2411 C2410 1.370 . S
C2411 C2412 1.403 . S
C2412 C2411 1.403 . S
C2412 C2413 1.404 . S
C2412 C2415 1.539 . S
C2413 C2409 1.408 . S
C2413 C2412 1.404 . S
C2413 H2425 0.930 . S
C2414 C2410 1.524 . S
C2414 H2426 0.956 . S
C2414 H2427 0.961 . S
C2414 H2428 0.961 . S
C2415 C2412 1.539 . S
C2415 H2429 0.958 . S
C2415 H2430 0.961 . S
C2415 H2431 0.960 . S
H2416 C2400 0.931 . S
H2417 C2405 0.929 . S
H2418 C2406 0.960 . S
H2419 C2406 0.962 . S
H2420 C2406 0.960 . S
H2421 C2407 0.961 . S
H2422 C2407 0.961 . S
H2423 C2407 0.961 . S
H2424 C2408 0.931 . S
H2425 C2413 0.930 . S
H2426 C2414 0.956 . S
H2427 C2414 0.961 . S
H2428 C2414 0.961 . S
H2429 C2415 0.958 . S
H2430 C2415 0.961 . S
H2431 C2415 0.960 . S
C2432 C2433 1.391 . S
C2432 C2434 1.394 . S
C2432 H2448 0.931 . S
C2433 C2432 1.391 . S
C2433 C2437 1.376 . S
C2434 C2432 1.394 . S
C2434 C2435 1.369 . S
C2434 C2438 1.531 . S
C2435 C2434 1.369 . S
C2435 C2436 1.410 . S
C2435 C2443 1.503 . S
C2436 C2435 1.410 . S
C2436 C2437 1.392 . S
C2436 C2439 1.511 . S
C2437 C2433 1.376 . S
C2437 C2436 1.392 . S
C2437 H2449 0.929 . S
C2438 C2434 1.531 . S
C2438 H2450 0.960 . S
C2438 H2451 0.962 . S
C2438 H2452 0.960 . S
C2439 C2436 1.511 . S
C2439 H2453 0.961 . S
C2439 H2454 0.961 . S
C2439 H2455 0.961 . S
C2440 C2441 1.370 . S
C2440 C2442 1.363 . S
C2440 H2456 0.931 . S
C2441 C2440 1.370 . S
C2441 C2445 1.408 . S
C2442 C2440 1.363 . S
C2442 C2443 1.370 . S
C2442 C2446 1.524 . S
C2443 C2435 1.503 . S
C2443 C2442 1.370 . S
C2443 C2444 1.403 . S
C2444 C2443 1.403 . S
C2444 C2445 1.404 . S
C2444 C2447 1.539 . S
C2445 C2441 1.408 . S
C2445 C2444 1.404 . S
C2445 H2457 0.930 . S
C2446 C2442 1.524 . S
C2446 H2458 0.956 . S
C2446 H2459 0.961 . S
C2446 H2460 0.961 . S
C2447 C2444 1.539 . S
C2447 H2461 0.958 . S
C2447 H2462 0.961 . S
C2447 H2463 0.960 . S
H2448 C2432 0.931 . S
H2449 C2437 0.929 . S
H2450 C2438 0.960 . S
H2451 C2438 0.962 . S
H2452 C2438 0.960 . S
H2453 C2439 0.961 . S
H2454 C2439 0.961 . S
H2455 C2439 0.961 . S
H2456 C2440 0.931 . S
H2457 C2445 0.930 . S
H2458 C2446 0.956 . S
H2459 C2446 0.961 . S
H2460 C2446 0.961 . S
H2461 C2447 0.958 . S
H2462 C2447 0.961 . S
H2463 C2447 0.960 . S
C2464 C2465 1.391 . S
C2464 C2466 1.394 . S
C2464 H2480 0.931 . S
C2465 C2464 1.391 . S
C2465 C2469 1.376 . S
C2466 C2464 1.394 . S
C2466 C2467 1.369 . S
C2466 C2470 1.531 . S
C2467 C2466 1.369 . S
C2467 C2468 1.410 . S
C2467 C2475 1.503 . S
C2468 C2467 1.410 . S
C2468 C2469 1.392 . S
C2468 C2471 1.511 . S
C2469 C2465 1.376 . S
C2469 C2468 1.392 . S
C2469 H2481 0.929 . S
C2470 C2466 1.531 . S
C2470 H2482 0.960 . S
C2470 H2483 0.962 . S
C2470 H2484 0.960 . S
C2471 C2468 1.511 . S
C2471 H2485 0.961 . S
C2471 H2486 0.961 . S
C2471 H2487 0.961 . S
C2472 C2473 1.370 . S
C2472 C2474 1.363 . S
C2472 H2488 0.931 . S
C2473 C2472 1.370 . S
C2473 C2477 1.408 . S
C2474 C2472 1.363 . S
C2474 C2475 1.370 . S
C2474 C2478 1.524 . S
C2475 C2467 1.503 . S
C2475 C2474 1.370 . S
C2475 C2476 1.403 . S
C2476 C2475 1.403 . S
C2476 C2477 1.404 . S
C2476 C2479 1.539 . S
C2477 C2473 1.408 . S
C2477 C2476 1.404 . S
C2477 H2489 0.930 . S
C2478 C2474 1.524 . S
C2478 H2490 0.956 . S
C2478 H2491 0.961 . S
C2478 H2492 0.961 . S
C2479 C2476 1.539 . S
C2479 H2493 0.958 . S
C2479 H2494 0.961 . S
C2479 H2495 0.960 . S
H2480 C2464 0.931 . S
H2481 C2469 0.929 . S
H2482 C2470 0.960 . S
H2483 C2470 0.962 . S
H2484 C2470 0.960 . S
H2485 C2471 0.961 . S
H2486 C2471 0.961 . S
H2487 C2471 0.961 . S
H2488 C2472 0.931 . S
H2489 C2477 0.930 . S
H2490 C2478 0.956 . S
H2491 C2478 0.961 . S
H2492 C2478 0.961 . S
H2493 C2479 0.958 . S
H2494 C2479 0.961 . S
H2495 C2479 0.960 . S
C449 C119 1.474 . S
C457 C7 1.516 . S
C481 C357 1.525 . S
C489 C21 1.496 . S
C513 C147 1.479 . S
C521 C35 1.513 . S
C545 C385 1.524 . S
C553 C49 1.494 . S
C577 C175 1.519 . S
C585 C63 1.499 . S
C609 C77 1.490 . S
C617 C413 1.508 . S
C641 C91 1.481 . S
C649 C203 1.512 . S
C673 C105 1.481 . S
C681 C441 1.515 . S
C705 C245 1.485 . S
C713 C133 1.510 . S
C737 C273 1.508 . S
C745 C161 1.504 . S
C769 C189 1.528 . S
C777 C301 1.494 . S
C801 C217 1.519 . S
C809 C329 1.496 . S
C833 C231 1.474 . S
C841 C343 1.516 . S
C865 C371 1.528 . S
C873 C259 1.494 . S
C897 C287 1.518 . S
C905 C399 1.500 . S
C929 C427 1.529 . S
C937 C315 1.494 . S
C961 C261 1.596 . S
C969 C9 1.593 . S
C993 C275 1.598 . S
C1001 C23 1.594 . S
C1025 C37 1.573 . S
C1033 C233 1.585 . S
C1057 C51 1.597 . S
C1065 C247 1.594 . S
C1089 C317 1.584 . S
C1097 C65 1.587 . S
C1121 C79 1.581 . S
C1129 C331 1.589 . S
C1153 C289 1.591 . S
C1161 C93 1.590 . S
C1185 C303 1.598 . S
C1193 C107 1.594 . S
C1217 C121 1.597 . S
C1225 C373 1.594 . S
C1249 C387 1.577 . S
C1257 C135 1.586 . S
C1281 C149 1.575 . S
C1289 C345 1.585 . S
C1313 C163 1.578 . S
C1321 C359 1.586 . S
C1345 C177 1.581 . S
C1353 C429 1.588 . S
C1377 C191 1.573 . S
C1385 C443 1.585 . S
C1409 C401 1.575 . S
C1417 C205 1.585 . S
C1441 C415 1.596 . S
C1449 C219 1.594 . S
C1473 C92 1.540 . S
C1481 C8 1.540 . S
C1505 C106 1.538 . S
C1513 C22 1.539 . S
C1537 C64 1.526 . S
C1545 C36 1.539 . S
C1569 C50 1.534 . S
C1577 C78 1.538 . S
C1601 C204 1.530 . S
C1609 C120 1.538 . S
C1633 C218 1.546 . S
C1641 C134 1.545 . S
C1665 C176 1.528 . S
C1673 C148 1.537 . S
C1697 C190 1.532 . S
C1705 C162 1.540 . S
C1729 C316 1.548 . S
C1737 C232 1.544 . S
C1761 C330 1.547 . S
C1769 C246 1.547 . S
C1793 C260 1.549 . S
C1801 C288 1.547 . S
C1825 C274 1.532 . S
C1833 C302 1.542 . S
C1857 C428 1.551 . S
C1865 C344 1.547 . S
C1889 C442 1.541 . S
C1897 C358 1.542 . S
C1921 C372 1.534 . S
C1929 C400 1.541 . S
C1953 C386 1.548 . S
C1961 C414 1.546 . S
C1985 C3 1.387 . S
C1993 C297 1.403 . S
C2017 C311 1.407 . S
C2025 C17 1.397 . S
C2049 C325 1.394 . S
C2057 C31 1.395 . S
C2081 C45 1.394 . S
C2089 C283 1.405 . S
C2113 C269 1.388 . S
C2121 C59 1.397 . S
C2145 C73 1.401 . S
C2153 C227 1.404 . S
C2177 C241 1.389 . S
C2185 C87 1.396 . S
C2209 C101 1.405 . S
C2217 C255 1.402 . S
C2241 C409 1.387 . S
C2249 C115 1.402 . S
C2273 C423 1.405 . S
C2281 C129 1.397 . S
C2305 C143 1.404 . S
C2313 C437 1.404 . S
C2337 C395 1.405 . S
C2345 C157 1.404 . S
C2369 C381 1.403 . S
C2377 C171 1.396 . S
C2401 C185 1.404 . S
C2409 C339 1.404 . S
C2433 C353 1.388 . S
C2441 C199 1.395 . S
C2465 C213 1.384 . S
C2473 C367 1.400 . S
