# Generated by pormake.
# Topology nfb, (4)-cn, num edge types: 1
# Building blocks:
#     Node 0, Type 0, BuildingBlock: TATPOV_clean_sbu_0, # of connection points: 4
#     Node 1, Type 0, BuildingBlock: TATPOV_clean_sbu_0, # of connection points: 4
#     Node 2, Type 0, BuildingBlock: TATPOV_clean_sbu_0, # of connection points: 4
#     Node 3, Type 0, BuildingBlock: TATPOV_clean_sbu_0, # of connection points: 4
#     Node 4, Type 0, BuildingBlock: TATPOV_clean_sbu_0, # of connection points: 4
#     Node 5, Type 0, BuildingBlock: TATPOV_clean_sbu_0, # of connection points: 4
#     Node 6, Type 0, BuildingBlock: TATPOV_clean_sbu_0, # of connection points: 4
#     Node 7, Type 0, BuildingBlock: TATPOV_clean_sbu_0, # of connection points: 4
#     Node 8, Type 0, BuildingBlock: TATPOV_clean_sbu_0, # of connection points: 4
#     Node 9, Type 0, BuildingBlock: TATPOV_clean_sbu_0, # of connection points: 4
#     Node 10, Type 0, BuildingBlock: TATPOV_clean_sbu_0, # of connection points: 4
#     Node 11, Type 0, BuildingBlock: TATPOV_clean_sbu_0, # of connection points: 4
#     Node 12, Type 0, BuildingBlock: TATPOV_clean_sbu_0, # of connection points: 4
#     Node 13, Type 0, BuildingBlock: TATPOV_clean_sbu_0, # of connection points: 4
#     Node 14, Type 0, BuildingBlock: TATPOV_clean_sbu_0, # of connection points: 4
#     Node 15, Type 0, BuildingBlock: TATPOV_clean_sbu_0, # of connection points: 4
#     Node 16, Type 0, BuildingBlock: TATPOV_clean_sbu_0, # of connection points: 4
#     Node 17, Type 0, BuildingBlock: TATPOV_clean_sbu_0, # of connection points: 4
#     Node 18, Type 0, BuildingBlock: TATPOV_clean_sbu_0, # of connection points: 4
#     Node 19, Type 0, BuildingBlock: TATPOV_clean_sbu_0, # of connection points: 4
#     Node 20, Type 0, BuildingBlock: TATPOV_clean_sbu_0, # of connection points: 4
#     Node 21, Type 0, BuildingBlock: TATPOV_clean_sbu_0, # of connection points: 4
#     Node 22, Type 0, BuildingBlock: TATPOV_clean_sbu_0, # of connection points: 4
#     Node 23, Type 0, BuildingBlock: TATPOV_clean_sbu_0, # of connection points: 4
#     Node 24, Type 0, BuildingBlock: TATPOV_clean_sbu_0, # of connection points: 4
#     Node 25, Type 0, BuildingBlock: TATPOV_clean_sbu_0, # of connection points: 4
#     Node 26, Type 0, BuildingBlock: TATPOV_clean_sbu_0, # of connection points: 4
#     Node 27, Type 0, BuildingBlock: TATPOV_clean_sbu_0, # of connection points: 4
#     Node 28, Type 0, BuildingBlock: TATPOV_clean_sbu_0, # of connection points: 4
#     Node 29, Type 0, BuildingBlock: TATPOV_clean_sbu_0, # of connection points: 4
#     Node 30, Type 0, BuildingBlock: TATPOV_clean_sbu_0, # of connection points: 4
#     Node 31, Type 0, BuildingBlock: TATPOV_clean_sbu_0, # of connection points: 4
#     Node 32, Type 0, BuildingBlock: TATPOV_clean_sbu_0, # of connection points: 4
#     Node 33, Type 0, BuildingBlock: TATPOV_clean_sbu_0, # of connection points: 4
#     Node 34, Type 0, BuildingBlock: TATPOV_clean_sbu_0, # of connection points: 4
#     Node 35, Type 0, BuildingBlock: TATPOV_clean_sbu_0, # of connection points: 4
#     Node 36, Type 0, BuildingBlock: TATPOV_clean_sbu_0, # of connection points: 4
#     Node 37, Type 0, BuildingBlock: TATPOV_clean_sbu_0, # of connection points: 4
#     Node 38, Type 0, BuildingBlock: TATPOV_clean_sbu_0, # of connection points: 4
#     Node 39, Type 0, BuildingBlock: TATPOV_clean_sbu_0, # of connection points: 4
#     Node 40, Type 0, BuildingBlock: TATPOV_clean_sbu_0, # of connection points: 4
#     Node 41, Type 0, BuildingBlock: TATPOV_clean_sbu_0, # of connection points: 4
#     Node 42, Type 0, BuildingBlock: TATPOV_clean_sbu_0, # of connection points: 4
#     Node 43, Type 0, BuildingBlock: TATPOV_clean_sbu_0, # of connection points: 4
#     Node 44, Type 0, BuildingBlock: TATPOV_clean_sbu_0, # of connection points: 4
#     Node 45, Type 0, BuildingBlock: TATPOV_clean_sbu_0, # of connection points: 4
#     Node 46, Type 0, BuildingBlock: TATPOV_clean_sbu_0, # of connection points: 4
#     Node 47, Type 0, BuildingBlock: TATPOV_clean_sbu_0, # of connection points: 4
#     Edge 48, Type (0, 0), BuildingBlock: AJUNOK_clean_linker_0, # of connection points: 2
#     Edge 49, Type (0, 0), BuildingBlock: AJUNOK_clean_linker_0, # of connection points: 2
#     Edge 50, Type (0, 0), BuildingBlock: AJUNOK_clean_linker_0, # of connection points: 2
#     Edge 51, Type (0, 0), BuildingBlock: AJUNOK_clean_linker_0, # of connection points: 2
#     Edge 52, Type (0, 0), BuildingBlock: AJUNOK_clean_linker_0, # of connection points: 2
#     Edge 53, Type (0, 0), BuildingBlock: AJUNOK_clean_linker_0, # of connection points: 2
#     Edge 54, Type (0, 0), BuildingBlock: AJUNOK_clean_linker_0, # of connection points: 2
#     Edge 55, Type (0, 0), BuildingBlock: AJUNOK_clean_linker_0, # of connection points: 2
#     Edge 56, Type (0, 0), BuildingBlock: AJUNOK_clean_linker_0, # of connection points: 2
#     Edge 57, Type (0, 0), BuildingBlock: AJUNOK_clean_linker_0, # of connection points: 2
#     Edge 58, Type (0, 0), BuildingBlock: AJUNOK_clean_linker_0, # of connection points: 2
#     Edge 59, Type (0, 0), BuildingBlock: AJUNOK_clean_linker_0, # of connection points: 2
#     Edge 60, Type (0, 0), BuildingBlock: AJUNOK_clean_linker_0, # of connection points: 2
#     Edge 61, Type (0, 0), BuildingBlock: AJUNOK_clean_linker_0, # of connection points: 2
#     Edge 62, Type (0, 0), BuildingBlock: AJUNOK_clean_linker_0, # of connection points: 2
#     Edge 63, Type (0, 0), BuildingBlock: AJUNOK_clean_linker_0, # of connection points: 2
#     Edge 64, Type (0, 0), BuildingBlock: AJUNOK_clean_linker_0, # of connection points: 2
#     Edge 65, Type (0, 0), BuildingBlock: AJUNOK_clean_linker_0, # of connection points: 2
#     Edge 66, Type (0, 0), BuildingBlock: AJUNOK_clean_linker_0, # of connection points: 2
#     Edge 67, Type (0, 0), BuildingBlock: AJUNOK_clean_linker_0, # of connection points: 2
#     Edge 68, Type (0, 0), BuildingBlock: AJUNOK_clean_linker_0, # of connection points: 2
#     Edge 69, Type (0, 0), BuildingBlock: AJUNOK_clean_linker_0, # of connection points: 2
#     Edge 70, Type (0, 0), BuildingBlock: AJUNOK_clean_linker_0, # of connection points: 2
#     Edge 71, Type (0, 0), BuildingBlock: AJUNOK_clean_linker_0, # of connection points: 2
#     Edge 72, Type (0, 0), BuildingBlock: AJUNOK_clean_linker_0, # of connection points: 2
#     Edge 73, Type (0, 0), BuildingBlock: AJUNOK_clean_linker_0, # of connection points: 2
#     Edge 74, Type (0, 0), BuildingBlock: AJUNOK_clean_linker_0, # of connection points: 2
#     Edge 75, Type (0, 0), BuildingBlock: AJUNOK_clean_linker_0, # of connection points: 2
#     Edge 76, Type (0, 0), BuildingBlock: AJUNOK_clean_linker_0, # of connection points: 2
#     Edge 77, Type (0, 0), BuildingBlock: AJUNOK_clean_linker_0, # of connection points: 2
#     Edge 78, Type (0, 0), BuildingBlock: AJUNOK_clean_linker_0, # of connection points: 2
#     Edge 79, Type (0, 0), BuildingBlock: AJUNOK_clean_linker_0, # of connection points: 2
#     Edge 80, Type (0, 0), BuildingBlock: AJUNOK_clean_linker_0, # of connection points: 2
#     Edge 81, Type (0, 0), BuildingBlock: AJUNOK_clean_linker_0, # of connection points: 2
#     Edge 82, Type (0, 0), BuildingBlock: AJUNOK_clean_linker_0, # of connection points: 2
#     Edge 83, Type (0, 0), BuildingBlock: AJUNOK_clean_linker_0, # of connection points: 2
#     Edge 84, Type (0, 0), BuildingBlock: AJUNOK_clean_linker_0, # of connection points: 2
#     Edge 85, Type (0, 0), BuildingBlock: AJUNOK_clean_linker_0, # of connection points: 2
#     Edge 86, Type (0, 0), BuildingBlock: AJUNOK_clean_linker_0, # of connection points: 2
#     Edge 87, Type (0, 0), BuildingBlock: AJUNOK_clean_linker_0, # of connection points: 2
#     Edge 88, Type (0, 0), BuildingBlock: AJUNOK_clean_linker_0, # of connection points: 2
#     Edge 89, Type (0, 0), BuildingBlock: AJUNOK_clean_linker_0, # of connection points: 2
#     Edge 90, Type (0, 0), BuildingBlock: AJUNOK_clean_linker_0, # of connection points: 2
#     Edge 91, Type (0, 0), BuildingBlock: AJUNOK_clean_linker_0, # of connection points: 2
#     Edge 92, Type (0, 0), BuildingBlock: AJUNOK_clean_linker_0, # of connection points: 2
#     Edge 93, Type (0, 0), BuildingBlock: AJUNOK_clean_linker_0, # of connection points: 2
#     Edge 94, Type (0, 0), BuildingBlock: AJUNOK_clean_linker_0, # of connection points: 2
#     Edge 95, Type (0, 0), BuildingBlock: AJUNOK_clean_linker_0, # of connection points: 2
#     Edge 96, Type (0, 0), BuildingBlock: AJUNOK_clean_linker_0, # of connection points: 2
#     Edge 97, Type (0, 0), BuildingBlock: AJUNOK_clean_linker_0, # of connection points: 2
#     Edge 98, Type (0, 0), BuildingBlock: AJUNOK_clean_linker_0, # of connection points: 2
#     Edge 99, Type (0, 0), BuildingBlock: AJUNOK_clean_linker_0, # of connection points: 2
#     Edge 100, Type (0, 0), BuildingBlock: AJUNOK_clean_linker_0, # of connection points: 2
#     Edge 101, Type (0, 0), BuildingBlock: AJUNOK_clean_linker_0, # of connection points: 2
#     Edge 102, Type (0, 0), BuildingBlock: AJUNOK_clean_linker_0, # of connection points: 2
#     Edge 103, Type (0, 0), BuildingBlock: AJUNOK_clean_linker_0, # of connection points: 2
#     Edge 104, Type (0, 0), BuildingBlock: AJUNOK_clean_linker_0, # of connection points: 2
#     Edge 105, Type (0, 0), BuildingBlock: AJUNOK_clean_linker_0, # of connection points: 2
#     Edge 106, Type (0, 0), BuildingBlock: AJUNOK_clean_linker_0, # of connection points: 2
#     Edge 107, Type (0, 0), BuildingBlock: AJUNOK_clean_linker_0, # of connection points: 2
#     Edge 108, Type (0, 0), BuildingBlock: AJUNOK_clean_linker_0, # of connection points: 2
#     Edge 109, Type (0, 0), BuildingBlock: AJUNOK_clean_linker_0, # of connection points: 2
#     Edge 110, Type (0, 0), BuildingBlock: AJUNOK_clean_linker_0, # of connection points: 2
#     Edge 111, Type (0, 0), BuildingBlock: AJUNOK_clean_linker_0, # of connection points: 2
#     Edge 112, Type (0, 0), BuildingBlock: AJUNOK_clean_linker_0, # of connection points: 2
#     Edge 113, Type (0, 0), BuildingBlock: AJUNOK_clean_linker_0, # of connection points: 2
#     Edge 114, Type (0, 0), BuildingBlock: AJUNOK_clean_linker_0, # of connection points: 2
#     Edge 115, Type (0, 0), BuildingBlock: AJUNOK_clean_linker_0, # of connection points: 2
#     Edge 116, Type (0, 0), BuildingBlock: AJUNOK_clean_linker_0, # of connection points: 2
#     Edge 117, Type (0, 0), BuildingBlock: AJUNOK_clean_linker_0, # of connection points: 2
#     Edge 118, Type (0, 0), BuildingBlock: AJUNOK_clean_linker_0, # of connection points: 2
#     Edge 119, Type (0, 0), BuildingBlock: AJUNOK_clean_linker_0, # of connection points: 2
#     Edge 120, Type (0, 0), BuildingBlock: AJUNOK_clean_linker_0, # of connection points: 2
#     Edge 121, Type (0, 0), BuildingBlock: AJUNOK_clean_linker_0, # of connection points: 2
#     Edge 122, Type (0, 0), BuildingBlock: AJUNOK_clean_linker_0, # of connection points: 2
#     Edge 123, Type (0, 0), BuildingBlock: AJUNOK_clean_linker_0, # of connection points: 2
#     Edge 124, Type (0, 0), BuildingBlock: AJUNOK_clean_linker_0, # of connection points: 2
#     Edge 125, Type (0, 0), BuildingBlock: AJUNOK_clean_linker_0, # of connection points: 2
#     Edge 126, Type (0, 0), BuildingBlock: AJUNOK_clean_linker_0, # of connection points: 2
#     Edge 127, Type (0, 0), BuildingBlock: AJUNOK_clean_linker_0, # of connection points: 2
#     Edge 128, Type (0, 0), BuildingBlock: AJUNOK_clean_linker_0, # of connection points: 2
#     Edge 129, Type (0, 0), BuildingBlock: AJUNOK_clean_linker_0, # of connection points: 2
#     Edge 130, Type (0, 0), BuildingBlock: AJUNOK_clean_linker_0, # of connection points: 2
#     Edge 131, Type (0, 0), BuildingBlock: AJUNOK_clean_linker_0, # of connection points: 2
#     Edge 132, Type (0, 0), BuildingBlock: AJUNOK_clean_linker_0, # of connection points: 2
#     Edge 133, Type (0, 0), BuildingBlock: AJUNOK_clean_linker_0, # of connection points: 2
#     Edge 134, Type (0, 0), BuildingBlock: AJUNOK_clean_linker_0, # of connection points: 2
#     Edge 135, Type (0, 0), BuildingBlock: AJUNOK_clean_linker_0, # of connection points: 2
#     Edge 136, Type (0, 0), BuildingBlock: AJUNOK_clean_linker_0, # of connection points: 2
#     Edge 137, Type (0, 0), BuildingBlock: AJUNOK_clean_linker_0, # of connection points: 2
#     Edge 138, Type (0, 0), BuildingBlock: AJUNOK_clean_linker_0, # of connection points: 2
#     Edge 139, Type (0, 0), BuildingBlock: AJUNOK_clean_linker_0, # of connection points: 2
#     Edge 140, Type (0, 0), BuildingBlock: AJUNOK_clean_linker_0, # of connection points: 2
#     Edge 141, Type (0, 0), BuildingBlock: AJUNOK_clean_linker_0, # of connection points: 2
#     Edge 142, Type (0, 0), BuildingBlock: AJUNOK_clean_linker_0, # of connection points: 2
#     Edge 143, Type (0, 0), BuildingBlock: AJUNOK_clean_linker_0, # of connection points: 2
# Relax obj value: 0.383
# Max RMSD: 0.227
# Mean RMSD: 0.177
data_MOF--net-nfb--node1-TATPOV_clean_sbu_0--edge1-AJUNOK_clean_linker_0
_symmetry_space_group_name_H-M    P1
_symmetry_Int_Tables_number       1
_symmetry_cell_setting            triclinic
loop_
_symmetry_equiv_pos_as_xyz
'x, y, z'
_cell_length_a     42.578465
_cell_length_b     41.892779
_cell_length_c     41.893252
_cell_angle_alpha  89.993375
_cell_angle_beta   89.911931
_cell_angle_gamma 89.407711
loop_
_atom_site_label
_atom_site_type_symbol
_atom_site_fract_x
_atom_site_fract_y
_atom_site_fract_z
_atom_type_partial_charge
Zn0 Zn 0.14311 0.17124 0.32944 0.0
Zn1 Zn 0.13963 0.16377 0.39199 0.0
O2 O 0.10146 0.13961 0.37506 0.0
O3 O 0.10453 0.14107 0.32295 0.0
O4 O 0.1355 0.15507 0.43789 0.0
O5 O 0.19128 0.16036 0.33388 0.0
O6 O 0.18519 0.15056 0.38493 0.0
C7 C 0.08992 0.13263 0.34799 0.0
C8 C 0.13215 0.23006 0.36481 0.0
O9 O 0.13533 0.21199 0.389 0.0
O10 O 0.13253 0.21848 0.33683 0.0
C11 C 0.11059 0.16254 0.45279 0.0
O12 O 0.08742 0.17674 0.43752 0.0
C13 C 0.20309 0.15294 0.3608 0.0
Zn14 Zn 0.43414 0.57375 0.84982 0.0
Zn15 Zn 0.38201 0.56042 0.88399 0.0
O16 O 0.37502 0.60825 0.87671 0.0
O17 O 0.4151 0.62061 0.84633 0.0
O18 O 0.34387 0.54822 0.90764 0.0
O19 O 0.42384 0.5318 0.82337 0.0
O20 O 0.37934 0.52778 0.84919 0.0
C21 C 0.39072 0.62928 0.86193 0.0
C22 C 0.44632 0.55756 0.91544 0.0
O23 O 0.41689 0.55284 0.91502 0.0
O24 O 0.46026 0.56767 0.89072 0.0
C25 C 0.34015 0.52965 0.93128 0.0
O26 O 0.36443 0.51731 0.9463 0.0
C27 C 0.39821 0.51721 0.82825 0.0
Zn28 Zn 0.86309 0.81416 0.31375 0.0
Zn29 Zn 0.86791 0.83439 0.37323 0.0
O30 O 0.90439 0.85466 0.34882 0.0
O31 O 0.89944 0.84317 0.29815 0.0
O32 O 0.87284 0.8551 0.41521 0.0
O33 O 0.81449 0.82228 0.31609 0.0
O34 O 0.82073 0.83971 0.36497 0.0
C35 C 0.915 0.85603 0.32047 0.0
C36 C 0.88302 0.76627 0.36106 0.0
O37 O 0.87825 0.78805 0.38162 0.0
O38 O 0.87904 0.7716 0.33153 0.0
C39 C 0.89884 0.85183 0.4296 0.0
O40 O 0.92123 0.83422 0.41677 0.0
C41 C 0.80257 0.83244 0.34207 0.0
Zn42 Zn 0.55964 0.43135 0.8909 0.0
Zn43 Zn 0.61351 0.4424 0.9235 0.0
O44 O 0.61977 0.39586 0.9098 0.0
O45 O 0.57693 0.3846 0.88323 0.0
O46 O 0.65276 0.44826 0.94786 0.0
O47 O 0.5709 0.47396 0.86589 0.0
O48 O 0.61554 0.47825 0.89157 0.0
C49 C 0.60308 0.37568 0.8951 0.0
C50 C 0.55022 0.44365 0.95789 0.0
O51 O 0.57972 0.44774 0.95659 0.0
O52 O 0.53507 0.43544 0.93324 0.0
C53 C 0.65831 0.42699 0.96866 0.0
O54 O 0.63551 0.4078 0.97703 0.0
C55 C 0.59624 0.48901 0.87109 0.0
Zn56 Zn 0.12529 0.9414 0.62336 0.0
Zn57 Zn 0.11753 0.88092 0.60473 0.0
O58 O 0.16434 0.88594 0.61501 0.0
O59 O 0.17165 0.93205 0.63807 0.0
O60 O 0.11816 0.83413 0.59709 0.0
O61 O 0.08323 0.93693 0.64949 0.0
O62 O 0.08072 0.88655 0.63566 0.0
C63 C 0.18286 0.90582 0.62764 0.0
C64 C 0.11162 0.9314 0.55523 0.0
O65 O 0.10786 0.90246 0.56337 0.0
O66 O 0.12052 0.95211 0.57534 0.0
C67 C 0.14137 0.82371 0.58098 0.0
O68 O 0.15628 0.84376 0.56237 0.0
C69 C 0.06872 0.91052 0.64999 0.0
Zn70 Zn 0.61738 0.65066 0.15993 0.0
Zn71 Zn 0.67733 0.63608 0.14895 0.0
O72 O 0.68104 0.68357 0.1617 0.0
O73 O 0.63205 0.69638 0.17247 0.0
O74 O 0.72158 0.62127 0.14423 0.0
O75 O 0.61091 0.60914 0.18662 0.0
O76 O 0.65982 0.59838 0.17442 0.0
C77 C 0.66048 0.70475 0.16871 0.0
C78 C 0.63277 0.63917 0.09347 0.0
O79 O 0.66021 0.63458 0.10457 0.0
O80 O 0.61015 0.64592 0.11208 0.0
C81 C 0.73905 0.62809 0.12071 0.0
O82 O 0.7284 0.64733 0.09835 0.0
C83 C 0.63391 0.5896 0.18659 0.0
Zn84 Zn 0.89316 0.10119 0.6588 0.0
Zn85 Zn 0.90778 0.15092 0.6221 0.0
O86 O 0.86017 0.15683 0.63029 0.0
O87 O 0.84776 0.12117 0.66624 0.0
O88 O 0.91643 0.19025 0.59763 0.0
O89 O 0.93577 0.10996 0.68351 0.0
O90 O 0.94206 0.15373 0.65572 0.0
C91 C 0.83942 0.14387 0.64778 0.0
C92 C 0.90943 0.08563 0.59298 0.0
O93 O 0.916 0.1151 0.59183 0.0
O94 O 0.89723 0.07364 0.61785 0.0
C95 C 0.90008 0.19788 0.57348 0.0
O96 O 0.8827 0.17588 0.56011 0.0
C97 C 0.952 0.13446 0.67692 0.0
Zn98 Zn 0.40894 0.37702 0.12772 0.0
Zn99 Zn 0.34967 0.39282 0.11961 0.0
O100 O 0.34681 0.34471 0.1325 0.0
O101 O 0.39609 0.33207 0.14232 0.0
O102 O 0.30505 0.40854 0.11873 0.0
O103 O 0.41953 0.41761 0.15334 0.0
O104 O 0.37065 0.43054 0.14316 0.0
C105 C 0.36767 0.32365 0.13908 0.0
C106 C 0.39022 0.38597 0.06173 0.0
O107 O 0.36351 0.39264 0.07376 0.0
O108 O 0.41344 0.37939 0.07954 0.0
C109 C 0.29774 0.43368 0.10326 0.0
O110 O 0.31943 0.44828 0.08656 0.0
C111 C 0.39746 0.43817 0.15409 0.0
Zn112 Zn 0.32399 0.12325 0.13782 0.0
Zn113 Zn 0.38224 0.12415 0.1145 0.0
O114 O 0.36439 0.08455 0.09225 0.0
O115 O 0.31526 0.08389 0.10799 0.0
O116 O 0.42518 0.12885 0.09726 0.0
O117 O 0.31975 0.1729 0.12986 0.0
O118 O 0.36721 0.17035 0.10989 0.0
C119 C 0.3378 0.07087 0.0926 0.0
C120 C 0.37328 0.11146 0.18468 0.0
O121 O 0.39123 0.1157 0.16088 0.0
O122 O 0.34368 0.11228 0.18115 0.0
C123 C 0.44696 0.10946 0.10471 0.0
O124 O 0.43987 0.08286 0.11957 0.0
C125 C 0.34355 0.18704 0.11845 0.0
Zn126 Zn 0.37625 0.89719 0.57126 0.0
Zn127 Zn 0.38525 0.90851 0.63338 0.0
O128 O 0.33855 0.89922 0.62899 0.0
O129 O 0.32937 0.88376 0.58016 0.0
O130 O 0.38587 0.91097 0.68059 0.0
O131 O 0.41784 0.86934 0.57211 0.0
O132 O 0.42175 0.87792 0.62354 0.0
C133 C 0.31914 0.89022 0.60798 0.0
C134 C 0.39237 0.96315 0.58817 0.0
O135 O 0.39496 0.95188 0.61626 0.0
O136 O 0.38348 0.94558 0.56525 0.0
C137 C 0.40885 0.90435 0.6987 0.0
O138 O 0.43695 0.9004 0.68629 0.0
C139 C 0.43303 0.86594 0.59805 0.0
Zn140 Zn 0.70192 0.90487 0.16007 0.0
Zn141 Zn 0.64911 0.90352 0.12726 0.0
O142 O 0.67205 0.94276 0.10877 0.0
O143 O 0.71766 0.94329 0.13294 0.0
O144 O 0.61144 0.89754 0.10015 0.0
O145 O 0.70973 0.8555 0.15544 0.0
O146 O 0.66382 0.85683 0.13204 0.0
C147 C 0.69826 0.95633 0.1138 0.0
C148 C 0.64367 0.91899 0.19602 0.0
O149 O 0.63001 0.91502 0.16944 0.0
O150 O 0.67336 0.91652 0.19795 0.0
C151 C 0.58943 0.91811 0.09997 0.0
O152 O 0.59399 0.94573 0.11401 0.0
C153 C 0.68638 0.84069 0.14406 0.0
Zn154 Zn 0.64555 0.15634 0.5873 0.0
Zn155 Zn 0.63778 0.14394 0.64903 0.0
O156 O 0.68463 0.15572 0.64765 0.0
O157 O 0.69258 0.16866 0.59774 0.0
O158 O 0.63175 0.13807 0.69534 0.0
O159 O 0.60363 0.18382 0.58847 0.0
O160 O 0.60005 0.17291 0.63942 0.0
C161 C 0.70348 0.16398 0.62567 0.0
C162 C 0.63184 0.09001 0.60195 0.0
O163 O 0.63087 0.10066 0.63035 0.0
O164 O 0.63827 0.10855 0.57894 0.0
C165 C 0.65192 0.12317 0.712 0.0
O166 O 0.67585 0.10911 0.69778 0.0
C167 C 0.58826 0.1855 0.6145 0.0
Zn168 Zn 0.33396 0.82639 0.87057 0.0
Zn169 Zn 0.39283 0.83447 0.8899 0.0
O170 O 0.36562 0.86873 0.91289 0.0
O171 O 0.31649 0.86272 0.89927 0.0
O172 O 0.43552 0.8456 0.90675 0.0
O173 O 0.3384 0.77766 0.87955 0.0
O174 O 0.38831 0.78492 0.89072 0.0
C175 C 0.3373 0.87881 0.91352 0.0
C176 C 0.37732 0.85081 0.82221 0.0
O177 O 0.39741 0.84815 0.84435 0.0
O178 O 0.34908 0.84266 0.8271 0.0
C179 C 0.44141 0.8749 0.90159 0.0
O180 O 0.4198 0.89282 0.88793 0.0
C181 C 0.36548 0.76606 0.88553 0.0
Zn182 Zn 0.60273 0.81348 0.34319 0.0
Zn183 Zn 0.60755 0.86207 0.38196 0.0
O184 O 0.56591 0.83993 0.39467 0.0
O185 O 0.56467 0.79534 0.36743 0.0
O186 O 0.61092 0.89899 0.41162 0.0
O187 O 0.65033 0.80384 0.34809 0.0
O188 O 0.6526 0.84341 0.38224 0.0
C189 C 0.55169 0.81437 0.38713 0.0
C190 C 0.59675 0.87491 0.31229 0.0
O191 O 0.60296 0.8852 0.34002 0.0
O192 O 0.59319 0.84526 0.30765 0.0
C193 C 0.58889 0.91957 0.41038 0.0
O194 O 0.56352 0.91262 0.39411 0.0
C195 C 0.66657 0.82208 0.36562 0.0
Zn196 Zn 0.67488 0.18179 0.90499 0.0
Zn197 Zn 0.61351 0.17044 0.90579 0.0
O198 O 0.63543 0.1359 0.93277 0.0
O199 O 0.6858 0.14491 0.93627 0.0
O200 O 0.5685 0.15942 0.91385 0.0
O201 O 0.6656 0.2302 0.91248 0.0
O202 O 0.6153 0.2196 0.91064 0.0
C203 C 0.66257 0.12704 0.94204 0.0
C204 C 0.6478 0.15732 0.84535 0.0
O205 O 0.6216 0.15862 0.85996 0.0
O206 O 0.67278 0.16614 0.85907 0.0
C207 C 0.5616 0.13004 0.91172 0.0
O208 O 0.58348 0.10965 0.90263 0.0
C209 C 0.63725 0.24004 0.91178 0.0
Zn210 Zn 0.40273 0.17652 0.36428 0.0
Zn211 Zn 0.39725 0.11791 0.38536 0.0
O212 O 0.43884 0.13394 0.40526 0.0
O213 O 0.44071 0.18494 0.39395 0.0
O214 O 0.392 0.07436 0.40314 0.0
O215 O 0.35471 0.18322 0.37151 0.0
O216 O 0.35296 0.1357 0.39329 0.0
C217 C 0.4532 0.16047 0.40682 0.0
C218 C 0.40819 0.12845 0.31513 0.0
O219 O 0.40112 0.10969 0.33783 0.0
O220 O 0.4126 0.15784 0.32053 0.0
C221 C 0.41302 0.05288 0.40079 0.0
O222 O 0.44026 0.06016 0.38808 0.0
C223 C 0.33881 0.16076 0.38364 0.0
Zn224 Zn 0.04332 0.47724 0.11984 0.0
Zn225 Zn 0.10524 0.47995 0.10588 0.0
O226 O 0.10349 0.46232 0.15168 0.0
O227 O 0.0537 0.45362 0.16136 0.0
O228 O 0.15152 0.47765 0.09594 0.0
O229 O 0.03451 0.45647 0.07618 0.0
O230 O 0.08545 0.45654 0.06782 0.0
C231 C 0.08201 0.45335 0.1707 0.0
C232 C 0.07024 0.54122 0.11823 0.0
O233 O 0.09481 0.52701 0.108 0.0
O234 O 0.0459 0.52557 0.12528 0.0
C235 C 0.17117 0.48357 0.11788 0.0
O236 O 0.16098 0.49277 0.14604 0.0
C237 C 0.05785 0.4497 0.05849 0.0
Zn238 Zn 0.17477 0.70891 0.93087 0.0
Zn239 Zn 0.21569 0.65833 0.93968 0.0
O240 O 0.22887 0.67058 0.89404 0.0
O241 O 0.19674 0.71127 0.88604 0.0
O242 O 0.23959 0.6183 0.94931 0.0
O243 O 0.19115 0.72418 0.97571 0.0
O244 O 0.22591 0.68526 0.97847 0.0
C245 C 0.2175 0.69182 0.87551 0.0
C246 C 0.14348 0.65055 0.93723 0.0
O247 O 0.17195 0.64219 0.9406 0.0
O248 O 0.13646 0.67941 0.93135 0.0
C249 C 0.22975 0.59016 0.94431 0.0
O250 O 0.20282 0.58588 0.92978 0.0
C251 C 0.21277 0.7096 0.99097 0.0
Zn252 Zn 0.90244 0.56926 0.37719 0.0
Zn253 Zn 0.96355 0.58115 0.38698 0.0
O254 O 0.94855 0.55553 0.42566 0.0
O255 O 0.89983 0.54118 0.41774 0.0
O256 O 1.01022 0.58295 0.39202 0.0
O257 O 0.9116 0.55605 0.33025 0.0
O258 O 0.96042 0.56833 0.34041 0.0
C259 C 0.92391 0.54168 0.43553 0.0
C260 C 0.91946 0.6367 0.38757 0.0
O261 O 0.94766 0.62654 0.38954 0.0
O262 O 0.89697 0.61743 0.38368 0.0
C263 C 0.0266 0.56406 0.40912 0.0
O264 O 0.01292 0.54211 0.42647 0.0
C265 C 0.93945 0.56056 0.32045 0.0
Zn266 Zn 0.87514 0.32171 0.88499 0.0
Zn267 Zn 0.82056 0.35067 0.89801 0.0
O268 O 0.8126 0.34127 0.85002 0.0
O269 O 0.85755 0.31792 0.83806 0.0
O270 O 0.78119 0.3703 0.9142 0.0
O271 O 0.87004 0.29256 0.92562 0.0
O272 O 0.82562 0.31786 0.93372 0.0
C273 C 0.83119 0.3295 0.8291 0.0
C274 C 0.88108 0.38823 0.9012 0.0
O275 O 0.85138 0.38637 0.90288 0.0
O276 O 0.89739 0.3638 0.8939 0.0
C277 C 0.78183 0.38435 0.94111 0.0
O278 O 0.80845 0.38757 0.95647 0.0
C279 C 0.84622 0.2979 0.94321 0.0
Zn280 Zn 0.14305 0.43321 0.36614 0.0
Zn281 Zn 0.07986 0.42597 0.37186 0.0
O282 O 0.09097 0.45331 0.41017 0.0
O283 O 0.14145 0.46258 0.40645 0.0
O284 O 0.03354 0.42169 0.37398 0.0
O285 O 0.13554 0.44687 0.31864 0.0
O286 O 0.08502 0.44121 0.32677 0.0
C287 C 0.11564 0.46588 0.42143 0.0
C288 C 0.12195 0.3675 0.37536 0.0
O289 O 0.09482 0.38036 0.37487 0.0
O290 O 0.1464 0.38451 0.37344 0.0
C291 C 0.0139 0.43909 0.38896 0.0
O292 O 0.02367 0.46296 0.40653 0.0
C293 C 0.10763 0.44679 0.30791 0.0
Zn294 Zn 0.99204 0.5588 0.12435 0.0
Zn295 Zn 0.93145 0.57245 0.11649 0.0
O296 O 0.93871 0.57668 0.1646 0.0
O297 O 0.98969 0.57261 0.17166 0.0
O298 O 0.88741 0.58779 0.11111 0.0
O299 O 1.00325 0.58653 0.08503 0.0
O300 O 0.95307 0.59782 0.08159 0.0
C301 C 0.96227 0.576 0.18324 0.0
C302 C 0.95199 0.50456 0.10837 0.0
O303 O 0.93067 0.52585 0.10572 0.0
O304 O 0.97961 0.51215 0.11649 0.0
C305 C 0.86416 0.57192 0.12097 0.0
O306 O 0.86918 0.5445 0.13542 0.0
C307 C 0.98073 0.60029 0.07053 0.0
Zn308 Zn 0.78153 0.34039 0.62944 0.0
Zn309 Zn 0.82975 0.37876 0.62664 0.0
O310 O 0.79811 0.39121 0.59084 0.0
O311 O 0.75443 0.36481 0.59668 0.0
O312 O 0.86317 0.41209 0.62299 0.0
O313 O 0.78078 0.34114 0.67939 0.0
O314 O 0.82273 0.37092 0.67564 0.0
C315 C 0.77085 0.38416 0.58059 0.0
C316 C 0.8401 0.31443 0.60094 0.0
O317 O 0.85243 0.34049 0.60943 0.0
O318 O 0.81138 0.30896 0.60671 0.0
C319 C 0.87325 0.41792 0.59499 0.0
O320 O 0.85983 0.40376 0.57066 0.0
C321 C 0.80357 0.35509 0.69288 0.0
Zn322 Zn 0.2606 0.68747 0.67438 0.0
Zn323 Zn 0.20665 0.65569 0.67358 0.0
O324 O 0.23361 0.63362 0.63885 0.0
O325 O 0.27926 0.65735 0.64028 0.0
O326 O 0.16632 0.63168 0.67439 0.0
O327 O 0.26331 0.68443 0.72404 0.0
O328 O 0.21709 0.66183 0.72142 0.0
C329 C 0.26078 0.63793 0.62683 0.0
C330 C 0.20686 0.72168 0.64651 0.0
O331 O 0.19193 0.69678 0.65417 0.0
O332 O 0.23578 0.72419 0.65329 0.0
C333 C 0.15417 0.62177 0.64859 0.0
O334 O 0.16989 0.62469 0.62177 0.0
C335 C 0.23921 0.67357 0.73804 0.0
Zn336 Zn 0.87826 0.91562 0.62116 0.0
Zn337 Zn 0.88467 0.85224 0.62711 0.0
O338 O 0.92319 0.87021 0.6514 0.0
O339 O 0.91681 0.92224 0.6502 0.0
O340 O 0.8888 0.80449 0.63097 0.0
O341 O 0.83118 0.91168 0.63189 0.0
O342 O 0.83713 0.85976 0.637 0.0
C343 C 0.93354 0.89806 0.65751 0.0
C344 C 0.89335 0.88359 0.5625 0.0
O345 O 0.89234 0.859 0.58021 0.0
O346 O 0.88824 0.91112 0.57401 0.0
C347 C 0.91114 0.78936 0.6174 0.0
O348 O 0.93309 0.80554 0.60264 0.0
C349 C 0.81926 0.88436 0.63621 0.0
Zn350 Zn 0.58004 0.39792 0.14593 0.0
Zn351 Zn 0.6289 0.41566 0.10957 0.0
O352 O 0.63308 0.44698 0.14606 0.0
O353 O 0.5909 0.43813 0.17468 0.0
O354 O 0.66459 0.4289 0.08286 0.0
O355 O 0.60114 0.35177 0.14625 0.0
O356 O 0.63902 0.36787 0.1149 0.0
C357 C 0.61506 0.45486 0.16898 0.0
C358 C 0.56195 0.42099 0.08403 0.0
O359 O 0.59137 0.42544 0.08224 0.0
O360 O 0.55003 0.40759 0.10827 0.0
C361 C 0.67178 0.41386 0.05761 0.0
O362 O 0.65262 0.39188 0.04699 0.0
C363 C 0.62559 0.34536 0.12977 0.0
Zn364 Zn 0.14336 0.12835 0.65039 0.0
Zn365 Zn 0.13472 0.19129 0.64832 0.0
O366 O 0.09722 0.17605 0.67579 0.0
O367 O 0.10389 0.12418 0.67938 0.0
O368 O 0.13054 0.23882 0.64749 0.0
O369 O 0.19063 0.13416 0.6617 0.0
O370 O 0.18273 0.18554 0.65579 0.0
C371 C 0.08697 0.14885 0.68445 0.0
C372 C 0.12464 0.15328 0.58864 0.0
O373 O 0.12449 0.17977 0.60331 0.0
O374 O 0.133 0.1278 0.60276 0.0
C375 C 0.10712 0.25262 0.63456 0.0
O376 O 0.08388 0.23524 0.62387 0.0
C377 C 0.20172 0.16216 0.65973 0.0
Zn378 Zn 0.44745 0.62417 0.10152 0.0
Zn379 Zn 0.38916 0.60913 0.08012 0.0
O380 O 0.39225 0.5819 0.12017 0.0
O381 O 0.44124 0.58721 0.13494 0.0
O382 O 0.34619 0.59657 0.066 0.0
O383 O 0.4312 0.67184 0.10178 0.0
O384 O 0.38554 0.65833 0.08187 0.0
C385 C 0.4152 0.5728 0.13731 0.0
C386 C 0.44824 0.59335 0.04081 0.0
O387 O 0.41885 0.59211 0.04633 0.0
O388 O 0.46642 0.60801 0.05957 0.0
C389 C 0.33649 0.56817 0.06973 0.0
O390 O 0.35674 0.54553 0.07723 0.0
C391 C 0.40451 0.67995 0.09055 0.0
Zn392 Zn 0.89811 0.13872 0.35521 0.0
Zn393 Zn 0.90293 0.11519 0.41031 0.0
O394 O 0.85677 0.10312 0.4 0.0
O395 O 0.85119 0.12716 0.3538 0.0
O396 O 0.91237 0.0928 0.45126 0.0
O397 O 0.93703 0.11832 0.33437 0.0
O398 O 0.94478 0.10767 0.38484 0.0
C399 C 0.83896 0.11337 0.37772 0.0
C400 C 0.90118 0.18584 0.40502 0.0
O401 O 0.89898 0.16164 0.42315 0.0
O402 O 0.90444 0.18222 0.37517 0.0
C403 C 0.89999 0.06774 0.46256 0.0
O404 O 0.87739 0.05357 0.44686 0.0
C405 C 0.95551 0.10939 0.3564 0.0
Zn406 Zn 0.39593 0.32959 0.866 0.0
Zn407 Zn 0.33503 0.34295 0.87587 0.0
O408 O 0.35225 0.37592 0.84345 0.0
O409 O 0.40125 0.36436 0.83195 0.0
O410 O 0.28981 0.35869 0.88051 0.0
O411 O 0.38438 0.28257 0.86043 0.0
O412 O 0.33479 0.29266 0.87147 0.0
C413 C 0.37772 0.38292 0.8291 0.0
C414 C 0.38177 0.3535 0.92897 0.0
O415 O 0.35378 0.35393 0.9185 0.0
O416 O 0.40428 0.34384 0.91155 0.0
C417 C 0.28637 0.38629 0.89299 0.0
O418 O 0.31144 0.40205 0.90171 0.0
C419 C 0.35701 0.27242 0.86651 0.0
Zn420 Zn 0.10506 0.8235 0.33328 0.0
Zn421 Zn 0.10337 0.86424 0.37912 0.0
O422 O 0.15 0.86874 0.36493 0.0
O423 O 0.15173 0.83367 0.32612 0.0
O424 O 0.09765 0.89558 0.41435 0.0
O425 O 0.06608 0.84106 0.31012 0.0
O426 O 0.06242 0.87139 0.35249 0.0
C427 C 0.16601 0.85238 0.34488 0.0
C428 C 0.1017 0.79406 0.39514 0.0
O429 O 0.10302 0.82296 0.40414 0.0
O430 O 0.09948 0.78772 0.36563 0.0
C431 C 0.11372 0.91994 0.42142 0.0
O432 O 0.13723 0.92822 0.40296 0.0
C433 C 0.05047 0.86106 0.32658 0.0
Zn434 Zn 0.60604 0.67896 0.89536 0.0
Zn435 Zn 0.66727 0.66772 0.89795 0.0
O436 O 0.64718 0.63115 0.87121 0.0
O437 O 0.59734 0.64274 0.8642 0.0
O438 O 0.71413 0.65755 0.89646 0.0
O439 O 0.61335 0.7261 0.88603 0.0
O440 O 0.664 0.71725 0.89086 0.0
C441 C 0.62017 0.62342 0.86059 0.0
C442 C 0.62855 0.65903 0.95738 0.0
O443 O 0.65515 0.65904 0.94352 0.0
O444 O 0.6039 0.6666 0.94214 0.0
C445 C 0.72459 0.63289 0.91089 0.0
O446 O 0.70459 0.6146 0.92604 0.0
C447 C 0.64102 0.73689 0.8879 0.0
Zn448 Zn 0.68863 0.93548 0.89009 0.0
Zn449 Zn 0.62586 0.94013 0.89714 0.0
O450 O 0.6372 0.89339 0.9051 0.0
O451 O 0.68817 0.88703 0.90276 0.0
O452 O 0.57951 0.93901 0.90315 0.0
O453 O 0.69219 0.97619 0.9191 0.0
O454 O 0.64083 0.97845 0.92344 0.0
C455 C 0.66106 0.87495 0.90567 0.0
C456 C 0.6527 0.9466 0.83118 0.0
O457 O 0.62927 0.94755 0.84995 0.0
O458 O 0.6802 0.94253 0.84226 0.0
C459 C 0.56691 0.92191 0.92456 0.0
O460 O 0.58488 0.90793 0.94598 0.0
C461 C 0.66759 0.99046 0.92923 0.0
Zn462 Zn 0.64823 0.17012 0.3917 0.0
Zn463 Zn 0.63933 0.10915 0.38756 0.0
O464 O 0.68652 0.11144 0.40002 0.0
O465 O 0.69332 0.16262 0.40832 0.0
O466 O 0.628 0.06357 0.39203 0.0
O467 O 0.60635 0.18024 0.41516 0.0
O468 O 0.59999 0.12891 0.40898 0.0
C469 C 0.70484 0.13459 0.40589 0.0
C470 C 0.64323 0.14452 0.32681 0.0
O471 O 0.63824 0.11789 0.34034 0.0
O472 O 0.64729 0.16955 0.34325 0.0
C473 C 0.63114 0.04877 0.41829 0.0
O474 O 0.64554 0.06236 0.44234 0.0
C475 C 0.58905 0.15591 0.41773 0.0
Zn476 Zn 0.31879 0.07325 0.8736 0.0
Zn477 Zn 0.37858 0.06936 0.89201 0.0
O478 O 0.36384 0.11655 0.89433 0.0
O479 O 0.3134 0.12138 0.88577 0.0
O480 O 0.42278 0.07121 0.90814 0.0
O481 O 0.30926 0.03174 0.89922 0.0
O482 O 0.35896 0.02945 0.9128 0.0
C483 C 0.33968 0.13444 0.89101 0.0
C484 C 0.36636 0.06258 0.82294 0.0
O485 O 0.38598 0.06094 0.84564 0.0
O486 O 0.33742 0.06748 0.82879 0.0
C487 C 0.43201 0.09267 0.92726 0.0
O488 O 0.41126 0.11212 0.94024 0.0
C489 C 0.33184 0.0168 0.91257 0.0
Zn490 Zn 0.3605 0.80346 0.3509 0.0
Zn491 Zn 0.36721 0.8646 0.36039 0.0
O492 O 0.31928 0.85923 0.36875 0.0
O493 O 0.31419 0.80724 0.36469 0.0
O494 O 0.37692 0.90952 0.37122 0.0
O495 O 0.40017 0.79076 0.3765 0.0
O496 O 0.40482 0.84237 0.38257 0.0
C497 C 0.3017 0.83476 0.36784 0.0
C498 C 0.37075 0.84083 0.29343 0.0
O499 O 0.3729 0.86408 0.31271 0.0
O500 O 0.36613 0.81281 0.3037 0.0
C501 C 0.37092 0.92284 0.39773 0.0
O502 O 0.35489 0.90759 0.41967 0.0
C503 C 0.4159 0.81429 0.38645 0.0
Zn504 Zn 0.70139 0.15607 0.13152 0.0
Zn505 Zn 0.64181 0.14109 0.12475 0.0
O506 O 0.64463 0.18955 0.1152 0.0
O507 O 0.69435 0.20234 0.11376 0.0
O508 O 0.59812 0.12974 0.11299 0.0
O509 O 0.7161 0.11329 0.10986 0.0
O510 O 0.66599 0.10321 0.10525 0.0
C511 C 0.66563 0.21083 0.11236 0.0
C512 C 0.66517 0.14423 0.19064 0.0
O513 O 0.64264 0.13698 0.17228 0.0
O514 O 0.69136 0.15291 0.17919 0.0
C515 C 0.57573 0.14939 0.11737 0.0
O516 O 0.58161 0.17736 0.13003 0.0
C517 C 0.69443 0.09412 0.1022 0.0
Zn518 Zn 0.39045 0.16702 0.58983 0.0
Zn519 Zn 0.40277 0.14554 0.64905 0.0
O520 O 0.44099 0.17441 0.64342 0.0
O521 O 0.43502 0.18869 0.5933 0.0
O522 O 0.4049 0.12839 0.6931 0.0
O523 O 0.34585 0.18386 0.60546 0.0
O524 O 0.35655 0.1595 0.65043 0.0
C525 C 0.4518 0.18783 0.61846 0.0
C526 C 0.40197 0.09891 0.59391 0.0
O527 O 0.40791 0.10642 0.62259 0.0
O528 O 0.39198 0.11992 0.57447 0.0
C529 C 0.41604 0.10151 0.70169 0.0
O530 O 0.43293 0.0843 0.68175 0.0
C531 C 0.33693 0.174 0.63269 0.0
Zn532 Zn 0.33381 0.86905 0.09546 0.0
Zn533 Zn 0.39408 0.88272 0.09704 0.0
O534 O 0.39197 0.83605 0.08049 0.0
O535 O 0.3422 0.82479 0.07426 0.0
O536 O 0.43877 0.8953 0.09085 0.0
O537 O 0.32144 0.91378 0.07678 0.0
O538 O 0.37175 0.92324 0.08033 0.0
C539 C 0.37081 0.81577 0.07385 0.0
C540 C 0.36365 0.8709 0.15904 0.0
O541 O 0.38841 0.87951 0.14456 0.0
O542 O 0.33849 0.8659 0.14372 0.0
C543 C 0.46136 0.87544 0.09248 0.0
O544 O 0.45556 0.84555 0.09951 0.0
C545 C 0.34403 0.93322 0.07442 0.0
Zn546 Zn 0.62754 0.88834 0.57439 0.0
Zn547 Zn 0.62092 0.89514 0.63888 0.0
O548 O 0.58063 0.87038 0.6283 0.0
O549 O 0.58498 0.86373 0.57642 0.0
O550 O 0.61784 0.90607 0.68532 0.0
O551 O 0.67346 0.87383 0.58503 0.0
O552 O 0.66571 0.87608 0.63682 0.0
C553 C 0.56902 0.86083 0.60195 0.0
C554 C 0.62022 0.95292 0.59279 0.0
O555 O 0.61913 0.93927 0.61985 0.0
O556 O 0.62349 0.93643 0.56765 0.0
C557 C 0.63908 0.92464 0.69546 0.0
O558 O 0.66079 0.93442 0.67551 0.0
C559 C 0.68409 0.87143 0.61329 0.0
Zn560 Zn 0.98038 0.56194 0.88205 0.0
Zn561 Zn 0.92065 0.58413 0.88874 0.0
O562 O 0.94583 0.6053 0.92519 0.0
O563 O 0.99496 0.59001 0.91891 0.0
O564 O 0.87653 0.6032 0.89138 0.0
O565 O 0.98032 0.57273 0.83454 0.0
O566 O 0.93094 0.58716 0.84068 0.0
C567 C 0.97425 0.60495 0.93495 0.0
C568 C 0.93445 0.51418 0.90016 0.0
O569 O 0.91519 0.53758 0.89929 0.0
O570 O 0.96325 0.51824 0.89367 0.0
C571 C 0.8572 0.59491 0.91297 0.0
O572 O 0.86661 0.57454 0.93489 0.0
C573 C 0.95431 0.58133 0.82243 0.0
Zn574 Zn 0.87796 0.31942 0.1402 0.0
Zn575 Zn 0.82831 0.35562 0.1226 0.0
O576 O 0.82671 0.31981 0.08973 0.0
O577 O 0.86981 0.29237 0.09858 0.0
O578 O 0.79567 0.38366 0.10361 0.0
O579 O 0.8557 0.31984 0.18543 0.0
O580 O 0.81564 0.34964 0.17006 0.0
C581 C 0.84626 0.29849 0.08089 0.0
C582 C 0.89534 0.38177 0.12069 0.0
O583 O 0.86587 0.38351 0.1165 0.0
O584 O 0.90768 0.3566 0.1321 0.0
C585 C 0.79821 0.39022 0.07406 0.0
O586 O 0.82218 0.37906 0.05762 0.0
C587 C 0.83049 0.3351 0.19219 0.0
Zn588 Zn 0.12635 0.45645 0.61926 0.0
Zn589 Zn 0.06442 0.45083 0.6102 0.0
O590 O 0.06908 0.46939 0.65487 0.0
O591 O 0.11911 0.47789 0.66293 0.0
O592 O 0.01759 0.4522 0.60618 0.0
O593 O 0.13148 0.47837 0.57548 0.0
O594 O 0.08088 0.47151 0.56905 0.0
C595 C 0.09109 0.47822 0.67323 0.0
C596 C 0.10258 0.39055 0.61681 0.0
O597 O 0.07595 0.40378 0.61192 0.0
O598 O 0.12682 0.40759 0.62023 0.0
C599 C 1.00136 0.45697 0.5812 0.0
O600 O 0.01543 0.46031 0.55351 0.0
C601 C 0.10729 0.48031 0.55791 0.0
Zn602 Zn 0.17396 0.69536 0.18673 0.0
Zn603 Zn 0.20534 0.64046 0.17044 0.0
O604 O 0.21817 0.67266 0.13599 0.0
O605 O 0.19172 0.71681 0.1458 0.0
O606 O 0.22715 0.60168 0.15306 0.0
O607 O 0.19753 0.69059 0.23064 0.0
O608 O 0.21966 0.64481 0.21713 0.0
C609 C 0.21014 0.70085 0.1279 0.0
C610 C 0.13376 0.64304 0.16959 0.0
O611 O 0.16007 0.62902 0.16607 0.0
O612 O 0.13215 0.67177 0.179 0.0
C613 C 0.21971 0.59375 0.12475 0.0
O614 O 0.19621 0.60871 0.11075 0.0
C615 C 0.21433 0.66635 0.23797 0.0
Zn616 Zn 0.89661 0.58433 0.62777 0.0
Zn617 Zn 0.95913 0.59101 0.61987 0.0
O618 O 0.95342 0.57718 0.66601 0.0
O619 O 0.90327 0.56988 0.67453 0.0
O620 O 1.006 0.59214 0.61756 0.0
O621 O 0.89601 0.55533 0.58752 0.0
O622 O 0.94669 0.56279 0.58221 0.0
C623 C 0.93118 0.5707 0.68505 0.0
C624 C 0.91803 0.65018 0.6168 0.0
O625 O 0.94514 0.63723 0.61466 0.0
O626 O 0.89411 0.63298 0.62168 0.0
C627 C 0.01944 0.60649 0.64039 0.0
O628 O 1.00196 0.62103 0.66192 0.0
C629 C 0.92124 0.55097 0.57182 0.0
Zn630 Zn 0.04151 0.49002 0.87213 0.0
Zn631 Zn 0.1031 0.47041 0.87642 0.0
O632 O 0.08071 0.44481 0.91063 0.0
O633 O 0.03101 0.45913 0.90895 0.0
O634 O 0.14705 0.45128 0.87677 0.0
O635 O 0.04202 0.48149 0.82366 0.0
O636 O 0.09227 0.47052 0.82882 0.0
C637 C 0.05322 0.4439 0.92251 0.0
C638 C 0.08491 0.53741 0.89642 0.0
O639 O 0.10549 0.51529 0.89347 0.0
O640 O 0.05679 0.53344 0.88742 0.0
C641 C 0.16439 0.45041 0.90146 0.0
O642 O 0.15404 0.46351 0.92801 0.0
C643 C 0.06847 0.47537 0.811 0.0
Zn644 Zn 0.2441 0.68107 0.43867 0.0
Zn645 Zn 0.20657 0.63143 0.43443 0.0
O646 O 0.22628 0.63189 0.38907 0.0
O647 O 0.25257 0.67667 0.39011 0.0
O648 O 0.17473 0.59664 0.43256 0.0
O649 O 0.26749 0.65995 0.47635 0.0
O650 O 0.23133 0.62302 0.47638 0.0
C651 C 0.24151 0.65346 0.37437 0.0
C652 C 0.17935 0.69819 0.44556 0.0
O653 O 0.17637 0.66891 0.4385 0.0
O654 O 0.2065 0.70964 0.44953 0.0
C655 C 0.1572 0.59723 0.40805 0.0
O656 O 0.16415 0.6168 0.38463 0.0
C657 C 0.25477 0.63619 0.48981 0.0
Zn658 Zn 0.77796 0.33514 0.39029 0.0
Zn659 Zn 0.82757 0.37259 0.3951 0.0
O660 O 0.81819 0.37071 0.34636 0.0
O661 O 0.77602 0.34185 0.34052 0.0
O662 O 0.86414 0.4019 0.39758 0.0
O663 O 0.75611 0.35959 0.42777 0.0
O664 O 0.79891 0.38787 0.43192 0.0
C665 C 0.79864 0.357 0.32798 0.0
C666 C 0.83607 0.30341 0.41096 0.0
O667 O 0.84769 0.33099 0.40795 0.0
O668 O 0.8072 0.2989 0.40521 0.0
C669 C 0.8871 0.39301 0.38032 0.0
O670 O 0.88406 0.36749 0.36242 0.0
C671 C 0.77222 0.37991 0.44301 0.0
C672 C 0.1042 0.31531 0.35438 0.0
C673 C 0.12447 0.33242 0.37444 0.0
C674 C 0.10683 0.28211 0.35139 0.0
C675 C 0.12913 0.26481 0.36917 0.0
H676 H 0.08671 0.32778 0.34018 0.0
H677 H 0.09123 0.26986 0.33518 0.0
S678 S 0.18704 0.29821 0.42579 0.0
N679 N 0.16747 0.32972 0.41238 0.0
N680 N 0.17152 0.26695 0.40791 0.0
C681 C 0.14904 0.2815 0.38991 0.0
C682 C 0.14698 0.31545 0.39222 0.0
C683 C 0.30297 0.54904 0.97117 0.0
C684 C 0.30868 0.52901 0.94497 0.0
C685 C 0.27479 0.56634 0.97316 0.0
C686 C 0.25161 0.56331 0.94954 0.0
H687 H 0.32193 0.55527 0.98717 0.0
H688 H 0.27263 0.58484 0.99103 0.0
S689 S 0.25205 0.50569 0.88252 0.0
N690 N 0.28675 0.50111 0.8996 0.0
N691 N 0.23308 0.53277 0.90402 0.0
C692 C 0.25481 0.5388 0.92691 0.0
C693 C 0.2837 0.52163 0.92457 0.0
C694 C 0.87549 0.71544 0.39046 0.0
C695 C 0.89437 0.73485 0.37125 0.0
C696 C 0.88446 0.68383 0.39699 0.0
C697 C 0.91296 0.67118 0.38525 0.0
H698 H 0.85305 0.72424 0.39918 0.0
H699 H 0.86864 0.66894 0.41057 0.0
S700 S 0.97165 0.71388 0.33604 0.0
N701 N 0.94319 0.74032 0.34192 0.0
N702 N 0.96076 0.68126 0.35506 0.0
C703 C 0.9328 0.69114 0.36752 0.0
C704 C 0.92327 0.72295 0.36024 0.0
C705 C 0.72757 0.37298 0.95744 0.0
C706 C 0.75231 0.3947 0.95573 0.0
C707 C 0.69724 0.38329 0.96512 0.0
C708 C 0.69086 0.41572 0.97107 0.0
H709 H 0.73149 0.34811 0.95147 0.0
H710 H 0.6784 0.36613 0.96403 0.0
S711 S 0.74894 0.48081 0.97514 0.0
N712 N 0.76981 0.44886 0.9651 0.0
N713 N 0.71227 0.46871 0.97881 0.0
C714 C 0.71596 0.43717 0.97211 0.0
C715 C 0.74698 0.42648 0.96476 0.0
C716 C 0.15787 0.75066 0.63111 0.0
C717 C 0.19052 0.74664 0.62787 0.0
C718 C 0.14169 0.77421 0.61393 0.0
C719 C 0.15748 0.79445 0.59255 0.0
H720 H 0.14479 0.7361 0.64777 0.0
H721 H 0.11678 0.77737 0.6184 0.0
S722 S 0.24223 0.78977 0.57149 0.0
N723 N 0.23761 0.76215 0.59916 0.0
N724 N 0.20717 0.80611 0.56625 0.0
C725 C 0.18982 0.78908 0.58738 0.0
C726 C 0.20638 0.76539 0.60533 0.0
C727 C 0.77779 0.58636 0.13721 0.0
C728 C 0.77072 0.61349 0.11862 0.0
C729 C 0.80779 0.57253 0.13701 0.0
C730 C 0.83205 0.58546 0.11847 0.0
H731 H 0.76004 0.57573 0.15229 0.0
H732 H 0.81211 0.55201 0.15217 0.0
S733 S 0.82527 0.65515 0.0639 0.0
N734 N 0.78998 0.65187 0.07988 0.0
N735 N 0.84659 0.626 0.07957 0.0
C736 C 0.82511 0.61207 0.09901 0.0
C737 C 0.79439 0.62602 0.09904 0.0
C738 C 0.90489 0.25407 0.59149 0.0
C739 C 0.89134 0.23197 0.57029 0.0
C740 C 0.88917 0.28235 0.59956 0.0
C741 C 0.85968 0.28943 0.58644 0.0
H742 H 0.92618 0.24813 0.60443 0.0
H743 H 0.89889 0.29728 0.61814 0.0
S744 S 0.82109 0.24694 0.51995 0.0
N745 N 0.85179 0.22426 0.52908 0.0
N746 N 0.82198 0.27754 0.54479 0.0
C747 C 0.84842 0.27035 0.56154 0.0
C748 C 0.86456 0.24165 0.55307 0.0
C749 C 0.24726 0.43953 0.13287 0.0
C750 C 0.26576 0.44751 0.10623 0.0
C751 C 0.2171 0.4524 0.13692 0.0
C752 C 0.20401 0.47311 0.11412 0.0
H753 H 0.25621 0.42338 0.15097 0.0
H754 H 0.20356 0.44534 0.15764 0.0
S755 S 0.24284 0.50319 0.04108 0.0
N756 N 0.26919 0.47903 0.05746 0.0
N757 N 0.21176 0.50225 0.06472 0.0
C758 C 0.22212 0.48166 0.08754 0.0
C759 C 0.25322 0.46913 0.0837 0.0
C760 C 0.36995 0.09516 0.24181 0.0
C761 C 0.38675 0.10992 0.21708 0.0
C762 C 0.37908 0.09869 0.27369 0.0
C763 C 0.40483 0.11778 0.28188 0.0
H764 H 0.34878 0.082 0.23663 0.0
H765 H 0.36439 0.08849 0.29213 0.0
S766 S 0.45892 0.15816 0.22596 0.0
N767 N 0.43257 0.14126 0.20273 0.0
N768 N 0.4489 0.1488 0.26287 0.0
C769 C 0.42307 0.13083 0.25734 0.0
C770 C 0.41425 0.12663 0.22483 0.0
C771 C 0.37054 0.88756 0.74013 0.0
C772 C 0.40193 0.89366 0.73158 0.0
C773 C 0.36301 0.8735 0.76928 0.0
C774 C 0.38646 0.86524 0.79139 0.0
H775 H 0.35144 0.89279 0.72382 0.0
H776 H 0.33849 0.86904 0.77439 0.0
S777 S 0.47218 0.87873 0.78189 0.0
N778 N 0.45659 0.89199 0.74829 0.0
N779 N 0.44247 0.86591 0.80359 0.0
C780 C 0.41795 0.87221 0.78373 0.0
C781 C 0.42566 0.88635 0.75375 0.0
C782 C 0.59796 0.89922 0.22644 0.0
C783 C 0.62491 0.91839 0.22554 0.0
C784 C 0.58633 0.88781 0.25546 0.0
C785 C 0.6008 0.89589 0.28441 0.0
H786 H 0.58789 0.89003 0.2046 0.0
H787 H 0.5677 0.87039 0.255 0.0
S788 S 0.66642 0.95256 0.29501 0.0
N789 N 0.66182 0.94997 0.25596 0.0
N790 N 0.63928 0.92949 0.31078 0.0
C791 C 0.6247 0.91888 0.28401 0.0
C792 C 0.63699 0.9299 0.25441 0.0
C793 C 0.62167 0.14556 0.79364 0.0
C794 C 0.64911 0.14552 0.81222 0.0
C795 C 0.62259 0.13663 0.76154 0.0
C796 C 0.6509 0.12697 0.74693 0.0
H797 H 0.59946 0.1536 0.8036 0.0
H798 H 0.60106 0.1382 0.74784 0.0
S799 S 0.72866 0.11912 0.78617 0.0
N800 N 0.70494 0.13242 0.81451 0.0
N801 N 0.7066 0.1155 0.75404 0.0
C802 C 0.67819 0.12506 0.76566 0.0
C803 C 0.67733 0.13447 0.79834 0.0
C804 C 0.93941 0.73761 0.60751 0.0
C805 C 0.91192 0.75391 0.61709 0.0
C806 C 0.94093 0.70418 0.60695 0.0
C807 C 0.91491 0.68556 0.61565 0.0
H808 H 0.96016 0.75073 0.60071 0.0
H809 H 0.96283 0.69288 0.59981 0.0
S810 S 0.83677 0.71662 0.64133 0.0
N811 N 0.85768 0.74889 0.63466 0.0
N812 N 0.86042 0.68616 0.63344 0.0
C813 C 0.88702 0.70158 0.62472 0.0
C814 C 0.88558 0.73567 0.62554 0.0
C815 C 0.75082 0.37754 0.04389 0.0
C816 C 0.76999 0.40087 0.05749 0.0
C817 C 0.7187 0.38329 0.03992 0.0
C818 C 0.70523 0.41272 0.04898 0.0
H819 H 0.75989 0.35361 0.0398 0.0
H820 H 0.70405 0.36349 0.03297 0.0
S821 S 0.74784 0.48408 0.07718 0.0
N822 N 0.77515 0.45591 0.0743 0.0
N823 N 0.71478 0.46753 0.06533 0.0
C824 C 0.72524 0.43765 0.05799 0.0
C825 C 0.75777 0.4315 0.06272 0.0
C826 C 0.07911 0.30332 0.62 0.0
C827 C 0.10678 0.28772 0.63005 0.0
C828 C 0.07815 0.33643 0.61532 0.0
C829 C 0.10488 0.35531 0.62027 0.0
H830 H 0.05786 0.28994 0.61593 0.0
H831 H 0.05612 0.34726 0.60793 0.0
S832 S 0.18375 0.32582 0.64532 0.0
N833 N 0.16195 0.29353 0.6439 0.0
N834 N 0.16022 0.35562 0.63503 0.0
C835 C 0.13291 0.33991 0.62983 0.0
C836 C 0.13383 0.30619 0.63477 0.0
C837 C 0.25182 0.59129 0.07563 0.0
C838 C 0.2436 0.57754 0.10504 0.0
C839 C 0.28121 0.58511 0.06194 0.0
C840 C 0.30278 0.56424 0.07661 0.0
H841 H 0.2372 0.60978 0.06505 0.0
H842 H 0.28833 0.59923 0.0416 0.0
S843 S 0.28866 0.51606 0.14946 0.0
N844 N 0.25655 0.53813 0.14545 0.0
N845 N 0.31131 0.52505 0.11876 0.0
C846 C 0.29283 0.54675 0.10342 0.0
C847 C 0.26326 0.55382 0.11793 0.0
C848 C 0.86157 0.21964 0.43183 0.0
C849 C 0.89086 0.2173 0.41641 0.0
C850 C 0.84462 0.24842 0.43192 0.0
C851 C 0.85687 0.27585 0.41741 0.0
H852 H 0.85021 0.19844 0.44091 0.0
H853 H 0.82103 0.24868 0.44166 0.0
S854 S 0.93526 0.28316 0.37937 0.0
N855 N 0.93313 0.24526 0.38993 0.0
N856 N 0.90203 0.29994 0.3914 0.0
C857 C 0.88769 0.27461 0.40523 0.0
C858 C 0.90455 0.2451 0.40441 0.0
C859 C 0.20218 0.41184 0.87569 0.0
C860 C 0.19543 0.43378 0.90036 0.0
C861 C 0.23125 0.39576 0.874 0.0
C862 C 0.25495 0.40148 0.89652 0.0
H863 H 0.18481 0.4069 0.85753 0.0
H864 H 0.23546 0.37936 0.85442 0.0
S865 S 0.24921 0.45583 0.9663 0.0
N866 N 0.21483 0.45953 0.94842 0.0
N867 N 0.26961 0.42996 0.94472 0.0
C868 C 0.24852 0.42315 0.92142 0.0
C869 C 0.21874 0.43908 0.92351 0.0
C870 C 0.10891 0.73634 0.40729 0.0
C871 C 0.11163 0.76826 0.41723 0.0
C872 C 0.1287 0.71253 0.41967 0.0
C873 C 0.1521 0.71999 0.44209 0.0
H874 H 0.0936 0.73024 0.38762 0.0
H875 H 0.12777 0.68897 0.40907 0.0
S876 S 0.16207 0.79752 0.48318 0.0
N877 N 0.13416 0.80429 0.45662 0.0
N878 N 0.1719 0.75949 0.47917 0.0
C879 C 0.1519 0.75063 0.45559 0.0
C880 C 0.13136 0.77481 0.4434 0.0
C881 C 0.80161 0.59127 0.93216 0.0
C882 C 0.82388 0.60617 0.91242 0.0
C883 C 0.7698 0.60019 0.93145 0.0
C884 C 0.75873 0.62463 0.91115 0.0
H885 H 0.80864 0.57212 0.94808 0.0
H886 H 0.75376 0.58768 0.94703 0.0
S887 S 0.80742 0.67203 0.85524 0.0
N888 N 0.83262 0.64714 0.87227 0.0
N889 N 0.77287 0.66406 0.87111 0.0
C890 C 0.78077 0.64013 0.89157 0.0
C891 C 0.81326 0.63086 0.89214 0.0
C892 C 0.67313 0.94853 0.77528 0.0
C893 C 0.64748 0.94562 0.79623 0.0
C894 C 0.66985 0.94277 0.74254 0.0
C895 C 0.64091 0.93342 0.72956 0.0
H896 H 0.69618 0.9544 0.78431 0.0
H897 H 0.69051 0.94449 0.72755 0.0
S898 S 0.56566 0.92533 0.77342 0.0
N899 N 0.5914 0.9352 0.80106 0.0
N900 N 0.58554 0.92397 0.73958 0.0
C901 C 0.61473 0.93177 0.7499 0.0
C902 C 0.61793 0.93805 0.78321 0.0
C903 C 0.63746 0.12436 0.23908 0.0
C904 C 0.66014 0.14437 0.22539 0.0
C905 C 0.63179 0.12469 0.272 0.0
C906 C 0.64803 0.14565 0.2921 0.0
H907 H 0.62426 0.10805 0.22432 0.0
H908 H 0.61451 0.10856 0.28176 0.0
S909 S 0.70959 0.20299 0.26804 0.0
N910 N 0.69892 0.18567 0.23444 0.0
N911 N 0.68789 0.18667 0.2962 0.0
C912 C 0.67053 0.166 0.27867 0.0
C913 C 0.67672 0.16523 0.24532 0.0
C914 C 0.37195 0.09322 0.739 0.0
C915 C 0.40355 0.08728 0.73105 0.0
C916 C 0.35936 0.08244 0.76771 0.0
C917 C 0.37807 0.06585 0.78993 0.0
H918 H 0.3569 0.10695 0.72316 0.0
H919 H 0.33528 0.08898 0.77325 0.0
S920 S 0.46125 0.04073 0.77847 0.0
N921 N 0.45243 0.06084 0.74568 0.0
N922 N 0.42905 0.04109 0.80055 0.0
C923 C 0.40925 0.05797 0.78137 0.0
C924 C 0.42193 0.06857 0.75168 0.0
C925 C 0.38522 0.88019 0.21356 0.0
C926 C 0.36502 0.86334 0.19327 0.0
C927 C 0.38733 0.87253 0.24603 0.0
C928 C 0.37004 0.84718 0.25894 0.0
H929 H 0.39913 0.89966 0.20436 0.0
H930 H 0.40265 0.88645 0.26111 0.0
S931 S 0.31456 0.79508 0.21555 0.0
N932 N 0.32776 0.81995 0.1882 0.0
N933 N 0.33224 0.80518 0.24904 0.0
C934 C 0.3502 0.82981 0.23876 0.0
C935 C 0.34753 0.83802 0.20595 0.0
C936 C 0.13179 0.13101 0.53418 0.0
C937 C 0.1167 0.15288 0.55456 0.0
C938 C 0.12843 0.13348 0.50112 0.0
C939 C 0.10944 0.15752 0.48745 0.0
H940 H 0.14763 0.11298 0.54369 0.0
H941 H 0.14161 0.11705 0.48613 0.0
S942 S 0.06138 0.21769 0.53092 0.0
N943 N 0.07956 0.19721 0.55919 0.0
N944 N 0.07294 0.20157 0.49685 0.0
C945 C 0.0924 0.17804 0.50766 0.0
C946 C 0.09617 0.17582 0.54133 0.0
C947 C 0.44854 0.53864 0.97088 0.0
C948 C 0.4613 0.5583 0.94706 0.0
C949 C 0.44761 0.54869 1.00262 0.0
C950 C 0.46013 0.57823 0.01153 0.0
H951 H 0.43552 0.51752 0.96438 0.0
H952 H 0.43433 0.53475 0.01965 0.0
S953 S 0.50483 0.63336 0.95999 0.0
N954 N 0.49312 0.60486 0.93562 0.0
N955 N 0.49196 0.62339 0.99583 0.0
C956 C 0.47775 0.5953 0.98909 0.0
C957 C 0.47841 0.58522 0.95655 0.0
C958 C 0.91786 0.84506 0.48506 0.0
C959 C 0.90177 0.86363 0.46239 0.0
C960 C 0.91612 0.8526 0.51749 0.0
C961 C 0.89881 0.87933 0.52813 0.0
H962 H 0.93031 0.8235 0.47797 0.0
H963 H 0.92759 0.83679 0.53443 0.0
S964 S 0.85635 0.93811 0.47749 0.0
N965 N 0.87061 0.91149 0.45209 0.0
N966 N 0.86795 0.92621 0.5132 0.0
C967 C 0.88462 0.89946 0.50543 0.0
C968 C 0.88591 0.89143 0.47245 0.0
C969 C 0.54286 0.46688 0.01124 0.0
C970 C 0.53626 0.44202 0.98988 0.0
C971 C 0.54628 0.46079 0.04389 0.0
C972 C 0.54313 0.42971 0.05601 0.0
H973 H 0.54942 0.49013 1.00222 0.0
H974 H 0.5552 0.47962 0.05902 0.0
S975 S 0.52026 0.35792 0.01074 0.0
N976 N 0.52174 0.3865 0.98364 0.0
N977 N 0.5283 0.37506 0.04524 0.0
C978 C 0.53208 0.40577 0.03567 0.0
C979 C 0.5285 0.41199 1.00237 0.0
C980 C 0.08246 0.92733 0.50473 0.0
C981 C 0.10831 0.93934 0.52133 0.0
C982 C 0.08301 0.92474 0.47154 0.0
C983 C 0.10982 0.9333 0.45388 0.0
H984 H 0.06264 0.91766 0.51766 0.0
H985 H 0.06331 0.91337 0.45999 0.0
S986 S 0.18126 0.97157 0.48622 0.0
N987 N 0.15931 0.96452 0.51794 0.0
N988 N 0.16084 0.95906 0.45522 0.0
C989 C 0.13439 0.94873 0.46997 0.0
C990 C 0.13355 0.95179 0.50391 0.0
C991 C 0.65318 0.63634 1.00607 0.0
C992 C 0.62688 0.65064 0.99151 0.0
C993 C 0.65397 0.63098 0.03887 0.0
C994 C 0.62854 0.63985 0.05853 0.0
H995 H 0.6738 0.62991 0.99219 0.0
H996 H 0.67527 0.62086 0.04895 0.0
S997 S 0.55249 0.6747 0.03166 0.0
N998 N 0.57351 0.67094 0.9987 0.0
N999 N 0.57503 0.66093 0.0607 0.0
C1000 C 0.60122 0.65232 0.04408 0.0
C1001 C 0.60039 0.65774 0.01048 0.0
C1002 C 0.88179 0.05085 0.51653 0.0
C1003 C 0.90652 0.05974 0.49616 0.0
C1004 C 0.8844 0.0548 0.5497 0.0
C1005 C 0.91178 0.06763 0.56304 0.0
H1006 H 0.85923 0.04427 0.50674 0.0
H1007 H 0.86371 0.05144 0.56436 0.0
S1008 S 0.98589 0.08558 0.52071 0.0
N1009 N 0.96136 0.07489 0.49223 0.0
N1010 N 0.96602 0.08261 0.55446 0.0
C1011 C 0.93802 0.07202 0.54335 0.0
C1012 C 0.93544 0.06798 0.5098 0.0
C1013 C 0.36847 0.38849 0.97482 0.0
C1014 C 0.38762 0.36432 0.96171 0.0
C1015 C 0.37099 0.39694 1.00693 0.0
C1016 C 0.39267 0.38141 0.02702 0.0
H1017 H 0.35082 0.40041 0.96036 0.0
H1018 H 0.355 0.41491 0.01637 0.0
S1019 S 0.44794 0.31622 1.00408 0.0
N1020 N 0.42921 0.32527 0.97077 0.0
N1021 N 0.43389 0.3409 0.03144 0.0
C1022 C 0.41287 0.35805 0.01387 0.0
C1023 C 0.41034 0.34954 0.98107 0.0
C1024 C 0.53556 0.10722 0.10955 0.0
C1025 C 0.54323 0.13981 0.11054 0.0
C1026 C 0.50439 0.09751 0.10624 0.0
C1027 C 0.4799 0.12002 0.10323 0.0
H1028 H 0.55358 0.08904 0.11262 0.0
H1029 H 0.49939 0.07221 0.10688 0.0
S1030 S 0.48818 0.20828 0.10131 0.0
N1031 N 0.5243 0.19452 0.10608 0.0
N1032 N 0.46572 0.17647 0.09941 0.0
C1033 C 0.4875 0.1527 0.10248 0.0
C1034 C 0.51918 0.16254 0.10631 0.0
C1035 C 0.42096 0.01188 0.60329 0.0
C1036 C 0.39904 0.99723 0.58321 0.0
C1037 C 0.42371 0.04496 0.60418 0.0
C1038 C 0.40436 0.06479 0.58536 0.0
H1039 H 0.43514 0.99773 0.61957 0.0
H1040 H 0.43993 0.05512 0.6212 0.0
S1041 S 0.34646 0.038 0.52535 0.0
N1042 N 0.36037 1.00458 0.54109 0.0
N1043 N 0.36519 0.06733 0.54323 0.0
C1044 C 0.38433 0.05044 0.56305 0.0
C1045 C 0.3817 0.01645 0.56192 0.0
C1046 C 0.50084 0.91887 0.09526 0.0
C1047 C 0.49397 0.88664 0.0894 0.0
C1048 C 0.5319 0.92938 0.09645 0.0
C1049 C 0.55722 0.9081 0.0916 0.0
H1050 H 0.48221 0.93588 0.10051 0.0
H1051 H 0.53601 0.95407 0.10273 0.0
S1052 S 0.55125 0.82243 0.06935 0.0
N1053 N 0.51454 0.83441 0.07448 0.0
N1054 N 0.57299 0.85407 0.07625 0.0
C1055 C 0.55049 0.87632 0.08305 0.0
C1056 C 0.51883 0.86559 0.08217 0.0
C1057 C 0.61344 0.03771 0.62193 0.0
C1058 C 0.62587 0.0557 0.59665 0.0
C1059 C 0.61033 1.00475 0.6196 0.0
C1060 C 0.61952 0.98818 0.59189 0.0
H1061 H 0.60667 0.04899 0.64421 0.0
H1062 H 0.60142 0.9921 0.64023 0.0
S1063 S 0.65042 0.02434 0.51747 0.0
N1064 N 0.64511 0.05489 0.54188 0.0
N1065 N 0.63927 0.99244 0.53751 0.0
C1066 C 0.63032 1.00594 0.56562 0.0
C1067 C 0.63352 0.0398 0.56801 0.0
C1068 C 0.49213 0.87406 0.93169 0.0
C1069 C 0.47241 0.88855 0.90894 0.0
C1070 C 0.52209 0.88613 0.93794 0.0
C1071 C 0.53357 0.9128 0.92127 0.0
H1072 H 0.48452 0.85309 0.94457 0.0
H1073 H 0.53673 0.87368 0.95512 0.0
S1074 S 0.49065 0.95979 0.8597 0.0
N1075 N 0.46604 0.93153 0.87027 0.0
N1076 N 0.52228 0.95392 0.88171 0.0
C1077 C 0.51368 0.92797 0.89902 0.0
C1078 C 0.48314 0.91588 0.8929 0.0
C1079 C 0.62449 0.96044 0.4338 0.0
C1080 C 0.59571 0.95306 0.419 0.0
C1081 C 0.63518 0.99192 0.43524 0.0
C1082 C 0.6176 0.01688 0.42162 0.0
H1083 H 0.6397 0.94162 0.4428 0.0
H1084 H 0.65815 0.99644 0.44527 0.0
S1085 S 0.53817 0.01163 0.38608 0.0
N1086 N 0.54769 0.97442 0.39514 0.0
N1087 N 0.56836 0.03336 0.39722 0.0
C1088 C 0.58777 0.01035 0.40921 0.0
C1089 C 0.5766 0.97846 0.40818 0.0
C1090 C 0.47511 0.13196 0.93366 0.0
C1091 C 0.46579 0.1003 0.92837 0.0
C1092 C 0.50626 0.14121 0.92885 0.0
C1093 C 0.52937 0.11907 0.91891 0.0
H1094 H 0.45797 0.15015 0.94006 0.0
H1095 H 0.51201 0.16612 0.93217 0.0
S1096 S 0.51787 0.03212 0.90681 0.0
N1097 N 0.48262 0.04607 0.91604 0.0
N1098 N 0.54131 0.06322 0.90742 0.0
C1099 C 0.52073 0.08687 0.91558 0.0
C1100 C 0.48892 0.07754 0.92023 0.0
C1101 C 0.41231 0.96344 0.39071 0.0
C1102 C 0.383 0.95506 0.40353 0.0
C1103 C 0.42295 0.99485 0.39211 0.0
C1104 C 0.40435 0.01915 0.40583 0.0
H1105 H 0.42679 0.94571 0.37871 0.0
H1106 H 0.44514 1.00032 0.38077 0.0
S1107 S 0.32686 0.00872 0.44526 0.0
N1108 N 0.33664 0.97263 0.43262 0.0
N1109 N 0.35622 0.03205 0.43496 0.0
C1110 C 0.37573 0.01065 0.42042 0.0
C1111 C 0.36514 0.97848 0.41933 0.0
C1112 C 0.08491 0.59814 0.11242 0.0
C1113 C 0.07427 0.57315 0.13177 0.0
C1114 C 0.10026 0.62432 0.12593 0.0
C1115 C 0.106 0.62573 0.15897 0.0
H1116 H 0.08389 0.59606 0.08667 0.0
H1117 H 0.11085 0.64164 0.1101 0.0
S1118 S 0.08217 0.56649 0.21951 0.0
N1119 N 0.06859 0.55231 0.18552 0.0
N1120 N 0.09872 0.60086 0.21062 0.0
C1121 C 0.09332 0.60215 0.17867 0.0
C1122 C 0.07707 0.57593 0.16507 0.0
C1123 C 0.09818 0.62541 0.90976 0.0
C1124 C 0.12053 0.62473 0.93445 0.0
C1125 C 0.08481 0.597 0.89865 0.0
C1126 C 0.09392 0.56742 0.91171 0.0
H1127 H 0.0932 0.64742 0.89707 0.0
H1128 H 0.06922 0.59796 0.87825 0.0
S1129 S 0.14511 0.55407 0.98198 0.0
N1130 N 0.14595 0.59299 0.97583 0.0
N1131 N 0.12181 0.53965 0.95414 0.0
C1132 C 0.11356 0.56692 0.9385 0.0
C1133 C 0.1265 0.59568 0.95021 0.0
C1134 C 0.10838 0.58139 0.38006 0.0
C1135 C 0.12593 0.58219 0.40848 0.0
C1136 C 0.07641 0.57422 0.38041 0.0
C1137 C 0.06093 0.56713 0.40911 0.0
H1138 H 0.11902 0.58788 0.35749 0.0
H1139 H 0.06349 0.57515 0.35815 0.0
S1140 S 0.09607 0.56464 0.48982 0.0
N1141 N 0.12554 0.57386 0.46603 0.0
N1142 N 0.0653 0.56001 0.4664 0.0
C1143 C 0.0784 0.56588 0.43743 0.0
C1144 C 0.11102 0.57344 0.43718 0.0
C1145 C 0.93984 0.45508 0.89449 0.0
C1146 C 0.92256 0.48167 0.9056 0.0
C1147 C 0.92682 0.42454 0.89454 0.0
C1148 C 0.89611 0.41954 0.90576 0.0
H1149 H 0.96298 0.45804 0.88418 0.0
H1150 H 0.94042 0.40505 0.88436 0.0
S1151 S 0.84353 0.48036 0.94304 0.0
N1152 N 0.87496 0.50035 0.93215 0.0
N1153 N 0.85046 0.44303 0.93235 0.0
C1154 C 0.87954 0.44555 0.91917 0.0
C1155 C 0.89278 0.4766 0.91908 0.0
C1156 C 0.96994 0.41515 0.35907 0.0
C1157 C 0.9803 0.43163 0.38626 0.0
C1158 C 0.93926 0.40407 0.35692 0.0
C1159 C 0.9177 0.40902 0.38186 0.0
H1160 H 0.98588 0.41007 0.33949 0.0
H1161 H 0.93268 0.39078 0.33582 0.0
S1162 S 0.9328 0.45165 0.45788 0.0
N1163 N 0.96642 0.45343 0.43826 0.0
N1164 N 0.90838 0.43244 0.43427 0.0
C1165 C 0.92725 0.42669 0.40868 0.0
C1166 C 0.95868 0.43806 0.41086 0.0
C1167 C 0.90192 0.43314 0.09207 0.0
C1168 C 0.91425 0.41011 0.11318 0.0
C1169 C 0.91593 0.46291 0.08867 0.0
C1170 C 0.94284 0.47079 0.1062 0.0
H1171 H 0.8804 0.42872 0.07909 0.0
H1172 H 0.90463 0.48048 0.07342 0.0
S1173 S 0.98617 0.4176 0.16198 0.0
N1174 N 0.95645 0.39594 0.1496 0.0
N1175 N 0.98291 0.45222 0.14337 0.0
C1176 C 0.95686 0.44713 0.1255 0.0
C1177 C 0.9425 0.41667 0.12896 0.0
C1178 C 0.9188 0.43259 0.56051 0.0
C1179 C 0.90332 0.43479 0.59022 0.0
C1180 C 0.95006 0.44209 0.55702 0.0
C1181 C 0.9669 0.45401 0.58314 0.0
H1182 H 0.90743 0.42169 0.54019 0.0
H1183 H 0.96162 0.43806 0.5343 0.0
S1184 S 0.93481 0.47252 0.6635 0.0
N1185 N 0.90545 0.45554 0.64445 0.0
N1186 N 0.96426 0.47329 0.63785 0.0
C1187 C 0.95076 0.4595 0.61197 0.0
C1188 C 0.91892 0.44992 0.61552 0.0
C1189 C 0.10037 0.62596 0.67153 0.0
C1190 C 0.12053 0.61361 0.64787 0.0
C1191 C 0.06782 0.62293 0.66908 0.0
C1192 C 0.05409 0.60722 0.643 0.0
H1193 H 0.10963 0.63932 0.69149 0.0
H1194 H 0.05335 0.63368 0.68755 0.0
S1195 S 0.097 0.56623 0.57724 0.0
N1196 N 0.12487 0.58217 0.59928 0.0
N1197 N 0.0635 0.57603 0.59476 0.0
C1198 C 0.07409 0.59305 0.62011 0.0
C1199 C 0.10735 0.59638 0.62251 0.0
C1200 C 1.01068 0.10245 0.37713 0.0
C1201 C 0.99047 0.10768 0.35096 0.0
C1202 C 0.04312 0.10824 0.37512 0.0
C1203 C 0.05721 0.11942 0.34679 0.0
H1204 H 1.00119 0.0956 0.40011 0.0
H1205 H 0.05699 0.10548 0.39662 0.0
S1206 S 0.01592 0.13219 0.2697 0.0
N1207 N 0.98787 0.12112 0.29449 0.0
N1208 N 0.04868 0.13185 0.29075 0.0
C1209 C 0.03781 0.12213 0.31963 0.0
C1210 C 1.00459 0.11632 0.3217 0.0
C1211 C 0.41257 0.42899 0.8139 0.0
C1212 C 0.38204 0.41638 0.81708 0.0
C1213 C 0.41773 0.46223 0.81341 0.0
C1214 C 0.39259 0.48419 0.81608 0.0
H1215 H 0.43289 0.41326 0.81472 0.0
H1216 H 0.44171 0.4706 0.81414 0.0
S1217 S 0.30789 0.4639 0.8172 0.0
N1218 N 0.32613 0.42894 0.81693 0.0
N1219 N 0.33584 0.49091 0.81623 0.0
C1220 C 0.3619 0.4719 0.81535 0.0
C1221 C 0.35663 0.43818 0.81577 0.0
C1222 C 0.99721 0.8824 0.34268 0.0
C1223 C 0.01634 0.86735 0.31951 0.0
C1224 C 0.96423 0.88143 0.34103 0.0
C1225 C 0.94863 0.86559 0.31601 0.0
H1226 H 1.00767 0.89313 0.36359 0.0
H1227 H 0.9509 0.89138 0.36077 0.0
S1228 S 0.98749 0.82794 0.24583 0.0
N1229 N 0.01692 0.84028 0.26813 0.0
N1230 N 0.95513 0.83859 0.26501 0.0
C1231 C 0.96738 0.85339 0.29095 0.0
C1232 C 1.00109 0.8542 0.29272 0.0
C1233 C 0.63277 0.53369 0.85796 0.0
C1234 C 0.60194 0.52171 0.85801 0.0
C1235 C 0.6387 0.56652 0.85508 0.0
C1236 C 0.61405 0.5891 0.85245 0.0
H1237 H 0.65251 0.51777 0.86236 0.0
H1238 H 0.66275 0.57433 0.85751 0.0
S1239 S 0.52926 0.5697 0.84544 0.0
N1240 N 0.54671 0.53468 0.85052 0.0
N1241 N 0.55764 0.59628 0.84519 0.0
C1242 C 0.58329 0.57711 0.84907 0.0
C1243 C 0.57729 0.54351 0.85185 0.0
C1244 C 0.988 0.87517 0.66531 0.0
C1245 C 0.96778 0.90208 0.66541 0.0
C1246 C 0.02084 0.87824 0.66326 0.0
C1247 C 0.03528 0.90836 0.6614 0.0
H1248 H 0.97838 0.85135 0.66448 0.0
H1249 H 0.03488 0.85663 0.66109 0.0
S1250 S 0.99368 0.98658 0.667 0.0
N1251 N 0.96526 0.96009 0.6682 0.0
N1252 N 0.02674 0.96577 0.66443 0.0
C1253 C 0.01563 0.93549 0.66478 0.0
C1254 C 0.98205 0.93237 0.66675 0.0
C1255 C 0.65019 0.50035 0.18313 0.0
C1256 C 0.62002 0.48687 0.1841 0.0
C1257 C 0.65477 0.53323 0.1876 0.0
C1258 C 0.62935 0.55453 0.1928 0.0
H1259 H 0.67033 0.48569 0.17669 0.0
H1260 H 0.67832 0.54225 0.18443 0.0
S1261 S 0.54623 0.53064 0.20377 0.0
N1262 N 0.56482 0.49679 0.19565 0.0
N1263 N 0.5733 0.55859 0.20366 0.0
C1264 C 0.59945 0.5409 0.19717 0.0
C1265 C 0.59482 0.50715 0.1929 0.0
C1266 C 0.99942 0.16853 0.68631 0.0
C1267 C 0.98511 0.1384 0.68865 0.0
C1268 C 0.03221 0.17206 0.68837 0.0
C1269 C 0.05258 0.14556 0.69244 0.0
H1270 H 0.9853 0.18949 0.68085 0.0
H1271 H 0.04169 0.19561 0.68431 0.0
S1272 S 0.02692 0.06196 0.70524 0.0
N1273 N 0.9938 0.08202 0.69954 0.0
N1274 N 0.05526 0.08849 0.70308 0.0
C1275 C 0.03839 0.11566 0.69773 0.0
C1276 C 1.00481 0.11213 0.69593 0.0
C1277 C 0.38303 0.52775 0.1589 0.0
C1278 C 0.41293 0.5406 0.15281 0.0
C1279 C 0.37863 0.49469 0.16262 0.0
C1280 C 0.40393 0.4728 0.16048 0.0
H1281 H 0.36244 0.54314 0.15839 0.0
H1282 H 0.35485 0.48608 0.16491 0.0
S1283 S 0.48777 0.49431 0.15006 0.0
N1284 N 0.46886 0.52891 0.14898 0.0
N1285 N 0.46069 0.46705 0.1561 0.0
C1286 C 0.43437 0.4856 0.15782 0.0
C1287 C 0.43885 0.51938 0.154 0.0
C1288 C 0.36272 0.02176 0.06809 0.0
C1289 C 0.33559 0.03709 0.08038 0.0
C1290 C 0.36425 0.98846 0.06368 0.0
C1291 C 0.33865 0.96863 0.07098 0.0
H1292 H 0.38383 0.03527 0.06366 0.0
H1293 H 0.38641 0.97799 0.05611 0.0
S1294 S 0.26026 0.99689 0.09876 0.0
N1295 N 0.28107 0.02983 0.09602 0.0
N1296 N 0.28391 0.96749 0.08748 0.0
C1297 C 0.31042 0.98384 0.08048 0.0
C1298 C 0.30891 0.0179 0.08523 0.0
C1299 C 0.48508 0.8572 0.57005 0.0
C1300 C 0.46678 0.85491 0.59805 0.0
C1301 C 0.51823 0.85615 0.57111 0.0
C1302 C 0.53466 0.85287 0.60023 0.0
H1303 H 0.47389 0.8623 0.54739 0.0
H1304 H 0.53098 0.86034 0.54915 0.0
S1305 S 0.49787 0.83871 0.67939 0.0
N1306 N 0.4678 0.84358 0.65497 0.0
N1307 N 0.52963 0.84216 0.65704 0.0
C1308 C 0.51659 0.84739 0.62789 0.0
C1309 C 0.48287 0.84825 0.62677 0.0
C1310 C 0.67671 0.03984 0.08433 0.0
C1311 C 0.7008 0.05915 0.09662 0.0
C1312 C 0.67761 1.00635 0.08724 0.0
C1313 C 0.70254 0.99033 0.10287 0.0
H1314 H 0.65586 0.0508 0.07414 0.0
H1315 H 0.65738 0.9932 0.07908 0.0
S1316 S 0.77436 0.02908 0.13417 0.0
N1317 N 0.75257 0.05914 0.12104 0.0
N1318 N 0.75422 0.99645 0.12667 0.0
C1319 C 0.72825 0.00908 0.11249 0.0
C1320 C 0.7274 0.04331 0.10931 0.0
C1321 C 0.53592 0.19495 0.58699 0.0
C1322 C 0.55411 0.19538 0.61514 0.0
C1323 C 0.5027 0.19543 0.58802 0.0
C1324 C 0.4861 0.19626 0.61725 0.0
H1325 H 0.54729 0.19189 0.56404 0.0
H1326 H 0.49005 0.19277 0.56579 0.0
S1327 S 0.52232 0.20405 0.69745 0.0
N1328 N 0.55258 0.20159 0.67286 0.0
N1329 N 0.49075 0.20221 0.67473 0.0
C1330 C 0.50401 0.19963 0.6453 0.0
C1331 C 0.53774 0.19928 0.64426 0.0
C1332 C 0.35519 0.96532 0.93354 0.0
C1333 C 0.32878 0.98217 0.92175 0.0
C1334 C 0.35637 0.93171 0.93412 0.0
C1335 C 0.33126 0.91309 0.92282 0.0
H1336 H 0.37612 0.97808 0.94041 0.0
H1337 H 0.37821 0.92034 0.94131 0.0
S1338 S 0.25397 0.94517 0.89604 0.0
N1339 N 0.27481 0.97733 0.90351 0.0
N1340 N 0.27709 0.91444 0.90446 0.0
C1341 C 0.30342 0.92959 0.9143 0.0
C1342 C 0.30219 0.96395 0.91377 0.0
C1343 C 0.50057 0.78448 0.38324 0.0
C1344 C 0.51759 0.81046 0.39557 0.0
C1345 C 0.46745 0.78434 0.3833 0.0
C1346 C 0.44979 0.81029 0.39545 0.0
H1347 H 0.5128 0.76497 0.37148 0.0
H1348 H 0.45573 0.76485 0.37141 0.0
S1349 S 0.48246 0.88124 0.43631 0.0
N1350 N 0.51374 0.86054 0.42495 0.0
N1351 N 0.45189 0.86043 0.42448 0.0
C1352 C 0.46643 0.83493 0.41059 0.0
C1353 C 0.50014 0.83496 0.41083 0.0
C1354 C 0.69491 0.07631 0.94015 0.0
C1355 C 0.66723 0.09238 0.94993 0.0
C1356 C 0.69588 0.04282 0.93636 0.0
C1357 C 0.66922 0.0239 0.94218 0.0
H1358 H 0.71513 0.08984 0.93254 0.0
H1359 H 0.71694 0.03209 0.92633 0.0
S1360 S 0.59336 0.05346 0.97549 0.0
N1361 N 0.61437 0.08602 0.97075 0.0
N1362 N 0.61611 0.02354 0.96371 0.0
C1363 C 0.64262 0.03935 0.9554 0.0
C1364 C 0.64167 0.07338 0.95928 0.0
C1365 C 0.50528 0.18855 0.41261 0.0
C1366 C 0.4868 0.16123 0.41794 0.0
C1367 C 0.5383 0.18756 0.41558 0.0
C1368 C 0.55441 0.15917 0.42383 0.0
H1369 H 0.49443 0.21043 0.40409 0.0
H1370 H 0.55136 0.20862 0.409 0.0
S1371 S 0.51706 0.08267 0.44643 0.0
N1372 N 0.48726 0.10621 0.43669 0.0
N1373 N 0.5489 0.10435 0.44177 0.0
C1374 C 0.53608 0.13255 0.432 0.0
C1375 C 0.50248 0.13358 0.42921 0.0
C1376 C 0.02414 0.44523 0.97479 0.0
C1377 C 0.05002 0.43411 0.9567 0.0
C1378 C 0.02566 0.44742 1.00829 0.0
C1379 C 0.05314 0.4387 0.025 0.0
H1380 H 1.00361 0.45506 0.96296 0.0
H1381 H 1.00615 0.45858 0.02081 0.0
S1382 S 0.1241 0.40023 0.98993 0.0
N1383 N 0.10138 0.40804 0.95895 0.0
N1384 N 0.10434 0.4128 0.02153 0.0
C1385 C 0.07759 0.42398 1.00762 0.0
C1386 C 0.07593 0.42139 0.97361 0.0
C1387 C 0.19451 0.73156 0.04402 0.0
C1388 C 0.2179 0.71582 0.02584 0.0
C1389 C 0.19392 0.72943 0.07762 0.0
C1390 C 0.21662 0.71139 0.09444 0.0
H1391 H 0.17504 0.74346 0.03221 0.0
H1392 H 0.17401 0.73975 0.09018 0.0
S1393 S 0.28702 0.67225 0.05895 0.0
N1394 N 0.26756 0.68658 0.02794 0.0
N1395 N 0.2661 0.68227 0.09068 0.0
C1396 C 0.24188 0.69846 0.07682 0.0
C1397 C 0.24263 0.70078 0.04269 0.0
C1398 C 0.94987 0.53207 0.48832 0.0
C1399 C 0.92206 0.53304 0.47013 0.0
C1400 C 0.94921 0.53436 0.52173 0.0
C1401 C 0.9207 0.53793 0.53855 0.0
H1402 H 0.97255 0.53185 0.4766 0.0
H1403 H 0.97144 0.53577 0.53418 0.0
S1404 S 0.841 0.53344 0.50297 0.0
N1405 N 0.86499 0.53144 0.47201 0.0
N1406 N 0.86372 0.53589 0.53477 0.0
C1407 C 0.89263 0.53476 0.52103 0.0
C1408 C 0.89332 0.53231 0.48685 0.0
C1409 C 0.81726 0.29305 0.99538 0.0
C1410 C 0.84498 0.28745 0.9776 0.0
C1411 C 0.81722 0.2931 0.02898 0.0
C1412 C 0.84488 0.28752 0.04671 0.0
H1413 H 0.79571 0.29978 0.98329 0.0
H1414 H 0.79567 0.29989 0.0411 0.0
S1415 S 0.92277 0.26625 0.01215 0.0
N1416 N 0.90009 0.27196 0.98067 0.0
N1417 N 0.90001 0.27202 0.04363 0.0
C1418 C 0.87207 0.27866 0.02935 0.0
C1419 C 0.87212 0.27864 0.99495 0.0
C1420 C 0.08311 0.48449 0.50359 0.0
C1421 C 0.11017 0.48622 0.52279 0.0
C1422 C 0.08517 0.48099 0.47038 0.0
C1423 C 0.1144 0.47898 0.45464 0.0
H1424 H 0.06 0.48394 0.51435 0.0
H1425 H 0.06353 0.47787 0.45727 0.0
S1426 S 0.1922 0.49013 0.49276 0.0
N1427 N 0.16705 0.49153 0.52279 0.0
N1428 N 0.1709 0.48487 0.46031 0.0
C1429 C 0.14154 0.48438 0.47302 0.0
C1430 C 0.13943 0.48798 0.50706 0.0
C1431 C 0.95642 0.62662 0.98785 0.0
C1432 C 0.98104 0.61464 0.96864 0.0
C1433 C 0.95808 0.6255 0.0213 0.0
C1434 C 0.98442 0.6123 0.03711 0.0
H1435 H 0.93451 0.6344 0.97711 0.0
H1436 H 0.93737 0.63252 0.03472 0.0
S1437 S 0.05861 0.58598 0.99826 0.0
N1438 N 0.03528 0.5955 0.96821 0.0
N1439 N 0.03819 0.59327 0.03099 0.0
C1440 C 0.01084 0.60443 0.01835 0.0
C1441 C 1.00921 0.60562 0.98416 0.0
C1442 C 0.78445 0.40873 0.49433 0.0
C1443 C 0.76428 0.38856 0.47705 0.0
C1444 C 0.78396 0.40996 0.52793 0.0
C1445 C 0.76331 0.39104 0.54611 0.0
H1446 H 0.80247 0.42202 0.48199 0.0
H1447 H 0.80165 0.42411 0.53974 0.0
S1448 S 0.70091 0.33952 0.5126 0.0
N1449 N 0.71938 0.35331 0.48086 0.0
N1450 N 0.7185 0.35556 0.54372 0.0
C1451 C 0.7406 0.37361 0.52907 0.0
C1452 C 0.74108 0.37237 0.49472 0.0
C1453 C 0.24289 0.61115 0.57628 0.0
C1454 C 0.26625 0.62828 0.59268 0.0
C1455 C 0.24112 0.61117 0.54271 0.0
C1456 C 0.26262 0.62837 0.52389 0.0
H1457 H 0.22422 0.59967 0.58943 0.0
H1458 H 0.22122 0.59968 0.53168 0.0
S1459 S 0.33291 0.67033 0.55437 0.0
N1460 N 0.3149 0.65777 0.58688 0.0
N1461 N 0.31148 0.6579 0.52411 0.0
C1462 C 0.28822 0.64234 0.53977 0.0
C1463 C 0.29012 0.64219 0.574 0.0
C1464 C 0.28921 0.17704 0.3549 0.0
C1465 C 0.30377 0.16026 0.38017 0.0
C1466 C 0.25711 0.17324 0.34779 0.0
C1467 C 0.23789 0.15286 0.36591 0.0
H1468 H 0.3029 0.19266 0.33983 0.0
H1469 H 0.24712 0.18703 0.32836 0.0
S1470 S 0.26412 0.10353 0.43476 0.0
N1471 N 0.29618 0.12215 0.42319 0.0
N1472 N 0.23594 0.1158 0.4105 0.0
C1473 C 0.25205 0.13617 0.39142 0.0
C1474 C 0.28485 0.13965 0.39835 0.0
C1475 C 0.40506 0.6878 0.8593 0.0
C1476 C 0.38283 0.66415 0.86673 0.0
C1477 C 0.39968 0.7203 0.86658 0.0
C1478 C 0.37159 0.73096 0.88119 0.0
H1479 H 0.42718 0.68113 0.84824 0.0
H1480 H 0.41751 0.73737 0.86003 0.0
S1481 S 0.30615 0.67924 0.90713 0.0
N1482 N 0.33177 0.65417 0.89095 0.0
N1483 N 0.32157 0.71507 0.90356 0.0
C1484 C 0.34911 0.70775 0.88872 0.0
C1485 C 0.35474 0.67453 0.88181 0.0
C1486 C 0.71628 0.80807 0.33539 0.0
C1487 C 0.70169 0.82303 0.36182 0.0
C1488 C 0.74843 0.81223 0.3285 0.0
C1489 C 0.76773 0.83136 0.34783 0.0
H1490 H 0.70263 0.79352 0.3193 0.0
H1491 H 0.75829 0.79987 0.30805 0.0
S1492 S 0.74155 0.87583 0.4201 0.0
N1493 N 0.70954 0.8579 0.40749 0.0
N1494 N 0.76959 0.86541 0.39481 0.0
C1495 C 0.75353 0.8463 0.37447 0.0
C1496 C 0.72075 0.84221 0.38139 0.0
C1497 C 0.59773 0.28544 0.90739 0.0
C1498 C 0.62942 0.27505 0.90822 0.0
C1499 C 0.58939 0.31761 0.90161 0.0
C1500 C 0.61231 0.34109 0.89659 0.0
H1501 H 0.579 0.26854 0.91117 0.0
H1502 H 0.56475 0.32427 0.902 0.0
S1503 S 0.69839 0.3267 0.89314 0.0
N1504 N 0.68374 0.29126 0.90121 0.0
N1505 N 0.66802 0.35145 0.89109 0.0
C1506 C 0.64401 0.33113 0.89688 0.0
C1507 C 0.65255 0.29831 0.90249 0.0
C1508 C 0.26245 0.87771 0.5947 0.0
C1509 C 0.2845 0.89152 0.61539 0.0
C1510 C 0.22985 0.88148 0.59975 0.0
C1511 C 0.21761 0.89978 0.62535 0.0
H1512 H 0.27039 0.8643 0.57405 0.0
H1513 H 0.21408 0.87096 0.58256 0.0
S1514 S 0.26482 0.94001 0.68744 0.0
N1515 N 0.29123 0.92325 0.66371 0.0
N1516 N 0.23029 0.93086 0.67228 0.0
C1517 C 0.23927 0.91323 0.64656 0.0
C1518 C 0.2725 0.90892 0.64186 0.0
C1519 C 0.64421 0.76189 0.15913 0.0
C1520 C 0.66837 0.73961 0.16569 0.0
C1521 C 0.65063 0.79383 0.15134 0.0
C1522 C 0.68157 0.80563 0.15018 0.0
H1523 H 0.61992 0.75444 0.15901 0.0
H1524 H 0.63083 0.80955 0.14655 0.0
S1525 S 0.75368 0.75778 0.16635 0.0
N1526 N 0.72489 0.73199 0.17071 0.0
N1527 N 0.73677 0.79228 0.15723 0.0
C1528 C 0.70605 0.7839 0.1574 0.0
C1529 C 0.69952 0.75099 0.16479 0.0
C1530 C 0.7826 0.14638 0.66699 0.0
C1531 C 0.80519 0.15267 0.64324 0.0
C1532 C 0.75016 0.15183 0.6617 0.0
C1533 C 0.73846 0.16329 0.63214 0.0
H1534 H 0.78997 0.13667 0.68977 0.0
H1535 H 0.73402 0.14583 0.68073 0.0
S1536 S 0.78751 0.1829 0.56165 0.0
N1537 N 0.81318 0.1713 0.58885 0.0
N1538 N 0.75275 0.18079 0.57889 0.0
C1539 C 0.76088 0.17018 0.60841 0.0
C1540 C 0.79393 0.16507 0.61394 0.0
C1541 C 0.32734 0.24166 0.14032 0.0
C1542 C 0.34701 0.22279 0.12045 0.0
C1543 C 0.3338 0.27423 0.14654 0.0
C1544 C 0.36067 0.28903 0.13385 0.0
H1545 H 0.30727 0.231 0.15192 0.0
H1546 H 0.31808 0.28767 0.16195 0.0
S1547 S 0.41696 0.2523 0.0765 0.0
N1548 N 0.39251 0.22324 0.08519 0.0
N1549 N 0.40487 0.28334 0.09757 0.0
C1550 C 0.37968 0.27086 0.11299 0.0
C1551 C 0.37284 0.23815 0.10615 0.0
C1552 C 0.11803 0.45937 0.21804 0.0
C1553 C 0.08943 0.44836 0.20521 0.0
C1554 C 0.12378 0.4592 0.25114 0.0
C1555 C 0.10109 0.44826 0.27289 0.0
H1556 H 0.1359 0.46904 0.2025 0.0
H1557 H 0.14603 0.46806 0.25975 0.0
S1558 S 0.02359 0.41383 0.25149 0.0
N1559 N 0.03925 0.424 0.21699 0.0
N1560 N 0.04961 0.42385 0.27872 0.0
C1561 C 0.07275 0.43633 0.26025 0.0
C1562 C 0.06707 0.4363 0.22663 0.0
C1563 C 0.25854 0.67411 0.79546 0.0
C1564 C 0.23428 0.67886 0.77306 0.0
C1565 C 0.25336 0.6789 0.82852 0.0
C1566 C 0.22413 0.68997 0.84035 0.0
H1567 H 0.28143 0.66583 0.78751 0.0
H1568 H 0.27236 0.67375 0.84488 0.0
S1569 S 0.15337 0.70749 0.79129 0.0
N1570 N 0.18011 0.69578 0.76512 0.0
N1571 N 0.17082 0.70593 0.82641 0.0
C1572 C 0.20006 0.69569 0.81793 0.0
C1573 C 0.20502 0.68987 0.78459 0.0
C1574 C 0.9289 0.55978 0.22987 0.0
C1575 C 0.95688 0.57347 0.21834 0.0
C1576 C 0.92392 0.5545 0.26265 0.0
C1577 C 0.94666 0.56273 0.28549 0.0
H1578 H 0.91076 0.55254 0.21335 0.0
H1579 H 0.90188 0.54418 0.27012 0.0
S1580 S 0.02292 0.60188 0.26794 0.0
N1581 N 1.00694 0.59655 0.23249 0.0
N1582 N 0.99786 0.58698 0.2939 0.0
C1583 C 0.97469 0.57677 0.2742 0.0
C1584 C 0.97972 0.58205 0.24078 0.0
C1585 C 0.79309 0.33612 0.78251 0.0
C1586 C 0.82423 0.33409 0.79404 0.0
C1587 C 0.78643 0.34293 0.75003 0.0
C1588 C 0.81053 0.34929 0.72777 0.0
H1589 H 0.77365 0.33229 0.79872 0.0
H1590 H 0.76214 0.34362 0.7424 0.0
S1591 S 0.89607 0.34771 0.74555 0.0
N1592 N 0.87938 0.33906 0.78002 0.0
N1593 N 0.86698 0.35279 0.72 0.0
C1594 C 0.84171 0.34763 0.73912 0.0
C1595 C 0.8485 0.33983 0.77184 0.0
C1596 C 0.73764 0.8914 0.59976 0.0
C1597 C 0.71882 0.8715 0.6188 0.0
C1598 C 0.76959 0.89608 0.60654 0.0
C1599 C 0.78461 0.88044 0.63217 0.0
H1600 H 0.72734 0.90442 0.57996 0.0
H1601 H 0.78284 0.91175 0.59109 0.0
S1602 S 0.74647 0.82497 0.68891 0.0
N1603 N 0.7177 0.83615 0.66476 0.0
N1604 N 0.77832 0.84334 0.67619 0.0
C1605 C 0.76639 0.85981 0.65099 0.0
C1606 C 0.73341 0.85586 0.64472 0.0
C1607 C 0.626 0.25382 0.1265 0.0
C1608 C 0.6559 0.24555 0.11409 0.0
C1609 C 0.61687 0.28576 0.13216 0.0
C1610 C 0.63694 0.31139 0.1253 0.0
H1611 H 0.60952 0.23536 0.13279 0.0
H1612 H 0.59362 0.29035 0.14174 0.0
S1613 S 0.71757 0.30346 0.09151 0.0
N1614 N 0.70555 0.26623 0.09485 0.0
N1615 N 0.68826 0.32611 0.10453 0.0
C1616 C 0.66679 0.30363 0.11234 0.0
C1617 C 0.67628 0.27092 0.10703 0.0
C1618 C 0.25745 0.14055 0.65763 0.0
C1619 C 0.23672 0.16703 0.65672 0.0
C1620 C 0.28966 0.14352 0.65054 0.0
C1621 C 0.30282 0.17296 0.64158 0.0
H1622 H 0.24864 0.11701 0.6631 0.0
H1623 H 0.30429 0.1222 0.65112 0.0
S1624 S 0.26023 0.25046 0.63842 0.0
N1625 N 0.23293 0.22458 0.64854 0.0
N1626 N 0.29314 0.22958 0.63436 0.0
C1627 C 0.28283 0.19983 0.64137 0.0
C1628 C 0.25 0.19701 0.64921 0.0
C1629 C 0.35641 0.7573 0.07881 0.0
C1630 C 0.37941 0.78072 0.07311 0.0
C1631 C 0.36461 0.72497 0.08434 0.0
C1632 C 0.39623 0.71452 0.08498 0.0
H1633 H 0.33183 0.7641 0.08017 0.0
H1634 H 0.346 0.70817 0.08898 0.0
S1635 S 0.46534 0.76488 0.0671 0.0
N1636 N 0.43517 0.78985 0.06495 0.0
N1637 N 0.45043 0.72985 0.0763 0.0
C1638 C 0.41934 0.73736 0.07809 0.0
C1639 C 0.41099 0.77011 0.07189 0.0
C1640 C 0.75432 0.09989 0.40701 0.0
C1641 C 0.73968 0.12988 0.40173 0.0
C1642 C 0.78629 0.09425 0.39911 0.0
C1643 C 0.80453 0.11789 0.38419 0.0
H1644 H 0.74093 0.08057 0.41726 0.0
H1645 H 0.79664 0.0711 0.40427 0.0
S1646 S 0.77805 0.20066 0.36563 0.0
N1647 N 0.74684 0.18374 0.38142 0.0
N1648 N 0.80578 0.17286 0.36574 0.0
C1649 C 0.79019 0.14791 0.37891 0.0
C1650 C 0.75816 0.15396 0.38783 0.0
C1651 C 0.32225 0.22374 0.87514 0.0
C1652 C 0.35243 0.23715 0.87225 0.0
C1653 C 0.31808 0.19093 0.88216 0.0
C1654 C 0.34389 0.17005 0.88731 0.0
H1655 H 0.30159 0.23864 0.87171 0.0
H1656 H 0.2944 0.18182 0.88323 0.0
S1657 S 0.42806 0.1933 0.88416 0.0
N1658 N 0.40863 0.22657 0.87611 0.0
N1659 N 0.40095 0.16606 0.8897 0.0
C1660 C 0.37417 0.18344 0.88518 0.0
C1661 C 0.37838 0.21653 0.87755 0.0
C1662 C 0.21787 0.87013 0.36902 0.0
C1663 C 0.20121 0.8498 0.34824 0.0
C1664 C 0.25014 0.86511 0.37577 0.0
C1665 C 0.26695 0.83891 0.36292 0.0
H1666 H 0.20584 0.88995 0.38047 0.0
H1667 H 0.2619 0.88167 0.39146 0.0
S1668 S 0.23532 0.77951 0.30578 0.0
N1669 N 0.20516 0.80324 0.31363 0.0
N1670 N 0.26473 0.79344 0.327 0.0
C1671 C 0.25069 0.81867 0.34188 0.0
C1672 C 0.21823 0.8242 0.33438 0.0
C1673 C 0.6764 0.78527 0.89217 0.0
C1674 C 0.64593 0.77225 0.89155 0.0
C1675 C 0.68136 0.81811 0.89797 0.0
C1676 C 0.65612 0.83943 0.90386 0.0
H1677 H 0.69668 0.77001 0.88806 0.0
H1678 H 0.70519 0.82688 0.89729 0.0
S1679 S 0.57163 0.81738 0.90675 0.0
N1680 N 0.59014 0.78363 0.89842 0.0
N1681 N 0.59935 0.84438 0.90979 0.0
C1682 C 0.62558 0.8265 0.904 0.0
C1683 C 0.62053 0.79331 0.89769 0.0
C1684 C 0.91866 0.5794 0.77469 0.0
C1685 C 0.94943 0.57952 0.78714 0.0
C1686 C 0.91289 0.57478 0.742 0.0
C1687 C 0.93766 0.57029 0.7201 0.0
H1688 H 0.8986 0.58259 0.79038 0.0
H1689 H 0.88881 0.5756 0.7338 0.0
S1690 S 0.02278 0.56824 0.74009 0.0
N1691 N 1.00508 0.57427 0.77468 0.0
N1692 N 0.99439 0.56584 0.71344 0.0
C1693 C 0.96859 0.57004 0.73222 0.0
C1694 C 0.97445 0.57463 0.76557 0.0
C1695 C 0.78369 0.34121 0.27099 0.0
C1696 C 0.80566 0.35424 0.29259 0.0
C1697 C 0.79142 0.33528 0.23853 0.0
C1698 C 0.82181 0.34098 0.22649 0.0
H1699 H 0.76037 0.33526 0.27926 0.0
H1700 H 0.77369 0.32548 0.22294 0.0
S1701 S 0.88761 0.37666 0.27165 0.0
N1702 N 0.85884 0.37449 0.29797 0.0
N1703 N 0.87337 0.36189 0.23821 0.0
C1704 C 0.84375 0.35435 0.24754 0.0
C1705 C 0.83571 0.36132 0.28013 0.0
C1706 C 0.10376 0.47791 0.76302 0.0
C1707 C 0.07308 0.47716 0.77566 0.0
C1708 C 0.10936 0.48044 0.73009 0.0
C1709 C 0.08442 0.48208 0.70806 0.0
H1710 H 0.12403 0.4764 0.77873 0.0
H1711 H 0.13338 0.47989 0.72186 0.0
S1712 S 0.99938 0.48276 0.72855 0.0
N1713 N 0.0173 0.47979 0.76337 0.0
N1714 N 0.02759 0.48425 0.70154 0.0
C1715 C 0.05355 0.48233 0.72039 0.0
C1716 C 0.04784 0.4799 0.75404 0.0
C1717 C 0.24045 0.68515 0.32322 0.0
C1718 C 0.24018 0.65512 0.33859 0.0
C1719 C 0.2329 0.68848 0.29062 0.0
C1720 C 0.22551 0.66192 0.27161 0.0
H1721 H 0.24487 0.7066 0.33685 0.0
H1722 H 0.23228 0.71216 0.2803 0.0
S1723 S 0.22336 0.57772 0.29932 0.0
N1724 N 0.23288 0.59811 0.33157 0.0
N1725 N 0.21982 0.60424 0.27034 0.0
C1726 C 0.22667 0.63158 0.28621 0.0
C1727 C 0.23368 0.62824 0.3196 0.0
loop_
_geom_bond_atom_site_label_1
_geom_bond_atom_site_label_2
_geom_bond_distance
_geom_bond_site_symmetry_2
_ccdc_geom_bond_type
Zn0 O3 2.031 . S
Zn0 O5 2.049 . S
Zn0 O10 2.067 . S
Zn1 O2 1.962 . S
Zn1 O4 1.986 . S
Zn1 O6 1.996 . S
Zn1 O9 1.943 . S
O2 Zn1 1.962 . S
O2 C7 1.254 . S
O3 Zn0 2.031 . S
O3 C7 1.269 . S
O4 Zn1 1.986 . S
O4 C11 1.262 . S
O5 Zn0 2.049 . S
O5 C13 1.260 . S
O6 Zn1 1.996 . S
O6 C13 1.257 . S
C7 O2 1.254 . S
C7 O3 1.269 . S
C8 O9 1.249 . S
C8 O10 1.270 . S
O9 Zn1 1.943 . S
O9 C8 1.249 . S
O10 Zn0 2.067 . S
O10 C8 1.270 . S
C11 O4 1.262 . S
C11 O12 1.232 . S
O12 C11 1.232 . S
C13 O5 1.260 . S
C13 O6 1.257 . S
Zn14 O17 2.031 . S
Zn14 O19 2.049 . S
Zn14 O24 2.067 . S
Zn15 O16 1.962 . S
Zn15 O18 1.986 . S
Zn15 O20 1.996 . S
Zn15 O23 1.943 . S
O16 Zn15 1.962 . S
O16 C21 1.254 . S
O17 Zn14 2.031 . S
O17 C21 1.269 . S
O18 Zn15 1.986 . S
O18 C25 1.262 . S
O19 Zn14 2.049 . S
O19 C27 1.260 . S
O20 Zn15 1.996 . S
O20 C27 1.257 . S
C21 O16 1.254 . S
C21 O17 1.269 . S
C22 O23 1.249 . S
C22 O24 1.270 . S
O23 Zn15 1.943 . S
O23 C22 1.249 . S
O24 Zn14 2.067 . S
O24 C22 1.270 . S
C25 O18 1.262 . S
C25 O26 1.232 . S
O26 C25 1.232 . S
C27 O19 1.260 . S
C27 O20 1.257 . S
Zn28 O31 2.031 . S
Zn28 O33 2.049 . S
Zn28 O38 2.067 . S
Zn29 O30 1.962 . S
Zn29 O32 1.986 . S
Zn29 O34 1.996 . S
Zn29 O37 1.943 . S
O30 Zn29 1.962 . S
O30 C35 1.254 . S
O31 Zn28 2.031 . S
O31 C35 1.269 . S
O32 Zn29 1.986 . S
O32 C39 1.262 . S
O33 Zn28 2.049 . S
O33 C41 1.260 . S
O34 Zn29 1.996 . S
O34 C41 1.257 . S
C35 O30 1.254 . S
C35 O31 1.269 . S
C36 O37 1.249 . S
C36 O38 1.270 . S
O37 Zn29 1.943 . S
O37 C36 1.249 . S
O38 Zn28 2.067 . S
O38 C36 1.270 . S
C39 O32 1.262 . S
C39 O40 1.232 . S
O40 C39 1.232 . S
C41 O33 1.260 . S
C41 O34 1.257 . S
Zn42 O45 2.031 . S
Zn42 O47 2.049 . S
Zn42 O52 2.067 . S
Zn43 O44 1.962 . S
Zn43 O46 1.986 . S
Zn43 O48 1.996 . S
Zn43 O51 1.943 . S
O44 Zn43 1.962 . S
O44 C49 1.254 . S
O45 Zn42 2.031 . S
O45 C49 1.269 . S
O46 Zn43 1.986 . S
O46 C53 1.262 . S
O47 Zn42 2.049 . S
O47 C55 1.260 . S
O48 Zn43 1.996 . S
O48 C55 1.257 . S
C49 O44 1.254 . S
C49 O45 1.269 . S
C50 O51 1.249 . S
C50 O52 1.270 . S
O51 Zn43 1.943 . S
O51 C50 1.249 . S
O52 Zn42 2.067 . S
O52 C50 1.270 . S
C53 O46 1.262 . S
C53 O54 1.232 . S
O54 C53 1.232 . S
C55 O47 1.260 . S
C55 O48 1.257 . S
Zn56 O59 2.031 . S
Zn56 O61 2.049 . S
Zn56 O66 2.067 . S
Zn57 O58 1.962 . S
Zn57 O60 1.986 . S
Zn57 O62 1.996 . S
Zn57 O65 1.943 . S
O58 Zn57 1.962 . S
O58 C63 1.254 . S
O59 Zn56 2.031 . S
O59 C63 1.269 . S
O60 Zn57 1.986 . S
O60 C67 1.262 . S
O61 Zn56 2.049 . S
O61 C69 1.260 . S
O62 Zn57 1.996 . S
O62 C69 1.257 . S
C63 O58 1.254 . S
C63 O59 1.269 . S
C64 O65 1.249 . S
C64 O66 1.270 . S
O65 Zn57 1.943 . S
O65 C64 1.249 . S
O66 Zn56 2.067 . S
O66 C64 1.270 . S
C67 O60 1.262 . S
C67 O68 1.232 . S
O68 C67 1.232 . S
C69 O61 1.260 . S
C69 O62 1.257 . S
Zn70 O73 2.031 . S
Zn70 O75 2.049 . S
Zn70 O80 2.067 . S
Zn71 O72 1.962 . S
Zn71 O74 1.986 . S
Zn71 O76 1.996 . S
Zn71 O79 1.943 . S
O72 Zn71 1.962 . S
O72 C77 1.254 . S
O73 Zn70 2.031 . S
O73 C77 1.269 . S
O74 Zn71 1.986 . S
O74 C81 1.262 . S
O75 Zn70 2.049 . S
O75 C83 1.260 . S
O76 Zn71 1.996 . S
O76 C83 1.257 . S
C77 O72 1.254 . S
C77 O73 1.269 . S
C78 O79 1.249 . S
C78 O80 1.270 . S
O79 Zn71 1.943 . S
O79 C78 1.249 . S
O80 Zn70 2.067 . S
O80 C78 1.270 . S
C81 O74 1.262 . S
C81 O82 1.232 . S
O82 C81 1.232 . S
C83 O75 1.260 . S
C83 O76 1.257 . S
Zn84 O87 2.031 . S
Zn84 O89 2.049 . S
Zn84 O94 2.067 . S
Zn85 O86 1.962 . S
Zn85 O88 1.986 . S
Zn85 O90 1.996 . S
Zn85 O93 1.943 . S
O86 Zn85 1.962 . S
O86 C91 1.254 . S
O87 Zn84 2.031 . S
O87 C91 1.269 . S
O88 Zn85 1.986 . S
O88 C95 1.262 . S
O89 Zn84 2.049 . S
O89 C97 1.260 . S
O90 Zn85 1.996 . S
O90 C97 1.257 . S
C91 O86 1.254 . S
C91 O87 1.269 . S
C92 O93 1.249 . S
C92 O94 1.270 . S
O93 Zn85 1.943 . S
O93 C92 1.249 . S
O94 Zn84 2.067 . S
O94 C92 1.270 . S
C95 O88 1.262 . S
C95 O96 1.232 . S
O96 C95 1.232 . S
C97 O89 1.260 . S
C97 O90 1.257 . S
Zn98 O101 2.031 . S
Zn98 O103 2.049 . S
Zn98 O108 2.067 . S
Zn99 O100 1.962 . S
Zn99 O102 1.986 . S
Zn99 O104 1.996 . S
Zn99 O107 1.943 . S
O100 Zn99 1.962 . S
O100 C105 1.254 . S
O101 Zn98 2.031 . S
O101 C105 1.269 . S
O102 Zn99 1.986 . S
O102 C109 1.262 . S
O103 Zn98 2.049 . S
O103 C111 1.260 . S
O104 Zn99 1.996 . S
O104 C111 1.257 . S
C105 O100 1.254 . S
C105 O101 1.269 . S
C106 O107 1.249 . S
C106 O108 1.270 . S
O107 Zn99 1.943 . S
O107 C106 1.249 . S
O108 Zn98 2.067 . S
O108 C106 1.270 . S
C109 O102 1.262 . S
C109 O110 1.232 . S
O110 C109 1.232 . S
C111 O103 1.260 . S
C111 O104 1.257 . S
Zn112 O115 2.031 . S
Zn112 O117 2.049 . S
Zn112 O122 2.067 . S
Zn113 O114 1.962 . S
Zn113 O116 1.986 . S
Zn113 O118 1.996 . S
Zn113 O121 1.943 . S
O114 Zn113 1.962 . S
O114 C119 1.254 . S
O115 Zn112 2.031 . S
O115 C119 1.269 . S
O116 Zn113 1.986 . S
O116 C123 1.262 . S
O117 Zn112 2.049 . S
O117 C125 1.260 . S
O118 Zn113 1.996 . S
O118 C125 1.257 . S
C119 O114 1.254 . S
C119 O115 1.269 . S
C120 O121 1.249 . S
C120 O122 1.270 . S
O121 Zn113 1.943 . S
O121 C120 1.249 . S
O122 Zn112 2.067 . S
O122 C120 1.270 . S
C123 O116 1.262 . S
C123 O124 1.232 . S
O124 C123 1.232 . S
C125 O117 1.260 . S
C125 O118 1.257 . S
Zn126 O129 2.031 . S
Zn126 O131 2.049 . S
Zn126 O136 2.067 . S
Zn127 O128 1.962 . S
Zn127 O130 1.986 . S
Zn127 O132 1.996 . S
Zn127 O135 1.943 . S
O128 Zn127 1.962 . S
O128 C133 1.254 . S
O129 Zn126 2.031 . S
O129 C133 1.269 . S
O130 Zn127 1.986 . S
O130 C137 1.262 . S
O131 Zn126 2.049 . S
O131 C139 1.260 . S
O132 Zn127 1.996 . S
O132 C139 1.257 . S
C133 O128 1.254 . S
C133 O129 1.269 . S
C134 O135 1.249 . S
C134 O136 1.270 . S
O135 Zn127 1.943 . S
O135 C134 1.249 . S
O136 Zn126 2.067 . S
O136 C134 1.270 . S
C137 O130 1.262 . S
C137 O138 1.232 . S
O138 C137 1.232 . S
C139 O131 1.260 . S
C139 O132 1.257 . S
Zn140 O143 2.031 . S
Zn140 O145 2.049 . S
Zn140 O150 2.067 . S
Zn141 O142 1.962 . S
Zn141 O144 1.986 . S
Zn141 O146 1.996 . S
Zn141 O149 1.943 . S
O142 Zn141 1.962 . S
O142 C147 1.254 . S
O143 Zn140 2.031 . S
O143 C147 1.269 . S
O144 Zn141 1.986 . S
O144 C151 1.262 . S
O145 Zn140 2.049 . S
O145 C153 1.260 . S
O146 Zn141 1.996 . S
O146 C153 1.257 . S
C147 O142 1.254 . S
C147 O143 1.269 . S
C148 O149 1.249 . S
C148 O150 1.270 . S
O149 Zn141 1.943 . S
O149 C148 1.249 . S
O150 Zn140 2.067 . S
O150 C148 1.270 . S
C151 O144 1.262 . S
C151 O152 1.232 . S
O152 C151 1.232 . S
C153 O145 1.260 . S
C153 O146 1.257 . S
Zn154 O157 2.031 . S
Zn154 O159 2.049 . S
Zn154 O164 2.067 . S
Zn155 O156 1.962 . S
Zn155 O158 1.986 . S
Zn155 O160 1.996 . S
Zn155 O163 1.943 . S
O156 Zn155 1.962 . S
O156 C161 1.254 . S
O157 Zn154 2.031 . S
O157 C161 1.269 . S
O158 Zn155 1.986 . S
O158 C165 1.262 . S
O159 Zn154 2.049 . S
O159 C167 1.260 . S
O160 Zn155 1.996 . S
O160 C167 1.257 . S
C161 O156 1.254 . S
C161 O157 1.269 . S
C162 O163 1.249 . S
C162 O164 1.270 . S
O163 Zn155 1.943 . S
O163 C162 1.249 . S
O164 Zn154 2.067 . S
O164 C162 1.270 . S
C165 O158 1.262 . S
C165 O166 1.232 . S
O166 C165 1.232 . S
C167 O159 1.260 . S
C167 O160 1.257 . S
Zn168 O171 2.031 . S
Zn168 O173 2.049 . S
Zn168 O178 2.067 . S
Zn169 O170 1.962 . S
Zn169 O172 1.986 . S
Zn169 O174 1.996 . S
Zn169 O177 1.943 . S
O170 Zn169 1.962 . S
O170 C175 1.254 . S
O171 Zn168 2.031 . S
O171 C175 1.269 . S
O172 Zn169 1.986 . S
O172 C179 1.262 . S
O173 Zn168 2.049 . S
O173 C181 1.260 . S
O174 Zn169 1.996 . S
O174 C181 1.257 . S
C175 O170 1.254 . S
C175 O171 1.269 . S
C176 O177 1.249 . S
C176 O178 1.270 . S
O177 Zn169 1.943 . S
O177 C176 1.249 . S
O178 Zn168 2.067 . S
O178 C176 1.270 . S
C179 O172 1.262 . S
C179 O180 1.232 . S
O180 C179 1.232 . S
C181 O173 1.260 . S
C181 O174 1.257 . S
Zn182 O185 2.031 . S
Zn182 O187 2.049 . S
Zn182 O192 2.067 . S
Zn183 O184 1.962 . S
Zn183 O186 1.986 . S
Zn183 O188 1.996 . S
Zn183 O191 1.943 . S
O184 Zn183 1.962 . S
O184 C189 1.254 . S
O185 Zn182 2.031 . S
O185 C189 1.269 . S
O186 Zn183 1.986 . S
O186 C193 1.262 . S
O187 Zn182 2.049 . S
O187 C195 1.260 . S
O188 Zn183 1.996 . S
O188 C195 1.257 . S
C189 O184 1.254 . S
C189 O185 1.269 . S
C190 O191 1.249 . S
C190 O192 1.270 . S
O191 Zn183 1.943 . S
O191 C190 1.249 . S
O192 Zn182 2.067 . S
O192 C190 1.270 . S
C193 O186 1.262 . S
C193 O194 1.232 . S
O194 C193 1.232 . S
C195 O187 1.260 . S
C195 O188 1.257 . S
Zn196 O199 2.031 . S
Zn196 O201 2.049 . S
Zn196 O206 2.067 . S
Zn197 O198 1.962 . S
Zn197 O200 1.986 . S
Zn197 O202 1.996 . S
Zn197 O205 1.943 . S
O198 Zn197 1.962 . S
O198 C203 1.254 . S
O199 Zn196 2.031 . S
O199 C203 1.269 . S
O200 Zn197 1.986 . S
O200 C207 1.262 . S
O201 Zn196 2.049 . S
O201 C209 1.260 . S
O202 Zn197 1.996 . S
O202 C209 1.257 . S
C203 O198 1.254 . S
C203 O199 1.269 . S
C204 O205 1.249 . S
C204 O206 1.270 . S
O205 Zn197 1.943 . S
O205 C204 1.249 . S
O206 Zn196 2.067 . S
O206 C204 1.270 . S
C207 O200 1.262 . S
C207 O208 1.232 . S
O208 C207 1.232 . S
C209 O201 1.260 . S
C209 O202 1.257 . S
Zn210 O213 2.031 . S
Zn210 O215 2.049 . S
Zn210 O220 2.067 . S
Zn211 O212 1.962 . S
Zn211 O214 1.986 . S
Zn211 O216 1.996 . S
Zn211 O219 1.943 . S
O212 Zn211 1.962 . S
O212 C217 1.254 . S
O213 Zn210 2.031 . S
O213 C217 1.269 . S
O214 Zn211 1.986 . S
O214 C221 1.262 . S
O215 Zn210 2.049 . S
O215 C223 1.260 . S
O216 Zn211 1.996 . S
O216 C223 1.257 . S
C217 O212 1.254 . S
C217 O213 1.269 . S
C218 O219 1.249 . S
C218 O220 1.270 . S
O219 Zn211 1.943 . S
O219 C218 1.249 . S
O220 Zn210 2.067 . S
O220 C218 1.270 . S
C221 O214 1.262 . S
C221 O222 1.232 . S
O222 C221 1.232 . S
C223 O215 1.260 . S
C223 O216 1.257 . S
Zn224 O227 2.031 . S
Zn224 O229 2.049 . S
Zn224 O234 2.067 . S
Zn225 O226 1.962 . S
Zn225 O228 1.986 . S
Zn225 O230 1.996 . S
Zn225 O233 1.943 . S
O226 Zn225 1.962 . S
O226 C231 1.254 . S
O227 Zn224 2.031 . S
O227 C231 1.269 . S
O228 Zn225 1.986 . S
O228 C235 1.262 . S
O229 Zn224 2.049 . S
O229 C237 1.260 . S
O230 Zn225 1.996 . S
O230 C237 1.257 . S
C231 O226 1.254 . S
C231 O227 1.269 . S
C232 O233 1.249 . S
C232 O234 1.270 . S
O233 Zn225 1.943 . S
O233 C232 1.249 . S
O234 Zn224 2.067 . S
O234 C232 1.270 . S
C235 O228 1.262 . S
C235 O236 1.232 . S
O236 C235 1.232 . S
C237 O229 1.260 . S
C237 O230 1.257 . S
Zn238 O241 2.031 . S
Zn238 O243 2.049 . S
Zn238 O248 2.067 . S
Zn239 O240 1.962 . S
Zn239 O242 1.986 . S
Zn239 O244 1.996 . S
Zn239 O247 1.943 . S
O240 Zn239 1.962 . S
O240 C245 1.254 . S
O241 Zn238 2.031 . S
O241 C245 1.269 . S
O242 Zn239 1.986 . S
O242 C249 1.262 . S
O243 Zn238 2.049 . S
O243 C251 1.260 . S
O244 Zn239 1.996 . S
O244 C251 1.257 . S
C245 O240 1.254 . S
C245 O241 1.269 . S
C246 O247 1.249 . S
C246 O248 1.270 . S
O247 Zn239 1.943 . S
O247 C246 1.249 . S
O248 Zn238 2.067 . S
O248 C246 1.270 . S
C249 O242 1.262 . S
C249 O250 1.232 . S
O250 C249 1.232 . S
C251 O243 1.260 . S
C251 O244 1.257 . S
Zn252 O255 2.031 . S
Zn252 O257 2.049 . S
Zn252 O262 2.067 . S
Zn253 O254 1.962 . S
Zn253 O256 1.986 . S
Zn253 O258 1.996 . S
Zn253 O261 1.943 . S
O254 Zn253 1.962 . S
O254 C259 1.254 . S
O255 Zn252 2.031 . S
O255 C259 1.269 . S
O256 Zn253 1.986 . S
O256 C263 1.262 . S
O257 Zn252 2.049 . S
O257 C265 1.260 . S
O258 Zn253 1.996 . S
O258 C265 1.257 . S
C259 O254 1.254 . S
C259 O255 1.269 . S
C260 O261 1.249 . S
C260 O262 1.270 . S
O261 Zn253 1.943 . S
O261 C260 1.249 . S
O262 Zn252 2.067 . S
O262 C260 1.270 . S
C263 O256 1.262 . S
C263 O264 1.232 . S
O264 C263 1.232 . S
C265 O257 1.260 . S
C265 O258 1.257 . S
Zn266 O269 2.031 . S
Zn266 O271 2.049 . S
Zn266 O276 2.067 . S
Zn267 O268 1.962 . S
Zn267 O270 1.986 . S
Zn267 O272 1.996 . S
Zn267 O275 1.943 . S
O268 Zn267 1.962 . S
O268 C273 1.254 . S
O269 Zn266 2.031 . S
O269 C273 1.269 . S
O270 Zn267 1.986 . S
O270 C277 1.262 . S
O271 Zn266 2.049 . S
O271 C279 1.260 . S
O272 Zn267 1.996 . S
O272 C279 1.257 . S
C273 O268 1.254 . S
C273 O269 1.269 . S
C274 O275 1.249 . S
C274 O276 1.270 . S
O275 Zn267 1.943 . S
O275 C274 1.249 . S
O276 Zn266 2.067 . S
O276 C274 1.270 . S
C277 O270 1.262 . S
C277 O278 1.232 . S
O278 C277 1.232 . S
C279 O271 1.260 . S
C279 O272 1.257 . S
Zn280 O283 2.031 . S
Zn280 O285 2.049 . S
Zn280 O290 2.067 . S
Zn281 O282 1.962 . S
Zn281 O284 1.986 . S
Zn281 O286 1.996 . S
Zn281 O289 1.943 . S
O282 Zn281 1.962 . S
O282 C287 1.254 . S
O283 Zn280 2.031 . S
O283 C287 1.269 . S
O284 Zn281 1.986 . S
O284 C291 1.262 . S
O285 Zn280 2.049 . S
O285 C293 1.260 . S
O286 Zn281 1.996 . S
O286 C293 1.257 . S
C287 O282 1.254 . S
C287 O283 1.269 . S
C288 O289 1.249 . S
C288 O290 1.270 . S
O289 Zn281 1.943 . S
O289 C288 1.249 . S
O290 Zn280 2.067 . S
O290 C288 1.270 . S
C291 O284 1.262 . S
C291 O292 1.232 . S
O292 C291 1.232 . S
C293 O285 1.260 . S
C293 O286 1.257 . S
Zn294 O297 2.031 . S
Zn294 O299 2.049 . S
Zn294 O304 2.067 . S
Zn295 O296 1.962 . S
Zn295 O298 1.986 . S
Zn295 O300 1.996 . S
Zn295 O303 1.943 . S
O296 Zn295 1.962 . S
O296 C301 1.254 . S
O297 Zn294 2.031 . S
O297 C301 1.269 . S
O298 Zn295 1.986 . S
O298 C305 1.262 . S
O299 Zn294 2.049 . S
O299 C307 1.260 . S
O300 Zn295 1.996 . S
O300 C307 1.257 . S
C301 O296 1.254 . S
C301 O297 1.269 . S
C302 O303 1.249 . S
C302 O304 1.270 . S
O303 Zn295 1.943 . S
O303 C302 1.249 . S
O304 Zn294 2.067 . S
O304 C302 1.270 . S
C305 O298 1.262 . S
C305 O306 1.232 . S
O306 C305 1.232 . S
C307 O299 1.260 . S
C307 O300 1.257 . S
Zn308 O311 2.031 . S
Zn308 O313 2.049 . S
Zn308 O318 2.067 . S
Zn309 O310 1.962 . S
Zn309 O312 1.986 . S
Zn309 O314 1.996 . S
Zn309 O317 1.943 . S
O310 Zn309 1.962 . S
O310 C315 1.254 . S
O311 Zn308 2.031 . S
O311 C315 1.269 . S
O312 Zn309 1.986 . S
O312 C319 1.262 . S
O313 Zn308 2.049 . S
O313 C321 1.260 . S
O314 Zn309 1.996 . S
O314 C321 1.257 . S
C315 O310 1.254 . S
C315 O311 1.269 . S
C316 O317 1.249 . S
C316 O318 1.270 . S
O317 Zn309 1.943 . S
O317 C316 1.249 . S
O318 Zn308 2.067 . S
O318 C316 1.270 . S
C319 O312 1.262 . S
C319 O320 1.232 . S
O320 C319 1.232 . S
C321 O313 1.260 . S
C321 O314 1.257 . S
Zn322 O325 2.031 . S
Zn322 O327 2.049 . S
Zn322 O332 2.067 . S
Zn323 O324 1.962 . S
Zn323 O326 1.986 . S
Zn323 O328 1.996 . S
Zn323 O331 1.943 . S
O324 Zn323 1.962 . S
O324 C329 1.254 . S
O325 Zn322 2.031 . S
O325 C329 1.269 . S
O326 Zn323 1.986 . S
O326 C333 1.262 . S
O327 Zn322 2.049 . S
O327 C335 1.260 . S
O328 Zn323 1.996 . S
O328 C335 1.257 . S
C329 O324 1.254 . S
C329 O325 1.269 . S
C330 O331 1.249 . S
C330 O332 1.270 . S
O331 Zn323 1.943 . S
O331 C330 1.249 . S
O332 Zn322 2.067 . S
O332 C330 1.270 . S
C333 O326 1.262 . S
C333 O334 1.232 . S
O334 C333 1.232 . S
C335 O327 1.260 . S
C335 O328 1.257 . S
Zn336 O339 2.031 . S
Zn336 O341 2.049 . S
Zn336 O346 2.067 . S
Zn337 O338 1.962 . S
Zn337 O340 1.986 . S
Zn337 O342 1.996 . S
Zn337 O345 1.943 . S
O338 Zn337 1.962 . S
O338 C343 1.254 . S
O339 Zn336 2.031 . S
O339 C343 1.269 . S
O340 Zn337 1.986 . S
O340 C347 1.262 . S
O341 Zn336 2.049 . S
O341 C349 1.260 . S
O342 Zn337 1.996 . S
O342 C349 1.257 . S
C343 O338 1.254 . S
C343 O339 1.269 . S
C344 O345 1.249 . S
C344 O346 1.270 . S
O345 Zn337 1.943 . S
O345 C344 1.249 . S
O346 Zn336 2.067 . S
O346 C344 1.270 . S
C347 O340 1.262 . S
C347 O348 1.232 . S
O348 C347 1.232 . S
C349 O341 1.260 . S
C349 O342 1.257 . S
Zn350 O353 2.031 . S
Zn350 O355 2.049 . S
Zn350 O360 2.067 . S
Zn351 O352 1.962 . S
Zn351 O354 1.986 . S
Zn351 O356 1.996 . S
Zn351 O359 1.943 . S
O352 Zn351 1.962 . S
O352 C357 1.254 . S
O353 Zn350 2.031 . S
O353 C357 1.269 . S
O354 Zn351 1.986 . S
O354 C361 1.262 . S
O355 Zn350 2.049 . S
O355 C363 1.260 . S
O356 Zn351 1.996 . S
O356 C363 1.257 . S
C357 O352 1.254 . S
C357 O353 1.269 . S
C358 O359 1.249 . S
C358 O360 1.270 . S
O359 Zn351 1.943 . S
O359 C358 1.249 . S
O360 Zn350 2.067 . S
O360 C358 1.270 . S
C361 O354 1.262 . S
C361 O362 1.232 . S
O362 C361 1.232 . S
C363 O355 1.260 . S
C363 O356 1.257 . S
Zn364 O367 2.031 . S
Zn364 O369 2.049 . S
Zn364 O374 2.067 . S
Zn365 O366 1.962 . S
Zn365 O368 1.986 . S
Zn365 O370 1.996 . S
Zn365 O373 1.943 . S
O366 Zn365 1.962 . S
O366 C371 1.254 . S
O367 Zn364 2.031 . S
O367 C371 1.269 . S
O368 Zn365 1.986 . S
O368 C375 1.262 . S
O369 Zn364 2.049 . S
O369 C377 1.260 . S
O370 Zn365 1.996 . S
O370 C377 1.257 . S
C371 O366 1.254 . S
C371 O367 1.269 . S
C372 O373 1.249 . S
C372 O374 1.270 . S
O373 Zn365 1.943 . S
O373 C372 1.249 . S
O374 Zn364 2.067 . S
O374 C372 1.270 . S
C375 O368 1.262 . S
C375 O376 1.232 . S
O376 C375 1.232 . S
C377 O369 1.260 . S
C377 O370 1.257 . S
Zn378 O381 2.031 . S
Zn378 O383 2.049 . S
Zn378 O388 2.067 . S
Zn379 O380 1.962 . S
Zn379 O382 1.986 . S
Zn379 O384 1.996 . S
Zn379 O387 1.943 . S
O380 Zn379 1.962 . S
O380 C385 1.254 . S
O381 Zn378 2.031 . S
O381 C385 1.269 . S
O382 Zn379 1.986 . S
O382 C389 1.262 . S
O383 Zn378 2.049 . S
O383 C391 1.260 . S
O384 Zn379 1.996 . S
O384 C391 1.257 . S
C385 O380 1.254 . S
C385 O381 1.269 . S
C386 O387 1.249 . S
C386 O388 1.270 . S
O387 Zn379 1.943 . S
O387 C386 1.249 . S
O388 Zn378 2.067 . S
O388 C386 1.270 . S
C389 O382 1.262 . S
C389 O390 1.232 . S
O390 C389 1.232 . S
C391 O383 1.260 . S
C391 O384 1.257 . S
Zn392 O395 2.031 . S
Zn392 O397 2.049 . S
Zn392 O402 2.067 . S
Zn393 O394 1.962 . S
Zn393 O396 1.986 . S
Zn393 O398 1.996 . S
Zn393 O401 1.943 . S
O394 Zn393 1.962 . S
O394 C399 1.254 . S
O395 Zn392 2.031 . S
O395 C399 1.269 . S
O396 Zn393 1.986 . S
O396 C403 1.262 . S
O397 Zn392 2.049 . S
O397 C405 1.260 . S
O398 Zn393 1.996 . S
O398 C405 1.257 . S
C399 O394 1.254 . S
C399 O395 1.269 . S
C400 O401 1.249 . S
C400 O402 1.270 . S
O401 Zn393 1.943 . S
O401 C400 1.249 . S
O402 Zn392 2.067 . S
O402 C400 1.270 . S
C403 O396 1.262 . S
C403 O404 1.232 . S
O404 C403 1.232 . S
C405 O397 1.260 . S
C405 O398 1.257 . S
Zn406 O409 2.031 . S
Zn406 O411 2.049 . S
Zn406 O416 2.067 . S
Zn407 O408 1.962 . S
Zn407 O410 1.986 . S
Zn407 O412 1.996 . S
Zn407 O415 1.943 . S
O408 Zn407 1.962 . S
O408 C413 1.254 . S
O409 Zn406 2.031 . S
O409 C413 1.269 . S
O410 Zn407 1.986 . S
O410 C417 1.262 . S
O411 Zn406 2.049 . S
O411 C419 1.260 . S
O412 Zn407 1.996 . S
O412 C419 1.257 . S
C413 O408 1.254 . S
C413 O409 1.269 . S
C414 O415 1.249 . S
C414 O416 1.270 . S
O415 Zn407 1.943 . S
O415 C414 1.249 . S
O416 Zn406 2.067 . S
O416 C414 1.270 . S
C417 O410 1.262 . S
C417 O418 1.232 . S
O418 C417 1.232 . S
C419 O411 1.260 . S
C419 O412 1.257 . S
Zn420 O423 2.031 . S
Zn420 O425 2.049 . S
Zn420 O430 2.067 . S
Zn421 O422 1.962 . S
Zn421 O424 1.986 . S
Zn421 O426 1.996 . S
Zn421 O429 1.943 . S
O422 Zn421 1.962 . S
O422 C427 1.254 . S
O423 Zn420 2.031 . S
O423 C427 1.269 . S
O424 Zn421 1.986 . S
O424 C431 1.262 . S
O425 Zn420 2.049 . S
O425 C433 1.260 . S
O426 Zn421 1.996 . S
O426 C433 1.257 . S
C427 O422 1.254 . S
C427 O423 1.269 . S
C428 O429 1.249 . S
C428 O430 1.270 . S
O429 Zn421 1.943 . S
O429 C428 1.249 . S
O430 Zn420 2.067 . S
O430 C428 1.270 . S
C431 O424 1.262 . S
C431 O432 1.232 . S
O432 C431 1.232 . S
C433 O425 1.260 . S
C433 O426 1.257 . S
Zn434 O437 2.031 . S
Zn434 O439 2.049 . S
Zn434 O444 2.067 . S
Zn435 O436 1.962 . S
Zn435 O438 1.986 . S
Zn435 O440 1.996 . S
Zn435 O443 1.943 . S
O436 Zn435 1.962 . S
O436 C441 1.254 . S
O437 Zn434 2.031 . S
O437 C441 1.269 . S
O438 Zn435 1.986 . S
O438 C445 1.262 . S
O439 Zn434 2.049 . S
O439 C447 1.260 . S
O440 Zn435 1.996 . S
O440 C447 1.257 . S
C441 O436 1.254 . S
C441 O437 1.269 . S
C442 O443 1.249 . S
C442 O444 1.270 . S
O443 Zn435 1.943 . S
O443 C442 1.249 . S
O444 Zn434 2.067 . S
O444 C442 1.270 . S
C445 O438 1.262 . S
C445 O446 1.232 . S
O446 C445 1.232 . S
C447 O439 1.260 . S
C447 O440 1.257 . S
Zn448 O451 2.031 . S
Zn448 O453 2.049 . S
Zn448 O458 2.067 . S
Zn449 O450 1.962 . S
Zn449 O452 1.986 . S
Zn449 O454 1.996 . S
Zn449 O457 1.943 . S
O450 Zn449 1.962 . S
O450 C455 1.254 . S
O451 Zn448 2.031 . S
O451 C455 1.269 . S
O452 Zn449 1.986 . S
O452 C459 1.262 . S
O453 Zn448 2.049 . S
O453 C461 1.260 . S
O454 Zn449 1.996 . S
O454 C461 1.257 . S
C455 O450 1.254 . S
C455 O451 1.269 . S
C456 O457 1.249 . S
C456 O458 1.270 . S
O457 Zn449 1.943 . S
O457 C456 1.249 . S
O458 Zn448 2.067 . S
O458 C456 1.270 . S
C459 O452 1.262 . S
C459 O460 1.232 . S
O460 C459 1.232 . S
C461 O453 1.260 . S
C461 O454 1.257 . S
Zn462 O465 2.031 . S
Zn462 O467 2.049 . S
Zn462 O472 2.067 . S
Zn463 O464 1.962 . S
Zn463 O466 1.986 . S
Zn463 O468 1.996 . S
Zn463 O471 1.943 . S
O464 Zn463 1.962 . S
O464 C469 1.254 . S
O465 Zn462 2.031 . S
O465 C469 1.269 . S
O466 Zn463 1.986 . S
O466 C473 1.262 . S
O467 Zn462 2.049 . S
O467 C475 1.260 . S
O468 Zn463 1.996 . S
O468 C475 1.257 . S
C469 O464 1.254 . S
C469 O465 1.269 . S
C470 O471 1.249 . S
C470 O472 1.270 . S
O471 Zn463 1.943 . S
O471 C470 1.249 . S
O472 Zn462 2.067 . S
O472 C470 1.270 . S
C473 O466 1.262 . S
C473 O474 1.232 . S
O474 C473 1.232 . S
C475 O467 1.260 . S
C475 O468 1.257 . S
Zn476 O479 2.031 . S
Zn476 O481 2.049 . S
Zn476 O486 2.067 . S
Zn477 O478 1.962 . S
Zn477 O480 1.986 . S
Zn477 O482 1.996 . S
Zn477 O485 1.943 . S
O478 Zn477 1.962 . S
O478 C483 1.254 . S
O479 Zn476 2.031 . S
O479 C483 1.269 . S
O480 Zn477 1.986 . S
O480 C487 1.262 . S
O481 Zn476 2.049 . S
O481 C489 1.260 . S
O482 Zn477 1.996 . S
O482 C489 1.257 . S
C483 O478 1.254 . S
C483 O479 1.269 . S
C484 O485 1.249 . S
C484 O486 1.270 . S
O485 Zn477 1.943 . S
O485 C484 1.249 . S
O486 Zn476 2.067 . S
O486 C484 1.270 . S
C487 O480 1.262 . S
C487 O488 1.232 . S
O488 C487 1.232 . S
C489 O481 1.260 . S
C489 O482 1.257 . S
Zn490 O493 2.031 . S
Zn490 O495 2.049 . S
Zn490 O500 2.067 . S
Zn491 O492 1.962 . S
Zn491 O494 1.986 . S
Zn491 O496 1.996 . S
Zn491 O499 1.943 . S
O492 Zn491 1.962 . S
O492 C497 1.254 . S
O493 Zn490 2.031 . S
O493 C497 1.269 . S
O494 Zn491 1.986 . S
O494 C501 1.262 . S
O495 Zn490 2.049 . S
O495 C503 1.260 . S
O496 Zn491 1.996 . S
O496 C503 1.257 . S
C497 O492 1.254 . S
C497 O493 1.269 . S
C498 O499 1.249 . S
C498 O500 1.270 . S
O499 Zn491 1.943 . S
O499 C498 1.249 . S
O500 Zn490 2.067 . S
O500 C498 1.270 . S
C501 O494 1.262 . S
C501 O502 1.232 . S
O502 C501 1.232 . S
C503 O495 1.260 . S
C503 O496 1.257 . S
Zn504 O507 2.031 . S
Zn504 O509 2.049 . S
Zn504 O514 2.067 . S
Zn505 O506 1.962 . S
Zn505 O508 1.986 . S
Zn505 O510 1.996 . S
Zn505 O513 1.943 . S
O506 Zn505 1.962 . S
O506 C511 1.254 . S
O507 Zn504 2.031 . S
O507 C511 1.269 . S
O508 Zn505 1.986 . S
O508 C515 1.262 . S
O509 Zn504 2.049 . S
O509 C517 1.260 . S
O510 Zn505 1.996 . S
O510 C517 1.257 . S
C511 O506 1.254 . S
C511 O507 1.269 . S
C512 O513 1.249 . S
C512 O514 1.270 . S
O513 Zn505 1.943 . S
O513 C512 1.249 . S
O514 Zn504 2.067 . S
O514 C512 1.270 . S
C515 O508 1.262 . S
C515 O516 1.232 . S
O516 C515 1.232 . S
C517 O509 1.260 . S
C517 O510 1.257 . S
Zn518 O521 2.031 . S
Zn518 O523 2.049 . S
Zn518 O528 2.067 . S
Zn519 O520 1.962 . S
Zn519 O522 1.986 . S
Zn519 O524 1.996 . S
Zn519 O527 1.943 . S
O520 Zn519 1.962 . S
O520 C525 1.254 . S
O521 Zn518 2.031 . S
O521 C525 1.269 . S
O522 Zn519 1.986 . S
O522 C529 1.262 . S
O523 Zn518 2.049 . S
O523 C531 1.260 . S
O524 Zn519 1.996 . S
O524 C531 1.257 . S
C525 O520 1.254 . S
C525 O521 1.269 . S
C526 O527 1.249 . S
C526 O528 1.270 . S
O527 Zn519 1.943 . S
O527 C526 1.249 . S
O528 Zn518 2.067 . S
O528 C526 1.270 . S
C529 O522 1.262 . S
C529 O530 1.232 . S
O530 C529 1.232 . S
C531 O523 1.260 . S
C531 O524 1.257 . S
Zn532 O535 2.031 . S
Zn532 O537 2.049 . S
Zn532 O542 2.067 . S
Zn533 O534 1.962 . S
Zn533 O536 1.986 . S
Zn533 O538 1.996 . S
Zn533 O541 1.943 . S
O534 Zn533 1.962 . S
O534 C539 1.254 . S
O535 Zn532 2.031 . S
O535 C539 1.269 . S
O536 Zn533 1.986 . S
O536 C543 1.262 . S
O537 Zn532 2.049 . S
O537 C545 1.260 . S
O538 Zn533 1.996 . S
O538 C545 1.257 . S
C539 O534 1.254 . S
C539 O535 1.269 . S
C540 O541 1.249 . S
C540 O542 1.270 . S
O541 Zn533 1.943 . S
O541 C540 1.249 . S
O542 Zn532 2.067 . S
O542 C540 1.270 . S
C543 O536 1.262 . S
C543 O544 1.232 . S
O544 C543 1.232 . S
C545 O537 1.260 . S
C545 O538 1.257 . S
Zn546 O549 2.031 . S
Zn546 O551 2.049 . S
Zn546 O556 2.067 . S
Zn547 O548 1.962 . S
Zn547 O550 1.986 . S
Zn547 O552 1.996 . S
Zn547 O555 1.943 . S
O548 Zn547 1.962 . S
O548 C553 1.254 . S
O549 Zn546 2.031 . S
O549 C553 1.269 . S
O550 Zn547 1.986 . S
O550 C557 1.262 . S
O551 Zn546 2.049 . S
O551 C559 1.260 . S
O552 Zn547 1.996 . S
O552 C559 1.257 . S
C553 O548 1.254 . S
C553 O549 1.269 . S
C554 O555 1.249 . S
C554 O556 1.270 . S
O555 Zn547 1.943 . S
O555 C554 1.249 . S
O556 Zn546 2.067 . S
O556 C554 1.270 . S
C557 O550 1.262 . S
C557 O558 1.232 . S
O558 C557 1.232 . S
C559 O551 1.260 . S
C559 O552 1.257 . S
Zn560 O563 2.031 . S
Zn560 O565 2.049 . S
Zn560 O570 2.067 . S
Zn561 O562 1.962 . S
Zn561 O564 1.986 . S
Zn561 O566 1.996 . S
Zn561 O569 1.943 . S
O562 Zn561 1.962 . S
O562 C567 1.254 . S
O563 Zn560 2.031 . S
O563 C567 1.269 . S
O564 Zn561 1.986 . S
O564 C571 1.262 . S
O565 Zn560 2.049 . S
O565 C573 1.260 . S
O566 Zn561 1.996 . S
O566 C573 1.257 . S
C567 O562 1.254 . S
C567 O563 1.269 . S
C568 O569 1.249 . S
C568 O570 1.270 . S
O569 Zn561 1.943 . S
O569 C568 1.249 . S
O570 Zn560 2.067 . S
O570 C568 1.270 . S
C571 O564 1.262 . S
C571 O572 1.232 . S
O572 C571 1.232 . S
C573 O565 1.260 . S
C573 O566 1.257 . S
Zn574 O577 2.031 . S
Zn574 O579 2.049 . S
Zn574 O584 2.067 . S
Zn575 O576 1.962 . S
Zn575 O578 1.986 . S
Zn575 O580 1.996 . S
Zn575 O583 1.943 . S
O576 Zn575 1.962 . S
O576 C581 1.254 . S
O577 Zn574 2.031 . S
O577 C581 1.269 . S
O578 Zn575 1.986 . S
O578 C585 1.262 . S
O579 Zn574 2.049 . S
O579 C587 1.260 . S
O580 Zn575 1.996 . S
O580 C587 1.257 . S
C581 O576 1.254 . S
C581 O577 1.269 . S
C582 O583 1.249 . S
C582 O584 1.270 . S
O583 Zn575 1.943 . S
O583 C582 1.249 . S
O584 Zn574 2.067 . S
O584 C582 1.270 . S
C585 O578 1.262 . S
C585 O586 1.232 . S
O586 C585 1.232 . S
C587 O579 1.260 . S
C587 O580 1.257 . S
Zn588 O591 2.031 . S
Zn588 O593 2.049 . S
Zn588 O598 2.067 . S
Zn589 O590 1.962 . S
Zn589 O592 1.986 . S
Zn589 O594 1.996 . S
Zn589 O597 1.943 . S
O590 Zn589 1.962 . S
O590 C595 1.254 . S
O591 Zn588 2.031 . S
O591 C595 1.269 . S
O592 Zn589 1.986 . S
O592 C599 1.262 . S
O593 Zn588 2.049 . S
O593 C601 1.260 . S
O594 Zn589 1.996 . S
O594 C601 1.257 . S
C595 O590 1.254 . S
C595 O591 1.269 . S
C596 O597 1.249 . S
C596 O598 1.270 . S
O597 Zn589 1.943 . S
O597 C596 1.249 . S
O598 Zn588 2.067 . S
O598 C596 1.270 . S
C599 O592 1.262 . S
C599 O600 1.232 . S
O600 C599 1.232 . S
C601 O593 1.260 . S
C601 O594 1.257 . S
Zn602 O605 2.031 . S
Zn602 O607 2.049 . S
Zn602 O612 2.067 . S
Zn603 O604 1.962 . S
Zn603 O606 1.986 . S
Zn603 O608 1.996 . S
Zn603 O611 1.943 . S
O604 Zn603 1.962 . S
O604 C609 1.254 . S
O605 Zn602 2.031 . S
O605 C609 1.269 . S
O606 Zn603 1.986 . S
O606 C613 1.262 . S
O607 Zn602 2.049 . S
O607 C615 1.260 . S
O608 Zn603 1.996 . S
O608 C615 1.257 . S
C609 O604 1.254 . S
C609 O605 1.269 . S
C610 O611 1.249 . S
C610 O612 1.270 . S
O611 Zn603 1.943 . S
O611 C610 1.249 . S
O612 Zn602 2.067 . S
O612 C610 1.270 . S
C613 O606 1.262 . S
C613 O614 1.232 . S
O614 C613 1.232 . S
C615 O607 1.260 . S
C615 O608 1.257 . S
Zn616 O619 2.031 . S
Zn616 O621 2.049 . S
Zn616 O626 2.067 . S
Zn617 O618 1.962 . S
Zn617 O620 1.986 . S
Zn617 O622 1.996 . S
Zn617 O625 1.943 . S
O618 Zn617 1.962 . S
O618 C623 1.254 . S
O619 Zn616 2.031 . S
O619 C623 1.269 . S
O620 Zn617 1.986 . S
O620 C627 1.262 . S
O621 Zn616 2.049 . S
O621 C629 1.260 . S
O622 Zn617 1.996 . S
O622 C629 1.257 . S
C623 O618 1.254 . S
C623 O619 1.269 . S
C624 O625 1.249 . S
C624 O626 1.270 . S
O625 Zn617 1.943 . S
O625 C624 1.249 . S
O626 Zn616 2.067 . S
O626 C624 1.270 . S
C627 O620 1.262 . S
C627 O628 1.232 . S
O628 C627 1.232 . S
C629 O621 1.260 . S
C629 O622 1.257 . S
Zn630 O633 2.031 . S
Zn630 O635 2.049 . S
Zn630 O640 2.067 . S
Zn631 O632 1.962 . S
Zn631 O634 1.986 . S
Zn631 O636 1.996 . S
Zn631 O639 1.943 . S
O632 Zn631 1.962 . S
O632 C637 1.254 . S
O633 Zn630 2.031 . S
O633 C637 1.269 . S
O634 Zn631 1.986 . S
O634 C641 1.262 . S
O635 Zn630 2.049 . S
O635 C643 1.260 . S
O636 Zn631 1.996 . S
O636 C643 1.257 . S
C637 O632 1.254 . S
C637 O633 1.269 . S
C638 O639 1.249 . S
C638 O640 1.270 . S
O639 Zn631 1.943 . S
O639 C638 1.249 . S
O640 Zn630 2.067 . S
O640 C638 1.270 . S
C641 O634 1.262 . S
C641 O642 1.232 . S
O642 C641 1.232 . S
C643 O635 1.260 . S
C643 O636 1.257 . S
Zn644 O647 2.031 . S
Zn644 O649 2.049 . S
Zn644 O654 2.067 . S
Zn645 O646 1.962 . S
Zn645 O648 1.986 . S
Zn645 O650 1.996 . S
Zn645 O653 1.943 . S
O646 Zn645 1.962 . S
O646 C651 1.254 . S
O647 Zn644 2.031 . S
O647 C651 1.269 . S
O648 Zn645 1.986 . S
O648 C655 1.262 . S
O649 Zn644 2.049 . S
O649 C657 1.260 . S
O650 Zn645 1.996 . S
O650 C657 1.257 . S
C651 O646 1.254 . S
C651 O647 1.269 . S
C652 O653 1.249 . S
C652 O654 1.270 . S
O653 Zn645 1.943 . S
O653 C652 1.249 . S
O654 Zn644 2.067 . S
O654 C652 1.270 . S
C655 O648 1.262 . S
C655 O656 1.232 . S
O656 C655 1.232 . S
C657 O649 1.260 . S
C657 O650 1.257 . S
Zn658 O661 2.031 . S
Zn658 O663 2.049 . S
Zn658 O668 2.067 . S
Zn659 O660 1.962 . S
Zn659 O662 1.986 . S
Zn659 O664 1.996 . S
Zn659 O667 1.943 . S
O660 Zn659 1.962 . S
O660 C665 1.254 . S
O661 Zn658 2.031 . S
O661 C665 1.269 . S
O662 Zn659 1.986 . S
O662 C669 1.262 . S
O663 Zn658 2.049 . S
O663 C671 1.260 . S
O664 Zn659 1.996 . S
O664 C671 1.257 . S
C665 O660 1.254 . S
C665 O661 1.269 . S
C666 O667 1.249 . S
C666 O668 1.270 . S
O667 Zn659 1.943 . S
O667 C666 1.249 . S
O668 Zn658 2.067 . S
O668 C666 1.270 . S
C669 O662 1.262 . S
C669 O670 1.232 . S
O670 C669 1.232 . S
C671 O663 1.260 . S
C671 O664 1.257 . S
C672 C673 1.369 . S
C672 C674 1.419 . S
C672 H676 0.930 . S
C673 C672 1.369 . S
C673 C682 1.429 . S
C674 C672 1.419 . S
C674 C675 1.363 . S
C674 H677 0.929 . S
C675 C674 1.363 . S
C675 C681 1.428 . S
H676 C672 0.930 . S
H677 C674 0.929 . S
S678 N679 1.613 . S
S678 N680 1.610 . S
N679 S678 1.613 . S
N679 C682 1.350 . S
N680 S678 1.610 . S
N680 C681 1.351 . S
C681 C675 1.428 . S
C681 N680 1.351 . S
C681 C682 1.434 . S
C682 C673 1.429 . S
C682 N679 1.350 . S
C682 C681 1.434 . S
C683 C684 1.369 . S
C683 C685 1.419 . S
C683 H687 0.930 . S
C684 C683 1.369 . S
C684 C693 1.429 . S
C685 C683 1.419 . S
C685 C686 1.363 . S
C685 H688 0.929 . S
C686 C685 1.363 . S
C686 C692 1.428 . S
H687 C683 0.930 . S
H688 C685 0.929 . S
S689 N690 1.613 . S
S689 N691 1.610 . S
N690 S689 1.613 . S
N690 C693 1.350 . S
N691 S689 1.610 . S
N691 C692 1.351 . S
C692 C686 1.428 . S
C692 N691 1.351 . S
C692 C693 1.434 . S
C693 C684 1.429 . S
C693 N690 1.350 . S
C693 C692 1.434 . S
C694 C695 1.369 . S
C694 C696 1.419 . S
C694 H698 0.930 . S
C695 C694 1.369 . S
C695 C704 1.429 . S
C696 C694 1.419 . S
C696 C697 1.363 . S
C696 H699 0.929 . S
C697 C696 1.363 . S
C697 C703 1.428 . S
H698 C694 0.930 . S
H699 C696 0.929 . S
S700 N701 1.613 . S
S700 N702 1.610 . S
N701 S700 1.613 . S
N701 C704 1.350 . S
N702 S700 1.610 . S
N702 C703 1.351 . S
C703 C697 1.428 . S
C703 N702 1.351 . S
C703 C704 1.434 . S
C704 C695 1.429 . S
C704 N701 1.350 . S
C704 C703 1.434 . S
C705 C706 1.369 . S
C705 C707 1.419 . S
C705 H709 0.930 . S
C706 C705 1.369 . S
C706 C715 1.429 . S
C707 C705 1.419 . S
C707 C708 1.363 . S
C707 H710 0.929 . S
C708 C707 1.363 . S
C708 C714 1.428 . S
H709 C705 0.930 . S
H710 C707 0.929 . S
S711 N712 1.613 . S
S711 N713 1.610 . S
N712 S711 1.613 . S
N712 C715 1.350 . S
N713 S711 1.610 . S
N713 C714 1.351 . S
C714 C708 1.428 . S
C714 N713 1.351 . S
C714 C715 1.434 . S
C715 C706 1.429 . S
C715 N712 1.350 . S
C715 C714 1.434 . S
C716 C717 1.369 . S
C716 C718 1.419 . S
C716 H720 0.930 . S
C717 C716 1.369 . S
C717 C726 1.429 . S
C718 C716 1.419 . S
C718 C719 1.363 . S
C718 H721 0.929 . S
C719 C718 1.363 . S
C719 C725 1.428 . S
H720 C716 0.930 . S
H721 C718 0.929 . S
S722 N723 1.613 . S
S722 N724 1.610 . S
N723 S722 1.613 . S
N723 C726 1.350 . S
N724 S722 1.610 . S
N724 C725 1.351 . S
C725 C719 1.428 . S
C725 N724 1.351 . S
C725 C726 1.434 . S
C726 C717 1.429 . S
C726 N723 1.350 . S
C726 C725 1.434 . S
C727 C728 1.369 . S
C727 C729 1.419 . S
C727 H731 0.930 . S
C728 C727 1.369 . S
C728 C737 1.429 . S
C729 C727 1.419 . S
C729 C730 1.363 . S
C729 H732 0.929 . S
C730 C729 1.363 . S
C730 C736 1.428 . S
H731 C727 0.930 . S
H732 C729 0.929 . S
S733 N734 1.613 . S
S733 N735 1.610 . S
N734 S733 1.613 . S
N734 C737 1.350 . S
N735 S733 1.610 . S
N735 C736 1.351 . S
C736 C730 1.428 . S
C736 N735 1.351 . S
C736 C737 1.434 . S
C737 C728 1.429 . S
C737 N734 1.350 . S
C737 C736 1.434 . S
C738 C739 1.369 . S
C738 C740 1.419 . S
C738 H742 0.930 . S
C739 C738 1.369 . S
C739 C748 1.429 . S
C740 C738 1.419 . S
C740 C741 1.363 . S
C740 H743 0.929 . S
C741 C740 1.363 . S
C741 C747 1.428 . S
H742 C738 0.930 . S
H743 C740 0.929 . S
S744 N745 1.613 . S
S744 N746 1.610 . S
N745 S744 1.613 . S
N745 C748 1.350 . S
N746 S744 1.610 . S
N746 C747 1.351 . S
C747 C741 1.428 . S
C747 N746 1.351 . S
C747 C748 1.434 . S
C748 C739 1.429 . S
C748 N745 1.350 . S
C748 C747 1.434 . S
C749 C750 1.369 . S
C749 C751 1.419 . S
C749 H753 0.930 . S
C750 C749 1.369 . S
C750 C759 1.429 . S
C751 C749 1.419 . S
C751 C752 1.363 . S
C751 H754 0.929 . S
C752 C751 1.363 . S
C752 C758 1.428 . S
H753 C749 0.930 . S
H754 C751 0.929 . S
S755 N756 1.613 . S
S755 N757 1.610 . S
N756 S755 1.613 . S
N756 C759 1.350 . S
N757 S755 1.610 . S
N757 C758 1.351 . S
C758 C752 1.428 . S
C758 N757 1.351 . S
C758 C759 1.434 . S
C759 C750 1.429 . S
C759 N756 1.350 . S
C759 C758 1.434 . S
C760 C761 1.369 . S
C760 C762 1.419 . S
C760 H764 0.930 . S
C761 C760 1.369 . S
C761 C770 1.429 . S
C762 C760 1.419 . S
C762 C763 1.363 . S
C762 H765 0.929 . S
C763 C762 1.363 . S
C763 C769 1.428 . S
H764 C760 0.930 . S
H765 C762 0.929 . S
S766 N767 1.613 . S
S766 N768 1.610 . S
N767 S766 1.613 . S
N767 C770 1.350 . S
N768 S766 1.610 . S
N768 C769 1.351 . S
C769 C763 1.428 . S
C769 N768 1.351 . S
C769 C770 1.434 . S
C770 C761 1.429 . S
C770 N767 1.350 . S
C770 C769 1.434 . S
C771 C772 1.369 . S
C771 C773 1.419 . S
C771 H775 0.930 . S
C772 C771 1.369 . S
C772 C781 1.429 . S
C773 C771 1.419 . S
C773 C774 1.363 . S
C773 H776 0.929 . S
C774 C773 1.363 . S
C774 C780 1.428 . S
H775 C771 0.930 . S
H776 C773 0.929 . S
S777 N778 1.613 . S
S777 N779 1.610 . S
N778 S777 1.613 . S
N778 C781 1.350 . S
N779 S777 1.610 . S
N779 C780 1.351 . S
C780 C774 1.428 . S
C780 N779 1.351 . S
C780 C781 1.434 . S
C781 C772 1.429 . S
C781 N778 1.350 . S
C781 C780 1.434 . S
C782 C783 1.369 . S
C782 C784 1.419 . S
C782 H786 0.930 . S
C783 C782 1.369 . S
C783 C792 1.429 . S
C784 C782 1.419 . S
C784 C785 1.363 . S
C784 H787 0.929 . S
C785 C784 1.363 . S
C785 C791 1.428 . S
H786 C782 0.930 . S
H787 C784 0.929 . S
S788 N789 1.613 . S
S788 N790 1.610 . S
N789 S788 1.613 . S
N789 C792 1.350 . S
N790 S788 1.610 . S
N790 C791 1.351 . S
C791 C785 1.428 . S
C791 N790 1.351 . S
C791 C792 1.434 . S
C792 C783 1.429 . S
C792 N789 1.350 . S
C792 C791 1.434 . S
C793 C794 1.369 . S
C793 C795 1.419 . S
C793 H797 0.930 . S
C794 C793 1.369 . S
C794 C803 1.429 . S
C795 C793 1.419 . S
C795 C796 1.363 . S
C795 H798 0.929 . S
C796 C795 1.363 . S
C796 C802 1.428 . S
H797 C793 0.930 . S
H798 C795 0.929 . S
S799 N800 1.613 . S
S799 N801 1.610 . S
N800 S799 1.613 . S
N800 C803 1.350 . S
N801 S799 1.610 . S
N801 C802 1.351 . S
C802 C796 1.428 . S
C802 N801 1.351 . S
C802 C803 1.434 . S
C803 C794 1.429 . S
C803 N800 1.350 . S
C803 C802 1.434 . S
C804 C805 1.369 . S
C804 C806 1.419 . S
C804 H808 0.930 . S
C805 C804 1.369 . S
C805 C814 1.429 . S
C806 C804 1.419 . S
C806 C807 1.363 . S
C806 H809 0.929 . S
C807 C806 1.363 . S
C807 C813 1.428 . S
H808 C804 0.930 . S
H809 C806 0.929 . S
S810 N811 1.613 . S
S810 N812 1.610 . S
N811 S810 1.613 . S
N811 C814 1.350 . S
N812 S810 1.610 . S
N812 C813 1.351 . S
C813 C807 1.428 . S
C813 N812 1.351 . S
C813 C814 1.434 . S
C814 C805 1.429 . S
C814 N811 1.350 . S
C814 C813 1.434 . S
C815 C816 1.369 . S
C815 C817 1.419 . S
C815 H819 0.930 . S
C816 C815 1.369 . S
C816 C825 1.429 . S
C817 C815 1.419 . S
C817 C818 1.363 . S
C817 H820 0.929 . S
C818 C817 1.363 . S
C818 C824 1.428 . S
H819 C815 0.930 . S
H820 C817 0.929 . S
S821 N822 1.613 . S
S821 N823 1.610 . S
N822 S821 1.613 . S
N822 C825 1.350 . S
N823 S821 1.610 . S
N823 C824 1.351 . S
C824 C818 1.428 . S
C824 N823 1.351 . S
C824 C825 1.434 . S
C825 C816 1.429 . S
C825 N822 1.350 . S
C825 C824 1.434 . S
C826 C827 1.369 . S
C826 C828 1.419 . S
C826 H830 0.930 . S
C827 C826 1.369 . S
C827 C836 1.429 . S
C828 C826 1.419 . S
C828 C829 1.363 . S
C828 H831 0.929 . S
C829 C828 1.363 . S
C829 C835 1.428 . S
H830 C826 0.930 . S
H831 C828 0.929 . S
S832 N833 1.613 . S
S832 N834 1.610 . S
N833 S832 1.613 . S
N833 C836 1.350 . S
N834 S832 1.610 . S
N834 C835 1.351 . S
C835 C829 1.428 . S
C835 N834 1.351 . S
C835 C836 1.434 . S
C836 C827 1.429 . S
C836 N833 1.350 . S
C836 C835 1.434 . S
C837 C838 1.369 . S
C837 C839 1.419 . S
C837 H841 0.930 . S
C838 C837 1.369 . S
C838 C847 1.429 . S
C839 C837 1.419 . S
C839 C840 1.363 . S
C839 H842 0.929 . S
C840 C839 1.363 . S
C840 C846 1.428 . S
H841 C837 0.930 . S
H842 C839 0.929 . S
S843 N844 1.613 . S
S843 N845 1.610 . S
N844 S843 1.613 . S
N844 C847 1.350 . S
N845 S843 1.610 . S
N845 C846 1.351 . S
C846 C840 1.428 . S
C846 N845 1.351 . S
C846 C847 1.434 . S
C847 C838 1.429 . S
C847 N844 1.350 . S
C847 C846 1.434 . S
C848 C849 1.369 . S
C848 C850 1.419 . S
C848 H852 0.930 . S
C849 C848 1.369 . S
C849 C858 1.429 . S
C850 C848 1.419 . S
C850 C851 1.363 . S
C850 H853 0.929 . S
C851 C850 1.363 . S
C851 C857 1.428 . S
H852 C848 0.930 . S
H853 C850 0.929 . S
S854 N855 1.613 . S
S854 N856 1.610 . S
N855 S854 1.613 . S
N855 C858 1.350 . S
N856 S854 1.610 . S
N856 C857 1.351 . S
C857 C851 1.428 . S
C857 N856 1.351 . S
C857 C858 1.434 . S
C858 C849 1.429 . S
C858 N855 1.350 . S
C858 C857 1.434 . S
C859 C860 1.369 . S
C859 C861 1.419 . S
C859 H863 0.930 . S
C860 C859 1.369 . S
C860 C869 1.429 . S
C861 C859 1.419 . S
C861 C862 1.363 . S
C861 H864 0.929 . S
C862 C861 1.363 . S
C862 C868 1.428 . S
H863 C859 0.930 . S
H864 C861 0.929 . S
S865 N866 1.613 . S
S865 N867 1.610 . S
N866 S865 1.613 . S
N866 C869 1.350 . S
N867 S865 1.610 . S
N867 C868 1.351 . S
C868 C862 1.428 . S
C868 N867 1.351 . S
C868 C869 1.434 . S
C869 C860 1.429 . S
C869 N866 1.350 . S
C869 C868 1.434 . S
C870 C871 1.369 . S
C870 C872 1.419 . S
C870 H874 0.930 . S
C871 C870 1.369 . S
C871 C880 1.429 . S
C872 C870 1.419 . S
C872 C873 1.363 . S
C872 H875 0.929 . S
C873 C872 1.363 . S
C873 C879 1.428 . S
H874 C870 0.930 . S
H875 C872 0.929 . S
S876 N877 1.613 . S
S876 N878 1.610 . S
N877 S876 1.613 . S
N877 C880 1.350 . S
N878 S876 1.610 . S
N878 C879 1.351 . S
C879 C873 1.428 . S
C879 N878 1.351 . S
C879 C880 1.434 . S
C880 C871 1.429 . S
C880 N877 1.350 . S
C880 C879 1.434 . S
C881 C882 1.369 . S
C881 C883 1.419 . S
C881 H885 0.930 . S
C882 C881 1.369 . S
C882 C891 1.429 . S
C883 C881 1.419 . S
C883 C884 1.363 . S
C883 H886 0.929 . S
C884 C883 1.363 . S
C884 C890 1.428 . S
H885 C881 0.930 . S
H886 C883 0.929 . S
S887 N888 1.613 . S
S887 N889 1.610 . S
N888 S887 1.613 . S
N888 C891 1.350 . S
N889 S887 1.610 . S
N889 C890 1.351 . S
C890 C884 1.428 . S
C890 N889 1.351 . S
C890 C891 1.434 . S
C891 C882 1.429 . S
C891 N888 1.350 . S
C891 C890 1.434 . S
C892 C893 1.369 . S
C892 C894 1.419 . S
C892 H896 0.930 . S
C893 C892 1.369 . S
C893 C902 1.429 . S
C894 C892 1.419 . S
C894 C895 1.363 . S
C894 H897 0.929 . S
C895 C894 1.363 . S
C895 C901 1.428 . S
H896 C892 0.930 . S
H897 C894 0.929 . S
S898 N899 1.613 . S
S898 N900 1.610 . S
N899 S898 1.613 . S
N899 C902 1.350 . S
N900 S898 1.610 . S
N900 C901 1.351 . S
C901 C895 1.428 . S
C901 N900 1.351 . S
C901 C902 1.434 . S
C902 C893 1.429 . S
C902 N899 1.350 . S
C902 C901 1.434 . S
C903 C904 1.369 . S
C903 C905 1.419 . S
C903 H907 0.930 . S
C904 C903 1.369 . S
C904 C913 1.429 . S
C905 C903 1.419 . S
C905 C906 1.363 . S
C905 H908 0.929 . S
C906 C905 1.363 . S
C906 C912 1.428 . S
H907 C903 0.930 . S
H908 C905 0.929 . S
S909 N910 1.613 . S
S909 N911 1.610 . S
N910 S909 1.613 . S
N910 C913 1.350 . S
N911 S909 1.610 . S
N911 C912 1.351 . S
C912 C906 1.428 . S
C912 N911 1.351 . S
C912 C913 1.434 . S
C913 C904 1.429 . S
C913 N910 1.350 . S
C913 C912 1.434 . S
C914 C915 1.369 . S
C914 C916 1.419 . S
C914 H918 0.930 . S
C915 C914 1.369 . S
C915 C924 1.429 . S
C916 C914 1.419 . S
C916 C917 1.363 . S
C916 H919 0.929 . S
C917 C916 1.363 . S
C917 C923 1.428 . S
H918 C914 0.930 . S
H919 C916 0.929 . S
S920 N921 1.613 . S
S920 N922 1.610 . S
N921 S920 1.613 . S
N921 C924 1.350 . S
N922 S920 1.610 . S
N922 C923 1.351 . S
C923 C917 1.428 . S
C923 N922 1.351 . S
C923 C924 1.434 . S
C924 C915 1.429 . S
C924 N921 1.350 . S
C924 C923 1.434 . S
C925 C926 1.369 . S
C925 C927 1.419 . S
C925 H929 0.930 . S
C926 C925 1.369 . S
C926 C935 1.429 . S
C927 C925 1.419 . S
C927 C928 1.363 . S
C927 H930 0.929 . S
C928 C927 1.363 . S
C928 C934 1.428 . S
H929 C925 0.930 . S
H930 C927 0.929 . S
S931 N932 1.613 . S
S931 N933 1.610 . S
N932 S931 1.613 . S
N932 C935 1.350 . S
N933 S931 1.610 . S
N933 C934 1.351 . S
C934 C928 1.428 . S
C934 N933 1.351 . S
C934 C935 1.434 . S
C935 C926 1.429 . S
C935 N932 1.350 . S
C935 C934 1.434 . S
C936 C937 1.369 . S
C936 C938 1.419 . S
C936 H940 0.930 . S
C937 C936 1.369 . S
C937 C946 1.429 . S
C938 C936 1.419 . S
C938 C939 1.363 . S
C938 H941 0.929 . S
C939 C938 1.363 . S
C939 C945 1.428 . S
H940 C936 0.930 . S
H941 C938 0.929 . S
S942 N943 1.613 . S
S942 N944 1.610 . S
N943 S942 1.613 . S
N943 C946 1.350 . S
N944 S942 1.610 . S
N944 C945 1.351 . S
C945 C939 1.428 . S
C945 N944 1.351 . S
C945 C946 1.434 . S
C946 C937 1.429 . S
C946 N943 1.350 . S
C946 C945 1.434 . S
C947 C948 1.369 . S
C947 C949 1.419 1_556 S
C947 H951 0.930 . S
C948 C947 1.369 . S
C948 C957 1.429 . S
C949 C947 1.419 1_554 S
C949 C950 1.363 . S
C949 H952 0.929 . S
C950 C949 1.363 . S
C950 C956 1.428 . S
H951 C947 0.930 . S
H952 C949 0.929 . S
S953 N954 1.613 1_554 S
S953 N955 1.610 . S
N954 S953 1.613 1_556 S
N954 C957 1.350 . S
N955 S953 1.610 . S
N955 C956 1.351 . S
C956 C950 1.428 . S
C956 N955 1.351 . S
C956 C957 1.434 1_554 S
C957 C948 1.429 . S
C957 N954 1.350 . S
C957 C956 1.434 1_556 S
C958 C959 1.369 . S
C958 C960 1.419 . S
C958 H962 0.930 . S
C959 C958 1.369 . S
C959 C968 1.429 . S
C960 C958 1.419 . S
C960 C961 1.363 . S
C960 H963 0.929 . S
C961 C960 1.363 . S
C961 C967 1.428 . S
H962 C958 0.930 . S
H963 C960 0.929 . S
S964 N965 1.613 . S
S964 N966 1.610 . S
N965 S964 1.613 . S
N965 C968 1.350 . S
N966 S964 1.610 . S
N966 C967 1.351 . S
C967 C961 1.428 . S
C967 N966 1.351 . S
C967 C968 1.434 . S
C968 C959 1.429 . S
C968 N965 1.350 . S
C968 C967 1.434 . S
C969 C970 1.369 . S
C969 C971 1.419 1_556 S
C969 H973 0.930 . S
C970 C969 1.369 . S
C970 C979 1.429 . S
C971 C969 1.419 1_554 S
C971 C972 1.363 . S
C971 H974 0.929 . S
C972 C971 1.363 . S
C972 C978 1.428 . S
H973 C969 0.930 . S
H974 C971 0.929 . S
S975 N976 1.613 1_554 S
S975 N977 1.610 . S
N976 S975 1.613 1_556 S
N976 C979 1.350 . S
N977 S975 1.610 . S
N977 C978 1.351 . S
C978 C972 1.428 . S
C978 N977 1.351 . S
C978 C979 1.434 1_554 S
C979 C970 1.429 . S
C979 N976 1.350 . S
C979 C978 1.434 1_556 S
C980 C981 1.369 . S
C980 C982 1.419 . S
C980 H984 0.930 . S
C981 C980 1.369 . S
C981 C990 1.429 . S
C982 C980 1.419 . S
C982 C983 1.363 . S
C982 H985 0.929 . S
C983 C982 1.363 . S
C983 C989 1.428 . S
H984 C980 0.930 . S
H985 C982 0.929 . S
S986 N987 1.613 . S
S986 N988 1.610 . S
N987 S986 1.613 . S
N987 C990 1.350 . S
N988 S986 1.610 . S
N988 C989 1.351 . S
C989 C983 1.428 . S
C989 N988 1.351 . S
C989 C990 1.434 . S
C990 C981 1.429 . S
C990 N987 1.350 . S
C990 C989 1.434 . S
C991 C992 1.369 . S
C991 C993 1.419 1_556 S
C991 H995 0.930 . S
C992 C991 1.369 . S
C992 C1001 1.429 . S
C993 C991 1.419 1_554 S
C993 C994 1.363 . S
C993 H996 0.929 . S
C994 C993 1.363 . S
C994 C1000 1.428 . S
H995 C991 0.930 . S
H996 C993 0.929 . S
S997 N998 1.613 . S
S997 N999 1.610 1_556 S
N998 S997 1.613 . S
N998 C1001 1.350 . S
N999 S997 1.610 1_554 S
N999 C1000 1.351 . S
C1000 C994 1.428 . S
C1000 N999 1.351 . S
C1000 C1001 1.434 1_554 S
C1001 C992 1.429 . S
C1001 N998 1.350 . S
C1001 C1000 1.434 1_556 S
C1002 C1003 1.369 . S
C1002 C1004 1.419 . S
C1002 H1006 0.930 . S
C1003 C1002 1.369 . S
C1003 C1012 1.429 . S
C1004 C1002 1.419 . S
C1004 C1005 1.363 . S
C1004 H1007 0.929 . S
C1005 C1004 1.363 . S
C1005 C1011 1.428 . S
H1006 C1002 0.930 . S
H1007 C1004 0.929 . S
S1008 N1009 1.613 . S
S1008 N1010 1.610 . S
N1009 S1008 1.613 . S
N1009 C1012 1.350 . S
N1010 S1008 1.610 . S
N1010 C1011 1.351 . S
C1011 C1005 1.428 . S
C1011 N1010 1.351 . S
C1011 C1012 1.434 . S
C1012 C1003 1.429 . S
C1012 N1009 1.350 . S
C1012 C1011 1.434 . S
C1013 C1014 1.369 . S
C1013 C1015 1.419 1_556 S
C1013 H1017 0.930 . S
C1014 C1013 1.369 . S
C1014 C1023 1.429 . S
C1015 C1013 1.419 1_554 S
C1015 C1016 1.363 . S
C1015 H1018 0.929 . S
C1016 C1015 1.363 . S
C1016 C1022 1.428 . S
H1017 C1013 0.930 . S
H1018 C1015 0.929 . S
S1019 N1020 1.613 . S
S1019 N1021 1.610 1_556 S
N1020 S1019 1.613 . S
N1020 C1023 1.350 . S
N1021 S1019 1.610 1_554 S
N1021 C1022 1.351 . S
C1022 C1016 1.428 . S
C1022 N1021 1.351 . S
C1022 C1023 1.434 1_554 S
C1023 C1014 1.429 . S
C1023 N1020 1.350 . S
C1023 C1022 1.434 1_556 S
C1024 C1025 1.369 . S
C1024 C1026 1.419 . S
C1024 H1028 0.930 . S
C1025 C1024 1.369 . S
C1025 C1034 1.429 . S
C1026 C1024 1.419 . S
C1026 C1027 1.363 . S
C1026 H1029 0.929 . S
C1027 C1026 1.363 . S
C1027 C1033 1.428 . S
H1028 C1024 0.930 . S
H1029 C1026 0.929 . S
S1030 N1031 1.613 . S
S1030 N1032 1.610 . S
N1031 S1030 1.613 . S
N1031 C1034 1.350 . S
N1032 S1030 1.610 . S
N1032 C1033 1.351 . S
C1033 C1027 1.428 . S
C1033 N1032 1.351 . S
C1033 C1034 1.434 . S
C1034 C1025 1.429 . S
C1034 N1031 1.350 . S
C1034 C1033 1.434 . S
C1035 C1036 1.369 . S
C1035 C1037 1.419 1_565 S
C1035 H1039 0.930 . S
C1036 C1035 1.369 . S
C1036 C1045 1.429 . S
C1037 C1035 1.419 1_545 S
C1037 C1038 1.363 . S
C1037 H1040 0.929 . S
C1038 C1037 1.363 . S
C1038 C1044 1.428 . S
H1039 C1035 0.930 . S
H1040 C1037 0.929 . S
S1041 N1042 1.613 1_545 S
S1041 N1043 1.610 . S
N1042 S1041 1.613 1_565 S
N1042 C1045 1.350 . S
N1043 S1041 1.610 . S
N1043 C1044 1.351 . S
C1044 C1038 1.428 . S
C1044 N1043 1.351 . S
C1044 C1045 1.434 1_545 S
C1045 C1036 1.429 . S
C1045 N1042 1.350 . S
C1045 C1044 1.434 1_565 S
C1046 C1047 1.369 . S
C1046 C1048 1.419 . S
C1046 H1050 0.930 . S
C1047 C1046 1.369 . S
C1047 C1056 1.429 . S
C1048 C1046 1.419 . S
C1048 C1049 1.363 . S
C1048 H1051 0.929 . S
C1049 C1048 1.363 . S
C1049 C1055 1.428 . S
H1050 C1046 0.930 . S
H1051 C1048 0.929 . S
S1052 N1053 1.613 . S
S1052 N1054 1.610 . S
N1053 S1052 1.613 . S
N1053 C1056 1.350 . S
N1054 S1052 1.610 . S
N1054 C1055 1.351 . S
C1055 C1049 1.428 . S
C1055 N1054 1.351 . S
C1055 C1056 1.434 . S
C1056 C1047 1.429 . S
C1056 N1053 1.350 . S
C1056 C1055 1.434 . S
C1057 C1058 1.369 . S
C1057 C1059 1.419 1_545 S
C1057 H1061 0.930 . S
C1058 C1057 1.369 . S
C1058 C1067 1.429 . S
C1059 C1057 1.419 1_565 S
C1059 C1060 1.363 . S
C1059 H1062 0.929 . S
C1060 C1059 1.363 . S
C1060 C1066 1.428 . S
H1061 C1057 0.930 . S
H1062 C1059 0.929 . S
S1063 N1064 1.613 1_565 S
S1063 N1065 1.610 . S
N1064 S1063 1.613 1_545 S
N1064 C1067 1.350 . S
N1065 S1063 1.610 . S
N1065 C1066 1.351 . S
C1066 C1060 1.428 . S
C1066 N1065 1.351 . S
C1066 C1067 1.434 1_565 S
C1067 C1058 1.429 . S
C1067 N1064 1.350 . S
C1067 C1066 1.434 1_545 S
C1068 C1069 1.369 . S
C1068 C1070 1.419 . S
C1068 H1072 0.930 . S
C1069 C1068 1.369 . S
C1069 C1078 1.429 . S
C1070 C1068 1.419 . S
C1070 C1071 1.363 . S
C1070 H1073 0.929 . S
C1071 C1070 1.363 . S
C1071 C1077 1.428 . S
H1072 C1068 0.930 . S
H1073 C1070 0.929 . S
S1074 N1075 1.613 . S
S1074 N1076 1.610 . S
N1075 S1074 1.613 . S
N1075 C1078 1.350 . S
N1076 S1074 1.610 . S
N1076 C1077 1.351 . S
C1077 C1071 1.428 . S
C1077 N1076 1.351 . S
C1077 C1078 1.434 . S
C1078 C1069 1.429 . S
C1078 N1075 1.350 . S
C1078 C1077 1.434 . S
C1079 C1080 1.369 . S
C1079 C1081 1.419 1_565 S
C1079 H1083 0.930 . S
C1080 C1079 1.369 . S
C1080 C1089 1.429 . S
C1081 C1079 1.419 1_545 S
C1081 C1082 1.363 . S
C1081 H1084 0.929 . S
C1082 C1081 1.363 . S
C1082 C1088 1.428 . S
H1083 C1079 0.930 . S
H1084 C1081 0.929 . S
S1085 N1086 1.613 1_545 S
S1085 N1087 1.610 . S
N1086 S1085 1.613 1_565 S
N1086 C1089 1.350 . S
N1087 S1085 1.610 . S
N1087 C1088 1.351 . S
C1088 C1082 1.428 . S
C1088 N1087 1.351 . S
C1088 C1089 1.434 1_545 S
C1089 C1080 1.429 . S
C1089 N1086 1.350 . S
C1089 C1088 1.434 1_565 S
C1090 C1091 1.369 . S
C1090 C1092 1.419 . S
C1090 H1094 0.930 . S
C1091 C1090 1.369 . S
C1091 C1100 1.429 . S
C1092 C1090 1.419 . S
C1092 C1093 1.363 . S
C1092 H1095 0.929 . S
C1093 C1092 1.363 . S
C1093 C1099 1.428 . S
H1094 C1090 0.930 . S
H1095 C1092 0.929 . S
S1096 N1097 1.613 . S
S1096 N1098 1.610 . S
N1097 S1096 1.613 . S
N1097 C1100 1.350 . S
N1098 S1096 1.610 . S
N1098 C1099 1.351 . S
C1099 C1093 1.428 . S
C1099 N1098 1.351 . S
C1099 C1100 1.434 . S
C1100 C1091 1.429 . S
C1100 N1097 1.350 . S
C1100 C1099 1.434 . S
C1101 C1102 1.369 . S
C1101 C1103 1.419 1_565 S
C1101 H1105 0.930 . S
C1102 C1101 1.369 . S
C1102 C1111 1.429 . S
C1103 C1101 1.419 1_545 S
C1103 C1104 1.363 . S
C1103 H1106 0.929 . S
C1104 C1103 1.363 . S
C1104 C1110 1.428 . S
H1105 C1101 0.930 . S
H1106 C1103 0.929 . S
S1107 N1108 1.613 . S
S1107 N1109 1.610 1_565 S
N1108 S1107 1.613 . S
N1108 C1111 1.350 . S
N1109 S1107 1.610 1_545 S
N1109 C1110 1.351 . S
C1110 C1104 1.428 . S
C1110 N1109 1.351 . S
C1110 C1111 1.434 1_545 S
C1111 C1102 1.429 . S
C1111 N1108 1.350 . S
C1111 C1110 1.434 1_565 S
C1112 C1113 1.369 . S
C1112 C1114 1.419 . S
C1112 H1116 0.930 . S
C1113 C1112 1.369 . S
C1113 C1122 1.429 . S
C1114 C1112 1.419 . S
C1114 C1115 1.363 . S
C1114 H1117 0.929 . S
C1115 C1114 1.363 . S
C1115 C1121 1.428 . S
H1116 C1112 0.930 . S
H1117 C1114 0.929 . S
S1118 N1119 1.613 . S
S1118 N1120 1.610 . S
N1119 S1118 1.613 . S
N1119 C1122 1.350 . S
N1120 S1118 1.610 . S
N1120 C1121 1.351 . S
C1121 C1115 1.428 . S
C1121 N1120 1.351 . S
C1121 C1122 1.434 . S
C1122 C1113 1.429 . S
C1122 N1119 1.350 . S
C1122 C1121 1.434 . S
C1123 C1124 1.369 . S
C1123 C1125 1.419 . S
C1123 H1127 0.930 . S
C1124 C1123 1.369 . S
C1124 C1133 1.429 . S
C1125 C1123 1.419 . S
C1125 C1126 1.363 . S
C1125 H1128 0.929 . S
C1126 C1125 1.363 . S
C1126 C1132 1.428 . S
H1127 C1123 0.930 . S
H1128 C1125 0.929 . S
S1129 N1130 1.613 . S
S1129 N1131 1.610 . S
N1130 S1129 1.613 . S
N1130 C1133 1.350 . S
N1131 S1129 1.610 . S
N1131 C1132 1.351 . S
C1132 C1126 1.428 . S
C1132 N1131 1.351 . S
C1132 C1133 1.434 . S
C1133 C1124 1.429 . S
C1133 N1130 1.350 . S
C1133 C1132 1.434 . S
C1134 C1135 1.369 . S
C1134 C1136 1.419 . S
C1134 H1138 0.930 . S
C1135 C1134 1.369 . S
C1135 C1144 1.429 . S
C1136 C1134 1.419 . S
C1136 C1137 1.363 1_455 S
C1136 H1139 0.929 1_455 S
C1137 C1136 1.363 1_655 S
C1137 C1143 1.428 1_655 S
H1138 C1134 0.930 . S
H1139 C1136 0.929 1_655 S
S1140 N1141 1.613 . S
S1140 N1142 1.610 1_455 S
N1141 S1140 1.613 . S
N1141 C1144 1.350 . S
N1142 S1140 1.610 1_655 S
N1142 C1143 1.351 1_655 S
C1143 C1137 1.428 1_455 S
C1143 N1142 1.351 1_455 S
C1143 C1144 1.434 . S
C1144 C1135 1.429 . S
C1144 N1141 1.350 . S
C1144 C1143 1.434 . S
C1145 C1146 1.369 . S
C1145 C1147 1.419 . S
C1145 H1149 0.930 . S
C1146 C1145 1.369 . S
C1146 C1155 1.429 . S
C1147 C1145 1.419 . S
C1147 C1148 1.363 . S
C1147 H1150 0.929 . S
C1148 C1147 1.363 . S
C1148 C1154 1.428 . S
H1149 C1145 0.930 . S
H1150 C1147 0.929 . S
S1151 N1152 1.613 . S
S1151 N1153 1.610 . S
N1152 S1151 1.613 . S
N1152 C1155 1.350 . S
N1153 S1151 1.610 . S
N1153 C1154 1.351 . S
C1154 C1148 1.428 . S
C1154 N1153 1.351 . S
C1154 C1155 1.434 . S
C1155 C1146 1.429 . S
C1155 N1152 1.350 . S
C1155 C1154 1.434 . S
C1156 C1157 1.369 1_655 S
C1156 C1158 1.419 . S
C1156 H1160 0.930 . S
C1157 C1156 1.369 1_455 S
C1157 C1166 1.429 1_455 S
C1158 C1156 1.419 . S
C1158 C1159 1.363 . S
C1158 H1161 0.929 . S
C1159 C1158 1.363 . S
C1159 C1165 1.428 . S
H1160 C1156 0.930 . S
H1161 C1158 0.929 . S
S1162 N1163 1.613 1_655 S
S1162 N1164 1.610 . S
N1163 S1162 1.613 1_455 S
N1163 C1166 1.350 1_455 S
N1164 S1162 1.610 . S
N1164 C1165 1.351 . S
C1165 C1159 1.428 . S
C1165 N1164 1.351 . S
C1165 C1166 1.434 . S
C1166 C1157 1.429 1_655 S
C1166 N1163 1.350 1_655 S
C1166 C1165 1.434 . S
C1167 C1168 1.369 . S
C1167 C1169 1.419 . S
C1167 H1171 0.930 . S
C1168 C1167 1.369 . S
C1168 C1177 1.429 . S
C1169 C1167 1.419 . S
C1169 C1170 1.363 . S
C1169 H1172 0.929 . S
C1170 C1169 1.363 . S
C1170 C1176 1.428 . S
H1171 C1167 0.930 . S
H1172 C1169 0.929 . S
S1173 N1174 1.613 . S
S1173 N1175 1.610 . S
N1174 S1173 1.613 . S
N1174 C1177 1.350 . S
N1175 S1173 1.610 . S
N1175 C1176 1.351 . S
C1176 C1170 1.428 . S
C1176 N1175 1.351 . S
C1176 C1177 1.434 . S
C1177 C1168 1.429 . S
C1177 N1174 1.350 . S
C1177 C1176 1.434 . S
C1178 C1179 1.369 . S
C1178 C1180 1.419 1_655 S
C1178 H1182 0.930 . S
C1179 C1178 1.369 . S
C1179 C1188 1.429 . S
C1180 C1178 1.419 1_455 S
C1180 C1181 1.363 . S
C1180 H1183 0.929 . S
C1181 C1180 1.363 . S
C1181 C1187 1.428 . S
H1182 C1178 0.930 . S
H1183 C1180 0.929 . S
S1184 N1185 1.613 . S
S1184 N1186 1.610 1_655 S
N1185 S1184 1.613 . S
N1185 C1188 1.350 . S
N1186 S1184 1.610 1_455 S
N1186 C1187 1.351 . S
C1187 C1181 1.428 . S
C1187 N1186 1.351 . S
C1187 C1188 1.434 1_455 S
C1188 C1179 1.429 . S
C1188 N1185 1.350 . S
C1188 C1187 1.434 1_655 S
C1189 C1190 1.369 . S
C1189 C1191 1.419 1_455 S
C1189 H1193 0.930 . S
C1190 C1189 1.369 . S
C1190 C1199 1.429 . S
C1191 C1189 1.419 1_655 S
C1191 C1192 1.363 . S
C1191 H1194 0.929 . S
C1192 C1191 1.363 . S
C1192 C1198 1.428 . S
H1193 C1189 0.930 . S
H1194 C1191 0.929 . S
S1195 N1196 1.613 . S
S1195 N1197 1.610 1_455 S
N1196 S1195 1.613 . S
N1196 C1199 1.350 . S
N1197 S1195 1.610 1_655 S
N1197 C1198 1.351 . S
C1198 C1192 1.428 . S
C1198 N1197 1.351 . S
C1198 C1199 1.434 1_655 S
C1199 C1190 1.429 . S
C1199 N1196 1.350 . S
C1199 C1198 1.434 1_455 S
C1200 C1201 1.369 . S
C1200 C1202 1.419 1_655 S
C1200 H1204 0.930 . S
C1201 C1200 1.369 . S
C1201 C1210 1.429 . S
C1202 C1200 1.419 1_455 S
C1202 C1203 1.363 . S
C1202 H1205 0.929 . S
C1203 C1202 1.363 . S
C1203 C1209 1.428 . S
H1204 C1200 0.930 . S
H1205 C1202 0.929 . S
S1206 N1207 1.613 1_455 S
S1206 N1208 1.610 . S
N1207 S1206 1.613 1_655 S
N1207 C1210 1.350 . S
N1208 S1206 1.610 . S
N1208 C1209 1.351 . S
C1209 C1203 1.428 . S
C1209 N1208 1.351 . S
C1209 C1210 1.434 1_455 S
C1210 C1201 1.429 . S
C1210 N1207 1.350 . S
C1210 C1209 1.434 1_655 S
C1211 C1212 1.369 . S
C1211 C1213 1.419 . S
C1211 H1215 0.930 . S
C1212 C1211 1.369 . S
C1212 C1221 1.429 . S
C1213 C1211 1.419 . S
C1213 C1214 1.363 . S
C1213 H1216 0.929 . S
C1214 C1213 1.363 . S
C1214 C1220 1.428 . S
H1215 C1211 0.930 . S
H1216 C1213 0.929 . S
S1217 N1218 1.613 . S
S1217 N1219 1.610 . S
N1218 S1217 1.613 . S
N1218 C1221 1.350 . S
N1219 S1217 1.610 . S
N1219 C1220 1.351 . S
C1220 C1214 1.428 . S
C1220 N1219 1.351 . S
C1220 C1221 1.434 . S
C1221 C1212 1.429 . S
C1221 N1218 1.350 . S
C1221 C1220 1.434 . S
C1222 C1223 1.369 . S
C1222 C1224 1.419 1_455 S
C1222 H1226 0.930 . S
C1223 C1222 1.369 . S
C1223 C1232 1.429 . S
C1224 C1222 1.419 1_655 S
C1224 C1225 1.363 . S
C1224 H1227 0.929 . S
C1225 C1224 1.363 . S
C1225 C1231 1.428 . S
H1226 C1222 0.930 . S
H1227 C1224 0.929 . S
S1228 N1229 1.613 1_655 S
S1228 N1230 1.610 . S
N1229 S1228 1.613 1_455 S
N1229 C1232 1.350 . S
N1230 S1228 1.610 . S
N1230 C1231 1.351 . S
C1231 C1225 1.428 . S
C1231 N1230 1.351 . S
C1231 C1232 1.434 1_655 S
C1232 C1223 1.429 . S
C1232 N1229 1.350 . S
C1232 C1231 1.434 1_455 S
C1233 C1234 1.369 . S
C1233 C1235 1.419 . S
C1233 H1237 0.930 . S
C1234 C1233 1.369 . S
C1234 C1243 1.429 . S
C1235 C1233 1.419 . S
C1235 C1236 1.363 . S
C1235 H1238 0.929 . S
C1236 C1235 1.363 . S
C1236 C1242 1.428 . S
H1237 C1233 0.930 . S
H1238 C1235 0.929 . S
S1239 N1240 1.613 . S
S1239 N1241 1.610 . S
N1240 S1239 1.613 . S
N1240 C1243 1.350 . S
N1241 S1239 1.610 . S
N1241 C1242 1.351 . S
C1242 C1236 1.428 . S
C1242 N1241 1.351 . S
C1242 C1243 1.434 . S
C1243 C1234 1.429 . S
C1243 N1240 1.350 . S
C1243 C1242 1.434 . S
C1244 C1245 1.369 . S
C1244 C1246 1.419 1_655 S
C1244 H1248 0.930 . S
C1245 C1244 1.369 . S
C1245 C1254 1.429 . S
C1246 C1244 1.419 1_455 S
C1246 C1247 1.363 . S
C1246 H1249 0.929 . S
C1247 C1246 1.363 . S
C1247 C1253 1.428 . S
H1248 C1244 0.930 . S
H1249 C1246 0.929 . S
S1250 N1251 1.613 . S
S1250 N1252 1.610 1_655 S
N1251 S1250 1.613 . S
N1251 C1254 1.350 . S
N1252 S1250 1.610 1_455 S
N1252 C1253 1.351 . S
C1253 C1247 1.428 . S
C1253 N1252 1.351 . S
C1253 C1254 1.434 1_455 S
C1254 C1245 1.429 . S
C1254 N1251 1.350 . S
C1254 C1253 1.434 1_655 S
C1255 C1256 1.369 . S
C1255 C1257 1.419 . S
C1255 H1259 0.930 . S
C1256 C1255 1.369 . S
C1256 C1265 1.429 . S
C1257 C1255 1.419 . S
C1257 C1258 1.363 . S
C1257 H1260 0.929 . S
C1258 C1257 1.363 . S
C1258 C1264 1.428 . S
H1259 C1255 0.930 . S
H1260 C1257 0.929 . S
S1261 N1262 1.613 . S
S1261 N1263 1.610 . S
N1262 S1261 1.613 . S
N1262 C1265 1.350 . S
N1263 S1261 1.610 . S
N1263 C1264 1.351 . S
C1264 C1258 1.428 . S
C1264 N1263 1.351 . S
C1264 C1265 1.434 . S
C1265 C1256 1.429 . S
C1265 N1262 1.350 . S
C1265 C1264 1.434 . S
C1266 C1267 1.369 . S
C1266 C1268 1.419 1_655 S
C1266 H1270 0.930 . S
C1267 C1266 1.369 . S
C1267 C1276 1.429 . S
C1268 C1266 1.419 1_455 S
C1268 C1269 1.363 . S
C1268 H1271 0.929 . S
C1269 C1268 1.363 . S
C1269 C1275 1.428 . S
H1270 C1266 0.930 . S
H1271 C1268 0.929 . S
S1272 N1273 1.613 1_455 S
S1272 N1274 1.610 . S
N1273 S1272 1.613 1_655 S
N1273 C1276 1.350 . S
N1274 S1272 1.610 . S
N1274 C1275 1.351 . S
C1275 C1269 1.428 . S
C1275 N1274 1.351 . S
C1275 C1276 1.434 1_455 S
C1276 C1267 1.429 . S
C1276 N1273 1.350 . S
C1276 C1275 1.434 1_655 S
C1277 C1278 1.369 . S
C1277 C1279 1.419 . S
C1277 H1281 0.930 . S
C1278 C1277 1.369 . S
C1278 C1287 1.429 . S
C1279 C1277 1.419 . S
C1279 C1280 1.363 . S
C1279 H1282 0.929 . S
C1280 C1279 1.363 . S
C1280 C1286 1.428 . S
H1281 C1277 0.930 . S
H1282 C1279 0.929 . S
S1283 N1284 1.613 . S
S1283 N1285 1.610 . S
N1284 S1283 1.613 . S
N1284 C1287 1.350 . S
N1285 S1283 1.610 . S
N1285 C1286 1.351 . S
C1286 C1280 1.428 . S
C1286 N1285 1.351 . S
C1286 C1287 1.434 . S
C1287 C1278 1.429 . S
C1287 N1284 1.350 . S
C1287 C1286 1.434 . S
C1288 C1289 1.369 . S
C1288 C1290 1.419 1_545 S
C1288 H1292 0.930 . S
C1289 C1288 1.369 . S
C1289 C1298 1.429 . S
C1290 C1288 1.419 1_565 S
C1290 C1291 1.363 . S
C1290 H1293 0.929 . S
C1291 C1290 1.363 . S
C1291 C1297 1.428 . S
H1292 C1288 0.930 . S
H1293 C1290 0.929 . S
S1294 N1295 1.613 . S
S1294 N1296 1.610 1_545 S
N1295 S1294 1.613 . S
N1295 C1298 1.350 . S
N1296 S1294 1.610 1_565 S
N1296 C1297 1.351 . S
C1297 C1291 1.428 . S
C1297 N1296 1.351 . S
C1297 C1298 1.434 1_565 S
C1298 C1289 1.429 . S
C1298 N1295 1.350 . S
C1298 C1297 1.434 1_545 S
C1299 C1300 1.369 . S
C1299 C1301 1.419 . S
C1299 H1303 0.930 . S
C1300 C1299 1.369 . S
C1300 C1309 1.429 . S
C1301 C1299 1.419 . S
C1301 C1302 1.363 . S
C1301 H1304 0.929 . S
C1302 C1301 1.363 . S
C1302 C1308 1.428 . S
H1303 C1299 0.930 . S
H1304 C1301 0.929 . S
S1305 N1306 1.613 . S
S1305 N1307 1.610 . S
N1306 S1305 1.613 . S
N1306 C1309 1.350 . S
N1307 S1305 1.610 . S
N1307 C1308 1.351 . S
C1308 C1302 1.428 . S
C1308 N1307 1.351 . S
C1308 C1309 1.434 . S
C1309 C1300 1.429 . S
C1309 N1306 1.350 . S
C1309 C1308 1.434 . S
C1310 C1311 1.369 . S
C1310 C1312 1.419 1_545 S
C1310 H1314 0.930 . S
C1311 C1310 1.369 . S
C1311 C1320 1.429 . S
C1312 C1310 1.419 1_565 S
C1312 C1313 1.363 . S
C1312 H1315 0.929 . S
C1313 C1312 1.363 . S
C1313 C1319 1.428 . S
H1314 C1310 0.930 . S
H1315 C1312 0.929 . S
S1316 N1317 1.613 1_565 S
S1316 N1318 1.610 . S
N1317 S1316 1.613 1_545 S
N1317 C1320 1.350 . S
N1318 S1316 1.610 . S
N1318 C1319 1.351 . S
C1319 C1313 1.428 . S
C1319 N1318 1.351 . S
C1319 C1320 1.434 1_565 S
C1320 C1311 1.429 . S
C1320 N1317 1.350 . S
C1320 C1319 1.434 1_545 S
C1321 C1322 1.369 . S
C1321 C1323 1.419 . S
C1321 H1325 0.930 . S
C1322 C1321 1.369 . S
C1322 C1331 1.429 . S
C1323 C1321 1.419 . S
C1323 C1324 1.363 . S
C1323 H1326 0.929 . S
C1324 C1323 1.363 . S
C1324 C1330 1.428 . S
H1325 C1321 0.930 . S
H1326 C1323 0.929 . S
S1327 N1328 1.613 . S
S1327 N1329 1.610 . S
N1328 S1327 1.613 . S
N1328 C1331 1.350 . S
N1329 S1327 1.610 . S
N1329 C1330 1.351 . S
C1330 C1324 1.428 . S
C1330 N1329 1.351 . S
C1330 C1331 1.434 . S
C1331 C1322 1.429 . S
C1331 N1328 1.350 . S
C1331 C1330 1.434 . S
C1332 C1333 1.369 . S
C1332 C1334 1.419 1_545 S
C1332 H1336 0.930 . S
C1333 C1332 1.369 . S
C1333 C1342 1.429 . S
C1334 C1332 1.419 1_565 S
C1334 C1335 1.363 . S
C1334 H1337 0.929 . S
C1335 C1334 1.363 . S
C1335 C1341 1.428 . S
H1336 C1332 0.930 . S
H1337 C1334 0.929 . S
S1338 N1339 1.613 1_565 S
S1338 N1340 1.610 . S
N1339 S1338 1.613 1_545 S
N1339 C1342 1.350 . S
N1340 S1338 1.610 . S
N1340 C1341 1.351 . S
C1341 C1335 1.428 . S
C1341 N1340 1.351 . S
C1341 C1342 1.434 1_565 S
C1342 C1333 1.429 . S
C1342 N1339 1.350 . S
C1342 C1341 1.434 1_545 S
C1343 C1344 1.369 . S
C1343 C1345 1.419 . S
C1343 H1347 0.930 . S
C1344 C1343 1.369 . S
C1344 C1353 1.429 . S
C1345 C1343 1.419 . S
C1345 C1346 1.363 . S
C1345 H1348 0.929 . S
C1346 C1345 1.363 . S
C1346 C1352 1.428 . S
H1347 C1343 0.930 . S
H1348 C1345 0.929 . S
S1349 N1350 1.613 . S
S1349 N1351 1.610 . S
N1350 S1349 1.613 . S
N1350 C1353 1.350 . S
N1351 S1349 1.610 . S
N1351 C1352 1.351 . S
C1352 C1346 1.428 . S
C1352 N1351 1.351 . S
C1352 C1353 1.434 . S
C1353 C1344 1.429 . S
C1353 N1350 1.350 . S
C1353 C1352 1.434 . S
C1354 C1355 1.369 . S
C1354 C1356 1.419 1_545 S
C1354 H1358 0.930 . S
C1355 C1354 1.369 . S
C1355 C1364 1.429 . S
C1356 C1354 1.419 1_565 S
C1356 C1357 1.363 . S
C1356 H1359 0.929 . S
C1357 C1356 1.363 . S
C1357 C1363 1.428 . S
H1358 C1354 0.930 . S
H1359 C1356 0.929 . S
S1360 N1361 1.613 1_565 S
S1360 N1362 1.610 . S
N1361 S1360 1.613 1_545 S
N1361 C1364 1.350 . S
N1362 S1360 1.610 . S
N1362 C1363 1.351 . S
C1363 C1357 1.428 . S
C1363 N1362 1.351 . S
C1363 C1364 1.434 1_565 S
C1364 C1355 1.429 . S
C1364 N1361 1.350 . S
C1364 C1363 1.434 1_545 S
C1365 C1366 1.369 . S
C1365 C1367 1.419 . S
C1365 H1369 0.930 . S
C1366 C1365 1.369 . S
C1366 C1375 1.429 . S
C1367 C1365 1.419 . S
C1367 C1368 1.363 . S
C1367 H1370 0.929 . S
C1368 C1367 1.363 . S
C1368 C1374 1.428 . S
H1369 C1365 0.930 . S
H1370 C1367 0.929 . S
S1371 N1372 1.613 . S
S1371 N1373 1.610 . S
N1372 S1371 1.613 . S
N1372 C1375 1.350 . S
N1373 S1371 1.610 . S
N1373 C1374 1.351 . S
C1374 C1368 1.428 . S
C1374 N1373 1.351 . S
C1374 C1375 1.434 . S
C1375 C1366 1.429 . S
C1375 N1372 1.350 . S
C1375 C1374 1.434 . S
C1376 C1377 1.369 . S
C1376 C1378 1.419 1_556 S
C1376 H1380 0.930 . S
C1377 C1376 1.369 . S
C1377 C1386 1.429 . S
C1378 C1376 1.419 1_554 S
C1378 C1379 1.363 . S
C1378 H1381 0.929 . S
C1379 C1378 1.363 . S
C1379 C1385 1.428 . S
H1380 C1376 0.930 . S
H1381 C1378 0.929 . S
S1382 N1383 1.613 1_554 S
S1382 N1384 1.610 . S
N1383 S1382 1.613 1_556 S
N1383 C1386 1.350 . S
N1384 S1382 1.610 . S
N1384 C1385 1.351 . S
C1385 C1379 1.428 . S
C1385 N1384 1.351 . S
C1385 C1386 1.434 1_554 S
C1386 C1377 1.429 . S
C1386 N1383 1.350 . S
C1386 C1385 1.434 1_556 S
C1387 C1388 1.369 . S
C1387 C1389 1.419 1_556 S
C1387 H1391 0.930 . S
C1388 C1387 1.369 . S
C1388 C1397 1.429 . S
C1389 C1387 1.419 1_554 S
C1389 C1390 1.363 . S
C1389 H1392 0.929 . S
C1390 C1389 1.363 . S
C1390 C1396 1.428 . S
H1391 C1387 0.930 . S
H1392 C1389 0.929 . S
S1393 N1394 1.613 1_554 S
S1393 N1395 1.610 . S
N1394 S1393 1.613 1_556 S
N1394 C1397 1.350 . S
N1395 S1393 1.610 . S
N1395 C1396 1.351 . S
C1396 C1390 1.428 . S
C1396 N1395 1.351 . S
C1396 C1397 1.434 1_554 S
C1397 C1388 1.429 . S
C1397 N1394 1.350 . S
C1397 C1396 1.434 1_556 S
C1398 C1399 1.369 . S
C1398 C1400 1.419 . S
C1398 H1402 0.930 . S
C1399 C1398 1.369 . S
C1399 C1408 1.429 . S
C1400 C1398 1.419 . S
C1400 C1401 1.363 . S
C1400 H1403 0.929 . S
C1401 C1400 1.363 . S
C1401 C1407 1.428 . S
H1402 C1398 0.930 . S
H1403 C1400 0.929 . S
S1404 N1405 1.613 . S
S1404 N1406 1.610 . S
N1405 S1404 1.613 . S
N1405 C1408 1.350 . S
N1406 S1404 1.610 . S
N1406 C1407 1.351 . S
C1407 C1401 1.428 . S
C1407 N1406 1.351 . S
C1407 C1408 1.434 . S
C1408 C1399 1.429 . S
C1408 N1405 1.350 . S
C1408 C1407 1.434 . S
C1409 C1410 1.369 . S
C1409 C1411 1.419 1_556 S
C1409 H1413 0.930 . S
C1410 C1409 1.369 . S
C1410 C1419 1.429 . S
C1411 C1409 1.419 1_554 S
C1411 C1412 1.363 . S
C1411 H1414 0.929 . S
C1412 C1411 1.363 . S
C1412 C1418 1.428 . S
H1413 C1409 0.930 . S
H1414 C1411 0.929 . S
S1415 N1416 1.613 1_554 S
S1415 N1417 1.610 . S
N1416 S1415 1.613 1_556 S
N1416 C1419 1.350 . S
N1417 S1415 1.610 . S
N1417 C1418 1.351 . S
C1418 C1412 1.428 . S
C1418 N1417 1.351 . S
C1418 C1419 1.434 1_554 S
C1419 C1410 1.429 . S
C1419 N1416 1.350 . S
C1419 C1418 1.434 1_556 S
C1420 C1421 1.369 . S
C1420 C1422 1.419 . S
C1420 H1424 0.930 . S
C1421 C1420 1.369 . S
C1421 C1430 1.429 . S
C1422 C1420 1.419 . S
C1422 C1423 1.363 . S
C1422 H1425 0.929 . S
C1423 C1422 1.363 . S
C1423 C1429 1.428 . S
H1424 C1420 0.930 . S
H1425 C1422 0.929 . S
S1426 N1427 1.613 . S
S1426 N1428 1.610 . S
N1427 S1426 1.613 . S
N1427 C1430 1.350 . S
N1428 S1426 1.610 . S
N1428 C1429 1.351 . S
C1429 C1423 1.428 . S
C1429 N1428 1.351 . S
C1429 C1430 1.434 . S
C1430 C1421 1.429 . S
C1430 N1427 1.350 . S
C1430 C1429 1.434 . S
C1431 C1432 1.369 . S
C1431 C1433 1.419 1_556 S
C1431 H1435 0.930 . S
C1432 C1431 1.369 . S
C1432 C1441 1.429 . S
C1433 C1431 1.419 1_554 S
C1433 C1434 1.363 . S
C1433 H1436 0.929 . S
C1434 C1433 1.363 . S
C1434 C1440 1.428 . S
H1435 C1431 0.930 . S
H1436 C1433 0.929 . S
S1437 N1438 1.613 . S
S1437 N1439 1.610 1_556 S
N1438 S1437 1.613 . S
N1438 C1441 1.350 . S
N1439 S1437 1.610 1_554 S
N1439 C1440 1.351 . S
C1440 C1434 1.428 . S
C1440 N1439 1.351 . S
C1440 C1441 1.434 1_554 S
C1441 C1432 1.429 . S
C1441 N1438 1.350 . S
C1441 C1440 1.434 1_556 S
C1442 C1443 1.369 . S
C1442 C1444 1.419 . S
C1442 H1446 0.930 . S
C1443 C1442 1.369 . S
C1443 C1452 1.429 . S
C1444 C1442 1.419 . S
C1444 C1445 1.363 . S
C1444 H1447 0.929 . S
C1445 C1444 1.363 . S
C1445 C1451 1.428 . S
H1446 C1442 0.930 . S
H1447 C1444 0.929 . S
S1448 N1449 1.613 . S
S1448 N1450 1.610 . S
N1449 S1448 1.613 . S
N1449 C1452 1.350 . S
N1450 S1448 1.610 . S
N1450 C1451 1.351 . S
C1451 C1445 1.428 . S
C1451 N1450 1.351 . S
C1451 C1452 1.434 . S
C1452 C1443 1.429 . S
C1452 N1449 1.350 . S
C1452 C1451 1.434 . S
C1453 C1454 1.369 . S
C1453 C1455 1.419 . S
C1453 H1457 0.930 . S
C1454 C1453 1.369 . S
C1454 C1463 1.429 . S
C1455 C1453 1.419 . S
C1455 C1456 1.363 . S
C1455 H1458 0.929 . S
C1456 C1455 1.363 . S
C1456 C1462 1.428 . S
H1457 C1453 0.930 . S
H1458 C1455 0.929 . S
S1459 N1460 1.613 . S
S1459 N1461 1.610 . S
N1460 S1459 1.613 . S
N1460 C1463 1.350 . S
N1461 S1459 1.610 . S
N1461 C1462 1.351 . S
C1462 C1456 1.428 . S
C1462 N1461 1.351 . S
C1462 C1463 1.434 . S
C1463 C1454 1.429 . S
C1463 N1460 1.350 . S
C1463 C1462 1.434 . S
C1464 C1465 1.369 . S
C1464 C1466 1.419 . S
C1464 H1468 0.930 . S
C1465 C1464 1.369 . S
C1465 C1474 1.429 . S
C1466 C1464 1.419 . S
C1466 C1467 1.363 . S
C1466 H1469 0.929 . S
C1467 C1466 1.363 . S
C1467 C1473 1.428 . S
H1468 C1464 0.930 . S
H1469 C1466 0.929 . S
S1470 N1471 1.613 . S
S1470 N1472 1.610 . S
N1471 S1470 1.613 . S
N1471 C1474 1.350 . S
N1472 S1470 1.610 . S
N1472 C1473 1.351 . S
C1473 C1467 1.428 . S
C1473 N1472 1.351 . S
C1473 C1474 1.434 . S
C1474 C1465 1.429 . S
C1474 N1471 1.350 . S
C1474 C1473 1.434 . S
C1475 C1476 1.369 . S
C1475 C1477 1.419 . S
C1475 H1479 0.930 . S
C1476 C1475 1.369 . S
C1476 C1485 1.429 . S
C1477 C1475 1.419 . S
C1477 C1478 1.363 . S
C1477 H1480 0.929 . S
C1478 C1477 1.363 . S
C1478 C1484 1.428 . S
H1479 C1475 0.930 . S
H1480 C1477 0.929 . S
S1481 N1482 1.613 . S
S1481 N1483 1.610 . S
N1482 S1481 1.613 . S
N1482 C1485 1.350 . S
N1483 S1481 1.610 . S
N1483 C1484 1.351 . S
C1484 C1478 1.428 . S
C1484 N1483 1.351 . S
C1484 C1485 1.434 . S
C1485 C1476 1.429 . S
C1485 N1482 1.350 . S
C1485 C1484 1.434 . S
C1486 C1487 1.369 . S
C1486 C1488 1.419 . S
C1486 H1490 0.930 . S
C1487 C1486 1.369 . S
C1487 C1496 1.429 . S
C1488 C1486 1.419 . S
C1488 C1489 1.363 . S
C1488 H1491 0.929 . S
C1489 C1488 1.363 . S
C1489 C1495 1.428 . S
H1490 C1486 0.930 . S
H1491 C1488 0.929 . S
S1492 N1493 1.613 . S
S1492 N1494 1.610 . S
N1493 S1492 1.613 . S
N1493 C1496 1.350 . S
N1494 S1492 1.610 . S
N1494 C1495 1.351 . S
C1495 C1489 1.428 . S
C1495 N1494 1.351 . S
C1495 C1496 1.434 . S
C1496 C1487 1.429 . S
C1496 N1493 1.350 . S
C1496 C1495 1.434 . S
C1497 C1498 1.369 . S
C1497 C1499 1.419 . S
C1497 H1501 0.930 . S
C1498 C1497 1.369 . S
C1498 C1507 1.429 . S
C1499 C1497 1.419 . S
C1499 C1500 1.363 . S
C1499 H1502 0.929 . S
C1500 C1499 1.363 . S
C1500 C1506 1.428 . S
H1501 C1497 0.930 . S
H1502 C1499 0.929 . S
S1503 N1504 1.613 . S
S1503 N1505 1.610 . S
N1504 S1503 1.613 . S
N1504 C1507 1.350 . S
N1505 S1503 1.610 . S
N1505 C1506 1.351 . S
C1506 C1500 1.428 . S
C1506 N1505 1.351 . S
C1506 C1507 1.434 . S
C1507 C1498 1.429 . S
C1507 N1504 1.350 . S
C1507 C1506 1.434 . S
C1508 C1509 1.369 . S
C1508 C1510 1.419 . S
C1508 H1512 0.930 . S
C1509 C1508 1.369 . S
C1509 C1518 1.429 . S
C1510 C1508 1.419 . S
C1510 C1511 1.363 . S
C1510 H1513 0.929 . S
C1511 C1510 1.363 . S
C1511 C1517 1.428 . S
H1512 C1508 0.930 . S
H1513 C1510 0.929 . S
S1514 N1515 1.613 . S
S1514 N1516 1.610 . S
N1515 S1514 1.613 . S
N1515 C1518 1.350 . S
N1516 S1514 1.610 . S
N1516 C1517 1.351 . S
C1517 C1511 1.428 . S
C1517 N1516 1.351 . S
C1517 C1518 1.434 . S
C1518 C1509 1.429 . S
C1518 N1515 1.350 . S
C1518 C1517 1.434 . S
C1519 C1520 1.369 . S
C1519 C1521 1.419 . S
C1519 H1523 0.930 . S
C1520 C1519 1.369 . S
C1520 C1529 1.429 . S
C1521 C1519 1.419 . S
C1521 C1522 1.363 . S
C1521 H1524 0.929 . S
C1522 C1521 1.363 . S
C1522 C1528 1.428 . S
H1523 C1519 0.930 . S
H1524 C1521 0.929 . S
S1525 N1526 1.613 . S
S1525 N1527 1.610 . S
N1526 S1525 1.613 . S
N1526 C1529 1.350 . S
N1527 S1525 1.610 . S
N1527 C1528 1.351 . S
C1528 C1522 1.428 . S
C1528 N1527 1.351 . S
C1528 C1529 1.434 . S
C1529 C1520 1.429 . S
C1529 N1526 1.350 . S
C1529 C1528 1.434 . S
C1530 C1531 1.369 . S
C1530 C1532 1.419 . S
C1530 H1534 0.930 . S
C1531 C1530 1.369 . S
C1531 C1540 1.429 . S
C1532 C1530 1.419 . S
C1532 C1533 1.363 . S
C1532 H1535 0.929 . S
C1533 C1532 1.363 . S
C1533 C1539 1.428 . S
H1534 C1530 0.930 . S
H1535 C1532 0.929 . S
S1536 N1537 1.613 . S
S1536 N1538 1.610 . S
N1537 S1536 1.613 . S
N1537 C1540 1.350 . S
N1538 S1536 1.610 . S
N1538 C1539 1.351 . S
C1539 C1533 1.428 . S
C1539 N1538 1.351 . S
C1539 C1540 1.434 . S
C1540 C1531 1.429 . S
C1540 N1537 1.350 . S
C1540 C1539 1.434 . S
C1541 C1542 1.369 . S
C1541 C1543 1.419 . S
C1541 H1545 0.930 . S
C1542 C1541 1.369 . S
C1542 C1551 1.429 . S
C1543 C1541 1.419 . S
C1543 C1544 1.363 . S
C1543 H1546 0.929 . S
C1544 C1543 1.363 . S
C1544 C1550 1.428 . S
H1545 C1541 0.930 . S
H1546 C1543 0.929 . S
S1547 N1548 1.613 . S
S1547 N1549 1.610 . S
N1548 S1547 1.613 . S
N1548 C1551 1.350 . S
N1549 S1547 1.610 . S
N1549 C1550 1.351 . S
C1550 C1544 1.428 . S
C1550 N1549 1.351 . S
C1550 C1551 1.434 . S
C1551 C1542 1.429 . S
C1551 N1548 1.350 . S
C1551 C1550 1.434 . S
C1552 C1553 1.369 . S
C1552 C1554 1.419 . S
C1552 H1556 0.930 . S
C1553 C1552 1.369 . S
C1553 C1562 1.429 . S
C1554 C1552 1.419 . S
C1554 C1555 1.363 . S
C1554 H1557 0.929 . S
C1555 C1554 1.363 . S
C1555 C1561 1.428 . S
H1556 C1552 0.930 . S
H1557 C1554 0.929 . S
S1558 N1559 1.613 . S
S1558 N1560 1.610 . S
N1559 S1558 1.613 . S
N1559 C1562 1.350 . S
N1560 S1558 1.610 . S
N1560 C1561 1.351 . S
C1561 C1555 1.428 . S
C1561 N1560 1.351 . S
C1561 C1562 1.434 . S
C1562 C1553 1.429 . S
C1562 N1559 1.350 . S
C1562 C1561 1.434 . S
C1563 C1564 1.369 . S
C1563 C1565 1.419 . S
C1563 H1567 0.930 . S
C1564 C1563 1.369 . S
C1564 C1573 1.429 . S
C1565 C1563 1.419 . S
C1565 C1566 1.363 . S
C1565 H1568 0.929 . S
C1566 C1565 1.363 . S
C1566 C1572 1.428 . S
H1567 C1563 0.930 . S
H1568 C1565 0.929 . S
S1569 N1570 1.613 . S
S1569 N1571 1.610 . S
N1570 S1569 1.613 . S
N1570 C1573 1.350 . S
N1571 S1569 1.610 . S
N1571 C1572 1.351 . S
C1572 C1566 1.428 . S
C1572 N1571 1.351 . S
C1572 C1573 1.434 . S
C1573 C1564 1.429 . S
C1573 N1570 1.350 . S
C1573 C1572 1.434 . S
C1574 C1575 1.369 . S
C1574 C1576 1.419 . S
C1574 H1578 0.930 . S
C1575 C1574 1.369 . S
C1575 C1584 1.429 . S
C1576 C1574 1.419 . S
C1576 C1577 1.363 . S
C1576 H1579 0.929 . S
C1577 C1576 1.363 . S
C1577 C1583 1.428 . S
H1578 C1574 0.930 . S
H1579 C1576 0.929 . S
S1580 N1581 1.613 . S
S1580 N1582 1.610 . S
N1581 S1580 1.613 . S
N1581 C1584 1.350 . S
N1582 S1580 1.610 . S
N1582 C1583 1.351 . S
C1583 C1577 1.428 . S
C1583 N1582 1.351 . S
C1583 C1584 1.434 . S
C1584 C1575 1.429 . S
C1584 N1581 1.350 . S
C1584 C1583 1.434 . S
C1585 C1586 1.369 . S
C1585 C1587 1.419 . S
C1585 H1589 0.930 . S
C1586 C1585 1.369 . S
C1586 C1595 1.429 . S
C1587 C1585 1.419 . S
C1587 C1588 1.363 . S
C1587 H1590 0.929 . S
C1588 C1587 1.363 . S
C1588 C1594 1.428 . S
H1589 C1585 0.930 . S
H1590 C1587 0.929 . S
S1591 N1592 1.613 . S
S1591 N1593 1.610 . S
N1592 S1591 1.613 . S
N1592 C1595 1.350 . S
N1593 S1591 1.610 . S
N1593 C1594 1.351 . S
C1594 C1588 1.428 . S
C1594 N1593 1.351 . S
C1594 C1595 1.434 . S
C1595 C1586 1.429 . S
C1595 N1592 1.350 . S
C1595 C1594 1.434 . S
C1596 C1597 1.369 . S
C1596 C1598 1.419 . S
C1596 H1600 0.930 . S
C1597 C1596 1.369 . S
C1597 C1606 1.429 . S
C1598 C1596 1.419 . S
C1598 C1599 1.363 . S
C1598 H1601 0.929 . S
C1599 C1598 1.363 . S
C1599 C1605 1.428 . S
H1600 C1596 0.930 . S
H1601 C1598 0.929 . S
S1602 N1603 1.613 . S
S1602 N1604 1.610 . S
N1603 S1602 1.613 . S
N1603 C1606 1.350 . S
N1604 S1602 1.610 . S
N1604 C1605 1.351 . S
C1605 C1599 1.428 . S
C1605 N1604 1.351 . S
C1605 C1606 1.434 . S
C1606 C1597 1.429 . S
C1606 N1603 1.350 . S
C1606 C1605 1.434 . S
C1607 C1608 1.369 . S
C1607 C1609 1.419 . S
C1607 H1611 0.930 . S
C1608 C1607 1.369 . S
C1608 C1617 1.429 . S
C1609 C1607 1.419 . S
C1609 C1610 1.363 . S
C1609 H1612 0.929 . S
C1610 C1609 1.363 . S
C1610 C1616 1.428 . S
H1611 C1607 0.930 . S
H1612 C1609 0.929 . S
S1613 N1614 1.613 . S
S1613 N1615 1.610 . S
N1614 S1613 1.613 . S
N1614 C1617 1.350 . S
N1615 S1613 1.610 . S
N1615 C1616 1.351 . S
C1616 C1610 1.428 . S
C1616 N1615 1.351 . S
C1616 C1617 1.434 . S
C1617 C1608 1.429 . S
C1617 N1614 1.350 . S
C1617 C1616 1.434 . S
C1618 C1619 1.369 . S
C1618 C1620 1.419 . S
C1618 H1622 0.930 . S
C1619 C1618 1.369 . S
C1619 C1628 1.429 . S
C1620 C1618 1.419 . S
C1620 C1621 1.363 . S
C1620 H1623 0.929 . S
C1621 C1620 1.363 . S
C1621 C1627 1.428 . S
H1622 C1618 0.930 . S
H1623 C1620 0.929 . S
S1624 N1625 1.613 . S
S1624 N1626 1.610 . S
N1625 S1624 1.613 . S
N1625 C1628 1.350 . S
N1626 S1624 1.610 . S
N1626 C1627 1.351 . S
C1627 C1621 1.428 . S
C1627 N1626 1.351 . S
C1627 C1628 1.434 . S
C1628 C1619 1.429 . S
C1628 N1625 1.350 . S
C1628 C1627 1.434 . S
C1629 C1630 1.369 . S
C1629 C1631 1.419 . S
C1629 H1633 0.930 . S
C1630 C1629 1.369 . S
C1630 C1639 1.429 . S
C1631 C1629 1.419 . S
C1631 C1632 1.363 . S
C1631 H1634 0.929 . S
C1632 C1631 1.363 . S
C1632 C1638 1.428 . S
H1633 C1629 0.930 . S
H1634 C1631 0.929 . S
S1635 N1636 1.613 . S
S1635 N1637 1.610 . S
N1636 S1635 1.613 . S
N1636 C1639 1.350 . S
N1637 S1635 1.610 . S
N1637 C1638 1.351 . S
C1638 C1632 1.428 . S
C1638 N1637 1.351 . S
C1638 C1639 1.434 . S
C1639 C1630 1.429 . S
C1639 N1636 1.350 . S
C1639 C1638 1.434 . S
C1640 C1641 1.369 . S
C1640 C1642 1.419 . S
C1640 H1644 0.930 . S
C1641 C1640 1.369 . S
C1641 C1650 1.429 . S
C1642 C1640 1.419 . S
C1642 C1643 1.363 . S
C1642 H1645 0.929 . S
C1643 C1642 1.363 . S
C1643 C1649 1.428 . S
H1644 C1640 0.930 . S
H1645 C1642 0.929 . S
S1646 N1647 1.613 . S
S1646 N1648 1.610 . S
N1647 S1646 1.613 . S
N1647 C1650 1.350 . S
N1648 S1646 1.610 . S
N1648 C1649 1.351 . S
C1649 C1643 1.428 . S
C1649 N1648 1.351 . S
C1649 C1650 1.434 . S
C1650 C1641 1.429 . S
C1650 N1647 1.350 . S
C1650 C1649 1.434 . S
C1651 C1652 1.369 . S
C1651 C1653 1.419 . S
C1651 H1655 0.930 . S
C1652 C1651 1.369 . S
C1652 C1661 1.429 . S
C1653 C1651 1.419 . S
C1653 C1654 1.363 . S
C1653 H1656 0.929 . S
C1654 C1653 1.363 . S
C1654 C1660 1.428 . S
H1655 C1651 0.930 . S
H1656 C1653 0.929 . S
S1657 N1658 1.613 . S
S1657 N1659 1.610 . S
N1658 S1657 1.613 . S
N1658 C1661 1.350 . S
N1659 S1657 1.610 . S
N1659 C1660 1.351 . S
C1660 C1654 1.428 . S
C1660 N1659 1.351 . S
C1660 C1661 1.434 . S
C1661 C1652 1.429 . S
C1661 N1658 1.350 . S
C1661 C1660 1.434 . S
C1662 C1663 1.369 . S
C1662 C1664 1.419 . S
C1662 H1666 0.930 . S
C1663 C1662 1.369 . S
C1663 C1672 1.429 . S
C1664 C1662 1.419 . S
C1664 C1665 1.363 . S
C1664 H1667 0.929 . S
C1665 C1664 1.363 . S
C1665 C1671 1.428 . S
H1666 C1662 0.930 . S
H1667 C1664 0.929 . S
S1668 N1669 1.613 . S
S1668 N1670 1.610 . S
N1669 S1668 1.613 . S
N1669 C1672 1.350 . S
N1670 S1668 1.610 . S
N1670 C1671 1.351 . S
C1671 C1665 1.428 . S
C1671 N1670 1.351 . S
C1671 C1672 1.434 . S
C1672 C1663 1.429 . S
C1672 N1669 1.350 . S
C1672 C1671 1.434 . S
C1673 C1674 1.369 . S
C1673 C1675 1.419 . S
C1673 H1677 0.930 . S
C1674 C1673 1.369 . S
C1674 C1683 1.429 . S
C1675 C1673 1.419 . S
C1675 C1676 1.363 . S
C1675 H1678 0.929 . S
C1676 C1675 1.363 . S
C1676 C1682 1.428 . S
H1677 C1673 0.930 . S
H1678 C1675 0.929 . S
S1679 N1680 1.613 . S
S1679 N1681 1.610 . S
N1680 S1679 1.613 . S
N1680 C1683 1.350 . S
N1681 S1679 1.610 . S
N1681 C1682 1.351 . S
C1682 C1676 1.428 . S
C1682 N1681 1.351 . S
C1682 C1683 1.434 . S
C1683 C1674 1.429 . S
C1683 N1680 1.350 . S
C1683 C1682 1.434 . S
C1684 C1685 1.369 . S
C1684 C1686 1.419 . S
C1684 H1688 0.930 . S
C1685 C1684 1.369 . S
C1685 C1694 1.429 . S
C1686 C1684 1.419 . S
C1686 C1687 1.363 . S
C1686 H1689 0.929 . S
C1687 C1686 1.363 . S
C1687 C1693 1.428 . S
H1688 C1684 0.930 . S
H1689 C1686 0.929 . S
S1690 N1691 1.613 . S
S1690 N1692 1.610 . S
N1691 S1690 1.613 . S
N1691 C1694 1.350 . S
N1692 S1690 1.610 . S
N1692 C1693 1.351 . S
C1693 C1687 1.428 . S
C1693 N1692 1.351 . S
C1693 C1694 1.434 . S
C1694 C1685 1.429 . S
C1694 N1691 1.350 . S
C1694 C1693 1.434 . S
C1695 C1696 1.369 . S
C1695 C1697 1.419 . S
C1695 H1699 0.930 . S
C1696 C1695 1.369 . S
C1696 C1705 1.429 . S
C1697 C1695 1.419 . S
C1697 C1698 1.363 . S
C1697 H1700 0.929 . S
C1698 C1697 1.363 . S
C1698 C1704 1.428 . S
H1699 C1695 0.930 . S
H1700 C1697 0.929 . S
S1701 N1702 1.613 . S
S1701 N1703 1.610 . S
N1702 S1701 1.613 . S
N1702 C1705 1.350 . S
N1703 S1701 1.610 . S
N1703 C1704 1.351 . S
C1704 C1698 1.428 . S
C1704 N1703 1.351 . S
C1704 C1705 1.434 . S
C1705 C1696 1.429 . S
C1705 N1702 1.350 . S
C1705 C1704 1.434 . S
C1706 C1707 1.369 . S
C1706 C1708 1.419 . S
C1706 H1710 0.930 . S
C1707 C1706 1.369 . S
C1707 C1716 1.429 . S
C1708 C1706 1.419 . S
C1708 C1709 1.363 . S
C1708 H1711 0.929 . S
C1709 C1708 1.363 . S
C1709 C1715 1.428 . S
H1710 C1706 0.930 . S
H1711 C1708 0.929 . S
S1712 N1713 1.613 . S
S1712 N1714 1.610 . S
N1713 S1712 1.613 . S
N1713 C1716 1.350 . S
N1714 S1712 1.610 . S
N1714 C1715 1.351 . S
C1715 C1709 1.428 . S
C1715 N1714 1.351 . S
C1715 C1716 1.434 . S
C1716 C1707 1.429 . S
C1716 N1713 1.350 . S
C1716 C1715 1.434 . S
C1717 C1718 1.369 . S
C1717 C1719 1.419 . S
C1717 H1721 0.930 . S
C1718 C1717 1.369 . S
C1718 C1727 1.429 . S
C1719 C1717 1.419 . S
C1719 C1720 1.363 . S
C1719 H1722 0.929 . S
C1720 C1719 1.363 . S
C1720 C1726 1.428 . S
H1721 C1717 0.930 . S
H1722 C1719 0.929 . S
S1723 N1724 1.613 . S
S1723 N1725 1.610 . S
N1724 S1723 1.613 . S
N1724 C1727 1.350 . S
N1725 S1723 1.610 . S
N1725 C1726 1.351 . S
C1726 C1720 1.428 . S
C1726 N1725 1.351 . S
C1726 C1727 1.434 . S
C1727 C1718 1.429 . S
C1727 N1724 1.350 . S
C1727 C1726 1.434 . S
C673 C288 1.449 . S
C675 C8 1.456 . S
C684 C25 1.115 . S
C686 C249 1.111 . S
C695 C36 1.459 . S
C697 C260 1.444 . S
C706 C277 1.114 . S
C708 C53 1.113 . S
C717 C330 1.296 . S
C719 C67 1.303 . S
C728 C81 1.178 . S
C730 C305 1.180 . S
C739 C95 1.302 . S
C741 C316 1.298 . S
C750 C109 1.180 . S
C752 C235 1.179 . S
C761 C120 1.364 . S
C763 C218 1.380 . S
C772 C137 1.389 . S
C774 C176 1.381 . S
C783 C148 1.368 . S
C785 C190 1.376 . S
C794 C204 1.376 . S
C796 C165 1.389 . S
C805 C347 1.311 . S
C807 C624 1.328 . S
C816 C585 1.054 . S
C818 C361 1.056 . S
C827 C375 1.310 . S
C829 C596 1.328 . S
C838 C613 1.052 . S
C840 C389 1.054 . S
C849 C400 1.327 . S
C851 C666 1.335 . S
C860 C641 1.132 . S
C862 C417 1.132 . S
C871 C428 1.331 . S
C873 C652 1.334 . S
C882 C571 1.138 . S
C884 C445 1.136 . S
C893 C456 1.319 . S
C895 C557 1.314 . S
C904 C512 1.352 . S
C906 C470 1.343 . S
C915 C529 1.311 . S
C917 C484 1.317 . S
C926 C540 1.352 . S
C928 C498 1.343 . S
C937 C372 1.101 . S
C939 C11 1.104 . S
C948 C22 1.075 . S
C950 C386 1.080 . S
C959 C39 1.105 . S
C961 C344 1.100 . S
C970 C50 1.082 . S
C972 C358 1.076 . S
C981 C64 1.110 . S
C983 C431 1.124 . S
C992 C442 1.066 . S
C994 C78 1.072 . S
C1003 C403 1.125 . S
C1005 C92 1.106 . S
C1014 C414 1.067 . S
C1016 C106 1.071 . S
C1025 C515 0.936 . S
C1027 C123 0.938 . S
C1036 C134 1.139 . S
C1038 C526 1.147 . S
C1047 C543 0.936 . S
C1049 C151 0.939 . S
C1058 C162 1.138 . S
C1060 C554 1.147 . S
C1069 C179 0.932 . S
C1071 C459 0.935 . S
C1080 C193 1.071 . S
C1082 C473 1.081 . S
C1091 C487 0.939 . S
C1093 C207 0.932 . S
C1102 C501 1.078 . S
C1104 C221 1.077 . S
C1113 C232 1.085 . S
C1115 C610 1.077 . S
C1124 C246 1.075 . S
C1126 C638 1.073 . S
C1135 C655 0.941 . S
C1137 C263 0.936 . S
C1146 C568 1.074 . S
C1148 C274 1.074 . S
C1157 C291 0.934 . S
C1159 C669 0.938 . S
C1168 C582 1.076 . S
C1170 C302 1.084 . S
C1179 C319 0.943 . S
C1181 C599 0.945 . S
C1190 C333 0.940 . S
C1192 C627 0.945 . S
C1201 C405 1.818 . S
C1203 C7 1.857 . S
C1212 C413 1.791 . S
C1214 C27 1.802 . S
C1223 C433 1.818 . S
C1225 C35 1.857 . S
C1234 C55 1.798 . S
C1236 C441 1.787 . S
C1245 C343 1.839 . S
C1247 C69 1.825 . S
C1256 C357 1.737 . S
C1258 C83 1.752 . S
C1267 C97 1.827 . S
C1269 C371 1.841 . S
C1278 C385 1.736 . S
C1280 C111 1.752 . S
C1289 C119 1.863 . S
C1291 C545 1.837 . S
C1300 C139 1.813 . S
C1302 C553 1.830 . S
C1311 C517 1.836 . S
C1313 C147 1.862 . S
C1322 C167 1.814 . S
C1324 C525 1.830 . S
C1333 C489 1.763 . S
C1335 C175 1.792 . S
C1344 C189 1.853 . S
C1346 C503 1.825 . S
C1355 C203 1.788 . S
C1357 C461 1.762 . S
C1366 C217 1.852 . S
C1368 C475 1.824 . S
C1377 C637 1.728 . S
C1379 C237 1.739 . S
C1388 C251 1.815 . S
C1390 C609 1.797 . S
C1399 C259 1.797 . S
C1401 C629 1.765 . S
C1410 C279 1.814 . S
C1412 C581 1.798 . S
C1421 C601 1.770 . S
C1423 C287 1.801 . S
C1432 C567 1.723 . S
C1434 C307 1.735 . S
C1443 C671 1.844 . S
C1445 C315 1.864 . S
C1454 C329 1.862 . S
C1456 C657 1.840 . S
C1465 C223 1.880 . S
C1467 C13 1.900 . S
C1476 C21 1.994 . S
C1478 C181 2.101 . S
C1487 C195 1.880 . S
C1489 C41 1.900 . S
C1498 C209 2.107 . S
C1500 C49 1.986 . S
C1509 C133 1.894 . S
C1511 C63 1.897 . S
C1520 C77 1.885 . S
C1522 C153 1.943 . S
C1531 C91 1.890 . S
C1533 C161 1.900 . S
C1542 C125 1.945 . S
C1544 C105 1.883 . S
C1553 C231 1.905 . S
C1555 C293 1.994 . S
C1564 C335 2.058 . S
C1566 C245 1.977 . S
C1575 C301 1.902 . S
C1577 C265 1.996 . S
C1586 C273 1.971 . S
C1588 C321 2.063 . S
C1597 C559 1.874 . S
C1599 C349 1.849 . S
C1608 C511 2.056 . S
C1610 C363 2.176 . S
C1619 C377 1.848 . S
C1621 C531 1.875 . S
C1630 C539 2.052 . S
C1632 C391 2.175 . S
C1641 C469 1.885 . S
C1643 C399 1.887 . S
C1652 C419 2.115 . S
C1654 C483 1.992 . S
C1663 C427 1.886 . S
C1665 C497 1.888 . S
C1674 C447 2.114 . S
C1676 C455 1.992 . S
C1685 C573 2.075 . S
C1687 C623 1.975 . S
C1696 C665 2.075 . S
C1698 C587 2.220 . S
C1707 C643 2.071 . S
C1709 C595 1.979 . S
C1718 C651 2.083 . S
C1720 C615 2.217 . S
