# Generated by pormake.
# Topology uni, (4)-cn, num edge types: 1
# Building blocks:
#     Node 0, Type 0, BuildingBlock: GALJAG_clean_sbu_0, # of connection points: 4
#     Node 1, Type 0, BuildingBlock: GALJAG_clean_sbu_0, # of connection points: 4
#     Node 2, Type 0, BuildingBlock: GALJAG_clean_sbu_0, # of connection points: 4
#     Node 3, Type 0, BuildingBlock: GALJAG_clean_sbu_0, # of connection points: 4
#     Node 4, Type 0, BuildingBlock: GALJAG_clean_sbu_0, # of connection points: 4
#     Node 5, Type 0, BuildingBlock: GALJAG_clean_sbu_0, # of connection points: 4
#     Edge 6, Type (0, 0), BuildingBlock: UVAHIK_clean_linker_0, # of connection points: 2
#     Edge 7, Type (0, 0), BuildingBlock: UVAHIK_clean_linker_0, # of connection points: 2
#     Edge 8, Type (0, 0), BuildingBlock: UVAHIK_clean_linker_0, # of connection points: 2
#     Edge 9, Type (0, 0), BuildingBlock: UVAHIK_clean_linker_0, # of connection points: 2
#     Edge 10, Type (0, 0), BuildingBlock: UVAHIK_clean_linker_0, # of connection points: 2
#     Edge 11, Type (0, 0), BuildingBlock: UVAHIK_clean_linker_0, # of connection points: 2
#     Edge 12, Type (0, 0), BuildingBlock: UVAHIK_clean_linker_0, # of connection points: 2
#     Edge 13, Type (0, 0), BuildingBlock: UVAHIK_clean_linker_0, # of connection points: 2
#     Edge 14, Type (0, 0), BuildingBlock: UVAHIK_clean_linker_0, # of connection points: 2
#     Edge 15, Type (0, 0), BuildingBlock: UVAHIK_clean_linker_0, # of connection points: 2
#     Edge 16, Type (0, 0), BuildingBlock: UVAHIK_clean_linker_0, # of connection points: 2
#     Edge 17, Type (0, 0), BuildingBlock: UVAHIK_clean_linker_0, # of connection points: 2
# Relax obj value: 0.070
# Max RMSD: 0.134
# Mean RMSD: 0.134
data_MOF--net-uni--node1-GALJAG_clean_sbu_0--edge1-UVAHIK_clean_linker_0
_symmetry_space_group_name_H-M    P1
_symmetry_Int_Tables_number       1
_symmetry_cell_setting            triclinic
loop_
_symmetry_equiv_pos_as_xyz
'x, y, z'
_cell_length_a     48.831346
_cell_length_b     48.66338
_cell_length_c     32.972704
_cell_angle_alpha  89.98165
_cell_angle_beta   90.024564
_cell_angle_gamma 120.07117
loop_
_atom_site_label
_atom_site_type_symbol
_atom_site_fract_x
_atom_site_fract_y
_atom_site_fract_z
_atom_type_partial_charge
In0 In 0.62536 0.0114 0.05026 0.0
O1 O 0.58803 0.98359 0.0018 0.0
O2 O 0.60548 0.03318 0.00633 0.0
C3 C 0.6371 0.96383 0.06697 0.0
C4 C 0.68414 0.05879 0.03117 0.0
C5 C 0.59268 0.01543 0.11395 0.0
O6 O 0.62723 0.96683 0.03283 0.0
O7 O 0.64152 0.98504 0.0923 0.0
O8 O 0.61623 0.03945 0.0988 0.0
O9 O 0.58518 0.9896 0.09634 0.0
C10 C 0.58758 0.00756 0.988 0.0
O11 O 0.67325 0.05453 0.06672 0.0
O12 O 0.66568 0.03891 0.00558 0.0
In13 In 0.62535 0.62073 0.20589 0.0
O14 O 0.62386 0.59569 0.14686 0.0
O15 O 0.58024 0.58857 0.17011 0.0
C16 C 0.68275 0.62844 0.22373 0.0
C17 C 0.63543 0.67865 0.18407 0.0
C18 C 0.5908 0.59188 0.273 0.0
O19 O 0.6609 0.60363 0.20754 0.0
O20 O 0.67595 0.6499 0.23026 0.0
O21 O 0.58542 0.61003 0.25131 0.0
O22 O 0.61315 0.58824 0.26063 0.0
C23 C 0.59431 0.58263 0.14236 0.0
O24 O 0.63039 0.66909 0.22035 0.0
O25 O 0.63577 0.65922 0.1591 0.0
In26 In 0.01232 0.62453 0.38748 0.0
O27 O 0.02667 0.62687 0.32099 0.0
O28 O 0.01201 0.58381 0.35287 0.0
C29 C 0.0622 0.68101 0.40938 0.0
C30 C 0.9601 0.6278 0.3683 0.0
C31 C 0.00668 0.58922 0.45343 0.0
O32 O 0.06146 0.66744 0.37646 0.0
O33 O 0.03777 0.66624 0.431 0.0
O34 O 0.98618 0.59669 0.44403 0.0
O35 O 0.02989 0.59942 0.42944 0.0
C36 C 0.02135 0.5987 0.31982 0.0
O37 O 0.96016 0.60199 0.37049 0.0
O38 O 0.98629 0.65207 0.37634 0.0
In39 In 0.40373 0.01263 0.54999 0.0
O40 O 0.35597 0.96928 0.56647 0.0
O41 O 0.3636 0.98471 0.50526 0.0
C42 C 0.43661 0.00856 0.61339 0.0
C43 C 0.44202 0.01705 0.48815 0.0
C44 C 0.39172 0.05994 0.56723 0.0
O45 O 0.41239 0.98466 0.59916 0.0
O46 O 0.44461 0.03425 0.59505 0.0
O47 O 0.39935 0.0558 0.53219 0.0
O48 O 0.38973 0.04003 0.59321 0.0
C49 C 0.34515 0.96485 0.53085 0.0
O50 O 0.44096 0.04079 0.50159 0.0
O51 O 0.42443 0.99139 0.50658 0.0
In52 In 0.39928 0.40055 0.70697 0.0
O53 O 0.40405 0.35677 0.7175 0.0
O54 O 0.38131 0.35857 0.66343 0.0
C55 C 0.43453 0.42514 0.77469 0.0
C56 C 0.42953 0.43501 0.64071 0.0
C57 C 0.34463 0.39882 0.72686 0.0
O58 O 0.41199 0.39688 0.77269 0.0
O59 O 0.43959 0.44084 0.74239 0.0
O60 O 0.37069 0.42429 0.72379 0.0
O61 O 0.34593 0.37413 0.71926 0.0
C62 C 0.39062 0.34332 0.68478 0.0
O63 O 0.40231 0.42949 0.65086 0.0
O64 O 0.44156 0.42342 0.66419 0.0
In65 In 0.01348 0.40169 0.88745 0.0
O66 O 0.06647 0.42469 0.87516 0.0
O67 O 0.03895 0.3746 0.87053 0.0
C68 C 0.01807 0.43607 0.95389 0.0
C69 C 0.00471 0.42782 0.8198 0.0
C70 C 0.96446 0.34487 0.91003 0.0
O71 O 0.03862 0.4286 0.94488 0.0
O72 O 0.99523 0.42627 0.92931 0.0
O73 O 0.96383 0.35918 0.87845 0.0
O74 O 0.98982 0.3591 0.93008 0.0
C75 C 0.0659 0.39904 0.86761 0.0
O76 O -0.0017 0.39931 0.82133 0.0
O77 O 0.01513 0.443 0.85247 0.0
C78 C 0.58474 0.04638 0.16884 0.0
C79 C 0.57653 0.01701 0.15103 0.0
C80 C 0.57091 0.04762 0.20544 0.0
C81 C 0.53326 0.00019 0.29644 0.0
H82 H 0.50136 0.058 0.31283 0.0
C83 C 0.45722 0.99059 0.43502 0.0
C84 C 0.46059 0.01859 0.45197 0.0
C85 C 0.4729 0.99158 0.39916 0.0
C86 C 0.51061 0.04207 0.30903 0.0
H87 H 0.54702 0.96595 0.15714 0.0
H88 H 0.52299 0.96813 0.22104 0.0
H89 H 0.52518 0.0576 0.24793 0.0
H90 H 0.48367 0.06971 0.44527 0.0
H91 H 0.51176 0.07159 0.38312 0.0
H92 H 0.51912 0.98483 0.35747 0.0
C93 C 0.54025 0.99017 0.20686 0.0
C94 C 0.52415 0.04178 0.27176 0.0
C95 C 0.55384 0.98894 0.17013 0.0
C96 C 0.48056 0.04772 0.43283 0.0
C97 C 0.49644 0.04875 0.39705 0.0
C98 C 0.51999 0.00065 0.33376 0.0
C99 C 0.54886 0.0195 0.22511 0.0
C100 C 0.5353 0.02059 0.26495 0.0
C101 C 0.49254 0.02064 0.37952 0.0
C102 C 0.50818 0.02136 0.34044 0.0
H103 H 0.60219 0.0684 0.15481 0.0
H104 H 0.57812 0.07055 0.21892 0.0
H105 H 0.54218 0.984 0.29231 0.0
H106 H 0.44183 0.96775 0.44892 0.0
H107 H 0.4689 0.9694 0.38629 0.0
C108 C 0.58235 0.5589 0.33462 0.0
C109 C 0.57283 0.57625 0.31018 0.0
C110 C 0.56574 0.54401 0.36986 0.0
C111 C 0.50952 0.54407 0.44501 0.0
H112 H 0.49868 0.46171 0.47262 0.0
C113 C 0.43235 0.46687 0.57952 0.0
C114 C 0.44565 0.45267 0.60355 0.0
C115 C 0.44713 0.48257 0.54356 0.0
C116 C 0.50174 0.48482 0.46548 0.0
H117 H 0.53845 0.59168 0.30343 0.0
H118 H 0.50889 0.56506 0.36485 0.0
H119 H 0.52497 0.48737 0.40957 0.0
H120 H 0.48501 0.44413 0.60915 0.0
H121 H 0.51072 0.4714 0.5464 0.0
H122 H 0.48591 0.54117 0.50104 0.0
C123 C 0.52954 0.56338 0.35703 0.0
C124 C 0.51685 0.49957 0.42937 0.0
C125 C 0.54633 0.57848 0.32175 0.0
C126 C 0.47416 0.45478 0.59122 0.0
C127 C 0.48878 0.47023 0.55517 0.0
C128 C 0.49417 0.52916 0.4811 0.0
C129 C 0.53901 0.54587 0.38144 0.0
C130 C 0.52132 0.52957 0.4189 0.0
C131 C 0.47532 0.48409 0.53081 0.0
C132 C 0.49048 0.49956 0.49191 0.0
H133 H 0.60284 0.55695 0.32668 0.0
H134 H 0.57413 0.53131 0.38831 0.0
H135 H 0.51284 0.56731 0.43812 0.0
H136 H 0.41038 0.46563 0.5883 0.0
H137 H 0.43613 0.49287 0.52527 0.0
C138 C 0.98982 0.42476 0.74661 0.0
C139 C 0.00142 0.44261 0.78237 0.0
C140 C 0.98803 0.43915 0.71077 0.0
C141 C 0.98785 0.51037 0.67135 0.0
H142 H 0.01468 0.48922 0.5712 0.0
C143 C 0.97809 0.5602 0.5163 0.0
C144 C 0.00406 0.57055 0.49003 0.0
C145 C 0.97606 0.5432 0.55144 0.0
C146 C 0.00725 0.4955 0.59895 0.0
H147 H 0.01992 0.4894 0.80883 0.0
H148 H 0.01718 0.5146 0.74625 0.0
H149 H 0.01438 0.46257 0.63394 0.0
H150 H 0.04818 0.57108 0.47976 0.0
H151 H 0.04483 0.54171 0.54124 0.0
H152 H 0.98161 0.54397 0.63656 0.0
C153 C 0.00903 0.4894 0.74594 0.0
C154 C 0.00671 0.47995 0.63482 0.0
C155 C 0.01078 0.47501 0.78176 0.0
C156 C 0.02783 0.56334 0.49938 0.0
C157 C 0.0258 0.54634 0.53449 0.0
C158 C 0.98838 0.52592 0.63547 0.0
C159 C -0.00215 0.47169 0.70994 0.0
C160 C -0.00279 0.48735 0.67151 0.0
C161 C -4e-05 0.53618 0.56103 0.0
C162 C -0.0017 0.51882 0.59889 0.0
H163 H 0.98234 0.39971 0.74621 0.0
H164 H 0.9789 0.42474 0.68372 0.0
H165 H 0.98007 0.51639 0.699 0.0
H166 H 0.95936 0.56534 0.50981 0.0
H167 H 0.95566 0.53538 0.57098 0.0
C168 C 0.57406 0.03449 0.93355 0.0
C169 C 0.56953 0.00629 0.95136 0.0
C170 C 0.55917 0.03368 0.89702 0.0
C171 C 0.49263 0.98231 0.83033 0.0
H172 H 0.54431 0.04181 0.74666 0.0
C173 C 0.4445 0.97783 0.66867 0.0
C174 C 0.45318 0.00706 0.65013 0.0
C175 C 0.45904 0.97672 0.70472 0.0
C176 C 0.5294 0.02528 0.76981 0.0
H177 H 0.54514 0.95503 0.94555 0.0
H178 H 0.51878 0.95359 0.8818 0.0
H179 H 0.56789 0.04204 0.81185 0.0
H180 H 0.48398 0.05804 0.65461 0.0
H181 H 0.50883 0.05624 0.71774 0.0
H182 H 0.45396 0.96592 0.78866 0.0
C183 C 0.53391 0.97631 0.89612 0.0
C184 C 0.54296 0.0254 0.80716 0.0
C185 C 0.54905 0.97715 0.93253 0.0
C186 C 0.47693 0.03512 0.66804 0.0
C187 C 0.4913 0.03405 0.70418 0.0
C188 C 0.47897 0.98236 0.79304 0.0
C189 C 0.53922 0.00462 0.87768 0.0
C190 C 0.5247 0.00404 0.83789 0.0
C191 C 0.48243 0.00486 0.72315 0.0
C192 C 0.49715 0.00396 0.76236 0.0
H193 H 0.58969 0.05732 0.94735 0.0
H194 H 0.56336 0.05584 0.8838 0.0
H195 H 0.47793 0.96574 0.85358 0.0
H196 H 0.4263 0.95579 0.65548 0.0
H197 H 0.45196 0.95379 0.7181 0.0
C198 C 0.59436 0.55541 0.07813 0.0
C199 C 0.5778 0.56304 0.10657 0.0
C200 C 0.57925 0.53821 0.04322 0.0
C201 C 0.49996 0.48697 0.99745 0.0
H202 H 0.54687 0.51338 0.89649 0.0
C203 C 0.44704 0.42037 0.84708 0.0
C204 C 0.45266 0.43914 0.81231 0.0
C205 C 0.46319 0.43397 0.8832 0.0
C206 C 0.53335 0.50582 0.92436 0.0
H207 H 0.53236 0.5583 0.12111 0.0
H208 H 0.50609 0.52884 0.05977 0.0
H209 H 0.57258 0.53989 0.95937 0.0
H210 H 0.47976 0.48677 0.7879 0.0
H211 H 0.50748 0.51065 0.85097 0.0
H212 H 0.46035 0.45374 0.96216 0.0
C213 C 0.5306 0.53563 0.0647 0.0
C214 C 0.54824 0.52074 0.96056 0.0
C215 C 0.54569 0.55267 0.09977 0.0
C216 C 0.47503 0.47168 0.81417 0.0
C217 C 0.49106 0.48532 0.8503 0.0
C218 C 0.48502 0.47213 0.9612 0.0
C219 C 0.54728 0.52842 0.03581 0.0
C220 C 0.53168 0.51165 0.99754 0.0
C221 C 0.4852 0.46668 0.88536 0.0
C222 C 0.50147 0.48152 0.92416 0.0
H223 H 0.61911 0.56292 0.0827 0.0
H224 H 0.59267 0.5326 0.02201 0.0
H225 H 0.4866 0.47909 0.02543 0.0
H226 H 0.43 0.39517 0.84649 0.0
H227 H 0.45845 0.41883 0.90942 0.0
C228 C -0.00369 0.46124 0.00012 0.0
C229 C 0.02038 0.45452 0.9906 0.0
C230 C -0.00177 0.47821 0.03521 0.0
C231 C 0.03679 0.50001 0.13568 0.0
H232 H 0.00896 0.56194 0.13432 0.0
C233 C 0.01595 0.55164 0.28224 0.0
C234 C 0.02445 0.58381 0.28238 0.0
C235 C 0.01733 0.53703 0.24645 0.0
C236 C 0.01714 0.54498 0.13515 0.0
H237 H 0.06551 0.46058 0.01005 0.0
H238 H 0.06907 0.49056 0.07106 0.0
H239 H 0.00825 0.53491 0.0718 0.0
H240 H 0.04165 0.62612 0.24538 0.0
H241 H 0.04453 0.60074 0.18291 0.0
H242 H 0.04613 0.51041 0.19889 0.0
C243 C 0.04847 0.48232 0.05175 0.0
C244 C 0.01635 0.52918 0.0994 0.0
C245 C 0.04653 0.46531 0.01668 0.0
C246 C 0.03486 0.60125 0.24615 0.0
C247 C 0.03631 0.58665 0.21033 0.0
C248 C 0.03761 0.51582 0.17142 0.0
C249 C 0.02429 0.48888 0.06152 0.0
C250 C 0.02598 0.50637 0.09928 0.0
C251 C 0.02732 0.55429 0.20999 0.0
C252 C 0.02761 0.53836 0.17165 0.0
H253 H 0.97583 0.45314 0.98064 0.0
H254 H 0.97899 0.48247 0.0421 0.0
H255 H 0.04409 0.48236 0.13676 0.0
H256 H 0.0077 0.53755 0.30967 0.0
H257 H 0.00982 0.51198 0.24718 0.0
C258 C 0.64143 0.73167 0.2004 0.0
C259 C 0.63953 0.70961 0.17144 0.0
C260 C 0.64407 0.76043 0.18816 0.0
C261 C 0.62537 0.79653 0.10299 0.0
H262 H 0.68394 0.87637 0.15456 0.0
C263 C 0.63851 0.91485 0.04742 0.0
C264 C 0.6415 0.93674 0.07728 0.0
C265 C 0.64087 0.88824 0.05777 0.0
C266 C 0.6672 0.85424 0.14012 0.0
H267 H 0.63932 0.70049 0.10702 0.0
H268 H 0.64371 0.75057 0.08571 0.0
H269 H 0.68288 0.82771 0.17542 0.0
H270 H 0.64972 0.94826 0.14126 0.0
H271 H 0.65306 0.90156 0.15952 0.0
H272 H 0.60901 0.82263 0.06845 0.0
C273 C 0.64305 0.7456 0.11783 0.0
C274 C 0.66668 0.8264 0.15204 0.0
C275 C 0.6407 0.71701 0.13005 0.0
C276 C 0.64745 0.93185 0.11754 0.0
C277 C 0.64955 0.90513 0.12795 0.0
C278 C 0.62569 0.82428 0.09131 0.0
C279 C 0.64456 0.76752 0.14673 0.0
C280 C 0.6457 0.79725 0.13365 0.0
C281 C 0.646 0.88282 0.09827 0.0
C282 C 0.64654 0.8535 0.10979 0.0
H283 H 0.64059 0.7266 0.23251 0.0
H284 H 0.64494 0.77677 0.2111 0.0
H285 H 0.60863 0.77432 0.08867 0.0
H286 H 0.63408 0.91812 0.01609 0.0
H287 H 0.63859 0.87188 0.03398 0.0
C288 C 0.90437 0.6018 0.34345 0.0
C289 C 0.93187 0.6294 0.35596 0.0
C290 C 0.87795 0.60327 0.33039 0.0
C291 C 0.8537 0.65911 0.29096 0.0
H292 H 0.7697 0.59001 0.3168 0.0
C293 C 0.73726 0.65929 0.25337 0.0
C294 C 0.71288 0.63099 0.23665 0.0
C295 C 0.76483 0.66071 0.26808 0.0
C296 C 0.79302 0.60938 0.30914 0.0
H297 H 0.95322 0.68016 0.36514 0.0
H298 H 0.90675 0.68267 0.3431 0.0
H299 H 0.81587 0.58958 0.3439 0.0
H300 H 0.69847 0.58222 0.22143 0.0
H301 H 0.74641 0.58468 0.24724 0.0
H302 H 0.83052 0.67896 0.25645 0.0
C303 C 0.90579 0.65996 0.34268 0.0
C304 C 0.81949 0.60912 0.32458 0.0
C305 C 0.93233 0.6585 0.35556 0.0
C306 C 0.71682 0.60436 0.2342 0.0
C307 C 0.74417 0.60569 0.24922 0.0
C308 C 0.82713 0.65949 0.27576 0.0
C309 C 0.8783 0.63236 0.32979 0.0
C310 C 0.85019 0.63374 0.31523 0.0
C311 C 0.76829 0.63374 0.26672 0.0
C312 C 0.79656 0.63438 0.28425 0.0
H313 H 0.90338 0.57906 0.34318 0.0
H314 H 0.85742 0.58163 0.32001 0.0
H315 H 0.87698 0.67828 0.28277 0.0
H316 H 0.73484 0.68018 0.25564 0.0
H317 H 0.78304 0.6826 0.28155 0.0
C318 C 0.09195 0.72229 0.4621 0.0
C319 C 0.08969 0.71146 0.42207 0.0
C320 C 0.11838 0.75062 0.47457 0.0
C321 C 0.18278 0.82643 0.43736 0.0
H322 H 0.22655 0.82602 0.5353 0.0
C323 C 0.30633 0.9302 0.47836 0.0
C324 C 0.31409 0.9377 0.51942 0.0
C325 C 0.27778 0.90352 0.46727 0.0
C326 C 0.21435 0.8268 0.50829 0.0
H327 H 0.11295 0.72194 0.36351 0.0
H328 H 0.15899 0.7718 0.3852 0.0
H329 H 0.1787 0.77785 0.51447 0.0
H330 H 0.29775 0.92375 0.58111 0.0
H331 H 0.24734 0.8777 0.56184 0.0
H332 H 0.21795 0.87541 0.43133 0.0
C333 C 0.14033 0.75829 0.40689 0.0
C334 C 0.187 0.79911 0.49629 0.0
C335 C 0.1141 0.72972 0.39456 0.0
C336 C 0.29244 0.91841 0.54921 0.0
C337 C 0.26366 0.89189 0.53812 0.0
C338 C 0.2099 0.85425 0.44961 0.0
C339 C 0.14282 0.76888 0.44709 0.0
C340 C 0.17114 0.79858 0.46052 0.0
C341 C 0.25611 0.88388 0.49698 0.0
C342 C 0.22626 0.85473 0.48503 0.0
H343 H 0.07349 0.70867 0.48397 0.0
H344 H 0.11963 0.75838 0.50565 0.0
H345 H 0.17075 0.82674 0.4099 0.0
H346 H 0.32268 0.94454 0.45472 0.0
H347 H 0.27314 0.89788 0.43535 0.0
C348 C 0.37869 0.30209 0.63174 0.0
C349 C 0.38686 0.31255 0.67197 0.0
C350 C 0.37641 0.27359 0.61918 0.0
C351 C 0.36344 0.19701 0.65592 0.0
H352 H 0.41033 0.19816 0.56045 0.0
C353 C 0.38531 0.09402 0.61847 0.0
C354 C 0.38704 0.0868 0.57768 0.0
C355 C 0.38272 0.12046 0.62874 0.0
C356 C 0.39657 0.19716 0.58672 0.0
H357 H 0.39843 0.30119 0.7308 0.0
H358 H 0.39388 0.25103 0.70898 0.0
H359 H 0.41001 0.24618 0.58058 0.0
H360 H 0.38648 0.10096 0.51553 0.0
H361 H 0.38085 0.14658 0.53329 0.0
H362 H 0.34953 0.14799 0.66194 0.0
C363 C 0.38937 0.26497 0.68719 0.0
C364 C 0.39654 0.22476 0.59831 0.0
C365 C 0.39212 0.2937 0.6996 0.0
C366 C 0.38537 0.1061 0.54726 0.0
C367 C 0.38238 0.13236 0.5575 0.0
C368 C 0.36309 0.16928 0.64404 0.0
C369 C 0.38178 0.25479 0.64678 0.0
C370 C 0.38031 0.22505 0.6333 0.0
C371 C 0.38139 0.14012 0.59841 0.0
C372 C 0.38002 0.16908 0.60959 0.0
H373 H 0.37456 0.31619 0.60979 0.0
H374 H 0.37035 0.26616 0.58792 0.0
H375 H 0.35041 0.19652 0.68275 0.0
H376 H 0.38674 0.07968 0.6426 0.0
H377 H 0.38261 0.12591 0.66055 0.0
C378 C 0.1237 0.426 0.85206 0.0
C379 C 0.09435 0.39788 0.85517 0.0
C380 C 0.15046 0.42513 0.83902 0.0
C381 C 0.1746 0.37589 0.78131 0.0
H382 H 0.25591 0.42994 0.83228 0.0
C383 C 0.28683 0.36898 0.74344 0.0
C384 C 0.31531 0.39799 0.73993 0.0
C385 C 0.25944 0.36822 0.7575 0.0
C386 C 0.23343 0.41494 0.81747 0.0
H387 H 0.06999 0.34677 0.84752 0.0
H388 H 0.11686 0.34521 0.82506 0.0
H389 H 0.20896 0.42971 0.85782 0.0
H390 H 0.33742 0.44897 0.74776 0.0
H391 H 0.28962 0.44767 0.77196 0.0
H392 H 0.19916 0.3612 0.74089 0.0
C393 C 0.1191 0.36796 0.83224 0.0
C394 C 0.20653 0.4148 0.83211 0.0
C395 C 0.09232 0.36883 0.84535 0.0
C396 C 0.31582 0.42624 0.75025 0.0
C397 C 0.2885 0.42548 0.76438 0.0
C398 C 0.20153 0.37602 0.76667 0.0
C399 C 0.14845 0.39613 0.82879 0.0
C400 C 0.17684 0.39543 0.81405 0.0
C401 C 0.26005 0.39645 0.76844 0.0
C402 C 0.23127 0.39571 0.78442 0.0
H403 H 0.12596 0.44876 0.85929 0.0
H404 H 0.17262 0.4473 0.83618 0.0
H405 H 0.15215 0.36102 0.76637 0.0
H406 H 0.28577 0.34683 0.73579 0.0
H407 H 0.23796 0.34546 0.76061 0.0
C408 C 0.91242 0.29616 0.89604 0.0
C409 C 0.9375 0.31411 0.92287 0.0
C410 C 0.8867 0.26723 0.90842 0.0
C411 C 0.84214 0.22477 0.99798 0.0
H412 H 0.81076 0.14947 0.93097 0.0
C413 C 0.73709 0.10479 0.04965 0.0
C414 C 0.71525 0.08588 0.0198 0.0
C415 C 0.76585 0.13138 0.03869 0.0
C416 C 0.81892 0.17034 0.94985 0.0
H417 H 0.9554 0.316 0.98361 0.0
H418 H 0.91005 0.26568 0.00548 0.0
H419 H 0.85747 0.19863 0.90967 0.0
H420 H 0.70632 0.07975 0.95512 0.0
H421 H 0.75577 0.12658 0.93599 0.0
H422 H 0.80311 0.19716 0.0374 0.0
C423 C 0.91045 0.27394 0.97486 0.0
C424 C 0.84577 0.19843 0.93767 0.0
C425 C 0.9364 0.30262 0.96228 0.0
C426 C 0.72282 0.09378 0.9788 0.0
C427 C 0.75133 0.12058 0.96784 0.0
C428 C 0.81502 0.19682 0.00989 0.0
C429 C 0.88537 0.25599 0.94803 0.0
C430 C 0.85754 0.22593 0.96154 0.0
C431 C 0.77318 0.13988 0.99763 0.0
C432 C 0.80293 0.16925 0.98587 0.0
H433 H 0.91268 0.30444 0.86547 0.0
H434 H 0.86753 0.25395 0.88727 0.0
H435 H 0.85057 0.24576 0.01672 0.0
H436 H 0.73192 0.09912 0.08151 0.0
H437 H 0.78229 0.14528 0.06247 0.0
loop_
_geom_bond_atom_site_label_1
_geom_bond_atom_site_label_2
_geom_bond_distance
_geom_bond_site_symmetry_2
_ccdc_geom_bond_type
In0 O1 2.294 1_544 S
In0 O2 2.326 . S
In0 O6 2.266 1_545 S
In0 O7 2.326 1_545 S
In0 O8 2.266 . S
In0 O9 2.326 1_545 S
In0 O11 2.294 . S
In0 O12 2.328 . S
O1 In0 2.294 1_566 S
O1 C10 1.240 1_565 S
O2 In0 2.326 . S
O2 C10 1.252 1_554 S
C3 O6 1.252 . S
C3 O7 1.260 . S
C4 O11 1.240 . S
C4 O12 1.254 . S
C5 O8 1.252 . S
C5 O9 1.260 1_545 S
O6 In0 2.266 1_565 S
O6 C3 1.252 . S
O7 In0 2.326 1_565 S
O7 C3 1.260 . S
O8 In0 2.266 . S
O8 C5 1.252 . S
O9 In0 2.326 1_565 S
O9 C5 1.260 1_565 S
C10 O1 1.240 1_545 S
C10 O2 1.252 1_556 S
O11 In0 2.294 . S
O11 C4 1.240 . S
O12 In0 2.328 . S
O12 C4 1.254 . S
In13 O14 2.294 . S
In13 O15 2.326 . S
In13 O19 2.266 . S
In13 O20 2.326 . S
In13 O21 2.266 . S
In13 O22 2.326 . S
In13 O24 2.294 . S
In13 O25 2.326 . S
O14 In13 2.294 . S
O14 C23 1.240 . S
O15 In13 2.326 . S
O15 C23 1.252 . S
C16 O19 1.252 . S
C16 O20 1.260 . S
C17 O24 1.240 . S
C17 O25 1.252 . S
C18 O21 1.252 . S
C18 O22 1.260 . S
O19 In13 2.266 . S
O19 C16 1.252 . S
O20 In13 2.326 . S
O20 C16 1.260 . S
O21 In13 2.266 . S
O21 C18 1.252 . S
O22 In13 2.326 . S
O22 C18 1.260 . S
C23 O14 1.240 . S
C23 O15 1.252 . S
O24 In13 2.294 . S
O24 C17 1.240 . S
O25 In13 2.326 . S
O25 C17 1.252 . S
In26 O27 2.294 . S
In26 O28 2.326 1_455 S
In26 O32 2.266 . S
In26 O33 2.326 . S
In26 O34 2.269 . S
In26 O35 2.326 . S
In26 O37 2.294 1_455 S
In26 O38 2.326 1_455 S
O27 In26 2.294 . S
O27 C36 1.240 . S
O28 In26 2.326 1_655 S
O28 C36 1.252 1_655 S
C29 O32 1.252 . S
C29 O33 1.260 . S
C30 O37 1.240 . S
C30 O38 1.252 . S
C31 O34 1.291 . S
C31 O35 1.260 . S
O32 In26 2.266 . S
O32 C29 1.252 . S
O33 In26 2.326 . S
O33 C29 1.260 . S
O34 In26 2.269 . S
O34 C31 1.291 . S
O35 In26 2.326 . S
O35 C31 1.260 . S
C36 O27 1.240 . S
C36 O28 1.252 1_455 S
O37 In26 2.294 1_655 S
O37 C30 1.240 . S
O38 In26 2.326 1_655 S
O38 C30 1.252 . S
In39 O40 2.294 1_545 S
In39 O41 2.326 1_545 S
In39 O45 2.266 1_545 S
In39 O46 2.326 . S
In39 O47 2.266 . S
In39 O48 2.326 . S
In39 O50 2.294 . S
In39 O51 2.326 1_545 S
O40 In39 2.294 1_565 S
O40 C49 1.240 . S
O41 In39 2.326 1_565 S
O41 C49 1.252 . S
C42 O45 1.252 1_545 S
C42 O46 1.260 . S
C43 O50 1.240 . S
C43 O51 1.252 1_545 S
C44 O47 1.252 . S
C44 O48 1.260 . S
O45 In39 2.266 1_565 S
O45 C42 1.252 1_565 S
O46 In39 2.326 . S
O46 C42 1.260 . S
O47 In39 2.266 . S
O47 C44 1.252 . S
O48 In39 2.326 . S
O48 C44 1.260 . S
C49 O40 1.240 . S
C49 O41 1.252 . S
O50 In39 2.294 . S
O50 C43 1.240 . S
O51 In39 2.326 1_565 S
O51 C43 1.252 1_565 S
In52 O53 2.294 . S
In52 O54 2.326 . S
In52 O58 2.266 . S
In52 O59 2.326 . S
In52 O60 2.266 . S
In52 O61 2.326 . S
In52 O63 2.294 . S
In52 O64 2.326 . S
O53 In52 2.294 . S
O53 C62 1.240 . S
O54 In52 2.326 . S
O54 C62 1.252 . S
C55 O58 1.252 . S
C55 O59 1.260 . S
C56 O63 1.240 . S
C56 O64 1.252 . S
C57 O60 1.252 . S
C57 O61 1.260 . S
O58 In52 2.266 . S
O58 C55 1.252 . S
O59 In52 2.326 . S
O59 C55 1.260 . S
O60 In52 2.266 . S
O60 C57 1.252 . S
O61 In52 2.326 . S
O61 C57 1.260 . S
C62 O53 1.240 . S
C62 O54 1.252 . S
O63 In52 2.294 . S
O63 C56 1.240 . S
O64 In52 2.326 . S
O64 C56 1.252 . S
In65 O66 2.294 . S
In65 O67 2.326 . S
In65 O71 2.266 . S
In65 O72 2.326 1_455 S
In65 O73 2.266 1_455 S
In65 O74 2.326 1_455 S
In65 O76 2.294 . S
In65 O77 2.326 . S
O66 In65 2.294 . S
O66 C75 1.240 . S
O67 In65 2.326 . S
O67 C75 1.252 . S
C68 O71 1.252 . S
C68 O72 1.260 1_455 S
C69 O76 1.240 . S
C69 O77 1.252 . S
C70 O73 1.252 . S
C70 O74 1.264 . S
O71 In65 2.266 . S
O71 C68 1.252 . S
O72 In65 2.326 1_655 S
O72 C68 1.260 1_655 S
O73 In65 2.266 1_655 S
O73 C70 1.252 . S
O74 In65 2.326 1_655 S
O74 C70 1.264 . S
C75 O66 1.240 . S
C75 O67 1.252 . S
O76 In65 2.294 . S
O76 C69 1.240 . S
O77 In65 2.326 . S
O77 C69 1.252 . S
C78 C79 1.349 . S
C78 C80 1.327 . S
C78 H103 0.950 . S
C79 C78 1.349 . S
C79 C95 1.349 1_545 S
C80 C78 1.327 . S
C80 C99 1.429 . S
C80 H104 0.950 . S
C81 C98 1.574 . S
C81 C100 1.368 1_565 S
C81 H105 0.949 . S
H82 C86 0.949 . S
C83 C84 1.349 1_565 S
C83 C85 1.327 . S
C83 H106 0.950 . S
C84 C83 1.349 1_545 S
C84 C96 1.349 . S
C85 C83 1.327 . S
C85 C101 1.429 1_565 S
C85 H107 0.950 . S
C86 H82 0.949 . S
C86 C94 1.574 . S
C86 C102 1.368 . S
H87 C95 0.950 . S
H88 C93 0.950 . S
H89 C94 0.949 . S
H90 C96 0.950 . S
H91 C97 0.950 . S
H92 C98 0.949 . S
C93 H88 0.950 . S
C93 C95 1.327 . S
C93 C99 1.429 1_565 S
C94 C86 1.574 . S
C94 H89 0.949 . S
C94 C100 1.368 . S
C95 C79 1.349 1_565 S
C95 H87 0.950 . S
C95 C93 1.327 . S
C96 C84 1.349 . S
C96 H90 0.950 . S
C96 C97 1.327 . S
C97 H91 0.950 . S
C97 C96 1.327 . S
C97 C101 1.429 . S
C98 C81 1.574 . S
C98 H92 0.949 . S
C98 C102 1.368 1_565 S
C99 C80 1.429 . S
C99 C93 1.429 1_545 S
C99 C100 1.523 . S
C100 C81 1.368 1_545 S
C100 C94 1.368 . S
C100 C99 1.523 . S
C101 C85 1.429 1_545 S
C101 C97 1.429 . S
C101 C102 1.523 . S
C102 C86 1.368 . S
C102 C98 1.368 1_545 S
C102 C101 1.523 . S
H103 C78 0.950 . S
H104 C80 0.950 . S
H105 C81 0.949 . S
H106 C83 0.950 . S
H107 C85 0.950 . S
C108 C109 1.349 . S
C108 C110 1.327 . S
C108 H133 0.950 . S
C109 C108 1.349 . S
C109 C125 1.349 . S
C110 C108 1.327 . S
C110 C129 1.429 . S
C110 H134 0.950 . S
C111 C128 1.574 . S
C111 C130 1.368 . S
C111 H135 0.949 . S
H112 C116 0.949 . S
C113 C114 1.349 . S
C113 C115 1.327 . S
C113 H136 0.950 . S
C114 C113 1.349 . S
C114 C126 1.349 . S
C115 C113 1.327 . S
C115 C131 1.429 . S
C115 H137 0.950 . S
C116 H112 0.949 . S
C116 C124 1.574 . S
C116 C132 1.368 . S
H117 C125 0.950 . S
H118 C123 0.950 . S
H119 C124 0.949 . S
H120 C126 0.950 . S
H121 C127 0.950 . S
H122 C128 0.949 . S
C123 H118 0.950 . S
C123 C125 1.327 . S
C123 C129 1.429 . S
C124 C116 1.574 . S
C124 H119 0.949 . S
C124 C130 1.368 . S
C125 C109 1.349 . S
C125 H117 0.950 . S
C125 C123 1.327 . S
C126 C114 1.349 . S
C126 H120 0.950 . S
C126 C127 1.327 . S
C127 H121 0.950 . S
C127 C126 1.327 . S
C127 C131 1.429 . S
C128 C111 1.574 . S
C128 H122 0.949 . S
C128 C132 1.368 . S
C129 C110 1.429 . S
C129 C123 1.429 . S
C129 C130 1.523 . S
C130 C111 1.368 . S
C130 C124 1.368 . S
C130 C129 1.523 . S
C131 C115 1.429 . S
C131 C127 1.429 . S
C131 C132 1.523 . S
C132 C116 1.368 . S
C132 C128 1.368 . S
C132 C131 1.523 . S
H133 C108 0.950 . S
H134 C110 0.950 . S
H135 C111 0.949 . S
H136 C113 0.950 . S
H137 C115 0.950 . S
C138 C139 1.349 . S
C138 C140 1.327 . S
C138 H163 0.950 . S
C139 C138 1.349 . S
C139 C155 1.349 . S
C140 C138 1.327 . S
C140 C159 1.429 . S
C140 H164 0.950 . S
C141 C158 1.574 . S
C141 C160 1.368 . S
C141 H165 0.949 . S
H142 C146 0.949 . S
C143 C144 1.349 . S
C143 C145 1.327 . S
C143 H166 0.950 . S
C144 C143 1.349 . S
C144 C156 1.349 . S
C145 C143 1.327 . S
C145 C161 1.429 . S
C145 H167 0.950 . S
C146 H142 0.949 . S
C146 C154 1.574 . S
C146 C162 1.368 . S
H147 C155 0.950 . S
H148 C153 0.950 . S
H149 C154 0.949 . S
H150 C156 0.950 . S
H151 C157 0.950 . S
H152 C158 0.949 . S
C153 H148 0.950 . S
C153 C155 1.327 . S
C153 C159 1.429 . S
C154 C146 1.574 . S
C154 H149 0.949 . S
C154 C160 1.368 . S
C155 C139 1.349 . S
C155 H147 0.950 . S
C155 C153 1.327 . S
C156 C144 1.349 . S
C156 H150 0.950 . S
C156 C157 1.327 . S
C157 H151 0.950 . S
C157 C156 1.327 . S
C157 C161 1.429 . S
C158 C141 1.574 . S
C158 H152 0.949 . S
C158 C162 1.368 . S
C159 C140 1.429 . S
C159 C153 1.429 . S
C159 C160 1.523 . S
C160 C141 1.368 . S
C160 C154 1.368 . S
C160 C159 1.523 . S
C161 C145 1.429 . S
C161 C157 1.429 . S
C161 C162 1.523 . S
C162 C146 1.368 . S
C162 C158 1.368 . S
C162 C161 1.523 . S
H163 C138 0.950 . S
H164 C140 0.950 . S
H165 C141 0.949 . S
H166 C143 0.950 . S
H167 C145 0.950 . S
C168 C169 1.349 . S
C168 C170 1.327 . S
C168 H193 0.950 . S
C169 C168 1.349 . S
C169 C185 1.347 1_545 S
C170 C168 1.327 . S
C170 C189 1.429 . S
C170 H194 0.950 . S
C171 C188 1.574 . S
C171 C190 1.368 1_565 S
C171 H195 0.949 . S
H172 C176 0.949 . S
C173 C174 1.329 1_565 S
C173 C175 1.338 . S
C173 H196 0.960 . S
C174 C173 1.329 1_545 S
C174 C186 1.349 . S
C175 C173 1.338 . S
C175 C191 1.429 1_565 S
C175 H197 0.950 . S
C176 H172 0.949 . S
C176 C184 1.574 . S
C176 C192 1.368 . S
H177 C185 0.953 . S
H178 C183 0.961 . S
H179 C184 0.949 . S
H180 C186 0.950 . S
H181 C187 0.950 . S
H182 C188 0.949 . S
C183 H178 0.961 . S
C183 C185 1.336 . S
C183 C189 1.408 1_565 S
C184 C176 1.574 . S
C184 H179 0.949 . S
C184 C190 1.368 . S
C185 C169 1.347 1_565 S
C185 H177 0.953 . S
C185 C183 1.336 . S
C186 C174 1.349 . S
C186 H180 0.950 . S
C186 C187 1.327 . S
C187 H181 0.950 . S
C187 C186 1.327 . S
C187 C191 1.429 . S
C188 C171 1.574 . S
C188 H182 0.949 . S
C188 C192 1.368 1_565 S
C189 C170 1.429 . S
C189 C183 1.408 1_545 S
C189 C190 1.523 . S
C190 C171 1.368 1_545 S
C190 C184 1.368 . S
C190 C189 1.523 . S
C191 C175 1.429 1_545 S
C191 C187 1.429 . S
C191 C192 1.523 . S
C192 C176 1.368 . S
C192 C188 1.368 1_545 S
C192 C191 1.523 . S
H193 C168 0.950 . S
H194 C170 0.950 . S
H195 C171 0.949 . S
H196 C173 0.960 . S
H197 C175 0.950 . S
C198 C199 1.349 . S
C198 C200 1.327 . S
C198 H223 0.950 . S
C199 C198 1.349 . S
C199 C215 1.349 . S
C200 C198 1.327 . S
C200 C219 1.429 . S
C200 H224 0.950 . S
C201 C218 1.574 1_554 S
C201 C220 1.368 1_554 S
C201 H225 0.949 . S
H202 C206 0.949 . S
C203 C204 1.349 . S
C203 C205 1.327 . S
C203 H226 0.950 . S
C204 C203 1.349 . S
C204 C216 1.349 . S
C205 C203 1.327 . S
C205 C221 1.429 . S
C205 H227 0.950 . S
C206 H202 0.949 . S
C206 C214 1.574 . S
C206 C222 1.368 . S
H207 C215 0.950 . S
H208 C213 0.950 . S
H209 C214 0.949 . S
H210 C216 0.950 . S
H211 C217 0.950 . S
H212 C218 0.949 . S
C213 H208 0.950 . S
C213 C215 1.327 . S
C213 C219 1.429 . S
C214 C206 1.574 . S
C214 H209 0.949 . S
C214 C220 1.368 . S
C215 C199 1.349 . S
C215 H207 0.950 . S
C215 C213 1.327 . S
C216 C204 1.349 . S
C216 H210 0.950 . S
C216 C217 1.327 . S
C217 H211 0.950 . S
C217 C216 1.327 . S
C217 C221 1.429 . S
C218 C201 1.574 1_556 S
C218 H212 0.949 . S
C218 C222 1.368 . S
C219 C200 1.429 . S
C219 C213 1.429 . S
C219 C220 1.523 1_554 S
C220 C201 1.368 1_556 S
C220 C214 1.368 . S
C220 C219 1.523 1_556 S
C221 C205 1.429 . S
C221 C217 1.429 . S
C221 C222 1.523 . S
C222 C206 1.368 . S
C222 C218 1.368 . S
C222 C221 1.523 . S
H223 C198 0.950 . S
H224 C200 0.950 . S
H225 C201 0.949 . S
H226 C203 0.950 . S
H227 C205 0.950 . S
C228 C229 1.349 . S
C228 C230 1.327 1_556 S
C228 H253 0.958 . S
C229 C228 1.349 . S
C229 C245 1.349 1_556 S
C230 C228 1.327 1_554 S
C230 C249 1.429 . S
C230 H254 0.954 . S
C231 C248 1.574 . S
C231 C250 1.368 . S
C231 H255 0.949 . S
H232 C236 0.949 1_655 S
C233 C234 1.349 . S
C233 C235 1.327 . S
C233 H256 0.950 . S
C234 C233 1.349 . S
C234 C246 1.349 . S
C235 C233 1.327 . S
C235 C251 1.429 . S
C235 H257 0.950 . S
C236 H232 0.949 1_455 S
C236 C244 1.574 . S
C236 C252 1.368 . S
H237 C245 0.950 . S
H238 C243 0.950 . S
H239 C244 0.949 . S
H240 C246 0.950 1_655 S
H241 C247 0.949 1_655 S
H242 C248 0.949 . S
C243 H238 0.950 . S
C243 C245 1.327 . S
C243 C249 1.429 . S
C244 C236 1.574 . S
C244 H239 0.949 . S
C244 C250 1.368 . S
C245 C229 1.349 1_554 S
C245 H237 0.950 . S
C245 C243 1.327 . S
C246 C234 1.349 . S
C246 H240 0.950 1_455 S
C246 C247 1.327 . S
C247 H241 0.949 1_455 S
C247 C246 1.327 . S
C247 C251 1.429 . S
C248 C231 1.574 . S
C248 H242 0.949 . S
C248 C252 1.368 . S
C249 C230 1.429 . S
C249 C243 1.429 . S
C249 C250 1.523 . S
C250 C231 1.368 . S
C250 C244 1.368 . S
C250 C249 1.523 . S
C251 C235 1.429 . S
C251 C247 1.429 . S
C251 C252 1.523 . S
C252 C236 1.368 . S
C252 C248 1.368 . S
C252 C251 1.523 . S
H253 C228 0.958 . S
H254 C230 0.954 . S
H255 C231 0.949 . S
H256 C233 0.950 . S
H257 C235 0.950 . S
C258 C259 1.349 . S
C258 C260 1.327 . S
C258 H283 0.950 . S
C259 C258 1.349 . S
C259 C275 1.349 . S
C260 C258 1.327 . S
C260 C279 1.429 . S
C260 H284 0.950 . S
C261 C278 1.574 . S
C261 C280 1.368 . S
C261 H285 0.949 . S
H262 C266 0.949 . S
C263 C264 1.349 . S
C263 C265 1.327 . S
C263 H286 0.950 . S
C264 C263 1.349 . S
C264 C276 1.349 . S
C265 C263 1.327 . S
C265 C281 1.429 . S
C265 H287 0.950 . S
C266 H262 0.949 . S
C266 C274 1.574 . S
C266 C282 1.368 . S
H267 C275 0.950 . S
H268 C273 0.950 . S
H269 C274 0.949 . S
H270 C276 0.950 . S
H271 C277 0.950 . S
H272 C278 0.949 . S
C273 H268 0.950 . S
C273 C275 1.327 . S
C273 C279 1.429 . S
C274 C266 1.574 . S
C274 H269 0.949 . S
C274 C280 1.368 . S
C275 C259 1.349 . S
C275 H267 0.950 . S
C275 C273 1.327 . S
C276 C264 1.349 . S
C276 H270 0.950 . S
C276 C277 1.327 . S
C277 H271 0.950 . S
C277 C276 1.327 . S
C277 C281 1.429 . S
C278 C261 1.574 . S
C278 H272 0.949 . S
C278 C282 1.368 . S
C279 C260 1.429 . S
C279 C273 1.429 . S
C279 C280 1.523 . S
C280 C261 1.368 . S
C280 C274 1.368 . S
C280 C279 1.523 . S
C281 C265 1.429 . S
C281 C277 1.429 . S
C281 C282 1.523 . S
C282 C266 1.368 . S
C282 C278 1.368 . S
C282 C281 1.523 . S
H283 C258 0.950 . S
H284 C260 0.950 . S
H285 C261 0.949 . S
H286 C263 0.950 . S
H287 C265 0.950 . S
C288 C289 1.349 . S
C288 C290 1.327 . S
C288 H313 0.950 . S
C289 C288 1.349 . S
C289 C305 1.349 . S
C290 C288 1.327 . S
C290 C309 1.429 . S
C290 H314 0.950 . S
C291 C308 1.574 . S
C291 C310 1.368 . S
C291 H315 0.949 . S
H292 C296 0.949 . S
C293 C294 1.349 . S
C293 C295 1.327 . S
C293 H316 0.950 . S
C294 C293 1.349 . S
C294 C306 1.349 . S
C295 C293 1.327 . S
C295 C311 1.429 . S
C295 H317 0.950 . S
C296 H292 0.949 . S
C296 C304 1.574 . S
C296 C312 1.368 . S
H297 C305 0.950 . S
H298 C303 0.950 . S
H299 C304 0.949 . S
H300 C306 0.950 . S
H301 C307 0.950 . S
H302 C308 0.949 . S
C303 H298 0.950 . S
C303 C305 1.327 . S
C303 C309 1.429 . S
C304 C296 1.574 . S
C304 H299 0.949 . S
C304 C310 1.368 . S
C305 C289 1.349 . S
C305 H297 0.950 . S
C305 C303 1.327 . S
C306 C294 1.349 . S
C306 H300 0.950 . S
C306 C307 1.327 . S
C307 H301 0.950 . S
C307 C306 1.327 . S
C307 C311 1.429 . S
C308 C291 1.574 . S
C308 H302 0.949 . S
C308 C312 1.368 . S
C309 C290 1.429 . S
C309 C303 1.429 . S
C309 C310 1.523 . S
C310 C291 1.368 . S
C310 C304 1.368 . S
C310 C309 1.523 . S
C311 C295 1.429 . S
C311 C307 1.429 . S
C311 C312 1.523 . S
C312 C296 1.368 . S
C312 C308 1.368 . S
C312 C311 1.523 . S
H313 C288 0.950 . S
H314 C290 0.950 . S
H315 C291 0.949 . S
H316 C293 0.950 . S
H317 C295 0.950 . S
C318 C319 1.349 . S
C318 C320 1.327 . S
C318 H343 0.950 . S
C319 C318 1.349 . S
C319 C335 1.349 . S
C320 C318 1.327 . S
C320 C339 1.429 . S
C320 H344 0.950 . S
C321 C338 1.574 . S
C321 C340 1.368 . S
C321 H345 0.949 . S
H322 C326 0.949 . S
C323 C324 1.349 . S
C323 C325 1.327 . S
C323 H346 0.950 . S
C324 C323 1.349 . S
C324 C336 1.349 . S
C325 C323 1.327 . S
C325 C341 1.429 . S
C325 H347 0.950 . S
C326 H322 0.949 . S
C326 C334 1.574 . S
C326 C342 1.368 . S
H327 C335 0.950 . S
H328 C333 0.950 . S
H329 C334 0.949 . S
H330 C336 0.950 . S
H331 C337 0.950 . S
H332 C338 0.949 . S
C333 H328 0.950 . S
C333 C335 1.327 . S
C333 C339 1.429 . S
C334 C326 1.574 . S
C334 H329 0.949 . S
C334 C340 1.368 . S
C335 C319 1.349 . S
C335 H327 0.950 . S
C335 C333 1.327 . S
C336 C324 1.349 . S
C336 H330 0.950 . S
C336 C337 1.327 . S
C337 H331 0.950 . S
C337 C336 1.327 . S
C337 C341 1.429 . S
C338 C321 1.574 . S
C338 H332 0.949 . S
C338 C342 1.368 . S
C339 C320 1.429 . S
C339 C333 1.429 . S
C339 C340 1.523 . S
C340 C321 1.368 . S
C340 C334 1.368 . S
C340 C339 1.523 . S
C341 C325 1.429 . S
C341 C337 1.429 . S
C341 C342 1.523 . S
C342 C326 1.368 . S
C342 C338 1.368 . S
C342 C341 1.523 . S
H343 C318 0.950 . S
H344 C320 0.950 . S
H345 C321 0.949 . S
H346 C323 0.950 . S
H347 C325 0.950 . S
C348 C349 1.349 . S
C348 C350 1.327 . S
C348 H373 0.950 . S
C349 C348 1.349 . S
C349 C365 1.349 . S
C350 C348 1.327 . S
C350 C369 1.429 . S
C350 H374 0.950 . S
C351 C368 1.574 . S
C351 C370 1.368 . S
C351 H375 0.949 . S
H352 C356 0.949 . S
C353 C354 1.349 . S
C353 C355 1.327 . S
C353 H376 0.950 . S
C354 C353 1.349 . S
C354 C366 1.349 . S
C355 C353 1.327 . S
C355 C371 1.429 . S
C355 H377 0.950 . S
C356 H352 0.949 . S
C356 C364 1.574 . S
C356 C372 1.368 . S
H357 C365 0.950 . S
H358 C363 0.950 . S
H359 C364 0.949 . S
H360 C366 0.950 . S
H361 C367 0.950 . S
H362 C368 0.949 . S
C363 H358 0.950 . S
C363 C365 1.327 . S
C363 C369 1.429 . S
C364 C356 1.574 . S
C364 H359 0.949 . S
C364 C370 1.368 . S
C365 C349 1.349 . S
C365 H357 0.950 . S
C365 C363 1.327 . S
C366 C354 1.349 . S
C366 H360 0.950 . S
C366 C367 1.327 . S
C367 H361 0.950 . S
C367 C366 1.327 . S
C367 C371 1.429 . S
C368 C351 1.574 . S
C368 H362 0.949 . S
C368 C372 1.368 . S
C369 C350 1.429 . S
C369 C363 1.429 . S
C369 C370 1.523 . S
C370 C351 1.368 . S
C370 C364 1.368 . S
C370 C369 1.523 . S
C371 C355 1.429 . S
C371 C367 1.429 . S
C371 C372 1.523 . S
C372 C356 1.368 . S
C372 C368 1.368 . S
C372 C371 1.523 . S
H373 C348 0.950 . S
H374 C350 0.950 . S
H375 C351 0.949 . S
H376 C353 0.950 . S
H377 C355 0.950 . S
C378 C379 1.349 . S
C378 C380 1.327 . S
C378 H403 0.950 . S
C379 C378 1.349 . S
C379 C395 1.349 . S
C380 C378 1.327 . S
C380 C399 1.429 . S
C380 H404 0.950 . S
C381 C398 1.574 . S
C381 C400 1.368 . S
C381 H405 0.949 . S
H382 C386 0.949 . S
C383 C384 1.349 . S
C383 C385 1.327 . S
C383 H406 0.950 . S
C384 C383 1.349 . S
C384 C396 1.349 . S
C385 C383 1.327 . S
C385 C401 1.429 . S
C385 H407 0.950 . S
C386 H382 0.949 . S
C386 C394 1.574 . S
C386 C402 1.368 . S
H387 C395 0.950 . S
H388 C393 0.950 . S
H389 C394 0.949 . S
H390 C396 0.950 . S
H391 C397 0.950 . S
H392 C398 0.949 . S
C393 H388 0.950 . S
C393 C395 1.327 . S
C393 C399 1.429 . S
C394 C386 1.574 . S
C394 H389 0.949 . S
C394 C400 1.368 . S
C395 C379 1.349 . S
C395 H387 0.950 . S
C395 C393 1.327 . S
C396 C384 1.349 . S
C396 H390 0.950 . S
C396 C397 1.327 . S
C397 H391 0.950 . S
C397 C396 1.327 . S
C397 C401 1.429 . S
C398 C381 1.574 . S
C398 H392 0.949 . S
C398 C402 1.368 . S
C399 C380 1.429 . S
C399 C393 1.429 . S
C399 C400 1.523 . S
C400 C381 1.368 . S
C400 C394 1.368 . S
C400 C399 1.523 . S
C401 C385 1.429 . S
C401 C397 1.429 . S
C401 C402 1.523 . S
C402 C386 1.368 . S
C402 C398 1.368 . S
C402 C401 1.523 . S
H403 C378 0.950 . S
H404 C380 0.950 . S
H405 C381 0.949 . S
H406 C383 0.950 . S
H407 C385 0.950 . S
C408 C409 1.349 . S
C408 C410 1.327 . S
C408 H433 0.950 . S
C409 C408 1.349 . S
C409 C425 1.349 . S
C410 C408 1.327 . S
C410 C429 1.429 . S
C410 H434 0.950 . S
C411 C428 1.574 1_556 S
C411 C430 1.368 . S
C411 H435 0.949 1_556 S
H412 C416 0.949 . S
C413 C414 1.349 . S
C413 C415 1.327 . S
C413 H436 0.950 . S
C414 C413 1.349 . S
C414 C426 1.349 1_554 S
C415 C413 1.327 . S
C415 C431 1.429 1_554 S
C415 H437 0.950 . S
C416 H412 0.949 . S
C416 C424 1.574 . S
C416 C432 1.368 . S
H417 C425 0.950 . S
H418 C423 0.950 . S
H419 C424 0.949 . S
H420 C426 0.950 . S
H421 C427 0.950 . S
H422 C428 0.949 . S
C423 H418 0.950 . S
C423 C425 1.327 . S
C423 C429 1.429 . S
C424 C416 1.574 . S
C424 H419 0.949 . S
C424 C430 1.368 . S
C425 C409 1.349 . S
C425 H417 0.950 . S
C425 C423 1.327 . S
C426 C414 1.349 1_556 S
C426 H420 0.950 . S
C426 C427 1.327 . S
C427 H421 0.950 . S
C427 C426 1.327 . S
C427 C431 1.429 . S
C428 C411 1.574 1_554 S
C428 H422 0.949 . S
C428 C432 1.368 1_554 S
C429 C410 1.429 . S
C429 C423 1.429 . S
C429 C430 1.523 . S
C430 C411 1.368 . S
C430 C424 1.368 . S
C430 C429 1.523 . S
C431 C415 1.429 1_556 S
C431 C427 1.429 . S
C431 C432 1.523 . S
C432 C416 1.368 . S
C432 C428 1.368 1_556 S
C432 C431 1.523 . S
H433 C408 0.950 . S
H434 C410 0.950 . S
H435 C411 0.949 1_554 S
H436 C413 0.950 . S
H437 C415 0.950 . S
C79 C5 1.845 . S
C84 C43 1.844 . S
C109 C18 1.845 . S
C114 C56 1.844 . S
C139 C69 1.844 . S
C144 C31 1.845 . S
C169 C10 1.844 . S
C174 C42 1.845 . S
C199 C23 1.844 . S
C204 C55 1.845 . S
C229 C68 1.845 . S
C234 C36 1.844 . S
C259 C17 1.391 . S
C264 C3 1.393 . S
C289 C30 1.390 . S
C294 C16 1.392 . S
C319 C29 1.392 . S
C324 C49 1.390 . S
C349 C62 1.391 . S
C354 C44 1.393 . S
C379 C75 1.390 . S
C384 C57 1.392 . S
C409 C70 1.393 . S
C414 C4 1.390 . S
