# Generated by pormake.
# Topology umz, (4)-cn, num edge types: 1
# Building blocks:
#     Node 0, Type 0, BuildingBlock: QUQFOY_clean_sbu_1, # of connection points: 4
#     Node 1, Type 0, BuildingBlock: QUQFOY_clean_sbu_1, # of connection points: 4
#     Node 2, Type 0, BuildingBlock: QUQFOY_clean_sbu_1, # of connection points: 4
#     Node 3, Type 0, BuildingBlock: QUQFOY_clean_sbu_1, # of connection points: 4
#     Node 4, Type 0, BuildingBlock: QUQFOY_clean_sbu_1, # of connection points: 4
#     Node 5, Type 0, BuildingBlock: QUQFOY_clean_sbu_1, # of connection points: 4
#     Node 6, Type 0, BuildingBlock: QUQFOY_clean_sbu_1, # of connection points: 4
#     Node 7, Type 0, BuildingBlock: QUQFOY_clean_sbu_1, # of connection points: 4
#     Node 8, Type 0, BuildingBlock: QUQFOY_clean_sbu_1, # of connection points: 4
#     Node 9, Type 0, BuildingBlock: QUQFOY_clean_sbu_1, # of connection points: 4
#     Node 10, Type 0, BuildingBlock: QUQFOY_clean_sbu_1, # of connection points: 4
#     Node 11, Type 0, BuildingBlock: QUQFOY_clean_sbu_1, # of connection points: 4
#     Node 12, Type 0, BuildingBlock: QUQFOY_clean_sbu_1, # of connection points: 4
#     Node 13, Type 0, BuildingBlock: QUQFOY_clean_sbu_1, # of connection points: 4
#     Node 14, Type 0, BuildingBlock: QUQFOY_clean_sbu_1, # of connection points: 4
#     Node 15, Type 0, BuildingBlock: QUQFOY_clean_sbu_1, # of connection points: 4
#     Edge 16, Type (0, 0), BuildingBlock: OJICUG_clean_linker_0, # of connection points: 2
#     Edge 17, Type (0, 0), BuildingBlock: OJICUG_clean_linker_0, # of connection points: 2
#     Edge 18, Type (0, 0), BuildingBlock: OJICUG_clean_linker_0, # of connection points: 2
#     Edge 19, Type (0, 0), BuildingBlock: OJICUG_clean_linker_0, # of connection points: 2
#     Edge 20, Type (0, 0), BuildingBlock: OJICUG_clean_linker_0, # of connection points: 2
#     Edge 21, Type (0, 0), BuildingBlock: OJICUG_clean_linker_0, # of connection points: 2
#     Edge 22, Type (0, 0), BuildingBlock: OJICUG_clean_linker_0, # of connection points: 2
#     Edge 23, Type (0, 0), BuildingBlock: OJICUG_clean_linker_0, # of connection points: 2
#     Edge 24, Type (0, 0), BuildingBlock: OJICUG_clean_linker_0, # of connection points: 2
#     Edge 25, Type (0, 0), BuildingBlock: OJICUG_clean_linker_0, # of connection points: 2
#     Edge 26, Type (0, 0), BuildingBlock: OJICUG_clean_linker_0, # of connection points: 2
#     Edge 27, Type (0, 0), BuildingBlock: OJICUG_clean_linker_0, # of connection points: 2
#     Edge 28, Type (0, 0), BuildingBlock: OJICUG_clean_linker_0, # of connection points: 2
#     Edge 29, Type (0, 0), BuildingBlock: OJICUG_clean_linker_0, # of connection points: 2
#     Edge 30, Type (0, 0), BuildingBlock: OJICUG_clean_linker_0, # of connection points: 2
#     Edge 31, Type (0, 0), BuildingBlock: OJICUG_clean_linker_0, # of connection points: 2
#     Edge 32, Type (0, 0), BuildingBlock: OJICUG_clean_linker_0, # of connection points: 2
#     Edge 33, Type (0, 0), BuildingBlock: OJICUG_clean_linker_0, # of connection points: 2
#     Edge 34, Type (0, 0), BuildingBlock: OJICUG_clean_linker_0, # of connection points: 2
#     Edge 35, Type (0, 0), BuildingBlock: OJICUG_clean_linker_0, # of connection points: 2
#     Edge 36, Type (0, 0), BuildingBlock: OJICUG_clean_linker_0, # of connection points: 2
#     Edge 37, Type (0, 0), BuildingBlock: OJICUG_clean_linker_0, # of connection points: 2
#     Edge 38, Type (0, 0), BuildingBlock: OJICUG_clean_linker_0, # of connection points: 2
#     Edge 39, Type (0, 0), BuildingBlock: OJICUG_clean_linker_0, # of connection points: 2
#     Edge 40, Type (0, 0), BuildingBlock: OJICUG_clean_linker_0, # of connection points: 2
#     Edge 41, Type (0, 0), BuildingBlock: OJICUG_clean_linker_0, # of connection points: 2
#     Edge 42, Type (0, 0), BuildingBlock: OJICUG_clean_linker_0, # of connection points: 2
#     Edge 43, Type (0, 0), BuildingBlock: OJICUG_clean_linker_0, # of connection points: 2
#     Edge 44, Type (0, 0), BuildingBlock: OJICUG_clean_linker_0, # of connection points: 2
#     Edge 45, Type (0, 0), BuildingBlock: OJICUG_clean_linker_0, # of connection points: 2
#     Edge 46, Type (0, 0), BuildingBlock: OJICUG_clean_linker_0, # of connection points: 2
#     Edge 47, Type (0, 0), BuildingBlock: OJICUG_clean_linker_0, # of connection points: 2
# Relax obj value: 0.241
# Max RMSD: 0.195
# Mean RMSD: 0.195
data_MOF--net-umz--node1-QUQFOY_clean_sbu_1--edge1-OJICUG_clean_linker_0
_symmetry_space_group_name_H-M    P1
_symmetry_Int_Tables_number       1
_symmetry_cell_setting            triclinic
loop_
_symmetry_equiv_pos_as_xyz
'x, y, z'
_cell_length_a     46.20923
_cell_length_b     46.239108
_cell_length_c     17.523239
_cell_angle_alpha  89.994785
_cell_angle_beta   90.001728
_cell_angle_gamma 90.000511
loop_
_atom_site_label
_atom_site_type_symbol
_atom_site_fract_x
_atom_site_fract_y
_atom_site_fract_z
_atom_type_partial_charge
O0 O 0.0805 0.64982 0.91755 0.0
Cd1 Cd 0.06836 0.67025 0.01599 0.0
Cd2 Cd 0.03136 0.62754 0.0118 0.0
O3 O 0.04008 0.62608 0.89613 0.0
O4 O 0.09009 0.70732 0.00856 0.0
O5 O 0.04234 0.70524 0.0061 0.0
C6 C 0.0657 0.72043 -0.00015 0.0
C7 C 0.98748 0.62675 0.07638 0.0
C8 C 0.06502 0.63425 0.87414 0.0
C9 C 0.07917 0.62243 0.12223 0.0
O10 O 0.06241 0.60844 0.0783 0.0
O11 O 0.08172 0.64972 0.11488 0.0
O12 O 0.99563 0.60517 0.03489 0.0
O13 O 1.00264 0.65025 0.07372 0.0
O14 O 0.91159 0.08078 0.418 0.0
Cd15 Cd 0.89109 0.06868 0.51639 0.0
Cd16 Cd 0.93371 0.03156 0.51218 0.0
O17 O 0.9352 0.04031 0.39653 0.0
O18 O 0.85401 0.09042 0.50895 0.0
O19 O 0.85608 0.04269 0.50644 0.0
C20 C 0.84089 0.06604 0.5002 0.0
C21 C 0.93448 0.98765 0.57657 0.0
C22 C 0.92712 0.06527 0.37458 0.0
C23 C 0.93895 0.0793 0.62269 0.0
O24 O 0.95289 0.06252 0.57875 0.0
O25 O 0.91165 0.08195 0.61532 0.0
O26 O 0.95606 0.99581 0.53507 0.0
O27 O 0.91098 1.00283 0.57405 0.0
O28 O 0.48154 0.91107 0.91789 0.0
Cd29 Cd 0.4937 0.89063 0.01631 0.0
Cd30 Cd 0.53065 0.93344 0.01213 0.0
O31 O 0.52192 0.93489 0.89646 0.0
O32 O 0.47194 0.85357 0.00889 0.0
O33 O 0.5197 0.85563 0.00642 0.0
C34 C 0.49633 0.84045 0.00018 0.0
C35 C 0.57456 0.93445 0.07663 0.0
C36 C 0.49698 0.92668 0.87449 0.0
C37 C 0.48283 0.93843 0.12257 0.0
O38 O 0.49955 0.95245 0.07863 0.0
O39 O 0.48033 0.91113 0.11522 0.0
O40 O 0.56629 0.95598 0.03509 0.0
O41 O 0.5595 0.91088 0.07407 0.0
O42 O 0.65021 0.48083 0.41759 0.0
Cd43 Cd 0.67067 0.49291 0.51606 0.0
Cd44 Cd 0.62802 0.52998 0.51185 0.0
O45 O 0.62655 0.52129 0.39617 0.0
O46 O 0.70776 0.47119 0.50868 0.0
O47 O 0.70569 0.51891 0.50624 0.0
C48 C 0.72088 0.49556 0.50001 0.0
C49 C 0.6273 0.57384 0.57646 0.0
C50 C 0.63467 0.49634 0.37419 0.0
C51 C 0.62279 0.48222 0.62226 0.0
O52 O 0.60884 0.49899 0.57831 0.0
O53 O 0.65009 0.47961 0.61493 0.0
O54 O 0.6057 0.56574 0.53492 0.0
O55 O 0.65079 0.55864 0.57383 0.0
O56 O 0.08041 0.91094 -0.01543 0.0
Cd57 Cd 0.06825 0.89047 0.8862 0.0
Cd58 Cd 0.03129 0.93329 0.89035 0.0
O59 O 0.04003 0.93475 0.006 0.0
O60 O 0.09001 0.85342 0.89369 0.0
O61 O 0.04226 0.85546 0.89619 0.0
C62 C 0.06563 0.8403 0.90245 0.0
C63 C 0.98736 0.93438 0.82595 0.0
C64 C 0.06497 0.92655 0.02797 0.0
C65 C 0.0791 0.93825 0.77986 0.0
O66 O 0.06239 0.95227 0.8238 0.0
O67 O 0.0816 0.91095 0.78724 0.0
O68 O 0.99567 0.95589 0.86747 0.0
O69 O 1.00238 0.91078 0.82846 0.0
O70 O 0.65024 0.08065 0.485 0.0
Cd71 Cd 0.67074 0.06857 0.3866 0.0
Cd72 Cd 0.62812 0.03144 0.39079 0.0
O73 O 0.62663 0.04016 0.50645 0.0
O74 O 0.7078 0.09034 0.39404 0.0
O75 O 0.70578 0.04262 0.39653 0.0
C76 C 0.72095 0.06599 0.40278 0.0
C77 C 0.62738 0.98756 0.3263 0.0
C78 C 0.63471 0.06513 0.52841 0.0
C79 C 0.62286 0.0792 0.28032 0.0
O80 O 0.60893 0.06241 0.32427 0.0
O81 O 0.65016 0.08184 0.28767 0.0
O82 O 0.60579 0.99569 0.36783 0.0
O83 O 0.65088 1.00276 0.32887 0.0
O84 O 0.48155 0.64995 -0.01459 0.0
Cd85 Cd 0.49367 0.67038 0.88694 0.0
Cd86 Cd 0.53066 0.62762 0.89112 0.0
O87 O 0.52196 0.62617 0.0068 0.0
O88 O 0.47193 0.70744 0.89437 0.0
O89 O 0.51968 0.70538 0.89678 0.0
C90 C 0.49631 0.72056 0.90304 0.0
C91 C 0.57454 0.62675 0.8265 0.0
C92 C 0.49702 0.63436 0.0288 0.0
C93 C 0.48283 0.62256 0.78074 0.0
O94 O 0.49958 0.60856 0.82467 0.0
O95 O 0.4803 0.64985 0.78807 0.0
O96 O 0.56635 0.60519 0.86804 0.0
O97 O 0.55941 0.65027 0.82914 0.0
O98 O 0.91157 0.48103 0.48549 0.0
Cd99 Cd 0.8911 0.49308 0.38701 0.0
Cd100 Cd 0.93378 0.53015 0.39115 0.0
O101 O 0.93525 0.52147 0.50684 0.0
O102 O 0.85404 0.47129 0.39444 0.0
O103 O 0.85604 0.51902 0.39679 0.0
C104 C 0.84088 0.49565 0.40307 0.0
C105 C 0.93458 0.57399 0.32647 0.0
C106 C 0.92712 0.49653 0.52887 0.0
C107 C 0.93898 0.48235 0.28082 0.0
O108 O 0.95294 0.49913 0.32475 0.0
O109 O 0.91168 0.47976 0.28815 0.0
O110 O 0.95616 0.56586 0.36805 0.0
O111 O 0.91106 0.55883 0.32911 0.0
O112 O 0.9814 0.41139 -0.01453 0.0
Cd113 Cd 0.99352 0.39098 0.88701 0.0
Cd114 Cd 1.03052 0.43369 0.89121 0.0
O115 O 1.02182 0.43515 0.00688 0.0
O116 O 0.97179 0.35391 0.89439 0.0
O117 O 1.01955 0.35599 0.89683 0.0
C118 C 0.99618 0.3408 0.90307 0.0
C119 C 0.07441 0.43448 0.82661 0.0
C120 C 0.99687 0.42697 0.02888 0.0
C121 C 0.98271 0.43881 0.7808 0.0
O122 O 0.99947 0.45279 0.82472 0.0
O123 O 0.98016 0.41152 0.78814 0.0
O124 O 0.06626 0.45606 0.86811 0.0
O125 O 0.05924 0.41098 0.82927 0.0
O126 O 0.1503 0.98039 0.48451 0.0
Cd127 Cd 0.17081 0.99251 0.38615 0.0
Cd128 Cd 0.1282 1.02963 0.39036 0.0
O129 O 0.1267 1.02087 0.50601 0.0
O130 O 0.2079 0.97078 0.39362 0.0
O131 O 0.20582 1.0185 0.39617 0.0
C132 C 0.22101 0.99515 0.40241 0.0
C133 C 0.12742 0.07354 0.32599 0.0
C134 C 0.13477 0.9959 0.52794 0.0
C135 C 0.12296 0.9819 0.27982 0.0
O136 O 0.10902 0.99868 0.32377 0.0
O137 O 0.15026 0.97926 0.28719 0.0
O138 O 0.10584 0.06538 0.36749 0.0
O139 O 0.15093 0.05836 0.32851 0.0
O140 O 0.58033 0.15013 -0.015 0.0
Cd141 Cd 0.56818 0.17058 0.88657 0.0
Cd142 Cd 0.53122 0.12777 0.89075 0.0
O143 O 0.53995 0.12632 0.00642 0.0
O144 O 0.58994 0.20763 0.89402 0.0
O145 O 0.54218 0.20558 0.89647 0.0
C146 C 0.56555 0.22076 0.90272 0.0
C147 C 0.48732 0.12676 0.82625 0.0
C148 C 0.56488 0.13453 0.0284 0.0
C149 C 0.57905 0.12278 0.78032 0.0
O150 O 0.56232 0.10876 0.82425 0.0
O151 O 0.58155 0.15007 0.78767 0.0
O152 O 0.49558 0.10523 0.86778 0.0
O153 O 0.50238 0.15033 0.82881 0.0
O154 O 0.41168 0.58036 0.48541 0.0
Cd155 Cd 0.39122 0.56829 0.38694 0.0
Cd156 Cd 0.43387 0.53121 0.39115 0.0
O157 O 0.43534 0.53991 0.50683 0.0
O158 O 0.35413 0.59002 0.39433 0.0
O159 O 0.3562 0.54229 0.39676 0.0
C160 C 0.34101 0.56564 0.40299 0.0
C161 C 0.43459 0.48736 0.32654 0.0
C162 C 0.42723 0.56486 0.52882 0.0
C163 C 0.43911 0.57898 0.28075 0.0
O164 O 0.45305 0.5622 0.32469 0.0
O165 O 0.4118 0.58159 0.28807 0.0
O166 O 0.45619 0.49546 0.36808 0.0
O167 O 0.4111 0.50256 0.32917 0.0
O168 O 0.9815 0.15026 0.91794 0.0
Cd169 Cd 0.99364 0.17071 0.01635 0.0
Cd170 Cd 1.03061 0.1279 0.01219 0.0
O171 O 1.02187 0.12644 0.89654 0.0
O172 O 0.97188 0.20776 0.00888 0.0
O173 O 1.01963 0.20573 0.00643 0.0
C174 C 0.99625 0.2209 0.00018 0.0
C175 C 0.07453 0.12681 0.07662 0.0
C176 C 0.99694 0.13465 0.87455 0.0
C177 C 0.98278 0.12292 0.12265 0.0
O178 O 0.99951 0.1089 0.07872 0.0
O179 O 0.98028 0.15022 0.11528 0.0
O180 O 0.06622 0.1053 0.03509 0.0
O181 O 0.0595 0.1504 0.07411 0.0
O182 O 0.41164 0.98055 0.4179 0.0
Cd183 Cd 0.39113 0.99263 0.51628 0.0
Cd184 Cd 0.43374 1.02976 0.51209 0.0
O185 O 0.43524 1.02104 0.39643 0.0
O186 O 0.35407 0.97086 0.50881 0.0
O187 O 0.35609 1.01858 0.50631 0.0
C188 C 0.34093 0.99522 0.50005 0.0
C189 C 0.43449 0.07364 0.57658 0.0
C190 C 0.42717 0.99607 0.37448 0.0
C191 C 0.439 0.98201 0.62257 0.0
O192 O 0.45294 0.99879 0.57863 0.0
O193 O 0.4117 0.97937 0.61522 0.0
O194 O 0.45608 0.06551 0.53506 0.0
O195 O 0.41099 0.05845 0.57401 0.0
O196 O 0.58034 0.41125 0.9176 0.0
Cd197 Cd 0.56822 0.39082 0.01605 0.0
Cd198 Cd 0.53124 0.43357 0.01188 0.0
O199 O 0.53993 0.43503 0.8962 0.0
O200 O 0.58997 0.35376 0.00862 0.0
O201 O 0.54221 0.35582 0.0062 0.0
C202 C 0.56558 0.34064 -6e-05 0.0
C203 C 0.48736 0.43445 0.0765 0.0
C204 C 0.56487 0.42684 0.8742 0.0
C205 C 0.57906 0.43864 0.12227 0.0
O206 O 0.56232 0.45263 0.07834 0.0
O207 O 0.58159 0.41134 0.11494 0.0
O208 O 0.49554 0.45601 0.03497 0.0
O209 O 0.50248 0.41092 0.07386 0.0
O210 O 0.15032 0.5802 0.41753 0.0
Cd211 Cd 0.17079 0.56814 0.516 0.0
Cd212 Cd 0.12811 0.53108 0.51184 0.0
O213 O 0.12664 0.53976 0.39616 0.0
O214 O 0.20785 0.58992 0.50857 0.0
O215 O 0.20585 0.5422 0.5062 0.0
C216 C 0.22101 0.56557 0.49993 0.0
C217 C 0.12731 0.48724 0.57652 0.0
C218 C 0.13476 0.5647 0.37414 0.0
C219 C 0.12291 0.57886 0.62219 0.0
O220 O 0.10895 0.5621 0.57826 0.0
O221 O 0.15021 0.58146 0.61487 0.0
O222 O 0.10573 0.49536 0.53494 0.0
O223 O 0.15083 0.5024 0.57388 0.0
C224 C 0.0388 0.76597 -0.03595 0.0
C225 C 0.06505 0.75138 -0.0226 0.0
H226 H 1.01827 0.80552 0.9292 0.0
C227 C 0.09117 0.76612 -0.03582 0.0
H228 H 1.0183 0.75515 -0.02688 0.0
C229 C 0.09115 0.79464 0.93816 0.0
C230 C 0.06501 0.80935 0.92493 0.0
H231 H 0.1118 0.75555 -0.02675 0.0
H232 H 0.11178 0.80523 0.9291 0.0
C233 C 0.03879 0.79473 0.93828 0.0
C234 C 0.76654 0.03916 0.43859 0.0
C235 C 0.75191 0.06537 0.42525 0.0
H236 H 0.80614 1.01868 0.47344 0.0
C237 C 0.76663 0.09149 0.43848 0.0
H238 H 0.75574 1.01866 0.42951 0.0
C239 C 0.79517 0.0915 0.46451 0.0
C240 C 0.80992 0.0654 0.47773 0.0
H241 H 0.75604 0.1121 0.42942 0.0
H242 H 0.80575 0.11212 0.47358 0.0
C243 C 0.79532 0.03917 0.46437 0.0
C244 C 0.47083 0.79477 -0.03541 0.0
C245 C 0.49696 0.8095 -0.02223 0.0
H246 H 0.45019 0.75566 0.92961 0.0
C247 C 0.52319 0.79489 -0.03556 0.0
H248 H 0.4502 0.80535 -0.02636 0.0
C249 C 0.52319 0.76612 0.93873 0.0
C250 C 0.49695 0.75151 0.92544 0.0
H251 H 0.5437 0.80569 -0.02652 0.0
H252 H 0.5437 0.75531 0.92967 0.0
C253 C 0.47083 0.76624 0.93864 0.0
C254 C 0.76663 0.47012 0.46452 0.0
C255 C 0.75186 0.49622 0.47766 0.0
H256 H 0.80579 0.44953 0.42961 0.0
C257 C 0.76647 0.52244 0.46435 0.0
H258 H 0.75605 0.44949 0.47356 0.0
C259 C 0.79526 0.52247 0.43868 0.0
C260 C 0.8099 0.49626 0.42542 0.0
H261 H 0.75563 0.54293 0.47336 0.0
H262 H 0.80606 0.54297 0.42963 0.0
C263 C 0.79518 0.47014 0.43861 0.0
C264 C 0.97072 0.29509 0.93862 0.0
C265 C 0.99684 0.30984 0.92545 0.0
H266 H 0.95011 0.25597 -0.0264 0.0
C267 C 1.02308 0.29524 0.93876 0.0
H268 H 0.95008 0.30566 0.92957 0.0
C269 C 1.0231 0.26648 -0.03553 0.0
C270 C 0.99687 0.25185 -0.02223 0.0
H271 H 0.04358 0.30607 0.92973 0.0
H272 H 0.04361 0.25568 -0.02648 0.0
C273 C 0.97074 0.26656 -0.03543 0.0
C274 C 0.29525 0.96971 0.46426 0.0
C275 C 0.30997 0.99583 0.47753 0.0
H276 H 0.25615 0.94907 0.42908 0.0
C277 C 0.29534 1.02204 0.46416 0.0
H278 H 0.30585 0.9491 0.47333 0.0
C279 C 0.26657 1.02202 0.43833 0.0
C280 C 0.25197 0.9958 0.42494 0.0
H281 H 0.30613 0.04254 0.47327 0.0
H282 H 0.25575 0.04251 0.42925 0.0
C283 C 0.26672 0.9697 0.43818 0.0
C284 C 0.59105 0.26643 0.93834 0.0
C285 C 0.56492 0.25171 0.92515 0.0
H286 H 0.61169 0.30553 -0.02664 0.0
C287 C 0.53869 0.26632 0.93848 0.0
H288 H 0.61168 0.25585 0.92928 0.0
C289 C 0.5387 0.29508 -0.03579 0.0
C290 C 0.56493 0.30969 -0.02248 0.0
H291 H 0.51818 0.25552 0.92943 0.0
H292 H 0.51819 0.30589 -0.02673 0.0
C293 C 0.59106 0.29495 -0.03568 0.0
C294 C 0.29527 0.59109 0.43849 0.0
C295 C 0.31003 0.56499 0.42534 0.0
H296 H 0.25611 0.61169 0.4734 0.0
C297 C 0.29542 0.53876 0.43864 0.0
H298 H 0.30584 0.61172 0.42945 0.0
C299 C 0.26663 0.53875 0.46431 0.0
C300 C 0.25199 0.56495 0.47758 0.0
H301 H 0.30625 0.51828 0.42963 0.0
H302 H 0.25583 0.51824 0.47335 0.0
C303 C 0.26671 0.59108 0.46439 0.0
C304 C 0.10681 0.63022 0.7845 0.0
C305 C 0.07815 0.62274 0.8034 0.0
H306 H 0.14348 0.62212 0.71316 0.0
C307 C 0.06372 0.60202 0.75891 0.0
H308 H 0.1186 0.64618 0.81739 0.0
C309 C 0.07809 0.58825 0.69883 0.0
C310 C 0.1072 0.5948 0.68241 0.0
H311 H 0.04169 0.59574 0.77201 0.0
H312 H 0.0666 0.57185 0.66672 0.0
C313 C 0.12121 0.61632 0.72495 0.0
C314 C 0.94531 0.12138 0.22547 0.0
C315 C 0.96677 0.10729 0.18289 0.0
H316 H 0.91544 0.1189 0.31793 0.0
C317 C 0.9732 0.07816 0.19927 0.0
H318 H 0.93961 0.14367 0.21371 0.0
C319 C 0.95935 0.06386 0.25934 0.0
C320 C 0.9387 0.07836 0.30386 0.0
H321 H 0.98954 0.06661 0.16713 0.0
H322 H 0.96554 0.04181 0.2724 0.0
C323 C 0.93134 0.10705 0.28501 0.0
C324 C 0.49823 0.95892 0.75928 0.0
C325 C 0.48384 0.93819 0.80377 0.0
H326 H 0.4953 0.9891 0.6671 0.0
C327 C 0.45517 0.93066 0.78488 0.0
H328 H 0.52025 0.96524 0.77237 0.0
C329 C 0.44075 0.94455 0.72535 0.0
C330 C 0.45473 0.96609 0.68281 0.0
H331 H 0.44341 0.91469 0.81777 0.0
H332 H 0.41849 0.93873 0.71357 0.0
C333 C 0.48384 0.97268 0.69921 0.0
C334 C 0.58859 0.48341 0.1989 0.0
C335 C 0.59506 0.4543 0.18248 0.0
H336 H 0.59619 0.51976 0.27206 0.0
C337 C 0.61656 0.44023 0.22502 0.0
H338 H 0.57221 0.49493 0.16679 0.0
C339 C 0.63051 0.45458 0.28455 0.0
C340 C 0.62311 0.48325 0.30345 0.0
H341 H 0.62229 0.41796 0.21323 0.0
H342 H 0.64645 0.44276 0.31744 0.0
C343 C 0.60242 0.49773 0.25896 0.0
C344 C 0.07812 0.97256 0.2032 0.0
C345 C 0.10723 0.96598 0.21959 0.0
H346 H 0.0417 0.9651 0.13007 0.0
C347 C 0.12121 0.94445 0.17704 0.0
H348 H 0.06666 0.98897 0.23531 0.0
C349 C 0.10679 0.93056 0.11753 0.0
C350 C 0.07812 0.93806 0.09866 0.0
H351 H 0.14348 0.93863 0.18881 0.0
H352 H 0.11856 0.91459 0.08463 0.0
C353 C 0.06373 0.9588 0.14315 0.0
C354 C 0.58862 0.07802 0.7037 0.0
C355 C 0.59506 0.10714 0.72009 0.0
H356 H 0.59627 0.04167 0.63056 0.0
C357 C 0.61653 0.12123 0.67754 0.0
H358 H 0.57226 0.06647 0.73582 0.0
C359 C 0.6305 0.10689 0.61801 0.0
C360 C 0.62313 0.07821 0.59914 0.0
H361 H 0.62224 0.14351 0.68931 0.0
H362 H 0.64642 0.11873 0.58511 0.0
C363 C 0.60246 0.06371 0.64364 0.0
C364 C 0.44083 0.61645 0.17801 0.0
C365 C 0.45483 0.59492 0.22053 0.0
H366 H 0.44346 0.64633 0.0856 0.0
C367 C 0.48393 0.58834 0.20409 0.0
H368 H 0.41857 0.62227 0.18982 0.0
C369 C 0.49831 0.60212 0.14402 0.0
C370 C 0.48389 0.62285 0.09955 0.0
H371 H 0.49541 0.57193 0.23618 0.0
H372 H 0.52033 0.59581 0.1309 0.0
C373 C 0.45523 0.63035 0.11848 0.0
C374 C 0.97322 0.48358 0.70412 0.0
C375 C 0.96672 0.45448 0.72059 0.0
H376 H 0.96565 0.51993 0.63091 0.0
C377 C 0.9452 0.44044 0.67812 0.0
H378 H 0.98963 0.49509 0.73618 0.0
C379 C 0.93124 0.45479 0.61859 0.0
C380 C 0.93868 0.48345 0.59963 0.0
H381 H 0.93943 0.41818 0.68995 0.0
H382 H 0.91528 0.44298 0.58575 0.0
C383 C 0.9594 0.49791 0.64405 0.0
C384 C 0.99818 0.45919 0.14411 0.0
C385 C 0.98375 0.43848 0.09963 0.0
H386 H 0.99529 0.48937 0.23629 0.0
C387 C 0.95508 0.43099 0.11854 0.0
H388 H 1.0202 0.46548 0.131 0.0
C389 C 0.94069 0.44489 0.17808 0.0
C390 C 0.9547 0.46641 0.22061 0.0
H391 H 0.9433 0.41503 0.08566 0.0
H392 H 0.91842 0.43909 0.18988 0.0
C393 C 0.98381 0.47297 0.20419 0.0
C394 C 0.11656 0.93978 0.677 0.0
C395 C 0.09511 0.95388 0.71961 0.0
H396 H 0.14643 0.94227 0.58453 0.0
C397 C 0.08869 0.98301 0.70325 0.0
H398 H 0.12225 0.91749 0.68875 0.0
C399 C 0.10254 0.99732 0.64318 0.0
C400 C 0.12318 0.98281 0.59864 0.0
H401 H 0.07235 0.99456 0.73541 0.0
H402 H 0.09636 1.01937 0.63014 0.0
C403 C 0.13053 0.95412 0.61747 0.0
C404 C 0.62111 0.11666 0.17756 0.0
C405 C 0.60713 0.09511 0.22009 0.0
H406 H 0.61845 0.14652 0.08514 0.0
C407 C 0.57803 0.08852 0.20367 0.0
H408 H 0.64337 0.12249 0.18935 0.0
C409 C 0.56364 0.10228 0.14361 0.0
C410 C 0.57803 0.12302 0.09913 0.0
H411 H 0.56657 0.0721 0.23578 0.0
H412 H 0.54162 0.09596 0.13051 0.0
C413 C 0.60669 0.13055 0.11802 0.0
C414 C 0.45947 0.56347 0.64404 0.0
C415 C 0.43878 0.57794 0.59956 0.0
H416 H 0.48968 0.56626 0.73621 0.0
C417 C 0.43137 0.60661 0.61846 0.0
H418 H 0.4657 0.54144 0.63094 0.0
C419 C 0.44533 0.62096 0.67799 0.0
C420 C 0.46683 0.6069 0.72052 0.0
H421 H 0.41544 0.61843 0.58558 0.0
H422 H 0.43959 0.64323 0.68979 0.0
C423 C 0.4733 0.57779 0.70411 0.0
C424 C 0.98379 0.08863 0.69933 0.0
C425 C 0.95469 0.09522 0.68291 0.0
H426 H 1.02021 0.09609 0.77247 0.0
C427 C 0.94071 0.11676 0.72544 0.0
H428 H 0.99525 0.07222 0.66722 0.0
C429 C 0.95513 0.13066 0.78496 0.0
C430 C 0.98379 0.12314 0.80384 0.0
H431 H 0.91844 0.12259 0.71365 0.0
H432 H 0.94336 0.14663 0.81783 0.0
C433 C 0.99818 0.1024 0.75937 0.0
C434 C 0.45941 0.99749 0.25926 0.0
C435 C 0.43875 0.98299 0.30376 0.0
H436 H 0.48962 0.99473 0.16707 0.0
C437 C 0.43138 0.95431 0.28489 0.0
H438 H 0.46561 1.01954 0.27234 0.0
C439 C 0.44535 0.93998 0.22536 0.0
C440 C 0.46682 0.95407 0.1828 0.0
H441 H 0.41546 0.94247 0.31779 0.0
H442 H 0.43964 0.9177 0.21358 0.0
C443 C 0.47326 0.98319 0.19919 0.0
C444 C 0.60666 0.43085 0.78454 0.0
C445 C 0.578 0.43835 0.80346 0.0
H446 H 0.64333 0.43893 0.71319 0.0
C447 C 0.56358 0.45908 0.75899 0.0
H448 H 0.61844 0.41488 0.81741 0.0
C449 C 0.57796 0.47286 0.69891 0.0
C450 C 0.60706 0.46628 0.68248 0.0
H451 H 0.54156 0.46539 0.77211 0.0
H452 H 0.56648 0.48927 0.66682 0.0
C453 C 0.62106 0.44475 0.725 0.0
C454 C 0.10249 0.56333 0.25896 0.0
C455 C 0.1232 0.57779 0.3034 0.0
H456 H 0.07227 0.56614 0.16682 0.0
C457 C 0.13064 0.60645 0.28446 0.0
H458 H 0.09625 0.5413 0.27209 0.0
C459 C 0.11668 0.6208 0.22493 0.0
C460 C 0.09516 0.60676 0.18244 0.0
H461 H 0.14659 0.61826 0.31731 0.0
H462 H 0.12244 0.64307 0.21311 0.0
C463 C 0.08866 0.57766 0.19889 0.0
C464 C 0.93026 0.58876 0.19059 0.0
C465 C 0.93961 0.5953 0.26497 0.0
H466 H 0.93851 0.59375 0.0708 0.0
C467 C 0.95984 0.61763 0.27532 0.0
H468 H 0.91496 0.57139 0.18083 0.0
C469 C 0.97262 0.63112 0.21219 0.0
C470 C 0.96612 0.62173 0.13782 0.0
H471 H 0.96756 0.62294 0.332 0.0
H472 H 0.98999 0.64643 0.22198 0.0
C473 C 0.94379 0.60151 0.12746 0.0
C474 C 0.93021 0.97273 0.71233 0.0
C475 C 0.93949 0.96625 0.63786 0.0
H476 H 0.93852 0.96754 0.83205 0.0
C477 C 0.95964 0.94387 0.62722 0.0
H478 H 0.91498 0.99013 0.72232 0.0
C479 C 0.97241 0.93024 0.69017 0.0
C480 C 0.96599 0.93955 0.76465 0.0
H481 H 0.96731 0.9386 0.57046 0.0
H482 H 0.98972 0.91489 0.68017 0.0
C483 C 0.94374 0.95985 0.77529 0.0
C484 C 0.58946 0.93024 0.21243 0.0
C485 C 0.59591 0.93958 0.138 0.0
H486 H 0.59453 0.93852 0.33218 0.0
C487 C 0.61818 0.95987 0.12747 0.0
H488 H 0.57214 0.91489 0.22233 0.0
C489 C 0.63169 0.97271 0.1905 0.0
C490 C 0.62238 0.96619 0.26494 0.0
H491 H 0.62342 0.96759 0.07075 0.0
H492 H 0.64694 0.99011 0.18059 0.0
C493 C 0.60222 0.94381 0.27546 0.0
C494 C 0.63166 0.58863 0.7123 0.0
C495 C 0.62231 0.59517 0.63792 0.0
H496 H 0.62345 0.59367 0.83209 0.0
C497 C 0.60212 0.61753 0.62755 0.0
H498 H 0.64694 0.57124 0.72209 0.0
C499 C 0.58937 0.63106 0.69067 0.0
C500 C 0.59587 0.62168 0.76505 0.0
H501 H 0.5944 0.62284 0.57087 0.0
H502 H 0.57203 0.64639 0.68086 0.0
C503 C 0.61817 0.60142 0.77542 0.0
C504 C 0.10205 0.4436 0.62766 0.0
C505 C 0.12227 0.46593 0.63803 0.0
H506 H 0.07189 0.41481 0.68099 0.0
C507 C 0.13163 0.47246 0.71241 0.0
H508 H 0.09433 0.43829 0.57098 0.0
C509 C 0.11809 0.45971 0.77553 0.0
C510 C 0.09576 0.43949 0.76516 0.0
H511 H 0.14693 0.48982 0.72219 0.0
H512 H 0.12338 0.46746 0.8322 0.0
C513 C 0.08926 0.4301 0.69079 0.0
C514 C 0.11815 0.10135 0.12728 0.0
C515 C 0.0959 0.12164 0.13793 0.0
H516 H 0.14692 0.07107 0.1802 0.0
C517 C 0.08947 0.13094 0.21241 0.0
H518 H 0.12337 0.09366 0.07051 0.0
C519 C 0.10225 0.11732 0.27536 0.0
C520 C 0.1224 0.09494 0.2647 0.0
H521 H 0.07217 0.14629 0.22241 0.0
H522 H 0.09458 0.12258 0.33212 0.0
C523 C 0.13169 0.08847 0.19022 0.0
C524 C 0.43019 0.0885 0.71238 0.0
C525 C 0.43949 0.09501 0.63795 0.0
H526 H 0.43845 0.09362 0.83213 0.0
C527 C 0.45965 0.11739 0.62742 0.0
H528 H 0.41494 0.0711 0.72228 0.0
C529 C 0.47242 0.13097 0.69045 0.0
C530 C 0.46596 0.12163 0.76488 0.0
H531 H 0.46734 0.12268 0.57069 0.0
H532 H 0.48973 0.14632 0.68053 0.0
C533 C 0.4437 0.10134 0.77541 0.0
C534 C 0.47252 0.43014 0.21234 0.0
C535 C 0.46602 0.43952 0.13796 0.0
H536 H 0.4675 0.43835 0.33213 0.0
C537 C 0.44372 0.45978 0.12758 0.0
H538 H 0.48986 0.41481 0.22212 0.0
C539 C 0.43023 0.47256 0.1907 0.0
C540 C 0.43958 0.46603 0.26508 0.0
H541 H 0.43844 0.46752 0.0709 0.0
H542 H 0.41495 0.48995 0.1809 0.0
C543 C 0.45977 0.44366 0.27546 0.0
loop_
_geom_bond_atom_site_label_1
_geom_bond_atom_site_label_2
_geom_bond_distance
_geom_bond_site_symmetry_2
_ccdc_geom_bond_type
O0 Cd1 2.223 . S
O0 C8 1.315 . S
Cd1 O0 2.223 . S
Cd1 O4 2.297 . S
Cd1 O5 2.439 . S
Cd1 O11 2.240 . S
Cd2 O3 2.240 . S
Cd2 O10 2.223 . S
Cd2 O12 2.297 1_455 S
Cd2 O13 2.439 1_455 S
O3 Cd2 2.240 . S
O3 C8 1.279 . S
O4 Cd1 2.297 . S
O4 C6 1.247 . S
O5 Cd1 2.439 . S
O5 C6 1.208 . S
C6 O4 1.247 . S
C6 O5 1.208 . S
C7 O12 1.247 . S
C7 O13 1.208 . S
C8 O0 1.315 . S
C8 O3 1.279 . S
C9 O10 1.315 . S
C9 O11 1.279 . S
O10 Cd2 2.223 . S
O10 C9 1.315 . S
O11 Cd1 2.240 . S
O11 C9 1.279 . S
O12 Cd2 2.297 1_655 S
O12 C7 1.247 . S
O13 Cd2 2.439 1_655 S
O13 C7 1.208 . S
O14 Cd15 2.223 . S
O14 C22 1.315 . S
Cd15 O14 2.223 . S
Cd15 O18 2.297 . S
Cd15 O19 2.439 . S
Cd15 O25 2.240 . S
Cd16 O17 2.240 . S
Cd16 O24 2.223 . S
Cd16 O26 2.297 1_545 S
Cd16 O27 2.439 1_545 S
O17 Cd16 2.240 . S
O17 C22 1.279 . S
O18 Cd15 2.297 . S
O18 C20 1.247 . S
O19 Cd15 2.439 . S
O19 C20 1.208 . S
C20 O18 1.247 . S
C20 O19 1.208 . S
C21 O26 1.247 . S
C21 O27 1.208 . S
C22 O14 1.315 . S
C22 O17 1.279 . S
C23 O24 1.315 . S
C23 O25 1.279 . S
O24 Cd16 2.223 . S
O24 C23 1.315 . S
O25 Cd15 2.240 . S
O25 C23 1.279 . S
O26 Cd16 2.297 1_565 S
O26 C21 1.247 . S
O27 Cd16 2.439 1_565 S
O27 C21 1.208 . S
O28 Cd29 2.223 . S
O28 C36 1.315 . S
Cd29 O28 2.223 . S
Cd29 O32 2.297 . S
Cd29 O33 2.439 . S
Cd29 O39 2.240 . S
Cd30 O31 2.240 . S
Cd30 O38 2.223 . S
Cd30 O40 2.297 . S
Cd30 O41 2.439 . S
O31 Cd30 2.240 . S
O31 C36 1.279 . S
O32 Cd29 2.297 . S
O32 C34 1.247 . S
O33 Cd29 2.439 . S
O33 C34 1.208 . S
C34 O32 1.247 . S
C34 O33 1.208 . S
C35 O40 1.247 . S
C35 O41 1.208 . S
C36 O28 1.315 . S
C36 O31 1.279 . S
C37 O38 1.315 . S
C37 O39 1.279 . S
O38 Cd30 2.223 . S
O38 C37 1.315 . S
O39 Cd29 2.240 . S
O39 C37 1.279 . S
O40 Cd30 2.297 . S
O40 C35 1.247 . S
O41 Cd30 2.439 . S
O41 C35 1.208 . S
O42 Cd43 2.223 . S
O42 C50 1.315 . S
Cd43 O42 2.223 . S
Cd43 O46 2.297 . S
Cd43 O47 2.439 . S
Cd43 O53 2.240 . S
Cd44 O45 2.240 . S
Cd44 O52 2.223 . S
Cd44 O54 2.297 . S
Cd44 O55 2.439 . S
O45 Cd44 2.240 . S
O45 C50 1.279 . S
O46 Cd43 2.297 . S
O46 C48 1.247 . S
O47 Cd43 2.439 . S
O47 C48 1.208 . S
C48 O46 1.247 . S
C48 O47 1.208 . S
C49 O54 1.247 . S
C49 O55 1.208 . S
C50 O42 1.315 . S
C50 O45 1.279 . S
C51 O52 1.315 . S
C51 O53 1.279 . S
O52 Cd44 2.223 . S
O52 C51 1.315 . S
O53 Cd43 2.240 . S
O53 C51 1.279 . S
O54 Cd44 2.297 . S
O54 C49 1.247 . S
O55 Cd44 2.439 . S
O55 C49 1.208 . S
O56 Cd57 2.223 . S
O56 C64 1.315 . S
Cd57 O56 2.223 . S
Cd57 O60 2.297 . S
Cd57 O61 2.439 . S
Cd57 O67 2.240 . S
Cd58 O59 2.240 . S
Cd58 O66 2.223 . S
Cd58 O68 2.297 1_455 S
Cd58 O69 2.439 1_455 S
O59 Cd58 2.240 . S
O59 C64 1.279 . S
O60 Cd57 2.297 . S
O60 C62 1.247 . S
O61 Cd57 2.439 . S
O61 C62 1.208 . S
C62 O60 1.247 . S
C62 O61 1.208 . S
C63 O68 1.247 . S
C63 O69 1.208 . S
C64 O56 1.315 . S
C64 O59 1.279 . S
C65 O66 1.315 . S
C65 O67 1.279 . S
O66 Cd58 2.223 . S
O66 C65 1.315 . S
O67 Cd57 2.240 . S
O67 C65 1.279 . S
O68 Cd58 2.297 1_655 S
O68 C63 1.247 . S
O69 Cd58 2.439 1_655 S
O69 C63 1.208 . S
O70 Cd71 2.223 . S
O70 C78 1.315 . S
Cd71 O70 2.223 . S
Cd71 O74 2.297 . S
Cd71 O75 2.439 . S
Cd71 O81 2.240 . S
Cd72 O73 2.240 . S
Cd72 O80 2.223 . S
Cd72 O82 2.297 1_545 S
Cd72 O83 2.439 1_545 S
O73 Cd72 2.240 . S
O73 C78 1.279 . S
O74 Cd71 2.297 . S
O74 C76 1.247 . S
O75 Cd71 2.439 . S
O75 C76 1.208 . S
C76 O74 1.247 . S
C76 O75 1.208 . S
C77 O82 1.247 . S
C77 O83 1.208 . S
C78 O70 1.315 . S
C78 O73 1.279 . S
C79 O80 1.315 . S
C79 O81 1.279 . S
O80 Cd72 2.223 . S
O80 C79 1.315 . S
O81 Cd71 2.240 . S
O81 C79 1.279 . S
O82 Cd72 2.297 1_565 S
O82 C77 1.247 . S
O83 Cd72 2.439 1_565 S
O83 C77 1.208 . S
O84 Cd85 2.223 . S
O84 C92 1.315 . S
Cd85 O84 2.223 . S
Cd85 O88 2.297 . S
Cd85 O89 2.439 . S
Cd85 O95 2.240 . S
Cd86 O87 2.240 . S
Cd86 O94 2.223 . S
Cd86 O96 2.297 . S
Cd86 O97 2.439 . S
O87 Cd86 2.240 . S
O87 C92 1.279 . S
O88 Cd85 2.297 . S
O88 C90 1.247 . S
O89 Cd85 2.439 . S
O89 C90 1.208 . S
C90 O88 1.247 . S
C90 O89 1.208 . S
C91 O96 1.247 . S
C91 O97 1.208 . S
C92 O84 1.315 . S
C92 O87 1.279 . S
C93 O94 1.315 . S
C93 O95 1.279 . S
O94 Cd86 2.223 . S
O94 C93 1.315 . S
O95 Cd85 2.240 . S
O95 C93 1.279 . S
O96 Cd86 2.297 . S
O96 C91 1.247 . S
O97 Cd86 2.439 . S
O97 C91 1.208 . S
O98 Cd99 2.223 . S
O98 C106 1.315 . S
Cd99 O98 2.223 . S
Cd99 O102 2.297 . S
Cd99 O103 2.439 . S
Cd99 O109 2.240 . S
Cd100 O101 2.240 . S
Cd100 O108 2.223 . S
Cd100 O110 2.297 . S
Cd100 O111 2.439 . S
O101 Cd100 2.240 . S
O101 C106 1.279 . S
O102 Cd99 2.297 . S
O102 C104 1.247 . S
O103 Cd99 2.439 . S
O103 C104 1.208 . S
C104 O102 1.247 . S
C104 O103 1.208 . S
C105 O110 1.247 . S
C105 O111 1.208 . S
C106 O98 1.315 . S
C106 O101 1.279 . S
C107 O108 1.315 . S
C107 O109 1.279 . S
O108 Cd100 2.223 . S
O108 C107 1.315 . S
O109 Cd99 2.240 . S
O109 C107 1.279 . S
O110 Cd100 2.297 . S
O110 C105 1.247 . S
O111 Cd100 2.439 . S
O111 C105 1.208 . S
O112 Cd113 2.223 . S
O112 C120 1.315 . S
Cd113 O112 2.223 . S
Cd113 O116 2.297 . S
Cd113 O117 2.439 . S
Cd113 O123 2.240 . S
Cd114 O115 2.240 . S
Cd114 O122 2.223 . S
Cd114 O124 2.297 1_655 S
Cd114 O125 2.439 1_655 S
O115 Cd114 2.240 . S
O115 C120 1.279 . S
O116 Cd113 2.297 . S
O116 C118 1.247 . S
O117 Cd113 2.439 . S
O117 C118 1.208 . S
C118 O116 1.247 . S
C118 O117 1.208 . S
C119 O124 1.247 . S
C119 O125 1.208 . S
C120 O112 1.315 . S
C120 O115 1.279 . S
C121 O122 1.315 . S
C121 O123 1.279 . S
O122 Cd114 2.223 . S
O122 C121 1.315 . S
O123 Cd113 2.240 . S
O123 C121 1.279 . S
O124 Cd114 2.297 1_455 S
O124 C119 1.247 . S
O125 Cd114 2.439 1_455 S
O125 C119 1.208 . S
O126 Cd127 2.223 . S
O126 C134 1.315 . S
Cd127 O126 2.223 . S
Cd127 O130 2.297 . S
Cd127 O131 2.439 . S
Cd127 O137 2.240 . S
Cd128 O129 2.240 . S
Cd128 O136 2.223 . S
Cd128 O138 2.297 1_565 S
Cd128 O139 2.439 1_565 S
O129 Cd128 2.240 . S
O129 C134 1.279 . S
O130 Cd127 2.297 . S
O130 C132 1.247 . S
O131 Cd127 2.439 . S
O131 C132 1.208 . S
C132 O130 1.247 . S
C132 O131 1.208 . S
C133 O138 1.247 . S
C133 O139 1.208 . S
C134 O126 1.315 . S
C134 O129 1.279 . S
C135 O136 1.315 . S
C135 O137 1.279 . S
O136 Cd128 2.223 . S
O136 C135 1.315 . S
O137 Cd127 2.240 . S
O137 C135 1.279 . S
O138 Cd128 2.297 1_545 S
O138 C133 1.247 . S
O139 Cd128 2.439 1_545 S
O139 C133 1.208 . S
O140 Cd141 2.223 . S
O140 C148 1.315 . S
Cd141 O140 2.223 . S
Cd141 O144 2.297 . S
Cd141 O145 2.439 . S
Cd141 O151 2.240 . S
Cd142 O143 2.240 . S
Cd142 O150 2.223 . S
Cd142 O152 2.297 . S
Cd142 O153 2.439 . S
O143 Cd142 2.240 . S
O143 C148 1.279 . S
O144 Cd141 2.297 . S
O144 C146 1.247 . S
O145 Cd141 2.439 . S
O145 C146 1.208 . S
C146 O144 1.247 . S
C146 O145 1.208 . S
C147 O152 1.247 . S
C147 O153 1.208 . S
C148 O140 1.315 . S
C148 O143 1.279 . S
C149 O150 1.315 . S
C149 O151 1.279 . S
O150 Cd142 2.223 . S
O150 C149 1.315 . S
O151 Cd141 2.240 . S
O151 C149 1.279 . S
O152 Cd142 2.297 . S
O152 C147 1.247 . S
O153 Cd142 2.439 . S
O153 C147 1.208 . S
O154 Cd155 2.223 . S
O154 C162 1.315 . S
Cd155 O154 2.223 . S
Cd155 O158 2.297 . S
Cd155 O159 2.439 . S
Cd155 O165 2.240 . S
Cd156 O157 2.240 . S
Cd156 O164 2.223 . S
Cd156 O166 2.297 . S
Cd156 O167 2.439 . S
O157 Cd156 2.240 . S
O157 C162 1.279 . S
O158 Cd155 2.297 . S
O158 C160 1.247 . S
O159 Cd155 2.439 . S
O159 C160 1.208 . S
C160 O158 1.247 . S
C160 O159 1.208 . S
C161 O166 1.247 . S
C161 O167 1.208 . S
C162 O154 1.315 . S
C162 O157 1.279 . S
C163 O164 1.315 . S
C163 O165 1.279 . S
O164 Cd156 2.223 . S
O164 C163 1.315 . S
O165 Cd155 2.240 . S
O165 C163 1.279 . S
O166 Cd156 2.297 . S
O166 C161 1.247 . S
O167 Cd156 2.439 . S
O167 C161 1.208 . S
O168 Cd169 2.223 . S
O168 C176 1.315 . S
Cd169 O168 2.223 . S
Cd169 O172 2.297 . S
Cd169 O173 2.439 . S
Cd169 O179 2.240 . S
Cd170 O171 2.240 . S
Cd170 O178 2.223 . S
Cd170 O180 2.297 1_655 S
Cd170 O181 2.439 1_655 S
O171 Cd170 2.240 . S
O171 C176 1.279 . S
O172 Cd169 2.297 . S
O172 C174 1.247 . S
O173 Cd169 2.439 . S
O173 C174 1.208 . S
C174 O172 1.247 . S
C174 O173 1.208 . S
C175 O180 1.247 . S
C175 O181 1.208 . S
C176 O168 1.315 . S
C176 O171 1.279 . S
C177 O178 1.315 . S
C177 O179 1.279 . S
O178 Cd170 2.223 . S
O178 C177 1.315 . S
O179 Cd169 2.240 . S
O179 C177 1.279 . S
O180 Cd170 2.297 1_455 S
O180 C175 1.247 . S
O181 Cd170 2.439 1_455 S
O181 C175 1.208 . S
O182 Cd183 2.223 . S
O182 C190 1.315 . S
Cd183 O182 2.223 . S
Cd183 O186 2.297 . S
Cd183 O187 2.439 . S
Cd183 O193 2.240 . S
Cd184 O185 2.240 . S
Cd184 O192 2.223 . S
Cd184 O194 2.297 1_565 S
Cd184 O195 2.439 1_565 S
O185 Cd184 2.240 . S
O185 C190 1.279 . S
O186 Cd183 2.297 . S
O186 C188 1.247 . S
O187 Cd183 2.439 . S
O187 C188 1.208 . S
C188 O186 1.247 . S
C188 O187 1.208 . S
C189 O194 1.247 . S
C189 O195 1.208 . S
C190 O182 1.315 . S
C190 O185 1.279 . S
C191 O192 1.315 . S
C191 O193 1.279 . S
O192 Cd184 2.223 . S
O192 C191 1.315 . S
O193 Cd183 2.240 . S
O193 C191 1.279 . S
O194 Cd184 2.297 1_545 S
O194 C189 1.247 . S
O195 Cd184 2.439 1_545 S
O195 C189 1.208 . S
O196 Cd197 2.223 . S
O196 C204 1.315 . S
Cd197 O196 2.223 . S
Cd197 O200 2.297 . S
Cd197 O201 2.439 . S
Cd197 O207 2.240 . S
Cd198 O199 2.240 . S
Cd198 O206 2.223 . S
Cd198 O208 2.297 . S
Cd198 O209 2.439 . S
O199 Cd198 2.240 . S
O199 C204 1.279 . S
O200 Cd197 2.297 . S
O200 C202 1.247 . S
O201 Cd197 2.439 . S
O201 C202 1.208 . S
C202 O200 1.247 . S
C202 O201 1.208 . S
C203 O208 1.247 . S
C203 O209 1.208 . S
C204 O196 1.315 . S
C204 O199 1.279 . S
C205 O206 1.315 . S
C205 O207 1.279 . S
O206 Cd198 2.223 . S
O206 C205 1.315 . S
O207 Cd197 2.240 . S
O207 C205 1.279 . S
O208 Cd198 2.297 . S
O208 C203 1.247 . S
O209 Cd198 2.439 . S
O209 C203 1.208 . S
O210 Cd211 2.223 . S
O210 C218 1.315 . S
Cd211 O210 2.223 . S
Cd211 O214 2.297 . S
Cd211 O215 2.439 . S
Cd211 O221 2.240 . S
Cd212 O213 2.240 . S
Cd212 O220 2.223 . S
Cd212 O222 2.297 . S
Cd212 O223 2.439 . S
O213 Cd212 2.240 . S
O213 C218 1.279 . S
O214 Cd211 2.297 . S
O214 C216 1.247 . S
O215 Cd211 2.439 . S
O215 C216 1.208 . S
C216 O214 1.247 . S
C216 O215 1.208 . S
C217 O222 1.247 . S
C217 O223 1.208 . S
C218 O210 1.315 . S
C218 O213 1.279 . S
C219 O220 1.315 . S
C219 O221 1.279 . S
O220 Cd212 2.223 . S
O220 C219 1.315 . S
O221 Cd211 2.240 . S
O221 C219 1.279 . S
O222 Cd212 2.297 . S
O222 C217 1.247 . S
O223 Cd212 2.439 . S
O223 C217 1.208 . S
C224 C225 1.387 1_655 S
C224 H228 0.950 . S
C224 C233 1.390 1_554 S
C225 C224 1.387 1_455 S
C225 C227 1.387 . S
H226 C233 0.950 . S
C227 C225 1.387 . S
C227 C229 1.390 1_554 S
C227 H231 0.950 . S
H228 C224 0.950 . S
C229 C227 1.390 1_556 S
C229 C230 1.387 . S
C229 H232 0.950 . S
C230 C229 1.387 . S
C230 C233 1.387 1_455 S
H231 C227 0.950 . S
H232 C229 0.950 . S
C233 C224 1.390 1_556 S
C233 H226 0.950 . S
C233 C230 1.387 1_655 S
C234 C235 1.387 1_565 S
C234 H238 0.950 . S
C234 C243 1.390 . S
C235 C234 1.387 1_545 S
C235 C237 1.387 . S
H236 C243 0.950 . S
C237 C235 1.387 . S
C237 C239 1.390 . S
C237 H241 0.950 . S
H238 C234 0.950 . S
C239 C237 1.390 . S
C239 C240 1.387 . S
C239 H242 0.950 . S
C240 C239 1.387 . S
C240 C243 1.387 1_545 S
H241 C237 0.950 . S
H242 C239 0.950 . S
C243 C234 1.390 . S
C243 H236 0.950 . S
C243 C240 1.387 1_565 S
C244 C245 1.387 . S
C244 H248 0.950 . S
C244 C253 1.390 1_554 S
C245 C244 1.387 . S
C245 C247 1.387 . S
H246 C253 0.950 . S
C247 C245 1.387 . S
C247 C249 1.390 1_554 S
C247 H251 0.950 . S
H248 C244 0.950 . S
C249 C247 1.390 1_556 S
C249 C250 1.387 . S
C249 H252 0.950 . S
C250 C249 1.387 . S
C250 C253 1.387 . S
H251 C247 0.950 . S
H252 C249 0.950 . S
C253 C244 1.390 1_556 S
C253 H246 0.950 . S
C253 C250 1.387 . S
C254 C255 1.387 . S
C254 H258 0.950 . S
C254 C263 1.390 . S
C255 C254 1.387 . S
C255 C257 1.387 . S
H256 C263 0.950 . S
C257 C255 1.387 . S
C257 C259 1.390 . S
C257 H261 0.950 . S
H258 C254 0.950 . S
C259 C257 1.390 . S
C259 C260 1.387 . S
C259 H262 0.950 . S
C260 C259 1.387 . S
C260 C263 1.387 . S
H261 C257 0.950 . S
H262 C259 0.950 . S
C263 C254 1.390 . S
C263 H256 0.950 . S
C263 C260 1.387 . S
C264 C265 1.387 . S
C264 H268 0.950 . S
C264 C273 1.390 1_556 S
C265 C264 1.387 . S
C265 C267 1.387 1_655 S
H266 C273 0.950 . S
C267 C265 1.387 1_455 S
C267 C269 1.390 1_556 S
C267 H271 0.950 . S
H268 C264 0.950 . S
C269 C267 1.390 1_554 S
C269 C270 1.387 1_455 S
C269 H272 0.950 . S
C270 C269 1.387 1_655 S
C270 C273 1.387 . S
H271 C267 0.950 . S
H272 C269 0.950 . S
C273 C264 1.390 1_554 S
C273 H266 0.950 . S
C273 C270 1.387 . S
C274 C275 1.387 . S
C274 H278 0.950 . S
C274 C283 1.390 . S
C275 C274 1.387 . S
C275 C277 1.387 1_565 S
H276 C283 0.950 . S
C277 C275 1.387 1_545 S
C277 C279 1.390 . S
C277 H281 0.950 . S
H278 C274 0.950 . S
C279 C277 1.390 . S
C279 C280 1.387 1_545 S
C279 H282 0.950 . S
C280 C279 1.387 1_565 S
C280 C283 1.387 . S
H281 C277 0.950 . S
H282 C279 0.950 . S
C283 C274 1.390 . S
C283 H276 0.950 . S
C283 C280 1.387 . S
C284 C285 1.387 . S
C284 H288 0.950 . S
C284 C293 1.390 1_556 S
C285 C284 1.387 . S
C285 C287 1.387 . S
H286 C293 0.950 . S
C287 C285 1.387 . S
C287 C289 1.390 1_556 S
C287 H291 0.950 . S
H288 C284 0.950 . S
C289 C287 1.390 1_554 S
C289 C290 1.387 . S
C289 H292 0.950 . S
C290 C289 1.387 . S
C290 C293 1.387 . S
H291 C287 0.950 . S
H292 C289 0.950 . S
C293 C284 1.390 1_554 S
C293 H286 0.950 . S
C293 C290 1.387 . S
C294 C295 1.387 . S
C294 H298 0.950 . S
C294 C303 1.390 . S
C295 C294 1.387 . S
C295 C297 1.387 . S
H296 C303 0.950 . S
C297 C295 1.387 . S
C297 C299 1.390 . S
C297 H301 0.950 . S
H298 C294 0.950 . S
C299 C297 1.390 . S
C299 C300 1.387 . S
C299 H302 0.950 . S
C300 C299 1.387 . S
C300 C303 1.387 . S
H301 C297 0.950 . S
H302 C299 0.950 . S
C303 C294 1.390 . S
C303 H296 0.950 . S
C303 C300 1.387 . S
C304 C305 1.387 . S
C304 H308 0.950 1_556 S
C304 C313 1.390 . S
C305 C304 1.387 . S
C305 C307 1.387 . S
H306 C313 0.950 . S
C307 C305 1.387 . S
C307 C309 1.390 . S
C307 H311 0.950 . S
H308 C304 0.950 1_554 S
C309 C307 1.390 . S
C309 C310 1.387 . S
C309 H312 0.950 . S
C310 C309 1.387 . S
C310 C313 1.387 . S
H311 C307 0.950 . S
H312 C309 0.950 . S
C313 C304 1.390 . S
C313 H306 0.950 . S
C313 C310 1.387 . S
C314 C315 1.387 . S
C314 H318 0.950 . S
C314 C323 1.390 . S
C315 C314 1.387 . S
C315 C317 1.387 . S
H316 C323 0.950 . S
C317 C315 1.387 . S
C317 C319 1.390 . S
C317 H321 0.950 . S
H318 C314 0.950 . S
C319 C317 1.390 . S
C319 C320 1.387 . S
C319 H322 0.950 . S
C320 C319 1.387 . S
C320 C323 1.387 . S
H321 C317 0.950 . S
H322 C319 0.950 . S
C323 C314 1.390 . S
C323 H316 0.950 . S
C323 C320 1.387 . S
C324 C325 1.387 . S
C324 H328 0.950 . S
C324 C333 1.390 . S
C325 C324 1.387 . S
C325 C327 1.387 . S
H326 C333 0.950 . S
C327 C325 1.387 . S
C327 C329 1.390 . S
C327 H331 0.950 . S
H328 C324 0.950 . S
C329 C327 1.390 . S
C329 C330 1.387 . S
C329 H332 0.950 . S
C330 C329 1.387 . S
C330 C333 1.387 . S
H331 C327 0.950 . S
H332 C329 0.950 . S
C333 C324 1.390 . S
C333 H326 0.950 . S
C333 C330 1.387 . S
C334 C335 1.387 . S
C334 H338 0.950 . S
C334 C343 1.390 . S
C335 C334 1.387 . S
C335 C337 1.387 . S
H336 C343 0.950 . S
C337 C335 1.387 . S
C337 C339 1.390 . S
C337 H341 0.950 . S
H338 C334 0.950 . S
C339 C337 1.390 . S
C339 C340 1.387 . S
C339 H342 0.950 . S
C340 C339 1.387 . S
C340 C343 1.387 . S
H341 C337 0.950 . S
H342 C339 0.950 . S
C343 C334 1.390 . S
C343 H336 0.950 . S
C343 C340 1.387 . S
C344 C345 1.387 . S
C344 H348 0.950 . S
C344 C353 1.390 . S
C345 C344 1.387 . S
C345 C347 1.387 . S
H346 C353 0.950 1_556 S
C347 C345 1.387 . S
C347 C349 1.390 . S
C347 H351 0.950 . S
H348 C344 0.950 . S
C349 C347 1.390 . S
C349 C350 1.387 . S
C349 H352 0.950 . S
C350 C349 1.387 . S
C350 C353 1.387 . S
H351 C347 0.950 . S
H352 C349 0.950 . S
C353 C344 1.390 . S
C353 H346 0.950 1_554 S
C353 C350 1.387 . S
C354 C355 1.387 . S
C354 H358 0.950 . S
C354 C363 1.390 . S
C355 C354 1.387 . S
C355 C357 1.387 . S
H356 C363 0.950 . S
C357 C355 1.387 . S
C357 C359 1.390 . S
C357 H361 0.950 . S
H358 C354 0.950 . S
C359 C357 1.390 . S
C359 C360 1.387 . S
C359 H362 0.950 . S
C360 C359 1.387 . S
C360 C363 1.387 . S
H361 C357 0.950 . S
H362 C359 0.950 . S
C363 C354 1.390 . S
C363 H356 0.950 . S
C363 C360 1.387 . S
C364 C365 1.387 . S
C364 H368 0.950 . S
C364 C373 1.390 . S
C365 C364 1.387 . S
C365 C367 1.387 . S
H366 C373 0.950 . S
C367 C365 1.387 . S
C367 C369 1.390 . S
C367 H371 0.950 . S
H368 C364 0.950 . S
C369 C367 1.390 . S
C369 C370 1.387 . S
C369 H372 0.950 . S
C370 C369 1.387 . S
C370 C373 1.387 . S
H371 C367 0.950 . S
H372 C369 0.950 . S
C373 C364 1.390 . S
C373 H366 0.950 . S
C373 C370 1.387 . S
C374 C375 1.387 . S
C374 H378 0.950 . S
C374 C383 1.390 . S
C375 C374 1.387 . S
C375 C377 1.387 . S
H376 C383 0.950 . S
C377 C375 1.387 . S
C377 C379 1.390 . S
C377 H381 0.950 . S
H378 C374 0.950 . S
C379 C377 1.390 . S
C379 C380 1.387 . S
C379 H382 0.950 . S
C380 C379 1.387 . S
C380 C383 1.387 . S
H381 C377 0.950 . S
H382 C379 0.950 . S
C383 C374 1.390 . S
C383 H376 0.950 . S
C383 C380 1.387 . S
C384 C385 1.387 . S
C384 H388 0.950 . S
C384 C393 1.390 . S
C385 C384 1.387 . S
C385 C387 1.387 . S
H386 C393 0.950 . S
C387 C385 1.387 . S
C387 C389 1.390 . S
C387 H391 0.950 1_554 S
H388 C384 0.950 . S
C389 C387 1.390 . S
C389 C390 1.387 . S
C389 H392 0.950 . S
C390 C389 1.387 . S
C390 C393 1.387 . S
H391 C387 0.950 1_556 S
H392 C389 0.950 . S
C393 C384 1.390 . S
C393 H386 0.950 . S
C393 C390 1.387 . S
C394 C395 1.387 . S
C394 H398 0.950 . S
C394 C403 1.390 . S
C395 C394 1.387 . S
C395 C397 1.387 . S
H396 C403 0.950 . S
C397 C395 1.387 . S
C397 C399 1.390 . S
C397 H401 0.950 . S
H398 C394 0.950 . S
C399 C397 1.390 . S
C399 C400 1.387 . S
C399 H402 0.950 . S
C400 C399 1.387 . S
C400 C403 1.387 . S
H401 C397 0.950 . S
H402 C399 0.950 . S
C403 C394 1.390 . S
C403 H396 0.950 . S
C403 C400 1.387 . S
C404 C405 1.387 . S
C404 H408 0.950 . S
C404 C413 1.390 . S
C405 C404 1.387 . S
C405 C407 1.387 . S
H406 C413 0.950 . S
C407 C405 1.387 . S
C407 C409 1.390 . S
C407 H411 0.950 . S
H408 C404 0.950 . S
C409 C407 1.390 . S
C409 C410 1.387 . S
C409 H412 0.950 . S
C410 C409 1.387 . S
C410 C413 1.387 . S
H411 C407 0.950 . S
H412 C409 0.950 . S
C413 C404 1.390 . S
C413 H406 0.950 . S
C413 C410 1.387 . S
C414 C415 1.387 . S
C414 H418 0.950 . S
C414 C423 1.390 . S
C415 C414 1.387 . S
C415 C417 1.387 . S
H416 C423 0.950 . S
C417 C415 1.387 . S
C417 C419 1.390 . S
C417 H421 0.950 . S
H418 C414 0.950 . S
C419 C417 1.390 . S
C419 C420 1.387 . S
C419 H422 0.950 . S
C420 C419 1.387 . S
C420 C423 1.387 . S
H421 C417 0.950 . S
H422 C419 0.950 . S
C423 C414 1.390 . S
C423 H416 0.950 . S
C423 C420 1.387 . S
C424 C425 1.387 . S
C424 H428 0.950 . S
C424 C433 1.390 . S
C425 C424 1.387 . S
C425 C427 1.387 . S
H426 C433 0.950 . S
C427 C425 1.387 . S
C427 C429 1.390 . S
C427 H431 0.950 . S
H428 C424 0.950 . S
C429 C427 1.390 . S
C429 C430 1.387 . S
C429 H432 0.950 . S
C430 C429 1.387 . S
C430 C433 1.387 . S
H431 C427 0.950 . S
H432 C429 0.950 . S
C433 C424 1.390 . S
C433 H426 0.950 . S
C433 C430 1.387 . S
C434 C435 1.387 . S
C434 H438 0.950 . S
C434 C443 1.390 . S
C435 C434 1.387 . S
C435 C437 1.387 . S
H436 C443 0.950 . S
C437 C435 1.387 . S
C437 C439 1.390 . S
C437 H441 0.950 . S
H438 C434 0.950 . S
C439 C437 1.390 . S
C439 C440 1.387 . S
C439 H442 0.950 . S
C440 C439 1.387 . S
C440 C443 1.387 . S
H441 C437 0.950 . S
H442 C439 0.950 . S
C443 C434 1.390 . S
C443 H436 0.950 . S
C443 C440 1.387 . S
C444 C445 1.387 . S
C444 H448 0.950 . S
C444 C453 1.390 . S
C445 C444 1.387 . S
C445 C447 1.387 . S
H446 C453 0.950 . S
C447 C445 1.387 . S
C447 C449 1.390 . S
C447 H451 0.950 . S
H448 C444 0.950 . S
C449 C447 1.390 . S
C449 C450 1.387 . S
C449 H452 0.950 . S
C450 C449 1.387 . S
C450 C453 1.387 . S
H451 C447 0.950 . S
H452 C449 0.950 . S
C453 C444 1.390 . S
C453 H446 0.950 . S
C453 C450 1.387 . S
C454 C455 1.387 . S
C454 H458 0.950 . S
C454 C463 1.390 . S
C455 C454 1.387 . S
C455 C457 1.387 . S
H456 C463 0.950 . S
C457 C455 1.387 . S
C457 C459 1.390 . S
C457 H461 0.950 . S
H458 C454 0.950 . S
C459 C457 1.390 . S
C459 C460 1.387 . S
C459 H462 0.950 . S
C460 C459 1.387 . S
C460 C463 1.387 . S
H461 C457 0.950 . S
H462 C459 0.950 . S
C463 C454 1.390 . S
C463 H456 0.950 . S
C463 C460 1.387 . S
C464 C465 1.387 . S
C464 H468 0.950 . S
C464 C473 1.390 . S
C465 C464 1.387 . S
C465 C467 1.387 . S
H466 C473 0.950 . S
C467 C465 1.387 . S
C467 C469 1.390 . S
C467 H471 0.950 . S
H468 C464 0.950 . S
C469 C467 1.390 . S
C469 C470 1.387 . S
C469 H472 0.950 . S
C470 C469 1.387 . S
C470 C473 1.387 . S
H471 C467 0.950 . S
H472 C469 0.950 . S
C473 C464 1.390 . S
C473 H466 0.950 . S
C473 C470 1.387 . S
C474 C475 1.387 . S
C474 H478 0.950 . S
C474 C483 1.390 . S
C475 C474 1.387 . S
C475 C477 1.387 . S
H476 C483 0.950 . S
C477 C475 1.387 . S
C477 C479 1.390 . S
C477 H481 0.950 . S
H478 C474 0.950 . S
C479 C477 1.390 . S
C479 C480 1.387 . S
C479 H482 0.950 . S
C480 C479 1.387 . S
C480 C483 1.387 . S
H481 C477 0.950 . S
H482 C479 0.950 . S
C483 C474 1.390 . S
C483 H476 0.950 . S
C483 C480 1.387 . S
C484 C485 1.387 . S
C484 H488 0.950 . S
C484 C493 1.390 . S
C485 C484 1.387 . S
C485 C487 1.387 . S
H486 C493 0.950 . S
C487 C485 1.387 . S
C487 C489 1.390 . S
C487 H491 0.950 . S
H488 C484 0.950 . S
C489 C487 1.390 . S
C489 C490 1.387 . S
C489 H492 0.950 . S
C490 C489 1.387 . S
C490 C493 1.387 . S
H491 C487 0.950 . S
H492 C489 0.950 . S
C493 C484 1.390 . S
C493 H486 0.950 . S
C493 C490 1.387 . S
C494 C495 1.387 . S
C494 H498 0.950 . S
C494 C503 1.390 . S
C495 C494 1.387 . S
C495 C497 1.387 . S
H496 C503 0.950 . S
C497 C495 1.387 . S
C497 C499 1.390 . S
C497 H501 0.950 . S
H498 C494 0.950 . S
C499 C497 1.390 . S
C499 C500 1.387 . S
C499 H502 0.950 . S
C500 C499 1.387 . S
C500 C503 1.387 . S
H501 C497 0.950 . S
H502 C499 0.950 . S
C503 C494 1.390 . S
C503 H496 0.950 . S
C503 C500 1.387 . S
C504 C505 1.387 . S
C504 H508 0.950 . S
C504 C513 1.390 . S
C505 C504 1.387 . S
C505 C507 1.387 . S
H506 C513 0.950 . S
C507 C505 1.387 . S
C507 C509 1.390 . S
C507 H511 0.950 . S
H508 C504 0.950 . S
C509 C507 1.390 . S
C509 C510 1.387 . S
C509 H512 0.950 . S
C510 C509 1.387 . S
C510 C513 1.387 . S
H511 C507 0.950 . S
H512 C509 0.950 . S
C513 C504 1.390 . S
C513 H506 0.950 . S
C513 C510 1.387 . S
C514 C515 1.387 . S
C514 H518 0.950 . S
C514 C523 1.390 . S
C515 C514 1.387 . S
C515 C517 1.387 . S
H516 C523 0.950 . S
C517 C515 1.387 . S
C517 C519 1.390 . S
C517 H521 0.950 . S
H518 C514 0.950 . S
C519 C517 1.390 . S
C519 C520 1.387 . S
C519 H522 0.950 . S
C520 C519 1.387 . S
C520 C523 1.387 . S
H521 C517 0.950 . S
H522 C519 0.950 . S
C523 C514 1.390 . S
C523 H516 0.950 . S
C523 C520 1.387 . S
C524 C525 1.387 . S
C524 H528 0.950 . S
C524 C533 1.390 . S
C525 C524 1.387 . S
C525 C527 1.387 . S
H526 C533 0.950 . S
C527 C525 1.387 . S
C527 C529 1.390 . S
C527 H531 0.950 . S
H528 C524 0.950 . S
C529 C527 1.390 . S
C529 C530 1.387 . S
C529 H532 0.950 . S
C530 C529 1.387 . S
C530 C533 1.387 . S
H531 C527 0.950 . S
H532 C529 0.950 . S
C533 C524 1.390 . S
C533 H526 0.950 . S
C533 C530 1.387 . S
C534 C535 1.387 . S
C534 H538 0.950 . S
C534 C543 1.390 . S
C535 C534 1.387 . S
C535 C537 1.387 . S
H536 C543 0.950 . S
C537 C535 1.387 . S
C537 C539 1.390 . S
C537 H541 0.950 . S
H538 C534 0.950 . S
C539 C537 1.390 . S
C539 C540 1.387 . S
C539 H542 0.950 . S
C540 C539 1.387 . S
C540 C543 1.387 . S
H541 C537 0.950 . S
H542 C539 0.950 . S
C543 C534 1.390 . S
C543 H536 0.950 . S
C543 C540 1.387 . S
C225 C6 1.128 . S
C230 C62 1.128 . S
C235 C76 1.128 . S
C240 C20 1.128 . S
C245 C34 1.127 . S
C250 C90 1.127 . S
C255 C48 1.127 . S
C260 C104 1.127 . S
C265 C118 1.128 . S
C270 C174 1.128 . S
C275 C188 1.128 . S
C280 C132 1.128 . S
C285 C146 1.128 . S
C290 C202 1.128 . S
C295 C160 1.128 . S
C300 C216 1.128 . S
C305 C8 1.703 1_556 S
C310 C219 1.680 . S
C315 C177 1.680 . S
C320 C22 1.702 . S
C325 C36 1.703 1_556 S
C330 C191 1.681 . S
C335 C205 1.682 . S
C340 C50 1.702 . S
C345 C135 1.680 . S
C350 C64 1.703 1_554 S
C355 C149 1.682 . S
C360 C78 1.703 . S
C365 C163 1.681 . S
C370 C92 1.702 1_554 S
C375 C121 1.682 . S
C380 C106 1.702 . S
C385 C120 1.702 1_554 S
C390 C107 1.680 . S
C395 C65 1.682 . S
C400 C134 1.703 . S
C405 C79 1.681 . S
C410 C148 1.703 1_554 S
C415 C162 1.702 . S
C420 C93 1.680 . S
C425 C23 1.681 . S
C430 C176 1.702 1_556 S
C435 C190 1.702 . S
C440 C37 1.680 . S
C445 C204 1.703 1_556 S
C450 C51 1.681 . S
C455 C218 1.702 . S
C460 C9 1.680 . S
C465 C105 1.364 . S
C470 C7 1.368 . S
C475 C21 1.364 . S
C480 C63 1.368 . S
C485 C35 1.364 . S
C490 C77 1.368 . S
C495 C49 1.364 . S
C500 C91 1.368 . S
C505 C217 1.365 . S
C510 C119 1.368 . S
C515 C175 1.364 . S
C520 C133 1.368 . S
C525 C189 1.368 . S
C530 C147 1.364 . S
C535 C203 1.368 . S
C540 C161 1.364 . S
