# Generated by pormake.
# Topology wfs, (7)-cn, num edge types: 1
# Building blocks:
#     Node 0, Type 0, BuildingBlock: HICVOG_clean_sbu_0, # of connection points: 7
#     Node 1, Type 0, BuildingBlock: HICVOG_clean_sbu_0, # of connection points: 7
#     Node 2, Type 0, BuildingBlock: HICVOG_clean_sbu_0, # of connection points: 7
#     Node 3, Type 0, BuildingBlock: HICVOG_clean_sbu_0, # of connection points: 7
#     Node 4, Type 0, BuildingBlock: HICVOG_clean_sbu_0, # of connection points: 7
#     Node 5, Type 0, BuildingBlock: HICVOG_clean_sbu_0, # of connection points: 7
#     Node 6, Type 0, BuildingBlock: HICVOG_clean_sbu_0, # of connection points: 7
#     Node 7, Type 0, BuildingBlock: HICVOG_clean_sbu_0, # of connection points: 7
#     Edge 8, Type (0, 0), BuildingBlock: MIFKUJ_clean_linker_0, # of connection points: 2
#     Edge 9, Type (0, 0), BuildingBlock: MIFKUJ_clean_linker_0, # of connection points: 2
#     Edge 10, Type (0, 0), BuildingBlock: MIFKUJ_clean_linker_0, # of connection points: 2
#     Edge 11, Type (0, 0), BuildingBlock: MIFKUJ_clean_linker_0, # of connection points: 2
#     Edge 12, Type (0, 0), BuildingBlock: MIFKUJ_clean_linker_0, # of connection points: 2
#     Edge 13, Type (0, 0), BuildingBlock: MIFKUJ_clean_linker_0, # of connection points: 2
#     Edge 14, Type (0, 0), BuildingBlock: MIFKUJ_clean_linker_0, # of connection points: 2
#     Edge 15, Type (0, 0), BuildingBlock: MIFKUJ_clean_linker_0, # of connection points: 2
#     Edge 16, Type (0, 0), BuildingBlock: MIFKUJ_clean_linker_0, # of connection points: 2
#     Edge 17, Type (0, 0), BuildingBlock: MIFKUJ_clean_linker_0, # of connection points: 2
#     Edge 18, Type (0, 0), BuildingBlock: MIFKUJ_clean_linker_0, # of connection points: 2
#     Edge 19, Type (0, 0), BuildingBlock: MIFKUJ_clean_linker_0, # of connection points: 2
#     Edge 20, Type (0, 0), BuildingBlock: MIFKUJ_clean_linker_0, # of connection points: 2
#     Edge 21, Type (0, 0), BuildingBlock: MIFKUJ_clean_linker_0, # of connection points: 2
#     Edge 22, Type (0, 0), BuildingBlock: MIFKUJ_clean_linker_0, # of connection points: 2
#     Edge 23, Type (0, 0), BuildingBlock: MIFKUJ_clean_linker_0, # of connection points: 2
#     Edge 24, Type (0, 0), BuildingBlock: MIFKUJ_clean_linker_0, # of connection points: 2
#     Edge 25, Type (0, 0), BuildingBlock: MIFKUJ_clean_linker_0, # of connection points: 2
#     Edge 26, Type (0, 0), BuildingBlock: MIFKUJ_clean_linker_0, # of connection points: 2
#     Edge 27, Type (0, 0), BuildingBlock: MIFKUJ_clean_linker_0, # of connection points: 2
#     Edge 28, Type (0, 0), BuildingBlock: MIFKUJ_clean_linker_0, # of connection points: 2
#     Edge 29, Type (0, 0), BuildingBlock: MIFKUJ_clean_linker_0, # of connection points: 2
#     Edge 30, Type (0, 0), BuildingBlock: MIFKUJ_clean_linker_0, # of connection points: 2
#     Edge 31, Type (0, 0), BuildingBlock: MIFKUJ_clean_linker_0, # of connection points: 2
#     Edge 32, Type (0, 0), BuildingBlock: MIFKUJ_clean_linker_0, # of connection points: 2
#     Edge 33, Type (0, 0), BuildingBlock: MIFKUJ_clean_linker_0, # of connection points: 2
#     Edge 34, Type (0, 0), BuildingBlock: MIFKUJ_clean_linker_0, # of connection points: 2
#     Edge 35, Type (0, 0), BuildingBlock: MIFKUJ_clean_linker_0, # of connection points: 2
# Relax obj value: 0.508
# Max RMSD: 0.314
# Mean RMSD: 0.314
data_MOF--net-wfs--node1-HICVOG_clean_sbu_0--edge1-MIFKUJ_clean_linker_0
_symmetry_space_group_name_H-M    P1
_symmetry_Int_Tables_number       1
_symmetry_cell_setting            triclinic
loop_
_symmetry_equiv_pos_as_xyz
'x, y, z'
_cell_length_a     38.8184
_cell_length_b     37.883834
_cell_length_c     40.537849
_cell_angle_alpha  90.018845
_cell_angle_beta   90.010201
_cell_angle_gamma 89.966044
loop_
_atom_site_label
_atom_site_type_symbol
_atom_site_fract_x
_atom_site_fract_y
_atom_site_fract_z
_atom_type_partial_charge
Zn0 Zn 0.20062 0.15391 0.177 0.0
C1 C 0.20019 0.25473 0.2078 0.0
N2 N 0.23419 0.24827 0.21068 0.0
C3 C 0.23616 0.21413 0.20206 0.0
N4 N 0.2053 0.20037 0.19472 0.0
N5 N 0.18227 0.22585 0.19824 0.0
C6 C 0.10885 0.23276 0.13255 0.0
O7 O 0.12957 0.20603 0.12685 0.0
O8 O 0.23351 0.11925 0.19812 0.0
Zn9 Zn 0.13244 0.22063 0.19909 0.0
N10 N 0.21435 0.15561 0.1315 0.0
C11 C 0.22686 0.18604 0.08165 0.0
C12 C 0.2128 0.1857 0.11335 0.0
C13 C 0.22944 0.12601 0.11947 0.0
N14 N 0.24195 0.15633 0.06954 0.0
C15 C 0.24355 0.12606 0.0876 0.0
O16 O 0.11439 0.17017 0.19863 0.0
C17 C 0.12365 0.13885 0.19137 0.0
O18 O 0.15423 0.13183 0.18237 0.0
H19 H 0.20155 0.20936 0.1237 0.0
H20 H 0.23127 0.10305 0.13518 0.0
C21 C 0.09078 0.2627 0.24227 0.0
C22 C 0.08091 0.27659 0.27303 0.0
C23 C 0.12702 0.2455 0.29833 0.0
C24 C 0.13633 0.23144 0.26787 0.0
N25 N 0.11817 0.2405 0.2405 0.0
N26 N 0.09944 0.26743 0.30026 0.0
H27 H 0.07631 0.26828 0.22008 0.0
C28 C 0.22953 0.10462 0.22606 0.0
O29 O 0.20418 0.11492 0.24526 0.0
O30 O 0.10741 0.24554 0.16155 0.0
H31 H 0.15805 0.21365 0.26589 0.0
H32 H 0.22606 0.2098 0.06688 0.0
H33 H 0.14132 0.23874 0.32035 0.0
Zn34 Zn 0.12879 0.78042 0.79365 0.0
C35 C 0.23129 0.79772 0.79848 0.0
N36 N 0.23357 0.76547 0.78508 0.0
C37 C 0.20056 0.75467 0.78512 0.0
N38 N 0.17896 0.77957 0.79726 0.0
N39 N 0.19867 0.80655 0.80588 0.0
C40 C 0.22223 0.90253 0.79347 0.0
O41 O 0.20319 0.89074 0.76904 0.0
O42 O 0.10358 0.75756 0.83237 0.0
Zn43 Zn 0.18544 0.84868 0.82866 0.0
N44 N 0.11708 0.75672 0.75301 0.0
C45 C 0.12998 0.7434 0.69709 0.0
C46 C 0.13822 0.76028 0.72652 0.0
C47 C 0.087 0.73864 0.75081 0.0
N48 N 0.09996 0.72528 0.69482 0.0
C49 C 0.0777 0.72258 0.7207 0.0
O50 O 0.1412 0.86908 0.81335 0.0
C51 C 0.11368 0.86112 0.79823 0.0
O52 O 0.10747 0.82955 0.78915 0.0
H53 H 0.16142 0.77593 0.72834 0.0
H54 H 0.0704 0.73839 0.77212 0.0
C55 C 0.2115 0.84676 0.89333 0.0
C56 C 0.21118 0.8406 0.92752 0.0
C57 C 0.15462 0.81704 0.92248 0.0
C58 C 0.1549 0.82413 0.88874 0.0
N59 N 0.18345 0.83854 0.87493 0.0
N60 N 0.18249 0.82575 0.94105 0.0
H61 H 0.23298 0.8595 0.88131 0.0
C62 C 0.11541 0.74641 0.85975 0.0
O63 O 0.14883 0.74673 0.86485 0.0
O64 O 0.22004 0.88775 0.82154 0.0
H65 H 0.13261 0.81847 0.87366 0.0
H66 H 0.14689 0.74533 0.67596 0.0
H67 H 0.13213 0.80556 0.93398 0.0
Zn68 Zn 0.80333 0.84208 0.17948 0.0
C69 C 0.79746 0.74143 0.21217 0.0
N70 N 0.76393 0.7502 0.21433 0.0
C71 C 0.76364 0.78349 0.20333 0.0
N72 N 0.79528 0.79496 0.1953 0.0
N73 N 0.81698 0.76852 0.20072 0.0
C74 C 0.8797 0.7383 0.13384 0.0
O75 O 0.84634 0.73378 0.13047 0.0
O76 O 0.76865 0.87617 0.19931 0.0
Zn77 Zn 0.86732 0.77152 0.20126 0.0
N78 N 0.79653 0.84203 0.13259 0.0
C79 C 0.80164 0.81376 0.08056 0.0
C80 C 0.81042 0.81605 0.11382 0.0
C81 C 0.77484 0.86637 0.11951 0.0
N82 N 0.7791 0.83747 0.06762 0.0
C83 C 0.76502 0.86376 0.08624 0.0
O84 O 0.88712 0.82124 0.20482 0.0
C85 C 0.87914 0.85342 0.19987 0.0
O86 O 0.84928 0.86232 0.19022 0.0
H87 H 0.8277 0.79716 0.12485 0.0
H88 H 0.76518 0.88705 0.13532 0.0
C89 C 0.91316 0.73047 0.24151 0.0
C90 C 0.92475 0.71541 0.27129 0.0
C91 C 0.873 0.73407 0.2973 0.0
C92 C 0.86255 0.75041 0.26824 0.0
N93 N 0.88253 0.74778 0.24082 0.0
N94 N 0.90388 0.71736 0.29825 0.0
H95 H 0.92824 0.72911 0.21914 0.0
C96 C 0.77108 0.88803 0.22855 0.0
O97 O 0.79635 0.87689 0.24743 0.0
O98 O 0.8915 0.75117 0.16057 0.0
H99 H 0.83862 0.76499 0.26748 0.0
H100 H 0.81236 0.79313 0.06521 0.0
H101 H 0.85712 0.73541 0.3192 0.0
Zn102 Zn 0.86425 0.231 0.79289 0.0
C103 C 0.76115 0.21743 0.78482 0.0
N104 N 0.76176 0.25058 0.77326 0.0
C105 C 0.79495 0.25961 0.7775 0.0
N106 N 0.81397 0.2331 0.79049 0.0
N107 N 0.79235 0.20655 0.79512 0.0
C108 C 0.76229 0.11577 0.76867 0.0
O109 O 0.78026 0.13126 0.74535 0.0
O110 O 0.88588 0.24855 0.83583 0.0
Zn111 Zn 0.80239 0.16064 0.81253 0.0
N112 N 0.88139 0.25879 0.75675 0.0
C113 C 0.87995 0.27256 0.6996 0.0
C114 C 0.86722 0.25381 0.72647 0.0
C115 C 0.90845 0.28095 0.7612 0.0
N116 N 0.90763 0.29395 0.70379 0.0
C117 C 0.92282 0.2984 0.73381 0.0
O118 O 0.84644 0.14045 0.79673 0.0
C119 C 0.8761 0.14968 0.78694 0.0
O120 O 0.88486 0.18202 0.78506 0.0
H121 H 0.846 0.2356 0.72338 0.0
H122 H 0.91889 0.28399 0.78573 0.0
C123 C 0.77857 0.14346 0.87622 0.0
C124 C 0.77717 0.14495 0.9107 0.0
C125 C 0.82332 0.18599 0.91045 0.0
C126 C 0.82511 0.18359 0.87612 0.0
N127 N 0.80232 0.16287 0.85978 0.0
N128 N 0.79949 0.16655 0.92698 0.0
H129 H 0.76088 0.12708 0.86243 0.0
C130 C 0.87375 0.26262 0.86188 0.0
O131 O 0.84056 0.26899 0.86398 0.0
O132 O 0.76711 0.12471 0.79851 0.0
H133 H 0.84436 0.1979 0.86247 0.0
H134 H 0.86858 0.26941 0.67541 0.0
H135 H 0.84101 0.20274 0.92387 0.0
Zn136 Zn 0.62499 0.73509 0.70415 0.0
C137 C 0.72847 0.7217 0.70368 0.0
N138 N 0.72849 0.75415 0.71685 0.0
C139 C 0.69503 0.76325 0.71539 0.0
N140 N 0.67529 0.73724 0.70245 0.0
N141 N 0.69671 0.7112 0.69487 0.0
C142 C 0.72304 0.61638 0.71942 0.0
O143 O 0.7047 0.63071 0.74314 0.0
O144 O 0.60055 0.75526 0.6638 0.0
Zn145 Zn 0.68645 0.66585 0.67645 0.0
N146 N 0.61119 0.76068 0.74306 0.0
C147 C 0.62057 0.77377 0.79972 0.0
C148 C 0.62985 0.75587 0.77108 0.0
C149 C 0.58292 0.7818 0.7427 0.0
N150 N 0.59209 0.79453 0.79955 0.0
C151 C 0.57275 0.79902 0.77183 0.0
O152 O 0.64186 0.64607 0.69123 0.0
C153 C 0.61302 0.65393 0.70394 0.0
O154 O 0.6048 0.68579 0.7102 0.0
H155 H 0.65193 0.73845 0.77103 0.0
H156 H 0.56787 0.78377 0.72031 0.0
C157 C 0.71178 0.64726 0.614 0.0
C158 C 0.71338 0.64608 0.57949 0.0
C159 C 0.6667 0.68661 0.57702 0.0
C160 C 0.66493 0.68702 0.61141 0.0
N161 N 0.6878 0.66768 0.62911 0.0
N162 N 0.69055 0.66589 0.56187 0.0
H163 H 0.72835 0.63086 0.62892 0.0
C164 C 0.61277 0.76679 0.63675 0.0
O165 O 0.64632 0.76877 0.63287 0.0
O166 O 0.72085 0.62884 0.69042 0.0
H167 H 0.64514 0.70184 0.62393 0.0
H168 H 0.63541 0.77061 0.82211 0.0
H169 H 0.64867 0.70183 0.56247 0.0
Zn170 Zn 0.63624 0.26758 0.29628 0.0
C171 C 0.73959 0.28345 0.30118 0.0
N172 N 0.74155 0.24915 0.29368 0.0
C173 C 0.70824 0.23927 0.29305 0.0
N174 N 0.68674 0.26667 0.29979 0.0
N175 N 0.70696 0.2944 0.3048 0.0
C176 C 0.72563 0.39397 0.27769 0.0
O177 O 0.69931 0.38497 0.25915 0.0
O178 O 0.6112 0.24835 0.33683 0.0
Zn179 Zn 0.69593 0.34091 0.32001 0.0
N180 N 0.62405 0.23987 0.25797 0.0
C181 C 0.63677 0.22098 0.20334 0.0
C182 C 0.64529 0.24048 0.23132 0.0
C183 C 0.5943 0.221 0.25764 0.0
N184 N 0.60683 0.20251 0.20277 0.0
C185 C 0.58521 0.20187 0.22921 0.0
O186 O 0.65069 0.35842 0.30431 0.0
C187 C 0.62191 0.34874 0.29263 0.0
O188 O 0.61458 0.31625 0.28844 0.0
H189 H 0.66865 0.256 0.23185 0.0
H190 H 0.57744 0.22212 0.27886 0.0
C191 C 0.72264 0.35524 0.38406 0.0
C192 C 0.72217 0.35557 0.41874 0.0
C193 C 0.66938 0.32377 0.41769 0.0
C194 C 0.66938 0.32479 0.38335 0.0
N195 N 0.6961 0.34019 0.36732 0.0
N196 N 0.6955 0.33939 0.43452 0.0
H197 H 0.74351 0.36712 0.37034 0.0
C198 C 0.62336 0.24091 0.36514 0.0
O199 O 0.65672 0.24319 0.37015 0.0
O200 O 0.73071 0.37754 0.30465 0.0
H201 H 0.64828 0.31359 0.36946 0.0
H202 H 0.6535 0.22104 0.182 0.0
H203 H 0.64838 0.31149 0.43092 0.0
Zn204 Zn 0.30547 0.34565 0.68829 0.0
C205 C 0.30532 0.24813 0.72673 0.0
N206 N 0.27214 0.25564 0.73322 0.0
C207 C 0.26898 0.2885 0.72123 0.0
N208 N 0.29872 0.30053 0.70839 0.0
N209 N 0.32189 0.27516 0.71185 0.0
C210 C 0.39275 0.23665 0.64418 0.0
O211 O 0.38369 0.20747 0.65934 0.0
O212 O 0.27192 0.38231 0.7051 0.0
Zn213 Zn 0.37166 0.27906 0.70479 0.0
N214 N 0.29852 0.34171 0.64166 0.0
C215 C 0.29717 0.31025 0.59095 0.0
C216 C 0.30627 0.31211 0.62426 0.0
C217 C 0.2824 0.36946 0.62733 0.0
N218 N 0.28071 0.33802 0.57663 0.0
C219 C 0.27318 0.36784 0.59399 0.0
O220 O 0.39085 0.32839 0.71232 0.0
C221 C 0.381 0.3601 0.70796 0.0
O222 O 0.35079 0.36733 0.69821 0.0
H223 H 0.31869 0.29002 0.63628 0.0
H224 H 0.27587 0.39213 0.64228 0.0
C225 C 0.41652 0.22496 0.73387 0.0
C226 C 0.42985 0.20639 0.76118 0.0
C227 C 0.39474 0.24096 0.79678 0.0
C228 C 0.38241 0.25977 0.76983 0.0
N229 N 0.39294 0.251 0.73894 0.0
N230 N 0.41814 0.21495 0.79184 0.0
H231 H 0.42485 0.21916 0.70906 0.0
C232 C 0.27693 0.39898 0.73186 0.0
O233 O 0.30275 0.38961 0.75091 0.0
O234 O 0.38834 0.26623 0.65848 0.0
H235 H 0.36387 0.28077 0.77331 0.0
H236 H 0.30287 0.28684 0.57668 0.0
H237 H 0.38606 0.24715 0.82146 0.0
Zn238 Zn 0.37563 0.72218 0.28815 0.0
C239 C 0.2722 0.70928 0.28919 0.0
N240 N 0.27153 0.74175 0.27609 0.0
C241 C 0.30515 0.75057 0.27574 0.0
N242 N 0.32538 0.72455 0.28813 0.0
N243 N 0.30422 0.69865 0.29644 0.0
C244 C 0.27408 0.60669 0.27517 0.0
O245 O 0.29146 0.622 0.25134 0.0
O246 O 0.3984 0.74085 0.33021 0.0
Zn247 Zn 0.31401 0.65424 0.31651 0.0
N248 N 0.39067 0.74975 0.25084 0.0
C249 C 0.38323 0.76468 0.19439 0.0
C250 C 0.37395 0.74475 0.22178 0.0
C251 C 0.4168 0.77344 0.2536 0.0
N252 N 0.40976 0.78781 0.19687 0.0
C253 C 0.42733 0.79275 0.22562 0.0
O254 O 0.35802 0.63347 0.3014 0.0
C255 C 0.38671 0.64061 0.28802 0.0
O256 O 0.39534 0.6723 0.28124 0.0
H257 H 0.35322 0.72577 0.22014 0.0
H258 H 0.42889 0.77678 0.27736 0.0
C259 C 0.28778 0.64669 0.38121 0.0
C260 C 0.2872 0.65125 0.41563 0.0
C261 C 0.33989 0.68314 0.41193 0.0
C262 C 0.3406 0.67763 0.37798 0.0
N263 N 0.31427 0.66014 0.36337 0.0
N264 N 0.31347 0.66966 0.42989 0.0
H265 H 0.26831 0.63165 0.36844 0.0
C266 C 0.38545 0.75396 0.35635 0.0
O267 O 0.35192 0.75818 0.35843 0.0
O268 O 0.27825 0.61737 0.30466 0.0
H269 H 0.36193 0.68684 0.36328 0.0
H270 H 0.36987 0.76142 0.17117 0.0
H271 H 0.36053 0.69726 0.42405 0.0
H272 H 0.2357 0.07165 0.28601 0.0
H273 H 0.26349 0.01482 0.29735 0.0
H274 H 0.29518 0.00774 0.19559 0.0
H275 H 0.26805 0.06461 0.18438 0.0
H276 H 0.24512 0.95425 0.27273 0.0
H277 H 0.3642 0.95517 0.18615 0.0
H278 H 0.40754 0.99745 0.16575 0.0
H279 H 0.39377 0.06116 0.25233 0.0
H280 H 0.35063 0.01907 0.27348 0.0
H281 H 0.28039 0.78675 0.22382 0.0
H282 H 0.28329 0.85043 0.21552 0.0
H283 H 0.3558 0.85918 0.29564 0.0
H284 H 0.35327 0.79492 0.30372 0.0
H285 H 0.36111 0.91346 0.23774 0.0
H286 H 0.28364 0.86564 0.3209 0.0
H287 H 0.24062 0.82212 0.33954 0.0
H288 H 0.17199 0.85456 0.26218 0.0
H289 H 0.21497 0.89777 0.24265 0.0
C290 C 0.24924 0.05831 0.26625 0.0
C291 C 0.2499 0.07272 0.23433 0.0
C292 C 0.2651 0.02582 0.27274 0.0
C293 C 0.28183 0.00707 0.24742 0.0
C294 C 0.28331 0.022 0.21577 0.0
C295 C 0.2677 0.05454 0.20935 0.0
C296 C 0.29427 0.97034 0.25304 0.0
C297 C 0.2707 0.94564 0.26553 0.0
C298 C 0.32763 0.9588 0.24355 0.0
C299 C 0.35409 0.98394 0.23137 0.0
C300 C 0.37061 0.97803 0.20098 0.0
C301 C 0.39513 0.00199 0.18927 0.0
C302 C 0.40352 0.03186 0.20782 0.0
C303 C 0.38734 0.03792 0.23807 0.0
C304 C 0.36278 0.01407 0.24989 0.0
C305 C 0.298 0.80204 0.23886 0.0
C306 C 0.31621 0.78601 0.26478 0.0
C307 C 0.2997 0.83842 0.23402 0.0
C308 C 0.31929 0.85956 0.25531 0.0
C309 C 0.34051 0.84329 0.27895 0.0
C310 C 0.33897 0.80658 0.28364 0.0
C311 C 0.31175 0.89793 0.25697 0.0
C312 C 0.33593 0.92259 0.2456 0.0
C313 C 0.27903 0.90975 0.26771 0.0
C314 C 0.25261 0.88477 0.2802 0.0
C315 C 0.25945 0.86336 0.30777 0.0
C316 C 0.23508 0.83874 0.31848 0.0
C317 C 0.20361 0.83554 0.30202 0.0
C318 C 0.19639 0.85706 0.27489 0.0
C319 C 0.22074 0.88163 0.264 0.0
H320 H 0.18479 0.81642 0.31032 0.0
H321 H 0.42241 0.05043 0.19865 0.0
H322 H 0.04908 0.70281 0.6619 0.0
H323 H 0.99056 0.68296 0.65145 0.0
H324 H 0.96922 0.68558 0.75584 0.0
H325 H 0.02799 0.70234 0.76694 0.0
H326 H 0.93546 0.63499 0.73094 0.0
H327 H 0.95153 0.75758 0.69994 0.0
H328 H 0.97803 0.80651 0.66884 0.0
H329 H 0.94672 0.75865 0.57759 0.0
H330 H 0.92036 0.70922 0.6082 0.0
H331 H 0.77154 0.70624 0.75333 0.0
H332 H 0.83037 0.68463 0.74867 0.0
H333 H 0.81622 0.66938 0.64399 0.0
H334 H 0.75716 0.6923 0.64875 0.0
H335 H 0.86806 0.71334 0.65716 0.0
H336 H 0.85299 0.58892 0.69261 0.0
H337 H 0.83103 0.54077 0.7273 0.0
H338 H 0.85741 0.59893 0.81468 0.0
H339 H 0.8819 0.64647 0.78022 0.0
C340 C 0.03223 0.69871 0.68283 0.0
C341 C 0.04335 0.70598 0.71525 0.0
C342 C 0.99859 0.68751 0.67669 0.0
C343 C 0.97507 0.6841 0.70272 0.0
C344 C 0.9867 0.68865 0.73522 0.0
C345 C 0.02052 0.69905 0.74148 0.0
C346 C 0.93787 0.67818 0.69645 0.0
C347 C 0.92079 0.65211 0.7147 0.0
C348 C 0.91864 0.69984 0.67468 0.0
C349 C 0.93441 0.72952 0.6563 0.0
C350 C 0.95052 0.7574 0.67323 0.0
C351 C 0.96548 0.78522 0.65571 0.0
C352 C 0.96417 0.78562 0.62126 0.0
C353 C 0.9478 0.75825 0.60427 0.0
C354 C 0.93284 0.73033 0.62168 0.0
C355 C 0.78064 0.69701 0.72956 0.0
C356 C 0.75995 0.70041 0.70144 0.0
C357 C 0.81417 0.68424 0.72694 0.0
C358 C 0.82769 0.67474 0.69606 0.0
C359 C 0.80619 0.67605 0.66814 0.0
C360 C 0.77244 0.68886 0.67083 0.0
C361 C 0.86554 0.67095 0.69253 0.0
C362 C 0.88285 0.69539 0.67248 0.0
C363 C 0.88495 0.64854 0.71325 0.0
C364 C 0.86864 0.6213 0.73395 0.0
C365 C 0.85376 0.59152 0.71922 0.0
C366 C 0.84106 0.56425 0.73887 0.0
C367 C 0.84201 0.56705 0.77327 0.0
C368 C 0.85644 0.59687 0.78806 0.0
C369 C 0.87016 0.62376 0.7685 0.0
H370 H 0.83188 0.54607 0.78851 0.0
H371 H 0.97576 0.80719 0.60773 0.0
H372 H 0.65094 0.19897 0.31029 0.0
H373 H 0.64132 0.13636 0.29696 0.0
H374 H 0.7371 0.13484 0.24273 0.0
H375 H 0.74499 0.19685 0.25355 0.0
H376 H 0.69808 0.09529 0.21262 0.0
H377 H 0.72559 0.10871 0.33016 0.0
H378 H 0.71339 0.13035 0.38641 0.0
H379 H 0.61647 0.07575 0.386 0.0
H380 H 0.62801 0.05407 0.32959 0.0
H381 H 0.77987 0.93102 0.282 0.0
H382 H 0.74977 0.98614 0.29374 0.0
H383 H 0.68104 0.96698 0.21203 0.0
H384 H 0.71185 0.91225 0.19945 0.0
H385 H 0.68863 0.01353 0.30773 0.0
H386 H 0.67309 0.04148 0.16843 0.0
H387 H 0.69887 0.02201 0.11578 0.0
H388 H 0.79388 0.99838 0.16544 0.0
H389 H 0.76884 0.01825 0.21815 0.0
C390 C 0.66923 0.18539 0.29474 0.0
C391 C 0.69868 0.20292 0.28303 0.0
C392 C 0.66401 0.14945 0.28744 0.0
C393 C 0.68876 0.13039 0.26919 0.0
C394 C 0.71738 0.14856 0.25665 0.0
C395 C 0.7221 0.18419 0.26324 0.0
C396 C 0.68736 0.09126 0.2647 0.0
C397 C 0.69529 0.07745 0.23339 0.0
C398 C 0.68414 0.06762 0.29166 0.0
C399 C 0.67746 0.08014 0.32564 0.0
C400 C 0.70164 0.10144 0.34208 0.0
C401 C 0.69484 0.11371 0.37395 0.0
C402 C 0.66412 0.10453 0.38973 0.0
C403 C 0.6402 0.08291 0.37371 0.0
C404 C 0.64686 0.07063 0.34181 0.0
C405 C 0.75792 0.93813 0.2669 0.0
C406 C 0.74875 0.91763 0.23935 0.0
C407 C 0.74053 0.96961 0.27381 0.0
C408 C 0.71348 0.98111 0.25345 0.0
C409 C 0.7022 0.95899 0.22777 0.0
C410 C 0.71989 0.92771 0.22057 0.0
C411 C 0.70102 0.01822 0.25612 0.0
C412 C 0.69021 0.03136 0.28685 0.0
C413 C 0.70351 0.04173 0.22908 0.0
C414 C 0.7189 0.0308 0.19722 0.0
C415 C 0.6995 0.03224 0.16801 0.0
C416 C 0.71401 0.02113 0.13818 0.0
C417 C 0.74795 0.00874 0.13732 0.0
C418 C 0.76757 0.00781 0.16618 0.0
C419 C 0.75324 0.019 0.196 0.0
H420 H 0.75921 0.99988 0.11438 0.0
H421 H 0.65888 0.11409 0.41438 0.0
H422 H 0.94702 0.34829 0.69108 0.0
H423 H 0.00585 0.37101 0.68744 0.0
H424 H 0.03252 0.31522 0.77653 0.0
H425 H 0.97477 0.2921 0.78029 0.0
H426 H 0.06754 0.37805 0.77136 0.0
H427 H 0.04002 0.27495 0.70256 0.0
H428 H 0.00751 0.24511 0.6583 0.0
H429 H 0.03997 0.32425 0.58915 0.0
H430 H 0.07233 0.35478 0.63319 0.0
H431 H 0.22433 0.2909 0.77205 0.0
H432 H 0.16678 0.31646 0.77262 0.0
H433 H 0.18205 0.35558 0.67363 0.0
H434 H 0.23896 0.32759 0.67242 0.0
H435 H 0.12588 0.32254 0.67563 0.0
H436 H 0.16689 0.41596 0.74393 0.0
H437 H 0.19823 0.44491 0.78949 0.0
H438 H 0.14188 0.38366 0.86014 0.0
H439 H 0.1099 0.35457 0.81515 0.0
C440 C 0.9652 0.34144 0.71032 0.0
C441 C 0.95589 0.31802 0.73579 0.0
C442 C 0.99874 0.35463 0.70825 0.0
C443 C 0.02357 0.3444 0.73149 0.0
C444 C 0.01367 0.32357 0.75842 0.0
C445 C 0.98027 0.31035 0.76052 0.0
C446 C 0.06072 0.35027 0.72557 0.0
C447 C 0.08047 0.36629 0.75032 0.0
C448 C 0.07736 0.33581 0.69762 0.0
C449 C 0.05816 0.31736 0.67118 0.0
C450 C 0.04001 0.28608 0.67795 0.0
C451 C 0.02165 0.26904 0.65292 0.0
C452 C 0.02158 0.28284 0.62096 0.0
C453 C 0.03997 0.31365 0.61394 0.0
C454 C 0.05831 0.33084 0.63891 0.0
C455 C 0.21559 0.30555 0.75067 0.0
C456 C 0.23629 0.3081 0.72245 0.0
C457 C 0.18286 0.32069 0.75117 0.0
C458 C 0.17024 0.33895 0.72351 0.0
C459 C 0.19135 0.34217 0.69549 0.0
C460 C 0.22395 0.32643 0.69483 0.0
C461 C 0.13329 0.34911 0.72222 0.0
C462 C 0.11337 0.33588 0.69607 0.0
C463 C 0.1166 0.36604 0.74898 0.0
C464 C 0.13616 0.38299 0.77613 0.0
C465 C 0.1614 0.40849 0.76917 0.0
C466 C 0.17921 0.42497 0.79488 0.0
C467 C 0.17227 0.41597 0.82761 0.0
C468 C 0.14728 0.3906 0.83476 0.0
C469 C 0.12915 0.37425 0.80919 0.0
H470 H 0.18617 0.42876 0.84744 0.0
H471 H 0.00736 0.26961 0.6016 0.0
H472 H 0.24814 0.92811 0.73564 0.0
H473 H 0.27874 0.9839 0.72719 0.0
H474 H 0.27589 0.00383 0.83189 0.0
H475 H 0.24592 0.94779 0.84058 0.0
H476 H 0.24856 0.05714 0.79656 0.0
H477 H 0.35453 0.99158 0.79506 0.0
H478 H 0.3937 0.94374 0.77772 0.0
H479 H 0.38551 0.97755 0.67701 0.0
H480 H 0.34656 0.02588 0.69377 0.0
H481 H 0.31759 0.22178 0.78729 0.0
H482 H 0.32208 0.15927 0.80142 0.0
H483 H 0.32319 0.13265 0.69795 0.0
H484 H 0.3206 0.19559 0.68393 0.0
H485 H 0.35673 0.08156 0.73538 0.0
H486 H 0.24822 0.14392 0.73588 0.0
H487 H 0.209 0.19209 0.75223 0.0
H488 H 0.21918 0.16197 0.8539 0.0
H489 H 0.25902 0.11403 0.83818 0.0
C490 C 0.25462 0.94412 0.75691 0.0
C491 C 0.2444 0.9338 0.78874 0.0
C492 C 0.27236 0.97582 0.75208 0.0
C493 C 0.27986 0.99789 0.77896 0.0
C494 C 0.27063 0.98703 0.81085 0.0
C495 C 0.25346 0.95505 0.81577 0.0
C496 C 0.29317 0.03412 0.77343 0.0
C497 C 0.27261 0.06242 0.78385 0.0
C498 C 0.32395 0.041 0.75586 0.0
C499 C 0.34738 0.0121 0.74563 0.0
C500 C 0.3609 0.98864 0.76919 0.0
C501 C 0.38309 0.96148 0.75948 0.0
C502 C 0.39182 0.95736 0.72628 0.0
C503 C 0.37864 0.98068 0.70272 0.0
C504 C 0.35664 0.00808 0.71232 0.0
C505 C 0.32093 0.20267 0.76766 0.0
C506 C 0.31976 0.21335 0.73457 0.0
C507 C 0.32317 0.16695 0.7757 0.0
C508 C 0.32218 0.14126 0.75073 0.0
C509 C 0.3241 0.152 0.71761 0.0
C510 C 0.32283 0.18794 0.70959 0.0
C511 C 0.31226 0.10443 0.75895 0.0
C512 C 0.33305 0.07615 0.74865 0.0
C513 C 0.28141 0.09733 0.77645 0.0
C514 C 0.25688 0.12565 0.78588 0.0
C515 C 0.24224 0.1477 0.76173 0.0
C516 C 0.21991 0.17497 0.77089 0.0
C517 C 0.21166 0.18014 0.80409 0.0
C518 C 0.22565 0.15798 0.82819 0.0
C519 C 0.24811 0.13077 0.81918 0.0
H520 H 0.19438 0.20126 0.81113 0.0
H521 H 0.4089 0.93621 0.71884 0.0
H522 H 0.24275 0.70279 0.34923 0.0
H523 H 0.18309 0.68453 0.36003 0.0
H524 H 0.17169 0.65487 0.25788 0.0
H525 H 0.23076 0.67438 0.24688 0.0
H526 H 0.1365 0.72593 0.3171 0.0
H527 H 0.10517 0.58361 0.26631 0.0
H528 H 0.12521 0.52233 0.27368 0.0
H529 H 0.17564 0.55137 0.36394 0.0
H530 H 0.15569 0.61266 0.3574 0.0
H531 H 0.98322 0.72993 0.23474 0.0
H532 H 0.04182 0.71269 0.24733 0.0
H533 H 0.00633 0.65221 0.33069 0.0
H534 H 0.94679 0.66817 0.31758 0.0
H535 H 0.06279 0.62077 0.29873 0.0
H536 H 0.03129 0.73191 0.34519 0.0
H537 H 0.00667 0.79192 0.34509 0.0
H538 H 0.08176 0.82473 0.27366 0.0
H539 H 0.10644 0.76474 0.27286 0.0
C540 C 0.22781 0.69101 0.32951 0.0
C541 C 0.24089 0.68977 0.29731 0.0
C542 C 0.19395 0.68046 0.33571 0.0
C543 C 0.17322 0.66807 0.3098 0.0
C544 C 0.18753 0.66376 0.27827 0.0
C545 C 0.22104 0.67513 0.27193 0.0
C546 C 0.13542 0.66929 0.31273 0.0
C547 C 0.12032 0.70287 0.31357 0.0
C548 C 0.11452 0.63911 0.30865 0.0
C549 C 0.12891 0.60288 0.31128 0.0
C550 C 0.12059 0.57698 0.28771 0.0
C551 C 0.13185 0.54219 0.29179 0.0
C552 C 0.15127 0.5329 0.31947 0.0
C553 C 0.16037 0.55856 0.34264 0.0
C554 C 0.14925 0.5934 0.33864 0.0
C555 C 0.98729 0.7119 0.25503 0.0
C556 C 0.95992 0.70048 0.27514 0.0
C557 C 0.02109 0.70236 0.2624 0.0
C558 C 0.02837 0.68173 0.29026 0.0
C559 C 0.00118 0.6683 0.30916 0.0
C560 C 0.96722 0.67767 0.3017 0.0
C561 C 0.06446 0.67751 0.3012 0.0
C562 C 0.07905 0.64364 0.30281 0.0
C563 C 0.08506 0.70741 0.3081 0.0
C564 C 0.07057 0.74372 0.30882 0.0
C565 C 0.04241 0.75185 0.32929 0.0
C566 C 0.02844 0.78587 0.3294 0.0
C567 C 0.04259 0.8121 0.30933 0.0
C568 C 0.0708 0.80438 0.28917 0.0
C569 C 0.0848 0.77037 0.2889 0.0
H570 H 0.03174 0.83843 0.30945 0.0
H571 H 0.15937 0.50581 0.32289 0.0
H572 H 0.71956 0.08027 0.81072 0.0
H573 H 0.69244 0.02301 0.80111 0.0
H574 H 0.72686 0.02504 0.69999 0.0
H575 H 0.75438 0.08217 0.70943 0.0
H576 H 0.64643 0.98897 0.75934 0.0
H577 H 0.76802 0.94481 0.68712 0.0
H578 H 0.82889 0.96245 0.681 0.0
H579 H 0.8272 0.00923 0.77746 0.0
H580 H 0.76684 0.99064 0.7847 0.0
H581 H 0.64778 0.80887 0.68776 0.0
H582 H 0.64299 0.87229 0.70022 0.0
H583 H 0.71221 0.85898 0.78247 0.0
H584 H 0.71716 0.79627 0.77003 0.0
H585 H 0.73737 0.90176 0.7319 0.0
H586 H 0.63973 0.88788 0.8009 0.0
H587 H 0.58117 0.87431 0.82057 0.0
H588 H 0.53824 0.94217 0.74638 0.0
H589 H 0.59661 0.95607 0.72611 0.0
C590 C 0.72075 0.0689 0.78622 0.0
C591 C 0.73992 0.08526 0.76105 0.0
C592 C 0.70493 0.03631 0.78071 0.0
C593 C 0.70818 0.01955 0.75002 0.0
C594 C 0.72441 0.03743 0.72397 0.0
C595 C 0.74021 0.07003 0.72944 0.0
C596 C 0.69984 0.98153 0.74693 0.0
C597 C 0.66609 0.96982 0.75287 0.0
C598 C 0.72593 0.95657 0.73981 0.0
C599 C 0.76269 0.96682 0.73618 0.0
C600 C 0.78072 0.95863 0.70711 0.0
C601 C 0.81518 0.96869 0.7035 0.0
C602 C 0.8319 0.98695 0.72882 0.0
C603 C 0.81426 0.99499 0.7579 0.0
C604 C 0.77994 0.98465 0.76179 0.0
C605 C 0.66085 0.81933 0.70916 0.0
C606 C 0.68327 0.79793 0.7276 0.0
C607 C 0.65808 0.85551 0.71632 0.0
C608 C 0.67762 0.87034 0.74203 0.0
C609 C 0.6971 0.84811 0.76242 0.0
C610 C 0.69998 0.81231 0.75522 0.0
C611 C 0.68369 0.90891 0.74381 0.0
C612 C 0.71733 0.92079 0.73761 0.0
C613 C 0.65773 0.93366 0.75182 0.0
C614 C 0.62257 0.92267 0.76171 0.0
C615 C 0.61782 0.89939 0.78834 0.0
C616 C 0.58466 0.89192 0.79981 0.0
C617 C 0.55605 0.90757 0.78488 0.0
C618 C 0.56046 0.93022 0.75803 0.0
C619 C 0.59358 0.93791 0.74654 0.0
H620 H 0.53044 0.90212 0.79409 0.0
H621 H 0.85852 0.99482 0.72592 0.0
H622 H 0.78793 0.28793 0.34877 0.0
H623 H 0.84588 0.31198 0.34234 0.0
H624 H 0.81844 0.35221 0.24619 0.0
H625 H 0.76069 0.32675 0.25235 0.0
H626 H 0.87173 0.31152 0.24149 0.0
H627 H 0.85153 0.41339 0.30756 0.0
H628 H 0.82544 0.4456 0.35437 0.0
H629 H 0.88037 0.37937 0.4224 0.0
H630 H 0.90669 0.34704 0.37599 0.0
H631 H 0.05148 0.3232 0.22896 0.0
H632 H 0.99418 0.34971 0.23276 0.0
H633 H 0.98109 0.30402 0.32944 0.0
H634 H 0.03842 0.2782 0.32614 0.0
H635 H 0.94778 0.36646 0.32543 0.0
H636 H 0.95785 0.25846 0.25853 0.0
H637 H 0.98224 0.22492 0.21182 0.0
H638 H 0.94467 0.30317 0.14414 0.0
H639 H 0.92039 0.33737 0.19056 0.0
C640 C 0.794 0.30314 0.32691 0.0
C641 C 0.77001 0.30621 0.30132 0.0
C642 C 0.82703 0.31712 0.32325 0.0
C643 C 0.83653 0.33436 0.29389 0.0
C644 C 0.81168 0.33926 0.26911 0.0
C645 C 0.77872 0.32497 0.2727 0.0
C646 C 0.87354 0.34099 0.28703 0.0
C647 C 0.88821 0.32468 0.25927 0.0
C648 C 0.89524 0.35768 0.31029 0.0
C649 C 0.88082 0.37782 0.33837 0.0
C650 C 0.85789 0.40581 0.33257 0.0
C651 C 0.84321 0.42414 0.35898 0.0
C652 C 0.85136 0.41464 0.39133 0.0
C653 C 0.87428 0.38691 0.39733 0.0
C654 C 0.88922 0.36869 0.37098 0.0
C655 C 0.03659 0.31922 0.2512 0.0
C656 C 0.04907 0.29773 0.27687 0.0
C657 C 0.00394 0.33459 0.25343 0.0
C658 C 0.98308 0.32815 0.28107 0.0
C659 C 0.9967 0.30928 0.30783 0.0
C660 C 0.02946 0.29434 0.30582 0.0
C661 C 0.94573 0.33607 0.28051 0.0
C662 C 0.93111 0.35479 0.30693 0.0
C663 C 0.92398 0.32167 0.2559 0.0
C664 C 0.93763 0.3006 0.22797 0.0
C665 C 0.95487 0.26851 0.23368 0.0
C666 C 0.96869 0.24942 0.20728 0.0
C667 C 0.96508 0.26196 0.17504 0.0
C668 C 0.94749 0.29353 0.16913 0.0
C669 C 0.93368 0.31277 0.19546 0.0
H670 H 0.97585 0.24718 0.15464 0.0
H671 H 0.84 0.42883 0.41173 0.0
H672 H 0.74948 0.57204 0.67271 0.0
H673 H 0.77083 0.512 0.68077 0.0
H674 H 0.75929 0.52351 0.78601 0.0
H675 H 0.73684 0.58345 0.77815 0.0
H676 H 0.82341 0.48972 0.76389 0.0
H677 H 0.69994 0.48278 0.74977 0.0
H678 H 0.64489 0.49353 0.72111 0.0
H679 H 0.68203 0.43745 0.63621 0.0
H680 H 0.73766 0.42709 0.66406 0.0
H681 H 0.81688 0.31156 0.81843 0.0
H682 H 0.81609 0.37454 0.80574 0.0
H683 H 0.79746 0.35043 0.70312 0.0
H684 H 0.79584 0.28763 0.71655 0.0
H685 H 0.75138 0.39186 0.72143 0.0
H686 H 0.87337 0.395 0.7343 0.0
H687 H 0.92961 0.38473 0.76087 0.0
H688 H 0.89869 0.44764 0.84377 0.0
H689 H 0.84211 0.45815 0.8179 0.0
C690 C 0.75172 0.56199 0.69763 0.0
C691 C 0.74102 0.58237 0.72481 0.0
C692 C 0.76382 0.52761 0.70215 0.0
C693 C 0.76622 0.51324 0.73395 0.0
C694 C 0.75742 0.53413 0.76127 0.0
C695 C 0.74467 0.56836 0.75673 0.0
C696 C 0.77666 0.47594 0.73848 0.0
C697 C 0.80765 0.46827 0.75481 0.0
C698 C 0.75652 0.44804 0.72577 0.0
C699 C 0.72311 0.45444 0.70891 0.0
C700 C 0.69653 0.47307 0.72486 0.0
C701 C 0.66519 0.47903 0.70878 0.0
C702 C 0.65995 0.46612 0.67689 0.0
C703 C 0.68609 0.44733 0.66096 0.0
C704 C 0.71756 0.44148 0.67685 0.0
C705 C 0.81429 0.31975 0.793 0.0
C706 C 0.80717 0.2949 0.76834 0.0
C707 C 0.81369 0.35584 0.78567 0.0
C708 C 0.80671 0.3675 0.75336 0.0
C709 C 0.80265 0.34228 0.72825 0.0
C710 C 0.80219 0.30638 0.7358 0.0
C711 C 0.79864 0.40527 0.74665 0.0
C712 C 0.76773 0.41317 0.73005 0.0
C713 C 0.81924 0.43334 0.75863 0.0
C714 C 0.85332 0.42712 0.77425 0.0
C715 C 0.87843 0.40644 0.75831 0.0
C716 C 0.9104 0.40059 0.77322 0.0
C717 C 0.91766 0.41536 0.80402 0.0
C718 C 0.89301 0.43616 0.81993 0.0
C719 C 0.861 0.44215 0.80512 0.0
H720 H 0.94243 0.41076 0.81551 0.0
H721 H 0.63565 0.4707 0.66453 0.0
H722 H 0.28346 0.20676 0.15336 0.0
H723 H 0.34173 0.18246 0.15906 0.0
H724 H 0.31887 0.15217 0.2594 0.0
H725 H 0.26105 0.17759 0.25383 0.0
H726 H 0.37223 0.19349 0.25755 0.0
H727 H 0.3408 0.08871 0.19843 0.0
H728 H 0.3183 0.05088 0.15363 0.0
H729 H 0.38618 0.10055 0.08451 0.0
H730 H 0.40969 0.13822 0.1287 0.0
H731 H 0.54891 0.16587 0.27687 0.0
H732 H 0.48898 0.14618 0.27339 0.0
H733 H 0.48497 0.1792 0.1716 0.0
H734 H 0.54494 0.19808 0.17468 0.0
H735 H 0.44421 0.12292 0.18093 0.0
H736 H 0.46333 0.23646 0.23384 0.0
H737 H 0.49081 0.27436 0.27577 0.0
H738 H 0.445 0.21253 0.35291 0.0
H739 H 0.41758 0.17393 0.31133 0.0
C740 C 0.2908 0.19407 0.17626 0.0
C741 C 0.26826 0.19392 0.20321 0.0
C742 C 0.32388 0.17987 0.17946 0.0
C743 C 0.33467 0.16524 0.20964 0.0
C744 C 0.31112 0.16322 0.23589 0.0
C745 C 0.27823 0.17774 0.23277 0.0
C746 C 0.37178 0.15834 0.21561 0.0
C747 C 0.38772 0.17713 0.24132 0.0
C748 C 0.39228 0.13793 0.19389 0.0
C749 C 0.37699 0.11639 0.16697 0.0
C750 C 0.3507 0.09186 0.17363 0.0
C751 C 0.33786 0.07035 0.14841 0.0
C752 C 0.35065 0.07348 0.11637 0.0
C753 C 0.37634 0.09812 0.10939 0.0
C754 C 0.38961 0.11939 0.13454 0.0
C755 C 0.53536 0.16848 0.25364 0.0
C756 C 0.55125 0.18444 0.22628 0.0
C757 C 0.50122 0.157 0.25162 0.0
C758 C 0.48228 0.16199 0.22245 0.0
C759 C 0.49903 0.17517 0.19438 0.0
C760 C 0.53328 0.18614 0.19624 0.0
C761 C 0.44423 0.15858 0.22226 0.0
C762 C 0.4283 0.13821 0.19766 0.0
C763 C 0.42358 0.17809 0.24452 0.0
C764 C 0.43876 0.2021 0.26952 0.0
C765 C 0.45917 0.23093 0.25975 0.0
C766 C 0.47476 0.25249 0.28343 0.0
C767 C 0.46979 0.24572 0.31697 0.0
C768 C 0.44891 0.21762 0.3269 0.0
C769 C 0.43333 0.19591 0.30329 0.0
H770 H 0.48214 0.26224 0.33524 0.0
H771 H 0.3408 0.0566 0.09703 0.0
H772 H 0.22148 0.72738 0.72738 0.0
H773 H 0.22078 0.66539 0.71132 0.0
H774 H 0.16051 0.64059 0.79772 0.0
H775 H 0.16003 0.70332 0.81302 0.0
H776 H 0.25388 0.62117 0.74636 0.0
H777 H 0.12398 0.56012 0.78961 0.0
H778 H 0.06204 0.57491 0.78804 0.0
H779 H 0.07855 0.63941 0.70242 0.0
H780 H 0.14046 0.62536 0.7037 0.0
H781 H 0.28737 0.44604 0.78194 0.0
H782 H 0.26267 0.505 0.7874 0.0
H783 H 0.19972 0.48684 0.7014 0.0
H784 H 0.22399 0.42755 0.69594 0.0
H785 H 0.16516 0.52701 0.74591 0.0
H786 H 0.27477 0.52785 0.69346 0.0
H787 H 0.33664 0.5155 0.68578 0.0
H788 H 0.36028 0.5747 0.77321 0.0
H789 H 0.2985 0.58648 0.78202 0.0
C790 C 0.20699 0.70885 0.74227 0.0
C791 C 0.191 0.71994 0.77154 0.0
C792 C 0.20668 0.67341 0.73314 0.0
C793 C 0.19112 0.64811 0.75355 0.0
C794 C 0.17253 0.65957 0.78141 0.0
C795 C 0.17224 0.69541 0.79022 0.0
C796 C 0.19945 0.61011 0.74861 0.0
C797 C 0.23435 0.6007 0.74616 0.0
C798 C 0.17412 0.58329 0.7477 0.0
C799 C 0.13689 0.59192 0.74696 0.0
C800 C 0.11436 0.57749 0.77049 0.0
C801 C 0.07926 0.58588 0.76972 0.0
C802 C 0.06637 0.60835 0.74531 0.0
C803 C 0.08855 0.62242 0.72159 0.0
C804 C 0.12367 0.61435 0.7224 0.0
C805 C 0.26783 0.45429 0.76449 0.0
C806 C 0.258 0.43224 0.73825 0.0
C807 C 0.25379 0.48808 0.76759 0.0
C808 C 0.22981 0.50062 0.74441 0.0
C809 C 0.21827 0.47784 0.71945 0.0
C810 C 0.23231 0.44398 0.71631 0.0
C811 C 0.21955 0.5384 0.74452 0.0
C812 C 0.18449 0.54766 0.74608 0.0
C813 C 0.24469 0.56542 0.74344 0.0
C814 C 0.28191 0.55776 0.73858 0.0
C815 C 0.29311 0.53784 0.7113 0.0
C816 C 0.32818 0.53094 0.70675 0.0
C817 C 0.35236 0.54422 0.72905 0.0
C818 C 0.34152 0.56427 0.75605 0.0
C819 C 0.30647 0.57103 0.76086 0.0
H820 H 0.37952 0.53919 0.72531 0.0
H821 H 0.0392 0.61474 0.74469 0.0
H822 H 0.48148 0.79558 0.27074 0.0
H823 H 0.53651 0.82384 0.26306 0.0
H824 H 0.50139 0.86932 0.1716 0.0
H825 H 0.44518 0.84182 0.17932 0.0
H826 H 0.55579 0.82608 0.16339 0.0
H827 H 0.53078 0.92388 0.23013 0.0
H828 H 0.50869 0.95768 0.27756 0.0
H829 H 0.58068 0.90551 0.34153 0.0
H830 H 0.6027 0.87078 0.29471 0.0
H831 H 0.73532 0.81922 0.15177 0.0
H832 H 0.68071 0.85169 0.15122 0.0
H833 H 0.66415 0.82252 0.25304 0.0
H834 H 0.72036 0.79372 0.25422 0.0
H835 H 0.63498 0.88297 0.24329 0.0
H836 H 0.6364 0.76949 0.18156 0.0
H837 H 0.65758 0.73179 0.13616 0.0
H838 H 0.62855 0.81104 0.06567 0.0
H839 H 0.6074 0.84924 0.11074 0.0
C840 C 0.48439 0.81264 0.2496 0.0
C841 C 0.45847 0.8158 0.22541 0.0
C842 C 0.51626 0.82902 0.24531 0.0
C843 C 0.5231 0.84873 0.21676 0.0
C844 C 0.49661 0.85428 0.19386 0.0
C845 C 0.46454 0.83822 0.19827 0.0
C846 C 0.55933 0.8567 0.20809 0.0
C847 C 0.57298 0.83959 0.18032 0.0
C848 C 0.58177 0.87407 0.23026 0.0
C849 C 0.5684 0.89463 0.25876 0.0
C850 C 0.54173 0.91935 0.25434 0.0
C851 C 0.52922 0.93872 0.28115 0.0
C852 C 0.54327 0.93376 0.31254 0.0
C853 C 0.56984 0.90938 0.31719 0.0
C854 C 0.58237 0.88985 0.2905 0.0
C855 C 0.72081 0.82163 0.17434 0.0
C856 C 0.73228 0.80508 0.20321 0.0
C857 C 0.68928 0.83948 0.17394 0.0
C858 C 0.66792 0.83911 0.20195 0.0
C859 C 0.68012 0.82347 0.23114 0.0
C860 C 0.71201 0.80662 0.23174 0.0
C861 C 0.63119 0.84993 0.20022 0.0
C862 C 0.61754 0.87073 0.22579 0.0
C863 C 0.60854 0.83539 0.17644 0.0
C864 C 0.62067 0.81225 0.14941 0.0
C865 C 0.6346 0.77881 0.15635 0.0
C866 C 0.6466 0.7574 0.13071 0.0
C867 C 0.64449 0.76905 0.09806 0.0
C868 C 0.63022 0.80208 0.09097 0.0
C869 C 0.6182 0.8236 0.11653 0.0
H870 H 0.65383 0.75246 0.07825 0.0
H871 H 0.53357 0.9488 0.33326 0.0
H872 H 0.78832 0.41355 0.30278 0.0
H873 H 0.82071 0.46776 0.29072 0.0
H874 H 0.74153 0.49946 0.22209 0.0
H875 H 0.71051 0.44487 0.2326 0.0
H876 H 0.79781 0.52056 0.19855 0.0
H877 H 0.74791 0.52554 0.30898 0.0
H878 H 0.7401 0.50859 0.3673 0.0
H879 H 0.84784 0.52538 0.38526 0.0
H880 H 0.85642 0.54161 0.32699 0.0
H881 H 0.77016 0.70368 0.26157 0.0
H882 H 0.77852 0.64171 0.27343 0.0
H883 H 0.86062 0.63713 0.2017 0.0
H884 H 0.85115 0.69987 0.18881 0.0
H885 H 0.82298 0.59768 0.29438 0.0
H886 H 0.85609 0.5567 0.16407 0.0
H887 H 0.85505 0.58026 0.10726 0.0
H888 H 0.76562 0.64219 0.13067 0.0
H889 H 0.76603 0.61873 0.18748 0.0
C890 C 0.77829 0.43192 0.28473 0.0
C891 C 0.74686 0.42504 0.26878 0.0
C892 C 0.79667 0.46295 0.27796 0.0
C893 C 0.78339 0.48819 0.25589 0.0
C894 C 0.75258 0.48056 0.23913 0.0
C895 C 0.73468 0.44929 0.2453 0.0
C896 C 0.79968 0.52363 0.25167 0.0
C897 C 0.80369 0.53721 0.2196 0.0
C898 C 0.80787 0.54559 0.27891 0.0
C899 C 0.80289 0.53432 0.31357 0.0
C900 C 0.77 0.52514 0.32531 0.0
C901 C 0.76544 0.51569 0.35836 0.0
C902 C 0.79348 0.51584 0.37998 0.0
C903 C 0.82618 0.52512 0.36852 0.0
C904 C 0.83093 0.53436 0.33548 0.0
C905 C 0.79041 0.68971 0.24858 0.0
C906 C 0.80951 0.70647 0.2237 0.0
C907 C 0.7954 0.65418 0.25563 0.0
C908 C 0.81973 0.6343 0.23805 0.0
C909 C 0.84117 0.65169 0.21517 0.0
C910 C 0.83594 0.6876 0.20791 0.0
C911 C 0.81883 0.59512 0.24148 0.0
C912 C 0.81815 0.58063 0.27336 0.0
C913 C 0.81238 0.57273 0.2142 0.0
C914 C 0.81135 0.58628 0.17998 0.0
C915 C 0.83617 0.57525 0.15699 0.0
C916 C 0.8357 0.5886 0.12484 0.0
C917 C 0.81035 0.61279 0.11539 0.0
C918 C 0.78529 0.62353 0.13803 0.0
C919 C 0.78562 0.61021 0.17019 0.0
H920 H 0.81009 0.62317 0.09052 0.0
H921 H 0.78984 0.5091 0.40564 0.0
H922 H 0.48047 0.20158 0.71317 0.0
H923 H 0.53523 0.17136 0.71876 0.0
H924 H 0.50091 0.1239 0.80963 0.0
H925 H 0.44536 0.15334 0.8039 0.0
H926 H 0.55293 0.17081 0.81799 0.0
H927 H 0.53274 0.07083 0.75348 0.0
H928 H 0.51319 0.03414 0.70694 0.0
H929 H 0.58527 0.08574 0.64279 0.0
H930 H 0.60475 0.12338 0.68867 0.0
H931 H 0.73233 0.18009 0.83518 0.0
H932 H 0.67776 0.14734 0.83391 0.0
H933 H 0.66371 0.17756 0.73204 0.0
H934 H 0.71925 0.20769 0.73283 0.0
H935 H 0.636 0.115 0.7411 0.0
H936 H 0.63311 0.22924 0.80023 0.0
H937 H 0.65163 0.26898 0.84513 0.0
H938 H 0.62103 0.19184 0.91699 0.0
H939 H 0.60258 0.15158 0.87242 0.0
C940 C 0.4836 0.18342 0.73353 0.0
C941 C 0.45856 0.18058 0.75851 0.0
C942 C 0.51516 0.16597 0.73665 0.0
C943 C 0.52226 0.14562 0.76479 0.0
C944 C 0.49595 0.13952 0.78776 0.0
C945 C 0.46431 0.15669 0.78454 0.0
C946 C 0.55861 0.1392 0.77407 0.0
C947 C 0.57098 0.1575 0.80174 0.0
C948 C 0.58214 0.12221 0.75271 0.0
C949 C 0.57014 0.10012 0.72465 0.0
C950 C 0.5442 0.07468 0.72939 0.0
C951 C 0.53315 0.05365 0.7031 0.0
C952 C 0.54794 0.05764 0.67191 0.0
C953 C 0.57386 0.08264 0.66697 0.0
C954 C 0.58493 0.10384 0.69314 0.0
C955 C 0.71801 0.17849 0.81236 0.0
C956 C 0.72995 0.19571 0.784 0.0
C957 C 0.6868 0.16008 0.81163 0.0
C958 C 0.66639 0.1603 0.78295 0.0
C959 C 0.67904 0.17669 0.75436 0.0
C960 C 0.7105 0.19432 0.75492 0.0
C961 C 0.62993 0.14865 0.78352 0.0
C962 C 0.61767 0.12699 0.7579 0.0
C963 C 0.60622 0.16303 0.80638 0.0
C964 C 0.61687 0.18734 0.83309 0.0
C965 C 0.63045 0.22079 0.82562 0.0
C966 C 0.64093 0.24337 0.85099 0.0
C967 C 0.63761 0.2329 0.88389 0.0
C968 C 0.62366 0.19988 0.8915 0.0
C969 C 0.61318 0.17718 0.86621 0.0
H970 H 0.64576 0.2504 0.9035 0.0
H971 H 0.53936 0.04132 0.65159 0.0
H972 H 0.24548 0.56151 0.31993 0.0
H973 H 0.22055 0.50352 0.30894 0.0
H974 H 0.23016 0.52096 0.20443 0.0
H975 H 0.25634 0.57873 0.21508 0.0
H976 H 0.16877 0.48563 0.22109 0.0
H977 H 0.29039 0.47672 0.24368 0.0
H978 H 0.34345 0.4859 0.27602 0.0
H979 H 0.30016 0.42743 0.3567 0.0
H980 H 0.24648 0.41868 0.32516 0.0
H981 H 0.18149 0.30624 0.16499 0.0
H982 H 0.17984 0.36939 0.17779 0.0
H983 H 0.1873 0.34527 0.28164 0.0
H984 H 0.1915 0.28257 0.26844 0.0
H985 H 0.23613 0.38573 0.2668 0.0
H986 H 0.11475 0.39251 0.24413 0.0
H987 H 0.06122 0.38414 0.21224 0.0
H988 H 0.10345 0.44414 0.13212 0.0
H989 H 0.15714 0.45318 0.16359 0.0
C990 C 0.24196 0.55328 0.29456 0.0
C991 C 0.25353 0.57449 0.26839 0.0
C992 C 0.22756 0.52016 0.28837 0.0
C993 C 0.22366 0.5078 0.25597 0.0
C994 C 0.2329 0.52994 0.22967 0.0
C995 C 0.24797 0.5629 0.23582 0.0
C996 C 0.21305 0.47065 0.24982 0.0
C997 C 0.18354 0.46367 0.23085 0.0
C998 C 0.23194 0.44205 0.26316 0.0
C999 C 0.26426 0.44735 0.28217 0.0
C1000 C 0.29204 0.46611 0.26844 0.0
C1001 C 0.32225 0.47122 0.28662 0.0
C1002 C 0.32516 0.45728 0.3184 0.0
C1003 C 0.29789 0.43816 0.33206 0.0
C1004 C 0.26753 0.43321 0.31407 0.0
C1005 C 0.18114 0.3145 0.19058 0.0
C1006 C 0.18581 0.28962 0.21581 0.0
C1007 C 0.18023 0.35067 0.19796 0.0
C1008 C 0.18345 0.36241 0.23079 0.0
C1009 C 0.18488 0.3371 0.25613 0.0
C1010 C 0.18671 0.30115 0.24866 0.0
C1011 C 0.1913 0.40018 0.23834 0.0
C1012 C 0.22075 0.40742 0.25739 0.0
C1013 C 0.17225 0.42882 0.22513 0.0
C1014 C 0.14007 0.42328 0.20612 0.0
C1015 C 0.11271 0.40372 0.21963 0.0
C1016 C 0.08232 0.3989 0.20166 0.0
C1017 C 0.07904 0.41335 0.17011 0.0
C1018 C 0.10605 0.43291 0.15654 0.0
C1019 C 0.1364 0.43803 0.17449 0.0
H1020 H 0.05551 0.40951 0.15623 0.0
H1021 H 0.34856 0.46127 0.33244 0.0
H1022 H 0.27743 0.80627 0.84809 0.0
H1023 H 0.33481 0.83235 0.84259 0.0
H1024 H 0.3088 0.86842 0.7446 0.0
H1025 H 0.25249 0.84004 0.74946 0.0
H1026 H 0.36051 0.82938 0.74067 0.0
H1027 H 0.33419 0.92557 0.81098 0.0
H1028 H 0.31488 0.95969 0.85947 0.0
H1029 H 0.38747 0.9052 0.92065 0.0
H1030 H 0.40733 0.87055 0.87289 0.0
H1031 H 0.54045 0.83943 0.72424 0.0
H1032 H 0.48241 0.86456 0.72721 0.0
H1033 H 0.4726 0.82686 0.82726 0.0
H1034 H 0.53063 0.80298 0.82485 0.0
H1035 H 0.43869 0.88581 0.8216 0.0
H1036 H 0.44686 0.77663 0.75631 0.0
H1037 H 0.46904 0.74176 0.70942 0.0
H1038 H 0.42907 0.81857 0.64157 0.0
H1039 H 0.40697 0.85408 0.68815 0.0
C1040 C 0.28374 0.82089 0.82594 0.0
C1041 C 0.26076 0.82171 0.79934 0.0
C1042 C 0.3164 0.83609 0.82283 0.0
C1043 C 0.32625 0.85255 0.79315 0.0
C1044 C 0.30191 0.85586 0.76768 0.0
C1045 C 0.26973 0.83984 0.77049 0.0
C1046 C 0.36327 0.85906 0.78614 0.0
C1047 C 0.37733 0.84277 0.758 0.0
C1048 C 0.38556 0.87579 0.80895 0.0
C1049 C 0.37242 0.89548 0.83813 0.0
C1050 C 0.34593 0.92061 0.83477 0.0
C1051 C 0.33491 0.94012 0.86211 0.0
C1052 C 0.35 0.93473 0.89295 0.0
C1053 C 0.37596 0.90953 0.89667 0.0
C1054 C 0.38717 0.89 0.86946 0.0
C1055 C 0.52593 0.83668 0.7469 0.0
C1056 C 0.5397 0.81832 0.77404 0.0
C1057 C 0.49287 0.85126 0.74864 0.0
C1058 C 0.47279 0.84682 0.77719 0.0
C1059 C 0.4875 0.83062 0.80494 0.0
C1060 C 0.52067 0.81673 0.80345 0.0
C1061 C 0.43535 0.85466 0.77736 0.0
C1062 C 0.42137 0.87356 0.804 0.0
C1063 C 0.41294 0.83981 0.75361 0.0
C1064 C 0.42562 0.81815 0.72565 0.0
C1065 C 0.4429 0.7861 0.73138 0.0
C1066 C 0.45547 0.76625 0.70488 0.0
C1067 C 0.45057 0.778 0.67254 0.0
C1068 C 0.43292 0.80955 0.66664 0.0
C1069 C 0.42037 0.82954 0.69306 0.0
H1070 H 0.46037 0.76264 0.65206 0.0
H1071 H 0.34154 0.95006 0.91398 0.0
H1072 H 0.13663 0.06816 0.18613 0.0
H1073 H 0.0959 0.0195 0.19031 0.0
H1074 H 0.013 0.09342 0.20628 0.0
H1075 H 0.05388 0.14254 0.20283 0.0
H1076 H 0.00701 0.03879 0.24713 0.0
H1077 H 0.02479 0.0526 0.13112 0.0
H1078 H 0.05845 0.05799 0.07979 0.0
H1079 H 0.10122 0.95478 0.09532 0.0
H1080 H 0.06816 0.94896 0.14702 0.0
H1081 H 0.86815 0.92424 0.20609 0.0
H1082 H 0.91104 0.97125 0.20811 0.0
H1083 H 0.99249 0.89392 0.20404 0.0
H1084 H 0.94956 0.84641 0.20215 0.0
H1085 H -4e-05 0.94907 0.15816 0.0
H1086 H 0.97925 0.93542 0.27402 0.0
H1087 H 0.94354 0.93087 0.32412 0.0
H1088 H 0.90373 0.03506 0.3071 0.0
H1089 H 0.93886 0.04005 0.25661 0.0
C1090 C 0.10973 0.07422 0.19045 0.0
C1091 C 0.09854 0.10939 0.19391 0.0
C1092 C 0.08642 0.04627 0.19275 0.0
C1093 C 0.05126 0.05274 0.19811 0.0
C1094 C 0.04 0.08776 0.20205 0.0
C1095 C 0.06339 0.11583 0.19997 0.0
C1096 C 0.02637 0.0229 0.19958 0.0
C1097 C 0.00519 0.01945 0.22747 0.0
C1098 C 0.02443 0.99716 0.17426 0.0
C1099 C 0.04426 1.0005 0.14312 0.0
C1100 C 0.04158 0.03116 0.12373 0.0
C1101 C 0.06051 0.03428 0.09454 0.0
C1102 C 0.08203 0.00679 0.08435 0.0
C1103 C 0.08458 0.97607 0.10328 0.0
C1104 C 0.06573 0.97284 0.13251 0.0
C1105 C 0.89518 0.91711 0.2059 0.0
C1106 C 0.90543 0.88152 0.20388 0.0
C1107 C 0.91967 0.94406 0.20718 0.0
C1108 C 0.95494 0.93609 0.20633 0.0
C1109 C 0.96536 0.90061 0.20475 0.0
C1110 C 0.94082 0.87351 0.20384 0.0
C1111 C 0.98072 0.96503 0.20567 0.0
C1112 C 0.00198 0.96835 0.17787 0.0
C1113 C 0.98248 0.9908 0.2309 0.0
C1114 C 0.96147 0.98798 0.26136 0.0
C1115 C 0.96268 0.95726 0.28081 0.0
C1116 C 0.94258 0.95462 0.30931 0.0
C1117 C 0.92132 0.98263 0.31875 0.0
C1118 C 0.92019 0.01337 0.29975 0.0
C1119 C 0.94022 0.01614 0.2712 0.0
H1120 H 0.90577 0.98053 0.34082 0.0
H1121 H 0.09667 0.00925 0.06175 0.0
H1122 H 0.86239 0.08469 0.76179 0.0
H1123 H 0.90213 0.03518 0.7556 0.0
H1124 H 0.98556 0.10039 0.79083 0.0
H1125 H 0.94605 0.15067 0.79535 0.0
H1126 H 0.00924 0.05871 0.74607 0.0
H1127 H 0.9374 0.04075 0.84159 0.0
H1128 H 0.88256 0.03443 0.87173 0.0
H1129 H 0.85604 0.94477 0.81209 0.0
H1130 H 0.91042 0.951 0.78114 0.0
H1131 H 0.12048 0.93103 0.81285 0.0
H1132 H 0.07933 0.97833 0.80366 0.0
H1133 H 0.00862 0.90458 0.75915 0.0
H1134 H 0.04976 0.85642 0.7688 0.0
H1135 H 0.97673 0.94775 0.80312 0.0
H1136 H 0.05322 0.96349 0.71152 0.0
H1137 H 0.10986 0.96976 0.68464 0.0
H1138 H 0.12956 0.06382 0.74066 0.0
H1139 H 0.07322 0.05787 0.76822 0.0
C1140 C 0.88934 0.0886 0.76774 0.0
C1141 C 0.90114 0.12144 0.77932 0.0
C1142 C 0.912 0.06019 0.76442 0.0
C1143 C 0.9467 0.06364 0.77368 0.0
C1144 C 0.95887 0.09694 0.78371 0.0
C1145 C 0.93632 0.12568 0.78629 0.0
C1146 C 0.96991 0.03231 0.77427 0.0
C1147 C 0.00219 0.03458 0.75878 0.0
C1148 C 0.96053 1.00036 0.7902 0.0
C1149 C 0.92783 0.99656 0.80884 0.0
C1150 C 0.91976 0.01985 0.83475 0.0
C1151 C 0.88876 0.01627 0.85198 0.0
C1152 C 0.86581 0.98925 0.84379 0.0
C1153 C 0.87386 0.96568 0.81841 0.0
C1154 C 0.90473 0.96926 0.80098 0.0
C1155 C 0.09627 0.92466 0.80097 0.0
C1156 C 0.08852 0.88978 0.79151 0.0
C1157 C 0.07281 0.95191 0.79555 0.0
C1158 C 0.04111 0.94516 0.78023 0.0
C1159 C 0.03306 0.91041 0.77083 0.0
C1160 C 0.05662 0.88294 0.7763 0.0
C1161 C 0.01611 0.97441 0.77531 0.0
C1162 C 0.98353 0.97174 0.79004 0.0
C1163 C 0.02538 0.0061 0.75905 0.0
C1164 C 0.05905 0.0101 0.74207 0.0
C1165 C 0.0697 0.98542 0.71823 0.0
C1166 C 0.10175 0.98893 0.70286 0.0
C1167 C 0.12332 0.01714 0.71097 0.0
C1168 C 0.11283 0.04198 0.7344 0.0
C1169 C 0.08081 0.03858 0.74986 0.0
H1170 H 0.14815 0.01978 0.69908 0.0
H1171 H 0.84181 0.98655 0.85714 0.0
H1172 H 0.62698 0.58351 0.70486 0.0
H1173 H 0.58661 0.53487 0.71071 0.0
H1174 H 0.50308 0.60876 0.72349 0.0
H1175 H 0.54369 0.65811 0.71803 0.0
H1176 H 0.49624 0.55175 0.76445 0.0
H1177 H 0.51454 0.57179 0.65054 0.0
H1178 H 0.54699 0.58134 0.59908 0.0
H1179 H 0.59279 0.47858 0.60825 0.0
H1180 H 0.56127 0.46876 0.66023 0.0
H1181 H 0.36474 0.42954 0.7163 0.0
H1182 H 0.40406 0.47939 0.72133 0.0
H1183 H 0.49088 0.40852 0.71716 0.0
H1184 H 0.45158 0.35808 0.71217 0.0
H1185 H 0.49433 0.46524 0.67248 0.0
H1186 H 0.47094 0.44658 0.78783 0.0
H1187 H 0.43333 0.43912 0.83631 0.0
H1188 H 0.39085 0.54243 0.82079 0.0
H1189 H 0.42781 0.55032 0.77183 0.0
C1190 C 0.60007 0.58961 0.70911 0.0
C1191 C 0.58849 0.6248 0.71055 0.0
C1192 C 0.57701 0.56167 0.71245 0.0
C1193 C 0.54176 0.56818 0.71695 0.0
C1194 C 0.53019 0.60319 0.71991 0.0
C1195 C 0.5534 0.63134 0.71672 0.0
C1196 C 0.51712 0.53823 0.71687 0.0
C1197 C 0.4955 0.53305 0.74419 0.0
C1198 C 0.5163 0.51373 0.69049 0.0
C1199 C 0.53576 0.51967 0.65946 0.0
C1200 C 0.53184 0.55138 0.64179 0.0
C1201 C 0.55004 0.55684 0.6125 0.0
C1202 C 0.57198 0.53063 0.60042 0.0
C1203 C 0.57581 0.4989 0.61764 0.0
C1204 C 0.55782 0.49339 0.64705 0.0
C1205 C 0.3922 0.42441 0.71672 0.0
C1206 C 0.40507 0.38979 0.71367 0.0
C1207 C 0.41461 0.45299 0.71979 0.0
C1208 C 0.45033 0.44765 0.71978 0.0
C1209 C 0.46334 0.41313 0.7173 0.0
C1210 C 0.44088 0.38437 0.71456 0.0
C1211 C 0.47399 0.47832 0.72032 0.0
C1212 C 0.49526 0.48379 0.69287 0.0
C1213 C 0.47384 0.50339 0.74624 0.0
C1214 C 0.4519 0.49887 0.77592 0.0
C1215 C 0.45336 0.46759 0.79456 0.0
C1216 C 0.43219 0.46331 0.82215 0.0
C1217 C 0.40961 0.49023 0.83153 0.0
C1218 C 0.40828 0.52157 0.81341 0.0
C1219 C 0.42936 0.52597 0.78576 0.0
H1220 H 0.39323 0.48687 0.8529 0.0
H1221 H 0.58593 0.5349 0.57767 0.0
H1222 H 0.55116 0.34429 0.29206 0.0
H1223 H 0.51022 0.39322 0.2857 0.0
H1224 H 0.59475 0.46488 0.2685 0.0
H1225 H 0.63546 0.4167 0.27606 0.0
H1226 H 0.5541 0.49222 0.3116 0.0
H1227 H 0.53664 0.43627 0.20591 0.0
H1228 H 0.52309 0.38652 0.16887 0.0
H1229 H 0.42335 0.37617 0.21363 0.0
H1230 H 0.43647 0.42561 0.25121 0.0
H1231 H 0.45504 0.64285 0.2695 0.0
H1232 H 0.49459 0.59267 0.26371 0.0
H1233 H 0.41175 0.52083 0.28647 0.0
H1234 H 0.37221 0.5703 0.29166 0.0
H1235 H 0.45127 0.49384 0.23901 0.0
H1236 H 0.46875 0.54658 0.34566 0.0
H1237 H 0.48133 0.59513 0.38436 0.0
H1238 H 0.58037 0.61002 0.3393 0.0
H1239 H 0.56815 0.56184 0.3 0.0
C1240 C 0.56087 0.3704 0.28642 0.0
C1241 C 0.59651 0.37666 0.28469 0.0
C1242 C 0.53748 0.39837 0.28272 0.0
C1243 C 0.54934 0.43286 0.27647 0.0
C1244 C 0.5849 0.43867 0.27352 0.0
C1245 C 0.60817 0.411 0.27774 0.0
C1246 C 0.52526 0.46346 0.27492 0.0
C1247 C 0.53198 0.49273 0.29525 0.0
C1248 C 0.49573 0.46389 0.2544 0.0
C1249 C 0.48767 0.43444 0.23156 0.0
C1250 C 0.5119 0.42325 0.20798 0.0
C1251 C 0.50428 0.39513 0.18687 0.0
C1252 C 0.47241 0.37814 0.18895 0.0
C1253 C 0.44804 0.38933 0.21206 0.0
C1254 C 0.45554 0.41743 0.23325 0.0
C1255 C 0.4452 0.61635 0.27286 0.0
C1256 C 0.41054 0.61073 0.28143 0.0
C1257 C 0.46784 0.58769 0.26969 0.0
C1258 C 0.45624 0.55298 0.27513 0.0
C1259 C 0.42136 0.5473 0.28222 0.0
C1260 C 0.3988 0.57578 0.28539 0.0
C1261 C 0.48055 0.52262 0.27528 0.0
C1262 C 0.47369 0.49337 0.25499 0.0
C1263 C 0.50991 0.52205 0.29595 0.0
C1264 C 0.51738 0.55088 0.31967 0.0
C1265 C 0.4931 0.56039 0.34385 0.0
C1266 C 0.50018 0.58781 0.36591 0.0
C1267 C 0.53159 0.60572 0.36422 0.0
C1268 C 0.55602 0.59617 0.34053 0.0
C1269 C 0.54905 0.5688 0.31837 0.0
H1270 H 0.53702 0.62695 0.38133 0.0
H1271 H 0.46658 0.35635 0.1726 0.0
H1272 H 0.297 0.12176 0.04363 0.0
H1273 H 0.3214 0.06818 0.0187 0.0
H1274 H 0.24983 0.00471 0.07449 0.0
H1275 H 0.22561 0.05729 0.09905 0.0
H1276 H 0.31069 0.97307 0.0727 0.0
H1277 H 0.23573 0.03592 0.99309 0.0
H1278 H 0.22102 0.08476 0.95535 0.0
H1279 H 0.31703 0.07068 0.90438 0.0
H1280 H 0.33249 0.02207 0.94218 0.0
H1281 H 0.20552 0.85811 0.99237 0.0
H1282 H 0.24334 0.89679 0.02327 0.0
H1283 H 0.31729 0.89446 0.94405 0.0
H1284 H 0.27994 0.85489 0.91289 0.0
H1285 H 0.28915 0.95929 0.95292 0.0
H1286 H 0.34692 0.87883 0.01981 0.0
H1287 H 0.35728 0.82727 0.05551 0.0
H1288 H 0.2904 0.8709 0.12936 0.0
H1289 H 0.27903 0.92239 0.09394 0.0
C1290 C 0.28672 0.09629 0.05067 0.0
C1291 C 0.25955 0.09386 0.07355 0.0
C1292 C 0.30076 0.06574 0.03652 0.0
C1293 C 0.2875 0.0324 0.04477 0.0
C1294 C 0.26094 0.03005 0.06813 0.0
C1295 C 0.24706 0.06032 0.08225 0.0
C1296 C 0.29816 0.99975 0.02737 0.0
C1297 C 0.30629 0.96989 0.04644 0.0
C1298 C 0.29448 0.99603 0.99281 0.0
C1299 C 0.28559 0.02596 0.97088 0.0
C1300 C 0.25389 0.04359 0.97411 0.0
C1301 C 0.24538 0.07114 0.95266 0.0
C1302 C 0.26817 0.08096 0.9276 0.0
C1303 C 0.2995 0.0632 0.92392 0.0
C1304 C 0.30818 0.03571 0.94539 0.0
C1305 C 0.23034 0.86465 0.98182 0.0
C1306 C 0.23869 0.85485 0.94933 0.0
C1307 C 0.25219 0.88665 0.99975 0.0
C1308 C 0.28288 0.8991 0.98564 0.0
C1309 C 0.29342 0.88566 0.95505 0.0
C1310 C 0.27166 0.86342 0.9371 0.0
C1311 C 0.29808 0.93205 0.99882 0.0
C1312 C 0.29525 0.96222 0.97891 0.0
C1313 C 0.30598 0.93587 0.03265 0.0
C1314 C 0.31217 0.90464 0.0541 0.0
C1315 C 0.33418 0.87735 0.04355 0.0
C1316 C 0.34026 0.84812 0.06377 0.0
C1317 C 0.32453 0.84583 0.09469 0.0
C1318 C 0.30262 0.87274 0.10543 0.0
C1319 C 0.29641 0.90202 0.08529 0.0
H1320 H 0.32932 0.82319 0.11033 0.0
H1321 H 0.26148 0.10221 0.91093 0.0
H1322 H 0.04527 0.73929 0.85664 0.0
H1323 H 0.005 0.7318 0.90238 0.0
H1324 H 0.09003 0.72824 0.97081 0.0
H1325 H 0.13058 0.73461 0.92498 0.0
H1326 H 0.04219 0.68297 0.98972 0.0
H1327 H 0.04259 0.80451 0.95776 0.0
H1328 H 0.03799 0.8546 0.91919 0.0
H1329 H 0.93336 0.82616 0.89742 0.0
H1330 H 0.93751 0.77552 0.9355 0.0
H1331 H 0.95021 0.736 0.13452 0.0
H1332 H 0.98923 0.73142 0.08734 0.0
H1333 H 0.90218 0.7234 0.0217 0.0
H1334 H 0.86289 0.72788 0.06884 0.0
H1335 H 0.94998 0.77292 0.00098 0.0
H1336 H 0.95041 0.65207 0.0366 0.0
H1337 H 0.95665 0.60373 0.07688 0.0
H1338 H 0.06176 0.63367 0.09427 0.0
H1339 H 0.05601 0.68255 0.05443 0.0
C1340 C 0.05549 0.73651 0.88137 0.0
C1341 C 0.09122 0.73795 0.88711 0.0
C1342 C 0.03237 0.73241 0.90758 0.0
C1343 C 0.04433 0.73025 0.94026 0.0
C1344 C 0.08006 0.73002 0.94591 0.0
C1345 C 0.10326 0.73374 0.91962 0.0
C1346 C 0.0196 0.7297 0.96852 0.0
C1347 C 0.02227 0.70287 0.99233 0.0
C1348 C 0.99319 0.75535 0.97187 0.0
C1349 C 0.99047 0.78601 0.94923 0.0
C1350 C 0.01867 0.80879 0.94458 0.0
C1351 C 0.01614 0.8373 0.92283 0.0
C1352 C 0.98543 0.84351 0.9058 0.0
C1353 C 0.95715 0.82128 0.91059 0.0
C1354 C 0.95957 0.79268 0.93227 0.0
C1355 C 0.93931 0.73287 0.1101 0.0
C1356 C 0.90336 0.73225 0.10552 0.0
C1357 C 0.9617 0.73017 0.08312 0.0
C1358 C 0.94869 0.72692 0.05092 0.0
C1359 C 0.91283 0.72585 0.04629 0.0
C1360 C 0.8904 0.72821 0.07331 0.0
C1361 C 0.97251 0.72615 0.02205 0.0
C1362 C 0.96975 0.75289 0.99822 0.0
C1363 C 0.99907 0.70071 0.01895 0.0
C1364 C 0.00268 0.67117 0.04273 0.0
C1365 C 0.97478 0.64852 0.0492 0.0
C1366 C 0.97824 0.62099 0.07192 0.0
C1367 C 0.00956 0.61568 0.08818 0.0
C1368 C 0.03751 0.63784 0.08168 0.0
C1369 C 0.03417 0.66544 0.059 0.0
H1370 H 0.01219 0.59436 0.10576 0.0
H1371 H 0.98352 0.86559 0.88896 0.0
H1372 H 0.74157 0.15987 0.9672 0.0
H1373 H 0.70904 0.11814 0.00147 0.0
H1374 H 0.73009 0.03529 0.93109 0.0
H1375 H 0.76113 0.07666 0.89667 0.0
H1376 H 0.67079 0.02256 0.95799 0.0
H1377 H 0.78572 0.0572 0.9985 0.0
H1378 H 0.82836 0.09933 0.02055 0.0
H1379 H 0.76001 0.12498 0.10037 0.0
H1380 H 0.71691 0.08305 0.0786 0.0
H1381 H 0.75947 0.87933 0.02092 0.0
H1382 H 0.72994 0.92928 0.99613 0.0
H1383 H 0.68773 0.95782 0.09082 0.0
H1384 H 0.71581 0.90699 0.11582 0.0
H1385 H 0.73242 0.00703 0.06389 0.0
H1386 H 0.63221 0.94727 0.03079 0.0
H1387 H 0.5972 0.89899 0.00768 0.0
H1388 H 0.64396 0.91442 0.91281 0.0
H1389 H 0.67973 0.96237 0.93541 0.0
C1390 C 0.73848 0.13289 0.95884 0.0
C1391 C 0.75393 0.12149 0.92937 0.0
C1392 C 0.71984 0.10914 0.97831 0.0
C1393 C 0.7175 0.07344 0.96909 0.0
C1394 C 0.7312 0.06271 0.93867 0.0
C1395 C 0.74915 0.08645 0.91899 0.0
C1396 C 0.70622 0.04586 0.99264 0.0
C1397 C 0.68382 0.01924 0.98145 0.0
C1398 C 0.72227 0.04211 0.0238 0.0
C1399 C 0.74789 0.06764 0.03659 0.0
C1400 C 0.77971 0.07209 0.02058 0.0
C1401 C 0.80396 0.09588 0.03304 0.0
C1402 C 0.79679 0.11506 0.06169 0.0
C1403 C 0.76544 0.11029 0.07806 0.0
C1404 C 0.74108 0.08655 0.06567 0.0
C1405 C 0.74312 0.89549 0.03644 0.0
C1406 C 0.74156 0.88996 0.0707 0.0
C1407 C 0.72592 0.92392 0.0221 0.0
C1408 C 0.70683 0.94734 0.0417 0.0
C1409 C 0.70251 0.94009 0.07534 0.0
C1410 C 0.71933 0.91135 0.08967 0.0
C1411 C 0.6988 0.98272 0.02847 0.0
C1412 C 0.71761 0.01095 0.04158 0.0
C1413 C 0.68024 0.98735 0.99882 0.0
C1414 C 0.65869 0.95856 0.98488 0.0
C1415 C 0.63521 0.94027 0.00504 0.0
C1416 C 0.6152 0.91295 0.99201 0.0
C1417 C 0.61834 0.90366 0.95879 0.0
C1418 C 0.6415 0.9217 0.93853 0.0
C1419 C 0.66161 0.94903 0.95143 0.0
H1420 H 0.60282 0.8825 0.94876 0.0
H1421 H 0.8156 0.13348 0.07129 0.0
H1422 H 0.11586 0.2254 0.06604 0.0
H1423 H 0.0735 0.23914 0.0232 0.0
H1424 H 0.00351 0.27846 0.09718 0.0
H1425 H 0.04622 0.26546 0.14026 0.0
H1426 H 0.9739 0.22813 0.05121 0.0
H1427 H 0.0362 0.33632 0.05098 0.0
H1428 H 0.08757 0.37451 0.04993 0.0
H1429 H 0.11509 0.33363 0.9547 0.0
H1430 H 0.06416 0.29472 0.95541 0.0
H1431 H 0.85568 0.28082 0.92524 0.0
H1432 H 0.89326 0.2839 0.97374 0.0
H1433 H 0.98088 0.25768 0.91308 0.0
H1434 H 0.94373 0.25508 0.86458 0.0
H1435 H 0.99768 0.30783 0.9568 0.0
H1436 H 0.93921 0.19548 0.95958 0.0
H1437 H 0.88776 0.15732 0.95968 0.0
H1438 H 0.85337 0.20531 0.04982 0.0
H1439 H 0.90438 0.24422 0.04996 0.0
C1440 C 0.09165 0.23742 0.07317 0.0
C1441 C 0.08449 0.24448 0.10652 0.0
C1442 C 0.06745 0.24525 0.04866 0.0
C1443 C 0.03533 0.25982 0.05697 0.0
C1444 C 0.02813 0.26723 0.09022 0.0
C1445 C 0.05266 0.26003 0.11476 0.0
C1446 C 0.00917 0.26612 0.03075 0.0
C1447 C 0.97873 0.24609 0.03089 0.0
C1448 C 0.01576 0.28905 0.00395 0.0
C1449 C 0.0465 0.31234 0.0034 0.0
C1450 C 0.05338 0.3352 0.02995 0.0
C1451 C 0.08239 0.35703 0.02939 0.0
C1452 C 0.10463 0.35643 0.0023 0.0
C1453 C 0.09786 0.33403 0.97569 0.0
C1454 C 0.0689 0.3121 0.97615 0.0
C1455 C 0.88301 0.27611 0.92215 0.0
C1456 C 0.8966 0.26749 0.89099 0.0
C1457 C 0.90445 0.2777 0.94997 0.0
C1458 C 0.9399 0.27057 0.94721 0.0
C1459 C 0.95366 0.26324 0.91592 0.0
C1460 C 0.93229 0.26162 0.88818 0.0
C1461 C 0.96265 0.26935 0.97686 0.0
C1462 C 0.99255 0.29024 0.97733 0.0
C1463 C 0.95561 0.24707 0.00414 0.0
C1464 C 0.92539 0.22308 0.00456 0.0
C1465 C 0.92057 0.19805 0.97932 0.0
C1466 C 0.89151 0.17628 0.97934 0.0
C1467 C 0.86723 0.17902 0.00466 0.0
C1468 C 0.87214 0.20333 0.03016 0.0
C1469 C 0.90113 0.22524 0.03021 0.0
H1470 H 0.84464 0.16231 0.00451 0.0
H1471 H 0.12706 0.37338 0.0019 0.0
H1472 H 0.75708 0.41589 0.40075 0.0
H1473 H 0.78467 0.45726 0.43755 0.0
H1474 H 0.77149 0.38518 0.51882 0.0
H1475 H 0.74315 0.34322 0.48194 0.0
H1476 H 0.73951 0.4413 0.53179 0.0
H1477 H 0.85279 0.42284 0.50472 0.0
H1478 H 0.90719 0.41124 0.47542 0.0
H1479 H 0.89623 0.50828 0.4219 0.0
H1480 H 0.84153 0.52048 0.45065 0.0
H1481 H 0.77744 0.62102 0.59844 0.0
H1482 H 0.80499 0.567 0.57825 0.0
H1483 H 0.7281 0.55854 0.50197 0.0
H1484 H 0.69991 0.61174 0.52223 0.0
H1485 H 0.8249 0.53515 0.50734 0.0
H1486 H 0.68692 0.48525 0.52882 0.0
H1487 H 0.63814 0.49907 0.56544 0.0
H1488 H 0.70819 0.53279 0.64108 0.0
H1489 H 0.75753 0.51847 0.6051 0.0
C1490 C 0.76128 0.40784 0.42605 0.0
C1491 C 0.74734 0.37624 0.43843 0.0
C1492 C 0.77738 0.43174 0.4472 0.0
C1493 C 0.78018 0.42456 0.48106 0.0
C1494 C 0.76961 0.39141 0.4928 0.0
C1495 C 0.75321 0.36752 0.4717 0.0
C1496 C 0.78536 0.45451 0.5042 0.0
C1497 C 0.75898 0.46118 0.52707 0.0
C1498 C 0.81113 0.48043 0.499 0.0
C1499 C 0.84285 0.47251 0.47984 0.0
C1500 C 0.86169 0.44156 0.48642 0.0
C1501 C 0.89272 0.43498 0.47005 0.0
C1502 C 0.90512 0.459 0.44678 0.0
C1503 C 0.88652 0.48969 0.43989 0.0
C1504 C 0.85554 0.49651 0.45632 0.0
C1505 C 0.76668 0.60799 0.57702 0.0
C1506 C 0.73568 0.61993 0.56263 0.0
C1507 C 0.78282 0.57745 0.56528 0.0
C1508 C 0.76823 0.55875 0.53899 0.0
C1509 C 0.7396 0.57274 0.5224 0.0
C1510 C 0.7235 0.60315 0.53405 0.0
C1511 C 0.77796 0.5218 0.53242 0.0
C1512 C 0.80669 0.51426 0.51278 0.0
C1513 C 0.7553 0.49441 0.5416 0.0
C1514 C 0.72587 0.50105 0.56414 0.0
C1515 C 0.69193 0.4953 0.55338 0.0
C1516 C 0.66418 0.50336 0.57401 0.0
C1517 C 0.67006 0.51719 0.60547 0.0
C1518 C 0.70373 0.52246 0.61657 0.0
C1519 C 0.73158 0.51431 0.59609 0.0
H1520 H 0.64858 0.52366 0.62136 0.0
H1521 H 0.92909 0.45379 0.43405 0.0
H1522 H 0.41347 0.17797 0.60969 0.0
H1523 H 0.45002 0.17583 0.56056 0.0
H1524 H 0.45297 0.28959 0.55807 0.0
H1525 H 0.41602 0.29198 0.6068 0.0
H1526 H 0.44861 0.26479 0.49713 0.0
H1527 H 0.51931 0.24362 0.59082 0.0
H1528 H 0.5353 0.21453 0.64303 0.0
H1529 H 0.5451 0.11533 0.59263 0.0
H1530 H 0.52861 0.14377 0.54011 0.0
H1531 H 0.63717 0.24509 0.43125 0.0
H1532 H 0.59618 0.24184 0.47685 0.0
H1533 H 0.51484 0.21639 0.40823 0.0
H1534 H 0.55538 0.22177 0.3624 0.0
H1535 H 0.55799 0.19747 0.50516 0.0
H1536 H 0.43863 0.24713 0.43286 0.0
H1537 H 0.42513 0.2846 0.38476 0.0
H1538 H 0.5197 0.34148 0.39849 0.0
H1539 H 0.53354 0.30466 0.4469 0.0
C1540 C 0.42152 0.20256 0.59848 0.0
C1541 C 0.41197 0.23515 0.61244 0.0
C1542 C 0.44258 0.20129 0.57043 0.0
C1543 C 0.45474 0.23255 0.55581 0.0
C1544 C 0.44402 0.2651 0.56886 0.0
C1545 C 0.42295 0.2664 0.59687 0.0
C1546 C 0.47987 0.2314 0.52795 0.0
C1547 C 0.47242 0.2499 0.4988 0.0
C1548 C 0.51149 0.21286 0.53037 0.0
C1549 C 0.52238 0.19574 0.56161 0.0
C1550 C 0.52471 0.21556 0.59089 0.0
C1551 C 0.53387 0.19921 0.62052 0.0
C1552 C 0.5411 0.16311 0.62115 0.0
C1553 C 0.53942 0.1433 0.59209 0.0
C1554 C 0.53019 0.15953 0.56237 0.0
C1555 C 0.61057 0.23869 0.42587 0.0
C1556 C 0.59948 0.23425 0.39311 0.0
C1557 C 0.58709 0.2367 0.45205 0.0
C1558 C 0.55204 0.22966 0.44616 0.0
C1559 C 0.54141 0.22298 0.41355 0.0
C1560 C 0.56472 0.22578 0.3873 0.0
C1561 C 0.52662 0.23056 0.47394 0.0
C1562 C 0.53404 0.21208 0.50321 0.0
C1563 C 0.49555 0.25027 0.47209 0.0
C1564 C 0.48722 0.27293 0.44332 0.0
C1565 C 0.45644 0.26776 0.42571 0.0
C1566 C 0.44873 0.28889 0.39841 0.0
C1567 C 0.47154 0.3154 0.38859 0.0
C1568 C 0.50208 0.32091 0.4061 0.0
C1569 C 0.50987 0.29991 0.43346 0.0
H1570 H 0.46559 0.33163 0.36737 0.0
H1571 H 0.54801 0.15055 0.64417 0.0
H1572 H 0.28321 0.43819 0.60547 0.0
H1573 H 0.25637 0.48763 0.57776 0.0
H1574 H 0.19703 0.41597 0.51756 0.0
H1575 H 0.22433 0.36569 0.54543 0.0
H1576 H 0.22828 0.46095 0.48091 0.0
H1577 H 0.15574 0.47511 0.57264 0.0
H1578 H 0.13751 0.47811 0.63082 0.0
H1579 H 0.20347 0.56745 0.64652 0.0
H1580 H 0.2225 0.56479 0.58857 0.0
H1581 H 0.22269 0.623 0.39935 0.0
H1582 H 0.19163 0.57878 0.43119 0.0
H1583 H 0.261 0.59466 0.51293 0.0
H1584 H 0.29294 0.63782 0.4813 0.0
H1585 H 0.19593 0.57438 0.53369 0.0
H1586 H 0.28309 0.54093 0.4508 0.0
H1587 H 0.30514 0.53712 0.39384 0.0
H1588 H 0.21393 0.48132 0.36426 0.0
H1589 H 0.19087 0.48592 0.42079 0.0
C1590 C 0.26374 0.43274 0.58703 0.0
C1591 C 0.25562 0.39793 0.57789 0.0
C1592 C 0.24815 0.46119 0.5713 0.0
C1593 C 0.22389 0.45563 0.54617 0.0
C1594 C 0.21529 0.42089 0.53724 0.0
C1595 C 0.23111 0.39224 0.55293 0.0
C1596 C 0.21235 0.48614 0.52612 0.0
C1597 C 0.21979 0.4854 0.49227 0.0
C1598 C 0.20147 0.51818 0.5409 0.0
C1599 C 0.19046 0.5198 0.57605 0.0
C1600 C 0.16653 0.4953 0.58849 0.0
C1601 C 0.15602 0.49697 0.62146 0.0
C1602 C 0.16919 0.52307 0.64229 0.0
C1603 C 0.19313 0.54739 0.63028 0.0
C1604 C 0.20371 0.54586 0.59733 0.0
C1605 C 0.23145 0.61737 0.42412 0.0
C1606 C 0.26184 0.63258 0.43695 0.0
C1607 C 0.21308 0.59248 0.44252 0.0
C1608 C 0.22459 0.58284 0.47406 0.0
C1609 C 0.25183 0.60153 0.48851 0.0
C1610 C 0.2703 0.62614 0.47015 0.0
C1611 C 0.21395 0.54917 0.48941 0.0
C1612 C 0.20244 0.54939 0.52221 0.0
C1613 C 0.22136 0.51656 0.47388 0.0
C1614 C 0.23499 0.51435 0.4398 0.0
C1615 C 0.26755 0.5283 0.43201 0.0
C1616 C 0.28022 0.52603 0.39981 0.0
C1617 C 0.26085 0.50924 0.37539 0.0
C1618 C 0.22879 0.49464 0.3831 0.0
C1619 C 0.21583 0.4972 0.41518 0.0
H1620 H 0.27082 0.50743 0.35054 0.0
H1621 H 0.16082 0.52449 0.66772 0.0
H1622 H 0.54331 0.77888 0.63857 0.0
H1623 H 0.50363 0.78318 0.59194 0.0
H1624 H 0.58878 0.7712 0.5244 0.0
H1625 H 0.62876 0.7685 0.57099 0.0
H1626 H 0.54498 0.81615 0.49948 0.0
H1627 H 0.5338 0.69973 0.5471 0.0
H1628 H 0.52415 0.65802 0.59293 0.0
H1629 H 0.42395 0.70266 0.60968 0.0
H1630 H 0.43312 0.74477 0.56407 0.0
H1631 H 0.45581 0.75054 0.3595 0.0
H1632 H 0.49257 0.75799 0.40789 0.0
H1633 H 0.40314 0.77954 0.4677 0.0
H1634 H 0.36603 0.77195 0.4193 0.0
H1635 H 0.44658 0.7326 0.49766 0.0
H1636 H 0.4564 0.84594 0.44677 0.0
H1637 H 0.46629 0.88709 0.40064 0.0
H1638 H 0.56946 0.84792 0.38968 0.0
H1639 H 0.56005 0.80616 0.43555 0.0
C1640 C 0.55364 0.77758 0.61377 0.0
C1641 C 0.5892 0.77308 0.60851 0.0
C1642 C 0.53087 0.7798 0.58707 0.0
C1643 C 0.54299 0.7766 0.5545 0.0
C1644 C 0.57867 0.77358 0.54921 0.0
C1645 C 0.60154 0.772 0.57591 0.0
C1646 C 0.51852 0.77506 0.52607 0.0
C1647 C 0.52371 0.79761 0.49899 0.0
C1648 C 0.49017 0.75145 0.52552 0.0
C1649 C 0.48422 0.72551 0.55233 0.0
C1650 C 0.50974 0.70066 0.5606 0.0
C1651 C 0.50436 0.67696 0.58653 0.0
C1652 C 0.47348 0.67773 0.60423 0.0
C1653 C 0.44785 0.70208 0.59593 0.0
C1654 C 0.45308 0.72582 0.57 0.0
C1655 C 0.44389 0.75712 0.38286 0.0
C1656 C 0.4079 0.76073 0.38542 0.0
C1657 C 0.46501 0.76147 0.41055 0.0
C1658 C 0.4507 0.76959 0.44147 0.0
C1659 C 0.4148 0.77332 0.44412 0.0
C1660 C 0.39363 0.76917 0.41636 0.0
C1661 C 0.47328 0.77345 0.47103 0.0
C1662 C 0.46775 0.75127 0.49827 0.0
C1663 C 0.50138 0.79727 0.47164 0.0
C1664 C 0.50741 0.82273 0.44443 0.0
C1665 C 0.48114 0.84595 0.43441 0.0
C1666 C 0.48666 0.8694 0.40834 0.0
C1667 C 0.51845 0.87005 0.39221 0.0
C1668 C 0.54484 0.84735 0.40221 0.0
C1669 C 0.53945 0.82382 0.42828 0.0
H1670 H 0.52259 0.88819 0.37202 0.0
H1671 H 0.46941 0.65943 0.62436 0.0
loop_
_geom_bond_atom_site_label_1
_geom_bond_atom_site_label_2
_geom_bond_distance
_geom_bond_site_symmetry_2
_ccdc_geom_bond_type
Zn0 N4 2.020 . S
Zn0 O8 2.019 . S
Zn0 N10 2.119 . S
Zn0 O18 1.975 . S
C1 N2 1.334 . S
C1 N5 1.336 . S
N2 C1 1.334 . S
N2 C3 1.334 . S
C3 N2 1.334 . S
C3 N4 1.336 . S
N4 Zn0 2.020 . S
N4 C3 1.336 . S
N4 N5 1.354 . S
N5 C1 1.336 . S
N5 N4 1.354 . S
N5 Zn9 2.020 . S
C6 O7 1.244 . S
C6 O30 1.257 . S
O7 C6 1.244 . S
O8 Zn0 2.019 . S
O8 C28 1.257 . S
Zn9 N5 2.020 . S
Zn9 O16 1.975 . S
Zn9 N25 2.119 . S
Zn9 O30 2.019 . S
N10 Zn0 2.119 . S
N10 C12 1.334 . S
N10 C13 1.328 . S
C11 C12 1.391 . S
C11 N14 1.329 . S
C11 H32 0.930 . S
C12 N10 1.334 . S
C12 C11 1.391 . S
C12 H19 0.930 . S
C13 N10 1.328 . S
C13 C15 1.392 . S
C13 H20 0.930 . S
N14 C11 1.329 . S
N14 C15 1.331 . S
C15 C13 1.392 . S
C15 N14 1.331 . S
O16 Zn9 1.975 . S
O16 C17 1.252 . S
C17 O16 1.252 . S
C17 O18 1.252 . S
O18 Zn0 1.975 . S
O18 C17 1.252 . S
H19 C12 0.930 . S
H20 C13 0.930 . S
C21 C22 1.392 . S
C21 N25 1.328 . S
C21 H27 0.930 . S
C22 C21 1.392 . S
C22 N26 1.331 . S
C23 C24 1.391 . S
C23 N26 1.329 . S
C23 H33 0.930 . S
C24 C23 1.391 . S
C24 N25 1.334 . S
C24 H31 0.930 . S
N25 Zn9 2.119 . S
N25 C21 1.328 . S
N25 C24 1.334 . S
N26 C22 1.331 . S
N26 C23 1.329 . S
H27 C21 0.930 . S
C28 O8 1.257 . S
C28 O29 1.244 . S
O29 C28 1.244 . S
O30 C6 1.257 . S
O30 Zn9 2.019 . S
H31 C24 0.930 . S
H32 C11 0.930 . S
H33 C23 0.930 . S
Zn34 N38 2.020 . S
Zn34 O42 2.019 . S
Zn34 N44 2.119 . S
Zn34 O52 1.975 . S
C35 N36 1.334 . S
C35 N39 1.336 . S
N36 C35 1.334 . S
N36 C37 1.334 . S
C37 N36 1.334 . S
C37 N38 1.336 . S
N38 Zn34 2.020 . S
N38 C37 1.336 . S
N38 N39 1.354 . S
N39 C35 1.336 . S
N39 N38 1.354 . S
N39 Zn43 2.020 . S
C40 O41 1.244 . S
C40 O64 1.257 . S
O41 C40 1.244 . S
O42 Zn34 2.019 . S
O42 C62 1.257 . S
Zn43 N39 2.020 . S
Zn43 O50 1.975 . S
Zn43 N59 2.119 . S
Zn43 O64 2.019 . S
N44 Zn34 2.119 . S
N44 C46 1.334 . S
N44 C47 1.328 . S
C45 C46 1.391 . S
C45 N48 1.329 . S
C45 H66 0.930 . S
C46 N44 1.334 . S
C46 C45 1.391 . S
C46 H53 0.930 . S
C47 N44 1.328 . S
C47 C49 1.392 . S
C47 H54 0.930 . S
N48 C45 1.329 . S
N48 C49 1.331 . S
C49 C47 1.392 . S
C49 N48 1.331 . S
O50 Zn43 1.975 . S
O50 C51 1.252 . S
C51 O50 1.252 . S
C51 O52 1.252 . S
O52 Zn34 1.975 . S
O52 C51 1.252 . S
H53 C46 0.930 . S
H54 C47 0.930 . S
C55 C56 1.392 . S
C55 N59 1.328 . S
C55 H61 0.930 . S
C56 C55 1.392 . S
C56 N60 1.331 . S
C57 C58 1.391 . S
C57 N60 1.329 . S
C57 H67 0.930 . S
C58 C57 1.391 . S
C58 N59 1.334 . S
C58 H65 0.930 . S
N59 Zn43 2.119 . S
N59 C55 1.328 . S
N59 C58 1.334 . S
N60 C56 1.331 . S
N60 C57 1.329 . S
H61 C55 0.930 . S
C62 O42 1.257 . S
C62 O63 1.244 . S
O63 C62 1.244 . S
O64 C40 1.257 . S
O64 Zn43 2.019 . S
H65 C58 0.930 . S
H66 C45 0.930 . S
H67 C57 0.930 . S
Zn68 N72 2.020 . S
Zn68 O76 2.019 . S
Zn68 N78 2.119 . S
Zn68 O86 1.975 . S
C69 N70 1.334 . S
C69 N73 1.336 . S
N70 C69 1.334 . S
N70 C71 1.334 . S
C71 N70 1.334 . S
C71 N72 1.336 . S
N72 Zn68 2.020 . S
N72 C71 1.336 . S
N72 N73 1.354 . S
N73 C69 1.336 . S
N73 N72 1.354 . S
N73 Zn77 2.020 . S
C74 O75 1.244 . S
C74 O98 1.257 . S
O75 C74 1.244 . S
O76 Zn68 2.019 . S
O76 C96 1.257 . S
Zn77 N73 2.020 . S
Zn77 O84 1.975 . S
Zn77 N93 2.119 . S
Zn77 O98 2.019 . S
N78 Zn68 2.119 . S
N78 C80 1.334 . S
N78 C81 1.328 . S
C79 C80 1.391 . S
C79 N82 1.329 . S
C79 H100 0.930 . S
C80 N78 1.334 . S
C80 C79 1.391 . S
C80 H87 0.930 . S
C81 N78 1.328 . S
C81 C83 1.392 . S
C81 H88 0.930 . S
N82 C79 1.329 . S
N82 C83 1.331 . S
C83 C81 1.392 . S
C83 N82 1.331 . S
O84 Zn77 1.975 . S
O84 C85 1.252 . S
C85 O84 1.252 . S
C85 O86 1.252 . S
O86 Zn68 1.975 . S
O86 C85 1.252 . S
H87 C80 0.930 . S
H88 C81 0.930 . S
C89 C90 1.392 . S
C89 N93 1.328 . S
C89 H95 0.930 . S
C90 C89 1.392 . S
C90 N94 1.331 . S
C91 C92 1.391 . S
C91 N94 1.329 . S
C91 H101 0.930 . S
C92 C91 1.391 . S
C92 N93 1.334 . S
C92 H99 0.930 . S
N93 Zn77 2.119 . S
N93 C89 1.328 . S
N93 C92 1.334 . S
N94 C90 1.331 . S
N94 C91 1.329 . S
H95 C89 0.930 . S
C96 O76 1.257 . S
C96 O97 1.244 . S
O97 C96 1.244 . S
O98 C74 1.257 . S
O98 Zn77 2.019 . S
H99 C92 0.930 . S
H100 C79 0.930 . S
H101 C91 0.930 . S
Zn102 N106 2.020 . S
Zn102 O110 2.019 . S
Zn102 N112 2.119 . S
Zn102 O120 1.975 . S
C103 N104 1.334 . S
C103 N107 1.336 . S
N104 C103 1.334 . S
N104 C105 1.334 . S
C105 N104 1.334 . S
C105 N106 1.336 . S
N106 Zn102 2.020 . S
N106 C105 1.336 . S
N106 N107 1.354 . S
N107 C103 1.336 . S
N107 N106 1.354 . S
N107 Zn111 2.020 . S
C108 O109 1.244 . S
C108 O132 1.257 . S
O109 C108 1.244 . S
O110 Zn102 2.019 . S
O110 C130 1.257 . S
Zn111 N107 2.020 . S
Zn111 O118 1.975 . S
Zn111 N127 2.119 . S
Zn111 O132 2.019 . S
N112 Zn102 2.119 . S
N112 C114 1.334 . S
N112 C115 1.328 . S
C113 C114 1.391 . S
C113 N116 1.329 . S
C113 H134 0.930 . S
C114 N112 1.334 . S
C114 C113 1.391 . S
C114 H121 0.930 . S
C115 N112 1.328 . S
C115 C117 1.392 . S
C115 H122 0.930 . S
N116 C113 1.329 . S
N116 C117 1.331 . S
C117 C115 1.392 . S
C117 N116 1.331 . S
O118 Zn111 1.975 . S
O118 C119 1.252 . S
C119 O118 1.252 . S
C119 O120 1.252 . S
O120 Zn102 1.975 . S
O120 C119 1.252 . S
H121 C114 0.930 . S
H122 C115 0.930 . S
C123 C124 1.392 . S
C123 N127 1.328 . S
C123 H129 0.930 . S
C124 C123 1.392 . S
C124 N128 1.331 . S
C125 C126 1.391 . S
C125 N128 1.329 . S
C125 H135 0.930 . S
C126 C125 1.391 . S
C126 N127 1.334 . S
C126 H133 0.930 . S
N127 Zn111 2.119 . S
N127 C123 1.328 . S
N127 C126 1.334 . S
N128 C124 1.331 . S
N128 C125 1.329 . S
H129 C123 0.930 . S
C130 O110 1.257 . S
C130 O131 1.244 . S
O131 C130 1.244 . S
O132 C108 1.257 . S
O132 Zn111 2.019 . S
H133 C126 0.930 . S
H134 C113 0.930 . S
H135 C125 0.930 . S
Zn136 N140 2.020 . S
Zn136 O144 2.019 . S
Zn136 N146 2.119 . S
Zn136 O154 1.975 . S
C137 N138 1.334 . S
C137 N141 1.336 . S
N138 C137 1.334 . S
N138 C139 1.334 . S
C139 N138 1.334 . S
C139 N140 1.336 . S
N140 Zn136 2.020 . S
N140 C139 1.336 . S
N140 N141 1.354 . S
N141 C137 1.336 . S
N141 N140 1.354 . S
N141 Zn145 2.020 . S
C142 O143 1.244 . S
C142 O166 1.257 . S
O143 C142 1.244 . S
O144 Zn136 2.019 . S
O144 C164 1.257 . S
Zn145 N141 2.020 . S
Zn145 O152 1.975 . S
Zn145 N161 2.119 . S
Zn145 O166 2.019 . S
N146 Zn136 2.119 . S
N146 C148 1.334 . S
N146 C149 1.328 . S
C147 C148 1.391 . S
C147 N150 1.329 . S
C147 H168 0.930 . S
C148 N146 1.334 . S
C148 C147 1.391 . S
C148 H155 0.930 . S
C149 N146 1.328 . S
C149 C151 1.392 . S
C149 H156 0.930 . S
N150 C147 1.329 . S
N150 C151 1.331 . S
C151 C149 1.392 . S
C151 N150 1.331 . S
O152 Zn145 1.975 . S
O152 C153 1.252 . S
C153 O152 1.252 . S
C153 O154 1.252 . S
O154 Zn136 1.975 . S
O154 C153 1.252 . S
H155 C148 0.930 . S
H156 C149 0.930 . S
C157 C158 1.392 . S
C157 N161 1.328 . S
C157 H163 0.930 . S
C158 C157 1.392 . S
C158 N162 1.331 . S
C159 C160 1.391 . S
C159 N162 1.329 . S
C159 H169 0.930 . S
C160 C159 1.391 . S
C160 N161 1.334 . S
C160 H167 0.930 . S
N161 Zn145 2.119 . S
N161 C157 1.328 . S
N161 C160 1.334 . S
N162 C158 1.331 . S
N162 C159 1.329 . S
H163 C157 0.930 . S
C164 O144 1.257 . S
C164 O165 1.244 . S
O165 C164 1.244 . S
O166 C142 1.257 . S
O166 Zn145 2.019 . S
H167 C160 0.930 . S
H168 C147 0.930 . S
H169 C159 0.930 . S
Zn170 N174 2.020 . S
Zn170 O178 2.019 . S
Zn170 N180 2.119 . S
Zn170 O188 1.975 . S
C171 N172 1.334 . S
C171 N175 1.336 . S
N172 C171 1.334 . S
N172 C173 1.334 . S
C173 N172 1.334 . S
C173 N174 1.336 . S
N174 Zn170 2.020 . S
N174 C173 1.336 . S
N174 N175 1.354 . S
N175 C171 1.336 . S
N175 N174 1.354 . S
N175 Zn179 2.020 . S
C176 O177 1.244 . S
C176 O200 1.257 . S
O177 C176 1.244 . S
O178 Zn170 2.019 . S
O178 C198 1.257 . S
Zn179 N175 2.020 . S
Zn179 O186 1.975 . S
Zn179 N195 2.119 . S
Zn179 O200 2.019 . S
N180 Zn170 2.119 . S
N180 C182 1.334 . S
N180 C183 1.328 . S
C181 C182 1.391 . S
C181 N184 1.329 . S
C181 H202 0.930 . S
C182 N180 1.334 . S
C182 C181 1.391 . S
C182 H189 0.930 . S
C183 N180 1.328 . S
C183 C185 1.392 . S
C183 H190 0.930 . S
N184 C181 1.329 . S
N184 C185 1.331 . S
C185 C183 1.392 . S
C185 N184 1.331 . S
O186 Zn179 1.975 . S
O186 C187 1.252 . S
C187 O186 1.252 . S
C187 O188 1.252 . S
O188 Zn170 1.975 . S
O188 C187 1.252 . S
H189 C182 0.930 . S
H190 C183 0.930 . S
C191 C192 1.392 . S
C191 N195 1.328 . S
C191 H197 0.930 . S
C192 C191 1.392 . S
C192 N196 1.331 . S
C193 C194 1.391 . S
C193 N196 1.329 . S
C193 H203 0.930 . S
C194 C193 1.391 . S
C194 N195 1.334 . S
C194 H201 0.930 . S
N195 Zn179 2.119 . S
N195 C191 1.328 . S
N195 C194 1.334 . S
N196 C192 1.331 . S
N196 C193 1.329 . S
H197 C191 0.930 . S
C198 O178 1.257 . S
C198 O199 1.244 . S
O199 C198 1.244 . S
O200 C176 1.257 . S
O200 Zn179 2.019 . S
H201 C194 0.930 . S
H202 C181 0.930 . S
H203 C193 0.930 . S
Zn204 N208 2.020 . S
Zn204 O212 2.019 . S
Zn204 N214 2.119 . S
Zn204 O222 1.975 . S
C205 N206 1.334 . S
C205 N209 1.336 . S
N206 C205 1.334 . S
N206 C207 1.334 . S
C207 N206 1.334 . S
C207 N208 1.336 . S
N208 Zn204 2.020 . S
N208 C207 1.336 . S
N208 N209 1.354 . S
N209 C205 1.336 . S
N209 N208 1.354 . S
N209 Zn213 2.020 . S
C210 O211 1.244 . S
C210 O234 1.257 . S
O211 C210 1.244 . S
O212 Zn204 2.019 . S
O212 C232 1.257 . S
Zn213 N209 2.020 . S
Zn213 O220 1.975 . S
Zn213 N229 2.119 . S
Zn213 O234 2.019 . S
N214 Zn204 2.119 . S
N214 C216 1.334 . S
N214 C217 1.328 . S
C215 C216 1.391 . S
C215 N218 1.329 . S
C215 H236 0.930 . S
C216 N214 1.334 . S
C216 C215 1.391 . S
C216 H223 0.930 . S
C217 N214 1.328 . S
C217 C219 1.392 . S
C217 H224 0.930 . S
N218 C215 1.329 . S
N218 C219 1.331 . S
C219 C217 1.392 . S
C219 N218 1.331 . S
O220 Zn213 1.975 . S
O220 C221 1.252 . S
C221 O220 1.252 . S
C221 O222 1.252 . S
O222 Zn204 1.975 . S
O222 C221 1.252 . S
H223 C216 0.930 . S
H224 C217 0.930 . S
C225 C226 1.392 . S
C225 N229 1.328 . S
C225 H231 0.930 . S
C226 C225 1.392 . S
C226 N230 1.331 . S
C227 C228 1.391 . S
C227 N230 1.329 . S
C227 H237 0.930 . S
C228 C227 1.391 . S
C228 N229 1.334 . S
C228 H235 0.930 . S
N229 Zn213 2.119 . S
N229 C225 1.328 . S
N229 C228 1.334 . S
N230 C226 1.331 . S
N230 C227 1.329 . S
H231 C225 0.930 . S
C232 O212 1.257 . S
C232 O233 1.244 . S
O233 C232 1.244 . S
O234 C210 1.257 . S
O234 Zn213 2.019 . S
H235 C228 0.930 . S
H236 C215 0.930 . S
H237 C227 0.930 . S
Zn238 N242 2.020 . S
Zn238 O246 2.019 . S
Zn238 N248 2.119 . S
Zn238 O256 1.975 . S
C239 N240 1.334 . S
C239 N243 1.336 . S
N240 C239 1.334 . S
N240 C241 1.334 . S
C241 N240 1.334 . S
C241 N242 1.336 . S
N242 Zn238 2.020 . S
N242 C241 1.336 . S
N242 N243 1.354 . S
N243 C239 1.336 . S
N243 N242 1.354 . S
N243 Zn247 2.020 . S
C244 O245 1.244 . S
C244 O268 1.257 . S
O245 C244 1.244 . S
O246 Zn238 2.019 . S
O246 C266 1.257 . S
Zn247 N243 2.020 . S
Zn247 O254 1.975 . S
Zn247 N263 2.119 . S
Zn247 O268 2.019 . S
N248 Zn238 2.119 . S
N248 C250 1.334 . S
N248 C251 1.328 . S
C249 C250 1.391 . S
C249 N252 1.329 . S
C249 H270 0.930 . S
C250 N248 1.334 . S
C250 C249 1.391 . S
C250 H257 0.930 . S
C251 N248 1.328 . S
C251 C253 1.392 . S
C251 H258 0.930 . S
N252 C249 1.329 . S
N252 C253 1.331 . S
C253 C251 1.392 . S
C253 N252 1.331 . S
O254 Zn247 1.975 . S
O254 C255 1.252 . S
C255 O254 1.252 . S
C255 O256 1.252 . S
O256 Zn238 1.975 . S
O256 C255 1.252 . S
H257 C250 0.930 . S
H258 C251 0.930 . S
C259 C260 1.392 . S
C259 N263 1.328 . S
C259 H265 0.930 . S
C260 C259 1.392 . S
C260 N264 1.331 . S
C261 C262 1.391 . S
C261 N264 1.329 . S
C261 H271 0.930 . S
C262 C261 1.391 . S
C262 N263 1.334 . S
C262 H269 0.930 . S
N263 Zn247 2.119 . S
N263 C259 1.328 . S
N263 C262 1.334 . S
N264 C260 1.331 . S
N264 C261 1.329 . S
H265 C259 0.930 . S
C266 O246 1.257 . S
C266 O267 1.244 . S
O267 C266 1.244 . S
O268 C244 1.257 . S
O268 Zn247 2.019 . S
H269 C262 0.930 . S
H270 C249 0.930 . S
H271 C261 0.930 . S
H272 C290 0.951 . S
H273 C292 0.951 . S
H274 C294 0.950 . S
H275 C295 0.950 . S
H276 C297 0.950 . S
H277 C300 0.950 . S
H278 C301 0.950 . S
H279 C303 0.950 1_545 S
H280 C304 0.950 . S
H281 C305 0.951 . S
H282 C307 0.951 . S
H283 C309 0.950 . S
H284 C310 0.950 . S
H285 C312 0.950 . S
H286 C315 0.950 . S
H287 C316 0.950 . S
H288 C318 0.950 . S
H289 C319 0.950 . S
C290 H272 0.951 . S
C290 C291 1.366 . S
C290 C292 1.388 . S
C291 C290 1.366 . S
C291 C295 1.385 . S
C292 H273 0.951 . S
C292 C290 1.388 . S
C292 C293 1.366 1_545 S
C293 C292 1.366 1_565 S
C293 C294 1.414 . S
C293 C296 1.499 . S
C294 H274 0.950 . S
C294 C293 1.414 . S
C294 C295 1.374 1_565 S
C295 H275 0.950 . S
C295 C291 1.385 . S
C295 C294 1.374 1_545 S
C296 C293 1.499 . S
C296 C297 1.373 . S
C296 C298 1.389 . S
C297 H276 0.950 . S
C297 C296 1.373 . S
C297 C313 1.377 . S
C298 C296 1.389 . S
C298 C299 1.524 . S
C298 C312 1.377 . S
C299 C298 1.524 . S
C299 C300 1.397 . S
C299 C304 1.363 . S
C300 H277 0.950 . S
C300 C299 1.397 . S
C300 C301 1.334 1_565 S
C301 H278 0.950 . S
C301 C300 1.334 1_545 S
C301 C302 1.287 . S
C302 C301 1.287 . S
C302 C303 1.524 1_545 S
C302 H321 0.913 . S
C303 H279 0.950 1_565 S
C303 C302 1.524 1_565 S
C303 C304 1.415 . S
C304 H280 0.950 . S
C304 C299 1.363 . S
C304 C303 1.415 . S
C305 H281 0.951 . S
C305 C306 1.366 . S
C305 C307 1.388 . S
C306 C305 1.366 . S
C306 C310 1.385 . S
C307 H282 0.951 . S
C307 C305 1.388 . S
C307 C308 1.366 . S
C308 C307 1.366 . S
C308 C309 1.414 . S
C308 C311 1.499 . S
C309 H283 0.950 . S
C309 C308 1.414 . S
C309 C310 1.374 . S
C310 H284 0.950 . S
C310 C306 1.385 . S
C310 C309 1.374 . S
C311 C308 1.499 . S
C311 C312 1.373 . S
C311 C313 1.389 . S
C312 H285 0.950 . S
C312 C298 1.377 . S
C312 C311 1.373 . S
C313 C297 1.377 . S
C313 C311 1.389 . S
C313 C314 1.524 . S
C314 C313 1.524 . S
C314 C315 1.397 . S
C314 C319 1.363 . S
C315 H286 0.950 . S
C315 C314 1.397 . S
C315 C316 1.334 . S
C316 H287 0.950 . S
C316 C315 1.334 . S
C316 C317 1.287 . S
C317 C316 1.287 . S
C317 C318 1.524 . S
C317 H320 0.999 . S
C318 H288 0.950 . S
C318 C317 1.524 . S
C318 C319 1.415 . S
C319 H289 0.950 . S
C319 C314 1.363 . S
C319 C318 1.415 . S
H320 C317 0.999 . S
H321 C302 0.913 . S
H322 C340 0.951 . S
H323 C342 0.952 . S
H324 C344 0.950 . S
H325 C345 0.950 . S
H326 C347 0.950 . S
H327 C350 0.950 . S
H328 C351 0.950 . S
H329 C353 0.950 . S
H330 C354 0.950 . S
H331 C355 0.951 . S
H332 C357 0.951 . S
H333 C359 0.950 . S
H334 C360 0.950 . S
H335 C362 0.950 . S
H336 C365 0.950 . S
H337 C366 0.950 . S
H338 C368 0.950 . S
H339 C369 0.950 . S
C340 H322 0.951 . S
C340 C341 1.366 . S
C340 C342 1.383 1_455 S
C341 C340 1.366 . S
C341 C345 1.385 . S
C342 H323 0.952 . S
C342 C340 1.383 1_655 S
C342 C343 1.369 . S
C343 C342 1.369 . S
C343 C344 1.414 . S
C343 C346 1.499 . S
C344 H324 0.950 . S
C344 C343 1.414 . S
C344 C345 1.374 1_655 S
C345 H325 0.950 . S
C345 C341 1.385 . S
C345 C344 1.374 1_455 S
C346 C343 1.499 . S
C346 C347 1.373 . S
C346 C348 1.389 . S
C347 H326 0.950 . S
C347 C346 1.373 . S
C347 C363 1.377 . S
C348 C346 1.389 . S
C348 C349 1.524 . S
C348 C362 1.377 . S
C349 C348 1.524 . S
C349 C350 1.397 . S
C349 C354 1.363 . S
C350 H327 0.950 . S
C350 C349 1.397 . S
C350 C351 1.334 . S
C351 H328 0.950 . S
C351 C350 1.334 . S
C351 C352 1.287 . S
C352 C351 1.287 . S
C352 C353 1.524 . S
C352 H371 0.913 . S
C353 H329 0.950 . S
C353 C352 1.524 . S
C353 C354 1.415 . S
C354 H330 0.950 . S
C354 C349 1.363 . S
C354 C353 1.415 . S
C355 H331 0.951 . S
C355 C356 1.366 . S
C355 C357 1.388 . S
C356 C355 1.366 . S
C356 C360 1.385 . S
C357 H332 0.951 . S
C357 C355 1.388 . S
C357 C358 1.366 . S
C358 C357 1.366 . S
C358 C359 1.414 . S
C358 C361 1.499 . S
C359 H333 0.950 . S
C359 C358 1.414 . S
C359 C360 1.374 . S
C360 H334 0.950 . S
C360 C356 1.385 . S
C360 C359 1.374 . S
C361 C358 1.499 . S
C361 C362 1.373 . S
C361 C363 1.389 . S
C362 H335 0.950 . S
C362 C348 1.377 . S
C362 C361 1.373 . S
C363 C347 1.377 . S
C363 C361 1.389 . S
C363 C364 1.524 . S
C364 C363 1.524 . S
C364 C365 1.397 . S
C364 C369 1.363 . S
C365 H336 0.950 . S
C365 C364 1.397 . S
C365 C366 1.334 . S
C366 H337 0.950 . S
C366 C365 1.334 . S
C366 C367 1.287 . S
C367 C366 1.287 . S
C367 C368 1.524 . S
C367 H370 0.999 . S
C368 H338 0.950 . S
C368 C367 1.524 . S
C368 C369 1.415 . S
C369 H339 0.950 . S
C369 C364 1.363 . S
C369 C368 1.415 . S
H370 C367 0.999 . S
H371 C352 0.913 . S
H372 C390 0.951 . S
H373 C392 0.951 . S
H374 C394 0.950 . S
H375 C395 0.950 . S
H376 C397 0.950 . S
H377 C400 0.950 . S
H378 C401 0.950 . S
H379 C403 0.950 . S
H380 C404 0.950 . S
H381 C405 0.951 . S
H382 C407 0.951 . S
H383 C409 0.950 . S
H384 C410 0.950 . S
H385 C412 0.950 . S
H386 C415 0.950 . S
H387 C416 0.950 . S
H388 C418 0.950 . S
H389 C419 0.950 . S
C390 H372 0.951 . S
C390 C391 1.366 . S
C390 C392 1.388 . S
C391 C390 1.366 . S
C391 C395 1.385 . S
C392 H373 0.951 . S
C392 C390 1.388 . S
C392 C393 1.366 . S
C393 C392 1.366 . S
C393 C394 1.414 . S
C393 C396 1.499 . S
C394 H374 0.950 . S
C394 C393 1.414 . S
C394 C395 1.374 . S
C395 H375 0.950 . S
C395 C391 1.385 . S
C395 C394 1.374 . S
C396 C393 1.499 . S
C396 C397 1.373 . S
C396 C398 1.389 . S
C397 H376 0.950 . S
C397 C396 1.373 . S
C397 C413 1.377 . S
C398 C396 1.389 . S
C398 C399 1.524 . S
C398 C412 1.377 . S
C399 C398 1.524 . S
C399 C400 1.397 . S
C399 C404 1.363 . S
C400 H377 0.950 . S
C400 C399 1.397 . S
C400 C401 1.334 . S
C401 H378 0.950 . S
C401 C400 1.334 . S
C401 C402 1.287 . S
C402 C401 1.287 . S
C402 C403 1.524 . S
C402 H421 0.913 . S
C403 H379 0.950 . S
C403 C402 1.524 . S
C403 C404 1.415 . S
C404 H380 0.950 . S
C404 C399 1.363 . S
C404 C403 1.415 . S
C405 H381 0.951 . S
C405 C406 1.366 . S
C405 C407 1.388 1_565 S
C406 C405 1.366 . S
C406 C410 1.385 . S
C407 H382 0.951 . S
C407 C405 1.388 1_545 S
C407 C408 1.366 . S
C408 C407 1.366 . S
C408 C409 1.414 1_545 S
C408 C411 1.499 . S
C409 H383 0.950 . S
C409 C408 1.414 1_565 S
C409 C410 1.374 . S
C410 H384 0.950 . S
C410 C406 1.385 . S
C410 C409 1.374 . S
C411 C408 1.499 . S
C411 C412 1.373 . S
C411 C413 1.389 . S
C412 H385 0.950 . S
C412 C398 1.377 . S
C412 C411 1.373 . S
C413 C397 1.377 . S
C413 C411 1.389 . S
C413 C414 1.524 . S
C414 C413 1.524 . S
C414 C415 1.397 . S
C414 C419 1.363 . S
C415 H386 0.950 . S
C415 C414 1.397 . S
C415 C416 1.334 . S
C416 H387 0.950 . S
C416 C415 1.334 . S
C416 C417 1.287 . S
C417 C416 1.287 . S
C417 C418 1.524 . S
C417 H420 0.999 . S
C418 H388 0.950 . S
C418 C417 1.524 . S
C418 C419 1.415 . S
C419 H389 0.950 . S
C419 C414 1.363 . S
C419 C418 1.415 . S
H420 C417 0.999 . S
H421 C402 0.913 . S
H422 C440 0.951 . S
H423 C442 0.947 1_455 S
H424 C444 0.950 . S
H425 C445 0.950 . S
H426 C447 0.950 . S
H427 C450 0.950 . S
H428 C451 0.950 1_655 S
H429 C453 0.950 . S
H430 C454 0.950 . S
H431 C455 0.951 . S
H432 C457 0.951 . S
H433 C459 0.950 . S
H434 C460 0.950 . S
H435 C462 0.950 . S
H436 C465 0.950 . S
H437 C466 0.950 . S
H438 C468 0.950 . S
H439 C469 0.950 . S
C440 H422 0.951 . S
C440 C441 1.366 . S
C440 C442 1.407 . S
C441 C440 1.366 . S
C441 C445 1.385 . S
C442 H423 0.947 1_655 S
C442 C440 1.407 . S
C442 C443 1.350 1_655 S
C443 C442 1.350 1_455 S
C443 C444 1.414 . S
C443 C446 1.499 . S
C444 H424 0.950 . S
C444 C443 1.414 . S
C444 C445 1.374 1_455 S
C445 H425 0.950 . S
C445 C441 1.385 . S
C445 C444 1.374 1_655 S
C446 C443 1.499 . S
C446 C447 1.373 . S
C446 C448 1.389 . S
C447 H426 0.950 . S
C447 C446 1.373 . S
C447 C463 1.377 . S
C448 C446 1.389 . S
C448 C449 1.524 . S
C448 C462 1.377 . S
C449 C448 1.524 . S
C449 C450 1.397 . S
C449 C454 1.363 . S
C450 H427 0.950 . S
C450 C449 1.397 . S
C450 C451 1.334 . S
C451 H428 0.950 1_455 S
C451 C450 1.334 . S
C451 C452 1.287 . S
C452 C451 1.287 . S
C452 C453 1.524 . S
C452 H471 0.913 1_455 S
C453 H429 0.950 . S
C453 C452 1.524 . S
C453 C454 1.415 . S
C454 H430 0.950 . S
C454 C449 1.363 . S
C454 C453 1.415 . S
C455 H431 0.951 . S
C455 C456 1.366 . S
C455 C457 1.388 . S
C456 C455 1.366 . S
C456 C460 1.385 . S
C457 H432 0.951 . S
C457 C455 1.388 . S
C457 C458 1.366 . S
C458 C457 1.366 . S
C458 C459 1.414 . S
C458 C461 1.499 . S
C459 H433 0.950 . S
C459 C458 1.414 . S
C459 C460 1.374 . S
C460 H434 0.950 . S
C460 C456 1.385 . S
C460 C459 1.374 . S
C461 C458 1.499 . S
C461 C462 1.373 . S
C461 C463 1.389 . S
C462 H435 0.950 . S
C462 C448 1.377 . S
C462 C461 1.373 . S
C463 C447 1.377 . S
C463 C461 1.389 . S
C463 C464 1.524 . S
C464 C463 1.524 . S
C464 C465 1.397 . S
C464 C469 1.363 . S
C465 H436 0.950 . S
C465 C464 1.397 . S
C465 C466 1.334 . S
C466 H437 0.950 . S
C466 C465 1.334 . S
C466 C467 1.287 . S
C467 C466 1.287 . S
C467 C468 1.524 . S
C467 H470 0.999 . S
C468 H438 0.950 . S
C468 C467 1.524 . S
C468 C469 1.415 . S
C469 H439 0.950 . S
C469 C464 1.363 . S
C469 C468 1.415 . S
H470 C467 0.999 . S
H471 C452 0.913 1_655 S
H472 C490 0.951 . S
H473 C492 0.951 . S
H474 C494 0.950 . S
H475 C495 0.950 . S
H476 C497 0.950 . S
H477 C500 0.950 . S
H478 C501 0.950 . S
H479 C503 0.950 . S
H480 C504 0.950 . S
H481 C505 0.951 . S
H482 C507 0.951 . S
H483 C509 0.950 . S
H484 C510 0.950 . S
H485 C512 0.950 . S
H486 C515 0.950 . S
H487 C516 0.950 . S
H488 C518 0.950 . S
H489 C519 0.950 . S
C490 H472 0.951 . S
C490 C491 1.366 . S
C490 C492 1.388 . S
C491 C490 1.366 . S
C491 C495 1.385 . S
C492 H473 0.951 . S
C492 C490 1.388 . S
C492 C493 1.366 1_565 S
C493 C492 1.366 1_545 S
C493 C494 1.414 . S
C493 C496 1.499 . S
C494 H474 0.950 . S
C494 C493 1.414 . S
C494 C495 1.374 1_545 S
C495 H475 0.950 . S
C495 C491 1.385 . S
C495 C494 1.374 1_565 S
C496 C493 1.499 . S
C496 C497 1.373 . S
C496 C498 1.389 . S
C497 H476 0.950 . S
C497 C496 1.373 . S
C497 C513 1.377 . S
C498 C496 1.389 . S
C498 C499 1.524 . S
C498 C512 1.377 . S
C499 C498 1.524 . S
C499 C500 1.399 . S
C499 C504 1.363 . S
C500 H477 0.950 . S
C500 C499 1.399 . S
C500 C501 1.331 1_545 S
C501 H478 0.950 . S
C501 C500 1.331 1_565 S
C501 C502 1.287 . S
C502 C501 1.287 . S
C502 C503 1.524 . S
C502 H521 0.913 . S
C503 H479 0.950 . S
C503 C502 1.524 . S
C503 C504 1.415 1_565 S
C504 H480 0.950 . S
C504 C499 1.363 . S
C504 C503 1.415 1_545 S
C505 H481 0.951 . S
C505 C506 1.366 . S
C505 C507 1.388 . S
C506 C505 1.366 . S
C506 C510 1.385 . S
C507 H482 0.951 . S
C507 C505 1.388 . S
C507 C508 1.366 . S
C508 C507 1.366 . S
C508 C509 1.414 . S
C508 C511 1.499 . S
C509 H483 0.950 . S
C509 C508 1.414 . S
C509 C510 1.374 . S
C510 H484 0.950 . S
C510 C506 1.385 . S
C510 C509 1.374 . S
C511 C508 1.499 . S
C511 C512 1.373 . S
C511 C513 1.389 . S
C512 H485 0.950 . S
C512 C498 1.377 . S
C512 C511 1.373 . S
C513 C497 1.377 . S
C513 C511 1.389 . S
C513 C514 1.524 . S
C514 C513 1.524 . S
C514 C515 1.397 . S
C514 C519 1.363 . S
C515 H486 0.950 . S
C515 C514 1.397 . S
C515 C516 1.334 . S
C516 H487 0.950 . S
C516 C515 1.334 . S
C516 C517 1.287 . S
C517 C516 1.287 . S
C517 C518 1.524 . S
C517 H520 0.999 . S
C518 H488 0.950 . S
C518 C517 1.524 . S
C518 C519 1.415 . S
C519 H489 0.950 . S
C519 C514 1.363 . S
C519 C518 1.415 . S
H520 C517 0.999 . S
H521 C502 0.913 . S
H522 C540 0.951 . S
H523 C542 0.951 . S
H524 C544 0.950 . S
H525 C545 0.950 . S
H526 C547 0.950 . S
H527 C550 0.950 . S
H528 C551 0.950 . S
H529 C553 0.950 . S
H530 C554 0.950 . S
H531 C555 0.951 . S
H532 C557 0.951 . S
H533 C559 0.950 1_455 S
H534 C560 0.950 . S
H535 C562 0.950 . S
H536 C565 0.950 . S
H537 C566 0.950 . S
H538 C568 0.950 . S
H539 C569 0.950 . S
C540 H522 0.951 . S
C540 C541 1.366 . S
C540 C542 1.388 . S
C541 C540 1.366 . S
C541 C545 1.385 . S
C542 H523 0.951 . S
C542 C540 1.388 . S
C542 C543 1.366 . S
C543 C542 1.366 . S
C543 C544 1.414 . S
C543 C546 1.499 . S
C544 H524 0.950 . S
C544 C543 1.414 . S
C544 C545 1.374 . S
C545 H525 0.950 . S
C545 C541 1.385 . S
C545 C544 1.374 . S
C546 C543 1.499 . S
C546 C547 1.373 . S
C546 C548 1.389 . S
C547 H526 0.950 . S
C547 C546 1.373 . S
C547 C563 1.377 . S
C548 C546 1.389 . S
C548 C549 1.524 . S
C548 C562 1.377 . S
C549 C548 1.524 . S
C549 C550 1.397 . S
C549 C554 1.363 . S
C550 H527 0.950 . S
C550 C549 1.397 . S
C550 C551 1.334 . S
C551 H528 0.950 . S
C551 C550 1.334 . S
C551 C552 1.287 . S
C552 C551 1.287 . S
C552 C553 1.524 . S
C552 H571 0.913 . S
C553 H529 0.950 . S
C553 C552 1.524 . S
C553 C554 1.415 . S
C554 H530 0.950 . S
C554 C549 1.363 . S
C554 C553 1.415 . S
C555 H531 0.951 . S
C555 C556 1.366 . S
C555 C557 1.388 1_655 S
C556 C555 1.366 . S
C556 C560 1.385 . S
C557 H532 0.951 . S
C557 C555 1.388 1_455 S
C557 C558 1.366 . S
C558 C557 1.366 . S
C558 C559 1.414 1_455 S
C558 C561 1.499 . S
C559 H533 0.950 1_655 S
C559 C558 1.414 1_655 S
C559 C560 1.374 . S
C560 H534 0.950 . S
C560 C556 1.385 . S
C560 C559 1.374 . S
C561 C558 1.499 . S
C561 C562 1.373 . S
C561 C563 1.389 . S
C562 H535 0.950 . S
C562 C548 1.377 . S
C562 C561 1.373 . S
C563 C547 1.377 . S
C563 C561 1.389 . S
C563 C564 1.524 . S
C564 C563 1.524 . S
C564 C565 1.397 . S
C564 C569 1.363 . S
C565 H536 0.950 . S
C565 C564 1.397 . S
C565 C566 1.334 . S
C566 H537 0.950 . S
C566 C565 1.334 . S
C566 C567 1.287 . S
C567 C566 1.287 . S
C567 C568 1.524 . S
C567 H570 0.999 . S
C568 H538 0.950 . S
C568 C567 1.524 . S
C568 C569 1.415 . S
C569 H539 0.950 . S
C569 C564 1.363 . S
C569 C568 1.415 . S
H570 C567 0.999 . S
H571 C552 0.913 . S
H572 C590 0.951 . S
H573 C592 0.951 . S
H574 C594 0.950 . S
H575 C595 0.950 . S
H576 C597 0.950 . S
H577 C600 0.950 . S
H578 C601 0.950 1_545 S
H579 C603 0.950 . S
H580 C604 0.950 . S
H581 C605 0.951 . S
H582 C607 0.951 . S
H583 C609 0.950 . S
H584 C610 0.950 . S
H585 C612 0.950 . S
H586 C615 0.950 . S
H587 C616 0.950 . S
H588 C618 0.950 . S
H589 C619 0.950 . S
C590 H572 0.951 . S
C590 C591 1.366 . S
C590 C592 1.388 1_545 S
C591 C590 1.366 . S
C591 C595 1.385 . S
C592 H573 0.951 . S
C592 C590 1.388 1_565 S
C592 C593 1.366 . S
C593 C592 1.366 . S
C593 C594 1.414 1_565 S
C593 C596 1.499 . S
C594 H574 0.950 . S
C594 C593 1.414 1_545 S
C594 C595 1.374 . S
C595 H575 0.950 . S
C595 C591 1.385 . S
C595 C594 1.374 . S
C596 C593 1.499 . S
C596 C597 1.373 . S
C596 C598 1.389 . S
C597 H576 0.950 . S
C597 C596 1.373 . S
C597 C613 1.377 . S
C598 C596 1.389 . S
C598 C599 1.524 . S
C598 C612 1.377 . S
C599 C598 1.524 . S
C599 C600 1.397 . S
C599 C604 1.363 . S
C600 H577 0.950 . S
C600 C599 1.397 . S
C600 C601 1.334 . S
C601 H578 0.950 1_565 S
C601 C600 1.334 . S
C601 C602 1.287 . S
C602 C601 1.287 . S
C602 C603 1.524 . S
C602 H621 0.913 . S
C603 H579 0.950 . S
C603 C602 1.524 . S
C603 C604 1.415 . S
C604 H580 0.950 . S
C604 C599 1.363 . S
C604 C603 1.415 . S
C605 H581 0.951 . S
C605 C606 1.366 . S
C605 C607 1.388 . S
C606 C605 1.366 . S
C606 C610 1.385 . S
C607 H582 0.951 . S
C607 C605 1.388 . S
C607 C608 1.366 . S
C608 C607 1.366 . S
C608 C609 1.414 . S
C608 C611 1.499 . S
C609 H583 0.950 . S
C609 C608 1.414 . S
C609 C610 1.374 . S
C610 H584 0.950 . S
C610 C606 1.385 . S
C610 C609 1.374 . S
C611 C608 1.499 . S
C611 C612 1.373 . S
C611 C613 1.389 . S
C612 H585 0.950 . S
C612 C598 1.377 . S
C612 C611 1.373 . S
C613 C597 1.377 . S
C613 C611 1.389 . S
C613 C614 1.524 . S
C614 C613 1.524 . S
C614 C615 1.397 . S
C614 C619 1.363 . S
C615 H586 0.950 . S
C615 C614 1.397 . S
C615 C616 1.334 . S
C616 H587 0.950 . S
C616 C615 1.334 . S
C616 C617 1.287 . S
C617 C616 1.287 . S
C617 C618 1.524 . S
C617 H620 0.999 . S
C618 H588 0.950 . S
C618 C617 1.524 . S
C618 C619 1.415 . S
C619 H589 0.950 . S
C619 C614 1.363 . S
C619 C618 1.415 . S
H620 C617 0.999 . S
H621 C602 0.913 . S
H622 C640 0.951 . S
H623 C642 0.951 . S
H624 C644 0.950 . S
H625 C645 0.950 . S
H626 C647 0.950 . S
H627 C650 0.950 . S
H628 C651 0.950 . S
H629 C653 0.950 . S
H630 C654 0.950 . S
H631 C655 0.951 . S
H632 C657 0.951 . S
H633 C659 0.945 1_655 S
H634 C660 0.950 . S
H635 C662 0.950 . S
H636 C665 0.950 . S
H637 C666 0.950 . S
H638 C668 0.950 . S
H639 C669 0.950 . S
C640 H622 0.951 . S
C640 C641 1.366 . S
C640 C642 1.388 . S
C641 C640 1.366 . S
C641 C645 1.385 . S
C642 H623 0.951 . S
C642 C640 1.388 . S
C642 C643 1.366 . S
C643 C642 1.366 . S
C643 C644 1.414 . S
C643 C646 1.499 . S
C644 H624 0.950 . S
C644 C643 1.414 . S
C644 C645 1.374 . S
C645 H625 0.950 . S
C645 C641 1.385 . S
C645 C644 1.374 . S
C646 C643 1.499 . S
C646 C647 1.373 . S
C646 C648 1.389 . S
C647 H626 0.950 . S
C647 C646 1.373 . S
C647 C663 1.377 . S
C648 C646 1.389 . S
C648 C649 1.524 . S
C648 C662 1.377 . S
C649 C648 1.524 . S
C649 C650 1.397 . S
C649 C654 1.363 . S
C650 H627 0.950 . S
C650 C649 1.397 . S
C650 C651 1.334 . S
C651 H628 0.950 . S
C651 C650 1.334 . S
C651 C652 1.287 . S
C652 C651 1.287 . S
C652 C653 1.524 . S
C652 H671 0.913 . S
C653 H629 0.950 . S
C653 C652 1.524 . S
C653 C654 1.415 . S
C654 H630 0.950 . S
C654 C649 1.363 . S
C654 C653 1.415 . S
C655 H631 0.951 . S
C655 C656 1.366 . S
C655 C657 1.388 1_455 S
C656 C655 1.366 . S
C656 C660 1.385 . S
C657 H632 0.951 . S
C657 C655 1.388 1_655 S
C657 C658 1.366 . S
C658 C657 1.366 . S
C658 C659 1.395 1_655 S
C658 C661 1.499 . S
C659 H633 0.945 1_455 S
C659 C658 1.395 1_455 S
C659 C660 1.398 . S
C660 H634 0.950 . S
C660 C656 1.385 . S
C660 C659 1.398 . S
C661 C658 1.499 . S
C661 C662 1.373 . S
C661 C663 1.389 . S
C662 H635 0.950 . S
C662 C648 1.377 . S
C662 C661 1.373 . S
C663 C647 1.377 . S
C663 C661 1.389 . S
C663 C664 1.524 . S
C664 C663 1.524 . S
C664 C665 1.397 . S
C664 C669 1.363 . S
C665 H636 0.950 . S
C665 C664 1.397 . S
C665 C666 1.334 . S
C666 H637 0.950 . S
C666 C665 1.334 . S
C666 C667 1.287 . S
C667 C666 1.287 . S
C667 C668 1.524 . S
C667 H670 0.999 . S
C668 H638 0.950 . S
C668 C667 1.524 . S
C668 C669 1.415 . S
C669 H639 0.950 . S
C669 C664 1.363 . S
C669 C668 1.415 . S
H670 C667 0.999 . S
H671 C652 0.913 . S
H672 C690 0.951 . S
H673 C692 0.951 . S
H674 C694 0.950 . S
H675 C695 0.950 . S
H676 C697 0.950 . S
H677 C700 0.950 . S
H678 C701 0.950 . S
H679 C703 0.950 . S
H680 C704 0.950 . S
H681 C705 0.951 . S
H682 C707 0.951 . S
H683 C709 0.950 . S
H684 C710 0.950 . S
H685 C712 0.950 . S
H686 C715 0.950 . S
H687 C716 0.950 . S
H688 C718 0.950 . S
H689 C719 0.950 . S
C690 H672 0.951 . S
C690 C691 1.366 . S
C690 C692 1.388 . S
C691 C690 1.366 . S
C691 C695 1.385 . S
C692 H673 0.951 . S
C692 C690 1.388 . S
C692 C693 1.366 . S
C693 C692 1.366 . S
C693 C694 1.414 . S
C693 C696 1.499 . S
C694 H674 0.950 . S
C694 C693 1.414 . S
C694 C695 1.374 . S
C695 H675 0.950 . S
C695 C691 1.385 . S
C695 C694 1.374 . S
C696 C693 1.499 . S
C696 C697 1.373 . S
C696 C698 1.389 . S
C697 H676 0.950 . S
C697 C696 1.373 . S
C697 C713 1.377 . S
C698 C696 1.389 . S
C698 C699 1.524 . S
C698 C712 1.377 . S
C699 C698 1.524 . S
C699 C700 1.397 . S
C699 C704 1.363 . S
C700 H677 0.950 . S
C700 C699 1.397 . S
C700 C701 1.334 . S
C701 H678 0.950 . S
C701 C700 1.334 . S
C701 C702 1.287 . S
C702 C701 1.287 . S
C702 C703 1.524 . S
C702 H721 0.913 . S
C703 H679 0.950 . S
C703 C702 1.524 . S
C703 C704 1.415 . S
C704 H680 0.950 . S
C704 C699 1.363 . S
C704 C703 1.415 . S
C705 H681 0.951 . S
C705 C706 1.366 . S
C705 C707 1.388 . S
C706 C705 1.366 . S
C706 C710 1.385 . S
C707 H682 0.951 . S
C707 C705 1.388 . S
C707 C708 1.366 . S
C708 C707 1.366 . S
C708 C709 1.414 . S
C708 C711 1.499 . S
C709 H683 0.950 . S
C709 C708 1.414 . S
C709 C710 1.374 . S
C710 H684 0.950 . S
C710 C706 1.385 . S
C710 C709 1.374 . S
C711 C708 1.499 . S
C711 C712 1.373 . S
C711 C713 1.389 . S
C712 H685 0.950 . S
C712 C698 1.377 . S
C712 C711 1.373 . S
C713 C697 1.377 . S
C713 C711 1.389 . S
C713 C714 1.524 . S
C714 C713 1.524 . S
C714 C715 1.397 . S
C714 C719 1.363 . S
C715 H686 0.950 . S
C715 C714 1.397 . S
C715 C716 1.334 . S
C716 H687 0.950 . S
C716 C715 1.334 . S
C716 C717 1.287 . S
C717 C716 1.287 . S
C717 C718 1.524 . S
C717 H720 0.999 . S
C718 H688 0.950 . S
C718 C717 1.524 . S
C718 C719 1.415 . S
C719 H689 0.950 . S
C719 C714 1.363 . S
C719 C718 1.415 . S
H720 C717 0.999 . S
H721 C702 0.913 . S
H722 C740 0.951 . S
H723 C742 0.951 . S
H724 C744 0.950 . S
H725 C745 0.950 . S
H726 C747 0.950 . S
H727 C750 0.950 . S
H728 C751 0.950 . S
H729 C753 0.950 . S
H730 C754 0.950 . S
H731 C755 0.951 . S
H732 C757 0.951 . S
H733 C759 0.950 . S
H734 C760 0.950 . S
H735 C762 0.950 . S
H736 C765 0.950 . S
H737 C766 0.950 . S
H738 C768 0.950 . S
H739 C769 0.950 . S
C740 H722 0.951 . S
C740 C741 1.366 . S
C740 C742 1.388 . S
C741 C740 1.366 . S
C741 C745 1.385 . S
C742 H723 0.951 . S
C742 C740 1.388 . S
C742 C743 1.366 . S
C743 C742 1.366 . S
C743 C744 1.414 . S
C743 C746 1.499 . S
C744 H724 0.950 . S
C744 C743 1.414 . S
C744 C745 1.374 . S
C745 H725 0.950 . S
C745 C741 1.385 . S
C745 C744 1.374 . S
C746 C743 1.499 . S
C746 C747 1.373 . S
C746 C748 1.389 . S
C747 H726 0.950 . S
C747 C746 1.373 . S
C747 C763 1.377 . S
C748 C746 1.389 . S
C748 C749 1.524 . S
C748 C762 1.377 . S
C749 C748 1.524 . S
C749 C750 1.397 . S
C749 C754 1.363 . S
C750 H727 0.950 . S
C750 C749 1.397 . S
C750 C751 1.334 . S
C751 H728 0.950 . S
C751 C750 1.334 . S
C751 C752 1.287 . S
C752 C751 1.287 . S
C752 C753 1.524 . S
C752 H771 0.913 . S
C753 H729 0.950 . S
C753 C752 1.524 . S
C753 C754 1.415 . S
C754 H730 0.950 . S
C754 C749 1.363 . S
C754 C753 1.415 . S
C755 H731 0.951 . S
C755 C756 1.366 . S
C755 C757 1.388 . S
C756 C755 1.366 . S
C756 C760 1.385 . S
C757 H732 0.951 . S
C757 C755 1.388 . S
C757 C758 1.366 . S
C758 C757 1.366 . S
C758 C759 1.414 . S
C758 C761 1.499 . S
C759 H733 0.950 . S
C759 C758 1.414 . S
C759 C760 1.374 . S
C760 H734 0.950 . S
C760 C756 1.385 . S
C760 C759 1.374 . S
C761 C758 1.499 . S
C761 C762 1.373 . S
C761 C763 1.389 . S
C762 H735 0.950 . S
C762 C748 1.377 . S
C762 C761 1.373 . S
C763 C747 1.377 . S
C763 C761 1.389 . S
C763 C764 1.524 . S
C764 C763 1.524 . S
C764 C765 1.397 . S
C764 C769 1.363 . S
C765 H736 0.950 . S
C765 C764 1.397 . S
C765 C766 1.334 . S
C766 H737 0.950 . S
C766 C765 1.334 . S
C766 C767 1.287 . S
C767 C766 1.287 . S
C767 C768 1.524 . S
C767 H770 0.999 . S
C768 H738 0.950 . S
C768 C767 1.524 . S
C768 C769 1.415 . S
C769 H739 0.950 . S
C769 C764 1.363 . S
C769 C768 1.415 . S
H770 C767 0.999 . S
H771 C752 0.913 . S
H772 C790 0.951 . S
H773 C792 0.951 . S
H774 C794 0.950 . S
H775 C795 0.950 . S
H776 C797 0.950 . S
H777 C800 0.950 . S
H778 C801 0.950 . S
H779 C803 0.950 . S
H780 C804 0.950 . S
H781 C805 0.951 . S
H782 C807 0.951 . S
H783 C809 0.950 . S
H784 C810 0.950 . S
H785 C812 0.950 . S
H786 C815 0.950 . S
H787 C816 0.950 . S
H788 C818 0.950 . S
H789 C819 0.950 . S
C790 H772 0.951 . S
C790 C791 1.366 . S
C790 C792 1.388 . S
C791 C790 1.366 . S
C791 C795 1.385 . S
C792 H773 0.951 . S
C792 C790 1.388 . S
C792 C793 1.366 . S
C793 C792 1.366 . S
C793 C794 1.414 . S
C793 C796 1.499 . S
C794 H774 0.950 . S
C794 C793 1.414 . S
C794 C795 1.374 . S
C795 H775 0.950 . S
C795 C791 1.385 . S
C795 C794 1.374 . S
C796 C793 1.499 . S
C796 C797 1.373 . S
C796 C798 1.389 . S
C797 H776 0.950 . S
C797 C796 1.373 . S
C797 C813 1.377 . S
C798 C796 1.389 . S
C798 C799 1.524 . S
C798 C812 1.377 . S
C799 C798 1.524 . S
C799 C800 1.397 . S
C799 C804 1.363 . S
C800 H777 0.950 . S
C800 C799 1.397 . S
C800 C801 1.334 . S
C801 H778 0.950 . S
C801 C800 1.334 . S
C801 C802 1.287 . S
C802 C801 1.287 . S
C802 C803 1.524 . S
C802 H821 0.913 . S
C803 H779 0.950 . S
C803 C802 1.524 . S
C803 C804 1.415 . S
C804 H780 0.950 . S
C804 C799 1.363 . S
C804 C803 1.415 . S
C805 H781 0.951 . S
C805 C806 1.366 . S
C805 C807 1.388 . S
C806 C805 1.366 . S
C806 C810 1.385 . S
C807 H782 0.951 . S
C807 C805 1.388 . S
C807 C808 1.366 . S
C808 C807 1.366 . S
C808 C809 1.414 . S
C808 C811 1.499 . S
C809 H783 0.950 . S
C809 C808 1.414 . S
C809 C810 1.374 . S
C810 H784 0.950 . S
C810 C806 1.385 . S
C810 C809 1.374 . S
C811 C808 1.499 . S
C811 C812 1.373 . S
C811 C813 1.389 . S
C812 H785 0.950 . S
C812 C798 1.377 . S
C812 C811 1.373 . S
C813 C797 1.377 . S
C813 C811 1.389 . S
C813 C814 1.524 . S
C814 C813 1.524 . S
C814 C815 1.397 . S
C814 C819 1.363 . S
C815 H786 0.950 . S
C815 C814 1.397 . S
C815 C816 1.334 . S
C816 H787 0.950 . S
C816 C815 1.334 . S
C816 C817 1.287 . S
C817 C816 1.287 . S
C817 C818 1.524 . S
C817 H820 0.999 . S
C818 H788 0.950 . S
C818 C817 1.524 . S
C818 C819 1.415 . S
C819 H789 0.950 . S
C819 C814 1.363 . S
C819 C818 1.415 . S
H820 C817 0.999 . S
H821 C802 0.913 . S
H822 C840 0.951 . S
H823 C842 0.951 . S
H824 C844 0.950 . S
H825 C845 0.950 . S
H826 C847 0.950 . S
H827 C850 0.950 . S
H828 C851 0.950 . S
H829 C853 0.950 . S
H830 C854 0.950 . S
H831 C855 0.951 . S
H832 C857 0.951 . S
H833 C859 0.950 . S
H834 C860 0.950 . S
H835 C862 0.950 . S
H836 C865 0.950 . S
H837 C866 0.950 . S
H838 C868 0.950 . S
H839 C869 0.950 . S
C840 H822 0.951 . S
C840 C841 1.366 . S
C840 C842 1.388 . S
C841 C840 1.366 . S
C841 C845 1.385 . S
C842 H823 0.951 . S
C842 C840 1.388 . S
C842 C843 1.366 . S
C843 C842 1.366 . S
C843 C844 1.414 . S
C843 C846 1.499 . S
C844 H824 0.950 . S
C844 C843 1.414 . S
C844 C845 1.374 . S
C845 H825 0.950 . S
C845 C841 1.385 . S
C845 C844 1.374 . S
C846 C843 1.499 . S
C846 C847 1.373 . S
C846 C848 1.389 . S
C847 H826 0.950 . S
C847 C846 1.373 . S
C847 C863 1.377 . S
C848 C846 1.389 . S
C848 C849 1.524 . S
C848 C862 1.377 . S
C849 C848 1.524 . S
C849 C850 1.397 . S
C849 C854 1.363 . S
C850 H827 0.950 . S
C850 C849 1.397 . S
C850 C851 1.334 . S
C851 H828 0.950 . S
C851 C850 1.334 . S
C851 C852 1.287 . S
C852 C851 1.287 . S
C852 C853 1.524 . S
C852 H871 0.913 . S
C853 H829 0.950 . S
C853 C852 1.524 . S
C853 C854 1.415 . S
C854 H830 0.950 . S
C854 C849 1.363 . S
C854 C853 1.415 . S
C855 H831 0.951 . S
C855 C856 1.366 . S
C855 C857 1.388 . S
C856 C855 1.366 . S
C856 C860 1.385 . S
C857 H832 0.951 . S
C857 C855 1.388 . S
C857 C858 1.366 . S
C858 C857 1.366 . S
C858 C859 1.414 . S
C858 C861 1.499 . S
C859 H833 0.950 . S
C859 C858 1.414 . S
C859 C860 1.374 . S
C860 H834 0.950 . S
C860 C856 1.385 . S
C860 C859 1.374 . S
C861 C858 1.499 . S
C861 C862 1.373 . S
C861 C863 1.389 . S
C862 H835 0.950 . S
C862 C848 1.377 . S
C862 C861 1.373 . S
C863 C847 1.377 . S
C863 C861 1.389 . S
C863 C864 1.524 . S
C864 C863 1.524 . S
C864 C865 1.397 . S
C864 C869 1.363 . S
C865 H836 0.950 . S
C865 C864 1.397 . S
C865 C866 1.334 . S
C866 H837 0.950 . S
C866 C865 1.334 . S
C866 C867 1.287 . S
C867 C866 1.287 . S
C867 C868 1.524 . S
C867 H870 0.999 . S
C868 H838 0.950 . S
C868 C867 1.524 . S
C868 C869 1.415 . S
C869 H839 0.950 . S
C869 C864 1.363 . S
C869 C868 1.415 . S
H870 C867 0.999 . S
H871 C852 0.913 . S
H872 C890 0.951 . S
H873 C892 0.951 . S
H874 C894 0.950 . S
H875 C895 0.950 . S
H876 C897 0.950 . S
H877 C900 0.950 . S
H878 C901 0.950 . S
H879 C903 0.950 . S
H880 C904 0.950 . S
H881 C905 0.951 . S
H882 C907 0.951 . S
H883 C909 0.950 . S
H884 C910 0.950 . S
H885 C912 0.950 . S
H886 C915 0.950 . S
H887 C916 0.950 . S
H888 C918 0.950 . S
H889 C919 0.950 . S
C890 H872 0.951 . S
C890 C891 1.366 . S
C890 C892 1.388 . S
C891 C890 1.366 . S
C891 C895 1.385 . S
C892 H873 0.951 . S
C892 C890 1.388 . S
C892 C893 1.366 . S
C893 C892 1.366 . S
C893 C894 1.414 . S
C893 C896 1.499 . S
C894 H874 0.950 . S
C894 C893 1.414 . S
C894 C895 1.374 . S
C895 H875 0.950 . S
C895 C891 1.385 . S
C895 C894 1.374 . S
C896 C893 1.499 . S
C896 C897 1.373 . S
C896 C898 1.389 . S
C897 H876 0.950 . S
C897 C896 1.373 . S
C897 C913 1.377 . S
C898 C896 1.389 . S
C898 C899 1.524 . S
C898 C912 1.377 . S
C899 C898 1.524 . S
C899 C900 1.397 . S
C899 C904 1.363 . S
C900 H877 0.950 . S
C900 C899 1.397 . S
C900 C901 1.334 . S
C901 H878 0.950 . S
C901 C900 1.334 . S
C901 C902 1.287 . S
C902 C901 1.287 . S
C902 C903 1.524 . S
C902 H921 0.913 . S
C903 H879 0.950 . S
C903 C902 1.524 . S
C903 C904 1.415 . S
C904 H880 0.950 . S
C904 C899 1.363 . S
C904 C903 1.415 . S
C905 H881 0.951 . S
C905 C906 1.366 . S
C905 C907 1.388 . S
C906 C905 1.366 . S
C906 C910 1.385 . S
C907 H882 0.951 . S
C907 C905 1.388 . S
C907 C908 1.366 . S
C908 C907 1.366 . S
C908 C909 1.414 . S
C908 C911 1.499 . S
C909 H883 0.950 . S
C909 C908 1.414 . S
C909 C910 1.374 . S
C910 H884 0.950 . S
C910 C906 1.385 . S
C910 C909 1.374 . S
C911 C908 1.499 . S
C911 C912 1.373 . S
C911 C913 1.389 . S
C912 H885 0.950 . S
C912 C898 1.377 . S
C912 C911 1.373 . S
C913 C897 1.377 . S
C913 C911 1.389 . S
C913 C914 1.524 . S
C914 C913 1.524 . S
C914 C915 1.397 . S
C914 C919 1.363 . S
C915 H886 0.950 . S
C915 C914 1.397 . S
C915 C916 1.334 . S
C916 H887 0.950 . S
C916 C915 1.334 . S
C916 C917 1.287 . S
C917 C916 1.287 . S
C917 C918 1.524 . S
C917 H920 0.999 . S
C918 H888 0.950 . S
C918 C917 1.524 . S
C918 C919 1.415 . S
C919 H889 0.950 . S
C919 C914 1.363 . S
C919 C918 1.415 . S
H920 C917 0.999 . S
H921 C902 0.913 . S
H922 C940 0.951 . S
H923 C942 0.951 . S
H924 C944 0.950 . S
H925 C945 0.950 . S
H926 C947 0.950 . S
H927 C950 0.950 . S
H928 C951 0.950 . S
H929 C953 0.950 . S
H930 C954 0.950 . S
H931 C955 0.951 . S
H932 C957 0.951 . S
H933 C959 0.950 . S
H934 C960 0.950 . S
H935 C962 0.950 . S
H936 C965 0.950 . S
H937 C966 0.950 . S
H938 C968 0.950 . S
H939 C969 0.950 . S
C940 H922 0.951 . S
C940 C941 1.366 . S
C940 C942 1.388 . S
C941 C940 1.366 . S
C941 C945 1.385 . S
C942 H923 0.951 . S
C942 C940 1.388 . S
C942 C943 1.366 . S
C943 C942 1.366 . S
C943 C944 1.414 . S
C943 C946 1.499 . S
C944 H924 0.950 . S
C944 C943 1.414 . S
C944 C945 1.374 . S
C945 H925 0.950 . S
C945 C941 1.385 . S
C945 C944 1.374 . S
C946 C943 1.499 . S
C946 C947 1.373 . S
C946 C948 1.389 . S
C947 H926 0.950 . S
C947 C946 1.373 . S
C947 C963 1.377 . S
C948 C946 1.389 . S
C948 C949 1.524 . S
C948 C962 1.377 . S
C949 C948 1.524 . S
C949 C950 1.397 . S
C949 C954 1.363 . S
C950 H927 0.950 . S
C950 C949 1.397 . S
C950 C951 1.334 . S
C951 H928 0.950 . S
C951 C950 1.334 . S
C951 C952 1.287 . S
C952 C951 1.287 . S
C952 C953 1.524 . S
C952 H971 0.913 . S
C953 H929 0.950 . S
C953 C952 1.524 . S
C953 C954 1.415 . S
C954 H930 0.950 . S
C954 C949 1.363 . S
C954 C953 1.415 . S
C955 H931 0.951 . S
C955 C956 1.366 . S
C955 C957 1.388 . S
C956 C955 1.366 . S
C956 C960 1.385 . S
C957 H932 0.951 . S
C957 C955 1.388 . S
C957 C958 1.366 . S
C958 C957 1.366 . S
C958 C959 1.414 . S
C958 C961 1.499 . S
C959 H933 0.950 . S
C959 C958 1.414 . S
C959 C960 1.374 . S
C960 H934 0.950 . S
C960 C956 1.385 . S
C960 C959 1.374 . S
C961 C958 1.499 . S
C961 C962 1.373 . S
C961 C963 1.389 . S
C962 H935 0.950 . S
C962 C948 1.377 . S
C962 C961 1.373 . S
C963 C947 1.377 . S
C963 C961 1.389 . S
C963 C964 1.524 . S
C964 C963 1.524 . S
C964 C965 1.397 . S
C964 C969 1.363 . S
C965 H936 0.950 . S
C965 C964 1.397 . S
C965 C966 1.334 . S
C966 H937 0.950 . S
C966 C965 1.334 . S
C966 C967 1.287 . S
C967 C966 1.287 . S
C967 C968 1.524 . S
C967 H970 0.999 . S
C968 H938 0.950 . S
C968 C967 1.524 . S
C968 C969 1.415 . S
C969 H939 0.950 . S
C969 C964 1.363 . S
C969 C968 1.415 . S
H970 C967 0.999 . S
H971 C952 0.913 . S
H972 C990 0.951 . S
H973 C992 0.951 . S
H974 C994 0.950 . S
H975 C995 0.950 . S
H976 C997 0.950 . S
H977 C1000 0.950 . S
H978 C1001 0.950 . S
H979 C1003 0.950 . S
H980 C1004 0.950 . S
H981 C1005 0.951 . S
H982 C1007 0.951 . S
H983 C1009 0.950 . S
H984 C1010 0.950 . S
H985 C1012 0.950 . S
H986 C1015 0.950 . S
H987 C1016 0.950 . S
H988 C1018 0.950 . S
H989 C1019 0.950 . S
C990 H972 0.951 . S
C990 C991 1.366 . S
C990 C992 1.388 . S
C991 C990 1.366 . S
C991 C995 1.385 . S
C992 H973 0.951 . S
C992 C990 1.388 . S
C992 C993 1.366 . S
C993 C992 1.366 . S
C993 C994 1.414 . S
C993 C996 1.499 . S
C994 H974 0.950 . S
C994 C993 1.414 . S
C994 C995 1.374 . S
C995 H975 0.950 . S
C995 C991 1.385 . S
C995 C994 1.374 . S
C996 C993 1.499 . S
C996 C997 1.373 . S
C996 C998 1.389 . S
C997 H976 0.950 . S
C997 C996 1.373 . S
C997 C1013 1.377 . S
C998 C996 1.389 . S
C998 C999 1.524 . S
C998 C1012 1.377 . S
C999 C998 1.524 . S
C999 C1000 1.397 . S
C999 C1004 1.363 . S
C1000 H977 0.950 . S
C1000 C999 1.397 . S
C1000 C1001 1.334 . S
C1001 H978 0.950 . S
C1001 C1000 1.334 . S
C1001 C1002 1.287 . S
C1002 C1001 1.287 . S
C1002 C1003 1.524 . S
C1002 H1021 0.913 . S
C1003 H979 0.950 . S
C1003 C1002 1.524 . S
C1003 C1004 1.415 . S
C1004 H980 0.950 . S
C1004 C999 1.363 . S
C1004 C1003 1.415 . S
C1005 H981 0.951 . S
C1005 C1006 1.366 . S
C1005 C1007 1.388 . S
C1006 C1005 1.366 . S
C1006 C1010 1.385 . S
C1007 H982 0.951 . S
C1007 C1005 1.388 . S
C1007 C1008 1.366 . S
C1008 C1007 1.366 . S
C1008 C1009 1.414 . S
C1008 C1011 1.499 . S
C1009 H983 0.950 . S
C1009 C1008 1.414 . S
C1009 C1010 1.374 . S
C1010 H984 0.950 . S
C1010 C1006 1.385 . S
C1010 C1009 1.374 . S
C1011 C1008 1.499 . S
C1011 C1012 1.373 . S
C1011 C1013 1.389 . S
C1012 H985 0.950 . S
C1012 C998 1.377 . S
C1012 C1011 1.373 . S
C1013 C997 1.377 . S
C1013 C1011 1.389 . S
C1013 C1014 1.524 . S
C1014 C1013 1.524 . S
C1014 C1015 1.397 . S
C1014 C1019 1.363 . S
C1015 H986 0.950 . S
C1015 C1014 1.397 . S
C1015 C1016 1.334 . S
C1016 H987 0.950 . S
C1016 C1015 1.334 . S
C1016 C1017 1.287 . S
C1017 C1016 1.287 . S
C1017 C1018 1.524 . S
C1017 H1020 0.999 . S
C1018 H988 0.950 . S
C1018 C1017 1.524 . S
C1018 C1019 1.415 . S
C1019 H989 0.950 . S
C1019 C1014 1.363 . S
C1019 C1018 1.415 . S
H1020 C1017 0.999 . S
H1021 C1002 0.913 . S
H1022 C1040 0.951 . S
H1023 C1042 0.951 . S
H1024 C1044 0.950 . S
H1025 C1045 0.950 . S
H1026 C1047 0.950 . S
H1027 C1050 0.950 . S
H1028 C1051 0.950 . S
H1029 C1053 0.950 . S
H1030 C1054 0.950 . S
H1031 C1055 0.951 . S
H1032 C1057 0.951 . S
H1033 C1059 0.950 . S
H1034 C1060 0.950 . S
H1035 C1062 0.950 . S
H1036 C1065 0.950 . S
H1037 C1066 0.950 . S
H1038 C1068 0.950 . S
H1039 C1069 0.950 . S
C1040 H1022 0.951 . S
C1040 C1041 1.366 . S
C1040 C1042 1.388 . S
C1041 C1040 1.366 . S
C1041 C1045 1.385 . S
C1042 H1023 0.951 . S
C1042 C1040 1.388 . S
C1042 C1043 1.366 . S
C1043 C1042 1.366 . S
C1043 C1044 1.414 . S
C1043 C1046 1.499 . S
C1044 H1024 0.950 . S
C1044 C1043 1.414 . S
C1044 C1045 1.374 . S
C1045 H1025 0.950 . S
C1045 C1041 1.385 . S
C1045 C1044 1.374 . S
C1046 C1043 1.499 . S
C1046 C1047 1.373 . S
C1046 C1048 1.389 . S
C1047 H1026 0.950 . S
C1047 C1046 1.373 . S
C1047 C1063 1.377 . S
C1048 C1046 1.389 . S
C1048 C1049 1.524 . S
C1048 C1062 1.377 . S
C1049 C1048 1.524 . S
C1049 C1050 1.397 . S
C1049 C1054 1.363 . S
C1050 H1027 0.950 . S
C1050 C1049 1.397 . S
C1050 C1051 1.334 . S
C1051 H1028 0.950 . S
C1051 C1050 1.334 . S
C1051 C1052 1.287 . S
C1052 C1051 1.287 . S
C1052 C1053 1.524 . S
C1052 H1071 0.913 . S
C1053 H1029 0.950 . S
C1053 C1052 1.524 . S
C1053 C1054 1.415 . S
C1054 H1030 0.950 . S
C1054 C1049 1.363 . S
C1054 C1053 1.415 . S
C1055 H1031 0.951 . S
C1055 C1056 1.366 . S
C1055 C1057 1.388 . S
C1056 C1055 1.366 . S
C1056 C1060 1.385 . S
C1057 H1032 0.951 . S
C1057 C1055 1.388 . S
C1057 C1058 1.366 . S
C1058 C1057 1.366 . S
C1058 C1059 1.414 . S
C1058 C1061 1.499 . S
C1059 H1033 0.950 . S
C1059 C1058 1.414 . S
C1059 C1060 1.374 . S
C1060 H1034 0.950 . S
C1060 C1056 1.385 . S
C1060 C1059 1.374 . S
C1061 C1058 1.499 . S
C1061 C1062 1.373 . S
C1061 C1063 1.389 . S
C1062 H1035 0.950 . S
C1062 C1048 1.377 . S
C1062 C1061 1.373 . S
C1063 C1047 1.377 . S
C1063 C1061 1.389 . S
C1063 C1064 1.524 . S
C1064 C1063 1.524 . S
C1064 C1065 1.397 . S
C1064 C1069 1.363 . S
C1065 H1036 0.950 . S
C1065 C1064 1.397 . S
C1065 C1066 1.334 . S
C1066 H1037 0.950 . S
C1066 C1065 1.334 . S
C1066 C1067 1.287 . S
C1067 C1066 1.287 . S
C1067 C1068 1.524 . S
C1067 H1070 0.999 . S
C1068 H1038 0.950 . S
C1068 C1067 1.524 . S
C1068 C1069 1.415 . S
C1069 H1039 0.950 . S
C1069 C1064 1.363 . S
C1069 C1068 1.415 . S
H1070 C1067 0.999 . S
H1071 C1052 0.913 . S
H1072 C1090 0.951 . S
H1073 C1092 0.951 . S
H1074 C1094 0.950 . S
H1075 C1095 0.950 . S
H1076 C1097 0.950 . S
H1077 C1100 0.950 . S
H1078 C1101 0.950 . S
H1079 C1103 0.950 . S
H1080 C1104 0.950 1_565 S
H1081 C1105 0.951 . S
H1082 C1107 0.951 . S
H1083 C1109 0.950 . S
H1084 C1110 0.950 . S
H1085 C1112 0.950 . S
H1086 C1115 0.950 . S
H1087 C1116 0.950 . S
H1088 C1118 0.950 . S
H1089 C1119 0.950 1_545 S
C1090 H1072 0.951 . S
C1090 C1091 1.366 . S
C1090 C1092 1.388 . S
C1091 C1090 1.366 . S
C1091 C1095 1.385 . S
C1092 H1073 0.951 . S
C1092 C1090 1.388 . S
C1092 C1093 1.366 . S
C1093 C1092 1.366 . S
C1093 C1094 1.414 . S
C1093 C1096 1.499 . S
C1094 H1074 0.950 . S
C1094 C1093 1.414 . S
C1094 C1095 1.374 . S
C1095 H1075 0.950 . S
C1095 C1091 1.385 . S
C1095 C1094 1.374 . S
C1096 C1093 1.499 . S
C1096 C1097 1.373 . S
C1096 C1098 1.389 . S
C1097 H1076 0.950 . S
C1097 C1096 1.373 . S
C1097 C1113 1.377 1_445 S
C1098 C1096 1.389 . S
C1098 C1099 1.524 . S
C1098 C1112 1.377 1_445 S
C1099 C1098 1.524 . S
C1099 C1100 1.397 . S
C1099 C1104 1.363 . S
C1100 H1077 0.950 . S
C1100 C1099 1.397 . S
C1100 C1101 1.334 . S
C1101 H1078 0.950 . S
C1101 C1100 1.334 . S
C1101 C1102 1.287 . S
C1102 C1101 1.287 . S
C1102 C1103 1.524 . S
C1102 H1121 0.913 . S
C1103 H1079 0.950 . S
C1103 C1102 1.524 . S
C1103 C1104 1.415 . S
C1104 H1080 0.950 1_545 S
C1104 C1099 1.363 . S
C1104 C1103 1.415 . S
C1105 H1081 0.951 . S
C1105 C1106 1.366 . S
C1105 C1107 1.388 . S
C1106 C1105 1.366 . S
C1106 C1110 1.385 . S
C1107 H1082 0.951 . S
C1107 C1105 1.388 . S
C1107 C1108 1.366 . S
C1108 C1107 1.366 . S
C1108 C1109 1.414 . S
C1108 C1111 1.499 . S
C1109 H1083 0.950 . S
C1109 C1108 1.414 . S
C1109 C1110 1.374 . S
C1110 H1084 0.950 . S
C1110 C1106 1.385 . S
C1110 C1109 1.374 . S
C1111 C1108 1.499 . S
C1111 C1112 1.373 . S
C1111 C1113 1.389 . S
C1112 H1085 0.950 . S
C1112 C1098 1.377 1_665 S
C1112 C1111 1.373 . S
C1113 C1097 1.377 1_665 S
C1113 C1111 1.389 . S
C1113 C1114 1.524 . S
C1114 C1113 1.524 . S
C1114 C1115 1.397 . S
C1114 C1119 1.363 . S
C1115 H1086 0.950 . S
C1115 C1114 1.397 . S
C1115 C1116 1.334 . S
C1116 H1087 0.950 . S
C1116 C1115 1.334 . S
C1116 C1117 1.287 . S
C1117 C1116 1.287 . S
C1117 C1118 1.524 . S
C1117 H1120 0.999 . S
C1118 H1088 0.950 . S
C1118 C1117 1.524 . S
C1118 C1119 1.415 . S
C1119 H1089 0.950 1_565 S
C1119 C1114 1.363 . S
C1119 C1118 1.415 . S
H1120 C1117 0.999 . S
H1121 C1102 0.913 . S
H1122 C1140 0.951 . S
H1123 C1142 0.951 . S
H1124 C1144 0.950 . S
H1125 C1145 0.950 . S
H1126 C1147 0.950 . S
H1127 C1150 0.950 . S
H1128 C1151 0.934 1_545 S
H1129 C1153 0.950 . S
H1130 C1154 0.950 . S
H1131 C1155 0.951 . S
H1132 C1157 0.951 . S
H1133 C1159 0.950 . S
H1134 C1160 0.950 . S
H1135 C1162 0.950 . S
H1136 C1165 0.950 . S
H1137 C1166 0.934 1_565 S
H1138 C1168 0.950 . S
H1139 C1169 0.950 . S
C1140 H1122 0.951 . S
C1140 C1141 1.366 . S
C1140 C1142 1.388 . S
C1141 C1140 1.366 . S
C1141 C1145 1.385 . S
C1142 H1123 0.951 . S
C1142 C1140 1.388 . S
C1142 C1143 1.366 . S
C1143 C1142 1.366 . S
C1143 C1144 1.414 . S
C1143 C1146 1.499 . S
C1144 H1124 0.950 . S
C1144 C1143 1.414 . S
C1144 C1145 1.374 . S
C1145 H1125 0.950 . S
C1145 C1141 1.385 . S
C1145 C1144 1.374 . S
C1146 C1143 1.499 . S
C1146 C1147 1.373 1_655 S
C1146 C1148 1.389 1_545 S
C1147 H1126 0.950 . S
C1147 C1146 1.373 1_455 S
C1147 C1163 1.377 . S
C1148 C1146 1.389 1_565 S
C1148 C1149 1.524 . S
C1148 C1162 1.377 . S
C1149 C1148 1.524 . S
C1149 C1150 1.397 1_565 S
C1149 C1154 1.363 . S
C1150 H1127 0.950 . S
C1150 C1149 1.397 1_545 S
C1150 C1151 1.329 1_545 S
C1151 H1128 0.934 1_565 S
C1151 C1150 1.329 1_565 S
C1151 C1152 1.309 . S
C1152 C1151 1.309 . S
C1152 C1153 1.524 . S
C1152 H1171 0.913 . S
C1153 H1129 0.950 . S
C1153 C1152 1.524 . S
C1153 C1154 1.415 . S
C1154 H1130 0.950 . S
C1154 C1149 1.363 . S
C1154 C1153 1.415 . S
C1155 H1131 0.951 . S
C1155 C1156 1.366 . S
C1155 C1157 1.388 . S
C1156 C1155 1.366 . S
C1156 C1160 1.385 . S
C1157 H1132 0.951 . S
C1157 C1155 1.388 . S
C1157 C1158 1.366 . S
C1158 C1157 1.366 . S
C1158 C1159 1.414 . S
C1158 C1161 1.499 . S
C1159 H1133 0.950 . S
C1159 C1158 1.414 . S
C1159 C1160 1.374 . S
C1160 H1134 0.950 . S
C1160 C1156 1.385 . S
C1160 C1159 1.374 . S
C1161 C1158 1.499 . S
C1161 C1162 1.373 1_455 S
C1161 C1163 1.389 1_565 S
C1162 H1135 0.950 . S
C1162 C1148 1.377 . S
C1162 C1161 1.373 1_655 S
C1163 C1147 1.377 . S
C1163 C1161 1.389 1_545 S
C1163 C1164 1.524 . S
C1164 C1163 1.524 . S
C1164 C1165 1.397 1_545 S
C1164 C1169 1.363 . S
C1165 H1136 0.950 . S
C1165 C1164 1.397 1_565 S
C1165 C1166 1.329 1_565 S
C1166 H1137 0.934 1_545 S
C1166 C1165 1.329 1_545 S
C1166 C1167 1.309 . S
C1167 C1166 1.309 . S
C1167 C1168 1.524 . S
C1167 H1170 0.999 . S
C1168 H1138 0.950 . S
C1168 C1167 1.524 . S
C1168 C1169 1.415 . S
C1169 H1139 0.950 . S
C1169 C1164 1.363 . S
C1169 C1168 1.415 . S
H1170 C1167 0.999 . S
H1171 C1152 0.913 . S
H1172 C1190 0.951 . S
H1173 C1192 0.951 . S
H1174 C1194 0.950 . S
H1175 C1195 0.950 . S
H1176 C1197 0.950 . S
H1177 C1200 0.950 . S
H1178 C1201 0.950 . S
H1179 C1203 0.950 . S
H1180 C1204 0.950 . S
H1181 C1205 0.951 . S
H1182 C1207 0.951 . S
H1183 C1209 0.950 . S
H1184 C1210 0.950 . S
H1185 C1212 0.950 . S
H1186 C1215 0.950 . S
H1187 C1216 0.950 . S
H1188 C1218 0.950 . S
H1189 C1219 0.950 . S
C1190 H1172 0.951 . S
C1190 C1191 1.366 . S
C1190 C1192 1.388 . S
C1191 C1190 1.366 . S
C1191 C1195 1.385 . S
C1192 H1173 0.951 . S
C1192 C1190 1.388 . S
C1192 C1193 1.366 . S
C1193 C1192 1.366 . S
C1193 C1194 1.414 . S
C1193 C1196 1.499 . S
C1194 H1174 0.950 . S
C1194 C1193 1.414 . S
C1194 C1195 1.374 . S
C1195 H1175 0.950 . S
C1195 C1191 1.385 . S
C1195 C1194 1.374 . S
C1196 C1193 1.499 . S
C1196 C1197 1.373 . S
C1196 C1198 1.389 . S
C1197 H1176 0.950 . S
C1197 C1196 1.373 . S
C1197 C1213 1.377 . S
C1198 C1196 1.389 . S
C1198 C1199 1.524 . S
C1198 C1212 1.377 . S
C1199 C1198 1.524 . S
C1199 C1200 1.397 . S
C1199 C1204 1.363 . S
C1200 H1177 0.950 . S
C1200 C1199 1.397 . S
C1200 C1201 1.334 . S
C1201 H1178 0.950 . S
C1201 C1200 1.334 . S
C1201 C1202 1.287 . S
C1202 C1201 1.287 . S
C1202 C1203 1.524 . S
C1202 H1221 0.913 . S
C1203 H1179 0.950 . S
C1203 C1202 1.524 . S
C1203 C1204 1.415 . S
C1204 H1180 0.950 . S
C1204 C1199 1.363 . S
C1204 C1203 1.415 . S
C1205 H1181 0.951 . S
C1205 C1206 1.366 . S
C1205 C1207 1.388 . S
C1206 C1205 1.366 . S
C1206 C1210 1.385 . S
C1207 H1182 0.951 . S
C1207 C1205 1.388 . S
C1207 C1208 1.366 . S
C1208 C1207 1.366 . S
C1208 C1209 1.414 . S
C1208 C1211 1.499 . S
C1209 H1183 0.950 . S
C1209 C1208 1.414 . S
C1209 C1210 1.374 . S
C1210 H1184 0.950 . S
C1210 C1206 1.385 . S
C1210 C1209 1.374 . S
C1211 C1208 1.499 . S
C1211 C1212 1.373 . S
C1211 C1213 1.389 . S
C1212 H1185 0.950 . S
C1212 C1198 1.377 . S
C1212 C1211 1.373 . S
C1213 C1197 1.377 . S
C1213 C1211 1.389 . S
C1213 C1214 1.524 . S
C1214 C1213 1.524 . S
C1214 C1215 1.397 . S
C1214 C1219 1.363 . S
C1215 H1186 0.950 . S
C1215 C1214 1.397 . S
C1215 C1216 1.334 . S
C1216 H1187 0.950 . S
C1216 C1215 1.334 . S
C1216 C1217 1.287 . S
C1217 C1216 1.287 . S
C1217 C1218 1.524 . S
C1217 H1220 0.999 . S
C1218 H1188 0.950 . S
C1218 C1217 1.524 . S
C1218 C1219 1.415 . S
C1219 H1189 0.950 . S
C1219 C1214 1.363 . S
C1219 C1218 1.415 . S
H1220 C1217 0.999 . S
H1221 C1202 0.913 . S
H1222 C1240 0.951 . S
H1223 C1242 0.951 . S
H1224 C1244 0.950 . S
H1225 C1245 0.950 . S
H1226 C1247 0.950 . S
H1227 C1250 0.950 . S
H1228 C1251 0.950 . S
H1229 C1253 0.950 . S
H1230 C1254 0.950 . S
H1231 C1255 0.951 . S
H1232 C1257 0.951 . S
H1233 C1259 0.950 . S
H1234 C1260 0.950 . S
H1235 C1262 0.950 . S
H1236 C1265 0.950 . S
H1237 C1266 0.950 . S
H1238 C1268 0.950 . S
H1239 C1269 0.950 . S
C1240 H1222 0.951 . S
C1240 C1241 1.366 . S
C1240 C1242 1.388 . S
C1241 C1240 1.366 . S
C1241 C1245 1.385 . S
C1242 H1223 0.951 . S
C1242 C1240 1.388 . S
C1242 C1243 1.366 . S
C1243 C1242 1.366 . S
C1243 C1244 1.414 . S
C1243 C1246 1.499 . S
C1244 H1224 0.950 . S
C1244 C1243 1.414 . S
C1244 C1245 1.374 . S
C1245 H1225 0.950 . S
C1245 C1241 1.385 . S
C1245 C1244 1.374 . S
C1246 C1243 1.499 . S
C1246 C1247 1.373 . S
C1246 C1248 1.389 . S
C1247 H1226 0.950 . S
C1247 C1246 1.373 . S
C1247 C1263 1.377 . S
C1248 C1246 1.389 . S
C1248 C1249 1.524 . S
C1248 C1262 1.377 . S
C1249 C1248 1.524 . S
C1249 C1250 1.397 . S
C1249 C1254 1.363 . S
C1250 H1227 0.950 . S
C1250 C1249 1.397 . S
C1250 C1251 1.334 . S
C1251 H1228 0.950 . S
C1251 C1250 1.334 . S
C1251 C1252 1.287 . S
C1252 C1251 1.287 . S
C1252 C1253 1.524 . S
C1252 H1271 0.913 . S
C1253 H1229 0.950 . S
C1253 C1252 1.524 . S
C1253 C1254 1.415 . S
C1254 H1230 0.950 . S
C1254 C1249 1.363 . S
C1254 C1253 1.415 . S
C1255 H1231 0.951 . S
C1255 C1256 1.366 . S
C1255 C1257 1.388 . S
C1256 C1255 1.366 . S
C1256 C1260 1.385 . S
C1257 H1232 0.951 . S
C1257 C1255 1.388 . S
C1257 C1258 1.366 . S
C1258 C1257 1.366 . S
C1258 C1259 1.414 . S
C1258 C1261 1.499 . S
C1259 H1233 0.950 . S
C1259 C1258 1.414 . S
C1259 C1260 1.374 . S
C1260 H1234 0.950 . S
C1260 C1256 1.385 . S
C1260 C1259 1.374 . S
C1261 C1258 1.499 . S
C1261 C1262 1.373 . S
C1261 C1263 1.389 . S
C1262 H1235 0.950 . S
C1262 C1248 1.377 . S
C1262 C1261 1.373 . S
C1263 C1247 1.377 . S
C1263 C1261 1.389 . S
C1263 C1264 1.524 . S
C1264 C1263 1.524 . S
C1264 C1265 1.397 . S
C1264 C1269 1.363 . S
C1265 H1236 0.950 . S
C1265 C1264 1.397 . S
C1265 C1266 1.334 . S
C1266 H1237 0.950 . S
C1266 C1265 1.334 . S
C1266 C1267 1.287 . S
C1267 C1266 1.287 . S
C1267 C1268 1.524 . S
C1267 H1270 0.999 . S
C1268 H1238 0.950 . S
C1268 C1267 1.524 . S
C1268 C1269 1.415 . S
C1269 H1239 0.950 . S
C1269 C1264 1.363 . S
C1269 C1268 1.415 . S
H1270 C1267 0.999 . S
H1271 C1252 0.913 . S
H1272 C1290 0.951 . S
H1273 C1292 0.951 . S
H1274 C1294 0.950 . S
H1275 C1295 0.950 . S
H1276 C1297 0.950 . S
H1277 C1300 0.950 1_554 S
H1278 C1301 0.950 . S
H1279 C1303 0.950 . S
H1280 C1304 0.950 . S
H1281 C1305 0.951 . S
H1282 C1307 0.951 . S
H1283 C1309 0.950 . S
H1284 C1310 0.950 . S
H1285 C1312 0.950 . S
H1286 C1315 0.950 1_556 S
H1287 C1316 0.950 . S
H1288 C1318 0.950 . S
H1289 C1319 0.950 . S
C1290 H1272 0.951 . S
C1290 C1291 1.366 . S
C1290 C1292 1.388 . S
C1291 C1290 1.366 . S
C1291 C1295 1.385 . S
C1292 H1273 0.951 . S
C1292 C1290 1.388 . S
C1292 C1293 1.366 . S
C1293 C1292 1.366 . S
C1293 C1294 1.414 . S
C1293 C1296 1.499 . S
C1294 H1274 0.950 . S
C1294 C1293 1.414 . S
C1294 C1295 1.374 . S
C1295 H1275 0.950 . S
C1295 C1291 1.385 . S
C1295 C1294 1.374 . S
C1296 C1293 1.499 . S
C1296 C1297 1.373 1_545 S
C1296 C1298 1.389 1_554 S
C1297 H1276 0.950 . S
C1297 C1296 1.373 1_565 S
C1297 C1313 1.377 . S
C1298 C1296 1.389 1_556 S
C1298 C1299 1.524 . S
C1298 C1312 1.377 . S
C1299 C1298 1.524 . S
C1299 C1300 1.397 . S
C1299 C1304 1.363 . S
C1300 H1277 0.950 1_556 S
C1300 C1299 1.397 . S
C1300 C1301 1.334 . S
C1301 H1278 0.950 . S
C1301 C1300 1.334 . S
C1301 C1302 1.287 . S
C1302 C1301 1.287 . S
C1302 C1303 1.524 . S
C1302 H1321 0.913 . S
C1303 H1279 0.950 . S
C1303 C1302 1.524 . S
C1303 C1304 1.415 . S
C1304 H1280 0.950 . S
C1304 C1299 1.363 . S
C1304 C1303 1.415 . S
C1305 H1281 0.951 . S
C1305 C1306 1.366 . S
C1305 C1307 1.388 . S
C1306 C1305 1.366 . S
C1306 C1310 1.385 . S
C1307 H1282 0.951 . S
C1307 C1305 1.388 . S
C1307 C1308 1.366 . S
C1308 C1307 1.366 . S
C1308 C1309 1.414 . S
C1308 C1311 1.499 . S
C1309 H1283 0.950 . S
C1309 C1308 1.414 . S
C1309 C1310 1.374 . S
C1310 H1284 0.950 . S
C1310 C1306 1.385 . S
C1310 C1309 1.374 . S
C1311 C1308 1.499 . S
C1311 C1312 1.373 1_565 S
C1311 C1313 1.389 1_556 S
C1312 H1285 0.950 . S
C1312 C1298 1.377 . S
C1312 C1311 1.373 1_545 S
C1313 C1297 1.377 . S
C1313 C1311 1.389 1_554 S
C1313 C1314 1.524 . S
C1314 C1313 1.524 . S
C1314 C1315 1.397 . S
C1314 C1319 1.363 . S
C1315 H1286 0.950 1_554 S
C1315 C1314 1.397 . S
C1315 C1316 1.334 . S
C1316 H1287 0.950 . S
C1316 C1315 1.334 . S
C1316 C1317 1.287 . S
C1317 C1316 1.287 . S
C1317 C1318 1.524 . S
C1317 H1320 0.999 . S
C1318 H1288 0.950 . S
C1318 C1317 1.524 . S
C1318 C1319 1.415 . S
C1319 H1289 0.950 . S
C1319 C1314 1.363 . S
C1319 C1318 1.415 . S
H1320 C1317 0.999 . S
H1321 C1302 0.913 . S
H1322 C1340 0.951 . S
H1323 C1342 0.951 . S
H1324 C1344 0.950 . S
H1325 C1345 0.950 . S
H1326 C1347 0.950 . S
H1327 C1350 0.950 . S
H1328 C1351 0.950 . S
H1329 C1353 0.950 . S
H1330 C1354 0.950 . S
H1331 C1355 0.951 . S
H1332 C1357 0.951 . S
H1333 C1359 0.950 . S
H1334 C1360 0.950 . S
H1335 C1362 0.950 . S
H1336 C1365 0.950 . S
H1337 C1366 0.950 . S
H1338 C1368 0.950 . S
H1339 C1369 0.950 . S
C1340 H1322 0.951 . S
C1340 C1341 1.366 . S
C1340 C1342 1.388 . S
C1341 C1340 1.366 . S
C1341 C1345 1.385 . S
C1342 H1323 0.951 . S
C1342 C1340 1.388 . S
C1342 C1343 1.366 . S
C1343 C1342 1.366 . S
C1343 C1344 1.414 . S
C1343 C1346 1.499 . S
C1344 H1324 0.950 . S
C1344 C1343 1.414 . S
C1344 C1345 1.374 . S
C1345 H1325 0.950 . S
C1345 C1341 1.385 . S
C1345 C1344 1.374 . S
C1346 C1343 1.499 . S
C1346 C1347 1.373 1_556 S
C1346 C1348 1.389 1_455 S
C1347 H1326 0.950 . S
C1347 C1346 1.373 1_554 S
C1347 C1363 1.377 . S
C1348 C1346 1.389 1_655 S
C1348 C1349 1.524 . S
C1348 C1362 1.377 . S
C1349 C1348 1.524 . S
C1349 C1350 1.397 1_655 S
C1349 C1354 1.363 . S
C1350 H1327 0.950 . S
C1350 C1349 1.397 1_455 S
C1350 C1351 1.334 . S
C1351 H1328 0.950 . S
C1351 C1350 1.334 . S
C1351 C1352 1.287 1_455 S
C1352 C1351 1.287 1_655 S
C1352 C1353 1.524 . S
C1352 H1371 0.913 . S
C1353 H1329 0.950 . S
C1353 C1352 1.524 . S
C1353 C1354 1.415 . S
C1354 H1330 0.950 . S
C1354 C1349 1.363 . S
C1354 C1353 1.415 . S
C1355 H1331 0.951 . S
C1355 C1356 1.366 . S
C1355 C1357 1.388 . S
C1356 C1355 1.366 . S
C1356 C1360 1.385 . S
C1357 H1332 0.951 . S
C1357 C1355 1.388 . S
C1357 C1358 1.366 . S
C1358 C1357 1.366 . S
C1358 C1359 1.414 . S
C1358 C1361 1.499 . S
C1359 H1333 0.950 . S
C1359 C1358 1.414 . S
C1359 C1360 1.374 . S
C1360 H1334 0.950 . S
C1360 C1356 1.385 . S
C1360 C1359 1.374 . S
C1361 C1358 1.499 . S
C1361 C1362 1.373 1_554 S
C1361 C1363 1.389 1_655 S
C1362 H1335 0.950 . S
C1362 C1348 1.377 . S
C1362 C1361 1.373 1_556 S
C1363 C1347 1.377 . S
C1363 C1361 1.389 1_455 S
C1363 C1364 1.524 . S
C1364 C1363 1.524 . S
C1364 C1365 1.397 1_455 S
C1364 C1369 1.363 . S
C1365 H1336 0.950 . S
C1365 C1364 1.397 1_655 S
C1365 C1366 1.334 . S
C1366 H1337 0.950 . S
C1366 C1365 1.334 . S
C1366 C1367 1.287 1_655 S
C1367 C1366 1.287 1_455 S
C1367 C1368 1.524 . S
C1367 H1370 0.999 . S
C1368 H1338 0.950 . S
C1368 C1367 1.524 . S
C1368 C1369 1.415 . S
C1369 H1339 0.950 . S
C1369 C1364 1.363 . S
C1369 C1368 1.415 . S
H1370 C1367 0.999 . S
H1371 C1352 0.913 . S
H1372 C1390 0.951 . S
H1373 C1392 0.951 . S
H1374 C1394 0.950 . S
H1375 C1395 0.950 . S
H1376 C1397 0.950 . S
H1377 C1400 0.950 . S
H1378 C1401 0.950 . S
H1379 C1403 0.950 . S
H1380 C1404 0.950 . S
H1381 C1405 0.951 . S
H1382 C1407 0.951 . S
H1383 C1409 0.950 . S
H1384 C1410 0.950 . S
H1385 C1412 0.950 . S
H1386 C1415 0.950 . S
H1387 C1416 0.950 . S
H1388 C1418 0.950 . S
H1389 C1419 0.950 . S
C1390 H1372 0.951 . S
C1390 C1391 1.366 . S
C1390 C1392 1.388 . S
C1391 C1390 1.366 . S
C1391 C1395 1.385 . S
C1392 H1373 0.951 . S
C1392 C1390 1.388 . S
C1392 C1393 1.366 . S
C1393 C1392 1.366 . S
C1393 C1394 1.414 . S
C1393 C1396 1.499 . S
C1394 H1374 0.950 . S
C1394 C1393 1.414 . S
C1394 C1395 1.374 . S
C1395 H1375 0.950 . S
C1395 C1391 1.385 . S
C1395 C1394 1.374 . S
C1396 C1393 1.499 . S
C1396 C1397 1.373 1_545 S
C1396 C1398 1.389 1_556 S
C1397 H1376 0.950 . S
C1397 C1396 1.373 1_565 S
C1397 C1413 1.377 . S
C1398 C1396 1.389 1_554 S
C1398 C1399 1.524 . S
C1398 C1412 1.377 . S
C1399 C1398 1.524 . S
C1399 C1400 1.397 1_554 S
C1399 C1404 1.363 . S
C1400 H1377 0.950 . S
C1400 C1399 1.397 1_556 S
C1400 C1401 1.334 . S
C1401 H1378 0.950 . S
C1401 C1400 1.334 . S
C1401 C1402 1.287 1_556 S
C1402 C1401 1.287 1_554 S
C1402 C1403 1.524 . S
C1402 H1421 0.913 . S
C1403 H1379 0.950 . S
C1403 C1402 1.524 . S
C1403 C1404 1.415 . S
C1404 H1380 0.950 . S
C1404 C1399 1.363 . S
C1404 C1403 1.415 . S
C1405 H1381 0.951 . S
C1405 C1406 1.366 . S
C1405 C1407 1.388 . S
C1406 C1405 1.366 . S
C1406 C1410 1.385 . S
C1407 H1382 0.951 . S
C1407 C1405 1.388 . S
C1407 C1408 1.366 . S
C1408 C1407 1.366 . S
C1408 C1409 1.414 . S
C1408 C1411 1.499 . S
C1409 H1383 0.950 . S
C1409 C1408 1.414 . S
C1409 C1410 1.374 . S
C1410 H1384 0.950 . S
C1410 C1406 1.385 . S
C1410 C1409 1.374 . S
C1411 C1408 1.499 . S
C1411 C1412 1.373 1_565 S
C1411 C1413 1.389 1_554 S
C1412 H1385 0.950 . S
C1412 C1398 1.377 . S
C1412 C1411 1.373 1_545 S
C1413 C1397 1.377 . S
C1413 C1411 1.389 1_556 S
C1413 C1414 1.524 . S
C1414 C1413 1.524 . S
C1414 C1415 1.397 1_556 S
C1414 C1419 1.363 . S
C1415 H1386 0.950 . S
C1415 C1414 1.397 1_554 S
C1415 C1416 1.334 . S
C1416 H1387 0.950 . S
C1416 C1415 1.334 . S
C1416 C1417 1.287 1_554 S
C1417 C1416 1.287 1_556 S
C1417 C1418 1.524 . S
C1417 H1420 0.999 . S
C1418 H1388 0.950 . S
C1418 C1417 1.524 . S
C1418 C1419 1.415 . S
C1419 H1389 0.950 . S
C1419 C1414 1.363 . S
C1419 C1418 1.415 . S
H1420 C1417 0.999 . S
H1421 C1402 0.913 . S
H1422 C1440 0.951 . S
H1423 C1442 0.951 . S
H1424 C1444 0.950 . S
H1425 C1445 0.950 . S
H1426 C1447 0.950 . S
H1427 C1450 0.950 . S
H1428 C1451 0.950 . S
H1429 C1453 0.950 . S
H1430 C1454 0.950 . S
H1431 C1455 0.951 . S
H1432 C1457 0.951 . S
H1433 C1459 0.950 . S
H1434 C1460 0.950 . S
H1435 C1462 0.950 . S
H1436 C1465 0.950 . S
H1437 C1466 0.950 . S
H1438 C1468 0.950 . S
H1439 C1469 0.950 . S
C1440 H1422 0.951 . S
C1440 C1441 1.366 . S
C1440 C1442 1.388 . S
C1441 C1440 1.366 . S
C1441 C1445 1.385 . S
C1442 H1423 0.951 . S
C1442 C1440 1.388 . S
C1442 C1443 1.366 . S
C1443 C1442 1.366 . S
C1443 C1444 1.414 . S
C1443 C1446 1.499 . S
C1444 H1424 0.950 . S
C1444 C1443 1.414 . S
C1444 C1445 1.374 . S
C1445 H1425 0.950 . S
C1445 C1441 1.385 . S
C1445 C1444 1.374 . S
C1446 C1443 1.499 . S
C1446 C1447 1.373 . S
C1446 C1448 1.389 . S
C1447 H1426 0.950 . S
C1447 C1446 1.373 . S
C1447 C1463 1.377 1_454 S
C1448 C1446 1.389 . S
C1448 C1449 1.524 . S
C1448 C1462 1.377 1_454 S
C1449 C1448 1.524 . S
C1449 C1450 1.397 . S
C1449 C1454 1.363 1_554 S
C1450 H1427 0.950 . S
C1450 C1449 1.397 . S
C1450 C1451 1.334 . S
C1451 H1428 0.950 . S
C1451 C1450 1.334 . S
C1451 C1452 1.287 . S
C1452 C1451 1.287 . S
C1452 C1453 1.524 1_554 S
C1452 H1471 0.913 . S
C1453 H1429 0.950 . S
C1453 C1452 1.524 1_556 S
C1453 C1454 1.415 . S
C1454 H1430 0.950 . S
C1454 C1449 1.363 1_556 S
C1454 C1453 1.415 . S
C1455 H1431 0.951 . S
C1455 C1456 1.366 . S
C1455 C1457 1.388 . S
C1456 C1455 1.366 . S
C1456 C1460 1.385 . S
C1457 H1432 0.951 . S
C1457 C1455 1.388 . S
C1457 C1458 1.366 . S
C1458 C1457 1.366 . S
C1458 C1459 1.414 . S
C1458 C1461 1.499 . S
C1459 H1433 0.950 . S
C1459 C1458 1.414 . S
C1459 C1460 1.374 . S
C1460 H1434 0.950 . S
C1460 C1456 1.385 . S
C1460 C1459 1.374 . S
C1461 C1458 1.499 . S
C1461 C1462 1.373 . S
C1461 C1463 1.389 . S
C1462 H1435 0.950 . S
C1462 C1448 1.377 1_656 S
C1462 C1461 1.373 . S
C1463 C1447 1.377 1_656 S
C1463 C1461 1.389 . S
C1463 C1464 1.524 . S
C1464 C1463 1.524 . S
C1464 C1465 1.397 . S
C1464 C1469 1.363 1_556 S
C1465 H1436 0.950 . S
C1465 C1464 1.397 . S
C1465 C1466 1.334 . S
C1466 H1437 0.950 . S
C1466 C1465 1.334 . S
C1466 C1467 1.287 . S
C1467 C1466 1.287 . S
C1467 C1468 1.524 1_556 S
C1467 H1470 0.999 . S
C1468 H1438 0.950 . S
C1468 C1467 1.524 1_554 S
C1468 C1469 1.415 . S
C1469 H1439 0.950 . S
C1469 C1464 1.363 1_554 S
C1469 C1468 1.415 . S
H1470 C1467 0.999 . S
H1471 C1452 0.913 . S
H1472 C1490 0.951 . S
H1473 C1492 0.951 . S
H1474 C1494 0.950 . S
H1475 C1495 0.950 . S
H1476 C1497 0.950 . S
H1477 C1500 0.950 . S
H1478 C1501 0.950 . S
H1479 C1503 0.950 . S
H1480 C1504 0.950 . S
H1481 C1505 0.951 . S
H1482 C1507 0.951 . S
H1483 C1509 0.950 . S
H1484 C1510 0.950 . S
H1485 C1512 0.950 . S
H1486 C1515 0.950 . S
H1487 C1516 0.950 . S
H1488 C1518 0.950 . S
H1489 C1519 0.950 . S
C1490 H1472 0.951 . S
C1490 C1491 1.366 . S
C1490 C1492 1.388 . S
C1491 C1490 1.366 . S
C1491 C1495 1.385 . S
C1492 H1473 0.951 . S
C1492 C1490 1.388 . S
C1492 C1493 1.366 . S
C1493 C1492 1.366 . S
C1493 C1494 1.414 . S
C1493 C1496 1.499 . S
C1494 H1474 0.950 . S
C1494 C1493 1.414 . S
C1494 C1495 1.374 . S
C1495 H1475 0.950 . S
C1495 C1491 1.385 . S
C1495 C1494 1.374 . S
C1496 C1493 1.499 . S
C1496 C1497 1.373 . S
C1496 C1498 1.389 . S
C1497 H1476 0.950 . S
C1497 C1496 1.373 . S
C1497 C1513 1.377 . S
C1498 C1496 1.389 . S
C1498 C1499 1.524 . S
C1498 C1512 1.377 . S
C1499 C1498 1.524 . S
C1499 C1500 1.397 . S
C1499 C1504 1.363 . S
C1500 H1477 0.950 . S
C1500 C1499 1.397 . S
C1500 C1501 1.334 . S
C1501 H1478 0.950 . S
C1501 C1500 1.334 . S
C1501 C1502 1.287 . S
C1502 C1501 1.287 . S
C1502 C1503 1.524 . S
C1502 H1521 0.913 . S
C1503 H1479 0.950 . S
C1503 C1502 1.524 . S
C1503 C1504 1.415 . S
C1504 H1480 0.950 . S
C1504 C1499 1.363 . S
C1504 C1503 1.415 . S
C1505 H1481 0.951 . S
C1505 C1506 1.366 . S
C1505 C1507 1.388 . S
C1506 C1505 1.366 . S
C1506 C1510 1.385 . S
C1507 H1482 0.951 . S
C1507 C1505 1.388 . S
C1507 C1508 1.366 . S
C1508 C1507 1.366 . S
C1508 C1509 1.414 . S
C1508 C1511 1.499 . S
C1509 H1483 0.950 . S
C1509 C1508 1.414 . S
C1509 C1510 1.374 . S
C1510 H1484 0.950 . S
C1510 C1506 1.385 . S
C1510 C1509 1.374 . S
C1511 C1508 1.499 . S
C1511 C1512 1.373 . S
C1511 C1513 1.389 . S
C1512 H1485 0.950 . S
C1512 C1498 1.377 . S
C1512 C1511 1.373 . S
C1513 C1497 1.377 . S
C1513 C1511 1.389 . S
C1513 C1514 1.524 . S
C1514 C1513 1.524 . S
C1514 C1515 1.397 . S
C1514 C1519 1.363 . S
C1515 H1486 0.950 . S
C1515 C1514 1.397 . S
C1515 C1516 1.334 . S
C1516 H1487 0.950 . S
C1516 C1515 1.334 . S
C1516 C1517 1.287 . S
C1517 C1516 1.287 . S
C1517 C1518 1.524 . S
C1517 H1520 0.999 . S
C1518 H1488 0.950 . S
C1518 C1517 1.524 . S
C1518 C1519 1.415 . S
C1519 H1489 0.950 . S
C1519 C1514 1.363 . S
C1519 C1518 1.415 . S
H1520 C1517 0.999 . S
H1521 C1502 0.913 . S
H1522 C1540 0.951 . S
H1523 C1542 0.951 . S
H1524 C1544 0.950 . S
H1525 C1545 0.950 . S
H1526 C1547 0.950 . S
H1527 C1550 0.950 . S
H1528 C1551 0.950 . S
H1529 C1553 0.950 . S
H1530 C1554 0.950 . S
H1531 C1555 0.951 . S
H1532 C1557 0.951 . S
H1533 C1559 0.950 . S
H1534 C1560 0.950 . S
H1535 C1562 0.950 . S
H1536 C1565 0.950 . S
H1537 C1566 0.950 . S
H1538 C1568 0.950 . S
H1539 C1569 0.950 . S
C1540 H1522 0.951 . S
C1540 C1541 1.366 . S
C1540 C1542 1.388 . S
C1541 C1540 1.366 . S
C1541 C1545 1.385 . S
C1542 H1523 0.951 . S
C1542 C1540 1.388 . S
C1542 C1543 1.366 . S
C1543 C1542 1.366 . S
C1543 C1544 1.414 . S
C1543 C1546 1.499 . S
C1544 H1524 0.950 . S
C1544 C1543 1.414 . S
C1544 C1545 1.374 . S
C1545 H1525 0.950 . S
C1545 C1541 1.385 . S
C1545 C1544 1.374 . S
C1546 C1543 1.499 . S
C1546 C1547 1.373 . S
C1546 C1548 1.389 . S
C1547 H1526 0.950 . S
C1547 C1546 1.373 . S
C1547 C1563 1.377 . S
C1548 C1546 1.389 . S
C1548 C1549 1.524 . S
C1548 C1562 1.377 . S
C1549 C1548 1.524 . S
C1549 C1550 1.397 . S
C1549 C1554 1.363 . S
C1550 H1527 0.950 . S
C1550 C1549 1.397 . S
C1550 C1551 1.334 . S
C1551 H1528 0.950 . S
C1551 C1550 1.334 . S
C1551 C1552 1.287 . S
C1552 C1551 1.287 . S
C1552 C1553 1.524 . S
C1552 H1571 0.913 . S
C1553 H1529 0.950 . S
C1553 C1552 1.524 . S
C1553 C1554 1.415 . S
C1554 H1530 0.950 . S
C1554 C1549 1.363 . S
C1554 C1553 1.415 . S
C1555 H1531 0.951 . S
C1555 C1556 1.366 . S
C1555 C1557 1.388 . S
C1556 C1555 1.366 . S
C1556 C1560 1.385 . S
C1557 H1532 0.951 . S
C1557 C1555 1.388 . S
C1557 C1558 1.366 . S
C1558 C1557 1.366 . S
C1558 C1559 1.414 . S
C1558 C1561 1.499 . S
C1559 H1533 0.950 . S
C1559 C1558 1.414 . S
C1559 C1560 1.374 . S
C1560 H1534 0.950 . S
C1560 C1556 1.385 . S
C1560 C1559 1.374 . S
C1561 C1558 1.499 . S
C1561 C1562 1.373 . S
C1561 C1563 1.389 . S
C1562 H1535 0.950 . S
C1562 C1548 1.377 . S
C1562 C1561 1.373 . S
C1563 C1547 1.377 . S
C1563 C1561 1.389 . S
C1563 C1564 1.524 . S
C1564 C1563 1.524 . S
C1564 C1565 1.397 . S
C1564 C1569 1.363 . S
C1565 H1536 0.950 . S
C1565 C1564 1.397 . S
C1565 C1566 1.334 . S
C1566 H1537 0.950 . S
C1566 C1565 1.334 . S
C1566 C1567 1.287 . S
C1567 C1566 1.287 . S
C1567 C1568 1.524 . S
C1567 H1570 0.999 . S
C1568 H1538 0.950 . S
C1568 C1567 1.524 . S
C1568 C1569 1.415 . S
C1569 H1539 0.950 . S
C1569 C1564 1.363 . S
C1569 C1568 1.415 . S
H1570 C1567 0.999 . S
H1571 C1552 0.913 . S
H1572 C1590 0.951 . S
H1573 C1592 0.951 . S
H1574 C1594 0.950 . S
H1575 C1595 0.950 . S
H1576 C1597 0.950 . S
H1577 C1600 0.950 . S
H1578 C1601 0.950 . S
H1579 C1603 0.950 . S
H1580 C1604 0.950 . S
H1581 C1605 0.951 . S
H1582 C1607 0.951 . S
H1583 C1609 0.950 . S
H1584 C1610 0.950 . S
H1585 C1612 0.950 . S
H1586 C1615 0.950 . S
H1587 C1616 0.950 . S
H1588 C1618 0.950 . S
H1589 C1619 0.950 . S
C1590 H1572 0.951 . S
C1590 C1591 1.366 . S
C1590 C1592 1.388 . S
C1591 C1590 1.366 . S
C1591 C1595 1.385 . S
C1592 H1573 0.951 . S
C1592 C1590 1.388 . S
C1592 C1593 1.366 . S
C1593 C1592 1.366 . S
C1593 C1594 1.414 . S
C1593 C1596 1.499 . S
C1594 H1574 0.950 . S
C1594 C1593 1.414 . S
C1594 C1595 1.374 . S
C1595 H1575 0.950 . S
C1595 C1591 1.385 . S
C1595 C1594 1.374 . S
C1596 C1593 1.499 . S
C1596 C1597 1.373 . S
C1596 C1598 1.389 . S
C1597 H1576 0.950 . S
C1597 C1596 1.373 . S
C1597 C1613 1.377 . S
C1598 C1596 1.389 . S
C1598 C1599 1.524 . S
C1598 C1612 1.377 . S
C1599 C1598 1.524 . S
C1599 C1600 1.397 . S
C1599 C1604 1.363 . S
C1600 H1577 0.950 . S
C1600 C1599 1.397 . S
C1600 C1601 1.334 . S
C1601 H1578 0.950 . S
C1601 C1600 1.334 . S
C1601 C1602 1.287 . S
C1602 C1601 1.287 . S
C1602 C1603 1.524 . S
C1602 H1621 0.913 . S
C1603 H1579 0.950 . S
C1603 C1602 1.524 . S
C1603 C1604 1.415 . S
C1604 H1580 0.950 . S
C1604 C1599 1.363 . S
C1604 C1603 1.415 . S
C1605 H1581 0.951 . S
C1605 C1606 1.366 . S
C1605 C1607 1.388 . S
C1606 C1605 1.366 . S
C1606 C1610 1.385 . S
C1607 H1582 0.951 . S
C1607 C1605 1.388 . S
C1607 C1608 1.366 . S
C1608 C1607 1.366 . S
C1608 C1609 1.414 . S
C1608 C1611 1.499 . S
C1609 H1583 0.950 . S
C1609 C1608 1.414 . S
C1609 C1610 1.374 . S
C1610 H1584 0.950 . S
C1610 C1606 1.385 . S
C1610 C1609 1.374 . S
C1611 C1608 1.499 . S
C1611 C1612 1.373 . S
C1611 C1613 1.389 . S
C1612 H1585 0.950 . S
C1612 C1598 1.377 . S
C1612 C1611 1.373 . S
C1613 C1597 1.377 . S
C1613 C1611 1.389 . S
C1613 C1614 1.524 . S
C1614 C1613 1.524 . S
C1614 C1615 1.397 . S
C1614 C1619 1.363 . S
C1615 H1586 0.950 . S
C1615 C1614 1.397 . S
C1615 C1616 1.334 . S
C1616 H1587 0.950 . S
C1616 C1615 1.334 . S
C1616 C1617 1.287 . S
C1617 C1616 1.287 . S
C1617 C1618 1.524 . S
C1617 H1620 0.999 . S
C1618 H1588 0.950 . S
C1618 C1617 1.524 . S
C1618 C1619 1.415 . S
C1619 H1589 0.950 . S
C1619 C1614 1.363 . S
C1619 C1618 1.415 . S
H1620 C1617 0.999 . S
H1621 C1602 0.913 . S
H1622 C1640 0.951 . S
H1623 C1642 0.951 . S
H1624 C1644 0.950 . S
H1625 C1645 0.950 . S
H1626 C1647 0.950 . S
H1627 C1650 0.950 . S
H1628 C1651 0.950 . S
H1629 C1653 0.950 . S
H1630 C1654 0.950 . S
H1631 C1655 0.951 . S
H1632 C1657 0.951 . S
H1633 C1659 0.950 . S
H1634 C1660 0.950 . S
H1635 C1662 0.950 . S
H1636 C1665 0.950 . S
H1637 C1666 0.950 . S
H1638 C1668 0.950 . S
H1639 C1669 0.950 . S
C1640 H1622 0.951 . S
C1640 C1641 1.366 . S
C1640 C1642 1.388 . S
C1641 C1640 1.366 . S
C1641 C1645 1.385 . S
C1642 H1623 0.951 . S
C1642 C1640 1.388 . S
C1642 C1643 1.366 . S
C1643 C1642 1.366 . S
C1643 C1644 1.414 . S
C1643 C1646 1.499 . S
C1644 H1624 0.950 . S
C1644 C1643 1.414 . S
C1644 C1645 1.374 . S
C1645 H1625 0.950 . S
C1645 C1641 1.385 . S
C1645 C1644 1.374 . S
C1646 C1643 1.499 . S
C1646 C1647 1.373 . S
C1646 C1648 1.389 . S
C1647 H1626 0.950 . S
C1647 C1646 1.373 . S
C1647 C1663 1.377 . S
C1648 C1646 1.389 . S
C1648 C1649 1.524 . S
C1648 C1662 1.377 . S
C1649 C1648 1.524 . S
C1649 C1650 1.397 . S
C1649 C1654 1.363 . S
C1650 H1627 0.950 . S
C1650 C1649 1.397 . S
C1650 C1651 1.334 . S
C1651 H1628 0.950 . S
C1651 C1650 1.334 . S
C1651 C1652 1.287 . S
C1652 C1651 1.287 . S
C1652 C1653 1.524 . S
C1652 H1671 0.913 . S
C1653 H1629 0.950 . S
C1653 C1652 1.524 . S
C1653 C1654 1.415 . S
C1654 H1630 0.950 . S
C1654 C1649 1.363 . S
C1654 C1653 1.415 . S
C1655 H1631 0.951 . S
C1655 C1656 1.366 . S
C1655 C1657 1.388 . S
C1656 C1655 1.366 . S
C1656 C1660 1.385 . S
C1657 H1632 0.951 . S
C1657 C1655 1.388 . S
C1657 C1658 1.366 . S
C1658 C1657 1.366 . S
C1658 C1659 1.414 . S
C1658 C1661 1.499 . S
C1659 H1633 0.950 . S
C1659 C1658 1.414 . S
C1659 C1660 1.374 . S
C1660 H1634 0.950 . S
C1660 C1656 1.385 . S
C1660 C1659 1.374 . S
C1661 C1658 1.499 . S
C1661 C1662 1.373 . S
C1661 C1663 1.389 . S
C1662 H1635 0.950 . S
C1662 C1648 1.377 . S
C1662 C1661 1.373 . S
C1663 C1647 1.377 . S
C1663 C1661 1.389 . S
C1663 C1664 1.524 . S
C1664 C1663 1.524 . S
C1664 C1665 1.397 . S
C1664 C1669 1.363 . S
C1665 H1636 0.950 . S
C1665 C1664 1.397 . S
C1665 C1666 1.334 . S
C1666 H1637 0.950 . S
C1666 C1665 1.334 . S
C1666 C1667 1.287 . S
C1667 C1666 1.287 . S
C1667 C1668 1.524 . S
C1667 H1670 0.999 . S
C1668 H1638 0.950 . S
C1668 C1667 1.524 . S
C1668 C1669 1.415 . S
C1669 H1639 0.950 . S
C1669 C1664 1.363 . S
C1669 C1668 1.415 . S
H1670 C1667 0.999 . S
H1671 C1652 0.913 . S
C291 C28 1.721 . S
C306 C241 1.597 . S
C341 C49 1.228 . S
C356 C137 1.204 . S
C391 C173 1.596 . S
C406 C96 1.721 . S
C441 C117 1.228 . S
C456 C207 1.204 . S
C491 C40 1.721 . S
C506 C205 1.598 . S
C541 C239 1.204 . S
C556 C90 1.228 . S
C591 C108 1.721 . S
C606 C139 1.597 . S
C641 C171 1.204 . S
C656 C22 1.228 . S
C691 C142 1.721 . S
C706 C105 1.596 . S
C741 C3 1.204 . S
C756 C185 1.228 . S
C791 C37 1.596 . S
C806 C232 1.721 . S
C841 C253 1.227 . S
C856 C71 1.205 . S
C891 C176 1.721 . S
C906 C69 1.597 . S
C941 C226 1.227 . S
C956 C103 1.205 . S
C991 C244 1.721 . S
C1006 C1 1.596 . S
C1041 C35 1.204 . S
C1056 C151 1.228 . S
C1091 C17 1.398 . S
C1106 C85 1.398 . S
C1141 C119 1.398 . S
C1156 C51 1.398 . S
C1191 C153 1.398 . S
C1206 C221 1.398 . S
C1241 C187 1.398 . S
C1256 C255 1.398 . S
C1291 C15 1.190 . S
C1306 C56 1.188 . S
C1341 C62 0.419 . S
C1356 C74 0.415 . S
C1391 C124 1.190 . S
C1406 C83 1.188 . S
C1441 C6 0.415 . S
C1456 C130 0.419 . S
C1491 C192 1.188 . S
C1506 C158 1.190 . S
C1541 C210 0.416 . S
C1556 C198 0.417 . S
C1591 C219 1.188 . S
C1606 C260 1.189 . S
C1641 C164 0.418 . S
C1656 C266 0.415 . S
