# Generated by pormake.
# Topology ske, (6)-cn, num edge types: 1
# Building blocks:
#     Node 0, Type 0, BuildingBlock: BETFEN_clean_sbu_0, # of connection points: 6
#     Node 1, Type 0, BuildingBlock: BETFEN_clean_sbu_0, # of connection points: 6
#     Node 2, Type 0, BuildingBlock: BETFEN_clean_sbu_0, # of connection points: 6
#     Node 3, Type 0, BuildingBlock: BETFEN_clean_sbu_0, # of connection points: 6
#     Node 4, Type 0, BuildingBlock: BETFEN_clean_sbu_0, # of connection points: 6
#     Node 5, Type 0, BuildingBlock: BETFEN_clean_sbu_0, # of connection points: 6
#     Node 6, Type 0, BuildingBlock: BETFEN_clean_sbu_0, # of connection points: 6
#     Node 7, Type 0, BuildingBlock: BETFEN_clean_sbu_0, # of connection points: 6
#     Edge 8, Type (0, 0), BuildingBlock: XIVTED_clean_linker_0, # of connection points: 2
#     Edge 9, Type (0, 0), BuildingBlock: XIVTED_clean_linker_0, # of connection points: 2
#     Edge 10, Type (0, 0), BuildingBlock: XIVTED_clean_linker_0, # of connection points: 2
#     Edge 11, Type (0, 0), BuildingBlock: XIVTED_clean_linker_0, # of connection points: 2
#     Edge 12, Type (0, 0), BuildingBlock: XIVTED_clean_linker_0, # of connection points: 2
#     Edge 13, Type (0, 0), BuildingBlock: XIVTED_clean_linker_0, # of connection points: 2
#     Edge 14, Type (0, 0), BuildingBlock: XIVTED_clean_linker_0, # of connection points: 2
#     Edge 15, Type (0, 0), BuildingBlock: XIVTED_clean_linker_0, # of connection points: 2
#     Edge 16, Type (0, 0), BuildingBlock: XIVTED_clean_linker_0, # of connection points: 2
#     Edge 17, Type (0, 0), BuildingBlock: XIVTED_clean_linker_0, # of connection points: 2
#     Edge 18, Type (0, 0), BuildingBlock: XIVTED_clean_linker_0, # of connection points: 2
#     Edge 19, Type (0, 0), BuildingBlock: XIVTED_clean_linker_0, # of connection points: 2
#     Edge 20, Type (0, 0), BuildingBlock: XIVTED_clean_linker_0, # of connection points: 2
#     Edge 21, Type (0, 0), BuildingBlock: XIVTED_clean_linker_0, # of connection points: 2
#     Edge 22, Type (0, 0), BuildingBlock: XIVTED_clean_linker_0, # of connection points: 2
#     Edge 23, Type (0, 0), BuildingBlock: XIVTED_clean_linker_0, # of connection points: 2
#     Edge 24, Type (0, 0), BuildingBlock: XIVTED_clean_linker_0, # of connection points: 2
#     Edge 25, Type (0, 0), BuildingBlock: XIVTED_clean_linker_0, # of connection points: 2
#     Edge 26, Type (0, 0), BuildingBlock: XIVTED_clean_linker_0, # of connection points: 2
#     Edge 27, Type (0, 0), BuildingBlock: XIVTED_clean_linker_0, # of connection points: 2
#     Edge 28, Type (0, 0), BuildingBlock: XIVTED_clean_linker_0, # of connection points: 2
#     Edge 29, Type (0, 0), BuildingBlock: XIVTED_clean_linker_0, # of connection points: 2
#     Edge 30, Type (0, 0), BuildingBlock: XIVTED_clean_linker_0, # of connection points: 2
#     Edge 31, Type (0, 0), BuildingBlock: XIVTED_clean_linker_0, # of connection points: 2
# Relax obj value: 0.204
# Max RMSD: 0.206
# Mean RMSD: 0.199
data_MOF--net-ske--node1-BETFEN_clean_sbu_0--edge1-XIVTED_clean_linker_0
_symmetry_space_group_name_H-M    P1
_symmetry_Int_Tables_number       1
_symmetry_cell_setting            triclinic
loop_
_symmetry_equiv_pos_as_xyz
'x, y, z'
_cell_length_a     105.25514
_cell_length_b     29.636534
_cell_length_c     15.913804
_cell_angle_alpha  89.954545
_cell_angle_beta   90.17639
_cell_angle_gamma 84.531618
loop_
_atom_site_label
_atom_site_type_symbol
_atom_site_fract_x
_atom_site_fract_y
_atom_site_fract_z
_atom_type_partial_charge
Pr0 Pr 0.15006 0.25457 0.55176 0.0
Pr1 Pr 0.12142 0.24762 0.55443 0.0
C2 C 0.17443 0.27606 0.56698 0.0
C3 C 0.18698 0.26764 0.61052 0.0
C4 C 0.19465 0.22639 0.60147 0.0
C5 C 0.20711 0.22116 0.63412 0.0
C6 C 0.21224 0.25702 0.67657 0.0
C7 C 0.2044 0.2978 0.68756 0.0
C8 C 0.19196 0.30304 0.65474 0.0
C9 C 0.14356 0.16483 0.54417 0.0
C10 C 0.13579 0.24788 0.7362 0.0
C11 C 0.09715 0.22476 0.54642 0.0
C12 C 0.08367 0.23209 0.51861 0.0
C13 C 0.07705 0.27554 0.51576 0.0
C14 C 0.06381 0.2808 0.50218 0.0
C15 C 0.05687 0.24273 0.49171 0.0
C16 C 0.06367 0.19943 0.49161 0.0
C17 C 0.07689 0.19425 0.50482 0.0
C18 C 0.12789 0.33787 0.5555 0.0
C19 C 0.13585 0.25286 0.36982 0.0
O20 O 0.16486 0.29762 0.60714 0.0
O21 O 0.17091 0.24506 0.51579 0.0
O22 O 0.13815 0.19545 0.59054 0.0
O23 O 0.15317 0.17931 0.50509 0.0
O24 O 0.12645 0.23101 0.69494 0.0
O25 O 0.14518 0.26459 0.69537 0.0
O26 O 0.10601 0.20854 0.49411 0.0
O27 O 0.10117 0.25277 0.60164 0.0
O28 O 0.13334 0.30606 0.51235 0.0
O29 O 0.11818 0.32431 0.59487 0.0
O30 O 0.14516 0.27027 0.41073 0.0
O31 O 0.12643 0.23631 0.41097 0.0
H32 H 0.19116 0.19839 0.56753 0.0
H33 H 0.21275 0.18902 0.62549 0.0
H34 H 0.20801 0.32639 0.7189 0.0
H35 H 0.18635 0.33542 0.66176 0.0
H36 H 0.08205 0.30533 0.52643 0.0
H37 H 0.05899 0.31474 0.50117 0.0
H38 H 0.05873 0.16921 0.485 0.0
H39 H 0.08176 0.16037 0.5078 0.0
Pr40 Pr 0.8673 0.248 0.54672 0.0
Pr41 Pr 0.89568 0.25509 0.55601 0.0
C42 C 0.84293 0.22622 0.55824 0.0
C43 C 0.8304 0.2331 0.60165 0.0
C44 C 0.82297 0.27517 0.60039 0.0
C45 C 0.81052 0.2794 0.63274 0.0
C46 C 0.80516 0.24165 0.66687 0.0
C47 C 0.81277 0.19993 0.67009 0.0
C48 C 0.8252 0.19574 0.63777 0.0
C49 C 0.87371 0.33777 0.53928 0.0
C50 C 0.88084 0.25616 0.73432 0.0
C51 C 0.92015 0.27592 0.55213 0.0
C52 C 0.93362 0.27076 0.5237 0.0
C53 C 0.94106 0.22875 0.52666 0.0
C54 C 0.95428 0.22619 0.51313 0.0
C55 C 0.96038 0.26561 0.49701 0.0
C56 C 0.95279 0.30725 0.49062 0.0
C57 C 0.9396 0.30975 0.50382 0.0
C58 C 0.889 0.1654 0.55929 0.0
C59 C 0.88204 0.24893 0.36772 0.0
O60 O 0.85251 0.20345 0.59674 0.0
O61 O 0.84642 0.25883 0.51074 0.0
O62 O 0.87889 0.30759 0.58779 0.0
O63 O 0.86442 0.32281 0.4972 0.0
O64 O 0.89024 0.27336 0.69467 0.0
O65 O 0.87168 0.23887 0.69172 0.0
O66 O 0.91121 0.29658 0.50474 0.0
O67 O 0.91612 0.24459 0.6003 0.0
O68 O 0.88415 0.19618 0.51104 0.0
O69 O 0.89778 0.18009 0.60635 0.0
O70 O 0.87249 0.2322 0.40674 0.0
O71 O 0.89141 0.26488 0.41077 0.0
H72 H 0.82663 0.30462 0.57243 0.0
H73 H 0.80496 0.31197 0.62828 0.0
H74 H 0.80909 0.17027 0.69709 0.0
H75 H 0.83065 0.16283 0.63913 0.0
H76 H 0.93674 0.19811 0.54245 0.0
H77 H 0.9598 0.19359 0.51906 0.0
H78 H 0.9571 0.33819 0.47695 0.0
H79 H 0.93411 0.34259 0.50171 0.0
Pr80 Pr 0.12102 0.74491 0.48726 0.0
Pr81 Pr 0.15159 0.75483 0.49063 0.0
C82 C 0.09787 0.71269 0.48227 0.0
C83 C 0.08415 0.72095 0.50282 0.0
C84 C 0.07807 0.76499 0.51103 0.0
C85 C 0.06478 0.77186 0.5212 0.0
C86 C 0.05729 0.73485 0.52308 0.0
C87 C 0.06354 0.69078 0.517 0.0
C88 C 0.0768 0.68399 0.50704 0.0
C89 C 0.12569 0.83689 0.50791 0.0
C90 C 0.13606 0.75274 0.6694 0.0
C91 C 0.17541 0.78136 0.47752 0.0
C92 C 0.18799 0.77407 0.43497 0.0
C93 C 0.19622 0.73436 0.4477 0.0
C94 C 0.20859 0.7303 0.41425 0.0
C95 C 0.21306 0.76584 0.3673 0.0
C96 C 0.2047 0.80509 0.35311 0.0
C97 C 0.19235 0.80917 0.38672 0.0
C98 C 0.14479 0.66585 0.50397 0.0
C99 C 0.1368 0.74884 0.30434 0.0
O100 O 0.10606 0.70311 0.54352 0.0
O101 O 0.1022 0.73784 0.42312 0.0
O102 O 0.13363 0.80276 0.50074 0.0
O103 O 0.11427 0.82372 0.50477 0.0
O104 O 0.14518 0.77182 0.62915 0.0
O105 O 0.12706 0.73314 0.62861 0.0
O106 O 0.16565 0.80018 0.43466 0.0
O107 O 0.17229 0.75072 0.53102 0.0
O108 O 0.13909 0.69662 0.45859 0.0
O109 O 0.1551 0.67953 0.53632 0.0
O110 O 0.12609 0.74146 0.34335 0.0
O111 O 0.14741 0.75574 0.3454 0.0
H112 H 0.08356 0.79406 0.50783 0.0
H113 H 0.06038 0.80625 0.52697 0.0
H114 H 0.05816 0.66142 0.51689 0.0
H115 H 0.08128 0.64974 0.50003 0.0
H116 H 0.1932 0.70666 0.4848 0.0
H117 H 0.21467 0.69932 0.42553 0.0
H118 H 0.20782 0.83341 0.3183 0.0
H119 H 0.18631 0.84041 0.37677 0.0
Pr120 Pr 0.89679 0.75669 0.48422 0.0
Pr121 Pr 0.86631 0.74921 0.48659 0.0
C122 C 0.9201 0.78768 0.4811 0.0
C123 C 0.93382 0.77984 0.50304 0.0
C124 C 0.94056 0.73667 0.4974 0.0
C125 C 0.95387 0.7313 0.50781 0.0
C126 C 0.96072 0.76903 0.52364 0.0
C127 C 0.95384 0.8119 0.53207 0.0
C128 C 0.94056 0.81719 0.52186 0.0
C129 C 0.89182 0.66506 0.50301 0.0
C130 C 0.88173 0.74775 0.66584 0.0
C131 C 0.84203 0.72693 0.47424 0.0
C132 C 0.82955 0.73326 0.42982 0.0
C133 C 0.82235 0.77573 0.42597 0.0
C134 C 0.80992 0.77973 0.39279 0.0
C135 C 0.80437 0.74137 0.36292 0.0
C136 C 0.81176 0.69919 0.36469 0.0
C137 C 0.82416 0.69522 0.39785 0.0
C138 C 0.87407 0.83653 0.50499 0.0
C139 C 0.88105 0.75513 0.30061 0.0
O140 O 0.91179 0.79852 0.5408 0.0
O141 O 0.9158 0.76209 0.42238 0.0
O142 O 0.88392 0.69938 0.49619 0.0
O143 O 0.90329 0.6778 0.50056 0.0
O144 O 0.87256 0.72959 0.62431 0.0
O145 O 0.89088 0.76706 0.6262 0.0
O146 O 0.85165 0.70391 0.43705 0.0
O147 O 0.84543 0.76012 0.52085 0.0
O148 O 0.87904 0.80666 0.45524 0.0
O149 O 0.86426 0.82261 0.54304 0.0
O150 O 0.89183 0.76106 0.3404 0.0
O151 O 0.87034 0.74926 0.34099 0.0
H152 H 0.93559 0.70729 0.48252 0.0
H153 H 0.95883 0.69784 0.5003 0.0
H154 H 0.95873 0.8416 0.54567 0.0
H155 H 0.93558 0.85083 0.52626 0.0
H156 H 0.82617 0.80572 0.45058 0.0
H157 H 0.80452 0.8127 0.39331 0.0
H158 H 0.80793 0.66902 0.341 0.0
H159 H 0.82945 0.66204 0.40044 0.0
Pr160 Pr 0.65053 0.75493 0.04308 0.0
Pr161 Pr 0.62186 0.74692 0.04539 0.0
C162 C 0.67465 0.77877 0.05777 0.0
C163 C 0.68712 0.77215 0.10213 0.0
C164 C 0.69431 0.72965 0.10539 0.0
C165 C 0.70673 0.72547 0.13869 0.0
C166 C 0.71228 0.76368 0.16929 0.0
C167 C 0.70489 0.80587 0.16819 0.0
C168 C 0.6925 0.81001 0.13492 0.0
C169 C 0.64438 0.66499 0.03305 0.0
C170 C 0.63633 0.74636 0.22737 0.0
C171 C 0.59757 0.72429 0.03655 0.0
C172 C 0.58397 0.73592 1.01432 0.0
C173 C 0.57759 0.7785 0.03337 0.0
C174 C 0.5643 0.7862 0.02396 0.0
C175 C 0.55709 0.75148 0.99543 0.0
C176 C 0.56363 0.70947 0.97351 0.0
C177 C 0.57689 0.70183 0.98294 0.0
C178 C 0.62816 0.83734 0.04621 0.0
C179 C 0.63642 0.75098 0.86136 0.0
O180 O 0.66491 0.80019 0.09655 0.0
O181 O 0.67143 0.74645 1.00844 0.0
O182 O 0.63874 0.69506 0.07962 0.0
O183 O 0.65415 0.67987 0.99649 0.0
O184 O 0.627 0.72966 0.18572 0.0
O185 O 0.64569 0.76348 0.18695 0.0
O186 O 0.60594 0.71395 0.97733 0.0
O187 O 0.60218 0.74558 0.09985 0.0
O188 O 0.63365 0.8055 1.00353 0.0
O189 O 0.6184 0.82382 0.08501 0.0
O190 O 0.64552 0.76981 0.90196 0.0
O191 O 0.62718 0.73351 0.90289 0.0
H192 H 0.69048 0.6998 0.08022 0.0
H193 H 0.71213 0.6925 0.13771 0.0
H194 H 0.70872 0.83591 0.19247 0.0
H195 H 0.6872 0.8432 0.13288 0.0
H196 H 0.58281 0.80541 0.05788 0.0
H197 H 0.55965 0.8192 0.04018 0.0
H198 H 0.55845 0.6817 0.95239 0.0
H199 H 0.58157 0.66854 0.96884 0.0
Pr200 Pr 0.36612 0.75178 0.03205 0.0
Pr201 Pr 0.39482 0.75276 0.03629 0.0
C202 C 0.34156 0.73266 0.04703 0.0
C203 C 0.32926 0.74036 0.093 0.0
C204 C 0.32103 0.78017 0.08112 0.0
C205 C 0.30877 0.78445 0.11611 0.0
C206 C 0.30437 0.749 0.16368 0.0
C207 C 0.31275 0.70974 0.17741 0.0
C208 C 0.325 0.70544 0.14228 0.0
C209 C 0.37364 0.8395 0.01745 0.0
C210 C 0.38091 0.75493 0.21925 0.0
C211 C 0.42001 0.76092 0.02049 0.0
C212 C 0.43395 0.76386 1.01081 0.0
C213 C 0.44185 0.72621 0.98178 0.0
C214 C 0.45507 0.72777 0.97579 0.0
C215 C 0.46078 0.76705 0.99857 0.0
C216 C 0.45284 0.80489 0.0271 0.0
C217 C 0.43958 0.80331 0.03312 0.0
C218 C 0.38634 0.666 0.04879 0.0
C219 C 0.38029 0.75328 0.85254 0.0
O220 O 0.35114 0.7086 0.08318 0.0
O221 O 0.34514 0.7652 0.99962 0.0
O222 O 0.37887 0.80941 0.06634 0.0
O223 O 0.36378 0.82564 0.97992 0.0
O224 O 0.3915 0.76269 0.18001 0.0
O225 O 0.3705 0.74681 0.17738 0.0
O226 O 0.41214 0.79355 0.05139 0.0
O227 O 0.41465 0.72507 0.99656 0.0
O228 O 0.38199 0.69655 0.99827 0.0
O229 O 0.39532 0.6799 0.09536 0.0
O230 O 0.37103 0.73503 0.89189 0.0
O231 O 0.38945 0.77038 0.89552 0.0
H232 H 0.32394 0.80769 0.04309 0.0
H233 H 0.30268 0.81546 0.10518 0.0
H234 H 0.30968 0.68149 0.21271 0.0
H235 H 0.33101 0.67406 0.15155 0.0
H236 H 0.43786 0.69513 0.96468 0.0
H237 H 0.46083 0.69767 0.95494 0.0
H238 H 0.45686 0.8359 0.04432 0.0
H239 H 0.43376 0.83289 0.05575 0.0
Pr240 Pr 0.62242 0.24612 0.97283 0.0
Pr241 Pr 0.65117 0.25457 0.9785 0.0
C242 C 0.59818 0.22246 0.97882 0.0
C243 C 0.58435 0.23353 0.99498 0.0
C244 C 0.57752 0.27213 0.95986 0.0
C245 C 0.56415 0.27804 0.96442 0.0
C246 C 0.55728 0.24545 1.00396 0.0
C247 C 0.56422 0.20776 0.04182 0.0
C248 C 0.57757 0.20189 0.03721 0.0
C249 C 0.62861 0.33665 0.9737 0.0
C250 C 0.63676 0.24945 0.15824 0.0
C251 C 0.67531 0.27853 0.96654 0.0
C252 C 0.68784 0.27182 0.92322 0.0
C253 C 0.69525 0.22972 0.92371 0.0
C254 C 0.70769 0.2256 0.89112 0.0
C255 C 0.71305 0.26347 0.85745 0.0
C256 C 0.70545 0.30523 0.85498 0.0
C257 C 0.69303 0.30932 0.88758 0.0
C258 C 0.64504 0.16459 0.98805 0.0
C259 C 0.63724 0.24646 0.79243 0.0
O260 O 0.60618 0.21542 0.04163 0.0
O261 O 0.60312 0.24109 0.91376 0.0
O262 O 0.63414 0.30463 0.01601 0.0
O263 O 0.6188 0.32333 0.93473 0.0
O264 O 0.64582 0.26908 0.11903 0.0
O265 O 0.62771 0.2315 0.11529 0.0
O266 O 0.66562 0.29999 0.92686 0.0
O267 O 0.67201 0.24624 0.01564 0.0
O268 O 0.63947 0.19459 0.94064 0.0
O269 O 0.65476 0.17956 0.02546 0.0
O270 O 0.62778 0.22989 0.83266 0.0
O271 O 0.64657 0.26321 0.83415 0.0
H272 H 0.58246 0.297 0.92632 0.0
H273 H 0.55919 0.30731 0.9339 0.0
H274 H 0.55933 0.18235 0.07419 0.0
H275 H 0.58259 0.17168 0.06431 0.0
H276 H 0.69159 0.20016 0.9512 0.0
H277 H 0.71324 0.19298 0.89499 0.0
H278 H 0.70912 0.33499 0.82832 0.0
H279 H 0.68758 0.34224 0.88673 0.0
Pr280 Pr 0.39619 0.25735 0.9956 0.0
Pr281 Pr 0.36548 0.24624 0.99003 0.0
C282 C 0.41972 0.28293 0.02688 0.0
C283 C 0.43366 0.279 1.01302 0.0
C284 C 0.43986 0.24558 0.96115 0.0
C285 C 0.45324 0.24163 0.95383 0.0
C286 C 0.46065 0.27098 0.99845 0.0
C287 C 0.45427 0.30449 0.0498 0.0
C288 C 0.44097 0.30844 0.05679 0.0
C289 C 0.38942 0.16851 0.98101 0.0
C290 C 0.37946 0.25633 0.17454 0.0
C291 C 0.34242 0.21375 0.97879 0.0
C292 C 0.32948 0.22181 0.94073 0.0
C293 C 0.32189 0.26313 0.95087 0.0
C294 C 0.30932 0.26853 0.91996 0.0
C295 C 0.30404 0.2328 0.87801 0.0
C296 C 0.31178 0.19183 0.86656 0.0
C297 C 0.32432 0.18643 0.89767 0.0
C298 C 0.37002 0.33859 0.98432 0.0
C299 C 0.38199 0.25364 0.81004 0.0
O300 O 0.4149 0.24996 0.06688 0.0
O301 O 0.41213 0.30214 0.96901 0.0
O302 O 0.38358 0.19962 0.02422 0.0
O303 O 0.39977 0.18199 0.94865 0.0
O304 O 0.37007 0.23875 0.13418 0.0
O305 O 0.38911 0.27207 0.13419 0.0
O306 O 0.35198 0.2003 0.92921 0.0
O307 O 0.34549 0.24133 0.03834 0.0
O308 O 0.37804 0.30448 0.98778 0.0
O309 O 0.35863 0.32511 0.98144 0.0
O310 O 0.39187 0.26742 0.85149 0.0
O311 O 0.372 0.23912 0.8488 0.0
H312 H 0.43439 0.22239 0.92701 0.0
H313 H 0.45777 0.21571 0.91301 0.0
H314 H 0.45956 0.32715 0.08652 0.0
H315 H 0.43638 0.33417 0.09786 0.0
H316 H 0.32558 0.29115 0.98359 0.0
H317 H 0.30375 0.30079 0.92894 0.0
H318 H 0.30805 0.16334 0.83562 0.0
H319 H 0.32991 0.15411 0.88953 0.0
H320 H 0.23341 0.21437 0.59859 0.0
H321 H 0.28293 0.27616 0.95592 0.0
H322 H 0.22223 0.28984 0.82252 0.0
H323 H 0.29399 0.20043 0.73206 0.0
H324 H 0.26076 0.28229 0.90757 0.0
H325 H 0.25557 0.20866 0.64686 0.0
C326 C 0.23556 0.22943 0.65831 0.0
C327 C 0.22583 0.25253 0.7065 0.0
C328 C 0.26803 0.26437 0.86892 0.0
C329 C 0.25139 0.24661 0.76188 0.0
C330 C 0.28075 0.26111 0.89625 0.0
C331 C 0.29045 0.23772 0.84817 0.0
C332 C 0.26488 0.24419 0.79268 0.0
C333 C 0.28689 0.21828 0.77201 0.0
C334 C 0.24828 0.22642 0.68558 0.0
C335 C 0.22936 0.27212 0.7826 0.0
N336 N 0.27445 0.22196 0.74677 0.0
N337 N 0.2418 0.26867 0.80783 0.0
H338 H 0.72638 0.19316 0.77187 0.0
H339 H 0.79178 0.31221 0.75147 0.0
H340 H 0.73082 0.32536 0.87526 0.0
H341 H 0.7874 0.17969 0.64933 0.0
H342 H 0.76947 0.31785 0.79629 0.0
H343 H 0.74867 0.18758 0.72679 0.0
C344 C 0.73202 0.221 0.78545 0.0
C345 C 0.7266 0.25984 0.82757 0.0
C346 C 0.7734 0.28749 0.76418 0.0
C347 C 0.75226 0.25376 0.77518 0.0
C348 C 0.78615 0.28432 0.73811 0.0
C349 C 0.79159 0.24536 0.69645 0.0
C350 C 0.76592 0.25151 0.74852 0.0
C351 C 0.78377 0.21013 0.68226 0.0
C352 C 0.74477 0.21786 0.75923 0.0
C353 C 0.73444 0.29501 0.84199 0.0
N354 N 0.77138 0.21408 0.70805 0.0
N355 N 0.74682 0.29109 0.81605 0.0
H356 H 0.29565 0.71936 0.31544 0.0
H357 H 0.22185 0.79544 0.21588 0.0
H358 H 0.28238 0.78544 0.08539 0.0
H359 H 0.23503 0.72932 0.4461 0.0
H360 H 0.24394 0.79219 0.16737 0.0
H361 H 0.27357 0.72258 0.3643 0.0
C362 C 0.28811 0.73446 0.275 0.0
C363 C 0.29097 0.75216 0.19599 0.0
C364 C 0.24201 0.77833 0.22848 0.0
C365 C 0.26554 0.7562 0.25209 0.0
C366 C 0.22937 0.78034 0.25647 0.0
C367 C 0.22649 0.76267 0.33543 0.0
C368 C 0.25193 0.75856 0.27968 0.0
C369 C 0.2367 0.74287 0.38438 0.0
C370 C 0.27548 0.73645 0.30317 0.0
C371 C 0.28073 0.77191 0.14717 0.0
N372 N 0.24892 0.74146 0.35586 0.0
N373 N 0.26852 0.77329 0.17586 0.0
H374 H 0.72526 0.69498 0.26155 0.0
H375 H 0.7914 0.80974 0.26987 0.0
H376 H 0.73039 0.82365 0.14552 0.0
H377 H 0.78625 0.68147 0.38736 0.0
H378 H 0.7691 0.81546 0.22413 0.0
H379 H 0.74757 0.68918 0.30733 0.0
C380 C 0.73106 0.72198 0.24537 0.0
C381 C 0.72584 0.75992 0.19953 0.0
C382 C 0.77285 0.78601 0.25981 0.0
C383 C 0.7515 0.7536 0.25259 0.0
C384 C 0.7856 0.78281 0.28639 0.0
C385 C 0.79081 0.74501 0.33265 0.0
C386 C 0.76515 0.75123 0.27958 0.0
C387 C 0.78278 0.71094 0.35084 0.0
C388 C 0.74381 0.71873 0.27196 0.0
C389 C 0.73386 0.79407 0.18172 0.0
N390 N 0.7704 0.7149 0.32444 0.0
N391 N 0.74624 0.79005 0.20809 0.0
H392 H 0.1489 0.8714 0.49328 0.0
H393 H 0.12252 0.12745 0.60645 0.0
H394 H 0.10922 0.91123 0.54424 0.0
H395 H 0.15825 0.09224 0.47999 0.0
H396 H 0.11819 0.04731 0.6009 0.0
H397 H 0.15331 0.95104 0.50514 0.0
C398 C 0.14113 0.89688 0.50723 0.0
C399 C 0.12867 0.88467 0.51738 0.0
C400 C 0.12699 0.05717 0.57453 0.0
C401 C 0.13364 0.97594 0.53185 0.0
C402 C 0.12947 0.10286 0.57795 0.0
C403 C 0.14076 0.11657 0.54366 0.0
C404 C 0.13594 0.02485 0.5376 0.0
C405 C 0.14942 0.08326 0.50711 0.0
C406 C 0.14363 0.94237 0.51383 0.0
C407 C 0.11896 0.91916 0.53559 0.0
N408 N 0.14686 0.03908 0.50537 0.0
N409 N 0.12165 0.96312 0.54247 0.0
H410 H 0.89436 0.37547 0.60655 0.0
H411 H 0.86858 0.63101 0.48556 0.0
H412 H 0.85929 0.40993 0.47038 0.0
H413 H 0.90812 0.59069 0.54202 0.0
H414 H 0.86405 0.55149 0.49752 0.0
H415 H 0.8987 0.45556 0.60105 0.0
C416 C 0.88755 0.39991 0.57592 0.0
C417 C 0.87645 0.38602 0.53885 0.0
C418 C 0.87372 0.56005 0.50739 0.0
C419 C 0.88128 0.47763 0.53289 0.0
C420 C 0.87629 0.60545 0.50077 0.0
C421 C 0.88875 0.61745 0.51243 0.0
C422 C 0.88364 0.52642 0.52702 0.0
C423 C 0.89838 0.5829 0.53216 0.0
C424 C 0.89004 0.44554 0.57254 0.0
C425 C 0.86798 0.4191 0.49965 0.0
N426 N 0.89563 0.53905 0.53909 0.0
N427 N 0.87053 0.46327 0.49802 0.0
H428 H 0.88467 0.88828 0.38482 0.0
H429 H 0.8927 0.09988 0.6794 0.0
H430 H 0.87111 0.89222 0.64023 0.0
H431 H 0.8809 0.12007 0.42138 0.0
H432 H 0.88972 0.01895 0.66579 0.0
H433 H 0.88843 0.96904 0.39636 0.0
C434 C 0.88265 0.90598 0.44351 0.0
C435 C 0.87754 0.88371 0.51167 0.0
C436 C 0.88781 0.04115 0.61221 0.0
C437 C 0.88199 0.97528 0.52556 0.0
C438 C 0.88951 0.08722 0.61986 0.0
C439 C 0.88697 0.11671 0.55158 0.0
C440 C 0.88391 0.0241 0.53497 0.0
C441 C 0.88287 0.09852 0.47575 0.0
C442 C 0.8847 0.95198 0.44981 0.0
C443 C 0.875 0.90824 0.58614 0.0
N444 N 0.88159 0.05326 0.46914 0.0
N445 N 0.87734 0.95253 0.59139 0.0
H446 H 0.16157 0.59245 0.53641 0.0
H447 H 0.11111 0.41267 0.58476 0.0
H448 H 0.12195 0.62898 0.47638 0.0
H449 H 0.14952 0.37361 0.50146 0.0
H450 H 0.11482 0.49271 0.56596 0.0
H451 H 0.15735 0.51282 0.54422 0.0
C452 C 0.15196 0.58372 0.52483 0.0
C453 C 0.14209 0.6175 0.50565 0.0
C454 C 0.1224 0.46658 0.55155 0.0
C455 C 0.13716 0.52613 0.51624 0.0
C456 C 0.12033 0.42093 0.56271 0.0
C457 C 0.13003 0.3864 0.54469 0.0
C458 C 0.13437 0.4779 0.5243 0.0
C459 C 0.14178 0.39912 0.51595 0.0
C460 C 0.14958 0.53819 0.52904 0.0
C461 C 0.12983 0.60404 0.49114 0.0
N462 N 0.14366 0.44379 0.50759 0.0
N463 N 0.12767 0.55942 0.49776 0.0
H464 H 0.6217 0.6286 0.06239 0.0
H465 H 0.65053 0.37059 0.02643 0.0
H466 H 0.66101 0.59161 0.99656 0.0
H467 H 0.612 0.4125 0.94711 0.0
H468 H 0.65427 0.45063 0.0445 0.0
H469 H 0.61759 0.54828 0.04934 0.0
C470 C 0.62947 0.60355 0.04604 0.0
C471 C 0.64171 0.61672 0.03045 0.0
C472 C 0.645 0.44223 0.02323 0.0
C473 C 0.63714 0.52516 0.01673 0.0
C474 C 0.64286 0.39664 1.01302 0.0
C475 C 0.63097 0.38491 0.98474 0.0
C476 C 0.63508 0.47639 1.00717 0.0
C477 C 0.62134 0.42008 0.96846 0.0
C478 C 0.62711 0.5579 0.03814 0.0
C479 C 0.65143 0.58295 1.00885 0.0
N480 N 0.62357 0.4642 0.98056 0.0
N481 N 0.64897 0.53878 1.0033 0.0
H482 H 0.39608 0.87605 0.05504 0.0
H483 H 0.3671 0.13375 0.02306 0.0
H484 H 0.35716 0.91284 0.97794 0.0
H485 H 0.40605 0.09336 0.95271 0.0
H486 H 0.36332 0.05338 0.03455 0.0
H487 H 0.40009 0.9566 0.04634 0.0
C488 C 0.38838 0.90106 0.03696 0.0
C489 C 0.37629 0.88778 0.01694 0.0
C490 C 0.37268 0.06222 0.01652 0.0
C491 C 0.38072 0.97956 1.00831 0.0
C492 C 0.37484 0.10798 1.00989 0.0
C493 C 0.38687 0.12021 0.98617 0.0
C494 C 0.38273 0.02844 1.00161 0.0
C495 C 0.3966 0.08541 0.97046 0.0
C496 C 0.39068 0.94685 0.03162 0.0
C497 C 0.36664 0.92155 0.99354 0.0
N498 N 0.39436 0.04111 0.97919 0.0
N499 N 0.36903 0.96583 0.99053 0.0
H500 H 0.35374 0.41314 0.94961 0.0
H501 H 0.39996 0.59191 0.11848 0.0
H502 H 0.39232 0.3735 0.03051 0.0
H503 H 0.36728 0.63001 0.9609 0.0
H504 H 0.39639 0.51196 0.0997 0.0
H505 H 0.35769 0.49281 0.96449 0.0
C506 C 0.36308 0.42126 0.97013 0.0
C507 C 0.37273 0.38669 0.98862 0.0
C508 C 0.39001 0.5378 0.06919 0.0
C509 C 0.37726 0.47795 1.00715 0.0
C510 C 0.39199 0.58346 0.08026 0.0
C511 C 0.38391 0.61768 0.04109 0.0
C512 C 0.37975 0.5262 0.01959 0.0
C513 C 0.37376 0.60472 0.99209 0.0
C514 C 0.36532 0.46676 0.97857 0.0
C515 C 0.38464 0.39914 0.01514 0.0
N516 N 0.37193 0.56008 0.98304 0.0
N517 N 0.38654 0.44377 0.02428 0.0
H518 H 0.66198 0.09176 0.0224 0.0
H519 H 0.61145 0.91246 0.07447 0.0
H520 H 0.62241 0.12728 0.95975 0.0
H521 H 0.64988 0.87236 0.99252 0.0
H522 H 0.61527 0.99229 0.05398 0.0
H523 H 0.65781 0.01203 0.0324 0.0
C524 C 0.65241 0.08273 1.0105 0.0
C525 C 0.64253 0.11616 0.98983 0.0
C526 C 0.62284 0.96596 0.04031 0.0
C527 C 0.63764 0.02496 1.00317 0.0
C528 C 0.62071 0.92046 0.05244 0.0
C529 C 0.63038 0.88573 0.0352 0.0
C530 C 0.63483 0.9769 1.01284 0.0
C531 C 0.64216 0.89807 1.00645 0.0
C532 C 0.65005 0.03721 0.01602 0.0
C533 C 0.63031 0.10249 0.97519 0.0
N534 N 0.64411 0.94261 0.99707 0.0
N535 N 0.62816 0.05796 0.98318 0.0
H536 H 0.15354 0.28431 0.26378 0.0
H537 H 0.11809 0.21614 0.842 0.0
H538 H 0.11832 0.22064 0.26222 0.0
H539 H 0.15338 0.27937 0.84404 0.0
H540 H 0.11804 0.2173 0.99555 0.0
H541 H 0.15361 0.28281 0.11033 0.0
C542 C 0.1458 0.27004 0.23131 0.0
C543 C 0.1359 0.25259 0.27637 0.0
C544 C 0.1258 0.23089 0.96247 0.0
C545 C 0.13595 0.25071 0.09985 0.0
C546 C 0.12585 0.23021 0.8746 0.0
C547 C 0.13576 0.24768 0.82965 0.0
C548 C 0.13573 0.24918 1.00619 0.0
C549 C 0.14554 0.2655 0.87574 0.0
C550 C 0.14586 0.26918 0.14347 0.0
C551 C 0.12615 0.23451 0.23041 0.0
N552 N 0.14527 0.26581 0.96127 0.0
N553 N 0.12643 0.23405 0.14486 0.0
H554 H 0.89985 0.28135 0.26311 0.0
H555 H 0.86309 0.22385 0.83925 0.0
H556 H 0.86451 0.21842 0.25881 0.0
H557 H 0.8983 0.2876 0.84288 0.0
H558 H 0.86343 0.22184 0.99288 0.0
H559 H 0.89951 0.28371 0.10939 0.0
C560 C 0.89203 0.26791 0.23 0.0
C561 C 0.8822 0.24964 0.2743 0.0
C562 C 0.87107 0.23634 0.9601 0.0
C563 C 0.88173 0.25239 0.09783 0.0
C564 C 0.87088 0.23756 0.87222 0.0
C565 C 0.88068 0.25594 0.82774 0.0
C566 C 0.88115 0.25357 1.00422 0.0
C567 C 0.89052 0.27312 0.87424 0.0
C568 C 0.89184 0.26934 0.14209 0.0
C569 C 0.87231 0.23283 0.22763 0.0
N570 N 0.89051 0.27147 0.95971 0.0
N571 N 0.87233 0.23464 0.1422 0.0
H572 H 0.15608 0.76983 0.19887 0.0
H573 H 0.11789 0.72383 0.77506 0.0
H574 H 0.1178 0.72892 0.19513 0.0
H575 H 0.15406 0.7813 0.77814 0.0
H576 H 0.11808 0.72277 0.92859 0.0
H577 H 0.15592 0.77125 0.04518 0.0
C578 C 0.14764 0.76103 0.16596 0.0
C579 C 0.13693 0.74921 0.21061 0.0
C580 C 0.12597 0.73569 0.89576 0.0
C581 C 0.13671 0.75081 0.03374 0.0
C582 C 0.12588 0.73628 0.80784 0.0
C583 C 0.13598 0.7527 0.76308 0.0
C584 C 0.13627 0.75138 0.93989 0.0
C585 C 0.14605 0.76841 0.8096 0.0
C586 C 0.14756 0.76197 0.07798 0.0
C587 C 0.12628 0.73829 0.16389 0.0
N588 N 0.14595 0.76724 0.89522 0.0
N589 N 0.12646 0.73928 0.07832 0.0
H590 H 0.86336 0.71947 0.77108 0.0
H591 H 0.90035 0.77464 0.19473 0.0
H592 H 0.89965 0.77612 0.775 0.0
H593 H 0.86192 0.73508 0.19181 0.0
H594 H 0.90054 0.77245 0.04144 0.0
H595 H 0.86302 0.72162 0.92476 0.0
C596 C 0.87129 0.73223 0.80406 0.0
C597 C 0.88156 0.74763 0.75951 0.0
C598 C 0.89205 0.76433 0.0742 0.0
C599 C 0.88121 0.75021 0.93628 0.0
C600 C 0.89192 0.76554 0.16205 0.0
C601 C 0.88109 0.75505 0.20687 0.0
C602 C 0.8813 0.75227 0.03009 0.0
C603 C 0.87048 0.74356 0.16034 0.0
C604 C 0.87106 0.73356 0.89201 0.0
C605 C 0.89152 0.7639 0.80623 0.0
N606 N 0.87087 0.74235 0.07473 0.0
N607 N 0.8911 0.76469 0.89176 0.0
H608 H 0.61874 0.71359 0.33302 0.0
H609 H 0.65394 0.78318 0.75498 0.0
H610 H 0.65387 0.77779 0.33561 0.0
H611 H 0.61914 0.71698 0.75395 0.0
H612 H 0.65402 0.78143 0.60159 0.0
H613 H 0.61872 0.71427 0.48669 0.0
C614 C 0.62648 0.72775 0.36574 0.0
C615 C 0.63633 0.74566 0.3209 0.0
C616 C 0.64636 0.76726 0.63481 0.0
C617 C 0.63633 0.74663 0.49755 0.0
C618 C 0.64629 0.76827 0.72264 0.0
C619 C 0.63651 0.75022 0.76786 0.0
C620 C 0.63656 0.74808 0.59128 0.0
C621 C 0.62688 0.73133 0.72201 0.0
C622 C 0.62645 0.72815 0.45368 0.0
C623 C 0.64607 0.76359 0.36717 0.0
N624 N 0.62715 0.73078 0.63643 0.0
N625 N 0.64581 0.76365 0.45271 0.0
H626 H 0.39875 0.78216 0.74932 0.0
H627 H 0.36145 0.73472 0.32305 0.0
H628 H 0.3623 0.72665 0.74254 0.0
H629 H 0.39972 0.77568 0.32904 0.0
H630 H 0.36124 0.7347 0.47651 0.0
H631 H 0.39891 0.78309 0.59569 0.0
C632 C 0.39076 0.7702 0.71565 0.0
C633 C 0.38049 0.75426 0.75921 0.0
C634 C 0.36969 0.74369 0.44431 0.0
C635 C 0.38062 0.75533 0.58277 0.0
C636 C 0.36982 0.74379 0.35647 0.0
C637 C 0.38063 0.7552 0.31266 0.0
C638 C 0.38043 0.75527 0.48914 0.0
C639 C 0.39118 0.76658 0.35985 0.0
C640 C 0.39088 0.77069 0.62778 0.0
C641 C 0.37043 0.73916 0.71187 0.0
N642 N 0.3908 0.76637 0.44536 0.0
N643 N 0.37075 0.74013 0.6264 0.0
H644 H 0.61935 0.2145 0.2627 0.0
H645 H 0.65507 0.27787 0.6871 0.0
H646 H 0.65398 0.28165 0.2676 0.0
H647 H 0.61984 0.21432 0.68381 0.0
H648 H 0.65499 0.27821 0.53355 0.0
H649 H 0.6195 0.21299 0.41648 0.0
C650 C 0.62699 0.22893 0.29594 0.0
C651 C 0.63667 0.24827 0.25175 0.0
C652 C 0.64728 0.26414 0.56634 0.0
C653 C 0.6369 0.24658 0.42842 0.0
C654 C 0.64732 0.26388 0.65424 0.0
C655 C 0.63744 0.24604 0.69888 0.0
C656 C 0.63729 0.24641 0.52219 0.0
C657 C 0.62766 0.22844 0.65238 0.0
C658 C 0.62707 0.22805 0.38392 0.0
C659 C 0.64631 0.26642 0.29865 0.0
N660 N 0.62783 0.2291 0.5668 0.0
N661 N 0.64618 0.26511 0.38414 0.0
H662 H 0.36152 0.22784 0.28317 0.0
H663 H 0.4001 0.28237 0.70219 0.0
H664 H 0.39751 0.28654 0.28076 0.0
H665 H 0.36362 0.22699 0.70277 0.0
H666 H 0.39942 0.28399 0.54826 0.0
H667 H 0.36216 0.2275 0.43682 0.0
C668 C 0.36955 0.2408 0.31472 0.0
C669 C 0.37947 0.25724 0.26834 0.0
C670 C 0.39157 0.27149 0.58213 0.0
C671 C 0.38029 0.25675 0.4453 0.0
C672 C 0.39195 0.27049 0.67023 0.0
C673 C 0.38191 0.25449 0.71618 0.0
C674 C 0.38107 0.25635 0.53918 0.0
C675 C 0.37161 0.23962 0.67063 0.0
C676 C 0.36991 0.24054 0.40273 0.0
C677 C 0.38962 0.27354 0.31339 0.0
N678 N 0.37147 0.24091 0.5851 0.0
N679 N 0.38977 0.2728 0.39902 0.0
H680 H 0.04118 0.19253 0.39743 0.0
H681 H 0.9761 0.32528 0.56354 0.0
H682 H 0.03974 0.30412 0.5725 0.0
H683 H 0.97723 0.20171 0.4194 0.0
H684 H 0.99935 0.32139 0.55753 0.0
H685 H 0.01784 0.19842 0.39589 0.0
C686 C 0.03601 0.21828 0.43566 0.0
C687 C 0.04258 0.24777 0.48542 0.0
C688 C 0.99454 0.29515 0.52697 0.0
C689 C 0.01569 0.255 0.48298 0.0
C690 C 0.98121 0.29751 0.52981 0.0
C691 C 0.97461 0.26386 0.4916 0.0
C692 C 1.00143 0.25894 0.48532 0.0
C693 C 0.98187 0.22824 0.45036 0.0
C694 C 0.02264 0.2217 0.43441 0.0
C695 C 0.03522 0.28097 0.53217 0.0
N696 N 0.99485 0.22677 0.4482 0.0
N697 N 0.02223 0.28357 0.52991 0.0
H698 H 0.97671 0.70085 0.59723 0.0
H699 H 0.04109 0.80214 0.44932 0.0
H700 H 0.97741 0.82589 0.45895 0.0
H701 H 0.04073 0.68359 0.60678 0.0
H702 H 0.01781 0.81134 0.45285 0.0
H703 H 1.00009 0.69323 0.60018 0.0
C704 C 0.98175 0.72668 0.56735 0.0
C705 C 0.975 0.76415 0.52796 0.0
C706 C 0.02281 0.78337 0.4869 0.0
C707 C 1.00187 0.75571 0.53145 0.0
C708 C 0.03617 0.77826 0.48547 0.0
C709 C 0.04301 0.74198 0.52783 0.0
C710 C 0.01613 0.75195 0.53077 0.0
C711 C 0.03595 0.7117 0.57206 0.0
C712 C 0.99513 0.72243 0.56946 0.0
C713 C 0.98213 0.79676 0.49118 0.0
N714 N 0.02294 0.7173 0.57218 0.0
N715 N 0.99512 0.7917 0.49361 0.0
H716 H 0.54064 0.79757 0.10705 0.0
H717 H 0.47721 0.72967 0.87763 0.0
H718 H 0.54083 0.71999 0.87754 0.0
H719 H 0.47683 0.80638 0.1082 0.0
H720 H 0.50044 0.7282 0.87423 0.0
H721 H 0.51732 0.80441 0.10502 0.0
C722 C 0.53581 0.78238 0.05561 0.0
C723 C 0.54282 0.75808 0.99238 0.0
C724 C 0.49528 0.74551 0.92547 0.0
C725 C 0.51595 0.76525 0.99051 0.0
C726 C 0.48199 0.74615 0.92777 0.0
C727 C 0.47496 0.76796 0.99362 0.0
C728 C 0.50172 0.76679 0.9895 0.0
C729 C 0.48176 0.78949 0.05573 0.0
C730 C 0.52245 0.78603 0.0549 0.0
C731 C 0.53592 0.7385 0.92833 0.0
N732 N 0.49473 0.78819 0.05232 0.0
N733 N 0.52292 0.74243 0.92919 0.0
H734 H 0.47718 0.19297 0.98817 0.0
H735 H 0.54061 0.32276 0.01927 0.0
H736 H 0.47692 0.33861 0.99808 0.0
H737 H 0.54113 0.1781 0.98542 0.0
H738 H 0.5173 0.32896 1.01373 0.0
H739 H 0.50053 0.18663 0.98755 0.0
C740 C 0.48198 0.22368 0.98944 0.0
C741 C 0.47494 0.26642 0.9936 0.0
C742 C 0.52251 0.29584 1.00752 0.0
C743 C 0.50184 0.25927 0.99436 0.0
C744 C 0.53587 0.29227 1.01035 0.0
C745 C 0.54297 0.24981 1.00296 0.0
C746 C 0.51609 0.2567 0.99723 0.0
C747 C 0.53615 0.21151 0.99283 0.0
C748 C 0.49535 0.21998 0.98973 0.0
C749 C 0.48184 0.30486 0.99641 0.0
N750 N 0.52315 0.21587 0.99026 0.0
N751 N 0.49483 0.30035 0.997 0.0
loop_
_geom_bond_atom_site_label_1
_geom_bond_atom_site_label_2
_geom_bond_distance
_geom_bond_site_symmetry_2
_ccdc_geom_bond_type
Pr0 C2 2.880 . S
Pr0 O20 2.562 . S
Pr0 O21 2.490 . S
Pr0 O22 2.695 . S
Pr0 O23 2.512 . S
Pr0 O25 2.437 . S
Pr0 O28 2.436 . S
Pr0 O30 2.438 . S
Pr1 C11 2.880 . S
Pr1 O22 2.436 . S
Pr1 O24 2.438 . S
Pr1 O26 2.562 . S
Pr1 O27 2.490 . S
Pr1 O28 2.695 . S
Pr1 O29 2.512 . S
Pr1 O31 2.437 . S
C2 Pr0 2.880 . S
C2 C3 1.491 . S
C2 O20 1.254 . S
C2 O21 1.225 . S
C3 C2 1.491 . S
C3 C4 1.392 . S
C3 C8 1.356 . S
C4 C3 1.392 . S
C4 C5 1.368 . S
C4 H32 0.929 . S
C5 C4 1.368 . S
C5 C6 1.386 . S
C5 H33 0.929 . S
C6 C5 1.386 . S
C6 C7 1.373 . S
C7 C6 1.373 . S
C7 C8 1.409 . S
C7 H34 0.931 . S
C8 C3 1.356 . S
C8 C7 1.409 . S
C8 H35 0.930 . S
C9 O22 1.270 . S
C9 O23 1.248 . S
C10 O24 1.267 . S
C10 O25 1.278 . S
C11 Pr1 2.880 . S
C11 C12 1.491 . S
C11 O26 1.254 . S
C11 O27 1.225 . S
C12 C11 1.491 . S
C12 C13 1.392 . S
C12 C17 1.356 . S
C13 C12 1.392 . S
C13 C14 1.368 . S
C13 H36 0.929 . S
C14 C13 1.368 . S
C14 C15 1.386 . S
C14 H37 0.929 . S
C15 C14 1.386 . S
C15 C16 1.373 . S
C16 C15 1.373 . S
C16 C17 1.409 . S
C16 H38 0.931 . S
C17 C12 1.356 . S
C17 C16 1.409 . S
C17 H39 0.930 . S
C18 O28 1.270 . S
C18 O29 1.248 . S
C19 O30 1.267 . S
C19 O31 1.278 . S
O20 Pr0 2.562 . S
O20 C2 1.254 . S
O21 Pr0 2.490 . S
O21 C2 1.225 . S
O22 Pr0 2.695 . S
O22 Pr1 2.436 . S
O22 C9 1.270 . S
O23 Pr0 2.512 . S
O23 C9 1.248 . S
O24 Pr1 2.438 . S
O24 C10 1.267 . S
O25 Pr0 2.437 . S
O25 C10 1.278 . S
O26 Pr1 2.562 . S
O26 C11 1.254 . S
O27 Pr1 2.490 . S
O27 C11 1.225 . S
O28 Pr0 2.436 . S
O28 Pr1 2.695 . S
O28 C18 1.270 . S
O29 Pr1 2.512 . S
O29 C18 1.248 . S
O30 Pr0 2.438 . S
O30 C19 1.267 . S
O31 Pr1 2.437 . S
O31 C19 1.278 . S
H32 C4 0.929 . S
H33 C5 0.929 . S
H34 C7 0.931 . S
H35 C8 0.930 . S
H36 C13 0.929 . S
H37 C14 0.929 . S
H38 C16 0.931 . S
H39 C17 0.930 . S
Pr40 C42 2.880 . S
Pr40 O60 2.562 . S
Pr40 O61 2.490 . S
Pr40 O62 2.695 . S
Pr40 O63 2.512 . S
Pr40 O65 2.437 . S
Pr40 O68 2.436 . S
Pr40 O70 2.438 . S
Pr41 C51 2.880 . S
Pr41 O62 2.436 . S
Pr41 O64 2.438 . S
Pr41 O66 2.562 . S
Pr41 O67 2.490 . S
Pr41 O68 2.695 . S
Pr41 O69 2.512 . S
Pr41 O71 2.437 . S
C42 Pr40 2.880 . S
C42 C43 1.491 . S
C42 O60 1.254 . S
C42 O61 1.225 . S
C43 C42 1.491 . S
C43 C44 1.392 . S
C43 C48 1.356 . S
C44 C43 1.392 . S
C44 C45 1.368 . S
C44 H72 0.929 . S
C45 C44 1.368 . S
C45 C46 1.386 . S
C45 H73 0.929 . S
C46 C45 1.386 . S
C46 C47 1.373 . S
C47 C46 1.373 . S
C47 C48 1.409 . S
C47 H74 0.931 . S
C48 C43 1.356 . S
C48 C47 1.409 . S
C48 H75 0.930 . S
C49 O62 1.270 . S
C49 O63 1.248 . S
C50 O64 1.267 . S
C50 O65 1.278 . S
C51 Pr41 2.880 . S
C51 C52 1.491 . S
C51 O66 1.254 . S
C51 O67 1.225 . S
C52 C51 1.491 . S
C52 C53 1.392 . S
C52 C57 1.356 . S
C53 C52 1.392 . S
C53 C54 1.368 . S
C53 H76 0.929 . S
C54 C53 1.368 . S
C54 C55 1.386 . S
C54 H77 0.929 . S
C55 C54 1.386 . S
C55 C56 1.373 . S
C56 C55 1.373 . S
C56 C57 1.409 . S
C56 H78 0.931 . S
C57 C52 1.356 . S
C57 C56 1.409 . S
C57 H79 0.930 . S
C58 O68 1.270 . S
C58 O69 1.248 . S
C59 O70 1.267 . S
C59 O71 1.278 . S
O60 Pr40 2.562 . S
O60 C42 1.254 . S
O61 Pr40 2.490 . S
O61 C42 1.225 . S
O62 Pr40 2.695 . S
O62 Pr41 2.436 . S
O62 C49 1.270 . S
O63 Pr40 2.512 . S
O63 C49 1.248 . S
O64 Pr41 2.438 . S
O64 C50 1.267 . S
O65 Pr40 2.437 . S
O65 C50 1.278 . S
O66 Pr41 2.562 . S
O66 C51 1.254 . S
O67 Pr41 2.490 . S
O67 C51 1.225 . S
O68 Pr40 2.436 . S
O68 Pr41 2.695 . S
O68 C58 1.270 . S
O69 Pr41 2.512 . S
O69 C58 1.248 . S
O70 Pr40 2.438 . S
O70 C59 1.267 . S
O71 Pr41 2.437 . S
O71 C59 1.278 . S
H72 C44 0.929 . S
H73 C45 0.929 . S
H74 C47 0.931 . S
H75 C48 0.930 . S
H76 C53 0.929 . S
H77 C54 0.929 . S
H78 C56 0.931 . S
H79 C57 0.930 . S
Pr80 C82 2.880 . S
Pr80 O100 2.562 . S
Pr80 O101 2.490 . S
Pr80 O102 2.695 . S
Pr80 O103 2.512 . S
Pr80 O105 2.437 . S
Pr80 O108 2.436 . S
Pr80 O110 2.438 . S
Pr81 C91 2.880 . S
Pr81 O102 2.436 . S
Pr81 O104 2.438 . S
Pr81 O106 2.562 . S
Pr81 O107 2.490 . S
Pr81 O108 2.695 . S
Pr81 O109 2.512 . S
Pr81 O111 2.437 . S
C82 Pr80 2.880 . S
C82 C83 1.491 . S
C82 O100 1.254 . S
C82 O101 1.225 . S
C83 C82 1.491 . S
C83 C84 1.392 . S
C83 C88 1.356 . S
C84 C83 1.392 . S
C84 C85 1.368 . S
C84 H112 0.929 . S
C85 C84 1.368 . S
C85 C86 1.386 . S
C85 H113 0.929 . S
C86 C85 1.386 . S
C86 C87 1.373 . S
C87 C86 1.373 . S
C87 C88 1.409 . S
C87 H114 0.931 . S
C88 C83 1.356 . S
C88 C87 1.409 . S
C88 H115 0.930 . S
C89 O102 1.270 . S
C89 O103 1.248 . S
C90 O104 1.267 . S
C90 O105 1.278 . S
C91 Pr81 2.880 . S
C91 C92 1.491 . S
C91 O106 1.254 . S
C91 O107 1.225 . S
C92 C91 1.491 . S
C92 C93 1.392 . S
C92 C97 1.356 . S
C93 C92 1.392 . S
C93 C94 1.368 . S
C93 H116 0.929 . S
C94 C93 1.368 . S
C94 C95 1.386 . S
C94 H117 0.929 . S
C95 C94 1.386 . S
C95 C96 1.373 . S
C96 C95 1.373 . S
C96 C97 1.409 . S
C96 H118 0.931 . S
C97 C92 1.356 . S
C97 C96 1.409 . S
C97 H119 0.930 . S
C98 O108 1.270 . S
C98 O109 1.248 . S
C99 O110 1.267 . S
C99 O111 1.278 . S
O100 Pr80 2.562 . S
O100 C82 1.254 . S
O101 Pr80 2.490 . S
O101 C82 1.225 . S
O102 Pr80 2.695 . S
O102 Pr81 2.436 . S
O102 C89 1.270 . S
O103 Pr80 2.512 . S
O103 C89 1.248 . S
O104 Pr81 2.438 . S
O104 C90 1.267 . S
O105 Pr80 2.437 . S
O105 C90 1.278 . S
O106 Pr81 2.562 . S
O106 C91 1.254 . S
O107 Pr81 2.490 . S
O107 C91 1.225 . S
O108 Pr80 2.436 . S
O108 Pr81 2.695 . S
O108 C98 1.270 . S
O109 Pr81 2.512 . S
O109 C98 1.248 . S
O110 Pr80 2.438 . S
O110 C99 1.267 . S
O111 Pr81 2.437 . S
O111 C99 1.278 . S
H112 C84 0.929 . S
H113 C85 0.929 . S
H114 C87 0.931 . S
H115 C88 0.930 . S
H116 C93 0.929 . S
H117 C94 0.929 . S
H118 C96 0.931 . S
H119 C97 0.930 . S
Pr120 C122 2.880 . S
Pr120 O140 2.562 . S
Pr120 O141 2.490 . S
Pr120 O142 2.695 . S
Pr120 O143 2.512 . S
Pr120 O145 2.437 . S
Pr120 O148 2.436 . S
Pr120 O150 2.438 . S
Pr121 C131 2.880 . S
Pr121 O142 2.436 . S
Pr121 O144 2.438 . S
Pr121 O146 2.562 . S
Pr121 O147 2.490 . S
Pr121 O148 2.695 . S
Pr121 O149 2.512 . S
Pr121 O151 2.437 . S
C122 Pr120 2.880 . S
C122 C123 1.491 . S
C122 O140 1.254 . S
C122 O141 1.225 . S
C123 C122 1.491 . S
C123 C124 1.392 . S
C123 C128 1.356 . S
C124 C123 1.392 . S
C124 C125 1.368 . S
C124 H152 0.929 . S
C125 C124 1.368 . S
C125 C126 1.386 . S
C125 H153 0.929 . S
C126 C125 1.386 . S
C126 C127 1.373 . S
C127 C126 1.373 . S
C127 C128 1.409 . S
C127 H154 0.931 . S
C128 C123 1.356 . S
C128 C127 1.409 . S
C128 H155 0.930 . S
C129 O142 1.270 . S
C129 O143 1.248 . S
C130 O144 1.267 . S
C130 O145 1.278 . S
C131 Pr121 2.880 . S
C131 C132 1.491 . S
C131 O146 1.254 . S
C131 O147 1.225 . S
C132 C131 1.491 . S
C132 C133 1.392 . S
C132 C137 1.356 . S
C133 C132 1.392 . S
C133 C134 1.368 . S
C133 H156 0.929 . S
C134 C133 1.368 . S
C134 C135 1.386 . S
C134 H157 0.929 . S
C135 C134 1.386 . S
C135 C136 1.373 . S
C136 C135 1.373 . S
C136 C137 1.409 . S
C136 H158 0.931 . S
C137 C132 1.356 . S
C137 C136 1.409 . S
C137 H159 0.930 . S
C138 O148 1.270 . S
C138 O149 1.248 . S
C139 O150 1.267 . S
C139 O151 1.278 . S
O140 Pr120 2.562 . S
O140 C122 1.254 . S
O141 Pr120 2.490 . S
O141 C122 1.225 . S
O142 Pr120 2.695 . S
O142 Pr121 2.436 . S
O142 C129 1.270 . S
O143 Pr120 2.512 . S
O143 C129 1.248 . S
O144 Pr121 2.438 . S
O144 C130 1.267 . S
O145 Pr120 2.437 . S
O145 C130 1.278 . S
O146 Pr121 2.562 . S
O146 C131 1.254 . S
O147 Pr121 2.490 . S
O147 C131 1.225 . S
O148 Pr120 2.436 . S
O148 Pr121 2.695 . S
O148 C138 1.270 . S
O149 Pr121 2.512 . S
O149 C138 1.248 . S
O150 Pr120 2.438 . S
O150 C139 1.267 . S
O151 Pr121 2.437 . S
O151 C139 1.278 . S
H152 C124 0.929 . S
H153 C125 0.929 . S
H154 C127 0.931 . S
H155 C128 0.930 . S
H156 C133 0.929 . S
H157 C134 0.929 . S
H158 C136 0.931 . S
H159 C137 0.930 . S
Pr160 C162 2.880 1_556 S
Pr160 O180 2.562 1_556 S
Pr160 O181 2.490 1_556 S
Pr160 O182 2.695 . S
Pr160 O183 2.512 . S
Pr160 O185 2.437 1_556 S
Pr160 O188 2.436 1_556 S
Pr160 O190 2.438 . S
Pr161 C171 2.880 1_554 S
Pr161 O182 2.436 1_554 S
Pr161 O184 2.438 . S
Pr161 O186 2.562 1_554 S
Pr161 O187 2.490 1_554 S
Pr161 O188 2.695 . S
Pr161 O189 2.512 . S
Pr161 O191 2.437 1_554 S
C162 Pr160 2.880 1_554 S
C162 C163 1.491 . S
C162 O180 1.254 . S
C162 O181 1.225 . S
C163 C162 1.491 . S
C163 C164 1.392 . S
C163 C168 1.356 . S
C164 C163 1.392 . S
C164 C165 1.368 . S
C164 H192 0.929 . S
C165 C164 1.368 . S
C165 C166 1.386 . S
C165 H193 0.929 . S
C166 C165 1.386 . S
C166 C167 1.373 . S
C167 C166 1.373 . S
C167 C168 1.409 . S
C167 H194 0.931 . S
C168 C163 1.356 . S
C168 C167 1.409 . S
C168 H195 0.930 . S
C169 O182 1.270 . S
C169 O183 1.248 . S
C170 O184 1.267 . S
C170 O185 1.278 . S
C171 Pr161 2.880 1_556 S
C171 C172 1.491 . S
C171 O186 1.254 . S
C171 O187 1.225 . S
C172 C171 1.491 . S
C172 C173 1.392 . S
C172 C177 1.356 . S
C173 C172 1.392 . S
C173 C174 1.368 . S
C173 H196 0.929 . S
C174 C173 1.368 . S
C174 C175 1.386 . S
C174 H197 0.929 . S
C175 C174 1.386 . S
C175 C176 1.373 . S
C176 C175 1.373 . S
C176 C177 1.409 . S
C176 H198 0.931 . S
C177 C172 1.356 . S
C177 C176 1.409 . S
C177 H199 0.930 . S
C178 O188 1.270 . S
C178 O189 1.248 . S
C179 O190 1.267 . S
C179 O191 1.278 . S
O180 Pr160 2.562 1_554 S
O180 C162 1.254 . S
O181 Pr160 2.490 1_554 S
O181 C162 1.225 . S
O182 Pr160 2.695 . S
O182 Pr161 2.436 1_556 S
O182 C169 1.270 . S
O183 Pr160 2.512 . S
O183 C169 1.248 . S
O184 Pr161 2.438 . S
O184 C170 1.267 . S
O185 Pr160 2.437 1_554 S
O185 C170 1.278 . S
O186 Pr161 2.562 1_556 S
O186 C171 1.254 . S
O187 Pr161 2.490 1_556 S
O187 C171 1.225 . S
O188 Pr160 2.436 1_554 S
O188 Pr161 2.695 . S
O188 C178 1.270 . S
O189 Pr161 2.512 . S
O189 C178 1.248 . S
O190 Pr160 2.438 . S
O190 C179 1.267 . S
O191 Pr161 2.437 1_556 S
O191 C179 1.278 . S
H192 C164 0.929 . S
H193 C165 0.929 . S
H194 C167 0.931 . S
H195 C168 0.930 . S
H196 C173 0.929 . S
H197 C174 0.929 . S
H198 C176 0.931 . S
H199 C177 0.930 . S
Pr200 C202 2.880 1_556 S
Pr200 O220 2.562 1_556 S
Pr200 O221 2.490 1_556 S
Pr200 O222 2.695 . S
Pr200 O223 2.512 . S
Pr200 O225 2.437 1_556 S
Pr200 O228 2.436 1_556 S
Pr200 O230 2.438 . S
Pr201 C211 2.880 1_554 S
Pr201 O222 2.436 1_554 S
Pr201 O224 2.438 . S
Pr201 O226 2.562 1_554 S
Pr201 O227 2.490 1_554 S
Pr201 O228 2.695 . S
Pr201 O229 2.512 . S
Pr201 O231 2.437 1_554 S
C202 Pr200 2.880 1_554 S
C202 C203 1.491 . S
C202 O220 1.254 . S
C202 O221 1.225 . S
C203 C202 1.491 . S
C203 C204 1.392 . S
C203 C208 1.356 . S
C204 C203 1.392 . S
C204 C205 1.368 . S
C204 H232 0.929 . S
C205 C204 1.368 . S
C205 C206 1.386 . S
C205 H233 0.929 . S
C206 C205 1.386 . S
C206 C207 1.373 . S
C207 C206 1.373 . S
C207 C208 1.409 . S
C207 H234 0.931 . S
C208 C203 1.356 . S
C208 C207 1.409 . S
C208 H235 0.930 . S
C209 O222 1.270 . S
C209 O223 1.248 . S
C210 O224 1.267 . S
C210 O225 1.278 . S
C211 Pr201 2.880 1_556 S
C211 C212 1.491 . S
C211 O226 1.254 . S
C211 O227 1.225 . S
C212 C211 1.491 . S
C212 C213 1.392 . S
C212 C217 1.356 . S
C213 C212 1.392 . S
C213 C214 1.368 . S
C213 H236 0.929 . S
C214 C213 1.368 . S
C214 C215 1.386 . S
C214 H237 0.929 . S
C215 C214 1.386 . S
C215 C216 1.373 . S
C216 C215 1.373 . S
C216 C217 1.409 . S
C216 H238 0.931 . S
C217 C212 1.356 . S
C217 C216 1.409 . S
C217 H239 0.930 . S
C218 O228 1.270 . S
C218 O229 1.248 . S
C219 O230 1.267 . S
C219 O231 1.278 . S
O220 Pr200 2.562 1_554 S
O220 C202 1.254 . S
O221 Pr200 2.490 1_554 S
O221 C202 1.225 . S
O222 Pr200 2.695 . S
O222 Pr201 2.436 1_556 S
O222 C209 1.270 . S
O223 Pr200 2.512 . S
O223 C209 1.248 . S
O224 Pr201 2.438 . S
O224 C210 1.267 . S
O225 Pr200 2.437 1_554 S
O225 C210 1.278 . S
O226 Pr201 2.562 1_556 S
O226 C211 1.254 . S
O227 Pr201 2.490 1_556 S
O227 C211 1.225 . S
O228 Pr200 2.436 1_554 S
O228 Pr201 2.695 . S
O228 C218 1.270 . S
O229 Pr201 2.512 . S
O229 C218 1.248 . S
O230 Pr200 2.438 . S
O230 C219 1.267 . S
O231 Pr201 2.437 1_556 S
O231 C219 1.278 . S
H232 C204 0.929 . S
H233 C205 0.929 . S
H234 C207 0.931 . S
H235 C208 0.930 . S
H236 C213 0.929 . S
H237 C214 0.929 . S
H238 C216 0.931 . S
H239 C217 0.930 . S
Pr240 C242 2.880 1_556 S
Pr240 O260 2.562 1_556 S
Pr240 O261 2.490 1_556 S
Pr240 O262 2.695 . S
Pr240 O263 2.512 . S
Pr240 O265 2.437 1_556 S
Pr240 O268 2.436 1_556 S
Pr240 O270 2.438 . S
Pr241 C251 2.880 1_554 S
Pr241 O262 2.436 1_554 S
Pr241 O264 2.438 . S
Pr241 O266 2.562 1_554 S
Pr241 O267 2.490 1_554 S
Pr241 O268 2.695 . S
Pr241 O269 2.512 . S
Pr241 O271 2.437 1_554 S
C242 Pr240 2.880 1_554 S
C242 C243 1.491 . S
C242 O260 1.254 . S
C242 O261 1.225 . S
C243 C242 1.491 . S
C243 C244 1.392 . S
C243 C248 1.356 . S
C244 C243 1.392 . S
C244 C245 1.368 . S
C244 H272 0.929 . S
C245 C244 1.368 . S
C245 C246 1.386 . S
C245 H273 0.929 . S
C246 C245 1.386 . S
C246 C247 1.373 . S
C247 C246 1.373 . S
C247 C248 1.409 . S
C247 H274 0.931 . S
C248 C243 1.356 . S
C248 C247 1.409 . S
C248 H275 0.930 . S
C249 O262 1.270 . S
C249 O263 1.248 . S
C250 O264 1.267 . S
C250 O265 1.278 . S
C251 Pr241 2.880 1_556 S
C251 C252 1.491 . S
C251 O266 1.254 . S
C251 O267 1.225 . S
C252 C251 1.491 . S
C252 C253 1.392 . S
C252 C257 1.356 . S
C253 C252 1.392 . S
C253 C254 1.368 . S
C253 H276 0.929 . S
C254 C253 1.368 . S
C254 C255 1.386 . S
C254 H277 0.929 . S
C255 C254 1.386 . S
C255 C256 1.373 . S
C256 C255 1.373 . S
C256 C257 1.409 . S
C256 H278 0.931 . S
C257 C252 1.356 . S
C257 C256 1.409 . S
C257 H279 0.930 . S
C258 O268 1.270 . S
C258 O269 1.248 . S
C259 O270 1.267 . S
C259 O271 1.278 . S
O260 Pr240 2.562 1_554 S
O260 C242 1.254 . S
O261 Pr240 2.490 1_554 S
O261 C242 1.225 . S
O262 Pr240 2.695 . S
O262 Pr241 2.436 1_556 S
O262 C249 1.270 . S
O263 Pr240 2.512 . S
O263 C249 1.248 . S
O264 Pr241 2.438 . S
O264 C250 1.267 . S
O265 Pr240 2.437 1_554 S
O265 C250 1.278 . S
O266 Pr241 2.562 1_556 S
O266 C251 1.254 . S
O267 Pr241 2.490 1_556 S
O267 C251 1.225 . S
O268 Pr240 2.436 1_554 S
O268 Pr241 2.695 . S
O268 C258 1.270 . S
O269 Pr241 2.512 . S
O269 C258 1.248 . S
O270 Pr240 2.438 . S
O270 C259 1.267 . S
O271 Pr241 2.437 1_556 S
O271 C259 1.278 . S
H272 C244 0.929 . S
H273 C245 0.929 . S
H274 C247 0.931 . S
H275 C248 0.930 . S
H276 C253 0.929 . S
H277 C254 0.929 . S
H278 C256 0.931 . S
H279 C257 0.930 . S
Pr280 C282 2.880 1_556 S
Pr280 O300 2.562 1_556 S
Pr280 O301 2.490 1_556 S
Pr280 O302 2.695 . S
Pr280 O303 2.512 . S
Pr280 O305 2.437 1_556 S
Pr280 O308 2.436 1_556 S
Pr280 O310 2.438 . S
Pr281 C291 2.880 1_554 S
Pr281 O302 2.436 1_554 S
Pr281 O304 2.438 . S
Pr281 O306 2.562 1_554 S
Pr281 O307 2.490 1_554 S
Pr281 O308 2.695 . S
Pr281 O309 2.512 . S
Pr281 O311 2.437 1_554 S
C282 Pr280 2.880 1_554 S
C282 C283 1.491 . S
C282 O300 1.254 . S
C282 O301 1.225 . S
C283 C282 1.491 . S
C283 C284 1.392 . S
C283 C288 1.356 . S
C284 C283 1.392 . S
C284 C285 1.368 . S
C284 H312 0.929 . S
C285 C284 1.368 . S
C285 C286 1.386 . S
C285 H313 0.929 . S
C286 C285 1.386 . S
C286 C287 1.373 . S
C287 C286 1.373 . S
C287 C288 1.409 . S
C287 H314 0.931 . S
C288 C283 1.356 . S
C288 C287 1.409 . S
C288 H315 0.930 . S
C289 O302 1.270 . S
C289 O303 1.248 . S
C290 O304 1.267 . S
C290 O305 1.278 . S
C291 Pr281 2.880 1_556 S
C291 C292 1.491 . S
C291 O306 1.254 . S
C291 O307 1.225 . S
C292 C291 1.491 . S
C292 C293 1.392 . S
C292 C297 1.356 . S
C293 C292 1.392 . S
C293 C294 1.368 . S
C293 H316 0.929 . S
C294 C293 1.368 . S
C294 C295 1.386 . S
C294 H317 0.929 . S
C295 C294 1.386 . S
C295 C296 1.373 . S
C296 C295 1.373 . S
C296 C297 1.409 . S
C296 H318 0.931 . S
C297 C292 1.356 . S
C297 C296 1.409 . S
C297 H319 0.930 . S
C298 O308 1.270 . S
C298 O309 1.248 . S
C299 O310 1.267 . S
C299 O311 1.278 . S
O300 Pr280 2.562 1_554 S
O300 C282 1.254 . S
O301 Pr280 2.490 1_554 S
O301 C282 1.225 . S
O302 Pr280 2.695 . S
O302 Pr281 2.436 1_556 S
O302 C289 1.270 . S
O303 Pr280 2.512 . S
O303 C289 1.248 . S
O304 Pr281 2.438 . S
O304 C290 1.267 . S
O305 Pr280 2.437 1_554 S
O305 C290 1.278 . S
O306 Pr281 2.562 1_556 S
O306 C291 1.254 . S
O307 Pr281 2.490 1_556 S
O307 C291 1.225 . S
O308 Pr280 2.436 1_554 S
O308 Pr281 2.695 . S
O308 C298 1.270 . S
O309 Pr281 2.512 . S
O309 C298 1.248 . S
O310 Pr280 2.438 . S
O310 C299 1.267 . S
O311 Pr281 2.437 1_556 S
O311 C299 1.278 . S
H312 C284 0.929 . S
H313 C285 0.929 . S
H314 C287 0.931 . S
H315 C288 0.930 . S
H316 C293 0.929 . S
H317 C294 0.929 . S
H318 C296 0.931 . S
H319 C297 0.930 . S
H320 C326 0.930 . S
H321 C330 0.930 . S
H322 C335 0.929 . S
H323 C333 0.929 . S
H324 C328 0.929 . S
H325 C334 0.929 . S
C326 H320 0.930 . S
C326 C327 1.367 . S
C326 C334 1.378 . S
C327 C326 1.367 . S
C327 C335 1.433 . S
C328 H324 0.929 . S
C328 C330 1.378 . S
C328 C332 1.350 . S
C329 C332 1.463 . S
C329 C334 1.350 . S
C329 N337 1.427 . S
C330 H321 0.930 . S
C330 C328 1.378 . S
C330 C331 1.367 . S
C331 C330 1.367 . S
C331 C333 1.433 . S
C332 C328 1.350 . S
C332 C329 1.463 . S
C332 N336 1.427 . S
C333 H323 0.929 . S
C333 C331 1.433 . S
C333 N336 1.384 . S
C334 H325 0.929 . S
C334 C326 1.378 . S
C334 C329 1.350 . S
C335 H322 0.929 . S
C335 C327 1.433 . S
C335 N337 1.384 . S
N336 C332 1.427 . S
N336 C333 1.384 . S
N337 C329 1.427 . S
N337 C335 1.384 . S
H338 C344 0.930 . S
H339 C348 0.930 . S
H340 C353 0.929 . S
H341 C351 0.929 . S
H342 C346 0.929 . S
H343 C352 0.929 . S
C344 H338 0.930 . S
C344 C345 1.367 . S
C344 C352 1.378 . S
C345 C344 1.367 . S
C345 C353 1.433 . S
C346 H342 0.929 . S
C346 C348 1.378 . S
C346 C350 1.350 . S
C347 C350 1.463 . S
C347 C352 1.350 . S
C347 N355 1.427 . S
C348 H339 0.930 . S
C348 C346 1.378 . S
C348 C349 1.367 . S
C349 C348 1.367 . S
C349 C351 1.433 . S
C350 C346 1.350 . S
C350 C347 1.463 . S
C350 N354 1.427 . S
C351 H341 0.929 . S
C351 C349 1.433 . S
C351 N354 1.384 . S
C352 H343 0.929 . S
C352 C344 1.378 . S
C352 C347 1.350 . S
C353 H340 0.929 . S
C353 C345 1.433 . S
C353 N355 1.384 . S
N354 C350 1.427 . S
N354 C351 1.384 . S
N355 C347 1.427 . S
N355 C353 1.384 . S
H356 C362 0.930 . S
H357 C366 0.930 . S
H358 C371 0.929 . S
H359 C369 0.929 . S
H360 C364 0.929 . S
H361 C370 0.929 . S
C362 H356 0.930 . S
C362 C363 1.367 . S
C362 C370 1.378 . S
C363 C362 1.367 . S
C363 C371 1.433 . S
C364 H360 0.929 . S
C364 C366 1.378 . S
C364 C368 1.350 . S
C365 C368 1.463 . S
C365 C370 1.350 . S
C365 N373 1.427 . S
C366 H357 0.930 . S
C366 C364 1.378 . S
C366 C367 1.367 . S
C367 C366 1.367 . S
C367 C369 1.433 . S
C368 C364 1.350 . S
C368 C365 1.463 . S
C368 N372 1.427 . S
C369 H359 0.929 . S
C369 C367 1.433 . S
C369 N372 1.384 . S
C370 H361 0.929 . S
C370 C362 1.378 . S
C370 C365 1.350 . S
C371 H358 0.929 . S
C371 C363 1.433 . S
C371 N373 1.384 . S
N372 C368 1.427 . S
N372 C369 1.384 . S
N373 C365 1.427 . S
N373 C371 1.384 . S
H374 C380 0.930 . S
H375 C384 0.930 . S
H376 C389 0.929 . S
H377 C387 0.929 . S
H378 C382 0.929 . S
H379 C388 0.929 . S
C380 H374 0.930 . S
C380 C381 1.367 . S
C380 C388 1.378 . S
C381 C380 1.367 . S
C381 C389 1.433 . S
C382 H378 0.929 . S
C382 C384 1.378 . S
C382 C386 1.350 . S
C383 C386 1.463 . S
C383 C388 1.350 . S
C383 N391 1.427 . S
C384 H375 0.930 . S
C384 C382 1.378 . S
C384 C385 1.367 . S
C385 C384 1.367 . S
C385 C387 1.433 . S
C386 C382 1.350 . S
C386 C383 1.463 . S
C386 N390 1.427 . S
C387 H377 0.929 . S
C387 C385 1.433 . S
C387 N390 1.384 . S
C388 H379 0.929 . S
C388 C380 1.378 . S
C388 C383 1.350 . S
C389 H376 0.929 . S
C389 C381 1.433 . S
C389 N391 1.384 . S
N390 C386 1.427 . S
N390 C387 1.384 . S
N391 C383 1.427 . S
N391 C389 1.384 . S
H392 C398 0.930 . S
H393 C402 0.930 . S
H394 C407 0.929 . S
H395 C405 0.929 . S
H396 C400 0.929 . S
H397 C406 0.929 . S
C398 H392 0.930 . S
C398 C399 1.367 . S
C398 C406 1.378 . S
C399 C398 1.367 . S
C399 C407 1.433 . S
C400 H396 0.929 . S
C400 C402 1.378 . S
C400 C404 1.350 . S
C401 C404 1.463 1_565 S
C401 C406 1.350 . S
C401 N409 1.427 . S
C402 H393 0.930 . S
C402 C400 1.378 . S
C402 C403 1.367 . S
C403 C402 1.367 . S
C403 C405 1.433 . S
C404 C400 1.350 . S
C404 C401 1.463 1_545 S
C404 N408 1.427 . S
C405 H395 0.929 . S
C405 C403 1.433 . S
C405 N408 1.384 . S
C406 H397 0.929 . S
C406 C398 1.378 . S
C406 C401 1.350 . S
C407 H394 0.929 . S
C407 C399 1.433 . S
C407 N409 1.384 . S
N408 C404 1.427 . S
N408 C405 1.384 . S
N409 C401 1.427 . S
N409 C407 1.384 . S
H410 C416 0.930 . S
H411 C420 0.930 . S
H412 C425 0.929 . S
H413 C423 0.929 . S
H414 C418 0.929 . S
H415 C424 0.929 . S
C416 H410 0.930 . S
C416 C417 1.367 . S
C416 C424 1.378 . S
C417 C416 1.367 . S
C417 C425 1.433 . S
C418 H414 0.929 . S
C418 C420 1.378 . S
C418 C422 1.350 . S
C419 C422 1.463 . S
C419 C424 1.350 . S
C419 N427 1.427 . S
C420 H411 0.930 . S
C420 C418 1.378 . S
C420 C421 1.367 . S
C421 C420 1.367 . S
C421 C423 1.433 . S
C422 C418 1.350 . S
C422 C419 1.463 . S
C422 N426 1.427 . S
C423 H413 0.929 . S
C423 C421 1.433 . S
C423 N426 1.384 . S
C424 H415 0.929 . S
C424 C416 1.378 . S
C424 C419 1.350 . S
C425 H412 0.929 . S
C425 C417 1.433 . S
C425 N427 1.384 . S
N426 C422 1.427 . S
N426 C423 1.384 . S
N427 C419 1.427 . S
N427 C425 1.384 . S
H428 C434 0.930 . S
H429 C438 0.930 . S
H430 C443 0.929 . S
H431 C441 0.929 . S
H432 C436 0.929 . S
H433 C442 0.929 . S
C434 H428 0.930 . S
C434 C435 1.367 . S
C434 C442 1.378 . S
C435 C434 1.367 . S
C435 C443 1.433 . S
C436 H432 0.929 . S
C436 C438 1.378 . S
C436 C440 1.350 . S
C437 C440 1.463 1_565 S
C437 C442 1.350 . S
C437 N445 1.427 . S
C438 H429 0.930 . S
C438 C436 1.378 . S
C438 C439 1.367 . S
C439 C438 1.367 . S
C439 C441 1.433 . S
C440 C436 1.350 . S
C440 C437 1.463 1_545 S
C440 N444 1.427 . S
C441 H431 0.929 . S
C441 C439 1.433 . S
C441 N444 1.384 . S
C442 H433 0.929 . S
C442 C434 1.378 . S
C442 C437 1.350 . S
C443 H430 0.929 . S
C443 C435 1.433 . S
C443 N445 1.384 . S
N444 C440 1.427 . S
N444 C441 1.384 . S
N445 C437 1.427 . S
N445 C443 1.384 . S
H446 C452 0.930 . S
H447 C456 0.930 . S
H448 C461 0.929 . S
H449 C459 0.929 . S
H450 C454 0.929 . S
H451 C460 0.929 . S
C452 H446 0.930 . S
C452 C453 1.367 . S
C452 C460 1.378 . S
C453 C452 1.367 . S
C453 C461 1.433 . S
C454 H450 0.929 . S
C454 C456 1.378 . S
C454 C458 1.350 . S
C455 C458 1.463 . S
C455 C460 1.350 . S
C455 N463 1.427 . S
C456 H447 0.930 . S
C456 C454 1.378 . S
C456 C457 1.367 . S
C457 C456 1.367 . S
C457 C459 1.433 . S
C458 C454 1.350 . S
C458 C455 1.463 . S
C458 N462 1.427 . S
C459 H449 0.929 . S
C459 C457 1.433 . S
C459 N462 1.384 . S
C460 H451 0.929 . S
C460 C452 1.378 . S
C460 C455 1.350 . S
C461 H448 0.929 . S
C461 C453 1.433 . S
C461 N463 1.384 . S
N462 C458 1.427 . S
N462 C459 1.384 . S
N463 C455 1.427 . S
N463 C461 1.384 . S
H464 C470 0.930 . S
H465 C474 0.930 . S
H466 C479 0.929 . S
H467 C477 0.929 . S
H468 C472 0.929 . S
H469 C478 0.929 . S
C470 H464 0.930 . S
C470 C471 1.367 . S
C470 C478 1.378 . S
C471 C470 1.367 . S
C471 C479 1.433 1_556 S
C472 H468 0.929 . S
C472 C474 1.378 . S
C472 C476 1.350 1_554 S
C473 C476 1.463 . S
C473 C478 1.350 . S
C473 N481 1.427 1_556 S
C474 H465 0.930 . S
C474 C472 1.378 . S
C474 C475 1.367 1_554 S
C475 C474 1.367 1_556 S
C475 C477 1.433 . S
C476 C472 1.350 1_556 S
C476 C473 1.463 . S
C476 N480 1.427 . S
C477 H467 0.929 . S
C477 C475 1.433 . S
C477 N480 1.384 . S
C478 H469 0.929 . S
C478 C470 1.378 . S
C478 C473 1.350 . S
C479 H466 0.929 . S
C479 C471 1.433 1_554 S
C479 N481 1.384 . S
N480 C476 1.427 . S
N480 C477 1.384 . S
N481 C473 1.427 1_554 S
N481 C479 1.384 . S
H482 C488 0.930 . S
H483 C492 0.930 . S
H484 C497 0.929 . S
H485 C495 0.929 . S
H486 C490 0.929 . S
H487 C496 0.929 . S
C488 H482 0.930 . S
C488 C489 1.367 1_554 S
C488 C496 1.378 . S
C489 C488 1.367 1_556 S
C489 C497 1.433 . S
C490 H486 0.929 . S
C490 C492 1.378 . S
C490 C494 1.350 . S
C491 C494 1.463 1_565 S
C491 C496 1.350 1_556 S
C491 N499 1.427 . S
C492 H483 0.930 . S
C492 C490 1.378 . S
C492 C493 1.367 . S
C493 C492 1.367 . S
C493 C495 1.433 1_556 S
C494 C490 1.350 . S
C494 C491 1.463 1_545 S
C494 N498 1.427 1_556 S
C495 H485 0.929 . S
C495 C493 1.433 1_554 S
C495 N498 1.384 . S
C496 H487 0.929 . S
C496 C488 1.378 . S
C496 C491 1.350 1_554 S
C497 H484 0.929 . S
C497 C489 1.433 . S
C497 N499 1.384 . S
N498 C494 1.427 1_554 S
N498 C495 1.384 . S
N499 C491 1.427 . S
N499 C497 1.384 . S
H500 C506 0.931 . S
H501 C510 0.930 . S
H502 C515 0.929 . S
H503 C513 0.930 . S
H504 C508 0.929 . S
H505 C514 0.929 . S
C506 H500 0.931 . S
C506 C507 1.366 1_556 S
C506 C514 1.378 . S
C507 C506 1.366 1_554 S
C507 C515 1.433 . S
C508 H504 0.929 . S
C508 C510 1.378 . S
C508 C512 1.350 . S
C509 C512 1.463 . S
C509 C514 1.350 1_554 S
C509 N517 1.427 . S
C510 H501 0.930 . S
C510 C508 1.378 . S
C510 C511 1.367 . S
C511 C510 1.367 . S
C511 C513 1.433 1_554 S
C512 C508 1.350 . S
C512 C509 1.463 . S
C512 N516 1.427 1_554 S
C513 H503 0.930 . S
C513 C511 1.433 1_556 S
C513 N516 1.384 . S
C514 H505 0.929 . S
C514 C506 1.378 . S
C514 C509 1.350 1_556 S
C515 H502 0.929 . S
C515 C507 1.433 . S
C515 N517 1.384 . S
N516 C512 1.427 1_556 S
N516 C513 1.384 . S
N517 C509 1.427 . S
N517 C515 1.384 . S
H518 C524 0.930 . S
H519 C528 0.930 . S
H520 C533 0.929 . S
H521 C531 0.929 . S
H522 C526 0.929 . S
H523 C532 0.929 . S
C524 H518 0.930 . S
C524 C525 1.367 1_556 S
C524 C532 1.378 . S
C525 C524 1.367 1_554 S
C525 C533 1.433 . S
C526 H522 0.929 . S
C526 C528 1.378 . S
C526 C530 1.350 . S
C527 C530 1.463 1_545 S
C527 C532 1.350 1_554 S
C527 N535 1.427 . S
C528 H519 0.930 . S
C528 C526 1.378 . S
C528 C529 1.367 . S
C529 C528 1.367 . S
C529 C531 1.433 1_554 S
C530 C526 1.350 . S
C530 C527 1.463 1_565 S
C530 N534 1.427 1_554 S
C531 H521 0.929 . S
C531 C529 1.433 1_556 S
C531 N534 1.384 . S
C532 H523 0.929 . S
C532 C524 1.378 . S
C532 C527 1.350 1_556 S
C533 H520 0.929 . S
C533 C525 1.433 . S
C533 N535 1.384 . S
N534 C530 1.427 1_556 S
N534 C531 1.384 . S
N535 C527 1.427 . S
N535 C533 1.384 . S
H536 C542 0.930 . S
H537 C546 0.930 . S
H538 C551 0.929 . S
H539 C549 0.929 . S
H540 C544 0.929 . S
H541 C550 0.929 1_556 S
C542 H536 0.930 . S
C542 C543 1.367 . S
C542 C550 1.378 . S
C543 C542 1.367 . S
C543 C551 1.433 . S
C544 H540 0.929 . S
C544 C546 1.378 . S
C544 C548 1.350 . S
C545 C548 1.463 . S
C545 C550 1.350 1_556 S
C545 N553 1.427 1_556 S
C546 H537 0.930 . S
C546 C544 1.378 . S
C546 C547 1.367 . S
C547 C546 1.367 . S
C547 C549 1.433 . S
C548 C544 1.350 . S
C548 C545 1.463 . S
C548 N552 1.427 . S
C549 H539 0.929 . S
C549 C547 1.433 . S
C549 N552 1.384 . S
C550 H541 0.929 1_554 S
C550 C542 1.378 . S
C550 C545 1.350 1_554 S
C551 H538 0.929 . S
C551 C543 1.433 . S
C551 N553 1.384 . S
N552 C548 1.427 . S
N552 C549 1.384 . S
N553 C545 1.427 1_554 S
N553 C551 1.384 . S
H554 C560 0.930 . S
H555 C564 0.930 . S
H556 C569 0.929 . S
H557 C567 0.929 . S
H558 C562 0.929 . S
H559 C568 0.929 1_556 S
C560 H554 0.930 . S
C560 C561 1.367 . S
C560 C568 1.378 . S
C561 C560 1.367 . S
C561 C569 1.433 . S
C562 H558 0.929 . S
C562 C564 1.378 . S
C562 C566 1.350 . S
C563 C566 1.463 . S
C563 C568 1.350 1_556 S
C563 N571 1.427 1_556 S
C564 H555 0.930 . S
C564 C562 1.378 . S
C564 C565 1.367 . S
C565 C564 1.367 . S
C565 C567 1.433 . S
C566 C562 1.350 . S
C566 C563 1.463 . S
C566 N570 1.427 . S
C567 H557 0.929 . S
C567 C565 1.433 . S
C567 N570 1.384 . S
C568 H559 0.929 1_554 S
C568 C560 1.378 . S
C568 C563 1.350 1_554 S
C569 H556 0.929 . S
C569 C561 1.433 . S
C569 N571 1.384 . S
N570 C566 1.427 . S
N570 C567 1.384 . S
N571 C563 1.427 1_554 S
N571 C569 1.384 . S
H572 C578 0.930 . S
H573 C582 0.930 . S
H574 C587 0.929 . S
H575 C585 0.929 . S
H576 C580 0.929 1_554 S
H577 C586 0.929 . S
C578 H572 0.930 . S
C578 C579 1.367 . S
C578 C586 1.378 . S
C579 C578 1.367 . S
C579 C587 1.433 . S
C580 H576 0.929 1_556 S
C580 C582 1.378 . S
C580 C584 1.350 1_556 S
C581 C584 1.463 . S
C581 C586 1.350 . S
C581 N589 1.427 . S
C582 H573 0.930 . S
C582 C580 1.378 . S
C582 C583 1.367 . S
C583 C582 1.367 . S
C583 C585 1.433 . S
C584 C580 1.350 1_554 S
C584 C581 1.463 . S
C584 N588 1.427 1_554 S
C585 H575 0.929 . S
C585 C583 1.433 . S
C585 N588 1.384 . S
C586 H577 0.929 . S
C586 C578 1.378 . S
C586 C581 1.350 . S
C587 H574 0.929 . S
C587 C579 1.433 . S
C587 N589 1.384 . S
N588 C584 1.427 1_556 S
N588 C585 1.384 . S
N589 C581 1.427 . S
N589 C587 1.384 . S
H590 C596 0.930 . S
H591 C600 0.930 . S
H592 C605 0.929 . S
H593 C603 0.929 . S
H594 C598 0.929 . S
H595 C604 0.929 . S
C596 H590 0.930 . S
C596 C597 1.367 . S
C596 C604 1.378 . S
C597 C596 1.367 . S
C597 C605 1.433 . S
C598 H594 0.929 . S
C598 C600 1.378 . S
C598 C602 1.350 . S
C599 C602 1.463 . S
C599 C604 1.350 1_554 S
C599 N607 1.427 1_554 S
C600 H591 0.930 . S
C600 C598 1.378 . S
C600 C601 1.367 . S
C601 C600 1.367 . S
C601 C603 1.433 . S
C602 C598 1.350 . S
C602 C599 1.463 . S
C602 N606 1.427 . S
C603 H593 0.929 . S
C603 C601 1.433 . S
C603 N606 1.384 . S
C604 H595 0.929 . S
C604 C596 1.378 . S
C604 C599 1.350 1_556 S
C605 H592 0.929 . S
C605 C597 1.433 . S
C605 N607 1.384 . S
N606 C602 1.427 . S
N606 C603 1.384 . S
N607 C599 1.427 1_556 S
N607 C605 1.384 . S
H608 C614 0.930 . S
H609 C618 0.930 . S
H610 C623 0.929 . S
H611 C621 0.929 . S
H612 C616 0.929 . S
H613 C622 0.929 . S
C614 H608 0.930 . S
C614 C615 1.367 . S
C614 C622 1.378 . S
C615 C614 1.367 . S
C615 C623 1.433 . S
C616 H612 0.929 . S
C616 C618 1.378 . S
C616 C620 1.350 . S
C617 C620 1.463 . S
C617 C622 1.350 . S
C617 N625 1.427 . S
C618 H609 0.930 . S
C618 C616 1.378 . S
C618 C619 1.367 . S
C619 C618 1.367 . S
C619 C621 1.433 . S
C620 C616 1.350 . S
C620 C617 1.463 . S
C620 N624 1.427 . S
C621 H611 0.929 . S
C621 C619 1.433 . S
C621 N624 1.384 . S
C622 H613 0.929 . S
C622 C614 1.378 . S
C622 C617 1.350 . S
C623 H610 0.929 . S
C623 C615 1.433 . S
C623 N625 1.384 . S
N624 C620 1.427 . S
N624 C621 1.384 . S
N625 C617 1.427 . S
N625 C623 1.384 . S
H626 C632 0.930 . S
H627 C636 0.930 . S
H628 C641 0.929 . S
H629 C639 0.929 . S
H630 C634 0.929 . S
H631 C640 0.929 . S
C632 H626 0.930 . S
C632 C633 1.367 . S
C632 C640 1.378 . S
C633 C632 1.367 . S
C633 C641 1.433 . S
C634 H630 0.929 . S
C634 C636 1.378 . S
C634 C638 1.350 . S
C635 C638 1.463 . S
C635 C640 1.350 . S
C635 N643 1.427 . S
C636 H627 0.930 . S
C636 C634 1.378 . S
C636 C637 1.367 . S
C637 C636 1.367 . S
C637 C639 1.433 . S
C638 C634 1.350 . S
C638 C635 1.463 . S
C638 N642 1.427 . S
C639 H629 0.929 . S
C639 C637 1.433 . S
C639 N642 1.384 . S
C640 H631 0.929 . S
C640 C632 1.378 . S
C640 C635 1.350 . S
C641 H628 0.929 . S
C641 C633 1.433 . S
C641 N643 1.384 . S
N642 C638 1.427 . S
N642 C639 1.384 . S
N643 C635 1.427 . S
N643 C641 1.384 . S
H644 C650 0.930 . S
H645 C654 0.930 . S
H646 C659 0.929 . S
H647 C657 0.929 . S
H648 C652 0.929 . S
H649 C658 0.929 . S
C650 H644 0.930 . S
C650 C651 1.367 . S
C650 C658 1.378 . S
C651 C650 1.367 . S
C651 C659 1.433 . S
C652 H648 0.929 . S
C652 C654 1.378 . S
C652 C656 1.350 . S
C653 C656 1.463 . S
C653 C658 1.350 . S
C653 N661 1.427 . S
C654 H645 0.930 . S
C654 C652 1.378 . S
C654 C655 1.367 . S
C655 C654 1.367 . S
C655 C657 1.433 . S
C656 C652 1.350 . S
C656 C653 1.463 . S
C656 N660 1.427 . S
C657 H647 0.929 . S
C657 C655 1.433 . S
C657 N660 1.384 . S
C658 H649 0.929 . S
C658 C650 1.378 . S
C658 C653 1.350 . S
C659 H646 0.929 . S
C659 C651 1.433 . S
C659 N661 1.384 . S
N660 C656 1.427 . S
N660 C657 1.384 . S
N661 C653 1.427 . S
N661 C659 1.384 . S
H662 C668 0.930 . S
H663 C672 0.930 . S
H664 C677 0.929 . S
H665 C675 0.929 . S
H666 C670 0.929 . S
H667 C676 0.929 . S
C668 H662 0.930 . S
C668 C669 1.367 . S
C668 C676 1.378 . S
C669 C668 1.367 . S
C669 C677 1.433 . S
C670 H666 0.929 . S
C670 C672 1.378 . S
C670 C674 1.350 . S
C671 C674 1.463 . S
C671 C676 1.350 . S
C671 N679 1.427 . S
C672 H663 0.930 . S
C672 C670 1.378 . S
C672 C673 1.367 . S
C673 C672 1.367 . S
C673 C675 1.433 . S
C674 C670 1.350 . S
C674 C671 1.463 . S
C674 N678 1.427 . S
C675 H665 0.929 . S
C675 C673 1.433 . S
C675 N678 1.384 . S
C676 H667 0.929 . S
C676 C668 1.378 . S
C676 C671 1.350 . S
C677 H664 0.929 . S
C677 C669 1.433 . S
C677 N679 1.384 . S
N678 C674 1.427 . S
N678 C675 1.384 . S
N679 C671 1.427 . S
N679 C677 1.384 . S
H680 C686 0.930 . S
H681 C690 0.930 . S
H682 C695 0.929 . S
H683 C693 0.929 . S
H684 C688 0.929 . S
H685 C694 0.929 . S
C686 H680 0.930 . S
C686 C687 1.367 . S
C686 C694 1.378 . S
C687 C686 1.367 . S
C687 C695 1.433 . S
C688 H684 0.929 . S
C688 C690 1.378 . S
C688 C692 1.350 . S
C689 C692 1.463 1_455 S
C689 C694 1.350 . S
C689 N697 1.427 . S
C690 H681 0.930 . S
C690 C688 1.378 . S
C690 C691 1.367 . S
C691 C690 1.367 . S
C691 C693 1.433 . S
C692 C688 1.350 . S
C692 C689 1.463 1_655 S
C692 N696 1.427 . S
C693 H683 0.929 . S
C693 C691 1.433 . S
C693 N696 1.384 . S
C694 H685 0.929 . S
C694 C686 1.378 . S
C694 C689 1.350 . S
C695 H682 0.929 . S
C695 C687 1.433 . S
C695 N697 1.384 . S
N696 C692 1.427 . S
N696 C693 1.384 . S
N697 C689 1.427 . S
N697 C695 1.384 . S
H698 C704 0.930 . S
H699 C708 0.930 . S
H700 C713 0.929 . S
H701 C711 0.929 . S
H702 C706 0.929 . S
H703 C712 0.929 . S
C704 H698 0.930 . S
C704 C705 1.367 . S
C704 C712 1.378 . S
C705 C704 1.367 . S
C705 C713 1.433 . S
C706 H702 0.929 . S
C706 C708 1.378 . S
C706 C710 1.350 . S
C707 C710 1.463 1_655 S
C707 C712 1.350 . S
C707 N715 1.427 . S
C708 H699 0.930 . S
C708 C706 1.378 . S
C708 C709 1.367 . S
C709 C708 1.367 . S
C709 C711 1.433 . S
C710 C706 1.350 . S
C710 C707 1.463 1_455 S
C710 N714 1.427 . S
C711 H701 0.929 . S
C711 C709 1.433 . S
C711 N714 1.384 . S
C712 H703 0.929 . S
C712 C704 1.378 . S
C712 C707 1.350 . S
C713 H700 0.929 . S
C713 C705 1.433 . S
C713 N715 1.384 . S
N714 C710 1.427 . S
N714 C711 1.384 . S
N715 C707 1.427 . S
N715 C713 1.384 . S
H716 C722 0.930 . S
H717 C726 0.930 . S
H718 C731 0.929 . S
H719 C729 0.929 . S
H720 C724 0.929 . S
H721 C730 0.929 . S
C722 H716 0.930 . S
C722 C723 1.367 . S
C722 C730 1.378 . S
C723 C722 1.367 . S
C723 C731 1.433 . S
C724 H720 0.929 . S
C724 C726 1.378 . S
C724 C728 1.350 . S
C725 C728 1.463 . S
C725 C730 1.350 . S
C725 N733 1.427 . S
C726 H717 0.930 . S
C726 C724 1.378 . S
C726 C727 1.367 . S
C727 C726 1.367 . S
C727 C729 1.433 . S
C728 C724 1.350 . S
C728 C725 1.463 . S
C728 N732 1.427 . S
C729 H719 0.929 . S
C729 C727 1.433 . S
C729 N732 1.384 . S
C730 H721 0.929 . S
C730 C722 1.378 . S
C730 C725 1.350 . S
C731 H718 0.929 . S
C731 C723 1.433 . S
C731 N733 1.384 . S
N732 C728 1.427 . S
N732 C729 1.384 . S
N733 C725 1.427 . S
N733 C731 1.384 . S
H734 C740 0.930 . S
H735 C744 0.930 . S
H736 C749 0.929 . S
H737 C747 0.929 . S
H738 C742 0.929 . S
H739 C748 0.929 . S
C740 H734 0.930 . S
C740 C741 1.367 . S
C740 C748 1.378 . S
C741 C740 1.367 . S
C741 C749 1.433 . S
C742 H738 0.929 . S
C742 C744 1.378 . S
C742 C746 1.350 . S
C743 C746 1.463 . S
C743 C748 1.350 . S
C743 N751 1.427 . S
C744 H735 0.930 . S
C744 C742 1.378 . S
C744 C745 1.367 . S
C745 C744 1.367 . S
C745 C747 1.433 . S
C746 C742 1.350 . S
C746 C743 1.463 . S
C746 N750 1.427 . S
C747 H737 0.929 . S
C747 C745 1.433 . S
C747 N750 1.384 . S
C748 H739 0.929 . S
C748 C740 1.378 . S
C748 C743 1.350 . S
C749 H736 0.929 . S
C749 C741 1.433 . S
C749 N751 1.384 . S
N750 C746 1.427 . S
N750 C747 1.384 . S
N751 C743 1.427 . S
N751 C749 1.384 . S
C327 C6 1.673 . S
C331 C295 1.673 . S
C345 C255 1.677 . S
C349 C46 1.676 . S
C363 C206 1.679 . S
C367 C95 1.678 . S
C381 C166 1.677 . S
C385 C135 1.677 . S
C399 C89 1.561 . S
C403 C9 1.579 . S
C417 C49 1.576 . S
C421 C129 1.556 . S
C435 C138 1.566 . S
C439 C58 1.546 . S
C453 C98 1.566 . S
C457 C18 1.546 . S
C471 C169 1.443 . S
C475 C249 1.445 . S
C489 C209 1.445 . S
C493 C289 1.443 . S
C507 C298 1.433 . S
C511 C218 1.433 . S
C525 C258 1.436 . S
C529 C178 1.434 . S
C543 C19 2.058 . S
C547 C10 2.058 . S
C561 C59 2.065 . S
C565 C50 2.065 . S
C579 C99 2.063 . S
C583 C90 2.063 . S
C597 C130 2.058 . S
C601 C139 2.058 . S
C615 C170 2.058 . S
C619 C179 2.058 . S
C633 C219 2.065 . S
C637 C210 2.065 . S
C651 C250 2.062 . S
C655 C259 2.062 . S
C669 C290 2.060 . S
C673 C299 2.060 . S
C687 C15 2.312 . S
C691 C55 2.308 . S
C705 C126 2.312 . S
C709 C86 2.306 . S
C723 C175 2.307 . S
C727 C215 2.315 . S
C741 C286 2.310 . S
C745 C246 2.312 . S
