# Generated by pormake.
# Topology wkj, (6)-cn, num edge types: 1
# Building blocks:
#     Node 0, Type 0, BuildingBlock: HISSIN_clean_sbu_0, # of connection points: 6
#     Node 1, Type 0, BuildingBlock: HISSIN_clean_sbu_0, # of connection points: 6
#     Node 2, Type 0, BuildingBlock: HISSIN_clean_sbu_0, # of connection points: 6
#     Node 3, Type 0, BuildingBlock: HISSIN_clean_sbu_0, # of connection points: 6
#     Node 4, Type 0, BuildingBlock: HISSIN_clean_sbu_0, # of connection points: 6
#     Node 5, Type 0, BuildingBlock: HISSIN_clean_sbu_0, # of connection points: 6
#     Node 6, Type 0, BuildingBlock: HISSIN_clean_sbu_0, # of connection points: 6
#     Node 7, Type 0, BuildingBlock: HISSIN_clean_sbu_0, # of connection points: 6
#     Node 8, Type 0, BuildingBlock: HISSIN_clean_sbu_0, # of connection points: 6
#     Node 9, Type 0, BuildingBlock: HISSIN_clean_sbu_0, # of connection points: 6
#     Node 10, Type 0, BuildingBlock: HISSIN_clean_sbu_0, # of connection points: 6
#     Node 11, Type 0, BuildingBlock: HISSIN_clean_sbu_0, # of connection points: 6
#     Edge 12, Type (0, 0), BuildingBlock: UVAHIK_clean_linker_0, # of connection points: 2
#     Edge 13, Type (0, 0), BuildingBlock: UVAHIK_clean_linker_0, # of connection points: 2
#     Edge 14, Type (0, 0), BuildingBlock: UVAHIK_clean_linker_0, # of connection points: 2
#     Edge 15, Type (0, 0), BuildingBlock: UVAHIK_clean_linker_0, # of connection points: 2
#     Edge 16, Type (0, 0), BuildingBlock: UVAHIK_clean_linker_0, # of connection points: 2
#     Edge 17, Type (0, 0), BuildingBlock: UVAHIK_clean_linker_0, # of connection points: 2
#     Edge 18, Type (0, 0), BuildingBlock: UVAHIK_clean_linker_0, # of connection points: 2
#     Edge 19, Type (0, 0), BuildingBlock: UVAHIK_clean_linker_0, # of connection points: 2
#     Edge 20, Type (0, 0), BuildingBlock: UVAHIK_clean_linker_0, # of connection points: 2
#     Edge 21, Type (0, 0), BuildingBlock: UVAHIK_clean_linker_0, # of connection points: 2
#     Edge 22, Type (0, 0), BuildingBlock: UVAHIK_clean_linker_0, # of connection points: 2
#     Edge 23, Type (0, 0), BuildingBlock: UVAHIK_clean_linker_0, # of connection points: 2
#     Edge 24, Type (0, 0), BuildingBlock: UVAHIK_clean_linker_0, # of connection points: 2
#     Edge 25, Type (0, 0), BuildingBlock: UVAHIK_clean_linker_0, # of connection points: 2
#     Edge 26, Type (0, 0), BuildingBlock: UVAHIK_clean_linker_0, # of connection points: 2
#     Edge 27, Type (0, 0), BuildingBlock: UVAHIK_clean_linker_0, # of connection points: 2
#     Edge 28, Type (0, 0), BuildingBlock: UVAHIK_clean_linker_0, # of connection points: 2
#     Edge 29, Type (0, 0), BuildingBlock: UVAHIK_clean_linker_0, # of connection points: 2
#     Edge 30, Type (0, 0), BuildingBlock: UVAHIK_clean_linker_0, # of connection points: 2
#     Edge 31, Type (0, 0), BuildingBlock: UVAHIK_clean_linker_0, # of connection points: 2
#     Edge 32, Type (0, 0), BuildingBlock: UVAHIK_clean_linker_0, # of connection points: 2
#     Edge 33, Type (0, 0), BuildingBlock: UVAHIK_clean_linker_0, # of connection points: 2
#     Edge 34, Type (0, 0), BuildingBlock: UVAHIK_clean_linker_0, # of connection points: 2
#     Edge 35, Type (0, 0), BuildingBlock: UVAHIK_clean_linker_0, # of connection points: 2
#     Edge 36, Type (0, 0), BuildingBlock: UVAHIK_clean_linker_0, # of connection points: 2
#     Edge 37, Type (0, 0), BuildingBlock: UVAHIK_clean_linker_0, # of connection points: 2
#     Edge 38, Type (0, 0), BuildingBlock: UVAHIK_clean_linker_0, # of connection points: 2
#     Edge 39, Type (0, 0), BuildingBlock: UVAHIK_clean_linker_0, # of connection points: 2
#     Edge 40, Type (0, 0), BuildingBlock: UVAHIK_clean_linker_0, # of connection points: 2
#     Edge 41, Type (0, 0), BuildingBlock: UVAHIK_clean_linker_0, # of connection points: 2
#     Edge 42, Type (0, 0), BuildingBlock: UVAHIK_clean_linker_0, # of connection points: 2
#     Edge 43, Type (0, 0), BuildingBlock: UVAHIK_clean_linker_0, # of connection points: 2
#     Edge 44, Type (0, 0), BuildingBlock: UVAHIK_clean_linker_0, # of connection points: 2
#     Edge 45, Type (0, 0), BuildingBlock: UVAHIK_clean_linker_0, # of connection points: 2
#     Edge 46, Type (0, 0), BuildingBlock: UVAHIK_clean_linker_0, # of connection points: 2
#     Edge 47, Type (0, 0), BuildingBlock: UVAHIK_clean_linker_0, # of connection points: 2
# Relax obj value: 0.579
# Max RMSD: 0.178
# Mean RMSD: 0.178
data_MOF--net-wkj--node1-HISSIN_clean_sbu_0--edge1-UVAHIK_clean_linker_0
_symmetry_space_group_name_H-M    P1
_symmetry_Int_Tables_number       1
_symmetry_cell_setting            triclinic
loop_
_symmetry_equiv_pos_as_xyz
'x, y, z'
_cell_length_a     66.335688
_cell_length_b     65.63473
_cell_length_c     36.544137
_cell_angle_alpha  90.255736
_cell_angle_beta   89.513232
_cell_angle_gamma 119.9314
loop_
_atom_site_label
_atom_site_type_symbol
_atom_site_fract_x
_atom_site_fract_y
_atom_site_fract_z
_atom_type_partial_charge
Eu0 Eu 0.42964 0.0789 0.36271 0.0
Eu1 Eu 0.48099 0.08969 0.34202 0.0
C2 C 0.44482 0.04268 0.38918 0.0
C3 C 0.37522 0.06821 0.41346 0.0
C4 C 0.38178 0.06033 0.44424 0.0
C5 C 0.33884 0.05877 0.44353 0.0
C6 C 0.36689 0.05155 0.47443 0.0
C7 C 0.3538 0.06758 0.41328 0.0
C8 C 0.34518 0.05051 0.47434 0.0
C9 C 0.39033 0.07627 0.3811 0.0
O10 O 0.45971 0.06778 0.29276 0.0
O11 O 0.42223 0.05502 0.31181 0.0
C12 C 0.43706 0.05475 0.28747 0.0
O13 O 0.4446 0.10898 0.32278 0.0
O14 O 0.50685 0.09984 0.29836 0.0
O15 O 0.51597 0.09597 0.35338 0.0
O16 O 0.48158 0.12494 0.34116 0.0
C17 C 0.46501 0.12757 0.32667 0.0
O18 O 0.44962 0.08824 0.41932 0.0
O19 O 0.48615 0.09574 0.4028 0.0
O20 O 0.46418 0.0535 0.36936 0.0
O21 O 0.41059 0.09516 0.3855 0.0
O22 O 0.39178 0.05988 0.3629 0.0
O23 O 0.42933 0.04932 0.39049 0.0
C24 C 0.54319 0.12851 0.31895 0.0
C25 C 0.54136 0.14641 0.3372 0.0
C26 C 0.57582 0.15805 0.28392 0.0
C27 C 0.55577 0.1699 0.3273 0.0
C28 C 0.56121 0.13451 0.29357 0.0
C29 C 0.57228 0.17578 0.29914 0.0
C30 C 0.52372 0.10425 0.32079 0.0
C31 C 0.47115 0.09329 0.42848 0.0
H32 H 0.39824 0.06058 0.44464 0.0
H33 H 0.3223 0.05832 0.44277 0.0
H34 H 0.37212 0.04491 0.49739 0.0
H35 H 0.34854 0.07362 0.38961 0.0
H36 H 0.52753 0.14212 0.35692 0.0
H37 H 0.5882 0.16202 0.26179 0.0
H38 H 0.55267 0.1832 0.33939 0.0
H39 H 0.56276 0.12092 0.27904 0.0
Eu40 Eu 0.32878 0.44536 0.69904 0.0
Eu41 Eu 0.37019 0.49655 0.67907 0.0
C42 C 0.37941 0.45866 0.72425 0.0
C43 C 0.28239 0.38999 0.74652 0.0
C44 C 0.29504 0.39574 0.77908 0.0
C45 C 0.25415 0.35227 0.7722 0.0
C46 C 0.28738 0.37977 0.808 0.0
C47 C 0.26184 0.36832 0.74326 0.0
C48 C 0.26695 0.35777 0.80478 0.0
C49 C 0.29105 0.40612 0.71541 0.0
O50 O 0.36864 0.47511 0.6283 0.0
O51 O 0.34536 0.43745 0.64893 0.0
C52 C 0.35961 0.45223 0.62378 0.0
O53 O 0.31495 0.46133 0.65907 0.0
O54 O 0.39092 0.52151 0.63608 0.0
O55 O 0.39529 0.53311 0.69215 0.0
O56 O 0.33652 0.49829 0.67903 0.0
C57 C 0.3173 0.48206 0.66396 0.0
O58 O 0.33959 0.46543 0.7559 0.0
O59 O 0.37262 0.49979 0.74039 0.0
O60 O 0.38841 0.47808 0.70416 0.0
O61 O 0.29343 0.4269 0.72092 0.0
O62 O 0.30875 0.40712 0.69791 0.0
O63 O 0.35715 0.44394 0.72683 0.0
C64 C 0.3939 0.55799 0.64735 0.0
C65 C 0.37382 0.55748 0.6612 0.0
C66 C 0.39825 0.5873 0.60297 0.0
C67 C 0.36543 0.57095 0.64494 0.0
C68 C 0.40656 0.57365 0.61909 0.0
C69 C 0.37702 0.58521 0.61467 0.0
C70 C 0.39912 0.53954 0.65801 0.0
C71 C 0.35837 0.48569 0.76565 0.0
H72 H 0.31107 0.41238 0.78184 0.0
H73 H 0.23833 0.33552 0.76903 0.0
H74 H 0.29789 0.38435 0.83245 0.0
H75 H 0.25193 0.36369 0.71816 0.0
H76 H 0.36374 0.54553 0.68304 0.0
H77 H 0.40738 0.59794 0.57935 0.0
H78 H 0.34907 0.56907 0.65448 0.0
H79 H 0.42197 0.57415 0.60788 0.0
Eu80 Eu 0.857 0.34478 1.03905 0.0
Eu81 Eu 0.84829 0.38692 1.01789 0.0
C82 C 0.89444 0.39592 1.06491 0.0
C83 C 0.86496 0.2991 1.09019 0.0
C84 C 0.87289 0.3135 1.12123 0.0
C85 C 0.87328 0.27105 1.11947 0.0
C86 C 0.88119 0.30683 0.15112 0.0
C87 C 0.86495 0.27776 1.08952 0.0
C88 C 0.8817 0.28564 0.15045 0.0
C89 C 0.85776 0.30685 1.05787 0.0
O90 O 0.8675 0.38415 0.96722 0.0
O91 O 0.88048 0.35977 0.98756 0.0
C92 C 0.88049 0.3743 0.96242 0.0
O93 O 0.82834 0.33051 0.99764 0.0
O94 O 0.85193 0.41384 0.97893 0.0
O95 O 0.83015 0.40654 1.02684 0.0
O96 O 0.8131 0.3529 1.0145 0.0
C97 C 0.8103 0.33332 1.00025 0.0
O98 O 0.84673 0.35604 1.09487 0.0
O99 O 0.84741 0.39019 1.07914 0.0
O100 O 0.88322 0.40502 1.04772 0.0
O101 O 0.83958 0.30943 1.06211 0.0
O102 O 0.87456 0.32426 1.03989 0.0
O103 O 0.88792 0.37364 1.06439 0.0
C104 C 0.81572 0.41155 0.97107 0.0
C105 C 0.79426 0.3907 0.97551 0.0
C106 C 0.80161 0.41924 0.91471 0.0
C107 C 0.77696 0.38379 0.94918 0.0
C108 C 0.81896 0.42616 0.94113 0.0
C109 C 0.7808 0.39752 0.91777 0.0
C110 C 0.83551 0.41625 0.9946 0.0
C111 C 0.84577 0.37528 1.10442 0.0
H112 H 0.87314 0.33014 1.12198 0.0
H113 H 0.87332 0.25458 1.11827 0.0
H114 H 0.88796 0.31869 0.17424 0.0
H115 H 0.85887 0.2665 1.06563 0.0
H116 H 0.79128 0.379 0.99828 0.0
H117 H 0.80494 0.43032 0.89096 0.0
H118 H 0.7613 0.36685 0.95219 0.0
H119 H 0.83536 0.44228 0.93717 0.0
Eu120 Eu 0.49037 0.87827 0.36302 0.0
Eu121 Eu 0.43989 0.86858 0.34259 0.0
C122 C 0.47685 0.91535 0.39084 0.0
C123 C 0.54446 0.88746 0.41219 0.0
C124 C 0.53828 0.89542 0.44363 0.0
C125 C 0.58097 0.89647 0.44036 0.0
C126 C 0.55345 0.90406 0.47318 0.0
C127 C 0.56573 0.8878 0.41076 0.0
C128 C 0.57507 0.90488 0.47177 0.0
C129 C 0.52922 0.87982 0.38031 0.0
O130 O 0.46099 0.88542 0.2901 0.0
O131 O 0.49787 0.90277 0.3129 0.0
C132 C 0.48342 0.90063 0.28632 0.0
O133 O 0.4763 0.84962 0.32079 0.0
O134 O 0.4164 0.8747 0.30862 0.0
O135 O 0.40237 0.84688 0.34879 0.0
O136 O 0.43914 0.83326 0.33902 0.0
C137 C 0.45593 0.83091 0.32416 0.0
O138 O 0.46893 0.86691 0.41896 0.0
O139 O 0.43568 0.86737 0.40386 0.0
O140 O 0.45657 0.90371 0.37384 0.0
O141 O 0.50873 0.86126 0.38499 0.0
O142 O 0.52823 0.89652 0.36267 0.0
O143 O 0.49259 0.90907 0.38988 0.0
C144 C 0.38372 0.83804 0.29177 0.0
C145 C 0.36887 0.81438 0.30171 0.0
C146 C 0.37806 0.82639 0.22787 0.0
C147 C 0.3598 0.79677 0.27504 0.0
C148 C 0.38722 0.84397 0.25448 0.0
C149 C 0.36526 0.80255 0.23799 0.0
C150 C 0.39797 0.85554 0.31993 0.0
C151 C 0.44877 0.86555 0.42888 0.0
H152 H 0.52194 0.8954 0.44498 0.0
H153 H 0.59741 0.89675 0.43858 0.0
H154 H 0.54855 0.91081 0.49665 0.0
H155 H 0.5707 0.88171 0.38655 0.0
H156 H 0.36552 0.80928 0.33023 0.0
H157 H 0.38199 0.83138 0.19937 0.0
H158 H 0.34988 0.77858 0.28363 0.0
H159 H 0.39817 0.86203 0.24582 0.0
Eu160 Eu 0.5938 0.51355 0.69647 0.0
Eu161 Eu 0.55216 0.46235 0.67727 0.0
C162 C 0.54344 0.50087 0.72328 0.0
C163 C 0.64205 0.5704 0.7412 0.0
C164 C 0.65429 0.56747 0.77 0.0
C165 C 0.64927 0.60729 0.76832 0.0
C166 C 0.66348 0.58406 0.79812 0.0
C167 C 0.64015 0.59076 0.74021 0.0
C168 C 0.6607 0.60394 0.79791 0.0
C169 C 0.63181 0.55275 0.71169 0.0
O170 O 0.5534 0.48366 0.62695 0.0
O171 O 0.57754 0.52138 0.64643 0.0
C172 C 0.56278 0.50654 0.62203 0.0
O173 O 0.60722 0.49759 0.65529 0.0
O174 O 0.52862 0.43793 0.63611 0.0
O175 O 0.52943 0.42524 0.69005 0.0
O176 O 0.58589 0.46066 0.67545 0.0
C177 C 0.6051 0.47698 0.66015 0.0
O178 O 0.58305 0.49315 0.75321 0.0
O179 O 0.54915 0.45958 0.73846 0.0
O180 O 0.53431 0.48081 0.7047 0.0
O181 O 0.62919 0.53192 0.71764 0.0
O182 O 0.61418 0.55171 0.69434 0.0
O183 O 0.56567 0.51587 0.72426 0.0
C184 C 0.52632 0.40117 0.64012 0.0
C185 C 0.547 0.40092 0.64699 0.0
C186 C 0.51583 0.37031 0.59503 0.0
C187 C 0.55235 0.38593 0.62734 0.0
C188 C 0.51049 0.38535 0.61474 0.0
C189 C 0.53717 0.371 0.60031 0.0
C190 C 0.5225 0.41949 0.65648 0.0
C191 C 0.56389 0.47322 0.76334 0.0
H192 H 0.65654 0.55223 0.7711 0.0
H193 H 0.64653 0.62223 0.76752 0.0
H194 H 0.67247 0.58116 0.82032 0.0
H195 H 0.63122 0.59376 0.71801 0.0
H196 H 0.55949 0.41298 0.6665 0.0
H197 H 0.50392 0.35926 0.57403 0.0
H198 H 0.56882 0.38675 0.63219 0.0
H199 H 0.49452 0.3854 0.60895 0.0
Eu200 Eu 0.06268 0.60394 1.03826 0.0
Eu201 Eu 0.07088 0.5616 1.01737 0.0
C202 C 0.02469 0.55348 1.06525 0.0
C203 C 0.05607 0.65132 1.0882 0.0
C204 C 0.04807 0.63771 1.12006 0.0
C205 C 0.0489 0.68072 1.11615 0.0
C206 C 0.04033 0.64547 0.14973 0.0
C207 C 0.05666 0.67292 1.08644 0.0
C208 C 0.04047 0.66697 0.148 0.0
C209 C 0.06275 0.64253 1.0562 0.0
O210 O 0.05279 0.56478 0.96622 0.0
O211 O 0.03927 0.58874 0.98704 0.0
C212 C 0.03965 0.57444 0.96158 0.0
O213 O 0.09098 0.61739 0.9957 0.0
O214 O 0.06598 0.53323 0.98022 0.0
O215 O 0.0901 0.54306 1.02503 0.0
O216 O 0.10628 0.59556 1.01398 0.0
C217 C 0.10916 0.61494 0.99902 0.0
O218 O 0.07314 0.59294 1.09391 0.0
O219 O 0.07074 0.55791 1.07849 0.0
O220 O 0.03595 0.54411 1.04837 0.0
O221 O 0.08069 0.63959 1.06022 0.0
O222 O 0.04564 0.62496 1.03924 0.0
O223 O 0.03138 0.57578 1.06424 0.0
C224 C 0.1023 0.53623 0.96775 0.0
C225 C 0.12501 0.55519 0.97293 0.0
C226 C 0.11334 0.53102 0.90644 0.0
C227 C 0.1414 0.56253 0.94463 0.0
C228 C 0.09694 0.5236 0.93483 0.0
C229 C 0.13537 0.55119 0.91057 0.0
C230 C 0.0835 0.53206 0.99386 0.0
C231 C 0.07316 0.57325 1.10367 0.0
H232 H 0.04736 0.62087 1.12166 0.0
H233 H 0.04934 0.6974 1.11411 0.0
H234 H 0.03353 0.63424 0.17357 0.0
H235 H 0.06279 0.68358 1.0619 0.0
H236 H 0.12974 0.56538 0.99796 0.0
H237 H 0.10835 0.52181 0.88051 0.0
H238 H 0.15813 0.57823 0.94852 0.0
H239 H 0.07961 0.50893 0.93022 0.0
Eu240 Eu 0.87066 0.51161 0.54781 0.0
Eu241 Eu 0.85823 0.45906 0.56914 0.0
C242 C 0.90413 0.49332 0.51977 0.0
C243 C 0.88441 0.56859 0.49959 0.0
C244 C 0.89161 0.56225 0.46751 0.0
C245 C 0.89419 0.60608 0.47239 0.0
C246 C 0.90028 0.57785 0.4381 0.0
C247 C 0.88552 0.59043 0.50183 0.0
C248 C 0.90184 0.60002 0.4403 0.0
C249 C 0.87646 0.55284 0.53122 0.0
O250 O 0.87937 0.48017 0.61876 0.0
O251 O 0.89367 0.51806 0.59903 0.0
C252 C 0.89304 0.50299 0.62375 0.0
O253 O 0.83945 0.49737 0.58528 0.0
O254 O 0.84618 0.43233 0.61172 0.0
O255 O 0.85341 0.4242 0.55751 0.0
O256 O 0.82372 0.45914 0.57021 0.0
C257 C 0.82114 0.47652 0.58243 0.0
O258 O 0.85852 0.49049 0.49204 0.0
O259 O 0.85101 0.45362 0.5087 0.0
O260 O 0.89481 0.47626 0.54436 0.0
O261 O 0.85676 0.53324 0.52739 0.0
O262 O 0.89229 0.54972 0.54705 0.0
O263 O 0.89657 0.50798 0.5146 0.0
C264 C 0.82013 0.39537 0.58858 0.0
C265 C 0.80242 0.39687 0.57014 0.0
C266 C 0.79098 0.3601 0.61916 0.0
C267 C 0.77909 0.38079 0.57769 0.0
C268 C 0.81433 0.37628 0.61174 0.0
C269 C 0.77316 0.36302 0.60385 0.0
C270 C 0.84371 0.41579 0.58919 0.0
C271 C 0.85266 0.46839 0.48316 0.0
H272 H 0.89092 0.54543 0.4655 0.0
H273 H 0.89501 0.62293 0.47479 0.0
H274 H 0.90642 0.5728 0.41407 0.0
H275 H 0.87997 0.5955 0.52652 0.0
H276 H 0.8066 0.41155 0.55213 0.0
H277 H 0.78705 0.34679 0.63976 0.0
H278 H 0.76575 0.38344 0.56542 0.0
H279 H 0.82777 0.37495 0.62635 0.0
Eu280 Eu 0.33345 0.88088 0.87606 0.0
Eu281 Eu 0.37512 0.87146 0.89485 0.0
C282 C 0.38382 0.91781 0.84722 0.0
C283 C 0.28855 0.89027 0.82741 0.0
C284 C 0.30251 0.89793 0.79586 0.0
C285 C 0.26149 0.90017 0.79951 0.0
C286 C 0.2961 0.90682 0.76639 0.0
C287 C 0.26793 0.89123 0.82904 0.0
C288 C 0.27561 0.90823 0.76797 0.0
C289 C 0.29606 0.88237 0.8592 0.0
O290 O 0.37538 0.89352 0.94413 0.0
O291 O 0.34911 0.90471 0.92699 0.0
C292 C 0.36479 0.90575 0.95039 0.0
O293 O 0.31961 0.85104 0.91626 0.0
O294 O 0.39072 0.86094 0.93771 0.0
O295 O 0.40501 0.86687 0.88298 0.0
O296 O 0.34135 0.83582 0.8964 0.0
C297 C 0.32209 0.83274 0.91167 0.0
O298 O 0.34419 0.87139 0.81905 0.0
O299 O 0.37305 0.8635 0.8346 0.0
O300 O 0.39304 0.90698 0.86526 0.0
O301 O 0.29829 0.86386 0.85414 0.0
O302 O 0.31347 0.89897 0.87719 0.0
O303 O 0.36179 0.91125 0.84836 0.0
C304 C 0.39997 0.83349 0.91484 0.0
C305 C 0.38097 0.81599 0.89542 0.0
C306 C 0.40294 0.8032 0.94794 0.0
C307 C 0.37214 0.79229 0.90382 0.0
C308 C 0.4116 0.82696 0.93984 0.0
C309 C 0.38232 0.78578 0.93158 0.0
C310 C 0.40402 0.85763 0.91488 0.0
C311 C 0.3604 0.86585 0.80938 0.0
H312 H 0.3186 0.89746 0.79437 0.0
H313 H 0.24557 0.90092 0.80142 0.0
H314 H 0.3076 0.9133 0.74282 0.0
H315 H 0.25703 0.88541 0.85333 0.0
H316 H 0.37171 0.82069 0.87602 0.0
H317 H 0.41096 0.79872 0.9698 0.0
H318 H 0.35622 0.77923 0.89091 0.0
H319 H 0.42613 0.84022 0.9553 0.0
Eu320 Eu 0.42859 0.35764 0.20279 0.0
Eu321 Eu 0.47879 0.39744 0.22723 0.0
C322 C 0.43728 0.4092 0.20738 0.0
C323 C 0.37411 0.31268 0.15056 0.0
C324 C 0.37879 0.32674 1.11943 0.0
C325 C 0.33854 0.28246 0.12285 0.0
C326 C 0.36328 0.31877 1.09022 0.0
C327 C 0.35407 0.29047 0.15205 0.0
C328 C 0.3429 0.2966 1.09173 0.0
C329 C 0.3896 0.32115 0.18207 0.0
O330 O 0.45866 0.39096 0.28118 0.0
O331 O 0.42139 0.36782 0.26044 0.0
C332 C 0.43596 0.38052 0.28685 0.0
O333 O 0.44236 0.34032 0.24017 0.0
O334 O 0.50446 0.41723 0.26928 0.0
O335 O 0.51486 0.4225 0.21243 0.0
O336 O 0.47978 0.36305 0.22375 0.0
C337 C 0.46311 0.34301 0.23664 0.0
O338 O 0.45081 0.37001 0.14863 0.0
O339 O 0.47943 0.40608 0.16719 0.0
O340 O 0.45679 0.41521 0.22509 0.0
O341 O 0.40995 0.32289 0.17774 0.0
O342 O 0.3908 0.33913 0.19939 0.0
O343 O 0.42586 0.38925 0.1899 0.0
C344 C 0.53969 0.41909 0.25486 0.0
C345 C 0.54056 0.40099 0.23542 0.0
C346 C 0.56454 0.41703 0.3012 0.0
C347 C 0.55257 0.39037 0.24955 0.0
C348 C 0.55266 0.42775 0.28692 0.0
C349 C 0.56365 0.39743 0.28361 0.0
C350 C 0.52184 0.42539 0.24625 0.0
C351 C 0.46873 0.39114 0.14056 0.0
H352 H 0.39421 0.34399 1.11801 0.0
H353 H 0.32311 0.26525 0.12466 0.0
H354 H 0.36694 0.33026 1.06691 0.0
H355 H 0.35032 0.27942 0.17599 0.0
H356 H 0.5306 0.39387 0.21064 0.0
H357 H 0.57263 0.42285 0.32769 0.0
H358 H 0.55183 0.3756 0.23502 0.0
H359 H 0.55205 0.44152 0.30249 0.0
Eu360 Eu 0.05533 0.44261 0.54875 0.0
Eu361 Eu 0.06025 0.49171 0.56993 0.0
C362 C 0.01319 0.44904 0.53479 0.0
C363 C 0.0456 0.38816 0.49782 0.0
C364 C 0.03775 0.39487 0.46718 0.0
C365 C 0.03507 0.35095 0.46856 0.0
C366 C 0.0284 0.37962 0.43752 0.0
C367 C 0.04446 0.36628 0.49827 0.0
C368 C 0.0267 0.35737 0.43803 0.0
C369 C 0.05337 0.40324 0.53024 0.0
O370 O 0.04342 0.47092 0.62192 0.0
O371 O 0.03171 0.43371 0.60101 0.0
C372 C 0.03127 0.44797 0.62668 0.0
O373 O 0.08444 0.45906 0.58863 0.0
O374 O 0.06969 0.51908 0.61106 0.0
O375 O 0.06115 0.5246 0.55642 0.0
O376 O 0.09706 0.49589 0.56959 0.0
C377 C 0.10163 0.48031 0.58403 0.0
O378 O 0.06693 0.46443 0.49349 0.0
O379 O 0.06083 0.49481 0.50849 0.0
O380 O 0.02123 0.46648 0.55881 0.0
O381 O 0.07201 0.42383 0.52614 0.0
O382 O 0.0369 0.4044 0.54827 0.0
O383 O 0.02706 0.44296 0.51938 0.0
C384 C 0.09359 0.55582 0.58522 0.0
C385 C 0.11142 0.55553 0.56455 0.0
C386 C 0.12235 0.59122 0.61568 0.0
C387 C 0.13466 0.5722 0.57099 0.0
C388 C 0.09909 0.57442 0.60942 0.0
C389 C 0.14038 0.58938 0.59819 0.0
C390 C 0.07071 0.5344 0.58744 0.0
C391 C 0.06537 0.48322 0.48355 0.0
H392 H 0.0383 0.41166 0.46664 0.0
H393 H 0.03412 0.334 0.46962 0.0
H394 H 0.02171 0.38494 0.41477 0.0
H395 H 0.05038 0.36085 0.5219 0.0
H396 H 0.10751 0.54123 0.54577 0.0
H397 H 0.12618 0.60408 0.63712 0.0
H398 H 0.14817 0.57037 0.55711 0.0
H399 H 0.08559 0.5748 0.6258 0.0
Eu400 Eu 0.58447 0.0726 0.87148 0.0
Eu401 Eu 0.54252 0.08076 0.89268 0.0
C402 C 0.53493 0.03478 0.84337 0.0
C403 C 0.6308 0.06526 0.82135 0.0
C404 C 0.61717 0.05752 0.78977 0.0
C405 C 0.65885 0.05658 0.79297 0.0
C406 C 0.62423 0.04914 0.76006 0.0
C407 C 0.65176 0.06499 0.82274 0.0
C408 C 0.64503 0.04834 0.76145 0.0
C409 C 0.62255 0.07238 0.85352 0.0
O410 O 0.54689 0.06374 0.94465 0.0
O411 O 0.5682 0.0479 0.92164 0.0
C412 C 0.55522 0.0493 0.94826 0.0
O413 O 0.59757 0.10082 0.91433 0.0
O414 O 0.51307 0.0744 0.92798 0.0
O415 O 0.52519 0.10123 0.88632 0.0
O416 O 0.57609 0.1165 0.89642 0.0
C417 C 0.59521 0.11924 0.91121 0.0
O418 O 0.57432 0.08411 0.81605 0.0
O419 O 0.53995 0.08241 0.83154 0.0
O420 O 0.52552 0.04593 0.86055 0.0
O421 O 0.6198 0.0906 0.84931 0.0
O422 O 0.60518 0.05528 0.87107 0.0
O423 O 0.55694 0.04141 0.8448 0.0
C424 C 0.51596 0.11105 0.94351 0.0
C425 C 0.52384 0.13437 0.93234 0.0
C426 C 0.52315 0.12438 1.00661 0.0
C427 C 0.53255 0.15266 0.95789 0.0
C428 C 0.51459 0.10612 0.98109 0.0
C429 C 0.53331 0.14792 0.99509 0.0
C430 C 0.51282 0.09302 0.91609 0.0
C431 C 0.5553 0.085 0.80643 0.0
H432 H 0.60082 0.05745 0.78847 0.0
H433 H 0.675 0.0563 0.79474 0.0
H434 H 0.61295 0.04251 0.7365 0.0
H435 H 0.66242 0.0709 0.84706 0.0
H436 H 0.52478 0.13872 0.90358 0.0
H437 H 0.52288 0.12015 1.03529 0.0
H438 H 0.54012 0.17059 0.9482 0.0
H439 H 0.50823 0.08835 0.99072 0.0
Eu440 Eu 0.49391 0.59924 0.20352 0.0
Eu441 Eu 0.44281 0.56087 0.22882 0.0
C442 C 0.48357 0.54692 0.21308 0.0
C443 C 0.54943 0.64329 0.15048 0.0
C444 C 0.54473 0.62976 1.11865 0.0
C445 C 0.5861 0.67294 0.12425 0.0
C446 C 0.56079 0.63772 1.0898 0.0
C447 C 0.57002 0.66497 0.15304 0.0
C448 C 0.58176 0.65929 1.09246 0.0
C449 C 0.53351 0.6348 0.18181 0.0
O450 O 0.46238 0.56857 0.28314 0.0
O451 O 0.5 0.59045 0.26227 0.0
C452 C 0.485 0.57846 0.28887 0.0
O453 O 0.48123 0.61819 0.24028 0.0
O454 O 0.41703 0.53754 0.26883 0.0
O455 O 0.40576 0.54212 0.21588 0.0
O456 O 0.44366 0.59611 0.22498 0.0
C457 C 0.46068 0.61599 0.23738 0.0
O458 O 0.47193 0.58621 0.14969 0.0
O459 O 0.4425 0.55077 0.16932 0.0
O460 O 0.46293 0.54121 0.22696 0.0
O461 O 0.51348 0.63374 0.1778 0.0
O462 O 0.53163 0.6165 0.19876 0.0
O463 O 0.49707 0.56715 0.1972 0.0
C464 C 0.38452 0.54261 0.26678 0.0
C465 C 0.39475 0.56566 0.28017 0.0
C466 C 0.34665 0.53613 0.28622 0.0
C467 C 0.38119 0.57389 0.29653 0.0
C468 C 0.36035 0.52791 0.26944 0.0
C469 C 0.35699 0.55922 0.30011 0.0
C470 C 0.39948 0.53475 0.2493 0.0
C471 C 0.45368 0.56524 0.14222 0.0
H472 H 0.52888 0.61293 1.11641 0.0
H473 H 0.60197 0.6897 0.12693 0.0
H474 H 0.55711 0.62663 1.06589 0.0
H475 H 0.5738 0.6756 0.17753 0.0
H476 H 0.4134 0.57724 0.27858 0.0
H477 H 0.32806 0.5244 0.2887 0.0
H478 H 0.38989 0.59152 0.30775 0.0
H479 H 0.35216 0.51012 0.25893 0.0
C480 C 0.44879 0.15301 0.30596 0.0
C481 C 0.46829 0.15119 0.31601 0.0
C482 C 0.45088 0.17466 0.29652 0.0
C483 C 0.49004 0.24023 0.30211 0.0
H484 H 0.44661 0.23908 0.23071 0.0
C485 C 0.48898 0.32496 0.24808 0.0
C486 C 0.46673 0.32269 0.24566 0.0
C487 C 0.49154 0.3053 0.25619 0.0
C488 C 0.45883 0.23981 0.25089 0.0
H489 H 0.50557 0.17141 0.32386 0.0
H490 H 0.50938 0.20937 0.30654 0.0
H491 H 0.44712 0.2032 0.24451 0.0
H492 H 0.42981 0.29759 0.25022 0.0
H493 H 0.43424 0.26385 0.26361 0.0
H494 H 0.50184 0.27723 0.30781 0.0
C495 C 0.49226 0.19387 0.30651 0.0
C496 C 0.45907 0.21905 0.25904 0.0
C497 C 0.49012 0.172 0.31628 0.0
C498 C 0.44726 0.30025 0.25171 0.0
C499 C 0.44979 0.28071 0.25923 0.0
C500 C 0.48994 0.26119 0.29363 0.0
C501 C 0.47262 0.19556 0.29628 0.0
C502 C 0.47425 0.21863 0.28546 0.0
C503 C 0.47191 0.28276 0.26141 0.0
C504 C 0.47393 0.26118 0.26845 0.0
H505 H 0.43159 0.1376 0.30576 0.0
H506 H 0.43515 0.17496 0.28993 0.0
H507 H 0.502 0.24085 0.32266 0.0
H508 H 0.5044 0.34191 0.24373 0.0
H509 H 0.50887 0.30764 0.25757 0.0
C510 C 0.29935 0.50836 0.65494 0.0
C511 C 0.29736 0.48592 0.65476 0.0
C512 C 0.27989 0.51107 0.6475 0.0
C513 C 0.21535 0.47738 0.65229 0.0
H514 H 0.21538 0.52249 0.58415 0.0
C515 C 0.12883 0.46563 0.60029 0.0
C516 C 0.12577 0.48495 0.59263 0.0
C517 C 0.15068 0.46856 0.60848 0.0
C518 C 0.21506 0.51 0.60372 0.0
H519 H 0.27302 0.44886 0.64603 0.0
H520 H 0.23961 0.45352 0.63391 0.0
H521 H 0.25183 0.52269 0.59711 0.0
H522 H 0.14418 0.52287 0.58724 0.0
H523 H 0.18271 0.52814 0.60247 0.0
H524 H 0.17904 0.46477 0.65966 0.0
C525 C 0.2561 0.46909 0.63975 0.0
C526 C 0.23604 0.51009 0.61109 0.0
C527 C 0.27545 0.46645 0.64656 0.0
C528 C 0.14571 0.50754 0.59311 0.0
C529 C 0.16787 0.51052 0.6017 0.0
C530 C 0.19462 0.47745 0.64532 0.0
C531 C 0.25784 0.49136 0.64042 0.0
C532 C 0.23635 0.49334 0.63482 0.0
C533 C 0.17066 0.49099 0.60994 0.0
C534 C 0.19382 0.49326 0.62009 0.0
H535 H 0.31588 0.5238 0.66102 0.0
H536 H 0.28197 0.52851 0.64829 0.0
H537 H 0.21488 0.46458 0.6714 0.0
H538 H 0.11422 0.44786 0.59968 0.0
H539 H 0.15183 0.45291 0.61331 0.0
C540 C 0.78462 0.29162 0.97935 0.0
C541 C 0.78692 0.31348 0.98902 0.0
C542 C 0.76302 0.27241 0.96992 0.0
C543 C 0.69846 0.24851 0.97539 0.0
H544 H 0.69833 0.20373 0.90574 0.0
C545 C 0.61377 0.16356 0.92179 0.0
C546 C 0.61531 0.14289 0.92127 0.0
C547 C 0.63349 0.18561 0.92966 0.0
C548 C 0.69798 0.21597 0.92538 0.0
H549 H 0.76772 0.33195 0.99605 0.0
H550 H 0.7299 0.29846 0.97867 0.0
H551 H 0.7344 0.23972 0.91861 0.0
H552 H 0.6391 0.12961 0.92921 0.0
H553 H 0.67292 0.16749 0.94217 0.0
H554 H 0.66164 0.22446 0.98142 0.0
C555 C 0.74494 0.29613 0.97898 0.0
C556 C 0.71883 0.2367 0.93301 0.0
C557 C 0.76672 0.31547 0.98875 0.0
C558 C 0.63701 0.14495 0.92924 0.0
C559 C 0.65661 0.16684 0.9365 0.0
C560 C 0.67742 0.22775 0.96737 0.0
C561 C 0.74273 0.27422 0.9693 0.0
C562 C 0.71967 0.25314 0.95885 0.0
C563 C 0.65531 0.18758 0.93651 0.0
C564 C 0.67699 0.2109 0.94284 0.0
H565 H 0.79956 0.28911 0.97957 0.0
H566 H 0.76228 0.25591 0.96373 0.0
H567 H 0.69818 0.26051 0.99553 0.0
H568 H 0.59741 0.16273 0.91586 0.0
H569 H 0.63181 0.2012 0.92941 0.0
C570 C 0.47702 0.65869 0.25374 0.0
C571 C 0.45745 0.63651 0.24694 0.0
C572 C 0.47469 0.67825 0.26255 0.0
C573 C 0.43307 0.70161 0.26126 0.0
H574 H 0.47945 0.74869 0.32504 0.0
C575 C 0.43158 0.78638 0.31479 0.0
C576 C 0.45321 0.80743 0.31397 0.0
C577 C 0.43005 0.76453 0.30681 0.0
C578 C 0.46638 0.73584 0.30698 0.0
H579 H 0.41982 0.61785 0.24422 0.0
H580 H 0.41564 0.65188 0.26055 0.0
H581 H 0.48034 0.71285 0.31202 0.0
H582 H 0.49009 0.82157 0.30344 0.0
H583 H 0.48741 0.78407 0.29014 0.0
H584 H 0.419 0.72487 0.257 0.0
C585 C 0.43297 0.65424 0.25842 0.0
C586 C 0.46695 0.71516 0.29926 0.0
C587 C 0.43534 0.63458 0.24922 0.0
C588 C 0.47308 0.80592 0.30451 0.0
C589 C 0.47159 0.78424 0.29706 0.0
C590 C 0.43237 0.72233 0.26934 0.0
C591 C 0.45265 0.67647 0.26542 0.0
C592 C 0.45064 0.69781 0.27562 0.0
C593 C 0.45015 0.76312 0.29841 0.0
C594 C 0.44933 0.74 0.29178 0.0
H595 H 0.49439 0.66112 0.25189 0.0
H596 H 0.49042 0.69494 0.26662 0.0
H597 H 0.42021 0.68893 0.24281 0.0
H598 H 0.41589 0.78675 0.3219 0.0
H599 H 0.41322 0.74867 0.30817 0.0
C600 C 0.62405 0.45144 0.65267 0.0
C601 C 0.6254 0.47356 0.65115 0.0
C602 C 0.64391 0.44923 0.6457 0.0
C603 C 0.70857 0.48455 0.64815 0.0
H604 H 0.70873 0.43717 0.58474 0.0
C605 C 0.79547 0.49345 0.59857 0.0
C606 C 0.79763 0.47347 0.59183 0.0
C607 C 0.77385 0.49146 0.60663 0.0
C608 C 0.70905 0.45035 0.603 0.0
H609 H 0.64903 0.5106 0.64053 0.0
H610 H 0.68308 0.50679 0.62905 0.0
H611 H 0.6722 0.43692 0.59721 0.0
H612 H 0.77809 0.43546 0.58837 0.0
H613 H 0.74027 0.43187 0.60343 0.0
H614 H 0.74501 0.49786 0.65478 0.0
C615 C 0.66682 0.49108 0.63567 0.0
C616 C 0.68799 0.45021 0.61009 0.0
C617 C 0.64708 0.49323 0.64208 0.0
C618 C 0.77723 0.45128 0.59343 0.0
C619 C 0.75543 0.44926 0.60187 0.0
C620 C 0.72944 0.48455 0.64146 0.0
C621 C 0.66571 0.46914 0.63768 0.0
C622 C 0.68753 0.46765 0.63219 0.0
C623 C 0.75336 0.46937 0.60879 0.0
C624 C 0.73029 0.46781 0.61808 0.0
H625 H 0.60773 0.43586 0.65949 0.0
H626 H 0.64232 0.43203 0.64754 0.0
H627 H 0.70895 0.49796 0.66599 0.0
H628 H 0.81056 0.51091 0.59716 0.0
H629 H 0.77328 0.50751 0.6106 0.0
C630 C 0.30415 0.7884 0.92151 0.0
C631 C 0.30229 0.80888 0.922 0.0
C632 C 0.28491 0.76627 0.93094 0.0
C633 C 0.22597 0.73964 0.97735 0.0
H634 H 0.21363 0.68213 0.92821 0.0
C635 C 0.13489 0.65729 0.98122 0.0
C636 C 0.13266 0.63524 0.98896 0.0
C637 C 0.15663 0.67705 0.97388 0.0
C638 C 0.21693 0.698 0.94246 0.0
H639 H 0.27821 0.82163 0.93213 0.0
H640 H 0.24521 0.7838 0.94724 0.0
H641 H 0.24947 0.71908 0.91421 0.0
H642 H 0.15206 0.61687 0.9938 0.0
H643 H 0.19027 0.65157 0.98013 0.0
H644 H 0.19326 0.71885 1.00472 0.0
C645 C 0.26153 0.78456 0.94087 0.0
C646 C 0.23758 0.71927 0.93449 0.0
C647 C 0.28063 0.80648 0.93184 0.0
C648 C 0.15303 0.63351 0.9881 0.0
C649 C 0.17493 0.6534 0.98014 0.0
C650 C 0.20536 0.71857 0.98492 0.0
C651 C 0.26322 0.76399 0.94095 0.0
C652 C 0.24226 0.74062 0.95129 0.0
C653 C 0.17707 0.67558 0.97353 0.0
C654 C 0.20025 0.69747 0.9672 0.0
H655 H 0.32049 0.78946 0.91404 0.0
H656 H 0.28716 0.75103 0.9308 0.0
H657 H 0.22901 0.75528 0.99199 0.0
H658 H 0.11978 0.65953 0.98151 0.0
H659 H 0.15741 0.69364 0.96842 0.0
C660 C 0.56176 0.16503 1.04584 0.0
C661 C 0.5469 0.16729 1.02122 0.0
C662 C 0.57446 0.18264 1.07112 0.0
C663 C 0.57146 0.22868 0.12279 0.0
H664 H 0.62385 0.22788 0.16686 0.0
C665 C 0.60405 0.21051 0.26589 0.0
C666 C 0.58109 0.19821 0.27903 0.0
C667 C 0.60975 0.22579 0.23609 0.0
C668 C 0.60956 0.22913 0.15539 0.0
H669 H 0.53457 0.19043 1.00252 0.0
H670 H 0.55699 0.22156 1.04711 0.0
H671 H 0.61533 0.21755 1.10372 0.0
H672 H 0.54709 0.1951 0.27548 0.0
H673 H 0.5562 0.22003 0.22337 0.0
H674 H 0.56616 0.24116 0.17382 0.0
C675 C 0.55859 0.20593 1.04694 0.0
C676 C 0.6045 0.22281 1.11874 0.0
C677 C 0.54577 0.18814 1.02142 0.0
C678 C 0.56491 0.20408 0.26559 0.0
C679 C 0.57035 0.21867 0.23517 0.0
C680 C 0.57709 0.23596 0.15915 0.0
C681 C 0.57289 0.20324 1.07242 0.0
C682 C 0.58386 0.21985 1.10346 0.0
C683 C 0.59224 0.22791 0.21763 0.0
C684 C 0.59433 0.23325 0.17732 0.0
H685 H 0.56351 0.14947 1.04581 0.0
H686 H 0.58477 0.1795 1.09069 0.0
H687 H 0.55595 0.22763 1.11147 0.0
H688 H 0.61706 0.20681 0.2766 0.0
H689 H 0.62736 0.23397 0.22559 0.0
C690 C 0.32858 0.55305 0.35018 0.0
C691 C 0.34362 0.56747 0.32238 0.0
C692 C 0.32207 0.56285 0.37871 0.0
C693 C 0.35438 0.61523 0.42855 0.0
H694 H 0.3029 0.58481 0.49692 0.0
C695 C 0.37665 0.61646 0.57577 0.0
C696 C 0.36492 0.59379 0.59082 0.0
C697 C 0.36716 0.62214 0.54612 0.0
C698 C 0.31751 0.59361 0.47826 0.0
H699 H 0.36033 0.60258 0.29925 0.0
H700 H 0.34946 0.61978 0.34966 0.0
H701 H 0.29624 0.57614 0.4317 0.0
H702 H 0.33317 0.56003 0.58919 0.0
H703 H 0.31734 0.56916 0.53691 0.0
H704 H 0.3763 0.63038 0.47435 0.0
C705 C 0.34291 0.601 0.34959 0.0
C706 C 0.31356 0.58882 0.44082 0.0
C707 C 0.34926 0.59116 0.32092 0.0
C708 C 0.34261 0.5777 0.57815 0.0
C709 C 0.33342 0.58311 0.54801 0.0
C710 C 0.35843 0.61955 0.46588 0.0
C711 C 0.33063 0.58723 0.37997 0.0
C712 C 0.33228 0.59845 0.41595 0.0
C713 C 0.34621 0.60492 0.53008 0.0
C714 C 0.34036 0.60741 0.49152 0.0
H715 H 0.32386 0.53473 0.35211 0.0
H716 H 0.31265 0.55177 0.40178 0.0
H717 H 0.36922 0.62296 0.41011 0.0
H718 H 0.39373 0.62931 0.58554 0.0
H719 H 0.37713 0.63948 0.53418 0.0
C720 C 0.74063 0.37402 0.89072 0.0
C721 C 0.76498 0.38742 0.88608 0.0
C722 C 0.72632 0.36167 0.86113 0.0
C723 C 0.70911 0.35495 0.77527 0.0
H724 H 0.73011 0.3144 0.73338 0.0
C725 C 0.74157 0.36631 0.63522 0.0
C726 C 0.75004 0.35183 0.62213 0.0
C727 C 0.72619 0.35917 0.66485 0.0
C728 C 0.72305 0.32484 0.74452 0.0
H729 H 0.79322 0.39863 0.84669 0.0
H730 H 0.76837 0.37738 0.79554 0.0
H731 H 0.73783 0.32579 0.79667 0.0
H732 H 0.74525 0.31673 0.62421 0.0
H733 H 0.71738 0.30371 0.67485 0.0
H734 H 0.69555 0.35525 0.7225 0.0
C735 C 0.7604 0.37649 0.82195 0.0
C736 C 0.72768 0.33147 0.78109 0.0
C737 C 0.77458 0.38888 0.85116 0.0
C738 C 0.73952 0.32851 0.63459 0.0
C739 C 0.72367 0.32115 0.66381 0.0
C740 C 0.70414 0.34805 0.7386 0.0
C741 C 0.73628 0.36241 0.82685 0.0
C742 C 0.72247 0.34807 0.79572 0.0
C743 C 0.71886 0.33732 0.68184 0.0
C744 C 0.71319 0.33484 0.72184 0.0
H745 H 0.73276 0.37265 0.91735 0.0
H746 H 0.7077 0.35097 0.86527 0.0
H747 H 0.70471 0.3676 0.7863 0.0
H748 H 0.74913 0.38434 0.62601 0.0
H749 H 0.72277 0.3722 0.67708 0.0
C750 C 0.3793 0.75009 0.96181 0.0
C751 C 0.3687 0.7628 0.95014 0.0
C752 C 0.36932 0.73373 0.99023 0.0
C753 C 0.32499 0.72055 1.06701 0.0
H754 H 0.38012 0.7363 0.12286 0.0
C755 C 0.37759 0.7871 0.18538 0.0
C756 C 0.36014 0.78399 0.2104 0.0
C757 C 0.3733 0.77032 0.15867 0.0
C758 C 0.36445 0.73173 1.10773 0.0
H759 H 0.33773 0.7658 0.95483 0.0
H760 H 0.32121 0.73901 1.00477 0.0
H761 H 0.37973 0.72851 1.05876 0.0
H762 H 0.32477 0.7602 0.22828 0.0
H763 H 0.31711 0.73056 0.18098 0.0
H764 H 0.31116 0.72705 1.11592 0.0
C765 C 0.33694 0.74081 0.99273 0.0
C766 C 0.36401 0.72691 1.07047 0.0
C767 C 0.34649 0.75648 0.96361 0.0
C768 C 0.33848 0.76313 0.20908 0.0
C769 C 0.33412 0.74619 0.18205 0.0
C770 C 0.32582 0.72633 1.10409 0.0
C771 C 0.34933 0.73089 1.00893 0.0
C772 C 0.34525 0.72388 1.04864 0.0
C773 C 0.35145 0.74975 0.15622 0.0
C774 C 0.3465 0.73423 0.12377 0.0
H775 H 0.39617 0.75418 0.95102 0.0
H776 H 0.37865 0.72516 0.99958 0.0
H777 H 0.30926 0.71606 1.05225 0.0
H778 H 0.39465 0.8027 0.18622 0.0
H779 H 0.38699 0.77412 0.1389 0.0
C780 C 0.58863 0.39183 0.32914 0.0
C781 C 0.57018 0.38208 0.30414 0.0
C782 C 0.5898 0.37805 0.35714 0.0
C783 C 0.58644 0.3474 0.42075 0.0
H784 H 0.52369 0.32213 0.45838 0.0
C785 C 0.56724 0.37161 0.55818 0.0
C786 C 0.54496 0.35901 0.57399 0.0
C787 C 0.573 0.36294 0.52735 0.0
C788 C 0.54124 0.32829 0.44858 0.0
H789 H 0.5408 0.3493 0.28536 0.0
H790 H 0.54336 0.32528 0.33327 0.0
H791 H 0.53059 0.32746 0.39366 0.0
H792 H 0.5123 0.32611 0.57285 0.0
H793 H 0.52249 0.31064 0.51923 0.0
H794 H 0.59713 0.34967 0.47644 0.0
C795 C 0.55647 0.34373 0.33205 0.0
C796 C 0.54525 0.33139 0.411 0.0
C797 C 0.55514 0.35756 0.30429 0.0
C798 C 0.52943 0.33641 0.56071 0.0
C799 C 0.5353 0.32759 0.53 0.0
C800 C 0.58239 0.34412 0.45848 0.0
C801 C 0.57262 0.3542 0.36046 0.0
C802 C 0.56808 0.34266 0.3969 0.0
C803 C 0.55664 0.34139 0.51163 0.0
C804 C 0.55996 0.33626 0.47298 0.0
H805 H 0.60092 0.41054 0.32911 0.0
H806 H 0.60264 0.38678 0.3783 0.0
H807 H 0.60417 0.35551 0.41063 0.0
H808 H 0.57959 0.38914 0.56758 0.0
H809 H 0.58951 0.37429 0.51402 0.0
C810 C 0.17463 0.5727 0.87924 0.0
C811 C 0.15027 0.56271 0.87817 0.0
C812 C 0.18848 0.58587 0.84952 0.0
C813 C 0.18733 0.62104 0.77354 0.0
H814 H 0.21826 0.59643 0.71258 0.0
C815 C 0.17404 0.62396 0.62823 0.0
C816 C 0.16369 0.60075 0.6153 0.0
C817 C 0.19021 0.63132 0.65664 0.0
C818 C 0.20992 0.60379 0.72929 0.0
H819 H 0.12144 0.5588 0.84539 0.0
H820 H 0.14539 0.58147 0.79401 0.0
H821 H 0.20898 0.58373 0.77621 0.0
H822 H 0.16512 0.56849 0.61731 0.0
H823 H 0.19185 0.58053 0.66718 0.0
H824 H 0.18535 0.63875 0.72673 0.0
C825 C 0.15382 0.57919 0.81766 0.0
C826 C 0.2049 0.59669 0.76592 0.0
C827 C 0.14007 0.56588 0.84684 0.0
C828 C 0.17254 0.58643 0.62699 0.0
C829 C 0.18816 0.59352 0.65593 0.0
C830 C 0.19197 0.62782 0.73701 0.0
C831 C 0.17813 0.58963 0.81891 0.0
C832 C 0.19184 0.60381 0.78723 0.0
C833 C 0.19535 0.61519 0.6736 0.0
C834 C 0.20125 0.61745 0.71342 0.0
H835 H 0.1829 0.57053 0.90316 0.0
H836 H 0.2072 0.59356 0.8508 0.0
H837 H 0.17772 0.62719 0.7899 0.0
H838 H 0.16798 0.63561 0.6189 0.0
H839 H 0.19647 0.6487 0.66796 0.0
C840 C 0.36762 0.94061 0.98833 0.0
C841 C 0.37098 0.92099 0.98518 0.0
C842 C 0.37427 0.95501 1.02031 0.0
C843 C 0.38662 0.95569 1.12158 0.0
H844 H 0.41908 0.02357 1.11329 0.0
C845 C 0.40605 0.01927 0.25028 0.0
C846 C 0.42842 0.03945 0.25274 0.0
C847 C 0.39872 0.00483 0.21834 0.0
C848 C 0.41001 0.00465 1.11644 0.0
H849 H 0.38394 0.90155 1.01519 0.0
H850 H 0.3945 0.92575 1.07065 0.0
H851 H 0.40694 -0.00092 1.05793 0.0
H852 H 0.4602 0.05986 0.22153 0.0
H853 H 0.44725 0.03558 0.16617 0.0
H854 H 0.38923 0.96125 0.18011 0.0
C855 C 0.38699 0.93031 1.04815 0.0
C856 C 0.40284 -0.00956 1.08432 0.0
C857 C 0.38093 0.91632 1.01589 0.0
C858 C 0.44288 0.04465 0.22139 0.0
C859 C 0.43534 0.03061 0.18919 0.0
C860 C 0.39323 0.96988 0.15372 0.0
C861 C 0.38402 0.95016 1.05117 0.0
C862 C 0.39114 0.96558 1.08599 0.0
C863 C 0.41314 0.0102 0.18684 0.0
C864 C 0.40529 -0.00524 0.15204 0.0
H865 H 0.36017 0.94514 0.96572 0.0
H866 H 0.37145 0.96989 1.021 0.0
H867 H 0.37762 0.93677 0.12473 0.0
H868 H 0.39423 0.01431 0.27341 0.0
H869 H 0.38148 -0.01049 0.21819 0.0
C870 C 0.44209 0.39662 0.35271 0.0
C871 C 0.42691 0.38487 0.3232 0.0
C872 C 0.43433 0.40261 0.38525 0.0
C873 C 0.38881 0.41548 0.42216 0.0
H874 H 0.40722 0.40606 0.51815 0.0
C875 C 0.37441 0.45731 0.55734 0.0
C876 C 0.36608 0.44329 0.58926 0.0
C877 C 0.381 0.44956 0.52542 0.0
C878 C 0.40179 0.40886 0.49168 0.0
H879 H 0.39092 0.36974 0.30697 0.0
H880 H 0.37775 0.38094 0.36253 0.0
H881 H 0.42017 0.39408 0.46307 0.0
H882 H 0.35878 0.40973 0.61142 0.0
H883 H 0.37096 0.39663 0.55656 0.0
H884 H 0.37103 0.43091 0.45065 0.0
C885 C 0.39582 0.3855 0.36049 0.0
C886 C 0.4094 0.40205 0.45978 0.0
C887 C 0.40345 0.37895 0.32833 0.0
C888 C 0.36488 0.42116 0.58774 0.0
C889 C 0.37207 0.41366 0.55606 0.0
C890 C 0.38172 0.42286 0.454 0.0
C891 C 0.41109 0.39758 0.3897 0.0
C892 C 0.40297 0.40504 0.42422 0.0
C893 C 0.38021 0.42763 0.52402 0.0
C894 C 0.3879 0.41961 0.4896 0.0
H895 H 0.46028 0.40164 0.3505 0.0
H896 H 0.44684 0.41188 0.40663 0.0
H897 H 0.38349 0.41838 0.39567 0.0
H898 H 0.37576 0.47444 0.55686 0.0
H899 H 0.38722 0.4611 0.50187 0.0
C900 C 0.01676 0.45458 0.68848 0.0
C901 C 0.01613 0.43872 0.6615 0.0
C902 C 0.00242 0.44693 0.72021 0.0
C903 C -0.03761 0.39276 0.77826 0.0
H904 H 0.94449 0.43531 0.82187 0.0
C905 C 0.91066 0.37119 0.9204 0.0
C906 C 0.89567 0.38031 0.92762 0.0
C907 C 0.92496 0.37749 0.88834 0.0
C908 C 0.94895 0.42285 0.81029 0.0
H909 H -0.00096 0.40161 0.64856 0.0
H910 H -0.02595 0.38826 0.70344 0.0
H911 H -0.03156 0.44684 0.76696 0.0
H912 H 0.88455 0.40349 0.90479 0.0
H913 H 0.90868 0.41403 0.84991 0.0
H914 H 0.94237 0.36857 0.82143 0.0
C915 C -0.01402 0.4069 0.70023 0.0
C916 C -0.03672 0.42975 0.77845 0.0
C917 C 0.00043 0.41462 0.66826 0.0
C918 C 0.89567 0.39593 0.90103 0.0
C919 C 0.90992 0.40223 0.86915 0.0
C920 C 0.94805 0.38586 0.81027 0.0
C921 C -0.01357 0.4229 0.72702 0.0
C922 C -0.02949 0.41498 0.76145 0.0
C923 C 0.9251 0.39333 0.86184 0.0
C924 C 0.94086 0.4007 0.82723 0.0
H925 H 0.02845 0.47328 0.68515 0.0
H926 H 0.00419 0.46017 0.73971 0.0
H927 H -0.03264 0.38061 0.76701 0.0
H928 H 0.91153 0.35921 0.93975 0.0
H929 H 0.93628 0.37016 0.88482 0.0
C930 C 0.5139 0.93675 0.24922 0.0
C931 C 0.49215 0.9157 0.2513 0.0
C932 C 0.52118 0.95111 0.21718 0.0
C933 C 0.51051 0.95056 1.11468 0.0
H934 H 0.54272 0.01841 0.12313 0.0
C935 C 0.55142 0.01383 0.98525 0.0
C936 C 0.54938 0.03427 0.98325 0.0
C937 C 0.54486 -0.0005 1.01729 0.0
C938 C 0.53373 -0.0005 1.11988 0.0
H939 H 0.46142 0.89377 0.21927 0.0
H940 H 0.47425 0.91801 0.16392 0.0
H941 H 0.53103 -0.00604 0.17837 0.0
H942 H 0.53876 0.05516 1.01543 0.0
H943 H 0.52821 0.03098 1.07078 0.0
H944 H 0.51349 0.95611 1.05618 0.0
C945 C 0.48577 0.92367 0.18721 0.0
C946 C 0.5271 -0.01471 0.152 0.0
C947 C 0.47829 0.90962 0.21944 0.0
C948 C 0.5408 0.03979 1.01519 0.0
C949 C 0.53474 0.02578 1.04742 0.0
C950 C 0.5176 0.96478 1.08256 0.0
C951 C 0.50735 0.94493 0.18521 0.0
C952 C 0.51513 0.9604 0.15034 0.0
C953 C 0.5364 0.00512 1.04935 0.0
C954 C 0.52926 -0.01034 1.08422 0.0
H955 H 0.52525 0.94245 0.27272 0.0
H956 H 0.53796 0.96706 0.2174 0.0
H957 H 0.50157 0.93165 1.11143 0.0
H958 H 0.55776 0.00859 0.96168 0.0
H959 H 0.54672 -0.01598 1.01701 0.0
C960 C 0.54073 0.49937 0.56154 0.0
C961 C 0.55593 0.51533 0.58801 0.0
C962 C 0.53366 0.50695 0.53035 0.0
C963 C 0.54691 0.56143 0.47365 0.0
H964 H 0.4874 0.51892 0.43005 0.0
C965 C 0.51752 0.58376 0.33313 0.0
C966 C 0.4936 0.57409 0.32532 0.0
C967 C 0.52526 0.57758 0.36523 0.0
C968 C 0.50402 0.53136 0.44171 0.0
H969 H 0.57538 0.55246 0.60084 0.0
H970 H 0.56302 0.56564 0.54723 0.0
H971 H 0.49987 0.50697 0.48412 0.0
H972 H 0.45932 0.55064 0.34763 0.0
H973 H 0.47249 0.54023 0.40282 0.0
H974 H 0.55073 0.58604 0.43158 0.0
C975 C 0.55668 0.54702 0.5502 0.0
C976 C 0.51149 0.52422 0.473 0.0
C977 C 0.5638 0.53939 0.58149 0.0
C978 C 0.47787 0.55857 0.35189 0.0
C979 C 0.48556 0.55229 0.38383 0.0
C980 C 0.53942 0.56858 0.44229 0.0
C981 C 0.54129 0.53098 0.52377 0.0
C982 C 0.53318 0.539 0.48991 0.0
C983 C 0.50948 0.56136 0.39126 0.0
C984 C 0.51773 0.55375 0.42539 0.0
H985 H 0.53414 0.4807 0.56482 0.0
H986 H 0.5223 0.4937 0.51109 0.0
H987 H 0.56379 0.57359 0.4848 0.0
H988 H 0.53044 0.59573 0.31383 0.0
H989 H 0.54379 0.58508 0.36889 0.0
C990 C 0.00977 0.57739 0.91943 0.0
C991 C 0.02483 0.56844 0.92666 0.0
C992 C -0.00414 0.5711 0.88723 0.0
C993 C -0.02673 0.52616 0.80826 0.0
H994 H 0.95484 0.56824 0.76573 0.0
C995 C 0.90744 0.4952 0.68454 0.0
C996 C 0.90817 0.51145 0.65843 0.0
C997 C 0.92135 0.50246 0.71653 0.0
C998 C 0.95982 0.55612 0.77672 0.0
H999 H 0.03646 0.54553 0.90366 0.0
H1000 H 0.013 0.53501 0.8486 0.0
H1001 H -0.02103 0.58004 0.82047 0.0
H1002 H 0.92502 0.54878 0.64733 0.0
H1003 H 0.94921 0.5614 0.70239 0.0
H1004 H 0.95461 0.50244 0.76432 0.0
C1005 C 0.01141 0.54668 0.86791 0.0
C1006 C -0.02633 0.56289 0.80897 0.0
C1007 C 0.02528 0.55298 0.89993 0.0
C1008 C 0.9236 0.53547 0.66624 0.0
C1009 C 0.93756 0.54277 0.69841 0.0
C1010 C 0.95941 0.51938 0.77617 0.0
C1011 C -0.00383 0.55543 0.86055 0.0
C1012 C -0.01912 0.54813 0.8257 0.0
C1013 C 0.93693 0.52645 0.72449 0.0
C1014 C 0.95222 0.53411 0.75936 0.0
H1015 H 0.00855 0.58924 0.93886 0.0
H1016 H -0.01552 0.57832 0.88371 0.0
H1017 H -0.02224 0.51376 0.81961 0.0
H1018 H 0.89594 0.47655 0.68036 0.0
H1019 H 0.91951 0.48896 0.73537 0.0
C1020 C 0.43815 0.0322 0.45451 0.0
C1021 C 0.44294 0.02707 0.41904 0.0
C1022 C 0.43975 0.02039 0.48487 0.0
C1023 C 0.47691 0.0064 0.51544 0.0
H1024 H 0.44292 0.93852 0.51719 0.0
C1025 C 0.48179 0.95322 0.41514 0.0
C1026 C 0.47982 0.93133 0.42087 0.0
C1027 C 0.48459 0.96759 0.44519 0.0
C1028 C 0.45278 0.95754 0.51886 0.0
H1029 H 0.44974 0.00356 0.38659 0.0
H1030 H 0.44962 -0.0193 0.4396 0.0
H1031 H 0.42181 0.95972 0.5147 0.0
H1032 H 0.48222 0.90846 0.46104 0.0
H1033 H 0.48276 0.93162 0.51391 0.0
H1034 H 0.50774 0.00395 0.51036 0.0
C1035 C 0.44654 -0.00479 0.44396 0.0
C1036 C 0.44055 0.96969 0.51755 0.0
C1037 C 0.44659 0.00813 0.41373 0.0
C1038 C 0.48218 0.92467 0.45643 0.0
C1039 C 0.48339 0.93823 0.48655 0.0
C1040 C 0.48912 -0.00579 0.51515 0.0
C1041 C 0.44451 0.00218 0.47975 0.0
C1042 C 0.45275 -0.00618 0.51008 0.0
C1043 C 0.48388 0.95949 0.48119 0.0
C1044 C 0.47673 0.96972 0.51086 0.0
H1045 H 0.43448 0.04632 0.45898 0.0
H1046 H 0.43826 0.02608 0.51215 0.0
H1047 H 0.48661 0.02525 0.51107 0.0
H1048 H 0.48104 0.95909 0.38778 0.0
H1049 H 0.48554 -0.0157 0.44042 0.0
C1050 C 0.38413 0.45169 0.78907 0.0
C1051 C 0.39326 0.45628 0.75311 0.0
C1052 C 0.39806 0.45355 0.81858 0.0
C1053 C 0.44819 0.4922 0.84736 0.0
H1054 H 0.48571 0.46228 0.84565 0.0
C1055 C 0.50844 0.50206 0.7462 0.0
C1056 C 0.52997 0.50389 0.7525 0.0
C1057 C 0.49547 0.50292 0.7758 0.0
C1058 C 0.47551 0.47097 0.84828 0.0
H1059 H 0.42272 0.4631 0.71903 0.0
H1060 H 0.44647 0.46376 0.77054 0.0
H1061 H 0.44371 0.43826 0.84402 0.0
H1062 H 0.55589 0.51001 0.7936 0.0
H1063 H 0.53152 0.5078 0.84557 0.0
H1064 H 0.48004 0.52483 0.84229 0.0
C1065 C 0.42897 0.46026 0.77592 0.0
C1066 C 0.45135 0.45709 0.84746 0.0
C1067 C 0.41555 0.45995 0.74652 0.0
C1068 C 0.53892 0.50789 0.78831 0.0
C1069 C 0.52535 0.50722 0.81801 0.0
C1070 C 0.47237 0.50607 0.84649 0.0
C1071 C 0.42078 0.45847 0.81218 0.0
C1072 C 0.43803 0.46789 0.84146 0.0
C1073 C 0.50325 0.50406 0.81198 0.0
C1074 C 0.48574 0.49518 0.84134 0.0
H1075 H 0.36668 0.4483 0.7947 0.0
H1076 H 0.39157 0.45242 0.84624 0.0
H1077 H 0.438 0.50082 0.84401 0.0
H1078 H 0.50151 0.49949 0.71877 0.0
H1079 H 0.47848 0.50077 0.77063 0.0
C1080 C 0.93006 0.43077 1.08933 0.0
C1081 C 0.91018 0.40898 1.09474 0.0
C1082 C 0.94335 0.44314 1.11946 0.0
C1083 C -0.03095 0.46245 0.19204 0.0
H1084 H 0.93737 0.49837 0.18634 0.0
C1085 C 0.01544 0.54997 0.13103 0.0
C1086 C 0.00875 0.54091 1.09541 0.0
C1087 C 0.00204 0.53767 0.16121 0.0
C1088 C 0.94644 0.48869 0.19068 0.0
H1089 H 0.88955 0.38194 0.1346 0.0
H1090 H 0.9107 0.40545 0.18777 0.0
H1091 H 0.91489 0.45582 0.18789 0.0
H1092 H -0.01872 0.51434 1.06245 0.0
H1093 H 0.95638 0.49382 1.11526 0.0
H1094 H 0.00067 0.49528 0.19035 0.0
C1095 C 0.91674 0.41226 0.16047 0.0
C1096 C 0.93356 0.4642 0.1915 0.0
C1097 C 0.90442 0.39922 0.13017 0.0
C1098 C -0.01291 0.52103 1.0898 0.0
C1099 C -0.02708 0.50956 1.11994 0.0
C1100 C -0.01809 0.48693 0.19283 0.0
C1101 C 0.93597 0.43456 0.15529 0.0
C1102 C 0.94511 0.45144 0.18552 0.0
C1103 C -0.01904 0.51699 0.15589 0.0
C1104 C -0.02942 0.49971 0.18552 0.0
H1105 H 0.93507 0.43827 1.06217 0.0
H1106 H 0.95855 0.46019 1.11501 0.0
H1107 H -0.02177 0.45276 0.18873 0.0
H1108 H 0.03158 0.56611 0.13568 0.0
H1109 H 0.00861 0.54362 0.18854 0.0
C1110 C -0.01796 0.41542 0.5007 0.0
C1111 C -0.01136 0.43532 0.52326 0.0
C1112 C -0.0386 0.40553 0.4812 0.0
C1113 C 0.9115 0.41206 0.45638 0.0
H1114 H 0.95582 0.45867 0.38925 0.0
C1115 C 0.93466 0.48513 0.49573 0.0
C1116 C 0.91768 0.49128 0.48954 0.0
C1117 C 0.94112 0.47529 0.46731 0.0
C1118 C 0.94244 0.44458 0.40552 0.0
H1119 H -0.02356 0.45683 0.54941 0.0
H1120 H 0.93947 0.43858 0.51648 0.0
H1121 H -0.03516 0.43103 0.41771 0.0
H1122 H 0.89759 0.49645 0.44788 0.0
H1123 H 0.90454 0.47388 0.40113 0.0
H1124 H 0.89004 0.42695 0.44595 0.0
C1125 C 0.95104 0.43157 0.51254 0.0
C1126 C 0.9477 0.4288 0.42244 0.0
C1127 C -0.02775 0.4422 0.53119 0.0
C1128 C 0.90975 0.49049 0.45363 0.0
C1129 C 0.9142 0.47826 0.42645 0.0
C1130 C 0.90567 0.42681 0.43743 0.0
C1131 C 0.94673 0.41493 0.48465 0.0
C1132 C 0.93393 0.4153 0.45219 0.0
C1133 C 0.92851 0.46892 0.43431 0.0
C1134 C 0.92339 0.44622 0.41845 0.0
H1135 H -0.00627 0.40869 0.4953 0.0
H1136 H 0.95835 0.39256 0.46028 0.0
H1137 H 0.90026 0.40126 0.47841 0.0
H1138 H 0.94154 0.48622 0.52291 0.0
H1139 H 0.95311 0.46912 0.47322 0.0
C1140 C 0.41841 0.95267 0.81944 0.0
C1141 C 0.3963 0.93304 0.81618 0.0
C1142 C 0.43006 0.96518 0.78803 0.0
C1143 C 0.44969 -0.01161 0.71411 0.0
H1144 H 0.47781 0.94911 0.71863 0.0
C1145 C 0.53322 0.02636 0.77753 0.0
C1146 C 0.52299 0.0193 0.81248 0.0
C1147 C 0.52167 0.01373 0.74649 0.0
C1148 C 0.4703 0.96027 0.71456 0.0
H1149 H 0.36807 0.91224 0.7788 0.0
H1150 H 0.39009 0.93176 0.72353 0.0
H1151 H 0.43586 0.93112 0.71875 0.0
H1152 H 0.49483 -0.00828 0.84349 0.0
H1153 H 0.47533 0.96816 0.78927 0.0
H1154 H 0.48413 0.01762 0.71418 0.0
C1155 C 0.39777 0.93834 0.75011 0.0
C1156 C 0.44613 0.94998 0.71477 0.0
C1157 C 0.38554 0.9269 0.78165 0.0
C1158 C 0.50252 -0.00216 0.81666 0.0
C1159 C 0.49165 -0.01562 0.78568 0.0
C1160 C 0.47382 -0.00136 0.71219 0.0
C1161 C 0.42038 0.95715 0.75304 0.0
C1162 C 0.4363 0.96429 0.72152 0.0
C1163 C 0.50034 -0.00695 0.75026 0.0
C1164 C 0.48384 -0.01537 0.71971 0.0
H1165 H 0.42674 0.95802 0.84586 0.0
H1166 H 0.44742 -0.01994 0.79083 0.0
H1167 H 0.44227 -0.00029 0.71771 0.0
H1168 H 0.5497 0.04238 0.77404 0.0
H1169 H 0.52861 0.02083 0.71964 0.0
C1170 C 0.50846 0.54421 0.25944 0.0
C1171 C 0.49472 0.53432 0.22817 0.0
C1172 C 0.50642 0.52969 0.2888 0.0
C1173 C 0.4678 0.46939 0.32142 0.0
H1174 H 0.42091 0.48679 0.30358 0.0
C1175 C 0.4329 0.44455 0.21412 0.0
C1176 C 0.42399 0.42048 0.21923 0.0
C1177 C 0.42744 0.45708 0.23952 0.0
C1178 C 0.43335 0.48149 0.31139 0.0
H1179 H 0.47508 0.50219 0.1975 0.0
H1180 H 0.47586 0.47714 0.24595 0.0
H1181 H 0.46085 0.51693 0.31149 0.0
H1182 H 0.39831 0.38978 0.24868 0.0
H1183 H 0.39243 0.41239 0.29665 0.0
H1184 H 0.44062 0.43398 0.31671 0.0
C1185 C 0.48552 0.49598 0.24986 0.0
C1186 C 0.45657 0.49892 0.31602 0.0
C1187 C 0.48517 0.51025 0.22187 0.0
C1188 C 0.40635 0.40863 0.24553 0.0
C1189 C 0.4025 0.42145 0.2726 0.0
C1190 C 0.44441 0.45199 0.31866 0.0
C1191 C 0.49197 0.50536 0.28539 0.0
C1192 C 0.47412 0.49276 0.31399 0.0
C1193 C 0.41585 0.44603 0.27234 0.0
C1194 C 0.42809 0.45817 0.30629 0.0
H1195 H 0.5173 0.56298 0.2638 0.0
H1196 H 0.51266 0.53746 0.31544 0.0
H1197 H 0.48088 0.4641 0.3214 0.0
H1198 H 0.44598 0.45399 0.19328 0.0
H1199 H 0.43661 0.47606 0.23735 0.0
C1200 C 0.26272 0.93582 0.74473 0.0
C1201 C 0.26997 0.91938 0.73755 0.0
C1202 C 0.26099 0.94903 0.71629 0.0
C1203 C 0.26447 0.9558 0.61437 0.0
H1204 H 0.29834 0.0223 0.63743 0.0
C1205 C 0.30521 0.02354 0.49957 0.0
C1206 C 0.32887 0.03962 0.50558 0.0
C1207 C 0.29068 0.01055 0.52864 0.0
C1208 C 0.28872 0.0038 0.63052 0.0
H1209 H 0.27907 0.90242 0.69467 0.0
H1210 H 0.27688 0.92585 0.64542 0.0
H1211 H 0.28497 -0.00634 0.68667 0.0
H1212 H 0.35535 0.0562 0.54713 0.0
H1213 H 0.33044 0.03311 0.59742 0.0
H1214 H 0.27013 0.9659 0.55815 0.0
C1215 C 0.27224 0.9285 0.67279 0.0
C1216 C 0.28074 -0.01268 0.65882 0.0
C1217 C 0.27386 0.91526 0.70114 0.0
C1218 C 0.3373 0.04361 0.54154 0.0
C1219 C 0.32286 0.03059 0.5705 0.0
C1220 C 0.27268 0.97227 0.58606 0.0
C1221 C 0.26654 0.94609 0.68014 0.0
C1222 C 0.26953 0.96312 0.65099 0.0
C1223 C 0.29956 0.01334 0.56425 0.0
C1224 C 0.2859 -0.00355 0.59381 0.0
H1225 H 0.25962 0.93942 0.77253 0.0
H1226 H 0.25623 0.96219 0.72281 0.0
H1227 H 0.25539 0.93728 0.60743 0.0
H1228 H 0.29818 0.02005 0.47215 0.0
H1229 H 0.27274 -0.00234 0.52297 0.0
C1230 C 0.33343 0.29362 1.02512 0.0
C1231 C 0.32579 0.28895 1.06164 0.0
C1232 C 0.31776 0.28965 0.99712 0.0
C1233 C 0.28156 0.27706 0.93947 0.0
H1234 H 0.24374 0.30506 0.96398 0.0
C1235 C 0.25363 0.31679 0.82665 0.0
C1236 C 0.26015 0.34026 0.83456 0.0
C1237 C 0.25146 0.30142 0.85474 0.0
C1238 C 0.25402 0.29699 0.95666 0.0
H1239 H 0.29543 0.27485 1.0972 0.0
H1240 H 0.26791 0.26743 1.04808 0.0
H1241 H 0.26084 0.29368 1.01262 0.0
H1242 H 0.26709 0.36532 0.8782 0.0
H1243 H 0.26416 0.33901 0.92688 0.0
H1244 H 0.27676 0.2826 0.88354 0.0
C1245 C 0.28612 0.27455 1.0412 0.0
C1246 C 0.26361 0.29016 0.98461 0.0
C1247 C 0.30186 0.27863 1.0693 0.0
C1248 C 0.26251 0.34747 0.87124 0.0
C1249 C 0.26046 0.33219 0.89923 0.0
C1250 C 0.27222 0.28415 0.91153 0.0
C1251 C 0.29401 0.28077 1.00494 0.0
C1252 C 0.2786 0.28139 0.97626 0.0
C1253 C 0.25584 0.30928 0.89121 0.0
C1254 C 0.25947 0.29546 0.91987 0.0
H1255 H 0.35171 0.30118 1.0183 0.0
H1256 H 0.32458 0.29493 0.96964 0.0
H1257 H 0.29251 0.26974 0.93215 0.0
H1258 H 0.25166 0.3107 0.79861 0.0
H1259 H 0.24752 0.28377 0.84769 0.0
C1260 C 0.90804 0.27157 0.17414 0.0
C1261 C 0.89245 0.27979 0.18109 0.0
C1262 C 0.92109 0.26983 0.20254 0.0
C1263 C 0.9292 0.27543 0.30409 0.0
H1264 H -0.00534 0.30752 0.27789 0.0
C1265 C -0.00152 0.31692 0.41515 0.0
C1266 C 0.01486 0.34056 0.40774 0.0
C1267 C -0.01525 0.30202 0.38711 0.0
C1268 C -0.02356 0.2984 0.28568 0.0
H1269 H 0.87672 0.29051 0.22364 0.0
H1270 H 0.89991 0.28833 0.27278 0.0
H1271 H -0.03436 0.29366 0.22999 0.0
H1272 H 0.03105 0.36655 0.36475 0.0
H1273 H 0.00673 0.34098 0.31622 0.0
H1274 H 0.94007 0.2821 0.35978 0.0
C1275 C 0.90202 0.28294 0.24563 0.0
C1276 C 0.95973 0.29013 0.25817 0.0
C1277 C 0.88893 0.28456 0.21733 0.0
C1278 C 0.01829 0.34854 0.37141 0.0
C1279 C 0.00454 0.33371 0.34347 0.0
C1280 C 0.94592 0.28392 0.33161 0.0
C1281 C 0.91885 0.27635 0.23839 0.0
C1282 C 0.93594 0.27956 0.26707 0.0
C1283 C -0.0129 0.31048 0.35114 0.0
C1284 C -0.03025 0.29651 0.32266 0.0
H1285 H 0.91117 0.26777 0.14648 0.0
H1286 H 0.93364 0.26435 0.19613 0.0
H1287 H 0.911 0.26686 0.31187 0.0
H1288 H -0.00462 0.31026 0.4429 0.0
H1289 H -0.02832 0.28414 0.39385 0.0
C1290 C 0.65891 0.02141 0.73808 0.0
C1291 C 0.65123 0.03746 0.73095 0.0
C1292 C 0.66098 0.00823 0.70965 0.0
C1293 C 0.65722 0.00053 0.60784 0.0
H1294 H 0.6239 0.93425 0.63249 0.0
C1295 C 0.61537 0.93179 0.49497 0.0
C1296 C 0.59177 0.91584 0.50219 0.0
C1297 C 0.63027 0.94496 0.52333 0.0
C1298 C 0.63338 0.95269 0.62513 0.0
H1299 H 0.64183 0.05387 0.68816 0.0
H1300 H 0.64458 0.03046 0.63897 0.0
H1301 H 0.63749 0.96336 0.68107 0.0
H1302 H 0.5658 0.8996 0.54509 0.0
H1303 H 0.59135 0.92301 0.59416 0.0
H1304 H 0.65114 -0.01014 0.55191 0.0
C1305 C 0.6493 0.02809 0.66627 0.0
C1306 C 0.64148 0.96945 0.65304 0.0
C1307 C 0.64735 0.04131 0.69459 0.0
C1308 C 0.58379 0.91209 0.53858 0.0
C1309 C 0.5986 0.9253 0.56684 0.0
C1310 C 0.64888 -0.01623 0.57993 0.0
C1311 C 0.65534 0.01079 0.6736 0.0
C1312 C 0.65245 -0.00644 0.64468 0.0
C1313 C 0.62182 0.94248 0.55942 0.0
C1314 C 0.63581 0.95967 0.5883 0.0
H1315 H 0.66202 0.01802 0.76584 0.0
H1316 H 0.66601 -0.00469 0.71616 0.0
H1317 H 0.66613 0.01897 0.60048 0.0
H1318 H 0.62206 0.9351 0.46719 0.0
H1319 H 0.64814 0.95779 0.51676 0.0
C1320 C 0.62307 0.67571 1.07139 0.0
C1321 C 0.59949 0.66679 1.06294 0.0
C1322 C 0.63929 0.67978 1.04368 0.0
C1323 C 0.66143 0.66392 0.98577 0.0
H1324 H 0.65322 0.6776 0.88575 0.0
C1325 C 0.66226 0.61037 0.86545 0.0
C1326 C 0.66742 0.61987 0.83 0.0
C1327 C 0.66417 0.62444 0.89536 0.0
C1328 C 0.65636 0.6743 0.91354 0.0
H1329 H 0.57476 0.65695 1.01874 0.0
H1330 H 0.60275 0.6633 0.97059 0.0
H1331 H 0.63685 0.68945 0.93564 0.0
H1332 H 0.68092 0.65206 0.79855 0.0
H1333 H 0.68412 0.67671 0.85101 0.0
H1334 H 0.68023 0.64802 0.96357 0.0
C1335 C 0.6089 0.66746 0.99847 0.0
C1336 C 0.64669 0.68085 0.94214 0.0
C1337 C 0.59273 0.66344 1.02612 0.0
C1338 C 0.67635 0.64416 0.82549 0.0
C1339 C 0.67825 0.65828 0.8555 0.0
C1340 C 0.67124 0.65753 0.95719 0.0
C1341 C 0.63223 0.67498 1.007 0.0
C1342 C 0.64794 0.67446 0.97834 0.0
C1343 C 0.67128 0.64835 0.89054 0.0
C1344 C 0.66759 0.66138 0.92067 0.0
H1345 H 0.62881 0.67842 1.09955 0.0
H1346 H 0.65717 0.68578 1.05109 0.0
H1347 H 0.6628 0.65876 1.01333 0.0
H1348 H 0.65511 0.5917 0.86989 0.0
H1349 H 0.65831 0.61608 0.92182 0.0
C1350 C 0.01529 0.68271 0.17172 0.0
C1351 C 0.03049 0.67407 0.17861 0.0
C1352 C 0.00291 0.68568 0.20041 0.0
C1353 C -0.00392 0.68259 0.30247 0.0
H1354 H 0.93034 0.6506 0.27976 0.0
C1355 C 0.92892 0.6408 0.41716 0.0
C1356 C 0.9127 0.61711 0.40993 0.0
C1357 C 0.94185 0.65598 0.38866 0.0
C1358 C 0.94865 0.65972 0.28659 0.0
H1359 H 0.04629 0.66392 0.22116 0.0
H1360 H 0.02426 0.66821 0.27084 0.0
H1361 H 0.95874 0.66364 0.23035 0.0
H1362 H 0.89575 0.59135 0.36696 0.0
H1363 H 0.91875 0.61735 0.31762 0.0
H1364 H -0.01407 0.67656 0.35869 0.0
C1365 C 0.02195 0.673 0.24353 0.0
C1366 C -0.03499 0.66752 0.25819 0.0
C1367 C 0.03436 0.67016 0.21494 0.0
C1368 C 0.90847 0.60938 0.37346 0.0
C1369 C 0.92144 0.62447 0.34507 0.0
C1370 C -0.02028 0.67451 0.33087 0.0
C1371 C 0.00545 0.67999 0.2365 0.0
C1372 C -0.01113 0.6779 0.26584 0.0
C1373 C 0.93886 0.64774 0.35242 0.0
C1374 C 0.95578 0.66185 0.32319 0.0
H1375 H 0.01192 0.68588 0.14398 0.0
H1376 H -0.00939 0.69142 0.19412 0.0
H1377 H 0.01437 0.69109 0.30929 0.0
H1378 H 0.9326 0.64731 0.44499 0.0
H1379 H 0.95487 0.67389 0.39521 0.0
C1380 C 0.50285 0.10178 0.47567 0.0
C1381 C 0.47926 0.09456 0.46842 0.0
C1382 C 0.51096 0.10104 0.51119 0.0
C1383 C 0.49259 0.08921 0.6135 0.0
H1384 H 0.55224 0.09252 0.62248 0.0
C1385 C 0.53143 0.09329 0.76028 0.0
C1386 C 0.54923 0.08781 0.76667 0.0
C1387 C 0.52351 0.09416 0.72471 0.0
C1388 C 0.53542 0.09134 0.62123 0.0
H1389 H 0.44598 0.08116 0.49575 0.0
H1390 H 0.45958 0.07899 0.5569 0.0
H1391 H 0.53729 0.09297 0.56262 0.0
H1392 H 0.57262 0.07919 0.73786 0.0
H1393 H 0.55854 0.07988 0.67625 0.0
H1394 H 0.49009 0.08621 0.67194 0.0
C1395 C 0.47231 0.08579 0.53502 0.0
C1396 C 0.52674 0.09201 0.58593 0.0
C1397 C 0.46423 0.08693 0.49927 0.0
C1398 C 0.559 0.08358 0.73496 0.0
C1399 C 0.55074 0.08405 0.69903 0.0
C1400 C 0.50112 0.08823 0.64874 0.0
C1401 C 0.49598 0.09264 0.54212 0.0
C1402 C 0.50512 0.09124 0.58078 0.0
C1403 C 0.53253 0.0892 0.69275 0.0
C1404 C 0.52298 0.08954 0.65395 0.0
H1405 H 0.51544 0.10801 0.45347 0.0
H1406 H 0.52933 0.10731 0.51394 0.0
H1407 H 0.47602 0.0886 0.61235 0.0
H1408 H 0.52328 0.09696 0.78321 0.0
H1409 H 0.51019 0.09898 0.72276 0.0
C1410 C 0.35476 0.47869 0.83654 0.0
C1411 C 0.36581 0.49303 0.80565 0.0
C1412 C 0.36377 0.48587 0.87268 0.0
C1413 C 0.41886 0.53128 0.92387 0.0
H1414 H 0.37871 0.51114 1.0092 0.0
C1415 C 0.45486 0.57124 1.07159 0.0
C1416 C 0.44446 0.55735 1.10311 0.0
C1417 C 0.44547 0.56337 1.0359 0.0
C1418 C 0.39049 0.51691 0.98599 0.0
H1419 H 0.39539 0.52684 0.79075 0.0
H1420 H 0.41029 0.5391 0.85181 0.0
H1421 H 0.36222 0.49727 0.94864 0.0
H1422 H 0.41548 0.52368 1.11987 0.0
H1423 H 0.39965 0.51023 1.05916 0.0
H1424 H 0.44712 0.55092 0.96111 0.0
C1425 C 0.39493 0.522 0.8487 0.0
C1426 C 0.38084 0.50879 0.95063 0.0
C1427 C 0.38601 0.5149 0.81298 0.0
C1428 C 0.4243 0.53525 1.09698 0.0
C1429 C 0.41492 0.52746 1.06155 0.0
C1430 C 0.4285 0.53942 0.95917 0.0
C1431 C 0.3843 0.50771 0.87971 0.0
C1432 C 0.39471 0.51583 0.91844 0.0
C1433 C 0.42513 0.54126 1.02987 0.0
C1434 C 0.41463 0.53254 0.99134 0.0
H1435 H 0.33939 0.46166 0.83279 0.0
H1436 H 0.3548 0.47393 0.89508 0.0
H1437 H 0.4307 0.53699 0.90072 0.0
H1438 H 0.47028 0.58834 1.07443 0.0
H1439 H 0.4541 0.57499 1.01301 0.0
C1440 C 0.83908 0.40033 0.15149 0.0
C1441 C 0.84426 0.38221 0.14433 0.0
C1442 C 0.83954 0.40909 0.18717 0.0
C1443 C 0.84659 0.39938 0.28978 0.0
H1444 H 0.8491 0.45933 0.29939 0.0
C1445 C 0.84224 0.43533 0.43663 0.0
C1446 C 0.8496 0.4593 0.4434 0.0
C1447 C 0.84147 0.42637 0.40099 0.0
C1448 C 0.84862 0.44264 0.298 0.0
H1449 H 0.85378 0.35914 0.17177 0.0
H1450 H 0.8555 0.37472 0.23342 0.0
H1451 H 0.84908 0.44385 0.23944 0.0
H1452 H 0.86169 0.49235 0.41529 0.0
H1453 H 0.86106 0.47726 0.35367 0.0
H1454 H 0.84761 0.39887 0.34834 0.0
C1455 C 0.85049 0.38211 0.2113 0.0
C1456 C 0.84818 0.43326 0.2626 0.0
C1457 C 0.84957 0.37297 0.17533 0.0
C1458 C 0.85573 0.47382 0.41204 0.0
C1459 C 0.85531 0.46488 0.37609 0.0
C1460 C 0.8474 0.40893 0.32519 0.0
C1461 C 0.84567 0.40066 0.21835 0.0
C1462 C 0.84685 0.41115 0.2572 0.0
C1463 C 0.84836 0.44084 0.36943 0.0
C1464 C 0.84816 0.43078 0.33059 0.0
H1465 H 0.83463 0.40809 0.12909 0.0
H1466 H 0.83486 0.4226 0.18983 0.0
H1467 H 0.84552 0.38241 0.2884 0.0
H1468 H 0.83713 0.4231 0.4593 0.0
H1469 H 0.83525 0.40777 0.39865 0.0
C1470 C 0.41714 0.85856 0.47603 0.0
C1471 C 0.44015 0.86342 0.4689 0.0
C1472 C 0.40869 0.85848 0.51184 0.0
C1473 C 0.42401 0.86265 0.6148 0.0
H1474 H 0.36834 0.8673 0.62516 0.0
C1475 C 0.38256 0.85563 0.76166 0.0
C1476 C 0.36675 0.86373 0.76926 0.0
C1477 C 0.39099 0.85553 0.72588 0.0
C1478 C 0.38403 0.86618 0.62358 0.0
H1479 H 0.47203 0.87176 0.49666 0.0
H1480 H 0.45787 0.87241 0.55863 0.0
H1481 H 0.38411 0.8682 0.56505 0.0
H1482 H 0.34731 0.87765 0.74225 0.0
H1483 H 0.3624 0.87841 0.6806 0.0
H1484 H 0.42469 0.862 0.67341 0.0
C1485 C 0.44584 0.86813 0.53629 0.0
C1486 C 0.39314 0.86629 0.58806 0.0
C1487 C 0.45422 0.8678 0.50014 0.0
C1488 C 0.35943 0.87131 0.73849 0.0
C1489 C 0.36822 0.8716 0.70246 0.0
C1490 C 0.41507 0.86286 0.65034 0.0
C1491 C 0.42278 0.86366 0.54329 0.0
C1492 C 0.41331 0.86424 0.58234 0.0
C1493 C 0.38451 0.86389 0.695 0.0
C1494 C 0.3946 0.86435 0.65603 0.0
H1495 H 0.40527 0.85481 0.45351 0.0
H1496 H 0.39075 0.85412 0.5144 0.0
H1497 H 0.43939 0.86096 0.61315 0.0
H1498 H 0.38881 0.84936 0.78378 0.0
H1499 H 0.40267 0.84863 0.72288 0.0
C1500 C 0.56773 0.47967 0.83438 0.0
C1501 C 0.55664 0.4656 0.8034 0.0
C1502 C 0.55877 0.47215 0.87063 0.0
C1503 C 0.50375 0.42615 0.9222 0.0
H1504 H 0.54385 0.44567 1.00666 0.0
C1505 C 0.46783 0.38504 1.06986 0.0
C1506 C 0.47806 0.39892 1.10134 0.0
C1507 C 0.47724 0.39307 1.03407 0.0
C1508 C 0.53209 0.44006 0.98369 0.0
H1509 H 0.52714 0.43182 0.78844 0.0
H1510 H 0.51238 0.419 0.84959 0.0
H1511 H 0.56036 0.46012 0.94601 0.0
H1512 H 0.5068 0.43272 1.11795 0.0
H1513 H 0.52267 0.4464 1.05715 0.0
H1514 H 0.4755 0.40607 0.9598 0.0
C1515 C 0.52767 0.43617 0.84653 0.0
C1516 C 0.54175 0.44853 0.9483 0.0
C1517 C 0.53651 0.44361 0.81073 0.0
C1518 C 0.49811 0.42114 1.0951 0.0
C1519 C 0.50752 0.42907 1.05961 0.0
C1520 C 0.4941 0.41765 0.95754 0.0
C1521 C 0.5383 0.45022 0.87763 0.0
C1522 C 0.52789 0.44173 0.91643 0.0
C1523 C 0.49745 0.41533 1.02796 0.0
C1524 C 0.50797 0.42432 0.98938 0.0
H1525 H 0.58306 0.49676 0.83065 0.0
H1526 H 0.56775 0.48391 0.89313 0.0
H1527 H 0.49192 0.4206 0.89933 0.0
H1528 H 0.45248 0.36787 1.07279 0.0
H1529 H 0.46874 0.38151 1.01115 0.0
C1530 C 0.06865 0.47985 0.41239 0.0
C1531 C 0.06793 0.49219 0.44379 0.0
C1532 C 0.06971 0.48866 0.37617 0.0
C1533 C 0.08106 0.54463 0.3236 0.0
H1534 H 0.05405 0.50202 0.24201 0.0
C1535 C 0.07393 0.57883 0.175 0.0
C1536 C 0.07419 0.5662 0.14365 0.0
C1537 C 0.07336 0.57035 0.2113 0.0
C1538 C 0.06207 0.51451 0.26406 0.0
H1539 H 0.06795 0.52414 0.45957 0.0
H1540 H 0.06956 0.53886 0.39848 0.0
H1541 H 0.05341 0.48654 0.30271 0.0
H1542 H 0.07435 0.53428 0.12817 0.0
H1543 H 0.07381 0.52026 0.18935 0.0
H1544 H 0.08969 0.5726 0.28493 0.0
C1545 C 0.06967 0.52251 0.40112 0.0
C1546 C 0.06167 0.50541 0.29957 0.0
C1547 C 0.06855 0.51376 0.43692 0.0
C1548 C 0.07411 0.54491 0.15072 0.0
C1549 C 0.07353 0.53652 0.18659 0.0
C1550 C 0.08147 0.55373 0.28808 0.0
C1551 C 0.07024 0.51031 0.3695 0.0
C1552 C 0.07113 0.52016 0.33052 0.0
C1553 C 0.07296 0.54878 0.21811 0.0
C1554 C 0.07205 0.53898 0.25712 0.0
H1555 H 0.0681 0.4632 0.41567 0.0
H1556 H 0.0703 0.47842 0.35333 0.0
H1557 H 0.08904 0.55711 0.34566 0.0
H1558 H 0.07374 0.5951 0.17157 0.0
H1559 H 0.07276 0.58062 0.23407 0.0
loop_
_geom_bond_atom_site_label_1
_geom_bond_atom_site_label_2
_geom_bond_distance
_geom_bond_site_symmetry_2
_ccdc_geom_bond_type
Eu0 C9 2.828 . S
Eu0 O11 2.392 . S
Eu0 O13 2.418 . S
Eu0 O18 2.373 . S
Eu0 O21 2.488 . S
Eu0 O22 2.471 . S
Eu0 O23 2.349 . S
Eu1 O10 2.373 . S
Eu1 O14 2.488 . S
Eu1 O15 2.471 . S
Eu1 O16 2.349 . S
Eu1 O19 2.392 . S
Eu1 O20 2.418 . S
Eu1 C30 2.828 . S
C2 O20 1.244 . S
C2 O23 1.265 . S
C3 C4 1.379 . S
C3 C7 1.373 . S
C3 C9 1.505 . S
C4 C3 1.379 . S
C4 C6 1.369 . S
C4 H32 0.930 . S
C5 C7 1.383 . S
C5 C8 1.382 . S
C5 H33 0.930 . S
C6 C4 1.369 . S
C6 C8 1.392 . S
C6 H34 0.930 . S
C7 C3 1.373 . S
C7 C5 1.383 . S
C7 H35 0.931 . S
C8 C5 1.382 . S
C8 C6 1.392 . S
C9 Eu0 2.828 . S
C9 C3 1.505 . S
C9 O21 1.249 . S
C9 O22 1.244 . S
O10 Eu1 2.373 . S
O10 C12 1.258 . S
O11 Eu0 2.392 . S
O11 C12 1.242 . S
C12 O10 1.258 . S
C12 O11 1.242 . S
O13 Eu0 2.418 . S
O13 C17 1.244 . S
O14 Eu1 2.488 . S
O14 C30 1.249 . S
O15 Eu1 2.471 . S
O15 C30 1.244 . S
O16 Eu1 2.349 . S
O16 C17 1.265 . S
C17 O13 1.244 . S
C17 O16 1.265 . S
O18 Eu0 2.373 . S
O18 C31 1.258 . S
O19 Eu1 2.392 . S
O19 C31 1.242 . S
O20 Eu1 2.418 . S
O20 C2 1.244 . S
O21 Eu0 2.488 . S
O21 C9 1.249 . S
O22 Eu0 2.471 . S
O22 C9 1.244 . S
O23 Eu0 2.349 . S
O23 C2 1.265 . S
C24 C25 1.379 . S
C24 C28 1.373 . S
C24 C30 1.505 . S
C25 C24 1.379 . S
C25 C27 1.369 . S
C25 H36 0.930 . S
C26 C28 1.383 . S
C26 C29 1.382 . S
C26 H37 0.930 . S
C27 C25 1.369 . S
C27 C29 1.392 . S
C27 H38 0.930 . S
C28 C24 1.373 . S
C28 C26 1.383 . S
C28 H39 0.931 . S
C29 C26 1.382 . S
C29 C27 1.392 . S
C30 Eu1 2.828 . S
C30 O14 1.249 . S
C30 O15 1.244 . S
C30 C24 1.505 . S
C31 O18 1.258 . S
C31 O19 1.242 . S
H32 C4 0.930 . S
H33 C5 0.930 . S
H34 C6 0.930 . S
H35 C7 0.931 . S
H36 C25 0.930 . S
H37 C26 0.930 . S
H38 C27 0.930 . S
H39 C28 0.931 . S
Eu40 C49 2.828 . S
Eu40 O51 2.392 . S
Eu40 O53 2.418 . S
Eu40 O58 2.373 . S
Eu40 O61 2.488 . S
Eu40 O62 2.471 . S
Eu40 O63 2.349 . S
Eu41 O50 2.373 . S
Eu41 O54 2.488 . S
Eu41 O55 2.471 . S
Eu41 O56 2.349 . S
Eu41 O59 2.392 . S
Eu41 O60 2.418 . S
Eu41 C70 2.828 . S
C42 O60 1.244 . S
C42 O63 1.265 . S
C43 C44 1.379 . S
C43 C47 1.373 . S
C43 C49 1.505 . S
C44 C43 1.379 . S
C44 C46 1.369 . S
C44 H72 0.930 . S
C45 C47 1.383 . S
C45 C48 1.382 . S
C45 H73 0.930 . S
C46 C44 1.369 . S
C46 C48 1.392 . S
C46 H74 0.930 . S
C47 C43 1.373 . S
C47 C45 1.383 . S
C47 H75 0.931 . S
C48 C45 1.382 . S
C48 C46 1.392 . S
C49 Eu40 2.828 . S
C49 C43 1.505 . S
C49 O61 1.249 . S
C49 O62 1.244 . S
O50 Eu41 2.373 . S
O50 C52 1.258 . S
O51 Eu40 2.392 . S
O51 C52 1.242 . S
C52 O50 1.258 . S
C52 O51 1.242 . S
O53 Eu40 2.418 . S
O53 C57 1.244 . S
O54 Eu41 2.488 . S
O54 C70 1.249 . S
O55 Eu41 2.471 . S
O55 C70 1.244 . S
O56 Eu41 2.349 . S
O56 C57 1.265 . S
C57 O53 1.244 . S
C57 O56 1.265 . S
O58 Eu40 2.373 . S
O58 C71 1.258 . S
O59 Eu41 2.392 . S
O59 C71 1.242 . S
O60 Eu41 2.418 . S
O60 C42 1.244 . S
O61 Eu40 2.488 . S
O61 C49 1.249 . S
O62 Eu40 2.471 . S
O62 C49 1.244 . S
O63 Eu40 2.349 . S
O63 C42 1.265 . S
C64 C65 1.379 . S
C64 C68 1.373 . S
C64 C70 1.505 . S
C65 C64 1.379 . S
C65 C67 1.369 . S
C65 H76 0.930 . S
C66 C68 1.383 . S
C66 C69 1.382 . S
C66 H77 0.930 . S
C67 C65 1.369 . S
C67 C69 1.392 . S
C67 H78 0.930 . S
C68 C64 1.373 . S
C68 C66 1.383 . S
C68 H79 0.931 . S
C69 C66 1.382 . S
C69 C67 1.392 . S
C70 Eu41 2.828 . S
C70 O54 1.249 . S
C70 O55 1.244 . S
C70 C64 1.505 . S
C71 O58 1.258 . S
C71 O59 1.242 . S
H72 C44 0.930 . S
H73 C45 0.930 . S
H74 C46 0.930 . S
H75 C47 0.931 . S
H76 C65 0.930 . S
H77 C66 0.930 . S
H78 C67 0.930 . S
H79 C68 0.931 . S
Eu80 C89 2.828 . S
Eu80 O91 2.392 . S
Eu80 O93 2.418 . S
Eu80 O98 2.373 . S
Eu80 O101 2.488 . S
Eu80 O102 2.471 . S
Eu80 O103 2.349 . S
Eu81 O90 2.373 . S
Eu81 O94 2.488 . S
Eu81 O95 2.471 . S
Eu81 O96 2.349 . S
Eu81 O99 2.392 . S
Eu81 O100 2.418 . S
Eu81 C110 2.828 . S
C82 O100 1.244 . S
C82 O103 1.265 . S
C83 C84 1.379 . S
C83 C87 1.373 . S
C83 C89 1.505 1_554 S
C84 C83 1.379 . S
C84 C86 1.369 . S
C84 H112 0.930 . S
C85 C87 1.383 . S
C85 C88 1.382 . S
C85 H113 0.930 . S
C86 C84 1.369 . S
C86 C88 1.392 . S
C86 H114 0.930 . S
C87 C83 1.373 . S
C87 C85 1.383 . S
C87 H115 0.931 . S
C88 C85 1.382 . S
C88 C86 1.392 . S
C89 Eu80 2.828 . S
C89 C83 1.505 1_556 S
C89 O101 1.249 . S
C89 O102 1.244 . S
O90 Eu81 2.373 . S
O90 C92 1.258 . S
O91 Eu80 2.392 . S
O91 C92 1.242 . S
C92 O90 1.258 . S
C92 O91 1.242 . S
O93 Eu80 2.418 . S
O93 C97 1.244 . S
O94 Eu81 2.488 . S
O94 C110 1.249 . S
O95 Eu81 2.471 . S
O95 C110 1.244 . S
O96 Eu81 2.349 . S
O96 C97 1.265 . S
C97 O93 1.244 . S
C97 O96 1.265 . S
O98 Eu80 2.373 . S
O98 C111 1.258 . S
O99 Eu81 2.392 . S
O99 C111 1.242 . S
O100 Eu81 2.418 . S
O100 C82 1.244 . S
O101 Eu80 2.488 . S
O101 C89 1.249 . S
O102 Eu80 2.471 . S
O102 C89 1.244 . S
O103 Eu80 2.349 . S
O103 C82 1.265 . S
C104 C105 1.379 . S
C104 C108 1.373 . S
C104 C110 1.505 . S
C105 C104 1.379 . S
C105 C107 1.369 . S
C105 H116 0.930 . S
C106 C108 1.383 . S
C106 C109 1.382 . S
C106 H117 0.930 . S
C107 C105 1.369 . S
C107 C109 1.392 . S
C107 H118 0.930 . S
C108 C104 1.373 . S
C108 C106 1.383 . S
C108 H119 0.931 . S
C109 C106 1.382 . S
C109 C107 1.392 . S
C110 Eu81 2.828 . S
C110 O94 1.249 . S
C110 O95 1.244 . S
C110 C104 1.505 . S
C111 O98 1.258 . S
C111 O99 1.242 . S
H112 C84 0.930 . S
H113 C85 0.930 . S
H114 C86 0.930 . S
H115 C87 0.931 . S
H116 C105 0.930 . S
H117 C106 0.930 . S
H118 C107 0.930 . S
H119 C108 0.931 . S
Eu120 C129 2.828 . S
Eu120 O131 2.392 . S
Eu120 O133 2.418 . S
Eu120 O138 2.373 . S
Eu120 O141 2.488 . S
Eu120 O142 2.471 . S
Eu120 O143 2.349 . S
Eu121 O130 2.373 . S
Eu121 O134 2.488 . S
Eu121 O135 2.471 . S
Eu121 O136 2.349 . S
Eu121 O139 2.392 . S
Eu121 O140 2.418 . S
Eu121 C150 2.828 . S
C122 O140 1.244 . S
C122 O143 1.265 . S
C123 C124 1.379 . S
C123 C127 1.373 . S
C123 C129 1.505 . S
C124 C123 1.379 . S
C124 C126 1.369 . S
C124 H152 0.930 . S
C125 C127 1.383 . S
C125 C128 1.382 . S
C125 H153 0.930 . S
C126 C124 1.369 . S
C126 C128 1.392 . S
C126 H154 0.930 . S
C127 C123 1.373 . S
C127 C125 1.383 . S
C127 H155 0.931 . S
C128 C125 1.382 . S
C128 C126 1.392 . S
C129 Eu120 2.828 . S
C129 C123 1.505 . S
C129 O141 1.249 . S
C129 O142 1.244 . S
O130 Eu121 2.373 . S
O130 C132 1.258 . S
O131 Eu120 2.392 . S
O131 C132 1.242 . S
C132 O130 1.258 . S
C132 O131 1.242 . S
O133 Eu120 2.418 . S
O133 C137 1.244 . S
O134 Eu121 2.488 . S
O134 C150 1.249 . S
O135 Eu121 2.471 . S
O135 C150 1.244 . S
O136 Eu121 2.349 . S
O136 C137 1.265 . S
C137 O133 1.244 . S
C137 O136 1.265 . S
O138 Eu120 2.373 . S
O138 C151 1.258 . S
O139 Eu121 2.392 . S
O139 C151 1.242 . S
O140 Eu121 2.418 . S
O140 C122 1.244 . S
O141 Eu120 2.488 . S
O141 C129 1.249 . S
O142 Eu120 2.471 . S
O142 C129 1.244 . S
O143 Eu120 2.349 . S
O143 C122 1.265 . S
C144 C145 1.379 . S
C144 C148 1.373 . S
C144 C150 1.505 . S
C145 C144 1.379 . S
C145 C147 1.369 . S
C145 H156 0.930 . S
C146 C148 1.383 . S
C146 C149 1.382 . S
C146 H157 0.930 . S
C147 C145 1.369 . S
C147 C149 1.392 . S
C147 H158 0.930 . S
C148 C144 1.373 . S
C148 C146 1.383 . S
C148 H159 0.931 . S
C149 C146 1.382 . S
C149 C147 1.392 . S
C150 Eu121 2.828 . S
C150 O134 1.249 . S
C150 O135 1.244 . S
C150 C144 1.505 . S
C151 O138 1.258 . S
C151 O139 1.242 . S
H152 C124 0.930 . S
H153 C125 0.930 . S
H154 C126 0.930 . S
H155 C127 0.931 . S
H156 C145 0.930 . S
H157 C146 0.930 . S
H158 C147 0.930 . S
H159 C148 0.931 . S
Eu160 C169 2.828 . S
Eu160 O171 2.392 . S
Eu160 O173 2.418 . S
Eu160 O178 2.373 . S
Eu160 O181 2.488 . S
Eu160 O182 2.471 . S
Eu160 O183 2.349 . S
Eu161 O170 2.373 . S
Eu161 O174 2.488 . S
Eu161 O175 2.471 . S
Eu161 O176 2.349 . S
Eu161 O179 2.392 . S
Eu161 O180 2.418 . S
Eu161 C190 2.828 . S
C162 O180 1.244 . S
C162 O183 1.265 . S
C163 C164 1.379 . S
C163 C167 1.373 . S
C163 C169 1.505 . S
C164 C163 1.379 . S
C164 C166 1.369 . S
C164 H192 0.930 . S
C165 C167 1.383 . S
C165 C168 1.382 . S
C165 H193 0.930 . S
C166 C164 1.369 . S
C166 C168 1.392 . S
C166 H194 0.930 . S
C167 C163 1.373 . S
C167 C165 1.383 . S
C167 H195 0.931 . S
C168 C165 1.382 . S
C168 C166 1.392 . S
C169 Eu160 2.828 . S
C169 C163 1.505 . S
C169 O181 1.249 . S
C169 O182 1.244 . S
O170 Eu161 2.373 . S
O170 C172 1.258 . S
O171 Eu160 2.392 . S
O171 C172 1.242 . S
C172 O170 1.258 . S
C172 O171 1.242 . S
O173 Eu160 2.418 . S
O173 C177 1.244 . S
O174 Eu161 2.488 . S
O174 C190 1.249 . S
O175 Eu161 2.471 . S
O175 C190 1.244 . S
O176 Eu161 2.349 . S
O176 C177 1.265 . S
C177 O173 1.244 . S
C177 O176 1.265 . S
O178 Eu160 2.373 . S
O178 C191 1.258 . S
O179 Eu161 2.392 . S
O179 C191 1.242 . S
O180 Eu161 2.418 . S
O180 C162 1.244 . S
O181 Eu160 2.488 . S
O181 C169 1.249 . S
O182 Eu160 2.471 . S
O182 C169 1.244 . S
O183 Eu160 2.349 . S
O183 C162 1.265 . S
C184 C185 1.379 . S
C184 C188 1.373 . S
C184 C190 1.505 . S
C185 C184 1.379 . S
C185 C187 1.369 . S
C185 H196 0.930 . S
C186 C188 1.383 . S
C186 C189 1.382 . S
C186 H197 0.930 . S
C187 C185 1.369 . S
C187 C189 1.392 . S
C187 H198 0.930 . S
C188 C184 1.373 . S
C188 C186 1.383 . S
C188 H199 0.931 . S
C189 C186 1.382 . S
C189 C187 1.392 . S
C190 Eu161 2.828 . S
C190 O174 1.249 . S
C190 O175 1.244 . S
C190 C184 1.505 . S
C191 O178 1.258 . S
C191 O179 1.242 . S
H192 C164 0.930 . S
H193 C165 0.930 . S
H194 C166 0.930 . S
H195 C167 0.931 . S
H196 C185 0.930 . S
H197 C186 0.930 . S
H198 C187 0.930 . S
H199 C188 0.931 . S
Eu200 C209 2.828 . S
Eu200 O211 2.392 . S
Eu200 O213 2.418 . S
Eu200 O218 2.373 . S
Eu200 O221 2.488 . S
Eu200 O222 2.471 . S
Eu200 O223 2.349 . S
Eu201 O210 2.373 . S
Eu201 O214 2.488 . S
Eu201 O215 2.471 . S
Eu201 O216 2.349 . S
Eu201 O219 2.392 . S
Eu201 O220 2.418 . S
Eu201 C230 2.828 . S
C202 O220 1.244 . S
C202 O223 1.265 . S
C203 C204 1.379 . S
C203 C207 1.373 . S
C203 C209 1.505 1_554 S
C204 C203 1.379 . S
C204 C206 1.369 . S
C204 H232 0.930 . S
C205 C207 1.383 . S
C205 C208 1.382 . S
C205 H233 0.930 . S
C206 C204 1.369 . S
C206 C208 1.392 . S
C206 H234 0.930 . S
C207 C203 1.373 . S
C207 C205 1.383 . S
C207 H235 0.931 . S
C208 C205 1.382 . S
C208 C206 1.392 . S
C209 Eu200 2.828 . S
C209 C203 1.505 1_556 S
C209 O221 1.249 . S
C209 O222 1.244 . S
O210 Eu201 2.373 . S
O210 C212 1.258 . S
O211 Eu200 2.392 . S
O211 C212 1.242 . S
C212 O210 1.258 . S
C212 O211 1.242 . S
O213 Eu200 2.418 . S
O213 C217 1.244 . S
O214 Eu201 2.488 . S
O214 C230 1.249 . S
O215 Eu201 2.471 . S
O215 C230 1.244 . S
O216 Eu201 2.349 . S
O216 C217 1.265 . S
C217 O213 1.244 . S
C217 O216 1.265 . S
O218 Eu200 2.373 . S
O218 C231 1.258 . S
O219 Eu201 2.392 . S
O219 C231 1.242 . S
O220 Eu201 2.418 . S
O220 C202 1.244 . S
O221 Eu200 2.488 . S
O221 C209 1.249 . S
O222 Eu200 2.471 . S
O222 C209 1.244 . S
O223 Eu200 2.349 . S
O223 C202 1.265 . S
C224 C225 1.379 . S
C224 C228 1.373 . S
C224 C230 1.505 . S
C225 C224 1.379 . S
C225 C227 1.369 . S
C225 H236 0.930 . S
C226 C228 1.383 . S
C226 C229 1.382 . S
C226 H237 0.930 . S
C227 C225 1.369 . S
C227 C229 1.392 . S
C227 H238 0.930 . S
C228 C224 1.373 . S
C228 C226 1.383 . S
C228 H239 0.931 . S
C229 C226 1.382 . S
C229 C227 1.392 . S
C230 Eu201 2.828 . S
C230 O214 1.249 . S
C230 O215 1.244 . S
C230 C224 1.505 . S
C231 O218 1.258 . S
C231 O219 1.242 . S
H232 C204 0.930 . S
H233 C205 0.930 . S
H234 C206 0.930 . S
H235 C207 0.931 . S
H236 C225 0.930 . S
H237 C226 0.930 . S
H238 C227 0.930 . S
H239 C228 0.931 . S
Eu240 C249 2.828 . S
Eu240 O251 2.392 . S
Eu240 O253 2.418 . S
Eu240 O258 2.373 . S
Eu240 O261 2.488 . S
Eu240 O262 2.471 . S
Eu240 O263 2.349 . S
Eu241 O250 2.373 . S
Eu241 O254 2.488 . S
Eu241 O255 2.471 . S
Eu241 O256 2.349 . S
Eu241 O259 2.392 . S
Eu241 O260 2.418 . S
Eu241 C270 2.828 . S
C242 O260 1.244 . S
C242 O263 1.265 . S
C243 C244 1.379 . S
C243 C247 1.373 . S
C243 C249 1.505 . S
C244 C243 1.379 . S
C244 C246 1.369 . S
C244 H272 0.930 . S
C245 C247 1.383 . S
C245 C248 1.382 . S
C245 H273 0.930 . S
C246 C244 1.369 . S
C246 C248 1.392 . S
C246 H274 0.930 . S
C247 C243 1.373 . S
C247 C245 1.383 . S
C247 H275 0.931 . S
C248 C245 1.382 . S
C248 C246 1.392 . S
C249 Eu240 2.828 . S
C249 C243 1.505 . S
C249 O261 1.249 . S
C249 O262 1.244 . S
O250 Eu241 2.373 . S
O250 C252 1.258 . S
O251 Eu240 2.392 . S
O251 C252 1.242 . S
C252 O250 1.258 . S
C252 O251 1.242 . S
O253 Eu240 2.418 . S
O253 C257 1.244 . S
O254 Eu241 2.488 . S
O254 C270 1.249 . S
O255 Eu241 2.471 . S
O255 C270 1.244 . S
O256 Eu241 2.349 . S
O256 C257 1.265 . S
C257 O253 1.244 . S
C257 O256 1.265 . S
O258 Eu240 2.373 . S
O258 C271 1.258 . S
O259 Eu241 2.392 . S
O259 C271 1.242 . S
O260 Eu241 2.418 . S
O260 C242 1.244 . S
O261 Eu240 2.488 . S
O261 C249 1.249 . S
O262 Eu240 2.471 . S
O262 C249 1.244 . S
O263 Eu240 2.349 . S
O263 C242 1.265 . S
C264 C265 1.379 . S
C264 C268 1.373 . S
C264 C270 1.505 . S
C265 C264 1.379 . S
C265 C267 1.369 . S
C265 H276 0.930 . S
C266 C268 1.383 . S
C266 C269 1.382 . S
C266 H277 0.930 . S
C267 C265 1.369 . S
C267 C269 1.392 . S
C267 H278 0.930 . S
C268 C264 1.373 . S
C268 C266 1.383 . S
C268 H279 0.931 . S
C269 C266 1.382 . S
C269 C267 1.392 . S
C270 Eu241 2.828 . S
C270 O254 1.249 . S
C270 O255 1.244 . S
C270 C264 1.505 . S
C271 O258 1.258 . S
C271 O259 1.242 . S
H272 C244 0.930 . S
H273 C245 0.930 . S
H274 C246 0.930 . S
H275 C247 0.931 . S
H276 C265 0.930 . S
H277 C266 0.930 . S
H278 C267 0.930 . S
H279 C268 0.931 . S
Eu280 C289 2.828 . S
Eu280 O291 2.392 . S
Eu280 O293 2.418 . S
Eu280 O298 2.373 . S
Eu280 O301 2.488 . S
Eu280 O302 2.471 . S
Eu280 O303 2.349 . S
Eu281 O290 2.373 . S
Eu281 O294 2.488 . S
Eu281 O295 2.471 . S
Eu281 O296 2.349 . S
Eu281 O299 2.392 . S
Eu281 O300 2.418 . S
Eu281 C310 2.828 . S
C282 O300 1.244 . S
C282 O303 1.265 . S
C283 C284 1.379 . S
C283 C287 1.373 . S
C283 C289 1.505 . S
C284 C283 1.379 . S
C284 C286 1.369 . S
C284 H312 0.930 . S
C285 C287 1.383 . S
C285 C288 1.382 . S
C285 H313 0.930 . S
C286 C284 1.369 . S
C286 C288 1.392 . S
C286 H314 0.930 . S
C287 C283 1.373 . S
C287 C285 1.383 . S
C287 H315 0.931 . S
C288 C285 1.382 . S
C288 C286 1.392 . S
C289 Eu280 2.828 . S
C289 C283 1.505 . S
C289 O301 1.249 . S
C289 O302 1.244 . S
O290 Eu281 2.373 . S
O290 C292 1.258 . S
O291 Eu280 2.392 . S
O291 C292 1.242 . S
C292 O290 1.258 . S
C292 O291 1.242 . S
O293 Eu280 2.418 . S
O293 C297 1.244 . S
O294 Eu281 2.488 . S
O294 C310 1.249 . S
O295 Eu281 2.471 . S
O295 C310 1.244 . S
O296 Eu281 2.349 . S
O296 C297 1.265 . S
C297 O293 1.244 . S
C297 O296 1.265 . S
O298 Eu280 2.373 . S
O298 C311 1.258 . S
O299 Eu281 2.392 . S
O299 C311 1.242 . S
O300 Eu281 2.418 . S
O300 C282 1.244 . S
O301 Eu280 2.488 . S
O301 C289 1.249 . S
O302 Eu280 2.471 . S
O302 C289 1.244 . S
O303 Eu280 2.349 . S
O303 C282 1.265 . S
C304 C305 1.379 . S
C304 C308 1.373 . S
C304 C310 1.505 . S
C305 C304 1.379 . S
C305 C307 1.369 . S
C305 H316 0.930 . S
C306 C308 1.383 . S
C306 C309 1.382 . S
C306 H317 0.930 . S
C307 C305 1.369 . S
C307 C309 1.392 . S
C307 H318 0.930 . S
C308 C304 1.373 . S
C308 C306 1.383 . S
C308 H319 0.931 . S
C309 C306 1.382 . S
C309 C307 1.392 . S
C310 Eu281 2.828 . S
C310 O294 1.249 . S
C310 O295 1.244 . S
C310 C304 1.505 . S
C311 O298 1.258 . S
C311 O299 1.242 . S
H312 C284 0.930 . S
H313 C285 0.930 . S
H314 C286 0.930 . S
H315 C287 0.931 . S
H316 C305 0.930 . S
H317 C306 0.930 . S
H318 C307 0.930 . S
H319 C308 0.931 . S
Eu320 C329 2.828 . S
Eu320 O331 2.392 . S
Eu320 O333 2.418 . S
Eu320 O338 2.373 . S
Eu320 O341 2.488 . S
Eu320 O342 2.471 . S
Eu320 O343 2.349 . S
Eu321 O330 2.373 . S
Eu321 O334 2.488 . S
Eu321 O335 2.471 . S
Eu321 O336 2.349 . S
Eu321 O339 2.392 . S
Eu321 O340 2.418 . S
Eu321 C350 2.828 . S
C322 O340 1.244 . S
C322 O343 1.265 . S
C323 C324 1.379 . S
C323 C327 1.373 . S
C323 C329 1.505 1_556 S
C324 C323 1.379 . S
C324 C326 1.369 . S
C324 H352 0.930 . S
C325 C327 1.383 . S
C325 C328 1.382 . S
C325 H353 0.930 . S
C326 C324 1.369 . S
C326 C328 1.392 . S
C326 H354 0.930 . S
C327 C323 1.373 . S
C327 C325 1.383 . S
C327 H355 0.931 . S
C328 C325 1.382 . S
C328 C326 1.392 . S
C329 Eu320 2.828 . S
C329 C323 1.505 1_554 S
C329 O341 1.249 . S
C329 O342 1.244 . S
O330 Eu321 2.373 . S
O330 C332 1.258 . S
O331 Eu320 2.392 . S
O331 C332 1.242 . S
C332 O330 1.258 . S
C332 O331 1.242 . S
O333 Eu320 2.418 . S
O333 C337 1.244 . S
O334 Eu321 2.488 . S
O334 C350 1.249 . S
O335 Eu321 2.471 . S
O335 C350 1.244 . S
O336 Eu321 2.349 . S
O336 C337 1.265 . S
C337 O333 1.244 . S
C337 O336 1.265 . S
O338 Eu320 2.373 . S
O338 C351 1.258 . S
O339 Eu321 2.392 . S
O339 C351 1.242 . S
O340 Eu321 2.418 . S
O340 C322 1.244 . S
O341 Eu320 2.488 . S
O341 C329 1.249 . S
O342 Eu320 2.471 . S
O342 C329 1.244 . S
O343 Eu320 2.349 . S
O343 C322 1.265 . S
C344 C345 1.379 . S
C344 C348 1.373 . S
C344 C350 1.505 . S
C345 C344 1.379 . S
C345 C347 1.369 . S
C345 H356 0.930 . S
C346 C348 1.383 . S
C346 C349 1.382 . S
C346 H357 0.930 . S
C347 C345 1.369 . S
C347 C349 1.392 . S
C347 H358 0.930 . S
C348 C344 1.373 . S
C348 C346 1.383 . S
C348 H359 0.931 . S
C349 C346 1.382 . S
C349 C347 1.392 . S
C350 Eu321 2.828 . S
C350 O334 1.249 . S
C350 O335 1.244 . S
C350 C344 1.505 . S
C351 O338 1.258 . S
C351 O339 1.242 . S
H352 C324 0.930 . S
H353 C325 0.930 . S
H354 C326 0.930 . S
H355 C327 0.931 . S
H356 C345 0.930 . S
H357 C346 0.930 . S
H358 C347 0.930 . S
H359 C348 0.931 . S
Eu360 C369 2.828 . S
Eu360 O371 2.392 . S
Eu360 O373 2.418 . S
Eu360 O378 2.373 . S
Eu360 O381 2.488 . S
Eu360 O382 2.471 . S
Eu360 O383 2.349 . S
Eu361 O370 2.373 . S
Eu361 O374 2.488 . S
Eu361 O375 2.471 . S
Eu361 O376 2.349 . S
Eu361 O379 2.392 . S
Eu361 O380 2.418 . S
Eu361 C390 2.828 . S
C362 O380 1.244 . S
C362 O383 1.265 . S
C363 C364 1.379 . S
C363 C367 1.373 . S
C363 C369 1.505 . S
C364 C363 1.379 . S
C364 C366 1.369 . S
C364 H392 0.930 . S
C365 C367 1.383 . S
C365 C368 1.382 . S
C365 H393 0.930 . S
C366 C364 1.369 . S
C366 C368 1.392 . S
C366 H394 0.930 . S
C367 C363 1.373 . S
C367 C365 1.383 . S
C367 H395 0.931 . S
C368 C365 1.382 . S
C368 C366 1.392 . S
C369 Eu360 2.828 . S
C369 C363 1.505 . S
C369 O381 1.249 . S
C369 O382 1.244 . S
O370 Eu361 2.373 . S
O370 C372 1.258 . S
O371 Eu360 2.392 . S
O371 C372 1.242 . S
C372 O370 1.258 . S
C372 O371 1.242 . S
O373 Eu360 2.418 . S
O373 C377 1.244 . S
O374 Eu361 2.488 . S
O374 C390 1.249 . S
O375 Eu361 2.471 . S
O375 C390 1.244 . S
O376 Eu361 2.349 . S
O376 C377 1.265 . S
C377 O373 1.244 . S
C377 O376 1.265 . S
O378 Eu360 2.373 . S
O378 C391 1.258 . S
O379 Eu361 2.392 . S
O379 C391 1.242 . S
O380 Eu361 2.418 . S
O380 C362 1.244 . S
O381 Eu360 2.488 . S
O381 C369 1.249 . S
O382 Eu360 2.471 . S
O382 C369 1.244 . S
O383 Eu360 2.349 . S
O383 C362 1.265 . S
C384 C385 1.379 . S
C384 C388 1.373 . S
C384 C390 1.505 . S
C385 C384 1.379 . S
C385 C387 1.369 . S
C385 H396 0.930 . S
C386 C388 1.383 . S
C386 C389 1.382 . S
C386 H397 0.930 . S
C387 C385 1.369 . S
C387 C389 1.392 . S
C387 H398 0.930 . S
C388 C384 1.373 . S
C388 C386 1.383 . S
C388 H399 0.931 . S
C389 C386 1.382 . S
C389 C387 1.392 . S
C390 Eu361 2.828 . S
C390 O374 1.249 . S
C390 O375 1.244 . S
C390 C384 1.505 . S
C391 O378 1.258 . S
C391 O379 1.242 . S
H392 C364 0.930 . S
H393 C365 0.930 . S
H394 C366 0.930 . S
H395 C367 0.931 . S
H396 C385 0.930 . S
H397 C386 0.930 . S
H398 C387 0.930 . S
H399 C388 0.931 . S
Eu400 C409 2.828 . S
Eu400 O411 2.392 . S
Eu400 O413 2.418 . S
Eu400 O418 2.373 . S
Eu400 O421 2.488 . S
Eu400 O422 2.471 . S
Eu400 O423 2.349 . S
Eu401 O410 2.373 . S
Eu401 O414 2.488 . S
Eu401 O415 2.471 . S
Eu401 O416 2.349 . S
Eu401 O419 2.392 . S
Eu401 O420 2.418 . S
Eu401 C430 2.828 . S
C402 O420 1.244 . S
C402 O423 1.265 . S
C403 C404 1.379 . S
C403 C407 1.373 . S
C403 C409 1.505 . S
C404 C403 1.379 . S
C404 C406 1.369 . S
C404 H432 0.930 . S
C405 C407 1.383 . S
C405 C408 1.382 . S
C405 H433 0.930 . S
C406 C404 1.369 . S
C406 C408 1.392 . S
C406 H434 0.930 . S
C407 C403 1.373 . S
C407 C405 1.383 . S
C407 H435 0.931 . S
C408 C405 1.382 . S
C408 C406 1.392 . S
C409 Eu400 2.828 . S
C409 C403 1.505 . S
C409 O421 1.249 . S
C409 O422 1.244 . S
O410 Eu401 2.373 . S
O410 C412 1.258 . S
O411 Eu400 2.392 . S
O411 C412 1.242 . S
C412 O410 1.258 . S
C412 O411 1.242 . S
O413 Eu400 2.418 . S
O413 C417 1.244 . S
O414 Eu401 2.488 . S
O414 C430 1.249 . S
O415 Eu401 2.471 . S
O415 C430 1.244 . S
O416 Eu401 2.349 . S
O416 C417 1.265 . S
C417 O413 1.244 . S
C417 O416 1.265 . S
O418 Eu400 2.373 . S
O418 C431 1.258 . S
O419 Eu401 2.392 . S
O419 C431 1.242 . S
O420 Eu401 2.418 . S
O420 C402 1.244 . S
O421 Eu400 2.488 . S
O421 C409 1.249 . S
O422 Eu400 2.471 . S
O422 C409 1.244 . S
O423 Eu400 2.349 . S
O423 C402 1.265 . S
C424 C425 1.379 . S
C424 C428 1.373 . S
C424 C430 1.505 . S
C425 C424 1.379 . S
C425 C427 1.369 . S
C425 H436 0.930 . S
C426 C428 1.383 . S
C426 C429 1.382 . S
C426 H437 0.930 . S
C427 C425 1.369 . S
C427 C429 1.392 . S
C427 H438 0.930 . S
C428 C424 1.373 . S
C428 C426 1.383 . S
C428 H439 0.931 . S
C429 C426 1.382 . S
C429 C427 1.392 . S
C430 Eu401 2.828 . S
C430 O414 1.249 . S
C430 O415 1.244 . S
C430 C424 1.505 . S
C431 O418 1.258 . S
C431 O419 1.242 . S
H432 C404 0.930 . S
H433 C405 0.930 . S
H434 C406 0.930 . S
H435 C407 0.931 . S
H436 C425 0.930 . S
H437 C426 0.930 . S
H438 C427 0.930 . S
H439 C428 0.931 . S
Eu440 C449 2.828 . S
Eu440 O451 2.392 . S
Eu440 O453 2.418 . S
Eu440 O458 2.373 . S
Eu440 O461 2.488 . S
Eu440 O462 2.471 . S
Eu440 O463 2.349 . S
Eu441 O450 2.373 . S
Eu441 O454 2.488 . S
Eu441 O455 2.471 . S
Eu441 O456 2.349 . S
Eu441 O459 2.392 . S
Eu441 O460 2.418 . S
Eu441 C470 2.828 . S
C442 O460 1.244 . S
C442 O463 1.265 . S
C443 C444 1.379 . S
C443 C447 1.373 . S
C443 C449 1.505 1_556 S
C444 C443 1.379 . S
C444 C446 1.369 . S
C444 H472 0.930 . S
C445 C447 1.383 . S
C445 C448 1.382 . S
C445 H473 0.930 . S
C446 C444 1.369 . S
C446 C448 1.392 . S
C446 H474 0.930 . S
C447 C443 1.373 . S
C447 C445 1.383 . S
C447 H475 0.931 . S
C448 C445 1.382 . S
C448 C446 1.392 . S
C449 Eu440 2.828 . S
C449 C443 1.505 1_554 S
C449 O461 1.249 . S
C449 O462 1.244 . S
O450 Eu441 2.373 . S
O450 C452 1.258 . S
O451 Eu440 2.392 . S
O451 C452 1.242 . S
C452 O450 1.258 . S
C452 O451 1.242 . S
O453 Eu440 2.418 . S
O453 C457 1.244 . S
O454 Eu441 2.488 . S
O454 C470 1.249 . S
O455 Eu441 2.471 . S
O455 C470 1.244 . S
O456 Eu441 2.349 . S
O456 C457 1.265 . S
C457 O453 1.244 . S
C457 O456 1.265 . S
O458 Eu440 2.373 . S
O458 C471 1.258 . S
O459 Eu441 2.392 . S
O459 C471 1.242 . S
O460 Eu441 2.418 . S
O460 C442 1.244 . S
O461 Eu440 2.488 . S
O461 C449 1.249 . S
O462 Eu440 2.471 . S
O462 C449 1.244 . S
O463 Eu440 2.349 . S
O463 C442 1.265 . S
C464 C465 1.379 . S
C464 C468 1.373 . S
C464 C470 1.505 . S
C465 C464 1.379 . S
C465 C467 1.369 . S
C465 H476 0.930 . S
C466 C468 1.383 . S
C466 C469 1.382 . S
C466 H477 0.930 . S
C467 C465 1.369 . S
C467 C469 1.392 . S
C467 H478 0.930 . S
C468 C464 1.373 . S
C468 C466 1.383 . S
C468 H479 0.931 . S
C469 C466 1.382 . S
C469 C467 1.392 . S
C470 Eu441 2.828 . S
C470 O454 1.249 . S
C470 O455 1.244 . S
C470 C464 1.505 . S
C471 O458 1.258 . S
C471 O459 1.242 . S
H472 C444 0.930 . S
H473 C445 0.930 . S
H474 C446 0.930 . S
H475 C447 0.931 . S
H476 C465 0.930 . S
H477 C466 0.930 . S
H478 C467 0.930 . S
H479 C468 0.931 . S
C480 C481 1.349 . S
C480 C482 1.327 . S
C480 H505 0.950 . S
C481 C480 1.349 . S
C481 C497 1.349 . S
C482 C480 1.327 . S
C482 C501 1.429 . S
C482 H506 0.950 . S
C483 C500 1.574 . S
C483 C502 1.368 . S
C483 H507 0.949 . S
H484 C488 0.949 . S
C485 C486 1.349 . S
C485 C487 1.327 . S
C485 H508 0.950 . S
C486 C485 1.349 . S
C486 C498 1.349 . S
C487 C485 1.327 . S
C487 C503 1.429 . S
C487 H509 0.950 . S
C488 H484 0.949 . S
C488 C496 1.574 . S
C488 C504 1.368 . S
H489 C497 0.950 . S
H490 C495 0.950 . S
H491 C496 0.949 . S
H492 C498 0.950 . S
H493 C499 0.950 . S
H494 C500 0.949 . S
C495 H490 0.950 . S
C495 C497 1.327 . S
C495 C501 1.429 . S
C496 C488 1.574 . S
C496 H491 0.949 . S
C496 C502 1.368 . S
C497 C481 1.349 . S
C497 H489 0.950 . S
C497 C495 1.327 . S
C498 C486 1.349 . S
C498 H492 0.950 . S
C498 C499 1.327 . S
C499 H493 0.950 . S
C499 C498 1.327 . S
C499 C503 1.429 . S
C500 C483 1.574 . S
C500 H494 0.949 . S
C500 C504 1.368 . S
C501 C482 1.429 . S
C501 C495 1.429 . S
C501 C502 1.523 . S
C502 C483 1.368 . S
C502 C496 1.368 . S
C502 C501 1.523 . S
C503 C487 1.429 . S
C503 C499 1.429 . S
C503 C504 1.523 . S
C504 C488 1.368 . S
C504 C500 1.368 . S
C504 C503 1.523 . S
H505 C480 0.950 . S
H506 C482 0.950 . S
H507 C483 0.949 . S
H508 C485 0.950 . S
H509 C487 0.950 . S
C510 C511 1.349 . S
C510 C512 1.327 . S
C510 H535 0.950 . S
C511 C510 1.349 . S
C511 C527 1.349 . S
C512 C510 1.327 . S
C512 C531 1.429 . S
C512 H536 0.950 . S
C513 C530 1.574 . S
C513 C532 1.368 . S
C513 H537 0.949 . S
H514 C518 0.949 . S
C515 C516 1.349 . S
C515 C517 1.327 . S
C515 H538 0.950 . S
C516 C515 1.349 . S
C516 C528 1.349 . S
C517 C515 1.327 . S
C517 C533 1.429 . S
C517 H539 0.950 . S
C518 H514 0.949 . S
C518 C526 1.574 . S
C518 C534 1.368 . S
H519 C527 0.950 . S
H520 C525 0.950 . S
H521 C526 0.949 . S
H522 C528 0.950 . S
H523 C529 0.950 . S
H524 C530 0.949 . S
C525 H520 0.950 . S
C525 C527 1.327 . S
C525 C531 1.429 . S
C526 C518 1.574 . S
C526 H521 0.949 . S
C526 C532 1.368 . S
C527 C511 1.349 . S
C527 H519 0.950 . S
C527 C525 1.327 . S
C528 C516 1.349 . S
C528 H522 0.950 . S
C528 C529 1.327 . S
C529 H523 0.950 . S
C529 C528 1.327 . S
C529 C533 1.429 . S
C530 C513 1.574 . S
C530 H524 0.949 . S
C530 C534 1.368 . S
C531 C512 1.429 . S
C531 C525 1.429 . S
C531 C532 1.523 . S
C532 C513 1.368 . S
C532 C526 1.368 . S
C532 C531 1.523 . S
C533 C517 1.429 . S
C533 C529 1.429 . S
C533 C534 1.523 . S
C534 C518 1.368 . S
C534 C530 1.368 . S
C534 C533 1.523 . S
H535 C510 0.950 . S
H536 C512 0.950 . S
H537 C513 0.949 . S
H538 C515 0.950 . S
H539 C517 0.950 . S
C540 C541 1.349 . S
C540 C542 1.327 . S
C540 H565 0.950 . S
C541 C540 1.349 . S
C541 C557 1.349 . S
C542 C540 1.327 . S
C542 C561 1.429 . S
C542 H566 0.950 . S
C543 C560 1.574 . S
C543 C562 1.368 . S
C543 H567 0.949 . S
H544 C548 0.949 . S
C545 C546 1.349 . S
C545 C547 1.327 . S
C545 H568 0.950 . S
C546 C545 1.349 . S
C546 C558 1.349 . S
C547 C545 1.327 . S
C547 C563 1.429 . S
C547 H569 0.950 . S
C548 H544 0.949 . S
C548 C556 1.574 . S
C548 C564 1.368 . S
H549 C557 0.950 . S
H550 C555 0.950 . S
H551 C556 0.949 . S
H552 C558 0.950 . S
H553 C559 0.950 . S
H554 C560 0.949 . S
C555 H550 0.950 . S
C555 C557 1.327 . S
C555 C561 1.429 . S
C556 C548 1.574 . S
C556 H551 0.949 . S
C556 C562 1.368 . S
C557 C541 1.349 . S
C557 H549 0.950 . S
C557 C555 1.327 . S
C558 C546 1.349 . S
C558 H552 0.950 . S
C558 C559 1.327 . S
C559 H553 0.950 . S
C559 C558 1.327 . S
C559 C563 1.429 . S
C560 C543 1.574 . S
C560 H554 0.949 . S
C560 C564 1.368 . S
C561 C542 1.429 . S
C561 C555 1.429 . S
C561 C562 1.523 . S
C562 C543 1.368 . S
C562 C556 1.368 . S
C562 C561 1.523 . S
C563 C547 1.429 . S
C563 C559 1.429 . S
C563 C564 1.523 . S
C564 C548 1.368 . S
C564 C560 1.368 . S
C564 C563 1.523 . S
H565 C540 0.950 . S
H566 C542 0.950 . S
H567 C543 0.949 . S
H568 C545 0.950 . S
H569 C547 0.950 . S
C570 C571 1.349 . S
C570 C572 1.327 . S
C570 H595 0.950 . S
C571 C570 1.349 . S
C571 C587 1.349 . S
C572 C570 1.327 . S
C572 C591 1.429 . S
C572 H596 0.950 . S
C573 C590 1.574 . S
C573 C592 1.368 . S
C573 H597 0.949 . S
H574 C578 0.949 . S
C575 C576 1.349 . S
C575 C577 1.327 . S
C575 H598 0.950 . S
C576 C575 1.349 . S
C576 C588 1.349 . S
C577 C575 1.327 . S
C577 C593 1.429 . S
C577 H599 0.950 . S
C578 H574 0.949 . S
C578 C586 1.574 . S
C578 C594 1.368 . S
H579 C587 0.950 . S
H580 C585 0.950 . S
H581 C586 0.949 . S
H582 C588 0.950 . S
H583 C589 0.950 . S
H584 C590 0.949 . S
C585 H580 0.950 . S
C585 C587 1.327 . S
C585 C591 1.429 . S
C586 C578 1.574 . S
C586 H581 0.949 . S
C586 C592 1.368 . S
C587 C571 1.349 . S
C587 H579 0.950 . S
C587 C585 1.327 . S
C588 C576 1.349 . S
C588 H582 0.950 . S
C588 C589 1.327 . S
C589 H583 0.950 . S
C589 C588 1.327 . S
C589 C593 1.429 . S
C590 C573 1.574 . S
C590 H584 0.949 . S
C590 C594 1.368 . S
C591 C572 1.429 . S
C591 C585 1.429 . S
C591 C592 1.523 . S
C592 C573 1.368 . S
C592 C586 1.368 . S
C592 C591 1.523 . S
C593 C577 1.429 . S
C593 C589 1.429 . S
C593 C594 1.523 . S
C594 C578 1.368 . S
C594 C590 1.368 . S
C594 C593 1.523 . S
H595 C570 0.950 . S
H596 C572 0.950 . S
H597 C573 0.949 . S
H598 C575 0.950 . S
H599 C577 0.950 . S
C600 C601 1.349 . S
C600 C602 1.327 . S
C600 H625 0.950 . S
C601 C600 1.349 . S
C601 C617 1.349 . S
C602 C600 1.327 . S
C602 C621 1.429 . S
C602 H626 0.950 . S
C603 C620 1.574 . S
C603 C622 1.368 . S
C603 H627 0.949 . S
H604 C608 0.949 . S
C605 C606 1.349 . S
C605 C607 1.327 . S
C605 H628 0.950 . S
C606 C605 1.349 . S
C606 C618 1.349 . S
C607 C605 1.327 . S
C607 C623 1.429 . S
C607 H629 0.950 . S
C608 H604 0.949 . S
C608 C616 1.574 . S
C608 C624 1.368 . S
H609 C617 0.950 . S
H610 C615 0.950 . S
H611 C616 0.949 . S
H612 C618 0.950 . S
H613 C619 0.950 . S
H614 C620 0.949 . S
C615 H610 0.950 . S
C615 C617 1.327 . S
C615 C621 1.429 . S
C616 C608 1.574 . S
C616 H611 0.949 . S
C616 C622 1.368 . S
C617 C601 1.349 . S
C617 H609 0.950 . S
C617 C615 1.327 . S
C618 C606 1.349 . S
C618 H612 0.950 . S
C618 C619 1.327 . S
C619 H613 0.950 . S
C619 C618 1.327 . S
C619 C623 1.429 . S
C620 C603 1.574 . S
C620 H614 0.949 . S
C620 C624 1.368 . S
C621 C602 1.429 . S
C621 C615 1.429 . S
C621 C622 1.523 . S
C622 C603 1.368 . S
C622 C616 1.368 . S
C622 C621 1.523 . S
C623 C607 1.429 . S
C623 C619 1.429 . S
C623 C624 1.523 . S
C624 C608 1.368 . S
C624 C620 1.368 . S
C624 C623 1.523 . S
H625 C600 0.950 . S
H626 C602 0.950 . S
H627 C603 0.949 . S
H628 C605 0.950 . S
H629 C607 0.950 . S
C630 C631 1.349 . S
C630 C632 1.327 . S
C630 H655 0.950 . S
C631 C630 1.349 . S
C631 C647 1.349 . S
C632 C630 1.327 . S
C632 C651 1.429 . S
C632 H656 0.950 . S
C633 C650 1.574 . S
C633 C652 1.368 . S
C633 H657 0.949 . S
H634 C638 0.949 . S
C635 C636 1.349 . S
C635 C637 1.327 . S
C635 H658 0.950 . S
C636 C635 1.349 . S
C636 C648 1.349 . S
C637 C635 1.327 . S
C637 C653 1.429 . S
C637 H659 0.950 . S
C638 H634 0.949 . S
C638 C646 1.574 . S
C638 C654 1.368 . S
H639 C647 0.950 . S
H640 C645 0.950 . S
H641 C646 0.949 . S
H642 C648 0.950 . S
H643 C649 0.950 . S
H644 C650 0.949 . S
C645 H640 0.950 . S
C645 C647 1.327 . S
C645 C651 1.429 . S
C646 C638 1.574 . S
C646 H641 0.949 . S
C646 C652 1.368 . S
C647 C631 1.349 . S
C647 H639 0.950 . S
C647 C645 1.327 . S
C648 C636 1.349 . S
C648 H642 0.950 . S
C648 C649 1.327 . S
C649 H643 0.950 . S
C649 C648 1.327 . S
C649 C653 1.429 . S
C650 C633 1.574 . S
C650 H644 0.949 . S
C650 C654 1.368 . S
C651 C632 1.429 . S
C651 C645 1.429 . S
C651 C652 1.523 . S
C652 C633 1.368 . S
C652 C646 1.368 . S
C652 C651 1.523 . S
C653 C637 1.429 . S
C653 C649 1.429 . S
C653 C654 1.523 . S
C654 C638 1.368 . S
C654 C650 1.368 . S
C654 C653 1.523 . S
H655 C630 0.950 . S
H656 C632 0.950 . S
H657 C633 0.949 . S
H658 C635 0.950 . S
H659 C637 0.950 . S
C660 C661 1.349 . S
C660 C662 1.327 . S
C660 H685 0.950 . S
C661 C660 1.349 . S
C661 C677 1.349 . S
C662 C660 1.327 . S
C662 C681 1.429 . S
C662 H686 0.950 . S
C663 C680 1.574 1_556 S
C663 C682 1.368 . S
C663 H687 0.949 . S
H664 C668 0.949 . S
C665 C666 1.349 . S
C665 C667 1.327 . S
C665 H688 0.950 . S
C666 C665 1.349 . S
C666 C678 1.349 . S
C667 C665 1.327 . S
C667 C683 1.429 . S
C667 H689 0.950 . S
C668 H664 0.949 . S
C668 C676 1.574 1_554 S
C668 C684 1.368 . S
H669 C677 0.950 . S
H670 C675 0.950 . S
H671 C676 0.949 . S
H672 C678 0.950 . S
H673 C679 0.950 . S
H674 C680 0.949 . S
C675 H670 0.950 . S
C675 C677 1.327 . S
C675 C681 1.429 . S
C676 C668 1.574 1_556 S
C676 H671 0.949 . S
C676 C682 1.368 . S
C677 C661 1.349 . S
C677 H669 0.950 . S
C677 C675 1.327 . S
C678 C666 1.349 . S
C678 H672 0.950 . S
C678 C679 1.327 . S
C679 H673 0.950 . S
C679 C678 1.327 . S
C679 C683 1.429 . S
C680 C663 1.574 1_554 S
C680 H674 0.949 . S
C680 C684 1.368 . S
C681 C662 1.429 . S
C681 C675 1.429 . S
C681 C682 1.523 . S
C682 C663 1.368 . S
C682 C676 1.368 . S
C682 C681 1.523 . S
C683 C667 1.429 . S
C683 C679 1.429 . S
C683 C684 1.523 . S
C684 C668 1.368 . S
C684 C680 1.368 . S
C684 C683 1.523 . S
H685 C660 0.950 . S
H686 C662 0.950 . S
H687 C663 0.949 . S
H688 C665 0.950 . S
H689 C667 0.950 . S
C690 C691 1.349 . S
C690 C692 1.327 . S
C690 H715 0.950 . S
C691 C690 1.349 . S
C691 C707 1.349 . S
C692 C690 1.327 . S
C692 C711 1.429 . S
C692 H716 0.950 . S
C693 C710 1.574 . S
C693 C712 1.368 . S
C693 H717 0.949 . S
H694 C698 0.949 . S
C695 C696 1.349 . S
C695 C697 1.327 . S
C695 H718 0.950 . S
C696 C695 1.349 . S
C696 C708 1.349 . S
C697 C695 1.327 . S
C697 C713 1.429 . S
C697 H719 0.950 . S
C698 H694 0.949 . S
C698 C706 1.574 . S
C698 C714 1.368 . S
H699 C707 0.950 . S
H700 C705 0.950 . S
H701 C706 0.949 . S
H702 C708 0.950 . S
H703 C709 0.950 . S
H704 C710 0.949 . S
C705 H700 0.950 . S
C705 C707 1.327 . S
C705 C711 1.429 . S
C706 C698 1.574 . S
C706 H701 0.949 . S
C706 C712 1.368 . S
C707 C691 1.349 . S
C707 H699 0.950 . S
C707 C705 1.327 . S
C708 C696 1.349 . S
C708 H702 0.950 . S
C708 C709 1.327 . S
C709 H703 0.950 . S
C709 C708 1.327 . S
C709 C713 1.429 . S
C710 C693 1.574 . S
C710 H704 0.949 . S
C710 C714 1.368 . S
C711 C692 1.429 . S
C711 C705 1.429 . S
C711 C712 1.523 . S
C712 C693 1.368 . S
C712 C706 1.368 . S
C712 C711 1.523 . S
C713 C697 1.429 . S
C713 C709 1.429 . S
C713 C714 1.523 . S
C714 C698 1.368 . S
C714 C710 1.368 . S
C714 C713 1.523 . S
H715 C690 0.950 . S
H716 C692 0.950 . S
H717 C693 0.949 . S
H718 C695 0.950 . S
H719 C697 0.950 . S
C720 C721 1.349 . S
C720 C722 1.327 . S
C720 H745 0.950 . S
C721 C720 1.349 . S
C721 C737 1.349 . S
C722 C720 1.327 . S
C722 C741 1.429 . S
C722 H746 0.950 . S
C723 C740 1.574 . S
C723 C742 1.368 . S
C723 H747 0.949 . S
H724 C728 0.949 . S
C725 C726 1.349 . S
C725 C727 1.327 . S
C725 H748 0.950 . S
C726 C725 1.349 . S
C726 C738 1.349 . S
C727 C725 1.327 . S
C727 C743 1.429 . S
C727 H749 0.950 . S
C728 H724 0.949 . S
C728 C736 1.574 . S
C728 C744 1.368 . S
H729 C737 0.950 . S
H730 C735 0.950 . S
H731 C736 0.949 . S
H732 C738 0.950 . S
H733 C739 0.950 . S
H734 C740 0.949 . S
C735 H730 0.950 . S
C735 C737 1.327 . S
C735 C741 1.429 . S
C736 C728 1.574 . S
C736 H731 0.949 . S
C736 C742 1.368 . S
C737 C721 1.349 . S
C737 H729 0.950 . S
C737 C735 1.327 . S
C738 C726 1.349 . S
C738 H732 0.950 . S
C738 C739 1.327 . S
C739 H733 0.950 . S
C739 C738 1.327 . S
C739 C743 1.429 . S
C740 C723 1.574 . S
C740 H734 0.949 . S
C740 C744 1.368 . S
C741 C722 1.429 . S
C741 C735 1.429 . S
C741 C742 1.523 . S
C742 C723 1.368 . S
C742 C736 1.368 . S
C742 C741 1.523 . S
C743 C727 1.429 . S
C743 C739 1.429 . S
C743 C744 1.523 . S
C744 C728 1.368 . S
C744 C740 1.368 . S
C744 C743 1.523 . S
H745 C720 0.950 . S
H746 C722 0.950 . S
H747 C723 0.949 . S
H748 C725 0.950 . S
H749 C727 0.950 . S
C750 C751 1.349 . S
C750 C752 1.327 . S
C750 H775 0.950 . S
C751 C750 1.349 . S
C751 C767 1.349 . S
C752 C750 1.327 . S
C752 C771 1.429 . S
C752 H776 0.950 . S
C753 C770 1.574 1_556 S
C753 C772 1.368 . S
C753 H777 0.949 . S
H754 C758 0.949 . S
C755 C756 1.349 . S
C755 C757 1.327 . S
C755 H778 0.950 . S
C756 C755 1.349 . S
C756 C768 1.349 . S
C757 C755 1.327 . S
C757 C773 1.429 . S
C757 H779 0.950 . S
C758 H754 0.949 . S
C758 C766 1.574 1_554 S
C758 C774 1.368 . S
H759 C767 0.950 . S
H760 C765 0.950 . S
H761 C766 0.949 . S
H762 C768 0.950 . S
H763 C769 0.950 . S
H764 C770 0.949 . S
C765 H760 0.950 . S
C765 C767 1.327 . S
C765 C771 1.429 . S
C766 C758 1.574 1_556 S
C766 H761 0.949 . S
C766 C772 1.368 . S
C767 C751 1.349 . S
C767 H759 0.950 . S
C767 C765 1.327 . S
C768 C756 1.349 . S
C768 H762 0.950 . S
C768 C769 1.327 . S
C769 H763 0.950 . S
C769 C768 1.327 . S
C769 C773 1.429 . S
C770 C753 1.574 1_554 S
C770 H764 0.949 . S
C770 C774 1.368 . S
C771 C752 1.429 . S
C771 C765 1.429 . S
C771 C772 1.523 . S
C772 C753 1.368 . S
C772 C766 1.368 . S
C772 C771 1.523 . S
C773 C757 1.429 . S
C773 C769 1.429 . S
C773 C774 1.523 . S
C774 C758 1.368 . S
C774 C770 1.368 . S
C774 C773 1.523 . S
H775 C750 0.950 . S
H776 C752 0.950 . S
H777 C753 0.949 . S
H778 C755 0.950 . S
H779 C757 0.950 . S
C780 C781 1.349 . S
C780 C782 1.327 . S
C780 H805 0.950 . S
C781 C780 1.349 . S
C781 C797 1.349 . S
C782 C780 1.327 . S
C782 C801 1.429 . S
C782 H806 0.950 . S
C783 C800 1.574 . S
C783 C802 1.368 . S
C783 H807 0.949 . S
H784 C788 0.949 . S
C785 C786 1.349 . S
C785 C787 1.327 . S
C785 H808 0.950 . S
C786 C785 1.349 . S
C786 C798 1.349 . S
C787 C785 1.327 . S
C787 C803 1.429 . S
C787 H809 0.950 . S
C788 H784 0.949 . S
C788 C796 1.574 . S
C788 C804 1.368 . S
H789 C797 0.950 . S
H790 C795 0.950 . S
H791 C796 0.949 . S
H792 C798 0.950 . S
H793 C799 0.950 . S
H794 C800 0.949 . S
C795 H790 0.950 . S
C795 C797 1.327 . S
C795 C801 1.429 . S
C796 C788 1.574 . S
C796 H791 0.949 . S
C796 C802 1.368 . S
C797 C781 1.349 . S
C797 H789 0.950 . S
C797 C795 1.327 . S
C798 C786 1.349 . S
C798 H792 0.950 . S
C798 C799 1.327 . S
C799 H793 0.950 . S
C799 C798 1.327 . S
C799 C803 1.429 . S
C800 C783 1.574 . S
C800 H794 0.949 . S
C800 C804 1.368 . S
C801 C782 1.429 . S
C801 C795 1.429 . S
C801 C802 1.523 . S
C802 C783 1.368 . S
C802 C796 1.368 . S
C802 C801 1.523 . S
C803 C787 1.429 . S
C803 C799 1.429 . S
C803 C804 1.523 . S
C804 C788 1.368 . S
C804 C800 1.368 . S
C804 C803 1.523 . S
H805 C780 0.950 . S
H806 C782 0.950 . S
H807 C783 0.949 . S
H808 C785 0.950 . S
H809 C787 0.950 . S
C810 C811 1.349 . S
C810 C812 1.327 . S
C810 H835 0.950 . S
C811 C810 1.349 . S
C811 C827 1.349 . S
C812 C810 1.327 . S
C812 C831 1.429 . S
C812 H836 0.950 . S
C813 C830 1.574 . S
C813 C832 1.368 . S
C813 H837 0.949 . S
H814 C818 0.949 . S
C815 C816 1.349 . S
C815 C817 1.327 . S
C815 H838 0.950 . S
C816 C815 1.349 . S
C816 C828 1.349 . S
C817 C815 1.327 . S
C817 C833 1.429 . S
C817 H839 0.950 . S
C818 H814 0.949 . S
C818 C826 1.574 . S
C818 C834 1.368 . S
H819 C827 0.950 . S
H820 C825 0.950 . S
H821 C826 0.949 . S
H822 C828 0.950 . S
H823 C829 0.950 . S
H824 C830 0.949 . S
C825 H820 0.950 . S
C825 C827 1.327 . S
C825 C831 1.429 . S
C826 C818 1.574 . S
C826 H821 0.949 . S
C826 C832 1.368 . S
C827 C811 1.349 . S
C827 H819 0.950 . S
C827 C825 1.327 . S
C828 C816 1.349 . S
C828 H822 0.950 . S
C828 C829 1.327 . S
C829 H823 0.950 . S
C829 C828 1.327 . S
C829 C833 1.429 . S
C830 C813 1.574 . S
C830 H824 0.949 . S
C830 C834 1.368 . S
C831 C812 1.429 . S
C831 C825 1.429 . S
C831 C832 1.523 . S
C832 C813 1.368 . S
C832 C826 1.368 . S
C832 C831 1.523 . S
C833 C817 1.429 . S
C833 C829 1.429 . S
C833 C834 1.523 . S
C834 C818 1.368 . S
C834 C830 1.368 . S
C834 C833 1.523 . S
H835 C810 0.950 . S
H836 C812 0.950 . S
H837 C813 0.949 . S
H838 C815 0.950 . S
H839 C817 0.950 . S
C840 C841 1.349 . S
C840 C842 1.327 . S
C840 H865 0.950 . S
C841 C840 1.349 . S
C841 C857 1.349 . S
C842 C840 1.327 . S
C842 C861 1.429 . S
C842 H866 0.950 . S
C843 C860 1.574 1_556 S
C843 C862 1.368 . S
C843 H867 0.949 . S
H844 C848 0.949 . S
C845 C846 1.349 . S
C845 C847 1.327 . S
C845 H868 0.950 . S
C846 C845 1.349 . S
C846 C858 1.349 . S
C847 C845 1.327 . S
C847 C863 1.429 . S
C847 H869 0.950 . S
C848 H844 0.949 . S
C848 C856 1.574 1_554 S
C848 C864 1.368 . S
H849 C857 0.950 . S
H850 C855 0.950 . S
H851 C856 0.949 . S
H852 C858 0.950 . S
H853 C859 0.950 . S
H854 C860 0.949 . S
C855 H850 0.950 . S
C855 C857 1.327 . S
C855 C861 1.429 . S
C856 C848 1.574 1_556 S
C856 H851 0.949 . S
C856 C862 1.368 1_545 S
C857 C841 1.349 . S
C857 H849 0.950 . S
C857 C855 1.327 . S
C858 C846 1.349 . S
C858 H852 0.950 . S
C858 C859 1.327 . S
C859 H853 0.950 . S
C859 C858 1.327 . S
C859 C863 1.429 . S
C860 C843 1.574 1_554 S
C860 H854 0.949 . S
C860 C864 1.368 1_565 S
C861 C842 1.429 . S
C861 C855 1.429 . S
C861 C862 1.523 . S
C862 C843 1.368 . S
C862 C856 1.368 1_565 S
C862 C861 1.523 . S
C863 C847 1.429 . S
C863 C859 1.429 . S
C863 C864 1.523 . S
C864 C848 1.368 . S
C864 C860 1.368 1_545 S
C864 C863 1.523 . S
H865 C840 0.950 . S
H866 C842 0.950 . S
H867 C843 0.949 . S
H868 C845 0.950 . S
H869 C847 0.950 . S
C870 C871 1.349 . S
C870 C872 1.327 . S
C870 H895 0.950 . S
C871 C870 1.349 . S
C871 C887 1.349 . S
C872 C870 1.327 . S
C872 C891 1.429 . S
C872 H896 0.950 . S
C873 C890 1.574 . S
C873 C892 1.368 . S
C873 H897 0.949 . S
H874 C878 0.949 . S
C875 C876 1.349 . S
C875 C877 1.327 . S
C875 H898 0.950 . S
C876 C875 1.349 . S
C876 C888 1.349 . S
C877 C875 1.327 . S
C877 C893 1.429 . S
C877 H899 0.950 . S
C878 H874 0.949 . S
C878 C886 1.574 . S
C878 C894 1.368 . S
H879 C887 0.950 . S
H880 C885 0.950 . S
H881 C886 0.949 . S
H882 C888 0.950 . S
H883 C889 0.950 . S
H884 C890 0.949 . S
C885 H880 0.950 . S
C885 C887 1.327 . S
C885 C891 1.429 . S
C886 C878 1.574 . S
C886 H881 0.949 . S
C886 C892 1.368 . S
C887 C871 1.349 . S
C887 H879 0.950 . S
C887 C885 1.327 . S
C888 C876 1.349 . S
C888 H882 0.950 . S
C888 C889 1.327 . S
C889 H883 0.950 . S
C889 C888 1.327 . S
C889 C893 1.429 . S
C890 C873 1.574 . S
C890 H884 0.949 . S
C890 C894 1.368 . S
C891 C872 1.429 . S
C891 C885 1.429 . S
C891 C892 1.523 . S
C892 C873 1.368 . S
C892 C886 1.368 . S
C892 C891 1.523 . S
C893 C877 1.429 . S
C893 C889 1.429 . S
C893 C894 1.523 . S
C894 C878 1.368 . S
C894 C890 1.368 . S
C894 C893 1.523 . S
H895 C870 0.950 . S
H896 C872 0.950 . S
H897 C873 0.949 . S
H898 C875 0.950 . S
H899 C877 0.950 . S
C900 C901 1.349 . S
C900 C902 1.327 . S
C900 H925 0.950 . S
C901 C900 1.349 . S
C901 C917 1.349 . S
C902 C900 1.327 . S
C902 C921 1.429 . S
C902 H926 0.950 . S
C903 C920 1.574 1_455 S
C903 C922 1.368 . S
C903 H927 0.949 . S
H904 C908 0.949 . S
C905 C906 1.349 . S
C905 C907 1.327 . S
C905 H928 0.950 . S
C906 C905 1.349 . S
C906 C918 1.349 . S
C907 C905 1.327 . S
C907 C923 1.429 . S
C907 H929 0.950 . S
C908 H904 0.949 . S
C908 C916 1.574 1_655 S
C908 C924 1.368 . S
H909 C917 0.950 . S
H910 C915 0.950 . S
H911 C916 0.949 . S
H912 C918 0.950 . S
H913 C919 0.950 . S
H914 C920 0.949 . S
C915 H910 0.950 . S
C915 C917 1.327 . S
C915 C921 1.429 . S
C916 C908 1.574 1_455 S
C916 H911 0.949 . S
C916 C922 1.368 . S
C917 C901 1.349 . S
C917 H909 0.950 . S
C917 C915 1.327 . S
C918 C906 1.349 . S
C918 H912 0.950 . S
C918 C919 1.327 . S
C919 H913 0.950 . S
C919 C918 1.327 . S
C919 C923 1.429 . S
C920 C903 1.574 1_655 S
C920 H914 0.949 . S
C920 C924 1.368 . S
C921 C902 1.429 . S
C921 C915 1.429 . S
C921 C922 1.523 . S
C922 C903 1.368 . S
C922 C916 1.368 . S
C922 C921 1.523 . S
C923 C907 1.429 . S
C923 C919 1.429 . S
C923 C924 1.523 . S
C924 C908 1.368 . S
C924 C920 1.368 . S
C924 C923 1.523 . S
H925 C900 0.950 . S
H926 C902 0.950 . S
H927 C903 0.949 . S
H928 C905 0.950 . S
H929 C907 0.950 . S
C930 C931 1.349 . S
C930 C932 1.327 . S
C930 H955 0.950 . S
C931 C930 1.349 . S
C931 C947 1.349 . S
C932 C930 1.327 . S
C932 C951 1.429 . S
C932 H956 0.950 1_565 S
C933 C950 1.574 1_554 S
C933 C952 1.368 . S
C933 H957 0.949 . S
H934 C938 0.949 . S
C935 C936 1.349 . S
C935 C937 1.327 . S
C935 H958 0.950 . S
C936 C935 1.349 . S
C936 C948 1.349 . S
C937 C935 1.327 . S
C937 C953 1.429 . S
C937 H959 0.950 1_545 S
C938 H934 0.949 . S
C938 C946 1.574 1_556 S
C938 C954 1.368 . S
H939 C947 0.950 . S
H940 C945 0.950 . S
H941 C946 0.949 . S
H942 C948 0.950 . S
H943 C949 0.950 . S
H944 C950 0.949 . S
C945 H940 0.950 . S
C945 C947 1.327 . S
C945 C951 1.429 . S
C946 C938 1.574 1_554 S
C946 H941 0.949 . S
C946 C952 1.368 1_545 S
C947 C931 1.349 . S
C947 H939 0.950 . S
C947 C945 1.327 . S
C948 C936 1.349 . S
C948 H942 0.950 . S
C948 C949 1.327 . S
C949 H943 0.950 . S
C949 C948 1.327 . S
C949 C953 1.429 . S
C950 C933 1.574 1_556 S
C950 H944 0.949 . S
C950 C954 1.368 1_565 S
C951 C932 1.429 . S
C951 C945 1.429 . S
C951 C952 1.523 . S
C952 C933 1.368 . S
C952 C946 1.368 1_565 S
C952 C951 1.523 . S
C953 C937 1.429 . S
C953 C949 1.429 . S
C953 C954 1.523 . S
C954 C938 1.368 . S
C954 C950 1.368 1_545 S
C954 C953 1.523 . S
H955 C930 0.950 . S
H956 C932 0.950 1_545 S
H957 C933 0.949 . S
H958 C935 0.950 . S
H959 C937 0.950 1_565 S
C960 C961 1.349 . S
C960 C962 1.327 . S
C960 H985 0.950 . S
C961 C960 1.349 . S
C961 C977 1.349 . S
C962 C960 1.327 . S
C962 C981 1.429 . S
C962 H986 0.950 . S
C963 C980 1.574 . S
C963 C982 1.368 . S
C963 H987 0.949 . S
H964 C968 0.949 . S
C965 C966 1.349 . S
C965 C967 1.327 . S
C965 H988 0.950 . S
C966 C965 1.349 . S
C966 C978 1.349 . S
C967 C965 1.327 . S
C967 C983 1.429 . S
C967 H989 0.950 . S
C968 H964 0.949 . S
C968 C976 1.574 . S
C968 C984 1.368 . S
H969 C977 0.950 . S
H970 C975 0.950 . S
H971 C976 0.949 . S
H972 C978 0.950 . S
H973 C979 0.950 . S
H974 C980 0.949 . S
C975 H970 0.950 . S
C975 C977 1.327 . S
C975 C981 1.429 . S
C976 C968 1.574 . S
C976 H971 0.949 . S
C976 C982 1.368 . S
C977 C961 1.349 . S
C977 H969 0.950 . S
C977 C975 1.327 . S
C978 C966 1.349 . S
C978 H972 0.950 . S
C978 C979 1.327 . S
C979 H973 0.950 . S
C979 C978 1.327 . S
C979 C983 1.429 . S
C980 C963 1.574 . S
C980 H974 0.949 . S
C980 C984 1.368 . S
C981 C962 1.429 . S
C981 C975 1.429 . S
C981 C982 1.523 . S
C982 C963 1.368 . S
C982 C976 1.368 . S
C982 C981 1.523 . S
C983 C967 1.429 . S
C983 C979 1.429 . S
C983 C984 1.523 . S
C984 C968 1.368 . S
C984 C980 1.368 . S
C984 C983 1.523 . S
H985 C960 0.950 . S
H986 C962 0.950 . S
H987 C963 0.949 . S
H988 C965 0.950 . S
H989 C967 0.950 . S
C990 C991 1.349 . S
C990 C992 1.327 . S
C990 H1015 0.950 . S
C991 C990 1.349 . S
C991 C1007 1.349 . S
C992 C990 1.327 . S
C992 C1011 1.429 . S
C992 H1016 0.950 . S
C993 C1010 1.574 . S
C993 C1012 1.368 1_655 S
C993 H1017 0.949 . S
H994 C998 0.949 . S
C995 C996 1.349 . S
C995 C997 1.327 . S
C995 H1018 0.950 . S
C996 C995 1.349 . S
C996 C1008 1.349 . S
C997 C995 1.327 . S
C997 C1013 1.429 . S
C997 H1019 0.950 . S
C998 H994 0.949 . S
C998 C1006 1.574 . S
C998 C1014 1.368 1_455 S
H999 C1007 0.950 . S
H1000 C1005 0.953 . S
H1001 C1006 0.949 . S
H1002 C1008 0.950 . S
H1003 C1009 0.954 . S
H1004 C1010 0.949 . S
C1005 H1000 0.953 . S
C1005 C1007 1.327 . S
C1005 C1011 1.429 . S
C1006 C998 1.574 . S
C1006 H1001 0.949 . S
C1006 C1012 1.368 . S
C1007 C991 1.349 . S
C1007 H999 0.950 . S
C1007 C1005 1.327 . S
C1008 C996 1.349 . S
C1008 H1002 0.950 . S
C1008 C1009 1.327 . S
C1009 H1003 0.954 . S
C1009 C1008 1.327 . S
C1009 C1013 1.429 . S
C1010 C993 1.574 . S
C1010 H1004 0.949 . S
C1010 C1014 1.368 . S
C1011 C992 1.429 . S
C1011 C1005 1.429 . S
C1011 C1012 1.523 . S
C1012 C993 1.368 1_455 S
C1012 C1006 1.368 . S
C1012 C1011 1.523 . S
C1013 C997 1.429 . S
C1013 C1009 1.429 . S
C1013 C1014 1.523 . S
C1014 C998 1.368 1_655 S
C1014 C1010 1.368 . S
C1014 C1013 1.523 . S
H1015 C990 0.950 . S
H1016 C992 0.950 . S
H1017 C993 0.949 . S
H1018 C995 0.950 . S
H1019 C997 0.950 . S
C1020 C1021 1.349 . S
C1020 C1022 1.327 . S
C1020 H1045 0.950 . S
C1021 C1020 1.349 . S
C1021 C1037 1.349 . S
C1022 C1020 1.327 . S
C1022 C1041 1.429 . S
C1022 H1046 0.950 . S
C1023 C1040 1.574 1_545 S
C1023 C1042 1.368 . S
C1023 H1047 0.949 . S
H1024 C1028 0.949 . S
C1025 C1026 1.349 . S
C1025 C1027 1.327 . S
C1025 H1048 0.950 . S
C1026 C1025 1.349 . S
C1026 C1038 1.349 . S
C1027 C1025 1.327 . S
C1027 C1043 1.429 . S
C1027 H1049 0.950 . S
C1028 H1024 0.949 . S
C1028 C1036 1.574 1_565 S
C1028 C1044 1.368 . S
H1029 C1037 0.950 . S
H1030 C1035 0.950 . S
H1031 C1036 0.949 . S
H1032 C1038 0.950 . S
H1033 C1039 0.950 . S
H1034 C1040 0.949 . S
C1035 H1030 0.950 . S
C1035 C1037 1.327 . S
C1035 C1041 1.429 . S
C1036 C1028 1.574 1_545 S
C1036 H1031 0.949 . S
C1036 C1042 1.368 . S
C1037 C1021 1.349 . S
C1037 H1029 0.950 . S
C1037 C1035 1.327 . S
C1038 C1026 1.349 . S
C1038 H1032 0.950 . S
C1038 C1039 1.327 . S
C1039 H1033 0.950 . S
C1039 C1038 1.327 . S
C1039 C1043 1.429 . S
C1040 C1023 1.574 1_565 S
C1040 H1034 0.949 . S
C1040 C1044 1.368 . S
C1041 C1022 1.429 . S
C1041 C1035 1.429 . S
C1041 C1042 1.523 . S
C1042 C1023 1.368 . S
C1042 C1036 1.368 . S
C1042 C1041 1.523 . S
C1043 C1027 1.429 . S
C1043 C1039 1.429 . S
C1043 C1044 1.523 . S
C1044 C1028 1.368 . S
C1044 C1040 1.368 . S
C1044 C1043 1.523 . S
H1045 C1020 0.950 . S
H1046 C1022 0.950 . S
H1047 C1023 0.949 . S
H1048 C1025 0.950 . S
H1049 C1027 0.950 . S
C1050 C1051 1.349 . S
C1050 C1052 1.327 . S
C1050 H1075 0.950 . S
C1051 C1050 1.349 . S
C1051 C1067 1.349 . S
C1052 C1050 1.327 . S
C1052 C1071 1.429 . S
C1052 H1076 0.950 . S
C1053 C1070 1.574 . S
C1053 C1072 1.368 . S
C1053 H1077 0.949 . S
H1054 C1058 0.949 . S
C1055 C1056 1.349 . S
C1055 C1057 1.327 . S
C1055 H1078 0.950 . S
C1056 C1055 1.349 . S
C1056 C1068 1.349 . S
C1057 C1055 1.327 . S
C1057 C1073 1.429 . S
C1057 H1079 0.950 . S
C1058 H1054 0.949 . S
C1058 C1066 1.574 . S
C1058 C1074 1.368 . S
H1059 C1067 0.950 . S
H1060 C1065 0.950 . S
H1061 C1066 0.949 . S
H1062 C1068 0.950 . S
H1063 C1069 0.950 . S
H1064 C1070 0.949 . S
C1065 H1060 0.950 . S
C1065 C1067 1.327 . S
C1065 C1071 1.429 . S
C1066 C1058 1.574 . S
C1066 H1061 0.949 . S
C1066 C1072 1.368 . S
C1067 C1051 1.349 . S
C1067 H1059 0.950 . S
C1067 C1065 1.327 . S
C1068 C1056 1.349 . S
C1068 H1062 0.950 . S
C1068 C1069 1.327 . S
C1069 H1063 0.950 . S
C1069 C1068 1.327 . S
C1069 C1073 1.429 . S
C1070 C1053 1.574 . S
C1070 H1064 0.949 . S
C1070 C1074 1.368 . S
C1071 C1052 1.429 . S
C1071 C1065 1.429 . S
C1071 C1072 1.523 . S
C1072 C1053 1.368 . S
C1072 C1066 1.368 . S
C1072 C1071 1.523 . S
C1073 C1057 1.429 . S
C1073 C1069 1.429 . S
C1073 C1074 1.523 . S
C1074 C1058 1.368 . S
C1074 C1070 1.368 . S
C1074 C1073 1.523 . S
H1075 C1050 0.950 . S
H1076 C1052 0.950 . S
H1077 C1053 0.949 . S
H1078 C1055 0.950 . S
H1079 C1057 0.950 . S
C1080 C1081 1.349 . S
C1080 C1082 1.327 . S
C1080 H1105 0.950 . S
C1081 C1080 1.349 . S
C1081 C1097 1.349 . S
C1082 C1080 1.327 . S
C1082 C1101 1.429 . S
C1082 H1106 0.950 . S
C1083 C1100 1.574 1_655 S
C1083 C1102 1.368 . S
C1083 H1107 0.949 . S
H1084 C1088 0.949 . S
C1085 C1086 1.349 . S
C1085 C1087 1.327 . S
C1085 H1108 0.950 . S
C1086 C1085 1.349 . S
C1086 C1098 1.349 . S
C1087 C1085 1.327 . S
C1087 C1103 1.429 . S
C1087 H1109 0.950 . S
C1088 H1084 0.949 . S
C1088 C1096 1.574 1_455 S
C1088 C1104 1.368 . S
H1089 C1097 0.950 . S
H1090 C1095 0.950 . S
H1091 C1096 0.949 . S
H1092 C1098 0.950 . S
H1093 C1099 0.950 . S
H1094 C1100 0.949 . S
C1095 H1090 0.950 . S
C1095 C1097 1.327 . S
C1095 C1101 1.429 . S
C1096 C1088 1.574 1_655 S
C1096 H1091 0.949 . S
C1096 C1102 1.368 . S
C1097 C1081 1.349 . S
C1097 H1089 0.950 . S
C1097 C1095 1.327 . S
C1098 C1086 1.349 . S
C1098 H1092 0.950 . S
C1098 C1099 1.327 . S
C1099 H1093 0.950 . S
C1099 C1098 1.327 . S
C1099 C1103 1.429 . S
C1100 C1083 1.574 1_455 S
C1100 H1094 0.949 . S
C1100 C1104 1.368 . S
C1101 C1082 1.429 . S
C1101 C1095 1.429 . S
C1101 C1102 1.523 . S
C1102 C1083 1.368 . S
C1102 C1096 1.368 . S
C1102 C1101 1.523 . S
C1103 C1087 1.429 . S
C1103 C1099 1.429 . S
C1103 C1104 1.523 . S
C1104 C1088 1.368 . S
C1104 C1100 1.368 . S
C1104 C1103 1.523 . S
H1105 C1080 0.950 . S
H1106 C1082 0.950 . S
H1107 C1083 0.949 . S
H1108 C1085 0.950 . S
H1109 C1087 0.950 . S
C1110 C1111 1.349 . S
C1110 C1112 1.327 . S
C1110 H1135 0.950 . S
C1111 C1110 1.349 . S
C1111 C1127 1.349 . S
C1112 C1110 1.327 . S
C1112 C1131 1.429 . S
C1112 H1136 0.950 . S
C1113 C1130 1.574 1_455 S
C1113 C1132 1.368 . S
C1113 H1137 0.949 . S
H1114 C1118 0.949 . S
C1115 C1116 1.349 . S
C1115 C1117 1.327 . S
C1115 H1138 0.950 . S
C1116 C1115 1.349 . S
C1116 C1128 1.349 . S
C1117 C1115 1.327 . S
C1117 C1133 1.429 . S
C1117 H1139 0.950 . S
C1118 H1114 0.949 . S
C1118 C1126 1.574 1_655 S
C1118 C1134 1.368 . S
H1119 C1127 0.950 . S
H1120 C1125 0.950 . S
H1121 C1126 0.949 . S
H1122 C1128 0.950 . S
H1123 C1129 0.950 . S
H1124 C1130 0.949 . S
C1125 H1120 0.950 . S
C1125 C1127 1.327 . S
C1125 C1131 1.429 . S
C1126 C1118 1.574 1_455 S
C1126 H1121 0.949 . S
C1126 C1132 1.368 . S
C1127 C1111 1.349 . S
C1127 H1119 0.950 . S
C1127 C1125 1.327 . S
C1128 C1116 1.349 . S
C1128 H1122 0.950 . S
C1128 C1129 1.327 . S
C1129 H1123 0.950 . S
C1129 C1128 1.327 . S
C1129 C1133 1.429 . S
C1130 C1113 1.574 1_655 S
C1130 H1124 0.949 . S
C1130 C1134 1.368 . S
C1131 C1112 1.429 . S
C1131 C1125 1.429 . S
C1131 C1132 1.523 . S
C1132 C1113 1.368 . S
C1132 C1126 1.368 . S
C1132 C1131 1.523 . S
C1133 C1117 1.429 . S
C1133 C1129 1.429 . S
C1133 C1134 1.523 . S
C1134 C1118 1.368 . S
C1134 C1130 1.368 . S
C1134 C1133 1.523 . S
H1135 C1110 0.950 . S
H1136 C1112 0.950 . S
H1137 C1113 0.949 . S
H1138 C1115 0.950 . S
H1139 C1117 0.950 . S
C1140 C1141 1.349 . S
C1140 C1142 1.327 . S
C1140 H1165 0.950 . S
C1141 C1140 1.349 . S
C1141 C1157 1.349 . S
C1142 C1140 1.327 . S
C1142 C1161 1.429 . S
C1142 H1166 0.950 . S
C1143 C1160 1.574 1_565 S
C1143 C1162 1.368 . S
C1143 H1167 0.949 . S
H1144 C1148 0.949 . S
C1145 C1146 1.349 . S
C1145 C1147 1.327 . S
C1145 H1168 0.950 . S
C1146 C1145 1.349 . S
C1146 C1158 1.349 . S
C1147 C1145 1.327 . S
C1147 C1163 1.429 . S
C1147 H1169 0.950 . S
C1148 H1144 0.949 . S
C1148 C1156 1.574 1_545 S
C1148 C1164 1.368 . S
H1149 C1157 0.950 . S
H1150 C1155 0.950 . S
H1151 C1156 0.949 . S
H1152 C1158 0.950 . S
H1153 C1159 0.950 . S
H1154 C1160 0.949 . S
C1155 H1150 0.950 . S
C1155 C1157 1.327 . S
C1155 C1161 1.429 . S
C1156 C1148 1.574 1_565 S
C1156 H1151 0.949 . S
C1156 C1162 1.368 . S
C1157 C1141 1.349 . S
C1157 H1149 0.950 . S
C1157 C1155 1.327 . S
C1158 C1146 1.349 . S
C1158 H1152 0.950 . S
C1158 C1159 1.327 . S
C1159 H1153 0.950 . S
C1159 C1158 1.327 . S
C1159 C1163 1.429 . S
C1160 C1143 1.574 1_545 S
C1160 H1154 0.949 . S
C1160 C1164 1.368 . S
C1161 C1142 1.429 . S
C1161 C1155 1.429 . S
C1161 C1162 1.523 . S
C1162 C1143 1.368 . S
C1162 C1156 1.368 . S
C1162 C1161 1.523 . S
C1163 C1147 1.429 . S
C1163 C1159 1.429 . S
C1163 C1164 1.523 . S
C1164 C1148 1.368 . S
C1164 C1160 1.368 . S
C1164 C1163 1.523 . S
H1165 C1140 0.950 . S
H1166 C1142 0.950 . S
H1167 C1143 0.949 . S
H1168 C1145 0.950 . S
H1169 C1147 0.950 . S
C1170 C1171 1.349 . S
C1170 C1172 1.327 . S
C1170 H1195 0.950 . S
C1171 C1170 1.349 . S
C1171 C1187 1.349 . S
C1172 C1170 1.327 . S
C1172 C1191 1.429 . S
C1172 H1196 0.950 . S
C1173 C1190 1.574 . S
C1173 C1192 1.368 . S
C1173 H1197 0.949 . S
H1174 C1178 0.949 . S
C1175 C1176 1.349 . S
C1175 C1177 1.327 . S
C1175 H1198 0.950 . S
C1176 C1175 1.349 . S
C1176 C1188 1.349 . S
C1177 C1175 1.327 . S
C1177 C1193 1.429 . S
C1177 H1199 0.950 . S
C1178 H1174 0.949 . S
C1178 C1186 1.574 . S
C1178 C1194 1.368 . S
H1179 C1187 0.950 . S
H1180 C1185 0.950 . S
H1181 C1186 0.949 . S
H1182 C1188 0.950 . S
H1183 C1189 0.950 . S
H1184 C1190 0.949 . S
C1185 H1180 0.950 . S
C1185 C1187 1.327 . S
C1185 C1191 1.429 . S
C1186 C1178 1.574 . S
C1186 H1181 0.949 . S
C1186 C1192 1.368 . S
C1187 C1171 1.349 . S
C1187 H1179 0.950 . S
C1187 C1185 1.327 . S
C1188 C1176 1.349 . S
C1188 H1182 0.950 . S
C1188 C1189 1.327 . S
C1189 H1183 0.950 . S
C1189 C1188 1.327 . S
C1189 C1193 1.429 . S
C1190 C1173 1.574 . S
C1190 H1184 0.949 . S
C1190 C1194 1.368 . S
C1191 C1172 1.429 . S
C1191 C1185 1.429 . S
C1191 C1192 1.523 . S
C1192 C1173 1.368 . S
C1192 C1186 1.368 . S
C1192 C1191 1.523 . S
C1193 C1177 1.429 . S
C1193 C1189 1.429 . S
C1193 C1194 1.523 . S
C1194 C1178 1.368 . S
C1194 C1190 1.368 . S
C1194 C1193 1.523 . S
H1195 C1170 0.950 . S
H1196 C1172 0.950 . S
H1197 C1173 0.949 . S
H1198 C1175 0.950 . S
H1199 C1177 0.950 . S
C1200 C1201 1.349 . S
C1200 C1202 1.327 . S
C1200 H1225 0.950 . S
C1201 C1200 1.349 . S
C1201 C1217 1.349 . S
C1202 C1200 1.327 . S
C1202 C1221 1.429 . S
C1202 H1226 0.950 . S
C1203 C1220 1.574 . S
C1203 C1222 1.368 . S
C1203 H1227 0.949 . S
H1204 C1208 0.949 . S
C1205 C1206 1.349 . S
C1205 C1207 1.327 . S
C1205 H1228 0.950 . S
C1206 C1205 1.349 . S
C1206 C1218 1.349 . S
C1207 C1205 1.327 . S
C1207 C1223 1.429 . S
C1207 H1229 0.950 . S
C1208 H1204 0.949 . S
C1208 C1216 1.574 . S
C1208 C1224 1.368 . S
H1209 C1217 0.950 . S
H1210 C1215 0.950 . S
H1211 C1216 0.949 . S
H1212 C1218 0.950 . S
H1213 C1219 0.950 . S
H1214 C1220 0.949 . S
C1215 H1210 0.950 . S
C1215 C1217 1.327 . S
C1215 C1221 1.429 . S
C1216 C1208 1.574 . S
C1216 H1211 0.949 . S
C1216 C1222 1.368 1_545 S
C1217 C1201 1.349 . S
C1217 H1209 0.950 . S
C1217 C1215 1.327 . S
C1218 C1206 1.349 . S
C1218 H1212 0.950 . S
C1218 C1219 1.327 . S
C1219 H1213 0.950 . S
C1219 C1218 1.327 . S
C1219 C1223 1.429 . S
C1220 C1203 1.574 . S
C1220 H1214 0.949 . S
C1220 C1224 1.368 1_565 S
C1221 C1202 1.429 . S
C1221 C1215 1.429 . S
C1221 C1222 1.523 . S
C1222 C1203 1.368 . S
C1222 C1216 1.368 1_565 S
C1222 C1221 1.523 . S
C1223 C1207 1.429 . S
C1223 C1219 1.429 . S
C1223 C1224 1.523 . S
C1224 C1208 1.368 . S
C1224 C1220 1.368 1_545 S
C1224 C1223 1.523 . S
H1225 C1200 0.950 . S
H1226 C1202 0.950 . S
H1227 C1203 0.949 . S
H1228 C1205 0.950 . S
H1229 C1207 0.950 . S
C1230 C1231 1.349 . S
C1230 C1232 1.327 . S
C1230 H1255 0.950 . S
C1231 C1230 1.349 . S
C1231 C1247 1.349 . S
C1232 C1230 1.327 . S
C1232 C1251 1.429 . S
C1232 H1256 0.950 . S
C1233 C1250 1.574 . S
C1233 C1252 1.368 . S
C1233 H1257 0.949 . S
H1234 C1238 0.949 . S
C1235 C1236 1.349 . S
C1235 C1237 1.327 . S
C1235 H1258 0.950 . S
C1236 C1235 1.349 . S
C1236 C1248 1.349 . S
C1237 C1235 1.327 . S
C1237 C1253 1.429 . S
C1237 H1259 0.950 . S
C1238 H1234 0.949 . S
C1238 C1246 1.574 . S
C1238 C1254 1.368 . S
H1239 C1247 0.950 . S
H1240 C1245 0.950 . S
H1241 C1246 0.949 . S
H1242 C1248 0.950 . S
H1243 C1249 0.950 . S
H1244 C1250 0.949 . S
C1245 H1240 0.950 . S
C1245 C1247 1.327 . S
C1245 C1251 1.429 . S
C1246 C1238 1.574 . S
C1246 H1241 0.949 . S
C1246 C1252 1.368 . S
C1247 C1231 1.349 . S
C1247 H1239 0.950 . S
C1247 C1245 1.327 . S
C1248 C1236 1.349 . S
C1248 H1242 0.950 . S
C1248 C1249 1.327 . S
C1249 H1243 0.950 . S
C1249 C1248 1.327 . S
C1249 C1253 1.429 . S
C1250 C1233 1.574 . S
C1250 H1244 0.949 . S
C1250 C1254 1.368 . S
C1251 C1232 1.429 . S
C1251 C1245 1.429 . S
C1251 C1252 1.523 . S
C1252 C1233 1.368 . S
C1252 C1246 1.368 . S
C1252 C1251 1.523 . S
C1253 C1237 1.429 . S
C1253 C1249 1.429 . S
C1253 C1254 1.523 . S
C1254 C1238 1.368 . S
C1254 C1250 1.368 . S
C1254 C1253 1.523 . S
H1255 C1230 0.950 . S
H1256 C1232 0.950 . S
H1257 C1233 0.949 . S
H1258 C1235 0.950 . S
H1259 C1237 0.950 . S
C1260 C1261 1.349 . S
C1260 C1262 1.327 . S
C1260 H1285 0.950 . S
C1261 C1260 1.349 . S
C1261 C1277 1.349 . S
C1262 C1260 1.327 . S
C1262 C1281 1.429 . S
C1262 H1286 0.950 . S
C1263 C1280 1.574 . S
C1263 C1282 1.368 . S
C1263 H1287 0.949 . S
H1264 C1268 0.949 . S
C1265 C1266 1.349 . S
C1265 C1267 1.327 . S
C1265 H1288 0.950 . S
C1266 C1265 1.349 . S
C1266 C1278 1.349 . S
C1267 C1265 1.327 . S
C1267 C1283 1.429 . S
C1267 H1289 0.950 . S
C1268 H1264 0.949 . S
C1268 C1276 1.574 . S
C1268 C1284 1.368 . S
H1269 C1277 0.950 . S
H1270 C1275 0.950 . S
H1271 C1276 0.949 . S
H1272 C1278 0.950 . S
H1273 C1279 0.950 . S
H1274 C1280 0.949 . S
C1275 H1270 0.950 . S
C1275 C1277 1.327 . S
C1275 C1281 1.429 . S
C1276 C1268 1.574 . S
C1276 H1271 0.949 . S
C1276 C1282 1.368 1_455 S
C1277 C1261 1.349 . S
C1277 H1269 0.950 . S
C1277 C1275 1.327 . S
C1278 C1266 1.349 . S
C1278 H1272 0.950 . S
C1278 C1279 1.327 . S
C1279 H1273 0.950 . S
C1279 C1278 1.327 . S
C1279 C1283 1.429 . S
C1280 C1263 1.574 . S
C1280 H1274 0.949 . S
C1280 C1284 1.368 1_655 S
C1281 C1262 1.429 . S
C1281 C1275 1.429 . S
C1281 C1282 1.523 . S
C1282 C1263 1.368 . S
C1282 C1276 1.368 1_655 S
C1282 C1281 1.523 . S
C1283 C1267 1.429 . S
C1283 C1279 1.429 . S
C1283 C1284 1.523 . S
C1284 C1268 1.368 . S
C1284 C1280 1.368 1_455 S
C1284 C1283 1.523 . S
H1285 C1260 0.950 . S
H1286 C1262 0.950 . S
H1287 C1263 0.949 . S
H1288 C1265 0.950 . S
H1289 C1267 0.950 . S
C1290 C1291 1.349 . S
C1290 C1292 1.327 . S
C1290 H1315 0.950 . S
C1291 C1290 1.349 . S
C1291 C1307 1.349 . S
C1292 C1290 1.327 . S
C1292 C1311 1.429 . S
C1292 H1316 0.950 . S
C1293 C1310 1.574 . S
C1293 C1312 1.368 . S
C1293 H1317 0.949 . S
H1294 C1298 0.949 . S
C1295 C1296 1.349 . S
C1295 C1297 1.327 . S
C1295 H1318 0.950 . S
C1296 C1295 1.349 . S
C1296 C1308 1.349 . S
C1297 C1295 1.327 . S
C1297 C1313 1.429 . S
C1297 H1319 0.950 . S
C1298 H1294 0.949 . S
C1298 C1306 1.574 . S
C1298 C1314 1.368 . S
H1299 C1307 0.950 . S
H1300 C1305 0.950 . S
H1301 C1306 0.949 . S
H1302 C1308 0.950 . S
H1303 C1309 0.950 . S
H1304 C1310 0.949 . S
C1305 H1300 0.950 . S
C1305 C1307 1.327 . S
C1305 C1311 1.429 . S
C1306 C1298 1.574 . S
C1306 H1301 0.949 . S
C1306 C1312 1.368 1_565 S
C1307 C1291 1.349 . S
C1307 H1299 0.950 . S
C1307 C1305 1.327 . S
C1308 C1296 1.349 . S
C1308 H1302 0.950 . S
C1308 C1309 1.327 . S
C1309 H1303 0.950 . S
C1309 C1308 1.327 . S
C1309 C1313 1.429 . S
C1310 C1293 1.574 . S
C1310 H1304 0.949 . S
C1310 C1314 1.368 1_545 S
C1311 C1292 1.429 . S
C1311 C1305 1.429 . S
C1311 C1312 1.523 . S
C1312 C1293 1.368 . S
C1312 C1306 1.368 1_545 S
C1312 C1311 1.523 . S
C1313 C1297 1.429 . S
C1313 C1309 1.429 . S
C1313 C1314 1.523 . S
C1314 C1298 1.368 . S
C1314 C1310 1.368 1_565 S
C1314 C1313 1.523 . S
H1315 C1290 0.950 . S
H1316 C1292 0.950 . S
H1317 C1293 0.949 . S
H1318 C1295 0.950 . S
H1319 C1297 0.950 . S
C1320 C1321 1.349 . S
C1320 C1322 1.327 . S
C1320 H1345 0.950 . S
C1321 C1320 1.349 . S
C1321 C1337 1.349 . S
C1322 C1320 1.327 . S
C1322 C1341 1.429 . S
C1322 H1346 0.950 . S
C1323 C1340 1.574 . S
C1323 C1342 1.368 . S
C1323 H1347 0.949 . S
H1324 C1328 0.949 . S
C1325 C1326 1.349 . S
C1325 C1327 1.327 . S
C1325 H1348 0.950 . S
C1326 C1325 1.349 . S
C1326 C1338 1.349 . S
C1327 C1325 1.327 . S
C1327 C1343 1.429 . S
C1327 H1349 0.950 . S
C1328 H1324 0.949 . S
C1328 C1336 1.574 . S
C1328 C1344 1.368 . S
H1329 C1337 0.950 . S
H1330 C1335 0.950 . S
H1331 C1336 0.949 . S
H1332 C1338 0.950 . S
H1333 C1339 0.950 . S
H1334 C1340 0.949 . S
C1335 H1330 0.950 . S
C1335 C1337 1.327 . S
C1335 C1341 1.429 . S
C1336 C1328 1.574 . S
C1336 H1331 0.949 . S
C1336 C1342 1.368 . S
C1337 C1321 1.349 . S
C1337 H1329 0.950 . S
C1337 C1335 1.327 . S
C1338 C1326 1.349 . S
C1338 H1332 0.950 . S
C1338 C1339 1.327 . S
C1339 H1333 0.950 . S
C1339 C1338 1.327 . S
C1339 C1343 1.429 . S
C1340 C1323 1.574 . S
C1340 H1334 0.949 . S
C1340 C1344 1.368 . S
C1341 C1322 1.429 . S
C1341 C1335 1.429 . S
C1341 C1342 1.523 . S
C1342 C1323 1.368 . S
C1342 C1336 1.368 . S
C1342 C1341 1.523 . S
C1343 C1327 1.429 . S
C1343 C1339 1.429 . S
C1343 C1344 1.523 . S
C1344 C1328 1.368 . S
C1344 C1340 1.368 . S
C1344 C1343 1.523 . S
H1345 C1320 0.950 . S
H1346 C1322 0.950 . S
H1347 C1323 0.949 . S
H1348 C1325 0.950 . S
H1349 C1327 0.950 . S
C1350 C1351 1.349 . S
C1350 C1352 1.327 . S
C1350 H1375 0.950 . S
C1351 C1350 1.349 . S
C1351 C1367 1.349 . S
C1352 C1350 1.327 . S
C1352 C1371 1.429 . S
C1352 H1376 0.950 . S
C1353 C1370 1.574 . S
C1353 C1372 1.368 . S
C1353 H1377 0.949 . S
H1354 C1358 0.949 . S
C1355 C1356 1.349 . S
C1355 C1357 1.327 . S
C1355 H1378 0.950 . S
C1356 C1355 1.349 . S
C1356 C1368 1.349 . S
C1357 C1355 1.327 . S
C1357 C1373 1.429 . S
C1357 H1379 0.950 . S
C1358 H1354 0.949 . S
C1358 C1366 1.574 . S
C1358 C1374 1.368 . S
H1359 C1367 0.950 . S
H1360 C1365 0.950 . S
H1361 C1366 0.949 . S
H1362 C1368 0.950 . S
H1363 C1369 0.950 . S
H1364 C1370 0.949 . S
C1365 H1360 0.950 . S
C1365 C1367 1.327 . S
C1365 C1371 1.429 . S
C1366 C1358 1.574 . S
C1366 H1361 0.949 . S
C1366 C1372 1.368 1_655 S
C1367 C1351 1.349 . S
C1367 H1359 0.950 . S
C1367 C1365 1.327 . S
C1368 C1356 1.349 . S
C1368 H1362 0.950 . S
C1368 C1369 1.327 . S
C1369 H1363 0.950 . S
C1369 C1368 1.327 . S
C1369 C1373 1.429 . S
C1370 C1353 1.574 . S
C1370 H1364 0.949 . S
C1370 C1374 1.368 1_455 S
C1371 C1352 1.429 . S
C1371 C1365 1.429 . S
C1371 C1372 1.523 . S
C1372 C1353 1.368 . S
C1372 C1366 1.368 1_455 S
C1372 C1371 1.523 . S
C1373 C1357 1.429 . S
C1373 C1369 1.429 . S
C1373 C1374 1.523 . S
C1374 C1358 1.368 . S
C1374 C1370 1.368 1_655 S
C1374 C1373 1.523 . S
H1375 C1350 0.950 . S
H1376 C1352 0.950 . S
H1377 C1353 0.949 . S
H1378 C1355 0.950 . S
H1379 C1357 0.950 . S
C1380 C1381 1.349 . S
C1380 C1382 1.327 . S
C1380 H1405 0.950 . S
C1381 C1380 1.349 . S
C1381 C1397 1.349 . S
C1382 C1380 1.327 . S
C1382 C1401 1.429 . S
C1382 H1406 0.950 . S
C1383 C1400 1.574 . S
C1383 C1402 1.368 . S
C1383 H1407 0.949 . S
H1384 C1388 0.949 . S
C1385 C1386 1.349 . S
C1385 C1387 1.327 . S
C1385 H1408 0.950 . S
C1386 C1385 1.349 . S
C1386 C1398 1.349 . S
C1387 C1385 1.327 . S
C1387 C1403 1.429 . S
C1387 H1409 0.950 . S
C1388 H1384 0.949 . S
C1388 C1396 1.574 . S
C1388 C1404 1.368 . S
H1389 C1397 0.950 . S
H1390 C1395 0.950 . S
H1391 C1396 0.949 . S
H1392 C1398 0.950 . S
H1393 C1399 0.950 . S
H1394 C1400 0.949 . S
C1395 H1390 0.950 . S
C1395 C1397 1.327 . S
C1395 C1401 1.429 . S
C1396 C1388 1.574 . S
C1396 H1391 0.949 . S
C1396 C1402 1.368 . S
C1397 C1381 1.349 . S
C1397 H1389 0.950 . S
C1397 C1395 1.327 . S
C1398 C1386 1.349 . S
C1398 H1392 0.950 . S
C1398 C1399 1.327 . S
C1399 H1393 0.950 . S
C1399 C1398 1.327 . S
C1399 C1403 1.429 . S
C1400 C1383 1.574 . S
C1400 H1394 0.949 . S
C1400 C1404 1.368 . S
C1401 C1382 1.429 . S
C1401 C1395 1.429 . S
C1401 C1402 1.523 . S
C1402 C1383 1.368 . S
C1402 C1396 1.368 . S
C1402 C1401 1.523 . S
C1403 C1387 1.429 . S
C1403 C1399 1.429 . S
C1403 C1404 1.523 . S
C1404 C1388 1.368 . S
C1404 C1400 1.368 . S
C1404 C1403 1.523 . S
H1405 C1380 0.950 . S
H1406 C1382 0.950 . S
H1407 C1383 0.949 . S
H1408 C1385 0.950 . S
H1409 C1387 0.950 . S
C1410 C1411 1.349 . S
C1410 C1412 1.327 . S
C1410 H1435 0.950 . S
C1411 C1410 1.349 . S
C1411 C1427 1.349 . S
C1412 C1410 1.327 . S
C1412 C1431 1.429 . S
C1412 H1436 0.950 . S
C1413 C1430 1.574 . S
C1413 C1432 1.368 . S
C1413 H1437 0.949 . S
H1414 C1418 0.949 . S
C1415 C1416 1.349 . S
C1415 C1417 1.327 . S
C1415 H1438 0.950 . S
C1416 C1415 1.349 . S
C1416 C1428 1.349 . S
C1417 C1415 1.327 . S
C1417 C1433 1.429 . S
C1417 H1439 0.950 . S
C1418 H1414 0.949 . S
C1418 C1426 1.574 . S
C1418 C1434 1.368 . S
H1419 C1427 0.950 . S
H1420 C1425 0.950 . S
H1421 C1426 0.949 . S
H1422 C1428 0.950 . S
H1423 C1429 0.950 . S
H1424 C1430 0.949 . S
C1425 H1420 0.950 . S
C1425 C1427 1.327 . S
C1425 C1431 1.429 . S
C1426 C1418 1.574 . S
C1426 H1421 0.949 . S
C1426 C1432 1.368 . S
C1427 C1411 1.349 . S
C1427 H1419 0.950 . S
C1427 C1425 1.327 . S
C1428 C1416 1.349 . S
C1428 H1422 0.950 . S
C1428 C1429 1.327 . S
C1429 H1423 0.950 . S
C1429 C1428 1.327 . S
C1429 C1433 1.429 . S
C1430 C1413 1.574 . S
C1430 H1424 0.949 . S
C1430 C1434 1.368 . S
C1431 C1412 1.429 . S
C1431 C1425 1.429 . S
C1431 C1432 1.523 . S
C1432 C1413 1.368 . S
C1432 C1426 1.368 . S
C1432 C1431 1.523 . S
C1433 C1417 1.429 . S
C1433 C1429 1.429 . S
C1433 C1434 1.523 . S
C1434 C1418 1.368 . S
C1434 C1430 1.368 . S
C1434 C1433 1.523 . S
H1435 C1410 0.950 . S
H1436 C1412 0.950 . S
H1437 C1413 0.949 . S
H1438 C1415 0.950 . S
H1439 C1417 0.950 . S
C1440 C1441 1.349 . S
C1440 C1442 1.327 . S
C1440 H1465 0.950 . S
C1441 C1440 1.349 . S
C1441 C1457 1.349 . S
C1442 C1440 1.327 . S
C1442 C1461 1.429 . S
C1442 H1466 0.950 . S
C1443 C1460 1.574 . S
C1443 C1462 1.368 . S
C1443 H1467 0.949 . S
H1444 C1448 0.949 . S
C1445 C1446 1.349 . S
C1445 C1447 1.327 . S
C1445 H1468 0.950 . S
C1446 C1445 1.349 . S
C1446 C1458 1.349 . S
C1447 C1445 1.327 . S
C1447 C1463 1.429 . S
C1447 H1469 0.950 . S
C1448 H1444 0.949 . S
C1448 C1456 1.574 . S
C1448 C1464 1.368 . S
H1449 C1457 0.950 . S
H1450 C1455 0.950 . S
H1451 C1456 0.949 . S
H1452 C1458 0.950 . S
H1453 C1459 0.950 . S
H1454 C1460 0.949 . S
C1455 H1450 0.950 . S
C1455 C1457 1.327 . S
C1455 C1461 1.429 . S
C1456 C1448 1.574 . S
C1456 H1451 0.949 . S
C1456 C1462 1.368 . S
C1457 C1441 1.349 . S
C1457 H1449 0.950 . S
C1457 C1455 1.327 . S
C1458 C1446 1.349 . S
C1458 H1452 0.950 . S
C1458 C1459 1.327 . S
C1459 H1453 0.950 . S
C1459 C1458 1.327 . S
C1459 C1463 1.429 . S
C1460 C1443 1.574 . S
C1460 H1454 0.949 . S
C1460 C1464 1.368 . S
C1461 C1442 1.429 . S
C1461 C1455 1.429 . S
C1461 C1462 1.523 . S
C1462 C1443 1.368 . S
C1462 C1456 1.368 . S
C1462 C1461 1.523 . S
C1463 C1447 1.429 . S
C1463 C1459 1.429 . S
C1463 C1464 1.523 . S
C1464 C1448 1.368 . S
C1464 C1460 1.368 . S
C1464 C1463 1.523 . S
H1465 C1440 0.950 . S
H1466 C1442 0.950 . S
H1467 C1443 0.949 . S
H1468 C1445 0.950 . S
H1469 C1447 0.950 . S
C1470 C1471 1.349 . S
C1470 C1472 1.327 . S
C1470 H1495 0.950 . S
C1471 C1470 1.349 . S
C1471 C1487 1.349 . S
C1472 C1470 1.327 . S
C1472 C1491 1.429 . S
C1472 H1496 0.950 . S
C1473 C1490 1.574 . S
C1473 C1492 1.368 . S
C1473 H1497 0.949 . S
H1474 C1478 0.949 . S
C1475 C1476 1.349 . S
C1475 C1477 1.327 . S
C1475 H1498 0.950 . S
C1476 C1475 1.349 . S
C1476 C1488 1.349 . S
C1477 C1475 1.327 . S
C1477 C1493 1.429 . S
C1477 H1499 0.950 . S
C1478 H1474 0.949 . S
C1478 C1486 1.574 . S
C1478 C1494 1.368 . S
H1479 C1487 0.950 . S
H1480 C1485 0.950 . S
H1481 C1486 0.949 . S
H1482 C1488 0.950 . S
H1483 C1489 0.950 . S
H1484 C1490 0.949 . S
C1485 H1480 0.950 . S
C1485 C1487 1.327 . S
C1485 C1491 1.429 . S
C1486 C1478 1.574 . S
C1486 H1481 0.949 . S
C1486 C1492 1.368 . S
C1487 C1471 1.349 . S
C1487 H1479 0.950 . S
C1487 C1485 1.327 . S
C1488 C1476 1.349 . S
C1488 H1482 0.950 . S
C1488 C1489 1.327 . S
C1489 H1483 0.950 . S
C1489 C1488 1.327 . S
C1489 C1493 1.429 . S
C1490 C1473 1.574 . S
C1490 H1484 0.949 . S
C1490 C1494 1.368 . S
C1491 C1472 1.429 . S
C1491 C1485 1.429 . S
C1491 C1492 1.523 . S
C1492 C1473 1.368 . S
C1492 C1486 1.368 . S
C1492 C1491 1.523 . S
C1493 C1477 1.429 . S
C1493 C1489 1.429 . S
C1493 C1494 1.523 . S
C1494 C1478 1.368 . S
C1494 C1490 1.368 . S
C1494 C1493 1.523 . S
H1495 C1470 0.950 . S
H1496 C1472 0.950 . S
H1497 C1473 0.949 . S
H1498 C1475 0.950 . S
H1499 C1477 0.950 . S
C1500 C1501 1.349 . S
C1500 C1502 1.327 . S
C1500 H1525 0.950 . S
C1501 C1500 1.349 . S
C1501 C1517 1.349 . S
C1502 C1500 1.327 . S
C1502 C1521 1.429 . S
C1502 H1526 0.950 . S
C1503 C1520 1.574 . S
C1503 C1522 1.368 . S
C1503 H1527 0.949 . S
H1504 C1508 0.949 . S
C1505 C1506 1.349 . S
C1505 C1507 1.327 . S
C1505 H1528 0.950 . S
C1506 C1505 1.349 . S
C1506 C1518 1.349 . S
C1507 C1505 1.327 . S
C1507 C1523 1.429 . S
C1507 H1529 0.950 . S
C1508 H1504 0.949 . S
C1508 C1516 1.574 . S
C1508 C1524 1.368 . S
H1509 C1517 0.950 . S
H1510 C1515 0.950 . S
H1511 C1516 0.949 . S
H1512 C1518 0.950 . S
H1513 C1519 0.950 . S
H1514 C1520 0.949 . S
C1515 H1510 0.950 . S
C1515 C1517 1.327 . S
C1515 C1521 1.429 . S
C1516 C1508 1.574 . S
C1516 H1511 0.949 . S
C1516 C1522 1.368 . S
C1517 C1501 1.349 . S
C1517 H1509 0.950 . S
C1517 C1515 1.327 . S
C1518 C1506 1.349 . S
C1518 H1512 0.950 . S
C1518 C1519 1.327 . S
C1519 H1513 0.950 . S
C1519 C1518 1.327 . S
C1519 C1523 1.429 . S
C1520 C1503 1.574 . S
C1520 H1514 0.949 . S
C1520 C1524 1.368 . S
C1521 C1502 1.429 . S
C1521 C1515 1.429 . S
C1521 C1522 1.523 . S
C1522 C1503 1.368 . S
C1522 C1516 1.368 . S
C1522 C1521 1.523 . S
C1523 C1507 1.429 . S
C1523 C1519 1.429 . S
C1523 C1524 1.523 . S
C1524 C1508 1.368 . S
C1524 C1520 1.368 . S
C1524 C1523 1.523 . S
H1525 C1500 0.950 . S
H1526 C1502 0.950 . S
H1527 C1503 0.949 . S
H1528 C1505 0.950 . S
H1529 C1507 0.950 . S
C1530 C1531 1.349 . S
C1530 C1532 1.327 . S
C1530 H1555 0.950 . S
C1531 C1530 1.349 . S
C1531 C1547 1.349 . S
C1532 C1530 1.327 . S
C1532 C1551 1.429 . S
C1532 H1556 0.950 . S
C1533 C1550 1.574 . S
C1533 C1552 1.368 . S
C1533 H1557 0.949 . S
H1534 C1538 0.949 . S
C1535 C1536 1.349 . S
C1535 C1537 1.327 . S
C1535 H1558 0.950 . S
C1536 C1535 1.349 . S
C1536 C1548 1.349 . S
C1537 C1535 1.327 . S
C1537 C1553 1.429 . S
C1537 H1559 0.950 . S
C1538 H1534 0.949 . S
C1538 C1546 1.574 . S
C1538 C1554 1.368 . S
H1539 C1547 0.950 . S
H1540 C1545 0.950 . S
H1541 C1546 0.949 . S
H1542 C1548 0.950 . S
H1543 C1549 0.950 . S
H1544 C1550 0.949 . S
C1545 H1540 0.950 . S
C1545 C1547 1.327 . S
C1545 C1551 1.429 . S
C1546 C1538 1.574 . S
C1546 H1541 0.949 . S
C1546 C1552 1.368 . S
C1547 C1531 1.349 . S
C1547 H1539 0.950 . S
C1547 C1545 1.327 . S
C1548 C1536 1.349 . S
C1548 H1542 0.950 . S
C1548 C1549 1.327 . S
C1549 H1543 0.950 . S
C1549 C1548 1.327 . S
C1549 C1553 1.429 . S
C1550 C1533 1.574 . S
C1550 H1544 0.949 . S
C1550 C1554 1.368 . S
C1551 C1532 1.429 . S
C1551 C1545 1.429 . S
C1551 C1552 1.523 . S
C1552 C1533 1.368 . S
C1552 C1546 1.368 . S
C1552 C1551 1.523 . S
C1553 C1537 1.429 . S
C1553 C1549 1.429 . S
C1553 C1554 1.523 . S
C1554 C1538 1.368 . S
C1554 C1550 1.368 . S
C1554 C1553 1.523 . S
H1555 C1530 0.950 . S
H1556 C1532 0.950 . S
H1557 C1533 0.949 . S
H1558 C1535 0.950 . S
H1559 C1537 0.950 . S
C481 C17 0.973 . S
C486 C337 0.973 . S
C511 C57 0.973 . S
C516 C377 0.973 . S
C541 C97 0.974 . S
C546 C417 0.974 . S
C571 C457 0.973 . S
C576 C137 0.973 . S
C601 C177 0.973 . S
C606 C257 0.973 . S
C631 C297 0.974 . S
C636 C217 0.974 . S
C661 C429 1.676 . S
C666 C29 1.676 . S
C691 C469 1.676 . S
C696 C69 1.676 . S
C721 C109 1.676 . S
C726 C269 1.676 . S
C751 C309 1.676 . S
C756 C149 1.676 . S
C781 C349 1.676 . S
C786 C189 1.676 . S
C811 C229 1.676 . S
C816 C389 1.676 . S
C841 C292 4.280 . S
C846 C12 4.280 . S
C871 C332 4.280 . S
C876 C52 4.280 . S
C901 C372 4.280 . S
C906 C92 4.280 . S
C931 C132 4.280 . S
C936 C412 4.280 . S
C961 C172 4.280 . S
C966 C452 4.280 . S
C991 C212 4.280 . S
C996 C252 4.280 . S
C1021 C2 0.738 . S
C1026 C122 0.738 . S
C1051 C42 0.738 . S
C1056 C162 0.738 . S
C1081 C82 0.738 . S
C1086 C202 0.738 . S
C1111 C362 0.738 . S
C1116 C242 0.738 . S
C1141 C282 0.738 . S
C1146 C402 0.738 . S
C1171 C442 0.738 . S
C1176 C322 0.738 . S
C1201 C288 0.651 . S
C1206 C8 0.651 . S
C1231 C328 0.651 . S
C1236 C48 0.651 . S
C1261 C88 0.651 . S
C1266 C368 0.651 . S
C1291 C408 0.651 . S
C1296 C128 0.651 . S
C1321 C448 0.651 . S
C1326 C168 0.651 . S
C1351 C208 0.651 . S
C1356 C248 0.651 . S
C1381 C31 4.512 . S
C1386 C431 4.512 . S
C1411 C71 4.512 . S
C1416 C471 4.512 1_556 S
C1441 C111 4.512 1_554 S
C1446 C271 4.512 . S
C1471 C151 4.512 . S
C1476 C311 4.512 . S
C1501 C191 4.512 . S
C1506 C351 4.512 1_556 S
C1531 C391 4.512 . S
C1536 C231 4.512 1_554 S
