# Generated by pormake.
# Topology wgj, (5)-cn, num edge types: 1
# Building blocks:
#     Node 0, Type 0, BuildingBlock: XOMCOT_clean_sbu_1, # of connection points: 5
#     Node 1, Type 0, BuildingBlock: XOMCOT_clean_sbu_1, # of connection points: 5
#     Node 2, Type 0, BuildingBlock: XOMCOT_clean_sbu_1, # of connection points: 5
#     Node 3, Type 0, BuildingBlock: XOMCOT_clean_sbu_1, # of connection points: 5
#     Node 4, Type 0, BuildingBlock: XOMCOT_clean_sbu_1, # of connection points: 5
#     Node 5, Type 0, BuildingBlock: XOMCOT_clean_sbu_1, # of connection points: 5
#     Node 6, Type 0, BuildingBlock: XOMCOT_clean_sbu_1, # of connection points: 5
#     Node 7, Type 0, BuildingBlock: XOMCOT_clean_sbu_1, # of connection points: 5
#     Node 8, Type 0, BuildingBlock: XOMCOT_clean_sbu_1, # of connection points: 5
#     Node 9, Type 0, BuildingBlock: XOMCOT_clean_sbu_1, # of connection points: 5
#     Node 10, Type 0, BuildingBlock: XOMCOT_clean_sbu_1, # of connection points: 5
#     Node 11, Type 0, BuildingBlock: XOMCOT_clean_sbu_1, # of connection points: 5
#     Node 12, Type 0, BuildingBlock: XOMCOT_clean_sbu_1, # of connection points: 5
#     Node 13, Type 0, BuildingBlock: XOMCOT_clean_sbu_1, # of connection points: 5
#     Node 14, Type 0, BuildingBlock: XOMCOT_clean_sbu_1, # of connection points: 5
#     Node 15, Type 0, BuildingBlock: XOMCOT_clean_sbu_1, # of connection points: 5
#     Node 16, Type 0, BuildingBlock: XOMCOT_clean_sbu_1, # of connection points: 5
#     Node 17, Type 0, BuildingBlock: XOMCOT_clean_sbu_1, # of connection points: 5
#     Node 18, Type 0, BuildingBlock: XOMCOT_clean_sbu_1, # of connection points: 5
#     Node 19, Type 0, BuildingBlock: XOMCOT_clean_sbu_1, # of connection points: 5
#     Node 20, Type 0, BuildingBlock: XOMCOT_clean_sbu_1, # of connection points: 5
#     Node 21, Type 0, BuildingBlock: XOMCOT_clean_sbu_1, # of connection points: 5
#     Node 22, Type 0, BuildingBlock: XOMCOT_clean_sbu_1, # of connection points: 5
#     Node 23, Type 0, BuildingBlock: XOMCOT_clean_sbu_1, # of connection points: 5
#     Node 24, Type 0, BuildingBlock: XOMCOT_clean_sbu_1, # of connection points: 5
#     Node 25, Type 0, BuildingBlock: XOMCOT_clean_sbu_1, # of connection points: 5
#     Node 26, Type 0, BuildingBlock: XOMCOT_clean_sbu_1, # of connection points: 5
#     Node 27, Type 0, BuildingBlock: XOMCOT_clean_sbu_1, # of connection points: 5
#     Node 28, Type 0, BuildingBlock: XOMCOT_clean_sbu_1, # of connection points: 5
#     Node 29, Type 0, BuildingBlock: XOMCOT_clean_sbu_1, # of connection points: 5
#     Node 30, Type 0, BuildingBlock: XOMCOT_clean_sbu_1, # of connection points: 5
#     Node 31, Type 0, BuildingBlock: XOMCOT_clean_sbu_1, # of connection points: 5
#     Edge 32, Type (0, 0), BuildingBlock: OJICUG_clean_linker_0, # of connection points: 2
#     Edge 33, Type (0, 0), BuildingBlock: OJICUG_clean_linker_0, # of connection points: 2
#     Edge 34, Type (0, 0), BuildingBlock: OJICUG_clean_linker_0, # of connection points: 2
#     Edge 35, Type (0, 0), BuildingBlock: OJICUG_clean_linker_0, # of connection points: 2
#     Edge 36, Type (0, 0), BuildingBlock: OJICUG_clean_linker_0, # of connection points: 2
#     Edge 37, Type (0, 0), BuildingBlock: OJICUG_clean_linker_0, # of connection points: 2
#     Edge 38, Type (0, 0), BuildingBlock: OJICUG_clean_linker_0, # of connection points: 2
#     Edge 39, Type (0, 0), BuildingBlock: OJICUG_clean_linker_0, # of connection points: 2
#     Edge 40, Type (0, 0), BuildingBlock: OJICUG_clean_linker_0, # of connection points: 2
#     Edge 41, Type (0, 0), BuildingBlock: OJICUG_clean_linker_0, # of connection points: 2
#     Edge 42, Type (0, 0), BuildingBlock: OJICUG_clean_linker_0, # of connection points: 2
#     Edge 43, Type (0, 0), BuildingBlock: OJICUG_clean_linker_0, # of connection points: 2
#     Edge 44, Type (0, 0), BuildingBlock: OJICUG_clean_linker_0, # of connection points: 2
#     Edge 45, Type (0, 0), BuildingBlock: OJICUG_clean_linker_0, # of connection points: 2
#     Edge 46, Type (0, 0), BuildingBlock: OJICUG_clean_linker_0, # of connection points: 2
#     Edge 47, Type (0, 0), BuildingBlock: OJICUG_clean_linker_0, # of connection points: 2
#     Edge 48, Type (0, 0), BuildingBlock: OJICUG_clean_linker_0, # of connection points: 2
#     Edge 49, Type (0, 0), BuildingBlock: OJICUG_clean_linker_0, # of connection points: 2
#     Edge 50, Type (0, 0), BuildingBlock: OJICUG_clean_linker_0, # of connection points: 2
#     Edge 51, Type (0, 0), BuildingBlock: OJICUG_clean_linker_0, # of connection points: 2
#     Edge 52, Type (0, 0), BuildingBlock: OJICUG_clean_linker_0, # of connection points: 2
#     Edge 53, Type (0, 0), BuildingBlock: OJICUG_clean_linker_0, # of connection points: 2
#     Edge 54, Type (0, 0), BuildingBlock: OJICUG_clean_linker_0, # of connection points: 2
#     Edge 55, Type (0, 0), BuildingBlock: OJICUG_clean_linker_0, # of connection points: 2
#     Edge 56, Type (0, 0), BuildingBlock: OJICUG_clean_linker_0, # of connection points: 2
#     Edge 57, Type (0, 0), BuildingBlock: OJICUG_clean_linker_0, # of connection points: 2
#     Edge 58, Type (0, 0), BuildingBlock: OJICUG_clean_linker_0, # of connection points: 2
#     Edge 59, Type (0, 0), BuildingBlock: OJICUG_clean_linker_0, # of connection points: 2
#     Edge 60, Type (0, 0), BuildingBlock: OJICUG_clean_linker_0, # of connection points: 2
#     Edge 61, Type (0, 0), BuildingBlock: OJICUG_clean_linker_0, # of connection points: 2
#     Edge 62, Type (0, 0), BuildingBlock: OJICUG_clean_linker_0, # of connection points: 2
#     Edge 63, Type (0, 0), BuildingBlock: OJICUG_clean_linker_0, # of connection points: 2
#     Edge 64, Type (0, 0), BuildingBlock: OJICUG_clean_linker_0, # of connection points: 2
#     Edge 65, Type (0, 0), BuildingBlock: OJICUG_clean_linker_0, # of connection points: 2
#     Edge 66, Type (0, 0), BuildingBlock: OJICUG_clean_linker_0, # of connection points: 2
#     Edge 67, Type (0, 0), BuildingBlock: OJICUG_clean_linker_0, # of connection points: 2
#     Edge 68, Type (0, 0), BuildingBlock: OJICUG_clean_linker_0, # of connection points: 2
#     Edge 69, Type (0, 0), BuildingBlock: OJICUG_clean_linker_0, # of connection points: 2
#     Edge 70, Type (0, 0), BuildingBlock: OJICUG_clean_linker_0, # of connection points: 2
#     Edge 71, Type (0, 0), BuildingBlock: OJICUG_clean_linker_0, # of connection points: 2
#     Edge 72, Type (0, 0), BuildingBlock: OJICUG_clean_linker_0, # of connection points: 2
#     Edge 73, Type (0, 0), BuildingBlock: OJICUG_clean_linker_0, # of connection points: 2
#     Edge 74, Type (0, 0), BuildingBlock: OJICUG_clean_linker_0, # of connection points: 2
#     Edge 75, Type (0, 0), BuildingBlock: OJICUG_clean_linker_0, # of connection points: 2
#     Edge 76, Type (0, 0), BuildingBlock: OJICUG_clean_linker_0, # of connection points: 2
#     Edge 77, Type (0, 0), BuildingBlock: OJICUG_clean_linker_0, # of connection points: 2
#     Edge 78, Type (0, 0), BuildingBlock: OJICUG_clean_linker_0, # of connection points: 2
#     Edge 79, Type (0, 0), BuildingBlock: OJICUG_clean_linker_0, # of connection points: 2
#     Edge 80, Type (0, 0), BuildingBlock: OJICUG_clean_linker_0, # of connection points: 2
#     Edge 81, Type (0, 0), BuildingBlock: OJICUG_clean_linker_0, # of connection points: 2
#     Edge 82, Type (0, 0), BuildingBlock: OJICUG_clean_linker_0, # of connection points: 2
#     Edge 83, Type (0, 0), BuildingBlock: OJICUG_clean_linker_0, # of connection points: 2
#     Edge 84, Type (0, 0), BuildingBlock: OJICUG_clean_linker_0, # of connection points: 2
#     Edge 85, Type (0, 0), BuildingBlock: OJICUG_clean_linker_0, # of connection points: 2
#     Edge 86, Type (0, 0), BuildingBlock: OJICUG_clean_linker_0, # of connection points: 2
#     Edge 87, Type (0, 0), BuildingBlock: OJICUG_clean_linker_0, # of connection points: 2
#     Edge 88, Type (0, 0), BuildingBlock: OJICUG_clean_linker_0, # of connection points: 2
#     Edge 89, Type (0, 0), BuildingBlock: OJICUG_clean_linker_0, # of connection points: 2
#     Edge 90, Type (0, 0), BuildingBlock: OJICUG_clean_linker_0, # of connection points: 2
#     Edge 91, Type (0, 0), BuildingBlock: OJICUG_clean_linker_0, # of connection points: 2
#     Edge 92, Type (0, 0), BuildingBlock: OJICUG_clean_linker_0, # of connection points: 2
#     Edge 93, Type (0, 0), BuildingBlock: OJICUG_clean_linker_0, # of connection points: 2
#     Edge 94, Type (0, 0), BuildingBlock: OJICUG_clean_linker_0, # of connection points: 2
#     Edge 95, Type (0, 0), BuildingBlock: OJICUG_clean_linker_0, # of connection points: 2
#     Edge 96, Type (0, 0), BuildingBlock: OJICUG_clean_linker_0, # of connection points: 2
#     Edge 97, Type (0, 0), BuildingBlock: OJICUG_clean_linker_0, # of connection points: 2
#     Edge 98, Type (0, 0), BuildingBlock: OJICUG_clean_linker_0, # of connection points: 2
#     Edge 99, Type (0, 0), BuildingBlock: OJICUG_clean_linker_0, # of connection points: 2
#     Edge 100, Type (0, 0), BuildingBlock: OJICUG_clean_linker_0, # of connection points: 2
#     Edge 101, Type (0, 0), BuildingBlock: OJICUG_clean_linker_0, # of connection points: 2
#     Edge 102, Type (0, 0), BuildingBlock: OJICUG_clean_linker_0, # of connection points: 2
#     Edge 103, Type (0, 0), BuildingBlock: OJICUG_clean_linker_0, # of connection points: 2
#     Edge 104, Type (0, 0), BuildingBlock: OJICUG_clean_linker_0, # of connection points: 2
#     Edge 105, Type (0, 0), BuildingBlock: OJICUG_clean_linker_0, # of connection points: 2
#     Edge 106, Type (0, 0), BuildingBlock: OJICUG_clean_linker_0, # of connection points: 2
#     Edge 107, Type (0, 0), BuildingBlock: OJICUG_clean_linker_0, # of connection points: 2
#     Edge 108, Type (0, 0), BuildingBlock: OJICUG_clean_linker_0, # of connection points: 2
#     Edge 109, Type (0, 0), BuildingBlock: OJICUG_clean_linker_0, # of connection points: 2
#     Edge 110, Type (0, 0), BuildingBlock: OJICUG_clean_linker_0, # of connection points: 2
#     Edge 111, Type (0, 0), BuildingBlock: OJICUG_clean_linker_0, # of connection points: 2
# Relax obj value: 0.278
# Max RMSD: 0.146
# Mean RMSD: 0.146
data_MOF--net-wgj--node1-XOMCOT_clean_sbu_1--edge1-OJICUG_clean_linker_0
_symmetry_space_group_name_H-M    P1
_symmetry_Int_Tables_number       1
_symmetry_cell_setting            triclinic
loop_
_symmetry_equiv_pos_as_xyz
'x, y, z'
_cell_length_a     51.243239
_cell_length_b     51.251118
_cell_length_c     21.319312
_cell_angle_alpha  89.990302
_cell_angle_beta   89.964495
_cell_angle_gamma 89.961954
loop_
_atom_site_label
_atom_site_type_symbol
_atom_site_fract_x
_atom_site_fract_y
_atom_site_fract_z
_atom_type_partial_charge
C0 C 0.20258 0.19684 0.27019 0.0
C1 C 0.21964 0.216 0.25092 0.0
N2 N 0.23391 0.22343 0.30088 0.0
N3 N 0.20636 0.19217 0.33169 0.0
C4 C 0.22578 0.20838 0.34882 0.0
H5 H 0.18711 0.18831 0.24247 0.0
Co6 Co 0.18417 0.17371 0.38313 0.0
C7 C 0.21616 0.16487 0.50175 0.0
O8 O 0.19542 0.1657 0.53798 0.0
N9 N 0.16062 0.15491 0.43349 0.0
C10 C 0.13985 0.12078 0.47443 0.0
C11 C 0.1639 0.13105 0.45916 0.0
C12 C 0.13448 0.15864 0.43383 0.0
N13 N 0.1213 0.13811 0.45773 0.0
O14 O 0.1931 0.14224 0.33763 0.0
H15 H 0.18235 0.12083 0.46159 0.0
H16 H 0.12504 0.17473 0.41033 0.0
O17 O 0.21355 0.16778 0.44235 0.0
C18 C 0.1747 0.13362 0.30302 0.0
O19 O 0.1517 0.14482 0.30657 0.0
N20 N 0.17404 0.20568 0.4199 0.0
C21 C 0.16203 0.25882 0.43055 0.0
C22 C 0.18086 0.24725 0.46964 0.0
C23 C 0.18663 0.2206 0.4636 0.0
C24 C 0.15509 0.2165 0.38331 0.0
C25 C 0.14858 0.24282 0.38829 0.0
H26 H 0.20267 0.21295 0.4904 0.0
H27 H 0.14637 0.20501 0.3463 0.0
H28 H 0.23272 0.2103 0.39647 0.0
H29 H 0.22007 0.22513 0.20515 0.0
H30 H 0.13629 0.10143 0.49288 0.0
H31 H 0.19181 0.25892 0.50278 0.0
H32 H 0.13436 0.25091 0.35612 0.0
C33 C 0.08753 0.95196 0.52071 0.0
C34 C 0.06854 0.9692 0.50143 0.0
N35 N 0.06139 0.98374 0.55123 0.0
N36 N 0.09238 0.95589 0.58207 0.0
C37 C 0.07647 0.97558 0.59907 0.0
H38 H 0.09581 0.93628 0.49317 0.0
Co39 Co 0.11059 0.93354 0.63362 0.0
C40 C 0.11924 0.96536 0.75246 0.0
O41 O 0.11782 0.94462 0.78855 0.0
N42 N 0.12916 0.90983 0.6841 0.0
C43 C 0.16322 0.88891 0.72499 0.0
C44 C 0.15296 0.91301 0.7101 0.0
C45 C 0.12543 0.8837 0.68397 0.0
N46 N 0.14593 0.87043 0.70777 0.0
O47 O 0.14218 0.9422 0.5884 0.0
H48 H 0.16319 0.93143 0.71288 0.0
H49 H 0.1094 0.87434 0.66012 0.0
O50 O 0.11667 0.96283 0.69296 0.0
C51 C 0.15066 0.92373 0.55371 0.0
O52 O 0.13926 0.90085 0.55718 0.0
N53 N 0.07847 0.92368 0.67006 0.0
C54 C 0.0252 0.9121 0.67949 0.0
C55 C 0.03668 0.93097 0.71854 0.0
C56 C 0.0634 0.93655 0.71309 0.0
C57 C 0.06771 0.90473 0.63347 0.0
C58 C 0.04132 0.89842 0.63786 0.0
H59 H 0.071 0.95264 0.73973 0.0
H60 H 0.0793 0.89585 0.59681 0.0
H61 H 0.07475 0.98271 0.64662 0.0
H62 H 0.05928 0.96957 0.4558 0.0
H63 H 0.18254 0.88527 0.74347 0.0
H64 H 0.02491 0.9421 0.7512 0.0
H65 H 0.03332 0.88417 0.60568 0.0
C66 C 0.33163 0.83811 0.77021 0.0
C67 C 0.31406 0.8194 0.75116 0.0
N68 N 0.29954 0.81245 0.80118 0.0
N69 N 0.32796 0.84299 0.83165 0.0
C70 C 0.30806 0.82739 0.84893 0.0
H71 H 0.34739 0.8461 0.74244 0.0
Co72 Co 0.35082 0.86066 0.88294 0.0
C73 C 0.31935 0.86864 1.00307 0.0
O74 O 0.33999 0.8661 1.03911 0.0
N75 N 0.37508 0.87865 0.93307 0.0
C76 C 0.39633 0.91091 0.98099 0.0
C77 C 0.3721 0.90128 0.96476 0.0
C78 C 0.40124 0.87525 0.92979 0.0
N79 N 0.41459 0.89463 0.95798 0.0
O80 O 0.34236 0.89258 0.83902 0.0
H81 H 0.35369 0.91125 0.97131 0.0
H82 H 0.41051 0.86002 0.90282 0.0
O83 O 0.32188 0.86685 0.94339 0.0
C84 C 0.36069 0.90031 0.80297 0.0
O85 O 0.38306 0.88784 0.8043 0.0
N86 N 0.36051 0.82826 0.91819 0.0
C87 C 0.37217 0.77497 0.927 0.0
C88 C 0.35324 0.78637 0.96609 0.0
C89 C 0.3476 0.81307 0.96089 0.0
C90 C 0.37946 0.81755 0.88139 0.0
C91 C 0.38581 0.79116 0.88546 0.0
H92 H 0.33143 0.82055 0.98749 0.0
H93 H 0.38829 0.82919 0.84479 0.0
H94 H 0.30107 0.82572 0.89661 0.0
H95 H 0.31347 0.81014 0.70555 0.0
H96 H 0.40025 0.92947 1.0033 0.0
H97 H 0.34212 0.77455 0.99865 0.0
H98 H 0.40007 0.78322 0.85318 0.0
C99 C 0.44736 0.08252 1.02079 0.0
C100 C 0.46622 0.06512 1.00156 0.0
N101 N 0.47332 0.05064 1.05147 0.0
N102 N 0.44254 0.07876 0.08223 0.0
C103 C 0.45835 0.059 0.09935 0.0
H104 H 0.43919 0.09822 0.99313 0.0
Co105 Co 0.42452 0.10139 0.13349 0.0
C106 C 0.41622 0.06971 0.25312 0.0
O107 O 0.41844 0.09035 0.28928 0.0
N108 N 0.40617 0.12544 0.18351 0.0
C109 C 0.37354 0.1465 0.23064 0.0
C110 C 0.38338 0.12233 0.21452 0.0
C111 C 0.40945 0.1516 0.18051 0.0
N112 N 0.38985 0.16484 0.20822 0.0
O113 O 0.39281 0.09281 0.08883 0.0
H114 H 0.37348 0.10388 0.22061 0.0
H115 H 0.42476 0.16096 0.15399 0.0
O116 O 0.41829 0.07228 0.19348 0.0
C117 C 0.38502 0.11112 1.05281 0.0
O118 O 0.39727 0.13359 1.05455 0.0
N119 N 0.45674 0.11118 0.16957 0.0
C120 C 0.50996 0.12292 0.17979 0.0
C121 C 0.49844 0.10393 0.21845 0.0
C122 C 0.47177 0.09826 0.21254 0.0
C123 C 0.46755 0.13022 0.13326 0.0
C124 C 0.49391 0.13662 0.13806 0.0
H125 H 0.46424 0.08203 0.2388 0.0
H126 H 0.45605 0.13909 0.09646 0.0
H127 H 0.46011 0.05198 0.14699 0.0
H128 H 0.47545 0.06461 0.95588 0.0
H129 H 0.35483 0.15032 0.25241 0.0
H130 H 0.51014 0.09276 0.25114 0.0
H131 H 0.50197 0.15094 0.10612 0.0
C132 C 0.20178 0.83747 0.34899 0.0
C133 C 0.21889 0.81836 0.36834 0.0
N134 N 0.23347 0.81118 0.31862 0.0
N135 N 0.20583 0.84236 0.28767 0.0
C136 C 0.22546 0.82634 0.27077 0.0
H137 H 0.1861 0.84582 0.37644 0.0
Co138 Co 0.18367 0.86071 0.23592 0.0
C139 C 0.21573 0.86939 0.11742 0.0
O140 O 0.19502 0.86827 0.0812 0.0
N141 N 0.16015 0.87942 0.1852 0.0
C142 C 0.13947 0.91354 0.14389 0.0
C143 C 0.16349 0.90325 0.15945 0.0
C144 C 0.13402 0.8757 0.18455 0.0
N145 N 0.12089 0.89623 0.16045 0.0
O146 O 0.19239 0.89223 0.28129 0.0
H147 H 0.18193 0.91347 0.15722 0.0
H148 H 0.12452 0.85963 0.20798 0.0
O149 O 0.2131 0.86666 0.17687 0.0
C150 C 0.17388 0.90086 0.31564 0.0
O151 O 0.15089 0.88971 0.31167 0.0
N152 N 0.17373 0.82869 0.19937 0.0
C153 C 0.16217 0.77542 0.19032 0.0
C154 C 0.18104 0.78687 0.15116 0.0
C155 C 0.1866 0.81359 0.1564 0.0
C156 C 0.15472 0.81797 0.23593 0.0
C157 C 0.14843 0.79158 0.23176 0.0
H158 H 0.2027 0.82118 0.12971 0.0
H159 H 0.14581 0.8296 0.27246 0.0
H160 H 0.23266 0.82462 0.22327 0.0
H161 H 0.21915 0.80908 0.41394 0.0
H162 H 0.13594 0.93288 0.12538 0.0
H163 H 0.1922 0.77508 0.1186 0.0
H164 H 0.13416 0.78361 0.26398 0.0
C165 C 0.44722 0.95247 0.59903 0.0
C166 C 0.46635 0.96955 0.61823 0.0
N167 N 0.47364 0.98394 0.56831 0.0
N168 N 0.44243 0.95636 0.53762 0.0
C169 C 0.45852 0.97587 0.5205 0.0
H170 H 0.43881 0.9369 0.62668 0.0
Co171 Co 0.42406 0.93415 0.48613 0.0
C172 C 0.41529 0.96612 0.36748 0.0
O173 O 0.41633 0.94539 0.33129 0.0
N174 N 0.40534 0.91058 0.43572 0.0
C175 C 0.37123 0.88984 0.39467 0.0
C176 C 0.3815 0.91388 0.40998 0.0
C177 C 0.40906 0.88444 0.43539 0.0
N178 N 0.38854 0.87129 0.41142 0.0
O179 O 0.39255 0.94295 0.53158 0.0
H180 H 0.37128 0.93232 0.40753 0.0
H181 H 0.42513 0.87499 0.45891 0.0
O182 O 0.41807 0.96352 0.42691 0.0
C183 C 0.38426 0.92448 0.56649 0.0
O184 O 0.39581 0.90166 0.56309 0.0
N185 N 0.45608 0.92413 0.44945 0.0
C186 C 0.50932 0.91241 0.43968 0.0
C187 C 0.4978 0.93123 0.40048 0.0
C188 C 0.47109 0.93686 0.40608 0.0
C189 C 0.46687 0.90519 0.48609 0.0
C190 C 0.49325 0.89882 0.48156 0.0
H191 H 0.46345 0.9529 0.37928 0.0
H192 H 0.45531 0.89638 0.52288 0.0
H193 H 0.46036 0.9829 0.47288 0.0
H194 H 0.47559 0.9699 0.66386 0.0
H195 H 0.3519 0.8863 0.37617 0.0
H196 H 0.50952 0.94227 0.36758 0.0
H197 H 0.50128 0.8846 0.51381 0.0
C198 C 0.33236 0.19717 0.84857 0.0
C199 C 0.31488 0.21599 0.86771 0.0
N200 N 0.30029 0.22292 0.81785 0.0
N201 N 0.32853 0.19221 0.78723 0.0
C202 C 0.30865 0.20787 0.77011 0.0
H203 H 0.34815 0.18917 0.87617 0.0
Co204 Co 0.3513 0.17434 0.73594 0.0
C205 C 0.31974 0.16617 0.61613 0.0
O206 O 0.34039 0.16864 0.58003 0.0
N207 N 0.37549 0.15616 0.68585 0.0
C208 C 0.39665 0.12374 0.63812 0.0
C209 C 0.37245 0.13346 0.65447 0.0
C210 C 0.40165 0.1595 0.68884 0.0
N211 N 0.41496 0.14003 0.66074 0.0
O212 O 0.34282 0.14255 0.7804 0.0
H213 H 0.35402 0.12353 0.64821 0.0
H214 H 0.41097 0.17477 0.71551 0.0
O215 O 0.32226 0.16807 0.6758 0.0
C216 C 0.36115 0.13484 0.81646 0.0
O217 O 0.38356 0.14722 0.81476 0.0
N218 N 0.36098 0.20663 0.70013 0.0
C219 C 0.37253 0.25992 0.69079 0.0
C220 C 0.35356 0.24846 0.65201 0.0
C221 C 0.34798 0.22176 0.65749 0.0
C222 C 0.37999 0.21739 0.73657 0.0
C223 C 0.38629 0.24378 0.73223 0.0
H224 H 0.33176 0.21425 0.63119 0.0
H225 H 0.3889 0.20581 0.77317 0.0
H226 H 0.30157 0.2095 0.72251 0.0
H227 H 0.31442 0.22532 0.91325 0.0
H228 H 0.40053 0.10513 0.61597 0.0
H229 H 0.34235 0.26024 0.61955 0.0
H230 H 0.40059 0.25178 0.76426 0.0
C231 C 0.08894 0.08089 0.09967 0.0
C232 C 0.06979 0.06373 0.11839 0.0
N233 N 0.06182 0.05023 0.06764 0.0
N234 N 0.0931 0.07794 1.0377 0.0
C235 C 0.07654 0.05896 1.0197 0.0
H236 H 0.09777 0.09592 0.12822 0.0
Co237 Co 0.11124 0.10057 0.98667 0.0
C238 C 0.12001 0.06895 0.86694 0.0
O239 O 0.11973 0.08972 0.83082 0.0
N240 N 0.12963 0.12446 0.93667 0.0
C241 C 0.16341 0.14567 0.89551 0.0
C242 C 0.15343 0.12148 0.91045 0.0
C243 C 0.12563 0.15054 0.93706 0.0
N244 N 0.14598 0.16399 0.91305 0.0
O245 O 0.14297 0.09154 1.03096 0.0
H246 H 0.16381 0.10314 0.90738 0.0
H247 H 0.10945 0.15967 0.96108 0.0
O248 O 0.11689 0.07154 0.92629 0.0
C249 C 0.15112 0.10992 0.06631 0.0
O250 O 0.13923 0.1326 0.0639 0.0
N251 N 0.07911 0.1109 0.95149 0.0
C252 C 0.02591 0.12232 0.94369 0.0
C253 C 0.03777 0.10582 0.89947 0.0
C254 C 0.06448 0.10002 0.90464 0.0
C255 C 0.06804 0.12821 0.99213 0.0
C256 C 0.04153 0.13408 0.98934 0.0
H257 H 0.07246 0.08537 0.87409 0.0
H258 H 0.07957 0.13596 1.03032 0.0
H259 H 0.07416 0.05282 0.97152 0.0
H260 H 0.06104 0.06272 0.16455 0.0
H261 H 0.18265 0.14946 0.87667 0.0
H262 H 0.02617 0.09617 0.86394 0.0
H263 H 0.0331 0.14696 1.0242 0.0
C264 C 0.83214 0.83791 0.84831 0.0
C265 C 0.81485 0.81894 0.86745 0.0
N266 N 0.80041 0.81182 0.8175 0.0
N267 N 0.82834 0.84276 0.7869 0.0
C268 C 0.80868 0.82687 0.76971 0.0
H269 H 0.84777 0.84615 0.876 0.0
Co270 Co 0.85071 0.86101 0.73557 0.0
C271 C 0.81898 0.86977 0.61651 0.0
O272 O 0.83977 0.86849 0.58052 0.0
N273 N 0.87447 0.87963 0.68533 0.0
C274 C 0.89539 0.91369 0.64448 0.0
C275 C 0.87128 0.90345 0.65936 0.0
C276 C 0.9006 0.87589 0.68551 0.0
N277 N 0.91387 0.89638 0.6617 0.0
O278 O 0.84194 0.89256 0.78085 0.0
H279 H 0.85286 0.91369 0.65652 0.0
H280 H 0.90996 0.85984 0.70933 0.0
O281 O 0.82147 0.86711 0.67602 0.0
C282 C 0.86035 0.90077 0.81599 0.0
O283 O 0.88315 0.88915 0.81286 0.0
N284 N 0.86069 0.82893 0.69909 0.0
C285 C 0.87248 0.7757 0.68922 0.0
C286 C 0.85361 0.78722 0.65017 0.0
C287 C 0.84794 0.81392 0.65583 0.0
C288 C 0.87963 0.81813 0.73572 0.0
C289 C 0.88605 0.79177 0.73111 0.0
H290 H 0.83186 0.82154 0.62912 0.0
H291 H 0.88842 0.82967 0.77253 0.0
H292 H 0.80166 0.82513 0.72208 0.0
H293 H 0.81437 0.80968 0.91308 0.0
H294 H 0.89903 0.933 0.62594 0.0
H295 H 0.84257 0.77549 0.61732 0.0
H296 H 0.90029 0.78373 0.76328 0.0
C297 C 0.947 0.08246 0.59819 0.0
C298 C 0.96576 0.06496 0.61744 0.0
N299 N 0.97266 0.05029 0.56767 0.0
N300 N 0.94203 0.07857 0.53688 0.0
C301 C 0.95765 0.05863 0.51988 0.0
H302 H 0.93903 0.09831 0.62568 0.0
Co303 Co 0.92425 0.10126 0.48532 0.0
C304 C 0.91619 0.06939 0.36571 0.0
O305 O 0.91854 0.08994 0.32927 0.0
N306 N 0.90616 0.12541 0.43493 0.0
C307 C 0.87385 0.14658 0.3869 0.0
C308 C 0.88352 0.12238 0.40337 0.0
C309 C 0.90953 0.15156 0.4379 0.0
N310 N 0.89012 0.16488 0.40963 0.0
O311 O 0.8924 0.09286 0.52966 0.0
H312 H 0.87357 0.10396 0.39707 0.0
H313 H 0.92477 0.16087 0.46471 0.0
O314 O 0.91809 0.07212 0.42534 0.0
C315 C 0.8846 0.11122 0.56556 0.0
O316 O 0.89687 0.13367 0.56362 0.0
N317 N 0.95662 0.11089 0.44971 0.0
C318 C 1.00995 0.12235 0.44087 0.0
C319 C 0.99853 0.1034 0.40196 0.0
C320 C 0.9718 0.09787 0.40717 0.0
C321 C 0.96734 0.12988 0.48626 0.0
C322 C 0.99376 0.13613 0.48217 0.0
H323 H 0.96428 0.08168 0.38074 0.0
H324 H 0.95571 0.13881 0.52276 0.0
H325 H 0.95928 0.0515 0.47232 0.0
H326 H 0.97509 0.06453 0.66298 0.0
H327 H 0.85527 0.15046 0.36462 0.0
H328 H 1.01034 0.09218 0.36957 0.0
H329 H 1.00171 0.15042 0.5143 0.0
C330 C 0.70412 0.1958 0.3504 0.0
C331 C 0.72111 0.21509 0.36908 0.0
N332 N 0.73444 0.22327 0.31823 0.0
N333 N 0.70703 0.19177 0.28837 0.0
C334 C 0.72579 0.20855 0.27027 0.0
H335 H 0.68922 0.18678 0.37903 0.0
Co336 Co 0.68457 0.17343 0.23749 0.0
C337 C 0.71632 0.16478 0.11769 0.0
O338 O 0.69556 0.16464 0.08155 0.0
N339 N 0.66083 0.15484 0.18766 0.0
C340 C 0.63972 0.12101 0.14661 0.0
C341 C 0.66389 0.13104 0.16159 0.0
C342 C 0.63474 0.15879 0.18797 0.0
N343 N 0.62135 0.13841 0.16398 0.0
O344 O 0.69396 0.14178 0.28182 0.0
H345 H 0.68226 0.12071 0.15859 0.0
H346 H 0.62556 0.17496 0.21185 0.0
O347 O 0.71365 0.16806 0.17697 0.0
C348 C 0.67574 0.13324 0.31719 0.0
O349 O 0.65282 0.14464 0.31473 0.0
N350 N 0.67391 0.20548 0.20225 0.0
C351 C 0.66198 0.25856 0.19375 0.0
C352 C 0.67843 0.24672 0.14938 0.0
C353 C 0.68448 0.22007 0.15488 0.0
C354 C 0.65664 0.21651 0.24308 0.0
C355 C 0.65052 0.24296 0.23994 0.0
H356 H 0.69906 0.21211 0.12407 0.0
H357 H 0.6491 0.20502 0.28159 0.0
H358 H 0.73182 0.2111 0.22203 0.0
H359 H 0.72212 0.22378 0.41529 0.0
H360 H 0.63598 0.10176 0.12782 0.0
H361 H 0.68786 0.2583 0.11342 0.0
H362 H 0.6377 0.25137 0.27496 0.0
C363 C 0.58927 0.95355 0.09918 0.0
C364 C 0.57034 0.97094 0.1181 0.0
N365 N 0.5624 0.98452 0.06743 0.0
N366 N 0.59334 0.95646 1.03716 0.0
C367 C 0.57695 0.97562 1.01933 0.0
H368 H 0.59797 0.9384 0.12762 0.0
Co369 Co 0.61099 0.93348 0.98602 0.0
C370 C 0.61909 0.96518 0.86543 0.0
O371 O 0.6179 0.94458 0.82883 0.0
N372 N 0.62885 0.90913 0.93604 0.0
C373 C 0.66097 0.88746 0.88868 0.0
C374 C 0.65159 0.91182 0.90465 0.0
C375 C 0.62511 0.88304 0.93942 0.0
N376 N 0.64442 0.86941 0.91156 0.0
O377 O 0.64305 0.94228 1.02911 0.0
H378 H 0.66176 0.9301 0.89818 0.0
H379 H 0.60963 0.87408 0.96626 0.0
O380 O 0.61664 0.96237 0.92493 0.0
C381 C 0.65112 0.92404 0.06504 0.0
O382 O 0.63896 0.90152 0.06379 0.0
N383 N 0.57857 0.92338 0.95197 0.0
C384 C 0.52536 0.91192 0.94483 0.0
C385 C 0.53709 0.92847 0.90056 0.0
C386 C 0.56379 0.93431 0.90544 0.0
C387 C 0.5676 0.90612 0.99287 0.0
C388 C 0.54109 0.90022 0.9904 0.0
H389 H 0.57163 0.949 0.87485 0.0
H390 H 0.57921 0.89839 1.03095 0.0
H391 H 0.5745 0.98175 0.97116 0.0
H392 H 0.56167 0.97201 0.16434 0.0
H393 H 0.67955 0.88329 0.86663 0.0
H394 H 0.5254 0.93813 0.86516 0.0
H395 H 0.53276 0.88733 1.02536 0.0
C396 C 0.83271 0.19731 0.77076 0.0
C397 C 0.81513 0.21601 0.75158 0.0
N398 N 0.80055 0.22293 0.80151 0.0
N399 N 0.82895 0.1924 0.83217 0.0
C400 C 0.80903 0.20801 0.84933 0.0
H401 H 0.84848 0.18928 0.74307 0.0
Co402 Co 0.85163 0.17445 0.88332 0.0
C403 C 0.81998 0.16626 1.00316 0.0
O404 O 0.84062 0.16864 1.03924 0.0
N405 N 0.87575 0.15615 0.93321 0.0
C406 C 0.89684 0.12355 0.98031 0.0
C407 C 0.87265 0.13343 0.96447 0.0
C408 C 0.90191 0.15936 0.92982 0.0
N409 N 0.91518 0.13977 0.95748 0.0
O410 O 0.84306 0.14273 0.83867 0.0
H411 H 0.85419 0.12357 0.97089 0.0
H412 H 0.91125 0.1746 0.90305 0.0
O413 O 0.82254 0.16819 0.94349 0.0
C414 C 0.86132 0.13494 0.80245 0.0
O415 O 0.88381 0.14717 0.80406 0.0
N416 N 0.8614 0.20671 0.91935 0.0
C417 C 0.87322 0.25992 0.92987 0.0
C418 C 0.85412 0.24842 0.96824 0.0
C419 C 0.8484 0.22177 0.96218 0.0
C420 C 0.88052 0.21751 0.88323 0.0
C421 C 0.88697 0.24386 0.8882 0.0
H422 H 0.83209 0.21427 0.9882 0.0
H423 H 0.88943 0.20602 0.84645 0.0
H424 H 0.80195 0.20965 0.89695 0.0
H425 H 0.81455 0.22525 0.70595 0.0
H426 H 0.90067 0.10487 1.0022 0.0
H427 H 0.8429 0.26013 1.00083 0.0
H428 H 0.90137 0.25191 0.85645 0.0
C429 C 0.58997 0.08021 0.51891 0.0
C430 C 0.57108 0.06275 0.50035 0.0
N431 N 0.5631 0.04937 0.55132 0.0
N432 N 0.59397 0.07757 0.58101 0.0
C433 C 0.57758 0.05848 0.59925 0.0
H434 H 0.59866 0.09526 0.49015 0.0
Co435 Co 0.61148 0.10074 0.6318 0.0
C436 C 0.61948 0.06926 0.75293 0.0
O437 O 0.61838 0.08988 0.78947 0.0
N438 N 0.6292 0.12525 0.68144 0.0
C439 C 0.6611 0.1471 0.72899 0.0
C440 C 0.65185 0.12269 0.71318 0.0
C441 C 0.62539 0.15133 0.67763 0.0
N442 N 0.64456 0.16507 0.70564 0.0
O443 O 0.64365 0.0918 0.58913 0.0
H444 H 0.66206 0.10444 0.7201 0.0
H445 H 0.60993 0.16019 0.65051 0.0
O446 O 0.61705 0.07204 0.69343 0.0
C447 C 0.65173 0.10992 0.55287 0.0
O448 O 0.63946 0.1324 0.55341 0.0
N449 N 0.57898 0.11093 0.66546 0.0
C450 C 0.52576 0.1225 0.6727 0.0
C451 C 0.53754 0.10617 0.71736 0.0
C452 C 0.56424 0.10028 0.71244 0.0
C453 C 0.56796 0.12798 0.62411 0.0
C454 C 0.54145 0.13393 0.62662 0.0
H455 H 0.57213 0.08577 0.74349 0.0
H456 H 0.57955 0.13554 0.58578 0.0
H457 H 0.57508 0.05257 0.64756 0.0
H458 H 0.56245 0.06149 0.45412 0.0
H459 H 0.67957 0.15135 0.75135 0.0
H460 H 0.52589 0.09673 0.7532 0.0
H461 H 0.53309 0.14666 0.59136 0.0
C462 C 0.70206 0.83771 0.26987 0.0
C463 C 0.71932 0.81872 0.25061 0.0
N464 N 0.73379 0.81155 0.30049 0.0
N465 N 0.70591 0.84253 0.33126 0.0
C466 C 0.72556 0.82658 0.34836 0.0
H467 H 0.68645 0.84604 0.24223 0.0
Co468 Co 0.68366 0.86094 0.38258 0.0
C469 C 0.71549 0.86977 0.50141 0.0
O470 O 0.69472 0.86866 0.53746 0.0
N471 N 0.66001 0.87972 0.43279 0.0
C472 C 0.63917 0.91387 0.47357 0.0
C473 C 0.66325 0.90356 0.45853 0.0
C474 C 0.63388 0.87602 0.4329 0.0
N475 N 0.62066 0.89657 0.45668 0.0
O476 O 0.69255 0.89241 0.337 0.0
H477 H 0.68169 0.91377 0.46111 0.0
H478 H 0.62447 0.85996 0.40931 0.0
O479 O 0.71298 0.86698 0.44195 0.0
C480 C 0.67423 0.90119 0.30233 0.0
O481 O 0.65112 0.89025 0.30601 0.0
N482 N 0.6736 0.82893 0.41939 0.0
C483 C 0.66175 0.77574 0.43015 0.0
C484 C 0.68068 0.78731 0.4689 0.0
C485 C 0.68638 0.81398 0.46279 0.0
C486 C 0.65459 0.81808 0.38308 0.0
C487 C 0.64814 0.79174 0.38815 0.0
H488 H 0.70249 0.82161 0.48928 0.0
H489 H 0.64577 0.82956 0.34616 0.0
H490 H 0.73262 0.82483 0.39595 0.0
H491 H 0.71979 0.80952 0.20493 0.0
H492 H 0.63558 0.93321 0.49197 0.0
H493 H 0.69176 0.77564 0.50182 0.0
H494 H 0.63385 0.78366 0.3562 0.0
C495 C 0.94643 0.95292 1.01981 0.0
C496 C 0.96527 0.97035 1.0007 0.0
N497 N 0.97244 0.98469 1.05078 0.0
N498 N 0.94168 0.95653 0.08135 0.0
C499 C 0.95751 0.97623 0.09862 0.0
H500 H 0.93825 0.93729 0.99201 0.0
Co501 Co 0.92391 0.93375 0.13271 0.0
C502 C 0.91582 0.9655 0.25266 0.0
O503 O 0.91793 0.94492 0.28907 0.0
N504 N 0.90583 0.90954 0.18287 0.0
C505 C 0.87345 0.88824 0.23031 0.0
C506 C 0.88315 0.91249 0.21443 0.0
C507 C 0.90919 0.88339 0.17935 0.0
N508 N 0.88973 0.87 0.2072 0.0
O509 O 0.89202 0.94233 0.08875 0.0
H510 H 0.8732 0.9309 0.22105 0.0
H511 H 0.92445 0.87416 0.15235 0.0
O512 O 0.91784 0.96279 0.19305 0.0
C513 C 0.8842 0.92405 1.05271 0.0
O514 O 0.89654 0.90161 1.0541 0.0
N515 N 0.95627 0.92395 0.168 0.0
C516 C 1.00956 0.91227 0.17683 0.0
C517 C 0.99811 0.93105 0.21624 0.0
C518 C 0.9714 0.93669 0.21106 0.0
C519 C 0.96701 0.90511 0.13095 0.0
C520 C 0.99341 0.89876 0.13502 0.0
H521 H 0.96385 0.95272 0.23801 0.0
H522 H 0.9554 0.89638 0.0942 0.0
H523 H 0.95936 0.9831 0.14636 0.0
H524 H 0.97447 0.97094 0.955 0.0
H525 H 0.85484 0.88431 0.25241 0.0
H526 H 1.00989 0.94206 0.24904 0.0
H527 H 1.00139 0.88459 0.10255 0.0
C528 C 0.70381 0.69568 0.76856 0.0
C529 C 0.72102 0.71479 0.74987 0.0
N530 N 0.73449 0.72276 0.80067 0.0
N531 N 0.70672 0.69155 0.83054 0.0
C532 C 0.72569 0.70808 0.8486 0.0
H533 H 0.68881 0.68683 0.73996 0.0
Co534 Co 0.68411 0.67335 0.88143 0.0
C535 C 0.71573 0.6648 1.00141 0.0
O536 O 0.69495 0.66501 1.03756 0.0
N537 N 0.66022 0.65489 0.93128 0.0
C538 C 0.63898 0.62111 0.9723 0.0
C539 C 0.6632 0.63115 0.95768 0.0
C540 C 0.63412 0.65882 0.93048 0.0
N541 N 0.62065 0.63846 0.95439 0.0
O542 O 0.69339 0.64163 0.83727 0.0
H543 H 0.68156 0.62083 0.96109 0.0
H544 H 0.625 0.67493 0.90624 0.0
O545 O 0.71311 0.66786 0.94206 0.0
C546 C 0.67516 0.63314 0.80189 0.0
O547 O 0.65229 0.64465 0.80423 0.0
N548 N 0.67356 0.70548 0.91647 0.0
C549 C 0.6616 0.75857 0.92466 0.0
C550 C 0.67815 0.7468 0.96888 0.0
C551 C 0.68423 0.72015 0.9635 0.0
C552 C 0.65624 0.71646 0.87572 0.0
C553 C 0.65009 0.7429 0.87872 0.0
H554 H 0.6989 0.71226 0.99413 0.0
H555 H 0.64865 0.70491 0.83737 0.0
H556 H 0.7318 0.71046 0.8968 0.0
H557 H 0.7221 0.7235 0.70368 0.0
H558 H 0.63519 0.60188 0.99119 0.0
H559 H 0.68765 0.75844 1.00459 0.0
H560 H 0.6372 0.75126 0.84379 0.0
C561 C 0.58958 0.4537 1.01926 0.0
C562 C 0.5707 0.47117 1.00052 0.0
N563 N 0.5628 0.48471 1.0513 0.0
N564 N 0.59365 0.45651 0.08129 0.0
C565 C 0.5773 0.47569 0.09931 0.0
H566 H 0.59826 0.43858 0.99067 0.0
Co567 Co 0.61135 0.43349 0.13217 0.0
C568 C 0.61929 0.46503 0.25303 0.0
O569 O 0.61802 0.44439 0.28947 0.0
N570 N 0.62927 0.40913 0.18191 0.0
C571 C 0.66139 0.3875 0.22933 0.0
C572 C 0.65197 0.41185 0.2134 0.0
C573 C 0.6256 0.38304 0.17842 0.0
N574 N 0.64491 0.36943 0.20633 0.0
O575 O 0.6434 0.44247 0.08903 0.0
H576 H 0.66208 0.43015 0.22004 0.0
H577 H 0.61016 0.37405 0.15155 0.0
O578 O 0.61694 0.46231 0.1935 0.0
C579 C 0.65166 0.42432 1.05304 0.0
O580 O 0.63969 0.40169 1.05422 0.0
N581 N 0.57895 0.42324 0.16624 0.0
C582 C 0.52582 0.41132 0.17384 0.0
C583 C 0.53745 0.42797 0.21798 0.0
C584 C 0.5641 0.43404 0.21287 0.0
C585 C 0.56806 0.40592 0.12537 0.0
C586 C 0.54161 0.39979 0.12809 0.0
H587 H 0.57185 0.44881 0.24338 0.0
H588 H 0.5797 0.3983 0.08718 0.0
H589 H 0.57489 0.48176 0.14753 0.0
H590 H 0.56205 0.47235 0.95429 0.0
H591 H 0.67994 0.38336 0.2515 0.0
H592 H 0.52571 0.43753 0.25347 0.0
H593 H 0.53335 0.38686 0.09315 0.0
C594 C 0.83006 0.34002 0.26862 0.0
C595 C 0.81258 0.32115 0.25007 0.0
N596 N 0.79926 0.31314 0.30109 0.0
N597 N 0.82747 0.34398 0.33077 0.0
C598 C 0.80839 0.32759 0.34903 0.0
H599 H 0.8451 0.34872 0.23982 0.0
Co600 Co 0.85067 0.36144 0.38151 0.0
C601 C 0.81939 0.36928 0.50293 0.0
O602 O 0.84008 0.36795 0.53916 0.0
N603 N 0.87521 0.37912 0.43108 0.0
C604 C 0.89704 0.41104 0.47862 0.0
C605 C 0.87263 0.40174 0.46295 0.0
C606 C 0.9013 0.37537 0.42706 0.0
N607 N 0.91502 0.39456 0.45507 0.0
O608 O 0.84173 0.39362 0.33903 0.0
H609 H 0.85436 0.4119 0.47004 0.0
H610 H 0.91017 0.35996 0.39981 0.0
O611 O 0.82203 0.367 0.44335 0.0
C612 C 0.85983 0.40152 0.30247 0.0
O613 O 0.8822 0.38903 0.30265 0.0
N614 N 0.86089 0.32889 0.41497 0.0
C615 C 0.87251 0.27567 0.42185 0.0
C616 C 0.85612 0.28738 0.46653 0.0
C617 C 0.8502 0.31408 0.46178 0.0
C618 C 0.87797 0.31793 0.37358 0.0
C619 C 0.88394 0.29142 0.37591 0.0
H620 H 0.83563 0.3219 0.49279 0.0
H621 H 0.88554 0.32957 0.33533 0.0
H622 H 0.80253 0.32502 0.39737 0.0
H623 H 0.81129 0.31253 0.20382 0.0
H624 H 0.90127 0.42951 0.50104 0.0
H625 H 0.84667 0.27569 0.50224 0.0
H626 H 0.89671 0.28312 0.34063 0.0
C627 C 0.9469 0.58256 0.51922 0.0
C628 C 0.9658 0.5652 0.49997 0.0
N629 N 0.97294 0.55073 0.54988 0.0
N630 N 0.9421 0.57878 0.58067 0.0
C631 C 0.95796 0.55905 0.59777 0.0
H632 H 0.93864 0.59821 0.49155 0.0
Co633 Co 0.92392 0.6012 0.63208 0.0
C634 C 0.91539 0.56957 0.75141 0.0
O635 O 0.9168 0.59038 0.78725 0.0
N636 N 0.90537 0.625 0.68242 0.0
C637 C 0.87136 0.64591 0.72369 0.0
C638 C 0.88161 0.62181 0.70871 0.0
C639 C 0.90907 0.65114 0.68216 0.0
N640 N 0.8886 0.66439 0.70622 0.0
O641 O 0.89229 0.59241 0.58716 0.0
H642 H 0.87141 0.60338 0.71172 0.0
H643 H 0.92507 0.66051 0.65815 0.0
O644 O 0.91791 0.572 0.69185 0.0
C645 C 0.88363 0.61076 0.55239 0.0
O646 O 0.89482 0.63375 0.5556 0.0
N647 N 0.95608 0.61115 0.6682 0.0
C648 C 1.00938 0.62273 0.67733 0.0
C649 C 0.99789 0.6039 0.71654 0.0
C650 C 0.97117 0.59833 0.71123 0.0
C651 C 0.96684 0.63008 0.63146 0.0
C652 C 0.99324 0.63638 0.63569 0.0
H653 H 0.96358 0.58226 0.738 0.0
H654 H 0.95524 0.63893 0.59482 0.0
H655 H 0.95971 0.55201 0.64539 0.0
H656 H 0.975 0.56468 0.45426 0.0
H657 H 0.85207 0.64953 0.74248 0.0
H658 H 1.00965 0.5928 0.74925 0.0
H659 H 1.00124 0.65061 0.60341 0.0
C660 C 0.70306 0.33862 0.84948 0.0
C661 C 0.72021 0.31948 0.86834 0.0
N662 N 0.73381 0.3115 0.8177 0.0
N663 N 0.70613 0.34277 0.78754 0.0
C664 C 0.72513 0.32619 0.76966 0.0
H665 H 0.68801 0.34751 0.87793 0.0
Co666 Co 0.68368 0.36111 0.73657 0.0
C667 C 0.71554 0.36976 0.61687 0.0
O668 O 0.69481 0.36976 0.58061 0.0
N669 N 0.65991 0.37972 0.68668 0.0
C670 C 0.63878 0.41362 0.64581 0.0
C671 C 0.66295 0.40351 0.66055 0.0
C672 C 0.6338 0.37585 0.6872 0.0
N673 N 0.6204 0.39627 0.66335 0.0
O674 O 0.69299 0.39275 0.78103 0.0
H675 H 0.68133 0.4138 0.65742 0.0
H676 H 0.62462 0.35971 0.71118 0.0
O677 O 0.71282 0.36656 0.67617 0.0
C678 C 0.67479 0.40148 0.8162 0.0
O679 O 0.65175 0.39035 0.81346 0.0
N680 N 0.67311 0.32907 0.70123 0.0
C681 C 0.66123 0.27598 0.69271 0.0
C682 C 0.67785 0.28778 0.64866 0.0
C683 C 0.68388 0.31443 0.6542 0.0
C684 C 0.65572 0.31806 0.74176 0.0
C685 C 0.6496 0.29162 0.7386 0.0
H686 H 0.69859 0.32234 0.62371 0.0
H687 H 0.64805 0.32958 0.78012 0.0
H688 H 0.73137 0.32382 0.72154 0.0
H689 H 0.7212 0.31078 0.91456 0.0
H690 H 0.63504 0.43289 0.62707 0.0
H691 H 0.68743 0.27616 0.61298 0.0
H692 H 0.63667 0.28324 0.7734 0.0
C693 C 0.9459 0.45463 0.10023 0.0
C694 C 0.96493 0.47193 0.11884 0.0
N695 N 0.97277 0.4855 0.06805 0.0
N696 N 0.94169 0.45756 1.03829 0.0
C697 C 0.9581 0.47665 1.02017 0.0
H698 H 0.93719 0.43954 0.12883 0.0
Co699 Co 0.9236 0.43485 0.98757 0.0
C700 C 0.91496 0.46621 0.8673 0.0
O701 O 0.91533 0.44536 0.83145 0.0
N702 N 0.90522 0.41085 0.9379 0.0
C703 C 0.87152 0.38962 0.89656 0.0
C704 C 0.88149 0.41382 0.91144 0.0
C705 C 0.90919 0.38475 0.93858 0.0
N706 N 0.88889 0.3713 0.91441 0.0
O707 O 0.89183 0.44405 1.03166 0.0
H708 H 0.87114 0.43217 0.90804 0.0
H709 H 0.92532 0.37563 0.96275 0.0
O710 O 0.918 0.46374 0.9267 0.0
C711 C 0.88354 0.42584 0.06737 0.0
O712 O 0.89529 0.40309 0.06539 0.0
N713 N 0.95577 0.4244 0.9526 0.0
C714 C 1.00899 0.41289 0.94484 0.0
C715 C 0.99717 0.4294 0.90059 0.0
C716 C 0.97046 0.43525 0.90575 0.0
C717 C 0.96681 0.40712 0.99334 0.0
C718 C 0.99332 0.4012 0.99058 0.0
H719 H 0.96252 0.44991 0.87515 0.0
H720 H 0.95526 0.39941 1.03157 0.0
H721 H 0.96042 0.48281 0.97198 0.0
H722 H 0.97368 0.473 0.16496 0.0
H723 H 0.85233 0.38583 0.87746 0.0
H724 H 1.0088 0.43901 0.865 0.0
H725 H 1.00171 0.38833 1.02549 0.0
C726 C 0.8313 0.696 0.34849 0.0
C727 C 0.81394 0.71497 0.36733 0.0
N728 N 0.80029 0.7228 0.31667 0.0
N729 N 0.82831 0.69182 0.28655 0.0
C730 C 0.80914 0.70818 0.26867 0.0
H731 H 0.84644 0.68729 0.37695 0.0
Co732 Co 0.85103 0.67379 0.23553 0.0
C733 C 0.81944 0.66515 0.11563 0.0
O734 O 0.84021 0.66562 0.07947 0.0
N735 N 0.87503 0.65548 0.18557 0.0
C736 C 0.89636 0.62168 0.14477 0.0
C737 C 0.87212 0.63173 0.15914 0.0
C738 C 0.90113 0.6594 0.1866 0.0
N739 N 0.91465 0.63902 0.16286 0.0
O740 O 0.84204 0.64202 0.27968 0.0
H741 H 0.85378 0.6214 0.15565 0.0
H742 H 0.91019 0.6755 0.21096 0.0
O743 O 0.82203 0.66812 0.17501 0.0
C744 C 0.86037 0.63382 0.31519 0.0
O745 O 0.88306 0.64565 0.31289 0.0
N746 N 0.86129 0.70599 0.20051 0.0
C747 C 0.87261 0.75922 0.19299 0.0
C748 C 0.85606 0.74742 0.14886 0.0
C749 C 0.85031 0.72069 0.1539 0.0
C750 C 0.87862 0.71702 0.24111 0.0
C751 C 0.88444 0.74353 0.23845 0.0
H752 H 0.83561 0.71276 0.12345 0.0
H753 H 0.88642 0.70545 0.27919 0.0
H754 H 0.80291 0.7105 0.22054 0.0
H755 H 0.81287 0.72369 0.4135 0.0
H756 H 0.9002 0.60245 0.12598 0.0
H757 H 0.84633 0.75907 0.11349 0.0
H758 H 0.89735 0.75191 0.27327 0.0
C759 C 0.58938 0.58098 0.5992 0.0
C760 C 0.57031 0.56373 0.61794 0.0
N761 N 0.56235 0.55023 0.56717 0.0
N762 N 0.59349 0.57808 0.5372 0.0
C763 C 0.577 0.55906 0.5192 0.0
H764 H 0.59819 0.59601 0.62777 0.0
Co765 Co 0.61154 0.60075 0.48616 0.0
C766 C 0.62013 0.56899 0.36617 0.0
O767 O 0.61999 0.58969 0.3298 0.0
N768 N 0.62985 0.62474 0.43617 0.0
C769 C 0.66355 0.64608 0.39506 0.0
C770 C 0.65358 0.62184 0.40959 0.0
C771 C 0.62586 0.65083 0.43714 0.0
N772 N 0.64618 0.66436 0.41318 0.0
O773 O 0.64336 0.5916 0.53005 0.0
H774 H 0.66395 0.60351 0.40604 0.0
H775 H 0.60975 0.65989 0.46153 0.0
O776 O 0.61705 0.57174 0.4255 0.0
C777 C 0.65182 0.60985 0.5654 0.0
O778 O 0.64024 0.63268 0.56318 0.0
N779 N 0.57934 0.61117 0.45142 0.0
C780 C 0.52612 0.62268 0.44392 0.0
C781 C 0.53795 0.60628 0.39945 0.0
C782 C 0.56467 0.60043 0.40446 0.0
C783 C 0.5683 0.62838 0.49235 0.0
C784 C 0.54179 0.6343 0.48971 0.0
H785 H 0.57265 0.58588 0.3736 0.0
H786 H 0.57985 0.63604 0.53059 0.0
H787 H 0.5746 0.55295 0.471 0.0
H788 H 0.56161 0.56265 0.66415 0.0
H789 H 0.68276 0.64994 0.37608 0.0
H790 H 0.52633 0.59673 0.36378 0.0
H791 H 0.5334 0.64711 0.52477 0.0
C792 C 0.33044 0.33961 0.34913 0.0
C793 C 0.31297 0.32074 0.36788 0.0
N794 N 0.29948 0.31283 0.31708 0.0
N795 N 0.32767 0.34367 0.28708 0.0
C796 C 0.30851 0.32733 0.26907 0.0
H797 H 0.34556 0.34825 0.37772 0.0
Co798 Co 0.35078 0.36122 0.23605 0.0
C799 C 0.31922 0.36938 0.11533 0.0
O800 O 0.33984 0.36818 0.07876 0.0
N801 N 0.37521 0.37896 0.18614 0.0
C802 C 0.39696 0.41093 0.13848 0.0
C803 C 0.37258 0.40168 0.15467 0.0
C804 C 0.40129 0.37511 0.18941 0.0
N805 N 0.41497 0.39432 0.16131 0.0
O806 O 0.34202 0.39332 0.27905 0.0
H807 H 0.35432 0.41193 0.14822 0.0
H808 H 0.41022 0.35961 0.21625 0.0
O809 O 0.32199 0.36692 0.17483 0.0
C810 C 0.36028 0.40111 0.31521 0.0
O811 O 0.38264 0.38861 0.31423 0.0
N812 N 0.36084 0.32877 0.2021 0.0
C813 C 0.37226 0.27554 0.19501 0.0
C814 C 0.35581 0.2873 0.15059 0.0
C815 C 0.34999 0.31402 0.15544 0.0
C816 C 0.37801 0.31775 0.24315 0.0
C817 C 0.38389 0.29124 0.24071 0.0
H818 H 0.33538 0.3219 0.12469 0.0
H819 H 0.3857 0.32936 0.28129 0.0
H820 H 0.30249 0.32488 0.22083 0.0
H821 H 0.31179 0.31207 0.41411 0.0
H822 H 0.40118 0.42945 0.11626 0.0
H823 H 0.34623 0.27564 0.11506 0.0
H824 H 0.39671 0.28288 0.27578 0.0
C825 C 0.44764 0.58271 0.09816 0.0
C826 C 0.4667 0.56553 0.11739 0.0
N827 N 0.47387 0.55102 0.06757 0.0
N828 N 0.44276 0.57876 1.03682 0.0
C829 C 0.45875 0.55914 1.01975 0.0
H830 H 0.43931 0.59834 0.12575 0.0
Co831 Co 0.42423 0.60094 0.98552 0.0
C832 C 0.41533 0.56912 0.86693 0.0
O833 O 0.41655 0.58993 0.83102 0.0
N834 N 0.40533 0.62446 0.93532 0.0
C835 C 0.37108 0.64508 0.89445 0.0
C836 C 0.38145 0.62108 0.90986 0.0
C837 C 0.40896 0.6506 0.93473 0.0
N838 N 0.38835 0.66368 0.91085 0.0
O839 O 0.39286 0.59216 1.03152 0.0
H840 H 0.37129 0.60261 0.90765 0.0
H841 H 0.42504 0.66012 0.95799 0.0
O842 O 0.4181 0.57156 0.92642 0.0
C843 C 0.38462 0.61064 0.06648 0.0
O844 O 0.3961 0.63347 0.06279 0.0
N845 N 0.45615 0.61095 0.94828 0.0
C846 C 0.50932 0.62282 0.93739 0.0
C847 C 0.49778 0.60381 0.89886 0.0
C848 C 0.47112 0.59809 0.90504 0.0
C849 C 0.46696 0.63006 0.98434 0.0
C850 C 0.49329 0.63652 0.97921 0.0
H851 H 0.46352 0.58187 0.87882 0.0
H852 H 0.45547 0.63895 1.02117 0.0
H853 H 0.46047 0.552 0.97221 0.0
H854 H 0.47597 0.56516 0.163 0.0
H855 H 0.3517 0.64856 0.8761 0.0
H856 H 0.50947 0.59265 0.86609 0.0
H857 H 0.50135 0.65088 1.011 0.0
C858 C 0.20177 0.69717 0.84849 0.0
C859 C 0.21882 0.71632 0.86776 0.0
N860 N 0.23332 0.72357 0.81796 0.0
N861 N 0.20578 0.69232 0.78715 0.0
C862 C 0.22533 0.70839 0.77014 0.0
H863 H 0.18616 0.68878 0.87603 0.0
Co864 Co 0.18363 0.67393 0.73549 0.0
C865 C 0.21589 0.66516 0.61705 0.0
O866 O 0.19524 0.66609 0.58059 0.0
N867 N 0.1601 0.65521 0.68487 0.0
C868 C 0.13932 0.62113 0.64382 0.0
C869 C 0.16338 0.63137 0.65913 0.0
C870 C 0.13396 0.65897 0.68446 0.0
N871 N 0.12078 0.63846 0.66052 0.0
O872 O 0.19242 0.64243 0.78101 0.0
H873 H 0.18181 0.62113 0.65674 0.0
H874 H 0.12451 0.67506 0.70795 0.0
O875 O 0.21312 0.66798 0.67645 0.0
C876 C 0.17395 0.63372 0.81538 0.0
O877 O 0.15088 0.64473 0.81129 0.0
N878 N 0.17363 0.70593 0.69884 0.0
C879 C 0.16188 0.75916 0.68931 0.0
C880 C 0.18073 0.74768 0.6501 0.0
C881 C 0.18638 0.72097 0.65557 0.0
C882 C 0.15466 0.71669 0.73549 0.0
C883 C 0.14827 0.74305 0.73108 0.0
H884 H 0.20244 0.71335 0.62875 0.0
H885 H 0.14584 0.7051 0.77223 0.0
H886 H 0.23246 0.71016 0.72259 0.0
H887 H 0.2191 0.72559 0.91337 0.0
H888 H 0.13576 0.60179 0.62538 0.0
H889 H 0.19179 0.75944 0.6173 0.0
H890 H 0.13403 0.75105 0.76334 0.0
C891 C 0.08844 0.45317 0.59855 0.0
C892 C 0.06939 0.47048 0.61718 0.0
N893 N 0.06156 0.48406 0.56641 0.0
N894 N 0.09268 0.45612 0.53661 0.0
C895 C 0.07626 0.47521 0.51852 0.0
H896 H 0.0972 0.4381 0.62717 0.0
Co897 Co 0.11101 0.43353 0.48588 0.0
C898 C 0.11993 0.46524 0.36621 0.0
O899 O 0.11974 0.44451 0.32996 0.0
N900 N 0.12962 0.40966 0.43621 0.0
C901 C 0.16359 0.38847 0.39578 0.0
C902 C 0.15345 0.41267 0.41024 0.0
C903 C 0.12574 0.38356 0.43691 0.0
N904 N 0.1462 0.37013 0.41335 0.0
O905 O 0.1426 0.44266 0.53057 0.0
H906 H 0.16375 0.43103 0.40707 0.0
H907 H 0.10957 0.37442 0.46086 0.0
O908 O 0.11671 0.46257 0.42551 0.0
C909 C 0.15072 0.42435 0.56623 0.0
O910 O 0.13891 0.40165 0.56383 0.0
N911 N 0.079 0.4231 0.4503 0.0
C912 C 0.0259 0.41131 0.44168 0.0
C913 C 0.03772 0.42796 0.39776 0.0
C914 C 0.06439 0.43395 0.40335 0.0
C915 C 0.06796 0.40568 0.49071 0.0
C916 C 0.04151 0.39961 0.48748 0.0
H917 H 0.07233 0.4487 0.37302 0.0
H918 H 0.07945 0.39798 0.52905 0.0
H919 H 0.074 0.48141 0.47034 0.0
H920 H 0.06064 0.47158 0.66334 0.0
H921 H 0.18289 0.3847 0.37726 0.0
H922 H 0.02612 0.43761 0.36218 0.0
H923 H 0.0331 0.38665 0.52219 0.0
C924 C 0.33223 0.69689 0.27106 0.0
C925 C 0.3146 0.71557 0.25201 0.0
N926 N 0.30006 0.72248 0.30202 0.0
N927 N 0.32855 0.69199 0.33249 0.0
C928 C 0.30861 0.70755 0.34977 0.0
H929 H 0.348 0.68892 0.24328 0.0
Co930 Co 0.35145 0.67428 0.38372 0.0
C931 C 0.31979 0.6662 0.50378 0.0
O932 O 0.34036 0.66869 0.54006 0.0
N933 N 0.37577 0.65625 0.43375 0.0
C934 C 0.39708 0.62393 0.48138 0.0
C935 C 0.37282 0.63364 0.46556 0.0
C936 C 0.40192 0.65955 0.43003 0.0
N937 N 0.41532 0.64012 0.45801 0.0
O938 O 0.34304 0.64239 0.33965 0.0
H939 H 0.35441 0.62374 0.47241 0.0
H940 H 0.41115 0.67474 0.40287 0.0
O941 O 0.32245 0.66803 0.44413 0.0
C942 C 0.36135 0.63476 0.30339 0.0
O943 O 0.38366 0.6473 0.30461 0.0
N944 N 0.36108 0.70666 0.41911 0.0
C945 C 0.37262 0.75997 0.42801 0.0
C946 C 0.35369 0.74854 0.46703 0.0
C947 C 0.34812 0.72183 0.46179 0.0
C948 C 0.38003 0.7174 0.38239 0.0
C949 C 0.38632 0.7438 0.38651 0.0
H950 H 0.33196 0.71431 0.48836 0.0
H951 H 0.38889 0.70579 0.34578 0.0
H952 H 0.30161 0.70919 0.39744 0.0
H953 H 0.31398 0.72482 0.20639 0.0
H954 H 0.40101 0.60536 0.50368 0.0
H955 H 0.34252 0.76034 0.49955 0.0
H956 H 0.40059 0.75176 0.35428 0.0
C957 C 0.08817 0.58302 1.02103 0.0
C958 C 0.06913 0.56586 1.00166 0.0
N959 N 0.06189 0.55137 1.05145 0.0
N960 N 0.09295 0.57907 0.08242 0.0
C961 C 0.07694 0.55946 0.09936 0.0
H962 H 0.09653 0.59865 0.99351 0.0
Co963 Co 0.11122 0.60123 0.13416 0.0
C964 C 0.11987 0.56908 0.25265 0.0
O965 O 0.11865 0.58975 0.28898 0.0
N966 N 0.12985 0.62477 0.18485 0.0
C967 C 0.16389 0.64562 0.22586 0.0
C968 C 0.15367 0.62154 0.21072 0.0
C969 C 0.12607 0.6509 0.18503 0.0
N970 N 0.14656 0.66412 0.20891 0.0
O971 O 0.14278 0.59255 0.08869 0.0
H972 H 0.16393 0.60312 0.21326 0.0
H973 H 0.11002 0.6603 0.16131 0.0
O974 O 0.11723 0.57176 0.19319 0.0
C975 C 0.15137 0.61104 1.05426 0.0
O976 O 0.14021 0.63404 1.05826 0.0
N977 N 0.07914 0.61116 0.17079 0.0
C978 C 0.02594 0.6231 0.18111 0.0
C979 C 0.03744 0.60413 0.21994 0.0
C980 C 0.06412 0.59839 0.21406 0.0
C981 C 0.06836 0.63019 0.13438 0.0
C982 C 0.04202 0.63668 0.13922 0.0
H983 H 0.07171 0.58225 0.2406 0.0
H984 H 0.0799 0.63902 0.09757 0.0
H985 H 0.07513 0.55236 0.14692 0.0
H986 H 0.05991 0.56552 0.95599 0.0
H987 H 0.18323 0.64923 0.2443 0.0
H988 H 0.02571 0.59306 0.25276 0.0
H989 H 0.03399 0.651 0.10721 0.0
C990 C 0.20211 0.33787 0.77053 0.0
C991 C 0.21943 0.31892 0.75135 0.0
N992 N 0.23389 0.31177 0.80126 0.0
N993 N 0.2059 0.3427 0.83194 0.0
C994 C 0.2256 0.32682 0.84907 0.0
H995 H 0.18644 0.34609 0.74287 0.0
Co996 Co 0.18329 0.36075 0.88326 0.0
C997 C 0.21522 0.36893 1.0028 0.0
O998 O 0.19465 0.36691 1.03933 0.0
N999 N 0.15923 0.37909 0.93336 0.0
C1000 C 0.13812 0.41164 0.98067 0.0
C1001 C 0.16231 0.4018 0.96463 0.0
C1002 C 0.13306 0.37585 0.93016 0.0
N1003 N 0.11978 0.3954 0.95795 0.0
O1004 O 0.19199 0.39248 0.83869 0.0
H1005 H 0.18077 0.41167 0.97096 0.0
H1006 H 0.12373 0.36059 0.90345 0.0
O1007 O 0.21246 0.36683 0.94322 0.0
C1008 C 0.17374 0.40068 0.80301 0.0
O1009 O 0.15106 0.38884 0.80494 0.0
N1010 N 0.17341 0.32853 0.91924 0.0
C1011 C 0.16155 0.27534 0.92945 0.0
C1012 C 0.1805 0.28682 0.96823 0.0
C1013 C 0.18623 0.31347 0.96234 0.0
C1014 C 0.15439 0.31776 0.88281 0.0
C1015 C 0.14794 0.29141 0.8876 0.0
H1016 H 0.20241 0.32099 0.98875 0.0
H1017 H 0.14559 0.32928 0.84596 0.0
H1018 H 0.23262 0.32508 0.8967 0.0
H1019 H 0.21989 0.30968 0.70571 0.0
H1020 H 0.13428 0.4303 1.00263 0.0
H1021 H 0.1916 0.27509 1.001 0.0
H1022 H 0.13364 0.28338 0.85559 0.0
C1023 C 0.44712 0.45265 0.51943 0.0
C1024 C 0.46614 0.46989 0.50035 0.0
N1025 N 0.47329 0.48429 0.55034 0.0
N1026 N 0.44225 0.45645 0.58084 0.0
C1027 C 0.4582 0.47605 0.59811 0.0
H1028 H 0.43881 0.43708 0.49167 0.0
Co1029 Co 0.42383 0.43417 0.63204 0.0
C1030 C 0.41502 0.46583 0.75107 0.0
O1031 O 0.4162 0.44501 0.78693 0.0
N1032 N 0.40504 0.41054 0.68216 0.0
C1033 C 0.37096 0.3898 0.72344 0.0
C1034 C 0.38122 0.41383 0.70803 0.0
C1035 C 0.40877 0.38441 0.68249 0.0
N1036 N 0.38827 0.37125 0.70663 0.0
O1037 O 0.39236 0.4431 0.58653 0.0
H1038 H 0.37101 0.43228 0.71059 0.0
H1039 H 0.42484 0.37496 0.65893 0.0
O1040 O 0.41777 0.46341 0.69157 0.0
C1041 C 0.38377 0.42477 0.55168 0.0
O1042 O 0.39493 0.40175 0.55509 0.0
N1043 N 0.45583 0.42406 0.66879 0.0
C1044 C 0.50901 0.41211 0.67948 0.0
C1045 C 0.49744 0.43103 0.71832 0.0
C1046 C 0.47078 0.43679 0.71223 0.0
C1047 C 0.46668 0.40506 0.63239 0.0
C1048 C 0.49302 0.39856 0.63741 0.0
H1049 H 0.46316 0.45291 0.73878 0.0
H1050 H 0.4552 0.39626 0.59546 0.0
H1051 H 0.45993 0.48306 0.64575 0.0
H1052 H 0.4754 0.47037 0.45471 0.0
H1053 H 0.35165 0.38625 0.74212 0.0
H1054 H 0.50911 0.44207 0.75131 0.0
H1055 H 0.50111 0.38427 0.6054 0.0
C1056 C 0.15673 0.09045 0.17122 0.0
C1057 C 0.16748 0.10508 0.12191 0.0
H1058 H 0.15095 0.08832 0.2707 0.0
C1059 C 0.18757 0.12286 0.13535 0.0
H1060 H 0.14108 0.07678 0.16223 0.0
C1061 C 0.19399 0.12875 0.19762 0.0
C1062 C 0.17969 0.11758 0.24694 0.0
H1063 H 0.19593 0.13461 0.09816 0.0
H1064 H 0.20723 0.14478 0.20659 0.0
C1065 C 0.16244 0.09703 0.2335 0.0
C1066 C 0.18688 0.91109 0.48343 0.0
C1067 C 0.16663 0.92864 0.49749 0.0
H1068 H 0.20667 0.88963 0.41148 0.0
C1069 C 0.15558 0.94329 0.44862 0.0
H1070 H 0.19548 0.89933 0.52029 0.0
C1071 C 0.16126 0.937 0.38615 0.0
C1072 C 0.17874 0.9167 0.37207 0.0
H1073 H 0.13976 0.95675 0.45811 0.0
H1074 H 0.1496 0.94572 0.34928 0.0
C1075 C 0.19326 0.90549 0.42096 0.0
C1076 C 0.34125 0.90602 0.69818 0.0
C1077 C 0.35581 0.91676 0.74757 0.0
H1078 H 0.3391 0.90046 0.59866 0.0
C1079 C 0.37351 0.93695 0.73429 0.0
H1080 H 0.3277 0.89024 0.70706 0.0
C1081 C 0.37933 0.94354 0.67206 0.0
C1082 C 0.3682 0.92931 0.62262 0.0
H1083 H 0.38524 0.94527 0.77153 0.0
H1084 H 0.39531 0.95687 0.66316 0.0
C1085 C 0.34775 0.91192 0.63595 0.0
C1086 C 0.37385 0.09828 0.88549 0.0
C1087 C 0.35626 0.11857 0.87218 0.0
H1088 H 0.39562 0.07835 0.9566 0.0
C1089 C 0.34184 0.12953 0.92161 0.0
H1090 H 0.38547 0.08979 0.84822 0.0
C1091 C 0.3484 0.12372 0.98384 0.0
C1092 C 0.36875 0.10618 0.99714 0.0
H1093 H 0.32838 0.1454 0.9127 0.0
H1094 H 0.3399 0.13534 1.02109 0.0
C1095 C 0.37971 0.09177 0.94773 0.0
C1096 C 0.87283 0.93721 0.88567 0.0
C1097 C 0.85544 0.91679 0.87214 0.0
H1098 H 0.89442 0.95718 0.95696 0.0
C1099 C 0.84112 0.90562 0.92145 0.0
H1100 H 0.88435 0.94588 0.84847 0.0
C1101 C 0.84764 0.91137 0.98374 0.0
C1102 C 0.86783 0.92903 0.99722 0.0
H1103 H 0.82779 0.88968 0.91239 0.0
H1104 H 0.83925 0.8996 1.02087 0.0
C1105 C 0.87864 0.94364 0.94796 0.0
C1106 C 0.87377 0.09839 0.73306 0.0
C1107 C 0.85629 0.11874 0.74669 0.0
H1108 H 0.89528 0.07837 0.66159 0.0
C1109 C 0.84181 0.12977 0.6975 0.0
H1110 H 0.88544 0.08983 0.77014 0.0
C1111 C 0.84819 0.12394 0.63515 0.0
C1112 C 0.86843 0.10633 0.62149 0.0
H1113 H 0.82842 0.14569 0.70664 0.0
H1114 H 0.83965 0.13561 0.59806 0.0
C1115 C 0.87945 0.09186 0.67072 0.0
C1116 C 0.69522 0.12812 0.42226 0.0
C1117 C 0.68093 0.11701 0.37289 0.0
H1118 H 0.69692 0.13417 0.52167 0.0
C1119 C 0.66364 0.09649 0.38635 0.0
H1120 H 0.70856 0.14407 0.41327 0.0
C1121 C 0.65778 0.09001 0.44863 0.0
C1122 C 0.6684 0.10471 0.49793 0.0
H1123 H 0.65217 0.08779 0.34913 0.0
H1124 H 0.64205 0.0764 0.45754 0.0
C1125 C 0.68862 0.12237 0.48453 0.0
C1126 C 0.66235 0.93762 0.23182 0.0
C1127 C 0.67942 0.91697 0.2459 0.0
H1128 H 0.64128 0.9578 0.15992 0.0
C1129 C 0.69375 0.90552 0.19698 0.0
H1130 H 0.65087 0.94656 0.26872 0.0
C1131 C 0.68748 0.91122 0.13451 0.0
C1132 C 0.66752 0.9291 0.12045 0.0
H1133 H 0.70687 0.88942 0.20646 0.0
H1134 H 0.69581 0.89924 0.09769 0.0
C1135 C 0.65682 0.94402 0.16933 0.0
C1136 C 0.68842 0.62221 0.63468 0.0
C1137 C 0.66811 0.6047 0.621 0.0
H1138 H 0.7083 0.64377 0.70617 0.0
C1139 C 0.65719 0.5901 0.67015 0.0
H1140 H 0.69695 0.63391 0.59762 0.0
C1141 C 0.66292 0.59654 0.73251 0.0
C1142 C 0.68035 0.61691 0.7462 0.0
H1143 H 0.6414 0.57661 0.661 0.0
H1144 H 0.65127 0.58794 0.76957 0.0
C1145 C 0.69487 0.62792 0.69704 0.0
C1146 C 0.69457 0.40629 0.92107 0.0
C1147 C 0.68008 0.41752 0.87216 0.0
H1148 H 0.69669 0.40005 1.02037 0.0
C1149 C 0.66282 0.43802 0.88626 0.0
H1150 H 0.70788 0.39035 0.91159 0.0
C1151 C 0.65721 0.44438 0.94875 0.0
C1152 C 0.66805 0.42957 0.99764 0.0
H1153 H 0.65121 0.44681 0.8494 0.0
H1154 H 0.64152 0.45799 0.95818 0.0
C1155 C 0.68822 0.41192 0.98356 0.0
C1156 C 0.87824 0.44519 0.1725 0.0
C1157 C 0.86719 0.43098 0.1229 0.0
H1158 H 0.88412 0.44675 0.27197 0.0
C1159 C 0.84664 0.41368 0.13603 0.0
H1160 H 0.89422 0.45852 0.16377 0.0
C1161 C 0.84005 0.40775 0.19821 0.0
C1162 C 0.85468 0.4183 0.24773 0.0
H1163 H 0.83801 0.40226 0.09863 0.0
H1164 H 0.82642 0.39202 0.20686 0.0
C1165 C 0.87237 0.43852 0.23466 0.0
C1166 C 0.87314 0.59749 0.38485 0.0
C1167 C 0.85539 0.61758 0.37095 0.0
H1168 H 0.89493 0.57796 0.45657 0.0
C1169 C 0.84066 0.62844 0.41997 0.0
H1170 H 0.88496 0.58904 0.34789 0.0
C1171 C 0.84713 0.62287 0.48239 0.0
C1172 C 0.86767 0.60564 0.49627 0.0
H1173 H 0.82699 0.64409 0.41063 0.0
H1174 H 0.83836 0.63446 0.51934 0.0
C1175 C 0.87891 0.5912 0.44726 0.0
C1176 C 0.37922 0.44403 0.44617 0.0
C1177 C 0.36784 0.42989 0.49548 0.0
H1178 H 0.38526 0.44581 0.34677 0.0
C1179 C 0.34712 0.41285 0.48196 0.0
H1180 H 0.39538 0.45709 0.45523 0.0
C1181 C 0.34055 0.40718 0.41965 0.0
C1182 C 0.35537 0.41771 0.37038 0.0
H1183 H 0.33824 0.40149 0.51915 0.0
H1184 H 0.32671 0.39167 0.41066 0.0
C1185 C 0.37334 0.43763 0.38388 0.0
C1186 C 0.34824 0.6232 0.13638 0.0
C1187 C 0.3687 0.60583 0.12287 0.0
H1188 H 0.32823 0.64485 0.20763 0.0
C1189 C 0.37996 0.59162 0.17222 0.0
H1190 H 0.3395 0.63464 0.09915 0.0
C1191 C 0.37422 0.5982 0.2345 0.0
C1192 C 0.35647 0.61835 0.24794 0.0
H1193 H 0.39595 0.57832 0.16317 0.0
H1194 H 0.38602 0.58988 0.27163 0.0
C1195 C 0.34181 0.62908 0.19867 0.0
C1196 C 0.18735 0.62369 0.98318 0.0
C1197 C 0.16716 0.60614 0.99768 0.0
H1198 H 0.20692 0.64508 0.9108 0.0
C1199 C 0.156 0.59145 0.94907 0.0
H1200 H 0.19603 0.63548 1.01984 0.0
C1201 C 0.1615 0.59769 0.88646 0.0
C1202 C 0.17893 0.61798 0.87197 0.0
H1203 H 0.14025 0.57797 0.95887 0.0
H1204 H 0.14977 0.58892 0.84982 0.0
C1205 C 0.19355 0.62923 0.92058 0.0
C1206 C 0.19341 0.40581 0.69816 0.0
C1207 C 0.1789 0.41688 0.74727 0.0
H1208 H 0.19564 0.39994 0.59875 0.0
C1209 C 0.16153 0.43733 0.73356 0.0
H1210 H 0.20672 0.38984 0.70736 0.0
C1211 C 0.15594 0.44387 0.67119 0.0
C1212 C 0.16691 0.42931 0.62204 0.0
H1213 H 0.14987 0.44594 0.77059 0.0
H1214 H 0.1402 0.45745 0.66199 0.0
C1215 C 0.18711 0.41165 0.63579 0.0
C1216 C 0.17928 0.30479 0.42995 0.0
C1217 C 0.15789 0.28761 0.42932 0.0
H1218 H 0.19243 0.34437 0.42511 0.0
C1219 C 0.13265 0.29809 0.42303 0.0
H1220 H 0.19902 0.29737 0.43368 0.0
C1221 C 0.12889 0.32504 0.4173 0.0
C1222 C 0.15026 0.34224 0.41737 0.0
H1223 H 0.11574 0.28542 0.42248 0.0
H1224 H 0.1092 0.3324 0.41211 0.0
C1225 C 0.17552 0.33176 0.4239 0.0
C1226 C 0.95899 0.87909 0.6654 0.0
C1227 C 0.94177 0.90047 0.66539 0.0
H1228 H 0.99858 0.8659 0.67106 0.0
C1229 C 0.95223 0.92572 0.67189 0.0
H1230 H 0.95166 0.85941 0.6602 0.0
C1231 C 0.97919 0.92946 0.67814 0.0
C1232 C 0.99639 0.90805 0.67777 0.0
H1233 H 0.93959 0.94264 0.673 0.0
H1234 H 0.98661 0.94918 0.68192 0.0
C1235 C 0.98592 0.88282 0.67141 0.0
C1236 C 0.35885 0.70197 0.92034 0.0
C1237 C 0.38414 0.69157 0.91385 0.0
H1238 H 0.33525 0.73629 0.92997 0.0
C1239 C 0.40545 0.70885 0.91325 0.0
H1240 H 0.34199 0.68929 0.9219 0.0
C1241 C 0.40161 0.73578 0.9188 0.0
C1242 C 0.37635 0.74619 0.92529 0.0
H1243 H 0.42516 0.70156 0.908 0.0
H1244 H 0.41849 0.74849 0.91812 0.0
C1245 C 0.35501 0.72893 0.92612 0.0
C1246 C 0.5559 0.10552 0.17894 0.0
C1247 C 0.53876 0.12697 0.17851 0.0
H1248 H 0.59546 0.09225 0.17445 0.0
C1249 C 0.5493 0.15219 0.17271 0.0
H1250 H 0.54843 0.0858 0.18228 0.0
C1251 C 0.57628 0.15588 0.16738 0.0
C1252 C 0.59343 0.13444 0.16739 0.0
H1253 H 0.53667 0.16914 0.17233 0.0
H1254 H 0.58369 0.17555 0.16263 0.0
C1255 C 0.58288 0.10921 0.17332 0.0
C1256 C 0.12925 0.70921 0.20522 0.0
C1257 C 0.15065 0.69201 0.20524 0.0
H1258 H 0.116 0.74877 0.19923 0.0
C1259 C 0.17589 0.70249 0.19857 0.0
H1260 H 0.10957 0.70187 0.21056 0.0
C1261 C 0.17959 0.72945 0.19208 0.0
C1262 C 0.15815 0.74661 0.19235 0.0
H1263 H 0.19281 0.68987 0.19746 0.0
H1264 H 0.19931 0.73688 0.18816 0.0
C1265 C 0.13294 0.73613 0.19894 0.0
C1266 C 0.5486 0.8831 0.44775 0.0
C1267 C 0.53813 0.90832 0.44123 0.0
H1268 H 0.58288 0.85966 0.4589 0.0
C1269 C 0.55532 0.92971 0.44054 0.0
H1270 H 0.53594 0.86619 0.44836 0.0
C1271 C 0.58229 0.92595 0.4466 0.0
C1272 C 0.59276 0.9007 0.45323 0.0
H1273 H 0.54789 0.94944 0.43665 0.0
H1274 H 0.59493 0.94284 0.44523 0.0
C1275 C 0.57554 0.87934 0.45358 0.0
C1276 C 0.35892 0.33288 0.69757 0.0
C1277 C 0.38418 0.34335 0.70364 0.0
H1278 H 0.33545 0.29848 0.68835 0.0
C1279 C 0.40557 0.32613 0.7039 0.0
H1280 H 0.34201 0.3455 0.6963 0.0
C1281 C 0.40183 0.29919 0.69843 0.0
C1282 C 0.3766 0.28871 0.69237 0.0
H1283 H 0.42526 0.33348 0.70882 0.0
H1284 H 0.41876 0.28652 0.69886 0.0
C1285 C 0.35518 0.3059 0.69187 0.0
C1286 C 0.95642 0.12446 1.00477 0.0
C1287 C 0.94285 0.13492 0.95345 0.0
H1288 H 0.99347 0.11255 1.04186 0.0
C1289 C 0.95665 0.14038 0.89784 0.0
H1290 H 0.94621 0.12003 1.04797 0.0
C1291 C 0.98354 0.13566 0.89385 0.0
C1292 C 0.9972 0.12592 0.94584 0.0
H1293 H 0.94657 0.14804 0.8572 0.0
H1294 H 0.99376 0.14013 0.85067 0.0
C1295 C 0.98337 0.12027 1.00125 0.0
C1296 C 0.90192 0.73648 0.69686 0.0
C1297 C 0.87665 0.7469 0.69066 0.0
H1298 H 0.92546 0.70224 0.70768 0.0
C1299 C 0.8553 0.72966 0.6902 0.0
H1300 H 0.9188 0.74918 0.69728 0.0
C1301 C 0.85913 0.7027 0.69625 0.0
C1302 C 0.88442 0.69228 0.70259 0.0
H1303 H 0.83554 0.73705 0.68654 0.0
H1304 H 0.84226 0.69004 0.69511 0.0
C1305 C 0.90575 0.70954 0.70261 0.0
C1306 C 0.04923 0.15164 0.44899 0.0
C1307 C 0.03876 0.12641 0.44269 0.0
H1308 H 0.0835 0.17506 0.45986 0.0
C1309 C 0.05596 0.10501 0.44221 0.0
H1310 H 0.03657 0.16857 0.44941 0.0
C1311 C 0.08293 0.10875 0.44817 0.0
C1312 C 0.0934 0.134 0.45451 0.0
H1313 H 0.04855 0.08528 0.43849 0.0
H1314 H 0.09557 0.09184 0.4469 0.0
C1315 C 0.07617 0.15538 0.45474 0.0
C1316 C 0.64362 0.32776 0.14748 0.0
C1317 C 0.64934 0.34167 0.20275 0.0
H1318 H 0.64367 0.29056 0.10079 0.0
C1319 C 0.65991 0.32815 0.25404 0.0
H1320 H 0.63587 0.33779 0.10686 0.0
C1321 C 0.66405 0.30119 0.25078 0.0
C1322 C 0.65823 0.28727 0.19567 0.0
H1323 H 0.66455 0.33842 0.29699 0.0
H1324 H 0.67192 0.29117 0.29134 0.0
C1325 C 0.64828 0.30085 0.14375 0.0
C1326 C 0.45586 0.90943 1.00592 0.0
C1327 C 0.44229 0.8993 0.95426 0.0
H1328 H 0.49291 0.92108 1.04341 0.0
C1329 C 0.45611 0.89406 0.89854 0.0
H1330 H 0.44564 0.91368 1.0492 0.0
C1331 C 0.483 0.89874 0.89474 0.0
C1332 C 0.49666 0.9082 0.94702 0.0
H1333 H 0.44602 0.88665 0.85766 0.0
H1334 H 0.49322 0.89449 0.85143 0.0
C1335 C 0.48282 0.91357 1.00258 0.0
C1336 C 0.90632 0.32621 0.91817 0.0
C1337 C 0.8849 0.34339 0.91791 0.0
H1338 H 0.91953 0.28658 0.92311 0.0
C1339 C 0.85964 0.33286 0.9235 0.0
H1340 H 0.92601 0.33361 0.9137 0.0
C1341 C 0.85591 0.30588 0.92899 0.0
C1342 C 0.87734 0.28872 0.92875 0.0
H1343 H 0.84269 0.34545 0.92442 0.0
H1344 H 0.83617 0.29844 0.93204 0.0
C1345 C 0.90259 0.29923 0.92333 0.0
C1346 C 0.45614 0.12501 0.61247 0.0
C1347 C 0.44267 0.13532 0.66415 0.0
H1348 H 0.49311 0.11317 0.57467 0.0
C1349 C 0.4566 0.14069 0.71959 0.0
H1350 H 0.44584 0.12067 0.5694 0.0
C1351 C 0.4835 0.13596 0.7231 0.0
C1352 C 0.49705 0.12631 0.6708 0.0
H1353 H 0.4466 0.14824 0.76049 0.0
H1354 H 0.4938 0.14031 0.7662 0.0
C1355 C 0.48311 0.12082 0.61551 0.0
C1356 C 0.63244 0.7364 0.42318 0.0
C1357 C 0.65767 0.74693 0.42897 0.0
H1358 H 0.60905 0.70204 0.41279 0.0
C1359 C 0.6791 0.72976 0.42924 0.0
H1360 H 0.6155 0.74905 0.42292 0.0
C1361 C 0.6754 0.70279 0.42328 0.0
C1362 C 0.65015 0.69226 0.41723 0.0
H1363 H 0.69883 0.73722 0.4326 0.0
H1364 H 0.69235 0.69021 0.42417 0.0
C1365 C 0.62873 0.70943 0.41758 0.0
C1366 C 0.04879 0.88288 0.16842 0.0
C1367 C 0.03836 0.90812 0.17509 0.0
H1368 H 0.08305 0.85939 0.15746 0.0
C1369 C 0.05559 0.92948 0.17603 0.0
H1370 H 0.03609 0.866 0.16763 0.0
C1371 C 0.08256 0.92567 0.17017 0.0
C1372 C 0.09299 0.9004 0.1635 0.0
H1373 H 0.0482 0.94922 0.18004 0.0
H1374 H 0.09522 0.94254 0.17181 0.0
C1375 C 0.07573 0.87908 0.16282 0.0
C1376 C 0.66356 0.80114 0.86734 0.0
C1377 C 0.6578 0.78727 0.92259 0.0
H1378 H 0.664 0.83834 0.82092 0.0
C1379 C 0.64786 0.80088 0.97448 0.0
H1380 H 0.67142 0.7911 0.82679 0.0
C1381 C 0.64316 0.82778 0.97062 0.0
C1382 C 0.64884 0.84165 0.91523 0.0
H1383 H 0.64329 0.79062 1.01754 0.0
H1384 H 0.63542 0.83784 1.01123 0.0
C1385 C 0.65939 0.8281 0.86395 0.0
C1386 C 0.45661 0.39309 0.22019 0.0
C1387 C 0.44274 0.3986 0.16474 0.0
H1388 H 0.49377 0.39333 0.26704 0.0
C1389 C 0.4563 0.40888 0.11316 0.0
H1390 H 0.44654 0.38555 0.261 0.0
C1391 C 0.48327 0.41298 0.11638 0.0
C1392 C 0.49713 0.40744 0.17174 0.0
H1393 H 0.44606 0.41334 0.07007 0.0
H1394 H 0.49332 0.42066 0.07564 0.0
C1395 C 0.48352 0.39774 0.22389 0.0
C1396 C 0.87521 0.20608 0.36132 0.0
C1397 C 0.88542 0.19259 0.41307 0.0
H1398 H 0.86343 0.24306 0.32353 0.0
C1399 C 0.89067 0.2065 0.46861 0.0
H1400 H 0.87095 0.1958 0.31817 0.0
C1401 C 0.88592 0.23339 0.47216 0.0
C1402 C 0.87638 0.24697 0.41982 0.0
H1403 H 0.89814 0.19648 0.50955 0.0
H1404 H 0.89018 0.24366 0.51536 0.0
C1405 C 0.87101 0.23305 0.36442 0.0
C1406 C 0.0554 0.60539 0.67635 0.0
C1407 C 0.0382 0.62679 0.67559 0.0
H1408 H 0.09502 0.59221 0.67183 0.0
C1409 C 0.04868 0.65201 0.66903 0.0
H1410 H 0.04799 0.58567 0.68027 0.0
C1411 C 0.07563 0.65574 0.66331 0.0
C1412 C 0.09287 0.63436 0.66377 0.0
H1413 H 0.03601 0.66893 0.66838 0.0
H1414 H 0.08297 0.67541 0.65801 0.0
C1415 C 0.08239 0.60912 0.67037 0.0
C1416 C 0.66324 0.23341 0.75003 0.0
C1417 C 0.65753 0.24726 0.69474 0.0
H1418 H 0.66377 0.19622 0.79645 0.0
C1419 C 0.64776 0.23362 0.64276 0.0
H1420 H 0.67097 0.24348 0.79065 0.0
C1421 C 0.64318 0.2067 0.64658 0.0
C1422 C 0.64883 0.19284 0.702 0.0
H1423 H 0.64323 0.24386 0.59966 0.0
H1424 H 0.63557 0.19661 0.6059 0.0
C1425 C 0.6592 0.20644 0.75338 0.0
C1426 C 0.07853 0.41061 1.00561 0.0
C1427 C 0.09209 0.40021 0.95415 0.0
H1428 H 0.04149 0.42247 1.04298 0.0
C1429 C 0.07825 0.39481 0.8986 0.0
H1430 H 0.08876 0.41499 1.04876 0.0
C1431 C 0.05136 0.39953 0.89479 0.0
C1432 C 0.03771 0.40922 0.9469 0.0
H1433 H 0.08832 0.38719 0.85786 0.0
H1434 H 0.04112 0.39511 0.85163 0.0
C1435 C 0.05157 0.41479 1.00227 0.0
C1436 C 0.8747 0.82865 0.25448 0.0
C1437 C 0.88502 0.84231 0.20311 0.0
H1438 H 0.86297 0.79153 0.29149 0.0
C1439 C 0.89043 0.82859 0.14737 0.0
H1440 H 0.87031 0.83879 0.29778 0.0
C1441 C 0.88578 0.80169 0.14328 0.0
C1442 C 0.87617 0.78794 0.1953 0.0
H1443 H 0.89799 0.83873 0.1067 0.0
H1444 H 0.8902 0.79154 0.09999 0.0
C1445 C 0.87059 0.80169 0.25085 0.0
C1446 C 0.4836 0.6208 0.50171 0.0
C1447 C 0.49739 0.62634 0.44619 0.0
H1448 H 0.44648 0.62063 0.54859 0.0
C1449 C 0.48369 0.63601 0.39418 0.0
H1450 H 0.49372 0.61314 0.54235 0.0
C1451 C 0.45679 0.64074 0.39824 0.0
C1452 C 0.44302 0.63536 0.45395 0.0
H1453 H 0.49387 0.64041 0.35091 0.0
H1454 H 0.44668 0.64833 0.35756 0.0
C1455 C 0.45664 0.625 0.50531 0.0
C1456 C 0.37463 0.20604 0.2559 0.0
C1457 C 0.38504 0.19251 0.20444 0.0
H1458 H 0.36272 0.24306 0.29325 0.0
C1459 C 0.39045 0.20635 0.14886 0.0
H1460 H 0.37024 0.1958 0.29907 0.0
C1461 C 0.3857 0.23323 0.14504 0.0
C1462 C 0.37599 0.24685 0.19715 0.0
H1463 H 0.39807 0.1963 0.10813 0.0
H1464 H 0.39011 0.24347 0.10186 0.0
C1465 C 0.37042 0.23299 0.25255 0.0
C1466 C 0.57558 0.65587 0.95 0.0
C1467 C 0.59276 0.63445 0.95045 0.0
H1468 H 0.53597 0.66908 0.94444 0.0
C1469 C 0.58225 0.6092 0.94451 0.0
H1470 H 0.58296 0.67555 0.95473 0.0
C1471 C 0.55529 0.60548 0.93852 0.0
C1472 C 0.53812 0.6269 0.93861 0.0
H1473 H 0.59485 0.59226 0.94372 0.0
H1474 H 0.54784 0.58574 0.93526 0.0
C1475 C 0.54862 0.65214 0.94431 0.0
C1476 C 0.17536 0.83212 0.69717 0.0
C1477 C 0.15008 0.84255 0.70388 0.0
H1478 H 0.19888 0.79776 0.68679 0.0
C1479 C 0.12873 0.82532 0.70386 0.0
H1480 H 0.19224 0.84476 0.69605 0.0
C1481 C 0.13252 0.7984 0.69764 0.0
C1482 C 0.15776 0.78796 0.69108 0.0
H1483 H 0.10904 0.83263 0.70921 0.0
H1484 H 0.11561 0.78573 0.698 0.0
C1485 C 0.17914 0.80517 0.6907 0.0
C1486 C 0.9566 0.39328 0.39575 0.0
C1487 C 0.94278 0.39889 0.45126 0.0
H1488 H 0.99375 0.39336 0.34867 0.0
C1489 C 0.95639 0.40928 0.50259 0.0
H1490 H 0.9465 0.38566 0.35511 0.0
C1491 C 0.98335 0.41335 0.49912 0.0
C1492 C 0.99718 0.40766 0.44376 0.0
H1493 H 0.94619 0.41383 0.54572 0.0
H1494 H 0.99344 0.42108 0.53971 0.0
C1495 C 0.98352 0.39788 0.39181 0.0
C1496 C 0.35535 0.80599 0.42691 0.0
C1497 C 0.37673 0.78876 0.42628 0.0
H1498 H 0.34224 0.84562 0.42239 0.0
C1499 C 0.40198 0.7992 0.41992 0.0
H1500 H 0.33561 0.79861 0.43068 0.0
C1501 C 0.40575 0.82614 0.41427 0.0
C1502 C 0.3844 0.84339 0.41462 0.0
H1503 H 0.41888 0.78651 0.41939 0.0
H1504 H 0.42545 0.83345 0.40912 0.0
C1505 C 0.35913 0.83296 0.42102 0.0
C1506 C 0.97995 0.60588 0.17978 0.0
C1507 C 0.99715 0.62726 0.17969 0.0
H1508 H 0.94037 0.59276 0.17425 0.0
C1509 C 0.98668 0.65252 0.17373 0.0
H1510 H 0.98736 0.58613 0.18326 0.0
C1511 C 0.95974 0.65632 0.16775 0.0
C1512 C 0.94253 0.63495 0.16722 0.0
H1513 H 0.99936 0.66942 0.1736 0.0
H1514 H 0.9524 0.67601 0.16281 0.0
C1515 C 0.953 0.60967 0.17347 0.0
C1516 C 0.13223 0.23603 0.9222 0.0
C1517 C 0.15746 0.24654 0.9281 0.0
H1518 H 0.10885 0.20166 0.9119 0.0
C1519 C 0.17889 0.22939 0.92853 0.0
H1520 H 0.11529 0.24868 0.92181 0.0
C1521 C 0.17519 0.20242 0.92276 0.0
C1522 C 0.14995 0.19189 0.91669 0.0
H1523 H 0.19862 0.23684 0.93196 0.0
H1524 H 0.19214 0.18984 0.92387 0.0
C1525 C 0.12853 0.20906 0.91674 0.0
C1526 C 0.57529 0.37895 0.66694 0.0
C1527 C 0.59249 0.40033 0.66702 0.0
H1528 H 0.53565 0.36582 0.67185 0.0
C1529 C 0.58199 0.42559 0.67321 0.0
H1530 H 0.58267 0.35927 0.66201 0.0
C1531 C 0.55501 0.42936 0.67895 0.0
C1532 C 0.53782 0.40797 0.67836 0.0
H1533 H 0.5946 0.4425 0.6744 0.0
H1534 H 0.54758 0.4491 0.68246 0.0
C1535 C 0.54832 0.38272 0.67237 0.0
C1536 C 0.2656 0.25367 0.25334 0.0
C1537 C 0.25066 0.24584 0.30511 0.0
H1538 H 0.29328 0.28081 0.21683 0.0
C1539 C 0.25172 0.26062 0.36066 0.0
H1540 H 0.26527 0.24251 0.21023 0.0
C1541 C 0.26755 0.28271 0.3644 0.0
C1542 C 0.28258 0.2905 0.31269 0.0
H1543 H 0.23993 0.25544 0.40092 0.0
H1544 H 0.26782 0.29386 0.40751 0.0
C1545 C 0.28148 0.27571 0.25711 0.0
C1546 C 0.03112 1.01535 0.50334 0.0
C1547 C 0.03915 1.00076 0.55552 0.0
H1548 H 1.00389 0.04292 0.46654 0.0
C1549 C 0.02472 1.00243 0.61157 0.0
H1550 H 0.04201 1.01457 0.45985 0.0
C1551 C 1.00279 0.01851 0.61539 0.0
C1552 C 0.99478 0.03312 0.56324 0.0
H1553 H 0.03004 0.99095 0.6522 0.0
H1554 H 0.99191 0.01931 0.6589 0.0
C1555 C 1.00919 0.03142 0.50716 0.0
C1556 C 0.28077 0.77594 0.86186 0.0
C1557 C 0.28239 0.79035 0.80578 0.0
H1558 H 0.26407 0.74309 0.90924 0.0
C1559 C 0.26773 0.78231 0.75373 0.0
H1560 H 0.29229 0.78125 0.90241 0.0
C1561 C 0.25174 0.76035 0.75764 0.0
C1562 C 0.25018 0.7459 0.81366 0.0
H1563 H 0.26845 0.79319 0.71023 0.0
H1564 H 0.24024 0.755 0.71707 0.0
C1565 C 0.26476 0.75398 0.86577 0.0
C1566 C 0.53228 1.01639 0.11508 0.0
C1567 C 0.54006 1.00144 0.06324 0.0
H1568 H 0.50512 0.04411 0.15173 0.0
C1569 C 0.5253 1.00268 1.00766 0.0
H1570 H 0.54342 1.016 0.15819 0.0
C1571 C 0.50332 0.01868 1.00395 0.0
C1572 C 0.49554 0.03361 1.0558 0.0
H1573 H 0.53039 0.99094 0.96729 0.0
H1574 H 0.4922 0.01917 0.96081 0.0
C1575 C 0.51026 0.03235 0.11141 0.0
C1576 C 0.26814 0.75254 0.2545 0.0
C1577 C 0.2828 0.74453 0.30658 0.0
H1578 H 0.24056 0.77979 0.21776 0.0
C1579 C 0.28109 0.75892 0.36267 0.0
H1580 H 0.26892 0.74168 0.21099 0.0
C1581 C 0.26499 0.78083 0.36654 0.0
C1582 C 0.25041 0.78888 0.31438 0.0
H1583 H 0.29261 0.75363 0.40326 0.0
H1584 H 0.26422 0.79171 0.41002 0.0
C1585 C 0.25206 0.77445 0.25836 0.0
C1586 C 0.51082 1.00165 0.50827 0.0
C1587 C 0.49606 1.00067 0.56388 0.0
H1588 H 0.54408 0.01765 0.4612 0.0
C1589 C 0.50391 1.01565 0.61552 0.0
H1590 H 0.50562 0.98983 0.46813 0.0
C1591 C 0.52597 0.0315 0.61154 0.0
C1592 C 0.54075 0.03252 0.5559 0.0
H1593 H 0.49276 1.01535 0.65866 0.0
H1594 H 0.53108 0.04333 0.65172 0.0
C1595 C 0.53293 0.01745 0.50434 0.0
C1596 C 0.26854 0.25314 0.86551 0.0
C1597 C 0.28317 0.24507 0.81338 0.0
H1598 H 0.24102 0.28044 0.90228 0.0
C1599 C 0.28153 0.25949 0.75731 0.0
H1600 H 0.26929 0.24226 0.90901 0.0
C1601 C 0.26551 0.28145 0.75347 0.0
C1602 C 0.25091 0.28953 0.80562 0.0
H1603 H 0.29304 0.25415 0.71671 0.0
H1604 H 0.26479 0.29233 0.70998 0.0
C1605 C 0.25252 0.2751 0.86167 0.0
C1606 C 0.03151 0.01848 0.11488 0.0
C1607 C 0.03938 0.0335 0.06323 0.0
H1608 H 1.00426 0.99083 0.15115 0.0
C1609 C 0.02464 0.03245 1.0076 0.0
H1610 H 0.04264 0.01872 0.15802 0.0
C1611 C 1.00259 1.01658 1.00366 0.0
C1612 C 0.99473 1.00159 1.05532 0.0
H1613 H 0.02981 0.04425 0.96738 0.0
H1614 H 0.99148 1.01625 0.96049 0.0
C1615 C 1.00944 1.00265 0.11097 0.0
C1616 C 0.75251 0.75979 0.86079 0.0
C1617 C 0.75134 0.7451 0.80508 0.0
H1618 H 0.76893 0.79283 0.90797 0.0
C1619 C 0.76635 0.75293 0.75338 0.0
H1620 H 0.74073 0.75465 0.90106 0.0
C1621 C 0.78229 0.77492 0.7573 0.0
C1622 C 0.78347 0.78958 0.81302 0.0
H1623 H 0.76603 0.74183 0.71018 0.0
H1624 H 0.79409 0.7801 0.71707 0.0
C1625 C 0.7685 0.78175 0.86475 0.0
C1626 C 0.76631 0.25351 0.36495 0.0
C1627 C 0.75094 0.24586 0.31379 0.0
H1628 H 0.79414 0.28065 0.40071 0.0
C1629 C 0.75142 0.26093 0.25861 0.0
H1630 H 0.76646 0.24213 0.40773 0.0
C1631 C 0.76712 0.2831 0.25461 0.0
C1632 C 0.78254 0.29072 0.30573 0.0
H1633 H 0.73932 0.25589 0.21884 0.0
H1634 H 0.76699 0.29446 0.21181 0.0
C1635 C 0.78201 0.27567 0.36095 0.0
C1636 C 0.75219 0.27453 0.75785 0.0
C1637 C 0.75077 0.28921 0.81354 0.0
H1638 H 0.76901 0.24163 0.71081 0.0
C1639 C 0.76569 0.28146 0.86543 0.0
H1640 H 0.74048 0.27961 0.71743 0.0
C1641 C 0.78183 0.25958 0.86168 0.0
C1642 C 0.78329 0.24496 0.80593 0.0
H1643 H 0.76517 0.29254 0.90863 0.0
H1644 H 0.79358 0.25449 0.90203 0.0
C1645 C 0.76836 0.25268 0.75406 0.0
C1646 C 0.76576 0.7816 0.25288 0.0
C1647 C 0.75083 0.78935 0.30476 0.0
H1648 H 0.79363 0.75464 0.21629 0.0
C1649 C 0.7522 0.77469 0.36047 0.0
H1650 H 0.76519 0.79268 0.20966 0.0
C1651 C 0.76828 0.75278 0.36424 0.0
C1652 C 0.78325 0.74503 0.31239 0.0
H1653 H 0.74044 0.77982 0.40083 0.0
H1654 H 0.76876 0.74169 0.40744 0.0
C1655 C 0.78188 0.75971 0.25668 0.0
C1656 C 0.53277 0.5167 1.00381 0.0
C1657 C 0.54055 0.50174 1.05565 0.0
H1658 H 0.50563 0.54444 0.96722 0.0
C1659 C 0.52585 0.50309 0.11136 0.0
H1660 H 0.54386 0.51625 0.9606 0.0
C1661 C 0.50392 0.51916 0.11516 0.0
C1662 C 0.49612 0.53404 0.06328 0.0
H1663 H 0.53093 0.49137 0.15175 0.0
H1664 H 0.49283 0.51971 0.15839 0.0
C1665 C 0.5108 0.53271 1.00757 0.0
C1666 C 0.03162 0.51614 0.61379 0.0
C1667 C 0.03937 0.50113 0.56201 0.0
H1668 H 1.00462 0.54404 0.65025 0.0
C1669 C 0.02473 0.50253 0.50626 0.0
H1670 H 0.04268 0.51565 0.65701 0.0
C1671 C 1.00287 0.5187 0.50238 0.0
C1672 C 0.9951 0.53364 0.55421 0.0
H1673 H 0.02981 0.49077 0.46592 0.0
H1674 H 0.99182 0.51928 0.45914 0.0
C1675 C 1.00974 0.53226 0.60994 0.0
C1676 C 1.00974 0.50368 1.00782 0.0
C1677 C 0.99505 0.50243 0.06357 0.0
H1678 H 0.04281 0.52011 0.9607 0.0
C1679 C 1.00286 0.51739 0.11531 0.0
H1680 H 1.0046 0.49194 0.9675 0.0
C1681 C 0.02487 0.53331 0.11145 0.0
C1682 C 0.03956 0.53453 1.05574 0.0
H1683 H 0.99177 0.51702 0.15853 0.0
H1684 H 0.03006 0.54505 0.15174 0.0
C1685 C 0.03172 0.51965 1.00392 0.0
C1686 C 0.50336 0.51621 0.50312 0.0
C1687 C 0.49553 0.50124 0.55483 0.0
H1688 H 0.53045 0.54398 0.46681 0.0
C1689 C 0.51018 0.50243 0.61055 0.0
H1690 H 0.49228 0.51578 0.4599 0.0
C1691 C 0.53218 0.51837 0.61448 0.0
C1692 C 0.54001 0.53338 0.56277 0.0
H1693 H 0.505 0.49063 0.65078 0.0
H1694 H 0.54326 0.51871 0.65767 0.0
C1695 C 0.52531 0.5322 0.50707 0.0
C1696 C 0.2457 0.16297 0.5965 0.0
C1697 C 0.24272 0.16375 0.53079 0.0
H1698 H 0.27199 0.1631 0.67487 0.0
C1699 C 0.2654 0.16442 0.49356 0.0
H1700 H 0.22876 0.16247 0.62687 0.0
C1701 C 0.29027 0.16468 0.52124 0.0
C1702 C 0.29324 0.16437 0.58698 0.0
H1703 H 0.26397 0.16508 0.4429 0.0
H1704 H 0.3072 0.16552 0.49088 0.0
C1705 C 0.27057 0.16332 0.62418 0.0
C1706 C 0.12071 0.01972 0.87506 0.0
C1707 C 0.12108 0.04239 0.83784 0.0
H1708 H 0.12005 0.97791 0.87773 0.0
C1709 C 0.12163 0.03942 0.77211 0.0
H1710 H 0.12023 0.02115 0.92574 0.0
C1711 C 0.12139 1.01455 0.74442 0.0
C1712 C 0.12073 0.99188 0.78163 0.0
H1713 H 0.12187 0.05636 0.74175 0.0
H1714 H 0.12146 1.01313 0.69373 0.0
C1715 C 0.1206 0.99484 0.84737 0.0
C1716 C 0.26495 0.87013 0.12565 0.0
C1717 C 0.24229 0.87067 0.08842 0.0
H1718 H 0.30676 0.86924 0.12834 0.0
C1719 C 0.2453 0.87148 1.02271 0.0
H1720 H 0.2635 0.86945 0.17631 0.0
C1721 C 0.27018 0.87128 0.99504 0.0
C1722 C 0.29283 0.87034 1.03225 0.0
H1723 H 0.22837 0.87189 0.99233 0.0
H1724 H 0.27163 0.87151 0.94435 0.0
C1725 C 0.28984 0.87 0.09799 0.0
C1726 C 0.41447 1.01533 0.37564 0.0
C1727 C 0.41407 0.99267 0.33841 0.0
H1728 H 0.41528 0.05713 0.37835 0.0
C1729 C 0.41347 0.99566 0.27269 0.0
H1730 H 0.41499 1.01389 0.42632 0.0
C1731 C 0.41373 0.02054 0.24501 0.0
C1732 C 0.41451 0.04319 0.28223 0.0
H1733 H 0.41318 0.97873 0.24231 0.0
H1734 H 0.41366 0.02198 0.19432 0.0
C1735 C 0.41465 0.04021 0.34798 0.0
C1736 C 0.78959 0.87127 0.52144 0.0
C1737 C 0.79248 0.87115 0.5872 0.0
H1738 H 0.76338 0.87092 0.4429 0.0
C1739 C 0.76975 0.8714 0.62427 0.0
H1740 H 0.80657 0.87103 0.49118 0.0
C1741 C 0.7449 0.87145 0.59643 0.0
C1742 C 0.74201 0.87114 0.53066 0.0
H1743 H 0.7711 0.87126 0.67497 0.0
H1744 H 0.72792 0.87137 0.62669 0.0
C1745 C 0.76474 0.87121 0.49359 0.0
C1746 C 0.91419 0.02019 0.37449 0.0
C1747 C 0.91454 0.04279 0.33697 0.0
H1748 H 0.91416 0.97838 0.37772 0.0
C1749 C 0.91434 0.03966 0.27127 0.0
H1750 H 0.91438 0.02173 0.42516 0.0
C1751 C 0.91428 1.01471 0.24391 0.0
C1752 C 0.91436 0.99212 0.28142 0.0
H1753 H 0.91462 0.05652 0.24067 0.0
H1754 H 0.91454 1.01318 0.19324 0.0
C1755 C 0.91408 0.99525 0.34713 0.0
C1756 C 0.79045 0.16515 0.09809 0.0
C1757 C 0.79346 0.16454 1.03236 0.0
H1758 H 0.76412 0.16575 0.17644 0.0
C1759 C 0.77081 0.16323 0.9952 0.0
H1760 H 0.80736 0.16621 0.12842 0.0
C1761 C 0.74592 0.16286 1.02291 0.0
C1762 C 0.74291 0.16389 0.08861 0.0
H1763 H 0.77226 0.16279 0.94452 0.0
H1764 H 0.729 0.16212 0.99257 0.0
C1765 C 0.76557 0.16489 0.12579 0.0
C1766 C 0.62078 0.03938 0.84727 0.0
C1767 C 0.62064 0.04259 0.78157 0.0
H1768 H 0.62038 1.01279 0.92514 0.0
C1769 C 0.62074 0.02004 0.74394 0.0
H1770 H 0.62066 0.05621 0.87797 0.0
C1771 C 0.62069 0.99506 0.77115 0.0
C1772 C 0.62043 0.99184 0.83684 0.0
H1773 H 0.62058 0.02163 0.69328 0.0
H1774 H 0.62051 0.97823 0.74044 0.0
C1775 C 0.62062 1.01439 0.87448 0.0
C1776 C 0.76498 0.6638 0.9932 0.0
C1777 C 0.7423 0.66377 1.03048 0.0
H1778 H 0.8068 0.66404 0.9904 0.0
C1779 C 0.7453 0.66354 0.09621 0.0
H1780 H 0.76353 0.66403 0.94252 0.0
C1781 C 0.7702 0.6637 0.12383 0.0
C1782 C 0.79287 0.66394 0.08656 0.0
H1783 H 0.72837 0.66358 0.12663 0.0
H1784 H 0.77164 0.66384 0.17452 0.0
C1785 C 0.78987 0.6638 1.02082 0.0
C1786 C 0.62049 0.4948 0.34753 0.0
C1787 C 0.62067 0.49165 0.28182 0.0
H1788 H 0.62014 0.52129 0.42554 0.0
C1789 C 0.62136 0.51425 0.24432 0.0
H1790 H 0.6199 0.47794 0.37812 0.0
C1791 C 0.62163 0.5392 0.27169 0.0
C1792 C 0.62108 0.54234 0.33739 0.0
H1793 H 0.62146 0.5127 0.19365 0.0
H1794 H 0.62193 0.55606 0.24109 0.0
C1795 C 0.62062 0.51975 0.37488 0.0
C1796 C 0.74524 0.37151 0.52222 0.0
C1797 C 0.74216 0.37077 0.58793 0.0
H1798 H 0.77165 0.37159 0.44399 0.0
C1799 C 0.7648 0.37024 0.62525 0.0
H1800 H 0.72834 0.37188 0.49176 0.0
C1801 C 0.78972 0.37021 0.5977 0.0
C1802 C 0.7928 0.37057 0.53197 0.0
H1803 H 0.7633 0.36961 0.67591 0.0
H1804 H 0.80662 0.36955 0.62816 0.0
C1805 C 0.77016 0.37135 0.49466 0.0
C1806 C 0.91329 0.49553 0.77206 0.0
C1807 C 0.91383 0.4927 0.83784 0.0
H1808 H 0.91337 0.52166 0.69332 0.0
C1809 C 0.9141 0.51546 0.87474 0.0
H1810 H 0.91311 0.47853 0.74193 0.0
C1811 C 0.91412 0.54028 0.84671 0.0
C1812 C 0.91399 0.5431 0.78093 0.0
H1813 H 0.91457 0.51415 0.92543 0.0
H1814 H 0.9146 0.55728 0.87684 0.0
C1815 C 0.91343 0.52035 0.74403 0.0
C1816 C 0.28939 0.3711 1.02104 0.0
C1817 C 0.29257 0.37064 0.08672 0.0
H1818 H 0.26284 0.37094 0.94314 0.0
C1819 C 0.27 0.3705 0.12435 0.0
H1820 H 0.30623 0.37119 0.99035 0.0
C1821 C 0.24503 0.37045 0.09712 0.0
C1822 C 0.24185 0.37046 1.03143 0.0
H1823 H 0.27157 0.3701 0.175 0.0
H1824 H 0.22819 0.37003 0.12781 0.0
C1825 C 0.26442 0.37097 0.99381 0.0
C1826 C 0.41366 0.5199 0.8744 0.0
C1827 C 0.41386 0.54266 0.83749 0.0
H1828 H 0.41367 0.47808 0.87649 0.0
C1829 C 0.41358 0.53986 0.77171 0.0
H1830 H 0.41391 0.5212 0.9251 0.0
C1831 C 0.41356 0.51505 0.74367 0.0
C1832 C 0.4137 0.49229 0.78057 0.0
H1833 H 0.41377 0.55687 0.74157 0.0
H1834 H 0.41374 0.51376 0.69296 0.0
C1835 C 0.41352 0.4951 0.84636 0.0
C1836 C 0.27062 0.66344 0.49524 0.0
C1837 C 0.29321 0.66446 0.53268 0.0
H1838 H 0.22881 0.66269 0.49208 0.0
C1839 C 0.29007 0.66481 0.59839 0.0
H1840 H 0.27217 0.6632 0.44457 0.0
C1841 C 0.26512 0.66461 0.62578 0.0
C1842 C 0.24253 0.66398 0.58832 0.0
H1843 H 0.30693 0.66563 0.62893 0.0
H1844 H 0.26357 0.6653 0.67643 0.0
C1845 C 0.24568 0.66316 0.52264 0.0
C1846 C 0.1209 0.51446 0.37472 0.0
C1847 C 0.12112 0.49184 0.33732 0.0
H1848 H 0.12054 0.55627 0.37778 0.0
C1849 C 0.1217 0.49493 0.27161 0.0
H1850 H 0.12041 0.51295 0.42539 0.0
C1851 C 0.12165 0.51986 0.24414 0.0
C1852 C 0.12115 0.54248 0.28155 0.0
H1853 H 0.12184 0.47804 0.24109 0.0
H1854 H 0.12174 0.52137 0.19346 0.0
C1855 C 0.12098 0.53939 0.34726 0.0
loop_
_geom_bond_atom_site_label_1
_geom_bond_atom_site_label_2
_geom_bond_distance
_geom_bond_site_symmetry_2
_ccdc_geom_bond_type
C0 C1 1.351 . S
C0 N3 1.368 . S
C0 H5 0.931 . S
C1 C0 1.351 . S
C1 N2 1.373 . S
C1 H29 0.930 . S
N2 C1 1.373 . S
N2 C4 1.340 . S
N3 C0 1.368 . S
N3 C4 1.321 . S
N3 Co6 2.135 . S
C4 N2 1.340 . S
C4 N3 1.321 . S
C4 H28 0.930 . S
H5 C0 0.931 . S
Co6 N3 2.135 . S
Co6 N9 2.121 . S
Co6 O14 2.055 . S
Co6 O17 2.039 . S
Co6 N20 2.140 . S
C7 O8 1.227 . S
C7 O17 1.265 . S
O8 C7 1.227 . S
N9 Co6 2.121 . S
N9 C11 1.375 . S
N9 C12 1.313 . S
C10 C11 1.338 . S
C10 N13 1.377 . S
C10 H30 0.930 . S
C11 N9 1.375 . S
C11 C10 1.338 . S
C11 H15 0.931 . S
C12 N9 1.313 . S
C12 N13 1.344 . S
C12 H16 0.930 . S
N13 C10 1.377 . S
N13 C12 1.344 . S
O14 Co6 2.055 . S
O14 C18 1.253 . S
H15 C11 0.931 . S
H16 C12 0.930 . S
O17 Co6 2.039 . S
O17 C7 1.265 . S
C18 O14 1.253 . S
C18 O19 1.227 . S
O19 C18 1.227 . S
N20 Co6 2.140 . S
N20 C23 1.346 . S
N20 C24 1.345 . S
C21 C22 1.387 . S
C21 C25 1.391 . S
C22 C21 1.387 . S
C22 C23 1.369 . S
C22 H31 0.929 . S
C23 N20 1.346 . S
C23 C22 1.369 . S
C23 H26 0.928 . S
C24 N20 1.345 . S
C24 C25 1.371 . S
C24 H27 0.931 . S
C25 C21 1.391 . S
C25 C24 1.371 . S
C25 H32 0.930 . S
H26 C23 0.928 . S
H27 C24 0.931 . S
H28 C4 0.930 . S
H29 C1 0.930 . S
H30 C10 0.930 . S
H31 C22 0.929 . S
H32 C25 0.930 . S
C33 C34 1.351 . S
C33 N36 1.368 . S
C33 H38 0.931 . S
C34 C33 1.351 . S
C34 N35 1.373 . S
C34 H62 0.930 . S
N35 C34 1.373 . S
N35 C37 1.340 . S
N36 C33 1.368 . S
N36 C37 1.321 . S
N36 Co39 2.135 . S
C37 N35 1.340 . S
C37 N36 1.321 . S
C37 H61 0.930 . S
H38 C33 0.931 . S
Co39 N36 2.135 . S
Co39 N42 2.121 . S
Co39 O47 2.055 . S
Co39 O50 2.039 . S
Co39 N53 2.140 . S
C40 O41 1.227 . S
C40 O50 1.265 . S
O41 C40 1.227 . S
N42 Co39 2.121 . S
N42 C44 1.375 . S
N42 C45 1.313 . S
C43 C44 1.338 . S
C43 N46 1.377 . S
C43 H63 0.930 . S
C44 N42 1.375 . S
C44 C43 1.338 . S
C44 H48 0.931 . S
C45 N42 1.313 . S
C45 N46 1.344 . S
C45 H49 0.930 . S
N46 C43 1.377 . S
N46 C45 1.344 . S
O47 Co39 2.055 . S
O47 C51 1.253 . S
H48 C44 0.931 . S
H49 C45 0.930 . S
O50 Co39 2.039 . S
O50 C40 1.265 . S
C51 O47 1.253 . S
C51 O52 1.227 . S
O52 C51 1.227 . S
N53 Co39 2.140 . S
N53 C56 1.346 . S
N53 C57 1.345 . S
C54 C55 1.393 . S
C54 C58 1.422 . S
C55 C54 1.393 . S
C55 C56 1.369 . S
C55 H64 0.929 1_455 S
C56 N53 1.346 . S
C56 C55 1.369 . S
C56 H59 0.928 . S
C57 N53 1.345 . S
C57 C58 1.371 . S
C57 H60 0.931 . S
C58 C54 1.422 . S
C58 C57 1.371 . S
C58 H65 0.930 . S
H59 C56 0.928 . S
H60 C57 0.931 . S
H61 C37 0.930 . S
H62 C34 0.930 . S
H63 C43 0.930 . S
H64 C55 0.929 1_655 S
H65 C58 0.930 . S
C66 C67 1.351 . S
C66 N69 1.368 . S
C66 H71 0.931 . S
C67 C66 1.351 . S
C67 N68 1.373 . S
C67 H95 0.930 . S
N68 C67 1.373 . S
N68 C70 1.340 . S
N69 C66 1.368 . S
N69 C70 1.321 . S
N69 Co72 2.135 . S
C70 N68 1.340 . S
C70 N69 1.321 . S
C70 H94 0.930 . S
H71 C66 0.931 . S
Co72 N69 2.135 . S
Co72 N75 2.121 . S
Co72 O80 2.055 . S
Co72 O83 2.039 . S
Co72 N86 2.140 . S
C73 O74 1.227 . S
C73 O83 1.265 . S
O74 C73 1.227 . S
N75 Co72 2.121 . S
N75 C77 1.375 . S
N75 C78 1.313 . S
C76 C77 1.338 . S
C76 N79 1.377 . S
C76 H96 0.930 . S
C77 N75 1.375 . S
C77 C76 1.338 . S
C77 H81 0.931 . S
C78 N75 1.313 . S
C78 N79 1.344 . S
C78 H82 0.930 . S
N79 C76 1.377 . S
N79 C78 1.344 . S
O80 Co72 2.055 . S
O80 C84 1.253 . S
H81 C77 0.931 . S
H82 C78 0.930 . S
O83 Co72 2.039 . S
O83 C73 1.265 . S
C84 O80 1.253 . S
C84 O85 1.227 . S
O85 C84 1.227 . S
N86 Co72 2.140 . S
N86 C89 1.346 . S
N86 C90 1.345 . S
C87 C88 1.387 . S
C87 C91 1.391 . S
C88 C87 1.387 . S
C88 C89 1.369 . S
C88 H97 0.929 . S
C89 N86 1.346 . S
C89 C88 1.369 . S
C89 H92 0.928 . S
C90 N86 1.345 . S
C90 C91 1.371 . S
C90 H93 0.931 . S
C91 C87 1.391 . S
C91 C90 1.371 . S
C91 H98 0.930 . S
H92 C89 0.928 . S
H93 C90 0.931 . S
H94 C70 0.930 . S
H95 C67 0.930 . S
H96 C76 0.930 . S
H97 C88 0.929 . S
H98 C91 0.930 . S
C99 C100 1.351 . S
C99 N102 1.368 1_556 S
C99 H104 0.931 . S
C100 C99 1.351 . S
C100 N101 1.387 . S
C100 H128 0.930 . S
N101 C100 1.387 . S
N101 C103 1.327 1_556 S
N102 C99 1.368 1_554 S
N102 C103 1.321 . S
N102 Co105 2.135 . S
C103 N101 1.327 1_554 S
C103 N102 1.321 . S
C103 H127 0.930 . S
H104 C99 0.931 . S
Co105 N102 2.135 . S
Co105 N108 2.121 . S
Co105 O113 2.055 . S
Co105 O116 2.039 . S
Co105 N119 2.140 . S
C106 O107 1.227 . S
C106 O116 1.265 . S
O107 C106 1.227 . S
N108 Co105 2.121 . S
N108 C110 1.375 . S
N108 C111 1.313 . S
C109 C110 1.338 . S
C109 N112 1.377 . S
C109 H129 0.930 . S
C110 N108 1.375 . S
C110 C109 1.338 . S
C110 H114 0.931 . S
C111 N108 1.313 . S
C111 N112 1.344 . S
C111 H115 0.930 . S
N112 C109 1.377 . S
N112 C111 1.344 . S
O113 Co105 2.055 . S
O113 C117 1.253 1_554 S
H114 C110 0.931 . S
H115 C111 0.930 . S
O116 Co105 2.039 . S
O116 C106 1.265 . S
C117 O113 1.253 1_556 S
C117 O118 1.227 . S
O118 C117 1.227 . S
N119 Co105 2.140 . S
N119 C122 1.346 . S
N119 C123 1.345 . S
C120 C121 1.387 . S
C120 C124 1.391 . S
C121 C120 1.387 . S
C121 C122 1.369 . S
C121 H130 0.929 . S
C122 N119 1.346 . S
C122 C121 1.369 . S
C122 H125 0.928 . S
C123 N119 1.345 . S
C123 C124 1.371 . S
C123 H126 0.931 . S
C124 C120 1.391 . S
C124 C123 1.371 . S
C124 H131 0.930 . S
H125 C122 0.928 . S
H126 C123 0.931 . S
H127 C103 0.930 . S
H128 C100 0.930 . S
H129 C109 0.930 . S
H130 C121 0.929 . S
H131 C124 0.930 . S
C132 C133 1.351 . S
C132 N135 1.368 . S
C132 H137 0.931 . S
C133 C132 1.351 . S
C133 N134 1.373 . S
C133 H161 0.930 . S
N134 C133 1.373 . S
N134 C136 1.340 . S
N135 C132 1.368 . S
N135 C136 1.321 . S
N135 Co138 2.135 . S
C136 N134 1.340 . S
C136 N135 1.321 . S
C136 H160 0.930 . S
H137 C132 0.931 . S
Co138 N135 2.135 . S
Co138 N141 2.121 . S
Co138 O146 2.055 . S
Co138 O149 2.039 . S
Co138 N152 2.140 . S
C139 O140 1.227 . S
C139 O149 1.265 . S
O140 C139 1.227 . S
N141 Co138 2.121 . S
N141 C143 1.375 . S
N141 C144 1.313 . S
C142 C143 1.338 . S
C142 N145 1.377 . S
C142 H162 0.930 . S
C143 N141 1.375 . S
C143 C142 1.338 . S
C143 H147 0.931 . S
C144 N141 1.313 . S
C144 N145 1.344 . S
C144 H148 0.930 . S
N145 C142 1.377 . S
N145 C144 1.344 . S
O146 Co138 2.055 . S
O146 C150 1.253 . S
H147 C143 0.931 . S
H148 C144 0.930 . S
O149 Co138 2.039 . S
O149 C139 1.265 . S
C150 O146 1.253 . S
C150 O151 1.227 . S
O151 C150 1.227 . S
N152 Co138 2.140 . S
N152 C155 1.346 . S
N152 C156 1.345 . S
C153 C154 1.387 . S
C153 C157 1.391 . S
C154 C153 1.387 . S
C154 C155 1.369 . S
C154 H163 0.929 . S
C155 N152 1.346 . S
C155 C154 1.369 . S
C155 H158 0.928 . S
C156 N152 1.345 . S
C156 C157 1.371 . S
C156 H159 0.931 . S
C157 C153 1.391 . S
C157 C156 1.371 . S
C157 H164 0.930 . S
H158 C155 0.928 . S
H159 C156 0.931 . S
H160 C136 0.930 . S
H161 C133 0.930 . S
H162 C142 0.930 . S
H163 C154 0.929 . S
H164 C157 0.930 . S
C165 C166 1.351 . S
C165 N168 1.368 . S
C165 H170 0.931 . S
C166 C165 1.351 . S
C166 N167 1.373 . S
C166 H194 0.930 . S
N167 C166 1.373 . S
N167 C169 1.340 . S
N168 C165 1.368 . S
N168 C169 1.321 . S
N168 Co171 2.135 . S
C169 N167 1.340 . S
C169 N168 1.321 . S
C169 H193 0.930 . S
H170 C165 0.931 . S
Co171 N168 2.135 . S
Co171 N174 2.121 . S
Co171 O179 2.055 . S
Co171 O182 2.039 . S
Co171 N185 2.140 . S
C172 O173 1.227 . S
C172 O182 1.265 . S
O173 C172 1.227 . S
N174 Co171 2.121 . S
N174 C176 1.375 . S
N174 C177 1.313 . S
C175 C176 1.338 . S
C175 N178 1.377 . S
C175 H195 0.930 . S
C176 N174 1.375 . S
C176 C175 1.338 . S
C176 H180 0.931 . S
C177 N174 1.313 . S
C177 N178 1.344 . S
C177 H181 0.930 . S
N178 C175 1.377 . S
N178 C177 1.344 . S
O179 Co171 2.055 . S
O179 C183 1.253 . S
H180 C176 0.931 . S
H181 C177 0.930 . S
O182 Co171 2.039 . S
O182 C172 1.265 . S
C183 O179 1.253 . S
C183 O184 1.227 . S
O184 C183 1.227 . S
N185 Co171 2.140 . S
N185 C188 1.346 . S
N185 C189 1.345 . S
C186 C187 1.387 . S
C186 C190 1.391 . S
C187 C186 1.387 . S
C187 C188 1.369 . S
C187 H196 0.929 . S
C188 N185 1.346 . S
C188 C187 1.369 . S
C188 H191 0.928 . S
C189 N185 1.345 . S
C189 C190 1.371 . S
C189 H192 0.931 . S
C190 C186 1.391 . S
C190 C189 1.371 . S
C190 H197 0.930 . S
H191 C188 0.928 . S
H192 C189 0.931 . S
H193 C169 0.930 . S
H194 C166 0.930 . S
H195 C175 0.930 . S
H196 C187 0.929 . S
H197 C190 0.930 . S
C198 C199 1.351 . S
C198 N201 1.368 . S
C198 H203 0.931 . S
C199 C198 1.351 . S
C199 N200 1.373 . S
C199 H227 0.930 . S
N200 C199 1.373 . S
N200 C202 1.340 . S
N201 C198 1.368 . S
N201 C202 1.321 . S
N201 Co204 2.135 . S
C202 N200 1.340 . S
C202 N201 1.321 . S
C202 H226 0.930 . S
H203 C198 0.931 . S
Co204 N201 2.135 . S
Co204 N207 2.121 . S
Co204 O212 2.055 . S
Co204 O215 2.039 . S
Co204 N218 2.140 . S
C205 O206 1.227 . S
C205 O215 1.265 . S
O206 C205 1.227 . S
N207 Co204 2.121 . S
N207 C209 1.375 . S
N207 C210 1.313 . S
C208 C209 1.338 . S
C208 N211 1.377 . S
C208 H228 0.930 . S
C209 N207 1.375 . S
C209 C208 1.338 . S
C209 H213 0.931 . S
C210 N207 1.313 . S
C210 N211 1.344 . S
C210 H214 0.930 . S
N211 C208 1.377 . S
N211 C210 1.344 . S
O212 Co204 2.055 . S
O212 C216 1.253 . S
H213 C209 0.931 . S
H214 C210 0.930 . S
O215 Co204 2.039 . S
O215 C205 1.265 . S
C216 O212 1.253 . S
C216 O217 1.227 . S
O217 C216 1.227 . S
N218 Co204 2.140 . S
N218 C221 1.346 . S
N218 C222 1.345 . S
C219 C220 1.387 . S
C219 C223 1.391 . S
C220 C219 1.387 . S
C220 C221 1.369 . S
C220 H229 0.929 . S
C221 N218 1.346 . S
C221 C220 1.369 . S
C221 H224 0.928 . S
C222 N218 1.345 . S
C222 C223 1.371 . S
C222 H225 0.931 . S
C223 C219 1.391 . S
C223 C222 1.371 . S
C223 H230 0.930 . S
H224 C221 0.928 . S
H225 C222 0.931 . S
H226 C202 0.930 . S
H227 C199 0.930 . S
H228 C208 0.930 . S
H229 C220 0.929 . S
H230 C223 0.930 . S
C231 C232 1.351 . S
C231 N234 1.368 1_554 S
C231 H236 0.931 . S
C232 C231 1.351 . S
C232 N233 1.387 . S
C232 H260 0.930 . S
N233 C232 1.387 . S
N233 C235 1.327 1_554 S
N234 C231 1.368 1_556 S
N234 C235 1.321 . S
N234 Co237 2.135 . S
C235 N233 1.327 1_556 S
C235 N234 1.321 . S
C235 H259 0.930 . S
H236 C231 0.931 . S
Co237 N234 2.135 . S
Co237 N240 2.121 . S
Co237 O245 2.055 . S
Co237 O248 2.039 . S
Co237 N251 2.140 . S
C238 O239 1.227 . S
C238 O248 1.265 . S
O239 C238 1.227 . S
N240 Co237 2.121 . S
N240 C242 1.375 . S
N240 C243 1.313 . S
C241 C242 1.338 . S
C241 N244 1.377 . S
C241 H261 0.930 . S
C242 N240 1.375 . S
C242 C241 1.338 . S
C242 H246 0.931 . S
C243 N240 1.313 . S
C243 N244 1.344 . S
C243 H247 0.930 . S
N244 C241 1.377 . S
N244 C243 1.344 . S
O245 Co237 2.055 . S
O245 C249 1.253 1_556 S
H246 C242 0.931 . S
H247 C243 0.930 . S
O248 Co237 2.039 . S
O248 C238 1.265 . S
C249 O245 1.253 1_554 S
C249 O250 1.227 . S
O250 C249 1.227 . S
N251 Co237 2.140 . S
N251 C254 1.346 . S
N251 C255 1.345 . S
C252 C253 1.393 . S
C252 C256 1.422 . S
C253 C252 1.393 . S
C253 C254 1.369 . S
C253 H262 0.929 1_455 S
C254 N251 1.346 . S
C254 C253 1.369 . S
C254 H257 0.928 . S
C255 N251 1.345 . S
C255 C256 1.371 . S
C255 H258 0.931 . S
C256 C252 1.422 . S
C256 C255 1.371 . S
C256 H263 0.930 . S
H257 C254 0.928 . S
H258 C255 0.931 . S
H259 C235 0.930 . S
H260 C232 0.930 . S
H261 C241 0.930 . S
H262 C253 0.929 1_655 S
H263 C256 0.930 . S
C264 C265 1.351 . S
C264 N267 1.368 . S
C264 H269 0.931 . S
C265 C264 1.351 . S
C265 N266 1.373 . S
C265 H293 0.930 . S
N266 C265 1.373 . S
N266 C268 1.340 . S
N267 C264 1.368 . S
N267 C268 1.321 . S
N267 Co270 2.135 . S
C268 N266 1.340 . S
C268 N267 1.321 . S
C268 H292 0.930 . S
H269 C264 0.931 . S
Co270 N267 2.135 . S
Co270 N273 2.121 . S
Co270 O278 2.055 . S
Co270 O281 2.039 . S
Co270 N284 2.140 . S
C271 O272 1.227 . S
C271 O281 1.265 . S
O272 C271 1.227 . S
N273 Co270 2.121 . S
N273 C275 1.375 . S
N273 C276 1.313 . S
C274 C275 1.338 . S
C274 N277 1.377 . S
C274 H294 0.930 . S
C275 N273 1.375 . S
C275 C274 1.338 . S
C275 H279 0.931 . S
C276 N273 1.313 . S
C276 N277 1.344 . S
C276 H280 0.930 . S
N277 C274 1.377 . S
N277 C276 1.344 . S
O278 Co270 2.055 . S
O278 C282 1.253 . S
H279 C275 0.931 . S
H280 C276 0.930 . S
O281 Co270 2.039 . S
O281 C271 1.265 . S
C282 O278 1.253 . S
C282 O283 1.227 . S
O283 C282 1.227 . S
N284 Co270 2.140 . S
N284 C287 1.346 . S
N284 C288 1.345 . S
C285 C286 1.387 . S
C285 C289 1.391 . S
C286 C285 1.387 . S
C286 C287 1.369 . S
C286 H295 0.929 . S
C287 N284 1.346 . S
C287 C286 1.369 . S
C287 H290 0.928 . S
C288 N284 1.345 . S
C288 C289 1.371 . S
C288 H291 0.931 . S
C289 C285 1.391 . S
C289 C288 1.371 . S
C289 H296 0.930 . S
H290 C287 0.928 . S
H291 C288 0.931 . S
H292 C268 0.930 . S
H293 C265 0.930 . S
H294 C274 0.930 . S
H295 C286 0.929 . S
H296 C289 0.930 . S
C297 C298 1.351 . S
C297 N300 1.368 . S
C297 H302 0.931 . S
C298 C297 1.351 . S
C298 N299 1.373 . S
C298 H326 0.930 . S
N299 C298 1.373 . S
N299 C301 1.340 . S
N300 C297 1.368 . S
N300 C301 1.321 . S
N300 Co303 2.135 . S
C301 N299 1.340 . S
C301 N300 1.321 . S
C301 H325 0.930 . S
H302 C297 0.931 . S
Co303 N300 2.135 . S
Co303 N306 2.121 . S
Co303 O311 2.055 . S
Co303 O314 2.039 . S
Co303 N317 2.140 . S
C304 O305 1.227 . S
C304 O314 1.265 . S
O305 C304 1.227 . S
N306 Co303 2.121 . S
N306 C308 1.375 . S
N306 C309 1.313 . S
C307 C308 1.338 . S
C307 N310 1.377 . S
C307 H327 0.930 . S
C308 N306 1.375 . S
C308 C307 1.338 . S
C308 H312 0.931 . S
C309 N306 1.313 . S
C309 N310 1.344 . S
C309 H313 0.930 . S
N310 C307 1.377 . S
N310 C309 1.344 . S
O311 Co303 2.055 . S
O311 C315 1.253 . S
H312 C308 0.931 . S
H313 C309 0.930 . S
O314 Co303 2.039 . S
O314 C304 1.265 . S
C315 O311 1.253 . S
C315 O316 1.227 . S
O316 C315 1.227 . S
N317 Co303 2.140 . S
N317 C320 1.346 . S
N317 C321 1.345 . S
C318 C319 1.393 . S
C318 C322 1.422 . S
C319 C318 1.393 . S
C319 C320 1.369 . S
C319 H328 0.929 1_655 S
C320 N317 1.346 . S
C320 C319 1.369 . S
C320 H323 0.928 . S
C321 N317 1.345 . S
C321 C322 1.371 . S
C321 H324 0.931 . S
C322 C318 1.422 . S
C322 C321 1.371 . S
C322 H329 0.930 . S
H323 C320 0.928 . S
H324 C321 0.931 . S
H325 C301 0.930 . S
H326 C298 0.930 . S
H327 C307 0.930 . S
H328 C319 0.929 1_455 S
H329 C322 0.930 . S
C330 C331 1.351 . S
C330 N333 1.368 . S
C330 H335 0.931 . S
C331 C330 1.351 . S
C331 N332 1.373 . S
C331 H359 0.930 . S
N332 C331 1.373 . S
N332 C334 1.340 . S
N333 C330 1.368 . S
N333 C334 1.321 . S
N333 Co336 2.135 . S
C334 N332 1.340 . S
C334 N333 1.321 . S
C334 H358 0.930 . S
H335 C330 0.931 . S
Co336 N333 2.135 . S
Co336 N339 2.121 . S
Co336 O344 2.055 . S
Co336 O347 2.039 . S
Co336 N350 2.140 . S
C337 O338 1.227 . S
C337 O347 1.265 . S
O338 C337 1.227 . S
N339 Co336 2.121 . S
N339 C341 1.375 . S
N339 C342 1.313 . S
C340 C341 1.338 . S
C340 N343 1.377 . S
C340 H360 0.930 . S
C341 N339 1.375 . S
C341 C340 1.338 . S
C341 H345 0.931 . S
C342 N339 1.313 . S
C342 N343 1.344 . S
C342 H346 0.930 . S
N343 C340 1.377 . S
N343 C342 1.344 . S
O344 Co336 2.055 . S
O344 C348 1.253 . S
H345 C341 0.931 . S
H346 C342 0.930 . S
O347 Co336 2.039 . S
O347 C337 1.265 . S
C348 O344 1.253 . S
C348 O349 1.227 . S
O349 C348 1.227 . S
N350 Co336 2.140 . S
N350 C353 1.346 . S
N350 C354 1.345 . S
C351 C352 1.387 . S
C351 C355 1.391 . S
C352 C351 1.387 . S
C352 C353 1.369 . S
C352 H361 0.929 . S
C353 N350 1.346 . S
C353 C352 1.369 . S
C353 H356 0.928 . S
C354 N350 1.345 . S
C354 C355 1.371 . S
C354 H357 0.931 . S
C355 C351 1.391 . S
C355 C354 1.371 . S
C355 H362 0.930 . S
H356 C353 0.928 . S
H357 C354 0.931 . S
H358 C334 0.930 . S
H359 C331 0.930 . S
H360 C340 0.930 . S
H361 C352 0.929 . S
H362 C355 0.930 . S
C363 C364 1.351 . S
C363 N366 1.368 1_554 S
C363 H368 0.931 . S
C364 C363 1.351 . S
C364 N365 1.387 . S
C364 H392 0.930 . S
N365 C364 1.387 . S
N365 C367 1.327 1_554 S
N366 C363 1.368 1_556 S
N366 C367 1.321 . S
N366 Co369 2.135 . S
C367 N365 1.327 1_556 S
C367 N366 1.321 . S
C367 H391 0.930 . S
H368 C363 0.931 . S
Co369 N366 2.135 . S
Co369 N372 2.121 . S
Co369 O377 2.055 . S
Co369 O380 2.039 . S
Co369 N383 2.140 . S
C370 O371 1.227 . S
C370 O380 1.265 . S
O371 C370 1.227 . S
N372 Co369 2.121 . S
N372 C374 1.375 . S
N372 C375 1.313 . S
C373 C374 1.338 . S
C373 N376 1.377 . S
C373 H393 0.930 . S
C374 N372 1.375 . S
C374 C373 1.338 . S
C374 H378 0.931 . S
C375 N372 1.313 . S
C375 N376 1.344 . S
C375 H379 0.930 . S
N376 C373 1.377 . S
N376 C375 1.344 . S
O377 Co369 2.055 . S
O377 C381 1.253 1_556 S
H378 C374 0.931 . S
H379 C375 0.930 . S
O380 Co369 2.039 . S
O380 C370 1.265 . S
C381 O377 1.253 1_554 S
C381 O382 1.227 . S
O382 C381 1.227 . S
N383 Co369 2.140 . S
N383 C386 1.346 . S
N383 C387 1.345 . S
C384 C385 1.387 . S
C384 C388 1.391 . S
C385 C384 1.387 . S
C385 C386 1.369 . S
C385 H394 0.929 . S
C386 N383 1.346 . S
C386 C385 1.369 . S
C386 H389 0.928 . S
C387 N383 1.345 . S
C387 C388 1.371 . S
C387 H390 0.931 . S
C388 C384 1.391 . S
C388 C387 1.371 . S
C388 H395 0.930 . S
H389 C386 0.928 . S
H390 C387 0.931 . S
H391 C367 0.930 . S
H392 C364 0.930 . S
H393 C373 0.930 . S
H394 C385 0.929 . S
H395 C388 0.930 . S
C396 C397 1.351 . S
C396 N399 1.368 . S
C396 H401 0.931 . S
C397 C396 1.351 . S
C397 N398 1.373 . S
C397 H425 0.930 . S
N398 C397 1.373 . S
N398 C400 1.340 . S
N399 C396 1.368 . S
N399 C400 1.321 . S
N399 Co402 2.135 . S
C400 N398 1.340 . S
C400 N399 1.321 . S
C400 H424 0.930 . S
H401 C396 0.931 . S
Co402 N399 2.135 . S
Co402 N405 2.121 . S
Co402 O410 2.055 . S
Co402 O413 2.039 . S
Co402 N416 2.140 . S
C403 O404 1.227 . S
C403 O413 1.265 . S
O404 C403 1.227 . S
N405 Co402 2.121 . S
N405 C407 1.375 . S
N405 C408 1.313 . S
C406 C407 1.338 . S
C406 N409 1.377 . S
C406 H426 0.930 . S
C407 N405 1.375 . S
C407 C406 1.338 . S
C407 H411 0.931 . S
C408 N405 1.313 . S
C408 N409 1.344 . S
C408 H412 0.930 . S
N409 C406 1.377 . S
N409 C408 1.344 . S
O410 Co402 2.055 . S
O410 C414 1.253 . S
H411 C407 0.931 . S
H412 C408 0.930 . S
O413 Co402 2.039 . S
O413 C403 1.265 . S
C414 O410 1.253 . S
C414 O415 1.227 . S
O415 C414 1.227 . S
N416 Co402 2.140 . S
N416 C419 1.346 . S
N416 C420 1.345 . S
C417 C418 1.387 . S
C417 C421 1.391 . S
C418 C417 1.387 . S
C418 C419 1.369 . S
C418 H427 0.929 . S
C419 N416 1.346 . S
C419 C418 1.369 . S
C419 H422 0.928 . S
C420 N416 1.345 . S
C420 C421 1.371 . S
C420 H423 0.931 . S
C421 C417 1.391 . S
C421 C420 1.371 . S
C421 H428 0.930 . S
H422 C419 0.928 . S
H423 C420 0.931 . S
H424 C400 0.930 . S
H425 C397 0.930 . S
H426 C406 0.930 . S
H427 C418 0.929 . S
H428 C421 0.930 . S
C429 C430 1.351 . S
C429 N432 1.368 . S
C429 H434 0.931 . S
C430 C429 1.351 . S
C430 N431 1.373 . S
C430 H458 0.930 . S
N431 C430 1.373 . S
N431 C433 1.340 . S
N432 C429 1.368 . S
N432 C433 1.321 . S
N432 Co435 2.135 . S
C433 N431 1.340 . S
C433 N432 1.321 . S
C433 H457 0.930 . S
H434 C429 0.931 . S
Co435 N432 2.135 . S
Co435 N438 2.121 . S
Co435 O443 2.055 . S
Co435 O446 2.039 . S
Co435 N449 2.140 . S
C436 O437 1.227 . S
C436 O446 1.265 . S
O437 C436 1.227 . S
N438 Co435 2.121 . S
N438 C440 1.375 . S
N438 C441 1.313 . S
C439 C440 1.338 . S
C439 N442 1.377 . S
C439 H459 0.930 . S
C440 N438 1.375 . S
C440 C439 1.338 . S
C440 H444 0.931 . S
C441 N438 1.313 . S
C441 N442 1.344 . S
C441 H445 0.930 . S
N442 C439 1.377 . S
N442 C441 1.344 . S
O443 Co435 2.055 . S
O443 C447 1.253 . S
H444 C440 0.931 . S
H445 C441 0.930 . S
O446 Co435 2.039 . S
O446 C436 1.265 . S
C447 O443 1.253 . S
C447 O448 1.227 . S
O448 C447 1.227 . S
N449 Co435 2.140 . S
N449 C452 1.346 . S
N449 C453 1.345 . S
C450 C451 1.387 . S
C450 C454 1.391 . S
C451 C450 1.387 . S
C451 C452 1.369 . S
C451 H460 0.929 . S
C452 N449 1.346 . S
C452 C451 1.369 . S
C452 H455 0.928 . S
C453 N449 1.345 . S
C453 C454 1.371 . S
C453 H456 0.931 . S
C454 C450 1.391 . S
C454 C453 1.371 . S
C454 H461 0.930 . S
H455 C452 0.928 . S
H456 C453 0.931 . S
H457 C433 0.930 . S
H458 C430 0.930 . S
H459 C439 0.930 . S
H460 C451 0.929 . S
H461 C454 0.930 . S
C462 C463 1.351 . S
C462 N465 1.368 . S
C462 H467 0.931 . S
C463 C462 1.351 . S
C463 N464 1.373 . S
C463 H491 0.930 . S
N464 C463 1.373 . S
N464 C466 1.340 . S
N465 C462 1.368 . S
N465 C466 1.321 . S
N465 Co468 2.135 . S
C466 N464 1.340 . S
C466 N465 1.321 . S
C466 H490 0.930 . S
H467 C462 0.931 . S
Co468 N465 2.135 . S
Co468 N471 2.121 . S
Co468 O476 2.055 . S
Co468 O479 2.039 . S
Co468 N482 2.140 . S
C469 O470 1.227 . S
C469 O479 1.265 . S
O470 C469 1.227 . S
N471 Co468 2.121 . S
N471 C473 1.375 . S
N471 C474 1.313 . S
C472 C473 1.338 . S
C472 N475 1.377 . S
C472 H492 0.930 . S
C473 N471 1.375 . S
C473 C472 1.338 . S
C473 H477 0.931 . S
C474 N471 1.313 . S
C474 N475 1.344 . S
C474 H478 0.930 . S
N475 C472 1.377 . S
N475 C474 1.344 . S
O476 Co468 2.055 . S
O476 C480 1.253 . S
H477 C473 0.931 . S
H478 C474 0.930 . S
O479 Co468 2.039 . S
O479 C469 1.265 . S
C480 O476 1.253 . S
C480 O481 1.227 . S
O481 C480 1.227 . S
N482 Co468 2.140 . S
N482 C485 1.346 . S
N482 C486 1.345 . S
C483 C484 1.387 . S
C483 C487 1.391 . S
C484 C483 1.387 . S
C484 C485 1.369 . S
C484 H493 0.929 . S
C485 N482 1.346 . S
C485 C484 1.369 . S
C485 H488 0.928 . S
C486 N482 1.345 . S
C486 C487 1.371 . S
C486 H489 0.931 . S
C487 C483 1.391 . S
C487 C486 1.371 . S
C487 H494 0.930 . S
H488 C485 0.928 . S
H489 C486 0.931 . S
H490 C466 0.930 . S
H491 C463 0.930 . S
H492 C472 0.930 . S
H493 C484 0.929 . S
H494 C487 0.930 . S
C495 C496 1.351 . S
C495 N498 1.368 1_556 S
C495 H500 0.931 . S
C496 C495 1.351 . S
C496 N497 1.387 . S
C496 H524 0.930 . S
N497 C496 1.387 . S
N497 C499 1.327 1_556 S
N498 C495 1.368 1_554 S
N498 C499 1.321 . S
N498 Co501 2.135 . S
C499 N497 1.327 1_554 S
C499 N498 1.321 . S
C499 H523 0.930 . S
H500 C495 0.931 . S
Co501 N498 2.135 . S
Co501 N504 2.121 . S
Co501 O509 2.055 . S
Co501 O512 2.039 . S
Co501 N515 2.140 . S
C502 O503 1.227 . S
C502 O512 1.265 . S
O503 C502 1.227 . S
N504 Co501 2.121 . S
N504 C506 1.375 . S
N504 C507 1.313 . S
C505 C506 1.338 . S
C505 N508 1.377 . S
C505 H525 0.930 . S
C506 N504 1.375 . S
C506 C505 1.338 . S
C506 H510 0.931 . S
C507 N504 1.313 . S
C507 N508 1.344 . S
C507 H511 0.930 . S
N508 C505 1.377 . S
N508 C507 1.344 . S
O509 Co501 2.055 . S
O509 C513 1.253 1_554 S
H510 C506 0.931 . S
H511 C507 0.930 . S
O512 Co501 2.039 . S
O512 C502 1.265 . S
C513 O509 1.253 1_556 S
C513 O514 1.227 . S
O514 C513 1.227 . S
N515 Co501 2.140 . S
N515 C518 1.346 . S
N515 C519 1.345 . S
C516 C517 1.393 . S
C516 C520 1.422 . S
C517 C516 1.393 . S
C517 C518 1.369 . S
C517 H526 0.929 1_655 S
C518 N515 1.346 . S
C518 C517 1.369 . S
C518 H521 0.928 . S
C519 N515 1.345 . S
C519 C520 1.371 . S
C519 H522 0.931 . S
C520 C516 1.422 . S
C520 C519 1.371 . S
C520 H527 0.930 . S
H521 C518 0.928 . S
H522 C519 0.931 . S
H523 C499 0.930 . S
H524 C496 0.930 . S
H525 C505 0.930 . S
H526 C517 0.929 1_455 S
H527 C520 0.930 . S
C528 C529 1.351 . S
C528 N531 1.368 . S
C528 H533 0.931 . S
C529 C528 1.351 . S
C529 N530 1.373 . S
C529 H557 0.930 . S
N530 C529 1.373 . S
N530 C532 1.340 . S
N531 C528 1.368 . S
N531 C532 1.321 . S
N531 Co534 2.135 . S
C532 N530 1.340 . S
C532 N531 1.321 . S
C532 H556 0.930 . S
H533 C528 0.931 . S
Co534 N531 2.135 . S
Co534 N537 2.121 . S
Co534 O542 2.055 . S
Co534 O545 2.039 . S
Co534 N548 2.140 . S
C535 O536 1.227 . S
C535 O545 1.265 . S
O536 C535 1.227 . S
N537 Co534 2.121 . S
N537 C539 1.375 . S
N537 C540 1.313 . S
C538 C539 1.338 . S
C538 N541 1.377 . S
C538 H558 0.930 . S
C539 N537 1.375 . S
C539 C538 1.338 . S
C539 H543 0.931 . S
C540 N537 1.313 . S
C540 N541 1.344 . S
C540 H544 0.930 . S
N541 C538 1.377 . S
N541 C540 1.344 . S
O542 Co534 2.055 . S
O542 C546 1.253 . S
H543 C539 0.931 . S
H544 C540 0.930 . S
O545 Co534 2.039 . S
O545 C535 1.265 . S
C546 O542 1.253 . S
C546 O547 1.227 . S
O547 C546 1.227 . S
N548 Co534 2.140 . S
N548 C551 1.346 . S
N548 C552 1.345 . S
C549 C550 1.387 . S
C549 C553 1.391 . S
C550 C549 1.387 . S
C550 C551 1.369 . S
C550 H559 0.929 . S
C551 N548 1.346 . S
C551 C550 1.369 . S
C551 H554 0.928 . S
C552 N548 1.345 . S
C552 C553 1.371 . S
C552 H555 0.931 . S
C553 C549 1.391 . S
C553 C552 1.371 . S
C553 H560 0.930 . S
H554 C551 0.928 . S
H555 C552 0.931 . S
H556 C532 0.930 . S
H557 C529 0.930 . S
H558 C538 0.930 . S
H559 C550 0.929 . S
H560 C553 0.930 . S
C561 C562 1.351 . S
C561 N564 1.368 1_556 S
C561 H566 0.931 . S
C562 C561 1.351 . S
C562 N563 1.387 . S
C562 H590 0.930 . S
N563 C562 1.387 . S
N563 C565 1.327 1_556 S
N564 C561 1.368 1_554 S
N564 C565 1.321 . S
N564 Co567 2.135 . S
C565 N563 1.327 1_554 S
C565 N564 1.321 . S
C565 H589 0.930 . S
H566 C561 0.931 . S
Co567 N564 2.135 . S
Co567 N570 2.121 . S
Co567 O575 2.055 . S
Co567 O578 2.039 . S
Co567 N581 2.140 . S
C568 O569 1.227 . S
C568 O578 1.265 . S
O569 C568 1.227 . S
N570 Co567 2.121 . S
N570 C572 1.375 . S
N570 C573 1.313 . S
C571 C572 1.338 . S
C571 N574 1.377 . S
C571 H591 0.930 . S
C572 N570 1.375 . S
C572 C571 1.338 . S
C572 H576 0.931 . S
C573 N570 1.313 . S
C573 N574 1.344 . S
C573 H577 0.930 . S
N574 C571 1.377 . S
N574 C573 1.344 . S
O575 Co567 2.055 . S
O575 C579 1.253 1_554 S
H576 C572 0.931 . S
H577 C573 0.930 . S
O578 Co567 2.039 . S
O578 C568 1.265 . S
C579 O575 1.253 1_556 S
C579 O580 1.227 . S
O580 C579 1.227 . S
N581 Co567 2.140 . S
N581 C584 1.346 . S
N581 C585 1.345 . S
C582 C583 1.387 . S
C582 C586 1.391 . S
C583 C582 1.387 . S
C583 C584 1.369 . S
C583 H592 0.929 . S
C584 N581 1.346 . S
C584 C583 1.369 . S
C584 H587 0.928 . S
C585 N581 1.345 . S
C585 C586 1.371 . S
C585 H588 0.931 . S
C586 C582 1.391 . S
C586 C585 1.371 . S
C586 H593 0.930 . S
H587 C584 0.928 . S
H588 C585 0.931 . S
H589 C565 0.930 . S
H590 C562 0.930 . S
H591 C571 0.930 . S
H592 C583 0.929 . S
H593 C586 0.930 . S
C594 C595 1.351 . S
C594 N597 1.368 . S
C594 H599 0.931 . S
C595 C594 1.351 . S
C595 N596 1.373 . S
C595 H623 0.930 . S
N596 C595 1.373 . S
N596 C598 1.340 . S
N597 C594 1.368 . S
N597 C598 1.321 . S
N597 Co600 2.135 . S
C598 N596 1.340 . S
C598 N597 1.321 . S
C598 H622 0.930 . S
H599 C594 0.931 . S
Co600 N597 2.135 . S
Co600 N603 2.121 . S
Co600 O608 2.055 . S
Co600 O611 2.039 . S
Co600 N614 2.140 . S
C601 O602 1.227 . S
C601 O611 1.265 . S
O602 C601 1.227 . S
N603 Co600 2.121 . S
N603 C605 1.375 . S
N603 C606 1.313 . S
C604 C605 1.338 . S
C604 N607 1.377 . S
C604 H624 0.930 . S
C605 N603 1.375 . S
C605 C604 1.338 . S
C605 H609 0.931 . S
C606 N603 1.313 . S
C606 N607 1.344 . S
C606 H610 0.930 . S
N607 C604 1.377 . S
N607 C606 1.344 . S
O608 Co600 2.055 . S
O608 C612 1.253 . S
H609 C605 0.931 . S
H610 C606 0.930 . S
O611 Co600 2.039 . S
O611 C601 1.265 . S
C612 O608 1.253 . S
C612 O613 1.227 . S
O613 C612 1.227 . S
N614 Co600 2.140 . S
N614 C617 1.346 . S
N614 C618 1.345 . S
C615 C616 1.387 . S
C615 C619 1.391 . S
C616 C615 1.387 . S
C616 C617 1.369 . S
C616 H625 0.929 . S
C617 N614 1.346 . S
C617 C616 1.369 . S
C617 H620 0.928 . S
C618 N614 1.345 . S
C618 C619 1.371 . S
C618 H621 0.931 . S
C619 C615 1.391 . S
C619 C618 1.371 . S
C619 H626 0.930 . S
H620 C617 0.928 . S
H621 C618 0.931 . S
H622 C598 0.930 . S
H623 C595 0.930 . S
H624 C604 0.930 . S
H625 C616 0.929 . S
H626 C619 0.930 . S
C627 C628 1.351 . S
C627 N630 1.368 . S
C627 H632 0.931 . S
C628 C627 1.351 . S
C628 N629 1.373 . S
C628 H656 0.930 . S
N629 C628 1.373 . S
N629 C631 1.340 . S
N630 C627 1.368 . S
N630 C631 1.321 . S
N630 Co633 2.135 . S
C631 N629 1.340 . S
C631 N630 1.321 . S
C631 H655 0.930 . S
H632 C627 0.931 . S
Co633 N630 2.135 . S
Co633 N636 2.121 . S
Co633 O641 2.055 . S
Co633 O644 2.039 . S
Co633 N647 2.140 . S
C634 O635 1.227 . S
C634 O644 1.265 . S
O635 C634 1.227 . S
N636 Co633 2.121 . S
N636 C638 1.375 . S
N636 C639 1.313 . S
C637 C638 1.338 . S
C637 N640 1.377 . S
C637 H657 0.930 . S
C638 N636 1.375 . S
C638 C637 1.338 . S
C638 H642 0.931 . S
C639 N636 1.313 . S
C639 N640 1.344 . S
C639 H643 0.930 . S
N640 C637 1.377 . S
N640 C639 1.344 . S
O641 Co633 2.055 . S
O641 C645 1.253 . S
H642 C638 0.931 . S
H643 C639 0.930 . S
O644 Co633 2.039 . S
O644 C634 1.265 . S
C645 O641 1.253 . S
C645 O646 1.227 . S
O646 C645 1.227 . S
N647 Co633 2.140 . S
N647 C650 1.346 . S
N647 C651 1.345 . S
C648 C649 1.393 . S
C648 C652 1.422 . S
C649 C648 1.393 . S
C649 C650 1.369 . S
C649 H658 0.929 1_655 S
C650 N647 1.346 . S
C650 C649 1.369 . S
C650 H653 0.928 . S
C651 N647 1.345 . S
C651 C652 1.371 . S
C651 H654 0.931 . S
C652 C648 1.422 . S
C652 C651 1.371 . S
C652 H659 0.930 . S
H653 C650 0.928 . S
H654 C651 0.931 . S
H655 C631 0.930 . S
H656 C628 0.930 . S
H657 C637 0.930 . S
H658 C649 0.929 1_455 S
H659 C652 0.930 . S
C660 C661 1.351 . S
C660 N663 1.368 . S
C660 H665 0.931 . S
C661 C660 1.351 . S
C661 N662 1.373 . S
C661 H689 0.930 . S
N662 C661 1.373 . S
N662 C664 1.340 . S
N663 C660 1.368 . S
N663 C664 1.321 . S
N663 Co666 2.135 . S
C664 N662 1.340 . S
C664 N663 1.321 . S
C664 H688 0.930 . S
H665 C660 0.931 . S
Co666 N663 2.135 . S
Co666 N669 2.121 . S
Co666 O674 2.055 . S
Co666 O677 2.039 . S
Co666 N680 2.140 . S
C667 O668 1.227 . S
C667 O677 1.265 . S
O668 C667 1.227 . S
N669 Co666 2.121 . S
N669 C671 1.375 . S
N669 C672 1.313 . S
C670 C671 1.338 . S
C670 N673 1.377 . S
C670 H690 0.930 . S
C671 N669 1.375 . S
C671 C670 1.338 . S
C671 H675 0.931 . S
C672 N669 1.313 . S
C672 N673 1.344 . S
C672 H676 0.930 . S
N673 C670 1.377 . S
N673 C672 1.344 . S
O674 Co666 2.055 . S
O674 C678 1.253 . S
H675 C671 0.931 . S
H676 C672 0.930 . S
O677 Co666 2.039 . S
O677 C667 1.265 . S
C678 O674 1.253 . S
C678 O679 1.227 . S
O679 C678 1.227 . S
N680 Co666 2.140 . S
N680 C683 1.346 . S
N680 C684 1.345 . S
C681 C682 1.387 . S
C681 C685 1.391 . S
C682 C681 1.387 . S
C682 C683 1.369 . S
C682 H691 0.929 . S
C683 N680 1.346 . S
C683 C682 1.369 . S
C683 H686 0.928 . S
C684 N680 1.345 . S
C684 C685 1.371 . S
C684 H687 0.931 . S
C685 C681 1.391 . S
C685 C684 1.371 . S
C685 H692 0.930 . S
H686 C683 0.928 . S
H687 C684 0.931 . S
H688 C664 0.930 . S
H689 C661 0.930 . S
H690 C670 0.930 . S
H691 C682 0.929 . S
H692 C685 0.930 . S
C693 C694 1.351 . S
C693 N696 1.368 1_554 S
C693 H698 0.931 . S
C694 C693 1.351 . S
C694 N695 1.387 . S
C694 H722 0.930 . S
N695 C694 1.387 . S
N695 C697 1.327 1_554 S
N696 C693 1.368 1_556 S
N696 C697 1.321 . S
N696 Co699 2.135 . S
C697 N695 1.327 1_556 S
C697 N696 1.321 . S
C697 H721 0.930 . S
H698 C693 0.931 . S
Co699 N696 2.135 . S
Co699 N702 2.121 . S
Co699 O707 2.055 . S
Co699 O710 2.039 . S
Co699 N713 2.140 . S
C700 O701 1.227 . S
C700 O710 1.265 . S
O701 C700 1.227 . S
N702 Co699 2.121 . S
N702 C704 1.375 . S
N702 C705 1.313 . S
C703 C704 1.338 . S
C703 N706 1.377 . S
C703 H723 0.930 . S
C704 N702 1.375 . S
C704 C703 1.338 . S
C704 H708 0.931 . S
C705 N702 1.313 . S
C705 N706 1.344 . S
C705 H709 0.930 . S
N706 C703 1.377 . S
N706 C705 1.344 . S
O707 Co699 2.055 . S
O707 C711 1.253 1_556 S
H708 C704 0.931 . S
H709 C705 0.930 . S
O710 Co699 2.039 . S
O710 C700 1.265 . S
C711 O707 1.253 1_554 S
C711 O712 1.227 . S
O712 C711 1.227 . S
N713 Co699 2.140 . S
N713 C716 1.346 . S
N713 C717 1.345 . S
C714 C715 1.393 . S
C714 C718 1.422 . S
C715 C714 1.393 . S
C715 C716 1.369 . S
C715 H724 0.929 1_655 S
C716 N713 1.346 . S
C716 C715 1.369 . S
C716 H719 0.928 . S
C717 N713 1.345 . S
C717 C718 1.371 . S
C717 H720 0.931 . S
C718 C714 1.422 . S
C718 C717 1.371 . S
C718 H725 0.930 . S
H719 C716 0.928 . S
H720 C717 0.931 . S
H721 C697 0.930 . S
H722 C694 0.930 . S
H723 C703 0.930 . S
H724 C715 0.929 1_455 S
H725 C718 0.930 . S
C726 C727 1.351 . S
C726 N729 1.368 . S
C726 H731 0.931 . S
C727 C726 1.351 . S
C727 N728 1.373 . S
C727 H755 0.930 . S
N728 C727 1.373 . S
N728 C730 1.340 . S
N729 C726 1.368 . S
N729 C730 1.321 . S
N729 Co732 2.135 . S
C730 N728 1.340 . S
C730 N729 1.321 . S
C730 H754 0.930 . S
H731 C726 0.931 . S
Co732 N729 2.135 . S
Co732 N735 2.121 . S
Co732 O740 2.055 . S
Co732 O743 2.039 . S
Co732 N746 2.140 . S
C733 O734 1.227 . S
C733 O743 1.265 . S
O734 C733 1.227 . S
N735 Co732 2.121 . S
N735 C737 1.375 . S
N735 C738 1.313 . S
C736 C737 1.338 . S
C736 N739 1.377 . S
C736 H756 0.930 . S
C737 N735 1.375 . S
C737 C736 1.338 . S
C737 H741 0.931 . S
C738 N735 1.313 . S
C738 N739 1.344 . S
C738 H742 0.930 . S
N739 C736 1.377 . S
N739 C738 1.344 . S
O740 Co732 2.055 . S
O740 C744 1.253 . S
H741 C737 0.931 . S
H742 C738 0.930 . S
O743 Co732 2.039 . S
O743 C733 1.265 . S
C744 O740 1.253 . S
C744 O745 1.227 . S
O745 C744 1.227 . S
N746 Co732 2.140 . S
N746 C749 1.346 . S
N746 C750 1.345 . S
C747 C748 1.387 . S
C747 C751 1.391 . S
C748 C747 1.387 . S
C748 C749 1.369 . S
C748 H757 0.929 . S
C749 N746 1.346 . S
C749 C748 1.369 . S
C749 H752 0.928 . S
C750 N746 1.345 . S
C750 C751 1.371 . S
C750 H753 0.931 . S
C751 C747 1.391 . S
C751 C750 1.371 . S
C751 H758 0.930 . S
H752 C749 0.928 . S
H753 C750 0.931 . S
H754 C730 0.930 . S
H755 C727 0.930 . S
H756 C736 0.930 . S
H757 C748 0.929 . S
H758 C751 0.930 . S
C759 C760 1.351 . S
C759 N762 1.368 . S
C759 H764 0.931 . S
C760 C759 1.351 . S
C760 N761 1.373 . S
C760 H788 0.930 . S
N761 C760 1.373 . S
N761 C763 1.340 . S
N762 C759 1.368 . S
N762 C763 1.321 . S
N762 Co765 2.135 . S
C763 N761 1.340 . S
C763 N762 1.321 . S
C763 H787 0.930 . S
H764 C759 0.931 . S
Co765 N762 2.135 . S
Co765 N768 2.121 . S
Co765 O773 2.055 . S
Co765 O776 2.039 . S
Co765 N779 2.140 . S
C766 O767 1.227 . S
C766 O776 1.265 . S
O767 C766 1.227 . S
N768 Co765 2.121 . S
N768 C770 1.375 . S
N768 C771 1.313 . S
C769 C770 1.338 . S
C769 N772 1.377 . S
C769 H789 0.930 . S
C770 N768 1.375 . S
C770 C769 1.338 . S
C770 H774 0.931 . S
C771 N768 1.313 . S
C771 N772 1.344 . S
C771 H775 0.930 . S
N772 C769 1.377 . S
N772 C771 1.344 . S
O773 Co765 2.055 . S
O773 C777 1.253 . S
H774 C770 0.931 . S
H775 C771 0.930 . S
O776 Co765 2.039 . S
O776 C766 1.265 . S
C777 O773 1.253 . S
C777 O778 1.227 . S
O778 C777 1.227 . S
N779 Co765 2.140 . S
N779 C782 1.346 . S
N779 C783 1.345 . S
C780 C781 1.387 . S
C780 C784 1.391 . S
C781 C780 1.387 . S
C781 C782 1.369 . S
C781 H790 0.929 . S
C782 N779 1.346 . S
C782 C781 1.369 . S
C782 H785 0.928 . S
C783 N779 1.345 . S
C783 C784 1.371 . S
C783 H786 0.931 . S
C784 C780 1.391 . S
C784 C783 1.371 . S
C784 H791 0.930 . S
H785 C782 0.928 . S
H786 C783 0.931 . S
H787 C763 0.930 . S
H788 C760 0.930 . S
H789 C769 0.930 . S
H790 C781 0.929 . S
H791 C784 0.930 . S
C792 C793 1.351 . S
C792 N795 1.368 . S
C792 H797 0.931 . S
C793 C792 1.351 . S
C793 N794 1.373 . S
C793 H821 0.930 . S
N794 C793 1.373 . S
N794 C796 1.340 . S
N795 C792 1.368 . S
N795 C796 1.321 . S
N795 Co798 2.135 . S
C796 N794 1.340 . S
C796 N795 1.321 . S
C796 H820 0.930 . S
H797 C792 0.931 . S
Co798 N795 2.135 . S
Co798 N801 2.121 . S
Co798 O806 2.055 . S
Co798 O809 2.039 . S
Co798 N812 2.140 . S
C799 O800 1.227 . S
C799 O809 1.265 . S
O800 C799 1.227 . S
N801 Co798 2.121 . S
N801 C803 1.375 . S
N801 C804 1.313 . S
C802 C803 1.338 . S
C802 N805 1.377 . S
C802 H822 0.930 . S
C803 N801 1.375 . S
C803 C802 1.338 . S
C803 H807 0.931 . S
C804 N801 1.313 . S
C804 N805 1.344 . S
C804 H808 0.930 . S
N805 C802 1.377 . S
N805 C804 1.344 . S
O806 Co798 2.055 . S
O806 C810 1.253 . S
H807 C803 0.931 . S
H808 C804 0.930 . S
O809 Co798 2.039 . S
O809 C799 1.265 . S
C810 O806 1.253 . S
C810 O811 1.227 . S
O811 C810 1.227 . S
N812 Co798 2.140 . S
N812 C815 1.346 . S
N812 C816 1.345 . S
C813 C814 1.387 . S
C813 C817 1.391 . S
C814 C813 1.387 . S
C814 C815 1.369 . S
C814 H823 0.929 . S
C815 N812 1.346 . S
C815 C814 1.369 . S
C815 H818 0.928 . S
C816 N812 1.345 . S
C816 C817 1.371 . S
C816 H819 0.931 . S
C817 C813 1.391 . S
C817 C816 1.371 . S
C817 H824 0.930 . S
H818 C815 0.928 . S
H819 C816 0.931 . S
H820 C796 0.930 . S
H821 C793 0.930 . S
H822 C802 0.930 . S
H823 C814 0.929 . S
H824 C817 0.930 . S
C825 C826 1.351 . S
C825 N828 1.368 1_554 S
C825 H830 0.931 . S
C826 C825 1.351 . S
C826 N827 1.387 . S
C826 H854 0.930 . S
N827 C826 1.387 . S
N827 C829 1.327 1_554 S
N828 C825 1.368 1_556 S
N828 C829 1.321 . S
N828 Co831 2.135 . S
C829 N827 1.327 1_556 S
C829 N828 1.321 . S
C829 H853 0.930 . S
H830 C825 0.931 . S
Co831 N828 2.135 . S
Co831 N834 2.121 . S
Co831 O839 2.055 . S
Co831 O842 2.039 . S
Co831 N845 2.140 . S
C832 O833 1.227 . S
C832 O842 1.265 . S
O833 C832 1.227 . S
N834 Co831 2.121 . S
N834 C836 1.375 . S
N834 C837 1.313 . S
C835 C836 1.338 . S
C835 N838 1.377 . S
C835 H855 0.930 . S
C836 N834 1.375 . S
C836 C835 1.338 . S
C836 H840 0.931 . S
C837 N834 1.313 . S
C837 N838 1.344 . S
C837 H841 0.930 . S
N838 C835 1.377 . S
N838 C837 1.344 . S
O839 Co831 2.055 . S
O839 C843 1.253 1_556 S
H840 C836 0.931 . S
H841 C837 0.930 . S
O842 Co831 2.039 . S
O842 C832 1.265 . S
C843 O839 1.253 1_554 S
C843 O844 1.227 . S
O844 C843 1.227 . S
N845 Co831 2.140 . S
N845 C848 1.346 . S
N845 C849 1.345 . S
C846 C847 1.387 . S
C846 C850 1.391 . S
C847 C846 1.387 . S
C847 C848 1.369 . S
C847 H856 0.929 . S
C848 N845 1.346 . S
C848 C847 1.369 . S
C848 H851 0.928 . S
C849 N845 1.345 . S
C849 C850 1.371 . S
C849 H852 0.931 . S
C850 C846 1.391 . S
C850 C849 1.371 . S
C850 H857 0.930 . S
H851 C848 0.928 . S
H852 C849 0.931 . S
H853 C829 0.930 . S
H854 C826 0.930 . S
H855 C835 0.930 . S
H856 C847 0.929 . S
H857 C850 0.930 . S
C858 C859 1.351 . S
C858 N861 1.368 . S
C858 H863 0.931 . S
C859 C858 1.351 . S
C859 N860 1.373 . S
C859 H887 0.930 . S
N860 C859 1.373 . S
N860 C862 1.340 . S
N861 C858 1.368 . S
N861 C862 1.321 . S
N861 Co864 2.135 . S
C862 N860 1.340 . S
C862 N861 1.321 . S
C862 H886 0.930 . S
H863 C858 0.931 . S
Co864 N861 2.135 . S
Co864 N867 2.121 . S
Co864 O872 2.055 . S
Co864 O875 2.039 . S
Co864 N878 2.140 . S
C865 O866 1.227 . S
C865 O875 1.265 . S
O866 C865 1.227 . S
N867 Co864 2.121 . S
N867 C869 1.375 . S
N867 C870 1.313 . S
C868 C869 1.338 . S
C868 N871 1.377 . S
C868 H888 0.930 . S
C869 N867 1.375 . S
C869 C868 1.338 . S
C869 H873 0.931 . S
C870 N867 1.313 . S
C870 N871 1.344 . S
C870 H874 0.930 . S
N871 C868 1.377 . S
N871 C870 1.344 . S
O872 Co864 2.055 . S
O872 C876 1.253 . S
H873 C869 0.931 . S
H874 C870 0.930 . S
O875 Co864 2.039 . S
O875 C865 1.265 . S
C876 O872 1.253 . S
C876 O877 1.227 . S
O877 C876 1.227 . S
N878 Co864 2.140 . S
N878 C881 1.346 . S
N878 C882 1.345 . S
C879 C880 1.387 . S
C879 C883 1.391 . S
C880 C879 1.387 . S
C880 C881 1.369 . S
C880 H889 0.929 . S
C881 N878 1.346 . S
C881 C880 1.369 . S
C881 H884 0.928 . S
C882 N878 1.345 . S
C882 C883 1.371 . S
C882 H885 0.931 . S
C883 C879 1.391 . S
C883 C882 1.371 . S
C883 H890 0.930 . S
H884 C881 0.928 . S
H885 C882 0.931 . S
H886 C862 0.930 . S
H887 C859 0.930 . S
H888 C868 0.930 . S
H889 C880 0.929 . S
H890 C883 0.930 . S
C891 C892 1.351 . S
C891 N894 1.368 . S
C891 H896 0.931 . S
C892 C891 1.351 . S
C892 N893 1.373 . S
C892 H920 0.930 . S
N893 C892 1.373 . S
N893 C895 1.340 . S
N894 C891 1.368 . S
N894 C895 1.321 . S
N894 Co897 2.135 . S
C895 N893 1.340 . S
C895 N894 1.321 . S
C895 H919 0.930 . S
H896 C891 0.931 . S
Co897 N894 2.135 . S
Co897 N900 2.121 . S
Co897 O905 2.055 . S
Co897 O908 2.039 . S
Co897 N911 2.140 . S
C898 O899 1.227 . S
C898 O908 1.265 . S
O899 C898 1.227 . S
N900 Co897 2.121 . S
N900 C902 1.375 . S
N900 C903 1.313 . S
C901 C902 1.338 . S
C901 N904 1.377 . S
C901 H921 0.930 . S
C902 N900 1.375 . S
C902 C901 1.338 . S
C902 H906 0.931 . S
C903 N900 1.313 . S
C903 N904 1.344 . S
C903 H907 0.930 . S
N904 C901 1.377 . S
N904 C903 1.344 . S
O905 Co897 2.055 . S
O905 C909 1.253 . S
H906 C902 0.931 . S
H907 C903 0.930 . S
O908 Co897 2.039 . S
O908 C898 1.265 . S
C909 O905 1.253 . S
C909 O910 1.227 . S
O910 C909 1.227 . S
N911 Co897 2.140 . S
N911 C914 1.346 . S
N911 C915 1.345 . S
C912 C913 1.393 . S
C912 C916 1.422 . S
C913 C912 1.393 . S
C913 C914 1.369 . S
C913 H922 0.929 1_455 S
C914 N911 1.346 . S
C914 C913 1.369 . S
C914 H917 0.928 . S
C915 N911 1.345 . S
C915 C916 1.371 . S
C915 H918 0.931 . S
C916 C912 1.422 . S
C916 C915 1.371 . S
C916 H923 0.930 . S
H917 C914 0.928 . S
H918 C915 0.931 . S
H919 C895 0.930 . S
H920 C892 0.930 . S
H921 C901 0.930 . S
H922 C913 0.929 1_655 S
H923 C916 0.930 . S
C924 C925 1.351 . S
C924 N927 1.368 . S
C924 H929 0.931 . S
C925 C924 1.351 . S
C925 N926 1.373 . S
C925 H953 0.930 . S
N926 C925 1.373 . S
N926 C928 1.340 . S
N927 C924 1.368 . S
N927 C928 1.321 . S
N927 Co930 2.135 . S
C928 N926 1.340 . S
C928 N927 1.321 . S
C928 H952 0.930 . S
H929 C924 0.931 . S
Co930 N927 2.135 . S
Co930 N933 2.121 . S
Co930 O938 2.055 . S
Co930 O941 2.039 . S
Co930 N944 2.140 . S
C931 O932 1.227 . S
C931 O941 1.265 . S
O932 C931 1.227 . S
N933 Co930 2.121 . S
N933 C935 1.375 . S
N933 C936 1.313 . S
C934 C935 1.338 . S
C934 N937 1.377 . S
C934 H954 0.930 . S
C935 N933 1.375 . S
C935 C934 1.338 . S
C935 H939 0.931 . S
C936 N933 1.313 . S
C936 N937 1.344 . S
C936 H940 0.930 . S
N937 C934 1.377 . S
N937 C936 1.344 . S
O938 Co930 2.055 . S
O938 C942 1.253 . S
H939 C935 0.931 . S
H940 C936 0.930 . S
O941 Co930 2.039 . S
O941 C931 1.265 . S
C942 O938 1.253 . S
C942 O943 1.227 . S
O943 C942 1.227 . S
N944 Co930 2.140 . S
N944 C947 1.346 . S
N944 C948 1.345 . S
C945 C946 1.387 . S
C945 C949 1.391 . S
C946 C945 1.387 . S
C946 C947 1.369 . S
C946 H955 0.929 . S
C947 N944 1.346 . S
C947 C946 1.369 . S
C947 H950 0.928 . S
C948 N944 1.345 . S
C948 C949 1.371 . S
C948 H951 0.931 . S
C949 C945 1.391 . S
C949 C948 1.371 . S
C949 H956 0.930 . S
H950 C947 0.928 . S
H951 C948 0.931 . S
H952 C928 0.930 . S
H953 C925 0.930 . S
H954 C934 0.930 . S
H955 C946 0.929 . S
H956 C949 0.930 . S
C957 C958 1.351 . S
C957 N960 1.368 1_556 S
C957 H962 0.931 . S
C958 C957 1.351 . S
C958 N959 1.387 . S
C958 H986 0.930 . S
N959 C958 1.387 . S
N959 C961 1.327 1_556 S
N960 C957 1.368 1_554 S
N960 C961 1.321 . S
N960 Co963 2.135 . S
C961 N959 1.327 1_554 S
C961 N960 1.321 . S
C961 H985 0.930 . S
H962 C957 0.931 . S
Co963 N960 2.135 . S
Co963 N966 2.121 . S
Co963 O971 2.055 . S
Co963 O974 2.039 . S
Co963 N977 2.140 . S
C964 O965 1.227 . S
C964 O974 1.265 . S
O965 C964 1.227 . S
N966 Co963 2.121 . S
N966 C968 1.375 . S
N966 C969 1.313 . S
C967 C968 1.338 . S
C967 N970 1.377 . S
C967 H987 0.930 . S
C968 N966 1.375 . S
C968 C967 1.338 . S
C968 H972 0.931 . S
C969 N966 1.313 . S
C969 N970 1.344 . S
C969 H973 0.930 . S
N970 C967 1.377 . S
N970 C969 1.344 . S
O971 Co963 2.055 . S
O971 C975 1.253 1_554 S
H972 C968 0.931 . S
H973 C969 0.930 . S
O974 Co963 2.039 . S
O974 C964 1.265 . S
C975 O971 1.253 1_556 S
C975 O976 1.227 . S
O976 C975 1.227 . S
N977 Co963 2.140 . S
N977 C980 1.346 . S
N977 C981 1.345 . S
C978 C979 1.393 . S
C978 C982 1.422 . S
C979 C978 1.393 . S
C979 C980 1.369 . S
C979 H988 0.929 1_455 S
C980 N977 1.346 . S
C980 C979 1.369 . S
C980 H983 0.928 . S
C981 N977 1.345 . S
C981 C982 1.371 . S
C981 H984 0.931 . S
C982 C978 1.422 . S
C982 C981 1.371 . S
C982 H989 0.930 . S
H983 C980 0.928 . S
H984 C981 0.931 . S
H985 C961 0.930 . S
H986 C958 0.930 . S
H987 C967 0.930 . S
H988 C979 0.929 1_655 S
H989 C982 0.930 . S
C990 C991 1.351 . S
C990 N993 1.368 . S
C990 H995 0.931 . S
C991 C990 1.351 . S
C991 N992 1.373 . S
C991 H1019 0.930 . S
N992 C991 1.373 . S
N992 C994 1.340 . S
N993 C990 1.368 . S
N993 C994 1.321 . S
N993 Co996 2.135 . S
C994 N992 1.340 . S
C994 N993 1.321 . S
C994 H1018 0.930 . S
H995 C990 0.931 . S
Co996 N993 2.135 . S
Co996 N999 2.121 . S
Co996 O1004 2.055 . S
Co996 O1007 2.039 . S
Co996 N1010 2.140 . S
C997 O998 1.227 . S
C997 O1007 1.265 . S
O998 C997 1.227 . S
N999 Co996 2.121 . S
N999 C1001 1.375 . S
N999 C1002 1.313 . S
C1000 C1001 1.338 . S
C1000 N1003 1.377 . S
C1000 H1020 0.930 . S
C1001 N999 1.375 . S
C1001 C1000 1.338 . S
C1001 H1005 0.931 . S
C1002 N999 1.313 . S
C1002 N1003 1.344 . S
C1002 H1006 0.930 . S
N1003 C1000 1.377 . S
N1003 C1002 1.344 . S
O1004 Co996 2.055 . S
O1004 C1008 1.253 . S
H1005 C1001 0.931 . S
H1006 C1002 0.930 . S
O1007 Co996 2.039 . S
O1007 C997 1.265 . S
C1008 O1004 1.253 . S
C1008 O1009 1.227 . S
O1009 C1008 1.227 . S
N1010 Co996 2.140 . S
N1010 C1013 1.346 . S
N1010 C1014 1.345 . S
C1011 C1012 1.387 . S
C1011 C1015 1.391 . S
C1012 C1011 1.387 . S
C1012 C1013 1.369 . S
C1012 H1021 0.929 . S
C1013 N1010 1.346 . S
C1013 C1012 1.369 . S
C1013 H1016 0.928 . S
C1014 N1010 1.345 . S
C1014 C1015 1.371 . S
C1014 H1017 0.931 . S
C1015 C1011 1.391 . S
C1015 C1014 1.371 . S
C1015 H1022 0.930 . S
H1016 C1013 0.928 . S
H1017 C1014 0.931 . S
H1018 C994 0.930 . S
H1019 C991 0.930 . S
H1020 C1000 0.930 . S
H1021 C1012 0.929 . S
H1022 C1015 0.930 . S
C1023 C1024 1.351 . S
C1023 N1026 1.368 . S
C1023 H1028 0.931 . S
C1024 C1023 1.351 . S
C1024 N1025 1.373 . S
C1024 H1052 0.930 . S
N1025 C1024 1.373 . S
N1025 C1027 1.340 . S
N1026 C1023 1.368 . S
N1026 C1027 1.321 . S
N1026 Co1029 2.135 . S
C1027 N1025 1.340 . S
C1027 N1026 1.321 . S
C1027 H1051 0.930 . S
H1028 C1023 0.931 . S
Co1029 N1026 2.135 . S
Co1029 N1032 2.121 . S
Co1029 O1037 2.055 . S
Co1029 O1040 2.039 . S
Co1029 N1043 2.140 . S
C1030 O1031 1.227 . S
C1030 O1040 1.265 . S
O1031 C1030 1.227 . S
N1032 Co1029 2.121 . S
N1032 C1034 1.375 . S
N1032 C1035 1.313 . S
C1033 C1034 1.338 . S
C1033 N1036 1.377 . S
C1033 H1053 0.930 . S
C1034 N1032 1.375 . S
C1034 C1033 1.338 . S
C1034 H1038 0.931 . S
C1035 N1032 1.313 . S
C1035 N1036 1.344 . S
C1035 H1039 0.930 . S
N1036 C1033 1.377 . S
N1036 C1035 1.344 . S
O1037 Co1029 2.055 . S
O1037 C1041 1.253 . S
H1038 C1034 0.931 . S
H1039 C1035 0.930 . S
O1040 Co1029 2.039 . S
O1040 C1030 1.265 . S
C1041 O1037 1.253 . S
C1041 O1042 1.227 . S
O1042 C1041 1.227 . S
N1043 Co1029 2.140 . S
N1043 C1046 1.346 . S
N1043 C1047 1.345 . S
C1044 C1045 1.387 . S
C1044 C1048 1.391 . S
C1045 C1044 1.387 . S
C1045 C1046 1.369 . S
C1045 H1054 0.929 . S
C1046 N1043 1.346 . S
C1046 C1045 1.369 . S
C1046 H1049 0.928 . S
C1047 N1043 1.345 . S
C1047 C1048 1.371 . S
C1047 H1050 0.931 . S
C1048 C1044 1.391 . S
C1048 C1047 1.371 . S
C1048 H1055 0.930 . S
H1049 C1046 0.928 . S
H1050 C1047 0.931 . S
H1051 C1027 0.930 . S
H1052 C1024 0.930 . S
H1053 C1033 0.930 . S
H1054 C1045 0.929 . S
H1055 C1048 0.930 . S
C1056 C1057 1.387 . S
C1056 H1060 0.950 . S
C1056 C1065 1.390 . S
C1057 C1056 1.387 . S
C1057 C1059 1.387 . S
H1058 C1065 0.950 . S
C1059 C1057 1.387 . S
C1059 C1061 1.390 . S
C1059 H1063 0.950 . S
H1060 C1056 0.950 . S
C1061 C1059 1.390 . S
C1061 C1062 1.387 . S
C1061 H1064 0.950 . S
C1062 C1061 1.387 . S
C1062 C1065 1.387 . S
H1063 C1059 0.950 . S
H1064 C1061 0.950 . S
C1065 C1056 1.390 . S
C1065 H1058 0.950 . S
C1065 C1062 1.387 . S
C1066 C1067 1.387 . S
C1066 H1070 0.950 . S
C1066 C1075 1.390 . S
C1067 C1066 1.387 . S
C1067 C1069 1.387 . S
H1068 C1075 0.950 . S
C1069 C1067 1.387 . S
C1069 C1071 1.390 . S
C1069 H1073 0.950 . S
H1070 C1066 0.950 . S
C1071 C1069 1.390 . S
C1071 C1072 1.387 . S
C1071 H1074 0.950 . S
C1072 C1071 1.387 . S
C1072 C1075 1.387 . S
H1073 C1069 0.950 . S
H1074 C1071 0.950 . S
C1075 C1066 1.390 . S
C1075 H1068 0.950 . S
C1075 C1072 1.387 . S
C1076 C1077 1.387 . S
C1076 H1080 0.950 . S
C1076 C1085 1.390 . S
C1077 C1076 1.387 . S
C1077 C1079 1.387 . S
H1078 C1085 0.950 . S
C1079 C1077 1.387 . S
C1079 C1081 1.390 . S
C1079 H1083 0.950 . S
H1080 C1076 0.950 . S
C1081 C1079 1.390 . S
C1081 C1082 1.387 . S
C1081 H1084 0.950 . S
C1082 C1081 1.387 . S
C1082 C1085 1.387 . S
H1083 C1079 0.950 . S
H1084 C1081 0.950 . S
C1085 C1076 1.390 . S
C1085 H1078 0.950 . S
C1085 C1082 1.387 . S
C1086 C1087 1.387 . S
C1086 H1090 0.950 . S
C1086 C1095 1.390 . S
C1087 C1086 1.387 . S
C1087 C1089 1.387 . S
H1088 C1095 0.950 . S
C1089 C1087 1.387 . S
C1089 C1091 1.390 . S
C1089 H1093 0.950 . S
H1090 C1086 0.950 . S
C1091 C1089 1.390 . S
C1091 C1092 1.387 . S
C1091 H1094 0.950 . S
C1092 C1091 1.387 . S
C1092 C1095 1.387 . S
H1093 C1089 0.950 . S
H1094 C1091 0.950 . S
C1095 C1086 1.390 . S
C1095 H1088 0.950 . S
C1095 C1092 1.387 . S
C1096 C1097 1.387 . S
C1096 H1100 0.950 . S
C1096 C1105 1.390 . S
C1097 C1096 1.387 . S
C1097 C1099 1.387 . S
H1098 C1105 0.950 . S
C1099 C1097 1.387 . S
C1099 C1101 1.390 . S
C1099 H1103 0.950 . S
H1100 C1096 0.950 . S
C1101 C1099 1.390 . S
C1101 C1102 1.387 . S
C1101 H1104 0.950 . S
C1102 C1101 1.387 . S
C1102 C1105 1.387 . S
H1103 C1099 0.950 . S
H1104 C1101 0.950 . S
C1105 C1096 1.390 . S
C1105 H1098 0.950 . S
C1105 C1102 1.387 . S
C1106 C1107 1.387 . S
C1106 H1110 0.950 . S
C1106 C1115 1.390 . S
C1107 C1106 1.387 . S
C1107 C1109 1.387 . S
H1108 C1115 0.950 . S
C1109 C1107 1.387 . S
C1109 C1111 1.390 . S
C1109 H1113 0.950 . S
H1110 C1106 0.950 . S
C1111 C1109 1.390 . S
C1111 C1112 1.387 . S
C1111 H1114 0.950 . S
C1112 C1111 1.387 . S
C1112 C1115 1.387 . S
H1113 C1109 0.950 . S
H1114 C1111 0.950 . S
C1115 C1106 1.390 . S
C1115 H1108 0.950 . S
C1115 C1112 1.387 . S
C1116 C1117 1.387 . S
C1116 H1120 0.950 . S
C1116 C1125 1.390 . S
C1117 C1116 1.387 . S
C1117 C1119 1.387 . S
H1118 C1125 0.950 . S
C1119 C1117 1.387 . S
C1119 C1121 1.390 . S
C1119 H1123 0.950 . S
H1120 C1116 0.950 . S
C1121 C1119 1.390 . S
C1121 C1122 1.387 . S
C1121 H1124 0.950 . S
C1122 C1121 1.387 . S
C1122 C1125 1.387 . S
H1123 C1119 0.950 . S
H1124 C1121 0.950 . S
C1125 C1116 1.390 . S
C1125 H1118 0.950 . S
C1125 C1122 1.387 . S
C1126 C1127 1.387 . S
C1126 H1130 0.950 . S
C1126 C1135 1.390 . S
C1127 C1126 1.387 . S
C1127 C1129 1.387 . S
H1128 C1135 0.950 . S
C1129 C1127 1.387 . S
C1129 C1131 1.390 . S
C1129 H1133 0.950 . S
H1130 C1126 0.950 . S
C1131 C1129 1.390 . S
C1131 C1132 1.387 . S
C1131 H1134 0.950 . S
C1132 C1131 1.387 . S
C1132 C1135 1.387 . S
H1133 C1129 0.950 . S
H1134 C1131 0.950 . S
C1135 C1126 1.390 . S
C1135 H1128 0.950 . S
C1135 C1132 1.387 . S
C1136 C1137 1.387 . S
C1136 H1140 0.950 . S
C1136 C1145 1.390 . S
C1137 C1136 1.387 . S
C1137 C1139 1.387 . S
H1138 C1145 0.950 . S
C1139 C1137 1.387 . S
C1139 C1141 1.390 . S
C1139 H1143 0.950 . S
H1140 C1136 0.950 . S
C1141 C1139 1.390 . S
C1141 C1142 1.387 . S
C1141 H1144 0.950 . S
C1142 C1141 1.387 . S
C1142 C1145 1.387 . S
H1143 C1139 0.950 . S
H1144 C1141 0.950 . S
C1145 C1136 1.390 . S
C1145 H1138 0.950 . S
C1145 C1142 1.387 . S
C1146 C1147 1.387 . S
C1146 H1150 0.950 . S
C1146 C1155 1.390 . S
C1147 C1146 1.387 . S
C1147 C1149 1.387 . S
H1148 C1155 0.950 . S
C1149 C1147 1.387 . S
C1149 C1151 1.390 . S
C1149 H1153 0.950 . S
H1150 C1146 0.950 . S
C1151 C1149 1.390 . S
C1151 C1152 1.387 . S
C1151 H1154 0.950 . S
C1152 C1151 1.387 . S
C1152 C1155 1.387 . S
H1153 C1149 0.950 . S
H1154 C1151 0.950 . S
C1155 C1146 1.390 . S
C1155 H1148 0.950 . S
C1155 C1152 1.387 . S
C1156 C1157 1.387 . S
C1156 H1160 0.950 . S
C1156 C1165 1.390 . S
C1157 C1156 1.387 . S
C1157 C1159 1.387 . S
H1158 C1165 0.950 . S
C1159 C1157 1.387 . S
C1159 C1161 1.390 . S
C1159 H1163 0.950 . S
H1160 C1156 0.950 . S
C1161 C1159 1.390 . S
C1161 C1162 1.387 . S
C1161 H1164 0.950 . S
C1162 C1161 1.387 . S
C1162 C1165 1.387 . S
H1163 C1159 0.950 . S
H1164 C1161 0.950 . S
C1165 C1156 1.390 . S
C1165 H1158 0.950 . S
C1165 C1162 1.387 . S
C1166 C1167 1.387 . S
C1166 H1170 0.950 . S
C1166 C1175 1.390 . S
C1167 C1166 1.387 . S
C1167 C1169 1.387 . S
H1168 C1175 0.950 . S
C1169 C1167 1.387 . S
C1169 C1171 1.390 . S
C1169 H1173 0.950 . S
H1170 C1166 0.950 . S
C1171 C1169 1.390 . S
C1171 C1172 1.387 . S
C1171 H1174 0.950 . S
C1172 C1171 1.387 . S
C1172 C1175 1.387 . S
H1173 C1169 0.950 . S
H1174 C1171 0.950 . S
C1175 C1166 1.390 . S
C1175 H1168 0.950 . S
C1175 C1172 1.387 . S
C1176 C1177 1.387 . S
C1176 H1180 0.950 . S
C1176 C1185 1.390 . S
C1177 C1176 1.387 . S
C1177 C1179 1.387 . S
H1178 C1185 0.950 . S
C1179 C1177 1.387 . S
C1179 C1181 1.390 . S
C1179 H1183 0.950 . S
H1180 C1176 0.950 . S
C1181 C1179 1.390 . S
C1181 C1182 1.387 . S
C1181 H1184 0.950 . S
C1182 C1181 1.387 . S
C1182 C1185 1.387 . S
H1183 C1179 0.950 . S
H1184 C1181 0.950 . S
C1185 C1176 1.390 . S
C1185 H1178 0.950 . S
C1185 C1182 1.387 . S
C1186 C1187 1.387 . S
C1186 H1190 0.950 . S
C1186 C1195 1.390 . S
C1187 C1186 1.387 . S
C1187 C1189 1.387 . S
H1188 C1195 0.950 . S
C1189 C1187 1.387 . S
C1189 C1191 1.390 . S
C1189 H1193 0.950 . S
H1190 C1186 0.950 . S
C1191 C1189 1.390 . S
C1191 C1192 1.387 . S
C1191 H1194 0.950 . S
C1192 C1191 1.387 . S
C1192 C1195 1.387 . S
H1193 C1189 0.950 . S
H1194 C1191 0.950 . S
C1195 C1186 1.390 . S
C1195 H1188 0.950 . S
C1195 C1192 1.387 . S
C1196 C1197 1.387 . S
C1196 H1200 0.950 . S
C1196 C1205 1.390 . S
C1197 C1196 1.387 . S
C1197 C1199 1.387 . S
H1198 C1205 0.950 . S
C1199 C1197 1.387 . S
C1199 C1201 1.390 . S
C1199 H1203 0.950 . S
H1200 C1196 0.950 . S
C1201 C1199 1.390 . S
C1201 C1202 1.387 . S
C1201 H1204 0.950 . S
C1202 C1201 1.387 . S
C1202 C1205 1.387 . S
H1203 C1199 0.950 . S
H1204 C1201 0.950 . S
C1205 C1196 1.390 . S
C1205 H1198 0.950 . S
C1205 C1202 1.387 . S
C1206 C1207 1.387 . S
C1206 H1210 0.950 . S
C1206 C1215 1.390 . S
C1207 C1206 1.387 . S
C1207 C1209 1.387 . S
H1208 C1215 0.950 . S
C1209 C1207 1.387 . S
C1209 C1211 1.390 . S
C1209 H1213 0.950 . S
H1210 C1206 0.950 . S
C1211 C1209 1.390 . S
C1211 C1212 1.387 . S
C1211 H1214 0.950 . S
C1212 C1211 1.387 . S
C1212 C1215 1.387 . S
H1213 C1209 0.950 . S
H1214 C1211 0.950 . S
C1215 C1206 1.390 . S
C1215 H1208 0.950 . S
C1215 C1212 1.387 . S
C1216 C1217 1.387 . S
C1216 H1220 0.950 . S
C1216 C1225 1.390 . S
C1217 C1216 1.387 . S
C1217 C1219 1.387 . S
H1218 C1225 0.950 . S
C1219 C1217 1.387 . S
C1219 C1221 1.390 . S
C1219 H1223 0.950 . S
H1220 C1216 0.950 . S
C1221 C1219 1.390 . S
C1221 C1222 1.387 . S
C1221 H1224 0.950 . S
C1222 C1221 1.387 . S
C1222 C1225 1.387 . S
H1223 C1219 0.950 . S
H1224 C1221 0.950 . S
C1225 C1216 1.390 . S
C1225 H1218 0.950 . S
C1225 C1222 1.387 . S
C1226 C1227 1.387 . S
C1226 H1230 0.950 . S
C1226 C1235 1.390 . S
C1227 C1226 1.387 . S
C1227 C1229 1.387 . S
H1228 C1235 0.950 . S
C1229 C1227 1.387 . S
C1229 C1231 1.390 . S
C1229 H1233 0.950 . S
H1230 C1226 0.950 . S
C1231 C1229 1.390 . S
C1231 C1232 1.387 . S
C1231 H1234 0.950 . S
C1232 C1231 1.387 . S
C1232 C1235 1.387 . S
H1233 C1229 0.950 . S
H1234 C1231 0.950 . S
C1235 C1226 1.390 . S
C1235 H1228 0.950 . S
C1235 C1232 1.387 . S
C1236 C1237 1.387 . S
C1236 H1240 0.950 . S
C1236 C1245 1.390 . S
C1237 C1236 1.387 . S
C1237 C1239 1.387 . S
H1238 C1245 0.950 . S
C1239 C1237 1.387 . S
C1239 C1241 1.390 . S
C1239 H1243 0.950 . S
H1240 C1236 0.950 . S
C1241 C1239 1.390 . S
C1241 C1242 1.387 . S
C1241 H1244 0.950 . S
C1242 C1241 1.387 . S
C1242 C1245 1.387 . S
H1243 C1239 0.950 . S
H1244 C1241 0.950 . S
C1245 C1236 1.390 . S
C1245 H1238 0.950 . S
C1245 C1242 1.387 . S
C1246 C1247 1.387 . S
C1246 H1250 0.950 . S
C1246 C1255 1.390 . S
C1247 C1246 1.387 . S
C1247 C1249 1.387 . S
H1248 C1255 0.950 . S
C1249 C1247 1.387 . S
C1249 C1251 1.390 . S
C1249 H1253 0.950 . S
H1250 C1246 0.950 . S
C1251 C1249 1.390 . S
C1251 C1252 1.387 . S
C1251 H1254 0.950 . S
C1252 C1251 1.387 . S
C1252 C1255 1.387 . S
H1253 C1249 0.950 . S
H1254 C1251 0.950 . S
C1255 C1246 1.390 . S
C1255 H1248 0.950 . S
C1255 C1252 1.387 . S
C1256 C1257 1.387 . S
C1256 H1260 0.950 . S
C1256 C1265 1.390 . S
C1257 C1256 1.387 . S
C1257 C1259 1.387 . S
H1258 C1265 0.950 . S
C1259 C1257 1.387 . S
C1259 C1261 1.390 . S
C1259 H1263 0.950 . S
H1260 C1256 0.950 . S
C1261 C1259 1.390 . S
C1261 C1262 1.387 . S
C1261 H1264 0.950 . S
C1262 C1261 1.387 . S
C1262 C1265 1.387 . S
H1263 C1259 0.950 . S
H1264 C1261 0.950 . S
C1265 C1256 1.390 . S
C1265 H1258 0.950 . S
C1265 C1262 1.387 . S
C1266 C1267 1.387 . S
C1266 H1270 0.950 . S
C1266 C1275 1.390 . S
C1267 C1266 1.387 . S
C1267 C1269 1.387 . S
H1268 C1275 0.950 . S
C1269 C1267 1.387 . S
C1269 C1271 1.390 . S
C1269 H1273 0.950 . S
H1270 C1266 0.950 . S
C1271 C1269 1.390 . S
C1271 C1272 1.387 . S
C1271 H1274 0.950 . S
C1272 C1271 1.387 . S
C1272 C1275 1.387 . S
H1273 C1269 0.950 . S
H1274 C1271 0.950 . S
C1275 C1266 1.390 . S
C1275 H1268 0.950 . S
C1275 C1272 1.387 . S
C1276 C1277 1.387 . S
C1276 H1280 0.950 . S
C1276 C1285 1.390 . S
C1277 C1276 1.387 . S
C1277 C1279 1.387 . S
H1278 C1285 0.950 . S
C1279 C1277 1.387 . S
C1279 C1281 1.390 . S
C1279 H1283 0.950 . S
H1280 C1276 0.950 . S
C1281 C1279 1.390 . S
C1281 C1282 1.387 . S
C1281 H1284 0.950 . S
C1282 C1281 1.387 . S
C1282 C1285 1.387 . S
H1283 C1279 0.950 . S
H1284 C1281 0.950 . S
C1285 C1276 1.390 . S
C1285 H1278 0.950 . S
C1285 C1282 1.387 . S
C1286 C1287 1.387 . S
C1286 H1290 0.950 . S
C1286 C1295 1.390 . S
C1287 C1286 1.387 . S
C1287 C1289 1.387 . S
H1288 C1295 0.950 . S
C1289 C1287 1.387 . S
C1289 C1291 1.390 . S
C1289 H1293 0.950 . S
H1290 C1286 0.950 . S
C1291 C1289 1.390 . S
C1291 C1292 1.387 . S
C1291 H1294 0.950 . S
C1292 C1291 1.387 . S
C1292 C1295 1.387 . S
H1293 C1289 0.950 . S
H1294 C1291 0.950 . S
C1295 C1286 1.390 . S
C1295 H1288 0.950 . S
C1295 C1292 1.387 . S
C1296 C1297 1.387 . S
C1296 H1300 0.950 . S
C1296 C1305 1.390 . S
C1297 C1296 1.387 . S
C1297 C1299 1.387 . S
H1298 C1305 0.950 . S
C1299 C1297 1.387 . S
C1299 C1301 1.390 . S
C1299 H1303 0.950 . S
H1300 C1296 0.950 . S
C1301 C1299 1.390 . S
C1301 C1302 1.387 . S
C1301 H1304 0.950 . S
C1302 C1301 1.387 . S
C1302 C1305 1.387 . S
H1303 C1299 0.950 . S
H1304 C1301 0.950 . S
C1305 C1296 1.390 . S
C1305 H1298 0.950 . S
C1305 C1302 1.387 . S
C1306 C1307 1.387 . S
C1306 H1310 0.950 . S
C1306 C1315 1.390 . S
C1307 C1306 1.387 . S
C1307 C1309 1.387 . S
H1308 C1315 0.950 . S
C1309 C1307 1.387 . S
C1309 C1311 1.390 . S
C1309 H1313 0.950 . S
H1310 C1306 0.950 . S
C1311 C1309 1.390 . S
C1311 C1312 1.387 . S
C1311 H1314 0.950 . S
C1312 C1311 1.387 . S
C1312 C1315 1.387 . S
H1313 C1309 0.950 . S
H1314 C1311 0.950 . S
C1315 C1306 1.390 . S
C1315 H1308 0.950 . S
C1315 C1312 1.387 . S
C1316 C1317 1.387 . S
C1316 H1320 0.950 . S
C1316 C1325 1.390 . S
C1317 C1316 1.387 . S
C1317 C1319 1.387 . S
H1318 C1325 0.950 . S
C1319 C1317 1.387 . S
C1319 C1321 1.390 . S
C1319 H1323 0.950 . S
H1320 C1316 0.950 . S
C1321 C1319 1.390 . S
C1321 C1322 1.387 . S
C1321 H1324 0.950 . S
C1322 C1321 1.387 . S
C1322 C1325 1.387 . S
H1323 C1319 0.950 . S
H1324 C1321 0.950 . S
C1325 C1316 1.390 . S
C1325 H1318 0.950 . S
C1325 C1322 1.387 . S
C1326 C1327 1.387 . S
C1326 H1330 0.950 . S
C1326 C1335 1.390 . S
C1327 C1326 1.387 . S
C1327 C1329 1.387 . S
H1328 C1335 0.950 . S
C1329 C1327 1.387 . S
C1329 C1331 1.390 . S
C1329 H1333 0.950 . S
H1330 C1326 0.950 . S
C1331 C1329 1.390 . S
C1331 C1332 1.387 . S
C1331 H1334 0.950 . S
C1332 C1331 1.387 . S
C1332 C1335 1.387 . S
H1333 C1329 0.950 . S
H1334 C1331 0.950 . S
C1335 C1326 1.390 . S
C1335 H1328 0.950 . S
C1335 C1332 1.387 . S
C1336 C1337 1.387 . S
C1336 H1340 0.950 . S
C1336 C1345 1.390 . S
C1337 C1336 1.387 . S
C1337 C1339 1.387 . S
H1338 C1345 0.950 . S
C1339 C1337 1.387 . S
C1339 C1341 1.390 . S
C1339 H1343 0.950 . S
H1340 C1336 0.950 . S
C1341 C1339 1.390 . S
C1341 C1342 1.387 . S
C1341 H1344 0.950 . S
C1342 C1341 1.387 . S
C1342 C1345 1.387 . S
H1343 C1339 0.950 . S
H1344 C1341 0.950 . S
C1345 C1336 1.390 . S
C1345 H1338 0.950 . S
C1345 C1342 1.387 . S
C1346 C1347 1.387 . S
C1346 H1350 0.950 . S
C1346 C1355 1.390 . S
C1347 C1346 1.387 . S
C1347 C1349 1.387 . S
H1348 C1355 0.950 . S
C1349 C1347 1.387 . S
C1349 C1351 1.390 . S
C1349 H1353 0.950 . S
H1350 C1346 0.950 . S
C1351 C1349 1.390 . S
C1351 C1352 1.387 . S
C1351 H1354 0.950 . S
C1352 C1351 1.387 . S
C1352 C1355 1.387 . S
H1353 C1349 0.950 . S
H1354 C1351 0.950 . S
C1355 C1346 1.390 . S
C1355 H1348 0.950 . S
C1355 C1352 1.387 . S
C1356 C1357 1.387 . S
C1356 H1360 0.950 . S
C1356 C1365 1.390 . S
C1357 C1356 1.387 . S
C1357 C1359 1.387 . S
H1358 C1365 0.950 . S
C1359 C1357 1.387 . S
C1359 C1361 1.390 . S
C1359 H1363 0.950 . S
H1360 C1356 0.950 . S
C1361 C1359 1.390 . S
C1361 C1362 1.387 . S
C1361 H1364 0.950 . S
C1362 C1361 1.387 . S
C1362 C1365 1.387 . S
H1363 C1359 0.950 . S
H1364 C1361 0.950 . S
C1365 C1356 1.390 . S
C1365 H1358 0.950 . S
C1365 C1362 1.387 . S
C1366 C1367 1.387 . S
C1366 H1370 0.950 . S
C1366 C1375 1.390 . S
C1367 C1366 1.387 . S
C1367 C1369 1.387 . S
H1368 C1375 0.950 . S
C1369 C1367 1.387 . S
C1369 C1371 1.390 . S
C1369 H1373 0.950 . S
H1370 C1366 0.950 . S
C1371 C1369 1.390 . S
C1371 C1372 1.387 . S
C1371 H1374 0.950 . S
C1372 C1371 1.387 . S
C1372 C1375 1.387 . S
H1373 C1369 0.950 . S
H1374 C1371 0.950 . S
C1375 C1366 1.390 . S
C1375 H1368 0.950 . S
C1375 C1372 1.387 . S
C1376 C1377 1.387 . S
C1376 H1380 0.950 . S
C1376 C1385 1.390 . S
C1377 C1376 1.387 . S
C1377 C1379 1.387 . S
H1378 C1385 0.950 . S
C1379 C1377 1.387 . S
C1379 C1381 1.390 . S
C1379 H1383 0.950 . S
H1380 C1376 0.950 . S
C1381 C1379 1.390 . S
C1381 C1382 1.387 . S
C1381 H1384 0.950 . S
C1382 C1381 1.387 . S
C1382 C1385 1.387 . S
H1383 C1379 0.950 . S
H1384 C1381 0.950 . S
C1385 C1376 1.390 . S
C1385 H1378 0.950 . S
C1385 C1382 1.387 . S
C1386 C1387 1.387 . S
C1386 H1390 0.950 . S
C1386 C1395 1.390 . S
C1387 C1386 1.387 . S
C1387 C1389 1.387 . S
H1388 C1395 0.950 . S
C1389 C1387 1.387 . S
C1389 C1391 1.390 . S
C1389 H1393 0.950 . S
H1390 C1386 0.950 . S
C1391 C1389 1.390 . S
C1391 C1392 1.387 . S
C1391 H1394 0.950 . S
C1392 C1391 1.387 . S
C1392 C1395 1.387 . S
H1393 C1389 0.950 . S
H1394 C1391 0.950 . S
C1395 C1386 1.390 . S
C1395 H1388 0.950 . S
C1395 C1392 1.387 . S
C1396 C1397 1.387 . S
C1396 H1400 0.950 . S
C1396 C1405 1.390 . S
C1397 C1396 1.387 . S
C1397 C1399 1.387 . S
H1398 C1405 0.950 . S
C1399 C1397 1.387 . S
C1399 C1401 1.390 . S
C1399 H1403 0.950 . S
H1400 C1396 0.950 . S
C1401 C1399 1.390 . S
C1401 C1402 1.387 . S
C1401 H1404 0.950 . S
C1402 C1401 1.387 . S
C1402 C1405 1.387 . S
H1403 C1399 0.950 . S
H1404 C1401 0.950 . S
C1405 C1396 1.390 . S
C1405 H1398 0.950 . S
C1405 C1402 1.387 . S
C1406 C1407 1.387 . S
C1406 H1410 0.950 . S
C1406 C1415 1.390 . S
C1407 C1406 1.387 . S
C1407 C1409 1.387 . S
H1408 C1415 0.950 . S
C1409 C1407 1.387 . S
C1409 C1411 1.390 . S
C1409 H1413 0.950 . S
H1410 C1406 0.950 . S
C1411 C1409 1.390 . S
C1411 C1412 1.387 . S
C1411 H1414 0.950 . S
C1412 C1411 1.387 . S
C1412 C1415 1.387 . S
H1413 C1409 0.950 . S
H1414 C1411 0.950 . S
C1415 C1406 1.390 . S
C1415 H1408 0.950 . S
C1415 C1412 1.387 . S
C1416 C1417 1.387 . S
C1416 H1420 0.950 . S
C1416 C1425 1.390 . S
C1417 C1416 1.387 . S
C1417 C1419 1.387 . S
H1418 C1425 0.950 . S
C1419 C1417 1.387 . S
C1419 C1421 1.390 . S
C1419 H1423 0.950 . S
H1420 C1416 0.950 . S
C1421 C1419 1.390 . S
C1421 C1422 1.387 . S
C1421 H1424 0.950 . S
C1422 C1421 1.387 . S
C1422 C1425 1.387 . S
H1423 C1419 0.950 . S
H1424 C1421 0.950 . S
C1425 C1416 1.390 . S
C1425 H1418 0.950 . S
C1425 C1422 1.387 . S
C1426 C1427 1.387 . S
C1426 H1430 0.950 . S
C1426 C1435 1.390 . S
C1427 C1426 1.387 . S
C1427 C1429 1.387 . S
H1428 C1435 0.950 . S
C1429 C1427 1.387 . S
C1429 C1431 1.390 . S
C1429 H1433 0.950 . S
H1430 C1426 0.950 . S
C1431 C1429 1.390 . S
C1431 C1432 1.387 . S
C1431 H1434 0.950 . S
C1432 C1431 1.387 . S
C1432 C1435 1.387 . S
H1433 C1429 0.950 . S
H1434 C1431 0.950 . S
C1435 C1426 1.390 . S
C1435 H1428 0.950 . S
C1435 C1432 1.387 . S
C1436 C1437 1.387 . S
C1436 H1440 0.950 . S
C1436 C1445 1.390 . S
C1437 C1436 1.387 . S
C1437 C1439 1.387 . S
H1438 C1445 0.950 . S
C1439 C1437 1.387 . S
C1439 C1441 1.390 . S
C1439 H1443 0.950 . S
H1440 C1436 0.950 . S
C1441 C1439 1.390 . S
C1441 C1442 1.387 . S
C1441 H1444 0.950 . S
C1442 C1441 1.387 . S
C1442 C1445 1.387 . S
H1443 C1439 0.950 . S
H1444 C1441 0.950 . S
C1445 C1436 1.390 . S
C1445 H1438 0.950 . S
C1445 C1442 1.387 . S
C1446 C1447 1.387 . S
C1446 H1450 0.950 . S
C1446 C1455 1.390 . S
C1447 C1446 1.387 . S
C1447 C1449 1.387 . S
H1448 C1455 0.950 . S
C1449 C1447 1.387 . S
C1449 C1451 1.390 . S
C1449 H1453 0.950 . S
H1450 C1446 0.950 . S
C1451 C1449 1.390 . S
C1451 C1452 1.387 . S
C1451 H1454 0.950 . S
C1452 C1451 1.387 . S
C1452 C1455 1.387 . S
H1453 C1449 0.950 . S
H1454 C1451 0.950 . S
C1455 C1446 1.390 . S
C1455 H1448 0.950 . S
C1455 C1452 1.387 . S
C1456 C1457 1.387 . S
C1456 H1460 0.950 . S
C1456 C1465 1.390 . S
C1457 C1456 1.387 . S
C1457 C1459 1.387 . S
H1458 C1465 0.950 . S
C1459 C1457 1.387 . S
C1459 C1461 1.390 . S
C1459 H1463 0.950 . S
H1460 C1456 0.950 . S
C1461 C1459 1.390 . S
C1461 C1462 1.387 . S
C1461 H1464 0.950 . S
C1462 C1461 1.387 . S
C1462 C1465 1.387 . S
H1463 C1459 0.950 . S
H1464 C1461 0.950 . S
C1465 C1456 1.390 . S
C1465 H1458 0.950 . S
C1465 C1462 1.387 . S
C1466 C1467 1.387 . S
C1466 H1470 0.950 . S
C1466 C1475 1.390 . S
C1467 C1466 1.387 . S
C1467 C1469 1.387 . S
H1468 C1475 0.950 . S
C1469 C1467 1.387 . S
C1469 C1471 1.390 . S
C1469 H1473 0.950 . S
H1470 C1466 0.950 . S
C1471 C1469 1.390 . S
C1471 C1472 1.387 . S
C1471 H1474 0.950 . S
C1472 C1471 1.387 . S
C1472 C1475 1.387 . S
H1473 C1469 0.950 . S
H1474 C1471 0.950 . S
C1475 C1466 1.390 . S
C1475 H1468 0.950 . S
C1475 C1472 1.387 . S
C1476 C1477 1.387 . S
C1476 H1480 0.950 . S
C1476 C1485 1.390 . S
C1477 C1476 1.387 . S
C1477 C1479 1.387 . S
H1478 C1485 0.950 . S
C1479 C1477 1.387 . S
C1479 C1481 1.390 . S
C1479 H1483 0.950 . S
H1480 C1476 0.950 . S
C1481 C1479 1.390 . S
C1481 C1482 1.387 . S
C1481 H1484 0.950 . S
C1482 C1481 1.387 . S
C1482 C1485 1.387 . S
H1483 C1479 0.950 . S
H1484 C1481 0.950 . S
C1485 C1476 1.390 . S
C1485 H1478 0.950 . S
C1485 C1482 1.387 . S
C1486 C1487 1.387 . S
C1486 H1490 0.950 . S
C1486 C1495 1.390 . S
C1487 C1486 1.387 . S
C1487 C1489 1.387 . S
H1488 C1495 0.950 . S
C1489 C1487 1.387 . S
C1489 C1491 1.390 . S
C1489 H1493 0.950 . S
H1490 C1486 0.950 . S
C1491 C1489 1.390 . S
C1491 C1492 1.387 . S
C1491 H1494 0.950 . S
C1492 C1491 1.387 . S
C1492 C1495 1.387 . S
H1493 C1489 0.950 . S
H1494 C1491 0.950 . S
C1495 C1486 1.390 . S
C1495 H1488 0.950 . S
C1495 C1492 1.387 . S
C1496 C1497 1.387 . S
C1496 H1500 0.950 . S
C1496 C1505 1.390 . S
C1497 C1496 1.387 . S
C1497 C1499 1.387 . S
H1498 C1505 0.950 . S
C1499 C1497 1.387 . S
C1499 C1501 1.390 . S
C1499 H1503 0.950 . S
H1500 C1496 0.950 . S
C1501 C1499 1.390 . S
C1501 C1502 1.387 . S
C1501 H1504 0.950 . S
C1502 C1501 1.387 . S
C1502 C1505 1.387 . S
H1503 C1499 0.950 . S
H1504 C1501 0.950 . S
C1505 C1496 1.390 . S
C1505 H1498 0.950 . S
C1505 C1502 1.387 . S
C1506 C1507 1.387 . S
C1506 H1510 0.950 . S
C1506 C1515 1.390 . S
C1507 C1506 1.387 . S
C1507 C1509 1.387 . S
H1508 C1515 0.950 . S
C1509 C1507 1.387 . S
C1509 C1511 1.390 . S
C1509 H1513 0.950 . S
H1510 C1506 0.950 . S
C1511 C1509 1.390 . S
C1511 C1512 1.387 . S
C1511 H1514 0.950 . S
C1512 C1511 1.387 . S
C1512 C1515 1.387 . S
H1513 C1509 0.950 . S
H1514 C1511 0.950 . S
C1515 C1506 1.390 . S
C1515 H1508 0.950 . S
C1515 C1512 1.387 . S
C1516 C1517 1.387 . S
C1516 H1520 0.950 . S
C1516 C1525 1.390 . S
C1517 C1516 1.387 . S
C1517 C1519 1.387 . S
H1518 C1525 0.950 . S
C1519 C1517 1.387 . S
C1519 C1521 1.390 . S
C1519 H1523 0.950 . S
H1520 C1516 0.950 . S
C1521 C1519 1.390 . S
C1521 C1522 1.387 . S
C1521 H1524 0.950 . S
C1522 C1521 1.387 . S
C1522 C1525 1.387 . S
H1523 C1519 0.950 . S
H1524 C1521 0.950 . S
C1525 C1516 1.390 . S
C1525 H1518 0.950 . S
C1525 C1522 1.387 . S
C1526 C1527 1.387 . S
C1526 H1530 0.950 . S
C1526 C1535 1.390 . S
C1527 C1526 1.387 . S
C1527 C1529 1.387 . S
H1528 C1535 0.950 . S
C1529 C1527 1.387 . S
C1529 C1531 1.390 . S
C1529 H1533 0.950 . S
H1530 C1526 0.950 . S
C1531 C1529 1.390 . S
C1531 C1532 1.387 . S
C1531 H1534 0.950 . S
C1532 C1531 1.387 . S
C1532 C1535 1.387 . S
H1533 C1529 0.950 . S
H1534 C1531 0.950 . S
C1535 C1526 1.390 . S
C1535 H1528 0.950 . S
C1535 C1532 1.387 . S
C1536 C1537 1.387 . S
C1536 H1540 0.950 . S
C1536 C1545 1.390 . S
C1537 C1536 1.387 . S
C1537 C1539 1.387 . S
H1538 C1545 0.950 . S
C1539 C1537 1.387 . S
C1539 C1541 1.390 . S
C1539 H1543 0.950 . S
H1540 C1536 0.950 . S
C1541 C1539 1.390 . S
C1541 C1542 1.387 . S
C1541 H1544 0.950 . S
C1542 C1541 1.387 . S
C1542 C1545 1.387 . S
H1543 C1539 0.950 . S
H1544 C1541 0.950 . S
C1545 C1536 1.390 . S
C1545 H1538 0.950 . S
C1545 C1542 1.387 . S
C1546 C1547 1.387 . S
C1546 H1550 0.950 . S
C1546 C1555 1.391 1_455 S
C1547 C1546 1.387 . S
C1547 C1549 1.387 1_565 S
H1548 C1555 0.950 . S
C1549 C1547 1.387 1_545 S
C1549 C1551 1.391 1_455 S
C1549 H1553 0.950 . S
H1550 C1546 0.950 . S
C1551 C1549 1.391 1_655 S
C1551 C1552 1.387 . S
C1551 H1554 0.950 . S
C1552 C1551 1.387 . S
C1552 C1555 1.387 1_545 S
H1553 C1549 0.950 . S
H1554 C1551 0.950 . S
C1555 C1546 1.391 1_655 S
C1555 H1548 0.950 . S
C1555 C1552 1.387 1_565 S
C1556 C1557 1.387 . S
C1556 H1560 0.950 . S
C1556 C1565 1.390 . S
C1557 C1556 1.387 . S
C1557 C1559 1.387 . S
H1558 C1565 0.950 . S
C1559 C1557 1.387 . S
C1559 C1561 1.390 . S
C1559 H1563 0.950 . S
H1560 C1556 0.950 . S
C1561 C1559 1.390 . S
C1561 C1562 1.387 . S
C1561 H1564 0.950 . S
C1562 C1561 1.387 . S
C1562 C1565 1.387 . S
H1563 C1559 0.950 . S
H1564 C1561 0.950 . S
C1565 C1556 1.390 . S
C1565 H1558 0.950 . S
C1565 C1562 1.387 . S
C1566 C1567 1.387 1_554 S
C1566 H1570 0.950 . S
C1566 C1575 1.390 . S
C1567 C1566 1.387 1_556 S
C1567 C1569 1.387 1_565 S
H1568 C1575 0.950 . S
C1569 C1567 1.387 1_545 S
C1569 C1571 1.390 . S
C1569 H1573 0.950 . S
H1570 C1566 0.950 . S
C1571 C1569 1.390 . S
C1571 C1572 1.387 1_556 S
C1571 H1574 0.950 . S
C1572 C1571 1.387 1_554 S
C1572 C1575 1.387 1_545 S
H1573 C1569 0.950 . S
H1574 C1571 0.950 . S
C1575 C1566 1.390 . S
C1575 H1568 0.950 . S
C1575 C1572 1.387 1_565 S
C1576 C1577 1.387 . S
C1576 H1580 0.950 . S
C1576 C1585 1.390 . S
C1577 C1576 1.387 . S
C1577 C1579 1.387 . S
H1578 C1585 0.950 . S
C1579 C1577 1.387 . S
C1579 C1581 1.390 . S
C1579 H1583 0.950 . S
H1580 C1576 0.950 . S
C1581 C1579 1.390 . S
C1581 C1582 1.387 . S
C1581 H1584 0.950 . S
C1582 C1581 1.387 . S
C1582 C1585 1.387 . S
H1583 C1579 0.950 . S
H1584 C1581 0.950 . S
C1585 C1576 1.390 . S
C1585 H1578 0.950 . S
C1585 C1582 1.387 . S
C1586 C1587 1.387 1_545 S
C1586 H1590 0.950 . S
C1586 C1595 1.390 . S
C1587 C1586 1.387 1_565 S
C1587 C1589 1.387 . S
H1588 C1595 0.950 . S
C1589 C1587 1.387 . S
C1589 C1591 1.390 . S
C1589 H1593 0.950 . S
H1590 C1586 0.950 . S
C1591 C1589 1.390 . S
C1591 C1592 1.387 1_565 S
C1591 H1594 0.950 . S
C1592 C1591 1.387 1_545 S
C1592 C1595 1.387 . S
H1593 C1589 0.950 . S
H1594 C1591 0.950 . S
C1595 C1586 1.390 . S
C1595 H1588 0.950 . S
C1595 C1592 1.387 . S
C1596 C1597 1.387 . S
C1596 H1600 0.950 . S
C1596 C1605 1.390 . S
C1597 C1596 1.387 . S
C1597 C1599 1.387 . S
H1598 C1605 0.950 . S
C1599 C1597 1.387 . S
C1599 C1601 1.390 . S
C1599 H1603 0.950 . S
H1600 C1596 0.950 . S
C1601 C1599 1.390 . S
C1601 C1602 1.387 . S
C1601 H1604 0.950 . S
C1602 C1601 1.387 . S
C1602 C1605 1.387 . S
H1603 C1599 0.950 . S
H1604 C1601 0.950 . S
C1605 C1596 1.390 . S
C1605 H1598 0.950 . S
C1605 C1602 1.387 . S
C1606 C1607 1.387 1_554 S
C1606 H1610 0.950 . S
C1606 C1615 1.390 1_455 S
C1607 C1606 1.387 1_556 S
C1607 C1609 1.387 1_545 S
H1608 C1615 0.950 . S
C1609 C1607 1.387 1_565 S
C1609 C1611 1.390 1_455 S
C1609 H1613 0.950 . S
H1610 C1606 0.950 . S
C1611 C1609 1.390 1_655 S
C1611 C1612 1.387 1_556 S
C1611 H1614 0.950 . S
C1612 C1611 1.387 1_554 S
C1612 C1615 1.387 1_565 S
H1613 C1609 0.950 . S
H1614 C1611 0.950 . S
C1615 C1606 1.390 1_655 S
C1615 H1608 0.950 . S
C1615 C1612 1.387 1_545 S
C1616 C1617 1.387 . S
C1616 H1620 0.950 . S
C1616 C1625 1.390 . S
C1617 C1616 1.387 . S
C1617 C1619 1.387 . S
H1618 C1625 0.950 . S
C1619 C1617 1.387 . S
C1619 C1621 1.390 . S
C1619 H1623 0.950 . S
H1620 C1616 0.950 . S
C1621 C1619 1.390 . S
C1621 C1622 1.387 . S
C1621 H1624 0.950 . S
C1622 C1621 1.387 . S
C1622 C1625 1.387 . S
H1623 C1619 0.950 . S
H1624 C1621 0.950 . S
C1625 C1616 1.390 . S
C1625 H1618 0.950 . S
C1625 C1622 1.387 . S
C1626 C1627 1.387 . S
C1626 H1630 0.950 . S
C1626 C1635 1.390 . S
C1627 C1626 1.387 . S
C1627 C1629 1.387 . S
H1628 C1635 0.950 . S
C1629 C1627 1.387 . S
C1629 C1631 1.390 . S
C1629 H1633 0.950 . S
H1630 C1626 0.950 . S
C1631 C1629 1.390 . S
C1631 C1632 1.387 . S
C1631 H1634 0.950 . S
C1632 C1631 1.387 . S
C1632 C1635 1.387 . S
H1633 C1629 0.950 . S
H1634 C1631 0.950 . S
C1635 C1626 1.390 . S
C1635 H1628 0.950 . S
C1635 C1632 1.387 . S
C1636 C1637 1.387 . S
C1636 H1640 0.950 . S
C1636 C1645 1.390 . S
C1637 C1636 1.387 . S
C1637 C1639 1.387 . S
H1638 C1645 0.950 . S
C1639 C1637 1.387 . S
C1639 C1641 1.390 . S
C1639 H1643 0.950 . S
H1640 C1636 0.950 . S
C1641 C1639 1.390 . S
C1641 C1642 1.387 . S
C1641 H1644 0.950 . S
C1642 C1641 1.387 . S
C1642 C1645 1.387 . S
H1643 C1639 0.950 . S
H1644 C1641 0.950 . S
C1645 C1636 1.390 . S
C1645 H1638 0.950 . S
C1645 C1642 1.387 . S
C1646 C1647 1.387 . S
C1646 H1650 0.950 . S
C1646 C1655 1.390 . S
C1647 C1646 1.387 . S
C1647 C1649 1.387 . S
H1648 C1655 0.950 . S
C1649 C1647 1.387 . S
C1649 C1651 1.390 . S
C1649 H1653 0.950 . S
H1650 C1646 0.950 . S
C1651 C1649 1.390 . S
C1651 C1652 1.387 . S
C1651 H1654 0.950 . S
C1652 C1651 1.387 . S
C1652 C1655 1.387 . S
H1653 C1649 0.950 . S
H1654 C1651 0.950 . S
C1655 C1646 1.390 . S
C1655 H1648 0.950 . S
C1655 C1652 1.387 . S
C1656 C1657 1.370 1_556 S
C1656 H1660 0.950 . S
C1656 C1665 1.390 . S
C1657 C1656 1.370 1_554 S
C1657 C1659 1.404 . S
H1658 C1665 0.950 . S
C1659 C1657 1.404 . S
C1659 C1661 1.390 . S
C1659 H1663 0.950 . S
H1660 C1656 0.950 . S
C1661 C1659 1.390 . S
C1661 C1662 1.370 1_554 S
C1661 H1664 0.950 . S
C1662 C1661 1.370 1_556 S
C1662 C1665 1.404 . S
H1663 C1659 0.950 . S
H1664 C1661 0.950 . S
C1665 C1656 1.390 . S
C1665 H1658 0.950 . S
C1665 C1662 1.404 . S
C1666 C1667 1.387 . S
C1666 H1670 0.950 . S
C1666 C1675 1.390 1_455 S
C1667 C1666 1.387 . S
C1667 C1669 1.387 . S
H1668 C1675 0.950 . S
C1669 C1667 1.387 . S
C1669 C1671 1.390 1_455 S
C1669 H1673 0.950 . S
H1670 C1666 0.950 . S
C1671 C1669 1.390 1_655 S
C1671 C1672 1.387 . S
C1671 H1674 0.950 . S
C1672 C1671 1.387 . S
C1672 C1675 1.387 . S
H1673 C1669 0.950 . S
H1674 C1671 0.950 . S
C1675 C1666 1.390 1_655 S
C1675 H1668 0.950 . S
C1675 C1672 1.387 . S
C1676 C1677 1.404 . S
C1676 H1680 0.950 . S
C1676 C1685 1.390 1_655 S
C1677 C1676 1.404 . S
C1677 C1679 1.371 1_556 S
H1678 C1685 0.950 . S
C1679 C1677 1.371 1_554 S
C1679 C1681 1.390 1_655 S
C1679 H1683 0.950 . S
H1680 C1676 0.950 . S
C1681 C1679 1.390 1_455 S
C1681 C1682 1.404 . S
C1681 H1684 0.950 . S
C1682 C1681 1.404 . S
C1682 C1685 1.371 1_554 S
H1683 C1679 0.950 . S
H1684 C1681 0.950 . S
C1685 C1676 1.390 1_455 S
C1685 H1678 0.950 . S
C1685 C1682 1.371 1_556 S
C1686 C1687 1.387 . S
C1686 H1690 0.950 . S
C1686 C1695 1.390 . S
C1687 C1686 1.387 . S
C1687 C1689 1.387 . S
H1688 C1695 0.950 . S
C1689 C1687 1.387 . S
C1689 C1691 1.390 . S
C1689 H1693 0.950 . S
H1690 C1686 0.950 . S
C1691 C1689 1.390 . S
C1691 C1692 1.387 . S
C1691 H1694 0.950 . S
C1692 C1691 1.387 . S
C1692 C1695 1.387 . S
H1693 C1689 0.950 . S
H1694 C1691 0.950 . S
C1695 C1686 1.390 . S
C1695 H1688 0.950 . S
C1695 C1692 1.387 . S
C1696 C1697 1.387 . S
C1696 H1700 0.950 . S
C1696 C1705 1.390 . S
C1697 C1696 1.387 . S
C1697 C1699 1.387 . S
H1698 C1705 0.950 . S
C1699 C1697 1.387 . S
C1699 C1701 1.390 . S
C1699 H1703 0.950 . S
H1700 C1696 0.950 . S
C1701 C1699 1.390 . S
C1701 C1702 1.387 . S
C1701 H1704 0.950 . S
C1702 C1701 1.387 . S
C1702 C1705 1.387 . S
H1703 C1699 0.950 . S
H1704 C1701 0.950 . S
C1705 C1696 1.390 . S
C1705 H1698 0.950 . S
C1705 C1702 1.387 . S
C1706 C1707 1.387 . S
C1706 H1710 0.950 . S
C1706 C1715 1.390 1_545 S
C1707 C1706 1.387 . S
C1707 C1709 1.387 . S
H1708 C1715 0.950 . S
C1709 C1707 1.387 . S
C1709 C1711 1.390 1_545 S
C1709 H1713 0.950 . S
H1710 C1706 0.950 . S
C1711 C1709 1.390 1_565 S
C1711 C1712 1.387 . S
C1711 H1714 0.950 . S
C1712 C1711 1.387 . S
C1712 C1715 1.387 . S
H1713 C1709 0.950 . S
H1714 C1711 0.950 . S
C1715 C1706 1.390 1_565 S
C1715 H1708 0.950 . S
C1715 C1712 1.387 . S
C1716 C1717 1.387 . S
C1716 H1720 0.950 . S
C1716 C1725 1.390 1_554 S
C1717 C1716 1.387 . S
C1717 C1719 1.387 . S
H1718 C1725 0.950 . S
C1719 C1717 1.387 . S
C1719 C1721 1.390 1_554 S
C1719 H1723 0.950 . S
H1720 C1716 0.950 . S
C1721 C1719 1.390 1_556 S
C1721 C1722 1.387 . S
C1721 H1724 0.950 . S
C1722 C1721 1.387 . S
C1722 C1725 1.387 . S
H1723 C1719 0.950 . S
H1724 C1721 0.950 . S
C1725 C1716 1.390 1_556 S
C1725 H1718 0.950 . S
C1725 C1722 1.387 . S
C1726 C1727 1.387 . S
C1726 H1730 0.950 . S
C1726 C1735 1.390 1_565 S
C1727 C1726 1.387 . S
C1727 C1729 1.387 . S
H1728 C1735 0.950 . S
C1729 C1727 1.387 . S
C1729 C1731 1.390 1_565 S
C1729 H1733 0.950 . S
H1730 C1726 0.950 . S
C1731 C1729 1.390 1_545 S
C1731 C1732 1.387 . S
C1731 H1734 0.950 . S
C1732 C1731 1.387 . S
C1732 C1735 1.387 . S
H1733 C1729 0.950 . S
H1734 C1731 0.950 . S
C1735 C1726 1.390 1_545 S
C1735 H1728 0.950 . S
C1735 C1732 1.387 . S
C1736 C1737 1.387 . S
C1736 H1740 0.950 . S
C1736 C1745 1.390 . S
C1737 C1736 1.387 . S
C1737 C1739 1.387 . S
H1738 C1745 0.950 . S
C1739 C1737 1.387 . S
C1739 C1741 1.390 . S
C1739 H1743 0.950 . S
H1740 C1736 0.950 . S
C1741 C1739 1.390 . S
C1741 C1742 1.387 . S
C1741 H1744 0.950 . S
C1742 C1741 1.387 . S
C1742 C1745 1.387 . S
H1743 C1739 0.950 . S
H1744 C1741 0.950 . S
C1745 C1736 1.390 . S
C1745 H1738 0.950 . S
C1745 C1742 1.387 . S
C1746 C1747 1.387 . S
C1746 H1750 0.950 . S
C1746 C1755 1.390 1_545 S
C1747 C1746 1.387 . S
C1747 C1749 1.387 . S
H1748 C1755 0.950 . S
C1749 C1747 1.387 . S
C1749 C1751 1.390 1_545 S
C1749 H1753 0.950 . S
H1750 C1746 0.950 . S
C1751 C1749 1.390 1_565 S
C1751 C1752 1.387 . S
C1751 H1754 0.950 . S
C1752 C1751 1.387 . S
C1752 C1755 1.387 . S
H1753 C1749 0.950 . S
H1754 C1751 0.950 . S
C1755 C1746 1.390 1_565 S
C1755 H1748 0.950 . S
C1755 C1752 1.387 . S
C1756 C1757 1.387 . S
C1756 H1760 0.950 . S
C1756 C1765 1.390 1_556 S
C1757 C1756 1.387 . S
C1757 C1759 1.387 . S
H1758 C1765 0.950 . S
C1759 C1757 1.387 . S
C1759 C1761 1.390 1_556 S
C1759 H1763 0.950 . S
H1760 C1756 0.950 . S
C1761 C1759 1.390 1_554 S
C1761 C1762 1.387 . S
C1761 H1764 0.950 . S
C1762 C1761 1.387 . S
C1762 C1765 1.387 . S
H1763 C1759 0.950 . S
H1764 C1761 0.950 . S
C1765 C1756 1.390 1_554 S
C1765 H1758 0.950 . S
C1765 C1762 1.387 . S
C1766 C1767 1.387 . S
C1766 H1770 0.950 . S
C1766 C1775 1.390 1_545 S
C1767 C1766 1.387 . S
C1767 C1769 1.387 . S
H1768 C1775 0.950 . S
C1769 C1767 1.387 . S
C1769 C1771 1.390 1_545 S
C1769 H1773 0.950 . S
H1770 C1766 0.950 . S
C1771 C1769 1.390 1_565 S
C1771 C1772 1.387 . S
C1771 H1774 0.950 . S
C1772 C1771 1.387 . S
C1772 C1775 1.387 . S
H1773 C1769 0.950 . S
H1774 C1771 0.950 . S
C1775 C1766 1.390 1_565 S
C1775 H1768 0.950 . S
C1775 C1772 1.387 . S
C1776 C1777 1.387 . S
C1776 H1780 0.950 . S
C1776 C1785 1.390 1_556 S
C1777 C1776 1.387 . S
C1777 C1779 1.387 . S
H1778 C1785 0.950 . S
C1779 C1777 1.387 . S
C1779 C1781 1.390 1_556 S
C1779 H1783 0.950 . S
H1780 C1776 0.950 . S
C1781 C1779 1.390 1_554 S
C1781 C1782 1.387 . S
C1781 H1784 0.950 . S
C1782 C1781 1.387 . S
C1782 C1785 1.387 . S
H1783 C1779 0.950 . S
H1784 C1781 0.950 . S
C1785 C1776 1.390 1_554 S
C1785 H1778 0.950 . S
C1785 C1782 1.387 . S
C1786 C1787 1.387 . S
C1786 H1790 0.950 . S
C1786 C1795 1.390 . S
C1787 C1786 1.387 . S
C1787 C1789 1.387 . S
H1788 C1795 0.950 . S
C1789 C1787 1.387 . S
C1789 C1791 1.390 . S
C1789 H1793 0.950 . S
H1790 C1786 0.950 . S
C1791 C1789 1.390 . S
C1791 C1792 1.387 . S
C1791 H1794 0.950 . S
C1792 C1791 1.387 . S
C1792 C1795 1.387 . S
H1793 C1789 0.950 . S
H1794 C1791 0.950 . S
C1795 C1786 1.390 . S
C1795 H1788 0.950 . S
C1795 C1792 1.387 . S
C1796 C1797 1.387 . S
C1796 H1800 0.950 . S
C1796 C1805 1.390 . S
C1797 C1796 1.387 . S
C1797 C1799 1.387 . S
H1798 C1805 0.950 . S
C1799 C1797 1.387 . S
C1799 C1801 1.390 . S
C1799 H1803 0.950 . S
H1800 C1796 0.950 . S
C1801 C1799 1.390 . S
C1801 C1802 1.387 . S
C1801 H1804 0.950 . S
C1802 C1801 1.387 . S
C1802 C1805 1.387 . S
H1803 C1799 0.950 . S
H1804 C1801 0.950 . S
C1805 C1796 1.390 . S
C1805 H1798 0.950 . S
C1805 C1802 1.387 . S
C1806 C1807 1.387 . S
C1806 H1810 0.950 . S
C1806 C1815 1.390 . S
C1807 C1806 1.387 . S
C1807 C1809 1.387 . S
H1808 C1815 0.950 . S
C1809 C1807 1.387 . S
C1809 C1811 1.390 . S
C1809 H1813 0.950 . S
H1810 C1806 0.950 . S
C1811 C1809 1.390 . S
C1811 C1812 1.387 . S
C1811 H1814 0.950 . S
C1812 C1811 1.387 . S
C1812 C1815 1.387 . S
H1813 C1809 0.950 . S
H1814 C1811 0.950 . S
C1815 C1806 1.390 . S
C1815 H1808 0.950 . S
C1815 C1812 1.387 . S
C1816 C1817 1.387 . S
C1816 H1820 0.950 . S
C1816 C1825 1.390 1_554 S
C1817 C1816 1.387 . S
C1817 C1819 1.387 . S
H1818 C1825 0.950 . S
C1819 C1817 1.387 . S
C1819 C1821 1.390 1_554 S
C1819 H1823 0.950 . S
H1820 C1816 0.950 . S
C1821 C1819 1.390 1_556 S
C1821 C1822 1.387 . S
C1821 H1824 0.950 . S
C1822 C1821 1.387 . S
C1822 C1825 1.387 . S
H1823 C1819 0.950 . S
H1824 C1821 0.950 . S
C1825 C1816 1.390 1_556 S
C1825 H1818 0.950 . S
C1825 C1822 1.387 . S
C1826 C1827 1.387 . S
C1826 H1830 0.950 . S
C1826 C1835 1.390 . S
C1827 C1826 1.387 . S
C1827 C1829 1.387 . S
H1828 C1835 0.950 . S
C1829 C1827 1.387 . S
C1829 C1831 1.390 . S
C1829 H1833 0.950 . S
H1830 C1826 0.950 . S
C1831 C1829 1.390 . S
C1831 C1832 1.387 . S
C1831 H1834 0.950 . S
C1832 C1831 1.387 . S
C1832 C1835 1.387 . S
H1833 C1829 0.950 . S
H1834 C1831 0.950 . S
C1835 C1826 1.390 . S
C1835 H1828 0.950 . S
C1835 C1832 1.387 . S
C1836 C1837 1.387 . S
C1836 H1840 0.950 . S
C1836 C1845 1.390 . S
C1837 C1836 1.387 . S
C1837 C1839 1.387 . S
H1838 C1845 0.950 . S
C1839 C1837 1.387 . S
C1839 C1841 1.390 . S
C1839 H1843 0.950 . S
H1840 C1836 0.950 . S
C1841 C1839 1.390 . S
C1841 C1842 1.387 . S
C1841 H1844 0.950 . S
C1842 C1841 1.387 . S
C1842 C1845 1.387 . S
H1843 C1839 0.950 . S
H1844 C1841 0.950 . S
C1845 C1836 1.390 . S
C1845 H1838 0.950 . S
C1845 C1842 1.387 . S
C1846 C1847 1.387 . S
C1846 H1850 0.950 . S
C1846 C1855 1.390 . S
C1847 C1846 1.387 . S
C1847 C1849 1.387 . S
H1848 C1855 0.950 . S
C1849 C1847 1.387 . S
C1849 C1851 1.390 . S
C1849 H1853 0.950 . S
H1850 C1846 0.950 . S
C1851 C1849 1.390 . S
C1851 C1852 1.387 . S
C1851 H1854 0.950 . S
C1852 C1851 1.387 . S
C1852 C1855 1.387 . S
H1853 C1849 0.950 . S
H1854 C1851 0.950 . S
C1855 C1846 1.390 . S
C1855 H1848 0.950 . S
C1855 C1852 1.387 . S
C1057 C249 1.696 . S
C1062 C18 1.697 . S
C1067 C51 1.697 . S
C1072 C150 1.696 . S
C1077 C84 1.696 . S
C1082 C183 1.697 . S
C1087 C216 1.698 . S
C1092 C117 1.696 . S
C1097 C282 1.696 . S
C1102 C513 1.697 . S
C1107 C414 1.696 . S
C1112 C315 1.697 . S
C1117 C348 1.697 . S
C1122 C447 1.697 . S
C1127 C480 1.696 . S
C1132 C381 1.697 . S
C1137 C777 1.697 . S
C1142 C546 1.697 . S
C1147 C678 1.696 . S
C1152 C579 1.698 . S
C1157 C711 1.697 . S
C1162 C612 1.697 . S
C1167 C744 1.698 . S
C1172 C645 1.697 . S
C1177 C1041 1.697 . S
C1182 C810 1.696 . S
C1187 C843 1.697 . S
C1192 C942 1.698 . S
C1197 C975 1.696 . S
C1202 C876 1.698 . S
C1207 C1008 1.698 . S
C1212 C909 1.697 . S
C1217 C21 1.530 . S
C1222 N904 1.526 . S
C1227 N277 1.527 . S
C1232 C54 1.492 1_655 S
C1237 N838 1.526 . S
C1242 C87 1.530 . S
C1247 C120 1.530 . S
C1252 N343 1.526 . S
C1257 N970 1.527 . S
C1262 C153 1.530 . S
C1267 C186 1.529 . S
C1272 N475 1.527 . S
C1277 N1036 1.526 . S
C1282 C219 1.530 . S
C1287 N409 1.526 . S
C1292 C252 1.491 1_655 S
C1297 C285 1.531 . S
C1302 N640 1.527 . S
C1307 C318 1.493 1_455 S
C1312 N13 1.526 . S
C1317 N574 1.526 . S
C1322 C351 1.529 . S
C1327 N79 1.527 . S
C1332 C384 1.531 . S
C1337 N706 1.526 . S
C1342 C417 1.530 . S
C1347 N211 1.527 . S
C1352 C450 1.531 . S
C1357 C483 1.530 . S
C1362 N772 1.526 . S
C1367 C516 1.493 1_455 S
C1372 N145 1.527 . S
C1377 C549 1.529 . S
C1382 N376 1.526 . S
C1387 N805 1.527 . S
C1392 C582 1.531 . S
C1397 N310 1.526 . S
C1402 C615 1.529 . S
C1407 C648 1.493 1_455 S
C1412 N871 1.527 . S
C1417 C681 1.529 . S
C1422 N442 1.526 . S
C1427 N1003 1.526 . S
C1432 C714 1.491 1_455 S
C1437 N508 1.526 . S
C1442 C747 1.529 . S
C1447 C780 1.529 . S
C1452 N937 1.526 . S
C1457 N112 1.527 . S
C1462 C813 1.531 . S
C1467 N541 1.527 . S
C1472 C846 1.531 . S
C1477 N46 1.526 . S
C1482 C879 1.529 . S
C1487 N607 1.526 . S
C1492 C912 1.491 1_655 S
C1497 C945 1.530 . S
C1502 N178 1.527 . S
C1507 C978 1.491 1_655 S
C1512 N739 1.526 . S
C1517 C1011 1.531 . S
C1522 N244 1.527 . S
C1527 N673 1.527 . S
C1532 C1044 1.531 . S
C1537 N2 1.205 . S
C1542 N794 1.205 . S
C1547 N35 1.205 . S
C1552 N299 1.205 . S
C1557 N68 1.199 . S
C1562 N860 1.199 . S
C1567 N365 1.198 1_556 S
C1572 N101 1.198 1_554 S
C1577 N926 1.199 . S
C1582 N134 1.199 . S
C1587 N167 1.199 . S
C1592 N431 1.199 . S
C1597 N200 1.205 . S
C1602 N992 1.205 . S
C1607 N233 1.204 1_556 S
C1612 N497 1.204 1_554 S
C1617 N530 1.199 . S
C1622 N266 1.199 . S
C1627 N332 1.199 . S
C1632 N596 1.199 . S
C1637 N662 1.199 . S
C1642 N398 1.199 . S
C1647 N464 1.199 . S
C1652 N728 1.199 . S
C1657 N563 1.204 1_554 S
C1662 N827 1.204 1_556 S
C1667 N893 1.199 . S
C1672 N629 1.199 . S
C1677 N695 1.198 1_556 S
C1682 N959 1.198 1_554 S
C1687 N1025 1.199 . S
C1692 N761 1.199 . S
C1697 C7 1.825 . S
C1702 C205 1.825 . S
C1707 C238 1.826 . S
C1712 C40 1.826 . S
C1717 C139 1.825 . S
C1722 C73 1.825 . S
C1727 C172 1.825 . S
C1732 C106 1.825 . S
C1737 C271 1.825 . S
C1742 C469 1.825 . S
C1747 C304 1.825 . S
C1752 C502 1.825 . S
C1757 C403 1.825 . S
C1762 C337 1.825 . S
C1767 C436 1.825 . S
C1772 C370 1.825 . S
C1777 C535 1.825 . S
C1782 C733 1.825 . S
C1787 C568 1.826 . S
C1792 C766 1.826 . S
C1797 C667 1.825 . S
C1802 C601 1.825 . S
C1807 C700 1.825 . S
C1812 C634 1.825 . S
C1817 C799 1.826 . S
C1822 C997 1.826 . S
C1827 C832 1.825 . S
C1832 C1030 1.825 . S
C1837 C931 1.825 . S
C1842 C865 1.825 . S
C1847 C898 1.825 . S
C1852 C964 1.825 . S
