# Generated by pormake.
# Topology und, (4)-cn, num edge types: 1
# Building blocks:
#     Node 0, Type 0, BuildingBlock: UXUYUI_clean_sbu_0, # of connection points: 4
#     Node 1, Type 0, BuildingBlock: UXUYUI_clean_sbu_0, # of connection points: 4
#     Node 2, Type 0, BuildingBlock: UXUYUI_clean_sbu_0, # of connection points: 4
#     Node 3, Type 0, BuildingBlock: UXUYUI_clean_sbu_0, # of connection points: 4
#     Node 4, Type 0, BuildingBlock: UXUYUI_clean_sbu_0, # of connection points: 4
#     Node 5, Type 0, BuildingBlock: UXUYUI_clean_sbu_0, # of connection points: 4
#     Node 6, Type 0, BuildingBlock: UXUYUI_clean_sbu_0, # of connection points: 4
#     Node 7, Type 0, BuildingBlock: UXUYUI_clean_sbu_0, # of connection points: 4
#     Node 8, Type 0, BuildingBlock: UXUYUI_clean_sbu_0, # of connection points: 4
#     Node 9, Type 0, BuildingBlock: UXUYUI_clean_sbu_0, # of connection points: 4
#     Node 10, Type 0, BuildingBlock: UXUYUI_clean_sbu_0, # of connection points: 4
#     Node 11, Type 0, BuildingBlock: UXUYUI_clean_sbu_0, # of connection points: 4
#     Node 12, Type 0, BuildingBlock: UXUYUI_clean_sbu_0, # of connection points: 4
#     Node 13, Type 0, BuildingBlock: UXUYUI_clean_sbu_0, # of connection points: 4
#     Node 14, Type 0, BuildingBlock: UXUYUI_clean_sbu_0, # of connection points: 4
#     Node 15, Type 0, BuildingBlock: UXUYUI_clean_sbu_0, # of connection points: 4
#     Edge 16, Type (0, 0), BuildingBlock: XUDNAN_clean_linker_2, # of connection points: 2
#     Edge 17, Type (0, 0), BuildingBlock: XUDNAN_clean_linker_2, # of connection points: 2
#     Edge 18, Type (0, 0), BuildingBlock: XUDNAN_clean_linker_2, # of connection points: 2
#     Edge 19, Type (0, 0), BuildingBlock: XUDNAN_clean_linker_2, # of connection points: 2
#     Edge 20, Type (0, 0), BuildingBlock: XUDNAN_clean_linker_2, # of connection points: 2
#     Edge 21, Type (0, 0), BuildingBlock: XUDNAN_clean_linker_2, # of connection points: 2
#     Edge 22, Type (0, 0), BuildingBlock: XUDNAN_clean_linker_2, # of connection points: 2
#     Edge 23, Type (0, 0), BuildingBlock: XUDNAN_clean_linker_2, # of connection points: 2
#     Edge 24, Type (0, 0), BuildingBlock: XUDNAN_clean_linker_2, # of connection points: 2
#     Edge 25, Type (0, 0), BuildingBlock: XUDNAN_clean_linker_2, # of connection points: 2
#     Edge 26, Type (0, 0), BuildingBlock: XUDNAN_clean_linker_2, # of connection points: 2
#     Edge 27, Type (0, 0), BuildingBlock: XUDNAN_clean_linker_2, # of connection points: 2
#     Edge 28, Type (0, 0), BuildingBlock: XUDNAN_clean_linker_2, # of connection points: 2
#     Edge 29, Type (0, 0), BuildingBlock: XUDNAN_clean_linker_2, # of connection points: 2
#     Edge 30, Type (0, 0), BuildingBlock: XUDNAN_clean_linker_2, # of connection points: 2
#     Edge 31, Type (0, 0), BuildingBlock: XUDNAN_clean_linker_2, # of connection points: 2
#     Edge 32, Type (0, 0), BuildingBlock: XUDNAN_clean_linker_2, # of connection points: 2
#     Edge 33, Type (0, 0), BuildingBlock: XUDNAN_clean_linker_2, # of connection points: 2
#     Edge 34, Type (0, 0), BuildingBlock: XUDNAN_clean_linker_2, # of connection points: 2
#     Edge 35, Type (0, 0), BuildingBlock: XUDNAN_clean_linker_2, # of connection points: 2
#     Edge 36, Type (0, 0), BuildingBlock: XUDNAN_clean_linker_2, # of connection points: 2
#     Edge 37, Type (0, 0), BuildingBlock: XUDNAN_clean_linker_2, # of connection points: 2
#     Edge 38, Type (0, 0), BuildingBlock: XUDNAN_clean_linker_2, # of connection points: 2
#     Edge 39, Type (0, 0), BuildingBlock: XUDNAN_clean_linker_2, # of connection points: 2
#     Edge 40, Type (0, 0), BuildingBlock: XUDNAN_clean_linker_2, # of connection points: 2
#     Edge 41, Type (0, 0), BuildingBlock: XUDNAN_clean_linker_2, # of connection points: 2
#     Edge 42, Type (0, 0), BuildingBlock: XUDNAN_clean_linker_2, # of connection points: 2
#     Edge 43, Type (0, 0), BuildingBlock: XUDNAN_clean_linker_2, # of connection points: 2
#     Edge 44, Type (0, 0), BuildingBlock: XUDNAN_clean_linker_2, # of connection points: 2
#     Edge 45, Type (0, 0), BuildingBlock: XUDNAN_clean_linker_2, # of connection points: 2
#     Edge 46, Type (0, 0), BuildingBlock: XUDNAN_clean_linker_2, # of connection points: 2
#     Edge 47, Type (0, 0), BuildingBlock: XUDNAN_clean_linker_2, # of connection points: 2
# Relax obj value: 0.184
# Max RMSD: 0.213
# Mean RMSD: 0.213
data_MOF--net-und--node1-UXUYUI_clean_sbu_0--edge1-XUDNAN_clean_linker_2
_symmetry_space_group_name_H-M    P1
_symmetry_Int_Tables_number       1
_symmetry_cell_setting            triclinic
loop_
_symmetry_equiv_pos_as_xyz
'x, y, z'
_cell_length_a     86.19863
_cell_length_b     86.21776
_cell_length_c     32.626328
_cell_angle_alpha  89.976484
_cell_angle_beta   89.995328
_cell_angle_gamma 89.970923
loop_
_atom_site_label
_atom_site_type_symbol
_atom_site_fract_x
_atom_site_fract_y
_atom_site_fract_z
_atom_type_partial_charge
Li0 Li 0.24231 0.34242 0.00984 0.0
Li1 Li 0.26827 0.34365 0.98385 0.0
Li2 Li 0.24992 0.32327 0.96193 0.0
Li3 Li 0.25993 0.32194 0.03151 0.0
C4 C 0.2405 0.35809 0.93855 0.0
N5 N 0.22348 0.38314 0.91075 0.0
C6 C 0.24768 0.37246 0.93271 0.0
C7 C 0.22471 0.35642 0.92994 0.0
C8 C 0.23886 0.38499 0.91869 0.0
C9 C 0.21629 0.36924 0.91604 0.0
C10 C 0.25774 0.3559 0.06983 0.0
C11 C 0.247 0.36326 0.13526 0.0
N12 N 0.24799 0.37844 0.12423 0.0
C13 C 0.2587 0.37157 0.05919 0.0
C14 C 0.25191 0.35169 0.10822 0.0
C15 C 0.25371 0.3828 0.08711 0.0
C16 C 0.21478 0.34626 0.05397 0.0
N17 N 0.22514 0.35427 0.03077 0.0
C18 C 0.21125 0.37789 0.04257 0.0
C19 C 0.22364 0.36984 0.02504 0.0
C20 C 0.20033 0.36987 0.0665 0.0
C21 C 0.20224 0.35383 0.07212 0.0
H22 H 0.21639 0.33396 0.05893 0.0
H23 H 0.23217 0.37611 0.00741 0.0
C24 C 0.28864 0.35033 0.92314 0.0
N25 N 0.28486 0.3553 0.96133 0.0
C26 C 0.29939 0.35843 0.89964 0.0
C27 C 0.30252 0.37655 0.95555 0.0
C28 C 0.2918 0.3679 0.97835 0.0
C29 C 0.30616 0.37203 0.9152 0.0
H30 H 0.28294 0.34022 0.91055 0.0
H31 H 0.28871 0.37153 0.00897 0.0
C32 C 0.22885 0.30836 0.00081 0.0
N33 N 0.21017 0.28457 0.97307 0.0
C34 C 0.23357 0.29295 0.00544 0.0
C35 C 0.21463 0.31169 0.98227 0.0
C36 C 0.22395 0.28108 0.99116 0.0
C37 C 0.20535 0.29949 0.9684 0.0
C38 C 0.28716 0.31736 0.98456 0.0
C39 C 0.29463 0.30672 0.95897 0.0
C40 C 0.29563 0.32505 0.01494 0.0
C41 C 0.31043 0.30379 0.96455 0.0
C42 C 0.31142 0.32181 0.01951 0.0
N43 N 0.31842 0.31133 0.99445 0.0
C44 C 0.23595 0.31554 0.88537 0.0
C45 C 0.25284 0.29676 0.91411 0.0
C46 C 0.23446 0.30674 0.84965 0.0
N47 N 0.24521 0.31052 0.91632 0.0
C48 C 0.25179 0.28766 0.87892 0.0
C49 C 0.24276 0.29277 0.84567 0.0
H50 H 0.23011 0.32658 0.88784 0.0
H51 H 0.26018 0.29312 0.93922 0.0
C52 C 0.25225 0.30572 0.10146 0.0
N53 N 0.26394 0.30718 0.07373 0.0
C54 C 0.25206 0.29332 0.12894 0.0
C55 C 0.27622 0.28435 0.09978 0.0
C56 C 0.27591 0.2969 0.07272 0.0
C57 C 0.26397 0.28221 0.12765 0.0
H58 H 0.24257 0.31369 0.10056 0.0
H59 H 0.28483 0.29788 0.04973 0.0
O60 O 0.24898 0.34568 0.95192 0.0
O61 O 0.26236 0.34473 0.04267 0.0
O62 O 0.23826 0.32016 0.01361 0.0
O63 O 0.27177 0.3206 0.97882 0.0
H64 H 0.2599 0.37396 0.93908 0.0
H65 H 0.21896 0.34541 0.93444 0.0
H66 H 0.24425 0.39619 0.91417 0.0
H67 H 0.20404 0.36815 0.90953 0.0
H68 H 0.2424 0.36017 0.165 0.0
H69 H 0.26286 0.37502 0.0293 0.0
H70 H 0.25115 0.33963 0.11703 0.0
H71 H 0.25425 0.39496 0.07913 0.0
H72 H 0.2102 0.39024 0.0372 0.0
H73 H 0.19428 0.34723 0.09097 0.0
H74 H 0.30212 0.35422 0.86922 0.0
H75 H 0.3074 0.38697 0.96882 0.0
H76 H 0.24461 0.29018 0.0194 0.0
H77 H 0.21083 0.32357 0.97849 0.0
H78 H 0.22748 0.2691 0.99433 0.0
H79 H 0.19433 0.30189 0.95386 0.0
H80 H 0.2883 0.30083 0.93494 0.0
H81 H 0.29011 0.33342 0.03484 0.0
H82 H 0.31635 0.29556 0.94502 0.0
H83 H 0.3181 0.32764 0.04295 0.0
H84 H 0.22717 0.31102 0.8251 0.0
H85 H 0.25856 0.2771 0.87717 0.0
H86 H 0.24224 0.292 0.14932 0.0
H87 H 0.2857 0.27613 0.09795 0.0
Li88 Li 0.92439 0.99765 0.22203 0.0
Li89 Li 0.92323 0.00205 0.29587 0.0
Li90 Li 0.90657 0.9816 0.26633 0.0
Li91 Li 0.90138 0.00876 0.25433 0.0
C92 C 0.936 0.96924 0.25422 0.0
N93 N 0.94829 0.94124 0.22904 0.0
C94 C 0.94752 0.962 0.27747 0.0
C95 C 0.93066 0.96223 0.21826 0.0
C96 C 0.95361 0.94785 0.26419 0.0
C97 C 0.93704 0.94808 0.20603 0.0
C98 C 0.93216 0.02867 0.26573 0.0
C99 C 0.93683 0.05135 0.30709 0.0
N100 N 0.95214 0.0507 0.29705 0.0
C101 C 0.9479 0.02829 0.25554 0.0
C102 C 0.92653 0.04033 0.29147 0.0
C103 C 0.95783 0.03951 0.27179 0.0
C104 C 0.93355 0.00907 0.14596 0.0
N105 N 0.93793 0.99914 0.17615 0.0
C106 C 0.96255 0.99524 0.14401 0.0
C107 C 0.95212 0.99223 0.17581 0.0
C108 C 0.95842 0.00562 0.11261 0.0
C109 C 0.9436 0.01241 0.11362 0.0
H110 H 0.92244 0.01484 0.14782 0.0
H111 H 0.95562 0.98488 0.20097 0.0
C112 C 0.92934 0.00619 0.38029 0.0
N113 N 0.93594 0.00522 0.34256 0.0
C114 C 0.93843 0.00457 0.41543 0.0
C115 C 0.96104 0.00171 0.37222 0.0
C116 C 0.95149 0.0033 0.33791 0.0
C117 C 0.95443 0.00182 0.41157 0.0
H118 H 0.91691 0.00724 0.38318 0.0
H119 H 0.95634 0.00199 0.30753 0.0
C120 C 0.88821 0.99302 0.19373 0.0
N121 N 0.85962 0.9974 0.15714 0.0
C122 C 0.87469 0.98799 0.21332 0.0
C123 C 0.88718 0.00021 0.15542 0.0
C124 C 0.86035 0.9903 0.19431 0.0
C125 C 0.87262 0.00235 0.13748 0.0
C126 C 0.88899 0.0021 0.33034 0.0
C127 C 0.87657 0.99199 0.33707 0.0
C128 C 0.88873 0.01693 0.34757 0.0
C129 C 0.864 0.99697 0.3607 0.0
C130 C 0.87595 0.02148 0.37099 0.0
N131 N 0.86395 0.01149 0.377 0.0
C132 C 0.90217 0.95725 0.31873 0.0
C133 C 0.88971 0.95291 0.25496 0.0
C134 C 0.89583 0.9437 0.33483 0.0
N135 N 0.89878 0.96172 0.27983 0.0
C136 C 0.88298 0.93928 0.26998 0.0
C137 C 0.88582 0.93469 0.31068 0.0
H138 H 0.9094 0.96457 0.33771 0.0
H139 H 0.88735 0.95666 0.22396 0.0
C140 C 0.889 0.03446 0.21377 0.0
N141 N 0.88527 0.02346 0.24195 0.0
C142 C 0.87751 0.04397 0.19694 0.0
C143 C 0.85864 0.03117 0.23991 0.0
C144 C 0.87044 0.0218 0.25548 0.0
C145 C 0.862 0.04216 0.20935 0.0
H146 H 0.90081 0.03531 0.20277 0.0
H147 H 0.8675 0.01267 0.2766 0.0
O148 O 0.92982 0.98301 0.26712 0.0
O149 O 0.92229 0.01768 0.25061 0.0
O150 O 0.9023 0.99125 0.21248 0.0
O151 O 0.90141 0.99739 0.30745 0.0
H152 H 0.95171 0.96727 0.30549 0.0
H153 H 0.9217 0.96765 0.19997 0.0
H154 H 0.96256 0.94211 0.28184 0.0
H155 H 0.93305 0.94252 0.17826 0.0
H156 H 0.93266 0.06042 0.32717 0.0
H157 H 0.95242 0.01933 0.23561 0.0
H158 H 0.91434 0.04087 0.29922 0.0
H159 H 0.97006 0.03931 0.26439 0.0
H160 H 0.97396 0.98999 0.14492 0.0
H161 H 0.93988 0.02041 0.08998 0.0
H162 H 0.93291 0.00481 0.44524 0.0
H163 H 0.97328 0.99938 0.36789 0.0
H164 H 0.87522 0.98269 0.24332 0.0
H165 H 0.89749 0.00416 0.13977 0.0
H166 H 0.8498 0.98658 0.20931 0.0
H167 H 0.87165 0.00798 0.10794 0.0
H168 H 0.87658 0.98046 0.32402 0.0
H169 H 0.89829 0.02485 0.3428 0.0
H170 H 0.85428 0.9893 0.36604 0.0
H171 H 0.87557 0.03295 0.38438 0.0
H172 H 0.89817 0.94071 0.36648 0.0
H173 H 0.87544 0.93255 0.25028 0.0
H174 H 0.88066 0.0521 0.17306 0.0
H175 H 0.84691 0.02947 0.2509 0.0
Li176 Li 0.24865 0.67416 0.46133 0.0
Li177 Li 0.24334 0.67525 0.53315 0.0
Li178 Li 0.26016 0.65405 0.50441 0.0
Li179 Li 0.23152 0.65527 0.49169 0.0
C180 C 0.27667 0.68459 0.4913 0.0
N181 N 0.30235 0.70028 0.46208 0.0
C182 C 0.27729 0.70078 0.49332 0.0
C183 C 0.28917 0.67639 0.47471 0.0
C184 C 0.29036 0.7085 0.47831 0.0
C185 C 0.30203 0.68453 0.46001 0.0
C186 C 0.21976 0.69005 0.49978 0.0
C187 C 0.19916 0.70089 0.54077 0.0
N188 N 0.20237 0.71518 0.52528 0.0
C189 C 0.22282 0.70483 0.48414 0.0
C190 C 0.20779 0.68803 0.52818 0.0
C191 C 0.21391 0.71739 0.49745 0.0
C192 C 0.2353 0.68633 0.39338 0.0
N193 N 0.24946 0.68598 0.41173 0.0
C194 C 0.25991 0.70253 0.35977 0.0
C195 C 0.2618 0.69361 0.39528 0.0
C196 C 0.2453 0.70325 0.34079 0.0
C197 C 0.23296 0.69486 0.35776 0.0
H198 H 0.2257 0.68007 0.40683 0.0
H199 H 0.27305 0.69288 0.40951 0.0
C200 C 0.23861 0.6821 0.6169 0.0
N201 N 0.24113 0.68846 0.57938 0.0
C202 C 0.23774 0.69156 0.65156 0.0
C203 C 0.24192 0.71391 0.6082 0.0
C204 C 0.24284 0.70401 0.5745 0.0
C205 C 0.23946 0.70771 0.64748 0.0
H206 H 0.23755 0.66967 0.62001 0.0
H207 H 0.24499 0.70876 0.54445 0.0
C208 C 0.25074 0.65008 0.41167 0.0
N209 N 0.25467 0.64917 0.32769 0.0
C210 C 0.23791 0.64817 0.38596 0.0
C211 C 0.26557 0.65136 0.39475 0.0
C212 C 0.24014 0.64778 0.34355 0.0
C213 C 0.26731 0.65092 0.35219 0.0
C214 C 0.23441 0.64072 0.56176 0.0
C215 C 0.24042 0.62566 0.56115 0.0
C216 C 0.21982 0.64345 0.57894 0.0
C217 C 0.23162 0.61353 0.57745 0.0
C218 C 0.21137 0.63101 0.59489 0.0
N219 N 0.21739 0.61643 0.5938 0.0
C220 C 0.28421 0.64258 0.55313 0.0
C221 C 0.27946 0.62783 0.49308 0.0
C222 C 0.29479 0.63152 0.56718 0.0
N223 N 0.27664 0.64039 0.51707 0.0
C224 C 0.28995 0.61648 0.50596 0.0
C225 C 0.2975 0.61807 0.54395 0.0
H226 H 0.2815 0.65259 0.57177 0.0
H227 H 0.27311 0.62634 0.46477 0.0
C228 C 0.20074 0.65099 0.46685 0.0
N229 N 0.21373 0.64326 0.47869 0.0
C230 C 0.18856 0.64304 0.44813 0.0
C231 C 0.20305 0.6192 0.4558 0.0
C232 C 0.21504 0.62764 0.47406 0.0
C233 C 0.18982 0.62701 0.44143 0.0
H234 H 0.20019 0.66345 0.46969 0.0
H235 H 0.22574 0.62188 0.48226 0.0
O236 O 0.2641 0.67682 0.50652 0.0
O237 O 0.22843 0.67761 0.4874 0.0
O238 O 0.24875 0.65092 0.45319 0.0
O239 O 0.24274 0.65272 0.54545 0.0
H240 H 0.26776 0.70733 0.50606 0.0
H241 H 0.28898 0.66387 0.47321 0.0
H242 H 0.29096 0.72102 0.47951 0.0
H243 H 0.31176 0.67832 0.44699 0.0
H244 H 0.1899 0.69951 0.56287 0.0
H245 H 0.23214 0.70666 0.46245 0.0
H246 H 0.20524 0.67667 0.54048 0.0
H247 H 0.21621 0.72891 0.48579 0.0
H248 H 0.26975 0.70873 0.34717 0.0
H249 H 0.22149 0.69521 0.34423 0.0
H250 H 0.23609 0.68623 0.68129 0.0
H251 H 0.2431 0.72628 0.60344 0.0
H252 H 0.22634 0.6472 0.39855 0.0
H253 H 0.27561 0.65279 0.41424 0.0
H254 H 0.23031 0.64643 0.32326 0.0
H255 H 0.27872 0.65199 0.33864 0.0
H256 H 0.25169 0.62332 0.54798 0.0
H257 H 0.21505 0.65505 0.57981 0.0
H258 H 0.23609 0.6018 0.57703 0.0
H259 H 0.20003 0.63295 0.60812 0.0
H260 H 0.30018 0.63314 0.59685 0.0
H261 H 0.29183 0.60637 0.48689 0.0
H262 H 0.17852 0.64946 0.43756 0.0
H263 H 0.20456 0.60688 0.4506 0.0
Li264 Li 0.59784 0.99145 0.74559 0.0
Li265 Li 0.59393 0.01779 0.76266 0.0
Li266 Li 0.57489 0.99819 0.78192 0.0
Li267 Li 0.57762 0.00533 0.70828 0.0
C268 C 0.60761 0.9928 0.82262 0.0
N269 N 0.63057 0.97702 0.8646 0.0
C270 C 0.621 0.00056 0.83535 0.0
C271 C 0.60587 0.97702 0.83139 0.0
C272 C 0.63248 0.99238 0.85653 0.0
C273 C 0.61762 0.96924 0.85256 0.0
C274 C 0.61435 0.00748 0.69117 0.0
C275 C 0.63022 0.99563 0.63897 0.0
N276 N 0.6431 0.00161 0.65711 0.0
C277 C 0.62774 0.01356 0.70923 0.0
C278 C 0.61557 0.99852 0.65563 0.0
C279 C 0.64217 0.01046 0.69153 0.0
C280 C 0.60876 0.96317 0.71333 0.0
N281 N 0.61322 0.97575 0.73551 0.0
C282 C 0.63947 0.96679 0.73635 0.0
C283 C 0.62826 0.97774 0.74696 0.0
C284 C 0.63523 0.95376 0.71317 0.0
C285 C 0.61963 0.95198 0.70169 0.0
H286 H 0.59679 0.96198 0.70389 0.0
H287 H 0.63169 0.98804 0.76336 0.0
C288 C 0.6033 0.03898 0.82214 0.0
N289 N 0.60282 0.03669 0.78096 0.0
C290 C 0.61016 0.05228 0.83819 0.0
C291 C 0.61533 0.06099 0.76905 0.0
C292 C 0.60846 0.04741 0.7543 0.0
C293 C 0.61643 0.06341 0.81155 0.0
H294 H 0.59848 0.03033 0.84252 0.0
H295 H 0.60778 0.04532 0.72166 0.0
C296 C 0.56474 0.97451 0.74017 0.0
N297 N 0.54009 0.95509 0.7571 0.0
C298 C 0.54988 0.9782 0.72608 0.0
C299 C 0.56709 0.96091 0.76264 0.0
C300 C 0.53756 0.96824 0.73501 0.0
C301 C 0.55447 0.95126 0.77095 0.0
C302 C 0.56777 0.03322 0.76622 0.0
C303 C 0.56397 0.03665 0.80686 0.0
C304 C 0.56937 0.04524 0.73778 0.0
C305 C 0.5618 0.0521 0.81838 0.0
C306 C 0.56712 0.06054 0.75052 0.0
N307 N 0.56342 0.06363 0.79022 0.0
C308 C 0.56303 0.98503 0.85586 0.0
C309 C 0.54496 0.99872 0.81467 0.0
C310 C 0.55167 0.98232 0.8855 0.0
N311 N 0.5595 0.99315 0.8214 0.0
C312 C 0.53328 0.99639 0.84363 0.0
C313 C 0.53661 0.98818 0.87973 0.0
H314 H 0.57471 0.98093 0.86076 0.0
H315 H 0.54252 0.0052 0.78701 0.0
C316 C 0.56967 0.99487 0.63113 0.0
N317 N 0.56675 0.00648 0.65815 0.0
C318 C 0.56101 0.99361 0.59522 0.0
C319 C 0.54648 0.01634 0.61557 0.0
C320 C 0.55546 0.01716 0.65119 0.0
C321 C 0.54912 0.00434 0.58722 0.0
H322 H 0.57836 0.98624 0.63827 0.0
H323 H 0.5531 0.02601 0.67379 0.0
O324 O 0.59622 0.00063 0.80199 0.0
O325 O 0.60014 0.01019 0.70842 0.0
O326 O 0.57687 0.98433 0.73278 0.0
O327 O 0.57044 0.01821 0.75466 0.0
H328 H 0.62264 0.01272 0.82854 0.0
H329 H 0.59567 0.97079 0.82142 0.0
H330 H 0.64293 0.99823 0.8664 0.0
H331 H 0.61647 0.95701 0.85931 0.0
H332 H 0.63135 0.98861 0.61166 0.0
H333 H 0.62703 0.02036 0.73701 0.0
H334 H 0.60534 0.99371 0.64131 0.0
H335 H 0.65263 0.01499 0.70533 0.0
H336 H 0.65142 0.96875 0.74516 0.0
H337 H 0.61588 0.94206 0.68392 0.0
H338 H 0.61058 0.05384 0.87112 0.0
H339 H 0.62012 0.06927 0.74753 0.0
H340 H 0.54783 0.98875 0.70896 0.0
H341 H 0.57854 0.95787 0.77362 0.0
H342 H 0.52597 0.97099 0.72453 0.0
H343 H 0.5561 0.94072 0.78843 0.0
H344 H 0.56291 0.0275 0.82939 0.0
H345 H 0.57259 0.04279 0.70638 0.0
H346 H 0.55892 0.05494 0.84976 0.0
H347 H 0.56841 0.06997 0.7289 0.0
H348 H 0.55475 0.9761 0.91318 0.0
H349 H 0.52179 0.00099 0.83789 0.0
H350 H 0.56322 0.98397 0.57476 0.0
H351 H 0.53746 0.02488 0.61054 0.0
Li352 Li 0.75313 0.67872 0.02944 0.0
Li353 Li 0.73716 0.65576 0.00769 0.0
Li354 Li 0.7648 0.65944 0.98133 0.0
Li355 Li 0.74422 0.67627 0.96088 0.0
C356 C 0.75946 0.64951 0.07616 0.0
N357 N 0.76328 0.63554 0.15171 0.0
C358 C 0.74713 0.64896 0.10393 0.0
C359 C 0.77371 0.64287 0.08668 0.0
C360 C 0.7493 0.64186 0.142 0.0
C361 C 0.77542 0.6359 0.12508 0.0
C362 C 0.71953 0.68666 0.9965 0.0
C363 C 0.69674 0.68946 0.95431 0.0
N364 N 0.69625 0.70483 0.9636 0.0
C365 C 0.71876 0.70246 0.00587 0.0
C366 C 0.7084 0.68007 0.97071 0.0
C367 C 0.70691 0.71146 0.98885 0.0
C368 C 0.75852 0.70848 0.05796 0.0
N369 N 0.75578 0.69382 0.07147 0.0
C370 C 0.75085 0.70318 0.1392 0.0
C371 C 0.75233 0.69093 0.11141 0.0
C372 C 0.75278 0.71852 0.12549 0.0
C373 C 0.75717 0.72104 0.0846 0.0
H374 H 0.7608 0.71054 0.02585 0.0
H375 H 0.74981 0.67928 0.12131 0.0
C376 C 0.72566 0.62601 0.03078 0.0
N377 N 0.72237 0.6414 0.02813 0.0
C378 C 0.71568 0.61606 0.05213 0.0
C379 C 0.69902 0.63797 0.06636 0.0
C380 C 0.70925 0.64744 0.04477 0.0
C381 C 0.70235 0.62213 0.07112 0.0
H382 H 0.73635 0.62159 0.01788 0.0
H383 H 0.70707 0.65976 0.04291 0.0
C384 C 0.77972 0.68765 0.98848 0.0
N385 N 0.80905 0.69818 0.00825 0.0
C386 C 0.78654 0.69957 0.96572 0.0
C387 C 0.7878 0.68111 0.02138 0.0
C388 C 0.80139 0.70472 0.97618 0.0
C389 C 0.80262 0.68659 0.03087 0.0
C390 C 0.74123 0.64965 0.91308 0.0
C391 C 0.75148 0.65192 0.88045 0.0
C392 C 0.72664 0.64315 0.90589 0.0
C393 C 0.74686 0.64779 0.84089 0.0
C394 C 0.72246 0.63917 0.86587 0.0
N395 N 0.73257 0.64157 0.83448 0.0
C396 C 0.7854 0.63383 0.97016 0.0
C397 C 0.79124 0.65663 0.93264 0.0
C398 C 0.79702 0.62566 0.94933 0.0
N399 N 0.78262 0.64896 0.96102 0.0
C400 C 0.80298 0.64899 0.91139 0.0
C401 C 0.80574 0.63318 0.91874 0.0
H402 H 0.77813 0.62792 0.99224 0.0
H403 H 0.78851 0.66851 0.92497 0.0
C404 C 0.7426 0.70458 0.92449 0.0
N405 N 0.73797 0.68976 0.91722 0.0
C406 C 0.7398 0.7162 0.89584 0.0
C407 C 0.72758 0.69717 0.85208 0.0
C408 C 0.73028 0.68592 0.8822 0.0
C409 C 0.73243 0.71247 0.85894 0.0
H410 H 0.74856 0.70735 0.95271 0.0
H411 H 0.72629 0.67423 0.87733 0.0
O412 O 0.75752 0.65605 0.0383 0.0
O413 O 0.73129 0.67774 0.01186 0.0
O414 O 0.76518 0.68255 0.97839 0.0
O415 O 0.74557 0.65338 0.95208 0.0
H416 H 0.73606 0.65412 0.09639 0.0
H417 H 0.78333 0.64309 0.06538 0.0
H418 H 0.73987 0.64141 0.16385 0.0
H419 H 0.78639 0.63074 0.13367 0.0
H420 H 0.68811 0.68453 0.93406 0.0
H421 H 0.72728 0.70774 0.0258 0.0
H422 H 0.7089 0.66786 0.96302 0.0
H423 H 0.70622 0.72372 0.99563 0.0
H424 H 0.74729 0.70073 0.17037 0.0
H425 H 0.75893 0.73266 0.07286 0.0
H426 H 0.71873 0.60394 0.05539 0.0
H427 H 0.68878 0.64309 0.08008 0.0
H428 H 0.78043 0.70476 0.94019 0.0
H429 H 0.78274 0.67195 0.03948 0.0
H430 H 0.80681 0.71392 0.95878 0.0
H431 H 0.80901 0.68163 0.05623 0.0
H432 H 0.76282 0.65693 0.88557 0.0
H433 H 0.71864 0.64121 0.93096 0.0
H434 H 0.75463 0.64956 0.81527 0.0
H435 H 0.71118 0.63417 0.85978 0.0
H436 H 0.79862 0.61344 0.95567 0.0
H437 H 0.80953 0.65532 0.88852 0.0
H438 H 0.74373 0.7279 0.90198 0.0
H439 H 0.72174 0.69399 0.82391 0.0
Li440 Li 0.09318 0.98775 0.76681 0.0
Li441 Li 0.07247 0.00417 0.78791 0.0
Li442 Li 0.07104 0.99392 0.7213 0.0
Li443 Li 0.09003 0.01517 0.73832 0.0
C444 C 0.06973 0.96641 0.765 0.0
N445 N 0.0674 0.93504 0.7486 0.0
C446 C 0.06247 0.95651 0.79298 0.0
C447 C 0.07583 0.96033 0.72869 0.0
C448 C 0.06141 0.94069 0.78414 0.0
C449 C 0.07453 0.94445 0.72094 0.0
C450 C 0.09715 0.01328 0.8334 0.0
C451 C 0.10316 0.03373 0.88114 0.0
N452 N 0.10112 0.02364 0.91275 0.0
C453 C 0.09523 0.00307 0.86627 0.0
C454 C 0.10123 0.02871 0.84075 0.0
C455 C 0.09723 0.00855 0.9062 0.0
C456 C 0.1227 0.97399 0.76528 0.0
N457 N 0.10854 0.97335 0.78345 0.0
C458 C 0.11762 0.95445 0.83141 0.0
C459 C 0.10574 0.96373 0.81562 0.0
C460 C 0.13251 0.9551 0.81389 0.0
C461 C 0.13487 0.96483 0.77982 0.0
H462 H 0.12466 0.98197 0.74021 0.0
H463 H 0.09444 0.96368 0.82998 0.0
C464 C 0.04752 0.99804 0.83905 0.0
N465 N 0.05907 0.00857 0.83358 0.0
C466 C 0.03667 -4e-05 0.87029 0.0
C467 C 0.04957 0.02371 0.88969 0.0
C468 C 0.06022 0.02132 0.85799 0.0
C469 C 0.0376 0.01292 0.89619 0.0
H470 H 0.04658 0.98823 0.81863 0.0
H471 H 0.06923 0.02976 0.85263 0.0
C472 C 0.09927 0.99363 0.67007 0.0
N473 N 0.11088 0.99112 0.59139 0.0
C474 C 0.09687 0.00556 0.64173 0.0
C475 C 0.10755 0.98041 0.65834 0.0
C476 C 0.10285 0.00408 0.60213 0.0
C477 C 0.11331 0.97936 0.61842 0.0
C478 C 0.05721 0.02651 0.75277 0.0
C479 C 0.04126 0.02359 0.7533 0.0
C480 C 0.06291 0.04029 0.76958 0.0
C481 C 0.03127 0.03448 0.77089 0.0
C482 C 0.05253 0.05092 0.78673 0.0
N483 N 0.03707 0.0478 0.78709 0.0
C484 C 0.04202 0.98473 0.69512 0.0
C485 C 0.05985 0.9864 0.64007 0.0
C486 C 0.02972 0.98259 0.6679 0.0
N487 N 0.05663 0.98707 0.68082 0.0
C488 C 0.04791 0.98425 0.61171 0.0
C489 C 0.03252 0.98279 0.62548 0.0
H490 H 0.03981 0.98527 0.72773 0.0
H491 H 0.07153 0.98807 0.62926 0.0
C492 C 0.11699 0.0315 0.71707 0.0
N493 N 0.10125 0.03202 0.71564 0.0
C494 C 0.12578 0.0424 0.69555 0.0
C495 C 0.10197 0.05439 0.67248 0.0
C496 C 0.09364 0.04325 0.69438 0.0
C497 C 0.11826 0.05388 0.67223 0.0
H498 H 0.12269 0.02223 0.73362 0.0
H499 H 0.08111 0.04317 0.69302 0.0
O500 O 0.07098 0.98189 0.77374 0.0
O501 O 0.09524 0.00817 0.79412 0.0
O502 O 0.09381 0.99497 0.7093 0.0
O503 O 0.06723 0.01585 0.73651 0.0
H504 H 0.05778 0.96099 0.82138 0.0
H505 H 0.08147 0.96773 0.70661 0.0
H506 H 0.05584 0.9329 0.80557 0.0
H507 H 0.07918 0.93962 0.69293 0.0
H508 H 0.10625 0.04566 0.88736 0.0
H509 H 0.09205 0.99109 0.86099 0.0
H510 H 0.10281 0.03672 0.81552 0.0
H511 H 0.09568 0.00082 0.93199 0.0
H512 H 0.11528 0.94734 0.85807 0.0
H513 H 0.14607 0.96556 0.76491 0.0
H514 H 0.02744 0.99153 0.87354 0.0
H515 H 0.05074 0.03386 0.90898 0.0
H516 H 0.09021 0.01571 0.64994 0.0
H517 H 0.10947 0.97104 0.67982 0.0
H518 H 0.10104 0.01321 0.57987 0.0
H519 H 0.11973 0.96919 0.60894 0.0
H520 H 0.03664 0.01299 0.74054 0.0
H521 H 0.07524 0.04263 0.77006 0.0
H522 H 0.01891 0.03233 0.7717 0.0
H523 H 0.05679 0.06158 0.80006 0.0
H524 H 0.01806 0.98163 0.68 0.0
H525 H 0.05064 0.98414 0.57931 0.0
H526 H 0.13831 0.04142 0.69578 0.0
H527 H 0.0957 0.06312 0.6553 0.0
Li528 Li 0.7607 0.34296 0.50744 0.0
Li529 Li 0.7495 0.31881 0.52743 0.0
Li530 Li 0.75352 0.32566 0.45424 0.0
Li531 Li 0.73313 0.33913 0.49177 0.0
C532 C 0.78447 0.32191 0.50644 0.0
N533 N 0.81573 0.32182 0.52525 0.0
C534 C 0.78956 0.31624 0.54429 0.0
C535 C 0.7953 0.32729 0.47792 0.0
C536 C 0.8054 0.31636 0.55328 0.0
C537 C 0.81104 0.32722 0.48809 0.0
C538 C 0.74735 0.34952 0.57798 0.0
C539 C 0.7498 0.37557 0.60428 0.0
N540 N 0.75701 0.3699 0.6382 0.0
C541 C 0.75484 0.34397 0.61306 0.0
C542 C 0.74481 0.36545 0.57354 0.0
C543 C 0.7596 0.35445 0.64319 0.0
C544 C 0.7745 0.37274 0.50653 0.0
N545 N 0.77523 0.35856 0.52467 0.0
C546 C 0.79363 0.36793 0.5736 0.0
C547 C 0.78466 0.35596 0.55739 0.0
C548 C 0.79277 0.38281 0.55627 0.0
C549 C 0.78323 0.38509 0.52188 0.0
H550 H 0.76667 0.37465 0.48117 0.0
H551 H 0.7846 0.34484 0.57247 0.0
C552 C 0.75814 0.2892 0.55 0.0
N553 N 0.75011 0.3017 0.56381 0.0
C554 C 0.76111 0.27671 0.57598 0.0
C555 C 0.74679 0.28985 0.62941 0.0
C556 C 0.74402 0.30209 0.60222 0.0
C557 C 0.75579 0.2771 0.61666 0.0
H558 H 0.76271 0.2892 0.51911 0.0
H559 H 0.73747 0.3121 0.61216 0.0
C560 C 0.75248 0.35331 0.41838 0.0
N561 N 0.75878 0.36291 0.33932 0.0
C562 C 0.74034 0.3567 0.39145 0.0
C563 C 0.76782 0.35504 0.40533 0.0
C564 C 0.74376 0.36147 0.35153 0.0
C565 C 0.77077 0.35985 0.36519 0.0
C566 C 0.72225 0.30815 0.49205 0.0
C567 C 0.71757 0.29522 0.46944 0.0
C568 C 0.71399 0.31242 0.52716 0.0
C569 C 0.70466 0.28673 0.48236 0.0
C570 C 0.70115 0.30363 0.53908 0.0
N571 N 0.69678 0.29108 0.51662 0.0
C572 C 0.76959 0.30836 0.39251 0.0
C573 C 0.74455 0.31786 0.37582 0.0
C574 C 0.77035 0.30032 0.35533 0.0
N575 N 0.75676 0.31681 0.40195 0.0
C576 C 0.74489 0.31021 0.33826 0.0
C577 C 0.7578 0.30111 0.32789 0.0
H578 H 0.77896 0.30741 0.4144 0.0
H579 H 0.73428 0.3242 0.38487 0.0
C580 C 0.70794 0.36092 0.49912 0.0
N581 N 0.71314 0.34768 0.48115 0.0
C582 C 0.6946 0.36827 0.48433 0.0
C583 C 0.69179 0.34777 0.4344 0.0
C584 C 0.70522 0.34091 0.44989 0.0
C585 C 0.68654 0.36185 0.45093 0.0
H586 H 0.71445 0.36614 0.52377 0.0
H587 H 0.70981 0.3306 0.43544 0.0
O588 O 0.76902 0.32173 0.4969 0.0
O589 O 0.74282 0.33946 0.54782 0.0
O590 O 0.74938 0.34843 0.45743 0.0
O591 O 0.73491 0.3165 0.4798 0.0
H592 H 0.78136 0.31205 0.5668 0.0
H593 H 0.79161 0.33138 0.44817 0.0
H594 H 0.80949 0.31214 0.58259 0.0
H595 H 0.81955 0.33142 0.46636 0.0
H596 H 0.74804 0.38793 0.60102 0.0
H597 H 0.75726 0.33175 0.61667 0.0
H598 H 0.73946 0.37002 0.54612 0.0
H599 H 0.76547 0.35032 0.67038 0.0
H600 H 0.80057 0.36573 0.60065 0.0
H601 H 0.7823 0.39637 0.50745 0.0
H602 H 0.76776 0.26698 0.56449 0.0
H603 H 0.74247 0.29068 0.66049 0.0
H604 H 0.7284 0.35558 0.40114 0.0
H605 H 0.77733 0.35276 0.42604 0.0
H606 H 0.73448 0.36403 0.33026 0.0
H607 H 0.78259 0.36117 0.35463 0.0
H608 H 0.72386 0.29178 0.44219 0.0
H609 H 0.71743 0.3224 0.54504 0.0
H610 H 0.7009 0.27669 0.46516 0.0
H611 H 0.69465 0.30679 0.56619 0.0
H612 H 0.78048 0.29337 0.34841 0.0
H613 H 0.73484 0.31084 0.3184 0.0
H614 H 0.69084 0.37906 0.49815 0.0
H615 H 0.68609 0.34254 0.40824 0.0
Li616 Li 0.40796 0.01541 0.25814 0.0
Li617 Li 0.42744 0.99678 0.28449 0.0
Li618 Li 0.42606 0.00243 0.21159 0.0
Li619 Li 0.40636 0.98694 0.24341 0.0
C620 C 0.44385 0.02432 0.24324 0.0
N621 N 0.47034 0.03814 0.2124 0.0
C622 C 0.4585 0.01866 0.25401 0.0
C623 C 0.4427 0.03709 0.21698 0.0
C624 C 0.47174 0.02578 0.23807 0.0
C625 C 0.45622 0.04389 0.20165 0.0
C626 C 0.40504 0.99602 0.33862 0.0
C627 C 0.40758 0.98005 0.39896 0.0
N628 N 0.40643 0.99293 0.42285 0.0
C629 C 0.40383 0.00909 0.36377 0.0
C630 C 0.40688 0.98138 0.35632 0.0
C631 C 0.40457 0.00729 0.40628 0.0
C632 C 0.38135 0.03062 0.28577 0.0
N633 N 0.39633 0.03301 0.27457 0.0
C634 C 0.39544 0.059 0.29977 0.0
C635 C 0.40342 0.0469 0.28063 0.0
C636 C 0.38015 0.05667 0.31359 0.0
C637 C 0.37301 0.04232 0.30551 0.0
H638 H 0.37617 0.01932 0.28138 0.0
H639 H 0.41544 0.04837 0.27203 0.0
C640 C 0.45135 0.9811 0.32702 0.0
N641 N 0.44173 0.99358 0.3279 0.0
C642 C 0.46384 0.98017 0.35415 0.0
C643 C 0.45596 0.00471 0.38339 0.0
C644 C 0.44369 0.00521 0.35554 0.0
C645 C 0.46646 0.99226 0.38217 0.0
H646 H 0.44985 0.97227 0.3039 0.0
H647 H 0.43622 0.01528 0.35445 0.0
C648 C 0.39969 0.01314 0.17065 0.0
N649 N 0.39254 0.03009 0.1012 0.0
C650 C 0.39405 0.00568 0.13564 0.0
C651 C 0.40153 0.02924 0.17041 0.0
C652 C 0.39055 0.01445 0.10081 0.0
C653 C 0.3979 0.0376 0.135 0.0
C654 C 0.42853 0.96688 0.22845 0.0
C655 C 0.43021 0.96241 0.18749 0.0
C656 C 0.42629 0.95556 0.25856 0.0
C657 C 0.42956 0.94668 0.17735 0.0
C658 C 0.42567 0.93996 0.24717 0.0
N659 N 0.4273 0.93588 0.20714 0.0
C660 C 0.45312 0.99548 0.17315 0.0
C661 C 0.43661 0.00897 0.12727 0.0
C662 C 0.46373 0.99259 0.142 0.0
N663 N 0.43968 0.00316 0.16523 0.0
C664 C 0.44701 0.00635 0.09497 0.0
C665 C 0.46053 0.99763 0.10204 0.0
H666 H 0.45532 0.99101 0.20356 0.0
H667 H 0.42596 0.01515 0.12152 0.0
C668 C 0.38388 0.96341 0.26286 0.0
N669 N 0.39258 0.97017 0.23305 0.0
C670 C 0.37407 0.951 0.25327 0.0
C671 C 0.38236 0.95291 0.18265 0.0
C672 C 0.39193 0.96523 0.19358 0.0
C673 C 0.37321 0.94564 0.21262 0.0
H674 H 0.38451 0.96766 0.29397 0.0
H675 H 0.39906 0.97075 0.17062 0.0
O676 O 0.43072 0.01728 0.25785 0.0
O677 O 0.40458 0.99757 0.29689 0.0
O678 O 0.40312 0.00473 0.20509 0.0
O679 O 0.42887 0.98225 0.23896 0.0
H680 H 0.45968 0.00873 0.27396 0.0
H681 H 0.43152 0.04169 0.20833 0.0
H682 H 0.48313 0.02145 0.24597 0.0
H683 H 0.45548 0.05373 0.18117 0.0
H684 H 0.40906 0.96879 0.41305 0.0
H685 H 0.40253 0.02054 0.3507 0.0
H686 H 0.40783 0.97115 0.33737 0.0
H687 H 0.40372 0.01731 0.42609 0.0
H688 H 0.40136 0.06992 0.30462 0.0
H689 H 0.36138 0.03982 0.31612 0.0
H690 H 0.47164 0.97034 0.35235 0.0
H691 H 0.45772 0.01439 0.404 0.0
H692 H 0.3924 0.99326 0.13522 0.0
H693 H 0.40574 0.03523 0.19718 0.0
H694 H 0.38624 0.00881 0.07347 0.0
H695 H 0.39934 0.05006 0.1344 0.0
H696 H 0.43173 0.97098 0.16362 0.0
H697 H 0.42494 0.95879 0.29036 0.0
H698 H 0.43075 0.94307 0.14575 0.0
H699 H 0.42387 0.93109 0.27015 0.0
H700 H 0.47418 0.98612 0.14895 0.0
H701 H 0.44417 0.01048 0.06452 0.0
H702 H 0.3671 0.94581 0.27723 0.0
H703 H 0.38228 0.949 0.15111 0.0
Li704 Li 0.73864 0.84608 0.5087 0.0
Li705 Li 0.76494 0.8413 0.48595 0.0
Li706 Li 0.74379 0.82542 0.45952 0.0
Li707 Li 0.75221 0.82235 0.53032 0.0
C708 C 0.73878 0.85827 0.42917 0.0
N709 N 0.72196 0.87918 0.38285 0.0
C710 C 0.74519 0.87264 0.41884 0.0
C711 C 0.72392 0.85445 0.41542 0.0
C712 C 0.73647 0.88308 0.39554 0.0
C713 C 0.71557 0.8652 0.39218 0.0
C714 C 0.76248 0.85845 0.55747 0.0
C715 C 0.77415 0.87433 0.60991 0.0
N716 N 0.77209 0.88707 0.58589 0.0
C717 C 0.76053 0.87168 0.53328 0.0
C718 C 0.76938 0.85976 0.59607 0.0
C719 C 0.76544 0.88604 0.54819 0.0
C720 C 0.71973 0.85599 0.56948 0.0
N721 N 0.72446 0.86059 0.53168 0.0
C722 C 0.71072 0.88455 0.53875 0.0
C723 C 0.72008 0.87451 0.51577 0.0
C724 C 0.70607 0.88024 0.57845 0.0
C725 C 0.7105 0.86564 0.59346 0.0
H726 H 0.7235 0.84489 0.58136 0.0
H727 H 0.72417 0.87807 0.48596 0.0
C728 C 0.78507 0.85313 0.42822 0.0
N729 N 0.78382 0.85058 0.46915 0.0
C730 C 0.79825 0.86023 0.41216 0.0
C731 C 0.80882 0.86172 0.48071 0.0
C732 C 0.79537 0.85456 0.49549 0.0
C733 C 0.81031 0.86475 0.43852 0.0
H734 H 0.77573 0.84968 0.40803 0.0
H735 H 0.7941 0.85231 0.52792 0.0
C736 C 0.71654 0.81865 0.50204 0.0
N737 N 0.68741 0.80649 0.48735 0.0
C738 C 0.71377 0.80282 0.5077 0.0
C739 C 0.7044 0.82834 0.48977 0.0
C740 C 0.69899 0.79688 0.49985 0.0
C741 C 0.68978 0.82197 0.48226 0.0
C742 C 0.77856 0.81219 0.48975 0.0
C743 C 0.78582 0.80178 0.46313 0.0
C744 C 0.78596 0.81652 0.52612 0.0
C745 C 0.80041 0.79586 0.47333 0.0
C746 C 0.80055 0.81035 0.5352 0.0
N747 N 0.80741 0.80023 0.50885 0.0
C748 C 0.73927 0.82048 0.37491 0.0
C749 C 0.73513 0.79844 0.41694 0.0
C750 C 0.73776 0.81147 0.33962 0.0
N751 N 0.73795 0.81386 0.41256 0.0
C752 C 0.73355 0.78899 0.38246 0.0
C753 C 0.73514 0.79544 0.34314 0.0
H754 H 0.7423 0.83259 0.3722 0.0
H755 H 0.73487 0.79334 0.44717 0.0
C756 C 0.75298 0.81425 0.61277 0.0
N757 N 0.75305 0.80821 0.57437 0.0
C758 C 0.75034 0.80469 0.64651 0.0
C759 C 0.74837 0.78277 0.60056 0.0
C760 C 0.75121 0.79277 0.56767 0.0
C761 C 0.74744 0.7888 0.64055 0.0
H762 H 0.75419 0.82662 0.61701 0.0
H763 H 0.75107 0.78838 0.53661 0.0
O764 O 0.74717 0.84793 0.45203 0.0
O765 O 0.75784 0.84423 0.54345 0.0
O766 O 0.73091 0.82467 0.50996 0.0
O767 O 0.76433 0.81814 0.47985 0.0
H768 H 0.75677 0.87572 0.42879 0.0
H769 H 0.71896 0.84323 0.42216 0.0
H770 H 0.74125 0.89428 0.38751 0.0
H771 H 0.70404 0.8624 0.38141 0.0
H772 H 0.77951 0.87552 0.63972 0.0
H773 H 0.7553 0.87088 0.50334 0.0
H774 H 0.77111 0.84962 0.61508 0.0
H775 H 0.76396 0.89638 0.52977 0.0
H776 H 0.70765 0.89578 0.52624 0.0
H777 H 0.707 0.86178 0.62367 0.0
H778 H 0.79902 0.86211 0.3794 0.0
H779 H 0.81778 0.86512 0.50215 0.0
H780 H 0.72295 0.79518 0.51788 0.0
H781 H 0.70619 0.84069 0.48634 0.0
H782 H 0.69673 0.78463 0.50379 0.0
H783 H 0.68031 0.82934 0.47255 0.0
H784 H 0.78023 0.79833 0.43484 0.0
H785 H 0.78057 0.82457 0.54713 0.0
H786 H 0.80617 0.78779 0.45299 0.0
H787 H 0.80642 0.81361 0.5632 0.0
H788 H 0.73945 0.81688 0.30998 0.0
H789 H 0.73152 0.77669 0.38658 0.0
H790 H 0.75006 0.8098 0.67681 0.0
H791 H 0.74608 0.77064 0.59445 0.0
Li792 Li 0.40709 0.51621 0.74474 0.0
Li793 Li 0.40968 0.48859 0.7596 0.0
Li794 Li 0.4265 0.50741 0.79419 0.0
Li795 Li 0.43044 0.50177 0.72226 0.0
C796 C 0.39802 0.51577 0.82649 0.0
N797 N 0.38721 0.53642 0.88459 0.0
C798 C 0.38754 0.51085 0.85645 0.0
C799 C 0.403 0.53121 0.82602 0.0
C800 C 0.38221 0.52147 0.88557 0.0
C801 C 0.3974 0.54146 0.85567 0.0
C802 C 0.4029 0.49026 0.6743 0.0
C803 C 0.4059 0.47038 0.62293 0.0
N804 N 0.39099 0.47273 0.61082 0.0
C805 C 0.38767 0.49264 0.66094 0.0
C806 C 0.41216 0.47919 0.65483 0.0
C807 C 0.38183 0.48359 0.62897 0.0
C808 C 0.39638 0.5429 0.70276 0.0
N809 N 0.39221 0.53093 0.72753 0.0
C810 C 0.36536 0.53652 0.71753 0.0
C811 C 0.37709 0.52778 0.73581 0.0
C812 C 0.36924 0.54854 0.69031 0.0
C813 C 0.385 0.55199 0.68389 0.0
H814 H 0.40851 0.54488 0.6961 0.0
H815 H 0.37416 0.518 0.7551 0.0
C816 C 0.40281 0.45868 0.79168 0.0
N817 N 0.39754 0.47049 0.76778 0.0
C818 C 0.39317 0.44611 0.80082 0.0
C819 C 0.37284 0.45823 0.76106 0.0
C820 C 0.38284 0.47054 0.75281 0.0
C821 C 0.37793 0.44583 0.78557 0.0
H822 H 0.41437 0.45919 0.80448 0.0
H823 H 0.37869 0.48042 0.73566 0.0
C824 C 0.44353 0.52948 0.75007 0.0
N825 N 0.47255 0.54307 0.75126 0.0
C826 C 0.45668 0.52054 0.75855 0.0
C827 C 0.44514 0.54532 0.74214 0.0
C828 C 0.47124 0.52762 0.75902 0.0
C829 C 0.45991 0.55198 0.74292 0.0
C830 C 0.44167 0.47481 0.76375 0.0
C831 C 0.4562 0.47425 0.78274 0.0
C832 C 0.43684 0.46244 0.73922 0.0
C833 C 0.46576 0.46139 0.77634 0.0
C834 C 0.44674 0.44978 0.73361 0.0
N835 N 0.46088 0.44953 0.75209 0.0
C836 C 0.4396 0.49844 0.86808 0.0
C837 C 0.44286 0.52524 0.85442 0.0
C838 C 0.44877 0.49957 0.90318 0.0
N839 N 0.43708 0.5111 0.84421 0.0
C840 C 0.45224 0.52687 0.88907 0.0
C841 C 0.45552 0.51386 0.91366 0.0
H842 H 0.43477 0.48735 0.85922 0.0
H843 H 0.44061 0.53515 0.83503 0.0
C844 C 0.44429 0.51442 0.6544 0.0
N845 N 0.44542 0.50181 0.67923 0.0
C846 C 0.45567 0.51741 0.6251 0.0
C847 C 0.46882 0.49392 0.64589 0.0
C848 C 0.45725 0.49147 0.67518 0.0
C849 C 0.46827 0.50722 0.62106 0.0
H850 H 0.43479 0.52248 0.65847 0.0
H851 H 0.45807 0.48161 0.69531 0.0
O852 O 0.40335 0.50545 0.79795 0.0
O853 O 0.40881 0.49911 0.70535 0.0
O854 O 0.42915 0.52279 0.7489 0.0
O855 O 0.43217 0.48731 0.76986 0.0
H856 H 0.38359 0.49893 0.85719 0.0
H857 H 0.41108 0.53526 0.80307 0.0
H858 H 0.3741 0.51782 0.90896 0.0
H859 H 0.40116 0.55343 0.8557 0.0
H860 H 0.41293 0.46173 0.6077 0.0
H861 H 0.38042 0.50133 0.67531 0.0
H862 H 0.4241 0.4775 0.66395 0.0
H863 H 0.37003 0.48523 0.61853 0.0
H864 H 0.35336 0.53359 0.72365 0.0
H865 H 0.38848 0.56105 0.6628 0.0
H866 H 0.39755 0.43681 0.81989 0.0
H867 H 0.36106 0.45871 0.74961 0.0
H868 H 0.45565 0.50827 0.76461 0.0
H869 H 0.43507 0.55239 0.73543 0.0
H870 H 0.48151 0.52083 0.76552 0.0
H871 H 0.46133 0.56423 0.73684 0.0
H872 H 0.46007 0.48365 0.80216 0.0
H873 H 0.42555 0.46255 0.72485 0.0
H874 H 0.47706 0.46082 0.79069 0.0
H875 H 0.44316 0.44014 0.71463 0.0
H876 H 0.45066 0.48929 0.92162 0.0
H877 H 0.45728 0.5381 0.89561 0.0
H878 H 0.45474 0.5277 0.60619 0.0
H879 H 0.47842 0.48585 0.64386 0.0
Li880 Li 0.7567 0.1736 0.95864 0.0
Li881 Li 0.74817 0.17792 0.02803 0.0
Li882 Li 0.76106 0.15422 0.01214 0.0
Li883 Li 0.73407 0.1592 0.98697 0.0
C884 C 0.77803 0.18895 0.00791 0.0
N885 N 0.79428 0.21656 0.00707 0.0
C886 C 0.77049 0.2028 0.99804 0.0
C887 C 0.79384 0.18913 0.01742 0.0
C888 C 0.7789 0.21664 0.99778 0.0
C889 C 0.80185 0.20321 0.01679 0.0
C890 C 0.72508 0.19196 0.97067 0.0
C891 C 0.69842 0.20007 0.97756 0.0
N892 N 0.70172 0.21327 0.95648 0.0
C893 C 0.72819 0.20557 0.94883 0.0
C894 C 0.71005 0.18913 0.98493 0.0
C895 C 0.71624 0.21621 0.94208 0.0
C896 C 0.75112 0.18354 0.88051 0.0
N897 N 0.76273 0.18301 0.9086 0.0
C898 C 0.77895 0.19858 0.86578 0.0
C899 C 0.77666 0.18991 0.90153 0.0
C900 C 0.76681 0.20002 0.83719 0.0
C901 C 0.75291 0.19199 0.84445 0.0
H902 H 0.74022 0.17785 0.88695 0.0
H903 H 0.78579 0.18917 0.92413 0.0
C904 C 0.75893 0.1956 0.09455 0.0
N905 N 0.74657 0.19378 0.06908 0.0
C906 C 0.75967 0.20827 0.12109 0.0
C907 C 0.73455 0.2165 0.09641 0.0
C908 C 0.73429 0.20367 0.0704 0.0
C909 C 0.74754 0.21915 0.12142 0.0
H910 H 0.7685 0.18751 0.09313 0.0
H911 H 0.72446 0.20187 0.05067 0.0
C912 C 0.76278 0.14412 0.92986 0.0
N913 N 0.78377 0.13027 0.87742 0.0
C914 C 0.75766 0.13358 0.90032 0.0
C915 C 0.77857 0.14767 0.93269 0.0
C916 C 0.76846 0.12668 0.8741 0.0
C917 C 0.789 0.14053 0.90591 0.0
C918 C 0.73682 0.15985 0.08302 0.0
C919 C 0.74736 0.1588 0.11544 0.0
C920 C 0.72165 0.16484 0.09047 0.0
C921 C 0.74257 0.16294 0.15486 0.0
C922 C 0.71732 0.16887 0.13032 0.0
N923 N 0.72779 0.16787 0.16142 0.0
C924 C 0.78493 0.14179 0.0615 0.0
C925 C 0.77214 0.1236 0.01885 0.0
C926 C 0.79372 0.12998 0.0795 0.0
N927 N 0.77427 0.13836 0.0322 0.0
C928 C 0.78079 0.11147 0.0356 0.0
C929 C 0.79156 0.11452 0.06699 0.0
H930 H 0.78626 0.15365 0.07175 0.0
H931 H 0.76348 0.12119 0.99571 0.0
C932 C 0.71099 0.15364 0.93055 0.0
N933 N 0.71509 0.15043 0.96983 0.0
C934 C 0.69765 0.14712 0.91373 0.0
C935 C 0.69287 0.13421 0.97834 0.0
C936 C 0.70635 0.14103 0.99399 0.0
C937 C 0.68844 0.13714 0.93754 0.0
H938 H 0.71828 0.16107 0.91209 0.0
H939 H 0.70997 0.13865 0.02511 0.0
O940 O 0.77007 0.17522 0.00872 0.0
O941 O 0.73659 0.18127 0.97694 0.0
O942 O 0.75232 0.15102 0.95555 0.0
O943 O 0.74141 0.15628 0.04405 0.0
H944 H 0.75827 0.2029 0.99089 0.0
H945 H 0.79983 0.17849 0.02521 0.0
H946 H 0.77319 0.22745 0.99024 0.0
H947 H 0.81409 0.20353 0.02406 0.0
H948 H 0.68676 0.19805 0.98858 0.0
H949 H 0.7397 0.2079 0.93709 0.0
H950 H 0.7074 0.17867 0.00176 0.0
H951 H 0.71849 0.2268 0.92531 0.0
H952 H 0.78984 0.20461 0.86147 0.0
H953 H 0.74338 0.19247 0.82287 0.0
H954 H 0.76992 0.20988 0.13978 0.0
H955 H 0.72479 0.22442 0.09643 0.0
H956 H 0.74545 0.13077 0.8977 0.0
H957 H 0.78274 0.15585 0.95526 0.0
H958 H 0.76467 0.11849 0.8511 0.0
H959 H 0.80125 0.14315 0.90775 0.0
H960 H 0.75915 0.155 0.11014 0.0
H961 H 0.71336 0.16569 0.0657 0.0
H962 H 0.75063 0.16229 0.18022 0.0
H963 H 0.70565 0.17284 0.13652 0.0
H964 H 0.80171 0.13291 0.1039 0.0
H965 H 0.77892 0.09981 0.02434 0.0
H966 H 0.69488 0.14948 0.88196 0.0
H967 H 0.68605 0.12667 0.99783 0.0
Li968 Li 0.09313 0.51041 0.25745 0.0
Li969 Li 0.09516 0.48294 0.23869 0.0
Li970 Li 0.07279 0.49857 0.2158 0.0
Li971 Li 0.07515 0.49132 0.28778 0.0
C972 C 0.09668 0.51266 0.1722 0.0
N973 N 0.09969 0.5356 0.11358 0.0
C974 C 0.10762 0.51113 0.14086 0.0
C975 C 0.08721 0.52582 0.17361 0.0
C976 C 0.10899 0.52287 0.11154 0.0
C977 C 0.08893 0.53729 0.14373 0.0
C978 C 0.10328 0.48164 0.3217 0.0
C979 C 0.10205 0.45594 0.35072 0.0
N980 N 0.11344 0.45983 0.37765 0.0
C981 C 0.11495 0.4854 0.34969 0.0
C982 C 0.09675 0.46681 0.32221 0.0
C983 C 0.11994 0.4742 0.37773 0.0
C984 C 0.10133 0.53435 0.30923 0.0
N985 N 0.10438 0.52855 0.27135 0.0
C986 C 0.12374 0.54792 0.26003 0.0
C987 C 0.11537 0.53499 0.24673 0.0
C988 C 0.12098 0.554 0.29928 0.0
C989 C 0.10959 0.5471 0.32399 0.0
H990 H 0.09261 0.52888 0.32822 0.0
H991 H 0.11786 0.52997 0.21713 0.0
C992 C 0.10259 0.45815 0.18924 0.0
N993 N 0.10815 0.4665 0.22131 0.0
C994 C 0.11103 0.44568 0.1737 0.0
C995 C 0.13102 0.45083 0.22388 0.0
C996 C 0.12212 0.46321 0.23861 0.0
C997 C 0.12542 0.44183 0.19113 0.0
H998 H 0.09154 0.4612 0.17576 0.0
H999 H 0.12636 0.47018 0.26379 0.0
C1000 C 0.05706 0.52011 0.26942 0.0
N1001 N 0.02987 0.5367 0.27915 0.0
C1002 C 0.04329 0.51246 0.27959 0.0
C1003 C 0.05703 0.53622 0.26467 0.0
C1004 C 0.02966 0.52104 0.28426 0.0
C1005 C 0.04315 0.54439 0.26956 0.0
C1006 C 0.06183 0.46662 0.23595 0.0
C1007 C 0.04635 0.47092 0.23007 0.0
C1008 C 0.06578 0.4509 0.23753 0.0
C1009 C 0.03507 0.45941 0.22589 0.0
C1010 C 0.05415 0.43974 0.23331 0.0
N1011 N 0.03916 0.44419 0.2276 0.0
C1012 C 0.06144 0.48859 0.14254 0.0
C1013 C 0.046 0.50902 0.16901 0.0
C1014 C 0.05071 0.48583 0.1115 0.0
N1015 N 0.05872 0.49971 0.1711 0.0
C1016 C 0.03489 0.50663 0.1384 0.0
C1017 C 0.03698 0.49457 0.10989 0.0
H1018 H 0.07167 0.48137 0.14509 0.0
H1019 H 0.04409 0.51783 0.19195 0.0
C1020 C 0.06327 0.49816 0.36484 0.0
N1021 N 0.06371 0.48677 0.33608 0.0
C1022 C 0.05366 0.49672 0.39906 0.0
C1023 C 0.04548 0.47164 0.374 0.0
C1024 C 0.05534 0.47352 0.34044 0.0
C1025 C 0.04434 0.48345 0.40358 0.0
H1026 H 0.07007 0.50857 0.36049 0.0
H1027 H 0.05594 0.46458 0.3174 0.0
O1028 O 0.09522 0.50123 0.20101 0.0
O1029 O 0.09832 0.49251 0.29409 0.0
O1030 O 0.07059 0.512 0.26496 0.0
O1031 O 0.07314 0.47768 0.23973 0.0
H1032 H 0.115 0.50098 0.13929 0.0
H1033 H 0.07864 0.52716 0.19745 0.0
H1034 H 0.11743 0.52185 0.08715 0.0
H1035 H 0.08169 0.54754 0.1445 0.0
H1036 H 0.0971 0.44442 0.35142 0.0
H1037 H 0.1201 0.49685 0.34969 0.0
H1038 H 0.0877 0.4637 0.30086 0.0
H1039 H 0.12898 0.47694 0.39955 0.0
H1040 H 0.13258 0.55283 0.24033 0.0
H1041 H 0.10709 0.55152 0.35435 0.0
H1042 H 0.10641 0.43926 0.14792 0.0
H1043 H 0.14204 0.44822 0.23823 0.0
H1044 H 0.04311 0.50004 0.28396 0.0
H1045 H 0.06763 0.54235 0.25728 0.0
H1046 H 0.01892 0.51526 0.29203 0.0
H1047 H 0.04295 0.55686 0.26581 0.0
H1048 H 0.04305 0.48298 0.2285 0.0
H1049 H 0.07768 0.44734 0.24217 0.0
H1050 H 0.02305 0.46258 0.22123 0.0
H1051 H 0.05704 0.42754 0.23455 0.0
H1052 H 0.05297 0.47665 0.08964 0.0
H1053 H 0.02445 0.51362 0.13832 0.0
H1054 H 0.05341 0.50599 0.42141 0.0
H1055 H 0.03842 0.46128 0.37584 0.0
Li1056 Li 0.25089 0.17623 0.52758 0.0
Li1057 Li 0.23596 0.15496 0.50429 0.0
Li1058 Li 0.26502 0.15498 0.49426 0.0
Li1059 Li 0.24724 0.17235 0.45488 0.0
C1060 C 0.25885 0.15495 0.58524 0.0
N1061 N 0.27086 0.15594 0.66378 0.0
C1062 C 0.2493 0.15876 0.61841 0.0
C1063 C 0.27452 0.15162 0.59211 0.0
C1064 C 0.25559 0.15921 0.65785 0.0
C1065 C 0.28037 0.15219 0.63202 0.0
C1066 C 0.21588 0.17735 0.50378 0.0
C1067 C 0.18945 0.17392 0.48131 0.0
N1068 N 0.18443 0.17664 0.52017 0.0
C1069 C 0.21046 0.18017 0.54348 0.0
C1070 C 0.20529 0.17427 0.47238 0.0
C1071 C 0.19452 0.17975 0.55115 0.0
C1072 C 0.24236 0.20501 0.55794 0.0
N1073 N 0.25206 0.19298 0.56644 0.0
C1074 C 0.26161 0.20622 0.62573 0.0
C1075 C 0.26193 0.19357 0.59897 0.0
C1076 C 0.25135 0.21855 0.61819 0.0
C1077 C 0.24178 0.21792 0.58351 0.0
H1078 H 0.23501 0.20458 0.53114 0.0
H1079 H 0.27017 0.18435 0.60407 0.0
C1080 C 0.21278 0.13181 0.48907 0.0
N1081 N 0.2188 0.14177 0.51717 0.0
C1082 C 0.2003 0.12221 0.49949 0.0
C1083 C 0.20053 0.13328 0.56749 0.0
C1084 C 0.21298 0.14258 0.55581 0.0
C1085 C 0.19404 0.12285 0.53927 0.0
H1086 H 0.21773 0.13119 0.45871 0.0
H1087 H 0.21793 0.15056 0.57755 0.0
C1088 C 0.2743 0.19063 0.49367 0.0
N1089 N 0.28846 0.21794 0.51724 0.0
C1090 C 0.26918 0.20479 0.47779 0.0
C1091 C 0.28663 0.19034 0.52147 0.0
C1092 C 0.27649 0.21848 0.49011 0.0
C1093 C 0.29364 0.20428 0.53301 0.0
C1094 C 0.24736 0.14606 0.41388 0.0
C1095 C 0.26063 0.14125 0.39274 0.0
C1096 C 0.23342 0.148 0.39261 0.0
C1097 C 0.25974 0.13858 0.35057 0.0
C1098 C 0.23301 0.14523 0.35045 0.0
N1099 N 0.24607 0.14062 0.33047 0.0
C1100 C 0.28189 0.12713 0.48657 0.0
C1101 C 0.29666 0.15007 0.47723 0.0
C1102 C 0.29448 0.11801 0.47444 0.0
N1103 N 0.28316 0.14285 0.48711 0.0
C1104 C 0.30959 0.14139 0.46551 0.0
C1105 C 0.30848 0.12518 0.46317 0.0
H1106 H 0.27089 0.12175 0.49381 0.0
H1107 H 0.2972 0.16258 0.4767 0.0
C1108 C 0.23471 0.19265 0.39367 0.0
N1109 N 0.24637 0.18274 0.40373 0.0
C1110 C 0.2356 0.2014 0.35763 0.0
C1111 C 0.26033 0.18933 0.343 0.0
C1112 C 0.25904 0.181 0.37941 0.0
C1113 C 0.2486 0.19983 0.33195 0.0
H1114 H 0.22498 0.19413 0.4142 0.0
H1115 H 0.26839 0.17347 0.38901 0.0
O1116 O 0.25287 0.15413 0.54644 0.0
O1117 O 0.23146 0.17746 0.49579 0.0
O1118 O 0.26698 0.17717 0.48295 0.0
O1119 O 0.24805 0.149 0.45506 0.0
H1120 H 0.23724 0.16167 0.61378 0.0
H1121 H 0.28211 0.14864 0.56697 0.0
H1122 H 0.24835 0.16224 0.68372 0.0
H1123 H 0.29247 0.14966 0.63772 0.0
H1124 H 0.18113 0.17148 0.45733 0.0
H1125 H 0.21848 0.18239 0.56829 0.0
H1126 H 0.20926 0.1721 0.44149 0.0
H1127 H 0.19018 0.1818 0.58178 0.0
H1128 H 0.26944 0.20647 0.65169 0.0
H1129 H 0.23371 0.22719 0.57658 0.0
H1130 H 0.1958 0.11419 0.4769 0.0
H1131 H 0.19595 0.13438 0.59827 0.0
H1132 H 0.25955 0.20524 0.45656 0.0
H1133 H 0.29056 0.17949 0.5346 0.0
H1134 H 0.2726 0.22953 0.47823 0.0
H1135 H 0.30313 0.20424 0.5547 0.0
H1136 H 0.27155 0.13977 0.40853 0.0
H1137 H 0.22306 0.15174 0.40842 0.0
H1138 H 0.26993 0.13493 0.33381 0.0
H1139 H 0.22231 0.14677 0.33359 0.0
H1140 H 0.2932 0.10552 0.47309 0.0
H1141 H 0.32011 0.14735 0.45646 0.0
H1142 H 0.22635 0.20942 0.35016 0.0
H1143 H 0.27069 0.18804 0.32454 0.0
Li1144 Li 0.5797 0.50094 0.29543 0.0
Li1145 Li 0.59426 0.4799 0.26207 0.0
Li1146 Li 0.59906 0.5076 0.24601 0.0
Li1147 Li 0.57554 0.49554 0.2226 0.0
C1148 C 0.60485 0.49796 0.3396 0.0
N1149 N 0.60888 0.5006 0.42334 0.0
C1150 C 0.6075 0.48474 0.36342 0.0
C1151 C 0.60438 0.51253 0.35834 0.0
C1152 C 0.60949 0.48632 0.40572 0.0
C1153 C 0.60639 0.51362 0.40072 0.0
C1154 C 0.55678 0.47627 0.26881 0.0
C1155 C 0.53812 0.45644 0.25161 0.0
N1156 N 0.52648 0.46579 0.26509 0.0
C1157 C 0.54462 0.48562 0.28279 0.0
C1158 C 0.5535 0.4615 0.25335 0.0
C1159 C 0.52939 0.48014 0.28053 0.0
C1160 C 0.56196 0.51989 0.34878 0.0
N1161 N 0.56916 0.50596 0.34475 0.0
C1162 C 0.55849 0.49715 0.40815 0.0
C1163 C 0.56768 0.49468 0.37358 0.0
C1164 C 0.55053 0.51129 0.41272 0.0
C1165 C 0.55256 0.52283 0.38273 0.0
H1166 H 0.563 0.52848 0.32481 0.0
H1167 H 0.57329 0.48359 0.36907 0.0
C1168 C 0.61884 0.4583 0.26608 0.0
N1169 N 0.60347 0.46039 0.2734 0.0
C1170 C 0.62641 0.44511 0.28092 0.0
C1171 C 0.60203 0.43625 0.30917 0.0
C1172 C 0.59496 0.44964 0.29394 0.0
C1173 C 0.61804 0.43402 0.30354 0.0
H1174 H 0.62534 0.4672 0.25022 0.0
H1175 H 0.58285 0.45182 0.30028 0.0
C1176 C 0.57979 0.53054 0.23659 0.0
N1177 N 0.58531 0.56021 0.20802 0.0
C1178 C 0.57727 0.53414 0.19534 0.0
C1179 C 0.58504 0.54206 0.26335 0.0
C1180 C 0.58013 0.5492 0.18149 0.0
C1181 C 0.5878 0.55697 0.24829 0.0
C1182 C 0.59762 0.47945 0.1753 0.0
C1183 C 0.60546 0.48306 0.13902 0.0
C1184 C 0.59028 0.4651 0.17928 0.0
C1185 C 0.60572 0.47224 0.10716 0.0
C1186 C 0.59081 0.45458 0.14676 0.0
N1187 N 0.59844 0.45834 0.11165 0.0
C1188 C 0.62381 0.529 0.25873 0.0
C1189 C 0.61529 0.52625 0.19005 0.0
C1190 C 0.63424 0.54059 0.24715 0.0
N1191 N 0.61446 0.52228 0.23031 0.0
C1192 C 0.62553 0.5378 0.17711 0.0
C1193 C 0.63506 0.54527 0.2059 0.0
H1194 H 0.62301 0.52552 0.29046 0.0
H1195 H 0.60767 0.52073 0.16815 0.0
C1196 C 0.54703 0.50498 0.19523 0.0
N1197 N 0.55946 0.49663 0.18221 0.0
C1198 C 0.53477 0.50819 0.16883 0.0
C1199 C 0.54827 0.49432 0.11534 0.0
C1200 C 0.56027 0.4912 0.14311 0.0
C1201 C 0.53537 0.50312 0.12797 0.0
H1202 H 0.54686 0.50959 0.226 0.0
H1203 H 0.57036 0.48489 0.13289 0.0
O1204 O 0.60264 0.49664 0.29821 0.0
O1205 O 0.5718 0.48143 0.27074 0.0
O1206 O 0.57744 0.51576 0.25054 0.0
O1207 O 0.59729 0.48994 0.20672 0.0
H1208 H 0.60796 0.47338 0.34953 0.0
H1209 H 0.60224 0.52287 0.34045 0.0
H1210 H 0.61149 0.47618 0.42454 0.0
H1211 H 0.60593 0.52481 0.41565 0.0
H1212 H 0.53544 0.44505 0.23962 0.0
H1213 H 0.54684 0.49709 0.29469 0.0
H1214 H 0.5627 0.45395 0.24296 0.0
H1215 H 0.51989 0.48732 0.29097 0.0
H1216 H 0.55742 0.48799 0.43067 0.0
H1217 H 0.54644 0.53378 0.38453 0.0
H1218 H 0.63874 0.44377 0.27558 0.0
H1219 H 0.59519 0.42814 0.32694 0.0
H1220 H 0.57339 0.52535 0.17404 0.0
H1221 H 0.58715 0.53947 0.29529 0.0
H1222 H 0.57831 0.55212 0.14961 0.0
H1223 H 0.59197 0.56597 0.26859 0.0
H1224 H 0.61125 0.49411 0.1355 0.0
H1225 H 0.58421 0.46214 0.20709 0.0
H1226 H 0.6117 0.47488 0.07887 0.0
H1227 H 0.58514 0.44343 0.14942 0.0
H1228 H 0.64155 0.54585 0.27027 0.0
H1229 H 0.62561 0.54115 0.14512 0.0
H1230 H 0.525 0.51477 0.18033 0.0
H1231 H 0.54938 0.49034 0.084 0.0
Li1232 Li 0.2451 0.823 0.03713 0.0
Li1233 Li 0.26464 0.84136 0.01838 0.0
Li1234 Li 0.23847 0.84462 0.99589 0.0
Li1235 Li 0.25336 0.82298 0.96662 0.0
C1236 C 0.25046 0.84657 0.0929 0.0
N1237 N 0.25986 0.84983 0.17342 0.0
C1238 C 0.26156 0.83651 0.10941 0.0
C1239 C 0.24417 0.85829 0.11736 0.0
C1240 C 0.26615 0.83835 0.15017 0.0
C1241 C 0.24906 0.85974 0.158 0.0
C1242 C 0.28026 0.81296 0.00527 0.0
C1243 C 0.30299 0.81439 0.96234 0.0
N1244 N 0.30927 0.80223 0.9831 0.0
C1245 C 0.2869 0.80044 0.02607 0.0
C1246 C 0.28832 0.81998 0.97303 0.0
C1247 C 0.30159 0.7952 0.01445 0.0
C1248 C 0.24275 0.79335 0.06489 0.0
N1249 N 0.23917 0.80799 0.07694 0.0
C1250 C 0.23025 0.79865 0.1418 0.0
C1251 C 0.23279 0.81088 0.11432 0.0
C1252 C 0.234 0.78344 0.12999 0.0
C1253 C 0.24013 0.78084 0.09083 0.0
H1254 H 0.24786 0.79144 0.03514 0.0
H1255 H 0.22995 0.82263 0.12311 0.0
C1256 C 0.27999 0.868 0.04367 0.0
N1257 N 0.28207 0.85246 0.03943 0.0
C1258 C 0.29084 0.87693 0.06485 0.0
C1259 C 0.30586 0.85371 0.07698 0.0
C1260 C 0.29473 0.84523 0.05547 0.0
C1261 C 0.30387 0.86974 0.0824 0.0
H1262 H 0.26947 0.87333 0.03232 0.0
H1263 H 0.2959 0.8328 0.05342 0.0
C1264 C 0.21926 0.81534 0.00086 0.0
N1265 N 0.19422 0.79908 0.03146 0.0
C1266 C 0.2168 0.79996 0.98906 0.0
C1267 C 0.20896 0.8225 0.02797 0.0
C1268 C 0.20408 0.79193 0.00495 0.0
C1269 C 0.19637 0.81407 0.04316 0.0
C1270 C 0.254 0.85683 0.93358 0.0
C1271 C 0.24299 0.85367 0.90326 0.0
C1272 C 0.26057 0.87161 0.93604 0.0
C1273 C 0.23854 0.86545 0.87628 0.0
C1274 C 0.25583 0.88308 0.90848 0.0
N1275 N 0.24499 0.8798 0.87946 0.0
C1276 C 0.22635 0.87483 0.99424 0.0
C1277 C 0.21155 0.85643 0.95704 0.0
C1278 C 0.21724 0.88693 0.97909 0.0
N1279 N 0.22357 0.86001 0.98229 0.0
C1280 C 0.2022 0.86818 0.94094 0.0
C1281 C 0.20523 0.88373 0.95115 0.0
H1282 H 0.23608 0.8773 0.01415 0.0
H1283 H 0.20978 0.84454 0.9476 0.0
C1284 C 0.25639 0.79377 0.93593 0.0
N1285 N 0.25603 0.80872 0.92287 0.0
C1286 C 0.25488 0.78164 0.90813 0.0
C1287 C 0.25381 0.80044 0.85319 0.0
C1288 C 0.25531 0.81228 0.88229 0.0
C1289 C 0.25298 0.78493 0.86636 0.0
H1290 H 0.25699 0.79128 0.9683 0.0
H1291 H 0.25512 0.82426 0.87261 0.0
O1292 O 0.2459 0.84527 0.05286 0.0
O1293 O 0.26583 0.81808 0.01628 0.0
O1294 O 0.23188 0.82328 0.98662 0.0
O1295 O 0.25818 0.84555 0.96097 0.0
H1296 H 0.26661 0.82738 0.09108 0.0
H1297 H 0.23562 0.86621 0.10497 0.0
H1298 H 0.27473 0.83065 0.1633 0.0
H1299 H 0.24428 0.86877 0.17727 0.0
H1300 H 0.30938 0.81972 0.93752 0.0
H1301 H 0.28076 0.79486 0.05098 0.0
H1302 H 0.28336 0.82963 0.95643 0.0
H1303 H 0.30689 0.78554 0.03034 0.0
H1304 H 0.22546 0.80103 0.17185 0.0
H1305 H 0.24334 0.7693 0.08084 0.0
H1306 H 0.28868 0.8892 0.06904 0.0
H1307 H 0.31575 0.84771 0.08997 0.0
H1308 H 0.22468 0.79426 0.96812 0.0
H1309 H 0.21078 0.83439 0.03754 0.0
H1310 H 0.20206 0.77999 0.99627 0.0
H1311 H 0.18834 0.81942 0.06436 0.0
H1312 H 0.23758 0.84238 0.90138 0.0
H1313 H 0.26924 0.87422 0.95895 0.0
H1314 H 0.22988 0.86323 0.85304 0.0
H1315 H 0.26076 0.8946 0.91017 0.0
H1316 H 0.21983 0.8987 0.98842 0.0
H1317 H 0.19323 0.86515 0.91916 0.0
H1318 H 0.25458 0.76983 0.91941 0.0
H1319 H 0.2524 0.80341 0.82115 0.0
Li1320 Li 0.92327 0.49658 0.78787 0.0
Li1321 Li 0.9076 0.51684 0.75606 0.0
Li1322 Li 0.90254 0.48868 0.73956 0.0
Li1323 Li 0.92535 0.502 0.71283 0.0
C1324 C 0.89475 0.49635 0.83071 0.0
N1325 N 0.88283 0.48951 0.9073 0.0
C1326 C 0.89348 0.50794 0.86046 0.0
C1327 C 0.8896 0.48135 0.83967 0.0
C1328 C 0.88754 0.50424 0.89907 0.0
C1329 C 0.8837 0.4781 0.87862 0.0
C1330 C 0.93593 0.53047 0.76475 0.0
C1331 C 0.94072 0.55609 0.7379 0.0
N1332 N 0.94627 0.56055 0.77509 0.0
C1333 C 0.94185 0.53525 0.80258 0.0
C1334 C 0.9355 0.54092 0.73204 0.0
C1335 C 0.94696 0.55052 0.80724 0.0
C1336 C 0.9468 0.48104 0.83164 0.0
N1337 N 0.93529 0.49175 0.83522 0.0
C1338 C 0.94341 0.49787 0.90341 0.0
C1339 C 0.93346 0.50014 0.87018 0.0
C1340 C 0.95537 0.48686 0.90054 0.0
C1341 C 0.95689 0.47826 0.86423 0.0
H1342 H 0.94847 0.47498 0.80299 0.0
H1343 H 0.92469 0.50906 0.8717 0.0
C1344 C 0.88483 0.53959 0.74299 0.0
N1345 N 0.89728 0.53595 0.76667 0.0
C1346 C 0.87565 0.55243 0.75248 0.0
C1347 C 0.89229 0.5576 0.81049 0.0
C1348 C 0.9012 0.5447 0.79975 0.0
C1349 C 0.8792 0.56149 0.78701 0.0
H1350 H 0.88171 0.53219 0.71755 0.0
H1351 H 0.91086 0.54132 0.81881 0.0
C1352 C 0.92508 0.46584 0.74657 0.0
N1353 N 0.92618 0.43404 0.75719 0.0
C1354 C 0.93085 0.45631 0.71542 0.0
C1355 C 0.9201 0.45919 0.78333 0.0
C1356 C 0.93124 0.44027 0.7213 0.0
C1357 C 0.92069 0.4431 0.78808 0.0
C1358 C 0.90244 0.51109 0.66186 0.0
C1359 C 0.89906 0.49996 0.63204 0.0
C1360 C 0.90484 0.52649 0.65014 0.0
C1361 C 0.89853 0.50436 0.59085 0.0
C1362 C 0.90419 0.53044 0.60865 0.0
N1363 N 0.9011 0.51938 0.58009 0.0
C1364 C 0.87236 0.47595 0.74049 0.0
C1365 C 0.89 0.46352 0.69549 0.0
C1366 C 0.8602 0.46673 0.72612 0.0
N1367 N 0.88688 0.47424 0.72488 0.0
C1368 C 0.8782 0.4541 0.68014 0.0
C1369 C 0.86299 0.4558 0.69499 0.0
H1370 H 0.87014 0.4848 0.76322 0.0
H1371 H 0.9015 0.46278 0.68251 0.0
C1372 C 0.95225 0.51022 0.66598 0.0
N1373 N 0.9393 0.50124 0.66783 0.0
C1374 C 0.96353 0.50738 0.63607 0.0
C1375 C 0.94778 0.48631 0.61042 0.0
C1376 C 0.93678 0.48965 0.64044 0.0
C1377 C 0.96152 0.49501 0.60859 0.0
H1378 H 0.95421 0.51906 0.68884 0.0
H1379 H 0.92654 0.4825 0.64316 0.0
O1380 O 0.9004 0.49983 0.79255 0.0
O1381 O 0.93076 0.51559 0.75972 0.0
O1382 O 0.92445 0.48159 0.74116 0.0
O1383 O 0.90307 0.50698 0.70236 0.0
H1384 H 0.89719 0.51965 0.854 0.0
H1385 H 0.89 0.47232 0.81673 0.0
H1386 H 0.88665 0.51307 0.92248 0.0
H1387 H 0.87976 0.46652 0.88598 0.0
H1388 H 0.94039 0.56431 0.71285 0.0
H1389 H 0.94243 0.52729 0.82812 0.0
H1390 H 0.93129 0.53731 0.70236 0.0
H1391 H 0.95147 0.55441 0.83642 0.0
H1392 H 0.9419 0.50478 0.93084 0.0
H1393 H 0.96618 0.46991 0.86047 0.0
H1394 H 0.8655 0.55485 0.73396 0.0
H1395 H 0.89547 0.56431 0.83726 0.0
H1396 H 0.93495 0.46122 0.68693 0.0
H1397 H 0.91606 0.46639 0.80817 0.0
H1398 H 0.93559 0.43276 0.69734 0.0
H1399 H 0.91686 0.43782 0.81641 0.0
H1400 H 0.89699 0.48803 0.64054 0.0
H1401 H 0.90704 0.53535 0.67284 0.0
H1402 H 0.89606 0.49583 0.56743 0.0
H1403 H 0.90609 0.54232 0.59917 0.0
H1404 H 0.84869 0.46836 0.7387 0.0
H1405 H 0.88085 0.44608 0.65558 0.0
H1406 H 0.97406 0.51422 0.63587 0.0
H1407 H 0.94578 0.47673 0.5896 0.0
H1408 H 0.2542 0.27936 0.20771 0.0
H1409 H 0.271 0.25253 0.10417 0.0
H1410 H 0.26822 0.22852 0.14454 0.0
H1411 H 0.27259 0.25675 0.28645 0.0
H1412 H 0.25656 0.2584 0.32166 0.0
H1413 H 0.26009 0.27351 0.2847 0.0
H1414 H 0.23198 0.27058 0.25763 0.0
H1415 H 0.2284 0.25537 0.29431 0.0
H1416 H 0.22531 0.25186 0.24046 0.0
H1417 H 0.26357 0.20742 0.19584 0.0
H1418 H 0.25814 0.19072 0.25574 0.0
H1419 H 0.24381 0.23115 0.32528 0.0
C1420 C 0.25725 0.26844 0.19346 0.0
C1421 C 0.26293 0.26787 0.15282 0.0
C1422 C 0.26692 0.25333 0.13549 0.0
C1423 C 0.26524 0.23959 0.15803 0.0
C1424 C 0.25949 0.24057 0.19782 0.0
C1425 C 0.2556 0.25461 0.21547 0.0
C1426 C 0.24978 0.25243 0.2589 0.0
C1427 C 0.26039 0.26077 0.28974 0.0
C1428 C 0.23286 0.25788 0.26305 0.0
C1429 C 0.25104 0.23498 0.2629 0.0
C1430 C 0.25664 0.22836 0.22729 0.0
C1431 C 0.25915 0.21245 0.22388 0.0
C1432 C 0.25606 0.20308 0.25802 0.0
C1433 C 0.25051 0.20964 0.29501 0.0
C1434 C 0.2478 0.22579 0.29718 0.0
H1435 H 0.98373 0.01184 0.43184 0.0
H1436 H 0.94652 0.98165 0.47262 0.0
H1437 H 0.96263 0.97303 0.53086 0.0
H1438 H 0.01513 0.98629 0.45651 0.0
H1439 H 0.02785 0.00151 0.4739 0.0
H1440 H 0.01333 0.00558 0.43568 0.0
H1441 H 0.00211 0.02757 0.48104 0.0
H1442 H 0.0167 0.02367 0.51919 0.0
H1443 H 0.99646 0.02336 0.53307 0.0
H1444 H 0.98303 0.96709 0.58348 0.0
H1445 H 0.00574 0.96555 0.62945 0.0
H1446 H 0.0294 2e-05 0.55518 0.0
C1447 C 0.97898 0.00344 0.45309 0.0
C1448 C 0.96385 0.99748 0.44785 0.0
C1449 C 0.95799 0.98657 0.47643 0.0
C1450 C 0.9671 0.98149 0.5094 0.0
C1451 C 0.98201 0.98748 0.51346 0.0
C1452 C 0.98788 0.99831 0.48634 0.0
C1453 C 0.0042 0.00306 0.49802 0.0
C1454 C 0.01581 0.99886 0.464 0.0
C1455 C 0.0049 0.02045 0.50846 0.0
C1456 C 0.00661 0.99312 0.53576 0.0
C1457 C 0.99371 0.98417 0.54406 0.0
C1458 C 0.99318 0.9741 0.57744 0.0
C1459 C 0.00612 0.97335 0.60344 0.0
C1460 C 0.01938 0.98265 0.596 0.0
C1461 C 0.01959 0.99255 0.56141 0.0
H1462 H 0.25737 0.73346 0.66306 0.0
H1463 H 0.22043 0.70528 0.71461 0.0
H1464 H 0.22002 0.722 0.77591 0.0
H1465 H 0.27746 0.74101 0.75635 0.0
H1466 H 0.28226 0.76076 0.74337 0.0
H1467 H 0.27972 0.74658 0.70341 0.0
H1468 H 0.25889 0.76397 0.6692 0.0
H1469 H 0.26139 0.77823 0.709 0.0
H1470 H 0.24241 0.77035 0.69879 0.0
H1471 H 0.22382 0.74136 0.83174 0.0
H1472 H 0.23115 0.76263 0.87834 0.0
H1473 H 0.26503 0.77887 0.78978 0.0
C1474 C 0.24904 0.7309 0.68695 0.0
C1475 C 0.23895 0.71799 0.68399 0.0
C1476 C 0.22844 0.71493 0.71638 0.0
C1477 C 0.22804 0.72442 0.75122 0.0
C1478 C 0.23816 0.73698 0.7531 0.0
C1479 C 0.24841 0.7403 0.7218 0.0
C1480 C 0.25804 0.75454 0.73153 0.0
C1481 C 0.2754 0.75047 0.73381 0.0
C1482 C 0.25499 0.76754 0.70027 0.0
C1483 C 0.25164 0.75866 0.77334 0.0
C1484 C 0.24021 0.74834 0.78519 0.0
C1485 C 0.23273 0.74952 0.82283 0.0
C1486 C 0.23705 0.76158 0.84915 0.0
C1487 C 0.24872 0.77231 0.83772 0.0
C1488 C 0.25602 0.77087 0.79916 0.0
H1489 H 0.47191 0.01576 0.03928 0.0
H1490 H 0.47268 0.96895 0.08823 0.0
H1491 H 0.49124 0.96115 0.03457 0.0
H1492 H 0.47501 0.00474 0.93075 0.0
H1493 H 0.48742 0.02089 0.91828 0.0
H1494 H 0.47342 0.02263 0.95905 0.0
H1495 H 0.49533 0.03045 0.00933 0.0
H1496 H 0.50938 0.02871 0.96878 0.0
H1497 H 0.51187 0.01786 0.01555 0.0
H1498 H 0.51077 0.95872 0.97862 0.0
H1499 H 0.52988 0.9618 0.92277 0.0
H1500 H 0.51647 0.01007 0.90957 0.0
C1501 C 0.47581 0.00382 0.03823 0.0
C1502 C 0.47094 0.99298 0.06802 0.0
C1503 C 0.47644 0.9775 0.06602 0.0
C1504 C 0.4869 0.97293 0.03553 0.0
C1505 C 0.4917 0.98394 0.00707 0.0
C1506 C 0.48631 0.99905 0.00796 0.0
C1507 C 0.49385 0.00872 0.97467 0.0
C1508 C 0.4817 0.01459 0.94386 0.0
C1509 C 0.50316 0.02223 0.9932 0.0
C1510 C 0.50445 0.99673 0.95542 0.0
C1511 C 0.50296 0.9825 0.97448 0.0
C1512 C 0.51196 0.96977 0.9632 0.0
C1513 C 0.52284 0.97165 0.93166 0.0
C1514 C 0.52461 0.98614 0.91179 0.0
C1515 C 0.51518 0.99878 0.92373 0.0
H1516 H 0.24519 0.78115 0.20817 0.0
H1517 H 0.21979 0.75581 0.11508 0.0
H1518 H 0.21992 0.73246 0.15912 0.0
H1519 H 0.27 0.75041 0.23641 0.0
H1520 H 0.27027 0.75494 0.29034 0.0
H1521 H 0.26708 0.7701 0.25332 0.0
H1522 H 0.2413 0.77757 0.28908 0.0
H1523 H 0.24453 0.76259 0.32664 0.0
H1524 H 0.22675 0.7629 0.29757 0.0
H1525 H 0.2238 0.71171 0.21151 0.0
H1526 H 0.23035 0.69494 0.27047 0.0
H1527 H 0.25381 0.73355 0.32899 0.0
C1528 C 0.23934 0.77078 0.1976 0.0
C1529 C 0.23235 0.77023 0.15851 0.0
C1530 C 0.22515 0.75639 0.14507 0.0
C1531 C 0.22519 0.74311 0.1698 0.0
C1532 C 0.23254 0.74388 0.20775 0.0
C1533 C 0.2394 0.75736 0.22176 0.0
C1534 C 0.24706 0.75487 0.26304 0.0
C1535 C 0.26465 0.75775 0.2606 0.0
C1536 C 0.23945 0.76509 0.29603 0.0
C1537 C 0.24351 0.73787 0.26988 0.0
C1538 C 0.23507 0.73178 0.23767 0.0
C1539 C 0.23035 0.71634 0.237 0.0
C1540 C 0.23412 0.70693 0.27054 0.0
C1541 C 0.2426 0.71297 0.30411 0.0
C1542 C 0.24749 0.7286 0.30346 0.0
H1543 H 0.46925 0.00021 0.46341 0.0
H1544 H 0.49596 0.98537 0.35769 0.0
H1545 H 0.52004 0.98723 0.3983 0.0
H1546 H 0.49663 0.02802 0.50083 0.0
H1547 H 0.4932 0.0237 0.55413 0.0
H1548 H 0.47796 0.02089 0.5171 0.0
H1549 H 0.4752 0.99219 0.53965 0.0
H1550 H 0.49034 0.99495 0.57698 0.0
H1551 H 0.49203 0.97976 0.53927 0.0
H1552 H 0.54125 0.9914 0.44961 0.0
H1553 H 0.55807 0.99626 0.50946 0.0
H1554 H 0.51752 0.00802 0.58208 0.0
C1555 C 0.48017 0.99734 0.44886 0.0
C1556 C 0.48074 0.99257 0.40747 0.0
C1557 C 0.49524 0.98881 0.38955 0.0
C1558 C 0.50898 0.98995 0.41225 0.0
C1559 C 0.50803 0.99483 0.45285 0.0
C1560 C 0.494 0.99835 0.47113 0.0
C1561 C 0.4962 0.00318 0.51536 0.0
C1562 C 0.49067 0.01994 0.52224 0.0
C1563 C 0.48796 0.99184 0.54453 0.0
C1564 C 0.51366 0.00191 0.51899 0.0
C1565 C 0.52026 0.99712 0.48256 0.0
C1566 C 0.53621 0.99508 0.47839 0.0
C1567 C 0.54566 0.99782 0.51259 0.0
C1568 C 0.53913 0.00249 0.55049 0.0
C1569 C 0.52291 0.00467 0.55343 0.0
H1570 H 0.24985 0.21803 0.70204 0.0
H1571 H 0.25056 0.2493 0.59784 0.0
H1572 H 0.24772 0.27168 0.6446 0.0
H1573 H 0.22127 0.2388 0.76004 0.0
H1574 H 0.23028 0.23501 0.80888 0.0
H1575 H 0.23263 0.22146 0.76734 0.0
H1576 H 0.26253 0.2236 0.77374 0.0
H1577 H 0.26027 0.23708 0.81547 0.0
H1578 H 0.27158 0.24242 0.7712 0.0
H1579 H 0.24502 0.29056 0.70255 0.0
H1580 H 0.24312 0.3048 0.76782 0.0
H1581 H 0.24319 0.2611 0.83419 0.0
C1582 C 0.24958 0.2296 0.68916 0.0
C1583 C 0.25044 0.23197 0.64639 0.0
C1584 C 0.2498 0.24726 0.63054 0.0
C1585 C 0.24823 0.26002 0.65682 0.0
C1586 C 0.24723 0.25727 0.69881 0.0
C1587 C 0.2479 0.24245 0.71492 0.0
C1588 C 0.24641 0.24268 0.76115 0.0
C1589 C 0.23178 0.23397 0.77516 0.0
C1590 C 0.26107 0.23606 0.78159 0.0
C1591 C 0.24493 0.25995 0.76853 0.0
C1592 C 0.24541 0.26815 0.73218 0.0
C1593 C 0.24452 0.28427 0.73123 0.0
C1594 C 0.24329 0.29224 0.76851 0.0
C1595 C 0.2429 0.2841 0.80628 0.0
C1596 C 0.24358 0.26771 0.80598 0.0
H1597 H 0.02531 0.99093 0.94765 0.0
H1598 H 0.02335 0.04006 0.91892 0.0
H1599 H 0.0032 0.04364 0.97195 0.0
H1600 H 0.98462 0.98577 0.9629 0.0
H1601 H 0.98689 0.97216 0.00441 0.0
H1602 H 0.00161 0.97361 0.96545 0.0
H1603 H 0.02236 0.97887 0.02122 0.0
H1604 H 0.0077 0.97741 0.06039 0.0
H1605 H 0.01954 0.99459 0.05686 0.0
H1606 H 0.9827 0.04167 0.02667 0.0
H1607 H 0.96383 0.03447 0.08026 0.0
H1608 H 0.97871 0.98646 0.07169 0.0
C1609 C 0.02062 0.00245 0.9524 0.0
C1610 C 0.02593 0.01523 0.92914 0.0
C1611 C 0.01963 0.03014 0.93673 0.0
C1612 C 0.00811 0.03226 0.9666 0.0
C1613 C 0.00304 0.01938 0.98865 0.0
C1614 C 0.00913 0.00477 0.98201 0.0
C1615 C 0.00156 0.9928 0.00949 0.0
C1616 C 0.99317 0.98036 0.98404 0.0
C1617 C 0.0135 0.98549 0.03873 0.0
C1618 C 0.99016 0.00294 0.03244 0.0
C1619 C 0.99121 0.01823 0.02 0.0
C1620 C 0.98176 0.02973 0.03661 0.0
C1621 C 0.97099 0.0255 0.06682 0.0
C1622 C 0.96972 0.00988 0.08009 0.0
C1623 C 0.97949 0.99851 0.06253 0.0
H1624 H 0.74479 0.71301 0.78208 0.0
H1625 H 0.71642 0.73946 0.86653 0.0
H1626 H 0.7158 0.76134 0.81741 0.0
H1627 H 0.76834 0.74405 0.75241 0.0
H1628 H 0.77036 0.73823 0.69961 0.0
H1629 H 0.76685 0.72386 0.73855 0.0
H1630 H 0.74256 0.71426 0.69927 0.0
H1631 H 0.74608 0.72852 0.65994 0.0
H1632 H 0.72758 0.72791 0.68563 0.0
H1633 H 0.71973 0.78076 0.76183 0.0
H1634 H 0.72798 0.79681 0.70339 0.0
H1635 H 0.75523 0.75831 0.65645 0.0
C1636 C 0.7381 0.72326 0.78951 0.0
C1637 C 0.73041 0.72458 0.82752 0.0
C1638 C 0.72219 0.73829 0.8372 0.0
C1639 C 0.72179 0.75072 0.80956 0.0
C1640 C 0.72979 0.74924 0.77264 0.0
C1641 C 0.73777 0.73587 0.76249 0.0
C1642 C 0.74645 0.73778 0.72239 0.0
C1643 C 0.76404 0.73587 0.72864 0.0
C1644 C 0.74029 0.72645 0.68988 0.0
C1645 C 0.74227 0.75438 0.71193 0.0
C1646 C 0.73253 0.7607 0.74112 0.0
C1647 C 0.72736 0.77595 0.73874 0.0
C1648 C 0.73227 0.78503 0.70561 0.0
C1649 C 0.74242 0.77891 0.67545 0.0
C1650 C 0.74738 0.76332 0.67872 0.0
H1651 H 0.7654 0.27043 0.31972 0.0
H1652 H 0.74891 0.31029 0.25117 0.0
H1653 H 0.74542 0.29376 0.18999 0.0
H1654 H 0.78604 0.25145 0.23429 0.0
H1655 H 0.78046 0.2323 0.25084 0.0
H1656 H 0.78296 0.24757 0.28797 0.0
H1657 H 0.75504 0.24278 0.31459 0.0
H1658 H 0.75239 0.22763 0.27731 0.0
H1659 H 0.739 0.24368 0.27921 0.0
H1660 H 0.74201 0.27268 0.13811 0.0
H1661 H 0.7398 0.24857 0.09782 0.0
H1662 H 0.75822 0.22232 0.20045 0.0
C1663 C 0.76145 0.27575 0.29151 0.0
C1664 C 0.75751 0.29165 0.29001 0.0
C1665 C 0.75196 0.29812 0.25289 0.0
C1666 C 0.74998 0.28884 0.21803 0.0
C1667 C 0.75362 0.27313 0.22081 0.0
C1668 C 0.75934 0.26664 0.25648 0.0
C1669 C 0.76158 0.2493 0.25196 0.0
C1670 C 0.77878 0.2449 0.25653 0.0
C1671 C 0.75139 0.24032 0.28258 0.0
C1672 C 0.75603 0.24703 0.20835 0.0
C1673 C 0.75154 0.26093 0.19092 0.0
C1674 C 0.74556 0.26173 0.15134 0.0
C1675 C 0.74422 0.24796 0.12885 0.0
C1676 C 0.74878 0.23356 0.14604 0.0
C1677 C 0.75479 0.23316 0.18633 0.0
H1678 H 0.7447 0.2196 0.80615 0.0
H1679 H 0.79213 0.20424 0.78705 0.0
H1680 H 0.7944 0.22212 0.72805 0.0
H1681 H 0.7345 0.22295 0.69897 0.0
H1682 H 0.72262 0.23989 0.70688 0.0
H1683 H 0.7248 0.22583 0.74732 0.0
H1684 H 0.73435 0.24746 0.79634 0.0
H1685 H 0.73226 0.26158 0.75604 0.0
H1686 H 0.75066 0.2593 0.78161 0.0
H1687 H 0.79152 0.24198 0.67192 0.0
H1688 H 0.78387 0.26235 0.62287 0.0
H1689 H 0.73792 0.26386 0.67736 0.0
C1690 C 0.75551 0.21979 0.78925 0.0
C1691 C 0.76823 0.21044 0.80112 0.0
C1692 C 0.78228 0.21137 0.77873 0.0
C1693 C 0.78365 0.22142 0.74507 0.0
C1694 C 0.77086 0.23044 0.73423 0.0
C1695 C 0.75706 0.2297 0.75563 0.0
C1696 C 0.74509 0.24072 0.7381 0.0
C1697 C 0.73092 0.23181 0.72185 0.0
C1698 C 0.74032 0.25299 0.76992 0.0
C1699 C 0.75434 0.24786 0.70351 0.0
C1700 C 0.76916 0.24177 0.70177 0.0
C1701 C 0.77991 0.24674 0.67277 0.0
C1702 C 0.77539 0.25824 0.64483 0.0
C1703 C 0.76023 0.26465 0.64594 0.0
C1704 C 0.74961 0.25931 0.67578 0.0
H1705 H 0.75993 0.72246 0.20714 0.0
H1706 H 0.73636 0.74449 0.10493 0.0
H1707 H 0.72889 0.76628 0.14966 0.0
H1708 H 0.73207 0.73308 0.28432 0.0
H1709 H 0.74644 0.73646 0.32345 0.0
H1710 H 0.75017 0.7226 0.28332 0.0
H1711 H 0.7755 0.73711 0.26424 0.0
H1712 H 0.77189 0.75093 0.30448 0.0
H1713 H 0.77472 0.75754 0.25259 0.0
H1714 H 0.72365 0.78553 0.20548 0.0
H1715 H 0.72188 0.8014 0.26831 0.0
H1716 H 0.74894 0.76695 0.33403 0.0
C1717 C 0.75318 0.73185 0.19422 0.0
C1718 C 0.74884 0.73182 0.15245 0.0
C1719 C 0.74008 0.7444 0.13664 0.0
C1720 C 0.73565 0.75677 0.16187 0.0
C1721 C 0.74006 0.75641 0.20289 0.0
C1722 C 0.74868 0.74433 0.21897 0.0
C1723 C 0.75202 0.74688 0.26403 0.0
C1724 C 0.74474 0.73399 0.29032 0.0
C1725 C 0.76957 0.7482 0.27177 0.0
C1726 C 0.74391 0.76226 0.27072 0.0
C1727 C 0.73704 0.76753 0.2351 0.0
C1728 C 0.729 0.78154 0.23357 0.0
C1729 C 0.7281 0.7905 0.26936 0.0
C1730 C 0.73523 0.78542 0.30613 0.0
C1731 C 0.74313 0.77104 0.30666 0.0
H1732 H 0.52297 0.48576 0.06479 0.0
H1733 H 0.51961 0.53075 0.12416 0.0
H1734 H 0.49843 0.53801 0.07741 0.0
H1735 H 0.51671 0.50022 0.96204 0.0
H1736 H 0.50576 0.48346 0.94613 0.0
H1737 H 0.5204 0.48159 0.98518 0.0
H1738 H 0.50002 0.46975 0.0345 0.0
H1739 H 0.48529 0.47169 0.99569 0.0
H1740 H 0.48247 0.48036 0.0454 0.0
H1741 H 0.47734 0.54037 0.02493 0.0
H1742 H 0.45866 0.53806 0.968 0.0
H1743 H 0.477 0.49235 0.93966 0.0
C1744 C 0.51789 0.49719 0.06782 0.0
C1745 C 0.52288 0.50757 0.0987 0.0
C1746 C 0.51578 0.52239 0.10158 0.0
C1747 C 0.50379 0.5267 0.07493 0.0
C1748 C 0.49909 0.51615 0.0452 0.0
C1749 C 0.50599 0.50176 0.04121 0.0
C1750 C 0.49895 0.49274 0.00599 0.0
C1751 C 0.51118 0.48931 0.97288 0.0
C1752 C 0.49122 0.47775 0.02133 0.0
C1753 C 0.487 0.50431 0.99096 0.0
C1754 C 0.48722 0.5177 0.01412 0.0
C1755 C 0.47714 0.52999 0.00633 0.0
C1756 C 0.46662 0.5286 0.97374 0.0
C1757 C 0.46633 0.51506 0.9491 0.0
C1758 C 0.4767 0.50278 0.95812 0.0
H1759 H 0.02656 0.50672 0.43724 0.0
H1760 H 0.03624 0.4574 0.44729 0.0
H1761 H 0.01614 0.4551 0.50073 0.0
H1762 H 0.02034 0.5131 0.54659 0.0
H1763 H 0.00518 0.52715 0.53816 0.0
H1764 H 0.02048 0.52492 0.501 0.0
H1765 H 2e-05 0.52002 0.4443 0.0
H1766 H 0.98466 0.52211 0.48129 0.0
H1767 H 0.98599 0.50471 0.45089 0.0
H1768 H 0.99427 0.45791 0.55067 0.0
H1769 H 0.97304 0.46593 0.59691 0.0
H1770 H 0.97846 0.51361 0.55686 0.0
C1771 C 0.02471 0.49547 0.45115 0.0
C1772 C 0.033 0.48222 0.43781 0.0
C1773 C 0.0299 0.46768 0.4564 0.0
C1774 C 0.01857 0.46627 0.48699 0.0
C1775 C 0.01053 0.47952 0.49897 0.0
C1776 C 0.01356 0.49387 0.48197 0.0
C1777 C 0.00321 0.50629 0.50024 0.0
C1778 C 0.01288 0.51859 0.52284 0.0
C1779 C 0.99286 0.51372 0.46721 0.0
C1780 C 0.99377 0.49664 0.5299 0.0
C1781 C 0.99814 0.48122 0.52854 0.0
C1782 C 0.9908 0.46997 0.5522 0.0
C1783 C 0.97871 0.47461 0.57813 0.0
C1784 C 0.97413 0.49037 0.58033 0.0
C1785 C 0.98183 0.50151 0.55598 0.0
H1786 H 0.01841 0.51422 0.06462 0.0
H1787 H 0.02732 0.46548 0.08867 0.0
H1788 H 0.00699 0.45827 0.03919 0.0
H1789 H 0.9766 0.51064 0.05461 0.0
H1790 H 0.97531 0.52478 0.01404 0.0
H1791 H 0.99052 0.52621 0.05173 0.0
H1792 H 0.01115 0.52609 0.99395 0.0
H1793 H 0.99601 0.5247 0.95611 0.0
H1794 H 0.01132 0.51045 0.95728 0.0
H1795 H 0.98623 0.45623 0.98603 0.0
H1796 H 0.96622 0.45961 0.9325 0.0
H1797 H 0.97032 0.50959 0.94395 0.0
C1798 C 0.01599 0.50204 0.05974 0.0
C1799 C 0.02458 0.49042 0.08026 0.0
C1800 C 0.02113 0.4746 0.07271 0.0
C1801 C 0.00951 0.47037 0.04492 0.0
C1802 C 0.00134 0.48209 0.02505 0.0
C1803 C 0.00439 0.4976 0.03211 0.0
C1804 C 0.99404 0.50787 0.00618 0.0
C1805 C 0.98349 0.51797 0.03327 0.0
C1806 C 0.00371 0.51786 0.97663 0.0
C1807 C 0.98478 0.4957 0.98334 0.0
C1808 C 0.98918 0.4809 0.99471 0.0
C1809 C 0.98262 0.46775 0.97698 0.0
C1810 C 0.97133 0.46978 0.94655 0.0
C1811 C 0.96669 0.48484 0.93429 0.0
C1812 C 0.97345 0.49794 0.95323 0.0
H1813 H 0.48263 0.48754 0.56696 0.0
H1814 H 0.48287 0.53505 0.61072 0.0
H1815 H 0.50443 0.54118 0.56348 0.0
H1816 H 0.52405 0.48348 0.55488 0.0
H1817 H 0.52255 0.47207 0.50876 0.0
H1818 H 0.50731 0.47136 0.54649 0.0
H1819 H 0.48718 0.47916 0.49116 0.0
H1820 H 0.50234 0.47982 0.45325 0.0
H1821 H 0.49021 0.49656 0.46157 0.0
H1822 H 0.52604 0.54206 0.51176 0.0
H1823 H 0.54546 0.5379 0.45718 0.0
H1824 H 0.53044 0.49001 0.44592 0.0
C1825 C 0.4873 0.4992 0.56675 0.0
C1826 C 0.4811 0.51083 0.5924 0.0
C1827 C 0.48736 0.52601 0.59095 0.0
C1828 C 0.49966 0.52957 0.56444 0.0
C1829 C 0.50551 0.51784 0.53953 0.0
C1830 C 0.49949 0.50298 0.54027 0.0
C1831 C 0.50759 0.4926 0.50959 0.0
C1832 C 0.51587 0.47908 0.53124 0.0
C1833 C 0.49615 0.48669 0.47696 0.0
C1834 C 0.51911 0.50394 0.49152 0.0
C1835 C 0.51779 0.51841 0.50933 0.0
C1836 C 0.52716 0.53079 0.49748 0.0
C1837 C 0.5381 0.52833 0.46631 0.0
C1838 C 0.53951 0.51363 0.44719 0.0
C1839 C 0.52988 0.50131 0.4603 0.0
H1840 H 0.15676 0.44051 0.17589 0.0
H1841 H 0.11452 0.41326 0.16885 0.0
H1842 H 0.12919 0.39172 0.13755 0.0
H1843 H 0.17259 0.42859 0.08088 0.0
H1844 H 0.19238 0.4279 0.09862 0.0
H1845 H 0.17877 0.44096 0.12232 0.0
H1846 H 0.18465 0.42887 0.19338 0.0
H1847 H 0.19838 0.41585 0.16994 0.0
H1848 H 0.18269 0.40823 0.2004 0.0
H1849 H 0.14814 0.37359 0.10458 0.0
H1850 H 0.17024 0.3599 0.07293 0.0
H1851 H 0.20033 0.39865 0.10297 0.0
C1852 C 0.15065 0.42992 0.16839 0.0
C1853 C 0.13449 0.42858 0.17472 0.0
C1854 C 0.12687 0.41461 0.16382 0.0
C1855 C 0.13511 0.40228 0.14624 0.0
C1856 C 0.15097 0.40407 0.13986 0.0
C1857 C 0.1587 0.41749 0.15075 0.0
C1858 C 0.17573 0.41657 0.13959 0.0
C1859 C 0.18012 0.42926 0.1085 0.0
C1860 C 0.18597 0.41743 0.17813 0.0
C1861 C 0.17633 0.4006 0.12032 0.0
C1862 C 0.16193 0.39358 0.12094 0.0
C1863 C 0.15951 0.37891 0.10424 0.0
C1864 C 0.17215 0.3712 0.08651 0.0
C1865 C 0.18704 0.37816 0.08557 0.0
C1866 C 0.18908 0.39307 0.10282 0.0
H1867 H 0.81106 0.88755 0.38006 0.0
H1868 H 0.84086 0.86041 0.45984 0.0
H1869 H 0.86378 0.87423 0.43253 0.0
H1870 H 0.83727 0.8888 0.29259 0.0
H1871 H 0.83203 0.90842 0.27938 0.0
H1872 H 0.8181 0.89596 0.30411 0.0
H1873 H 0.81451 0.91624 0.362 0.0
H1874 H 0.82835 0.92877 0.33738 0.0
H1875 H 0.83124 0.92298 0.38992 0.0
H1876 H 0.88332 0.89174 0.39806 0.0
H1877 H 0.89779 0.91213 0.36094 0.0
H1878 H 0.85506 0.92743 0.30346 0.0
C1879 C 0.82242 0.88431 0.39135 0.0
C1880 C 0.82417 0.87284 0.42197 0.0
C1881 C 0.83923 0.86925 0.43663 0.0
C1882 C 0.85232 0.87694 0.42107 0.0
C1883 C 0.85015 0.88816 0.39083 0.0
C1884 C 0.83557 0.89185 0.37618 0.0
C1885 C 0.83627 0.90477 0.34485 0.0
C1886 C 0.83058 0.89915 0.30274 0.0
C1887 C 0.82705 0.91903 0.35943 0.0
C1888 C 0.85353 0.90794 0.34444 0.0
C1889 C 0.86136 0.89818 0.37097 0.0
C1890 C 0.87732 0.89937 0.37702 0.0
C1891 C 0.88543 0.911 0.35591 0.0
C1892 C 0.87756 0.9213 0.32915 0.0
C1893 C 0.86145 0.91953 0.323 0.0
H1894 H 0.32514 0.62022 0.58618 0.0
H1895 H 0.29142 0.58698 0.54089 0.0
H1896 H 0.30636 0.56571 0.57236 0.0
H1897 H 0.3592 0.59581 0.57258 0.0
H1898 H 0.36842 0.60252 0.61887 0.0
H1899 H 0.35545 0.61513 0.5912 0.0
H1900 H 0.33897 0.61886 0.6569 0.0
H1901 H 0.35184 0.60621 0.68472 0.0
H1902 H 0.33136 0.60208 0.68303 0.0
H1903 H 0.32412 0.54819 0.61117 0.0
H1904 H 0.34434 0.53531 0.65237 0.0
H1905 H 0.36655 0.57978 0.67345 0.0
C1906 C 0.32093 0.60846 0.58276 0.0
C1907 C 0.30715 0.60527 0.56078 0.0
C1908 C 0.30208 0.5897 0.55688 0.0
C1909 C 0.31043 0.57754 0.57492 0.0
C1910 C 0.32385 0.5811 0.59671 0.0
C1911 C 0.32915 0.59615 0.60052 0.0
C1912 C 0.34382 0.5968 0.62609 0.0
C1913 C 0.35753 0.60292 0.60066 0.0
C1914 C 0.34134 0.60656 0.66499 0.0
C1915 C 0.34584 0.57977 0.63636 0.0
C1916 C 0.33416 0.57095 0.61913 0.0
C1917 C 0.33334 0.55497 0.62478 0.0
C1918 C 0.34481 0.54778 0.64853 0.0
C1919 C 0.35697 0.55655 0.66636 0.0
C1920 C 0.35746 0.57276 0.66002 0.0
H1921 H 0.67954 0.10684 0.94729 0.0
H1922 H 0.66689 0.14945 0.88475 0.0
H1923 H 0.64611 0.13551 0.84791 0.0
H1924 H 0.6745 0.08199 0.86427 0.0
H1925 H 0.66653 0.06615 0.89354 0.0
H1926 H 0.67951 0.07971 0.91759 0.0
H1927 H 0.65887 0.08559 0.97327 0.0
H1928 H 0.64586 0.07192 0.94956 0.0
H1929 H 0.6397 0.09164 0.95803 0.0
H1930 H 0.62824 0.11639 0.81354 0.0
H1931 H 0.61379 0.09372 0.78684 0.0
H1932 H 0.63785 0.06395 0.87319 0.0
C1933 C 0.67215 0.11335 0.92669 0.0
C1934 C 0.67486 0.12924 0.91891 0.0
C1935 C 0.66514 0.13723 0.89089 0.0
C1936 C 0.65325 0.12944 0.86999 0.0
C1937 C 0.65114 0.11369 0.8777 0.0
C1938 C 0.66022 0.10577 0.9057 0.0
C1939 C 0.65604 0.08874 0.90707 0.0
C1940 C 0.66997 0.07855 0.89488 0.0
C1941 C 0.64974 0.08421 0.9495 0.0
C1942 C 0.64342 0.08824 0.87488 0.0
C1943 C 0.64072 0.10275 0.85835 0.0
C1944 C 0.63012 0.105 0.82661 0.0
C1945 C 0.62205 0.09208 0.81147 0.0
C1946 C 0.62463 0.07714 0.82818 0.0
C1947 C 0.63541 0.07528 0.8604 0.0
H1948 H 0.13582 0.5563 0.37311 0.0
H1949 H 0.1271 0.58137 0.26015 0.0
H1950 H 0.14281 0.60334 0.28579 0.0
H1951 H 0.13505 0.58948 0.44174 0.0
H1952 H 0.1506 0.58225 0.47335 0.0
H1953 H 0.13803 0.56888 0.44696 0.0
H1954 H 0.16192 0.55608 0.41252 0.0
H1955 H 0.17455 0.5694 0.43878 0.0
H1956 H 0.17525 0.56794 0.3837 0.0
H1957 H 0.15956 0.62238 0.32348 0.0
H1958 H 0.17764 0.63657 0.36857 0.0
H1959 H 0.1761 0.59877 0.4563 0.0
C1960 C 0.13708 0.56651 0.35403 0.0
C1961 C 0.13018 0.56724 0.3148 0.0
C1962 C 0.13233 0.58061 0.29027 0.0
C1963 C 0.14115 0.59315 0.30465 0.0
C1964 C 0.14782 0.59205 0.34348 0.0
C1965 C 0.14599 0.57903 0.36772 0.0
C1966 C 0.15499 0.58047 0.40741 0.0
C1967 C 0.14401 0.58026 0.44456 0.0
C1968 C 0.16741 0.56772 0.41078 0.0
C1969 C 0.16225 0.5963 0.40163 0.0
C1970 C 0.15781 0.60285 0.36476 0.0
C1971 C 0.16307 0.6174 0.35249 0.0
C1972 C 0.17325 0.62541 0.37841 0.0
C1973 C 0.17818 0.6188 0.41601 0.0
C1974 C 0.17253 0.60407 0.42771 0.0
H1975 H 0.63909 0.94057 0.63726 0.0
H1976 H 0.65825 0.9412 0.76026 0.0
H1977 H 0.67853 0.92264 0.73884 0.0
H1978 H 0.64562 0.89983 0.61743 0.0
H1979 H 0.65066 0.90279 0.56438 0.0
H1980 H 0.63756 0.91599 0.58954 0.0
H1981 H 0.6553 0.93904 0.56964 0.0
H1982 H 0.66851 0.92591 0.54461 0.0
H1983 H 0.67548 0.9387 0.58421 0.0
H1984 H 0.69659 0.90409 0.70441 0.0
H1985 H 0.71149 0.88673 0.65899 0.0
H1986 H 0.68075 0.89814 0.55801 0.0
C1987 C 0.64746 0.93667 0.65977 0.0
C1988 C 0.6471 0.94229 0.70046 0.0
C1989 C 0.65841 0.93712 0.72886 0.0
C1990 C 0.66992 0.92656 0.71703 0.0
C1991 C 0.67001 0.92132 0.67664 0.0
C1992 C 0.6591 0.92619 0.6484 0.0
C1993 C 0.66195 0.91892 0.60678 0.0
C1994 C 0.64812 0.90878 0.59378 0.0
C1995 C 0.66552 0.93139 0.57441 0.0
C1996 C 0.67613 0.90916 0.61608 0.0
C1997 C 0.68055 0.9107 0.6566 0.0
C1998 C 0.69322 0.90275 0.67265 0.0
C1999 C 0.70157 0.89287 0.64667 0.0
C2000 C 0.69723 0.89103 0.60505 0.0
C2001 C 0.6844 0.8994 0.58959 0.0
H2002 H 0.37411 0.43181 0.86063 0.0
H2003 H 0.35705 0.43129 0.73543 0.0
H2004 H 0.33748 0.41173 0.75476 0.0
H2005 H 0.36874 0.3901 0.88019 0.0
H2006 H 0.36289 0.39319 0.9326 0.0
H2007 H 0.37616 0.40648 0.90836 0.0
H2008 H 0.3578 0.42933 0.926 0.0
H2009 H 0.34441 0.41611 0.94993 0.0
H2010 H 0.33787 0.42868 0.9093 0.0
H2011 H 0.31873 0.39383 0.7883 0.0
H2012 H 0.30245 0.37777 0.83323 0.0
H2013 H 0.33232 0.3888 0.93648 0.0
C2014 C 0.36649 0.42734 0.83707 0.0
C2015 C 0.3671 0.4331 0.79649 0.0
C2016 C 0.35668 0.42718 0.76679 0.0
C2017 C 0.34558 0.41601 0.77741 0.0
C2018 C 0.34512 0.41081 0.81781 0.0
C2019 C 0.35535 0.41616 0.84713 0.0
C2020 C 0.352 0.409 0.88866 0.0
C2021 C 0.36577 0.3991 0.9033 0.0
C2022 C 0.34777 0.42153 0.92033 0.0
C2023 C 0.33811 0.399 0.87818 0.0
C2024 C 0.33439 0.4002 0.83712 0.0
C2025 C 0.32169 0.39257 0.82036 0.0
C2026 C 0.31256 0.38337 0.8462 0.0
C2027 C 0.3162 0.38176 0.88842 0.0
C2028 C 0.32918 0.38975 0.90445 0.0
H2029 H 0.82169 0.11412 0.09612 0.0
H2030 H 0.78033 0.08559 0.08564 0.0
H2031 H 0.79395 0.06412 0.11994 0.0
H2032 H 0.84966 0.08385 0.08026 0.0
H2033 H 0.86317 0.09124 0.11764 0.0
H2034 H 0.85036 0.10435 0.0911 0.0
H2035 H 0.83997 0.1145 0.16063 0.0
H2036 H 0.85276 0.10144 0.18739 0.0
H2037 H 0.8322 0.10094 0.19737 0.0
H2038 H 0.81194 0.04565 0.15474 0.0
H2039 H 0.83303 0.0315 0.18919 0.0
H2040 H 0.86221 0.07249 0.18172 0.0
C2041 C 0.81543 0.10341 0.10123 0.0
C2042 C 0.79994 0.10157 0.08765 0.0
C2043 C 0.79229 0.08725 0.09475 0.0
C2044 C 0.79989 0.07499 0.11456 0.0
C2045 C 0.81511 0.07722 0.12747 0.0
C2046 C 0.82279 0.09107 0.1213 0.0
C2047 C 0.83907 0.09048 0.13884 0.0
C2048 C 0.85128 0.0926 0.10493 0.0
C2049 C 0.84111 0.10255 0.1731 0.0
C2050 C 0.83931 0.07411 0.15578 0.0
C2051 C 0.82538 0.06667 0.14873 0.0
C2052 C 0.82286 0.0514 0.16085 0.0
C2053 C 0.83489 0.04351 0.18078 0.0
C2054 C 0.84927 0.0509 0.18882 0.0
C2055 C 0.85143 0.06644 0.17599 0.0
H2056 H 0.82633 0.61021 0.94171 0.0
H2057 H 0.80995 0.6361 0.83599 0.0
H2058 H 0.82792 0.62158 0.79167 0.0
H2059 H 0.86661 0.60731 0.91019 0.0
H2060 H 0.86888 0.5878 0.9291 0.0
H2061 H 0.85524 0.60075 0.95321 0.0
H2062 H 0.83318 0.58083 0.94147 0.0
H2063 H 0.84675 0.56781 0.9175 0.0
H2064 H 0.82951 0.57373 0.89041 0.0
H2065 H 0.8469 0.6037 0.75816 0.0
H2066 H 0.8655 0.58331 0.73777 0.0
H2067 H 0.86915 0.56857 0.86464 0.0
C2068 C 0.82653 0.61283 0.90926 0.0
C2069 C 0.81684 0.62446 0.89251 0.0
C2070 C 0.81749 0.62752 0.84981 0.0
C2071 C 0.82761 0.61927 0.82427 0.0
C2072 C 0.837 0.60794 0.84176 0.0
C2073 C 0.83656 0.60468 0.88323 0.0
C2074 C 0.84758 0.59159 0.89395 0.0
C2075 C 0.86034 0.5972 0.92336 0.0
C2076 C 0.83872 0.57767 0.91188 0.0
C2077 C 0.85413 0.58793 0.85197 0.0
C2078 C 0.84792 0.59754 0.82233 0.0
C2079 C 0.85189 0.59612 0.7811 0.0
C2080 C 0.8624 0.58448 0.76979 0.0
C2081 C 0.86882 0.57438 0.79958 0.0
C2082 C 0.86467 0.57627 0.84124 0.0
H2083 H 0.19012 0.10769 0.61254 0.0
H2084 H 0.16832 0.11495 0.4941 0.0
H2085 H 0.14644 0.09827 0.51536 0.0
H2086 H 0.17915 0.06802 0.62516 0.0
H2087 H 0.17577 0.06975 0.67948 0.0
H2088 H 0.18971 0.08216 0.65476 0.0
H2089 H 0.17533 0.10638 0.68261 0.0
H2090 H 0.16134 0.09403 0.70744 0.0
H2091 H 0.15494 0.10878 0.67208 0.0
H2092 H 0.12691 0.08084 0.54982 0.0
H2093 H 0.11148 0.06353 0.59417 0.0
H2094 H 0.14574 0.06851 0.69083 0.0
C2095 C 0.18069 0.10591 0.59113 0.0
C2096 C 0.18094 0.11266 0.55162 0.0
C2097 C 0.16849 0.10977 0.52433 0.0
C2098 C 0.15596 0.1004 0.53623 0.0
C2099 C 0.15606 0.09403 0.5755 0.0
C2100 C 0.16811 0.09665 0.60251 0.0
C2101 C 0.16547 0.08841 0.6429 0.0
C2102 C 0.17829 0.07637 0.65103 0.0
C2103 C 0.16419 0.1001 0.67835 0.0
C2104 C 0.15006 0.08068 0.63438 0.0
C2105 C 0.1448 0.08409 0.59539 0.0
C2106 C 0.13087 0.07816 0.58049 0.0
C2107 C 0.12214 0.06843 0.60605 0.0
C2108 C 0.12734 0.06471 0.64612 0.0
C2109 C 0.14148 0.07102 0.66031 0.0
H2110 H 0.68508 0.39279 0.43245 0.0
H2111 H 0.65891 0.34996 0.42336 0.0
H2112 H 0.63841 0.36372 0.38468 0.0
H2113 H 0.65187 0.41865 0.44465 0.0
H2114 H 0.66058 0.43382 0.41438 0.0
H2115 H 0.67268 0.42068 0.44304 0.0
H2116 H 0.68748 0.41364 0.37644 0.0
H2117 H 0.67531 0.42661 0.34749 0.0
H2118 H 0.67683 0.40651 0.33279 0.0
H2119 H 0.62117 0.38209 0.34503 0.0
H2120 H 0.60829 0.40375 0.30874 0.0
H2121 H 0.64586 0.43444 0.34421 0.0
C2122 C 0.67489 0.38637 0.42309 0.0
C2123 C 0.67354 0.37032 0.43113 0.0
C2124 C 0.66019 0.36225 0.41741 0.0
C2125 C 0.64849 0.36997 0.39551 0.0
C2126 C 0.65032 0.38574 0.38751 0.0
C2127 C 0.66316 0.39386 0.40106 0.0
C2128 C 0.66257 0.41064 0.38743 0.0
C2129 C 0.66188 0.42159 0.42459 0.0
C2130 C 0.67637 0.41457 0.35937 0.0
C2131 C 0.64744 0.41069 0.36391 0.0
C2132 C 0.64052 0.39624 0.36438 0.0
C2133 C 0.62645 0.39347 0.34461 0.0
C2134 C 0.61922 0.40584 0.32416 0.0
C2135 C 0.62609 0.42077 0.32348 0.0
C2136 C 0.64043 0.42312 0.34357 0.0
H2137 H 0.35498 0.94317 0.14415 0.0
H2138 H 0.36815 0.91854 0.25487 0.0
H2139 H 0.35174 0.8964 0.23389 0.0
H2140 H 0.31539 0.93004 0.14021 0.0
H2141 H 0.31519 0.92844 0.08513 0.0
H2142 H 0.32762 0.94243 0.10961 0.0
H2143 H 0.35144 0.93068 0.07231 0.0
H2144 H 0.33909 0.91663 0.04779 0.0
H2145 H 0.35552 0.91027 0.07756 0.0
H2146 H 0.33442 0.87667 0.19951 0.0
H2147 H 0.31678 0.86128 0.15586 0.0
H2148 H 0.31558 0.89877 0.06709 0.0
C2149 C 0.35448 0.9331 0.16396 0.0
C2150 C 0.36288 0.93257 0.20113 0.0
C2151 C 0.36169 0.91927 0.22648 0.0
C2152 C 0.35248 0.90661 0.21469 0.0
C2153 C 0.34452 0.90746 0.17755 0.0
C2154 C 0.34538 0.9204 0.15268 0.0
C2155 C 0.33579 0.91842 0.1142 0.0
C2156 C 0.32272 0.93055 0.1122 0.0
C2157 C 0.34608 0.91903 0.0757 0.0
C2158 C 0.32941 0.9023 0.12118 0.0
C2159 C 0.3346 0.89615 0.15784 0.0
C2160 C 0.33031 0.88136 0.17072 0.0
C2161 C 0.32038 0.87267 0.14558 0.0
C2162 C 0.31485 0.8788 0.10799 0.0
C2163 C 0.3195 0.89381 0.09578 0.0
H2164 H 0.82251 0.38323 0.5866 0.0
H2165 H 0.78169 0.41209 0.57022 0.0
H2166 H 0.79505 0.43376 0.60482 0.0
H2167 H 0.83246 0.39707 0.68701 0.0
H2168 H 0.85308 0.39641 0.67803 0.0
H2169 H 0.84042 0.38324 0.6513 0.0
H2170 H 0.85126 0.39288 0.5817 0.0
H2171 H 0.864 0.40604 0.60822 0.0
H2172 H 0.85078 0.41331 0.56994 0.0
H2173 H 0.81272 0.45216 0.64191 0.0
H2174 H 0.83383 0.46638 0.67635 0.0
H2175 H 0.86289 0.42528 0.67023 0.0
C2176 C 0.81637 0.3941 0.59037 0.0
C2177 C 0.80108 0.396 0.57553 0.0
C2178 C 0.7935 0.41045 0.58073 0.0
C2179 C 0.80094 0.42279 0.60064 0.0
C2180 C 0.81596 0.42049 0.61513 0.0
C2181 C 0.82363 0.40654 0.6101 0.0
C2182 C 0.83977 0.40712 0.62833 0.0
C2183 C 0.84153 0.39526 0.66325 0.0
C2184 C 0.85218 0.40469 0.59506 0.0
C2185 C 0.83998 0.42358 0.64446 0.0
C2186 C 0.82612 0.43107 0.63664 0.0
C2187 C 0.8236 0.4464 0.64836 0.0
C2188 C 0.83564 0.45434 0.66823 0.0
C2189 C 0.85002 0.44694 0.67623 0.0
C2190 C 0.8521 0.43131 0.66433 0.0
H2191 H 0.30721 0.10263 0.40433 0.0
H2192 H 0.33921 0.12722 0.48364 0.0
H2193 H 0.36114 0.11266 0.45329 0.0
H2194 H 0.32659 0.06549 0.40678 0.0
H2195 H 0.32266 0.06131 0.35366 0.0
H2196 H 0.30956 0.07341 0.38242 0.0
H2197 H 0.31263 0.09519 0.32824 0.0
H2198 H 0.32581 0.08319 0.29943 0.0
H2199 H 0.33175 0.10225 0.31582 0.0
H2200 H 0.37944 0.0952 0.41477 0.0
H2201 H 0.39289 0.07623 0.37096 0.0
H2202 H 0.34897 0.06407 0.31409 0.0
C2203 C 0.31881 0.10478 0.41568 0.0
C2204 C 0.32154 0.11594 0.44655 0.0
C2205 C 0.33691 0.11872 0.45998 0.0
C2206 C 0.34941 0.1105 0.44297 0.0
C2207 C 0.34633 0.09967 0.41234 0.0
C2208 C 0.33141 0.09682 0.39875 0.0
C2209 C 0.33127 0.08483 0.36485 0.0
C2210 C 0.32197 0.0704 0.37771 0.0
C2211 C 0.325 0.09178 0.32472 0.0
C2212 C 0.34844 0.08128 0.36168 0.0
C2213 C 0.35691 0.08994 0.38937 0.0
C2214 C 0.37294 0.08845 0.3927 0.0
C2215 C 0.3805 0.07772 0.36731 0.0
C2216 C 0.37207 0.06867 0.33863 0.0
C2217 C 0.3558 0.07065 0.33578 0.0
H2218 H 0.65281 0.54756 0.1359 0.0
H2219 H 0.64041 0.57245 0.24686 0.0
H2220 H 0.65688 0.59436 0.22525 0.0
H2221 H 0.69265 0.56067 0.13019 0.0
H2222 H 0.69255 0.56236 0.07513 0.0
H2223 H 0.68025 0.54833 0.09997 0.0
H2224 H 0.65622 0.56012 0.0638 0.0
H2225 H 0.66843 0.57418 0.03884 0.0
H2226 H 0.65219 0.58053 0.06931 0.0
H2227 H 0.67388 0.61386 0.19088 0.0
H2228 H 0.69068 0.62967 0.14626 0.0
H2229 H 0.69177 0.59246 0.05673 0.0
C2230 C 0.65354 0.55762 0.15564 0.0
C2231 C 0.64537 0.55823 0.19324 0.0
C2232 C 0.64676 0.57158 0.21831 0.0
C2233 C 0.65601 0.58413 0.20618 0.0
C2234 C 0.66382 0.58317 0.1689 0.0
C2235 C 0.66272 0.57026 0.14401 0.0
C2236 C 0.67212 0.57233 0.10509 0.0
C2237 C 0.68517 0.5602 0.10246 0.0
C2238 C 0.66161 0.57176 0.06702 0.0
C2239 C 0.67857 0.58846 0.1119 0.0
C2240 C 0.67363 0.59448 0.14893 0.0
C2241 C 0.67782 0.60928 0.16181 0.0
C2242 C 0.68728 0.61821 0.13611 0.0
C2243 C 0.69245 0.61234 0.09789 0.0
C2244 C 0.68809 0.59721 0.08587 0.0
H2245 H 0.17416 0.88486 0.93082 0.0
H2246 H 0.21684 0.91154 0.92439 0.0
H2247 H 0.20286 0.93261 0.88919 0.0
H2248 H 0.16032 0.89547 0.83057 0.0
H2249 H 0.14025 0.89631 0.84593 0.0
H2250 H 0.15346 0.88348 0.87207 0.0
H2251 H 0.14627 0.89622 0.94146 0.0
H2252 H 0.13303 0.90908 0.91554 0.0
H2253 H 0.1482 0.91692 0.94739 0.0
H2254 H 0.1844 0.95075 0.85451 0.0
H2255 H 0.16263 0.9648 0.8227 0.0
H2256 H 0.13223 0.92576 0.84789 0.0
C2257 C 0.1806 0.8951 0.92191 0.0
C2258 C 0.1966 0.89657 0.93086 0.0
C2259 C 0.20452 0.91025 0.91884 0.0
C2260 C 0.19672 0.92224 0.89846 0.0
C2261 C 0.181 0.92038 0.89005 0.0
C2262 C 0.17302 0.90716 0.9013 0.0
C2263 C 0.15619 0.90802 0.88804 0.0
C2264 C 0.15233 0.89505 0.85732 0.0
C2265 C 0.14528 0.90753 0.92533 0.0
C2266 C 0.15597 0.9238 0.86764 0.0
C2267 C 0.1704 0.93073 0.86919 0.0
C2268 C 0.17306 0.9454 0.85282 0.0
C2269 C 0.16062 0.95324 0.83447 0.0
C2270 C 0.14569 0.94638 0.83236 0.0
C2271 C 0.14343 0.93141 0.84919 0.0
loop_
_geom_bond_atom_site_label_1
_geom_bond_atom_site_label_2
_geom_bond_distance
_geom_bond_site_symmetry_2
_ccdc_geom_bond_type
Li0 N17 1.990 . S
Li0 O60 1.956 1_554 S
Li0 O61 1.970 . S
Li0 O62 1.961 . S
Li1 N25 1.990 . S
Li1 O60 1.970 . S
Li1 O61 1.956 1_556 S
Li1 O63 1.961 . S
Li2 N47 1.990 . S
Li2 O60 1.961 . S
Li2 O62 1.956 1_556 S
Li2 O63 1.970 . S
Li3 N53 1.990 . S
Li3 O61 1.961 . S
Li3 O62 1.970 . S
Li3 O63 1.956 1_554 S
C4 C6 1.348 . S
C4 C7 1.356 . S
C4 O60 1.325 . S
N5 C8 1.314 . S
N5 C9 1.279 . S
C6 C4 1.348 . S
C6 C8 1.353 . S
C6 H64 0.929 . S
C7 C4 1.356 . S
C7 C9 1.358 . S
C7 H65 0.930 . S
C8 N5 1.314 . S
C8 C6 1.353 . S
C8 H66 0.930 . S
C9 N5 1.279 . S
C9 C7 1.358 . S
C9 H67 0.930 . S
C10 C13 1.348 . S
C10 C14 1.356 . S
C10 O61 1.325 . S
C11 N12 1.279 . S
C11 C14 1.358 . S
C11 H68 0.930 . S
N12 C11 1.279 . S
N12 C15 1.314 . S
C13 C10 1.348 . S
C13 C15 1.353 . S
C13 H69 0.929 . S
C14 C10 1.356 . S
C14 C11 1.358 . S
C14 H70 0.930 . S
C15 N12 1.314 . S
C15 C13 1.353 . S
C15 H71 0.930 . S
C16 N17 1.314 . S
C16 C21 1.353 . S
C16 H22 0.930 . S
N17 Li0 1.990 . S
N17 C16 1.314 . S
N17 C19 1.279 1_554 S
C18 C19 1.358 1_554 S
C18 C20 1.356 . S
C18 H72 0.930 1_554 S
C19 N17 1.279 1_556 S
C19 C18 1.358 1_556 S
C19 H23 0.930 . S
C20 C18 1.356 . S
C20 C21 1.348 . S
C21 C16 1.353 . S
C21 C20 1.348 . S
C21 H73 0.929 . S
H22 C16 0.930 . S
H23 C19 0.930 . S
C24 N25 1.314 . S
C24 C26 1.353 . S
C24 H30 0.930 . S
N25 Li1 1.990 . S
N25 C24 1.314 . S
N25 C28 1.279 1_556 S
C26 C24 1.353 . S
C26 C29 1.348 . S
C26 H74 0.929 . S
C27 C28 1.358 1_556 S
C27 C29 1.356 . S
C27 H75 0.930 1_556 S
C28 N25 1.279 1_554 S
C28 C27 1.358 1_554 S
C28 H31 0.930 . S
C29 C26 1.348 . S
C29 C27 1.356 . S
H30 C24 0.930 . S
H31 C28 0.930 . S
C32 C34 1.348 . S
C32 C35 1.356 . S
C32 O62 1.325 . S
N33 C36 1.314 . S
N33 C37 1.279 . S
C34 C32 1.348 . S
C34 C36 1.353 . S
C34 H76 0.929 . S
C35 C32 1.356 . S
C35 C37 1.358 . S
C35 H77 0.930 1_554 S
C36 N33 1.314 . S
C36 C34 1.353 . S
C36 H78 0.930 . S
C37 N33 1.279 . S
C37 C35 1.358 . S
C37 H79 0.930 1_554 S
C38 C39 1.348 . S
C38 C40 1.356 . S
C38 O63 1.325 . S
C39 C38 1.348 . S
C39 C41 1.353 . S
C39 H80 0.929 . S
C40 C38 1.356 . S
C40 C42 1.358 . S
C40 H81 0.930 1_556 S
C41 C39 1.353 . S
C41 N43 1.314 . S
C41 H82 0.930 . S
C42 C40 1.358 . S
C42 N43 1.279 . S
C42 H83 0.930 1_556 S
N43 C41 1.314 . S
N43 C42 1.279 . S
C44 C46 1.353 . S
C44 N47 1.314 . S
C44 H50 0.930 . S
C45 N47 1.279 . S
C45 C48 1.358 . S
C45 H51 0.930 . S
C46 C44 1.353 . S
C46 C49 1.348 . S
C46 H84 0.929 . S
N47 Li2 1.990 . S
N47 C44 1.314 . S
N47 C45 1.279 . S
C48 C45 1.358 . S
C48 C49 1.356 . S
C48 H85 0.930 . S
C49 C46 1.348 . S
C49 C48 1.356 . S
H50 C44 0.930 . S
H51 C45 0.930 . S
C52 N53 1.314 . S
C52 C54 1.353 . S
C52 H58 0.930 . S
N53 Li3 1.990 . S
N53 C52 1.314 . S
N53 C56 1.279 . S
C54 C52 1.353 . S
C54 C57 1.348 . S
C54 H86 0.929 . S
C55 C56 1.358 . S
C55 C57 1.356 . S
C55 H87 0.930 . S
C56 N53 1.279 . S
C56 C55 1.358 . S
C56 H59 0.930 . S
C57 C54 1.348 . S
C57 C55 1.356 . S
H58 C52 0.930 . S
H59 C56 0.930 . S
O60 Li0 1.956 1_556 S
O60 Li1 1.970 . S
O60 Li2 1.961 . S
O60 C4 1.325 . S
O61 Li0 1.970 . S
O61 Li1 1.956 1_554 S
O61 Li3 1.961 . S
O61 C10 1.325 . S
O62 Li0 1.961 . S
O62 Li2 1.956 1_554 S
O62 Li3 1.970 . S
O62 C32 1.325 . S
O63 Li1 1.961 . S
O63 Li2 1.970 . S
O63 Li3 1.956 1_556 S
O63 C38 1.325 . S
H64 C6 0.929 . S
H65 C7 0.930 . S
H66 C8 0.930 . S
H67 C9 0.930 . S
H68 C11 0.930 . S
H69 C13 0.929 . S
H70 C14 0.930 . S
H71 C15 0.930 . S
H72 C18 0.930 1_556 S
H73 C21 0.929 . S
H74 C26 0.929 . S
H75 C27 0.930 1_554 S
H76 C34 0.929 . S
H77 C35 0.930 1_556 S
H78 C36 0.930 . S
H79 C37 0.930 1_556 S
H80 C39 0.929 . S
H81 C40 0.930 1_554 S
H82 C41 0.930 . S
H83 C42 0.930 1_554 S
H84 C46 0.929 . S
H85 C48 0.930 . S
H86 C54 0.929 . S
H87 C55 0.930 . S
Li88 N105 1.990 . S
Li88 O148 1.956 . S
Li88 O149 1.970 1_565 S
Li88 O150 1.961 . S
Li89 N113 1.990 . S
Li89 O148 1.970 1_545 S
Li89 O149 1.956 . S
Li89 O151 1.961 . S
Li90 N135 1.990 . S
Li90 O148 1.961 . S
Li90 O150 1.956 . S
Li90 O151 1.970 1_565 S
Li91 N141 1.990 . S
Li91 O149 1.961 . S
Li91 O150 1.970 1_545 S
Li91 O151 1.956 . S
C92 C94 1.348 . S
C92 C95 1.356 . S
C92 O148 1.325 . S
N93 C96 1.314 . S
N93 C97 1.279 . S
C94 C92 1.348 . S
C94 C96 1.353 . S
C94 H152 0.929 . S
C95 C92 1.356 . S
C95 C97 1.358 . S
C95 H153 0.930 . S
C96 N93 1.314 . S
C96 C94 1.353 . S
C96 H154 0.930 . S
C97 N93 1.279 . S
C97 C95 1.358 . S
C97 H155 0.930 . S
C98 C101 1.348 . S
C98 C102 1.356 . S
C98 O149 1.325 . S
C99 N100 1.279 . S
C99 C102 1.358 . S
C99 H156 0.930 . S
N100 C99 1.279 . S
N100 C103 1.314 . S
C101 C98 1.348 . S
C101 C103 1.353 . S
C101 H157 0.929 . S
C102 C98 1.356 . S
C102 C99 1.358 . S
C102 H158 0.930 . S
C103 N100 1.314 . S
C103 C101 1.353 . S
C103 H159 0.930 . S
C104 N105 1.314 . S
C104 C109 1.353 . S
C104 H110 0.930 1_565 S
N105 Li88 1.990 . S
N105 C104 1.314 . S
N105 C107 1.279 . S
C106 C107 1.358 . S
C106 C108 1.356 . S
C106 H160 0.930 . S
C107 N105 1.279 . S
C107 C106 1.358 . S
C107 H111 0.930 . S
C108 C106 1.356 . S
C108 C109 1.348 . S
C109 C104 1.353 . S
C109 C108 1.348 . S
C109 H161 0.929 . S
H110 C104 0.930 1_545 S
H111 C107 0.930 . S
C112 N113 1.314 . S
C112 C114 1.353 . S
C112 H118 0.930 1_545 S
N113 Li89 1.990 . S
N113 C112 1.314 . S
N113 C116 1.279 . S
C114 C112 1.353 . S
C114 C117 1.348 . S
C114 H162 0.929 . S
C115 C116 1.358 . S
C115 C117 1.356 . S
C115 H163 0.930 . S
C116 N113 1.279 . S
C116 C115 1.358 . S
C116 H119 0.930 . S
C117 C114 1.348 . S
C117 C115 1.356 . S
H118 C112 0.930 1_565 S
H119 C116 0.930 . S
C120 C122 1.332 1_565 S
C120 C123 1.356 . S
C120 O150 1.325 . S
N121 C124 1.314 . S
N121 C125 1.279 . S
C122 C120 1.332 1_545 S
C122 C124 1.344 1_545 S
C122 H164 0.955 . S
C123 C120 1.356 . S
C123 C125 1.358 . S
C123 H165 0.930 . S
C124 N121 1.314 . S
C124 C122 1.344 1_565 S
C124 H166 0.930 1_565 S
C125 N121 1.279 . S
C125 C123 1.358 . S
C125 H167 0.930 . S
C126 C127 1.340 1_545 S
C126 C128 1.356 . S
C126 O151 1.325 . S
C127 C126 1.340 1_565 S
C127 C129 1.349 1_565 S
C127 H168 0.941 . S
C128 C126 1.356 . S
C128 C130 1.358 . S
C128 H169 0.930 . S
C129 C127 1.349 1_545 S
C129 N131 1.314 . S
C129 H170 0.930 1_545 S
C130 C128 1.358 . S
C130 N131 1.279 . S
C130 H171 0.930 . S
N131 C129 1.314 . S
N131 C130 1.279 . S
C132 C134 1.353 . S
C132 N135 1.314 . S
C132 H138 0.930 . S
C133 N135 1.279 . S
C133 C136 1.358 . S
C133 H139 0.930 . S
C134 C132 1.353 . S
C134 C137 1.348 . S
C134 H172 0.929 . S
N135 Li90 1.990 . S
N135 C132 1.314 . S
N135 C133 1.279 . S
C136 C133 1.358 . S
C136 C137 1.356 . S
C136 H173 0.930 . S
C137 C134 1.348 . S
C137 C136 1.356 . S
H138 C132 0.930 . S
H139 C133 0.930 . S
C140 N141 1.314 . S
C140 C142 1.353 . S
C140 H146 0.930 . S
N141 Li91 1.990 . S
N141 C140 1.314 . S
N141 C144 1.279 . S
C142 C140 1.353 . S
C142 C145 1.348 . S
C142 H174 0.929 . S
C143 C144 1.358 . S
C143 C145 1.356 . S
C143 H175 0.930 . S
C144 N141 1.279 . S
C144 C143 1.358 . S
C144 H147 0.930 . S
C145 C142 1.348 . S
C145 C143 1.356 . S
H146 C140 0.930 . S
H147 C144 0.930 . S
O148 Li88 1.956 . S
O148 Li89 1.970 1_565 S
O148 Li90 1.961 . S
O148 C92 1.325 . S
O149 Li88 1.970 1_545 S
O149 Li89 1.956 . S
O149 Li91 1.961 . S
O149 C98 1.325 . S
O150 Li88 1.961 . S
O150 Li90 1.956 . S
O150 Li91 1.970 1_565 S
O150 C120 1.325 . S
O151 Li89 1.961 . S
O151 Li90 1.970 1_545 S
O151 Li91 1.956 . S
O151 C126 1.325 . S
H152 C94 0.929 . S
H153 C95 0.930 . S
H154 C96 0.930 . S
H155 C97 0.930 . S
H156 C99 0.930 . S
H157 C101 0.929 . S
H158 C102 0.930 . S
H159 C103 0.930 . S
H160 C106 0.930 . S
H161 C109 0.929 . S
H162 C114 0.929 . S
H163 C115 0.930 . S
H164 C122 0.955 . S
H165 C123 0.930 . S
H166 C124 0.930 1_545 S
H167 C125 0.930 . S
H168 C127 0.941 . S
H169 C128 0.930 . S
H170 C129 0.930 1_565 S
H171 C130 0.930 . S
H172 C134 0.929 . S
H173 C136 0.930 . S
H174 C142 0.929 . S
H175 C143 0.930 . S
Li176 N193 1.990 . S
Li176 O236 1.956 . S
Li176 O237 1.970 . S
Li176 O238 1.961 . S
Li177 N201 1.990 . S
Li177 O236 1.970 . S
Li177 O237 1.956 . S
Li177 O239 1.961 . S
Li178 N223 1.990 . S
Li178 O236 1.961 . S
Li178 O238 1.956 . S
Li178 O239 1.970 . S
Li179 N229 1.990 . S
Li179 O237 1.961 . S
Li179 O238 1.970 . S
Li179 O239 1.956 . S
C180 C182 1.348 . S
C180 C183 1.356 . S
C180 O236 1.325 . S
N181 C184 1.314 . S
N181 C185 1.279 . S
C182 C180 1.348 . S
C182 C184 1.353 . S
C182 H240 0.929 . S
C183 C180 1.356 . S
C183 C185 1.358 . S
C183 H241 0.930 . S
C184 N181 1.314 . S
C184 C182 1.353 . S
C184 H242 0.930 . S
C185 N181 1.279 . S
C185 C183 1.358 . S
C185 H243 0.930 . S
C186 C189 1.348 . S
C186 C190 1.356 . S
C186 O237 1.325 . S
C187 N188 1.279 . S
C187 C190 1.358 . S
C187 H244 0.930 . S
N188 C187 1.279 . S
N188 C191 1.314 . S
C189 C186 1.348 . S
C189 C191 1.353 . S
C189 H245 0.929 . S
C190 C186 1.356 . S
C190 C187 1.358 . S
C190 H246 0.930 . S
C191 N188 1.314 . S
C191 C189 1.353 . S
C191 H247 0.930 . S
C192 N193 1.314 . S
C192 C197 1.353 . S
C192 H198 0.930 . S
N193 Li176 1.990 . S
N193 C192 1.314 . S
N193 C195 1.279 . S
C194 C195 1.358 . S
C194 C196 1.356 . S
C194 H248 0.930 . S
C195 N193 1.279 . S
C195 C194 1.358 . S
C195 H199 0.930 . S
C196 C194 1.356 . S
C196 C197 1.348 . S
C197 C192 1.353 . S
C197 C196 1.348 . S
C197 H249 0.929 . S
H198 C192 0.930 . S
H199 C195 0.930 . S
C200 N201 1.314 . S
C200 C202 1.353 . S
C200 H206 0.930 . S
N201 Li177 1.990 . S
N201 C200 1.314 . S
N201 C204 1.279 . S
C202 C200 1.353 . S
C202 C205 1.348 . S
C202 H250 0.929 . S
C203 C204 1.358 . S
C203 C205 1.356 . S
C203 H251 0.930 . S
C204 N201 1.279 . S
C204 C203 1.358 . S
C204 H207 0.930 . S
C205 C202 1.348 . S
C205 C203 1.356 . S
H206 C200 0.930 . S
H207 C204 0.930 . S
C208 C210 1.348 . S
C208 C211 1.356 . S
C208 O238 1.325 . S
N209 C212 1.314 . S
N209 C213 1.279 . S
C210 C208 1.348 . S
C210 C212 1.353 . S
C210 H252 0.929 . S
C211 C208 1.356 . S
C211 C213 1.358 . S
C211 H253 0.930 . S
C212 N209 1.314 . S
C212 C210 1.353 . S
C212 H254 0.930 . S
C213 N209 1.279 . S
C213 C211 1.358 . S
C213 H255 0.930 . S
C214 C215 1.348 . S
C214 C216 1.356 . S
C214 O239 1.325 . S
C215 C214 1.348 . S
C215 C217 1.353 . S
C215 H256 0.929 . S
C216 C214 1.356 . S
C216 C218 1.358 . S
C216 H257 0.930 . S
C217 C215 1.353 . S
C217 N219 1.314 . S
C217 H258 0.930 . S
C218 C216 1.358 . S
C218 N219 1.279 . S
C218 H259 0.930 . S
N219 C217 1.314 . S
N219 C218 1.279 . S
C220 C222 1.353 . S
C220 N223 1.314 . S
C220 H226 0.930 . S
C221 N223 1.279 . S
C221 C224 1.358 . S
C221 H227 0.930 . S
C222 C220 1.353 . S
C222 C225 1.348 . S
C222 H260 0.929 . S
N223 Li178 1.990 . S
N223 C220 1.314 . S
N223 C221 1.279 . S
C224 C221 1.358 . S
C224 C225 1.356 . S
C224 H261 0.930 . S
C225 C222 1.348 . S
C225 C224 1.356 . S
H226 C220 0.930 . S
H227 C221 0.930 . S
C228 N229 1.314 . S
C228 C230 1.353 . S
C228 H234 0.930 . S
N229 Li179 1.990 . S
N229 C228 1.314 . S
N229 C232 1.279 . S
C230 C228 1.353 . S
C230 C233 1.348 . S
C230 H262 0.929 . S
C231 C232 1.358 . S
C231 C233 1.356 . S
C231 H263 0.930 . S
C232 N229 1.279 . S
C232 C231 1.358 . S
C232 H235 0.930 . S
C233 C230 1.348 . S
C233 C231 1.356 . S
H234 C228 0.930 . S
H235 C232 0.930 . S
O236 Li176 1.956 . S
O236 Li177 1.970 . S
O236 Li178 1.961 . S
O236 C180 1.325 . S
O237 Li176 1.970 . S
O237 Li177 1.956 . S
O237 Li179 1.961 . S
O237 C186 1.325 . S
O238 Li176 1.961 . S
O238 Li178 1.956 . S
O238 Li179 1.970 . S
O238 C208 1.325 . S
O239 Li177 1.961 . S
O239 Li178 1.970 . S
O239 Li179 1.956 . S
O239 C214 1.325 . S
H240 C182 0.929 . S
H241 C183 0.930 . S
H242 C184 0.930 . S
H243 C185 0.930 . S
H244 C187 0.930 . S
H245 C189 0.929 . S
H246 C190 0.930 . S
H247 C191 0.930 . S
H248 C194 0.930 . S
H249 C197 0.929 . S
H250 C202 0.929 . S
H251 C203 0.930 . S
H252 C210 0.929 . S
H253 C211 0.930 . S
H254 C212 0.930 . S
H255 C213 0.930 . S
H256 C215 0.929 . S
H257 C216 0.930 . S
H258 C217 0.930 . S
H259 C218 0.930 . S
H260 C222 0.929 . S
H261 C224 0.930 . S
H262 C230 0.929 . S
H263 C231 0.930 . S
Li264 N281 1.990 . S
Li264 O324 1.956 . S
Li264 O325 1.970 1_565 S
Li264 O326 1.961 . S
Li265 N289 1.990 . S
Li265 O324 1.970 1_545 S
Li265 O325 1.956 . S
Li265 O327 1.961 . S
Li266 N311 1.990 . S
Li266 O324 1.961 . S
Li266 O326 1.956 . S
Li266 O327 1.970 1_565 S
Li267 N317 1.990 . S
Li267 O325 1.961 . S
Li267 O326 1.970 1_545 S
Li267 O327 1.956 . S
C268 C270 1.332 1_565 S
C268 C271 1.356 . S
C268 O324 1.325 . S
N269 C272 1.314 . S
N269 C273 1.279 . S
C270 C268 1.332 1_545 S
C270 C272 1.344 1_545 S
C270 H328 0.955 . S
C271 C268 1.356 . S
C271 C273 1.358 . S
C271 H329 0.930 . S
C272 N269 1.314 . S
C272 C270 1.344 1_565 S
C272 H330 0.930 1_565 S
C273 N269 1.279 . S
C273 C271 1.358 . S
C273 H331 0.930 . S
C274 C277 1.340 1_545 S
C274 C278 1.356 . S
C274 O325 1.325 . S
C275 N276 1.279 . S
C275 C278 1.358 . S
C275 H332 0.930 . S
N276 C275 1.279 . S
N276 C279 1.314 . S
C277 C274 1.340 1_565 S
C277 C279 1.349 1_565 S
C277 H333 0.941 . S
C278 C274 1.356 . S
C278 C275 1.358 . S
C278 H334 0.930 . S
C279 N276 1.314 . S
C279 C277 1.349 1_545 S
C279 H335 0.930 1_545 S
C280 N281 1.314 . S
C280 C285 1.353 . S
C280 H286 0.930 . S
N281 Li264 1.990 . S
N281 C280 1.314 . S
N281 C283 1.279 . S
C282 C283 1.358 . S
C282 C284 1.356 . S
C282 H336 0.930 . S
C283 N281 1.279 . S
C283 C282 1.358 . S
C283 H287 0.930 . S
C284 C282 1.356 . S
C284 C285 1.348 . S
C285 C280 1.353 . S
C285 C284 1.348 . S
C285 H337 0.929 . S
H286 C280 0.930 . S
H287 C283 0.930 . S
C288 N289 1.314 . S
C288 C290 1.353 . S
C288 H294 0.930 . S
N289 Li265 1.990 . S
N289 C288 1.314 . S
N289 C292 1.279 . S
C290 C288 1.353 . S
C290 C293 1.348 . S
C290 H338 0.929 . S
C291 C292 1.358 . S
C291 C293 1.356 . S
C291 H339 0.930 . S
C292 N289 1.279 . S
C292 C291 1.358 . S
C292 H295 0.930 . S
C293 C290 1.348 . S
C293 C291 1.356 . S
H294 C288 0.930 . S
H295 C292 0.930 . S
C296 C298 1.348 . S
C296 C299 1.356 . S
C296 O326 1.325 . S
N297 C300 1.314 . S
N297 C301 1.279 . S
C298 C296 1.348 . S
C298 C300 1.353 . S
C298 H340 0.929 . S
C299 C296 1.356 . S
C299 C301 1.358 . S
C299 H341 0.930 . S
C300 N297 1.314 . S
C300 C298 1.353 . S
C300 H342 0.930 . S
C301 N297 1.279 . S
C301 C299 1.358 . S
C301 H343 0.930 . S
C302 C303 1.348 . S
C302 C304 1.356 . S
C302 O327 1.325 . S
C303 C302 1.348 . S
C303 C305 1.353 . S
C303 H344 0.929 . S
C304 C302 1.356 . S
C304 C306 1.358 . S
C304 H345 0.930 . S
C305 C303 1.353 . S
C305 N307 1.314 . S
C305 H346 0.930 . S
C306 C304 1.358 . S
C306 N307 1.279 . S
C306 H347 0.930 . S
N307 C305 1.314 . S
N307 C306 1.279 . S
C308 C310 1.353 . S
C308 N311 1.314 . S
C308 H314 0.930 1_565 S
C309 N311 1.279 . S
C309 C312 1.358 . S
C309 H315 0.930 . S
C310 C308 1.353 . S
C310 C313 1.348 . S
C310 H348 0.929 . S
N311 Li266 1.990 . S
N311 C308 1.314 . S
N311 C309 1.279 . S
C312 C309 1.358 . S
C312 C313 1.356 . S
C312 H349 0.930 . S
C313 C310 1.348 . S
C313 C312 1.356 . S
H314 C308 0.930 1_545 S
H315 C309 0.930 . S
C316 N317 1.314 . S
C316 C318 1.353 . S
C316 H322 0.930 1_545 S
N317 Li267 1.990 . S
N317 C316 1.314 . S
N317 C320 1.279 . S
C318 C316 1.353 . S
C318 C321 1.348 . S
C318 H350 0.929 . S
C319 C320 1.358 . S
C319 C321 1.356 . S
C319 H351 0.930 . S
C320 N317 1.279 . S
C320 C319 1.358 . S
C320 H323 0.930 . S
C321 C318 1.348 . S
C321 C319 1.356 . S
H322 C316 0.930 1_565 S
H323 C320 0.930 . S
O324 Li264 1.956 . S
O324 Li265 1.970 1_565 S
O324 Li266 1.961 . S
O324 C268 1.325 . S
O325 Li264 1.970 1_545 S
O325 Li265 1.956 . S
O325 Li267 1.961 . S
O325 C274 1.325 . S
O326 Li264 1.961 . S
O326 Li266 1.956 . S
O326 Li267 1.970 1_565 S
O326 C296 1.325 . S
O327 Li265 1.961 . S
O327 Li266 1.970 1_545 S
O327 Li267 1.956 . S
O327 C302 1.325 . S
H328 C270 0.955 . S
H329 C271 0.930 . S
H330 C272 0.930 1_545 S
H331 C273 0.930 . S
H332 C275 0.930 . S
H333 C277 0.941 . S
H334 C278 0.930 . S
H335 C279 0.930 1_565 S
H336 C282 0.930 . S
H337 C285 0.929 . S
H338 C290 0.929 . S
H339 C291 0.930 . S
H340 C298 0.929 . S
H341 C299 0.930 . S
H342 C300 0.930 . S
H343 C301 0.930 . S
H344 C303 0.929 . S
H345 C304 0.930 . S
H346 C305 0.930 . S
H347 C306 0.930 . S
H348 C310 0.929 . S
H349 C312 0.930 . S
H350 C318 0.929 . S
H351 C319 0.930 . S
Li352 N369 1.990 . S
Li352 O412 1.956 . S
Li352 O413 1.970 . S
Li352 O414 1.961 1_554 S
Li353 N377 1.990 . S
Li353 O412 1.970 . S
Li353 O413 1.956 . S
Li353 O415 1.961 1_554 S
Li354 N399 1.990 . S
Li354 O412 1.961 1_556 S
Li354 O414 1.956 . S
Li354 O415 1.970 . S
Li355 N405 1.990 . S
Li355 O413 1.961 1_556 S
Li355 O414 1.970 . S
Li355 O415 1.956 . S
C356 C358 1.348 . S
C356 C359 1.356 . S
C356 O412 1.325 . S
N357 C360 1.314 . S
N357 C361 1.279 . S
C358 C356 1.348 . S
C358 C360 1.353 . S
C358 H416 0.929 . S
C359 C356 1.356 . S
C359 C361 1.358 . S
C359 H417 0.930 . S
C360 N357 1.314 . S
C360 C358 1.353 . S
C360 H418 0.930 . S
C361 N357 1.279 . S
C361 C359 1.358 . S
C361 H419 0.930 . S
C362 C365 1.348 . S
C362 C366 1.356 1_554 S
C362 O413 1.325 . S
C363 N364 1.279 . S
C363 C366 1.358 1_554 S
C363 H420 0.930 1_554 S
N364 C363 1.279 . S
N364 C367 1.314 . S
C365 C362 1.348 . S
C365 C367 1.353 . S
C365 H421 0.929 . S
C366 C362 1.356 1_556 S
C366 C363 1.358 1_556 S
C366 H422 0.930 . S
C367 N364 1.314 . S
C367 C365 1.353 . S
C367 H423 0.930 . S
C368 N369 1.314 . S
C368 C373 1.353 . S
C368 H374 0.930 . S
N369 Li352 1.990 . S
N369 C368 1.314 . S
N369 C371 1.279 . S
C370 C371 1.358 . S
C370 C372 1.356 . S
C370 H424 0.930 . S
C371 N369 1.279 . S
C371 C370 1.358 . S
C371 H375 0.930 . S
C372 C370 1.356 . S
C372 C373 1.348 . S
C373 C368 1.353 . S
C373 C372 1.348 . S
C373 H425 0.929 . S
H374 C368 0.930 . S
H375 C371 0.930 . S
C376 N377 1.314 . S
C376 C378 1.353 . S
C376 H382 0.930 1_554 S
N377 Li353 1.990 . S
N377 C376 1.314 . S
N377 C380 1.279 . S
C378 C376 1.353 . S
C378 C381 1.348 . S
C378 H426 0.929 . S
C379 C380 1.358 . S
C379 C381 1.356 . S
C379 H427 0.930 . S
C380 N377 1.279 . S
C380 C379 1.358 . S
C380 H383 0.930 . S
C381 C378 1.348 . S
C381 C379 1.356 . S
H382 C376 0.930 1_556 S
H383 C380 0.930 . S
C384 C386 1.348 . S
C384 C387 1.356 1_556 S
C384 O414 1.325 . S
N385 C388 1.314 . S
N385 C389 1.279 . S
C386 C384 1.348 . S
C386 C388 1.353 . S
C386 H428 0.929 . S
C387 C384 1.356 1_554 S
C387 C389 1.358 1_554 S
C387 H429 0.930 . S
C388 N385 1.314 . S
C388 C386 1.353 . S
C388 H430 0.930 . S
C389 N385 1.279 . S
C389 C387 1.358 1_556 S
C389 H431 0.930 1_556 S
C390 C391 1.348 . S
C390 C392 1.356 . S
C390 O415 1.325 . S
C391 C390 1.348 . S
C391 C393 1.353 . S
C391 H432 0.929 . S
C392 C390 1.356 . S
C392 C394 1.358 . S
C392 H433 0.930 . S
C393 C391 1.353 . S
C393 N395 1.314 . S
C393 H434 0.930 . S
C394 C392 1.358 . S
C394 N395 1.279 . S
C394 H435 0.930 . S
N395 C393 1.314 . S
N395 C394 1.279 . S
C396 C398 1.353 . S
C396 N399 1.314 . S
C396 H402 0.930 1_556 S
C397 N399 1.279 . S
C397 C400 1.358 . S
C397 H403 0.930 . S
C398 C396 1.353 . S
C398 C401 1.348 . S
C398 H436 0.929 . S
N399 Li354 1.990 . S
N399 C396 1.314 . S
N399 C397 1.279 . S
C400 C397 1.358 . S
C400 C401 1.356 . S
C400 H437 0.930 . S
C401 C398 1.348 . S
C401 C400 1.356 . S
H402 C396 0.930 1_554 S
H403 C397 0.930 . S
C404 N405 1.314 . S
C404 C406 1.353 . S
C404 H410 0.930 . S
N405 Li355 1.990 . S
N405 C404 1.314 . S
N405 C408 1.279 . S
C406 C404 1.353 . S
C406 C409 1.348 . S
C406 H438 0.929 . S
C407 C408 1.358 . S
C407 C409 1.356 . S
C407 H439 0.930 . S
C408 N405 1.279 . S
C408 C407 1.358 . S
C408 H411 0.930 . S
C409 C406 1.348 . S
C409 C407 1.356 . S
H410 C404 0.930 . S
H411 C408 0.930 . S
O412 Li352 1.956 . S
O412 Li353 1.970 . S
O412 Li354 1.961 1_554 S
O412 C356 1.325 . S
O413 Li352 1.970 . S
O413 Li353 1.956 . S
O413 Li355 1.961 1_554 S
O413 C362 1.325 . S
O414 Li352 1.961 1_556 S
O414 Li354 1.956 . S
O414 Li355 1.970 . S
O414 C384 1.325 . S
O415 Li353 1.961 1_556 S
O415 Li354 1.970 . S
O415 Li355 1.956 . S
O415 C390 1.325 . S
H416 C358 0.929 . S
H417 C359 0.930 . S
H418 C360 0.930 . S
H419 C361 0.930 . S
H420 C363 0.930 1_556 S
H421 C365 0.929 . S
H422 C366 0.930 . S
H423 C367 0.930 . S
H424 C370 0.930 . S
H425 C373 0.929 . S
H426 C378 0.929 . S
H427 C379 0.930 . S
H428 C386 0.929 . S
H429 C387 0.930 . S
H430 C388 0.930 . S
H431 C389 0.930 1_554 S
H432 C391 0.929 . S
H433 C392 0.930 . S
H434 C393 0.930 . S
H435 C394 0.930 . S
H436 C398 0.929 . S
H437 C400 0.930 . S
H438 C406 0.929 . S
H439 C407 0.930 . S
Li440 N457 1.990 . S
Li440 O500 1.956 . S
Li440 O501 1.970 1_565 S
Li440 O502 1.961 . S
Li441 N465 1.990 . S
Li441 O500 1.970 1_545 S
Li441 O501 1.956 . S
Li441 O503 1.961 . S
Li442 N487 1.990 . S
Li442 O500 1.961 . S
Li442 O502 1.956 . S
Li442 O503 1.970 1_565 S
Li443 N493 1.990 . S
Li443 O501 1.961 . S
Li443 O502 1.970 1_545 S
Li443 O503 1.956 . S
C444 C446 1.348 . S
C444 C447 1.356 . S
C444 O500 1.325 . S
N445 C448 1.314 . S
N445 C449 1.279 . S
C446 C444 1.348 . S
C446 C448 1.353 . S
C446 H504 0.929 . S
C447 C444 1.356 . S
C447 C449 1.358 . S
C447 H505 0.930 . S
C448 N445 1.314 . S
C448 C446 1.353 . S
C448 H506 0.930 . S
C449 N445 1.279 . S
C449 C447 1.358 . S
C449 H507 0.930 . S
C450 C453 1.348 1_545 S
C450 C454 1.356 . S
C450 O501 1.325 . S
C451 N452 1.279 . S
C451 C454 1.358 . S
C451 H508 0.930 . S
N452 C451 1.279 . S
N452 C455 1.378 . S
C453 C450 1.348 1_565 S
C453 C455 1.336 1_565 S
C453 H509 0.929 . S
C454 C450 1.356 . S
C454 C451 1.358 . S
C454 H510 0.930 . S
C455 N452 1.378 . S
C455 C453 1.336 1_545 S
C455 H511 0.881 1_545 S
C456 N457 1.314 . S
C456 C461 1.353 . S
C456 H462 0.930 . S
N457 Li440 1.990 . S
N457 C456 1.314 . S
N457 C459 1.279 . S
C458 C459 1.358 . S
C458 C460 1.356 . S
C458 H512 0.930 . S
C459 N457 1.279 . S
C459 C458 1.358 . S
C459 H463 0.930 . S
C460 C458 1.356 . S
C460 C461 1.348 . S
C461 C456 1.353 . S
C461 C460 1.348 . S
C461 H513 0.929 . S
H462 C456 0.930 . S
H463 C459 0.930 . S
C464 N465 1.314 . S
C464 C466 1.353 . S
C464 H470 0.930 . S
N465 Li441 1.990 . S
N465 C464 1.314 . S
N465 C468 1.279 . S
C466 C464 1.353 . S
C466 C469 1.348 . S
C466 H514 0.929 . S
C467 C468 1.358 . S
C467 C469 1.356 . S
C467 H515 0.930 . S
C468 N465 1.279 . S
C468 C467 1.358 . S
C468 H471 0.930 . S
C469 C466 1.348 . S
C469 C467 1.356 . S
H470 C464 0.930 . S
H471 C468 0.930 . S
C472 C474 1.348 1_565 S
C472 C475 1.356 . S
C472 O502 1.325 . S
N473 C476 1.362 . S
N473 C477 1.279 . S
C474 C472 1.348 1_545 S
C474 C476 1.340 1_545 S
C474 H516 0.929 . S
C475 C472 1.356 . S
C475 C477 1.358 . S
C475 H517 0.930 . S
C476 N473 1.362 . S
C476 C474 1.340 1_565 S
C476 H518 0.893 1_565 S
C477 N473 1.279 . S
C477 C475 1.358 . S
C477 H519 0.930 . S
C478 C479 1.348 . S
C478 C480 1.356 . S
C478 O503 1.325 . S
C479 C478 1.348 . S
C479 C481 1.353 . S
C479 H520 0.929 . S
C480 C478 1.356 . S
C480 C482 1.358 . S
C480 H521 0.930 . S
C481 C479 1.353 . S
C481 N483 1.314 . S
C481 H522 0.930 . S
C482 C480 1.358 . S
C482 N483 1.279 . S
C482 H523 0.930 . S
N483 C481 1.314 . S
N483 C482 1.279 . S
C484 C486 1.353 . S
C484 N487 1.314 . S
C484 H490 0.930 . S
C485 N487 1.279 . S
C485 C488 1.358 . S
C485 H491 0.930 . S
C486 C484 1.353 . S
C486 C489 1.348 . S
C486 H524 0.929 . S
N487 Li442 1.990 . S
N487 C484 1.314 . S
N487 C485 1.279 . S
C488 C485 1.358 . S
C488 C489 1.356 . S
C488 H525 0.930 . S
C489 C486 1.348 . S
C489 C488 1.356 . S
H490 C484 0.930 . S
H491 C485 0.930 . S
C492 N493 1.314 . S
C492 C494 1.353 . S
C492 H498 0.930 . S
N493 Li443 1.990 . S
N493 C492 1.314 . S
N493 C496 1.279 . S
C494 C492 1.353 . S
C494 C497 1.348 . S
C494 H526 0.929 . S
C495 C496 1.358 . S
C495 C497 1.356 . S
C495 H527 0.930 . S
C496 N493 1.279 . S
C496 C495 1.358 . S
C496 H499 0.930 . S
C497 C494 1.348 . S
C497 C495 1.356 . S
H498 C492 0.930 . S
H499 C496 0.930 . S
O500 Li440 1.956 . S
O500 Li441 1.970 1_565 S
O500 Li442 1.961 . S
O500 C444 1.325 . S
O501 Li440 1.970 1_545 S
O501 Li441 1.956 . S
O501 Li443 1.961 . S
O501 C450 1.325 . S
O502 Li440 1.961 . S
O502 Li442 1.956 . S
O502 Li443 1.970 1_565 S
O502 C472 1.325 . S
O503 Li441 1.961 . S
O503 Li442 1.970 1_545 S
O503 Li443 1.956 . S
O503 C478 1.325 . S
H504 C446 0.929 . S
H505 C447 0.930 . S
H506 C448 0.930 . S
H507 C449 0.930 . S
H508 C451 0.930 . S
H509 C453 0.929 . S
H510 C454 0.930 . S
H511 C455 0.881 1_565 S
H512 C458 0.930 . S
H513 C461 0.929 . S
H514 C466 0.929 . S
H515 C467 0.930 . S
H516 C474 0.929 . S
H517 C475 0.930 . S
H518 C476 0.893 1_545 S
H519 C477 0.930 . S
H520 C479 0.929 . S
H521 C480 0.930 . S
H522 C481 0.930 . S
H523 C482 0.930 . S
H524 C486 0.929 . S
H525 C488 0.930 . S
H526 C494 0.929 . S
H527 C495 0.930 . S
Li528 N545 1.990 . S
Li528 O588 1.956 . S
Li528 O589 1.970 . S
Li528 O590 1.961 . S
Li529 N553 1.990 . S
Li529 O588 1.970 . S
Li529 O589 1.956 . S
Li529 O591 1.961 . S
Li530 N575 1.990 . S
Li530 O588 1.961 . S
Li530 O590 1.956 . S
Li530 O591 1.970 . S
Li531 N581 1.990 . S
Li531 O589 1.961 . S
Li531 O590 1.970 . S
Li531 O591 1.956 . S
C532 C534 1.348 . S
C532 C535 1.356 . S
C532 O588 1.325 . S
N533 C536 1.314 . S
N533 C537 1.279 . S
C534 C532 1.348 . S
C534 C536 1.353 . S
C534 H592 0.929 . S
C535 C532 1.356 . S
C535 C537 1.358 . S
C535 H593 0.930 . S
C536 N533 1.314 . S
C536 C534 1.353 . S
C536 H594 0.930 . S
C537 N533 1.279 . S
C537 C535 1.358 . S
C537 H595 0.930 . S
C538 C541 1.348 . S
C538 C542 1.356 . S
C538 O589 1.325 . S
C539 N540 1.279 . S
C539 C542 1.358 . S
C539 H596 0.930 . S
N540 C539 1.279 . S
N540 C543 1.314 . S
C541 C538 1.348 . S
C541 C543 1.353 . S
C541 H597 0.929 . S
C542 C538 1.356 . S
C542 C539 1.358 . S
C542 H598 0.930 . S
C543 N540 1.314 . S
C543 C541 1.353 . S
C543 H599 0.930 . S
C544 N545 1.314 . S
C544 C549 1.353 . S
C544 H550 0.930 . S
N545 Li528 1.990 . S
N545 C544 1.314 . S
N545 C547 1.279 . S
C546 C547 1.358 . S
C546 C548 1.356 . S
C546 H600 0.930 . S
C547 N545 1.279 . S
C547 C546 1.358 . S
C547 H551 0.930 . S
C548 C546 1.356 . S
C548 C549 1.348 . S
C549 C544 1.353 . S
C549 C548 1.348 . S
C549 H601 0.929 . S
H550 C544 0.930 . S
H551 C547 0.930 . S
C552 N553 1.314 . S
C552 C554 1.353 . S
C552 H558 0.930 . S
N553 Li529 1.990 . S
N553 C552 1.314 . S
N553 C556 1.279 . S
C554 C552 1.353 . S
C554 C557 1.348 . S
C554 H602 0.929 . S
C555 C556 1.358 . S
C555 C557 1.356 . S
C555 H603 0.930 . S
C556 N553 1.279 . S
C556 C555 1.358 . S
C556 H559 0.930 . S
C557 C554 1.348 . S
C557 C555 1.356 . S
H558 C552 0.930 . S
H559 C556 0.930 . S
C560 C562 1.348 . S
C560 C563 1.356 . S
C560 O590 1.325 . S
N561 C564 1.314 . S
N561 C565 1.279 . S
C562 C560 1.348 . S
C562 C564 1.353 . S
C562 H604 0.929 . S
C563 C560 1.356 . S
C563 C565 1.358 . S
C563 H605 0.930 . S
C564 N561 1.314 . S
C564 C562 1.353 . S
C564 H606 0.930 . S
C565 N561 1.279 . S
C565 C563 1.358 . S
C565 H607 0.930 . S
C566 C567 1.348 . S
C566 C568 1.356 . S
C566 O591 1.325 . S
C567 C566 1.348 . S
C567 C569 1.353 . S
C567 H608 0.929 . S
C568 C566 1.356 . S
C568 C570 1.358 . S
C568 H609 0.930 . S
C569 C567 1.353 . S
C569 N571 1.314 . S
C569 H610 0.930 . S
C570 C568 1.358 . S
C570 N571 1.279 . S
C570 H611 0.930 . S
N571 C569 1.314 . S
N571 C570 1.279 . S
C572 C574 1.353 . S
C572 N575 1.314 . S
C572 H578 0.930 . S
C573 N575 1.279 . S
C573 C576 1.358 . S
C573 H579 0.930 . S
C574 C572 1.353 . S
C574 C577 1.348 . S
C574 H612 0.929 . S
N575 Li530 1.990 . S
N575 C572 1.314 . S
N575 C573 1.279 . S
C576 C573 1.358 . S
C576 C577 1.356 . S
C576 H613 0.930 . S
C577 C574 1.348 . S
C577 C576 1.356 . S
H578 C572 0.930 . S
H579 C573 0.930 . S
C580 N581 1.314 . S
C580 C582 1.353 . S
C580 H586 0.930 . S
N581 Li531 1.990 . S
N581 C580 1.314 . S
N581 C584 1.279 . S
C582 C580 1.353 . S
C582 C585 1.348 . S
C582 H614 0.929 . S
C583 C584 1.358 . S
C583 C585 1.356 . S
C583 H615 0.930 . S
C584 N581 1.279 . S
C584 C583 1.358 . S
C584 H587 0.930 . S
C585 C582 1.348 . S
C585 C583 1.356 . S
H586 C580 0.930 . S
H587 C584 0.930 . S
O588 Li528 1.956 . S
O588 Li529 1.970 . S
O588 Li530 1.961 . S
O588 C532 1.325 . S
O589 Li528 1.970 . S
O589 Li529 1.956 . S
O589 Li531 1.961 . S
O589 C538 1.325 . S
O590 Li528 1.961 . S
O590 Li530 1.956 . S
O590 Li531 1.970 . S
O590 C560 1.325 . S
O591 Li529 1.961 . S
O591 Li530 1.970 . S
O591 Li531 1.956 . S
O591 C566 1.325 . S
H592 C534 0.929 . S
H593 C535 0.930 . S
H594 C536 0.930 . S
H595 C537 0.930 . S
H596 C539 0.930 . S
H597 C541 0.929 . S
H598 C542 0.930 . S
H599 C543 0.930 . S
H600 C546 0.930 . S
H601 C549 0.929 . S
H602 C554 0.929 . S
H603 C555 0.930 . S
H604 C562 0.929 . S
H605 C563 0.930 . S
H606 C564 0.930 . S
H607 C565 0.930 . S
H608 C567 0.929 . S
H609 C568 0.930 . S
H610 C569 0.930 . S
H611 C570 0.930 . S
H612 C574 0.929 . S
H613 C576 0.930 . S
H614 C582 0.929 . S
H615 C583 0.930 . S
Li616 N633 1.990 . S
Li616 O676 1.956 . S
Li616 O677 1.970 1_545 S
Li616 O678 1.961 . S
Li617 N641 1.990 . S
Li617 O676 1.970 1_565 S
Li617 O677 1.956 . S
Li617 O679 1.961 . S
Li618 N663 1.990 . S
Li618 O676 1.961 . S
Li618 O678 1.956 . S
Li618 O679 1.970 1_545 S
Li619 N669 1.990 . S
Li619 O677 1.961 . S
Li619 O678 1.970 1_565 S
Li619 O679 1.956 . S
C620 C622 1.348 . S
C620 C623 1.356 . S
C620 O676 1.325 . S
N621 C624 1.314 . S
N621 C625 1.279 . S
C622 C620 1.348 . S
C622 C624 1.353 . S
C622 H680 0.929 . S
C623 C620 1.356 . S
C623 C625 1.358 . S
C623 H681 0.930 . S
C624 N621 1.314 . S
C624 C622 1.353 . S
C624 H682 0.930 . S
C625 N621 1.279 . S
C625 C623 1.358 . S
C625 H683 0.930 . S
C626 C629 1.348 1_565 S
C626 C630 1.356 . S
C626 O677 1.325 . S
C627 N628 1.279 . S
C627 C630 1.358 . S
C627 H684 0.930 . S
N628 C627 1.279 . S
N628 C631 1.362 . S
C629 C626 1.348 1_545 S
C629 C631 1.340 1_545 S
C629 H685 0.929 . S
C630 C626 1.356 . S
C630 C627 1.358 . S
C630 H686 0.930 . S
C631 N628 1.362 . S
C631 C629 1.340 1_565 S
C631 H687 0.893 1_565 S
C632 N633 1.314 . S
C632 C637 1.353 . S
C632 H638 0.930 . S
N633 Li616 1.990 . S
N633 C632 1.314 . S
N633 C635 1.279 . S
C634 C635 1.358 . S
C634 C636 1.356 . S
C634 H688 0.930 . S
C635 N633 1.279 . S
C635 C634 1.358 . S
C635 H639 0.930 . S
C636 C634 1.356 . S
C636 C637 1.348 . S
C637 C632 1.353 . S
C637 C636 1.348 . S
C637 H689 0.929 . S
H638 C632 0.930 . S
H639 C635 0.930 . S
C640 N641 1.314 . S
C640 C642 1.353 . S
C640 H646 0.930 . S
N641 Li617 1.990 . S
N641 C640 1.314 . S
N641 C644 1.279 . S
C642 C640 1.353 . S
C642 C645 1.348 . S
C642 H690 0.929 . S
C643 C644 1.358 . S
C643 C645 1.356 . S
C643 H691 0.930 . S
C644 N641 1.279 . S
C644 C643 1.358 . S
C644 H647 0.930 . S
C645 C642 1.348 . S
C645 C643 1.356 . S
H646 C640 0.930 . S
H647 C644 0.930 . S
C648 C650 1.348 1_545 S
C648 C651 1.356 . S
C648 O678 1.325 . S
N649 C652 1.378 . S
N649 C653 1.279 . S
C650 C648 1.348 1_565 S
C650 C652 1.336 1_565 S
C650 H692 0.929 . S
C651 C648 1.356 . S
C651 C653 1.358 . S
C651 H693 0.930 . S
C652 N649 1.378 . S
C652 C650 1.336 1_545 S
C652 H694 0.881 1_545 S
C653 N649 1.279 . S
C653 C651 1.358 . S
C653 H695 0.930 . S
C654 C655 1.348 . S
C654 C656 1.356 . S
C654 O679 1.325 . S
C655 C654 1.348 . S
C655 C657 1.353 . S
C655 H696 0.929 . S
C656 C654 1.356 . S
C656 C658 1.358 . S
C656 H697 0.930 . S
C657 C655 1.353 . S
C657 N659 1.314 . S
C657 H698 0.930 . S
C658 C656 1.358 . S
C658 N659 1.279 . S
C658 H699 0.930 . S
N659 C657 1.314 . S
N659 C658 1.279 . S
C660 C662 1.353 . S
C660 N663 1.314 . S
C660 H666 0.930 . S
C661 N663 1.279 . S
C661 C664 1.358 . S
C661 H667 0.930 . S
C662 C660 1.353 . S
C662 C665 1.348 . S
C662 H700 0.929 . S
N663 Li618 1.990 . S
N663 C660 1.314 . S
N663 C661 1.279 . S
C664 C661 1.358 . S
C664 C665 1.356 . S
C664 H701 0.930 . S
C665 C662 1.348 . S
C665 C664 1.356 . S
H666 C660 0.930 . S
H667 C661 0.930 . S
C668 N669 1.314 . S
C668 C670 1.353 . S
C668 H674 0.930 . S
N669 Li619 1.990 . S
N669 C668 1.314 . S
N669 C672 1.279 . S
C670 C668 1.353 . S
C670 C673 1.348 . S
C670 H702 0.929 . S
C671 C672 1.358 . S
C671 C673 1.356 . S
C671 H703 0.930 . S
C672 N669 1.279 . S
C672 C671 1.358 . S
C672 H675 0.930 . S
C673 C670 1.348 . S
C673 C671 1.356 . S
H674 C668 0.930 . S
H675 C672 0.930 . S
O676 Li616 1.956 . S
O676 Li617 1.970 1_545 S
O676 Li618 1.961 . S
O676 C620 1.325 . S
O677 Li616 1.970 1_565 S
O677 Li617 1.956 . S
O677 Li619 1.961 . S
O677 C626 1.325 . S
O678 Li616 1.961 . S
O678 Li618 1.956 . S
O678 Li619 1.970 1_545 S
O678 C648 1.325 . S
O679 Li617 1.961 . S
O679 Li618 1.970 1_565 S
O679 Li619 1.956 . S
O679 C654 1.325 . S
H680 C622 0.929 . S
H681 C623 0.930 . S
H682 C624 0.930 . S
H683 C625 0.930 . S
H684 C627 0.930 . S
H685 C629 0.929 . S
H686 C630 0.930 . S
H687 C631 0.893 1_545 S
H688 C634 0.930 . S
H689 C637 0.929 . S
H690 C642 0.929 . S
H691 C643 0.930 . S
H692 C650 0.929 . S
H693 C651 0.930 . S
H694 C652 0.881 1_565 S
H695 C653 0.930 . S
H696 C655 0.929 . S
H697 C656 0.930 . S
H698 C657 0.930 . S
H699 C658 0.930 . S
H700 C662 0.929 . S
H701 C664 0.930 . S
H702 C670 0.929 . S
H703 C671 0.930 . S
Li704 N721 1.990 . S
Li704 O764 1.956 . S
Li704 O765 1.970 . S
Li704 O766 1.961 . S
Li705 N729 1.990 . S
Li705 O764 1.970 . S
Li705 O765 1.956 . S
Li705 O767 1.961 . S
Li706 N751 1.990 . S
Li706 O764 1.961 . S
Li706 O766 1.956 . S
Li706 O767 1.970 . S
Li707 N757 1.990 . S
Li707 O765 1.961 . S
Li707 O766 1.970 . S
Li707 O767 1.956 . S
C708 C710 1.348 . S
C708 C711 1.356 . S
C708 O764 1.325 . S
N709 C712 1.314 . S
N709 C713 1.279 . S
C710 C708 1.348 . S
C710 C712 1.353 . S
C710 H768 0.929 . S
C711 C708 1.356 . S
C711 C713 1.358 . S
C711 H769 0.930 . S
C712 N709 1.314 . S
C712 C710 1.353 . S
C712 H770 0.930 . S
C713 N709 1.279 . S
C713 C711 1.358 . S
C713 H771 0.930 . S
C714 C717 1.348 . S
C714 C718 1.356 . S
C714 O765 1.325 . S
C715 N716 1.279 . S
C715 C718 1.358 . S
C715 H772 0.930 . S
N716 C715 1.279 . S
N716 C719 1.314 . S
C717 C714 1.348 . S
C717 C719 1.353 . S
C717 H773 0.929 . S
C718 C714 1.356 . S
C718 C715 1.358 . S
C718 H774 0.930 . S
C719 N716 1.314 . S
C719 C717 1.353 . S
C719 H775 0.930 . S
C720 N721 1.314 . S
C720 C725 1.353 . S
C720 H726 0.930 . S
N721 Li704 1.990 . S
N721 C720 1.314 . S
N721 C723 1.279 . S
C722 C723 1.358 . S
C722 C724 1.356 . S
C722 H776 0.930 . S
C723 N721 1.279 . S
C723 C722 1.358 . S
C723 H727 0.930 . S
C724 C722 1.356 . S
C724 C725 1.348 . S
C725 C720 1.353 . S
C725 C724 1.348 . S
C725 H777 0.929 . S
H726 C720 0.930 . S
H727 C723 0.930 . S
C728 N729 1.314 . S
C728 C730 1.353 . S
C728 H734 0.930 . S
N729 Li705 1.990 . S
N729 C728 1.314 . S
N729 C732 1.279 . S
C730 C728 1.353 . S
C730 C733 1.348 . S
C730 H778 0.929 . S
C731 C732 1.358 . S
C731 C733 1.356 . S
C731 H779 0.930 . S
C732 N729 1.279 . S
C732 C731 1.358 . S
C732 H735 0.930 . S
C733 C730 1.348 . S
C733 C731 1.356 . S
H734 C728 0.930 . S
H735 C732 0.930 . S
C736 C738 1.348 . S
C736 C739 1.356 . S
C736 O766 1.325 . S
N737 C740 1.314 . S
N737 C741 1.279 . S
C738 C736 1.348 . S
C738 C740 1.353 . S
C738 H780 0.929 . S
C739 C736 1.356 . S
C739 C741 1.358 . S
C739 H781 0.930 . S
C740 N737 1.314 . S
C740 C738 1.353 . S
C740 H782 0.930 . S
C741 N737 1.279 . S
C741 C739 1.358 . S
C741 H783 0.930 . S
C742 C743 1.348 . S
C742 C744 1.356 . S
C742 O767 1.325 . S
C743 C742 1.348 . S
C743 C745 1.353 . S
C743 H784 0.929 . S
C744 C742 1.356 . S
C744 C746 1.358 . S
C744 H785 0.930 . S
C745 C743 1.353 . S
C745 N747 1.314 . S
C745 H786 0.930 . S
C746 C744 1.358 . S
C746 N747 1.279 . S
C746 H787 0.930 . S
N747 C745 1.314 . S
N747 C746 1.279 . S
C748 C750 1.353 . S
C748 N751 1.314 . S
C748 H754 0.930 . S
C749 N751 1.279 . S
C749 C752 1.358 . S
C749 H755 0.930 . S
C750 C748 1.353 . S
C750 C753 1.348 . S
C750 H788 0.929 . S
N751 Li706 1.990 . S
N751 C748 1.314 . S
N751 C749 1.279 . S
C752 C749 1.358 . S
C752 C753 1.356 . S
C752 H789 0.930 . S
C753 C750 1.348 . S
C753 C752 1.356 . S
H754 C748 0.930 . S
H755 C749 0.930 . S
C756 N757 1.314 . S
C756 C758 1.353 . S
C756 H762 0.930 . S
N757 Li707 1.990 . S
N757 C756 1.314 . S
N757 C760 1.279 . S
C758 C756 1.353 . S
C758 C761 1.348 . S
C758 H790 0.929 . S
C759 C760 1.358 . S
C759 C761 1.356 . S
C759 H791 0.930 . S
C760 N757 1.279 . S
C760 C759 1.358 . S
C760 H763 0.930 . S
C761 C758 1.348 . S
C761 C759 1.356 . S
H762 C756 0.930 . S
H763 C760 0.930 . S
O764 Li704 1.956 . S
O764 Li705 1.970 . S
O764 Li706 1.961 . S
O764 C708 1.325 . S
O765 Li704 1.970 . S
O765 Li705 1.956 . S
O765 Li707 1.961 . S
O765 C714 1.325 . S
O766 Li704 1.961 . S
O766 Li706 1.956 . S
O766 Li707 1.970 . S
O766 C736 1.325 . S
O767 Li705 1.961 . S
O767 Li706 1.970 . S
O767 Li707 1.956 . S
O767 C742 1.325 . S
H768 C710 0.929 . S
H769 C711 0.930 . S
H770 C712 0.930 . S
H771 C713 0.930 . S
H772 C715 0.930 . S
H773 C717 0.929 . S
H774 C718 0.930 . S
H775 C719 0.930 . S
H776 C722 0.930 . S
H777 C725 0.929 . S
H778 C730 0.929 . S
H779 C731 0.930 . S
H780 C738 0.929 . S
H781 C739 0.930 . S
H782 C740 0.930 . S
H783 C741 0.930 . S
H784 C743 0.929 . S
H785 C744 0.930 . S
H786 C745 0.930 . S
H787 C746 0.930 . S
H788 C750 0.929 . S
H789 C752 0.930 . S
H790 C758 0.929 . S
H791 C759 0.930 . S
Li792 N809 1.990 . S
Li792 O852 1.956 . S
Li792 O853 1.970 . S
Li792 O854 1.961 . S
Li793 N817 1.990 . S
Li793 O852 1.970 . S
Li793 O853 1.956 . S
Li793 O855 1.961 . S
Li794 N839 1.990 . S
Li794 O852 1.961 . S
Li794 O854 1.956 . S
Li794 O855 1.970 . S
Li795 N845 1.990 . S
Li795 O853 1.961 . S
Li795 O854 1.970 . S
Li795 O855 1.956 . S
C796 C798 1.348 . S
C796 C799 1.356 . S
C796 O852 1.325 . S
N797 C800 1.314 . S
N797 C801 1.279 . S
C798 C796 1.348 . S
C798 C800 1.353 . S
C798 H856 0.929 . S
C799 C796 1.356 . S
C799 C801 1.358 . S
C799 H857 0.930 . S
C800 N797 1.314 . S
C800 C798 1.353 . S
C800 H858 0.930 . S
C801 N797 1.279 . S
C801 C799 1.358 . S
C801 H859 0.930 . S
C802 C805 1.348 . S
C802 C806 1.356 . S
C802 O853 1.325 . S
C803 N804 1.279 . S
C803 C806 1.358 . S
C803 H860 0.930 . S
N804 C803 1.279 . S
N804 C807 1.314 . S
C805 C802 1.348 . S
C805 C807 1.353 . S
C805 H861 0.929 . S
C806 C802 1.356 . S
C806 C803 1.358 . S
C806 H862 0.930 . S
C807 N804 1.314 . S
C807 C805 1.353 . S
C807 H863 0.930 . S
C808 N809 1.314 . S
C808 C813 1.353 . S
C808 H814 0.930 . S
N809 Li792 1.990 . S
N809 C808 1.314 . S
N809 C811 1.279 . S
C810 C811 1.358 . S
C810 C812 1.356 . S
C810 H864 0.930 . S
C811 N809 1.279 . S
C811 C810 1.358 . S
C811 H815 0.930 . S
C812 C810 1.356 . S
C812 C813 1.348 . S
C813 C808 1.353 . S
C813 C812 1.348 . S
C813 H865 0.929 . S
H814 C808 0.930 . S
H815 C811 0.930 . S
C816 N817 1.314 . S
C816 C818 1.353 . S
C816 H822 0.930 . S
N817 Li793 1.990 . S
N817 C816 1.314 . S
N817 C820 1.279 . S
C818 C816 1.353 . S
C818 C821 1.348 . S
C818 H866 0.929 . S
C819 C820 1.358 . S
C819 C821 1.356 . S
C819 H867 0.930 . S
C820 N817 1.279 . S
C820 C819 1.358 . S
C820 H823 0.930 . S
C821 C818 1.348 . S
C821 C819 1.356 . S
H822 C816 0.930 . S
H823 C820 0.930 . S
C824 C826 1.348 . S
C824 C827 1.356 . S
C824 O854 1.325 . S
N825 C828 1.314 . S
N825 C829 1.279 . S
C826 C824 1.348 . S
C826 C828 1.353 . S
C826 H868 0.929 . S
C827 C824 1.356 . S
C827 C829 1.358 . S
C827 H869 0.930 . S
C828 N825 1.314 . S
C828 C826 1.353 . S
C828 H870 0.930 . S
C829 N825 1.279 . S
C829 C827 1.358 . S
C829 H871 0.930 . S
C830 C831 1.348 . S
C830 C832 1.356 . S
C830 O855 1.325 . S
C831 C830 1.348 . S
C831 C833 1.353 . S
C831 H872 0.929 . S
C832 C830 1.356 . S
C832 C834 1.358 . S
C832 H873 0.930 . S
C833 C831 1.353 . S
C833 N835 1.314 . S
C833 H874 0.930 . S
C834 C832 1.358 . S
C834 N835 1.279 . S
C834 H875 0.930 . S
N835 C833 1.314 . S
N835 C834 1.279 . S
C836 C838 1.353 . S
C836 N839 1.314 . S
C836 H842 0.930 . S
C837 N839 1.279 . S
C837 C840 1.358 . S
C837 H843 0.930 . S
C838 C836 1.353 . S
C838 C841 1.348 . S
C838 H876 0.929 . S
N839 Li794 1.990 . S
N839 C836 1.314 . S
N839 C837 1.279 . S
C840 C837 1.358 . S
C840 C841 1.356 . S
C840 H877 0.930 . S
C841 C838 1.348 . S
C841 C840 1.356 . S
H842 C836 0.930 . S
H843 C837 0.930 . S
C844 N845 1.314 . S
C844 C846 1.353 . S
C844 H850 0.930 . S
N845 Li795 1.990 . S
N845 C844 1.314 . S
N845 C848 1.279 . S
C846 C844 1.353 . S
C846 C849 1.348 . S
C846 H878 0.929 . S
C847 C848 1.358 . S
C847 C849 1.356 . S
C847 H879 0.930 . S
C848 N845 1.279 . S
C848 C847 1.358 . S
C848 H851 0.930 . S
C849 C846 1.348 . S
C849 C847 1.356 . S
H850 C844 0.930 . S
H851 C848 0.930 . S
O852 Li792 1.956 . S
O852 Li793 1.970 . S
O852 Li794 1.961 . S
O852 C796 1.325 . S
O853 Li792 1.970 . S
O853 Li793 1.956 . S
O853 Li795 1.961 . S
O853 C802 1.325 . S
O854 Li792 1.961 . S
O854 Li794 1.956 . S
O854 Li795 1.970 . S
O854 C824 1.325 . S
O855 Li793 1.961 . S
O855 Li794 1.970 . S
O855 Li795 1.956 . S
O855 C830 1.325 . S
H856 C798 0.929 . S
H857 C799 0.930 . S
H858 C800 0.930 . S
H859 C801 0.930 . S
H860 C803 0.930 . S
H861 C805 0.929 . S
H862 C806 0.930 . S
H863 C807 0.930 . S
H864 C810 0.930 . S
H865 C813 0.929 . S
H866 C818 0.929 . S
H867 C819 0.930 . S
H868 C826 0.929 . S
H869 C827 0.930 . S
H870 C828 0.930 . S
H871 C829 0.930 . S
H872 C831 0.929 . S
H873 C832 0.930 . S
H874 C833 0.930 . S
H875 C834 0.930 . S
H876 C838 0.929 . S
H877 C840 0.930 . S
H878 C846 0.929 . S
H879 C847 0.930 . S
Li880 N897 1.990 . S
Li880 O940 1.956 1_556 S
Li880 O941 1.970 . S
Li880 O942 1.961 . S
Li881 N905 1.990 . S
Li881 O940 1.970 . S
Li881 O941 1.956 1_554 S
Li881 O943 1.961 . S
Li882 N927 1.990 . S
Li882 O940 1.961 . S
Li882 O942 1.956 1_554 S
Li882 O943 1.970 . S
Li883 N933 1.990 . S
Li883 O941 1.961 . S
Li883 O942 1.970 . S
Li883 O943 1.956 1_556 S
C884 C886 1.348 . S
C884 C887 1.356 . S
C884 O940 1.325 . S
N885 C888 1.314 . S
N885 C889 1.279 . S
C886 C884 1.348 . S
C886 C888 1.353 . S
C886 H944 0.929 . S
C887 C884 1.356 . S
C887 C889 1.358 . S
C887 H945 0.930 1_554 S
C888 N885 1.314 . S
C888 C886 1.353 . S
C888 H946 0.930 . S
C889 N885 1.279 . S
C889 C887 1.358 . S
C889 H947 0.930 1_554 S
C890 C893 1.348 . S
C890 C894 1.356 . S
C890 O941 1.325 . S
C891 N892 1.279 . S
C891 C894 1.358 . S
C891 H948 0.930 1_556 S
N892 C891 1.279 . S
N892 C895 1.314 . S
C893 C890 1.348 . S
C893 C895 1.353 . S
C893 H949 0.929 . S
C894 C890 1.356 . S
C894 C891 1.358 . S
C894 H950 0.930 1_556 S
C895 N892 1.314 . S
C895 C893 1.353 . S
C895 H951 0.930 . S
C896 N897 1.314 . S
C896 C901 1.353 . S
C896 H902 0.930 . S
N897 Li880 1.990 . S
N897 C896 1.314 . S
N897 C899 1.279 . S
C898 C899 1.358 . S
C898 C900 1.356 . S
C898 H952 0.930 . S
C899 N897 1.279 . S
C899 C898 1.358 . S
C899 H903 0.930 . S
C900 C898 1.356 . S
C900 C901 1.348 . S
C901 C896 1.353 . S
C901 C900 1.348 . S
C901 H953 0.929 . S
H902 C896 0.930 . S
H903 C899 0.930 . S
C904 N905 1.314 . S
C904 C906 1.353 . S
C904 H910 0.930 . S
N905 Li881 1.990 . S
N905 C904 1.314 . S
N905 C908 1.279 . S
C906 C904 1.353 . S
C906 C909 1.348 . S
C906 H954 0.929 . S
C907 C908 1.358 . S
C907 C909 1.356 . S
C907 H955 0.930 . S
C908 N905 1.279 . S
C908 C907 1.358 . S
C908 H911 0.930 . S
C909 C906 1.348 . S
C909 C907 1.356 . S
H910 C904 0.930 . S
H911 C908 0.930 . S
C912 C914 1.348 . S
C912 C915 1.356 . S
C912 O942 1.325 . S
N913 C916 1.314 . S
N913 C917 1.279 . S
C914 C912 1.348 . S
C914 C916 1.353 . S
C914 H956 0.929 . S
C915 C912 1.356 . S
C915 C917 1.358 . S
C915 H957 0.930 . S
C916 N913 1.314 . S
C916 C914 1.353 . S
C916 H958 0.930 . S
C917 N913 1.279 . S
C917 C915 1.358 . S
C917 H959 0.930 . S
C918 C919 1.348 . S
C918 C920 1.356 . S
C918 O943 1.325 . S
C919 C918 1.348 . S
C919 C921 1.353 . S
C919 H960 0.929 . S
C920 C918 1.356 . S
C920 C922 1.358 . S
C920 H961 0.930 . S
C921 C919 1.353 . S
C921 N923 1.314 . S
C921 H962 0.930 . S
C922 C920 1.358 . S
C922 N923 1.279 . S
C922 H963 0.930 . S
N923 C921 1.314 . S
N923 C922 1.279 . S
C924 C926 1.353 . S
C924 N927 1.314 . S
C924 H930 0.930 . S
C925 N927 1.279 1_556 S
C925 C928 1.358 1_556 S
C925 H931 0.930 . S
C926 C924 1.353 . S
C926 C929 1.348 . S
C926 H964 0.929 . S
N927 Li882 1.990 . S
N927 C924 1.314 . S
N927 C925 1.279 1_554 S
C928 C925 1.358 1_554 S
C928 C929 1.356 . S
C928 H965 0.930 1_554 S
C929 C926 1.348 . S
C929 C928 1.356 . S
H930 C924 0.930 . S
H931 C925 0.930 . S
C932 N933 1.314 . S
C932 C934 1.353 . S
C932 H938 0.930 . S
N933 Li883 1.990 . S
N933 C932 1.314 . S
N933 C936 1.279 1_556 S
C934 C932 1.353 . S
C934 C937 1.348 . S
C934 H966 0.929 . S
C935 C936 1.358 1_556 S
C935 C937 1.356 . S
C935 H967 0.930 1_556 S
C936 N933 1.279 1_554 S
C936 C935 1.358 1_554 S
C936 H939 0.930 . S
C937 C934 1.348 . S
C937 C935 1.356 . S
H938 C932 0.930 . S
H939 C936 0.930 . S
O940 Li880 1.956 1_554 S
O940 Li881 1.970 . S
O940 Li882 1.961 . S
O940 C884 1.325 . S
O941 Li880 1.970 . S
O941 Li881 1.956 1_556 S
O941 Li883 1.961 . S
O941 C890 1.325 . S
O942 Li880 1.961 . S
O942 Li882 1.956 1_556 S
O942 Li883 1.970 . S
O942 C912 1.325 . S
O943 Li881 1.961 . S
O943 Li882 1.970 . S
O943 Li883 1.956 1_554 S
O943 C918 1.325 . S
H944 C886 0.929 . S
H945 C887 0.930 1_556 S
H946 C888 0.930 . S
H947 C889 0.930 1_556 S
H948 C891 0.930 1_554 S
H949 C893 0.929 . S
H950 C894 0.930 1_554 S
H951 C895 0.930 . S
H952 C898 0.930 . S
H953 C901 0.929 . S
H954 C906 0.929 . S
H955 C907 0.930 . S
H956 C914 0.929 . S
H957 C915 0.930 . S
H958 C916 0.930 . S
H959 C917 0.930 . S
H960 C919 0.929 . S
H961 C920 0.930 . S
H962 C921 0.930 . S
H963 C922 0.930 . S
H964 C926 0.929 . S
H965 C928 0.930 1_556 S
H966 C934 0.929 . S
H967 C935 0.930 1_554 S
Li968 N985 1.990 . S
Li968 O1028 1.956 . S
Li968 O1029 1.970 . S
Li968 O1030 1.961 . S
Li969 N993 1.990 . S
Li969 O1028 1.970 . S
Li969 O1029 1.956 . S
Li969 O1031 1.961 . S
Li970 N1015 1.990 . S
Li970 O1028 1.961 . S
Li970 O1030 1.956 . S
Li970 O1031 1.970 . S
Li971 N1021 1.990 . S
Li971 O1029 1.961 . S
Li971 O1030 1.970 . S
Li971 O1031 1.956 . S
C972 C974 1.348 . S
C972 C975 1.356 . S
C972 O1028 1.325 . S
N973 C976 1.314 . S
N973 C977 1.279 . S
C974 C972 1.348 . S
C974 C976 1.353 . S
C974 H1032 0.929 . S
C975 C972 1.356 . S
C975 C977 1.358 . S
C975 H1033 0.930 . S
C976 N973 1.314 . S
C976 C974 1.353 . S
C976 H1034 0.930 . S
C977 N973 1.279 . S
C977 C975 1.358 . S
C977 H1035 0.930 . S
C978 C981 1.348 . S
C978 C982 1.356 . S
C978 O1029 1.325 . S
C979 N980 1.279 . S
C979 C982 1.358 . S
C979 H1036 0.930 . S
N980 C979 1.279 . S
N980 C983 1.314 . S
C981 C978 1.348 . S
C981 C983 1.353 . S
C981 H1037 0.929 . S
C982 C978 1.356 . S
C982 C979 1.358 . S
C982 H1038 0.930 . S
C983 N980 1.314 . S
C983 C981 1.353 . S
C983 H1039 0.930 . S
C984 N985 1.314 . S
C984 C989 1.353 . S
C984 H990 0.930 . S
N985 Li968 1.990 . S
N985 C984 1.314 . S
N985 C987 1.279 . S
C986 C987 1.358 . S
C986 C988 1.356 . S
C986 H1040 0.930 . S
C987 N985 1.279 . S
C987 C986 1.358 . S
C987 H991 0.930 . S
C988 C986 1.356 . S
C988 C989 1.348 . S
C989 C984 1.353 . S
C989 C988 1.348 . S
C989 H1041 0.929 . S
H990 C984 0.930 . S
H991 C987 0.930 . S
C992 N993 1.314 . S
C992 C994 1.353 . S
C992 H998 0.930 . S
N993 Li969 1.990 . S
N993 C992 1.314 . S
N993 C996 1.279 . S
C994 C992 1.353 . S
C994 C997 1.348 . S
C994 H1042 0.929 . S
C995 C996 1.358 . S
C995 C997 1.356 . S
C995 H1043 0.930 . S
C996 N993 1.279 . S
C996 C995 1.358 . S
C996 H999 0.930 . S
C997 C994 1.348 . S
C997 C995 1.356 . S
H998 C992 0.930 . S
H999 C996 0.930 . S
C1000 C1002 1.348 . S
C1000 C1003 1.356 . S
C1000 O1030 1.325 . S
N1001 C1004 1.314 . S
N1001 C1005 1.279 . S
C1002 C1000 1.348 . S
C1002 C1004 1.353 . S
C1002 H1044 0.929 . S
C1003 C1000 1.356 . S
C1003 C1005 1.358 . S
C1003 H1045 0.930 . S
C1004 N1001 1.314 . S
C1004 C1002 1.353 . S
C1004 H1046 0.930 . S
C1005 N1001 1.279 . S
C1005 C1003 1.358 . S
C1005 H1047 0.930 . S
C1006 C1007 1.348 . S
C1006 C1008 1.356 . S
C1006 O1031 1.325 . S
C1007 C1006 1.348 . S
C1007 C1009 1.353 . S
C1007 H1048 0.929 . S
C1008 C1006 1.356 . S
C1008 C1010 1.358 . S
C1008 H1049 0.930 . S
C1009 C1007 1.353 . S
C1009 N1011 1.314 . S
C1009 H1050 0.930 . S
C1010 C1008 1.358 . S
C1010 N1011 1.279 . S
C1010 H1051 0.930 . S
N1011 C1009 1.314 . S
N1011 C1010 1.279 . S
C1012 C1014 1.353 . S
C1012 N1015 1.314 . S
C1012 H1018 0.930 . S
C1013 N1015 1.279 . S
C1013 C1016 1.358 . S
C1013 H1019 0.930 . S
C1014 C1012 1.353 . S
C1014 C1017 1.348 . S
C1014 H1052 0.929 . S
N1015 Li970 1.990 . S
N1015 C1012 1.314 . S
N1015 C1013 1.279 . S
C1016 C1013 1.358 . S
C1016 C1017 1.356 . S
C1016 H1053 0.930 . S
C1017 C1014 1.348 . S
C1017 C1016 1.356 . S
H1018 C1012 0.930 . S
H1019 C1013 0.930 . S
C1020 N1021 1.314 . S
C1020 C1022 1.353 . S
C1020 H1026 0.930 . S
N1021 Li971 1.990 . S
N1021 C1020 1.314 . S
N1021 C1024 1.279 . S
C1022 C1020 1.353 . S
C1022 C1025 1.348 . S
C1022 H1054 0.929 . S
C1023 C1024 1.358 . S
C1023 C1025 1.356 . S
C1023 H1055 0.930 . S
C1024 N1021 1.279 . S
C1024 C1023 1.358 . S
C1024 H1027 0.930 . S
C1025 C1022 1.348 . S
C1025 C1023 1.356 . S
H1026 C1020 0.930 . S
H1027 C1024 0.930 . S
O1028 Li968 1.956 . S
O1028 Li969 1.970 . S
O1028 Li970 1.961 . S
O1028 C972 1.325 . S
O1029 Li968 1.970 . S
O1029 Li969 1.956 . S
O1029 Li971 1.961 . S
O1029 C978 1.325 . S
O1030 Li968 1.961 . S
O1030 Li970 1.956 . S
O1030 Li971 1.970 . S
O1030 C1000 1.325 . S
O1031 Li969 1.961 . S
O1031 Li970 1.970 . S
O1031 Li971 1.956 . S
O1031 C1006 1.325 . S
H1032 C974 0.929 . S
H1033 C975 0.930 . S
H1034 C976 0.930 . S
H1035 C977 0.930 . S
H1036 C979 0.930 . S
H1037 C981 0.929 . S
H1038 C982 0.930 . S
H1039 C983 0.930 . S
H1040 C986 0.930 . S
H1041 C989 0.929 . S
H1042 C994 0.929 . S
H1043 C995 0.930 . S
H1044 C1002 0.929 . S
H1045 C1003 0.930 . S
H1046 C1004 0.930 . S
H1047 C1005 0.930 . S
H1048 C1007 0.929 . S
H1049 C1008 0.930 . S
H1050 C1009 0.930 . S
H1051 C1010 0.930 . S
H1052 C1014 0.929 . S
H1053 C1016 0.930 . S
H1054 C1022 0.929 . S
H1055 C1023 0.930 . S
Li1056 N1073 1.990 . S
Li1056 O1116 1.956 . S
Li1056 O1117 1.970 . S
Li1056 O1118 1.961 . S
Li1057 N1081 1.990 . S
Li1057 O1116 1.970 . S
Li1057 O1117 1.956 . S
Li1057 O1119 1.961 . S
Li1058 N1103 1.990 . S
Li1058 O1116 1.961 . S
Li1058 O1118 1.956 . S
Li1058 O1119 1.970 . S
Li1059 N1109 1.990 . S
Li1059 O1117 1.961 . S
Li1059 O1118 1.970 . S
Li1059 O1119 1.956 . S
C1060 C1062 1.348 . S
C1060 C1063 1.356 . S
C1060 O1116 1.325 . S
N1061 C1064 1.314 . S
N1061 C1065 1.279 . S
C1062 C1060 1.348 . S
C1062 C1064 1.353 . S
C1062 H1120 0.929 . S
C1063 C1060 1.356 . S
C1063 C1065 1.358 . S
C1063 H1121 0.930 . S
C1064 N1061 1.314 . S
C1064 C1062 1.353 . S
C1064 H1122 0.930 . S
C1065 N1061 1.279 . S
C1065 C1063 1.358 . S
C1065 H1123 0.930 . S
C1066 C1069 1.348 . S
C1066 C1070 1.356 . S
C1066 O1117 1.325 . S
C1067 N1068 1.279 . S
C1067 C1070 1.358 . S
C1067 H1124 0.930 . S
N1068 C1067 1.279 . S
N1068 C1071 1.314 . S
C1069 C1066 1.348 . S
C1069 C1071 1.353 . S
C1069 H1125 0.929 . S
C1070 C1066 1.356 . S
C1070 C1067 1.358 . S
C1070 H1126 0.930 . S
C1071 N1068 1.314 . S
C1071 C1069 1.353 . S
C1071 H1127 0.930 . S
C1072 N1073 1.314 . S
C1072 C1077 1.353 . S
C1072 H1078 0.930 . S
N1073 Li1056 1.990 . S
N1073 C1072 1.314 . S
N1073 C1075 1.279 . S
C1074 C1075 1.358 . S
C1074 C1076 1.356 . S
C1074 H1128 0.930 . S
C1075 N1073 1.279 . S
C1075 C1074 1.358 . S
C1075 H1079 0.930 . S
C1076 C1074 1.356 . S
C1076 C1077 1.348 . S
C1077 C1072 1.353 . S
C1077 C1076 1.348 . S
C1077 H1129 0.929 . S
H1078 C1072 0.930 . S
H1079 C1075 0.930 . S
C1080 N1081 1.314 . S
C1080 C1082 1.353 . S
C1080 H1086 0.930 . S
N1081 Li1057 1.990 . S
N1081 C1080 1.314 . S
N1081 C1084 1.279 . S
C1082 C1080 1.353 . S
C1082 C1085 1.348 . S
C1082 H1130 0.929 . S
C1083 C1084 1.358 . S
C1083 C1085 1.356 . S
C1083 H1131 0.930 . S
C1084 N1081 1.279 . S
C1084 C1083 1.358 . S
C1084 H1087 0.930 . S
C1085 C1082 1.348 . S
C1085 C1083 1.356 . S
H1086 C1080 0.930 . S
H1087 C1084 0.930 . S
C1088 C1090 1.348 . S
C1088 C1091 1.356 . S
C1088 O1118 1.325 . S
N1089 C1092 1.314 . S
N1089 C1093 1.279 . S
C1090 C1088 1.348 . S
C1090 C1092 1.353 . S
C1090 H1132 0.929 . S
C1091 C1088 1.356 . S
C1091 C1093 1.358 . S
C1091 H1133 0.930 . S
C1092 N1089 1.314 . S
C1092 C1090 1.353 . S
C1092 H1134 0.930 . S
C1093 N1089 1.279 . S
C1093 C1091 1.358 . S
C1093 H1135 0.930 . S
C1094 C1095 1.348 . S
C1094 C1096 1.356 . S
C1094 O1119 1.325 . S
C1095 C1094 1.348 . S
C1095 C1097 1.353 . S
C1095 H1136 0.929 . S
C1096 C1094 1.356 . S
C1096 C1098 1.358 . S
C1096 H1137 0.930 . S
C1097 C1095 1.353 . S
C1097 N1099 1.314 . S
C1097 H1138 0.930 . S
C1098 C1096 1.358 . S
C1098 N1099 1.279 . S
C1098 H1139 0.930 . S
N1099 C1097 1.314 . S
N1099 C1098 1.279 . S
C1100 C1102 1.353 . S
C1100 N1103 1.314 . S
C1100 H1106 0.930 . S
C1101 N1103 1.279 . S
C1101 C1104 1.358 . S
C1101 H1107 0.930 . S
C1102 C1100 1.353 . S
C1102 C1105 1.348 . S
C1102 H1140 0.929 . S
N1103 Li1058 1.990 . S
N1103 C1100 1.314 . S
N1103 C1101 1.279 . S
C1104 C1101 1.358 . S
C1104 C1105 1.356 . S
C1104 H1141 0.930 . S
C1105 C1102 1.348 . S
C1105 C1104 1.356 . S
H1106 C1100 0.930 . S
H1107 C1101 0.930 . S
C1108 N1109 1.314 . S
C1108 C1110 1.353 . S
C1108 H1114 0.930 . S
N1109 Li1059 1.990 . S
N1109 C1108 1.314 . S
N1109 C1112 1.279 . S
C1110 C1108 1.353 . S
C1110 C1113 1.348 . S
C1110 H1142 0.929 . S
C1111 C1112 1.358 . S
C1111 C1113 1.356 . S
C1111 H1143 0.930 . S
C1112 N1109 1.279 . S
C1112 C1111 1.358 . S
C1112 H1115 0.930 . S
C1113 C1110 1.348 . S
C1113 C1111 1.356 . S
H1114 C1108 0.930 . S
H1115 C1112 0.930 . S
O1116 Li1056 1.956 . S
O1116 Li1057 1.970 . S
O1116 Li1058 1.961 . S
O1116 C1060 1.325 . S
O1117 Li1056 1.970 . S
O1117 Li1057 1.956 . S
O1117 Li1059 1.961 . S
O1117 C1066 1.325 . S
O1118 Li1056 1.961 . S
O1118 Li1058 1.956 . S
O1118 Li1059 1.970 . S
O1118 C1088 1.325 . S
O1119 Li1057 1.961 . S
O1119 Li1058 1.970 . S
O1119 Li1059 1.956 . S
O1119 C1094 1.325 . S
H1120 C1062 0.929 . S
H1121 C1063 0.930 . S
H1122 C1064 0.930 . S
H1123 C1065 0.930 . S
H1124 C1067 0.930 . S
H1125 C1069 0.929 . S
H1126 C1070 0.930 . S
H1127 C1071 0.930 . S
H1128 C1074 0.930 . S
H1129 C1077 0.929 . S
H1130 C1082 0.929 . S
H1131 C1083 0.930 . S
H1132 C1090 0.929 . S
H1133 C1091 0.930 . S
H1134 C1092 0.930 . S
H1135 C1093 0.930 . S
H1136 C1095 0.929 . S
H1137 C1096 0.930 . S
H1138 C1097 0.930 . S
H1139 C1098 0.930 . S
H1140 C1102 0.929 . S
H1141 C1104 0.930 . S
H1142 C1110 0.929 . S
H1143 C1111 0.930 . S
Li1144 N1161 1.990 . S
Li1144 O1204 1.956 . S
Li1144 O1205 1.970 . S
Li1144 O1206 1.961 . S
Li1145 N1169 1.990 . S
Li1145 O1204 1.970 . S
Li1145 O1205 1.956 . S
Li1145 O1207 1.961 . S
Li1146 N1191 1.990 . S
Li1146 O1204 1.961 . S
Li1146 O1206 1.956 . S
Li1146 O1207 1.970 . S
Li1147 N1197 1.990 . S
Li1147 O1205 1.961 . S
Li1147 O1206 1.970 . S
Li1147 O1207 1.956 . S
C1148 C1150 1.348 . S
C1148 C1151 1.356 . S
C1148 O1204 1.325 . S
N1149 C1152 1.314 . S
N1149 C1153 1.279 . S
C1150 C1148 1.348 . S
C1150 C1152 1.353 . S
C1150 H1208 0.929 . S
C1151 C1148 1.356 . S
C1151 C1153 1.358 . S
C1151 H1209 0.930 . S
C1152 N1149 1.314 . S
C1152 C1150 1.353 . S
C1152 H1210 0.930 . S
C1153 N1149 1.279 . S
C1153 C1151 1.358 . S
C1153 H1211 0.930 . S
C1154 C1157 1.348 . S
C1154 C1158 1.356 . S
C1154 O1205 1.325 . S
C1155 N1156 1.279 . S
C1155 C1158 1.358 . S
C1155 H1212 0.930 . S
N1156 C1155 1.279 . S
N1156 C1159 1.314 . S
C1157 C1154 1.348 . S
C1157 C1159 1.353 . S
C1157 H1213 0.929 . S
C1158 C1154 1.356 . S
C1158 C1155 1.358 . S
C1158 H1214 0.930 . S
C1159 N1156 1.314 . S
C1159 C1157 1.353 . S
C1159 H1215 0.930 . S
C1160 N1161 1.314 . S
C1160 C1165 1.353 . S
C1160 H1166 0.930 . S
N1161 Li1144 1.990 . S
N1161 C1160 1.314 . S
N1161 C1163 1.279 . S
C1162 C1163 1.358 . S
C1162 C1164 1.356 . S
C1162 H1216 0.930 . S
C1163 N1161 1.279 . S
C1163 C1162 1.358 . S
C1163 H1167 0.930 . S
C1164 C1162 1.356 . S
C1164 C1165 1.348 . S
C1165 C1160 1.353 . S
C1165 C1164 1.348 . S
C1165 H1217 0.929 . S
H1166 C1160 0.930 . S
H1167 C1163 0.930 . S
C1168 N1169 1.314 . S
C1168 C1170 1.353 . S
C1168 H1174 0.930 . S
N1169 Li1145 1.990 . S
N1169 C1168 1.314 . S
N1169 C1172 1.279 . S
C1170 C1168 1.353 . S
C1170 C1173 1.348 . S
C1170 H1218 0.929 . S
C1171 C1172 1.358 . S
C1171 C1173 1.356 . S
C1171 H1219 0.930 . S
C1172 N1169 1.279 . S
C1172 C1171 1.358 . S
C1172 H1175 0.930 . S
C1173 C1170 1.348 . S
C1173 C1171 1.356 . S
H1174 C1168 0.930 . S
H1175 C1172 0.930 . S
C1176 C1178 1.348 . S
C1176 C1179 1.356 . S
C1176 O1206 1.325 . S
N1177 C1180 1.314 . S
N1177 C1181 1.279 . S
C1178 C1176 1.348 . S
C1178 C1180 1.353 . S
C1178 H1220 0.929 . S
C1179 C1176 1.356 . S
C1179 C1181 1.358 . S
C1179 H1221 0.930 . S
C1180 N1177 1.314 . S
C1180 C1178 1.353 . S
C1180 H1222 0.930 . S
C1181 N1177 1.279 . S
C1181 C1179 1.358 . S
C1181 H1223 0.930 . S
C1182 C1183 1.348 . S
C1182 C1184 1.356 . S
C1182 O1207 1.325 . S
C1183 C1182 1.348 . S
C1183 C1185 1.353 . S
C1183 H1224 0.929 . S
C1184 C1182 1.356 . S
C1184 C1186 1.358 . S
C1184 H1225 0.930 . S
C1185 C1183 1.353 . S
C1185 N1187 1.314 . S
C1185 H1226 0.930 . S
C1186 C1184 1.358 . S
C1186 N1187 1.279 . S
C1186 H1227 0.930 . S
N1187 C1185 1.314 . S
N1187 C1186 1.279 . S
C1188 C1190 1.353 . S
C1188 N1191 1.314 . S
C1188 H1194 0.930 . S
C1189 N1191 1.279 . S
C1189 C1192 1.358 . S
C1189 H1195 0.930 . S
C1190 C1188 1.353 . S
C1190 C1193 1.348 . S
C1190 H1228 0.929 . S
N1191 Li1146 1.990 . S
N1191 C1188 1.314 . S
N1191 C1189 1.279 . S
C1192 C1189 1.358 . S
C1192 C1193 1.356 . S
C1192 H1229 0.930 . S
C1193 C1190 1.348 . S
C1193 C1192 1.356 . S
H1194 C1188 0.930 . S
H1195 C1189 0.930 . S
C1196 N1197 1.314 . S
C1196 C1198 1.353 . S
C1196 H1202 0.930 . S
N1197 Li1147 1.990 . S
N1197 C1196 1.314 . S
N1197 C1200 1.279 . S
C1198 C1196 1.353 . S
C1198 C1201 1.348 . S
C1198 H1230 0.929 . S
C1199 C1200 1.358 . S
C1199 C1201 1.356 . S
C1199 H1231 0.930 . S
C1200 N1197 1.279 . S
C1200 C1199 1.358 . S
C1200 H1203 0.930 . S
C1201 C1198 1.348 . S
C1201 C1199 1.356 . S
H1202 C1196 0.930 . S
H1203 C1200 0.930 . S
O1204 Li1144 1.956 . S
O1204 Li1145 1.970 . S
O1204 Li1146 1.961 . S
O1204 C1148 1.325 . S
O1205 Li1144 1.970 . S
O1205 Li1145 1.956 . S
O1205 Li1147 1.961 . S
O1205 C1154 1.325 . S
O1206 Li1144 1.961 . S
O1206 Li1146 1.956 . S
O1206 Li1147 1.970 . S
O1206 C1176 1.325 . S
O1207 Li1145 1.961 . S
O1207 Li1146 1.970 . S
O1207 Li1147 1.956 . S
O1207 C1182 1.325 . S
H1208 C1150 0.929 . S
H1209 C1151 0.930 . S
H1210 C1152 0.930 . S
H1211 C1153 0.930 . S
H1212 C1155 0.930 . S
H1213 C1157 0.929 . S
H1214 C1158 0.930 . S
H1215 C1159 0.930 . S
H1216 C1162 0.930 . S
H1217 C1165 0.929 . S
H1218 C1170 0.929 . S
H1219 C1171 0.930 . S
H1220 C1178 0.929 . S
H1221 C1179 0.930 . S
H1222 C1180 0.930 . S
H1223 C1181 0.930 . S
H1224 C1183 0.929 . S
H1225 C1184 0.930 . S
H1226 C1185 0.930 . S
H1227 C1186 0.930 . S
H1228 C1190 0.929 . S
H1229 C1192 0.930 . S
H1230 C1198 0.929 . S
H1231 C1199 0.930 . S
Li1232 N1249 1.990 . S
Li1232 O1292 1.956 . S
Li1232 O1293 1.970 . S
Li1232 O1294 1.961 1_554 S
Li1233 N1257 1.990 . S
Li1233 O1292 1.970 . S
Li1233 O1293 1.956 . S
Li1233 O1295 1.961 1_554 S
Li1234 N1279 1.990 . S
Li1234 O1292 1.961 1_556 S
Li1234 O1294 1.956 . S
Li1234 O1295 1.970 . S
Li1235 N1285 1.990 . S
Li1235 O1293 1.961 1_556 S
Li1235 O1294 1.970 . S
Li1235 O1295 1.956 . S
C1236 C1238 1.348 . S
C1236 C1239 1.356 . S
C1236 O1292 1.325 . S
N1237 C1240 1.314 . S
N1237 C1241 1.279 . S
C1238 C1236 1.348 . S
C1238 C1240 1.353 . S
C1238 H1296 0.929 . S
C1239 C1236 1.356 . S
C1239 C1241 1.358 . S
C1239 H1297 0.930 . S
C1240 N1237 1.314 . S
C1240 C1238 1.353 . S
C1240 H1298 0.930 . S
C1241 N1237 1.279 . S
C1241 C1239 1.358 . S
C1241 H1299 0.930 . S
C1242 C1245 1.348 . S
C1242 C1246 1.356 1_554 S
C1242 O1293 1.325 . S
C1243 N1244 1.279 . S
C1243 C1246 1.358 1_554 S
C1243 H1300 0.930 1_554 S
N1244 C1243 1.279 . S
N1244 C1247 1.314 . S
C1245 C1242 1.348 . S
C1245 C1247 1.353 . S
C1245 H1301 0.929 . S
C1246 C1242 1.356 1_556 S
C1246 C1243 1.358 1_556 S
C1246 H1302 0.930 . S
C1247 N1244 1.314 . S
C1247 C1245 1.353 . S
C1247 H1303 0.930 . S
C1248 N1249 1.314 . S
C1248 C1253 1.353 . S
C1248 H1254 0.930 . S
N1249 Li1232 1.990 . S
N1249 C1248 1.314 . S
N1249 C1251 1.279 . S
C1250 C1251 1.358 . S
C1250 C1252 1.356 . S
C1250 H1304 0.930 . S
C1251 N1249 1.279 . S
C1251 C1250 1.358 . S
C1251 H1255 0.930 . S
C1252 C1250 1.356 . S
C1252 C1253 1.348 . S
C1253 C1248 1.353 . S
C1253 C1252 1.348 . S
C1253 H1305 0.929 . S
H1254 C1248 0.930 . S
H1255 C1251 0.930 . S
C1256 N1257 1.314 . S
C1256 C1258 1.353 . S
C1256 H1262 0.930 1_554 S
N1257 Li1233 1.990 . S
N1257 C1256 1.314 . S
N1257 C1260 1.279 . S
C1258 C1256 1.353 . S
C1258 C1261 1.348 . S
C1258 H1306 0.929 . S
C1259 C1260 1.358 . S
C1259 C1261 1.356 . S
C1259 H1307 0.930 . S
C1260 N1257 1.279 . S
C1260 C1259 1.358 . S
C1260 H1263 0.930 . S
C1261 C1258 1.348 . S
C1261 C1259 1.356 . S
H1262 C1256 0.930 1_556 S
H1263 C1260 0.930 . S
C1264 C1266 1.348 . S
C1264 C1267 1.356 1_556 S
C1264 O1294 1.325 . S
N1265 C1268 1.314 . S
N1265 C1269 1.279 . S
C1266 C1264 1.348 . S
C1266 C1268 1.353 . S
C1266 H1308 0.929 . S
C1267 C1264 1.356 1_554 S
C1267 C1269 1.358 1_554 S
C1267 H1309 0.930 . S
C1268 N1265 1.314 . S
C1268 C1266 1.353 . S
C1268 H1310 0.930 . S
C1269 N1265 1.279 . S
C1269 C1267 1.358 1_556 S
C1269 H1311 0.930 1_556 S
C1270 C1271 1.348 . S
C1270 C1272 1.356 . S
C1270 O1295 1.325 . S
C1271 C1270 1.348 . S
C1271 C1273 1.353 . S
C1271 H1312 0.929 . S
C1272 C1270 1.356 . S
C1272 C1274 1.358 . S
C1272 H1313 0.930 . S
C1273 C1271 1.353 . S
C1273 N1275 1.314 . S
C1273 H1314 0.930 . S
C1274 C1272 1.358 . S
C1274 N1275 1.279 . S
C1274 H1315 0.930 . S
N1275 C1273 1.314 . S
N1275 C1274 1.279 . S
C1276 C1278 1.353 . S
C1276 N1279 1.314 . S
C1276 H1282 0.930 1_556 S
C1277 N1279 1.279 . S
C1277 C1280 1.358 . S
C1277 H1283 0.930 . S
C1278 C1276 1.353 . S
C1278 C1281 1.348 . S
C1278 H1316 0.929 . S
N1279 Li1234 1.990 . S
N1279 C1276 1.314 . S
N1279 C1277 1.279 . S
C1280 C1277 1.358 . S
C1280 C1281 1.356 . S
C1280 H1317 0.930 . S
C1281 C1278 1.348 . S
C1281 C1280 1.356 . S
H1282 C1276 0.930 1_554 S
H1283 C1277 0.930 . S
C1284 N1285 1.314 . S
C1284 C1286 1.353 . S
C1284 H1290 0.930 . S
N1285 Li1235 1.990 . S
N1285 C1284 1.314 . S
N1285 C1288 1.279 . S
C1286 C1284 1.353 . S
C1286 C1289 1.348 . S
C1286 H1318 0.929 . S
C1287 C1288 1.358 . S
C1287 C1289 1.356 . S
C1287 H1319 0.930 . S
C1288 N1285 1.279 . S
C1288 C1287 1.358 . S
C1288 H1291 0.930 . S
C1289 C1286 1.348 . S
C1289 C1287 1.356 . S
H1290 C1284 0.930 . S
H1291 C1288 0.930 . S
O1292 Li1232 1.956 . S
O1292 Li1233 1.970 . S
O1292 Li1234 1.961 1_554 S
O1292 C1236 1.325 . S
O1293 Li1232 1.970 . S
O1293 Li1233 1.956 . S
O1293 Li1235 1.961 1_554 S
O1293 C1242 1.325 . S
O1294 Li1232 1.961 1_556 S
O1294 Li1234 1.956 . S
O1294 Li1235 1.970 . S
O1294 C1264 1.325 . S
O1295 Li1233 1.961 1_556 S
O1295 Li1234 1.970 . S
O1295 Li1235 1.956 . S
O1295 C1270 1.325 . S
H1296 C1238 0.929 . S
H1297 C1239 0.930 . S
H1298 C1240 0.930 . S
H1299 C1241 0.930 . S
H1300 C1243 0.930 1_556 S
H1301 C1245 0.929 . S
H1302 C1246 0.930 . S
H1303 C1247 0.930 . S
H1304 C1250 0.930 . S
H1305 C1253 0.929 . S
H1306 C1258 0.929 . S
H1307 C1259 0.930 . S
H1308 C1266 0.929 . S
H1309 C1267 0.930 . S
H1310 C1268 0.930 . S
H1311 C1269 0.930 1_554 S
H1312 C1271 0.929 . S
H1313 C1272 0.930 . S
H1314 C1273 0.930 . S
H1315 C1274 0.930 . S
H1316 C1278 0.929 . S
H1317 C1280 0.930 . S
H1318 C1286 0.929 . S
H1319 C1287 0.930 . S
Li1320 N1337 1.990 . S
Li1320 O1380 1.956 . S
Li1320 O1381 1.970 . S
Li1320 O1382 1.961 . S
Li1321 N1345 1.990 . S
Li1321 O1380 1.970 . S
Li1321 O1381 1.956 . S
Li1321 O1383 1.961 . S
Li1322 N1367 1.990 . S
Li1322 O1380 1.961 . S
Li1322 O1382 1.956 . S
Li1322 O1383 1.970 . S
Li1323 N1373 1.990 . S
Li1323 O1381 1.961 . S
Li1323 O1382 1.970 . S
Li1323 O1383 1.956 . S
C1324 C1326 1.348 . S
C1324 C1327 1.356 . S
C1324 O1380 1.325 . S
N1325 C1328 1.314 . S
N1325 C1329 1.279 . S
C1326 C1324 1.348 . S
C1326 C1328 1.353 . S
C1326 H1384 0.929 . S
C1327 C1324 1.356 . S
C1327 C1329 1.358 . S
C1327 H1385 0.930 . S
C1328 N1325 1.314 . S
C1328 C1326 1.353 . S
C1328 H1386 0.930 . S
C1329 N1325 1.279 . S
C1329 C1327 1.358 . S
C1329 H1387 0.930 . S
C1330 C1333 1.348 . S
C1330 C1334 1.356 . S
C1330 O1381 1.325 . S
C1331 N1332 1.279 . S
C1331 C1334 1.358 . S
C1331 H1388 0.930 . S
N1332 C1331 1.279 . S
N1332 C1335 1.314 . S
C1333 C1330 1.348 . S
C1333 C1335 1.353 . S
C1333 H1389 0.929 . S
C1334 C1330 1.356 . S
C1334 C1331 1.358 . S
C1334 H1390 0.930 . S
C1335 N1332 1.314 . S
C1335 C1333 1.353 . S
C1335 H1391 0.930 . S
C1336 N1337 1.314 . S
C1336 C1341 1.353 . S
C1336 H1342 0.930 . S
N1337 Li1320 1.990 . S
N1337 C1336 1.314 . S
N1337 C1339 1.279 . S
C1338 C1339 1.358 . S
C1338 C1340 1.356 . S
C1338 H1392 0.930 . S
C1339 N1337 1.279 . S
C1339 C1338 1.358 . S
C1339 H1343 0.930 . S
C1340 C1338 1.356 . S
C1340 C1341 1.348 . S
C1341 C1336 1.353 . S
C1341 C1340 1.348 . S
C1341 H1393 0.929 . S
H1342 C1336 0.930 . S
H1343 C1339 0.930 . S
C1344 N1345 1.314 . S
C1344 C1346 1.353 . S
C1344 H1350 0.930 . S
N1345 Li1321 1.990 . S
N1345 C1344 1.314 . S
N1345 C1348 1.279 . S
C1346 C1344 1.353 . S
C1346 C1349 1.348 . S
C1346 H1394 0.929 . S
C1347 C1348 1.358 . S
C1347 C1349 1.356 . S
C1347 H1395 0.930 . S
C1348 N1345 1.279 . S
C1348 C1347 1.358 . S
C1348 H1351 0.930 . S
C1349 C1346 1.348 . S
C1349 C1347 1.356 . S
H1350 C1344 0.930 . S
H1351 C1348 0.930 . S
C1352 C1354 1.348 . S
C1352 C1355 1.356 . S
C1352 O1382 1.325 . S
N1353 C1356 1.314 . S
N1353 C1357 1.279 . S
C1354 C1352 1.348 . S
C1354 C1356 1.353 . S
C1354 H1396 0.929 . S
C1355 C1352 1.356 . S
C1355 C1357 1.358 . S
C1355 H1397 0.930 . S
C1356 N1353 1.314 . S
C1356 C1354 1.353 . S
C1356 H1398 0.930 . S
C1357 N1353 1.279 . S
C1357 C1355 1.358 . S
C1357 H1399 0.930 . S
C1358 C1359 1.348 . S
C1358 C1360 1.356 . S
C1358 O1383 1.325 . S
C1359 C1358 1.348 . S
C1359 C1361 1.353 . S
C1359 H1400 0.929 . S
C1360 C1358 1.356 . S
C1360 C1362 1.358 . S
C1360 H1401 0.930 . S
C1361 C1359 1.353 . S
C1361 N1363 1.314 . S
C1361 H1402 0.930 . S
C1362 C1360 1.358 . S
C1362 N1363 1.279 . S
C1362 H1403 0.930 . S
N1363 C1361 1.314 . S
N1363 C1362 1.279 . S
C1364 C1366 1.353 . S
C1364 N1367 1.314 . S
C1364 H1370 0.930 . S
C1365 N1367 1.279 . S
C1365 C1368 1.358 . S
C1365 H1371 0.930 . S
C1366 C1364 1.353 . S
C1366 C1369 1.348 . S
C1366 H1404 0.929 . S
N1367 Li1322 1.990 . S
N1367 C1364 1.314 . S
N1367 C1365 1.279 . S
C1368 C1365 1.358 . S
C1368 C1369 1.356 . S
C1368 H1405 0.930 . S
C1369 C1366 1.348 . S
C1369 C1368 1.356 . S
H1370 C1364 0.930 . S
H1371 C1365 0.930 . S
C1372 N1373 1.314 . S
C1372 C1374 1.353 . S
C1372 H1378 0.930 . S
N1373 Li1323 1.990 . S
N1373 C1372 1.314 . S
N1373 C1376 1.279 . S
C1374 C1372 1.353 . S
C1374 C1377 1.348 . S
C1374 H1406 0.929 . S
C1375 C1376 1.358 . S
C1375 C1377 1.356 . S
C1375 H1407 0.930 . S
C1376 N1373 1.279 . S
C1376 C1375 1.358 . S
C1376 H1379 0.930 . S
C1377 C1374 1.348 . S
C1377 C1375 1.356 . S
H1378 C1372 0.930 . S
H1379 C1376 0.930 . S
O1380 Li1320 1.956 . S
O1380 Li1321 1.970 . S
O1380 Li1322 1.961 . S
O1380 C1324 1.325 . S
O1381 Li1320 1.970 . S
O1381 Li1321 1.956 . S
O1381 Li1323 1.961 . S
O1381 C1330 1.325 . S
O1382 Li1320 1.961 . S
O1382 Li1322 1.956 . S
O1382 Li1323 1.970 . S
O1382 C1352 1.325 . S
O1383 Li1321 1.961 . S
O1383 Li1322 1.970 . S
O1383 Li1323 1.956 . S
O1383 C1358 1.325 . S
H1384 C1326 0.929 . S
H1385 C1327 0.930 . S
H1386 C1328 0.930 . S
H1387 C1329 0.930 . S
H1388 C1331 0.930 . S
H1389 C1333 0.929 . S
H1390 C1334 0.930 . S
H1391 C1335 0.930 . S
H1392 C1338 0.930 . S
H1393 C1341 0.929 . S
H1394 C1346 0.929 . S
H1395 C1347 0.930 . S
H1396 C1354 0.929 . S
H1397 C1355 0.930 . S
H1398 C1356 0.930 . S
H1399 C1357 0.930 . S
H1400 C1359 0.929 . S
H1401 C1360 0.930 . S
H1402 C1361 0.930 . S
H1403 C1362 0.930 . S
H1404 C1366 0.929 . S
H1405 C1368 0.930 . S
H1406 C1374 0.929 . S
H1407 C1375 0.930 . S
H1408 C1420 0.930 . S
H1409 C1422 0.930 . S
H1410 C1423 0.930 . S
H1411 C1427 0.959 . S
H1412 C1427 0.959 . S
H1413 C1427 0.961 . S
H1414 C1428 0.960 . S
H1415 C1428 0.961 . S
H1416 C1428 0.959 . S
H1417 C1431 0.929 . S
H1418 C1432 0.931 . S
H1419 C1434 0.930 . S
C1420 H1408 0.930 . S
C1420 C1421 1.399 . S
C1420 C1425 1.399 . S
C1421 C1420 1.399 . S
C1421 C1422 1.376 . S
C1422 H1409 0.930 . S
C1422 C1421 1.376 . S
C1422 C1423 1.388 . S
C1423 H1410 0.930 . S
C1423 C1422 1.388 . S
C1423 C1424 1.390 . S
C1424 C1423 1.390 . S
C1424 C1425 1.394 . S
C1424 C1430 1.465 . S
C1425 C1420 1.399 . S
C1425 C1424 1.394 . S
C1425 C1426 1.516 . S
C1426 C1425 1.516 . S
C1426 C1427 1.502 . S
C1426 C1428 1.561 . S
C1426 C1429 1.526 . S
C1427 H1411 0.959 . S
C1427 H1412 0.959 . S
C1427 H1413 0.961 . S
C1427 C1426 1.502 . S
C1428 H1414 0.960 . S
C1428 H1415 0.961 . S
C1428 H1416 0.959 . S
C1428 C1426 1.561 . S
C1429 C1426 1.526 . S
C1429 C1430 1.396 . S
C1429 C1434 1.390 . S
C1430 C1424 1.465 . S
C1430 C1429 1.396 . S
C1430 C1431 1.399 . S
C1431 H1417 0.929 . S
C1431 C1430 1.399 . S
C1431 C1432 1.385 . S
C1432 H1418 0.931 . S
C1432 C1431 1.385 . S
C1432 C1433 1.389 . S
C1433 C1432 1.389 . S
C1433 C1434 1.387 . S
C1434 H1419 0.930 . S
C1434 C1429 1.390 . S
C1434 C1433 1.387 . S
H1435 C1447 0.930 . S
H1436 C1449 0.948 . S
H1437 C1450 0.930 . S
H1438 C1454 0.959 . S
H1439 C1454 0.959 . S
H1440 C1454 0.961 . S
H1441 C1455 0.960 . S
H1442 C1455 0.961 . S
H1443 C1455 0.959 . S
H1444 C1458 0.929 . S
H1445 C1459 0.931 . S
H1446 C1461 0.930 1_545 S
C1447 H1435 0.930 . S
C1447 C1448 1.399 . S
C1447 C1452 1.399 . S
C1448 C1447 1.399 . S
C1448 C1449 1.376 . S
C1449 H1436 0.948 . S
C1449 C1448 1.376 . S
C1449 C1450 1.388 1_545 S
C1450 H1437 0.930 . S
C1450 C1449 1.388 1_565 S
C1450 C1451 1.404 . S
C1451 C1450 1.404 . S
C1451 C1452 1.354 1_565 S
C1451 C1457 1.501 . S
C1452 C1447 1.399 . S
C1452 C1451 1.354 1_545 S
C1452 C1453 1.516 1_655 S
C1453 C1452 1.516 1_455 S
C1453 C1454 1.502 . S
C1453 C1455 1.561 . S
C1453 C1456 1.556 . S
C1454 H1438 0.959 . S
C1454 H1439 0.959 . S
C1454 H1440 0.961 . S
C1454 C1453 1.502 . S
C1455 H1441 0.960 . S
C1455 H1442 0.961 . S
C1455 H1443 0.959 . S
C1455 C1453 1.561 . S
C1456 C1453 1.556 . S
C1456 C1457 1.358 1_445 S
C1456 C1461 1.379 1_545 S
C1457 C1451 1.501 . S
C1457 C1456 1.358 1_665 S
C1457 C1458 1.401 . S
C1458 H1444 0.929 . S
C1458 C1457 1.401 . S
C1458 C1459 1.385 1_655 S
C1459 H1445 0.931 . S
C1459 C1458 1.385 1_455 S
C1459 C1460 1.389 . S
C1460 C1459 1.389 . S
C1460 C1461 1.387 . S
C1461 H1446 0.930 1_565 S
C1461 C1456 1.379 1_565 S
C1461 C1460 1.387 . S
H1462 C1474 0.930 . S
H1463 C1476 0.930 . S
H1464 C1477 0.930 . S
H1465 C1481 0.959 . S
H1466 C1481 0.959 . S
H1467 C1481 0.961 . S
H1468 C1482 0.960 . S
H1469 C1482 0.961 . S
H1470 C1482 0.959 . S
H1471 C1485 0.929 . S
H1472 C1486 0.931 . S
H1473 C1488 0.930 . S
C1474 H1462 0.930 . S
C1474 C1475 1.399 . S
C1474 C1479 1.399 . S
C1475 C1474 1.399 . S
C1475 C1476 1.376 . S
C1476 H1463 0.930 . S
C1476 C1475 1.376 . S
C1476 C1477 1.388 . S
C1477 H1464 0.930 . S
C1477 C1476 1.388 . S
C1477 C1478 1.390 . S
C1478 C1477 1.390 . S
C1478 C1479 1.394 . S
C1478 C1484 1.465 . S
C1479 C1474 1.399 . S
C1479 C1478 1.394 . S
C1479 C1480 1.516 . S
C1480 C1479 1.516 . S
C1480 C1481 1.502 . S
C1480 C1482 1.561 . S
C1480 C1483 1.526 . S
C1481 H1465 0.959 . S
C1481 H1466 0.959 . S
C1481 H1467 0.961 . S
C1481 C1480 1.502 . S
C1482 H1468 0.960 . S
C1482 H1469 0.961 . S
C1482 H1470 0.959 . S
C1482 C1480 1.561 . S
C1483 C1480 1.526 . S
C1483 C1484 1.396 . S
C1483 C1488 1.390 . S
C1484 C1478 1.465 . S
C1484 C1483 1.396 . S
C1484 C1485 1.399 . S
C1485 H1471 0.929 . S
C1485 C1484 1.399 . S
C1485 C1486 1.385 . S
C1486 H1472 0.931 . S
C1486 C1485 1.385 . S
C1486 C1487 1.389 . S
C1487 C1486 1.389 . S
C1487 C1488 1.387 . S
C1488 H1473 0.930 . S
C1488 C1483 1.390 . S
C1488 C1487 1.387 . S
H1489 C1501 0.930 . S
H1490 C1503 0.911 1_565 S
H1491 C1504 0.930 . S
H1492 C1508 0.959 . S
H1493 C1508 0.959 . S
H1494 C1508 0.961 . S
H1495 C1509 0.960 . S
H1496 C1509 0.961 . S
H1497 C1509 0.946 1_554 S
H1498 C1512 0.929 . S
H1499 C1513 0.931 . S
H1500 C1515 0.930 1_545 S
C1501 H1489 0.930 . S
C1501 C1502 1.399 . S
C1501 C1506 1.399 . S
C1502 C1501 1.399 . S
C1502 C1503 1.432 . S
C1503 H1490 0.911 1_545 S
C1503 C1502 1.432 . S
C1503 C1504 1.355 1_545 S
C1504 H1491 0.930 . S
C1504 C1503 1.355 1_565 S
C1504 C1505 1.390 . S
C1505 C1504 1.390 . S
C1505 C1506 1.394 1_565 S
C1505 C1511 1.468 . S
C1506 C1501 1.399 . S
C1506 C1505 1.394 1_545 S
C1506 C1507 1.516 1_554 S
C1507 C1506 1.516 1_556 S
C1507 C1508 1.502 . S
C1507 C1509 1.561 . S
C1507 C1510 1.526 . S
C1508 H1492 0.959 . S
C1508 H1493 0.959 . S
C1508 H1494 0.961 . S
C1508 C1507 1.502 . S
C1509 H1495 0.960 . S
C1509 H1496 0.961 . S
C1509 H1497 0.946 1_556 S
C1509 C1507 1.561 . S
C1510 C1507 1.526 . S
C1510 C1511 1.393 1_546 S
C1510 C1515 1.390 1_545 S
C1511 C1505 1.468 . S
C1511 C1510 1.393 1_564 S
C1511 C1512 1.399 . S
C1512 H1498 0.929 . S
C1512 C1511 1.399 . S
C1512 C1513 1.385 1_554 S
C1513 H1499 0.931 . S
C1513 C1512 1.385 1_556 S
C1513 C1514 1.389 . S
C1514 C1513 1.389 . S
C1514 C1515 1.387 . S
C1515 H1500 0.930 1_565 S
C1515 C1510 1.390 1_565 S
C1515 C1514 1.387 . S
H1516 C1528 0.930 . S
H1517 C1530 0.930 . S
H1518 C1531 0.930 . S
H1519 C1535 0.959 . S
H1520 C1535 0.959 . S
H1521 C1535 0.961 . S
H1522 C1536 0.960 . S
H1523 C1536 0.961 . S
H1524 C1536 0.959 . S
H1525 C1539 0.929 . S
H1526 C1540 0.931 . S
H1527 C1542 0.930 . S
C1528 H1516 0.930 . S
C1528 C1529 1.399 . S
C1528 C1533 1.399 . S
C1529 C1528 1.399 . S
C1529 C1530 1.376 . S
C1530 H1517 0.930 . S
C1530 C1529 1.376 . S
C1530 C1531 1.388 . S
C1531 H1518 0.930 . S
C1531 C1530 1.388 . S
C1531 C1532 1.390 . S
C1532 C1531 1.390 . S
C1532 C1533 1.394 . S
C1532 C1538 1.465 . S
C1533 C1528 1.399 . S
C1533 C1532 1.394 . S
C1533 C1534 1.516 . S
C1534 C1533 1.516 . S
C1534 C1535 1.502 . S
C1534 C1536 1.561 . S
C1534 C1537 1.526 . S
C1535 H1519 0.959 . S
C1535 H1520 0.959 . S
C1535 H1521 0.961 . S
C1535 C1534 1.502 . S
C1536 H1522 0.960 . S
C1536 H1523 0.961 . S
C1536 H1524 0.959 . S
C1536 C1534 1.561 . S
C1537 C1534 1.526 . S
C1537 C1538 1.396 . S
C1537 C1542 1.390 . S
C1538 C1532 1.465 . S
C1538 C1537 1.396 . S
C1538 C1539 1.399 . S
C1539 H1525 0.929 . S
C1539 C1538 1.399 . S
C1539 C1540 1.385 . S
C1540 H1526 0.931 . S
C1540 C1539 1.385 . S
C1540 C1541 1.389 . S
C1541 C1540 1.389 . S
C1541 C1542 1.387 . S
C1542 H1527 0.930 . S
C1542 C1537 1.390 . S
C1542 C1541 1.387 . S
H1543 C1555 0.930 . S
H1544 C1557 0.930 . S
H1545 C1558 0.929 . S
H1546 C1562 0.959 1_545 S
H1547 C1562 0.959 . S
H1548 C1562 0.961 . S
H1549 C1563 0.960 . S
H1550 C1563 0.961 . S
H1551 C1563 0.959 . S
H1552 C1566 0.929 . S
H1553 C1567 0.931 . S
H1554 C1569 0.930 . S
C1555 H1543 0.930 . S
C1555 C1556 1.399 . S
C1555 C1560 1.399 . S
C1556 C1555 1.399 . S
C1556 C1557 1.376 . S
C1557 H1544 0.930 . S
C1557 C1556 1.376 . S
C1557 C1558 1.390 1_565 S
C1558 H1545 0.929 . S
C1558 C1557 1.390 1_545 S
C1558 C1559 1.390 1_545 S
C1559 C1558 1.390 1_565 S
C1559 C1560 1.394 . S
C1559 C1565 1.465 1_565 S
C1560 C1555 1.399 . S
C1560 C1559 1.394 . S
C1560 C1561 1.516 . S
C1561 C1560 1.516 . S
C1561 C1562 1.502 . S
C1561 C1563 1.561 . S
C1561 C1564 1.482 1_565 S
C1562 H1546 0.959 1_565 S
C1562 H1547 0.959 . S
C1562 H1548 0.961 . S
C1562 C1561 1.502 . S
C1563 H1549 0.960 . S
C1563 H1550 0.961 . S
C1563 H1551 0.959 . S
C1563 C1561 1.561 . S
C1564 C1561 1.482 1_545 S
C1564 C1565 1.419 . S
C1564 C1569 1.415 . S
C1565 C1559 1.465 1_545 S
C1565 C1564 1.419 . S
C1565 C1566 1.399 . S
C1566 H1552 0.929 . S
C1566 C1565 1.399 . S
C1566 C1567 1.385 . S
C1567 H1553 0.931 . S
C1567 C1566 1.385 . S
C1567 C1568 1.389 . S
C1568 C1567 1.389 . S
C1568 C1569 1.387 . S
C1569 H1554 0.930 . S
C1569 C1564 1.415 . S
C1569 C1568 1.387 . S
H1570 C1582 0.930 . S
H1571 C1584 0.930 . S
H1572 C1585 0.930 . S
H1573 C1589 0.959 . S
H1574 C1589 0.959 . S
H1575 C1589 0.961 . S
H1576 C1590 0.960 . S
H1577 C1590 0.961 . S
H1578 C1590 0.959 . S
H1579 C1593 0.929 . S
H1580 C1594 0.931 . S
H1581 C1596 0.930 . S
C1582 H1570 0.930 . S
C1582 C1583 1.399 . S
C1582 C1587 1.399 . S
C1583 C1582 1.399 . S
C1583 C1584 1.376 . S
C1584 H1571 0.930 . S
C1584 C1583 1.376 . S
C1584 C1585 1.388 . S
C1585 H1572 0.930 . S
C1585 C1584 1.388 . S
C1585 C1586 1.390 . S
C1586 C1585 1.390 . S
C1586 C1587 1.394 . S
C1586 C1592 1.465 . S
C1587 C1582 1.399 . S
C1587 C1586 1.394 . S
C1587 C1588 1.516 . S
C1588 C1587 1.516 . S
C1588 C1589 1.502 . S
C1588 C1590 1.561 . S
C1588 C1591 1.526 . S
C1589 H1573 0.959 . S
C1589 H1574 0.959 . S
C1589 H1575 0.961 . S
C1589 C1588 1.502 . S
C1590 H1576 0.960 . S
C1590 H1577 0.961 . S
C1590 H1578 0.959 . S
C1590 C1588 1.561 . S
C1591 C1588 1.526 . S
C1591 C1592 1.396 . S
C1591 C1596 1.390 . S
C1592 C1586 1.465 . S
C1592 C1591 1.396 . S
C1592 C1593 1.399 . S
C1593 H1579 0.929 . S
C1593 C1592 1.399 . S
C1593 C1594 1.385 . S
C1594 H1580 0.931 . S
C1594 C1593 1.385 . S
C1594 C1595 1.389 . S
C1595 C1594 1.389 . S
C1595 C1596 1.387 . S
C1596 H1581 0.930 . S
C1596 C1591 1.390 . S
C1596 C1595 1.387 . S
H1597 C1609 0.930 1_565 S
H1598 C1611 0.930 . S
H1599 C1612 0.930 1_554 S
H1600 C1616 0.959 . S
H1601 C1616 0.959 . S
H1602 C1616 0.967 . S
H1603 C1617 0.960 . S
H1604 C1617 0.961 1_554 S
H1605 C1617 0.959 1_554 S
H1606 C1620 0.929 . S
H1607 C1621 0.931 . S
H1608 C1623 0.930 . S
C1609 H1597 0.930 1_545 S
C1609 C1610 1.399 . S
C1609 C1614 1.399 1_545 S
C1610 C1609 1.399 . S
C1610 C1611 1.376 . S
C1611 H1598 0.930 . S
C1611 C1610 1.376 . S
C1611 C1612 1.388 . S
C1612 H1599 0.930 1_556 S
C1612 C1611 1.388 . S
C1612 C1613 1.390 . S
C1613 C1612 1.390 . S
C1613 C1614 1.394 1_545 S
C1613 C1619 1.465 1_456 S
C1614 C1609 1.399 1_565 S
C1614 C1613 1.394 1_565 S
C1614 C1615 1.516 . S
C1615 C1614 1.516 . S
C1615 C1616 1.502 1_455 S
C1615 C1617 1.561 . S
C1615 C1618 1.526 1_456 S
C1616 H1600 0.959 . S
C1616 H1601 0.959 . S
C1616 H1602 0.967 . S
C1616 C1615 1.502 1_655 S
C1617 H1603 0.960 . S
C1617 H1604 0.961 1_556 S
C1617 H1605 0.959 1_556 S
C1617 C1615 1.561 . S
C1618 C1615 1.526 1_654 S
C1618 C1619 1.396 1_565 S
C1618 C1623 1.390 . S
C1619 C1613 1.465 1_654 S
C1619 C1618 1.396 1_545 S
C1619 C1620 1.399 . S
C1620 H1606 0.929 . S
C1620 C1619 1.399 . S
C1620 C1621 1.385 . S
C1621 H1607 0.931 . S
C1621 C1620 1.385 . S
C1621 C1622 1.389 1_545 S
C1622 C1621 1.389 1_565 S
C1622 C1623 1.387 . S
C1623 H1608 0.930 . S
C1623 C1618 1.390 . S
C1623 C1622 1.387 . S
H1624 C1636 0.930 . S
H1625 C1638 0.930 . S
H1626 C1639 0.930 . S
H1627 C1643 0.959 . S
H1628 C1643 0.959 . S
H1629 C1643 0.961 . S
H1630 C1644 0.960 . S
H1631 C1644 0.961 . S
H1632 C1644 0.959 . S
H1633 C1647 0.929 . S
H1634 C1648 0.931 . S
H1635 C1650 0.930 . S
C1636 H1624 0.930 . S
C1636 C1637 1.399 . S
C1636 C1641 1.399 . S
C1637 C1636 1.399 . S
C1637 C1638 1.376 . S
C1638 H1625 0.930 . S
C1638 C1637 1.376 . S
C1638 C1639 1.388 . S
C1639 H1626 0.930 . S
C1639 C1638 1.388 . S
C1639 C1640 1.390 . S
C1640 C1639 1.390 . S
C1640 C1641 1.394 . S
C1640 C1646 1.465 . S
C1641 C1636 1.399 . S
C1641 C1640 1.394 . S
C1641 C1642 1.516 . S
C1642 C1641 1.516 . S
C1642 C1643 1.502 . S
C1642 C1644 1.561 . S
C1642 C1645 1.526 . S
C1643 H1627 0.959 . S
C1643 H1628 0.959 . S
C1643 H1629 0.961 . S
C1643 C1642 1.502 . S
C1644 H1630 0.960 . S
C1644 H1631 0.961 . S
C1644 H1632 0.959 . S
C1644 C1642 1.561 . S
C1645 C1642 1.526 . S
C1645 C1646 1.396 . S
C1645 C1650 1.390 . S
C1646 C1640 1.465 . S
C1646 C1645 1.396 . S
C1646 C1647 1.399 . S
C1647 H1633 0.929 . S
C1647 C1646 1.399 . S
C1647 C1648 1.385 . S
C1648 H1634 0.931 . S
C1648 C1647 1.385 . S
C1648 C1649 1.389 . S
C1649 C1648 1.389 . S
C1649 C1650 1.387 . S
C1650 H1635 0.930 . S
C1650 C1645 1.390 . S
C1650 C1649 1.387 . S
H1651 C1663 0.930 . S
H1652 C1665 0.930 . S
H1653 C1666 0.930 . S
H1654 C1670 0.959 . S
H1655 C1670 0.959 . S
H1656 C1670 0.961 . S
H1657 C1671 0.960 . S
H1658 C1671 0.961 . S
H1659 C1671 0.959 . S
H1660 C1674 0.929 . S
H1661 C1675 0.931 . S
H1662 C1677 0.930 . S
C1663 H1651 0.930 . S
C1663 C1664 1.399 . S
C1663 C1668 1.399 . S
C1664 C1663 1.399 . S
C1664 C1665 1.376 . S
C1665 H1652 0.930 . S
C1665 C1664 1.376 . S
C1665 C1666 1.388 . S
C1666 H1653 0.930 . S
C1666 C1665 1.388 . S
C1666 C1667 1.390 . S
C1667 C1666 1.390 . S
C1667 C1668 1.394 . S
C1667 C1673 1.465 . S
C1668 C1663 1.399 . S
C1668 C1667 1.394 . S
C1668 C1669 1.516 . S
C1669 C1668 1.516 . S
C1669 C1670 1.502 . S
C1669 C1671 1.561 . S
C1669 C1672 1.526 . S
C1670 H1654 0.959 . S
C1670 H1655 0.959 . S
C1670 H1656 0.961 . S
C1670 C1669 1.502 . S
C1671 H1657 0.960 . S
C1671 H1658 0.961 . S
C1671 H1659 0.959 . S
C1671 C1669 1.561 . S
C1672 C1669 1.526 . S
C1672 C1673 1.396 . S
C1672 C1677 1.390 . S
C1673 C1667 1.465 . S
C1673 C1672 1.396 . S
C1673 C1674 1.399 . S
C1674 H1660 0.929 . S
C1674 C1673 1.399 . S
C1674 C1675 1.385 . S
C1675 H1661 0.931 . S
C1675 C1674 1.385 . S
C1675 C1676 1.389 . S
C1676 C1675 1.389 . S
C1676 C1677 1.387 . S
C1677 H1662 0.930 . S
C1677 C1672 1.390 . S
C1677 C1676 1.387 . S
H1678 C1690 0.930 . S
H1679 C1692 0.930 . S
H1680 C1693 0.930 . S
H1681 C1697 0.959 . S
H1682 C1697 0.959 . S
H1683 C1697 0.961 . S
H1684 C1698 0.960 . S
H1685 C1698 0.961 . S
H1686 C1698 0.959 . S
H1687 C1701 0.929 . S
H1688 C1702 0.931 . S
H1689 C1704 0.930 . S
C1690 H1678 0.930 . S
C1690 C1691 1.399 . S
C1690 C1695 1.399 . S
C1691 C1690 1.399 . S
C1691 C1692 1.376 . S
C1692 H1679 0.930 . S
C1692 C1691 1.376 . S
C1692 C1693 1.388 . S
C1693 H1680 0.930 . S
C1693 C1692 1.388 . S
C1693 C1694 1.390 . S
C1694 C1693 1.390 . S
C1694 C1695 1.394 . S
C1694 C1700 1.465 . S
C1695 C1690 1.399 . S
C1695 C1694 1.394 . S
C1695 C1696 1.516 . S
C1696 C1695 1.516 . S
C1696 C1697 1.502 . S
C1696 C1698 1.561 . S
C1696 C1699 1.526 . S
C1697 H1681 0.959 . S
C1697 H1682 0.959 . S
C1697 H1683 0.961 . S
C1697 C1696 1.502 . S
C1698 H1684 0.960 . S
C1698 H1685 0.961 . S
C1698 H1686 0.959 . S
C1698 C1696 1.561 . S
C1699 C1696 1.526 . S
C1699 C1700 1.396 . S
C1699 C1704 1.390 . S
C1700 C1694 1.465 . S
C1700 C1699 1.396 . S
C1700 C1701 1.399 . S
C1701 H1687 0.929 . S
C1701 C1700 1.399 . S
C1701 C1702 1.385 . S
C1702 H1688 0.931 . S
C1702 C1701 1.385 . S
C1702 C1703 1.389 . S
C1703 C1702 1.389 . S
C1703 C1704 1.387 . S
C1704 H1689 0.930 . S
C1704 C1699 1.390 . S
C1704 C1703 1.387 . S
H1705 C1717 0.930 . S
H1706 C1719 0.930 . S
H1707 C1720 0.930 . S
H1708 C1724 0.959 . S
H1709 C1724 0.959 . S
H1710 C1724 0.961 . S
H1711 C1725 0.960 . S
H1712 C1725 0.961 . S
H1713 C1725 0.959 . S
H1714 C1728 0.929 . S
H1715 C1729 0.931 . S
H1716 C1731 0.930 . S
C1717 H1705 0.930 . S
C1717 C1718 1.399 . S
C1717 C1722 1.399 . S
C1718 C1717 1.399 . S
C1718 C1719 1.376 . S
C1719 H1706 0.930 . S
C1719 C1718 1.376 . S
C1719 C1720 1.388 . S
C1720 H1707 0.930 . S
C1720 C1719 1.388 . S
C1720 C1721 1.390 . S
C1721 C1720 1.390 . S
C1721 C1722 1.394 . S
C1721 C1727 1.465 . S
C1722 C1717 1.399 . S
C1722 C1721 1.394 . S
C1722 C1723 1.516 . S
C1723 C1722 1.516 . S
C1723 C1724 1.502 . S
C1723 C1725 1.561 . S
C1723 C1726 1.526 . S
C1724 H1708 0.959 . S
C1724 H1709 0.959 . S
C1724 H1710 0.961 . S
C1724 C1723 1.502 . S
C1725 H1711 0.960 . S
C1725 H1712 0.961 . S
C1725 H1713 0.959 . S
C1725 C1723 1.561 . S
C1726 C1723 1.526 . S
C1726 C1727 1.396 . S
C1726 C1731 1.390 . S
C1727 C1721 1.465 . S
C1727 C1726 1.396 . S
C1727 C1728 1.399 . S
C1728 H1714 0.929 . S
C1728 C1727 1.399 . S
C1728 C1729 1.385 . S
C1729 H1715 0.931 . S
C1729 C1728 1.385 . S
C1729 C1730 1.389 . S
C1730 C1729 1.389 . S
C1730 C1731 1.387 . S
C1731 H1716 0.930 . S
C1731 C1726 1.390 . S
C1731 C1730 1.387 . S
H1732 C1744 0.930 . S
H1733 C1746 0.930 . S
H1734 C1747 0.930 . S
H1735 C1751 0.959 . S
H1736 C1751 0.959 . S
H1737 C1751 0.961 . S
H1738 C1752 0.957 1_554 S
H1739 C1752 0.961 . S
H1740 C1752 0.959 1_554 S
H1741 C1755 0.929 1_554 S
H1742 C1756 0.931 . S
H1743 C1758 0.930 . S
C1744 H1732 0.930 . S
C1744 C1745 1.399 . S
C1744 C1749 1.399 . S
C1745 C1744 1.399 . S
C1745 C1746 1.376 . S
C1746 H1733 0.930 . S
C1746 C1745 1.376 . S
C1746 C1747 1.388 . S
C1747 H1734 0.930 . S
C1747 C1746 1.388 . S
C1747 C1748 1.390 . S
C1748 C1747 1.390 . S
C1748 C1749 1.394 . S
C1748 C1754 1.465 1_554 S
C1749 C1744 1.399 . S
C1749 C1748 1.394 . S
C1749 C1750 1.516 1_554 S
C1750 C1749 1.516 1_556 S
C1750 C1751 1.502 . S
C1750 C1752 1.561 . S
C1750 C1753 1.526 . S
C1751 H1735 0.959 . S
C1751 H1736 0.959 . S
C1751 H1737 0.961 . S
C1751 C1750 1.502 . S
C1752 H1738 0.957 1_556 S
C1752 H1739 0.961 . S
C1752 H1740 0.959 1_556 S
C1752 C1750 1.561 . S
C1753 C1750 1.526 . S
C1753 C1754 1.396 . S
C1753 C1758 1.390 . S
C1754 C1748 1.465 1_556 S
C1754 C1753 1.396 . S
C1754 C1755 1.399 . S
C1755 H1741 0.929 1_556 S
C1755 C1754 1.399 . S
C1755 C1756 1.385 . S
C1756 H1742 0.931 . S
C1756 C1755 1.385 . S
C1756 C1757 1.389 . S
C1757 C1756 1.389 . S
C1757 C1758 1.387 . S
C1758 H1743 0.930 . S
C1758 C1753 1.390 . S
C1758 C1757 1.387 . S
H1759 C1771 0.930 . S
H1760 C1773 0.930 . S
H1761 C1774 0.930 . S
H1762 C1778 0.959 . S
H1763 C1778 0.959 . S
H1764 C1778 0.961 . S
H1765 C1779 0.995 . S
H1766 C1779 0.961 . S
H1767 C1779 0.959 . S
H1768 C1782 0.929 . S
H1769 C1783 0.931 . S
H1770 C1785 0.930 . S
C1771 H1759 0.930 . S
C1771 C1772 1.399 . S
C1771 C1776 1.399 . S
C1772 C1771 1.399 . S
C1772 C1773 1.376 . S
C1773 H1760 0.930 . S
C1773 C1772 1.376 . S
C1773 C1774 1.388 . S
C1774 H1761 0.930 . S
C1774 C1773 1.388 . S
C1774 C1775 1.390 . S
C1775 C1774 1.390 . S
C1775 C1776 1.394 . S
C1775 C1781 1.465 1_455 S
C1776 C1771 1.399 . S
C1776 C1775 1.394 . S
C1776 C1777 1.516 . S
C1777 C1776 1.516 . S
C1777 C1778 1.502 . S
C1777 C1779 1.561 1_455 S
C1777 C1780 1.526 1_455 S
C1778 H1762 0.959 . S
C1778 H1763 0.959 . S
C1778 H1764 0.961 . S
C1778 C1777 1.502 . S
C1779 H1765 0.995 . S
C1779 H1766 0.961 . S
C1779 H1767 0.959 . S
C1779 C1777 1.561 1_655 S
C1780 C1777 1.526 1_655 S
C1780 C1781 1.396 . S
C1780 C1785 1.390 . S
C1781 C1775 1.465 1_655 S
C1781 C1780 1.396 . S
C1781 C1782 1.399 . S
C1782 H1768 0.929 . S
C1782 C1781 1.399 . S
C1782 C1783 1.385 . S
C1783 H1769 0.931 . S
C1783 C1782 1.385 . S
C1783 C1784 1.389 . S
C1784 C1783 1.389 . S
C1784 C1785 1.387 . S
C1785 H1770 0.930 . S
C1785 C1780 1.390 . S
C1785 C1784 1.387 . S
H1786 C1798 0.930 . S
H1787 C1800 0.930 . S
H1788 C1801 0.930 . S
H1789 C1805 0.959 1_554 S
H1790 C1805 0.959 . S
H1791 C1805 0.961 1_554 S
H1792 C1806 0.960 . S
H1793 C1806 0.961 1_655 S
H1794 C1806 0.959 . S
H1795 C1809 0.929 . S
H1796 C1810 0.931 . S
H1797 C1812 0.930 . S
C1798 H1786 0.930 . S
C1798 C1799 1.399 . S
C1798 C1803 1.399 . S
C1799 C1798 1.399 . S
C1799 C1800 1.376 . S
C1800 H1787 0.930 . S
C1800 C1799 1.376 . S
C1800 C1801 1.388 . S
C1801 H1788 0.930 . S
C1801 C1800 1.388 . S
C1801 C1802 1.390 . S
C1802 C1801 1.390 . S
C1802 C1803 1.394 . S
C1802 C1808 1.465 1_454 S
C1803 C1798 1.399 . S
C1803 C1802 1.394 . S
C1803 C1804 1.516 1_454 S
C1804 C1803 1.516 1_656 S
C1804 C1805 1.502 . S
C1804 C1806 1.561 1_655 S
C1804 C1807 1.526 . S
C1805 H1789 0.959 1_556 S
C1805 H1790 0.959 . S
C1805 H1791 0.961 1_556 S
C1805 C1804 1.502 . S
C1806 H1792 0.960 . S
C1806 H1793 0.961 1_455 S
C1806 H1794 0.959 . S
C1806 C1804 1.561 1_455 S
C1807 C1804 1.526 . S
C1807 C1808 1.396 . S
C1807 C1812 1.390 . S
C1808 C1802 1.465 1_656 S
C1808 C1807 1.396 . S
C1808 C1809 1.399 . S
C1809 H1795 0.929 . S
C1809 C1808 1.399 . S
C1809 C1810 1.385 . S
C1810 H1796 0.931 . S
C1810 C1809 1.385 . S
C1810 C1811 1.389 . S
C1811 C1810 1.389 . S
C1811 C1812 1.387 . S
C1812 H1797 0.930 . S
C1812 C1807 1.390 . S
C1812 C1811 1.387 . S
H1813 C1825 0.930 . S
H1814 C1827 0.930 . S
H1815 C1828 0.930 . S
H1816 C1832 0.959 . S
H1817 C1832 0.959 . S
H1818 C1832 0.961 . S
H1819 C1833 0.960 . S
H1820 C1833 0.961 . S
H1821 C1833 0.959 . S
H1822 C1836 0.929 . S
H1823 C1837 0.931 . S
H1824 C1839 0.930 . S
C1825 H1813 0.930 . S
C1825 C1826 1.399 . S
C1825 C1830 1.399 . S
C1826 C1825 1.399 . S
C1826 C1827 1.376 . S
C1827 H1814 0.930 . S
C1827 C1826 1.376 . S
C1827 C1828 1.388 . S
C1828 H1815 0.930 . S
C1828 C1827 1.388 . S
C1828 C1829 1.390 . S
C1829 C1828 1.390 . S
C1829 C1830 1.394 . S
C1829 C1835 1.465 . S
C1830 C1825 1.399 . S
C1830 C1829 1.394 . S
C1830 C1831 1.516 . S
C1831 C1830 1.516 . S
C1831 C1832 1.502 . S
C1831 C1833 1.561 . S
C1831 C1834 1.526 . S
C1832 H1816 0.959 . S
C1832 H1817 0.959 . S
C1832 H1818 0.961 . S
C1832 C1831 1.502 . S
C1833 H1819 0.960 . S
C1833 H1820 0.961 . S
C1833 H1821 0.959 . S
C1833 C1831 1.561 . S
C1834 C1831 1.526 . S
C1834 C1835 1.396 . S
C1834 C1839 1.390 . S
C1835 C1829 1.465 . S
C1835 C1834 1.396 . S
C1835 C1836 1.399 . S
C1836 H1822 0.929 . S
C1836 C1835 1.399 . S
C1836 C1837 1.385 . S
C1837 H1823 0.931 . S
C1837 C1836 1.385 . S
C1837 C1838 1.389 . S
C1838 C1837 1.389 . S
C1838 C1839 1.387 . S
C1839 H1824 0.930 . S
C1839 C1834 1.390 . S
C1839 C1838 1.387 . S
H1840 C1852 0.930 . S
H1841 C1854 0.930 . S
H1842 C1855 0.930 . S
H1843 C1859 0.959 . S
H1844 C1859 0.959 . S
H1845 C1859 0.961 . S
H1846 C1860 0.960 . S
H1847 C1860 0.961 . S
H1848 C1860 0.959 . S
H1849 C1863 0.929 . S
H1850 C1864 0.931 . S
H1851 C1866 0.930 . S
C1852 H1840 0.930 . S
C1852 C1853 1.399 . S
C1852 C1857 1.399 . S
C1853 C1852 1.399 . S
C1853 C1854 1.376 . S
C1854 H1841 0.930 . S
C1854 C1853 1.376 . S
C1854 C1855 1.388 . S
C1855 H1842 0.930 . S
C1855 C1854 1.388 . S
C1855 C1856 1.390 . S
C1856 C1855 1.390 . S
C1856 C1857 1.394 . S
C1856 C1862 1.465 . S
C1857 C1852 1.399 . S
C1857 C1856 1.394 . S
C1857 C1858 1.516 . S
C1858 C1857 1.516 . S
C1858 C1859 1.502 . S
C1858 C1860 1.561 . S
C1858 C1861 1.526 . S
C1859 H1843 0.959 . S
C1859 H1844 0.959 . S
C1859 H1845 0.961 . S
C1859 C1858 1.502 . S
C1860 H1846 0.960 . S
C1860 H1847 0.961 . S
C1860 H1848 0.959 . S
C1860 C1858 1.561 . S
C1861 C1858 1.526 . S
C1861 C1862 1.396 . S
C1861 C1866 1.390 . S
C1862 C1856 1.465 . S
C1862 C1861 1.396 . S
C1862 C1863 1.399 . S
C1863 H1849 0.929 . S
C1863 C1862 1.399 . S
C1863 C1864 1.385 . S
C1864 H1850 0.931 . S
C1864 C1863 1.385 . S
C1864 C1865 1.389 . S
C1865 C1864 1.389 . S
C1865 C1866 1.387 . S
C1866 H1851 0.930 . S
C1866 C1861 1.390 . S
C1866 C1865 1.387 . S
H1867 C1879 0.930 . S
H1868 C1881 0.930 . S
H1869 C1882 0.930 . S
H1870 C1886 0.959 . S
H1871 C1886 0.959 . S
H1872 C1886 0.961 . S
H1873 C1887 0.960 . S
H1874 C1887 0.961 . S
H1875 C1887 0.959 . S
H1876 C1890 0.929 . S
H1877 C1891 0.931 . S
H1878 C1893 0.930 . S
C1879 H1867 0.930 . S
C1879 C1880 1.399 . S
C1879 C1884 1.399 . S
C1880 C1879 1.399 . S
C1880 C1881 1.376 . S
C1881 H1868 0.930 . S
C1881 C1880 1.376 . S
C1881 C1882 1.388 . S
C1882 H1869 0.930 . S
C1882 C1881 1.388 . S
C1882 C1883 1.390 . S
C1883 C1882 1.390 . S
C1883 C1884 1.394 . S
C1883 C1889 1.465 . S
C1884 C1879 1.399 . S
C1884 C1883 1.394 . S
C1884 C1885 1.516 . S
C1885 C1884 1.516 . S
C1885 C1886 1.502 . S
C1885 C1887 1.561 . S
C1885 C1888 1.526 . S
C1886 H1870 0.959 . S
C1886 H1871 0.959 . S
C1886 H1872 0.961 . S
C1886 C1885 1.502 . S
C1887 H1873 0.960 . S
C1887 H1874 0.961 . S
C1887 H1875 0.959 . S
C1887 C1885 1.561 . S
C1888 C1885 1.526 . S
C1888 C1889 1.396 . S
C1888 C1893 1.390 . S
C1889 C1883 1.465 . S
C1889 C1888 1.396 . S
C1889 C1890 1.399 . S
C1890 H1876 0.929 . S
C1890 C1889 1.399 . S
C1890 C1891 1.385 . S
C1891 H1877 0.931 . S
C1891 C1890 1.385 . S
C1891 C1892 1.389 . S
C1892 C1891 1.389 . S
C1892 C1893 1.387 . S
C1893 H1878 0.930 . S
C1893 C1888 1.390 . S
C1893 C1892 1.387 . S
H1894 C1906 0.930 . S
H1895 C1908 0.930 . S
H1896 C1909 0.930 . S
H1897 C1913 0.959 . S
H1898 C1913 0.959 . S
H1899 C1913 0.961 . S
H1900 C1914 0.960 . S
H1901 C1914 0.961 . S
H1902 C1914 0.959 . S
H1903 C1917 0.929 . S
H1904 C1918 0.931 . S
H1905 C1920 0.930 . S
C1906 H1894 0.930 . S
C1906 C1907 1.399 . S
C1906 C1911 1.399 . S
C1907 C1906 1.399 . S
C1907 C1908 1.376 . S
C1908 H1895 0.930 . S
C1908 C1907 1.376 . S
C1908 C1909 1.388 . S
C1909 H1896 0.930 . S
C1909 C1908 1.388 . S
C1909 C1910 1.390 . S
C1910 C1909 1.390 . S
C1910 C1911 1.394 . S
C1910 C1916 1.465 . S
C1911 C1906 1.399 . S
C1911 C1910 1.394 . S
C1911 C1912 1.516 . S
C1912 C1911 1.516 . S
C1912 C1913 1.502 . S
C1912 C1914 1.561 . S
C1912 C1915 1.526 . S
C1913 H1897 0.959 . S
C1913 H1898 0.959 . S
C1913 H1899 0.961 . S
C1913 C1912 1.502 . S
C1914 H1900 0.960 . S
C1914 H1901 0.961 . S
C1914 H1902 0.959 . S
C1914 C1912 1.561 . S
C1915 C1912 1.526 . S
C1915 C1916 1.396 . S
C1915 C1920 1.390 . S
C1916 C1910 1.465 . S
C1916 C1915 1.396 . S
C1916 C1917 1.399 . S
C1917 H1903 0.929 . S
C1917 C1916 1.399 . S
C1917 C1918 1.385 . S
C1918 H1904 0.931 . S
C1918 C1917 1.385 . S
C1918 C1919 1.389 . S
C1919 C1918 1.389 . S
C1919 C1920 1.387 . S
C1920 H1905 0.930 . S
C1920 C1915 1.390 . S
C1920 C1919 1.387 . S
H1921 C1933 0.930 . S
H1922 C1935 0.930 . S
H1923 C1936 0.930 . S
H1924 C1940 0.959 . S
H1925 C1940 0.959 . S
H1926 C1940 0.961 . S
H1927 C1941 0.960 . S
H1928 C1941 0.961 . S
H1929 C1941 0.959 . S
H1930 C1944 0.929 . S
H1931 C1945 0.931 . S
H1932 C1947 0.930 . S
C1933 H1921 0.930 . S
C1933 C1934 1.399 . S
C1933 C1938 1.399 . S
C1934 C1933 1.399 . S
C1934 C1935 1.376 . S
C1935 H1922 0.930 . S
C1935 C1934 1.376 . S
C1935 C1936 1.388 . S
C1936 H1923 0.930 . S
C1936 C1935 1.388 . S
C1936 C1937 1.390 . S
C1937 C1936 1.390 . S
C1937 C1938 1.394 . S
C1937 C1943 1.465 . S
C1938 C1933 1.399 . S
C1938 C1937 1.394 . S
C1938 C1939 1.516 . S
C1939 C1938 1.516 . S
C1939 C1940 1.502 . S
C1939 C1941 1.561 . S
C1939 C1942 1.526 . S
C1940 H1924 0.959 . S
C1940 H1925 0.959 . S
C1940 H1926 0.961 . S
C1940 C1939 1.502 . S
C1941 H1927 0.960 . S
C1941 H1928 0.961 . S
C1941 H1929 0.959 . S
C1941 C1939 1.561 . S
C1942 C1939 1.526 . S
C1942 C1943 1.396 . S
C1942 C1947 1.390 . S
C1943 C1937 1.465 . S
C1943 C1942 1.396 . S
C1943 C1944 1.399 . S
C1944 H1930 0.929 . S
C1944 C1943 1.399 . S
C1944 C1945 1.385 . S
C1945 H1931 0.931 . S
C1945 C1944 1.385 . S
C1945 C1946 1.389 . S
C1946 C1945 1.389 . S
C1946 C1947 1.387 . S
C1947 H1932 0.930 . S
C1947 C1942 1.390 . S
C1947 C1946 1.387 . S
H1948 C1960 0.930 . S
H1949 C1962 0.930 . S
H1950 C1963 0.930 . S
H1951 C1967 0.959 . S
H1952 C1967 0.959 . S
H1953 C1967 0.961 . S
H1954 C1968 0.960 . S
H1955 C1968 0.961 . S
H1956 C1968 0.959 . S
H1957 C1971 0.929 . S
H1958 C1972 0.931 . S
H1959 C1974 0.930 . S
C1960 H1948 0.930 . S
C1960 C1961 1.399 . S
C1960 C1965 1.399 . S
C1961 C1960 1.399 . S
C1961 C1962 1.376 . S
C1962 H1949 0.930 . S
C1962 C1961 1.376 . S
C1962 C1963 1.388 . S
C1963 H1950 0.930 . S
C1963 C1962 1.388 . S
C1963 C1964 1.390 . S
C1964 C1963 1.390 . S
C1964 C1965 1.394 . S
C1964 C1970 1.465 . S
C1965 C1960 1.399 . S
C1965 C1964 1.394 . S
C1965 C1966 1.516 . S
C1966 C1965 1.516 . S
C1966 C1967 1.502 . S
C1966 C1968 1.561 . S
C1966 C1969 1.526 . S
C1967 H1951 0.959 . S
C1967 H1952 0.959 . S
C1967 H1953 0.961 . S
C1967 C1966 1.502 . S
C1968 H1954 0.960 . S
C1968 H1955 0.961 . S
C1968 H1956 0.959 . S
C1968 C1966 1.561 . S
C1969 C1966 1.526 . S
C1969 C1970 1.396 . S
C1969 C1974 1.390 . S
C1970 C1964 1.465 . S
C1970 C1969 1.396 . S
C1970 C1971 1.399 . S
C1971 H1957 0.929 . S
C1971 C1970 1.399 . S
C1971 C1972 1.385 . S
C1972 H1958 0.931 . S
C1972 C1971 1.385 . S
C1972 C1973 1.389 . S
C1973 C1972 1.389 . S
C1973 C1974 1.387 . S
C1974 H1959 0.930 . S
C1974 C1969 1.390 . S
C1974 C1973 1.387 . S
H1975 C1987 0.930 . S
H1976 C1989 0.930 . S
H1977 C1990 0.930 . S
H1978 C1994 0.959 . S
H1979 C1994 0.959 . S
H1980 C1994 0.961 . S
H1981 C1995 0.960 . S
H1982 C1995 0.961 . S
H1983 C1995 0.959 . S
H1984 C1998 0.929 . S
H1985 C1999 0.931 . S
H1986 C2001 0.930 . S
C1987 H1975 0.930 . S
C1987 C1988 1.399 . S
C1987 C1992 1.399 . S
C1988 C1987 1.399 . S
C1988 C1989 1.376 . S
C1989 H1976 0.930 . S
C1989 C1988 1.376 . S
C1989 C1990 1.388 . S
C1990 H1977 0.930 . S
C1990 C1989 1.388 . S
C1990 C1991 1.390 . S
C1991 C1990 1.390 . S
C1991 C1992 1.394 . S
C1991 C1997 1.465 . S
C1992 C1987 1.399 . S
C1992 C1991 1.394 . S
C1992 C1993 1.516 . S
C1993 C1992 1.516 . S
C1993 C1994 1.502 . S
C1993 C1995 1.561 . S
C1993 C1996 1.526 . S
C1994 H1978 0.959 . S
C1994 H1979 0.959 . S
C1994 H1980 0.961 . S
C1994 C1993 1.502 . S
C1995 H1981 0.960 . S
C1995 H1982 0.961 . S
C1995 H1983 0.959 . S
C1995 C1993 1.561 . S
C1996 C1993 1.526 . S
C1996 C1997 1.396 . S
C1996 C2001 1.390 . S
C1997 C1991 1.465 . S
C1997 C1996 1.396 . S
C1997 C1998 1.399 . S
C1998 H1984 0.929 . S
C1998 C1997 1.399 . S
C1998 C1999 1.385 . S
C1999 H1985 0.931 . S
C1999 C1998 1.385 . S
C1999 C2000 1.389 . S
C2000 C1999 1.389 . S
C2000 C2001 1.387 . S
C2001 H1986 0.930 . S
C2001 C1996 1.390 . S
C2001 C2000 1.387 . S
H2002 C2014 0.930 . S
H2003 C2016 0.930 . S
H2004 C2017 0.930 . S
H2005 C2021 0.959 . S
H2006 C2021 0.959 . S
H2007 C2021 0.961 . S
H2008 C2022 0.960 . S
H2009 C2022 0.961 . S
H2010 C2022 0.959 . S
H2011 C2025 0.929 . S
H2012 C2026 0.931 . S
H2013 C2028 0.930 . S
C2014 H2002 0.930 . S
C2014 C2015 1.399 . S
C2014 C2019 1.399 . S
C2015 C2014 1.399 . S
C2015 C2016 1.376 . S
C2016 H2003 0.930 . S
C2016 C2015 1.376 . S
C2016 C2017 1.388 . S
C2017 H2004 0.930 . S
C2017 C2016 1.388 . S
C2017 C2018 1.390 . S
C2018 C2017 1.390 . S
C2018 C2019 1.394 . S
C2018 C2024 1.465 . S
C2019 C2014 1.399 . S
C2019 C2018 1.394 . S
C2019 C2020 1.516 . S
C2020 C2019 1.516 . S
C2020 C2021 1.502 . S
C2020 C2022 1.561 . S
C2020 C2023 1.526 . S
C2021 H2005 0.959 . S
C2021 H2006 0.959 . S
C2021 H2007 0.961 . S
C2021 C2020 1.502 . S
C2022 H2008 0.960 . S
C2022 H2009 0.961 . S
C2022 H2010 0.959 . S
C2022 C2020 1.561 . S
C2023 C2020 1.526 . S
C2023 C2024 1.396 . S
C2023 C2028 1.390 . S
C2024 C2018 1.465 . S
C2024 C2023 1.396 . S
C2024 C2025 1.399 . S
C2025 H2011 0.929 . S
C2025 C2024 1.399 . S
C2025 C2026 1.385 . S
C2026 H2012 0.931 . S
C2026 C2025 1.385 . S
C2026 C2027 1.389 . S
C2027 C2026 1.389 . S
C2027 C2028 1.387 . S
C2028 H2013 0.930 . S
C2028 C2023 1.390 . S
C2028 C2027 1.387 . S
H2029 C2041 0.930 . S
H2030 C2043 0.930 . S
H2031 C2044 0.930 . S
H2032 C2048 0.959 . S
H2033 C2048 0.959 . S
H2034 C2048 0.961 . S
H2035 C2049 0.960 . S
H2036 C2049 0.961 . S
H2037 C2049 0.959 . S
H2038 C2052 0.929 . S
H2039 C2053 0.931 . S
H2040 C2055 0.930 . S
C2041 H2029 0.930 . S
C2041 C2042 1.399 . S
C2041 C2046 1.399 . S
C2042 C2041 1.399 . S
C2042 C2043 1.376 . S
C2043 H2030 0.930 . S
C2043 C2042 1.376 . S
C2043 C2044 1.388 . S
C2044 H2031 0.930 . S
C2044 C2043 1.388 . S
C2044 C2045 1.390 . S
C2045 C2044 1.390 . S
C2045 C2046 1.394 . S
C2045 C2051 1.465 . S
C2046 C2041 1.399 . S
C2046 C2045 1.394 . S
C2046 C2047 1.516 . S
C2047 C2046 1.516 . S
C2047 C2048 1.502 . S
C2047 C2049 1.561 . S
C2047 C2050 1.526 . S
C2048 H2032 0.959 . S
C2048 H2033 0.959 . S
C2048 H2034 0.961 . S
C2048 C2047 1.502 . S
C2049 H2035 0.960 . S
C2049 H2036 0.961 . S
C2049 H2037 0.959 . S
C2049 C2047 1.561 . S
C2050 C2047 1.526 . S
C2050 C2051 1.396 . S
C2050 C2055 1.390 . S
C2051 C2045 1.465 . S
C2051 C2050 1.396 . S
C2051 C2052 1.399 . S
C2052 H2038 0.929 . S
C2052 C2051 1.399 . S
C2052 C2053 1.385 . S
C2053 H2039 0.931 . S
C2053 C2052 1.385 . S
C2053 C2054 1.389 . S
C2054 C2053 1.389 . S
C2054 C2055 1.387 . S
C2055 H2040 0.930 . S
C2055 C2050 1.390 . S
C2055 C2054 1.387 . S
H2056 C2068 0.930 . S
H2057 C2070 0.930 . S
H2058 C2071 0.930 . S
H2059 C2075 0.959 . S
H2060 C2075 0.959 . S
H2061 C2075 0.961 . S
H2062 C2076 0.960 . S
H2063 C2076 0.961 . S
H2064 C2076 0.959 . S
H2065 C2079 0.929 . S
H2066 C2080 0.931 . S
H2067 C2082 0.930 . S
C2068 H2056 0.930 . S
C2068 C2069 1.399 . S
C2068 C2073 1.399 . S
C2069 C2068 1.399 . S
C2069 C2070 1.376 . S
C2070 H2057 0.930 . S
C2070 C2069 1.376 . S
C2070 C2071 1.388 . S
C2071 H2058 0.930 . S
C2071 C2070 1.388 . S
C2071 C2072 1.390 . S
C2072 C2071 1.390 . S
C2072 C2073 1.394 . S
C2072 C2078 1.465 . S
C2073 C2068 1.399 . S
C2073 C2072 1.394 . S
C2073 C2074 1.516 . S
C2074 C2073 1.516 . S
C2074 C2075 1.502 . S
C2074 C2076 1.561 . S
C2074 C2077 1.526 . S
C2075 H2059 0.959 . S
C2075 H2060 0.959 . S
C2075 H2061 0.961 . S
C2075 C2074 1.502 . S
C2076 H2062 0.960 . S
C2076 H2063 0.961 . S
C2076 H2064 0.959 . S
C2076 C2074 1.561 . S
C2077 C2074 1.526 . S
C2077 C2078 1.396 . S
C2077 C2082 1.390 . S
C2078 C2072 1.465 . S
C2078 C2077 1.396 . S
C2078 C2079 1.399 . S
C2079 H2065 0.929 . S
C2079 C2078 1.399 . S
C2079 C2080 1.385 . S
C2080 H2066 0.931 . S
C2080 C2079 1.385 . S
C2080 C2081 1.389 . S
C2081 C2080 1.389 . S
C2081 C2082 1.387 . S
C2082 H2067 0.930 . S
C2082 C2077 1.390 . S
C2082 C2081 1.387 . S
H2083 C2095 0.930 . S
H2084 C2097 0.930 . S
H2085 C2098 0.930 . S
H2086 C2102 0.959 . S
H2087 C2102 0.959 . S
H2088 C2102 0.961 . S
H2089 C2103 0.960 . S
H2090 C2103 0.961 . S
H2091 C2103 0.959 . S
H2092 C2106 0.929 . S
H2093 C2107 0.931 . S
H2094 C2109 0.930 . S
C2095 H2083 0.930 . S
C2095 C2096 1.399 . S
C2095 C2100 1.399 . S
C2096 C2095 1.399 . S
C2096 C2097 1.376 . S
C2097 H2084 0.930 . S
C2097 C2096 1.376 . S
C2097 C2098 1.388 . S
C2098 H2085 0.930 . S
C2098 C2097 1.388 . S
C2098 C2099 1.390 . S
C2099 C2098 1.390 . S
C2099 C2100 1.394 . S
C2099 C2105 1.465 . S
C2100 C2095 1.399 . S
C2100 C2099 1.394 . S
C2100 C2101 1.516 . S
C2101 C2100 1.516 . S
C2101 C2102 1.502 . S
C2101 C2103 1.561 . S
C2101 C2104 1.526 . S
C2102 H2086 0.959 . S
C2102 H2087 0.959 . S
C2102 H2088 0.961 . S
C2102 C2101 1.502 . S
C2103 H2089 0.960 . S
C2103 H2090 0.961 . S
C2103 H2091 0.959 . S
C2103 C2101 1.561 . S
C2104 C2101 1.526 . S
C2104 C2105 1.396 . S
C2104 C2109 1.390 . S
C2105 C2099 1.465 . S
C2105 C2104 1.396 . S
C2105 C2106 1.399 . S
C2106 H2092 0.929 . S
C2106 C2105 1.399 . S
C2106 C2107 1.385 . S
C2107 H2093 0.931 . S
C2107 C2106 1.385 . S
C2107 C2108 1.389 . S
C2108 C2107 1.389 . S
C2108 C2109 1.387 . S
C2109 H2094 0.930 . S
C2109 C2104 1.390 . S
C2109 C2108 1.387 . S
H2110 C2122 0.930 . S
H2111 C2124 0.930 . S
H2112 C2125 0.930 . S
H2113 C2129 0.959 . S
H2114 C2129 0.959 . S
H2115 C2129 0.961 . S
H2116 C2130 0.960 . S
H2117 C2130 0.961 . S
H2118 C2130 0.959 . S
H2119 C2133 0.929 . S
H2120 C2134 0.931 . S
H2121 C2136 0.930 . S
C2122 H2110 0.930 . S
C2122 C2123 1.399 . S
C2122 C2127 1.399 . S
C2123 C2122 1.399 . S
C2123 C2124 1.376 . S
C2124 H2111 0.930 . S
C2124 C2123 1.376 . S
C2124 C2125 1.388 . S
C2125 H2112 0.930 . S
C2125 C2124 1.388 . S
C2125 C2126 1.390 . S
C2126 C2125 1.390 . S
C2126 C2127 1.394 . S
C2126 C2132 1.465 . S
C2127 C2122 1.399 . S
C2127 C2126 1.394 . S
C2127 C2128 1.516 . S
C2128 C2127 1.516 . S
C2128 C2129 1.502 . S
C2128 C2130 1.561 . S
C2128 C2131 1.526 . S
C2129 H2113 0.959 . S
C2129 H2114 0.959 . S
C2129 H2115 0.961 . S
C2129 C2128 1.502 . S
C2130 H2116 0.960 . S
C2130 H2117 0.961 . S
C2130 H2118 0.959 . S
C2130 C2128 1.561 . S
C2131 C2128 1.526 . S
C2131 C2132 1.396 . S
C2131 C2136 1.390 . S
C2132 C2126 1.465 . S
C2132 C2131 1.396 . S
C2132 C2133 1.399 . S
C2133 H2119 0.929 . S
C2133 C2132 1.399 . S
C2133 C2134 1.385 . S
C2134 H2120 0.931 . S
C2134 C2133 1.385 . S
C2134 C2135 1.389 . S
C2135 C2134 1.389 . S
C2135 C2136 1.387 . S
C2136 H2121 0.930 . S
C2136 C2131 1.390 . S
C2136 C2135 1.387 . S
H2137 C2149 0.930 . S
H2138 C2151 0.930 . S
H2139 C2152 0.930 . S
H2140 C2156 0.959 . S
H2141 C2156 0.959 . S
H2142 C2156 0.961 . S
H2143 C2157 0.960 . S
H2144 C2157 0.961 . S
H2145 C2157 0.959 . S
H2146 C2160 0.929 . S
H2147 C2161 0.931 . S
H2148 C2163 0.930 . S
C2149 H2137 0.930 . S
C2149 C2150 1.399 . S
C2149 C2154 1.399 . S
C2150 C2149 1.399 . S
C2150 C2151 1.376 . S
C2151 H2138 0.930 . S
C2151 C2150 1.376 . S
C2151 C2152 1.388 . S
C2152 H2139 0.930 . S
C2152 C2151 1.388 . S
C2152 C2153 1.390 . S
C2153 C2152 1.390 . S
C2153 C2154 1.394 . S
C2153 C2159 1.465 . S
C2154 C2149 1.399 . S
C2154 C2153 1.394 . S
C2154 C2155 1.516 . S
C2155 C2154 1.516 . S
C2155 C2156 1.502 . S
C2155 C2157 1.561 . S
C2155 C2158 1.526 . S
C2156 H2140 0.959 . S
C2156 H2141 0.959 . S
C2156 H2142 0.961 . S
C2156 C2155 1.502 . S
C2157 H2143 0.960 . S
C2157 H2144 0.961 . S
C2157 H2145 0.959 . S
C2157 C2155 1.561 . S
C2158 C2155 1.526 . S
C2158 C2159 1.396 . S
C2158 C2163 1.390 . S
C2159 C2153 1.465 . S
C2159 C2158 1.396 . S
C2159 C2160 1.399 . S
C2160 H2146 0.929 . S
C2160 C2159 1.399 . S
C2160 C2161 1.385 . S
C2161 H2147 0.931 . S
C2161 C2160 1.385 . S
C2161 C2162 1.389 . S
C2162 C2161 1.389 . S
C2162 C2163 1.387 . S
C2163 H2148 0.930 . S
C2163 C2158 1.390 . S
C2163 C2162 1.387 . S
H2164 C2176 0.930 . S
H2165 C2178 0.930 . S
H2166 C2179 0.930 . S
H2167 C2183 0.959 . S
H2168 C2183 0.959 . S
H2169 C2183 0.961 . S
H2170 C2184 0.960 . S
H2171 C2184 0.961 . S
H2172 C2184 0.959 . S
H2173 C2187 0.929 . S
H2174 C2188 0.931 . S
H2175 C2190 0.930 . S
C2176 H2164 0.930 . S
C2176 C2177 1.399 . S
C2176 C2181 1.399 . S
C2177 C2176 1.399 . S
C2177 C2178 1.376 . S
C2178 H2165 0.930 . S
C2178 C2177 1.376 . S
C2178 C2179 1.388 . S
C2179 H2166 0.930 . S
C2179 C2178 1.388 . S
C2179 C2180 1.390 . S
C2180 C2179 1.390 . S
C2180 C2181 1.394 . S
C2180 C2186 1.465 . S
C2181 C2176 1.399 . S
C2181 C2180 1.394 . S
C2181 C2182 1.516 . S
C2182 C2181 1.516 . S
C2182 C2183 1.502 . S
C2182 C2184 1.561 . S
C2182 C2185 1.526 . S
C2183 H2167 0.959 . S
C2183 H2168 0.959 . S
C2183 H2169 0.961 . S
C2183 C2182 1.502 . S
C2184 H2170 0.960 . S
C2184 H2171 0.961 . S
C2184 H2172 0.959 . S
C2184 C2182 1.561 . S
C2185 C2182 1.526 . S
C2185 C2186 1.396 . S
C2185 C2190 1.390 . S
C2186 C2180 1.465 . S
C2186 C2185 1.396 . S
C2186 C2187 1.399 . S
C2187 H2173 0.929 . S
C2187 C2186 1.399 . S
C2187 C2188 1.385 . S
C2188 H2174 0.931 . S
C2188 C2187 1.385 . S
C2188 C2189 1.389 . S
C2189 C2188 1.389 . S
C2189 C2190 1.387 . S
C2190 H2175 0.930 . S
C2190 C2185 1.390 . S
C2190 C2189 1.387 . S
H2191 C2203 0.930 . S
H2192 C2205 0.930 . S
H2193 C2206 0.930 . S
H2194 C2210 0.959 . S
H2195 C2210 0.959 . S
H2196 C2210 0.961 . S
H2197 C2211 0.960 . S
H2198 C2211 0.961 . S
H2199 C2211 0.959 . S
H2200 C2214 0.929 . S
H2201 C2215 0.931 . S
H2202 C2217 0.930 . S
C2203 H2191 0.930 . S
C2203 C2204 1.399 . S
C2203 C2208 1.399 . S
C2204 C2203 1.399 . S
C2204 C2205 1.376 . S
C2205 H2192 0.930 . S
C2205 C2204 1.376 . S
C2205 C2206 1.388 . S
C2206 H2193 0.930 . S
C2206 C2205 1.388 . S
C2206 C2207 1.390 . S
C2207 C2206 1.390 . S
C2207 C2208 1.394 . S
C2207 C2213 1.465 . S
C2208 C2203 1.399 . S
C2208 C2207 1.394 . S
C2208 C2209 1.516 . S
C2209 C2208 1.516 . S
C2209 C2210 1.502 . S
C2209 C2211 1.561 . S
C2209 C2212 1.526 . S
C2210 H2194 0.959 . S
C2210 H2195 0.959 . S
C2210 H2196 0.961 . S
C2210 C2209 1.502 . S
C2211 H2197 0.960 . S
C2211 H2198 0.961 . S
C2211 H2199 0.959 . S
C2211 C2209 1.561 . S
C2212 C2209 1.526 . S
C2212 C2213 1.396 . S
C2212 C2217 1.390 . S
C2213 C2207 1.465 . S
C2213 C2212 1.396 . S
C2213 C2214 1.399 . S
C2214 H2200 0.929 . S
C2214 C2213 1.399 . S
C2214 C2215 1.385 . S
C2215 H2201 0.931 . S
C2215 C2214 1.385 . S
C2215 C2216 1.389 . S
C2216 C2215 1.389 . S
C2216 C2217 1.387 . S
C2217 H2202 0.930 . S
C2217 C2212 1.390 . S
C2217 C2216 1.387 . S
H2218 C2230 0.930 . S
H2219 C2232 0.930 . S
H2220 C2233 0.930 . S
H2221 C2237 0.959 . S
H2222 C2237 0.959 . S
H2223 C2237 0.961 . S
H2224 C2238 0.960 . S
H2225 C2238 0.961 . S
H2226 C2238 0.959 . S
H2227 C2241 0.929 . S
H2228 C2242 0.931 . S
H2229 C2244 0.930 . S
C2230 H2218 0.930 . S
C2230 C2231 1.399 . S
C2230 C2235 1.399 . S
C2231 C2230 1.399 . S
C2231 C2232 1.376 . S
C2232 H2219 0.930 . S
C2232 C2231 1.376 . S
C2232 C2233 1.388 . S
C2233 H2220 0.930 . S
C2233 C2232 1.388 . S
C2233 C2234 1.390 . S
C2234 C2233 1.390 . S
C2234 C2235 1.394 . S
C2234 C2240 1.465 . S
C2235 C2230 1.399 . S
C2235 C2234 1.394 . S
C2235 C2236 1.516 . S
C2236 C2235 1.516 . S
C2236 C2237 1.502 . S
C2236 C2238 1.561 . S
C2236 C2239 1.526 . S
C2237 H2221 0.959 . S
C2237 H2222 0.959 . S
C2237 H2223 0.961 . S
C2237 C2236 1.502 . S
C2238 H2224 0.960 . S
C2238 H2225 0.961 . S
C2238 H2226 0.959 . S
C2238 C2236 1.561 . S
C2239 C2236 1.526 . S
C2239 C2240 1.396 . S
C2239 C2244 1.390 . S
C2240 C2234 1.465 . S
C2240 C2239 1.396 . S
C2240 C2241 1.399 . S
C2241 H2227 0.929 . S
C2241 C2240 1.399 . S
C2241 C2242 1.385 . S
C2242 H2228 0.931 . S
C2242 C2241 1.385 . S
C2242 C2243 1.389 . S
C2243 C2242 1.389 . S
C2243 C2244 1.387 . S
C2244 H2229 0.930 . S
C2244 C2239 1.390 . S
C2244 C2243 1.387 . S
H2245 C2257 0.930 . S
H2246 C2259 0.930 . S
H2247 C2260 0.930 . S
H2248 C2264 0.959 . S
H2249 C2264 0.959 . S
H2250 C2264 0.961 . S
H2251 C2265 0.960 . S
H2252 C2265 0.961 . S
H2253 C2265 0.959 . S
H2254 C2268 0.929 . S
H2255 C2269 0.931 . S
H2256 C2271 0.930 . S
C2257 H2245 0.930 . S
C2257 C2258 1.399 . S
C2257 C2262 1.399 . S
C2258 C2257 1.399 . S
C2258 C2259 1.376 . S
C2259 H2246 0.930 . S
C2259 C2258 1.376 . S
C2259 C2260 1.388 . S
C2260 H2247 0.930 . S
C2260 C2259 1.388 . S
C2260 C2261 1.390 . S
C2261 C2260 1.390 . S
C2261 C2262 1.394 . S
C2261 C2267 1.465 . S
C2262 C2257 1.399 . S
C2262 C2261 1.394 . S
C2262 C2263 1.516 . S
C2263 C2262 1.516 . S
C2263 C2264 1.502 . S
C2263 C2265 1.561 . S
C2263 C2266 1.526 . S
C2264 H2248 0.959 . S
C2264 H2249 0.959 . S
C2264 H2250 0.961 . S
C2264 C2263 1.502 . S
C2265 H2251 0.960 . S
C2265 H2252 0.961 . S
C2265 H2253 0.959 . S
C2265 C2263 1.561 . S
C2266 C2263 1.526 . S
C2266 C2267 1.396 . S
C2266 C2271 1.390 . S
C2267 C2261 1.465 . S
C2267 C2266 1.396 . S
C2267 C2268 1.399 . S
C2268 H2254 0.929 . S
C2268 C2267 1.399 . S
C2268 C2269 1.385 . S
C2269 H2255 0.931 . S
C2269 C2268 1.385 . S
C2269 C2270 1.389 . S
C2270 C2269 1.389 . S
C2270 C2271 1.387 . S
C2271 H2256 0.930 . S
C2271 C2266 1.390 . S
C2271 C2270 1.387 . S
C1421 C57 1.051 . S
C1433 C1113 1.148 . S
C1448 C117 1.104 . S
C1460 C489 1.126 . S
C1475 C205 1.154 . S
C1487 C1289 1.069 . S
C1502 C665 1.064 . S
C1514 C313 1.154 . S
C1529 C1252 1.125 . S
C1541 C196 1.102 . S
C1556 C645 1.088 . S
C1568 C321 1.138 . S
C1583 C1076 1.150 . S
C1595 C49 1.077 . S
C1610 C469 1.152 . S
C1622 C108 1.052 . S
C1637 C409 1.156 . S
C1649 C761 1.065 . S
C1664 C577 1.098 . S
C1676 C909 1.091 . S
C1691 C900 1.152 . S
C1703 C557 1.053 . S
C1718 C372 1.116 . S
C1730 C753 1.111 . S
C1745 C1201 1.058 . S
C1757 C841 1.156 . S
C1772 C1025 1.147 . S
C1784 C1377 1.053 . S
C1799 C1017 1.065 . S
C1811 C1340 1.154 . S
C1826 C849 1.066 . S
C1838 C1164 1.153 . S
C1853 C997 1.668 . S
C1865 C20 1.631 . S
C1880 C733 1.668 . S
C1892 C137 1.632 . S
C1907 C225 1.636 . S
C1919 C812 1.625 . S
C1934 C937 1.645 . S
C1946 C293 1.658 . S
C1961 C988 1.647 . S
C1973 C233 1.618 . S
C1988 C284 1.663 . S
C2000 C724 1.623 . S
C2015 C821 1.659 . S
C2027 C29 1.618 . S
C2042 C929 1.625 . S
C2054 C145 1.628 . S
C2069 C401 1.619 . S
C2081 C1349 1.674 . S
C2096 C1085 1.672 . S
C2108 C497 1.614 . S
C2123 C585 1.636 . S
C2135 C1173 1.662 . S
C2150 C673 1.673 . S
C2162 C1261 1.625 . S
C2177 C548 1.647 . S
C2189 C1369 1.638 . S
C2204 C1105 1.657 . S
C2216 C636 1.636 . S
C2231 C1193 1.666 . S
C2243 C381 1.630 . S
C2258 C1281 1.650 . S
C2270 C460 1.642 . S
