# Generated by pormake.
# Topology zfw, (5)-cn, num edge types: 1
# Building blocks:
#     Node 0, Type 0, BuildingBlock: XOMCOT_clean_sbu_1, # of connection points: 5
#     Node 1, Type 0, BuildingBlock: XOMCOT_clean_sbu_1, # of connection points: 5
#     Node 2, Type 0, BuildingBlock: XOMCOT_clean_sbu_1, # of connection points: 5
#     Node 3, Type 0, BuildingBlock: XOMCOT_clean_sbu_1, # of connection points: 5
#     Node 4, Type 0, BuildingBlock: XOMCOT_clean_sbu_1, # of connection points: 5
#     Node 5, Type 0, BuildingBlock: XOMCOT_clean_sbu_1, # of connection points: 5
#     Node 6, Type 0, BuildingBlock: XOMCOT_clean_sbu_1, # of connection points: 5
#     Node 7, Type 0, BuildingBlock: XOMCOT_clean_sbu_1, # of connection points: 5
#     Node 8, Type 0, BuildingBlock: XOMCOT_clean_sbu_1, # of connection points: 5
#     Node 9, Type 0, BuildingBlock: XOMCOT_clean_sbu_1, # of connection points: 5
#     Node 10, Type 0, BuildingBlock: XOMCOT_clean_sbu_1, # of connection points: 5
#     Node 11, Type 0, BuildingBlock: XOMCOT_clean_sbu_1, # of connection points: 5
#     Node 12, Type 0, BuildingBlock: XOMCOT_clean_sbu_1, # of connection points: 5
#     Node 13, Type 0, BuildingBlock: XOMCOT_clean_sbu_1, # of connection points: 5
#     Node 14, Type 0, BuildingBlock: XOMCOT_clean_sbu_1, # of connection points: 5
#     Node 15, Type 0, BuildingBlock: XOMCOT_clean_sbu_1, # of connection points: 5
#     Edge 16, Type (0, 0), BuildingBlock: AJUNOK_clean_linker_0, # of connection points: 2
#     Edge 17, Type (0, 0), BuildingBlock: AJUNOK_clean_linker_0, # of connection points: 2
#     Edge 18, Type (0, 0), BuildingBlock: AJUNOK_clean_linker_0, # of connection points: 2
#     Edge 19, Type (0, 0), BuildingBlock: AJUNOK_clean_linker_0, # of connection points: 2
#     Edge 20, Type (0, 0), BuildingBlock: AJUNOK_clean_linker_0, # of connection points: 2
#     Edge 21, Type (0, 0), BuildingBlock: AJUNOK_clean_linker_0, # of connection points: 2
#     Edge 22, Type (0, 0), BuildingBlock: AJUNOK_clean_linker_0, # of connection points: 2
#     Edge 23, Type (0, 0), BuildingBlock: AJUNOK_clean_linker_0, # of connection points: 2
#     Edge 24, Type (0, 0), BuildingBlock: AJUNOK_clean_linker_0, # of connection points: 2
#     Edge 25, Type (0, 0), BuildingBlock: AJUNOK_clean_linker_0, # of connection points: 2
#     Edge 26, Type (0, 0), BuildingBlock: AJUNOK_clean_linker_0, # of connection points: 2
#     Edge 27, Type (0, 0), BuildingBlock: AJUNOK_clean_linker_0, # of connection points: 2
#     Edge 28, Type (0, 0), BuildingBlock: AJUNOK_clean_linker_0, # of connection points: 2
#     Edge 29, Type (0, 0), BuildingBlock: AJUNOK_clean_linker_0, # of connection points: 2
#     Edge 30, Type (0, 0), BuildingBlock: AJUNOK_clean_linker_0, # of connection points: 2
#     Edge 31, Type (0, 0), BuildingBlock: AJUNOK_clean_linker_0, # of connection points: 2
#     Edge 32, Type (0, 0), BuildingBlock: AJUNOK_clean_linker_0, # of connection points: 2
#     Edge 33, Type (0, 0), BuildingBlock: AJUNOK_clean_linker_0, # of connection points: 2
#     Edge 34, Type (0, 0), BuildingBlock: AJUNOK_clean_linker_0, # of connection points: 2
#     Edge 35, Type (0, 0), BuildingBlock: AJUNOK_clean_linker_0, # of connection points: 2
#     Edge 36, Type (0, 0), BuildingBlock: AJUNOK_clean_linker_0, # of connection points: 2
#     Edge 37, Type (0, 0), BuildingBlock: AJUNOK_clean_linker_0, # of connection points: 2
#     Edge 38, Type (0, 0), BuildingBlock: AJUNOK_clean_linker_0, # of connection points: 2
#     Edge 39, Type (0, 0), BuildingBlock: AJUNOK_clean_linker_0, # of connection points: 2
#     Edge 40, Type (0, 0), BuildingBlock: AJUNOK_clean_linker_0, # of connection points: 2
#     Edge 41, Type (0, 0), BuildingBlock: AJUNOK_clean_linker_0, # of connection points: 2
#     Edge 42, Type (0, 0), BuildingBlock: AJUNOK_clean_linker_0, # of connection points: 2
#     Edge 43, Type (0, 0), BuildingBlock: AJUNOK_clean_linker_0, # of connection points: 2
#     Edge 44, Type (0, 0), BuildingBlock: AJUNOK_clean_linker_0, # of connection points: 2
#     Edge 45, Type (0, 0), BuildingBlock: AJUNOK_clean_linker_0, # of connection points: 2
#     Edge 46, Type (0, 0), BuildingBlock: AJUNOK_clean_linker_0, # of connection points: 2
#     Edge 47, Type (0, 0), BuildingBlock: AJUNOK_clean_linker_0, # of connection points: 2
#     Edge 48, Type (0, 0), BuildingBlock: AJUNOK_clean_linker_0, # of connection points: 2
#     Edge 49, Type (0, 0), BuildingBlock: AJUNOK_clean_linker_0, # of connection points: 2
#     Edge 50, Type (0, 0), BuildingBlock: AJUNOK_clean_linker_0, # of connection points: 2
#     Edge 51, Type (0, 0), BuildingBlock: AJUNOK_clean_linker_0, # of connection points: 2
#     Edge 52, Type (0, 0), BuildingBlock: AJUNOK_clean_linker_0, # of connection points: 2
#     Edge 53, Type (0, 0), BuildingBlock: AJUNOK_clean_linker_0, # of connection points: 2
#     Edge 54, Type (0, 0), BuildingBlock: AJUNOK_clean_linker_0, # of connection points: 2
#     Edge 55, Type (0, 0), BuildingBlock: AJUNOK_clean_linker_0, # of connection points: 2
# Relax obj value: 0.257
# Max RMSD: 0.204
# Mean RMSD: 0.192
data_MOF--net-zfw--node1-XOMCOT_clean_sbu_1--edge1-AJUNOK_clean_linker_0
_symmetry_space_group_name_H-M    P1
_symmetry_Int_Tables_number       1
_symmetry_cell_setting            triclinic
loop_
_symmetry_equiv_pos_as_xyz
'x, y, z'
_cell_length_a     53.355855
_cell_length_b     52.981853
_cell_length_c     13.177905
_cell_angle_alpha  90.106112
_cell_angle_beta   89.976992
_cell_angle_gamma 90.04587
loop_
_atom_site_label
_atom_site_type_symbol
_atom_site_fract_x
_atom_site_fract_y
_atom_site_fract_z
_atom_type_partial_charge
C0 C 0.07599 0.08036 0.3692 0.0
C1 C 0.07463 0.0794 0.47326 0.0
N2 N 0.09806 0.07783 0.51022 0.0
N3 N 0.10026 0.08011 0.34031 0.0
C4 C 0.11317 0.07745 0.42792 0.0
H5 H 0.06045 0.08408 0.31878 0.0
Co6 Co 0.11077 0.09282 0.21398 0.0
C7 C 0.16514 0.10701 0.25207 0.0
O8 O 0.17282 0.09919 0.16265 0.0
N9 N 0.12023 0.10565 0.08664 0.0
C10 C 0.1306 0.12973 0.95444 0.0
C11 C 0.12926 0.12849 0.05927 0.0
C12 C 0.11626 0.0936 0.99776 0.0
N13 N 0.12265 0.1075 0.91656 0.0
O14 O 0.12488 0.06018 0.17502 0.0
H15 H 0.13377 0.14353 0.1118 0.0
H16 H 0.10746 0.0755 0.99153 0.0
O17 O 0.1421 0.10463 0.27611 0.0
C18 C 0.10747 0.04492 0.1483 0.0
O19 O 0.08434 0.05085 0.17268 0.0
N20 N 0.0951 0.12353 0.24642 0.0
C21 C 0.06288 0.1621 0.30651 0.0
C22 C 0.08608 0.15894 0.35453 0.0
C23 C 0.10191 0.1393 0.32395 0.0
C24 C 0.07313 0.12715 0.19588 0.0
C25 C 0.05663 0.14625 0.22519 0.0
H26 H 0.11882 0.13609 0.36662 0.0
H27 H 0.06777 0.11418 0.13622 0.0
H28 H 0.13332 0.07739 0.43204 0.0
H29 H 0.05794 0.08226 0.5186 0.0
H30 H 0.13644 0.1458 0.90964 0.0
H31 H 0.09129 0.17064 0.41865 0.0
H32 H 0.03878 0.14813 0.18678 0.0
C33 C 0.2721 0.7455 0.61404 0.0
C34 C 0.27433 0.74294 0.71758 0.0
N35 N 0.26498 0.7639 0.76113 0.0
N36 N 0.26154 0.76801 0.59267 0.0
C37 C 0.25776 0.77884 0.68414 0.0
H38 H 0.27624 0.73104 0.55857 0.0
Co39 Co 0.24904 0.77708 0.46582 0.0
C40 C 0.24072 0.83018 0.55413 0.0
O41 O 0.26424 0.83721 0.56248 0.0
N42 N 0.23688 0.7855 0.33822 0.0
C43 C 0.22387 0.80614 0.20141 0.0
C44 C 0.22464 0.8063 0.30573 0.0
C45 C 0.24293 0.77288 0.2528 0.0
N46 N 0.2354 0.78508 0.16878 0.0
O47 O 0.28074 0.79263 0.42985 0.0
H48 H 0.21803 0.82149 0.35332 0.0
H49 H 0.25418 0.75593 0.25172 0.0
O50 O 0.23542 0.80835 0.5193 0.0
C51 C 0.29511 0.77567 0.39307 0.0
O52 O 0.28693 0.75229 0.39043 0.0
N53 N 0.21888 0.76021 0.49734 0.0
C54 C 0.17823 0.72961 0.55008 0.0
C55 C 0.1833 0.75182 0.60405 0.0
C56 C 0.2039 0.76665 0.5775 0.0
C57 C 0.21396 0.73889 0.44277 0.0
C58 C 0.19358 0.72341 0.46729 0.0
H59 H 0.2081 0.78283 0.62413 0.0
H60 H 0.22642 0.73333 0.38204 0.0
H61 H 0.24768 0.79623 0.69585 0.0
H62 H 0.28115 0.7265 0.75753 0.0
H63 H 0.21651 0.8209 0.15315 0.0
H64 H 0.17178 0.75743 0.6679 0.0
H65 H 0.19049 0.70622 0.42447 0.0
C66 C 0.59339 0.91883 0.83616 0.0
C67 C 0.59643 0.92089 0.9396 0.0
N68 N 0.57356 0.92087 0.98292 0.0
N69 N 0.56873 0.91741 0.81458 0.0
C70 C 0.55714 0.91964 0.90528 0.0
H71 H 0.60821 0.91629 0.78107 0.0
Co72 Co 0.556 0.90645 0.69008 0.0
C73 C 0.51078 0.87758 0.7481 0.0
O74 O 0.51801 0.85989 0.68451 0.0
N75 N 0.54379 0.89679 0.56131 0.0
C76 C 0.51946 0.89877 0.42387 0.0
C77 C 0.51981 0.89794 0.528 0.0
C78 C 0.55756 0.8979 0.47506 0.0
N79 N 0.54326 0.89891 0.39072 0.0
O80 O 0.54529 0.94035 0.65762 0.0
H81 H 0.50358 0.90117 0.57521 0.0
H82 H 0.57752 0.9014 0.47429 0.0
O83 O 0.52359 0.89798 0.75593 0.0
C84 C 0.56366 0.95078 0.61177 0.0
O85 O 0.58507 0.93852 0.61014 0.0
N86 N 0.56894 0.87352 0.71924 0.0
C87 C 0.59984 0.83378 0.78388 0.0
C88 C 0.58022 0.84254 0.84519 0.0
C89 C 0.56502 0.86231 0.81163 0.0
C90 C 0.5871 0.86421 0.65656 0.0
C91 C 0.60226 0.84401 0.68621 0.0
H92 H 0.55145 0.86984 0.86423 0.0
H93 H 0.59136 0.87345 0.58617 0.0
H94 H 0.53716 0.91788 0.91563 0.0
H95 H 0.61409 0.92077 0.97998 0.0
H96 H 0.50304 0.90127 0.37671 0.0
H97 H 0.57766 0.83542 0.92151 0.0
H98 H 0.61668 0.83742 0.6348 0.0
C99 C 0.40632 0.25745 0.07658 0.0
C100 C 0.40314 0.25943 0.18004 0.0
N101 N 0.40541 0.23621 0.22013 0.0
N102 N 0.41076 0.23312 0.05223 0.0
C103 C 0.4093 0.22059 0.14091 0.0
H104 H 0.40766 0.273 0.02379 0.0
Co105 Co 0.42294 0.22215 0.92728 0.0
C106 C 0.45701 0.18011 0.97996 0.0
O107 O 0.47325 0.19013 0.9167 0.0
N108 N 0.43353 0.21171 0.79838 0.0
C109 C 0.43545 0.18811 0.65836 0.0
C110 C 0.43599 0.18787 0.76237 0.0
C111 C 0.43016 0.22581 0.71411 0.0
N112 N 0.4314 0.21195 0.62847 0.0
O113 O 0.39072 0.2077 0.89473 0.0
H114 H 0.43516 0.1709 0.80737 0.0
H115 H 0.42446 0.24539 0.71573 0.0
O116 O 0.43529 0.19023 0.99024 0.0
C117 C 0.377 0.22514 0.85785 0.0
O118 O 0.38589 0.24826 0.85612 0.0
N119 N 0.4541 0.2386 0.95735 0.0
C120 C 0.49388 0.26993 0.01875 0.0
C121 C 0.48526 0.25039 0.08116 0.0
C122 C 0.46555 0.23502 0.04924 0.0
C123 C 0.46221 0.2576 0.89561 0.0
C124 C 0.48226 0.27319 0.92408 0.0
H125 H 0.45874 0.22102 0.10168 0.0
H126 H 0.45246 0.26175 0.82622 0.0
H127 H 0.41332 0.20073 0.14914 0.0
H128 H 0.40192 0.27679 0.2232 0.0
H129 H 0.43536 0.17175 0.60897 0.0
H130 H 0.4927 0.24773 0.1568 0.0
H131 H 0.48802 0.28825 0.87372 0.0
C132 C 0.07872 0.92059 0.6483 0.0
C133 C 0.07574 0.92536 0.54678 0.0
N134 N 0.09743 0.93451 0.50992 0.0
N135 N 0.10253 0.92578 0.67589 0.0
C136 C 0.11255 0.93656 0.59205 0.0
H137 H 0.06504 0.91152 0.69668 0.0
Co138 Co 0.11526 0.91576 0.80477 0.0
C139 C 0.15984 0.89796 0.66537 0.0
O140 O 0.14983 0.90417 0.57854 0.0
N141 N 0.126 0.90714 0.93489 0.0
C142 C 0.14381 0.89079 0.07222 0.0
C143 C 0.14269 0.88986 0.96757 0.0
C144 C 0.11729 0.91824 0.02036 0.0
N145 N 0.12781 0.90873 0.1049 0.0
O146 O 0.12869 0.94916 0.82824 0.0
H147 H 0.15315 0.87721 0.91894 0.0
H148 H 0.10283 0.93253 0.02105 0.0
O149 O 0.14812 0.90211 0.74923 0.0
C150 C 0.11058 0.96352 0.85429 0.0
O151 O 0.08768 0.95459 0.84585 0.0
N152 N 0.10042 0.88333 0.78812 0.0
C153 C 0.07201 0.83964 0.75269 0.0
C154 C 0.08971 0.84799 0.68177 0.0
C155 C 0.10364 0.86976 0.70103 0.0
C156 C 0.08358 0.87531 0.85913 0.0
C157 C 0.06933 0.85341 0.84331 0.0
H158 H 0.11527 0.87695 0.64163 0.0
H159 H 0.08027 0.8865 0.92646 0.0
H160 H 0.13146 0.94385 0.58857 0.0
H161 H 0.06 0.9193 0.50091 0.0
H162 H 0.15543 0.87913 0.12045 0.0
H163 H 0.09166 0.83883 0.60867 0.0
H164 H 0.05568 0.84785 0.89985 0.0
C165 C 0.39581 0.7596 0.91327 0.0
C166 C 0.39585 0.75773 0.80869 0.0
N167 N 0.41745 0.76768 0.7742 0.0
N168 N 0.41719 0.771 0.94383 0.0
C169 C 0.42968 0.77579 0.85702 0.0
H170 H 0.38117 0.75279 0.96266 0.0
Co171 Co 0.43111 0.77809 0.07105 0.0
C172 C 0.44234 0.83395 0.03475 0.0
O173 O 0.43442 0.84291 0.12202 0.0
N174 N 0.44548 0.78502 0.19662 0.0
C175 C 0.46658 0.80017 0.32924 0.0
C176 C 0.4645 0.8004 0.22478 0.0
C177 C 0.43709 0.77508 0.28406 0.0
N178 N 0.44905 0.78433 0.36551 0.0
O179 O 0.39935 0.79192 0.11992 0.0
H180 H 0.47574 0.81157 0.17347 0.0
H181 H 0.42237 0.76129 0.28892 0.0
O182 O 0.44162 0.81034 0.01663 0.0
C183 C 0.38614 0.77416 0.15822 0.0
O184 O 0.39399 0.75085 0.14566 0.0
N185 N 0.46101 0.76254 0.02936 0.0
C186 C 0.50093 0.73268 0.96361 0.0
C187 C 0.50301 0.7591 0.9646 0.0
C188 C 0.48282 0.7738 0.99882 0.0
C189 C 0.45879 0.73696 0.02921 0.0
C190 C 0.4784 0.7217 0.99601 0.0
H191 H 0.48468 0.7941 0.99927 0.0
H192 H 0.44138 0.72841 0.05349 0.0
H193 H 0.44751 0.78542 0.8545 0.0
H194 H 0.38134 0.74942 0.76192 0.0
H195 H 0.47921 0.81146 0.37491 0.0
H196 H 0.52014 0.76826 0.94021 0.0
H197 H 0.47584 0.70141 0.99473 0.0
C198 C 0.596 0.08294 0.17257 0.0
C199 C 0.59877 0.07995 0.06952 0.0
N200 N 0.57595 0.07603 0.02878 0.0
N201 N 0.57146 0.08149 0.19641 0.0
C202 C 0.55985 0.07632 0.10791 0.0
H203 H 0.61067 0.08792 0.22558 0.0
Co204 Co 0.55814 0.09115 0.3214 0.0
C205 C 0.51327 0.12206 0.2677 0.0
O206 O 0.51963 0.13768 0.34091 0.0
N207 N 0.54556 0.09933 0.45065 0.0
C208 C 0.52087 0.09471 0.58613 0.0
C209 C 0.52152 0.09702 0.48235 0.0
C210 C 0.55912 0.09742 0.53715 0.0
N211 N 0.5446 0.09457 0.62016 0.0
O212 O 0.54597 0.05739 0.34467 0.0
H213 H 0.50555 0.09416 0.43333 0.0
H214 H 0.57917 0.09469 0.53851 0.0
O215 O 0.52627 0.10194 0.25336 0.0
C216 C 0.56398 0.04506 0.38459 0.0
O217 O 0.58603 0.05607 0.39008 0.0
N218 N 0.57251 0.1238 0.30123 0.0
C219 C 0.60454 0.16327 0.24462 0.0
C220 C 0.5833 0.15763 0.18695 0.0
C221 C 0.56789 0.13751 0.21509 0.0
C222 C 0.59275 0.12974 0.35999 0.0
C223 C 0.60895 0.14945 0.33332 0.0
H224 H 0.55372 0.13169 0.16188 0.0
H225 H 0.59788 0.11785 0.42267 0.0
H226 H 0.53979 0.07455 0.10065 0.0
H227 H 0.616 0.0822 0.02702 0.0
H228 H 0.50434 0.09154 0.632 0.0
H229 H 0.57972 0.16741 0.11628 0.0
H230 H 0.62549 0.15301 0.37881 0.0
C231 C 0.28362 0.23818 0.34647 0.0
C232 C 0.28578 0.23761 0.24221 0.0
N233 N 0.26655 0.22402 0.20478 0.0
N234 N 0.2629 0.22529 0.37395 0.0
C235 C 0.25301 0.21682 0.28585 0.0
H236 H 0.29537 0.24882 0.39786 0.0
Co237 Co 0.2473 0.22482 0.50013 0.0
C238 C 0.22954 0.17061 0.50389 0.0
O239 O 0.23519 0.16621 0.59915 0.0
N240 N 0.2313 0.22493 0.62988 0.0
C241 C 0.21146 0.24069 0.76498 0.0
C242 C 0.21337 0.24128 0.66125 0.0
C243 C 0.23954 0.21432 0.71745 0.0
N244 N 0.22809 0.22388 0.80025 0.0
O245 O 0.27715 0.21033 0.56067 0.0
H246 H 0.20381 0.25483 0.61415 0.0
H247 H 0.25545 0.20176 0.72229 0.0
O248 O 0.2338 0.19212 0.46511 0.0
C249 C 0.28929 0.228 0.60489 0.0
O250 O 0.2812 0.25125 0.59342 0.0
N251 N 0.21936 0.24092 0.44234 0.0
C252 C 0.17959 0.27191 0.38572 0.0
C253 C 0.17599 0.24585 0.39728 0.0
C254 C 0.19617 0.23058 0.42652 0.0
C255 C 0.2234 0.26597 0.42578 0.0
C256 C 0.20376 0.28184 0.3978 0.0
H257 H 0.19274 0.21084 0.44122 0.0
H258 H 0.24182 0.27385 0.43921 0.0
H259 H 0.23493 0.20764 0.28024 0.0
H260 H 0.29946 0.24769 0.19703 0.0
H261 H 0.20043 0.25337 0.8115 0.0
H262 H 0.15754 0.23759 0.38851 0.0
H263 H 0.20728 0.30183 0.3882 0.0
C264 C 0.89692 0.24751 0.38492 0.0
C265 C 0.89342 0.24647 0.28144 0.0
N266 N 0.89643 0.26989 0.24378 0.0
N267 N 0.90233 0.27144 0.41207 0.0
C268 C 0.90099 0.28475 0.32491 0.0
H269 H 0.89805 0.23148 0.43543 0.0
Co270 Co 0.91625 0.28109 0.53664 0.0
C271 C 0.95266 0.32014 0.46516 0.0
O272 O 0.97062 0.30886 0.51586 0.0
N273 N 0.92869 0.29054 0.66383 0.0
C274 C 0.93454 0.31384 0.80244 0.0
C275 C 0.93603 0.31342 0.69836 0.0
C276 C 0.92235 0.2777 0.74859 0.0
N277 N 0.9255 0.29147 0.8339 0.0
O278 O 0.88548 0.29786 0.57438 0.0
H279 H 0.93937 0.32987 0.65226 0.0
H280 H 0.91385 0.25919 0.74652 0.0
O281 O 0.93003 0.31212 0.47185 0.0
C282 C 0.8701 0.28144 0.60822 0.0
O283 O 0.87609 0.25748 0.60001 0.0
N284 N 0.94589 0.26234 0.50386 0.0
C285 C 0.98644 0.23139 0.4514 0.0
C286 C 0.97695 0.24892 0.38242 0.0
C287 C 0.95643 0.26377 0.40935 0.0
C288 C 0.95455 0.24475 0.57095 0.0
C289 C 0.97487 0.22915 0.54639 0.0
H290 H 0.94881 0.27625 0.35313 0.0
H291 H 0.94534 0.24201 0.64277 0.0
H292 H 0.90595 0.30448 0.31874 0.0
H293 H 0.89163 0.22944 0.23648 0.0
H294 H 0.93759 0.33017 0.8504 0.0
H295 H 0.98478 0.25052 0.30682 0.0
H296 H 0.98127 0.21523 0.60063 0.0
C297 C 0.77673 0.74875 0.94414 0.0
C298 C 0.77675 0.75073 0.83981 0.0
N299 N 0.75645 0.73852 0.80454 0.0
N300 N 0.75673 0.73489 0.9737 0.0
C301 C 0.74494 0.729 0.88642 0.0
H302 H 0.7903 0.75733 0.99392 0.0
Co303 Co 0.74389 0.72636 0.10105 0.0
C304 C 0.73443 0.67044 0.06495 0.0
O305 O 0.74209 0.66219 0.15357 0.0
N306 N 0.73076 0.71828 0.22678 0.0
C307 C 0.70884 0.70413 0.35862 0.0
C308 C 0.71084 0.70406 0.25416 0.0
C309 C 0.74007 0.72717 0.31462 0.0
N310 N 0.72742 0.71867 0.39563 0.0
O311 O 0.77634 0.7133 0.14302 0.0
H312 H 0.69868 0.69414 0.20199 0.0
H313 H 0.75572 0.73997 0.32009 0.0
O314 O 0.73454 0.69394 0.04517 0.0
C315 C 0.79059 0.73075 0.17684 0.0
O316 O 0.7821 0.75404 0.17748 0.0
N317 N 0.71308 0.74077 0.06344 0.0
C318 C 0.67432 0.76923 0.9795 0.0
C319 C 0.67325 0.74275 0.97869 0.0
C320 C 0.69279 0.72877 0.02198 0.0
C321 C 0.71346 0.76636 0.07178 0.0
C322 C 0.69421 0.78095 0.03105 0.0
H323 H 0.69214 0.70844 0.01674 0.0
H324 H 0.72947 0.77552 0.10624 0.0
H325 H 0.7281 0.71774 0.88253 0.0
H326 H 0.79032 0.7607 0.79372 0.0
H327 H 0.69525 0.6939 0.40362 0.0
H328 H 0.65807 0.73294 0.94082 0.0
H329 H 0.69529 0.8013 0.03725 0.0
C330 C 0.76061 0.24565 0.13512 0.0
C331 C 0.76327 0.24292 0.23835 0.0
N332 N 0.76448 0.26607 0.28043 0.0
N333 N 0.75959 0.27043 0.11224 0.0
C334 C 0.76297 0.28237 0.20186 0.0
H335 H 0.75709 0.2306 0.08144 0.0
Co336 Co 0.74735 0.28239 0.98823 0.0
C337 C 0.71469 0.32541 0.04539 0.0
O338 O 0.69831 0.31651 0.97992 0.0
N339 N 0.73648 0.29364 0.85924 0.0
C340 C 0.73819 0.3184 0.72244 0.0
C341 C 0.73639 0.31785 0.82631 0.0
C342 C 0.73903 0.27994 0.77273 0.0
N343 N 0.74036 0.29455 0.68897 0.0
O344 O 0.77969 0.29641 0.95336 0.0
H345 H 0.73833 0.33431 0.87405 0.0
H346 H 0.74347 0.26004 0.7719 0.0
O347 O 0.736 0.31439 0.05515 0.0
C348 C 0.79131 0.27929 0.90391 0.0
O349 O 0.78235 0.25619 0.90789 0.0
N350 N 0.71607 0.26649 0.01878 0.0
C351 C 0.67711 0.2346 0.08124 0.0
C352 C 0.68414 0.25534 0.14039 0.0
C353 C 0.70397 0.27067 0.10909 0.0
C354 C 0.70904 0.24656 0.95943 0.0
C355 C 0.68954 0.23045 0.989 0.0
H356 H 0.71053 0.2849 0.16133 0.0
H357 H 0.71957 0.24194 0.89225 0.0
H358 H 0.76218 0.30257 0.21049 0.0
H359 H 0.7624 0.22535 0.28 0.0
H360 H 0.73998 0.33514 0.67601 0.0
H361 H 0.67544 0.25872 0.21346 0.0
H362 H 0.68486 0.21432 0.94205 0.0
C363 C 0.8945 0.74094 0.63727 0.0
C364 C 0.89348 0.74077 0.74187 0.0
N365 N 0.91405 0.72886 0.77591 0.0
N366 N 0.9156 0.72905 0.60641 0.0
C367 C 0.92694 0.72199 0.69317 0.0
H368 H 0.88079 0.74959 0.58826 0.0
Co369 Co 0.92952 0.72322 0.47863 0.0
C370 C 0.93769 0.66754 0.4915 0.0
O371 O 0.92792 0.66317 0.4017 0.0
N372 N 0.94391 0.71726 0.35215 0.0
C373 C 0.9662 0.70243 0.222 0.0
C374 C 0.96453 0.70382 0.32643 0.0
C375 C 0.93408 0.72453 0.263 0.0
N376 N 0.94666 0.71518 0.18337 0.0
O377 O 0.8974 0.7107 0.42834 0.0
H378 H 0.97696 0.69473 0.37981 0.0
H379 H 0.9178 0.73627 0.25516 0.0
O380 O 0.93927 0.69001 0.52524 0.0
C381 C 0.8846 0.72926 0.39452 0.0
O382 O 0.89378 0.7521 0.40719 0.0
N383 N 0.95968 0.73771 0.52322 0.0
C384 C 0.99874 0.76712 0.6009 0.0
C385 C 0.99969 0.74063 0.60628 0.0
C386 C 0.98004 0.72616 0.56567 0.0
C387 C 0.95891 0.76325 0.51406 0.0
C388 C 0.9782 0.77828 0.55189 0.0
H389 H 0.98082 0.70586 0.57237 0.0
H390 H 0.94276 0.77202 0.47929 0.0
H391 H 0.9445 0.71191 0.69638 0.0
H392 H 0.87918 0.74931 0.78903 0.0
H393 H 0.97992 0.69204 0.17819 0.0
H394 H 0.01497 0.73116 0.64444 0.0
H395 H 0.97685 0.79858 0.54407 0.0
C396 C 0.58788 0.57511 0.8679 0.0
C397 C 0.58479 0.57214 0.97096 0.0
N398 N 0.60732 0.57506 0.01574 0.0
N399 N 0.61219 0.57987 0.84793 0.0
C400 C 0.62364 0.57891 0.93912 0.0
H401 H 0.57308 0.57556 0.81186 0.0
Co402 Co 0.62398 0.59172 0.72375 0.0
C403 C 0.6676 0.62354 0.78052 0.0
O404 O 0.65935 0.64086 0.71756 0.0
N405 N 0.63515 0.60214 0.59531 0.0
C406 C 0.65898 0.60196 0.45636 0.0
C407 C 0.65898 0.60327 0.56032 0.0
C408 C 0.62122 0.59908 0.51046 0.0
N409 N 0.63519 0.59901 0.42497 0.0
O410 O 0.63751 0.55904 0.69127 0.0
H411 H 0.67566 0.60183 0.6062 0.0
H412 H 0.60172 0.59353 0.51231 0.0
O413 O 0.65584 0.60253 0.78873 0.0
C414 C 0.62123 0.54533 0.6465 0.0
O415 O 0.59799 0.5535 0.64341 0.0
N416 N 0.6087 0.62358 0.75332 0.0
C417 C 0.5778 0.66354 0.81571 0.0
C418 C 0.59826 0.65601 0.87469 0.0
C419 C 0.61314 0.63582 0.84325 0.0
C420 C 0.5893 0.63128 0.6933 0.0
C421 C 0.57381 0.6514 0.72246 0.0
H422 H 0.62733 0.62924 0.895 0.0
H423 H 0.58459 0.62086 0.62573 0.0
H424 H 0.64322 0.58306 0.95055 0.0
H425 H 0.56717 0.56927 0.00992 0.0
H426 H 0.67542 0.60108 0.40833 0.0
H427 H 0.60207 0.6649 0.94716 0.0
H428 H 0.55791 0.65636 0.67547 0.0
C429 C 0.05104 0.44408 0.31945 0.0
C430 C 0.04883 0.44412 0.42382 0.0
N431 N 0.041 0.42107 0.45311 0.0
N432 N 0.04446 0.42113 0.28405 0.0
C433 C 0.038 0.40781 0.36699 0.0
H434 H 0.05863 0.45916 0.27353 0.0
Co435 Co 0.04932 0.40715 0.15648 0.0
C436 C 0.99656 0.39526 0.20302 0.0
O437 O 0.99196 0.41938 0.21695 0.0
N438 N 0.05461 0.39314 0.02917 0.0
C439 C 0.07512 0.38073 0.89169 0.0
C440 C 0.07662 0.38403 0.99469 0.0
C441 C 0.03998 0.3951 0.94609 0.0
N442 N 0.05213 0.38791 0.86103 0.0
O443 O 0.03274 0.43554 0.09308 0.0
H444 H 0.09341 0.38202 0.03982 0.0
H445 H 0.02161 0.40375 0.94666 0.0
O446 O 0.01815 0.38843 0.17119 0.0
C447 C 0.04979 0.44957 0.0554 0.0
O448 O 0.07328 0.44412 0.07586 0.0
N449 N 0.06762 0.38052 0.21557 0.0
C450 C 0.10071 0.34383 0.28784 0.0
C451 C 0.07748 0.33695 0.24606 0.0
C452 C 0.06127 0.3556 0.20948 0.0
C453 C 0.08998 0.38758 0.25663 0.0
C454 C 0.10681 0.36958 0.29296 0.0
H455 H 0.04424 0.34991 0.17229 0.0
H456 H 0.09515 0.40733 0.25786 0.0
H457 H 0.03261 0.38813 0.36444 0.0
H458 H 0.05444 0.4592 0.47456 0.0
H459 H 0.09062 0.37602 0.84214 0.0
H460 H 0.07209 0.31729 0.23965 0.0
H461 H 0.12485 0.37581 0.32109 0.0
C462 C 0.59472 0.44887 0.17414 0.0
C463 C 0.59395 0.45106 0.0697 0.0
N464 N 0.60352 0.42973 0.02973 0.0
N465 N 0.60484 0.42636 0.1983 0.0
C466 C 0.61006 0.4153 0.1088 0.0
H467 H 0.58785 0.46248 0.22875 0.0
Co468 Co 0.60901 0.41171 0.32367 0.0
C469 C 0.66326 0.39503 0.31171 0.0
O470 O 0.66902 0.40036 0.40626 0.0
N471 N 0.61277 0.39739 0.44978 0.0
C472 C 0.62148 0.37436 0.5858 0.0
C473 C 0.62144 0.37478 0.48108 0.0
C474 C 0.60724 0.41006 0.53537 0.0
N475 N 0.61285 0.39679 0.61901 0.0
O476 O 0.62345 0.44256 0.3756 0.0
H477 H 0.62794 0.35988 0.43147 0.0
H478 H 0.59929 0.42884 0.53624 0.0
O479 O 0.64124 0.39932 0.27873 0.0
C480 C 0.64141 0.45823 0.38535 0.0
O481 O 0.66279 0.45419 0.33875 0.0
N482 N 0.59276 0.38236 0.27639 0.0
C483 C 0.56267 0.34421 0.19405 0.0
C484 C 0.58893 0.34221 0.19261 0.0
C485 C 0.60366 0.36131 0.23553 0.0
C486 C 0.56735 0.38439 0.2805 0.0
C487 C 0.55196 0.36555 0.24015 0.0
H488 H 0.62378 0.35939 0.23225 0.0
H489 H 0.55901 0.40111 0.31348 0.0
H490 H 0.61823 0.39674 0.10112 0.0
H491 H 0.58621 0.4666 0.02674 0.0
H492 H 0.62799 0.35914 0.63369 0.0
H493 H 0.59812 0.32643 0.15603 0.0
H494 H 0.53182 0.3678 0.2443 0.0
C495 C 0.08081 0.55764 0.59414 0.0
C496 C 0.08289 0.55656 0.4902 0.0
N497 N 0.06578 0.57237 0.45101 0.0
N498 N 0.06217 0.57374 0.61938 0.0
C499 C 0.05365 0.58254 0.53017 0.0
H500 H 0.09324 0.54843 0.64684 0.0
Co501 Co 0.05365 0.58611 0.74588 0.0
C502 C 0.99929 0.59692 0.7142 0.0
O503 O 0.99247 0.58378 0.794 0.0
N504 N 0.04597 0.59863 0.87189 0.0
C505 C 0.03124 0.61833 0.00799 0.0
C506 C 0.03118 0.61776 0.90344 0.0
C507 C 0.05553 0.58869 0.95693 0.0
N508 N 0.04636 0.59971 0.04082 0.0
O509 O 0.03772 0.55427 0.78086 0.0
H510 H 0.0209 0.63034 0.85415 0.0
H511 H 0.06943 0.57394 0.95727 0.0
O512 O 0.02239 0.59901 0.69122 0.0
C513 C 0.05323 0.53774 0.81236 0.0
O514 O 0.07708 0.54373 0.81718 0.0
N515 N 0.07068 0.61595 0.71552 0.0
C516 C 0.10305 0.65578 0.67112 0.0
C517 C 0.07764 0.65702 0.64399 0.0
C518 C 0.06162 0.63687 0.66735 0.0
C519 C 0.09522 0.61453 0.74286 0.0
C520 C 0.11175 0.63418 0.72125 0.0
H521 H 0.04219 0.63808 0.6451 0.0
H522 H 0.10206 0.59769 0.77998 0.0
H523 H 0.0396 0.59707 0.52258 0.0
H524 H 0.09673 0.54611 0.44719 0.0
H525 H 0.02069 0.63109 0.05594 0.0
H526 H 0.07026 0.67338 0.60494 0.0
H527 H 0.13133 0.63218 0.74136 0.0
C528 C 0.21957 0.14857 0.34008 0.0
C529 C 0.21472 0.15218 0.44412 0.0
C530 C 0.20404 0.13316 0.27977 0.0
C531 C 0.18254 0.12139 0.3203 0.0
H532 H 0.23538 0.15793 0.3048 0.0
H533 H 0.20847 0.13122 0.19993 0.0
S534 S 0.16148 0.12576 0.5892 0.0
N535 N 0.18734 0.14277 0.58561 0.0
N536 N 0.15748 0.11503 0.47273 0.0
C537 C 0.17764 0.12501 0.42474 0.0
C538 C 0.19389 0.14005 0.48647 0.0
C539 C 0.22475 0.86902 0.64672 0.0
C540 C 0.21991 0.84665 0.59141 0.0
C541 C 0.20509 0.88497 0.6791 0.0
C542 C 0.17995 0.87885 0.65863 0.0
H543 H 0.24387 0.87459 0.66298 0.0
H544 H 0.20963 0.90267 0.71601 0.0
S545 S 0.15678 0.82253 0.51957 0.0
N546 N 0.18752 0.81967 0.51854 0.0
N547 N 0.15123 0.84875 0.58304 0.0
C548 C 0.17488 0.85621 0.60706 0.0
C549 C 0.19465 0.84034 0.57253 0.0
C550 C 0.49258 0.8763 0.92396 0.0
C551 C 0.49004 0.87176 0.81906 0.0
C552 C 0.47574 0.86565 0.99423 0.0
C553 C 0.45588 0.85016 0.96161 0.0
H554 H 0.50863 0.8865 0.95272 0.0
H555 H 0.47936 0.86807 0.07456 0.0
S556 S 0.43842 0.83657 0.69477 0.0
N557 N 0.46435 0.85346 0.68594 0.0
N558 N 0.43251 0.83401 0.81737 0.0
C559 C 0.45202 0.84727 0.85678 0.0
C560 C 0.46917 0.85791 0.78565 0.0
C561 C 0.47512 0.14726 0.22389 0.0
C562 C 0.49456 0.13106 0.19194 0.0
C563 C 0.46094 0.16127 0.15383 0.0
C564 C 0.46608 0.16007 0.04934 0.0
H565 H 0.47174 0.15022 0.30412 0.0
H566 H 0.44731 0.17452 0.1825 0.0
S567 S 0.5125 0.11841 0.92438 0.0
N568 N 0.51602 0.11279 0.04665 0.0
N569 N 0.4898 0.13941 0.91615 0.0
C570 C 0.48402 0.14256 0.01586 0.0
C571 C 0.49815 0.12798 0.08682 0.0
C572 C 0.01082 0.80508 0.70357 0.0
C573 C 0.01826 0.78352 0.64853 0.0
C574 C 0.02839 0.82241 0.74098 0.0
C575 C 0.05425 0.81892 0.72564 0.0
H576 H 0.99113 0.80893 0.71613 0.0
H577 H 0.02151 0.83924 0.77848 0.0
S578 S 0.08391 0.76422 0.59625 0.0
N579 N 0.05351 0.75884 0.58616 0.0
N580 N 0.0866 0.79099 0.65973 0.0
C581 C 0.06209 0.79676 0.6755 0.0
C582 C 0.04412 0.77913 0.63659 0.0
C583 C 0.00284 0.18795 0.41997 0.0
C584 C 0.00693 0.21416 0.42039 0.0
C585 C 0.0211 0.1713 0.38288 0.0
C586 C 0.04424 0.18026 0.34655 0.0
H587 H 0.98512 0.18032 0.44597 0.0
H588 H 0.0171 0.15125 0.38254 0.0
S589 S 0.06457 0.24709 0.33516 0.0
N590 N 0.03596 0.2483 0.38312 0.0
N591 N 0.07057 0.21686 0.31563 0.0
C592 C 0.04884 0.20635 0.34884 0.0
C593 C 0.03007 0.22335 0.38502 0.0
C594 C 0.61672 0.20668 0.18673 0.0
C595 C 0.62337 0.18144 0.20555 0.0
C596 C 0.63416 0.22387 0.14638 0.0
C597 C 0.65861 0.21616 0.12094 0.0
H598 H 0.59797 0.21312 0.20406 0.0
H599 H 0.62844 0.24324 0.13415 0.0
S600 S 0.68509 0.15201 0.15384 0.0
N601 N 0.65596 0.14957 0.19517 0.0
N602 N 0.68858 0.18167 0.11802 0.0
C603 C 0.66538 0.19092 0.13865 0.0
C604 C 0.6478 0.1736 0.18128 0.0
C605 C 0.61178 0.79543 0.88653 0.0
C606 C 0.61903 0.81614 0.82609 0.0
C607 C 0.62967 0.77996 0.93412 0.0
C608 C 0.65551 0.78468 0.92365 0.0
H609 H 0.5921 0.79129 0.89807 0.0
H610 H 0.62319 0.76462 0.98159 0.0
S611 S 0.68454 0.83555 0.76987 0.0
N612 N 0.65411 0.84014 0.75777 0.0
N613 N 0.68747 0.81042 0.84262 0.0
C614 C 0.66301 0.80476 0.86079 0.0
C615 C 0.64488 0.82061 0.81317 0.0
C616 C 0.70246 0.63723 0.02546 0.0
C617 C 0.72162 0.65349 0.99224 0.0
C618 C 0.68598 0.62583 0.95572 0.0
C619 C 0.68817 0.63037 0.85077 0.0
H620 H 0.69904 0.63478 0.10589 0.0
H621 H 0.6704 0.61506 0.98504 0.0
S622 S 0.73813 0.6675 0.72487 0.0
N623 N 0.74416 0.67037 0.84729 0.0
N624 N 0.71287 0.64958 0.71682 0.0
C625 C 0.70841 0.64501 0.81668 0.0
C626 C 0.72524 0.65638 0.88729 0.0
C627 C 0.67737 0.38134 0.13948 0.0
C628 C 0.68065 0.38057 0.24543 0.0
C629 C 0.68992 0.36449 0.0751 0.0
C630 C 0.70648 0.34622 0.11355 0.0
H631 H 0.66421 0.39446 0.10605 0.0
H632 H 0.6858 0.3651 0.99461 0.0
S633 S 0.72269 0.33707 0.38499 0.0
N634 N 0.70272 0.36085 0.38566 0.0
N635 N 0.7262 0.32911 0.26466 0.0
C636 C 0.71107 0.34617 0.21879 0.0
C637 C 0.69822 0.36339 0.2847 0.0
C638 C 0.96481 0.38297 0.33562 0.0
C639 C 0.98052 0.37603 0.25385 0.0
C640 C 0.95444 0.36468 0.40088 0.0
C641 C 0.95977 0.33894 0.38742 0.0
H642 H 0.96169 0.40269 0.35321 0.0
H643 H 0.94344 0.37081 0.46548 0.0
S644 S 0.99648 0.31062 0.17684 0.0
N645 N 0.99729 0.34125 0.15455 0.0
N646 N 0.9801 0.30735 0.28219 0.0
C647 C 0.97424 0.33174 0.3031 0.0
C648 C 0.98394 0.35016 0.23479 0.0
C649 C 0.96654 0.63044 0.49746 0.0
C650 C 0.9504 0.64718 0.54825 0.0
C651 C 0.98177 0.61358 0.55176 0.0
C652 C 0.98088 0.61245 0.65842 0.0
H653 H 0.96835 0.63123 0.41562 0.0
H654 H 0.99461 0.60163 0.51003 0.0
S655 S 0.94049 0.65119 0.82645 0.0
N656 N 0.93359 0.66084 0.71068 0.0
N657 N 0.96177 0.6288 0.81242 0.0
C658 C 0.96397 0.62827 0.70969 0.0
C659 C 0.94886 0.64576 0.65462 0.0
C660 C 0.50933 0.31434 0.0434 0.0
C661 C 0.51304 0.28824 0.05681 0.0
C662 C 0.52565 0.33213 0.08655 0.0
C663 C 0.54636 0.32468 0.14562 0.0
H664 H 0.49323 0.32119 1.00169 0.0
H665 H 0.52188 0.35197 0.07393 0.0
S666 S 0.56514 0.25865 0.20041 0.0
N667 N 0.53995 0.25582 0.12859 0.0
N668 N 0.56984 0.28926 0.21396 0.0
C669 C 0.55061 0.29864 0.15804 0.0
C670 C 0.53414 0.28048 0.11295 0.0
C671 C 0.53331 0.71978 0.8343 0.0
C672 C 0.522 0.7163 0.92984 0.0
C673 C 0.55149 0.7028 0.79771 0.0
C674 C 0.55932 0.68204 0.85626 0.0
H675 H 0.52754 0.73528 0.78639 0.0
H676 H 0.55941 0.70587 0.72305 0.0
S677 S 0.53619 0.66535 0.11318 0.0
N678 N 0.52067 0.69121 0.08361 0.0
N679 N 0.55447 0.65924 0.01509 0.0
C680 C 0.54855 0.67878 0.95289 0.0
C681 C 0.53003 0.69593 0.9896 0.0
C682 C 0.14067 0.70245 0.5134 0.0
C683 C 0.15804 0.71216 0.58374 0.0
C684 C 0.12229 0.68495 0.54301 0.0
C685 C 0.12082 0.6763 0.64378 0.0
H686 H 0.14142 0.70829 0.43471 0.0
H687 H 0.10966 0.67752 0.48592 0.0
S688 S 0.16137 0.69645 0.85782 0.0
N689 N 0.17229 0.71212 0.75906 0.0
N690 N 0.13757 0.67961 0.81479 0.0
C691 C 0.1377 0.68631 0.71525 0.0
C692 C 0.15633 0.70414 0.68526 0.0
C693 C 0.14314 0.28595 0.2794 0.0
C694 C 0.15818 0.28908 0.36604 0.0
C695 C 0.12409 0.30331 0.25616 0.0
C696 C 0.11929 0.32431 0.31918 0.0
H697 H 0.14668 0.27046 0.22757 0.0
H698 H 0.11365 0.30071 0.18645 0.0
S699 S 0.15113 0.33861 0.56308 0.0
N700 N 0.16554 0.31318 0.52005 0.0
N701 N 0.12958 0.34552 0.47769 0.0
C702 C 0.13346 0.32683 0.40871 0.0
C703 C 0.15292 0.30929 0.43182 0.0
C704 C 0.13123 0.00883 0.06382 0.0
C705 C 0.11113 0.02608 0.06512 0.0
C706 C 0.13249 0.98945 0.98974 0.0
C707 C 0.114 0.98717 0.91361 0.0
H708 H 0.14521 0.00944 0.12331 0.0
H709 H 0.14707 0.97532 0.99594 0.0
S710 S 0.06045 0.03044 0.87196 0.0
N711 N 0.07397 0.04104 0.97615 0.0
N712 N 0.07731 0.00594 0.83603 0.0
C713 C 0.09519 0.00561 0.9096 0.0
C714 C 0.09347 0.02467 0.98559 0.0
C715 C 0.34639 0.79708 0.21181 0.0
C716 C 0.36493 0.77867 0.22974 0.0
C717 C 0.32427 0.79794 0.27122 0.0
C718 C 0.3204 0.78071 0.35122 0.0
H719 H 0.34821 0.80973 0.14774 0.0
H720 H 0.30947 0.81088 0.25002 0.0
S721 S 0.36487 0.73188 0.44 0.0
N722 N 0.37874 0.74468 0.34071 0.0
N723 N 0.33814 0.74715 0.45287 0.0
C724 C 0.33972 0.76383 0.37473 0.0
C725 C 0.36173 0.76256 0.31385 0.0
C726 C 0.58214 0.00409 0.43539 0.0
C727 C 0.56104 0.01987 0.4323 0.0
C728 C 0.58236 0.98201 0.49295 0.0
C729 C 0.5615 0.97448 0.5512 0.0
H730 H 0.59903 0.00913 0.39442 0.0
H731 H 0.59941 0.97093 0.49224 0.0
S732 S 0.50094 0.00874 0.5666 0.0
N733 N 0.51826 0.02628 0.49018 0.0
N734 N 0.51853 0.98435 0.59882 0.0
C735 C 0.53984 0.98967 0.54672 0.0
C736 C 0.53962 0.01241 0.48713 0.0
C737 C 0.34953 0.20379 0.72799 0.0
C738 C 0.35227 0.22055 0.81047 0.0
C739 C 0.32827 0.20498 0.66404 0.0
C740 C 0.30939 0.22313 0.68051 0.0
H741 H 0.36466 0.19106 0.70835 0.0
H742 H 0.32744 0.19284 0.59793 0.0
S743 S 0.30634 0.26849 0.89543 0.0
N744 N 0.33319 0.2536 0.91145 0.0
N745 N 0.29358 0.25591 0.79307 0.0
C746 C 0.31125 0.23856 0.76731 0.0
C747 C 0.33261 0.23726 0.83179 0.0
C748 C 0.80765 0.27145 0.73057 0.0
C749 C 0.80948 0.28524 0.82175 0.0
C750 C 0.8263 0.27269 0.65627 0.0
C751 C 0.84767 0.28779 0.6694 0.0
H752 H 0.79213 0.25862 0.71805 0.0
H753 H 0.82473 0.26042 0.59064 0.0
S754 S 0.86054 0.32958 0.8894 0.0
N755 N 0.83335 0.31626 0.91719 0.0
N756 N 0.86875 0.31851 0.77681 0.0
C757 C 0.8489 0.3033 0.75625 0.0
C758 C 0.82971 0.30203 0.8327 0.0
C759 C 0.82084 0.70783 0.29213 0.0
C760 C 0.8161 0.72615 0.21708 0.0
C761 C 0.84369 0.70776 0.3467 0.0
C762 C 0.86223 0.72615 0.32814 0.0
H763 H 0.80629 0.69454 0.31301 0.0
H764 H 0.84624 0.69421 0.40726 0.0
S765 S 0.86036 0.77511 0.12646 0.0
N766 N 0.833 0.76076 0.11829 0.0
N767 N 0.87534 0.76093 0.21975 0.0
C768 C 0.85816 0.74335 0.24839 0.0
C769 C 0.83524 0.74327 0.19317 0.0
C770 C 0.60862 0.50637 0.5534 0.0
C771 C 0.62797 0.52249 0.58632 0.0
C772 C 0.61333 0.48594 0.48879 0.0
C773 C 0.63764 0.48053 0.45321 0.0
H774 H 0.58945 0.50961 0.57715 0.0
H775 H 0.59753 0.4744 0.46599 0.0
S776 S 0.6951 0.51699 0.51609 0.0
N777 N 0.67255 0.53176 0.57818 0.0
N778 N 0.68151 0.49315 0.45664 0.0
C779 C 0.65731 0.49641 0.48578 0.0
C780 C 0.65247 0.51734 0.55242 0.0
C781 C 0.02833 0.51069 0.93246 0.0
C782 C 0.04564 0.5128 0.8521 0.0
C783 C 0.02778 0.48891 0.99424 0.0
C784 C 0.04469 0.46895 0.97729 0.0
H785 H 0.01687 0.52675 0.95345 0.0
H786 H 0.01574 0.48868 0.06042 0.0
S787 S 0.08915 0.46311 0.76211 0.0
N788 N 0.07654 0.49134 0.74818 0.0
N789 N 0.07588 0.45094 0.86406 0.0
C790 C 0.06 0.4699 0.89063 0.0
C791 C 0.06036 0.49172 0.82793 0.0
C792 C 0.10521 0.11683 0.74718 0.0
C793 C 0.11842 0.10058 0.8121 0.0
C794 C 0.09859 0.10919 0.64862 0.0
C795 C 0.10537 0.08524 0.61105 0.0
H796 H 0.09931 0.13521 0.77398 0.0
H797 H 0.08812 0.12207 0.60104 0.0
S798 S 0.1412 0.03635 0.74836 0.0
N799 N 0.13864 0.05976 0.83082 0.0
N800 N 0.12676 0.04583 0.64424 0.0
C801 C 0.11918 0.06915 0.67386 0.0
C802 C 0.12552 0.0767 0.77484 0.0
C803 C 0.25298 0.79822 0.00482 0.0
C804 C 0.2428 0.77928 0.06682 0.0
C805 C 0.26102 0.79277 0.9062 0.0
C806 C 0.25909 0.76823 0.86611 0.0
H807 H 0.25497 0.8173 0.0333 0.0
H808 H 0.26867 0.80788 0.86041 0.0
S809 S 0.23209 0.71247 0.99649 0.0
N810 N 0.23044 0.73538 0.0814 0.0
N811 N 0.24506 0.7251 0.89471 0.0
C812 C 0.24884 0.74913 0.92746 0.0
C813 C 0.2408 0.75469 0.0282 0.0
C814 C 0.54632 0.92817 0.13107 0.0
C815 C 0.56747 0.91653 0.08799 0.0
C816 C 0.53857 0.92244 0.23006 0.0
C817 C 0.55163 0.90475 0.28949 0.0
H818 H 0.53563 0.94169 0.08739 0.0
H819 H 0.5223 0.93203 0.26046 0.0
S820 S 0.60707 0.86762 0.20984 0.0
N821 N 0.60062 0.88554 0.11085 0.0
N822 N 0.58612 0.87502 0.29725 0.0
C823 C 0.5728 0.89299 0.24751 0.0
C824 C 0.5807 0.89879 0.14667 0.0
C825 C 0.43351 0.21719 0.3461 0.0
C826 C 0.4115 0.23066 0.32374 0.0
C827 C 0.44004 0.21153 0.44612 0.0
C828 C 0.42502 0.21952 0.52735 0.0
H829 H 0.44593 0.21126 0.28578 0.0
H830 H 0.45699 0.20089 0.46042 0.0
S831 S 0.36508 0.25463 0.50902 0.0
N832 N 0.37447 0.25149 0.39009 0.0
N833 N 0.3868 0.24096 0.57938 0.0
C834 C 0.40305 0.23321 0.50638 0.0
C835 C 0.39631 0.23883 0.40412 0.0
C836 C 0.11113 0.94716 0.33726 0.0
C837 C 0.10628 0.92834 0.40955 0.0
C838 C 0.11841 0.94068 0.23763 0.0
C839 C 0.12149 0.91523 0.20817 0.0
H840 H 0.10882 0.96684 0.3574 0.0
H841 H 0.12166 0.95561 0.18317 0.0
S842 S 0.11023 0.85915 0.36932 0.0
N843 N 0.1045 0.88341 0.44452 0.0
N844 N 0.11846 0.87136 0.25905 0.0
C845 C 0.11691 0.8964 0.28045 0.0
C846 C 0.10923 0.90293 0.38067 0.0
C847 C 0.40827 0.77647 0.59471 0.0
C848 C 0.42566 0.77052 0.67089 0.0
C849 C 0.41618 0.78132 0.49542 0.0
C850 C 0.44169 0.78031 0.46884 0.0
H851 H 0.38853 0.77805 0.61257 0.0
H852 H 0.4023 0.78631 0.43907 0.0
S853 S 0.4945 0.76385 0.63754 0.0
N854 N 0.46951 0.76241 0.71127 0.0
N855 N 0.48417 0.77212 0.52429 0.0
C856 C 0.45924 0.77418 0.54353 0.0
C857 C 0.45126 0.76903 0.6446 0.0
C858 C 0.5731 0.10205 0.76398 0.0
C859 C 0.55307 0.08856 0.721 0.0
C860 C 0.58104 0.09726 0.86348 0.0
C861 C 0.56935 0.07867 0.92336 0.0
H862 H 0.58217 0.11691 0.7212 0.0
H863 H 0.59586 0.10884 0.895 0.0
S864 S 0.5183 0.03584 0.84146 0.0
N865 N 0.52328 0.0542 0.74231 0.0
N866 N 0.53822 0.04531 0.92964 0.0
C867 C 0.54999 0.06435 0.87983 0.0
C868 C 0.54186 0.06925 0.77855 0.0
C869 C 0.2447 0.24597 0.95002 0.0
C870 C 0.23778 0.22331 0.90186 0.0
C871 C 0.25491 0.24597 0.04783 0.0
C872 C 0.25808 0.22334 0.10149 0.0
H873 H 0.2425 0.2638 0.911 0.0
H874 H 0.25985 0.2638 0.0828 0.0
S875 S 0.24241 0.1591 0.01019 0.0
N876 N 0.23488 0.17774 0.91441 0.0
N877 N 0.25326 0.17779 0.10074 0.0
C878 C 0.25105 0.20058 0.05474 0.0
C879 C 0.24116 0.20054 0.95408 0.0
C880 C 0.92375 0.29072 0.11851 0.0
C881 C 0.90252 0.27591 0.14019 0.0
C882 C 0.93117 0.2954 0.01853 0.0
C883 C 0.91769 0.2855 0.93594 0.0
H884 H 0.93508 0.2983 0.17939 0.0
H885 H 0.94784 0.30663 0.00574 0.0
S886 S 0.85942 0.24717 0.95265 0.0
N887 N 0.8674 0.25234 0.07195 0.0
N888 N 0.88102 0.2613 0.88316 0.0
C889 C 0.89611 0.27094 0.95656 0.0
C890 C 0.88862 0.26614 0.05886 0.0
C891 C 0.7668 0.72936 0.62679 0.0
C892 C 0.74884 0.73492 0.70121 0.0
C893 C 0.75954 0.7237 0.52745 0.0
C894 C 0.73409 0.72343 0.49928 0.0
H895 H 0.7865 0.72874 0.64623 0.0
H896 H 0.77392 0.7192 0.47231 0.0
S897 S 0.68003 0.73903 0.66403 0.0
N898 N 0.70469 0.74155 0.73906 0.0
N899 N 0.69106 0.73057 0.55186 0.0
C900 C 0.71597 0.72934 0.57253 0.0
C901 C 0.72336 0.73525 0.67363 0.0
C902 C 0.7361 0.26594 0.54207 0.0
C903 C 0.74781 0.28669 0.58857 0.0
C904 C 0.74217 0.25882 0.44233 0.0
C905 C 0.76032 0.27211 0.38586 0.0
H906 H 0.72164 0.25565 0.58219 0.0
H907 H 0.73198 0.24334 0.40795 0.0
S908 S 0.79899 0.32543 0.47833 0.0
N909 N 0.78027 0.31877 0.57451 0.0
N910 N 0.79148 0.30543 0.38694 0.0
C911 C 0.7729 0.29218 0.43306 0.0
C912 C 0.76674 0.29945 0.53448 0.0
C913 C 0.95556 0.72467 0.0046 0.0
C914 C 0.93874 0.71683 0.07988 0.0
C915 C 0.94728 0.72872 0.90518 0.0
C916 C 0.92197 0.72503 0.87852 0.0
H917 H 0.97496 0.72836 0.02358 0.0
H918 H 0.96063 0.73521 0.84902 0.0
S919 S 0.87164 0.70075 0.04495 0.0
N920 N 0.89643 0.7029 0.11953 0.0
N921 N 0.88089 0.71072 0.93233 0.0
C922 C 0.90524 0.71633 0.95237 0.0
C923 C 0.91365 0.71211 0.05323 0.0
C924 C 0.64295 0.57759 0.26097 0.0
C925 C 0.62717 0.59197 0.32428 0.0
C926 C 0.63587 0.57132 0.16173 0.0
C927 C 0.61268 0.57901 0.12186 0.0
H928 H 0.66096 0.5711 0.28815 0.0
H929 H 0.64877 0.5606 0.11517 0.0
S930 S 0.56449 0.61684 0.25699 0.0
N931 N 0.58727 0.61353 0.34047 0.0
N932 N 0.57385 0.60178 0.15397 0.0
C933 C 0.59644 0.59291 0.18512 0.0
C934 C 0.60372 0.59935 0.28624 0.0
C935 C 0.03424 0.41737 0.73584 0.0
C936 C 0.0455 0.39401 0.75832 0.0
C937 C 0.03232 0.42589 0.63558 0.0
C938 C 0.04112 0.41113 0.5545 0.0
H939 H 0.02812 0.42977 0.79629 0.0
H940 H 0.0244 0.44436 0.62133 0.0
S941 S 0.06996 0.34747 0.57329 0.0
N942 N 0.06366 0.35545 0.69171 0.0
N943 N 0.06053 0.37144 0.50332 0.0
C944 C 0.05127 0.38716 0.57579 0.0
C945 C 0.05328 0.3786 0.67774 0.0
C946 C 0.60115 0.38924 0.79674 0.0
C947 C 0.61068 0.4054 0.72189 0.0
C948 C 0.59835 0.39755 0.89691 0.0
C949 C 0.60502 0.42228 0.92534 0.0
H950 H 0.59556 0.37018 0.77729 0.0
H951 H 0.59086 0.38459 0.95272 0.0
S952 S 0.63338 0.47093 0.7604 0.0
N953 N 0.6285 0.44662 0.68422 0.0
N954 N 0.62295 0.46223 0.87304 0.0
C955 C 0.61482 0.43852 0.85166 0.0
C956 C 0.61777 0.43005 0.74972 0.0
C957 C 0.05795 0.60428 0.32016 0.0
C958 C 0.06209 0.57896 0.34706 0.0
C959 C 0.05276 0.61095 0.21988 0.0
C960 C 0.0515 0.59249 0.14355 0.0
H961 H 0.05883 0.61901 0.37714 0.0
H962 H 0.04998 0.63067 0.20174 0.0
S963 S 0.05936 0.52332 0.17793 0.0
N964 N 0.06384 0.53537 0.292 0.0
N965 N 0.05361 0.54759 0.10311 0.0
C966 C 0.05544 0.56702 0.17006 0.0
C967 C 0.06091 0.56034 0.27202 0.0
loop_
_geom_bond_atom_site_label_1
_geom_bond_atom_site_label_2
_geom_bond_distance
_geom_bond_site_symmetry_2
_ccdc_geom_bond_type
C0 C1 1.351 . S
C0 N3 1.368 . S
C0 H5 0.931 . S
C1 C0 1.351 . S
C1 N2 1.373 . S
C1 H29 0.930 . S
N2 C1 1.373 . S
N2 C4 1.340 . S
N3 C0 1.368 . S
N3 C4 1.321 . S
N3 Co6 2.135 . S
C4 N2 1.340 . S
C4 N3 1.321 . S
C4 H28 0.930 . S
H5 C0 0.931 . S
Co6 N3 2.135 . S
Co6 N9 2.121 . S
Co6 O14 2.055 . S
Co6 O17 2.039 . S
Co6 N20 2.140 . S
C7 O8 1.227 . S
C7 O17 1.265 . S
O8 C7 1.227 . S
N9 Co6 2.121 . S
N9 C11 1.375 . S
N9 C12 1.313 . S
C10 C11 1.338 1_556 S
C10 N13 1.377 . S
C10 H30 0.930 . S
C11 N9 1.375 . S
C11 C10 1.338 1_554 S
C11 H15 0.931 . S
C12 N9 1.313 . S
C12 N13 1.344 1_554 S
C12 H16 0.930 . S
N13 C10 1.377 . S
N13 C12 1.344 1_556 S
O14 Co6 2.055 . S
O14 C18 1.253 . S
H15 C11 0.931 . S
H16 C12 0.930 . S
O17 Co6 2.039 . S
O17 C7 1.265 . S
C18 O14 1.253 . S
C18 O19 1.227 . S
O19 C18 1.227 . S
N20 Co6 2.140 . S
N20 C23 1.346 . S
N20 C24 1.345 . S
C21 C22 1.387 . S
C21 C25 1.391 . S
C22 C21 1.387 . S
C22 C23 1.369 . S
C22 H31 0.929 . S
C23 N20 1.346 . S
C23 C22 1.369 . S
C23 H26 0.928 . S
C24 N20 1.345 . S
C24 C25 1.371 . S
C24 H27 0.931 . S
C25 C21 1.391 . S
C25 C24 1.371 . S
C25 H32 0.930 . S
H26 C23 0.928 . S
H27 C24 0.931 . S
H28 C4 0.930 . S
H29 C1 0.930 . S
H30 C10 0.930 . S
H31 C22 0.929 . S
H32 C25 0.930 . S
C33 C34 1.351 . S
C33 N36 1.368 . S
C33 H38 0.931 . S
C34 C33 1.351 . S
C34 N35 1.373 . S
C34 H62 0.930 . S
N35 C34 1.373 . S
N35 C37 1.340 . S
N36 C33 1.368 . S
N36 C37 1.321 . S
N36 Co39 2.135 . S
C37 N35 1.340 . S
C37 N36 1.321 . S
C37 H61 0.930 . S
H38 C33 0.931 . S
Co39 N36 2.135 . S
Co39 N42 2.121 . S
Co39 O47 2.055 . S
Co39 O50 2.039 . S
Co39 N53 2.140 . S
C40 O41 1.227 . S
C40 O50 1.265 . S
O41 C40 1.227 . S
N42 Co39 2.121 . S
N42 C44 1.375 . S
N42 C45 1.313 . S
C43 C44 1.338 . S
C43 N46 1.377 . S
C43 H63 0.930 . S
C44 N42 1.375 . S
C44 C43 1.338 . S
C44 H48 0.931 . S
C45 N42 1.313 . S
C45 N46 1.344 . S
C45 H49 0.930 . S
N46 C43 1.377 . S
N46 C45 1.344 . S
O47 Co39 2.055 . S
O47 C51 1.253 . S
H48 C44 0.931 . S
H49 C45 0.930 . S
O50 Co39 2.039 . S
O50 C40 1.265 . S
C51 O47 1.253 . S
C51 O52 1.227 . S
O52 C51 1.227 . S
N53 Co39 2.140 . S
N53 C56 1.346 . S
N53 C57 1.345 . S
C54 C55 1.387 . S
C54 C58 1.391 . S
C55 C54 1.387 . S
C55 C56 1.369 . S
C55 H64 0.929 . S
C56 N53 1.346 . S
C56 C55 1.369 . S
C56 H59 0.928 . S
C57 N53 1.345 . S
C57 C58 1.371 . S
C57 H60 0.931 . S
C58 C54 1.391 . S
C58 C57 1.371 . S
C58 H65 0.930 . S
H59 C56 0.928 . S
H60 C57 0.931 . S
H61 C37 0.930 . S
H62 C34 0.930 . S
H63 C43 0.930 . S
H64 C55 0.929 . S
H65 C58 0.930 . S
C66 C67 1.351 1_556 S
C66 N69 1.368 . S
C66 H71 0.931 . S
C67 C66 1.351 1_554 S
C67 N68 1.373 . S
C67 H95 0.930 . S
N68 C67 1.373 . S
N68 C70 1.340 . S
N69 C66 1.368 . S
N69 C70 1.321 1_556 S
N69 Co72 2.135 . S
C70 N68 1.340 . S
C70 N69 1.321 1_554 S
C70 H94 0.930 . S
H71 C66 0.931 . S
Co72 N69 2.135 . S
Co72 N75 2.121 . S
Co72 O80 2.055 . S
Co72 O83 2.039 . S
Co72 N86 2.140 . S
C73 O74 1.227 . S
C73 O83 1.265 . S
O74 C73 1.227 . S
N75 Co72 2.121 . S
N75 C77 1.375 . S
N75 C78 1.313 . S
C76 C77 1.338 . S
C76 N79 1.377 . S
C76 H96 0.930 . S
C77 N75 1.375 . S
C77 C76 1.338 . S
C77 H81 0.931 . S
C78 N75 1.313 . S
C78 N79 1.344 . S
C78 H82 0.930 . S
N79 C76 1.377 . S
N79 C78 1.344 . S
O80 Co72 2.055 . S
O80 C84 1.253 . S
H81 C77 0.931 . S
H82 C78 0.930 . S
O83 Co72 2.039 . S
O83 C73 1.265 . S
C84 O80 1.253 . S
C84 O85 1.227 . S
O85 C84 1.227 . S
N86 Co72 2.140 . S
N86 C89 1.346 . S
N86 C90 1.345 . S
C87 C88 1.387 . S
C87 C91 1.391 . S
C88 C87 1.387 . S
C88 C89 1.369 . S
C88 H97 0.929 . S
C89 N86 1.346 . S
C89 C88 1.369 . S
C89 H92 0.928 . S
C90 N86 1.345 . S
C90 C91 1.371 . S
C90 H93 0.931 . S
C91 C87 1.391 . S
C91 C90 1.371 . S
C91 H98 0.930 . S
H92 C89 0.928 . S
H93 C90 0.931 . S
H94 C70 0.930 . S
H95 C67 0.930 . S
H96 C76 0.930 . S
H97 C88 0.929 . S
H98 C91 0.930 . S
C99 C100 1.351 . S
C99 N102 1.368 . S
C99 H104 0.931 . S
C100 C99 1.351 . S
C100 N101 1.373 . S
C100 H128 0.930 . S
N101 C100 1.373 . S
N101 C103 1.340 . S
N102 C99 1.368 . S
N102 C103 1.321 . S
N102 Co105 2.135 1_554 S
C103 N101 1.340 . S
C103 N102 1.321 . S
C103 H127 0.930 . S
H104 C99 0.931 . S
Co105 N102 2.135 1_556 S
Co105 N108 2.121 . S
Co105 O113 2.055 . S
Co105 O116 2.039 1_556 S
Co105 N119 2.140 1_556 S
C106 O107 1.227 . S
C106 O116 1.265 . S
O107 C106 1.227 . S
N108 Co105 2.121 . S
N108 C110 1.375 . S
N108 C111 1.313 . S
C109 C110 1.338 . S
C109 N112 1.377 . S
C109 H129 0.930 . S
C110 N108 1.375 . S
C110 C109 1.338 . S
C110 H114 0.931 . S
C111 N108 1.313 . S
C111 N112 1.344 . S
C111 H115 0.930 . S
N112 C109 1.377 . S
N112 C111 1.344 . S
O113 Co105 2.055 . S
O113 C117 1.253 . S
H114 C110 0.931 . S
H115 C111 0.930 . S
O116 Co105 2.039 1_554 S
O116 C106 1.265 . S
C117 O113 1.253 . S
C117 O118 1.227 . S
O118 C117 1.227 . S
N119 Co105 2.140 1_554 S
N119 C122 1.346 . S
N119 C123 1.345 1_554 S
C120 C121 1.387 . S
C120 C124 1.391 1_554 S
C121 C120 1.387 . S
C121 C122 1.369 . S
C121 H130 0.929 . S
C122 N119 1.346 . S
C122 C121 1.369 . S
C122 H125 0.928 . S
C123 N119 1.345 1_556 S
C123 C124 1.371 . S
C123 H126 0.931 . S
C124 C120 1.391 1_556 S
C124 C123 1.371 . S
C124 H131 0.930 . S
H125 C122 0.928 . S
H126 C123 0.931 . S
H127 C103 0.930 . S
H128 C100 0.930 . S
H129 C109 0.930 . S
H130 C121 0.929 . S
H131 C124 0.930 . S
C132 C133 1.351 . S
C132 N135 1.368 . S
C132 H137 0.931 . S
C133 C132 1.351 . S
C133 N134 1.373 . S
C133 H161 0.930 . S
N134 C133 1.373 . S
N134 C136 1.340 . S
N135 C132 1.368 . S
N135 C136 1.321 . S
N135 Co138 2.135 . S
C136 N134 1.340 . S
C136 N135 1.321 . S
C136 H160 0.930 . S
H137 C132 0.931 . S
Co138 N135 2.135 . S
Co138 N141 2.121 . S
Co138 O146 2.055 . S
Co138 O149 2.039 . S
Co138 N152 2.140 . S
C139 O140 1.227 . S
C139 O149 1.265 . S
O140 C139 1.227 . S
N141 Co138 2.121 . S
N141 C143 1.375 . S
N141 C144 1.313 . S
C142 C143 1.338 1_554 S
C142 N145 1.377 . S
C142 H162 0.930 . S
C143 N141 1.375 . S
C143 C142 1.338 1_556 S
C143 H147 0.931 . S
C144 N141 1.313 . S
C144 N145 1.344 1_556 S
C144 H148 0.930 . S
N145 C142 1.377 . S
N145 C144 1.344 1_554 S
O146 Co138 2.055 . S
O146 C150 1.253 . S
H147 C143 0.931 . S
H148 C144 0.930 . S
O149 Co138 2.039 . S
O149 C139 1.265 . S
C150 O146 1.253 . S
C150 O151 1.227 . S
O151 C150 1.227 . S
N152 Co138 2.140 . S
N152 C155 1.346 . S
N152 C156 1.345 . S
C153 C154 1.387 . S
C153 C157 1.391 . S
C154 C153 1.387 . S
C154 C155 1.369 . S
C154 H163 0.929 . S
C155 N152 1.346 . S
C155 C154 1.369 . S
C155 H158 0.928 . S
C156 N152 1.345 . S
C156 C157 1.371 . S
C156 H159 0.931 . S
C157 C153 1.391 . S
C157 C156 1.371 . S
C157 H164 0.930 . S
H158 C155 0.928 . S
H159 C156 0.931 . S
H160 C136 0.930 . S
H161 C133 0.930 . S
H162 C142 0.930 . S
H163 C154 0.929 . S
H164 C157 0.930 . S
C165 C166 1.351 . S
C165 N168 1.368 . S
C165 H170 0.931 . S
C166 C165 1.351 . S
C166 N167 1.373 . S
C166 H194 0.930 . S
N167 C166 1.373 . S
N167 C169 1.340 . S
N168 C165 1.368 . S
N168 C169 1.321 . S
N168 Co171 2.135 1_556 S
C169 N167 1.340 . S
C169 N168 1.321 . S
C169 H193 0.930 . S
H170 C165 0.931 . S
Co171 N168 2.135 1_554 S
Co171 N174 2.121 . S
Co171 O179 2.055 . S
Co171 O182 2.039 1_554 S
Co171 N185 2.140 1_554 S
C172 O173 1.227 . S
C172 O182 1.265 . S
O173 C172 1.227 . S
N174 Co171 2.121 . S
N174 C176 1.375 . S
N174 C177 1.313 . S
C175 C176 1.338 . S
C175 N178 1.377 . S
C175 H195 0.930 . S
C176 N174 1.375 . S
C176 C175 1.338 . S
C176 H180 0.931 . S
C177 N174 1.313 . S
C177 N178 1.344 . S
C177 H181 0.930 . S
N178 C175 1.377 . S
N178 C177 1.344 . S
O179 Co171 2.055 . S
O179 C183 1.253 . S
H180 C176 0.931 . S
H181 C177 0.930 . S
O182 Co171 2.039 1_556 S
O182 C172 1.265 . S
C183 O179 1.253 . S
C183 O184 1.227 . S
O184 C183 1.227 . S
N185 Co171 2.140 1_556 S
N185 C188 1.346 . S
N185 C189 1.345 1_556 S
C186 C187 1.387 . S
C186 C190 1.391 1_556 S
C187 C186 1.387 . S
C187 C188 1.369 . S
C187 H196 0.929 . S
C188 N185 1.346 . S
C188 C187 1.369 . S
C188 H191 0.928 . S
C189 N185 1.345 1_554 S
C189 C190 1.371 . S
C189 H192 0.931 . S
C190 C186 1.391 1_554 S
C190 C189 1.371 . S
C190 H197 0.930 . S
H191 C188 0.928 . S
H192 C189 0.931 . S
H193 C169 0.930 . S
H194 C166 0.930 . S
H195 C175 0.930 . S
H196 C187 0.929 . S
H197 C190 0.930 . S
C198 C199 1.351 1_554 S
C198 N201 1.368 . S
C198 H203 0.931 . S
C199 C198 1.351 1_556 S
C199 N200 1.373 . S
C199 H227 0.930 . S
N200 C199 1.373 . S
N200 C202 1.340 . S
N201 C198 1.368 . S
N201 C202 1.321 1_554 S
N201 Co204 2.135 . S
C202 N200 1.340 . S
C202 N201 1.321 1_556 S
C202 H226 0.930 . S
H203 C198 0.931 . S
Co204 N201 2.135 . S
Co204 N207 2.121 . S
Co204 O212 2.055 . S
Co204 O215 2.039 . S
Co204 N218 2.140 . S
C205 O206 1.227 . S
C205 O215 1.265 . S
O206 C205 1.227 . S
N207 Co204 2.121 . S
N207 C209 1.375 . S
N207 C210 1.313 . S
C208 C209 1.338 . S
C208 N211 1.377 . S
C208 H228 0.930 . S
C209 N207 1.375 . S
C209 C208 1.338 . S
C209 H213 0.931 . S
C210 N207 1.313 . S
C210 N211 1.344 . S
C210 H214 0.930 . S
N211 C208 1.377 . S
N211 C210 1.344 . S
O212 Co204 2.055 . S
O212 C216 1.253 . S
H213 C209 0.931 . S
H214 C210 0.930 . S
O215 Co204 2.039 . S
O215 C205 1.265 . S
C216 O212 1.253 . S
C216 O217 1.227 . S
O217 C216 1.227 . S
N218 Co204 2.140 . S
N218 C221 1.346 . S
N218 C222 1.345 . S
C219 C220 1.387 . S
C219 C223 1.391 . S
C220 C219 1.387 . S
C220 C221 1.369 . S
C220 H229 0.929 . S
C221 N218 1.346 . S
C221 C220 1.369 . S
C221 H224 0.928 . S
C222 N218 1.345 . S
C222 C223 1.371 . S
C222 H225 0.931 . S
C223 C219 1.391 . S
C223 C222 1.371 . S
C223 H230 0.930 . S
H224 C221 0.928 . S
H225 C222 0.931 . S
H226 C202 0.930 . S
H227 C199 0.930 . S
H228 C208 0.930 . S
H229 C220 0.929 . S
H230 C223 0.930 . S
C231 C232 1.351 . S
C231 N234 1.368 . S
C231 H236 0.931 . S
C232 C231 1.351 . S
C232 N233 1.373 . S
C232 H260 0.930 . S
N233 C232 1.373 . S
N233 C235 1.340 . S
N234 C231 1.368 . S
N234 C235 1.321 . S
N234 Co237 2.135 . S
C235 N233 1.340 . S
C235 N234 1.321 . S
C235 H259 0.930 . S
H236 C231 0.931 . S
Co237 N234 2.135 . S
Co237 N240 2.121 . S
Co237 O245 2.055 . S
Co237 O248 2.039 . S
Co237 N251 2.140 . S
C238 O239 1.227 . S
C238 O248 1.265 . S
O239 C238 1.227 . S
N240 Co237 2.121 . S
N240 C242 1.375 . S
N240 C243 1.313 . S
C241 C242 1.338 . S
C241 N244 1.377 . S
C241 H261 0.930 . S
C242 N240 1.375 . S
C242 C241 1.338 . S
C242 H246 0.931 . S
C243 N240 1.313 . S
C243 N244 1.344 . S
C243 H247 0.930 . S
N244 C241 1.377 . S
N244 C243 1.344 . S
O245 Co237 2.055 . S
O245 C249 1.253 . S
H246 C242 0.931 . S
H247 C243 0.930 . S
O248 Co237 2.039 . S
O248 C238 1.265 . S
C249 O245 1.253 . S
C249 O250 1.227 . S
O250 C249 1.227 . S
N251 Co237 2.140 . S
N251 C254 1.346 . S
N251 C255 1.345 . S
C252 C253 1.387 . S
C252 C256 1.391 . S
C253 C252 1.387 . S
C253 C254 1.369 . S
C253 H262 0.929 . S
C254 N251 1.346 . S
C254 C253 1.369 . S
C254 H257 0.928 . S
C255 N251 1.345 . S
C255 C256 1.371 . S
C255 H258 0.931 . S
C256 C252 1.391 . S
C256 C255 1.371 . S
C256 H263 0.930 . S
H257 C254 0.928 . S
H258 C255 0.931 . S
H259 C235 0.930 . S
H260 C232 0.930 . S
H261 C241 0.930 . S
H262 C253 0.929 . S
H263 C256 0.930 . S
C264 C265 1.351 . S
C264 N267 1.368 . S
C264 H269 0.931 . S
C265 C264 1.351 . S
C265 N266 1.373 . S
C265 H293 0.930 . S
N266 C265 1.373 . S
N266 C268 1.340 . S
N267 C264 1.368 . S
N267 C268 1.321 . S
N267 Co270 2.135 . S
C268 N266 1.340 . S
C268 N267 1.321 . S
C268 H292 0.930 . S
H269 C264 0.931 . S
Co270 N267 2.135 . S
Co270 N273 2.121 . S
Co270 O278 2.055 . S
Co270 O281 2.039 . S
Co270 N284 2.140 . S
C271 O272 1.227 . S
C271 O281 1.265 . S
O272 C271 1.227 . S
N273 Co270 2.121 . S
N273 C275 1.375 . S
N273 C276 1.313 . S
C274 C275 1.338 . S
C274 N277 1.377 . S
C274 H294 0.930 . S
C275 N273 1.375 . S
C275 C274 1.338 . S
C275 H279 0.931 . S
C276 N273 1.313 . S
C276 N277 1.344 . S
C276 H280 0.930 . S
N277 C274 1.377 . S
N277 C276 1.344 . S
O278 Co270 2.055 . S
O278 C282 1.253 . S
H279 C275 0.931 . S
H280 C276 0.930 . S
O281 Co270 2.039 . S
O281 C271 1.265 . S
C282 O278 1.253 . S
C282 O283 1.227 . S
O283 C282 1.227 . S
N284 Co270 2.140 . S
N284 C287 1.346 . S
N284 C288 1.345 . S
C285 C286 1.387 . S
C285 C289 1.391 . S
C286 C285 1.387 . S
C286 C287 1.369 . S
C286 H295 0.929 . S
C287 N284 1.346 . S
C287 C286 1.369 . S
C287 H290 0.928 . S
C288 N284 1.345 . S
C288 C289 1.371 . S
C288 H291 0.931 . S
C289 C285 1.391 . S
C289 C288 1.371 . S
C289 H296 0.930 . S
H290 C287 0.928 . S
H291 C288 0.931 . S
H292 C268 0.930 . S
H293 C265 0.930 . S
H294 C274 0.930 . S
H295 C286 0.929 . S
H296 C289 0.930 . S
C297 C298 1.351 . S
C297 N300 1.368 . S
C297 H302 0.931 . S
C298 C297 1.351 . S
C298 N299 1.373 . S
C298 H326 0.930 . S
N299 C298 1.373 . S
N299 C301 1.340 . S
N300 C297 1.368 . S
N300 C301 1.321 . S
N300 Co303 2.135 1_556 S
C301 N299 1.340 . S
C301 N300 1.321 . S
C301 H325 0.930 . S
H302 C297 0.931 . S
Co303 N300 2.135 1_554 S
Co303 N306 2.121 . S
Co303 O311 2.055 . S
Co303 O314 2.039 1_554 S
Co303 N317 2.140 1_554 S
C304 O305 1.227 . S
C304 O314 1.265 . S
O305 C304 1.227 . S
N306 Co303 2.121 . S
N306 C308 1.375 . S
N306 C309 1.313 . S
C307 C308 1.338 . S
C307 N310 1.377 . S
C307 H327 0.930 . S
C308 N306 1.375 . S
C308 C307 1.338 . S
C308 H312 0.931 . S
C309 N306 1.313 . S
C309 N310 1.344 . S
C309 H313 0.930 . S
N310 C307 1.377 . S
N310 C309 1.344 . S
O311 Co303 2.055 . S
O311 C315 1.253 . S
H312 C308 0.931 . S
H313 C309 0.930 . S
O314 Co303 2.039 1_556 S
O314 C304 1.265 . S
C315 O311 1.253 . S
C315 O316 1.227 . S
O316 C315 1.227 . S
N317 Co303 2.140 1_556 S
N317 C320 1.346 . S
N317 C321 1.345 1_556 S
C318 C319 1.387 . S
C318 C322 1.391 1_556 S
C319 C318 1.387 . S
C319 C320 1.369 . S
C319 H328 0.929 . S
C320 N317 1.346 . S
C320 C319 1.369 . S
C320 H323 0.928 . S
C321 N317 1.345 1_554 S
C321 C322 1.371 . S
C321 H324 0.931 . S
C322 C318 1.391 1_554 S
C322 C321 1.371 . S
C322 H329 0.930 . S
H323 C320 0.928 . S
H324 C321 0.931 . S
H325 C301 0.930 . S
H326 C298 0.930 . S
H327 C307 0.930 . S
H328 C319 0.929 . S
H329 C322 0.930 . S
C330 C331 1.351 . S
C330 N333 1.368 . S
C330 H335 0.931 . S
C331 C330 1.351 . S
C331 N332 1.373 . S
C331 H359 0.930 . S
N332 C331 1.373 . S
N332 C334 1.340 . S
N333 C330 1.368 . S
N333 C334 1.321 . S
N333 Co336 2.135 1_554 S
C334 N332 1.340 . S
C334 N333 1.321 . S
C334 H358 0.930 . S
H335 C330 0.931 . S
Co336 N333 2.135 1_556 S
Co336 N339 2.121 . S
Co336 O344 2.055 . S
Co336 O347 2.039 1_556 S
Co336 N350 2.140 1_556 S
C337 O338 1.227 . S
C337 O347 1.265 . S
O338 C337 1.227 . S
N339 Co336 2.121 . S
N339 C341 1.375 . S
N339 C342 1.313 . S
C340 C341 1.338 . S
C340 N343 1.377 . S
C340 H360 0.930 . S
C341 N339 1.375 . S
C341 C340 1.338 . S
C341 H345 0.931 . S
C342 N339 1.313 . S
C342 N343 1.344 . S
C342 H346 0.930 . S
N343 C340 1.377 . S
N343 C342 1.344 . S
O344 Co336 2.055 . S
O344 C348 1.253 . S
H345 C341 0.931 . S
H346 C342 0.930 . S
O347 Co336 2.039 1_554 S
O347 C337 1.265 . S
C348 O344 1.253 . S
C348 O349 1.227 . S
O349 C348 1.227 . S
N350 Co336 2.140 1_554 S
N350 C353 1.346 . S
N350 C354 1.345 1_554 S
C351 C352 1.387 . S
C351 C355 1.391 1_554 S
C352 C351 1.387 . S
C352 C353 1.369 . S
C352 H361 0.929 . S
C353 N350 1.346 . S
C353 C352 1.369 . S
C353 H356 0.928 . S
C354 N350 1.345 1_556 S
C354 C355 1.371 . S
C354 H357 0.931 . S
C355 C351 1.391 1_556 S
C355 C354 1.371 . S
C355 H362 0.930 . S
H356 C353 0.928 . S
H357 C354 0.931 . S
H358 C334 0.930 . S
H359 C331 0.930 . S
H360 C340 0.930 . S
H361 C352 0.929 . S
H362 C355 0.930 . S
C363 C364 1.351 . S
C363 N366 1.368 . S
C363 H368 0.931 . S
C364 C363 1.351 . S
C364 N365 1.373 . S
C364 H392 0.930 . S
N365 C364 1.373 . S
N365 C367 1.340 . S
N366 C363 1.368 . S
N366 C367 1.321 . S
N366 Co369 2.135 . S
C367 N365 1.340 . S
C367 N366 1.321 . S
C367 H391 0.930 . S
H368 C363 0.931 . S
Co369 N366 2.135 . S
Co369 N372 2.121 . S
Co369 O377 2.055 . S
Co369 O380 2.039 . S
Co369 N383 2.140 . S
C370 O371 1.227 . S
C370 O380 1.265 . S
O371 C370 1.227 . S
N372 Co369 2.121 . S
N372 C374 1.375 . S
N372 C375 1.313 . S
C373 C374 1.338 . S
C373 N376 1.377 . S
C373 H393 0.930 . S
C374 N372 1.375 . S
C374 C373 1.338 . S
C374 H378 0.931 . S
C375 N372 1.313 . S
C375 N376 1.344 . S
C375 H379 0.930 . S
N376 C373 1.377 . S
N376 C375 1.344 . S
O377 Co369 2.055 . S
O377 C381 1.253 . S
H378 C374 0.931 . S
H379 C375 0.930 . S
O380 Co369 2.039 . S
O380 C370 1.265 . S
C381 O377 1.253 . S
C381 O382 1.227 . S
O382 C381 1.227 . S
N383 Co369 2.140 . S
N383 C386 1.346 . S
N383 C387 1.345 . S
C384 C385 1.387 . S
C384 C388 1.391 . S
C385 C384 1.387 . S
C385 C386 1.369 . S
C385 H394 0.929 . S
C386 N383 1.346 . S
C386 C385 1.369 . S
C386 H389 0.928 . S
C387 N383 1.345 . S
C387 C388 1.371 . S
C387 H390 0.931 . S
C388 C384 1.391 . S
C388 C387 1.371 . S
C388 H395 0.930 . S
H389 C386 0.928 . S
H390 C387 0.931 . S
H391 C367 0.930 . S
H392 C364 0.930 . S
H393 C373 0.930 . S
H394 C385 0.929 . S
H395 C388 0.930 . S
C396 C397 1.351 1_556 S
C396 N399 1.368 . S
C396 H401 0.931 . S
C397 C396 1.351 1_554 S
C397 N398 1.373 . S
C397 H425 0.930 . S
N398 C397 1.373 . S
N398 C400 1.340 . S
N399 C396 1.368 . S
N399 C400 1.321 1_556 S
N399 Co402 2.135 . S
C400 N398 1.340 . S
C400 N399 1.321 1_554 S
C400 H424 0.930 . S
H401 C396 0.931 . S
Co402 N399 2.135 . S
Co402 N405 2.121 . S
Co402 O410 2.055 . S
Co402 O413 2.039 . S
Co402 N416 2.140 . S
C403 O404 1.227 . S
C403 O413 1.265 . S
O404 C403 1.227 . S
N405 Co402 2.121 . S
N405 C407 1.375 . S
N405 C408 1.313 . S
C406 C407 1.338 . S
C406 N409 1.377 . S
C406 H426 0.930 . S
C407 N405 1.375 . S
C407 C406 1.338 . S
C407 H411 0.931 . S
C408 N405 1.313 . S
C408 N409 1.344 . S
C408 H412 0.930 . S
N409 C406 1.377 . S
N409 C408 1.344 . S
O410 Co402 2.055 . S
O410 C414 1.253 . S
H411 C407 0.931 . S
H412 C408 0.930 . S
O413 Co402 2.039 . S
O413 C403 1.265 . S
C414 O410 1.253 . S
C414 O415 1.227 . S
O415 C414 1.227 . S
N416 Co402 2.140 . S
N416 C419 1.346 . S
N416 C420 1.345 . S
C417 C418 1.387 . S
C417 C421 1.391 . S
C418 C417 1.387 . S
C418 C419 1.369 . S
C418 H427 0.929 . S
C419 N416 1.346 . S
C419 C418 1.369 . S
C419 H422 0.928 . S
C420 N416 1.345 . S
C420 C421 1.371 . S
C420 H423 0.931 . S
C421 C417 1.391 . S
C421 C420 1.371 . S
C421 H428 0.930 . S
H422 C419 0.928 . S
H423 C420 0.931 . S
H424 C400 0.930 . S
H425 C397 0.930 . S
H426 C406 0.930 . S
H427 C418 0.929 . S
H428 C421 0.930 . S
C429 C430 1.351 . S
C429 N432 1.368 . S
C429 H434 0.931 . S
C430 C429 1.351 . S
C430 N431 1.373 . S
C430 H458 0.930 . S
N431 C430 1.373 . S
N431 C433 1.340 . S
N432 C429 1.368 . S
N432 C433 1.321 . S
N432 Co435 2.135 . S
C433 N431 1.340 . S
C433 N432 1.321 . S
C433 H457 0.930 . S
H434 C429 0.931 . S
Co435 N432 2.135 . S
Co435 N438 2.121 . S
Co435 O443 2.055 . S
Co435 O446 2.039 . S
Co435 N449 2.140 . S
C436 O437 1.227 . S
C436 O446 1.265 . S
O437 C436 1.227 . S
N438 Co435 2.121 . S
N438 C440 1.375 . S
N438 C441 1.313 . S
C439 C440 1.338 1_556 S
C439 N442 1.377 . S
C439 H459 0.930 . S
C440 N438 1.375 . S
C440 C439 1.338 1_554 S
C440 H444 0.931 . S
C441 N438 1.313 . S
C441 N442 1.344 1_554 S
C441 H445 0.930 . S
N442 C439 1.377 . S
N442 C441 1.344 1_556 S
O443 Co435 2.055 . S
O443 C447 1.253 . S
H444 C440 0.931 . S
H445 C441 0.930 . S
O446 Co435 2.039 . S
O446 C436 1.265 . S
C447 O443 1.253 . S
C447 O448 1.227 . S
O448 C447 1.227 . S
N449 Co435 2.140 . S
N449 C452 1.346 . S
N449 C453 1.345 . S
C450 C451 1.387 . S
C450 C454 1.391 . S
C451 C450 1.387 . S
C451 C452 1.369 . S
C451 H460 0.929 . S
C452 N449 1.346 . S
C452 C451 1.369 . S
C452 H455 0.928 . S
C453 N449 1.345 . S
C453 C454 1.371 . S
C453 H456 0.931 . S
C454 C450 1.391 . S
C454 C453 1.371 . S
C454 H461 0.930 . S
H455 C452 0.928 . S
H456 C453 0.931 . S
H457 C433 0.930 . S
H458 C430 0.930 . S
H459 C439 0.930 . S
H460 C451 0.929 . S
H461 C454 0.930 . S
C462 C463 1.351 1_554 S
C462 N465 1.368 . S
C462 H467 0.931 . S
C463 C462 1.351 1_556 S
C463 N464 1.373 . S
C463 H491 0.930 . S
N464 C463 1.373 . S
N464 C466 1.340 . S
N465 C462 1.368 . S
N465 C466 1.321 1_554 S
N465 Co468 2.135 . S
C466 N464 1.340 . S
C466 N465 1.321 1_556 S
C466 H490 0.930 . S
H467 C462 0.931 . S
Co468 N465 2.135 . S
Co468 N471 2.121 . S
Co468 O476 2.055 . S
Co468 O479 2.039 . S
Co468 N482 2.140 . S
C469 O470 1.227 . S
C469 O479 1.265 . S
O470 C469 1.227 . S
N471 Co468 2.121 . S
N471 C473 1.375 . S
N471 C474 1.313 . S
C472 C473 1.338 . S
C472 N475 1.377 . S
C472 H492 0.930 . S
C473 N471 1.375 . S
C473 C472 1.338 . S
C473 H477 0.931 . S
C474 N471 1.313 . S
C474 N475 1.344 . S
C474 H478 0.930 . S
N475 C472 1.377 . S
N475 C474 1.344 . S
O476 Co468 2.055 . S
O476 C480 1.253 . S
H477 C473 0.931 . S
H478 C474 0.930 . S
O479 Co468 2.039 . S
O479 C469 1.265 . S
C480 O476 1.253 . S
C480 O481 1.227 . S
O481 C480 1.227 . S
N482 Co468 2.140 . S
N482 C485 1.346 . S
N482 C486 1.345 . S
C483 C484 1.387 . S
C483 C487 1.391 . S
C484 C483 1.387 . S
C484 C485 1.369 . S
C484 H493 0.929 . S
C485 N482 1.346 . S
C485 C484 1.369 . S
C485 H488 0.928 . S
C486 N482 1.345 . S
C486 C487 1.371 . S
C486 H489 0.931 . S
C487 C483 1.391 . S
C487 C486 1.371 . S
C487 H494 0.930 . S
H488 C485 0.928 . S
H489 C486 0.931 . S
H490 C466 0.930 . S
H491 C463 0.930 . S
H492 C472 0.930 . S
H493 C484 0.929 . S
H494 C487 0.930 . S
C495 C496 1.351 . S
C495 N498 1.368 . S
C495 H500 0.931 . S
C496 C495 1.351 . S
C496 N497 1.373 . S
C496 H524 0.930 . S
N497 C496 1.373 . S
N497 C499 1.340 . S
N498 C495 1.368 . S
N498 C499 1.321 . S
N498 Co501 2.135 . S
C499 N497 1.340 . S
C499 N498 1.321 . S
C499 H523 0.930 . S
H500 C495 0.931 . S
Co501 N498 2.135 . S
Co501 N504 2.121 . S
Co501 O509 2.055 . S
Co501 O512 2.039 . S
Co501 N515 2.140 . S
C502 O503 1.227 . S
C502 O512 1.265 . S
O503 C502 1.227 . S
N504 Co501 2.121 . S
N504 C506 1.375 . S
N504 C507 1.313 . S
C505 C506 1.338 1_554 S
C505 N508 1.377 . S
C505 H525 0.930 . S
C506 N504 1.375 . S
C506 C505 1.338 1_556 S
C506 H510 0.931 . S
C507 N504 1.313 . S
C507 N508 1.344 1_556 S
C507 H511 0.930 . S
N508 C505 1.377 . S
N508 C507 1.344 1_554 S
O509 Co501 2.055 . S
O509 C513 1.253 . S
H510 C506 0.931 . S
H511 C507 0.930 . S
O512 Co501 2.039 . S
O512 C502 1.265 . S
C513 O509 1.253 . S
C513 O514 1.227 . S
O514 C513 1.227 . S
N515 Co501 2.140 . S
N515 C518 1.346 . S
N515 C519 1.345 . S
C516 C517 1.387 . S
C516 C520 1.391 . S
C517 C516 1.387 . S
C517 C518 1.369 . S
C517 H526 0.929 . S
C518 N515 1.346 . S
C518 C517 1.369 . S
C518 H521 0.928 . S
C519 N515 1.345 . S
C519 C520 1.371 . S
C519 H522 0.931 . S
C520 C516 1.391 . S
C520 C519 1.371 . S
C520 H527 0.930 . S
H521 C518 0.928 . S
H522 C519 0.931 . S
H523 C499 0.930 . S
H524 C496 0.930 . S
H525 C505 0.930 . S
H526 C517 0.929 . S
H527 C520 0.930 . S
C528 C529 1.369 . S
C528 C530 1.419 . S
C528 H532 0.930 . S
C529 C528 1.369 . S
C529 C538 1.429 . S
C530 C528 1.419 . S
C530 C531 1.363 . S
C530 H533 0.929 . S
C531 C530 1.363 . S
C531 C537 1.428 . S
H532 C528 0.930 . S
H533 C530 0.929 . S
S534 N535 1.613 . S
S534 N536 1.610 . S
N535 S534 1.613 . S
N535 C538 1.350 . S
N536 S534 1.610 . S
N536 C537 1.351 . S
C537 C531 1.428 . S
C537 N536 1.351 . S
C537 C538 1.434 . S
C538 C529 1.429 . S
C538 N535 1.350 . S
C538 C537 1.434 . S
C539 C540 1.369 . S
C539 C541 1.419 . S
C539 H543 0.930 . S
C540 C539 1.369 . S
C540 C549 1.429 . S
C541 C539 1.419 . S
C541 C542 1.363 . S
C541 H544 0.929 . S
C542 C541 1.363 . S
C542 C548 1.428 . S
H543 C539 0.930 . S
H544 C541 0.929 . S
S545 N546 1.613 . S
S545 N547 1.610 . S
N546 S545 1.613 . S
N546 C549 1.350 . S
N547 S545 1.610 . S
N547 C548 1.351 . S
C548 C542 1.428 . S
C548 N547 1.351 . S
C548 C549 1.434 . S
C549 C540 1.429 . S
C549 N546 1.350 . S
C549 C548 1.434 . S
C550 C551 1.369 . S
C550 C552 1.419 . S
C550 H554 0.930 1_556 S
C551 C550 1.369 . S
C551 C560 1.429 . S
C552 C550 1.419 . S
C552 C553 1.363 . S
C552 H555 0.929 1_556 S
C553 C552 1.363 . S
C553 C559 1.428 . S
H554 C550 0.930 1_554 S
H555 C552 0.929 1_554 S
S556 N557 1.613 . S
S556 N558 1.610 . S
N557 S556 1.613 . S
N557 C560 1.350 . S
N558 S556 1.610 . S
N558 C559 1.351 . S
C559 C553 1.428 . S
C559 N558 1.351 . S
C559 C560 1.434 . S
C560 C551 1.429 . S
C560 N557 1.350 . S
C560 C559 1.434 . S
C561 C562 1.369 . S
C561 C563 1.419 . S
C561 H565 0.930 . S
C562 C561 1.369 . S
C562 C571 1.429 . S
C563 C561 1.419 . S
C563 C564 1.363 . S
C563 H566 0.929 . S
C564 C563 1.363 . S
C564 C570 1.428 . S
H565 C561 0.930 . S
H566 C563 0.929 . S
S567 N568 1.613 . S
S567 N569 1.610 . S
N568 S567 1.613 . S
N568 C571 1.350 . S
N569 S567 1.610 . S
N569 C570 1.351 . S
C570 C564 1.428 . S
C570 N569 1.351 . S
C570 C571 1.434 . S
C571 C562 1.429 . S
C571 N568 1.350 . S
C571 C570 1.434 . S
C572 C573 1.369 . S
C572 C574 1.419 . S
C572 H576 0.930 . S
C573 C572 1.369 . S
C573 C582 1.429 . S
C574 C572 1.419 . S
C574 C575 1.363 1_655 S
C574 H577 0.927 1_655 S
C575 C574 1.363 1_455 S
C575 C581 1.428 . S
H576 C572 0.930 . S
H577 C574 0.927 1_455 S
S578 N579 1.613 1_455 S
S578 N580 1.610 . S
N579 S578 1.613 1_655 S
N579 C582 1.350 . S
N580 S578 1.610 . S
N580 C581 1.351 . S
C581 C575 1.428 . S
C581 N580 1.351 . S
C581 C582 1.434 1_455 S
C582 C573 1.429 . S
C582 N579 1.350 . S
C582 C581 1.434 1_655 S
C583 C584 1.369 . S
C583 C585 1.419 . S
C583 H587 0.930 . S
C584 C583 1.369 . S
C584 C593 1.429 . S
C585 C583 1.419 . S
C585 C586 1.363 1_655 S
C585 H588 0.929 . S
C586 C585 1.363 1_455 S
C586 C592 1.428 . S
H587 C583 0.930 . S
H588 C585 0.929 . S
S589 N590 1.613 1_455 S
S589 N591 1.610 . S
N590 S589 1.613 1_655 S
N590 C593 1.350 . S
N591 S589 1.610 . S
N591 C592 1.351 . S
C592 C586 1.428 . S
C592 N591 1.351 . S
C592 C593 1.434 1_455 S
C593 C584 1.429 . S
C593 N590 1.350 . S
C593 C592 1.434 1_655 S
C594 C595 1.369 . S
C594 C596 1.419 . S
C594 H598 0.930 . S
C595 C594 1.369 . S
C595 C604 1.429 . S
C596 C594 1.419 . S
C596 C597 1.363 . S
C596 H599 0.929 1_554 S
C597 C596 1.363 . S
C597 C603 1.428 . S
H598 C594 0.930 . S
H599 C596 0.929 1_556 S
S600 N601 1.613 . S
S600 N602 1.610 . S
N601 S600 1.613 . S
N601 C604 1.350 . S
N602 S600 1.610 . S
N602 C603 1.351 . S
C603 C597 1.428 . S
C603 N602 1.351 . S
C603 C604 1.434 . S
C604 C595 1.429 . S
C604 N601 1.350 . S
C604 C603 1.434 . S
C605 C606 1.369 . S
C605 C607 1.419 . S
C605 H609 0.930 . S
C606 C605 1.369 . S
C606 C615 1.429 . S
C607 C605 1.419 . S
C607 C608 1.363 . S
C607 H610 0.929 . S
C608 C607 1.363 . S
C608 C614 1.428 . S
H609 C605 0.930 . S
H610 C607 0.929 . S
S611 N612 1.613 . S
S611 N613 1.610 . S
N612 S611 1.613 . S
N612 C615 1.350 . S
N613 S611 1.610 . S
N613 C614 1.351 . S
C614 C608 1.428 . S
C614 N613 1.351 . S
C614 C615 1.434 . S
C615 C606 1.429 . S
C615 N612 1.350 . S
C615 C614 1.434 . S
C616 C617 1.369 . S
C616 C618 1.419 . S
C616 H620 0.930 . S
C617 C616 1.369 . S
C617 C626 1.429 . S
C618 C616 1.419 . S
C618 C619 1.363 . S
C618 H621 0.929 . S
C619 C618 1.363 . S
C619 C625 1.428 . S
H620 C616 0.930 . S
H621 C618 0.929 . S
S622 N623 1.613 . S
S622 N624 1.610 . S
N623 S622 1.613 . S
N623 C626 1.350 . S
N624 S622 1.610 . S
N624 C625 1.351 . S
C625 C619 1.428 . S
C625 N624 1.351 . S
C625 C626 1.434 . S
C626 C617 1.429 . S
C626 N623 1.350 . S
C626 C625 1.434 . S
C627 C628 1.369 . S
C627 C629 1.419 . S
C627 H631 0.930 . S
C628 C627 1.369 . S
C628 C637 1.429 . S
C629 C627 1.419 . S
C629 C630 1.363 . S
C629 H632 0.929 . S
C630 C629 1.363 . S
C630 C636 1.428 . S
H631 C627 0.930 . S
H632 C629 0.929 . S
S633 N634 1.613 . S
S633 N635 1.610 . S
N634 S633 1.613 . S
N634 C637 1.350 . S
N635 S633 1.610 . S
N635 C636 1.351 . S
C636 C630 1.428 . S
C636 N635 1.351 . S
C636 C637 1.434 . S
C637 C628 1.429 . S
C637 N634 1.350 . S
C637 C636 1.434 . S
C638 C639 1.369 . S
C638 C640 1.419 . S
C638 H642 0.930 . S
C639 C638 1.369 . S
C639 C648 1.429 . S
C640 C638 1.419 . S
C640 C641 1.363 . S
C640 H643 0.929 . S
C641 C640 1.363 . S
C641 C647 1.428 . S
H642 C638 0.930 . S
H643 C640 0.929 . S
S644 N645 1.613 . S
S644 N646 1.610 1_455 S
N645 S644 1.613 . S
N645 C648 1.350 1_455 S
N646 S644 1.610 1_655 S
N646 C647 1.351 . S
C647 C641 1.428 . S
C647 N646 1.351 . S
C647 C648 1.434 . S
C648 C639 1.429 . S
C648 N645 1.350 1_655 S
C648 C647 1.434 . S
C649 C650 1.369 . S
C649 C651 1.419 . S
C649 H653 0.930 . S
C650 C649 1.369 . S
C650 C659 1.429 . S
C651 C649 1.419 . S
C651 C652 1.363 . S
C651 H654 0.950 . S
C652 C651 1.363 . S
C652 C658 1.428 . S
H653 C649 0.930 . S
H654 C651 0.950 . S
S655 N656 1.613 . S
S655 N657 1.610 . S
N656 S655 1.613 . S
N656 C659 1.350 . S
N657 S655 1.610 . S
N657 C658 1.351 . S
C658 C652 1.428 . S
C658 N657 1.351 . S
C658 C659 1.434 . S
C659 C650 1.429 . S
C659 N656 1.350 . S
C659 C658 1.434 . S
C660 C661 1.369 . S
C660 C662 1.419 . S
C660 H664 0.930 1_554 S
C661 C660 1.369 . S
C661 C670 1.429 . S
C662 C660 1.419 . S
C662 C663 1.363 . S
C662 H665 0.929 . S
C663 C662 1.363 . S
C663 C669 1.428 . S
H664 C660 0.930 1_556 S
H665 C662 0.929 . S
S666 N667 1.613 . S
S666 N668 1.610 . S
N667 S666 1.613 . S
N667 C670 1.350 . S
N668 S666 1.610 . S
N668 C669 1.351 . S
C669 C663 1.428 . S
C669 N668 1.351 . S
C669 C670 1.434 . S
C670 C661 1.429 . S
C670 N667 1.350 . S
C670 C669 1.434 . S
C671 C672 1.369 . S
C671 C673 1.419 . S
C671 H675 0.930 . S
C672 C671 1.369 . S
C672 C681 1.429 . S
C673 C671 1.419 . S
C673 C674 1.363 . S
C673 H676 0.929 . S
C674 C673 1.363 . S
C674 C680 1.428 . S
H675 C671 0.930 . S
H676 C673 0.929 . S
S677 N678 1.613 . S
S677 N679 1.610 . S
N678 S677 1.613 . S
N678 C681 1.350 1_554 S
N679 S677 1.610 . S
N679 C680 1.351 1_554 S
C680 C674 1.428 . S
C680 N679 1.351 1_556 S
C680 C681 1.434 . S
C681 C672 1.429 . S
C681 N678 1.350 1_556 S
C681 C680 1.434 . S
C682 C683 1.369 . S
C682 C684 1.419 . S
C682 H686 0.930 . S
C683 C682 1.369 . S
C683 C692 1.429 . S
C684 C682 1.419 . S
C684 C685 1.363 . S
C684 H687 0.929 . S
C685 C684 1.363 . S
C685 C691 1.428 . S
H686 C682 0.930 . S
H687 C684 0.929 . S
S688 N689 1.613 . S
S688 N690 1.610 . S
N689 S688 1.613 . S
N689 C692 1.350 . S
N690 S688 1.610 . S
N690 C691 1.351 . S
C691 C685 1.428 . S
C691 N690 1.351 . S
C691 C692 1.434 . S
C692 C683 1.429 . S
C692 N689 1.350 . S
C692 C691 1.434 . S
C693 C694 1.369 . S
C693 C695 1.419 . S
C693 H697 0.930 . S
C694 C693 1.369 . S
C694 C703 1.429 . S
C695 C693 1.419 . S
C695 C696 1.363 . S
C695 H698 0.929 . S
C696 C695 1.363 . S
C696 C702 1.428 . S
H697 C693 0.930 . S
H698 C695 0.929 . S
S699 N700 1.613 . S
S699 N701 1.610 . S
N700 S699 1.613 . S
N700 C703 1.350 . S
N701 S699 1.610 . S
N701 C702 1.351 . S
C702 C696 1.428 . S
C702 N701 1.351 . S
C702 C703 1.434 . S
C703 C694 1.429 . S
C703 N700 1.350 . S
C703 C702 1.434 . S
C704 C705 1.369 1_565 S
C704 C706 1.419 1_554 S
C704 H708 0.930 . S
C705 C704 1.369 1_545 S
C705 C714 1.429 . S
C706 C704 1.419 1_556 S
C706 C707 1.363 . S
C706 H709 0.929 . S
C707 C706 1.363 . S
C707 C713 1.428 1_565 S
H708 C704 0.930 . S
H709 C706 0.929 . S
S710 N711 1.613 1_556 S
S710 N712 1.610 . S
N711 S710 1.613 1_554 S
N711 C714 1.350 . S
N712 S710 1.610 . S
N712 C713 1.351 . S
C713 C707 1.428 1_545 S
C713 N712 1.351 . S
C713 C714 1.434 1_556 S
C714 C705 1.429 . S
C714 N711 1.350 . S
C714 C713 1.434 1_554 S
C715 C716 1.369 . S
C715 C717 1.419 . S
C715 H719 0.930 . S
C716 C715 1.369 . S
C716 C725 1.429 . S
C717 C715 1.419 . S
C717 C718 1.363 . S
C717 H720 0.929 . S
C718 C717 1.363 . S
C718 C724 1.428 . S
H719 C715 0.930 . S
H720 C717 0.929 . S
S721 N722 1.613 . S
S721 N723 1.610 . S
N722 S721 1.613 . S
N722 C725 1.350 . S
N723 S721 1.610 . S
N723 C724 1.351 . S
C724 C718 1.428 . S
C724 N723 1.351 . S
C724 C725 1.434 . S
C725 C716 1.429 . S
C725 N722 1.350 . S
C725 C724 1.434 . S
C726 C727 1.369 1_565 S
C726 C728 1.419 . S
C726 H730 0.930 . S
C727 C726 1.369 1_545 S
C727 C736 1.429 . S
C728 C726 1.419 . S
C728 C729 1.363 . S
C728 H731 0.929 . S
C729 C728 1.363 . S
C729 C735 1.428 1_565 S
H730 C726 0.930 . S
H731 C728 0.929 . S
S732 N733 1.613 . S
S732 N734 1.610 . S
N733 S732 1.613 . S
N733 C736 1.350 . S
N734 S732 1.610 . S
N734 C735 1.351 . S
C735 C729 1.428 1_545 S
C735 N734 1.351 . S
C735 C736 1.434 . S
C736 C727 1.429 . S
C736 N733 1.350 . S
C736 C735 1.434 . S
C737 C738 1.369 . S
C737 C739 1.419 . S
C737 H741 0.930 . S
C738 C737 1.369 . S
C738 C747 1.429 . S
C739 C737 1.419 . S
C739 C740 1.363 . S
C739 H742 0.929 . S
C740 C739 1.363 . S
C740 C746 1.428 . S
H741 C737 0.930 . S
H742 C739 0.929 . S
S743 N744 1.613 . S
S743 N745 1.610 . S
N744 S743 1.613 . S
N744 C747 1.350 . S
N745 S743 1.610 . S
N745 C746 1.351 . S
C746 C740 1.428 . S
C746 N745 1.351 . S
C746 C747 1.434 . S
C747 C738 1.429 . S
C747 N744 1.350 . S
C747 C746 1.434 . S
C748 C749 1.369 . S
C748 C750 1.419 . S
C748 H752 0.930 . S
C749 C748 1.369 . S
C749 C758 1.429 . S
C750 C748 1.419 . S
C750 C751 1.363 . S
C750 H753 0.929 . S
C751 C750 1.363 . S
C751 C757 1.428 . S
H752 C748 0.930 . S
H753 C750 0.929 . S
S754 N755 1.613 . S
S754 N756 1.610 . S
N755 S754 1.613 . S
N755 C758 1.350 . S
N756 S754 1.610 . S
N756 C757 1.351 . S
C757 C751 1.428 . S
C757 N756 1.351 . S
C757 C758 1.434 . S
C758 C749 1.429 . S
C758 N755 1.350 . S
C758 C757 1.434 . S
C759 C760 1.369 . S
C759 C761 1.419 . S
C759 H763 0.930 . S
C760 C759 1.369 . S
C760 C769 1.429 . S
C761 C759 1.419 . S
C761 C762 1.363 . S
C761 H764 0.929 . S
C762 C761 1.363 . S
C762 C768 1.428 . S
H763 C759 0.930 . S
H764 C761 0.929 . S
S765 N766 1.613 . S
S765 N767 1.610 . S
N766 S765 1.613 . S
N766 C769 1.350 . S
N767 S765 1.610 . S
N767 C768 1.351 . S
C768 C762 1.428 . S
C768 N767 1.351 . S
C768 C769 1.434 . S
C769 C760 1.429 . S
C769 N766 1.350 . S
C769 C768 1.434 . S
C770 C771 1.369 . S
C770 C772 1.419 . S
C770 H774 0.930 . S
C771 C770 1.369 . S
C771 C780 1.429 . S
C772 C770 1.419 . S
C772 C773 1.363 . S
C772 H775 0.929 . S
C773 C772 1.363 . S
C773 C779 1.428 . S
H774 C770 0.930 . S
H775 C772 0.929 . S
S776 N777 1.613 . S
S776 N778 1.610 . S
N777 S776 1.613 . S
N777 C780 1.350 . S
N778 S776 1.610 . S
N778 C779 1.351 . S
C779 C773 1.428 . S
C779 N778 1.351 . S
C779 C780 1.434 . S
C780 C771 1.429 . S
C780 N777 1.350 . S
C780 C779 1.434 . S
C781 C782 1.369 . S
C781 C783 1.419 1_556 S
C781 H785 0.930 . S
C782 C781 1.369 . S
C782 C791 1.429 . S
C783 C781 1.419 1_554 S
C783 C784 1.363 . S
C783 H786 0.929 . S
C784 C783 1.363 . S
C784 C790 1.428 . S
H785 C781 0.930 . S
H786 C783 0.929 . S
S787 N788 1.613 . S
S787 N789 1.610 1_556 S
N788 S787 1.613 . S
N788 C791 1.350 . S
N789 S787 1.610 1_554 S
N789 C790 1.351 . S
C790 C784 1.428 . S
C790 N789 1.351 . S
C790 C791 1.434 1_554 S
C791 C782 1.429 . S
C791 N788 1.350 . S
C791 C790 1.434 1_556 S
C792 C793 1.369 . S
C792 C794 1.419 . S
C792 H796 0.930 . S
C793 C792 1.369 . S
C793 C802 1.429 . S
C794 C792 1.419 . S
C794 C795 1.363 . S
C794 H797 0.929 . S
C795 C794 1.363 . S
C795 C801 1.428 . S
H796 C792 0.930 . S
H797 C794 0.929 . S
S798 N799 1.613 . S
S798 N800 1.610 . S
N799 S798 1.613 . S
N799 C802 1.350 . S
N800 S798 1.610 . S
N800 C801 1.351 . S
C801 C795 1.428 . S
C801 N800 1.351 . S
C801 C802 1.434 . S
C802 C793 1.429 . S
C802 N799 1.350 . S
C802 C801 1.434 . S
C803 C804 1.369 . S
C803 C805 1.419 1_554 S
C803 H807 0.930 . S
C804 C803 1.369 . S
C804 C813 1.429 . S
C805 C803 1.419 1_556 S
C805 C806 1.363 . S
C805 H808 0.929 . S
C806 C805 1.363 . S
C806 C812 1.428 . S
H807 C803 0.930 . S
H808 C805 0.929 . S
S809 N810 1.613 . S
S809 N811 1.610 1_554 S
N810 S809 1.613 . S
N810 C813 1.350 . S
N811 S809 1.610 1_556 S
N811 C812 1.351 . S
C812 C806 1.428 . S
C812 N811 1.351 . S
C812 C813 1.434 1_556 S
C813 C804 1.429 . S
C813 N810 1.350 . S
C813 C812 1.434 1_554 S
C814 C815 1.369 . S
C814 C816 1.419 . S
C814 H818 0.930 . S
C815 C814 1.369 . S
C815 C824 1.429 . S
C816 C814 1.419 . S
C816 C817 1.363 . S
C816 H819 0.929 . S
C817 C816 1.363 . S
C817 C823 1.428 . S
H818 C814 0.930 . S
H819 C816 0.929 . S
S820 N821 1.613 . S
S820 N822 1.610 . S
N821 S820 1.613 . S
N821 C824 1.350 . S
N822 S820 1.610 . S
N822 C823 1.351 . S
C823 C817 1.428 . S
C823 N822 1.351 . S
C823 C824 1.434 . S
C824 C815 1.429 . S
C824 N821 1.350 . S
C824 C823 1.434 . S
C825 C826 1.369 . S
C825 C827 1.419 . S
C825 H829 0.930 . S
C826 C825 1.369 . S
C826 C835 1.429 . S
C827 C825 1.419 . S
C827 C828 1.363 . S
C827 H830 0.929 . S
C828 C827 1.363 . S
C828 C834 1.428 . S
H829 C825 0.930 . S
H830 C827 0.929 . S
S831 N832 1.613 . S
S831 N833 1.610 . S
N832 S831 1.613 . S
N832 C835 1.350 . S
N833 S831 1.610 . S
N833 C834 1.351 . S
C834 C828 1.428 . S
C834 N833 1.351 . S
C834 C835 1.434 . S
C835 C826 1.429 . S
C835 N832 1.350 . S
C835 C834 1.434 . S
C836 C837 1.369 . S
C836 C838 1.419 . S
C836 H840 0.930 . S
C837 C836 1.369 . S
C837 C846 1.429 . S
C838 C836 1.419 . S
C838 C839 1.363 . S
C838 H841 0.929 . S
C839 C838 1.363 . S
C839 C845 1.428 . S
H840 C836 0.930 . S
H841 C838 0.929 . S
S842 N843 1.613 . S
S842 N844 1.610 . S
N843 S842 1.613 . S
N843 C846 1.350 . S
N844 S842 1.610 . S
N844 C845 1.351 . S
C845 C839 1.428 . S
C845 N844 1.351 . S
C845 C846 1.434 . S
C846 C837 1.429 . S
C846 N843 1.350 . S
C846 C845 1.434 . S
C847 C848 1.369 . S
C847 C849 1.419 . S
C847 H851 0.930 . S
C848 C847 1.369 . S
C848 C857 1.429 . S
C849 C847 1.419 . S
C849 C850 1.363 . S
C849 H852 0.929 . S
C850 C849 1.363 . S
C850 C856 1.428 . S
H851 C847 0.930 . S
H852 C849 0.929 . S
S853 N854 1.613 . S
S853 N855 1.610 . S
N854 S853 1.613 . S
N854 C857 1.350 . S
N855 S853 1.610 . S
N855 C856 1.351 . S
C856 C850 1.428 . S
C856 N855 1.351 . S
C856 C857 1.434 . S
C857 C848 1.429 . S
C857 N854 1.350 . S
C857 C856 1.434 . S
C858 C859 1.369 . S
C858 C860 1.419 . S
C858 H862 0.930 . S
C859 C858 1.369 . S
C859 C868 1.429 . S
C860 C858 1.419 . S
C860 C861 1.363 . S
C860 H863 0.929 . S
C861 C860 1.363 . S
C861 C867 1.428 . S
H862 C858 0.930 . S
H863 C860 0.929 . S
S864 N865 1.613 . S
S864 N866 1.610 . S
N865 S864 1.613 . S
N865 C868 1.350 . S
N866 S864 1.610 . S
N866 C867 1.351 . S
C867 C861 1.428 . S
C867 N866 1.351 . S
C867 C868 1.434 . S
C868 C859 1.429 . S
C868 N865 1.350 . S
C868 C867 1.434 . S
C869 C870 1.369 . S
C869 C871 1.419 1_556 S
C869 H873 0.930 . S
C870 C869 1.369 . S
C870 C879 1.429 . S
C871 C869 1.419 1_554 S
C871 C872 1.363 . S
C871 H874 0.929 . S
C872 C871 1.363 . S
C872 C878 1.428 . S
H873 C869 0.930 . S
H874 C871 0.929 . S
S875 N876 1.613 . S
S875 N877 1.610 1_556 S
N876 S875 1.613 . S
N876 C879 1.350 . S
N877 S875 1.610 1_554 S
N877 C878 1.351 . S
C878 C872 1.428 . S
C878 N877 1.351 . S
C878 C879 1.434 1_554 S
C879 C870 1.429 . S
C879 N876 1.350 . S
C879 C878 1.434 1_556 S
C880 C881 1.369 . S
C880 C882 1.419 1_554 S
C880 H884 0.930 . S
C881 C880 1.369 . S
C881 C890 1.429 1_554 S
C882 C880 1.419 1_556 S
C882 C883 1.363 . S
C882 H885 0.929 . S
C883 C882 1.363 . S
C883 C889 1.428 . S
H884 C880 0.930 . S
H885 C882 0.929 . S
S886 N887 1.613 . S
S886 N888 1.610 . S
N887 S886 1.613 . S
N887 C890 1.350 . S
N888 S886 1.610 . S
N888 C889 1.351 . S
C889 C883 1.428 . S
C889 N888 1.351 . S
C889 C890 1.434 . S
C890 C881 1.429 1_556 S
C890 N887 1.350 . S
C890 C889 1.434 . S
C891 C892 1.369 . S
C891 C893 1.419 . S
C891 H895 0.930 . S
C892 C891 1.369 . S
C892 C901 1.429 . S
C893 C891 1.419 . S
C893 C894 1.363 . S
C893 H896 0.929 . S
C894 C893 1.363 . S
C894 C900 1.428 . S
H895 C891 0.930 . S
H896 C893 0.929 . S
S897 N898 1.613 . S
S897 N899 1.610 . S
N898 S897 1.613 . S
N898 C901 1.350 . S
N899 S897 1.610 . S
N899 C900 1.351 . S
C900 C894 1.428 . S
C900 N899 1.351 . S
C900 C901 1.434 . S
C901 C892 1.429 . S
C901 N898 1.350 . S
C901 C900 1.434 . S
C902 C903 1.369 . S
C902 C904 1.419 . S
C902 H906 0.930 . S
C903 C902 1.369 . S
C903 C912 1.429 . S
C904 C902 1.419 . S
C904 C905 1.363 . S
C904 H907 0.929 . S
C905 C904 1.363 . S
C905 C911 1.428 . S
H906 C902 0.930 . S
H907 C904 0.929 . S
S908 N909 1.613 . S
S908 N910 1.610 . S
N909 S908 1.613 . S
N909 C912 1.350 . S
N910 S908 1.610 . S
N910 C911 1.351 . S
C911 C905 1.428 . S
C911 N910 1.351 . S
C911 C912 1.434 . S
C912 C903 1.429 . S
C912 N909 1.350 . S
C912 C911 1.434 . S
C913 C914 1.369 . S
C913 C915 1.419 1_554 S
C913 H917 0.930 . S
C914 C913 1.369 . S
C914 C923 1.429 . S
C915 C913 1.419 1_556 S
C915 C916 1.363 . S
C915 H918 0.929 . S
C916 C915 1.363 . S
C916 C922 1.428 1_556 S
H917 C913 0.930 . S
H918 C915 0.929 . S
S919 N920 1.613 . S
S919 N921 1.610 1_554 S
N920 S919 1.613 . S
N920 C923 1.350 . S
N921 S919 1.610 1_556 S
N921 C922 1.351 1_556 S
C922 C916 1.428 1_554 S
C922 N921 1.351 1_554 S
C922 C923 1.434 . S
C923 C914 1.429 . S
C923 N920 1.350 . S
C923 C922 1.434 . S
C924 C925 1.369 . S
C924 C926 1.419 . S
C924 H928 0.930 . S
C925 C924 1.369 . S
C925 C934 1.429 . S
C926 C924 1.419 . S
C926 C927 1.363 . S
C926 H929 0.929 . S
C927 C926 1.363 . S
C927 C933 1.428 . S
H928 C924 0.930 . S
H929 C926 0.929 . S
S930 N931 1.613 . S
S930 N932 1.610 . S
N931 S930 1.613 . S
N931 C934 1.350 . S
N932 S930 1.610 . S
N932 C933 1.351 . S
C933 C927 1.428 . S
C933 N932 1.351 . S
C933 C934 1.434 . S
C934 C925 1.429 . S
C934 N931 1.350 . S
C934 C933 1.434 . S
C935 C936 1.369 . S
C935 C937 1.419 . S
C935 H939 0.930 . S
C936 C935 1.369 . S
C936 C945 1.429 . S
C937 C935 1.419 . S
C937 C938 1.363 . S
C937 H940 0.929 . S
C938 C937 1.363 . S
C938 C944 1.428 . S
H939 C935 0.930 . S
H940 C937 0.929 . S
S941 N942 1.613 . S
S941 N943 1.610 . S
N942 S941 1.613 . S
N942 C945 1.350 . S
N943 S941 1.610 . S
N943 C944 1.351 . S
C944 C938 1.428 . S
C944 N943 1.351 . S
C944 C945 1.434 . S
C945 C936 1.429 . S
C945 N942 1.350 . S
C945 C944 1.434 . S
C946 C947 1.369 . S
C946 C948 1.419 . S
C946 H950 0.930 . S
C947 C946 1.369 . S
C947 C956 1.429 . S
C948 C946 1.419 . S
C948 C949 1.363 . S
C948 H951 0.929 . S
C949 C948 1.363 . S
C949 C955 1.428 . S
H950 C946 0.930 . S
H951 C948 0.929 . S
S952 N953 1.613 . S
S952 N954 1.610 . S
N953 S952 1.613 . S
N953 C956 1.350 . S
N954 S952 1.610 . S
N954 C955 1.351 . S
C955 C949 1.428 . S
C955 N954 1.351 . S
C955 C956 1.434 . S
C956 C947 1.429 . S
C956 N953 1.350 . S
C956 C955 1.434 . S
C957 C958 1.369 . S
C957 C959 1.419 . S
C957 H961 0.930 . S
C958 C957 1.369 . S
C958 C967 1.429 . S
C959 C957 1.419 . S
C959 C960 1.363 . S
C959 H962 0.929 . S
C960 C959 1.363 . S
C960 C966 1.428 . S
H961 C957 0.930 . S
H962 C959 0.929 . S
S963 N964 1.613 . S
S963 N965 1.610 . S
N964 S963 1.613 . S
N964 C967 1.350 . S
N965 S963 1.610 . S
N965 C966 1.351 . S
C966 C960 1.428 . S
C966 N965 1.351 . S
C966 C967 1.434 . S
C967 C958 1.429 . S
C967 N964 1.350 . S
C967 C966 1.434 . S
C529 C238 1.510 . S
C531 C7 1.509 . S
C540 C40 1.505 . S
C542 C139 1.507 . S
C551 C73 1.540 . S
C553 C172 1.540 . S
C562 C205 1.539 . S
C564 C106 1.544 . S
C573 C384 1.555 . S
C575 C153 1.560 . S
C584 C285 1.555 . S
C586 C21 1.559 . S
C595 C219 1.586 . S
C597 C351 1.586 . S
C606 C87 1.586 . S
C608 C318 1.589 . S
C617 C304 1.541 . S
C619 C403 1.540 . S
C628 C469 1.538 . S
C630 C337 1.539 . S
C639 C436 1.509 1_655 S
C641 C271 1.504 . S
C650 C370 1.504 . S
C652 C502 1.509 1_655 S
C661 C120 1.585 . S
C663 C483 1.585 . S
C672 C186 1.589 . S
C674 C417 1.583 . S
C683 C54 1.556 . S
C685 C516 1.560 . S
C694 C252 1.558 . S
C696 C450 1.558 . S
C705 C18 1.586 . S
C707 C150 1.593 . S
C716 C183 1.584 . S
C718 C51 1.588 . S
C727 C216 1.717 . S
C729 C84 1.728 . S
C738 C117 1.594 . S
C740 C249 1.579 . S
C749 C348 1.587 . S
C751 C282 1.584 . S
C760 C315 1.593 . S
C762 C381 1.580 . S
C771 C414 1.717 . S
C773 C480 1.728 . S
C782 C513 1.596 . S
C784 C447 1.585 . S
C793 N13 1.153 . S
C795 N2 1.156 . S
C804 N46 1.145 . S
C806 N35 1.144 . S
C815 N68 1.191 . S
C817 N79 1.194 . S
C826 N101 1.159 . S
C828 N112 1.158 . S
C837 N134 1.153 . S
C839 N145 1.156 . S
C848 N167 1.156 . S
C850 N178 1.160 . S
C859 N211 1.190 . S
C861 N200 1.194 . S
C870 N244 1.143 . S
C872 N233 1.146 . S
C881 N266 1.145 . S
C883 N277 1.144 . S
C892 N299 1.157 . S
C894 N310 1.160 . S
C903 N343 1.160 . S
C905 N332 1.158 . S
C914 N376 1.141 . S
C916 N365 1.147 . S
C925 N409 1.190 . S
C927 N398 1.194 . S
C936 N442 1.157 . S
C938 N431 1.153 . S
C947 N475 1.190 . S
C949 N464 1.194 . S
C958 N497 1.155 . S
C960 N508 1.154 . S
