# Generated by pormake.
# Topology skb, (5)-cn, num edge types: 1
# Building blocks:
#     Node 0, Type 0, BuildingBlock: XOMCOT_clean_sbu_1, # of connection points: 5
#     Node 1, Type 0, BuildingBlock: XOMCOT_clean_sbu_1, # of connection points: 5
#     Node 2, Type 0, BuildingBlock: XOMCOT_clean_sbu_1, # of connection points: 5
#     Node 3, Type 0, BuildingBlock: XOMCOT_clean_sbu_1, # of connection points: 5
#     Node 4, Type 0, BuildingBlock: XOMCOT_clean_sbu_1, # of connection points: 5
#     Node 5, Type 0, BuildingBlock: XOMCOT_clean_sbu_1, # of connection points: 5
#     Node 6, Type 0, BuildingBlock: XOMCOT_clean_sbu_1, # of connection points: 5
#     Node 7, Type 0, BuildingBlock: XOMCOT_clean_sbu_1, # of connection points: 5
#     Node 8, Type 0, BuildingBlock: XOMCOT_clean_sbu_1, # of connection points: 5
#     Node 9, Type 0, BuildingBlock: XOMCOT_clean_sbu_1, # of connection points: 5
#     Node 10, Type 0, BuildingBlock: XOMCOT_clean_sbu_1, # of connection points: 5
#     Node 11, Type 0, BuildingBlock: XOMCOT_clean_sbu_1, # of connection points: 5
#     Node 12, Type 0, BuildingBlock: XOMCOT_clean_sbu_1, # of connection points: 5
#     Node 13, Type 0, BuildingBlock: XOMCOT_clean_sbu_1, # of connection points: 5
#     Node 14, Type 0, BuildingBlock: XOMCOT_clean_sbu_1, # of connection points: 5
#     Node 15, Type 0, BuildingBlock: XOMCOT_clean_sbu_1, # of connection points: 5
#     Edge 16, Type (0, 0), BuildingBlock: KIFKEQ_clean_linker_1, # of connection points: 2
#     Edge 17, Type (0, 0), BuildingBlock: KIFKEQ_clean_linker_1, # of connection points: 2
#     Edge 18, Type (0, 0), BuildingBlock: KIFKEQ_clean_linker_1, # of connection points: 2
#     Edge 19, Type (0, 0), BuildingBlock: KIFKEQ_clean_linker_1, # of connection points: 2
#     Edge 20, Type (0, 0), BuildingBlock: KIFKEQ_clean_linker_1, # of connection points: 2
#     Edge 21, Type (0, 0), BuildingBlock: KIFKEQ_clean_linker_1, # of connection points: 2
#     Edge 22, Type (0, 0), BuildingBlock: KIFKEQ_clean_linker_1, # of connection points: 2
#     Edge 23, Type (0, 0), BuildingBlock: KIFKEQ_clean_linker_1, # of connection points: 2
#     Edge 24, Type (0, 0), BuildingBlock: KIFKEQ_clean_linker_1, # of connection points: 2
#     Edge 25, Type (0, 0), BuildingBlock: KIFKEQ_clean_linker_1, # of connection points: 2
#     Edge 26, Type (0, 0), BuildingBlock: KIFKEQ_clean_linker_1, # of connection points: 2
#     Edge 27, Type (0, 0), BuildingBlock: KIFKEQ_clean_linker_1, # of connection points: 2
#     Edge 28, Type (0, 0), BuildingBlock: KIFKEQ_clean_linker_1, # of connection points: 2
#     Edge 29, Type (0, 0), BuildingBlock: KIFKEQ_clean_linker_1, # of connection points: 2
#     Edge 30, Type (0, 0), BuildingBlock: KIFKEQ_clean_linker_1, # of connection points: 2
#     Edge 31, Type (0, 0), BuildingBlock: KIFKEQ_clean_linker_1, # of connection points: 2
#     Edge 32, Type (0, 0), BuildingBlock: KIFKEQ_clean_linker_1, # of connection points: 2
#     Edge 33, Type (0, 0), BuildingBlock: KIFKEQ_clean_linker_1, # of connection points: 2
#     Edge 34, Type (0, 0), BuildingBlock: KIFKEQ_clean_linker_1, # of connection points: 2
#     Edge 35, Type (0, 0), BuildingBlock: KIFKEQ_clean_linker_1, # of connection points: 2
#     Edge 36, Type (0, 0), BuildingBlock: KIFKEQ_clean_linker_1, # of connection points: 2
#     Edge 37, Type (0, 0), BuildingBlock: KIFKEQ_clean_linker_1, # of connection points: 2
#     Edge 38, Type (0, 0), BuildingBlock: KIFKEQ_clean_linker_1, # of connection points: 2
#     Edge 39, Type (0, 0), BuildingBlock: KIFKEQ_clean_linker_1, # of connection points: 2
#     Edge 40, Type (0, 0), BuildingBlock: KIFKEQ_clean_linker_1, # of connection points: 2
#     Edge 41, Type (0, 0), BuildingBlock: KIFKEQ_clean_linker_1, # of connection points: 2
#     Edge 42, Type (0, 0), BuildingBlock: KIFKEQ_clean_linker_1, # of connection points: 2
#     Edge 43, Type (0, 0), BuildingBlock: KIFKEQ_clean_linker_1, # of connection points: 2
#     Edge 44, Type (0, 0), BuildingBlock: KIFKEQ_clean_linker_1, # of connection points: 2
#     Edge 45, Type (0, 0), BuildingBlock: KIFKEQ_clean_linker_1, # of connection points: 2
#     Edge 46, Type (0, 0), BuildingBlock: KIFKEQ_clean_linker_1, # of connection points: 2
#     Edge 47, Type (0, 0), BuildingBlock: KIFKEQ_clean_linker_1, # of connection points: 2
#     Edge 48, Type (0, 0), BuildingBlock: KIFKEQ_clean_linker_1, # of connection points: 2
#     Edge 49, Type (0, 0), BuildingBlock: KIFKEQ_clean_linker_1, # of connection points: 2
#     Edge 50, Type (0, 0), BuildingBlock: KIFKEQ_clean_linker_1, # of connection points: 2
#     Edge 51, Type (0, 0), BuildingBlock: KIFKEQ_clean_linker_1, # of connection points: 2
#     Edge 52, Type (0, 0), BuildingBlock: KIFKEQ_clean_linker_1, # of connection points: 2
#     Edge 53, Type (0, 0), BuildingBlock: KIFKEQ_clean_linker_1, # of connection points: 2
#     Edge 54, Type (0, 0), BuildingBlock: KIFKEQ_clean_linker_1, # of connection points: 2
#     Edge 55, Type (0, 0), BuildingBlock: KIFKEQ_clean_linker_1, # of connection points: 2
# Relax obj value: 0.061
# Max RMSD: 0.109
# Mean RMSD: 0.108
data_MOF--net-skb--node1-XOMCOT_clean_sbu_1--edge1-KIFKEQ_clean_linker_1
_symmetry_space_group_name_H-M    P1
_symmetry_Int_Tables_number       1
_symmetry_cell_setting            triclinic
loop_
_symmetry_equiv_pos_as_xyz
'x, y, z'
_cell_length_a     50.1652
_cell_length_b     27.531592
_cell_length_c     68.866456
_cell_angle_alpha  90.123616
_cell_angle_beta   89.998295
_cell_angle_gamma 90.146426
loop_
_atom_site_label
_atom_site_type_symbol
_atom_site_fract_x
_atom_site_fract_y
_atom_site_fract_z
_atom_type_partial_charge
C0 C 0.17488 0.11013 0.12645 0.0
C1 C 0.17601 0.11521 0.10662 0.0
N2 N 0.18679 0.07464 0.09902 0.0
N3 N 0.18508 0.06674 0.13149 0.0
C4 C 0.19215 0.04576 0.11443 0.0
H5 H 0.16674 0.13617 0.13661 0.0
Co6 Co 0.18616 0.04571 0.15731 0.0
C7 C 0.19486 0.93978 0.15408 0.0
O8 O 0.17295 0.93404 0.16421 0.0
N9 N 0.18756 0.02513 0.18429 0.0
C10 C 0.17751 0.99573 0.21368 0.0
C11 C 0.16877 1.00187 0.19497 0.0
C12 C 0.20775 0.03211 0.19723 0.0
N13 N 0.20205 1.01499 0.21519 0.0
O14 O 0.22003 0.07719 0.15968 0.0
H15 H 0.14966 0.98939 0.18975 0.0
H16 H 0.22651 0.04924 0.19366 0.0
O17 O 0.20263 0.98282 0.14963 0.0
C18 C 0.21444 0.11886 0.16681 0.0
O19 O 0.1901 0.12669 0.17308 0.0
N20 N 0.15109 0.02382 0.1543 0.0
C21 C 0.09704 0.02723 0.14459 0.0
C22 C 0.11463 0.99687 0.13431 0.0
C23 C 0.14172 0.99598 0.13931 0.0
C24 C 0.1342 0.05314 0.1644 0.0
C25 C 0.10713 0.05405 0.1603 0.0
H26 H 0.15537 0.97596 0.13019 0.0
H27 H 0.14205 0.07772 0.17527 0.0
H28 H 0.20078 1.00989 0.1133 0.0
H29 H 0.16864 0.14581 0.09839 0.0
H30 H 0.1663 0.97929 0.22539 0.0
H31 H 0.10795 0.97631 0.12181 0.0
H32 H 0.09446 0.07729 0.16899 0.0
C33 C 0.82355 0.97801 0.12661 0.0
C34 C 0.82419 0.97268 0.10679 0.0
N35 N 0.81265 1.0118 0.09869 0.0
N36 N 0.8118 1.02045 0.1312 0.0
C37 C 0.80506 0.04022 0.11382 0.0
H38 H 0.8321 0.9533 0.13707 0.0
Co39 Co 0.81099 0.04228 0.1571 0.0
C40 C 0.80188 0.14744 0.1544 0.0
O41 O 0.82356 0.15248 0.16487 0.0
N42 N 0.80992 0.06349 0.1842 0.0
C43 C 0.82094 0.08888 0.21407 0.0
C44 C 0.82947 0.08351 0.19525 0.0
C45 C 0.78933 0.05853 0.19699 0.0
N46 N 0.7957 0.07285 0.21526 0.0
O47 O 0.77753 1.00962 0.16016 0.0
H48 H 0.84894 0.09441 0.19021 0.0
H49 H 0.77012 0.04335 0.19323 0.0
O50 O 0.79405 0.10467 0.14949 0.0
C51 C 0.78468 0.96941 0.16785 0.0
O52 O 0.8097 0.9641 0.17304 0.0
N53 N 0.84588 0.06491 0.15363 0.0
C54 C 0.89978 0.06258 0.14347 0.0
C55 C 0.88195 0.09312 0.13356 0.0
C56 C 0.85489 0.09335 0.13873 0.0
C57 C 0.86304 0.03532 0.16329 0.0
C58 C 0.89002 0.0349 0.15898 0.0
H59 H 0.84101 0.11344 0.12986 0.0
H60 H 0.85552 1.01027 0.17405 0.0
H61 H 0.79619 0.07578 0.11223 0.0
H62 H 0.83303 0.94274 0.09888 0.0
H63 H 0.83247 0.10372 0.22598 0.0
H64 H 0.88847 0.11435 0.12121 0.0
H65 H 0.90291 1.01143 0.16735 0.0
C66 C 0.18142 0.95805 0.92921 0.0
C67 C 0.18392 0.9553 0.94904 0.0
N68 N 0.18823 1.00038 0.95602 0.0
N69 N 0.18435 1.00456 0.92355 0.0
C70 C 0.18831 0.02973 0.94024 0.0
H71 H 0.17745 0.92799 0.9195 0.0
Co72 Co 0.18211 0.02288 0.89749 0.0
C73 C 0.19429 0.12759 0.89596 0.0
O74 O 0.1738 0.1311 0.88419 0.0
N75 N 0.18014 0.04023 0.87043 0.0
C76 C 0.16681 0.05654 0.8402 0.0
C77 C 0.15868 0.04893 0.85903 0.0
C78 C 0.20106 0.04316 0.85796 0.0
N79 N 0.1935 0.05249 0.83948 0.0
O80 O 0.21498 0.98893 0.89292 0.0
H81 H 0.13821 0.04956 0.86378 0.0
H82 H 0.22158 0.03802 0.8623 0.0
O83 O 0.20035 0.08589 0.90304 0.0
C84 C 0.20845 0.94881 0.88473 0.0
O85 O 0.18371 0.94319 0.87887 0.0
N86 N 0.14808 0.04693 0.90258 0.0
C87 C 0.09512 0.05105 0.91457 0.0
C88 C 0.11309 0.088 0.91984 0.0
C89 C 0.1399 0.08456 0.91411 0.0
C90 C 0.13072 1.01096 0.89754 0.0
C91 C 0.1042 1.01257 0.90312 0.0
H92 H 0.15405 0.11044 0.91986 0.0
H93 H 0.13783 0.9798 0.88953 0.0
H94 H 0.19124 0.06865 0.94084 0.0
H95 H 0.18203 0.92271 0.9577 0.0
H96 H 0.15391 0.06285 0.82787 0.0
H97 H 0.10679 0.11769 0.92909 0.0
H98 H 0.09096 0.98334 0.89877 0.0
C99 C 0.81713 0.11426 0.92749 0.0
C100 C 0.81721 0.11813 0.94736 0.0
N101 N 0.81002 0.07499 0.9549 0.0
N102 N 0.81002 0.06882 0.92231 0.0
C103 C 0.8056 0.04557 0.93939 0.0
H104 H 0.82293 0.1424 0.9174 0.0
Co105 Co 0.81182 0.04952 0.89618 0.0
C106 C 0.80049 0.94491 0.89514 0.0
O107 O 0.82149 0.94144 0.88385 0.0
N108 N 0.81356 0.03141 0.86897 0.0
C109 C 0.82747 1.01605 0.83875 0.0
C110 C 0.83513 1.02187 0.85778 0.0
C111 C 0.79293 0.03009 0.85612 0.0
N112 N 0.80089 1.02169 0.83761 0.0
O113 O 0.77887 0.08287 0.89163 0.0
H114 H 0.85542 1.01926 0.86279 0.0
H115 H 0.77246 0.03719 0.86012 0.0
O116 O 0.79378 0.98667 0.9019 0.0
C117 C 0.78596 0.12266 0.88353 0.0
O118 O 0.8111 0.12852 0.87875 0.0
N119 N 0.84602 0.02589 0.90123 0.0
C120 C 0.89886 0.02304 0.91362 0.0
C121 C 0.88076 0.98698 0.91951 0.0
C122 C 0.85402 0.98984 0.91356 0.0
C123 C 0.86354 0.06101 0.8956 0.0
C124 C 0.89001 0.05993 0.90135 0.0
H125 H 0.83973 0.96501 0.91979 0.0
H126 H 0.85663 0.09121 0.887 0.0
H127 H 0.80072 1.00736 0.9405 0.0
H128 H 0.82275 0.15 0.95568 0.0
H129 H 0.84061 1.00851 0.82666 0.0
H130 H 0.88687 0.9586 0.92941 0.0
H131 H 0.90335 0.08849 0.89654 0.0
C132 C 0.16118 0.59117 0.62622 0.0
C133 C 0.1619 0.60009 0.60663 0.0
N134 N 0.17874 0.56824 0.59821 0.0
N135 N 0.17737 0.55363 0.63038 0.0
C136 C 0.18797 0.54053 0.61304 0.0
H137 H 0.14892 0.60989 0.63675 0.0
Co138 Co 0.18115 0.52845 0.65569 0.0
C139 C 0.19095 0.42432 0.64293 0.0
O140 O 0.1657 0.4136 0.64525 0.0
N141 N 0.18572 0.50336 0.68149 0.0
C142 C 0.18392 0.4539 0.70703 0.0
C143 C 0.17702 0.45982 0.68793 0.0
C144 C 0.19797 0.52319 0.69727 0.0
N145 N 0.19707 0.49387 0.71308 0.0
O146 O 0.21412 0.56394 0.65769 0.0
H147 H 0.16569 0.43398 0.67956 0.0
H148 H 0.20718 0.55868 0.69728 0.0
O149 O 0.19919 0.46805 0.64586 0.0
C150 C 0.2045 0.60503 0.66299 0.0
O151 O 0.1794 0.60655 0.66848 0.0
N152 N 0.14587 0.50356 0.65414 0.0
C153 C 0.0911 0.51614 0.64904 0.0
C154 C 0.10652 0.49537 0.63427 0.0
C155 C 0.13399 0.48988 0.63702 0.0
C156 C 0.13047 0.52035 0.66906 0.0
C157 C 0.10311 0.52607 0.66693 0.0
H158 H 0.14597 0.47934 0.62467 0.0
H159 H 0.13954 0.53499 0.68204 0.0
H160 H 0.20186 0.51086 0.61131 0.0
H161 H 0.15001 0.62689 0.59915 0.0
H162 H 0.17968 0.42202 0.71565 0.0
H163 H 0.09796 0.48777 0.62015 0.0
H164 H 0.09182 0.5421 0.67872 0.0
C165 C 0.83038 0.49431 0.62675 0.0
C166 C 0.829 0.48704 0.60704 0.0
N167 N 0.8128 0.52093 0.5994 0.0
N168 N 0.81502 0.53247 0.63171 0.0
C169 C 0.80458 0.54815 0.61469 0.0
H170 H 0.84221 0.47345 0.63685 0.0
Co171 Co 0.8118 0.55416 0.65752 0.0
C172 C 0.79634 0.65712 0.65258 0.0
O173 O 0.81805 0.66943 0.66197 0.0
N174 N 0.80816 0.57558 0.6843 0.0
C175 C 0.81498 0.60989 0.71339 0.0
C176 C 0.8241 0.6059 0.69468 0.0
C177 C 0.789 0.5627 0.69735 0.0
N178 N 0.79291 0.58261 0.71513 0.0
O179 O 0.78062 0.51405 0.65995 0.0
H180 H 0.84146 0.62471 0.68927 0.0
H181 H 0.77262 0.53841 0.69413 0.0
O182 O 0.79101 0.61216 0.64935 0.0
C183 C 0.79142 0.47426 0.66546 0.0
O184 O 0.81666 0.47532 0.67058 0.0
N185 N 0.84505 0.58442 0.65479 0.0
C186 C 0.89919 0.59922 0.64817 0.0
C187 C 0.88022 0.62057 0.63593 0.0
C188 C 0.85304 0.61244 0.63944 0.0
C189 C 0.86351 0.56207 0.66619 0.0
C190 C 0.89054 0.57023 0.66356 0.0
H191 H 0.83855 0.62626 0.62924 0.0
H192 H 0.85719 0.53632 0.67709 0.0
H193 H 0.79128 0.57888 0.61349 0.0
H194 H 0.83972 0.45969 0.59889 0.0
H195 H 0.8238 0.63171 0.72481 0.0
H196 H 0.88636 0.64184 0.6235 0.0
H197 H 0.90467 0.55156 0.6728 0.0
C198 C 0.15465 0.50004 0.42656 0.0
C199 C 0.1561 0.49262 0.44622 0.0
N200 N 0.17356 0.52473 0.45385 0.0
N201 N 0.171 0.53681 0.42158 0.0
C202 C 0.18234 0.55123 0.43851 0.0
H203 H 0.14198 0.48049 0.41651 0.0
Co204 Co 0.1738 0.55845 0.39581 0.0
C205 C 0.18576 0.66375 0.40131 0.0
O206 O 0.16305 0.67296 0.39269 0.0
N207 N 0.17692 0.57986 0.36909 0.0
C208 C 0.17025 0.61723 0.34069 0.0
C209 C 0.16104 0.61113 0.35926 0.0
C210 C 0.19571 0.56743 0.35571 0.0
N211 N 0.19205 0.5897 0.3384 0.0
O212 O 0.20618 0.52136 0.39355 0.0
H213 H 0.14352 0.62884 0.36493 0.0
H214 H 0.21213 0.54312 0.35855 0.0
O215 O 0.19283 0.61939 0.40409 0.0
C216 C 0.19605 0.4805 0.38834 0.0
O217 O 0.17083 0.47971 0.38317 0.0
N218 N 0.13946 0.58459 0.39827 0.0
C219 C 0.08473 0.58639 0.40561 0.0
C220 C 0.10253 0.61182 0.41771 0.0
C221 C 0.12999 0.61 0.41391 0.0
C222 C 0.12228 0.55974 0.38655 0.0
C223 C 0.095 0.56097 0.38967 0.0
H224 H 0.14369 0.62599 0.42424 0.0
H225 H 0.12992 0.53619 0.37529 0.0
H226 H 0.19662 0.58063 0.43956 0.0
H227 H 0.14445 0.46642 0.45428 0.0
H228 H 0.16129 0.63972 0.32961 0.0
H229 H 0.09544 0.63109 0.43041 0.0
H230 H 0.08227 0.53914 0.38041 0.0
C231 C 0.79855 0.61936 0.42893 0.0
C232 C 0.7957 0.6218 0.44871 0.0
N233 N 0.79574 0.57629 0.45581 0.0
N234 N 0.80006 0.5725 0.42333 0.0
C235 C 0.79854 0.54692 0.44011 0.0
H236 H 0.80007 0.65011 0.41926 0.0
Co237 Co 0.80511 0.55457 0.39731 0.0
C238 C 0.79223 0.45018 0.39407 0.0
O239 O 0.81308 0.44681 0.38261 0.0
N240 N 0.81003 0.53798 0.37047 0.0
C241 C 0.82652 0.52784 0.34068 0.0
C242 C 0.83271 0.53518 0.35994 0.0
C243 C 0.79036 0.53171 0.35714 0.0
N244 N 0.7998 0.52606 0.33885 0.0
O245 O 0.77285 0.58863 0.39081 0.0
H246 H 0.85265 0.53921 0.36558 0.0
H247 H 0.76939 0.53346 0.36071 0.0
O248 O 0.78624 0.49155 0.40157 0.0
C249 C 0.78023 0.62838 0.38276 0.0
O250 O 0.80559 0.63403 0.37854 0.0
N251 N 0.83849 0.53017 0.40415 0.0
C252 C 0.89128 0.52255 0.41598 0.0
C253 C 0.87352 0.48386 0.41901 0.0
C254 C 0.8467 0.48902 0.4135 0.0
C255 C 0.85556 0.56819 0.40175 0.0
C256 C 0.88198 0.56511 0.40741 0.0
H257 H 0.83276 0.46079 0.41735 0.0
H258 H 0.84841 0.60156 0.39541 0.0
H259 H 0.79967 0.50772 0.44083 0.0
H260 H 0.79464 0.65471 0.45731 0.0
H261 H 0.84072 0.52477 0.32893 0.0
H262 H 0.88012 0.45081 0.42599 0.0
H263 H 0.89517 0.59574 0.40493 0.0
C264 C 0.67851 0.13677 0.62576 0.0
C265 C 0.67916 0.14078 0.60589 0.0
N266 N 0.68379 0.09651 0.59822 0.0
N267 N 0.68284 0.09026 0.63085 0.0
C268 C 0.68614 0.06646 0.61373 0.0
H269 H 0.67444 0.16587 0.63589 0.0
Co270 Co 0.68052 0.06987 0.65679 0.0
C271 C 0.69256 0.96559 0.65681 0.0
O272 O 0.67157 0.96026 0.66801 0.0
N273 N 0.67836 0.05028 0.68369 0.0
C274 C 0.66422 0.03308 0.71365 0.0
C275 C 0.65661 0.04146 0.69479 0.0
C276 C 0.69902 0.04613 0.6964 0.0
N277 N 0.69093 0.03639 0.71477 0.0
O278 O 0.71321 0.10397 0.662 0.0
H279 H 0.63624 0.0411 0.68982 0.0
H280 H 0.71963 0.05191 0.69239 0.0
O281 O 0.69901 1.00802 0.65066 0.0
C282 C 0.70603 0.14351 0.6703 0.0
O283 O 0.68099 0.14792 0.6756 0.0
N284 N 0.64656 0.04553 0.65116 0.0
C285 C 0.59374 0.04097 0.63874 0.0
C286 C 0.61205 1.00522 0.63298 0.0
C287 C 0.63875 1.00893 0.63893 0.0
C288 C 0.62892 0.08056 0.65656 0.0
C289 C 0.60245 0.07861 0.65082 0.0
H290 H 0.65311 0.98414 0.63281 0.0
H291 H 0.6357 0.11117 0.66507 0.0
H292 H 0.68907 0.02763 0.61263 0.0
H293 H 0.6762 0.17389 0.59774 0.0
H294 H 0.65096 0.02527 0.72564 0.0
H295 H 0.60609 0.97626 0.62322 0.0
H296 H 0.58898 0.10694 0.65558 0.0
C297 C 0.313 0.95188 0.62524 0.0
C298 C 0.31046 0.95063 0.6054 0.0
N299 N 0.30459 0.99569 0.59911 0.0
N300 N 0.30865 0.99741 0.63165 0.0
C301 C 0.30366 0.02349 0.61538 0.0
H302 H 0.31823 0.9216 0.63445 0.0
Co303 Co 0.31163 1.01415 0.65785 0.0
C304 C 0.29696 0.11769 0.66139 0.0
O305 O 0.31682 0.12172 0.67371 0.0
N306 N 0.31456 0.02968 0.68501 0.0
C307 C 0.32948 0.04478 0.7149 0.0
C308 C 0.33662 0.03731 0.69588 0.0
C309 C 0.29425 0.03285 0.69801 0.0
N310 N 0.30274 0.0416 0.7164 0.0
O311 O 0.27955 0.97778 0.66279 0.0
H312 H 0.35684 0.03786 0.69061 0.0
H313 H 0.2736 0.02776 0.69403 0.0
O314 O 0.29222 0.07637 0.65334 0.0
C315 C 0.28716 0.9375 0.67021 0.0
O316 O 0.3123 0.93303 0.67523 0.0
N317 N 0.34491 0.04099 0.65229 0.0
C318 C 0.39722 0.05114 0.6394 0.0
C319 C 0.37841 0.08769 0.63574 0.0
C320 C 0.35194 0.08129 0.64189 0.0
C321 C 0.36305 1.00533 0.65572 0.0
C322 C 0.38927 1.00987 0.64967 0.0
H323 H 0.33716 0.10728 0.63735 0.0
H324 H 0.35682 0.97233 0.66289 0.0
H325 H 0.29964 0.06208 0.61547 0.0
H326 H 0.31356 0.9191 0.59627 0.0
H327 H 0.34322 0.05212 0.72664 0.0
H328 H 0.38382 0.11959 0.62743 0.0
H329 H 0.40318 0.98088 0.65281 0.0
C330 C 0.66312 0.9771 0.42913 0.0
C331 C 0.66529 0.97456 0.44895 0.0
N332 N 0.67715 1.01546 0.45545 0.0
N333 N 0.6736 1.0193 0.42284 0.0
C334 C 0.68194 0.04219 0.43925 0.0
H335 H 0.65378 0.95025 0.41987 0.0
Co336 Co 0.67247 0.03611 0.39639 0.0
C337 C 0.68645 0.13928 0.39423 0.0
O338 O 0.66543 0.14319 0.38298 0.0
N339 N 0.67151 0.05172 0.36898 0.0
C340 C 0.6588 0.06628 0.33844 0.0
C341 C 0.65044 0.06151 0.35733 0.0
C342 C 0.6926 0.05178 0.35652 0.0
N343 N 0.68533 0.05991 0.33785 0.0
O344 O 0.70417 0.99788 0.39234 0.0
H345 H 0.63004 0.06549 0.36191 0.0
H346 H 0.7129 0.04454 0.36094 0.0
O347 O 0.69249 0.09755 0.4013 0.0
C348 C 0.69378 0.95744 0.38698 0.0
O349 O 0.66826 0.9568 0.38275 0.0
N350 N 0.6391 0.06416 0.40113 0.0
C351 C 0.58727 0.07052 0.41547 0.0
C352 C 0.60666 0.10447 0.42122 0.0
C353 C 0.63285 0.0999 0.41421 0.0
C354 C 0.62014 0.03163 0.3954 0.0
C355 C 0.59416 0.03464 0.40206 0.0
H356 H 0.64825 0.12254 0.42044 0.0
H357 H 0.62551 1.00138 0.38624 0.0
H358 H 0.69101 0.07788 0.43932 0.0
H359 H 0.65774 0.94539 0.45792 0.0
H360 H 0.64624 0.0741 0.32606 0.0
H361 H 0.60206 0.13205 0.43194 0.0
H362 H 0.57975 1.00773 0.3973 0.0
C363 C 0.30258 0.13863 0.43228 0.0
C364 C 0.29998 0.13909 0.45213 0.0
N365 N 0.29782 0.09289 0.45838 0.0
N366 N 0.3019 0.09242 0.42584 0.0
C367 C 0.29907 0.06522 0.44209 0.0
H368 H 0.30562 0.17005 0.42315 0.0
Co369 Co 0.30722 0.07595 0.39977 0.0
C370 C 0.29437 0.97138 0.39579 0.0
O371 O 0.31529 0.96846 0.38438 0.0
N372 N 0.31255 0.06058 0.37286 0.0
C373 C 0.32993 0.04911 0.34342 0.0
C374 C 0.33554 0.05685 0.36271 0.0
C375 C 0.29327 0.05468 0.35919 0.0
N376 N 0.30328 0.04808 0.3411 0.0
O377 O 0.27499 0.11048 0.39334 0.0
H378 H 0.35535 0.05976 0.36867 0.0
H379 H 0.27221 0.05667 0.36242 0.0
O380 O 0.28838 1.01252 0.40351 0.0
C381 C 0.28269 0.15088 0.38597 0.0
O382 O 0.30817 0.15659 0.38219 0.0
N383 N 0.34054 0.05142 0.40668 0.0
C384 C 0.39256 0.04518 0.42058 0.0
C385 C 0.37465 1.0064 0.4232 0.0
C386 C 0.34827 1.01076 0.41655 0.0
C387 C 0.35774 0.08928 0.40439 0.0
C388 C 0.38378 0.08677 0.41096 0.0
H389 H 0.33412 0.98266 0.42017 0.0
H390 H 0.35094 0.12229 0.39758 0.0
H391 H 0.29839 0.02594 0.44199 0.0
H392 H 0.30073 0.17105 0.46128 0.0
H393 H 0.34454 0.04461 0.332 0.0
H394 H 0.38068 0.97405 0.43096 0.0
H395 H 0.39695 0.11742 0.40854 0.0
C396 C 0.68301 0.6261 0.12575 0.0
C397 C 0.68553 0.62982 0.10598 0.0
N398 N 0.69119 0.58553 0.09871 0.0
N399 N 0.68715 0.57978 0.13117 0.0
C400 C 0.69199 0.55566 0.11436 0.0
H401 H 0.67783 0.65526 0.13558 0.0
Co402 Co 0.68371 0.56069 0.15704 0.0
C403 C 0.69744 0.45704 0.1592 0.0
O404 O 0.67684 0.45288 0.17086 0.0
N405 N 0.6803 0.54305 0.18394 0.0
C406 C 0.66512 0.52942 0.21387 0.0
C407 C 0.6581 0.53737 0.19485 0.0
C408 C 0.70056 0.53792 0.19687 0.0
N409 N 0.6919 0.53016 0.21524 0.0
O410 O 0.71575 0.59622 0.16287 0.0
H411 H 0.63787 0.53928 0.18965 0.0
H412 H 0.72135 0.54168 0.19297 0.0
O413 O 0.70313 0.49879 0.15194 0.0
C414 C 0.70789 0.63544 0.17105 0.0
O415 O 0.68254 0.63972 0.17549 0.0
N416 N 0.65045 0.53445 0.15074 0.0
C417 C 0.59789 0.52317 0.13866 0.0
C418 C 0.61687 0.48745 0.13431 0.0
C419 C 0.64348 0.4946 0.13995 0.0
C420 C 0.63221 0.56979 0.15447 0.0
C421 C 0.60586 0.56474 0.14878 0.0
H422 H 0.65832 0.46923 0.13494 0.0
H423 H 0.63837 0.60268 0.16181 0.0
H424 H 0.69574 0.51703 0.11361 0.0
H425 H 0.68249 0.66249 0.09757 0.0
H426 H 0.6514 0.52387 0.22579 0.0
H427 H 0.61137 0.45541 0.12607 0.0
H428 H 0.59177 0.59318 0.15232 0.0
C429 C 0.32065 0.46138 0.12693 0.0
C430 C 0.32147 0.45605 0.10711 0.0
N431 N 0.31302 0.49766 0.09894 0.0
N432 N 0.31174 0.50612 0.13138 0.0
C433 C 0.30706 0.5275 0.11399 0.0
H434 H 0.3269 0.43477 0.13751 0.0
Co435 Co 0.31124 0.52787 0.15706 0.0
C436 C 0.3026 0.63374 0.15492 0.0
O437 O 0.32344 0.6385 0.16628 0.0
N438 N 0.31077 0.54913 0.18391 0.0
C439 C 0.32256 0.57659 0.21327 0.0
C440 C 0.33122 0.56639 0.19484 0.0
C441 C 0.28979 0.54936 0.19645 0.0
N442 N 0.29653 0.56564 0.21436 0.0
O443 O 0.277 0.49789 0.15989 0.0
H444 H 0.35131 0.57281 0.1899 0.0
H445 H 0.26978 0.53829 0.19257 0.0
O446 O 0.29539 0.59115 0.14934 0.0
C447 C 0.28106 0.45755 0.16855 0.0
O448 O 0.30468 0.44945 0.17608 0.0
N449 N 0.34638 0.54812 0.1537 0.0
C450 C 0.40105 0.54837 0.14647 0.0
C451 C 0.38427 0.58204 0.13723 0.0
C452 C 0.35673 0.5807 0.14077 0.0
C453 C 0.36232 0.51406 0.16201 0.0
C454 C 0.3896 0.51401 0.15891 0.0
H455 H 0.34377 0.60413 0.1325 0.0
H456 H 0.35355 0.48591 0.17089 0.0
H457 H 0.30075 0.56482 0.11236 0.0
H458 H 0.32821 0.42421 0.0993 0.0
H459 H 0.33463 0.59047 0.22509 0.0
H460 H 0.39224 0.60832 0.12708 0.0
H461 H 0.40148 0.48592 0.16567 0.0
C462 C 0.68886 0.46389 0.92926 0.0
C463 C 0.69201 0.46154 0.94901 0.0
N464 N 0.69441 0.5071 0.95601 0.0
N465 N 0.68943 0.51064 0.92357 0.0
C466 C 0.69267 0.53635 0.94022 0.0
H467 H 0.68557 0.43332 0.91968 0.0
Co468 Co 0.68375 0.52799 0.89769 0.0
C469 C 0.69649 0.6323 0.89391 0.0
O470 O 0.67555 0.63522 0.88251 0.0
N471 N 0.67804 0.5436 0.87094 0.0
C472 C 0.66104 0.548 0.84109 0.0
C473 C 0.65529 0.54135 0.86044 0.0
C474 C 0.69728 0.55219 0.8575 0.0
N475 N 0.6875 0.55457 0.83922 0.0
O476 O 0.71595 0.49432 0.89079 0.0
H477 H 0.63573 0.53352 0.86614 0.0
H478 H 0.7183 0.5541 0.86097 0.0
O479 O 0.70255 0.59122 0.90156 0.0
C480 C 0.70841 0.45455 0.88282 0.0
O481 O 0.68288 0.44795 0.87946 0.0
N482 N 0.65053 0.55243 0.90496 0.0
C483 C 0.59796 0.5615 0.91718 0.0
C484 C 0.61594 0.60011 0.91972 0.0
C485 C 0.64264 0.59421 0.91407 0.0
C486 C 0.63334 0.51436 0.90317 0.0
C487 C 0.60702 0.51814 0.90903 0.0
H488 H 0.65673 0.62251 0.91757 0.0
H489 H 0.64029 0.48046 0.89709 0.0
H490 H 0.69337 0.57561 0.94076 0.0
H491 H 0.69151 0.42872 0.95762 0.0
H492 H 0.64686 0.54701 0.82925 0.0
H493 H 0.60957 0.63378 0.9264 0.0
H494 H 0.59371 0.48751 0.9069 0.0
C495 C 0.33245 0.59871 0.92819 0.0
C496 C 0.33366 0.6027 0.94802 0.0
N497 N 0.31901 0.56665 0.95584 0.0
N498 N 0.31717 0.56024 0.92332 0.0
C499 C 0.30899 0.54151 0.94053 0.0
H500 H 0.34293 0.62143 0.91791 0.0
Co501 Co 0.31368 0.5401 0.89735 0.0
C502 C 0.30236 0.43455 0.90112 0.0
O503 O 0.32418 0.42678 0.89112 0.0
N504 N 0.30998 0.52033 0.87042 0.0
C505 C 0.31647 0.48538 0.84144 0.0
C506 C 0.32666 0.4923 0.85969 0.0
C507 C 0.28977 0.53032 0.85783 0.0
N508 N 0.29332 0.50939 0.84022 0.0
O509 O 0.28086 0.57584 0.89604 0.0
H510 H 0.34512 0.47656 0.86464 0.0
H511 H 0.27237 0.55152 0.86151 0.0
O512 O 0.2955 0.47835 0.90525 0.0
C513 C 0.28996 0.61736 0.89083 0.0
O514 O 0.31492 0.62016 0.88515 0.0
N515 N 0.34821 0.51479 0.89903 0.0
C516 C 0.40304 0.51262 0.90583 0.0
C517 C 0.38556 0.48458 0.9172 0.0
C518 C 0.35804 0.48669 0.91373 0.0
C519 C 0.36503 0.54226 0.88804 0.0
C520 C 0.39237 0.54102 0.89091 0.0
H521 H 0.34463 0.46847 0.92362 0.0
H522 H 0.35704 0.5675 0.87757 0.0
H523 H 0.29715 0.50879 0.94187 0.0
H524 H 0.34493 0.62953 0.95611 0.0
H525 H 0.32543 0.4643 0.82987 0.0
H526 H 0.39296 0.46287 0.92912 0.0
H527 H 0.40484 0.5648 0.88228 0.0
H528 H 0.23886 0.08408 0.22434 0.0
H529 H 0.2011 0.9541 0.24609 0.0
H530 H 0.26327 0.0926 0.25484 0.0
H531 H 0.22557 0.96223 0.27644 0.0
H532 H 0.25192 1.01822 0.33588 0.0
H533 H 0.2278 1.01092 0.30528 0.0
H534 H 0.29797 0.05814 0.27419 0.0
H535 H 0.32161 0.06753 0.30472 0.0
C536 C 0.23603 0.05694 0.23551 0.0
C537 C 0.21788 1.01852 0.23273 0.0
C538 C 0.25002 0.06182 0.25305 0.0
C539 C 0.24632 0.0283 0.26827 0.0
C540 C 0.22854 0.98939 0.2653 0.0
C541 C 0.21453 0.98462 0.24781 0.0
C542 C 0.26216 0.02751 0.32257 0.0
C543 C 0.28885 0.04334 0.32294 0.0
C544 C 0.24839 0.02278 0.30493 0.0
C545 C 0.2609 0.03376 0.28714 0.0
C546 C 0.28753 0.0498 0.28753 0.0
C547 C 0.30126 0.05456 0.30514 0.0
H548 H 0.74198 0.0824 0.21856 0.0
H549 H 0.81327 0.05551 0.25175 0.0
H550 H 0.71555 0.07957 0.24833 0.0
H551 H 0.78705 0.05081 0.28139 0.0
H552 H 0.73665 0.09059 0.33436 0.0
H553 H 0.76327 0.0942 0.30465 0.0
H554 H 0.69786 0.03045 0.27252 0.0
H555 H 0.67125 0.02878 0.30201 0.0
C556 C 0.75195 0.07531 0.2322 0.0
C557 C 0.77976 0.06952 0.23275 0.0
C558 C 0.73681 0.07348 0.24935 0.0
C559 C 0.749 0.06504 0.26752 0.0
C560 C 0.77683 0.05853 0.26791 0.0
C561 C 0.79195 0.06101 0.25083 0.0
C562 C 0.7281 0.07719 0.32093 0.0
C563 C 0.70176 0.05978 0.32056 0.0
C564 C 0.74337 0.07906 0.30383 0.0
C565 C 0.73284 0.06287 0.28592 0.0
C566 C 0.70662 0.04448 0.28576 0.0
C567 C 0.69131 0.04326 0.30276 0.0
H568 H 0.24864 0.05176 0.7198 0.0
H569 H 0.32067 0.03837 0.75386 0.0
H570 H 0.22257 0.05454 0.74954 0.0
H571 H 0.29482 0.04399 0.78334 0.0
H572 H 0.23918 1.00245 0.83297 0.0
H573 H 0.26529 1.00011 0.80316 0.0
H574 H 0.2113 0.10283 0.77684 0.0
H575 H 0.18491 0.10408 0.80658 0.0
C576 C 0.25907 0.04956 0.7335 0.0
C577 C 0.28701 0.04474 0.73411 0.0
C578 C 0.24403 0.05177 0.75068 0.0
C579 C 0.25646 0.04948 0.76901 0.0
C580 C 0.28437 0.0451 0.7696 0.0
C581 C 0.29935 0.04255 0.75249 0.0
C582 C 0.23307 0.02497 0.82091 0.0
C583 C 0.20994 0.05348 0.82221 0.0
C584 C 0.24807 0.02368 0.80374 0.0
C585 C 0.24051 0.05124 0.78742 0.0
C586 C 0.21755 0.08034 0.78888 0.0
C587 C 0.20244 0.08129 0.80599 0.0
H588 H 0.74275 1.00823 0.71798 0.0
H589 H 0.67556 0.0583 0.75155 0.0
H590 H 0.76924 1.00262 0.74767 0.0
H591 H 0.70194 0.05366 0.78105 0.0
H592 H 0.74825 0.99943 0.83364 0.0
H593 H 0.72178 1.00106 0.80387 0.0
H594 H 0.79099 0.04917 0.77182 0.0
H595 H 0.81732 0.04661 0.8014 0.0
C596 C 0.73368 1.01839 0.73165 0.0
C597 C 0.70692 0.03343 0.73229 0.0
C598 C 0.74888 1.01528 0.74874 0.0
C599 C 0.73784 0.02753 0.76695 0.0
C600 C 0.7111 0.04284 0.76749 0.0
C601 C 0.6959 0.04563 0.75046 0.0
C602 C 0.75776 1.01046 0.82025 0.0
C603 C 0.785 0.0226 0.82001 0.0
C604 C 0.74257 1.01153 0.80311 0.0
C605 C 0.75413 0.02519 0.78525 0.0
C606 C 0.78138 0.03745 0.78509 0.0
C607 C 0.79656 0.03607 0.80216 0.0
H608 H 0.23515 0.56001 0.72404 0.0
H609 H 0.18386 0.4468 0.74649 0.0
H610 H 0.25577 0.56821 0.75611 0.0
H611 H 0.20513 0.45403 0.77797 0.0
H612 H 0.27942 0.43304 0.81813 0.0
H613 H 0.25388 0.43403 0.78793 0.0
H614 H 0.2437 0.58905 0.79346 0.0
H615 H 0.26907 0.58765 0.82417 0.0
C616 C 0.22801 0.53721 0.73571 0.0
C617 C 0.20805 0.50202 0.73233 0.0
C618 C 0.23986 0.54199 0.75412 0.0
C619 C 0.23223 0.5114 0.76948 0.0
C620 C 0.21169 0.47764 0.76633 0.0
C621 C 0.19963 0.47329 0.74812 0.0
C622 C 0.27147 0.46721 0.81299 0.0
C623 C 0.27611 0.51021 0.82346 0.0
C624 C 0.25682 0.46781 0.79574 0.0
C625 C 0.24684 0.51163 0.78831 0.0
C626 C 0.25127 0.55481 0.79883 0.0
C627 C 0.26551 0.55399 0.81642 0.0
H628 H 0.73928 0.57148 0.71822 0.0
H629 H 0.81168 0.57857 0.75181 0.0
H630 H 0.71326 0.56556 0.74816 0.0
H631 H 0.78615 0.57077 0.78165 0.0
H632 H 0.73307 0.60523 0.83308 0.0
H633 H 0.75805 0.612 0.80281 0.0
H634 H 0.70101 0.5173 0.77459 0.0
H635 H 0.6757 0.51234 0.80469 0.0
C636 C 0.74963 0.57107 0.73201 0.0
C637 C 0.77749 0.57589 0.73265 0.0
C638 C 0.73476 0.56756 0.74924 0.0
C639 C 0.74745 0.56807 0.76754 0.0
C640 C 0.77545 0.5716 0.76801 0.0
C641 C 0.79019 0.57578 0.75085 0.0
C642 C 0.72596 0.58588 0.82039 0.0
C643 C 0.70236 0.55845 0.8213 0.0
C644 C 0.74033 0.58949 0.80299 0.0
C645 C 0.73174 0.56507 0.78606 0.0
C646 C 0.70811 0.53745 0.78708 0.0
C647 C 0.69357 0.53444 0.80441 0.0
H648 H 0.25732 0.50417 0.2261 0.0
H649 H 0.29896 0.63587 0.24161 0.0
H650 H 0.23199 0.50855 0.25664 0.0
H651 H 0.27388 0.64035 0.27192 0.0
H652 H 0.20218 0.66087 0.31256 0.0
H653 H 0.22641 0.65421 0.28199 0.0
H654 H 0.24169 0.5028 0.29358 0.0
H655 H 0.21717 0.50959 0.32438 0.0
C656 C 0.26082 0.53426 0.23594 0.0
C657 C 0.28009 0.5697 0.23149 0.0
C658 C 0.24658 0.5365 0.25348 0.0
C659 C 0.25101 0.57472 0.26672 0.0
C660 C 0.2699 0.61058 0.26201 0.0
C661 C 0.28435 0.60793 0.2447 0.0
C662 C 0.21067 0.62613 0.30859 0.0
C663 C 0.20774 0.58574 0.32088 0.0
C664 C 0.22467 0.62237 0.29112 0.0
C665 C 0.23591 0.57796 0.28532 0.0
C666 C 0.23305 0.53741 0.29758 0.0
C667 C 0.2193 0.54139 0.31529 0.0
H668 H 0.67587 0.55131 0.25201 0.0
H669 H 0.74381 0.50259 0.21883 0.0
H670 H 0.70204 0.54752 0.2816 0.0
H671 H 0.77014 0.49865 0.24862 0.0
H672 H 0.81621 0.55185 0.30262 0.0
H673 H 0.79042 0.55031 0.27276 0.0
H674 H 0.72282 0.49296 0.30413 0.0
H675 H 0.74868 0.49466 0.33412 0.0
C676 C 0.6963 0.53911 0.25099 0.0
C677 C 0.70759 0.52709 0.23289 0.0
C678 C 0.71137 0.5369 0.26807 0.0
C679 C 0.73826 0.52262 0.26763 0.0
C680 C 0.7496 0.51043 0.24954 0.0
C681 C 0.73448 0.51267 0.23241 0.0
C682 C 0.79599 0.53825 0.3032 0.0
C683 C 0.78463 0.5234 0.32094 0.0
C684 C 0.78113 0.53736 0.28597 0.0
C685 C 0.75444 0.52159 0.28592 0.0
C686 C 0.74316 0.50612 0.30361 0.0
C687 C 0.75803 0.50705 0.32086 0.0
H688 H 0.21971 0.17274 0.13448 0.0
H689 H 0.24418 0.16399 0.19428 0.0
H690 H 0.23152 0.25833 0.13376 0.0
H691 H 0.25833 0.24876 0.19339 0.0
H692 H 0.25422 0.40906 0.19648 0.0
H693 H 0.24 0.3245 0.19465 0.0
H694 H 0.26042 0.32213 0.13357 0.0
H695 H 0.27223 0.40771 0.13537 0.0
C696 C 0.22901 0.1887 0.14718 0.0
C697 C 0.23155 0.16168 0.16432 0.0
C698 C 0.23563 0.2381 0.14687 0.0
C699 C 0.24535 0.26148 0.16367 0.0
C700 C 0.24999 0.23293 0.18034 0.0
C701 C 0.24268 0.18384 0.18075 0.0
C702 C 0.25431 0.39086 0.18251 0.0
C703 C 0.2637 0.41504 0.16599 0.0
C704 C 0.24696 0.34188 0.18151 0.0
C705 C 0.24985 0.31536 0.16408 0.0
C706 C 0.25772 0.34079 0.14726 0.0
C707 C 0.26431 0.39019 0.1482 0.0
H708 H 0.74192 0.67431 0.14409 0.0
H709 H 0.70843 0.69788 0.201 0.0
H710 H 0.75791 0.75877 0.14365 0.0
H711 H 0.72373 0.7817 0.20053 0.0
H712 H 0.77867 0.91536 0.19983 0.0
H713 H 0.76276 0.83194 0.20124 0.0
H714 H 0.73772 0.84116 0.14132 0.0
H715 H 0.75428 0.92522 0.13996 0.0
C716 C 0.73886 0.69704 0.15676 0.0
C717 C 0.72439 0.67952 0.17273 0.0
C718 C 0.7474 0.74565 0.15634 0.0
C719 C 0.74172 0.77724 0.17194 0.0
C720 C 0.72856 0.75851 0.18831 0.0
C721 C 0.71997 0.71034 0.18866 0.0
C722 C 0.76888 0.90007 0.18718 0.0
C723 C 0.76718 0.92686 0.16992 0.0
C724 C 0.75997 0.85211 0.18791 0.0
C725 C 0.7493 0.82956 0.17131 0.0
C726 C 0.74627 0.85727 0.15426 0.0
C727 C 0.7551 0.90568 0.15359 0.0
H728 H 0.24307 0.91944 0.91316 0.0
H729 H 0.2097 0.87763 0.85785 0.0
H730 H 0.26065 0.83714 0.91727 0.0
H731 H 0.22753 0.79604 0.86166 0.0
H732 H 0.23799 0.64103 0.88146 0.0
H733 H 0.21924 0.72354 0.88081 0.0
H734 H 0.29252 0.78019 0.905 0.0
H735 H 0.31061 0.69866 0.90602 0.0
C736 C 0.24035 0.89316 0.90159 0.0
C737 C 0.2253 0.90498 0.88511 0.0
C738 C 0.25008 0.84581 0.90402 0.0
C739 C 0.24498 0.80954 0.88997 0.0
C740 C 0.23115 0.82247 0.87303 0.0
C741 C 0.22139 0.86951 0.87067 0.0
C742 C 0.24963 0.6711 0.88711 0.0
C743 C 0.2757 0.66363 0.89371 0.0
C744 C 0.23915 0.7184 0.8865 0.0
C745 C 0.25457 0.75872 0.8926 0.0
C746 C 0.28001 0.75031 0.90028 0.0
C747 C 0.29042 0.70347 0.90078 0.0
H748 H 0.74298 0.41563 0.90919 0.0
H749 H 0.71005 0.39521 0.85191 0.0
H750 H 0.75933 0.33161 0.90879 0.0
H751 H 0.72586 0.31174 0.8515 0.0
H752 H 0.78085 0.17802 0.8518 0.0
H753 H 0.76507 0.26148 0.85078 0.0
H754 H 0.7384 0.24932 0.91024 0.0
H755 H 0.75474 0.16529 0.91121 0.0
C756 C 0.74021 0.39377 0.89624 0.0
C757 C 0.72573 0.41197 0.88043 0.0
C758 C 0.74894 0.34538 0.89618 0.0
C759 C 0.74346 0.3147 0.88025 0.0
C760 C 0.73049 0.33425 0.86397 0.0
C761 C 0.72165 0.38223 0.86411 0.0
C762 C 0.77072 0.19268 0.86441 0.0
C763 C 0.76851 0.1651 0.88145 0.0
C764 C 0.76191 0.24065 0.8639 0.0
C765 C 0.75087 0.26238 0.88052 0.0
C766 C 0.74728 0.23385 0.8973 0.0
C767 C 0.75598 0.18545 0.89774 0.0
H768 H 0.81786 0.85215 0.89091 0.0
H769 H 0.74942 0.93462 0.9097 0.0
H770 H 0.79282 0.77721 0.89437 0.0
H771 H 0.72416 0.85872 0.91344 0.0
H772 H 0.68085 0.72481 0.88639 0.0
H773 H 0.70566 0.79967 0.89069 0.0
H774 H 0.77084 0.7194 0.91592 0.0
H775 H 0.74583 0.64343 0.91136 0.0
C776 C 0.79749 0.85431 0.89604 0.0
C777 C 0.78555 0.89962 0.89979 0.0
C778 C 0.78318 0.81105 0.89821 0.0
C779 C 0.75639 0.81167 0.9041 0.0
C780 C 0.7447 0.85689 0.90866 0.0
C781 C 0.75917 0.90041 0.90662 0.0
C782 C 0.70041 0.72284 0.893 0.0
C783 C 0.71145 0.6778 0.89832 0.0
C784 C 0.71455 0.76612 0.89566 0.0
C785 C 0.7403 0.76585 0.90365 0.0
C786 C 0.75112 0.72095 0.90956 0.0
C787 C 0.73679 0.6774 0.90702 0.0
H788 H 0.319 0.3412 0.90358 0.0
H789 H 0.24862 0.42961 0.9101 0.0
H790 H 0.29223 0.26817 0.90608 0.0
H791 H 0.2215 0.35566 0.91315 0.0
H792 H 0.18214 0.21994 0.88517 0.0
H793 H 0.20697 0.29401 0.89091 0.0
H794 H 0.2648 0.21389 0.9244 0.0
H795 H 0.23993 0.13859 0.91823 0.0
C796 C 0.29776 0.3451 0.90593 0.0
C797 C 0.28592 0.39143 0.90636 0.0
C798 C 0.28237 0.30293 0.90756 0.0
C799 C 0.25457 0.30561 0.90964 0.0
C800 C 0.24283 0.35208 0.91124 0.0
C801 C 0.25835 0.39456 0.90967 0.0
C802 C 0.20006 0.21781 0.89389 0.0
C803 C 0.20915 0.17288 0.90104 0.0
C804 C 0.2142 0.26075 0.89738 0.0
C805 C 0.23798 0.26036 0.90814 0.0
C806 C 0.24672 0.21563 0.91585 0.0
C807 C 0.23245 0.1724 0.91237 0.0
H808 H 0.68321 0.36412 0.16747 0.0
H809 H 0.74508 0.44742 0.13921 0.0
H810 H 0.70783 0.29009 0.16179 0.0
H811 H 0.76988 0.37209 0.13315 0.0
H812 H 0.81989 0.24047 0.15562 0.0
H813 H 0.79446 0.31484 0.15273 0.0
H814 H 0.72402 0.23121 0.13875 0.0
H815 H 0.74965 0.15593 0.1421 0.0
C816 C 0.70203 0.36671 0.15983 0.0
C817 C 0.7123 0.41208 0.15402 0.0
C818 C 0.71605 0.32384 0.15636 0.0
C819 C 0.74089 0.32478 0.14698 0.0
C820 C 0.75089 0.37 0.14058 0.0
C821 C 0.73669 0.4132 0.14399 0.0
C822 C 0.79903 0.23774 0.15169 0.0
C823 C 0.78671 0.19204 0.14939 0.0
C824 C 0.78447 0.28067 0.14984 0.0
C825 C 0.75708 0.2793 0.14567 0.0
C826 C 0.74502 0.23365 0.14227 0.0
C827 C 0.75971 0.19046 0.14405 0.0
H828 H 0.24606 0.93323 0.13939 0.0
H829 H 0.17881 0.84574 0.15716 0.0
H830 H 0.27238 0.85916 0.13479 0.0
H831 H 0.20497 0.77269 0.15311 0.0
H832 H 0.25317 0.64168 0.13743 0.0
H833 H 0.2274 0.71617 0.13241 0.0
H834 H 0.29252 0.80087 0.15588 0.0
H835 H 0.31819 0.72743 0.16036 0.0
C836 C 0.2368 0.89832 0.14209 0.0
C837 C 0.21042 0.89564 0.14887 0.0
C838 C 0.2519 0.8558 0.13957 0.0
C839 C 0.24092 0.80967 0.14371 0.0
C840 C 0.21412 0.80719 0.14954 0.0
C841 C 0.19914 0.84944 0.15207 0.0
C842 C 0.26208 0.67632 0.14119 0.0
C843 C 0.28763 0.67835 0.14952 0.0
C844 C 0.24728 0.71907 0.13843 0.0
C845 C 0.25775 0.76479 0.14387 0.0
C846 C 0.28381 0.7667 0.15128 0.0
C847 C 0.29849 0.72423 0.15406 0.0
H848 H 0.25754 0.62804 0.66988 0.0
H849 H 0.18238 0.6887 0.65165 0.0
H850 H 0.27675 0.71042 0.67092 0.0
H851 H 0.20095 0.76984 0.65312 0.0
H852 H 0.24922 0.90963 0.64367 0.0
H853 H 0.23117 0.82749 0.63945 0.0
H854 H 0.27187 0.78154 0.69156 0.0
H855 H 0.29013 0.86297 0.69545 0.0
C856 C 0.24534 0.65876 0.66579 0.0
C857 C 0.21848 0.65206 0.66086 0.0
C858 C 0.25613 0.70596 0.6666 0.0
C859 C 0.24026 0.74696 0.66233 0.0
C860 C 0.21384 0.73946 0.6564 0.0
C861 C 0.20315 0.69277 0.6557 0.0
C862 C 0.25361 0.88225 0.65448 0.0
C863 C 0.27083 0.89277 0.66998 0.0
C864 C 0.24357 0.83501 0.65198 0.0
C865 C 0.25051 0.7975 0.66498 0.0
C866 C 0.26673 0.80897 0.68096 0.0
C867 C 0.27679 0.85591 0.68339 0.0
H868 H 0.8157 0.38826 0.66011 0.0
H869 H 0.73773 0.45137 0.6682 0.0
H870 H 0.79661 0.30741 0.66109 0.0
H871 H 0.71829 0.36918 0.66902 0.0
H872 H 0.70072 0.21912 0.69495 0.0
H873 H 0.72031 0.29965 0.69208 0.0
H874 H 0.76748 0.25045 0.64343 0.0
H875 H 0.74766 0.16919 0.64633 0.0
C876 C 0.79433 0.38484 0.66201 0.0
C877 C 0.7782 0.42624 0.66434 0.0
C878 C 0.7834 0.33832 0.66238 0.0
C879 C 0.756 0.33175 0.66525 0.0
C880 C 0.73959 0.37316 0.66702 0.0
C881 C 0.7506 0.42014 0.66642 0.0
C882 C 0.71561 0.22521 0.68381 0.0
C883 C 0.72274 0.18777 0.67089 0.0
C884 C 0.72652 0.2716 0.682 0.0
C885 C 0.74498 0.28179 0.66727 0.0
C886 C 0.75321 0.24372 0.65492 0.0
C887 C 0.74215 0.19706 0.6567 0.0
H888 H 0.17267 0.39449 0.39547 0.0
H889 H 0.24993 0.45881 0.38501 0.0
H890 H 0.19201 0.31414 0.39484 0.0
H891 H 0.26975 0.37702 0.38471 0.0
H892 H 0.28822 0.22528 0.36089 0.0
H893 H 0.26851 0.30575 0.36315 0.0
H894 H 0.22079 0.25813 0.41177 0.0
H895 H 0.24056 0.17694 0.40933 0.0
C896 C 0.19397 0.39146 0.39317 0.0
C897 C 0.20977 0.43309 0.39003 0.0
C898 C 0.20508 0.34516 0.393 0.0
C899 C 0.23238 0.33888 0.3896 0.0
C900 C 0.24851 0.38061 0.3871 0.0
C901 C 0.23731 0.42744 0.38743 0.0
C902 C 0.2731 0.2317 0.37184 0.0
C903 C 0.26575 0.19467 0.38485 0.0
C904 C 0.26215 0.27811 0.37332 0.0
C905 C 0.2435 0.28884 0.38788 0.0
C906 C 0.23513 0.25111 0.40036 0.0
C907 C 0.24616 0.20441 0.39885 0.0
H908 H 0.73874 0.65436 0.4066 0.0
H909 H 0.78509 0.70245 0.35743 0.0
H910 H 0.71908 0.7355 0.40928 0.0
H911 H 0.76546 0.78299 0.35995 0.0
H912 H 0.74757 0.93596 0.3828 0.0
H913 H 0.76739 0.85417 0.38189 0.0
H914 H 0.68982 0.79093 0.39236 0.0
H915 H 0.67048 0.87111 0.39358 0.0
C916 C 0.74406 0.68177 0.39602 0.0
C917 C 0.76327 0.67203 0.38174 0.0
C918 C 0.73311 0.72843 0.39766 0.0
C919 C 0.74116 0.76605 0.38505 0.0
C920 C 0.75939 0.75534 0.37022 0.0
C921 C 0.77027 0.70894 0.36858 0.0
C922 C 0.73498 0.90449 0.38513 0.0
C923 C 0.70749 0.90998 0.38801 0.0
C924 C 0.74618 0.85771 0.38446 0.0
C925 C 0.73008 0.81596 0.38693 0.0
C926 C 0.70284 0.82203 0.39054 0.0
C927 C 0.69174 0.86825 0.39104 0.0
H928 H 0.80802 0.3573 0.38734 0.0
H929 H 0.74235 0.43992 0.41076 0.0
H930 H 0.78283 0.28276 0.39129 0.0
H931 H 0.71695 0.3643 0.41499 0.0
H932 H 0.67018 0.23239 0.38923 0.0
H933 H 0.69563 0.30672 0.39301 0.0
H934 H 0.76301 0.22403 0.41349 0.0
H935 H 0.73731 0.14861 0.40942 0.0
C936 C 0.78823 0.3596 0.39356 0.0
C937 C 0.7771 0.40491 0.39851 0.0
C938 C 0.77386 0.31651 0.39602 0.0
C939 C 0.74779 0.31724 0.40342 0.0
C940 C 0.73691 0.36239 0.40905 0.0
C941 C 0.75146 0.40575 0.40672 0.0
C942 C 0.69037 0.2298 0.39471 0.0
C943 C 0.7018 0.18426 0.39878 0.0
C944 C 0.7049 0.27275 0.39708 0.0
C945 C 0.73145 0.27165 0.40351 0.0
C946 C 0.74267 0.22623 0.40831 0.0
C947 C 0.72795 0.18299 0.40607 0.0
H948 H 0.16968 0.75626 0.40769 0.0
H949 H 0.24062 0.66805 0.40572 0.0
H950 H 0.19666 0.82923 0.40943 0.0
H951 H 0.26805 0.74183 0.40801 0.0
H952 H 0.30348 0.88124 0.38091 0.0
H953 H 0.27906 0.80663 0.38637 0.0
H954 H 0.22679 0.88159 0.4262 0.0
H955 H 0.2512 0.95746 0.42033 0.0
C956 C 0.19116 0.75234 0.40803 0.0
C957 C 0.20297 0.70615 0.40632 0.0
C958 C 0.20671 0.79447 0.40919 0.0
C959 C 0.23465 0.79191 0.40865 0.0
C960 C 0.24656 0.74541 0.40812 0.0
C961 C 0.23089 0.70297 0.40702 0.0
C962 C 0.28687 0.88212 0.39094 0.0
C963 C 0.27924 0.92582 0.40005 0.0
C964 C 0.27297 0.83883 0.39425 0.0
C965 C 0.25091 0.83755 0.40681 0.0
C966 C 0.24351 0.8811 0.41626 0.0
C967 C 0.25751 0.92469 0.41293 0.0
H968 H 0.74345 0.66755 0.66087 0.0
H969 H 0.80954 0.73757 0.63237 0.0
H970 H 0.71781 0.74252 0.65882 0.0
H971 H 0.78362 0.81178 0.62901 0.0
H972 H 0.74646 0.95336 0.65201 0.0
H973 H 0.77005 0.87671 0.64744 0.0
H974 H 0.69449 0.80137 0.64273 0.0
H975 H 0.67135 0.87746 0.64858 0.0
C976 C 0.75201 0.69848 0.6534 0.0
C977 C 0.77834 0.69678 0.64667 0.0
C978 C 0.73737 0.74177 0.65222 0.0
C979 C 0.74861 0.78414 0.64396 0.0
C980 C 0.7744 0.78083 0.63599 0.0
C981 C 0.78916 0.73797 0.63759 0.0
C982 C 0.73503 0.92041 0.64972 0.0
C983 C 0.70713 0.92129 0.65082 0.0
C984 C 0.74849 0.87623 0.64701 0.0
C985 C 0.73432 0.83203 0.64489 0.0
C986 C 0.70629 0.83391 0.64486 0.0
C987 C 0.69294 0.87776 0.64802 0.0
H988 H 0.24503 0.41982 0.65051 0.0
H989 H 0.17873 0.33387 0.62984 0.0
H990 H 0.27237 0.34635 0.65205 0.0
H991 H 0.20535 0.26086 0.6321 0.0
H992 H 0.26304 0.13406 0.63037 0.0
H993 H 0.2406 0.21022 0.622 0.0
H994 H 0.27471 0.27847 0.67285 0.0
H995 H 0.29742 0.20366 0.68075 0.0
C996 C 0.23644 0.38552 0.64595 0.0
C997 C 0.2096 0.38282 0.64025 0.0
C998 C 0.25198 0.34315 0.64707 0.0
C999 C 0.24101 0.29713 0.64256 0.0
C1000 C 0.2147 0.29526 0.63562 0.0
C1001 C 0.19929 0.3374 0.63445 0.0
C1002 C 0.26565 0.16539 0.63972 0.0
C1003 C 0.28202 0.16256 0.65624 0.0
C1004 C 0.25283 0.20918 0.63494 0.0
C1005 C 0.25593 0.25107 0.64664 0.0
C1006 C 0.27227 0.24777 0.66316 0.0
C1007 C 0.28512 0.20438 0.66783 0.0
H1008 H 0.92947 0.97952 0.14311 0.0
H1009 H 0.93425 0.13243 0.1295 0.0
H1010 H 0.97692 0.97197 0.13906 0.0
H1011 H 0.9818 0.12386 0.12329 0.0
H1012 H 0.06704 0.11015 0.14598 0.0
H1013 H 0.01974 0.11822 0.14123 0.0
H1014 H 0.01554 0.96862 0.12198 0.0
H1015 H 0.06273 0.9591 0.12897 0.0
C1016 C 0.94065 1.01161 0.13903 0.0
C1017 C 0.92811 0.05709 0.13744 0.0
C1018 C 0.96801 1.00699 0.13623 0.0
C1019 C 0.98365 0.04745 0.13115 0.0
C1020 C 0.97069 0.09211 0.12783 0.0
C1021 C 0.94327 0.09699 0.13112 0.0
C1022 C 0.05604 0.07857 0.14107 0.0
C1023 C 0.06868 0.03336 0.13866 0.0
C1024 C 0.02878 0.08359 0.13782 0.0
C1025 C 0.01336 0.04392 0.13148 0.0
C1026 C 0.02644 0.99971 0.12748 0.0
C1027 C 0.0537 0.99434 0.13122 0.0
H1028 H 0.0689 0.97796 0.9329 0.0
H1029 H 0.05809 0.12268 0.91041 0.0
H1030 H 0.02094 0.97037 0.93801 0.0
H1031 H 0.00998 0.11496 0.91502 0.0
H1032 H 0.92467 0.09843 0.93085 0.0
H1033 H 0.97249 0.10672 0.93643 0.0
H1034 H 0.984 0.9594 0.91628 0.0
H1035 H 0.936 0.95105 0.91121 0.0
C1036 C 0.05619 1.00843 0.92933 0.0
C1037 C 0.06704 0.05075 0.92109 0.0
C1038 C 0.02875 1.00398 0.93214 0.0
C1039 C 0.01153 0.04169 0.92665 0.0
C1040 C 0.02264 0.08531 0.91957 0.0
C1041 C 0.05018 0.08985 0.9169 0.0
C1042 C 0.93746 0.06757 0.92801 0.0
C1043 C 0.92681 0.02424 0.92043 0.0
C1044 C 0.96483 0.0724 0.93108 0.0
C1045 C 0.98217 0.03406 0.92652 0.0
C1046 C 0.97123 0.98959 0.92012 0.0
C1047 C 0.94376 0.98468 0.91718 0.0
H1048 H 0.92517 0.57138 0.61526 0.0
H1049 H 0.93785 0.62976 0.6727 0.0
H1050 H 0.97319 0.55654 0.61207 0.0
H1051 H 0.98545 0.61471 0.66974 0.0
H1052 H 0.07181 0.60576 0.65698 0.0
H1053 H 0.02649 0.63528 0.65292 0.0
H1054 H 0.00345 0.49718 0.62806 0.0
H1055 H 0.04926 0.46779 0.63191 0.0
C1056 C 0.93839 0.58248 0.62691 0.0
C1057 C 0.92803 0.60187 0.64419 0.0
C1058 C 0.96574 0.5734 0.62521 0.0
C1059 C 0.98306 0.58405 0.64071 0.0
C1060 C 0.97274 0.6065 0.65745 0.0
C1061 C 0.9455 0.61517 0.65918 0.0
C1062 C 0.05705 0.58167 0.65065 0.0
C1063 C 0.06381 0.53404 0.64521 0.0
C1064 C 0.03115 0.59868 0.64824 0.0
C1065 C 0.01133 0.56842 0.64038 0.0
C1066 C 0.01836 0.52151 0.63403 0.0
C1067 C 0.04446 0.5045 0.63635 0.0
H1068 H 0.92837 0.46586 0.39872 0.0
H1069 H 0.91825 0.57597 0.44272 0.0
H1070 H 0.97656 0.48059 0.39887 0.0
H1071 H 0.96651 0.59034 0.4431 0.0
H1072 H 0.06157 0.57105 0.44127 0.0
H1073 H 0.015 0.54856 0.44767 0.0
H1074 H -0.00302 0.5645 0.38676 0.0
H1075 H 0.04287 0.58865 0.38043 0.0
C1076 C 0.93665 0.4916 0.40902 0.0
C1077 C 0.91984 0.51967 0.42076 0.0
C1078 C 0.96408 0.50043 0.40897 0.0
C1079 C 0.97504 0.53706 0.42081 0.0
C1080 C 0.9585 0.56188 0.43389 0.0
C1081 C 0.93101 0.55353 0.43373 0.0
C1082 C 0.04749 0.57098 0.42935 0.0
C1083 C 0.05597 0.58118 0.4103 0.0
C1084 C 0.02099 0.55755 0.43299 0.0
C1085 C 0.00276 0.5535 0.4176 0.0
C1086 C 0.01091 0.56601 0.39878 0.0
C1087 C 0.03712 0.58008 0.3952 0.0
H1088 H 0.43247 0.12549 0.64495 0.0
H1089 H 0.42483 0.98342 0.61895 0.0
H1090 H 0.48062 0.12289 0.6398 0.0
H1091 H 0.47285 0.98093 0.61341 0.0
H1092 H 0.55817 0.9659 0.64019 0.0
H1093 H 0.51002 0.97061 0.63533 0.0
H1094 H 0.51801 0.12052 0.61765 0.0
H1095 H 0.56603 0.11578 0.62286 0.0
C1096 C 0.44104 0.09442 0.63759 0.0
C1097 C 0.4251 0.05445 0.63257 0.0
C1098 C 0.46861 0.09282 0.63461 0.0
C1099 C 0.48064 0.05131 0.62644 0.0
C1100 C 0.4643 1.01293 0.62012 0.0
C1101 C 0.43683 1.01446 0.62319 0.0
C1102 C 0.54964 0.99937 0.63481 0.0
C1103 C 0.56567 0.04061 0.63217 0.0
C1104 C 0.52208 1.00219 0.63199 0.0
C1105 C 0.51012 0.04623 0.62634 0.0
C1106 C 0.52651 0.08642 0.6224 0.0
C1107 C 0.55398 0.08365 0.6253 0.0
H1108 H 0.42924 0.97388 0.41432 0.0
H1109 H 0.41897 0.11372 0.44169 0.0
H1110 H 0.4774 0.98055 0.41878 0.0
H1111 H 0.46707 0.12039 0.44636 0.0
H1112 H 0.55046 0.14345 0.41605 0.0
H1113 H 0.50287 0.13486 0.42303 0.0
H1114 H 0.51558 0.98597 0.44045 0.0
H1115 H 0.56296 0.99461 0.43316 0.0
C1116 C 0.43725 1.00525 0.42187 0.0
C1117 C 0.42051 0.04353 0.42742 0.0
C1118 C 0.46483 1.0092 0.42443 0.0
C1119 C 0.4761 0.05143 0.43267 0.0
C1120 C 0.45906 0.08791 0.43962 0.0
C1121 C 0.43156 0.08397 0.43703 0.0
C1122 C 0.54311 0.10947 0.42191 0.0
C1123 C 0.56015 0.06955 0.42384 0.0
C1124 C 0.51589 0.10442 0.42593 0.0
C1125 C 0.50538 0.0594 0.43202 0.0
C1126 C 0.52295 1.02074 0.43541 0.0
C1127 C 0.55005 0.02577 0.43134 0.0
H1128 H 0.56384 0.45113 0.14925 0.0
H1129 H 0.56816 0.58523 0.1171 0.0
H1130 H 0.51506 0.45479 0.14824 0.0
H1131 H 0.51946 0.58892 0.11601 0.0
H1132 H 0.42744 0.55867 0.11167 0.0
H1133 H 0.47516 0.5463 0.10556 0.0
H1134 H 0.48757 0.5192 0.1666 0.0
H1135 H 0.44052 0.53297 0.17282 0.0
C1136 C 0.55431 0.48034 0.14136 0.0
C1137 C 0.56955 0.51803 0.13336 0.0
C1138 C 0.5265 0.48272 0.14093 0.0
C1139 C 0.51361 0.52256 0.1323 0.0
C1140 C 0.52891 0.55785 0.12272 0.0
C1141 C 0.55669 0.55576 0.12336 0.0
C1142 C 0.44047 0.55089 0.1238 0.0
C1143 C 0.43016 0.54635 0.14271 0.0
C1144 C 0.46766 0.54331 0.12026 0.0
C1145 C 0.48481 0.53054 0.13555 0.0
C1146 C 0.47462 0.52751 0.15447 0.0
C1147 C 0.44769 0.53565 0.15803 0.0
H1148 H 0.44426 0.51634 0.8801 0.0
H1149 H 0.4271 0.5194 0.94161 0.0
H1150 H 0.49057 0.53684 0.88679 0.0
H1151 H 0.47404 0.53825 0.94828 0.0
H1152 H 0.56935 0.50552 0.94209 0.0
H1153 H 0.52082 0.49553 0.94211 0.0
H1154 H 0.51383 0.61406 0.9015 0.0
H1155 H 0.56236 0.62423 0.90164 0.0
C1156 C 0.4504 0.52112 0.89507 0.0
C1157 C 0.43191 0.51677 0.9103 0.0
C1158 C 0.47687 0.53311 0.89887 0.0
C1159 C 0.48562 0.54029 0.91801 0.0
C1160 C 0.46762 0.53336 0.93339 0.0
C1161 C 0.44089 0.52201 0.92956 0.0
C1162 C 0.55726 0.53059 0.93379 0.0
C1163 C 0.56938 0.56559 0.92184 0.0
C1164 C 0.5296 0.52482 0.93377 0.0
C1165 C 0.51377 0.55351 0.92157 0.0
C1166 C 0.52574 0.59118 0.91088 0.0
C1167 C 0.55338 0.59737 0.9111 0.0
H1168 H 0.17197 0.08353 0.97362 0.0
H1169 H 0.21062 0.9465 0.98441 0.0
H1170 H 0.17314 0.10185 1.00835 0.0
H1171 H 0.21254 0.96498 1.01895 0.0
H1172 H 0.18325 0.98665 0.08137 0.0
H1173 H 0.18508 0.96992 0.0466 0.0
H1174 H 0.19977 0.12213 0.03549 0.0
H1175 H 0.19722 0.13867 0.07022 0.0
C1176 C 0.18113 0.05772 0.98338 0.0
C1177 C 0.191 1.01343 0.97627 0.0
C1178 C 0.18186 0.06815 1.00334 0.0
C1179 C 0.19275 0.03474 1.01665 0.0
C1180 C 0.20339 0.99114 1.00933 0.0
C1181 C 0.20241 0.98058 0.98947 0.0
C1182 C 0.18719 1.01636 0.07151 0.0
C1183 C 0.18998 0.06399 0.07858 0.0
C1184 C 0.18828 1.00685 0.05151 0.0
C1185 C 0.19248 0.04468 0.03806 0.0
C1186 C 0.19593 0.09215 0.04526 0.0
C1187 C 0.19459 0.10167 0.06522 0.0
H1188 H 0.84713 0.10108 0.98115 0.0
H1189 H 0.77313 0.02273 0.97495 0.0
H1190 H 0.8467 0.08614 1.0161 0.0
H1191 H 0.77237 1.00828 1.01031 0.0
H1192 H 0.77173 0.05144 0.07826 0.0
H1193 H 0.76991 0.06443 0.04284 0.0
H1194 H 0.84985 1.00857 0.03748 0.0
H1195 H 0.85143 0.99506 0.07249 0.0
C1196 C 0.83074 0.08061 0.98732 0.0
C1197 C 0.81017 0.06302 0.97533 0.0
C1198 C 0.83051 0.07199 1.00732 0.0
C1199 C 0.80944 0.04627 1.01599 0.0
C1200 C 0.78876 0.02857 1.00405 0.0
C1201 C 0.7893 0.03636 0.98385 0.0
C1202 C 0.78886 0.0422 0.06944 0.0
C1203 C 0.81169 1.02218 0.07812 0.0
C1204 C 0.78775 0.04916 0.04921 0.0
C1205 C 0.80971 0.03732 0.03737 0.0
C1206 C 0.83262 1.01808 0.04617 0.0
C1207 C 0.8335 1.01023 0.06622 0.0
H1208 H 0.17158 0.63662 0.57027 0.0
H1209 H 0.19716 0.4885 0.5788 0.0
H1210 H 0.17409 0.62566 0.53544 0.0
H1211 H 0.20137 0.47842 0.54379 0.0
H1212 H 0.16855 0.45679 0.48217 0.0
H1213 H 0.17355 0.46821 0.51681 0.0
H1214 H 0.19965 0.61593 0.50717 0.0
H1215 H 0.19296 0.60524 0.47233 0.0
C1216 C 0.17797 0.60171 0.56478 0.0
C1217 C 0.18361 0.56317 0.57754 0.0
C1218 C 0.17985 0.59565 0.54465 0.0
C1219 C 0.18773 0.55098 0.53657 0.0
C1220 C 0.19468 0.5131 0.54936 0.0
C1221 C 0.19258 0.51906 0.56955 0.0
C1222 C 0.1752 0.4919 0.48734 0.0
C1223 C 0.1798 0.53036 0.4743 0.0
C1224 C 0.17852 0.49824 0.50734 0.0
C1225 C 0.18687 0.54314 0.51502 0.0
C1226 C 0.19269 0.58104 0.50192 0.0
C1227 C 0.18916 0.57477 0.48184 0.0
H1228 H 0.76773 0.62158 0.48394 0.0
H1229 H 0.82192 0.50294 0.47386 0.0
H1230 H 0.76934 0.60644 0.51874 0.0
H1231 H 0.82435 0.48832 0.50883 0.0
H1232 H 0.80917 0.45068 0.57197 0.0
H1233 H 0.80262 0.46115 0.53718 0.0
H1234 H 0.79782 0.61655 0.54553 0.0
H1235 H 0.80366 0.60556 0.58042 0.0
C1236 C 0.78003 0.59218 0.48922 0.0
C1237 C 0.7948 0.56361 0.47615 0.0
C1238 C 0.78111 0.58364 0.50922 0.0
C1239 C 0.79726 0.54652 0.51681 0.0
C1240 C 0.81144 0.51692 0.50363 0.0
C1241 C 0.8101 0.52521 0.48354 0.0
C1242 C 0.80664 0.48707 0.56636 0.0
C1243 C 0.80703 0.52731 0.57899 0.0
C1244 C 0.803 0.49314 0.54635 0.0
C1245 C 0.79985 0.53974 0.53833 0.0
C1246 C 0.79975 0.57997 0.55107 0.0
C1247 C 0.80313 0.57379 0.57114 0.0
H1248 H 0.65815 0.14317 0.56904 0.0
H1249 H 0.71043 0.02243 0.58061 0.0
H1250 H 0.65927 0.12461 0.5346 0.0
H1251 H 0.71195 1.004 0.54586 0.0
H1252 H 0.68334 0.95324 0.48565 0.0
H1253 H 0.68602 0.97296 0.51993 0.0
H1254 H 0.68555 0.12587 0.50596 0.0
H1255 H 0.68148 0.10587 0.47151 0.0
C1256 C 0.67023 0.11296 0.56423 0.0
C1257 C 0.68434 0.08448 0.57771 0.0
C1258 C 0.67095 0.10236 0.54435 0.0
C1259 C 0.68587 0.06298 0.53722 0.0
C1260 C 0.69997 0.03433 0.55072 0.0
C1261 C 0.69913 0.04484 0.5707 0.0
C1262 C 0.68366 0.99114 0.48981 0.0
C1263 C 0.68175 0.02791 0.47567 0.0
C1264 C 0.68558 1.00251 0.50959 0.0
C1265 C 0.68582 0.05108 0.51593 0.0
C1266 C 0.68493 0.08798 0.50174 0.0
C1267 C 0.68292 0.07656 0.48189 0.0
H1268 H 0.27833 0.14384 0.48899 0.0
H1269 H 0.31437 1.00683 0.47357 0.0
H1270 H 0.27878 0.12071 0.52307 0.0
H1271 H 0.31477 0.98355 0.50776 0.0
H1272 H 0.28891 0.93929 0.5688 0.0
H1273 H 0.28607 0.96204 0.53477 0.0
H1274 H 0.31004 0.10832 0.54948 0.0
H1275 H 0.31294 0.08543 0.58365 0.0
C1276 C 0.28647 0.10881 0.49285 0.0
C1277 C 0.29649 0.07738 0.47844 0.0
C1278 C 0.28675 0.09556 0.51245 0.0
C1279 C 0.29698 0.0504 0.51826 0.0
C1280 C 0.30647 1.01844 0.50383 0.0
C1281 C 0.30621 0.03174 0.48418 0.0
C1282 C 0.29374 0.97627 0.56483 0.0
C1283 C 0.30137 1.01039 0.57907 0.0
C1284 C 0.29212 0.98932 0.54524 0.0
C1285 C 0.298 0.03694 0.53927 0.0
C1286 C 0.30509 0.07141 0.55354 0.0
C1287 C 0.30673 0.05832 0.57318 0.0
H1288 H 0.68234 0.49808 0.08124 0.0
H1289 H 0.70675 0.64574 0.06967 0.0
H1290 H 0.68452 0.48 0.04653 0.0
H1291 H 0.70875 0.62781 0.03511 0.0
H1292 H 0.67837 0.59122 0.97327 0.0
H1293 H 0.67894 0.61008 1.00797 0.0
H1294 H 0.71573 0.47154 1.0196 0.0
H1295 H 0.71529 0.45291 0.98507 0.0
C1296 C 0.68847 0.52654 0.07138 0.0
C1297 C 0.69414 0.57349 0.07834 0.0
C1298 C 0.68968 0.51622 0.05143 0.0
C1299 C 0.69661 0.55258 0.03795 0.0
C1300 C 0.70281 0.59919 0.04498 0.0
C1301 C 0.70167 0.60944 0.06487 0.0
C1302 C 0.68691 0.56511 0.98319 0.0
C1303 C 0.69655 0.52035 0.97631 0.0
C1304 C 0.6872 0.57584 1.00312 0.0
C1305 C 0.69715 0.54209 1.01665 0.0
C1306 C 0.70739 0.49793 1.00969 0.0
C1307 C 0.70715 0.48729 0.98982 0.0
H1308 H 0.35813 0.57558 0.98242 0.0
H1309 H 0.27595 0.53249 0.97558 0.0
H1310 H 0.35542 0.55981 1.01717 0.0
H1311 H 0.27311 0.51675 1.01075 0.0
H1312 H 0.27721 0.55196 0.07889 0.0
H1313 H 0.27715 0.5677 0.04367 0.0
H1314 H 0.34906 0.48333 0.03766 0.0
H1315 H 0.34901 0.46759 0.07248 0.0
C1316 C 0.33941 0.56291 0.98839 0.0
C1317 C 0.31722 0.5554 0.97627 0.0
C1318 C 0.3379 0.55363 1.00829 0.0
C1319 C 0.31404 0.53715 1.01671 0.0
C1320 C 0.2917 0.52978 1.00467 0.0
C1321 C 0.29337 0.53832 0.98457 0.0
C1322 C 0.29297 0.53701 0.06997 0.0
C1323 C 0.31306 0.50845 0.07842 0.0
C1324 C 0.29282 0.54559 0.04985 0.0
C1325 C 0.31308 0.52664 0.03791 0.0
C1326 C 0.33323 0.49853 0.04646 0.0
C1327 C 0.33312 0.48931 0.0664 0.0
loop_
_geom_bond_atom_site_label_1
_geom_bond_atom_site_label_2
_geom_bond_distance
_geom_bond_site_symmetry_2
_ccdc_geom_bond_type
C0 C1 1.351 . S
C0 N3 1.368 . S
C0 H5 0.931 . S
C1 C0 1.351 . S
C1 N2 1.373 . S
C1 H29 0.930 . S
N2 C1 1.373 . S
N2 C4 1.340 . S
N3 C0 1.368 . S
N3 C4 1.321 . S
N3 Co6 2.135 . S
C4 N2 1.340 . S
C4 N3 1.321 . S
C4 H28 0.930 1_545 S
H5 C0 0.931 . S
Co6 N3 2.135 . S
Co6 N9 2.121 . S
Co6 O14 2.055 . S
Co6 O17 2.039 1_545 S
Co6 N20 2.140 . S
C7 O8 1.227 . S
C7 O17 1.265 . S
O8 C7 1.227 . S
N9 Co6 2.121 . S
N9 C11 1.375 1_545 S
N9 C12 1.313 . S
C10 C11 1.338 . S
C10 N13 1.377 1_565 S
C10 H30 0.930 . S
C11 N9 1.375 1_565 S
C11 C10 1.338 . S
C11 H15 0.931 . S
C12 N9 1.313 . S
C12 N13 1.344 . S
C12 H16 0.930 . S
N13 C10 1.377 1_545 S
N13 C12 1.344 . S
O14 Co6 2.055 . S
O14 C18 1.253 . S
H15 C11 0.931 . S
H16 C12 0.930 . S
O17 Co6 2.039 1_565 S
O17 C7 1.265 . S
C18 O14 1.253 . S
C18 O19 1.227 . S
O19 C18 1.227 . S
N20 Co6 2.140 . S
N20 C23 1.346 . S
N20 C24 1.345 . S
C21 C22 1.387 . S
C21 C25 1.391 . S
C22 C21 1.387 . S
C22 C23 1.369 . S
C22 H31 0.929 1_545 S
C23 N20 1.346 . S
C23 C22 1.369 . S
C23 H26 0.928 1_545 S
C24 N20 1.345 . S
C24 C25 1.371 . S
C24 H27 0.931 . S
C25 C21 1.391 . S
C25 C24 1.371 . S
C25 H32 0.930 . S
H26 C23 0.928 1_565 S
H27 C24 0.931 . S
H28 C4 0.930 1_565 S
H29 C1 0.930 . S
H30 C10 0.930 . S
H31 C22 0.929 1_565 S
H32 C25 0.930 . S
C33 C34 1.351 . S
C33 N36 1.387 . S
C33 H38 0.931 . S
C34 C33 1.351 . S
C34 N35 1.373 1_565 S
C34 H62 0.930 . S
N35 C34 1.373 1_545 S
N35 C37 1.340 . S
N36 C33 1.387 . S
N36 C37 1.306 1_565 S
N36 Co39 2.132 1_565 S
C37 N35 1.340 . S
C37 N36 1.306 1_545 S
C37 H61 0.930 . S
H38 C33 0.931 . S
Co39 N36 2.132 1_545 S
Co39 N42 2.121 . S
Co39 O47 2.055 1_545 S
Co39 O50 2.039 . S
Co39 N53 2.140 . S
C40 O41 1.227 . S
C40 O50 1.265 . S
O41 C40 1.227 . S
N42 Co39 2.121 . S
N42 C44 1.375 . S
N42 C45 1.313 1_545 S
C43 C44 1.338 . S
C43 N46 1.377 . S
C43 H63 0.930 . S
C44 N42 1.375 . S
C44 C43 1.338 . S
C44 H48 0.931 . S
C45 N42 1.313 1_565 S
C45 N46 1.344 1_565 S
C45 H49 0.930 . S
N46 C43 1.377 . S
N46 C45 1.344 1_545 S
O47 Co39 2.055 1_565 S
O47 C51 1.253 . S
H48 C44 0.931 . S
H49 C45 0.930 . S
O50 Co39 2.039 . S
O50 C40 1.265 . S
C51 O47 1.253 . S
C51 O52 1.227 . S
O52 C51 1.227 . S
N53 Co39 2.140 . S
N53 C56 1.346 . S
N53 C57 1.345 1_545 S
C54 C55 1.387 . S
C54 C58 1.391 1_545 S
C55 C54 1.387 . S
C55 C56 1.369 . S
C55 H64 0.929 . S
C56 N53 1.346 . S
C56 C55 1.369 . S
C56 H59 0.928 . S
C57 N53 1.345 1_565 S
C57 C58 1.371 . S
C57 H60 0.931 . S
C58 C54 1.391 1_565 S
C58 C57 1.371 . S
C58 H65 0.930 . S
H59 C56 0.928 . S
H60 C57 0.931 . S
H61 C37 0.930 . S
H62 C34 0.930 . S
H63 C43 0.930 . S
H64 C55 0.929 . S
H65 C58 0.930 . S
C66 C67 1.351 . S
C66 N69 1.387 . S
C66 H71 0.931 . S
C67 C66 1.351 . S
C67 N68 1.373 1_565 S
C67 H95 0.930 . S
N68 C67 1.373 1_545 S
N68 C70 1.340 . S
N69 C66 1.387 . S
N69 C70 1.306 1_565 S
N69 Co72 2.132 1_565 S
C70 N68 1.340 . S
C70 N69 1.306 1_545 S
C70 H94 0.930 . S
H71 C66 0.931 . S
Co72 N69 2.132 1_545 S
Co72 N75 2.121 . S
Co72 O80 2.055 1_545 S
Co72 O83 2.039 . S
Co72 N86 2.140 . S
C73 O74 1.227 . S
C73 O83 1.265 . S
O74 C73 1.227 . S
N75 Co72 2.121 . S
N75 C77 1.375 . S
N75 C78 1.313 1_545 S
C76 C77 1.338 . S
C76 N79 1.377 . S
C76 H96 0.930 . S
C77 N75 1.375 . S
C77 C76 1.338 . S
C77 H81 0.931 . S
C78 N75 1.313 1_565 S
C78 N79 1.344 1_565 S
C78 H82 0.930 . S
N79 C76 1.377 . S
N79 C78 1.344 1_545 S
O80 Co72 2.055 1_565 S
O80 C84 1.253 . S
H81 C77 0.931 . S
H82 C78 0.930 . S
O83 Co72 2.039 . S
O83 C73 1.265 . S
C84 O80 1.253 . S
C84 O85 1.227 . S
O85 C84 1.227 . S
N86 Co72 2.140 . S
N86 C89 1.346 . S
N86 C90 1.345 1_545 S
C87 C88 1.387 . S
C87 C91 1.391 1_545 S
C88 C87 1.387 . S
C88 C89 1.369 . S
C88 H97 0.929 . S
C89 N86 1.346 . S
C89 C88 1.369 . S
C89 H92 0.928 . S
C90 N86 1.345 1_565 S
C90 C91 1.371 . S
C90 H93 0.931 . S
C91 C87 1.391 1_565 S
C91 C90 1.371 . S
C91 H98 0.930 . S
H92 C89 0.928 . S
H93 C90 0.931 . S
H94 C70 0.930 . S
H95 C67 0.930 . S
H96 C76 0.930 . S
H97 C88 0.929 . S
H98 C91 0.930 . S
C99 C100 1.351 . S
C99 N102 1.368 . S
C99 H104 0.931 . S
C100 C99 1.351 . S
C100 N101 1.373 . S
C100 H128 0.930 . S
N101 C100 1.373 . S
N101 C103 1.340 . S
N102 C99 1.368 . S
N102 C103 1.321 . S
N102 Co105 2.135 . S
C103 N101 1.340 . S
C103 N102 1.321 . S
C103 H127 0.930 1_545 S
H104 C99 0.931 . S
Co105 N102 2.135 . S
Co105 N108 2.121 . S
Co105 O113 2.055 . S
Co105 O116 2.039 1_545 S
Co105 N119 2.140 . S
C106 O107 1.227 . S
C106 O116 1.265 . S
O107 C106 1.227 . S
N108 Co105 2.121 . S
N108 C110 1.375 1_545 S
N108 C111 1.313 . S
C109 C110 1.338 . S
C109 N112 1.377 1_565 S
C109 H129 0.930 . S
C110 N108 1.375 1_565 S
C110 C109 1.338 . S
C110 H114 0.931 . S
C111 N108 1.313 . S
C111 N112 1.344 . S
C111 H115 0.930 . S
N112 C109 1.377 1_545 S
N112 C111 1.344 . S
O113 Co105 2.055 . S
O113 C117 1.253 . S
H114 C110 0.931 . S
H115 C111 0.930 . S
O116 Co105 2.039 1_565 S
O116 C106 1.265 . S
C117 O113 1.253 . S
C117 O118 1.227 . S
O118 C117 1.227 . S
N119 Co105 2.140 . S
N119 C122 1.346 . S
N119 C123 1.345 . S
C120 C121 1.387 . S
C120 C124 1.391 . S
C121 C120 1.387 . S
C121 C122 1.369 . S
C121 H130 0.929 1_545 S
C122 N119 1.346 . S
C122 C121 1.369 . S
C122 H125 0.928 1_545 S
C123 N119 1.345 . S
C123 C124 1.371 . S
C123 H126 0.931 . S
C124 C120 1.391 . S
C124 C123 1.371 . S
C124 H131 0.930 . S
H125 C122 0.928 1_565 S
H126 C123 0.931 . S
H127 C103 0.930 1_565 S
H128 C100 0.930 . S
H129 C109 0.930 . S
H130 C121 0.929 1_565 S
H131 C124 0.930 . S
C132 C133 1.351 . S
C132 N135 1.368 . S
C132 H137 0.931 . S
C133 C132 1.351 . S
C133 N134 1.373 . S
C133 H161 0.930 . S
N134 C133 1.373 . S
N134 C136 1.340 . S
N135 C132 1.368 . S
N135 C136 1.321 . S
N135 Co138 2.135 . S
C136 N134 1.340 . S
C136 N135 1.321 . S
C136 H160 0.930 . S
H137 C132 0.931 . S
Co138 N135 2.135 . S
Co138 N141 2.121 . S
Co138 O146 2.055 . S
Co138 O149 2.039 . S
Co138 N152 2.140 . S
C139 O140 1.227 . S
C139 O149 1.265 . S
O140 C139 1.227 . S
N141 Co138 2.121 . S
N141 C143 1.375 . S
N141 C144 1.313 . S
C142 C143 1.338 . S
C142 N145 1.377 . S
C142 H162 0.930 . S
C143 N141 1.375 . S
C143 C142 1.338 . S
C143 H147 0.931 . S
C144 N141 1.313 . S
C144 N145 1.344 . S
C144 H148 0.930 . S
N145 C142 1.377 . S
N145 C144 1.344 . S
O146 Co138 2.055 . S
O146 C150 1.253 . S
H147 C143 0.931 . S
H148 C144 0.930 . S
O149 Co138 2.039 . S
O149 C139 1.265 . S
C150 O146 1.253 . S
C150 O151 1.227 . S
O151 C150 1.227 . S
N152 Co138 2.140 . S
N152 C155 1.346 . S
N152 C156 1.345 . S
C153 C154 1.387 . S
C153 C157 1.391 . S
C154 C153 1.387 . S
C154 C155 1.369 . S
C154 H163 0.929 . S
C155 N152 1.346 . S
C155 C154 1.369 . S
C155 H158 0.928 . S
C156 N152 1.345 . S
C156 C157 1.371 . S
C156 H159 0.931 . S
C157 C153 1.391 . S
C157 C156 1.371 . S
C157 H164 0.930 . S
H158 C155 0.928 . S
H159 C156 0.931 . S
H160 C136 0.930 . S
H161 C133 0.930 . S
H162 C142 0.930 . S
H163 C154 0.929 . S
H164 C157 0.930 . S
C165 C166 1.351 . S
C165 N168 1.368 . S
C165 H170 0.931 . S
C166 C165 1.351 . S
C166 N167 1.373 . S
C166 H194 0.930 . S
N167 C166 1.373 . S
N167 C169 1.340 . S
N168 C165 1.368 . S
N168 C169 1.321 . S
N168 Co171 2.135 . S
C169 N167 1.340 . S
C169 N168 1.321 . S
C169 H193 0.930 . S
H170 C165 0.931 . S
Co171 N168 2.135 . S
Co171 N174 2.121 . S
Co171 O179 2.055 . S
Co171 O182 2.039 . S
Co171 N185 2.140 . S
C172 O173 1.227 . S
C172 O182 1.265 . S
O173 C172 1.227 . S
N174 Co171 2.121 . S
N174 C176 1.375 . S
N174 C177 1.313 . S
C175 C176 1.338 . S
C175 N178 1.377 . S
C175 H195 0.930 . S
C176 N174 1.375 . S
C176 C175 1.338 . S
C176 H180 0.931 . S
C177 N174 1.313 . S
C177 N178 1.344 . S
C177 H181 0.930 . S
N178 C175 1.377 . S
N178 C177 1.344 . S
O179 Co171 2.055 . S
O179 C183 1.253 . S
H180 C176 0.931 . S
H181 C177 0.930 . S
O182 Co171 2.039 . S
O182 C172 1.265 . S
C183 O179 1.253 . S
C183 O184 1.227 . S
O184 C183 1.227 . S
N185 Co171 2.140 . S
N185 C188 1.346 . S
N185 C189 1.345 . S
C186 C187 1.387 . S
C186 C190 1.391 . S
C187 C186 1.387 . S
C187 C188 1.369 . S
C187 H196 0.929 . S
C188 N185 1.346 . S
C188 C187 1.369 . S
C188 H191 0.928 . S
C189 N185 1.345 . S
C189 C190 1.371 . S
C189 H192 0.931 . S
C190 C186 1.391 . S
C190 C189 1.371 . S
C190 H197 0.930 . S
H191 C188 0.928 . S
H192 C189 0.931 . S
H193 C169 0.930 . S
H194 C166 0.930 . S
H195 C175 0.930 . S
H196 C187 0.929 . S
H197 C190 0.930 . S
C198 C199 1.351 . S
C198 N201 1.368 . S
C198 H203 0.931 . S
C199 C198 1.351 . S
C199 N200 1.373 . S
C199 H227 0.930 . S
N200 C199 1.373 . S
N200 C202 1.340 . S
N201 C198 1.368 . S
N201 C202 1.321 . S
N201 Co204 2.135 . S
C202 N200 1.340 . S
C202 N201 1.321 . S
C202 H226 0.930 . S
H203 C198 0.931 . S
Co204 N201 2.135 . S
Co204 N207 2.121 . S
Co204 O212 2.055 . S
Co204 O215 2.039 . S
Co204 N218 2.140 . S
C205 O206 1.227 . S
C205 O215 1.265 . S
O206 C205 1.227 . S
N207 Co204 2.121 . S
N207 C209 1.375 . S
N207 C210 1.313 . S
C208 C209 1.338 . S
C208 N211 1.377 . S
C208 H228 0.930 . S
C209 N207 1.375 . S
C209 C208 1.338 . S
C209 H213 0.931 . S
C210 N207 1.313 . S
C210 N211 1.344 . S
C210 H214 0.930 . S
N211 C208 1.377 . S
N211 C210 1.344 . S
O212 Co204 2.055 . S
O212 C216 1.253 . S
H213 C209 0.931 . S
H214 C210 0.930 . S
O215 Co204 2.039 . S
O215 C205 1.265 . S
C216 O212 1.253 . S
C216 O217 1.227 . S
O217 C216 1.227 . S
N218 Co204 2.140 . S
N218 C221 1.346 . S
N218 C222 1.345 . S
C219 C220 1.387 . S
C219 C223 1.391 . S
C220 C219 1.387 . S
C220 C221 1.369 . S
C220 H229 0.929 . S
C221 N218 1.346 . S
C221 C220 1.369 . S
C221 H224 0.928 . S
C222 N218 1.345 . S
C222 C223 1.371 . S
C222 H225 0.931 . S
C223 C219 1.391 . S
C223 C222 1.371 . S
C223 H230 0.930 . S
H224 C221 0.928 . S
H225 C222 0.931 . S
H226 C202 0.930 . S
H227 C199 0.930 . S
H228 C208 0.930 . S
H229 C220 0.929 . S
H230 C223 0.930 . S
C231 C232 1.351 . S
C231 N234 1.368 . S
C231 H236 0.931 . S
C232 C231 1.351 . S
C232 N233 1.373 . S
C232 H260 0.930 . S
N233 C232 1.373 . S
N233 C235 1.340 . S
N234 C231 1.368 . S
N234 C235 1.321 . S
N234 Co237 2.135 . S
C235 N233 1.340 . S
C235 N234 1.321 . S
C235 H259 0.930 . S
H236 C231 0.931 . S
Co237 N234 2.135 . S
Co237 N240 2.121 . S
Co237 O245 2.055 . S
Co237 O248 2.039 . S
Co237 N251 2.140 . S
C238 O239 1.227 . S
C238 O248 1.265 . S
O239 C238 1.227 . S
N240 Co237 2.121 . S
N240 C242 1.375 . S
N240 C243 1.313 . S
C241 C242 1.338 . S
C241 N244 1.377 . S
C241 H261 0.930 . S
C242 N240 1.375 . S
C242 C241 1.338 . S
C242 H246 0.931 . S
C243 N240 1.313 . S
C243 N244 1.344 . S
C243 H247 0.930 . S
N244 C241 1.377 . S
N244 C243 1.344 . S
O245 Co237 2.055 . S
O245 C249 1.253 . S
H246 C242 0.931 . S
H247 C243 0.930 . S
O248 Co237 2.039 . S
O248 C238 1.265 . S
C249 O245 1.253 . S
C249 O250 1.227 . S
O250 C249 1.227 . S
N251 Co237 2.140 . S
N251 C254 1.346 . S
N251 C255 1.345 . S
C252 C253 1.387 . S
C252 C256 1.391 . S
C253 C252 1.387 . S
C253 C254 1.369 . S
C253 H262 0.929 . S
C254 N251 1.346 . S
C254 C253 1.369 . S
C254 H257 0.928 . S
C255 N251 1.345 . S
C255 C256 1.371 . S
C255 H258 0.931 . S
C256 C252 1.391 . S
C256 C255 1.371 . S
C256 H263 0.930 . S
H257 C254 0.928 . S
H258 C255 0.931 . S
H259 C235 0.930 . S
H260 C232 0.930 . S
H261 C241 0.930 . S
H262 C253 0.929 . S
H263 C256 0.930 . S
C264 C265 1.351 . S
C264 N267 1.368 . S
C264 H269 0.931 . S
C265 C264 1.351 . S
C265 N266 1.373 . S
C265 H293 0.930 . S
N266 C265 1.373 . S
N266 C268 1.340 . S
N267 C264 1.368 . S
N267 C268 1.321 . S
N267 Co270 2.135 . S
C268 N266 1.340 . S
C268 N267 1.321 . S
C268 H292 0.930 1_545 S
H269 C264 0.931 . S
Co270 N267 2.135 . S
Co270 N273 2.121 . S
Co270 O278 2.055 . S
Co270 O281 2.039 1_545 S
Co270 N284 2.140 . S
C271 O272 1.227 . S
C271 O281 1.265 . S
O272 C271 1.227 . S
N273 Co270 2.121 . S
N273 C275 1.375 1_545 S
N273 C276 1.313 . S
C274 C275 1.338 . S
C274 N277 1.377 1_565 S
C274 H294 0.930 . S
C275 N273 1.375 1_565 S
C275 C274 1.338 . S
C275 H279 0.931 . S
C276 N273 1.313 . S
C276 N277 1.344 . S
C276 H280 0.930 . S
N277 C274 1.377 1_545 S
N277 C276 1.344 . S
O278 Co270 2.055 . S
O278 C282 1.253 . S
H279 C275 0.931 . S
H280 C276 0.930 . S
O281 Co270 2.039 1_565 S
O281 C271 1.265 . S
C282 O278 1.253 . S
C282 O283 1.227 . S
O283 C282 1.227 . S
N284 Co270 2.140 . S
N284 C287 1.346 . S
N284 C288 1.345 . S
C285 C286 1.387 . S
C285 C289 1.391 . S
C286 C285 1.387 . S
C286 C287 1.369 . S
C286 H295 0.929 1_545 S
C287 N284 1.346 . S
C287 C286 1.369 . S
C287 H290 0.928 1_545 S
C288 N284 1.345 . S
C288 C289 1.371 . S
C288 H291 0.931 . S
C289 C285 1.391 . S
C289 C288 1.371 . S
C289 H296 0.930 . S
H290 C287 0.928 1_565 S
H291 C288 0.931 . S
H292 C268 0.930 1_565 S
H293 C265 0.930 . S
H294 C274 0.930 . S
H295 C286 0.929 1_565 S
H296 C289 0.930 . S
C297 C298 1.351 . S
C297 N300 1.387 . S
C297 H302 0.931 . S
C298 C297 1.351 . S
C298 N299 1.373 1_565 S
C298 H326 0.930 . S
N299 C298 1.373 1_545 S
N299 C301 1.340 . S
N300 C297 1.387 . S
N300 C301 1.306 1_565 S
N300 Co303 2.132 1_565 S
C301 N299 1.340 . S
C301 N300 1.306 1_545 S
C301 H325 0.930 . S
H302 C297 0.931 . S
Co303 N300 2.132 1_545 S
Co303 N306 2.121 . S
Co303 O311 2.055 1_545 S
Co303 O314 2.039 . S
Co303 N317 2.140 . S
C304 O305 1.227 . S
C304 O314 1.265 . S
O305 C304 1.227 . S
N306 Co303 2.121 . S
N306 C308 1.375 . S
N306 C309 1.313 1_545 S
C307 C308 1.338 . S
C307 N310 1.377 . S
C307 H327 0.930 . S
C308 N306 1.375 . S
C308 C307 1.338 . S
C308 H312 0.931 . S
C309 N306 1.313 1_565 S
C309 N310 1.344 1_565 S
C309 H313 0.930 . S
N310 C307 1.377 . S
N310 C309 1.344 1_545 S
O311 Co303 2.055 1_565 S
O311 C315 1.253 . S
H312 C308 0.931 . S
H313 C309 0.930 . S
O314 Co303 2.039 . S
O314 C304 1.265 . S
C315 O311 1.253 . S
C315 O316 1.227 . S
O316 C315 1.227 . S
N317 Co303 2.140 . S
N317 C320 1.346 . S
N317 C321 1.345 1_545 S
C318 C319 1.387 . S
C318 C322 1.391 1_545 S
C319 C318 1.387 . S
C319 C320 1.369 . S
C319 H328 0.929 . S
C320 N317 1.346 . S
C320 C319 1.369 . S
C320 H323 0.928 . S
C321 N317 1.345 1_565 S
C321 C322 1.371 . S
C321 H324 0.931 . S
C322 C318 1.391 1_565 S
C322 C321 1.371 . S
C322 H329 0.930 . S
H323 C320 0.928 . S
H324 C321 0.931 . S
H325 C301 0.930 . S
H326 C298 0.930 . S
H327 C307 0.930 . S
H328 C319 0.929 . S
H329 C322 0.930 . S
C330 C331 1.351 . S
C330 N333 1.387 . S
C330 H335 0.931 . S
C331 C330 1.351 . S
C331 N332 1.373 1_565 S
C331 H359 0.930 . S
N332 C331 1.373 1_545 S
N332 C334 1.340 . S
N333 C330 1.387 . S
N333 C334 1.306 1_565 S
N333 Co336 2.132 1_565 S
C334 N332 1.340 . S
C334 N333 1.306 1_545 S
C334 H358 0.930 . S
H335 C330 0.931 . S
Co336 N333 2.132 1_545 S
Co336 N339 2.121 . S
Co336 O344 2.055 1_545 S
Co336 O347 2.039 . S
Co336 N350 2.140 . S
C337 O338 1.227 . S
C337 O347 1.265 . S
O338 C337 1.227 . S
N339 Co336 2.121 . S
N339 C341 1.375 . S
N339 C342 1.313 1_545 S
C340 C341 1.338 . S
C340 N343 1.377 . S
C340 H360 0.930 . S
C341 N339 1.375 . S
C341 C340 1.338 . S
C341 H345 0.931 . S
C342 N339 1.313 1_565 S
C342 N343 1.344 1_565 S
C342 H346 0.930 . S
N343 C340 1.377 . S
N343 C342 1.344 1_545 S
O344 Co336 2.055 1_565 S
O344 C348 1.253 . S
H345 C341 0.931 . S
H346 C342 0.930 . S
O347 Co336 2.039 . S
O347 C337 1.265 . S
C348 O344 1.253 . S
C348 O349 1.227 . S
O349 C348 1.227 . S
N350 Co336 2.140 . S
N350 C353 1.346 . S
N350 C354 1.345 1_545 S
C351 C352 1.387 . S
C351 C355 1.391 1_545 S
C352 C351 1.387 . S
C352 C353 1.369 . S
C352 H361 0.929 . S
C353 N350 1.346 . S
C353 C352 1.369 . S
C353 H356 0.928 . S
C354 N350 1.345 1_565 S
C354 C355 1.371 . S
C354 H357 0.931 . S
C355 C351 1.391 1_565 S
C355 C354 1.371 . S
C355 H362 0.930 . S
H356 C353 0.928 . S
H357 C354 0.931 . S
H358 C334 0.930 . S
H359 C331 0.930 . S
H360 C340 0.930 . S
H361 C352 0.929 . S
H362 C355 0.930 . S
C363 C364 1.351 . S
C363 N366 1.368 . S
C363 H368 0.931 . S
C364 C363 1.351 . S
C364 N365 1.373 . S
C364 H392 0.930 . S
N365 C364 1.373 . S
N365 C367 1.340 . S
N366 C363 1.368 . S
N366 C367 1.321 . S
N366 Co369 2.135 . S
C367 N365 1.340 . S
C367 N366 1.321 . S
C367 H391 0.930 1_545 S
H368 C363 0.931 . S
Co369 N366 2.135 . S
Co369 N372 2.121 . S
Co369 O377 2.055 . S
Co369 O380 2.039 1_545 S
Co369 N383 2.140 . S
C370 O371 1.227 . S
C370 O380 1.265 . S
O371 C370 1.227 . S
N372 Co369 2.121 . S
N372 C374 1.375 1_545 S
N372 C375 1.313 . S
C373 C374 1.338 . S
C373 N376 1.377 1_565 S
C373 H393 0.930 . S
C374 N372 1.375 1_565 S
C374 C373 1.338 . S
C374 H378 0.931 . S
C375 N372 1.313 . S
C375 N376 1.344 . S
C375 H379 0.930 . S
N376 C373 1.377 1_545 S
N376 C375 1.344 . S
O377 Co369 2.055 . S
O377 C381 1.253 . S
H378 C374 0.931 . S
H379 C375 0.930 . S
O380 Co369 2.039 1_565 S
O380 C370 1.265 . S
C381 O377 1.253 . S
C381 O382 1.227 . S
O382 C381 1.227 . S
N383 Co369 2.140 . S
N383 C386 1.346 . S
N383 C387 1.345 . S
C384 C385 1.387 . S
C384 C388 1.391 . S
C385 C384 1.387 . S
C385 C386 1.369 . S
C385 H394 0.929 1_545 S
C386 N383 1.346 . S
C386 C385 1.369 . S
C386 H389 0.928 1_545 S
C387 N383 1.345 . S
C387 C388 1.371 . S
C387 H390 0.931 . S
C388 C384 1.391 . S
C388 C387 1.371 . S
C388 H395 0.930 . S
H389 C386 0.928 1_565 S
H390 C387 0.931 . S
H391 C367 0.930 1_565 S
H392 C364 0.930 . S
H393 C373 0.930 . S
H394 C385 0.929 1_565 S
H395 C388 0.930 . S
C396 C397 1.351 . S
C396 N399 1.368 . S
C396 H401 0.931 . S
C397 C396 1.351 . S
C397 N398 1.373 . S
C397 H425 0.930 . S
N398 C397 1.373 . S
N398 C400 1.340 . S
N399 C396 1.368 . S
N399 C400 1.321 . S
N399 Co402 2.135 . S
C400 N398 1.340 . S
C400 N399 1.321 . S
C400 H424 0.930 . S
H401 C396 0.931 . S
Co402 N399 2.135 . S
Co402 N405 2.121 . S
Co402 O410 2.055 . S
Co402 O413 2.039 . S
Co402 N416 2.140 . S
C403 O404 1.227 . S
C403 O413 1.265 . S
O404 C403 1.227 . S
N405 Co402 2.121 . S
N405 C407 1.375 . S
N405 C408 1.313 . S
C406 C407 1.338 . S
C406 N409 1.377 . S
C406 H426 0.930 . S
C407 N405 1.375 . S
C407 C406 1.338 . S
C407 H411 0.931 . S
C408 N405 1.313 . S
C408 N409 1.344 . S
C408 H412 0.930 . S
N409 C406 1.377 . S
N409 C408 1.344 . S
O410 Co402 2.055 . S
O410 C414 1.253 . S
H411 C407 0.931 . S
H412 C408 0.930 . S
O413 Co402 2.039 . S
O413 C403 1.265 . S
C414 O410 1.253 . S
C414 O415 1.227 . S
O415 C414 1.227 . S
N416 Co402 2.140 . S
N416 C419 1.346 . S
N416 C420 1.345 . S
C417 C418 1.387 . S
C417 C421 1.391 . S
C418 C417 1.387 . S
C418 C419 1.369 . S
C418 H427 0.929 . S
C419 N416 1.346 . S
C419 C418 1.369 . S
C419 H422 0.928 . S
C420 N416 1.345 . S
C420 C421 1.371 . S
C420 H423 0.931 . S
C421 C417 1.391 . S
C421 C420 1.371 . S
C421 H428 0.930 . S
H422 C419 0.928 . S
H423 C420 0.931 . S
H424 C400 0.930 . S
H425 C397 0.930 . S
H426 C406 0.930 . S
H427 C418 0.929 . S
H428 C421 0.930 . S
C429 C430 1.351 . S
C429 N432 1.368 . S
C429 H434 0.931 . S
C430 C429 1.351 . S
C430 N431 1.373 . S
C430 H458 0.930 . S
N431 C430 1.373 . S
N431 C433 1.340 . S
N432 C429 1.368 . S
N432 C433 1.321 . S
N432 Co435 2.135 . S
C433 N431 1.340 . S
C433 N432 1.321 . S
C433 H457 0.930 . S
H434 C429 0.931 . S
Co435 N432 2.135 . S
Co435 N438 2.121 . S
Co435 O443 2.055 . S
Co435 O446 2.039 . S
Co435 N449 2.140 . S
C436 O437 1.227 . S
C436 O446 1.265 . S
O437 C436 1.227 . S
N438 Co435 2.121 . S
N438 C440 1.375 . S
N438 C441 1.313 . S
C439 C440 1.338 . S
C439 N442 1.377 . S
C439 H459 0.930 . S
C440 N438 1.375 . S
C440 C439 1.338 . S
C440 H444 0.931 . S
C441 N438 1.313 . S
C441 N442 1.344 . S
C441 H445 0.930 . S
N442 C439 1.377 . S
N442 C441 1.344 . S
O443 Co435 2.055 . S
O443 C447 1.253 . S
H444 C440 0.931 . S
H445 C441 0.930 . S
O446 Co435 2.039 . S
O446 C436 1.265 . S
C447 O443 1.253 . S
C447 O448 1.227 . S
O448 C447 1.227 . S
N449 Co435 2.140 . S
N449 C452 1.346 . S
N449 C453 1.345 . S
C450 C451 1.387 . S
C450 C454 1.391 . S
C451 C450 1.387 . S
C451 C452 1.369 . S
C451 H460 0.929 . S
C452 N449 1.346 . S
C452 C451 1.369 . S
C452 H455 0.928 . S
C453 N449 1.345 . S
C453 C454 1.371 . S
C453 H456 0.931 . S
C454 C450 1.391 . S
C454 C453 1.371 . S
C454 H461 0.930 . S
H455 C452 0.928 . S
H456 C453 0.931 . S
H457 C433 0.930 . S
H458 C430 0.930 . S
H459 C439 0.930 . S
H460 C451 0.929 . S
H461 C454 0.930 . S
C462 C463 1.351 . S
C462 N465 1.368 . S
C462 H467 0.931 . S
C463 C462 1.351 . S
C463 N464 1.373 . S
C463 H491 0.930 . S
N464 C463 1.373 . S
N464 C466 1.340 . S
N465 C462 1.368 . S
N465 C466 1.321 . S
N465 Co468 2.135 . S
C466 N464 1.340 . S
C466 N465 1.321 . S
C466 H490 0.930 . S
H467 C462 0.931 . S
Co468 N465 2.135 . S
Co468 N471 2.121 . S
Co468 O476 2.055 . S
Co468 O479 2.039 . S
Co468 N482 2.140 . S
C469 O470 1.227 . S
C469 O479 1.265 . S
O470 C469 1.227 . S
N471 Co468 2.121 . S
N471 C473 1.375 . S
N471 C474 1.313 . S
C472 C473 1.338 . S
C472 N475 1.377 . S
C472 H492 0.930 . S
C473 N471 1.375 . S
C473 C472 1.338 . S
C473 H477 0.931 . S
C474 N471 1.313 . S
C474 N475 1.344 . S
C474 H478 0.930 . S
N475 C472 1.377 . S
N475 C474 1.344 . S
O476 Co468 2.055 . S
O476 C480 1.253 . S
H477 C473 0.931 . S
H478 C474 0.930 . S
O479 Co468 2.039 . S
O479 C469 1.265 . S
C480 O476 1.253 . S
C480 O481 1.227 . S
O481 C480 1.227 . S
N482 Co468 2.140 . S
N482 C485 1.346 . S
N482 C486 1.345 . S
C483 C484 1.387 . S
C483 C487 1.391 . S
C484 C483 1.387 . S
C484 C485 1.369 . S
C484 H493 0.929 . S
C485 N482 1.346 . S
C485 C484 1.369 . S
C485 H488 0.928 . S
C486 N482 1.345 . S
C486 C487 1.371 . S
C486 H489 0.931 . S
C487 C483 1.391 . S
C487 C486 1.371 . S
C487 H494 0.930 . S
H488 C485 0.928 . S
H489 C486 0.931 . S
H490 C466 0.930 . S
H491 C463 0.930 . S
H492 C472 0.930 . S
H493 C484 0.929 . S
H494 C487 0.930 . S
C495 C496 1.351 . S
C495 N498 1.368 . S
C495 H500 0.931 . S
C496 C495 1.351 . S
C496 N497 1.373 . S
C496 H524 0.930 . S
N497 C496 1.373 . S
N497 C499 1.340 . S
N498 C495 1.368 . S
N498 C499 1.321 . S
N498 Co501 2.135 . S
C499 N497 1.340 . S
C499 N498 1.321 . S
C499 H523 0.930 . S
H500 C495 0.931 . S
Co501 N498 2.135 . S
Co501 N504 2.121 . S
Co501 O509 2.055 . S
Co501 O512 2.039 . S
Co501 N515 2.140 . S
C502 O503 1.227 . S
C502 O512 1.265 . S
O503 C502 1.227 . S
N504 Co501 2.121 . S
N504 C506 1.375 . S
N504 C507 1.313 . S
C505 C506 1.338 . S
C505 N508 1.377 . S
C505 H525 0.930 . S
C506 N504 1.375 . S
C506 C505 1.338 . S
C506 H510 0.931 . S
C507 N504 1.313 . S
C507 N508 1.344 . S
C507 H511 0.930 . S
N508 C505 1.377 . S
N508 C507 1.344 . S
O509 Co501 2.055 . S
O509 C513 1.253 . S
H510 C506 0.931 . S
H511 C507 0.930 . S
O512 Co501 2.039 . S
O512 C502 1.265 . S
C513 O509 1.253 . S
C513 O514 1.227 . S
O514 C513 1.227 . S
N515 Co501 2.140 . S
N515 C518 1.346 . S
N515 C519 1.345 . S
C516 C517 1.387 . S
C516 C520 1.391 . S
C517 C516 1.387 . S
C517 C518 1.369 . S
C517 H526 0.929 . S
C518 N515 1.346 . S
C518 C517 1.369 . S
C518 H521 0.928 . S
C519 N515 1.345 . S
C519 C520 1.371 . S
C519 H522 0.931 . S
C520 C516 1.391 . S
C520 C519 1.371 . S
C520 H527 0.930 . S
H521 C518 0.928 . S
H522 C519 0.931 . S
H523 C499 0.930 . S
H524 C496 0.930 . S
H525 C505 0.930 . S
H526 C517 0.929 . S
H527 C520 0.930 . S
H528 C536 0.950 . S
H529 C541 0.950 . S
H530 C538 0.950 . S
H531 C540 0.950 . S
H532 C542 0.950 . S
H533 C544 0.950 . S
H534 C546 0.950 . S
H535 C547 0.950 . S
C536 H528 0.950 . S
C536 C537 1.386 . S
C536 C538 1.391 . S
C537 C536 1.386 . S
C537 C541 1.393 . S
C538 H530 0.950 . S
C538 C536 1.391 . S
C538 C539 1.400 . S
C539 C538 1.400 . S
C539 C540 1.398 . S
C539 C545 1.491 . S
C540 H531 0.950 . S
C540 C539 1.398 . S
C540 C541 1.391 . S
C541 H529 0.950 . S
C541 C537 1.393 . S
C541 C540 1.391 . S
C542 H532 0.950 . S
C542 C543 1.386 . S
C542 C544 1.391 . S
C543 C542 1.386 . S
C543 C547 1.393 . S
C544 H533 0.950 . S
C544 C542 1.391 . S
C544 C545 1.400 . S
C545 C539 1.491 . S
C545 C544 1.400 . S
C545 C546 1.398 . S
C546 H534 0.950 . S
C546 C545 1.398 . S
C546 C547 1.391 . S
C547 H535 0.950 . S
C547 C543 1.393 . S
C547 C546 1.391 . S
H548 C556 0.950 . S
H549 C561 0.950 . S
H550 C558 0.950 . S
H551 C560 0.950 . S
H552 C562 0.950 . S
H553 C564 0.950 . S
H554 C566 0.950 . S
H555 C567 0.950 . S
C556 H548 0.950 . S
C556 C557 1.386 1_545 S
C556 C558 1.391 . S
C557 C556 1.386 1_565 S
C557 C561 1.393 . S
C558 H550 0.950 . S
C558 C556 1.391 . S
C558 C559 1.400 1_545 S
C559 C558 1.400 1_565 S
C559 C560 1.398 . S
C559 C565 1.491 . S
C560 H551 0.950 . S
C560 C559 1.398 . S
C560 C561 1.391 . S
C561 H549 0.950 . S
C561 C557 1.393 . S
C561 C560 1.391 . S
C562 H552 0.950 . S
C562 C563 1.386 . S
C562 C564 1.391 . S
C563 C562 1.386 . S
C563 C567 1.393 1_565 S
C564 H553 0.950 . S
C564 C562 1.391 . S
C564 C565 1.400 . S
C565 C559 1.491 . S
C565 C564 1.400 . S
C565 C566 1.398 1_565 S
C566 H554 0.950 . S
C566 C565 1.398 1_545 S
C566 C567 1.391 . S
C567 H555 0.950 . S
C567 C563 1.393 1_545 S
C567 C566 1.391 . S
H568 C576 0.950 . S
H569 C581 0.950 . S
H570 C578 0.950 . S
H571 C580 0.950 . S
H572 C582 0.950 . S
H573 C584 0.950 . S
H574 C586 0.950 . S
H575 C587 0.950 . S
C576 H568 0.950 . S
C576 C577 1.386 . S
C576 C578 1.391 . S
C577 C576 1.386 . S
C577 C581 1.393 1_565 S
C578 H570 0.950 . S
C578 C576 1.391 . S
C578 C579 1.400 . S
C579 C578 1.400 . S
C579 C580 1.398 1_565 S
C579 C585 1.491 . S
C580 H571 0.950 . S
C580 C579 1.398 1_545 S
C580 C581 1.391 . S
C581 H569 0.950 . S
C581 C577 1.393 1_545 S
C581 C580 1.391 . S
C582 H572 0.950 . S
C582 C583 1.386 1_545 S
C582 C584 1.391 . S
C583 C582 1.386 1_565 S
C583 C587 1.393 . S
C584 H573 0.950 . S
C584 C582 1.391 . S
C584 C585 1.400 1_545 S
C585 C579 1.491 . S
C585 C584 1.400 1_565 S
C585 C586 1.398 . S
C586 H574 0.950 . S
C586 C585 1.398 . S
C586 C587 1.391 . S
C587 H575 0.950 . S
C587 C583 1.393 . S
C587 C586 1.391 . S
H588 C596 0.950 . S
H589 C601 0.950 . S
H590 C598 0.950 . S
H591 C600 0.950 . S
H592 C602 0.950 . S
H593 C604 0.950 . S
H594 C606 0.950 . S
H595 C607 0.950 . S
C596 H588 0.950 . S
C596 C597 1.386 . S
C596 C598 1.391 . S
C597 C596 1.386 . S
C597 C601 1.393 . S
C598 H590 0.950 . S
C598 C596 1.391 . S
C598 C599 1.400 . S
C599 C598 1.400 . S
C599 C600 1.398 . S
C599 C605 1.491 . S
C600 H591 0.950 . S
C600 C599 1.398 . S
C600 C601 1.391 . S
C601 H589 0.950 . S
C601 C597 1.393 . S
C601 C600 1.391 . S
C602 H592 0.950 . S
C602 C603 1.386 . S
C602 C604 1.391 . S
C603 C602 1.386 . S
C603 C607 1.393 . S
C604 H593 0.950 . S
C604 C602 1.391 . S
C604 C605 1.400 . S
C605 C599 1.491 . S
C605 C604 1.400 . S
C605 C606 1.398 . S
C606 H594 0.950 . S
C606 C605 1.398 . S
C606 C607 1.391 . S
C607 H595 0.950 . S
C607 C603 1.393 . S
C607 C606 1.391 . S
H608 C616 0.950 . S
H609 C621 0.950 . S
H610 C618 0.950 . S
H611 C620 0.950 . S
H612 C622 0.950 . S
H613 C624 0.950 . S
H614 C626 0.950 . S
H615 C627 0.950 . S
C616 H608 0.950 . S
C616 C617 1.386 . S
C616 C618 1.391 . S
C617 C616 1.386 . S
C617 C621 1.393 . S
C618 H610 0.950 . S
C618 C616 1.391 . S
C618 C619 1.400 . S
C619 C618 1.400 . S
C619 C620 1.398 . S
C619 C625 1.491 . S
C620 H611 0.950 . S
C620 C619 1.398 . S
C620 C621 1.391 . S
C621 H609 0.950 . S
C621 C617 1.393 . S
C621 C620 1.391 . S
C622 H612 0.950 . S
C622 C623 1.386 . S
C622 C624 1.391 . S
C623 C622 1.386 . S
C623 C627 1.393 . S
C624 H613 0.950 . S
C624 C622 1.391 . S
C624 C625 1.400 . S
C625 C619 1.491 . S
C625 C624 1.400 . S
C625 C626 1.398 . S
C626 H614 0.950 . S
C626 C625 1.398 . S
C626 C627 1.391 . S
C627 H615 0.950 . S
C627 C623 1.393 . S
C627 C626 1.391 . S
H628 C636 0.950 . S
H629 C641 0.950 . S
H630 C638 0.950 . S
H631 C640 0.950 . S
H632 C642 0.950 . S
H633 C644 0.950 . S
H634 C646 0.950 . S
H635 C647 0.950 . S
C636 H628 0.950 . S
C636 C637 1.386 . S
C636 C638 1.391 . S
C637 C636 1.386 . S
C637 C641 1.393 . S
C638 H630 0.950 . S
C638 C636 1.391 . S
C638 C639 1.400 . S
C639 C638 1.400 . S
C639 C640 1.398 . S
C639 C645 1.491 . S
C640 H631 0.950 . S
C640 C639 1.398 . S
C640 C641 1.391 . S
C641 H629 0.950 . S
C641 C637 1.393 . S
C641 C640 1.391 . S
C642 H632 0.950 . S
C642 C643 1.386 . S
C642 C644 1.391 . S
C643 C642 1.386 . S
C643 C647 1.393 . S
C644 H633 0.950 . S
C644 C642 1.391 . S
C644 C645 1.400 . S
C645 C639 1.491 . S
C645 C644 1.400 . S
C645 C646 1.398 . S
C646 H634 0.950 . S
C646 C645 1.398 . S
C646 C647 1.391 . S
C647 H635 0.950 . S
C647 C643 1.393 . S
C647 C646 1.391 . S
H648 C656 0.950 . S
H649 C661 0.950 . S
H650 C658 0.950 . S
H651 C660 0.950 . S
H652 C662 0.950 . S
H653 C664 0.950 . S
H654 C666 0.950 . S
H655 C667 0.950 . S
C656 H648 0.950 . S
C656 C657 1.386 . S
C656 C658 1.391 . S
C657 C656 1.386 . S
C657 C661 1.393 . S
C658 H650 0.950 . S
C658 C656 1.391 . S
C658 C659 1.400 . S
C659 C658 1.400 . S
C659 C660 1.398 . S
C659 C665 1.491 . S
C660 H651 0.950 . S
C660 C659 1.398 . S
C660 C661 1.391 . S
C661 H649 0.950 . S
C661 C657 1.393 . S
C661 C660 1.391 . S
C662 H652 0.950 . S
C662 C663 1.386 . S
C662 C664 1.391 . S
C663 C662 1.386 . S
C663 C667 1.393 . S
C664 H653 0.950 . S
C664 C662 1.391 . S
C664 C665 1.400 . S
C665 C659 1.491 . S
C665 C664 1.400 . S
C665 C666 1.398 . S
C666 H654 0.950 . S
C666 C665 1.398 . S
C666 C667 1.391 . S
C667 H655 0.950 . S
C667 C663 1.393 . S
C667 C666 1.391 . S
H668 C676 0.950 . S
H669 C681 0.950 . S
H670 C678 0.950 . S
H671 C680 0.950 . S
H672 C682 0.950 . S
H673 C684 0.950 . S
H674 C686 0.950 . S
H675 C687 0.950 . S
C676 H668 0.950 . S
C676 C677 1.386 . S
C676 C678 1.391 . S
C677 C676 1.386 . S
C677 C681 1.393 . S
C678 H670 0.950 . S
C678 C676 1.391 . S
C678 C679 1.400 . S
C679 C678 1.400 . S
C679 C680 1.398 . S
C679 C685 1.491 . S
C680 H671 0.950 . S
C680 C679 1.398 . S
C680 C681 1.391 . S
C681 H669 0.950 . S
C681 C677 1.393 . S
C681 C680 1.391 . S
C682 H672 0.950 . S
C682 C683 1.386 . S
C682 C684 1.391 . S
C683 C682 1.386 . S
C683 C687 1.393 . S
C684 H673 0.950 . S
C684 C682 1.391 . S
C684 C685 1.400 . S
C685 C679 1.491 . S
C685 C684 1.400 . S
C685 C686 1.398 . S
C686 H674 0.950 . S
C686 C685 1.398 . S
C686 C687 1.391 . S
C687 H675 0.950 . S
C687 C683 1.393 . S
C687 C686 1.391 . S
H688 C696 0.950 . S
H689 C701 0.950 . S
H690 C698 0.950 . S
H691 C700 0.950 . S
H692 C702 0.950 . S
H693 C704 0.950 . S
H694 C706 0.950 . S
H695 C707 0.950 . S
C696 H688 0.950 . S
C696 C697 1.386 . S
C696 C698 1.391 . S
C697 C696 1.386 . S
C697 C701 1.393 . S
C698 H690 0.950 . S
C698 C696 1.391 . S
C698 C699 1.400 . S
C699 C698 1.400 . S
C699 C700 1.398 . S
C699 C705 1.491 . S
C700 H691 0.950 . S
C700 C699 1.398 . S
C700 C701 1.391 . S
C701 H689 0.950 . S
C701 C697 1.393 . S
C701 C700 1.391 . S
C702 H692 0.950 . S
C702 C703 1.386 . S
C702 C704 1.391 . S
C703 C702 1.386 . S
C703 C707 1.393 . S
C704 H693 0.950 . S
C704 C702 1.391 . S
C704 C705 1.400 . S
C705 C699 1.491 . S
C705 C704 1.400 . S
C705 C706 1.398 . S
C706 H694 0.950 . S
C706 C705 1.398 . S
C706 C707 1.391 . S
C707 H695 0.950 . S
C707 C703 1.393 . S
C707 C706 1.391 . S
H708 C716 0.950 . S
H709 C721 0.950 . S
H710 C718 0.950 . S
H711 C720 0.950 . S
H712 C722 0.950 . S
H713 C724 0.950 . S
H714 C726 0.950 . S
H715 C727 0.950 . S
C716 H708 0.950 . S
C716 C717 1.386 . S
C716 C718 1.391 . S
C717 C716 1.386 . S
C717 C721 1.393 . S
C718 H710 0.950 . S
C718 C716 1.391 . S
C718 C719 1.400 . S
C719 C718 1.400 . S
C719 C720 1.398 . S
C719 C725 1.491 . S
C720 H711 0.950 . S
C720 C719 1.398 . S
C720 C721 1.391 . S
C721 H709 0.950 . S
C721 C717 1.393 . S
C721 C720 1.391 . S
C722 H712 0.950 . S
C722 C723 1.386 . S
C722 C724 1.391 . S
C723 C722 1.386 . S
C723 C727 1.393 . S
C724 H713 0.950 . S
C724 C722 1.391 . S
C724 C725 1.400 . S
C725 C719 1.491 . S
C725 C724 1.400 . S
C725 C726 1.398 . S
C726 H714 0.950 . S
C726 C725 1.398 . S
C726 C727 1.391 . S
C727 H715 0.950 . S
C727 C723 1.393 . S
C727 C726 1.391 . S
H728 C736 0.950 . S
H729 C741 0.950 . S
H730 C738 0.950 . S
H731 C740 0.950 . S
H732 C742 0.950 . S
H733 C744 0.950 . S
H734 C746 0.950 . S
H735 C747 0.950 . S
C736 H728 0.950 . S
C736 C737 1.386 . S
C736 C738 1.391 . S
C737 C736 1.386 . S
C737 C741 1.393 . S
C738 H730 0.950 . S
C738 C736 1.391 . S
C738 C739 1.400 . S
C739 C738 1.400 . S
C739 C740 1.398 . S
C739 C745 1.491 . S
C740 H731 0.950 . S
C740 C739 1.398 . S
C740 C741 1.391 . S
C741 H729 0.950 . S
C741 C737 1.393 . S
C741 C740 1.391 . S
C742 H732 0.950 . S
C742 C743 1.386 . S
C742 C744 1.391 . S
C743 C742 1.386 . S
C743 C747 1.393 . S
C744 H733 0.950 . S
C744 C742 1.391 . S
C744 C745 1.400 . S
C745 C739 1.491 . S
C745 C744 1.400 . S
C745 C746 1.398 . S
C746 H734 0.950 . S
C746 C745 1.398 . S
C746 C747 1.391 . S
C747 H735 0.950 . S
C747 C743 1.393 . S
C747 C746 1.391 . S
H748 C756 0.950 . S
H749 C761 0.950 . S
H750 C758 0.950 . S
H751 C760 0.950 . S
H752 C762 0.950 . S
H753 C764 0.950 . S
H754 C766 0.950 . S
H755 C767 0.950 . S
C756 H748 0.950 . S
C756 C757 1.386 . S
C756 C758 1.391 . S
C757 C756 1.386 . S
C757 C761 1.393 . S
C758 H750 0.950 . S
C758 C756 1.391 . S
C758 C759 1.400 . S
C759 C758 1.400 . S
C759 C760 1.398 . S
C759 C765 1.491 . S
C760 H751 0.950 . S
C760 C759 1.398 . S
C760 C761 1.391 . S
C761 H749 0.950 . S
C761 C757 1.393 . S
C761 C760 1.391 . S
C762 H752 0.950 . S
C762 C763 1.386 . S
C762 C764 1.391 . S
C763 C762 1.386 . S
C763 C767 1.393 . S
C764 H753 0.950 . S
C764 C762 1.391 . S
C764 C765 1.400 . S
C765 C759 1.491 . S
C765 C764 1.400 . S
C765 C766 1.398 . S
C766 H754 0.950 . S
C766 C765 1.398 . S
C766 C767 1.391 . S
C767 H755 0.950 . S
C767 C763 1.393 . S
C767 C766 1.391 . S
H768 C776 0.950 . S
H769 C781 0.950 . S
H770 C778 0.950 . S
H771 C780 0.950 . S
H772 C782 0.950 . S
H773 C784 0.950 . S
H774 C786 0.950 . S
H775 C787 0.950 . S
C776 H768 0.950 . S
C776 C777 1.386 . S
C776 C778 1.391 . S
C777 C776 1.386 . S
C777 C781 1.393 . S
C778 H770 0.950 . S
C778 C776 1.391 . S
C778 C779 1.400 . S
C779 C778 1.400 . S
C779 C780 1.398 . S
C779 C785 1.491 . S
C780 H771 0.950 . S
C780 C779 1.398 . S
C780 C781 1.391 . S
C781 H769 0.950 . S
C781 C777 1.393 . S
C781 C780 1.391 . S
C782 H772 0.950 . S
C782 C783 1.386 . S
C782 C784 1.391 . S
C783 C782 1.386 . S
C783 C787 1.393 . S
C784 H773 0.950 . S
C784 C782 1.391 . S
C784 C785 1.400 . S
C785 C779 1.491 . S
C785 C784 1.400 . S
C785 C786 1.398 . S
C786 H774 0.950 . S
C786 C785 1.398 . S
C786 C787 1.391 . S
C787 H775 0.950 . S
C787 C783 1.393 . S
C787 C786 1.391 . S
H788 C796 0.950 . S
H789 C801 0.950 . S
H790 C798 0.950 . S
H791 C800 0.950 . S
H792 C802 0.950 . S
H793 C804 0.950 . S
H794 C806 0.950 . S
H795 C807 0.950 . S
C796 H788 0.950 . S
C796 C797 1.386 . S
C796 C798 1.391 . S
C797 C796 1.386 . S
C797 C801 1.393 . S
C798 H790 0.950 . S
C798 C796 1.391 . S
C798 C799 1.400 . S
C799 C798 1.400 . S
C799 C800 1.398 . S
C799 C805 1.491 . S
C800 H791 0.950 . S
C800 C799 1.398 . S
C800 C801 1.391 . S
C801 H789 0.950 . S
C801 C797 1.393 . S
C801 C800 1.391 . S
C802 H792 0.950 . S
C802 C803 1.386 . S
C802 C804 1.391 . S
C803 C802 1.386 . S
C803 C807 1.393 . S
C804 H793 0.950 . S
C804 C802 1.391 . S
C804 C805 1.400 . S
C805 C799 1.491 . S
C805 C804 1.400 . S
C805 C806 1.398 . S
C806 H794 0.950 . S
C806 C805 1.398 . S
C806 C807 1.391 . S
C807 H795 0.950 . S
C807 C803 1.393 . S
C807 C806 1.391 . S
H808 C816 0.950 . S
H809 C821 0.950 . S
H810 C818 0.950 . S
H811 C820 0.950 . S
H812 C822 0.950 . S
H813 C824 0.950 . S
H814 C826 0.950 . S
H815 C827 0.950 . S
C816 H808 0.950 . S
C816 C817 1.386 . S
C816 C818 1.391 . S
C817 C816 1.386 . S
C817 C821 1.393 . S
C818 H810 0.950 . S
C818 C816 1.391 . S
C818 C819 1.400 . S
C819 C818 1.400 . S
C819 C820 1.398 . S
C819 C825 1.491 . S
C820 H811 0.950 . S
C820 C819 1.398 . S
C820 C821 1.391 . S
C821 H809 0.950 . S
C821 C817 1.393 . S
C821 C820 1.391 . S
C822 H812 0.950 . S
C822 C823 1.386 . S
C822 C824 1.391 . S
C823 C822 1.386 . S
C823 C827 1.393 . S
C824 H813 0.950 . S
C824 C822 1.391 . S
C824 C825 1.400 . S
C825 C819 1.491 . S
C825 C824 1.400 . S
C825 C826 1.398 . S
C826 H814 0.950 . S
C826 C825 1.398 . S
C826 C827 1.391 . S
C827 H815 0.950 . S
C827 C823 1.393 . S
C827 C826 1.391 . S
H828 C836 0.950 . S
H829 C841 0.950 . S
H830 C838 0.950 . S
H831 C840 0.950 . S
H832 C842 0.950 . S
H833 C844 0.950 . S
H834 C846 0.950 . S
H835 C847 0.950 . S
C836 H828 0.950 . S
C836 C837 1.386 . S
C836 C838 1.391 . S
C837 C836 1.386 . S
C837 C841 1.393 . S
C838 H830 0.950 . S
C838 C836 1.391 . S
C838 C839 1.400 . S
C839 C838 1.400 . S
C839 C840 1.398 . S
C839 C845 1.491 . S
C840 H831 0.950 . S
C840 C839 1.398 . S
C840 C841 1.391 . S
C841 H829 0.950 . S
C841 C837 1.393 . S
C841 C840 1.391 . S
C842 H832 0.950 . S
C842 C843 1.386 . S
C842 C844 1.391 . S
C843 C842 1.386 . S
C843 C847 1.393 . S
C844 H833 0.950 . S
C844 C842 1.391 . S
C844 C845 1.400 . S
C845 C839 1.491 . S
C845 C844 1.400 . S
C845 C846 1.398 . S
C846 H834 0.950 . S
C846 C845 1.398 . S
C846 C847 1.391 . S
C847 H835 0.950 . S
C847 C843 1.393 . S
C847 C846 1.391 . S
H848 C856 0.950 . S
H849 C861 0.950 . S
H850 C858 0.950 . S
H851 C860 0.950 . S
H852 C862 0.950 . S
H853 C864 0.950 . S
H854 C866 0.950 . S
H855 C867 0.950 . S
C856 H848 0.950 . S
C856 C857 1.386 . S
C856 C858 1.391 . S
C857 C856 1.386 . S
C857 C861 1.393 . S
C858 H850 0.950 . S
C858 C856 1.391 . S
C858 C859 1.400 . S
C859 C858 1.400 . S
C859 C860 1.398 . S
C859 C865 1.491 . S
C860 H851 0.950 . S
C860 C859 1.398 . S
C860 C861 1.391 . S
C861 H849 0.950 . S
C861 C857 1.393 . S
C861 C860 1.391 . S
C862 H852 0.950 . S
C862 C863 1.386 . S
C862 C864 1.391 . S
C863 C862 1.386 . S
C863 C867 1.393 . S
C864 H853 0.950 . S
C864 C862 1.391 . S
C864 C865 1.400 . S
C865 C859 1.491 . S
C865 C864 1.400 . S
C865 C866 1.398 . S
C866 H854 0.950 . S
C866 C865 1.398 . S
C866 C867 1.391 . S
C867 H855 0.950 . S
C867 C863 1.393 . S
C867 C866 1.391 . S
H868 C876 0.950 . S
H869 C881 0.950 . S
H870 C878 0.950 . S
H871 C880 0.950 . S
H872 C882 0.950 . S
H873 C884 0.950 . S
H874 C886 0.950 . S
H875 C887 0.950 . S
C876 H868 0.950 . S
C876 C877 1.386 . S
C876 C878 1.391 . S
C877 C876 1.386 . S
C877 C881 1.393 . S
C878 H870 0.950 . S
C878 C876 1.391 . S
C878 C879 1.400 . S
C879 C878 1.400 . S
C879 C880 1.398 . S
C879 C885 1.491 . S
C880 H871 0.950 . S
C880 C879 1.398 . S
C880 C881 1.391 . S
C881 H869 0.950 . S
C881 C877 1.393 . S
C881 C880 1.391 . S
C882 H872 0.950 . S
C882 C883 1.386 . S
C882 C884 1.391 . S
C883 C882 1.386 . S
C883 C887 1.393 . S
C884 H873 0.950 . S
C884 C882 1.391 . S
C884 C885 1.400 . S
C885 C879 1.491 . S
C885 C884 1.400 . S
C885 C886 1.398 . S
C886 H874 0.950 . S
C886 C885 1.398 . S
C886 C887 1.391 . S
C887 H875 0.950 . S
C887 C883 1.393 . S
C887 C886 1.391 . S
H888 C896 0.950 . S
H889 C901 0.950 . S
H890 C898 0.950 . S
H891 C900 0.950 . S
H892 C902 0.950 . S
H893 C904 0.950 . S
H894 C906 0.950 . S
H895 C907 0.950 . S
C896 H888 0.950 . S
C896 C897 1.386 . S
C896 C898 1.391 . S
C897 C896 1.386 . S
C897 C901 1.393 . S
C898 H890 0.950 . S
C898 C896 1.391 . S
C898 C899 1.400 . S
C899 C898 1.400 . S
C899 C900 1.398 . S
C899 C905 1.491 . S
C900 H891 0.950 . S
C900 C899 1.398 . S
C900 C901 1.391 . S
C901 H889 0.950 . S
C901 C897 1.393 . S
C901 C900 1.391 . S
C902 H892 0.950 . S
C902 C903 1.386 . S
C902 C904 1.391 . S
C903 C902 1.386 . S
C903 C907 1.393 . S
C904 H893 0.950 . S
C904 C902 1.391 . S
C904 C905 1.400 . S
C905 C899 1.491 . S
C905 C904 1.400 . S
C905 C906 1.398 . S
C906 H894 0.950 . S
C906 C905 1.398 . S
C906 C907 1.391 . S
C907 H895 0.950 . S
C907 C903 1.393 . S
C907 C906 1.391 . S
H908 C916 0.950 . S
H909 C921 0.950 . S
H910 C918 0.950 . S
H911 C920 0.950 . S
H912 C922 0.950 . S
H913 C924 0.950 . S
H914 C926 0.950 . S
H915 C927 0.950 . S
C916 H908 0.950 . S
C916 C917 1.386 . S
C916 C918 1.391 . S
C917 C916 1.386 . S
C917 C921 1.393 . S
C918 H910 0.950 . S
C918 C916 1.391 . S
C918 C919 1.400 . S
C919 C918 1.400 . S
C919 C920 1.398 . S
C919 C925 1.491 . S
C920 H911 0.950 . S
C920 C919 1.398 . S
C920 C921 1.391 . S
C921 H909 0.950 . S
C921 C917 1.393 . S
C921 C920 1.391 . S
C922 H912 0.950 . S
C922 C923 1.386 . S
C922 C924 1.391 . S
C923 C922 1.386 . S
C923 C927 1.393 . S
C924 H913 0.950 . S
C924 C922 1.391 . S
C924 C925 1.400 . S
C925 C919 1.491 . S
C925 C924 1.400 . S
C925 C926 1.398 . S
C926 H914 0.950 . S
C926 C925 1.398 . S
C926 C927 1.391 . S
C927 H915 0.950 . S
C927 C923 1.393 . S
C927 C926 1.391 . S
H928 C936 0.950 . S
H929 C941 0.950 . S
H930 C938 0.950 . S
H931 C940 0.950 . S
H932 C942 0.950 . S
H933 C944 0.950 . S
H934 C946 0.950 . S
H935 C947 0.950 . S
C936 H928 0.950 . S
C936 C937 1.386 . S
C936 C938 1.391 . S
C937 C936 1.386 . S
C937 C941 1.393 . S
C938 H930 0.950 . S
C938 C936 1.391 . S
C938 C939 1.400 . S
C939 C938 1.400 . S
C939 C940 1.398 . S
C939 C945 1.491 . S
C940 H931 0.950 . S
C940 C939 1.398 . S
C940 C941 1.391 . S
C941 H929 0.950 . S
C941 C937 1.393 . S
C941 C940 1.391 . S
C942 H932 0.950 . S
C942 C943 1.386 . S
C942 C944 1.391 . S
C943 C942 1.386 . S
C943 C947 1.393 . S
C944 H933 0.950 . S
C944 C942 1.391 . S
C944 C945 1.400 . S
C945 C939 1.491 . S
C945 C944 1.400 . S
C945 C946 1.398 . S
C946 H934 0.950 . S
C946 C945 1.398 . S
C946 C947 1.391 . S
C947 H935 0.950 . S
C947 C943 1.393 . S
C947 C946 1.391 . S
H948 C956 0.950 . S
H949 C961 0.950 . S
H950 C958 0.950 . S
H951 C960 0.950 . S
H952 C962 0.950 . S
H953 C964 0.950 . S
H954 C966 0.950 . S
H955 C967 0.950 . S
C956 H948 0.950 . S
C956 C957 1.386 . S
C956 C958 1.391 . S
C957 C956 1.386 . S
C957 C961 1.393 . S
C958 H950 0.950 . S
C958 C956 1.391 . S
C958 C959 1.400 . S
C959 C958 1.400 . S
C959 C960 1.398 . S
C959 C965 1.491 . S
C960 H951 0.950 . S
C960 C959 1.398 . S
C960 C961 1.391 . S
C961 H949 0.950 . S
C961 C957 1.393 . S
C961 C960 1.391 . S
C962 H952 0.950 . S
C962 C963 1.386 . S
C962 C964 1.391 . S
C963 C962 1.386 . S
C963 C967 1.393 . S
C964 H953 0.950 . S
C964 C962 1.391 . S
C964 C965 1.400 . S
C965 C959 1.491 . S
C965 C964 1.400 . S
C965 C966 1.398 . S
C966 H954 0.950 . S
C966 C965 1.398 . S
C966 C967 1.391 . S
C967 H955 0.950 . S
C967 C963 1.393 . S
C967 C966 1.391 . S
H968 C976 0.950 . S
H969 C981 0.950 . S
H970 C978 0.950 . S
H971 C980 0.950 . S
H972 C982 0.950 . S
H973 C984 0.950 . S
H974 C986 0.950 . S
H975 C987 0.950 . S
C976 H968 0.950 . S
C976 C977 1.386 . S
C976 C978 1.391 . S
C977 C976 1.386 . S
C977 C981 1.393 . S
C978 H970 0.950 . S
C978 C976 1.391 . S
C978 C979 1.400 . S
C979 C978 1.400 . S
C979 C980 1.398 . S
C979 C985 1.491 . S
C980 H971 0.950 . S
C980 C979 1.398 . S
C980 C981 1.391 . S
C981 H969 0.950 . S
C981 C977 1.393 . S
C981 C980 1.391 . S
C982 H972 0.950 . S
C982 C983 1.386 . S
C982 C984 1.391 . S
C983 C982 1.386 . S
C983 C987 1.393 . S
C984 H973 0.950 . S
C984 C982 1.391 . S
C984 C985 1.400 . S
C985 C979 1.491 . S
C985 C984 1.400 . S
C985 C986 1.398 . S
C986 H974 0.950 . S
C986 C985 1.398 . S
C986 C987 1.391 . S
C987 H975 0.950 . S
C987 C983 1.393 . S
C987 C986 1.391 . S
H988 C996 0.950 . S
H989 C1001 0.950 . S
H990 C998 0.950 . S
H991 C1000 0.950 . S
H992 C1002 0.950 . S
H993 C1004 0.950 . S
H994 C1006 0.950 . S
H995 C1007 0.950 . S
C996 H988 0.950 . S
C996 C997 1.386 . S
C996 C998 1.391 . S
C997 C996 1.386 . S
C997 C1001 1.393 . S
C998 H990 0.950 . S
C998 C996 1.391 . S
C998 C999 1.400 . S
C999 C998 1.400 . S
C999 C1000 1.398 . S
C999 C1005 1.491 . S
C1000 H991 0.950 . S
C1000 C999 1.398 . S
C1000 C1001 1.391 . S
C1001 H989 0.950 . S
C1001 C997 1.393 . S
C1001 C1000 1.391 . S
C1002 H992 0.950 . S
C1002 C1003 1.386 . S
C1002 C1004 1.391 . S
C1003 C1002 1.386 . S
C1003 C1007 1.393 . S
C1004 H993 0.950 . S
C1004 C1002 1.391 . S
C1004 C1005 1.400 . S
C1005 C999 1.491 . S
C1005 C1004 1.400 . S
C1005 C1006 1.398 . S
C1006 H994 0.950 . S
C1006 C1005 1.398 . S
C1006 C1007 1.391 . S
C1007 H995 0.950 . S
C1007 C1003 1.393 . S
C1007 C1006 1.391 . S
H1008 C1016 0.950 . S
H1009 C1021 0.950 . S
H1010 C1018 0.950 . S
H1011 C1020 0.950 . S
H1012 C1022 0.950 . S
H1013 C1024 0.950 . S
H1014 C1026 0.950 . S
H1015 C1027 0.950 . S
C1016 H1008 0.950 . S
C1016 C1017 1.386 1_565 S
C1016 C1018 1.391 . S
C1017 C1016 1.386 1_545 S
C1017 C1021 1.393 . S
C1018 H1010 0.950 . S
C1018 C1016 1.391 . S
C1018 C1019 1.400 1_565 S
C1019 C1018 1.400 1_545 S
C1019 C1020 1.398 . S
C1019 C1025 1.491 1_655 S
C1020 H1011 0.950 . S
C1020 C1019 1.398 . S
C1020 C1021 1.391 . S
C1021 H1009 0.950 . S
C1021 C1017 1.393 . S
C1021 C1020 1.391 . S
C1022 H1012 0.950 . S
C1022 C1023 1.386 . S
C1022 C1024 1.391 . S
C1023 C1022 1.386 . S
C1023 C1027 1.393 1_545 S
C1024 H1013 0.950 . S
C1024 C1022 1.391 . S
C1024 C1025 1.400 . S
C1025 C1019 1.491 1_455 S
C1025 C1024 1.400 . S
C1025 C1026 1.398 1_545 S
C1026 H1014 0.950 . S
C1026 C1025 1.398 1_565 S
C1026 C1027 1.391 . S
C1027 H1015 0.950 . S
C1027 C1023 1.393 1_565 S
C1027 C1026 1.391 . S
H1028 C1036 0.950 . S
H1029 C1041 0.950 . S
H1030 C1038 0.950 . S
H1031 C1040 0.950 . S
H1032 C1042 0.950 . S
H1033 C1044 0.950 . S
H1034 C1046 0.950 . S
H1035 C1047 0.950 . S
C1036 H1028 0.950 . S
C1036 C1037 1.386 1_565 S
C1036 C1038 1.391 . S
C1037 C1036 1.386 1_545 S
C1037 C1041 1.393 . S
C1038 H1030 0.950 . S
C1038 C1036 1.391 . S
C1038 C1039 1.400 1_565 S
C1039 C1038 1.400 1_545 S
C1039 C1040 1.398 . S
C1039 C1045 1.491 1_455 S
C1040 H1031 0.950 . S
C1040 C1039 1.398 . S
C1040 C1041 1.391 . S
C1041 H1029 0.950 . S
C1041 C1037 1.393 . S
C1041 C1040 1.391 . S
C1042 H1032 0.950 . S
C1042 C1043 1.386 . S
C1042 C1044 1.391 . S
C1043 C1042 1.386 . S
C1043 C1047 1.393 1_545 S
C1044 H1033 0.950 . S
C1044 C1042 1.391 . S
C1044 C1045 1.400 . S
C1045 C1039 1.491 1_655 S
C1045 C1044 1.400 . S
C1045 C1046 1.398 1_545 S
C1046 H1034 0.950 . S
C1046 C1045 1.398 1_565 S
C1046 C1047 1.391 . S
C1047 H1035 0.950 . S
C1047 C1043 1.393 1_565 S
C1047 C1046 1.391 . S
H1048 C1056 0.950 . S
H1049 C1061 0.950 . S
H1050 C1058 0.950 . S
H1051 C1060 0.950 . S
H1052 C1062 0.950 . S
H1053 C1064 0.950 . S
H1054 C1066 0.950 . S
H1055 C1067 0.950 . S
C1056 H1048 0.950 . S
C1056 C1057 1.386 . S
C1056 C1058 1.391 . S
C1057 C1056 1.386 . S
C1057 C1061 1.393 . S
C1058 H1050 0.950 . S
C1058 C1056 1.391 . S
C1058 C1059 1.400 . S
C1059 C1058 1.400 . S
C1059 C1060 1.398 . S
C1059 C1065 1.491 1_655 S
C1060 H1051 0.950 . S
C1060 C1059 1.398 . S
C1060 C1061 1.391 . S
C1061 H1049 0.950 . S
C1061 C1057 1.393 . S
C1061 C1060 1.391 . S
C1062 H1052 0.950 . S
C1062 C1063 1.386 . S
C1062 C1064 1.391 . S
C1063 C1062 1.386 . S
C1063 C1067 1.393 . S
C1064 H1053 0.950 . S
C1064 C1062 1.391 . S
C1064 C1065 1.400 . S
C1065 C1059 1.491 1_455 S
C1065 C1064 1.400 . S
C1065 C1066 1.398 . S
C1066 H1054 0.950 . S
C1066 C1065 1.398 . S
C1066 C1067 1.391 . S
C1067 H1055 0.950 . S
C1067 C1063 1.393 . S
C1067 C1066 1.391 . S
H1068 C1076 0.950 . S
H1069 C1081 0.950 . S
H1070 C1078 0.950 . S
H1071 C1080 0.950 . S
H1072 C1082 0.950 . S
H1073 C1084 0.950 . S
H1074 C1086 0.950 . S
H1075 C1087 0.950 . S
C1076 H1068 0.950 . S
C1076 C1077 1.386 . S
C1076 C1078 1.391 . S
C1077 C1076 1.386 . S
C1077 C1081 1.393 . S
C1078 H1070 0.950 . S
C1078 C1076 1.391 . S
C1078 C1079 1.400 . S
C1079 C1078 1.400 . S
C1079 C1080 1.398 . S
C1079 C1085 1.491 1_655 S
C1080 H1071 0.950 . S
C1080 C1079 1.398 . S
C1080 C1081 1.391 . S
C1081 H1069 0.950 . S
C1081 C1077 1.393 . S
C1081 C1080 1.391 . S
C1082 H1072 0.950 . S
C1082 C1083 1.386 . S
C1082 C1084 1.391 . S
C1083 C1082 1.386 . S
C1083 C1087 1.393 . S
C1084 H1073 0.950 . S
C1084 C1082 1.391 . S
C1084 C1085 1.400 . S
C1085 C1079 1.491 1_455 S
C1085 C1084 1.400 . S
C1085 C1086 1.398 . S
C1086 H1074 0.950 . S
C1086 C1085 1.398 . S
C1086 C1087 1.391 . S
C1087 H1075 0.950 . S
C1087 C1083 1.393 . S
C1087 C1086 1.391 . S
H1088 C1096 0.950 . S
H1089 C1101 0.950 . S
H1090 C1098 0.950 . S
H1091 C1100 0.950 . S
H1092 C1102 0.950 . S
H1093 C1104 0.950 . S
H1094 C1106 0.950 . S
H1095 C1107 0.950 . S
C1096 H1088 0.950 . S
C1096 C1097 1.386 . S
C1096 C1098 1.391 . S
C1097 C1096 1.386 . S
C1097 C1101 1.393 1_545 S
C1098 H1090 0.950 . S
C1098 C1096 1.391 . S
C1098 C1099 1.400 . S
C1099 C1098 1.400 . S
C1099 C1100 1.398 1_545 S
C1099 C1105 1.491 . S
C1100 H1091 0.950 . S
C1100 C1099 1.398 1_565 S
C1100 C1101 1.391 . S
C1101 H1089 0.950 . S
C1101 C1097 1.393 1_565 S
C1101 C1100 1.391 . S
C1102 H1092 0.950 . S
C1102 C1103 1.386 1_565 S
C1102 C1104 1.391 . S
C1103 C1102 1.386 1_545 S
C1103 C1107 1.393 . S
C1104 H1093 0.950 . S
C1104 C1102 1.391 . S
C1104 C1105 1.400 1_565 S
C1105 C1099 1.491 . S
C1105 C1104 1.400 1_545 S
C1105 C1106 1.398 . S
C1106 H1094 0.950 . S
C1106 C1105 1.398 . S
C1106 C1107 1.391 . S
C1107 H1095 0.950 . S
C1107 C1103 1.393 . S
C1107 C1106 1.391 . S
H1108 C1116 0.950 . S
H1109 C1121 0.950 . S
H1110 C1118 0.950 . S
H1111 C1120 0.950 . S
H1112 C1122 0.950 . S
H1113 C1124 0.950 . S
H1114 C1126 0.950 . S
H1115 C1127 0.950 . S
C1116 H1108 0.950 . S
C1116 C1117 1.386 1_565 S
C1116 C1118 1.391 . S
C1117 C1116 1.386 1_545 S
C1117 C1121 1.393 . S
C1118 H1110 0.950 . S
C1118 C1116 1.391 . S
C1118 C1119 1.400 1_565 S
C1119 C1118 1.400 1_545 S
C1119 C1120 1.398 . S
C1119 C1125 1.491 . S
C1120 H1111 0.950 . S
C1120 C1119 1.398 . S
C1120 C1121 1.391 . S
C1121 H1109 0.950 . S
C1121 C1117 1.393 . S
C1121 C1120 1.391 . S
C1122 H1112 0.950 . S
C1122 C1123 1.386 . S
C1122 C1124 1.391 . S
C1123 C1122 1.386 . S
C1123 C1127 1.393 1_545 S
C1124 H1113 0.950 . S
C1124 C1122 1.391 . S
C1124 C1125 1.400 . S
C1125 C1119 1.491 . S
C1125 C1124 1.400 . S
C1125 C1126 1.398 1_545 S
C1126 H1114 0.950 . S
C1126 C1125 1.398 1_565 S
C1126 C1127 1.391 . S
C1127 H1115 0.950 . S
C1127 C1123 1.393 1_565 S
C1127 C1126 1.391 . S
H1128 C1136 0.950 . S
H1129 C1141 0.950 . S
H1130 C1138 0.950 . S
H1131 C1140 0.950 . S
H1132 C1142 0.950 . S
H1133 C1144 0.950 . S
H1134 C1146 0.950 . S
H1135 C1147 0.950 . S
C1136 H1128 0.950 . S
C1136 C1137 1.386 . S
C1136 C1138 1.391 . S
C1137 C1136 1.386 . S
C1137 C1141 1.393 . S
C1138 H1130 0.950 . S
C1138 C1136 1.391 . S
C1138 C1139 1.400 . S
C1139 C1138 1.400 . S
C1139 C1140 1.398 . S
C1139 C1145 1.491 . S
C1140 H1131 0.950 . S
C1140 C1139 1.398 . S
C1140 C1141 1.391 . S
C1141 H1129 0.950 . S
C1141 C1137 1.393 . S
C1141 C1140 1.391 . S
C1142 H1132 0.950 . S
C1142 C1143 1.386 . S
C1142 C1144 1.391 . S
C1143 C1142 1.386 . S
C1143 C1147 1.393 . S
C1144 H1133 0.950 . S
C1144 C1142 1.391 . S
C1144 C1145 1.400 . S
C1145 C1139 1.491 . S
C1145 C1144 1.400 . S
C1145 C1146 1.398 . S
C1146 H1134 0.950 . S
C1146 C1145 1.398 . S
C1146 C1147 1.391 . S
C1147 H1135 0.950 . S
C1147 C1143 1.393 . S
C1147 C1146 1.391 . S
H1148 C1156 0.950 . S
H1149 C1161 0.950 . S
H1150 C1158 0.950 . S
H1151 C1160 0.950 . S
H1152 C1162 0.950 . S
H1153 C1164 0.950 . S
H1154 C1166 0.950 . S
H1155 C1167 0.950 . S
C1156 H1148 0.950 . S
C1156 C1157 1.386 . S
C1156 C1158 1.391 . S
C1157 C1156 1.386 . S
C1157 C1161 1.393 . S
C1158 H1150 0.950 . S
C1158 C1156 1.391 . S
C1158 C1159 1.400 . S
C1159 C1158 1.400 . S
C1159 C1160 1.398 . S
C1159 C1165 1.491 . S
C1160 H1151 0.950 . S
C1160 C1159 1.398 . S
C1160 C1161 1.391 . S
C1161 H1149 0.950 . S
C1161 C1157 1.393 . S
C1161 C1160 1.391 . S
C1162 H1152 0.950 . S
C1162 C1163 1.386 . S
C1162 C1164 1.391 . S
C1163 C1162 1.386 . S
C1163 C1167 1.393 . S
C1164 H1153 0.950 . S
C1164 C1162 1.391 . S
C1164 C1165 1.400 . S
C1165 C1159 1.491 . S
C1165 C1164 1.400 . S
C1165 C1166 1.398 . S
C1166 H1154 0.950 . S
C1166 C1165 1.398 . S
C1166 C1167 1.391 . S
C1167 H1155 0.950 . S
C1167 C1163 1.393 . S
C1167 C1166 1.391 . S
H1168 C1176 0.950 . S
H1169 C1181 0.950 . S
H1170 C1178 0.950 . S
H1171 C1180 0.950 . S
H1172 C1182 0.950 . S
H1173 C1184 0.950 . S
H1174 C1186 0.950 . S
H1175 C1187 0.950 . S
C1176 H1168 0.950 . S
C1176 C1177 1.386 . S
C1176 C1178 1.391 . S
C1177 C1176 1.386 . S
C1177 C1181 1.393 1_545 S
C1178 H1170 0.950 . S
C1178 C1176 1.391 . S
C1178 C1179 1.400 . S
C1179 C1178 1.400 . S
C1179 C1180 1.398 1_545 S
C1179 C1185 1.491 1_556 S
C1180 H1171 0.950 . S
C1180 C1179 1.398 1_565 S
C1180 C1181 1.391 . S
C1181 H1169 0.950 . S
C1181 C1177 1.393 1_565 S
C1181 C1180 1.391 . S
C1182 H1172 0.950 . S
C1182 C1183 1.386 1_565 S
C1182 C1184 1.391 . S
C1183 C1182 1.386 1_545 S
C1183 C1187 1.393 . S
C1184 H1173 0.950 . S
C1184 C1182 1.391 . S
C1184 C1185 1.400 1_565 S
C1185 C1179 1.491 1_554 S
C1185 C1184 1.400 1_545 S
C1185 C1186 1.398 . S
C1186 H1174 0.950 . S
C1186 C1185 1.398 . S
C1186 C1187 1.391 . S
C1187 H1175 0.950 . S
C1187 C1183 1.393 . S
C1187 C1186 1.391 . S
H1188 C1196 0.950 . S
H1189 C1201 0.950 . S
H1190 C1198 0.950 . S
H1191 C1200 0.950 . S
H1192 C1202 0.950 . S
H1193 C1204 0.950 . S
H1194 C1206 0.950 . S
H1195 C1207 0.950 . S
C1196 H1188 0.950 . S
C1196 C1197 1.386 . S
C1196 C1198 1.391 . S
C1197 C1196 1.386 . S
C1197 C1201 1.393 . S
C1198 H1190 0.950 . S
C1198 C1196 1.391 . S
C1198 C1199 1.400 . S
C1199 C1198 1.400 . S
C1199 C1200 1.398 . S
C1199 C1205 1.491 1_556 S
C1200 H1191 0.950 . S
C1200 C1199 1.398 . S
C1200 C1201 1.391 . S
C1201 H1189 0.950 . S
C1201 C1197 1.393 . S
C1201 C1200 1.391 . S
C1202 H1192 0.950 . S
C1202 C1203 1.386 . S
C1202 C1204 1.391 . S
C1203 C1202 1.386 . S
C1203 C1207 1.393 . S
C1204 H1193 0.950 . S
C1204 C1202 1.391 . S
C1204 C1205 1.400 . S
C1205 C1199 1.491 1_554 S
C1205 C1204 1.400 . S
C1205 C1206 1.398 . S
C1206 H1194 0.950 . S
C1206 C1205 1.398 . S
C1206 C1207 1.391 . S
C1207 H1195 0.950 . S
C1207 C1203 1.393 . S
C1207 C1206 1.391 . S
H1208 C1216 0.950 . S
H1209 C1221 0.950 . S
H1210 C1218 0.950 . S
H1211 C1220 0.950 . S
H1212 C1222 0.950 . S
H1213 C1224 0.950 . S
H1214 C1226 0.950 . S
H1215 C1227 0.950 . S
C1216 H1208 0.950 . S
C1216 C1217 1.386 . S
C1216 C1218 1.391 . S
C1217 C1216 1.386 . S
C1217 C1221 1.393 . S
C1218 H1210 0.950 . S
C1218 C1216 1.391 . S
C1218 C1219 1.400 . S
C1219 C1218 1.400 . S
C1219 C1220 1.398 . S
C1219 C1225 1.491 . S
C1220 H1211 0.950 . S
C1220 C1219 1.398 . S
C1220 C1221 1.391 . S
C1221 H1209 0.950 . S
C1221 C1217 1.393 . S
C1221 C1220 1.391 . S
C1222 H1212 0.950 . S
C1222 C1223 1.386 . S
C1222 C1224 1.391 . S
C1223 C1222 1.386 . S
C1223 C1227 1.393 . S
C1224 H1213 0.950 . S
C1224 C1222 1.391 . S
C1224 C1225 1.400 . S
C1225 C1219 1.491 . S
C1225 C1224 1.400 . S
C1225 C1226 1.398 . S
C1226 H1214 0.950 . S
C1226 C1225 1.398 . S
C1226 C1227 1.391 . S
C1227 H1215 0.950 . S
C1227 C1223 1.393 . S
C1227 C1226 1.391 . S
H1228 C1236 0.950 . S
H1229 C1241 0.950 . S
H1230 C1238 0.950 . S
H1231 C1240 0.950 . S
H1232 C1242 0.950 . S
H1233 C1244 0.950 . S
H1234 C1246 0.950 . S
H1235 C1247 0.950 . S
C1236 H1228 0.950 . S
C1236 C1237 1.386 . S
C1236 C1238 1.391 . S
C1237 C1236 1.386 . S
C1237 C1241 1.393 . S
C1238 H1230 0.950 . S
C1238 C1236 1.391 . S
C1238 C1239 1.400 . S
C1239 C1238 1.400 . S
C1239 C1240 1.398 . S
C1239 C1245 1.491 . S
C1240 H1231 0.950 . S
C1240 C1239 1.398 . S
C1240 C1241 1.391 . S
C1241 H1229 0.950 . S
C1241 C1237 1.393 . S
C1241 C1240 1.391 . S
C1242 H1232 0.950 . S
C1242 C1243 1.386 . S
C1242 C1244 1.391 . S
C1243 C1242 1.386 . S
C1243 C1247 1.393 . S
C1244 H1233 0.950 . S
C1244 C1242 1.391 . S
C1244 C1245 1.400 . S
C1245 C1239 1.491 . S
C1245 C1244 1.400 . S
C1245 C1246 1.398 . S
C1246 H1234 0.950 . S
C1246 C1245 1.398 . S
C1246 C1247 1.391 . S
C1247 H1235 0.950 . S
C1247 C1243 1.393 . S
C1247 C1246 1.391 . S
H1248 C1256 0.950 . S
H1249 C1261 0.950 . S
H1250 C1258 0.950 . S
H1251 C1260 0.950 . S
H1252 C1262 0.950 . S
H1253 C1264 0.950 . S
H1254 C1266 0.950 . S
H1255 C1267 0.950 . S
C1256 H1248 0.950 . S
C1256 C1257 1.386 . S
C1256 C1258 1.391 . S
C1257 C1256 1.386 . S
C1257 C1261 1.393 1_545 S
C1258 H1250 0.950 . S
C1258 C1256 1.391 . S
C1258 C1259 1.400 . S
C1259 C1258 1.400 . S
C1259 C1260 1.398 1_545 S
C1259 C1265 1.491 . S
C1260 H1251 0.950 . S
C1260 C1259 1.398 1_565 S
C1260 C1261 1.391 . S
C1261 H1249 0.950 . S
C1261 C1257 1.393 1_565 S
C1261 C1260 1.391 . S
C1262 H1252 0.950 . S
C1262 C1263 1.386 1_565 S
C1262 C1264 1.391 . S
C1263 C1262 1.386 1_545 S
C1263 C1267 1.393 . S
C1264 H1253 0.950 . S
C1264 C1262 1.391 . S
C1264 C1265 1.400 1_565 S
C1265 C1259 1.491 . S
C1265 C1264 1.400 1_545 S
C1265 C1266 1.398 . S
C1266 H1254 0.950 . S
C1266 C1265 1.398 . S
C1266 C1267 1.391 . S
C1267 H1255 0.950 . S
C1267 C1263 1.393 . S
C1267 C1266 1.391 . S
H1268 C1276 0.950 . S
H1269 C1281 0.950 . S
H1270 C1278 0.950 . S
H1271 C1280 0.950 . S
H1272 C1282 0.950 . S
H1273 C1284 0.950 . S
H1274 C1286 0.950 . S
H1275 C1287 0.950 . S
C1276 H1268 0.950 . S
C1276 C1277 1.386 . S
C1276 C1278 1.391 . S
C1277 C1276 1.386 . S
C1277 C1281 1.393 1_545 S
C1278 H1270 0.950 . S
C1278 C1276 1.391 . S
C1278 C1279 1.400 . S
C1279 C1278 1.400 . S
C1279 C1280 1.398 1_545 S
C1279 C1285 1.491 . S
C1280 H1271 0.950 . S
C1280 C1279 1.398 1_565 S
C1280 C1281 1.391 . S
C1281 H1269 0.950 . S
C1281 C1277 1.393 1_565 S
C1281 C1280 1.391 . S
C1282 H1272 0.950 . S
C1282 C1283 1.386 1_565 S
C1282 C1284 1.391 . S
C1283 C1282 1.386 1_545 S
C1283 C1287 1.393 . S
C1284 H1273 0.950 . S
C1284 C1282 1.391 . S
C1284 C1285 1.400 1_565 S
C1285 C1279 1.491 . S
C1285 C1284 1.400 1_545 S
C1285 C1286 1.398 . S
C1286 H1274 0.950 . S
C1286 C1285 1.398 . S
C1286 C1287 1.391 . S
C1287 H1275 0.950 . S
C1287 C1283 1.393 . S
C1287 C1286 1.391 . S
H1288 C1296 0.950 . S
H1289 C1301 0.950 . S
H1290 C1298 0.950 . S
H1291 C1300 0.950 . S
H1292 C1302 0.950 . S
H1293 C1304 0.950 . S
H1294 C1306 0.950 . S
H1295 C1307 0.950 . S
C1296 H1288 0.950 . S
C1296 C1297 1.386 . S
C1296 C1298 1.391 . S
C1297 C1296 1.386 . S
C1297 C1301 1.393 . S
C1298 H1290 0.950 . S
C1298 C1296 1.391 . S
C1298 C1299 1.400 . S
C1299 C1298 1.400 . S
C1299 C1300 1.398 . S
C1299 C1305 1.491 1_554 S
C1300 H1291 0.950 . S
C1300 C1299 1.398 . S
C1300 C1301 1.391 . S
C1301 H1289 0.950 . S
C1301 C1297 1.393 . S
C1301 C1300 1.391 . S
C1302 H1292 0.950 . S
C1302 C1303 1.386 . S
C1302 C1304 1.391 . S
C1303 C1302 1.386 . S
C1303 C1307 1.393 . S
C1304 H1293 0.950 . S
C1304 C1302 1.391 . S
C1304 C1305 1.400 . S
C1305 C1299 1.491 1_556 S
C1305 C1304 1.400 . S
C1305 C1306 1.398 . S
C1306 H1294 0.950 . S
C1306 C1305 1.398 . S
C1306 C1307 1.391 . S
C1307 H1295 0.950 . S
C1307 C1303 1.393 . S
C1307 C1306 1.391 . S
H1308 C1316 0.950 . S
H1309 C1321 0.950 . S
H1310 C1318 0.950 . S
H1311 C1320 0.950 . S
H1312 C1322 0.950 . S
H1313 C1324 0.950 . S
H1314 C1326 0.950 . S
H1315 C1327 0.950 . S
C1316 H1308 0.950 . S
C1316 C1317 1.386 . S
C1316 C1318 1.391 . S
C1317 C1316 1.386 . S
C1317 C1321 1.393 . S
C1318 H1310 0.950 . S
C1318 C1316 1.391 . S
C1318 C1319 1.400 . S
C1319 C1318 1.400 . S
C1319 C1320 1.398 . S
C1319 C1325 1.491 1_556 S
C1320 H1311 0.950 . S
C1320 C1319 1.398 . S
C1320 C1321 1.391 . S
C1321 H1309 0.950 . S
C1321 C1317 1.393 . S
C1321 C1320 1.391 . S
C1322 H1312 0.950 . S
C1322 C1323 1.386 . S
C1322 C1324 1.391 . S
C1323 C1322 1.386 . S
C1323 C1327 1.393 . S
C1324 H1313 0.950 . S
C1324 C1322 1.391 . S
C1324 C1325 1.400 . S
C1325 C1319 1.491 1_554 S
C1325 C1324 1.400 . S
C1325 C1326 1.398 . S
C1326 H1314 0.950 . S
C1326 C1325 1.398 . S
C1326 C1327 1.391 . S
C1327 H1315 0.950 . S
C1327 C1323 1.393 . S
C1327 C1326 1.391 . S
C537 N13 1.570 . S
C543 N376 1.549 . S
C557 N46 1.559 1_565 S
C563 N343 1.546 1_565 S
C577 N310 1.570 1_565 S
C583 N79 1.550 1_565 S
C597 N277 1.569 . S
C603 N112 1.553 . S
C617 N145 1.569 . S
C623 N508 1.552 . S
C637 N178 1.569 . S
C643 N475 1.555 . S
C657 N442 1.555 . S
C663 N211 1.569 . S
C677 N409 1.546 . S
C683 N244 1.560 . S
C697 C18 1.019 . S
C703 C447 1.019 . S
C717 C414 1.025 . S
C723 C51 1.025 . S
C737 C84 1.023 . S
C743 C513 1.022 . S
C757 C480 1.024 . S
C763 C117 1.023 . S
C777 C106 1.633 . S
C783 C469 1.635 . S
C797 C502 1.639 . S
C803 C73 1.640 . S
C817 C403 1.639 . S
C823 C40 1.639 . S
C837 C7 1.638 . S
C843 C436 1.637 . S
C857 C150 1.032 . S
C863 C315 1.032 . S
C877 C183 1.020 . S
C883 C282 1.020 . S
C897 C216 1.022 . S
C903 C381 1.021 . S
C917 C249 1.022 . S
C923 C348 1.021 . S
C937 C238 1.637 . S
C943 C337 1.638 . S
C957 C205 1.637 . S
C963 C370 1.638 . S
C977 C172 1.635 . S
C983 C271 1.633 . S
C997 C139 1.633 . S
C1003 C304 1.631 . S
C1017 C54 1.490 . S
C1023 C21 1.494 . S
C1037 C87 1.490 . S
C1043 C120 1.494 . S
C1057 C186 1.491 . S
C1063 C153 1.493 . S
C1077 C252 1.491 . S
C1083 C219 1.493 . S
C1097 C318 1.494 . S
C1103 C285 1.490 . S
C1117 C384 1.494 . S
C1123 C351 1.490 . S
C1137 C417 1.493 . S
C1143 C450 1.491 . S
C1157 C516 1.493 . S
C1163 C483 1.491 . S
C1177 N68 1.487 . S
C1183 N2 1.479 . S
C1197 N101 1.473 . S
C1203 N35 1.474 . S
C1217 N134 1.477 . S
C1223 N200 1.484 . S
C1237 N233 1.481 . S
C1243 N167 1.490 . S
C1257 N266 1.475 . S
C1263 N332 1.482 . S
C1277 N365 1.481 . S
C1283 N299 1.489 . S
C1297 N398 1.486 . S
C1303 N464 1.478 . S
C1317 N497 1.474 . S
C1323 N431 1.473 . S
