# Generated by pormake.
# Topology smk, (6)-cn, num edge types: 1
# Building blocks:
#     Node 0, Type 0, BuildingBlock: IZENUY_clean_sbu_0, # of connection points: 6
#     Node 1, Type 0, BuildingBlock: IZENUY_clean_sbu_0, # of connection points: 6
#     Node 2, Type 0, BuildingBlock: IZENUY_clean_sbu_0, # of connection points: 6
#     Node 3, Type 0, BuildingBlock: IZENUY_clean_sbu_0, # of connection points: 6
#     Node 4, Type 0, BuildingBlock: IZENUY_clean_sbu_0, # of connection points: 6
#     Node 5, Type 0, BuildingBlock: IZENUY_clean_sbu_0, # of connection points: 6
#     Edge 6, Type (0, 0), BuildingBlock: XUDNAN_clean_linker_2, # of connection points: 2
#     Edge 7, Type (0, 0), BuildingBlock: XUDNAN_clean_linker_2, # of connection points: 2
#     Edge 8, Type (0, 0), BuildingBlock: XUDNAN_clean_linker_2, # of connection points: 2
#     Edge 9, Type (0, 0), BuildingBlock: XUDNAN_clean_linker_2, # of connection points: 2
#     Edge 10, Type (0, 0), BuildingBlock: XUDNAN_clean_linker_2, # of connection points: 2
#     Edge 11, Type (0, 0), BuildingBlock: XUDNAN_clean_linker_2, # of connection points: 2
#     Edge 12, Type (0, 0), BuildingBlock: XUDNAN_clean_linker_2, # of connection points: 2
#     Edge 13, Type (0, 0), BuildingBlock: XUDNAN_clean_linker_2, # of connection points: 2
#     Edge 14, Type (0, 0), BuildingBlock: XUDNAN_clean_linker_2, # of connection points: 2
#     Edge 15, Type (0, 0), BuildingBlock: XUDNAN_clean_linker_2, # of connection points: 2
#     Edge 16, Type (0, 0), BuildingBlock: XUDNAN_clean_linker_2, # of connection points: 2
#     Edge 17, Type (0, 0), BuildingBlock: XUDNAN_clean_linker_2, # of connection points: 2
#     Edge 18, Type (0, 0), BuildingBlock: XUDNAN_clean_linker_2, # of connection points: 2
#     Edge 19, Type (0, 0), BuildingBlock: XUDNAN_clean_linker_2, # of connection points: 2
#     Edge 20, Type (0, 0), BuildingBlock: XUDNAN_clean_linker_2, # of connection points: 2
#     Edge 21, Type (0, 0), BuildingBlock: XUDNAN_clean_linker_2, # of connection points: 2
#     Edge 22, Type (0, 0), BuildingBlock: XUDNAN_clean_linker_2, # of connection points: 2
#     Edge 23, Type (0, 0), BuildingBlock: XUDNAN_clean_linker_2, # of connection points: 2
# Relax obj value: 0.171
# Max RMSD: 0.207
# Mean RMSD: 0.207
data_MOF--net-smk--node1-IZENUY_clean_sbu_0--edge1-XUDNAN_clean_linker_2
_symmetry_space_group_name_H-M    P1
_symmetry_Int_Tables_number       1
_symmetry_cell_setting            triclinic
loop_
_symmetry_equiv_pos_as_xyz
'x, y, z'
_cell_length_a     41.920016
_cell_length_b     41.851739
_cell_length_c     15.327236
_cell_angle_alpha  90.02863
_cell_angle_beta   89.90785
_cell_angle_gamma 119.87119
loop_
_atom_site_label
_atom_site_type_symbol
_atom_site_fract_x
_atom_site_fract_y
_atom_site_fract_z
_atom_type_partial_charge
Fe0 Fe 0.47464 0.2627 0.66626 0.0
Fe1 Fe 0.40137 0.20679 0.58136 0.0
O2 O 0.45032 0.23084 0.58256 0.0
Fe3 Fe 0.47545 0.22328 0.50073 0.0
O4 O 0.4968 0.2078 0.57937 0.0
O5 O 0.5146 0.25515 0.66632 0.0
O6 O 0.45398 0.22685 0.74688 0.0
C7 C 0.41992 0.209 0.76234 0.0
C8 C 0.51625 0.30066 0.52721 0.0
O9 O 0.39684 0.20458 0.70278 0.0
C10 C 0.42141 0.22176 0.40058 0.0
O11 O 0.43963 0.27625 0.68341 0.0
O12 O 0.39989 0.24973 0.57727 0.0
O13 O 0.51468 0.2711 0.50129 0.0
O14 O 0.49626 0.3002 0.58912 0.0
C15 C 0.41531 0.15166 0.53341 0.0
O16 O 0.39771 0.20457 0.46009 0.0
O17 O 0.45528 0.23781 0.41752 0.0
C18 C 0.41399 0.27416 0.6358 0.0
O19 O 0.39901 0.16216 0.58558 0.0
O20 O 0.44127 0.17443 0.48521 0.0
C21 C 0.51645 0.22726 0.64129 0.0
Fe22 Fe 0.2253 0.47033 0.84282 0.0
Fe23 Fe 0.20726 0.39485 0.76907 0.0
O24 O 0.23339 0.4437 0.76615 0.0
Fe25 Fe 0.26811 0.46632 0.68636 0.0
O26 O 0.30332 0.48704 0.76893 0.0
O27 O 0.27381 0.50815 0.84704 0.0
O28 O 0.23596 0.44946 0.93232 0.0
C29 C 0.21882 0.4155 0.94942 0.0
C30 C 0.23506 0.51115 0.69742 0.0
O31 O 0.20194 0.39188 0.88973 0.0
C32 C 0.21474 0.41267 0.58706 0.0
O33 O 0.17565 0.4378 0.85269 0.0
O34 O 0.16408 0.39455 0.75556 0.0
O35 O 0.26276 0.5078 0.6785 0.0
O36 O 0.21363 0.49236 0.75783 0.0
C37 C 0.27514 0.40439 0.73186 0.0
O38 O 0.20796 0.38947 0.64822 0.0
O39 O 0.23477 0.44669 0.60065 0.0
C40 C 0.1533 0.41161 0.80436 0.0
O41 O 0.24841 0.39161 0.78417 0.0
O42 O 0.28007 0.42934 0.67774 0.0
C43 C 0.30319 0.50795 0.82779 0.0
Fe44 Fe 0.83228 0.20705 0.91574 0.0
Fe45 Fe 0.81279 0.26479 0.848 0.0
O46 O 0.80456 0.22821 0.91966 0.0
Fe47 Fe 0.76781 0.21239 0.99534 0.0
O48 O 0.79921 0.22511 0.08483 0.0
O49 O 0.83021 0.19898 0.03613 0.0
O50 O 0.87432 0.25025 0.93477 0.0
C51 C 0.88514 0.27917 0.89015 0.0
C52 C 0.76504 0.14614 0.94381 0.0
O53 O 0.86295 0.28417 0.84394 0.0
C54 C 0.73464 0.22161 0.85343 0.0
O55 O 0.83927 0.21182 0.79587 0.0
O56 O 0.80597 0.2364 0.75363 0.0
O57 O 0.75795 0.16428 0.99869 0.0
O58 O 0.79262 0.16207 0.89454 0.0
C59 C 0.79674 0.28976 0.99598 0.0
O60 O 0.76386 0.25193 0.83878 0.0
O61 O 0.73432 0.19906 0.90849 0.0
C62 C 0.82341 0.21984 0.73615 0.0
O63 O 0.82028 0.29607 0.93748 0.0
O64 O 0.77052 0.25735 0.00917 0.0
C65 C 0.82117 0.21334 0.09798 0.0
Fe66 Fe 0.64237 0.82437 0.08216 0.0
Fe67 Fe 0.56705 0.80411 1.00314 0.0
O68 O 0.59354 0.79782 0.08345 0.0
Fe69 Fe 0.57067 0.76456 0.16543 0.0
O70 O 0.58917 0.79969 0.24814 0.0
O71 O 0.64675 0.82626 0.20344 0.0
O72 O 0.64185 0.86766 0.08794 0.0
C73 C 0.62602 0.87731 0.0325 0.0
C74 C 0.63409 0.75825 0.13362 0.0
O75 O 0.5996 0.85344 0.98733 0.0
C76 C 0.52956 0.72637 0.02627 0.0
O77 O 0.64598 0.82709 0.96082 0.0
O78 O 0.58865 0.79177 0.91853 0.0
O79 O 0.60769 0.754 0.18154 0.0
O80 O 0.64704 0.78321 0.07624 0.0
C81 C 0.52391 0.79487 0.14294 0.0
O82 O 0.5297 0.75549 1.00248 0.0
O83 O 0.55091 0.7276 0.08583 0.0
C84 C 0.62255 0.80928 0.90136 0.0
O85 O 0.54356 0.8169 0.08398 0.0
O86 O 0.52911 0.7688 0.16593 0.0
C87 C 0.62308 0.81976 0.26327 0.0
Fe88 Fe 0.83951 0.63436 0.26743 0.0
Fe89 Fe 0.77596 0.5639 0.18836 0.0
O90 O 0.81072 0.58578 0.26763 0.0
Fe91 Fe 0.81633 0.5589 0.34806 0.0
O92 O 0.80579 0.58202 0.43256 0.0
O93 O 0.84433 0.63836 0.38837 0.0
O94 O 0.80033 0.64102 0.28012 0.0
C95 C 0.77319 0.62863 0.22926 0.0
C96 C 0.89016 0.61519 0.31273 0.0
O97 O 0.76636 0.60241 0.17723 0.0
C98 C 0.80481 0.51523 0.20787 0.0
O99 O 0.83934 0.63893 0.14642 0.0
O100 O 0.80948 0.58132 0.10255 0.0
O101 O 0.86608 0.59024 0.36109 0.0
O102 O 0.88086 0.63084 0.25601 0.0
C103 C 0.73878 0.52335 0.32954 0.0
O104 O 0.77926 0.52137 0.18465 0.0
O105 O 0.82697 0.53416 0.26723 0.0
C106 C 0.83012 0.61498 0.08617 0.0
O107 O 0.74012 0.54496 0.27066 0.0
O108 O 0.76749 0.52249 0.35125 0.0
C109 C 0.82469 0.61604 0.44812 0.0
Fe110 Fe 0.2185 0.82979 0.42296 0.0
Fe111 Fe 0.22303 0.76463 0.34543 0.0
O112 O 0.23968 0.80212 0.41894 0.0
Fe113 Fe 0.2771 0.81094 0.48788 0.0
O114 O 0.25012 0.80531 0.58439 0.0
O115 O 0.22397 0.8373 0.54248 0.0
O116 O 0.17374 0.79015 0.44655 0.0
C117 C 0.15757 0.76234 0.39815 0.0
C118 C 0.2906 0.88322 0.44481 0.0
O119 O 0.17534 0.75527 0.34248 0.0
C120 C 0.29988 0.79244 0.34017 0.0
O121 O 0.20994 0.82705 0.3026 0.0
O122 O 0.23553 0.79538 0.25441 0.0
O123 O 0.29664 0.86128 0.48946 0.0
O124 O 0.2613 0.87191 0.40189 0.0
C125 C 0.23317 0.73241 0.48773 0.0
O126 O 0.26723 0.7663 0.33151 0.0
O127 O 0.30714 0.8174 0.39556 0.0
C128 C 0.22402 0.81758 0.24083 0.0
O129 O 0.21007 0.73207 0.43438 0.0
O130 O 0.26385 0.76168 0.49978 0.0
C131 C 0.23303 0.82223 0.60212 0.0
H132 H 0.46687 0.23449 0.26299 0.0
H133 H 0.35244 0.19637 0.32511 0.0
H134 H 0.33717 0.18521 0.16698 0.0
H135 H 0.47228 0.28035 0.0645 0.0
H136 H 0.5023 0.26634 0.01442 0.0
H137 H 0.5028 0.27192 0.13085 0.0
H138 H 0.48966 0.20487 0.15111 0.0
H139 H 0.48855 0.1989 0.03463 0.0
H140 H 0.44976 0.16748 0.10021 0.0
H141 H 0.33665 0.18081 0.99528 0.0
H142 H 0.35076 0.18341 0.83689 0.0
H143 H 0.46452 0.21911 0.90023 0.0
C144 C 0.43851 0.22417 0.24416 0.0
C145 C 0.41093 0.21683 0.30679 0.0
C146 C 0.37414 0.20256 0.2783 0.0
C147 C 0.36525 0.19602 0.18868 0.0
C148 C 0.39336 0.20325 0.12895 0.0
C149 C 0.4292 0.21684 0.15648 0.0
C150 C 0.45475 0.2218 0.08191 0.0
C151 C 0.48478 0.26251 0.07236 0.0
C152 C 0.47165 0.19676 0.09264 0.0
C153 C 0.42801 0.2094 1.00697 0.0
C154 C 0.39268 0.19892 0.0342 0.0
C155 C 0.36418 0.18857 0.97387 0.0
C156 C 0.37238 0.1899 0.88399 0.0
C157 C 0.40872 0.20125 0.8556 0.0
C158 C 0.43634 0.21004 0.91885 0.0
H159 H 0.21832 0.45607 0.45233 0.0
H160 H 0.19135 0.34402 0.51156 0.0
H161 H 0.18596 0.3301 0.35266 0.0
H162 H 0.16097 0.43716 0.25945 0.0
H163 H 0.19522 0.47854 0.20613 0.0
H164 H 0.19158 0.47694 0.32331 0.0
H165 H 0.26053 0.49597 0.33457 0.0
H166 H 0.26428 0.49706 0.21762 0.0
H167 H 0.27684 0.46858 0.2803 0.0
H168 H 0.18797 0.33115 0.18138 0.0
H169 H 0.19726 0.34705 0.02334 0.0
H170 H 0.22721 0.45955 0.08728 0.0
C171 C 0.2106 0.42828 0.43258 0.0
C172 C 0.20518 0.40111 0.49467 0.0
C173 C 0.19526 0.36521 0.46529 0.0
C174 C 0.19234 0.35717 0.37512 0.0
C175 C 0.19941 0.38532 0.31564 0.0
C176 C 0.20816 0.4201 0.34401 0.0
C177 C 0.21729 0.4467 0.26928 0.0
C178 C 0.1896 0.46063 0.26425 0.0
C179 C 0.25709 0.47895 0.27588 0.0
C180 C 0.21283 0.4218 0.19366 0.0
C181 C 0.20206 0.38632 0.22053 0.0
C182 C 0.19639 0.3589 0.16014 0.0
C183 C 0.2018 0.36815 0.0706 0.0
C184 C 0.21343 0.40464 0.04284 0.0
C185 C 0.21887 0.43149 0.10586 0.0
H186 H 0.81719 0.25378 0.23063 0.0
H187 H 0.8472 0.1705 0.1753 0.0
H188 H 0.85473 0.16453 0.33452 0.0
H189 H 0.87682 0.29628 0.41827 0.0
H190 H 0.84263 0.3032 0.47291 0.0
H191 H 0.84457 0.30344 0.3555 0.0
H192 H 0.77607 0.25227 0.35057 0.0
H193 H 0.77393 0.25141 0.46777 0.0
H194 H 0.76157 0.20967 0.40832 0.0
H195 H 0.85431 0.16567 0.50557 0.0
H196 H 0.84627 0.17381 0.66336 0.0
H197 H 0.81304 0.25373 0.5968 0.0
C198 C 0.82593 0.23459 0.25131 0.0
C199 C 0.83161 0.21259 0.19027 0.0
C200 C 0.84303 0.18791 0.22074 0.0
C201 C 0.84717 0.18424 0.3111 0.0
C202 C 0.8399 0.20555 0.36961 0.0
C203 C 0.82974 0.23039 0.34009 0.0
C204 C 0.82099 0.24854 0.4142 0.0
C205 C 0.84787 0.29034 0.41527 0.0
C206 C 0.78076 0.23993 0.40992 0.0
C207 C 0.82718 0.22975 0.49089 0.0
C208 C 0.83852 0.20533 0.46489 0.0
C209 C 0.84553 0.18483 0.52613 0.0
C210 C 0.84084 0.18956 0.61559 0.0
C211 C 0.82869 0.21414 0.64266 0.0
C212 C 0.82197 0.23438 0.57881 0.0
H213 H 0.57803 0.80894 0.40101 0.0
H214 H 0.69255 0.84831 0.33721 0.0
H215 H 0.70698 0.85244 0.49547 0.0
H216 H 0.59167 0.86178 0.59948 0.0
H217 H 0.55236 0.824 0.65131 0.0
H218 H 0.55329 0.82928 0.53461 0.0
H219 H 0.54147 0.76261 0.51625 0.0
H220 H 0.54117 0.75735 0.63272 0.0
H221 H 0.57244 0.74991 0.56643 0.0
H222 H 0.70679 0.8486 0.66686 0.0
H223 H 0.69179 0.83711 0.82515 0.0
H224 H 0.57667 0.79554 0.76448 0.0
C225 C 0.6064 0.81914 0.4196 0.0
C226 C 0.63417 0.82847 0.35626 0.0
C227 C 0.67081 0.84137 0.3844 0.0
C228 C 0.6792 0.8436 0.47422 0.0
C229 C 0.65063 0.83271 0.53477 0.0
C230 C 0.61499 0.82087 0.50781 0.0
C231 C 0.58835 0.80809 0.58325 0.0
C232 C 0.57038 0.83224 0.59271 0.0
C233 C 0.55916 0.76707 0.57407 0.0
C234 C 0.61428 0.8142 0.65753 0.0
C235 C 0.65023 0.82884 0.62958 0.0
C236 C 0.67864 0.83703 0.68893 0.0
C237 C 0.66991 0.83029 0.77863 0.0
C238 C 0.63301 0.81489 0.80753 0.0
C239 C 0.60515 0.80674 0.7453 0.0
H240 H 0.78692 0.57313 0.5857 0.0
H241 H 0.87258 0.6842 0.52184 0.0
H242 H 0.8834 0.69848 0.68023 0.0
H243 H 0.75158 0.59361 0.78004 0.0
H244 H 0.74427 0.55212 0.83341 0.0
H245 H 0.74139 0.55338 0.71642 0.0
H246 H 0.79043 0.53306 0.70239 0.0
H247 H 0.79391 0.53229 0.81919 0.0
H248 H 0.83447 0.55998 0.75458 0.0
H249 H 0.88543 0.69816 0.85224 0.0
H250 H 0.87866 0.68293 0.01085 0.0
H251 H 0.79509 0.57079 0.94873 0.0
C252 C 0.80766 0.60078 0.60421 0.0
C253 C 0.82879 0.62758 0.54099 0.0
C254 C 0.85577 0.66326 0.56905 0.0
C255 C 0.86219 0.67153 0.6589 0.0
C256 C 0.84151 0.64377 0.7194 0.0
C257 C 0.81476 0.60914 0.69233 0.0
C258 C 0.79763 0.58293 0.76766 0.0
C259 C 0.75628 0.56976 0.77479 0.0
C260 C 0.80454 0.55016 0.76049 0.0
C261 C 0.81886 0.60795 0.84215 0.0
C262 C 0.84385 0.64311 0.8144 0.0
C263 C 0.86595 0.67061 0.87415 0.0
C264 C 0.86205 0.66175 0.96402 0.0
C265 C 0.8367 0.62558 0.99259 0.0
C266 C 0.81518 0.59865 0.92996 0.0
H267 H 0.26381 0.81245 0.10818 0.0
H268 H 0.18234 0.84486 0.16302 0.0
H269 H 0.17709 0.85303 1.00376 0.0
H270 H 0.30794 0.87262 0.92251 0.0
H271 H 0.31424 0.83812 0.86726 0.0
H272 H 0.31386 0.83938 0.98469 0.0
H273 H 0.26163 0.77114 0.98734 0.0
H274 H 0.26148 0.76974 0.87008 0.0
H275 H 0.21966 0.75787 0.92844 0.0
H276 H 0.17889 0.85322 0.83262 0.0
H277 H 0.18763 0.84584 0.67487 0.0
H278 H 0.26559 0.81025 0.74192 0.0
C279 C 0.24512 0.82179 0.08741 0.0
C280 C 0.22345 0.82799 0.14834 0.0
C281 C 0.19947 0.84023 0.11769 0.0
C282 C 0.19622 0.84475 0.0273 0.0
C283 C 0.21724 0.83705 0.96893 0.0
C284 C 0.24137 0.82603 0.99861 0.0
C285 C 0.25948 0.81717 0.92461 0.0
C286 C 0.30136 0.84339 0.92479 0.0
C287 C 0.24997 0.77658 0.92784 0.0
C288 C 0.24156 0.82437 0.84774 0.0
C289 C 0.21752 0.83619 0.8736 0.0
C290 C 0.19777 0.84408 0.81219 0.0
C291 C 0.20285 0.83977 0.72272 0.0
C292 C 0.2271 0.82721 0.69571 0.0
C293 C 0.24658 0.8196 0.75975 0.0
H294 H 0.34445 0.09336 0.52345 0.0
H295 H 0.45876 0.12097 0.51849 0.0
H296 H 0.43959 0.0553 0.49558 0.0
H297 H 0.30689 1.00439 0.63016 0.0
H298 H 0.26598 0.98312 0.56392 0.0
H299 H 0.28869 0.03187 0.58554 0.0
H300 H 0.29383 0.04493 0.41937 0.0
H301 H 0.27137 0.99623 0.39725 0.0
H302 H 0.3159 0.0267 0.35052 0.0
H303 H 0.40775 0.98614 0.4777 0.0
H304 H 0.36564 0.91926 0.45552 0.0
H305 H 0.27246 0.93745 0.45721 0.0
C306 C 0.36532 0.08538 0.51864 0.0
C307 C 0.40307 0.11203 0.52382 0.0
C308 C 0.4297 0.10084 0.51506 0.0
C309 C 0.41908 0.06365 0.50213 0.0
C310 C 0.38167 0.03802 0.49632 0.0
C311 C 0.35518 0.04842 0.50337 0.0
C312 C 0.31696 0.01566 0.49005 0.0
C313 C 0.29324 1.00833 0.57232 0.0
C314 C 0.29843 0.02123 0.4095 0.0
C315 C 0.32607 0.98525 0.47505 0.0
C316 C 0.36353 0.99863 0.48007 0.0
C317 C 0.37841 0.97543 0.47258 0.0
C318 C 0.35436 0.93754 0.45996 0.0
C319 C 0.31598 0.92338 0.45304 0.0
C320 C 0.3018 0.94769 0.46013 0.0
H321 H 0.37614 0.29963 0.53423 0.0
H322 H 0.41075 0.2966 0.79955 0.0
H323 H 0.3805 0.33058 0.85048 0.0
H324 H 0.39012 0.39307 0.54994 0.0
H325 H 0.35073 0.38319 0.48382 0.0
H326 H 0.37485 0.35813 0.46654 0.0
H327 H 0.31411 0.29652 0.48857 0.0
H328 H 0.28982 0.32139 0.50582 0.0
H329 H 0.2878 0.28931 0.58708 0.0
H330 H 0.34355 0.36097 0.87601 0.0
H331 H 0.30541 0.3908 0.87233 0.0
H332 H 0.29814 0.38005 0.59065 0.0
C333 C 0.37733 0.30623 0.60289 0.0
C334 C 0.39591 0.29543 0.66281 0.0
C335 C 0.39704 0.30479 0.75215 0.0
C336 C 0.37979 0.32401 0.78196 0.0
C337 C 0.36186 0.33436 0.72166 0.0
C338 C 0.36079 0.32628 0.63385 0.0
C339 C 0.34006 0.34152 0.58333 0.0
C340 C 0.36546 0.37072 0.51698 0.0
C341 C 0.30592 0.31032 0.53857 0.0
C342 C 0.32932 0.35881 0.65677 0.0
C343 C 0.34198 0.35396 0.73604 0.0
C344 C 0.33392 0.36545 0.81425 0.0
C345 C 0.31224 0.38229 0.81162 0.0
C346 C 0.29942 0.38817 0.73132 0.0
C347 C 0.30834 0.37657 0.65273 0.0
H348 H 0.94101 0.2634 0.87899 0.0
H349 H 0.91882 0.3541 0.87946 0.0
H350 H 0.98523 0.39813 0.85798 0.0
H351 H 0.02965 0.30961 0.98673 0.0
H352 H 0.04917 0.28854 0.9187 0.0
H353 H 1.00043 0.26472 0.94006 0.0
H354 H 0.98765 0.25879 0.7738 0.0
H355 H 0.03634 0.28284 0.75193 0.0
H356 H 1.00778 0.29967 0.70693 0.0
H357 H 0.05448 0.43224 0.84079 0.0
H358 H 0.12064 0.45358 0.81838 0.0
H359 H 0.09672 0.34019 0.81396 0.0
C360 C 0.95029 0.2926 0.87594 0.0
C361 C 0.92501 0.30555 0.88243 0.0
C362 C 0.9379 0.34378 0.87544 0.0
C363 C 0.9755 0.36891 0.86324 0.0
C364 C 0.99972 0.35526 0.85625 0.0
C365 C 0.98758 0.31796 0.86142 0.0
C366 C 1.01894 0.31027 0.84688 0.0
C367 C 0.02489 0.29222 0.92793 0.0
C368 C 1.01227 0.28649 0.76501 0.0
C369 C 0.05069 0.34907 0.83348 0.0
C370 C 0.0391 0.37467 0.84025 0.0
C371 C 0.06376 0.41241 0.83439 0.0
C372 C 0.10122 0.42428 0.8217 0.0
C373 C 0.11355 0.3985 0.81313 0.0
C374 C 0.08785 0.36043 0.81841 0.0
H375 H 0.66266 0.94008 0.13461 0.0
H376 H 0.62891 0.903 0.86874 0.0
H377 H 0.66044 0.9674 0.81811 0.0
H378 H 0.64982 0.02035 0.11742 0.0
H379 H 0.68876 0.04902 0.18556 0.0
H380 H 0.66377 0.99984 0.20171 0.0
H381 H 0.72417 0.99785 0.18314 0.0
H382 H 0.74931 0.04698 0.16655 0.0
H383 H 0.75141 0.01675 0.08581 0.0
H384 H 0.69971 0.03515 0.79365 0.0
H385 H 0.73809 0.10312 0.79989 0.0
H386 H 0.7416 0.09791 0.08193 0.0
C387 C 0.66179 0.94565 0.06593 0.0
C388 C 0.64329 0.9165 1.00565 0.0
C389 C 0.64259 0.92485 0.91628 0.0
C390 C 0.6606 0.96136 0.8867 0.0
C391 C 0.67871 0.98946 0.94739 0.0
C392 C 0.67892 0.98221 0.03536 0.0
C393 C 0.69964 0.01783 0.08674 0.0
C394 C 0.67396 0.022 0.1517 0.0
C395 C 0.73312 0.01997 0.13329 0.0
C396 C 0.71143 0.04604 0.01371 0.0
C397 C 0.69946 0.02896 0.93374 0.0
C398 C 0.70873 0.04891 0.85597 0.0
C399 C 0.7306 0.08741 0.86001 0.0
C400 C 0.74224 0.10557 0.94125 0.0
C401 C 0.73239 0.08461 0.01908 0.0
H402 H 0.74498 0.64751 0.08798 0.0
H403 H 0.751 0.65086 0.37063 0.0
H404 H 0.7155 0.68336 0.37494 0.0
H405 H 0.75808 0.73891 0.06419 0.0
H406 H 0.72727 0.7277 0.97284 0.0
H407 H 0.75095 0.70226 0.99076 0.0
H408 H 0.6887 0.64117 0.9929 0.0
H409 H 0.66482 0.66639 0.97456 0.0
H410 H 0.6531 0.63609 0.06731 0.0
H411 H 0.67953 0.71449 0.35059 0.0
H412 H 0.64708 0.74621 0.29897 0.0
H413 H 0.6673 0.72823 0.03042 0.0
C414 C 0.7383 0.65471 0.15057 0.0
C415 C 0.7503 0.64638 0.22922 0.0
C416 C 0.74191 0.65693 0.30989 0.0
C417 C 0.72175 0.67534 0.31294 0.0
C418 C 0.71068 0.6836 0.23459 0.0
C419 C 0.71881 0.674 0.15476 0.0
C420 C 0.70508 0.68815 0.08056 0.0
C421 C 0.73727 0.7159 0.02374 0.0
C422 C 0.67621 0.65603 0.02559 0.0
C423 C 0.68785 0.70696 0.13144 0.0
C424 C 0.6912 0.70351 0.2202 0.0
C425 C 0.67683 0.7175 0.28132 0.0
C426 C 0.65834 0.73539 0.25125 0.0
C427 C 0.65469 0.73969 0.16076 0.0
C428 C 0.66998 0.72558 0.09992 0.0
H429 H 0.95247 0.65089 0.20984 0.0
H430 H 0.91587 0.62002 0.47732 0.0
H431 H 0.9801 0.65424 0.52777 0.0
H432 H 0.03523 0.64227 0.233 0.0
H433 H 0.06248 0.68065 0.16168 0.0
H434 H 1.01347 0.65335 0.146 0.0
H435 H 1.00821 0.71233 0.15691 0.0
H436 H 0.05713 0.73974 0.1734 0.0
H437 H 0.0259 0.74131 0.25199 0.0
H438 H 0.04742 0.69662 0.55128 0.0
H439 H 0.11504 0.73727 0.54379 0.0
H440 H 0.1094 0.73589 0.2613 0.0
C441 C 0.95813 0.65104 0.2788 0.0
C442 C 0.92919 0.6327 0.33958 0.0
C443 C 0.9376 0.63347 0.4294 0.0
C444 C 0.974 0.65307 0.45887 0.0
C445 C 1.00187 0.67121 0.39765 0.0
C446 C 0.99455 0.66975 0.30932 0.0
C447 C 0.02988 0.69104 0.25743 0.0
C448 C 0.0356 0.66528 0.1959 0.0
C449 C 0.03029 0.723 0.20697 0.0
C450 C 0.05798 0.70514 0.33055 0.0
C451 C 0.04113 0.69381 0.411 0.0
C452 C 0.06104 0.70517 0.48864 0.0
C453 C 0.0993 0.72835 0.48389 0.0
C454 C 0.11721 0.7392 0.40215 0.0
C455 C 0.09628 0.72739 0.32459 0.0
H456 H 0.58684 0.3208 0.47895 0.0
H457 H 0.51054 0.36192 0.503 0.0
H458 H 0.55915 0.42352 0.45434 0.0
H459 H 0.66438 0.40179 0.56455 0.0
H460 H 0.69739 0.39936 0.49341 0.0
H461 H 0.65602 0.35783 0.524 0.0
H462 H 0.63971 0.34163 0.36096 0.0
H463 H 0.68117 0.38299 0.32992 0.0
H464 H 0.63727 0.37463 0.28981 0.0
H465 H 0.61564 0.4802 0.40036 0.0
H466 H 0.67731 0.52912 0.3528 0.0
H467 H 0.71822 0.45256 0.37628 0.0
C468 C 0.58031 0.34269 0.4726 0.0
C469 C 0.5449 0.33666 0.49345 0.0
C470 C 0.53752 0.36609 0.48677 0.0
C471 C 0.5649 0.40109 0.4592 0.0
C472 C 0.59969 0.40633 0.44009 0.0
C473 C 0.6076 0.37805 0.44712 0.0
C474 C 0.64776 0.39154 0.42709 0.0
C475 C 0.66754 0.38739 0.50704 0.0
C476 C 0.65169 0.37151 0.34719 0.0
C477 C 0.66108 0.43172 0.4072 0.0
C478 C 0.63282 0.43958 0.41412 0.0
C479 C 0.63807 0.47449 0.39547 0.0
C480 C 0.6731 0.50206 0.36856 0.0
C481 C 0.70252 0.4947 0.36209 0.0
C482 C 0.69639 0.45913 0.38235 0.0
H483 H 0.28651 0.58225 0.6489 0.0
H484 H 0.16932 0.5044 0.65769 0.0
H485 H 0.15647 0.55262 0.60596 0.0
H486 H 0.28012 0.6586 0.73007 0.0
H487 H 0.31614 0.69266 0.66213 0.0
H488 H 0.31694 0.65152 0.69271 0.0
H489 H 0.31973 0.63638 0.52999 0.0
H490 H 0.31942 0.67774 0.49888 0.0
H491 H 0.28525 0.63383 0.45563 0.0
H492 H 0.15567 0.60879 0.55778 0.0
H493 H 0.16713 0.67014 0.51222 0.0
H494 H 0.28467 0.71361 0.54038 0.0
C495 C 0.25826 0.5753 0.63789 0.0
C496 C 0.22886 0.53952 0.65622 0.0
C497 C 0.19218 0.53161 0.64351 0.0
C498 C 0.18461 0.55881 0.61432 0.0
C499 C 0.214 0.59402 0.59892 0.0
C500 C 0.25011 0.60246 0.60991 0.0
C501 C 0.27633 0.64307 0.59217 0.0
C502 C 0.29869 0.6626 0.67416 0.0
C503 C 0.30168 0.64804 0.51454 0.0
C504 C 0.24923 0.65595 0.5697 0.0
C505 C 0.21347 0.62706 0.5737 0.0
C506 C 0.18355 0.63169 0.55442 0.0
C507 C 0.19033 0.66665 0.52877 0.0
C508 C 0.22672 0.69673 0.52327 0.0
C509 C 0.25651 0.6913 0.54518 0.0
H510 H 0.7157 0.2733 0.80723 0.0
H511 H 0.67343 0.15538 0.82074 0.0
H512 H 0.61293 0.1442 0.76858 0.0
H513 H 0.63413 0.2702 0.88773 0.0
H514 H 0.63804 0.30682 0.81862 0.0
H515 H 0.67876 0.30582 0.85151 0.0
H516 H 0.6974 0.30764 0.68956 0.0
H517 H 0.6569 0.30896 0.65619 0.0
H518 H 0.66534 0.27353 0.61476 0.0
H519 H 0.55762 0.14583 0.71306 0.0
H520 H 0.51002 0.16 0.66296 0.0
H521 H 0.58652 0.27678 0.69604 0.0
C522 C 0.69384 0.24515 0.79792 0.0
C523 C 0.69927 0.21513 0.81701 0.0
C524 C 0.66981 0.1787 0.8061 0.0
C525 C 0.63541 0.17211 0.77654 0.0
C526 C 0.63079 0.20227 0.75943 0.0
C527 C 0.6591 0.23807 0.77008 0.0
C528 C 0.64635 0.26549 0.75065 0.0
C529 C 0.64951 0.28843 0.83199 0.0
C530 C 0.66777 0.29037 0.67318 0.0
C531 C 0.60648 0.23949 0.72709 0.0
C532 C 0.59824 0.20316 0.7318 0.0
C533 C 0.56364 0.17413 0.70981 0.0
C534 C 0.53682 0.18243 0.68149 0.0
C535 C 0.54453 0.21939 0.67677 0.0
C536 C 0.57972 0.24825 0.70074 0.0
H537 H 0.46149 0.70925 0.96451 0.0
H538 H 0.53017 0.66137 0.02175 0.0
H539 H 0.47929 0.60002 0.97878 0.0
H540 H 0.37872 0.63432 0.05346 0.0
H541 H 0.34903 0.63753 0.97327 0.0
H542 H 0.39149 0.678 1.00313 0.0
H543 H 0.41188 0.68877 0.84115 0.0
H544 H 0.36939 0.64849 0.81063 0.0
H545 H 0.41272 0.65231 0.78032 0.0
H546 H 0.42164 0.54443 0.9253 0.0
H547 H 0.36009 0.49771 0.8723 0.0
H548 H 0.32696 0.58066 0.86373 0.0
C549 C 0.46595 0.68592 0.96738 0.0
C550 C 0.49989 0.69007 0.99593 0.0
C551 C 0.50443 0.65877 0.99985 0.0
C552 C 0.4757 0.62387 0.97564 0.0
C553 C 0.44241 0.62064 0.94916 0.0
C554 C 0.43728 0.65076 0.94558 0.0
C555 C 0.3983 0.63956 0.91854 0.0
C556 C 0.3782 0.64784 0.99146 0.0
C557 C 0.39808 0.6584 0.83254 0.0
C558 C 0.3824 0.59845 0.90641 0.0
C559 C 0.40845 0.5882 0.92362 0.0
C560 C 0.40091 0.55204 0.91265 0.0
C561 C 0.36595 0.52574 0.88259 0.0
C562 C 0.33877 0.53555 0.86539 0.0
C563 C 0.34702 0.5723 0.87839 0.0
H564 H 0.82034 0.49091 0.05504 0.0
H565 H 0.78105 0.45858 0.31986 0.0
H566 H 0.77482 0.3974 0.29453 0.0
H567 H 0.76245 0.40173 0.9541 0.0
H568 H 0.79759 0.40567 0.87979 0.0
H569 H 0.79772 0.44651 0.91753 0.0
H570 H 0.86448 0.47271 0.97324 0.0
H571 H 0.86448 0.43187 0.93605 0.0
H572 H 0.8748 0.44598 0.04842 0.0
H573 H 0.77174 0.33976 0.24058 0.0
H574 H 0.77406 0.28931 0.16231 0.0
H575 H 0.8191 0.35954 0.93478 0.0
C576 C 0.81032 0.47074 0.10715 0.0
C577 C 0.80101 0.47905 0.18926 0.0
C578 C 0.78825 0.45241 0.2566 0.0
C579 C 0.78463 0.4177 0.2428 0.0
C580 C 0.79431 0.41025 0.1615 0.0
C581 C 0.80708 0.43598 0.09483 0.0
C582 C 0.8164 0.42099 0.01453 0.0
C583 C 0.79209 0.41858 0.93691 0.0
C584 C 0.85749 0.44428 0.99176 0.0
C585 C 0.8069 0.38295 0.04667 0.0
C586 C 0.79387 0.37727 0.13137 0.0
C587 C 0.7821 0.34391 0.17441 0.0
C588 C 0.78347 0.31544 0.12951 0.0
C589 C 0.79702 0.32069 0.04301 0.0
C590 C 0.80916 0.35502 1.00142 0.0
H591 H 0.50726 0.8446 0.22008 0.0
H592 H 0.45897 0.73522 0.10745 0.0
H593 H 0.39689 0.72547 0.13542 0.0
H594 H 0.44214 0.81776 0.39506 0.0
H595 H 0.44029 0.85988 0.39602 0.0
H596 H 0.48133 0.86028 0.35939 0.0
H597 H 0.47813 0.8893 0.21274 0.0
H598 H 0.43699 0.88889 0.24893 0.0
H599 H 0.4368 0.86662 0.1481 0.0
H600 H 0.34095 0.72651 0.17598 0.0
H601 H 0.29242 0.7353 0.24079 0.0
H602 H 0.37495 0.84243 0.33941 0.0
C603 C 0.48347 0.81889 0.20062 0.0
C604 C 0.48759 0.79075 0.16061 0.0
C605 C 0.45613 0.7571 0.13751 0.0
C606 C 0.42083 0.75137 0.15287 0.0
C607 C 0.41746 0.7794 0.19275 0.0
C608 C 0.44772 0.81232 0.21755 0.0
C609 C 0.43582 0.83639 0.26583 0.0
C610 C 0.45078 0.84401 0.35964 0.0
C611 C 0.44764 0.87244 0.21589 0.0
C612 C 0.39428 0.81163 0.26461 0.0
C613 C 0.38454 0.77923 0.22066 0.0
C614 C 0.34812 0.75173 0.21069 0.0
C615 C 0.32072 0.75708 0.24787 0.0
C616 C 0.32976 0.78951 0.29578 0.0
C617 C 0.36713 0.81735 0.30333 0.0
loop_
_geom_bond_atom_site_label_1
_geom_bond_atom_site_label_2
_geom_bond_distance
_geom_bond_site_symmetry_2
_ccdc_geom_bond_type
Fe0 O2 1.918 . S
Fe0 O5 1.997 . S
Fe0 O6 2.002 . S
Fe0 O11 1.976 . S
Fe0 O14 1.996 . S
Fe1 O2 1.918 . S
Fe1 O9 1.997 . S
Fe1 O12 1.996 . S
Fe1 O16 1.976 . S
Fe1 O19 2.002 . S
O2 Fe0 1.918 . S
O2 Fe1 1.918 . S
O2 Fe3 1.918 . S
Fe3 O2 1.918 . S
Fe3 O4 2.002 . S
Fe3 O13 1.976 . S
Fe3 O17 1.996 . S
Fe3 O20 1.997 . S
O4 Fe3 2.002 . S
O4 C21 1.295 . S
O5 Fe0 1.997 . S
O5 C21 1.235 . S
O6 Fe0 2.002 . S
O6 C7 1.295 . S
C7 O6 1.295 . S
C7 O9 1.235 . S
C8 O13 1.287 . S
C8 O14 1.255 . S
O9 Fe1 1.997 . S
O9 C7 1.235 . S
C10 O16 1.287 . S
C10 O17 1.255 . S
O11 Fe0 1.976 . S
O11 C18 1.287 . S
O12 Fe1 1.996 . S
O12 C18 1.255 . S
O13 Fe3 1.976 . S
O13 C8 1.287 . S
O14 Fe0 1.996 . S
O14 C8 1.255 . S
C15 O19 1.295 . S
C15 O20 1.235 . S
O16 Fe1 1.976 . S
O16 C10 1.287 . S
O17 Fe3 1.996 . S
O17 C10 1.255 . S
C18 O11 1.287 . S
C18 O12 1.255 . S
O19 Fe1 2.002 . S
O19 C15 1.295 . S
O20 Fe3 1.997 . S
O20 C15 1.235 . S
C21 O4 1.295 . S
C21 O5 1.235 . S
Fe22 O24 1.918 . S
Fe22 O27 1.997 . S
Fe22 O28 2.002 . S
Fe22 O33 1.976 . S
Fe22 O36 1.996 . S
Fe23 O24 1.918 . S
Fe23 O31 1.997 . S
Fe23 O34 1.996 . S
Fe23 O38 1.976 . S
Fe23 O41 2.002 . S
O24 Fe22 1.918 . S
O24 Fe23 1.918 . S
O24 Fe25 1.918 . S
Fe25 O24 1.918 . S
Fe25 O26 2.002 . S
Fe25 O35 1.976 . S
Fe25 O39 1.996 . S
Fe25 O42 1.997 . S
O26 Fe25 2.002 . S
O26 C43 1.295 . S
O27 Fe22 1.997 . S
O27 C43 1.235 . S
O28 Fe22 2.002 . S
O28 C29 1.295 . S
C29 O28 1.295 . S
C29 O31 1.235 . S
C30 O35 1.287 . S
C30 O36 1.255 . S
O31 Fe23 1.997 . S
O31 C29 1.235 . S
C32 O38 1.287 . S
C32 O39 1.255 . S
O33 Fe22 1.976 . S
O33 C40 1.287 . S
O34 Fe23 1.996 . S
O34 C40 1.255 . S
O35 Fe25 1.976 . S
O35 C30 1.287 . S
O36 Fe22 1.996 . S
O36 C30 1.255 . S
C37 O41 1.295 . S
C37 O42 1.235 . S
O38 Fe23 1.976 . S
O38 C32 1.287 . S
O39 Fe25 1.996 . S
O39 C32 1.255 . S
C40 O33 1.287 . S
C40 O34 1.255 . S
O41 Fe23 2.002 . S
O41 C37 1.295 . S
O42 Fe25 1.997 . S
O42 C37 1.235 . S
C43 O26 1.295 . S
C43 O27 1.235 . S
Fe44 O46 1.918 . S
Fe44 O49 1.997 1_556 S
Fe44 O50 2.002 . S
Fe44 O55 1.976 . S
Fe44 O58 1.996 . S
Fe45 O46 1.918 . S
Fe45 O53 1.997 . S
Fe45 O56 1.996 . S
Fe45 O60 1.976 . S
Fe45 O63 2.002 . S
O46 Fe44 1.918 . S
O46 Fe45 1.918 . S
O46 Fe47 1.918 . S
Fe47 O46 1.918 . S
Fe47 O48 2.002 1_556 S
Fe47 O57 1.976 . S
Fe47 O61 1.996 . S
Fe47 O64 1.997 1_556 S
O48 Fe47 2.002 1_554 S
O48 C65 1.295 . S
O49 Fe44 1.997 1_554 S
O49 C65 1.235 . S
O50 Fe44 2.002 . S
O50 C51 1.295 . S
C51 O50 1.295 . S
C51 O53 1.235 . S
C52 O57 1.287 . S
C52 O58 1.255 . S
O53 Fe45 1.997 . S
O53 C51 1.235 . S
C54 O60 1.287 . S
C54 O61 1.255 . S
O55 Fe44 1.976 . S
O55 C62 1.287 . S
O56 Fe45 1.996 . S
O56 C62 1.255 . S
O57 Fe47 1.976 . S
O57 C52 1.287 . S
O58 Fe44 1.996 . S
O58 C52 1.255 . S
C59 O63 1.295 . S
C59 O64 1.235 1_556 S
O60 Fe45 1.976 . S
O60 C54 1.287 . S
O61 Fe47 1.996 . S
O61 C54 1.255 . S
C62 O55 1.287 . S
C62 O56 1.255 . S
O63 Fe45 2.002 . S
O63 C59 1.295 . S
O64 Fe47 1.997 1_554 S
O64 C59 1.235 1_554 S
C65 O48 1.295 . S
C65 O49 1.235 . S
Fe66 O68 1.918 . S
Fe66 O71 1.997 . S
Fe66 O72 2.002 . S
Fe66 O77 1.976 1_554 S
Fe66 O80 1.996 . S
Fe67 O68 1.918 1_556 S
Fe67 O75 1.997 1_556 S
Fe67 O78 1.996 . S
Fe67 O82 1.976 . S
Fe67 O85 2.002 1_556 S
O68 Fe66 1.918 . S
O68 Fe67 1.918 1_554 S
O68 Fe69 1.918 . S
Fe69 O68 1.918 . S
Fe69 O70 2.002 . S
Fe69 O79 1.976 . S
Fe69 O83 1.996 . S
Fe69 O86 1.997 . S
O70 Fe69 2.002 . S
O70 C87 1.295 . S
O71 Fe66 1.997 . S
O71 C87 1.235 . S
O72 Fe66 2.002 . S
O72 C73 1.295 . S
C73 O72 1.295 . S
C73 O75 1.235 . S
C74 O79 1.287 . S
C74 O80 1.255 . S
O75 Fe67 1.997 1_554 S
O75 C73 1.235 . S
C76 O82 1.287 1_554 S
C76 O83 1.255 . S
O77 Fe66 1.976 1_556 S
O77 C84 1.287 . S
O78 Fe67 1.996 . S
O78 C84 1.255 . S
O79 Fe69 1.976 . S
O79 C74 1.287 . S
O80 Fe66 1.996 . S
O80 C74 1.255 . S
C81 O85 1.295 . S
C81 O86 1.235 . S
O82 Fe67 1.976 . S
O82 C76 1.287 1_556 S
O83 Fe69 1.996 . S
O83 C76 1.255 . S
C84 O77 1.287 . S
C84 O78 1.255 . S
O85 Fe67 2.002 1_554 S
O85 C81 1.295 . S
O86 Fe69 1.997 . S
O86 C81 1.235 . S
C87 O70 1.295 . S
C87 O71 1.235 . S
Fe88 O90 1.918 . S
Fe88 O93 1.997 . S
Fe88 O94 2.002 . S
Fe88 O99 1.976 . S
Fe88 O102 1.996 . S
Fe89 O90 1.918 . S
Fe89 O97 1.997 . S
Fe89 O100 1.996 . S
Fe89 O104 1.976 . S
Fe89 O107 2.002 . S
O90 Fe88 1.918 . S
O90 Fe89 1.918 . S
O90 Fe91 1.918 . S
Fe91 O90 1.918 . S
Fe91 O92 2.002 . S
Fe91 O101 1.976 . S
Fe91 O105 1.996 . S
Fe91 O108 1.997 . S
O92 Fe91 2.002 . S
O92 C109 1.295 . S
O93 Fe88 1.997 . S
O93 C109 1.235 . S
O94 Fe88 2.002 . S
O94 C95 1.295 . S
C95 O94 1.295 . S
C95 O97 1.235 . S
C96 O101 1.287 . S
C96 O102 1.255 . S
O97 Fe89 1.997 . S
O97 C95 1.235 . S
C98 O104 1.287 . S
C98 O105 1.255 . S
O99 Fe88 1.976 . S
O99 C106 1.287 . S
O100 Fe89 1.996 . S
O100 C106 1.255 . S
O101 Fe91 1.976 . S
O101 C96 1.287 . S
O102 Fe88 1.996 . S
O102 C96 1.255 . S
C103 O107 1.295 . S
C103 O108 1.235 . S
O104 Fe89 1.976 . S
O104 C98 1.287 . S
O105 Fe91 1.996 . S
O105 C98 1.255 . S
C106 O99 1.287 . S
C106 O100 1.255 . S
O107 Fe89 2.002 . S
O107 C103 1.295 . S
O108 Fe91 1.997 . S
O108 C103 1.235 . S
C109 O92 1.295 . S
C109 O93 1.235 . S
Fe110 O112 1.918 . S
Fe110 O115 1.997 . S
Fe110 O116 2.002 . S
Fe110 O121 1.976 . S
Fe110 O124 1.996 . S
Fe111 O112 1.918 . S
Fe111 O119 1.997 . S
Fe111 O122 1.996 . S
Fe111 O126 1.976 . S
Fe111 O129 2.002 . S
O112 Fe110 1.918 . S
O112 Fe111 1.918 . S
O112 Fe113 1.918 . S
Fe113 O112 1.918 . S
Fe113 O114 2.002 . S
Fe113 O123 1.976 . S
Fe113 O127 1.996 . S
Fe113 O130 1.997 . S
O114 Fe113 2.002 . S
O114 C131 1.295 . S
O115 Fe110 1.997 . S
O115 C131 1.235 . S
O116 Fe110 2.002 . S
O116 C117 1.295 . S
C117 O116 1.295 . S
C117 O119 1.235 . S
C118 O123 1.287 . S
C118 O124 1.255 . S
O119 Fe111 1.997 . S
O119 C117 1.235 . S
C120 O126 1.287 . S
C120 O127 1.255 . S
O121 Fe110 1.976 . S
O121 C128 1.287 . S
O122 Fe111 1.996 . S
O122 C128 1.255 . S
O123 Fe113 1.976 . S
O123 C118 1.287 . S
O124 Fe110 1.996 . S
O124 C118 1.255 . S
C125 O129 1.295 . S
C125 O130 1.235 . S
O126 Fe111 1.976 . S
O126 C120 1.287 . S
O127 Fe113 1.996 . S
O127 C120 1.255 . S
C128 O121 1.287 . S
C128 O122 1.255 . S
O129 Fe111 2.002 . S
O129 C125 1.295 . S
O130 Fe113 1.997 . S
O130 C125 1.235 . S
C131 O114 1.295 . S
C131 O115 1.235 . S
H132 C144 0.930 . S
H133 C146 0.930 . S
H134 C147 0.930 . S
H135 C151 0.959 . S
H136 C151 0.959 . S
H137 C151 0.961 . S
H138 C152 0.960 . S
H139 C152 0.961 . S
H140 C152 0.959 . S
H141 C155 0.927 1_554 S
H142 C156 0.931 . S
H143 C158 0.930 . S
C144 H132 0.930 . S
C144 C145 1.399 . S
C144 C149 1.399 . S
C145 C144 1.399 . S
C145 C146 1.376 . S
C146 H133 0.930 . S
C146 C145 1.376 . S
C146 C147 1.388 . S
C147 H134 0.930 . S
C147 C146 1.388 . S
C147 C148 1.390 . S
C148 C147 1.390 . S
C148 C149 1.394 . S
C148 C154 1.465 . S
C149 C144 1.399 . S
C149 C148 1.394 . S
C149 C150 1.516 . S
C150 C149 1.516 . S
C150 C151 1.502 . S
C150 C152 1.561 . S
C150 C153 1.526 . S
C151 H135 0.959 . S
C151 H136 0.959 . S
C151 H137 0.961 . S
C151 C150 1.502 . S
C152 H138 0.960 . S
C152 H139 0.961 . S
C152 H140 0.959 . S
C152 C150 1.561 . S
C153 C150 1.526 . S
C153 C154 1.396 . S
C153 C158 1.390 1_554 S
C154 C148 1.465 . S
C154 C153 1.396 . S
C154 C155 1.399 1_554 S
C155 H141 0.927 1_556 S
C155 C154 1.399 1_556 S
C155 C156 1.385 . S
C156 H142 0.931 . S
C156 C155 1.385 . S
C156 C157 1.389 . S
C157 C156 1.389 . S
C157 C158 1.387 . S
C158 H143 0.930 . S
C158 C153 1.390 1_556 S
C158 C157 1.387 . S
H159 C171 0.930 . S
H160 C173 0.930 . S
H161 C174 0.930 . S
H162 C178 0.959 . S
H163 C178 0.959 . S
H164 C178 0.961 . S
H165 C179 0.960 . S
H166 C179 0.961 . S
H167 C179 0.959 . S
H168 C182 0.929 . S
H169 C183 0.931 . S
H170 C185 0.930 . S
C171 H159 0.930 . S
C171 C172 1.399 . S
C171 C176 1.399 . S
C172 C171 1.399 . S
C172 C173 1.376 . S
C173 H160 0.930 . S
C173 C172 1.376 . S
C173 C174 1.388 . S
C174 H161 0.930 . S
C174 C173 1.388 . S
C174 C175 1.390 . S
C175 C174 1.390 . S
C175 C176 1.394 . S
C175 C181 1.465 . S
C176 C171 1.399 . S
C176 C175 1.394 . S
C176 C177 1.516 . S
C177 C176 1.516 . S
C177 C178 1.502 . S
C177 C179 1.561 . S
C177 C180 1.526 . S
C178 H162 0.959 . S
C178 H163 0.959 . S
C178 H164 0.961 . S
C178 C177 1.502 . S
C179 H165 0.960 . S
C179 H166 0.961 . S
C179 H167 0.959 . S
C179 C177 1.561 . S
C180 C177 1.526 . S
C180 C181 1.396 . S
C180 C185 1.390 . S
C181 C175 1.465 . S
C181 C180 1.396 . S
C181 C182 1.399 . S
C182 H168 0.929 . S
C182 C181 1.399 . S
C182 C183 1.385 . S
C183 H169 0.931 . S
C183 C182 1.385 . S
C183 C184 1.389 . S
C184 C183 1.389 . S
C184 C185 1.387 . S
C185 H170 0.930 . S
C185 C180 1.390 . S
C185 C184 1.387 . S
H186 C198 0.930 . S
H187 C200 0.930 . S
H188 C201 0.930 . S
H189 C205 0.959 . S
H190 C205 0.959 . S
H191 C205 0.961 . S
H192 C206 0.960 . S
H193 C206 0.961 . S
H194 C206 0.959 . S
H195 C209 0.929 . S
H196 C210 0.931 . S
H197 C212 0.930 . S
C198 H186 0.930 . S
C198 C199 1.399 . S
C198 C203 1.399 . S
C199 C198 1.399 . S
C199 C200 1.376 . S
C200 H187 0.930 . S
C200 C199 1.376 . S
C200 C201 1.388 . S
C201 H188 0.930 . S
C201 C200 1.388 . S
C201 C202 1.390 . S
C202 C201 1.390 . S
C202 C203 1.394 . S
C202 C208 1.465 . S
C203 C198 1.399 . S
C203 C202 1.394 . S
C203 C204 1.516 . S
C204 C203 1.516 . S
C204 C205 1.502 . S
C204 C206 1.561 . S
C204 C207 1.526 . S
C205 H189 0.959 . S
C205 H190 0.959 . S
C205 H191 0.961 . S
C205 C204 1.502 . S
C206 H192 0.960 . S
C206 H193 0.961 . S
C206 H194 0.959 . S
C206 C204 1.561 . S
C207 C204 1.526 . S
C207 C208 1.396 . S
C207 C212 1.390 . S
C208 C202 1.465 . S
C208 C207 1.396 . S
C208 C209 1.399 . S
C209 H195 0.929 . S
C209 C208 1.399 . S
C209 C210 1.385 . S
C210 H196 0.931 . S
C210 C209 1.385 . S
C210 C211 1.389 . S
C211 C210 1.389 . S
C211 C212 1.387 . S
C212 H197 0.930 . S
C212 C207 1.390 . S
C212 C211 1.387 . S
H213 C225 0.930 . S
H214 C227 0.930 . S
H215 C228 0.930 . S
H216 C232 0.959 . S
H217 C232 0.959 . S
H218 C232 0.961 . S
H219 C233 0.960 . S
H220 C233 0.961 . S
H221 C233 0.959 . S
H222 C236 0.929 . S
H223 C237 0.931 . S
H224 C239 0.930 . S
C225 H213 0.930 . S
C225 C226 1.399 . S
C225 C230 1.399 . S
C226 C225 1.399 . S
C226 C227 1.376 . S
C227 H214 0.930 . S
C227 C226 1.376 . S
C227 C228 1.388 . S
C228 H215 0.930 . S
C228 C227 1.388 . S
C228 C229 1.390 . S
C229 C228 1.390 . S
C229 C230 1.394 . S
C229 C235 1.465 . S
C230 C225 1.399 . S
C230 C229 1.394 . S
C230 C231 1.516 . S
C231 C230 1.516 . S
C231 C232 1.502 . S
C231 C233 1.561 . S
C231 C234 1.526 . S
C232 H216 0.959 . S
C232 H217 0.959 . S
C232 H218 0.961 . S
C232 C231 1.502 . S
C233 H219 0.960 . S
C233 H220 0.961 . S
C233 H221 0.959 . S
C233 C231 1.561 . S
C234 C231 1.526 . S
C234 C235 1.396 . S
C234 C239 1.390 . S
C235 C229 1.465 . S
C235 C234 1.396 . S
C235 C236 1.399 . S
C236 H222 0.929 . S
C236 C235 1.399 . S
C236 C237 1.385 . S
C237 H223 0.931 . S
C237 C236 1.385 . S
C237 C238 1.389 . S
C238 C237 1.389 . S
C238 C239 1.387 . S
C239 H224 0.930 . S
C239 C234 1.390 . S
C239 C238 1.387 . S
H240 C252 0.930 . S
H241 C254 0.930 . S
H242 C255 0.930 . S
H243 C259 0.959 . S
H244 C259 0.959 . S
H245 C259 0.961 . S
H246 C260 0.960 . S
H247 C260 0.961 . S
H248 C260 0.959 . S
H249 C263 0.929 . S
H250 C264 0.931 . S
H251 C266 0.930 . S
C252 H240 0.930 . S
C252 C253 1.399 . S
C252 C257 1.399 . S
C253 C252 1.399 . S
C253 C254 1.376 . S
C254 H241 0.930 . S
C254 C253 1.376 . S
C254 C255 1.388 . S
C255 H242 0.930 . S
C255 C254 1.388 . S
C255 C256 1.390 . S
C256 C255 1.390 . S
C256 C257 1.394 . S
C256 C262 1.465 . S
C257 C252 1.399 . S
C257 C256 1.394 . S
C257 C258 1.516 . S
C258 C257 1.516 . S
C258 C259 1.502 . S
C258 C260 1.561 . S
C258 C261 1.526 . S
C259 H243 0.959 . S
C259 H244 0.959 . S
C259 H245 0.961 . S
C259 C258 1.502 . S
C260 H246 0.960 . S
C260 H247 0.961 . S
C260 H248 0.959 . S
C260 C258 1.561 . S
C261 C258 1.526 . S
C261 C262 1.396 . S
C261 C266 1.390 . S
C262 C256 1.465 . S
C262 C261 1.396 . S
C262 C263 1.399 . S
C263 H249 0.929 . S
C263 C262 1.399 . S
C263 C264 1.385 . S
C264 H250 0.931 . S
C264 C263 1.385 . S
C264 C265 1.389 . S
C265 C264 1.389 . S
C265 C266 1.387 . S
C266 H251 0.930 . S
C266 C261 1.390 . S
C266 C265 1.387 . S
H267 C279 0.930 . S
H268 C281 0.930 . S
H269 C282 0.930 . S
H270 C286 0.959 . S
H271 C286 0.959 . S
H272 C286 0.961 . S
H273 C287 0.960 . S
H274 C287 0.961 . S
H275 C287 0.959 . S
H276 C290 0.929 . S
H277 C291 0.931 . S
H278 C293 0.930 . S
C279 H267 0.930 . S
C279 C280 1.399 . S
C279 C284 1.399 1_554 S
C280 C279 1.399 . S
C280 C281 1.376 . S
C281 H268 0.930 . S
C281 C280 1.376 . S
C281 C282 1.388 . S
C282 H269 0.930 . S
C282 C281 1.388 . S
C282 C283 1.390 1_554 S
C283 C282 1.390 1_556 S
C283 C284 1.394 . S
C283 C289 1.465 . S
C284 C279 1.399 1_556 S
C284 C283 1.394 . S
C284 C285 1.516 . S
C285 C284 1.516 . S
C285 C286 1.502 . S
C285 C287 1.561 . S
C285 C288 1.526 . S
C286 H270 0.959 . S
C286 H271 0.959 . S
C286 H272 0.961 . S
C286 C285 1.502 . S
C287 H273 0.960 . S
C287 H274 0.961 . S
C287 H275 0.959 . S
C287 C285 1.561 . S
C288 C285 1.526 . S
C288 C289 1.396 . S
C288 C293 1.390 . S
C289 C283 1.465 . S
C289 C288 1.396 . S
C289 C290 1.399 . S
C290 H276 0.929 . S
C290 C289 1.399 . S
C290 C291 1.385 . S
C291 H277 0.931 . S
C291 C290 1.385 . S
C291 C292 1.389 . S
C292 C291 1.389 . S
C292 C293 1.387 . S
C293 H278 0.930 . S
C293 C288 1.390 . S
C293 C292 1.387 . S
H294 C306 0.930 . S
H295 C308 0.930 . S
H296 C309 0.930 . S
H297 C313 0.959 . S
H298 C313 0.959 1_565 S
H299 C313 0.961 . S
H300 C314 0.960 . S
H301 C314 0.961 1_565 S
H302 C314 0.959 . S
H303 C317 0.929 . S
H304 C318 0.931 . S
H305 C320 0.930 . S
C306 H294 0.930 . S
C306 C307 1.399 . S
C306 C311 1.399 . S
C307 C306 1.399 . S
C307 C308 1.376 . S
C308 H295 0.930 . S
C308 C307 1.376 . S
C308 C309 1.388 . S
C309 H296 0.930 . S
C309 C308 1.388 . S
C309 C310 1.390 . S
C310 C309 1.390 . S
C310 C311 1.394 . S
C310 C316 1.465 1_545 S
C311 C306 1.399 . S
C311 C310 1.394 . S
C311 C312 1.516 . S
C312 C311 1.516 . S
C312 C313 1.502 . S
C312 C314 1.561 . S
C312 C315 1.526 1_545 S
C313 H297 0.959 . S
C313 H298 0.959 1_545 S
C313 H299 0.961 . S
C313 C312 1.502 . S
C314 H300 0.960 . S
C314 H301 0.961 1_545 S
C314 H302 0.959 . S
C314 C312 1.561 . S
C315 C312 1.526 1_565 S
C315 C316 1.396 . S
C315 C320 1.390 . S
C316 C310 1.465 1_565 S
C316 C315 1.396 . S
C316 C317 1.399 . S
C317 H303 0.929 . S
C317 C316 1.399 . S
C317 C318 1.385 . S
C318 H304 0.931 . S
C318 C317 1.385 . S
C318 C319 1.389 . S
C319 C318 1.389 . S
C319 C320 1.387 . S
C320 H305 0.930 . S
C320 C315 1.390 . S
C320 C319 1.387 . S
H321 C333 0.930 . S
H322 C335 0.930 . S
H323 C336 0.930 . S
H324 C340 0.959 . S
H325 C340 0.959 . S
H326 C340 0.961 . S
H327 C341 0.960 . S
H328 C341 0.961 . S
H329 C341 0.959 . S
H330 C344 0.929 . S
H331 C345 0.931 . S
H332 C347 0.930 . S
C333 H321 0.930 . S
C333 C334 1.399 . S
C333 C338 1.399 . S
C334 C333 1.399 . S
C334 C335 1.376 . S
C335 H322 0.930 . S
C335 C334 1.376 . S
C335 C336 1.388 . S
C336 H323 0.930 . S
C336 C335 1.388 . S
C336 C337 1.390 . S
C337 C336 1.390 . S
C337 C338 1.394 . S
C337 C343 1.465 . S
C338 C333 1.399 . S
C338 C337 1.394 . S
C338 C339 1.516 . S
C339 C338 1.516 . S
C339 C340 1.502 . S
C339 C341 1.561 . S
C339 C342 1.526 . S
C340 H324 0.959 . S
C340 H325 0.959 . S
C340 H326 0.961 . S
C340 C339 1.502 . S
C341 H327 0.960 . S
C341 H328 0.961 . S
C341 H329 0.959 . S
C341 C339 1.561 . S
C342 C339 1.526 . S
C342 C343 1.396 . S
C342 C347 1.390 . S
C343 C337 1.465 . S
C343 C342 1.396 . S
C343 C344 1.399 . S
C344 H330 0.929 . S
C344 C343 1.399 . S
C344 C345 1.385 . S
C345 H331 0.931 . S
C345 C344 1.385 . S
C345 C346 1.389 . S
C346 C345 1.389 . S
C346 C347 1.387 . S
C347 H332 0.930 . S
C347 C342 1.390 . S
C347 C346 1.387 . S
H348 C360 0.930 . S
H349 C362 0.925 1_554 S
H350 C363 0.930 1_554 S
H351 C367 0.959 . S
H352 C367 0.959 1_455 S
H353 C367 0.961 . S
H354 C368 0.960 . S
H355 C368 0.961 1_455 S
H356 C368 0.959 . S
H357 C371 0.929 . S
H358 C372 0.931 . S
H359 C374 0.930 . S
C360 H348 0.930 . S
C360 C361 1.399 . S
C360 C365 1.399 . S
C361 C360 1.399 . S
C361 C362 1.376 . S
C362 H349 0.925 1_556 S
C362 C361 1.376 . S
C362 C363 1.388 . S
C363 H350 0.930 1_556 S
C363 C362 1.388 . S
C363 C364 1.390 . S
C364 C363 1.390 . S
C364 C365 1.394 . S
C364 C370 1.465 1_655 S
C365 C360 1.399 . S
C365 C364 1.394 . S
C365 C366 1.516 . S
C366 C365 1.516 . S
C366 C367 1.502 . S
C366 C368 1.561 . S
C366 C369 1.526 1_655 S
C367 H351 0.959 . S
C367 H352 0.959 1_655 S
C367 H353 0.961 . S
C367 C366 1.502 . S
C368 H354 0.960 . S
C368 H355 0.961 1_655 S
C368 H356 0.959 . S
C368 C366 1.561 . S
C369 C366 1.526 1_455 S
C369 C370 1.396 . S
C369 C374 1.390 . S
C370 C364 1.465 1_455 S
C370 C369 1.396 . S
C370 C371 1.399 . S
C371 H357 0.929 . S
C371 C370 1.399 . S
C371 C372 1.385 . S
C372 H358 0.931 . S
C372 C371 1.385 . S
C372 C373 1.389 . S
C373 C372 1.389 . S
C373 C374 1.387 . S
C374 H359 0.930 . S
C374 C369 1.390 . S
C374 C373 1.387 . S
H375 C387 0.930 . S
H376 C389 0.930 . S
H377 C390 0.930 . S
H378 C394 0.959 . S
H379 C394 0.959 . S
H380 C394 0.961 1_565 S
H381 C395 0.960 1_565 S
H382 C395 0.961 . S
H383 C395 0.959 . S
H384 C398 0.929 . S
H385 C399 0.931 . S
H386 C401 0.930 . S
C387 H375 0.930 . S
C387 C388 1.399 . S
C387 C392 1.399 . S
C388 C387 1.399 . S
C388 C389 1.376 1_554 S
C389 H376 0.930 . S
C389 C388 1.376 1_556 S
C389 C390 1.388 . S
C390 H377 0.930 . S
C390 C389 1.388 . S
C390 C391 1.390 . S
C391 C390 1.390 . S
C391 C392 1.394 1_556 S
C391 C397 1.465 1_565 S
C392 C387 1.399 . S
C392 C391 1.394 1_554 S
C392 C393 1.516 1_565 S
C393 C392 1.516 1_545 S
C393 C394 1.502 . S
C393 C395 1.561 . S
C393 C396 1.526 . S
C394 H378 0.959 . S
C394 H379 0.959 . S
C394 H380 0.961 1_545 S
C394 C393 1.502 . S
C395 H381 0.960 1_545 S
C395 H382 0.961 . S
C395 H383 0.959 . S
C395 C393 1.561 . S
C396 C393 1.526 . S
C396 C397 1.396 1_554 S
C396 C401 1.390 . S
C397 C391 1.465 1_545 S
C397 C396 1.396 1_556 S
C397 C398 1.399 . S
C398 H384 0.929 . S
C398 C397 1.399 . S
C398 C399 1.385 . S
C399 H385 0.931 . S
C399 C398 1.385 . S
C399 C400 1.389 . S
C400 C399 1.389 . S
C400 C401 1.387 1_556 S
C401 H386 0.930 . S
C401 C396 1.390 . S
C401 C400 1.387 1_554 S
H402 C414 0.930 . S
H403 C416 0.930 . S
H404 C417 0.930 . S
H405 C421 0.959 . S
H406 C421 0.959 . S
H407 C421 0.961 . S
H408 C422 0.960 . S
H409 C422 0.961 . S
H410 C422 0.959 . S
H411 C425 0.929 . S
H412 C426 0.931 . S
H413 C428 0.930 . S
C414 H402 0.930 . S
C414 C415 1.399 . S
C414 C419 1.399 . S
C415 C414 1.399 . S
C415 C416 1.376 . S
C416 H403 0.930 . S
C416 C415 1.376 . S
C416 C417 1.388 . S
C417 H404 0.930 . S
C417 C416 1.388 . S
C417 C418 1.390 . S
C418 C417 1.390 . S
C418 C419 1.394 . S
C418 C424 1.465 . S
C419 C414 1.399 . S
C419 C418 1.394 . S
C419 C420 1.516 . S
C420 C419 1.516 . S
C420 C421 1.502 1_554 S
C420 C422 1.561 . S
C420 C423 1.526 . S
C421 H405 0.959 . S
C421 H406 0.959 . S
C421 H407 0.961 . S
C421 C420 1.502 1_556 S
C422 H408 0.960 . S
C422 H409 0.961 . S
C422 H410 0.959 . S
C422 C420 1.561 . S
C423 C420 1.526 . S
C423 C424 1.396 . S
C423 C428 1.390 . S
C424 C418 1.465 . S
C424 C423 1.396 . S
C424 C425 1.399 . S
C425 H411 0.929 . S
C425 C424 1.399 . S
C425 C426 1.385 . S
C426 H412 0.931 . S
C426 C425 1.385 . S
C426 C427 1.389 . S
C427 C426 1.389 . S
C427 C428 1.387 . S
C428 H413 0.930 . S
C428 C423 1.390 . S
C428 C427 1.387 . S
H429 C441 0.930 . S
H430 C443 0.930 . S
H431 C444 0.930 . S
H432 C448 0.959 . S
H433 C448 0.959 . S
H434 C448 0.961 1_655 S
H435 C449 0.960 1_655 S
H436 C449 0.961 . S
H437 C449 0.959 . S
H438 C452 0.929 . S
H439 C453 0.931 . S
H440 C455 0.930 . S
C441 H429 0.930 . S
C441 C442 1.399 . S
C441 C446 1.399 . S
C442 C441 1.399 . S
C442 C443 1.376 . S
C443 H430 0.930 . S
C443 C442 1.376 . S
C443 C444 1.388 . S
C444 H431 0.930 . S
C444 C443 1.388 . S
C444 C445 1.390 . S
C445 C444 1.390 . S
C445 C446 1.394 . S
C445 C451 1.465 1_655 S
C446 C441 1.399 . S
C446 C445 1.394 . S
C446 C447 1.516 1_655 S
C447 C446 1.516 1_455 S
C447 C448 1.502 . S
C447 C449 1.561 . S
C447 C450 1.526 . S
C448 H432 0.959 . S
C448 H433 0.959 . S
C448 H434 0.961 1_455 S
C448 C447 1.502 . S
C449 H435 0.960 1_455 S
C449 H436 0.961 . S
C449 H437 0.959 . S
C449 C447 1.561 . S
C450 C447 1.526 . S
C450 C451 1.396 . S
C450 C455 1.390 . S
C451 C445 1.465 1_455 S
C451 C450 1.396 . S
C451 C452 1.399 . S
C452 H438 0.929 . S
C452 C451 1.399 . S
C452 C453 1.385 . S
C453 H439 0.931 . S
C453 C452 1.385 . S
C453 C454 1.389 . S
C454 C453 1.389 . S
C454 C455 1.387 . S
C455 H440 0.930 . S
C455 C450 1.390 . S
C455 C454 1.387 . S
H456 C468 0.930 . S
H457 C470 0.930 . S
H458 C471 0.930 . S
H459 C475 0.959 . S
H460 C475 0.959 . S
H461 C475 0.961 . S
H462 C476 0.960 . S
H463 C476 0.961 . S
H464 C476 0.959 . S
H465 C479 0.929 . S
H466 C480 0.931 . S
H467 C482 0.930 . S
C468 H456 0.930 . S
C468 C469 1.399 . S
C468 C473 1.399 . S
C469 C468 1.399 . S
C469 C470 1.376 . S
C470 H457 0.930 . S
C470 C469 1.376 . S
C470 C471 1.388 . S
C471 H458 0.930 . S
C471 C470 1.388 . S
C471 C472 1.390 . S
C472 C471 1.390 . S
C472 C473 1.394 . S
C472 C478 1.465 . S
C473 C468 1.399 . S
C473 C472 1.394 . S
C473 C474 1.516 . S
C474 C473 1.516 . S
C474 C475 1.502 . S
C474 C476 1.561 . S
C474 C477 1.526 . S
C475 H459 0.959 . S
C475 H460 0.959 . S
C475 H461 0.961 . S
C475 C474 1.502 . S
C476 H462 0.960 . S
C476 H463 0.961 . S
C476 H464 0.959 . S
C476 C474 1.561 . S
C477 C474 1.526 . S
C477 C478 1.396 . S
C477 C482 1.390 . S
C478 C472 1.465 . S
C478 C477 1.396 . S
C478 C479 1.399 . S
C479 H465 0.929 . S
C479 C478 1.399 . S
C479 C480 1.385 . S
C480 H466 0.931 . S
C480 C479 1.385 . S
C480 C481 1.389 . S
C481 C480 1.389 . S
C481 C482 1.387 . S
C482 H467 0.930 . S
C482 C477 1.390 . S
C482 C481 1.387 . S
H483 C495 0.930 . S
H484 C497 0.930 . S
H485 C498 0.930 . S
H486 C502 0.959 . S
H487 C502 0.959 . S
H488 C502 0.961 . S
H489 C503 0.960 . S
H490 C503 0.961 . S
H491 C503 0.959 . S
H492 C506 0.929 . S
H493 C507 0.931 . S
H494 C509 0.930 . S
C495 H483 0.930 . S
C495 C496 1.399 . S
C495 C500 1.399 . S
C496 C495 1.399 . S
C496 C497 1.376 . S
C497 H484 0.930 . S
C497 C496 1.376 . S
C497 C498 1.388 . S
C498 H485 0.930 . S
C498 C497 1.388 . S
C498 C499 1.390 . S
C499 C498 1.390 . S
C499 C500 1.394 . S
C499 C505 1.465 . S
C500 C495 1.399 . S
C500 C499 1.394 . S
C500 C501 1.516 . S
C501 C500 1.516 . S
C501 C502 1.502 . S
C501 C503 1.561 . S
C501 C504 1.526 . S
C502 H486 0.959 . S
C502 H487 0.959 . S
C502 H488 0.961 . S
C502 C501 1.502 . S
C503 H489 0.960 . S
C503 H490 0.961 . S
C503 H491 0.959 . S
C503 C501 1.561 . S
C504 C501 1.526 . S
C504 C505 1.396 . S
C504 C509 1.390 . S
C505 C499 1.465 . S
C505 C504 1.396 . S
C505 C506 1.399 . S
C506 H492 0.929 . S
C506 C505 1.399 . S
C506 C507 1.385 . S
C507 H493 0.931 . S
C507 C506 1.385 . S
C507 C508 1.389 . S
C508 C507 1.389 . S
C508 C509 1.387 . S
C509 H494 0.930 . S
C509 C504 1.390 . S
C509 C508 1.387 . S
H510 C522 0.930 . S
H511 C524 0.930 . S
H512 C525 0.930 . S
H513 C529 0.959 . S
H514 C529 0.959 . S
H515 C529 0.961 . S
H516 C530 0.960 . S
H517 C530 0.961 . S
H518 C530 0.959 . S
H519 C533 0.929 . S
H520 C534 0.931 . S
H521 C536 0.930 . S
C522 H510 0.930 . S
C522 C523 1.399 . S
C522 C527 1.399 . S
C523 C522 1.399 . S
C523 C524 1.376 . S
C524 H511 0.930 . S
C524 C523 1.376 . S
C524 C525 1.388 . S
C525 H512 0.930 . S
C525 C524 1.388 . S
C525 C526 1.390 . S
C526 C525 1.390 . S
C526 C527 1.394 . S
C526 C532 1.465 . S
C527 C522 1.399 . S
C527 C526 1.394 . S
C527 C528 1.516 . S
C528 C527 1.516 . S
C528 C529 1.502 . S
C528 C530 1.561 . S
C528 C531 1.526 . S
C529 H513 0.959 . S
C529 H514 0.959 . S
C529 H515 0.961 . S
C529 C528 1.502 . S
C530 H516 0.960 . S
C530 H517 0.961 . S
C530 H518 0.959 . S
C530 C528 1.561 . S
C531 C528 1.526 . S
C531 C532 1.396 . S
C531 C536 1.390 . S
C532 C526 1.465 . S
C532 C531 1.396 . S
C532 C533 1.399 . S
C533 H519 0.929 . S
C533 C532 1.399 . S
C533 C534 1.385 . S
C534 H520 0.931 . S
C534 C533 1.385 . S
C534 C535 1.389 . S
C535 C534 1.389 . S
C535 C536 1.387 . S
C536 H521 0.930 . S
C536 C531 1.390 . S
C536 C535 1.387 . S
H537 C549 0.930 . S
H538 C551 0.930 . S
H539 C552 0.930 . S
H540 C556 0.959 . S
H541 C556 0.959 . S
H542 C556 0.961 . S
H543 C557 0.960 . S
H544 C557 0.961 . S
H545 C557 0.959 . S
H546 C560 0.929 1_554 S
H547 C561 0.931 . S
H548 C563 0.930 . S
C549 H537 0.930 . S
C549 C550 1.399 . S
C549 C554 1.399 . S
C550 C549 1.399 . S
C550 C551 1.376 1_556 S
C551 H538 0.930 . S
C551 C550 1.376 1_554 S
C551 C552 1.388 . S
C552 H539 0.930 . S
C552 C551 1.388 . S
C552 C553 1.390 1_554 S
C553 C552 1.390 1_556 S
C553 C554 1.394 . S
C553 C559 1.465 . S
C554 C549 1.399 . S
C554 C553 1.394 . S
C554 C555 1.516 . S
C555 C554 1.516 . S
C555 C556 1.502 . S
C555 C557 1.561 . S
C555 C558 1.526 . S
C556 H540 0.959 . S
C556 H541 0.959 . S
C556 H542 0.961 . S
C556 C555 1.502 . S
C557 H543 0.960 . S
C557 H544 0.961 . S
C557 H545 0.959 . S
C557 C555 1.561 . S
C558 C555 1.526 . S
C558 C559 1.396 . S
C558 C563 1.390 . S
C559 C553 1.465 . S
C559 C558 1.396 . S
C559 C560 1.399 . S
C560 H546 0.929 1_556 S
C560 C559 1.399 . S
C560 C561 1.385 . S
C561 H547 0.931 . S
C561 C560 1.385 . S
C561 C562 1.389 . S
C562 C561 1.389 . S
C562 C563 1.387 . S
C563 H548 0.930 . S
C563 C558 1.390 . S
C563 C562 1.387 . S
H564 C576 0.930 . S
H565 C578 0.930 . S
H566 C579 0.930 . S
H567 C583 0.959 . S
H568 C583 0.959 . S
H569 C583 0.961 . S
H570 C584 0.960 . S
H571 C584 0.961 . S
H572 C584 0.959 . S
H573 C587 0.929 . S
H574 C588 0.931 . S
H575 C590 0.930 . S
C576 H564 0.930 . S
C576 C577 1.399 . S
C576 C581 1.399 . S
C577 C576 1.399 . S
C577 C578 1.376 . S
C578 H565 0.930 . S
C578 C577 1.376 . S
C578 C579 1.388 . S
C579 H566 0.930 . S
C579 C578 1.388 . S
C579 C580 1.390 . S
C580 C579 1.390 . S
C580 C581 1.394 . S
C580 C586 1.465 . S
C581 C576 1.399 . S
C581 C580 1.394 . S
C581 C582 1.516 1_554 S
C582 C581 1.516 1_556 S
C582 C583 1.502 . S
C582 C584 1.561 . S
C582 C585 1.526 1_556 S
C583 H567 0.959 . S
C583 H568 0.959 . S
C583 H569 0.961 . S
C583 C582 1.502 . S
C584 H570 0.960 . S
C584 H571 0.961 . S
C584 H572 0.959 . S
C584 C582 1.561 . S
C585 C582 1.526 1_554 S
C585 C586 1.396 . S
C585 C590 1.390 1_554 S
C586 C580 1.465 . S
C586 C585 1.396 . S
C586 C587 1.399 . S
C587 H573 0.929 . S
C587 C586 1.399 . S
C587 C588 1.385 . S
C588 H574 0.931 . S
C588 C587 1.385 . S
C588 C589 1.389 . S
C589 C588 1.389 . S
C589 C590 1.387 1_554 S
C590 H575 0.930 . S
C590 C585 1.390 1_556 S
C590 C589 1.387 1_556 S
H591 C603 0.930 . S
H592 C605 0.930 . S
H593 C606 0.930 . S
H594 C610 0.959 . S
H595 C610 0.959 . S
H596 C610 0.961 . S
H597 C611 0.960 . S
H598 C611 0.961 . S
H599 C611 0.959 . S
H600 C614 0.929 . S
H601 C615 0.931 . S
H602 C617 0.930 . S
C603 H591 0.930 . S
C603 C604 1.399 . S
C603 C608 1.399 . S
C604 C603 1.399 . S
C604 C605 1.376 . S
C605 H592 0.930 . S
C605 C604 1.376 . S
C605 C606 1.388 . S
C606 H593 0.930 . S
C606 C605 1.388 . S
C606 C607 1.390 . S
C607 C606 1.390 . S
C607 C608 1.394 . S
C607 C613 1.465 . S
C608 C603 1.399 . S
C608 C607 1.394 . S
C608 C609 1.516 . S
C609 C608 1.516 . S
C609 C610 1.502 . S
C609 C611 1.561 . S
C609 C612 1.526 . S
C610 H594 0.959 . S
C610 H595 0.959 . S
C610 H596 0.961 . S
C610 C609 1.502 . S
C611 H597 0.960 . S
C611 H598 0.961 . S
C611 H599 0.959 . S
C611 C609 1.561 . S
C612 C609 1.526 . S
C612 C613 1.396 . S
C612 C617 1.390 . S
C613 C607 1.465 . S
C613 C612 1.396 . S
C613 C614 1.399 . S
C614 H600 0.929 . S
C614 C613 1.399 . S
C614 C615 1.385 . S
C615 H601 0.931 . S
C615 C614 1.385 . S
C615 C616 1.389 . S
C616 C615 1.389 . S
C616 C617 1.387 . S
C617 H602 0.930 . S
C617 C612 1.390 . S
C617 C616 1.387 . S
C145 C10 1.417 . S
C157 C7 1.459 . S
C172 C32 1.442 . S
C184 C29 1.471 1_554 S
C199 C65 1.460 . S
C211 C62 1.419 . S
C226 C87 1.469 . S
C238 C84 1.456 . S
C253 C109 1.424 . S
C265 C106 1.471 1_556 S
C280 C128 1.411 . S
C292 C131 1.420 . S
C307 C15 1.589 . S
C319 C118 1.578 . S
C334 C18 1.574 . S
C346 C37 1.546 . S
C361 C51 1.589 . S
C373 C40 1.579 . S
C388 C73 1.545 . S
C400 C52 1.576 . S
C415 C95 1.580 . S
C427 C74 1.568 . S
C442 C96 1.564 . S
C454 C117 1.566 . S
C469 C8 1.307 . S
C481 C103 1.332 . S
C496 C30 1.329 . S
C508 C125 1.282 . S
C523 C54 1.338 . S
C535 C21 1.306 . S
C550 C76 1.305 1_556 S
C562 C43 1.326 . S
C577 C98 1.311 . S
C589 C59 1.335 1_554 S
C604 C81 1.281 . S
C616 C120 1.320 . S
