# Generated by pormake.
# Topology acs-a, (4)-cn, num edge types: 1
# Building blocks:
#     Node 0, Type 0, BuildingBlock: KUFVIS_clean_sbu_0, # of connection points: 4
#     Node 1, Type 0, BuildingBlock: KUFVIS_clean_sbu_0, # of connection points: 4
#     Node 2, Type 0, BuildingBlock: KUFVIS_clean_sbu_0, # of connection points: 4
#     Node 3, Type 0, BuildingBlock: KUFVIS_clean_sbu_0, # of connection points: 4
#     Node 4, Type 0, BuildingBlock: KUFVIS_clean_sbu_0, # of connection points: 4
#     Node 5, Type 0, BuildingBlock: KUFVIS_clean_sbu_0, # of connection points: 4
#     Node 6, Type 0, BuildingBlock: KUFVIS_clean_sbu_0, # of connection points: 4
#     Node 7, Type 0, BuildingBlock: KUFVIS_clean_sbu_0, # of connection points: 4
#     Node 8, Type 0, BuildingBlock: KUFVIS_clean_sbu_0, # of connection points: 4
#     Node 9, Type 0, BuildingBlock: KUFVIS_clean_sbu_0, # of connection points: 4
#     Node 10, Type 0, BuildingBlock: KUFVIS_clean_sbu_0, # of connection points: 4
#     Node 11, Type 0, BuildingBlock: KUFVIS_clean_sbu_0, # of connection points: 4
#     Edge 12, Type (0, 0), None
#     Edge 13, Type (0, 0), None
#     Edge 14, Type (0, 0), None
#     Edge 15, Type (0, 0), None
#     Edge 16, Type (0, 0), None
#     Edge 17, Type (0, 0), None
#     Edge 18, Type (0, 0), None
#     Edge 19, Type (0, 0), None
#     Edge 20, Type (0, 0), None
#     Edge 21, Type (0, 0), None
#     Edge 22, Type (0, 0), None
#     Edge 23, Type (0, 0), None
#     Edge 24, Type (0, 0), None
#     Edge 25, Type (0, 0), None
#     Edge 26, Type (0, 0), None
#     Edge 27, Type (0, 0), None
#     Edge 28, Type (0, 0), None
#     Edge 29, Type (0, 0), None
#     Edge 30, Type (0, 0), None
#     Edge 31, Type (0, 0), None
#     Edge 32, Type (0, 0), None
#     Edge 33, Type (0, 0), None
#     Edge 34, Type (0, 0), None
#     Edge 35, Type (0, 0), None
# Relax obj value: 0.487
# Max RMSD: 0.257
# Mean RMSD: 0.233
data_MOF--net-acs-a--node1-KUFVIS_clean_sbu_0--edge1-none
_symmetry_space_group_name_H-M    P1
_symmetry_Int_Tables_number       1
_symmetry_cell_setting            triclinic
loop_
_symmetry_equiv_pos_as_xyz
'x, y, z'
_cell_length_a     22.344939
_cell_length_b     22.340784
_cell_length_c     17.943971
_cell_angle_alpha  89.999067
_cell_angle_beta   89.999758
_cell_angle_gamma 116.79421
loop_
_atom_site_label
_atom_site_type_symbol
_atom_site_fract_x
_atom_site_fract_y
_atom_site_fract_z
_atom_type_partial_charge
Mn0 Mn 0.57287 0.15254 0.07668 0.0
Mn1 Mn 0.4211 0.09515 0.1609 0.0
C2 C 0.50383 0.20396 0.05966 0.0
C3 C 0.68457 0.22767 0.04269 0.0
C4 C 0.45662 0.0145 0.05006 0.0
O5 O 0.588 0.11729 0.17902 0.0
O6 O 0.48474 0.08546 0.23248 0.0
C7 C 0.4107 0.13682 0.31493 0.0
N8 N 0.40208 0.14939 0.22973 0.0
C9 C 0.30632 0.20663 0.2234 0.0
C10 C 0.29455 0.20594 0.31683 0.0
C11 C 0.36912 0.15597 0.38226 0.0
C12 C 0.35758 0.1769 0.18695 0.0
H13 H 0.43546 0.10808 0.33259 0.0
C14 C 0.54781 0.10104 0.23621 0.0
O15 O 0.65729 0.16591 0.02139 0.0
O16 O 0.65103 0.24336 0.09154 0.0
N17 N 0.36552 0.11232 0.08958 0.0
C18 C 0.35401 0.08989 0.01771 0.0
C19 C 0.31616 0.10872 0.96987 0.0
C20 C 0.28934 0.15029 0.99591 0.0
C21 C 0.30104 0.17344 0.06958 0.0
C22 C 0.34318 0.1561 0.11422 0.0
H23 H 0.37505 0.05916 0.99562 0.0
O24 O 0.53825 0.19745 0.00452 0.0
O25 O 0.50101 0.16963 0.11819 0.0
O26 O 0.51388 0.05933 0.03192 0.0
O27 O 0.42191 0.02457 0.09874 0.0
C28 C 0.26847 0.20984 0.09842 0.0
C29 C 0.26894 0.22404 0.17431 0.0
H30 H 0.25876 0.22233 0.33863 0.0
H31 H 0.37495 0.14454 0.44032 0.0
H32 H 0.30734 0.09075 0.91295 0.0
H33 H 0.25837 0.163 0.95902 0.0
H34 H 0.23726 0.22278 0.06219 0.0
H35 H 0.23738 0.24552 0.19508 0.0
Mn36 Mn 0.42292 0.61529 0.55936 0.0
Mn37 Mn 0.3435 0.45516 0.59045 0.0
C38 C 0.31205 0.55779 0.51799 0.0
C39 C 0.45726 0.72905 0.57272 0.0
C40 C 0.47636 0.52353 0.52031 0.0
O41 O 0.45748 0.59663 0.66041 0.0
O42 O 0.37195 0.49344 0.68994 0.0
C43 C 0.22031 0.41546 0.69246 0.0
N44 N 0.25197 0.40981 0.61593 0.0
C45 C 0.14044 0.28745 0.55553 0.0
C46 C 0.08206 0.26654 0.62389 0.0
C47 C 0.0975 0.31404 0.70216 0.0
C48 C 0.21823 0.35421 0.55465 0.0
H49 H 0.24951 0.45623 0.73089 0.0
C50 C 0.42245 0.54928 0.70756 0.0
O51 O 0.49493 0.70747 0.53962 0.0
O52 O 0.4034 0.68514 0.60556 0.0
N53 N 0.31493 0.41963 0.4904 0.0
C54 C 0.34322 0.44655 0.42342 0.0
C55 C 0.31894 0.4102 0.35749 0.0
C56 C 0.26227 0.34817 0.35969 0.0
C57 C 0.22759 0.32519 0.42694 0.0
C58 C 0.25489 0.36433 0.49118 0.0
H59 H 0.38289 0.49621 0.41876 0.0
O60 O 0.35667 0.60693 0.47922 0.0
O61 O 0.33723 0.53828 0.57149 0.0
O62 O 0.46554 0.57002 0.4951 0.0
O63 O 0.43965 0.48736 0.57115 0.0
C64 C 0.16585 0.26672 0.42897 0.0
C65 C 0.12414 0.24768 0.49181 0.0
H66 H 0.0343 0.22291 0.61778 0.0
H67 H 0.05821 0.29996 0.74444 0.0
H68 H 0.34314 0.43072 0.30483 0.0
H69 H 0.24314 0.32082 0.30824 0.0
H70 H 0.14809 0.236 0.37938 0.0
H71 H 0.07715 0.20249 0.48931 0.0
Mn72 Mn 0.79897 0.39615 0.0324 0.0
Mn73 Mn 0.87731 0.30689 0.0778 0.0
C74 C 0.74713 0.28011 0.00878 0.0
C75 C 0.71807 0.43564 0.03646 0.0
C76 C 0.9388 0.43607 0.99151 0.0
O77 O 0.85442 0.43803 0.13012 0.0
O78 O 0.87385 0.35175 0.17239 0.0
C79 C 0.77373 0.19631 0.1636 0.0
N80 N 0.82284 0.21767 0.11177 0.0
C81 C 0.79722 0.10392 0.07989 0.0
C82 C 0.75309 0.08132 0.14028 0.0
C83 C 0.73942 0.12752 0.18043 0.0
C84 C 0.8303 0.17308 0.06657 0.0
H85 H 0.76003 0.23212 0.18878 0.0
C86 C 0.87244 0.40836 0.18208 0.0
O87 O 0.77381 0.46838 0.00122 0.0
O88 O 0.71347 0.38603 0.07793 0.0
N89 N 0.88137 0.26307 0.98652 0.0
C90 C 0.90014 0.28823 0.91654 0.0
C91 C 0.90751 0.24826 0.86043 0.0
C92 C 0.89189 0.18128 0.8755 0.0
C93 C 0.86626 0.15439 0.94558 0.0
C94 C 0.86232 0.19752 4e-05 0.0
H95 H 0.90682 0.33718 0.90232 0.0
O96 O 0.73932 0.32089 0.96256 0.0
O97 O 0.79462 0.31122 0.05499 0.0
O98 O 0.88238 0.42695 0.96703 0.0
O99 O 0.94234 0.39748 0.04137 0.0
C100 C 0.84055 0.08566 0.96196 0.0
C101 C 0.80508 0.06022 0.02883 0.0
H102 H 0.72564 0.02829 0.15266 0.0
H103 H 0.70149 0.10952 0.22271 0.0
H104 H 0.92367 0.26864 0.80519 0.0
H105 H 0.89602 0.15004 0.83161 0.0
H106 H 0.84461 0.05163 0.92172 0.0
H107 H 0.78093 0.00678 0.03872 0.0
Mn108 Mn 0.39652 0.84812 0.57668 0.0
Mn109 Mn 0.5483 0.90555 0.6609 0.0
C110 C 0.46556 0.79678 0.55962 0.0
C111 C 0.28482 0.77299 0.5427 0.0
C112 C 0.51277 0.98619 0.55006 0.0
O113 O 0.38139 0.88336 0.67903 0.0
O114 O 0.48465 0.91522 0.73249 0.0
C115 C 0.55872 0.86388 0.81494 0.0
N116 N 0.56734 0.85132 0.72974 0.0
C117 C 0.6631 0.79409 0.7234 0.0
C118 C 0.67487 0.79476 0.81683 0.0
C119 C 0.6003 0.84473 0.88227 0.0
C120 C 0.61184 0.82382 0.68695 0.0
H121 H 0.53395 0.89262 0.8326 0.0
C122 C 0.42158 0.89961 0.73622 0.0
O123 O 0.31209 0.83476 0.52141 0.0
O124 O 0.31836 0.75729 0.59154 0.0
N125 N 0.60388 0.88839 0.58958 0.0
C126 C 0.61539 0.91082 0.51771 0.0
C127 C 0.65324 0.892 0.46986 0.0
C128 C 0.68007 0.85043 0.4959 0.0
C129 C 0.66838 0.82728 0.56957 0.0
C130 C 0.62623 0.84461 0.61422 0.0
H131 H 0.59434 0.94154 0.49562 0.0
O132 O 0.43113 0.80323 0.50447 0.0
O133 O 0.4684 0.83106 0.61821 0.0
O134 O 0.45551 0.94135 0.53192 0.0
O135 O 0.54747 0.97613 0.59874 0.0
C136 C 0.70095 0.79088 0.59841 0.0
C137 C 0.70048 0.77668 0.6743 0.0
H138 H 0.71066 0.77837 0.83862 0.0
H139 H 0.59446 0.85615 0.94032 0.0
H140 H 0.66206 0.90996 0.41294 0.0
H141 H 0.71104 0.83772 0.45901 0.0
H142 H 0.73217 0.77794 0.56218 0.0
H143 H 0.73204 0.7552 0.69507 0.0
Mn144 Mn 0.54649 0.38543 0.05937 0.0
Mn145 Mn 0.62589 0.54556 0.09045 0.0
C146 C 0.65727 0.44288 0.01799 0.0
C147 C 0.51214 0.27169 0.07275 0.0
C148 C 0.49303 0.47718 0.02031 0.0
O149 O 0.51192 0.4041 0.16042 0.0
O150 O 0.59744 0.50729 0.18994 0.0
C151 C 0.74907 0.58526 0.19246 0.0
N152 N 0.71741 0.59092 0.11593 0.0
C153 C 0.82896 0.71325 0.05551 0.0
C154 C 0.88734 0.73415 0.12386 0.0
C155 C 0.87189 0.68666 0.20214 0.0
C156 C 0.75116 0.64651 0.05464 0.0
H157 H 0.71987 0.5445 0.2309 0.0
C158 C 0.54694 0.45145 0.20756 0.0
O159 O 0.47446 0.29326 0.03966 0.0
O160 O 0.566 0.31559 0.1056 0.0
N161 N 0.65446 0.58109 0.99039 0.0
C162 C 0.62618 0.55417 0.92342 0.0
C163 C 0.65045 0.59051 0.85748 0.0
C164 C 0.70714 0.65254 0.85968 0.0
C165 C 0.7418 0.67552 0.92692 0.0
C166 C 0.71451 0.63638 0.99117 0.0
H167 H 0.5865 0.5045 0.91876 0.0
O168 O 0.61268 0.39373 0.9792 0.0
O169 O 0.63218 0.46245 0.07153 0.0
O170 O 0.50387 0.4307 0.9951 0.0
O171 O 0.52974 0.51335 0.07115 0.0
C172 C 0.80355 0.73398 0.92895 0.0
C173 C 0.84526 0.75302 0.99178 0.0
H174 H 0.93511 0.77777 0.11775 0.0
H175 H 0.91119 0.70073 0.24442 0.0
H176 H 0.62626 0.56998 0.80482 0.0
H177 H 0.72626 0.67988 0.80822 0.0
H178 H 0.82131 0.7647 0.87936 0.0
H179 H 0.89226 0.7982 0.98928 0.0
Mn180 Mn 0.17037 0.60452 0.53241 0.0
Mn181 Mn 0.09205 0.69379 0.57779 0.0
C182 C 0.22224 0.72056 0.50879 0.0
C183 C 0.25124 0.56502 0.53646 0.0
C184 C 0.03055 0.56461 0.49151 0.0
O185 O 0.1149 0.56262 0.63012 0.0
O186 O 0.09549 0.64892 0.67239 0.0
C187 C 0.19563 0.80435 0.66361 0.0
N188 N 0.14653 0.783 0.61177 0.0
C189 C 0.17218 0.89676 0.57989 0.0
C190 C 0.2163 0.91935 0.64028 0.0
C191 C 0.22995 0.87314 0.68044 0.0
C192 C 0.13909 0.8276 0.56657 0.0
H193 H 0.20932 0.76853 0.68879 0.0
C194 C 0.09689 0.5923 0.68207 0.0
O195 O 0.19551 0.53227 0.50122 0.0
O196 O 0.25585 0.61462 0.57796 0.0
N197 N 0.08801 0.73762 0.48652 0.0
C198 C 0.06922 0.71246 0.41654 0.0
C199 C 0.06187 0.75244 0.36042 0.0
C200 C 0.07751 0.81942 0.37549 0.0
C201 C 0.10315 0.8463 0.44558 0.0
C202 C 0.10707 0.80317 0.50004 0.0
H203 H 0.06253 0.6635 0.40232 0.0
O204 O 0.23005 0.67977 0.46258 0.0
O205 O 0.17474 0.68945 0.555 0.0
O206 O 0.08698 0.57374 0.46702 0.0
O207 O 0.02702 0.6032 0.54136 0.0
C208 C 0.12887 0.91504 0.46196 0.0
C209 C 0.16434 0.94047 0.52883 0.0
H210 H 0.24377 0.97238 0.65267 0.0
H211 H 0.26788 0.89112 0.72272 0.0
H212 H 0.0457 0.73206 0.30519 0.0
H213 H 0.07339 0.85067 0.33161 0.0
H214 H 0.12482 0.94907 0.42172 0.0
H215 H 0.1885 0.9939 0.53872 0.0
Mn216 Mn 0.83232 0.41239 0.41847 0.0
Mn217 Mn 0.88984 0.5641 0.33401 0.0
C218 C 0.78093 0.48149 0.43522 0.0
C219 C 0.75714 0.3007 0.45256 0.0
C220 C 0.97035 0.52865 0.4451 0.0
O221 O 0.86766 0.39714 0.31623 0.0
O222 O 0.89954 0.50035 0.26257 0.0
C223 C 0.84828 0.57438 0.17988 0.0
N224 N 0.83567 0.58308 0.26505 0.0
C225 C 0.77844 0.67886 0.27112 0.0
C226 C 0.77917 0.69055 0.17767 0.0
C227 C 0.82917 0.61592 0.11244 0.0
C228 C 0.80814 0.62763 0.30771 0.0
H229 H 0.87701 0.54958 0.16231 0.0
C230 C 0.884 0.43729 0.25898 0.0
O231 O 0.81887 0.328 0.47394 0.0
O232 O 0.74151 0.3342 0.4036 0.0
N233 N 0.87268 0.61979 0.40518 0.0
C234 C 0.89512 0.63142 0.47704 0.0
C235 C 0.87628 0.66933 0.52479 0.0
C236 C 0.83471 0.69611 0.49865 0.0
C237 C 0.81156 0.68431 0.42498 0.0
C238 C 0.82891 0.64211 0.38045 0.0
H239 H 0.92587 0.61044 0.49921 0.0
O240 O 0.78736 0.44712 0.49044 0.0
O241 O 0.81531 0.48425 0.37676 0.0
O242 O 0.92547 0.47143 0.46333 0.0
O243 O 0.96038 0.56331 0.39627 0.0
C244 C 0.77518 0.71685 0.39603 0.0
C245 C 0.76101 0.7163 0.32012 0.0
H246 H 0.76281 0.72634 0.15579 0.0
H247 H 0.84063 0.61003 0.05442 0.0
H248 H 0.89425 0.67825 0.5817 0.0
H249 H 0.82199 0.72713 0.53546 0.0
H250 H 0.76223 0.74812 0.43218 0.0
H251 H 0.73955 0.74785 0.29926 0.0
Mn252 Mn 0.38074 0.81445 0.96274 0.0
Mn253 Mn 0.2914 0.89277 0.91765 0.0
C254 C 0.26464 0.76251 0.98649 0.0
C255 C 0.42016 0.73351 0.95844 0.0
C256 C 0.42069 0.95427 0.00367 0.0
O257 O 0.42248 0.86996 0.86501 0.0
O258 O 0.33612 0.88933 0.82296 0.0
C259 C 0.1807 0.78918 0.832 0.0
N260 N 0.20214 0.83828 0.88384 0.0
C261 C 0.08847 0.81267 0.916 0.0
C262 C 0.06577 0.76853 0.85562 0.0
C263 C 0.11189 0.75487 0.81532 0.0
C264 C 0.15764 0.84576 0.92917 0.0
H265 H 0.21646 0.77547 0.8067 0.0
C266 C 0.39275 0.88801 0.81316 0.0
O267 O 0.45297 0.78923 0.99371 0.0
O268 O 0.37052 0.72896 0.91707 0.0
N269 N 0.24775 0.89682 0.00905 0.0
C270 C 0.27301 0.91555 0.07899 0.0
C271 C 0.23316 0.92294 0.13522 0.0
C272 C 0.16618 0.90736 0.1203 0.0
C273 C 0.13918 0.88174 0.05025 0.0
C274 C 0.1822 0.87778 0.99567 0.0
H275 H 0.32195 0.92217 0.09311 0.0
O276 O 0.30552 0.75473 0.03258 0.0
O277 O 0.29579 0.81008 0.94038 0.0
O278 O 0.41163 0.89785 0.02816 0.0
O279 O 0.38202 0.9578 0.95392 0.0
C280 C 0.07044 0.85603 0.03403 0.0
C281 C 0.04488 0.82053 0.9672 0.0
H282 H 0.01273 0.74107 0.84335 0.0
H283 H 0.09383 0.71694 0.77303 0.0
H284 H 0.25362 0.93907 0.19043 0.0
H285 H 0.13502 0.9115 0.16427 0.0
H286 H 0.0365 0.86011 0.07436 0.0
H287 H -0.00857 0.79636 0.95745 0.0
Mn288 Mn 0.59949 0.43884 0.43526 0.0
Mn289 Mn 0.4394 0.35931 0.40406 0.0
C290 C 0.542 0.32798 0.47675 0.0
C291 C 0.71324 0.47319 0.422 0.0
C292 C 0.50769 0.49226 0.47408 0.0
O293 O 0.58088 0.4733 0.33413 0.0
O294 O 0.47774 0.38771 0.30458 0.0
C295 C 0.39983 0.23605 0.30218 0.0
N296 N 0.39411 0.26775 0.37866 0.0
C297 C 0.27175 0.1562 0.43903 0.0
C298 C 0.25091 0.09778 0.37072 0.0
C299 C 0.29846 0.11319 0.29251 0.0
C300 C 0.33848 0.23403 0.4399 0.0
H301 H 0.44062 0.26523 0.26377 0.0
C302 C 0.53358 0.43822 0.28697 0.0
O303 O 0.69164 0.5109 0.45499 0.0
O304 O 0.66936 0.41929 0.38918 0.0
N305 N 0.40382 0.33079 0.5041 0.0
C306 C 0.43074 0.35909 0.57107 0.0
C307 C 0.39441 0.33481 0.63701 0.0
C308 C 0.33241 0.2781 0.63482 0.0
C309 C 0.30943 0.24341 0.56758 0.0
C310 C 0.34855 0.27072 0.50333 0.0
H311 H 0.48039 0.39879 0.57572 0.0
O312 O 0.59111 0.37265 0.5155 0.0
O313 O 0.52251 0.35311 0.42317 0.0
O314 O 0.55418 0.48149 0.49937 0.0
O315 O 0.47151 0.45549 0.42328 0.0
C316 C 0.25098 0.18164 0.56556 0.0
C317 C 0.23197 0.13991 0.50274 0.0
H318 H 0.20731 0.04999 0.37684 0.0
H319 H 0.28444 0.07386 0.25026 0.0
H320 H 0.41493 0.35901 0.68967 0.0
H321 H 0.30508 0.25896 0.68629 0.0
H322 H 0.22027 0.16387 0.61516 0.0
H323 H 0.18681 0.09289 0.50524 0.0
Mn324 Mn 0.13702 0.58829 0.91846 0.0
Mn325 Mn 0.07953 0.43658 0.83402 0.0
C326 C 0.18844 0.51921 0.93521 0.0
C327 C 0.21218 0.69996 0.95256 0.0
C328 C -0.00099 0.47202 0.94511 0.0
O329 O 0.10167 0.60352 0.81623 0.0
O330 O 0.06981 0.50031 0.76258 0.0
C331 C 0.12108 0.4263 0.67989 0.0
N332 N 0.13371 0.41761 0.76506 0.0
C333 C 0.19098 0.32187 0.77113 0.0
C334 C 0.19024 0.31018 0.67769 0.0
C335 C 0.1402 0.38478 0.61246 0.0
C336 C 0.16125 0.37309 0.80772 0.0
H337 H 0.09234 0.45109 0.66232 0.0
C338 C 0.08533 0.56338 0.75897 0.0
O339 O 0.15044 0.67267 0.97392 0.0
O340 O 0.22782 0.66649 0.90358 0.0
N341 N 0.09671 0.38091 0.90519 0.0
C342 C 0.07427 0.36927 0.97706 0.0
C343 C 0.09312 0.33137 0.0248 0.0
C344 C 0.13472 0.30461 -0.00133 0.0
C345 C 0.15786 0.31641 0.925 0.0
C346 C 0.1405 0.35861 0.88046 0.0
H347 H 0.0435 0.39023 -0.00078 0.0
O348 O 0.18199 0.55358 0.99044 0.0
O349 O 0.15405 0.51645 0.87675 0.0
O350 O 0.04388 0.52924 0.96333 0.0
O351 O 0.00899 0.43736 0.89629 0.0
C352 C 0.19426 0.28389 0.89605 0.0
C353 C 0.20843 0.28444 0.82013 0.0
H354 H 0.20661 0.27439 0.6558 0.0
H355 H 0.12874 0.39065 0.55443 0.0
H356 H 0.07516 0.32245 0.08172 0.0
H357 H 0.14745 0.2736 0.03548 0.0
H358 H 0.20721 0.25263 0.9322 0.0
H359 H 0.22989 0.2529 0.79928 0.0
Mn360 Mn 0.58867 0.18623 0.46271 0.0
Mn361 Mn 0.67798 0.1079 0.41764 0.0
C362 C 0.70467 0.23814 0.48648 0.0
C363 C 0.54922 0.26714 0.45841 0.0
C364 C 0.5487 0.04642 0.50367 0.0
O365 O 0.54691 0.1307 0.365 0.0
O366 O 0.63326 0.11132 0.32294 0.0
C367 C 0.78869 0.21148 0.33199 0.0
N368 N 0.76724 0.16237 0.38383 0.0
C369 C 0.88091 0.188 0.41601 0.0
C370 C 0.90362 0.23213 0.35562 0.0
C371 C 0.8575 0.24579 0.3153 0.0
C372 C 0.81175 0.15491 0.42917 0.0
H373 H 0.75293 0.22519 0.30668 0.0
C374 C 0.57664 0.11265 0.31315 0.0
O375 O 0.51641 0.21142 0.49368 0.0
O376 O 0.59885 0.27171 0.41702 0.0
N377 N 0.72164 0.10387 0.50905 0.0
C378 C 0.69637 0.08515 0.579 0.0
C379 C 0.73622 0.07778 0.63524 0.0
C380 C 0.8032 0.09336 0.62032 0.0
C381 C 0.83021 0.11896 0.55027 0.0
C382 C 0.78718 0.1229 0.49568 0.0
H383 H 0.64743 0.07854 0.59311 0.0
O384 O 0.66384 0.24598 0.5326 0.0
O385 O 0.67361 0.1906 0.4403 0.0
O386 O 0.55779 0.10284 0.52815 0.0
O387 O 0.58736 0.04288 0.45391 0.0
C388 C 0.89895 0.14467 0.53405 0.0
C389 C 0.92451 0.18015 0.46721 0.0
H390 H 0.95666 0.25959 0.34335 0.0
H391 H 0.87556 0.28372 0.27302 0.0
H392 H 0.71576 0.06165 0.69045 0.0
H393 H 0.83436 0.08923 0.6643 0.0
H394 H 0.93289 0.1406 0.57439 0.0
H395 H 0.97796 0.20432 0.45747 0.0
Mn396 Mn 0.3699 0.5619 0.93526 0.0
Mn397 Mn 0.53 0.64139 0.90405 0.0
C398 C 0.42737 0.67266 0.97677 0.0
C399 C 0.25615 0.52754 0.922 0.0
C400 C 0.4617 0.50845 0.97408 0.0
O401 O 0.3885 0.52743 0.83413 0.0
O402 O 0.49166 0.613 0.80458 0.0
C403 C 0.56959 0.76466 0.80218 0.0
N404 N 0.5753 0.73295 0.87865 0.0
C405 C 0.69767 0.84449 0.93902 0.0
C406 C 0.7185 0.90292 0.87073 0.0
C407 C 0.67095 0.88752 0.79251 0.0
C408 C 0.63094 0.76666 0.93989 0.0
H409 H 0.5288 0.73548 0.76377 0.0
C410 C 0.43581 0.5625 0.78696 0.0
O411 O 0.27776 0.48983 0.95499 0.0
O412 O 0.30002 0.58144 0.88919 0.0
N413 N 0.56558 0.66991 0.0041 0.0
C414 C 0.53865 0.64161 0.07107 0.0
C415 C 0.57498 0.66589 0.13701 0.0
C416 C 0.63699 0.72259 0.13482 0.0
C417 C 0.65998 0.75727 0.06758 0.0
C418 C 0.62085 0.72997 0.00333 0.0
H419 H 0.489 0.60192 0.07571 0.0
O420 O 0.37824 0.62803 0.01555 0.0
O421 O 0.4469 0.64762 0.92314 0.0
O422 O 0.41521 0.51923 -0.00063 0.0
O423 O 0.49787 0.54521 0.92326 0.0
C424 C 0.71842 0.81904 0.06556 0.0
C425 C 0.73745 0.86077 0.00274 0.0
H426 H 0.76211 0.95071 0.87684 0.0
H427 H 0.68498 0.92685 0.75027 0.0
H428 H 0.55445 0.64169 0.18967 0.0
H429 H 0.66431 0.74173 0.18629 0.0
H430 H 0.74913 0.8368 0.11515 0.0
H431 H 0.7826 0.9078 0.00524 0.0
loop_
_geom_bond_atom_site_label_1
_geom_bond_atom_site_label_2
_geom_bond_distance
_geom_bond_site_symmetry_2
_ccdc_geom_bond_type
Mn0 O5 2.095 . S
Mn0 O15 2.162 . S
Mn0 O16 2.297 . S
Mn0 O24 2.385 1_554 S
Mn0 O25 2.209 . S
Mn0 O26 2.094 1_554 S
Mn1 O6 2.121 . S
Mn1 N8 2.257 . S
Mn1 N17 2.282 . S
Mn1 O25 2.215 . S
Mn1 O27 2.117 . S
C2 O24 1.234 1_554 S
C2 O25 1.283 . S
C3 O15 1.281 . S
C3 O16 1.236 . S
C4 O26 1.243 . S
C4 O27 1.255 1_556 S
O5 Mn0 2.095 . S
O5 C14 1.250 . S
O6 Mn1 2.121 . S
O6 C14 1.258 . S
C7 N8 1.326 . S
C7 C11 1.460 . S
C7 H13 0.929 . S
N8 Mn1 2.257 . S
N8 C7 1.326 . S
N8 C12 1.362 . S
C9 C10 1.258 . S
C9 C12 1.431 . S
C9 C29 1.449 . S
C10 C9 1.258 . S
C10 C11 1.477 . S
C10 H30 0.931 . S
C11 C7 1.460 . S
C11 C10 1.477 . S
C11 H31 0.930 . S
C12 N8 1.362 . S
C12 C9 1.431 . S
C12 C22 1.476 . S
H13 C7 0.929 . S
C14 O5 1.250 . S
C14 O6 1.258 . S
O15 Mn0 2.162 . S
O15 C3 1.281 . S
O16 Mn0 2.297 . S
O16 C3 1.236 . S
N17 Mn1 2.282 . S
N17 C18 1.328 1_554 S
N17 C22 1.318 . S
C18 N17 1.328 1_556 S
C18 C19 1.457 . S
C18 H23 0.929 . S
C19 C18 1.457 . S
C19 C20 1.291 . S
C19 H32 0.931 . S
C20 C19 1.291 . S
C20 C21 1.373 1_556 S
C20 H33 0.929 . S
C21 C20 1.373 1_554 S
C21 C22 1.396 . S
C21 C28 1.403 . S
C22 C12 1.476 . S
C22 N17 1.318 . S
C22 C21 1.396 . S
H23 C18 0.929 . S
O24 Mn0 2.385 1_556 S
O24 C2 1.234 1_556 S
O25 Mn0 2.209 . S
O25 Mn1 2.215 . S
O25 C2 1.283 . S
O26 Mn0 2.094 1_556 S
O26 C4 1.243 . S
O27 Mn1 2.117 . S
O27 C4 1.255 1_554 S
C28 C21 1.403 . S
C28 C29 1.399 . S
C28 H34 0.929 . S
C29 C9 1.449 . S
C29 C28 1.399 . S
C29 H35 0.930 . S
H30 C10 0.931 . S
H31 C11 0.930 . S
H32 C19 0.931 . S
H33 C20 0.929 . S
H34 C28 0.929 . S
H35 C29 0.930 . S
Mn36 O41 2.095 . S
Mn36 O51 2.162 . S
Mn36 O52 2.297 . S
Mn36 O60 2.385 . S
Mn36 O61 2.209 . S
Mn36 O62 2.094 . S
Mn37 O42 2.121 . S
Mn37 N44 2.257 . S
Mn37 N53 2.282 . S
Mn37 O61 2.215 . S
Mn37 O63 2.117 . S
C38 O60 1.234 . S
C38 O61 1.283 . S
C39 O51 1.281 . S
C39 O52 1.236 . S
C40 O62 1.240 . S
C40 O63 1.264 . S
O41 Mn36 2.095 . S
O41 C50 1.250 . S
O42 Mn37 2.121 . S
O42 C50 1.258 . S
C43 N44 1.326 . S
C43 C47 1.460 . S
C43 H49 0.929 . S
N44 Mn37 2.257 . S
N44 C43 1.326 . S
N44 C48 1.362 . S
C45 C46 1.258 . S
C45 C48 1.431 . S
C45 C65 1.449 . S
C46 C45 1.258 . S
C46 C47 1.477 . S
C46 H66 0.931 . S
C47 C43 1.460 . S
C47 C46 1.477 . S
C47 H67 0.930 . S
C48 N44 1.362 . S
C48 C45 1.431 . S
C48 C58 1.476 . S
H49 C43 0.929 . S
C50 O41 1.250 . S
C50 O42 1.258 . S
O51 Mn36 2.162 . S
O51 C39 1.281 . S
O52 Mn36 2.297 . S
O52 C39 1.236 . S
N53 Mn37 2.282 . S
N53 C54 1.328 . S
N53 C58 1.318 . S
C54 N53 1.328 . S
C54 C55 1.457 . S
C54 H59 0.929 . S
C55 C54 1.457 . S
C55 C56 1.291 . S
C55 H68 0.931 . S
C56 C55 1.291 . S
C56 C57 1.373 . S
C56 H69 0.929 . S
C57 C56 1.373 . S
C57 C58 1.396 . S
C57 C64 1.403 . S
C58 C48 1.476 . S
C58 N53 1.318 . S
C58 C57 1.396 . S
H59 C54 0.929 . S
O60 Mn36 2.385 . S
O60 C38 1.234 . S
O61 Mn36 2.209 . S
O61 Mn37 2.215 . S
O61 C38 1.283 . S
O62 Mn36 2.094 . S
O62 C40 1.240 . S
O63 Mn37 2.117 . S
O63 C40 1.264 . S
C64 C57 1.403 . S
C64 C65 1.399 . S
C64 H70 0.929 . S
C65 C45 1.449 . S
C65 C64 1.399 . S
C65 H71 0.930 . S
H66 C46 0.931 . S
H67 C47 0.930 . S
H68 C55 0.931 . S
H69 C56 0.929 . S
H70 C64 0.929 . S
H71 C65 0.930 . S
Mn72 O77 2.095 . S
Mn72 O87 2.162 . S
Mn72 O88 2.297 . S
Mn72 O96 2.385 1_554 S
Mn72 O97 2.209 . S
Mn72 O98 2.094 1_554 S
Mn73 O78 2.121 . S
Mn73 N80 2.257 . S
Mn73 N89 2.282 . S
Mn73 O97 2.215 . S
Mn73 O99 2.117 . S
C74 O96 1.234 . S
C74 O97 1.283 1_556 S
C75 O87 1.281 . S
C75 O88 1.236 . S
C76 O98 1.240 . S
C76 O99 1.264 1_556 S
O77 Mn72 2.095 . S
O77 C86 1.250 . S
O78 Mn73 2.121 . S
O78 C86 1.258 . S
C79 N80 1.326 . S
C79 C83 1.460 . S
C79 H85 0.929 . S
N80 Mn73 2.257 . S
N80 C79 1.326 . S
N80 C84 1.362 . S
C81 C82 1.258 . S
C81 C84 1.431 . S
C81 C101 1.449 . S
C82 C81 1.258 . S
C82 C83 1.477 . S
C82 H102 0.931 . S
C83 C79 1.460 . S
C83 C82 1.477 . S
C83 H103 0.930 . S
C84 N80 1.362 . S
C84 C81 1.431 . S
C84 C94 1.476 . S
H85 C79 0.929 . S
C86 O77 1.250 . S
C86 O78 1.258 . S
O87 Mn72 2.162 . S
O87 C75 1.281 . S
O88 Mn72 2.297 . S
O88 C75 1.236 . S
N89 Mn73 2.282 . S
N89 C90 1.328 1_554 S
N89 C94 1.318 . S
C90 N89 1.328 1_556 S
C90 C91 1.457 . S
C90 H95 0.929 . S
C91 C90 1.457 . S
C91 C92 1.291 . S
C91 H104 0.931 . S
C92 C91 1.291 . S
C92 C93 1.373 . S
C92 H105 0.929 . S
C93 C92 1.373 . S
C93 C94 1.396 1_556 S
C93 C100 1.403 . S
C94 C84 1.476 . S
C94 N89 1.318 . S
C94 C93 1.396 1_554 S
H95 C90 0.929 . S
O96 Mn72 2.385 1_556 S
O96 C74 1.234 . S
O97 Mn72 2.209 . S
O97 Mn73 2.215 . S
O97 C74 1.283 1_554 S
O98 Mn72 2.094 1_556 S
O98 C76 1.240 . S
O99 Mn73 2.117 . S
O99 C76 1.264 1_554 S
C100 C93 1.403 . S
C100 C101 1.399 1_556 S
C100 H106 0.929 . S
C101 C81 1.449 . S
C101 C100 1.399 1_554 S
C101 H107 0.928 1_545 S
H102 C82 0.931 . S
H103 C83 0.930 . S
H104 C91 0.931 . S
H105 C92 0.929 . S
H106 C100 0.929 . S
H107 C101 0.928 1_565 S
Mn108 O113 2.095 . S
Mn108 O123 2.162 . S
Mn108 O124 2.297 . S
Mn108 O132 2.385 . S
Mn108 O133 2.209 . S
Mn108 O134 2.094 . S
Mn109 O114 2.121 . S
Mn109 N116 2.257 . S
Mn109 N125 2.282 . S
Mn109 O133 2.215 . S
Mn109 O135 2.117 . S
C110 O132 1.234 . S
C110 O133 1.283 . S
C111 O123 1.281 . S
C111 O124 1.236 . S
C112 O134 1.240 . S
C112 O135 1.264 . S
O113 Mn108 2.095 . S
O113 C122 1.250 . S
O114 Mn109 2.121 . S
O114 C122 1.258 . S
C115 N116 1.326 . S
C115 C119 1.460 . S
C115 H121 0.929 . S
N116 Mn109 2.257 . S
N116 C115 1.326 . S
N116 C120 1.362 . S
C117 C118 1.258 . S
C117 C120 1.431 . S
C117 C137 1.449 . S
C118 C117 1.258 . S
C118 C119 1.477 . S
C118 H138 0.931 . S
C119 C115 1.460 . S
C119 C118 1.477 . S
C119 H139 0.930 . S
C120 N116 1.362 . S
C120 C117 1.431 . S
C120 C130 1.476 . S
H121 C115 0.929 . S
C122 O113 1.250 . S
C122 O114 1.258 . S
O123 Mn108 2.162 . S
O123 C111 1.281 . S
O124 Mn108 2.297 . S
O124 C111 1.236 . S
N125 Mn109 2.282 . S
N125 C126 1.328 . S
N125 C130 1.318 . S
C126 N125 1.328 . S
C126 C127 1.457 . S
C126 H131 0.929 . S
C127 C126 1.457 . S
C127 C128 1.291 . S
C127 H140 0.931 . S
C128 C127 1.291 . S
C128 C129 1.373 . S
C128 H141 0.929 . S
C129 C128 1.373 . S
C129 C130 1.396 . S
C129 C136 1.403 . S
C130 C120 1.476 . S
C130 N125 1.318 . S
C130 C129 1.396 . S
H131 C126 0.929 . S
O132 Mn108 2.385 . S
O132 C110 1.234 . S
O133 Mn108 2.209 . S
O133 Mn109 2.215 . S
O133 C110 1.283 . S
O134 Mn108 2.094 . S
O134 C112 1.240 . S
O135 Mn109 2.117 . S
O135 C112 1.264 . S
C136 C129 1.403 . S
C136 C137 1.399 . S
C136 H142 0.929 . S
C137 C117 1.449 . S
C137 C136 1.399 . S
C137 H143 0.930 . S
H138 C118 0.931 . S
H139 C119 0.930 . S
H140 C127 0.931 . S
H141 C128 0.929 . S
H142 C136 0.929 . S
H143 C137 0.930 . S
Mn144 O149 2.095 . S
Mn144 O159 2.162 . S
Mn144 O160 2.297 . S
Mn144 O168 2.385 1_554 S
Mn144 O169 2.209 . S
Mn144 O170 2.094 1_554 S
Mn145 O150 2.121 . S
Mn145 N152 2.257 . S
Mn145 N161 2.282 . S
Mn145 O169 2.215 . S
Mn145 O171 2.117 . S
C146 O168 1.234 1_554 S
C146 O169 1.283 . S
C147 O159 1.281 . S
C147 O160 1.236 . S
C148 O170 1.240 . S
C148 O171 1.264 1_556 S
O149 Mn144 2.095 . S
O149 C158 1.250 . S
O150 Mn145 2.121 . S
O150 C158 1.258 . S
C151 N152 1.326 . S
C151 C155 1.460 . S
C151 H157 0.929 . S
N152 Mn145 2.257 . S
N152 C151 1.326 . S
N152 C156 1.362 . S
C153 C154 1.258 . S
C153 C156 1.431 . S
C153 C173 1.449 . S
C154 C153 1.258 . S
C154 C155 1.477 . S
C154 H174 0.931 . S
C155 C151 1.460 . S
C155 C154 1.477 . S
C155 H175 0.930 . S
C156 N152 1.362 . S
C156 C153 1.431 . S
C156 C166 1.476 . S
H157 C151 0.929 . S
C158 O149 1.250 . S
C158 O150 1.258 . S
O159 Mn144 2.162 . S
O159 C147 1.281 . S
O160 Mn144 2.297 . S
O160 C147 1.236 . S
N161 Mn145 2.282 . S
N161 C162 1.328 1_554 S
N161 C166 1.318 . S
C162 N161 1.328 1_556 S
C162 C163 1.457 . S
C162 H167 0.929 . S
C163 C162 1.457 . S
C163 C164 1.291 . S
C163 H176 0.931 . S
C164 C163 1.291 . S
C164 C165 1.373 . S
C164 H177 0.929 . S
C165 C164 1.373 . S
C165 C166 1.396 1_556 S
C165 C172 1.403 1_556 S
C166 C156 1.476 . S
C166 N161 1.318 . S
C166 C165 1.396 1_554 S
H167 C162 0.929 . S
O168 Mn144 2.385 1_556 S
O168 C146 1.234 1_556 S
O169 Mn144 2.209 . S
O169 Mn145 2.215 . S
O169 C146 1.283 . S
O170 Mn144 2.094 1_556 S
O170 C148 1.240 . S
O171 Mn145 2.117 . S
O171 C148 1.264 1_554 S
C172 C165 1.403 1_554 S
C172 C173 1.399 . S
C172 H178 0.929 1_554 S
C173 C153 1.449 . S
C173 C172 1.399 . S
C173 H179 0.930 . S
H174 C154 0.931 . S
H175 C155 0.930 . S
H176 C163 0.931 . S
H177 C164 0.929 . S
H178 C172 0.929 1_556 S
H179 C173 0.930 . S
Mn180 O185 2.095 . S
Mn180 O195 2.162 . S
Mn180 O196 2.297 . S
Mn180 O204 2.385 . S
Mn180 O205 2.209 . S
Mn180 O206 2.094 . S
Mn181 O186 2.121 . S
Mn181 N188 2.257 . S
Mn181 N197 2.282 . S
Mn181 O205 2.215 . S
Mn181 O207 2.117 . S
C182 O204 1.234 . S
C182 O205 1.283 . S
C183 O195 1.281 . S
C183 O196 1.236 . S
C184 O206 1.240 . S
C184 O207 1.264 . S
O185 Mn180 2.095 . S
O185 C194 1.250 . S
O186 Mn181 2.121 . S
O186 C194 1.258 . S
C187 N188 1.326 . S
C187 C191 1.460 . S
C187 H193 0.929 . S
N188 Mn181 2.257 . S
N188 C187 1.326 . S
N188 C192 1.362 . S
C189 C190 1.258 . S
C189 C192 1.431 . S
C189 C209 1.449 . S
C190 C189 1.258 . S
C190 C191 1.477 . S
C190 H210 0.931 . S
C191 C187 1.460 . S
C191 C190 1.477 . S
C191 H211 0.930 . S
C192 N188 1.362 . S
C192 C189 1.431 . S
C192 C202 1.476 . S
H193 C187 0.929 . S
C194 O185 1.250 . S
C194 O186 1.258 . S
O195 Mn180 2.162 . S
O195 C183 1.281 . S
O196 Mn180 2.297 . S
O196 C183 1.236 . S
N197 Mn181 2.282 . S
N197 C198 1.328 . S
N197 C202 1.318 . S
C198 N197 1.328 . S
C198 C199 1.457 . S
C198 H203 0.929 . S
C199 C198 1.457 . S
C199 C200 1.291 . S
C199 H212 0.931 . S
C200 C199 1.291 . S
C200 C201 1.373 . S
C200 H213 0.929 . S
C201 C200 1.373 . S
C201 C202 1.396 . S
C201 C208 1.403 . S
C202 C192 1.476 . S
C202 N197 1.318 . S
C202 C201 1.396 . S
H203 C198 0.929 . S
O204 Mn180 2.385 . S
O204 C182 1.234 . S
O205 Mn180 2.209 . S
O205 Mn181 2.215 . S
O205 C182 1.283 . S
O206 Mn180 2.094 . S
O206 C184 1.240 . S
O207 Mn181 2.117 . S
O207 C184 1.264 . S
C208 C201 1.403 . S
C208 C209 1.399 . S
C208 H214 0.929 . S
C209 C189 1.449 . S
C209 C208 1.399 . S
C209 H215 0.928 1_565 S
H210 C190 0.931 . S
H211 C191 0.930 . S
H212 C199 0.931 . S
H213 C200 0.929 . S
H214 C208 0.929 . S
H215 C209 0.928 1_545 S
Mn216 O221 2.095 . S
Mn216 O231 2.162 . S
Mn216 O232 2.297 . S
Mn216 O240 2.385 . S
Mn216 O241 2.209 . S
Mn216 O242 2.094 . S
Mn217 O222 2.121 . S
Mn217 N224 2.257 . S
Mn217 N233 2.282 . S
Mn217 O241 2.215 . S
Mn217 O243 2.117 . S
C218 O240 1.234 . S
C218 O241 1.283 . S
C219 O231 1.281 . S
C219 O232 1.236 . S
C220 O242 1.240 . S
C220 O243 1.264 . S
O221 Mn216 2.095 . S
O221 C230 1.250 . S
O222 Mn217 2.121 . S
O222 C230 1.258 . S
C223 N224 1.326 . S
C223 C227 1.460 . S
C223 H229 0.929 . S
N224 Mn217 2.257 . S
N224 C223 1.326 . S
N224 C228 1.362 . S
C225 C226 1.258 . S
C225 C228 1.431 . S
C225 C245 1.449 . S
C226 C225 1.258 . S
C226 C227 1.477 . S
C226 H246 0.931 . S
C227 C223 1.460 . S
C227 C226 1.477 . S
C227 H247 0.930 . S
C228 N224 1.362 . S
C228 C225 1.431 . S
C228 C238 1.476 . S
H229 C223 0.929 . S
C230 O221 1.250 . S
C230 O222 1.258 . S
O231 Mn216 2.162 . S
O231 C219 1.281 . S
O232 Mn216 2.297 . S
O232 C219 1.236 . S
N233 Mn217 2.282 . S
N233 C234 1.328 . S
N233 C238 1.318 . S
C234 N233 1.328 . S
C234 C235 1.457 . S
C234 H239 0.929 . S
C235 C234 1.457 . S
C235 C236 1.291 . S
C235 H248 0.931 . S
C236 C235 1.291 . S
C236 C237 1.373 . S
C236 H249 0.929 . S
C237 C236 1.373 . S
C237 C238 1.396 . S
C237 C244 1.403 . S
C238 C228 1.476 . S
C238 N233 1.318 . S
C238 C237 1.396 . S
H239 C234 0.929 . S
O240 Mn216 2.385 . S
O240 C218 1.234 . S
O241 Mn216 2.209 . S
O241 Mn217 2.215 . S
O241 C218 1.283 . S
O242 Mn216 2.094 . S
O242 C220 1.240 . S
O243 Mn217 2.117 . S
O243 C220 1.264 . S
C244 C237 1.403 . S
C244 C245 1.399 . S
C244 H250 0.929 . S
C245 C225 1.449 . S
C245 C244 1.399 . S
C245 H251 0.930 . S
H246 C226 0.931 . S
H247 C227 0.930 . S
H248 C235 0.931 . S
H249 C236 0.929 . S
H250 C244 0.929 . S
H251 C245 0.930 . S
Mn252 O257 2.095 . S
Mn252 O267 2.162 . S
Mn252 O268 2.297 . S
Mn252 O276 2.385 1_556 S
Mn252 O277 2.209 . S
Mn252 O278 2.094 1_556 S
Mn253 O258 2.121 . S
Mn253 N260 2.257 . S
Mn253 N269 2.282 . S
Mn253 O277 2.215 . S
Mn253 O279 2.117 . S
C254 O276 1.234 . S
C254 O277 1.283 1_554 S
C255 O267 1.281 . S
C255 O268 1.236 . S
C256 O278 1.240 . S
C256 O279 1.264 1_554 S
O257 Mn252 2.095 . S
O257 C266 1.250 . S
O258 Mn253 2.121 . S
O258 C266 1.258 . S
C259 N260 1.326 . S
C259 C263 1.460 . S
C259 H265 0.929 . S
N260 Mn253 2.257 . S
N260 C259 1.326 . S
N260 C264 1.362 . S
C261 C262 1.258 . S
C261 C264 1.431 . S
C261 C281 1.449 . S
C262 C261 1.258 . S
C262 C263 1.477 . S
C262 H282 0.931 . S
C263 C259 1.460 . S
C263 C262 1.477 . S
C263 H283 0.930 . S
C264 N260 1.362 . S
C264 C261 1.431 . S
C264 C274 1.476 . S
H265 C259 0.929 . S
C266 O257 1.250 . S
C266 O258 1.258 . S
O267 Mn252 2.162 . S
O267 C255 1.281 . S
O268 Mn252 2.297 . S
O268 C255 1.236 . S
N269 Mn253 2.282 . S
N269 C270 1.328 1_556 S
N269 C274 1.318 . S
C270 N269 1.328 1_554 S
C270 C271 1.457 . S
C270 H275 0.929 . S
C271 C270 1.457 . S
C271 C272 1.291 . S
C271 H284 0.931 . S
C272 C271 1.291 . S
C272 C273 1.373 . S
C272 H285 0.929 . S
C273 C272 1.373 . S
C273 C274 1.396 1_554 S
C273 C280 1.403 . S
C274 C264 1.476 . S
C274 N269 1.318 . S
C274 C273 1.396 1_556 S
H275 C270 0.929 . S
O276 Mn252 2.385 1_554 S
O276 C254 1.234 . S
O277 Mn252 2.209 . S
O277 Mn253 2.215 . S
O277 C254 1.283 1_556 S
O278 Mn252 2.094 1_554 S
O278 C256 1.240 . S
O279 Mn253 2.117 . S
O279 C256 1.264 1_556 S
C280 C273 1.403 . S
C280 C281 1.399 1_554 S
C280 H286 0.929 . S
C281 C261 1.449 . S
C281 C280 1.399 1_556 S
C281 H287 0.929 1_455 S
H282 C262 0.931 . S
H283 C263 0.930 . S
H284 C271 0.931 . S
H285 C272 0.929 . S
H286 C280 0.929 . S
H287 C281 0.929 1_655 S
Mn288 O293 2.095 . S
Mn288 O303 2.162 . S
Mn288 O304 2.297 . S
Mn288 O312 2.385 . S
Mn288 O313 2.209 . S
Mn288 O314 2.094 . S
Mn289 O294 2.121 . S
Mn289 N296 2.257 . S
Mn289 N305 2.282 . S
Mn289 O313 2.215 . S
Mn289 O315 2.117 . S
C290 O312 1.234 . S
C290 O313 1.283 . S
C291 O303 1.281 . S
C291 O304 1.236 . S
C292 O314 1.240 . S
C292 O315 1.264 . S
O293 Mn288 2.095 . S
O293 C302 1.250 . S
O294 Mn289 2.121 . S
O294 C302 1.258 . S
C295 N296 1.326 . S
C295 C299 1.460 . S
C295 H301 0.929 . S
N296 Mn289 2.257 . S
N296 C295 1.326 . S
N296 C300 1.362 . S
C297 C298 1.258 . S
C297 C300 1.431 . S
C297 C317 1.449 . S
C298 C297 1.258 . S
C298 C299 1.477 . S
C298 H318 0.931 . S
C299 C295 1.460 . S
C299 C298 1.477 . S
C299 H319 0.930 . S
C300 N296 1.362 . S
C300 C297 1.431 . S
C300 C310 1.476 . S
H301 C295 0.929 . S
C302 O293 1.250 . S
C302 O294 1.258 . S
O303 Mn288 2.162 . S
O303 C291 1.281 . S
O304 Mn288 2.297 . S
O304 C291 1.236 . S
N305 Mn289 2.282 . S
N305 C306 1.328 . S
N305 C310 1.318 . S
C306 N305 1.328 . S
C306 C307 1.457 . S
C306 H311 0.929 . S
C307 C306 1.457 . S
C307 C308 1.291 . S
C307 H320 0.931 . S
C308 C307 1.291 . S
C308 C309 1.373 . S
C308 H321 0.929 . S
C309 C308 1.373 . S
C309 C310 1.396 . S
C309 C316 1.403 . S
C310 C300 1.476 . S
C310 N305 1.318 . S
C310 C309 1.396 . S
H311 C306 0.929 . S
O312 Mn288 2.385 . S
O312 C290 1.234 . S
O313 Mn288 2.209 . S
O313 Mn289 2.215 . S
O313 C290 1.283 . S
O314 Mn288 2.094 . S
O314 C292 1.240 . S
O315 Mn289 2.117 . S
O315 C292 1.264 . S
C316 C309 1.403 . S
C316 C317 1.399 . S
C316 H322 0.929 . S
C317 C297 1.449 . S
C317 C316 1.399 . S
C317 H323 0.930 . S
H318 C298 0.931 . S
H319 C299 0.930 . S
H320 C307 0.931 . S
H321 C308 0.929 . S
H322 C316 0.929 . S
H323 C317 0.930 . S
Mn324 O329 2.095 . S
Mn324 O339 2.162 . S
Mn324 O340 2.297 . S
Mn324 O348 2.385 1_556 S
Mn324 O349 2.209 . S
Mn324 O350 2.094 1_556 S
Mn325 O330 2.121 . S
Mn325 N332 2.257 . S
Mn325 N341 2.282 . S
Mn325 O349 2.215 . S
Mn325 O351 2.117 . S
C326 O348 1.234 1_556 S
C326 O349 1.283 . S
C327 O339 1.281 . S
C327 O340 1.236 . S
C328 O350 1.243 . S
C328 O351 1.255 1_554 S
O329 Mn324 2.095 . S
O329 C338 1.250 . S
O330 Mn325 2.121 . S
O330 C338 1.258 . S
C331 N332 1.326 . S
C331 C335 1.460 . S
C331 H337 0.929 . S
N332 Mn325 2.257 . S
N332 C331 1.326 . S
N332 C336 1.362 . S
C333 C334 1.258 . S
C333 C336 1.431 . S
C333 C353 1.449 . S
C334 C333 1.258 . S
C334 C335 1.477 . S
C334 H354 0.931 . S
C335 C331 1.460 . S
C335 C334 1.477 . S
C335 H355 0.930 . S
C336 N332 1.362 . S
C336 C333 1.431 . S
C336 C346 1.476 . S
H337 C331 0.929 . S
C338 O329 1.250 . S
C338 O330 1.258 . S
O339 Mn324 2.162 . S
O339 C327 1.281 . S
O340 Mn324 2.297 . S
O340 C327 1.236 . S
N341 Mn325 2.282 . S
N341 C342 1.328 1_556 S
N341 C346 1.318 . S
C342 N341 1.328 1_554 S
C342 C343 1.457 . S
C342 H347 0.929 . S
C343 C342 1.457 . S
C343 C344 1.291 . S
C343 H356 0.931 . S
C344 C343 1.291 . S
C344 C345 1.373 1_554 S
C344 H357 0.929 . S
C345 C344 1.373 1_556 S
C345 C346 1.396 . S
C345 C352 1.403 . S
C346 C336 1.476 . S
C346 N341 1.318 . S
C346 C345 1.396 . S
H347 C342 0.929 . S
O348 Mn324 2.385 1_554 S
O348 C326 1.234 1_554 S
O349 Mn324 2.209 . S
O349 Mn325 2.215 . S
O349 C326 1.283 . S
O350 Mn324 2.094 1_554 S
O350 C328 1.243 . S
O351 Mn325 2.117 . S
O351 C328 1.255 1_556 S
C352 C345 1.403 . S
C352 C353 1.399 . S
C352 H358 0.929 . S
C353 C333 1.449 . S
C353 C352 1.399 . S
C353 H359 0.930 . S
H354 C334 0.931 . S
H355 C335 0.930 . S
H356 C343 0.931 . S
H357 C344 0.929 . S
H358 C352 0.929 . S
H359 C353 0.930 . S
Mn360 O365 2.095 . S
Mn360 O375 2.162 . S
Mn360 O376 2.297 . S
Mn360 O384 2.385 . S
Mn360 O385 2.209 . S
Mn360 O386 2.094 . S
Mn361 O366 2.121 . S
Mn361 N368 2.257 . S
Mn361 N377 2.282 . S
Mn361 O385 2.215 . S
Mn361 O387 2.117 . S
C362 O384 1.234 . S
C362 O385 1.283 . S
C363 O375 1.281 . S
C363 O376 1.236 . S
C364 O386 1.240 . S
C364 O387 1.264 . S
O365 Mn360 2.095 . S
O365 C374 1.250 . S
O366 Mn361 2.121 . S
O366 C374 1.258 . S
C367 N368 1.326 . S
C367 C371 1.460 . S
C367 H373 0.929 . S
N368 Mn361 2.257 . S
N368 C367 1.326 . S
N368 C372 1.362 . S
C369 C370 1.258 . S
C369 C372 1.431 . S
C369 C389 1.449 . S
C370 C369 1.258 . S
C370 C371 1.477 . S
C370 H390 0.931 . S
C371 C367 1.460 . S
C371 C370 1.477 . S
C371 H391 0.930 . S
C372 N368 1.362 . S
C372 C369 1.431 . S
C372 C382 1.476 . S
H373 C367 0.929 . S
C374 O365 1.250 . S
C374 O366 1.258 . S
O375 Mn360 2.162 . S
O375 C363 1.281 . S
O376 Mn360 2.297 . S
O376 C363 1.236 . S
N377 Mn361 2.282 . S
N377 C378 1.328 . S
N377 C382 1.318 . S
C378 N377 1.328 . S
C378 C379 1.457 . S
C378 H383 0.929 . S
C379 C378 1.457 . S
C379 C380 1.291 . S
C379 H392 0.931 . S
C380 C379 1.291 . S
C380 C381 1.373 . S
C380 H393 0.929 . S
C381 C380 1.373 . S
C381 C382 1.396 . S
C381 C388 1.403 . S
C382 C372 1.476 . S
C382 N377 1.318 . S
C382 C381 1.396 . S
H383 C378 0.929 . S
O384 Mn360 2.385 . S
O384 C362 1.234 . S
O385 Mn360 2.209 . S
O385 Mn361 2.215 . S
O385 C362 1.283 . S
O386 Mn360 2.094 . S
O386 C364 1.240 . S
O387 Mn361 2.117 . S
O387 C364 1.264 . S
C388 C381 1.403 . S
C388 C389 1.399 . S
C388 H394 0.929 . S
C389 C369 1.449 . S
C389 C388 1.399 . S
C389 H395 0.929 1_655 S
H390 C370 0.931 . S
H391 C371 0.930 . S
H392 C379 0.931 . S
H393 C380 0.929 . S
H394 C388 0.929 . S
H395 C389 0.929 1_455 S
Mn396 O401 2.095 . S
Mn396 O411 2.162 . S
Mn396 O412 2.297 . S
Mn396 O420 2.385 1_556 S
Mn396 O421 2.209 . S
Mn396 O422 2.094 1_556 S
Mn397 O402 2.121 . S
Mn397 N404 2.257 . S
Mn397 N413 2.282 . S
Mn397 O421 2.215 . S
Mn397 O423 2.117 . S
C398 O420 1.234 1_556 S
C398 O421 1.283 . S
C399 O411 1.281 . S
C399 O412 1.236 . S
C400 O422 1.240 . S
C400 O423 1.264 1_554 S
O401 Mn396 2.095 . S
O401 C410 1.250 . S
O402 Mn397 2.121 . S
O402 C410 1.258 . S
C403 N404 1.326 . S
C403 C407 1.460 . S
C403 H409 0.929 . S
N404 Mn397 2.257 . S
N404 C403 1.326 . S
N404 C408 1.362 . S
C405 C406 1.258 . S
C405 C408 1.431 . S
C405 C425 1.449 . S
C406 C405 1.258 . S
C406 C407 1.477 . S
C406 H426 0.931 . S
C407 C403 1.460 . S
C407 C406 1.477 . S
C407 H427 0.930 . S
C408 N404 1.362 . S
C408 C405 1.431 . S
C408 C418 1.476 . S
H409 C403 0.929 . S
C410 O401 1.250 . S
C410 O402 1.258 . S
O411 Mn396 2.162 . S
O411 C399 1.281 . S
O412 Mn396 2.297 . S
O412 C399 1.236 . S
N413 Mn397 2.282 . S
N413 C414 1.328 1_556 S
N413 C418 1.318 . S
C414 N413 1.328 1_554 S
C414 C415 1.457 . S
C414 H419 0.929 . S
C415 C414 1.457 . S
C415 C416 1.291 . S
C415 H428 0.931 . S
C416 C415 1.291 . S
C416 C417 1.373 . S
C416 H429 0.929 . S
C417 C416 1.373 . S
C417 C418 1.396 1_554 S
C417 C424 1.403 1_554 S
C418 C408 1.476 . S
C418 N413 1.318 . S
C418 C417 1.396 1_556 S
H419 C414 0.929 . S
O420 Mn396 2.385 1_554 S
O420 C398 1.234 1_554 S
O421 Mn396 2.209 . S
O421 Mn397 2.215 . S
O421 C398 1.283 . S
O422 Mn396 2.094 1_554 S
O422 C400 1.240 . S
O423 Mn397 2.117 . S
O423 C400 1.264 1_556 S
C424 C417 1.403 1_556 S
C424 C425 1.399 . S
C424 H430 0.929 1_556 S
C425 C405 1.449 . S
C425 C424 1.399 . S
C425 H431 0.930 . S
H426 C406 0.931 . S
H427 C407 0.930 . S
H428 C415 0.931 . S
H429 C416 0.929 . S
H430 C424 0.929 1_554 S
H431 C425 0.930 . S
C374 C14 1.576 . S
C50 C410 1.444 . S
C86 C230 1.576 . S
C266 C122 1.576 . S
C302 C158 1.444 . S
C194 C338 1.576 . S
C4 C256 1.521 1_546 S
C40 C292 1.024 . S
C328 C76 1.521 1_454 S
C364 C112 1.523 1_545 S
C400 C148 1.024 1_554 S
C220 C184 1.523 1_655 S
C2 C147 1.368 . S
C38 C183 1.473 . S
C74 C3 1.513 1_556 S
C110 C39 1.368 . S
C146 C75 1.473 . S
C182 C111 1.513 . S
C218 C291 1.368 . S
C254 C327 1.513 1_554 S
C363 C290 1.473 . S
C326 C399 1.368 . S
C362 C219 1.513 . S
C398 C255 1.473 . S
