# Generated by pormake.
# Topology rob, (6)-cn, num edge types: 1
# Building blocks:
#     Node 0, Type 0, BuildingBlock: UKALOJ_clean_sbu_0, # of connection points: 6
#     Node 1, Type 0, BuildingBlock: UKALOJ_clean_sbu_0, # of connection points: 6
#     Node 2, Type 0, BuildingBlock: UKALOJ_clean_sbu_0, # of connection points: 6
#     Node 3, Type 0, BuildingBlock: UKALOJ_clean_sbu_0, # of connection points: 6
#     Edge 4, Type (0, 0), BuildingBlock: FUNLAD_clean_linker_0, # of connection points: 2
#     Edge 5, Type (0, 0), BuildingBlock: FUNLAD_clean_linker_0, # of connection points: 2
#     Edge 6, Type (0, 0), BuildingBlock: FUNLAD_clean_linker_0, # of connection points: 2
#     Edge 7, Type (0, 0), BuildingBlock: FUNLAD_clean_linker_0, # of connection points: 2
#     Edge 8, Type (0, 0), BuildingBlock: FUNLAD_clean_linker_0, # of connection points: 2
#     Edge 9, Type (0, 0), BuildingBlock: FUNLAD_clean_linker_0, # of connection points: 2
#     Edge 10, Type (0, 0), BuildingBlock: FUNLAD_clean_linker_0, # of connection points: 2
#     Edge 11, Type (0, 0), BuildingBlock: FUNLAD_clean_linker_0, # of connection points: 2
#     Edge 12, Type (0, 0), BuildingBlock: FUNLAD_clean_linker_0, # of connection points: 2
#     Edge 13, Type (0, 0), BuildingBlock: FUNLAD_clean_linker_0, # of connection points: 2
#     Edge 14, Type (0, 0), BuildingBlock: FUNLAD_clean_linker_0, # of connection points: 2
#     Edge 15, Type (0, 0), BuildingBlock: FUNLAD_clean_linker_0, # of connection points: 2
# Relax obj value: 0.161
# Max RMSD: 0.193
# Mean RMSD: 0.193
data_MOF--net-rob--node1-UKALOJ_clean_sbu_0--edge1-FUNLAD_clean_linker_0
_symmetry_space_group_name_H-M    P1
_symmetry_Int_Tables_number       1
_symmetry_cell_setting            triclinic
loop_
_symmetry_equiv_pos_as_xyz
'x, y, z'
_cell_length_a     16.755412
_cell_length_b     42.08006
_cell_length_c     28.013408
_cell_angle_alpha  100.54879
_cell_angle_beta   90.323016
_cell_angle_gamma 90.280247
loop_
_atom_site_label
_atom_site_type_symbol
_atom_site_fract_x
_atom_site_fract_y
_atom_site_fract_z
_atom_type_partial_charge
Zn0 Zn 0.30122 0.29311 -0.00752 0.0
O1 O 0.35289 0.27548 0.92479 0.0
C2 C 0.14702 0.30379 0.94749 0.0
Zn3 Zn 0.22294 0.24919 0.9855 0.0
C4 C 0.32759 0.24904 0.89974 0.0
O5 O 0.27195 0.23346 0.91602 0.0
C6 C 0.19771 0.29321 0.07859 0.0
O7 O 0.31217 0.22385 0.01595 0.0
O8 O 0.38714 0.26752 0.02541 0.0
N9 N 0.14881 0.20934 0.97438 0.0
C10 C 0.13744 0.18472 -0.00148 0.0
C11 C 0.06181 0.17596 0.93603 0.0
N12 N 0.1016 0.2038 0.93563 0.0
N13 N 0.08354 0.16331 0.97495 0.0
C14 C 0.38518 0.35807 0.98087 0.0
C15 C 0.46222 0.36612 0.04273 0.0
N16 N 0.37538 0.33286 0.00395 0.0
N17 N 0.42358 0.33793 0.04226 0.0
N18 N 0.43892 0.3794 0.00472 0.0
H19 H 0.33246 0.33658 0.91214 0.0
H20 H 0.38372 0.37458 0.91243 0.0
H21 H 0.2885 0.37401 0.94163 0.0
C22 C 0.34547 0.36084 0.93382 0.0
C23 C 0.17572 0.1826 0.04624 0.0
H24 H 0.2297 0.16737 0.03951 0.0
H25 H 0.13435 0.17116 0.06897 0.0
H26 H 0.19363 0.20683 0.06609 0.0
O27 O 0.17581 0.2658 0.05493 0.0
O28 O 0.24867 0.30996 0.06047 0.0
C29 C 0.37704 0.23834 0.0303 0.0
O30 O 0.21366 0.31766 0.95919 0.0
O31 O 0.13508 0.27533 0.95521 0.0
Zn32 Zn 0.77686 0.79716 0.00281 0.0
O33 O 0.8823 0.78044 0.96677 0.0
C34 C 0.69072 0.79208 0.9092 0.0
Zn35 Zn 0.7164 0.74904 0.98123 0.0
C36 C 0.88446 0.75115 0.94501 0.0
O37 O 0.82352 0.7331 0.94553 0.0
C38 C 0.60866 0.79458 0.03934 0.0
O39 O 0.7587 0.73482 0.04533 0.0
O40 O 0.81992 0.78173 0.06575 0.0
N41 N 0.66715 0.70422 0.95679 0.0
C42 C 0.63576 0.6815 0.97961 0.0
C43 C 0.63226 0.66255 0.90366 0.0
N44 N 0.66471 0.69237 0.90964 0.0
N45 N 0.61386 0.65501 0.94701 0.0
C46 C 0.86774 0.86324 0.00599 0.0
C47 C 0.84052 0.88713 0.07781 0.0
N48 N 0.82524 0.84227 0.02714 0.0
N49 N 0.80906 0.85717 0.07183 0.0
N50 N 0.87791 0.89168 0.03712 0.0
H51 H 0.96075 0.85182 0.95395 0.0
H52 H 0.88449 0.87753 0.93678 0.0
H53 H 0.86621 0.8347 0.93323 0.0
C54 C 0.8956 0.85638 0.95438 0.0
C55 C 0.62271 0.6861 0.03331 0.0
H56 H 0.61284 0.71192 0.04882 0.0
H57 H 0.67651 0.67795 0.05083 0.0
H58 H 0.57065 0.6717 0.04163 0.0
O59 O 0.61109 0.76561 0.01648 0.0
O60 O 0.66943 0.81283 0.03949 0.0
C61 C 0.80217 0.75406 0.07487 0.0
O62 O 0.73313 0.81162 0.93894 0.0
O63 O 0.6743 0.76427 0.91813 0.0
Zn64 Zn 0.2224 0.7892 0.49954 0.0
O65 O 0.25751 0.79884 0.43177 0.0
C66 C 0.09735 0.74531 0.45091 0.0
Zn67 Zn 0.26669 0.73855 0.4824 0.0
C68 C 0.28955 0.77613 0.40206 0.0
O69 O 0.30184 0.74903 0.41472 0.0
C70 C 0.19998 0.75209 0.58015 0.0
O71 O 0.38011 0.75306 0.51261 0.0
O72 O 0.33619 0.80291 0.52896 0.0
N73 N 0.30334 0.6918 0.46058 0.0
C74 C 0.34944 0.67164 0.48099 0.0
C75 C 0.30479 0.64489 0.41406 0.0
N76 N 0.27609 0.67511 0.41893 0.0
N77 N 0.35132 0.64203 0.45239 0.0
C78 C 0.14817 0.85731 0.49916 0.0
C79 C 0.16113 0.87913 0.57375 0.0
N80 N 0.18418 0.83559 0.52191 0.0
N81 N 0.19217 0.84926 0.56819 0.0
N82 N 0.1333 0.88488 0.53098 0.0
H83 H 0.11462 0.82469 0.43315 0.0
H84 H 0.17223 0.85931 0.42501 0.0
H85 H 0.06854 0.86404 0.44111 0.0
C86 C 0.124 0.85083 0.44666 0.0
C87 C 0.38891 0.6805 0.52982 0.0
H88 H 0.45242 0.68659 0.52476 0.0
H89 H 0.38671 0.65984 0.54937 0.0
H90 H 0.36063 0.70178 0.5522 0.0
O91 O 0.23014 0.72886 0.55051 0.0
O92 O 0.18885 0.77901 0.56695 0.0
C93 C 0.39169 0.78269 0.53095 0.0
O94 O 0.10884 0.77472 0.47028 0.0
O95 O 0.15294 0.72504 0.45211 0.0
Zn96 Zn 0.71856 0.28608 0.49224 0.0
O97 O 0.809 0.31007 0.45945 0.0
C98 C 0.68333 0.24359 0.39965 0.0
Zn99 Zn 0.79171 0.24124 0.48416 0.0
C100 C 0.87274 0.29478 0.44647 0.0
O101 O 0.87995 0.26583 0.45271 0.0
C102 C 0.63814 0.23242 0.53044 0.0
O103 O 0.84691 0.25647 0.55194 0.0
O104 O 0.77492 0.30064 0.56032 0.0
N105 N 0.86058 0.20064 0.4702 0.0
C106 C 0.87165 0.17532 0.49283 0.0
C107 C 0.94385 0.16748 0.42938 0.0
N108 N 0.90557 0.19567 0.43085 0.0
N109 N 0.92341 0.1541 0.46774 0.0
C110 C 0.63004 0.34928 0.47855 0.0
C111 C 0.59022 0.36658 0.55073 0.0
N112 N 0.65171 0.32732 0.50571 0.0
N113 N 0.62644 0.33808 0.55041 0.0
N114 N 0.59141 0.37423 0.50609 0.0
H115 H 0.69893 0.32971 0.41477 0.0
H116 H 0.66745 0.37116 0.41853 0.0
H117 H 0.59693 0.33842 0.40358 0.0
C118 C 0.65025 0.34704 0.42597 0.0
C119 C 0.83514 0.17238 0.5405 0.0
H120 H 0.82248 0.19655 0.56225 0.0
H121 H 0.87527 0.15901 0.56141 0.0
H122 H 0.7781 0.15879 0.53362 0.0
O123 O 0.70173 0.21725 0.51649 0.0
O124 O 0.63012 0.26152 0.5247 0.0
C125 C 0.8273 0.28367 0.57671 0.0
O126 O 0.66282 0.27058 0.4247 0.0
O127 O 0.73635 0.22678 0.41582 0.0
C128 C 0.6126 0.60884 -0.00946 0.0
C129 C 0.58174 0.62446 0.9543 0.0
C130 C 0.58514 0.57805 -0.00507 0.0
C131 C 0.52688 0.56202 0.96262 0.0
C132 C 0.49516 0.57801 0.92702 0.0
C133 C 0.52278 0.60873 0.92262 0.0
C134 C 0.497 0.52895 0.96512 0.0
C135 C 0.53957 0.5072 0.9844 0.0
C136 C 0.51144 0.4738 0.98666 0.0
C137 C 0.56743 0.45138 -0.0024 0.0
C138 C 0.54376 0.42021 0.00229 0.0
C139 C 0.46357 0.41059 -0.0042 0.0
H140 H 0.3849 0.48072 0.97353 0.0
C141 C 0.40729 0.43284 0.98483 0.0
C142 C 0.43077 0.46413 0.98037 0.0
H143 H 0.34461 0.42647 0.98158 0.0
H144 H 0.65949 0.62003 0.01468 0.0
H145 H 0.60969 0.56705 0.02374 0.0
H146 H 0.44984 0.56644 0.90188 0.0
H147 H 0.49835 0.62024 0.89425 0.0
H148 H 0.43981 0.522 0.94795 0.0
H149 H 0.59953 0.51357 -0.00221 0.0
H150 H 0.6298 0.45807 0.00305 0.0
H151 H 0.58803 0.40358 0.01136 0.0
C152 C 0.34412 0.58339 0.44998 0.0
C153 C 0.38722 0.61253 0.46081 0.0
C154 C 0.37822 0.5544 0.45715 0.0
C155 C 0.45706 0.55383 0.47462 0.0
C156 C 0.5001 0.58306 0.48546 0.0
C157 C 0.46575 0.6121 0.47833 0.0
C158 C 0.49499 0.52359 0.48396 0.0
C159 C 0.47084 0.49367 0.46263 0.0
C160 C 0.50574 0.46332 0.47374 0.0
C161 C 0.49283 0.43418 0.44094 0.0
C162 C 0.52153 0.40492 0.45102 0.0
C163 C 0.56391 0.40421 0.49416 0.0
H164 H 0.55641 0.48397 0.54446 0.0
C165 C 0.57609 0.43322 0.52722 0.0
C166 C 0.54739 0.46244 0.51727 0.0
H167 H 0.60773 0.43324 0.56104 0.0
H168 H 0.2833 0.58318 0.43662 0.0
H169 H 0.3418 0.53275 0.44983 0.0
H170 H 0.56079 0.5834 0.49911 0.0
H171 H 0.50105 0.63406 0.48573 0.0
H172 H 0.54611 0.5264 0.50835 0.0
H173 H 0.42462 0.49099 0.43487 0.0
H174 H 0.45969 0.43398 0.40756 0.0
H175 H 0.50863 0.38282 0.42572 0.0
C176 C 0.10744 0.11074 0.00036 0.0
C177 C 0.05477 0.13321 0.98611 0.0
C178 C 0.07935 0.08073 0.00828 0.0
C179 C -0.00209 0.07248 0.00163 0.0
C180 C 0.94544 0.0952 0.98788 0.0
C181 C 0.97363 0.12506 0.97979 0.0
C182 C 0.96459 0.04099 0.0097 0.0
C183 C 0.00799 1.01386 0.00816 0.0
C184 C 0.97299 0.98246 0.01565 0.0
C185 C 0.01316 0.95355 -0.00257 0.0
C186 C 0.98222 0.92366 0.00404 0.0
C187 C 0.91033 0.92207 0.02906 0.0
H188 H 0.87054 1.00242 0.05813 0.0
C189 C 0.8712 0.951 0.04826 0.0
C190 C 0.90201 0.98081 0.04178 0.0
H191 H 0.81629 0.95053 0.06833 0.0
H192 H 0.17062 0.11602 0.00425 0.0
H193 H 0.12161 0.06429 0.01988 0.0
H194 H 0.88239 0.08969 0.98278 0.0
H195 H 0.93196 0.14191 0.96859 0.0
H196 H 0.9005 0.03994 0.01463 0.0
H197 H 0.07076 1.01402 -0.00116 0.0
H198 H 0.06873 0.95406 0.97799 0.0
H199 H 0.01548 0.90196 -0.00948 0.0
C200 C 0.89772 0.10071 0.48974 0.0
C201 C 0.95111 0.12346 0.47681 0.0
C202 C 0.92416 0.06991 0.49435 0.0
C203 C 0.00485 0.06133 0.48621 0.0
C204 C 0.05789 0.08425 0.47334 0.0
C205 C 0.03131 0.1149 0.46856 0.0
C206 C 0.03584 0.02854 0.48856 0.0
C207 C -0.00181 1.007 0.51088 0.0
C208 C 0.03191 0.97479 0.51386 0.0
C209 C 0.01 0.95998 0.55289 0.0
C210 C 0.04244 0.93025 0.55792 0.0
C211 C 0.09634 0.91437 0.52353 0.0
H212 H 0.10156 0.96868 0.44749 0.0
C213 C 0.11709 0.92873 0.48386 0.0
C214 C 0.08485 0.95855 0.47884 0.0
H215 H 0.15981 0.91736 0.45741 0.0
H216 H 0.83498 0.10629 0.49444 0.0
H217 H 0.88049 0.05279 0.50274 0.0
H218 H 0.12015 0.07834 0.46648 0.0
H219 H 0.07333 0.13196 0.45804 0.0
H220 H 0.0942 0.02257 0.47287 0.0
H221 H 0.94332 1.01371 0.53043 0.0
H222 H 0.9689 0.97177 0.58016 0.0
H223 H 0.02572 0.91963 0.58885 0.0
C224 C 0.56962 0.24275 0.34191 0.0
C225 C 0.64532 0.23158 0.35235 0.0
C226 C 0.53354 0.23149 0.29703 0.0
C227 C 0.57338 0.20959 0.26143 0.0
C228 C 0.64868 0.19801 0.27196 0.0
C229 C 0.68409 0.20873 0.31734 0.0
C230 C 0.5361 0.20073 0.21303 0.0
C231 C 0.57811 0.19942 0.17196 0.0
C232 C 0.53652 0.20277 0.12663 0.0
C233 C 0.56234 0.22684 0.10162 0.0
C234 C 0.51236 0.23708 0.0675 0.0
C235 C 0.43658 0.2229 0.05736 0.0
H236 H 0.44414 0.16726 0.13126 0.0
C237 C 0.41499 0.19626 0.07834 0.0
C238 C 0.46448 0.18634 0.11295 0.0
H239 H 0.35751 0.1846 0.07083 0.0
H240 H 0.53815 0.26011 0.36846 0.0
H241 H 0.47538 0.24069 0.28956 0.0
H242 H 0.68009 0.18079 0.24522 0.0
H243 H 0.74243 0.19965 0.32466 0.0
H244 H 0.47123 0.20112 0.21141 0.0
H245 H 0.64247 0.20289 0.17384 0.0
H246 H 0.61801 0.23964 0.11147 0.0
H247 H 0.53112 0.25733 0.05122 0.0
C248 C 0.47088 0.78613 0.06788 0.0
C249 C 0.5401 0.80535 0.07079 0.0
C250 C 0.41428 0.79173 0.10471 0.0
C251 C 0.4269 0.81629 0.14546 0.0
C252 C 0.49099 0.83784 0.14538 0.0
C253 C 0.54735 0.83242 0.1083 0.0
C254 C 0.38234 0.81697 0.19115 0.0
C255 C 0.3604 0.78927 0.20522 0.0
C256 C 0.33895 0.78696 0.25568 0.0
C257 C 0.35104 0.7573 0.27065 0.0
C258 C 0.33622 0.75403 0.31835 0.0
C259 C 0.3081 0.78032 0.35217 0.0
H260 H 0.29788 0.8363 0.27879 0.0
C261 C 0.29454 0.80995 0.33714 0.0
C262 C 0.30973 0.81327 0.28926 0.0
H263 H 0.2719 0.83054 0.36225 0.0
H264 H 0.46269 0.76558 0.03869 0.0
H265 H 0.36335 0.77559 0.10264 0.0
H266 H 0.50123 0.85727 0.17601 0.0
H267 H 0.59958 0.84795 0.11113 0.0
H268 H 0.381 0.83965 0.21684 0.0
H269 H 0.36905 0.76646 0.1805 0.0
H270 H 0.37337 0.73662 0.24552 0.0
H271 H 0.34652 0.73076 0.32857 0.0
C272 C 0.71029 0.81729 0.836 0.0
C273 C 0.66077 0.8012 0.86429 0.0
C274 C 0.68307 0.82342 0.79123 0.0
C275 C 0.6052 0.81443 0.77522 0.0
C276 C 0.55493 0.79958 0.80454 0.0
C277 C 0.58296 0.79245 0.84829 0.0
C278 C 0.57457 0.8196 0.72782 0.0
C279 C 0.61486 0.81005 0.68631 0.0
C280 C 0.57257 0.80656 0.63914 0.0
C281 C 0.5195 0.8304 0.62973 0.0
C282 C 0.46528 0.82358 0.5912 0.0
C283 C 0.46263 0.79267 0.5618 0.0
H284 H 0.61738 0.75845 0.61294 0.0
C285 C 0.52134 0.77003 0.56823 0.0
C286 C 0.5764 0.77707 0.60648 0.0
H287 H 0.52141 0.74612 0.54588 0.0
H288 H 0.7707 0.82412 0.84775 0.0
H289 H 0.72249 0.83519 0.76925 0.0
H290 H 0.49462 0.79254 0.7928 0.0
H291 H 0.54377 0.78013 0.8697 0.0
H292 H 0.5122 0.8264 0.72617 0.0
H293 H 0.67369 0.7994 0.68741 0.0
H294 H 0.51663 0.8536 0.65395 0.0
H295 H 0.4216 0.84176 0.58689 0.0
C296 C 0.59841 0.19253 0.5819 0.0
C297 C 0.57773 0.21794 0.55804 0.0
C298 C 0.54785 0.18389 0.61688 0.0
C299 C 0.47573 0.2004 0.62811 0.0
C300 C 0.45101 0.22312 0.60033 0.0
C301 C 0.50201 0.23208 0.56583 0.0
C302 C 0.43257 0.19864 0.67336 0.0
C303 C 0.4733 0.20089 0.71535 0.0
C304 C 0.43545 0.21134 0.76302 0.0
C305 C 0.35812 0.20143 0.77304 0.0
C306 C 0.32306 0.21347 0.81781 0.0
C307 C 0.36431 0.23596 0.85272 0.0
H308 H 0.53714 0.24091 0.79149 0.0
C309 C 0.44185 0.24551 0.84273 0.0
C310 C 0.47741 0.23297 0.79851 0.0
H311 H 0.47532 0.26251 0.86921 0.0
H312 H 0.65603 0.18098 0.57631 0.0
H313 H 0.56738 0.16579 0.63729 0.0
H314 H 0.39532 0.23595 0.6082 0.0
H315 H 0.48403 0.25138 0.54733 0.0
H316 H 0.36845 0.2025 0.67392 0.0
H317 H 0.53821 0.20073 0.71474 0.0
H318 H 0.32495 0.18441 0.74645 0.0
H319 H 0.2633 0.20559 0.82481 0.0
C320 C 0.7845 0.72598 0.1454 0.0
C321 C 0.83209 0.74451 0.11956 0.0
C322 C 0.8122 0.7183 0.18911 0.0
C323 C 0.88869 0.7283 0.20661 0.0
C324 C 0.93693 0.74594 0.17994 0.0
C325 C 0.90837 0.75448 0.13722 0.0
C326 C 0.9203 0.72087 0.25254 0.0
C327 C 0.87775 0.72543 0.29378 0.0
C328 C 0.91893 0.72603 0.34073 0.0
C329 C 0.97428 0.70203 0.34629 0.0
C330 C 0.02751 0.7069 0.38546 0.0
C331 C 0.02702 0.73609 0.41923 0.0
H332 H 0.86922 0.77207 0.37391 0.0
C333 C 0.96614 0.75856 0.41628 0.0
C334 C 0.91194 0.75338 0.37745 0.0
H335 H 0.9638 0.78115 0.44197 0.0
H336 H 0.72531 0.71813 0.13241 0.0
H337 H 0.77437 0.70436 0.20891 0.0
H338 H 0.99621 0.75378 0.19283 0.0
H339 H 0.94622 0.76863 0.11772 0.0
H340 H 0.98393 0.71607 0.25409 0.0
H341 H 0.81678 0.73415 0.2938 0.0
H342 H 0.97974 0.68046 0.3187 0.0
H343 H 0.07313 0.68893 0.38688 0.0
C344 C 0.91642 0.3322 0.39189 0.0
C345 C 0.93521 0.30875 0.41982 0.0
C346 C 0.97044 0.33934 0.35742 0.0
C347 C 0.04434 0.32326 0.35092 0.0
C348 C 0.06596 0.30262 0.38284 0.0
C349 C 0.01182 0.29527 0.41676 0.0
C350 C 0.09362 0.3222 0.30686 0.0
C351 C 0.07771 0.33857 0.27102 0.0
C352 C 0.10979 0.32724 0.22192 0.0
C353 C 0.13854 0.34934 0.19427 0.0
C354 C 0.16776 0.33832 0.14753 0.0
C355 C 0.16611 0.30513 0.12742 0.0
H356 H 0.08367 0.27662 0.22176 0.0
C357 C 0.1352 0.28318 0.15472 0.0
C358 C 0.10772 0.2941 0.20161 0.0
H359 H 0.13318 0.2575 0.14012 0.0
H360 H 0.85778 0.34308 0.39385 0.0
H361 H 0.95122 0.3556 0.334 0.0
H362 H 0.12266 0.29015 0.37909 0.0
H363 H 0.02829 0.27751 0.43854 0.0
H364 H 0.13968 0.30377 0.3006 0.0
H365 H 0.0371 0.35886 0.27607 0.0
H366 H 0.13943 0.375 0.20907 0.0
H367 H 0.19086 0.35574 0.12698 0.0
C368 C 0.83068 0.32043 0.65756 0.0
C369 C 0.8665 0.29599 0.62359 0.0
C370 C 0.86814 0.33207 0.70203 0.0
C371 C 0.94254 0.31976 0.71274 0.0
C372 C 0.97912 0.296 0.67829 0.0
C373 C 0.94105 0.2839 0.63434 0.0
C374 C 0.98291 0.33029 0.75993 0.0
C375 C 0.94315 0.33584 0.80218 0.0
C376 C 0.9865 0.33523 0.84799 0.0
C377 C 0.06114 0.35049 0.85735 0.0
C378 C 0.11129 0.34232 0.89307 0.0
C379 C 0.08763 0.31861 0.91954 0.0
H380 H 0.90143 0.30269 0.87184 0.0
C381 C 0.00965 0.306 0.9136 0.0
C382 C 0.9591 0.31452 0.8783 0.0
H383 H 0.98945 0.28803 0.93407 0.0
H384 H 0.77332 0.33027 0.65 0.0
H385 H 0.83923 0.35076 0.72776 0.0
H386 H 0.03656 0.2862 0.68588 0.0
H387 H 0.97035 0.26531 0.6086 0.0
H388 H 0.04761 0.32826 0.76044 0.0
H389 H 0.8784 0.33415 0.80222 0.0
H390 H 0.08282 0.36703 0.83486 0.0
H391 H 0.17074 0.35262 0.89704 0.0
C392 C 0.19802 0.72034 0.64793 0.0
C393 C 0.18421 0.74929 0.63096 0.0
C394 C 0.18663 0.71889 0.69698 0.0
C395 C 0.16153 0.74646 0.72968 0.0
C396 C 0.14922 0.77536 0.71264 0.0
C397 C 0.15983 0.77674 0.66392 0.0
C398 C 0.14353 0.74634 0.7813 0.0
C399 C 0.11762 0.72007 0.79784 0.0
C400 C 0.07101 0.72352 0.84332 0.0
C401 C 0.00557 0.70282 0.84466 0.0
C402 C 0.94728 0.71055 0.8802 0.0
C403 C 0.95372 0.73915 0.91494 0.0
H404 H 0.1343 0.76545 0.88318 0.0
C405 C 0.02371 0.75783 0.91696 0.0
C406 C 0.08245 0.74985 0.88177 0.0
H407 H 0.0313 0.77952 0.94419 0.0
H408 H 0.21811 0.69894 0.62347 0.0
H409 H 0.19821 0.69635 0.70908 0.0
H410 H 0.12979 0.79695 0.73699 0.0
H411 H 0.14951 0.79956 0.65228 0.0
H412 H 0.13872 0.76995 0.80444 0.0
H413 H 0.11596 0.69675 0.77364 0.0
H414 H 0.99602 0.68209 0.81592 0.0
H415 H 0.89457 0.69534 0.87822 0.0
loop_
_geom_bond_atom_site_label_1
_geom_bond_atom_site_label_2
_geom_bond_distance
_geom_bond_site_symmetry_2
_ccdc_geom_bond_type
Zn0 O1 2.055 1_554 S
Zn0 O8 2.046 . S
Zn0 N16 2.036 . S
Zn0 O28 2.053 . S
Zn0 O30 2.066 1_554 S
O1 Zn0 2.055 1_556 S
O1 C4 1.259 . S
C2 O30 1.256 . S
C2 O31 1.244 . S
Zn3 O5 2.046 . S
Zn3 O7 2.055 1_556 S
Zn3 N9 2.036 . S
Zn3 O27 2.066 1_556 S
Zn3 O31 2.053 . S
C4 O1 1.259 . S
C4 O5 1.254 . S
O5 Zn3 2.046 . S
O5 C4 1.254 . S
C6 O27 1.256 . S
C6 O28 1.244 . S
O7 Zn3 2.055 1_554 S
O7 C29 1.259 . S
O8 Zn0 2.046 . S
O8 C29 1.254 . S
N9 Zn3 2.036 . S
N9 C10 1.298 1_556 S
N9 N12 1.398 . S
C10 N9 1.298 1_554 S
C10 N13 1.367 1_554 S
C10 C23 1.481 . S
C11 N12 1.299 . S
C11 N13 1.379 . S
N12 N9 1.398 . S
N12 C11 1.299 . S
N13 C10 1.367 1_556 S
N13 C11 1.379 . S
C14 N16 1.298 1_556 S
C14 N18 1.367 1_556 S
C14 C22 1.481 . S
C15 N17 1.299 . S
C15 N18 1.379 . S
N16 Zn0 2.036 . S
N16 C14 1.298 1_554 S
N16 N17 1.398 . S
N17 C15 1.299 . S
N17 N16 1.398 . S
N18 C14 1.367 1_554 S
N18 C15 1.379 . S
H19 C22 0.980 . S
H20 C22 0.981 . S
H21 C22 0.981 . S
C22 C14 1.481 . S
C22 H19 0.980 . S
C22 H20 0.981 . S
C22 H21 0.981 . S
C23 C10 1.481 . S
C23 H24 0.980 . S
C23 H25 0.981 . S
C23 H26 0.981 . S
H24 C23 0.980 . S
H25 C23 0.981 . S
H26 C23 0.981 . S
O27 Zn3 2.066 1_554 S
O27 C6 1.256 . S
O28 Zn0 2.053 . S
O28 C6 1.244 . S
C29 O7 1.259 . S
C29 O8 1.254 . S
O30 Zn0 2.066 1_556 S
O30 C2 1.256 . S
O31 C2 1.244 . S
O31 Zn3 2.053 . S
Zn32 O33 2.055 1_554 S
Zn32 O40 2.046 . S
Zn32 N48 2.036 . S
Zn32 O60 2.053 . S
Zn32 O62 2.066 1_554 S
O33 Zn32 2.055 1_556 S
O33 C36 1.259 . S
C34 O62 1.256 . S
C34 O63 1.244 . S
Zn35 O37 2.046 . S
Zn35 O39 2.055 1_556 S
Zn35 N41 2.036 . S
Zn35 O59 2.066 1_556 S
Zn35 O63 2.053 . S
C36 O33 1.259 . S
C36 O37 1.254 . S
O37 Zn35 2.046 . S
O37 C36 1.254 . S
C38 O59 1.256 . S
C38 O60 1.244 . S
O39 Zn35 2.055 1_554 S
O39 C61 1.259 . S
O40 Zn32 2.046 . S
O40 C61 1.254 . S
N41 Zn35 2.036 . S
N41 C42 1.298 1_556 S
N41 N44 1.398 . S
C42 N41 1.298 1_554 S
C42 N45 1.367 1_554 S
C42 C55 1.481 . S
C43 N44 1.299 . S
C43 N45 1.379 . S
N44 N41 1.398 . S
N44 C43 1.299 . S
N45 C42 1.367 1_556 S
N45 C43 1.379 . S
C46 N48 1.298 1_556 S
C46 N50 1.367 1_556 S
C46 C54 1.481 . S
C47 N49 1.299 . S
C47 N50 1.379 . S
N48 Zn32 2.036 . S
N48 C46 1.298 1_554 S
N48 N49 1.398 . S
N49 C47 1.299 . S
N49 N48 1.398 . S
N50 C46 1.367 1_554 S
N50 C47 1.379 . S
H51 C54 0.980 . S
H52 C54 0.981 . S
H53 C54 0.981 . S
C54 C46 1.481 . S
C54 H51 0.980 . S
C54 H52 0.981 . S
C54 H53 0.981 . S
C55 C42 1.481 . S
C55 H56 0.980 . S
C55 H57 0.981 . S
C55 H58 0.981 . S
H56 C55 0.980 . S
H57 C55 0.981 . S
H58 C55 0.981 . S
O59 Zn35 2.066 1_554 S
O59 C38 1.256 . S
O60 Zn32 2.053 . S
O60 C38 1.244 . S
C61 O39 1.259 . S
C61 O40 1.254 . S
O62 Zn32 2.066 1_556 S
O62 C34 1.256 . S
O63 C34 1.244 . S
O63 Zn35 2.053 . S
Zn64 O65 2.055 . S
Zn64 O72 2.046 . S
Zn64 N80 2.036 . S
Zn64 O92 2.053 . S
Zn64 O94 2.066 . S
O65 Zn64 2.055 . S
O65 C68 1.259 . S
C66 O94 1.256 . S
C66 O95 1.244 . S
Zn67 O69 2.046 . S
Zn67 O71 2.055 . S
Zn67 N73 2.036 . S
Zn67 O91 2.066 . S
Zn67 O95 2.053 . S
C68 O65 1.259 . S
C68 O69 1.254 . S
O69 Zn67 2.046 . S
O69 C68 1.254 . S
C70 O91 1.256 . S
C70 O92 1.244 . S
O71 Zn67 2.055 . S
O71 C93 1.259 . S
O72 Zn64 2.046 . S
O72 C93 1.254 . S
N73 Zn67 2.036 . S
N73 C74 1.298 . S
N73 N76 1.398 . S
C74 N73 1.298 . S
C74 N77 1.367 . S
C74 C87 1.481 . S
C75 N76 1.299 . S
C75 N77 1.379 . S
N76 N73 1.398 . S
N76 C75 1.299 . S
N77 C74 1.367 . S
N77 C75 1.379 . S
C78 N80 1.298 . S
C78 N82 1.367 . S
C78 C86 1.481 . S
C79 N81 1.299 . S
C79 N82 1.379 . S
N80 Zn64 2.036 . S
N80 C78 1.298 . S
N80 N81 1.398 . S
N81 C79 1.299 . S
N81 N80 1.398 . S
N82 C78 1.367 . S
N82 C79 1.379 . S
H83 C86 0.980 . S
H84 C86 0.981 . S
H85 C86 0.981 . S
C86 C78 1.481 . S
C86 H83 0.980 . S
C86 H84 0.981 . S
C86 H85 0.981 . S
C87 C74 1.481 . S
C87 H88 0.980 . S
C87 H89 0.981 . S
C87 H90 0.981 . S
H88 C87 0.980 . S
H89 C87 0.981 . S
H90 C87 0.981 . S
O91 Zn67 2.066 . S
O91 C70 1.256 . S
O92 Zn64 2.053 . S
O92 C70 1.244 . S
C93 O71 1.259 . S
C93 O72 1.254 . S
O94 Zn64 2.066 . S
O94 C66 1.256 . S
O95 C66 1.244 . S
O95 Zn67 2.053 . S
Zn96 O97 2.055 . S
Zn96 O104 2.046 . S
Zn96 N112 2.036 . S
Zn96 O124 2.053 . S
Zn96 O126 2.066 . S
O97 Zn96 2.055 . S
O97 C100 1.259 . S
C98 O126 1.256 . S
C98 O127 1.244 . S
Zn99 O101 2.046 . S
Zn99 O103 2.055 . S
Zn99 N105 2.036 . S
Zn99 O123 2.066 . S
Zn99 O127 2.053 . S
C100 O97 1.259 . S
C100 O101 1.254 . S
O101 Zn99 2.046 . S
O101 C100 1.254 . S
C102 O123 1.256 . S
C102 O124 1.244 . S
O103 Zn99 2.055 . S
O103 C125 1.259 . S
O104 Zn96 2.046 . S
O104 C125 1.254 . S
N105 Zn99 2.036 . S
N105 C106 1.298 . S
N105 N108 1.398 . S
C106 N105 1.298 . S
C106 N109 1.367 . S
C106 C119 1.481 . S
C107 N108 1.299 . S
C107 N109 1.379 . S
N108 N105 1.398 . S
N108 C107 1.299 . S
N109 C106 1.367 . S
N109 C107 1.379 . S
C110 N112 1.298 . S
C110 N114 1.367 . S
C110 C118 1.481 . S
C111 N113 1.299 . S
C111 N114 1.379 . S
N112 Zn96 2.036 . S
N112 C110 1.298 . S
N112 N113 1.398 . S
N113 C111 1.299 . S
N113 N112 1.398 . S
N114 C110 1.367 . S
N114 C111 1.379 . S
H115 C118 0.980 . S
H116 C118 0.981 . S
H117 C118 0.981 . S
C118 C110 1.481 . S
C118 H115 0.980 . S
C118 H116 0.981 . S
C118 H117 0.981 . S
C119 C106 1.481 . S
C119 H120 0.980 . S
C119 H121 0.981 . S
C119 H122 0.981 . S
H120 C119 0.980 . S
H121 C119 0.981 . S
H122 C119 0.981 . S
O123 Zn99 2.066 . S
O123 C102 1.256 . S
O124 Zn96 2.053 . S
O124 C102 1.244 . S
C125 O103 1.259 . S
C125 O104 1.254 . S
O126 Zn96 2.066 . S
O126 C98 1.256 . S
O127 C98 1.244 . S
O127 Zn99 2.053 . S
C128 C129 1.386 1_554 S
C128 C130 1.383 . S
C128 H144 0.951 . S
C129 C128 1.386 1_556 S
C129 C133 1.382 . S
C130 C128 1.383 . S
C130 C131 1.403 1_554 S
C130 H145 0.951 . S
C131 C130 1.403 1_556 S
C131 C132 1.374 . S
C131 C134 1.481 . S
C132 C131 1.374 . S
C132 C133 1.367 . S
C132 H146 0.951 . S
C133 C129 1.382 . S
C133 C132 1.367 . S
C133 H147 0.950 . S
C134 C131 1.481 . S
C134 C135 1.297 1_556 S
C134 H148 0.950 . S
C135 C134 1.297 1_554 S
C135 C136 1.479 . S
C135 H149 0.950 . S
C136 C135 1.479 . S
C136 C137 1.375 . S
C136 C142 1.404 1_554 S
C137 C136 1.375 . S
C137 C138 1.369 . S
C137 H150 0.950 . S
C138 C137 1.369 . S
C138 C139 1.392 . S
C138 H151 0.951 . S
C139 C138 1.392 . S
C139 C141 1.384 1_554 S
H140 C142 0.949 . S
C141 C139 1.384 1_556 S
C141 C142 1.385 . S
C141 H143 0.950 . S
C142 C136 1.404 1_556 S
C142 H140 0.949 . S
C142 C141 1.385 . S
H143 C141 0.950 . S
H144 C128 0.951 . S
H145 C130 0.951 . S
H146 C132 0.951 . S
H147 C133 0.950 . S
H148 C134 0.950 . S
H149 C135 0.950 . S
H150 C137 0.950 . S
H151 C138 0.951 . S
C152 C153 1.386 . S
C152 C154 1.383 . S
C152 H168 0.951 . S
C153 C152 1.386 . S
C153 C157 1.383 . S
C154 C152 1.383 . S
C154 C155 1.402 . S
C154 H169 0.951 . S
C155 C154 1.402 . S
C155 C156 1.375 . S
C155 C158 1.481 . S
C156 C155 1.375 . S
C156 C157 1.367 . S
C156 H170 0.951 . S
C157 C153 1.383 . S
C157 C156 1.367 . S
C157 H171 0.950 . S
C158 C155 1.481 . S
C158 C159 1.297 . S
C158 H172 0.950 . S
C159 C158 1.297 . S
C159 C160 1.479 . S
C159 H173 0.950 . S
C160 C159 1.479 . S
C160 C161 1.375 . S
C160 C166 1.404 . S
C161 C160 1.375 . S
C161 C162 1.369 . S
C161 H174 0.950 . S
C162 C161 1.369 . S
C162 C163 1.392 . S
C162 H175 0.951 . S
C163 C162 1.392 . S
C163 C165 1.384 . S
H164 C166 0.949 . S
C165 C163 1.384 . S
C165 C166 1.385 . S
C165 H167 0.950 . S
C166 C160 1.404 . S
C166 H164 0.949 . S
C166 C165 1.385 . S
H167 C165 0.950 . S
H168 C152 0.951 . S
H169 C154 0.951 . S
H170 C156 0.951 . S
H171 C157 0.950 . S
H172 C158 0.950 . S
H173 C159 0.950 . S
H174 C161 0.950 . S
H175 C162 0.951 . S
C176 C177 1.386 . S
C176 C178 1.383 . S
C176 H192 0.951 . S
C177 C176 1.386 . S
C177 C181 1.383 . S
C178 C176 1.383 . S
C178 C179 1.402 . S
C178 H193 0.951 . S
C179 C178 1.402 . S
C179 C180 1.375 1_455 S
C179 C182 1.481 1_455 S
C180 C179 1.375 1_655 S
C180 C181 1.367 1_655 S
C180 H194 0.951 . S
C181 C177 1.383 . S
C181 C180 1.367 1_455 S
C181 H195 0.950 . S
C182 C179 1.481 1_655 S
C182 C183 1.297 1_545 S
C182 H196 0.950 . S
C183 C182 1.297 1_565 S
C183 C184 1.479 . S
C183 H197 0.950 1_655 S
C184 C183 1.479 . S
C184 C185 1.375 . S
C184 C190 1.404 . S
C185 C184 1.375 . S
C185 C186 1.369 . S
C185 H198 0.950 1_655 S
C186 C185 1.369 . S
C186 C187 1.392 . S
C186 H199 0.951 . S
C187 C186 1.392 . S
C187 C189 1.384 . S
H188 C190 0.949 . S
C189 C187 1.384 . S
C189 C190 1.385 . S
C189 H191 0.950 . S
C190 C184 1.404 . S
C190 H188 0.949 . S
C190 C189 1.385 . S
H191 C189 0.950 . S
H192 C176 0.951 . S
H193 C178 0.951 . S
H194 C180 0.951 . S
H195 C181 0.950 . S
H196 C182 0.950 . S
H197 C183 0.950 1_455 S
H198 C185 0.950 1_455 S
H199 C186 0.951 . S
C200 C201 1.386 . S
C200 C202 1.383 . S
C200 H216 0.951 . S
C201 C200 1.386 . S
C201 C205 1.383 . S
C202 C200 1.383 . S
C202 C203 1.402 . S
C202 H217 0.951 . S
C203 C202 1.402 . S
C203 C204 1.375 . S
C203 C206 1.483 . S
C204 C203 1.375 . S
C204 C205 1.367 . S
C204 H218 0.951 . S
C205 C201 1.383 . S
C205 C204 1.367 . S
C205 H219 0.950 . S
C206 C203 1.483 . S
C206 C207 1.295 1_545 S
C206 H220 0.950 1_545 S
C207 C206 1.295 1_565 S
C207 C208 1.479 1_655 S
C207 H221 0.950 . S
C208 C207 1.479 1_455 S
C208 C209 1.375 . S
C208 C214 1.404 . S
C209 C208 1.375 . S
C209 C210 1.369 . S
C209 H222 0.956 . S
C210 C209 1.369 . S
C210 C211 1.392 . S
C210 H223 0.951 . S
C211 C210 1.392 . S
C211 C213 1.384 . S
H212 C214 0.949 . S
C213 C211 1.384 . S
C213 C214 1.385 . S
C213 H215 0.950 . S
C214 C208 1.404 . S
C214 H212 0.949 . S
C214 C213 1.385 . S
H215 C213 0.950 . S
H216 C200 0.951 . S
H217 C202 0.951 . S
H218 C204 0.951 . S
H219 C205 0.950 . S
H220 C206 0.950 1_565 S
H221 C207 0.950 . S
H222 C209 0.956 . S
H223 C210 0.951 . S
C224 C225 1.386 . S
C224 C226 1.383 . S
C224 H240 0.951 . S
C225 C224 1.386 . S
C225 C229 1.383 . S
C226 C224 1.383 . S
C226 C227 1.402 . S
C226 H241 0.951 . S
C227 C226 1.402 . S
C227 C228 1.375 . S
C227 C230 1.481 . S
C228 C227 1.375 . S
C228 C229 1.367 . S
C228 H242 0.951 . S
C229 C225 1.383 . S
C229 C228 1.367 . S
C229 H243 0.950 . S
C230 C227 1.481 . S
C230 C231 1.297 . S
C230 H244 0.950 . S
C231 C230 1.297 . S
C231 C232 1.479 . S
C231 H245 0.950 . S
C232 C231 1.479 . S
C232 C233 1.375 . S
C232 C238 1.404 . S
C233 C232 1.375 . S
C233 C234 1.369 . S
C233 H246 0.950 . S
C234 C233 1.369 . S
C234 C235 1.392 . S
C234 H247 0.951 . S
C235 C234 1.392 . S
C235 C237 1.384 . S
H236 C238 0.949 . S
C237 C235 1.384 . S
C237 C238 1.385 . S
C237 H239 0.950 . S
C238 C232 1.404 . S
C238 H236 0.949 . S
C238 C237 1.385 . S
H239 C237 0.950 . S
H240 C224 0.951 . S
H241 C226 0.951 . S
H242 C228 0.951 . S
H243 C229 0.950 . S
H244 C230 0.950 . S
H245 C231 0.950 . S
H246 C233 0.950 . S
H247 C234 0.951 . S
C248 C249 1.386 . S
C248 C250 1.383 . S
C248 H264 0.951 . S
C249 C248 1.386 . S
C249 C253 1.383 . S
C250 C248 1.383 . S
C250 C251 1.402 . S
C250 H265 0.951 . S
C251 C250 1.402 . S
C251 C252 1.375 . S
C251 C254 1.481 . S
C252 C251 1.375 . S
C252 C253 1.367 . S
C252 H266 0.951 . S
C253 C249 1.383 . S
C253 C252 1.367 . S
C253 H267 0.950 . S
C254 C251 1.481 . S
C254 C255 1.297 . S
C254 H268 0.950 . S
C255 C254 1.297 . S
C255 C256 1.479 . S
C255 H269 0.950 . S
C256 C255 1.479 . S
C256 C257 1.375 . S
C256 C262 1.404 . S
C257 C256 1.375 . S
C257 C258 1.369 . S
C257 H270 0.950 . S
C258 C257 1.369 . S
C258 C259 1.392 . S
C258 H271 0.951 . S
C259 C258 1.392 . S
C259 C261 1.384 . S
H260 C262 0.949 . S
C261 C259 1.384 . S
C261 C262 1.385 . S
C261 H263 0.950 . S
C262 C256 1.404 . S
C262 H260 0.949 . S
C262 C261 1.385 . S
H263 C261 0.950 . S
H264 C248 0.951 . S
H265 C250 0.951 . S
H266 C252 0.951 . S
H267 C253 0.950 . S
H268 C254 0.950 . S
H269 C255 0.950 . S
H270 C257 0.950 . S
H271 C258 0.951 . S
C272 C273 1.386 . S
C272 C274 1.383 . S
C272 H288 0.951 . S
C273 C272 1.386 . S
C273 C277 1.383 . S
C274 C272 1.383 . S
C274 C275 1.402 . S
C274 H289 0.951 . S
C275 C274 1.402 . S
C275 C276 1.375 . S
C275 C278 1.481 . S
C276 C275 1.375 . S
C276 C277 1.367 . S
C276 H290 0.951 . S
C277 C273 1.383 . S
C277 C276 1.367 . S
C277 H291 0.950 . S
C278 C275 1.481 . S
C278 C279 1.297 . S
C278 H292 0.950 . S
C279 C278 1.297 . S
C279 C280 1.479 . S
C279 H293 0.950 . S
C280 C279 1.479 . S
C280 C281 1.375 . S
C280 C286 1.404 . S
C281 C280 1.375 . S
C281 C282 1.369 . S
C281 H294 0.950 . S
C282 C281 1.369 . S
C282 C283 1.392 . S
C282 H295 0.951 . S
C283 C282 1.392 . S
C283 C285 1.384 . S
H284 C286 0.949 . S
C285 C283 1.384 . S
C285 C286 1.385 . S
C285 H287 0.950 . S
C286 C280 1.404 . S
C286 H284 0.949 . S
C286 C285 1.385 . S
H287 C285 0.950 . S
H288 C272 0.951 . S
H289 C274 0.951 . S
H290 C276 0.951 . S
H291 C277 0.950 . S
H292 C278 0.950 . S
H293 C279 0.950 . S
H294 C281 0.950 . S
H295 C282 0.951 . S
C296 C297 1.386 . S
C296 C298 1.383 . S
C296 H312 0.951 . S
C297 C296 1.386 . S
C297 C301 1.383 . S
C298 C296 1.383 . S
C298 C299 1.402 . S
C298 H313 0.951 . S
C299 C298 1.402 . S
C299 C300 1.375 . S
C299 C302 1.481 . S
C300 C299 1.375 . S
C300 C301 1.367 . S
C300 H314 0.951 . S
C301 C297 1.383 . S
C301 C300 1.367 . S
C301 H315 0.950 . S
C302 C299 1.481 . S
C302 C303 1.297 . S
C302 H316 0.950 . S
C303 C302 1.297 . S
C303 C304 1.479 . S
C303 H317 0.950 . S
C304 C303 1.479 . S
C304 C305 1.375 . S
C304 C310 1.404 . S
C305 C304 1.375 . S
C305 C306 1.369 . S
C305 H318 0.950 . S
C306 C305 1.369 . S
C306 C307 1.392 . S
C306 H319 0.951 . S
C307 C306 1.392 . S
C307 C309 1.384 . S
H308 C310 0.949 . S
C309 C307 1.384 . S
C309 C310 1.385 . S
C309 H311 0.950 . S
C310 C304 1.404 . S
C310 H308 0.949 . S
C310 C309 1.385 . S
H311 C309 0.950 . S
H312 C296 0.951 . S
H313 C298 0.951 . S
H314 C300 0.951 . S
H315 C301 0.950 . S
H316 C302 0.950 . S
H317 C303 0.950 . S
H318 C305 0.950 . S
H319 C306 0.951 . S
C320 C321 1.386 . S
C320 C322 1.383 . S
C320 H336 0.951 . S
C321 C320 1.386 . S
C321 C325 1.383 . S
C322 C320 1.383 . S
C322 C323 1.402 . S
C322 H337 0.951 . S
C323 C322 1.402 . S
C323 C324 1.375 . S
C323 C326 1.481 1_655 S
C324 C323 1.375 . S
C324 C325 1.367 . S
C324 H338 0.951 . S
C325 C321 1.383 . S
C325 C324 1.367 . S
C325 H339 0.950 . S
C326 C323 1.481 1_455 S
C326 C327 1.297 . S
C326 H340 0.950 . S
C327 C326 1.297 . S
C327 C328 1.479 . S
C327 H341 0.950 . S
C328 C327 1.479 . S
C328 C329 1.375 . S
C328 C334 1.404 . S
C329 C328 1.375 . S
C329 C330 1.369 . S
C329 H342 0.950 . S
C330 C329 1.369 . S
C330 C331 1.392 . S
C330 H343 0.951 . S
C331 C330 1.392 . S
C331 C333 1.384 . S
H332 C334 0.949 . S
C333 C331 1.384 . S
C333 C334 1.385 . S
C333 H335 0.950 . S
C334 C328 1.404 . S
C334 H332 0.949 . S
C334 C333 1.385 . S
H335 C333 0.950 . S
H336 C320 0.951 . S
H337 C322 0.951 . S
H338 C324 0.951 . S
H339 C325 0.950 . S
H340 C326 0.950 . S
H341 C327 0.950 . S
H342 C329 0.950 . S
H343 C330 0.951 . S
C344 C345 1.386 . S
C344 C346 1.383 . S
C344 H360 0.951 . S
C345 C344 1.386 . S
C345 C349 1.383 . S
C346 C344 1.383 . S
C346 C347 1.402 . S
C346 H361 0.951 . S
C347 C346 1.402 . S
C347 C348 1.375 1_655 S
C347 C350 1.481 1_655 S
C348 C347 1.375 1_455 S
C348 C349 1.367 1_455 S
C348 H362 0.951 . S
C349 C345 1.383 . S
C349 C348 1.367 1_655 S
C349 H363 0.950 1_655 S
C350 C347 1.481 1_455 S
C350 C351 1.297 . S
C350 H364 0.950 . S
C351 C350 1.297 . S
C351 C352 1.479 . S
C351 H365 0.950 1_455 S
C352 C351 1.479 . S
C352 C353 1.375 . S
C352 C358 1.404 . S
C353 C352 1.375 . S
C353 C354 1.369 . S
C353 H366 0.950 1_455 S
C354 C353 1.369 . S
C354 C355 1.392 . S
C354 H367 0.951 . S
C355 C354 1.392 . S
C355 C357 1.384 . S
H356 C358 0.949 . S
C357 C355 1.384 . S
C357 C358 1.385 . S
C357 H359 0.950 . S
C358 C352 1.404 . S
C358 H356 0.949 . S
C358 C357 1.385 . S
H359 C357 0.950 . S
H360 C344 0.951 . S
H361 C346 0.951 . S
H362 C348 0.951 . S
H363 C349 0.950 1_455 S
H364 C350 0.950 . S
H365 C351 0.950 1_655 S
H366 C353 0.950 1_655 S
H367 C354 0.951 . S
C368 C369 1.386 . S
C368 C370 1.383 . S
C368 H384 0.951 . S
C369 C368 1.386 . S
C369 C373 1.383 . S
C370 C368 1.383 . S
C370 C371 1.402 . S
C370 H385 0.951 . S
C371 C370 1.402 . S
C371 C372 1.375 . S
C371 C374 1.481 . S
C372 C371 1.375 . S
C372 C373 1.367 . S
C372 H386 0.944 1_655 S
C373 C369 1.383 . S
C373 C372 1.367 . S
C373 H387 0.950 . S
C374 C371 1.481 . S
C374 C375 1.297 . S
C374 H388 0.950 1_655 S
C375 C374 1.297 . S
C375 C376 1.479 1_655 S
C375 H389 0.950 . S
C376 C375 1.479 1_455 S
C376 C377 1.375 . S
C376 C382 1.404 . S
C377 C376 1.375 . S
C377 C378 1.369 . S
C377 H390 0.950 1_455 S
C378 C377 1.369 . S
C378 C379 1.392 . S
C378 H391 0.951 . S
C379 C378 1.392 . S
C379 C381 1.384 . S
H380 C382 0.949 . S
C381 C379 1.384 . S
C381 C382 1.385 . S
C381 H383 0.950 . S
C382 C376 1.404 . S
C382 H380 0.949 . S
C382 C381 1.385 . S
H383 C381 0.950 . S
H384 C368 0.951 . S
H385 C370 0.951 . S
H386 C372 0.944 1_455 S
H387 C373 0.950 . S
H388 C374 0.950 1_455 S
H389 C375 0.950 . S
H390 C377 0.950 1_655 S
H391 C378 0.951 . S
C392 C393 1.386 . S
C392 C394 1.383 . S
C392 H408 0.951 . S
C393 C392 1.386 . S
C393 C397 1.383 . S
C394 C392 1.383 . S
C394 C395 1.402 . S
C394 H409 0.951 . S
C395 C394 1.402 . S
C395 C396 1.375 . S
C395 C398 1.481 . S
C396 C395 1.375 . S
C396 C397 1.367 . S
C396 H410 0.951 . S
C397 C393 1.383 . S
C397 C396 1.367 . S
C397 H411 0.950 . S
C398 C395 1.481 . S
C398 C399 1.297 . S
C398 H412 0.950 . S
C399 C398 1.297 . S
C399 C400 1.479 1_455 S
C399 H413 0.950 . S
C400 C399 1.479 1_655 S
C400 C401 1.375 . S
C400 C406 1.404 1_655 S
C401 C400 1.375 . S
C401 C402 1.369 . S
C401 H414 0.950 . S
C402 C401 1.369 . S
C402 C403 1.392 . S
C402 H415 0.951 . S
C403 C402 1.392 . S
C403 C405 1.384 . S
H404 C406 0.949 . S
C405 C403 1.384 . S
C405 C406 1.385 1_655 S
C405 H407 0.950 . S
C406 C400 1.404 1_455 S
C406 H404 0.949 . S
C406 C405 1.385 1_455 S
H407 C405 0.950 . S
H408 C392 0.951 . S
H409 C394 0.951 . S
H410 C396 0.951 . S
H411 C397 0.950 . S
H412 C398 0.950 . S
H413 C399 0.950 . S
H414 C401 0.950 . S
H415 C402 0.951 . S
C129 N45 1.580 . S
C139 N18 1.544 . S
C153 N77 1.545 . S
C163 N114 1.623 . S
C177 N13 1.596 1_554 S
C187 N50 1.516 . S
C201 N109 1.555 . S
C211 N82 1.568 . S
C225 C98 0.902 . S
C235 C29 0.903 . S
C249 C38 0.858 . S
C259 C68 0.860 . S
C273 C34 0.895 . S
C283 C93 0.915 . S
C297 C102 0.907 . S
C307 C4 0.898 . S
C321 C61 0.881 . S
C331 C66 0.845 . S
C345 C100 0.897 . S
C355 C6 0.900 . S
C369 C125 0.894 . S
C379 C2 0.927 . S
C393 C70 0.888 . S
C403 C36 0.933 . S
