# Generated by pormake.
# Topology pcb, (4)-cn, num edge types: 1
# Building blocks:
#     Node 0, Type 0, BuildingBlock: UXUYUI_clean_sbu_0, # of connection points: 4
#     Node 1, Type 0, BuildingBlock: UXUYUI_clean_sbu_0, # of connection points: 4
#     Node 2, Type 0, BuildingBlock: UXUYUI_clean_sbu_0, # of connection points: 4
#     Node 3, Type 0, BuildingBlock: UXUYUI_clean_sbu_0, # of connection points: 4
#     Node 4, Type 0, BuildingBlock: UXUYUI_clean_sbu_0, # of connection points: 4
#     Node 5, Type 0, BuildingBlock: UXUYUI_clean_sbu_0, # of connection points: 4
#     Node 6, Type 0, BuildingBlock: UXUYUI_clean_sbu_0, # of connection points: 4
#     Node 7, Type 0, BuildingBlock: UXUYUI_clean_sbu_0, # of connection points: 4
#     Node 8, Type 0, BuildingBlock: UXUYUI_clean_sbu_0, # of connection points: 4
#     Node 9, Type 0, BuildingBlock: UXUYUI_clean_sbu_0, # of connection points: 4
#     Node 10, Type 0, BuildingBlock: UXUYUI_clean_sbu_0, # of connection points: 4
#     Node 11, Type 0, BuildingBlock: UXUYUI_clean_sbu_0, # of connection points: 4
#     Node 12, Type 0, BuildingBlock: UXUYUI_clean_sbu_0, # of connection points: 4
#     Node 13, Type 0, BuildingBlock: UXUYUI_clean_sbu_0, # of connection points: 4
#     Node 14, Type 0, BuildingBlock: UXUYUI_clean_sbu_0, # of connection points: 4
#     Node 15, Type 0, BuildingBlock: UXUYUI_clean_sbu_0, # of connection points: 4
#     Edge 16, Type (0, 0), BuildingBlock: XUDNAN_clean_linker_2, # of connection points: 2
#     Edge 17, Type (0, 0), BuildingBlock: XUDNAN_clean_linker_2, # of connection points: 2
#     Edge 18, Type (0, 0), BuildingBlock: XUDNAN_clean_linker_2, # of connection points: 2
#     Edge 19, Type (0, 0), BuildingBlock: XUDNAN_clean_linker_2, # of connection points: 2
#     Edge 20, Type (0, 0), BuildingBlock: XUDNAN_clean_linker_2, # of connection points: 2
#     Edge 21, Type (0, 0), BuildingBlock: XUDNAN_clean_linker_2, # of connection points: 2
#     Edge 22, Type (0, 0), BuildingBlock: XUDNAN_clean_linker_2, # of connection points: 2
#     Edge 23, Type (0, 0), BuildingBlock: XUDNAN_clean_linker_2, # of connection points: 2
#     Edge 24, Type (0, 0), BuildingBlock: XUDNAN_clean_linker_2, # of connection points: 2
#     Edge 25, Type (0, 0), BuildingBlock: XUDNAN_clean_linker_2, # of connection points: 2
#     Edge 26, Type (0, 0), BuildingBlock: XUDNAN_clean_linker_2, # of connection points: 2
#     Edge 27, Type (0, 0), BuildingBlock: XUDNAN_clean_linker_2, # of connection points: 2
#     Edge 28, Type (0, 0), BuildingBlock: XUDNAN_clean_linker_2, # of connection points: 2
#     Edge 29, Type (0, 0), BuildingBlock: XUDNAN_clean_linker_2, # of connection points: 2
#     Edge 30, Type (0, 0), BuildingBlock: XUDNAN_clean_linker_2, # of connection points: 2
#     Edge 31, Type (0, 0), BuildingBlock: XUDNAN_clean_linker_2, # of connection points: 2
#     Edge 32, Type (0, 0), BuildingBlock: XUDNAN_clean_linker_2, # of connection points: 2
#     Edge 33, Type (0, 0), BuildingBlock: XUDNAN_clean_linker_2, # of connection points: 2
#     Edge 34, Type (0, 0), BuildingBlock: XUDNAN_clean_linker_2, # of connection points: 2
#     Edge 35, Type (0, 0), BuildingBlock: XUDNAN_clean_linker_2, # of connection points: 2
#     Edge 36, Type (0, 0), BuildingBlock: XUDNAN_clean_linker_2, # of connection points: 2
#     Edge 37, Type (0, 0), BuildingBlock: XUDNAN_clean_linker_2, # of connection points: 2
#     Edge 38, Type (0, 0), BuildingBlock: XUDNAN_clean_linker_2, # of connection points: 2
#     Edge 39, Type (0, 0), BuildingBlock: XUDNAN_clean_linker_2, # of connection points: 2
#     Edge 40, Type (0, 0), BuildingBlock: XUDNAN_clean_linker_2, # of connection points: 2
#     Edge 41, Type (0, 0), BuildingBlock: XUDNAN_clean_linker_2, # of connection points: 2
#     Edge 42, Type (0, 0), BuildingBlock: XUDNAN_clean_linker_2, # of connection points: 2
#     Edge 43, Type (0, 0), BuildingBlock: XUDNAN_clean_linker_2, # of connection points: 2
#     Edge 44, Type (0, 0), BuildingBlock: XUDNAN_clean_linker_2, # of connection points: 2
#     Edge 45, Type (0, 0), BuildingBlock: XUDNAN_clean_linker_2, # of connection points: 2
#     Edge 46, Type (0, 0), BuildingBlock: XUDNAN_clean_linker_2, # of connection points: 2
#     Edge 47, Type (0, 0), BuildingBlock: XUDNAN_clean_linker_2, # of connection points: 2
# Relax obj value: 0.233
# Max RMSD: 0.082
# Mean RMSD: 0.081
data_MOF--net-pcb--node1-UXUYUI_clean_sbu_0--edge1-XUDNAN_clean_linker_2
_symmetry_space_group_name_H-M    P1
_symmetry_Int_Tables_number       1
_symmetry_cell_setting            triclinic
loop_
_symmetry_equiv_pos_as_xyz
'x, y, z'
_cell_length_a     68.690781
_cell_length_b     68.376409
_cell_length_c     68.55941
_cell_angle_alpha  90.065557
_cell_angle_beta   89.97861
_cell_angle_gamma 90.137274
loop_
_atom_site_label
_atom_site_type_symbol
_atom_site_fract_x
_atom_site_fract_y
_atom_site_fract_z
_atom_type_partial_charge
Li0 Li 0.15881 0.16268 0.13605 0.0
Li1 Li 0.16635 0.16874 0.16975 0.0
Li2 Li 0.15756 0.13605 0.15978 0.0
Li3 Li 0.13241 0.16282 0.16219 0.0
C4 C 0.19629 0.15017 0.13981 0.0
N5 N 0.2283 0.14777 0.11547 0.0
C6 C 0.21154 0.16366 0.14156 0.0
C7 C 0.19743 0.13538 0.12577 0.0
C8 C 0.22758 0.16221 0.12911 0.0
C9 C 0.21369 0.13445 0.11356 0.0
C10 C 0.15419 0.20362 0.15422 0.0
C11 C 0.14662 0.23673 0.16361 0.0
N12 N 0.16472 0.24245 0.15789 0.0
C13 C 0.17267 0.20982 0.14834 0.0
C14 C 0.14101 0.21715 0.16186 0.0
C15 C 0.17774 0.22952 0.15036 0.0
C16 C 0.14903 0.1641 0.09631 0.0
N17 N 0.16328 0.16893 0.10923 0.0
C18 C 0.18416 0.17916 0.08328 0.0
C19 C 0.18029 0.17712 0.10314 0.0
C20 C 0.17011 0.17333 0.06963 0.0
C21 C 0.15213 0.16624 0.0763 0.0
H22 H 0.13544 0.15805 0.10152 0.0
H23 H 0.19109 0.18165 0.11359 0.0
C24 C 0.20021 0.17265 0.19146 0.0
N25 N 0.18327 0.18201 0.18739 0.0
C26 C 0.21332 0.18056 0.20481 0.0
C27 C 0.19113 0.20748 0.20993 0.0
C28 C 0.17838 0.19896 0.19653 0.0
C29 C 0.20887 0.19824 0.21418 0.0
H30 H 0.20344 0.15885 0.18447 0.0
H31 H 0.16444 0.20566 0.19377 0.0
C32 C 0.13116 0.12645 0.13221 0.0
N33 N 0.11932 0.09124 0.11622 0.0
C34 C 0.11436 0.11714 0.13908 0.0
C35 C 0.14184 0.11789 0.1171 0.0
C36 C 0.10864 0.09934 0.13084 0.0
C37 C 0.13564 0.10008 0.10924 0.0
C38 C 0.15529 0.1504 0.20164 0.0
C39 C 0.16951 0.13682 0.20698 0.0
C40 C 0.14933 0.16455 0.2151 0.0
C41 C 0.1776 0.1377 0.22566 0.0
C42 C 0.1578 0.16497 0.23362 0.0
N43 N 0.17165 0.15166 0.23847 0.0
C44 C 0.18084 0.10226 0.16198 0.0
C45 C 0.1474 0.09665 0.16845 0.0
C46 C 0.18492 0.08244 0.16436 0.0
N47 N 0.16226 0.10888 0.16362 0.0
C48 C 0.15076 0.07664 0.1706 0.0
C49 C 0.16971 0.06936 0.16843 0.0
H50 H 0.19254 0.11237 0.15899 0.0
H51 H 0.13295 0.10242 0.17068 0.0
C52 C 0.09262 0.16325 0.15347 0.0
N53 N 0.10594 0.16896 0.16696 0.0
C54 C 0.07283 0.16627 0.15674 0.0
C55 C 0.08086 0.1822 0.18718 0.0
C56 C 0.10052 0.17861 0.18342 0.0
C57 C 0.06664 0.17572 0.17389 0.0
H58 H 0.09736 0.15609 0.14024 0.0
H59 H 0.11144 0.1835 0.19364 0.0
O60 O 0.18043 0.15138 0.15186 0.0
O61 O 0.14897 0.18441 0.15251 0.0
O62 O 0.13713 0.14381 0.14024 0.0
O63 O 0.14765 0.15014 0.18319 0.0
H64 H 0.21088 0.17536 0.15216 0.0
H65 H 0.18593 0.12468 0.12434 0.0
H66 H 0.23941 0.17262 0.13022 0.0
H67 H 0.21471 0.12311 0.1026 0.0
H68 H 0.13659 0.24737 0.16954 0.0
H69 H 0.18307 0.19949 0.14258 0.0
H70 H 0.12663 0.21255 0.16645 0.0
H71 H 0.19205 0.23451 0.14599 0.0
H72 H 0.19808 0.18499 0.07861 0.0
H73 H 0.14095 0.16163 0.06614 0.0
H74 H 0.22686 0.173 0.20764 0.0
H75 H 0.187 0.22093 0.21717 0.0
H76 H 0.10604 0.12335 0.15096 0.0
H77 H 0.15473 0.12495 0.11143 0.0
H78 H 0.09576 0.09191 0.13614 0.0
H79 H 0.14381 0.09329 0.09757 0.0
H80 H 0.17448 0.12589 0.19677 0.0
H81 H 0.1386 0.17536 0.21119 0.0
H82 H 0.1887 0.12736 0.22992 0.0
H83 H 0.15344 0.17596 0.2441 0.0
H84 H 0.19976 0.07735 0.1627 0.0
H85 H 0.13874 0.067 0.17416 0.0
H86 H 0.06251 0.16079 0.14611 0.0
H87 H 0.07687 0.18996 0.20036 0.0
Li88 Li 0.82554 0.16858 0.16683 0.0
Li89 Li 0.83239 0.1357 0.15517 0.0
Li90 Li 0.85829 0.16229 0.15612 0.0
Li91 Li 0.83222 0.16308 0.13159 0.0
C92 C 0.84137 0.15127 0.19744 0.0
N93 N 0.83496 0.15579 0.23696 0.0
C94 C 0.82968 0.13789 0.20748 0.0
C95 C 0.85 0.16679 0.20752 0.0
C96 C 0.82657 0.14046 0.22746 0.0
C97 C 0.84652 0.16888 0.22749 0.0
C98 C 0.79506 0.14293 0.13988 0.0
C99 C 0.78202 0.12144 0.11518 0.0
N100 N 0.76425 0.12238 0.12389 0.0
C101 C 0.77664 0.14381 0.1485 0.0
C102 C 0.79776 0.13175 0.12304 0.0
C103 C 0.76126 0.13327 0.14023 0.0
C104 C 0.81291 0.20117 0.18891 0.0
N105 N 0.81003 0.18188 0.1852 0.0
C106 C 0.78501 0.18011 0.20928 0.0
C107 C 0.79634 0.17131 0.19489 0.0
C108 C 0.7878 0.19999 0.21364 0.0
C109 C 0.80193 0.21057 0.20321 0.0
H110 H 0.82378 0.20924 0.18087 0.0
H111 H 0.79439 0.15597 0.19154 0.0
C112 C 0.84075 0.09536 0.15485 0.0
N113 N 0.8268 0.10884 0.15884 0.0
C114 C 0.83668 0.07545 0.15683 0.0
C115 C 0.80406 0.08374 0.16723 0.0
C116 C 0.80886 0.10347 0.16533 0.0
C117 C 0.81804 0.06949 0.16284 0.0
H118 H 0.85496 0.10009 0.14995 0.0
H119 H 0.79825 0.1145 0.16901 0.0
C120 C 0.85276 0.20093 0.14672 0.0
N121 N 0.87617 0.23359 0.14263 0.0
C122 C 0.8562 0.20883 0.12824 0.0
C123 C 0.8611 0.20974 0.16313 0.0
C124 C 0.8681 0.22533 0.12647 0.0
C125 C 0.87293 0.22621 0.16075 0.0
C126 C 0.86113 0.1349 0.11928 0.0
C127 C 0.87875 0.14257 0.11249 0.0
C128 C 0.85267 0.11898 0.10964 0.0
C129 C 0.88735 0.13452 0.09586 0.0
C130 C 0.86172 0.11135 0.09305 0.0
N131 N 0.87871 0.11923 0.08654 0.0
C132 C 0.89296 0.15701 0.17669 0.0
C133 C 0.8961 0.17949 0.15062 0.0
C134 C 0.91245 0.15968 0.18176 0.0
N135 N 0.88516 0.16694 0.16144 0.0
C136 C 0.91557 0.18286 0.15537 0.0
C137 C 0.92406 0.17286 0.17112 0.0
H138 H 0.88404 0.14685 0.18485 0.0
H139 H 0.88979 0.18687 0.13825 0.0
C140 C 0.8062 0.17438 0.10182 0.0
N141 N 0.8251 0.16991 0.1056 0.0
C142 C 0.79998 0.17733 0.08266 0.0
C143 C 0.83305 0.17225 0.07178 0.0
C144 C 0.83859 0.16943 0.09112 0.0
C145 C 0.81342 0.17586 0.06729 0.0
H146 H 0.79582 0.17519 0.11365 0.0
H147 H 0.85363 0.16658 0.09449 0.0
O148 O 0.8443 0.1492 0.17782 0.0
O149 O 0.81034 0.15289 0.14802 0.0
O150 O 0.84105 0.18484 0.1487 0.0
O151 O 0.85253 0.1426 0.13559 0.0
H152 H 0.82295 0.12576 0.19989 0.0
H153 H 0.85922 0.17716 0.19999 0.0
H154 H 0.81745 0.1303 0.2354 0.0
H155 H 0.85301 0.18089 0.23546 0.0
H156 H 0.78393 0.11272 0.10215 0.0
H157 H 0.77424 0.15249 0.16148 0.0
H158 H 0.8118 0.1312 0.11601 0.0
H159 H 0.74695 0.13375 0.1468 0.0
H160 H 0.77408 0.17148 0.21675 0.0
H161 H 0.80467 0.22588 0.20623 0.0
H162 H 0.8478 0.06482 0.15327 0.0
H163 H 0.78964 0.07964 0.17217 0.0
H164 H 0.84975 0.20231 0.1154 0.0
H165 H 0.85863 0.20381 0.17754 0.0
H166 H 0.87093 0.23157 0.11225 0.0
H167 H 0.87957 0.23309 0.17332 0.0
H168 H 0.88559 0.15476 0.11981 0.0
H169 H 0.83936 0.11244 0.11496 0.0
H170 H 0.90089 0.14045 0.09035 0.0
H171 H 0.85527 0.0991 0.0854 0.0
H172 H 0.91839 0.15122 0.19368 0.0
H173 H 0.92381 0.19329 0.14681 0.0
H174 H 0.78478 0.18047 0.0799 0.0
H175 H 0.84394 0.17089 0.06044 0.0
Li176 Li 0.83676 0.86137 0.16106 0.0
Li177 Li 0.86421 0.83689 0.16351 0.0
Li178 Li 0.84131 0.83675 0.13618 0.0
Li179 Li 0.82975 0.82683 0.16716 0.0
C180 C 0.8638 0.87381 0.13319 0.0
N181 N 0.8717 0.90751 0.11244 0.0
C182 C 0.88135 0.88379 0.13606 0.0
C183 C 0.85034 0.88088 0.11967 0.0
C184 C 0.88506 0.90083 0.12546 0.0
C185 C 0.85459 0.89796 0.10934 0.0
C186 C 0.83685 0.84204 0.20162 0.0
C187 C 0.83248 0.82134 0.22975 0.0
N188 N 0.81851 0.83368 0.2365 0.0
C189 C 0.82248 0.85453 0.20885 0.0
C190 C 0.84196 0.82534 0.21216 0.0
C191 C 0.81337 0.85005 0.22652 0.0
C192 C 0.8103 0.89235 0.16618 0.0
N193 N 0.82949 0.88762 0.16577 0.0
C194 C 0.83858 0.92116 0.169 0.0
C195 C 0.84356 0.90145 0.16772 0.0
C196 C 0.81885 0.92669 0.16885 0.0
C197 C 0.80462 0.91187 0.16788 0.0
H198 H 0.79941 0.88097 0.1649 0.0
H199 H 0.8587 0.89722 0.16774 0.0
C200 C 0.90361 0.83642 0.15554 0.0
N201 N 0.89061 0.83321 0.17011 0.0
C202 C 0.92344 0.83382 0.15879 0.0
C203 C 0.91617 0.82446 0.19203 0.0
C204 C 0.89641 0.8274 0.18815 0.0
C205 C 0.92994 0.82773 0.17722 0.0
H206 H 0.8985 0.84086 0.14129 0.0
H207 H 0.88573 0.825 0.19947 0.0
C208 C 0.80103 0.84348 0.13703 0.0
N209 N 0.76887 0.84121 0.11291 0.0
C210 C 0.7898 0.8264 0.13644 0.0
C211 C 0.79569 0.85952 0.12561 0.0
C212 C 0.77365 0.82552 0.12409 0.0
C213 C 0.77946 0.85804 0.11342 0.0
C214 C 0.8524 0.80017 0.13819 0.0
C215 C 0.83633 0.78887 0.13269 0.0
C216 C 0.87024 0.79753 0.12875 0.0
C217 C 0.83835 0.77519 0.11768 0.0
C218 C 0.87165 0.78373 0.11377 0.0
N219 N 0.8558 0.77295 0.10859 0.0
C220 C 0.8584 0.83588 0.09935 0.0
C221 C 0.82666 0.8223 0.09921 0.0
C222 C 0.86088 0.83114 0.07974 0.0
N223 N 0.84148 0.83151 0.10868 0.0
C224 C 0.82854 0.8172 0.07957 0.0
C225 C 0.84589 0.8215 0.06962 0.0
H226 H 0.87023 0.84263 0.10729 0.0
H227 H 0.81368 0.81815 0.10698 0.0
C228 C 0.79553 0.81618 0.18714 0.0
N229 N 0.81294 0.80955 0.18046 0.0
C230 C 0.7825 0.80332 0.19604 0.0
C231 C 0.80569 0.77717 0.19113 0.0
C232 C 0.81834 0.79057 0.18251 0.0
C233 C 0.78744 0.78349 0.19783 0.0
H234 H 0.79168 0.83139 0.18522 0.0
H235 H 0.83238 0.78582 0.17721 0.0
O236 O 0.85982 0.85728 0.1437 0.0
O237 O 0.84556 0.84592 0.1841 0.0
O238 O 0.81669 0.84477 0.14929 0.0
O239 O 0.85058 0.81402 0.15247 0.0
H240 H 0.8919 0.87854 0.14654 0.0
H241 H 0.83682 0.8732 0.11714 0.0
H242 H 0.89853 0.90877 0.12761 0.0
H243 H 0.84428 0.90361 0.09885 0.0
H244 H 0.83617 0.80838 0.23798 0.0
H245 H 0.81831 0.86748 0.20085 0.0
H246 H 0.85283 0.81534 0.20662 0.0
H247 H 0.80218 0.85955 0.23226 0.0
H248 H 0.85016 0.9319 0.16944 0.0
H249 H 0.78924 0.91528 0.1682 0.0
H250 H 0.93356 0.8362 0.14691 0.0
H251 H 0.92065 0.81987 0.20646 0.0
H252 H 0.79365 0.81386 0.14519 0.0
H253 H 0.80389 0.87302 0.12623 0.0
H254 H 0.76494 0.81234 0.12336 0.0
H255 H 0.77522 0.87031 0.10444 0.0
H256 H 0.82238 0.79084 0.13973 0.0
H257 H 0.8828 0.80621 0.13279 0.0
H258 H 0.826 0.76644 0.11318 0.0
H259 H 0.88532 0.78164 0.10623 0.0
H260 H 0.87444 0.83494 0.07263 0.0
H261 H 0.81675 0.80945 0.07244 0.0
H262 H 0.7685 0.80868 0.20095 0.0
H263 H 0.8101 0.76204 0.19252 0.0
Li264 Li 0.13817 0.83449 0.15671 0.0
Li265 Li 0.17192 0.82716 0.16493 0.0
Li266 Li 0.16284 0.85967 0.15263 0.0
Li267 Li 0.16368 0.83059 0.13038 0.0
C268 C 0.14355 0.84886 0.19315 0.0
N269 N 0.12033 0.85276 0.2258 0.0
C270 C 0.14596 0.83625 0.20899 0.0
C271 C 0.12951 0.86358 0.19398 0.0
C272 C 0.13403 0.83844 0.22536 0.0
C273 C 0.11785 0.86527 0.21059 0.0
C274 C 0.15559 0.7914 0.14796 0.0
C275 C 0.17345 0.76315 0.13696 0.0
N276 N 0.15987 0.75133 0.14536 0.0
C277 C 0.14175 0.77899 0.15638 0.0
C278 C 0.17152 0.78345 0.13809 0.0
C279 C 0.14421 0.75877 0.15495 0.0
C280 C 0.09803 0.83604 0.15001 0.0
N281 N 0.11165 0.82962 0.16282 0.0
C282 C 0.08692 0.81723 0.18403 0.0
C283 C 0.10654 0.81999 0.17939 0.0
C284 C 0.07245 0.82408 0.17126 0.0
C285 C 0.07829 0.83334 0.1539 0.0
H286 H 0.10251 0.84322 0.13671 0.0
H287 H 0.11767 0.81455 0.18907 0.0
C288 C 0.20135 0.82623 0.19293 0.0
N289 N 0.18825 0.81467 0.18351 0.0
C290 C 0.2136 0.81839 0.2071 0.0
C291 C 0.19791 0.78706 0.20244 0.0
C292 C 0.18617 0.79547 0.18816 0.0
C293 C 0.21197 0.79852 0.21205 0.0
H294 H 0.20215 0.84164 0.18957 0.0
H295 H 0.17516 0.78669 0.18117 0.0
C296 C 0.1367 0.86715 0.12374 0.0
N297 N 0.12474 0.90056 0.10461 0.0
C298 C 0.14264 0.87064 0.10455 0.0
C299 C 0.12451 0.88052 0.13313 0.0
C300 C 0.13647 0.88765 0.09515 0.0
C301 C 0.11868 0.89737 0.12323 0.0
C302 C 0.20485 0.84302 0.1473 0.0
C303 C 0.21435 0.85925 0.15531 0.0
C304 C 0.21558 0.82645 0.14221 0.0
C305 C 0.23443 0.85849 0.15839 0.0
C306 C 0.23564 0.82625 0.14554 0.0
N307 N 0.24457 0.84214 0.15351 0.0
C308 C 0.16923 0.89387 0.1738 0.0
C309 C 0.17093 0.89859 0.13958 0.0
C310 C 0.17279 0.91368 0.17708 0.0
N311 N 0.1681 0.8868 0.1553 0.0
C312 C 0.17416 0.91859 0.14218 0.0
C313 C 0.17506 0.9263 0.16114 0.0
H314 H 0.16737 0.88411 0.18604 0.0
H315 H 0.17064 0.8925 0.12505 0.0
C316 C 0.15593 0.80928 0.09614 0.0
N317 N 0.16854 0.82199 0.10471 0.0
C318 C 0.1586 0.80371 0.07673 0.0
C319 C 0.18732 0.82423 0.0755 0.0
C320 C 0.18414 0.82932 0.09496 0.0
C321 C 0.17431 0.81144 0.06607 0.0
H322 H 0.14359 0.80381 0.1043 0.0
H323 H 0.19387 0.83946 0.10219 0.0
O324 O 0.15505 0.84691 0.17698 0.0
O325 O 0.1534 0.81122 0.14932 0.0
O326 O 0.14266 0.85063 0.1332 0.0
O327 O 0.18519 0.84351 0.14419 0.0
H328 H 0.15681 0.82482 0.2086 0.0
H329 H 0.1276 0.87356 0.18191 0.0
H330 H 0.13565 0.82873 0.2377 0.0
H331 H 0.10684 0.87653 0.2114 0.0
H332 H 0.18572 0.75679 0.1294 0.0
H333 H 0.1293 0.78494 0.16402 0.0
H334 H 0.18223 0.79283 0.13133 0.0
H335 H 0.13365 0.74898 0.16145 0.0
H336 H 0.08319 0.81009 0.19762 0.0
H337 H 0.06775 0.83835 0.1433 0.0
H338 H 0.22424 0.8278 0.21402 0.0
H339 H 0.1957 0.77183 0.20615 0.0
H340 H 0.152 0.86039 0.09705 0.0
H341 H 0.11967 0.87794 0.14791 0.0
H342 H 0.14102 0.8906 0.08033 0.0
H343 H 0.10934 0.9079 0.13036 0.0
H344 H 0.20628 0.87224 0.15922 0.0
H345 H 0.20852 0.81386 0.1358 0.0
H346 H 0.24196 0.8709 0.16468 0.0
H347 H 0.24412 0.81348 0.14177 0.0
H348 H 0.17338 0.91914 0.19191 0.0
H349 H 0.17611 0.92791 0.12956 0.0
H350 H 0.14809 0.79404 0.06995 0.0
H351 H 0.19969 0.83038 0.06785 0.0
Li352 Li 0.16196 0.86481 0.83628 0.0
Li353 Li 0.16168 0.83488 0.85898 0.0
Li354 Li 0.17142 0.83285 0.82443 0.0
Li355 Li 0.13856 0.83851 0.83241 0.0
C356 C 0.20305 0.84587 0.84129 0.0
N357 N 0.24142 0.83971 0.83097 0.0
C358 C 0.21389 0.83138 0.85062 0.0
C359 C 0.21172 0.85732 0.82681 0.0
C360 C 0.23328 0.82847 0.84518 0.0
C361 C 0.23114 0.85395 0.82177 0.0
C362 C 0.12287 0.85914 0.86023 0.0
C363 C 0.09336 0.84914 0.8765 0.0
N364 N 0.08387 0.86456 0.86839 0.0
C365 C 0.11288 0.87497 0.85218 0.0
C366 C 0.1131 0.84619 0.87259 0.0
C367 C 0.09314 0.87743 0.85645 0.0
C368 C 0.15553 0.9044 0.82595 0.0
N369 N 0.16741 0.89184 0.83557 0.0
C370 C 0.18811 0.91805 0.84558 0.0
C371 C 0.18349 0.8982 0.8452 0.0
C372 C 0.17582 0.93158 0.83632 0.0
C373 C 0.15938 0.92447 0.82627 0.0
H374 H 0.1429 0.89885 0.81829 0.0
H375 H 0.19269 0.88785 0.8527 0.0
C376 C 0.17562 0.80977 0.889 0.0
N377 N 0.16632 0.82681 0.88494 0.0
C378 C 0.17868 0.80416 0.90836 0.0
C379 C 0.16261 0.8338 0.91884 0.0
C380 C 0.15991 0.83883 0.89934 0.0
C381 C 0.17213 0.81627 0.92359 0.0
H382 H 0.18058 0.80052 0.87719 0.0
H383 H 0.15257 0.8523 0.89564 0.0
C384 C 0.14873 0.84644 0.79348 0.0
N385 N 0.13781 0.835 0.7564 0.0
C386 C 0.14359 0.82701 0.78979 0.0
C387 C 0.14828 0.86008 0.77833 0.0
C388 C 0.13812 0.8215 0.77095 0.0
C389 C 0.14273 0.854 0.75967 0.0
C390 C 0.14643 0.79732 0.84238 0.0
C391 C 0.14749 0.78299 0.82786 0.0
C392 C 0.13777 0.79281 0.86028 0.0
C393 C 0.13949 0.76452 0.83135 0.0
C394 C 0.12994 0.77418 0.86321 0.0
N395 N 0.13094 0.76053 0.8488 0.0
C396 C 0.19655 0.8026 0.81343 0.0
C397 C 0.19499 0.82876 0.7908 0.0
C398 C 0.21042 0.7931 0.80202 0.0
N399 N 0.18919 0.82007 0.80765 0.0
C400 C 0.20873 0.81971 0.77886 0.0
C401 C 0.21668 0.80165 0.78446 0.0
H402 H 0.19187 0.79625 0.8271 0.0
H403 H 0.18916 0.84285 0.78676 0.0
C404 C 0.10383 0.84737 0.81249 0.0
N405 N 0.11194 0.83414 0.82485 0.0
C406 C 0.08438 0.84558 0.80688 0.0
C407 C 0.08182 0.81671 0.82699 0.0
C408 C 0.10133 0.81901 0.83213 0.0
C409 C 0.07309 0.83014 0.81426 0.0
H410 H 0.11237 0.8596 0.8073 0.0
H411 H 0.10777 0.80894 0.84227 0.0
O412 O 0.18389 0.84854 0.84598 0.0
O413 O 0.14203 0.85612 0.85571 0.0
O414 O 0.15398 0.85226 0.81184 0.0
O415 O 0.15467 0.81533 0.83939 0.0
H416 H 0.20736 0.82235 0.86181 0.0
H417 H 0.20345 0.86847 0.81931 0.0
H418 H 0.24183 0.81724 0.8522 0.0
H419 H 0.238 0.86259 0.81048 0.0
H420 H 0.08557 0.83915 0.88593 0.0
H421 H 0.12021 0.8851 0.84256 0.0
H422 H 0.12062 0.83388 0.87897 0.0
H423 H 0.08518 0.88953 0.8502 0.0
H424 H 0.20116 0.9227 0.85315 0.0
H425 H 0.14931 0.93428 0.81913 0.0
H426 H 0.18622 0.7906 0.91136 0.0
H427 H 0.15701 0.84342 0.93006 0.0
H428 H 0.14368 0.81635 0.80137 0.0
H429 H 0.15216 0.8752 0.78098 0.0
H430 H 0.13409 0.8065 0.7679 0.0
H431 H 0.14232 0.8644 0.7478 0.0
H432 H 0.15455 0.78601 0.81407 0.0
H433 H 0.13688 0.80363 0.87174 0.0
H434 H 0.14016 0.75332 0.82021 0.0
H435 H 0.12307 0.77056 0.87694 0.0
H436 H 0.21641 0.77938 0.80709 0.0
H437 H 0.21298 0.82673 0.76537 0.0
H438 H 0.0781 0.85649 0.79735 0.0
H439 H 0.07361 0.80459 0.83301 0.0
Li440 Li 0.15892 0.16781 0.86004 0.0
Li441 Li 0.15761 0.14048 0.83647 0.0
Li442 Li 0.16428 0.17278 0.8258 0.0
Li443 Li 0.1325 0.16526 0.83626 0.0
C444 C 0.19791 0.16583 0.84107 0.0
N445 N 0.23283 0.18472 0.83391 0.0
C446 C 0.21327 0.15583 0.83218 0.0
C447 C 0.2004 0.18542 0.84643 0.0
C448 C 0.23078 0.16564 0.82865 0.0
C449 C 0.21814 0.19471 0.84268 0.0
C450 C 0.14012 0.13438 0.87306 0.0
C451 C 0.12516 0.11531 0.89859 0.0
N452 N 0.14306 0.10909 0.90434 0.0
C453 C 0.15838 0.12778 0.87922 0.0
C454 C 0.12338 0.1281 0.88282 0.0
C455 C 0.15955 0.11501 0.89506 0.0
C456 C 0.14957 0.17529 0.89913 0.0
N457 N 0.16476 0.17359 0.88655 0.0
C458 C 0.18745 0.17472 0.91291 0.0
C459 C 0.18345 0.17337 0.89302 0.0
C460 C 0.17205 0.17555 0.92642 0.0
C461 C 0.15287 0.17614 0.91921 0.0
H462 H 0.13482 0.17497 0.89359 0.0
H463 H 0.19529 0.17137 0.88289 0.0
C464 C 0.17947 0.10757 0.8244 0.0
N465 N 0.1626 0.11328 0.83307 0.0
C466 C 0.18456 0.0878 0.82388 0.0
C467 C 0.15417 0.08011 0.83999 0.0
C468 C 0.1497 0.09996 0.84021 0.0
C469 C 0.17194 0.074 0.83213 0.0
H470 H 0.18915 0.1184 0.81831 0.0
H471 H 0.13616 0.10474 0.84663 0.0
C472 C 0.14 0.20508 0.83506 0.0
N473 N 0.12397 0.23783 0.81788 0.0
C474 C 0.13585 0.20514 0.81511 0.0
C475 C 0.13599 0.22165 0.84628 0.0
C476 C 0.12776 0.22184 0.80669 0.0
C477 C 0.12788 0.23807 0.83733 0.0
C478 C 0.13487 0.14104 0.8036 0.0
C479 C 0.13678 0.13927 0.78338 0.0
C480 C 0.12092 0.12982 0.8134 0.0
C481 C 0.12469 0.12628 0.77329 0.0
C482 C 0.10911 0.11701 0.8028 0.0
N483 N 0.11122 0.11551 0.78313 0.0
C484 C 0.18603 0.17474 0.79197 0.0
C485 C 0.18274 0.20567 0.80728 0.0
C486 C 0.19729 0.18291 0.77715 0.0
N487 N 0.17904 0.18615 0.80658 0.0
C488 C 0.19376 0.21451 0.79265 0.0
C489 C 0.20124 0.20307 0.77732 0.0
H490 H 0.18301 0.15921 0.79199 0.0
H491 H 0.17724 0.21437 0.81925 0.0
C492 C 0.09318 0.16727 0.84757 0.0
N493 N 0.10551 0.16948 0.83223 0.0
C494 C 0.07308 0.16801 0.84467 0.0
C495 C 0.07885 0.17417 0.81043 0.0
C496 C 0.09879 0.17319 0.81396 0.0
C497 C 0.06568 0.17112 0.82581 0.0
H498 H 0.09898 0.16429 0.86192 0.0
H499 H 0.10889 0.17473 0.80197 0.0
O500 O 0.18043 0.15667 0.84428 0.0
O501 O 0.13853 0.14701 0.85766 0.0
O502 O 0.14791 0.18892 0.84372 0.0
O503 O 0.14655 0.15388 0.81353 0.0
H504 H 0.21178 0.14066 0.82806 0.0
H505 H 0.18862 0.19346 0.85319 0.0
H506 H 0.24276 0.15808 0.82172 0.0
H507 H 0.22018 0.20989 0.84665 0.0
H508 H 0.11232 0.11033 0.90627 0.0
H509 H 0.17152 0.13243 0.87187 0.0
H510 H 0.10914 0.13303 0.87823 0.0
H511 H 0.17357 0.10981 0.89997 0.0
H512 H 0.20249 0.17461 0.91759 0.0
H513 H 0.14046 0.17638 0.92893 0.0
H514 H 0.19837 0.0834 0.81767 0.0
H515 H 0.14416 0.06969 0.84644 0.0
H516 H 0.13897 0.1925 0.80617 0.0
H517 H 0.13911 0.22181 0.86176 0.0
H518 H 0.1245 0.2221 0.79126 0.0
H519 H 0.1247 0.25101 0.84584 0.0
H520 H 0.14747 0.14789 0.77557 0.0
H521 H 0.11909 0.13107 0.829 0.0
H522 H 0.126 0.12477 0.75764 0.0
H523 H 0.09823 0.10828 0.8102 0.0
H524 H 0.20306 0.17346 0.76588 0.0
H525 H 0.19625 0.23013 0.79328 0.0
H526 H 0.06348 0.16536 0.85692 0.0
H527 H 0.07381 0.1769 0.79572 0.0
Li528 Li 0.8291 0.1357 0.83525 0.0
Li529 Li 0.82818 0.16046 0.86085 0.0
Li530 Li 0.8242 0.16866 0.82676 0.0
Li531 Li 0.85585 0.15815 0.83875 0.0
C532 C 0.78873 0.16007 0.84111 0.0
N533 N 0.75227 0.17658 0.83671 0.0
C534 C 0.78154 0.17304 0.85515 0.0
C535 C 0.77719 0.15529 0.82498 0.0
C536 C 0.76312 0.18128 0.85263 0.0
C537 C 0.75886 0.16387 0.82297 0.0
C538 C 0.85936 0.13809 0.87331 0.0
C539 C 0.87927 0.15463 0.89717 0.0
N540 N 0.88456 0.13702 0.90469 0.0
C541 C 0.865 0.12016 0.88124 0.0
C542 C 0.86656 0.15548 0.8813 0.0
C543 C 0.87774 0.11993 0.89711 0.0
C544 C 0.83833 0.0963 0.83197 0.0
N545 N 0.82332 0.10909 0.83056 0.0
C546 C 0.8006 0.08293 0.82652 0.0
C547 C 0.80474 0.10291 0.82764 0.0
C548 C 0.81573 0.06928 0.82862 0.0
C549 C 0.83487 0.07623 0.83103 0.0
H550 H 0.85292 0.10173 0.8345 0.0
H551 H 0.79308 0.11344 0.82675 0.0
C552 C 0.82335 0.18264 0.89556 0.0
N553 N 0.82068 0.16496 0.88693 0.0
C554 C 0.81783 0.18547 0.91495 0.0
C555 C 0.80687 0.15184 0.91604 0.0
C556 C 0.81259 0.14968 0.89665 0.0
C557 C 0.80952 0.16991 0.92547 0.0
H558 H 0.82983 0.19449 0.8874 0.0
H559 H 0.81076 0.13577 0.88933 0.0
C560 C 0.84026 0.13725 0.79927 0.0
N561 N 0.83507 0.10986 0.77001 0.0
C562 C 0.85601 0.12617 0.79264 0.0
C563 C 0.82196 0.1346 0.79078 0.0
C564 C 0.85308 0.11235 0.77789 0.0
C565 C 0.8196 0.12064 0.77608 0.0
C566 C 0.8483 0.19884 0.83859 0.0
C567 C 0.85654 0.1985 0.81992 0.0
C568 C 0.84711 0.21654 0.84872 0.0
C569 C 0.86359 0.21585 0.81179 0.0
C570 C 0.85435 0.23358 0.8401 0.0
N571 N 0.86236 0.23289 0.82197 0.0
C572 C 0.80151 0.20148 0.818 0.0
C573 C 0.81688 0.18705 0.79056 0.0
C574 C 0.79385 0.21627 0.8064 0.0
N575 N 0.81246 0.18708 0.80989 0.0
C576 C 0.80984 0.20181 0.77845 0.0
C577 C 0.79811 0.21655 0.78641 0.0
H578 H 0.79916 0.20177 0.83357 0.0
H579 H 0.8263 0.1759 0.78463 0.0
C580 C 0.89269 0.14368 0.8311 0.0
N581 N 0.88344 0.16017 0.83704 0.0
C582 C 0.91268 0.14391 0.82765 0.0
C583 C 0.91355 0.17771 0.83797 0.0
C584 C 0.8935 0.17682 0.84119 0.0
C585 C 0.92329 0.16122 0.83065 0.0
H586 H 0.88446 0.13037 0.82893 0.0
H587 H 0.88603 0.18952 0.84677 0.0
O588 O 0.80679 0.15188 0.84329 0.0
O589 O 0.84696 0.13846 0.8577 0.0
O590 O 0.84266 0.15055 0.81404 0.0
O591 O 0.84072 0.18215 0.84663 0.0
H592 H 0.79014 0.17698 0.86773 0.0
H593 H 0.78225 0.14506 0.81412 0.0
H594 H 0.75747 0.19145 0.86332 0.0
H595 H 0.74986 0.16037 0.8105 0.0
H596 H 0.88495 0.16797 0.90351 0.0
H597 H 0.85957 0.10658 0.87518 0.0
H598 H 0.86243 0.16949 0.87534 0.0
H599 H 0.88223 0.10616 0.90341 0.0
H600 H 0.78568 0.07823 0.82441 0.0
H601 H 0.84695 0.0663 0.83304 0.0
H602 H 0.82 0.19967 0.92162 0.0
H603 H 0.80086 0.13936 0.92369 0.0
H604 H 0.87037 0.12822 0.79868 0.0
H605 H 0.80971 0.14323 0.79553 0.0
H606 H 0.86513 0.10362 0.77269 0.0
H607 H 0.80546 0.11838 0.76949 0.0
H608 H 0.85752 0.18502 0.81175 0.0
H609 H 0.84058 0.21717 0.86306 0.0
H610 H 0.87001 0.21577 0.79738 0.0
H611 H 0.85353 0.24737 0.8478 0.0
H612 H 0.7851 0.22765 0.81302 0.0
H613 H 0.81344 0.2017 0.76307 0.0
H614 H 0.91975 0.13068 0.82263 0.0
H615 H 0.92123 0.1913 0.84066 0.0
Li616 Li 0.84085 0.8609 0.84063 0.0
Li617 Li 0.84438 0.83204 0.86196 0.0
Li618 Li 0.86578 0.83786 0.8334 0.0
Li619 Li 0.83211 0.82844 0.82824 0.0
C620 C 0.86777 0.87149 0.86526 0.0
N621 N 0.87565 0.90808 0.88055 0.0
C622 C 0.86314 0.87572 0.88465 0.0
C623 C 0.87665 0.88581 0.85371 0.0
C624 C 0.86719 0.89432 0.8921 0.0
C625 C 0.88043 0.90424 0.86168 0.0
C626 C 0.80101 0.84528 0.85219 0.0
C627 C 0.77013 0.83651 0.86655 0.0
N628 N 0.76122 0.85033 0.85547 0.0
C629 C 0.79157 0.85956 0.84112 0.0
C630 C 0.79024 0.8338 0.86518 0.0
C631 C 0.77144 0.86182 0.84291 0.0
C632 C 0.83531 0.89758 0.82319 0.0
N633 N 0.83328 0.88754 0.84015 0.0
C634 C 0.81999 0.91564 0.85597 0.0
C635 C 0.82562 0.89603 0.85635 0.0
C636 C 0.82216 0.92648 0.8387 0.0
C637 C 0.82984 0.91717 0.82214 0.0
H638 H 0.84108 0.89034 0.81044 0.0
H639 H 0.82396 0.88757 0.86957 0.0
C640 C 0.85468 0.80789 0.89369 0.0
N641 N 0.84325 0.82303 0.88802 0.0
C642 C 0.85552 0.80245 0.91327 0.0
C643 C 0.83283 0.82836 0.92081 0.0
C644 C 0.8321 0.83299 0.901 0.0
C645 C 0.84494 0.8131 0.92727 0.0
H646 H 0.86359 0.80035 0.88309 0.0
H647 H 0.82333 0.84513 0.89607 0.0
C648 C 0.85698 0.84969 0.79787 0.0
N649 N 0.8782 0.84977 0.76362 0.0
C650 C 0.85356 0.83543 0.78365 0.0
C651 C 0.8711 0.86408 0.7946 0.0
C652 C 0.86445 0.83571 0.76644 0.0
C653 C 0.88172 0.86383 0.77722 0.0
C654 C 0.8471 0.7943 0.84591 0.0
C655 C 0.85969 0.77856 0.84292 0.0
C656 C 0.82866 0.791 0.85387 0.0
C657 C 0.85358 0.75972 0.84793 0.0
C658 C 0.82307 0.77195 0.85869 0.0
N659 N 0.83555 0.75683 0.85565 0.0
C660 C 0.90586 0.84408 0.83543 0.0
C661 C 0.89668 0.82299 0.80953 0.0
C662 C 0.92542 0.84215 0.83055 0.0
N663 N 0.89195 0.83466 0.8249 0.0
C664 C 0.91616 0.82084 0.80394 0.0
C665 C 0.93078 0.8304 0.81465 0.0
H666 H 0.9018 0.85292 0.84782 0.0
H667 H 0.88538 0.81526 0.8017 0.0
C668 C 0.80046 0.82741 0.80323 0.0
N669 N 0.814 0.81561 0.81152 0.0
C670 C 0.78677 0.81979 0.79029 0.0
C671 C 0.8017 0.78804 0.79393 0.0
C672 C 0.81507 0.79629 0.8069 0.0
C673 C 0.78728 0.79985 0.78547 0.0
H674 H 0.80053 0.84287 0.80636 0.0
H675 H 0.82651 0.78732 0.81284 0.0
O676 O 0.86356 0.85349 0.85756 0.0
O677 O 0.82078 0.84306 0.85093 0.0
O678 O 0.84653 0.84962 0.81487 0.0
O679 O 0.853 0.81283 0.84128 0.0
H680 H 0.85644 0.8648 0.89386 0.0
H681 H 0.88039 0.88278 0.8387 0.0
H682 H 0.86359 0.89781 0.90707 0.0
H683 H 0.88714 0.9155 0.85285 0.0
H684 H 0.76162 0.82767 0.87649 0.0
H685 H 0.79965 0.86873 0.83114 0.0
H686 H 0.79731 0.82298 0.87422 0.0
H687 H 0.76395 0.87272 0.83433 0.0
H688 H 0.8143 0.92228 0.86913 0.0
H689 H 0.83143 0.92486 0.80843 0.0
H690 H 0.86474 0.79033 0.91739 0.0
H691 H 0.82467 0.83729 0.93096 0.0
H692 H 0.84272 0.82417 0.78589 0.0
H693 H 0.87393 0.87525 0.80541 0.0
H694 H 0.862 0.82472 0.75534 0.0
H695 H 0.89276 0.87481 0.77456 0.0
H696 H 0.87405 0.7809 0.83682 0.0
H697 H 0.81875 0.80299 0.85617 0.0
H698 H 0.86317 0.74739 0.8457 0.0
H699 H 0.80882 0.76919 0.86483 0.0
H700 H 0.93628 0.84985 0.83909 0.0
H701 H 0.91978 0.81148 0.79172 0.0
H702 H 0.77593 0.82945 0.78413 0.0
H703 H 0.80297 0.7727 0.79021 0.0
Li704 Li 0.66672 0.67349 0.66807 0.0
Li705 Li 0.66543 0.66104 0.63445 0.0
Li706 Li 0.63702 0.66137 0.65639 0.0
Li707 Li 0.66425 0.63873 0.66339 0.0
C708 C 0.63684 0.696 0.6405 0.0
N709 N 0.60581 0.7193 0.6298 0.0
C710 C 0.63328 0.69991 0.62082 0.0
C711 C 0.62477 0.70418 0.65475 0.0
C712 C 0.61749 0.71167 0.6157 0.0
C713 C 0.6091 0.71584 0.64904 0.0
C714 C 0.70113 0.64579 0.64696 0.0
C715 C 0.71317 0.61929 0.62714 0.0
N716 N 0.73173 0.62521 0.63082 0.0
C717 C 0.7203 0.65161 0.65057 0.0
C718 C 0.69751 0.62951 0.63517 0.0
C719 C 0.73558 0.64102 0.64226 0.0
C720 C 0.69564 0.68753 0.69322 0.0
N721 N 0.67919 0.69268 0.68354 0.0
C722 C 0.68212 0.72566 0.69455 0.0
C723 C 0.67225 0.71125 0.68406 0.0
C724 C 0.69934 0.72087 0.70448 0.0
C725 C 0.70597 0.70146 0.70391 0.0
H726 H 0.70089 0.67265 0.69234 0.0
H727 H 0.65923 0.71497 0.67608 0.0
C728 C 0.6594 0.66043 0.59429 0.0
N729 N 0.6733 0.66349 0.60806 0.0
C730 C 0.66401 0.6619 0.57455 0.0
C731 C 0.69724 0.66953 0.58348 0.0
C732 C 0.6919 0.66819 0.6031 0.0
C733 C 0.68316 0.6664 0.56896 0.0
H734 H 0.64469 0.65688 0.59871 0.0
H735 H 0.7026 0.67089 0.61434 0.0
C736 C 0.65291 0.66041 0.7005 0.0
N737 N 0.66206 0.67248 0.73787 0.0
C738 C 0.66694 0.65039 0.71131 0.0
C739 C 0.64341 0.67648 0.70876 0.0
C740 C 0.67138 0.65673 0.73017 0.0
C741 C 0.64829 0.68238 0.72765 0.0
C742 C 0.63784 0.62434 0.63172 0.0
C743 C 0.62052 0.61724 0.63981 0.0
C744 C 0.64529 0.61559 0.61485 0.0
C745 C 0.61102 0.60147 0.63097 0.0
C746 C 0.63537 0.59983 0.60646 0.0
N747 N 0.61858 0.59316 0.61462 0.0
C748 C 0.60065 0.66127 0.63805 0.0
C749 C 0.59908 0.66236 0.67262 0.0
C750 C 0.58052 0.659 0.63686 0.0
N751 N 0.60948 0.66245 0.65575 0.0
C752 C 0.57886 0.66038 0.67209 0.0
C753 C 0.56946 0.65815 0.65405 0.0
H754 H 0.60938 0.66122 0.62492 0.0
H755 H 0.60656 0.66304 0.68647 0.0
C756 C 0.68888 0.6075 0.67709 0.0
N757 N 0.67046 0.61305 0.67231 0.0
C758 C 0.69283 0.58796 0.68164 0.0
C759 C 0.65867 0.58059 0.67725 0.0
C760 C 0.65537 0.60022 0.67314 0.0
C761 C 0.67764 0.57424 0.68114 0.0
H762 H 0.70057 0.6181 0.67699 0.0
H763 H 0.64077 0.60518 0.67036 0.0
O764 O 0.65212 0.68431 0.64579 0.0
O765 O 0.68605 0.65613 0.65492 0.0
O766 O 0.64874 0.65472 0.68183 0.0
O767 O 0.64717 0.6401 0.6399 0.0
H768 H 0.64263 0.69401 0.60961 0.0
H769 H 0.62725 0.70128 0.67004 0.0
H770 H 0.61453 0.71476 0.60052 0.0
H771 H 0.59953 0.72208 0.65991 0.0
H772 H 0.71057 0.60663 0.61803 0.0
H773 H 0.72334 0.66421 0.65966 0.0
H774 H 0.68281 0.6247 0.63242 0.0
H775 H 0.7505 0.64536 0.64491 0.0
H776 H 0.67643 0.74042 0.69477 0.0
H777 H 0.71933 0.69721 0.71114 0.0
H778 H 0.65279 0.65923 0.56377 0.0
H779 H 0.71211 0.67321 0.5797 0.0
H780 H 0.67448 0.63797 0.70512 0.0
H781 H 0.63255 0.68444 0.7006 0.0
H782 H 0.6823 0.64918 0.73866 0.0
H783 H 0.64115 0.69487 0.73417 0.0
H784 H 0.61457 0.62365 0.65293 0.0
H785 H 0.65857 0.6209 0.60822 0.0
H786 H 0.59765 0.59582 0.63714 0.0
H787 H 0.641 0.59294 0.59342 0.0
H788 H 0.57371 0.65744 0.62269 0.0
H789 H 0.57078 0.65961 0.68564 0.0
H790 H 0.70762 0.5835 0.68477 0.0
H791 H 0.64657 0.5704 0.67717 0.0
Li792 Li 0.32951 0.63085 0.66389 0.0
Li793 Li 0.32915 0.66469 0.67117 0.0
Li794 Li 0.33233 0.65625 0.63795 0.0
Li795 Li 0.36003 0.65203 0.66203 0.0
C796 C 0.29586 0.6407 0.64442 0.0
N797 N 0.268 0.62139 0.62252 0.0
C798 C 0.2761 0.64459 0.6473 0.0
C799 C 0.30143 0.62695 0.63038 0.0
C800 C 0.26224 0.63468 0.6361 0.0
C801 C 0.28714 0.61736 0.61946 0.0
C802 C 0.34134 0.64535 0.7042 0.0
C803 C 0.35312 0.65206 0.73664 0.0
N804 N 0.33522 0.64761 0.74393 0.0
C805 C 0.32311 0.64073 0.71198 0.0
C806 C 0.35652 0.65096 0.71658 0.0
C807 C 0.32029 0.64202 0.73212 0.0
C808 C 0.33598 0.59151 0.6708 0.0
N809 N 0.32157 0.60504 0.67004 0.0
C810 C 0.29757 0.58062 0.67684 0.0
C811 C 0.30267 0.60011 0.67336 0.0
C812 C 0.31211 0.56617 0.67704 0.0
C813 C 0.33156 0.5719 0.67416 0.0
H814 H 0.35091 0.59595 0.66834 0.0
H815 H 0.29153 0.61124 0.67314 0.0
C816 C 0.29885 0.68926 0.68249 0.0
N817 N 0.31709 0.68361 0.68764 0.0
C818 C 0.28943 0.70405 0.69281 0.0
C819 C 0.31785 0.70713 0.71342 0.0
C820 C 0.32659 0.69203 0.70292 0.0
C821 C 0.29911 0.71324 0.70828 0.0
H822 H 0.29179 0.68259 0.67006 0.0
H823 H 0.34119 0.68752 0.70655 0.0
C824 C 0.36065 0.62289 0.63018 0.0
N825 N 0.38443 0.60249 0.60482 0.0
C826 C 0.37732 0.63176 0.62245 0.0
C827 C 0.35598 0.60372 0.62482 0.0
C828 C 0.3892 0.62117 0.60973 0.0
C829 C 0.36819 0.59364 0.612 0.0
C830 C 0.34741 0.69537 0.65755 0.0
C831 C 0.33401 0.70813 0.64906 0.0
C832 C 0.35988 0.70223 0.67216 0.0
C833 C 0.33318 0.72752 0.65546 0.0
C834 C 0.35863 0.72173 0.67813 0.0
N835 N 0.34539 0.73386 0.66975 0.0
C836 C 0.31115 0.67489 0.60785 0.0
C837 C 0.33586 0.6535 0.5967 0.0
C838 C 0.30612 0.67958 0.58864 0.0
N839 N 0.32592 0.66217 0.61149 0.0
C840 C 0.3312 0.65756 0.57738 0.0
C841 C 0.31619 0.67076 0.57315 0.0
H842 H 0.30321 0.6813 0.61987 0.0
H843 H 0.34739 0.64338 0.59978 0.0
C844 C 0.39543 0.63356 0.66963 0.0
N845 N 0.38736 0.65095 0.66456 0.0
C846 C 0.4156 0.63126 0.66927 0.0
C847 C 0.41873 0.66507 0.65935 0.0
C848 C 0.39849 0.66662 0.65955 0.0
C849 C 0.42745 0.64711 0.66389 0.0
H850 H 0.38612 0.6213 0.67324 0.0
H851 H 0.39167 0.68005 0.65492 0.0
O852 O 0.3095 0.65046 0.65531 0.0
O853 O 0.34449 0.64402 0.68458 0.0
O854 O 0.34897 0.6329 0.64291 0.0
O855 O 0.34816 0.67622 0.65175 0.0
H856 H 0.27149 0.65514 0.65813 0.0
H857 H 0.31657 0.6237 0.62784 0.0
H858 H 0.2469 0.63756 0.6382 0.0
H859 H 0.29127 0.60671 0.60854 0.0
H860 H 0.3647 0.65643 0.74641 0.0
H861 H 0.31126 0.63629 0.70254 0.0
H862 H 0.37074 0.65448 0.71072 0.0
H863 H 0.30624 0.63857 0.73838 0.0
H864 H 0.28244 0.57691 0.6793 0.0
H865 H 0.34324 0.56129 0.67392 0.0
H866 H 0.27497 0.70862 0.68847 0.0
H867 H 0.32563 0.71402 0.72534 0.0
H868 H 0.38091 0.64674 0.62602 0.0
H869 H 0.34297 0.59671 0.63037 0.0
H870 H 0.40215 0.62784 0.60369 0.0
H871 H 0.36475 0.57879 0.60775 0.0
H872 H 0.32425 0.7031 0.63776 0.0
H873 H 0.37006 0.69248 0.67921 0.0
H874 H 0.3228 0.73752 0.64909 0.0
H875 H 0.36805 0.72717 0.68957 0.0
H876 H 0.29435 0.68973 0.58592 0.0
H877 H 0.33945 0.65062 0.56582 0.0
H878 H 0.42188 0.61719 0.67283 0.0
H879 H 0.42742 0.6775 0.65479 0.0
Li880 Li 0.33867 0.36071 0.66709 0.0
Li881 Li 0.36453 0.33568 0.66502 0.0
Li882 Li 0.34327 0.34006 0.63739 0.0
Li883 Li 0.33213 0.32544 0.6683 0.0
C884 C 0.36254 0.37651 0.63823 0.0
N885 N 0.36468 0.41074 0.61697 0.0
C886 C 0.38036 0.38617 0.63604 0.0
C887 C 0.34582 0.38425 0.62961 0.0
C888 C 0.38114 0.40346 0.62524 0.0
C889 C 0.3472 0.40157 0.61892 0.0
C890 C 0.33976 0.3359 0.7047 0.0
C891 C 0.33564 0.31135 0.72961 0.0
N892 N 0.32358 0.3236 0.73951 0.0
C893 C 0.32745 0.3483 0.71519 0.0
C894 C 0.34404 0.31733 0.71204 0.0
C895 C 0.31938 0.3418 0.73274 0.0
C896 C 0.31162 0.38934 0.67854 0.0
N897 N 0.33086 0.38594 0.67545 0.0
C898 C 0.33827 0.41979 0.67972 0.0
C899 C 0.34423 0.40056 0.67658 0.0
C900 C 0.31835 0.42397 0.68199 0.0
C901 C 0.30501 0.40834 0.68191 0.0
H902 H 0.30135 0.37735 0.67782 0.0
H903 H 0.35947 0.39741 0.67421 0.0
C904 C 0.40408 0.33342 0.65678 0.0
N905 N 0.39091 0.33081 0.67131 0.0
C906 C 0.42377 0.33001 0.66015 0.0
C907 C 0.41603 0.32148 0.69349 0.0
C908 C 0.39641 0.32498 0.68943 0.0
C909 C 0.43001 0.3241 0.67875 0.0
H910 H 0.39921 0.33806 0.64251 0.0
H911 H 0.38561 0.32317 0.70075 0.0
C912 C 0.30143 0.34462 0.64351 0.0
N913 N 0.2654 0.34224 0.62568 0.0
C914 C 0.29276 0.3264 0.64017 0.0
C915 C 0.29171 0.36163 0.63781 0.0
C916 C 0.27455 0.3255 0.63113 0.0
C917 C 0.27354 0.36012 0.6288 0.0
C918 C 0.36621 0.3025 0.64658 0.0
C919 C 0.37639 0.30254 0.62893 0.0
C920 C 0.37193 0.28987 0.66153 0.0
C921 C 0.39233 0.2901 0.62662 0.0
C922 C 0.38797 0.27768 0.65866 0.0
N923 N 0.39776 0.27806 0.64142 0.0
C924 C 0.35688 0.34811 0.59951 0.0
C925 C 0.32577 0.33313 0.60006 0.0
C926 C 0.35578 0.35051 0.57936 0.0
N927 N 0.34169 0.34021 0.60953 0.0
C928 C 0.32412 0.33503 0.57985 0.0
C929 C 0.33906 0.34428 0.56937 0.0
H930 H 0.36979 0.35285 0.60719 0.0
H931 H 0.31421 0.32622 0.60812 0.0
C932 C 0.2995 0.31363 0.68981 0.0
N933 N 0.31469 0.30697 0.679 0.0
C934 C 0.2864 0.30047 0.69809 0.0
C935 C 0.30421 0.27393 0.68305 0.0
C936 C 0.3172 0.2876 0.67534 0.0
C937 C 0.28874 0.28038 0.69473 0.0
H938 H 0.29763 0.32917 0.69201 0.0
H939 H 0.32921 0.2828 0.66637 0.0
O940 O 0.36158 0.3596 0.64885 0.0
O941 O 0.34758 0.34193 0.68735 0.0
O942 O 0.31909 0.34588 0.65271 0.0
O943 O 0.35083 0.31489 0.64927 0.0
H944 H 0.39343 0.38035 0.64264 0.0
H945 H 0.33197 0.37691 0.63108 0.0
H946 H 0.39483 0.4111 0.62342 0.0
H947 H 0.33437 0.40771 0.61216 0.0
H948 H 0.33867 0.29694 0.73536 0.0
H949 H 0.32408 0.36276 0.7098 0.0
H950 H 0.35349 0.30752 0.70409 0.0
H951 H 0.30975 0.3512 0.74097 0.0
H952 H 0.34909 0.43133 0.67945 0.0
H953 H 0.28958 0.41079 0.68397 0.0
H954 H 0.43398 0.33189 0.64825 0.0
H955 H 0.42023 0.31716 0.70809 0.0
H956 H 0.30014 0.31305 0.64411 0.0
H957 H 0.2981 0.37589 0.64032 0.0
H958 H 0.26774 0.31149 0.62837 0.0
H959 H 0.26588 0.37317 0.62431 0.0
H960 H 0.37214 0.31219 0.6172 0.0
H961 H 0.36423 0.28967 0.67529 0.0
H962 H 0.40042 0.29006 0.61308 0.0
H963 H 0.39267 0.26796 0.67016 0.0
H964 H 0.36781 0.35728 0.57168 0.0
H965 H 0.31105 0.3299 0.57262 0.0
H966 H 0.27444 0.30592 0.70684 0.0
H967 H 0.3064 0.2585 0.6802 0.0
Li968 Li 0.63711 0.33873 0.66487 0.0
Li969 Li 0.67138 0.33371 0.66939 0.0
Li970 Li 0.66027 0.36575 0.6622 0.0
Li971 Li 0.66016 0.34 0.63657 0.0
C972 C 0.64273 0.36087 0.69805 0.0
N973 N 0.62003 0.3829 0.72303 0.0
C974 C 0.64664 0.36102 0.71805 0.0
C975 C 0.62729 0.37196 0.69075 0.0
C976 C 0.63499 0.37224 0.73044 0.0
C977 C 0.61599 0.38299 0.70361 0.0
C978 C 0.65188 0.29827 0.65467 0.0
C979 C 0.65785 0.2662 0.64133 0.0
N980 N 0.6492 0.25806 0.65723 0.0
C981 C 0.64303 0.28961 0.67087 0.0
C982 C 0.65932 0.28652 0.63975 0.0
C983 C 0.64182 0.26924 0.67189 0.0
C984 C 0.59855 0.33125 0.65642 0.0
N985 N 0.61146 0.33122 0.6714 0.0
C986 C 0.58642 0.32255 0.69402 0.0
C987 C 0.60593 0.3267 0.68991 0.0
C988 C 0.57264 0.32321 0.67891 0.0
C989 C 0.57896 0.32731 0.65987 0.0
H990 H 0.60348 0.33468 0.64183 0.0
H991 H 0.61659 0.32669 0.70152 0.0
C992 C 0.70195 0.33212 0.69571 0.0
N993 N 0.69053 0.3205 0.68432 0.0
C994 C 0.71695 0.324 0.70674 0.0
C995 C 0.70778 0.29208 0.69455 0.0
C996 C 0.69328 0.30084 0.68341 0.0
C997 C 0.71977 0.30375 0.7063 0.0
H998 H 0.69948 0.34774 0.69601 0.0
H999 H 0.68446 0.2919 0.67398 0.0
C1000 C 0.63449 0.37204 0.62981 0.0
N1001 N 0.6258 0.3996 0.60175 0.0
C1002 C 0.64934 0.38015 0.61846 0.0
C1003 C 0.61524 0.37795 0.62696 0.0
C1004 C 0.64463 0.39405 0.60431 0.0
C1005 C 0.61114 0.39192 0.6127 0.0
C1006 C 0.70148 0.34623 0.64873 0.0
C1007 C 0.7166 0.35848 0.65489 0.0
C1008 C 0.70573 0.32747 0.64184 0.0
C1009 C 0.73574 0.35164 0.6543 0.0
C1010 C 0.72506 0.32116 0.6415 0.0
N1011 N 0.73953 0.33327 0.6477 0.0
C1012 C 0.68087 0.39722 0.67783 0.0
C1013 C 0.65155 0.40668 0.66231 0.0
C1014 C 0.68524 0.41666 0.68228 0.0
N1015 N 0.66447 0.39267 0.6677 0.0
C1016 C 0.65531 0.4263 0.66648 0.0
C1017 C 0.67247 0.43154 0.6764 0.0
H1018 H 0.69054 0.38568 0.68247 0.0
H1019 H 0.63825 0.4027 0.65493 0.0
C1020 C 0.64782 0.32398 0.60116 0.0
N1021 N 0.66267 0.33381 0.60986 0.0
C1022 C 0.64919 0.31858 0.58157 0.0
C1023 C 0.68112 0.33353 0.58037 0.0
C1024 C 0.67906 0.33876 0.59993 0.0
C1025 C 0.66605 0.3233 0.57091 0.0
H1026 H 0.63494 0.32033 0.60949 0.0
H1027 H 0.69058 0.3467 0.60721 0.0
O1028 O 0.65412 0.34992 0.68583 0.0
O1029 O 0.6532 0.31816 0.6533 0.0
O1030 O 0.63867 0.35846 0.6438 0.0
O1031 O 0.68257 0.35244 0.64968 0.0
H1032 H 0.65856 0.35254 0.72392 0.0
H1033 H 0.62397 0.37205 0.67535 0.0
H1034 H 0.63784 0.37248 0.74596 0.0
H1035 H 0.60399 0.39162 0.69816 0.0
H1036 H 0.66359 0.25691 0.62993 0.0
H1037 H 0.63732 0.29852 0.68259 0.0
H1038 H 0.66623 0.29302 0.62713 0.0
H1039 H 0.63506 0.26231 0.68435 0.0
H1040 H 0.58207 0.31951 0.7089 0.0
H1041 H 0.56881 0.32764 0.64778 0.0
H1042 H 0.72602 0.33335 0.71573 0.0
H1043 H 0.70978 0.27638 0.69382 0.0
H1044 H 0.66433 0.37584 0.62061 0.0
H1045 H 0.60361 0.3719 0.63575 0.0
H1046 H 0.65596 0.40045 0.59539 0.0
H1047 H 0.59632 0.39667 0.61035 0.0
H1048 H 0.71362 0.37311 0.66006 0.0
H1049 H 0.69419 0.31779 0.63708 0.0
H1050 H 0.74757 0.36093 0.65909 0.0
H1051 H 0.72854 0.30662 0.63636 0.0
H1052 H 0.69861 0.42002 0.68996 0.0
H1053 H 0.64478 0.43722 0.66214 0.0
H1054 H 0.63706 0.31105 0.57481 0.0
H1055 H 0.69445 0.33731 0.57281 0.0
Li1056 Li 0.66703 0.36565 0.33876 0.0
Li1057 Li 0.66394 0.33941 0.36321 0.0
Li1058 Li 0.6706 0.33193 0.32877 0.0
Li1059 Li 0.63874 0.34325 0.33812 0.0
C1060 C 0.7048 0.35113 0.33905 0.0
N1061 N 0.74017 0.35955 0.32176 0.0
C1062 C 0.72207 0.34888 0.34956 0.0
C1063 C 0.70551 0.35762 0.31974 0.0
C1064 C 0.73982 0.35323 0.34056 0.0
C1065 C 0.72353 0.36181 0.31126 0.0
C1066 C 0.6326 0.36455 0.3727 0.0
C1067 C 0.60815 0.35119 0.39415 0.0
N1068 N 0.60348 0.3696 0.40001 0.0
C1069 C 0.62757 0.38334 0.37891 0.0
C1070 C 0.62284 0.34834 0.38035 0.0
C1071 C 0.61281 0.38559 0.39275 0.0
C1072 C 0.66278 0.404 0.32534 0.0
N1073 N 0.67438 0.39204 0.336 0.0
C1074 C 0.69364 0.4191 0.34664 0.0
C1075 C 0.68972 0.39908 0.34636 0.0
C1076 C 0.68139 0.432 0.33648 0.0
C1077 C 0.66603 0.42416 0.32535 0.0
H1078 H 0.65048 0.39794 0.31752 0.0
H1079 H 0.69849 0.38924 0.35499 0.0
C1080 C 0.67241 0.31369 0.39422 0.0
N1081 N 0.66858 0.33257 0.38943 0.0
C1082 C 0.67442 0.30833 0.41377 0.0
C1083 C 0.66891 0.34204 0.42291 0.0
C1084 C 0.66723 0.34676 0.40323 0.0
C1085 C 0.67237 0.32255 0.42846 0.0
H1086 H 0.6736 0.30277 0.38286 0.0
H1087 H 0.66436 0.36169 0.39896 0.0
C1088 C 0.64981 0.34931 0.29704 0.0
N1089 N 0.63991 0.34232 0.2586 0.0
C1090 C 0.63642 0.33461 0.2924 0.0
C1091 C 0.65801 0.3606 0.28216 0.0
C1092 C 0.63165 0.33126 0.27287 0.0
C1093 C 0.65286 0.3568 0.26281 0.0
C1094 C 0.6431 0.30147 0.34498 0.0
C1095 C 0.64249 0.29191 0.32695 0.0
C1096 C 0.63465 0.29262 0.36131 0.0
C1097 C 0.6332 0.27377 0.3255 0.0
C1098 C 0.62549 0.27447 0.35926 0.0
N1099 N 0.62495 0.2655 0.34155 0.0
C1100 C 0.69708 0.30261 0.32503 0.0
C1101 C 0.68442 0.31176 0.29421 0.0
C1102 C 0.70853 0.28819 0.31647 0.0
N1103 N 0.68532 0.31397 0.31389 0.0
C1104 C 0.69545 0.29731 0.28504 0.0
C1105 C 0.70768 0.28524 0.29621 0.0
H1106 H 0.69749 0.30479 0.34066 0.0
H1107 H 0.67503 0.32092 0.2856 0.0
C1108 C 0.60296 0.36122 0.33554 0.0
N1109 N 0.61123 0.3432 0.3347 0.0
C1110 C 0.58281 0.36312 0.33667 0.0
C1111 C 0.5799 0.32795 0.33424 0.0
C1112 C 0.60018 0.32669 0.33359 0.0
C1113 C 0.57112 0.34631 0.3364 0.0
H1114 H 0.61212 0.37409 0.33629 0.0
H1115 H 0.60699 0.31253 0.33285 0.0
O1116 O 0.68735 0.34681 0.34768 0.0
O1117 O 0.64676 0.36216 0.35887 0.0
O1118 O 0.6547 0.35294 0.31603 0.0
O1119 O 0.65227 0.31917 0.3468 0.0
H1120 H 0.72176 0.34382 0.36451 0.0
H1121 H 0.69232 0.3594 0.31136 0.0
H1122 H 0.7533 0.35158 0.34852 0.0
H1123 H 0.72429 0.36684 0.29632 0.0
H1124 H 0.60043 0.33877 0.40016 0.0
H1125 H 0.63495 0.39604 0.37303 0.0
H1126 H 0.62647 0.33374 0.37558 0.0
H1127 H 0.60873 0.40004 0.39768 0.0
H1128 H 0.7058 0.42444 0.35519 0.0
H1129 H 0.65603 0.43353 0.31754 0.0
H1130 H 0.6774 0.2932 0.41732 0.0
H1131 H 0.66689 0.35348 0.43364 0.0
H1132 H 0.62984 0.32584 0.3037 0.0
H1133 H 0.66828 0.37216 0.28553 0.0
H1134 H 0.62137 0.31987 0.26906 0.0
H1135 H 0.65915 0.36537 0.25113 0.0
H1136 H 0.64906 0.29838 0.31418 0.0
H1137 H 0.63515 0.29966 0.37543 0.0
H1138 H 0.63257 0.26625 0.31163 0.0
H1139 H 0.61884 0.2675 0.37176 0.0
H1140 H 0.71801 0.27954 0.32564 0.0
H1141 H 0.69413 0.29542 0.26941 0.0
H1142 H 0.57643 0.37751 0.33823 0.0
H1143 H 0.57123 0.31469 0.33406 0.0
Li1144 Li 0.66411 0.66578 0.36127 0.0
Li1145 Li 0.65815 0.64102 0.33738 0.0
Li1146 Li 0.66374 0.67306 0.32627 0.0
Li1147 Li 0.63236 0.66423 0.3425 0.0
C1148 C 0.69979 0.66587 0.3429 0.0
N1149 N 0.73487 0.6854 0.3467 0.0
C1150 C 0.71726 0.65544 0.34313 0.0
C1151 C 0.70018 0.68625 0.34459 0.0
C1152 C 0.73484 0.66557 0.34509 0.0
C1153 C 0.71806 0.69585 0.34649 0.0
C1154 C 0.6453 0.63005 0.37363 0.0
C1155 C 0.63122 0.60352 0.39202 0.0
N1156 N 0.64936 0.59781 0.39751 0.0
C1157 C 0.66381 0.62393 0.37945 0.0
C1158 C 0.62886 0.61977 0.37992 0.0
C1159 C 0.66556 0.6076 0.39153 0.0
C1160 C 0.65897 0.67204 0.40069 0.0
N1161 N 0.6733 0.67081 0.38709 0.0
C1162 C 0.69767 0.67231 0.41194 0.0
C1163 C 0.6924 0.67105 0.39232 0.0
C1164 C 0.68317 0.67286 0.4264 0.0
C1165 C 0.66356 0.67297 0.42049 0.0
H1166 H 0.64389 0.67147 0.39615 0.0
H1167 H 0.70365 0.66964 0.38149 0.0
C1168 C 0.68108 0.60806 0.32898 0.0
N1169 N 0.6626 0.61401 0.33278 0.0
C1170 C 0.68559 0.58817 0.32896 0.0
C1171 C 0.65174 0.58096 0.33564 0.0
C1172 C 0.6479 0.60096 0.33565 0.0
C1173 C 0.67084 0.57452 0.33272 0.0
H1174 H 0.69245 0.61878 0.32683 0.0
H1175 H 0.63339 0.60613 0.3389 0.0
C1176 C 0.64517 0.7063 0.34596 0.0
N1177 N 0.63562 0.7453 0.34196 0.0
C1178 C 0.63027 0.71187 0.33328 0.0
C1179 C 0.6551 0.72052 0.35675 0.0
C1180 C 0.62568 0.73168 0.33142 0.0
C1181 C 0.6501 0.74017 0.35447 0.0
C1182 C 0.63846 0.64015 0.30494 0.0
C1183 C 0.65174 0.6344 0.2906 0.0
C1184 C 0.62084 0.63006 0.30692 0.0
C1185 C 0.64722 0.61855 0.27854 0.0
C1186 C 0.61685 0.6143 0.29456 0.0
N1187 N 0.63002 0.60891 0.28075 0.0
C1188 C 0.68961 0.67688 0.29609 0.0
C1189 C 0.6724 0.70641 0.30141 0.0
C1190 C 0.70038 0.68544 0.28117 0.0
N1191 N 0.67598 0.68739 0.3059 0.0
C1192 C 0.68286 0.71559 0.28652 0.0
C1193 C 0.69711 0.70506 0.27623 0.0
H1194 H 0.69235 0.66186 0.30016 0.0
H1195 H 0.66162 0.71456 0.3094 0.0
C1196 C 0.59701 0.66371 0.36224 0.0
N1197 N 0.60514 0.66733 0.34455 0.0
C1198 C 0.57685 0.66217 0.36407 0.0
C1199 C 0.5738 0.66937 0.32966 0.0
C1200 C 0.59406 0.67059 0.32846 0.0
C1201 C 0.56505 0.6645 0.34752 0.0
H1202 H 0.60625 0.66114 0.37475 0.0
H1203 H 0.60099 0.67311 0.31452 0.0
O1204 O 0.68252 0.65606 0.34067 0.0
O1205 O 0.6433 0.64565 0.36133 0.0
O1206 O 0.64973 0.68698 0.34823 0.0
O1207 O 0.64271 0.6555 0.31704 0.0
H1208 H 0.71726 0.63967 0.34185 0.0
H1209 H 0.68689 0.69461 0.34442 0.0
H1210 H 0.74847 0.65767 0.34531 0.0
H1211 H 0.71855 0.71161 0.34779 0.0
H1212 H 0.61863 0.59539 0.39697 0.0
H1213 H 0.67671 0.63155 0.37446 0.0
H1214 H 0.61444 0.62419 0.37537 0.0
H1215 H 0.67979 0.60264 0.39608 0.0
H1216 H 0.71297 0.67248 0.41571 0.0
H1217 H 0.65181 0.67296 0.43101 0.0
H1218 H 0.70051 0.58354 0.32686 0.0
H1219 H 0.64014 0.57068 0.33884 0.0
H1220 H 0.62254 0.70106 0.32474 0.0
H1221 H 0.66654 0.7164 0.36679 0.0
H1222 H 0.61426 0.73623 0.32157 0.0
H1223 H 0.6577 0.75135 0.36267 0.0
H1224 H 0.66543 0.64202 0.28886 0.0
H1225 H 0.6105 0.63412 0.31809 0.0
H1226 H 0.6574 0.6139 0.26743 0.0
H1227 H 0.60333 0.60629 0.29601 0.0
H1228 H 0.71149 0.67689 0.27392 0.0
H1229 H 0.67982 0.73073 0.28308 0.0
H1230 H 0.57058 0.65856 0.37812 0.0
H1231 H 0.56517 0.67108 0.31656 0.0
Li1232 Li 0.32868 0.65856 0.36568 0.0
Li1233 Li 0.32687 0.63253 0.33816 0.0
Li1234 Li 0.35534 0.65487 0.34098 0.0
Li1235 Li 0.32462 0.66726 0.33219 0.0
C1236 C 0.36278 0.62947 0.36895 0.0
N1237 N 0.39851 0.61919 0.38431 0.0
C1238 C 0.37033 0.6108 0.36564 0.0
C1239 C 0.37331 0.64284 0.38026 0.0
C1240 C 0.38844 0.60589 0.3735 0.0
C1241 C 0.39138 0.63739 0.38783 0.0
C1242 C 0.28854 0.656 0.34214 0.0
C1243 C 0.26438 0.65783 0.31669 0.0
N1244 N 0.2521 0.66706 0.32923 0.0
C1245 C 0.27561 0.66533 0.35483 0.0
C1246 C 0.28283 0.65204 0.32297 0.0
C1247 C 0.25727 0.67086 0.348 0.0
C1248 C 0.31131 0.67947 0.3968 0.0
N1249 N 0.32248 0.66376 0.39211 0.0
C1250 C 0.32594 0.65537 0.4257 0.0
C1251 C 0.32958 0.65164 0.40605 0.0
C1252 C 0.3145 0.67153 0.43112 0.0
C1253 C 0.30704 0.6836 0.41631 0.0
H1254 H 0.3057 0.68876 0.38537 0.0
H1255 H 0.33822 0.63912 0.40195 0.0
C1256 C 0.33242 0.59359 0.32635 0.0
N1257 N 0.31875 0.6069 0.33158 0.0
C1258 C 0.32713 0.57417 0.32283 0.0
C1259 C 0.29358 0.58291 0.32881 0.0
C1260 C 0.2996 0.60203 0.33265 0.0
C1261 C 0.30746 0.56849 0.32429 0.0
H1262 H 0.34753 0.59798 0.32535 0.0
H1263 H 0.289 0.61292 0.3368 0.0
C1264 C 0.3449 0.69773 0.34549 0.0
N1265 N 0.34714 0.73599 0.33276 0.0
C1266 C 0.35373 0.70209 0.32764 0.0
C1267 C 0.33746 0.71285 0.357 0.0
C1268 C 0.35464 0.72152 0.32142 0.0
C1269 C 0.33867 0.73209 0.35027 0.0
C1270 C 0.3421 0.64642 0.2984 0.0
C1271 C 0.35762 0.65575 0.28901 0.0
C1272 C 0.3287 0.63558 0.28748 0.0
C1273 C 0.35922 0.65441 0.26873 0.0
C1274 C 0.33081 0.6346 0.26723 0.0
N1275 N 0.34589 0.64397 0.25836 0.0
C1276 C 0.39143 0.63924 0.3302 0.0
C1277 C 0.39316 0.67094 0.34422 0.0
C1278 C 0.41168 0.63778 0.33023 0.0
N1279 N 0.38267 0.65543 0.33758 0.0
C1280 C 0.41346 0.67024 0.34423 0.0
C1281 C 0.42289 0.6533 0.33763 0.0
H1282 H 0.38264 0.62711 0.32513 0.0
H1283 H 0.38578 0.68349 0.35029 0.0
C1284 C 0.30044 0.69962 0.32757 0.0
N1285 N 0.31158 0.68691 0.31718 0.0
C1286 C 0.29041 0.71459 0.3182 0.0
C1287 C 0.30375 0.70343 0.28754 0.0
C1288 C 0.31346 0.68861 0.29752 0.0
C1289 C 0.29197 0.71662 0.2979 0.0
H1290 H 0.29936 0.6981 0.34323 0.0
H1291 H 0.32253 0.67863 0.28949 0.0
O1292 O 0.34547 0.63489 0.36072 0.0
O1293 O 0.30668 0.65074 0.34848 0.0
O1294 O 0.34344 0.67874 0.35157 0.0
O1295 O 0.34036 0.64746 0.31823 0.0
H1296 H 0.36236 0.60023 0.35704 0.0
H1297 H 0.36774 0.65742 0.38283 0.0
H1298 H 0.39451 0.59153 0.37096 0.0
H1299 H 0.39977 0.64766 0.39643 0.0
H1300 H 0.25985 0.65502 0.30184 0.0
H1301 H 0.27971 0.66832 0.36977 0.0
H1302 H 0.29264 0.64481 0.31299 0.0
H1303 H 0.24716 0.67819 0.35763 0.0
H1304 H 0.33237 0.64583 0.4365 0.0
H1305 H 0.29792 0.69604 0.4197 0.0
H1306 H 0.33848 0.56368 0.31968 0.0
H1307 H 0.27822 0.57947 0.32967 0.0
H1308 H 0.35959 0.69056 0.3186 0.0
H1309 H 0.33072 0.70975 0.37091 0.0
H1310 H 0.36127 0.72508 0.30756 0.0
H1311 H 0.33286 0.74393 0.35897 0.0
H1312 H 0.36832 0.6639 0.29727 0.0
H1313 H 0.31683 0.62795 0.29454 0.0
H1314 H 0.37109 0.66163 0.26125 0.0
H1315 H 0.3205 0.62633 0.25858 0.0
H1316 H 0.4185 0.62452 0.32496 0.0
H1317 H 0.42165 0.68239 0.35025 0.0
H1318 H 0.28132 0.72426 0.32676 0.0
H1319 H 0.30563 0.70466 0.27191 0.0
Li1320 Li 0.33281 0.36365 0.332 0.0
Li1321 Li 0.33377 0.34026 0.3602 0.0
Li1322 Li 0.36089 0.342 0.33704 0.0
Li1323 Li 0.33103 0.32743 0.32741 0.0
C1324 C 0.36671 0.37223 0.36083 0.0
N1325 N 0.40086 0.38974 0.37302 0.0
C1326 C 0.37491 0.36715 0.37876 0.0
C1327 C 0.37573 0.38634 0.34917 0.0
C1328 C 0.39223 0.37615 0.38465 0.0
C1329 C 0.39303 0.395 0.35557 0.0
C1330 C 0.29514 0.34268 0.35054 0.0
C1331 C 0.27021 0.322 0.36436 0.0
N1332 N 0.2603 0.33816 0.37023 0.0
C1333 C 0.28456 0.35908 0.35647 0.0
C1334 C 0.2878 0.32399 0.35431 0.0
C1335 C 0.26704 0.3565 0.36651 0.0
C1336 C 0.32187 0.39637 0.30769 0.0
N1337 N 0.324 0.38902 0.32599 0.0
C1338 C 0.31278 0.41876 0.34019 0.0
C1339 C 0.3198 0.3998 0.34206 0.0
C1340 C 0.31026 0.42682 0.32155 0.0
C1341 C 0.31508 0.41551 0.30512 0.0
H1342 H 0.3254 0.38743 0.29517 0.0
H1343 H 0.32185 0.39356 0.35641 0.0
C1344 C 0.33455 0.3253 0.39892 0.0
N1345 N 0.32755 0.33949 0.38698 0.0
C1346 C 0.333 0.32733 0.41915 0.0
C1347 C 0.31656 0.35818 0.41422 0.0
C1348 C 0.31849 0.35559 0.39417 0.0
C1349 C 0.3244 0.34424 0.427 0.0
H1350 H 0.34235 0.31302 0.39284 0.0
H1351 H 0.31372 0.36694 0.38434 0.0
C1352 C 0.35569 0.33975 0.29617 0.0
N1353 N 0.3747 0.32486 0.26391 0.0
C1354 C 0.36538 0.32187 0.29733 0.0
C1355 C 0.35573 0.35013 0.27863 0.0
C1356 C 0.37487 0.31455 0.28086 0.0
C1357 C 0.36542 0.34235 0.26247 0.0
C1358 C 0.34939 0.29897 0.35086 0.0
C1359 C 0.36579 0.28851 0.34479 0.0
C1360 C 0.3338 0.28902 0.35942 0.0
C1361 C 0.36606 0.2682 0.34689 0.0
C1362 C 0.33462 0.2687 0.36127 0.0
N1363 N 0.35058 0.25878 0.35498 0.0
C1364 C 0.397 0.33289 0.3523 0.0
C1365 C 0.39907 0.3498 0.32216 0.0
C1366 C 0.41714 0.33358 0.35448 0.0
N1367 N 0.38842 0.34119 0.33651 0.0
C1368 C 0.41935 0.3505 0.32357 0.0
C1369 C 0.4285 0.34264 0.34009 0.0
H1370 H 0.38808 0.32634 0.36356 0.0
H1371 H 0.39182 0.35664 0.30996 0.0
C1372 C 0.29998 0.31175 0.30656 0.0
N1373 N 0.31849 0.30778 0.31227 0.0
C1374 C 0.28906 0.29769 0.29666 0.0
C1375 C 0.31672 0.27595 0.29797 0.0
C1376 C 0.3271 0.29044 0.30786 0.0
C1377 C 0.29735 0.27941 0.29246 0.0
H1378 H 0.29355 0.32574 0.31006 0.0
H1379 H 0.34195 0.2877 0.31213 0.0
O1380 O 0.35022 0.36304 0.35446 0.0
O1381 O 0.3124 0.34494 0.3408 0.0
O1382 O 0.34675 0.34747 0.31225 0.0
O1383 O 0.34887 0.31888 0.34883 0.0
H1384 H 0.36812 0.35618 0.3879 0.0
H1385 H 0.36956 0.39034 0.33521 0.0
H1386 H 0.39884 0.37226 0.39842 0.0
H1387 H 0.40028 0.40583 0.34664 0.0
H1388 H 0.26441 0.3076 0.36743 0.0
H1389 H 0.28986 0.37367 0.35346 0.0
H1390 H 0.29547 0.31114 0.34936 0.0
H1391 H 0.25879 0.36907 0.3713 0.0
H1392 H 0.30962 0.42714 0.35322 0.0
H1393 H 0.31337 0.4213 0.29052 0.0
H1394 H 0.33954 0.31641 0.42849 0.0
H1395 H 0.30973 0.37135 0.41967 0.0
H1396 H 0.36578 0.31388 0.31088 0.0
H1397 H 0.34846 0.36411 0.27754 0.0
H1398 H 0.38245 0.30072 0.28158 0.0
H1399 H 0.3656 0.35024 0.2488 0.0
H1400 H 0.37817 0.29598 0.33844 0.0
H1401 H 0.32129 0.29691 0.36477 0.0
H1402 H 0.37858 0.25991 0.34211 0.0
H1403 H 0.3226 0.26081 0.36778 0.0
H1404 H 0.42377 0.32735 0.36738 0.0
H1405 H 0.42773 0.35778 0.31231 0.0
H1406 H 0.27413 0.30094 0.29281 0.0
H1407 H 0.32379 0.2622 0.29466 0.0
H1408 H 0.27186 0.28368 0.262 0.0
H1409 H 0.29639 0.24028 0.30102 0.0
H1410 H 0.27637 0.2147 0.28528 0.0
H1411 H 0.22322 0.26447 0.2619 0.0
H1412 H 0.21903 0.26996 0.23654 0.0
H1413 H 0.23563 0.28476 0.25059 0.0
H1414 H 0.26301 0.278 0.22543 0.0
H1415 H 0.24647 0.26325 0.21128 0.0
H1416 H 0.26923 0.2531 0.21949 0.0
H1417 H 0.25336 0.19398 0.26556 0.0
H1418 H 0.22935 0.17953 0.24286 0.0
H1419 H 0.21976 0.23665 0.21711 0.0
C1420 C 0.27295 0.26882 0.26732 0.0
C1421 C 0.2857 0.26397 0.28271 0.0
C1422 C 0.28691 0.24429 0.28906 0.0
C1423 C 0.27551 0.22969 0.28031 0.0
C1424 C 0.263 0.23503 0.26527 0.0
C1425 C 0.26168 0.25411 0.2588 0.0
C1426 C 0.24709 0.25601 0.24239 0.0
C1427 C 0.23025 0.2696 0.24821 0.0
C1428 C 0.25705 0.263 0.22353 0.0
C1429 C 0.24035 0.23502 0.24067 0.0
C1430 C 0.24971 0.22313 0.25398 0.0
C1431 C 0.24598 0.20313 0.25504 0.0
C1432 C 0.2324 0.19505 0.24206 0.0
C1433 C 0.22274 0.20698 0.22824 0.0
C1434 C 0.22675 0.22722 0.22767 0.0
H1435 H 0.72623 0.28649 0.26073 0.0
H1436 H 0.71561 0.24857 0.31044 0.0
H1437 H 0.73555 0.22287 0.29509 0.0
H1438 H 0.7226 0.24842 0.22451 0.0
H1439 H 0.74124 0.25887 0.2092 0.0
H1440 H 0.72662 0.27448 0.22445 0.0
H1441 H 0.75792 0.28858 0.24031 0.0
H1442 H 0.77263 0.27294 0.22518 0.0
H1443 H 0.7752 0.27216 0.25134 0.0
H1444 H 0.75669 0.20132 0.27432 0.0
H1445 H 0.77692 0.18523 0.24922 0.0
H1446 H 0.77187 0.23665 0.21246 0.0
C1447 C 0.72789 0.27273 0.26835 0.0
C1448 C 0.71942 0.26963 0.28687 0.0
C1449 C 0.72225 0.25147 0.29641 0.0
C1450 C 0.73344 0.23671 0.28776 0.0
C1451 C 0.74156 0.24029 0.26951 0.0
C1452 C 0.73883 0.2578 0.25987 0.0
C1453 C 0.74883 0.25783 0.24022 0.0
C1454 C 0.73393 0.26002 0.22362 0.0
C1455 C 0.76458 0.27383 0.23922 0.0
C1456 C 0.75771 0.23764 0.24037 0.0
C1457 C 0.75339 0.22775 0.25739 0.0
C1458 C 0.76008 0.20886 0.26087 0.0
C1459 C 0.77145 0.19982 0.24649 0.0
C1460 C 0.77593 0.20967 0.22886 0.0
C1461 C 0.76892 0.22883 0.22586 0.0
H1462 H 0.76608 0.78743 0.2313 0.0
H1463 H 0.77745 0.74768 0.18328 0.0
H1464 H 0.75424 0.72387 0.19731 0.0
H1465 H 0.76304 0.75091 0.26816 0.0
H1466 H 0.74391 0.76294 0.28155 0.0
H1467 H 0.76073 0.77716 0.26722 0.0
H1468 H 0.73187 0.79251 0.24836 0.0
H1469 H 0.71494 0.77827 0.26258 0.0
H1470 H 0.71451 0.77678 0.23634 0.0
H1471 H 0.7303 0.70432 0.21674 0.0
H1472 H 0.70826 0.68957 0.2411 0.0
H1473 H 0.71315 0.74183 0.27683 0.0
C1474 C 0.76349 0.7738 0.22366 0.0
C1475 C 0.77347 0.76935 0.20622 0.0
C1476 C 0.77002 0.75125 0.19676 0.0
C1477 C 0.7568 0.73773 0.20453 0.0
C1478 C 0.74721 0.74254 0.22177 0.0
C1479 C 0.75045 0.76009 0.23128 0.0
C1480 C 0.73888 0.76132 0.25002 0.0
C1481 C 0.75245 0.76318 0.26778 0.0
C1482 C 0.72418 0.77822 0.24927 0.0
C1483 C 0.72871 0.74168 0.24962 0.0
C1484 C 0.7336 0.73114 0.23313 0.0
C1485 C 0.72634 0.71242 0.22972 0.0
C1486 C 0.71393 0.70414 0.24368 0.0
C1487 C 0.70902 0.71453 0.26088 0.0
C1488 C 0.71638 0.73363 0.26371 0.0
H1489 H 0.27316 0.71389 0.26277 0.0
H1490 H 0.28618 0.75458 0.30969 0.0
H1491 H 0.2672 0.78012 0.29284 0.0
H1492 H 0.27712 0.74903 0.22359 0.0
H1493 H 0.25754 0.73818 0.20977 0.0
H1494 H 0.27214 0.72321 0.22562 0.0
H1495 H 0.24094 0.71161 0.24356 0.0
H1496 H 0.22626 0.72663 0.22783 0.0
H1497 H 0.2247 0.7295 0.25392 0.0
H1498 H 0.24599 0.80087 0.27122 0.0
H1499 H 0.22488 0.81552 0.24611 0.0
H1500 H 0.22777 0.76167 0.21253 0.0
C1501 C 0.27228 0.72824 0.26941 0.0
C1502 C 0.28114 0.73221 0.28757 0.0
C1503 C 0.27929 0.7511 0.29591 0.0
C1504 C 0.26864 0.76574 0.28641 0.0
C1505 C 0.26004 0.76126 0.26855 0.0
C1506 C 0.26184 0.743 0.2601 0.0
C1507 C 0.25116 0.74189 0.24085 0.0
C1508 C 0.26534 0.73784 0.22396 0.0
C1509 C 0.2348 0.7265 0.2416 0.0
C1510 C 0.24302 0.76237 0.23981 0.0
C1511 C 0.24823 0.77331 0.25594 0.0
C1512 C 0.24198 0.79251 0.25842 0.0
C1513 C 0.2301 0.80074 0.24399 0.0
C1514 C 0.22469 0.78981 0.22723 0.0
C1515 C 0.23139 0.77039 0.22521 0.0
H1516 H 0.26784 0.71091 0.73239 0.0
H1517 H 0.30936 0.75162 0.70752 0.0
H1518 H 0.29281 0.7791 0.72438 0.0
H1519 H 0.22582 0.74104 0.72977 0.0
H1520 H 0.21606 0.73323 0.7529 0.0
H1521 H 0.2313 0.71699 0.739 0.0
H1522 H 0.25451 0.71343 0.7686 0.0
H1523 H 0.23932 0.72966 0.78261 0.0
H1524 H 0.26484 0.73503 0.77961 0.0
H1525 H 0.27121 0.80194 0.74348 0.0
H1526 H 0.24692 0.81849 0.76426 0.0
H1527 H 0.21975 0.76245 0.77665 0.0
C1528 C 0.27339 0.72564 0.7306 0.0
C1529 C 0.28973 0.72939 0.71878 0.0
C1530 C 0.29684 0.74868 0.71669 0.0
C1531 C 0.28754 0.76428 0.72614 0.0
C1532 C 0.27137 0.76015 0.73774 0.0
C1533 C 0.26447 0.74129 0.74014 0.0
C1534 C 0.24707 0.74072 0.75364 0.0
C1535 C 0.229 0.73252 0.74319 0.0
C1536 C 0.25172 0.72902 0.77222 0.0
C1537 C 0.24493 0.76227 0.75808 0.0
C1538 C 0.25912 0.77324 0.74887 0.0
C1539 C 0.26003 0.7935 0.75078 0.0
C1540 C 0.24609 0.80278 0.7625 0.0
C1541 C 0.23141 0.79178 0.77208 0.0
C1542 C 0.23092 0.77126 0.76976 0.0
H1543 H 0.22837 0.23235 0.78115 0.0
H1544 H 0.20129 0.19427 0.73819 0.0
H1545 H 0.22161 0.2091 0.71244 0.0
H1546 H 0.2298 0.2749 0.7508 0.0
H1547 H 0.25282 0.2833 0.76028 0.0
H1548 H 0.23683 0.26897 0.77542 0.0
H1549 H 0.26451 0.24394 0.78126 0.0
H1550 H 0.28058 0.25816 0.76609 0.0
H1551 H 0.27635 0.23271 0.76063 0.0
H1552 H 0.24503 0.22811 0.69138 0.0
H1553 H 0.26855 0.2512 0.67642 0.0
H1554 H 0.27855 0.27783 0.73296 0.0
C1555 C 0.22652 0.22722 0.76632 0.0
C1556 C 0.21326 0.21207 0.76174 0.0
C1557 C 0.21159 0.20561 0.74214 0.0
C1558 C 0.22299 0.21401 0.72739 0.0
C1559 C 0.23588 0.22892 0.73245 0.0
C1560 C 0.2376 0.23554 0.75142 0.0
C1561 C 0.25213 0.2521 0.75297 0.0
C1562 C 0.2423 0.27093 0.76029 0.0
C1563 C 0.26941 0.24637 0.76601 0.0
C1564 C 0.25821 0.25388 0.73187 0.0
C1565 C 0.24886 0.24024 0.72027 0.0
C1566 C 0.2524 0.2389 0.70029 0.0
C1567 C 0.26577 0.25197 0.69195 0.0
C1568 C 0.27516 0.26625 0.70359 0.0
C1569 C 0.27135 0.26714 0.72377 0.0
H1570 H 0.76021 0.22689 0.78251 0.0
H1571 H 0.81832 0.24091 0.76216 0.0
H1572 H 0.80477 0.26695 0.74101 0.0
H1573 H 0.73728 0.23185 0.73675 0.0
H1574 H 0.7151 0.24197 0.74649 0.0
H1575 H 0.72965 0.22586 0.7612 0.0
H1576 H 0.73164 0.25235 0.78824 0.0
H1577 H 0.71712 0.26859 0.77357 0.0
H1578 H 0.74064 0.2764 0.78228 0.0
H1579 H 0.78457 0.29102 0.72176 0.0
H1580 H 0.75902 0.30906 0.70358 0.0
H1581 H 0.71439 0.27761 0.73542 0.0
C1582 C 0.77005 0.23565 0.77377 0.0
C1583 C 0.79024 0.23216 0.77396 0.0
C1584 C 0.80277 0.24351 0.7621 0.0
C1585 C 0.79523 0.25834 0.75019 0.0
C1586 C 0.77517 0.26141 0.75028 0.0
C1587 C 0.76276 0.25024 0.76163 0.0
C1588 C 0.7417 0.25542 0.75806 0.0
C1589 C 0.73027 0.23773 0.75015 0.0
C1590 C 0.73222 0.26368 0.77664 0.0
C1591 C 0.74414 0.27106 0.74272 0.0
C1592 C 0.76356 0.27461 0.73867 0.0
C1593 C 0.76933 0.28839 0.72483 0.0
C1594 C 0.75482 0.29857 0.71465 0.0
C1595 C 0.73495 0.29456 0.71822 0.0
C1596 C 0.72957 0.28082 0.73252 0.0
H1597 H 0.76887 0.76419 0.78704 0.0
H1598 H 0.774 0.81663 0.75172 0.0
H1599 H 0.75069 0.8028 0.72807 0.0
H1600 H 0.76737 0.7306 0.74725 0.0
H1601 H 0.75013 0.71437 0.75873 0.0
H1602 H 0.76637 0.72887 0.77347 0.0
H1603 H 0.73684 0.74349 0.79194 0.0
H1604 H 0.7205 0.72905 0.77722 0.0
H1605 H 0.71769 0.75523 0.77835 0.0
H1606 H 0.72777 0.7829 0.70773 0.0
H1607 H 0.70737 0.75789 0.69165 0.0
H1608 H 0.7175 0.71828 0.74003 0.0
C1609 C 0.76516 0.77275 0.77431 0.0
C1610 C 0.77318 0.79155 0.77131 0.0
C1611 C 0.76778 0.80235 0.75453 0.0
C1612 C 0.75463 0.79458 0.74095 0.0
C1613 C 0.74703 0.77601 0.74436 0.0
C1614 C 0.75211 0.76521 0.76059 0.0
C1615 C 0.7423 0.74536 0.76051 0.0
C1616 C 0.75745 0.72883 0.75995 0.0
C1617 C 0.72851 0.74316 0.77805 0.0
C1618 C 0.73111 0.74661 0.74156 0.0
C1619 C 0.73391 0.76446 0.73254 0.0
C1620 C 0.72534 0.76891 0.7147 0.0
C1621 C 0.71369 0.75466 0.70574 0.0
C1622 C 0.7108 0.73618 0.71462 0.0
C1623 C 0.71955 0.73223 0.73283 0.0
H1624 H 0.15113 0.19249 0.95653 0.0
H1625 H 0.20148 0.15577 0.9451 0.0
H1626 H 0.20766 0.1535 0.98028 0.0
H1627 H 0.16979 0.21778 -0.00092 0.0
H1628 H 0.14681 0.21718 0.01176 0.0
H1629 H 0.14733 0.2177 0.98549 0.0
H1630 H 0.12638 0.18615 0.9843 0.0
H1631 H 0.12575 0.18555 0.01055 0.0
H1632 H 0.13451 0.16467 0.99713 0.0
H1633 H 0.20815 0.15444 0.01667 0.0
H1634 H 0.20127 0.15649 0.05202 0.0
H1635 H 0.14906 0.1899 0.04 0.0
C1636 C 0.16345 0.18393 0.96132 0.0
C1637 C 0.17598 0.17462 0.9478 0.0
C1638 C 0.19198 0.16364 0.95494 0.0
C1639 C 0.19556 0.1621 0.97498 0.0
C1640 C 0.18289 0.17137 0.9878 0.0
C1641 C 0.16705 0.18191 0.9813 0.0
C1642 C 0.15494 0.18936 0.99821 0.0
C1643 C 0.15471 0.21184 -0.00134 0.0
C1644 C 0.13417 0.18092 0.9975 0.0
C1645 C 0.16635 0.18115 0.01521 0.0
C1646 C 0.18261 0.17111 0.00887 0.0
C1647 C 0.19548 0.16227 0.02183 0.0
C1648 C 0.19151 0.16357 0.04183 0.0
C1649 C 0.17468 0.17336 0.04859 0.0
C1650 C 0.16199 0.1823 0.03512 0.0
H1651 H 0.83057 0.18868 0.95375 0.0
H1652 H 0.77728 0.15575 0.9445 0.0
H1653 H 0.77057 0.15684 0.97989 0.0
H1654 H 0.84483 0.16547 0.99587 0.0
H1655 H 0.85452 0.18689 0.0078 0.0
H1656 H 0.85386 0.1857 0.98161 0.0
H1657 H 0.83414 0.21795 0.98048 0.0
H1658 H 0.83483 0.21932 0.00673 0.0
H1659 H 0.8118 0.21989 0.99415 0.0
H1660 H 0.77155 0.15847 0.01642 0.0
H1661 H 0.78032 0.16016 0.05126 0.0
H1662 H 0.83232 0.19319 0.03648 0.0
C1663 C 0.81719 0.1822 0.95907 0.0
C1664 C 0.80442 0.17218 0.94637 0.0
C1665 C 0.78735 0.16338 0.954 0.0
C1666 C 0.78333 0.16406 0.97405 0.0
C1667 C 0.79643 0.17376 0.98621 0.0
C1668 C 0.81295 0.18279 0.97899 0.0
C1669 C 0.82545 0.19094 0.99526 0.0
C1670 C 0.84586 0.18169 0.99512 0.0
C1671 C 0.82662 0.21336 0.99408 0.0
C1672 C 0.81376 0.18444 0.0128 0.0
C1673 C 0.79693 0.1748 0.00729 0.0
C1674 C 0.78449 0.16632 0.02093 0.0
C1675 C 0.78955 0.16744 0.04072 0.0
C1676 C 0.80697 0.17689 0.04665 0.0
C1677 C 0.81894 0.18582 0.03244 0.0
H1678 H 0.81801 0.81694 0.95702 0.0
H1679 H 0.87843 0.80166 0.94597 0.0
H1680 H 0.88393 0.79837 0.98119 0.0
H1681 H 0.82813 0.84788 0.99615 0.0
H1682 H 0.8067 0.84165 0.01003 0.0
H1683 H 0.80642 0.83956 0.98388 0.0
H1684 H 0.79617 0.80316 0.9867 0.0
H1685 H 0.7964 0.80515 0.01292 0.0
H1686 H 0.81077 0.78664 0.00099 0.0
H1687 H 0.88399 0.79982 0.01747 0.0
H1688 H 0.87871 0.80672 0.05237 0.0
H1689 H 0.8191 0.82363 0.03993 0.0
C1690 C 0.83238 0.81274 0.96191 0.0
C1691 C 0.84769 0.80937 0.94851 0.0
C1692 C 0.86623 0.80381 0.95573 0.0
C1693 C 0.86958 0.80202 0.97579 0.0
C1694 C 0.8543 0.8059 0.98853 0.0
C1695 C 0.83607 0.81116 0.98191 0.0
C1696 C 0.82268 0.81635 -0.00131 0.0
C1697 C 0.81558 0.83762 0.99709 0.0
C1698 C 0.80549 0.80196 -0.0001 0.0
C1699 C 0.83645 0.81375 0.01573 0.0
C1700 C 0.85451 0.80739 0.00956 0.0
C1701 C 0.86988 0.8047 0.0225 0.0
C1702 C 0.86679 0.80885 0.04227 0.0
C1703 C 0.84853 0.81586 0.04888 0.0
C1704 C 0.83313 0.81804 0.0354 0.0
H1705 H 0.18278 0.83739 0.037 0.0
H1706 H 0.16978 0.77616 0.04737 0.0
H1707 H 0.17046 0.77 0.0118 0.0
H1708 H 0.15312 0.8429 0.99638 0.0
H1709 H 0.16926 0.85921 0.98349 0.0
H1710 H 0.16981 0.85832 0.0097 0.0
H1711 H 0.20672 0.85057 0.00886 0.0
H1712 H 0.20633 0.85157 0.9826 0.0
H1713 H 0.21531 0.83005 0.99477 0.0
H1714 H 0.17001 0.77124 0.97495 0.0
H1715 H 0.16798 0.77985 0.94001 0.0
H1716 H 0.18204 0.84013 0.95418 0.0
C1717 C 0.18059 0.82257 0.03185 0.0
C1718 C 0.17635 0.80722 0.04494 0.0
C1719 C 0.17298 0.78815 0.03756 0.0
C1720 C 0.17345 0.78449 0.01741 0.0
C1721 C 0.17738 0.80006 0.00488 0.0
C1722 C 0.18097 0.8187 0.01185 0.0
C1723 C 0.18353 0.83317 0.99537 0.0
C1724 C 0.168 0.84934 0.9963 0.0
C1725 C 0.20421 0.84184 0.99541 0.0
C1726 C 0.18039 0.81986 0.97803 0.0
C1727 C 0.17706 0.80078 0.98376 0.0
C1728 C 0.17286 0.78608 0.97028 0.0
C1729 C 0.17182 0.7911 0.95046 0.0
C1730 C 0.17485 0.81066 0.94433 0.0
C1731 C 0.17949 0.82508 0.95837 0.0
H1732 H 0.03713 0.18308 0.14778 0.0
H1733 H 0.0481 0.17327 0.2094 0.0
H1734 H 0.01283 0.1747 0.21585 0.0
H1735 H 0.99454 0.21486 0.15311 0.0
H1736 H 0.98229 0.20399 0.13251 0.0
H1737 H 0.0085 0.20497 0.13314 0.0
H1738 H 0.00997 0.1674 0.12818 0.0
H1739 H 0.98382 0.16632 0.12752 0.0
H1740 H 0.99705 0.15162 0.14482 0.0
H1741 H 0.97616 0.17483 0.21523 0.0
H1742 H 0.94117 0.17264 0.20749 0.0
H1743 H 0.9546 0.17923 0.1459 0.0
C1744 C 0.03221 0.1813 0.16267 0.0
C1745 C 0.04552 0.17814 0.17807 0.0
C1746 C 0.03832 0.17611 0.19736 0.0
C1747 C 0.01826 0.1768 0.20118 0.0
C1748 C 0.00558 0.17947 0.18557 0.0
C1749 C 0.01228 0.18167 0.1667 0.0
C1750 C 0.99565 0.1828 0.15229 0.0
C1751 C 0.99522 0.20285 0.14217 0.0
C1752 C 0.99669 0.16603 0.13733 0.0
C1753 C 0.97853 0.18036 0.16595 0.0
C1754 C 0.98452 0.17881 0.18511 0.0
C1755 C 0.9713 0.17603 0.20027 0.0
C1756 C 0.95145 0.17461 0.19568 0.0
C1757 C 0.945 0.17564 0.17604 0.0
C1758 C 0.95885 0.17873 0.16109 0.0
H1759 H 0.83766 0.95762 0.18669 0.0
H1760 H 0.78781 0.94381 0.15008 0.0
H1761 H 0.78024 0.97885 0.14762 0.0
H1762 H 0.81752 0.00082 0.21116 0.0
H1763 H 0.84038 0.01378 0.21025 0.0
H1764 H 0.84011 0.98747 0.21179 0.0
H1765 H 0.86137 0.98543 0.1806 0.0
H1766 H 0.86165 0.01169 0.17893 0.0
H1767 H 0.85319 0.99726 0.15859 0.0
H1768 H 0.77948 0.01554 0.14692 0.0
H1769 H 0.78666 0.05103 0.14681 0.0
H1770 H 0.83846 0.04074 0.18139 0.0
C1771 C 0.82508 0.96184 0.1782 0.0
C1772 C 0.81329 0.94774 0.16871 0.0
C1773 C 0.79686 0.95413 0.15794 0.0
C1774 C 0.79247 0.97407 0.15632 0.0
C1775 C 0.8047 0.98751 0.16545 0.0
C1776 C 0.82071 0.98167 0.17612 0.0
C1777 C 0.83258 -0.00096 0.18299 0.0
C1778 C 0.83264 0.00035 0.20538 0.0
C1779 C 0.85342 0.9983 0.17478 0.0
C1780 C 0.82102 0.01555 0.17407 0.0
C1781 C 0.80477 0.00864 0.16435 0.0
C1782 C 0.79208 0.02114 0.1546 0.0
C1783 C 0.79624 0.04123 0.15463 0.0
C1784 C 0.8131 0.04849 0.16406 0.0
C1785 C 0.82552 0.03549 0.17401 0.0
H1786 H 0.96002 0.85154 0.16637 0.0
H1787 H 0.94731 0.79677 0.19563 0.0
H1788 H 0.98263 0.79048 0.19903 0.0
H1789 H -0.00042 0.83463 0.13866 0.0
H1790 H 0.01355 0.85689 0.14068 0.0
H1791 H 0.9874 0.85772 0.14196 0.0
H1792 H 0.98941 0.87526 0.17546 0.0
H1793 H 0.0156 0.87461 0.17421 0.0
H1794 H 0.00317 0.86428 0.19496 0.0
H1795 H 0.01936 0.78899 0.19647 0.0
H1796 H 0.05441 0.79305 0.18959 0.0
H1797 H 0.04267 0.84958 0.16328 0.0
C1798 C 0.96467 0.83828 0.17361 0.0
C1799 C 0.95098 0.82461 0.18071 0.0
C1800 C 0.9576 0.80751 0.19025 0.0
C1801 C 0.9776 0.80379 0.19217 0.0
C1802 C 0.99072 0.81743 0.18465 0.0
C1803 C 0.9845 0.83443 0.17574 0.0
C1804 C 0.00145 0.84647 0.16838 0.0
C1805 C 0.00043 0.84907 0.1461 0.0
C1806 C 0.00246 0.86633 0.17889 0.0
C1807 C 0.0182 0.83342 0.17417 0.0
C1808 C 0.01176 0.81675 0.18356 0.0
C1809 C 0.02459 0.80214 0.18941 0.0
C1810 C 0.04451 0.80464 0.18552 0.0
C1811 C 0.05142 0.82167 0.17592 0.0
C1812 C 0.03797 0.83627 0.17042 0.0
H1813 H 0.15057 0.03956 0.15013 0.0
H1814 H 0.19779 0.05163 0.19037 0.0
H1815 H 0.20462 0.01617 0.19277 0.0
H1816 H 0.13359 0.99516 0.1726 0.0
H1817 H 0.12827 0.98328 0.14972 0.0
H1818 H 0.12698 0.00952 0.15159 0.0
H1819 H 0.15133 0.01281 0.12287 0.0
H1820 H 0.15277 0.98658 0.12098 0.0
H1821 H 0.17463 0.00083 0.12432 0.0
H1822 H 0.20561 0.97937 0.19133 0.0
H1823 H 0.20159 0.9439 0.18513 0.0
H1824 H 0.15467 0.95623 0.14471 0.0
C1825 C 0.16223 0.03468 0.15956 0.0
C1826 C 0.17361 0.0482 0.17017 0.0
C1827 C 0.18897 0.04141 0.18211 0.0
C1828 C 0.19291 0.02135 0.18358 0.0
C1829 C 0.18146 0.00838 0.17285 0.0
C1830 C 0.16651 0.01478 0.16098 0.0
C1831 C 0.15667 0.99789 0.15063 0.0
C1832 C 0.1351 0.99638 0.15649 0.0
C1833 C 0.159 -0.00036 0.12838 0.0
C1834 C 0.16833 0.98097 0.15861 0.0
C1835 C 0.18248 0.98729 0.1715 0.0
C1836 C 0.19467 0.97425 0.18118 0.0
C1837 C 0.19226 0.95419 0.17762 0.0
C1838 C 0.17794 0.94747 0.16435 0.0
C1839 C 0.16593 0.96106 0.15469 0.0
H1840 H 0.96052 0.82227 0.83958 0.0
H1841 H 0.94794 0.83357 0.77866 0.0
H1842 H 0.98325 0.83269 0.77122 0.0
H1843 H 0.0016 0.85214 0.84323 0.0
H1844 H 0.01483 0.83609 0.85928 0.0
H1845 H 0.98865 0.83579 0.8593 0.0
H1846 H 0.9888 0.79855 0.85213 0.0
H1847 H 0.01504 0.79871 0.85217 0.0
H1848 H 0.00201 0.78942 0.8313 0.0
H1849 H 0.0202 0.83369 0.77132 0.0
H1850 H 0.05551 0.83477 0.77859 0.0
H1851 H 0.04322 0.82265 0.83946 0.0
C1852 C 0.9652 0.82437 0.82463 0.0
C1853 C 0.9516 0.82805 0.80968 0.0
C1854 C 0.95819 0.83058 0.79028 0.0
C1855 C 0.97818 0.83016 0.78595 0.0
C1856 C 0.99126 0.82694 0.80117 0.0
C1857 C 0.98499 0.82386 0.82008 0.0
C1858 C 0.00189 0.8214 0.83396 0.0
C1859 C 0.00173 0.83731 0.84987 0.0
C1860 C 0.00193 0.80079 0.84291 0.0
C1861 C 0.01873 0.82414 0.82004 0.0
C1862 C 0.01236 0.82721 0.80117 0.0
C1863 C 0.02534 0.83106 0.786 0.0
C1864 C 0.04533 0.83176 0.79028 0.0
C1865 C 0.05208 0.82863 0.80955 0.0
C1866 C 0.03854 0.82467 0.82452 0.0
H1867 H 0.16889 0.96032 0.80888 0.0
H1868 H 0.19091 0.95153 0.86765 0.0
H1869 H 0.1961 0.98691 0.87098 0.0
H1870 H 0.19994 0.00228 0.79589 0.0
H1871 H 0.1806 0.01455 0.78306 0.0
H1872 H 0.18111 0.98821 0.78405 0.0
H1873 H 0.14627 0.98791 0.79857 0.0
H1874 H 0.14564 0.01419 0.79757 0.0
H1875 H 0.14129 0.00181 0.82036 0.0
H1876 H 0.19625 0.02314 0.8694 0.0
H1877 H 0.18984 0.05821 0.86329 0.0
H1878 H 0.16628 0.04398 0.80641 0.0
C1879 C 0.1749 0.96576 0.82243 0.0
C1880 C 0.17971 0.95295 0.83789 0.0
C1881 C 0.18759 0.96084 0.85534 0.0
C1882 C 0.19052 0.98099 0.85745 0.0
C1883 C 0.18544 0.99315 0.84203 0.0
C1884 C 0.17772 0.98589 0.82488 0.0
C1885 C 0.17191 0.00228 0.81123 0.0
C1886 C 0.18412 0.0018 0.79244 0.0
C1887 C 0.14998 0.0015 0.80668 0.0
C1888 C 0.17703 0.01988 0.82366 0.0
C1889 C 0.18514 0.01425 0.84123 0.0
C1890 C 0.19017 0.02777 0.8556 0.0
C1891 C 0.18651 0.04757 0.85204 0.0
C1892 C 0.17787 0.05353 0.83435 0.0
C1893 C 0.17326 0.03962 0.81989 0.0
H1894 H 0.03567 0.18509 0.8485 0.0
H1895 H 0.04766 0.15372 0.79471 0.0
H1896 H 0.01247 0.14962 0.78918 0.0
H1897 H 0.99702 0.15482 0.86389 0.0
H1898 H 0.98271 0.17432 0.87421 0.0
H1899 H 0.0088 0.17654 0.87308 0.0
H1900 H 0.00547 0.20908 0.85403 0.0
H1901 H 0.97933 0.20699 0.85515 0.0
H1902 H 0.9913 0.20964 0.8319 0.0
H1903 H 0.97631 0.14684 0.79054 0.0
H1904 H 0.94128 0.14611 0.79847 0.0
H1905 H 0.95272 0.17835 0.85185 0.0
C1906 C 0.0309 0.17745 0.8355 0.0
C1907 C 0.04446 0.16986 0.82197 0.0
C1908 C 0.03759 0.16003 0.80509 0.0
C1909 C 0.01761 0.15752 0.80186 0.0
C1910 C 0.00469 0.16493 0.81562 0.0
C1911 C 0.01101 0.17477 0.83206 0.0
C1912 C 0.99408 0.18052 0.845 0.0
C1913 C 0.99576 0.17097 0.86524 0.0
C1914 C 0.99245 0.20289 0.84661 0.0
C1915 C 0.97731 0.17198 0.83345 0.0
C1916 C 0.98375 0.16318 0.8165 0.0
C1917 C 0.97106 0.15376 0.80373 0.0
C1918 C 0.95123 0.15328 0.80844 0.0
C1919 C 0.9443 0.16212 0.8258 0.0
C1920 C 0.95755 0.17168 0.83837 0.0
H1921 H 0.84191 0.95632 0.82078 0.0
H1922 H 0.79016 0.94409 0.85507 0.0
H1923 H 0.78166 0.97919 0.8544 0.0
H1924 H 0.85416 0.00085 0.84328 0.0
H1925 H 0.86241 0.01253 0.82121 0.0
H1926 H 0.86378 0.98636 0.82353 0.0
H1927 H 0.84355 0.98229 0.79186 0.0
H1928 H 0.84212 0.00848 0.78944 0.0
H1929 H 0.82015 0.99402 0.78994 0.0
H1930 H 0.77975 0.0158 0.8513 0.0
H1931 H 0.78503 0.05121 0.84685 0.0
H1932 H 0.83732 0.03911 0.81337 0.0
C1933 C 0.82859 0.96093 0.82786 0.0
C1934 C 0.81667 0.94745 0.83794 0.0
C1935 C 0.79962 0.95419 0.84742 0.0
C1936 C 0.79459 0.97406 0.84698 0.0
C1937 C 0.8067 0.98694 0.83693 0.0
C1938 C 0.82334 0.98064 0.82752 0.0
C1939 C 0.83432 0.99753 0.81841 0.0
C1940 C 0.85488 -0.00058 0.82714 0.0
C1941 C 0.83507 0.99545 0.79609 0.0
C1942 C 0.82146 0.01439 0.82449 0.0
C1943 C 0.80553 0.00798 0.83502 0.0
C1944 C 0.79204 0.02098 0.84287 0.0
C1945 C 0.79511 0.04107 0.84014 0.0
C1946 C 0.81155 0.04798 0.82967 0.0
C1947 C 0.82467 0.03435 0.82152 0.0
H1948 H 0.66436 0.69059 0.45722 0.0
H1949 H 0.71336 0.65288 0.44358 0.0
H1950 H 0.72062 0.64987 0.47859 0.0
H1951 H 0.6853 0.71462 0.50015 0.0
H1952 H 0.66248 0.71446 0.51314 0.0
H1953 H 0.66267 0.71582 0.48689 0.0
H1954 H 0.64047 0.68515 0.48508 0.0
H1955 H 0.64023 0.68369 0.51128 0.0
H1956 H 0.648 0.66295 0.49705 0.0
H1957 H 0.72123 0.64901 0.51525 0.0
H1958 H 0.7141 0.64926 0.55065 0.0
H1959 H 0.66366 0.6858 0.54017 0.0
C1960 C 0.67669 0.68176 0.4615 0.0
C1961 C 0.68837 0.67215 0.44748 0.0
C1962 C 0.70444 0.66084 0.45389 0.0
C1963 C 0.70864 0.65892 0.4738 0.0
C1964 C 0.69661 0.66832 0.48718 0.0
C1965 C 0.68094 0.67948 0.4813 0.0
C1966 C 0.66937 0.68681 0.4986 0.0
C1967 C 0.67 0.70926 0.49976 0.0
C1968 C 0.64828 0.67919 0.49796 0.0
C1969 C 0.68071 0.67764 0.51512 0.0
C1970 C 0.69658 0.66731 0.50827 0.0
C1971 C 0.70894 0.65718 0.5208 0.0
C1972 C 0.70483 0.65744 0.54084 0.0
C1973 C 0.68834 0.66753 0.54805 0.0
C1974 C 0.67631 0.6779 0.535 0.0
H1975 H 0.31081 0.64475 0.54354 0.0
H1976 H 0.31141 0.70682 0.55642 0.0
H1977 H 0.30763 0.7141 0.52123 0.0
H1978 H 0.33918 0.64685 0.50205 0.0
H1979 H 0.32623 0.62811 0.48883 0.0
H1980 H 0.32634 0.62789 0.51505 0.0
H1981 H 0.2886 0.62806 0.51549 0.0
H1982 H 0.28835 0.62811 0.48921 0.0
H1983 H 0.27564 0.6469 0.50253 0.0
H1984 H 0.30836 0.7143 0.48427 0.0
H1985 H 0.31195 0.70755 0.44909 0.0
H1986 H 0.30907 0.6452 0.46089 0.0
C1987 C 0.3098 0.65987 0.53896 0.0
C1988 C 0.31141 0.67525 0.5526 0.0
C1989 C 0.31001 0.69485 0.54616 0.0
C1990 C 0.30792 0.6991 0.52623 0.0
C1991 C 0.30694 0.68355 0.51306 0.0
C1992 C 0.30756 0.66432 0.51924 0.0
C1993 C 0.30741 0.65026 0.50222 0.0
C1994 C 0.32589 0.63754 0.50204 0.0
C1995 C 0.28889 0.63759 0.50238 0.0
C1996 C 0.30728 0.66455 0.48543 0.0
C1997 C 0.3069 0.68368 0.49192 0.0
C1998 C 0.30823 0.69937 0.47902 0.0
C1999 C 0.31018 0.69537 0.45902 0.0
C2000 C 0.31077 0.67582 0.45209 0.0
C2001 C 0.30888 0.66032 0.46559 0.0
H2002 H 0.31806 0.3188 0.45753 0.0
H2003 H 0.33394 0.37886 0.44434 0.0
H2004 H 0.33806 0.38559 0.47938 0.0
H2005 H 0.29164 0.32935 0.50274 0.0
H2006 H 0.30031 0.30765 0.51482 0.0
H2007 H 0.29734 0.3078 0.4887 0.0
H2008 H 0.33336 0.29743 0.4845 0.0
H2009 H 0.33647 0.29734 0.51057 0.0
H2010 H 0.3523 0.312 0.49552 0.0
H2011 H 0.34275 0.38537 0.51529 0.0
H2012 H 0.34615 0.37855 0.55048 0.0
H2013 H 0.32719 0.31874 0.54076 0.0
C2014 C 0.32226 0.33339 0.46205 0.0
C2015 C 0.32549 0.34835 0.44821 0.0
C2016 C 0.33098 0.36727 0.45469 0.0
C2017 C 0.3335 0.37121 0.47455 0.0
C2018 C 0.3304 0.35612 0.48778 0.0
C2019 C 0.32476 0.33762 0.48187 0.0
C2020 C 0.32289 0.32392 0.49913 0.0
C2021 C 0.30179 0.31676 0.50148 0.0
C2022 C 0.33711 0.30666 0.49731 0.0
C2023 C 0.32869 0.33755 0.51558 0.0
C2024 C 0.33296 0.35604 0.50867 0.0
C2025 C 0.33932 0.37099 0.52093 0.0
C2026 C 0.34134 0.36695 0.54083 0.0
C2027 C 0.33694 0.34814 0.54826 0.0
C2028 C 0.33045 0.3333 0.53546 0.0
H2029 H 0.6876 0.34385 0.45888 0.0
H2030 H 0.65786 0.28928 0.44571 0.0
H2031 H 0.65592 0.28194 0.48086 0.0
H2032 H 0.71426 0.32716 0.50227 0.0
H2033 H 0.71066 0.35003 0.51484 0.0
H2034 H 0.71229 0.34958 0.4886 0.0
H2035 H 0.6789 0.36702 0.48623 0.0
H2036 H 0.67715 0.36749 0.5124 0.0
H2037 H 0.65801 0.3564 0.49816 0.0
H2038 H 0.65448 0.28202 0.51756 0.0
H2039 H 0.65353 0.28963 0.55277 0.0
H2040 H 0.68206 0.34523 0.54147 0.0
C2041 C 0.6808 0.33026 0.46331 0.0
C2042 C 0.67294 0.31713 0.44945 0.0
C2043 C 0.66433 0.29943 0.45597 0.0
C2044 C 0.66307 0.29516 0.47594 0.0
C2045 C 0.67048 0.30872 0.48919 0.0
C2046 C 0.67922 0.32589 0.48313 0.0
C2047 C 0.68459 0.33878 0.50026 0.0
C2048 C 0.70677 0.34154 0.50156 0.0
C2049 C 0.67402 0.35858 0.49919 0.0
C2050 C 0.67704 0.32642 0.51689 0.0
C2051 C 0.6692 0.30901 0.51027 0.0
C2052 C 0.66068 0.29556 0.52293 0.0
C2053 C 0.66004 0.30011 0.54288 0.0
C2054 C 0.66769 0.31805 0.54994 0.0
C2055 C 0.67642 0.33123 0.53668 0.0
H2056 H 0.53952 0.67705 0.67256 0.0
H2057 H 0.55226 0.62853 0.63384 0.0
H2058 H 0.51737 0.61965 0.63322 0.0
H2059 H 0.50188 0.65319 0.70056 0.0
H2060 H 0.48697 0.67475 0.70253 0.0
H2061 H 0.513 0.67709 0.70031 0.0
H2062 H 0.50868 0.69934 0.67003 0.0
H2063 H 0.48264 0.69717 0.67224 0.0
H2064 H 0.49446 0.69069 0.64966 0.0
H2065 H 0.48141 0.61564 0.63733 0.0
H2066 H 0.44607 0.61853 0.64355 0.0
H2067 H 0.45648 0.67036 0.6786 0.0
C2068 C 0.5349 0.66455 0.66401 0.0
C2069 C 0.54847 0.65345 0.65323 0.0
C2070 C 0.54199 0.6373 0.64203 0.0
C2071 C 0.52227 0.63207 0.64171 0.0
C2072 C 0.50925 0.64325 0.65255 0.0
C2073 C 0.51523 0.65928 0.66332 0.0
C2074 C 0.49814 0.66922 0.67312 0.0
C2075 C 0.50012 0.66851 0.69545 0.0
C2076 C 0.49585 0.69035 0.66582 0.0
C2077 C 0.48163 0.65631 0.66611 0.0
C2078 C 0.48839 0.64127 0.65448 0.0
C2079 C 0.47592 0.62736 0.64641 0.0
C2080 C 0.45593 0.62904 0.6501 0.0
C2081 C 0.44867 0.64463 0.66155 0.0
C2082 C 0.46171 0.65835 0.66973 0.0
H2083 H 0.33213 0.53821 0.69755 0.0
H2084 H 0.28111 0.54644 0.66115 0.0
H2085 H 0.2748 0.51092 0.66201 0.0
H2086 H 0.34871 0.49661 0.67413 0.0
H2087 H 0.35762 0.48461 0.69574 0.0
H2088 H 0.35639 0.51086 0.6949 0.0
H2089 H 0.3351 0.51102 0.72613 0.0
H2090 H 0.33633 0.48471 0.72712 0.0
H2091 H 0.31301 0.49674 0.7268 0.0
H2092 H 0.27647 0.47434 0.66323 0.0
H2093 H 0.28589 0.43965 0.66478 0.0
H2094 H 0.33574 0.45515 0.70061 0.0
C2095 C 0.31948 0.53259 0.68996 0.0
C2096 C 0.30708 0.54515 0.67934 0.0
C2097 C 0.29064 0.53719 0.66968 0.0
C2098 C 0.28696 0.517 0.67002 0.0
C2099 C 0.29978 0.505 0.6802 0.0
C2100 C 0.31564 0.51251 0.69011 0.0
C2101 C 0.32808 0.49638 0.69859 0.0
C2102 C 0.34893 0.49717 0.69034 0.0
C2103 C 0.32813 0.49727 0.72099 0.0
C2104 C 0.31715 0.47859 0.69129 0.0
C2105 C 0.30073 0.48386 0.68094 0.0
C2106 C 0.28907 0.47001 0.67164 0.0
C2107 C 0.29451 0.45029 0.67271 0.0
C2108 C 0.31151 0.44457 0.68294 0.0
C2109 C 0.32269 0.45898 0.69264 0.0
H2110 H 0.54289 0.34571 0.66562 0.0
H2111 H 0.55505 0.29482 0.70125 0.0
H2112 H 0.51962 0.29002 0.70652 0.0
H2113 H 0.50181 0.36334 0.69381 0.0
H2114 H 0.48884 0.3715 0.67248 0.0
H2115 H 0.51506 0.37122 0.6725 0.0
H2116 H 0.51485 0.34952 0.64144 0.0
H2117 H 0.48865 0.34968 0.64135 0.0
H2118 H 0.50155 0.32676 0.64159 0.0
H2119 H 0.48249 0.29001 0.70609 0.0
H2120 H 0.44724 0.2951 0.70057 0.0
H2121 H 0.46036 0.3465 0.66582 0.0
C2122 C 0.53811 0.33353 0.67452 0.0
C2123 C 0.55163 0.32054 0.68292 0.0
C2124 C 0.54486 0.30498 0.69476 0.0
C2125 C 0.52481 0.30213 0.69778 0.0
C2126 C 0.51185 0.3151 0.68901 0.0
C2127 C 0.51829 0.33057 0.67774 0.0
C2128 C 0.50155 0.34229 0.66962 0.0
C2129 C 0.50183 0.36333 0.67759 0.0
C2130 C 0.50166 0.34204 0.64717 0.0
C2131 C 0.4846 0.33081 0.67772 0.0
C2132 C 0.49074 0.31522 0.68895 0.0
C2133 C 0.47753 0.30228 0.69747 0.0
C2134 C 0.45756 0.30533 0.69432 0.0
C2135 C 0.45104 0.32117 0.68272 0.0
C2136 C 0.46484 0.3341 0.67454 0.0
H2137 H 0.66948 0.54565 0.65513 0.0
H2138 H 0.69396 0.55561 0.71251 0.0
H2139 H 0.69721 0.51973 0.71718 0.0
H2140 H 0.6412 0.50505 0.66632 0.0
H2141 H 0.64567 0.49227 0.64374 0.0
H2142 H 0.64691 0.51854 0.64446 0.0
H2143 H 0.68206 0.51756 0.6307 0.0
H2144 H 0.68087 0.49125 0.62977 0.0
H2145 H 0.70028 0.50315 0.64294 0.0
H2146 H 0.69473 0.48258 0.71635 0.0
H2147 H 0.68825 0.44761 0.70968 0.0
H2148 H 0.66675 0.46271 0.65213 0.0
C2149 C 0.67575 0.54022 0.66857 0.0
C2150 C 0.68143 0.55317 0.68352 0.0
C2151 C 0.68964 0.54576 0.7009 0.0
C2152 C 0.6915 0.52547 0.70365 0.0
C2153 C 0.68538 0.51301 0.6887 0.0
C2154 C 0.67794 0.52016 0.67139 0.0
C2155 C 0.67196 0.50385 0.65775 0.0
C2156 C 0.65014 0.505 0.65279 0.0
C2157 C 0.68455 0.50396 0.6392 0.0
C2158 C 0.67643 0.48634 0.67036 0.0
C2159 C 0.68432 0.49184 0.68809 0.0
C2160 C 0.68884 0.47811 0.7024 0.0
C2161 C 0.68516 0.45828 0.69846 0.0
C2162 C 0.67699 0.45241 0.68038 0.0
C2163 C 0.6728 0.46671 0.66616 0.0
H2164 H 0.45765 0.3317 0.31513 0.0
H2165 H 0.44681 0.3585 0.37144 0.0
H2166 H 0.48224 0.36271 0.37639 0.0
H2167 H 0.50026 0.30476 0.3301 0.0
H2168 H 0.51275 0.30795 0.30718 0.0
H2169 H 0.48653 0.30749 0.30786 0.0
H2170 H 0.48555 0.34124 0.29072 0.0
H2171 H 0.51176 0.34182 0.29003 0.0
H2172 H 0.49855 0.3616 0.30128 0.0
H2173 H 0.51844 0.36501 0.37473 0.0
H2174 H 0.55371 0.36301 0.3677 0.0
H2175 H 0.54131 0.33298 0.31335 0.0
C2176 C 0.46282 0.3385 0.32844 0.0
C2177 C 0.44966 0.34485 0.34291 0.0
C2178 C 0.45679 0.35348 0.36027 0.0
C2179 C 0.47682 0.35599 0.36315 0.0
C2180 C 0.48945 0.34958 0.34862 0.0
C2181 C 0.4828 0.34082 0.33169 0.0
C2182 C 0.49954 0.33471 0.31868 0.0
C2183 C 0.49978 0.3124 0.31579 0.0
C2184 C 0.4988 0.34549 0.29902 0.0
C2185 C 0.51663 0.34151 0.33089 0.0
C2186 C 0.51045 0.35023 0.34801 0.0
C2187 C 0.52349 0.35814 0.36143 0.0
C2188 C 0.54341 0.35701 0.35731 0.0
C2189 C 0.55004 0.34785 0.34004 0.0
C2190 C 0.53651 0.33995 0.3267 0.0
H2191 H 0.67616 0.4607 0.30872 0.0
H2192 H 0.69082 0.45204 0.36975 0.0
H2193 H 0.69218 0.48767 0.37449 0.0
H2194 H 0.70552 0.5051 0.30118 0.0
H2195 H 0.6875 0.51625 0.2857 0.0
H2196 H 0.68976 0.49001 0.28645 0.0
H2197 H 0.65324 0.48699 0.29546 0.0
H2198 H 0.65087 0.51319 0.29481 0.0
H2199 H 0.64406 0.49991 0.31647 0.0
H2200 H 0.68968 0.52391 0.37347 0.0
H2201 H 0.68316 0.55882 0.36651 0.0
H2202 H 0.66888 0.54425 0.30669 0.0
C2203 C 0.6798 0.46628 0.32305 0.0
C2204 C 0.6836 0.4535 0.3388 0.0
C2205 C 0.68833 0.46146 0.35731 0.0
C2206 C 0.68903 0.48171 0.36021 0.0
C2207 C 0.68495 0.49385 0.34447 0.0
C2208 C 0.68046 0.48649 0.32624 0.0
C2209 C 0.67558 0.50276 0.31208 0.0
C2210 C 0.69048 0.50357 0.29536 0.0
C2211 C 0.6547 0.50057 0.30426 0.0
C2212 C 0.67751 0.52036 0.32537 0.0
C2213 C 0.68318 0.51487 0.34393 0.0
C2214 C 0.68543 0.52842 0.35896 0.0
C2215 C 0.68172 0.54812 0.35492 0.0
C2216 C 0.67572 0.55394 0.33611 0.0
C2217 C 0.67364 0.53998 0.32113 0.0
H2218 H 0.53462 0.68599 0.33281 0.0
H2219 H 0.54814 0.63258 0.36408 0.0
H2220 H 0.5133 0.6237 0.36435 0.0
H2221 H 0.48949 0.69605 0.35827 0.0
H2222 H 0.47739 0.70544 0.33694 0.0
H2223 H 0.50343 0.70761 0.3392 0.0
H2224 H 0.50771 0.68987 0.30606 0.0
H2225 H 0.48168 0.68752 0.30376 0.0
H2226 H 0.49687 0.66608 0.30254 0.0
H2227 H 0.47745 0.61994 0.36019 0.0
H2228 H 0.4421 0.62289 0.3543 0.0
H2229 H 0.45145 0.67917 0.32664 0.0
C2230 C 0.53018 0.67246 0.33973 0.0
C2231 C 0.544 0.65998 0.34849 0.0
C2232 C 0.53772 0.64245 0.35752 0.0
C2233 C 0.51801 0.63722 0.35762 0.0
C2234 C 0.50476 0.64975 0.34875 0.0
C2235 C 0.5105 0.66711 0.34017 0.0
C2236 C 0.4932 0.6781 0.332 0.0
C2237 C 0.49074 0.69797 0.34222 0.0
C2238 C 0.49498 0.68053 0.30977 0.0
C2239 C 0.47688 0.66414 0.33728 0.0
C2240 C 0.48392 0.6478 0.34677 0.0
C2241 C 0.47173 0.63268 0.35283 0.0
C2242 C 0.45173 0.63441 0.34931 0.0
C2243 C 0.44416 0.65121 0.33998 0.0
C2244 C 0.45692 0.66622 0.33387 0.0
H2245 H 0.32587 0.45646 0.29964 0.0
H2246 H 0.27916 0.44307 0.34006 0.0
H2247 H 0.27051 0.47803 0.34159 0.0
H2248 H 0.34195 0.4976 0.3225 0.0
H2249 H 0.34761 0.51164 0.30099 0.0
H2250 H 0.34795 0.48538 0.29997 0.0
H2251 H 0.32317 0.48574 0.2715 0.0
H2252 H 0.32293 0.5121 0.27224 0.0
H2253 H 0.30045 0.49859 0.27433 0.0
H2254 H 0.27062 0.51415 0.3433 0.0
H2255 H 0.27839 0.54915 0.34406 0.0
H2256 H 0.32391 0.53983 0.30096 0.0
C2257 C 0.31338 0.46086 0.3082 0.0
C2258 C 0.30313 0.44714 0.31969 0.0
C2259 C 0.28721 0.45342 0.33121 0.0
C2260 C 0.28213 0.47321 0.33208 0.0
C2261 C 0.29299 0.4865 0.32119 0.0
C2262 C 0.30812 0.48061 0.30925 0.0
C2263 C 0.31865 0.49809 0.30061 0.0
C2264 C 0.34031 0.49817 0.30637 0.0
C2265 C 0.31614 0.49866 0.27835 0.0
C2266 C 0.30769 0.51466 0.31035 0.0
C2267 C 0.29279 0.50763 0.32193 0.0
C2268 C 0.28185 0.51991 0.33383 0.0
C2269 C 0.28636 0.53989 0.33406 0.0
C2270 C 0.30166 0.54753 0.3224 0.0
C2271 C 0.31216 0.53463 0.31012 0.0
loop_
_geom_bond_atom_site_label_1
_geom_bond_atom_site_label_2
_geom_bond_distance
_geom_bond_site_symmetry_2
_ccdc_geom_bond_type
Li0 N17 1.990 . S
Li0 O60 1.956 . S
Li0 O61 1.970 . S
Li0 O62 1.961 . S
Li1 N25 1.990 . S
Li1 O60 1.970 . S
Li1 O61 1.956 . S
Li1 O63 1.961 . S
Li2 N47 1.990 . S
Li2 O60 1.961 . S
Li2 O62 1.956 . S
Li2 O63 1.970 . S
Li3 N53 1.990 . S
Li3 O61 1.961 . S
Li3 O62 1.970 . S
Li3 O63 1.956 . S
C4 C6 1.348 . S
C4 C7 1.356 . S
C4 O60 1.325 . S
N5 C8 1.314 . S
N5 C9 1.279 . S
C6 C4 1.348 . S
C6 C8 1.353 . S
C6 H64 0.929 . S
C7 C4 1.356 . S
C7 C9 1.358 . S
C7 H65 0.930 . S
C8 N5 1.314 . S
C8 C6 1.353 . S
C8 H66 0.930 . S
C9 N5 1.279 . S
C9 C7 1.358 . S
C9 H67 0.930 . S
C10 C13 1.348 . S
C10 C14 1.356 . S
C10 O61 1.325 . S
C11 N12 1.279 . S
C11 C14 1.358 . S
C11 H68 0.930 . S
N12 C11 1.279 . S
N12 C15 1.314 . S
C13 C10 1.348 . S
C13 C15 1.353 . S
C13 H69 0.929 . S
C14 C10 1.356 . S
C14 C11 1.358 . S
C14 H70 0.930 . S
C15 N12 1.314 . S
C15 C13 1.353 . S
C15 H71 0.930 . S
C16 N17 1.314 . S
C16 C21 1.353 . S
C16 H22 0.930 . S
N17 Li0 1.990 . S
N17 C16 1.314 . S
N17 C19 1.279 . S
C18 C19 1.358 . S
C18 C20 1.356 . S
C18 H72 0.930 . S
C19 N17 1.279 . S
C19 C18 1.358 . S
C19 H23 0.930 . S
C20 C18 1.356 . S
C20 C21 1.348 . S
C21 C16 1.353 . S
C21 C20 1.348 . S
C21 H73 0.929 . S
H22 C16 0.930 . S
H23 C19 0.930 . S
C24 N25 1.314 . S
C24 C26 1.353 . S
C24 H30 0.930 . S
N25 Li1 1.990 . S
N25 C24 1.314 . S
N25 C28 1.279 . S
C26 C24 1.353 . S
C26 C29 1.348 . S
C26 H74 0.929 . S
C27 C28 1.358 . S
C27 C29 1.356 . S
C27 H75 0.930 . S
C28 N25 1.279 . S
C28 C27 1.358 . S
C28 H31 0.930 . S
C29 C26 1.348 . S
C29 C27 1.356 . S
H30 C24 0.930 . S
H31 C28 0.930 . S
C32 C34 1.348 . S
C32 C35 1.356 . S
C32 O62 1.325 . S
N33 C36 1.314 . S
N33 C37 1.279 . S
C34 C32 1.348 . S
C34 C36 1.353 . S
C34 H76 0.929 . S
C35 C32 1.356 . S
C35 C37 1.358 . S
C35 H77 0.930 . S
C36 N33 1.314 . S
C36 C34 1.353 . S
C36 H78 0.930 . S
C37 N33 1.279 . S
C37 C35 1.358 . S
C37 H79 0.930 . S
C38 C39 1.348 . S
C38 C40 1.356 . S
C38 O63 1.325 . S
C39 C38 1.348 . S
C39 C41 1.353 . S
C39 H80 0.929 . S
C40 C38 1.356 . S
C40 C42 1.358 . S
C40 H81 0.930 . S
C41 C39 1.353 . S
C41 N43 1.314 . S
C41 H82 0.930 . S
C42 C40 1.358 . S
C42 N43 1.279 . S
C42 H83 0.930 . S
N43 C41 1.314 . S
N43 C42 1.279 . S
C44 C46 1.353 . S
C44 N47 1.314 . S
C44 H50 0.930 . S
C45 N47 1.279 . S
C45 C48 1.358 . S
C45 H51 0.930 . S
C46 C44 1.353 . S
C46 C49 1.348 . S
C46 H84 0.929 . S
N47 Li2 1.990 . S
N47 C44 1.314 . S
N47 C45 1.279 . S
C48 C45 1.358 . S
C48 C49 1.356 . S
C48 H85 0.930 . S
C49 C46 1.348 . S
C49 C48 1.356 . S
H50 C44 0.930 . S
H51 C45 0.930 . S
C52 N53 1.314 . S
C52 C54 1.353 . S
C52 H58 0.930 . S
N53 Li3 1.990 . S
N53 C52 1.314 . S
N53 C56 1.279 . S
C54 C52 1.353 . S
C54 C57 1.348 . S
C54 H86 0.929 . S
C55 C56 1.358 . S
C55 C57 1.356 . S
C55 H87 0.930 . S
C56 N53 1.279 . S
C56 C55 1.358 . S
C56 H59 0.930 . S
C57 C54 1.348 . S
C57 C55 1.356 . S
H58 C52 0.930 . S
H59 C56 0.930 . S
O60 Li0 1.956 . S
O60 Li1 1.970 . S
O60 Li2 1.961 . S
O60 C4 1.325 . S
O61 Li0 1.970 . S
O61 Li1 1.956 . S
O61 Li3 1.961 . S
O61 C10 1.325 . S
O62 Li0 1.961 . S
O62 Li2 1.956 . S
O62 Li3 1.970 . S
O62 C32 1.325 . S
O63 Li1 1.961 . S
O63 Li2 1.970 . S
O63 Li3 1.956 . S
O63 C38 1.325 . S
H64 C6 0.929 . S
H65 C7 0.930 . S
H66 C8 0.930 . S
H67 C9 0.930 . S
H68 C11 0.930 . S
H69 C13 0.929 . S
H70 C14 0.930 . S
H71 C15 0.930 . S
H72 C18 0.930 . S
H73 C21 0.929 . S
H74 C26 0.929 . S
H75 C27 0.930 . S
H76 C34 0.929 . S
H77 C35 0.930 . S
H78 C36 0.930 . S
H79 C37 0.930 . S
H80 C39 0.929 . S
H81 C40 0.930 . S
H82 C41 0.930 . S
H83 C42 0.930 . S
H84 C46 0.929 . S
H85 C48 0.930 . S
H86 C54 0.929 . S
H87 C55 0.930 . S
Li88 N105 1.990 . S
Li88 O148 1.956 . S
Li88 O149 1.970 . S
Li88 O150 1.961 . S
Li89 N113 1.990 . S
Li89 O148 1.970 . S
Li89 O149 1.956 . S
Li89 O151 1.961 . S
Li90 N135 1.990 . S
Li90 O148 1.961 . S
Li90 O150 1.956 . S
Li90 O151 1.970 . S
Li91 N141 1.990 . S
Li91 O149 1.961 . S
Li91 O150 1.970 . S
Li91 O151 1.956 . S
C92 C94 1.348 . S
C92 C95 1.356 . S
C92 O148 1.325 . S
N93 C96 1.314 . S
N93 C97 1.279 . S
C94 C92 1.348 . S
C94 C96 1.353 . S
C94 H152 0.929 . S
C95 C92 1.356 . S
C95 C97 1.358 . S
C95 H153 0.930 . S
C96 N93 1.314 . S
C96 C94 1.353 . S
C96 H154 0.930 . S
C97 N93 1.279 . S
C97 C95 1.358 . S
C97 H155 0.930 . S
C98 C101 1.348 . S
C98 C102 1.356 . S
C98 O149 1.325 . S
C99 N100 1.279 . S
C99 C102 1.358 . S
C99 H156 0.930 . S
N100 C99 1.279 . S
N100 C103 1.314 . S
C101 C98 1.348 . S
C101 C103 1.353 . S
C101 H157 0.929 . S
C102 C98 1.356 . S
C102 C99 1.358 . S
C102 H158 0.930 . S
C103 N100 1.314 . S
C103 C101 1.353 . S
C103 H159 0.930 . S
C104 N105 1.314 . S
C104 C109 1.353 . S
C104 H110 0.930 . S
N105 Li88 1.990 . S
N105 C104 1.314 . S
N105 C107 1.279 . S
C106 C107 1.358 . S
C106 C108 1.356 . S
C106 H160 0.930 . S
C107 N105 1.279 . S
C107 C106 1.358 . S
C107 H111 0.930 . S
C108 C106 1.356 . S
C108 C109 1.348 . S
C109 C104 1.353 . S
C109 C108 1.348 . S
C109 H161 0.929 . S
H110 C104 0.930 . S
H111 C107 0.930 . S
C112 N113 1.314 . S
C112 C114 1.353 . S
C112 H118 0.930 . S
N113 Li89 1.990 . S
N113 C112 1.314 . S
N113 C116 1.279 . S
C114 C112 1.353 . S
C114 C117 1.348 . S
C114 H162 0.929 . S
C115 C116 1.358 . S
C115 C117 1.356 . S
C115 H163 0.930 . S
C116 N113 1.279 . S
C116 C115 1.358 . S
C116 H119 0.930 . S
C117 C114 1.348 . S
C117 C115 1.356 . S
H118 C112 0.930 . S
H119 C116 0.930 . S
C120 C122 1.348 . S
C120 C123 1.356 . S
C120 O150 1.325 . S
N121 C124 1.314 . S
N121 C125 1.279 . S
C122 C120 1.348 . S
C122 C124 1.353 . S
C122 H164 0.929 . S
C123 C120 1.356 . S
C123 C125 1.358 . S
C123 H165 0.930 . S
C124 N121 1.314 . S
C124 C122 1.353 . S
C124 H166 0.930 . S
C125 N121 1.279 . S
C125 C123 1.358 . S
C125 H167 0.930 . S
C126 C127 1.348 . S
C126 C128 1.356 . S
C126 O151 1.325 . S
C127 C126 1.348 . S
C127 C129 1.353 . S
C127 H168 0.929 . S
C128 C126 1.356 . S
C128 C130 1.358 . S
C128 H169 0.930 . S
C129 C127 1.353 . S
C129 N131 1.314 . S
C129 H170 0.930 . S
C130 C128 1.358 . S
C130 N131 1.279 . S
C130 H171 0.930 . S
N131 C129 1.314 . S
N131 C130 1.279 . S
C132 C134 1.353 . S
C132 N135 1.314 . S
C132 H138 0.930 . S
C133 N135 1.279 . S
C133 C136 1.358 . S
C133 H139 0.930 . S
C134 C132 1.353 . S
C134 C137 1.348 . S
C134 H172 0.929 . S
N135 Li90 1.990 . S
N135 C132 1.314 . S
N135 C133 1.279 . S
C136 C133 1.358 . S
C136 C137 1.356 . S
C136 H173 0.930 . S
C137 C134 1.348 . S
C137 C136 1.356 . S
H138 C132 0.930 . S
H139 C133 0.930 . S
C140 N141 1.314 . S
C140 C142 1.353 . S
C140 H146 0.930 . S
N141 Li91 1.990 . S
N141 C140 1.314 . S
N141 C144 1.279 . S
C142 C140 1.353 . S
C142 C145 1.348 . S
C142 H174 0.929 . S
C143 C144 1.358 . S
C143 C145 1.356 . S
C143 H175 0.930 . S
C144 N141 1.279 . S
C144 C143 1.358 . S
C144 H147 0.930 . S
C145 C142 1.348 . S
C145 C143 1.356 . S
H146 C140 0.930 . S
H147 C144 0.930 . S
O148 Li88 1.956 . S
O148 Li89 1.970 . S
O148 Li90 1.961 . S
O148 C92 1.325 . S
O149 Li88 1.970 . S
O149 Li89 1.956 . S
O149 Li91 1.961 . S
O149 C98 1.325 . S
O150 Li88 1.961 . S
O150 Li90 1.956 . S
O150 Li91 1.970 . S
O150 C120 1.325 . S
O151 Li89 1.961 . S
O151 Li90 1.970 . S
O151 Li91 1.956 . S
O151 C126 1.325 . S
H152 C94 0.929 . S
H153 C95 0.930 . S
H154 C96 0.930 . S
H155 C97 0.930 . S
H156 C99 0.930 . S
H157 C101 0.929 . S
H158 C102 0.930 . S
H159 C103 0.930 . S
H160 C106 0.930 . S
H161 C109 0.929 . S
H162 C114 0.929 . S
H163 C115 0.930 . S
H164 C122 0.929 . S
H165 C123 0.930 . S
H166 C124 0.930 . S
H167 C125 0.930 . S
H168 C127 0.929 . S
H169 C128 0.930 . S
H170 C129 0.930 . S
H171 C130 0.930 . S
H172 C134 0.929 . S
H173 C136 0.930 . S
H174 C142 0.929 . S
H175 C143 0.930 . S
Li176 N193 1.990 . S
Li176 O236 1.956 . S
Li176 O237 1.970 . S
Li176 O238 1.961 . S
Li177 N201 1.990 . S
Li177 O236 1.970 . S
Li177 O237 1.956 . S
Li177 O239 1.961 . S
Li178 N223 1.990 . S
Li178 O236 1.961 . S
Li178 O238 1.956 . S
Li178 O239 1.970 . S
Li179 N229 1.990 . S
Li179 O237 1.961 . S
Li179 O238 1.970 . S
Li179 O239 1.956 . S
C180 C182 1.348 . S
C180 C183 1.356 . S
C180 O236 1.325 . S
N181 C184 1.314 . S
N181 C185 1.279 . S
C182 C180 1.348 . S
C182 C184 1.353 . S
C182 H240 0.929 . S
C183 C180 1.356 . S
C183 C185 1.358 . S
C183 H241 0.930 . S
C184 N181 1.314 . S
C184 C182 1.353 . S
C184 H242 0.930 . S
C185 N181 1.279 . S
C185 C183 1.358 . S
C185 H243 0.930 . S
C186 C189 1.348 . S
C186 C190 1.356 . S
C186 O237 1.325 . S
C187 N188 1.279 . S
C187 C190 1.358 . S
C187 H244 0.930 . S
N188 C187 1.279 . S
N188 C191 1.314 . S
C189 C186 1.348 . S
C189 C191 1.353 . S
C189 H245 0.929 . S
C190 C186 1.356 . S
C190 C187 1.358 . S
C190 H246 0.930 . S
C191 N188 1.314 . S
C191 C189 1.353 . S
C191 H247 0.930 . S
C192 N193 1.314 . S
C192 C197 1.353 . S
C192 H198 0.930 . S
N193 Li176 1.990 . S
N193 C192 1.314 . S
N193 C195 1.279 . S
C194 C195 1.358 . S
C194 C196 1.356 . S
C194 H248 0.930 . S
C195 N193 1.279 . S
C195 C194 1.358 . S
C195 H199 0.930 . S
C196 C194 1.356 . S
C196 C197 1.348 . S
C197 C192 1.353 . S
C197 C196 1.348 . S
C197 H249 0.929 . S
H198 C192 0.930 . S
H199 C195 0.930 . S
C200 N201 1.314 . S
C200 C202 1.353 . S
C200 H206 0.930 . S
N201 Li177 1.990 . S
N201 C200 1.314 . S
N201 C204 1.279 . S
C202 C200 1.353 . S
C202 C205 1.348 . S
C202 H250 0.929 . S
C203 C204 1.358 . S
C203 C205 1.356 . S
C203 H251 0.930 . S
C204 N201 1.279 . S
C204 C203 1.358 . S
C204 H207 0.930 . S
C205 C202 1.348 . S
C205 C203 1.356 . S
H206 C200 0.930 . S
H207 C204 0.930 . S
C208 C210 1.348 . S
C208 C211 1.356 . S
C208 O238 1.325 . S
N209 C212 1.314 . S
N209 C213 1.279 . S
C210 C208 1.348 . S
C210 C212 1.353 . S
C210 H252 0.929 . S
C211 C208 1.356 . S
C211 C213 1.358 . S
C211 H253 0.930 . S
C212 N209 1.314 . S
C212 C210 1.353 . S
C212 H254 0.930 . S
C213 N209 1.279 . S
C213 C211 1.358 . S
C213 H255 0.930 . S
C214 C215 1.348 . S
C214 C216 1.356 . S
C214 O239 1.325 . S
C215 C214 1.348 . S
C215 C217 1.353 . S
C215 H256 0.929 . S
C216 C214 1.356 . S
C216 C218 1.358 . S
C216 H257 0.930 . S
C217 C215 1.353 . S
C217 N219 1.314 . S
C217 H258 0.930 . S
C218 C216 1.358 . S
C218 N219 1.279 . S
C218 H259 0.930 . S
N219 C217 1.314 . S
N219 C218 1.279 . S
C220 C222 1.353 . S
C220 N223 1.314 . S
C220 H226 0.930 . S
C221 N223 1.279 . S
C221 C224 1.358 . S
C221 H227 0.930 . S
C222 C220 1.353 . S
C222 C225 1.348 . S
C222 H260 0.929 . S
N223 Li178 1.990 . S
N223 C220 1.314 . S
N223 C221 1.279 . S
C224 C221 1.358 . S
C224 C225 1.356 . S
C224 H261 0.930 . S
C225 C222 1.348 . S
C225 C224 1.356 . S
H226 C220 0.930 . S
H227 C221 0.930 . S
C228 N229 1.314 . S
C228 C230 1.353 . S
C228 H234 0.930 . S
N229 Li179 1.990 . S
N229 C228 1.314 . S
N229 C232 1.279 . S
C230 C228 1.353 . S
C230 C233 1.348 . S
C230 H262 0.929 . S
C231 C232 1.358 . S
C231 C233 1.356 . S
C231 H263 0.930 . S
C232 N229 1.279 . S
C232 C231 1.358 . S
C232 H235 0.930 . S
C233 C230 1.348 . S
C233 C231 1.356 . S
H234 C228 0.930 . S
H235 C232 0.930 . S
O236 Li176 1.956 . S
O236 Li177 1.970 . S
O236 Li178 1.961 . S
O236 C180 1.325 . S
O237 Li176 1.970 . S
O237 Li177 1.956 . S
O237 Li179 1.961 . S
O237 C186 1.325 . S
O238 Li176 1.961 . S
O238 Li178 1.956 . S
O238 Li179 1.970 . S
O238 C208 1.325 . S
O239 Li177 1.961 . S
O239 Li178 1.970 . S
O239 Li179 1.956 . S
O239 C214 1.325 . S
H240 C182 0.929 . S
H241 C183 0.930 . S
H242 C184 0.930 . S
H243 C185 0.930 . S
H244 C187 0.930 . S
H245 C189 0.929 . S
H246 C190 0.930 . S
H247 C191 0.930 . S
H248 C194 0.930 . S
H249 C197 0.929 . S
H250 C202 0.929 . S
H251 C203 0.930 . S
H252 C210 0.929 . S
H253 C211 0.930 . S
H254 C212 0.930 . S
H255 C213 0.930 . S
H256 C215 0.929 . S
H257 C216 0.930 . S
H258 C217 0.930 . S
H259 C218 0.930 . S
H260 C222 0.929 . S
H261 C224 0.930 . S
H262 C230 0.929 . S
H263 C231 0.930 . S
Li264 N281 1.990 . S
Li264 O324 1.956 . S
Li264 O325 1.970 . S
Li264 O326 1.961 . S
Li265 N289 1.990 . S
Li265 O324 1.970 . S
Li265 O325 1.956 . S
Li265 O327 1.961 . S
Li266 N311 1.990 . S
Li266 O324 1.961 . S
Li266 O326 1.956 . S
Li266 O327 1.970 . S
Li267 N317 1.990 . S
Li267 O325 1.961 . S
Li267 O326 1.970 . S
Li267 O327 1.956 . S
C268 C270 1.348 . S
C268 C271 1.356 . S
C268 O324 1.325 . S
N269 C272 1.314 . S
N269 C273 1.279 . S
C270 C268 1.348 . S
C270 C272 1.353 . S
C270 H328 0.929 . S
C271 C268 1.356 . S
C271 C273 1.358 . S
C271 H329 0.930 . S
C272 N269 1.314 . S
C272 C270 1.353 . S
C272 H330 0.930 . S
C273 N269 1.279 . S
C273 C271 1.358 . S
C273 H331 0.930 . S
C274 C277 1.348 . S
C274 C278 1.356 . S
C274 O325 1.325 . S
C275 N276 1.279 . S
C275 C278 1.358 . S
C275 H332 0.930 . S
N276 C275 1.279 . S
N276 C279 1.314 . S
C277 C274 1.348 . S
C277 C279 1.353 . S
C277 H333 0.929 . S
C278 C274 1.356 . S
C278 C275 1.358 . S
C278 H334 0.930 . S
C279 N276 1.314 . S
C279 C277 1.353 . S
C279 H335 0.930 . S
C280 N281 1.314 . S
C280 C285 1.353 . S
C280 H286 0.930 . S
N281 Li264 1.990 . S
N281 C280 1.314 . S
N281 C283 1.279 . S
C282 C283 1.358 . S
C282 C284 1.356 . S
C282 H336 0.930 . S
C283 N281 1.279 . S
C283 C282 1.358 . S
C283 H287 0.930 . S
C284 C282 1.356 . S
C284 C285 1.348 . S
C285 C280 1.353 . S
C285 C284 1.348 . S
C285 H337 0.929 . S
H286 C280 0.930 . S
H287 C283 0.930 . S
C288 N289 1.314 . S
C288 C290 1.353 . S
C288 H294 0.930 . S
N289 Li265 1.990 . S
N289 C288 1.314 . S
N289 C292 1.279 . S
C290 C288 1.353 . S
C290 C293 1.348 . S
C290 H338 0.929 . S
C291 C292 1.358 . S
C291 C293 1.356 . S
C291 H339 0.930 . S
C292 N289 1.279 . S
C292 C291 1.358 . S
C292 H295 0.930 . S
C293 C290 1.348 . S
C293 C291 1.356 . S
H294 C288 0.930 . S
H295 C292 0.930 . S
C296 C298 1.348 . S
C296 C299 1.356 . S
C296 O326 1.325 . S
N297 C300 1.314 . S
N297 C301 1.279 . S
C298 C296 1.348 . S
C298 C300 1.353 . S
C298 H340 0.929 . S
C299 C296 1.356 . S
C299 C301 1.358 . S
C299 H341 0.930 . S
C300 N297 1.314 . S
C300 C298 1.353 . S
C300 H342 0.930 . S
C301 N297 1.279 . S
C301 C299 1.358 . S
C301 H343 0.930 . S
C302 C303 1.348 . S
C302 C304 1.356 . S
C302 O327 1.325 . S
C303 C302 1.348 . S
C303 C305 1.353 . S
C303 H344 0.929 . S
C304 C302 1.356 . S
C304 C306 1.358 . S
C304 H345 0.930 . S
C305 C303 1.353 . S
C305 N307 1.314 . S
C305 H346 0.930 . S
C306 C304 1.358 . S
C306 N307 1.279 . S
C306 H347 0.930 . S
N307 C305 1.314 . S
N307 C306 1.279 . S
C308 C310 1.353 . S
C308 N311 1.314 . S
C308 H314 0.930 . S
C309 N311 1.279 . S
C309 C312 1.358 . S
C309 H315 0.930 . S
C310 C308 1.353 . S
C310 C313 1.348 . S
C310 H348 0.929 . S
N311 Li266 1.990 . S
N311 C308 1.314 . S
N311 C309 1.279 . S
C312 C309 1.358 . S
C312 C313 1.356 . S
C312 H349 0.930 . S
C313 C310 1.348 . S
C313 C312 1.356 . S
H314 C308 0.930 . S
H315 C309 0.930 . S
C316 N317 1.314 . S
C316 C318 1.353 . S
C316 H322 0.930 . S
N317 Li267 1.990 . S
N317 C316 1.314 . S
N317 C320 1.279 . S
C318 C316 1.353 . S
C318 C321 1.348 . S
C318 H350 0.929 . S
C319 C320 1.358 . S
C319 C321 1.356 . S
C319 H351 0.930 . S
C320 N317 1.279 . S
C320 C319 1.358 . S
C320 H323 0.930 . S
C321 C318 1.348 . S
C321 C319 1.356 . S
H322 C316 0.930 . S
H323 C320 0.930 . S
O324 Li264 1.956 . S
O324 Li265 1.970 . S
O324 Li266 1.961 . S
O324 C268 1.325 . S
O325 Li264 1.970 . S
O325 Li265 1.956 . S
O325 Li267 1.961 . S
O325 C274 1.325 . S
O326 Li264 1.961 . S
O326 Li266 1.956 . S
O326 Li267 1.970 . S
O326 C296 1.325 . S
O327 Li265 1.961 . S
O327 Li266 1.970 . S
O327 Li267 1.956 . S
O327 C302 1.325 . S
H328 C270 0.929 . S
H329 C271 0.930 . S
H330 C272 0.930 . S
H331 C273 0.930 . S
H332 C275 0.930 . S
H333 C277 0.929 . S
H334 C278 0.930 . S
H335 C279 0.930 . S
H336 C282 0.930 . S
H337 C285 0.929 . S
H338 C290 0.929 . S
H339 C291 0.930 . S
H340 C298 0.929 . S
H341 C299 0.930 . S
H342 C300 0.930 . S
H343 C301 0.930 . S
H344 C303 0.929 . S
H345 C304 0.930 . S
H346 C305 0.930 . S
H347 C306 0.930 . S
H348 C310 0.929 . S
H349 C312 0.930 . S
H350 C318 0.929 . S
H351 C319 0.930 . S
Li352 N369 1.990 . S
Li352 O412 1.956 . S
Li352 O413 1.970 . S
Li352 O414 1.961 . S
Li353 N377 1.990 . S
Li353 O412 1.970 . S
Li353 O413 1.956 . S
Li353 O415 1.961 . S
Li354 N399 1.990 . S
Li354 O412 1.961 . S
Li354 O414 1.956 . S
Li354 O415 1.970 . S
Li355 N405 1.990 . S
Li355 O413 1.961 . S
Li355 O414 1.970 . S
Li355 O415 1.956 . S
C356 C358 1.348 . S
C356 C359 1.356 . S
C356 O412 1.325 . S
N357 C360 1.314 . S
N357 C361 1.279 . S
C358 C356 1.348 . S
C358 C360 1.353 . S
C358 H416 0.929 . S
C359 C356 1.356 . S
C359 C361 1.358 . S
C359 H417 0.930 . S
C360 N357 1.314 . S
C360 C358 1.353 . S
C360 H418 0.930 . S
C361 N357 1.279 . S
C361 C359 1.358 . S
C361 H419 0.930 . S
C362 C365 1.348 . S
C362 C366 1.356 . S
C362 O413 1.325 . S
C363 N364 1.279 . S
C363 C366 1.358 . S
C363 H420 0.930 . S
N364 C363 1.279 . S
N364 C367 1.314 . S
C365 C362 1.348 . S
C365 C367 1.353 . S
C365 H421 0.929 . S
C366 C362 1.356 . S
C366 C363 1.358 . S
C366 H422 0.930 . S
C367 N364 1.314 . S
C367 C365 1.353 . S
C367 H423 0.930 . S
C368 N369 1.314 . S
C368 C373 1.353 . S
C368 H374 0.930 . S
N369 Li352 1.990 . S
N369 C368 1.314 . S
N369 C371 1.279 . S
C370 C371 1.358 . S
C370 C372 1.356 . S
C370 H424 0.930 . S
C371 N369 1.279 . S
C371 C370 1.358 . S
C371 H375 0.930 . S
C372 C370 1.356 . S
C372 C373 1.348 . S
C373 C368 1.353 . S
C373 C372 1.348 . S
C373 H425 0.929 . S
H374 C368 0.930 . S
H375 C371 0.930 . S
C376 N377 1.314 . S
C376 C378 1.353 . S
C376 H382 0.930 . S
N377 Li353 1.990 . S
N377 C376 1.314 . S
N377 C380 1.279 . S
C378 C376 1.353 . S
C378 C381 1.348 . S
C378 H426 0.929 . S
C379 C380 1.358 . S
C379 C381 1.356 . S
C379 H427 0.930 . S
C380 N377 1.279 . S
C380 C379 1.358 . S
C380 H383 0.930 . S
C381 C378 1.348 . S
C381 C379 1.356 . S
H382 C376 0.930 . S
H383 C380 0.930 . S
C384 C386 1.348 . S
C384 C387 1.356 . S
C384 O414 1.325 . S
N385 C388 1.314 . S
N385 C389 1.279 . S
C386 C384 1.348 . S
C386 C388 1.353 . S
C386 H428 0.929 . S
C387 C384 1.356 . S
C387 C389 1.358 . S
C387 H429 0.930 . S
C388 N385 1.314 . S
C388 C386 1.353 . S
C388 H430 0.930 . S
C389 N385 1.279 . S
C389 C387 1.358 . S
C389 H431 0.930 . S
C390 C391 1.348 . S
C390 C392 1.356 . S
C390 O415 1.325 . S
C391 C390 1.348 . S
C391 C393 1.353 . S
C391 H432 0.929 . S
C392 C390 1.356 . S
C392 C394 1.358 . S
C392 H433 0.930 . S
C393 C391 1.353 . S
C393 N395 1.314 . S
C393 H434 0.930 . S
C394 C392 1.358 . S
C394 N395 1.279 . S
C394 H435 0.930 . S
N395 C393 1.314 . S
N395 C394 1.279 . S
C396 C398 1.353 . S
C396 N399 1.314 . S
C396 H402 0.930 . S
C397 N399 1.279 . S
C397 C400 1.358 . S
C397 H403 0.930 . S
C398 C396 1.353 . S
C398 C401 1.348 . S
C398 H436 0.929 . S
N399 Li354 1.990 . S
N399 C396 1.314 . S
N399 C397 1.279 . S
C400 C397 1.358 . S
C400 C401 1.356 . S
C400 H437 0.930 . S
C401 C398 1.348 . S
C401 C400 1.356 . S
H402 C396 0.930 . S
H403 C397 0.930 . S
C404 N405 1.314 . S
C404 C406 1.353 . S
C404 H410 0.930 . S
N405 Li355 1.990 . S
N405 C404 1.314 . S
N405 C408 1.279 . S
C406 C404 1.353 . S
C406 C409 1.348 . S
C406 H438 0.929 . S
C407 C408 1.358 . S
C407 C409 1.356 . S
C407 H439 0.930 . S
C408 N405 1.279 . S
C408 C407 1.358 . S
C408 H411 0.930 . S
C409 C406 1.348 . S
C409 C407 1.356 . S
H410 C404 0.930 . S
H411 C408 0.930 . S
O412 Li352 1.956 . S
O412 Li353 1.970 . S
O412 Li354 1.961 . S
O412 C356 1.325 . S
O413 Li352 1.970 . S
O413 Li353 1.956 . S
O413 Li355 1.961 . S
O413 C362 1.325 . S
O414 Li352 1.961 . S
O414 Li354 1.956 . S
O414 Li355 1.970 . S
O414 C384 1.325 . S
O415 Li353 1.961 . S
O415 Li354 1.970 . S
O415 Li355 1.956 . S
O415 C390 1.325 . S
H416 C358 0.929 . S
H417 C359 0.930 . S
H418 C360 0.930 . S
H419 C361 0.930 . S
H420 C363 0.930 . S
H421 C365 0.929 . S
H422 C366 0.930 . S
H423 C367 0.930 . S
H424 C370 0.930 . S
H425 C373 0.929 . S
H426 C378 0.929 . S
H427 C379 0.930 . S
H428 C386 0.929 . S
H429 C387 0.930 . S
H430 C388 0.930 . S
H431 C389 0.930 . S
H432 C391 0.929 . S
H433 C392 0.930 . S
H434 C393 0.930 . S
H435 C394 0.930 . S
H436 C398 0.929 . S
H437 C400 0.930 . S
H438 C406 0.929 . S
H439 C407 0.930 . S
Li440 N457 1.990 . S
Li440 O500 1.956 . S
Li440 O501 1.970 . S
Li440 O502 1.961 . S
Li441 N465 1.990 . S
Li441 O500 1.970 . S
Li441 O501 1.956 . S
Li441 O503 1.961 . S
Li442 N487 1.990 . S
Li442 O500 1.961 . S
Li442 O502 1.956 . S
Li442 O503 1.970 . S
Li443 N493 1.990 . S
Li443 O501 1.961 . S
Li443 O502 1.970 . S
Li443 O503 1.956 . S
C444 C446 1.348 . S
C444 C447 1.356 . S
C444 O500 1.325 . S
N445 C448 1.314 . S
N445 C449 1.279 . S
C446 C444 1.348 . S
C446 C448 1.353 . S
C446 H504 0.929 . S
C447 C444 1.356 . S
C447 C449 1.358 . S
C447 H505 0.930 . S
C448 N445 1.314 . S
C448 C446 1.353 . S
C448 H506 0.930 . S
C449 N445 1.279 . S
C449 C447 1.358 . S
C449 H507 0.930 . S
C450 C453 1.348 . S
C450 C454 1.356 . S
C450 O501 1.325 . S
C451 N452 1.279 . S
C451 C454 1.358 . S
C451 H508 0.930 . S
N452 C451 1.279 . S
N452 C455 1.314 . S
C453 C450 1.348 . S
C453 C455 1.353 . S
C453 H509 0.929 . S
C454 C450 1.356 . S
C454 C451 1.358 . S
C454 H510 0.930 . S
C455 N452 1.314 . S
C455 C453 1.353 . S
C455 H511 0.930 . S
C456 N457 1.314 . S
C456 C461 1.353 . S
C456 H462 0.930 . S
N457 Li440 1.990 . S
N457 C456 1.314 . S
N457 C459 1.279 . S
C458 C459 1.358 . S
C458 C460 1.356 . S
C458 H512 0.930 . S
C459 N457 1.279 . S
C459 C458 1.358 . S
C459 H463 0.930 . S
C460 C458 1.356 . S
C460 C461 1.348 . S
C461 C456 1.353 . S
C461 C460 1.348 . S
C461 H513 0.929 . S
H462 C456 0.930 . S
H463 C459 0.930 . S
C464 N465 1.314 . S
C464 C466 1.353 . S
C464 H470 0.930 . S
N465 Li441 1.990 . S
N465 C464 1.314 . S
N465 C468 1.279 . S
C466 C464 1.353 . S
C466 C469 1.348 . S
C466 H514 0.929 . S
C467 C468 1.358 . S
C467 C469 1.356 . S
C467 H515 0.930 . S
C468 N465 1.279 . S
C468 C467 1.358 . S
C468 H471 0.930 . S
C469 C466 1.348 . S
C469 C467 1.356 . S
H470 C464 0.930 . S
H471 C468 0.930 . S
C472 C474 1.348 . S
C472 C475 1.356 . S
C472 O502 1.325 . S
N473 C476 1.314 . S
N473 C477 1.279 . S
C474 C472 1.348 . S
C474 C476 1.353 . S
C474 H516 0.929 . S
C475 C472 1.356 . S
C475 C477 1.358 . S
C475 H517 0.930 . S
C476 N473 1.314 . S
C476 C474 1.353 . S
C476 H518 0.930 . S
C477 N473 1.279 . S
C477 C475 1.358 . S
C477 H519 0.930 . S
C478 C479 1.348 . S
C478 C480 1.356 . S
C478 O503 1.325 . S
C479 C478 1.348 . S
C479 C481 1.353 . S
C479 H520 0.929 . S
C480 C478 1.356 . S
C480 C482 1.358 . S
C480 H521 0.930 . S
C481 C479 1.353 . S
C481 N483 1.314 . S
C481 H522 0.930 . S
C482 C480 1.358 . S
C482 N483 1.279 . S
C482 H523 0.930 . S
N483 C481 1.314 . S
N483 C482 1.279 . S
C484 C486 1.353 . S
C484 N487 1.314 . S
C484 H490 0.930 . S
C485 N487 1.279 . S
C485 C488 1.358 . S
C485 H491 0.930 . S
C486 C484 1.353 . S
C486 C489 1.348 . S
C486 H524 0.929 . S
N487 Li442 1.990 . S
N487 C484 1.314 . S
N487 C485 1.279 . S
C488 C485 1.358 . S
C488 C489 1.356 . S
C488 H525 0.930 . S
C489 C486 1.348 . S
C489 C488 1.356 . S
H490 C484 0.930 . S
H491 C485 0.930 . S
C492 N493 1.314 . S
C492 C494 1.353 . S
C492 H498 0.930 . S
N493 Li443 1.990 . S
N493 C492 1.314 . S
N493 C496 1.279 . S
C494 C492 1.353 . S
C494 C497 1.348 . S
C494 H526 0.929 . S
C495 C496 1.358 . S
C495 C497 1.356 . S
C495 H527 0.930 . S
C496 N493 1.279 . S
C496 C495 1.358 . S
C496 H499 0.930 . S
C497 C494 1.348 . S
C497 C495 1.356 . S
H498 C492 0.930 . S
H499 C496 0.930 . S
O500 Li440 1.956 . S
O500 Li441 1.970 . S
O500 Li442 1.961 . S
O500 C444 1.325 . S
O501 Li440 1.970 . S
O501 Li441 1.956 . S
O501 Li443 1.961 . S
O501 C450 1.325 . S
O502 Li440 1.961 . S
O502 Li442 1.956 . S
O502 Li443 1.970 . S
O502 C472 1.325 . S
O503 Li441 1.961 . S
O503 Li442 1.970 . S
O503 Li443 1.956 . S
O503 C478 1.325 . S
H504 C446 0.929 . S
H505 C447 0.930 . S
H506 C448 0.930 . S
H507 C449 0.930 . S
H508 C451 0.930 . S
H509 C453 0.929 . S
H510 C454 0.930 . S
H511 C455 0.930 . S
H512 C458 0.930 . S
H513 C461 0.929 . S
H514 C466 0.929 . S
H515 C467 0.930 . S
H516 C474 0.929 . S
H517 C475 0.930 . S
H518 C476 0.930 . S
H519 C477 0.930 . S
H520 C479 0.929 . S
H521 C480 0.930 . S
H522 C481 0.930 . S
H523 C482 0.930 . S
H524 C486 0.929 . S
H525 C488 0.930 . S
H526 C494 0.929 . S
H527 C495 0.930 . S
Li528 N545 1.990 . S
Li528 O588 1.956 . S
Li528 O589 1.970 . S
Li528 O590 1.961 . S
Li529 N553 1.990 . S
Li529 O588 1.970 . S
Li529 O589 1.956 . S
Li529 O591 1.961 . S
Li530 N575 1.990 . S
Li530 O588 1.961 . S
Li530 O590 1.956 . S
Li530 O591 1.970 . S
Li531 N581 1.990 . S
Li531 O589 1.961 . S
Li531 O590 1.970 . S
Li531 O591 1.956 . S
C532 C534 1.348 . S
C532 C535 1.356 . S
C532 O588 1.325 . S
N533 C536 1.314 . S
N533 C537 1.279 . S
C534 C532 1.348 . S
C534 C536 1.353 . S
C534 H592 0.929 . S
C535 C532 1.356 . S
C535 C537 1.358 . S
C535 H593 0.930 . S
C536 N533 1.314 . S
C536 C534 1.353 . S
C536 H594 0.930 . S
C537 N533 1.279 . S
C537 C535 1.358 . S
C537 H595 0.930 . S
C538 C541 1.348 . S
C538 C542 1.356 . S
C538 O589 1.325 . S
C539 N540 1.279 . S
C539 C542 1.358 . S
C539 H596 0.930 . S
N540 C539 1.279 . S
N540 C543 1.314 . S
C541 C538 1.348 . S
C541 C543 1.353 . S
C541 H597 0.929 . S
C542 C538 1.356 . S
C542 C539 1.358 . S
C542 H598 0.930 . S
C543 N540 1.314 . S
C543 C541 1.353 . S
C543 H599 0.930 . S
C544 N545 1.314 . S
C544 C549 1.353 . S
C544 H550 0.930 . S
N545 Li528 1.990 . S
N545 C544 1.314 . S
N545 C547 1.279 . S
C546 C547 1.358 . S
C546 C548 1.356 . S
C546 H600 0.930 . S
C547 N545 1.279 . S
C547 C546 1.358 . S
C547 H551 0.930 . S
C548 C546 1.356 . S
C548 C549 1.348 . S
C549 C544 1.353 . S
C549 C548 1.348 . S
C549 H601 0.929 . S
H550 C544 0.930 . S
H551 C547 0.930 . S
C552 N553 1.314 . S
C552 C554 1.353 . S
C552 H558 0.930 . S
N553 Li529 1.990 . S
N553 C552 1.314 . S
N553 C556 1.279 . S
C554 C552 1.353 . S
C554 C557 1.348 . S
C554 H602 0.929 . S
C555 C556 1.358 . S
C555 C557 1.356 . S
C555 H603 0.930 . S
C556 N553 1.279 . S
C556 C555 1.358 . S
C556 H559 0.930 . S
C557 C554 1.348 . S
C557 C555 1.356 . S
H558 C552 0.930 . S
H559 C556 0.930 . S
C560 C562 1.348 . S
C560 C563 1.356 . S
C560 O590 1.325 . S
N561 C564 1.314 . S
N561 C565 1.279 . S
C562 C560 1.348 . S
C562 C564 1.353 . S
C562 H604 0.929 . S
C563 C560 1.356 . S
C563 C565 1.358 . S
C563 H605 0.930 . S
C564 N561 1.314 . S
C564 C562 1.353 . S
C564 H606 0.930 . S
C565 N561 1.279 . S
C565 C563 1.358 . S
C565 H607 0.930 . S
C566 C567 1.348 . S
C566 C568 1.356 . S
C566 O591 1.325 . S
C567 C566 1.348 . S
C567 C569 1.353 . S
C567 H608 0.929 . S
C568 C566 1.356 . S
C568 C570 1.358 . S
C568 H609 0.930 . S
C569 C567 1.353 . S
C569 N571 1.314 . S
C569 H610 0.930 . S
C570 C568 1.358 . S
C570 N571 1.279 . S
C570 H611 0.930 . S
N571 C569 1.314 . S
N571 C570 1.279 . S
C572 C574 1.353 . S
C572 N575 1.314 . S
C572 H578 0.930 . S
C573 N575 1.279 . S
C573 C576 1.358 . S
C573 H579 0.930 . S
C574 C572 1.353 . S
C574 C577 1.348 . S
C574 H612 0.929 . S
N575 Li530 1.990 . S
N575 C572 1.314 . S
N575 C573 1.279 . S
C576 C573 1.358 . S
C576 C577 1.356 . S
C576 H613 0.930 . S
C577 C574 1.348 . S
C577 C576 1.356 . S
H578 C572 0.930 . S
H579 C573 0.930 . S
C580 N581 1.314 . S
C580 C582 1.353 . S
C580 H586 0.930 . S
N581 Li531 1.990 . S
N581 C580 1.314 . S
N581 C584 1.279 . S
C582 C580 1.353 . S
C582 C585 1.348 . S
C582 H614 0.929 . S
C583 C584 1.358 . S
C583 C585 1.356 . S
C583 H615 0.930 . S
C584 N581 1.279 . S
C584 C583 1.358 . S
C584 H587 0.930 . S
C585 C582 1.348 . S
C585 C583 1.356 . S
H586 C580 0.930 . S
H587 C584 0.930 . S
O588 Li528 1.956 . S
O588 Li529 1.970 . S
O588 Li530 1.961 . S
O588 C532 1.325 . S
O589 Li528 1.970 . S
O589 Li529 1.956 . S
O589 Li531 1.961 . S
O589 C538 1.325 . S
O590 Li528 1.961 . S
O590 Li530 1.956 . S
O590 Li531 1.970 . S
O590 C560 1.325 . S
O591 Li529 1.961 . S
O591 Li530 1.970 . S
O591 Li531 1.956 . S
O591 C566 1.325 . S
H592 C534 0.929 . S
H593 C535 0.930 . S
H594 C536 0.930 . S
H595 C537 0.930 . S
H596 C539 0.930 . S
H597 C541 0.929 . S
H598 C542 0.930 . S
H599 C543 0.930 . S
H600 C546 0.930 . S
H601 C549 0.929 . S
H602 C554 0.929 . S
H603 C555 0.930 . S
H604 C562 0.929 . S
H605 C563 0.930 . S
H606 C564 0.930 . S
H607 C565 0.930 . S
H608 C567 0.929 . S
H609 C568 0.930 . S
H610 C569 0.930 . S
H611 C570 0.930 . S
H612 C574 0.929 . S
H613 C576 0.930 . S
H614 C582 0.929 . S
H615 C583 0.930 . S
Li616 N633 1.990 . S
Li616 O676 1.956 . S
Li616 O677 1.970 . S
Li616 O678 1.961 . S
Li617 N641 1.990 . S
Li617 O676 1.970 . S
Li617 O677 1.956 . S
Li617 O679 1.961 . S
Li618 N663 1.990 . S
Li618 O676 1.961 . S
Li618 O678 1.956 . S
Li618 O679 1.970 . S
Li619 N669 1.990 . S
Li619 O677 1.961 . S
Li619 O678 1.970 . S
Li619 O679 1.956 . S
C620 C622 1.348 . S
C620 C623 1.356 . S
C620 O676 1.325 . S
N621 C624 1.314 . S
N621 C625 1.279 . S
C622 C620 1.348 . S
C622 C624 1.353 . S
C622 H680 0.929 . S
C623 C620 1.356 . S
C623 C625 1.358 . S
C623 H681 0.930 . S
C624 N621 1.314 . S
C624 C622 1.353 . S
C624 H682 0.930 . S
C625 N621 1.279 . S
C625 C623 1.358 . S
C625 H683 0.930 . S
C626 C629 1.348 . S
C626 C630 1.356 . S
C626 O677 1.325 . S
C627 N628 1.279 . S
C627 C630 1.358 . S
C627 H684 0.930 . S
N628 C627 1.279 . S
N628 C631 1.314 . S
C629 C626 1.348 . S
C629 C631 1.353 . S
C629 H685 0.929 . S
C630 C626 1.356 . S
C630 C627 1.358 . S
C630 H686 0.930 . S
C631 N628 1.314 . S
C631 C629 1.353 . S
C631 H687 0.930 . S
C632 N633 1.314 . S
C632 C637 1.353 . S
C632 H638 0.930 . S
N633 Li616 1.990 . S
N633 C632 1.314 . S
N633 C635 1.279 . S
C634 C635 1.358 . S
C634 C636 1.356 . S
C634 H688 0.930 . S
C635 N633 1.279 . S
C635 C634 1.358 . S
C635 H639 0.930 . S
C636 C634 1.356 . S
C636 C637 1.348 . S
C637 C632 1.353 . S
C637 C636 1.348 . S
C637 H689 0.929 . S
H638 C632 0.930 . S
H639 C635 0.930 . S
C640 N641 1.314 . S
C640 C642 1.353 . S
C640 H646 0.930 . S
N641 Li617 1.990 . S
N641 C640 1.314 . S
N641 C644 1.279 . S
C642 C640 1.353 . S
C642 C645 1.348 . S
C642 H690 0.929 . S
C643 C644 1.358 . S
C643 C645 1.356 . S
C643 H691 0.930 . S
C644 N641 1.279 . S
C644 C643 1.358 . S
C644 H647 0.930 . S
C645 C642 1.348 . S
C645 C643 1.356 . S
H646 C640 0.930 . S
H647 C644 0.930 . S
C648 C650 1.348 . S
C648 C651 1.356 . S
C648 O678 1.325 . S
N649 C652 1.314 . S
N649 C653 1.279 . S
C650 C648 1.348 . S
C650 C652 1.353 . S
C650 H692 0.929 . S
C651 C648 1.356 . S
C651 C653 1.358 . S
C651 H693 0.930 . S
C652 N649 1.314 . S
C652 C650 1.353 . S
C652 H694 0.930 . S
C653 N649 1.279 . S
C653 C651 1.358 . S
C653 H695 0.930 . S
C654 C655 1.348 . S
C654 C656 1.356 . S
C654 O679 1.325 . S
C655 C654 1.348 . S
C655 C657 1.353 . S
C655 H696 0.929 . S
C656 C654 1.356 . S
C656 C658 1.358 . S
C656 H697 0.930 . S
C657 C655 1.353 . S
C657 N659 1.314 . S
C657 H698 0.930 . S
C658 C656 1.358 . S
C658 N659 1.279 . S
C658 H699 0.930 . S
N659 C657 1.314 . S
N659 C658 1.279 . S
C660 C662 1.353 . S
C660 N663 1.314 . S
C660 H666 0.930 . S
C661 N663 1.279 . S
C661 C664 1.358 . S
C661 H667 0.930 . S
C662 C660 1.353 . S
C662 C665 1.348 . S
C662 H700 0.929 . S
N663 Li618 1.990 . S
N663 C660 1.314 . S
N663 C661 1.279 . S
C664 C661 1.358 . S
C664 C665 1.356 . S
C664 H701 0.930 . S
C665 C662 1.348 . S
C665 C664 1.356 . S
H666 C660 0.930 . S
H667 C661 0.930 . S
C668 N669 1.314 . S
C668 C670 1.353 . S
C668 H674 0.930 . S
N669 Li619 1.990 . S
N669 C668 1.314 . S
N669 C672 1.279 . S
C670 C668 1.353 . S
C670 C673 1.348 . S
C670 H702 0.929 . S
C671 C672 1.358 . S
C671 C673 1.356 . S
C671 H703 0.930 . S
C672 N669 1.279 . S
C672 C671 1.358 . S
C672 H675 0.930 . S
C673 C670 1.348 . S
C673 C671 1.356 . S
H674 C668 0.930 . S
H675 C672 0.930 . S
O676 Li616 1.956 . S
O676 Li617 1.970 . S
O676 Li618 1.961 . S
O676 C620 1.325 . S
O677 Li616 1.970 . S
O677 Li617 1.956 . S
O677 Li619 1.961 . S
O677 C626 1.325 . S
O678 Li616 1.961 . S
O678 Li618 1.956 . S
O678 Li619 1.970 . S
O678 C648 1.325 . S
O679 Li617 1.961 . S
O679 Li618 1.970 . S
O679 Li619 1.956 . S
O679 C654 1.325 . S
H680 C622 0.929 . S
H681 C623 0.930 . S
H682 C624 0.930 . S
H683 C625 0.930 . S
H684 C627 0.930 . S
H685 C629 0.929 . S
H686 C630 0.930 . S
H687 C631 0.930 . S
H688 C634 0.930 . S
H689 C637 0.929 . S
H690 C642 0.929 . S
H691 C643 0.930 . S
H692 C650 0.929 . S
H693 C651 0.930 . S
H694 C652 0.930 . S
H695 C653 0.930 . S
H696 C655 0.929 . S
H697 C656 0.930 . S
H698 C657 0.930 . S
H699 C658 0.930 . S
H700 C662 0.929 . S
H701 C664 0.930 . S
H702 C670 0.929 . S
H703 C671 0.930 . S
Li704 N721 1.990 . S
Li704 O764 1.956 . S
Li704 O765 1.970 . S
Li704 O766 1.961 . S
Li705 N729 1.990 . S
Li705 O764 1.970 . S
Li705 O765 1.956 . S
Li705 O767 1.961 . S
Li706 N751 1.990 . S
Li706 O764 1.961 . S
Li706 O766 1.956 . S
Li706 O767 1.970 . S
Li707 N757 1.990 . S
Li707 O765 1.961 . S
Li707 O766 1.970 . S
Li707 O767 1.956 . S
C708 C710 1.348 . S
C708 C711 1.356 . S
C708 O764 1.325 . S
N709 C712 1.314 . S
N709 C713 1.279 . S
C710 C708 1.348 . S
C710 C712 1.353 . S
C710 H768 0.929 . S
C711 C708 1.356 . S
C711 C713 1.358 . S
C711 H769 0.930 . S
C712 N709 1.314 . S
C712 C710 1.353 . S
C712 H770 0.930 . S
C713 N709 1.279 . S
C713 C711 1.358 . S
C713 H771 0.930 . S
C714 C717 1.348 . S
C714 C718 1.356 . S
C714 O765 1.325 . S
C715 N716 1.279 . S
C715 C718 1.358 . S
C715 H772 0.930 . S
N716 C715 1.279 . S
N716 C719 1.314 . S
C717 C714 1.348 . S
C717 C719 1.353 . S
C717 H773 0.929 . S
C718 C714 1.356 . S
C718 C715 1.358 . S
C718 H774 0.930 . S
C719 N716 1.314 . S
C719 C717 1.353 . S
C719 H775 0.930 . S
C720 N721 1.314 . S
C720 C725 1.353 . S
C720 H726 0.930 . S
N721 Li704 1.990 . S
N721 C720 1.314 . S
N721 C723 1.279 . S
C722 C723 1.358 . S
C722 C724 1.356 . S
C722 H776 0.930 . S
C723 N721 1.279 . S
C723 C722 1.358 . S
C723 H727 0.930 . S
C724 C722 1.356 . S
C724 C725 1.348 . S
C725 C720 1.353 . S
C725 C724 1.348 . S
C725 H777 0.929 . S
H726 C720 0.930 . S
H727 C723 0.930 . S
C728 N729 1.314 . S
C728 C730 1.353 . S
C728 H734 0.930 . S
N729 Li705 1.990 . S
N729 C728 1.314 . S
N729 C732 1.279 . S
C730 C728 1.353 . S
C730 C733 1.348 . S
C730 H778 0.929 . S
C731 C732 1.358 . S
C731 C733 1.356 . S
C731 H779 0.930 . S
C732 N729 1.279 . S
C732 C731 1.358 . S
C732 H735 0.930 . S
C733 C730 1.348 . S
C733 C731 1.356 . S
H734 C728 0.930 . S
H735 C732 0.930 . S
C736 C738 1.348 . S
C736 C739 1.356 . S
C736 O766 1.325 . S
N737 C740 1.314 . S
N737 C741 1.279 . S
C738 C736 1.348 . S
C738 C740 1.353 . S
C738 H780 0.929 . S
C739 C736 1.356 . S
C739 C741 1.358 . S
C739 H781 0.930 . S
C740 N737 1.314 . S
C740 C738 1.353 . S
C740 H782 0.930 . S
C741 N737 1.279 . S
C741 C739 1.358 . S
C741 H783 0.930 . S
C742 C743 1.348 . S
C742 C744 1.356 . S
C742 O767 1.325 . S
C743 C742 1.348 . S
C743 C745 1.353 . S
C743 H784 0.929 . S
C744 C742 1.356 . S
C744 C746 1.358 . S
C744 H785 0.930 . S
C745 C743 1.353 . S
C745 N747 1.314 . S
C745 H786 0.930 . S
C746 C744 1.358 . S
C746 N747 1.279 . S
C746 H787 0.930 . S
N747 C745 1.314 . S
N747 C746 1.279 . S
C748 C750 1.353 . S
C748 N751 1.314 . S
C748 H754 0.930 . S
C749 N751 1.279 . S
C749 C752 1.358 . S
C749 H755 0.930 . S
C750 C748 1.353 . S
C750 C753 1.348 . S
C750 H788 0.929 . S
N751 Li706 1.990 . S
N751 C748 1.314 . S
N751 C749 1.279 . S
C752 C749 1.358 . S
C752 C753 1.356 . S
C752 H789 0.930 . S
C753 C750 1.348 . S
C753 C752 1.356 . S
H754 C748 0.930 . S
H755 C749 0.930 . S
C756 N757 1.314 . S
C756 C758 1.353 . S
C756 H762 0.930 . S
N757 Li707 1.990 . S
N757 C756 1.314 . S
N757 C760 1.279 . S
C758 C756 1.353 . S
C758 C761 1.348 . S
C758 H790 0.929 . S
C759 C760 1.358 . S
C759 C761 1.356 . S
C759 H791 0.930 . S
C760 N757 1.279 . S
C760 C759 1.358 . S
C760 H763 0.930 . S
C761 C758 1.348 . S
C761 C759 1.356 . S
H762 C756 0.930 . S
H763 C760 0.930 . S
O764 Li704 1.956 . S
O764 Li705 1.970 . S
O764 Li706 1.961 . S
O764 C708 1.325 . S
O765 Li704 1.970 . S
O765 Li705 1.956 . S
O765 Li707 1.961 . S
O765 C714 1.325 . S
O766 Li704 1.961 . S
O766 Li706 1.956 . S
O766 Li707 1.970 . S
O766 C736 1.325 . S
O767 Li705 1.961 . S
O767 Li706 1.970 . S
O767 Li707 1.956 . S
O767 C742 1.325 . S
H768 C710 0.929 . S
H769 C711 0.930 . S
H770 C712 0.930 . S
H771 C713 0.930 . S
H772 C715 0.930 . S
H773 C717 0.929 . S
H774 C718 0.930 . S
H775 C719 0.930 . S
H776 C722 0.930 . S
H777 C725 0.929 . S
H778 C730 0.929 . S
H779 C731 0.930 . S
H780 C738 0.929 . S
H781 C739 0.930 . S
H782 C740 0.930 . S
H783 C741 0.930 . S
H784 C743 0.929 . S
H785 C744 0.930 . S
H786 C745 0.930 . S
H787 C746 0.930 . S
H788 C750 0.929 . S
H789 C752 0.930 . S
H790 C758 0.929 . S
H791 C759 0.930 . S
Li792 N809 1.990 . S
Li792 O852 1.956 . S
Li792 O853 1.970 . S
Li792 O854 1.961 . S
Li793 N817 1.990 . S
Li793 O852 1.970 . S
Li793 O853 1.956 . S
Li793 O855 1.961 . S
Li794 N839 1.990 . S
Li794 O852 1.961 . S
Li794 O854 1.956 . S
Li794 O855 1.970 . S
Li795 N845 1.990 . S
Li795 O853 1.961 . S
Li795 O854 1.970 . S
Li795 O855 1.956 . S
C796 C798 1.348 . S
C796 C799 1.356 . S
C796 O852 1.325 . S
N797 C800 1.314 . S
N797 C801 1.279 . S
C798 C796 1.348 . S
C798 C800 1.353 . S
C798 H856 0.929 . S
C799 C796 1.356 . S
C799 C801 1.358 . S
C799 H857 0.930 . S
C800 N797 1.314 . S
C800 C798 1.353 . S
C800 H858 0.930 . S
C801 N797 1.279 . S
C801 C799 1.358 . S
C801 H859 0.930 . S
C802 C805 1.348 . S
C802 C806 1.356 . S
C802 O853 1.325 . S
C803 N804 1.279 . S
C803 C806 1.358 . S
C803 H860 0.930 . S
N804 C803 1.279 . S
N804 C807 1.314 . S
C805 C802 1.348 . S
C805 C807 1.353 . S
C805 H861 0.929 . S
C806 C802 1.356 . S
C806 C803 1.358 . S
C806 H862 0.930 . S
C807 N804 1.314 . S
C807 C805 1.353 . S
C807 H863 0.930 . S
C808 N809 1.314 . S
C808 C813 1.353 . S
C808 H814 0.930 . S
N809 Li792 1.990 . S
N809 C808 1.314 . S
N809 C811 1.279 . S
C810 C811 1.358 . S
C810 C812 1.356 . S
C810 H864 0.930 . S
C811 N809 1.279 . S
C811 C810 1.358 . S
C811 H815 0.930 . S
C812 C810 1.356 . S
C812 C813 1.348 . S
C813 C808 1.353 . S
C813 C812 1.348 . S
C813 H865 0.929 . S
H814 C808 0.930 . S
H815 C811 0.930 . S
C816 N817 1.314 . S
C816 C818 1.353 . S
C816 H822 0.930 . S
N817 Li793 1.990 . S
N817 C816 1.314 . S
N817 C820 1.279 . S
C818 C816 1.353 . S
C818 C821 1.348 . S
C818 H866 0.929 . S
C819 C820 1.358 . S
C819 C821 1.356 . S
C819 H867 0.930 . S
C820 N817 1.279 . S
C820 C819 1.358 . S
C820 H823 0.930 . S
C821 C818 1.348 . S
C821 C819 1.356 . S
H822 C816 0.930 . S
H823 C820 0.930 . S
C824 C826 1.348 . S
C824 C827 1.356 . S
C824 O854 1.325 . S
N825 C828 1.314 . S
N825 C829 1.279 . S
C826 C824 1.348 . S
C826 C828 1.353 . S
C826 H868 0.929 . S
C827 C824 1.356 . S
C827 C829 1.358 . S
C827 H869 0.930 . S
C828 N825 1.314 . S
C828 C826 1.353 . S
C828 H870 0.930 . S
C829 N825 1.279 . S
C829 C827 1.358 . S
C829 H871 0.930 . S
C830 C831 1.348 . S
C830 C832 1.356 . S
C830 O855 1.325 . S
C831 C830 1.348 . S
C831 C833 1.353 . S
C831 H872 0.929 . S
C832 C830 1.356 . S
C832 C834 1.358 . S
C832 H873 0.930 . S
C833 C831 1.353 . S
C833 N835 1.314 . S
C833 H874 0.930 . S
C834 C832 1.358 . S
C834 N835 1.279 . S
C834 H875 0.930 . S
N835 C833 1.314 . S
N835 C834 1.279 . S
C836 C838 1.353 . S
C836 N839 1.314 . S
C836 H842 0.930 . S
C837 N839 1.279 . S
C837 C840 1.358 . S
C837 H843 0.930 . S
C838 C836 1.353 . S
C838 C841 1.348 . S
C838 H876 0.929 . S
N839 Li794 1.990 . S
N839 C836 1.314 . S
N839 C837 1.279 . S
C840 C837 1.358 . S
C840 C841 1.356 . S
C840 H877 0.930 . S
C841 C838 1.348 . S
C841 C840 1.356 . S
H842 C836 0.930 . S
H843 C837 0.930 . S
C844 N845 1.314 . S
C844 C846 1.353 . S
C844 H850 0.930 . S
N845 Li795 1.990 . S
N845 C844 1.314 . S
N845 C848 1.279 . S
C846 C844 1.353 . S
C846 C849 1.348 . S
C846 H878 0.929 . S
C847 C848 1.358 . S
C847 C849 1.356 . S
C847 H879 0.930 . S
C848 N845 1.279 . S
C848 C847 1.358 . S
C848 H851 0.930 . S
C849 C846 1.348 . S
C849 C847 1.356 . S
H850 C844 0.930 . S
H851 C848 0.930 . S
O852 Li792 1.956 . S
O852 Li793 1.970 . S
O852 Li794 1.961 . S
O852 C796 1.325 . S
O853 Li792 1.970 . S
O853 Li793 1.956 . S
O853 Li795 1.961 . S
O853 C802 1.325 . S
O854 Li792 1.961 . S
O854 Li794 1.956 . S
O854 Li795 1.970 . S
O854 C824 1.325 . S
O855 Li793 1.961 . S
O855 Li794 1.970 . S
O855 Li795 1.956 . S
O855 C830 1.325 . S
H856 C798 0.929 . S
H857 C799 0.930 . S
H858 C800 0.930 . S
H859 C801 0.930 . S
H860 C803 0.930 . S
H861 C805 0.929 . S
H862 C806 0.930 . S
H863 C807 0.930 . S
H864 C810 0.930 . S
H865 C813 0.929 . S
H866 C818 0.929 . S
H867 C819 0.930 . S
H868 C826 0.929 . S
H869 C827 0.930 . S
H870 C828 0.930 . S
H871 C829 0.930 . S
H872 C831 0.929 . S
H873 C832 0.930 . S
H874 C833 0.930 . S
H875 C834 0.930 . S
H876 C838 0.929 . S
H877 C840 0.930 . S
H878 C846 0.929 . S
H879 C847 0.930 . S
Li880 N897 1.990 . S
Li880 O940 1.956 . S
Li880 O941 1.970 . S
Li880 O942 1.961 . S
Li881 N905 1.990 . S
Li881 O940 1.970 . S
Li881 O941 1.956 . S
Li881 O943 1.961 . S
Li882 N927 1.990 . S
Li882 O940 1.961 . S
Li882 O942 1.956 . S
Li882 O943 1.970 . S
Li883 N933 1.990 . S
Li883 O941 1.961 . S
Li883 O942 1.970 . S
Li883 O943 1.956 . S
C884 C886 1.348 . S
C884 C887 1.356 . S
C884 O940 1.325 . S
N885 C888 1.314 . S
N885 C889 1.279 . S
C886 C884 1.348 . S
C886 C888 1.353 . S
C886 H944 0.929 . S
C887 C884 1.356 . S
C887 C889 1.358 . S
C887 H945 0.930 . S
C888 N885 1.314 . S
C888 C886 1.353 . S
C888 H946 0.930 . S
C889 N885 1.279 . S
C889 C887 1.358 . S
C889 H947 0.930 . S
C890 C893 1.348 . S
C890 C894 1.356 . S
C890 O941 1.325 . S
C891 N892 1.279 . S
C891 C894 1.358 . S
C891 H948 0.930 . S
N892 C891 1.279 . S
N892 C895 1.314 . S
C893 C890 1.348 . S
C893 C895 1.353 . S
C893 H949 0.929 . S
C894 C890 1.356 . S
C894 C891 1.358 . S
C894 H950 0.930 . S
C895 N892 1.314 . S
C895 C893 1.353 . S
C895 H951 0.930 . S
C896 N897 1.314 . S
C896 C901 1.353 . S
C896 H902 0.930 . S
N897 Li880 1.990 . S
N897 C896 1.314 . S
N897 C899 1.279 . S
C898 C899 1.358 . S
C898 C900 1.356 . S
C898 H952 0.930 . S
C899 N897 1.279 . S
C899 C898 1.358 . S
C899 H903 0.930 . S
C900 C898 1.356 . S
C900 C901 1.348 . S
C901 C896 1.353 . S
C901 C900 1.348 . S
C901 H953 0.929 . S
H902 C896 0.930 . S
H903 C899 0.930 . S
C904 N905 1.314 . S
C904 C906 1.353 . S
C904 H910 0.930 . S
N905 Li881 1.990 . S
N905 C904 1.314 . S
N905 C908 1.279 . S
C906 C904 1.353 . S
C906 C909 1.348 . S
C906 H954 0.929 . S
C907 C908 1.358 . S
C907 C909 1.356 . S
C907 H955 0.930 . S
C908 N905 1.279 . S
C908 C907 1.358 . S
C908 H911 0.930 . S
C909 C906 1.348 . S
C909 C907 1.356 . S
H910 C904 0.930 . S
H911 C908 0.930 . S
C912 C914 1.348 . S
C912 C915 1.356 . S
C912 O942 1.325 . S
N913 C916 1.314 . S
N913 C917 1.279 . S
C914 C912 1.348 . S
C914 C916 1.353 . S
C914 H956 0.929 . S
C915 C912 1.356 . S
C915 C917 1.358 . S
C915 H957 0.930 . S
C916 N913 1.314 . S
C916 C914 1.353 . S
C916 H958 0.930 . S
C917 N913 1.279 . S
C917 C915 1.358 . S
C917 H959 0.930 . S
C918 C919 1.348 . S
C918 C920 1.356 . S
C918 O943 1.325 . S
C919 C918 1.348 . S
C919 C921 1.353 . S
C919 H960 0.929 . S
C920 C918 1.356 . S
C920 C922 1.358 . S
C920 H961 0.930 . S
C921 C919 1.353 . S
C921 N923 1.314 . S
C921 H962 0.930 . S
C922 C920 1.358 . S
C922 N923 1.279 . S
C922 H963 0.930 . S
N923 C921 1.314 . S
N923 C922 1.279 . S
C924 C926 1.353 . S
C924 N927 1.314 . S
C924 H930 0.930 . S
C925 N927 1.279 . S
C925 C928 1.358 . S
C925 H931 0.930 . S
C926 C924 1.353 . S
C926 C929 1.348 . S
C926 H964 0.929 . S
N927 Li882 1.990 . S
N927 C924 1.314 . S
N927 C925 1.279 . S
C928 C925 1.358 . S
C928 C929 1.356 . S
C928 H965 0.930 . S
C929 C926 1.348 . S
C929 C928 1.356 . S
H930 C924 0.930 . S
H931 C925 0.930 . S
C932 N933 1.314 . S
C932 C934 1.353 . S
C932 H938 0.930 . S
N933 Li883 1.990 . S
N933 C932 1.314 . S
N933 C936 1.279 . S
C934 C932 1.353 . S
C934 C937 1.348 . S
C934 H966 0.929 . S
C935 C936 1.358 . S
C935 C937 1.356 . S
C935 H967 0.930 . S
C936 N933 1.279 . S
C936 C935 1.358 . S
C936 H939 0.930 . S
C937 C934 1.348 . S
C937 C935 1.356 . S
H938 C932 0.930 . S
H939 C936 0.930 . S
O940 Li880 1.956 . S
O940 Li881 1.970 . S
O940 Li882 1.961 . S
O940 C884 1.325 . S
O941 Li880 1.970 . S
O941 Li881 1.956 . S
O941 Li883 1.961 . S
O941 C890 1.325 . S
O942 Li880 1.961 . S
O942 Li882 1.956 . S
O942 Li883 1.970 . S
O942 C912 1.325 . S
O943 Li881 1.961 . S
O943 Li882 1.970 . S
O943 Li883 1.956 . S
O943 C918 1.325 . S
H944 C886 0.929 . S
H945 C887 0.930 . S
H946 C888 0.930 . S
H947 C889 0.930 . S
H948 C891 0.930 . S
H949 C893 0.929 . S
H950 C894 0.930 . S
H951 C895 0.930 . S
H952 C898 0.930 . S
H953 C901 0.929 . S
H954 C906 0.929 . S
H955 C907 0.930 . S
H956 C914 0.929 . S
H957 C915 0.930 . S
H958 C916 0.930 . S
H959 C917 0.930 . S
H960 C919 0.929 . S
H961 C920 0.930 . S
H962 C921 0.930 . S
H963 C922 0.930 . S
H964 C926 0.929 . S
H965 C928 0.930 . S
H966 C934 0.929 . S
H967 C935 0.930 . S
Li968 N985 1.990 . S
Li968 O1028 1.956 . S
Li968 O1029 1.970 . S
Li968 O1030 1.961 . S
Li969 N993 1.990 . S
Li969 O1028 1.970 . S
Li969 O1029 1.956 . S
Li969 O1031 1.961 . S
Li970 N1015 1.990 . S
Li970 O1028 1.961 . S
Li970 O1030 1.956 . S
Li970 O1031 1.970 . S
Li971 N1021 1.990 . S
Li971 O1029 1.961 . S
Li971 O1030 1.970 . S
Li971 O1031 1.956 . S
C972 C974 1.348 . S
C972 C975 1.356 . S
C972 O1028 1.325 . S
N973 C976 1.314 . S
N973 C977 1.279 . S
C974 C972 1.348 . S
C974 C976 1.353 . S
C974 H1032 0.929 . S
C975 C972 1.356 . S
C975 C977 1.358 . S
C975 H1033 0.930 . S
C976 N973 1.314 . S
C976 C974 1.353 . S
C976 H1034 0.930 . S
C977 N973 1.279 . S
C977 C975 1.358 . S
C977 H1035 0.930 . S
C978 C981 1.348 . S
C978 C982 1.356 . S
C978 O1029 1.325 . S
C979 N980 1.279 . S
C979 C982 1.358 . S
C979 H1036 0.930 . S
N980 C979 1.279 . S
N980 C983 1.314 . S
C981 C978 1.348 . S
C981 C983 1.353 . S
C981 H1037 0.929 . S
C982 C978 1.356 . S
C982 C979 1.358 . S
C982 H1038 0.930 . S
C983 N980 1.314 . S
C983 C981 1.353 . S
C983 H1039 0.930 . S
C984 N985 1.314 . S
C984 C989 1.353 . S
C984 H990 0.930 . S
N985 Li968 1.990 . S
N985 C984 1.314 . S
N985 C987 1.279 . S
C986 C987 1.358 . S
C986 C988 1.356 . S
C986 H1040 0.930 . S
C987 N985 1.279 . S
C987 C986 1.358 . S
C987 H991 0.930 . S
C988 C986 1.356 . S
C988 C989 1.348 . S
C989 C984 1.353 . S
C989 C988 1.348 . S
C989 H1041 0.929 . S
H990 C984 0.930 . S
H991 C987 0.930 . S
C992 N993 1.314 . S
C992 C994 1.353 . S
C992 H998 0.930 . S
N993 Li969 1.990 . S
N993 C992 1.314 . S
N993 C996 1.279 . S
C994 C992 1.353 . S
C994 C997 1.348 . S
C994 H1042 0.929 . S
C995 C996 1.358 . S
C995 C997 1.356 . S
C995 H1043 0.930 . S
C996 N993 1.279 . S
C996 C995 1.358 . S
C996 H999 0.930 . S
C997 C994 1.348 . S
C997 C995 1.356 . S
H998 C992 0.930 . S
H999 C996 0.930 . S
C1000 C1002 1.348 . S
C1000 C1003 1.356 . S
C1000 O1030 1.325 . S
N1001 C1004 1.314 . S
N1001 C1005 1.279 . S
C1002 C1000 1.348 . S
C1002 C1004 1.353 . S
C1002 H1044 0.929 . S
C1003 C1000 1.356 . S
C1003 C1005 1.358 . S
C1003 H1045 0.930 . S
C1004 N1001 1.314 . S
C1004 C1002 1.353 . S
C1004 H1046 0.930 . S
C1005 N1001 1.279 . S
C1005 C1003 1.358 . S
C1005 H1047 0.930 . S
C1006 C1007 1.348 . S
C1006 C1008 1.356 . S
C1006 O1031 1.325 . S
C1007 C1006 1.348 . S
C1007 C1009 1.353 . S
C1007 H1048 0.929 . S
C1008 C1006 1.356 . S
C1008 C1010 1.358 . S
C1008 H1049 0.930 . S
C1009 C1007 1.353 . S
C1009 N1011 1.314 . S
C1009 H1050 0.930 . S
C1010 C1008 1.358 . S
C1010 N1011 1.279 . S
C1010 H1051 0.930 . S
N1011 C1009 1.314 . S
N1011 C1010 1.279 . S
C1012 C1014 1.353 . S
C1012 N1015 1.314 . S
C1012 H1018 0.930 . S
C1013 N1015 1.279 . S
C1013 C1016 1.358 . S
C1013 H1019 0.930 . S
C1014 C1012 1.353 . S
C1014 C1017 1.348 . S
C1014 H1052 0.929 . S
N1015 Li970 1.990 . S
N1015 C1012 1.314 . S
N1015 C1013 1.279 . S
C1016 C1013 1.358 . S
C1016 C1017 1.356 . S
C1016 H1053 0.930 . S
C1017 C1014 1.348 . S
C1017 C1016 1.356 . S
H1018 C1012 0.930 . S
H1019 C1013 0.930 . S
C1020 N1021 1.314 . S
C1020 C1022 1.353 . S
C1020 H1026 0.930 . S
N1021 Li971 1.990 . S
N1021 C1020 1.314 . S
N1021 C1024 1.279 . S
C1022 C1020 1.353 . S
C1022 C1025 1.348 . S
C1022 H1054 0.929 . S
C1023 C1024 1.358 . S
C1023 C1025 1.356 . S
C1023 H1055 0.930 . S
C1024 N1021 1.279 . S
C1024 C1023 1.358 . S
C1024 H1027 0.930 . S
C1025 C1022 1.348 . S
C1025 C1023 1.356 . S
H1026 C1020 0.930 . S
H1027 C1024 0.930 . S
O1028 Li968 1.956 . S
O1028 Li969 1.970 . S
O1028 Li970 1.961 . S
O1028 C972 1.325 . S
O1029 Li968 1.970 . S
O1029 Li969 1.956 . S
O1029 Li971 1.961 . S
O1029 C978 1.325 . S
O1030 Li968 1.961 . S
O1030 Li970 1.956 . S
O1030 Li971 1.970 . S
O1030 C1000 1.325 . S
O1031 Li969 1.961 . S
O1031 Li970 1.970 . S
O1031 Li971 1.956 . S
O1031 C1006 1.325 . S
H1032 C974 0.929 . S
H1033 C975 0.930 . S
H1034 C976 0.930 . S
H1035 C977 0.930 . S
H1036 C979 0.930 . S
H1037 C981 0.929 . S
H1038 C982 0.930 . S
H1039 C983 0.930 . S
H1040 C986 0.930 . S
H1041 C989 0.929 . S
H1042 C994 0.929 . S
H1043 C995 0.930 . S
H1044 C1002 0.929 . S
H1045 C1003 0.930 . S
H1046 C1004 0.930 . S
H1047 C1005 0.930 . S
H1048 C1007 0.929 . S
H1049 C1008 0.930 . S
H1050 C1009 0.930 . S
H1051 C1010 0.930 . S
H1052 C1014 0.929 . S
H1053 C1016 0.930 . S
H1054 C1022 0.929 . S
H1055 C1023 0.930 . S
Li1056 N1073 1.990 . S
Li1056 O1116 1.956 . S
Li1056 O1117 1.970 . S
Li1056 O1118 1.961 . S
Li1057 N1081 1.990 . S
Li1057 O1116 1.970 . S
Li1057 O1117 1.956 . S
Li1057 O1119 1.961 . S
Li1058 N1103 1.990 . S
Li1058 O1116 1.961 . S
Li1058 O1118 1.956 . S
Li1058 O1119 1.970 . S
Li1059 N1109 1.990 . S
Li1059 O1117 1.961 . S
Li1059 O1118 1.970 . S
Li1059 O1119 1.956 . S
C1060 C1062 1.348 . S
C1060 C1063 1.356 . S
C1060 O1116 1.325 . S
N1061 C1064 1.314 . S
N1061 C1065 1.279 . S
C1062 C1060 1.348 . S
C1062 C1064 1.353 . S
C1062 H1120 0.929 . S
C1063 C1060 1.356 . S
C1063 C1065 1.358 . S
C1063 H1121 0.930 . S
C1064 N1061 1.314 . S
C1064 C1062 1.353 . S
C1064 H1122 0.930 . S
C1065 N1061 1.279 . S
C1065 C1063 1.358 . S
C1065 H1123 0.930 . S
C1066 C1069 1.348 . S
C1066 C1070 1.356 . S
C1066 O1117 1.325 . S
C1067 N1068 1.279 . S
C1067 C1070 1.358 . S
C1067 H1124 0.930 . S
N1068 C1067 1.279 . S
N1068 C1071 1.314 . S
C1069 C1066 1.348 . S
C1069 C1071 1.353 . S
C1069 H1125 0.929 . S
C1070 C1066 1.356 . S
C1070 C1067 1.358 . S
C1070 H1126 0.930 . S
C1071 N1068 1.314 . S
C1071 C1069 1.353 . S
C1071 H1127 0.930 . S
C1072 N1073 1.314 . S
C1072 C1077 1.353 . S
C1072 H1078 0.930 . S
N1073 Li1056 1.990 . S
N1073 C1072 1.314 . S
N1073 C1075 1.279 . S
C1074 C1075 1.358 . S
C1074 C1076 1.356 . S
C1074 H1128 0.930 . S
C1075 N1073 1.279 . S
C1075 C1074 1.358 . S
C1075 H1079 0.930 . S
C1076 C1074 1.356 . S
C1076 C1077 1.348 . S
C1077 C1072 1.353 . S
C1077 C1076 1.348 . S
C1077 H1129 0.929 . S
H1078 C1072 0.930 . S
H1079 C1075 0.930 . S
C1080 N1081 1.314 . S
C1080 C1082 1.353 . S
C1080 H1086 0.930 . S
N1081 Li1057 1.990 . S
N1081 C1080 1.314 . S
N1081 C1084 1.279 . S
C1082 C1080 1.353 . S
C1082 C1085 1.348 . S
C1082 H1130 0.929 . S
C1083 C1084 1.358 . S
C1083 C1085 1.356 . S
C1083 H1131 0.930 . S
C1084 N1081 1.279 . S
C1084 C1083 1.358 . S
C1084 H1087 0.930 . S
C1085 C1082 1.348 . S
C1085 C1083 1.356 . S
H1086 C1080 0.930 . S
H1087 C1084 0.930 . S
C1088 C1090 1.348 . S
C1088 C1091 1.356 . S
C1088 O1118 1.325 . S
N1089 C1092 1.314 . S
N1089 C1093 1.279 . S
C1090 C1088 1.348 . S
C1090 C1092 1.353 . S
C1090 H1132 0.929 . S
C1091 C1088 1.356 . S
C1091 C1093 1.358 . S
C1091 H1133 0.930 . S
C1092 N1089 1.314 . S
C1092 C1090 1.353 . S
C1092 H1134 0.930 . S
C1093 N1089 1.279 . S
C1093 C1091 1.358 . S
C1093 H1135 0.930 . S
C1094 C1095 1.348 . S
C1094 C1096 1.356 . S
C1094 O1119 1.325 . S
C1095 C1094 1.348 . S
C1095 C1097 1.353 . S
C1095 H1136 0.929 . S
C1096 C1094 1.356 . S
C1096 C1098 1.358 . S
C1096 H1137 0.930 . S
C1097 C1095 1.353 . S
C1097 N1099 1.314 . S
C1097 H1138 0.930 . S
C1098 C1096 1.358 . S
C1098 N1099 1.279 . S
C1098 H1139 0.930 . S
N1099 C1097 1.314 . S
N1099 C1098 1.279 . S
C1100 C1102 1.353 . S
C1100 N1103 1.314 . S
C1100 H1106 0.930 . S
C1101 N1103 1.279 . S
C1101 C1104 1.358 . S
C1101 H1107 0.930 . S
C1102 C1100 1.353 . S
C1102 C1105 1.348 . S
C1102 H1140 0.929 . S
N1103 Li1058 1.990 . S
N1103 C1100 1.314 . S
N1103 C1101 1.279 . S
C1104 C1101 1.358 . S
C1104 C1105 1.356 . S
C1104 H1141 0.930 . S
C1105 C1102 1.348 . S
C1105 C1104 1.356 . S
H1106 C1100 0.930 . S
H1107 C1101 0.930 . S
C1108 N1109 1.314 . S
C1108 C1110 1.353 . S
C1108 H1114 0.930 . S
N1109 Li1059 1.990 . S
N1109 C1108 1.314 . S
N1109 C1112 1.279 . S
C1110 C1108 1.353 . S
C1110 C1113 1.348 . S
C1110 H1142 0.929 . S
C1111 C1112 1.358 . S
C1111 C1113 1.356 . S
C1111 H1143 0.930 . S
C1112 N1109 1.279 . S
C1112 C1111 1.358 . S
C1112 H1115 0.930 . S
C1113 C1110 1.348 . S
C1113 C1111 1.356 . S
H1114 C1108 0.930 . S
H1115 C1112 0.930 . S
O1116 Li1056 1.956 . S
O1116 Li1057 1.970 . S
O1116 Li1058 1.961 . S
O1116 C1060 1.325 . S
O1117 Li1056 1.970 . S
O1117 Li1057 1.956 . S
O1117 Li1059 1.961 . S
O1117 C1066 1.325 . S
O1118 Li1056 1.961 . S
O1118 Li1058 1.956 . S
O1118 Li1059 1.970 . S
O1118 C1088 1.325 . S
O1119 Li1057 1.961 . S
O1119 Li1058 1.970 . S
O1119 Li1059 1.956 . S
O1119 C1094 1.325 . S
H1120 C1062 0.929 . S
H1121 C1063 0.930 . S
H1122 C1064 0.930 . S
H1123 C1065 0.930 . S
H1124 C1067 0.930 . S
H1125 C1069 0.929 . S
H1126 C1070 0.930 . S
H1127 C1071 0.930 . S
H1128 C1074 0.930 . S
H1129 C1077 0.929 . S
H1130 C1082 0.929 . S
H1131 C1083 0.930 . S
H1132 C1090 0.929 . S
H1133 C1091 0.930 . S
H1134 C1092 0.930 . S
H1135 C1093 0.930 . S
H1136 C1095 0.929 . S
H1137 C1096 0.930 . S
H1138 C1097 0.930 . S
H1139 C1098 0.930 . S
H1140 C1102 0.929 . S
H1141 C1104 0.930 . S
H1142 C1110 0.929 . S
H1143 C1111 0.930 . S
Li1144 N1161 1.990 . S
Li1144 O1204 1.956 . S
Li1144 O1205 1.970 . S
Li1144 O1206 1.961 . S
Li1145 N1169 1.990 . S
Li1145 O1204 1.970 . S
Li1145 O1205 1.956 . S
Li1145 O1207 1.961 . S
Li1146 N1191 1.990 . S
Li1146 O1204 1.961 . S
Li1146 O1206 1.956 . S
Li1146 O1207 1.970 . S
Li1147 N1197 1.990 . S
Li1147 O1205 1.961 . S
Li1147 O1206 1.970 . S
Li1147 O1207 1.956 . S
C1148 C1150 1.348 . S
C1148 C1151 1.356 . S
C1148 O1204 1.325 . S
N1149 C1152 1.314 . S
N1149 C1153 1.279 . S
C1150 C1148 1.348 . S
C1150 C1152 1.353 . S
C1150 H1208 0.929 . S
C1151 C1148 1.356 . S
C1151 C1153 1.358 . S
C1151 H1209 0.930 . S
C1152 N1149 1.314 . S
C1152 C1150 1.353 . S
C1152 H1210 0.930 . S
C1153 N1149 1.279 . S
C1153 C1151 1.358 . S
C1153 H1211 0.930 . S
C1154 C1157 1.348 . S
C1154 C1158 1.356 . S
C1154 O1205 1.325 . S
C1155 N1156 1.279 . S
C1155 C1158 1.358 . S
C1155 H1212 0.930 . S
N1156 C1155 1.279 . S
N1156 C1159 1.314 . S
C1157 C1154 1.348 . S
C1157 C1159 1.353 . S
C1157 H1213 0.929 . S
C1158 C1154 1.356 . S
C1158 C1155 1.358 . S
C1158 H1214 0.930 . S
C1159 N1156 1.314 . S
C1159 C1157 1.353 . S
C1159 H1215 0.930 . S
C1160 N1161 1.314 . S
C1160 C1165 1.353 . S
C1160 H1166 0.930 . S
N1161 Li1144 1.990 . S
N1161 C1160 1.314 . S
N1161 C1163 1.279 . S
C1162 C1163 1.358 . S
C1162 C1164 1.356 . S
C1162 H1216 0.930 . S
C1163 N1161 1.279 . S
C1163 C1162 1.358 . S
C1163 H1167 0.930 . S
C1164 C1162 1.356 . S
C1164 C1165 1.348 . S
C1165 C1160 1.353 . S
C1165 C1164 1.348 . S
C1165 H1217 0.929 . S
H1166 C1160 0.930 . S
H1167 C1163 0.930 . S
C1168 N1169 1.314 . S
C1168 C1170 1.353 . S
C1168 H1174 0.930 . S
N1169 Li1145 1.990 . S
N1169 C1168 1.314 . S
N1169 C1172 1.279 . S
C1170 C1168 1.353 . S
C1170 C1173 1.348 . S
C1170 H1218 0.929 . S
C1171 C1172 1.358 . S
C1171 C1173 1.356 . S
C1171 H1219 0.930 . S
C1172 N1169 1.279 . S
C1172 C1171 1.358 . S
C1172 H1175 0.930 . S
C1173 C1170 1.348 . S
C1173 C1171 1.356 . S
H1174 C1168 0.930 . S
H1175 C1172 0.930 . S
C1176 C1178 1.348 . S
C1176 C1179 1.356 . S
C1176 O1206 1.325 . S
N1177 C1180 1.314 . S
N1177 C1181 1.279 . S
C1178 C1176 1.348 . S
C1178 C1180 1.353 . S
C1178 H1220 0.929 . S
C1179 C1176 1.356 . S
C1179 C1181 1.358 . S
C1179 H1221 0.930 . S
C1180 N1177 1.314 . S
C1180 C1178 1.353 . S
C1180 H1222 0.930 . S
C1181 N1177 1.279 . S
C1181 C1179 1.358 . S
C1181 H1223 0.930 . S
C1182 C1183 1.348 . S
C1182 C1184 1.356 . S
C1182 O1207 1.325 . S
C1183 C1182 1.348 . S
C1183 C1185 1.353 . S
C1183 H1224 0.929 . S
C1184 C1182 1.356 . S
C1184 C1186 1.358 . S
C1184 H1225 0.930 . S
C1185 C1183 1.353 . S
C1185 N1187 1.314 . S
C1185 H1226 0.930 . S
C1186 C1184 1.358 . S
C1186 N1187 1.279 . S
C1186 H1227 0.930 . S
N1187 C1185 1.314 . S
N1187 C1186 1.279 . S
C1188 C1190 1.353 . S
C1188 N1191 1.314 . S
C1188 H1194 0.930 . S
C1189 N1191 1.279 . S
C1189 C1192 1.358 . S
C1189 H1195 0.930 . S
C1190 C1188 1.353 . S
C1190 C1193 1.348 . S
C1190 H1228 0.929 . S
N1191 Li1146 1.990 . S
N1191 C1188 1.314 . S
N1191 C1189 1.279 . S
C1192 C1189 1.358 . S
C1192 C1193 1.356 . S
C1192 H1229 0.930 . S
C1193 C1190 1.348 . S
C1193 C1192 1.356 . S
H1194 C1188 0.930 . S
H1195 C1189 0.930 . S
C1196 N1197 1.314 . S
C1196 C1198 1.353 . S
C1196 H1202 0.930 . S
N1197 Li1147 1.990 . S
N1197 C1196 1.314 . S
N1197 C1200 1.279 . S
C1198 C1196 1.353 . S
C1198 C1201 1.348 . S
C1198 H1230 0.929 . S
C1199 C1200 1.358 . S
C1199 C1201 1.356 . S
C1199 H1231 0.930 . S
C1200 N1197 1.279 . S
C1200 C1199 1.358 . S
C1200 H1203 0.930 . S
C1201 C1198 1.348 . S
C1201 C1199 1.356 . S
H1202 C1196 0.930 . S
H1203 C1200 0.930 . S
O1204 Li1144 1.956 . S
O1204 Li1145 1.970 . S
O1204 Li1146 1.961 . S
O1204 C1148 1.325 . S
O1205 Li1144 1.970 . S
O1205 Li1145 1.956 . S
O1205 Li1147 1.961 . S
O1205 C1154 1.325 . S
O1206 Li1144 1.961 . S
O1206 Li1146 1.956 . S
O1206 Li1147 1.970 . S
O1206 C1176 1.325 . S
O1207 Li1145 1.961 . S
O1207 Li1146 1.970 . S
O1207 Li1147 1.956 . S
O1207 C1182 1.325 . S
H1208 C1150 0.929 . S
H1209 C1151 0.930 . S
H1210 C1152 0.930 . S
H1211 C1153 0.930 . S
H1212 C1155 0.930 . S
H1213 C1157 0.929 . S
H1214 C1158 0.930 . S
H1215 C1159 0.930 . S
H1216 C1162 0.930 . S
H1217 C1165 0.929 . S
H1218 C1170 0.929 . S
H1219 C1171 0.930 . S
H1220 C1178 0.929 . S
H1221 C1179 0.930 . S
H1222 C1180 0.930 . S
H1223 C1181 0.930 . S
H1224 C1183 0.929 . S
H1225 C1184 0.930 . S
H1226 C1185 0.930 . S
H1227 C1186 0.930 . S
H1228 C1190 0.929 . S
H1229 C1192 0.930 . S
H1230 C1198 0.929 . S
H1231 C1199 0.930 . S
Li1232 N1249 1.990 . S
Li1232 O1292 1.956 . S
Li1232 O1293 1.970 . S
Li1232 O1294 1.961 . S
Li1233 N1257 1.990 . S
Li1233 O1292 1.970 . S
Li1233 O1293 1.956 . S
Li1233 O1295 1.961 . S
Li1234 N1279 1.990 . S
Li1234 O1292 1.961 . S
Li1234 O1294 1.956 . S
Li1234 O1295 1.970 . S
Li1235 N1285 1.990 . S
Li1235 O1293 1.961 . S
Li1235 O1294 1.970 . S
Li1235 O1295 1.956 . S
C1236 C1238 1.348 . S
C1236 C1239 1.356 . S
C1236 O1292 1.325 . S
N1237 C1240 1.314 . S
N1237 C1241 1.279 . S
C1238 C1236 1.348 . S
C1238 C1240 1.353 . S
C1238 H1296 0.929 . S
C1239 C1236 1.356 . S
C1239 C1241 1.358 . S
C1239 H1297 0.930 . S
C1240 N1237 1.314 . S
C1240 C1238 1.353 . S
C1240 H1298 0.930 . S
C1241 N1237 1.279 . S
C1241 C1239 1.358 . S
C1241 H1299 0.930 . S
C1242 C1245 1.348 . S
C1242 C1246 1.356 . S
C1242 O1293 1.325 . S
C1243 N1244 1.279 . S
C1243 C1246 1.358 . S
C1243 H1300 0.930 . S
N1244 C1243 1.279 . S
N1244 C1247 1.314 . S
C1245 C1242 1.348 . S
C1245 C1247 1.353 . S
C1245 H1301 0.929 . S
C1246 C1242 1.356 . S
C1246 C1243 1.358 . S
C1246 H1302 0.930 . S
C1247 N1244 1.314 . S
C1247 C1245 1.353 . S
C1247 H1303 0.930 . S
C1248 N1249 1.314 . S
C1248 C1253 1.353 . S
C1248 H1254 0.930 . S
N1249 Li1232 1.990 . S
N1249 C1248 1.314 . S
N1249 C1251 1.279 . S
C1250 C1251 1.358 . S
C1250 C1252 1.356 . S
C1250 H1304 0.930 . S
C1251 N1249 1.279 . S
C1251 C1250 1.358 . S
C1251 H1255 0.930 . S
C1252 C1250 1.356 . S
C1252 C1253 1.348 . S
C1253 C1248 1.353 . S
C1253 C1252 1.348 . S
C1253 H1305 0.929 . S
H1254 C1248 0.930 . S
H1255 C1251 0.930 . S
C1256 N1257 1.314 . S
C1256 C1258 1.353 . S
C1256 H1262 0.930 . S
N1257 Li1233 1.990 . S
N1257 C1256 1.314 . S
N1257 C1260 1.279 . S
C1258 C1256 1.353 . S
C1258 C1261 1.348 . S
C1258 H1306 0.929 . S
C1259 C1260 1.358 . S
C1259 C1261 1.356 . S
C1259 H1307 0.930 . S
C1260 N1257 1.279 . S
C1260 C1259 1.358 . S
C1260 H1263 0.930 . S
C1261 C1258 1.348 . S
C1261 C1259 1.356 . S
H1262 C1256 0.930 . S
H1263 C1260 0.930 . S
C1264 C1266 1.348 . S
C1264 C1267 1.356 . S
C1264 O1294 1.325 . S
N1265 C1268 1.314 . S
N1265 C1269 1.279 . S
C1266 C1264 1.348 . S
C1266 C1268 1.353 . S
C1266 H1308 0.929 . S
C1267 C1264 1.356 . S
C1267 C1269 1.358 . S
C1267 H1309 0.930 . S
C1268 N1265 1.314 . S
C1268 C1266 1.353 . S
C1268 H1310 0.930 . S
C1269 N1265 1.279 . S
C1269 C1267 1.358 . S
C1269 H1311 0.930 . S
C1270 C1271 1.348 . S
C1270 C1272 1.356 . S
C1270 O1295 1.325 . S
C1271 C1270 1.348 . S
C1271 C1273 1.353 . S
C1271 H1312 0.929 . S
C1272 C1270 1.356 . S
C1272 C1274 1.358 . S
C1272 H1313 0.930 . S
C1273 C1271 1.353 . S
C1273 N1275 1.314 . S
C1273 H1314 0.930 . S
C1274 C1272 1.358 . S
C1274 N1275 1.279 . S
C1274 H1315 0.930 . S
N1275 C1273 1.314 . S
N1275 C1274 1.279 . S
C1276 C1278 1.353 . S
C1276 N1279 1.314 . S
C1276 H1282 0.930 . S
C1277 N1279 1.279 . S
C1277 C1280 1.358 . S
C1277 H1283 0.930 . S
C1278 C1276 1.353 . S
C1278 C1281 1.348 . S
C1278 H1316 0.929 . S
N1279 Li1234 1.990 . S
N1279 C1276 1.314 . S
N1279 C1277 1.279 . S
C1280 C1277 1.358 . S
C1280 C1281 1.356 . S
C1280 H1317 0.930 . S
C1281 C1278 1.348 . S
C1281 C1280 1.356 . S
H1282 C1276 0.930 . S
H1283 C1277 0.930 . S
C1284 N1285 1.314 . S
C1284 C1286 1.353 . S
C1284 H1290 0.930 . S
N1285 Li1235 1.990 . S
N1285 C1284 1.314 . S
N1285 C1288 1.279 . S
C1286 C1284 1.353 . S
C1286 C1289 1.348 . S
C1286 H1318 0.929 . S
C1287 C1288 1.358 . S
C1287 C1289 1.356 . S
C1287 H1319 0.930 . S
C1288 N1285 1.279 . S
C1288 C1287 1.358 . S
C1288 H1291 0.930 . S
C1289 C1286 1.348 . S
C1289 C1287 1.356 . S
H1290 C1284 0.930 . S
H1291 C1288 0.930 . S
O1292 Li1232 1.956 . S
O1292 Li1233 1.970 . S
O1292 Li1234 1.961 . S
O1292 C1236 1.325 . S
O1293 Li1232 1.970 . S
O1293 Li1233 1.956 . S
O1293 Li1235 1.961 . S
O1293 C1242 1.325 . S
O1294 Li1232 1.961 . S
O1294 Li1234 1.956 . S
O1294 Li1235 1.970 . S
O1294 C1264 1.325 . S
O1295 Li1233 1.961 . S
O1295 Li1234 1.970 . S
O1295 Li1235 1.956 . S
O1295 C1270 1.325 . S
H1296 C1238 0.929 . S
H1297 C1239 0.930 . S
H1298 C1240 0.930 . S
H1299 C1241 0.930 . S
H1300 C1243 0.930 . S
H1301 C1245 0.929 . S
H1302 C1246 0.930 . S
H1303 C1247 0.930 . S
H1304 C1250 0.930 . S
H1305 C1253 0.929 . S
H1306 C1258 0.929 . S
H1307 C1259 0.930 . S
H1308 C1266 0.929 . S
H1309 C1267 0.930 . S
H1310 C1268 0.930 . S
H1311 C1269 0.930 . S
H1312 C1271 0.929 . S
H1313 C1272 0.930 . S
H1314 C1273 0.930 . S
H1315 C1274 0.930 . S
H1316 C1278 0.929 . S
H1317 C1280 0.930 . S
H1318 C1286 0.929 . S
H1319 C1287 0.930 . S
Li1320 N1337 1.990 . S
Li1320 O1380 1.956 . S
Li1320 O1381 1.970 . S
Li1320 O1382 1.961 . S
Li1321 N1345 1.990 . S
Li1321 O1380 1.970 . S
Li1321 O1381 1.956 . S
Li1321 O1383 1.961 . S
Li1322 N1367 1.990 . S
Li1322 O1380 1.961 . S
Li1322 O1382 1.956 . S
Li1322 O1383 1.970 . S
Li1323 N1373 1.990 . S
Li1323 O1381 1.961 . S
Li1323 O1382 1.970 . S
Li1323 O1383 1.956 . S
C1324 C1326 1.348 . S
C1324 C1327 1.356 . S
C1324 O1380 1.325 . S
N1325 C1328 1.314 . S
N1325 C1329 1.279 . S
C1326 C1324 1.348 . S
C1326 C1328 1.353 . S
C1326 H1384 0.929 . S
C1327 C1324 1.356 . S
C1327 C1329 1.358 . S
C1327 H1385 0.930 . S
C1328 N1325 1.314 . S
C1328 C1326 1.353 . S
C1328 H1386 0.930 . S
C1329 N1325 1.279 . S
C1329 C1327 1.358 . S
C1329 H1387 0.930 . S
C1330 C1333 1.348 . S
C1330 C1334 1.356 . S
C1330 O1381 1.325 . S
C1331 N1332 1.279 . S
C1331 C1334 1.358 . S
C1331 H1388 0.930 . S
N1332 C1331 1.279 . S
N1332 C1335 1.314 . S
C1333 C1330 1.348 . S
C1333 C1335 1.353 . S
C1333 H1389 0.929 . S
C1334 C1330 1.356 . S
C1334 C1331 1.358 . S
C1334 H1390 0.930 . S
C1335 N1332 1.314 . S
C1335 C1333 1.353 . S
C1335 H1391 0.930 . S
C1336 N1337 1.314 . S
C1336 C1341 1.353 . S
C1336 H1342 0.930 . S
N1337 Li1320 1.990 . S
N1337 C1336 1.314 . S
N1337 C1339 1.279 . S
C1338 C1339 1.358 . S
C1338 C1340 1.356 . S
C1338 H1392 0.930 . S
C1339 N1337 1.279 . S
C1339 C1338 1.358 . S
C1339 H1343 0.930 . S
C1340 C1338 1.356 . S
C1340 C1341 1.348 . S
C1341 C1336 1.353 . S
C1341 C1340 1.348 . S
C1341 H1393 0.929 . S
H1342 C1336 0.930 . S
H1343 C1339 0.930 . S
C1344 N1345 1.314 . S
C1344 C1346 1.353 . S
C1344 H1350 0.930 . S
N1345 Li1321 1.990 . S
N1345 C1344 1.314 . S
N1345 C1348 1.279 . S
C1346 C1344 1.353 . S
C1346 C1349 1.348 . S
C1346 H1394 0.929 . S
C1347 C1348 1.358 . S
C1347 C1349 1.356 . S
C1347 H1395 0.930 . S
C1348 N1345 1.279 . S
C1348 C1347 1.358 . S
C1348 H1351 0.930 . S
C1349 C1346 1.348 . S
C1349 C1347 1.356 . S
H1350 C1344 0.930 . S
H1351 C1348 0.930 . S
C1352 C1354 1.348 . S
C1352 C1355 1.356 . S
C1352 O1382 1.325 . S
N1353 C1356 1.314 . S
N1353 C1357 1.279 . S
C1354 C1352 1.348 . S
C1354 C1356 1.353 . S
C1354 H1396 0.929 . S
C1355 C1352 1.356 . S
C1355 C1357 1.358 . S
C1355 H1397 0.930 . S
C1356 N1353 1.314 . S
C1356 C1354 1.353 . S
C1356 H1398 0.930 . S
C1357 N1353 1.279 . S
C1357 C1355 1.358 . S
C1357 H1399 0.930 . S
C1358 C1359 1.348 . S
C1358 C1360 1.356 . S
C1358 O1383 1.325 . S
C1359 C1358 1.348 . S
C1359 C1361 1.353 . S
C1359 H1400 0.929 . S
C1360 C1358 1.356 . S
C1360 C1362 1.358 . S
C1360 H1401 0.930 . S
C1361 C1359 1.353 . S
C1361 N1363 1.314 . S
C1361 H1402 0.930 . S
C1362 C1360 1.358 . S
C1362 N1363 1.279 . S
C1362 H1403 0.930 . S
N1363 C1361 1.314 . S
N1363 C1362 1.279 . S
C1364 C1366 1.353 . S
C1364 N1367 1.314 . S
C1364 H1370 0.930 . S
C1365 N1367 1.279 . S
C1365 C1368 1.358 . S
C1365 H1371 0.930 . S
C1366 C1364 1.353 . S
C1366 C1369 1.348 . S
C1366 H1404 0.929 . S
N1367 Li1322 1.990 . S
N1367 C1364 1.314 . S
N1367 C1365 1.279 . S
C1368 C1365 1.358 . S
C1368 C1369 1.356 . S
C1368 H1405 0.930 . S
C1369 C1366 1.348 . S
C1369 C1368 1.356 . S
H1370 C1364 0.930 . S
H1371 C1365 0.930 . S
C1372 N1373 1.314 . S
C1372 C1374 1.353 . S
C1372 H1378 0.930 . S
N1373 Li1323 1.990 . S
N1373 C1372 1.314 . S
N1373 C1376 1.279 . S
C1374 C1372 1.353 . S
C1374 C1377 1.348 . S
C1374 H1406 0.929 . S
C1375 C1376 1.358 . S
C1375 C1377 1.356 . S
C1375 H1407 0.930 . S
C1376 N1373 1.279 . S
C1376 C1375 1.358 . S
C1376 H1379 0.930 . S
C1377 C1374 1.348 . S
C1377 C1375 1.356 . S
H1378 C1372 0.930 . S
H1379 C1376 0.930 . S
O1380 Li1320 1.956 . S
O1380 Li1321 1.970 . S
O1380 Li1322 1.961 . S
O1380 C1324 1.325 . S
O1381 Li1320 1.970 . S
O1381 Li1321 1.956 . S
O1381 Li1323 1.961 . S
O1381 C1330 1.325 . S
O1382 Li1320 1.961 . S
O1382 Li1322 1.956 . S
O1382 Li1323 1.970 . S
O1382 C1352 1.325 . S
O1383 Li1321 1.961 . S
O1383 Li1322 1.970 . S
O1383 Li1323 1.956 . S
O1383 C1358 1.325 . S
H1384 C1326 0.929 . S
H1385 C1327 0.930 . S
H1386 C1328 0.930 . S
H1387 C1329 0.930 . S
H1388 C1331 0.930 . S
H1389 C1333 0.929 . S
H1390 C1334 0.930 . S
H1391 C1335 0.930 . S
H1392 C1338 0.930 . S
H1393 C1341 0.929 . S
H1394 C1346 0.929 . S
H1395 C1347 0.930 . S
H1396 C1354 0.929 . S
H1397 C1355 0.930 . S
H1398 C1356 0.930 . S
H1399 C1357 0.930 . S
H1400 C1359 0.929 . S
H1401 C1360 0.930 . S
H1402 C1361 0.930 . S
H1403 C1362 0.930 . S
H1404 C1366 0.929 . S
H1405 C1368 0.930 . S
H1406 C1374 0.929 . S
H1407 C1375 0.930 . S
H1408 C1420 0.930 . S
H1409 C1422 0.930 . S
H1410 C1423 0.930 . S
H1411 C1427 0.959 . S
H1412 C1427 0.959 . S
H1413 C1427 0.961 . S
H1414 C1428 0.960 . S
H1415 C1428 0.961 . S
H1416 C1428 0.959 . S
H1417 C1431 0.929 . S
H1418 C1432 0.931 . S
H1419 C1434 0.930 . S
C1420 H1408 0.930 . S
C1420 C1421 1.399 . S
C1420 C1425 1.399 . S
C1421 C1420 1.399 . S
C1421 C1422 1.376 . S
C1422 H1409 0.930 . S
C1422 C1421 1.376 . S
C1422 C1423 1.388 . S
C1423 H1410 0.930 . S
C1423 C1422 1.388 . S
C1423 C1424 1.390 . S
C1424 C1423 1.390 . S
C1424 C1425 1.394 . S
C1424 C1430 1.465 . S
C1425 C1420 1.399 . S
C1425 C1424 1.394 . S
C1425 C1426 1.516 . S
C1426 C1425 1.516 . S
C1426 C1427 1.502 . S
C1426 C1428 1.561 . S
C1426 C1429 1.526 . S
C1427 H1411 0.959 . S
C1427 H1412 0.959 . S
C1427 H1413 0.961 . S
C1427 C1426 1.502 . S
C1428 H1414 0.960 . S
C1428 H1415 0.961 . S
C1428 H1416 0.959 . S
C1428 C1426 1.561 . S
C1429 C1426 1.526 . S
C1429 C1430 1.396 . S
C1429 C1434 1.390 . S
C1430 C1424 1.465 . S
C1430 C1429 1.396 . S
C1430 C1431 1.399 . S
C1431 H1417 0.929 . S
C1431 C1430 1.399 . S
C1431 C1432 1.385 . S
C1432 H1418 0.931 . S
C1432 C1431 1.385 . S
C1432 C1433 1.389 . S
C1433 C1432 1.389 . S
C1433 C1434 1.387 . S
C1434 H1419 0.930 . S
C1434 C1429 1.390 . S
C1434 C1433 1.387 . S
H1435 C1447 0.930 . S
H1436 C1449 0.930 . S
H1437 C1450 0.930 . S
H1438 C1454 0.959 . S
H1439 C1454 0.959 . S
H1440 C1454 0.961 . S
H1441 C1455 0.960 . S
H1442 C1455 0.961 . S
H1443 C1455 0.959 . S
H1444 C1458 0.929 . S
H1445 C1459 0.931 . S
H1446 C1461 0.930 . S
C1447 H1435 0.930 . S
C1447 C1448 1.399 . S
C1447 C1452 1.399 . S
C1448 C1447 1.399 . S
C1448 C1449 1.376 . S
C1449 H1436 0.930 . S
C1449 C1448 1.376 . S
C1449 C1450 1.388 . S
C1450 H1437 0.930 . S
C1450 C1449 1.388 . S
C1450 C1451 1.390 . S
C1451 C1450 1.390 . S
C1451 C1452 1.394 . S
C1451 C1457 1.465 . S
C1452 C1447 1.399 . S
C1452 C1451 1.394 . S
C1452 C1453 1.516 . S
C1453 C1452 1.516 . S
C1453 C1454 1.502 . S
C1453 C1455 1.561 . S
C1453 C1456 1.526 . S
C1454 H1438 0.959 . S
C1454 H1439 0.959 . S
C1454 H1440 0.961 . S
C1454 C1453 1.502 . S
C1455 H1441 0.960 . S
C1455 H1442 0.961 . S
C1455 H1443 0.959 . S
C1455 C1453 1.561 . S
C1456 C1453 1.526 . S
C1456 C1457 1.396 . S
C1456 C1461 1.390 . S
C1457 C1451 1.465 . S
C1457 C1456 1.396 . S
C1457 C1458 1.399 . S
C1458 H1444 0.929 . S
C1458 C1457 1.399 . S
C1458 C1459 1.385 . S
C1459 H1445 0.931 . S
C1459 C1458 1.385 . S
C1459 C1460 1.389 . S
C1460 C1459 1.389 . S
C1460 C1461 1.387 . S
C1461 H1446 0.930 . S
C1461 C1456 1.390 . S
C1461 C1460 1.387 . S
H1462 C1474 0.930 . S
H1463 C1476 0.930 . S
H1464 C1477 0.930 . S
H1465 C1481 0.959 . S
H1466 C1481 0.959 . S
H1467 C1481 0.961 . S
H1468 C1482 0.960 . S
H1469 C1482 0.961 . S
H1470 C1482 0.959 . S
H1471 C1485 0.929 . S
H1472 C1486 0.931 . S
H1473 C1488 0.930 . S
C1474 H1462 0.930 . S
C1474 C1475 1.399 . S
C1474 C1479 1.399 . S
C1475 C1474 1.399 . S
C1475 C1476 1.376 . S
C1476 H1463 0.930 . S
C1476 C1475 1.376 . S
C1476 C1477 1.388 . S
C1477 H1464 0.930 . S
C1477 C1476 1.388 . S
C1477 C1478 1.390 . S
C1478 C1477 1.390 . S
C1478 C1479 1.394 . S
C1478 C1484 1.465 . S
C1479 C1474 1.399 . S
C1479 C1478 1.394 . S
C1479 C1480 1.516 . S
C1480 C1479 1.516 . S
C1480 C1481 1.502 . S
C1480 C1482 1.561 . S
C1480 C1483 1.526 . S
C1481 H1465 0.959 . S
C1481 H1466 0.959 . S
C1481 H1467 0.961 . S
C1481 C1480 1.502 . S
C1482 H1468 0.960 . S
C1482 H1469 0.961 . S
C1482 H1470 0.959 . S
C1482 C1480 1.561 . S
C1483 C1480 1.526 . S
C1483 C1484 1.396 . S
C1483 C1488 1.390 . S
C1484 C1478 1.465 . S
C1484 C1483 1.396 . S
C1484 C1485 1.399 . S
C1485 H1471 0.929 . S
C1485 C1484 1.399 . S
C1485 C1486 1.385 . S
C1486 H1472 0.931 . S
C1486 C1485 1.385 . S
C1486 C1487 1.389 . S
C1487 C1486 1.389 . S
C1487 C1488 1.387 . S
C1488 H1473 0.930 . S
C1488 C1483 1.390 . S
C1488 C1487 1.387 . S
H1489 C1501 0.930 . S
H1490 C1503 0.930 . S
H1491 C1504 0.930 . S
H1492 C1508 0.959 . S
H1493 C1508 0.959 . S
H1494 C1508 0.961 . S
H1495 C1509 0.960 . S
H1496 C1509 0.961 . S
H1497 C1509 0.959 . S
H1498 C1512 0.929 . S
H1499 C1513 0.931 . S
H1500 C1515 0.930 . S
C1501 H1489 0.930 . S
C1501 C1502 1.399 . S
C1501 C1506 1.399 . S
C1502 C1501 1.399 . S
C1502 C1503 1.376 . S
C1503 H1490 0.930 . S
C1503 C1502 1.376 . S
C1503 C1504 1.388 . S
C1504 H1491 0.930 . S
C1504 C1503 1.388 . S
C1504 C1505 1.390 . S
C1505 C1504 1.390 . S
C1505 C1506 1.394 . S
C1505 C1511 1.465 . S
C1506 C1501 1.399 . S
C1506 C1505 1.394 . S
C1506 C1507 1.516 . S
C1507 C1506 1.516 . S
C1507 C1508 1.502 . S
C1507 C1509 1.561 . S
C1507 C1510 1.526 . S
C1508 H1492 0.959 . S
C1508 H1493 0.959 . S
C1508 H1494 0.961 . S
C1508 C1507 1.502 . S
C1509 H1495 0.960 . S
C1509 H1496 0.961 . S
C1509 H1497 0.959 . S
C1509 C1507 1.561 . S
C1510 C1507 1.526 . S
C1510 C1511 1.396 . S
C1510 C1515 1.390 . S
C1511 C1505 1.465 . S
C1511 C1510 1.396 . S
C1511 C1512 1.399 . S
C1512 H1498 0.929 . S
C1512 C1511 1.399 . S
C1512 C1513 1.385 . S
C1513 H1499 0.931 . S
C1513 C1512 1.385 . S
C1513 C1514 1.389 . S
C1514 C1513 1.389 . S
C1514 C1515 1.387 . S
C1515 H1500 0.930 . S
C1515 C1510 1.390 . S
C1515 C1514 1.387 . S
H1516 C1528 0.930 . S
H1517 C1530 0.930 . S
H1518 C1531 0.930 . S
H1519 C1535 0.959 . S
H1520 C1535 0.959 . S
H1521 C1535 0.961 . S
H1522 C1536 0.960 . S
H1523 C1536 0.961 . S
H1524 C1536 0.959 . S
H1525 C1539 0.929 . S
H1526 C1540 0.931 . S
H1527 C1542 0.930 . S
C1528 H1516 0.930 . S
C1528 C1529 1.399 . S
C1528 C1533 1.399 . S
C1529 C1528 1.399 . S
C1529 C1530 1.376 . S
C1530 H1517 0.930 . S
C1530 C1529 1.376 . S
C1530 C1531 1.388 . S
C1531 H1518 0.930 . S
C1531 C1530 1.388 . S
C1531 C1532 1.390 . S
C1532 C1531 1.390 . S
C1532 C1533 1.394 . S
C1532 C1538 1.465 . S
C1533 C1528 1.399 . S
C1533 C1532 1.394 . S
C1533 C1534 1.516 . S
C1534 C1533 1.516 . S
C1534 C1535 1.502 . S
C1534 C1536 1.561 . S
C1534 C1537 1.526 . S
C1535 H1519 0.959 . S
C1535 H1520 0.959 . S
C1535 H1521 0.961 . S
C1535 C1534 1.502 . S
C1536 H1522 0.960 . S
C1536 H1523 0.961 . S
C1536 H1524 0.959 . S
C1536 C1534 1.561 . S
C1537 C1534 1.526 . S
C1537 C1538 1.396 . S
C1537 C1542 1.390 . S
C1538 C1532 1.465 . S
C1538 C1537 1.396 . S
C1538 C1539 1.399 . S
C1539 H1525 0.929 . S
C1539 C1538 1.399 . S
C1539 C1540 1.385 . S
C1540 H1526 0.931 . S
C1540 C1539 1.385 . S
C1540 C1541 1.389 . S
C1541 C1540 1.389 . S
C1541 C1542 1.387 . S
C1542 H1527 0.930 . S
C1542 C1537 1.390 . S
C1542 C1541 1.387 . S
H1543 C1555 0.930 . S
H1544 C1557 0.930 . S
H1545 C1558 0.930 . S
H1546 C1562 0.959 . S
H1547 C1562 0.959 . S
H1548 C1562 0.961 . S
H1549 C1563 0.960 . S
H1550 C1563 0.961 . S
H1551 C1563 0.959 . S
H1552 C1566 0.929 . S
H1553 C1567 0.931 . S
H1554 C1569 0.930 . S
C1555 H1543 0.930 . S
C1555 C1556 1.399 . S
C1555 C1560 1.399 . S
C1556 C1555 1.399 . S
C1556 C1557 1.376 . S
C1557 H1544 0.930 . S
C1557 C1556 1.376 . S
C1557 C1558 1.388 . S
C1558 H1545 0.930 . S
C1558 C1557 1.388 . S
C1558 C1559 1.390 . S
C1559 C1558 1.390 . S
C1559 C1560 1.394 . S
C1559 C1565 1.465 . S
C1560 C1555 1.399 . S
C1560 C1559 1.394 . S
C1560 C1561 1.516 . S
C1561 C1560 1.516 . S
C1561 C1562 1.502 . S
C1561 C1563 1.561 . S
C1561 C1564 1.526 . S
C1562 H1546 0.959 . S
C1562 H1547 0.959 . S
C1562 H1548 0.961 . S
C1562 C1561 1.502 . S
C1563 H1549 0.960 . S
C1563 H1550 0.961 . S
C1563 H1551 0.959 . S
C1563 C1561 1.561 . S
C1564 C1561 1.526 . S
C1564 C1565 1.396 . S
C1564 C1569 1.390 . S
C1565 C1559 1.465 . S
C1565 C1564 1.396 . S
C1565 C1566 1.399 . S
C1566 H1552 0.929 . S
C1566 C1565 1.399 . S
C1566 C1567 1.385 . S
C1567 H1553 0.931 . S
C1567 C1566 1.385 . S
C1567 C1568 1.389 . S
C1568 C1567 1.389 . S
C1568 C1569 1.387 . S
C1569 H1554 0.930 . S
C1569 C1564 1.390 . S
C1569 C1568 1.387 . S
H1570 C1582 0.930 . S
H1571 C1584 0.930 . S
H1572 C1585 0.930 . S
H1573 C1589 0.959 . S
H1574 C1589 0.959 . S
H1575 C1589 0.961 . S
H1576 C1590 0.960 . S
H1577 C1590 0.961 . S
H1578 C1590 0.959 . S
H1579 C1593 0.929 . S
H1580 C1594 0.931 . S
H1581 C1596 0.930 . S
C1582 H1570 0.930 . S
C1582 C1583 1.399 . S
C1582 C1587 1.399 . S
C1583 C1582 1.399 . S
C1583 C1584 1.376 . S
C1584 H1571 0.930 . S
C1584 C1583 1.376 . S
C1584 C1585 1.388 . S
C1585 H1572 0.930 . S
C1585 C1584 1.388 . S
C1585 C1586 1.390 . S
C1586 C1585 1.390 . S
C1586 C1587 1.394 . S
C1586 C1592 1.465 . S
C1587 C1582 1.399 . S
C1587 C1586 1.394 . S
C1587 C1588 1.516 . S
C1588 C1587 1.516 . S
C1588 C1589 1.502 . S
C1588 C1590 1.561 . S
C1588 C1591 1.526 . S
C1589 H1573 0.959 . S
C1589 H1574 0.959 . S
C1589 H1575 0.961 . S
C1589 C1588 1.502 . S
C1590 H1576 0.960 . S
C1590 H1577 0.961 . S
C1590 H1578 0.959 . S
C1590 C1588 1.561 . S
C1591 C1588 1.526 . S
C1591 C1592 1.396 . S
C1591 C1596 1.390 . S
C1592 C1586 1.465 . S
C1592 C1591 1.396 . S
C1592 C1593 1.399 . S
C1593 H1579 0.929 . S
C1593 C1592 1.399 . S
C1593 C1594 1.385 . S
C1594 H1580 0.931 . S
C1594 C1593 1.385 . S
C1594 C1595 1.389 . S
C1595 C1594 1.389 . S
C1595 C1596 1.387 . S
C1596 H1581 0.930 . S
C1596 C1591 1.390 . S
C1596 C1595 1.387 . S
H1597 C1609 0.930 . S
H1598 C1611 0.930 . S
H1599 C1612 0.930 . S
H1600 C1616 0.959 . S
H1601 C1616 0.959 . S
H1602 C1616 0.961 . S
H1603 C1617 0.960 . S
H1604 C1617 0.961 . S
H1605 C1617 0.959 . S
H1606 C1620 0.929 . S
H1607 C1621 0.931 . S
H1608 C1623 0.930 . S
C1609 H1597 0.930 . S
C1609 C1610 1.399 . S
C1609 C1614 1.399 . S
C1610 C1609 1.399 . S
C1610 C1611 1.376 . S
C1611 H1598 0.930 . S
C1611 C1610 1.376 . S
C1611 C1612 1.388 . S
C1612 H1599 0.930 . S
C1612 C1611 1.388 . S
C1612 C1613 1.390 . S
C1613 C1612 1.390 . S
C1613 C1614 1.394 . S
C1613 C1619 1.465 . S
C1614 C1609 1.399 . S
C1614 C1613 1.394 . S
C1614 C1615 1.516 . S
C1615 C1614 1.516 . S
C1615 C1616 1.502 . S
C1615 C1617 1.561 . S
C1615 C1618 1.526 . S
C1616 H1600 0.959 . S
C1616 H1601 0.959 . S
C1616 H1602 0.961 . S
C1616 C1615 1.502 . S
C1617 H1603 0.960 . S
C1617 H1604 0.961 . S
C1617 H1605 0.959 . S
C1617 C1615 1.561 . S
C1618 C1615 1.526 . S
C1618 C1619 1.396 . S
C1618 C1623 1.390 . S
C1619 C1613 1.465 . S
C1619 C1618 1.396 . S
C1619 C1620 1.399 . S
C1620 H1606 0.929 . S
C1620 C1619 1.399 . S
C1620 C1621 1.385 . S
C1621 H1607 0.931 . S
C1621 C1620 1.385 . S
C1621 C1622 1.389 . S
C1622 C1621 1.389 . S
C1622 C1623 1.387 . S
C1623 H1608 0.930 . S
C1623 C1618 1.390 . S
C1623 C1622 1.387 . S
H1624 C1636 0.930 . S
H1625 C1638 0.930 . S
H1626 C1639 0.930 . S
H1627 C1643 0.959 . S
H1628 C1643 0.959 . S
H1629 C1643 0.961 1_556 S
H1630 C1644 0.964 1_556 S
H1631 C1644 0.957 . S
H1632 C1644 0.958 . S
H1633 C1647 0.929 . S
H1634 C1648 0.931 . S
H1635 C1650 0.930 . S
C1636 H1624 0.930 . S
C1636 C1637 1.399 . S
C1636 C1641 1.399 . S
C1637 C1636 1.399 . S
C1637 C1638 1.376 . S
C1638 H1625 0.930 . S
C1638 C1637 1.376 . S
C1638 C1639 1.388 . S
C1639 H1626 0.930 . S
C1639 C1638 1.388 . S
C1639 C1640 1.390 . S
C1640 C1639 1.390 . S
C1640 C1641 1.394 . S
C1640 C1646 1.465 1_556 S
C1641 C1636 1.399 . S
C1641 C1640 1.394 . S
C1641 C1642 1.519 . S
C1642 C1641 1.519 . S
C1642 C1643 1.502 1_556 S
C1642 C1644 1.561 1_556 S
C1642 C1645 1.523 1_556 S
C1643 H1627 0.959 . S
C1643 H1628 0.959 . S
C1643 H1629 0.961 1_554 S
C1643 C1642 1.502 1_554 S
C1644 H1630 0.964 1_554 S
C1644 H1631 0.957 . S
C1644 H1632 0.958 . S
C1644 C1642 1.561 1_554 S
C1645 C1642 1.523 1_554 S
C1645 C1646 1.396 . S
C1645 C1650 1.390 . S
C1646 C1640 1.465 1_554 S
C1646 C1645 1.396 . S
C1646 C1647 1.399 . S
C1647 H1633 0.929 . S
C1647 C1646 1.399 . S
C1647 C1648 1.385 . S
C1648 H1634 0.931 . S
C1648 C1647 1.385 . S
C1648 C1649 1.389 . S
C1649 C1648 1.389 . S
C1649 C1650 1.387 . S
C1650 H1635 0.930 . S
C1650 C1645 1.390 . S
C1650 C1649 1.387 . S
H1651 C1663 0.930 . S
H1652 C1665 0.930 . S
H1653 C1666 0.930 . S
H1654 C1670 0.959 . S
H1655 C1670 0.959 . S
H1656 C1670 0.961 1_556 S
H1657 C1671 0.960 1_556 S
H1658 C1671 0.961 . S
H1659 C1671 0.959 . S
H1660 C1674 0.929 . S
H1661 C1675 0.931 . S
H1662 C1677 0.930 . S
C1663 H1651 0.930 . S
C1663 C1664 1.399 . S
C1663 C1668 1.399 . S
C1664 C1663 1.399 . S
C1664 C1665 1.376 . S
C1665 H1652 0.930 . S
C1665 C1664 1.376 . S
C1665 C1666 1.388 . S
C1666 H1653 0.930 . S
C1666 C1665 1.388 . S
C1666 C1667 1.390 . S
C1667 C1666 1.390 . S
C1667 C1668 1.394 . S
C1667 C1673 1.465 1_556 S
C1668 C1663 1.399 . S
C1668 C1667 1.394 . S
C1668 C1669 1.482 1_556 S
C1669 C1668 1.482 1_554 S
C1669 C1670 1.503 . S
C1669 C1671 1.562 . S
C1669 C1672 1.560 . S
C1670 H1654 0.959 . S
C1670 H1655 0.959 . S
C1670 H1656 0.961 1_554 S
C1670 C1669 1.503 . S
C1671 H1657 0.960 1_554 S
C1671 H1658 0.961 . S
C1671 H1659 0.959 . S
C1671 C1669 1.562 . S
C1672 C1669 1.560 . S
C1672 C1673 1.396 . S
C1672 C1677 1.390 . S
C1673 C1667 1.465 1_554 S
C1673 C1672 1.396 . S
C1673 C1674 1.399 . S
C1674 H1660 0.929 . S
C1674 C1673 1.399 . S
C1674 C1675 1.385 . S
C1675 H1661 0.931 . S
C1675 C1674 1.385 . S
C1675 C1676 1.389 . S
C1676 C1675 1.389 . S
C1676 C1677 1.387 . S
C1677 H1662 0.930 . S
C1677 C1672 1.390 . S
C1677 C1676 1.387 . S
H1678 C1690 0.930 . S
H1679 C1692 0.930 . S
H1680 C1693 0.930 . S
H1681 C1697 0.963 . S
H1682 C1697 0.985 . S
H1683 C1697 0.933 1_556 S
H1684 C1698 0.957 . S
H1685 C1698 0.963 1_554 S
H1686 C1698 0.959 1_554 S
H1687 C1701 0.929 . S
H1688 C1702 0.931 . S
H1689 C1704 0.930 . S
C1690 H1678 0.930 . S
C1690 C1691 1.399 . S
C1690 C1695 1.399 . S
C1691 C1690 1.399 . S
C1691 C1692 1.376 . S
C1692 H1679 0.930 . S
C1692 C1691 1.376 . S
C1692 C1693 1.388 . S
C1693 H1680 0.930 . S
C1693 C1692 1.388 . S
C1693 C1694 1.390 . S
C1694 C1693 1.390 . S
C1694 C1695 1.394 . S
C1694 C1700 1.465 1_556 S
C1695 C1690 1.399 . S
C1695 C1694 1.394 . S
C1695 C1696 1.519 1_556 S
C1696 C1695 1.519 1_554 S
C1696 C1697 1.501 . S
C1696 C1698 1.561 1_554 S
C1696 C1699 1.523 . S
C1697 H1681 0.963 . S
C1697 H1682 0.985 . S
C1697 H1683 0.933 1_554 S
C1697 C1696 1.501 . S
C1698 H1684 0.957 . S
C1698 H1685 0.963 1_556 S
C1698 H1686 0.959 1_556 S
C1698 C1696 1.561 1_556 S
C1699 C1696 1.523 . S
C1699 C1700 1.396 . S
C1699 C1704 1.390 . S
C1700 C1694 1.465 1_554 S
C1700 C1699 1.396 . S
C1700 C1701 1.399 . S
C1701 H1687 0.929 . S
C1701 C1700 1.399 . S
C1701 C1702 1.385 . S
C1702 H1688 0.931 . S
C1702 C1701 1.385 . S
C1702 C1703 1.389 . S
C1703 C1702 1.389 . S
C1703 C1704 1.387 . S
C1704 H1689 0.930 . S
C1704 C1699 1.390 . S
C1704 C1703 1.387 . S
H1705 C1717 0.930 . S
H1706 C1719 0.930 . S
H1707 C1720 0.930 . S
H1708 C1724 0.964 . S
H1709 C1724 0.996 . S
H1710 C1724 0.922 1_554 S
H1711 C1725 0.942 1_554 S
H1712 C1725 0.977 . S
H1713 C1725 0.961 . S
H1714 C1728 0.929 . S
H1715 C1729 0.931 . S
H1716 C1731 0.930 . S
C1717 H1705 0.930 . S
C1717 C1718 1.399 . S
C1717 C1722 1.399 . S
C1718 C1717 1.399 . S
C1718 C1719 1.376 . S
C1719 H1706 0.930 . S
C1719 C1718 1.376 . S
C1719 C1720 1.388 . S
C1720 H1707 0.930 . S
C1720 C1719 1.388 . S
C1720 C1721 1.390 . S
C1721 C1720 1.390 . S
C1721 C1722 1.394 . S
C1721 C1727 1.465 1_554 S
C1722 C1717 1.399 . S
C1722 C1721 1.394 . S
C1722 C1723 1.502 1_554 S
C1723 C1722 1.502 1_556 S
C1723 C1724 1.501 . S
C1723 C1725 1.561 . S
C1723 C1726 1.540 . S
C1724 H1708 0.964 . S
C1724 H1709 0.996 . S
C1724 H1710 0.922 1_556 S
C1724 C1723 1.501 . S
C1725 H1711 0.942 1_556 S
C1725 H1712 0.977 . S
C1725 H1713 0.961 . S
C1725 C1723 1.561 . S
C1726 C1723 1.540 . S
C1726 C1727 1.396 . S
C1726 C1731 1.390 . S
C1727 C1721 1.465 1_556 S
C1727 C1726 1.396 . S
C1727 C1728 1.399 . S
C1728 H1714 0.929 . S
C1728 C1727 1.399 . S
C1728 C1729 1.385 . S
C1729 H1715 0.931 . S
C1729 C1728 1.385 . S
C1729 C1730 1.389 . S
C1730 C1729 1.389 . S
C1730 C1731 1.387 . S
C1731 H1716 0.930 . S
C1731 C1726 1.390 . S
C1731 C1730 1.387 . S
H1732 C1744 0.930 . S
H1733 C1746 0.930 . S
H1734 C1747 0.930 . S
H1735 C1751 0.964 . S
H1736 C1751 0.994 . S
H1737 C1751 0.924 1_455 S
H1738 C1752 0.939 1_455 S
H1739 C1752 0.980 . S
H1740 C1752 0.961 . S
H1741 C1755 0.929 . S
H1742 C1756 0.931 . S
H1743 C1758 0.930 . S
C1744 H1732 0.930 . S
C1744 C1745 1.399 . S
C1744 C1749 1.399 . S
C1745 C1744 1.399 . S
C1745 C1746 1.376 . S
C1746 H1733 0.930 . S
C1746 C1745 1.376 . S
C1746 C1747 1.388 . S
C1747 H1734 0.930 . S
C1747 C1746 1.388 . S
C1747 C1748 1.390 . S
C1748 C1747 1.390 . S
C1748 C1749 1.394 . S
C1748 C1754 1.465 1_455 S
C1749 C1744 1.399 . S
C1749 C1748 1.394 . S
C1749 C1750 1.504 1_455 S
C1750 C1749 1.504 1_655 S
C1750 C1751 1.501 . S
C1750 C1752 1.561 . S
C1750 C1753 1.538 . S
C1751 H1735 0.964 . S
C1751 H1736 0.994 . S
C1751 H1737 0.924 1_655 S
C1751 C1750 1.501 . S
C1752 H1738 0.939 1_655 S
C1752 H1739 0.980 . S
C1752 H1740 0.961 . S
C1752 C1750 1.561 . S
C1753 C1750 1.538 . S
C1753 C1754 1.396 . S
C1753 C1758 1.390 . S
C1754 C1748 1.465 1_655 S
C1754 C1753 1.396 . S
C1754 C1755 1.399 . S
C1755 H1741 0.929 . S
C1755 C1754 1.399 . S
C1755 C1756 1.385 . S
C1756 H1742 0.931 . S
C1756 C1755 1.385 . S
C1756 C1757 1.389 . S
C1757 C1756 1.389 . S
C1757 C1758 1.387 . S
C1758 H1743 0.930 . S
C1758 C1753 1.390 . S
C1758 C1757 1.387 . S
H1759 C1771 0.930 . S
H1760 C1773 0.930 . S
H1761 C1774 0.930 . S
H1762 C1778 0.957 1_545 S
H1763 C1778 0.933 1_545 S
H1764 C1778 0.990 . S
H1765 C1779 0.988 . S
H1766 C1779 0.936 1_545 S
H1767 C1779 0.955 1_545 S
H1768 C1782 0.929 . S
H1769 C1783 0.931 . S
H1770 C1785 0.930 . S
C1771 H1759 0.930 . S
C1771 C1772 1.399 . S
C1771 C1776 1.399 . S
C1772 C1771 1.399 . S
C1772 C1773 1.376 . S
C1773 H1760 0.930 . S
C1773 C1772 1.376 . S
C1773 C1774 1.388 . S
C1774 H1761 0.930 . S
C1774 C1773 1.388 . S
C1774 C1775 1.390 . S
C1775 C1774 1.390 . S
C1775 C1776 1.394 . S
C1775 C1781 1.465 1_565 S
C1776 C1771 1.399 . S
C1776 C1775 1.394 . S
C1776 C1777 1.552 . S
C1777 C1776 1.552 . S
C1777 C1778 1.502 . S
C1777 C1779 1.561 . S
C1777 C1780 1.490 1_565 S
C1778 H1762 0.957 1_565 S
C1778 H1763 0.933 1_565 S
C1778 H1764 0.990 . S
C1778 C1777 1.502 . S
C1779 H1765 0.988 . S
C1779 H1766 0.936 1_565 S
C1779 H1767 0.955 1_565 S
C1779 C1777 1.561 . S
C1780 C1777 1.490 1_545 S
C1780 C1781 1.396 . S
C1780 C1785 1.390 . S
C1781 C1775 1.465 1_545 S
C1781 C1780 1.396 . S
C1781 C1782 1.399 . S
C1782 H1768 0.929 . S
C1782 C1781 1.399 . S
C1782 C1783 1.385 . S
C1783 H1769 0.931 . S
C1783 C1782 1.385 . S
C1783 C1784 1.389 . S
C1784 C1783 1.389 . S
C1784 C1785 1.387 . S
C1785 H1770 0.930 . S
C1785 C1780 1.390 . S
C1785 C1784 1.387 . S
H1786 C1798 0.930 . S
H1787 C1800 0.930 . S
H1788 C1801 0.930 . S
H1789 C1805 0.959 . S
H1790 C1805 0.959 . S
H1791 C1805 0.961 1_655 S
H1792 C1806 0.910 1_655 S
H1793 C1806 1.007 . S
H1794 C1806 0.966 . S
H1795 C1809 0.929 . S
H1796 C1810 0.931 . S
H1797 C1812 0.930 . S
C1798 H1786 0.930 . S
C1798 C1799 1.399 . S
C1798 C1803 1.399 . S
C1799 C1798 1.399 . S
C1799 C1800 1.376 . S
C1800 H1787 0.930 . S
C1800 C1799 1.376 . S
C1800 C1801 1.388 . S
C1801 H1788 0.930 . S
C1801 C1800 1.388 . S
C1801 C1802 1.390 . S
C1802 C1801 1.390 . S
C1802 C1803 1.394 . S
C1802 C1808 1.465 1_655 S
C1803 C1798 1.399 . S
C1803 C1802 1.394 . S
C1803 C1804 1.475 1_655 S
C1804 C1803 1.475 1_455 S
C1804 C1805 1.504 . S
C1804 C1806 1.561 . S
C1804 C1807 1.568 . S
C1805 H1789 0.959 . S
C1805 H1790 0.959 . S
C1805 H1791 0.961 1_455 S
C1805 C1804 1.504 . S
C1806 H1792 0.910 1_455 S
C1806 H1793 1.007 . S
C1806 H1794 0.966 . S
C1806 C1804 1.561 . S
C1807 C1804 1.568 . S
C1807 C1808 1.396 . S
C1807 C1812 1.390 . S
C1808 C1802 1.465 1_455 S
C1808 C1807 1.396 . S
C1808 C1809 1.399 . S
C1809 H1795 0.929 . S
C1809 C1808 1.399 . S
C1809 C1810 1.385 . S
C1810 H1796 0.931 . S
C1810 C1809 1.385 . S
C1810 C1811 1.389 . S
C1811 C1810 1.389 . S
C1811 C1812 1.387 . S
C1812 H1797 0.930 . S
C1812 C1807 1.390 . S
C1812 C1811 1.387 . S
H1813 C1825 0.930 . S
H1814 C1827 0.930 . S
H1815 C1828 0.930 . S
H1816 C1832 0.962 . S
H1817 C1832 0.982 . S
H1818 C1832 0.936 1_545 S
H1819 C1833 0.962 . S
H1820 C1833 0.959 1_565 S
H1821 C1833 0.956 1_565 S
H1822 C1836 0.929 . S
H1823 C1837 0.931 . S
H1824 C1839 0.930 . S
C1825 H1813 0.930 . S
C1825 C1826 1.399 . S
C1825 C1830 1.399 . S
C1826 C1825 1.399 . S
C1826 C1827 1.376 . S
C1827 H1814 0.930 . S
C1827 C1826 1.376 . S
C1827 C1828 1.388 . S
C1828 H1815 0.930 . S
C1828 C1827 1.388 . S
C1828 C1829 1.390 . S
C1829 C1828 1.390 . S
C1829 C1830 1.394 . S
C1829 C1835 1.465 1_545 S
C1830 C1825 1.399 . S
C1830 C1829 1.394 . S
C1830 C1831 1.516 . S
C1831 C1830 1.516 . S
C1831 C1832 1.501 1_545 S
C1831 C1833 1.561 . S
C1831 C1834 1.526 1_545 S
C1832 H1816 0.962 . S
C1832 H1817 0.982 . S
C1832 H1818 0.936 1_565 S
C1832 C1831 1.501 1_565 S
C1833 H1819 0.962 . S
C1833 H1820 0.959 1_545 S
C1833 H1821 0.956 1_545 S
C1833 C1831 1.561 . S
C1834 C1831 1.526 1_565 S
C1834 C1835 1.396 . S
C1834 C1839 1.390 . S
C1835 C1829 1.465 1_565 S
C1835 C1834 1.396 . S
C1835 C1836 1.399 . S
C1836 H1822 0.929 . S
C1836 C1835 1.399 . S
C1836 C1837 1.385 . S
C1837 H1823 0.931 . S
C1837 C1836 1.385 . S
C1837 C1838 1.389 . S
C1838 C1837 1.389 . S
C1838 C1839 1.387 . S
C1839 H1824 0.930 . S
C1839 C1834 1.390 . S
C1839 C1838 1.387 . S
H1840 C1852 0.930 . S
H1841 C1854 0.930 . S
H1842 C1855 0.930 . S
H1843 C1859 0.966 . S
H1844 C1859 1.003 . S
H1845 C1859 0.914 1_655 S
H1846 C1860 0.938 1_655 S
H1847 C1860 0.981 . S
H1848 C1860 0.961 . S
H1849 C1863 0.929 . S
H1850 C1864 0.931 . S
H1851 C1866 0.930 . S
C1852 H1840 0.930 . S
C1852 C1853 1.399 . S
C1852 C1857 1.399 . S
C1853 C1852 1.399 . S
C1853 C1854 1.376 . S
C1854 H1841 0.930 . S
C1854 C1853 1.376 . S
C1854 C1855 1.388 . S
C1855 H1842 0.930 . S
C1855 C1854 1.388 . S
C1855 C1856 1.390 . S
C1856 C1855 1.390 . S
C1856 C1857 1.394 . S
C1856 C1862 1.465 1_655 S
C1857 C1852 1.399 . S
C1857 C1856 1.394 . S
C1857 C1858 1.498 1_655 S
C1858 C1857 1.498 1_455 S
C1858 C1859 1.501 . S
C1858 C1860 1.561 . S
C1858 C1861 1.544 . S
C1859 H1843 0.966 . S
C1859 H1844 1.003 . S
C1859 H1845 0.914 1_455 S
C1859 C1858 1.501 . S
C1860 H1846 0.938 1_455 S
C1860 H1847 0.981 . S
C1860 H1848 0.961 . S
C1860 C1858 1.561 . S
C1861 C1858 1.544 . S
C1861 C1862 1.396 . S
C1861 C1866 1.390 . S
C1862 C1856 1.465 1_455 S
C1862 C1861 1.396 . S
C1862 C1863 1.399 . S
C1863 H1849 0.929 . S
C1863 C1862 1.399 . S
C1863 C1864 1.385 . S
C1864 H1850 0.931 . S
C1864 C1863 1.385 . S
C1864 C1865 1.389 . S
C1865 C1864 1.389 . S
C1865 C1866 1.387 . S
C1866 H1851 0.930 . S
C1866 C1861 1.390 . S
C1866 C1865 1.387 . S
H1867 C1879 0.930 . S
H1868 C1881 0.930 . S
H1869 C1882 0.930 . S
H1870 C1886 0.959 . S
H1871 C1886 0.959 . S
H1872 C1886 0.961 1_565 S
H1873 C1887 0.934 1_565 S
H1874 C1887 0.985 . S
H1875 C1887 0.962 . S
H1876 C1890 0.929 . S
H1877 C1891 0.931 . S
H1878 C1893 0.930 . S
C1879 H1867 0.930 . S
C1879 C1880 1.399 . S
C1879 C1884 1.399 . S
C1880 C1879 1.399 . S
C1880 C1881 1.376 . S
C1881 H1868 0.930 . S
C1881 C1880 1.376 . S
C1881 C1882 1.388 . S
C1882 H1869 0.930 . S
C1882 C1881 1.388 . S
C1882 C1883 1.390 . S
C1883 C1882 1.390 . S
C1883 C1884 1.394 . S
C1883 C1889 1.465 1_565 S
C1884 C1879 1.399 . S
C1884 C1883 1.394 . S
C1884 C1885 1.490 1_565 S
C1885 C1884 1.490 1_545 S
C1885 C1886 1.503 . S
C1885 C1887 1.561 . S
C1885 C1888 1.552 . S
C1886 H1870 0.959 . S
C1886 H1871 0.959 . S
C1886 H1872 0.961 1_545 S
C1886 C1885 1.503 . S
C1887 H1873 0.934 1_545 S
C1887 H1874 0.985 . S
C1887 H1875 0.962 . S
C1887 C1885 1.561 . S
C1888 C1885 1.552 . S
C1888 C1889 1.396 . S
C1888 C1893 1.390 . S
C1889 C1883 1.465 1_545 S
C1889 C1888 1.396 . S
C1889 C1890 1.399 . S
C1890 H1876 0.929 . S
C1890 C1889 1.399 . S
C1890 C1891 1.385 . S
C1891 H1877 0.931 . S
C1891 C1890 1.385 . S
C1891 C1892 1.389 . S
C1892 C1891 1.389 . S
C1892 C1893 1.387 . S
C1893 H1878 0.930 . S
C1893 C1888 1.390 . S
C1893 C1892 1.387 . S
H1894 C1906 0.930 . S
H1895 C1908 0.930 . S
H1896 C1909 0.930 . S
H1897 C1913 0.959 . S
H1898 C1913 0.959 . S
H1899 C1913 0.961 1_455 S
H1900 C1914 0.908 1_455 S
H1901 C1914 1.009 . S
H1902 C1914 0.966 . S
H1903 C1917 0.929 . S
H1904 C1918 0.931 . S
H1905 C1920 0.930 . S
C1906 H1894 0.930 . S
C1906 C1907 1.399 . S
C1906 C1911 1.399 . S
C1907 C1906 1.399 . S
C1907 C1908 1.376 . S
C1908 H1895 0.930 . S
C1908 C1907 1.376 . S
C1908 C1909 1.388 . S
C1909 H1896 0.930 . S
C1909 C1908 1.388 . S
C1909 C1910 1.390 . S
C1910 C1909 1.390 . S
C1910 C1911 1.394 . S
C1910 C1916 1.465 1_455 S
C1911 C1906 1.399 . S
C1911 C1910 1.394 . S
C1911 C1912 1.475 1_455 S
C1912 C1911 1.475 1_655 S
C1912 C1913 1.503 . S
C1912 C1914 1.561 . S
C1912 C1915 1.567 . S
C1913 H1897 0.959 . S
C1913 H1898 0.959 . S
C1913 H1899 0.961 1_655 S
C1913 C1912 1.503 . S
C1914 H1900 0.908 1_655 S
C1914 H1901 1.009 . S
C1914 H1902 0.966 . S
C1914 C1912 1.561 . S
C1915 C1912 1.567 . S
C1915 C1916 1.396 . S
C1915 C1920 1.390 . S
C1916 C1910 1.465 1_655 S
C1916 C1915 1.396 . S
C1916 C1917 1.399 . S
C1917 H1903 0.929 . S
C1917 C1916 1.399 . S
C1917 C1918 1.385 . S
C1918 H1904 0.931 . S
C1918 C1917 1.385 . S
C1918 C1919 1.389 . S
C1919 C1918 1.389 . S
C1919 C1920 1.387 . S
C1920 H1905 0.930 . S
C1920 C1915 1.390 . S
C1920 C1919 1.387 . S
H1921 C1933 0.930 . S
H1922 C1935 0.930 . S
H1923 C1936 0.930 . S
H1924 C1940 0.962 . S
H1925 C1940 0.983 . S
H1926 C1940 0.935 1_565 S
H1927 C1941 0.960 1_565 S
H1928 C1941 0.961 . S
H1929 C1941 0.959 . S
H1930 C1944 0.929 . S
H1931 C1945 0.931 . S
H1932 C1947 0.930 . S
C1933 H1921 0.930 . S
C1933 C1934 1.399 . S
C1933 C1938 1.399 . S
C1934 C1933 1.399 . S
C1934 C1935 1.376 . S
C1935 H1922 0.930 . S
C1935 C1934 1.376 . S
C1935 C1936 1.388 . S
C1936 H1923 0.930 . S
C1936 C1935 1.388 . S
C1936 C1937 1.390 . S
C1937 C1936 1.390 . S
C1937 C1938 1.394 . S
C1937 C1943 1.465 1_565 S
C1938 C1933 1.399 . S
C1938 C1937 1.394 . S
C1938 C1939 1.519 1_565 S
C1939 C1938 1.519 1_545 S
C1939 C1940 1.501 . S
C1939 C1941 1.561 . S
C1939 C1942 1.523 . S
C1940 H1924 0.962 . S
C1940 H1925 0.983 . S
C1940 H1926 0.935 1_545 S
C1940 C1939 1.501 . S
C1941 H1927 0.960 1_545 S
C1941 H1928 0.961 . S
C1941 H1929 0.959 . S
C1941 C1939 1.561 . S
C1942 C1939 1.523 . S
C1942 C1943 1.396 . S
C1942 C1947 1.390 . S
C1943 C1937 1.465 1_545 S
C1943 C1942 1.396 . S
C1943 C1944 1.399 . S
C1944 H1930 0.929 . S
C1944 C1943 1.399 . S
C1944 C1945 1.385 . S
C1945 H1931 0.931 . S
C1945 C1944 1.385 . S
C1945 C1946 1.389 . S
C1946 C1945 1.389 . S
C1946 C1947 1.387 . S
C1947 H1932 0.930 . S
C1947 C1942 1.390 . S
C1947 C1946 1.387 . S
H1948 C1960 0.930 . S
H1949 C1962 0.930 . S
H1950 C1963 0.930 . S
H1951 C1967 0.959 . S
H1952 C1967 0.959 . S
H1953 C1967 0.961 . S
H1954 C1968 0.960 . S
H1955 C1968 0.961 . S
H1956 C1968 0.959 . S
H1957 C1971 0.929 . S
H1958 C1972 0.931 . S
H1959 C1974 0.930 . S
C1960 H1948 0.930 . S
C1960 C1961 1.399 . S
C1960 C1965 1.399 . S
C1961 C1960 1.399 . S
C1961 C1962 1.376 . S
C1962 H1949 0.930 . S
C1962 C1961 1.376 . S
C1962 C1963 1.388 . S
C1963 H1950 0.930 . S
C1963 C1962 1.388 . S
C1963 C1964 1.390 . S
C1964 C1963 1.390 . S
C1964 C1965 1.394 . S
C1964 C1970 1.465 . S
C1965 C1960 1.399 . S
C1965 C1964 1.394 . S
C1965 C1966 1.516 . S
C1966 C1965 1.516 . S
C1966 C1967 1.502 . S
C1966 C1968 1.561 . S
C1966 C1969 1.526 . S
C1967 H1951 0.959 . S
C1967 H1952 0.959 . S
C1967 H1953 0.961 . S
C1967 C1966 1.502 . S
C1968 H1954 0.960 . S
C1968 H1955 0.961 . S
C1968 H1956 0.959 . S
C1968 C1966 1.561 . S
C1969 C1966 1.526 . S
C1969 C1970 1.396 . S
C1969 C1974 1.390 . S
C1970 C1964 1.465 . S
C1970 C1969 1.396 . S
C1970 C1971 1.399 . S
C1971 H1957 0.929 . S
C1971 C1970 1.399 . S
C1971 C1972 1.385 . S
C1972 H1958 0.931 . S
C1972 C1971 1.385 . S
C1972 C1973 1.389 . S
C1973 C1972 1.389 . S
C1973 C1974 1.387 . S
C1974 H1959 0.930 . S
C1974 C1969 1.390 . S
C1974 C1973 1.387 . S
H1975 C1987 0.930 . S
H1976 C1989 0.930 . S
H1977 C1990 0.930 . S
H1978 C1994 0.959 . S
H1979 C1994 0.959 . S
H1980 C1994 0.961 . S
H1981 C1995 0.960 . S
H1982 C1995 0.961 . S
H1983 C1995 0.959 . S
H1984 C1998 0.929 . S
H1985 C1999 0.931 . S
H1986 C2001 0.930 . S
C1987 H1975 0.930 . S
C1987 C1988 1.399 . S
C1987 C1992 1.399 . S
C1988 C1987 1.399 . S
C1988 C1989 1.376 . S
C1989 H1976 0.930 . S
C1989 C1988 1.376 . S
C1989 C1990 1.388 . S
C1990 H1977 0.930 . S
C1990 C1989 1.388 . S
C1990 C1991 1.390 . S
C1991 C1990 1.390 . S
C1991 C1992 1.394 . S
C1991 C1997 1.465 . S
C1992 C1987 1.399 . S
C1992 C1991 1.394 . S
C1992 C1993 1.516 . S
C1993 C1992 1.516 . S
C1993 C1994 1.502 . S
C1993 C1995 1.561 . S
C1993 C1996 1.526 . S
C1994 H1978 0.959 . S
C1994 H1979 0.959 . S
C1994 H1980 0.961 . S
C1994 C1993 1.502 . S
C1995 H1981 0.960 . S
C1995 H1982 0.961 . S
C1995 H1983 0.959 . S
C1995 C1993 1.561 . S
C1996 C1993 1.526 . S
C1996 C1997 1.396 . S
C1996 C2001 1.390 . S
C1997 C1991 1.465 . S
C1997 C1996 1.396 . S
C1997 C1998 1.399 . S
C1998 H1984 0.929 . S
C1998 C1997 1.399 . S
C1998 C1999 1.385 . S
C1999 H1985 0.931 . S
C1999 C1998 1.385 . S
C1999 C2000 1.389 . S
C2000 C1999 1.389 . S
C2000 C2001 1.387 . S
C2001 H1986 0.930 . S
C2001 C1996 1.390 . S
C2001 C2000 1.387 . S
H2002 C2014 0.930 . S
H2003 C2016 0.930 . S
H2004 C2017 0.930 . S
H2005 C2021 0.959 . S
H2006 C2021 0.959 . S
H2007 C2021 0.961 . S
H2008 C2022 0.960 . S
H2009 C2022 0.961 . S
H2010 C2022 0.959 . S
H2011 C2025 0.929 . S
H2012 C2026 0.931 . S
H2013 C2028 0.930 . S
C2014 H2002 0.930 . S
C2014 C2015 1.399 . S
C2014 C2019 1.399 . S
C2015 C2014 1.399 . S
C2015 C2016 1.376 . S
C2016 H2003 0.930 . S
C2016 C2015 1.376 . S
C2016 C2017 1.388 . S
C2017 H2004 0.930 . S
C2017 C2016 1.388 . S
C2017 C2018 1.390 . S
C2018 C2017 1.390 . S
C2018 C2019 1.394 . S
C2018 C2024 1.465 . S
C2019 C2014 1.399 . S
C2019 C2018 1.394 . S
C2019 C2020 1.516 . S
C2020 C2019 1.516 . S
C2020 C2021 1.502 . S
C2020 C2022 1.561 . S
C2020 C2023 1.526 . S
C2021 H2005 0.959 . S
C2021 H2006 0.959 . S
C2021 H2007 0.961 . S
C2021 C2020 1.502 . S
C2022 H2008 0.960 . S
C2022 H2009 0.961 . S
C2022 H2010 0.959 . S
C2022 C2020 1.561 . S
C2023 C2020 1.526 . S
C2023 C2024 1.396 . S
C2023 C2028 1.390 . S
C2024 C2018 1.465 . S
C2024 C2023 1.396 . S
C2024 C2025 1.399 . S
C2025 H2011 0.929 . S
C2025 C2024 1.399 . S
C2025 C2026 1.385 . S
C2026 H2012 0.931 . S
C2026 C2025 1.385 . S
C2026 C2027 1.389 . S
C2027 C2026 1.389 . S
C2027 C2028 1.387 . S
C2028 H2013 0.930 . S
C2028 C2023 1.390 . S
C2028 C2027 1.387 . S
H2029 C2041 0.930 . S
H2030 C2043 0.930 . S
H2031 C2044 0.930 . S
H2032 C2048 0.959 . S
H2033 C2048 0.959 . S
H2034 C2048 0.961 . S
H2035 C2049 0.960 . S
H2036 C2049 0.961 . S
H2037 C2049 0.959 . S
H2038 C2052 0.929 . S
H2039 C2053 0.931 . S
H2040 C2055 0.930 . S
C2041 H2029 0.930 . S
C2041 C2042 1.399 . S
C2041 C2046 1.399 . S
C2042 C2041 1.399 . S
C2042 C2043 1.376 . S
C2043 H2030 0.930 . S
C2043 C2042 1.376 . S
C2043 C2044 1.388 . S
C2044 H2031 0.930 . S
C2044 C2043 1.388 . S
C2044 C2045 1.390 . S
C2045 C2044 1.390 . S
C2045 C2046 1.394 . S
C2045 C2051 1.465 . S
C2046 C2041 1.399 . S
C2046 C2045 1.394 . S
C2046 C2047 1.516 . S
C2047 C2046 1.516 . S
C2047 C2048 1.502 . S
C2047 C2049 1.561 . S
C2047 C2050 1.526 . S
C2048 H2032 0.959 . S
C2048 H2033 0.959 . S
C2048 H2034 0.961 . S
C2048 C2047 1.502 . S
C2049 H2035 0.960 . S
C2049 H2036 0.961 . S
C2049 H2037 0.959 . S
C2049 C2047 1.561 . S
C2050 C2047 1.526 . S
C2050 C2051 1.396 . S
C2050 C2055 1.390 . S
C2051 C2045 1.465 . S
C2051 C2050 1.396 . S
C2051 C2052 1.399 . S
C2052 H2038 0.929 . S
C2052 C2051 1.399 . S
C2052 C2053 1.385 . S
C2053 H2039 0.931 . S
C2053 C2052 1.385 . S
C2053 C2054 1.389 . S
C2054 C2053 1.389 . S
C2054 C2055 1.387 . S
C2055 H2040 0.930 . S
C2055 C2050 1.390 . S
C2055 C2054 1.387 . S
H2056 C2068 0.930 . S
H2057 C2070 0.930 . S
H2058 C2071 0.930 . S
H2059 C2075 0.959 . S
H2060 C2075 0.959 . S
H2061 C2075 0.961 . S
H2062 C2076 0.960 . S
H2063 C2076 0.961 . S
H2064 C2076 0.959 . S
H2065 C2079 0.929 . S
H2066 C2080 0.931 . S
H2067 C2082 0.930 . S
C2068 H2056 0.930 . S
C2068 C2069 1.399 . S
C2068 C2073 1.399 . S
C2069 C2068 1.399 . S
C2069 C2070 1.376 . S
C2070 H2057 0.930 . S
C2070 C2069 1.376 . S
C2070 C2071 1.388 . S
C2071 H2058 0.930 . S
C2071 C2070 1.388 . S
C2071 C2072 1.390 . S
C2072 C2071 1.390 . S
C2072 C2073 1.394 . S
C2072 C2078 1.465 . S
C2073 C2068 1.399 . S
C2073 C2072 1.394 . S
C2073 C2074 1.516 . S
C2074 C2073 1.516 . S
C2074 C2075 1.502 . S
C2074 C2076 1.561 . S
C2074 C2077 1.526 . S
C2075 H2059 0.959 . S
C2075 H2060 0.959 . S
C2075 H2061 0.961 . S
C2075 C2074 1.502 . S
C2076 H2062 0.960 . S
C2076 H2063 0.961 . S
C2076 H2064 0.959 . S
C2076 C2074 1.561 . S
C2077 C2074 1.526 . S
C2077 C2078 1.396 . S
C2077 C2082 1.390 . S
C2078 C2072 1.465 . S
C2078 C2077 1.396 . S
C2078 C2079 1.399 . S
C2079 H2065 0.929 . S
C2079 C2078 1.399 . S
C2079 C2080 1.385 . S
C2080 H2066 0.931 . S
C2080 C2079 1.385 . S
C2080 C2081 1.389 . S
C2081 C2080 1.389 . S
C2081 C2082 1.387 . S
C2082 H2067 0.930 . S
C2082 C2077 1.390 . S
C2082 C2081 1.387 . S
H2083 C2095 0.930 . S
H2084 C2097 0.930 . S
H2085 C2098 0.930 . S
H2086 C2102 0.959 . S
H2087 C2102 0.959 . S
H2088 C2102 0.961 . S
H2089 C2103 0.960 . S
H2090 C2103 0.961 . S
H2091 C2103 0.959 . S
H2092 C2106 0.929 . S
H2093 C2107 0.931 . S
H2094 C2109 0.930 . S
C2095 H2083 0.930 . S
C2095 C2096 1.399 . S
C2095 C2100 1.399 . S
C2096 C2095 1.399 . S
C2096 C2097 1.376 . S
C2097 H2084 0.930 . S
C2097 C2096 1.376 . S
C2097 C2098 1.388 . S
C2098 H2085 0.930 . S
C2098 C2097 1.388 . S
C2098 C2099 1.390 . S
C2099 C2098 1.390 . S
C2099 C2100 1.394 . S
C2099 C2105 1.465 . S
C2100 C2095 1.399 . S
C2100 C2099 1.394 . S
C2100 C2101 1.516 . S
C2101 C2100 1.516 . S
C2101 C2102 1.502 . S
C2101 C2103 1.561 . S
C2101 C2104 1.526 . S
C2102 H2086 0.959 . S
C2102 H2087 0.959 . S
C2102 H2088 0.961 . S
C2102 C2101 1.502 . S
C2103 H2089 0.960 . S
C2103 H2090 0.961 . S
C2103 H2091 0.959 . S
C2103 C2101 1.561 . S
C2104 C2101 1.526 . S
C2104 C2105 1.396 . S
C2104 C2109 1.390 . S
C2105 C2099 1.465 . S
C2105 C2104 1.396 . S
C2105 C2106 1.399 . S
C2106 H2092 0.929 . S
C2106 C2105 1.399 . S
C2106 C2107 1.385 . S
C2107 H2093 0.931 . S
C2107 C2106 1.385 . S
C2107 C2108 1.389 . S
C2108 C2107 1.389 . S
C2108 C2109 1.387 . S
C2109 H2094 0.930 . S
C2109 C2104 1.390 . S
C2109 C2108 1.387 . S
H2110 C2122 0.930 . S
H2111 C2124 0.930 . S
H2112 C2125 0.930 . S
H2113 C2129 0.959 . S
H2114 C2129 0.959 . S
H2115 C2129 0.961 . S
H2116 C2130 0.960 . S
H2117 C2130 0.961 . S
H2118 C2130 0.959 . S
H2119 C2133 0.929 . S
H2120 C2134 0.931 . S
H2121 C2136 0.930 . S
C2122 H2110 0.930 . S
C2122 C2123 1.399 . S
C2122 C2127 1.399 . S
C2123 C2122 1.399 . S
C2123 C2124 1.376 . S
C2124 H2111 0.930 . S
C2124 C2123 1.376 . S
C2124 C2125 1.388 . S
C2125 H2112 0.930 . S
C2125 C2124 1.388 . S
C2125 C2126 1.390 . S
C2126 C2125 1.390 . S
C2126 C2127 1.394 . S
C2126 C2132 1.465 . S
C2127 C2122 1.399 . S
C2127 C2126 1.394 . S
C2127 C2128 1.516 . S
C2128 C2127 1.516 . S
C2128 C2129 1.502 . S
C2128 C2130 1.561 . S
C2128 C2131 1.526 . S
C2129 H2113 0.959 . S
C2129 H2114 0.959 . S
C2129 H2115 0.961 . S
C2129 C2128 1.502 . S
C2130 H2116 0.960 . S
C2130 H2117 0.961 . S
C2130 H2118 0.959 . S
C2130 C2128 1.561 . S
C2131 C2128 1.526 . S
C2131 C2132 1.396 . S
C2131 C2136 1.390 . S
C2132 C2126 1.465 . S
C2132 C2131 1.396 . S
C2132 C2133 1.399 . S
C2133 H2119 0.929 . S
C2133 C2132 1.399 . S
C2133 C2134 1.385 . S
C2134 H2120 0.931 . S
C2134 C2133 1.385 . S
C2134 C2135 1.389 . S
C2135 C2134 1.389 . S
C2135 C2136 1.387 . S
C2136 H2121 0.930 . S
C2136 C2131 1.390 . S
C2136 C2135 1.387 . S
H2137 C2149 0.930 . S
H2138 C2151 0.930 . S
H2139 C2152 0.930 . S
H2140 C2156 0.959 . S
H2141 C2156 0.959 . S
H2142 C2156 0.961 . S
H2143 C2157 0.960 . S
H2144 C2157 0.961 . S
H2145 C2157 0.959 . S
H2146 C2160 0.929 . S
H2147 C2161 0.931 . S
H2148 C2163 0.930 . S
C2149 H2137 0.930 . S
C2149 C2150 1.399 . S
C2149 C2154 1.399 . S
C2150 C2149 1.399 . S
C2150 C2151 1.376 . S
C2151 H2138 0.930 . S
C2151 C2150 1.376 . S
C2151 C2152 1.388 . S
C2152 H2139 0.930 . S
C2152 C2151 1.388 . S
C2152 C2153 1.390 . S
C2153 C2152 1.390 . S
C2153 C2154 1.394 . S
C2153 C2159 1.465 . S
C2154 C2149 1.399 . S
C2154 C2153 1.394 . S
C2154 C2155 1.516 . S
C2155 C2154 1.516 . S
C2155 C2156 1.502 . S
C2155 C2157 1.561 . S
C2155 C2158 1.526 . S
C2156 H2140 0.959 . S
C2156 H2141 0.959 . S
C2156 H2142 0.961 . S
C2156 C2155 1.502 . S
C2157 H2143 0.960 . S
C2157 H2144 0.961 . S
C2157 H2145 0.959 . S
C2157 C2155 1.561 . S
C2158 C2155 1.526 . S
C2158 C2159 1.396 . S
C2158 C2163 1.390 . S
C2159 C2153 1.465 . S
C2159 C2158 1.396 . S
C2159 C2160 1.399 . S
C2160 H2146 0.929 . S
C2160 C2159 1.399 . S
C2160 C2161 1.385 . S
C2161 H2147 0.931 . S
C2161 C2160 1.385 . S
C2161 C2162 1.389 . S
C2162 C2161 1.389 . S
C2162 C2163 1.387 . S
C2163 H2148 0.930 . S
C2163 C2158 1.390 . S
C2163 C2162 1.387 . S
H2164 C2176 0.930 . S
H2165 C2178 0.930 . S
H2166 C2179 0.930 . S
H2167 C2183 0.959 . S
H2168 C2183 0.959 . S
H2169 C2183 0.961 . S
H2170 C2184 0.960 . S
H2171 C2184 0.961 . S
H2172 C2184 0.959 . S
H2173 C2187 0.929 . S
H2174 C2188 0.931 . S
H2175 C2190 0.930 . S
C2176 H2164 0.930 . S
C2176 C2177 1.399 . S
C2176 C2181 1.399 . S
C2177 C2176 1.399 . S
C2177 C2178 1.376 . S
C2178 H2165 0.930 . S
C2178 C2177 1.376 . S
C2178 C2179 1.388 . S
C2179 H2166 0.930 . S
C2179 C2178 1.388 . S
C2179 C2180 1.390 . S
C2180 C2179 1.390 . S
C2180 C2181 1.394 . S
C2180 C2186 1.465 . S
C2181 C2176 1.399 . S
C2181 C2180 1.394 . S
C2181 C2182 1.516 . S
C2182 C2181 1.516 . S
C2182 C2183 1.502 . S
C2182 C2184 1.561 . S
C2182 C2185 1.526 . S
C2183 H2167 0.959 . S
C2183 H2168 0.959 . S
C2183 H2169 0.961 . S
C2183 C2182 1.502 . S
C2184 H2170 0.960 . S
C2184 H2171 0.961 . S
C2184 H2172 0.959 . S
C2184 C2182 1.561 . S
C2185 C2182 1.526 . S
C2185 C2186 1.396 . S
C2185 C2190 1.390 . S
C2186 C2180 1.465 . S
C2186 C2185 1.396 . S
C2186 C2187 1.399 . S
C2187 H2173 0.929 . S
C2187 C2186 1.399 . S
C2187 C2188 1.385 . S
C2188 H2174 0.931 . S
C2188 C2187 1.385 . S
C2188 C2189 1.389 . S
C2189 C2188 1.389 . S
C2189 C2190 1.387 . S
C2190 H2175 0.930 . S
C2190 C2185 1.390 . S
C2190 C2189 1.387 . S
H2191 C2203 0.930 . S
H2192 C2205 0.930 . S
H2193 C2206 0.930 . S
H2194 C2210 0.959 . S
H2195 C2210 0.959 . S
H2196 C2210 0.961 . S
H2197 C2211 0.960 . S
H2198 C2211 0.961 . S
H2199 C2211 0.959 . S
H2200 C2214 0.929 . S
H2201 C2215 0.931 . S
H2202 C2217 0.930 . S
C2203 H2191 0.930 . S
C2203 C2204 1.399 . S
C2203 C2208 1.399 . S
C2204 C2203 1.399 . S
C2204 C2205 1.376 . S
C2205 H2192 0.930 . S
C2205 C2204 1.376 . S
C2205 C2206 1.388 . S
C2206 H2193 0.930 . S
C2206 C2205 1.388 . S
C2206 C2207 1.390 . S
C2207 C2206 1.390 . S
C2207 C2208 1.394 . S
C2207 C2213 1.465 . S
C2208 C2203 1.399 . S
C2208 C2207 1.394 . S
C2208 C2209 1.516 . S
C2209 C2208 1.516 . S
C2209 C2210 1.502 . S
C2209 C2211 1.561 . S
C2209 C2212 1.526 . S
C2210 H2194 0.959 . S
C2210 H2195 0.959 . S
C2210 H2196 0.961 . S
C2210 C2209 1.502 . S
C2211 H2197 0.960 . S
C2211 H2198 0.961 . S
C2211 H2199 0.959 . S
C2211 C2209 1.561 . S
C2212 C2209 1.526 . S
C2212 C2213 1.396 . S
C2212 C2217 1.390 . S
C2213 C2207 1.465 . S
C2213 C2212 1.396 . S
C2213 C2214 1.399 . S
C2214 H2200 0.929 . S
C2214 C2213 1.399 . S
C2214 C2215 1.385 . S
C2215 H2201 0.931 . S
C2215 C2214 1.385 . S
C2215 C2216 1.389 . S
C2216 C2215 1.389 . S
C2216 C2217 1.387 . S
C2217 H2202 0.930 . S
C2217 C2212 1.390 . S
C2217 C2216 1.387 . S
H2218 C2230 0.930 . S
H2219 C2232 0.930 . S
H2220 C2233 0.930 . S
H2221 C2237 0.959 . S
H2222 C2237 0.959 . S
H2223 C2237 0.961 . S
H2224 C2238 0.960 . S
H2225 C2238 0.961 . S
H2226 C2238 0.959 . S
H2227 C2241 0.929 . S
H2228 C2242 0.931 . S
H2229 C2244 0.930 . S
C2230 H2218 0.930 . S
C2230 C2231 1.399 . S
C2230 C2235 1.399 . S
C2231 C2230 1.399 . S
C2231 C2232 1.376 . S
C2232 H2219 0.930 . S
C2232 C2231 1.376 . S
C2232 C2233 1.388 . S
C2233 H2220 0.930 . S
C2233 C2232 1.388 . S
C2233 C2234 1.390 . S
C2234 C2233 1.390 . S
C2234 C2235 1.394 . S
C2234 C2240 1.465 . S
C2235 C2230 1.399 . S
C2235 C2234 1.394 . S
C2235 C2236 1.516 . S
C2236 C2235 1.516 . S
C2236 C2237 1.502 . S
C2236 C2238 1.561 . S
C2236 C2239 1.526 . S
C2237 H2221 0.959 . S
C2237 H2222 0.959 . S
C2237 H2223 0.961 . S
C2237 C2236 1.502 . S
C2238 H2224 0.960 . S
C2238 H2225 0.961 . S
C2238 H2226 0.959 . S
C2238 C2236 1.561 . S
C2239 C2236 1.526 . S
C2239 C2240 1.396 . S
C2239 C2244 1.390 . S
C2240 C2234 1.465 . S
C2240 C2239 1.396 . S
C2240 C2241 1.399 . S
C2241 H2227 0.929 . S
C2241 C2240 1.399 . S
C2241 C2242 1.385 . S
C2242 H2228 0.931 . S
C2242 C2241 1.385 . S
C2242 C2243 1.389 . S
C2243 C2242 1.389 . S
C2243 C2244 1.387 . S
C2244 H2229 0.930 . S
C2244 C2239 1.390 . S
C2244 C2243 1.387 . S
H2245 C2257 0.930 . S
H2246 C2259 0.930 . S
H2247 C2260 0.930 . S
H2248 C2264 0.959 . S
H2249 C2264 0.959 . S
H2250 C2264 0.961 . S
H2251 C2265 0.960 . S
H2252 C2265 0.961 . S
H2253 C2265 0.959 . S
H2254 C2268 0.929 . S
H2255 C2269 0.931 . S
H2256 C2271 0.930 . S
C2257 H2245 0.930 . S
C2257 C2258 1.399 . S
C2257 C2262 1.399 . S
C2258 C2257 1.399 . S
C2258 C2259 1.376 . S
C2259 H2246 0.930 . S
C2259 C2258 1.376 . S
C2259 C2260 1.388 . S
C2260 H2247 0.930 . S
C2260 C2259 1.388 . S
C2260 C2261 1.390 . S
C2261 C2260 1.390 . S
C2261 C2262 1.394 . S
C2261 C2267 1.465 . S
C2262 C2257 1.399 . S
C2262 C2261 1.394 . S
C2262 C2263 1.516 . S
C2263 C2262 1.516 . S
C2263 C2264 1.502 . S
C2263 C2265 1.561 . S
C2263 C2266 1.526 . S
C2264 H2248 0.959 . S
C2264 H2249 0.959 . S
C2264 H2250 0.961 . S
C2264 C2263 1.502 . S
C2265 H2251 0.960 . S
C2265 H2252 0.961 . S
C2265 H2253 0.959 . S
C2265 C2263 1.561 . S
C2266 C2263 1.526 . S
C2266 C2267 1.396 . S
C2266 C2271 1.390 . S
C2267 C2261 1.465 . S
C2267 C2266 1.396 . S
C2267 C2268 1.399 . S
C2268 H2254 0.929 . S
C2268 C2267 1.399 . S
C2268 C2269 1.385 . S
C2269 H2255 0.931 . S
C2269 C2268 1.385 . S
C2269 C2270 1.389 . S
C2270 C2269 1.389 . S
C2270 C2271 1.387 . S
C2271 H2256 0.930 . S
C2271 C2266 1.390 . S
C2271 C2270 1.387 . S
C1421 C1377 0.507 . S
C1433 C29 0.514 . S
C1448 C1105 0.517 . S
C1460 C108 0.507 . S
C1475 C233 0.513 . S
C1487 C1193 0.519 . S
C1502 C1289 0.526 . S
C1514 C293 0.522 . S
C1529 C821 0.509 . S
C1541 C401 0.507 . S
C1556 C489 0.518 . S
C1568 C937 0.512 . S
C1583 C577 0.518 . S
C1595 C997 0.515 . S
C1610 C673 0.516 . S
C1622 C724 0.508 . S
C1637 C460 1.451 . S
C1649 C20 1.444 . S
C1664 C557 1.470 . S
C1676 C145 1.461 . S
C1691 C645 1.471 . S
C1703 C225 1.461 . S
C1718 C321 1.493 . S
C1730 C381 1.490 . S
C1745 C57 1.469 . S
C1757 C137 1.477 . S
C1772 C196 1.443 . S
C1784 C117 1.447 . S
C1799 C205 1.488 . S
C1811 C284 1.488 . S
C1826 C49 1.477 . S
C1838 C313 1.478 . S
C1853 C665 1.447 . S
C1865 C409 1.448 . S
C1880 C372 1.462 . S
C1892 C469 1.452 . S
C1907 C497 1.481 . S
C1919 C585 1.481 . S
C1934 C636 1.486 . S
C1946 C548 1.485 . S
C1961 C1164 1.451 . S
C1973 C733 1.445 . S
C1988 C841 1.489 . S
C2000 C1252 1.486 . S
C2015 C1349 1.457 . S
C2027 C929 1.447 . S
C2042 C1085 1.468 . S
C2054 C1025 1.484 . S
C2069 C753 1.462 . S
C2081 C849 1.461 . S
C2096 C812 1.476 . S
C2108 C900 1.469 . S
C2123 C988 1.477 . S
C2135 C909 1.484 . S
C2150 C761 1.478 . S
C2162 C1017 1.476 . S
C2177 C1369 1.434 . S
C2189 C1113 1.435 . S
C2204 C1076 1.462 . S
C2216 C1173 1.451 . S
C2231 C1201 1.444 . S
C2243 C1281 1.447 . S
C2258 C1340 1.487 . S
C2270 C1261 1.486 . S
