# Generated by pormake.
# Topology sxb, (6)-cn, num edge types: 1
# Building blocks:
#     Node 0, Type 0, BuildingBlock: KUMJIN_clean_sbu_0, # of connection points: 6
#     Node 1, Type 0, BuildingBlock: KUMJIN_clean_sbu_0, # of connection points: 6
#     Node 2, Type 0, BuildingBlock: KUMJIN_clean_sbu_0, # of connection points: 6
#     Node 3, Type 0, BuildingBlock: KUMJIN_clean_sbu_0, # of connection points: 6
#     Edge 4, Type (0, 0), BuildingBlock: KIFKEQ_clean_linker_1, # of connection points: 2
#     Edge 5, Type (0, 0), BuildingBlock: KIFKEQ_clean_linker_1, # of connection points: 2
#     Edge 6, Type (0, 0), BuildingBlock: KIFKEQ_clean_linker_1, # of connection points: 2
#     Edge 7, Type (0, 0), BuildingBlock: KIFKEQ_clean_linker_1, # of connection points: 2
#     Edge 8, Type (0, 0), BuildingBlock: KIFKEQ_clean_linker_1, # of connection points: 2
#     Edge 9, Type (0, 0), BuildingBlock: KIFKEQ_clean_linker_1, # of connection points: 2
#     Edge 10, Type (0, 0), BuildingBlock: KIFKEQ_clean_linker_1, # of connection points: 2
#     Edge 11, Type (0, 0), BuildingBlock: KIFKEQ_clean_linker_1, # of connection points: 2
#     Edge 12, Type (0, 0), BuildingBlock: KIFKEQ_clean_linker_1, # of connection points: 2
#     Edge 13, Type (0, 0), BuildingBlock: KIFKEQ_clean_linker_1, # of connection points: 2
#     Edge 14, Type (0, 0), BuildingBlock: KIFKEQ_clean_linker_1, # of connection points: 2
#     Edge 15, Type (0, 0), BuildingBlock: KIFKEQ_clean_linker_1, # of connection points: 2
# Relax obj value: 0.282
# Max RMSD: 0.115
# Mean RMSD: 0.114
data_MOF--net-sxb--node1-KUMJIN_clean_sbu_0--edge1-KIFKEQ_clean_linker_1
_symmetry_space_group_name_H-M    P1
_symmetry_Int_Tables_number       1
_symmetry_cell_setting            triclinic
loop_
_symmetry_equiv_pos_as_xyz
'x, y, z'
_cell_length_a     17.682361
_cell_length_b     34.168519
_cell_length_c     31.404893
_cell_angle_alpha  101.63789
_cell_angle_beta   113.72233
_cell_angle_gamma 72.895567
loop_
_atom_site_label
_atom_site_type_symbol
_atom_site_fract_x
_atom_site_fract_y
_atom_site_fract_z
_atom_type_partial_charge
Eu0 Eu 0.95507 1.03648 0.94624 0.0
C1 C 0.13054 0.14612 0.06795 0.0
C2 C 0.11843 0.19094 0.01327 0.0
C3 C 0.12619 0.21912 0.09172 0.0
C4 C 0.12668 0.1512 0.02407 0.0
C5 C 0.13091 0.18028 0.10215 0.0
C6 C 0.11939 0.22448 0.04737 0.0
C7 C 0.14153 0.13582 0.15573 0.0
N8 N 0.13334 0.10838 0.07733 0.0
C9 C 0.14183 0.10293 0.12134 0.0
C10 C 0.13573 0.17472 0.14609 0.0
Eu11 Eu 0.14972 0.05349 0.01848 0.0
N12 N 0.12551 0.1183 -0.0089 0.0
C13 C 0.11012 0.12442 0.94627 0.0
C14 C 0.10633 0.19639 0.96793 0.0
C15 C 0.10078 0.1631 0.93416 0.0
H16 H 0.15438 0.0728 0.13167 0.0
H17 H 0.08837 0.16722 0.89847 0.0
H18 H 0.11352 0.25494 0.03953 0.0
H19 H 0.1483 0.13083 0.19018 0.0
H20 H 0.10113 0.10069 0.91856 0.0
H21 H 0.95782 0.92844 0.05632 0.0
H22 H 0.09861 0.22644 0.95829 0.0
H23 H 0.91143 1.01966 0.82722 0.0
H24 H 0.92498 0.99583 0.03049 0.0
H25 H 0.90069 0.96206 0.76673 0.0
H26 H 0.12639 0.24545 0.11759 0.0
H27 H 0.99095 0.86598 0.00559 0.0
H28 H 0.99461 0.83512 0.9275 0.0
H29 H 0.13649 0.20015 0.17308 0.0
H30 H 0.97371 0.84438 0.84781 0.0
N31 N 0.95881 0.97365 0.97022 0.0
C32 C 0.9483 0.96977 0.00992 0.0
C33 C 0.98139 0.89594 -0.00489 0.0
C34 C 0.98001 0.90001 0.95145 0.0
C35 C 0.9632 0.93107 0.02393 0.0
C36 C 0.96908 0.93972 0.9397 0.0
H37 H 0.93492 0.89137 0.78744 0.0
N38 N 0.95009 0.98287 0.88372 0.0
C39 C 0.91894 0.95657 0.80269 0.0
C40 C 0.9619 0.94459 0.89507 0.0
C41 C 0.92475 0.98931 0.8376 0.0
C42 C 0.93866 0.91678 0.81458 0.0
C43 C 0.95935 0.91036 0.86091 0.0
O44 O 0.85427 0.05907 0.88331 0.0
O45 O 1.01222 0.09283 -0.01539 0.0
O46 O 0.09319 1.03338 0.06061 0.0
O47 O 0.95073 0.05594 0.02014 0.0
O48 O 0.89022 0.10621 0.94261 0.0
O49 O 0.82588 1.03284 0.93136 0.0
O50 O 0.24858 0.04385 0.08688 0.0
O51 O 0.09257 0.99697 0.98015 0.0
O52 O 1.03031 1.03285 0.90066 0.0
O53 O 0.16914 1.0343 0.94861 0.0
O54 O 0.21763 0.98372 0.01848 0.0
O55 O 0.27629 0.0608 0.03301 0.0
C56 C 0.94634 0.12519 0.97149 0.0
C57 C 0.72598 0.09099 0.89372 0.0
C58 C 0.60836 0.12735 0.91823 0.0
C59 C 0.67645 0.09358 0.91933 0.0
C60 C 0.59274 0.16054 0.89359 0.0
C61 C 0.71065 0.12429 0.86878 0.0
C62 C 0.64544 0.15927 0.86967 0.0
C63 C 1.01532 0.04732 0.05989 0.0
C64 C 0.79514 0.05409 0.89495 0.0
C65 C 0.97373 0.87094 0.87338 0.0
C66 C 0.98537 0.8657 0.91871 0.0
C67 C 0.159 0.9647 -0.00765 0.0
C68 C 0.37817 1.00891 0.08036 0.0
C69 C 0.41668 0.99667 0.04759 0.0
C70 C 0.47138 0.95784 0.04615 0.0
C71 C 0.49147 0.93133 0.07981 0.0
C72 C 0.39814 0.9823 0.11424 0.0
C73 C 0.45466 0.9437 0.1139 0.0
C74 C 0.11103 1.0275 0.90695 0.0
C75 C 0.30779 0.04593 0.07367 0.0
H76 H 0.68677 0.06762 0.93772 0.0
H77 H 0.53881 0.18638 0.89157 0.0
H78 H 0.74908 0.12343 0.84892 0.0
H79 H 0.63403 0.18475 0.8505 0.0
H80 H 0.40363 1.01766 0.02241 0.0
H81 H 0.53593 0.90172 0.08008 0.0
H82 H 0.36847 0.9908 0.14005 0.0
H83 H 0.46953 0.92333 0.13993 0.0
Eu84 Eu 0.06206 1.00572 0.47255 0.0
C85 C 0.8382 0.14629 0.48062 0.0
C86 C 0.74226 0.14227 0.39977 0.0
C87 C 0.69869 0.1936 0.45644 0.0
C88 C 0.82264 0.12907 0.43468 0.0
C89 C 0.7753 0.17803 0.49197 0.0
C90 C 0.68212 0.17572 0.41045 0.0
C91 C 0.86388 0.17408 0.57349 0.0
N92 N 0.91173 0.13001 0.51471 0.0
C93 C 0.92413 0.14276 0.56082 0.0
C94 C 0.78962 0.19226 0.53891 0.0
Eu95 Eu 1.019 0.08605 0.48858 0.0
N96 N 0.88139 0.0962 0.42537 0.0
C97 C 0.8554 0.07031 0.38554 0.0
C98 C 0.72212 0.11965 0.356 0.0
C99 C 0.77763 0.08254 0.34952 0.0
H100 H 0.98278 0.13103 0.58832 0.0
H101 H 0.75981 0.06288 0.31722 0.0
H102 H 0.62078 0.18668 0.38383 0.0
H103 H 0.87564 0.18471 0.60996 0.0
H104 H 0.89363 1.04007 0.38102 0.0
H105 H 0.32775 1.02622 0.64158 0.0
H106 H 0.66116 0.12883 0.3283 0.0
H107 H 0.09233 0.9613 0.37083 0.0
H108 H 0.19175 0.04995 0.57937 0.0
H109 H 0.19806 0.90859 0.34713 0.0
H110 H 0.65022 0.21829 0.46451 0.0
H111 H 0.42413 0.96011 0.6285 0.0
H112 H 0.46062 0.90273 0.57154 0.0
H113 H 0.74288 0.21663 0.54888 0.0
H114 H 0.42736 0.87228 0.49031 0.0
N115 N 0.20119 0.99412 0.53423 0.0
C116 C 0.2293 1.01962 0.57414 0.0
C117 C 0.36233 0.96967 0.60158 0.0
C118 C 0.3398 0.94747 0.55761 0.0
C119 C 0.30812 1.00687 0.60919 0.0
C120 C 0.25844 0.96116 0.5237 0.0
H121 H 0.33213 0.87562 0.40655 0.0
N122 N 0.166 0.96122 0.44422 0.0
C123 C 0.21114 0.91844 0.38387 0.0
C124 C 0.24048 0.94448 0.47742 0.0
C125 C 0.15161 0.94921 0.3978 0.0
C126 C 0.28615 0.89968 0.41751 0.0
C127 C 0.30229 0.91298 0.46479 0.0
O128 O 0.99172 0.97107 0.41049 0.0
O129 O 0.93432 1.04069 0.4805 0.0
O130 O 1.0401 0.06411 0.5588 0.0
O131 O 0.07999 0.99515 0.54514 0.0
O132 O 0.93103 1.04143 0.48067 0.0
O133 O 0.06775 0.94184 0.47633 0.0
O134 O 0.08748 0.12139 0.55109 0.0
O135 O 0.14729 0.05139 0.48119 0.0
O136 O 1.04333 1.0275 0.40309 0.0
O137 O 1.00536 0.09656 0.4164 0.0
O138 O 0.15065 0.05074 0.48105 0.0
O139 O 1.00815 0.15029 0.48578 0.0
C140 C 0.87398 1.0216 0.47726 0.0
C141 C 0.9994 0.89984 0.40875 0.0
C142 C 0.93036 0.84757 0.40363 0.0
C143 C 0.95044 0.88503 0.42361 0.0
C144 C 0.96195 0.82389 0.36973 0.0
C145 C 1.02857 0.87751 0.37345 0.0
C146 C 1.01071 0.83917 0.3544 0.0
C147 C 0.06202 1.02729 0.5733 0.0
C148 C 1.02124 0.93793 0.43206 0.0
C149 C 0.37981 0.89684 0.49938 0.0
C150 C 0.39857 0.91406 0.54569 0.0
C151 C 0.20767 0.07063 0.48469 0.0
C152 C 0.08324 0.19122 0.54955 0.0
C153 C 0.14191 0.19799 0.535 0.0
C154 C 0.16437 0.23535 0.54865 0.0
C155 C 0.12914 0.26598 0.57706 0.0
C156 C 0.04842 0.22093 0.57878 0.0
C157 C 0.07163 0.25846 0.5926 0.0
C158 C 1.02346 0.06408 0.38858 0.0
C159 C 0.05136 0.15514 0.53042 0.0
H160 H 0.92827 0.9026 0.45108 0.0
H161 H 0.94783 0.79422 0.35484 0.0
H162 H 0.06577 0.88912 0.36108 0.0
H163 H 1.03446 0.82139 0.32781 0.0
H164 H 0.1674 0.17498 0.51168 0.0
H165 H 0.14599 0.29543 0.58692 0.0
H166 H 1.00193 0.21556 0.58977 0.0
H167 H 1.04407 0.28185 0.61455 0.0
Eu168 Eu 0.45195 0.53492 0.94775 0.0
C169 C 0.60942 0.65007 0.04611 0.0
C170 C 0.61988 0.68527 -0.01042 0.0
C171 C 0.58933 0.7246 0.05667 0.0
C172 C 0.62422 0.64842 0.00534 0.0
C173 C 0.59623 0.6881 0.07325 0.0
C174 C 0.59939 0.72325 0.01449 0.0
C175 C 0.60134 0.65147 0.13267 0.0
N176 N 0.61297 0.61457 0.06083 0.0
C177 C 0.61394 0.61477 0.10468 0.0
C178 C 0.59114 0.68844 0.11663 0.0
Eu179 Eu 0.64511 0.5532 0.0136 0.0
N180 N 0.64903 0.61107 -0.01682 0.0
C181 C 0.68098 0.60905 0.9494 0.0
C182 C 0.64066 0.68292 0.95054 0.0
C183 C 0.67337 0.64463 0.93111 0.0
H184 H 0.62915 0.58669 0.11979 0.0
H185 H 0.69523 0.6425 0.90292 0.0
H186 H 0.59518 0.75171 0.00254 0.0
H187 H 0.60161 0.65105 0.16712 0.0
H188 H 0.71397 0.58034 0.93646 0.0
H189 H 0.39834 0.44755 0.05903 0.0
H190 H 0.63684 0.71051 0.93703 0.0
H191 H 0.47044 0.49989 0.84261 0.0
H192 H 0.3797 0.50907 0.02428 0.0
H193 H 0.50035 0.43487 0.7967 0.0
H194 H 0.57725 0.75403 0.07655 0.0
H195 H 0.45968 0.37916 0.027 0.0
H196 H 0.50477 0.33695 0.96298 0.0
H197 H 0.58178 0.71693 0.13851 0.0
H198 H 0.52516 0.33343 0.88941 0.0
N199 N 0.44739 0.47768 0.97905 0.0
C200 C 0.41377 0.4802 0.01225 0.0
C201 C 0.45581 0.40648 0.01297 0.0
C202 C 0.47819 0.40349 0.97436 0.0
C203 C 0.42141 0.44499 0.03123 0.0
C204 C 0.47372 0.44003 0.95792 0.0
H205 H 0.52117 0.36951 0.82673 0.0
N206 N 0.48636 0.47292 0.90211 0.0
C207 C 0.5 0.43498 0.83112 0.0
C208 C 0.48987 0.43771 0.91743 0.0
C209 C 0.4861 0.47207 0.8583 0.0
C210 C 0.5107 0.3983 0.84795 0.0
C211 C 0.50459 0.39931 0.89122 0.0
O212 O 0.36818 0.54752 0.87637 0.0
O213 O 0.50457 0.59242 -0.01525 0.0
O214 O 0.59214 0.53157 0.05656 0.0
O215 O 0.44895 0.55538 0.02101 0.0
O216 O 0.37595 0.60319 0.95247 0.0
O217 O 0.32566 0.52393 0.91968 0.0
O218 O 0.72953 0.54048 0.0847 0.0
O219 O 0.59244 0.49583 0.97663 0.0
O220 O 0.50469 0.55645 0.90463 0.0
O221 O 0.6479 0.53293 0.94031 0.0
O222 O 0.72105 0.48508 0.00883 0.0
O223 O 0.77292 0.5623 0.04033 0.0
C224 C 0.43477 0.62338 0.97419 0.0
C225 C 0.22503 0.57219 0.86755 0.0
C226 C 0.10137 0.61233 0.88516 0.0
C227 C 0.17517 0.58087 0.89444 0.0
C228 C 0.07548 0.63544 0.84751 0.0
C229 C 0.20019 0.59551 0.83 0.0
C230 C 0.12559 0.6271 0.82013 0.0
C231 C 0.51619 0.54477 0.05875 0.0
C232 C 0.30395 0.53988 0.88066 0.0
C233 C 0.51184 0.36313 0.90855 0.0
C234 C 0.50037 0.36517 0.95048 0.0
C235 C 0.66231 0.46493 -0.01278 0.0
C236 C 0.87046 0.51209 0.09093 0.0
C237 C 0.91965 0.50211 0.06347 0.0
C238 C 0.99593 0.47224 0.07506 0.0
C239 C 1.02126 0.44985 0.11328 0.0
C240 C 0.89452 0.48926 0.1288 0.0
C241 C 0.96911 0.45774 0.13938 0.0
C242 C 0.58069 0.54336 0.90252 0.0
C243 C 0.79443 0.54612 0.07921 0.0
H244 H 0.19276 0.56244 0.92286 0.0
H245 H 1.01711 0.65928 0.8392 0.0
H246 H 0.23823 0.5894 0.80857 0.0
H247 H 0.10635 0.64489 0.79105 0.0
H248 H 0.90232 0.51998 0.03458 0.0
H249 H 0.08172 0.42752 0.12361 0.0
H250 H 0.8564 0.49602 0.15028 0.0
H251 H 0.98802 0.44051 0.16887 0.0
Eu252 Eu 0.5689 0.50407 0.47301 0.0
C253 C 0.35272 0.64704 0.47842 0.0
C254 C 0.25661 0.6417 0.39769 0.0
C255 C 0.21346 0.69453 0.45328 0.0
C256 C 0.3368 0.62858 0.43292 0.0
C257 C 0.29011 0.67953 0.48907 0.0
C258 C 0.19674 0.67568 0.40771 0.0
C259 C 0.37961 0.67807 0.57066 0.0
N260 N 0.42646 0.6316 0.51287 0.0
C261 C 0.43949 0.64599 0.55869 0.0
C262 C 0.30497 0.6953 0.53567 0.0
Eu263 Eu 0.53148 0.58296 0.48875 0.0
N264 N 0.39519 0.59513 0.42424 0.0
C265 C 0.36925 0.56941 0.38417 0.0
C266 C 0.23638 0.61874 0.35417 0.0
C267 C 0.29185 0.58163 0.34796 0.0
H268 H 0.49783 0.63424 0.58651 0.0
H269 H 0.27435 0.56195 0.31564 0.0
H270 H 0.13558 0.68646 0.38086 0.0
H271 H 0.39158 0.68973 0.6069 0.0
H272 H 0.40766 0.53945 0.37926 0.0
H273 H 0.82601 0.52391 0.64631 0.0
H274 H 0.17564 0.62789 0.3263 0.0
H275 H 0.60079 0.45247 0.37518 0.0
H276 H 0.69314 0.54702 0.58252 0.0
H277 H 0.70824 0.39813 0.35413 0.0
H278 H 0.16526 0.71977 0.46082 0.0
H279 H 0.92456 0.45803 0.63523 0.0
H280 H 0.965 0.40013 0.58012 0.0
H281 H 0.25838 0.72022 0.54509 0.0
H282 H 0.93558 0.36765 0.49983 0.0
N283 N 0.70524 0.49142 0.53737 0.0
C284 C 0.73131 0.51696 0.57759 0.0
C285 C 0.86388 0.46736 0.60739 0.0
C286 C 0.84377 0.44474 0.56364 0.0
C287 C 0.8085 0.50444 0.61383 0.0
C288 C 0.76354 0.45802 0.5285 0.0
H289 H 0.84252 0.36798 0.41554 0.0
N290 N 0.67327 0.45516 0.44864 0.0
C291 C 0.72019 0.40944 0.39046 0.0
C292 C 0.74747 0.43981 0.48289 0.0
C293 C 0.65962 0.44084 0.40278 0.0
C294 C 0.79552 0.39242 0.42522 0.0
C295 C 0.81035 0.40771 0.47194 0.0
O296 O 0.49122 0.474 0.40822 0.0
O297 O 0.44093 0.5401 0.4798 0.0
O298 O 0.53955 0.56241 0.55646 0.0
O299 O 0.58213 0.49337 0.54477 0.0
O300 O 0.43764 0.54072 0.47991 0.0
O301 O 0.56615 0.44151 0.47177 0.0
O302 O 0.60683 0.6131 0.5533 0.0
O303 O 0.65963 0.54692 0.48217 0.0
O304 O 0.56106 0.52455 0.40535 0.0
O305 O 0.51818 0.59363 0.41701 0.0
O306 O 0.66294 0.54628 0.48205 0.0
O307 O 0.53353 0.64635 0.49027 0.0
C308 C 0.38077 0.52054 0.47569 0.0
C309 C 0.48367 0.40402 0.4053 0.0
C310 C 0.44674 0.34481 0.41404 0.0
C311 C 0.48218 0.37831 0.43359 0.0
C312 C 0.41518 0.33568 0.36536 0.0
C313 C 0.45188 0.3957 0.35656 0.0
C314 C 0.41837 0.36109 0.33665 0.0
C315 C 0.5594 0.52593 0.57116 0.0
C316 C 0.51404 0.44044 0.42827 0.0
C317 C 0.88721 0.39263 0.50759 0.0
C318 C 0.90379 0.41101 0.55335 0.0
C319 C 0.7201 0.56629 0.48634 0.0
C320 C 0.61112 0.68377 0.56022 0.0
C321 C 0.60915 0.71285 0.53474 0.0
C322 C 0.6522 0.74372 0.55693 0.0
C323 C 0.68588 0.74946 0.60596 0.0
C324 C 0.64529 0.68868 0.60919 0.0
C325 C 0.68045 0.72237 0.63203 0.0
C326 C 0.54091 0.56106 0.39062 0.0
C327 C 0.5824 0.64743 0.53443 0.0
H328 H 0.50569 0.38525 0.47131 0.0
H329 H 0.3859 0.30992 0.34971 0.0
H330 H 0.45255 0.41584 0.3342 0.0
H331 H 0.39328 0.35446 0.29908 0.0
H332 H 0.58129 0.70914 0.49684 0.0
H333 H 0.71993 0.77327 0.6239 0.0
H334 H 0.64568 0.66645 0.62952 0.0
H335 H 0.70723 0.7263 0.6698 0.0
H336 H 0.42288 0.68613 0.05225 0.0
H337 H 0.36112 0.6815 0.90546 0.0
H338 H 0.36041 0.76083 0.05511 0.0
H339 H 0.29414 0.75562 0.90728 0.0
H340 H 0.14047 0.89978 0.91144 0.0
H341 H 0.20392 0.82486 0.90829 0.0
H342 H 0.32139 0.83425 0.05768 0.0
H343 H 0.2566 0.90819 0.06044 0.0
C344 C 0.39987 0.70048 0.02024 0.0
C345 C 0.40782 0.67429 0.9793 0.0
C346 C 0.36035 0.74511 0.02157 0.0
C347 C 0.31878 0.7689 -0.01848 0.0
C348 C 0.3237 0.74226 0.94027 0.0
C349 C 0.36497 0.69793 0.93928 0.0
C350 C 0.17628 0.88642 0.94429 0.0
C351 C 0.18486 0.91378 -0.01338 0.0
C352 C 0.21623 0.84168 0.94251 0.0
C353 C 0.27141 0.81893 -0.01727 0.0
C354 C 0.28055 0.84664 0.02469 0.0
C355 C 0.24092 0.89099 0.02634 0.0
H356 H 0.67999 0.40277 0.91006 0.0
H357 H 0.73077 0.40679 0.05561 0.0
H358 H 0.74457 0.32831 0.9077 0.0
H359 H 0.79939 0.33288 0.05434 0.0
H360 H 0.95384 0.18943 0.05209 0.0
H361 H 0.88852 0.26405 0.05469 0.0
H362 H 0.78849 0.25538 0.90495 0.0
H363 H 0.85595 0.18173 0.90289 0.0
C364 C 0.70111 0.38829 0.94181 0.0
C365 C 0.68955 0.41415 -0.01785 0.0
C366 C 0.74174 0.34383 0.9408 0.0
C367 C 0.7808 0.32002 0.98075 0.0
C368 C 0.77204 0.34633 0.02147 0.0
C369 C 0.72976 0.3905 0.02211 0.0
C370 C 0.92208 0.20298 0.01924 0.0
C371 C 0.91946 0.176 0.97718 0.0
C372 C 0.8808 0.24749 0.02058 0.0
C373 C 0.82964 0.27027 0.98003 0.0
C374 C 0.82604 0.24292 0.93823 0.0
C375 C 0.86727 0.19879 0.93701 0.0
H376 H 0.12 0.28347 0.48124 0.0
H377 H 0.33238 0.20172 0.57367 0.0
H378 H 0.21713 0.30268 0.45617 0.0
H379 H 0.43086 0.22187 0.54939 0.0
H380 H 0.4871 0.26226 0.4173 0.0
H381 H 0.44047 0.22627 0.45905 0.0
H382 H 0.34 0.3428 0.52406 0.0
H383 H 0.38204 0.3787 0.48129 0.0
C384 C 0.18767 0.26985 0.49597 0.0
C385 C 0.22087 0.24299 0.53058 0.0
C386 C 0.2426 0.28049 0.48174 0.0
C387 C 0.33047 0.26456 0.50263 0.0
C388 C 0.36306 0.23476 0.53406 0.0
C389 C 0.30759 0.22369 0.54795 0.0
C390 C 0.45628 0.27977 0.44116 0.0
C391 C 0.43509 0.32278 0.44507 0.0
C392 C 0.43158 0.25937 0.46552 0.0
C393 C 0.3861 0.28234 0.49346 0.0
C394 C 0.3751 0.32501 0.50222 0.0
C395 C 0.39845 0.34534 0.47754 0.0
H396 H 0.97317 0.77777 0.44324 0.0
H397 H 0.77497 0.88834 0.40426 0.0
H398 H 0.89136 0.75718 0.47778 0.0
H399 H 0.69161 0.86732 0.43807 0.0
H400 H 0.65297 0.82472 0.56361 0.0
H401 H 0.70957 0.85387 0.52059 0.0
H402 H 0.75251 0.73612 0.441 0.0
H403 H 0.70435 0.70642 0.48568 0.0
C404 C 0.911 0.79689 0.44108 0.0
C405 C 0.87814 0.83357 0.42003 0.0
C406 C 0.86469 0.78547 0.46091 0.0
C407 C 0.7849 0.81048 0.45928 0.0
C408 C 0.75276 0.84768 0.4391 0.0
C409 C 0.79956 0.85928 0.41953 0.0
C410 C 0.67444 0.80542 0.53682 0.0
C411 C 0.67486 0.76356 0.52818 0.0
C412 C 0.70532 0.82206 0.51193 0.0
C413 C 0.73612 0.7967 0.47846 0.0
C414 C 0.73011 0.75582 0.46734 0.0
C415 C 0.70161 0.73909 0.49267 0.0
H416 H 0.40226 0.94738 0.95098 0.0
H417 H 0.63597 0.95546 0.0662 0.0
H418 H 0.41549 1.00014 0.91559 0.0
H419 H 0.65489 1.00597 0.02939 0.0
H420 H 0.61344 0.13351 0.0071 0.0
H421 H 0.59153 0.07521 0.0302 0.0
H422 H 0.45788 1.03898 0.88458 0.0
H423 H 0.4717 0.09967 0.8632 0.0
C424 C 0.4607 0.95786 0.9667 0.0
C425 C 0.5145 0.95033 0.01298 0.0
C426 C 0.46726 0.98928 0.94699 0.0
C427 C 0.53282 1.01 0.97166 0.0
C428 C 0.59976 0.9931 0.01132 0.0
C429 C 0.59124 0.96259 0.03146 0.0
C430 C 0.57324 0.11489 0.98075 0.0
C431 C 0.54598 0.12021 0.93332 0.0
C432 C 0.56445 0.08013 -0.00648 0.0
C433 C 0.528 0.05056 0.95894 0.0
C434 C 0.48763 0.06031 0.91236 0.0
C435 C 0.49337 0.09598 0.90005 0.0
H436 H 0.34754 0.99047 0.47517 0.0
H437 H 0.3083 0.1212 0.48869 0.0
H438 H 0.49079 0.98337 0.4745 0.0
H439 H 0.44896 0.11438 0.48773 0.0
H440 H 0.73391 0.10182 0.48645 0.0
H441 H 0.59066 0.10897 0.48707 0.0
H442 H 0.63281 0.97797 0.47443 0.0
H443 H 0.7735 0.97112 0.47351 0.0
C444 C 0.36628 1.01848 0.47795 0.0
C445 C 0.30582 0.05716 0.48196 0.0
C446 C 0.45312 1.01436 0.47758 0.0
C447 C 0.49179 0.04804 0.48105 0.0
C448 C 0.4308 0.08608 0.48485 0.0
C449 C 0.34539 0.09007 0.48533 0.0
C450 C 0.71525 0.07383 0.48378 0.0
C451 C 0.77582 1.03515 0.47995 0.0
C452 C 0.6284 0.07798 0.48413 0.0
C453 C 0.58981 0.04431 0.48081 0.0
C454 C 0.6509 1.00626 0.47718 0.0
C455 C 0.73632 1.00226 0.47672 0.0
H456 H 0.99214 0.44302 -0.01303 0.0
H457 H 0.11913 0.51226 0.11294 0.0
H458 H 1.00554 0.48734 0.94057 0.0
H459 H 0.12284 0.55997 0.06835 0.0
H460 H 0.13935 0.63959 0.97629 0.0
H461 H 0.13907 0.59534 0.02607 0.0
H462 H 0.94661 0.54506 0.90899 0.0
H463 H 0.95753 0.58631 0.85856 0.0
C464 C 1.02704 0.4666 0.00471 0.0
C465 C 0.05353 0.47475 0.05342 0.0
C466 C 1.03059 0.49377 0.97811 0.0
C467 C 0.05935 0.52994 -0.00018 0.0
C468 C 0.09835 0.53366 0.04901 0.0
C469 C 0.09846 0.50534 0.07532 0.0
C470 C 0.09347 0.62066 0.96194 0.0
C471 C 0.05097 0.61513 0.91344 0.0
C472 C 0.09469 0.59392 -0.00952 0.0
C473 C 1.04726 0.56354 0.97164 0.0
C474 C 0.98972 0.56519 0.92477 0.0
C475 C 0.99202 0.59064 0.89587 0.0
H476 H 0.27694 0.46957 0.46466 0.0
H477 H 0.24674 0.59988 0.49307 0.0
H478 H 0.13704 0.47562 0.46618 0.0
H479 H 0.10409 0.60618 0.49455 0.0
H480 H 0.82437 0.61692 0.49741 0.0
H481 H 0.96423 0.61069 0.49584 0.0
H482 H 0.99649 0.48017 0.46724 0.0
H483 H 0.85373 0.48667 0.46875 0.0
C484 C 0.24179 0.50043 0.47136 0.0
C485 C 0.28311 0.53352 0.47846 0.0
C486 C 0.15703 0.50394 0.47226 0.0
C487 C 0.09901 0.54159 0.48052 0.0
C488 C 0.13956 0.57547 0.48781 0.0
C489 C 0.22574 0.57185 0.4869 0.0
C490 C 0.85934 0.58604 0.49065 0.0
C491 C 0.81776 0.55305 0.48351 0.0
C492 C 0.94409 0.58241 0.48971 0.0
C493 C 1.00192 0.54473 0.48138 0.0
C494 C 0.96116 0.51091 0.47405 0.0
C495 C 0.87493 0.51465 0.47498 0.0
H496 H 1.0315 0.12733 0.3477 0.0
H497 H 0.98376 1.00595 0.31568 0.0
H498 H 1.01924 0.12615 0.26615 0.0
H499 H 0.97368 1.00461 0.23585 0.0
H500 H 0.8913 0.10107 0.09052 0.0
H501 H 0.8862 0.11022 0.16956 0.0
H502 H 0.10864 1.01047 0.21075 0.0
H503 H 0.1141 1.00135 0.13295 0.0
C504 C 1.01764 0.10067 0.32339 0.0
C505 C 1.01035 0.0664 0.33877 0.0
C506 C 1.0104 0.10003 0.27669 0.0
C507 C 0.9956 0.06518 0.24455 0.0
C508 C 0.98568 1.03174 0.25972 0.0
C509 C 0.99239 1.03244 0.30583 0.0
C510 C 0.93828 0.08079 0.11631 0.0
C511 C 1.00277 0.05032 0.10508 0.0
C512 C 0.93612 0.08643 0.16173 0.0
C513 C 0.99766 0.06132 0.19657 0.0
C514 C 0.06049 1.03035 0.18483 0.0
C515 C 0.06314 1.02499 0.14 0.0
H516 H 0.19094 0.07017 0.87803 0.0
H517 H 0.08126 0.96542 0.83742 0.0
H518 H 0.1877 0.06703 0.79902 0.0
H519 H 0.0685 0.96451 0.75707 0.0
H520 H 0.0915 0.95782 0.61593 0.0
H521 H 0.11994 0.95311 0.69794 0.0
H522 H 0.096 0.08447 0.72579 0.0
H523 H 0.07258 0.0884 0.64533 0.0
C524 C 0.16521 0.04661 0.85213 0.0
C525 C 0.13092 1.01965 0.8634 0.0
C526 C 0.16207 0.04508 0.80624 0.0
C527 C 0.12436 1.0166 0.77013 0.0
C528 C 0.09699 0.98742 0.78287 0.0
C529 C 0.10196 0.98855 0.82889 0.0
C530 C 0.09259 0.98563 0.63969 0.0
C531 C 0.07812 1.02362 0.62332 0.0
C532 C 0.10847 0.98306 0.68699 0.0
C533 C 0.1106 1.01842 0.71957 0.0
C534 C 0.09664 0.05622 0.70284 0.0
C535 C 0.08127 0.05868 0.65587 0.0
H536 H 0.61645 0.5014 0.34015 0.0
H537 H 0.45443 0.62399 0.33172 0.0
H538 H 0.59823 0.497 0.25971 0.0
H539 H 0.44221 0.62134 0.2502 0.0
H540 H 0.38333 0.58562 0.08955 0.0
H541 H 0.38597 0.59261 0.16974 0.0
H542 H 0.6443 0.51869 0.21336 0.0
H543 H 0.63875 0.509 0.13454 0.0
C544 C 0.5771 0.52775 0.32113 0.0
C545 C 0.53614 0.56278 0.34257 0.0
C546 C 0.56778 0.52556 0.27465 0.0
C547 C 0.51965 0.55901 0.24788 0.0
C548 C 0.47933 0.59475 0.26939 0.0
C549 C 0.48735 0.59658 0.31633 0.0
C550 C 0.43953 0.57006 0.11627 0.0
C551 C 0.51036 0.54645 0.10526 0.0
C552 C 0.44174 0.57463 0.16244 0.0
C553 C 0.51509 0.55592 0.19851 0.0
C554 C 0.58542 0.53258 0.18691 0.0
C555 C 0.58242 0.52722 0.14121 0.0
H556 H 0.64445 0.46288 0.63005 0.0
H557 H 0.48304 0.5856 0.62128 0.0
H558 H 0.65555 0.46563 0.71142 0.0
H559 H 0.50004 0.59003 0.70155 0.0
H560 H 0.4576 0.57797 0.82613 0.0
H561 H 0.45276 0.56789 0.74738 0.0
H562 H 0.71204 0.49519 0.79206 0.0
H563 H 0.71423 0.5027 0.87223 0.0
C564 C 0.6115 0.49036 0.64533 0.0
C565 C 0.56339 0.52421 0.61908 0.0
C566 C 0.61885 0.49223 0.69217 0.0
C567 C 0.57841 0.52803 0.71353 0.0
C568 C 0.5307 0.56148 0.68672 0.0
C569 C 0.52212 0.55926 0.64036 0.0
C570 C 0.51429 0.55995 0.81972 0.0
C571 C 0.58659 0.54129 0.85597 0.0
C572 C 0.51166 0.55433 0.77406 0.0
C573 C 0.58248 0.53123 0.76281 0.0
C574 C 0.65594 0.51298 0.79914 0.0
C575 C 0.65787 0.51786 0.84528 0.0
loop_
_geom_bond_atom_site_label_1
_geom_bond_atom_site_label_2
_geom_bond_distance
_geom_bond_site_symmetry_2
_ccdc_geom_bond_type
Eu0 N31 2.657 . S
Eu0 N38 2.609 . S
Eu0 O44 2.558 . S
Eu0 O45 2.612 1_566 S
Eu0 O47 2.339 1_556 S
Eu0 O48 2.563 1_565 S
Eu0 O49 2.419 . S
Eu0 O51 2.380 1_655 S
Eu0 O52 2.432 . S
Eu0 C64 2.848 . S
C1 C4 1.429 . S
C1 C5 1.411 . S
C1 N8 1.377 . S
C2 C4 1.420 . S
C2 C6 1.423 . S
C2 C14 1.392 1_554 S
C3 C5 1.420 . S
C3 C6 1.351 . S
C3 H26 0.931 . S
C4 C1 1.429 . S
C4 C2 1.420 . S
C4 N12 1.362 . S
C5 C1 1.411 . S
C5 C3 1.420 . S
C5 C10 1.395 . S
C6 C2 1.423 . S
C6 C3 1.351 . S
C6 H18 0.930 . S
C7 C9 1.400 . S
C7 C10 1.386 . S
C7 H19 0.930 . S
N8 C1 1.377 . S
N8 C9 1.321 . S
N8 Eu11 2.609 . S
C9 C7 1.400 . S
C9 N8 1.321 . S
C9 H16 0.930 . S
C10 C5 1.395 . S
C10 C7 1.386 . S
C10 H29 0.930 . S
Eu11 N8 2.609 . S
Eu11 N12 2.657 . S
Eu11 O45 2.380 1_455 S
Eu11 O46 2.432 . S
Eu11 O50 2.558 . S
Eu11 O51 2.612 1_544 S
Eu11 O53 2.339 1_554 S
Eu11 O54 2.563 1_545 S
Eu11 O55 2.419 . S
Eu11 C75 2.848 . S
N12 C4 1.362 . S
N12 Eu11 2.657 . S
N12 C13 1.334 1_554 S
C13 N12 1.334 1_556 S
C13 C15 1.413 . S
C13 H20 0.929 . S
C14 C2 1.392 1_556 S
C14 C15 1.367 . S
C14 H22 0.930 . S
C15 C13 1.413 . S
C15 C14 1.367 . S
C15 H17 0.930 1_455 S
H16 C9 0.930 . S
H17 C15 0.930 1_655 S
H18 C6 0.930 . S
H19 C7 0.930 . S
H20 C13 0.929 . S
H21 C35 0.930 1_455 S
H22 C14 0.930 . S
H23 C41 0.930 . S
H24 C32 0.929 . S
H25 C39 0.930 . S
H26 C3 0.931 . S
H27 C33 0.930 . S
H28 C66 0.930 . S
H29 C10 0.930 . S
H30 C65 0.931 . S
N31 Eu0 2.657 . S
N31 C32 1.334 1_556 S
N31 C36 1.362 . S
C32 H24 0.929 . S
C32 N31 1.334 1_554 S
C32 C35 1.413 . S
C33 H27 0.930 . S
C33 C34 1.392 1_554 S
C33 C35 1.367 . S
C34 C33 1.392 1_556 S
C34 C36 1.420 . S
C34 C66 1.423 . S
C35 H21 0.930 1_655 S
C35 C32 1.413 . S
C35 C33 1.367 . S
C36 N31 1.362 . S
C36 C34 1.420 . S
C36 C40 1.429 . S
H37 C42 0.930 . S
N38 Eu0 2.609 . S
N38 C40 1.377 . S
N38 C41 1.321 . S
C39 H25 0.930 . S
C39 C41 1.400 . S
C39 C42 1.386 . S
C40 C36 1.429 . S
C40 N38 1.377 . S
C40 C43 1.411 . S
C41 H23 0.930 . S
C41 N38 1.321 . S
C41 C39 1.400 . S
C42 H37 0.930 . S
C42 C39 1.386 . S
C42 C43 1.395 . S
C43 C40 1.411 . S
C43 C42 1.395 . S
C43 C65 1.420 . S
O44 Eu0 2.558 . S
O44 C64 1.257 . S
O45 Eu0 2.612 1_544 S
O45 Eu11 2.380 1_655 S
O45 C56 1.276 1_554 S
O46 Eu11 2.432 . S
O46 C63 1.272 . S
O47 Eu0 2.339 1_554 S
O47 C63 1.242 1_665 S
O48 Eu0 2.563 1_545 S
O48 C56 1.236 . S
O49 Eu0 2.419 . S
O49 C64 1.249 . S
O50 Eu11 2.558 . S
O50 C75 1.257 . S
O51 Eu0 2.380 1_455 S
O51 Eu11 2.612 1_566 S
O51 C67 1.278 1_556 S
O52 Eu0 2.432 . S
O52 C74 1.267 . S
O53 Eu11 2.339 1_556 S
O53 C74 1.250 1_445 S
O54 Eu11 2.563 1_565 S
O54 C67 1.237 . S
O55 Eu11 2.419 . S
O55 C75 1.249 . S
C56 O45 1.276 1_556 S
C56 O48 1.236 . S
C57 C59 1.393 1_565 S
C57 C61 1.395 . S
C57 C64 1.492 . S
C58 C59 1.392 . S
C58 C60 1.386 . S
C59 C57 1.393 1_545 S
C59 C58 1.392 . S
C59 H76 0.930 1_556 S
C60 C58 1.386 . S
C60 C62 1.395 1_545 S
C60 H77 0.930 . S
C61 C57 1.395 . S
C61 C62 1.379 . S
C61 H78 0.930 . S
C62 C60 1.395 1_565 S
C62 C61 1.379 . S
C62 H79 0.930 . S
C63 O46 1.272 . S
C63 O47 1.242 1_445 S
C64 Eu0 2.848 . S
C64 O44 1.257 . S
C64 O49 1.249 . S
C64 C57 1.492 . S
C65 H30 0.931 . S
C65 C43 1.420 . S
C65 C66 1.351 . S
C66 H28 0.930 . S
C66 C34 1.423 . S
C66 C65 1.351 . S
C67 O51 1.278 1_554 S
C67 O54 1.237 . S
C68 C69 1.393 1_545 S
C68 C72 1.395 . S
C68 C75 1.492 . S
C69 C68 1.393 1_565 S
C69 C70 1.392 . S
C69 H80 0.930 1_554 S
C70 C69 1.392 . S
C70 C71 1.393 . S
C71 C70 1.393 . S
C71 C73 1.391 1_565 S
C71 H81 0.928 . S
C72 C68 1.395 . S
C72 C73 1.379 . S
C72 H82 0.930 . S
C73 C71 1.391 1_545 S
C73 C72 1.379 . S
C73 H83 0.930 . S
C74 O52 1.267 . S
C74 O53 1.250 1_665 S
C75 Eu11 2.848 . S
C75 O50 1.257 . S
C75 O55 1.249 . S
C75 C68 1.492 . S
H76 C59 0.930 1_554 S
H77 C60 0.930 . S
H78 C61 0.930 . S
H79 C62 0.930 . S
H80 C69 0.930 1_556 S
H81 C71 0.928 . S
H82 C72 0.930 . S
H83 C73 0.930 . S
Eu84 N115 2.657 . S
Eu84 N122 2.609 . S
Eu84 O128 2.558 1_455 S
Eu84 O129 2.612 1_465 S
Eu84 O131 2.339 . S
Eu84 O132 2.563 1_455 S
Eu84 O133 2.419 1_455 S
Eu84 O135 2.380 . S
Eu84 O136 2.432 1_455 S
Eu84 C148 2.848 1_455 S
C85 C88 1.429 . S
C85 C89 1.411 . S
C85 N92 1.377 . S
C86 C88 1.420 . S
C86 C90 1.423 . S
C86 C98 1.392 . S
C87 C89 1.420 . S
C87 C90 1.351 . S
C87 H110 0.931 . S
C88 C85 1.429 . S
C88 C86 1.420 . S
C88 N96 1.362 . S
C89 C85 1.411 . S
C89 C87 1.420 . S
C89 C94 1.395 . S
C90 C86 1.423 . S
C90 C87 1.351 . S
C90 H102 0.930 . S
C91 C93 1.400 . S
C91 C94 1.386 . S
C91 H103 0.930 . S
N92 C85 1.377 . S
N92 C93 1.321 . S
N92 Eu95 2.609 . S
C93 C91 1.400 . S
C93 N92 1.321 . S
C93 H100 0.930 1_655 S
C94 C89 1.395 . S
C94 C91 1.386 . S
C94 H113 0.930 . S
Eu95 N92 2.609 . S
Eu95 N96 2.657 . S
Eu95 O129 2.380 . S
Eu95 O130 2.432 1_655 S
Eu95 O134 2.558 1_655 S
Eu95 O135 2.612 1_645 S
Eu95 O137 2.339 . S
Eu95 O138 2.563 1_655 S
Eu95 O139 2.419 1_655 S
Eu95 C159 2.848 1_655 S
N96 C88 1.362 . S
N96 Eu95 2.657 . S
N96 C97 1.334 . S
C97 N96 1.334 . S
C97 C99 1.413 . S
C97 H104 0.929 . S
C98 C86 1.392 . S
C98 C99 1.367 . S
C98 H106 0.930 . S
C99 C97 1.413 . S
C99 C98 1.367 . S
C99 H101 0.930 . S
H100 C93 0.930 1_455 S
H101 C99 0.930 . S
H102 C90 0.930 . S
H103 C91 0.930 . S
H104 C97 0.929 . S
H105 C119 0.930 . S
H106 C98 0.930 . S
H107 C125 0.930 1_655 S
H108 C116 0.929 . S
H109 C123 0.930 . S
H110 C87 0.931 . S
H111 C117 0.930 . S
H112 C150 0.930 . S
H113 C94 0.930 . S
H114 C149 0.931 . S
N115 Eu84 2.657 . S
N115 C116 1.334 . S
N115 C120 1.362 . S
C116 H108 0.929 . S
C116 N115 1.334 . S
C116 C119 1.413 . S
C117 H111 0.930 . S
C117 C118 1.392 . S
C117 C119 1.367 . S
C118 C117 1.392 . S
C118 C120 1.420 . S
C118 C150 1.423 . S
C119 H105 0.930 . S
C119 C116 1.413 . S
C119 C117 1.367 . S
C120 N115 1.362 . S
C120 C118 1.420 . S
C120 C124 1.429 . S
H121 C126 0.930 . S
N122 Eu84 2.609 . S
N122 C124 1.377 . S
N122 C125 1.321 . S
C123 H109 0.930 . S
C123 C125 1.400 . S
C123 C126 1.386 . S
C124 C120 1.429 . S
C124 N122 1.377 . S
C124 C127 1.411 . S
C125 H107 0.930 1_455 S
C125 N122 1.321 . S
C125 C123 1.400 . S
C126 H121 0.930 . S
C126 C123 1.386 . S
C126 C127 1.395 . S
C127 C124 1.411 . S
C127 C126 1.395 . S
C127 C149 1.420 . S
O128 Eu84 2.558 1_655 S
O128 C148 1.257 . S
O129 Eu84 2.612 1_645 S
O129 Eu95 2.380 . S
O129 C140 1.276 1_545 S
O130 Eu95 2.432 1_455 S
O130 C147 1.264 1_545 S
O131 Eu84 2.339 . S
O131 C147 1.254 . S
O132 Eu84 2.563 1_655 S
O132 C140 1.235 . S
O133 Eu84 2.419 1_655 S
O133 C148 1.249 . S
O134 Eu95 2.558 1_455 S
O134 C159 1.257 . S
O135 Eu84 2.380 . S
O135 Eu95 2.612 1_465 S
O135 C151 1.276 1_565 S
O136 Eu84 2.432 1_655 S
O136 C158 1.264 1_565 S
O137 Eu95 2.339 . S
O137 C158 1.254 . S
O138 Eu95 2.563 1_455 S
O138 C151 1.235 . S
O139 Eu95 2.419 1_455 S
O139 C159 1.249 . S
C140 O129 1.276 1_565 S
C140 O132 1.235 . S
C141 C143 1.393 . S
C141 C145 1.395 . S
C141 C148 1.492 . S
C142 C143 1.392 . S
C142 C144 1.386 . S
C143 C141 1.393 . S
C143 C142 1.392 . S
C143 H160 0.930 . S
C144 C142 1.386 . S
C144 C146 1.395 . S
C144 H161 0.930 . S
C145 C141 1.395 . S
C145 C146 1.379 . S
C145 H162 0.930 . S
C146 C144 1.395 . S
C146 C145 1.379 . S
C146 H163 0.930 . S
C147 O130 1.264 1_565 S
C147 O131 1.254 . S
C148 Eu84 2.848 1_655 S
C148 O128 1.257 . S
C148 O133 1.249 . S
C148 C141 1.492 . S
C149 H114 0.931 . S
C149 C127 1.420 . S
C149 C150 1.351 . S
C150 H112 0.930 . S
C150 C118 1.423 . S
C150 C149 1.351 . S
C151 O135 1.276 1_545 S
C151 O138 1.235 . S
C152 C153 1.393 . S
C152 C156 1.395 . S
C152 C159 1.492 . S
C153 C152 1.393 . S
C153 C154 1.392 . S
C153 H164 0.930 . S
C154 C153 1.392 . S
C154 C155 1.386 . S
C155 C154 1.386 . S
C155 C157 1.395 . S
C155 H165 0.930 . S
C156 C152 1.395 . S
C156 C157 1.379 . S
C156 H166 0.930 . S
C157 C155 1.395 . S
C157 C156 1.379 . S
C157 H167 0.930 . S
C158 O136 1.264 1_545 S
C158 O137 1.254 . S
C159 Eu95 2.848 1_455 S
C159 O134 1.257 . S
C159 O139 1.249 . S
C159 C152 1.492 . S
H160 C143 0.930 . S
H161 C144 0.930 . S
H162 C145 0.930 . S
H163 C146 0.930 . S
H164 C153 0.930 . S
H165 C155 0.930 . S
H166 C156 0.930 . S
H167 C157 0.930 . S
Eu168 N199 2.657 . S
Eu168 N206 2.609 . S
Eu168 O212 2.558 . S
Eu168 O213 2.612 1_556 S
Eu168 O215 2.339 1_556 S
Eu168 O216 2.563 . S
Eu168 O217 2.419 . S
Eu168 O219 2.380 . S
Eu168 O220 2.432 . S
Eu168 C232 2.848 . S
C169 C172 1.429 . S
C169 C173 1.411 . S
C169 N176 1.377 . S
C170 C172 1.420 . S
C170 C174 1.423 . S
C170 C182 1.392 1_554 S
C171 C173 1.420 . S
C171 C174 1.351 . S
C171 H194 0.931 . S
C172 C169 1.429 . S
C172 C170 1.420 . S
C172 N180 1.362 . S
C173 C169 1.411 . S
C173 C171 1.420 . S
C173 C178 1.395 . S
C174 C170 1.423 . S
C174 C171 1.351 . S
C174 H186 0.930 . S
C175 C177 1.400 . S
C175 C178 1.386 . S
C175 H187 0.930 . S
N176 C169 1.377 . S
N176 C177 1.321 . S
N176 Eu179 2.609 . S
C177 C175 1.400 . S
C177 N176 1.321 . S
C177 H184 0.930 . S
C178 C173 1.395 . S
C178 C175 1.386 . S
C178 H197 0.930 . S
Eu179 N176 2.609 . S
Eu179 N180 2.657 . S
Eu179 O213 2.380 . S
Eu179 O214 2.432 . S
Eu179 O218 2.558 . S
Eu179 O219 2.612 1_554 S
Eu179 O221 2.339 1_554 S
Eu179 O222 2.563 . S
Eu179 O223 2.419 . S
Eu179 C243 2.848 . S
N180 C172 1.362 . S
N180 Eu179 2.657 . S
N180 C181 1.334 1_554 S
C181 N180 1.334 1_556 S
C181 C183 1.413 . S
C181 H188 0.929 . S
C182 C170 1.392 1_556 S
C182 C183 1.367 . S
C182 H190 0.930 . S
C183 C181 1.413 . S
C183 C182 1.367 . S
C183 H185 0.930 . S
H184 C177 0.930 . S
H185 C183 0.930 . S
H186 C174 0.930 . S
H187 C175 0.930 . S
H188 C181 0.929 . S
H189 C203 0.930 . S
H190 C182 0.930 . S
H191 C209 0.930 . S
H192 C200 0.929 . S
H193 C207 0.930 . S
H194 C171 0.931 . S
H195 C201 0.930 . S
H196 C234 0.930 . S
H197 C178 0.930 . S
H198 C233 0.931 . S
N199 Eu168 2.657 . S
N199 C200 1.334 1_556 S
N199 C204 1.362 . S
C200 H192 0.929 . S
C200 N199 1.334 1_554 S
C200 C203 1.413 . S
C201 H195 0.930 . S
C201 C202 1.392 1_554 S
C201 C203 1.367 . S
C202 C201 1.392 1_556 S
C202 C204 1.420 . S
C202 C234 1.423 . S
C203 H189 0.930 . S
C203 C200 1.413 . S
C203 C201 1.367 . S
C204 N199 1.362 . S
C204 C202 1.420 . S
C204 C208 1.429 . S
H205 C210 0.930 . S
N206 Eu168 2.609 . S
N206 C208 1.377 . S
N206 C209 1.321 . S
C207 H193 0.930 . S
C207 C209 1.400 . S
C207 C210 1.386 . S
C208 C204 1.429 . S
C208 N206 1.377 . S
C208 C211 1.411 . S
C209 H191 0.930 . S
C209 N206 1.321 . S
C209 C207 1.400 . S
C210 H205 0.930 . S
C210 C207 1.386 . S
C210 C211 1.395 . S
C211 C208 1.411 . S
C211 C210 1.395 . S
C211 C233 1.420 . S
O212 Eu168 2.558 . S
O212 C232 1.257 . S
O213 Eu168 2.612 1_554 S
O213 Eu179 2.380 . S
O213 C224 1.277 1_554 S
O214 Eu179 2.432 . S
O214 C231 1.264 . S
O215 Eu168 2.339 1_554 S
O215 C231 1.254 . S
O216 Eu168 2.563 . S
O216 C224 1.236 . S
O217 Eu168 2.419 . S
O217 C232 1.249 . S
O218 Eu179 2.558 . S
O218 C243 1.257 . S
O219 Eu168 2.380 . S
O219 Eu179 2.612 1_556 S
O219 C235 1.278 1_556 S
O220 Eu168 2.432 . S
O220 C242 1.264 . S
O221 Eu179 2.339 1_556 S
O221 C242 1.254 . S
O222 Eu179 2.563 . S
O222 C235 1.237 . S
O223 Eu179 2.419 . S
O223 C243 1.249 . S
C224 O213 1.277 1_556 S
C224 O216 1.236 . S
C225 C227 1.393 . S
C225 C229 1.395 . S
C225 C232 1.492 . S
C226 C227 1.392 . S
C226 C228 1.386 . S
C227 C225 1.393 . S
C227 C226 1.392 . S
C227 H244 0.930 1_556 S
C228 C226 1.386 . S
C228 C230 1.395 . S
C228 H245 0.930 1_455 S
C229 C225 1.395 . S
C229 C230 1.379 . S
C229 H246 0.930 . S
C230 C228 1.395 . S
C230 C229 1.379 . S
C230 H247 0.930 . S
C231 O214 1.264 . S
C231 O215 1.254 . S
C232 Eu168 2.848 . S
C232 O212 1.257 . S
C232 O217 1.249 . S
C232 C225 1.492 . S
C233 H198 0.931 . S
C233 C211 1.420 . S
C233 C234 1.351 . S
C234 H196 0.930 . S
C234 C202 1.423 . S
C234 C233 1.351 . S
C235 O219 1.278 1_554 S
C235 O222 1.237 . S
C236 C237 1.393 . S
C236 C240 1.395 . S
C236 C243 1.492 . S
C237 C236 1.393 . S
C237 C238 1.392 . S
C237 H248 0.930 1_554 S
C238 C237 1.392 . S
C238 C239 1.386 . S
C239 C238 1.386 . S
C239 C241 1.395 . S
C239 H249 0.930 1_655 S
C240 C236 1.395 . S
C240 C241 1.379 . S
C240 H250 0.930 . S
C241 C239 1.395 . S
C241 C240 1.379 . S
C241 H251 0.930 . S
C242 O220 1.264 . S
C242 O221 1.254 . S
C243 Eu179 2.848 . S
C243 O218 1.257 . S
C243 O223 1.249 . S
C243 C236 1.492 . S
H244 C227 0.930 1_554 S
H245 C228 0.930 1_655 S
H246 C229 0.930 . S
H247 C230 0.930 . S
H248 C237 0.930 1_556 S
H249 C239 0.930 1_455 S
H250 C240 0.930 . S
H251 C241 0.930 . S
Eu252 N283 2.657 . S
Eu252 N290 2.609 . S
Eu252 O296 2.558 . S
Eu252 O297 2.612 . S
Eu252 O299 2.339 . S
Eu252 O300 2.563 . S
Eu252 O301 2.419 . S
Eu252 O303 2.380 . S
Eu252 O304 2.432 . S
Eu252 C316 2.848 . S
C253 C256 1.429 . S
C253 C257 1.411 . S
C253 N260 1.377 . S
C254 C256 1.420 . S
C254 C258 1.423 . S
C254 C266 1.392 . S
C255 C257 1.420 . S
C255 C258 1.351 . S
C255 H278 0.931 . S
C256 C253 1.429 . S
C256 C254 1.420 . S
C256 N264 1.362 . S
C257 C253 1.411 . S
C257 C255 1.420 . S
C257 C262 1.395 . S
C258 C254 1.423 . S
C258 C255 1.351 . S
C258 H270 0.930 . S
C259 C261 1.400 . S
C259 C262 1.386 . S
C259 H271 0.930 . S
N260 C253 1.377 . S
N260 C261 1.321 . S
N260 Eu263 2.609 . S
C261 C259 1.400 . S
C261 N260 1.321 . S
C261 H268 0.930 . S
C262 C257 1.395 . S
C262 C259 1.386 . S
C262 H281 0.930 . S
Eu263 N260 2.609 . S
Eu263 N264 2.657 . S
Eu263 O297 2.380 . S
Eu263 O298 2.432 . S
Eu263 O302 2.558 . S
Eu263 O303 2.612 . S
Eu263 O305 2.339 . S
Eu263 O306 2.563 . S
Eu263 O307 2.419 . S
Eu263 C327 2.848 . S
N264 C256 1.362 . S
N264 Eu263 2.657 . S
N264 C265 1.334 . S
C265 N264 1.334 . S
C265 C267 1.413 . S
C265 H272 0.929 . S
C266 C254 1.392 . S
C266 C267 1.367 . S
C266 H274 0.930 . S
C267 C265 1.413 . S
C267 C266 1.367 . S
C267 H269 0.930 . S
H268 C261 0.930 . S
H269 C267 0.930 . S
H270 C258 0.930 . S
H271 C259 0.930 . S
H272 C265 0.929 . S
H273 C287 0.930 . S
H274 C266 0.930 . S
H275 C293 0.930 . S
H276 C284 0.929 . S
H277 C291 0.930 . S
H278 C255 0.931 . S
H279 C285 0.930 . S
H280 C318 0.930 . S
H281 C262 0.930 . S
H282 C317 0.931 . S
N283 Eu252 2.657 . S
N283 C284 1.334 . S
N283 C288 1.362 . S
C284 H276 0.929 . S
C284 N283 1.334 . S
C284 C287 1.413 . S
C285 H279 0.930 . S
C285 C286 1.392 . S
C285 C287 1.367 . S
C286 C285 1.392 . S
C286 C288 1.420 . S
C286 C318 1.423 . S
C287 H273 0.930 . S
C287 C284 1.413 . S
C287 C285 1.367 . S
C288 N283 1.362 . S
C288 C286 1.420 . S
C288 C292 1.429 . S
H289 C294 0.930 . S
N290 Eu252 2.609 . S
N290 C292 1.377 . S
N290 C293 1.321 . S
C291 H277 0.930 . S
C291 C293 1.400 . S
C291 C294 1.386 . S
C292 C288 1.429 . S
C292 N290 1.377 . S
C292 C295 1.411 . S
C293 H275 0.930 . S
C293 N290 1.321 . S
C293 C291 1.400 . S
C294 H289 0.930 . S
C294 C291 1.386 . S
C294 C295 1.395 . S
C295 C292 1.411 . S
C295 C294 1.395 . S
C295 C317 1.420 . S
O296 Eu252 2.558 . S
O296 C316 1.257 . S
O297 Eu252 2.612 . S
O297 Eu263 2.380 . S
O297 C308 1.276 . S
O298 Eu263 2.432 . S
O298 C315 1.264 . S
O299 Eu252 2.339 . S
O299 C315 1.254 . S
O300 Eu252 2.563 . S
O300 C308 1.235 . S
O301 Eu252 2.419 . S
O301 C316 1.249 . S
O302 Eu263 2.558 . S
O302 C327 1.257 . S
O303 Eu252 2.380 . S
O303 Eu263 2.612 . S
O303 C319 1.276 . S
O304 Eu252 2.432 . S
O304 C326 1.264 . S
O305 Eu263 2.339 . S
O305 C326 1.254 . S
O306 Eu263 2.563 . S
O306 C319 1.235 . S
O307 Eu263 2.419 . S
O307 C327 1.249 . S
C308 O297 1.276 . S
C308 O300 1.235 . S
C309 C311 1.393 . S
C309 C313 1.395 . S
C309 C316 1.492 . S
C310 C311 1.392 . S
C310 C312 1.386 . S
C311 C309 1.393 . S
C311 C310 1.392 . S
C311 H328 0.930 . S
C312 C310 1.386 . S
C312 C314 1.395 . S
C312 H329 0.930 . S
C313 C309 1.395 . S
C313 C314 1.379 . S
C313 H330 0.930 . S
C314 C312 1.395 . S
C314 C313 1.379 . S
C314 H331 0.930 . S
C315 O298 1.264 . S
C315 O299 1.254 . S
C316 Eu252 2.848 . S
C316 O296 1.257 . S
C316 O301 1.249 . S
C316 C309 1.492 . S
C317 H282 0.931 . S
C317 C295 1.420 . S
C317 C318 1.351 . S
C318 H280 0.930 . S
C318 C286 1.423 . S
C318 C317 1.351 . S
C319 O303 1.276 . S
C319 O306 1.235 . S
C320 C321 1.393 . S
C320 C324 1.395 . S
C320 C327 1.492 . S
C321 C320 1.393 . S
C321 C322 1.392 . S
C321 H332 0.930 . S
C322 C321 1.392 . S
C322 C323 1.386 . S
C323 C322 1.386 . S
C323 C325 1.395 . S
C323 H333 0.930 . S
C324 C320 1.395 . S
C324 C325 1.379 . S
C324 H334 0.930 . S
C325 C323 1.395 . S
C325 C324 1.379 . S
C325 H335 0.930 . S
C326 O304 1.264 . S
C326 O305 1.254 . S
C327 Eu263 2.848 . S
C327 O302 1.257 . S
C327 O307 1.249 . S
C327 C320 1.492 . S
H328 C311 0.930 . S
H329 C312 0.930 . S
H330 C313 0.930 . S
H331 C314 0.930 . S
H332 C321 0.930 . S
H333 C323 0.930 . S
H334 C324 0.930 . S
H335 C325 0.930 . S
H336 C344 0.950 . S
H337 C349 0.950 . S
H338 C346 0.950 . S
H339 C348 0.950 . S
H340 C350 0.950 . S
H341 C352 0.950 . S
H342 C354 0.950 . S
H343 C355 0.950 . S
C344 H336 0.950 . S
C344 C345 1.386 . S
C344 C346 1.391 . S
C345 C344 1.386 . S
C345 C349 1.393 1_554 S
C346 H338 0.950 . S
C346 C344 1.391 . S
C346 C347 1.403 . S
C347 C346 1.403 . S
C347 C348 1.395 1_554 S
C347 C353 1.491 1_554 S
C348 H339 0.950 . S
C348 C347 1.395 1_556 S
C348 C349 1.391 . S
C349 H337 0.950 . S
C349 C345 1.393 1_556 S
C349 C348 1.391 . S
C350 H340 0.950 . S
C350 C351 1.386 . S
C350 C352 1.391 . S
C351 C350 1.386 . S
C351 C355 1.393 1_556 S
C352 H341 0.950 . S
C352 C350 1.391 . S
C352 C353 1.401 . S
C353 C347 1.491 1_556 S
C353 C352 1.401 . S
C353 C354 1.397 1_556 S
C354 H342 0.950 . S
C354 C353 1.397 1_554 S
C354 C355 1.391 . S
C355 H343 0.950 . S
C355 C351 1.393 1_554 S
C355 C354 1.391 . S
H356 C364 0.950 . S
H357 C369 0.950 . S
H358 C366 0.950 . S
H359 C368 0.950 . S
H360 C370 0.950 . S
H361 C372 0.950 . S
H362 C374 0.950 . S
H363 C375 0.950 . S
C364 H356 0.950 . S
C364 C365 1.386 . S
C364 C366 1.391 . S
C365 C364 1.386 . S
C365 C369 1.393 1_556 S
C366 H358 0.950 . S
C366 C364 1.391 . S
C366 C367 1.400 . S
C367 C366 1.400 . S
C367 C368 1.398 1_556 S
C367 C373 1.491 1_556 S
C368 H359 0.950 . S
C368 C367 1.398 1_554 S
C368 C369 1.391 . S
C369 H357 0.950 . S
C369 C365 1.393 1_554 S
C369 C368 1.391 . S
C370 H360 0.950 . S
C370 C371 1.386 . S
C370 C372 1.391 . S
C371 C370 1.386 . S
C371 C375 1.393 1_554 S
C372 H361 0.950 . S
C372 C370 1.391 . S
C372 C373 1.400 . S
C373 C367 1.491 1_554 S
C373 C372 1.400 . S
C373 C374 1.398 1_554 S
C374 H362 0.950 . S
C374 C373 1.398 1_556 S
C374 C375 1.391 . S
C375 H363 0.950 . S
C375 C371 1.393 1_556 S
C375 C374 1.391 . S
H376 C384 0.950 . S
H377 C389 0.950 . S
H378 C386 0.950 . S
H379 C388 0.950 . S
H380 C390 0.950 . S
H381 C392 0.950 . S
H382 C394 0.950 . S
H383 C395 0.950 . S
C384 H376 0.950 . S
C384 C385 1.386 . S
C384 C386 1.391 . S
C385 C384 1.386 . S
C385 C389 1.393 . S
C386 H378 0.950 . S
C386 C384 1.391 . S
C386 C387 1.400 . S
C387 C386 1.400 . S
C387 C388 1.398 . S
C387 C393 1.491 . S
C388 H379 0.950 . S
C388 C387 1.398 . S
C388 C389 1.391 . S
C389 H377 0.950 . S
C389 C385 1.393 . S
C389 C388 1.391 . S
C390 H380 0.950 . S
C390 C391 1.386 . S
C390 C392 1.391 . S
C391 C390 1.386 . S
C391 C395 1.393 . S
C392 H381 0.950 . S
C392 C390 1.391 . S
C392 C393 1.400 . S
C393 C387 1.491 . S
C393 C392 1.400 . S
C393 C394 1.398 . S
C394 H382 0.950 . S
C394 C393 1.398 . S
C394 C395 1.391 . S
C395 H383 0.950 . S
C395 C391 1.393 . S
C395 C394 1.391 . S
H396 C404 0.950 . S
H397 C409 0.950 . S
H398 C406 0.950 . S
H399 C408 0.950 . S
H400 C410 0.950 . S
H401 C412 0.950 . S
H402 C414 0.950 . S
H403 C415 0.950 . S
C404 H396 0.950 . S
C404 C405 1.386 . S
C404 C406 1.391 . S
C405 C404 1.386 . S
C405 C409 1.393 . S
C406 H398 0.950 . S
C406 C404 1.391 . S
C406 C407 1.400 . S
C407 C406 1.400 . S
C407 C408 1.398 . S
C407 C413 1.491 . S
C408 H399 0.950 . S
C408 C407 1.398 . S
C408 C409 1.391 . S
C409 H397 0.950 . S
C409 C405 1.393 . S
C409 C408 1.391 . S
C410 H400 0.950 . S
C410 C411 1.386 . S
C410 C412 1.391 . S
C411 C410 1.386 . S
C411 C415 1.393 . S
C412 H401 0.950 . S
C412 C410 1.391 . S
C412 C413 1.400 . S
C413 C407 1.491 . S
C413 C412 1.400 . S
C413 C414 1.398 . S
C414 H402 0.950 . S
C414 C413 1.398 . S
C414 C415 1.391 . S
C415 H403 0.950 . S
C415 C411 1.393 . S
C415 C414 1.391 . S
H416 C424 0.947 1_545 S
H417 C429 0.950 . S
H418 C426 0.950 . S
H419 C428 0.950 . S
H420 C430 0.942 1_565 S
H421 C432 0.950 . S
H422 C434 0.950 . S
H423 C435 0.950 . S
C424 H416 0.947 1_565 S
C424 C425 1.394 . S
C424 C426 1.386 1_565 S
C425 C424 1.394 . S
C425 C429 1.393 1_554 S
C426 H418 0.950 . S
C426 C424 1.386 1_545 S
C426 C427 1.400 1_545 S
C427 C426 1.400 1_565 S
C427 C428 1.398 1_554 S
C427 C433 1.491 1_564 S
C428 H419 0.950 . S
C428 C427 1.398 1_556 S
C428 C429 1.391 . S
C429 H417 0.950 . S
C429 C425 1.393 1_556 S
C429 C428 1.391 . S
C430 H420 0.942 1_545 S
C430 C431 1.409 . S
C430 C432 1.376 1_545 S
C431 C430 1.409 . S
C431 C435 1.393 1_556 S
C432 H421 0.950 . S
C432 C430 1.376 1_565 S
C432 C433 1.400 1_565 S
C433 C427 1.491 1_546 S
C433 C432 1.400 1_545 S
C433 C434 1.398 1_556 S
C434 H422 0.950 . S
C434 C433 1.398 1_554 S
C434 C435 1.391 . S
C435 H423 0.950 . S
C435 C431 1.393 1_554 S
C435 C434 1.391 . S
H436 C444 0.950 . S
H437 C449 0.950 . S
H438 C446 0.950 . S
H439 C448 0.950 . S
H440 C450 0.950 . S
H441 C452 0.950 . S
H442 C454 0.950 . S
H443 C455 0.950 . S
C444 H436 0.950 . S
C444 C445 1.386 . S
C444 C446 1.391 . S
C445 C444 1.386 . S
C445 C449 1.393 1_565 S
C446 H438 0.950 . S
C446 C444 1.391 . S
C446 C447 1.427 . S
C447 C446 1.427 . S
C447 C448 1.382 1_565 S
C447 C453 1.481 1_565 S
C448 H439 0.950 . S
C448 C447 1.382 1_545 S
C448 C449 1.391 . S
C449 H437 0.950 . S
C449 C445 1.393 1_545 S
C449 C448 1.391 . S
C450 H440 0.950 . S
C450 C451 1.386 . S
C450 C452 1.391 . S
C451 C450 1.386 . S
C451 C455 1.393 1_545 S
C452 H441 0.950 . S
C452 C450 1.391 . S
C452 C453 1.400 . S
C453 C447 1.481 1_545 S
C453 C452 1.400 . S
C453 C454 1.398 1_545 S
C454 H442 0.950 . S
C454 C453 1.398 1_565 S
C454 C455 1.391 . S
C455 H443 0.950 . S
C455 C451 1.393 1_565 S
C455 C454 1.391 . S
H456 C464 0.950 . S
H457 C469 0.950 . S
H458 C466 0.950 . S
H459 C468 0.950 . S
H460 C470 0.950 . S
H461 C472 0.950 . S
H462 C474 0.950 . S
H463 C475 0.950 . S
C464 H456 0.950 . S
C464 C465 1.386 1_556 S
C464 C466 1.391 . S
C465 C464 1.386 1_554 S
C465 C469 1.393 . S
C466 H458 0.950 . S
C466 C464 1.391 . S
C466 C467 1.400 1_556 S
C467 C466 1.400 1_554 S
C467 C468 1.398 . S
C467 C473 1.491 1_654 S
C468 H459 0.950 . S
C468 C467 1.398 . S
C468 C469 1.391 . S
C469 H457 0.950 . S
C469 C465 1.393 . S
C469 C468 1.391 . S
C470 H460 0.950 . S
C470 C471 1.386 1_554 S
C470 C472 1.391 . S
C471 C470 1.386 1_556 S
C471 C475 1.393 . S
C472 H461 0.950 . S
C472 C470 1.391 . S
C472 C473 1.400 1_554 S
C473 C467 1.491 1_456 S
C473 C472 1.400 1_556 S
C473 C474 1.398 . S
C474 H462 0.950 . S
C474 C473 1.398 . S
C474 C475 1.391 . S
C475 H463 0.950 . S
C475 C471 1.393 . S
C475 C474 1.391 . S
H476 C484 0.950 . S
H477 C489 0.950 . S
H478 C486 0.950 . S
H479 C488 0.950 . S
H480 C490 0.950 . S
H481 C492 0.950 . S
H482 C494 0.950 . S
H483 C495 0.950 . S
C484 H476 0.950 . S
C484 C485 1.386 . S
C484 C486 1.391 . S
C485 C484 1.386 . S
C485 C489 1.393 . S
C486 H478 0.950 . S
C486 C484 1.391 . S
C486 C487 1.400 . S
C487 C486 1.400 . S
C487 C488 1.398 . S
C487 C493 1.491 1_455 S
C488 H479 0.950 . S
C488 C487 1.398 . S
C488 C489 1.391 . S
C489 H477 0.950 . S
C489 C485 1.393 . S
C489 C488 1.391 . S
C490 H480 0.950 . S
C490 C491 1.386 . S
C490 C492 1.391 . S
C491 C490 1.386 . S
C491 C495 1.393 . S
C492 H481 0.950 . S
C492 C490 1.391 . S
C492 C493 1.400 . S
C493 C487 1.491 1_655 S
C493 C492 1.400 . S
C493 C494 1.398 . S
C494 H482 0.950 . S
C494 C493 1.398 . S
C494 C495 1.391 . S
C495 H483 0.950 . S
C495 C491 1.393 . S
C495 C494 1.391 . S
H496 C504 0.950 . S
H497 C509 0.950 . S
H498 C506 0.950 . S
H499 C508 0.959 . S
H500 C510 0.947 1_565 S
H501 C512 0.950 1_565 S
H502 C514 0.950 . S
H503 C515 0.950 . S
C504 H496 0.950 . S
C504 C505 1.386 1_455 S
C504 C506 1.391 . S
C505 C504 1.386 1_655 S
C505 C509 1.393 1_545 S
C506 H498 0.950 . S
C506 C504 1.391 . S
C506 C507 1.400 1_455 S
C507 C506 1.400 1_655 S
C507 C508 1.384 1_545 S
C507 C513 1.491 . S
C508 H499 0.959 . S
C508 C507 1.384 1_565 S
C508 C509 1.397 . S
C509 H497 0.950 . S
C509 C505 1.393 1_565 S
C509 C508 1.397 . S
C510 H500 0.947 1_545 S
C510 C511 1.386 . S
C510 C512 1.391 . S
C511 C510 1.386 . S
C511 C515 1.393 1_655 S
C512 H501 0.950 1_545 S
C512 C510 1.391 . S
C512 C513 1.400 . S
C513 C507 1.491 . S
C513 C512 1.400 . S
C513 C514 1.398 1_655 S
C514 H502 0.950 . S
C514 C513 1.398 1_455 S
C514 C515 1.391 . S
C515 H503 0.950 . S
C515 C511 1.393 1_455 S
C515 C514 1.391 . S
H516 C524 0.950 . S
H517 C529 0.950 . S
H518 C526 0.950 . S
H519 C528 0.950 1_655 S
H520 C530 0.950 . S
H521 C532 0.950 . S
H522 C534 0.950 . S
H523 C535 0.950 . S
C524 H516 0.950 . S
C524 C525 1.386 1_545 S
C524 C526 1.391 . S
C525 C524 1.386 1_565 S
C525 C529 1.393 1_455 S
C526 H518 0.950 . S
C526 C524 1.391 . S
C526 C527 1.400 1_545 S
C527 C526 1.400 1_565 S
C527 C528 1.401 . S
C527 C533 1.491 . S
C528 H519 0.950 1_455 S
C528 C527 1.401 . S
C528 C529 1.388 1_455 S
C529 H517 0.950 . S
C529 C525 1.393 1_655 S
C529 C528 1.388 1_655 S
C530 H520 0.950 . S
C530 C531 1.386 1_655 S
C530 C532 1.391 . S
C531 C530 1.386 1_455 S
C531 C535 1.393 1_565 S
C532 H521 0.950 . S
C532 C530 1.391 . S
C532 C533 1.400 1_655 S
C533 C527 1.491 . S
C533 C532 1.400 1_455 S
C533 C534 1.398 1_565 S
C534 H522 0.950 . S
C534 C533 1.398 1_545 S
C534 C535 1.391 . S
C535 H523 0.950 . S
C535 C531 1.393 1_545 S
C535 C534 1.391 . S
H536 C544 0.950 . S
H537 C549 0.950 . S
H538 C546 0.950 . S
H539 C548 0.950 . S
H540 C550 0.950 . S
H541 C552 0.950 . S
H542 C554 0.950 . S
H543 C555 0.950 . S
C544 H536 0.950 . S
C544 C545 1.386 . S
C544 C546 1.391 . S
C545 C544 1.386 . S
C545 C549 1.393 . S
C546 H538 0.950 . S
C546 C544 1.391 . S
C546 C547 1.400 . S
C547 C546 1.400 . S
C547 C548 1.398 . S
C547 C553 1.491 . S
C548 H539 0.950 . S
C548 C547 1.398 . S
C548 C549 1.391 . S
C549 H537 0.950 . S
C549 C545 1.393 . S
C549 C548 1.391 . S
C550 H540 0.950 . S
C550 C551 1.386 . S
C550 C552 1.391 . S
C551 C550 1.386 . S
C551 C555 1.393 . S
C552 H541 0.950 . S
C552 C550 1.391 . S
C552 C553 1.400 . S
C553 C547 1.491 . S
C553 C552 1.400 . S
C553 C554 1.398 . S
C554 H542 0.950 . S
C554 C553 1.398 . S
C554 C555 1.391 . S
C555 H543 0.950 . S
C555 C551 1.393 . S
C555 C554 1.391 . S
H556 C564 0.950 . S
H557 C569 0.950 . S
H558 C566 0.950 . S
H559 C568 0.950 . S
H560 C570 0.950 . S
H561 C572 0.950 . S
H562 C574 0.950 . S
H563 C575 0.950 . S
C564 H556 0.950 . S
C564 C565 1.386 . S
C564 C566 1.391 . S
C565 C564 1.386 . S
C565 C569 1.393 . S
C566 H558 0.950 . S
C566 C564 1.391 . S
C566 C567 1.400 . S
C567 C566 1.400 . S
C567 C568 1.398 . S
C567 C573 1.491 . S
C568 H559 0.950 . S
C568 C567 1.398 . S
C568 C569 1.391 . S
C569 H557 0.950 . S
C569 C565 1.393 . S
C569 C568 1.391 . S
C570 H560 0.950 . S
C570 C571 1.386 . S
C570 C572 1.391 . S
C571 C570 1.386 . S
C571 C575 1.393 . S
C572 H561 0.950 . S
C572 C570 1.391 . S
C572 C573 1.400 . S
C573 C567 1.491 . S
C573 C572 1.400 . S
C573 C574 1.398 . S
C574 H562 0.950 . S
C574 C573 1.398 . S
C574 C575 1.391 . S
C575 H563 0.950 . S
C575 C571 1.393 . S
C575 C574 1.391 . S
C345 C224 3.308 1_554 S
C351 C67 3.308 1_556 S
C365 C235 3.310 1_556 S
C371 C56 3.311 1_554 S
C385 C154 0.626 . S
C391 C310 0.626 . S
C405 C142 0.720 . S
C411 C322 0.720 . S
C425 C70 1.405 . S
C431 C58 1.405 . S
C445 C151 4.245 1_565 S
C451 C140 4.245 1_545 S
C465 C238 1.403 . S
C471 C226 1.403 . S
C485 C308 4.239 . S
C491 C319 4.239 . S
C505 C158 1.493 . S
C511 C63 1.484 1_655 S
C525 C74 1.481 1_455 S
C531 C147 1.500 . S
C545 C326 1.487 . S
C551 C231 1.476 . S
C565 C315 1.490 . S
C571 C242 1.481 . S
