# Generated by pormake.
# Topology umc, (4)-cn, num edge types: 1
# Building blocks:
#     Node 0, Type 0, BuildingBlock: ESEHIV_clean_sbu_0, # of connection points: 4
#     Node 1, Type 0, BuildingBlock: ESEHIV_clean_sbu_0, # of connection points: 4
#     Node 2, Type 0, BuildingBlock: ESEHIV_clean_sbu_0, # of connection points: 4
#     Node 3, Type 0, BuildingBlock: ESEHIV_clean_sbu_0, # of connection points: 4
#     Node 4, Type 0, BuildingBlock: ESEHIV_clean_sbu_0, # of connection points: 4
#     Node 5, Type 0, BuildingBlock: ESEHIV_clean_sbu_0, # of connection points: 4
#     Node 6, Type 0, BuildingBlock: ESEHIV_clean_sbu_0, # of connection points: 4
#     Node 7, Type 0, BuildingBlock: ESEHIV_clean_sbu_0, # of connection points: 4
#     Node 8, Type 0, BuildingBlock: ESEHIV_clean_sbu_0, # of connection points: 4
#     Node 9, Type 0, BuildingBlock: ESEHIV_clean_sbu_0, # of connection points: 4
#     Node 10, Type 0, BuildingBlock: ESEHIV_clean_sbu_0, # of connection points: 4
#     Node 11, Type 0, BuildingBlock: ESEHIV_clean_sbu_0, # of connection points: 4
#     Node 12, Type 0, BuildingBlock: ESEHIV_clean_sbu_0, # of connection points: 4
#     Node 13, Type 0, BuildingBlock: ESEHIV_clean_sbu_0, # of connection points: 4
#     Node 14, Type 0, BuildingBlock: ESEHIV_clean_sbu_0, # of connection points: 4
#     Node 15, Type 0, BuildingBlock: ESEHIV_clean_sbu_0, # of connection points: 4
#     Edge 16, Type (0, 0), BuildingBlock: XUDNAN_clean_linker_2, # of connection points: 2
#     Edge 17, Type (0, 0), BuildingBlock: XUDNAN_clean_linker_2, # of connection points: 2
#     Edge 18, Type (0, 0), BuildingBlock: XUDNAN_clean_linker_2, # of connection points: 2
#     Edge 19, Type (0, 0), BuildingBlock: XUDNAN_clean_linker_2, # of connection points: 2
#     Edge 20, Type (0, 0), BuildingBlock: XUDNAN_clean_linker_2, # of connection points: 2
#     Edge 21, Type (0, 0), BuildingBlock: XUDNAN_clean_linker_2, # of connection points: 2
#     Edge 22, Type (0, 0), BuildingBlock: XUDNAN_clean_linker_2, # of connection points: 2
#     Edge 23, Type (0, 0), BuildingBlock: XUDNAN_clean_linker_2, # of connection points: 2
#     Edge 24, Type (0, 0), BuildingBlock: XUDNAN_clean_linker_2, # of connection points: 2
#     Edge 25, Type (0, 0), BuildingBlock: XUDNAN_clean_linker_2, # of connection points: 2
#     Edge 26, Type (0, 0), BuildingBlock: XUDNAN_clean_linker_2, # of connection points: 2
#     Edge 27, Type (0, 0), BuildingBlock: XUDNAN_clean_linker_2, # of connection points: 2
#     Edge 28, Type (0, 0), BuildingBlock: XUDNAN_clean_linker_2, # of connection points: 2
#     Edge 29, Type (0, 0), BuildingBlock: XUDNAN_clean_linker_2, # of connection points: 2
#     Edge 30, Type (0, 0), BuildingBlock: XUDNAN_clean_linker_2, # of connection points: 2
#     Edge 31, Type (0, 0), BuildingBlock: XUDNAN_clean_linker_2, # of connection points: 2
#     Edge 32, Type (0, 0), BuildingBlock: XUDNAN_clean_linker_2, # of connection points: 2
#     Edge 33, Type (0, 0), BuildingBlock: XUDNAN_clean_linker_2, # of connection points: 2
#     Edge 34, Type (0, 0), BuildingBlock: XUDNAN_clean_linker_2, # of connection points: 2
#     Edge 35, Type (0, 0), BuildingBlock: XUDNAN_clean_linker_2, # of connection points: 2
#     Edge 36, Type (0, 0), BuildingBlock: XUDNAN_clean_linker_2, # of connection points: 2
#     Edge 37, Type (0, 0), BuildingBlock: XUDNAN_clean_linker_2, # of connection points: 2
#     Edge 38, Type (0, 0), BuildingBlock: XUDNAN_clean_linker_2, # of connection points: 2
#     Edge 39, Type (0, 0), BuildingBlock: XUDNAN_clean_linker_2, # of connection points: 2
#     Edge 40, Type (0, 0), BuildingBlock: XUDNAN_clean_linker_2, # of connection points: 2
#     Edge 41, Type (0, 0), BuildingBlock: XUDNAN_clean_linker_2, # of connection points: 2
#     Edge 42, Type (0, 0), BuildingBlock: XUDNAN_clean_linker_2, # of connection points: 2
#     Edge 43, Type (0, 0), BuildingBlock: XUDNAN_clean_linker_2, # of connection points: 2
#     Edge 44, Type (0, 0), BuildingBlock: XUDNAN_clean_linker_2, # of connection points: 2
#     Edge 45, Type (0, 0), BuildingBlock: XUDNAN_clean_linker_2, # of connection points: 2
#     Edge 46, Type (0, 0), BuildingBlock: XUDNAN_clean_linker_2, # of connection points: 2
#     Edge 47, Type (0, 0), BuildingBlock: XUDNAN_clean_linker_2, # of connection points: 2
# Relax obj value: 0.039
# Max RMSD: 0.093
# Mean RMSD: 0.093
data_MOF--net-umc--node1-ESEHIV_clean_sbu_0--edge1-XUDNAN_clean_linker_2
_symmetry_space_group_name_H-M    P1
_symmetry_Int_Tables_number       1
_symmetry_cell_setting            triclinic
loop_
_symmetry_equiv_pos_as_xyz
'x, y, z'
_cell_length_a     57.886129
_cell_length_b     35.207813
_cell_length_c     55.464789
_cell_angle_alpha  90.371916
_cell_angle_beta   90.184826
_cell_angle_gamma 89.854768
loop_
_atom_site_label
_atom_site_type_symbol
_atom_site_fract_x
_atom_site_fract_y
_atom_site_fract_z
_atom_type_partial_charge
Cu0 Cu 0.40587 0.11282 0.37548 0.0
N1 N 0.43812 0.11745 0.37594 0.0
N2 N 0.47574 0.10314 0.37873 0.0
C3 C 0.454 0.08934 0.37698 0.0
C4 C 0.47335 0.14129 0.37865 0.0
C5 C 0.45022 0.14998 0.37699 0.0
O6 O 0.39798 0.07774 0.34951 0.0
C7 C 0.4022 0.12064 0.4246 0.0
O8 O 0.41255 0.15237 0.41859 0.0
H9 H 0.44963 0.05947 0.37726 0.0
H10 H 0.44273 0.17813 0.37714 0.0
N11 N 0.39261 0.15998 0.36787 0.0
N12 N 0.37039 0.2121 0.36757 0.0
C13 C 0.37414 0.17775 0.3777 0.0
C14 C 0.40042 0.18359 0.35077 0.0
C15 C 0.38691 0.21578 0.35066 0.0
C16 C 0.39785 0.04172 0.35091 0.0
O17 O 0.40178 0.02554 0.3718 0.0
H18 H 0.36399 0.16615 0.39224 0.0
H19 H 0.41507 0.1778 0.33925 0.0
O20 O 0.39647 0.09755 0.40783 0.0
H21 H 0.4873 0.16162 0.37984 0.0
H22 H 0.38893 0.23995 0.33889 0.0
Cu23 Cu 0.67593 0.89886 0.37516 0.0
N24 N 0.64377 0.90336 0.37309 0.0
N25 N 0.60918 0.93189 0.37503 0.0
C26 C 0.63235 0.93654 0.3753 0.0
C27 C 0.60592 0.89411 0.37239 0.0
C28 C 0.6273 0.87656 0.37135 0.0
O29 O 0.688 0.93446 0.35178 0.0
C30 C 0.70215 0.92 0.41846 0.0
O31 O 0.72099 0.92222 0.40542 0.0
H32 H 0.64102 0.96355 0.37739 0.0
H33 H 0.63054 0.84635 0.37017 0.0
N34 N 0.68577 0.84959 0.36719 0.0
N35 N 0.70665 0.79603 0.36461 0.0
C36 C 0.70415 0.83012 0.37578 0.0
C37 C 0.67655 0.82731 0.34993 0.0
C38 C 0.68925 0.79429 0.34838 0.0
C39 C 0.70762 0.93186 0.34162 0.0
O40 O 0.72243 0.90601 0.34892 0.0
H41 H 0.71553 0.84087 0.38974 0.0
H42 H 0.66191 0.83499 0.3388 0.0
O43 O 0.68308 0.91105 0.40851 0.0
H44 H 0.58934 0.88 0.37217 0.0
H45 H 0.68631 0.77132 0.33569 0.0
Cu46 Cu 0.40275 0.86977 0.15069 0.0
N47 N 0.43504 0.86663 0.14744 0.0
N48 N 0.4727 0.88176 0.14734 0.0
C49 C 0.45105 0.8932 0.15314 0.0
C50 C 0.4701 0.84686 0.13748 0.0
C51 C 0.44696 0.83777 0.13744 0.0
O52 O 0.39577 0.89269 0.18192 0.0
C53 C 0.38816 0.88143 0.10293 0.0
O54 O 0.39157 0.84458 0.10167 0.0
H55 H 0.44693 0.92031 0.16137 0.0
H56 H 0.43931 0.81214 0.13017 0.0
N57 N 0.38929 0.82092 0.15116 0.0
N58 N 0.36322 0.77374 0.14888 0.0
C59 C 0.36747 0.81109 0.14503 0.0
C60 C 0.39905 0.78882 0.15945 0.0
C61 C 0.38315 0.75978 0.15798 0.0
C62 C 0.39821 0.92725 0.1883 0.0
O63 O 0.40498 0.95233 0.17239 0.0
H64 H 0.35487 0.8312 0.13832 0.0
H65 H 0.41648 0.78675 0.1664 0.0
O66 O 0.39133 0.89855 0.12301 0.0
H67 H 0.48388 0.82942 0.13023 0.0
H68 H 0.38616 0.73058 0.16311 0.0
Cu69 Cu 0.67002 0.09762 0.15298 0.0
N70 N 0.63813 0.0881 0.15001 0.0
N71 N 0.60445 0.0564 0.15009 0.0
C72 C 0.62705 0.05614 0.15663 0.0
C73 C 0.60127 0.09024 0.13918 0.0
C74 C 0.62201 0.1096 0.13912 0.0
O75 O 0.681 0.06821 0.18018 0.0
C76 C 0.67821 0.05659 0.10959 0.0
O77 O 0.66134 0.03504 0.11732 0.0
H78 H 0.63566 0.03283 0.16557 0.0
H79 H 0.62528 0.13692 0.13103 0.0
N80 N 0.67538 0.1492 0.15972 0.0
N81 N 0.69145 0.20708 0.16245 0.0
C82 C 0.69356 0.17123 0.15361 0.0
C83 C 0.66151 0.17166 0.17297 0.0
C84 C 0.67128 0.20716 0.17467 0.0
C85 C 0.70207 0.065 0.18644 0.0
O86 O 0.71817 0.08067 0.17319 0.0
H87 H 0.7079 0.16122 0.14281 0.0
H88 H 0.64547 0.16263 0.18105 0.0
O89 O 0.68526 0.08398 0.12279 0.0
H90 H 0.58536 0.09981 0.13089 0.0
H91 H 0.66418 0.23102 0.18458 0.0
Cu92 Cu 0.67228 0.91255 0.64179 0.0
N93 N 0.64038 0.92021 0.64337 0.0
N94 N 0.60621 0.95008 0.64429 0.0
C95 C 0.62946 0.95397 0.64415 0.0
C96 C 0.60254 0.91217 0.64368 0.0
C97 C 0.6236 0.89389 0.64315 0.0
O98 O 0.68664 0.93692 0.66961 0.0
C99 C 0.67182 0.92581 0.59219 0.0
O100 O 0.65134 0.91026 0.59441 0.0
H101 H 0.63858 0.98072 0.64463 0.0
H102 H 0.62649 0.86355 0.64233 0.0
N103 N 0.67929 0.86096 0.6427 0.0
N104 N 0.70011 0.80862 0.64895 0.0
C105 C 0.69591 0.84459 0.65616 0.0
C106 C 0.67275 0.83436 0.62654 0.0
C107 C 0.68572 0.80204 0.63026 0.0
C108 C 0.67784 0.93103 0.69028 0.0
O109 O 0.65946 0.90937 0.69182 0.0
H110 H 0.7061 0.85974 0.66948 0.0
H111 H 0.66061 0.83903 0.612 0.0
O112 O 0.68399 0.93126 0.61109 0.0
H113 H 0.58587 0.89838 0.64314 0.0
H114 H 0.68559 0.77652 0.61927 0.0
Cu115 Cu 0.40051 0.11546 0.65138 0.0
N116 N 0.43218 0.12409 0.65551 0.0
N117 N 0.47032 0.1143 0.65523 0.0
C118 C 0.44933 0.09959 0.6501 0.0
C119 C 0.4662 0.14929 0.6643 0.0
C120 C 0.44267 0.15516 0.66458 0.0
O121 O 0.39053 0.08078 0.67662 0.0
C122 C 0.40387 0.11769 0.60192 0.0
O123 O 0.41546 0.14816 0.60836 0.0
H124 H 0.44646 0.0717 0.64234 0.0
H125 H 0.43386 0.18011 0.67135 0.0
N126 N 0.38381 0.16073 0.65478 0.0
N127 N 0.35401 0.20022 0.66081 0.0
C128 C 0.36172 0.164 0.66208 0.0
C129 C 0.39031 0.19603 0.64864 0.0
C130 C 0.37204 0.22043 0.65242 0.0
C131 C 0.39684 0.08871 0.69814 0.0
O132 O 0.40935 0.11924 0.70196 0.0
H133 H 0.35132 0.13998 0.66736 0.0
H134 H 0.40698 0.20348 0.64137 0.0
O135 O 0.39546 0.09688 0.61843 0.0
H136 H 0.47923 0.16889 0.67076 0.0
H137 H 0.37205 0.25067 0.64907 0.0
Cu138 Cu 0.69181 0.07235 0.88939 0.0
N139 N 0.66036 0.08274 0.89248 0.0
N140 N 0.62227 0.07347 0.89099 0.0
C141 C 0.6429 0.06468 0.88114 0.0
C142 C 0.62688 0.09801 0.90913 0.0
C143 C 0.65042 0.10385 0.90992 0.0
O144 O 0.69583 0.03659 0.86283 0.0
C145 C 0.69086 0.03535 0.93475 0.0
O146 O 0.67115 0.0214 0.92696 0.0
H147 H 0.6454 0.04337 0.86722 0.0
H148 H 0.65979 0.12033 0.92324 0.0
N149 N 0.70793 0.11654 0.88211 0.0
N150 N 0.73768 0.15666 0.88014 0.0
C151 C 0.72835 0.12686 0.89176 0.0
C152 C 0.70404 0.14077 0.86389 0.0
C153 C 0.72241 0.16559 0.8626 0.0
C154 C 0.71441 0.03521 0.85062 0.0
O155 O 0.73241 0.05474 0.85805 0.0
H156 H 0.7369 0.11118 0.90596 0.0
H157 H 0.68944 0.13927 0.85169 0.0
O158 O 0.70314 0.05494 0.92049 0.0
H159 H 0.61424 0.10959 0.92151 0.0
H160 H 0.72467 0.18774 0.84938 0.0
Cu161 Cu 0.40644 0.926 0.89117 0.0
N162 N 0.43853 0.92239 0.89232 0.0
N163 N 0.47577 0.93811 0.89008 0.0
C164 C 0.45417 0.9455 0.88208 0.0
C165 C 0.47364 0.90929 0.9058 0.0
C166 C 0.45065 0.89957 0.90707 0.0
O167 O 0.3982 0.96057 0.86511 0.0
C168 C 0.37757 0.94264 0.93304 0.0
O169 O 0.35943 0.9326 0.92027 0.0
H170 H 0.44969 0.96868 0.87021 0.0
H171 H 0.44309 0.87857 0.9188 0.0
N172 N 0.39455 0.87788 0.88361 0.0
N173 N 0.37071 0.82808 0.88133 0.0
C174 C 0.37795 0.85787 0.89482 0.0
C175 C 0.39837 0.85943 0.86267 0.0
C176 C 0.38364 0.82884 0.86115 0.0
C177 C 0.37973 0.95634 0.85283 0.0
O178 O 0.36439 0.93135 0.85987 0.0
H179 H 0.37031 0.86608 0.9118 0.0
H180 H 0.41007 0.86899 0.84883 0.0
O181 O 0.39747 0.94312 0.92338 0.0
H182 H 0.48764 0.89691 0.91612 0.0
H183 H 0.38193 0.8096 0.84595 0.0
Cu184 Cu 0.89371 0.55927 0.3933 0.0
N185 N 0.92552 0.5662 0.38939 0.0
N186 N 0.96346 0.55523 0.39335 0.0
C187 C 0.94207 0.54763 0.40171 0.0
C188 C 0.96014 0.57967 0.37497 0.0
C189 C 0.93672 0.58626 0.37252 0.0
O190 O 0.88457 0.52158 0.36929 0.0
C191 C 0.89692 0.56659 0.44241 0.0
O192 O 0.90736 0.59752 0.43507 0.0
H193 H 0.93828 0.52751 0.4158 0.0
H194 H 0.92841 0.60351 0.35894 0.0
N195 N 0.87748 0.60466 0.38786 0.0
N196 N 0.84812 0.64576 0.38312 0.0
C197 C 0.85437 0.60894 0.38605 0.0
C198 C 0.88619 0.63991 0.38612 0.0
C199 C 0.86821 0.66522 0.38314 0.0
C200 C 0.89545 0.49028 0.36681 0.0
O201 O 0.91109 0.4809 0.38293 0.0
H202 H 0.84244 0.58546 0.38738 0.0
H203 H 0.90435 0.64683 0.38723 0.0
O204 O 0.88858 0.54403 0.42659 0.0
H205 H 0.97357 0.59155 0.36381 0.0
H206 H 0.86993 0.6956 0.38099 0.0
Cu207 Cu 0.18382 0.44703 0.40397 0.0
N208 N 0.15315 0.4331 0.40956 0.0
N209 N 0.11495 0.43694 0.41481 0.0
C210 C 0.13375 0.45302 0.40479 0.0
C211 C 0.1228 0.40552 0.426 0.0
C212 C 0.14633 0.40326 0.42275 0.0
O213 O 0.18495 0.48145 0.37651 0.0
C214 C 0.18384 0.48526 0.44927 0.0
O215 O 0.16293 0.49566 0.44279 0.0
H216 H 0.13361 0.47997 0.39554 0.0
H217 H 0.15786 0.38227 0.43037 0.0
N218 N 0.20073 0.40329 0.39595 0.0
N219 N 0.23016 0.36261 0.39056 0.0
C220 C 0.22372 0.3978 0.398 0.0
C221 C 0.19233 0.3706 0.38685 0.0
C222 C 0.21037 0.34548 0.38356 0.0
C223 C 0.177 0.51521 0.3756 0.0
O224 O 0.16855 0.53103 0.39519 0.0
H225 H 0.23543 0.41916 0.40497 0.0
H226 H 0.17433 0.36549 0.38272 0.0
O227 O 0.19634 0.46697 0.43427 0.0
H228 H 0.11239 0.38613 0.4364 0.0
H229 H 0.20905 0.31712 0.37605 0.0
Cu230 Cu 0.88699 0.40485 0.14901 0.0
N231 N 0.90379 0.44912 0.1421 0.0
N232 N 0.93514 0.48583 0.1373 0.0
C233 C 0.92636 0.45421 0.14753 0.0
C234 C 0.91725 0.50106 0.12491 0.0
C235 C 0.89809 0.47831 0.12774 0.0
O236 O 0.89423 0.39265 0.18254 0.0
C237 C 0.8858 0.37817 0.10291 0.0
O238 O 0.86993 0.40486 0.10278 0.0
H239 H 0.93626 0.43438 0.15825 0.0
H240 H 0.88158 0.48179 0.11887 0.0
N241 N 0.85448 0.40995 0.14808 0.0
N242 N 0.81697 0.39345 0.14901 0.0
C243 C 0.83916 0.38129 0.15047 0.0
C244 C 0.84161 0.44139 0.14508 0.0
C245 C 0.81862 0.43137 0.14554 0.0
C246 C 0.88721 0.41933 0.19645 0.0
O247 O 0.87769 0.44936 0.18655 0.0
H248 H 0.84434 0.35216 0.1535 0.0
H249 H 0.8484 0.46969 0.14282 0.0
O250 O 0.89588 0.37036 0.12282 0.0
H251 H 0.91814 0.5259 0.11356 0.0
H252 H 0.80431 0.45082 0.14327 0.0
Cu253 Cu 0.15959 0.59642 0.15697 0.0
N254 N 0.13804 0.55724 0.1514 0.0
N255 N 0.10228 0.53391 0.14588 0.0
C256 C 0.11525 0.56492 0.15069 0.0
C257 C 0.11769 0.50518 0.14367 0.0
C258 C 0.13978 0.51969 0.14699 0.0
O259 O 0.15749 0.60912 0.19136 0.0
C260 C 0.15551 0.61893 0.11162 0.0
O261 O 0.16212 0.58324 0.11046 0.0
H262 H 0.10839 0.59314 0.15378 0.0
H263 H 0.15588 0.50409 0.146 0.0
N264 N 0.19129 0.58779 0.15122 0.0
N265 N 0.22761 0.60751 0.14479 0.0
C266 C 0.20502 0.61692 0.14487 0.0
C267 C 0.20578 0.55849 0.15529 0.0
C268 C 0.22826 0.57069 0.15143 0.0
C269 C 0.16273 0.58035 0.20422 0.0
O270 O 0.16743 0.54824 0.19308 0.0
H271 H 0.19854 0.64529 0.14159 0.0
H272 H 0.20057 0.53075 0.16148 0.0
O273 O 0.15195 0.63393 0.13234 0.0
H274 H 0.11342 0.476 0.1394 0.0
H275 H 0.24383 0.55399 0.15371 0.0
Cu276 Cu 0.17592 0.43556 0.66763 0.0
N277 N 0.14393 0.43869 0.66366 0.0
N278 N 0.10812 0.46248 0.66424 0.0
C279 C 0.12992 0.46574 0.67272 0.0
C280 C 0.10839 0.43181 0.64951 0.0
C281 C 0.13054 0.41731 0.64911 0.0
O282 O 0.1843 0.46132 0.69757 0.0
C283 C 0.18098 0.47873 0.62478 0.0
O284 O 0.16175 0.49507 0.63196 0.0
H285 H 0.13574 0.48798 0.68478 0.0
H286 H 0.13668 0.39374 0.63827 0.0
N287 N 0.1843 0.38475 0.67117 0.0
N288 N 0.20608 0.33253 0.67463 0.0
C289 C 0.20576 0.3701 0.66975 0.0
C290 C 0.17054 0.35559 0.67714 0.0
C291 C 0.1839 0.32333 0.67925 0.0
C292 C 0.18307 0.49688 0.70161 0.0
O293 O 0.17773 0.51986 0.68387 0.0
H294 H 0.2209 0.38698 0.66593 0.0
H295 H 0.15213 0.35776 0.68013 0.0
O296 O 0.19079 0.45461 0.6385 0.0
H297 H 0.09392 0.42172 0.63887 0.0
H298 H 0.17771 0.29533 0.68384 0.0
Cu299 Cu 0.89369 0.59209 0.66718 0.0
N300 N 0.92417 0.60459 0.67473 0.0
N301 N 0.96251 0.60097 0.67897 0.0
C302 C 0.94339 0.58461 0.66953 0.0
C303 C 0.95489 0.63247 0.69053 0.0
C304 C 0.93126 0.63454 0.68791 0.0
O305 O 0.88195 0.56289 0.69408 0.0
C306 C 0.90359 0.58088 0.61879 0.0
O307 O 0.9166 0.61052 0.62353 0.0
H308 H 0.94326 0.55861 0.65902 0.0
H309 H 0.91994 0.65598 0.69547 0.0
N310 N 0.87662 0.63678 0.66443 0.0
N311 N 0.84704 0.67737 0.6641 0.0
C312 C 0.85469 0.64313 0.67147 0.0
C313 C 0.88303 0.6682 0.6525 0.0
C314 C 0.86474 0.69322 0.65212 0.0
C315 C 0.89292 0.53391 0.70158 0.0
O316 O 0.91045 0.52108 0.68891 0.0
H317 H 0.84424 0.62248 0.68081 0.0
H318 H 0.89967 0.67224 0.64412 0.0
O319 O 0.89218 0.56612 0.63596 0.0
H320 H 0.96549 0.65212 0.70074 0.0
H321 H 0.86432 0.72069 0.64347 0.0
Cu322 Cu 0.17516 0.61262 0.89091 0.0
N323 N 0.14857 0.60501 0.87226 0.0
N324 N 0.11747 0.57568 0.857 0.0
C325 C 0.13741 0.57171 0.86948 0.0
C326 C 0.11608 0.61303 0.85178 0.0
C327 C 0.13517 0.63106 0.86136 0.0
O328 O 0.19294 0.56538 0.89207 0.0
C329 C 0.17895 0.62319 0.94144 0.0
O330 O 0.20001 0.61048 0.9378 0.0
H331 H 0.14362 0.54527 0.87698 0.0
H332 H 0.13842 0.66126 0.86136 0.0
N333 N 0.19399 0.65249 0.88018 0.0
N334 N 0.22451 0.69118 0.87797 0.0
C335 C 0.21455 0.66221 0.88985 0.0
C336 C 0.19085 0.67628 0.86151 0.0
C337 C 0.20968 0.70005 0.86004 0.0
C338 C 0.1986 0.53983 0.87663 0.0
O339 O 0.20999 0.5101 0.8846 0.0
H340 H 0.22234 0.6477 0.90496 0.0
H341 H 0.1762 0.67587 0.8494 0.0
O342 O 0.16519 0.62566 0.92355 0.0
H343 H 0.10174 0.62677 0.84278 0.0
H344 H 0.2122 0.72224 0.8469 0.0
Cu345 Cu 0.93307 0.357 0.88284 0.0
N346 N 0.96462 0.35686 0.87628 0.0
N347 N 0.99898 0.38086 0.86634 0.0
C348 C 0.97584 0.38529 0.86527 0.0
C349 C 1.00245 0.34819 0.87848 0.0
C350 C 0.98117 0.3334 0.88456 0.0
O351 O 0.9201 0.39372 0.86055 0.0
C352 C 0.9115 0.36929 0.92945 0.0
O353 O 0.89155 0.3703 0.91812 0.0
H354 H 0.96722 0.41005 0.85802 0.0
H355 H 0.97801 0.30838 0.89526 0.0
N356 N 0.91961 0.3104 0.87487 0.0
N357 N 0.89233 0.26557 0.87336 0.0
C358 C 0.90238 0.29309 0.88677 0.0
C359 C 0.92077 0.29278 0.8533 0.0
C360 C 0.90393 0.26512 0.8523 0.0
C361 C 0.90543 0.42051 0.8624 0.0
O362 O 0.89604 0.42849 0.88334 0.0
H363 H 0.89605 0.30238 0.90412 0.0
H364 H 0.93191 0.30135 0.83871 0.0
O365 O 0.93008 0.36647 0.91736 0.0
H366 H 1.01914 0.33646 0.88324 0.0
H367 H 0.8998 0.24744 0.83685 0.0
H368 H 0.41528 0.16436 0.46281 0.0
H369 H 0.38162 0.05769 0.44533 0.0
H370 H 0.37759 0.04442 0.48908 0.0
H371 H 0.44799 0.13074 0.51245 0.0
H372 H 0.44517 0.17434 0.5294 0.0
H373 H 0.44443 0.17525 0.49697 0.0
H374 H 0.40472 0.20949 0.49817 0.0
H375 H 0.40537 0.20881 0.53062 0.0
H376 H 0.3812 0.18849 0.51458 0.0
H377 H 0.378 0.04363 0.53614 0.0
H378 H 0.38304 0.05527 0.58011 0.0
H379 H 0.41704 0.16193 0.56445 0.0
C380 C 0.40691 0.1382 0.46801 0.0
C381 C 0.3987 0.11211 0.45055 0.0
C382 C 0.38799 0.07819 0.45836 0.0
C383 C 0.38565 0.07043 0.48318 0.0
C384 C 0.39415 0.09685 0.4999 0.0
C385 C 0.40456 0.13005 0.49247 0.0
C386 C 0.41275 0.1538 0.51358 0.0
C387 C 0.43915 0.1588 0.51306 0.0
C388 C 0.40026 0.19242 0.51427 0.0
C389 C 0.40541 0.12892 0.53424 0.0
C390 C 0.39463 0.09619 0.52623 0.0
C391 C 0.38644 0.06921 0.54249 0.0
C392 C 0.38937 0.07602 0.56743 0.0
C393 C 0.40049 0.10944 0.57581 0.0
C394 C 0.40853 0.13598 0.55881 0.0
H395 H 0.64806 0.92248 0.54979 0.0
H396 H 0.71641 0.94411 0.57903 0.0
H397 H 0.73181 0.94878 0.53747 0.0
H398 H 0.6653 0.86317 0.50262 0.0
H399 H 0.64401 0.88027 0.48149 0.0
H400 H 0.63828 0.88237 0.51332 0.0
H401 H 0.63075 0.95484 0.51048 0.0
H402 H 0.6363 0.95291 0.47855 0.0
H403 H 0.65245 0.98508 0.49754 0.0
H404 H 0.73994 0.94575 0.49187 0.0
H405 H 0.73968 0.93718 0.44745 0.0
H406 H 0.66571 0.91765 0.44954 0.0
C407 C 0.66623 0.92878 0.54757 0.0
C408 C 0.68102 0.93297 0.5677 0.0
C409 C 0.7047 0.94103 0.56388 0.0
C410 C 0.7136 0.94364 0.54033 0.0
C411 C 0.69854 0.93844 0.52086 0.0
C412 C 0.6753 0.93152 0.52435 0.0
C413 C 0.66277 0.9253 0.5007 0.0
C414 C 0.65197 0.88541 0.49947 0.0
C415 C 0.64449 0.95639 0.49658 0.0
C416 C 0.68262 0.92899 0.48327 0.0
C417 C 0.70314 0.93678 0.49507 0.0
C418 C 0.7239 0.94001 0.48248 0.0
C419 C 0.7236 0.93504 0.45725 0.0
C420 C 0.7027 0.92678 0.44492 0.0
C421 C 0.68202 0.92406 0.45828 0.0
H422 H 0.36496 0.85562 0.06327 0.0
H423 H 0.40128 0.9539 0.09147 0.0
H424 H 0.39878 0.98427 0.05136 0.0
H425 H 0.39105 0.85111 1.00783 0.0
H426 H 0.36568 0.83775 0.9909 0.0
H427 H 0.36785 0.82604 0.02233 0.0
H428 H 0.32928 0.86112 0.03074 0.0
H429 H 0.32691 0.87277 0.99923 0.0
H430 H 0.32595 0.90993 0.02172 0.0
H431 H 0.39849 0.9981 1.00653 0.0
H432 H 0.39648 0.99754 0.96186 0.0
H433 H 0.35701 0.89332 0.96373 0.0
C434 C 0.37186 0.88396 0.06114 0.0
C435 C 0.38328 0.90249 0.08045 0.0
C436 C 0.39223 0.93942 0.07698 0.0
C437 C 0.39095 0.9568 0.05424 0.0
C438 C 0.38013 0.93725 0.03536 0.0
C439 C 0.37025 0.902 0.03876 0.0
C440 C 0.36048 0.88618 1.01538 0.0
C441 C 0.37196 0.84803 1.00873 0.0
C442 C 0.33408 0.88228 1.01686 0.0
C443 C 0.36729 0.91722 0.99803 0.0
C444 C 0.37865 0.94646 1.00987 0.0
C445 C 0.38896 0.97603 0.9972 0.0
C446 C 0.38777 0.9755 0.97187 0.0
C447 C 0.37598 0.94606 0.95953 0.0
C448 C 0.36531 0.91697 0.97283 0.0
H449 H 0.66609 0.002 0.97099 0.0
H450 H 0.7277 0.0687 0.95785 0.0
H451 H 0.73344 0.07627 1.00174 0.0
H452 H 0.64501 0.05676 1.01775 0.0
H453 H 0.6339 0.01796 0.03526 0.0
H454 H 0.63641 0.01316 1.00309 0.0
H455 H 0.6616 0.95282 1.00838 0.0
H456 H 0.65901 0.95725 0.04065 0.0
H457 H 0.68718 0.95494 0.02696 0.0
H458 H 0.72941 0.08395 0.04688 0.0
H459 H 0.71699 0.08806 0.08947 0.0
H460 H 0.65867 0.01506 0.07302 0.0
C461 C 0.68116 0.01732 0.9773 0.0
C462 C 0.69648 0.03461 0.96089 0.0
C463 C 0.71578 0.05495 0.97 0.0
C464 C 0.71919 0.05945 0.99494 0.0
C465 C 0.70332 0.0431 1.01059 0.0
C466 C 0.68485 0.02199 1.00212 0.0
C467 C 0.66939 0.00955 0.02258 0.0
C468 C 0.64473 0.02531 1.01947 0.0
C469 C 0.6693 0.96605 0.02477 0.0
C470 C 0.68162 0.02795 0.04381 0.0
C471 C 0.70123 0.047 0.03659 0.0
C472 C 0.71433 0.06851 0.0528 0.0
C473 C 0.70711 0.07079 0.07695 0.0
C474 C 0.687 0.05159 0.08467 0.0
C475 C 0.67437 0.0295 0.06784 0.0
H476 H 0.92577 0.60889 0.57963 0.0
H477 H 0.87515 0.52455 0.60026 0.0
H478 H 0.86908 0.50823 0.55708 0.0
H479 H 0.89587 0.64333 0.5296 0.0
H480 H 0.92139 0.65125 0.51182 0.0
H481 H 0.9231 0.65319 0.54419 0.0
H482 H 0.95534 0.60192 0.54371 0.0
H483 H 0.95383 0.59996 0.51129 0.0
H484 H 0.95026 0.55723 0.52859 0.0
H485 H 0.86742 0.50427 0.5104 0.0
H486 H 0.87003 0.51379 0.46614 0.0
H487 H 0.92108 0.60197 0.47804 0.0
C488 C 0.9136 0.58656 0.57523 0.0
C489 C 0.90098 0.56791 0.59339 0.0
C490 C 0.88512 0.53909 0.58667 0.0
C491 C 0.88156 0.52968 0.56219 0.0
C492 C 0.89405 0.54928 0.54471 0.0
C493 C 0.90981 0.57703 0.55109 0.0
C494 C 0.9203 0.59554 0.52922 0.0
C495 C 0.91482 0.63835 0.52868 0.0
C496 C 0.94648 0.5882 0.52814 0.0
C497 C 0.90773 0.57443 0.50938 0.0
C498 C 0.89281 0.54753 0.51847 0.0
C499 C 0.87915 0.52517 0.50318 0.0
C500 C 0.88073 0.53074 0.47808 0.0
C501 C 0.89567 0.55873 0.46861 0.0
C502 C 0.90938 0.58045 0.48461 0.0
H503 H 0.15828 0.51546 0.58838 0.0
H504 H 0.22081 0.45166 0.60364 0.0
H505 H 0.23097 0.45322 0.56035 0.0
H506 H 0.14405 0.46699 0.53611 0.0
H507 H 0.13251 0.50753 0.52041 0.0
H508 H 0.13209 0.50646 0.5528 0.0
H509 H 0.15444 0.57012 0.55451 0.0
H510 H 0.15488 0.57145 0.52203 0.0
H511 H 0.18154 0.57433 0.53883 0.0
H512 H 0.23204 0.456 0.51456 0.0
H513 H 0.22341 0.45812 0.4709 0.0
H514 H 0.15983 0.5192 0.48606 0.0
C515 C 0.17445 0.50268 0.58279 0.0
C516 C 0.18886 0.48375 0.59952 0.0
C517 C 0.20957 0.46661 0.59124 0.0
C518 C 0.2155 0.46741 0.56667 0.0
C519 C 0.20058 0.48551 0.55058 0.0
C520 C 0.1805 0.50296 0.55838 0.0
C521 C 0.16628 0.5174 0.53736 0.0
C522 C 0.14233 0.49845 0.53663 0.0
C523 C 0.16417 0.56091 0.53824 0.0
C524 C 0.18114 0.5045 0.51642 0.0
C525 C 0.20102 0.48664 0.52436 0.0
C526 C 0.21668 0.4704 0.50819 0.0
C527 C 0.21163 0.47179 0.48338 0.0
C528 C 0.19099 0.48898 0.47495 0.0
C529 C 0.17588 0.5062 0.4918 0.0
H530 H 0.87529 0.37369 0.96123 0.0
H531 H 0.94968 0.35877 0.95823 0.0
H532 H 0.95084 0.35121 1.00247 0.0
H533 H 0.8746 0.42902 1.01489 0.0
H534 H 0.84817 0.40854 0.02586 0.0
H535 H 0.85346 0.41055 0.99397 0.0
H536 H 0.84726 0.33774 0.99091 0.0
H537 H 0.84237 0.33547 0.02294 0.0
H538 H 0.86451 0.30647 1.00928 0.0
H539 H 0.94383 0.34751 0.04783 0.0
H540 H 0.9296 0.35509 0.08978 0.0
H541 H 0.86013 0.37171 0.06234 0.0
C542 C 0.89184 0.36876 0.96982 0.0
C543 C 0.91237 0.3668 0.95617 0.0
C544 C 0.93368 0.36047 0.96824 0.0
C545 C 0.93451 0.35585 0.99338 0.0
C546 C 0.9139 0.3575 1.00626 0.0
C547 C 0.89299 0.36413 0.99485 0.0
C548 C 0.87346 0.36677 1.01282 0.0
C549 C 0.86175 0.40605 1.01183 0.0
C550 C 0.85587 0.3347 1.00874 0.0
C551 C 0.88665 0.36135 0.03615 0.0
C552 C 0.90992 0.35546 0.0321 0.0
C553 C 0.92559 0.35172 0.05119 0.0
C554 C 0.91736 0.35566 0.07497 0.0
C555 C 0.89377 0.36365 0.07928 0.0
C556 C 0.87824 0.36521 0.05959 0.0
H557 H 0.19209 0.62933 0.08327 0.0
H558 H 0.11866 0.65065 0.08791 0.0
H559 H 0.11742 0.66311 0.04391 0.0
H560 H 0.20532 0.69676 0.03148 0.0
H561 H 0.22579 0.6632 1.01925 0.0
H562 H 0.22163 0.66651 0.0514 0.0
H563 H 0.21302 0.59444 0.0524 0.0
H564 H 0.21642 0.59094 1.0203 0.0
H565 H 0.18991 0.57556 0.03407 0.0
H566 H 0.12322 0.65996 0.99836 0.0
H567 H 0.13567 0.64577 0.95658 0.0
H568 H 0.20526 0.62435 0.98248 0.0
C569 C 0.17604 0.63889 0.07519 0.0
C570 C 0.15561 0.64032 0.08894 0.0
C571 C 0.13462 0.65091 0.07776 0.0
C572 C 0.13377 0.65759 0.05274 0.0
C573 C 0.1541 0.65368 0.03935 0.0
C574 C 0.17496 0.64529 0.05037 0.0
C575 C 0.19372 0.6375 0.03201 0.0
C576 C 0.21274 0.66781 0.03363 0.0
C577 C 0.20384 0.59723 0.03488 0.0
C578 C 0.18003 0.64102 1.00888 0.0
C579 C 0.1573 0.65095 1.01334 0.0
C580 C 0.14109 0.65297 0.9947 0.0
C581 C 0.14829 0.64465 0.97101 0.0
C582 C 0.17146 0.63397 0.96618 0.0
C583 C 0.18746 0.63265 0.98545 0.0
H584 H 0.5643 0.93114 0.35935 0.0
H585 H 0.61442 0.99885 0.39896 0.0
H586 H 0.58536 0.04917 0.40454 0.0
H587 H 0.53692 0.00852 0.32865 0.0
H588 H 0.5082 0.98919 0.33071 0.0
H589 H 0.53282 0.95783 0.33 0.0
H590 H 0.51961 0.92737 0.37002 0.0
H591 H 0.49494 0.95866 0.37086 0.0
H592 H 0.51467 0.9572 0.39605 0.0
H593 H 0.55141 0.09257 0.4056 0.0
H594 H 0.51445 0.12675 0.40192 0.0
H595 H 0.48556 0.03172 0.36184 0.0
C596 C 0.56911 0.95639 0.36937 0.0
C597 C 0.59182 0.961 0.37854 0.0
C598 C 0.59738 0.99477 0.39134 0.0
C599 C 0.5809 0.02348 0.39479 0.0
C600 C 0.55881 0.01814 0.38541 0.0
C601 C 0.55281 0.98549 0.37298 0.0
C602 C 0.52785 0.98737 0.3645 0.0
C603 C 0.52637 0.98563 0.33682 0.0
C604 C 0.51342 0.95577 0.37605 0.0
C605 C 0.52086 0.02624 0.37404 0.0
C606 C 0.53903 0.04337 0.38606 0.0
C607 C 0.53705 0.07949 0.39619 0.0
C608 C 0.51599 0.09881 0.39385 0.0
C609 C 0.49707 0.08214 0.38145 0.0
C610 C 0.49958 0.04514 0.3716 0.0
H611 H 0.47958 0.95875 0.14648 0.0
H612 H 0.51493 0.8509 0.15517 0.0
H613 H 0.5522 0.88429 0.15825 0.0
H614 H 0.52238 0.0019 0.10979 0.0
H615 H 0.51948 0.0486 0.12296 0.0
H616 H 0.49525 0.01663 0.12276 0.0
H617 H 0.49177 0.02334 0.16913 0.0
H618 H 0.51595 0.05549 0.16946 0.0
H619 H 0.51655 0.0135 0.18787 0.0
H620 H 0.58587 0.92876 0.15883 0.0
H621 H 0.61373 0.98114 0.15656 0.0
H622 H 0.55711 0.06125 0.14806 0.0
C623 C 0.49512 0.94225 0.1494 0.0
C624 C 0.49425 0.90205 0.15052 0.0
C625 C 0.5151 0.88156 0.15396 0.0
C626 C 0.53639 0.90032 0.15587 0.0
C627 C 0.5367 0.93978 0.15434 0.0
C628 C 0.51664 0.9606 0.15123 0.0
C629 C 0.52203 0.00272 0.14933 0.0
C630 C 0.51433 0.01837 0.12474 0.0
C631 C 0.51091 0.02508 0.17019 0.0
C632 C 0.54821 0.00218 0.1516 0.0
C633 C 0.55625 0.96557 0.15463 0.0
C634 C 0.57976 0.95762 0.15668 0.0
C635 C 0.59552 0.98779 0.1555 0.0
C636 C 0.58786 0.02575 0.15226 0.0
C637 C 0.56374 0.03276 0.15041 0.0
H638 H 0.56011 0.94347 0.65442 0.0
H639 H 0.61272 0.02533 0.63451 0.0
H640 H 0.58357 0.07609 0.63536 0.0
H641 H 0.51479 0.98367 0.6178 0.0
H642 H 0.49245 0.97384 0.63943 0.0
H643 H 0.51762 0.94376 0.63781 0.0
H644 H 0.52563 0.95569 0.68323 0.0
H645 H 0.50049 0.98581 0.68499 0.0
H646 H 0.52829 0.00377 0.69426 0.0
H647 H 0.54878 0.11854 0.63898 0.0
H648 H 0.51051 0.14888 0.64387 0.0
H649 H 0.48037 0.03921 0.65958 0.0
C650 C 0.56564 0.97187 0.65001 0.0
C651 C 0.589 0.98 0.64454 0.0
C652 C 0.59519 0.01801 0.63918 0.0
C653 C 0.57867 0.04721 0.63945 0.0
C654 C 0.55591 0.03807 0.64493 0.0
C655 C 0.54935 0.00131 0.64998 0.0
C656 C 0.52369 0.99901 0.65508 0.0
C657 C 0.51142 0.97356 0.63642 0.0
C658 C 0.51928 0.98527 0.68093 0.0
C659 C 0.51687 0.04028 0.65215 0.0
C660 C 0.53574 0.06237 0.64642 0.0
C661 C 0.53386 0.10151 0.64338 0.0
C662 C 0.51211 0.11851 0.6463 0.0
C663 C 0.49249 0.09639 0.65201 0.0
C664 C 0.49499 0.05674 0.65487 0.0
H665 H 0.59268 0.04388 0.92332 0.0
H666 H 0.60329 0.06166 0.84703 0.0
H667 H 0.56584 0.03013 0.83811 0.0
H668 H 0.56894 0.95047 0.91681 0.0
H669 H 0.54891 0.95603 0.9414 0.0
H670 H 0.57567 0.98199 0.94159 0.0
H671 H 0.55307 0.04525 0.9462 0.0
H672 H 0.52623 0.01948 0.94605 0.0
H673 H 0.53085 0.05693 0.92461 0.0
H674 H 0.52633 0.99827 0.83811 0.0
H675 H 0.4902 0.96292 0.84662 0.0
H676 H 0.50759 0.96165 0.92258 0.0
C677 C 0.5869 0.04148 0.90479 0.0
C678 C 0.60051 0.05561 0.88581 0.0
C679 C 0.59289 0.05112 0.86171 0.0
C680 C 0.57169 0.0334 0.85655 0.0
C681 C 0.55862 0.01974 0.87572 0.0
C682 C 0.56612 0.02311 0.89933 0.0
C683 C 0.54961 0.00415 0.91657 0.0
C684 C 0.5615 0.9712 0.92987 0.0
C685 C 0.53933 0.0332 0.9344 0.0
C686 C 0.53153 0.98977 0.89903 0.0
C687 C 0.53681 0.99946 0.87557 0.0
C688 C 0.52215 0.99025 0.85638 0.0
C689 C 0.5017 0.97034 0.86133 0.0
C690 C 0.4964 0.9593 0.88515 0.0
C691 C 0.51152 0.96924 0.90416 0.0
H692 H 1.00376 0.54824 0.36795 0.0
H693 H 0.9722 0.52355 0.43704 0.0
H694 H 1.00771 0.49077 0.44985 0.0
H695 H 1.03422 0.46141 0.36109 0.0
H696 H 0.05961 0.48242 0.34804 0.0
H697 H 1.03187 0.50489 0.34425 0.0
H698 H 0.04799 0.5673 0.36262 0.0
H699 H 0.07584 0.54508 0.36634 0.0
H700 H 0.06158 0.56644 0.39191 0.0
H701 H 0.0458 0.45819 0.45466 0.0
H702 H 0.08503 0.43105 0.45202 0.0
H703 H 0.09278 0.47858 0.38055 0.0
C704 C 1.00435 0.5365 0.3859 0.0
C705 C 0.98492 0.5383 0.40134 0.0
C706 C 0.98655 0.52202 0.42462 0.0
C707 C 1.00674 0.50349 0.43216 0.0
C708 C 1.02534 0.50172 0.41636 0.0
C709 C 1.02447 0.51809 0.39381 0.0
C710 C 0.04694 0.51188 0.38031 0.0
C711 C 0.04291 0.48877 0.35705 0.0
C712 C 0.05878 0.54994 0.37499 0.0
C713 C 0.06046 0.48916 0.39873 0.0
C714 C 0.04762 0.48355 0.41935 0.0
C715 C 0.05608 0.46254 0.43865 0.0
C716 C 0.07832 0.44697 0.43691 0.0
C717 C 0.09194 0.4526 0.41606 0.0
C718 C 0.08284 0.47412 0.39678 0.0
H719 H 0.07308 0.47311 0.15184 0.0
H720 H 0.07444 0.59252 0.13277 0.0
H721 H 1.03216 0.5928 0.1294 0.0
H722 H 1.02622 0.44739 0.11082 0.0
H723 H 1.01343 0.41396 0.13128 0.0
H724 H 0.04407 0.42276 0.13237 0.0
H725 H 0.04091 0.44002 0.17769 0.0
H726 H 1.01024 0.43148 0.1767 0.0
H727 H 1.02104 0.47668 0.18713 0.0
H728 H 0.98972 0.58127 0.12864 0.0
H729 H 0.94974 0.55788 0.12914 0.0
H730 H 0.97473 0.44511 0.14719 0.0
C731 C 0.06452 0.49923 0.14678 0.0
C732 C 0.07735 0.53296 0.14293 0.0
C733 C 0.06525 0.56651 0.13642 0.0
C734 C 0.04112 0.56693 0.13428 0.0
C735 C 1.02904 0.53354 0.13853 0.0
C736 C 0.04025 0.50019 0.1445 0.0
C737 C 1.02289 0.46829 0.14797 0.0
C738 C 1.02689 0.4362 0.12951 0.0
C739 C 1.02383 0.45324 0.17392 0.0
C740 C 1.00027 0.48906 0.1431 0.0
C741 C 1.00432 0.52668 0.13771 0.0
C742 C 0.98634 0.55177 0.13265 0.0
C743 C 0.9636 0.53809 0.13286 0.0
C744 C 0.95879 0.4995 0.13801 0.0
C745 C 0.97756 0.4748 0.14335 0.0
H746 H 0.97677 0.52803 0.67084 0.0
H747 H 1.00179 0.6425 0.68412 0.0
H748 H 0.04186 0.61892 0.68274 0.0
H749 H 1.01967 0.47932 0.70571 0.0
H750 H 1.02214 0.43999 0.68491 0.0
H751 H 0.9953 0.46571 0.68731 0.0
H752 H 0.99605 0.47896 0.64141 0.0
H753 H 1.02286 0.45319 0.63885 0.0
H754 H 1.02098 0.50149 0.62842 0.0
H755 H 0.0792 0.58314 0.67977 0.0
H756 H 0.11131 0.53789 0.67432 0.0
H757 H 0.06213 0.44678 0.66235 0.0
C758 C 0.9906 0.54831 0.67324 0.0
C759 C 0.98598 0.58721 0.67769 0.0
C760 C 1.00476 0.61252 0.68106 0.0
C761 C 1.02763 0.59942 0.68018 0.0
C762 C 1.0315 0.56094 0.67585 0.0
C763 C 1.01354 0.53576 0.67234 0.0
C764 C 1.02244 0.49585 0.66777 0.0
C765 C 1.01441 0.46862 0.68761 0.0
C766 C 1.01515 0.48154 0.64261 0.0
C767 C 0.04823 0.50261 0.66915 0.0
C768 C 0.05307 0.54032 0.67395 0.0
C769 C 0.07564 0.5535 0.67609 0.0
C770 C 0.09377 0.52747 0.67313 0.0
C771 C 0.08928 0.48867 0.66802 0.0
C772 C 0.06614 0.47625 0.66606 0.0
H773 H 0.10938 0.51152 0.88297 0.0
H774 H 0.08575 0.57511 0.8208 0.0
H775 H 0.05417 0.52903 0.81468 0.0
H776 H 0.09596 0.41641 0.8586 0.0
H777 H 0.08689 0.39888 0.88752 0.0
H778 H 0.10867 0.43526 0.88586 0.0
H779 H 0.0842 0.47854 0.91387 0.0
H780 H 0.06236 0.44241 0.91558 0.0
H781 H 0.05478 0.48948 0.90566 0.0
H782 H 1.02341 0.47887 0.81724 0.0
H783 H 0.99606 0.428 0.82809 0.0
H784 H 0.04014 0.39642 0.88807 0.0
C785 C 0.09794 0.51536 0.86773 0.0
C786 C 0.10012 0.54708 0.85236 0.0
C787 C 0.08433 0.55135 0.83297 0.0
C788 C 0.06642 0.52515 0.82925 0.0
C789 C 0.06456 0.4946 0.84497 0.0
C790 C 0.07997 0.48946 0.86374 0.0
C791 C 0.07347 0.45535 0.8788 0.0
C792 C 0.09238 0.42465 0.87761 0.0
C793 C 0.0684 0.46717 0.90502 0.0
C794 C 0.05172 0.44255 0.86585 0.0
C795 C 0.04696 0.46546 0.8463 0.0
C796 C 1.02711 0.46051 0.83235 0.0
C797 C 1.01163 0.43168 0.8387 0.0
C798 C 1.01603 0.40811 0.85882 0.0
C799 C 1.03654 0.41342 0.87231 0.0
H800 H 0.24269 0.28775 0.39174 0.0
H801 H 0.27029 0.40185 0.38608 0.0
H802 H 0.30957 0.37535 0.38209 0.0
H803 H 0.2909 0.24755 0.4258 0.0
H804 H 0.28967 0.20244 0.4103 0.0
H805 H 0.26377 0.23035 0.41406 0.0
H806 H 0.25693 0.22887 0.36789 0.0
H807 H 0.28276 0.20094 0.36399 0.0
H808 H 0.27941 0.24506 0.34804 0.0
H809 H 0.34545 0.33661 0.37578 0.0
H810 H 0.37568 0.2882 0.36874 0.0
H811 H 0.32537 0.19889 0.37906 0.0
C812 C 0.25697 0.30722 0.3897 0.0
C813 C 0.25328 0.34703 0.38927 0.0
C814 C 0.27258 0.37138 0.38681 0.0
C815 C 0.295 0.35655 0.38441 0.0
C816 C 0.29795 0.31725 0.38469 0.0
C817 C 0.2795 0.29288 0.38741 0.0
C818 C 0.28738 0.25171 0.38653 0.0
C819 C 0.28265 0.23185 0.41061 0.0
C820 C 0.27594 0.2304 0.36535 0.0
C821 C 0.3131 0.25673 0.38245 0.0
C822 C 0.31878 0.29482 0.38148 0.0
C823 C 0.34123 0.30673 0.37673 0.0
C824 C 0.35826 0.27906 0.37265 0.0
C825 C 0.35289 0.23986 0.37345 0.0
C826 C 0.33003 0.22864 0.37875 0.0
H827 H 0.7511 0.80761 0.37987 0.0
H828 H 0.70289 0.72014 0.35719 0.0
H829 H 0.7337 0.672 0.36046 0.0
H830 H 0.7997 0.77162 0.34813 0.0
H831 H 0.82044 0.78333 0.37129 0.0
H832 H 0.79436 0.81091 0.36838 0.0
H833 H 0.78425 0.79755 0.41298 0.0
H834 H 0.8104 0.77011 0.41608 0.0
H835 H 0.78292 0.74916 0.42331 0.0
H836 H 0.77007 0.63359 0.36447 0.0
H837 H 0.80928 0.60752 0.36942 0.0
H838 H 0.83401 0.71933 0.39056 0.0
C839 C 0.74693 0.77826 0.37598 0.0
C840 C 0.7245 0.76777 0.36817 0.0
C841 C 0.71994 0.72904 0.36288 0.0
C842 C 0.73733 0.7014 0.36482 0.0
C843 C 0.75929 0.71275 0.37215 0.0
C844 C 0.76415 0.7502 0.37777 0.0
C845 C 0.78941 0.75489 0.38457 0.0
C846 C 0.8017 0.78178 0.36704 0.0
C847 C 0.79188 0.76874 0.4108 0.0
C848 C 0.79798 0.71433 0.38166 0.0
C849 C 0.78029 0.69049 0.37457 0.0
C850 C 0.78403 0.65194 0.37025 0.0
C851 C 0.80644 0.63731 0.37323 0.0
C852 C 0.82498 0.6611 0.3805 0.0
C853 C 0.82046 0.70019 0.38481 0.0
H854 H 0.27013 0.60837 0.16652 0.0
H855 H 0.22795 0.66548 0.11309 0.0
H856 H 0.25851 0.71344 0.10765 0.0
H857 H 0.29246 0.69191 0.19413 0.0
H858 H 0.32097 0.67296 0.19941 0.0
H859 H 0.2965 0.64153 0.19805 0.0
H860 H 0.31638 0.60222 0.16434 0.0
H861 H 0.34099 0.63341 0.1657 0.0
H862 H 0.32615 0.62575 0.13747 0.0
H863 H 0.29289 0.75712 0.10934 0.0
H864 H 0.32898 0.79223 0.11722 0.0
H865 H 0.34894 0.70769 0.17004 0.0
C866 C 0.26755 0.63056 0.15336 0.0
C867 C 0.24659 0.63315 0.14022 0.0
C868 C 0.24373 0.6631 0.12349 0.0
C869 C 0.26104 0.69041 0.12022 0.0
C870 C 0.28126 0.68759 0.13381 0.0
C871 C 0.28468 0.65833 0.14997 0.0
C872 C 0.3077 0.66276 0.16292 0.0
C873 C 0.30419 0.66758 0.19024 0.0
C874 C 0.32375 0.62903 0.15726 0.0
C875 C 0.31655 0.69914 0.15165 0.0
C876 C 0.30105 0.71292 0.13486 0.0
C877 C 0.30519 0.74651 0.12242 0.0
C878 C 0.32572 0.76648 0.12717 0.0
C879 C 0.342 0.753 0.14428 0.0
C880 C 0.33716 0.71873 0.15661 0.0
H881 H 0.73831 0.20577 0.15401 0.0
H882 H 0.67988 0.28171 0.16428 0.0
H883 H 0.70577 0.33667 0.16195 0.0
H884 H 0.77917 0.2598 0.18872 0.0
H885 H 0.80322 0.25101 0.16887 0.0
H886 H 0.78019 0.21686 0.17086 0.0
H887 H 0.77385 0.22058 0.1247 0.0
H888 H 0.79695 0.2546 0.12257 0.0
H889 H 0.76869 0.26609 0.11095 0.0
H890 H 0.73761 0.38364 0.16004 0.0
H891 H 0.77338 0.42022 0.1571 0.0
H892 H 0.8121 0.31552 0.1462 0.0
C893 C 0.73093 0.23394 0.15551 0.0
C894 C 0.70692 0.23911 0.15963 0.0
C895 C 0.69814 0.27665 0.16164 0.0
C896 C 0.71273 0.30824 0.16018 0.0
C897 C 0.73622 0.30218 0.15654 0.0
C898 C 0.74535 0.26607 0.15405 0.0
C899 C 0.77138 0.26794 0.15038 0.0
C900 C 0.78425 0.2477 0.17093 0.0
C901 C 0.77811 0.25132 0.12568 0.0
C902 C 0.77535 0.31066 0.15136 0.0
C903 C 0.75476 0.32969 0.15495 0.0
C904 C 0.75383 0.36908 0.15696 0.0
C905 C 0.77441 0.38973 0.1551 0.0
C906 C 0.79592 0.37125 0.15111 0.0
C907 C 0.7962 0.33092 0.1493 0.0
H908 H 0.73378 0.78316 0.61973 0.0
H909 H 0.71067 0.7849 0.69379 0.0
H910 H 0.74534 0.74765 0.70592 0.0
H911 H 0.76016 0.68933 0.61903 0.0
H912 H 0.78413 0.7041 0.6007 0.0
H913 H 0.75658 0.72758 0.59788 0.0
H914 H 0.77612 0.79245 0.60653 0.0
H915 H 0.8037 0.76917 0.60943 0.0
H916 H 0.79297 0.79857 0.63367 0.0
H917 H 0.78266 0.70959 0.70936 0.0
H918 H 0.82145 0.68006 0.70473 0.0
H919 H 0.82126 0.70904 0.62902 0.0
C920 C 0.73594 0.77499 0.63839 0.0
C921 C 0.71957 0.7859 0.65586 0.0
C922 C 0.72307 0.77614 0.68027 0.0
C923 C 0.7426 0.75505 0.68721 0.0
C924 C 0.75856 0.74474 0.66951 0.0
C925 C 0.75555 0.75486 0.64565 0.0
C926 C 0.77602 0.74308 0.63043 0.0
C927 C 0.76878 0.71431 0.61086 0.0
C928 C 0.7879 0.77789 0.61938 0.0
C929 C 0.79105 0.7247 0.64941 0.0
C930 C 0.78056 0.72529 0.67178 0.0
C931 C 0.79107 0.70918 0.69196 0.0
C932 C 0.81297 0.69243 0.68921 0.0
C933 C 0.8242 0.69275 0.66662 0.0
C934 C 0.81304 0.70895 0.64653 0.0
H935 H 0.24665 0.34061 0.65047 0.0
H936 H 0.21085 0.26823 0.70113 0.0
H937 H 0.24491 0.22608 0.70297 0.0
H938 H 0.27571 0.26594 0.61811 0.0
H939 H 0.30187 0.29278 0.61404 0.0
H940 H 0.27456 0.31705 0.6166 0.0
H941 H 0.29065 0.35715 0.6522 0.0
H942 H 0.318 0.33296 0.64977 0.0
H943 H 0.30276 0.33346 0.67806 0.0
H944 H 0.28321 0.19213 0.69966 0.0
H945 H 0.3226 0.1688 0.6911 0.0
H946 H 0.33312 0.2633 0.64249 0.0
C947 C 0.24599 0.31609 0.6621 0.0
C948 C 0.22598 0.3078 0.67563 0.0
C949 C 0.2258 0.27499 0.69034 0.0
C950 C 0.24513 0.25097 0.69162 0.0
C951 C 0.26455 0.26005 0.67808 0.0
C952 C 0.2651 0.29178 0.66357 0.0
C953 C 0.28806 0.29509 0.65075 0.0
C954 C 0.28485 0.29255 0.62325 0.0
C955 C 0.30061 0.33184 0.65815 0.0
C956 C 0.30037 0.26035 0.66042 0.0
C957 C 0.28653 0.24049 0.67614 0.0
C958 C 0.29418 0.2074 0.6873 0.0
C959 C 0.31656 0.19424 0.68222 0.0
C960 C 0.33108 0.21411 0.6661 0.0
C961 C 0.32271 0.24763 0.65514 0.0
H962 H 0.76652 0.18551 0.84627 0.0
H963 H 0.76045 0.16271 0.92272 0.0
H964 H 0.80007 0.18686 0.92928 0.0
H965 H 0.82573 0.15746 0.84064 0.0
H966 H 0.83283 0.19395 0.81928 0.0
H967 H 0.8038 0.17578 0.82067 0.0
H968 H 0.78797 0.24392 0.82749 0.0
H969 H 0.81691 0.26234 0.82588 0.0
H970 H 0.79932 0.27237 0.85192 0.0
H971 H 0.84025 0.21429 0.92746 0.0
H972 H 0.87803 0.2427 0.91734 0.0
H973 H 0.85806 0.24616 0.84198 0.0
C974 C 0.77342 0.18605 0.86443 0.0
C975 C 0.76037 0.17237 0.88403 0.0
C976 C 0.77021 0.17285 0.90745 0.0
C977 C 0.79266 0.18658 0.91134 0.0
C978 C 0.80513 0.19949 0.89158 0.0
C979 C 0.79587 0.19933 0.86858 0.0
C980 C 0.81301 0.21424 0.85039 0.0
C981 C 0.81921 0.18352 0.83164 0.0
C982 C 0.80375 0.25036 0.83821 0.0
C983 C 0.83334 0.22298 0.86675 0.0
C984 C 0.82843 0.21439 0.89046 0.0
C985 C 0.84432 0.22098 0.90894 0.0
C986 C 0.86569 0.23714 0.90305 0.0
C987 C 0.87106 0.24632 0.87889 0.0
C988 C 0.85467 0.23875 0.86054 0.0
H989 H 0.25434 0.72223 0.84596 0.0
H990 H 0.24437 0.69993 0.922 0.0
H991 H 0.28174 0.73074 0.93123 0.0
H992 H 0.31606 0.70539 0.84543 0.0
H993 H 0.32172 0.74259 0.82409 0.0
H994 H 0.29438 0.71827 0.82353 0.0
H995 H 0.2729 0.78263 0.8279 0.0
H996 H 0.30016 0.80714 0.82837 0.0
H997 H 0.27999 0.81381 0.85274 0.0
H998 H 0.31945 0.76706 0.93222 0.0
H999 H 0.35509 0.80387 0.92462 0.0
H1000 H 0.3406 0.8007 0.8479 0.0
C1001 C 0.25998 0.72396 0.86455 0.0
C1002 C 0.24643 0.70874 0.88327 0.0
C1003 C 0.25459 0.71107 0.90736 0.0
C1004 C 0.27574 0.72865 0.91277 0.0
C1005 C 0.28865 0.74342 0.89387 0.0
C1006 C 0.28115 0.74102 0.87023 0.0
C1007 C 0.29825 0.75913 0.85323 0.0
C1008 C 0.30819 0.72958 0.83553 0.0
C1009 C 0.28716 0.79267 0.83978 0.0
C1010 C 0.31641 0.77255 0.87102 0.0
C1011 C 0.31057 0.76331 0.89439 0.0
C1012 C 0.32429 0.77414 0.91397 0.0
C1013 C 0.34443 0.7951 0.90952 0.0
C1014 C 0.35075 0.80475 0.88569 0.0
C1015 C 0.33655 0.793 0.86626 0.0
H1016 H 0.40107 0.06495 0.30383 0.0
H1017 H 0.38856 0.9655 0.3477 0.0
H1018 H 0.38535 0.92618 0.31075 0.0
H1019 H 0.36278 0.03991 0.25397 0.0
H1020 H 0.38211 0.05797 0.23138 0.0
H1021 H 0.38194 0.07868 0.26117 0.0
H1022 H 0.42588 0.0659 0.26516 0.0
H1023 H 0.42619 0.04513 0.23542 0.0
H1024 H 0.43676 0.01835 0.26076 0.0
H1025 H 0.38449 0.89741 0.26905 0.0
H1026 H 0.38759 0.88062 0.22598 0.0
H1027 H 0.40189 0.99851 0.20912 0.0
C1028 C 0.39734 0.03498 0.30569 0.0
C1029 C 0.39486 0.01836 0.32872 0.0
C1030 C 0.39044 0.97891 0.3303 0.0
C1031 C 0.38854 0.95636 0.3094 0.0
C1032 C 0.39126 0.9736 0.28701 0.0
C1033 C 0.39565 0.012 0.28502 0.0
C1034 C 0.39901 0.02317 0.25889 0.0
C1035 C 0.38035 0.05161 0.25088 0.0
C1036 C 0.42341 0.03907 0.25483 0.0
C1037 C 0.39594 0.98501 0.24646 0.0
C1038 C 0.39129 0.95688 0.26301 0.0
C1039 C 0.38807 0.91923 0.25594 0.0
C1040 C 0.38986 0.90999 0.23136 0.0
C1041 C 0.39498 0.9382 0.21403 0.0
C1042 C 0.39789 0.97626 0.22181 0.0
H1043 H 0.67269 0.04345 0.22245 0.0
H1044 H 0.74504 0.04256 0.20215 0.0
H1045 H 0.75482 0.01047 0.24044 0.0
H1046 H 0.68203 0.0628 0.28568 0.0
H1047 H 0.65852 0.03305 0.29525 0.0
H1048 H 0.65734 0.0558 0.26627 0.0
H1049 H 0.65126 0.99047 0.24542 0.0
H1050 H 0.65228 0.96758 0.27432 0.0
H1051 H 0.67171 0.95271 0.25073 0.0
H1052 H 0.75627 0.97591 0.28062 0.0
H1053 H 0.74931 0.94313 0.31928 0.0
H1054 H 0.67627 0.96985 0.3136 0.0
C1055 C 0.69061 0.03646 0.22598 0.0
C1056 C 0.7081 0.04537 0.20921 0.0
C1057 C 0.73134 0.036 0.21469 0.0
C1058 C 0.73707 0.0178 0.23641 0.0
C1059 C 0.71938 0.00954 0.25257 0.0
C1060 C 0.69664 0.01876 0.24762 0.0
C1061 C 0.68083 0.00697 0.26793 0.0
C1062 C 0.66899 0.04173 0.27946 0.0
C1063 C 0.66297 0.97769 0.25907 0.0
C1064 C 0.69816 0.98926 0.285 0.0
C1065 C 0.72031 0.99089 0.27585 0.0
C1066 C 0.73902 0.97482 0.28804 0.0
C1067 C 0.73491 0.95627 0.30999 0.0
C1068 C 0.71231 0.95423 0.31961 0.0
C1069 C 0.69383 0.97143 0.30698 0.0
H1070 H 0.67965 0.99435 0.82868 0.0
H1071 H 0.74933 0.03589 0.81742 0.0
H1072 H 0.74803 0.01257 0.77539 0.0
H1073 H 0.68542 0.90855 0.79109 0.0
H1074 H 0.65619 0.91192 0.78001 0.0
H1075 H 0.66328 0.92976 0.80963 0.0
H1076 H 0.64647 0.9955 0.79814 0.0
H1077 H 0.63954 0.97802 0.76842 0.0
H1078 H 0.65741 0.01956 0.77197 0.0
H1079 H 0.73787 0.9894 0.73343 0.0
H1080 H 0.72068 0.96349 0.69587 0.0
H1081 H 0.65819 0.93578 0.73498 0.0
C1082 C 0.69481 0.99798 0.81753 0.0
C1083 C 0.71461 0.01694 0.82643 0.0
C1084 C 0.73398 0.02133 0.81111 0.0
C1085 C 0.7334 0.00827 0.78715 0.0
C1086 C 0.7134 0.99055 0.77879 0.0
C1087 C 0.69457 0.98493 0.79361 0.0
C1088 C 0.67499 0.96582 0.78007 0.0
C1089 C 0.66966 0.92668 0.79084 0.0
C1090 C 0.65333 0.99125 0.77963 0.0
C1091 C 0.6856 0.9621 0.75523 0.0
C1092 C 0.70774 0.97661 0.75482 0.0
C1093 C 0.72064 0.97757 0.73361 0.0
C1094 C 0.7107 0.96297 0.71234 0.0
C1095 C 0.68816 0.94743 0.71249 0.0
C1096 C 0.67555 0.94711 0.73429 0.0
H1097 H 0.40718 0.01161 0.83284 0.0
H1098 H 0.34655 0.9426 0.81859 0.0
H1099 H 0.3442 0.96853 0.77744 0.0
H1100 H 0.38771 0.09441 0.79907 0.0
H1101 H 0.41629 0.10519 0.78833 0.0
H1102 H 0.41266 0.08192 0.81689 0.0
H1103 H 0.43945 0.02726 0.80251 0.0
H1104 H 0.44298 0.05016 0.77383 0.0
H1105 H 0.4326 0.00199 0.77504 0.0
H1106 H 0.35006 0.99909 0.73655 0.0
H1107 H 0.36163 0.03644 0.70083 0.0
H1108 H 0.41735 0.0869 0.74249 0.0
C1109 C 0.39324 0.00227 0.82119 0.0
C1110 C 0.37705 0.97504 0.82904 0.0
C1111 C 0.35912 0.96355 0.81312 0.0
C1112 C 0.35768 0.978 0.78962 0.0
C1113 C 0.37417 0.00423 0.7823 0.0
C1114 C 0.39142 0.01666 0.79774 0.0
C1115 C 0.40699 0.04506 0.78546 0.0
C1116 C 0.40583 0.08395 0.7982 0.0
C1117 C 0.43198 0.03022 0.78414 0.0
C1118 C 0.39593 0.04645 0.76068 0.0
C1119 C 0.37712 0.02251 0.7591 0.0
C1120 C 0.36464 0.01822 0.73766 0.0
C1121 C 0.37138 0.03937 0.71744 0.0
C1122 C 0.39028 0.06474 0.7189 0.0
C1123 C 0.40267 0.06805 0.74084 0.0
H1124 H 0.86624 0.46697 0.2281 0.0
H1125 H 0.91254 0.36996 0.22524 0.0
H1126 H 0.91693 0.3734 0.26983 0.0
H1127 H 0.89658 0.51885 0.27124 0.0
H1128 H 0.87119 0.53794 0.28568 0.0
H1129 H 0.87021 0.52497 0.25429 0.0
H1130 H 0.83552 0.4805 0.26249 0.0
H1131 H 0.8364 0.49332 0.29398 0.0
H1132 H 0.83812 0.44408 0.28504 0.0
H1133 H 0.91847 0.39205 0.31479 0.0
H1134 H 0.91753 0.42359 0.35474 0.0
H1135 H 0.86978 0.50779 0.32676 0.0
C1136 C 0.87716 0.44603 0.23674 0.0
C1137 C 0.88911 0.41818 0.22313 0.0
C1138 C 0.90316 0.39143 0.2353 0.0
C1139 C 0.90571 0.39321 0.2606 0.0
C1140 C 0.8939 0.42162 0.27337 0.0
C1141 C 0.87979 0.44735 0.26172 0.0
C1142 C 0.86987 0.47652 0.27898 0.0
C1143 C 0.87743 0.51694 0.27214 0.0
C1144 C 0.84341 0.4734 0.28019 0.0
C1145 C 0.88099 0.46393 0.30227 0.0
C1146 C 0.89464 0.43204 0.29883 0.0
C1147 C 0.90761 0.41671 0.31765 0.0
C1148 C 0.90693 0.43486 0.34032 0.0
C1149 C 0.89347 0.46812 0.344 0.0
C1150 C 0.88001 0.48219 0.32473 0.0
H1151 H 0.18991 0.48789 0.3313 0.0
H1152 H 0.15939 0.5865 0.36619 0.0
H1153 H 0.1538 0.61647 0.32631 0.0
H1154 H 0.21966 0.53842 0.28351 0.0
H1155 H 0.21389 0.50162 0.26158 0.0
H1156 H 0.21682 0.48977 0.29299 0.0
H1157 H 0.17653 0.45777 0.29195 0.0
H1158 H 0.17344 0.46963 0.2606 0.0
H1159 H 0.15179 0.48469 0.28194 0.0
H1160 H 0.14996 0.63418 0.28112 0.0
H1161 H 0.14821 0.63663 0.2363 0.0
H1162 H 0.18088 0.52569 0.23283 0.0
C1163 C 0.18234 0.51603 0.33069 0.0
C1164 C 0.17521 0.53485 0.35198 0.0
C1165 C 0.16513 0.57151 0.35018 0.0
C1166 C 0.16186 0.58879 0.32757 0.0
C1167 C 0.1688 0.5691 0.30689 0.0
C1168 C 0.1789 0.53353 0.30839 0.0
C1169 C 0.18402 0.51732 0.28369 0.0
C1170 C 0.21015 0.51145 0.28025 0.0
C1171 C 0.17064 0.48017 0.2793 0.0
C1172 C 0.17499 0.54901 0.26797 0.0
C1173 C 0.16639 0.57889 0.28148 0.0
C1174 C 0.15677 0.61092 0.27043 0.0
C1175 C 0.15584 0.61214 0.24498 0.0
C1176 C 0.1643 0.58137 0.23098 0.0
C1177 C 0.17413 0.54974 0.24286 0.0
H1178 H 0.19675 0.48075 0.84457 0.0
H1179 H 0.18963 0.60279 0.84867 0.0
H1180 H 0.18411 0.6056 0.80469 0.0
H1181 H 0.22979 0.47853 0.7911 0.0
H1182 H 0.21658 0.43602 0.77921 0.0
H1183 H 0.21809 0.44364 0.81131 0.0
H1184 H 0.17369 0.43588 0.81448 0.0
H1185 H 0.17206 0.42784 0.78241 0.0
H1186 H 0.15505 0.46502 0.79616 0.0
H1187 H 0.1814 0.59462 0.75938 0.0
H1188 H 0.18018 0.57096 0.71732 0.0
H1189 H 0.19021 0.45582 0.74296 0.0
C1190 C 0.19376 0.50812 0.83631 0.0
C1191 C 0.19321 0.54183 0.85037 0.0
C1192 C 0.1895 0.5768 0.83862 0.0
C1193 C 0.18656 0.57854 0.81349 0.0
C1194 C 0.18752 0.54484 0.8002 0.0
C1195 C 0.19092 0.51023 0.81126 0.0
C1196 C 0.19193 0.47818 0.79293 0.0
C1197 C 0.2155 0.45792 0.79369 0.0
C1198 C 0.17199 0.45008 0.79672 0.0
C1199 C 0.18887 0.5002 0.76976 0.0
C1200 C 0.18628 0.5386 0.7743 0.0
C1201 C 0.18334 0.56457 0.75565 0.0
C1202 C 0.18275 0.55086 0.73178 0.0
C1203 C 0.18517 0.51153 0.72673 0.0
C1204 C 0.1884 0.48607 0.7461 0.0
H1205 H 0.91529 0.47513 0.7238 0.0
H1206 H 0.86126 0.55902 0.73505 0.0
H1207 H 0.85753 0.5383 0.7774 0.0
H1208 H 0.89087 0.40146 0.76229 0.0
H1209 H 0.9189 0.38659 0.77296 0.0
H1210 H 0.91584 0.4063 0.74322 0.0
H1211 H 0.94679 0.45693 0.75372 0.0
H1212 H 0.94976 0.43767 0.78355 0.0
H1213 H 0.94275 0.48718 0.77973 0.0
H1214 H 0.86183 0.51074 0.81977 0.0
H1215 H 0.87252 0.47689 0.85726 0.0
H1216 H 0.92369 0.41195 0.81733 0.0
C1217 C 0.90237 0.48878 0.73499 0.0
C1218 C 0.88852 0.51864 0.72602 0.0
C1219 C 0.87199 0.53591 0.74143 0.0
C1220 C 0.86979 0.52441 0.76555 0.0
C1221 C 0.88415 0.49548 0.77396 0.0
C1222 C 0.89997 0.4777 0.75902 0.0
C1223 C 0.91394 0.44828 0.77249 0.0
C1224 C 0.90962 0.40829 0.76213 0.0
C1225 C 0.93984 0.45813 0.77236 0.0
C1226 C 0.90378 0.45258 0.79745 0.0
C1227 C 0.88658 0.47983 0.79804 0.0
C1228 C 0.87516 0.48914 0.81943 0.0
C1229 C 0.88139 0.46987 0.84066 0.0
C1230 C 0.8989 0.44167 0.84031 0.0
C1231 C 0.91015 0.43319 0.81832 0.0
loop_
_geom_bond_atom_site_label_1
_geom_bond_atom_site_label_2
_geom_bond_distance
_geom_bond_site_symmetry_2
_ccdc_geom_bond_type
Cu0 N1 1.999 . S
Cu0 O6 1.974 . S
Cu0 N11 1.985 . S
Cu0 O20 1.959 . S
N1 Cu0 1.999 . S
N1 C3 1.263 . S
N1 C5 1.389 . S
N2 C3 1.358 . S
N2 C4 1.400 . S
C3 N1 1.263 . S
C3 N2 1.358 . S
C3 H9 0.930 . S
C4 N2 1.400 . S
C4 C5 1.351 . S
C4 H21 0.930 . S
C5 N1 1.389 . S
C5 C4 1.351 . S
C5 H10 0.930 . S
O6 Cu0 1.974 . S
O6 C16 1.282 . S
C7 O8 1.261 . S
C7 O20 1.251 . S
O8 C7 1.261 . S
H9 C3 0.930 . S
H10 C5 0.930 . S
N11 Cu0 1.985 . S
N11 C13 1.335 . S
N11 C14 1.390 . S
N12 C13 1.345 . S
N12 C15 1.336 . S
C13 N11 1.335 . S
C13 N12 1.345 . S
C13 H18 0.930 . S
C14 N11 1.390 . S
C14 C15 1.346 . S
C14 H19 0.930 . S
C15 N12 1.336 . S
C15 C14 1.346 . S
C15 H22 0.929 . S
C16 O6 1.282 . S
C16 O17 1.216 . S
O17 C16 1.216 . S
H18 C13 0.930 . S
H19 C14 0.930 . S
O20 Cu0 1.959 . S
O20 C7 1.251 . S
H21 C4 0.930 . S
H22 C15 0.929 . S
Cu23 N24 1.999 . S
Cu23 O29 1.974 . S
Cu23 N34 1.985 . S
Cu23 O43 1.959 . S
N24 Cu23 1.999 . S
N24 C26 1.263 . S
N24 C28 1.389 . S
N25 C26 1.358 . S
N25 C27 1.400 . S
C26 N24 1.263 . S
C26 N25 1.358 . S
C26 H32 0.930 . S
C27 N25 1.400 . S
C27 C28 1.351 . S
C27 H44 0.930 . S
C28 N24 1.389 . S
C28 C27 1.351 . S
C28 H33 0.930 . S
O29 Cu23 1.974 . S
O29 C39 1.282 . S
C30 O31 1.261 . S
C30 O43 1.251 . S
O31 C30 1.261 . S
H32 C26 0.930 . S
H33 C28 0.930 . S
N34 Cu23 1.985 . S
N34 C36 1.335 . S
N34 C37 1.390 . S
N35 C36 1.345 . S
N35 C38 1.336 . S
C36 N34 1.335 . S
C36 N35 1.345 . S
C36 H41 0.930 . S
C37 N34 1.390 . S
C37 C38 1.346 . S
C37 H42 0.930 . S
C38 N35 1.336 . S
C38 C37 1.346 . S
C38 H45 0.929 . S
C39 O29 1.282 . S
C39 O40 1.216 . S
O40 C39 1.216 . S
H41 C36 0.930 . S
H42 C37 0.930 . S
O43 Cu23 1.959 . S
O43 C30 1.251 . S
H44 C27 0.930 . S
H45 C38 0.929 . S
Cu46 N47 1.999 . S
Cu46 O52 1.974 . S
Cu46 N57 1.985 . S
Cu46 O66 1.959 . S
N47 Cu46 1.999 . S
N47 C49 1.263 . S
N47 C51 1.389 . S
N48 C49 1.358 . S
N48 C50 1.400 . S
C49 N47 1.263 . S
C49 N48 1.358 . S
C49 H55 0.930 . S
C50 N48 1.400 . S
C50 C51 1.351 . S
C50 H67 0.930 . S
C51 N47 1.389 . S
C51 C50 1.351 . S
C51 H56 0.930 . S
O52 Cu46 1.974 . S
O52 C62 1.282 . S
C53 O54 1.261 . S
C53 O66 1.251 . S
O54 C53 1.261 . S
H55 C49 0.930 . S
H56 C51 0.930 . S
N57 Cu46 1.985 . S
N57 C59 1.335 . S
N57 C60 1.390 . S
N58 C59 1.345 . S
N58 C61 1.336 . S
C59 N57 1.335 . S
C59 N58 1.345 . S
C59 H64 0.930 . S
C60 N57 1.390 . S
C60 C61 1.346 . S
C60 H65 0.930 . S
C61 N58 1.336 . S
C61 C60 1.346 . S
C61 H68 0.929 . S
C62 O52 1.282 . S
C62 O63 1.216 . S
O63 C62 1.216 . S
H64 C59 0.930 . S
H65 C60 0.930 . S
O66 Cu46 1.959 . S
O66 C53 1.251 . S
H67 C50 0.930 . S
H68 C61 0.929 . S
Cu69 N70 1.999 . S
Cu69 O75 1.974 . S
Cu69 N80 1.985 . S
Cu69 O89 1.959 . S
N70 Cu69 1.999 . S
N70 C72 1.263 . S
N70 C74 1.389 . S
N71 C72 1.358 . S
N71 C73 1.400 . S
C72 N70 1.263 . S
C72 N71 1.358 . S
C72 H78 0.930 . S
C73 N71 1.400 . S
C73 C74 1.351 . S
C73 H90 0.930 . S
C74 N70 1.389 . S
C74 C73 1.351 . S
C74 H79 0.930 . S
O75 Cu69 1.974 . S
O75 C85 1.282 . S
C76 O77 1.261 . S
C76 O89 1.251 . S
O77 C76 1.261 . S
H78 C72 0.930 . S
H79 C74 0.930 . S
N80 Cu69 1.985 . S
N80 C82 1.335 . S
N80 C83 1.390 . S
N81 C82 1.345 . S
N81 C84 1.336 . S
C82 N80 1.335 . S
C82 N81 1.345 . S
C82 H87 0.930 . S
C83 N80 1.390 . S
C83 C84 1.346 . S
C83 H88 0.930 . S
C84 N81 1.336 . S
C84 C83 1.346 . S
C84 H91 0.929 . S
C85 O75 1.282 . S
C85 O86 1.216 . S
O86 C85 1.216 . S
H87 C82 0.930 . S
H88 C83 0.930 . S
O89 Cu69 1.959 . S
O89 C76 1.251 . S
H90 C73 0.930 . S
H91 C84 0.929 . S
Cu92 N93 1.999 . S
Cu92 O98 1.974 . S
Cu92 N103 1.985 . S
Cu92 O112 1.959 . S
N93 Cu92 1.999 . S
N93 C95 1.263 . S
N93 C97 1.389 . S
N94 C95 1.358 . S
N94 C96 1.400 . S
C95 N93 1.263 . S
C95 N94 1.358 . S
C95 H101 0.930 . S
C96 N94 1.400 . S
C96 C97 1.351 . S
C96 H113 0.930 . S
C97 N93 1.389 . S
C97 C96 1.351 . S
C97 H102 0.930 . S
O98 Cu92 1.974 . S
O98 C108 1.282 . S
C99 O100 1.261 . S
C99 O112 1.251 . S
O100 C99 1.261 . S
H101 C95 0.930 . S
H102 C97 0.930 . S
N103 Cu92 1.985 . S
N103 C105 1.335 . S
N103 C106 1.390 . S
N104 C105 1.345 . S
N104 C107 1.336 . S
C105 N103 1.335 . S
C105 N104 1.345 . S
C105 H110 0.930 . S
C106 N103 1.390 . S
C106 C107 1.346 . S
C106 H111 0.930 . S
C107 N104 1.336 . S
C107 C106 1.346 . S
C107 H114 0.929 . S
C108 O98 1.282 . S
C108 O109 1.216 . S
O109 C108 1.216 . S
H110 C105 0.930 . S
H111 C106 0.930 . S
O112 Cu92 1.959 . S
O112 C99 1.251 . S
H113 C96 0.930 . S
H114 C107 0.929 . S
Cu115 N116 1.999 . S
Cu115 O121 1.974 . S
Cu115 N126 1.985 . S
Cu115 O135 1.959 . S
N116 Cu115 1.999 . S
N116 C118 1.263 . S
N116 C120 1.389 . S
N117 C118 1.358 . S
N117 C119 1.400 . S
C118 N116 1.263 . S
C118 N117 1.358 . S
C118 H124 0.930 . S
C119 N117 1.400 . S
C119 C120 1.351 . S
C119 H136 0.930 . S
C120 N116 1.389 . S
C120 C119 1.351 . S
C120 H125 0.930 . S
O121 Cu115 1.974 . S
O121 C131 1.282 . S
C122 O123 1.261 . S
C122 O135 1.251 . S
O123 C122 1.261 . S
H124 C118 0.930 . S
H125 C120 0.930 . S
N126 Cu115 1.985 . S
N126 C128 1.335 . S
N126 C129 1.390 . S
N127 C128 1.345 . S
N127 C130 1.336 . S
C128 N126 1.335 . S
C128 N127 1.345 . S
C128 H133 0.930 . S
C129 N126 1.390 . S
C129 C130 1.346 . S
C129 H134 0.930 . S
C130 N127 1.336 . S
C130 C129 1.346 . S
C130 H137 0.929 . S
C131 O121 1.282 . S
C131 O132 1.216 . S
O132 C131 1.216 . S
H133 C128 0.930 . S
H134 C129 0.930 . S
O135 Cu115 1.959 . S
O135 C122 1.251 . S
H136 C119 0.930 . S
H137 C130 0.929 . S
Cu138 N139 1.999 . S
Cu138 O144 1.974 . S
Cu138 N149 1.985 . S
Cu138 O158 1.959 . S
N139 Cu138 1.999 . S
N139 C141 1.263 . S
N139 C143 1.389 . S
N140 C141 1.358 . S
N140 C142 1.400 . S
C141 N139 1.263 . S
C141 N140 1.358 . S
C141 H147 0.930 . S
C142 N140 1.400 . S
C142 C143 1.351 . S
C142 H159 0.930 . S
C143 N139 1.389 . S
C143 C142 1.351 . S
C143 H148 0.930 . S
O144 Cu138 1.974 . S
O144 C154 1.282 . S
C145 O146 1.261 . S
C145 O158 1.251 . S
O146 C145 1.261 . S
H147 C141 0.930 . S
H148 C143 0.930 . S
N149 Cu138 1.985 . S
N149 C151 1.335 . S
N149 C152 1.390 . S
N150 C151 1.345 . S
N150 C153 1.336 . S
C151 N149 1.335 . S
C151 N150 1.345 . S
C151 H156 0.930 . S
C152 N149 1.390 . S
C152 C153 1.346 . S
C152 H157 0.930 . S
C153 N150 1.336 . S
C153 C152 1.346 . S
C153 H160 0.929 . S
C154 O144 1.282 . S
C154 O155 1.216 . S
O155 C154 1.216 . S
H156 C151 0.930 . S
H157 C152 0.930 . S
O158 Cu138 1.959 . S
O158 C145 1.251 . S
H159 C142 0.930 . S
H160 C153 0.929 . S
Cu161 N162 1.999 . S
Cu161 O167 1.974 . S
Cu161 N172 1.985 . S
Cu161 O181 1.959 . S
N162 Cu161 1.999 . S
N162 C164 1.263 . S
N162 C166 1.389 . S
N163 C164 1.358 . S
N163 C165 1.400 . S
C164 N162 1.263 . S
C164 N163 1.358 . S
C164 H170 0.930 . S
C165 N163 1.400 . S
C165 C166 1.351 . S
C165 H182 0.930 . S
C166 N162 1.389 . S
C166 C165 1.351 . S
C166 H171 0.930 . S
O167 Cu161 1.974 . S
O167 C177 1.282 . S
C168 O169 1.261 . S
C168 O181 1.251 . S
O169 C168 1.261 . S
H170 C164 0.930 . S
H171 C166 0.930 . S
N172 Cu161 1.985 . S
N172 C174 1.335 . S
N172 C175 1.390 . S
N173 C174 1.345 . S
N173 C176 1.336 . S
C174 N172 1.335 . S
C174 N173 1.345 . S
C174 H179 0.930 . S
C175 N172 1.390 . S
C175 C176 1.346 . S
C175 H180 0.930 . S
C176 N173 1.336 . S
C176 C175 1.346 . S
C176 H183 0.929 . S
C177 O167 1.282 . S
C177 O178 1.216 . S
O178 C177 1.216 . S
H179 C174 0.930 . S
H180 C175 0.930 . S
O181 Cu161 1.959 . S
O181 C168 1.251 . S
H182 C165 0.930 . S
H183 C176 0.929 . S
Cu184 N185 1.999 . S
Cu184 O190 1.974 . S
Cu184 N195 1.985 . S
Cu184 O204 1.959 . S
N185 Cu184 1.999 . S
N185 C187 1.263 . S
N185 C189 1.389 . S
N186 C187 1.358 . S
N186 C188 1.400 . S
C187 N185 1.263 . S
C187 N186 1.358 . S
C187 H193 0.930 . S
C188 N186 1.400 . S
C188 C189 1.351 . S
C188 H205 0.930 . S
C189 N185 1.389 . S
C189 C188 1.351 . S
C189 H194 0.930 . S
O190 Cu184 1.974 . S
O190 C200 1.282 . S
C191 O192 1.261 . S
C191 O204 1.251 . S
O192 C191 1.261 . S
H193 C187 0.930 . S
H194 C189 0.930 . S
N195 Cu184 1.985 . S
N195 C197 1.335 . S
N195 C198 1.390 . S
N196 C197 1.345 . S
N196 C199 1.336 . S
C197 N195 1.335 . S
C197 N196 1.345 . S
C197 H202 0.930 . S
C198 N195 1.390 . S
C198 C199 1.346 . S
C198 H203 0.930 . S
C199 N196 1.336 . S
C199 C198 1.346 . S
C199 H206 0.929 . S
C200 O190 1.282 . S
C200 O201 1.216 . S
O201 C200 1.216 . S
H202 C197 0.930 . S
H203 C198 0.930 . S
O204 Cu184 1.959 . S
O204 C191 1.251 . S
H205 C188 0.930 . S
H206 C199 0.929 . S
Cu207 N208 1.999 . S
Cu207 O213 1.974 . S
Cu207 N218 1.985 . S
Cu207 O227 1.959 . S
N208 Cu207 1.999 . S
N208 C210 1.263 . S
N208 C212 1.389 . S
N209 C210 1.358 . S
N209 C211 1.400 . S
C210 N208 1.263 . S
C210 N209 1.358 . S
C210 H216 0.930 . S
C211 N209 1.400 . S
C211 C212 1.351 . S
C211 H228 0.930 . S
C212 N208 1.389 . S
C212 C211 1.351 . S
C212 H217 0.930 . S
O213 Cu207 1.974 . S
O213 C223 1.282 . S
C214 O215 1.261 . S
C214 O227 1.251 . S
O215 C214 1.261 . S
H216 C210 0.930 . S
H217 C212 0.930 . S
N218 Cu207 1.985 . S
N218 C220 1.335 . S
N218 C221 1.390 . S
N219 C220 1.345 . S
N219 C222 1.336 . S
C220 N218 1.335 . S
C220 N219 1.345 . S
C220 H225 0.930 . S
C221 N218 1.390 . S
C221 C222 1.346 . S
C221 H226 0.930 . S
C222 N219 1.336 . S
C222 C221 1.346 . S
C222 H229 0.929 . S
C223 O213 1.282 . S
C223 O224 1.216 . S
O224 C223 1.216 . S
H225 C220 0.930 . S
H226 C221 0.930 . S
O227 Cu207 1.959 . S
O227 C214 1.251 . S
H228 C211 0.930 . S
H229 C222 0.929 . S
Cu230 N231 1.999 . S
Cu230 O236 1.974 . S
Cu230 N241 1.985 . S
Cu230 O250 1.959 . S
N231 Cu230 1.999 . S
N231 C233 1.263 . S
N231 C235 1.389 . S
N232 C233 1.358 . S
N232 C234 1.400 . S
C233 N231 1.263 . S
C233 N232 1.358 . S
C233 H239 0.930 . S
C234 N232 1.400 . S
C234 C235 1.351 . S
C234 H251 0.930 . S
C235 N231 1.389 . S
C235 C234 1.351 . S
C235 H240 0.930 . S
O236 Cu230 1.974 . S
O236 C246 1.282 . S
C237 O238 1.261 . S
C237 O250 1.251 . S
O238 C237 1.261 . S
H239 C233 0.930 . S
H240 C235 0.930 . S
N241 Cu230 1.985 . S
N241 C243 1.335 . S
N241 C244 1.390 . S
N242 C243 1.345 . S
N242 C245 1.336 . S
C243 N241 1.335 . S
C243 N242 1.345 . S
C243 H248 0.930 . S
C244 N241 1.390 . S
C244 C245 1.346 . S
C244 H249 0.930 . S
C245 N242 1.336 . S
C245 C244 1.346 . S
C245 H252 0.929 . S
C246 O236 1.282 . S
C246 O247 1.216 . S
O247 C246 1.216 . S
H248 C243 0.930 . S
H249 C244 0.930 . S
O250 Cu230 1.959 . S
O250 C237 1.251 . S
H251 C234 0.930 . S
H252 C245 0.929 . S
Cu253 N254 1.999 . S
Cu253 O259 1.974 . S
Cu253 N264 1.985 . S
Cu253 O273 1.959 . S
N254 Cu253 1.999 . S
N254 C256 1.263 . S
N254 C258 1.389 . S
N255 C256 1.358 . S
N255 C257 1.400 . S
C256 N254 1.263 . S
C256 N255 1.358 . S
C256 H262 0.930 . S
C257 N255 1.400 . S
C257 C258 1.351 . S
C257 H274 0.930 . S
C258 N254 1.389 . S
C258 C257 1.351 . S
C258 H263 0.930 . S
O259 Cu253 1.974 . S
O259 C269 1.282 . S
C260 O261 1.261 . S
C260 O273 1.251 . S
O261 C260 1.261 . S
H262 C256 0.930 . S
H263 C258 0.930 . S
N264 Cu253 1.985 . S
N264 C266 1.335 . S
N264 C267 1.390 . S
N265 C266 1.345 . S
N265 C268 1.336 . S
C266 N264 1.335 . S
C266 N265 1.345 . S
C266 H271 0.930 . S
C267 N264 1.390 . S
C267 C268 1.346 . S
C267 H272 0.930 . S
C268 N265 1.336 . S
C268 C267 1.346 . S
C268 H275 0.929 . S
C269 O259 1.282 . S
C269 O270 1.216 . S
O270 C269 1.216 . S
H271 C266 0.930 . S
H272 C267 0.930 . S
O273 Cu253 1.959 . S
O273 C260 1.251 . S
H274 C257 0.930 . S
H275 C268 0.929 . S
Cu276 N277 1.999 . S
Cu276 O282 1.974 . S
Cu276 N287 1.985 . S
Cu276 O296 1.959 . S
N277 Cu276 1.999 . S
N277 C279 1.263 . S
N277 C281 1.389 . S
N278 C279 1.358 . S
N278 C280 1.400 . S
C279 N277 1.263 . S
C279 N278 1.358 . S
C279 H285 0.930 . S
C280 N278 1.400 . S
C280 C281 1.351 . S
C280 H297 0.930 . S
C281 N277 1.389 . S
C281 C280 1.351 . S
C281 H286 0.930 . S
O282 Cu276 1.974 . S
O282 C292 1.282 . S
C283 O284 1.261 . S
C283 O296 1.251 . S
O284 C283 1.261 . S
H285 C279 0.930 . S
H286 C281 0.930 . S
N287 Cu276 1.985 . S
N287 C289 1.335 . S
N287 C290 1.390 . S
N288 C289 1.345 . S
N288 C291 1.336 . S
C289 N287 1.335 . S
C289 N288 1.345 . S
C289 H294 0.930 . S
C290 N287 1.390 . S
C290 C291 1.346 . S
C290 H295 0.930 . S
C291 N288 1.336 . S
C291 C290 1.346 . S
C291 H298 0.929 . S
C292 O282 1.282 . S
C292 O293 1.216 . S
O293 C292 1.216 . S
H294 C289 0.930 . S
H295 C290 0.930 . S
O296 Cu276 1.959 . S
O296 C283 1.251 . S
H297 C280 0.930 . S
H298 C291 0.929 . S
Cu299 N300 1.999 . S
Cu299 O305 1.974 . S
Cu299 N310 1.985 . S
Cu299 O319 1.959 . S
N300 Cu299 1.999 . S
N300 C302 1.263 . S
N300 C304 1.389 . S
N301 C302 1.358 . S
N301 C303 1.400 . S
C302 N300 1.263 . S
C302 N301 1.358 . S
C302 H308 0.930 . S
C303 N301 1.400 . S
C303 C304 1.351 . S
C303 H320 0.930 . S
C304 N300 1.389 . S
C304 C303 1.351 . S
C304 H309 0.930 . S
O305 Cu299 1.974 . S
O305 C315 1.282 . S
C306 O307 1.261 . S
C306 O319 1.251 . S
O307 C306 1.261 . S
H308 C302 0.930 . S
H309 C304 0.930 . S
N310 Cu299 1.985 . S
N310 C312 1.335 . S
N310 C313 1.390 . S
N311 C312 1.345 . S
N311 C314 1.336 . S
C312 N310 1.335 . S
C312 N311 1.345 . S
C312 H317 0.930 . S
C313 N310 1.390 . S
C313 C314 1.346 . S
C313 H318 0.930 . S
C314 N311 1.336 . S
C314 C313 1.346 . S
C314 H321 0.929 . S
C315 O305 1.282 . S
C315 O316 1.216 . S
O316 C315 1.216 . S
H317 C312 0.930 . S
H318 C313 0.930 . S
O319 Cu299 1.959 . S
O319 C306 1.251 . S
H320 C303 0.930 . S
H321 C314 0.929 . S
Cu322 N323 1.999 . S
Cu322 O328 1.974 . S
Cu322 N333 1.985 . S
Cu322 O342 1.959 . S
N323 Cu322 1.999 . S
N323 C325 1.263 . S
N323 C327 1.389 . S
N324 C325 1.358 . S
N324 C326 1.400 . S
C325 N323 1.263 . S
C325 N324 1.358 . S
C325 H331 0.930 . S
C326 N324 1.400 . S
C326 C327 1.351 . S
C326 H343 0.930 . S
C327 N323 1.389 . S
C327 C326 1.351 . S
C327 H332 0.930 . S
O328 Cu322 1.974 . S
O328 C338 1.282 . S
C329 O330 1.261 . S
C329 O342 1.251 . S
O330 C329 1.261 . S
H331 C325 0.930 . S
H332 C327 0.930 . S
N333 Cu322 1.985 . S
N333 C335 1.335 . S
N333 C336 1.390 . S
N334 C335 1.345 . S
N334 C337 1.336 . S
C335 N333 1.335 . S
C335 N334 1.345 . S
C335 H340 0.930 . S
C336 N333 1.390 . S
C336 C337 1.346 . S
C336 H341 0.930 . S
C337 N334 1.336 . S
C337 C336 1.346 . S
C337 H344 0.929 . S
C338 O328 1.282 . S
C338 O339 1.216 . S
O339 C338 1.216 . S
H340 C335 0.930 . S
H341 C336 0.930 . S
O342 Cu322 1.959 . S
O342 C329 1.251 . S
H343 C326 0.930 . S
H344 C337 0.929 . S
Cu345 N346 1.999 . S
Cu345 O351 1.974 . S
Cu345 N356 1.985 . S
Cu345 O365 1.959 . S
N346 Cu345 1.999 . S
N346 C348 1.263 . S
N346 C350 1.389 . S
N347 C348 1.358 . S
N347 C349 1.400 . S
C348 N346 1.263 . S
C348 N347 1.358 . S
C348 H354 0.930 . S
C349 N347 1.400 . S
C349 C350 1.351 . S
C349 H366 0.930 . S
C350 N346 1.389 . S
C350 C349 1.351 . S
C350 H355 0.930 . S
O351 Cu345 1.974 . S
O351 C361 1.282 . S
C352 O353 1.261 . S
C352 O365 1.251 . S
O353 C352 1.261 . S
H354 C348 0.930 . S
H355 C350 0.930 . S
N356 Cu345 1.985 . S
N356 C358 1.335 . S
N356 C359 1.390 . S
N357 C358 1.345 . S
N357 C360 1.336 . S
C358 N356 1.335 . S
C358 N357 1.345 . S
C358 H363 0.930 . S
C359 N356 1.390 . S
C359 C360 1.346 . S
C359 H364 0.930 . S
C360 N357 1.336 . S
C360 C359 1.346 . S
C360 H367 0.929 . S
C361 O351 1.282 . S
C361 O362 1.216 . S
O362 C361 1.216 . S
H363 C358 0.930 . S
H364 C359 0.930 . S
O365 Cu345 1.959 . S
O365 C352 1.251 . S
H366 C349 0.930 . S
H367 C360 0.929 . S
H368 C380 0.930 . S
H369 C382 0.930 . S
H370 C383 0.930 . S
H371 C387 0.959 . S
H372 C387 0.959 . S
H373 C387 0.961 . S
H374 C388 0.960 . S
H375 C388 0.961 . S
H376 C388 0.959 . S
H377 C391 0.929 . S
H378 C392 0.931 . S
H379 C394 0.930 . S
C380 H368 0.930 . S
C380 C381 1.399 . S
C380 C385 1.399 . S
C381 C380 1.399 . S
C381 C382 1.376 . S
C382 H369 0.930 . S
C382 C381 1.376 . S
C382 C383 1.388 . S
C383 H370 0.930 . S
C383 C382 1.388 . S
C383 C384 1.390 . S
C384 C383 1.390 . S
C384 C385 1.394 . S
C384 C390 1.465 . S
C385 C380 1.399 . S
C385 C384 1.394 . S
C385 C386 1.516 . S
C386 C385 1.516 . S
C386 C387 1.502 . S
C386 C388 1.561 . S
C386 C389 1.526 . S
C387 H371 0.959 . S
C387 H372 0.959 . S
C387 H373 0.961 . S
C387 C386 1.502 . S
C388 H374 0.960 . S
C388 H375 0.961 . S
C388 H376 0.959 . S
C388 C386 1.561 . S
C389 C386 1.526 . S
C389 C390 1.396 . S
C389 C394 1.390 . S
C390 C384 1.465 . S
C390 C389 1.396 . S
C390 C391 1.399 . S
C391 H377 0.929 . S
C391 C390 1.399 . S
C391 C392 1.385 . S
C392 H378 0.931 . S
C392 C391 1.385 . S
C392 C393 1.389 . S
C393 C392 1.389 . S
C393 C394 1.387 . S
C394 H379 0.930 . S
C394 C389 1.390 . S
C394 C393 1.387 . S
H395 C407 0.930 . S
H396 C409 0.930 . S
H397 C410 0.930 . S
H398 C414 0.959 . S
H399 C414 0.959 . S
H400 C414 0.961 . S
H401 C415 0.960 . S
H402 C415 0.961 . S
H403 C415 0.959 . S
H404 C418 0.929 . S
H405 C419 0.931 . S
H406 C421 0.930 . S
C407 H395 0.930 . S
C407 C408 1.399 . S
C407 C412 1.399 . S
C408 C407 1.399 . S
C408 C409 1.376 . S
C409 H396 0.930 . S
C409 C408 1.376 . S
C409 C410 1.388 . S
C410 H397 0.930 . S
C410 C409 1.388 . S
C410 C411 1.390 . S
C411 C410 1.390 . S
C411 C412 1.394 . S
C411 C417 1.465 . S
C412 C407 1.399 . S
C412 C411 1.394 . S
C412 C413 1.516 . S
C413 C412 1.516 . S
C413 C414 1.502 . S
C413 C415 1.561 . S
C413 C416 1.526 . S
C414 H398 0.959 . S
C414 H399 0.959 . S
C414 H400 0.961 . S
C414 C413 1.502 . S
C415 H401 0.960 . S
C415 H402 0.961 . S
C415 H403 0.959 . S
C415 C413 1.561 . S
C416 C413 1.526 . S
C416 C417 1.396 . S
C416 C421 1.390 . S
C417 C411 1.465 . S
C417 C416 1.396 . S
C417 C418 1.399 . S
C418 H404 0.929 . S
C418 C417 1.399 . S
C418 C419 1.385 . S
C419 H405 0.931 . S
C419 C418 1.385 . S
C419 C420 1.389 . S
C420 C419 1.389 . S
C420 C421 1.387 . S
C421 H406 0.930 . S
C421 C416 1.390 . S
C421 C420 1.387 . S
H422 C434 0.930 . S
H423 C436 0.930 . S
H424 C437 0.930 . S
H425 C441 0.962 . S
H426 C441 0.979 . S
H427 C441 0.939 1_554 S
H428 C442 0.958 1_554 S
H429 C442 0.963 . S
H430 C442 0.959 . S
H431 C445 0.929 . S
H432 C446 0.931 . S
H433 C448 0.930 . S
C434 H422 0.930 . S
C434 C435 1.399 . S
C434 C439 1.399 . S
C435 C434 1.399 . S
C435 C436 1.376 . S
C436 H423 0.930 . S
C436 C435 1.376 . S
C436 C437 1.388 . S
C437 H424 0.930 . S
C437 C436 1.388 . S
C437 C438 1.390 . S
C438 C437 1.390 . S
C438 C439 1.394 . S
C438 C444 1.465 1_554 S
C439 C434 1.399 . S
C439 C438 1.394 . S
C439 C440 1.517 1_554 S
C440 C439 1.517 1_556 S
C440 C441 1.502 . S
C440 C442 1.561 . S
C440 C443 1.525 . S
C441 H425 0.962 . S
C441 H426 0.979 . S
C441 H427 0.939 1_556 S
C441 C440 1.502 . S
C442 H428 0.958 1_556 S
C442 H429 0.963 . S
C442 H430 0.959 . S
C442 C440 1.561 . S
C443 C440 1.525 . S
C443 C444 1.396 . S
C443 C448 1.390 . S
C444 C438 1.465 1_556 S
C444 C443 1.396 . S
C444 C445 1.399 . S
C445 H431 0.929 . S
C445 C444 1.399 . S
C445 C446 1.385 . S
C446 H432 0.931 . S
C446 C445 1.385 . S
C446 C447 1.389 . S
C447 C446 1.389 . S
C447 C448 1.387 . S
C448 H433 0.930 . S
C448 C443 1.390 . S
C448 C447 1.387 . S
H449 C461 0.930 . S
H450 C463 0.930 . S
H451 C464 0.930 . S
H452 C468 0.962 . S
H453 C468 0.979 . S
H454 C468 0.940 1_556 S
H455 C469 0.958 1_556 S
H456 C469 0.963 . S
H457 C469 0.959 . S
H458 C472 0.929 . S
H459 C473 0.931 . S
H460 C475 0.930 . S
C461 H449 0.930 . S
C461 C462 1.399 . S
C461 C466 1.399 . S
C462 C461 1.399 . S
C462 C463 1.376 . S
C463 H450 0.930 . S
C463 C462 1.376 . S
C463 C464 1.388 . S
C464 H451 0.930 . S
C464 C463 1.388 . S
C464 C465 1.390 . S
C465 C464 1.390 . S
C465 C466 1.394 . S
C465 C471 1.465 1_556 S
C466 C461 1.399 . S
C466 C465 1.394 . S
C466 C467 1.517 1_556 S
C467 C466 1.517 1_554 S
C467 C468 1.502 . S
C467 C469 1.561 . S
C467 C470 1.525 . S
C468 H452 0.962 . S
C468 H453 0.979 . S
C468 H454 0.940 1_554 S
C468 C467 1.502 . S
C469 H455 0.958 1_554 S
C469 H456 0.963 . S
C469 H457 0.959 . S
C469 C467 1.561 . S
C470 C467 1.525 . S
C470 C471 1.396 . S
C470 C475 1.390 . S
C471 C465 1.465 1_554 S
C471 C470 1.396 . S
C471 C472 1.399 . S
C472 H458 0.929 . S
C472 C471 1.399 . S
C472 C473 1.385 . S
C473 H459 0.931 . S
C473 C472 1.385 . S
C473 C474 1.389 . S
C474 C473 1.389 . S
C474 C475 1.387 . S
C475 H460 0.930 . S
C475 C470 1.390 . S
C475 C474 1.387 . S
H476 C488 0.930 . S
H477 C490 0.930 . S
H478 C491 0.930 . S
H479 C495 0.959 . S
H480 C495 0.959 . S
H481 C495 0.961 . S
H482 C496 0.960 . S
H483 C496 0.961 . S
H484 C496 0.959 . S
H485 C499 0.929 . S
H486 C500 0.931 . S
H487 C502 0.930 . S
C488 H476 0.930 . S
C488 C489 1.399 . S
C488 C493 1.399 . S
C489 C488 1.399 . S
C489 C490 1.376 . S
C490 H477 0.930 . S
C490 C489 1.376 . S
C490 C491 1.388 . S
C491 H478 0.930 . S
C491 C490 1.388 . S
C491 C492 1.390 . S
C492 C491 1.390 . S
C492 C493 1.394 . S
C492 C498 1.465 . S
C493 C488 1.399 . S
C493 C492 1.394 . S
C493 C494 1.516 . S
C494 C493 1.516 . S
C494 C495 1.502 . S
C494 C496 1.561 . S
C494 C497 1.526 . S
C495 H479 0.959 . S
C495 H480 0.959 . S
C495 H481 0.961 . S
C495 C494 1.502 . S
C496 H482 0.960 . S
C496 H483 0.961 . S
C496 H484 0.959 . S
C496 C494 1.561 . S
C497 C494 1.526 . S
C497 C498 1.396 . S
C497 C502 1.390 . S
C498 C492 1.465 . S
C498 C497 1.396 . S
C498 C499 1.399 . S
C499 H485 0.929 . S
C499 C498 1.399 . S
C499 C500 1.385 . S
C500 H486 0.931 . S
C500 C499 1.385 . S
C500 C501 1.389 . S
C501 C500 1.389 . S
C501 C502 1.387 . S
C502 H487 0.930 . S
C502 C497 1.390 . S
C502 C501 1.387 . S
H503 C515 0.930 . S
H504 C517 0.930 . S
H505 C518 0.930 . S
H506 C522 0.959 . S
H507 C522 0.959 . S
H508 C522 0.961 . S
H509 C523 0.960 . S
H510 C523 0.961 . S
H511 C523 0.959 . S
H512 C526 0.929 . S
H513 C527 0.931 . S
H514 C529 0.930 . S
C515 H503 0.930 . S
C515 C516 1.399 . S
C515 C520 1.399 . S
C516 C515 1.399 . S
C516 C517 1.376 . S
C517 H504 0.930 . S
C517 C516 1.376 . S
C517 C518 1.388 . S
C518 H505 0.930 . S
C518 C517 1.388 . S
C518 C519 1.390 . S
C519 C518 1.390 . S
C519 C520 1.394 . S
C519 C525 1.465 . S
C520 C515 1.399 . S
C520 C519 1.394 . S
C520 C521 1.516 . S
C521 C520 1.516 . S
C521 C522 1.502 . S
C521 C523 1.561 . S
C521 C524 1.526 . S
C522 H506 0.959 . S
C522 H507 0.959 . S
C522 H508 0.961 . S
C522 C521 1.502 . S
C523 H509 0.960 . S
C523 H510 0.961 . S
C523 H511 0.959 . S
C523 C521 1.561 . S
C524 C521 1.526 . S
C524 C525 1.396 . S
C524 C529 1.390 . S
C525 C519 1.465 . S
C525 C524 1.396 . S
C525 C526 1.399 . S
C526 H512 0.929 . S
C526 C525 1.399 . S
C526 C527 1.385 . S
C527 H513 0.931 . S
C527 C526 1.385 . S
C527 C528 1.389 . S
C528 C527 1.389 . S
C528 C529 1.387 . S
C529 H514 0.930 . S
C529 C524 1.390 . S
C529 C528 1.387 . S
H530 C542 0.930 . S
H531 C544 0.930 . S
H532 C545 0.930 . S
H533 C549 0.962 . S
H534 C549 0.979 . S
H535 C549 0.939 1_556 S
H536 C550 0.958 1_556 S
H537 C550 0.963 . S
H538 C550 0.959 . S
H539 C553 0.929 . S
H540 C554 0.931 . S
H541 C556 0.930 . S
C542 H530 0.930 . S
C542 C543 1.399 . S
C542 C547 1.399 . S
C543 C542 1.399 . S
C543 C544 1.376 . S
C544 H531 0.930 . S
C544 C543 1.376 . S
C544 C545 1.388 . S
C545 H532 0.930 . S
C545 C544 1.388 . S
C545 C546 1.390 . S
C546 C545 1.390 . S
C546 C547 1.394 . S
C546 C552 1.465 1_556 S
C547 C542 1.399 . S
C547 C546 1.394 . S
C547 C548 1.517 1_556 S
C548 C547 1.517 1_554 S
C548 C549 1.502 . S
C548 C550 1.561 . S
C548 C551 1.525 . S
C549 H533 0.962 . S
C549 H534 0.979 . S
C549 H535 0.939 1_554 S
C549 C548 1.502 . S
C550 H536 0.958 1_554 S
C550 H537 0.963 . S
C550 H538 0.959 . S
C550 C548 1.561 . S
C551 C548 1.525 . S
C551 C552 1.396 . S
C551 C556 1.390 . S
C552 C546 1.465 1_554 S
C552 C551 1.396 . S
C552 C553 1.399 . S
C553 H539 0.929 . S
C553 C552 1.399 . S
C553 C554 1.385 . S
C554 H540 0.931 . S
C554 C553 1.385 . S
C554 C555 1.389 . S
C555 C554 1.389 . S
C555 C556 1.387 . S
C556 H541 0.930 . S
C556 C551 1.390 . S
C556 C555 1.387 . S
H557 C569 0.930 . S
H558 C571 0.930 . S
H559 C572 0.930 . S
H560 C576 0.962 . S
H561 C576 0.979 . S
H562 C576 0.939 1_554 S
H563 C577 0.958 1_554 S
H564 C577 0.963 . S
H565 C577 0.959 . S
H566 C580 0.929 . S
H567 C581 0.931 . S
H568 C583 0.930 . S
C569 H557 0.930 . S
C569 C570 1.399 . S
C569 C574 1.399 . S
C570 C569 1.399 . S
C570 C571 1.376 . S
C571 H558 0.930 . S
C571 C570 1.376 . S
C571 C572 1.388 . S
C572 H559 0.930 . S
C572 C571 1.388 . S
C572 C573 1.390 . S
C573 C572 1.390 . S
C573 C574 1.394 . S
C573 C579 1.465 1_554 S
C574 C569 1.399 . S
C574 C573 1.394 . S
C574 C575 1.517 1_554 S
C575 C574 1.517 1_556 S
C575 C576 1.502 . S
C575 C577 1.561 . S
C575 C578 1.525 . S
C576 H560 0.962 . S
C576 H561 0.979 . S
C576 H562 0.939 1_556 S
C576 C575 1.502 . S
C577 H563 0.958 1_556 S
C577 H564 0.963 . S
C577 H565 0.959 . S
C577 C575 1.561 . S
C578 C575 1.525 . S
C578 C579 1.396 . S
C578 C583 1.390 . S
C579 C573 1.465 1_556 S
C579 C578 1.396 . S
C579 C580 1.399 . S
C580 H566 0.929 . S
C580 C579 1.399 . S
C580 C581 1.385 . S
C581 H567 0.931 . S
C581 C580 1.385 . S
C581 C582 1.389 . S
C582 C581 1.389 . S
C582 C583 1.387 . S
C583 H568 0.930 . S
C583 C578 1.390 . S
C583 C582 1.387 . S
H584 C596 0.930 . S
H585 C598 0.930 . S
H586 C599 0.930 . S
H587 C603 0.959 . S
H588 C603 0.959 . S
H589 C603 0.961 1_565 S
H590 C604 0.960 . S
H591 C604 0.961 . S
H592 C604 0.959 . S
H593 C607 0.929 . S
H594 C608 0.931 . S
H595 C610 0.930 . S
C596 H584 0.930 . S
C596 C597 1.399 . S
C596 C601 1.399 . S
C597 C596 1.399 . S
C597 C598 1.376 . S
C598 H585 0.930 . S
C598 C597 1.376 . S
C598 C599 1.388 . S
C599 H586 0.930 . S
C599 C598 1.388 . S
C599 C600 1.390 . S
C600 C599 1.390 . S
C600 C601 1.394 . S
C600 C606 1.465 1_565 S
C601 C596 1.399 . S
C601 C600 1.394 . S
C601 C602 1.516 . S
C602 C601 1.516 . S
C602 C603 1.502 1_565 S
C602 C604 1.561 . S
C602 C605 1.526 1_565 S
C603 H587 0.959 . S
C603 H588 0.959 . S
C603 H589 0.961 1_545 S
C603 C602 1.502 1_545 S
C604 H590 0.960 . S
C604 H591 0.961 . S
C604 H592 0.959 . S
C604 C602 1.561 . S
C605 C602 1.526 1_545 S
C605 C606 1.396 . S
C605 C610 1.390 . S
C606 C600 1.465 1_545 S
C606 C605 1.396 . S
C606 C607 1.399 . S
C607 H593 0.929 . S
C607 C606 1.399 . S
C607 C608 1.385 . S
C608 H594 0.931 . S
C608 C607 1.385 . S
C608 C609 1.389 . S
C609 C608 1.389 . S
C609 C610 1.387 . S
C610 H595 0.930 . S
C610 C605 1.390 . S
C610 C609 1.387 . S
H611 C623 0.930 . S
H612 C625 0.930 . S
H613 C626 0.930 . S
H614 C630 0.959 . S
H615 C630 0.959 . S
H616 C630 0.961 . S
H617 C631 0.961 . S
H618 C631 0.961 . S
H619 C631 0.959 1_565 S
H620 C634 0.929 . S
H621 C635 0.931 . S
H622 C637 0.930 . S
C623 H611 0.930 . S
C623 C624 1.399 . S
C623 C628 1.399 . S
C624 C623 1.399 . S
C624 C625 1.376 . S
C625 H612 0.930 . S
C625 C624 1.376 . S
C625 C626 1.388 . S
C626 H613 0.930 . S
C626 C625 1.388 . S
C626 C627 1.390 . S
C627 C626 1.390 . S
C627 C628 1.394 . S
C627 C633 1.465 . S
C628 C623 1.399 . S
C628 C627 1.394 . S
C628 C629 1.516 1_565 S
C629 C628 1.516 1_545 S
C629 C630 1.502 . S
C629 C631 1.561 . S
C629 C632 1.526 . S
C630 H614 0.959 . S
C630 H615 0.959 . S
C630 H616 0.961 . S
C630 C629 1.502 . S
C631 H617 0.961 . S
C631 H618 0.961 . S
C631 H619 0.959 1_545 S
C631 C629 1.561 . S
C632 C629 1.526 . S
C632 C633 1.396 1_545 S
C632 C637 1.390 . S
C633 C627 1.465 . S
C633 C632 1.396 1_565 S
C633 C634 1.399 . S
C634 H620 0.929 . S
C634 C633 1.399 . S
C634 C635 1.385 1_565 S
C635 H621 0.931 . S
C635 C634 1.385 1_545 S
C635 C636 1.389 . S
C636 C635 1.389 . S
C636 C637 1.387 . S
C637 H622 0.930 . S
C637 C632 1.390 . S
C637 C636 1.387 . S
H638 C650 0.930 . S
H639 C652 0.930 . S
H640 C653 0.930 1_545 S
H641 C657 0.959 . S
H642 C657 0.959 . S
H643 C657 0.961 . S
H644 C658 0.960 . S
H645 C658 0.961 . S
H646 C658 0.959 . S
H647 C661 0.929 . S
H648 C662 0.931 . S
H649 C664 0.930 . S
C650 H638 0.930 . S
C650 C651 1.399 . S
C650 C655 1.399 . S
C651 C650 1.399 . S
C651 C652 1.376 . S
C652 H639 0.930 . S
C652 C651 1.376 . S
C652 C653 1.388 . S
C653 H640 0.930 1_565 S
C653 C652 1.388 . S
C653 C654 1.389 1_565 S
C654 C653 1.389 1_545 S
C654 C655 1.389 1_545 S
C654 C660 1.470 . S
C655 C650 1.399 . S
C655 C654 1.389 1_565 S
C655 C656 1.516 . S
C656 C655 1.516 . S
C656 C657 1.502 . S
C656 C658 1.561 1_565 S
C656 C659 1.526 1_565 S
C657 H641 0.959 . S
C657 H642 0.959 . S
C657 H643 0.961 . S
C657 C656 1.502 . S
C658 H644 0.960 . S
C658 H645 0.961 . S
C658 H646 0.959 . S
C658 C656 1.561 1_545 S
C659 C656 1.526 1_545 S
C659 C660 1.396 . S
C659 C664 1.390 . S
C660 C654 1.470 . S
C660 C659 1.396 . S
C660 C661 1.399 . S
C661 H647 0.929 . S
C661 C660 1.399 . S
C661 C662 1.385 . S
C662 H648 0.931 . S
C662 C661 1.385 . S
C662 C663 1.389 . S
C663 C662 1.389 . S
C663 C664 1.387 . S
C664 H649 0.930 . S
C664 C659 1.390 . S
C664 C663 1.387 . S
H665 C677 0.930 . S
H666 C679 0.930 . S
H667 C680 0.930 . S
H668 C684 0.959 . S
H669 C684 0.959 . S
H670 C684 0.961 . S
H671 C685 0.960 . S
H672 C685 0.962 1_565 S
H673 C685 0.959 . S
H674 C688 0.942 . S
H675 C689 0.931 . S
H676 C691 0.930 . S
C677 H665 0.930 . S
C677 C678 1.399 . S
C677 C682 1.399 . S
C678 C677 1.399 . S
C678 C679 1.376 . S
C679 H666 0.930 . S
C679 C678 1.376 . S
C679 C680 1.388 . S
C680 H667 0.930 . S
C680 C679 1.388 . S
C680 C681 1.390 . S
C681 C680 1.390 . S
C681 C682 1.394 . S
C681 C687 1.465 . S
C682 C677 1.399 . S
C682 C681 1.394 . S
C682 C683 1.516 1_545 S
C683 C682 1.516 1_565 S
C683 C684 1.502 . S
C683 C685 1.561 1_565 S
C683 C686 1.526 . S
C684 H668 0.959 . S
C684 H669 0.959 . S
C684 H670 0.961 . S
C684 C683 1.502 . S
C685 H671 0.960 . S
C685 H672 0.962 1_545 S
C685 H673 0.959 . S
C685 C683 1.561 1_545 S
C686 C683 1.526 . S
C686 C687 1.396 1_565 S
C686 C691 1.390 . S
C687 C681 1.465 . S
C687 C686 1.396 1_545 S
C687 C688 1.399 . S
C688 H674 0.942 . S
C688 C687 1.399 . S
C688 C689 1.373 1_545 S
C689 H675 0.931 . S
C689 C688 1.373 1_565 S
C689 C690 1.389 . S
C690 C689 1.389 . S
C690 C691 1.387 . S
C691 H676 0.930 . S
C691 C686 1.390 . S
C691 C690 1.387 . S
H692 C704 0.930 . S
H693 C706 0.930 . S
H694 C707 0.930 . S
H695 C711 0.959 . S
H696 C711 0.959 1_455 S
H697 C711 0.961 . S
H698 C712 0.960 1_655 S
H699 C712 0.961 . S
H700 C712 0.959 . S
H701 C715 0.929 . S
H702 C716 0.931 . S
H703 C718 0.930 . S
C704 H692 0.930 . S
C704 C705 1.399 . S
C704 C709 1.399 . S
C705 C704 1.399 . S
C705 C706 1.376 . S
C706 H693 0.930 . S
C706 C705 1.376 . S
C706 C707 1.388 . S
C707 H694 0.930 . S
C707 C706 1.388 . S
C707 C708 1.390 . S
C708 C707 1.390 . S
C708 C709 1.394 . S
C708 C714 1.465 1_655 S
C709 C704 1.399 . S
C709 C708 1.394 . S
C709 C710 1.481 1_655 S
C710 C709 1.481 1_455 S
C710 C711 1.488 1_455 S
C710 C712 1.580 . S
C710 C713 1.561 . S
C711 H695 0.959 . S
C711 H696 0.959 1_655 S
C711 H697 0.961 . S
C711 C710 1.488 1_655 S
C712 H698 0.960 1_455 S
C712 H699 0.961 . S
C712 H700 0.959 . S
C712 C710 1.580 . S
C713 C710 1.561 . S
C713 C714 1.396 . S
C713 C718 1.390 . S
C714 C708 1.465 1_455 S
C714 C713 1.396 . S
C714 C715 1.399 . S
C715 H701 0.929 . S
C715 C714 1.399 . S
C715 C716 1.385 . S
C716 H702 0.931 . S
C716 C715 1.385 . S
C716 C717 1.389 . S
C717 C716 1.389 . S
C717 C718 1.387 . S
C718 H703 0.930 . S
C718 C713 1.390 . S
C718 C717 1.387 . S
H719 C731 0.930 . S
H720 C733 0.930 . S
H721 C734 0.930 . S
H722 C738 0.959 . S
H723 C738 0.959 . S
H724 C738 0.961 . S
H725 C739 0.960 . S
H726 C739 0.961 . S
H727 C739 0.959 . S
H728 C742 0.929 . S
H729 C743 0.931 . S
H730 C745 0.930 . S
C731 H719 0.930 . S
C731 C732 1.399 . S
C731 C736 1.399 . S
C732 C731 1.399 . S
C732 C733 1.376 . S
C733 H720 0.930 . S
C733 C732 1.376 . S
C733 C734 1.388 . S
C734 H721 0.930 . S
C734 C733 1.388 . S
C734 C735 1.390 . S
C735 C734 1.390 . S
C735 C736 1.394 . S
C735 C741 1.465 1_455 S
C736 C731 1.399 . S
C736 C735 1.394 . S
C736 C737 1.516 . S
C737 C736 1.516 . S
C737 C738 1.502 . S
C737 C739 1.561 . S
C737 C740 1.526 1_455 S
C738 H722 0.959 . S
C738 H723 0.959 . S
C738 H724 0.961 . S
C738 C737 1.502 . S
C739 H725 0.960 . S
C739 H726 0.961 . S
C739 H727 0.959 . S
C739 C737 1.561 . S
C740 C737 1.526 1_655 S
C740 C741 1.396 . S
C740 C745 1.390 . S
C741 C735 1.465 1_655 S
C741 C740 1.396 . S
C741 C742 1.399 . S
C742 H728 0.929 . S
C742 C741 1.399 . S
C742 C743 1.385 . S
C743 H729 0.931 . S
C743 C742 1.385 . S
C743 C744 1.389 . S
C744 C743 1.389 . S
C744 C745 1.387 . S
C745 H730 0.930 . S
C745 C740 1.390 . S
C745 C744 1.387 . S
H746 C758 0.930 . S
H747 C760 0.930 . S
H748 C761 0.930 . S
H749 C765 0.959 1_455 S
H750 C765 0.959 1_455 S
H751 C765 0.961 . S
H752 C766 0.960 . S
H753 C766 0.961 . S
H754 C766 0.959 . S
H755 C769 0.929 . S
H756 C770 0.931 . S
H757 C772 0.930 . S
C758 H746 0.930 . S
C758 C759 1.399 . S
C758 C763 1.399 . S
C759 C758 1.399 . S
C759 C760 1.376 . S
C760 H747 0.930 . S
C760 C759 1.376 . S
C760 C761 1.388 . S
C761 H748 0.930 . S
C761 C760 1.388 . S
C761 C762 1.390 . S
C762 C761 1.390 . S
C762 C763 1.394 . S
C762 C768 1.465 1_655 S
C763 C758 1.399 . S
C763 C762 1.394 . S
C763 C764 1.516 . S
C764 C763 1.516 . S
C764 C765 1.502 . S
C764 C766 1.561 . S
C764 C767 1.526 1_655 S
C765 H749 0.959 1_655 S
C765 H750 0.959 1_655 S
C765 H751 0.961 . S
C765 C764 1.502 . S
C766 H752 0.960 . S
C766 H753 0.961 . S
C766 H754 0.959 . S
C766 C764 1.561 . S
C767 C764 1.526 1_455 S
C767 C768 1.396 . S
C767 C772 1.390 . S
C768 C762 1.465 1_455 S
C768 C767 1.396 . S
C768 C769 1.399 . S
C769 H755 0.929 . S
C769 C768 1.399 . S
C769 C770 1.385 . S
C770 H756 0.931 . S
C770 C769 1.385 . S
C770 C771 1.389 . S
C771 C770 1.389 . S
C771 C772 1.387 . S
C772 H757 0.930 . S
C772 C767 1.390 . S
C772 C771 1.387 . S
H773 C785 0.930 . S
H774 C787 0.930 . S
H775 C788 0.930 . S
H776 C792 0.959 . S
H777 C792 0.959 . S
H778 C792 0.961 . S
H779 C793 0.960 . S
H780 C793 0.961 . S
H781 C793 0.959 . S
H782 C796 0.929 . S
H783 C797 0.931 . S
H784 C799 0.930 . S
C785 H773 0.930 . S
C785 C786 1.399 . S
C785 C790 1.399 . S
C786 C785 1.399 . S
C786 C787 1.376 . S
C787 H774 0.930 . S
C787 C786 1.376 . S
C787 C788 1.388 . S
C788 H775 0.930 . S
C788 C787 1.388 . S
C788 C789 1.390 . S
C789 C788 1.390 . S
C789 C790 1.394 . S
C789 C795 1.465 1_455 S
C790 C785 1.399 . S
C790 C789 1.394 . S
C790 C791 1.516 . S
C791 C790 1.516 . S
C791 C792 1.502 . S
C791 C793 1.561 . S
C791 C794 1.526 1_455 S
C792 H776 0.959 . S
C792 H777 0.959 . S
C792 H778 0.961 . S
C792 C791 1.502 . S
C793 H779 0.960 . S
C793 H780 0.961 . S
C793 H781 0.959 . S
C793 C791 1.561 . S
C794 C791 1.526 1_655 S
C794 C795 1.396 . S
C794 C799 1.390 . S
C795 C789 1.465 1_655 S
C795 C794 1.396 . S
C795 C796 1.399 . S
C796 H782 0.929 . S
C796 C795 1.399 . S
C796 C797 1.385 . S
C797 H783 0.931 . S
C797 C796 1.385 . S
C797 C798 1.389 . S
C798 C797 1.389 . S
C798 C799 1.387 . S
C799 H784 0.930 . S
C799 C794 1.390 . S
C799 C798 1.387 . S
H800 C812 0.930 . S
H801 C814 0.930 . S
H802 C815 0.930 . S
H803 C819 0.959 . S
H804 C819 0.959 . S
H805 C819 0.961 . S
H806 C820 0.960 . S
H807 C820 0.961 . S
H808 C820 0.959 . S
H809 C823 0.929 . S
H810 C824 0.931 . S
H811 C826 0.930 . S
C812 H800 0.930 . S
C812 C813 1.399 . S
C812 C817 1.399 . S
C813 C812 1.399 . S
C813 C814 1.376 . S
C814 H801 0.930 . S
C814 C813 1.376 . S
C814 C815 1.388 . S
C815 H802 0.930 . S
C815 C814 1.388 . S
C815 C816 1.390 . S
C816 C815 1.390 . S
C816 C817 1.394 . S
C816 C822 1.465 . S
C817 C812 1.399 . S
C817 C816 1.394 . S
C817 C818 1.516 . S
C818 C817 1.516 . S
C818 C819 1.502 . S
C818 C820 1.561 . S
C818 C821 1.526 . S
C819 H803 0.959 . S
C819 H804 0.959 . S
C819 H805 0.961 . S
C819 C818 1.502 . S
C820 H806 0.960 . S
C820 H807 0.961 . S
C820 H808 0.959 . S
C820 C818 1.561 . S
C821 C818 1.526 . S
C821 C822 1.396 . S
C821 C826 1.390 . S
C822 C816 1.465 . S
C822 C821 1.396 . S
C822 C823 1.399 . S
C823 H809 0.929 . S
C823 C822 1.399 . S
C823 C824 1.385 . S
C824 H810 0.931 . S
C824 C823 1.385 . S
C824 C825 1.389 . S
C825 C824 1.389 . S
C825 C826 1.387 . S
C826 H811 0.930 . S
C826 C821 1.390 . S
C826 C825 1.387 . S
H827 C839 0.930 . S
H828 C841 0.930 . S
H829 C842 0.930 . S
H830 C846 0.959 . S
H831 C846 0.959 . S
H832 C846 0.961 . S
H833 C847 0.960 . S
H834 C847 0.961 . S
H835 C847 0.959 . S
H836 C850 0.929 . S
H837 C851 0.931 . S
H838 C853 0.930 . S
C839 H827 0.930 . S
C839 C840 1.399 . S
C839 C844 1.399 . S
C840 C839 1.399 . S
C840 C841 1.376 . S
C841 H828 0.930 . S
C841 C840 1.376 . S
C841 C842 1.388 . S
C842 H829 0.930 . S
C842 C841 1.388 . S
C842 C843 1.390 . S
C843 C842 1.390 . S
C843 C844 1.394 . S
C843 C849 1.465 . S
C844 C839 1.399 . S
C844 C843 1.394 . S
C844 C845 1.516 . S
C845 C844 1.516 . S
C845 C846 1.502 . S
C845 C847 1.561 . S
C845 C848 1.526 . S
C846 H830 0.959 . S
C846 H831 0.959 . S
C846 H832 0.961 . S
C846 C845 1.502 . S
C847 H833 0.960 . S
C847 H834 0.961 . S
C847 H835 0.959 . S
C847 C845 1.561 . S
C848 C845 1.526 . S
C848 C849 1.396 . S
C848 C853 1.390 . S
C849 C843 1.465 . S
C849 C848 1.396 . S
C849 C850 1.399 . S
C850 H836 0.929 . S
C850 C849 1.399 . S
C850 C851 1.385 . S
C851 H837 0.931 . S
C851 C850 1.385 . S
C851 C852 1.389 . S
C852 C851 1.389 . S
C852 C853 1.387 . S
C853 H838 0.930 . S
C853 C848 1.390 . S
C853 C852 1.387 . S
H854 C866 0.930 . S
H855 C868 0.930 . S
H856 C869 0.930 . S
H857 C873 0.959 . S
H858 C873 0.959 . S
H859 C873 0.961 . S
H860 C874 0.960 . S
H861 C874 0.961 . S
H862 C874 0.959 . S
H863 C877 0.929 . S
H864 C878 0.931 . S
H865 C880 0.930 . S
C866 H854 0.930 . S
C866 C867 1.399 . S
C866 C871 1.399 . S
C867 C866 1.399 . S
C867 C868 1.376 . S
C868 H855 0.930 . S
C868 C867 1.376 . S
C868 C869 1.388 . S
C869 H856 0.930 . S
C869 C868 1.388 . S
C869 C870 1.390 . S
C870 C869 1.390 . S
C870 C871 1.394 . S
C870 C876 1.465 . S
C871 C866 1.399 . S
C871 C870 1.394 . S
C871 C872 1.516 . S
C872 C871 1.516 . S
C872 C873 1.502 . S
C872 C874 1.561 . S
C872 C875 1.526 . S
C873 H857 0.959 . S
C873 H858 0.959 . S
C873 H859 0.961 . S
C873 C872 1.502 . S
C874 H860 0.960 . S
C874 H861 0.961 . S
C874 H862 0.959 . S
C874 C872 1.561 . S
C875 C872 1.526 . S
C875 C876 1.396 . S
C875 C880 1.390 . S
C876 C870 1.465 . S
C876 C875 1.396 . S
C876 C877 1.399 . S
C877 H863 0.929 . S
C877 C876 1.399 . S
C877 C878 1.385 . S
C878 H864 0.931 . S
C878 C877 1.385 . S
C878 C879 1.389 . S
C879 C878 1.389 . S
C879 C880 1.387 . S
C880 H865 0.930 . S
C880 C875 1.390 . S
C880 C879 1.387 . S
H881 C893 0.930 . S
H882 C895 0.930 . S
H883 C896 0.930 . S
H884 C900 0.959 . S
H885 C900 0.959 . S
H886 C900 0.961 . S
H887 C901 0.960 . S
H888 C901 0.961 . S
H889 C901 0.959 . S
H890 C904 0.929 . S
H891 C905 0.931 . S
H892 C907 0.930 . S
C893 H881 0.930 . S
C893 C894 1.399 . S
C893 C898 1.399 . S
C894 C893 1.399 . S
C894 C895 1.376 . S
C895 H882 0.930 . S
C895 C894 1.376 . S
C895 C896 1.388 . S
C896 H883 0.930 . S
C896 C895 1.388 . S
C896 C897 1.390 . S
C897 C896 1.390 . S
C897 C898 1.394 . S
C897 C903 1.465 . S
C898 C893 1.399 . S
C898 C897 1.394 . S
C898 C899 1.516 . S
C899 C898 1.516 . S
C899 C900 1.502 . S
C899 C901 1.561 . S
C899 C902 1.526 . S
C900 H884 0.959 . S
C900 H885 0.959 . S
C900 H886 0.961 . S
C900 C899 1.502 . S
C901 H887 0.960 . S
C901 H888 0.961 . S
C901 H889 0.959 . S
C901 C899 1.561 . S
C902 C899 1.526 . S
C902 C903 1.396 . S
C902 C907 1.390 . S
C903 C897 1.465 . S
C903 C902 1.396 . S
C903 C904 1.399 . S
C904 H890 0.929 . S
C904 C903 1.399 . S
C904 C905 1.385 . S
C905 H891 0.931 . S
C905 C904 1.385 . S
C905 C906 1.389 . S
C906 C905 1.389 . S
C906 C907 1.387 . S
C907 H892 0.930 . S
C907 C902 1.390 . S
C907 C906 1.387 . S
H908 C920 0.930 . S
H909 C922 0.930 . S
H910 C923 0.930 . S
H911 C927 0.959 . S
H912 C927 0.959 . S
H913 C927 0.961 . S
H914 C928 0.960 . S
H915 C928 0.961 . S
H916 C928 0.959 . S
H917 C931 0.929 . S
H918 C932 0.931 . S
H919 C934 0.930 . S
C920 H908 0.930 . S
C920 C921 1.399 . S
C920 C925 1.399 . S
C921 C920 1.399 . S
C921 C922 1.376 . S
C922 H909 0.930 . S
C922 C921 1.376 . S
C922 C923 1.388 . S
C923 H910 0.930 . S
C923 C922 1.388 . S
C923 C924 1.390 . S
C924 C923 1.390 . S
C924 C925 1.394 . S
C924 C930 1.465 . S
C925 C920 1.399 . S
C925 C924 1.394 . S
C925 C926 1.516 . S
C926 C925 1.516 . S
C926 C927 1.502 . S
C926 C928 1.561 . S
C926 C929 1.526 . S
C927 H911 0.959 . S
C927 H912 0.959 . S
C927 H913 0.961 . S
C927 C926 1.502 . S
C928 H914 0.960 . S
C928 H915 0.961 . S
C928 H916 0.959 . S
C928 C926 1.561 . S
C929 C926 1.526 . S
C929 C930 1.396 . S
C929 C934 1.390 . S
C930 C924 1.465 . S
C930 C929 1.396 . S
C930 C931 1.399 . S
C931 H917 0.929 . S
C931 C930 1.399 . S
C931 C932 1.385 . S
C932 H918 0.931 . S
C932 C931 1.385 . S
C932 C933 1.389 . S
C933 C932 1.389 . S
C933 C934 1.387 . S
C934 H919 0.930 . S
C934 C929 1.390 . S
C934 C933 1.387 . S
H935 C947 0.930 . S
H936 C949 0.930 . S
H937 C950 0.930 . S
H938 C954 0.959 . S
H939 C954 0.959 . S
H940 C954 0.961 . S
H941 C955 0.960 . S
H942 C955 0.961 . S
H943 C955 0.959 . S
H944 C958 0.929 . S
H945 C959 0.931 . S
H946 C961 0.930 . S
C947 H935 0.930 . S
C947 C948 1.399 . S
C947 C952 1.399 . S
C948 C947 1.399 . S
C948 C949 1.376 . S
C949 H936 0.930 . S
C949 C948 1.376 . S
C949 C950 1.388 . S
C950 H937 0.930 . S
C950 C949 1.388 . S
C950 C951 1.390 . S
C951 C950 1.390 . S
C951 C952 1.394 . S
C951 C957 1.465 . S
C952 C947 1.399 . S
C952 C951 1.394 . S
C952 C953 1.516 . S
C953 C952 1.516 . S
C953 C954 1.502 . S
C953 C955 1.561 . S
C953 C956 1.526 . S
C954 H938 0.959 . S
C954 H939 0.959 . S
C954 H940 0.961 . S
C954 C953 1.502 . S
C955 H941 0.960 . S
C955 H942 0.961 . S
C955 H943 0.959 . S
C955 C953 1.561 . S
C956 C953 1.526 . S
C956 C957 1.396 . S
C956 C961 1.390 . S
C957 C951 1.465 . S
C957 C956 1.396 . S
C957 C958 1.399 . S
C958 H944 0.929 . S
C958 C957 1.399 . S
C958 C959 1.385 . S
C959 H945 0.931 . S
C959 C958 1.385 . S
C959 C960 1.389 . S
C960 C959 1.389 . S
C960 C961 1.387 . S
C961 H946 0.930 . S
C961 C956 1.390 . S
C961 C960 1.387 . S
H962 C974 0.930 . S
H963 C976 0.930 . S
H964 C977 0.930 . S
H965 C981 0.959 . S
H966 C981 0.959 . S
H967 C981 0.961 . S
H968 C982 0.960 . S
H969 C982 0.961 . S
H970 C982 0.959 . S
H971 C985 0.929 . S
H972 C986 0.931 . S
H973 C988 0.930 . S
C974 H962 0.930 . S
C974 C975 1.399 . S
C974 C979 1.399 . S
C975 C974 1.399 . S
C975 C976 1.376 . S
C976 H963 0.930 . S
C976 C975 1.376 . S
C976 C977 1.388 . S
C977 H964 0.930 . S
C977 C976 1.388 . S
C977 C978 1.390 . S
C978 C977 1.390 . S
C978 C979 1.394 . S
C978 C984 1.465 . S
C979 C974 1.399 . S
C979 C978 1.394 . S
C979 C980 1.516 . S
C980 C979 1.516 . S
C980 C981 1.502 . S
C980 C982 1.561 . S
C980 C983 1.526 . S
C981 H965 0.959 . S
C981 H966 0.959 . S
C981 H967 0.961 . S
C981 C980 1.502 . S
C982 H968 0.960 . S
C982 H969 0.961 . S
C982 H970 0.959 . S
C982 C980 1.561 . S
C983 C980 1.526 . S
C983 C984 1.396 . S
C983 C988 1.390 . S
C984 C978 1.465 . S
C984 C983 1.396 . S
C984 C985 1.399 . S
C985 H971 0.929 . S
C985 C984 1.399 . S
C985 C986 1.385 . S
C986 H972 0.931 . S
C986 C985 1.385 . S
C986 C987 1.389 . S
C987 C986 1.389 . S
C987 C988 1.387 . S
C988 H973 0.930 . S
C988 C983 1.390 . S
C988 C987 1.387 . S
H989 C1001 0.930 . S
H990 C1003 0.930 . S
H991 C1004 0.930 . S
H992 C1008 0.959 . S
H993 C1008 0.959 . S
H994 C1008 0.961 . S
H995 C1009 0.960 . S
H996 C1009 0.961 . S
H997 C1009 0.959 . S
H998 C1012 0.929 . S
H999 C1013 0.931 . S
H1000 C1015 0.930 . S
C1001 H989 0.930 . S
C1001 C1002 1.399 . S
C1001 C1006 1.399 . S
C1002 C1001 1.399 . S
C1002 C1003 1.376 . S
C1003 H990 0.930 . S
C1003 C1002 1.376 . S
C1003 C1004 1.388 . S
C1004 H991 0.930 . S
C1004 C1003 1.388 . S
C1004 C1005 1.390 . S
C1005 C1004 1.390 . S
C1005 C1006 1.394 . S
C1005 C1011 1.465 . S
C1006 C1001 1.399 . S
C1006 C1005 1.394 . S
C1006 C1007 1.516 . S
C1007 C1006 1.516 . S
C1007 C1008 1.502 . S
C1007 C1009 1.561 . S
C1007 C1010 1.526 . S
C1008 H992 0.959 . S
C1008 H993 0.959 . S
C1008 H994 0.961 . S
C1008 C1007 1.502 . S
C1009 H995 0.960 . S
C1009 H996 0.961 . S
C1009 H997 0.959 . S
C1009 C1007 1.561 . S
C1010 C1007 1.526 . S
C1010 C1011 1.396 . S
C1010 C1015 1.390 . S
C1011 C1005 1.465 . S
C1011 C1010 1.396 . S
C1011 C1012 1.399 . S
C1012 H998 0.929 . S
C1012 C1011 1.399 . S
C1012 C1013 1.385 . S
C1013 H999 0.931 . S
C1013 C1012 1.385 . S
C1013 C1014 1.389 . S
C1014 C1013 1.389 . S
C1014 C1015 1.387 . S
C1015 H1000 0.930 . S
C1015 C1010 1.390 . S
C1015 C1014 1.387 . S
H1016 C1028 0.930 . S
H1017 C1030 0.930 . S
H1018 C1031 0.930 1_565 S
H1019 C1035 0.959 . S
H1020 C1035 0.959 . S
H1021 C1035 0.961 . S
H1022 C1036 0.960 . S
H1023 C1036 0.961 . S
H1024 C1036 0.959 . S
H1025 C1039 0.929 . S
H1026 C1040 0.931 . S
H1027 C1042 0.930 . S
C1028 H1016 0.930 . S
C1028 C1029 1.399 . S
C1028 C1033 1.399 . S
C1029 C1028 1.399 . S
C1029 C1030 1.376 . S
C1030 H1017 0.930 . S
C1030 C1029 1.376 . S
C1030 C1031 1.388 . S
C1031 H1018 0.930 1_545 S
C1031 C1030 1.388 . S
C1031 C1032 1.390 . S
C1032 C1031 1.390 . S
C1032 C1033 1.394 . S
C1032 C1038 1.465 1_545 S
C1033 C1028 1.399 . S
C1033 C1032 1.394 . S
C1033 C1034 1.516 . S
C1034 C1033 1.516 . S
C1034 C1035 1.502 . S
C1034 C1036 1.561 . S
C1034 C1037 1.526 1_545 S
C1035 H1019 0.959 . S
C1035 H1020 0.959 . S
C1035 H1021 0.961 . S
C1035 C1034 1.502 . S
C1036 H1022 0.960 . S
C1036 H1023 0.961 . S
C1036 H1024 0.959 . S
C1036 C1034 1.561 . S
C1037 C1034 1.526 1_565 S
C1037 C1038 1.396 . S
C1037 C1042 1.390 . S
C1038 C1032 1.465 1_565 S
C1038 C1037 1.396 . S
C1038 C1039 1.399 . S
C1039 H1025 0.929 . S
C1039 C1038 1.399 . S
C1039 C1040 1.385 . S
C1040 H1026 0.931 . S
C1040 C1039 1.385 . S
C1040 C1041 1.389 . S
C1041 C1040 1.389 . S
C1041 C1042 1.387 . S
C1042 H1027 0.930 . S
C1042 C1037 1.390 . S
C1042 C1041 1.387 . S
H1043 C1055 0.930 . S
H1044 C1057 0.930 . S
H1045 C1058 0.930 . S
H1046 C1062 0.959 . S
H1047 C1062 0.959 . S
H1048 C1062 0.961 . S
H1049 C1063 0.960 . S
H1050 C1063 0.961 . S
H1051 C1063 0.959 . S
H1052 C1066 0.929 . S
H1053 C1067 0.931 . S
H1054 C1069 0.930 . S
C1055 H1043 0.930 . S
C1055 C1056 1.399 . S
C1055 C1060 1.399 . S
C1056 C1055 1.399 . S
C1056 C1057 1.376 . S
C1057 H1044 0.930 . S
C1057 C1056 1.376 . S
C1057 C1058 1.388 1_545 S
C1058 H1045 0.930 . S
C1058 C1057 1.388 1_565 S
C1058 C1059 1.386 1_565 S
C1059 C1058 1.386 1_545 S
C1059 C1060 1.418 . S
C1059 C1065 1.448 1_545 S
C1060 C1055 1.399 . S
C1060 C1059 1.418 . S
C1060 C1061 1.516 . S
C1061 C1060 1.516 . S
C1061 C1062 1.502 . S
C1061 C1063 1.561 . S
C1061 C1064 1.526 1_545 S
C1062 H1046 0.959 . S
C1062 H1047 0.959 . S
C1062 H1048 0.961 . S
C1062 C1061 1.502 . S
C1063 H1049 0.960 . S
C1063 H1050 0.961 . S
C1063 H1051 0.959 . S
C1063 C1061 1.561 . S
C1064 C1061 1.526 1_565 S
C1064 C1065 1.396 . S
C1064 C1069 1.390 . S
C1065 C1059 1.448 1_565 S
C1065 C1064 1.396 . S
C1065 C1066 1.399 . S
C1066 H1052 0.929 . S
C1066 C1065 1.399 . S
C1066 C1067 1.385 . S
C1067 H1053 0.931 . S
C1067 C1066 1.385 . S
C1067 C1068 1.389 . S
C1068 C1067 1.389 . S
C1068 C1069 1.387 . S
C1069 H1054 0.930 . S
C1069 C1064 1.390 . S
C1069 C1068 1.387 . S
H1070 C1082 0.930 . S
H1071 C1084 0.930 . S
H1072 C1085 0.930 1_565 S
H1073 C1089 0.959 1_565 S
H1074 C1089 0.959 . S
H1075 C1089 0.961 . S
H1076 C1090 0.960 . S
H1077 C1090 0.961 . S
H1078 C1090 0.959 . S
H1079 C1093 0.929 . S
H1080 C1094 0.931 . S
H1081 C1096 0.930 . S
C1082 H1070 0.930 . S
C1082 C1083 1.399 . S
C1082 C1087 1.399 . S
C1083 C1082 1.399 . S
C1083 C1084 1.376 . S
C1084 H1071 0.930 . S
C1084 C1083 1.376 . S
C1084 C1085 1.388 . S
C1085 H1072 0.930 1_545 S
C1085 C1084 1.388 . S
C1085 C1086 1.390 . S
C1086 C1085 1.390 . S
C1086 C1087 1.394 . S
C1086 C1092 1.465 1_545 S
C1087 C1082 1.399 . S
C1087 C1086 1.394 . S
C1087 C1088 1.516 . S
C1088 C1087 1.516 . S
C1088 C1089 1.502 . S
C1088 C1090 1.561 . S
C1088 C1091 1.526 1_545 S
C1089 H1073 0.959 1_545 S
C1089 H1074 0.959 . S
C1089 H1075 0.961 . S
C1089 C1088 1.502 . S
C1090 H1076 0.960 . S
C1090 H1077 0.961 . S
C1090 H1078 0.959 . S
C1090 C1088 1.561 . S
C1091 C1088 1.526 1_565 S
C1091 C1092 1.396 . S
C1091 C1096 1.390 . S
C1092 C1086 1.465 1_565 S
C1092 C1091 1.396 . S
C1092 C1093 1.399 . S
C1093 H1079 0.929 . S
C1093 C1092 1.399 . S
C1093 C1094 1.385 . S
C1094 H1080 0.931 . S
C1094 C1093 1.385 . S
C1094 C1095 1.389 . S
C1095 C1094 1.389 . S
C1095 C1096 1.387 . S
C1096 H1081 0.930 . S
C1096 C1091 1.390 . S
C1096 C1095 1.387 . S
H1097 C1109 0.930 . S
H1098 C1111 0.930 . S
H1099 C1112 0.930 . S
H1100 C1116 0.959 . S
H1101 C1116 0.959 . S
H1102 C1116 0.961 . S
H1103 C1117 0.960 . S
H1104 C1117 0.961 . S
H1105 C1117 0.959 . S
H1106 C1120 0.929 . S
H1107 C1121 0.931 . S
H1108 C1123 0.930 . S
C1109 H1097 0.930 . S
C1109 C1110 1.399 . S
C1109 C1114 1.399 . S
C1110 C1109 1.399 . S
C1110 C1111 1.376 . S
C1111 H1098 0.930 . S
C1111 C1110 1.376 . S
C1111 C1112 1.388 1_565 S
C1112 H1099 0.930 . S
C1112 C1111 1.388 1_545 S
C1112 C1113 1.390 . S
C1113 C1112 1.390 . S
C1113 C1114 1.394 1_545 S
C1113 C1119 1.465 . S
C1114 C1109 1.399 . S
C1114 C1113 1.394 1_565 S
C1114 C1115 1.516 . S
C1115 C1114 1.516 . S
C1115 C1116 1.502 . S
C1115 C1117 1.561 . S
C1115 C1118 1.526 1_565 S
C1116 H1100 0.959 . S
C1116 H1101 0.959 . S
C1116 H1102 0.961 . S
C1116 C1115 1.502 . S
C1117 H1103 0.960 . S
C1117 H1104 0.961 . S
C1117 H1105 0.959 . S
C1117 C1115 1.561 . S
C1118 C1115 1.526 1_545 S
C1118 C1119 1.396 . S
C1118 C1123 1.390 . S
C1119 C1113 1.465 . S
C1119 C1118 1.396 . S
C1119 C1120 1.399 . S
C1120 H1106 0.929 . S
C1120 C1119 1.399 . S
C1120 C1121 1.385 . S
C1121 H1107 0.931 . S
C1121 C1120 1.385 . S
C1121 C1122 1.389 . S
C1122 C1121 1.389 . S
C1122 C1123 1.387 . S
C1123 H1108 0.930 . S
C1123 C1118 1.390 . S
C1123 C1122 1.387 . S
H1124 C1136 0.930 . S
H1125 C1138 0.930 . S
H1126 C1139 0.930 . S
H1127 C1143 0.959 . S
H1128 C1143 0.959 . S
H1129 C1143 0.961 . S
H1130 C1144 0.960 . S
H1131 C1144 0.961 . S
H1132 C1144 0.959 . S
H1133 C1147 0.929 . S
H1134 C1148 0.931 . S
H1135 C1150 0.930 . S
C1136 H1124 0.930 . S
C1136 C1137 1.399 . S
C1136 C1141 1.399 . S
C1137 C1136 1.399 . S
C1137 C1138 1.376 . S
C1138 H1125 0.930 . S
C1138 C1137 1.376 . S
C1138 C1139 1.388 . S
C1139 H1126 0.930 . S
C1139 C1138 1.388 . S
C1139 C1140 1.390 . S
C1140 C1139 1.390 . S
C1140 C1141 1.394 . S
C1140 C1146 1.465 . S
C1141 C1136 1.399 . S
C1141 C1140 1.394 . S
C1141 C1142 1.516 . S
C1142 C1141 1.516 . S
C1142 C1143 1.502 . S
C1142 C1144 1.561 . S
C1142 C1145 1.526 . S
C1143 H1127 0.959 . S
C1143 H1128 0.959 . S
C1143 H1129 0.961 . S
C1143 C1142 1.502 . S
C1144 H1130 0.960 . S
C1144 H1131 0.961 . S
C1144 H1132 0.959 . S
C1144 C1142 1.561 . S
C1145 C1142 1.526 . S
C1145 C1146 1.396 . S
C1145 C1150 1.390 . S
C1146 C1140 1.465 . S
C1146 C1145 1.396 . S
C1146 C1147 1.399 . S
C1147 H1133 0.929 . S
C1147 C1146 1.399 . S
C1147 C1148 1.385 . S
C1148 H1134 0.931 . S
C1148 C1147 1.385 . S
C1148 C1149 1.389 . S
C1149 C1148 1.389 . S
C1149 C1150 1.387 . S
C1150 H1135 0.930 . S
C1150 C1145 1.390 . S
C1150 C1149 1.387 . S
H1151 C1163 0.930 . S
H1152 C1165 0.930 . S
H1153 C1166 0.930 . S
H1154 C1170 0.959 . S
H1155 C1170 0.959 . S
H1156 C1170 0.961 . S
H1157 C1171 0.960 . S
H1158 C1171 0.961 . S
H1159 C1171 0.959 . S
H1160 C1174 0.929 . S
H1161 C1175 0.931 . S
H1162 C1177 0.930 . S
C1163 H1151 0.930 . S
C1163 C1164 1.399 . S
C1163 C1168 1.399 . S
C1164 C1163 1.399 . S
C1164 C1165 1.376 . S
C1165 H1152 0.930 . S
C1165 C1164 1.376 . S
C1165 C1166 1.388 . S
C1166 H1153 0.930 . S
C1166 C1165 1.388 . S
C1166 C1167 1.390 . S
C1167 C1166 1.390 . S
C1167 C1168 1.394 . S
C1167 C1173 1.465 . S
C1168 C1163 1.399 . S
C1168 C1167 1.394 . S
C1168 C1169 1.516 . S
C1169 C1168 1.516 . S
C1169 C1170 1.502 . S
C1169 C1171 1.561 . S
C1169 C1172 1.526 . S
C1170 H1154 0.959 . S
C1170 H1155 0.959 . S
C1170 H1156 0.961 . S
C1170 C1169 1.502 . S
C1171 H1157 0.960 . S
C1171 H1158 0.961 . S
C1171 H1159 0.959 . S
C1171 C1169 1.561 . S
C1172 C1169 1.526 . S
C1172 C1173 1.396 . S
C1172 C1177 1.390 . S
C1173 C1167 1.465 . S
C1173 C1172 1.396 . S
C1173 C1174 1.399 . S
C1174 H1160 0.929 . S
C1174 C1173 1.399 . S
C1174 C1175 1.385 . S
C1175 H1161 0.931 . S
C1175 C1174 1.385 . S
C1175 C1176 1.389 . S
C1176 C1175 1.389 . S
C1176 C1177 1.387 . S
C1177 H1162 0.930 . S
C1177 C1172 1.390 . S
C1177 C1176 1.387 . S
H1178 C1190 0.930 . S
H1179 C1192 0.930 . S
H1180 C1193 0.930 . S
H1181 C1197 0.959 . S
H1182 C1197 0.959 . S
H1183 C1197 0.961 . S
H1184 C1198 0.960 . S
H1185 C1198 0.961 . S
H1186 C1198 0.959 . S
H1187 C1201 0.929 . S
H1188 C1202 0.931 . S
H1189 C1204 0.930 . S
C1190 H1178 0.930 . S
C1190 C1191 1.399 . S
C1190 C1195 1.399 . S
C1191 C1190 1.399 . S
C1191 C1192 1.376 . S
C1192 H1179 0.930 . S
C1192 C1191 1.376 . S
C1192 C1193 1.388 . S
C1193 H1180 0.930 . S
C1193 C1192 1.388 . S
C1193 C1194 1.390 . S
C1194 C1193 1.390 . S
C1194 C1195 1.394 . S
C1194 C1200 1.465 . S
C1195 C1190 1.399 . S
C1195 C1194 1.394 . S
C1195 C1196 1.516 . S
C1196 C1195 1.516 . S
C1196 C1197 1.502 . S
C1196 C1198 1.561 . S
C1196 C1199 1.526 . S
C1197 H1181 0.959 . S
C1197 H1182 0.959 . S
C1197 H1183 0.961 . S
C1197 C1196 1.502 . S
C1198 H1184 0.960 . S
C1198 H1185 0.961 . S
C1198 H1186 0.959 . S
C1198 C1196 1.561 . S
C1199 C1196 1.526 . S
C1199 C1200 1.396 . S
C1199 C1204 1.390 . S
C1200 C1194 1.465 . S
C1200 C1199 1.396 . S
C1200 C1201 1.399 . S
C1201 H1187 0.929 . S
C1201 C1200 1.399 . S
C1201 C1202 1.385 . S
C1202 H1188 0.931 . S
C1202 C1201 1.385 . S
C1202 C1203 1.389 . S
C1203 C1202 1.389 . S
C1203 C1204 1.387 . S
C1204 H1189 0.930 . S
C1204 C1199 1.390 . S
C1204 C1203 1.387 . S
H1205 C1217 0.930 . S
H1206 C1219 0.930 . S
H1207 C1220 0.930 . S
H1208 C1224 0.959 . S
H1209 C1224 0.959 . S
H1210 C1224 0.961 . S
H1211 C1225 0.960 . S
H1212 C1225 0.961 . S
H1213 C1225 0.959 . S
H1214 C1228 0.929 . S
H1215 C1229 0.931 . S
H1216 C1231 0.930 . S
C1217 H1205 0.930 . S
C1217 C1218 1.399 . S
C1217 C1222 1.399 . S
C1218 C1217 1.399 . S
C1218 C1219 1.376 . S
C1219 H1206 0.930 . S
C1219 C1218 1.376 . S
C1219 C1220 1.388 . S
C1220 H1207 0.930 . S
C1220 C1219 1.388 . S
C1220 C1221 1.390 . S
C1221 C1220 1.390 . S
C1221 C1222 1.394 . S
C1221 C1227 1.465 . S
C1222 C1217 1.399 . S
C1222 C1221 1.394 . S
C1222 C1223 1.516 . S
C1223 C1222 1.516 . S
C1223 C1224 1.502 . S
C1223 C1225 1.561 . S
C1223 C1226 1.526 . S
C1224 H1208 0.959 . S
C1224 H1209 0.959 . S
C1224 H1210 0.961 . S
C1224 C1223 1.502 . S
C1225 H1211 0.960 . S
C1225 H1212 0.961 . S
C1225 H1213 0.959 . S
C1225 C1223 1.561 . S
C1226 C1223 1.526 . S
C1226 C1227 1.396 . S
C1226 C1231 1.390 . S
C1227 C1221 1.465 . S
C1227 C1226 1.396 . S
C1227 C1228 1.399 . S
C1228 H1214 0.929 . S
C1228 C1227 1.399 . S
C1228 C1229 1.385 . S
C1229 H1215 0.931 . S
C1229 C1228 1.385 . S
C1229 C1230 1.389 . S
C1230 C1229 1.389 . S
C1230 C1231 1.387 . S
C1231 H1216 0.930 . S
C1231 C1226 1.390 . S
C1231 C1230 1.387 . S
C381 C7 1.659 . S
C393 C122 1.653 . S
C408 C99 1.682 . S
C420 C30 1.683 . S
C435 C53 1.640 . S
C447 C168 1.643 . S
C462 C145 1.681 . S
C474 C76 1.683 . S
C489 C306 1.642 . S
C501 C191 1.641 . S
C516 C283 1.681 . S
C528 C214 1.683 . S
C543 C352 1.681 . S
C555 C237 1.677 . S
C570 C260 1.666 . S
C582 C329 1.673 . S
C597 N25 1.422 . S
C609 N2 1.424 . S
C624 N48 1.409 . S
C636 N71 1.458 . S
C651 N94 1.457 . S
C663 N117 1.416 . S
C678 N140 1.439 . S
C690 N163 1.484 . S
C705 N186 1.414 . S
C717 N209 1.434 . S
C732 N255 1.416 . S
C744 N232 1.476 . S
C759 N301 1.425 . S
C771 N278 1.443 . S
C786 N324 1.412 . S
C798 N347 1.485 . S
C813 N219 1.440 . S
C825 N12 1.472 . S
C840 N35 1.456 . S
C852 N196 1.432 . S
C867 N265 1.474 . S
C879 N58 1.494 . S
C894 N81 1.452 . S
C906 N242 1.430 . S
C921 N104 1.429 . S
C933 N311 1.435 . S
C948 N288 1.429 . S
C960 N127 1.435 . S
C975 N150 1.491 . S
C987 N357 1.482 . S
C1002 N334 1.493 . S
C1014 N173 1.485 . S
C1029 C16 1.644 . S
C1041 C62 1.665 . S
C1056 C85 1.638 . S
C1068 C39 1.667 . S
C1083 C154 1.618 . S
C1095 C108 1.635 . S
C1110 C177 1.608 . S
C1122 C131 1.651 . S
C1137 C246 1.619 . S
C1149 C200 1.617 . S
C1164 C223 1.607 . S
C1176 C269 1.651 . S
C1191 C338 1.662 . S
C1203 C292 1.632 . S
C1218 C315 1.667 . S
C1230 C361 1.622 . S
