# Generated by pormake.
# Topology wkd, (5)-cn, num edge types: 1
# Building blocks:
#     Node 0, Type 0, BuildingBlock: BEQFEK_clean_sbu_0, # of connection points: 5
#     Node 1, Type 0, BuildingBlock: BEQFEK_clean_sbu_0, # of connection points: 5
#     Node 2, Type 0, BuildingBlock: BEQFEK_clean_sbu_0, # of connection points: 5
#     Node 3, Type 0, BuildingBlock: BEQFEK_clean_sbu_0, # of connection points: 5
#     Node 4, Type 0, BuildingBlock: BEQFEK_clean_sbu_0, # of connection points: 5
#     Node 5, Type 0, BuildingBlock: BEQFEK_clean_sbu_0, # of connection points: 5
#     Node 6, Type 0, BuildingBlock: BEQFEK_clean_sbu_0, # of connection points: 5
#     Node 7, Type 0, BuildingBlock: BEQFEK_clean_sbu_0, # of connection points: 5
#     Node 8, Type 0, BuildingBlock: BEQFEK_clean_sbu_0, # of connection points: 5
#     Node 9, Type 0, BuildingBlock: BEQFEK_clean_sbu_0, # of connection points: 5
#     Node 10, Type 0, BuildingBlock: BEQFEK_clean_sbu_0, # of connection points: 5
#     Node 11, Type 0, BuildingBlock: BEQFEK_clean_sbu_0, # of connection points: 5
#     Edge 12, Type (0, 0), BuildingBlock: MIFKUJ_clean_linker_0, # of connection points: 2
#     Edge 13, Type (0, 0), BuildingBlock: MIFKUJ_clean_linker_0, # of connection points: 2
#     Edge 14, Type (0, 0), BuildingBlock: MIFKUJ_clean_linker_0, # of connection points: 2
#     Edge 15, Type (0, 0), BuildingBlock: MIFKUJ_clean_linker_0, # of connection points: 2
#     Edge 16, Type (0, 0), BuildingBlock: MIFKUJ_clean_linker_0, # of connection points: 2
#     Edge 17, Type (0, 0), BuildingBlock: MIFKUJ_clean_linker_0, # of connection points: 2
#     Edge 18, Type (0, 0), BuildingBlock: MIFKUJ_clean_linker_0, # of connection points: 2
#     Edge 19, Type (0, 0), BuildingBlock: MIFKUJ_clean_linker_0, # of connection points: 2
#     Edge 20, Type (0, 0), BuildingBlock: MIFKUJ_clean_linker_0, # of connection points: 2
#     Edge 21, Type (0, 0), BuildingBlock: MIFKUJ_clean_linker_0, # of connection points: 2
#     Edge 22, Type (0, 0), BuildingBlock: MIFKUJ_clean_linker_0, # of connection points: 2
#     Edge 23, Type (0, 0), BuildingBlock: MIFKUJ_clean_linker_0, # of connection points: 2
#     Edge 24, Type (0, 0), BuildingBlock: MIFKUJ_clean_linker_0, # of connection points: 2
#     Edge 25, Type (0, 0), BuildingBlock: MIFKUJ_clean_linker_0, # of connection points: 2
#     Edge 26, Type (0, 0), BuildingBlock: MIFKUJ_clean_linker_0, # of connection points: 2
#     Edge 27, Type (0, 0), BuildingBlock: MIFKUJ_clean_linker_0, # of connection points: 2
#     Edge 28, Type (0, 0), BuildingBlock: MIFKUJ_clean_linker_0, # of connection points: 2
#     Edge 29, Type (0, 0), BuildingBlock: MIFKUJ_clean_linker_0, # of connection points: 2
#     Edge 30, Type (0, 0), BuildingBlock: MIFKUJ_clean_linker_0, # of connection points: 2
#     Edge 31, Type (0, 0), BuildingBlock: MIFKUJ_clean_linker_0, # of connection points: 2
#     Edge 32, Type (0, 0), BuildingBlock: MIFKUJ_clean_linker_0, # of connection points: 2
#     Edge 33, Type (0, 0), BuildingBlock: MIFKUJ_clean_linker_0, # of connection points: 2
#     Edge 34, Type (0, 0), BuildingBlock: MIFKUJ_clean_linker_0, # of connection points: 2
#     Edge 35, Type (0, 0), BuildingBlock: MIFKUJ_clean_linker_0, # of connection points: 2
#     Edge 36, Type (0, 0), BuildingBlock: MIFKUJ_clean_linker_0, # of connection points: 2
#     Edge 37, Type (0, 0), BuildingBlock: MIFKUJ_clean_linker_0, # of connection points: 2
#     Edge 38, Type (0, 0), BuildingBlock: MIFKUJ_clean_linker_0, # of connection points: 2
#     Edge 39, Type (0, 0), BuildingBlock: MIFKUJ_clean_linker_0, # of connection points: 2
#     Edge 40, Type (0, 0), BuildingBlock: MIFKUJ_clean_linker_0, # of connection points: 2
#     Edge 41, Type (0, 0), BuildingBlock: MIFKUJ_clean_linker_0, # of connection points: 2
# Relax obj value: 0.038
# Max RMSD: 0.098
# Mean RMSD: 0.098
data_MOF--net-wkd--node1-BEQFEK_clean_sbu_0--edge1-MIFKUJ_clean_linker_0
_symmetry_space_group_name_H-M    P1
_symmetry_Int_Tables_number       1
_symmetry_cell_setting            triclinic
loop_
_symmetry_equiv_pos_as_xyz
'x, y, z'
_cell_length_a     30.178714
_cell_length_b     30.167374
_cell_length_c     172.5047
_cell_angle_alpha  90.020997
_cell_angle_beta   89.987833
_cell_angle_gamma 120.00604
loop_
_atom_site_label
_atom_site_type_symbol
_atom_site_fract_x
_atom_site_fract_y
_atom_site_fract_z
_atom_type_partial_charge
Co0 Co 0.98663 0.32661 0.03548 0.0
Co1 Co 0.03703 0.27732 0.04561 0.0
C2 C 0.95392 0.21579 0.03401 0.0
O3 O 0.95094 0.25485 0.03203 0.0
O4 O 0.98472 0.21853 0.0393 0.0
C5 C 0.96227 0.37119 0.02311 0.0
O6 O 0.99098 0.35668 0.01941 0.0
C7 C 0.04074 0.21151 0.05791 0.0
C8 C 0.12394 0.24737 0.05993 0.0
C9 C 0.07702 0.20793 0.06244 0.0
N10 N 0.06528 0.25115 0.05301 0.0
N11 N 0.115 0.27216 0.05421 0.0
C12 C 0.98373 0.18068 0.05856 0.0
H13 H 0.96605 0.20228 0.05614 0.0
H14 H 0.97201 0.17053 0.0647 0.0
H15 H 0.96967 0.14482 0.05518 0.0
C16 C 0.96887 0.35713 0.05095 0.0
N17 N 0.98518 0.3319 0.0464 0.0
N18 N 0.00861 0.31379 0.05068 0.0
C19 C 0.00942 0.32847 0.0581 0.0
C20 C 0.98392 0.35623 0.05855 0.0
C21 C 0.93914 0.38117 0.04801 0.0
H22 H 0.91126 0.35611 0.04357 0.0
H23 H 0.91824 0.38763 0.05276 0.0
H24 H 0.96581 0.41833 0.04523 0.0
O25 O 0.05814 0.36002 0.03172 0.0
O26 O 0.09397 0.32452 0.03869 0.0
H27 H 0.04934 0.35009 0.06912 0.0
H28 H 0.01677 0.28261 0.06689 0.0
C29 C 0.03956 0.32161 0.06441 0.0
H30 H 0.07557 0.3259 0.06203 0.0
H31 H 0.14283 0.30399 0.0512 0.0
O32 O 0.95419 0.36182 0.03031 0.0
C33 C 0.09663 0.35532 0.03342 0.0
Co34 Co 0.65611 0.00265 0.20208 0.0
Co35 Co 0.75326 0.04543 0.21275 0.0
C36 C 0.73419 0.96822 0.20051 0.0
O37 O 0.69239 0.96618 0.1986 0.0
O38 O 0.76202 0.99735 0.20596 0.0
C39 C 0.55806 0.92489 0.19622 0.0
O40 O 0.56807 0.89303 0.19997 0.0
C41 C 0.83038 0.05102 0.22391 0.0
C42 C 0.84882 0.12185 0.23027 0.0
C43 C 0.85871 0.08176 0.23006 0.0
N44 N 0.80457 0.07192 0.22065 0.0
N45 N 0.81651 0.11469 0.2244 0.0
C46 C 0.82374 1.00017 0.22164 0.0
H47 H 0.78306 0.97329 0.22019 0.0
H48 H 0.83627 0.98379 0.22634 0.0
H49 H 0.84695 0.00508 0.21639 0.0
C50 C 0.60505 0.98497 0.21746 0.0
N51 N 0.64656 0.99871 0.21298 0.0
N52 N 0.68692 0.0135 0.21744 0.0
C53 C 0.67192 0.00761 0.22492 0.0
C54 C 0.61965 0.99005 0.22521 0.0
C55 C 0.55384 0.97284 0.21437 0.0
H56 H 0.55852 0.9947 0.20897 0.0
H57 H 0.53126 0.93137 0.21302 0.0
H58 H 0.53236 0.98224 0.21866 0.0
O59 O 0.6959 0.07481 0.19886 0.0
O60 O 0.7647 0.10541 0.20637 0.0
H61 H 0.72891 0.05828 0.23292 0.0
H62 H 0.68457 0.99641 0.23693 0.0
C63 C 0.70657 0.01668 0.23168 0.0
H64 H 0.73336 0.00279 0.23029 0.0
H65 H 0.80094 0.13794 0.22315 0.0
O66 O 0.58997 0.9726 0.19648 0.0
C67 C 0.7389 0.11159 0.20106 0.0
Co68 Co 0.64817 0.6676 0.36793 0.0
Co69 Co 0.70575 0.76119 0.37925 0.0
C70 C 0.76168 0.74286 0.36661 0.0
O71 O 0.72048 0.70359 0.36438 0.0
O72 O 0.76253 0.76899 0.37248 0.0
C73 C 0.62503 0.56974 0.36176 0.0
O74 O 0.66431 0.57676 0.36597 0.0
C75 C 0.77818 0.83534 0.39072 0.0
C76 C 0.72716 0.85568 0.39706 0.0
C77 C 0.77668 0.86421 0.39688 0.0
N78 N 0.73146 0.81064 0.38744 0.0
N79 N 0.70142 0.82355 0.3912 0.0
C80 C 0.82164 0.82765 0.3884 0.0
H81 H 0.80684 0.78755 0.38649 0.0
H82 H 0.84896 0.83666 0.39326 0.0
H83 H 0.84219 0.85327 0.38346 0.0
C84 C 0.61188 0.61298 0.38305 0.0
N85 N 0.64195 0.6551 0.3788 0.0
N86 N 0.66859 0.69389 0.3835 0.0
C87 C 0.65776 0.67721 0.39088 0.0
C88 C 0.62088 0.62557 0.39087 0.0
C89 C 0.57107 0.56353 0.37968 0.0
H90 H 0.55579 0.57072 0.37428 0.0
H91 H 0.58778 0.53904 0.37828 0.0
H92 H 0.53919 0.54269 0.38384 0.0
O93 O 0.61839 0.71011 0.36512 0.0
O94 O 0.65879 0.77651 0.37307 0.0
H95 H 0.66507 0.73324 0.39916 0.0
H96 H 0.67926 0.68609 0.40299 0.0
C97 C 0.68306 0.70982 0.39784 0.0
H98 H 0.72426 0.7357 0.39666 0.0
H99 H 0.66286 0.80926 0.3899 0.0
O100 O 0.61131 0.60327 0.36189 0.0
C101 C 0.62658 0.75316 0.36766 0.0
Co102 Co 0.98563 0.66341 0.53498 0.0
Co103 Co 0.93308 0.71181 0.54488 0.0
C104 C 0.01606 0.77337 0.53322 0.0
O105 O 0.02287 0.73604 0.53157 0.0
O106 O 0.9826 0.76877 0.53816 0.0
C107 C 0.06401 0.64406 0.52878 0.0
O108 O 0.09677 0.68956 0.53152 0.0
C109 C 0.93099 0.78149 0.5566 0.0
C110 C 0.8489 0.7431 0.5596 0.0
C111 C 0.896 0.78511 0.56144 0.0
N112 N 0.90559 0.73928 0.55219 0.0
N113 N 0.85649 0.71686 0.55395 0.0
C114 C 0.98804 0.81428 0.55658 0.0
H115 H 0.00585 0.79335 0.55395 0.0
H116 H 0.00264 0.82619 0.56257 0.0
H117 H 0.99907 0.84907 0.55306 0.0
C118 C 1.00006 0.63137 0.55063 0.0
N119 N 0.98566 0.65765 0.54594 0.0
N120 N 0.96329 0.6775 0.5501 0.0
C121 C 0.96245 0.66407 0.55759 0.0
C122 C 0.98583 0.63454 0.55817 0.0
C123 C 0.02195 0.59943 0.5478 0.0
H124 H 0.99865 0.57516 0.5429 0.0
H125 H 0.06135 0.625 0.54564 0.0
H126 H 0.02312 0.57459 0.55244 0.0
O127 O 0.91409 0.63005 0.53114 0.0
O128 O 0.87585 0.66251 0.53825 0.0
H129 H 0.89803 0.66528 0.56256 0.0
H130 H 0.94008 0.66116 0.56965 0.0
C131 C 0.93845 0.67809 0.56403 0.0
H132 H 0.95912 0.7202 0.56471 0.0
H133 H 0.82829 0.68294 0.55142 0.0
O134 O 0.0164 0.62637 0.52982 0.0
C135 C 0.87447 0.63263 0.53292 0.0
Co136 Co 0.31662 0.99127 0.70165 0.0
Co137 Co 0.21801 0.95036 0.71204 0.0
C138 C 0.24155 0.02978 0.70005 0.0
O139 O 0.28146 0.02837 0.69806 0.0
O140 O 0.21332 0.00257 0.70562 0.0
C141 C 0.39134 0.0422 0.68981 0.0
O142 O 0.35298 0.04312 0.68637 0.0
C143 C 0.14446 0.94715 0.72372 0.0
C144 C 0.10684 0.86604 0.7273 0.0
C145 C 0.10769 0.91167 0.72877 0.0
N146 N 0.16426 0.92334 0.71957 0.0
N147 N 0.14121 0.8748 0.7217 0.0
C148 C 0.16403 0.00348 0.72327 0.0
H149 H 0.20274 0.02348 0.72062 0.0
H150 H 0.16549 0.01943 0.72912 0.0
H151 H 0.13798 0.01033 0.71957 0.0
C152 C 0.36484 0.0049 0.71707 0.0
N153 N 0.32396 0.99344 0.71257 0.0
N154 N 0.28319 0.97766 0.71698 0.0
C155 C 0.29713 0.97958 0.72446 0.0
C156 C 0.34932 0.99656 0.72478 0.0
C157 C 0.41612 0.01781 0.7139 0.0
H158 H 0.41109 0.99253 0.7089 0.0
H159 H 0.43591 0.05791 0.71178 0.0
H160 H 0.44029 0.01339 0.71832 0.0
O161 O 0.27651 0.91971 0.69824 0.0
O162 O 0.20561 0.89139 0.70522 0.0
H163 H 0.234 0.92404 0.73115 0.0
H164 H 0.28164 0.9772 0.73679 0.0
C165 C 0.26115 0.96588 0.73117 0.0
H166 H 0.23898 0.98582 0.73058 0.0
H167 H 0.14967 0.84783 0.71941 0.0
O168 O 0.38458 0.02204 0.69649 0.0
C169 C 0.23196 0.88422 0.70011 0.0
Co170 Co 0.31439 0.3279 0.86875 0.0
Co171 Co 0.26817 0.22808 0.87887 0.0
C172 C 0.20469 0.24809 0.86736 0.0
O173 O 0.24145 0.29233 0.86563 0.0
O174 O 0.2103 0.21956 0.87224 0.0
C175 C 0.34715 0.40025 0.8565 0.0
O176 O 0.3207 0.35847 0.85237 0.0
C177 C 0.20033 0.15955 0.89097 0.0
C178 C 0.23606 0.11308 0.89378 0.0
C179 C 0.19587 0.12067 0.89583 0.0
N180 N 0.24113 0.17404 0.88634 0.0
N181 N 0.26206 0.14581 0.888 0.0
C182 C 0.16949 0.18591 0.89111 0.0
H183 H 0.19144 0.22455 0.88847 0.0
H184 H 0.15858 0.18917 0.89714 0.0
H185 H 0.1341 0.16327 0.88766 0.0
C186 C 0.34796 0.37594 0.88418 0.0
N187 N 0.32153 0.33449 0.87964 0.0
N188 N 0.30216 0.29295 0.88396 0.0
C189 C 0.31585 0.30684 0.8914 0.0
C190 C 0.34506 0.35984 0.89178 0.0
C191 C 0.3768 0.42968 0.88121 0.0
H192 H 0.40888 0.43417 0.87751 0.0
H193 H 0.35113 0.43734 0.87755 0.0
H194 H 0.39211 0.45792 0.88601 0.0
O195 O 0.34726 0.28957 0.86472 0.0
O196 O 0.31754 0.22044 0.87218 0.0
H197 H 0.31441 0.23995 0.89593 0.0
H198 H 0.33038 0.28969 0.90302 0.0
C199 C 0.30629 0.27014 0.89789 0.0
H200 H 0.26554 0.25172 0.89964 0.0
H201 H 0.29474 0.14962 0.88529 0.0
O202 O 0.34947 0.39641 0.86381 0.0
C203 C 0.34578 0.24803 0.86663 0.0
Co204 Co 0.65252 0.99536 0.81599 0.0
Co205 Co 0.70494 0.94868 0.8056 0.0
C206 C 0.76359 0.02837 0.81777 0.0
O207 O 0.72467 0.03204 0.8196 0.0
O208 O 0.76113 0.99765 0.81249 0.0
C209 C 0.63697 0.07163 0.8236 0.0
O210 O 0.68639 0.10117 0.8225 0.0
C211 C 0.77394 0.94813 0.79341 0.0
C212 C 0.74042 0.86509 0.79143 0.0
C213 C 0.77962 0.91247 0.78905 0.0
N214 N 0.73301 0.9228 0.79808 0.0
N215 N 0.71325 0.87321 0.79685 0.0
C216 C 0.80842 0.00498 0.79349 0.0
H217 H 0.80233 0.02192 0.7988 0.0
H218 H 0.79997 0.022 0.7884 0.0
H219 H 0.84903 0.01471 0.7931 0.0
C220 C 0.62146 0.01324 0.80057 0.0
N221 N 0.64825 0.9985 0.80507 0.0
N222 N 0.66997 0.97904 0.80066 0.0
C223 C 0.65744 0.98077 0.7932 0.0
C224 C 0.62668 0.00284 0.7929 0.0
C225 C 0.58961 0.03465 0.80362 0.0
H226 H 0.55989 0.00639 0.80757 0.0
H227 H 0.61423 0.0697 0.80703 0.0
H228 H 0.57103 0.04426 0.79887 0.0
O229 O 0.61937 0.92286 0.81938 0.0
O230 O 0.65593 0.88966 0.81203 0.0
H231 H 0.66179 0.91767 0.78832 0.0
H232 H 0.64607 0.95257 0.78138 0.0
C233 C 0.66927 0.95619 0.78659 0.0
H234 H 0.71025 0.97984 0.78505 0.0
H235 H 0.68125 0.84481 0.79975 0.0
O236 O 0.61498 0.0257 0.82117 0.0
C237 C 0.62438 0.88504 0.81731 0.0
Co238 Co 0.65796 0.65783 0.98312 0.0
Co239 Co 0.75437 0.7192 0.97239 0.0
C240 C 0.73039 0.77105 0.98508 0.0
O241 O 0.69116 0.72907 0.98704 0.0
O242 O 0.75822 0.7736 0.97936 0.0
C243 C 0.55764 0.63179 0.98837 0.0
O244 O 0.5649 0.67024 0.98393 0.0
C245 C 0.82589 0.79316 0.96065 0.0
C246 C 0.86879 0.75454 0.95728 0.0
C247 C 0.86488 0.7976 0.95584 0.0
N248 N 0.80729 0.74908 0.96468 0.0
N249 N 0.83327 0.72637 0.96262 0.0
C250 C 0.80812 0.83113 0.96162 0.0
H251 H 0.78724 0.82499 0.96715 0.0
H252 H 0.78176 0.82661 0.95682 0.0
H253 H 0.84118 0.87074 0.96139 0.0
C254 C 0.60834 0.62162 0.96771 0.0
N255 N 0.64879 0.65291 0.97217 0.0
N256 N 0.68862 0.68034 0.96768 0.0
C257 C 0.67432 0.66842 0.96021 0.0
C258 C 0.62302 0.63047 0.95996 0.0
C259 C 0.55888 0.57934 0.97084 0.0
H260 H 0.56558 0.56469 0.97634 0.0
H261 H 0.53261 0.59434 0.97198 0.0
H262 H 0.54023 0.54724 0.96665 0.0
O263 O 0.70109 0.62923 0.98618 0.0
O264 O 0.76945 0.67226 0.97866 0.0
H265 H 0.73735 0.67957 0.95315 0.0
H266 H 0.68799 0.68455 0.94791 0.0
C267 C 0.70928 0.69306 0.95345 0.0
H268 H 0.73045 0.73502 0.95427 0.0
H269 H 0.82683 0.69157 0.96488 0.0
O270 O 0.59207 0.61935 0.98873 0.0
C271 C 0.7452 0.63899 0.98391 0.0
Co272 Co 0.98653 0.66757 0.14917 0.0
Co273 Co 0.03877 0.76929 0.13942 0.0
C274 C 0.95493 0.74622 0.15105 0.0
O275 O 0.95021 0.70301 0.15272 0.0
O276 O 0.98728 0.77532 0.146 0.0
C277 C 0.92737 0.58761 0.16004 0.0
O278 O 0.91836 0.62232 0.16305 0.0
C279 C 0.04153 0.83887 0.12716 0.0
C280 C 0.12441 0.89381 0.12631 0.0
C281 C 0.07743 0.8826 0.12326 0.0
N282 N 0.06638 0.82499 0.13222 0.0
N283 N 0.11589 0.85799 0.13167 0.0
C284 C 0.9845 0.81224 0.12648 0.0
H285 H 0.96609 0.78855 0.13168 0.0
H286 H 0.97219 0.78652 0.12136 0.0
H287 H 0.9716 0.84054 0.12567 0.0
C288 C 0.96985 0.62214 0.13351 0.0
N289 N 0.98584 0.66293 0.13822 0.0
N290 N 0.01034 0.70517 0.13411 0.0
C291 C 0.01264 0.69249 0.12667 0.0
C292 C 0.98667 0.63928 0.12601 0.0
C293 C 0.93864 0.56793 0.13623 0.0
H294 H 0.91081 0.56513 0.14068 0.0
H295 H 0.91751 0.54174 0.13136 0.0
H296 H 0.96431 0.55585 0.13892 0.0
O297 O 0.05818 0.70524 0.153 0.0
O298 O 0.0954 0.77744 0.14622 0.0
H299 H 0.0579 0.7124 0.11617 0.0
H300 H 0.02272 0.74542 0.11767 0.0
C301 C 0.04514 0.73033 0.12059 0.0
H302 H 0.0794 0.76269 0.12328 0.0
H303 H 0.1439 0.85627 0.13499 0.0
O304 O 0.95491 0.59846 0.15399 0.0
C305 C 0.09728 0.74829 0.15139 0.0
Co306 Co 0.31913 0.99894 0.31591 0.0
Co307 Co 0.26613 0.04341 0.3053 0.0
C308 C 0.20824 0.96809 0.31787 0.0
O309 O 0.24803 0.96629 0.31981 0.0
O310 O 0.20892 0.99557 0.3122 0.0
C311 C 0.36465 0.97662 0.32844 0.0
O312 O 0.35154 0.00683 0.33201 0.0
C313 C 0.19584 0.04546 0.2936 0.0
C314 C 0.24316 0.12272 0.28861 0.0
C315 C 0.19637 0.07817 0.2879 0.0
N316 N 0.2405 0.06953 0.29747 0.0
N317 N 0.26827 0.11594 0.29452 0.0
C318 C 0.15594 0.99074 0.2949 0.0
H319 H 0.17356 0.96918 0.29735 0.0
H320 H 0.13589 0.97262 0.2894 0.0
H321 H 0.12737 0.98917 0.2991 0.0
C322 C 0.3467 0.97512 0.30065 0.0
N323 N 0.32149 0.9922 0.30506 0.0
N324 N 0.29901 0.01021 0.30054 0.0
C325 C 0.30884 0.00452 0.29308 0.0
C326 C 0.33938 0.98213 0.29291 0.0
C327 C 0.37886 0.95449 0.30385 0.0
H328 H 0.35556 0.92261 0.3079 0.0
H329 H 0.39415 0.94048 0.29919 0.0
H330 H 0.41109 0.98498 0.3072 0.0
O331 O 0.35457 0.07172 0.31882 0.0
O332 O 0.31637 0.10355 0.31157 0.0
H333 H 0.30799 0.01796 0.28073 0.0
H334 H 0.25153 0.00617 0.28601 0.0
C335 C 0.2938 0.02485 0.28627 0.0
H336 H 0.30968 0.0666 0.28699 0.0
H337 H 0.3051 0.14241 0.29639 0.0
O338 O 0.35414 0.96706 0.32128 0.0
C339 C 0.34914 0.10913 0.31672 0.0
Co340 Co 0.31703 0.32652 0.48228 0.0
Co341 Co 0.21848 0.27737 0.47187 0.0
C342 C 0.23674 0.21556 0.48374 0.0
O343 O 0.27978 0.25377 0.48562 0.0
O344 O 0.20876 0.21924 0.47853 0.0
C345 C 0.41312 0.34313 0.48858 0.0
O346 O 0.40047 0.29864 0.48545 0.0
C347 C 0.14447 0.20818 0.46025 0.0
C348 C 0.11659 0.25722 0.45525 0.0
C349 C 0.11292 0.20978 0.45454 0.0
N350 N 0.16614 0.25288 0.46412 0.0
N351 N 0.14862 0.28164 0.46119 0.0
C352 C 0.15777 0.16717 0.46152 0.0
H353 H 0.19783 0.18424 0.46359 0.0
H354 H 0.15266 0.1451 0.45612 0.0
H355 H 0.13213 0.14055 0.46604 0.0
C356 C 0.36721 0.35765 0.46687 0.0
N357 N 0.32547 0.33212 0.47139 0.0
N358 N 0.28433 0.3104 0.46698 0.0
C359 C 0.29893 0.32074 0.45949 0.0
C360 C 0.3518 0.35084 0.45918 0.0
C361 C 0.42058 0.38931 0.46988 0.0
H362 H 0.42121 0.41457 0.47461 0.0
H363 H 0.43337 0.36356 0.47232 0.0
H364 H 0.44766 0.41281 0.46525 0.0
O365 O 0.27946 0.36101 0.48575 0.0
O366 O 0.20965 0.32689 0.47843 0.0
H367 H 0.23813 0.32338 0.45356 0.0
H368 H 0.28344 0.3198 0.44718 0.0
C369 C 0.26287 0.30628 0.45277 0.0
H370 H 0.23826 0.26409 0.45256 0.0
H371 H 0.16006 0.31876 0.46305 0.0
O372 O 0.38367 0.36158 0.48775 0.0
C373 C 0.23728 0.35764 0.48375 0.0
Co374 Co 0.98299 0.3254 0.64874 0.0
Co375 Co 0.94 0.22532 0.6386 0.0
C376 C 0.02009 0.25044 0.6508 0.0
O377 O 0.02032 0.29144 0.65262 0.0
O378 O 0.99161 0.22156 0.64538 0.0
C379 C 0.03124 0.40073 0.66052 0.0
O380 O 0.03184 0.36254 0.66408 0.0
C381 C 0.9409 0.15449 0.62672 0.0
C382 C 0.85815 0.10491 0.62455 0.0
C383 C 0.90574 0.11272 0.62238 0.0
N384 N 0.91509 0.17068 0.63118 0.0
N385 N 0.86567 0.14078 0.62984 0.0
C386 C 0.99777 0.17711 0.62693 0.0
H387 H 0.01409 0.1996 0.6323 0.0
H388 H 0.01517 0.20326 0.62193 0.0
H389 H 0.00784 0.14648 0.62651 0.0
C390 C 1.00014 0.37258 0.63322 0.0
N391 N 0.98654 0.33165 0.63781 0.0
N392 N 0.96718 0.28998 0.63352 0.0
C393 C 0.96696 0.30315 0.62605 0.0
C394 C 0.98814 0.35592 0.62561 0.0
C395 C 0.01889 0.4256 0.63621 0.0
H396 H 0.98955 0.42541 0.64011 0.0
H397 H 0.05409 0.43788 0.63968 0.0
H398 H 0.02707 0.45334 0.63144 0.0
O399 O 0.91074 0.28508 0.65205 0.0
O400 O 0.88065 0.21347 0.64517 0.0
H401 H 0.90465 0.23617 0.62097 0.0
H402 H 0.94472 0.28461 0.61399 0.0
C403 C 0.94447 0.26569 0.61951 0.0
H404 H 0.96705 0.2463 0.6187 0.0
H405 H 0.83697 0.14473 0.63257 0.0
O406 O 0.01224 0.39376 0.65375 0.0
C407 C 0.87442 0.24077 0.65021 0.0
H408 H 0.72479 0.77248 1.00073 0.0
H409 H 0.75867 0.84683 0.00923 0.0
H410 H 0.80483 0.94625 0.98922 0.0
H411 H 0.77464 0.8715 0.98072 0.0
H412 H 0.87521 0.98748 0.99862 0.0
H413 H 0.69562 0.91733 1.0021 0.0
H414 H 0.60638 0.85116 0.00482 0.0
H415 H 0.64935 0.83065 0.02769 0.0
H416 H 0.73901 0.89625 0.02507 0.0
H417 H 0.90776 0.20406 0.01999 0.0
H418 H 0.86506 0.12689 0.01204 0.0
H419 H 0.88886 0.04114 0.02991 0.0
H420 H 0.93293 0.11881 0.0379 0.0
H421 H 0.78203 0.99502 0.02183 0.0
H422 H 0.96524 0.06921 0.01718 0.0
H423 H 0.05061 0.14118 0.01388 0.0
H424 H 0.99289 0.16032 0.99214 0.0
H425 H 0.90695 0.08893 0.99538 0.0
C426 C 0.74171 0.81023 0.99815 0.0
C427 C 0.74676 0.81634 0.99008 0.0
C428 C 0.76078 0.85284 0.00302 0.0
C429 C 0.78334 0.90253 0.99992 0.0
C430 C 0.78761 0.90851 0.9918 0.0
C431 C 0.77013 0.86584 0.98693 0.0
C432 C 0.80477 0.94814 0.00513 0.0
C433 C 0.85419 0.98911 0.00361 0.0
C434 C 0.7781 0.95067 0.01175 0.0
C435 C 0.72413 0.91142 0.01336 0.0
C436 C 0.6861 0.89849 0.00769 0.0
C437 C 0.63543 0.86111 0.00922 0.0
C438 C 0.62223 0.83663 0.01642 0.0
C439 C 0.65965 0.84961 0.02212 0.0
C440 C 0.71038 0.88693 0.02062 0.0
C441 C 0.9035 0.16875 0.02229 0.0
C442 C 0.92392 0.16763 0.02958 0.0
C443 C 0.87914 0.12473 0.01773 0.0
C444 C 0.87404 0.07857 0.02039 0.0
C445 C 0.89248 0.07657 0.02778 0.0
C446 C 0.91774 0.12093 0.03232 0.0
C447 C 0.85175 0.03324 0.01525 0.0
C448 C 0.80243 0.99275 0.0168 0.0
C449 C 0.87776 0.03169 0.00854 0.0
C450 C 0.92959 0.07409 0.00656 0.0
C451 C 0.97066 0.08906 0.01173 0.0
C452 C 0.01917 0.12969 0.00986 0.0
C453 C 0.02715 0.1554 0.00281 0.0
C454 C 0.98665 0.14042 0.9976 0.0
C455 C 0.93805 0.09985 0.99945 0.0
H456 H 0.06472 0.18685 1.00138 0.0
H457 H 0.58299 0.80769 0.01759 0.0
H458 H 0.88385 0.69483 0.16235 0.0
H459 H 0.84046 0.72707 0.17057 0.0
H460 H 0.9151 0.87098 0.15833 0.0
H461 H 0.95854 0.83887 0.15001 0.0
H462 H 0.8811 0.80487 0.18053 0.0
H463 H 0.8365 0.9225 0.1585 0.0
H464 H 0.81514 0.92001 0.14464 0.0
H465 H 0.75331 0.75721 0.14431 0.0
H466 H 0.77362 0.75863 0.15818 0.0
H467 H 0.83047 0.98088 0.20023 0.0
H468 H 0.86258 0.93834 0.19179 0.0
H469 H 0.71176 0.84643 0.18201 0.0
H470 H 0.67976 0.89026 0.19025 0.0
H471 H 0.7779 0.87972 0.17089 0.0
H472 H 0.76628 0.79751 0.1952 0.0
H473 H 0.78157 0.79385 0.20917 0.0
H474 H 0.94371 0.87241 0.20517 0.0
H475 H 0.92941 0.87712 0.19119 0.0
C476 C 0.89077 0.73319 0.16134 0.0
C477 C 0.92491 0.76429 0.15552 0.0
C478 C 0.86601 0.75162 0.16607 0.0
C479 C 0.87448 0.8014 0.16508 0.0
C480 C 0.90757 0.83222 0.15916 0.0
C481 C 0.93245 0.81382 0.15441 0.0
C482 C 0.85012 0.82159 0.17042 0.0
C483 C 0.85845 0.82116 0.17842 0.0
C484 C 0.81991 0.84212 0.16769 0.0
C485 C 0.8071 0.8408 0.15936 0.0
C486 C 0.81819 0.88616 0.15548 0.0
C487 C 0.80628 0.88493 0.14762 0.0
C488 C 0.78304 0.83851 0.14359 0.0
C489 C 0.7715 0.79318 0.14742 0.0
C490 C 0.78327 0.79419 0.15528 0.0
C491 C 0.80395 0.95124 0.19634 0.0
C492 C 0.75249 0.93895 0.19593 0.0
C493 C 0.82238 0.92679 0.19152 0.0
C494 C 0.78953 0.8887 0.1863 0.0
C495 C 0.73791 0.87574 0.18597 0.0
C496 C 0.71961 0.90068 0.19072 0.0
C497 C 0.80932 0.86358 0.18101 0.0
C498 C 0.80035 0.86326 0.17301 0.0
C499 C 0.8381 0.84141 0.18376 0.0
C500 C 0.84676 0.838 0.19215 0.0
C501 C 0.8052 0.81424 0.19731 0.0
C502 C 0.8137 0.81196 0.20523 0.0
C503 C 0.86358 0.83298 0.20806 0.0
C504 C 0.90509 0.85617 0.20297 0.0
C505 C 0.89681 0.8586 0.19505 0.0
H506 H 0.87008 0.83124 0.2142 0.0
H507 H 0.77389 0.83765 0.13751 0.0
H508 H 0.86163 0.79488 0.37137 0.0
H509 H 0.93817 0.8283 0.36322 0.0
H510 H 0.84268 0.7686 0.34289 0.0
H511 H 0.76665 0.73206 0.35107 0.0
H512 H 0.91722 0.75699 0.34062 0.0
H513 H 0.90585 0.90193 0.34928 0.0
H514 H 0.8993 0.95944 0.35879 0.0
H515 H 0.04227 0.99159 0.36894 0.0
H516 H 0.04936 0.93375 0.35954 0.0
H517 H 0.1091 0.9382 0.31388 0.0
H518 H 0.03294 0.89545 0.32221 0.0
H519 H 0.12623 0.89474 0.34107 0.0
H520 H 0.20202 0.93599 0.33279 0.0
H521 H 0.0549 0.93748 0.34393 0.0
H522 H 0.06261 0.7903 0.33409 0.0
H523 H 0.06611 0.73651 0.32361 0.0
H524 H 0.92443 0.71477 0.31439 0.0
H525 H 0.92051 0.7691 0.32476 0.0
C526 C 0.8572 0.78853 0.36517 0.0
C527 C 0.80828 0.76096 0.36185 0.0
C528 C 0.90091 0.80804 0.3605 0.0
C529 C 0.89648 0.80225 0.35238 0.0
C530 C 0.84746 0.77375 0.34911 0.0
C531 C 0.80391 0.7529 0.3538 0.0
C532 C 0.94251 0.82625 0.34726 0.0
C533 C 0.94686 0.79666 0.34132 0.0
C534 C 0.98181 0.878 0.34814 0.0
C535 C 0.97787 0.91313 0.35376 0.0
C536 C 0.93574 0.92105 0.35357 0.0
C537 C 0.93195 0.95372 0.35894 0.0
C538 C 0.97027 0.97904 0.36448 0.0
C539 C 0.01257 0.97188 0.36465 0.0
C540 C 0.01652 0.9392 0.3593 0.0
C541 C 0.11326 0.92857 0.31978 0.0
C542 C 0.16152 0.94033 0.32267 0.0
C543 C 0.06982 0.90419 0.32452 0.0
C544 C 0.0742 0.89212 0.33224 0.0
C545 C 0.12221 0.90382 0.33513 0.0
C546 C 0.16537 0.92714 0.33037 0.0
C547 C 0.02892 0.86818 0.33738 0.0
C548 C 0.02492 0.89786 0.34329 0.0
C549 C 0.98935 0.8171 0.33634 0.0
C550 C 0.99158 0.78422 0.33014 0.0
C551 C 0.03248 0.77447 0.32978 0.0
C552 C 0.03447 0.74378 0.32387 0.0
C553 C 0.99559 0.72236 0.31832 0.0
C554 C 0.95456 0.73146 0.31868 0.0
C555 C 0.95241 0.76215 0.32458 0.0
H556 H 0.9972 0.69861 0.31375 0.0
H557 H 0.96725 0.00429 0.36864 0.0
H558 H 0.13748 0.13918 0.48545 0.0
H559 H 0.10496 0.06393 0.49387 0.0
H560 H 0.25927 0.10654 0.50028 0.0
H561 H 0.29223 0.18276 0.49203 0.0
H562 H 0.17933 0.99157 0.49609 0.0
H563 H 0.21369 0.13716 0.51262 0.0
H564 H 0.20597 0.21286 0.51571 0.0
H565 H 0.04221 0.11942 0.51595 0.0
H566 H 0.049 0.04328 0.51274 0.0
H567 H 0.11298 0.81711 0.52727 0.0
H568 H 0.15628 0.89379 0.51916 0.0
H569 H 0.02311 0.91168 0.52045 0.0
H570 H 0.9817 0.83768 0.52903 0.0
H571 H 0.09757 0.99896 0.52065 0.0
H572 H 0.05631 0.85539 0.50409 0.0
H573 H 0.0558 0.77698 0.49988 0.0
H574 H 0.21978 0.86017 0.49832 0.0
H575 H 0.22129 0.93898 0.50261 0.0
C576 C 0.16457 0.13222 0.48856 0.0
C577 C 0.21743 0.16706 0.4881 0.0
C578 C 0.14591 0.08929 0.49338 0.0
C579 C 0.17978 0.07994 0.49769 0.0
C580 C 0.23263 0.11321 0.49697 0.0
C581 C 0.25131 0.15675 0.49228 0.0
C582 C 0.15973 0.03727 0.50332 0.0
C583 C 0.16202 0.99317 0.50152 0.0
C584 C 0.13588 0.03912 0.51026 0.0
C585 C 0.13185 0.08466 0.51236 0.0
C586 C 0.17604 0.13285 0.51327 0.0
C587 C 0.17184 0.17581 0.51505 0.0
C588 C 0.12363 0.17099 0.516 0.0
C589 C 0.07953 0.12312 0.5152 0.0
C590 C 0.08354 0.08005 0.51341 0.0
C591 C 0.09337 0.83793 0.52588 0.0
C592 C 0.04402 0.82149 0.52877 0.0
C593 C 0.11787 0.88146 0.52117 0.0
C594 C 0.0926 0.90807 0.51898 0.0
C595 C 0.04366 0.89211 0.52202 0.0
C596 C 0.01991 0.84968 0.52693 0.0
C597 C 0.11644 0.95207 0.51346 0.0
C598 C 0.11493 0.9968 0.51526 0.0
C599 C 0.13976 0.95012 0.50641 0.0
C600 C 0.13893 0.90293 0.50375 0.0
C601 C 0.09227 0.85688 0.50289 0.0
C602 C 0.0918 0.81238 0.50048 0.0
C603 C 0.13774 0.81356 0.49886 0.0
C604 C 0.18424 0.8593 0.4996 0.0
C605 C 0.18492 0.90391 0.50201 0.0
H606 H 0.13731 0.77905 0.497 0.0
H607 H 0.12044 0.20431 0.51737 0.0
H608 H 0.26233 0.05512 0.68485 0.0
H609 H 0.22975 0.09794 0.67663 0.0
H610 H 0.15286 0.11751 0.69634 0.0
H611 H 0.18293 0.07138 0.7045 0.0
H612 H 0.09187 0.0903 0.68523 0.0
H613 H 0.26673 0.22005 0.68719 0.0
H614 H 0.36047 0.258 0.68676 0.0
H615 H 0.35256 0.22303 0.66249 0.0
H616 H 0.25866 0.18425 0.6628 0.0
H617 H 0.05638 0.28103 0.66546 0.0
H618 H 0.09938 0.24848 0.67376 0.0
H619 H 0.09611 0.15106 0.65524 0.0
H620 H 0.05158 0.18236 0.6469 0.0
H621 H 0.19895 0.22265 0.66588 0.0
H622 H 0.01821 0.08555 0.66526 0.0
H623 H 0.92605 0.0557 0.66646 0.0
H624 H 0.94996 0.11688 0.68954 0.0
H625 H 0.04246 0.14781 0.68841 0.0
C626 C 0.23901 0.06911 0.68746 0.0
C627 C 0.22544 0.06019 0.69533 0.0
C628 C 0.22058 0.09395 0.68275 0.0
C629 C 0.18959 0.11212 0.68586 0.0
C630 C 0.17673 0.10399 0.69378 0.0
C631 C 0.19408 0.07784 0.69845 0.0
C632 C 0.16844 0.13696 0.68075 0.0
C633 C 0.11573 0.11972 0.6811 0.0
C634 C 0.19905 0.17527 0.67526 0.0
C635 C 0.25558 0.19885 0.67504 0.0
C636 C 0.28493 0.22015 0.68177 0.0
C637 C 0.33811 0.24185 0.68155 0.0
C638 C 0.36244 0.24281 0.67461 0.0
C639 C 0.33365 0.22222 0.66787 0.0
C640 C 0.28046 0.20043 0.66806 0.0
C641 C 0.06529 0.25313 0.6631 0.0
C642 C 0.05047 0.23417 0.65552 0.0
C643 C 0.08978 0.23457 0.66786 0.0
C644 C 0.10074 0.19745 0.6651 0.0
C645 C 0.08793 0.17982 0.65745 0.0
C646 C 0.06242 0.1976 0.65271 0.0
C647 C 0.12304 0.17519 0.67037 0.0
C648 C 0.17571 0.1932 0.67005 0.0
C649 C 0.09282 0.13858 0.67601 0.0
C650 C 0.03724 0.1195 0.67671 0.0
C651 C 0.00387 0.09309 0.67055 0.0
C652 C 0.95157 0.07588 0.67123 0.0
C653 C 0.93218 0.08454 0.67806 0.0
C654 C 0.96504 0.11028 0.68425 0.0
C655 C 0.01738 0.12763 0.68359 0.0
H656 H 0.89168 0.07118 0.67858 0.0
H657 H 0.40361 0.25961 0.67445 0.0
H658 H 0.84136 0.00748 0.81932 0.0
H659 H 0.91571 0.0498 0.8279 0.0
H660 H 0.86899 0.15736 0.83496 0.0
H661 H 0.79361 0.11447 0.82654 0.0
H662 H 0.98464 0.19592 0.83082 0.0
H663 H 0.83967 0.0786 0.84693 0.0
H664 H 0.76523 0.99361 0.84967 0.0
H665 H 0.86199 0.92699 0.84933 0.0
H666 H 0.9369 0.01153 0.84646 0.0
H667 H 0.15853 0.30037 0.86204 0.0
H668 H 0.08133 0.26701 0.85406 0.0
H669 H 0.06711 0.11723 0.85442 0.0
H670 H 0.14167 0.14971 0.86289 0.0
H671 H 0.97904 0.1024 0.85479 0.0
H672 H 0.12195 0.21038 0.83852 0.0
H673 H 0.1995 0.29007 0.83461 0.0
H674 H 0.11351 0.36824 0.83376 0.0
H675 H 0.03555 0.28914 0.83777 0.0
C676 C 0.84719 0.04055 0.82261 0.0
C677 C 0.81146 0.0575 0.82227 0.0
C678 C 0.88962 0.06458 0.82752 0.0
C679 C 0.89757 0.10649 0.83206 0.0
C680 C 0.86339 0.12506 0.83148 0.0
C681 C 0.82034 0.10041 0.82669 0.0
C682 C 0.93991 0.1288 0.83775 0.0
C683 C 0.98339 0.17605 0.83613 0.0
C684 C 0.93857 0.10184 0.84452 0.0
C685 C 0.89376 0.05127 0.84641 0.0
C686 C 0.84499 0.04575 0.84738 0.0
C687 C 0.80273 0.99768 0.84897 0.0
C688 C 0.80885 0.95489 0.84965 0.0
C689 C 0.85729 0.96015 0.84879 0.0
C690 C 0.89966 0.00814 0.84719 0.0
C691 C 0.13837 0.26019 0.86049 0.0
C692 C 0.15602 0.22761 0.86307 0.0
C693 C 0.09455 0.2412 0.85586 0.0
C694 C 0.0689 0.18977 0.85342 0.0
C695 C 0.08596 0.15702 0.85618 0.0
C696 C 0.12869 0.1756 0.86102 0.0
C697 C 0.02492 0.17 0.84791 0.0
C698 C 0.9808 0.1229 0.84953 0.0
C699 C 0.02638 0.19654 0.84102 0.0
C700 C 0.07305 0.24399 0.83852 0.0
C701 C 0.11965 0.24464 0.83754 0.0
C702 C 0.16367 0.2897 0.83531 0.0
C703 C 0.16147 0.33423 0.83396 0.0
C704 C 0.11518 0.33374 0.83482 0.0
C705 C 0.07105 0.2888 0.83707 0.0
H706 H 0.1956 0.36909 0.83224 0.0
H707 H 0.77607 0.91769 0.85087 0.0
H708 H 0.00458 0.10558 0.06383 0.0
H709 H 0.99767 0.04695 0.07418 0.0
H710 H 0.12818 0.17023 0.08565 0.0
H711 H 0.13515 0.2289 0.07536 0.0
H712 H 0.13816 0.08798 0.08467 0.0
H713 H 0.00487 0.1224 0.09248 0.0
H714 H 0.92588 0.12641 0.09071 0.0
H715 H 0.84117 0.96446 0.08649 0.0
H716 H 0.91987 0.95961 0.08814 0.0
H717 H 0.1328 0.98541 0.12127 0.0
H718 H 0.12591 0.03656 0.11089 0.0
H719 H 0.99972 0.90064 0.10101 0.0
H720 H 0.00668 0.84906 0.11137 0.0
H721 H 0.98325 0.98281 0.10058 0.0
H722 H 0.11554 0.94781 0.09323 0.0
H723 H 0.19438 0.9435 0.09499 0.0
H724 H 0.28082 0.10641 0.09818 0.0
H725 H 0.20233 0.11161 0.09656 0.0
C726 C 0.03097 0.12052 0.06865 0.0
C727 C 0.06991 0.17216 0.06884 0.0
C728 C 0.02717 0.08683 0.07454 0.0
C729 C 0.06214 0.10425 0.08073 0.0
C730 C 0.10078 0.15586 0.08094 0.0
C731 C 0.10468 0.18937 0.07505 0.0
C732 C 0.06023 0.06864 0.08686 0.0
C733 C 0.10443 0.06547 0.08821 0.0
C734 C 0.01572 0.03791 0.0913 0.0
C735 C 0.96836 0.04074 0.09035 0.0
C736 C 0.96948 0.08771 0.09111 0.0
C737 C 0.92475 0.09013 0.09014 0.0
C738 C 0.87856 0.04575 0.08847 0.0
C739 C 0.87699 0.99882 0.08778 0.0
C740 C 0.92164 0.99621 0.08873 0.0
C741 C 0.10332 0.96638 0.11692 0.0
C742 C 0.0699 0.9132 0.11722 0.0
C743 C 0.09946 0.99568 0.11098 0.0
C744 C 0.0626 0.97236 0.10513 0.0
C745 C 0.02827 0.91945 0.10549 0.0
C746 C 0.03206 0.89004 0.11146 0.0
C747 C 0.06155 0.00323 0.09849 0.0
C748 C 0.01684 0.00525 0.09702 0.0
C749 C 0.10559 0.03296 0.09391 0.0
C750 C 0.15296 0.03003 0.09484 0.0
C751 C 0.1513 0.98267 0.09437 0.0
C752 C 0.19593 0.98007 0.09533 0.0
C753 C 0.24256 0.02463 0.09671 0.0
C754 C 0.24467 0.07191 0.09712 0.0
C755 C 0.20012 0.07472 0.09617 0.0
H756 H 0.27708 0.02254 0.09746 0.0
H757 H 0.84397 0.04769 0.08772 0.0
H758 H 0.93978 0.06726 0.22761 0.0
H759 H 0.9934 0.05847 0.23746 0.0
H760 H 0.89621 0.06341 0.25544 0.0
H761 H 0.84509 0.07575 0.24559 0.0
H762 H 0.98553 0.11898 0.25981 0.0
H763 H 0.89985 0.94945 0.24952 0.0
H764 H 0.86913 0.88282 0.23941 0.0
H765 H 0.02418 0.9306 0.23303 0.0
H766 H 0.05585 0.99804 0.24303 0.0
H767 H 0.09302 0.0359 0.28972 0.0
H768 H 0.03066 0.02701 0.27979 0.0
H769 H 0.15059 0.08946 0.26263 0.0
H770 H 0.21318 0.09961 0.27256 0.0
H771 H 0.04712 0.99445 0.25832 0.0
H772 H 0.12831 0.16908 0.26854 0.0
H773 H 0.15435 0.23145 0.27924 0.0
H774 H 0.99778 0.16465 0.28652 0.0
H775 H 0.97095 0.10134 0.27593 0.0
C776 C 0.92991 0.06604 0.23367 0.0
C777 C 0.88853 0.07206 0.23588 0.0
C778 C 0.96024 0.06063 0.23931 0.0
C779 C 0.94858 0.05942 0.24724 0.0
C780 C 0.9063 0.06436 0.24939 0.0
C781 C 0.87697 0.07122 0.24377 0.0
C782 C 0.98183 0.05595 0.25332 0.0
C783 C 0.99803 0.09098 0.25951 0.0
C784 C 0.99908 0.02001 0.25296 0.0
C785 C 0.98021 0.97911 0.24699 0.0
C786 C 0.9274 0.94596 0.24593 0.0
C787 C 0.90981 0.90802 0.24022 0.0
C788 C 0.94468 0.90256 0.23556 0.0
C789 C 0.99721 0.93492 0.23663 0.0
C790 C 0.01501 0.97297 0.24233 0.0
C791 C 0.10579 0.04689 0.2838 0.0
C792 C 0.15773 0.06829 0.28188 0.0
C793 C 0.07028 0.0419 0.27816 0.0
C794 C 0.08616 0.05741 0.27049 0.0
C795 C 0.13766 0.07699 0.26851 0.0
C796 C 0.17331 0.08303 0.27418 0.0
C797 C 0.05 0.05715 0.26468 0.0
C798 C 0.03371 0.02175 0.25858 0.0
C799 C 0.03165 0.09187 0.26519 0.0
C800 C 0.04774 0.13014 0.27151 0.0
C801 C 0.09953 0.16739 0.27247 0.0
C802 C 0.11441 0.20297 0.2785 0.0
C803 C 0.07776 0.20191 0.28357 0.0
C804 C 0.02614 0.16536 0.2826 0.0
C805 C 0.01107 0.12964 0.27658 0.0
H806 H 0.08936 0.2295 0.28824 0.0
H807 H 0.93098 0.8732 0.23114 0.0
H808 H 0.11883 0.22654 0.43907 0.0
H809 H 0.06924 0.16557 0.42885 0.0
H810 H 0.99107 0.0478 0.44609 0.0
H811 H 0.04347 0.10827 0.45627 0.0
H812 H 0.00331 0.00522 0.43433 0.0
H813 H 0.93861 0.12008 0.43731 0.0
H814 H 0.94209 0.20342 0.43802 0.0
H815 H 0.99812 0.23707 0.41464 0.0
H816 H 0.99559 0.15417 0.41382 0.0
H817 H 0.76806 0.86342 0.41252 0.0
H818 H 0.83297 0.91965 0.42191 0.0
H819 H 0.94037 0.99438 0.4033 0.0
H820 H 0.87582 0.93709 0.39387 0.0
H821 H 0.91601 0.05785 0.41513 0.0
H822 H 0.97182 0.93341 0.41264 0.0
H823 H 0.95819 0.84572 0.41264 0.0
H824 H 0.90578 0.82549 0.43621 0.0
H825 H 0.91833 0.91283 0.4363 0.0
C826 C 0.0913 0.18746 0.44064 0.0
C827 C 0.08458 0.17194 0.44842 0.0
C828 C 0.06269 0.1527 0.43481 0.0
C829 C 0.02521 0.10225 0.43668 0.0
C830 C 0.01952 0.08644 0.44447 0.0
C831 C 0.04929 0.12093 0.45029 0.0
C832 C 0.99119 0.06654 0.43056 0.0
C833 C 0.98399 0.01679 0.43018 0.0
C834 C 0.96598 0.08135 0.42507 0.0
C835 C 0.96742 0.13116 0.42553 0.0
C836 C 0.952 0.14541 0.43234 0.0
C837 C 0.95376 0.19255 0.43276 0.0
C838 C 0.97045 0.22558 0.42639 0.0
C839 C 0.98528 0.21148 0.41958 0.0
C840 C 0.98366 0.16441 0.41913 0.0
C841 C 0.80576 0.89143 0.41045 0.0
C842 C 0.81724 0.89581 0.4025 0.0
C843 C 0.84272 0.92334 0.41581 0.0
C844 C 0.89136 0.96087 0.41328 0.0
C845 C 0.90305 0.96533 0.40534 0.0
C846 C 0.86638 0.93256 0.39999 0.0
C847 C 0.92867 0.99725 0.41893 0.0
C848 C 0.936 0.04686 0.41924 0.0
C849 C 0.95273 0.98185 0.42448 0.0
C850 C 0.94554 0.92949 0.42445 0.0
C851 C 0.95691 0.9101 0.41779 0.0
C852 C 0.94949 0.86049 0.41778 0.0
C853 C 0.931 0.83 0.42441 0.0
C854 C 0.92004 0.84912 0.43107 0.0
C855 C 0.92735 0.8987 0.43111 0.0
H856 H 0.92528 0.79161 0.4244 0.0
H857 H 0.97179 0.26206 0.42673 0.0
H858 H 0.98264 0.14438 0.6115 0.0
H859 H 0.99237 0.09227 0.60153 0.0
H860 H 0.85612 0.95891 0.60983 0.0
H861 H 0.84701 0.01053 0.61996 0.0
H862 H 0.93134 0.93681 0.60617 0.0
H863 H 0.85119 0.02524 0.59442 0.0
H864 H 0.84642 0.1019 0.59084 0.0
H865 H 0.98652 0.16003 0.578 0.0
H866 H 0.99244 0.08396 0.5816 0.0
H867 H 0.84155 0.7665 0.57475 0.0
H868 H 0.85371 0.82599 0.58519 0.0
H869 H 0.98245 0.94672 0.57303 0.0
H870 H 0.96888 0.88788 0.56236 0.0
H871 H 0.92387 0.98097 0.57868 0.0
H872 H 0.99947 0.88831 0.58908 0.0
H873 H 0.00463 0.8117 0.59253 0.0
H874 H 0.87641 0.76235 0.60787 0.0
H875 H 0.8699 0.83825 0.60442 0.0
C876 C 0.95561 0.10376 0.61136 0.0
C877 C 0.9145 0.08143 0.61661 0.0
C878 C 0.96084 0.0741 0.60558 0.0
C879 C 0.92481 0.02172 0.60491 0.0
C880 C 0.88447 0.99919 0.61026 0.0
C881 C 0.87916 0.02879 0.61601 0.0
C882 C 0.92735 0.99063 0.59842 0.0
C883 C 0.92943 0.94625 0.60016 0.0
C884 C 0.92639 0.00379 0.59057 0.0
C885 C 0.92255 0.04922 0.58835 0.0
C886 C 0.88116 0.05455 0.59088 0.0
C887 C 0.87822 0.09786 0.58885 0.0
C888 C 0.91623 0.13589 0.58422 0.0
C889 C 0.95716 0.13059 0.5816 0.0
C890 C 0.96031 0.08738 0.58363 0.0
C891 C 0.87255 0.8057 0.57428 0.0
C892 C 0.90502 0.82199 0.56779 0.0
C893 C 0.87974 0.8396 0.5803 0.0
C894 C 0.9198 0.89059 0.58 0.0
C895 C 0.95175 0.90736 0.57345 0.0
C896 C 0.94438 0.87341 0.56739 0.0
C897 C 0.9269 0.92649 0.58642 0.0
C898 C 0.92658 0.97179 0.58468 0.0
C899 C 0.9298 0.91428 0.59426 0.0
C900 C 0.934 0.86888 0.59645 0.0
C901 C 0.97216 0.86098 0.59315 0.0
C902 C 0.97535 0.81768 0.59511 0.0
C903 C 0.94083 0.78215 0.6004 0.0
C904 C 0.90312 0.78991 0.60377 0.0
C905 C 0.8997 0.83311 0.60182 0.0
H906 H 0.94337 0.74867 0.60191 0.0
H907 H 0.91391 0.16941 0.58265 0.0
H908 H 0.0707 0.97938 0.72919 0.0
H909 H 0.0186 0.98738 0.73935 0.0
H910 H 0.01969 0.86506 0.7521 0.0
H911 H 0.07301 0.85789 0.74214 0.0
H912 H 0.92274 0.8519 0.75034 0.0
H913 H 0.09132 0.98472 0.75816 0.0
H914 H 0.17445 0.06335 0.75624 0.0
H915 H 0.09773 0.14827 0.75182 0.0
H916 H 0.01404 0.06991 0.75361 0.0
H917 H 0.82453 0.8551 0.78677 0.0
H918 H 0.88266 0.86235 0.77637 0.0
H919 H 0.87872 0.99343 0.76724 0.0
H920 H 0.82063 0.9865 0.77769 0.0
H921 H 0.97448 0.00708 0.76631 0.0
H922 H 0.80672 0.8773 0.75902 0.0
H923 H 0.72262 0.7994 0.76065 0.0
H924 H 0.7958 0.70962 0.7635 0.0
H925 H 0.88044 0.78714 0.76199 0.0
C926 C 0.06125 0.95519 0.73424 0.0
C927 C 0.07714 0.91872 0.7349 0.0
C928 C 0.03094 0.95948 0.74002 0.0
C929 C 0.01557 0.92703 0.74651 0.0
C930 C 0.03112 0.8905 0.74715 0.0
C931 C 0.06161 0.88646 0.74143 0.0
C932 C 0.98184 0.92954 0.75254 0.0
C933 C 0.93424 0.88567 0.75388 0.0
C934 C 0.99614 0.9742 0.75697 0.0
C935 C 0.04641 0.02133 0.75593 0.0
C936 C 0.09215 0.02006 0.75671 0.0
C937 C 0.13938 0.0646 0.75566 0.0
C938 C 0.14137 0.11075 0.75389 0.0
C939 C 0.09613 0.11248 0.75318 0.0
C940 C 0.04879 0.06802 0.75422 0.0
C941 C 0.83642 0.88578 0.78259 0.0
C942 C 0.81838 0.92052 0.7831 0.0
C943 C 0.86954 0.88981 0.77663 0.0
C944 C 0.88449 0.92799 0.77095 0.0
C945 C 0.86779 0.96375 0.77157 0.0
C946 C 0.83485 0.95996 0.77759 0.0
C947 C 0.91586 0.92894 0.76424 0.0
C948 C 0.9628 0.97342 0.76274 0.0
C949 C 0.90082 0.88494 0.75959 0.0
C950 C 0.84996 0.83812 0.76045 0.0
C951 C 0.80491 0.841 0.76004 0.0
C952 C 0.75713 0.79691 0.76094 0.0
C953 C 0.75387 0.74961 0.7622 0.0
C954 C 0.79839 0.7463 0.76253 0.0
C955 C 0.84627 0.79029 0.76165 0.0
H956 H 0.71685 0.71551 0.76289 0.0
H957 H 0.17797 0.1452 0.75308 0.0
H958 H 0.83496 0.8476 0.94563 0.0
H959 H 0.88766 0.91058 0.93579 0.0
H960 H 0.01865 0.90033 0.94324 0.0
H961 H 0.96632 0.8379 0.95315 0.0
H962 H 0.04152 0.00102 0.94042 0.0
H963 H 0.95272 0.83439 0.92789 0.0
H964 H 0.87529 0.75427 0.92408 0.0
H965 H 0.81932 0.84029 0.91184 0.0
H966 H 0.89618 0.921 0.91566 0.0
H967 H 0.21406 0.08523 0.90921 0.0
H968 H 0.15412 0.03827 0.91963 0.0
H969 H 0.03453 0.04781 0.90739 0.0
H970 H 0.0939 0.09301 0.89678 0.0
H971 H 0.99938 0.95461 0.91272 0.0
H972 H 0.09059 0.12048 0.92373 0.0
H973 H 0.16424 0.20239 0.92794 0.0
H974 H 0.21233 0.12223 0.94323 0.0
H975 H 0.13947 0.03972 0.93902 0.0
C976 C 0.87524 0.85975 0.94531 0.0
C977 C 0.89674 0.83843 0.95024 0.0
C978 C 0.90518 0.8953 0.93962 0.0
C979 C 0.95703 0.91001 0.93877 0.0
C980 C 0.97878 0.88965 0.94382 0.0
C981 C 0.94881 0.85386 0.94944 0.0
C982 C 0.98842 0.94479 0.93243 0.0
C983 C 0.03263 0.99085 0.93436 0.0
C984 C 0.97566 0.93222 0.92453 0.0
C985 C 0.9299 0.88371 0.92213 0.0
C986 C 0.92373 0.83622 0.92443 0.0
C987 C 0.87998 0.79071 0.92226 0.0
C988 C 0.84232 0.79219 0.91774 0.0
C989 C 0.84847 0.8392 0.91535 0.0
C990 C 0.89213 0.88483 0.91751 0.0
C991 C 0.17505 0.07755 0.90874 0.0
C992 C 0.15915 0.09393 0.90223 0.0
C993 C 0.14089 0.05106 0.91475 0.0
C994 C 0.09 0.04039 0.91439 0.0
C995 C 0.07377 0.05617 0.90785 0.0
C996 C 0.108 0.08267 0.90182 0.0
C997 C 0.05347 0.01064 0.92069 0.0
C998 C 0.0082 0.9654 0.91877 0.0
C999 C 0.065 0.02431 0.9286 0.0
C1000 C 0.10966 0.07381 0.93102 0.0
C1001 C 0.11715 0.12023 0.92793 0.0
C1002 C 0.15871 0.1668 0.93033 0.0
C1003 C 0.19288 0.16749 0.93585 0.0
C1004 C 0.18578 0.12162 0.93896 0.0
C1005 C 0.14434 0.07494 0.93657 0.0
H1006 H 0.22474 0.20357 0.93776 0.0
H1007 H 0.80843 0.75692 0.91608 0.0
H1008 H 0.5407 0.56868 1.0007 0.0
H1009 H 0.46282 0.52281 0.00841 0.0
H1010 H 0.38859 0.58312 0.99395 0.0
H1011 H 0.4673 0.63087 0.9864 0.0
H1012 H 0.36594 0.58749 0.00829 0.0
H1013 H 0.36423 0.45584 0.99249 0.0
H1014 H 0.39899 0.40445 0.98683 0.0
H1015 H 0.41344 0.35515 0.00957 0.0
H1016 H 0.37937 0.40679 0.01537 0.0
H1017 H 0.11253 0.4154 0.02068 0.0
H1018 H 0.19084 0.46247 0.01313 0.0
H1019 H 0.26835 0.41084 0.02854 0.0
H1020 H 0.18964 0.36254 0.03606 0.0
H1021 H 0.2888 0.40189 0.01372 0.0
H1022 H 0.28908 0.53471 0.02935 0.0
H1023 H 0.25182 0.58482 0.03465 0.0
H1024 H 0.23692 0.63015 0.01164 0.0
H1025 H 0.27358 0.57983 0.0062 0.0
C1026 C 0.50774 0.57206 0.99914 0.0
C1027 C 0.51004 0.60323 0.99292 0.0
C1028 C 0.46311 0.5456 0.00354 0.0
C1029 C 0.41941 0.5487 1.00168 0.0
C1030 C 0.42174 0.58002 0.99549 0.0
C1031 C 0.46669 0.6072 0.99117 0.0
C1032 C 0.3716 0.51995 0.00628 0.0
C1033 C 0.34872 0.54675 0.00938 0.0
C1034 C 0.34954 0.46696 0.00785 0.0
C1035 C 0.36967 0.43555 0.00437 0.0
C1036 C 0.37513 0.4343 0.99629 0.0
C1037 C 0.39467 0.40509 0.99306 0.0
C1038 C 0.40853 0.37665 0.99784 0.0
C1039 C 0.40274 0.37724 0.00587 0.0
C1040 C 0.38326 0.40643 0.00913 0.0
C1041 C 0.14625 0.41418 0.02251 0.0
C1042 C 0.1448 0.38528 0.029 0.0
C1043 C 0.1911 0.44132 0.01819 0.0
C1044 C 0.23569 0.44076 0.02033 0.0
C1045 C 0.23441 0.4119 0.02679 0.0
C1046 C 0.18942 0.38442 0.0311 0.0
C1047 C 0.28335 0.46947 0.01572 0.0
C1048 C 0.30613 0.44263 0.01262 0.0
C1049 C 0.30504 0.5223 0.01409 0.0
C1050 C 0.28371 0.55318 0.01737 0.0
C1051 C 0.27761 0.55515 0.02542 0.0
C1052 C 0.25663 0.58362 0.02845 0.0
C1053 C 0.24192 0.61056 0.02348 0.0
C1054 C 0.24832 0.60924 0.01548 0.0
C1055 C 0.26926 0.58082 0.01242 0.0
H1056 H 0.22563 0.63253 0.02584 0.0
H1057 H 0.42367 0.35408 0.99533 0.0
H1058 H 0.85845 0.54824 0.1719 0.0
H1059 H 0.82945 0.46755 0.17874 0.0
H1060 H 0.92448 0.43373 0.16404 0.0
H1061 H 0.95251 0.51381 0.157 0.0
H1062 H 0.83686 0.35076 0.16612 0.0
H1063 H 0.96058 0.47873 0.18282 0.0
H1064 H 0.00118 0.55894 0.19036 0.0
H1065 H 0.86584 0.50375 0.2043 0.0
H1066 H 0.82415 0.42345 0.19678 0.0
H1067 H 0.83454 0.19584 0.20264 0.0
H1068 H 0.87017 0.27676 0.19555 0.0
H1069 H 0.72626 0.22243 0.18369 0.0
H1070 H 0.69075 0.14125 0.1906 0.0
H1071 H 0.84739 0.35025 0.19482 0.0
H1072 H 0.74617 0.26661 0.16536 0.0
H1073 H 0.71472 0.1873 0.15773 0.0
H1074 H 0.82224 0.15546 0.16912 0.0
H1075 H 0.85482 0.23489 0.17674 0.0
C1076 C 0.87306 0.52357 0.1701 0.0
C1077 C 0.90806 0.53759 0.16394 0.0
C1078 C 0.85665 0.47755 0.17405 0.0
C1079 C 0.87555 0.44501 0.17201 0.0
C1080 C 0.90953 0.45831 0.16573 0.0
C1081 C 0.92558 0.50414 0.16172 0.0
C1082 C 0.85986 0.39719 0.17644 0.0
C1083 C 0.83921 0.35068 0.17239 0.0
C1084 C 0.86407 0.39712 0.18462 0.0
C1085 C 0.8891 0.44524 0.18919 0.0
C1086 C 0.93935 0.48383 0.18746 0.0
C1087 C 0.96258 0.5293 0.19174 0.0
C1088 C 0.93607 0.53648 0.19779 0.0
C1089 C 0.88631 0.49815 0.1996 0.0
C1090 C 0.86288 0.45263 0.19534 0.0
C1091 C 0.81042 0.20115 0.19854 0.0
C1092 C 0.75989 0.16186 0.19715 0.0
C1093 C 0.83084 0.24746 0.1945 0.0
C1094 C 0.80116 0.25535 0.189 0.0
C1095 C 0.75026 0.21681 0.18778 0.0
C1096 C 0.72993 0.17045 0.19177 0.0
C1097 C 0.82328 0.30377 0.18451 0.0
C1098 C 0.84514 0.35037 0.18855 0.0
C1099 C 0.8215 0.30405 0.17631 0.0
C1100 C 0.80257 0.25648 0.17168 0.0
C1101 C 0.76324 0.24279 0.16622 0.0
C1102 C 0.74519 0.19779 0.16189 0.0
C1103 C 0.76636 0.16628 0.16296 0.0
C1104 C 0.80575 0.1798 0.16832 0.0
C1105 C 0.82397 0.22477 0.17265 0.0
H1106 H 0.7523 0.13145 0.15961 0.0
H1107 H 0.95411 0.57171 0.2011 0.0
H1108 H 0.39351 0.90958 0.32299 0.0
H1109 H 0.43728 0.87253 0.33011 0.0
H1110 H 0.44007 0.95589 0.3506 0.0
H1111 H 0.39657 0.99336 0.34352 0.0
H1112 H 0.5325 0.9613 0.34787 0.0
H1113 H 0.35477 0.83083 0.34926 0.0
H1114 H 0.26951 0.77137 0.34388 0.0
H1115 H 0.33323 0.69649 0.33054 0.0
H1116 H 0.41903 0.75598 0.33576 0.0
H1117 H 0.61056 0.82842 0.37357 0.0
H1118 H 0.56467 0.86688 0.36742 0.0
H1119 H 0.53683 0.77143 0.34728 0.0
H1120 H 0.58046 0.73148 0.35352 0.0
H1121 H 0.45499 0.77311 0.35037 0.0
H1122 H 0.63211 0.90359 0.34813 0.0
H1123 H 0.71899 0.96363 0.35291 0.0
H1124 H 0.65936 0.03898 0.36704 0.0
H1125 H 0.572 0.97896 0.36242 0.0
C1126 C 0.40339 0.92002 0.32901 0.0
C1127 C 0.39134 0.95424 0.3327 0.0
C1128 C 0.42828 0.89871 0.33307 0.0
C1129 C 0.44145 0.91111 0.3409 0.0
C1130 C 0.43015 0.94578 0.34456 0.0
C1131 C 0.40513 0.967 0.34051 0.0
C1132 C 0.46704 0.88787 0.34526 0.0
C1133 C 0.51533 0.92017 0.34852 0.0
C1134 C 0.44505 0.83422 0.34594 0.0
C1135 C 0.39339 0.79815 0.34285 0.0
C1136 C 0.35066 0.80192 0.34514 0.0
C1137 C 0.30223 0.76817 0.34212 0.0
C1138 C 0.29598 0.73025 0.33686 0.0
C1139 C 0.33814 0.72591 0.33461 0.0
C1140 C 0.38666 0.7596 0.3376 0.0
C1141 C 0.59459 0.81569 0.36783 0.0
C1142 C 0.59912 0.77694 0.36403 0.0
C1143 C 0.5686 0.83787 0.3643 0.0
C1144 C 0.54785 0.82262 0.35683 0.0
C1145 C 0.55232 0.78382 0.35305 0.0
C1146 C 0.57739 0.76104 0.35662 0.0
C1147 C 0.52104 0.84646 0.35291 0.0
C1148 C 0.47231 0.81427 0.34975 0.0
C1149 C 0.54297 0.90022 0.35223 0.0
C1150 C 0.59548 0.93646 0.35499 0.0
C1151 C 0.63749 0.93274 0.3523 0.0
C1152 C 0.68682 0.9668 0.35497 0.0
C1153 C 0.69467 0.005 0.36029 0.0
C1154 C 0.65321 0.00932 0.36293 0.0
C1155 C 0.60379 0.97532 0.36028 0.0
H1156 H 0.73289 0.03133 0.36235 0.0
H1157 H 0.25845 0.70417 0.33453 0.0
H1158 H 0.85514 0.55923 0.52202 0.0
H1159 H 0.77671 0.50871 0.51461 0.0
H1160 H 0.70645 0.58399 0.52642 0.0
H1161 H 0.78452 0.63405 0.53399 0.0
H1162 H 0.64074 0.48458 0.52523 0.0
H1163 H 0.75235 0.61709 0.50787 0.0
H1164 H 0.83204 0.67095 0.50062 0.0
H1165 H 0.81505 0.53822 0.48873 0.0
H1166 H 0.73558 0.48343 0.496 0.0
H1167 H 0.43956 0.42369 0.49834 0.0
H1168 H 0.51793 0.47029 0.50596 0.0
H1169 H 0.57367 0.37474 0.4966 0.0
H1170 H 0.49488 0.3273 0.489 0.0
H1171 H 0.64631 0.48279 0.49648 0.0
H1172 H 0.53163 0.35119 0.514 0.0
H1173 H 0.45076 0.30048 0.52114 0.0
H1174 H 0.4726 0.43641 0.53258 0.0
H1175 H 0.55328 0.4881 0.52542 0.0
C1176 C 0.82304 0.56507 0.52306 0.0
C1177 C 0.82629 0.60097 0.52858 0.0
C1178 C 0.77825 0.53626 0.51879 0.0
C1179 C 0.73595 0.54312 0.51987 0.0
C1180 C 0.73867 0.57816 0.52548 0.0
C1181 C 0.78339 0.60683 0.52979 0.0
C1182 C 0.68897 0.51381 0.51514 0.0
C1183 C 0.64193 0.48473 0.51894 0.0
C1184 C 0.69057 0.51326 0.50693 0.0
C1185 C 0.73829 0.54608 0.50254 0.0
C1186 C 0.76582 0.59932 0.50375 0.0
C1187 C 0.81091 0.63003 0.49963 0.0
C1188 C 0.82867 0.608 0.49423 0.0
C1189 C 0.80129 0.55522 0.49293 0.0
C1190 C 0.7562 0.52432 0.49704 0.0
C1191 C 0.46847 0.41255 0.49789 0.0
C1192 C 0.46098 0.3717 0.49308 0.0
C1193 C 0.51313 0.43914 0.50227 0.0
C1194 C 0.55133 0.42569 0.50187 0.0
C1195 C 0.54449 0.38555 0.49699 0.0
C1196 C 0.49944 0.35843 0.49268 0.0
C1197 C 0.5984 0.45374 0.50658 0.0
C1198 C 0.64534 0.48261 0.50277 0.0
C1199 C 0.59663 0.4546 0.51477 0.0
C1200 C 0.54825 0.42358 0.51911 0.0
C1201 C 0.51897 0.37035 0.51798 0.0
C1202 C 0.4732 0.34141 0.52205 0.0
C1203 C 0.45648 0.36523 0.52729 0.0
C1204 C 0.48557 0.41802 0.5285 0.0
C1205 C 0.53134 0.44715 0.52445 0.0
H1206 H 0.42104 0.34275 0.53043 0.0
H1207 H 0.86359 0.63184 0.49105 0.0
H1208 H 0.01728 0.48071 0.6565 0.0
H1209 H 0.04945 0.56241 0.66327 0.0
H1210 H 0.12482 0.5161 0.67999 0.0
H1211 H 0.09112 0.43375 0.67344 0.0
H1212 H 0.08276 0.5597 0.68726 0.0
H1213 H 0.19027 0.60274 0.66478 0.0
H1214 H 0.20949 0.60701 0.65081 0.0
H1215 H 0.13533 0.69492 0.64689 0.0
H1216 H 0.1151 0.6906 0.66082 0.0
H1217 H 0.28162 0.85119 0.69053 0.0
H1218 H 0.24648 0.76897 0.68394 0.0
H1219 H 0.0982 0.72166 0.69389 0.0
H1220 H 0.13348 0.80353 0.70071 0.0
H1221 H 0.17713 0.7251 0.6733 0.0
H1222 H 0.03389 0.59291 0.69662 0.0
H1223 H 0.02401 0.58871 0.71085 0.0
H1224 H 0.187 0.67948 0.71356 0.0
H1225 H 0.19787 0.68365 0.69936 0.0
C1226 C 0.04078 0.48802 0.66161 0.0
C1227 C 0.05174 0.45083 0.66443 0.0
C1228 C 0.05932 0.53482 0.66546 0.0
C1229 C 0.09011 0.54576 0.6721 0.0
C1230 C 0.10103 0.50858 0.6749 0.0
C1231 C 0.08189 0.46155 0.67113 0.0
C1232 C 0.1109 0.59575 0.67616 0.0
C1233 C 0.10332 0.59584 0.68419 0.0
C1234 C 0.13841 0.64304 0.67221 0.0
C1235 C 0.15074 0.64591 0.66383 0.0
C1236 C 0.17777 0.62268 0.66093 0.0
C1237 C 0.18888 0.62515 0.65302 0.0
C1238 C 0.17352 0.6511 0.64796 0.0
C1239 C 0.14714 0.67477 0.65081 0.0
C1240 C 0.13587 0.67236 0.65871 0.0
C1241 C 0.24154 0.8233 0.69135 0.0
C1242 C 0.21041 0.83394 0.69618 0.0
C1243 C 0.22145 0.77631 0.68755 0.0
C1244 C 0.16978 0.73893 0.68845 0.0
C1245 C 0.1384 0.74956 0.6932 0.0
C1246 C 0.1586 0.79646 0.69708 0.0
C1247 C 0.14903 0.68899 0.68439 0.0
C1248 C 0.15641 0.68893 0.67635 0.0
C1249 C 0.12267 0.64174 0.68838 0.0
C1250 C 0.11659 0.63905 0.69692 0.0
C1251 C 0.06761 0.61183 0.70026 0.0
C1252 C 0.06184 0.60947 0.70831 0.0
C1253 C 0.10484 0.63397 0.7131 0.0
C1254 C 0.15371 0.6607 0.70984 0.0
C1255 C 0.15969 0.66313 0.70179 0.0
H1256 H 0.10029 0.63213 0.71934 0.0
H1257 H 0.18215 0.65297 0.64184 0.0
H1258 H 0.36594 0.17138 0.87028 0.0
H1259 H 0.41675 0.14353 0.86283 0.0
H1260 H 0.44626 0.25808 0.84551 0.0
H1261 H 0.39581 0.28635 0.8529 0.0
H1262 H 0.41768 0.16334 0.83912 0.0
H1263 H 0.53773 0.27935 0.85776 0.0
H1264 H 0.56898 0.31353 0.87085 0.0
H1265 H 0.55982 0.1719 0.87742 0.0
H1266 H 0.5278 0.1366 0.86439 0.0
H1267 H 0.67248 0.16676 0.82989 0.0
H1268 H 0.62372 0.19846 0.83697 0.0
H1269 H 0.48616 0.05243 0.83403 0.0
H1270 H 0.53443 0.02064 0.82685 0.0
H1271 H 0.57106 0.16718 0.8503 0.0
H1272 H 0.38446 0.07185 0.83234 0.0
H1273 H 0.3563 0.04247 0.81895 0.0
H1274 H 0.50489 0.15277 0.81039 0.0
H1275 H 0.53369 0.18327 0.82371 0.0
C1276 C 0.38326 0.1907 0.86489 0.0
C1277 C 0.3769 0.23121 0.8622 0.0
C1278 C 0.41237 0.1748 0.86065 0.0
C1279 C 0.4354 0.1989 0.85364 0.0
C1280 C 0.42875 0.23897 0.85091 0.0
C1281 C 0.40009 0.25521 0.85517 0.0
C1282 C 0.46647 0.18236 0.84913 0.0
C1283 C 0.45117 0.16407 0.84156 0.0
C1284 C 0.51053 0.18402 0.85229 0.0
C1285 C 0.52988 0.20516 0.86013 0.0
C1286 C 0.54196 0.25534 0.86202 0.0
C1287 C 0.55989 0.27494 0.86942 0.0
C1288 C 0.56625 0.24486 0.87497 0.0
C1289 C 0.55481 0.19514 0.87312 0.0
C1290 C 0.5368 0.17532 0.86572 0.0
C1291 C 0.63181 0.14142 0.83072 0.0
C1292 C 0.60734 0.0912 0.82778 0.0
C1293 C 0.60404 0.15955 0.8348 0.0
C1294 C 0.55125 0.12796 0.83599 0.0
C1295 C 0.52674 0.07773 0.83309 0.0
C1296 C 0.55445 0.05957 0.82901 0.0
C1297 C 0.52194 0.14748 0.84031 0.0
C1298 C 0.53751 0.16627 0.84786 0.0
C1299 C 0.47848 0.14687 0.83709 0.0
C1300 C 0.46134 0.12947 0.82903 0.0
C1301 C 0.41104 0.08998 0.8276 0.0
C1302 C 0.39498 0.07311 0.82002 0.0
C1303 C 0.42883 0.09563 0.81383 0.0
C1304 C 0.47876 0.13523 0.8152 0.0
C1305 C 0.49499 0.15228 0.82276 0.0
H1306 H 0.41635 0.08247 0.80797 0.0
H1307 H 0.58015 0.26011 0.8807 0.0
H1308 H 0.54708 0.85797 0.82784 0.0
H1309 H 0.499 0.77672 0.83474 0.0
H1310 H 0.58389 0.7177 0.82272 0.0
H1311 H 0.63233 0.79884 0.81579 0.0
H1312 H 0.43683 0.67863 0.82964 0.0
H1313 H 0.60598 0.64427 0.83564 0.0
H1314 H 0.6995 0.69462 0.83751 0.0
H1315 H 0.68649 0.82213 0.84567 0.0
H1316 H 0.59287 0.77231 0.84395 0.0
H1317 H 0.347 0.42181 0.84111 0.0
H1318 H 0.39307 0.5053 0.83478 0.0
H1319 H 0.45531 0.57694 0.85683 0.0
H1320 H 0.40972 0.49344 0.86322 0.0
H1321 H 0.5281 0.61302 0.8457 0.0
H1322 H 0.35881 0.58647 0.8488 0.0
H1323 H 0.26474 0.53864 0.84769 0.0
H1324 H 0.27676 0.53891 0.82288 0.0
H1325 H 0.37096 0.58616 0.82386 0.0
C1326 C 0.55551 0.82772 0.82664 0.0
C1327 C 0.59379 0.83508 0.82128 0.0
C1328 C 0.52783 0.78123 0.83058 0.0
C1329 C 0.53819 0.74138 0.82929 0.0
C1330 C 0.5757 0.7482 0.82385 0.0
C1331 C 0.60323 0.79458 0.81988 0.0
C1332 C 0.51027 0.69293 0.83373 0.0
C1333 C 0.45676 0.66424 0.83315 0.0
C1334 C 0.53624 0.67467 0.83841 0.0
C1335 C 0.59246 0.70469 0.83959 0.0
C1336 C 0.62306 0.68297 0.83786 0.0
C1337 C 0.67609 0.71143 0.83889 0.0
C1338 C 0.69894 0.76159 0.84168 0.0
C1339 C 0.66877 0.78334 0.84348 0.0
C1340 C 0.61573 0.75502 0.84247 0.0
C1341 C 0.37043 0.45529 0.84463 0.0
C1342 C 0.37457 0.45096 0.85268 0.0
C1343 C 0.39663 0.50303 0.841 0.0
C1344 C 0.4273 0.54741 0.84534 0.0
C1345 C 0.43186 0.54318 0.85337 0.0
C1346 C 0.4056 0.49545 0.85701 0.0
C1347 C 0.4547 0.59819 0.8415 0.0
C1348 C 0.50815 0.62734 0.84219 0.0
C1349 C 0.42858 0.61728 0.83702 0.0
C1350 C 0.37195 0.58948 0.83641 0.0
C1351 C 0.3414 0.57605 0.84311 0.0
C1352 C 0.28805 0.54908 0.84251 0.0
C1353 C 0.26479 0.53562 0.83522 0.0
C1354 C 0.29483 0.5493 0.82852 0.0
C1355 C 0.34821 0.57623 0.8291 0.0
H1356 H 0.22348 0.51469 0.83476 0.0
H1357 H 0.73999 0.78358 0.84247 0.0
H1358 H 0.98102 0.40595 0.00818 0.0
H1359 H 0.94516 0.45149 1.00126 0.0
H1360 H 0.85812 0.44386 0.02156 0.0
H1361 H 0.89385 0.39823 0.02855 0.0
H1362 H 0.80085 0.41657 0.00789 0.0
H1363 H 0.96266 0.55296 0.01729 0.0
H1364 H 0.05633 0.59803 0.01898 0.0
H1365 H 0.07674 0.61383 0.9943 0.0
H1366 H 0.98311 0.56817 0.99246 0.0
H1367 H 0.72077 0.59065 0.99788 0.0
H1368 H 0.75915 0.54567 0.00414 0.0
H1369 H 0.86055 0.57905 0.98463 0.0
H1370 H 0.82352 0.62628 0.97844 0.0
H1371 H 0.91131 0.59129 0.99736 0.0
H1372 H 0.75197 0.45748 0.98764 0.0
H1373 H 0.65867 0.41018 0.98552 0.0
H1374 H 0.63352 0.3861 0.01003 0.0
H1375 H 0.7267 0.43386 0.01232 0.0
C1376 C 0.95424 0.41391 0.01118 0.0
C1377 C 0.94031 0.39853 0.01892 0.0
C1378 C 0.93394 0.4401 0.00722 0.0
C1379 C 0.89932 0.45134 0.01092 0.0
C1380 C 0.88486 0.43555 0.01861 0.0
C1381 C 0.9054 0.40964 0.0226 0.0
C1382 C 0.87793 0.47931 0.00675 0.0
C1383 C 0.82484 0.45502 0.00567 0.0
C1384 C 0.90956 0.52873 0.00362 0.0
C1385 C 0.96587 0.5567 0.00473 0.0
C1386 C 0.98711 0.5657 0.01222 0.0
C1387 C 0.0402 0.59141 0.0132 0.0
C1388 C 0.07247 0.60866 0.00675 0.0
C1389 C 0.0517 0.60039 0.99929 0.0
C1390 C 0.99863 0.57464 0.99827 0.0
C1391 C 0.75114 0.58834 0.9949 0.0
C1392 C 0.76883 0.61166 0.98763 0.0
C1393 C 0.77292 0.56235 0.99848 0.0
C1394 C 0.81197 0.55788 0.99479 0.0
C1395 C 0.83027 0.58175 0.98757 0.0
C1396 C 0.80904 0.60862 0.98403 0.0
C1397 C 0.8339 0.52878 0.99854 0.0
C1398 C 0.88715 0.55277 0.99954 0.0
C1399 C 0.80243 0.47873 1.00151 0.0
C1400 C 0.74634 0.44962 1.00015 0.0
C1401 C 0.72655 0.44238 0.99258 0.0
C1402 C 0.67368 0.41545 0.99135 0.0
C1403 C 0.64019 0.39525 0.99764 0.0
C1404 C 0.65951 0.40181 0.00517 0.0
C1405 C 0.71235 0.42875 0.00644 0.0
H1406 H 0.59927 0.37443 0.99667 0.0
H1407 H 0.11356 0.62852 0.00752 0.0
H1408 H 0.47592 0.82744 0.19576 0.0
H1409 H 0.3975 0.79633 0.18816 0.0
H1410 H 0.4544 0.94757 0.17865 0.0
H1411 H 0.53211 0.97918 0.18639 0.0
H1412 H 0.35813 0.90865 0.18238 0.0
H1413 H 0.45479 0.84895 0.16816 0.0
H1414 H 0.50348 0.8041 0.16629 0.0
H1415 H 0.37187 0.66202 0.17295 0.0
H1416 H 0.32257 0.70618 0.17496 0.0
H1417 H 0.18536 0.84156 0.1508 0.0
H1418 H 0.26343 0.87007 0.15839 0.0
H1419 H 0.1966 0.72229 0.16945 0.0
H1420 H 0.1184 0.69327 0.16189 0.0
H1421 H 0.2968 0.75822 0.16498 0.0
H1422 H 0.20041 0.81983 0.17899 0.0
H1423 H 0.15266 0.8659 0.1805 0.0
H1424 H 0.28586 0.0064 0.17376 0.0
H1425 H 0.33422 0.96099 0.17209 0.0
C1426 C 0.47172 0.85406 0.19205 0.0
C1427 C 0.51034 0.90574 0.19166 0.0
C1428 C 0.42696 0.83617 0.18768 0.0
C1429 C 0.4203 0.86944 0.18274 0.0
C1430 C 0.45863 0.92115 0.18241 0.0
C1431 C 0.50313 0.93914 0.18683 0.0
C1432 C 0.37328 0.85068 0.17796 0.0
C1433 C 0.34517 0.87616 0.1785 0.0
C1434 C 0.35565 0.80764 0.17301 0.0
C1435 C 0.38516 0.78097 0.17179 0.0
C1436 C 0.43635 0.80821 0.16928 0.0
C1437 C 0.46404 0.78291 0.16819 0.0
C1438 C 0.44083 0.73027 0.16952 0.0
C1439 C 0.38982 0.70281 0.17193 0.0
C1440 C 0.36198 0.72794 0.17304 0.0
C1441 C 0.18726 0.81499 0.15483 0.0
C1442 C 0.14544 0.76518 0.15576 0.0
C1443 C 0.23187 0.83144 0.15918 0.0
C1444 C 0.23557 0.79844 0.16454 0.0
C1445 C 0.19446 0.74836 0.16535 0.0
C1446 C 0.14973 0.73194 0.16104 0.0
C1447 C 0.28205 0.81639 0.16938 0.0
C1448 C 0.30994 0.79071 0.16886 0.0
C1449 C 0.29971 0.85948 0.1743 0.0
C1450 C 0.27078 0.8869 0.17534 0.0
C1451 C 0.2194 0.86047 0.17777 0.0
C1452 C 0.19224 0.88648 0.17866 0.0
C1453 C 0.21617 0.93902 0.17721 0.0
C1454 C 0.26735 0.96569 0.17487 0.0
C1455 C 0.29467 0.93984 0.17396 0.0
H1456 H 0.19508 0.95909 0.1779 0.0
H1457 H 0.46232 0.71075 0.16867 0.0
H1458 H 0.55562 0.55264 0.35033 0.0
H1459 H 0.51037 0.47696 0.34213 0.0
H1460 H 0.58463 0.40602 0.35404 0.0
H1461 H 0.6314 0.48245 0.3621 0.0
H1462 H 0.58453 0.39055 0.33914 0.0
H1463 H 0.4569 0.37252 0.35754 0.0
H1464 H 0.40382 0.39954 0.36475 0.0
H1465 H 0.33923 0.41431 0.3434 0.0
H1466 H 0.39245 0.38801 0.33605 0.0
H1467 H 0.4205 0.13334 0.32811 0.0
H1468 H 0.46833 0.21402 0.33505 0.0
H1469 H 0.39663 0.27967 0.3212 0.0
H1470 H 0.34771 0.19842 0.31425 0.0
H1471 H 0.39557 0.30007 0.33645 0.0
H1472 H 0.5214 0.31335 0.31817 0.0
H1473 H 0.57368 0.28424 0.31122 0.0
H1474 H 0.64088 0.2761 0.33273 0.0
H1475 H 0.58848 0.30451 0.33982 0.0
C1476 C 0.56225 0.52088 0.35122 0.0
C1477 C 0.59699 0.52346 0.35689 0.0
C1478 C 0.53616 0.47751 0.34655 0.0
C1479 C 0.54344 0.43538 0.34754 0.0
C1480 C 0.57832 0.438 0.35317 0.0
C1481 C 0.60494 0.48166 0.35779 0.0
C1482 C 0.51517 0.38881 0.34266 0.0
C1483 C 0.54316 0.37044 0.33863 0.0
C1484 C 0.46126 0.36323 0.34182 0.0
C1485 C 0.42903 0.37879 0.34624 0.0
C1486 C 0.43164 0.38188 0.35438 0.0
C1487 C 0.40149 0.39701 0.35849 0.0
C1488 C 0.36828 0.40877 0.35453 0.0
C1489 C 0.36503 0.40526 0.34645 0.0
C1490 C 0.39514 0.39021 0.34231 0.0
C1491 C 0.41503 0.16494 0.32647 0.0
C1492 C 0.38023 0.15932 0.3206 0.0
C1493 C 0.44264 0.2112 0.33044 0.0
C1494 C 0.43651 0.25309 0.32859 0.0
C1495 C 0.40203 0.24784 0.32271 0.0
C1496 C 0.37424 0.20143 0.31873 0.0
C1497 C 0.46493 0.30168 0.33299 0.0
C1498 C 0.43697 0.3204 0.33693 0.0
C1499 C 0.51882 0.32737 0.33379 0.0
C1500 C 0.55071 0.31069 0.32953 0.0
C1501 C 0.54707 0.30502 0.32142 0.0
C1502 C 0.57677 0.2887 0.31746 0.0
C1503 C 0.61051 0.27823 0.32153 0.0
C1504 C 0.61471 0.2842 0.32958 0.0
C1505 C 0.58507 0.30048 0.33357 0.0
H1506 H 0.63345 0.26558 0.31845 0.0
H1507 H 0.34497 0.42048 0.35773 0.0
H1508 H 0.1624 0.66389 0.52686 0.0
H1509 H 0.19152 0.61537 0.51912 0.0
H1510 H 0.03546 0.50897 0.51262 0.0
H1511 H 0.00599 0.55631 0.52053 0.0
H1512 H 0.08266 0.4584 0.51566 0.0
H1513 H 0.12041 0.60487 0.50019 0.0
H1514 H 0.15711 0.69684 0.49741 0.0
H1515 H 0.3082 0.72186 0.50159 0.0
H1516 H 0.27232 0.63012 0.50451 0.0
H1517 H 0.14161 0.34717 0.48363 0.0
H1518 H 0.11209 0.39665 0.49108 0.0
H1519 H 0.26337 0.48877 0.50063 0.0
H1520 H 0.29319 0.43949 0.49326 0.0
H1521 H 0.21794 0.54621 0.49578 0.0
H1522 H 0.1773 0.3977 0.51134 0.0
H1523 H 0.1386 0.30505 0.51374 0.0
H1524 H 0.98965 0.28344 0.50876 0.0
H1525 H 0.0276 0.37592 0.50622 0.0
C1526 C 0.13428 0.63008 0.5238 0.0
C1527 C 0.08191 0.61414 0.52428 0.0
C1528 C 0.15099 0.60249 0.51935 0.0
C1529 C 0.11576 0.55893 0.51518 0.0
C1530 C 0.06339 0.54246 0.51577 0.0
C1531 C 0.04662 0.56969 0.52028 0.0
C1532 C 0.13338 0.53059 0.51017 0.0
C1533 C 0.11174 0.47757 0.51124 0.0
C1534 C 0.17186 0.55557 0.50447 0.0
C1535 C 0.19362 0.61069 0.50264 0.0
C1536 C 0.16143 0.63004 0.50057 0.0
C1537 C 0.18209 0.68212 0.49896 0.0
C1538 C 0.23494 0.71519 0.49934 0.0
C1539 C 0.26726 0.69621 0.50131 0.0
C1540 C 0.24679 0.64416 0.50293 0.0
C1541 C 0.1687 0.37817 0.48727 0.0
C1542 C 0.2197 0.38918 0.48788 0.0
C1543 C 0.15172 0.40629 0.49154 0.0
C1544 C 0.1855 0.4461 0.49645 0.0
C1545 C 0.23672 0.45817 0.49689 0.0
C1546 C 0.2536 0.42979 0.49269 0.0
C1547 C 0.16721 0.47432 0.5013 0.0
C1548 C 0.18875 0.52721 0.50019 0.0
C1549 C 0.12829 0.44918 0.50691 0.0
C1550 C 0.10536 0.39365 0.50851 0.0
C1551 C 0.13634 0.37313 0.5107 0.0
C1552 C 0.11454 0.32066 0.51209 0.0
C1553 C 0.06172 0.28836 0.51138 0.0
C1554 C 0.03057 0.3085 0.5093 0.0
C1555 C 0.0522 0.36094 0.50789 0.0
H1556 H 0.04492 0.24774 0.51246 0.0
H1557 H 0.25085 0.75551 0.4981 0.0
H1558 H 0.47294 0.03105 0.69387 0.0
H1559 H 0.55468 0.06468 0.68708 0.0
H1560 H 0.5052 0.13631 0.67019 0.0
H1561 H 0.42285 0.10136 0.67678 0.0
H1562 H 0.55014 0.09452 0.66305 0.0
H1563 H 0.59166 0.20512 0.68507 0.0
H1564 H 0.59588 0.22673 0.69894 0.0
H1565 H 0.68694 0.15659 0.7034 0.0
H1566 H 0.68269 0.13397 0.68956 0.0
H1567 H 0.84223 0.29302 0.65941 0.0
H1568 H 0.76003 0.25981 0.66596 0.0
H1569 H 0.71153 0.10933 0.65676 0.0
H1570 H 0.7932 0.14263 0.64998 0.0
H1571 H 0.71564 0.19298 0.67686 0.0
H1572 H 0.58338 0.04456 0.65405 0.0
H1573 H 0.57908 0.0318 0.63988 0.0
H1574 H 0.66956 0.19424 0.63645 0.0
H1575 H 0.67383 0.20799 0.65059 0.0
C1576 C 0.47953 0.05406 0.68871 0.0
C1577 C 0.44145 0.0636 0.68586 0.0
C1578 C 0.52637 0.07344 0.68486 0.0
C1579 C 0.53641 0.10357 0.67816 0.0
C1580 C 0.49836 0.11309 0.67532 0.0
C1581 C 0.45134 0.09321 0.67912 0.0
C1582 C 0.58631 0.12488 0.67407 0.0
C1583 C 0.58631 0.11602 0.66608 0.0
C1584 C 0.63361 0.15368 0.67798 0.0
C1585 C 0.63644 0.16743 0.68629 0.0
C1586 C 0.61228 0.194 0.68901 0.0
C1587 C 0.61472 0.20647 0.69687 0.0
C1588 C 0.64155 0.19292 0.70205 0.0
C1589 C 0.66611 0.167 0.69938 0.0
C1590 C 0.66374 0.15438 0.69153 0.0
C1591 C 0.81404 0.25287 0.65874 0.0
C1592 C 0.82426 0.22053 0.65413 0.0
C1593 C 0.76707 0.2339 0.66252 0.0
C1594 C 0.72934 0.18216 0.66181 0.0
C1595 C 0.73963 0.1496 0.65728 0.0
C1596 C 0.78644 0.16867 0.65343 0.0
C1597 C 0.67945 0.16243 0.66585 0.0
C1598 C 0.67946 0.17141 0.67384 0.0
C1599 C 0.63216 0.13501 0.6619 0.0
C1600 C 0.62935 0.12721 0.65338 0.0
C1601 C 0.6022 0.07754 0.65027 0.0
C1602 C 0.5998 0.07015 0.64225 0.0
C1603 C 0.62418 0.11217 0.63727 0.0
C1604 C 0.65086 0.16171 0.64031 0.0
C1605 C 0.65333 0.16932 0.64833 0.0
H1606 H 0.62231 0.10636 0.63106 0.0
H1607 H 0.64339 0.20261 0.70813 0.0
H1608 H 0.9663 0.65337 0.11105 0.0
H1609 H 0.96377 0.60471 0.09957 0.0
H1610 H 0.99197 0.50413 0.11392 0.0
H1611 H 0.9996 0.55582 0.12524 0.0
H1612 H 0.04373 0.51989 0.10198 0.0
H1613 H 0.86859 0.47158 0.10562 0.0
H1614 H 0.79438 0.48385 0.10745 0.0
H1615 H 0.82345 0.55922 0.08539 0.0
H1616 H 0.89826 0.548 0.08346 0.0
H1617 H 0.95696 0.31981 0.07332 0.0
H1618 H 0.95433 0.36651 0.0848 0.0
H1619 H 0.9948 0.49925 0.07068 0.0
H1620 H 1.00046 0.45395 0.05928 0.0
H1621 H 0.90579 0.464 0.08235 0.0
H1622 H 0.08457 0.50988 0.07953 0.0
H1623 H 0.15265 0.48797 0.07806 0.0
H1624 H 0.10731 0.40449 0.09949 0.0
H1625 H 0.03834 0.4252 0.10102 0.0
C1626 C 0.97246 0.62117 0.11173 0.0
C1627 C 0.98268 0.60821 0.11907 0.0
C1628 C 0.97021 0.5928 0.10517 0.0
C1629 C 0.97649 0.54978 0.10585 0.0
C1630 C 0.98666 0.53685 0.1132 0.0
C1631 C 0.99023 0.56602 0.11972 0.0
C1632 C 0.97399 0.51913 0.0989 0.0
C1633 C 0.01302 0.50718 0.09777 0.0
C1634 C 0.93434 0.50262 0.0933 0.0
C1635 C 0.88933 0.50937 0.09443 0.0
C1636 C 0.85937 0.49109 0.10118 0.0
C1637 C 0.81717 0.49781 0.10223 0.0
C1638 C 0.80429 0.52242 0.09655 0.0
C1639 C 0.83351 0.54023 0.08979 0.0
C1640 C 0.87579 0.53366 0.08871 0.0
C1641 C 0.96553 0.35903 0.07268 0.0
C1642 C 0.9789 0.3832 0.0654 0.0
C1643 C 0.96366 0.38546 0.07922 0.0
C1644 C 0.97423 0.43619 0.07856 0.0
C1645 C 0.9861 0.45995 0.07128 0.0
C1646 C 0.98902 0.4339 0.06477 0.0
C1647 C 0.97527 0.46528 0.08554 0.0
C1648 C 0.93612 0.47681 0.08662 0.0
C1649 C 0.01397 0.48028 0.0912 0.0
C1650 C 0.05597 0.46862 0.09035 0.0
C1651 C 0.08883 0.48647 0.0839 0.0
C1652 C 0.12763 0.47434 0.08306 0.0
C1653 C 0.13421 0.44473 0.08867 0.0
C1654 C 0.10212 0.42735 0.09514 0.0
C1655 C 0.06319 0.4393 0.096 0.0
H1656 H 0.16426 0.43537 0.08801 0.0
H1657 H 0.7716 0.52758 0.09738 0.0
H1658 H 0.52296 0.91222 0.22855 0.0
H1659 H 0.47101 0.90395 0.24002 0.0
H1660 H 0.59424 0.04521 0.24909 0.0
H1661 H 0.64511 0.055 0.23752 0.0
H1662 H 0.54812 0.95883 0.25995 0.0
H1663 H 0.50354 0.05211 0.24156 0.0
H1664 H 0.47225 0.06361 0.22895 0.0
H1665 H 0.32929 0.92497 0.23252 0.0
H1666 H 0.36011 0.91222 0.24512 0.0
H1667 H 0.4413 0.03224 0.29009 0.0
H1668 H 0.48521 0.02641 0.27854 0.0
H1669 H 0.34029 0.91217 0.26896 0.0
H1670 H 0.29627 0.91989 0.28043 0.0
H1671 H 0.39266 0.97491 0.25813 0.0
H1672 H 0.43098 0.88251 0.27668 0.0
H1673 H 0.46002 0.86611 0.28915 0.0
H1674 H 0.61056 0.99386 0.28524 0.0
H1675 H 0.58223 0.01156 0.2728 0.0
C1676 C 0.53871 0.94167 0.23297 0.0
C1677 C 0.58823 0.98405 0.23217 0.0
C1678 C 0.50918 0.93675 0.23952 0.0
C1679 C 0.52899 0.97387 0.2454 0.0
C1680 C 0.57852 0.01593 0.24465 0.0
C1681 C 0.60762 0.02129 0.23805 0.0
C1682 C 0.49802 0.96969 0.25232 0.0
C1683 C 0.5143 0.96266 0.25959 0.0
C1684 C 0.45303 0.97298 0.25177 0.0
C1685 C 0.43436 0.98088 0.24423 0.0
C1686 C 0.46563 0.02382 0.23963 0.0
C1687 C 0.44794 0.03062 0.23248 0.0
C1688 C 0.39887 0.99496 0.22992 0.0
C1689 C 0.36733 0.95251 0.23451 0.0
C1690 C 0.38488 0.94549 0.24165 0.0
C1691 C 0.41907 0.00564 0.28553 0.0
C1692 C 0.36568 0.97617 0.28612 0.0
C1693 C 0.44409 0.00209 0.27895 0.0
C1694 C 0.41625 0.96808 0.27291 0.0
C1695 C 0.36268 0.93853 0.27354 0.0
C1696 C 0.33758 0.94271 0.28008 0.0
C1697 C 0.44304 0.96476 0.26587 0.0
C1698 C 0.42606 0.97039 0.25855 0.0
C1699 C 0.48697 0.9593 0.26637 0.0
C1700 C 0.50434 0.94859 0.27383 0.0
C1701 C 0.4702 0.90733 0.2785 0.0
C1702 C 0.48654 0.89777 0.28557 0.0
C1703 C 0.53708 0.92898 0.288 0.0
C1704 C 0.57141 0.96974 0.28336 0.0
C1705 C 0.55525 0.97952 0.27629 0.0
H1706 H 0.54966 0.92152 0.29347 0.0
H1707 H 0.38524 1.00029 0.22439 0.0
H1708 H 0.40089 0.45225 0.45591 0.0
H1709 H 0.44707 0.49436 0.44396 0.0
H1710 H 0.41862 0.34886 0.43502 0.0
H1711 H 0.37171 0.3066 0.44695 0.0
H1712 H 0.52269 0.43495 0.43272 0.0
H1713 H 0.34661 0.38698 0.42865 0.0
H1714 H 0.26527 0.38248 0.43216 0.0
H1715 H 0.3391 0.54657 0.43185 0.0
H1716 H 0.42119 0.55208 0.42849 0.0
H1717 H 0.59662 0.52699 0.39404 0.0
H1718 H 0.54971 0.47494 0.4053 0.0
H1719 H 0.53596 0.60111 0.41428 0.0
H1720 H 0.57997 0.65177 0.40286 0.0
H1721 H 0.4501 0.51781 0.41622 0.0
H1722 H 0.6259 0.56845 0.42127 0.0
H1723 H 0.70987 0.57662 0.41852 0.0
H1724 H 0.64033 0.41297 0.4176 0.0
H1725 H 0.55578 0.40384 0.42024 0.0
C1726 C 0.40514 0.42955 0.45141 0.0
C1727 C 0.38317 0.37646 0.45229 0.0
C1728 C 0.43128 0.45346 0.44461 0.0
C1729 C 0.43603 0.42462 0.43861 0.0
C1730 C 0.41545 0.37172 0.43959 0.0
C1731 C 0.38871 0.34769 0.44637 0.0
C1732 C 0.46041 0.44958 0.43119 0.0
C1733 C 0.50656 0.45244 0.42903 0.0
C1734 C 0.43969 0.47318 0.42649 0.0
C1735 C 0.39017 0.46995 0.42839 0.0
C1736 C 0.34562 0.42213 0.42939 0.0
C1737 C 0.29935 0.41939 0.43135 0.0
C1738 C 0.29703 0.46422 0.43224 0.0
C1739 C 0.34096 0.51188 0.43116 0.0
C1740 C 0.38737 0.51483 0.42923 0.0
C1741 C 0.58316 0.5433 0.3984 0.0
C1742 C 0.59254 0.59362 0.39764 0.0
C1743 C 0.55681 0.51377 0.40487 0.0
C1744 C 0.54 0.53435 0.41073 0.0
C1745 C 0.54869 0.58437 0.40988 0.0
C1746 C 0.57443 0.61355 0.40339 0.0
C1747 C 0.51321 0.50417 0.41776 0.0
C1748 C 0.46634 0.50015 0.41985 0.0
C1749 C 0.53367 0.48009 0.42244 0.0
C1750 C 0.58445 0.48548 0.42087 0.0
C1751 C 0.62846 0.53422 0.42042 0.0
C1752 C 0.67616 0.53902 0.41889 0.0
C1753 C 0.68041 0.49535 0.41786 0.0
C1754 C 0.63697 0.44677 0.41838 0.0
C1755 C 0.58915 0.44175 0.4199 0.0
H1756 H 0.71737 0.49915 0.41668 0.0
H1757 H 0.26118 0.46202 0.43375 0.0
H1758 H 0.90671 0.56526 0.56695 0.0
H1759 H 0.91085 0.5208 0.57856 0.0
H1760 H 0.07527 0.59686 0.57647 0.0
H1761 H 0.07092 0.641 0.56476 0.0
H1762 H 0.03697 0.49808 0.58004 0.0
H1763 H 0.01892 0.63598 0.5899 0.0
H1764 H 0.98065 0.69128 0.59107 0.0
H1765 H 0.83906 0.56273 0.59864 0.0
H1766 H 0.87622 0.50647 0.59741 0.0
H1767 H 0.07261 0.43229 0.6186 0.0
H1768 H 0.07554 0.48257 0.60718 0.0
H1769 H 0.91061 0.39888 0.60608 0.0
H1770 H 0.90781 0.34842 0.61744 0.0
H1771 H 0.95411 0.50604 0.60445 0.0
H1772 H 0.97292 0.36819 0.59394 0.0
H1773 H 0.01271 0.31427 0.59283 0.0
H1774 H 0.15601 0.44615 0.5867 0.0
H1775 H 0.11721 0.50101 0.58789 0.0
C1776 C 0.94368 0.57257 0.56901 0.0
C1777 C 0.98858 0.60696 0.56507 0.0
C1778 C 0.94607 0.54729 0.57564 0.0
C1779 C 0.99347 0.55621 0.57848 0.0
C1780 C 0.03832 0.58961 0.57441 0.0
C1781 C 0.03587 0.61481 0.56775 0.0
C1782 C 0.99592 0.53046 0.58568 0.0
C1783 C 0.01959 0.50054 0.58541 0.0
C1784 C 0.97262 0.53305 0.59267 0.0
C1785 C 0.95025 0.56689 0.5935 0.0
C1786 C 0.9795 0.61941 0.59176 0.0
C1787 C 0.95803 0.65095 0.59244 0.0
C1788 C 0.90743 0.6305 0.59491 0.0
C1789 C 0.87824 0.5785 0.59673 0.0
C1790 C 0.89951 0.54678 0.59604 0.0
C1791 C 0.03715 0.42481 0.61589 0.0
C1792 C 0.99003 0.38646 0.6188 0.0
C1793 C 0.0388 0.45337 0.60939 0.0
C1794 C 0.99327 0.44422 0.60577 0.0
C1795 C 0.94614 0.40651 0.60879 0.0
C1796 C 0.94454 0.37761 0.61523 0.0
C1797 C 0.99468 0.47342 0.59877 0.0
C1798 C 0.97176 0.50397 0.59909 0.0
C1799 C 0.019 0.47176 0.59185 0.0
C1800 C 0.04231 0.43879 0.59109 0.0
C1801 C 0.01303 0.38577 0.59242 0.0
C1802 C 0.03538 0.35502 0.59176 0.0
C1803 C 0.0869 0.37679 0.58971 0.0
C1804 C 0.11613 0.42935 0.5883 0.0
C1805 C 0.09397 0.46029 0.58896 0.0
H1806 H 0.10414 0.35292 0.58921 0.0
H1807 H 0.89085 0.65495 0.59543 0.0
H1808 H 0.32476 0.92489 0.7361 0.0
H1809 H 0.37422 0.93103 0.74771 0.0
H1810 H 0.49426 0.07968 0.74039 0.0
H1811 H 0.44368 0.07482 0.72892 0.0
H1812 H 0.52401 0.00202 0.74564 0.0
H1813 H 0.4289 0.08504 0.75341 0.0
H1814 H 0.34974 0.08913 0.75486 0.0
H1815 H 0.28539 0.95514 0.76926 0.0
H1816 H 0.3639 0.94975 0.76779 0.0
H1817 H 0.66781 0.06405 0.78033 0.0
H1818 H 0.62273 0.06816 0.76876 0.0
H1819 H 0.47947 0.95149 0.77846 0.0
H1820 H 0.5245 0.94971 0.79018 0.0
H1821 H 0.46274 0.01651 0.77171 0.0
H1822 H 0.54962 0.92765 0.76411 0.0
H1823 H 0.62329 0.91428 0.76249 0.0
H1824 H 0.69646 0.04592 0.74764 0.0
H1825 H 0.62357 0.0606 0.74929 0.0
C1826 C 0.36135 0.9592 0.73702 0.0
C1827 C 0.38011 0.99972 0.73167 0.0
C1828 C 0.38969 0.96245 0.74361 0.0
C1829 C 0.4377 0.00588 0.7449 0.0
C1830 C 0.45726 0.04585 0.73947 0.0
C1831 C 0.42845 0.043 0.73294 0.0
C1832 C 0.46687 0.00962 0.752 0.0
C1833 C 0.51127 0.00605 0.75135 0.0
C1834 C 0.44897 0.01302 0.75943 0.0
C1835 C 0.4021 0.01673 0.76043 0.0
C1836 C 0.39772 0.0562 0.75683 0.0
C1837 C 0.35299 0.05879 0.75767 0.0
C1838 C 0.31251 0.02234 0.76214 0.0
C1839 C 0.31675 0.98332 0.7658 0.0
C1840 C 0.36137 0.9805 0.76497 0.0
C1841 C 0.62664 0.03977 0.77997 0.0
C1842 C 0.59936 0.00667 0.78608 0.0
C1843 C 0.60092 0.04175 0.77336 0.0
C1844 C 0.54768 0.00939 0.77264 0.0
C1845 C 0.52046 0.97685 0.77885 0.0
C1846 C 0.54608 0.97569 0.78553 0.0
C1847 C 0.52037 0.00887 0.76542 0.0
C1848 C 0.47604 0.01285 0.76603 0.0
C1849 C 0.5377 0.00456 0.75796 0.0
C1850 C 0.58136 0.99553 0.75689 0.0
C1851 C 0.58158 0.95396 0.76054 0.0
C1852 C 0.62318 0.94613 0.75962 0.0
C1853 C 0.66458 0.9793 0.75498 0.0
C1854 C 0.66439 0.0203 0.75124 0.0
C1855 C 0.62294 0.02839 0.75217 0.0
H1856 H 0.69676 0.97318 0.75427 0.0
H1857 H 0.2779 0.0244 0.76277 0.0
H1858 H 0.65202 0.59019 0.94813 0.0
H1859 H 0.60296 0.54582 0.93655 0.0
H1860 H 0.47488 0.55791 0.94495 0.0
H1861 H 0.52483 0.60479 0.95639 0.0
H1862 H 0.45619 0.45372 0.93882 0.0
H1863 H 0.53335 0.63497 0.93233 0.0
H1864 H 0.60746 0.72225 0.9312 0.0
H1865 H 0.68038 0.66767 0.91558 0.0
H1866 H 0.60698 0.57987 0.9167 0.0
H1867 H 0.30412 0.37092 0.90515 0.0
H1868 H 0.34997 0.41933 0.91672 0.0
H1869 H 0.49404 0.4644 0.90539 0.0
H1870 H 0.44791 0.41806 0.8937 0.0
H1871 H 0.50493 0.54063 0.91325 0.0
H1872 H 0.43918 0.36525 0.91909 0.0
H1873 H 0.3737 0.27395 0.92004 0.0
H1874 H 0.29051 0.30994 0.93667 0.0
H1875 H 0.35517 0.40174 0.93573 0.0
C1876 C 0.61371 0.58414 0.94746 0.0
C1877 C 0.59255 0.6018 0.95309 0.0
C1878 C 0.58561 0.55835 0.94088 0.0
C1879 C 0.53549 0.54886 0.9399 0.0
C1880 C 0.51355 0.5649 0.94563 0.0
C1881 C 0.54203 0.59155 0.95215 0.0
C1882 C 0.50667 0.52341 0.93277 0.0
C1883 C 0.46611 0.47283 0.93324 0.0
C1884 C 0.52133 0.54781 0.92547 0.0
C1885 C 0.56488 0.60079 0.92466 0.0
C1886 C 0.56534 0.64152 0.9287 0.0
C1887 C 0.6072 0.69109 0.92805 0.0
C1888 C 0.64866 0.70048 0.92333 0.0
C1889 C 0.64825 0.66034 0.91923 0.0
C1890 C 0.60651 0.61068 0.91986 0.0
C1891 C 0.34557 0.3917 0.90515 0.0
C1892 C 0.37271 0.39104 0.89859 0.0
C1893 C 0.37178 0.419 0.91176 0.0
C1894 C 0.42559 0.44479 0.91201 0.0
C1895 C 0.45262 0.4449 0.90536 0.0
C1896 C 0.42636 0.41841 0.8987 0.0
C1897 C 0.45362 0.47064 0.91924 0.0
C1898 C 0.49439 0.52131 0.91881 0.0
C1899 C 0.44022 0.44566 0.92654 0.0
C1900 C 0.40176 0.39044 0.92728 0.0
C1901 C 0.40679 0.35375 0.92292 0.0
C1902 C 0.36983 0.30193 0.92346 0.0
C1903 C 0.32792 0.28619 0.9284 0.0
C1904 C 0.32299 0.32224 0.93284 0.0
C1905 C 0.3598 0.37419 0.93231 0.0
H1906 H 0.29936 0.24604 0.92878 0.0
H1907 H 0.68106 0.73887 0.92285 0.0
loop_
_geom_bond_atom_site_label_1
_geom_bond_atom_site_label_2
_geom_bond_distance
_geom_bond_site_symmetry_2
_ccdc_geom_bond_type
Co0 O3 1.970 . S
Co0 N17 1.988 . S
Co0 O25 1.967 1_655 S
Co0 O32 1.920 . S
Co1 O4 1.966 1_455 S
Co1 N10 2.022 . S
Co1 N18 1.993 . S
Co1 O26 1.941 . S
C2 O3 1.258 . S
C2 O4 1.263 . S
O3 Co0 1.970 . S
O3 C2 1.258 . S
O4 Co1 1.966 1_655 S
O4 C2 1.263 . S
C5 O6 1.235 . S
C5 O32 1.289 . S
O6 C5 1.235 . S
C7 C9 1.400 . S
C7 N10 1.351 . S
C7 C12 1.501 1_455 S
C8 C9 1.387 . S
C8 N11 1.341 . S
C9 C7 1.400 . S
C9 C8 1.387 . S
N10 Co1 2.022 . S
N10 C7 1.351 . S
N10 N11 1.365 . S
N11 C8 1.341 . S
N11 N10 1.365 . S
N11 H31 0.862 . S
C12 C7 1.501 1_655 S
C12 H13 0.961 . S
C12 H14 0.961 . S
C12 H15 0.960 . S
H13 C12 0.961 . S
H14 C12 0.961 . S
H15 C12 0.960 . S
C16 N17 1.351 . S
C16 C20 1.401 . S
C16 C21 1.499 . S
N17 Co0 1.988 . S
N17 C16 1.351 . S
N17 N18 1.377 1_655 S
N18 Co1 1.993 . S
N18 N17 1.377 1_455 S
N18 C19 1.346 . S
C19 N18 1.346 . S
C19 C20 1.396 1_455 S
C19 C29 1.510 . S
C20 C16 1.401 . S
C20 C19 1.396 1_655 S
C21 C16 1.499 . S
C21 H22 0.959 . S
C21 H23 0.960 . S
C21 H24 0.961 1_655 S
H22 C21 0.959 . S
H23 C21 0.960 . S
H24 C21 0.961 1_455 S
O25 Co0 1.967 1_455 S
O25 C33 1.258 . S
O26 Co1 1.941 . S
O26 C33 1.266 . S
H27 C29 0.959 . S
H28 C29 0.961 1_655 S
C29 C19 1.510 . S
C29 H27 0.959 . S
C29 H28 0.961 1_455 S
C29 H30 0.960 . S
H30 C29 0.960 . S
H31 N11 0.862 . S
O32 Co0 1.920 . S
O32 C5 1.289 . S
C33 O25 1.258 . S
C33 O26 1.266 . S
Co34 O37 1.970 1_545 S
Co34 N51 1.989 . S
Co34 O59 1.967 . S
Co34 O66 1.920 1_545 S
Co35 O38 1.966 . S
Co35 N44 2.022 . S
Co35 N52 1.993 . S
Co35 O60 1.941 . S
C36 O37 1.258 . S
C36 O38 1.263 1_565 S
O37 Co34 1.970 1_565 S
O37 C36 1.258 . S
O38 Co35 1.966 . S
O38 C36 1.263 1_545 S
C39 O40 1.235 . S
C39 O66 1.289 . S
O40 C39 1.235 . S
C41 C43 1.400 . S
C41 N44 1.351 . S
C41 C46 1.501 1_545 S
C42 C43 1.387 . S
C42 N45 1.341 . S
C43 C41 1.400 . S
C43 C42 1.387 . S
N44 Co35 2.022 . S
N44 C41 1.351 . S
N44 N45 1.365 . S
N45 C42 1.341 . S
N45 N44 1.365 . S
N45 H65 0.862 . S
C46 C41 1.501 1_565 S
C46 H47 0.961 . S
C46 H48 0.961 . S
C46 H49 0.960 . S
H47 C46 0.961 . S
H48 C46 0.961 . S
H49 C46 0.960 . S
C50 N51 1.337 . S
C50 C54 1.401 . S
C50 C55 1.504 1_545 S
N51 Co34 1.989 . S
N51 C50 1.337 . S
N51 N52 1.388 . S
N52 Co35 1.993 . S
N52 N51 1.388 . S
N52 C53 1.346 . S
C53 N52 1.346 . S
C53 C54 1.396 . S
C53 C63 1.510 . S
C54 C50 1.401 . S
C54 C53 1.396 . S
C55 C50 1.504 1_565 S
C55 H56 0.959 . S
C55 H57 0.960 . S
C55 H58 0.961 1_565 S
H56 C55 0.959 . S
H57 C55 0.960 . S
H58 C55 0.961 1_545 S
O59 Co34 1.967 . S
O59 C67 1.258 . S
O60 Co35 1.941 . S
O60 C67 1.266 . S
H61 C63 0.959 . S
H62 C63 0.961 1_565 S
C63 C53 1.510 . S
C63 H61 0.959 . S
C63 H62 0.961 1_545 S
C63 H64 0.960 . S
H64 C63 0.960 . S
H65 N45 0.862 . S
O66 Co34 1.920 1_565 S
O66 C39 1.289 . S
C67 O59 1.258 . S
C67 O60 1.266 . S
Co68 O71 1.970 . S
Co68 N85 1.989 . S
Co68 O93 1.967 . S
Co68 O100 1.920 . S
Co69 O72 1.966 . S
Co69 N78 2.022 . S
Co69 N86 1.993 . S
Co69 O94 1.941 . S
C70 O71 1.258 . S
C70 O72 1.263 . S
O71 Co68 1.970 . S
O71 C70 1.258 . S
O72 Co69 1.966 . S
O72 C70 1.263 . S
C73 O74 1.235 . S
C73 O100 1.289 . S
O74 C73 1.235 . S
C75 C77 1.400 . S
C75 N78 1.351 . S
C75 C80 1.501 . S
C76 C77 1.387 . S
C76 N79 1.341 . S
C77 C75 1.400 . S
C77 C76 1.387 . S
N78 Co69 2.022 . S
N78 C75 1.351 . S
N78 N79 1.365 . S
N79 C76 1.341 . S
N79 N78 1.365 . S
N79 H99 0.862 . S
C80 C75 1.501 . S
C80 H81 0.961 . S
C80 H82 0.961 . S
C80 H83 0.960 . S
H81 C80 0.961 . S
H82 C80 0.961 . S
H83 C80 0.960 . S
C84 N85 1.342 . S
C84 C88 1.401 . S
C84 C89 1.499 . S
N85 Co68 1.989 . S
N85 C84 1.342 . S
N85 N86 1.388 . S
N86 Co69 1.993 . S
N86 N85 1.388 . S
N86 C87 1.346 . S
C87 N86 1.346 . S
C87 C88 1.396 . S
C87 C97 1.510 . S
C88 C84 1.401 . S
C88 C87 1.396 . S
C89 C84 1.499 . S
C89 H90 0.959 . S
C89 H91 0.960 . S
C89 H92 0.961 . S
H90 C89 0.959 . S
H91 C89 0.960 . S
H92 C89 0.961 . S
O93 Co68 1.967 . S
O93 C101 1.258 . S
O94 Co69 1.941 . S
O94 C101 1.266 . S
H95 C97 0.959 . S
H96 C97 0.961 . S
C97 C87 1.510 . S
C97 H95 0.959 . S
C97 H96 0.961 . S
C97 H98 0.960 . S
H98 C97 0.960 . S
H99 N79 0.862 . S
O100 Co68 1.920 . S
O100 C73 1.289 . S
C101 O93 1.258 . S
C101 O94 1.266 . S
Co102 O105 1.970 1_655 S
Co102 N119 1.989 . S
Co102 O127 1.967 . S
Co102 O134 1.920 . S
Co103 O106 1.966 . S
Co103 N112 2.022 . S
Co103 N120 1.993 . S
Co103 O128 1.941 . S
C104 O105 1.258 . S
C104 O106 1.263 1_455 S
O105 Co102 1.970 1_455 S
O105 C104 1.258 . S
O106 Co103 1.966 . S
O106 C104 1.263 1_655 S
C107 O108 1.235 . S
C107 O134 1.289 1_455 S
O108 C107 1.235 . S
C109 C111 1.400 . S
C109 N112 1.351 . S
C109 C114 1.501 . S
C110 C111 1.387 . S
C110 N113 1.341 . S
C111 C109 1.400 . S
C111 C110 1.387 . S
N112 Co103 2.022 . S
N112 C109 1.351 . S
N112 N113 1.365 . S
N113 C110 1.341 . S
N113 N112 1.365 . S
N113 H133 0.862 . S
C114 C109 1.501 . S
C114 H115 0.961 . S
C114 H116 0.961 1_655 S
C114 H117 0.960 . S
H115 C114 0.961 . S
H116 C114 0.961 1_455 S
H117 C114 0.960 . S
C118 N119 1.342 . S
C118 C122 1.401 . S
C118 C123 1.499 . S
N119 Co102 1.989 . S
N119 C118 1.342 . S
N119 N120 1.388 . S
N120 Co103 1.993 . S
N120 N119 1.388 . S
N120 C121 1.346 . S
C121 N120 1.346 . S
C121 C122 1.396 . S
C121 C131 1.510 . S
C122 C118 1.401 . S
C122 C121 1.396 . S
C123 C118 1.499 . S
C123 H124 0.959 . S
C123 H125 0.960 1_655 S
C123 H126 0.961 . S
H124 C123 0.959 . S
H125 C123 0.960 1_455 S
H126 C123 0.961 . S
O127 Co102 1.967 . S
O127 C135 1.258 . S
O128 Co103 1.941 . S
O128 C135 1.266 . S
H129 C131 0.959 . S
H130 C131 0.961 . S
C131 C121 1.510 . S
C131 H129 0.959 . S
C131 H130 0.961 . S
C131 H132 0.960 . S
H132 C131 0.960 . S
H133 N113 0.862 . S
O134 Co102 1.920 . S
O134 C107 1.289 1_655 S
C135 O127 1.258 . S
C135 O128 1.266 . S
Co136 O139 1.970 1_565 S
Co136 N153 1.989 . S
Co136 O161 1.967 . S
Co136 O168 1.920 . S
Co137 O140 1.966 . S
Co137 N146 2.022 . S
Co137 N154 1.993 . S
Co137 O162 1.941 . S
C138 O139 1.258 . S
C138 O140 1.263 1_545 S
O139 Co136 1.970 1_545 S
O139 C138 1.258 . S
O140 Co137 1.966 . S
O140 C138 1.263 1_565 S
C141 O142 1.235 . S
C141 O168 1.289 1_545 S
O142 C141 1.235 . S
C143 C145 1.400 . S
C143 N146 1.351 . S
C143 C148 1.501 . S
C144 C145 1.387 . S
C144 N147 1.341 . S
C145 C143 1.400 . S
C145 C144 1.387 . S
N146 Co137 2.022 . S
N146 C143 1.351 . S
N146 N147 1.365 . S
N147 C144 1.341 . S
N147 N146 1.365 . S
N147 H167 0.862 . S
C148 C143 1.501 . S
C148 H149 0.961 1_565 S
C148 H150 0.961 1_565 S
C148 H151 0.960 . S
H149 C148 0.961 1_545 S
H150 C148 0.961 1_545 S
H151 C148 0.960 . S
C152 N153 1.342 . S
C152 C156 1.401 . S
C152 C157 1.499 1_565 S
N153 Co136 1.989 . S
N153 C152 1.342 . S
N153 N154 1.388 . S
N154 Co137 1.993 . S
N154 N153 1.388 . S
N154 C155 1.346 . S
C155 N154 1.346 . S
C155 C156 1.396 . S
C155 C165 1.510 . S
C156 C152 1.401 . S
C156 C155 1.396 . S
C157 C152 1.499 1_545 S
C157 H158 0.959 . S
C157 H159 0.960 . S
C157 H160 0.961 1_545 S
H158 C157 0.959 . S
H159 C157 0.960 . S
H160 C157 0.961 1_565 S
O161 Co136 1.967 . S
O161 C169 1.258 . S
O162 Co137 1.941 . S
O162 C169 1.266 . S
H163 C165 0.959 . S
H164 C165 0.961 . S
C165 C155 1.510 . S
C165 H163 0.959 . S
C165 H164 0.961 . S
C165 H166 0.960 . S
H166 C165 0.960 . S
H167 N147 0.862 . S
O168 Co136 1.920 . S
O168 C141 1.289 1_565 S
C169 O161 1.258 . S
C169 O162 1.266 . S
Co170 O173 1.970 . S
Co170 N187 1.989 . S
Co170 O195 1.967 . S
Co170 O202 1.920 . S
Co171 O174 1.966 . S
Co171 N180 2.022 . S
Co171 N188 1.993 . S
Co171 O196 1.941 . S
C172 O173 1.258 . S
C172 O174 1.263 . S
O173 Co170 1.970 . S
O173 C172 1.258 . S
O174 Co171 1.966 . S
O174 C172 1.263 . S
C175 O176 1.235 . S
C175 O202 1.289 . S
O176 C175 1.235 . S
C177 C179 1.400 . S
C177 N180 1.351 . S
C177 C182 1.501 . S
C178 C179 1.387 . S
C178 N181 1.341 . S
C179 C177 1.400 . S
C179 C178 1.387 . S
N180 Co171 2.022 . S
N180 C177 1.351 . S
N180 N181 1.365 . S
N181 C178 1.341 . S
N181 N180 1.365 . S
N181 H201 0.862 . S
C182 C177 1.501 . S
C182 H183 0.961 . S
C182 H184 0.961 . S
C182 H185 0.960 . S
H183 C182 0.961 . S
H184 C182 0.961 . S
H185 C182 0.960 . S
C186 N187 1.342 . S
C186 C190 1.401 . S
C186 C191 1.499 . S
N187 Co170 1.989 . S
N187 C186 1.342 . S
N187 N188 1.388 . S
N188 Co171 1.993 . S
N188 N187 1.388 . S
N188 C189 1.346 . S
C189 N188 1.346 . S
C189 C190 1.396 . S
C189 C199 1.510 . S
C190 C186 1.401 . S
C190 C189 1.396 . S
C191 C186 1.499 . S
C191 H192 0.959 . S
C191 H193 0.960 . S
C191 H194 0.961 . S
H192 C191 0.959 . S
H193 C191 0.960 . S
H194 C191 0.961 . S
O195 Co170 1.967 . S
O195 C203 1.258 . S
O196 Co171 1.941 . S
O196 C203 1.266 . S
H197 C199 0.959 . S
H198 C199 0.961 . S
C199 C189 1.510 . S
C199 H197 0.959 . S
C199 H198 0.961 . S
C199 H200 0.960 . S
H200 C199 0.960 . S
H201 N181 0.862 . S
O202 Co170 1.920 . S
O202 C175 1.289 . S
C203 O195 1.258 . S
C203 O196 1.266 . S
Co204 O207 1.970 1_565 S
Co204 N221 1.989 . S
Co204 O229 1.967 . S
Co204 O236 1.920 . S
Co205 O208 1.966 . S
Co205 N214 2.022 . S
Co205 N222 1.993 . S
Co205 O230 1.941 . S
C206 O207 1.258 . S
C206 O208 1.263 1_545 S
O207 Co204 1.970 1_545 S
O207 C206 1.258 . S
O208 Co205 1.966 . S
O208 C206 1.263 1_565 S
C209 O210 1.235 . S
C209 O236 1.289 1_545 S
O210 C209 1.235 . S
C211 C213 1.400 . S
C211 N214 1.351 . S
C211 C216 1.501 . S
C212 C213 1.387 . S
C212 N215 1.341 . S
C213 C211 1.400 . S
C213 C212 1.387 . S
N214 Co205 2.022 . S
N214 C211 1.351 . S
N214 N215 1.365 . S
N215 C212 1.341 . S
N215 N214 1.365 . S
N215 H235 0.862 . S
C216 C211 1.501 . S
C216 H217 0.961 1_565 S
C216 H218 0.961 1_565 S
C216 H219 0.960 . S
H217 C216 0.961 1_545 S
H218 C216 0.961 1_545 S
H219 C216 0.960 . S
C220 N221 1.342 . S
C220 C224 1.401 . S
C220 C225 1.499 1_565 S
N221 Co204 1.989 . S
N221 C220 1.342 . S
N221 N222 1.388 . S
N222 Co205 1.993 . S
N222 N221 1.388 . S
N222 C223 1.346 . S
C223 N222 1.346 . S
C223 C224 1.396 . S
C223 C233 1.510 . S
C224 C220 1.401 . S
C224 C223 1.396 . S
C225 C220 1.499 1_545 S
C225 H226 0.959 . S
C225 H227 0.960 . S
C225 H228 0.961 1_545 S
H226 C225 0.959 . S
H227 C225 0.960 . S
H228 C225 0.961 1_565 S
O229 Co204 1.967 . S
O229 C237 1.258 . S
O230 Co205 1.941 . S
O230 C237 1.266 . S
H231 C233 0.959 . S
H232 C233 0.961 . S
C233 C223 1.510 . S
C233 H231 0.959 . S
C233 H232 0.961 . S
C233 H234 0.960 . S
H234 C233 0.960 . S
H235 N215 0.862 . S
O236 Co204 1.920 . S
O236 C209 1.289 1_565 S
C237 O229 1.258 . S
C237 O230 1.266 . S
Co238 O241 1.970 . S
Co238 N255 1.989 . S
Co238 O263 1.967 . S
Co238 O270 1.920 . S
Co239 O242 1.966 . S
Co239 N248 2.022 . S
Co239 N256 1.993 . S
Co239 O264 1.941 . S
C240 O241 1.258 . S
C240 O242 1.263 . S
O241 Co238 1.970 . S
O241 C240 1.258 . S
O242 Co239 1.966 . S
O242 C240 1.263 . S
C243 O244 1.235 . S
C243 O270 1.289 . S
O244 C243 1.235 . S
C245 C247 1.400 . S
C245 N248 1.351 . S
C245 C250 1.501 . S
C246 C247 1.387 . S
C246 N249 1.341 . S
C247 C245 1.400 . S
C247 C246 1.387 . S
N248 Co239 2.022 . S
N248 C245 1.351 . S
N248 N249 1.365 . S
N249 C246 1.341 . S
N249 N248 1.365 . S
N249 H269 0.862 . S
C250 C245 1.501 . S
C250 H251 0.961 . S
C250 H252 0.961 . S
C250 H253 0.960 . S
H251 C250 0.961 . S
H252 C250 0.961 . S
H253 C250 0.960 . S
C254 N255 1.342 . S
C254 C258 1.401 . S
C254 C259 1.499 . S
N255 Co238 1.989 . S
N255 C254 1.342 . S
N255 N256 1.388 . S
N256 Co239 1.993 . S
N256 N255 1.388 . S
N256 C257 1.346 . S
C257 N256 1.346 . S
C257 C258 1.396 . S
C257 C267 1.510 . S
C258 C254 1.401 . S
C258 C257 1.396 . S
C259 C254 1.499 . S
C259 H260 0.959 . S
C259 H261 0.960 . S
C259 H262 0.961 . S
H260 C259 0.959 . S
H261 C259 0.960 . S
H262 C259 0.961 . S
O263 Co238 1.967 . S
O263 C271 1.258 . S
O264 Co239 1.941 . S
O264 C271 1.266 . S
H265 C267 0.959 . S
H266 C267 0.961 . S
C267 C257 1.510 . S
C267 H265 0.959 . S
C267 H266 0.961 . S
C267 H268 0.960 . S
H268 C267 0.960 . S
H269 N249 0.862 . S
O270 Co238 1.920 . S
O270 C243 1.289 . S
C271 O263 1.258 . S
C271 O264 1.266 . S
Co272 O275 1.970 . S
Co272 N289 1.991 . S
Co272 O297 1.967 1_655 S
Co272 O304 1.920 . S
Co273 O276 1.966 1_455 S
Co273 N282 2.022 . S
Co273 N290 1.993 . S
Co273 O298 1.941 . S
C274 O275 1.258 . S
C274 O276 1.263 . S
O275 Co272 1.970 . S
O275 C274 1.258 . S
O276 Co273 1.966 1_655 S
O276 C274 1.263 . S
C277 O278 1.235 . S
C277 O304 1.289 . S
O278 C277 1.235 . S
C279 C281 1.400 . S
C279 N282 1.351 . S
C279 C284 1.501 1_455 S
C280 C281 1.387 . S
C280 N283 1.341 . S
C281 C279 1.400 . S
C281 C280 1.387 . S
N282 Co273 2.022 . S
N282 C279 1.351 . S
N282 N283 1.365 . S
N283 C280 1.341 . S
N283 N282 1.365 . S
N283 H303 0.862 . S
C284 C279 1.501 1_655 S
C284 H285 0.961 . S
C284 H286 0.961 . S
C284 H287 0.960 . S
H285 C284 0.961 . S
H286 C284 0.961 . S
H287 C284 0.960 . S
C288 N289 1.338 . S
C288 C292 1.401 . S
C288 C293 1.499 . S
N289 Co272 1.991 . S
N289 C288 1.338 . S
N289 N290 1.391 1_655 S
N290 Co273 1.993 . S
N290 N289 1.391 1_455 S
N290 C291 1.346 . S
C291 N290 1.346 . S
C291 C292 1.396 1_455 S
C291 C301 1.510 . S
C292 C288 1.401 . S
C292 C291 1.396 1_655 S
C293 C288 1.499 . S
C293 H294 0.959 . S
C293 H295 0.960 . S
C293 H296 0.961 1_655 S
H294 C293 0.959 . S
H295 C293 0.960 . S
H296 C293 0.961 1_455 S
O297 Co272 1.967 1_455 S
O297 C305 1.258 . S
O298 Co273 1.941 . S
O298 C305 1.266 . S
H299 C301 0.959 . S
H300 C301 0.961 1_655 S
C301 C291 1.510 . S
C301 H299 0.959 . S
C301 H300 0.961 1_455 S
C301 H302 0.960 . S
H302 C301 0.960 . S
H303 N283 0.862 . S
O304 Co272 1.920 . S
O304 C277 1.289 . S
C305 O297 1.258 . S
C305 O298 1.266 . S
Co306 O309 1.970 1_545 S
Co306 N323 1.989 . S
Co306 O331 1.967 . S
Co306 O338 1.920 1_545 S
Co307 O310 1.966 . S
Co307 N316 2.022 . S
Co307 N324 1.993 . S
Co307 O332 1.941 . S
C308 O309 1.258 . S
C308 O310 1.263 1_565 S
O309 Co306 1.970 1_565 S
O309 C308 1.258 . S
O310 Co307 1.966 . S
O310 C308 1.263 1_545 S
C311 O312 1.235 . S
C311 O338 1.289 . S
O312 C311 1.235 . S
C313 C315 1.400 . S
C313 N316 1.351 . S
C313 C318 1.501 1_545 S
C314 C315 1.387 . S
C314 N317 1.341 . S
C315 C313 1.400 . S
C315 C314 1.387 . S
N316 Co307 2.022 . S
N316 C313 1.351 . S
N316 N317 1.365 . S
N317 C314 1.341 . S
N317 N316 1.365 . S
N317 H337 0.862 . S
C318 C313 1.501 1_565 S
C318 H319 0.961 . S
C318 H320 0.961 . S
C318 H321 0.960 . S
H319 C318 0.961 . S
H320 C318 0.961 . S
H321 C318 0.960 . S
C322 N323 1.350 . S
C322 C326 1.405 . S
C322 C327 1.490 1_545 S
N323 Co306 1.989 . S
N323 C322 1.350 . S
N323 N324 1.388 . S
N324 Co307 1.993 . S
N324 N323 1.388 . S
N324 C325 1.346 . S
C325 N324 1.346 . S
C325 C326 1.396 . S
C325 C335 1.510 . S
C326 C322 1.405 . S
C326 C325 1.396 . S
C327 C322 1.490 1_565 S
C327 H328 0.959 . S
C327 H329 0.960 . S
C327 H330 0.961 1_565 S
H328 C327 0.959 . S
H329 C327 0.960 . S
H330 C327 0.961 1_545 S
O331 Co306 1.967 . S
O331 C339 1.258 . S
O332 Co307 1.941 . S
O332 C339 1.266 . S
H333 C335 0.959 . S
H334 C335 0.961 1_565 S
C335 C325 1.510 . S
C335 H333 0.959 . S
C335 H334 0.961 1_545 S
C335 H336 0.960 . S
H336 C335 0.960 . S
H337 N317 0.862 . S
O338 Co306 1.920 1_565 S
O338 C311 1.289 . S
C339 O331 1.258 . S
C339 O332 1.266 . S
Co340 O343 1.970 . S
Co340 N357 1.989 . S
Co340 O365 1.967 . S
Co340 O372 1.920 . S
Co341 O344 1.966 . S
Co341 N350 2.022 . S
Co341 N358 1.993 . S
Co341 O366 1.941 . S
C342 O343 1.258 . S
C342 O344 1.263 . S
O343 Co340 1.970 . S
O343 C342 1.258 . S
O344 Co341 1.966 . S
O344 C342 1.263 . S
C345 O346 1.235 . S
C345 O372 1.289 . S
O346 C345 1.235 . S
C347 C349 1.400 . S
C347 N350 1.351 . S
C347 C352 1.501 . S
C348 C349 1.387 . S
C348 N351 1.341 . S
C349 C347 1.400 . S
C349 C348 1.387 . S
N350 Co341 2.022 . S
N350 C347 1.351 . S
N350 N351 1.365 . S
N351 C348 1.341 . S
N351 N350 1.365 . S
N351 H371 0.862 . S
C352 C347 1.501 . S
C352 H353 0.961 . S
C352 H354 0.961 . S
C352 H355 0.960 . S
H353 C352 0.961 . S
H354 C352 0.961 . S
H355 C352 0.960 . S
C356 N357 1.342 . S
C356 C360 1.401 . S
C356 C361 1.499 . S
N357 Co340 1.989 . S
N357 C356 1.342 . S
N357 N358 1.388 . S
N358 Co341 1.993 . S
N358 N357 1.388 . S
N358 C359 1.346 . S
C359 N358 1.346 . S
C359 C360 1.396 . S
C359 C369 1.510 . S
C360 C356 1.401 . S
C360 C359 1.396 . S
C361 C356 1.499 . S
C361 H362 0.959 . S
C361 H363 0.960 . S
C361 H364 0.961 . S
H362 C361 0.959 . S
H363 C361 0.960 . S
H364 C361 0.961 . S
O365 Co340 1.967 . S
O365 C373 1.258 . S
O366 Co341 1.941 . S
O366 C373 1.266 . S
H367 C369 0.959 . S
H368 C369 0.961 . S
C369 C359 1.510 . S
C369 H367 0.959 . S
C369 H368 0.961 . S
C369 H370 0.960 . S
H370 C369 0.960 . S
H371 N351 0.862 . S
O372 Co340 1.920 . S
O372 C345 1.289 . S
C373 O365 1.258 . S
C373 O366 1.266 . S
Co374 O377 1.970 1_655 S
Co374 N391 1.989 . S
Co374 O399 1.967 . S
Co374 O406 1.920 . S
Co375 O378 1.966 . S
Co375 N384 2.022 . S
Co375 N392 1.993 . S
Co375 O400 1.941 . S
C376 O377 1.258 . S
C376 O378 1.263 1_455 S
O377 Co374 1.970 1_455 S
O377 C376 1.258 . S
O378 Co375 1.966 . S
O378 C376 1.263 1_655 S
C379 O380 1.235 . S
C379 O406 1.289 1_455 S
O380 C379 1.235 . S
C381 C383 1.400 . S
C381 N384 1.351 . S
C381 C386 1.501 . S
C382 C383 1.387 . S
C382 N385 1.341 . S
C383 C381 1.400 . S
C383 C382 1.387 . S
N384 Co375 2.022 . S
N384 C381 1.351 . S
N384 N385 1.365 . S
N385 C382 1.341 . S
N385 N384 1.365 . S
N385 H405 0.862 . S
C386 C381 1.501 . S
C386 H387 0.961 . S
C386 H388 0.961 1_655 S
C386 H389 0.960 . S
H387 C386 0.961 . S
H388 C386 0.961 1_455 S
H389 C386 0.960 . S
C390 N391 1.342 . S
C390 C394 1.401 . S
C390 C395 1.499 . S
N391 Co374 1.989 . S
N391 C390 1.342 . S
N391 N392 1.388 . S
N392 Co375 1.993 . S
N392 N391 1.388 . S
N392 C393 1.346 . S
C393 N392 1.346 . S
C393 C394 1.396 . S
C393 C403 1.510 . S
C394 C390 1.401 . S
C394 C393 1.396 . S
C395 C390 1.499 . S
C395 H396 0.959 . S
C395 H397 0.960 1_655 S
C395 H398 0.961 . S
H396 C395 0.959 . S
H397 C395 0.960 1_455 S
H398 C395 0.961 . S
O399 Co374 1.967 . S
O399 C407 1.258 . S
O400 Co375 1.941 . S
O400 C407 1.266 . S
H401 C403 0.959 . S
H402 C403 0.961 . S
C403 C393 1.510 . S
C403 H401 0.959 . S
C403 H402 0.961 . S
C403 H404 0.960 . S
H404 C403 0.960 . S
H405 N385 0.862 . S
O406 Co374 1.920 . S
O406 C379 1.289 1_655 S
C407 O399 1.258 . S
C407 O400 1.266 . S
H408 C426 0.951 . S
H409 C428 0.951 1_554 S
H410 C430 0.950 . S
H411 C431 0.950 . S
H412 C433 0.949 1_545 S
H413 C436 0.950 . S
H414 C437 0.950 . S
H415 C439 0.950 . S
H416 C440 0.950 . S
H417 C441 0.951 . S
H418 C443 0.951 . S
H419 C445 0.950 . S
H420 C446 0.950 . S
H421 C448 0.950 . S
H422 C451 1.066 . S
H423 C452 0.995 1_455 S
H424 C454 0.950 . S
H425 C455 0.950 . S
C426 H408 0.951 . S
C426 C427 1.366 . S
C426 C428 1.388 . S
C427 C426 1.366 . S
C427 C431 1.385 . S
C428 H409 0.951 1_556 S
C428 C426 1.388 . S
C428 C429 1.366 . S
C429 C428 1.366 . S
C429 C430 1.414 . S
C429 C432 1.499 1_556 S
C430 H410 0.950 . S
C430 C429 1.414 . S
C430 C431 1.374 . S
C431 H411 0.950 . S
C431 C427 1.385 . S
C431 C430 1.374 . S
C432 C429 1.499 1_554 S
C432 C433 1.386 1_554 S
C432 C434 1.389 . S
C433 H412 0.949 1_565 S
C433 C432 1.386 1_556 S
C433 C449 1.365 1_566 S
C434 C432 1.389 . S
C434 C435 1.524 . S
C434 C448 1.377 . S
C435 C434 1.524 . S
C435 C436 1.397 . S
C435 C440 1.363 . S
C436 H413 0.950 . S
C436 C435 1.397 . S
C436 C437 1.334 . S
C437 H414 0.950 . S
C437 C436 1.334 . S
C437 C438 1.287 . S
C438 C437 1.287 . S
C438 C439 1.524 . S
C438 H457 0.913 . S
C439 H415 0.950 . S
C439 C438 1.524 . S
C439 C440 1.415 . S
C440 H416 0.950 . S
C440 C435 1.363 . S
C440 C439 1.415 . S
C441 H417 0.951 . S
C441 C442 1.366 . S
C441 C443 1.388 . S
C442 C441 1.366 . S
C442 C446 1.385 . S
C443 H418 0.951 . S
C443 C441 1.388 . S
C443 C444 1.366 . S
C444 C443 1.366 . S
C444 C445 1.414 . S
C444 C447 1.499 . S
C445 H419 0.950 . S
C445 C444 1.414 . S
C445 C446 1.374 . S
C446 H420 0.950 . S
C446 C442 1.385 . S
C446 C445 1.374 . S
C447 C444 1.499 . S
C447 C448 1.373 1_545 S
C447 C449 1.389 . S
C448 H421 0.950 . S
C448 C434 1.377 . S
C448 C447 1.373 1_565 S
C449 C433 1.365 1_544 S
C449 C447 1.389 . S
C449 C450 1.524 1_554 S
C450 C449 1.524 1_556 S
C450 C451 1.362 1_556 S
C450 C455 1.363 . S
C451 H422 1.066 . S
C451 C450 1.362 1_554 S
C451 C452 1.273 1_554 S
C452 H423 0.995 1_655 S
C452 C451 1.273 1_556 S
C452 C453 1.287 . S
C453 C452 1.287 . S
C453 C454 1.524 . S
C453 H456 0.995 1_655 S
C454 H424 0.950 . S
C454 C453 1.524 . S
C454 C455 1.415 . S
C455 H425 0.950 . S
C455 C450 1.363 . S
C455 C454 1.415 . S
H456 C453 0.995 1_455 S
H457 C438 0.913 . S
H458 C476 0.951 . S
H459 C478 0.951 . S
H460 C480 0.950 . S
H461 C481 0.971 . S
H462 C483 0.950 . S
H463 C486 0.950 . S
H464 C487 0.950 . S
H465 C489 0.950 . S
H466 C490 0.950 . S
H467 C491 0.951 1_545 S
H468 C493 0.951 . S
H469 C495 0.950 . S
H470 C496 0.950 . S
H471 C498 0.950 . S
H472 C501 0.950 . S
H473 C502 0.950 . S
H474 C504 0.950 1_455 S
H475 C505 0.950 . S
C476 H458 0.951 . S
C476 C477 1.366 . S
C476 C478 1.388 . S
C477 C476 1.366 . S
C477 C481 1.385 . S
C478 H459 0.951 . S
C478 C476 1.388 . S
C478 C479 1.366 . S
C479 C478 1.366 . S
C479 C480 1.414 . S
C479 C482 1.499 . S
C480 H460 0.950 . S
C480 C479 1.414 . S
C480 C481 1.374 . S
C481 H461 0.971 . S
C481 C477 1.385 . S
C481 C480 1.374 . S
C482 C479 1.499 . S
C482 C483 1.373 . S
C482 C484 1.389 . S
C483 H462 0.950 . S
C483 C482 1.373 . S
C483 C499 1.377 . S
C484 C482 1.389 . S
C484 C485 1.524 . S
C484 C498 1.377 . S
C485 C484 1.524 . S
C485 C486 1.397 . S
C485 C490 1.363 . S
C486 H463 0.950 . S
C486 C485 1.397 . S
C486 C487 1.334 . S
C487 H464 0.950 . S
C487 C486 1.334 . S
C487 C488 1.287 . S
C488 C487 1.287 . S
C488 C489 1.524 . S
C488 H507 0.913 . S
C489 H465 0.950 . S
C489 C488 1.524 . S
C489 C490 1.415 . S
C490 H466 0.950 . S
C490 C485 1.363 . S
C490 C489 1.415 . S
C491 H467 0.951 1_565 S
C491 C492 1.366 . S
C491 C493 1.388 . S
C492 C491 1.366 . S
C492 C496 1.385 . S
C493 H468 0.951 . S
C493 C491 1.388 . S
C493 C494 1.366 . S
C494 C493 1.366 . S
C494 C495 1.414 . S
C494 C497 1.499 . S
C495 H469 0.950 . S
C495 C494 1.414 . S
C495 C496 1.374 . S
C496 H470 0.950 . S
C496 C492 1.385 . S
C496 C495 1.374 . S
C497 C494 1.499 . S
C497 C498 1.373 . S
C497 C499 1.389 . S
C498 H471 0.950 . S
C498 C484 1.377 . S
C498 C497 1.373 . S
C499 C483 1.377 . S
C499 C497 1.389 . S
C499 C500 1.524 . S
C500 C499 1.524 . S
C500 C501 1.397 . S
C500 C505 1.363 . S
C501 H472 0.950 . S
C501 C500 1.397 . S
C501 C502 1.334 . S
C502 H473 0.950 . S
C502 C501 1.334 . S
C502 C503 1.287 . S
C503 C502 1.287 . S
C503 C504 1.524 . S
C503 H506 0.999 . S
C504 H474 0.950 1_655 S
C504 C503 1.524 . S
C504 C505 1.415 . S
C505 H475 0.950 . S
C505 C500 1.363 . S
C505 C504 1.415 . S
H506 C503 0.999 . S
H507 C488 0.913 . S
H508 C526 0.951 . S
H509 C528 0.951 . S
H510 C530 0.950 . S
H511 C531 0.950 . S
H512 C533 0.950 . S
H513 C536 0.950 . S
H514 C537 0.950 . S
H515 C539 0.950 . S
H516 C540 0.950 . S
H517 C541 0.951 . S
H518 C543 0.951 . S
H519 C545 0.950 . S
H520 C546 0.950 . S
H521 C548 0.950 . S
H522 C551 0.950 1_455 S
H523 C552 0.950 1_455 S
H524 C554 0.950 . S
H525 C555 0.950 . S
C526 H508 0.951 . S
C526 C527 1.366 . S
C526 C528 1.388 . S
C527 C526 1.366 . S
C527 C531 1.385 . S
C528 H509 0.951 . S
C528 C526 1.388 . S
C528 C529 1.366 . S
C529 C528 1.366 . S
C529 C530 1.414 . S
C529 C532 1.499 . S
C530 H510 0.950 . S
C530 C529 1.414 . S
C530 C531 1.374 . S
C531 H511 0.950 . S
C531 C527 1.385 . S
C531 C530 1.374 . S
C532 C529 1.499 . S
C532 C533 1.373 . S
C532 C534 1.389 . S
C533 H512 0.950 . S
C533 C532 1.373 . S
C533 C549 1.377 . S
C534 C532 1.389 . S
C534 C535 1.524 1_655 S
C534 C548 1.377 1_655 S
C535 C534 1.524 1_455 S
C535 C536 1.397 1_455 S
C535 C540 1.363 . S
C536 H513 0.950 . S
C536 C535 1.397 1_655 S
C536 C537 1.334 . S
C537 H514 0.950 . S
C537 C536 1.334 . S
C537 C538 1.287 1_655 S
C538 C537 1.287 1_455 S
C538 C539 1.524 . S
C538 H557 0.913 . S
C539 H515 0.950 . S
C539 C538 1.524 . S
C539 C540 1.415 . S
C540 H516 0.950 . S
C540 C535 1.363 . S
C540 C539 1.415 . S
C541 H517 0.951 . S
C541 C542 1.366 . S
C541 C543 1.388 . S
C542 C541 1.366 . S
C542 C546 1.385 . S
C543 H518 0.951 . S
C543 C541 1.388 . S
C543 C544 1.366 . S
C544 C543 1.366 . S
C544 C545 1.414 . S
C544 C547 1.499 . S
C545 H519 0.950 . S
C545 C544 1.414 . S
C545 C546 1.374 . S
C546 H520 0.950 . S
C546 C542 1.385 . S
C546 C545 1.374 . S
C547 C544 1.499 . S
C547 C548 1.373 . S
C547 C549 1.389 1_455 S
C548 H521 0.950 . S
C548 C534 1.377 1_455 S
C548 C547 1.373 . S
C549 C533 1.377 . S
C549 C547 1.389 1_655 S
C549 C550 1.524 . S
C550 C549 1.524 . S
C550 C551 1.397 . S
C550 C555 1.363 . S
C551 H522 0.950 1_655 S
C551 C550 1.397 . S
C551 C552 1.334 . S
C552 H523 0.950 1_655 S
C552 C551 1.334 . S
C552 C553 1.287 . S
C553 C552 1.287 . S
C553 C554 1.524 . S
C553 H556 0.999 . S
C554 H524 0.950 . S
C554 C553 1.524 . S
C554 C555 1.415 . S
C555 H525 0.950 . S
C555 C550 1.363 . S
C555 C554 1.415 . S
H556 C553 0.999 . S
H557 C538 0.913 . S
H558 C576 0.951 . S
H559 C578 0.951 . S
H560 C580 0.950 . S
H561 C581 0.950 . S
H562 C583 0.950 . S
H563 C586 0.950 . S
H564 C587 0.950 . S
H565 C589 0.950 1_655 S
H566 C590 0.950 . S
H567 C591 0.951 . S
H568 C593 0.951 . S
H569 C595 0.950 . S
H570 C596 0.950 1_655 S
H571 C598 0.950 . S
H572 C601 0.950 . S
H573 C602 0.950 . S
H574 C604 0.950 . S
H575 C605 0.950 . S
C576 H558 0.951 . S
C576 C577 1.366 . S
C576 C578 1.388 . S
C577 C576 1.366 . S
C577 C581 1.385 . S
C578 H559 0.951 . S
C578 C576 1.388 . S
C578 C579 1.366 . S
C579 C578 1.366 . S
C579 C580 1.414 . S
C579 C582 1.499 . S
C580 H560 0.950 . S
C580 C579 1.414 . S
C580 C581 1.374 . S
C581 H561 0.950 . S
C581 C577 1.385 . S
C581 C580 1.374 . S
C582 C579 1.499 . S
C582 C583 1.373 . S
C582 C584 1.389 . S
C583 H562 0.950 . S
C583 C582 1.373 . S
C583 C599 1.377 1_545 S
C584 C582 1.389 . S
C584 C585 1.524 . S
C584 C598 1.377 1_545 S
C585 C584 1.524 . S
C585 C586 1.397 . S
C585 C590 1.363 . S
C586 H563 0.950 . S
C586 C585 1.397 . S
C586 C587 1.334 . S
C587 H564 0.950 . S
C587 C586 1.334 . S
C587 C588 1.287 . S
C588 C587 1.287 . S
C588 C589 1.524 . S
C588 H607 0.913 . S
C589 H565 0.950 1_455 S
C589 C588 1.524 . S
C589 C590 1.415 . S
C590 H566 0.950 . S
C590 C585 1.363 . S
C590 C589 1.415 . S
C591 H567 0.951 . S
C591 C592 1.366 . S
C591 C593 1.388 . S
C592 C591 1.366 . S
C592 C596 1.385 . S
C593 H568 0.951 . S
C593 C591 1.388 . S
C593 C594 1.366 . S
C594 C593 1.366 . S
C594 C595 1.414 . S
C594 C597 1.499 . S
C595 H569 0.950 . S
C595 C594 1.414 . S
C595 C596 1.374 . S
C596 H570 0.950 1_455 S
C596 C592 1.385 . S
C596 C595 1.374 . S
C597 C594 1.499 . S
C597 C598 1.373 . S
C597 C599 1.389 . S
C598 H571 0.950 . S
C598 C584 1.377 1_565 S
C598 C597 1.373 . S
C599 C583 1.377 1_565 S
C599 C597 1.389 . S
C599 C600 1.524 . S
C600 C599 1.524 . S
C600 C601 1.397 . S
C600 C605 1.363 . S
C601 H572 0.950 . S
C601 C600 1.397 . S
C601 C602 1.334 . S
C602 H573 0.950 . S
C602 C601 1.334 . S
C602 C603 1.287 . S
C603 C602 1.287 . S
C603 C604 1.524 . S
C603 H606 0.999 . S
C604 H574 0.950 . S
C604 C603 1.524 . S
C604 C605 1.415 . S
C605 H575 0.950 . S
C605 C600 1.363 . S
C605 C604 1.415 . S
H606 C603 0.999 . S
H607 C588 0.913 . S
H608 C626 0.951 . S
H609 C628 0.951 . S
H610 C630 0.950 . S
H611 C631 0.950 . S
H612 C633 0.950 . S
H613 C636 0.950 . S
H614 C637 0.950 . S
H615 C639 0.950 . S
H616 C640 0.950 . S
H617 C641 0.951 . S
H618 C643 0.951 . S
H619 C645 0.950 . S
H620 C646 0.950 . S
H621 C648 0.950 . S
H622 C651 0.950 . S
H623 C652 0.950 . S
H624 C654 0.950 . S
H625 C655 0.950 . S
C626 H608 0.951 . S
C626 C627 1.366 . S
C626 C628 1.388 . S
C627 C626 1.366 . S
C627 C631 1.385 . S
C628 H609 0.951 . S
C628 C626 1.388 . S
C628 C629 1.366 . S
C629 C628 1.366 . S
C629 C630 1.414 . S
C629 C632 1.499 . S
C630 H610 0.950 . S
C630 C629 1.414 . S
C630 C631 1.374 . S
C631 H611 0.950 . S
C631 C627 1.385 . S
C631 C630 1.374 . S
C632 C629 1.499 . S
C632 C633 1.373 . S
C632 C634 1.389 . S
C633 H612 0.950 . S
C633 C632 1.373 . S
C633 C649 1.377 . S
C634 C632 1.389 . S
C634 C635 1.524 . S
C634 C648 1.377 . S
C635 C634 1.524 . S
C635 C636 1.397 . S
C635 C640 1.363 . S
C636 H613 0.950 . S
C636 C635 1.397 . S
C636 C637 1.334 . S
C637 H614 0.950 . S
C637 C636 1.334 . S
C637 C638 1.287 . S
C638 C637 1.287 . S
C638 C639 1.524 . S
C638 H657 0.913 . S
C639 H615 0.950 . S
C639 C638 1.524 . S
C639 C640 1.415 . S
C640 H616 0.950 . S
C640 C635 1.363 . S
C640 C639 1.415 . S
C641 H617 0.951 . S
C641 C642 1.366 . S
C641 C643 1.388 . S
C642 C641 1.366 . S
C642 C646 1.385 . S
C643 H618 0.951 . S
C643 C641 1.388 . S
C643 C644 1.366 . S
C644 C643 1.366 . S
C644 C645 1.414 . S
C644 C647 1.499 . S
C645 H619 0.950 . S
C645 C644 1.414 . S
C645 C646 1.374 . S
C646 H620 0.950 . S
C646 C642 1.385 . S
C646 C645 1.374 . S
C647 C644 1.499 . S
C647 C648 1.373 . S
C647 C649 1.389 . S
C648 H621 0.950 . S
C648 C634 1.377 . S
C648 C647 1.373 . S
C649 C633 1.377 . S
C649 C647 1.389 . S
C649 C650 1.524 . S
C650 C649 1.524 . S
C650 C651 1.397 1_455 S
C650 C655 1.363 . S
C651 H622 0.950 . S
C651 C650 1.397 1_655 S
C651 C652 1.334 . S
C652 H623 0.950 . S
C652 C651 1.334 . S
C652 C653 1.287 . S
C653 C652 1.287 . S
C653 C654 1.524 . S
C653 H656 0.999 . S
C654 H624 0.950 . S
C654 C653 1.524 . S
C654 C655 1.415 1_655 S
C655 H625 0.950 . S
C655 C650 1.363 . S
C655 C654 1.415 1_455 S
H656 C653 0.999 . S
H657 C638 0.913 . S
H658 C676 0.951 . S
H659 C678 0.951 . S
H660 C680 0.950 . S
H661 C681 0.950 . S
H662 C683 0.950 . S
H663 C686 0.950 . S
H664 C687 0.950 . S
H665 C689 0.950 . S
H666 C690 0.950 1_545 S
H667 C691 0.951 . S
H668 C693 0.951 . S
H669 C695 0.950 . S
H670 C696 0.950 . S
H671 C698 0.950 . S
H672 C701 0.950 . S
H673 C702 0.950 . S
H674 C704 0.950 . S
H675 C705 0.950 1_655 S
C676 H658 0.951 . S
C676 C677 1.366 . S
C676 C678 1.388 . S
C677 C676 1.366 . S
C677 C681 1.385 . S
C678 H659 0.951 . S
C678 C676 1.388 . S
C678 C679 1.366 . S
C679 C678 1.366 . S
C679 C680 1.414 . S
C679 C682 1.499 . S
C680 H660 0.950 . S
C680 C679 1.414 . S
C680 C681 1.374 . S
C681 H661 0.950 . S
C681 C677 1.385 . S
C681 C680 1.374 . S
C682 C679 1.499 . S
C682 C683 1.373 . S
C682 C684 1.389 . S
C683 H662 0.950 . S
C683 C682 1.373 . S
C683 C699 1.377 1_655 S
C684 C682 1.389 . S
C684 C685 1.524 . S
C684 C698 1.377 1_655 S
C685 C684 1.524 . S
C685 C686 1.397 . S
C685 C690 1.363 1_545 S
C686 H663 0.950 . S
C686 C685 1.397 . S
C686 C687 1.334 1_545 S
C687 H664 0.950 . S
C687 C686 1.334 1_565 S
C687 C688 1.287 . S
C688 C687 1.287 . S
C688 C689 1.524 . S
C688 H707 0.913 . S
C689 H665 0.950 . S
C689 C688 1.524 . S
C689 C690 1.415 . S
C690 H666 0.950 1_565 S
C690 C685 1.363 1_565 S
C690 C689 1.415 . S
C691 H667 0.951 . S
C691 C692 1.366 . S
C691 C693 1.388 . S
C692 C691 1.366 . S
C692 C696 1.385 . S
C693 H668 0.951 . S
C693 C691 1.388 . S
C693 C694 1.366 . S
C694 C693 1.366 . S
C694 C695 1.414 . S
C694 C697 1.499 . S
C695 H669 0.950 . S
C695 C694 1.414 . S
C695 C696 1.374 . S
C696 H670 0.950 . S
C696 C692 1.385 . S
C696 C695 1.374 . S
C697 C694 1.499 . S
C697 C698 1.373 . S
C697 C699 1.389 . S
C698 H671 0.950 . S
C698 C684 1.377 1_455 S
C698 C697 1.373 . S
C699 C683 1.377 1_455 S
C699 C697 1.389 . S
C699 C700 1.524 . S
C700 C699 1.524 . S
C700 C701 1.397 . S
C700 C705 1.363 . S
C701 H672 0.950 . S
C701 C700 1.397 . S
C701 C702 1.334 . S
C702 H673 0.950 . S
C702 C701 1.334 . S
C702 C703 1.287 . S
C703 C702 1.287 . S
C703 C704 1.524 . S
C703 H706 0.999 . S
C704 H674 0.950 . S
C704 C703 1.524 . S
C704 C705 1.415 . S
C705 H675 0.950 1_455 S
C705 C700 1.363 . S
C705 C704 1.415 . S
H706 C703 0.999 . S
H707 C688 0.913 . S
H708 C726 0.951 . S
H709 C728 0.951 . S
H710 C730 0.950 . S
H711 C731 0.950 . S
H712 C733 0.950 . S
H713 C736 0.950 . S
H714 C737 0.950 . S
H715 C739 0.950 . S
H716 C740 0.950 . S
H717 C741 0.951 . S
H718 C743 0.951 1_545 S
H719 C745 0.950 . S
H720 C746 0.950 . S
H721 C748 0.950 . S
H722 C751 0.950 1_565 S
H723 C752 0.950 . S
H724 C754 0.950 . S
H725 C755 0.950 . S
C726 H708 0.951 . S
C726 C727 1.366 . S
C726 C728 1.388 . S
C727 C726 1.366 . S
C727 C731 1.385 . S
C728 H709 0.951 . S
C728 C726 1.388 . S
C728 C729 1.366 . S
C729 C728 1.366 . S
C729 C730 1.414 . S
C729 C732 1.499 . S
C730 H710 0.950 . S
C730 C729 1.414 . S
C730 C731 1.374 . S
C731 H711 0.950 . S
C731 C727 1.385 . S
C731 C730 1.374 . S
C732 C729 1.499 . S
C732 C733 1.373 . S
C732 C734 1.389 1_455 S
C733 H712 0.950 . S
C733 C732 1.373 . S
C733 C749 1.377 . S
C734 C732 1.389 1_655 S
C734 C735 1.524 1_545 S
C734 C748 1.377 1_545 S
C735 C734 1.524 1_565 S
C735 C736 1.397 1_565 S
C735 C740 1.363 . S
C736 H713 0.950 . S
C736 C735 1.397 1_545 S
C736 C737 1.334 . S
C737 H714 0.950 . S
C737 C736 1.334 . S
C737 C738 1.287 1_545 S
C738 C737 1.287 1_565 S
C738 C739 1.524 . S
C738 H757 0.913 . S
C739 H715 0.950 . S
C739 C738 1.524 . S
C739 C740 1.415 . S
C740 H716 0.950 . S
C740 C735 1.363 . S
C740 C739 1.415 . S
C741 H717 0.951 . S
C741 C742 1.366 . S
C741 C743 1.388 . S
C742 C741 1.366 . S
C742 C746 1.385 . S
C743 H718 0.951 1_565 S
C743 C741 1.388 . S
C743 C744 1.366 . S
C744 C743 1.366 . S
C744 C745 1.414 . S
C744 C747 1.499 . S
C745 H719 0.950 . S
C745 C744 1.414 . S
C745 C746 1.374 . S
C746 H720 0.950 . S
C746 C742 1.385 . S
C746 C745 1.374 . S
C747 C744 1.499 . S
C747 C748 1.373 1_455 S
C747 C749 1.389 1_565 S
C748 H721 0.950 . S
C748 C734 1.377 1_565 S
C748 C747 1.373 1_655 S
C749 C733 1.377 . S
C749 C747 1.389 1_545 S
C749 C750 1.524 . S
C750 C749 1.524 . S
C750 C751 1.397 . S
C750 C755 1.363 . S
C751 H722 0.950 1_545 S
C751 C750 1.397 . S
C751 C752 1.334 . S
C752 H723 0.950 . S
C752 C751 1.334 . S
C752 C753 1.287 . S
C753 C752 1.287 . S
C753 C754 1.524 . S
C753 H756 0.999 . S
C754 H724 0.950 . S
C754 C753 1.524 . S
C754 C755 1.415 . S
C755 H725 0.950 . S
C755 C750 1.363 . S
C755 C754 1.415 . S
H756 C753 0.999 . S
H757 C738 0.913 . S
H758 C776 0.951 . S
H759 C778 0.951 . S
H760 C780 0.950 . S
H761 C781 0.950 . S
H762 C783 0.950 . S
H763 C786 0.950 . S
H764 C787 0.950 . S
H765 C789 0.950 1_455 S
H766 C790 0.950 . S
H767 C791 0.951 . S
H768 C793 0.951 . S
H769 C795 0.950 . S
H770 C796 0.950 . S
H771 C798 0.950 1_565 S
H772 C801 0.950 . S
H773 C802 0.950 . S
H774 C804 0.950 . S
H775 C805 0.950 1_655 S
C776 H758 0.951 . S
C776 C777 1.366 . S
C776 C778 1.388 . S
C777 C776 1.366 . S
C777 C781 1.385 . S
C778 H759 0.951 . S
C778 C776 1.388 . S
C778 C779 1.366 . S
C779 C778 1.366 . S
C779 C780 1.414 . S
C779 C782 1.499 . S
C780 H760 0.950 . S
C780 C779 1.414 . S
C780 C781 1.374 . S
C781 H761 0.950 . S
C781 C777 1.385 . S
C781 C780 1.374 . S
C782 C779 1.499 . S
C782 C783 1.373 . S
C782 C784 1.389 . S
C783 H762 0.950 . S
C783 C782 1.373 . S
C783 C799 1.377 1_655 S
C784 C782 1.389 . S
C784 C785 1.524 1_545 S
C784 C798 1.377 1_655 S
C785 C784 1.524 1_565 S
C785 C786 1.397 . S
C785 C790 1.363 1_655 S
C786 H763 0.950 . S
C786 C785 1.397 . S
C786 C787 1.334 . S
C787 H764 0.950 . S
C787 C786 1.334 . S
C787 C788 1.287 . S
C788 C787 1.287 . S
C788 C789 1.524 . S
C788 H807 0.913 . S
C789 H765 0.950 1_655 S
C789 C788 1.524 . S
C789 C790 1.415 1_655 S
C790 H766 0.950 . S
C790 C785 1.363 1_455 S
C790 C789 1.415 1_455 S
C791 H767 0.951 . S
C791 C792 1.366 . S
C791 C793 1.388 . S
C792 C791 1.366 . S
C792 C796 1.385 . S
C793 H768 0.951 . S
C793 C791 1.388 . S
C793 C794 1.366 . S
C794 C793 1.366 . S
C794 C795 1.414 . S
C794 C797 1.499 . S
C795 H769 0.950 . S
C795 C794 1.414 . S
C795 C796 1.374 . S
C796 H770 0.950 . S
C796 C792 1.385 . S
C796 C795 1.374 . S
C797 C794 1.499 . S
C797 C798 1.373 . S
C797 C799 1.389 . S
C798 H771 0.950 1_545 S
C798 C784 1.377 1_455 S
C798 C797 1.373 . S
C799 C783 1.377 1_455 S
C799 C797 1.389 . S
C799 C800 1.524 . S
C800 C799 1.524 . S
C800 C801 1.397 . S
C800 C805 1.363 . S
C801 H772 0.950 . S
C801 C800 1.397 . S
C801 C802 1.334 . S
C802 H773 0.950 . S
C802 C801 1.334 . S
C802 C803 1.287 . S
C803 C802 1.287 . S
C803 C804 1.524 . S
C803 H806 0.999 . S
C804 H774 0.950 . S
C804 C803 1.524 . S
C804 C805 1.415 . S
C805 H775 0.950 1_455 S
C805 C800 1.363 . S
C805 C804 1.415 . S
H806 C803 0.999 . S
H807 C788 0.913 . S
H808 C826 0.951 . S
H809 C828 0.951 . S
H810 C830 0.950 1_655 S
H811 C831 0.950 . S
H812 C833 0.950 1_565 S
H813 C836 0.950 . S
H814 C837 0.950 . S
H815 C839 0.950 . S
H816 C840 0.950 . S
H817 C841 0.951 . S
H818 C843 0.951 . S
H819 C845 0.950 . S
H820 C846 0.950 . S
H821 C848 0.950 . S
H822 C851 0.950 . S
H823 C852 0.950 . S
H824 C854 0.950 . S
H825 C855 0.950 . S
C826 H808 0.951 . S
C826 C827 1.366 . S
C826 C828 1.388 . S
C827 C826 1.366 . S
C827 C831 1.385 . S
C828 H809 0.951 . S
C828 C826 1.388 . S
C828 C829 1.366 . S
C829 C828 1.366 . S
C829 C830 1.414 . S
C829 C832 1.499 1_455 S
C830 H810 0.950 1_455 S
C830 C829 1.414 . S
C830 C831 1.374 . S
C831 H811 0.950 . S
C831 C827 1.385 . S
C831 C830 1.374 . S
C832 C829 1.499 1_655 S
C832 C833 1.373 . S
C832 C834 1.389 . S
C833 H812 0.950 1_545 S
C833 C832 1.373 . S
C833 C849 1.377 1_545 S
C834 C832 1.389 . S
C834 C835 1.524 . S
C834 C848 1.377 . S
C835 C834 1.524 . S
C835 C836 1.397 . S
C835 C840 1.363 1_655 S
C836 H813 0.950 . S
C836 C835 1.397 . S
C836 C837 1.334 . S
C837 H814 0.950 . S
C837 C836 1.334 . S
C837 C838 1.287 . S
C838 C837 1.287 . S
C838 C839 1.524 1_655 S
C838 H857 0.913 1_655 S
C839 H815 0.950 . S
C839 C838 1.524 1_455 S
C839 C840 1.415 . S
C840 H816 0.950 . S
C840 C835 1.363 1_455 S
C840 C839 1.415 . S
C841 H817 0.951 . S
C841 C842 1.366 . S
C841 C843 1.388 . S
C842 C841 1.366 . S
C842 C846 1.385 . S
C843 H818 0.951 . S
C843 C841 1.388 . S
C843 C844 1.366 . S
C844 C843 1.366 . S
C844 C845 1.414 . S
C844 C847 1.499 . S
C845 H819 0.950 . S
C845 C844 1.414 . S
C845 C846 1.374 . S
C846 H820 0.950 . S
C846 C842 1.385 . S
C846 C845 1.374 . S
C847 C844 1.499 . S
C847 C848 1.373 1_565 S
C847 C849 1.389 . S
C848 H821 0.950 . S
C848 C834 1.377 . S
C848 C847 1.373 1_545 S
C849 C833 1.377 1_565 S
C849 C847 1.389 . S
C849 C850 1.524 . S
C850 C849 1.524 . S
C850 C851 1.397 . S
C850 C855 1.363 . S
C851 H822 0.950 . S
C851 C850 1.397 . S
C851 C852 1.334 . S
C852 H823 0.950 . S
C852 C851 1.334 . S
C852 C853 1.287 . S
C853 C852 1.287 . S
C853 C854 1.524 . S
C853 H856 0.999 . S
C854 H824 0.950 . S
C854 C853 1.524 . S
C854 C855 1.415 . S
C855 H825 0.950 . S
C855 C850 1.363 . S
C855 C854 1.415 . S
H856 C853 0.999 . S
H857 C838 0.913 1_455 S
H858 C876 0.951 . S
H859 C878 0.951 . S
H860 C880 0.950 1_565 S
H861 C881 0.950 . S
H862 C883 0.950 . S
H863 C886 0.950 . S
H864 C887 0.950 . S
H865 C889 0.950 . S
H866 C890 0.950 . S
H867 C891 0.951 . S
H868 C893 0.951 . S
H869 C895 0.950 . S
H870 C896 0.950 . S
H871 C898 0.950 . S
H872 C901 0.950 . S
H873 C902 0.950 . S
H874 C904 0.950 . S
H875 C905 0.950 . S
C876 H858 0.951 . S
C876 C877 1.366 . S
C876 C878 1.388 . S
C877 C876 1.366 . S
C877 C881 1.385 . S
C878 H859 0.951 . S
C878 C876 1.388 . S
C878 C879 1.366 . S
C879 C878 1.366 . S
C879 C880 1.414 . S
C879 C882 1.499 . S
C880 H860 0.950 1_545 S
C880 C879 1.414 . S
C880 C881 1.374 . S
C881 H861 0.950 . S
C881 C877 1.385 . S
C881 C880 1.374 . S
C882 C879 1.499 . S
C882 C883 1.373 1_545 S
C882 C884 1.389 . S
C883 H862 0.950 . S
C883 C882 1.373 1_565 S
C883 C899 1.377 . S
C884 C882 1.389 . S
C884 C885 1.524 . S
C884 C898 1.377 1_545 S
C885 C884 1.524 . S
C885 C886 1.397 . S
C885 C890 1.363 . S
C886 H863 0.950 . S
C886 C885 1.397 . S
C886 C887 1.334 . S
C887 H864 0.950 . S
C887 C886 1.334 . S
C887 C888 1.287 . S
C888 C887 1.287 . S
C888 C889 1.524 . S
C888 H907 0.913 . S
C889 H865 0.950 . S
C889 C888 1.524 . S
C889 C890 1.415 . S
C890 H866 0.950 . S
C890 C885 1.363 . S
C890 C889 1.415 . S
C891 H867 0.951 . S
C891 C892 1.366 . S
C891 C893 1.388 . S
C892 C891 1.366 . S
C892 C896 1.385 . S
C893 H868 0.951 . S
C893 C891 1.388 . S
C893 C894 1.366 . S
C894 C893 1.366 . S
C894 C895 1.414 . S
C894 C897 1.499 . S
C895 H869 0.950 . S
C895 C894 1.414 . S
C895 C896 1.374 . S
C896 H870 0.950 . S
C896 C892 1.385 . S
C896 C895 1.374 . S
C897 C894 1.499 . S
C897 C898 1.373 . S
C897 C899 1.389 . S
C898 H871 0.950 . S
C898 C884 1.377 1_565 S
C898 C897 1.373 . S
C899 C883 1.377 . S
C899 C897 1.389 . S
C899 C900 1.524 . S
C900 C899 1.524 . S
C900 C901 1.397 1_655 S
C900 C905 1.363 . S
C901 H872 0.950 . S
C901 C900 1.397 1_455 S
C901 C902 1.334 . S
C902 H873 0.950 . S
C902 C901 1.334 . S
C902 C903 1.287 . S
C903 C902 1.287 . S
C903 C904 1.524 1_455 S
C903 H906 0.999 . S
C904 H874 0.950 . S
C904 C903 1.524 1_655 S
C904 C905 1.415 . S
C905 H875 0.950 . S
C905 C900 1.363 . S
C905 C904 1.415 . S
H906 C903 0.999 . S
H907 C888 0.913 . S
H908 C926 0.966 . S
H909 C928 0.945 1_545 S
H910 C930 0.950 . S
H911 C931 0.950 . S
H912 C933 0.950 . S
H913 C936 0.950 . S
H914 C937 0.950 . S
H915 C939 0.950 . S
H916 C940 0.950 . S
H917 C941 0.951 . S
H918 C943 0.951 . S
H919 C945 0.951 . S
H920 C946 0.961 . S
H921 C948 0.950 1_545 S
H922 C951 0.950 . S
H923 C952 0.950 . S
H924 C954 0.950 . S
H925 C955 0.950 . S
C926 H908 0.966 . S
C926 C927 1.366 . S
C926 C928 1.388 . S
C927 C926 1.366 . S
C927 C931 1.385 . S
C928 H909 0.945 1_565 S
C928 C926 1.388 . S
C928 C929 1.366 . S
C929 C928 1.366 . S
C929 C930 1.414 . S
C929 C932 1.499 1_455 S
C930 H910 0.950 . S
C930 C929 1.414 . S
C930 C931 1.374 . S
C931 H911 0.950 . S
C931 C927 1.385 . S
C931 C930 1.374 . S
C932 C929 1.499 1_655 S
C932 C933 1.373 . S
C932 C934 1.389 1_655 S
C933 H912 0.950 . S
C933 C932 1.373 . S
C933 C949 1.377 . S
C934 C932 1.389 1_455 S
C934 C935 1.524 1_565 S
C934 C948 1.377 1_455 S
C935 C934 1.524 1_545 S
C935 C936 1.397 . S
C935 C940 1.363 . S
C936 H913 0.950 . S
C936 C935 1.397 . S
C936 C937 1.334 . S
C937 H914 0.950 . S
C937 C936 1.334 . S
C937 C938 1.287 . S
C938 C937 1.287 . S
C938 C939 1.524 . S
C938 H957 0.913 . S
C939 H915 0.950 . S
C939 C938 1.524 . S
C939 C940 1.415 . S
C940 H916 0.950 . S
C940 C935 1.363 . S
C940 C939 1.415 . S
C941 H917 0.951 . S
C941 C942 1.366 . S
C941 C943 1.388 . S
C942 C941 1.366 . S
C942 C946 1.385 . S
C943 H918 0.951 . S
C943 C941 1.388 . S
C943 C944 1.366 . S
C944 C943 1.366 . S
C944 C945 1.414 . S
C944 C947 1.499 . S
C945 H919 0.951 . S
C945 C944 1.414 . S
C945 C946 1.374 . S
C946 H920 0.961 . S
C946 C942 1.385 . S
C946 C945 1.374 . S
C947 C944 1.499 . S
C947 C948 1.373 . S
C947 C949 1.389 . S
C948 H921 0.950 1_565 S
C948 C934 1.377 1_655 S
C948 C947 1.373 . S
C949 C933 1.377 . S
C949 C947 1.389 . S
C949 C950 1.524 . S
C950 C949 1.524 . S
C950 C951 1.397 . S
C950 C955 1.363 . S
C951 H922 0.950 . S
C951 C950 1.397 . S
C951 C952 1.334 . S
C952 H923 0.950 . S
C952 C951 1.334 . S
C952 C953 1.287 . S
C953 C952 1.287 . S
C953 C954 1.524 . S
C953 H956 0.999 . S
C954 H924 0.950 . S
C954 C953 1.524 . S
C954 C955 1.415 . S
C955 H925 0.950 . S
C955 C950 1.363 . S
C955 C954 1.415 . S
H956 C953 0.999 . S
H957 C938 0.913 . S
H958 C976 0.951 . S
H959 C978 0.951 . S
H960 C980 0.950 . S
H961 C981 0.950 . S
H962 C983 0.957 . S
H963 C986 0.950 . S
H964 C987 0.950 . S
H965 C989 0.950 . S
H966 C990 0.950 . S
H967 C991 0.951 . S
H968 C993 0.951 . S
H969 C995 0.950 . S
H970 C996 0.950 . S
H971 C998 0.950 . S
H972 C1001 0.950 . S
H973 C1002 0.950 . S
H974 C1004 0.950 . S
H975 C1005 0.950 . S
C976 H958 0.951 . S
C976 C977 1.366 . S
C976 C978 1.388 . S
C977 C976 1.366 . S
C977 C981 1.385 . S
C978 H959 0.951 . S
C978 C976 1.388 . S
C978 C979 1.366 . S
C979 C978 1.366 . S
C979 C980 1.414 . S
C979 C982 1.499 . S
C980 H960 0.950 . S
C980 C979 1.414 . S
C980 C981 1.374 . S
C981 H961 0.950 . S
C981 C977 1.385 . S
C981 C980 1.374 . S
C982 C979 1.499 . S
C982 C983 1.373 1_655 S
C982 C984 1.389 . S
C983 H962 0.957 . S
C983 C982 1.373 1_455 S
C983 C999 1.377 1_565 S
C984 C982 1.389 . S
C984 C985 1.524 . S
C984 C998 1.377 1_655 S
C985 C984 1.524 . S
C985 C986 1.397 . S
C985 C990 1.363 . S
C986 H963 0.950 . S
C986 C985 1.397 . S
C986 C987 1.334 . S
C987 H964 0.950 . S
C987 C986 1.334 . S
C987 C988 1.287 . S
C988 C987 1.287 . S
C988 C989 1.524 . S
C988 H1007 0.913 . S
C989 H965 0.950 . S
C989 C988 1.524 . S
C989 C990 1.415 . S
C990 H966 0.950 . S
C990 C985 1.363 . S
C990 C989 1.415 . S
C991 H967 0.951 . S
C991 C992 1.366 . S
C991 C993 1.388 . S
C992 C991 1.366 . S
C992 C996 1.385 . S
C993 H968 0.951 . S
C993 C991 1.388 . S
C993 C994 1.366 . S
C994 C993 1.366 . S
C994 C995 1.414 . S
C994 C997 1.499 . S
C995 H969 0.950 . S
C995 C994 1.414 . S
C995 C996 1.374 . S
C996 H970 0.950 . S
C996 C992 1.385 . S
C996 C995 1.374 . S
C997 C994 1.499 . S
C997 C998 1.373 1_545 S
C997 C999 1.389 . S
C998 H971 0.950 . S
C998 C984 1.377 1_455 S
C998 C997 1.373 1_565 S
C999 C983 1.377 1_545 S
C999 C997 1.389 . S
C999 C1000 1.524 . S
C1000 C999 1.524 . S
C1000 C1001 1.397 . S
C1000 C1005 1.363 . S
C1001 H972 0.950 . S
C1001 C1000 1.397 . S
C1001 C1002 1.334 . S
C1002 H973 0.950 . S
C1002 C1001 1.334 . S
C1002 C1003 1.287 . S
C1003 C1002 1.287 . S
C1003 C1004 1.524 . S
C1003 H1006 0.999 . S
C1004 H974 0.950 . S
C1004 C1003 1.524 . S
C1004 C1005 1.415 . S
C1005 H975 0.950 . S
C1005 C1000 1.363 . S
C1005 C1004 1.415 . S
H1006 C1003 0.999 . S
H1007 C988 0.913 . S
H1008 C1026 0.902 1_554 S
H1009 C1028 0.951 . S
H1010 C1030 0.950 . S
H1011 C1031 0.950 . S
H1012 C1033 0.950 1_556 S
H1013 C1036 0.950 . S
H1014 C1037 0.950 . S
H1015 C1039 0.950 . S
H1016 C1040 0.950 . S
H1017 C1041 0.951 . S
H1018 C1043 0.951 . S
H1019 C1045 0.950 . S
H1020 C1046 0.950 . S
H1021 C1048 0.950 . S
H1022 C1051 0.950 . S
H1023 C1052 0.950 . S
H1024 C1054 0.950 . S
H1025 C1055 0.950 . S
C1026 H1008 0.902 1_556 S
C1026 C1027 1.490 . S
C1026 C1028 1.323 1_556 S
C1027 C1026 1.490 . S
C1027 C1031 1.385 . S
C1028 H1009 0.951 . S
C1028 C1026 1.323 1_554 S
C1028 C1029 1.373 . S
C1029 C1028 1.373 . S
C1029 C1030 1.398 1_554 S
C1029 C1032 1.507 . S
C1030 H1010 0.950 . S
C1030 C1029 1.398 1_556 S
C1030 C1031 1.374 . S
C1031 H1011 0.950 . S
C1031 C1027 1.385 . S
C1031 C1030 1.374 . S
C1032 C1029 1.507 . S
C1032 C1033 1.373 . S
C1032 C1034 1.389 . S
C1033 H1012 0.950 1_554 S
C1033 C1032 1.373 . S
C1033 C1049 1.377 . S
C1034 C1032 1.389 . S
C1034 C1035 1.524 . S
C1034 C1048 1.377 . S
C1035 C1034 1.524 . S
C1035 C1036 1.397 . S
C1035 C1040 1.363 . S
C1036 H1013 0.950 . S
C1036 C1035 1.397 . S
C1036 C1037 1.334 . S
C1037 H1014 0.950 . S
C1037 C1036 1.334 . S
C1037 C1038 1.287 . S
C1038 C1037 1.287 . S
C1038 C1039 1.524 . S
C1038 H1057 0.913 . S
C1039 H1015 0.950 . S
C1039 C1038 1.524 . S
C1039 C1040 1.415 . S
C1040 H1016 0.950 . S
C1040 C1035 1.363 . S
C1040 C1039 1.415 . S
C1041 H1017 0.951 . S
C1041 C1042 1.366 . S
C1041 C1043 1.388 . S
C1042 C1041 1.366 . S
C1042 C1046 1.385 . S
C1043 H1018 0.951 . S
C1043 C1041 1.388 . S
C1043 C1044 1.366 . S
C1044 C1043 1.366 . S
C1044 C1045 1.414 . S
C1044 C1047 1.499 . S
C1045 H1019 0.950 . S
C1045 C1044 1.414 . S
C1045 C1046 1.374 . S
C1046 H1020 0.950 . S
C1046 C1042 1.385 . S
C1046 C1045 1.374 . S
C1047 C1044 1.499 . S
C1047 C1048 1.373 . S
C1047 C1049 1.389 . S
C1048 H1021 0.950 . S
C1048 C1034 1.377 . S
C1048 C1047 1.373 . S
C1049 C1033 1.377 . S
C1049 C1047 1.389 . S
C1049 C1050 1.524 . S
C1050 C1049 1.524 . S
C1050 C1051 1.397 . S
C1050 C1055 1.363 1_554 S
C1051 H1022 0.950 . S
C1051 C1050 1.397 . S
C1051 C1052 1.334 . S
C1052 H1023 0.950 . S
C1052 C1051 1.334 . S
C1052 C1053 1.287 . S
C1053 C1052 1.287 . S
C1053 C1054 1.524 1_554 S
C1053 H1056 0.998 . S
C1054 H1024 0.950 . S
C1054 C1053 1.524 1_556 S
C1054 C1055 1.415 . S
C1055 H1025 0.950 . S
C1055 C1050 1.363 1_556 S
C1055 C1054 1.415 . S
H1056 C1053 0.998 . S
H1057 C1038 0.913 . S
H1058 C1076 0.951 . S
H1059 C1078 0.951 . S
H1060 C1080 0.950 . S
H1061 C1081 0.950 . S
H1062 C1083 0.950 . S
H1063 C1086 0.950 . S
H1064 C1087 0.950 . S
H1065 C1089 0.950 . S
H1066 C1090 0.950 . S
H1067 C1091 0.951 . S
H1068 C1093 0.951 . S
H1069 C1095 0.950 . S
H1070 C1096 0.950 . S
H1071 C1098 0.950 . S
H1072 C1101 0.950 . S
H1073 C1102 0.950 . S
H1074 C1104 0.950 . S
H1075 C1105 0.950 . S
C1076 H1058 0.951 . S
C1076 C1077 1.366 . S
C1076 C1078 1.388 . S
C1077 C1076 1.366 . S
C1077 C1081 1.385 . S
C1078 H1059 0.951 . S
C1078 C1076 1.388 . S
C1078 C1079 1.366 . S
C1079 C1078 1.366 . S
C1079 C1080 1.414 . S
C1079 C1082 1.499 . S
C1080 H1060 0.950 . S
C1080 C1079 1.414 . S
C1080 C1081 1.374 . S
C1081 H1061 0.950 . S
C1081 C1077 1.385 . S
C1081 C1080 1.374 . S
C1082 C1079 1.499 . S
C1082 C1083 1.373 . S
C1082 C1084 1.389 . S
C1083 H1062 0.950 . S
C1083 C1082 1.373 . S
C1083 C1099 1.377 . S
C1084 C1082 1.389 . S
C1084 C1085 1.524 . S
C1084 C1098 1.377 . S
C1085 C1084 1.524 . S
C1085 C1086 1.397 . S
C1085 C1090 1.363 . S
C1086 H1063 0.950 . S
C1086 C1085 1.397 . S
C1086 C1087 1.334 . S
C1087 H1064 0.950 . S
C1087 C1086 1.334 . S
C1087 C1088 1.287 . S
C1088 C1087 1.287 . S
C1088 C1089 1.524 . S
C1088 H1107 0.913 . S
C1089 H1065 0.950 . S
C1089 C1088 1.524 . S
C1089 C1090 1.415 . S
C1090 H1066 0.950 . S
C1090 C1085 1.363 . S
C1090 C1089 1.415 . S
C1091 H1067 0.951 . S
C1091 C1092 1.366 . S
C1091 C1093 1.388 . S
C1092 C1091 1.366 . S
C1092 C1096 1.385 . S
C1093 H1068 0.951 . S
C1093 C1091 1.388 . S
C1093 C1094 1.366 . S
C1094 C1093 1.366 . S
C1094 C1095 1.414 . S
C1094 C1097 1.499 . S
C1095 H1069 0.950 . S
C1095 C1094 1.414 . S
C1095 C1096 1.374 . S
C1096 H1070 0.950 . S
C1096 C1092 1.385 . S
C1096 C1095 1.374 . S
C1097 C1094 1.499 . S
C1097 C1098 1.373 . S
C1097 C1099 1.389 . S
C1098 H1071 0.950 . S
C1098 C1084 1.377 . S
C1098 C1097 1.373 . S
C1099 C1083 1.377 . S
C1099 C1097 1.389 . S
C1099 C1100 1.524 . S
C1100 C1099 1.524 . S
C1100 C1101 1.397 . S
C1100 C1105 1.363 . S
C1101 H1072 0.950 . S
C1101 C1100 1.397 . S
C1101 C1102 1.334 . S
C1102 H1073 0.950 . S
C1102 C1101 1.334 . S
C1102 C1103 1.287 . S
C1103 C1102 1.287 . S
C1103 C1104 1.524 . S
C1103 H1106 0.999 . S
C1104 H1074 0.950 . S
C1104 C1103 1.524 . S
C1104 C1105 1.415 . S
C1105 H1075 0.950 . S
C1105 C1100 1.363 . S
C1105 C1104 1.415 . S
H1106 C1103 0.999 . S
H1107 C1088 0.913 . S
H1108 C1126 0.951 . S
H1109 C1128 0.951 . S
H1110 C1130 0.950 . S
H1111 C1131 0.950 . S
H1112 C1133 0.950 . S
H1113 C1136 0.950 . S
H1114 C1137 0.950 . S
H1115 C1139 0.950 . S
H1116 C1140 0.950 . S
H1117 C1141 0.951 . S
H1118 C1143 0.951 . S
H1119 C1145 0.950 . S
H1120 C1146 0.950 . S
H1121 C1148 0.950 . S
H1122 C1151 0.950 . S
H1123 C1152 0.950 . S
H1124 C1154 0.950 . S
H1125 C1155 0.950 . S
C1126 H1108 0.951 . S
C1126 C1127 1.366 . S
C1126 C1128 1.388 . S
C1127 C1126 1.366 . S
C1127 C1131 1.385 . S
C1128 H1109 0.951 . S
C1128 C1126 1.388 . S
C1128 C1129 1.366 . S
C1129 C1128 1.366 . S
C1129 C1130 1.414 . S
C1129 C1132 1.499 . S
C1130 H1110 0.950 . S
C1130 C1129 1.414 . S
C1130 C1131 1.374 . S
C1131 H1111 0.950 . S
C1131 C1127 1.385 . S
C1131 C1130 1.374 . S
C1132 C1129 1.499 . S
C1132 C1133 1.373 . S
C1132 C1134 1.389 . S
C1133 H1112 0.950 . S
C1133 C1132 1.373 . S
C1133 C1149 1.377 . S
C1134 C1132 1.389 . S
C1134 C1135 1.524 . S
C1134 C1148 1.377 . S
C1135 C1134 1.524 . S
C1135 C1136 1.397 . S
C1135 C1140 1.363 . S
C1136 H1113 0.950 . S
C1136 C1135 1.397 . S
C1136 C1137 1.334 . S
C1137 H1114 0.950 . S
C1137 C1136 1.334 . S
C1137 C1138 1.287 . S
C1138 C1137 1.287 . S
C1138 C1139 1.524 . S
C1138 H1157 0.913 . S
C1139 H1115 0.950 . S
C1139 C1138 1.524 . S
C1139 C1140 1.415 . S
C1140 H1116 0.950 . S
C1140 C1135 1.363 . S
C1140 C1139 1.415 . S
C1141 H1117 0.951 . S
C1141 C1142 1.366 . S
C1141 C1143 1.388 . S
C1142 C1141 1.366 . S
C1142 C1146 1.385 . S
C1143 H1118 0.951 . S
C1143 C1141 1.388 . S
C1143 C1144 1.366 . S
C1144 C1143 1.366 . S
C1144 C1145 1.414 . S
C1144 C1147 1.499 . S
C1145 H1119 0.950 . S
C1145 C1144 1.414 . S
C1145 C1146 1.374 . S
C1146 H1120 0.950 . S
C1146 C1142 1.385 . S
C1146 C1145 1.374 . S
C1147 C1144 1.499 . S
C1147 C1148 1.373 . S
C1147 C1149 1.389 . S
C1148 H1121 0.950 . S
C1148 C1134 1.377 . S
C1148 C1147 1.373 . S
C1149 C1133 1.377 . S
C1149 C1147 1.389 . S
C1149 C1150 1.524 . S
C1150 C1149 1.524 . S
C1150 C1151 1.397 . S
C1150 C1155 1.363 . S
C1151 H1122 0.950 . S
C1151 C1150 1.397 . S
C1151 C1152 1.334 . S
C1152 H1123 0.950 . S
C1152 C1151 1.334 . S
C1152 C1153 1.287 . S
C1153 C1152 1.287 . S
C1153 C1154 1.524 . S
C1153 H1156 0.999 . S
C1154 H1124 0.950 . S
C1154 C1153 1.524 . S
C1154 C1155 1.415 . S
C1155 H1125 0.950 . S
C1155 C1150 1.363 . S
C1155 C1154 1.415 . S
H1156 C1153 0.999 . S
H1157 C1138 0.913 . S
H1158 C1176 0.951 . S
H1159 C1178 0.951 . S
H1160 C1180 0.950 . S
H1161 C1181 0.950 . S
H1162 C1183 0.950 . S
H1163 C1186 0.950 . S
H1164 C1187 0.950 . S
H1165 C1189 0.950 . S
H1166 C1190 0.950 . S
H1167 C1191 0.951 . S
H1168 C1193 0.951 . S
H1169 C1195 0.950 . S
H1170 C1196 0.950 . S
H1171 C1198 0.950 . S
H1172 C1201 0.950 . S
H1173 C1202 0.950 . S
H1174 C1204 0.950 . S
H1175 C1205 0.950 . S
C1176 H1158 0.951 . S
C1176 C1177 1.366 . S
C1176 C1178 1.388 . S
C1177 C1176 1.366 . S
C1177 C1181 1.385 . S
C1178 H1159 0.951 . S
C1178 C1176 1.388 . S
C1178 C1179 1.366 . S
C1179 C1178 1.366 . S
C1179 C1180 1.414 . S
C1179 C1182 1.499 . S
C1180 H1160 0.950 . S
C1180 C1179 1.414 . S
C1180 C1181 1.374 . S
C1181 H1161 0.950 . S
C1181 C1177 1.385 . S
C1181 C1180 1.374 . S
C1182 C1179 1.499 . S
C1182 C1183 1.373 . S
C1182 C1184 1.389 . S
C1183 H1162 0.950 . S
C1183 C1182 1.373 . S
C1183 C1199 1.377 . S
C1184 C1182 1.389 . S
C1184 C1185 1.524 . S
C1184 C1198 1.377 . S
C1185 C1184 1.524 . S
C1185 C1186 1.397 . S
C1185 C1190 1.363 . S
C1186 H1163 0.950 . S
C1186 C1185 1.397 . S
C1186 C1187 1.334 . S
C1187 H1164 0.950 . S
C1187 C1186 1.334 . S
C1187 C1188 1.287 . S
C1188 C1187 1.287 . S
C1188 C1189 1.524 . S
C1188 H1207 0.913 . S
C1189 H1165 0.950 . S
C1189 C1188 1.524 . S
C1189 C1190 1.415 . S
C1190 H1166 0.950 . S
C1190 C1185 1.363 . S
C1190 C1189 1.415 . S
C1191 H1167 0.951 . S
C1191 C1192 1.366 . S
C1191 C1193 1.388 . S
C1192 C1191 1.366 . S
C1192 C1196 1.385 . S
C1193 H1168 0.951 . S
C1193 C1191 1.388 . S
C1193 C1194 1.366 . S
C1194 C1193 1.366 . S
C1194 C1195 1.414 . S
C1194 C1197 1.499 . S
C1195 H1169 0.950 . S
C1195 C1194 1.414 . S
C1195 C1196 1.374 . S
C1196 H1170 0.950 . S
C1196 C1192 1.385 . S
C1196 C1195 1.374 . S
C1197 C1194 1.499 . S
C1197 C1198 1.373 . S
C1197 C1199 1.389 . S
C1198 H1171 0.950 . S
C1198 C1184 1.377 . S
C1198 C1197 1.373 . S
C1199 C1183 1.377 . S
C1199 C1197 1.389 . S
C1199 C1200 1.524 . S
C1200 C1199 1.524 . S
C1200 C1201 1.397 . S
C1200 C1205 1.363 . S
C1201 H1172 0.950 . S
C1201 C1200 1.397 . S
C1201 C1202 1.334 . S
C1202 H1173 0.950 . S
C1202 C1201 1.334 . S
C1202 C1203 1.287 . S
C1203 C1202 1.287 . S
C1203 C1204 1.524 . S
C1203 H1206 0.999 . S
C1204 H1174 0.950 . S
C1204 C1203 1.524 . S
C1204 C1205 1.415 . S
C1205 H1175 0.950 . S
C1205 C1200 1.363 . S
C1205 C1204 1.415 . S
H1206 C1203 0.999 . S
H1207 C1188 0.913 . S
H1208 C1226 0.951 . S
H1209 C1228 0.951 . S
H1210 C1230 0.950 . S
H1211 C1231 0.950 . S
H1212 C1233 0.950 . S
H1213 C1236 0.950 . S
H1214 C1237 0.950 . S
H1215 C1239 0.950 . S
H1216 C1240 0.950 . S
H1217 C1241 0.951 . S
H1218 C1243 0.951 . S
H1219 C1245 0.950 . S
H1220 C1246 0.950 . S
H1221 C1248 0.950 . S
H1222 C1251 0.950 . S
H1223 C1252 0.950 . S
H1224 C1254 0.950 . S
H1225 C1255 0.950 . S
C1226 H1208 0.951 . S
C1226 C1227 1.366 . S
C1226 C1228 1.388 . S
C1227 C1226 1.366 . S
C1227 C1231 1.385 . S
C1228 H1209 0.951 . S
C1228 C1226 1.388 . S
C1228 C1229 1.366 . S
C1229 C1228 1.366 . S
C1229 C1230 1.414 . S
C1229 C1232 1.499 . S
C1230 H1210 0.950 . S
C1230 C1229 1.414 . S
C1230 C1231 1.374 . S
C1231 H1211 0.950 . S
C1231 C1227 1.385 . S
C1231 C1230 1.374 . S
C1232 C1229 1.499 . S
C1232 C1233 1.373 . S
C1232 C1234 1.389 . S
C1233 H1212 0.950 . S
C1233 C1232 1.373 . S
C1233 C1249 1.377 . S
C1234 C1232 1.389 . S
C1234 C1235 1.524 . S
C1234 C1248 1.377 . S
C1235 C1234 1.524 . S
C1235 C1236 1.397 . S
C1235 C1240 1.363 . S
C1236 H1213 0.950 . S
C1236 C1235 1.397 . S
C1236 C1237 1.334 . S
C1237 H1214 0.950 . S
C1237 C1236 1.334 . S
C1237 C1238 1.287 . S
C1238 C1237 1.287 . S
C1238 C1239 1.524 . S
C1238 H1257 0.913 . S
C1239 H1215 0.950 . S
C1239 C1238 1.524 . S
C1239 C1240 1.415 . S
C1240 H1216 0.950 . S
C1240 C1235 1.363 . S
C1240 C1239 1.415 . S
C1241 H1217 0.951 . S
C1241 C1242 1.366 . S
C1241 C1243 1.388 . S
C1242 C1241 1.366 . S
C1242 C1246 1.385 . S
C1243 H1218 0.951 . S
C1243 C1241 1.388 . S
C1243 C1244 1.366 . S
C1244 C1243 1.366 . S
C1244 C1245 1.414 . S
C1244 C1247 1.499 . S
C1245 H1219 0.950 . S
C1245 C1244 1.414 . S
C1245 C1246 1.374 . S
C1246 H1220 0.950 . S
C1246 C1242 1.385 . S
C1246 C1245 1.374 . S
C1247 C1244 1.499 . S
C1247 C1248 1.373 . S
C1247 C1249 1.389 . S
C1248 H1221 0.950 . S
C1248 C1234 1.377 . S
C1248 C1247 1.373 . S
C1249 C1233 1.377 . S
C1249 C1247 1.389 . S
C1249 C1250 1.524 . S
C1250 C1249 1.524 . S
C1250 C1251 1.397 . S
C1250 C1255 1.363 . S
C1251 H1222 0.950 . S
C1251 C1250 1.397 . S
C1251 C1252 1.334 . S
C1252 H1223 0.950 . S
C1252 C1251 1.334 . S
C1252 C1253 1.287 . S
C1253 C1252 1.287 . S
C1253 C1254 1.524 . S
C1253 H1256 0.999 . S
C1254 H1224 0.950 . S
C1254 C1253 1.524 . S
C1254 C1255 1.415 . S
C1255 H1225 0.950 . S
C1255 C1250 1.363 . S
C1255 C1254 1.415 . S
H1256 C1253 0.999 . S
H1257 C1238 0.913 . S
H1258 C1276 0.951 . S
H1259 C1278 0.951 . S
H1260 C1280 0.950 . S
H1261 C1281 0.950 . S
H1262 C1283 0.950 . S
H1263 C1286 0.950 . S
H1264 C1287 0.950 . S
H1265 C1289 0.950 . S
H1266 C1290 0.950 . S
H1267 C1291 0.951 . S
H1268 C1293 0.951 . S
H1269 C1295 0.950 . S
H1270 C1296 0.950 . S
H1271 C1298 0.950 . S
H1272 C1301 0.953 1_545 S
H1273 C1302 0.950 . S
H1274 C1304 0.950 . S
H1275 C1305 0.950 . S
C1276 H1258 0.951 . S
C1276 C1277 1.366 . S
C1276 C1278 1.388 . S
C1277 C1276 1.366 . S
C1277 C1281 1.385 . S
C1278 H1259 0.951 . S
C1278 C1276 1.388 . S
C1278 C1279 1.366 . S
C1279 C1278 1.366 . S
C1279 C1280 1.414 . S
C1279 C1282 1.499 . S
C1280 H1260 0.950 . S
C1280 C1279 1.414 . S
C1280 C1281 1.374 . S
C1281 H1261 0.950 . S
C1281 C1277 1.385 . S
C1281 C1280 1.374 . S
C1282 C1279 1.499 . S
C1282 C1283 1.373 . S
C1282 C1284 1.389 . S
C1283 H1262 0.950 . S
C1283 C1282 1.373 . S
C1283 C1299 1.377 . S
C1284 C1282 1.389 . S
C1284 C1285 1.524 . S
C1284 C1298 1.377 . S
C1285 C1284 1.524 . S
C1285 C1286 1.397 . S
C1285 C1290 1.363 . S
C1286 H1263 0.950 . S
C1286 C1285 1.397 . S
C1286 C1287 1.334 . S
C1287 H1264 0.950 . S
C1287 C1286 1.334 . S
C1287 C1288 1.287 . S
C1288 C1287 1.287 . S
C1288 C1289 1.524 . S
C1288 H1307 0.913 . S
C1289 H1265 0.950 . S
C1289 C1288 1.524 . S
C1289 C1290 1.415 . S
C1290 H1266 0.950 . S
C1290 C1285 1.363 . S
C1290 C1289 1.415 . S
C1291 H1267 0.951 . S
C1291 C1292 1.366 . S
C1291 C1293 1.388 . S
C1292 C1291 1.366 . S
C1292 C1296 1.385 . S
C1293 H1268 0.951 . S
C1293 C1291 1.388 . S
C1293 C1294 1.366 . S
C1294 C1293 1.366 . S
C1294 C1295 1.414 . S
C1294 C1297 1.499 . S
C1295 H1269 0.950 . S
C1295 C1294 1.414 . S
C1295 C1296 1.374 . S
C1296 H1270 0.950 . S
C1296 C1292 1.385 . S
C1296 C1295 1.374 . S
C1297 C1294 1.499 . S
C1297 C1298 1.373 . S
C1297 C1299 1.389 . S
C1298 H1271 0.950 . S
C1298 C1284 1.377 . S
C1298 C1297 1.373 . S
C1299 C1283 1.377 . S
C1299 C1297 1.389 . S
C1299 C1300 1.524 . S
C1300 C1299 1.524 . S
C1300 C1301 1.397 1_545 S
C1300 C1305 1.363 . S
C1301 H1272 0.953 1_565 S
C1301 C1300 1.397 1_565 S
C1301 C1302 1.334 . S
C1302 H1273 0.950 . S
C1302 C1301 1.334 . S
C1302 C1303 1.287 . S
C1303 C1302 1.287 . S
C1303 C1304 1.524 . S
C1303 H1306 0.999 . S
C1304 H1274 0.950 . S
C1304 C1303 1.524 . S
C1304 C1305 1.415 1_565 S
C1305 H1275 0.950 . S
C1305 C1300 1.363 . S
C1305 C1304 1.415 1_545 S
H1306 C1303 0.999 . S
H1307 C1288 0.913 . S
H1308 C1326 0.951 . S
H1309 C1328 0.951 . S
H1310 C1330 0.950 . S
H1311 C1331 0.950 . S
H1312 C1333 0.950 . S
H1313 C1336 0.950 . S
H1314 C1337 0.950 . S
H1315 C1339 0.950 . S
H1316 C1340 0.950 . S
H1317 C1341 0.951 . S
H1318 C1343 0.951 . S
H1319 C1345 0.950 . S
H1320 C1346 0.950 . S
H1321 C1348 0.950 . S
H1322 C1351 0.950 . S
H1323 C1352 0.950 . S
H1324 C1354 0.950 . S
H1325 C1355 0.950 . S
C1326 H1308 0.951 . S
C1326 C1327 1.366 . S
C1326 C1328 1.388 . S
C1327 C1326 1.366 . S
C1327 C1331 1.385 . S
C1328 H1309 0.951 . S
C1328 C1326 1.388 . S
C1328 C1329 1.366 . S
C1329 C1328 1.366 . S
C1329 C1330 1.414 . S
C1329 C1332 1.499 . S
C1330 H1310 0.950 . S
C1330 C1329 1.414 . S
C1330 C1331 1.374 . S
C1331 H1311 0.950 . S
C1331 C1327 1.385 . S
C1331 C1330 1.374 . S
C1332 C1329 1.499 . S
C1332 C1333 1.373 . S
C1332 C1334 1.389 . S
C1333 H1312 0.950 . S
C1333 C1332 1.373 . S
C1333 C1349 1.377 . S
C1334 C1332 1.389 . S
C1334 C1335 1.524 . S
C1334 C1348 1.377 . S
C1335 C1334 1.524 . S
C1335 C1336 1.397 . S
C1335 C1340 1.363 . S
C1336 H1313 0.950 . S
C1336 C1335 1.397 . S
C1336 C1337 1.334 . S
C1337 H1314 0.950 . S
C1337 C1336 1.334 . S
C1337 C1338 1.287 . S
C1338 C1337 1.287 . S
C1338 C1339 1.524 . S
C1338 H1357 0.913 . S
C1339 H1315 0.950 . S
C1339 C1338 1.524 . S
C1339 C1340 1.415 . S
C1340 H1316 0.950 . S
C1340 C1335 1.363 . S
C1340 C1339 1.415 . S
C1341 H1317 0.951 . S
C1341 C1342 1.366 . S
C1341 C1343 1.388 . S
C1342 C1341 1.366 . S
C1342 C1346 1.385 . S
C1343 H1318 0.951 . S
C1343 C1341 1.388 . S
C1343 C1344 1.366 . S
C1344 C1343 1.366 . S
C1344 C1345 1.414 . S
C1344 C1347 1.499 . S
C1345 H1319 0.950 . S
C1345 C1344 1.414 . S
C1345 C1346 1.374 . S
C1346 H1320 0.950 . S
C1346 C1342 1.385 . S
C1346 C1345 1.374 . S
C1347 C1344 1.499 . S
C1347 C1348 1.373 . S
C1347 C1349 1.389 . S
C1348 H1321 0.950 . S
C1348 C1334 1.377 . S
C1348 C1347 1.373 . S
C1349 C1333 1.377 . S
C1349 C1347 1.389 . S
C1349 C1350 1.524 . S
C1350 C1349 1.524 . S
C1350 C1351 1.397 . S
C1350 C1355 1.363 . S
C1351 H1322 0.950 . S
C1351 C1350 1.397 . S
C1351 C1352 1.334 . S
C1352 H1323 0.950 . S
C1352 C1351 1.334 . S
C1352 C1353 1.287 . S
C1353 C1352 1.287 . S
C1353 C1354 1.524 . S
C1353 H1356 0.999 . S
C1354 H1324 0.950 . S
C1354 C1353 1.524 . S
C1354 C1355 1.415 . S
C1355 H1325 0.950 . S
C1355 C1350 1.363 . S
C1355 C1354 1.415 . S
H1356 C1353 0.999 . S
H1357 C1338 0.913 . S
H1358 C1376 0.951 . S
H1359 C1378 0.951 . S
H1360 C1380 0.950 . S
H1361 C1381 0.950 . S
H1362 C1383 0.950 . S
H1363 C1386 0.950 . S
H1364 C1387 0.950 . S
H1365 C1389 0.950 . S
H1366 C1390 0.950 . S
H1367 C1391 0.951 . S
H1368 C1393 0.951 1_554 S
H1369 C1395 0.950 . S
H1370 C1396 0.950 . S
H1371 C1398 0.950 . S
H1372 C1401 0.950 1_556 S
H1373 C1402 1.020 . S
H1374 C1404 0.950 . S
H1375 C1405 0.950 . S
C1376 H1358 0.951 . S
C1376 C1377 1.366 . S
C1376 C1378 1.388 . S
C1377 C1376 1.366 . S
C1377 C1381 1.385 . S
C1378 H1359 0.951 . S
C1378 C1376 1.388 . S
C1378 C1379 1.366 . S
C1379 C1378 1.366 . S
C1379 C1380 1.414 . S
C1379 C1382 1.499 . S
C1380 H1360 0.950 . S
C1380 C1379 1.414 . S
C1380 C1381 1.374 . S
C1381 H1361 0.950 . S
C1381 C1377 1.385 . S
C1381 C1380 1.374 . S
C1382 C1379 1.499 . S
C1382 C1383 1.373 . S
C1382 C1384 1.389 . S
C1383 H1362 0.950 . S
C1383 C1382 1.373 . S
C1383 C1399 1.377 . S
C1384 C1382 1.389 . S
C1384 C1385 1.524 1_554 S
C1384 C1398 1.377 1_554 S
C1385 C1384 1.524 1_556 S
C1385 C1386 1.397 1_556 S
C1385 C1390 1.363 . S
C1386 H1363 0.950 . S
C1386 C1385 1.397 1_554 S
C1386 C1387 1.334 1_655 S
C1387 H1364 0.950 . S
C1387 C1386 1.334 1_455 S
C1387 C1388 1.287 1_554 S
C1388 C1387 1.287 1_556 S
C1388 C1389 1.524 . S
C1388 H1407 0.913 . S
C1389 H1365 0.950 . S
C1389 C1388 1.524 . S
C1389 C1390 1.415 1_455 S
C1390 H1366 0.950 . S
C1390 C1385 1.363 . S
C1390 C1389 1.415 1_655 S
C1391 H1367 0.951 . S
C1391 C1392 1.366 . S
C1391 C1393 1.388 . S
C1392 C1391 1.366 . S
C1392 C1396 1.385 . S
C1393 H1368 0.951 1_556 S
C1393 C1391 1.388 . S
C1393 C1394 1.366 . S
C1394 C1393 1.366 . S
C1394 C1395 1.414 . S
C1394 C1397 1.499 . S
C1395 H1369 0.950 . S
C1395 C1394 1.414 . S
C1395 C1396 1.374 . S
C1396 H1370 0.950 . S
C1396 C1392 1.385 . S
C1396 C1395 1.374 . S
C1397 C1394 1.499 . S
C1397 C1398 1.373 . S
C1397 C1399 1.389 1_556 S
C1398 H1371 0.950 . S
C1398 C1384 1.377 1_556 S
C1398 C1397 1.373 . S
C1399 C1383 1.377 . S
C1399 C1397 1.389 1_554 S
C1399 C1400 1.524 . S
C1400 C1399 1.524 . S
C1400 C1401 1.397 . S
C1400 C1405 1.363 . S
C1401 H1372 0.950 1_554 S
C1401 C1400 1.397 . S
C1401 C1402 1.334 . S
C1402 H1373 1.020 . S
C1402 C1401 1.334 . S
C1402 C1403 1.287 . S
C1403 C1402 1.287 . S
C1403 C1404 1.524 . S
C1403 H1406 0.999 . S
C1404 H1374 0.950 . S
C1404 C1403 1.524 . S
C1404 C1405 1.415 . S
C1405 H1375 0.950 . S
C1405 C1400 1.363 . S
C1405 C1404 1.415 . S
H1406 C1403 0.999 . S
H1407 C1388 0.913 . S
H1408 C1426 0.951 . S
H1409 C1428 0.951 . S
H1410 C1430 0.950 . S
H1411 C1431 0.936 1_545 S
H1412 C1433 0.950 . S
H1413 C1436 0.950 . S
H1414 C1437 0.950 . S
H1415 C1439 0.950 . S
H1416 C1440 0.950 . S
H1417 C1441 0.951 . S
H1418 C1443 0.951 . S
H1419 C1445 0.950 . S
H1420 C1446 0.950 . S
H1421 C1448 0.950 . S
H1422 C1451 0.950 . S
H1423 C1452 0.950 . S
H1424 C1454 0.950 . S
H1425 C1455 0.950 . S
C1426 H1408 0.951 . S
C1426 C1427 1.366 . S
C1426 C1428 1.388 . S
C1427 C1426 1.366 . S
C1427 C1431 1.385 . S
C1428 H1409 0.951 . S
C1428 C1426 1.388 . S
C1428 C1429 1.366 . S
C1429 C1428 1.366 . S
C1429 C1430 1.414 . S
C1429 C1432 1.499 . S
C1430 H1410 0.950 . S
C1430 C1429 1.414 . S
C1430 C1431 1.374 . S
C1431 H1411 0.936 1_565 S
C1431 C1427 1.385 . S
C1431 C1430 1.374 . S
C1432 C1429 1.499 . S
C1432 C1433 1.373 . S
C1432 C1434 1.389 . S
C1433 H1412 0.950 . S
C1433 C1432 1.373 . S
C1433 C1449 1.377 . S
C1434 C1432 1.389 . S
C1434 C1435 1.524 . S
C1434 C1448 1.377 . S
C1435 C1434 1.524 . S
C1435 C1436 1.397 . S
C1435 C1440 1.363 . S
C1436 H1413 0.950 . S
C1436 C1435 1.397 . S
C1436 C1437 1.334 . S
C1437 H1414 0.950 . S
C1437 C1436 1.334 . S
C1437 C1438 1.287 . S
C1438 C1437 1.287 . S
C1438 C1439 1.524 . S
C1438 H1457 0.913 . S
C1439 H1415 0.950 . S
C1439 C1438 1.524 . S
C1439 C1440 1.415 . S
C1440 H1416 0.950 . S
C1440 C1435 1.363 . S
C1440 C1439 1.415 . S
C1441 H1417 0.951 . S
C1441 C1442 1.366 . S
C1441 C1443 1.388 . S
C1442 C1441 1.366 . S
C1442 C1446 1.385 . S
C1443 H1418 0.951 . S
C1443 C1441 1.388 . S
C1443 C1444 1.366 . S
C1444 C1443 1.366 . S
C1444 C1445 1.414 . S
C1444 C1447 1.499 . S
C1445 H1419 0.950 . S
C1445 C1444 1.414 . S
C1445 C1446 1.374 . S
C1446 H1420 0.950 . S
C1446 C1442 1.385 . S
C1446 C1445 1.374 . S
C1447 C1444 1.499 . S
C1447 C1448 1.373 . S
C1447 C1449 1.389 . S
C1448 H1421 0.950 . S
C1448 C1434 1.377 . S
C1448 C1447 1.373 . S
C1449 C1433 1.377 . S
C1449 C1447 1.389 . S
C1449 C1450 1.524 . S
C1450 C1449 1.524 . S
C1450 C1451 1.397 . S
C1450 C1455 1.363 . S
C1451 H1422 0.950 . S
C1451 C1450 1.397 . S
C1451 C1452 1.334 . S
C1452 H1423 0.950 . S
C1452 C1451 1.334 . S
C1452 C1453 1.287 . S
C1453 C1452 1.287 . S
C1453 C1454 1.524 1_565 S
C1453 H1456 0.999 . S
C1454 H1424 0.950 . S
C1454 C1453 1.524 1_545 S
C1454 C1455 1.415 1_545 S
C1455 H1425 0.950 . S
C1455 C1450 1.363 . S
C1455 C1454 1.415 1_565 S
H1456 C1453 0.999 . S
H1457 C1438 0.913 . S
H1458 C1476 0.951 . S
H1459 C1478 0.951 . S
H1460 C1480 0.950 . S
H1461 C1481 0.950 . S
H1462 C1483 0.950 . S
H1463 C1486 0.950 . S
H1464 C1487 0.950 . S
H1465 C1489 0.950 . S
H1466 C1490 0.950 . S
H1467 C1491 0.951 . S
H1468 C1493 0.951 . S
H1469 C1495 0.950 . S
H1470 C1496 0.950 . S
H1471 C1498 0.950 . S
H1472 C1501 0.950 . S
H1473 C1502 0.950 . S
H1474 C1504 0.950 . S
H1475 C1505 0.950 . S
C1476 H1458 0.951 . S
C1476 C1477 1.366 . S
C1476 C1478 1.388 . S
C1477 C1476 1.366 . S
C1477 C1481 1.385 . S
C1478 H1459 0.951 . S
C1478 C1476 1.388 . S
C1478 C1479 1.366 . S
C1479 C1478 1.366 . S
C1479 C1480 1.414 . S
C1479 C1482 1.499 . S
C1480 H1460 0.950 . S
C1480 C1479 1.414 . S
C1480 C1481 1.374 . S
C1481 H1461 0.950 . S
C1481 C1477 1.385 . S
C1481 C1480 1.374 . S
C1482 C1479 1.499 . S
C1482 C1483 1.373 . S
C1482 C1484 1.389 . S
C1483 H1462 0.950 . S
C1483 C1482 1.373 . S
C1483 C1499 1.377 . S
C1484 C1482 1.389 . S
C1484 C1485 1.524 . S
C1484 C1498 1.377 . S
C1485 C1484 1.524 . S
C1485 C1486 1.397 . S
C1485 C1490 1.363 . S
C1486 H1463 0.950 . S
C1486 C1485 1.397 . S
C1486 C1487 1.334 . S
C1487 H1464 0.950 . S
C1487 C1486 1.334 . S
C1487 C1488 1.287 . S
C1488 C1487 1.287 . S
C1488 C1489 1.524 . S
C1488 H1507 0.913 . S
C1489 H1465 0.950 . S
C1489 C1488 1.524 . S
C1489 C1490 1.415 . S
C1490 H1466 0.950 . S
C1490 C1485 1.363 . S
C1490 C1489 1.415 . S
C1491 H1467 0.951 . S
C1491 C1492 1.366 . S
C1491 C1493 1.388 . S
C1492 C1491 1.366 . S
C1492 C1496 1.385 . S
C1493 H1468 0.951 . S
C1493 C1491 1.388 . S
C1493 C1494 1.366 . S
C1494 C1493 1.366 . S
C1494 C1495 1.414 . S
C1494 C1497 1.499 . S
C1495 H1469 0.950 . S
C1495 C1494 1.414 . S
C1495 C1496 1.374 . S
C1496 H1470 0.950 . S
C1496 C1492 1.385 . S
C1496 C1495 1.374 . S
C1497 C1494 1.499 . S
C1497 C1498 1.373 . S
C1497 C1499 1.389 . S
C1498 H1471 0.950 . S
C1498 C1484 1.377 . S
C1498 C1497 1.373 . S
C1499 C1483 1.377 . S
C1499 C1497 1.389 . S
C1499 C1500 1.524 . S
C1500 C1499 1.524 . S
C1500 C1501 1.397 . S
C1500 C1505 1.363 . S
C1501 H1472 0.950 . S
C1501 C1500 1.397 . S
C1501 C1502 1.334 . S
C1502 H1473 0.950 . S
C1502 C1501 1.334 . S
C1502 C1503 1.287 . S
C1503 C1502 1.287 . S
C1503 C1504 1.524 . S
C1503 H1506 0.999 . S
C1504 H1474 0.950 . S
C1504 C1503 1.524 . S
C1504 C1505 1.415 . S
C1505 H1475 0.950 . S
C1505 C1500 1.363 . S
C1505 C1504 1.415 . S
H1506 C1503 0.999 . S
H1507 C1488 0.913 . S
H1508 C1526 0.951 . S
H1509 C1528 0.951 . S
H1510 C1530 0.950 . S
H1511 C1531 0.950 . S
H1512 C1533 0.950 . S
H1513 C1536 0.950 . S
H1514 C1537 0.950 . S
H1515 C1539 0.950 . S
H1516 C1540 0.950 . S
H1517 C1541 0.951 . S
H1518 C1543 0.951 . S
H1519 C1545 0.950 . S
H1520 C1546 0.950 . S
H1521 C1548 0.950 . S
H1522 C1551 0.950 . S
H1523 C1552 0.950 . S
H1524 C1554 0.950 . S
H1525 C1555 0.950 . S
C1526 H1508 0.951 . S
C1526 C1527 1.366 . S
C1526 C1528 1.388 . S
C1527 C1526 1.366 . S
C1527 C1531 1.385 . S
C1528 H1509 0.951 . S
C1528 C1526 1.388 . S
C1528 C1529 1.366 . S
C1529 C1528 1.366 . S
C1529 C1530 1.414 . S
C1529 C1532 1.499 . S
C1530 H1510 0.950 . S
C1530 C1529 1.414 . S
C1530 C1531 1.374 . S
C1531 H1511 0.950 . S
C1531 C1527 1.385 . S
C1531 C1530 1.374 . S
C1532 C1529 1.499 . S
C1532 C1533 1.373 . S
C1532 C1534 1.389 . S
C1533 H1512 0.950 . S
C1533 C1532 1.373 . S
C1533 C1549 1.377 . S
C1534 C1532 1.389 . S
C1534 C1535 1.524 . S
C1534 C1548 1.377 . S
C1535 C1534 1.524 . S
C1535 C1536 1.397 . S
C1535 C1540 1.363 . S
C1536 H1513 0.950 . S
C1536 C1535 1.397 . S
C1536 C1537 1.334 . S
C1537 H1514 0.950 . S
C1537 C1536 1.334 . S
C1537 C1538 1.287 . S
C1538 C1537 1.287 . S
C1538 C1539 1.524 . S
C1538 H1557 0.913 . S
C1539 H1515 0.950 . S
C1539 C1538 1.524 . S
C1539 C1540 1.415 . S
C1540 H1516 0.950 . S
C1540 C1535 1.363 . S
C1540 C1539 1.415 . S
C1541 H1517 0.951 . S
C1541 C1542 1.366 . S
C1541 C1543 1.388 . S
C1542 C1541 1.366 . S
C1542 C1546 1.385 . S
C1543 H1518 0.951 . S
C1543 C1541 1.388 . S
C1543 C1544 1.366 . S
C1544 C1543 1.366 . S
C1544 C1545 1.414 . S
C1544 C1547 1.499 . S
C1545 H1519 0.950 . S
C1545 C1544 1.414 . S
C1545 C1546 1.374 . S
C1546 H1520 0.950 . S
C1546 C1542 1.385 . S
C1546 C1545 1.374 . S
C1547 C1544 1.499 . S
C1547 C1548 1.373 . S
C1547 C1549 1.389 . S
C1548 H1521 0.950 . S
C1548 C1534 1.377 . S
C1548 C1547 1.373 . S
C1549 C1533 1.377 . S
C1549 C1547 1.389 . S
C1549 C1550 1.524 . S
C1550 C1549 1.524 . S
C1550 C1551 1.397 . S
C1550 C1555 1.363 . S
C1551 H1522 0.950 . S
C1551 C1550 1.397 . S
C1551 C1552 1.334 . S
C1552 H1523 0.950 . S
C1552 C1551 1.334 . S
C1552 C1553 1.287 1_455 S
C1553 C1552 1.287 1_655 S
C1553 C1554 1.524 . S
C1553 H1556 0.999 . S
C1554 H1524 0.950 . S
C1554 C1553 1.524 . S
C1554 C1555 1.415 1_655 S
C1555 H1525 0.950 . S
C1555 C1550 1.363 . S
C1555 C1554 1.415 1_455 S
H1556 C1553 0.999 . S
H1557 C1538 0.913 . S
H1558 C1576 0.951 . S
H1559 C1578 0.951 . S
H1560 C1580 0.950 . S
H1561 C1581 0.950 . S
H1562 C1583 0.950 . S
H1563 C1586 0.950 . S
H1564 C1587 0.950 . S
H1565 C1589 0.950 . S
H1566 C1590 0.950 . S
H1567 C1591 0.951 . S
H1568 C1593 0.951 . S
H1569 C1595 0.950 . S
H1570 C1596 0.950 . S
H1571 C1598 0.950 . S
H1572 C1601 0.950 . S
H1573 C1602 0.950 . S
H1574 C1604 0.950 . S
H1575 C1605 0.950 . S
C1576 H1558 0.951 . S
C1576 C1577 1.366 . S
C1576 C1578 1.388 . S
C1577 C1576 1.366 . S
C1577 C1581 1.385 . S
C1578 H1559 0.951 . S
C1578 C1576 1.388 . S
C1578 C1579 1.366 . S
C1579 C1578 1.366 . S
C1579 C1580 1.414 . S
C1579 C1582 1.499 . S
C1580 H1560 0.950 . S
C1580 C1579 1.414 . S
C1580 C1581 1.374 . S
C1581 H1561 0.950 . S
C1581 C1577 1.385 . S
C1581 C1580 1.374 . S
C1582 C1579 1.499 . S
C1582 C1583 1.373 . S
C1582 C1584 1.389 . S
C1583 H1562 0.950 . S
C1583 C1582 1.373 . S
C1583 C1599 1.377 . S
C1584 C1582 1.389 . S
C1584 C1585 1.524 . S
C1584 C1598 1.377 . S
C1585 C1584 1.524 . S
C1585 C1586 1.397 . S
C1585 C1590 1.363 . S
C1586 H1563 0.950 . S
C1586 C1585 1.397 . S
C1586 C1587 1.334 . S
C1587 H1564 0.950 . S
C1587 C1586 1.334 . S
C1587 C1588 1.287 . S
C1588 C1587 1.287 . S
C1588 C1589 1.524 . S
C1588 H1607 0.913 . S
C1589 H1565 0.950 . S
C1589 C1588 1.524 . S
C1589 C1590 1.415 . S
C1590 H1566 0.950 . S
C1590 C1585 1.363 . S
C1590 C1589 1.415 . S
C1591 H1567 0.951 . S
C1591 C1592 1.366 . S
C1591 C1593 1.388 . S
C1592 C1591 1.366 . S
C1592 C1596 1.385 . S
C1593 H1568 0.951 . S
C1593 C1591 1.388 . S
C1593 C1594 1.366 . S
C1594 C1593 1.366 . S
C1594 C1595 1.414 . S
C1594 C1597 1.499 . S
C1595 H1569 0.950 . S
C1595 C1594 1.414 . S
C1595 C1596 1.374 . S
C1596 H1570 0.950 . S
C1596 C1592 1.385 . S
C1596 C1595 1.374 . S
C1597 C1594 1.499 . S
C1597 C1598 1.373 . S
C1597 C1599 1.389 . S
C1598 H1571 0.950 . S
C1598 C1584 1.377 . S
C1598 C1597 1.373 . S
C1599 C1583 1.377 . S
C1599 C1597 1.389 . S
C1599 C1600 1.524 . S
C1600 C1599 1.524 . S
C1600 C1601 1.397 . S
C1600 C1605 1.363 . S
C1601 H1572 0.950 . S
C1601 C1600 1.397 . S
C1601 C1602 1.334 . S
C1602 H1573 0.950 . S
C1602 C1601 1.334 . S
C1602 C1603 1.287 . S
C1603 C1602 1.287 . S
C1603 C1604 1.524 . S
C1603 H1606 0.999 . S
C1604 H1574 0.950 . S
C1604 C1603 1.524 . S
C1604 C1605 1.415 . S
C1605 H1575 0.950 . S
C1605 C1600 1.363 . S
C1605 C1604 1.415 . S
H1606 C1603 0.999 . S
H1607 C1588 0.913 . S
H1608 C1626 0.960 1_455 S
H1609 C1628 0.950 . S
H1610 C1630 0.950 . S
H1611 C1631 0.950 . S
H1612 C1633 0.950 . S
H1613 C1636 0.950 . S
H1614 C1637 0.950 . S
H1615 C1639 0.950 . S
H1616 C1640 0.950 . S
H1617 C1641 0.951 . S
H1618 C1643 0.951 . S
H1619 C1645 0.939 . S
H1620 C1646 0.950 . S
H1621 C1648 0.950 . S
H1622 C1651 0.950 . S
H1623 C1652 0.950 . S
H1624 C1654 0.950 . S
H1625 C1655 0.950 . S
C1626 H1608 0.960 1_655 S
C1626 C1627 1.362 . S
C1626 C1628 1.382 . S
C1627 C1626 1.362 . S
C1627 C1631 1.385 . S
C1628 H1609 0.950 . S
C1628 C1626 1.382 . S
C1628 C1629 1.366 . S
C1629 C1628 1.366 . S
C1629 C1630 1.414 . S
C1629 C1632 1.499 . S
C1630 H1610 0.950 . S
C1630 C1629 1.414 . S
C1630 C1631 1.374 . S
C1631 H1611 0.950 . S
C1631 C1627 1.385 . S
C1631 C1630 1.374 . S
C1632 C1629 1.499 . S
C1632 C1633 1.373 1_655 S
C1632 C1634 1.389 . S
C1633 H1612 0.950 . S
C1633 C1632 1.373 1_455 S
C1633 C1649 1.377 . S
C1634 C1632 1.389 . S
C1634 C1635 1.524 . S
C1634 C1648 1.377 . S
C1635 C1634 1.524 . S
C1635 C1636 1.397 . S
C1635 C1640 1.363 . S
C1636 H1613 0.950 . S
C1636 C1635 1.397 . S
C1636 C1637 1.334 . S
C1637 H1614 0.950 . S
C1637 C1636 1.334 . S
C1637 C1638 1.287 . S
C1638 C1637 1.287 . S
C1638 C1639 1.524 . S
C1638 H1657 0.913 . S
C1639 H1615 0.950 . S
C1639 C1638 1.524 . S
C1639 C1640 1.415 . S
C1640 H1616 0.950 . S
C1640 C1635 1.363 . S
C1640 C1639 1.415 . S
C1641 H1617 0.951 . S
C1641 C1642 1.366 . S
C1641 C1643 1.388 . S
C1642 C1641 1.366 . S
C1642 C1646 1.385 1_655 S
C1643 H1618 0.951 . S
C1643 C1641 1.388 . S
C1643 C1644 1.363 . S
C1644 C1643 1.363 . S
C1644 C1645 1.420 1_655 S
C1644 C1647 1.500 1_655 S
C1645 H1619 0.939 . S
C1645 C1644 1.420 1_455 S
C1645 C1646 1.380 . S
C1646 H1620 0.950 . S
C1646 C1642 1.385 1_455 S
C1646 C1645 1.380 . S
C1647 C1644 1.500 1_455 S
C1647 C1648 1.375 1_455 S
C1647 C1649 1.388 . S
C1648 H1621 0.950 . S
C1648 C1634 1.377 . S
C1648 C1647 1.375 1_655 S
C1649 C1633 1.377 . S
C1649 C1647 1.388 . S
C1649 C1650 1.524 . S
C1650 C1649 1.524 . S
C1650 C1651 1.397 . S
C1650 C1655 1.363 . S
C1651 H1622 0.950 . S
C1651 C1650 1.397 . S
C1651 C1652 1.334 . S
C1652 H1623 0.950 . S
C1652 C1651 1.334 . S
C1652 C1653 1.287 . S
C1653 C1652 1.287 . S
C1653 C1654 1.524 . S
C1653 H1656 0.999 . S
C1654 H1624 0.950 . S
C1654 C1653 1.524 . S
C1654 C1655 1.415 . S
C1655 H1625 0.950 . S
C1655 C1650 1.363 . S
C1655 C1654 1.415 . S
H1656 C1653 0.999 . S
H1657 C1638 0.913 . S
H1658 C1676 0.951 . S
H1659 C1678 0.951 . S
H1660 C1680 0.950 . S
H1661 C1681 0.950 . S
H1662 C1683 0.950 . S
H1663 C1686 0.950 . S
H1664 C1687 0.950 . S
H1665 C1689 0.950 . S
H1666 C1690 0.950 . S
H1667 C1691 0.951 . S
H1668 C1693 0.951 . S
H1669 C1695 0.950 . S
H1670 C1696 0.950 . S
H1671 C1698 0.950 . S
H1672 C1701 0.950 . S
H1673 C1702 0.950 . S
H1674 C1704 0.950 . S
H1675 C1705 0.950 . S
C1676 H1658 0.951 . S
C1676 C1677 1.366 1_565 S
C1676 C1678 1.388 . S
C1677 C1676 1.366 1_545 S
C1677 C1681 1.385 . S
C1678 H1659 0.951 . S
C1678 C1676 1.388 . S
C1678 C1679 1.366 1_565 S
C1679 C1678 1.366 1_545 S
C1679 C1680 1.414 . S
C1679 C1682 1.499 . S
C1680 H1660 0.950 . S
C1680 C1679 1.414 . S
C1680 C1681 1.374 . S
C1681 H1661 0.950 . S
C1681 C1677 1.385 . S
C1681 C1680 1.374 . S
C1682 C1679 1.499 . S
C1682 C1683 1.373 1_545 S
C1682 C1684 1.389 . S
C1683 H1662 0.950 . S
C1683 C1682 1.373 1_565 S
C1683 C1699 1.377 . S
C1684 C1682 1.389 . S
C1684 C1685 1.524 . S
C1684 C1698 1.377 . S
C1685 C1684 1.524 . S
C1685 C1686 1.397 . S
C1685 C1690 1.363 . S
C1686 H1663 0.950 . S
C1686 C1685 1.397 . S
C1686 C1687 1.334 . S
C1687 H1664 0.950 . S
C1687 C1686 1.334 . S
C1687 C1688 1.287 . S
C1688 C1687 1.287 . S
C1688 C1689 1.524 . S
C1688 H1707 0.913 . S
C1689 H1665 0.950 . S
C1689 C1688 1.524 . S
C1689 C1690 1.415 . S
C1690 H1666 0.950 . S
C1690 C1685 1.363 . S
C1690 C1689 1.415 . S
C1691 H1667 0.951 . S
C1691 C1692 1.366 . S
C1691 C1693 1.388 . S
C1692 C1691 1.366 . S
C1692 C1696 1.385 1_545 S
C1693 H1668 0.951 . S
C1693 C1691 1.388 . S
C1693 C1694 1.366 . S
C1694 C1693 1.366 . S
C1694 C1695 1.414 1_545 S
C1694 C1697 1.499 . S
C1695 H1669 0.950 . S
C1695 C1694 1.414 1_565 S
C1695 C1696 1.374 . S
C1696 H1670 0.950 . S
C1696 C1692 1.385 1_565 S
C1696 C1695 1.374 . S
C1697 C1694 1.499 . S
C1697 C1698 1.373 . S
C1697 C1699 1.389 1_545 S
C1698 H1671 0.950 . S
C1698 C1684 1.377 . S
C1698 C1697 1.373 . S
C1699 C1683 1.377 . S
C1699 C1697 1.389 1_565 S
C1699 C1700 1.524 . S
C1700 C1699 1.524 . S
C1700 C1701 1.397 . S
C1700 C1705 1.363 . S
C1701 H1672 0.950 . S
C1701 C1700 1.397 . S
C1701 C1702 1.334 . S
C1702 H1673 0.950 . S
C1702 C1701 1.334 . S
C1702 C1703 1.287 . S
C1703 C1702 1.287 . S
C1703 C1704 1.524 . S
C1703 H1706 0.999 . S
C1704 H1674 0.950 . S
C1704 C1703 1.524 . S
C1704 C1705 1.415 . S
C1705 H1675 0.950 . S
C1705 C1700 1.363 . S
C1705 C1704 1.415 . S
H1706 C1703 0.999 . S
H1707 C1688 0.913 . S
H1708 C1726 0.951 . S
H1709 C1728 0.951 . S
H1710 C1730 0.950 . S
H1711 C1731 0.950 . S
H1712 C1733 0.950 . S
H1713 C1736 0.950 . S
H1714 C1737 0.950 . S
H1715 C1739 0.950 . S
H1716 C1740 0.950 . S
H1717 C1741 0.951 . S
H1718 C1743 0.951 . S
H1719 C1745 0.950 . S
H1720 C1746 0.950 . S
H1721 C1748 0.950 . S
H1722 C1751 0.950 . S
H1723 C1752 0.950 . S
H1724 C1754 0.950 . S
H1725 C1755 0.950 . S
C1726 H1708 0.951 . S
C1726 C1727 1.366 . S
C1726 C1728 1.388 . S
C1727 C1726 1.366 . S
C1727 C1731 1.385 . S
C1728 H1709 0.951 . S
C1728 C1726 1.388 . S
C1728 C1729 1.366 . S
C1729 C1728 1.366 . S
C1729 C1730 1.414 . S
C1729 C1732 1.499 . S
C1730 H1710 0.950 . S
C1730 C1729 1.414 . S
C1730 C1731 1.374 . S
C1731 H1711 0.950 . S
C1731 C1727 1.385 . S
C1731 C1730 1.374 . S
C1732 C1729 1.499 . S
C1732 C1733 1.373 . S
C1732 C1734 1.389 . S
C1733 H1712 0.950 . S
C1733 C1732 1.373 . S
C1733 C1749 1.377 . S
C1734 C1732 1.389 . S
C1734 C1735 1.524 . S
C1734 C1748 1.377 . S
C1735 C1734 1.524 . S
C1735 C1736 1.397 . S
C1735 C1740 1.363 . S
C1736 H1713 0.950 . S
C1736 C1735 1.397 . S
C1736 C1737 1.334 . S
C1737 H1714 0.950 . S
C1737 C1736 1.334 . S
C1737 C1738 1.287 . S
C1738 C1737 1.287 . S
C1738 C1739 1.524 . S
C1738 H1757 0.913 . S
C1739 H1715 0.950 . S
C1739 C1738 1.524 . S
C1739 C1740 1.415 . S
C1740 H1716 0.950 . S
C1740 C1735 1.363 . S
C1740 C1739 1.415 . S
C1741 H1717 0.951 . S
C1741 C1742 1.366 . S
C1741 C1743 1.388 . S
C1742 C1741 1.366 . S
C1742 C1746 1.385 . S
C1743 H1718 0.951 . S
C1743 C1741 1.388 . S
C1743 C1744 1.366 . S
C1744 C1743 1.366 . S
C1744 C1745 1.414 . S
C1744 C1747 1.499 . S
C1745 H1719 0.950 . S
C1745 C1744 1.414 . S
C1745 C1746 1.374 . S
C1746 H1720 0.950 . S
C1746 C1742 1.385 . S
C1746 C1745 1.374 . S
C1747 C1744 1.499 . S
C1747 C1748 1.373 . S
C1747 C1749 1.389 . S
C1748 H1721 0.950 . S
C1748 C1734 1.377 . S
C1748 C1747 1.373 . S
C1749 C1733 1.377 . S
C1749 C1747 1.389 . S
C1749 C1750 1.524 . S
C1750 C1749 1.524 . S
C1750 C1751 1.397 . S
C1750 C1755 1.363 . S
C1751 H1722 0.950 . S
C1751 C1750 1.397 . S
C1751 C1752 1.334 . S
C1752 H1723 0.950 . S
C1752 C1751 1.334 . S
C1752 C1753 1.287 . S
C1753 C1752 1.287 . S
C1753 C1754 1.524 . S
C1753 H1756 0.999 . S
C1754 H1724 0.950 . S
C1754 C1753 1.524 . S
C1754 C1755 1.415 . S
C1755 H1725 0.950 . S
C1755 C1750 1.363 . S
C1755 C1754 1.415 . S
H1756 C1753 0.999 . S
H1757 C1738 0.913 . S
H1758 C1776 0.951 . S
H1759 C1778 0.951 . S
H1760 C1780 0.950 . S
H1761 C1781 0.950 . S
H1762 C1783 0.950 . S
H1763 C1786 0.950 . S
H1764 C1787 0.950 . S
H1765 C1789 0.950 . S
H1766 C1790 0.950 . S
H1767 C1791 0.951 . S
H1768 C1793 0.951 . S
H1769 C1795 0.950 . S
H1770 C1796 0.950 . S
H1771 C1798 0.950 . S
H1772 C1801 0.950 . S
H1773 C1802 0.950 . S
H1774 C1804 0.950 . S
H1775 C1805 0.950 . S
C1776 H1758 0.951 . S
C1776 C1777 1.366 . S
C1776 C1778 1.388 . S
C1777 C1776 1.366 . S
C1777 C1781 1.385 1_655 S
C1778 H1759 0.951 . S
C1778 C1776 1.388 . S
C1778 C1779 1.366 . S
C1779 C1778 1.366 . S
C1779 C1780 1.414 1_655 S
C1779 C1782 1.499 . S
C1780 H1760 0.950 . S
C1780 C1779 1.414 1_455 S
C1780 C1781 1.374 . S
C1781 H1761 0.950 . S
C1781 C1777 1.385 1_455 S
C1781 C1780 1.374 . S
C1782 C1779 1.499 . S
C1782 C1783 1.373 1_655 S
C1782 C1784 1.389 . S
C1783 H1762 0.950 . S
C1783 C1782 1.373 1_455 S
C1783 C1799 1.377 . S
C1784 C1782 1.389 . S
C1784 C1785 1.524 . S
C1784 C1798 1.377 . S
C1785 C1784 1.524 . S
C1785 C1786 1.397 . S
C1785 C1790 1.363 . S
C1786 H1763 0.950 . S
C1786 C1785 1.397 . S
C1786 C1787 1.334 . S
C1787 H1764 0.950 . S
C1787 C1786 1.334 . S
C1787 C1788 1.287 . S
C1788 C1787 1.287 . S
C1788 C1789 1.524 . S
C1788 H1807 0.913 . S
C1789 H1765 0.950 . S
C1789 C1788 1.524 . S
C1789 C1790 1.415 . S
C1790 H1766 0.950 . S
C1790 C1785 1.363 . S
C1790 C1789 1.415 . S
C1791 H1767 0.951 . S
C1791 C1792 1.366 1_455 S
C1791 C1793 1.388 . S
C1792 C1791 1.366 1_655 S
C1792 C1796 1.385 . S
C1793 H1768 0.951 . S
C1793 C1791 1.388 . S
C1793 C1794 1.366 1_455 S
C1794 C1793 1.366 1_655 S
C1794 C1795 1.414 . S
C1794 C1797 1.499 . S
C1795 H1769 0.950 . S
C1795 C1794 1.414 . S
C1795 C1796 1.374 . S
C1796 H1770 0.950 . S
C1796 C1792 1.385 . S
C1796 C1795 1.374 . S
C1797 C1794 1.499 . S
C1797 C1798 1.373 . S
C1797 C1799 1.389 1_655 S
C1798 H1771 0.950 . S
C1798 C1784 1.377 . S
C1798 C1797 1.373 . S
C1799 C1783 1.377 . S
C1799 C1797 1.389 1_455 S
C1799 C1800 1.524 . S
C1800 C1799 1.524 . S
C1800 C1801 1.397 . S
C1800 C1805 1.363 . S
C1801 H1772 0.950 . S
C1801 C1800 1.397 . S
C1801 C1802 1.334 . S
C1802 H1773 0.950 . S
C1802 C1801 1.334 . S
C1802 C1803 1.287 . S
C1803 C1802 1.287 . S
C1803 C1804 1.524 . S
C1803 H1806 0.999 . S
C1804 H1774 0.950 . S
C1804 C1803 1.524 . S
C1804 C1805 1.415 . S
C1805 H1775 0.950 . S
C1805 C1800 1.363 . S
C1805 C1804 1.415 . S
H1806 C1803 0.999 . S
H1807 C1788 0.913 . S
H1808 C1826 0.951 . S
H1809 C1828 0.951 . S
H1810 C1830 0.950 . S
H1811 C1831 0.950 . S
H1812 C1833 0.950 . S
H1813 C1836 0.950 . S
H1814 C1837 0.950 . S
H1815 C1839 0.950 . S
H1816 C1840 0.950 . S
H1817 C1841 0.951 . S
H1818 C1843 0.951 . S
H1819 C1845 0.950 . S
H1820 C1846 0.950 . S
H1821 C1848 0.950 . S
H1822 C1851 0.950 . S
H1823 C1852 0.950 . S
H1824 C1854 0.950 . S
H1825 C1855 0.950 . S
C1826 H1808 0.951 . S
C1826 C1827 1.366 . S
C1826 C1828 1.388 . S
C1827 C1826 1.366 . S
C1827 C1831 1.385 1_565 S
C1828 H1809 0.951 . S
C1828 C1826 1.388 . S
C1828 C1829 1.366 . S
C1829 C1828 1.366 . S
C1829 C1830 1.414 1_565 S
C1829 C1832 1.499 . S
C1830 H1810 0.950 . S
C1830 C1829 1.414 1_545 S
C1830 C1831 1.374 . S
C1831 H1811 0.950 . S
C1831 C1827 1.385 1_545 S
C1831 C1830 1.374 . S
C1832 C1829 1.499 . S
C1832 C1833 1.373 . S
C1832 C1834 1.389 . S
C1833 H1812 0.950 . S
C1833 C1832 1.373 . S
C1833 C1849 1.377 . S
C1834 C1832 1.389 . S
C1834 C1835 1.524 . S
C1834 C1848 1.377 . S
C1835 C1834 1.524 . S
C1835 C1836 1.397 1_565 S
C1835 C1840 1.363 . S
C1836 H1813 0.950 . S
C1836 C1835 1.397 1_545 S
C1836 C1837 1.334 . S
C1837 H1814 0.950 . S
C1837 C1836 1.334 . S
C1837 C1838 1.287 . S
C1838 C1837 1.287 . S
C1838 C1839 1.524 1_545 S
C1838 H1857 0.913 . S
C1839 H1815 0.950 . S
C1839 C1838 1.524 1_565 S
C1839 C1840 1.415 . S
C1840 H1816 0.950 . S
C1840 C1835 1.363 . S
C1840 C1839 1.415 . S
C1841 H1817 0.951 . S
C1841 C1842 1.366 1_545 S
C1841 C1843 1.388 . S
C1842 C1841 1.366 1_565 S
C1842 C1846 1.385 . S
C1843 H1818 0.951 . S
C1843 C1841 1.388 . S
C1843 C1844 1.366 1_545 S
C1844 C1843 1.366 1_565 S
C1844 C1845 1.414 . S
C1844 C1847 1.499 . S
C1845 H1819 0.950 . S
C1845 C1844 1.414 . S
C1845 C1846 1.374 . S
C1846 H1820 0.950 . S
C1846 C1842 1.385 . S
C1846 C1845 1.374 . S
C1847 C1844 1.499 . S
C1847 C1848 1.373 . S
C1847 C1849 1.389 . S
C1848 H1821 0.950 . S
C1848 C1834 1.377 . S
C1848 C1847 1.373 . S
C1849 C1833 1.377 . S
C1849 C1847 1.389 . S
C1849 C1850 1.524 . S
C1850 C1849 1.524 . S
C1850 C1851 1.397 . S
C1850 C1855 1.363 1_565 S
C1851 H1822 0.950 . S
C1851 C1850 1.397 . S
C1851 C1852 1.334 . S
C1852 H1823 0.950 . S
C1852 C1851 1.334 . S
C1852 C1853 1.287 . S
C1853 C1852 1.287 . S
C1853 C1854 1.524 1_565 S
C1853 H1856 0.999 . S
C1854 H1824 0.950 . S
C1854 C1853 1.524 1_545 S
C1854 C1855 1.415 . S
C1855 H1825 0.950 . S
C1855 C1850 1.363 1_545 S
C1855 C1854 1.415 . S
H1856 C1853 0.999 . S
H1857 C1838 0.913 . S
H1858 C1876 0.951 . S
H1859 C1878 0.951 . S
H1860 C1880 0.950 . S
H1861 C1881 0.950 . S
H1862 C1883 0.950 . S
H1863 C1886 0.950 . S
H1864 C1887 0.950 . S
H1865 C1889 0.950 . S
H1866 C1890 0.950 . S
H1867 C1891 0.951 . S
H1868 C1893 0.951 . S
H1869 C1895 0.950 . S
H1870 C1896 0.950 . S
H1871 C1898 0.950 . S
H1872 C1901 0.950 . S
H1873 C1902 0.950 . S
H1874 C1904 0.950 . S
H1875 C1905 0.950 . S
C1876 H1858 0.951 . S
C1876 C1877 1.366 . S
C1876 C1878 1.388 . S
C1877 C1876 1.366 . S
C1877 C1881 1.385 . S
C1878 H1859 0.951 . S
C1878 C1876 1.388 . S
C1878 C1879 1.366 . S
C1879 C1878 1.366 . S
C1879 C1880 1.414 . S
C1879 C1882 1.499 . S
C1880 H1860 0.950 . S
C1880 C1879 1.414 . S
C1880 C1881 1.374 . S
C1881 H1861 0.950 . S
C1881 C1877 1.385 . S
C1881 C1880 1.374 . S
C1882 C1879 1.499 . S
C1882 C1883 1.373 . S
C1882 C1884 1.389 . S
C1883 H1862 0.950 . S
C1883 C1882 1.373 . S
C1883 C1899 1.377 . S
C1884 C1882 1.389 . S
C1884 C1885 1.524 . S
C1884 C1898 1.377 . S
C1885 C1884 1.524 . S
C1885 C1886 1.397 . S
C1885 C1890 1.363 . S
C1886 H1863 0.950 . S
C1886 C1885 1.397 . S
C1886 C1887 1.334 . S
C1887 H1864 0.950 . S
C1887 C1886 1.334 . S
C1887 C1888 1.287 . S
C1888 C1887 1.287 . S
C1888 C1889 1.524 . S
C1888 H1907 0.913 . S
C1889 H1865 0.950 . S
C1889 C1888 1.524 . S
C1889 C1890 1.415 . S
C1890 H1866 0.950 . S
C1890 C1885 1.363 . S
C1890 C1889 1.415 . S
C1891 H1867 0.951 . S
C1891 C1892 1.366 . S
C1891 C1893 1.388 . S
C1892 C1891 1.366 . S
C1892 C1896 1.385 . S
C1893 H1868 0.951 . S
C1893 C1891 1.388 . S
C1893 C1894 1.366 . S
C1894 C1893 1.366 . S
C1894 C1895 1.414 . S
C1894 C1897 1.499 . S
C1895 H1869 0.950 . S
C1895 C1894 1.414 . S
C1895 C1896 1.374 . S
C1896 H1870 0.950 . S
C1896 C1892 1.385 . S
C1896 C1895 1.374 . S
C1897 C1894 1.499 . S
C1897 C1898 1.373 . S
C1897 C1899 1.389 . S
C1898 H1871 0.950 . S
C1898 C1884 1.377 . S
C1898 C1897 1.373 . S
C1899 C1883 1.377 . S
C1899 C1897 1.389 . S
C1899 C1900 1.524 . S
C1900 C1899 1.524 . S
C1900 C1901 1.397 . S
C1900 C1905 1.363 . S
C1901 H1872 0.950 . S
C1901 C1900 1.397 . S
C1901 C1902 1.334 . S
C1902 H1873 0.950 . S
C1902 C1901 1.334 . S
C1902 C1903 1.287 . S
C1903 C1902 1.287 . S
C1903 C1904 1.524 . S
C1903 H1906 0.999 . S
C1904 H1874 0.950 . S
C1904 C1903 1.524 . S
C1904 C1905 1.415 . S
C1905 H1875 0.950 . S
C1905 C1900 1.363 . S
C1905 C1904 1.415 . S
H1906 C1903 0.999 . S
H1907 C1888 0.913 . S
C427 C240 1.807 . S
C442 C2 1.807 . S
C477 C274 1.806 . S
C492 C36 1.806 . S
C527 C70 1.807 . S
C542 C308 1.807 . S
C577 C342 1.806 . S
C592 C104 1.806 . S
C627 C138 1.806 . S
C642 C376 1.806 . S
C677 C206 1.807 . S
C692 C172 1.807 . S
C727 C9 1.235 . S
C742 C281 1.236 . S
C777 C43 1.235 . S
C792 C315 1.236 . S
C827 C349 1.236 . S
C842 C77 1.235 . S
C877 C383 1.236 . S
C892 C111 1.235 . S
C927 C145 1.235 . S
C942 C213 1.236 . S
C977 C247 1.236 . S
C992 C179 1.235 . S
C1027 C243 1.547 . S
C1042 C33 1.561 . S
C1077 C277 1.547 . S
C1092 C67 1.561 . S
C1127 C311 1.548 . S
C1142 C101 1.561 . S
C1177 C135 1.561 . S
C1192 C345 1.548 . S
C1227 C379 1.548 . S
C1242 C169 1.561 . S
C1277 C203 1.561 . S
C1292 C209 1.547 . S
C1327 C237 1.561 . S
C1342 C175 1.548 . S
C1377 C5 1.548 . S
C1392 C271 1.562 . S
C1427 C39 1.548 . S
C1442 C305 1.562 . S
C1477 C73 1.547 . S
C1492 C339 1.561 . S
C1527 C107 1.548 . S
C1542 C373 1.561 . S
C1577 C141 1.548 . S
C1592 C407 1.561 . S
C1627 C292 1.280 . S
C1642 C20 1.280 . S
C1677 C54 1.280 . S
C1692 C326 1.280 . S
C1727 C360 1.280 . S
C1742 C88 1.280 . S
C1777 C122 1.279 . S
C1792 C394 1.279 . S
C1827 C156 1.280 . S
C1842 C224 1.280 . S
C1877 C258 1.280 . S
C1892 C190 1.280 . S
