# Generated by pormake.
# Topology sth, (5)-cn, num edge types: 1
# Building blocks:
#     Node 0, Type 0, BuildingBlock: XOMCOT_clean_sbu_1, # of connection points: 5
#     Node 1, Type 0, BuildingBlock: XOMCOT_clean_sbu_1, # of connection points: 5
#     Node 2, Type 0, BuildingBlock: XOMCOT_clean_sbu_1, # of connection points: 5
#     Node 3, Type 0, BuildingBlock: XOMCOT_clean_sbu_1, # of connection points: 5
#     Node 4, Type 0, BuildingBlock: XOMCOT_clean_sbu_1, # of connection points: 5
#     Node 5, Type 0, BuildingBlock: XOMCOT_clean_sbu_1, # of connection points: 5
#     Node 6, Type 0, BuildingBlock: XOMCOT_clean_sbu_1, # of connection points: 5
#     Node 7, Type 0, BuildingBlock: XOMCOT_clean_sbu_1, # of connection points: 5
#     Node 8, Type 0, BuildingBlock: XOMCOT_clean_sbu_1, # of connection points: 5
#     Node 9, Type 0, BuildingBlock: XOMCOT_clean_sbu_1, # of connection points: 5
#     Node 10, Type 0, BuildingBlock: XOMCOT_clean_sbu_1, # of connection points: 5
#     Node 11, Type 0, BuildingBlock: XOMCOT_clean_sbu_1, # of connection points: 5
#     Node 12, Type 0, BuildingBlock: XOMCOT_clean_sbu_1, # of connection points: 5
#     Node 13, Type 0, BuildingBlock: XOMCOT_clean_sbu_1, # of connection points: 5
#     Node 14, Type 0, BuildingBlock: XOMCOT_clean_sbu_1, # of connection points: 5
#     Node 15, Type 0, BuildingBlock: XOMCOT_clean_sbu_1, # of connection points: 5
#     Node 16, Type 0, BuildingBlock: XOMCOT_clean_sbu_1, # of connection points: 5
#     Node 17, Type 0, BuildingBlock: XOMCOT_clean_sbu_1, # of connection points: 5
#     Edge 18, Type (0, 0), BuildingBlock: XUDNAN_clean_linker_2, # of connection points: 2
#     Edge 19, Type (0, 0), BuildingBlock: XUDNAN_clean_linker_2, # of connection points: 2
#     Edge 20, Type (0, 0), BuildingBlock: XUDNAN_clean_linker_2, # of connection points: 2
#     Edge 21, Type (0, 0), BuildingBlock: XUDNAN_clean_linker_2, # of connection points: 2
#     Edge 22, Type (0, 0), BuildingBlock: XUDNAN_clean_linker_2, # of connection points: 2
#     Edge 23, Type (0, 0), BuildingBlock: XUDNAN_clean_linker_2, # of connection points: 2
#     Edge 24, Type (0, 0), BuildingBlock: XUDNAN_clean_linker_2, # of connection points: 2
#     Edge 25, Type (0, 0), BuildingBlock: XUDNAN_clean_linker_2, # of connection points: 2
#     Edge 26, Type (0, 0), BuildingBlock: XUDNAN_clean_linker_2, # of connection points: 2
#     Edge 27, Type (0, 0), BuildingBlock: XUDNAN_clean_linker_2, # of connection points: 2
#     Edge 28, Type (0, 0), BuildingBlock: XUDNAN_clean_linker_2, # of connection points: 2
#     Edge 29, Type (0, 0), BuildingBlock: XUDNAN_clean_linker_2, # of connection points: 2
#     Edge 30, Type (0, 0), BuildingBlock: XUDNAN_clean_linker_2, # of connection points: 2
#     Edge 31, Type (0, 0), BuildingBlock: XUDNAN_clean_linker_2, # of connection points: 2
#     Edge 32, Type (0, 0), BuildingBlock: XUDNAN_clean_linker_2, # of connection points: 2
#     Edge 33, Type (0, 0), BuildingBlock: XUDNAN_clean_linker_2, # of connection points: 2
#     Edge 34, Type (0, 0), BuildingBlock: XUDNAN_clean_linker_2, # of connection points: 2
#     Edge 35, Type (0, 0), BuildingBlock: XUDNAN_clean_linker_2, # of connection points: 2
#     Edge 36, Type (0, 0), BuildingBlock: XUDNAN_clean_linker_2, # of connection points: 2
#     Edge 37, Type (0, 0), BuildingBlock: XUDNAN_clean_linker_2, # of connection points: 2
#     Edge 38, Type (0, 0), BuildingBlock: XUDNAN_clean_linker_2, # of connection points: 2
#     Edge 39, Type (0, 0), BuildingBlock: XUDNAN_clean_linker_2, # of connection points: 2
#     Edge 40, Type (0, 0), BuildingBlock: XUDNAN_clean_linker_2, # of connection points: 2
#     Edge 41, Type (0, 0), BuildingBlock: XUDNAN_clean_linker_2, # of connection points: 2
#     Edge 42, Type (0, 0), BuildingBlock: XUDNAN_clean_linker_2, # of connection points: 2
#     Edge 43, Type (0, 0), BuildingBlock: XUDNAN_clean_linker_2, # of connection points: 2
#     Edge 44, Type (0, 0), BuildingBlock: XUDNAN_clean_linker_2, # of connection points: 2
#     Edge 45, Type (0, 0), BuildingBlock: XUDNAN_clean_linker_2, # of connection points: 2
#     Edge 46, Type (0, 0), BuildingBlock: XUDNAN_clean_linker_2, # of connection points: 2
#     Edge 47, Type (0, 0), BuildingBlock: XUDNAN_clean_linker_2, # of connection points: 2
#     Edge 48, Type (0, 0), BuildingBlock: XUDNAN_clean_linker_2, # of connection points: 2
#     Edge 49, Type (0, 0), BuildingBlock: XUDNAN_clean_linker_2, # of connection points: 2
#     Edge 50, Type (0, 0), BuildingBlock: XUDNAN_clean_linker_2, # of connection points: 2
#     Edge 51, Type (0, 0), BuildingBlock: XUDNAN_clean_linker_2, # of connection points: 2
#     Edge 52, Type (0, 0), BuildingBlock: XUDNAN_clean_linker_2, # of connection points: 2
#     Edge 53, Type (0, 0), BuildingBlock: XUDNAN_clean_linker_2, # of connection points: 2
#     Edge 54, Type (0, 0), BuildingBlock: XUDNAN_clean_linker_2, # of connection points: 2
#     Edge 55, Type (0, 0), BuildingBlock: XUDNAN_clean_linker_2, # of connection points: 2
#     Edge 56, Type (0, 0), BuildingBlock: XUDNAN_clean_linker_2, # of connection points: 2
#     Edge 57, Type (0, 0), BuildingBlock: XUDNAN_clean_linker_2, # of connection points: 2
#     Edge 58, Type (0, 0), BuildingBlock: XUDNAN_clean_linker_2, # of connection points: 2
#     Edge 59, Type (0, 0), BuildingBlock: XUDNAN_clean_linker_2, # of connection points: 2
#     Edge 60, Type (0, 0), BuildingBlock: XUDNAN_clean_linker_2, # of connection points: 2
#     Edge 61, Type (0, 0), BuildingBlock: XUDNAN_clean_linker_2, # of connection points: 2
#     Edge 62, Type (0, 0), BuildingBlock: XUDNAN_clean_linker_2, # of connection points: 2
# Relax obj value: 0.162
# Max RMSD: 0.183
# Mean RMSD: 0.183
data_MOF--net-sth--node1-XOMCOT_clean_sbu_1--edge1-XUDNAN_clean_linker_2
_symmetry_space_group_name_H-M    P1
_symmetry_Int_Tables_number       1
_symmetry_cell_setting            triclinic
loop_
_symmetry_equiv_pos_as_xyz
'x, y, z'
_cell_length_a     40.899361
_cell_length_b     40.953534
_cell_length_c     75.556511
_cell_angle_alpha  89.953443
_cell_angle_beta   90.103553
_cell_angle_gamma 119.87211
loop_
_atom_site_label
_atom_site_type_symbol
_atom_site_fract_x
_atom_site_fract_y
_atom_site_fract_z
_atom_type_partial_charge
C0 C 0.2023 0.30186 0.24212 0.0
C1 C 0.23822 0.32007 0.2351 0.0
N2 N 0.23545 0.32172 0.21737 0.0
N3 N 0.177 0.29244 0.22888 0.0
C4 C 0.19801 0.30495 0.21404 0.0
H5 H 0.19505 0.2948 0.25589 0.0
Co6 Co 0.12428 0.26301 0.22977 0.0
C7 C 0.10063 0.28893 0.1986 0.0
O8 O 0.08522 0.25463 0.19215 0.0
N9 N 0.07104 0.23344 0.23009 0.0
C10 C 1.01049 0.21746 0.22831 0.0
C11 C 0.04646 0.24623 0.23184 0.0
C12 C 0.04913 0.19669 0.2258 0.0
N13 N 1.01233 0.18635 0.2244 0.0
O14 O 0.12662 0.23019 0.21203 0.0
H15 H 0.05439 0.27517 0.23459 0.0
H16 H 0.0599 0.17813 0.22269 0.0
O17 O 0.11956 0.29665 0.21295 0.0
C18 C 0.13274 0.20806 0.22167 0.0
O19 O 0.13643 0.21419 0.23884 0.0
N20 N 0.12308 0.29167 0.24875 0.0
C21 C 0.13309 0.32808 0.28108 0.0
C22 C 0.14637 0.3489 0.26533 0.0
C23 C 0.1408 0.33005 0.24917 0.0
C24 C 0.10873 0.27113 0.26382 0.0
C25 C 0.11282 0.28876 0.28009 0.0
H26 H 0.15323 0.3462 0.23728 0.0
H27 H 0.09591 0.24081 0.26338 0.0
H28 H 0.1858 0.30085 0.20095 0.0
H29 H 0.2642 0.32973 0.24243 0.0
H30 H 0.98515 0.21958 0.22824 0.0
H31 H 0.16258 0.37937 0.26565 0.0
H32 H 0.1029 0.27175 0.29197 0.0
C33 C 0.71983 0.89632 0.24194 0.0
C34 C 0.69681 0.90827 0.2346 0.0
N35 N 0.69309 0.90019 0.21718 0.0
N36 N 0.73048 0.88019 0.22935 0.0
C37 C 0.7137 0.88298 0.21436 0.0
H38 H 0.72961 0.90098 0.25548 0.0
Co39 Co 0.76833 0.86707 0.23203 0.0
C40 C 0.73936 0.7916 0.21568 0.0
O41 O 0.75679 0.78347 0.22805 0.0
N42 N 0.80833 0.85562 0.23452 0.0
C43 C 0.85571 0.84911 0.24519 0.0
C44 C 0.82338 0.8497 0.24934 0.0
C45 C 0.83214 0.85767 0.22145 0.0
N46 N 0.8612 0.8542 0.22769 0.0
O47 O 0.79538 0.90064 0.21303 0.0
H48 H 0.81304 0.84721 0.26262 0.0
H49 H 0.82942 0.86363 0.20774 0.0
O50 O 0.74117 0.82383 0.21578 0.0
C51 C 0.82031 0.93045 0.22071 0.0
O52 O 0.82206 0.93103 0.23808 0.0
N53 N 0.74338 0.83851 0.25225 0.0
C54 C 0.71439 0.80984 0.28587 0.0
C55 C 0.69626 0.78946 0.27044 0.0
C56 C 0.71096 0.80456 0.25368 0.0
C57 C 0.7597 0.85945 0.26701 0.0
C58 C 0.74652 0.8454 0.28383 0.0
H59 H 0.69572 0.78935 0.24203 0.0
H60 H 0.78409 0.88723 0.26568 0.0
H61 H 0.71846 0.87468 0.20146 0.0
H62 H 0.68454 0.92266 0.24153 0.0
H63 H 0.8745 0.84634 0.25441 0.0
H64 H 0.67055 0.76251 0.27125 0.0
H65 H 0.762 0.86237 0.29511 0.0
C66 C 0.1443 0.81573 0.24144 0.0
C67 C 0.13468 0.78194 0.23358 0.0
N68 N 0.13968 0.78738 0.21602 0.0
N69 N 0.15587 0.843 0.22901 0.0
C70 C 0.15285 0.82471 0.21359 0.0
H71 H 0.14064 0.8191 0.2553 0.0
Co72 Co 0.16349 0.89216 0.23237 0.0
C73 C 0.23597 0.94616 0.21384 0.0
O74 O 0.23685 0.9749 0.22193 0.0
N75 N 0.16877 0.94091 0.2358 0.0
C76 C 0.17249 0.99212 0.24819 0.0
C77 C 0.17649 0.96118 0.25093 0.0
C78 C 0.16064 0.96098 0.22397 0.0
N79 N 0.16249 0.99194 0.23125 0.0
O80 O 0.13035 0.88452 0.21282 0.0
H81 H 0.184 0.95425 0.26348 0.0
H82 H 0.15242 0.95263 0.21037 0.0
O83 O 0.20878 0.91264 0.21678 0.0
C84 C 0.09723 0.86954 0.21933 0.0
O85 O 0.09274 0.85961 0.23607 0.0
N86 N 0.19222 0.89788 0.25296 0.0
C87 C 0.22303 0.90512 0.28675 0.0
C88 C 0.24625 0.91636 0.27171 0.0
C89 C 0.23018 0.91194 0.25481 0.0
C90 C 0.16944 0.88642 0.26748 0.0
C91 C 0.18413 0.88951 0.28443 0.0
H92 H 0.24843 0.9201 0.24345 0.0
H93 H 0.13949 0.87556 0.26586 0.0
H94 H 0.15771 0.838 0.20073 0.0
H95 H 0.12361 0.75511 0.24027 0.0
H96 H 0.17623 1.01303 0.25797 0.0
H97 H 0.27644 0.92818 0.27301 0.0
H98 H 0.16526 0.88079 0.29568 0.0
C99 C 0.31735 0.19277 0.77923 0.0
C100 C 0.33795 0.23102 0.78163 0.0
N101 N 0.34681 0.23818 0.79894 0.0
N102 N 0.31361 0.17537 0.79485 0.0
C103 C 0.33182 0.20377 0.80666 0.0
H104 H 0.30492 0.17852 0.76691 0.0
Co105 Co 0.28303 0.12324 0.79857 0.0
C106 C 0.31736 0.10826 0.82937 0.0
O107 O 0.28559 0.09715 0.83793 0.0
N108 N 0.25189 0.07094 0.80249 0.0
C109 C 0.23219 1.01014 0.80681 0.0
C110 C 0.26243 0.04449 0.80222 0.0
C111 C 0.21503 0.05178 0.80707 0.0
N112 N 0.2024 1.01486 0.80996 0.0
O113 O 0.25778 0.13401 0.81728 0.0
H114 H 0.29059 0.05 0.79924 0.0
H115 H 0.19743 0.06438 0.80818 0.0
O116 O 0.32128 0.12247 0.81393 0.0
C117 C 0.2326 0.13747 0.80875 0.0
O118 O 0.23073 0.13282 0.79149 0.0
N119 N 0.30426 0.11359 0.77864 0.0
C120 C 0.32851 0.12008 0.7438 0.0
C121 C 0.35482 0.13486 0.75766 0.0
C122 C 0.34204 0.13093 0.7752 0.0
C123 C 0.2786 0.09622 0.76543 0.0
C124 C 0.29017 0.09883 0.7479 0.0
H125 H 0.36221 0.1457 0.78563 0.0
H126 H 0.24882 0.08369 0.76821 0.0
H127 H 0.33227 0.19925 0.82075 0.0
H128 H 0.34517 0.25192 0.77136 0.0
H129 H 0.23244 0.98394 0.80808 0.0
H130 H 0.38462 0.15227 0.75487 0.0
H131 H 0.26913 0.08783 0.73749 0.0
C132 C 0.85365 0.14227 0.77743 0.0
C133 C 0.81559 0.12537 0.78052 0.0
N134 N 0.80962 0.12192 0.79815 0.0
N135 N 0.8722 0.15024 0.793 0.0
C136 C 0.84458 0.13759 0.80541 0.0
H137 H 0.86677 0.14727 0.76455 0.0
Co138 Co 0.92459 0.16897 0.79596 0.0
C139 C 0.94214 0.21601 0.82767 0.0
O140 O 0.95307 0.19435 0.83546 0.0
N141 N 0.97691 0.18798 0.79927 0.0
C142 C 0.03756 0.2291 0.80405 0.0
C143 C 1.00343 0.22486 0.79892 0.0
C144 C 0.99596 0.1703 0.80436 0.0
N145 N 0.03285 0.19479 0.80755 0.0
O146 O 0.91354 0.13143 0.81395 0.0
H147 H 0.99799 0.2475 0.79578 0.0
H148 H 0.98288 0.14025 0.80643 0.0
O149 O 0.92755 0.20731 0.81224 0.0
C150 C 0.90489 0.10256 0.80429 0.0
O151 O 0.90636 0.10677 0.787 0.0
N152 N 0.93481 0.20109 0.77656 0.0
C153 C 0.93896 0.23074 0.7429 0.0
C154 C 0.92806 0.24437 0.7575 0.0
C155 C 0.92577 0.22878 0.77436 0.0
C156 C 0.94737 0.1892 0.76267 0.0
C157 C 0.94958 0.20355 0.74575 0.0
H158 H 0.91467 0.23723 0.7853 0.0
H159 H 0.95369 0.16674 0.76459 0.0
H160 H 0.84999 0.13815 0.81946 0.0
H161 H 0.79399 0.11576 0.77042 0.0
H162 H 0.06381 0.25547 0.80525 0.0
H163 H 0.91931 0.26514 0.7557 0.0
H164 H 0.95819 0.19242 0.73483 0.0
C165 C 0.85606 0.68457 0.8049 0.0
C166 C 0.86743 0.66 0.8108 0.0
N167 N 0.90531 0.67875 0.81173 0.0
N168 N 0.88659 0.71891 0.80236 0.0
C169 C 0.91625 0.71422 0.80642 0.0
H170 H 0.82719 0.67784 0.80284 0.0
Co171 Co 0.88595 0.76302 0.79587 0.0
C172 C 0.8303 0.74424 0.82522 0.0
O173 O 0.85645 0.75962 0.83748 0.0
N174 N 0.88498 0.80688 0.78982 0.0
C175 C 0.88736 0.85542 0.77548 0.0
C176 C 0.88814 0.82234 0.77369 0.0
C177 C 0.88301 0.83135 0.80121 0.0
N178 N 0.88437 0.86107 0.79282 0.0
O179 O 0.91818 0.78967 0.81543 0.0
H180 H 0.89138 0.81068 0.76142 0.0
H181 H 0.88089 0.8276 0.81542 0.0
O182 O 0.8396 0.7454 0.80906 0.0
C183 C 0.95094 0.80551 0.80846 0.0
O184 O 0.95392 0.79822 0.79177 0.0
N185 N 0.85881 0.73916 0.77549 0.0
C186 C 0.83216 0.71557 0.74115 0.0
C187 C 0.80954 0.71999 0.75387 0.0
C188 C 0.82355 0.73218 0.771 0.0
C189 C 0.88065 0.73403 0.76353 0.0
C190 C 0.86802 0.72241 0.74634 0.0
H191 H 0.80686 0.73771 0.78029 0.0
H192 H 0.90894 0.74081 0.76717 0.0
H193 H 0.94533 0.73651 0.80607 0.0
H194 H 0.84929 0.63066 0.81419 0.0
H195 H 0.88997 0.87445 0.76492 0.0
H196 H 0.78164 0.71495 0.75054 0.0
H197 H 0.88713 0.72059 0.73703 0.0
C198 C 0.88945 0.65801 0.57039 0.0
C199 C 0.92379 0.68511 0.56416 0.0
N200 N 0.92112 0.68773 0.54655 0.0
N201 N 0.86452 0.64386 0.55688 0.0
C202 C 0.88498 0.66223 0.54236 0.0
H203 H 0.88353 0.64867 0.58397 0.0
Co204 Co 0.81432 0.60406 0.55928 0.0
C205 C 0.7656 0.63341 0.54668 0.0
O206 O 0.7438 0.61543 0.56014 0.0
N207 N 0.76357 0.56235 0.56153 0.0
C208 C 0.70583 0.5198 0.57073 0.0
C209 C 0.73932 0.55071 0.57543 0.0
C210 C 0.74344 0.53718 0.54856 0.0
N211 N 0.70851 0.51126 0.55387 0.0
O212 O 0.82112 0.57881 0.53948 0.0
H213 H 0.74405 0.5642 0.58812 0.0
H214 H 0.75365 0.53806 0.53528 0.0
O215 O 0.79579 0.63166 0.54418 0.0
C216 C 0.83578 0.5603 0.54602 0.0
O217 O 0.84754 0.5671 0.56251 0.0
N218 N 0.81005 0.62662 0.58027 0.0
C219 C 0.80952 0.65351 0.61425 0.0
C220 C 0.81088 0.67428 0.59914 0.0
C221 C 0.81179 0.66063 0.58222 0.0
C222 C 0.81167 0.60773 0.59479 0.0
C223 C 0.81013 0.61986 0.61179 0.0
H224 H 0.81492 0.67789 0.57083 0.0
H225 H 0.81301 0.58219 0.59307 0.0
H226 H 0.87376 0.65679 0.52903 0.0
H227 H 0.94927 0.70087 0.5719 0.0
H228 H 0.68128 0.50467 0.57908 0.0
H229 H 0.81223 0.70126 0.60033 0.0
H230 H 0.80906 0.60256 0.62285 0.0
C231 C 0.3619 0.19258 0.55124 0.0
C232 C 0.3382 0.20443 0.54463 0.0
N233 N 0.35754 0.24224 0.54365 0.0
N234 N 0.39634 0.22273 0.55422 0.0
C235 C 0.39253 0.25267 0.54968 0.0
H236 H 0.35446 0.1636 0.55345 0.0
Co237 Co 0.4395 0.22109 0.56162 0.0
C238 C 0.42402 0.14408 0.55077 0.0
O239 O 0.44533 0.1429 0.5635 0.0
N240 N 0.48319 0.21955 0.56874 0.0
C241 C 0.52825 0.21568 0.58363 0.0
C242 C 0.49536 0.21702 0.58508 0.0
C243 C 0.50966 0.22034 0.55768 0.0
N244 N 0.53717 0.218 0.56639 0.0
O245 O 0.46654 0.2493 0.54104 0.0
H246 H 0.48128 0.21564 0.59735 0.0
H247 H 0.50812 0.2211 0.54341 0.0
O248 O 0.42036 0.17314 0.54899 0.0
C249 C 0.48395 0.28352 0.54619 0.0
O250 O 0.47772 0.29096 0.56235 0.0
N251 N 0.41478 0.19832 0.58291 0.0
C252 C 0.38741 0.18201 0.6176 0.0
C253 C 0.37898 0.15285 0.60544 0.0
C254 C 0.39264 0.16162 0.58798 0.0
C255 C 0.42222 0.22669 0.59444 0.0
C256 C 0.40934 0.21928 0.61178 0.0
H257 H 0.38494 0.13891 0.57875 0.0
H258 H 0.43933 0.25558 0.59022 0.0
H259 H 0.41516 0.28157 0.5502 0.0
H260 H 0.30902 0.18663 0.54081 0.0
H261 H 0.54444 0.21331 0.5944 0.0
H262 H 0.36151 0.12367 0.60927 0.0
H263 H 0.41714 0.24281 0.62065 0.0
C264 C 0.82288 0.15508 0.56933 0.0
C265 C 0.81392 0.12237 0.56043 0.0
N266 N 0.81067 0.12773 0.54309 0.0
N267 N 0.82545 0.18138 0.55772 0.0
C268 C 0.81829 0.16384 0.54179 0.0
H269 H 0.8253 0.15832 0.58352 0.0
Co270 Co 0.82814 0.22819 0.56261 0.0
C271 C 0.90029 0.28669 0.54575 0.0
O272 O 0.90342 0.31204 0.5573 0.0
N273 N 0.82882 0.27406 0.56704 0.0
C274 C 0.81888 0.31812 0.57896 0.0
C275 C 0.82184 0.28668 0.5823 0.0
C276 C 0.82914 0.29813 0.55457 0.0
N277 N 0.82353 0.32532 0.5615 0.0
O278 O 0.79277 0.21948 0.54401 0.0
H279 H 0.81749 0.27339 0.59506 0.0
H280 H 0.83239 0.29512 0.54055 0.0
O281 O 0.87217 0.25305 0.54653 0.0
C282 C 0.76035 0.1987 0.55089 0.0
O283 O 0.75887 0.18253 0.56614 0.0
N284 N 0.85868 0.23518 0.58272 0.0
C285 C 0.89029 0.24308 0.6164 0.0
C286 C 0.9133 0.2553 0.60129 0.0
C287 C 0.89682 0.2503 0.58443 0.0
C288 C 0.83612 0.22185 0.59727 0.0
C289 C 0.85121 0.22548 0.61415 0.0
H290 H 0.9149 0.25853 0.57302 0.0
H291 H 0.80588 0.20878 0.59571 0.0
H292 H 0.81617 0.17653 0.52959 0.0
H293 H 0.80902 0.09627 0.56639 0.0
H294 H 0.81344 0.3343 0.58864 0.0
H295 H 0.94364 0.26821 0.60249 0.0
H296 H 0.83239 0.21547 0.62543 0.0
C297 C 0.98703 0.53075 0.11783 0.0
C298 C 1.01443 0.56616 0.12262 0.0
N299 N 1.02283 0.56558 0.1398 0.0
N300 N 0.97826 0.50715 0.13174 0.0
C301 C 1.00022 0.52945 0.14513 0.0
H302 H 0.97336 0.52318 0.10506 0.0
Co303 Co 0.93888 0.45661 0.13064 0.0
C304 C 0.9686 0.40915 0.14369 0.0
O305 O 0.95034 0.38716 0.13027 0.0
N306 N 0.89731 0.40587 0.12967 0.0
C307 C 0.84815 0.35066 0.12162 0.0
C308 C 0.87865 0.38328 0.11573 0.0
C309 C 0.87718 0.38553 0.14393 0.0
N310 N 0.84734 0.35213 0.1393 0.0
O311 O 0.91476 0.4654 0.15034 0.0
H312 H 0.88551 0.38932 0.10197 0.0
H313 H 0.88359 0.39542 0.15746 0.0
O314 O 0.96735 0.43963 0.14601 0.0
C315 C 0.89418 0.47679 0.14292 0.0
O316 O 0.89698 0.48204 0.12571 0.0
N317 N 0.96082 0.4506 0.10975 0.0
C318 C 0.99353 0.45979 0.07642 0.0
C319 C 1.01333 0.46034 0.09168 0.0
C320 C 0.99652 0.45591 0.10832 0.0
C321 C 0.94206 0.45129 0.09494 0.0
C322 C 0.95729 0.45458 0.07815 0.0
H323 H 1.0134 0.45986 0.11998 0.0
H324 H 0.91595 0.45172 0.09625 0.0
H325 H 0.99909 0.51961 0.15854 0.0
H326 H 1.02606 0.59094 0.11429 0.0
H327 H 0.82755 0.32784 0.11351 0.0
H328 H 0.04228 0.46645 0.0908 0.0
H329 H 0.94215 0.45622 0.06671 0.0
C330 C 0.5001 0.48689 0.12346 0.0
C331 C 0.46379 0.4703 0.1295 0.0
N332 N 0.46175 0.45226 0.14462 0.0
N333 N 0.52169 0.47946 0.13459 0.0
C334 C 0.497 0.45844 0.14758 0.0
H335 H 0.5095 0.50338 0.1115 0.0
Co336 Co 0.57291 0.48943 0.13096 0.0
C337 C 0.58358 0.56151 0.14519 0.0
O338 O 0.55555 0.55615 0.13488 0.0
N339 N 0.62154 0.49701 0.12744 0.0
C340 C 0.66677 0.48968 0.11519 0.0
C341 C 0.63357 0.48936 0.11221 0.0
C342 C 0.6481 0.50191 0.13957 0.0
N343 N 0.67574 0.49718 0.13242 0.0
O344 O 0.56862 0.45868 0.15106 0.0
H345 H 0.618 0.48131 0.09992 0.0
H346 H 0.6455 0.50551 0.15359 0.0
O347 O 0.59406 0.5367 0.14546 0.0
C348 C 0.55341 0.42539 0.14466 0.0
O349 O 0.5413 0.42024 0.12821 0.0
N350 N 0.57731 0.51503 0.1095 0.0
C351 C 0.58468 0.53937 0.07432 0.0
C352 C 0.60613 0.56455 0.08789 0.0
C353 C 0.60261 0.55162 0.10538 0.0
C354 C 0.55745 0.49006 0.09638 0.0
C355 C 0.56035 0.5016 0.07885 0.0
H356 H 0.62127 0.57068 0.11536 0.0
H357 H 0.53957 0.46062 0.09959 0.0
H358 H 0.5039 0.44595 0.15853 0.0
H359 H 0.44025 0.47043 0.12297 0.0
H360 H 0.68212 0.48283 0.10562 0.0
H361 H 0.62587 0.59382 0.08503 0.0
H362 H 0.54444 0.48062 0.06888 0.0
C363 C 0.58238 0.05112 0.12013 0.0
C364 C 0.59291 0.02538 0.12488 0.0
N365 N 0.58409 1.01636 0.14201 0.0
N366 N 0.56607 0.05809 0.13402 0.0
C367 C 0.56809 0.03684 0.14736 0.0
H368 H 0.58723 0.06465 0.10736 0.0
Co369 Co 0.55052 0.09452 0.13316 0.0
C370 C 0.47172 0.0559 0.14607 0.0
O371 O 0.46308 0.06901 0.13209 0.0
N372 N 0.53636 0.13331 0.13231 0.0
C373 C 0.51324 0.17043 0.12421 0.0
C374 C 0.51555 0.13912 0.12003 0.0
C375 C 0.54649 0.16246 0.14382 0.0
N376 N 0.53277 0.18528 0.13918 0.0
O377 O 0.58135 0.11852 0.15346 0.0
H378 H 0.50162 0.12145 0.10875 0.0
H379 H 0.56345 0.16705 0.15553 0.0
O380 O 0.5056 0.06237 0.14821 0.0
C381 C 0.61415 0.14013 0.14715 0.0
O382 O 0.61893 0.14058 0.12994 0.0
N383 N 0.52494 0.07281 0.11172 0.0
C384 C 0.50666 0.04346 0.07746 0.0
C385 C 0.48908 0.02047 0.09221 0.0
C386 C 0.49863 0.03572 0.10932 0.0
C387 C 0.54259 0.09515 0.09744 0.0
C388 C 0.53305 0.08139 0.08021 0.0
H389 H 0.4871 1.01714 0.12058 0.0
H390 H 0.56536 0.12364 0.0995 0.0
H391 H 0.55849 0.03674 0.16071 0.0
H392 H 0.60723 1.01502 0.11651 0.0
H393 H 0.49882 0.18182 0.11656 0.0
H394 H 0.46963 0.99063 0.09055 0.0
H395 H 0.54827 0.09956 0.06919 0.0
C396 C 0.55963 0.98918 0.90115 0.0
C397 C 0.5934 1.01088 0.89256 0.0
N398 N 0.58654 1.01082 0.87509 0.0
N399 N 0.53121 0.97559 0.88925 0.0
C400 C 0.54851 0.98957 0.87355 0.0
H401 H 0.55646 0.98179 0.91502 0.0
Co402 Co 0.48051 0.93703 0.8927 0.0
C403 C 0.43619 0.97426 0.88397 0.0
O404 O 0.41758 0.96011 0.89872 0.0
N405 N 0.4288 0.89706 0.89561 0.0
C406 C 0.37043 0.8579 0.90541 0.0
C407 C 0.40446 0.88915 0.90927 0.0
C408 C 0.40807 0.86959 0.88362 0.0
N409 N 0.37279 0.8455 0.88929 0.0
O410 O 0.48389 0.91218 0.8716 0.0
H411 H 0.41007 0.90541 0.92125 0.0
H412 H 0.41802 0.86741 0.87071 0.0
O413 O 0.46278 0.96775 0.87969 0.0
C414 C 0.50053 0.89505 0.87769 0.0
O415 O 0.51181 0.90111 0.89427 0.0
N416 N 0.48061 0.95759 0.91504 0.0
C417 C 0.4917 0.97749 0.95097 0.0
C418 C 0.49232 1.0028 0.93811 0.0
C419 C 0.4872 0.99245 0.92005 0.0
C420 C 0.48093 0.93345 0.92735 0.0
C421 C 0.48498 0.94213 0.94522 0.0
H422 H 0.49008 1.01281 0.91016 0.0
H423 H 0.47766 0.90673 0.92318 0.0
H424 H 0.53345 0.98244 0.86109 0.0
H425 H 0.62102 0.02338 0.89862 0.0
H426 H 0.34593 0.84502 0.91394 0.0
H427 H 0.49824 0.03074 0.94184 0.0
H428 H 0.48337 0.92114 0.95445 0.0
C429 C 0.05549 0.56499 0.90373 0.0
C430 C 0.03184 0.5752 0.89557 0.0
N431 N 0.03508 0.57299 0.87796 0.0
N432 N 0.0733 0.55579 0.89134 0.0
C433 C 0.0601 0.5609 0.87575 0.0
H434 H 0.06068 0.56624 0.91781 0.0
Co435 Co 0.11308 0.54538 0.89439 0.0
C436 C 0.0794 0.46534 0.88428 0.0
O437 O 0.09558 0.46083 0.89835 0.0
N438 N 0.15386 0.53512 0.89692 0.0
C439 C 0.19481 0.51761 0.90614 0.0
C440 C 0.16432 0.52117 0.91076 0.0
C441 C 0.17896 0.53963 0.88407 0.0
N442 N 0.20402 0.52938 0.88938 0.0
O443 O 0.13757 0.57505 0.87363 0.0
H444 H 0.15017 0.51237 0.92334 0.0
H445 H 0.17852 0.54922 0.8708 0.0
O446 O 0.08375 0.49796 0.88086 0.0
C447 C 0.15331 0.60882 0.87952 0.0
O448 O 0.14633 0.61405 0.89593 0.0
N449 N 0.09268 0.52311 0.9163 0.0
C450 C 0.071 0.51262 0.95186 0.0
C451 C 0.04741 0.48703 0.93883 0.0
C452 C 0.05865 0.49305 0.92094 0.0
C453 C 0.11525 0.5482 0.92879 0.0
C454 C 0.10575 0.5428 0.94653 0.0
H455 H 0.03932 0.47495 0.91088 0.0
H456 H 0.14121 0.57286 0.92483 0.0
H457 H 0.0699 0.5574 0.86298 0.0
H458 H 1.01548 0.58589 0.90206 0.0
H459 H 0.20926 0.50732 0.91451 0.0
H460 H 1.01995 0.46377 0.9423 0.0
H461 H 0.12544 0.56291 0.95596 0.0
C462 C 0.48755 0.49199 0.89888 0.0
C463 C 0.47601 0.45871 0.88996 0.0
N464 N 0.47645 0.46523 0.87246 0.0
N465 N 0.49571 0.51987 0.88713 0.0
C466 C 0.4892 0.50272 0.87115 0.0
H467 H 0.48701 0.49473 0.91308 0.0
Co468 Co 0.50196 0.56819 0.89186 0.0
C469 C 0.57876 0.62277 0.88021 0.0
O470 O 0.58194 0.64204 0.89462 0.0
N471 N 0.50709 0.61683 0.89609 0.0
C472 C 0.51729 0.67182 0.90707 0.0
C473 C 0.51589 0.63834 0.9109 0.0
C474 C 0.50311 0.63839 0.88351 0.0
N475 N 0.50906 0.67168 0.88986 0.0
O476 O 0.47011 0.56253 0.87209 0.0
H477 H 0.52233 0.6315 0.92372 0.0
H478 H 0.49718 0.63057 0.86972 0.0
O479 O 0.54804 0.5919 0.87718 0.0
C480 C 0.43648 0.54137 0.87752 0.0
O481 O 0.43163 0.52632 0.89336 0.0
N482 N 0.52849 0.57083 0.91275 0.0
C483 C 0.55425 0.56823 0.94679 0.0
C484 C 0.5765 0.57259 0.93181 0.0
C485 C 0.56276 0.57306 0.91481 0.0
C486 C 0.50564 0.56389 0.92701 0.0
C487 C 0.51821 0.56354 0.94409 0.0
H488 H 0.57931 0.57445 0.90342 0.0
H489 H 0.47759 0.55971 0.92508 0.0
H490 H 0.49142 0.51718 0.85885 0.0
H491 H 0.46514 0.43133 0.89607 0.0
H492 H 0.5238 0.69455 0.91625 0.0
H493 H 0.60387 0.57474 0.93315 0.0
H494 H 0.49981 0.56014 0.95506 0.0
C495 C 0.65184 0.86085 0.4473 0.0
C496 C 0.6756 0.89879 0.44992 0.0
N497 N 0.6871 0.90449 0.46696 0.0
N498 N 0.64848 0.84237 0.46254 0.0
C499 C 0.67012 0.86967 0.47431 0.0
H500 H 0.63695 0.84765 0.4352 0.0
Co501 Co 0.61548 0.79097 0.46668 0.0
C502 C 0.6508 0.7748 0.49667 0.0
O503 O 0.62025 0.76552 0.50596 0.0
N504 N 0.582 0.73921 0.4712 0.0
C505 C 0.55917 0.67808 0.47624 0.0
C506 C 0.59047 0.71128 0.47129 0.0
C507 C 0.5452 0.72203 0.4759 0.0
N508 N 0.53064 0.68491 0.47923 0.0
O509 O 0.59404 0.80449 0.486 0.0
H510 H 0.61796 0.71497 0.46826 0.0
H511 H 0.52912 0.73625 0.47676 0.0
O512 O 0.65362 0.78809 0.48111 0.0
C513 C 0.56935 0.80987 0.47821 0.0
O514 O 0.56545 0.80508 0.46097 0.0
N515 N 0.6332 0.77852 0.44637 0.0
C516 C 0.65298 0.76762 0.41255 0.0
C517 C 0.68086 0.78689 0.42543 0.0
C518 C 0.67029 0.79172 0.44245 0.0
C519 C 0.60591 0.75952 0.43399 0.0
C520 C 0.61514 0.75314 0.41709 0.0
H521 H 0.6919 0.80794 0.45212 0.0
H522 H 0.5768 0.75052 0.43702 0.0
H523 H 0.67258 0.86404 0.48809 0.0
H524 H 0.68249 0.92058 0.44015 0.0
H525 H 0.55789 0.65122 0.47785 0.0
H526 H 0.71044 0.79893 0.4222 0.0
H527 H 0.593 0.73882 0.40736 0.0
C528 C 0.18696 0.79642 0.45455 0.0
C529 C 0.14997 0.78291 0.45948 0.0
N530 N 0.14963 0.79657 0.47566 0.0
N531 N 0.20991 0.81857 0.46754 0.0
C532 C 0.18637 0.81812 0.48022 0.0
H533 H 0.1965 0.78955 0.44252 0.0
Co534 Co 0.26216 0.83887 0.46866 0.0
C535 C 0.28456 0.89126 0.49816 0.0
O536 O 0.29648 0.87049 0.50602 0.0
N537 N 0.3151 0.85954 0.46998 0.0
C538 C 0.37616 0.90233 0.47173 0.0
C539 C 0.34088 0.89621 0.46741 0.0
C540 C 0.33571 0.84387 0.47555 0.0
N541 N 0.37282 0.86937 0.47692 0.0
O542 O 0.25487 0.80721 0.48866 0.0
H543 H 0.33428 0.9176 0.46336 0.0
H544 H 0.32384 0.81473 0.47931 0.0
O545 O 0.26763 0.88069 0.48325 0.0
C546 C 0.24974 0.77634 0.48213 0.0
O547 O 0.25216 0.77379 0.4649 0.0
N548 N 0.26771 0.86551 0.44778 0.0
C549 C 0.26928 0.89094 0.41341 0.0
C550 C 0.26244 0.90835 0.42784 0.0
C551 C 0.26124 0.89478 0.44505 0.0
C552 C 0.27548 0.84918 0.43397 0.0
C553 C 0.27626 0.86132 0.41669 0.0
H554 H 0.25405 0.90696 0.456 0.0
H555 H 0.27992 0.82564 0.43639 0.0
H556 H 0.196 0.83184 0.49292 0.0
H557 H 0.12526 0.76417 0.45182 0.0
H558 H 0.40219 0.92904 0.47124 0.0
H559 H 0.25658 0.93111 0.42574 0.0
H560 H 0.28178 0.84729 0.40592 0.0
C561 C 0.23487 0.38807 0.45272 0.0
C562 C 0.24736 0.3655 0.46013 0.0
N563 N 0.24608 0.36787 0.47785 0.0
N564 N 0.22517 0.40427 0.46572 0.0
C565 C 0.23217 0.39114 0.48087 0.0
H566 H 0.23505 0.39385 0.43875 0.0
Co567 Co 0.21301 0.44308 0.46406 0.0
C568 C 0.1339 0.40818 0.47623 0.0
O569 O 0.12726 0.42547 0.46331 0.0
N570 N 0.20118 0.48299 0.463 0.0
C571 C 0.18125 0.52311 0.45557 0.0
C572 C 0.18528 0.4934 0.44997 0.0
C573 C 0.20654 0.5074 0.47633 0.0
N574 N 0.19467 0.53169 0.47211 0.0
O575 O 0.24356 0.4665 0.48468 0.0
H576 H 0.17556 0.47974 0.43732 0.0
H577 H 0.21834 0.50733 0.48912 0.0
O578 O 0.16675 0.41187 0.47805 0.0
C579 C 0.27699 0.48362 0.47838 0.0
O580 O 0.28164 0.47939 0.4615 0.0
N581 N 0.18954 0.42371 0.44224 0.0
C582 C 0.17906 0.40289 0.40656 0.0
C583 C 0.15411 0.37847 0.41955 0.0
C584 C 0.16004 0.38938 0.43752 0.0
C585 C 0.21352 0.44744 0.42974 0.0
C586 C 0.20804 0.4383 0.41195 0.0
H587 H 0.14267 0.36952 0.44757 0.0
H588 H 0.23768 0.47379 0.43373 0.0
H589 H 0.22891 0.39996 0.49393 0.0
H590 H 0.25903 0.35067 0.45305 0.0
H591 H 0.1697 0.53755 0.44806 0.0
H592 H 0.13166 0.35062 0.41601 0.0
H593 H 0.22749 0.4586 0.40253 0.0
H594 H 0.44481 0.44998 0.17967 0.0
H595 H 0.40052 0.39641 0.12906 0.0
H596 H 0.33851 0.35497 0.14273 0.0
H597 H 0.38997 0.3651 0.2075 0.0
H598 H 0.38207 0.39083 0.22471 0.0
H599 H 0.42415 0.41388 0.21141 0.0
H600 H 0.40797 0.4655 0.20294 0.0
H601 H 0.36576 0.44251 0.21611 0.0
H602 H 0.36285 0.45204 0.19304 0.0
H603 H 0.28085 0.3222 0.16106 0.0
H604 H 0.2302 0.29907 0.18317 0.0
H605 H 0.30975 0.37476 0.2223 0.0
C606 C 0.42215 0.42889 0.17167 0.0
C607 C 0.42728 0.42603 0.15336 0.0
C608 C 0.39694 0.39883 0.1431 0.0
C609 C 0.36173 0.3752 0.15076 0.0
C610 C 0.35715 0.37919 0.16873 0.0
C611 C 0.38643 0.40522 0.17913 0.0
C612 C 0.37293 0.40497 0.19789 0.0
C613 C 0.39351 0.39298 0.21116 0.0
C614 C 0.37766 0.44355 0.20277 0.0
C615 C 0.33154 0.37516 0.19627 0.0
C616 C 0.32327 0.36057 0.17934 0.0
C617 C 0.28695 0.33336 0.17439 0.0
C618 C 0.2582 0.32064 0.18705 0.0
C619 C 0.26565 0.33519 0.20453 0.0
C620 C 0.30304 0.36276 0.20914 0.0
H621 H 0.67911 0.95889 0.21906 0.0
H622 H 0.66295 0.86563 0.18581 0.0
H623 H 0.62952 0.88323 0.16385 0.0
H624 H 0.5886 0.95231 0.20998 0.0
H625 H 0.60775 1.00261 0.20987 0.0
H626 H 0.62944 0.98213 0.22325 0.0
H627 H 0.69352 0.02462 0.2079 0.0
H628 H 0.6721 0.04536 0.19456 0.0
H629 H 0.69646 0.02405 0.18411 0.0
H630 H 0.59915 0.91178 0.14521 0.0
H631 H 0.57689 0.95095 0.13045 0.0
H632 H 0.61188 0.02568 0.17575 0.0
C633 C 0.66811 0.94175 0.2073 0.0
C634 C 0.67356 0.91056 0.20428 0.0
C635 C 0.65943 0.88967 0.18843 0.0
C636 C 0.64014 0.89933 0.17593 0.0
C637 C 0.63515 0.93005 0.1794 0.0
C638 C 0.64887 0.95108 0.19466 0.0
C639 C 0.64098 0.98366 0.19487 0.0
C640 C 0.61515 0.97994 0.21042 0.0
C641 C 0.67797 0.02167 0.19539 0.0
C642 C 0.62081 0.97785 0.17727 0.0
C643 C 0.61763 0.9466 0.16863 0.0
C644 C 0.60136 0.93615 0.1519 0.0
C645 C 0.5888 0.95858 0.14361 0.0
C646 C 0.59243 0.99121 0.15197 0.0
C647 C 0.60805 1.00052 0.16919 0.0
H648 H 1.01482 0.58268 0.17393 0.0
H649 H 0.08831 0.62376 0.12823 0.0
H650 H 0.12746 0.68474 0.14313 0.0
H651 H 1.01534 0.66691 0.1833 0.0
H652 H 1.01591 0.66302 0.20705 0.0
H653 H 0.99541 0.6212 0.19358 0.0
H654 H 0.03981 0.60045 0.20785 0.0
H655 H 0.06017 0.64203 0.22153 0.0
H656 H 0.09003 0.63222 0.20764 0.0
H657 H 0.15522 0.74351 0.16175 0.0
H658 H 0.17265 0.79388 0.18406 0.0
H659 H 0.08216 0.7148 0.2179 0.0
C660 C 0.03975 0.60417 0.16732 0.0
C661 C 0.0485 0.59845 0.1499 0.0
C662 C 0.08095 0.62762 0.14152 0.0
C663 C 0.1034 0.66236 0.14988 0.0
C664 C 0.09332 0.66765 0.16677 0.0
C665 C 0.0626 0.63923 0.17553 0.0
C666 C 0.05723 0.65291 0.19336 0.0
C667 C 1.01869 0.65089 0.19437 0.0
C668 C 0.06211 0.63058 0.20849 0.0
C669 C 0.0893 0.69345 0.19309 0.0
C670 C 0.10976 0.70142 0.17762 0.0
C671 C 0.13969 0.73746 0.17403 0.0
C672 C 0.14925 0.76599 0.18669 0.0
C673 C 0.12914 0.75831 0.2028 0.0
C674 C 0.09868 0.72147 0.20591 0.0
H675 H 0.46337 0.39269 0.87314 0.0
H676 H 0.44979 0.47242 0.84037 0.0
H677 H 0.4168 0.42319 0.81802 0.0
H678 H 0.47692 0.34141 0.83713 0.0
H679 H 0.45033 0.29628 0.84782 0.0
H680 H 0.47511 0.33843 0.86095 0.0
H681 H 0.41297 0.32194 0.8771 0.0
H682 H 0.38796 0.27987 0.86396 0.0
H683 H 0.37236 0.314 0.86435 0.0
H684 H 0.38214 0.36493 0.79987 0.0
H685 H 0.35006 0.30204 0.78649 0.0
H686 H 0.38499 0.25843 0.83063 0.0
C687 C 0.45364 0.39998 0.86127 0.0
C688 C 0.45963 0.43693 0.85866 0.0
C689 C 0.44645 0.4449 0.84275 0.0
C690 C 0.42728 0.41689 0.82995 0.0
C691 C 0.42137 0.38083 0.83313 0.0
C692 C 0.43428 0.37226 0.84833 0.0
C693 C 0.4233 0.33088 0.84859 0.0
C694 C 0.45852 0.32651 0.84862 0.0
C695 C 0.39762 0.31048 0.86444 0.0
C696 C 0.4019 0.31753 0.83121 0.0
C697 C 0.40128 0.34694 0.82254 0.0
C698 C 0.38283 0.34178 0.80644 0.0
C699 C 0.36481 0.30577 0.79886 0.0
C700 C 0.36525 0.27497 0.80729 0.0
C701 C 0.38398 0.28114 0.8238 0.0
H702 H 0.79256 0.13028 0.83247 0.0
H703 H 0.74341 0.06793 0.78396 0.0
H704 H 0.68131 0.03527 0.79811 0.0
H705 H 0.73659 0.05284 0.8621 0.0
H706 H 0.73149 0.0818 0.87858 0.0
H707 H 0.77252 0.10152 0.86456 0.0
H708 H 0.7585 0.15385 0.85461 0.0
H709 H 0.71734 0.13419 0.86855 0.0
H710 H 0.71305 0.14097 0.84527 0.0
H711 H 0.62419 1.00828 0.81731 0.0
H712 H 0.57635 0.98723 0.84073 0.0
H713 H 0.66087 0.06615 0.8773 0.0
C714 C 0.76881 0.1097 0.82484 0.0
C715 C 0.77325 0.10233 0.80691 0.0
C716 C 0.74109 0.07506 0.79749 0.0
C717 C 0.70549 0.05602 0.80547 0.0
C718 C 0.70206 0.0642 0.823 0.0
C719 C 0.73278 0.09023 0.83264 0.0
C720 C 0.72108 0.09309 0.85142 0.0
C721 C 0.74164 0.08162 0.86496 0.0
C722 C 0.7279 0.13289 0.85518 0.0
C723 C 0.67914 0.06446 0.85077 0.0
C724 C 0.66884 0.04831 0.8342 0.0
C725 C 0.63187 0.02087 0.83033 0.0
C726 C 0.60469 1.00928 0.84377 0.0
C727 C 0.61438 0.02498 0.86101 0.0
C728 C 0.65228 0.05325 0.86439 0.0
H729 H 0.96649 0.568 0.87794 0.0
H730 H 0.07032 0.61114 0.84815 0.0
H731 H 0.04728 0.64128 0.82697 0.0
H732 H 0.90432 0.54899 0.83945 0.0
H733 H 0.87449 0.56269 0.85098 0.0
H734 H 0.89845 0.54282 0.86308 0.0
H735 H 0.92866 0.6014 0.88354 0.0
H736 H 0.90502 0.62154 0.87145 0.0
H737 H 0.95557 0.64761 0.87389 0.0
H738 H 1.01526 0.672 0.81083 0.0
H739 H 0.97417 0.6958 0.7994 0.0
H740 H 0.89025 0.63021 0.83895 0.0
C741 C 0.98411 0.58342 0.86682 0.0
C742 C 1.0201 0.58714 0.86463 0.0
C743 C 0.04243 0.60748 0.84992 0.0
C744 C 0.02967 0.62489 0.8379 0.0
C745 C 0.99429 0.62122 0.84064 0.0
C746 C 0.97157 0.60048 0.85459 0.0
C747 C 0.93493 0.60127 0.85472 0.0
C748 C 0.90105 0.56158 0.85188 0.0
C749 C 0.93083 0.61902 0.87192 0.0
C750 C 0.94089 0.62636 0.8389 0.0
C751 C 0.97537 0.63775 0.83099 0.0
C752 C 0.98797 0.66279 0.81676 0.0
C753 C 0.96462 0.67633 0.81042 0.0
C754 C 0.92896 0.66449 0.81817 0.0
C755 C 0.91703 0.63907 0.83254 0.0
H756 H 0.7976 0.74535 0.85687 0.0
H757 H 0.77117 0.69418 0.80471 0.0
H758 H 0.70403 0.65714 0.81289 0.0
H759 H 0.73198 0.66309 0.88104 0.0
H760 H 0.71956 0.6888 0.89639 0.0
H761 H 0.76561 0.71133 0.88639 0.0
H762 H 0.75492 0.76478 0.87464 0.0
H763 H 0.70888 0.74246 0.88465 0.0
H764 H 0.71389 0.75306 0.86132 0.0
H765 H 0.63918 0.62378 0.82727 0.0
H766 H 0.58231 0.60017 0.8462 0.0
H767 H 0.65143 0.67476 0.88834 0.0
C768 C 0.77771 0.72641 0.84716 0.0
C769 C 0.78978 0.72287 0.83012 0.0
C770 C 0.76271 0.69777 0.81779 0.0
C771 C 0.72443 0.67639 0.82234 0.0
C772 C 0.71348 0.68049 0.83925 0.0
C773 C 0.73932 0.70509 0.85142 0.0
C774 C 0.72023 0.70464 0.86864 0.0
C775 C 0.73524 0.69116 0.88402 0.0
C776 C 0.72475 0.74354 0.87253 0.0
C777 C 0.67971 0.67598 0.86426 0.0
C778 C 0.6763 0.66208 0.84731 0.0
C779 C 0.64151 0.63466 0.84054 0.0
C780 C 0.60938 0.62134 0.85137 0.0
C781 C 0.61229 0.63577 0.86868 0.0
C782 C 0.64805 0.66337 0.8751 0.0
H783 H 0.37927 0.98935 0.89006 0.0
H784 H 0.47016 1.01425 0.8533 0.0
H785 H 0.45234 0.05467 0.83599 0.0
H786 H 0.31234 0.98297 0.85816 0.0
H787 H 0.29253 1.00384 0.87246 0.0
H788 H 0.31354 0.97821 0.88185 0.0
H789 H 0.35809 0.03652 0.90073 0.0
H790 H 0.33739 0.06244 0.89129 0.0
H791 H 0.38759 0.08102 0.88996 0.0
H792 H 0.42232 0.09172 0.82237 0.0
H793 H 0.38259 0.11885 0.81338 0.0
H794 H 0.31247 0.06909 0.85969 0.0
C795 C 0.39571 1.00333 0.87841 0.0
C796 C 0.42629 0.99856 0.8731 0.0
C797 C 0.44667 1.01737 0.85767 0.0
C798 C 0.43677 0.04049 0.8478 0.0
C799 C 0.40646 0.04456 0.85352 0.0
C800 C 0.38627 0.02631 0.86849 0.0
C801 C 0.35432 0.0342 0.87178 0.0
C802 C 0.31592 0.99764 0.87101 0.0
C803 C 0.35969 0.05477 0.88949 0.0
C804 C 0.35933 0.05968 0.85627 0.0
C805 C 0.38959 0.06556 0.84587 0.0
C806 C 0.39875 0.08736 0.83052 0.0
C807 C 0.37605 0.10283 0.82554 0.0
C808 C 0.34441 0.09644 0.83585 0.0
C809 C 0.33657 0.07499 0.85156 0.0
H810 H 0.0682 0.39424 0.88828 0.0
H811 H 0.03429 0.45962 0.85569 0.0
H812 H 0.99228 0.40204 0.83847 0.0
H813 H 0.07081 0.33629 0.85381 0.0
H814 H 0.05337 0.2951 0.86765 0.0
H815 H 0.0797 0.34128 0.87731 0.0
H816 H 1.02448 0.3252 0.89888 0.0
H817 H 0.99783 0.27906 0.88918 0.0
H818 H 0.97797 0.30966 0.89013 0.0
H819 H 0.95442 0.33605 0.82454 0.0
H820 H 0.92706 0.27 0.81458 0.0
H821 H 0.98631 0.24926 0.85688 0.0
C822 C 0.05196 0.39668 0.87756 0.0
C823 C 0.05459 0.43162 0.87338 0.0
C824 C 0.03284 0.43327 0.85914 0.0
C825 C 1.00881 0.40064 0.84934 0.0
C826 C 1.0068 0.36661 0.85395 0.0
C827 C 0.02799 0.36461 0.86772 0.0
C828 C 1.0217 0.32512 0.86991 0.0
C829 C 0.05858 0.32442 0.86699 0.0
C830 C 1.00447 0.30881 0.8881 0.0
C831 C 0.99373 0.30498 0.85516 0.0
C832 C 0.98528 0.32921 0.84611 0.0
C833 C 0.96082 0.31692 0.83162 0.0
C834 C 0.94531 0.27925 0.82608 0.0
C835 C 0.95431 0.25418 0.83496 0.0
C836 C 0.97841 0.26737 0.84987 0.0
H837 H 0.73103 0.72096 0.21176 0.0
H838 H 0.6921 0.79433 0.19059 0.0
H839 H 0.64942 0.7436 0.17028 0.0
H840 H 0.72893 0.67516 0.17011 0.0
H841 H 0.71283 0.62973 0.18015 0.0
H842 H 0.74115 0.67203 0.19274 0.0
H843 H 0.68953 0.6486 0.2169 0.0
H844 H 0.66098 0.6063 0.20437 0.0
H845 H 0.642 0.6359 0.21082 0.0
H846 H 0.60939 0.68487 0.15334 0.0
H847 H 0.57552 0.62258 0.13961 0.0
H848 H 0.64039 0.5857 0.17096 0.0
C849 C 0.71371 0.72652 0.20278 0.0
C850 C 0.71498 0.76182 0.20281 0.0
C851 C 0.69178 0.76773 0.19083 0.0
C852 C 0.66739 0.73901 0.17926 0.0
C853 C 0.6666 0.70455 0.17972 0.0
C854 C 0.68928 0.69818 0.19107 0.0
C855 C 0.68255 0.6583 0.18897 0.0
C856 C 0.71851 0.65885 0.18261 0.0
C857 C 0.66789 0.63596 0.20629 0.0
C858 C 0.65227 0.64311 0.17471 0.0
C859 C 0.64361 0.67043 0.16968 0.0
C860 C 0.61607 0.66335 0.15711 0.0
C861 C 0.59684 0.62757 0.14942 0.0
C862 C 0.60508 0.59883 0.15415 0.0
C863 C 0.63343 0.60691 0.16698 0.0
H864 H 0.2828 1.00985 0.1957 0.0
H865 H 0.26575 0.89933 0.20861 0.0
H866 H 0.32675 0.91605 0.19421 0.0
H867 H 0.32394 1.01658 0.15254 0.0
H868 H 0.35569 0.06653 0.15459 0.0
H869 H 0.31099 0.0449 0.16584 0.0
H870 H 0.34567 0.07246 0.19555 0.0
H871 H 0.39052 0.09354 0.18443 0.0
H872 H 0.38153 0.06207 0.2028 0.0
H873 H 0.39327 0.94812 0.17941 0.0
H874 H 0.45184 0.9878 0.16215 0.0
H875 H 0.42157 0.07491 0.15827 0.0
C876 C 0.29168 0.98897 0.19538 0.0
C877 C 0.26955 0.95329 0.2033 0.0
C878 C 0.2821 0.92672 0.20249 0.0
C879 C 0.31689 0.93615 0.19448 0.0
C880 C 0.33852 0.97208 0.18715 0.0
C881 C 0.32581 0.99769 0.18726 0.0
C882 C 0.35324 0.03399 0.1781 0.0
C883 C 0.33487 0.04088 0.1618 0.0
C884 C 0.36864 0.06748 0.19099 0.0
C885 C 0.38362 0.02511 0.17281 0.0
C886 C 0.37518 0.98956 0.17832 0.0
C887 C 0.39988 0.97588 0.175 0.0
C888 C 0.43326 0.99868 0.16536 0.0
C889 C 0.44119 0.03438 0.15898 0.0
C890 C 0.41621 0.04772 0.16303 0.0
H891 H 0.05187 0.27736 0.17127 0.0
H892 H 0.12246 0.36082 0.21019 0.0
H893 H 0.09735 0.40186 0.20052 0.0
H894 H 0.05906 0.34302 0.13687 0.0
H895 H 1.01072 0.3136 0.13007 0.0
H896 H 0.03648 0.29263 0.13941 0.0
H897 H 0.98444 0.2595 0.16316 0.0
H898 H 0.95875 0.28071 0.15403 0.0
H899 H 0.97198 0.28736 0.17707 0.0
H900 H 0.06089 0.43273 0.18704 0.0
H901 H 1.0193 0.45027 0.17045 0.0
H902 H 0.97303 0.34517 0.14134 0.0
C903 C 0.06264 0.30453 0.1776 0.0
C904 C 0.08938 0.31583 0.19144 0.0
C905 C 0.10219 0.35152 0.19947 0.0
C906 C 0.08796 0.37502 0.1941 0.0
C907 C 0.06091 0.36254 0.18067 0.0
C908 C 0.04868 0.32816 0.17247 0.0
C909 C 1.01864 0.3204 0.15879 0.0
C910 C 0.03204 0.31724 0.14019 0.0
C911 C 0.98125 0.2849 0.16356 0.0
C912 C 1.0156 0.35559 0.16059 0.0
C913 C 0.04013 0.37977 0.17321 0.0
C914 C 0.0417 0.41395 0.17708 0.0
C915 C 1.01788 0.42366 0.16766 0.0
C916 C 0.99282 0.39923 0.15457 0.0
C917 C 0.99181 0.36472 0.1512 0.0
H918 H 0.08095 0.73213 0.47551 0.0
H919 H 0.14424 0.84217 0.50003 0.0
H920 H 0.08934 0.82793 0.51879 0.0
H921 H 0.98832 0.72674 0.47584 0.0
H922 H 0.9632 0.6772 0.48102 0.0
H923 H 1.0064 0.6969 0.46851 0.0
H924 H 0.03466 0.67075 0.49145 0.0
H925 H 0.99154 0.65084 0.50394 0.0
H926 H 0.03573 0.68259 0.5145 0.0
H927 H 0.02957 0.80073 0.5361 0.0
H928 H 0.96978 0.76103 0.55195 0.0
H929 H 0.94389 0.66844 0.51636 0.0
C930 C 0.08302 0.7535 0.48459 0.0
C931 C 0.11698 0.78843 0.48622 0.0
C932 C 0.11874 0.8152 0.49861 0.0
C933 C 0.08756 0.80746 0.50922 0.0
C934 C 0.05466 0.77277 0.50733 0.0
C935 C 0.05215 0.74613 0.49538 0.0
C936 C 1.01423 0.71013 0.49681 0.0
C937 C 0.99171 0.70229 0.47951 0.0
C938 C 1.01937 0.67661 0.50199 0.0
C939 C 0.99607 0.72049 0.51166 0.0
C940 C 1.01986 0.75695 0.51737 0.0
C941 C 1.01055 0.77235 0.53159 0.0
C942 C 0.97657 0.74968 0.54049 0.0
C943 C 0.9521 0.712 0.5352 0.0
C944 C 0.96163 0.69749 0.52034 0.0
H945 H 0.24476 0.30101 0.47707 0.0
H946 H 0.28598 0.40426 0.50712 0.0
H947 H 0.31877 0.38302 0.52768 0.0
H948 H 0.22866 0.23981 0.5151 0.0
H949 H 0.24316 0.21072 0.50348 0.0
H950 H 0.22234 0.23385 0.49147 0.0
H951 H 0.2808 0.26515 0.47097 0.0
H952 H 0.30186 0.24227 0.48297 0.0
H953 H 0.32705 0.29277 0.48058 0.0
H954 H 0.35087 0.35216 0.54371 0.0
H955 H 0.37476 0.31144 0.55552 0.0
H956 H 0.31019 0.22727 0.51583 0.0
C957 C 0.26049 0.31894 0.48807 0.0
C958 C 0.26271 0.35417 0.49057 0.0
C959 C 0.28344 0.37691 0.50513 0.0
C960 C 0.30238 0.3652 0.51679 0.0
C961 C 0.29993 0.33044 0.51385 0.0
C962 C 0.27906 0.30741 0.49998 0.0
C963 C 0.28076 0.27128 0.49978 0.0
C964 C 0.24139 0.23688 0.50264 0.0
C965 C 0.29869 0.26768 0.48255 0.0
C966 C 0.3062 0.27777 0.51556 0.0
C967 C 0.31723 0.31218 0.52343 0.0
C968 C 0.34205 0.32498 0.53778 0.0
C969 C 0.35564 0.30183 0.54434 0.0
C970 C 0.34402 0.26614 0.5367 0.0
C971 C 0.31898 0.25412 0.52213 0.0
H972 H 0.68989 0.92143 0.50226 0.0
H973 H 0.73775 0.97018 0.45116 0.0
H974 H 0.77484 0.03246 0.46511 0.0
H975 H 0.68199 0.99874 0.51865 0.0
H976 H 0.6949 0.99479 0.54105 0.0
H977 H 0.67252 0.95368 0.52712 0.0
H978 H 0.72808 0.94145 0.53252 0.0
H979 H 0.75059 0.98247 0.54651 0.0
H980 H 0.77556 0.97818 0.52784 0.0
H981 H 0.80527 0.09053 0.48451 0.0
H982 H 0.8284 0.13882 0.50814 0.0
H983 H 0.7623 0.05225 0.54665 0.0
C984 C 0.70851 0.94499 0.494 0.0
C985 C 0.71049 0.94057 0.4755 0.0
C986 C 0.73505 0.97261 0.46526 0.0
C987 C 0.75649 1.00822 0.4731 0.0
C988 C 0.75346 1.01162 0.49128 0.0
C989 C 0.73029 0.98083 0.50163 0.0
C990 C 0.73195 0.99226 0.52086 0.0
C991 C 0.69303 0.9844 0.52729 0.0
C992 C 0.74747 0.97241 0.53262 0.0
C993 C 0.75954 0.03424 0.51967 0.0
C994 C 0.77152 0.0449 0.50248 0.0
C995 C 0.79623 0.08243 0.49804 0.0
C996 C 0.8091 0.10973 0.51153 0.0
C997 C 0.7975 0.09945 0.52929 0.0
C998 C 0.77235 0.06107 0.5333 0.0
H999 H 0.41797 0.07466 0.55431 0.0
H1000 H 0.37485 0.13499 0.5238 0.0
H1001 H 0.33228 0.07632 0.50766 0.0
H1002 H 0.41669 1.01505 0.51913 0.0
H1003 H 0.40257 0.97493 0.5334 0.0
H1004 H 0.42963 0.02184 0.54222 0.0
H1005 H 0.37807 1.00601 0.56592 0.0
H1006 H 0.35066 0.95917 0.55704 0.0
H1007 H 0.33003 0.98896 0.55902 0.0
H1008 H 0.29444 1.01016 0.49465 0.0
H1009 H 0.26646 0.94346 0.48553 0.0
H1010 H 0.33373 0.92729 0.52535 0.0
C1011 C 0.39978 0.07572 0.54417 0.0
C1012 C 0.3999 0.10957 0.54031 0.0
C1013 C 0.3754 0.10948 0.52698 0.0
C1014 C 0.35101 0.07624 0.51777 0.0
C1015 C 0.35133 0.04327 0.52209 0.0
C1016 C 0.37519 0.04287 0.53495 0.0
C1017 C 0.37024 1.00393 0.53715 0.0
C1018 C 0.40696 1.00396 0.53271 0.0
C1019 C 0.35642 0.98862 0.5559 0.0
C1020 C 0.33997 0.98241 0.52346 0.0
C1021 C 0.32933 1.00547 0.51489 0.0
C1022 C 0.30248 0.99185 0.50136 0.0
C1023 C 0.28665 0.95389 0.49629 0.0
C1024 C 0.29765 0.92997 0.50477 0.0
C1025 C 0.32428 0.94455 0.5187 0.0
H1026 H 0.08391 0.42543 0.49076 0.0
H1027 H 0.11211 0.33669 0.4881 0.0
H1028 H 0.05348 0.29414 0.50463 0.0
H1029 H 0.04619 0.40386 0.53572 0.0
H1030 H 1.01074 0.41658 0.53102 0.0
H1031 H 0.05481 0.43908 0.51922 0.0
H1032 H 1.01824 0.41895 0.48952 0.0
H1033 H 0.97408 0.39577 0.50123 0.0
H1034 H 0.9854 0.36983 0.4855 0.0
H1035 H 0.98792 0.25997 0.51943 0.0
H1036 H 0.92813 0.24088 0.53548 0.0
H1037 H 0.94673 0.35427 0.53021 0.0
C1038 C 0.07792 0.39714 0.49386 0.0
C1039 C 0.10234 0.38417 0.48819 0.0
C1040 C 0.09383 0.34714 0.4925 0.0
C1041 C 0.06047 0.32278 0.50173 0.0
C1042 C 0.03645 0.33624 0.5068 0.0
C1043 C 0.0454 0.37293 0.50338 0.0
C1044 C 1.01587 0.38123 0.51071 0.0
C1045 C 0.03292 0.412 0.52502 0.0
C1046 C 0.99731 0.39208 0.49585 0.0
C1047 C 0.98842 0.34333 0.5186 0.0
C1048 C 1.00034 0.31747 0.51601 0.0
C1049 C 0.97864 0.28018 0.52168 0.0
C1050 C 0.94456 0.26947 0.53062 0.0
C1051 C 0.93289 0.29612 0.53407 0.0
C1052 C 0.95504 0.33334 0.5278 0.0
H1053 H 0.70774 0.64675 0.55265 0.0
H1054 H 0.80248 0.67798 0.51741 0.0
H1055 H 0.7858 0.7207 0.50128 0.0
H1056 H 0.64349 0.64552 0.52071 0.0
H1057 H 0.62276 0.66419 0.53576 0.0
H1058 H 0.64291 0.63696 0.54415 0.0
H1059 H 0.68618 0.69202 0.56502 0.0
H1060 H 0.66638 0.71957 0.55658 0.0
H1061 H 0.71662 0.73806 0.55583 0.0
H1062 H 0.75596 0.75902 0.4886 0.0
H1063 H 0.71675 0.78744 0.48068 0.0
H1064 H 0.64394 0.73127 0.52548 0.0
C1065 C 0.72521 0.66242 0.54154 0.0
C1066 C 0.75646 0.65879 0.53628 0.0
C1067 C 0.77836 0.68014 0.52167 0.0
C1068 C 0.76911 0.70454 0.51248 0.0
C1069 C 0.73809 0.70745 0.51817 0.0
C1070 C 0.71662 0.68686 0.53242 0.0
C1071 C 0.68457 0.69434 0.53607 0.0
C1072 C 0.64618 0.6581 0.53404 0.0
C1073 C 0.68871 0.71206 0.55447 0.0
C1074 C 0.69086 0.72222 0.52154 0.0
C1075 C 0.72181 0.7296 0.5113 0.0
C1076 C 0.73192 0.75355 0.49667 0.0
C1077 C 0.7095 0.76969 0.49229 0.0
C1078 C 0.67735 0.76195 0.50253 0.0
C1079 C 0.66854 0.73832 0.51748 0.0
H1080 H 0.08983 0.31977 0.31062 0.0
H1081 H 0.20493 0.37587 0.29125 0.0
H1082 H 0.22824 0.39869 0.3214 0.0
H1083 H 0.10491 0.39425 0.34265 0.0
H1084 H 0.07339 0.36121 0.35882 0.0
H1085 H 0.0655 0.35007 0.33558 0.0
H1086 H 0.06634 0.28816 0.34141 0.0
H1087 H 0.07491 0.29944 0.3646 0.0
H1088 H 0.10677 0.29009 0.35203 0.0
H1089 H 0.23953 0.40907 0.35346 0.0
H1090 H 0.23898 0.41821 0.38545 0.0
H1091 H 0.11652 0.36139 0.38477 0.0
C1092 C 0.11986 0.33746 0.31275 0.0
C1093 C 0.14566 0.34637 0.29861 0.0
C1094 C 0.18475 0.36931 0.30183 0.0
C1095 C 0.19825 0.38203 0.31893 0.0
C1096 C 0.17225 0.37204 0.33263 0.0
C1097 C 0.13386 0.35115 0.32975 0.0
C1098 C 0.11228 0.34533 0.34693 0.0
C1099 C 0.08756 0.36383 0.34593 0.0
C1100 C 0.08868 0.30325 0.35151 0.0
C1101 C 0.14465 0.36582 0.35991 0.0
C1102 C 0.17888 0.38037 0.35129 0.0
C1103 C 0.21296 0.39882 0.3603 0.0
C1104 C 0.21226 0.40402 0.37851 0.0
C1105 C 0.17774 0.39183 0.38764 0.0
C1106 C 0.14337 0.37148 0.37822 0.0
H1107 H 0.71707 0.84967 0.31578 0.0
H1108 H 0.6803 0.73602 0.29744 0.0
H1109 H 0.66143 0.71251 0.32798 0.0
H1110 H 0.75916 0.84179 0.35597 0.0
H1111 H 0.74581 0.87074 0.36851 0.0
H1112 H 0.75398 0.87811 0.34505 0.0
H1113 H 0.68719 0.86932 0.34068 0.0
H1114 H 0.67893 0.86226 0.36413 0.0
H1115 H 0.64674 0.82719 0.34881 0.0
H1116 H 0.64611 0.70166 0.36095 0.0
H1117 H 0.63621 0.70485 0.39318 0.0
H1118 H 0.68924 0.82625 0.3898 0.0
C1119 C 0.70548 0.81984 0.31807 0.0
C1120 C 0.70047 0.79482 0.30403 0.0
C1121 C 0.68406 0.75584 0.3078 0.0
C1122 C 0.67357 0.74223 0.32517 0.0
C1123 C 0.67997 0.76795 0.33869 0.0
C1124 C 0.69564 0.80596 0.33529 0.0
C1125 C 0.7005 0.82807 0.35209 0.0
C1126 C 0.74235 0.85634 0.35561 0.0
C1127 C 0.67692 0.84786 0.35138 0.0
C1128 C 0.685 0.79658 0.36556 0.0
C1129 C 0.67299 0.76201 0.35759 0.0
C1130 C 0.65588 0.72862 0.36732 0.0
C1131 C 0.65051 0.73065 0.38558 0.0
C1132 C 0.66283 0.76583 0.3939 0.0
C1133 C 0.68059 0.79914 0.38377 0.0
H1134 H 0.20054 0.85242 0.31298 0.0
H1135 H 0.27983 0.96956 0.30161 0.0
H1136 H 0.30034 0.97964 0.33303 0.0
H1137 H 0.17202 0.8656 0.35523 0.0
H1138 H 0.16893 0.82383 0.3648 0.0
H1139 H 0.16173 0.82575 0.34139 0.0
H1140 H 0.2145 0.81 0.33472 0.0
H1141 H 0.22154 0.80756 0.35811 0.0
H1142 H 0.26065 0.83864 0.34426 0.0
H1143 H 0.30829 0.97736 0.36658 0.0
H1144 H 0.30849 0.96107 0.39826 0.0
H1145 H 0.22587 0.84495 0.38681 0.0
C1146 C 0.22251 0.88009 0.31709 0.0
C1147 C 0.23865 0.91026 0.30493 0.0
C1148 C 0.26741 0.94604 0.31073 0.0
C1149 C 0.27899 0.95204 0.32855 0.0
C1150 C 0.26185 0.92182 0.34031 0.0
C1151 C 0.23469 0.88639 0.3347 0.0
C1152 C 0.22079 0.85845 0.34983 0.0
C1153 C 0.17835 0.84248 0.35299 0.0
C1154 C 0.22993 0.8268 0.34653 0.0
C1155 C 0.24401 0.88369 0.3649 0.0
C1156 C 0.2673 0.92025 0.35926 0.0
C1157 C 0.29043 0.94873 0.37108 0.0
C1158 C 0.29022 0.93935 0.38903 0.0
C1159 C 0.26741 0.90179 0.39487 0.0
C1160 C 0.24388 0.87383 0.38263 0.0
H1161 H 0.38375 0.12795 0.64106 0.0
H1162 H 0.35959 0.21959 0.6364 0.0
H1163 H 0.34454 0.21435 0.66809 0.0
H1164 H 0.30727 0.07317 0.67298 0.0
H1165 H 0.33444 0.05685 0.68506 0.0
H1166 H 0.34267 0.06699 0.66175 0.0
H1167 H 0.41326 0.11298 0.66826 0.0
H1168 H 0.40515 0.10343 0.69161 0.0
H1169 H 0.42619 0.15116 0.68364 0.0
H1170 H 0.33611 0.2029 0.70019 0.0
H1171 H 0.32661 0.17996 0.731 0.0
H1172 H 0.35226 0.09314 0.71577 0.0
C1173 C 0.37465 0.14644 0.64666 0.0
C1174 C 0.37357 0.17469 0.63623 0.0
C1175 C 0.3616 0.19837 0.64413 0.0
C1176 C 0.35283 0.19555 0.66214 0.0
C1177 C 0.35551 0.16848 0.67215 0.0
C1178 C 0.36535 0.14377 0.66473 0.0
C1179 C 0.36543 0.11699 0.67869 0.0
C1180 C 0.33568 0.07607 0.67436 0.0
C1181 C 0.40486 0.12142 0.68066 0.0
C1182 C 0.35464 0.131 0.69508 0.0
C1183 C 0.34935 0.16093 0.6909 0.0
C1184 C 0.33989 0.17933 0.70363 0.0
C1185 C 0.33479 0.16631 0.72107 0.0
C1186 C 0.339 0.13513 0.72565 0.0
C1187 C 0.34928 0.1173 0.71254 0.0
H1188 H 0.89703 0.18421 0.71629 0.0
H1189 H 0.97483 0.30148 0.72806 0.0
H1190 H 0.97357 0.31768 0.69642 0.0
H1191 H 0.93321 0.18067 0.67392 0.0
H1192 H 0.88753 0.15007 0.66434 0.0
H1193 H 0.89482 0.14818 0.68775 0.0
H1194 H 0.83983 0.16061 0.69447 0.0
H1195 H 0.83206 0.16207 0.67109 0.0
H1196 H 0.8403 0.20124 0.68496 0.0
H1197 H 0.96529 0.31969 0.66277 0.0
H1198 H 0.94488 0.30886 0.63133 0.0
H1199 H 0.8706 0.1905 0.64254 0.0
C1200 C 0.91369 0.21333 0.71219 0.0
C1201 C 0.93622 0.24166 0.72449 0.0
C1202 C 0.95735 0.2795 0.71877 0.0
C1203 C 0.95695 0.28882 0.70085 0.0
C1204 C 0.93489 0.25998 0.68895 0.0
C1205 C 0.91317 0.22309 0.6945 0.0
C1206 C 0.8909 0.19737 0.67937 0.0
C1207 C 0.90231 0.16731 0.67616 0.0
C1208 C 0.84825 0.17927 0.68267 0.0
C1209 C 0.90352 0.2254 0.66431 0.0
C1210 C 0.92923 0.26132 0.66999 0.0
C1211 C 0.94505 0.29169 0.65825 0.0
C1212 C 0.93356 0.28527 0.64041 0.0
C1213 C 0.90621 0.24889 0.63456 0.0
C1214 C 0.89148 0.21863 0.64668 0.0
H1215 H 0.84777 0.67313 0.71813 0.0
H1216 H 0.78992 0.73767 0.72113 0.0
H1217 H 0.77576 0.72735 0.68917 0.0
H1218 H 0.8936 0.71259 0.67762 0.0
H1219 H 0.89071 0.6697 0.66973 0.0
H1220 H 0.8924 0.67854 0.69314 0.0
H1221 H 0.83022 0.6153 0.69749 0.0
H1222 H 0.82843 0.60617 0.67409 0.0
H1223 H 0.78904 0.606 0.68484 0.0
H1224 H 0.77045 0.71185 0.65613 0.0
H1225 H 0.77409 0.69226 0.6256 0.0
H1226 H 0.84192 0.64479 0.64455 0.0
C1227 C 0.83211 0.68521 0.71217 0.0
C1228 C 0.82002 0.70625 0.7223 0.0
C1229 C 0.79899 0.72085 0.71384 0.0
C1230 C 0.79107 0.71543 0.69562 0.0
C1231 C 0.80455 0.69556 0.68599 0.0
C1232 C 0.82463 0.68072 0.69403 0.0
C1233 C 0.83788 0.66229 0.68072 0.0
C1234 C 0.88121 0.68197 0.68028 0.0
C1235 C 0.82033 0.61993 0.68452 0.0
C1236 C 0.8223 0.6692 0.66387 0.0
C1237 C 0.80284 0.68808 0.66712 0.0
C1238 C 0.78574 0.69714 0.65346 0.0
C1239 C 0.78829 0.68619 0.63611 0.0
C1240 C 0.80815 0.66673 0.63251 0.0
C1241 C 0.82573 0.65877 0.6467 0.0
H1242 H 0.98759 0.41788 0.04681 0.0
H1243 H 0.04045 0.53168 0.06742 0.0
H1244 H 0.06407 0.55687 0.03755 0.0
H1245 H 0.06434 0.43676 0.01497 0.0
H1246 H 0.03214 0.40544 0.99846 0.0
H1247 H 1.02061 0.39623 0.0216 0.0
H1248 H 0.95763 0.39508 0.01576 0.0
H1249 H 0.9693 0.40504 0.99267 0.0
H1250 H 0.95836 0.4353 1.00562 0.0
H1251 H 0.07474 0.56975 1.00569 0.0
H1252 H 0.08421 0.57104 0.97366 0.0
H1253 H 0.03105 0.44895 0.97301 0.0
C1254 C 1.00499 0.448 0.04499 0.0
C1255 C 1.0128 0.47306 0.0593 0.0
C1256 C 0.0349 0.51229 0.05658 0.0
C1257 C 0.04807 0.52676 0.03968 0.0
C1258 C 0.03925 0.50151 0.02573 0.0
C1259 C 1.01915 0.46298 0.02818 0.0
C1260 C 1.01433 0.44243 1.01077 0.0
C1261 C 0.03404 0.41882 1.0115 0.0
C1262 C 0.97241 0.41802 1.00593 0.0
C1263 C 0.03433 0.47553 0.99818 0.0
C1264 C 0.04784 0.50919 1.00718 0.0
C1265 C 0.0654 0.54368 0.99855 0.0
C1266 C 0.07081 0.54403 0.98031 0.0
C1267 C 0.05975 0.51019 0.97079 0.0
C1268 C 0.04029 0.47534 0.97985 0.0
H1269 H 0.52887 0.51459 0.04913 0.0
H1270 H 0.64881 0.59087 0.05642 0.0
H1271 H 0.65476 0.60689 0.02458 0.0
H1272 H 0.53713 0.47768 1.00768 0.0
H1273 H 0.49417 0.47335 0.99886 0.0
H1274 H 0.49924 0.46998 0.02236 0.0
H1275 H 0.4845 0.52387 0.02767 0.0
H1276 H 0.47922 0.5273 1.00419 0.0
H1277 H 0.51216 0.5683 0.01653 0.0
H1278 H 0.64712 0.61335 0.99125 0.0
H1279 H 0.62634 0.61075 0.96025 0.0
H1280 H 0.5128 0.52585 0.9752 0.0
C1281 C 0.55653 0.53455 0.04411 0.0
C1282 C 0.58837 0.55137 0.05541 0.0
C1283 C 0.62381 0.57794 0.04818 0.0
C1284 C 0.62755 0.58698 0.03005 0.0
C1285 C 0.59565 0.56912 0.01927 0.0
C1286 C 0.56084 0.54347 0.02611 0.0
C1287 C 0.53097 0.52737 1.01182 0.0
C1288 C 0.51442 0.48456 1.01008 0.0
C1289 C 0.49989 0.53732 0.01526 0.0
C1290 C 0.55431 0.54796 0.99581 0.0
C1291 C 0.59152 0.57205 1.0003 0.0
C1292 C 0.61805 0.59443 0.98762 0.0
C1293 C 0.60603 0.59252 0.96998 0.0
C1294 C 0.56783 0.56825 0.96516 0.0
C1295 C 0.54203 0.5453 0.97834 0.0
H1296 H 0.47858 0.05746 0.04685 0.0
H1297 H 0.52903 0.99423 0.06789 0.0
H1298 H 0.53295 0.97335 0.03769 0.0
H1299 H 0.42121 0.98667 1.01304 0.0
H1300 H 0.42655 0.0215 0.99694 0.0
H1301 H 0.42746 0.03139 0.02023 0.0
H1302 H 0.49239 0.09162 0.01623 0.0
H1303 H 0.49197 0.08158 0.99299 0.0
H1304 H 0.53084 0.08798 1.00671 0.0
H1305 H 0.53766 0.96496 1.0056 0.0
H1306 H 0.53174 0.95806 0.9734 0.0
H1307 H 0.47108 0.02011 0.97226 0.0
C1308 C 0.4898 0.03869 0.04502 0.0
C1309 C 0.50331 0.02711 0.05963 0.0
C1310 C 0.51812 1.00287 0.05686 0.0
C1311 C 0.52076 0.9912 0.03977 0.0
C1312 C 0.50788 1.00356 0.0256 0.0
C1313 C 0.49177 0.02592 0.028 0.0
C1314 C 0.47897 0.03385 1.01038 0.0
C1315 C 0.43599 1.01736 1.01014 0.0
C1316 C 0.49979 0.07628 1.00635 0.0
C1317 C 0.49091 1.01284 0.99773 0.0
C1318 C 0.50811 0.99624 1.0069 0.0
C1319 C 0.52327 0.97686 0.99832 0.0
C1320 C 0.51947 0.97291 0.97995 0.0
C1321 C 0.49962 0.98724 0.97018 0.0
C1322 C 0.48603 1.00842 0.97925 0.0
H1323 H 0.11836 1.01623 0.24543 0.0
H1324 H 0.18663 0.02782 0.19969 0.0
H1325 H 0.17809 0.08044 0.18872 0.0
H1326 H 0.05256 0.04069 0.2227 0.0
H1327 H 0.04966 0.06584 0.24167 0.0
H1328 H 0.05657 0.02602 0.2447 0.0
H1329 H 0.11704 0.06603 0.26293 0.0
H1330 H 0.1102 0.10586 0.26073 0.0
H1331 H 0.15407 0.10949 0.25383 0.0
H1332 H 0.17031 0.13931 0.18588 0.0
H1333 H 0.16347 0.19557 0.19146 0.0
H1334 H 0.09792 0.14164 0.23833 0.0
C1335 C 0.13073 0.02935 0.23289 0.0
C1336 C 0.15314 0.01826 0.22337 0.0
C1337 C 0.16904 0.03587 0.20703 0.0
C1338 C 0.16433 0.06572 0.20076 0.0
C1339 C 0.14288 0.07687 0.21081 0.0
C1340 C 0.12583 0.05859 0.22641 0.0
C1341 C 0.10674 0.07725 0.23564 0.0
C1342 C 0.06382 0.05089 0.23621 0.0
C1343 C 0.12301 0.09045 0.25437 0.0
C1344 C 0.11725 0.11014 0.22336 0.0
C1345 C 0.13765 0.10949 0.20893 0.0
C1346 C 0.15356 0.13952 0.1969 0.0
C1347 C 0.14943 0.1713 0.20007 0.0
C1348 C 0.12995 0.17268 0.21523 0.0
C1349 C 0.11266 0.14112 0.22653 0.0
H1350 H 0.89565 0.96532 0.22298 0.0
H1351 H 0.80386 0.97418 0.19952 0.0
H1352 H 0.84712 0.04209 0.19395 0.0
H1353 H 0.93155 0.04171 0.2469 0.0
H1354 H 0.98103 0.05761 0.2442 0.0
H1355 H 0.94704 1.00861 0.24164 0.0
H1356 H 0.97237 1.00863 0.21058 0.0
H1357 H 1.00663 0.05812 0.2123 0.0
H1358 H 0.97406 0.04116 0.19402 0.0
H1359 H 0.89594 0.1105 0.19776 0.0
H1360 H 0.94815 0.17249 0.20713 0.0
H1361 H 1.0078 0.11838 0.22837 0.0
C1362 C 0.88539 0.98123 0.21568 0.0
C1363 C 0.84691 0.96473 0.21124 0.0
C1364 C 0.83363 0.98628 0.20243 0.0
C1365 C 0.85796 0.0249 0.1994 0.0
C1366 C 0.89543 0.04103 0.205 0.0
C1367 C 0.90937 0.01956 0.21248 0.0
C1368 C 0.94922 0.044 0.21929 0.0
C1369 C 0.95234 0.03759 0.23918 0.0
C1370 C 0.97721 0.03755 0.2084 0.0
C1371 C 0.95445 0.08266 0.21579 0.0
C1372 C 0.92352 0.08049 0.20723 0.0
C1373 C 0.92066 0.11253 0.20407 0.0
C1374 C 0.95024 0.14759 0.20967 0.0
C1375 C 0.98217 0.15037 0.21847 0.0
C1376 C 0.98421 0.11736 0.22137 0.0
H1377 H 0.93236 0.90699 0.23498 0.0
H1378 H 0.86446 0.81281 0.20061 0.0
H1379 H 0.92247 0.81492 0.1892 0.0
H1380 H 1.01735 0.95579 0.20388 0.0
H1381 H 0.04936 0.97057 0.22241 0.0
H1382 H 1.00364 0.96666 0.22473 0.0
H1383 H 0.98906 0.92181 0.25143 0.0
H1384 H 0.03456 0.9258 0.24926 0.0
H1385 H 0.99272 0.87997 0.24881 0.0
H1386 H 0.98631 0.81887 0.1868 0.0
H1387 H 0.04861 0.82493 0.19337 0.0
H1388 H 0.07491 0.91857 0.22818 0.0
C1389 C 0.93008 0.88784 0.22455 0.0
C1390 C 0.89436 0.85995 0.21849 0.0
C1391 C 0.89183 0.8347 0.20512 0.0
C1392 C 0.9246 0.83578 0.19862 0.0
C1393 C 0.95961 0.86291 0.20535 0.0
C1394 C 0.96248 0.88902 0.21779 0.0
C1395 C 1.00256 0.91269 0.22439 0.0
C1396 C 1.01921 0.95387 0.21849 0.0
C1397 C 1.00482 0.90983 0.24466 0.0
C1398 C 1.02133 0.89395 0.21483 0.0
C1399 C 0.99648 0.86588 0.20354 0.0
C1400 C 1.00635 0.84162 0.1951 0.0
C1401 C 0.04184 0.84532 0.19878 0.0
C1402 C 0.06676 0.87299 0.21078 0.0
C1403 C 0.0568 0.89823 0.21839 0.0
H1404 H 0.04065 0.13462 0.79913 0.0
H1405 H 0.0905 0.23754 0.82986 0.0
H1406 H 0.14323 0.2275 0.83833 0.0
H1407 H 0.07239 0.08093 0.82817 0.0
H1408 H 0.08164 0.05981 0.80933 0.0
H1409 H 0.04454 0.07144 0.80833 0.0
H1410 H 0.07472 0.11169 0.78024 0.0
H1411 H 0.11152 0.09991 0.78108 0.0
H1412 H 0.12338 0.14861 0.78089 0.0
H1413 H 0.19473 0.21036 0.8404 0.0
H1414 H 0.24163 0.19041 0.8336 0.0
H1415 H 0.15845 0.09953 0.80134 0.0
C1416 C 0.06208 0.15434 0.80808 0.0
C1417 C 0.06141 0.18674 0.81389 0.0
C1418 C 0.09057 0.21261 0.82517 0.0
C1419 C 0.12045 0.20694 0.8302 0.0
C1420 C 0.12083 0.17515 0.8239 0.0
C1421 C 0.09233 0.14926 0.81307 0.0
C1422 C 0.10155 0.12 0.80631 0.0
C1423 C 0.07335 0.08072 0.81347 0.0
C1424 C 0.1029 0.1201 0.78593 0.0
C1425 C 0.14031 0.13438 0.81436 0.0
C1426 C 0.15067 0.16564 0.82487 0.0
C1427 C 0.18661 0.18544 0.8325 0.0
C1428 C 0.21303 0.17383 0.82871 0.0
C1429 C 0.20335 0.14319 0.8172 0.0
C1430 C 0.16624 0.12264 0.81048 0.0
H1431 H 0.85569 0.03651 0.78977 0.0
H1432 H 0.9356 0.0848 0.83288 0.0
H1433 H 0.932 0.02297 0.83763 0.0
H1434 H 0.80015 0.93703 0.80696 0.0
H1435 H 0.79598 0.91863 0.78489 0.0
H1436 H 0.79775 0.96307 0.78824 0.0
H1437 H 0.85418 0.99467 0.76658 0.0
H1438 H 0.85324 0.95077 0.76345 0.0
H1439 H 0.89592 0.99157 0.77092 0.0
H1440 H 0.92698 0.95805 0.83397 0.0
H1441 H 0.9215 0.89871 0.82251 0.0
H1442 H 0.84852 0.8966 0.78047 0.0
C1443 C 0.87123 0.03365 0.80072 0.0
C1444 C 0.89549 0.06512 0.81114 0.0
C1445 C 0.91611 0.06071 0.82507 0.0
C1446 C 0.91439 0.02575 0.82772 0.0
C1447 C 0.89172 0.99573 0.81643 0.0
C1448 C 0.87014 0.99944 0.80333 0.0
C1449 C 0.85212 0.96541 0.7913 0.0
C1450 C 0.80894 0.94481 0.79296 0.0
C1451 C 0.86464 0.97628 0.77194 0.0
C1452 C 0.86811 0.94238 0.7991 0.0
C1453 C 0.89015 0.95967 0.81385 0.0
C1454 C 0.90929 0.94414 0.82262 0.0
C1455 C 0.90605 0.91047 0.81605 0.0
C1456 C 0.88458 0.89325 0.80062 0.0
C1457 C 0.86509 0.90927 0.79227 0.0
H1458 H 0.16804 0.93979 0.8034 0.0
H1459 H 0.15098 0.02563 0.82817 0.0
H1460 H 0.08547 0.97762 0.83536 0.0
H1461 H 0.08177 0.89271 0.7828 0.0
H1462 H 0.0757 0.84632 0.78571 0.0
H1463 H 0.1223 0.88655 0.7849 0.0
H1464 H 0.13741 0.86783 0.81536 0.0
H1465 H 0.0905 0.82764 0.81632 0.0
H1466 H 0.10754 0.86158 0.83406 0.0
H1467 H 1.01924 0.92082 0.83693 0.0
H1468 H 0.95879 0.8627 0.83025 0.0
H1469 H 1.02043 0.81489 0.80511 0.0
C1470 C 0.15096 0.9484 0.81078 0.0
C1471 C 0.16486 0.98654 0.81523 0.0
C1472 C 0.141 0.99668 0.82444 0.0
C1473 C 0.10381 0.96948 0.82879 0.0
C1474 C 0.09089 0.93214 0.824 0.0
C1475 C 0.11388 0.92168 0.81519 0.0
C1476 C 0.09243 0.88067 0.80986 0.0
C1477 C 0.09308 0.87634 0.78963 0.0
C1478 C 0.1079 0.8581 0.81948 0.0
C1479 C 0.05344 0.86999 0.81642 0.0
C1480 C 0.05306 0.89969 0.8249 0.0
C1481 C 1.01936 0.89713 0.83066 0.0
C1482 C 0.98517 0.86396 0.82697 0.0
C1483 C 0.98521 0.83432 0.81742 0.0
C1484 C 1.01981 0.83696 0.81274 0.0
H1485 H 0.78253 0.49273 0.55723 0.0
H1486 H 0.87536 0.547 0.52051 0.0
H1487 H 0.87479 0.48656 0.51642 0.0
H1488 H 0.81745 0.44784 0.57976 0.0
H1489 H 0.77387 0.40523 0.58443 0.0
H1490 H 0.77359 0.44827 0.58039 0.0
H1491 H 0.72516 0.4165 0.55534 0.0
H1492 H 0.72491 0.37288 0.5589 0.0
H1493 H 0.73524 0.3942 0.53725 0.0
H1494 H 0.87185 0.42364 0.52104 0.0
H1495 H 0.86744 0.36585 0.53392 0.0
H1496 H 0.77879 0.35474 0.56892 0.0
C1497 C 0.80116 0.49117 0.54751 0.0
C1498 C 0.82803 0.52391 0.53864 0.0
C1499 C 0.85363 0.52175 0.52684 0.0
C1500 C 0.85359 0.48758 0.52458 0.0
C1501 C 0.82784 0.45605 0.53427 0.0
C1502 C 0.80172 0.45756 0.54536 0.0
C1503 C 0.78127 0.42225 0.55651 0.0
C1504 C 0.78693 0.43148 0.57643 0.0
C1505 C 0.73916 0.40015 0.55169 0.0
C1506 C 0.80126 0.40139 0.55071 0.0
C1507 C 0.82731 0.42071 0.53754 0.0
C1508 C 0.851 0.408 0.53109 0.0
C1509 C 0.84834 0.37517 0.53846 0.0
C1510 C 0.82281 0.35593 0.5524 0.0
C1511 C 0.79856 0.36894 0.55828 0.0
H1512 H 0.63548 0.4913 0.55262 0.0
H1513 H 0.71616 0.46032 0.53403 0.0
H1514 H 0.66375 0.39958 0.5229 0.0
H1515 H 0.57396 0.40885 0.57006 0.0
H1516 H 0.53166 0.40967 0.56411 0.0
H1517 H 0.57524 0.45302 0.56645 0.0
H1518 H 0.56818 0.47197 0.53451 0.0
H1519 H 0.52438 0.42826 0.53205 0.0
H1520 H 0.5619 0.44087 0.51633 0.0
H1521 H 0.60194 0.33723 0.52003 0.0
H1522 H 0.53939 0.28166 0.52625 0.0
H1523 H 0.49985 0.35527 0.54556 0.0
C1524 C 0.64196 0.47221 0.54559 0.0
C1525 C 0.67953 0.4802 0.54409 0.0
C1526 C 0.6874 0.45466 0.53506 0.0
C1527 C 0.6578 0.4202 0.52871 0.0
C1528 C 0.62067 0.41239 0.53105 0.0
C1529 C 0.61287 0.43821 0.539 0.0
C1530 C 0.57111 0.42188 0.54207 0.0
C1531 C 0.56253 0.42342 0.56183 0.0
C1532 C 0.55548 0.44194 0.53055 0.0
C1533 C 0.55665 0.38195 0.53583 0.0
C1534 C 0.58532 0.37698 0.52908 0.0
C1535 C 0.57914 0.3411 0.52477 0.0
C1536 C 0.54345 0.30961 0.52824 0.0
C1537 C 0.51487 0.3144 0.53622 0.0
C1538 C 0.5211 0.35105 0.5391 0.0
H1539 H 0.68905 0.15381 0.56238 0.0
H1540 H 0.75557 0.24889 0.52792 0.0
H1541 H 0.70138 0.25992 0.52521 0.0
H1542 H 0.59405 0.12312 0.54281 0.0
H1543 H 0.57262 0.11239 0.56443 0.0
H1544 H 0.6131 0.10713 0.56012 0.0
H1545 H 0.64781 0.15107 0.58662 0.0
H1546 H 0.60793 0.15712 0.59082 0.0
H1547 H 0.65371 0.19773 0.58711 0.0
H1548 H 0.64183 0.26502 0.52968 0.0
H1549 H 0.58464 0.26435 0.5412 0.0
H1550 H 0.56128 0.16953 0.57473 0.0
C1551 C 0.69192 0.17618 0.55372 0.0
C1552 C 0.72644 0.20023 0.5452 0.0
C1553 C 0.72917 0.22962 0.53429 0.0
C1554 C 0.69855 0.23619 0.53278 0.0
C1555 C 0.66554 0.21306 0.54221 0.0
C1556 C 0.66212 0.18344 0.55238 0.0
C1557 C 0.62609 0.16558 0.56308 0.0
C1558 C 0.59991 0.12463 0.55725 0.0
C1559 C 0.63441 0.16806 0.58308 0.0
C1560 C 0.61016 0.19047 0.55788 0.0
C1561 C 0.6327 0.21717 0.54551 0.0
C1562 C 0.6239 0.24394 0.53921 0.0
C1563 C 0.59146 0.2434 0.54578 0.0
C1564 C 0.56886 0.21694 0.55883 0.0
C1565 C 0.57829 0.19009 0.56481 0.0
H1566 H 0.82228 0.42819 0.13565 0.0
H1567 H 0.89362 0.52603 0.16741 0.0
H1568 H 0.83932 0.536 0.17283 0.0
H1569 H 0.78309 0.46884 0.11287 0.0
H1570 H 0.73671 0.42832 0.11047 0.0
H1571 H 0.77666 0.42198 0.11366 0.0
H1572 H 0.74535 0.38039 0.14101 0.0
H1573 H 0.70458 0.38575 0.13791 0.0
H1574 H 0.72897 0.39775 0.15887 0.0
H1575 H 0.78013 0.54213 0.16943 0.0
H1576 H 0.72398 0.54358 0.15765 0.0
H1577 H 0.69406 0.44346 0.12693 0.0
C1578 C 0.82575 0.45036 0.14461 0.0
C1579 C 0.86152 0.47562 0.15163 0.0
C1580 C 0.86595 0.5056 0.16251 0.0
C1581 C 0.83529 0.51157 0.1655 0.0
C1582 C 0.80065 0.48729 0.15747 0.0
C1583 C 0.79577 0.45691 0.14741 0.0
C1584 C 0.75845 0.43863 0.1377 0.0
C1585 C 0.76411 0.43955 0.1175 0.0
C1586 C 0.73279 0.39823 0.14428 0.0
C1587 C 0.74355 0.46418 0.14323 0.0
C1588 C 0.76767 0.49168 0.15491 0.0
C1589 C 0.76078 0.52023 0.16057 0.0
C1590 C 0.72892 0.52091 0.15386 0.0
C1591 C 0.70499 0.49373 0.14137 0.0
C1592 C 0.71203 0.46461 0.13644 0.0
H1593 H 0.4843 0.21203 0.1398 0.0
H1594 H 0.59565 0.23735 0.15671 0.0
H1595 H 0.60948 0.30093 0.16615 0.0
H1596 H 0.51077 0.29582 0.12006 0.0
H1597 H 0.46965 0.29857 0.12623 0.0
H1598 H 0.46666 0.2535 0.12439 0.0
H1599 H 0.44204 0.23787 0.15665 0.0
H1600 H 0.4453 0.28328 0.15861 0.0
H1601 H 0.46923 0.26931 0.17433 0.0
H1602 H 0.61454 0.36577 0.16861 0.0
H1603 H 0.61053 0.4234 0.16295 0.0
H1604 H 0.49563 0.35439 0.14479 0.0
C1605 C 0.5113 0.23063 0.14586 0.0
C1606 C 0.53895 0.21974 0.14744 0.0
C1607 C 0.57393 0.2449 0.15549 0.0
C1608 C 0.58198 0.28111 0.1609 0.0
C1609 C 0.55445 0.29145 0.1585 0.0
C1610 C 0.51959 0.26656 0.15135 0.0
C1611 C 0.49617 0.28524 0.14825 0.0
C1612 C 0.48522 0.28318 0.12858 0.0
C1613 C 0.46111 0.26789 0.16018 0.0
C1614 C 0.5239 0.32511 0.15386 0.0
C1615 C 0.55715 0.32824 0.16013 0.0
C1616 C 0.58823 0.36339 0.16422 0.0
C1617 C 0.58567 0.39603 0.16115 0.0
C1618 C 0.55244 0.39313 0.15385 0.0
C1619 C 0.52093 0.3572 0.15086 0.0
H1620 H 0.63543 0.21318 0.14779 0.0
H1621 H 0.66547 0.13236 0.16705 0.0
H1622 H 0.7297 0.18422 0.17412 0.0
H1623 H 0.70915 0.2644 0.12479 0.0
H1624 H 0.71563 0.31046 0.12937 0.0
H1625 H 0.66984 0.26979 0.13162 0.0
H1626 H 0.66596 0.28766 0.16387 0.0
H1627 H 0.71218 0.32867 0.16233 0.0
H1628 H 0.70221 0.2946 0.1795 0.0
H1629 H 0.79359 0.24188 0.17128 0.0
H1630 H 0.8494 0.29886 0.15938 0.0
H1631 H 0.77787 0.34217 0.1419 0.0
C1632 C 0.65476 0.20687 0.15476 0.0
C1633 C 0.64526 0.16919 0.15765 0.0
C1634 C 0.67189 0.16126 0.1655 0.0
C1635 C 0.70849 0.1906 0.16943 0.0
C1636 C 0.71774 0.22762 0.16555 0.0
C1637 C 0.69121 0.23584 0.15873 0.0
C1638 C 0.70918 0.27667 0.15308 0.0
C1639 C 0.70045 0.28049 0.13357 0.0
C1640 C 0.69663 0.29817 0.16542 0.0
C1641 C 0.75042 0.28913 0.15589 0.0
C1642 C 0.75483 0.26101 0.16377 0.0
C1643 C 0.79044 0.2645 0.1657 0.0
C1644 C 0.822 0.29687 0.15896 0.0
C1645 C 0.8176 0.32492 0.15022 0.0
C1646 C 0.78164 0.32146 0.14914 0.0
H1647 H 0.5571 0.88047 0.88076 0.0
H1648 H 0.44872 0.83958 0.85538 0.0
H1649 H 0.44429 0.77758 0.85081 0.0
H1650 H 0.58864 0.81943 0.8559 0.0
H1651 H 0.60916 0.81376 0.87598 0.0
H1652 H 0.60887 0.85702 0.87192 0.0
H1653 H 0.57554 0.84926 0.90201 0.0
H1654 H 0.57471 0.8057 0.906 0.0
H1655 H 0.53131 0.80701 0.90624 0.0
H1656 H 0.44607 0.71629 0.85511 0.0
H1657 H 0.45395 0.66432 0.86742 0.0
H1658 H 0.5589 0.74581 0.89187 0.0
C1659 C 0.53337 0.85908 0.87336 0.0
C1660 C 0.50338 0.86484 0.86834 0.0
C1661 C 0.47229 0.836 0.85911 0.0
C1662 C 0.46952 0.80057 0.85656 0.0
C1663 C 0.49834 0.79483 0.8631 0.0
C1664 C 0.53006 0.82375 0.87105 0.0
C1665 C 0.55416 0.80965 0.87965 0.0
C1666 C 0.59248 0.82593 0.8703 0.0
C1667 C 0.55917 0.81841 0.89964 0.0
C1668 C 0.53016 0.76792 0.87626 0.0
C1669 C 0.49861 0.75978 0.86624 0.0
C1670 C 0.47108 0.72257 0.86263 0.0
C1671 C 0.47572 0.69323 0.86964 0.0
C1672 C 0.50708 0.7013 0.88051 0.0
C1673 C 0.53482 0.73907 0.88351 0.0
H1674 H 0.29782 0.81934 0.89035 0.0
H1675 H 0.38217 0.79603 0.86898 0.0
H1676 H 0.33165 0.73474 0.85754 0.0
H1677 H 0.23967 0.73243 0.90675 0.0
H1678 H 0.19615 0.73165 0.90179 0.0
H1679 H 0.23865 0.77582 0.90489 0.0
H1680 H 0.22947 0.7977 0.87396 0.0
H1681 H 0.18699 0.75312 0.87071 0.0
H1682 H 0.22458 0.76958 0.85473 0.0
H1683 H 0.27163 0.67103 0.85351 0.0
H1684 H 0.21035 0.61289 0.85846 0.0
H1685 H 0.16588 0.67948 0.88142 0.0
C1686 C 0.30558 0.8017 0.88287 0.0
C1687 C 0.34382 0.81241 0.88049 0.0
C1688 C 0.353 0.78858 0.87071 0.0
C1689 C 0.32445 0.75372 0.86417 0.0
C1690 C 0.28684 0.74349 0.86719 0.0
C1691 C 0.27751 0.76719 0.87614 0.0
C1692 C 0.23556 0.74848 0.87943 0.0
C1693 C 0.22704 0.74699 0.89939 0.0
C1694 C 0.21813 0.76841 0.86909 0.0
C1695 C 0.22285 0.70972 0.87195 0.0
C1696 C 0.25253 0.70737 0.86456 0.0
C1697 C 0.24805 0.67287 0.85883 0.0
C1698 C 0.21303 0.63991 0.86156 0.0
C1699 C 0.18338 0.64182 0.87018 0.0
C1700 C 0.18792 0.67737 0.87447 0.0
H1701 H 0.36557 0.48371 0.87978 0.0
H1702 H 0.43233 0.59433 0.85661 0.0
H1703 H 0.37422 0.5974 0.85123 0.0
H1704 H 0.27446 0.45277 0.85294 0.0
H1705 H 0.24682 0.42993 0.87233 0.0
H1706 H 0.29109 0.43134 0.86874 0.0
H1707 H 0.31369 0.46153 0.89968 0.0
H1708 H 0.2702 0.46112 0.90324 0.0
H1709 H 0.31425 0.50482 0.90478 0.0
H1710 H 0.31158 0.59473 0.85534 0.0
H1711 H 0.25188 0.58619 0.86791 0.0
H1712 H 0.22738 0.47856 0.88955 0.0
C1713 C 0.36769 0.50773 0.87272 0.0
C1714 C 0.40322 0.53867 0.86852 0.0
C1715 C 0.40526 0.57006 0.85966 0.0
C1716 C 0.37232 0.57203 0.85663 0.0
C1717 C 0.33777 0.5421 0.86226 0.0
C1718 C 0.33528 0.51014 0.86982 0.0
C1719 C 0.29662 0.48474 0.87757 0.0
C1720 C 0.27603 0.44749 0.86727 0.0
C1721 C 0.29888 0.47771 0.89748 0.0
C1722 C 0.27849 0.50857 0.87441 0.0
C1723 C 0.30205 0.54099 0.86507 0.0
C1724 C 0.29257 0.56896 0.86222 0.0
C1725 C 0.25866 0.56394 0.86939 0.0
C1726 C 0.2352 0.53165 0.8796 0.0
C1727 C 0.24486 0.50334 0.88169 0.0
H1728 H 0.49405 0.76968 0.47528 0.0
H1729 H 0.58428 0.86916 0.5 0.0
H1730 H 0.53943 0.89176 0.50656 0.0
H1731 H 0.45667 0.81196 0.4528 0.0
H1732 H 0.40766 0.77662 0.45495 0.0
H1733 H 0.44329 0.76336 0.4565 0.0
H1734 H 0.4189 0.73377 0.48739 0.0
H1735 H 0.38227 0.74593 0.48563 0.0
H1736 H 0.41341 0.76131 0.50451 0.0
H1737 H 0.48872 0.90956 0.50395 0.0
H1738 H 0.43537 0.91844 0.49523 0.0
H1739 H 0.37814 0.80653 0.47241 0.0
C1740 C 0.50382 0.79516 0.48299 0.0
C1741 C 0.54225 0.81734 0.48756 0.0
C1742 C 0.55464 0.85132 0.49693 0.0
C1743 C 0.52938 0.86441 0.50055 0.0
C1744 C 0.4919 0.84275 0.49495 0.0
C1745 C 0.47896 0.80828 0.48677 0.0
C1746 C 0.43895 0.79247 0.48003 0.0
C1747 C 0.43656 0.78575 0.45988 0.0
C1748 C 0.41178 0.75622 0.49 0.0
C1749 C 0.43201 0.82437 0.48474 0.0
C1750 C 0.46263 0.85294 0.49353 0.0
C1751 C 0.46427 0.88697 0.49749 0.0
C1752 C 0.43404 0.89193 0.49231 0.0
C1753 C 0.40256 0.86309 0.4832 0.0
C1754 C 0.40141 0.8287 0.4797 0.0
H1755 H 0.25917 0.59532 0.47877 0.0
H1756 H 0.13878 0.53889 0.48674 0.0
H1757 H 0.14449 0.59721 0.49957 0.0
H1758 H 0.28779 0.66575 0.51757 0.0
H1759 H 0.32375 0.70268 0.50429 0.0
H1760 H 0.31261 0.65455 0.50115 0.0
H1761 H 0.29966 0.65821 0.4679 0.0
H1762 H 0.31163 0.70631 0.47075 0.0
H1763 H 0.26647 0.67293 0.46147 0.0
H1764 H 0.16089 0.66318 0.50516 0.0
H1765 H 0.18446 0.73065 0.49924 0.0
H1766 H 0.29399 0.7457 0.48627 0.0
C1767 C 0.2345 0.59515 0.48407 0.0
C1768 C 0.19871 0.56289 0.48232 0.0
C1769 C 0.16642 0.56344 0.48843 0.0
C1770 C 0.16955 0.59631 0.4958 0.0
C1771 C 0.20521 0.6284 0.49684 0.0
C1772 C 0.23721 0.62806 0.49109 0.0
C1773 C 0.2708 0.66754 0.49019 0.0
C1774 C 0.30049 0.67293 0.50413 0.0
C1775 C 0.28808 0.67677 0.47147 0.0
C1776 C 0.25203 0.69032 0.49486 0.0
C1777 C 0.21464 0.66724 0.49949 0.0
C1778 C 0.19037 0.68162 0.50211 0.0
C1779 C 0.204 0.72004 0.49888 0.0
C1780 C 0.24123 0.74322 0.49283 0.0
C1781 C 0.26589 0.72861 0.4916 0.0
H1782 H 0.49391 0.60884 0.47509 0.0
H1783 H 0.48019 0.70021 0.49562 0.0
H1784 H 0.41413 0.65485 0.50321 0.0
H1785 H 0.40796 0.56101 0.45452 0.0
H1786 H 0.40038 0.51463 0.45935 0.0
H1787 H 0.44753 0.55378 0.45798 0.0
H1788 H 0.46119 0.53867 0.48958 0.0
H1789 H 0.41364 0.49969 0.49111 0.0
H1790 H 0.43142 0.53616 0.5077 0.0
H1791 H 0.34693 0.59994 0.50524 0.0
H1792 H 0.28563 0.54283 0.49885 0.0
H1793 H 0.34448 0.48792 0.47811 0.0
C1794 C 0.47751 0.61933 0.48165 0.0
C1795 C 0.4926 0.65825 0.48475 0.0
C1796 C 0.46944 0.67066 0.4929 0.0
C1797 C 0.43189 0.64498 0.49749 0.0
C1798 C 0.41788 0.60682 0.49409 0.0
C1799 C 0.44013 0.59413 0.48635 0.0
C1800 C 0.41762 0.55247 0.48232 0.0
C1801 C 0.41841 0.54507 0.46237 0.0
C1802 C 0.43182 0.53046 0.49334 0.0
C1803 C 0.37885 0.54391 0.4883 0.0
C1804 C 0.37951 0.57533 0.49542 0.0
C1805 C 0.34623 0.57493 0.50012 0.0
C1806 C 0.31147 0.54224 0.49664 0.0
C1807 C 0.31052 0.51082 0.48837 0.0
C1808 C 0.34461 0.51126 0.48492 0.0
loop_
_geom_bond_atom_site_label_1
_geom_bond_atom_site_label_2
_geom_bond_distance
_geom_bond_site_symmetry_2
_ccdc_geom_bond_type
C0 C1 1.351 . S
C0 N3 1.368 . S
C0 H5 0.931 . S
C1 C0 1.351 . S
C1 N2 1.373 . S
C1 H29 0.930 . S
N2 C1 1.373 . S
N2 C4 1.340 . S
N3 C0 1.368 . S
N3 C4 1.321 . S
N3 Co6 2.135 . S
C4 N2 1.340 . S
C4 N3 1.321 . S
C4 H28 0.930 . S
H5 C0 0.931 . S
Co6 N3 2.135 . S
Co6 N9 2.121 . S
Co6 O14 2.055 . S
Co6 O17 2.039 . S
Co6 N20 2.140 . S
C7 O8 1.227 . S
C7 O17 1.265 . S
O8 C7 1.227 . S
N9 Co6 2.121 . S
N9 C11 1.375 . S
N9 C12 1.313 . S
C10 C11 1.338 1_655 S
C10 N13 1.377 . S
C10 H30 0.930 . S
C11 N9 1.375 . S
C11 C10 1.338 1_455 S
C11 H15 0.931 . S
C12 N9 1.313 . S
C12 N13 1.344 1_455 S
C12 H16 0.930 . S
N13 C10 1.377 . S
N13 C12 1.344 1_655 S
O14 Co6 2.055 . S
O14 C18 1.253 . S
H15 C11 0.931 . S
H16 C12 0.930 . S
O17 Co6 2.039 . S
O17 C7 1.265 . S
C18 O14 1.253 . S
C18 O19 1.227 . S
O19 C18 1.227 . S
N20 Co6 2.140 . S
N20 C23 1.346 . S
N20 C24 1.345 . S
C21 C22 1.387 . S
C21 C25 1.391 . S
C22 C21 1.387 . S
C22 C23 1.369 . S
C22 H31 0.929 . S
C23 N20 1.346 . S
C23 C22 1.369 . S
C23 H26 0.928 . S
C24 N20 1.345 . S
C24 C25 1.371 . S
C24 H27 0.931 . S
C25 C21 1.391 . S
C25 C24 1.371 . S
C25 H32 0.930 . S
H26 C23 0.928 . S
H27 C24 0.931 . S
H28 C4 0.930 . S
H29 C1 0.930 . S
H30 C10 0.930 . S
H31 C22 0.929 . S
H32 C25 0.930 . S
C33 C34 1.351 . S
C33 N36 1.368 . S
C33 H38 0.931 . S
C34 C33 1.351 . S
C34 N35 1.373 . S
C34 H62 0.930 . S
N35 C34 1.373 . S
N35 C37 1.340 . S
N36 C33 1.368 . S
N36 C37 1.321 . S
N36 Co39 2.135 . S
C37 N35 1.340 . S
C37 N36 1.321 . S
C37 H61 0.930 . S
H38 C33 0.931 . S
Co39 N36 2.135 . S
Co39 N42 2.121 . S
Co39 O47 2.055 . S
Co39 O50 2.039 . S
Co39 N53 2.140 . S
C40 O41 1.227 . S
C40 O50 1.265 . S
O41 C40 1.227 . S
N42 Co39 2.121 . S
N42 C44 1.375 . S
N42 C45 1.313 . S
C43 C44 1.338 . S
C43 N46 1.377 . S
C43 H63 0.930 . S
C44 N42 1.375 . S
C44 C43 1.338 . S
C44 H48 0.931 . S
C45 N42 1.313 . S
C45 N46 1.344 . S
C45 H49 0.930 . S
N46 C43 1.377 . S
N46 C45 1.344 . S
O47 Co39 2.055 . S
O47 C51 1.253 . S
H48 C44 0.931 . S
H49 C45 0.930 . S
O50 Co39 2.039 . S
O50 C40 1.265 . S
C51 O47 1.253 . S
C51 O52 1.227 . S
O52 C51 1.227 . S
N53 Co39 2.140 . S
N53 C56 1.346 . S
N53 C57 1.345 . S
C54 C55 1.387 . S
C54 C58 1.391 . S
C55 C54 1.387 . S
C55 C56 1.369 . S
C55 H64 0.929 . S
C56 N53 1.346 . S
C56 C55 1.369 . S
C56 H59 0.928 . S
C57 N53 1.345 . S
C57 C58 1.371 . S
C57 H60 0.931 . S
C58 C54 1.391 . S
C58 C57 1.371 . S
C58 H65 0.930 . S
H59 C56 0.928 . S
H60 C57 0.931 . S
H61 C37 0.930 . S
H62 C34 0.930 . S
H63 C43 0.930 . S
H64 C55 0.929 . S
H65 C58 0.930 . S
C66 C67 1.351 . S
C66 N69 1.368 . S
C66 H71 0.931 . S
C67 C66 1.351 . S
C67 N68 1.373 . S
C67 H95 0.930 . S
N68 C67 1.373 . S
N68 C70 1.340 . S
N69 C66 1.368 . S
N69 C70 1.321 . S
N69 Co72 2.135 . S
C70 N68 1.340 . S
C70 N69 1.321 . S
C70 H94 0.930 . S
H71 C66 0.931 . S
Co72 N69 2.135 . S
Co72 N75 2.121 . S
Co72 O80 2.055 . S
Co72 O83 2.039 . S
Co72 N86 2.140 . S
C73 O74 1.227 . S
C73 O83 1.265 . S
O74 C73 1.227 . S
N75 Co72 2.121 . S
N75 C77 1.375 . S
N75 C78 1.313 . S
C76 C77 1.338 1_545 S
C76 N79 1.377 1_545 S
C76 H96 0.930 . S
C77 N75 1.375 . S
C77 C76 1.338 1_565 S
C77 H81 0.931 . S
C78 N75 1.313 . S
C78 N79 1.344 . S
C78 H82 0.930 . S
N79 C76 1.377 1_565 S
N79 C78 1.344 . S
O80 Co72 2.055 . S
O80 C84 1.253 . S
H81 C77 0.931 . S
H82 C78 0.930 . S
O83 Co72 2.039 . S
O83 C73 1.265 . S
C84 O80 1.253 . S
C84 O85 1.227 . S
O85 C84 1.227 . S
N86 Co72 2.140 . S
N86 C89 1.346 . S
N86 C90 1.345 . S
C87 C88 1.387 . S
C87 C91 1.391 . S
C88 C87 1.387 . S
C88 C89 1.369 . S
C88 H97 0.929 . S
C89 N86 1.346 . S
C89 C88 1.369 . S
C89 H92 0.928 . S
C90 N86 1.345 . S
C90 C91 1.371 . S
C90 H93 0.931 . S
C91 C87 1.391 . S
C91 C90 1.371 . S
C91 H98 0.930 . S
H92 C89 0.928 . S
H93 C90 0.931 . S
H94 C70 0.930 . S
H95 C67 0.930 . S
H96 C76 0.930 . S
H97 C88 0.929 . S
H98 C91 0.930 . S
C99 C100 1.351 . S
C99 N102 1.368 . S
C99 H104 0.931 . S
C100 C99 1.351 . S
C100 N101 1.373 . S
C100 H128 0.930 . S
N101 C100 1.373 . S
N101 C103 1.340 . S
N102 C99 1.368 . S
N102 C103 1.321 . S
N102 Co105 2.135 . S
C103 N101 1.340 . S
C103 N102 1.321 . S
C103 H127 0.930 . S
H104 C99 0.931 . S
Co105 N102 2.135 . S
Co105 N108 2.121 . S
Co105 O113 2.055 . S
Co105 O116 2.039 . S
Co105 N119 2.140 . S
C106 O107 1.227 . S
C106 O116 1.265 . S
O107 C106 1.227 . S
N108 Co105 2.121 . S
N108 C110 1.375 . S
N108 C111 1.313 . S
C109 C110 1.338 1_565 S
C109 N112 1.377 . S
C109 H129 0.930 . S
C110 N108 1.375 . S
C110 C109 1.338 1_545 S
C110 H114 0.931 . S
C111 N108 1.313 . S
C111 N112 1.344 1_545 S
C111 H115 0.930 . S
N112 C109 1.377 . S
N112 C111 1.344 1_565 S
O113 Co105 2.055 . S
O113 C117 1.253 . S
H114 C110 0.931 . S
H115 C111 0.930 . S
O116 Co105 2.039 . S
O116 C106 1.265 . S
C117 O113 1.253 . S
C117 O118 1.227 . S
O118 C117 1.227 . S
N119 Co105 2.140 . S
N119 C122 1.346 . S
N119 C123 1.345 . S
C120 C121 1.387 . S
C120 C124 1.391 . S
C121 C120 1.387 . S
C121 C122 1.369 . S
C121 H130 0.929 . S
C122 N119 1.346 . S
C122 C121 1.369 . S
C122 H125 0.928 . S
C123 N119 1.345 . S
C123 C124 1.371 . S
C123 H126 0.931 . S
C124 C120 1.391 . S
C124 C123 1.371 . S
C124 H131 0.930 . S
H125 C122 0.928 . S
H126 C123 0.931 . S
H127 C103 0.930 . S
H128 C100 0.930 . S
H129 C109 0.930 . S
H130 C121 0.929 . S
H131 C124 0.930 . S
C132 C133 1.351 . S
C132 N135 1.368 . S
C132 H137 0.931 . S
C133 C132 1.351 . S
C133 N134 1.373 . S
C133 H161 0.930 . S
N134 C133 1.373 . S
N134 C136 1.340 . S
N135 C132 1.368 . S
N135 C136 1.321 . S
N135 Co138 2.135 . S
C136 N134 1.340 . S
C136 N135 1.321 . S
C136 H160 0.930 . S
H137 C132 0.931 . S
Co138 N135 2.135 . S
Co138 N141 2.121 . S
Co138 O146 2.055 . S
Co138 O149 2.039 . S
Co138 N152 2.140 . S
C139 O140 1.227 . S
C139 O149 1.265 . S
O140 C139 1.227 . S
N141 Co138 2.121 . S
N141 C143 1.375 . S
N141 C144 1.313 . S
C142 C143 1.338 1_455 S
C142 N145 1.377 1_455 S
C142 H162 0.930 . S
C143 N141 1.375 . S
C143 C142 1.338 1_655 S
C143 H147 0.931 . S
C144 N141 1.313 . S
C144 N145 1.344 . S
C144 H148 0.930 . S
N145 C142 1.377 1_655 S
N145 C144 1.344 . S
O146 Co138 2.055 . S
O146 C150 1.253 . S
H147 C143 0.931 . S
H148 C144 0.930 . S
O149 Co138 2.039 . S
O149 C139 1.265 . S
C150 O146 1.253 . S
C150 O151 1.227 . S
O151 C150 1.227 . S
N152 Co138 2.140 . S
N152 C155 1.346 . S
N152 C156 1.345 . S
C153 C154 1.387 . S
C153 C157 1.391 . S
C154 C153 1.387 . S
C154 C155 1.369 . S
C154 H163 0.929 . S
C155 N152 1.346 . S
C155 C154 1.369 . S
C155 H158 0.928 . S
C156 N152 1.345 . S
C156 C157 1.371 . S
C156 H159 0.931 . S
C157 C153 1.391 . S
C157 C156 1.371 . S
C157 H164 0.930 . S
H158 C155 0.928 . S
H159 C156 0.931 . S
H160 C136 0.930 . S
H161 C133 0.930 . S
H162 C142 0.930 . S
H163 C154 0.929 . S
H164 C157 0.930 . S
C165 C166 1.351 . S
C165 N168 1.368 . S
C165 H170 0.931 . S
C166 C165 1.351 . S
C166 N167 1.373 . S
C166 H194 0.930 . S
N167 C166 1.373 . S
N167 C169 1.340 . S
N168 C165 1.368 . S
N168 C169 1.321 . S
N168 Co171 2.135 . S
C169 N167 1.340 . S
C169 N168 1.321 . S
C169 H193 0.930 . S
H170 C165 0.931 . S
Co171 N168 2.135 . S
Co171 N174 2.121 . S
Co171 O179 2.055 . S
Co171 O182 2.039 . S
Co171 N185 2.140 . S
C172 O173 1.227 . S
C172 O182 1.265 . S
O173 C172 1.227 . S
N174 Co171 2.121 . S
N174 C176 1.375 . S
N174 C177 1.313 . S
C175 C176 1.338 . S
C175 N178 1.377 . S
C175 H195 0.930 . S
C176 N174 1.375 . S
C176 C175 1.338 . S
C176 H180 0.931 . S
C177 N174 1.313 . S
C177 N178 1.344 . S
C177 H181 0.930 . S
N178 C175 1.377 . S
N178 C177 1.344 . S
O179 Co171 2.055 . S
O179 C183 1.253 . S
H180 C176 0.931 . S
H181 C177 0.930 . S
O182 Co171 2.039 . S
O182 C172 1.265 . S
C183 O179 1.253 . S
C183 O184 1.227 . S
O184 C183 1.227 . S
N185 Co171 2.140 . S
N185 C188 1.346 . S
N185 C189 1.345 . S
C186 C187 1.387 . S
C186 C190 1.391 . S
C187 C186 1.387 . S
C187 C188 1.369 . S
C187 H196 0.929 . S
C188 N185 1.346 . S
C188 C187 1.369 . S
C188 H191 0.928 . S
C189 N185 1.345 . S
C189 C190 1.371 . S
C189 H192 0.931 . S
C190 C186 1.391 . S
C190 C189 1.371 . S
C190 H197 0.930 . S
H191 C188 0.928 . S
H192 C189 0.931 . S
H193 C169 0.930 . S
H194 C166 0.930 . S
H195 C175 0.930 . S
H196 C187 0.929 . S
H197 C190 0.930 . S
C198 C199 1.351 . S
C198 N201 1.368 . S
C198 H203 0.931 . S
C199 C198 1.351 . S
C199 N200 1.373 . S
C199 H227 0.930 . S
N200 C199 1.373 . S
N200 C202 1.340 . S
N201 C198 1.368 . S
N201 C202 1.321 . S
N201 Co204 2.135 . S
C202 N200 1.340 . S
C202 N201 1.321 . S
C202 H226 0.930 . S
H203 C198 0.931 . S
Co204 N201 2.135 . S
Co204 N207 2.121 . S
Co204 O212 2.055 . S
Co204 O215 2.039 . S
Co204 N218 2.140 . S
C205 O206 1.227 . S
C205 O215 1.265 . S
O206 C205 1.227 . S
N207 Co204 2.121 . S
N207 C209 1.375 . S
N207 C210 1.313 . S
C208 C209 1.338 . S
C208 N211 1.377 . S
C208 H228 0.930 . S
C209 N207 1.375 . S
C209 C208 1.338 . S
C209 H213 0.931 . S
C210 N207 1.313 . S
C210 N211 1.344 . S
C210 H214 0.930 . S
N211 C208 1.377 . S
N211 C210 1.344 . S
O212 Co204 2.055 . S
O212 C216 1.253 . S
H213 C209 0.931 . S
H214 C210 0.930 . S
O215 Co204 2.039 . S
O215 C205 1.265 . S
C216 O212 1.253 . S
C216 O217 1.227 . S
O217 C216 1.227 . S
N218 Co204 2.140 . S
N218 C221 1.346 . S
N218 C222 1.345 . S
C219 C220 1.387 . S
C219 C223 1.391 . S
C220 C219 1.387 . S
C220 C221 1.369 . S
C220 H229 0.929 . S
C221 N218 1.346 . S
C221 C220 1.369 . S
C221 H224 0.928 . S
C222 N218 1.345 . S
C222 C223 1.371 . S
C222 H225 0.931 . S
C223 C219 1.391 . S
C223 C222 1.371 . S
C223 H230 0.930 . S
H224 C221 0.928 . S
H225 C222 0.931 . S
H226 C202 0.930 . S
H227 C199 0.930 . S
H228 C208 0.930 . S
H229 C220 0.929 . S
H230 C223 0.930 . S
C231 C232 1.351 . S
C231 N234 1.368 . S
C231 H236 0.931 . S
C232 C231 1.351 . S
C232 N233 1.373 . S
C232 H260 0.930 . S
N233 C232 1.373 . S
N233 C235 1.340 . S
N234 C231 1.368 . S
N234 C235 1.321 . S
N234 Co237 2.135 . S
C235 N233 1.340 . S
C235 N234 1.321 . S
C235 H259 0.930 . S
H236 C231 0.931 . S
Co237 N234 2.135 . S
Co237 N240 2.121 . S
Co237 O245 2.055 . S
Co237 O248 2.039 . S
Co237 N251 2.140 . S
C238 O239 1.227 . S
C238 O248 1.265 . S
O239 C238 1.227 . S
N240 Co237 2.121 . S
N240 C242 1.375 . S
N240 C243 1.313 . S
C241 C242 1.338 . S
C241 N244 1.377 . S
C241 H261 0.930 . S
C242 N240 1.375 . S
C242 C241 1.338 . S
C242 H246 0.931 . S
C243 N240 1.313 . S
C243 N244 1.344 . S
C243 H247 0.930 . S
N244 C241 1.377 . S
N244 C243 1.344 . S
O245 Co237 2.055 . S
O245 C249 1.253 . S
H246 C242 0.931 . S
H247 C243 0.930 . S
O248 Co237 2.039 . S
O248 C238 1.265 . S
C249 O245 1.253 . S
C249 O250 1.227 . S
O250 C249 1.227 . S
N251 Co237 2.140 . S
N251 C254 1.346 . S
N251 C255 1.345 . S
C252 C253 1.387 . S
C252 C256 1.391 . S
C253 C252 1.387 . S
C253 C254 1.369 . S
C253 H262 0.929 . S
C254 N251 1.346 . S
C254 C253 1.369 . S
C254 H257 0.928 . S
C255 N251 1.345 . S
C255 C256 1.371 . S
C255 H258 0.931 . S
C256 C252 1.391 . S
C256 C255 1.371 . S
C256 H263 0.930 . S
H257 C254 0.928 . S
H258 C255 0.931 . S
H259 C235 0.930 . S
H260 C232 0.930 . S
H261 C241 0.930 . S
H262 C253 0.929 . S
H263 C256 0.930 . S
C264 C265 1.351 . S
C264 N267 1.368 . S
C264 H269 0.931 . S
C265 C264 1.351 . S
C265 N266 1.373 . S
C265 H293 0.930 . S
N266 C265 1.373 . S
N266 C268 1.340 . S
N267 C264 1.368 . S
N267 C268 1.321 . S
N267 Co270 2.135 . S
C268 N266 1.340 . S
C268 N267 1.321 . S
C268 H292 0.930 . S
H269 C264 0.931 . S
Co270 N267 2.135 . S
Co270 N273 2.121 . S
Co270 O278 2.055 . S
Co270 O281 2.039 . S
Co270 N284 2.140 . S
C271 O272 1.227 . S
C271 O281 1.265 . S
O272 C271 1.227 . S
N273 Co270 2.121 . S
N273 C275 1.375 . S
N273 C276 1.313 . S
C274 C275 1.338 . S
C274 N277 1.377 . S
C274 H294 0.930 . S
C275 N273 1.375 . S
C275 C274 1.338 . S
C275 H279 0.931 . S
C276 N273 1.313 . S
C276 N277 1.344 . S
C276 H280 0.930 . S
N277 C274 1.377 . S
N277 C276 1.344 . S
O278 Co270 2.055 . S
O278 C282 1.253 . S
H279 C275 0.931 . S
H280 C276 0.930 . S
O281 Co270 2.039 . S
O281 C271 1.265 . S
C282 O278 1.253 . S
C282 O283 1.227 . S
O283 C282 1.227 . S
N284 Co270 2.140 . S
N284 C287 1.346 . S
N284 C288 1.345 . S
C285 C286 1.387 . S
C285 C289 1.391 . S
C286 C285 1.387 . S
C286 C287 1.369 . S
C286 H295 0.929 . S
C287 N284 1.346 . S
C287 C286 1.369 . S
C287 H290 0.928 . S
C288 N284 1.345 . S
C288 C289 1.371 . S
C288 H291 0.931 . S
C289 C285 1.391 . S
C289 C288 1.371 . S
C289 H296 0.930 . S
H290 C287 0.928 . S
H291 C288 0.931 . S
H292 C268 0.930 . S
H293 C265 0.930 . S
H294 C274 0.930 . S
H295 C286 0.929 . S
H296 C289 0.930 . S
C297 C298 1.351 . S
C297 N300 1.368 . S
C297 H302 0.931 . S
C298 C297 1.351 . S
C298 N299 1.373 . S
C298 H326 0.930 . S
N299 C298 1.373 . S
N299 C301 1.340 . S
N300 C297 1.368 . S
N300 C301 1.321 . S
N300 Co303 2.135 . S
C301 N299 1.340 . S
C301 N300 1.321 . S
C301 H325 0.930 . S
H302 C297 0.931 . S
Co303 N300 2.135 . S
Co303 N306 2.121 . S
Co303 O311 2.055 . S
Co303 O314 2.039 . S
Co303 N317 2.140 . S
C304 O305 1.227 . S
C304 O314 1.265 . S
O305 C304 1.227 . S
N306 Co303 2.121 . S
N306 C308 1.375 . S
N306 C309 1.313 . S
C307 C308 1.338 . S
C307 N310 1.377 . S
C307 H327 0.930 . S
C308 N306 1.375 . S
C308 C307 1.338 . S
C308 H312 0.931 . S
C309 N306 1.313 . S
C309 N310 1.344 . S
C309 H313 0.930 . S
N310 C307 1.377 . S
N310 C309 1.344 . S
O311 Co303 2.055 . S
O311 C315 1.253 . S
H312 C308 0.931 . S
H313 C309 0.930 . S
O314 Co303 2.039 . S
O314 C304 1.265 . S
C315 O311 1.253 . S
C315 O316 1.227 . S
O316 C315 1.227 . S
N317 Co303 2.140 . S
N317 C320 1.346 . S
N317 C321 1.345 . S
C318 C319 1.387 . S
C318 C322 1.391 . S
C319 C318 1.387 . S
C319 C320 1.369 . S
C319 H328 0.929 1_655 S
C320 N317 1.346 . S
C320 C319 1.369 . S
C320 H323 0.928 . S
C321 N317 1.345 . S
C321 C322 1.371 . S
C321 H324 0.931 . S
C322 C318 1.391 . S
C322 C321 1.371 . S
C322 H329 0.930 . S
H323 C320 0.928 . S
H324 C321 0.931 . S
H325 C301 0.930 . S
H326 C298 0.930 . S
H327 C307 0.930 . S
H328 C319 0.929 1_455 S
H329 C322 0.930 . S
C330 C331 1.351 . S
C330 N333 1.368 . S
C330 H335 0.931 . S
C331 C330 1.351 . S
C331 N332 1.373 . S
C331 H359 0.930 . S
N332 C331 1.373 . S
N332 C334 1.340 . S
N333 C330 1.368 . S
N333 C334 1.321 . S
N333 Co336 2.135 . S
C334 N332 1.340 . S
C334 N333 1.321 . S
C334 H358 0.930 . S
H335 C330 0.931 . S
Co336 N333 2.135 . S
Co336 N339 2.121 . S
Co336 O344 2.055 . S
Co336 O347 2.039 . S
Co336 N350 2.140 . S
C337 O338 1.227 . S
C337 O347 1.265 . S
O338 C337 1.227 . S
N339 Co336 2.121 . S
N339 C341 1.375 . S
N339 C342 1.313 . S
C340 C341 1.338 . S
C340 N343 1.377 . S
C340 H360 0.930 . S
C341 N339 1.375 . S
C341 C340 1.338 . S
C341 H345 0.931 . S
C342 N339 1.313 . S
C342 N343 1.344 . S
C342 H346 0.930 . S
N343 C340 1.377 . S
N343 C342 1.344 . S
O344 Co336 2.055 . S
O344 C348 1.253 . S
H345 C341 0.931 . S
H346 C342 0.930 . S
O347 Co336 2.039 . S
O347 C337 1.265 . S
C348 O344 1.253 . S
C348 O349 1.227 . S
O349 C348 1.227 . S
N350 Co336 2.140 . S
N350 C353 1.346 . S
N350 C354 1.345 . S
C351 C352 1.387 . S
C351 C355 1.391 . S
C352 C351 1.387 . S
C352 C353 1.369 . S
C352 H361 0.929 . S
C353 N350 1.346 . S
C353 C352 1.369 . S
C353 H356 0.928 . S
C354 N350 1.345 . S
C354 C355 1.371 . S
C354 H357 0.931 . S
C355 C351 1.391 . S
C355 C354 1.371 . S
C355 H362 0.930 . S
H356 C353 0.928 . S
H357 C354 0.931 . S
H358 C334 0.930 . S
H359 C331 0.930 . S
H360 C340 0.930 . S
H361 C352 0.929 . S
H362 C355 0.930 . S
C363 C364 1.351 . S
C363 N366 1.368 . S
C363 H368 0.931 . S
C364 C363 1.351 . S
C364 N365 1.365 1_545 S
C364 H392 0.930 . S
N365 C364 1.365 1_565 S
N365 C367 1.310 1_565 S
N366 C363 1.368 . S
N366 C367 1.321 . S
N366 Co369 2.135 . S
C367 N365 1.310 1_545 S
C367 N366 1.321 . S
C367 H391 0.930 . S
H368 C363 0.931 . S
Co369 N366 2.135 . S
Co369 N372 2.121 . S
Co369 O377 2.055 . S
Co369 O380 2.039 . S
Co369 N383 2.140 . S
C370 O371 1.227 . S
C370 O380 1.265 . S
O371 C370 1.227 . S
N372 Co369 2.121 . S
N372 C374 1.375 . S
N372 C375 1.313 . S
C373 C374 1.338 . S
C373 N376 1.377 . S
C373 H393 0.930 . S
C374 N372 1.375 . S
C374 C373 1.338 . S
C374 H378 0.931 . S
C375 N372 1.313 . S
C375 N376 1.344 . S
C375 H379 0.930 . S
N376 C373 1.377 . S
N376 C375 1.344 . S
O377 Co369 2.055 . S
O377 C381 1.253 . S
H378 C374 0.931 . S
H379 C375 0.930 . S
O380 Co369 2.039 . S
O380 C370 1.265 . S
C381 O377 1.253 . S
C381 O382 1.227 . S
O382 C381 1.227 . S
N383 Co369 2.140 . S
N383 C386 1.346 . S
N383 C387 1.345 . S
C384 C385 1.387 . S
C384 C388 1.391 . S
C385 C384 1.387 . S
C385 C386 1.369 . S
C385 H394 0.929 1_545 S
C386 N383 1.346 . S
C386 C385 1.369 . S
C386 H389 0.928 . S
C387 N383 1.345 . S
C387 C388 1.371 . S
C387 H390 0.931 . S
C388 C384 1.391 . S
C388 C387 1.371 . S
C388 H395 0.930 . S
H389 C386 0.928 . S
H390 C387 0.931 . S
H391 C367 0.930 . S
H392 C364 0.930 . S
H393 C373 0.930 . S
H394 C385 0.929 1_565 S
H395 C388 0.930 . S
C396 C397 1.351 . S
C396 N399 1.368 . S
C396 H401 0.931 . S
C397 C396 1.351 . S
C397 N398 1.373 . S
C397 H425 0.930 . S
N398 C397 1.373 . S
N398 C400 1.340 . S
N399 C396 1.368 . S
N399 C400 1.321 . S
N399 Co402 2.135 . S
C400 N398 1.340 . S
C400 N399 1.321 . S
C400 H424 0.930 . S
H401 C396 0.931 . S
Co402 N399 2.135 . S
Co402 N405 2.121 . S
Co402 O410 2.055 . S
Co402 O413 2.039 . S
Co402 N416 2.140 . S
C403 O404 1.227 . S
C403 O413 1.265 . S
O404 C403 1.227 . S
N405 Co402 2.121 . S
N405 C407 1.375 . S
N405 C408 1.313 . S
C406 C407 1.338 . S
C406 N409 1.377 . S
C406 H426 0.930 . S
C407 N405 1.375 . S
C407 C406 1.338 . S
C407 H411 0.931 . S
C408 N405 1.313 . S
C408 N409 1.344 . S
C408 H412 0.930 . S
N409 C406 1.377 . S
N409 C408 1.344 . S
O410 Co402 2.055 . S
O410 C414 1.253 . S
H411 C407 0.931 . S
H412 C408 0.930 . S
O413 Co402 2.039 . S
O413 C403 1.265 . S
C414 O410 1.253 . S
C414 O415 1.227 . S
O415 C414 1.227 . S
N416 Co402 2.140 . S
N416 C419 1.346 . S
N416 C420 1.345 . S
C417 C418 1.387 . S
C417 C421 1.391 . S
C418 C417 1.387 . S
C418 C419 1.369 . S
C418 H427 0.929 1_565 S
C419 N416 1.346 . S
C419 C418 1.369 . S
C419 H422 0.928 . S
C420 N416 1.345 . S
C420 C421 1.371 . S
C420 H423 0.931 . S
C421 C417 1.391 . S
C421 C420 1.371 . S
C421 H428 0.930 . S
H422 C419 0.928 . S
H423 C420 0.931 . S
H424 C400 0.930 . S
H425 C397 0.930 . S
H426 C406 0.930 . S
H427 C418 0.929 1_545 S
H428 C421 0.930 . S
C429 C430 1.351 . S
C429 N432 1.368 . S
C429 H434 0.931 . S
C430 C429 1.351 . S
C430 N431 1.365 1_455 S
C430 H458 0.930 . S
N431 C430 1.365 1_655 S
N431 C433 1.310 1_655 S
N432 C429 1.368 . S
N432 C433 1.321 . S
N432 Co435 2.135 . S
C433 N431 1.310 1_455 S
C433 N432 1.321 . S
C433 H457 0.930 . S
H434 C429 0.931 . S
Co435 N432 2.135 . S
Co435 N438 2.121 . S
Co435 O443 2.055 . S
Co435 O446 2.039 . S
Co435 N449 2.140 . S
C436 O437 1.227 . S
C436 O446 1.265 . S
O437 C436 1.227 . S
N438 Co435 2.121 . S
N438 C440 1.375 . S
N438 C441 1.313 . S
C439 C440 1.338 . S
C439 N442 1.377 . S
C439 H459 0.930 . S
C440 N438 1.375 . S
C440 C439 1.338 . S
C440 H444 0.931 . S
C441 N438 1.313 . S
C441 N442 1.344 . S
C441 H445 0.930 . S
N442 C439 1.377 . S
N442 C441 1.344 . S
O443 Co435 2.055 . S
O443 C447 1.253 . S
H444 C440 0.931 . S
H445 C441 0.930 . S
O446 Co435 2.039 . S
O446 C436 1.265 . S
C447 O443 1.253 . S
C447 O448 1.227 . S
O448 C447 1.227 . S
N449 Co435 2.140 . S
N449 C452 1.346 . S
N449 C453 1.345 . S
C450 C451 1.387 . S
C450 C454 1.391 . S
C451 C450 1.387 . S
C451 C452 1.369 . S
C451 H460 0.929 1_455 S
C452 N449 1.346 . S
C452 C451 1.369 . S
C452 H455 0.928 . S
C453 N449 1.345 . S
C453 C454 1.371 . S
C453 H456 0.931 . S
C454 C450 1.391 . S
C454 C453 1.371 . S
C454 H461 0.930 . S
H455 C452 0.928 . S
H456 C453 0.931 . S
H457 C433 0.930 . S
H458 C430 0.930 . S
H459 C439 0.930 . S
H460 C451 0.929 1_655 S
H461 C454 0.930 . S
C462 C463 1.351 . S
C462 N465 1.368 . S
C462 H467 0.931 . S
C463 C462 1.351 . S
C463 N464 1.373 . S
C463 H491 0.930 . S
N464 C463 1.373 . S
N464 C466 1.340 . S
N465 C462 1.368 . S
N465 C466 1.321 . S
N465 Co468 2.135 . S
C466 N464 1.340 . S
C466 N465 1.321 . S
C466 H490 0.930 . S
H467 C462 0.931 . S
Co468 N465 2.135 . S
Co468 N471 2.121 . S
Co468 O476 2.055 . S
Co468 O479 2.039 . S
Co468 N482 2.140 . S
C469 O470 1.227 . S
C469 O479 1.265 . S
O470 C469 1.227 . S
N471 Co468 2.121 . S
N471 C473 1.375 . S
N471 C474 1.313 . S
C472 C473 1.338 . S
C472 N475 1.377 . S
C472 H492 0.930 . S
C473 N471 1.375 . S
C473 C472 1.338 . S
C473 H477 0.931 . S
C474 N471 1.313 . S
C474 N475 1.344 . S
C474 H478 0.930 . S
N475 C472 1.377 . S
N475 C474 1.344 . S
O476 Co468 2.055 . S
O476 C480 1.253 . S
H477 C473 0.931 . S
H478 C474 0.930 . S
O479 Co468 2.039 . S
O479 C469 1.265 . S
C480 O476 1.253 . S
C480 O481 1.227 . S
O481 C480 1.227 . S
N482 Co468 2.140 . S
N482 C485 1.346 . S
N482 C486 1.345 . S
C483 C484 1.387 . S
C483 C487 1.391 . S
C484 C483 1.387 . S
C484 C485 1.369 . S
C484 H493 0.929 . S
C485 N482 1.346 . S
C485 C484 1.369 . S
C485 H488 0.928 . S
C486 N482 1.345 . S
C486 C487 1.371 . S
C486 H489 0.931 . S
C487 C483 1.391 . S
C487 C486 1.371 . S
C487 H494 0.930 . S
H488 C485 0.928 . S
H489 C486 0.931 . S
H490 C466 0.930 . S
H491 C463 0.930 . S
H492 C472 0.930 . S
H493 C484 0.929 . S
H494 C487 0.930 . S
C495 C496 1.351 . S
C495 N498 1.368 . S
C495 H500 0.931 . S
C496 C495 1.351 . S
C496 N497 1.373 . S
C496 H524 0.930 . S
N497 C496 1.373 . S
N497 C499 1.340 . S
N498 C495 1.368 . S
N498 C499 1.321 . S
N498 Co501 2.135 . S
C499 N497 1.340 . S
C499 N498 1.321 . S
C499 H523 0.930 . S
H500 C495 0.931 . S
Co501 N498 2.135 . S
Co501 N504 2.121 . S
Co501 O509 2.055 . S
Co501 O512 2.039 . S
Co501 N515 2.140 . S
C502 O503 1.227 . S
C502 O512 1.265 . S
O503 C502 1.227 . S
N504 Co501 2.121 . S
N504 C506 1.375 . S
N504 C507 1.313 . S
C505 C506 1.338 . S
C505 N508 1.377 . S
C505 H525 0.930 . S
C506 N504 1.375 . S
C506 C505 1.338 . S
C506 H510 0.931 . S
C507 N504 1.313 . S
C507 N508 1.344 . S
C507 H511 0.930 . S
N508 C505 1.377 . S
N508 C507 1.344 . S
O509 Co501 2.055 . S
O509 C513 1.253 . S
H510 C506 0.931 . S
H511 C507 0.930 . S
O512 Co501 2.039 . S
O512 C502 1.265 . S
C513 O509 1.253 . S
C513 O514 1.227 . S
O514 C513 1.227 . S
N515 Co501 2.140 . S
N515 C518 1.346 . S
N515 C519 1.345 . S
C516 C517 1.387 . S
C516 C520 1.391 . S
C517 C516 1.387 . S
C517 C518 1.369 . S
C517 H526 0.929 . S
C518 N515 1.346 . S
C518 C517 1.369 . S
C518 H521 0.928 . S
C519 N515 1.345 . S
C519 C520 1.371 . S
C519 H522 0.931 . S
C520 C516 1.391 . S
C520 C519 1.371 . S
C520 H527 0.930 . S
H521 C518 0.928 . S
H522 C519 0.931 . S
H523 C499 0.930 . S
H524 C496 0.930 . S
H525 C505 0.930 . S
H526 C517 0.929 . S
H527 C520 0.930 . S
C528 C529 1.351 . S
C528 N531 1.368 . S
C528 H533 0.931 . S
C529 C528 1.351 . S
C529 N530 1.373 . S
C529 H557 0.930 . S
N530 C529 1.373 . S
N530 C532 1.340 . S
N531 C528 1.368 . S
N531 C532 1.321 . S
N531 Co534 2.135 . S
C532 N530 1.340 . S
C532 N531 1.321 . S
C532 H556 0.930 . S
H533 C528 0.931 . S
Co534 N531 2.135 . S
Co534 N537 2.121 . S
Co534 O542 2.055 . S
Co534 O545 2.039 . S
Co534 N548 2.140 . S
C535 O536 1.227 . S
C535 O545 1.265 . S
O536 C535 1.227 . S
N537 Co534 2.121 . S
N537 C539 1.375 . S
N537 C540 1.313 . S
C538 C539 1.338 . S
C538 N541 1.377 . S
C538 H558 0.930 . S
C539 N537 1.375 . S
C539 C538 1.338 . S
C539 H543 0.931 . S
C540 N537 1.313 . S
C540 N541 1.344 . S
C540 H544 0.930 . S
N541 C538 1.377 . S
N541 C540 1.344 . S
O542 Co534 2.055 . S
O542 C546 1.253 . S
H543 C539 0.931 . S
H544 C540 0.930 . S
O545 Co534 2.039 . S
O545 C535 1.265 . S
C546 O542 1.253 . S
C546 O547 1.227 . S
O547 C546 1.227 . S
N548 Co534 2.140 . S
N548 C551 1.346 . S
N548 C552 1.345 . S
C549 C550 1.387 . S
C549 C553 1.391 . S
C550 C549 1.387 . S
C550 C551 1.369 . S
C550 H559 0.929 . S
C551 N548 1.346 . S
C551 C550 1.369 . S
C551 H554 0.928 . S
C552 N548 1.345 . S
C552 C553 1.371 . S
C552 H555 0.931 . S
C553 C549 1.391 . S
C553 C552 1.371 . S
C553 H560 0.930 . S
H554 C551 0.928 . S
H555 C552 0.931 . S
H556 C532 0.930 . S
H557 C529 0.930 . S
H558 C538 0.930 . S
H559 C550 0.929 . S
H560 C553 0.930 . S
C561 C562 1.351 . S
C561 N564 1.368 . S
C561 H566 0.931 . S
C562 C561 1.351 . S
C562 N563 1.373 . S
C562 H590 0.930 . S
N563 C562 1.373 . S
N563 C565 1.340 . S
N564 C561 1.368 . S
N564 C565 1.321 . S
N564 Co567 2.135 . S
C565 N563 1.340 . S
C565 N564 1.321 . S
C565 H589 0.930 . S
H566 C561 0.931 . S
Co567 N564 2.135 . S
Co567 N570 2.121 . S
Co567 O575 2.055 . S
Co567 O578 2.039 . S
Co567 N581 2.140 . S
C568 O569 1.227 . S
C568 O578 1.265 . S
O569 C568 1.227 . S
N570 Co567 2.121 . S
N570 C572 1.375 . S
N570 C573 1.313 . S
C571 C572 1.338 . S
C571 N574 1.377 . S
C571 H591 0.930 . S
C572 N570 1.375 . S
C572 C571 1.338 . S
C572 H576 0.931 . S
C573 N570 1.313 . S
C573 N574 1.344 . S
C573 H577 0.930 . S
N574 C571 1.377 . S
N574 C573 1.344 . S
O575 Co567 2.055 . S
O575 C579 1.253 . S
H576 C572 0.931 . S
H577 C573 0.930 . S
O578 Co567 2.039 . S
O578 C568 1.265 . S
C579 O575 1.253 . S
C579 O580 1.227 . S
O580 C579 1.227 . S
N581 Co567 2.140 . S
N581 C584 1.346 . S
N581 C585 1.345 . S
C582 C583 1.387 . S
C582 C586 1.391 . S
C583 C582 1.387 . S
C583 C584 1.369 . S
C583 H592 0.929 . S
C584 N581 1.346 . S
C584 C583 1.369 . S
C584 H587 0.928 . S
C585 N581 1.345 . S
C585 C586 1.371 . S
C585 H588 0.931 . S
C586 C582 1.391 . S
C586 C585 1.371 . S
C586 H593 0.930 . S
H587 C584 0.928 . S
H588 C585 0.931 . S
H589 C565 0.930 . S
H590 C562 0.930 . S
H591 C571 0.930 . S
H592 C583 0.929 . S
H593 C586 0.930 . S
H594 C606 0.930 . S
H595 C608 0.930 . S
H596 C609 0.930 . S
H597 C613 0.959 . S
H598 C613 0.959 . S
H599 C613 0.961 . S
H600 C614 0.960 . S
H601 C614 0.961 . S
H602 C614 0.959 . S
H603 C617 0.929 . S
H604 C618 0.931 . S
H605 C620 0.930 . S
C606 H594 0.930 . S
C606 C607 1.399 . S
C606 C611 1.399 . S
C607 C606 1.399 . S
C607 C608 1.376 . S
C608 H595 0.930 . S
C608 C607 1.376 . S
C608 C609 1.388 . S
C609 H596 0.930 . S
C609 C608 1.388 . S
C609 C610 1.390 . S
C610 C609 1.390 . S
C610 C611 1.394 . S
C610 C616 1.465 . S
C611 C606 1.399 . S
C611 C610 1.394 . S
C611 C612 1.516 . S
C612 C611 1.516 . S
C612 C613 1.502 . S
C612 C614 1.561 . S
C612 C615 1.526 . S
C613 H597 0.959 . S
C613 H598 0.959 . S
C613 H599 0.961 . S
C613 C612 1.502 . S
C614 H600 0.960 . S
C614 H601 0.961 . S
C614 H602 0.959 . S
C614 C612 1.561 . S
C615 C612 1.526 . S
C615 C616 1.396 . S
C615 C620 1.390 . S
C616 C610 1.465 . S
C616 C615 1.396 . S
C616 C617 1.399 . S
C617 H603 0.929 . S
C617 C616 1.399 . S
C617 C618 1.385 . S
C618 H604 0.931 . S
C618 C617 1.385 . S
C618 C619 1.389 . S
C619 C618 1.389 . S
C619 C620 1.387 . S
C620 H605 0.930 . S
C620 C615 1.390 . S
C620 C619 1.387 . S
H621 C633 0.930 . S
H622 C635 0.930 . S
H623 C636 0.930 . S
H624 C640 0.959 . S
H625 C640 0.959 . S
H626 C640 0.961 . S
H627 C641 0.961 1_545 S
H628 C641 0.961 1_545 S
H629 C641 0.959 . S
H630 C644 0.929 . S
H631 C645 0.931 . S
H632 C647 0.932 . S
C633 H621 0.930 . S
C633 C634 1.399 . S
C633 C638 1.399 . S
C634 C633 1.399 . S
C634 C635 1.376 . S
C635 H622 0.930 . S
C635 C634 1.376 . S
C635 C636 1.388 . S
C636 H623 0.930 . S
C636 C635 1.388 . S
C636 C637 1.390 . S
C637 C636 1.390 . S
C637 C638 1.394 . S
C637 C643 1.465 . S
C638 C633 1.399 . S
C638 C637 1.394 . S
C638 C639 1.516 . S
C639 C638 1.516 . S
C639 C640 1.502 . S
C639 C641 1.561 . S
C639 C642 1.526 . S
C640 H624 0.959 . S
C640 H625 0.959 . S
C640 H626 0.961 . S
C640 C639 1.502 . S
C641 H627 0.961 1_565 S
C641 H628 0.961 1_565 S
C641 H629 0.959 . S
C641 C639 1.561 . S
C642 C639 1.526 . S
C642 C643 1.396 . S
C642 C647 1.390 . S
C643 C637 1.465 . S
C643 C642 1.396 . S
C643 C644 1.399 . S
C644 H630 0.929 . S
C644 C643 1.399 . S
C644 C645 1.385 . S
C645 H631 0.931 . S
C645 C644 1.385 . S
C645 C646 1.389 . S
C646 C645 1.389 . S
C646 C647 1.387 . S
C647 H632 0.932 . S
C647 C642 1.390 . S
C647 C646 1.387 . S
H648 C660 0.930 1_655 S
H649 C662 0.930 . S
H650 C663 0.930 . S
H651 C667 0.959 . S
H652 C667 0.959 1_655 S
H653 C667 0.961 1_655 S
H654 C668 0.960 1_655 S
H655 C668 0.961 . S
H656 C668 0.959 . S
H657 C671 0.929 . S
H658 C672 0.931 . S
H659 C674 0.930 . S
C660 H648 0.930 1_455 S
C660 C661 1.399 . S
C660 C665 1.399 . S
C661 C660 1.399 . S
C661 C662 1.376 . S
C662 H649 0.930 . S
C662 C661 1.376 . S
C662 C663 1.388 . S
C663 H650 0.930 . S
C663 C662 1.388 . S
C663 C664 1.390 . S
C664 C663 1.390 . S
C664 C665 1.394 . S
C664 C670 1.465 . S
C665 C660 1.399 . S
C665 C664 1.394 . S
C665 C666 1.516 . S
C666 C665 1.516 . S
C666 C667 1.502 . S
C666 C668 1.561 . S
C666 C669 1.526 . S
C667 H651 0.959 . S
C667 H652 0.959 1_455 S
C667 H653 0.961 1_455 S
C667 C666 1.502 . S
C668 H654 0.960 1_455 S
C668 H655 0.961 . S
C668 H656 0.959 . S
C668 C666 1.561 . S
C669 C666 1.526 . S
C669 C670 1.396 . S
C669 C674 1.390 . S
C670 C664 1.465 . S
C670 C669 1.396 . S
C670 C671 1.399 . S
C671 H657 0.929 . S
C671 C670 1.399 . S
C671 C672 1.385 . S
C672 H658 0.931 . S
C672 C671 1.385 . S
C672 C673 1.389 . S
C673 C672 1.389 . S
C673 C674 1.387 . S
C674 H659 0.930 . S
C674 C669 1.390 . S
C674 C673 1.387 . S
H675 C687 0.930 . S
H676 C689 0.930 . S
H677 C690 0.930 . S
H678 C694 0.959 . S
H679 C694 0.959 . S
H680 C694 0.961 . S
H681 C695 0.960 . S
H682 C695 0.961 . S
H683 C695 0.959 . S
H684 C698 0.929 . S
H685 C699 0.931 . S
H686 C701 0.930 . S
C687 H675 0.930 . S
C687 C688 1.399 . S
C687 C692 1.399 . S
C688 C687 1.399 . S
C688 C689 1.376 . S
C689 H676 0.930 . S
C689 C688 1.376 . S
C689 C690 1.388 . S
C690 H677 0.930 . S
C690 C689 1.388 . S
C690 C691 1.390 . S
C691 C690 1.390 . S
C691 C692 1.394 . S
C691 C697 1.465 . S
C692 C687 1.399 . S
C692 C691 1.394 . S
C692 C693 1.516 . S
C693 C692 1.516 . S
C693 C694 1.502 . S
C693 C695 1.561 . S
C693 C696 1.526 . S
C694 H678 0.959 . S
C694 H679 0.959 . S
C694 H680 0.961 . S
C694 C693 1.502 . S
C695 H681 0.960 . S
C695 H682 0.961 . S
C695 H683 0.959 . S
C695 C693 1.561 . S
C696 C693 1.526 . S
C696 C697 1.396 . S
C696 C701 1.390 . S
C697 C691 1.465 . S
C697 C696 1.396 . S
C697 C698 1.399 . S
C698 H684 0.929 . S
C698 C697 1.399 . S
C698 C699 1.385 . S
C699 H685 0.931 . S
C699 C698 1.385 . S
C699 C700 1.389 . S
C700 C699 1.389 . S
C700 C701 1.387 . S
C701 H686 0.930 . S
C701 C696 1.390 . S
C701 C700 1.387 . S
H702 C714 0.930 . S
H703 C716 0.930 . S
H704 C717 0.930 . S
H705 C721 0.959 . S
H706 C721 0.959 . S
H707 C721 0.961 . S
H708 C722 0.960 . S
H709 C722 0.961 . S
H710 C722 0.959 . S
H711 C725 0.929 . S
H712 C726 0.931 1_565 S
H713 C728 0.930 . S
C714 H702 0.930 . S
C714 C715 1.399 . S
C714 C719 1.399 . S
C715 C714 1.399 . S
C715 C716 1.376 . S
C716 H703 0.930 . S
C716 C715 1.376 . S
C716 C717 1.388 . S
C717 H704 0.930 . S
C717 C716 1.388 . S
C717 C718 1.390 . S
C718 C717 1.390 . S
C718 C719 1.394 . S
C718 C724 1.465 . S
C719 C714 1.399 . S
C719 C718 1.394 . S
C719 C720 1.516 . S
C720 C719 1.516 . S
C720 C721 1.502 . S
C720 C722 1.561 . S
C720 C723 1.526 . S
C721 H705 0.959 . S
C721 H706 0.959 . S
C721 H707 0.961 . S
C721 C720 1.502 . S
C722 H708 0.960 . S
C722 H709 0.961 . S
C722 H710 0.959 . S
C722 C720 1.561 . S
C723 C720 1.526 . S
C723 C724 1.396 . S
C723 C728 1.390 . S
C724 C718 1.465 . S
C724 C723 1.396 . S
C724 C725 1.399 . S
C725 H711 0.929 . S
C725 C724 1.399 . S
C725 C726 1.385 . S
C726 H712 0.931 1_545 S
C726 C725 1.385 . S
C726 C727 1.389 . S
C727 C726 1.389 . S
C727 C728 1.387 . S
C728 H713 0.930 . S
C728 C723 1.390 . S
C728 C727 1.387 . S
H729 C741 0.930 . S
H730 C743 0.930 1_455 S
H731 C744 0.930 . S
H732 C748 0.959 . S
H733 C748 0.959 . S
H734 C748 0.961 . S
H735 C749 0.960 . S
H736 C749 0.961 . S
H737 C749 0.959 . S
H738 C752 0.929 . S
H739 C753 0.931 . S
H740 C755 0.930 . S
C741 H729 0.930 . S
C741 C742 1.399 . S
C741 C746 1.399 . S
C742 C741 1.399 . S
C742 C743 1.376 . S
C743 H730 0.930 1_655 S
C743 C742 1.376 . S
C743 C744 1.388 . S
C744 H731 0.930 . S
C744 C743 1.388 . S
C744 C745 1.390 . S
C745 C744 1.390 . S
C745 C746 1.394 . S
C745 C751 1.465 . S
C746 C741 1.399 . S
C746 C745 1.394 . S
C746 C747 1.516 . S
C747 C746 1.516 . S
C747 C748 1.502 . S
C747 C749 1.561 . S
C747 C750 1.526 . S
C748 H732 0.959 . S
C748 H733 0.959 . S
C748 H734 0.961 . S
C748 C747 1.502 . S
C749 H735 0.960 . S
C749 H736 0.961 . S
C749 H737 0.959 . S
C749 C747 1.561 . S
C750 C747 1.526 . S
C750 C751 1.396 . S
C750 C755 1.390 . S
C751 C745 1.465 . S
C751 C750 1.396 . S
C751 C752 1.399 . S
C752 H738 0.929 . S
C752 C751 1.399 . S
C752 C753 1.385 . S
C753 H739 0.931 . S
C753 C752 1.385 . S
C753 C754 1.389 . S
C754 C753 1.389 . S
C754 C755 1.387 . S
C755 H740 0.930 . S
C755 C750 1.390 . S
C755 C754 1.387 . S
H756 C768 0.930 . S
H757 C770 0.930 . S
H758 C771 0.930 . S
H759 C775 0.959 . S
H760 C775 0.959 . S
H761 C775 0.961 . S
H762 C776 0.960 . S
H763 C776 0.961 . S
H764 C776 0.959 . S
H765 C779 0.929 . S
H766 C780 0.931 . S
H767 C782 0.930 . S
C768 H756 0.930 . S
C768 C769 1.399 . S
C768 C773 1.399 . S
C769 C768 1.399 . S
C769 C770 1.376 . S
C770 H757 0.930 . S
C770 C769 1.376 . S
C770 C771 1.388 . S
C771 H758 0.930 . S
C771 C770 1.388 . S
C771 C772 1.390 . S
C772 C771 1.390 . S
C772 C773 1.394 . S
C772 C778 1.465 . S
C773 C768 1.399 . S
C773 C772 1.394 . S
C773 C774 1.516 . S
C774 C773 1.516 . S
C774 C775 1.502 . S
C774 C776 1.561 . S
C774 C777 1.526 . S
C775 H759 0.959 . S
C775 H760 0.959 . S
C775 H761 0.961 . S
C775 C774 1.502 . S
C776 H762 0.960 . S
C776 H763 0.961 . S
C776 H764 0.959 . S
C776 C774 1.561 . S
C777 C774 1.526 . S
C777 C778 1.396 . S
C777 C782 1.390 . S
C778 C772 1.465 . S
C778 C777 1.396 . S
C778 C779 1.399 . S
C779 H765 0.929 . S
C779 C778 1.399 . S
C779 C780 1.385 . S
C780 H766 0.931 . S
C780 C779 1.385 . S
C780 C781 1.389 . S
C781 C780 1.389 . S
C781 C782 1.387 . S
C782 H767 0.930 . S
C782 C777 1.390 . S
C782 C781 1.387 . S
H783 C795 0.930 . S
H784 C797 0.930 . S
H785 C798 0.930 . S
H786 C802 0.959 . S
H787 C802 0.959 1_545 S
H788 C802 0.961 . S
H789 C803 0.960 . S
H790 C803 0.961 . S
H791 C803 0.959 . S
H792 C806 0.929 . S
H793 C807 0.931 . S
H794 C809 0.930 . S
C795 H783 0.930 . S
C795 C796 1.399 . S
C795 C800 1.399 1_565 S
C796 C795 1.399 . S
C796 C797 1.376 . S
C797 H784 0.930 . S
C797 C796 1.376 . S
C797 C798 1.388 1_565 S
C798 H785 0.930 . S
C798 C797 1.388 1_545 S
C798 C799 1.390 . S
C799 C798 1.390 . S
C799 C800 1.394 . S
C799 C805 1.465 . S
C800 C795 1.399 1_545 S
C800 C799 1.394 . S
C800 C801 1.516 . S
C801 C800 1.516 . S
C801 C802 1.502 1_545 S
C801 C803 1.561 . S
C801 C804 1.526 . S
C802 H786 0.959 . S
C802 H787 0.959 1_565 S
C802 H788 0.961 . S
C802 C801 1.502 1_565 S
C803 H789 0.960 . S
C803 H790 0.961 . S
C803 H791 0.959 . S
C803 C801 1.561 . S
C804 C801 1.526 . S
C804 C805 1.396 . S
C804 C809 1.390 . S
C805 C799 1.465 . S
C805 C804 1.396 . S
C805 C806 1.399 . S
C806 H792 0.929 . S
C806 C805 1.399 . S
C806 C807 1.385 . S
C807 H793 0.931 . S
C807 C806 1.385 . S
C807 C808 1.389 . S
C808 C807 1.389 . S
C808 C809 1.387 . S
C809 H794 0.930 . S
C809 C804 1.390 . S
C809 C808 1.387 . S
H810 C822 0.930 . S
H811 C824 0.930 . S
H812 C825 0.930 . S
H813 C829 0.959 . S
H814 C829 0.959 . S
H815 C829 0.961 . S
H816 C830 0.960 . S
H817 C830 0.961 . S
H818 C830 0.959 . S
H819 C833 0.929 . S
H820 C834 0.931 . S
H821 C836 0.930 . S
C822 H810 0.930 . S
C822 C823 1.399 1_655 S
C822 C827 1.399 . S
C823 C822 1.399 1_455 S
C823 C824 1.376 . S
C824 H811 0.930 . S
C824 C823 1.376 . S
C824 C825 1.388 . S
C825 H812 0.930 . S
C825 C824 1.388 . S
C825 C826 1.390 1_455 S
C826 C825 1.390 1_655 S
C826 C827 1.394 . S
C826 C832 1.465 . S
C827 C822 1.399 . S
C827 C826 1.394 . S
C827 C828 1.516 . S
C828 C827 1.516 . S
C828 C829 1.502 . S
C828 C830 1.561 . S
C828 C831 1.526 . S
C829 H813 0.959 . S
C829 H814 0.959 . S
C829 H815 0.961 . S
C829 C828 1.502 . S
C830 H816 0.960 . S
C830 H817 0.961 . S
C830 H818 0.959 . S
C830 C828 1.561 . S
C831 C828 1.526 . S
C831 C832 1.396 . S
C831 C836 1.390 . S
C832 C826 1.465 . S
C832 C831 1.396 . S
C832 C833 1.399 . S
C833 H819 0.929 . S
C833 C832 1.399 . S
C833 C834 1.385 . S
C834 H820 0.931 . S
C834 C833 1.385 . S
C834 C835 1.389 . S
C835 C834 1.389 . S
C835 C836 1.387 . S
C836 H821 0.930 . S
C836 C831 1.390 . S
C836 C835 1.387 . S
H837 C849 0.930 . S
H838 C851 0.930 . S
H839 C852 0.930 . S
H840 C856 0.959 . S
H841 C856 0.959 . S
H842 C856 0.961 . S
H843 C857 0.960 . S
H844 C857 0.961 . S
H845 C857 0.959 . S
H846 C860 0.929 . S
H847 C861 0.931 . S
H848 C863 0.930 . S
C849 H837 0.930 . S
C849 C850 1.399 . S
C849 C854 1.399 . S
C850 C849 1.399 . S
C850 C851 1.376 . S
C851 H838 0.930 . S
C851 C850 1.376 . S
C851 C852 1.388 . S
C852 H839 0.930 . S
C852 C851 1.388 . S
C852 C853 1.390 . S
C853 C852 1.390 . S
C853 C854 1.394 . S
C853 C859 1.465 . S
C854 C849 1.399 . S
C854 C853 1.394 . S
C854 C855 1.516 . S
C855 C854 1.516 . S
C855 C856 1.502 . S
C855 C857 1.561 . S
C855 C858 1.526 . S
C856 H840 0.959 . S
C856 H841 0.959 . S
C856 H842 0.961 . S
C856 C855 1.502 . S
C857 H843 0.960 . S
C857 H844 0.961 . S
C857 H845 0.959 . S
C857 C855 1.561 . S
C858 C855 1.526 . S
C858 C859 1.396 . S
C858 C863 1.390 . S
C859 C853 1.465 . S
C859 C858 1.396 . S
C859 C860 1.399 . S
C860 H846 0.929 . S
C860 C859 1.399 . S
C860 C861 1.385 . S
C861 H847 0.931 . S
C861 C860 1.385 . S
C861 C862 1.389 . S
C862 C861 1.389 . S
C862 C863 1.387 . S
C863 H848 0.930 . S
C863 C858 1.390 . S
C863 C862 1.387 . S
H864 C876 0.930 . S
H865 C878 0.930 . S
H866 C879 0.930 . S
H867 C883 0.959 . S
H868 C883 0.959 . S
H869 C883 0.961 . S
H870 C884 0.960 . S
H871 C884 0.961 . S
H872 C884 0.959 . S
H873 C887 0.929 . S
H874 C888 0.931 . S
H875 C890 0.930 . S
C876 H864 0.930 . S
C876 C877 1.399 . S
C876 C881 1.399 . S
C877 C876 1.399 . S
C877 C878 1.376 . S
C878 H865 0.930 . S
C878 C877 1.376 . S
C878 C879 1.388 . S
C879 H866 0.930 . S
C879 C878 1.388 . S
C879 C880 1.390 . S
C880 C879 1.390 . S
C880 C881 1.394 . S
C880 C886 1.465 . S
C881 C876 1.399 . S
C881 C880 1.394 . S
C881 C882 1.516 1_565 S
C882 C881 1.516 1_545 S
C882 C883 1.502 . S
C882 C884 1.561 . S
C882 C885 1.526 . S
C883 H867 0.959 . S
C883 H868 0.959 . S
C883 H869 0.961 . S
C883 C882 1.502 . S
C884 H870 0.960 . S
C884 H871 0.961 . S
C884 H872 0.959 . S
C884 C882 1.561 . S
C885 C882 1.526 . S
C885 C886 1.396 1_545 S
C885 C890 1.390 . S
C886 C880 1.465 . S
C886 C885 1.396 1_565 S
C886 C887 1.399 . S
C887 H873 0.929 . S
C887 C886 1.399 . S
C887 C888 1.385 . S
C888 H874 0.931 . S
C888 C887 1.385 . S
C888 C889 1.389 1_565 S
C889 C888 1.389 1_545 S
C889 C890 1.387 . S
C890 H875 0.930 . S
C890 C885 1.390 . S
C890 C889 1.387 . S
H891 C903 0.930 . S
H892 C905 0.930 . S
H893 C906 0.930 . S
H894 C910 0.959 . S
H895 C910 0.959 . S
H896 C910 0.961 . S
H897 C911 0.960 . S
H898 C911 0.961 . S
H899 C911 0.959 . S
H900 C914 0.930 . S
H901 C915 0.931 . S
H902 C917 0.930 . S
C903 H891 0.930 . S
C903 C904 1.399 . S
C903 C908 1.399 . S
C904 C903 1.399 . S
C904 C905 1.376 . S
C905 H892 0.930 . S
C905 C904 1.376 . S
C905 C906 1.388 . S
C906 H893 0.930 . S
C906 C905 1.388 . S
C906 C907 1.390 . S
C907 C906 1.390 . S
C907 C908 1.394 . S
C907 C913 1.465 . S
C908 C903 1.399 . S
C908 C907 1.394 . S
C908 C909 1.516 . S
C909 C908 1.516 . S
C909 C910 1.502 . S
C909 C911 1.561 1_455 S
C909 C912 1.526 . S
C910 H894 0.959 . S
C910 H895 0.959 . S
C910 H896 0.961 . S
C910 C909 1.502 . S
C911 H897 0.960 . S
C911 H898 0.961 . S
C911 H899 0.959 . S
C911 C909 1.561 1_655 S
C912 C909 1.526 . S
C912 C913 1.396 . S
C912 C917 1.390 1_455 S
C913 C907 1.465 . S
C913 C912 1.396 . S
C913 C914 1.421 . S
C914 H900 0.930 . S
C914 C913 1.421 . S
C914 C915 1.363 1_455 S
C915 H901 0.931 . S
C915 C914 1.363 1_655 S
C915 C916 1.389 . S
C916 C915 1.389 . S
C916 C917 1.387 . S
C917 H902 0.930 . S
C917 C912 1.390 1_655 S
C917 C916 1.387 . S
H918 C930 0.930 . S
H919 C932 0.930 . S
H920 C933 0.930 . S
H921 C937 0.959 . S
H922 C937 0.959 . S
H923 C937 0.961 . S
H924 C938 0.960 . S
H925 C938 0.961 . S
H926 C938 0.959 . S
H927 C941 0.929 1_455 S
H928 C942 0.931 . S
H929 C944 0.930 . S
C930 H918 0.930 . S
C930 C931 1.399 . S
C930 C935 1.399 . S
C931 C930 1.399 . S
C931 C932 1.376 . S
C932 H919 0.930 . S
C932 C931 1.376 . S
C932 C933 1.388 . S
C933 H920 0.930 . S
C933 C932 1.388 . S
C933 C934 1.390 . S
C934 C933 1.390 . S
C934 C935 1.394 . S
C934 C940 1.465 1_455 S
C935 C930 1.399 . S
C935 C934 1.394 . S
C935 C936 1.516 1_455 S
C936 C935 1.516 1_655 S
C936 C937 1.502 . S
C936 C938 1.561 . S
C936 C939 1.526 . S
C937 H921 0.959 . S
C937 H922 0.959 . S
C937 H923 0.961 . S
C937 C936 1.502 . S
C938 H924 0.960 . S
C938 H925 0.961 . S
C938 H926 0.959 . S
C938 C936 1.561 . S
C939 C936 1.526 . S
C939 C940 1.396 . S
C939 C944 1.390 . S
C940 C934 1.465 1_655 S
C940 C939 1.396 . S
C940 C941 1.399 . S
C941 H927 0.929 1_655 S
C941 C940 1.399 . S
C941 C942 1.385 . S
C942 H928 0.931 . S
C942 C941 1.385 . S
C942 C943 1.389 . S
C943 C942 1.389 . S
C943 C944 1.387 . S
C944 H929 0.930 . S
C944 C939 1.390 . S
C944 C943 1.387 . S
H945 C957 0.930 . S
H946 C959 0.930 . S
H947 C960 0.930 . S
H948 C964 0.959 . S
H949 C964 0.959 . S
H950 C964 0.961 . S
H951 C965 0.960 . S
H952 C965 0.961 . S
H953 C965 0.959 . S
H954 C968 0.929 . S
H955 C969 0.931 . S
H956 C971 0.930 . S
C957 H945 0.930 . S
C957 C958 1.399 . S
C957 C962 1.399 . S
C958 C957 1.399 . S
C958 C959 1.376 . S
C959 H946 0.930 . S
C959 C958 1.376 . S
C959 C960 1.388 . S
C960 H947 0.930 . S
C960 C959 1.388 . S
C960 C961 1.390 . S
C961 C960 1.390 . S
C961 C962 1.394 . S
C961 C967 1.465 . S
C962 C957 1.399 . S
C962 C961 1.394 . S
C962 C963 1.516 . S
C963 C962 1.516 . S
C963 C964 1.502 . S
C963 C965 1.561 . S
C963 C966 1.526 . S
C964 H948 0.959 . S
C964 H949 0.959 . S
C964 H950 0.961 . S
C964 C963 1.502 . S
C965 H951 0.960 . S
C965 H952 0.961 . S
C965 H953 0.959 . S
C965 C963 1.561 . S
C966 C963 1.526 . S
C966 C967 1.396 . S
C966 C971 1.390 . S
C967 C961 1.465 . S
C967 C966 1.396 . S
C967 C968 1.399 . S
C968 H954 0.929 . S
C968 C967 1.399 . S
C968 C969 1.385 . S
C969 H955 0.931 . S
C969 C968 1.385 . S
C969 C970 1.389 . S
C970 C969 1.389 . S
C970 C971 1.387 . S
C971 H956 0.930 . S
C971 C966 1.390 . S
C971 C970 1.387 . S
H972 C984 0.930 . S
H973 C986 0.930 . S
H974 C987 0.930 . S
H975 C991 0.959 . S
H976 C991 0.959 . S
H977 C991 0.961 . S
H978 C992 0.960 . S
H979 C992 0.961 . S
H980 C992 0.959 . S
H981 C995 0.929 . S
H982 C996 0.931 . S
H983 C998 0.930 . S
C984 H972 0.930 . S
C984 C985 1.399 . S
C984 C989 1.399 . S
C985 C984 1.399 . S
C985 C986 1.376 . S
C986 H973 0.930 . S
C986 C985 1.376 . S
C986 C987 1.388 . S
C987 H974 0.930 . S
C987 C986 1.388 . S
C987 C988 1.390 . S
C988 C987 1.390 . S
C988 C989 1.394 . S
C988 C994 1.465 1_565 S
C989 C984 1.399 . S
C989 C988 1.394 . S
C989 C990 1.516 . S
C990 C989 1.516 . S
C990 C991 1.502 . S
C990 C992 1.561 . S
C990 C993 1.526 1_565 S
C991 H975 0.959 . S
C991 H976 0.959 . S
C991 H977 0.961 . S
C991 C990 1.502 . S
C992 H978 0.960 . S
C992 H979 0.961 . S
C992 H980 0.959 . S
C992 C990 1.561 . S
C993 C990 1.526 1_545 S
C993 C994 1.396 . S
C993 C998 1.390 . S
C994 C988 1.465 1_545 S
C994 C993 1.396 . S
C994 C995 1.399 . S
C995 H981 0.929 . S
C995 C994 1.399 . S
C995 C996 1.385 . S
C996 H982 0.931 . S
C996 C995 1.385 . S
C996 C997 1.389 . S
C997 C996 1.389 . S
C997 C998 1.387 . S
C998 H983 0.930 . S
C998 C993 1.390 . S
C998 C997 1.387 . S
H999 C1011 0.930 . S
H1000 C1013 0.930 . S
H1001 C1014 0.930 . S
H1002 C1018 0.959 . S
H1003 C1018 0.959 . S
H1004 C1018 0.961 . S
H1005 C1019 0.960 . S
H1006 C1019 0.961 . S
H1007 C1019 0.959 . S
H1008 C1022 0.929 . S
H1009 C1023 0.931 . S
H1010 C1025 0.930 . S
C1011 H999 0.930 . S
C1011 C1012 1.399 . S
C1011 C1016 1.399 . S
C1012 C1011 1.399 . S
C1012 C1013 1.376 . S
C1013 H1000 0.930 . S
C1013 C1012 1.376 . S
C1013 C1014 1.388 . S
C1014 H1001 0.930 . S
C1014 C1013 1.388 . S
C1014 C1015 1.390 . S
C1015 C1014 1.390 . S
C1015 C1016 1.394 . S
C1015 C1021 1.465 1_545 S
C1016 C1011 1.399 . S
C1016 C1015 1.394 . S
C1016 C1017 1.516 1_545 S
C1017 C1016 1.516 1_565 S
C1017 C1018 1.502 . S
C1017 C1019 1.561 . S
C1017 C1020 1.526 . S
C1018 H1002 0.959 . S
C1018 H1003 0.959 . S
C1018 H1004 0.961 . S
C1018 C1017 1.502 . S
C1019 H1005 0.960 . S
C1019 H1006 0.961 . S
C1019 H1007 0.959 . S
C1019 C1017 1.561 . S
C1020 C1017 1.526 . S
C1020 C1021 1.396 . S
C1020 C1025 1.390 . S
C1021 C1015 1.465 1_565 S
C1021 C1020 1.396 . S
C1021 C1022 1.399 . S
C1022 H1008 0.929 . S
C1022 C1021 1.399 . S
C1022 C1023 1.385 . S
C1023 H1009 0.931 . S
C1023 C1022 1.385 . S
C1023 C1024 1.389 . S
C1024 C1023 1.389 . S
C1024 C1025 1.387 . S
C1025 H1010 0.930 . S
C1025 C1020 1.390 . S
C1025 C1024 1.387 . S
H1026 C1038 0.930 . S
H1027 C1040 0.930 . S
H1028 C1041 0.930 . S
H1029 C1045 0.959 . S
H1030 C1045 0.959 . S
H1031 C1045 0.961 . S
H1032 C1046 0.960 . S
H1033 C1046 0.961 1_655 S
H1034 C1046 0.959 1_655 S
H1035 C1049 0.929 . S
H1036 C1050 0.931 . S
H1037 C1052 0.930 . S
C1038 H1026 0.930 . S
C1038 C1039 1.399 . S
C1038 C1043 1.399 . S
C1039 C1038 1.399 . S
C1039 C1040 1.376 . S
C1040 H1027 0.930 . S
C1040 C1039 1.376 . S
C1040 C1041 1.388 . S
C1041 H1028 0.930 . S
C1041 C1040 1.388 . S
C1041 C1042 1.390 . S
C1042 C1041 1.390 . S
C1042 C1043 1.394 . S
C1042 C1048 1.465 1_455 S
C1043 C1038 1.399 . S
C1043 C1042 1.394 . S
C1043 C1044 1.516 . S
C1044 C1043 1.516 . S
C1044 C1045 1.502 . S
C1044 C1046 1.561 . S
C1044 C1047 1.526 1_455 S
C1045 H1029 0.959 . S
C1045 H1030 0.959 . S
C1045 H1031 0.961 . S
C1045 C1044 1.502 . S
C1046 H1032 0.960 . S
C1046 H1033 0.961 1_455 S
C1046 H1034 0.959 1_455 S
C1046 C1044 1.561 . S
C1047 C1044 1.526 1_655 S
C1047 C1048 1.396 . S
C1047 C1052 1.390 . S
C1048 C1042 1.465 1_655 S
C1048 C1047 1.396 . S
C1048 C1049 1.399 . S
C1049 H1035 0.929 . S
C1049 C1048 1.399 . S
C1049 C1050 1.385 . S
C1050 H1036 0.931 . S
C1050 C1049 1.385 . S
C1050 C1051 1.389 . S
C1051 C1050 1.389 . S
C1051 C1052 1.387 . S
C1052 H1037 0.930 . S
C1052 C1047 1.390 . S
C1052 C1051 1.387 . S
H1053 C1065 0.930 . S
H1054 C1067 0.930 . S
H1055 C1068 0.930 . S
H1056 C1072 0.959 . S
H1057 C1072 0.959 . S
H1058 C1072 0.961 . S
H1059 C1073 0.960 . S
H1060 C1073 0.961 . S
H1061 C1073 0.959 . S
H1062 C1076 0.929 . S
H1063 C1077 0.931 . S
H1064 C1079 0.930 . S
C1065 H1053 0.930 . S
C1065 C1066 1.399 . S
C1065 C1070 1.399 . S
C1066 C1065 1.399 . S
C1066 C1067 1.376 . S
C1067 H1054 0.930 . S
C1067 C1066 1.376 . S
C1067 C1068 1.388 . S
C1068 H1055 0.930 . S
C1068 C1067 1.388 . S
C1068 C1069 1.390 . S
C1069 C1068 1.390 . S
C1069 C1070 1.394 . S
C1069 C1075 1.465 . S
C1070 C1065 1.399 . S
C1070 C1069 1.394 . S
C1070 C1071 1.516 . S
C1071 C1070 1.516 . S
C1071 C1072 1.502 . S
C1071 C1073 1.561 . S
C1071 C1074 1.526 . S
C1072 H1056 0.959 . S
C1072 H1057 0.959 . S
C1072 H1058 0.961 . S
C1072 C1071 1.502 . S
C1073 H1059 0.960 . S
C1073 H1060 0.961 . S
C1073 H1061 0.959 . S
C1073 C1071 1.561 . S
C1074 C1071 1.526 . S
C1074 C1075 1.396 . S
C1074 C1079 1.390 . S
C1075 C1069 1.465 . S
C1075 C1074 1.396 . S
C1075 C1076 1.399 . S
C1076 H1062 0.929 . S
C1076 C1075 1.399 . S
C1076 C1077 1.385 . S
C1077 H1063 0.931 . S
C1077 C1076 1.385 . S
C1077 C1078 1.389 . S
C1078 C1077 1.389 . S
C1078 C1079 1.387 . S
C1079 H1064 0.930 . S
C1079 C1074 1.390 . S
C1079 C1078 1.387 . S
H1080 C1092 0.930 . S
H1081 C1094 0.930 . S
H1082 C1095 0.930 . S
H1083 C1099 0.959 . S
H1084 C1099 0.959 . S
H1085 C1099 0.961 . S
H1086 C1100 0.960 . S
H1087 C1100 0.961 . S
H1088 C1100 0.959 . S
H1089 C1103 0.929 . S
H1090 C1104 0.931 . S
H1091 C1106 0.930 . S
C1092 H1080 0.930 . S
C1092 C1093 1.399 . S
C1092 C1097 1.399 . S
C1093 C1092 1.399 . S
C1093 C1094 1.376 . S
C1094 H1081 0.930 . S
C1094 C1093 1.376 . S
C1094 C1095 1.388 . S
C1095 H1082 0.930 . S
C1095 C1094 1.388 . S
C1095 C1096 1.390 . S
C1096 C1095 1.390 . S
C1096 C1097 1.394 . S
C1096 C1102 1.465 . S
C1097 C1092 1.399 . S
C1097 C1096 1.394 . S
C1097 C1098 1.516 . S
C1098 C1097 1.516 . S
C1098 C1099 1.502 . S
C1098 C1100 1.561 . S
C1098 C1101 1.526 . S
C1099 H1083 0.959 . S
C1099 H1084 0.959 . S
C1099 H1085 0.961 . S
C1099 C1098 1.502 . S
C1100 H1086 0.960 . S
C1100 H1087 0.961 . S
C1100 H1088 0.959 . S
C1100 C1098 1.561 . S
C1101 C1098 1.526 . S
C1101 C1102 1.396 . S
C1101 C1106 1.390 . S
C1102 C1096 1.465 . S
C1102 C1101 1.396 . S
C1102 C1103 1.399 . S
C1103 H1089 0.929 . S
C1103 C1102 1.399 . S
C1103 C1104 1.385 . S
C1104 H1090 0.931 . S
C1104 C1103 1.385 . S
C1104 C1105 1.389 . S
C1105 C1104 1.389 . S
C1105 C1106 1.387 . S
C1106 H1091 0.930 . S
C1106 C1101 1.390 . S
C1106 C1105 1.387 . S
H1107 C1119 0.930 . S
H1108 C1121 0.930 . S
H1109 C1122 0.930 . S
H1110 C1126 0.959 . S
H1111 C1126 0.959 . S
H1112 C1126 0.961 . S
H1113 C1127 0.960 . S
H1114 C1127 0.961 . S
H1115 C1127 0.959 . S
H1116 C1130 0.929 . S
H1117 C1131 0.931 . S
H1118 C1133 0.930 . S
C1119 H1107 0.930 . S
C1119 C1120 1.399 . S
C1119 C1124 1.399 . S
C1120 C1119 1.399 . S
C1120 C1121 1.376 . S
C1121 H1108 0.930 . S
C1121 C1120 1.376 . S
C1121 C1122 1.388 . S
C1122 H1109 0.930 . S
C1122 C1121 1.388 . S
C1122 C1123 1.390 . S
C1123 C1122 1.390 . S
C1123 C1124 1.394 . S
C1123 C1129 1.465 . S
C1124 C1119 1.399 . S
C1124 C1123 1.394 . S
C1124 C1125 1.516 . S
C1125 C1124 1.516 . S
C1125 C1126 1.502 . S
C1125 C1127 1.561 . S
C1125 C1128 1.526 . S
C1126 H1110 0.959 . S
C1126 H1111 0.959 . S
C1126 H1112 0.961 . S
C1126 C1125 1.502 . S
C1127 H1113 0.960 . S
C1127 H1114 0.961 . S
C1127 H1115 0.959 . S
C1127 C1125 1.561 . S
C1128 C1125 1.526 . S
C1128 C1129 1.396 . S
C1128 C1133 1.390 . S
C1129 C1123 1.465 . S
C1129 C1128 1.396 . S
C1129 C1130 1.399 . S
C1130 H1116 0.929 . S
C1130 C1129 1.399 . S
C1130 C1131 1.385 . S
C1131 H1117 0.931 . S
C1131 C1130 1.385 . S
C1131 C1132 1.389 . S
C1132 C1131 1.389 . S
C1132 C1133 1.387 . S
C1133 H1118 0.930 . S
C1133 C1128 1.390 . S
C1133 C1132 1.387 . S
H1134 C1146 0.930 . S
H1135 C1148 0.930 . S
H1136 C1149 0.930 . S
H1137 C1153 0.959 . S
H1138 C1153 0.959 . S
H1139 C1153 0.961 . S
H1140 C1154 0.960 . S
H1141 C1154 0.961 . S
H1142 C1154 0.959 . S
H1143 C1157 0.929 . S
H1144 C1158 0.931 . S
H1145 C1160 0.930 . S
C1146 H1134 0.930 . S
C1146 C1147 1.399 . S
C1146 C1151 1.399 . S
C1147 C1146 1.399 . S
C1147 C1148 1.376 . S
C1148 H1135 0.930 . S
C1148 C1147 1.376 . S
C1148 C1149 1.388 . S
C1149 H1136 0.930 . S
C1149 C1148 1.388 . S
C1149 C1150 1.390 . S
C1150 C1149 1.390 . S
C1150 C1151 1.394 . S
C1150 C1156 1.465 . S
C1151 C1146 1.399 . S
C1151 C1150 1.394 . S
C1151 C1152 1.516 . S
C1152 C1151 1.516 . S
C1152 C1153 1.502 . S
C1152 C1154 1.561 . S
C1152 C1155 1.526 . S
C1153 H1137 0.959 . S
C1153 H1138 0.959 . S
C1153 H1139 0.961 . S
C1153 C1152 1.502 . S
C1154 H1140 0.960 . S
C1154 H1141 0.961 . S
C1154 H1142 0.959 . S
C1154 C1152 1.561 . S
C1155 C1152 1.526 . S
C1155 C1156 1.396 . S
C1155 C1160 1.390 . S
C1156 C1150 1.465 . S
C1156 C1155 1.396 . S
C1156 C1157 1.399 . S
C1157 H1143 0.929 . S
C1157 C1156 1.399 . S
C1157 C1158 1.385 . S
C1158 H1144 0.931 . S
C1158 C1157 1.385 . S
C1158 C1159 1.389 . S
C1159 C1158 1.389 . S
C1159 C1160 1.387 . S
C1160 H1145 0.930 . S
C1160 C1155 1.390 . S
C1160 C1159 1.387 . S
H1161 C1173 0.930 . S
H1162 C1175 0.930 . S
H1163 C1176 0.930 . S
H1164 C1180 0.959 . S
H1165 C1180 0.959 . S
H1166 C1180 0.961 . S
H1167 C1181 0.960 . S
H1168 C1181 0.961 . S
H1169 C1181 0.959 . S
H1170 C1184 0.929 . S
H1171 C1185 0.931 . S
H1172 C1187 0.930 . S
C1173 H1161 0.930 . S
C1173 C1174 1.399 . S
C1173 C1178 1.399 . S
C1174 C1173 1.399 . S
C1174 C1175 1.376 . S
C1175 H1162 0.930 . S
C1175 C1174 1.376 . S
C1175 C1176 1.388 . S
C1176 H1163 0.930 . S
C1176 C1175 1.388 . S
C1176 C1177 1.390 . S
C1177 C1176 1.390 . S
C1177 C1178 1.394 . S
C1177 C1183 1.465 . S
C1178 C1173 1.399 . S
C1178 C1177 1.394 . S
C1178 C1179 1.516 . S
C1179 C1178 1.516 . S
C1179 C1180 1.502 . S
C1179 C1181 1.561 . S
C1179 C1182 1.526 . S
C1180 H1164 0.959 . S
C1180 H1165 0.959 . S
C1180 H1166 0.961 . S
C1180 C1179 1.502 . S
C1181 H1167 0.960 . S
C1181 H1168 0.961 . S
C1181 H1169 0.959 . S
C1181 C1179 1.561 . S
C1182 C1179 1.526 . S
C1182 C1183 1.396 . S
C1182 C1187 1.390 . S
C1183 C1177 1.465 . S
C1183 C1182 1.396 . S
C1183 C1184 1.399 . S
C1184 H1170 0.929 . S
C1184 C1183 1.399 . S
C1184 C1185 1.385 . S
C1185 H1171 0.931 . S
C1185 C1184 1.385 . S
C1185 C1186 1.389 . S
C1186 C1185 1.389 . S
C1186 C1187 1.387 . S
C1187 H1172 0.930 . S
C1187 C1182 1.390 . S
C1187 C1186 1.387 . S
H1188 C1200 0.930 . S
H1189 C1202 0.930 . S
H1190 C1203 0.930 . S
H1191 C1207 0.959 . S
H1192 C1207 0.959 . S
H1193 C1207 0.961 . S
H1194 C1208 0.960 . S
H1195 C1208 0.961 . S
H1196 C1208 0.959 . S
H1197 C1211 0.929 . S
H1198 C1212 0.931 . S
H1199 C1214 0.930 . S
C1200 H1188 0.930 . S
C1200 C1201 1.399 . S
C1200 C1205 1.399 . S
C1201 C1200 1.399 . S
C1201 C1202 1.376 . S
C1202 H1189 0.930 . S
C1202 C1201 1.376 . S
C1202 C1203 1.388 . S
C1203 H1190 0.930 . S
C1203 C1202 1.388 . S
C1203 C1204 1.390 . S
C1204 C1203 1.390 . S
C1204 C1205 1.394 . S
C1204 C1210 1.465 . S
C1205 C1200 1.399 . S
C1205 C1204 1.394 . S
C1205 C1206 1.516 . S
C1206 C1205 1.516 . S
C1206 C1207 1.502 . S
C1206 C1208 1.561 . S
C1206 C1209 1.526 . S
C1207 H1191 0.959 . S
C1207 H1192 0.959 . S
C1207 H1193 0.961 . S
C1207 C1206 1.502 . S
C1208 H1194 0.960 . S
C1208 H1195 0.961 . S
C1208 H1196 0.959 . S
C1208 C1206 1.561 . S
C1209 C1206 1.526 . S
C1209 C1210 1.396 . S
C1209 C1214 1.390 . S
C1210 C1204 1.465 . S
C1210 C1209 1.396 . S
C1210 C1211 1.399 . S
C1211 H1197 0.929 . S
C1211 C1210 1.399 . S
C1211 C1212 1.385 . S
C1212 H1198 0.931 . S
C1212 C1211 1.385 . S
C1212 C1213 1.389 . S
C1213 C1212 1.389 . S
C1213 C1214 1.387 . S
C1214 H1199 0.930 . S
C1214 C1209 1.390 . S
C1214 C1213 1.387 . S
H1215 C1227 0.930 . S
H1216 C1229 0.930 . S
H1217 C1230 0.930 . S
H1218 C1234 0.959 . S
H1219 C1234 0.959 . S
H1220 C1234 0.961 . S
H1221 C1235 0.960 . S
H1222 C1235 0.961 . S
H1223 C1235 0.959 . S
H1224 C1238 0.929 . S
H1225 C1239 0.931 . S
H1226 C1241 0.930 . S
C1227 H1215 0.930 . S
C1227 C1228 1.399 . S
C1227 C1232 1.399 . S
C1228 C1227 1.399 . S
C1228 C1229 1.376 . S
C1229 H1216 0.930 . S
C1229 C1228 1.376 . S
C1229 C1230 1.388 . S
C1230 H1217 0.930 . S
C1230 C1229 1.388 . S
C1230 C1231 1.390 . S
C1231 C1230 1.390 . S
C1231 C1232 1.394 . S
C1231 C1237 1.465 . S
C1232 C1227 1.399 . S
C1232 C1231 1.394 . S
C1232 C1233 1.516 . S
C1233 C1232 1.516 . S
C1233 C1234 1.502 . S
C1233 C1235 1.561 . S
C1233 C1236 1.526 . S
C1234 H1218 0.959 . S
C1234 H1219 0.959 . S
C1234 H1220 0.961 . S
C1234 C1233 1.502 . S
C1235 H1221 0.960 . S
C1235 H1222 0.961 . S
C1235 H1223 0.959 . S
C1235 C1233 1.561 . S
C1236 C1233 1.526 . S
C1236 C1237 1.396 . S
C1236 C1241 1.390 . S
C1237 C1231 1.465 . S
C1237 C1236 1.396 . S
C1237 C1238 1.399 . S
C1238 H1224 0.929 . S
C1238 C1237 1.399 . S
C1238 C1239 1.385 . S
C1239 H1225 0.931 . S
C1239 C1238 1.385 . S
C1239 C1240 1.389 . S
C1240 C1239 1.389 . S
C1240 C1241 1.387 . S
C1241 H1226 0.930 . S
C1241 C1236 1.390 . S
C1241 C1240 1.387 . S
H1242 C1254 0.930 . S
H1243 C1256 0.930 . S
H1244 C1257 0.930 . S
H1245 C1261 0.959 . S
H1246 C1261 0.959 . S
H1247 C1261 0.961 1_554 S
H1248 C1262 0.960 1_554 S
H1249 C1262 0.961 . S
H1250 C1262 0.959 . S
H1251 C1265 0.929 . S
H1252 C1266 0.931 . S
H1253 C1268 0.930 . S
C1254 H1242 0.930 . S
C1254 C1255 1.399 . S
C1254 C1259 1.399 . S
C1255 C1254 1.399 . S
C1255 C1256 1.376 1_655 S
C1256 H1243 0.930 . S
C1256 C1255 1.376 1_455 S
C1256 C1257 1.388 . S
C1257 H1244 0.930 . S
C1257 C1256 1.388 . S
C1257 C1258 1.390 . S
C1258 C1257 1.390 . S
C1258 C1259 1.394 1_455 S
C1258 C1264 1.465 1_554 S
C1259 C1254 1.399 . S
C1259 C1258 1.394 1_655 S
C1259 C1260 1.516 1_554 S
C1260 C1259 1.516 1_556 S
C1260 C1261 1.502 . S
C1260 C1262 1.561 . S
C1260 C1263 1.526 . S
C1261 H1245 0.959 . S
C1261 H1246 0.959 . S
C1261 H1247 0.961 1_556 S
C1261 C1260 1.502 . S
C1262 H1248 0.960 1_556 S
C1262 H1249 0.961 . S
C1262 H1250 0.959 . S
C1262 C1260 1.561 . S
C1263 C1260 1.526 . S
C1263 C1264 1.396 1_655 S
C1263 C1268 1.390 . S
C1264 C1258 1.465 1_556 S
C1264 C1263 1.396 1_455 S
C1264 C1265 1.399 . S
C1265 H1251 0.929 . S
C1265 C1264 1.399 . S
C1265 C1266 1.385 . S
C1266 H1252 0.931 . S
C1266 C1265 1.385 . S
C1266 C1267 1.389 . S
C1267 C1266 1.389 . S
C1267 C1268 1.387 1_455 S
C1268 H1253 0.930 . S
C1268 C1263 1.390 . S
C1268 C1267 1.387 1_655 S
H1269 C1281 0.930 . S
H1270 C1283 0.930 . S
H1271 C1284 0.930 . S
H1272 C1288 0.959 . S
H1273 C1288 0.959 . S
H1274 C1288 0.961 1_554 S
H1275 C1289 0.935 1_554 S
H1276 C1289 0.986 . S
H1277 C1289 0.957 1_554 S
H1278 C1292 0.929 . S
H1279 C1293 0.931 . S
H1280 C1295 0.930 . S
C1281 H1269 0.930 . S
C1281 C1282 1.399 . S
C1281 C1286 1.399 . S
C1282 C1281 1.399 . S
C1282 C1283 1.376 . S
C1283 H1270 0.930 . S
C1283 C1282 1.376 . S
C1283 C1284 1.388 . S
C1284 H1271 0.930 . S
C1284 C1283 1.388 . S
C1284 C1285 1.390 . S
C1285 C1284 1.390 . S
C1285 C1286 1.394 . S
C1285 C1291 1.465 1_554 S
C1286 C1281 1.399 . S
C1286 C1285 1.394 . S
C1286 C1287 1.516 1_554 S
C1287 C1286 1.516 1_556 S
C1287 C1288 1.502 . S
C1287 C1289 1.563 . S
C1287 C1290 1.526 . S
C1288 H1272 0.959 . S
C1288 H1273 0.959 . S
C1288 H1274 0.961 1_556 S
C1288 C1287 1.502 . S
C1289 H1275 0.935 1_556 S
C1289 H1276 0.986 . S
C1289 H1277 0.957 1_556 S
C1289 C1287 1.563 . S
C1290 C1287 1.526 . S
C1290 C1291 1.396 . S
C1290 C1295 1.390 . S
C1291 C1285 1.465 1_556 S
C1291 C1290 1.396 . S
C1291 C1292 1.399 . S
C1292 H1278 0.929 . S
C1292 C1291 1.399 . S
C1292 C1293 1.385 . S
C1293 H1279 0.931 . S
C1293 C1292 1.385 . S
C1293 C1294 1.389 . S
C1294 C1293 1.389 . S
C1294 C1295 1.387 . S
C1295 H1280 0.930 . S
C1295 C1290 1.390 . S
C1295 C1294 1.387 . S
H1296 C1308 0.930 . S
H1297 C1310 0.930 . S
H1298 C1311 0.930 . S
H1299 C1315 0.959 . S
H1300 C1315 0.959 . S
H1301 C1315 0.961 1_554 S
H1302 C1316 0.960 1_554 S
H1303 C1316 0.961 . S
H1304 C1316 0.959 . S
H1305 C1319 0.929 . S
H1306 C1320 0.931 . S
H1307 C1322 0.930 . S
C1308 H1296 0.930 . S
C1308 C1309 1.399 . S
C1308 C1313 1.399 . S
C1309 C1308 1.399 . S
C1309 C1310 1.376 1_545 S
C1310 H1297 0.930 . S
C1310 C1309 1.376 1_565 S
C1310 C1311 1.388 . S
C1311 H1298 0.930 . S
C1311 C1310 1.388 . S
C1311 C1312 1.390 . S
C1312 C1311 1.390 . S
C1312 C1313 1.394 1_565 S
C1312 C1318 1.465 1_554 S
C1313 C1308 1.399 . S
C1313 C1312 1.394 1_545 S
C1313 C1314 1.516 1_554 S
C1314 C1313 1.516 1_556 S
C1314 C1315 1.502 . S
C1314 C1316 1.561 . S
C1314 C1317 1.526 . S
C1315 H1299 0.959 . S
C1315 H1300 0.959 . S
C1315 H1301 0.961 1_556 S
C1315 C1314 1.502 . S
C1316 H1302 0.960 1_556 S
C1316 H1303 0.961 . S
C1316 H1304 0.959 . S
C1316 C1314 1.561 . S
C1317 C1314 1.526 . S
C1317 C1318 1.396 1_545 S
C1317 C1322 1.390 . S
C1318 C1312 1.465 1_556 S
C1318 C1317 1.396 1_565 S
C1318 C1319 1.399 . S
C1319 H1305 0.929 . S
C1319 C1318 1.399 . S
C1319 C1320 1.385 . S
C1320 H1306 0.931 . S
C1320 C1319 1.385 . S
C1320 C1321 1.389 . S
C1321 C1320 1.389 . S
C1321 C1322 1.387 1_565 S
C1322 H1307 0.930 . S
C1322 C1317 1.390 . S
C1322 C1321 1.387 1_545 S
H1323 C1335 0.930 . S
H1324 C1337 0.930 . S
H1325 C1338 0.930 . S
H1326 C1342 0.959 . S
H1327 C1342 0.959 . S
H1328 C1342 0.961 . S
H1329 C1343 0.960 . S
H1330 C1343 0.961 . S
H1331 C1343 0.959 . S
H1332 C1346 0.929 . S
H1333 C1347 0.931 . S
H1334 C1349 0.930 . S
C1335 H1323 0.930 . S
C1335 C1336 1.399 . S
C1335 C1340 1.399 . S
C1336 C1335 1.399 . S
C1336 C1337 1.376 . S
C1337 H1324 0.930 . S
C1337 C1336 1.376 . S
C1337 C1338 1.388 . S
C1338 H1325 0.930 . S
C1338 C1337 1.388 . S
C1338 C1339 1.390 . S
C1339 C1338 1.390 . S
C1339 C1340 1.394 . S
C1339 C1345 1.465 . S
C1340 C1335 1.399 . S
C1340 C1339 1.394 . S
C1340 C1341 1.516 . S
C1341 C1340 1.516 . S
C1341 C1342 1.502 . S
C1341 C1343 1.561 . S
C1341 C1344 1.526 . S
C1342 H1326 0.959 . S
C1342 H1327 0.959 . S
C1342 H1328 0.961 . S
C1342 C1341 1.502 . S
C1343 H1329 0.960 . S
C1343 H1330 0.961 . S
C1343 H1331 0.959 . S
C1343 C1341 1.561 . S
C1344 C1341 1.526 . S
C1344 C1345 1.396 . S
C1344 C1349 1.390 . S
C1345 C1339 1.465 . S
C1345 C1344 1.396 . S
C1345 C1346 1.399 . S
C1346 H1332 0.929 . S
C1346 C1345 1.399 . S
C1346 C1347 1.385 . S
C1347 H1333 0.931 . S
C1347 C1346 1.385 . S
C1347 C1348 1.389 . S
C1348 C1347 1.389 . S
C1348 C1349 1.387 . S
C1349 H1334 0.930 . S
C1349 C1344 1.390 . S
C1349 C1348 1.387 . S
H1350 C1362 0.930 . S
H1351 C1364 0.930 . S
H1352 C1365 0.930 . S
H1353 C1369 0.959 . S
H1354 C1369 0.959 . S
H1355 C1369 0.961 1_565 S
H1356 C1370 0.960 . S
H1357 C1370 0.961 . S
H1358 C1370 0.959 . S
H1359 C1373 0.929 . S
H1360 C1374 0.931 . S
H1361 C1376 0.930 . S
C1362 H1350 0.930 . S
C1362 C1363 1.399 . S
C1362 C1367 1.399 1_565 S
C1363 C1362 1.399 . S
C1363 C1364 1.376 . S
C1364 H1351 0.930 . S
C1364 C1363 1.376 . S
C1364 C1365 1.388 1_565 S
C1365 H1352 0.930 . S
C1365 C1364 1.388 1_545 S
C1365 C1366 1.390 . S
C1366 C1365 1.390 . S
C1366 C1367 1.394 . S
C1366 C1372 1.465 . S
C1367 C1362 1.399 1_545 S
C1367 C1366 1.394 . S
C1367 C1368 1.516 . S
C1368 C1367 1.516 . S
C1368 C1369 1.502 . S
C1368 C1370 1.561 . S
C1368 C1371 1.526 . S
C1369 H1353 0.959 . S
C1369 H1354 0.959 . S
C1369 H1355 0.961 1_545 S
C1369 C1368 1.502 . S
C1370 H1356 0.960 . S
C1370 H1357 0.961 . S
C1370 H1358 0.959 . S
C1370 C1368 1.561 . S
C1371 C1368 1.526 . S
C1371 C1372 1.396 . S
C1371 C1376 1.390 . S
C1372 C1366 1.465 . S
C1372 C1371 1.396 . S
C1372 C1373 1.399 . S
C1373 H1359 0.929 . S
C1373 C1372 1.399 . S
C1373 C1374 1.385 . S
C1374 H1360 0.931 . S
C1374 C1373 1.385 . S
C1374 C1375 1.389 . S
C1375 C1374 1.389 . S
C1375 C1376 1.387 . S
C1376 H1361 0.930 . S
C1376 C1371 1.390 . S
C1376 C1375 1.387 . S
H1377 C1389 0.930 . S
H1378 C1391 0.930 . S
H1379 C1392 0.930 . S
H1380 C1396 0.959 . S
H1381 C1396 0.959 . S
H1382 C1396 0.961 . S
H1383 C1397 0.960 . S
H1384 C1397 0.961 . S
H1385 C1397 0.959 . S
H1386 C1400 0.929 . S
H1387 C1401 0.931 . S
H1388 C1403 0.930 . S
C1389 H1377 0.930 . S
C1389 C1390 1.399 . S
C1389 C1394 1.399 . S
C1390 C1389 1.399 . S
C1390 C1391 1.376 . S
C1391 H1378 0.930 . S
C1391 C1390 1.376 . S
C1391 C1392 1.388 . S
C1392 H1379 0.930 . S
C1392 C1391 1.388 . S
C1392 C1393 1.390 . S
C1393 C1392 1.390 . S
C1393 C1394 1.394 . S
C1393 C1399 1.465 . S
C1394 C1389 1.399 . S
C1394 C1393 1.394 . S
C1394 C1395 1.516 . S
C1395 C1394 1.516 . S
C1395 C1396 1.502 . S
C1395 C1397 1.561 . S
C1395 C1398 1.526 . S
C1396 H1380 0.959 . S
C1396 H1381 0.959 . S
C1396 H1382 0.961 . S
C1396 C1395 1.502 . S
C1397 H1383 0.960 . S
C1397 H1384 0.961 . S
C1397 H1385 0.959 . S
C1397 C1395 1.561 . S
C1398 C1395 1.526 . S
C1398 C1399 1.396 . S
C1398 C1403 1.390 1_655 S
C1399 C1393 1.465 . S
C1399 C1398 1.396 . S
C1399 C1400 1.399 . S
C1400 H1386 0.929 . S
C1400 C1399 1.399 . S
C1400 C1401 1.385 1_655 S
C1401 H1387 0.931 . S
C1401 C1400 1.385 1_455 S
C1401 C1402 1.389 . S
C1402 C1401 1.389 . S
C1402 C1403 1.387 . S
C1403 H1388 0.930 . S
C1403 C1398 1.390 1_455 S
C1403 C1402 1.387 . S
H1404 C1416 0.930 . S
H1405 C1418 0.930 . S
H1406 C1419 0.930 . S
H1407 C1423 0.959 . S
H1408 C1423 0.959 . S
H1409 C1423 0.961 . S
H1410 C1424 0.960 . S
H1411 C1424 0.961 . S
H1412 C1424 0.959 . S
H1413 C1427 0.929 . S
H1414 C1428 0.931 . S
H1415 C1430 0.930 . S
C1416 H1404 0.930 . S
C1416 C1417 1.399 . S
C1416 C1421 1.399 . S
C1417 C1416 1.399 . S
C1417 C1418 1.376 . S
C1418 H1405 0.930 . S
C1418 C1417 1.376 . S
C1418 C1419 1.388 . S
C1419 H1406 0.930 . S
C1419 C1418 1.388 . S
C1419 C1420 1.390 . S
C1420 C1419 1.390 . S
C1420 C1421 1.394 . S
C1420 C1426 1.465 . S
C1421 C1416 1.399 . S
C1421 C1420 1.394 . S
C1421 C1422 1.516 . S
C1422 C1421 1.516 . S
C1422 C1423 1.502 . S
C1422 C1424 1.561 . S
C1422 C1425 1.526 . S
C1423 H1407 0.959 . S
C1423 H1408 0.959 . S
C1423 H1409 0.961 . S
C1423 C1422 1.502 . S
C1424 H1410 0.960 . S
C1424 H1411 0.961 . S
C1424 H1412 0.959 . S
C1424 C1422 1.561 . S
C1425 C1422 1.526 . S
C1425 C1426 1.396 . S
C1425 C1430 1.390 . S
C1426 C1420 1.465 . S
C1426 C1425 1.396 . S
C1426 C1427 1.399 . S
C1427 H1413 0.929 . S
C1427 C1426 1.399 . S
C1427 C1428 1.385 . S
C1428 H1414 0.931 . S
C1428 C1427 1.385 . S
C1428 C1429 1.389 . S
C1429 C1428 1.389 . S
C1429 C1430 1.387 . S
C1430 H1415 0.930 . S
C1430 C1425 1.390 . S
C1430 C1429 1.387 . S
H1431 C1443 0.930 . S
H1432 C1445 0.930 . S
H1433 C1446 0.930 . S
H1434 C1450 0.959 . S
H1435 C1450 0.959 . S
H1436 C1450 0.961 . S
H1437 C1451 0.960 . S
H1438 C1451 0.961 . S
H1439 C1451 0.959 . S
H1440 C1454 0.929 . S
H1441 C1455 0.931 . S
H1442 C1457 0.930 . S
C1443 H1431 0.930 . S
C1443 C1444 1.399 . S
C1443 C1448 1.399 1_545 S
C1444 C1443 1.399 . S
C1444 C1445 1.376 . S
C1445 H1432 0.930 . S
C1445 C1444 1.376 . S
C1445 C1446 1.388 1_545 S
C1446 H1433 0.930 . S
C1446 C1445 1.388 1_565 S
C1446 C1447 1.390 . S
C1447 C1446 1.390 . S
C1447 C1448 1.394 . S
C1447 C1453 1.465 . S
C1448 C1443 1.399 1_565 S
C1448 C1447 1.394 . S
C1448 C1449 1.516 . S
C1449 C1448 1.516 . S
C1449 C1450 1.502 . S
C1449 C1451 1.561 . S
C1449 C1452 1.526 . S
C1450 H1434 0.959 . S
C1450 H1435 0.959 . S
C1450 H1436 0.961 . S
C1450 C1449 1.502 . S
C1451 H1437 0.960 . S
C1451 H1438 0.961 . S
C1451 H1439 0.959 . S
C1451 C1449 1.561 . S
C1452 C1449 1.526 . S
C1452 C1453 1.396 . S
C1452 C1457 1.390 . S
C1453 C1447 1.465 . S
C1453 C1452 1.396 . S
C1453 C1454 1.399 . S
C1454 H1440 0.929 . S
C1454 C1453 1.399 . S
C1454 C1455 1.385 . S
C1455 H1441 0.931 . S
C1455 C1454 1.385 . S
C1455 C1456 1.389 . S
C1456 C1455 1.389 . S
C1456 C1457 1.387 . S
C1457 H1442 0.930 . S
C1457 C1452 1.390 . S
C1457 C1456 1.387 . S
H1458 C1470 0.930 . S
H1459 C1472 0.930 . S
H1460 C1473 0.930 . S
H1461 C1477 0.959 . S
H1462 C1477 0.959 . S
H1463 C1477 0.961 . S
H1464 C1478 0.960 . S
H1465 C1478 0.961 . S
H1466 C1478 0.959 . S
H1467 C1481 0.929 . S
H1468 C1482 0.931 . S
H1469 C1484 0.930 . S
C1470 H1458 0.930 . S
C1470 C1471 1.399 . S
C1470 C1475 1.399 . S
C1471 C1470 1.399 . S
C1471 C1472 1.376 . S
C1472 H1459 0.930 . S
C1472 C1471 1.376 . S
C1472 C1473 1.388 . S
C1473 H1460 0.930 . S
C1473 C1472 1.388 . S
C1473 C1474 1.390 . S
C1474 C1473 1.390 . S
C1474 C1475 1.394 . S
C1474 C1480 1.465 . S
C1475 C1470 1.399 . S
C1475 C1474 1.394 . S
C1475 C1476 1.516 . S
C1476 C1475 1.516 . S
C1476 C1477 1.502 . S
C1476 C1478 1.561 . S
C1476 C1479 1.526 . S
C1477 H1461 0.959 . S
C1477 H1462 0.959 . S
C1477 H1463 0.961 . S
C1477 C1476 1.502 . S
C1478 H1464 0.960 . S
C1478 H1465 0.961 . S
C1478 H1466 0.959 . S
C1478 C1476 1.561 . S
C1479 C1476 1.526 . S
C1479 C1480 1.396 . S
C1479 C1484 1.390 1_455 S
C1480 C1474 1.465 . S
C1480 C1479 1.396 . S
C1480 C1481 1.399 1_455 S
C1481 H1467 0.929 . S
C1481 C1480 1.399 1_655 S
C1481 C1482 1.385 . S
C1482 H1468 0.931 . S
C1482 C1481 1.385 . S
C1482 C1483 1.389 . S
C1483 C1482 1.389 . S
C1483 C1484 1.387 . S
C1484 H1469 0.930 . S
C1484 C1479 1.390 1_655 S
C1484 C1483 1.387 . S
H1485 C1497 0.930 . S
H1486 C1499 0.930 . S
H1487 C1500 0.930 . S
H1488 C1504 0.959 . S
H1489 C1504 0.959 . S
H1490 C1504 0.961 . S
H1491 C1505 0.960 . S
H1492 C1505 0.961 . S
H1493 C1505 0.959 . S
H1494 C1508 0.929 . S
H1495 C1509 0.931 . S
H1496 C1511 0.930 . S
C1497 H1485 0.930 . S
C1497 C1498 1.399 . S
C1497 C1502 1.399 . S
C1498 C1497 1.399 . S
C1498 C1499 1.376 . S
C1499 H1486 0.930 . S
C1499 C1498 1.376 . S
C1499 C1500 1.388 . S
C1500 H1487 0.930 . S
C1500 C1499 1.388 . S
C1500 C1501 1.390 . S
C1501 C1500 1.390 . S
C1501 C1502 1.394 . S
C1501 C1507 1.465 . S
C1502 C1497 1.399 . S
C1502 C1501 1.394 . S
C1502 C1503 1.516 . S
C1503 C1502 1.516 . S
C1503 C1504 1.502 . S
C1503 C1505 1.561 . S
C1503 C1506 1.526 . S
C1504 H1488 0.959 . S
C1504 H1489 0.959 . S
C1504 H1490 0.961 . S
C1504 C1503 1.502 . S
C1505 H1491 0.960 . S
C1505 H1492 0.961 . S
C1505 H1493 0.959 . S
C1505 C1503 1.561 . S
C1506 C1503 1.526 . S
C1506 C1507 1.396 . S
C1506 C1511 1.390 . S
C1507 C1501 1.465 . S
C1507 C1506 1.396 . S
C1507 C1508 1.399 . S
C1508 H1494 0.929 . S
C1508 C1507 1.399 . S
C1508 C1509 1.385 . S
C1509 H1495 0.931 . S
C1509 C1508 1.385 . S
C1509 C1510 1.389 . S
C1510 C1509 1.389 . S
C1510 C1511 1.387 . S
C1511 H1496 0.930 . S
C1511 C1506 1.390 . S
C1511 C1510 1.387 . S
H1512 C1524 0.930 . S
H1513 C1526 0.930 . S
H1514 C1527 0.930 . S
H1515 C1531 0.959 . S
H1516 C1531 0.959 . S
H1517 C1531 0.961 . S
H1518 C1532 0.960 . S
H1519 C1532 0.961 . S
H1520 C1532 0.959 . S
H1521 C1535 0.929 . S
H1522 C1536 0.931 . S
H1523 C1538 0.930 . S
C1524 H1512 0.930 . S
C1524 C1525 1.399 . S
C1524 C1529 1.399 . S
C1525 C1524 1.399 . S
C1525 C1526 1.376 . S
C1526 H1513 0.930 . S
C1526 C1525 1.376 . S
C1526 C1527 1.388 . S
C1527 H1514 0.930 . S
C1527 C1526 1.388 . S
C1527 C1528 1.390 . S
C1528 C1527 1.390 . S
C1528 C1529 1.394 . S
C1528 C1534 1.465 . S
C1529 C1524 1.399 . S
C1529 C1528 1.394 . S
C1529 C1530 1.516 . S
C1530 C1529 1.516 . S
C1530 C1531 1.502 . S
C1530 C1532 1.561 . S
C1530 C1533 1.526 . S
C1531 H1515 0.959 . S
C1531 H1516 0.959 . S
C1531 H1517 0.961 . S
C1531 C1530 1.502 . S
C1532 H1518 0.960 . S
C1532 H1519 0.961 . S
C1532 H1520 0.959 . S
C1532 C1530 1.561 . S
C1533 C1530 1.526 . S
C1533 C1534 1.396 . S
C1533 C1538 1.390 . S
C1534 C1528 1.465 . S
C1534 C1533 1.396 . S
C1534 C1535 1.399 . S
C1535 H1521 0.929 . S
C1535 C1534 1.399 . S
C1535 C1536 1.385 . S
C1536 H1522 0.931 . S
C1536 C1535 1.385 . S
C1536 C1537 1.389 . S
C1537 C1536 1.389 . S
C1537 C1538 1.387 . S
C1538 H1523 0.930 . S
C1538 C1533 1.390 . S
C1538 C1537 1.387 . S
H1539 C1551 0.930 . S
H1540 C1553 0.930 . S
H1541 C1554 0.930 . S
H1542 C1558 0.959 . S
H1543 C1558 0.959 . S
H1544 C1558 0.961 . S
H1545 C1559 0.960 . S
H1546 C1559 0.961 . S
H1547 C1559 0.959 . S
H1548 C1562 0.929 . S
H1549 C1563 0.931 . S
H1550 C1565 0.930 . S
C1551 H1539 0.930 . S
C1551 C1552 1.399 . S
C1551 C1556 1.399 . S
C1552 C1551 1.399 . S
C1552 C1553 1.376 . S
C1553 H1540 0.930 . S
C1553 C1552 1.376 . S
C1553 C1554 1.388 . S
C1554 H1541 0.930 . S
C1554 C1553 1.388 . S
C1554 C1555 1.390 . S
C1555 C1554 1.390 . S
C1555 C1556 1.394 . S
C1555 C1561 1.465 . S
C1556 C1551 1.399 . S
C1556 C1555 1.394 . S
C1556 C1557 1.516 . S
C1557 C1556 1.516 . S
C1557 C1558 1.502 . S
C1557 C1559 1.561 . S
C1557 C1560 1.526 . S
C1558 H1542 0.959 . S
C1558 H1543 0.959 . S
C1558 H1544 0.961 . S
C1558 C1557 1.502 . S
C1559 H1545 0.960 . S
C1559 H1546 0.961 . S
C1559 H1547 0.959 . S
C1559 C1557 1.561 . S
C1560 C1557 1.526 . S
C1560 C1561 1.396 . S
C1560 C1565 1.390 . S
C1561 C1555 1.465 . S
C1561 C1560 1.396 . S
C1561 C1562 1.399 . S
C1562 H1548 0.929 . S
C1562 C1561 1.399 . S
C1562 C1563 1.385 . S
C1563 H1549 0.931 . S
C1563 C1562 1.385 . S
C1563 C1564 1.389 . S
C1564 C1563 1.389 . S
C1564 C1565 1.387 . S
C1565 H1550 0.930 . S
C1565 C1560 1.390 . S
C1565 C1564 1.387 . S
H1566 C1578 0.930 . S
H1567 C1580 0.930 . S
H1568 C1581 0.930 . S
H1569 C1585 0.959 . S
H1570 C1585 0.959 . S
H1571 C1585 0.961 . S
H1572 C1586 0.960 . S
H1573 C1586 0.961 . S
H1574 C1586 0.959 . S
H1575 C1589 0.929 . S
H1576 C1590 0.931 . S
H1577 C1592 0.930 . S
C1578 H1566 0.930 . S
C1578 C1579 1.399 . S
C1578 C1583 1.399 . S
C1579 C1578 1.399 . S
C1579 C1580 1.376 . S
C1580 H1567 0.930 . S
C1580 C1579 1.376 . S
C1580 C1581 1.388 . S
C1581 H1568 0.930 . S
C1581 C1580 1.388 . S
C1581 C1582 1.390 . S
C1582 C1581 1.390 . S
C1582 C1583 1.394 . S
C1582 C1588 1.465 . S
C1583 C1578 1.399 . S
C1583 C1582 1.394 . S
C1583 C1584 1.516 . S
C1584 C1583 1.516 . S
C1584 C1585 1.502 . S
C1584 C1586 1.561 . S
C1584 C1587 1.526 . S
C1585 H1569 0.959 . S
C1585 H1570 0.959 . S
C1585 H1571 0.961 . S
C1585 C1584 1.502 . S
C1586 H1572 0.960 . S
C1586 H1573 0.961 . S
C1586 H1574 0.959 . S
C1586 C1584 1.561 . S
C1587 C1584 1.526 . S
C1587 C1588 1.396 . S
C1587 C1592 1.390 . S
C1588 C1582 1.465 . S
C1588 C1587 1.396 . S
C1588 C1589 1.399 . S
C1589 H1575 0.929 . S
C1589 C1588 1.399 . S
C1589 C1590 1.385 . S
C1590 H1576 0.931 . S
C1590 C1589 1.385 . S
C1590 C1591 1.389 . S
C1591 C1590 1.389 . S
C1591 C1592 1.387 . S
C1592 H1577 0.930 . S
C1592 C1587 1.390 . S
C1592 C1591 1.387 . S
H1593 C1605 0.930 . S
H1594 C1607 0.930 . S
H1595 C1608 0.930 . S
H1596 C1612 0.959 . S
H1597 C1612 0.959 . S
H1598 C1612 0.961 . S
H1599 C1613 0.960 . S
H1600 C1613 0.961 . S
H1601 C1613 0.959 . S
H1602 C1616 0.929 . S
H1603 C1617 0.931 . S
H1604 C1619 0.930 . S
C1605 H1593 0.930 . S
C1605 C1606 1.399 . S
C1605 C1610 1.399 . S
C1606 C1605 1.399 . S
C1606 C1607 1.376 . S
C1607 H1594 0.930 . S
C1607 C1606 1.376 . S
C1607 C1608 1.388 . S
C1608 H1595 0.930 . S
C1608 C1607 1.388 . S
C1608 C1609 1.390 . S
C1609 C1608 1.390 . S
C1609 C1610 1.394 . S
C1609 C1615 1.465 . S
C1610 C1605 1.399 . S
C1610 C1609 1.394 . S
C1610 C1611 1.516 . S
C1611 C1610 1.516 . S
C1611 C1612 1.502 . S
C1611 C1613 1.561 . S
C1611 C1614 1.526 . S
C1612 H1596 0.959 . S
C1612 H1597 0.959 . S
C1612 H1598 0.961 . S
C1612 C1611 1.502 . S
C1613 H1599 0.960 . S
C1613 H1600 0.961 . S
C1613 H1601 0.959 . S
C1613 C1611 1.561 . S
C1614 C1611 1.526 . S
C1614 C1615 1.396 . S
C1614 C1619 1.390 . S
C1615 C1609 1.465 . S
C1615 C1614 1.396 . S
C1615 C1616 1.399 . S
C1616 H1602 0.929 . S
C1616 C1615 1.399 . S
C1616 C1617 1.385 . S
C1617 H1603 0.931 . S
C1617 C1616 1.385 . S
C1617 C1618 1.389 . S
C1618 C1617 1.389 . S
C1618 C1619 1.387 . S
C1619 H1604 0.930 . S
C1619 C1614 1.390 . S
C1619 C1618 1.387 . S
H1620 C1632 0.930 . S
H1621 C1634 0.930 . S
H1622 C1635 0.930 . S
H1623 C1639 0.959 . S
H1624 C1639 0.959 . S
H1625 C1639 0.961 . S
H1626 C1640 0.960 . S
H1627 C1640 0.961 . S
H1628 C1640 0.959 . S
H1629 C1643 0.929 . S
H1630 C1644 0.931 . S
H1631 C1646 0.930 . S
C1632 H1620 0.930 . S
C1632 C1633 1.399 . S
C1632 C1637 1.399 . S
C1633 C1632 1.399 . S
C1633 C1634 1.376 . S
C1634 H1621 0.930 . S
C1634 C1633 1.376 . S
C1634 C1635 1.388 . S
C1635 H1622 0.930 . S
C1635 C1634 1.388 . S
C1635 C1636 1.390 . S
C1636 C1635 1.390 . S
C1636 C1637 1.394 . S
C1636 C1642 1.465 . S
C1637 C1632 1.399 . S
C1637 C1636 1.394 . S
C1637 C1638 1.516 . S
C1638 C1637 1.516 . S
C1638 C1639 1.502 . S
C1638 C1640 1.561 . S
C1638 C1641 1.526 . S
C1639 H1623 0.959 . S
C1639 H1624 0.959 . S
C1639 H1625 0.961 . S
C1639 C1638 1.502 . S
C1640 H1626 0.960 . S
C1640 H1627 0.961 . S
C1640 H1628 0.959 . S
C1640 C1638 1.561 . S
C1641 C1638 1.526 . S
C1641 C1642 1.396 . S
C1641 C1646 1.390 . S
C1642 C1636 1.465 . S
C1642 C1641 1.396 . S
C1642 C1643 1.399 . S
C1643 H1629 0.929 . S
C1643 C1642 1.399 . S
C1643 C1644 1.385 . S
C1644 H1630 0.931 . S
C1644 C1643 1.385 . S
C1644 C1645 1.389 . S
C1645 C1644 1.389 . S
C1645 C1646 1.387 . S
C1646 H1631 0.930 . S
C1646 C1641 1.390 . S
C1646 C1645 1.387 . S
H1647 C1659 0.930 . S
H1648 C1661 0.930 . S
H1649 C1662 0.930 . S
H1650 C1666 0.959 . S
H1651 C1666 0.959 . S
H1652 C1666 0.961 . S
H1653 C1667 0.960 . S
H1654 C1667 0.961 . S
H1655 C1667 0.959 . S
H1656 C1670 0.929 . S
H1657 C1671 0.931 . S
H1658 C1673 0.930 . S
C1659 H1647 0.930 . S
C1659 C1660 1.399 . S
C1659 C1664 1.399 . S
C1660 C1659 1.399 . S
C1660 C1661 1.376 . S
C1661 H1648 0.930 . S
C1661 C1660 1.376 . S
C1661 C1662 1.388 . S
C1662 H1649 0.930 . S
C1662 C1661 1.388 . S
C1662 C1663 1.390 . S
C1663 C1662 1.390 . S
C1663 C1664 1.394 . S
C1663 C1669 1.465 . S
C1664 C1659 1.399 . S
C1664 C1663 1.394 . S
C1664 C1665 1.516 . S
C1665 C1664 1.516 . S
C1665 C1666 1.502 . S
C1665 C1667 1.561 . S
C1665 C1668 1.526 . S
C1666 H1650 0.959 . S
C1666 H1651 0.959 . S
C1666 H1652 0.961 . S
C1666 C1665 1.502 . S
C1667 H1653 0.960 . S
C1667 H1654 0.961 . S
C1667 H1655 0.959 . S
C1667 C1665 1.561 . S
C1668 C1665 1.526 . S
C1668 C1669 1.396 . S
C1668 C1673 1.390 . S
C1669 C1663 1.465 . S
C1669 C1668 1.396 . S
C1669 C1670 1.399 . S
C1670 H1656 0.929 . S
C1670 C1669 1.399 . S
C1670 C1671 1.385 . S
C1671 H1657 0.931 . S
C1671 C1670 1.385 . S
C1671 C1672 1.389 . S
C1672 C1671 1.389 . S
C1672 C1673 1.387 . S
C1673 H1658 0.930 . S
C1673 C1668 1.390 . S
C1673 C1672 1.387 . S
H1674 C1686 0.930 . S
H1675 C1688 0.930 . S
H1676 C1689 0.930 . S
H1677 C1693 0.959 . S
H1678 C1693 0.959 . S
H1679 C1693 0.961 . S
H1680 C1694 0.960 . S
H1681 C1694 0.961 . S
H1682 C1694 0.959 . S
H1683 C1697 0.929 . S
H1684 C1698 0.931 . S
H1685 C1700 0.930 . S
C1686 H1674 0.930 . S
C1686 C1687 1.399 . S
C1686 C1691 1.399 . S
C1687 C1686 1.399 . S
C1687 C1688 1.376 . S
C1688 H1675 0.930 . S
C1688 C1687 1.376 . S
C1688 C1689 1.388 . S
C1689 H1676 0.930 . S
C1689 C1688 1.388 . S
C1689 C1690 1.390 . S
C1690 C1689 1.390 . S
C1690 C1691 1.394 . S
C1690 C1696 1.465 . S
C1691 C1686 1.399 . S
C1691 C1690 1.394 . S
C1691 C1692 1.516 . S
C1692 C1691 1.516 . S
C1692 C1693 1.502 . S
C1692 C1694 1.561 . S
C1692 C1695 1.526 . S
C1693 H1677 0.959 . S
C1693 H1678 0.959 . S
C1693 H1679 0.961 . S
C1693 C1692 1.502 . S
C1694 H1680 0.960 . S
C1694 H1681 0.961 . S
C1694 H1682 0.959 . S
C1694 C1692 1.561 . S
C1695 C1692 1.526 . S
C1695 C1696 1.396 . S
C1695 C1700 1.390 . S
C1696 C1690 1.465 . S
C1696 C1695 1.396 . S
C1696 C1697 1.399 . S
C1697 H1683 0.929 . S
C1697 C1696 1.399 . S
C1697 C1698 1.385 . S
C1698 H1684 0.931 . S
C1698 C1697 1.385 . S
C1698 C1699 1.389 . S
C1699 C1698 1.389 . S
C1699 C1700 1.387 . S
C1700 H1685 0.930 . S
C1700 C1695 1.390 . S
C1700 C1699 1.387 . S
H1701 C1713 0.930 . S
H1702 C1715 0.930 . S
H1703 C1716 0.930 . S
H1704 C1720 0.959 . S
H1705 C1720 0.959 . S
H1706 C1720 0.961 . S
H1707 C1721 0.960 . S
H1708 C1721 0.961 . S
H1709 C1721 0.959 . S
H1710 C1724 0.929 . S
H1711 C1725 0.931 . S
H1712 C1727 0.930 . S
C1713 H1701 0.930 . S
C1713 C1714 1.399 . S
C1713 C1718 1.399 . S
C1714 C1713 1.399 . S
C1714 C1715 1.376 . S
C1715 H1702 0.930 . S
C1715 C1714 1.376 . S
C1715 C1716 1.388 . S
C1716 H1703 0.930 . S
C1716 C1715 1.388 . S
C1716 C1717 1.390 . S
C1717 C1716 1.390 . S
C1717 C1718 1.394 . S
C1717 C1723 1.465 . S
C1718 C1713 1.399 . S
C1718 C1717 1.394 . S
C1718 C1719 1.516 . S
C1719 C1718 1.516 . S
C1719 C1720 1.502 . S
C1719 C1721 1.561 . S
C1719 C1722 1.526 . S
C1720 H1704 0.959 . S
C1720 H1705 0.959 . S
C1720 H1706 0.961 . S
C1720 C1719 1.502 . S
C1721 H1707 0.960 . S
C1721 H1708 0.961 . S
C1721 H1709 0.959 . S
C1721 C1719 1.561 . S
C1722 C1719 1.526 . S
C1722 C1723 1.396 . S
C1722 C1727 1.390 . S
C1723 C1717 1.465 . S
C1723 C1722 1.396 . S
C1723 C1724 1.399 . S
C1724 H1710 0.929 . S
C1724 C1723 1.399 . S
C1724 C1725 1.385 . S
C1725 H1711 0.931 . S
C1725 C1724 1.385 . S
C1725 C1726 1.389 . S
C1726 C1725 1.389 . S
C1726 C1727 1.387 . S
C1727 H1712 0.930 . S
C1727 C1722 1.390 . S
C1727 C1726 1.387 . S
H1728 C1740 0.930 . S
H1729 C1742 0.930 . S
H1730 C1743 0.930 . S
H1731 C1747 0.959 . S
H1732 C1747 0.959 . S
H1733 C1747 0.961 . S
H1734 C1748 0.960 . S
H1735 C1748 0.961 . S
H1736 C1748 0.959 . S
H1737 C1751 0.929 . S
H1738 C1752 0.931 . S
H1739 C1754 0.930 . S
C1740 H1728 0.930 . S
C1740 C1741 1.399 . S
C1740 C1745 1.399 . S
C1741 C1740 1.399 . S
C1741 C1742 1.376 . S
C1742 H1729 0.930 . S
C1742 C1741 1.376 . S
C1742 C1743 1.388 . S
C1743 H1730 0.930 . S
C1743 C1742 1.388 . S
C1743 C1744 1.390 . S
C1744 C1743 1.390 . S
C1744 C1745 1.394 . S
C1744 C1750 1.465 . S
C1745 C1740 1.399 . S
C1745 C1744 1.394 . S
C1745 C1746 1.516 . S
C1746 C1745 1.516 . S
C1746 C1747 1.502 . S
C1746 C1748 1.561 . S
C1746 C1749 1.526 . S
C1747 H1731 0.959 . S
C1747 H1732 0.959 . S
C1747 H1733 0.961 . S
C1747 C1746 1.502 . S
C1748 H1734 0.960 . S
C1748 H1735 0.961 . S
C1748 H1736 0.959 . S
C1748 C1746 1.561 . S
C1749 C1746 1.526 . S
C1749 C1750 1.396 . S
C1749 C1754 1.390 . S
C1750 C1744 1.465 . S
C1750 C1749 1.396 . S
C1750 C1751 1.399 . S
C1751 H1737 0.929 . S
C1751 C1750 1.399 . S
C1751 C1752 1.385 . S
C1752 H1738 0.931 . S
C1752 C1751 1.385 . S
C1752 C1753 1.389 . S
C1753 C1752 1.389 . S
C1753 C1754 1.387 . S
C1754 H1739 0.930 . S
C1754 C1749 1.390 . S
C1754 C1753 1.387 . S
H1755 C1767 0.930 . S
H1756 C1769 0.930 . S
H1757 C1770 0.930 . S
H1758 C1774 0.959 . S
H1759 C1774 0.959 . S
H1760 C1774 0.961 . S
H1761 C1775 0.960 . S
H1762 C1775 0.961 . S
H1763 C1775 0.959 . S
H1764 C1778 0.929 . S
H1765 C1779 0.931 . S
H1766 C1781 0.930 . S
C1767 H1755 0.930 . S
C1767 C1768 1.399 . S
C1767 C1772 1.399 . S
C1768 C1767 1.399 . S
C1768 C1769 1.376 . S
C1769 H1756 0.930 . S
C1769 C1768 1.376 . S
C1769 C1770 1.388 . S
C1770 H1757 0.930 . S
C1770 C1769 1.388 . S
C1770 C1771 1.390 . S
C1771 C1770 1.390 . S
C1771 C1772 1.394 . S
C1771 C1777 1.465 . S
C1772 C1767 1.399 . S
C1772 C1771 1.394 . S
C1772 C1773 1.516 . S
C1773 C1772 1.516 . S
C1773 C1774 1.502 . S
C1773 C1775 1.561 . S
C1773 C1776 1.526 . S
C1774 H1758 0.959 . S
C1774 H1759 0.959 . S
C1774 H1760 0.961 . S
C1774 C1773 1.502 . S
C1775 H1761 0.960 . S
C1775 H1762 0.961 . S
C1775 H1763 0.959 . S
C1775 C1773 1.561 . S
C1776 C1773 1.526 . S
C1776 C1777 1.396 . S
C1776 C1781 1.390 . S
C1777 C1771 1.465 . S
C1777 C1776 1.396 . S
C1777 C1778 1.399 . S
C1778 H1764 0.929 . S
C1778 C1777 1.399 . S
C1778 C1779 1.385 . S
C1779 H1765 0.931 . S
C1779 C1778 1.385 . S
C1779 C1780 1.389 . S
C1780 C1779 1.389 . S
C1780 C1781 1.387 . S
C1781 H1766 0.930 . S
C1781 C1776 1.390 . S
C1781 C1780 1.387 . S
H1782 C1794 0.930 . S
H1783 C1796 0.930 . S
H1784 C1797 0.930 . S
H1785 C1801 0.959 . S
H1786 C1801 0.959 . S
H1787 C1801 0.961 . S
H1788 C1802 0.960 . S
H1789 C1802 0.961 . S
H1790 C1802 0.959 . S
H1791 C1805 0.929 . S
H1792 C1806 0.931 . S
H1793 C1808 0.930 . S
C1794 H1782 0.930 . S
C1794 C1795 1.399 . S
C1794 C1799 1.399 . S
C1795 C1794 1.399 . S
C1795 C1796 1.376 . S
C1796 H1783 0.930 . S
C1796 C1795 1.376 . S
C1796 C1797 1.388 . S
C1797 H1784 0.930 . S
C1797 C1796 1.388 . S
C1797 C1798 1.390 . S
C1798 C1797 1.390 . S
C1798 C1799 1.394 . S
C1798 C1804 1.465 . S
C1799 C1794 1.399 . S
C1799 C1798 1.394 . S
C1799 C1800 1.516 . S
C1800 C1799 1.516 . S
C1800 C1801 1.502 . S
C1800 C1802 1.561 . S
C1800 C1803 1.526 . S
C1801 H1785 0.959 . S
C1801 H1786 0.959 . S
C1801 H1787 0.961 . S
C1801 C1800 1.502 . S
C1802 H1788 0.960 . S
C1802 H1789 0.961 . S
C1802 H1790 0.959 . S
C1802 C1800 1.561 . S
C1803 C1800 1.526 . S
C1803 C1804 1.396 . S
C1803 C1808 1.390 . S
C1804 C1798 1.465 . S
C1804 C1803 1.396 . S
C1804 C1805 1.399 . S
C1805 H1791 0.929 . S
C1805 C1804 1.399 . S
C1805 C1806 1.385 . S
C1806 H1792 0.931 . S
C1806 C1805 1.385 . S
C1806 C1807 1.389 . S
C1807 C1806 1.389 . S
C1807 C1808 1.387 . S
C1808 H1793 0.930 . S
C1808 C1803 1.390 . S
C1808 C1807 1.387 . S
C607 N332 1.724 . S
C619 N2 1.696 . S
C634 N35 1.725 . S
C646 N365 1.783 . S
C661 N299 1.762 1_455 S
C673 N68 1.759 . S
C688 N464 1.676 . S
C700 N101 1.695 . S
C715 N134 1.731 . S
C727 N398 1.703 1_545 S
C742 N431 1.734 . S
C754 N167 1.681 . S
C769 C172 1.763 . S
C781 C469 1.757 . S
C796 C403 1.759 . S
C808 C106 1.730 . S
C823 C436 1.768 . S
C835 C139 1.731 . S
C850 C40 1.758 . S
C862 C337 1.731 . S
C877 C73 1.743 . S
C889 C370 1.740 . S
C904 C7 1.731 . S
C916 C304 1.770 . S
C931 N530 1.713 . S
C943 N200 1.741 . S
C958 N563 1.678 . S
C970 N233 1.676 . S
C985 N497 1.761 . S
C997 N266 1.744 . S
C1012 C238 1.763 . S
C1024 C535 1.730 . S
C1039 C568 1.729 . S
C1051 C271 1.763 . S
C1066 C205 1.767 . S
C1078 C502 1.730 . S
C1093 C21 1.340 . S
C1105 C582 1.310 . S
C1120 C54 1.350 . S
C1132 C516 1.313 . S
C1147 C87 1.325 . S
C1159 C549 1.342 . S
C1174 C252 1.307 . S
C1186 C120 1.344 . S
C1201 C153 1.350 . S
C1213 C285 1.313 . S
C1228 C186 1.315 . S
C1240 C219 1.348 . S
C1255 C318 1.333 . S
C1267 C450 1.314 . S
C1282 C351 1.349 . S
C1294 C483 1.315 . S
C1309 C384 1.343 . S
C1321 C417 1.309 . S
C1336 N79 1.383 1_545 S
C1348 C18 1.450 . S
C1363 C51 1.440 . S
C1375 N13 1.398 . S
C1390 N46 1.446 . S
C1402 C84 1.397 . S
C1417 N145 1.447 1_455 S
C1429 C117 1.395 . S
C1444 C150 1.451 . S
C1456 N178 1.380 . S
C1471 N112 1.445 . S
C1483 C183 1.397 . S
C1498 C216 1.403 . S
C1510 N277 1.439 . S
C1525 N211 1.435 . S
C1537 C249 1.405 . S
C1552 C282 1.394 . S
C1564 N244 1.448 . S
C1579 C315 1.455 . S
C1591 N343 1.376 . S
C1606 N376 1.381 . S
C1618 C348 1.449 . S
C1633 C381 1.404 . S
C1645 N310 1.438 . S
C1660 C414 1.451 . S
C1672 N475 1.380 . S
C1687 N409 1.383 . S
C1699 C447 1.450 . S
C1714 C480 1.455 . S
C1726 N442 1.376 . S
C1741 C513 1.449 . S
C1753 N541 1.385 . S
C1768 N574 1.443 . S
C1780 C546 1.399 . S
C1795 N508 1.381 . S
C1807 C579 1.452 . S
