# Generated by pormake.
# Topology afw, (4)-cn, num edge types: 1
# Building blocks:
#     Node 0, Type 0, BuildingBlock: UXUYUI_clean_sbu_0, # of connection points: 4
#     Node 1, Type 0, BuildingBlock: UXUYUI_clean_sbu_0, # of connection points: 4
#     Node 2, Type 0, BuildingBlock: UXUYUI_clean_sbu_0, # of connection points: 4
#     Node 3, Type 0, BuildingBlock: UXUYUI_clean_sbu_0, # of connection points: 4
#     Node 4, Type 0, BuildingBlock: UXUYUI_clean_sbu_0, # of connection points: 4
#     Node 5, Type 0, BuildingBlock: UXUYUI_clean_sbu_0, # of connection points: 4
#     Node 6, Type 0, BuildingBlock: UXUYUI_clean_sbu_0, # of connection points: 4
#     Node 7, Type 0, BuildingBlock: UXUYUI_clean_sbu_0, # of connection points: 4
#     Node 8, Type 0, BuildingBlock: UXUYUI_clean_sbu_0, # of connection points: 4
#     Edge 9, Type (0, 0), BuildingBlock: EZIPEK_clean_linker_0, # of connection points: 2
#     Edge 10, Type (0, 0), BuildingBlock: EZIPEK_clean_linker_0, # of connection points: 2
#     Edge 11, Type (0, 0), BuildingBlock: EZIPEK_clean_linker_0, # of connection points: 2
#     Edge 12, Type (0, 0), BuildingBlock: EZIPEK_clean_linker_0, # of connection points: 2
#     Edge 13, Type (0, 0), BuildingBlock: EZIPEK_clean_linker_0, # of connection points: 2
#     Edge 14, Type (0, 0), BuildingBlock: EZIPEK_clean_linker_0, # of connection points: 2
#     Edge 15, Type (0, 0), BuildingBlock: EZIPEK_clean_linker_0, # of connection points: 2
#     Edge 16, Type (0, 0), BuildingBlock: EZIPEK_clean_linker_0, # of connection points: 2
#     Edge 17, Type (0, 0), BuildingBlock: EZIPEK_clean_linker_0, # of connection points: 2
#     Edge 18, Type (0, 0), BuildingBlock: EZIPEK_clean_linker_0, # of connection points: 2
#     Edge 19, Type (0, 0), BuildingBlock: EZIPEK_clean_linker_0, # of connection points: 2
#     Edge 20, Type (0, 0), BuildingBlock: EZIPEK_clean_linker_0, # of connection points: 2
#     Edge 21, Type (0, 0), BuildingBlock: EZIPEK_clean_linker_0, # of connection points: 2
#     Edge 22, Type (0, 0), BuildingBlock: EZIPEK_clean_linker_0, # of connection points: 2
#     Edge 23, Type (0, 0), BuildingBlock: EZIPEK_clean_linker_0, # of connection points: 2
#     Edge 24, Type (0, 0), BuildingBlock: EZIPEK_clean_linker_0, # of connection points: 2
#     Edge 25, Type (0, 0), BuildingBlock: EZIPEK_clean_linker_0, # of connection points: 2
#     Edge 26, Type (0, 0), BuildingBlock: EZIPEK_clean_linker_0, # of connection points: 2
# Relax obj value: 0.350
# Max RMSD: 0.270
# Mean RMSD: 0.270
data_MOF--net-afw--node1-UXUYUI_clean_sbu_0--edge1-EZIPEK_clean_linker_0
_symmetry_space_group_name_H-M    P1
_symmetry_Int_Tables_number       1
_symmetry_cell_setting            triclinic
loop_
_symmetry_equiv_pos_as_xyz
'x, y, z'
_cell_length_a     47.145711
_cell_length_b     47.130118
_cell_length_c     44.133682
_cell_angle_alpha  89.998305
_cell_angle_beta   90.006278
_cell_angle_gamma 120.03152
loop_
_atom_site_label
_atom_site_type_symbol
_atom_site_fract_x
_atom_site_fract_y
_atom_site_fract_z
_atom_type_partial_charge
Li0 Li 0.01094 0.24497 0.03209 0.0
Li1 Li 0.98384 0.19522 0.00295 0.0
Li2 Li 0.04404 0.22438 0.00643 0.0
Li3 Li 0.01529 0.24527 0.97705 0.0
C4 C 0.99223 0.18082 0.06054 0.0
N5 N 0.95238 0.13303 0.10153 0.0
C6 C 0.96523 0.18117 0.07319 0.0
C7 C -0.00098 0.15621 0.06883 0.0
C8 C 0.94536 0.15679 0.09384 0.0
C9 C 0.97857 0.13226 0.08957 0.0
C10 C 0.94276 0.21957 0.00078 0.0
C11 C 0.8912 0.18913 0.97451 0.0
N12 N 0.87555 0.19279 -0.00122 0.0
C13 C 0.92616 0.22315 0.02542 0.0
C14 C 0.92517 0.20255 0.97506 0.0
C15 C 0.89218 0.20939 0.02398 0.0
C16 C 0.0011 0.29195 0.06066 0.0
N17 N 0.00873 0.26812 0.06584 0.0
C18 C 0.00734 0.27457 0.11928 0.0
C19 C 0.01292 0.25991 0.09434 0.0
C20 C -0.00214 0.29802 0.11452 0.0
C21 C 0.99553 0.30743 0.08495 0.0
H22 H -0.00189 0.29793 0.03765 0.0
H23 H 0.01949 0.2412 0.09769 0.0
C24 C 0.95593 0.13 0.98829 0.0
N25 N 0.94815 0.15117 0.0017 0.0
C26 C 0.9337 0.09647 0.98837 0.0
C27 C 0.89524 0.10695 0.01535 0.0
C28 C 0.91849 0.14034 0.0152 0.0
C29 C 0.90315 0.08467 0.0023 0.0
H30 H 0.97989 0.13911 0.97831 0.0
H31 H 0.91314 0.15732 0.02669 0.0
C32 C 0.0773 0.28965 0.02497 0.0
N33 N 0.12931 0.32974 0.06214 0.0
C34 C 0.09858 0.32224 0.01684 0.0
C35 C 0.08244 0.27744 0.05204 0.0
C36 C 0.12475 0.34212 0.03593 0.0
C37 C 0.10887 0.2981 0.07051 0.0
C38 C 0.02158 0.20511 0.94052 0.0
C39 C 0.05354 0.21853 0.92949 0.0
C40 C 0.99535 0.19337 0.92024 0.0
C41 C 0.05876 0.22051 0.89821 0.0
C42 C 0.0016 0.19583 0.88912 0.0
N43 N 0.03291 0.20927 0.87885 0.0
C44 C 0.07157 0.18539 0.00993 0.0
C45 C 0.11213 0.24156 0.00563 0.0
C46 C 0.0955 0.17636 0.01029 0.0
N47 N 0.08021 0.21746 0.00793 0.0
C48 C 0.13701 0.2336 0.00602 0.0
C49 C 0.12855 0.20062 0.00828 0.0
H50 H 0.04595 0.1668 0.01079 0.0
H51 H 0.11832 0.26682 0.00312 0.0
C52 C 0.99354 0.26956 0.92867 0.0
N53 N 0.01975 0.26985 0.94186 0.0
C54 C 0.99761 0.28728 0.90212 0.0
C55 C 0.0556 0.30554 0.90366 0.0
C56 C 0.05044 0.28767 0.93022 0.0
C57 C 0.02893 0.30524 0.88941 0.0
H58 H 0.96953 0.25558 0.93867 0.0
H59 H 0.07081 0.28762 0.94146 0.0
O60 O 0.01173 0.20427 0.03997 0.0
O61 O 0.97609 0.23325 0.00165 0.0
O62 O 0.05152 0.27007 0.00647 0.0
O63 O 0.01604 0.20381 0.97103 0.0
H64 H 0.95947 0.19986 0.06688 0.0
H65 H 0.01991 0.15563 0.05945 0.0
H66 H 0.9243 0.15671 0.10367 0.0
H67 H 0.98353 0.11306 0.09617 0.0
H68 H 0.87728 0.17574 0.9548 0.0
H69 H 0.93931 0.23633 0.04549 0.0
H70 H 0.93757 0.19943 0.95585 0.0
H71 H 0.87902 0.21189 0.04292 0.0
H72 H 0.00929 0.26696 0.14198 0.0
H73 H 0.98811 0.32544 0.08079 0.0
H74 H 0.9405 0.07979 0.9782 0.0
H75 H 0.87184 0.09845 0.02641 0.0
H76 H 0.09489 0.33205 0.99598 0.0
H77 H 0.06639 0.25228 0.0587 0.0
H78 H 0.14142 0.36739 0.02991 0.0
H79 H 0.11317 0.28896 0.09148 0.0
H80 H 0.07412 0.22774 0.94491 0.0
H81 H 0.97046 0.18262 0.92844 0.0
H82 H 0.08338 0.23109 0.88933 0.0
H83 H 0.98155 0.18709 0.87314 0.0
H84 H 0.08834 0.15069 0.01188 0.0
H85 H 0.1624 0.25277 0.00426 0.0
H86 H 0.97668 0.28684 0.8915 0.0
H87 H 0.08004 0.31936 0.89425 0.0
Li88 Li 0.83888 0.80535 0.00014 0.0
Li89 Li 0.78802 0.7828 0.02839 0.0
Li90 Li 0.78637 0.78436 0.97323 0.0
Li91 Li 0.80649 0.83414 0.00281 0.0
C92 C 0.80951 0.74093 0.98078 0.0
N93 N 0.82527 0.7035 0.94384 0.0
C94 C 0.79905 0.70835 0.98826 0.0
C95 C 0.82803 0.7545 0.95453 0.0
C96 C 0.80727 0.68982 0.96929 0.0
C97 C 0.83572 0.73517 0.93614 0.0
C98 C 0.83384 0.82751 0.06582 0.0
C99 C 0.82208 0.84134 0.11503 0.0
N100 N 0.84265 0.83237 0.12786 0.0
C101 C 0.85516 0.81879 0.07942 0.0
C102 C 0.81744 0.83923 0.08367 0.0
C103 C 0.85918 0.82129 0.11085 0.0
C104 C 0.90517 0.84484 0.99174 0.0
N105 N 0.88244 0.81376 -0.00037 0.0
C106 C 0.92426 0.80054 0.00996 0.0
C107 C 0.89114 0.79152 0.00853 0.0
C108 C 0.94811 0.83264 0.0022 0.0
C109 C 0.93838 0.85483 0.99274 0.0
H110 H 0.89742 0.86208 0.98536 0.0
H111 H 0.87248 0.76713 0.01519 0.0
C112 C 0.73613 0.75018 0.07088 0.0
N113 N 0.76702 0.75754 0.06321 0.0
C114 C 0.72112 0.73136 0.09662 0.0
C115 C 0.76981 0.72767 0.10565 0.0
C116 C 0.78374 0.7463 0.07966 0.0
C117 C 0.73824 0.72017 0.11426 0.0
H118 H 0.72301 0.75858 0.0569 0.0
H119 H 0.80787 0.75172 0.07246 0.0
C120 C 0.8303 0.844 0.94163 0.0
N121 N 0.8359 0.87918 0.88972 0.0
C122 C 0.80483 0.8493 0.93295 0.0
C123 C 0.85857 0.85645 0.92386 0.0
C124 C 0.80815 0.86721 0.90666 0.0
C125 C 0.86094 0.87419 0.8977 0.0
C126 C 0.73955 0.80581 0.00416 0.0
C127 C 0.72136 0.80421 0.97851 0.0
C128 C 0.73478 0.81815 0.03129 0.0
C129 C 0.69887 0.81522 0.98042 0.0
C130 C 0.71206 0.82892 0.03227 0.0
N131 N 0.69473 0.82726 0.00703 0.0
C132 C 0.72977 0.7391 0.94328 0.0
C133 C 0.77447 0.77016 0.91015 0.0
C134 C 0.70867 0.72485 0.91874 0.0
N135 N 0.76171 0.76198 0.93855 0.0
C136 C 0.75419 0.75674 0.88496 0.0
C137 C 0.72082 0.73447 0.88931 0.0
H138 H 0.72042 0.73308 0.96618 0.0
H139 H 0.80007 0.78792 0.90699 0.0
C140 C 0.84453 0.89946 0.01475 0.0
N141 N 0.81399 0.87775 0.0046 0.0
C142 C 0.85529 0.93287 0.0153 0.0
C143 C 0.80264 0.92116 0.99561 0.0
C144 C 0.79303 0.88789 0.99501 0.0
C145 C 0.83432 0.94398 0.00538 0.0
H146 H 0.86086 0.89079 0.02176 0.0
H147 H 0.76928 0.87052 0.98613 0.0
O148 O 0.80157 0.75923 -0.00074 0.0
O149 O 0.82934 0.82491 0.03514 0.0
O150 O 0.82757 0.82637 0.96716 0.0
O151 O 0.76151 0.7949 0.00278 0.0
H152 H 0.78474 0.69751 0.00854 0.0
H153 H 0.83651 0.77968 0.94838 0.0
H154 H 0.79934 0.66457 0.97481 0.0
H155 H 0.85003 0.74536 0.91577 0.0
H156 H 0.80939 0.85018 0.12916 0.0
H157 H 0.86822 0.80989 0.06587 0.0
H158 H 0.80137 0.84668 0.07339 0.0
H159 H 0.87541 0.8144 0.12172 0.0
H160 H 0.93124 0.78304 0.01756 0.0
H161 H 0.95637 0.87982 0.98688 0.0
H162 H 0.69652 0.72552 0.10268 0.0
H163 H 0.78335 0.71895 0.11876 0.0
H164 H 0.78269 0.83951 0.94626 0.0
H165 H 0.87838 0.85228 0.93012 0.0
H166 H 0.78863 0.87151 0.89968 0.0
H167 H 0.88267 0.88395 0.88371 0.0
H168 H 0.7247 0.79481 0.95729 0.0
H169 H 0.74848 0.81942 0.05138 0.0
H170 H 0.68474 0.81424 0.96073 0.0
H171 H 0.70819 0.8386 0.05311 0.0
H172 H 0.68293 0.70773 0.92263 0.0
H173 H 0.76413 0.76445 0.86239 0.0
H174 H 0.87992 0.94996 0.02291 0.0
H175 H 0.786 0.92913 0.98772 0.0
Li176 Li 0.22273 0.04737 0.00385 0.0
Li177 Li 0.24797 0.01897 0.03319 0.0
Li178 Li 0.24587 0.01809 0.97768 0.0
Li179 Li 0.19715 0.98838 0.00604 0.0
C180 C 0.29357 0.08077 0.98758 0.0
N181 N 0.34346 0.12862 0.9531 0.0
C182 C 0.32596 0.08859 0.99253 0.0
C183 C 0.28651 0.09721 0.96511 0.0
C184 C 0.35086 0.11292 0.97487 0.0
C185 C 0.31208 0.12131 0.94788 0.0
C186 C 0.17757 0.00433 0.05616 0.0
C187 C 0.13961 0.96181 0.0897 0.0
N188 N 0.11796 0.9726 0.08583 0.0
C189 C 0.15509 0.01523 0.05281 0.0
C190 C 0.16994 0.97764 0.07505 0.0
C191 C 0.12505 -0.0012 0.0679 0.0
C192 C 0.18759 0.07805 0.98905 0.0
N193 N 0.21535 0.08308 0.00311 0.0
C194 C 0.2283 0.13696 0.01809 0.0
C195 C 0.23594 0.11188 0.01716 0.0
C196 C 0.19904 0.13176 0.00482 0.0
C197 C 0.17884 0.10221 0.98972 0.0
H198 H 0.17171 0.05479 0.97821 0.0
H199 H 0.25788 0.11505 0.02811 0.0
C200 C 0.3019 0.02238 0.0638 0.0
N201 N 0.27383 0.02349 0.06727 0.0
C202 C 0.32247 0.02805 0.08859 0.0
C203 C 0.28434 0.03518 0.11996 0.0
C204 C 0.26455 0.02939 0.0946 0.0
C205 C 0.31376 0.03489 0.11688 0.0
H206 H 0.30857 0.01776 0.04164 0.0
H207 H 0.24214 0.03028 0.09652 0.0
C208 C 0.18978 -0.00092 0.94419 0.0
N209 N 0.16251 0.96467 0.89136 0.0
C210 C 0.18708 0.96849 0.93962 0.0
C211 C 0.1786 0.01218 0.92191 0.0
C212 C 0.17323 0.95147 0.91276 0.0
C213 C 0.16487 0.9944 0.89535 0.0
C214 C 0.22889 0.95113 0.01481 0.0
C215 C 0.2253 0.92779 0.99326 0.0
C216 C 0.22645 0.94332 0.04561 0.0
C217 C 0.21865 0.89682 0.00289 0.0
C218 C 0.21981 0.91209 0.05433 0.0
N219 N 0.21603 0.88966 0.03297 0.0
C220 C 0.28309 -0.00071 0.94273 0.0
C221 C 0.26718 0.03327 0.91683 0.0
C222 C 0.29581 0.99425 0.91607 0.0
N223 N 0.26845 0.01785 0.94241 0.0
C224 C 0.27994 0.02921 0.88971 0.0
C225 C 0.29355 0.00872 0.88912 0.0
H226 H 0.28373 0.98739 0.96345 0.0
H227 H 0.25512 0.04766 0.91723 0.0
C228 C 0.13077 0.95945 0.99771 0.0
N229 N 0.15352 0.95137 0.00633 0.0
C230 C 0.09761 0.93603 0.99779 0.0
C231 C 0.11158 0.89579 0.01481 0.0
C232 C 0.14463 0.9202 0.01474 0.0
C233 C 0.08782 0.90391 0.00655 0.0
H234 H 0.13846 0.9844 0.99122 0.0
H235 H 0.16285 0.91416 0.02173 0.0
O236 O 0.2689 0.05718 0.00474 0.0
O237 O 0.20674 0.01954 0.04083 0.0
O238 O 0.20379 0.0165 0.97008 0.0
O239 O 0.23586 0.98173 0.00573 0.0
H240 H 0.33178 0.07608 0.00988 0.0
H241 H 0.26153 0.09119 0.96076 0.0
H242 H 0.37607 0.11932 0.97848 0.0
H243 H 0.30697 0.13416 0.93034 0.0
H244 H 0.13326 0.9409 0.10412 0.0
H245 H 0.16062 0.03597 0.03852 0.0
H246 H 0.18707 0.969 0.07815 0.0
H247 H 0.10734 0.00683 0.0653 0.0
H248 H 0.24437 0.15965 0.02979 0.0
H249 H 0.15615 0.09762 0.97924 0.0
H250 H 0.34522 0.02794 0.08566 0.0
H251 H 0.27723 0.04061 0.14158 0.0
H252 H 0.19557 0.95802 0.9566 0.0
H253 H 0.18068 0.03593 0.92505 0.0
H254 H 0.17105 0.92778 0.90892 0.0
H255 H 0.15615 0.00426 0.87789 0.0
H256 H 0.22767 0.9335 0.96932 0.0
H257 H 0.22961 0.96107 0.06266 0.0
H258 H 0.21566 0.8785 0.98645 0.0
H259 H 0.2177 0.9057 0.07809 0.0
H260 H 0.30621 0.97831 0.9162 0.0
H261 H 0.27786 0.04061 0.86916 0.0
H262 H 0.07972 0.94292 0.99126 0.0
H263 H 0.10457 0.87107 0.02167 0.0
Li264 Li 0.64668 0.52675 0.33418 0.0
Li265 Li 0.67541 0.57629 0.3637 0.0
Li266 Li 0.6787 0.57828 0.30833 0.0
Li267 Li 0.70732 0.55631 0.33704 0.0
C268 C 0.60756 0.55399 0.32733 0.0
N269 N 0.54236 0.53072 0.31377 0.0
C270 C 0.58685 0.55603 0.3488 0.0
C271 C 0.59516 0.54034 0.29892 0.0
C272 C 0.55395 0.54408 0.34153 0.0
C273 C 0.56213 0.52865 0.29251 0.0
C274 C 0.65611 0.51691 0.39441 0.0
C275 C 0.64497 0.47952 0.43595 0.0
N276 N 0.61759 0.481 0.44273 0.0
C277 C 0.62788 0.51806 0.40181 0.0
C278 C 0.66477 0.49752 0.41161 0.0
C279 C 0.60873 0.49975 0.42631 0.0
C280 C 0.61926 0.46119 0.32199 0.0
N281 N 0.61077 0.48301 0.33254 0.0
C282 C 0.5566 0.43964 0.34383 0.0
C283 C 0.58011 0.47299 0.3433 0.0
C284 C 0.56517 0.41671 0.33374 0.0
C285 C 0.59669 0.42774 0.32233 0.0
H286 H 0.64397 0.46979 0.31413 0.0
H287 H 0.57412 0.4906 0.3524 0.0
C288 C 0.66046 0.61796 0.39661 0.0
N289 N 0.67369 0.59822 0.39896 0.0
C290 C 0.65563 0.63198 0.42253 0.0
C291 C 0.67937 0.60608 0.45252 0.0
C292 C 0.68379 0.59263 0.42604 0.0
C293 C 0.66461 0.62546 0.45081 0.0
H294 H 0.65274 0.62195 0.37471 0.0
H295 H 0.6943 0.57687 0.42723 0.0
C296 C 0.68135 0.53214 0.27164 0.0
N297 N 0.68674 0.52263 0.21061 0.0
C298 C 0.71221 0.54409 0.25844 0.0
C299 C 0.65322 0.51472 0.25395 0.0
C300 C 0.71443 0.53922 0.22751 0.0
C301 C 0.65645 0.51033 0.2231 0.0
C302 C 0.74143 0.62149 0.35588 0.0
C303 C 0.76075 0.65483 0.34925 0.0
C304 C 0.74896 0.60843 0.38101 0.0
C305 C 0.78733 0.67463 0.36796 0.0
C306 C 0.77574 0.62903 0.39917 0.0
N307 N 0.79421 0.66142 0.39232 0.0
C308 C 0.66058 0.61084 0.26398 0.0
C309 C 0.71283 0.61548 0.25866 0.0
C310 C 0.66589 0.62986 0.23804 0.0
N311 N 0.68378 0.60368 0.27341 0.0
C312 C 0.71904 0.6343 0.23257 0.0
C313 C 0.69533 0.64147 0.22207 0.0
H314 H 0.63818 0.60214 0.27669 0.0
H315 H 0.73125 0.61037 0.26733 0.0
C316 C 0.73722 0.51966 0.3467 0.0
N317 N 0.74359 0.54975 0.33743 0.0
C318 C 0.76179 0.5115 0.34598 0.0
C319 C 0.79924 0.56567 0.32647 0.0
C320 C 0.77382 0.5728 0.32753 0.0
C321 C 0.793 0.53453 0.33546 0.0
H322 H 0.71279 0.50181 0.35406 0.0
H323 H 0.77797 0.59639 0.31992 0.0
O324 O 0.6398 0.56539 0.33413 0.0
O325 O 0.67518 0.5345 0.3704 0.0
O326 O 0.67869 0.53657 0.30192 0.0
O327 O 0.71535 0.60191 0.33769 0.0
H328 H 0.59603 0.5666 0.3709 0.0
H329 H 0.61095 0.53895 0.28197 0.0
H330 H 0.53761 0.54539 0.35795 0.0
H331 H 0.55221 0.51797 0.27061 0.0
H332 H 0.65137 0.46439 0.44945 0.0
H333 H 0.62085 0.53296 0.3888 0.0
H334 H 0.68659 0.4964 0.40622 0.0
H335 H 0.58683 0.50044 0.43227 0.0
H336 H 0.53242 0.43172 0.35291 0.0
H337 H 0.60398 0.41054 0.31449 0.0
H338 H 0.64401 0.64675 0.42071 0.0
H339 H 0.68634 0.60058 0.47417 0.0
H340 H 0.73423 0.55722 0.2719 0.0
H341 H 0.62913 0.50439 0.26397 0.0
H342 H 0.73817 0.5486 0.21694 0.0
H343 H 0.63488 0.49702 0.20911 0.0
H344 H 0.75523 0.66528 0.32984 0.0
H345 H 0.73438 0.58267 0.38646 0.0
H346 H 0.80249 0.70049 0.36311 0.0
H347 H 0.78184 0.61925 0.41869 0.0
H348 H 0.64737 0.63547 0.23052 0.0
H349 H 0.74215 0.64337 0.2208 0.0
H350 H 0.75637 0.48725 0.35295 0.0
H351 H 0.82317 0.58382 0.31816 0.0
Li352 Li 0.5038 0.13863 0.33732 0.0
Li353 Li 0.45059 0.11433 0.36607 0.0
Li354 Li 0.452 0.11786 0.31284 0.0
Li355 Li 0.47178 0.16744 0.3401 0.0
C356 C 0.45531 0.0655 0.32079 0.0
N357 N 0.43028 0.01115 0.28358 0.0
C358 C 0.42313 0.03995 0.3247 0.0
C359 C 0.47486 0.06336 0.29814 0.0
C360 C 0.4109 0.0127 0.30559 0.0
C361 C 0.46173 0.03567 0.27952 0.0
C362 C 0.50978 0.16951 0.39872 0.0
C363 C 0.52608 0.20785 0.44022 0.0
N364 N 0.5464 0.19724 0.45043 0.0
C365 C 0.5309 0.15906 0.40959 0.0
C366 C 0.50742 0.19418 0.41409 0.0
C367 C 0.54917 0.17335 0.43579 0.0
C368 C 0.57025 0.17922 0.33336 0.0
N369 N 0.54725 0.14717 0.33692 0.0
C370 C 0.58857 0.13212 0.34082 0.0
C371 C 0.55555 0.12358 0.34061 0.0
C372 C 0.61271 0.16514 0.33739 0.0
C373 C 0.60337 0.18882 0.33351 0.0
H374 H 0.56272 0.19731 0.33059 0.0
H375 H 0.5366 0.0983 0.3436 0.0
C376 C 0.39533 0.06903 0.39976 0.0
N377 N 0.42847 0.08873 0.40049 0.0
C378 C 0.37897 0.04824 0.4241 0.0
C379 C 0.43116 0.06871 0.44942 0.0
C380 C 0.44646 0.08897 0.42463 0.0
C381 C 0.39713 0.04793 0.4491 0.0
H382 H 0.38172 0.06897 0.38 0.0
H383 H 0.47275 0.10424 0.42433 0.0
C384 C 0.48972 0.1754 0.27968 0.0
N385 N 0.48393 0.20707 0.2294 0.0
C386 C 0.46053 0.17548 0.27423 0.0
C387 C 0.51595 0.19145 0.25959 0.0
C388 C 0.45809 0.19161 0.24867 0.0
C389 C 0.51255 0.20733 0.2343 0.0
C390 C 0.40664 0.13688 0.35766 0.0
C391 C 0.37699 0.1323 0.34624 0.0
C392 C 0.4165 0.14939 0.38689 0.0
C393 C 0.35769 0.14037 0.36426 0.0
C394 C 0.39652 0.15713 0.40422 0.0
N395 N 0.36777 0.15252 0.39264 0.0
C396 C 0.3955 0.08097 0.27813 0.0
C397 C 0.44523 0.09881 0.25123 0.0
C398 C 0.37738 0.06812 0.25167 0.0
N399 N 0.42874 0.09641 0.27726 0.0
C400 C 0.42808 0.08635 0.22421 0.0
C401 C 0.39386 0.07146 0.22434 0.0
H402 H 0.38318 0.07955 0.29922 0.0
H403 H 0.47171 0.11132 0.25131 0.0
C404 C 0.51149 0.23392 0.3456 0.0
N405 N 0.47951 0.21094 0.34144 0.0
C406 C 0.52124 0.2671 0.34518 0.0
C407 C 0.46492 0.25251 0.33608 0.0
C408 C 0.4562 0.21944 0.33668 0.0
C409 C 0.49785 0.27659 0.34015 0.0
H410 H 0.52947 0.22635 0.34886 0.0
H411 H 0.43106 0.20071 0.33275 0.0
O412 O 0.46742 0.09276 0.3387 0.0
O413 O 0.49215 0.15626 0.37275 0.0
O414 O 0.49269 0.15947 0.30432 0.0
O415 O 0.4258 0.12936 0.33997 0.0
H416 H 0.40768 0.04135 0.34207 0.0
H417 H 0.49975 0.08307 0.29471 0.0
H418 H 0.38598 0.99282 0.3082 0.0
H419 H 0.47649 0.03375 0.26176 0.0
H420 H 0.52446 0.22693 0.45235 0.0
H421 H 0.53295 0.1399 0.39809 0.0
H422 H 0.49139 0.20278 0.40594 0.0
H423 H 0.56554 0.16543 0.44448 0.0
H424 H 0.59523 0.11339 0.34379 0.0
H425 H 0.62157 0.21447 0.33076 0.0
H426 H 0.35267 0.03213 0.4232 0.0
H427 H 0.44575 0.06864 0.46836 0.0
H428 H 0.43991 0.16311 0.28943 0.0
H429 H 0.53867 0.19156 0.2635 0.0
H430 H 0.43564 0.19179 0.24413 0.0
H431 H 0.53265 0.21983 0.21854 0.0
H432 H 0.36906 0.12274 0.3236 0.0
H433 H 0.43918 0.1529 0.39621 0.0
H434 H 0.33472 0.13701 0.35567 0.0
H435 H 0.40385 0.16679 0.42689 0.0
H436 H 0.35095 0.05684 0.25225 0.0
H437 H 0.44132 0.08934 0.2033 0.0
H438 H 0.54685 0.28523 0.3483 0.0
H439 H 0.44642 0.25928 0.33202 0.0
Li440 Li 0.91358 0.35407 0.36081 0.0
Li441 Li 0.88923 0.38322 0.33253 0.0
Li442 Li 0.86008 0.32102 0.33635 0.0
Li443 Li 0.90936 0.35158 0.30778 0.0
C444 C 0.8641 0.35877 0.39718 0.0
N445 N 0.84824 0.36875 0.45498 0.0
C446 C 0.87482 0.39056 0.40763 0.0
C447 C 0.84467 0.33203 0.41591 0.0
C448 C 0.86673 0.3951 0.43698 0.0
C449 C 0.83711 0.33759 0.44512 0.0
C450 C 0.96243 0.40675 0.31568 0.0
C451 C 0.99358 0.44241 0.27452 0.0
N452 N 0.01728 0.43443 0.27908 0.0
C453 C 0.98715 0.39905 0.32012 0.0
C454 C 0.96566 0.42871 0.29283 0.0
C455 C 0.01468 0.41326 0.30131 0.0
C456 C 0.95457 0.33987 0.39774 0.0
N457 N 0.94006 0.35848 0.39479 0.0
C458 C 0.96465 0.38694 0.44068 0.0
C459 C 0.94532 0.38216 0.41523 0.0
C460 C 0.9791 0.36752 0.44464 0.0
C461 C 0.97422 0.34388 0.42288 0.0
H462 H 0.95113 0.32213 0.38053 0.0
H463 H 0.93492 0.39769 0.41155 0.0
C464 C 0.84881 0.40931 0.32913 0.0
N465 N 0.88089 0.41818 0.33172 0.0
C466 C 0.83958 0.43311 0.32899 0.0
C467 C 0.8967 0.47485 0.33398 0.0
C468 C 0.90486 0.45011 0.33411 0.0
C469 C 0.86366 0.46619 0.33157 0.0
H470 H 0.83043 0.38365 0.32737 0.0
H471 H 0.93016 0.45628 0.33634 0.0
C472 C 0.89103 0.28597 0.3499 0.0
N473 N 0.87453 0.22797 0.37932 0.0
C474 C 0.89316 0.26107 0.33473 0.0
C475 C 0.8804 0.28132 0.37997 0.0
C476 C 0.88472 0.23193 0.35 0.0
C477 C 0.87224 0.25187 0.39448 0.0
C478 C 0.8553 0.33833 0.27275 0.0
C479 C 0.84985 0.30761 0.26361 0.0
C480 C 0.84931 0.3576 0.2526 0.0
C481 C 0.83863 0.29672 0.23424 0.0
C482 C 0.83804 0.3458 0.22345 0.0
N483 N 0.833 0.31588 0.21494 0.0
C484 C 0.79428 0.29154 0.34931 0.0
C485 C 0.80908 0.25395 0.32942 0.0
C486 C 0.76138 0.26729 0.34995 0.0
N487 N 0.81724 0.28457 0.33896 0.0
C488 C 0.77635 0.22883 0.32973 0.0
C489 C 0.75219 0.23574 0.33966 0.0
H490 H 0.80152 0.31623 0.35638 0.0
H491 H 0.82776 0.24921 0.32081 0.0
C492 C 0.9453 0.33114 0.27355 0.0
N493 N 0.9305 0.34952 0.27209 0.0
C494 C 0.95887 0.32592 0.24762 0.0
C495 C 0.94274 0.35966 0.21941 0.0
C496 C 0.92971 0.36445 0.24599 0.0
C497 C 0.95694 0.33973 0.22017 0.0
H498 H 0.94594 0.32001 0.29476 0.0
H499 H 0.91831 0.37943 0.24567 0.0
O500 O 0.87155 0.35386 0.36838 0.0
O501 O 0.93485 0.39229 0.33321 0.0
O502 O 0.89837 0.31424 0.33489 0.0
O503 O 0.86701 0.34983 0.30112 0.0
H504 H 0.88959 0.41154 0.39337 0.0
H505 H 0.83528 0.3072 0.40794 0.0
H506 H 0.87514 0.41959 0.44545 0.0
H507 H 0.82226 0.31713 0.4599 0.0
H508 H 0.99633 0.45925 0.25659 0.0
H509 H 0.98488 0.38197 0.33765 0.0
H510 H 0.94657 0.43468 0.28898 0.0
H511 H 0.03392 0.40736 0.30431 0.0
H512 H 0.96855 0.40575 0.45697 0.0
H513 H 0.98556 0.3289 0.42531 0.0
H514 H 0.81391 0.42583 0.32707 0.0
H515 H 0.91572 0.50028 0.33597 0.0
H516 H 0.90095 0.2641 0.31131 0.0
H517 H 0.87878 0.30037 0.39203 0.0
H518 H 0.88619 0.21243 0.33851 0.0
H519 H 0.86409 0.24801 0.4178 0.0
H520 H 0.85479 0.29262 0.27886 0.0
H521 H 0.85354 0.38149 0.25939 0.0
H522 H 0.83452 0.2731 0.22675 0.0
H523 H 0.83338 0.36047 0.20755 0.0
H524 H 0.74316 0.27325 0.35764 0.0
H525 H 0.7698 0.20465 0.32154 0.0
H526 H 0.96969 0.31038 0.24867 0.0
H527 H 0.94099 0.37054 0.19839 0.0
Li528 Li 0.34129 0.91092 0.69758 0.0
Li529 Li 0.31173 0.85752 0.66841 0.0
Li530 Li 0.37435 0.89082 0.67157 0.0
Li531 Li 0.34318 0.90952 0.64469 0.0
C532 C 0.3373 0.85235 0.73042 0.0
N533 N 0.32827 0.81716 0.78317 0.0
C534 C 0.30567 0.83057 0.74081 0.0
C535 C 0.36434 0.85603 0.7468 0.0
C536 C 0.30161 0.81306 0.76754 0.0
C537 C 0.35926 0.83809 0.77344 0.0
C538 C 0.28755 0.9072 0.65389 0.0
C539 C 0.24684 0.90134 0.61747 0.0
N540 N 0.25761 0.93396 0.61979 0.0
C541 C 0.29804 0.94061 0.65613 0.0
C542 C 0.26163 0.88732 0.63456 0.0
C543 C 0.28267 0.95369 0.63861 0.0
C544 C 0.35038 0.96565 0.73195 0.0
N545 N 0.33743 0.93256 0.73235 0.0
C546 C 0.31507 0.92902 0.78162 0.0
C547 C 0.32002 0.91419 0.75647 0.0
C548 C 0.32776 0.96298 0.78165 0.0
C549 C 0.34573 0.98152 0.75658 0.0
H550 H 0.36375 0.9796 0.71226 0.0
H551 H 0.30929 0.88795 0.75594 0.0
C552 C 0.28578 0.79109 0.66234 0.0
N553 N 0.27694 0.81394 0.66787 0.0
C554 C 0.26238 0.7579 0.66306 0.0
C555 C 0.22106 0.77238 0.67488 0.0
C556 C 0.24537 0.80545 0.67395 0.0
C557 C 0.22976 0.74837 0.66963 0.0
H558 H 0.31117 0.79876 0.6578 0.0
H559 H 0.23924 0.82427 0.67863 0.0
C560 C 0.40775 0.95509 0.68978 0.0
N561 N 0.46173 0.99275 0.72592 0.0
C562 C 0.43376 0.98443 0.67876 0.0
C563 C 0.4093 0.94493 0.71918 0.0
C564 C 0.46081 0.00312 0.69737 0.0
C565 C 0.43673 0.9643 0.7371 0.0
C566 C 0.35172 0.86908 0.60689 0.0
C567 C 0.38253 0.89182 0.59552 0.0
C568 C 0.32776 0.84638 0.58738 0.0
C569 C 0.38874 0.89173 0.56458 0.0
C570 C 0.33493 0.84711 0.55658 0.0
N571 N 0.36501 0.8696 0.54591 0.0
C572 C 0.40339 0.85329 0.68038 0.0
C573 C 0.44134 0.90721 0.66393 0.0
C574 C 0.4276 0.84462 0.67968 0.0
N575 N 0.41063 0.88409 0.67263 0.0
C576 C 0.46637 0.89949 0.66271 0.0
C577 C 0.45933 0.86777 0.6705 0.0
H578 H 0.37856 0.83526 0.6865 0.0
H579 H 0.44619 0.93128 0.65718 0.0
C580 C 0.36829 0.9647 0.6072 0.0
N581 N 0.3446 0.93264 0.60869 0.0
C582 C 0.3729 0.98249 0.58065 0.0
C583 C 0.32768 0.93432 0.55799 0.0
C584 C 0.32399 0.91742 0.58501 0.0
C585 C 0.35283 0.96701 0.55559 0.0
H586 H 0.38407 0.97626 0.62644 0.0
H587 H 0.3052 0.89195 0.58685 0.0
O588 O 0.34173 0.8692 0.70391 0.0
O589 O 0.30273 0.89409 0.67039 0.0
O590 O 0.38136 0.93641 0.6715 0.0
O591 O 0.34504 0.86892 0.63703 0.0
H592 H 0.28445 0.82753 0.7286 0.0
H593 H 0.38903 0.87246 0.73902 0.0
H594 H 0.27727 0.79624 0.77587 0.0
H595 H 0.37997 0.84075 0.78633 0.0
H596 H 0.2269 0.8863 0.60224 0.0
H597 H 0.31815 0.95631 0.67093 0.0
H598 H 0.25335 0.86146 0.63244 0.0
H599 H 0.29071 0.97956 0.63991 0.0
H600 H 0.30078 0.91409 0.80057 0.0
H601 H 0.35551 0.00777 0.75593 0.0
H602 H 0.26969 0.7398 0.65893 0.0
H603 H 0.19597 0.76556 0.68003 0.0
H604 H 0.4332 0.99261 0.65598 0.0
H605 H 0.38947 0.92252 0.72821 0.0
H606 H 0.48111 0.02583 0.68908 0.0
H607 H 0.43814 0.95671 0.75993 0.0
H608 H 0.40128 0.90957 0.61039 0.0
H609 H 0.30382 0.82859 0.59593 0.0
H610 H 0.41239 0.90934 0.55539 0.0
H611 H 0.31658 0.82983 0.54115 0.0
H612 H 0.42149 0.81986 0.6855 0.0
H613 H 0.49066 0.91769 0.65522 0.0
H614 H 0.39248 0.00776 0.57936 0.0
H615 H 0.31184 0.92184 0.53891 0.0
Li616 Li 0.11836 0.44744 0.69646 0.0
Li617 Li 0.16795 0.46986 0.66505 0.0
Li618 Li 0.13704 0.50057 0.67097 0.0
Li619 Li 0.11596 0.45093 0.64082 0.0
C620 C 0.17295 0.50105 0.72959 0.0
N621 N 0.19998 0.52635 0.78564 0.0
C622 C 0.19701 0.49532 0.74175 0.0
C623 C 0.16307 0.52015 0.74573 0.0
C624 C 0.21024 0.50817 0.77018 0.0
C625 C 0.1769 0.53258 0.77408 0.0
C626 C 0.14232 0.40409 0.6634 0.0
C627 C 0.17129 0.38214 0.63595 0.0
N628 N 0.16838 0.36311 0.66025 0.0
C629 C 0.13944 0.38417 0.68804 0.0
C630 C 0.15818 0.40294 0.63707 0.0
C631 C 0.15283 0.36366 0.68601 0.0
C632 C 0.06464 0.40336 0.73222 0.0
N633 N 0.09788 0.42199 0.73127 0.0
C634 C 0.10261 0.4023 0.77969 0.0
C635 C 0.11693 0.42166 0.75421 0.0
C636 C 0.06848 0.38298 0.78125 0.0
C637 C 0.04924 0.38355 0.75734 0.0
H638 H 0.05015 0.40366 0.71335 0.0
H639 H 0.14324 0.43574 0.75239 0.0
C640 C 0.23252 0.50554 0.64728 0.0
N641 N 0.21149 0.47771 0.66238 0.0
C642 C 0.26596 0.51644 0.64706 0.0
C643 C 0.25545 0.46901 0.67677 0.0
C644 C 0.22218 0.4593 0.67688 0.0
C645 C 0.27773 0.49841 0.66244 0.0
H646 H 0.22342 0.51997 0.63639 0.0
H647 H 0.20521 0.43789 0.6896 0.0
C648 C 0.07031 0.46854 0.68584 0.0
N649 N 0.02645 0.48246 0.71425 0.0
C650 C 0.04369 0.46629 0.66981 0.0
C651 C 0.07447 0.47761 0.71636 0.0
C652 C 0.02183 0.47352 0.68456 0.0
C653 C 0.05207 0.4846 0.73031 0.0
C654 C 0.15598 0.49858 0.60402 0.0
C655 C 0.14457 0.51912 0.5937 0.0
C656 C 0.16594 0.48302 0.58315 0.0
C657 C 0.14275 0.52325 0.56255 0.0
C658 C 0.16366 0.4877 0.55218 0.0
N659 N 0.15218 0.50753 0.54261 0.0
C660 C 0.17521 0.56671 0.68055 0.0
C661 C 0.12047 0.55167 0.66804 0.0
C662 C 0.18427 0.59971 0.68115 0.0
N663 N 0.14386 0.54356 0.67399 0.0
C664 C 0.1285 0.58454 0.66842 0.0
C665 C 0.16086 0.60883 0.67466 0.0
H666 H 0.19332 0.55948 0.68471 0.0
H667 H 0.09593 0.53287 0.66215 0.0
C668 C 0.08851 0.40277 0.59449 0.0
N669 N 0.09086 0.43067 0.60591 0.0
C670 C 0.0707 0.38893 0.56802 0.0
C671 C 0.05784 0.43261 0.56596 0.0
C672 C 0.07566 0.44544 0.59252 0.0
C673 C 0.05544 0.40418 0.55351 0.0
H674 H 0.10049 0.39134 0.60586 0.0
H675 H 0.07777 0.46743 0.60234 0.0
O676 O 0.16006 0.489 0.70157 0.0
O677 O 0.12927 0.42424 0.66496 0.0
O678 O 0.09203 0.4618 0.67159 0.0
O679 O 0.15719 0.4936 0.6344 0.0
H680 H 0.20515 0.48082 0.72954 0.0
H681 H 0.14518 0.52568 0.73641 0.0
H682 H 0.2287 0.50369 0.77994 0.0
H683 H 0.1694 0.54732 0.78684 0.0
H684 H 0.18379 0.38115 0.61578 0.0
H685 H 0.12696 0.38447 0.70847 0.0
H686 H 0.16057 0.41813 0.61779 0.0
H687 H 0.15086 0.34817 0.70493 0.0
H688 H 0.11797 0.40193 0.79778 0.0
H689 H 0.02279 0.3686 0.758 0.0
H690 H 0.28263 0.53928 0.63585 0.0
H691 H 0.26394 0.4547 0.68893 0.0
H692 H 0.04001 0.45916 0.6462 0.0
H693 H 0.09455 0.4789 0.72922 0.0
H694 H 0.0012 0.47201 0.6724 0.0
H695 H 0.05501 0.49164 0.75394 0.0
H696 H 0.13684 0.53141 0.60956 0.0
H697 H 0.17515 0.46734 0.59079 0.0
H698 H 0.13374 0.53886 0.55423 0.0
H699 H 0.171 0.47557 0.53576 0.0
H700 H 0.20947 0.61804 0.68591 0.0
H701 H 0.11003 0.59104 0.66314 0.0
H702 H 0.06899 0.36681 0.55883 0.0
H703 H 0.0461 0.44471 0.55517 0.0
Li704 Li 0.55568 0.71562 0.66848 0.0
Li705 Li 0.5761 0.6859 0.69767 0.0
Li706 Li 0.5771 0.6836 0.64239 0.0
Li707 Li 0.52677 0.65722 0.66991 0.0
C708 C 0.62429 0.751 0.65621 0.0
N709 N 0.67088 0.80889 0.62983 0.0
C710 C 0.6518 0.77326 0.67274 0.0
C711 C 0.62036 0.75819 0.62632 0.0
C712 C 0.67508 0.80242 0.659 0.0
C713 C 0.64426 0.78757 0.61335 0.0
C714 C 0.53848 0.70641 0.72861 0.0
C715 C 0.51632 0.71665 0.77385 0.0
N716 N 0.54509 0.74502 0.77822 0.0
C717 C 0.56782 0.73573 0.73351 0.0
C718 C 0.5125 0.6968 0.74889 0.0
C719 C 0.57068 0.75488 0.75874 0.0
C720 C 0.5165 0.74278 0.67067 0.0
N721 N 0.54865 0.75202 0.66761 0.0
C722 C 0.56331 0.80844 0.66461 0.0
C723 C 0.57215 0.78417 0.66503 0.0
C724 C 0.53017 0.79924 0.66721 0.0
C725 C 0.50663 0.7661 0.67041 0.0
H726 H 0.4985 0.71713 0.67338 0.0
H727 H 0.59764 0.79114 0.66345 0.0
C728 C 0.63261 0.70101 0.73016 0.0
N729 N 0.59965 0.68757 0.73295 0.0
C730 C 0.65189 0.70595 0.75576 0.0
C731 C 0.60272 0.68199 0.78643 0.0
C732 C 0.58439 0.67749 0.76023 0.0
C733 C 0.63686 0.69687 0.78423 0.0
H734 H 0.64396 0.7087 0.70812 0.0
H735 H 0.55813 0.66684 0.7618 0.0
C736 C 0.51113 0.66663 0.61546 0.0
N737 N 0.45685 0.62617 0.58083 0.0
C738 C 0.50864 0.63877 0.60165 0.0
C739 C 0.48617 0.67408 0.61142 0.0
C740 C 0.48097 0.61859 0.58429 0.0
C741 C 0.45888 0.65325 0.5939 0.0
C742 C 0.55482 0.62021 0.68937 0.0
C743 C 0.56761 0.59984 0.68269 0.0
C744 C 0.53429 0.61334 0.71446 0.0
C745 C 0.55963 0.57285 0.70126 0.0
C746 C 0.52689 0.58612 0.73248 0.0
N747 N 0.53961 0.56661 0.72557 0.0
C748 C 0.62235 0.67113 0.61255 0.0
C749 C 0.59103 0.68523 0.58022 0.0
C750 C 0.63643 0.6647 0.58757 0.0
N751 N 0.59975 0.68064 0.60838 0.0
C752 C 0.60434 0.67893 0.55466 0.0
C753 C 0.62679 0.66798 0.55834 0.0
H754 H 0.6285 0.66742 0.63527 0.0
H755 H 0.57288 0.69267 0.57764 0.0
C756 C 0.46005 0.62921 0.67725 0.0
N757 N 0.48321 0.6213 0.66991 0.0
C758 C 0.42701 0.6055 0.6763 0.0
C759 C 0.44219 0.56552 0.66112 0.0
C760 C 0.47508 0.59023 0.66194 0.0
C761 C 0.41785 0.57334 0.668 0.0
H762 H 0.46734 0.65419 0.68329 0.0
H763 H 0.49403 0.58476 0.65581 0.0
O764 O 0.60132 0.72249 0.66952 0.0
O765 O 0.53487 0.68702 0.70416 0.0
O766 O 0.53762 0.68616 0.63326 0.0
O767 O 0.56258 0.64672 0.67132 0.0
H768 H 0.65503 0.76813 0.69599 0.0
H769 H 0.59889 0.74154 0.61345 0.0
H770 H 0.69647 0.81991 0.67154 0.0
H771 H 0.64155 0.79351 0.59025 0.0
H772 H 0.49641 0.70948 0.78975 0.0
H773 H 0.58823 0.74366 0.71813 0.0
H774 H 0.48962 0.67419 0.74538 0.0
H775 H 0.59326 0.77757 0.76285 0.0
H776 H 0.58198 0.83397 0.6623 0.0
H777 H 0.48088 0.75838 0.67265 0.0
H778 H 0.67826 0.71763 0.75354 0.0
H779 H 0.5906 0.67491 0.80824 0.0
H780 H 0.52759 0.63247 0.60479 0.0
H781 H 0.48776 0.69562 0.62174 0.0
H782 H 0.47857 0.59679 0.5737 0.0
H783 H 0.43929 0.65862 0.59073 0.0
H784 H 0.58355 0.60485 0.66334 0.0
H785 H 0.52404 0.62871 0.71996 0.0
H786 H 0.56936 0.55687 0.69636 0.0
H787 H 0.51101 0.58051 0.75194 0.0
H788 H 0.65356 0.65601 0.59094 0.0
H789 H 0.59639 0.68144 0.53228 0.0
H790 H 0.40871 0.61217 0.68179 0.0
H791 H 0.43574 0.54082 0.65473 0.0
C792 C 0.17472 0.15944 0.03519 0.0
C793 C 0.18821 0.15624 0.0075 0.0
C794 C 0.16759 0.18788 0.98095 0.0
C795 C 0.15377 0.19066 0.00856 0.0
N796 N 0.15185 0.18772 0.063 0.0
N797 N 0.20544 0.17445 0.95637 0.0
C798 C 0.16008 0.1794 0.03608 0.0
C799 C 0.18735 0.17296 0.98114 0.0
N800 N 0.17396 0.14178 0.06007 0.0
N801 N 0.16035 0.19779 0.95439 0.0
H802 H 0.22022 0.16377 0.95606 0.0
H803 H 0.20822 0.18871 0.93736 0.0
H804 H 0.14644 0.20936 0.95343 0.0
H805 H 0.16643 0.1928 0.93315 0.0
H806 H 0.16097 0.1401 0.07971 0.0
H807 H 0.18439 0.12682 0.06048 0.0
H808 H 0.15855 0.18287 0.08401 0.0
H809 H 0.14104 0.20235 0.0642 0.0
C810 C 0.8533 0.99656 0.97656 0.0
C811 C 0.84643 0.97972 0.00467 0.0
C812 C 0.87444 0.03196 0.03185 0.0
C813 C 0.88028 0.04879 0.00383 0.0
N814 N 0.86775 0.04742 0.95073 0.0
N815 N 0.84241 0.9809 0.05903 0.0
C816 C 0.86713 0.03112 0.97656 0.0
C817 C 0.85432 0.99734 0.03234 0.0
N818 N 0.84851 0.97995 0.94993 0.0
N819 N 0.88962 0.04869 0.0577 0.0
H820 H 0.82732 0.95549 0.06004 0.0
H821 H 0.84477 0.99266 0.07964 0.0
H822 H 0.90506 0.07402 0.05838 0.0
H823 H 0.88912 0.03714 0.07798 0.0
H824 H 0.85662 0.99158 0.92906 0.0
H825 H 0.83889 0.95468 0.9488 0.0
H826 H 0.85579 0.03555 0.93085 0.0
H827 H 0.87747 0.07276 0.95013 0.0
C828 C -0.00032 0.85853 0.03294 0.0
C829 C 0.98354 0.84416 0.00525 0.0
C830 C 0.03627 0.86387 0.97975 0.0
C831 C 0.05241 0.87928 0.00713 0.0
N832 N 0.05079 0.88597 0.0611 0.0
N833 N 0.98512 0.8265 0.95446 0.0
C834 C 0.03446 0.87466 0.03424 0.0
C835 C 0.0015 0.84459 0.97934 0.0
N836 N 0.98175 0.85809 0.05748 0.0
N837 N 0.05424 0.86883 0.95395 0.0
H838 H 0.95962 0.81238 0.95357 0.0
H839 H 0.99658 0.82332 0.93568 0.0
H840 H 0.07981 0.8815 0.95385 0.0
H841 H 0.04406 0.86172 0.93245 0.0
H842 H 0.99195 0.87143 0.07721 0.0
H843 H 0.95619 0.84542 0.05767 0.0
H844 H 0.03932 0.8808 0.08214 0.0
H845 H 0.07628 0.89862 0.06266 0.0
C846 C 0.8493 0.50356 0.35968 0.0
C847 C 0.85349 0.49123 0.33173 0.0
C848 C 0.82346 0.51348 0.30497 0.0
C849 C 0.81837 0.5249 0.33305 0.0
N850 N 0.83327 0.53898 0.3853 0.0
N851 N 0.85292 0.49178 0.27723 0.0
C852 C 0.83375 0.52274 0.35982 0.0
C853 C 0.84342 0.49881 0.30413 0.0
N854 N 0.85849 0.49538 0.38615 0.0
N855 N 0.80771 0.51493 0.2795 0.0
H856 H 0.86754 0.48097 0.2761 0.0
H857 H 0.84893 0.4993 0.25626 0.0
H858 H 0.79344 0.52613 0.27906 0.0
H859 H 0.80719 0.50342 0.25921 0.0
H860 H 0.85255 0.50025 0.4075 0.0
H861 H 0.87062 0.48198 0.38686 0.0
H862 H 0.84648 0.54088 0.40485 0.0
H863 H 0.82194 0.55316 0.38589 0.0
C864 C 0.51434 0.32785 0.3102 0.0
C865 C 0.50864 0.31199 0.33871 0.0
C866 C 0.53644 0.36504 0.3646 0.0
C867 C 0.54203 0.38095 0.33609 0.0
N868 N 0.52966 0.37821 0.28288 0.0
N869 N 0.50649 0.31444 0.39307 0.0
C870 C 0.52869 0.3625 0.30923 0.0
C871 C 0.51707 0.33033 0.36595 0.0
N872 N 0.50759 0.31001 0.28408 0.0
N873 N 0.55119 0.38286 0.3901 0.0
H874 H 0.49233 0.28897 0.39469 0.0
H875 H 0.50907 0.32646 0.41356 0.0
H876 H 0.56553 0.40834 0.39018 0.0
H877 H 0.55119 0.3723 0.41082 0.0
H878 H 0.51485 0.32054 0.2627 0.0
H879 H 0.4965 0.28452 0.28385 0.0
H880 H 0.5177 0.36603 0.26312 0.0
H881 H 0.53997 0.4036 0.28158 0.0
C882 C 0.66493 0.18099 0.36539 0.0
C883 C 0.64804 0.17569 0.33749 0.0
C884 C 0.69999 0.20497 0.31008 0.0
C885 C 0.71692 0.21085 0.33803 0.0
N886 N 0.71667 0.19773 0.39075 0.0
N887 N 0.64854 0.17434 0.28301 0.0
C888 C 0.69968 0.19647 0.36521 0.0
C889 C 0.66536 0.18486 0.3097 0.0
N890 N 0.64791 0.17286 0.39206 0.0
N891 N 0.71676 0.22014 0.28425 0.0
H892 H 0.62309 0.15958 0.28217 0.0
H893 H 0.65985 0.17758 0.26202 0.0
H894 H 0.7422 0.23472 0.28345 0.0
H895 H 0.70539 0.22005 0.264 0.0
H896 H 0.65903 0.17963 0.41325 0.0
H897 H 0.62239 0.16086 0.39302 0.0
H898 H 0.70555 0.18521 0.41064 0.0
H899 H 0.74218 0.20898 0.39113 0.0
C900 C 0.48627 0.84297 0.6401 0.0
C901 C 0.48423 0.85754 0.66754 0.0
C902 C 0.51833 0.83942 0.69345 0.0
C903 C 0.51931 0.82379 0.66632 0.0
N904 N 0.51179 0.81714 0.61233 0.0
N905 N 0.50413 0.87688 0.71785 0.0
C906 C 0.50582 0.82784 0.63908 0.0
C907 C 0.50238 0.85826 0.6934 0.0
N908 N 0.46826 0.84229 0.61553 0.0
N909 N 0.53118 0.83481 0.71953 0.0
H910 H 0.49235 0.89063 0.71842 0.0
H911 H 0.51928 0.88094 0.73643 0.0
H912 H 0.54388 0.82198 0.72013 0.0
H913 H 0.52794 0.84223 0.74083 0.0
H914 H 0.46536 0.8286 0.59609 0.0
H915 H 0.45472 0.85428 0.6151 0.0
H916 H 0.50521 0.82185 0.59122 0.0
H917 H 0.52595 0.80582 0.61103 0.0
C918 C 0.19378 0.69499 0.64393 0.0
C919 C 0.20524 0.71299 0.67125 0.0
C920 C 0.17765 0.66206 0.70051 0.0
C921 C 0.17129 0.64411 0.67317 0.0
N922 N 0.17391 0.64279 0.61862 0.0
N923 N 0.20918 0.71449 0.72577 0.0
C924 C 0.17899 0.66033 0.64473 0.0
C925 C 0.19702 0.6968 0.6997 0.0
N926 N 0.19714 0.7112 0.6173 0.0
N927 N 0.16513 0.64574 0.72716 0.0
H928 H 0.22285 0.74002 0.72611 0.0
H929 H 0.20738 0.7039 0.7469 0.0
H930 H 0.15089 0.62024 0.72829 0.0
H931 H 0.16629 0.65738 0.74755 0.0
H932 H 0.18662 0.69943 0.59696 0.0
H933 H 0.20801 0.73666 0.61614 0.0
H934 H 0.18267 0.65353 0.59753 0.0
H935 H 0.16258 0.61729 0.61819 0.0
C936 C 0.33195 0.51549 0.63822 0.0
C937 C 0.31361 0.51187 0.66485 0.0
C938 C 0.36438 0.53937 0.69424 0.0
C939 C 0.38256 0.5483 0.6669 0.0
N940 N 0.38372 0.54721 0.6122 0.0
N941 N 0.31245 0.52376 0.71803 0.0
C942 C 0.36645 0.53664 0.63866 0.0
C943 C 0.32977 0.5243 0.69297 0.0
N944 N 0.31632 0.49858 0.61262 0.0
N945 N 0.38031 0.54534 0.7214 0.0
H946 H 0.2871 0.51369 0.71813 0.0
H947 H 0.32353 0.53585 0.73811 0.0
H948 H 0.40573 0.55615 0.72298 0.0
H949 H 0.36819 0.53662 0.74198 0.0
H950 H 0.32866 0.49785 0.59333 0.0
H951 H 0.29104 0.48267 0.61177 0.0
H952 H 0.37266 0.54253 0.59096 0.0
H953 H 0.40902 0.56277 0.61147 0.0
C954 C 0.03443 0.30882 0.83312 0.0
C955 C 0.03414 0.32368 0.86094 0.0
C956 C 0.04874 0.37499 0.83475 0.0
C957 C 0.05331 0.36147 0.80776 0.0
N958 N 0.05239 0.31653 0.78076 0.0
N959 N 0.04208 0.37079 0.88936 0.0
C960 C 0.04631 0.3285 0.80668 0.0
C961 C 0.04126 0.35668 0.86205 0.0
N962 N 0.02315 0.27586 0.83206 0.0
N963 N 0.05131 0.4052 0.83407 0.0
H964 H 0.03567 0.35778 0.90971 0.0
H965 H 0.05086 0.39574 0.89223 0.0
H966 H 0.05706 0.41931 0.8144 0.0
H967 H 0.04519 0.41521 0.85221 0.0
H968 H 0.01958 0.26285 0.81202 0.0
H969 H 0.01478 0.26084 0.85117 0.0
H970 H 0.05159 0.29409 0.77952 0.0
H971 H 0.06024 0.32994 0.76068 0.0
C972 C 0.68327 0.74237 0.85493 0.0
C973 C 0.69813 0.72371 0.86318 0.0
C974 C 0.6697 0.6852 0.82171 0.0
C975 C 0.65718 0.70546 0.81194 0.0
N976 N 0.65466 0.75518 0.8165 0.0
N977 N 0.70841 0.67932 0.85366 0.0
C978 C 0.66455 0.73451 0.82788 0.0
C979 C 0.69212 0.69559 0.84638 0.0
N980 N 0.68671 0.76736 0.87323 0.0
N981 N 0.65951 0.65571 0.8078 0.0
H982 H 0.72414 0.68566 0.87222 0.0
H983 H 0.70802 0.66089 0.84036 0.0
H984 H 0.64341 0.64761 0.78943 0.0
H985 H 0.66499 0.6382 0.81568 0.0
H986 H 0.67336 0.77931 0.87047 0.0
H987 H 0.70126 0.77476 0.89266 0.0
H988 H 0.66248 0.77855 0.825 0.0
H989 H 0.6404 0.75007 0.797 0.0
C990 C 0.28749 0.97137 0.81136 0.0
C991 C 0.3202 0.97838 0.80732 0.0
C992 C 0.33647 0.01114 0.85384 0.0
C993 C 0.303 7e-05 0.86001 0.0
N994 N 0.24589 0.96552 0.8469 0.0
N995 N 0.37559 0.00215 0.82596 0.0
C996 C 0.27825 0.97923 0.83929 0.0
C997 C 0.34477 0.99775 0.82878 0.0
N998 N 0.26537 0.95762 0.78826 0.0
N999 N 0.36026 0.03481 0.87166 0.0
H1000 H 0.38263 0.99286 0.80784 0.0
H1001 H 0.39347 0.0129 0.84268 0.0
H1002 H 0.35494 0.04518 0.89012 0.0
H1003 H 0.38515 0.04621 0.86658 0.0
H1004 H 0.24208 0.95499 0.78881 0.0
H1005 H 0.2714 0.95182 0.7673 0.0
H1006 H 0.227 0.94729 0.83409 0.0
H1007 H 0.23787 0.97008 0.86738 0.0
C1008 C 0.35846 0.02884 0.1863 0.0
C1009 C 0.37536 0.06212 0.19553 0.0
C1010 C 0.35625 0.07775 0.15038 0.0
C1011 C 0.33641 0.04411 0.14296 0.0
N1012 N 0.31607 0.98715 0.1545 0.0
N1013 N 0.38783 0.11804 0.18878 0.0
C1014 C 0.33694 0.01946 0.161 0.0
C1015 C 0.37373 0.08659 0.17815 0.0
N1016 N 0.36349 0.00643 0.20145 0.0
N1017 N 0.35882 0.10123 0.13053 0.0
H1018 H 0.40135 0.12573 0.20881 0.0
H1019 H 0.38415 0.13604 0.179 0.0
H1020 H 0.34614 0.09567 0.11003 0.0
H1021 H 0.37559 0.1261 0.13307 0.0
H1022 H 0.35455 0.98245 0.1941 0.0
H1023 H 0.37884 0.01253 0.22029 0.0
H1024 H 0.31258 0.96799 0.16863 0.0
H1025 H 0.30048 0.97945 0.13576 0.0
C1026 C 0.95377 0.293 0.1491 0.0
C1027 C 0.98725 0.31025 0.14045 0.0
C1028 C -9e-05 0.34963 0.18166 0.0
C1029 C 0.9671 0.3307 0.19184 0.0
N1030 N 0.91309 0.28324 0.1875 0.0
N1031 N 0.04292 0.35318 0.1488 0.0
C1032 C 0.94403 0.30215 0.17608 0.0
C1033 C 0.01056 0.3382 0.15675 0.0
N1034 N 0.93126 0.26817 0.13124 0.0
N1035 N 0.02062 0.3787 0.19563 0.0
H1036 H 0.05132 0.34605 0.13005 0.0
H1037 H 0.06174 0.37142 0.16161 0.0
H1038 H 0.01369 0.38736 0.21434 0.0
H1039 H 0.04387 0.39538 0.18759 0.0
H1040 H 0.90605 0.25714 0.13427 0.0
H1041 H 0.93755 0.25986 0.11188 0.0
H1042 H 0.89637 0.26005 0.17934 0.0
H1043 H 0.90452 0.28978 0.20652 0.0
C1044 C 0.71911 0.69631 0.19692 0.0
C1045 C 0.70195 0.66164 0.19446 0.0
C1046 C 0.70587 0.66532 0.13913 0.0
C1047 C 0.72311 0.69999 0.14158 0.0
N1048 N 0.74113 0.74885 0.17146 0.0
N1049 N 0.6735 0.61277 0.16414 0.0
C1050 C 0.72806 0.71561 0.17012 0.0
C1051 C 0.6935 0.64602 0.16577 0.0
N1052 N 0.72782 0.71067 0.22488 0.0
N1053 N 0.7024 0.65096 0.1114 0.0
H1054 H 0.66461 0.59786 0.18328 0.0
H1055 H 0.66365 0.60008 0.14403 0.0
H1056 H 0.70999 0.66431 0.09126 0.0
H1057 H 0.69363 0.62605 0.1083 0.0
H1058 H 0.74367 0.73559 0.2283 0.0
H1059 H 0.7205 0.69731 0.24503 0.0
H1060 H 0.74239 0.76151 0.19119 0.0
H1061 H 0.74866 0.76378 0.15226 0.0
C1062 C 0.05289 0.40261 0.497 0.0
C1063 C 0.03683 0.39065 0.52517 0.0
C1064 C 0.98443 0.35736 0.49926 0.0
C1065 C -0.0003 0.37266 0.4716 0.0
N1066 N 0.04771 0.41042 0.44337 0.0
N1067 N 0.98768 0.35779 0.55414 0.0
C1068 C 0.03385 0.39518 0.47016 0.0
C1069 C 0.00271 0.36803 0.52659 0.0
N1070 N 0.08635 0.42095 0.49605 0.0
N1071 N 0.95253 0.33251 0.49922 0.0
H1072 H 0.00052 0.36416 0.57458 0.0
H1073 H 0.96238 0.34448 0.557 0.0
H1074 H 0.93839 0.32442 0.47954 0.0
H1075 H 0.94077 0.31812 0.51807 0.0
H1076 H 0.09987 0.42775 0.47606 0.0
H1077 H 0.10096 0.42737 0.51542 0.0
H1078 H 0.07157 0.42992 0.44142 0.0
H1079 H 0.03469 0.40474 0.42304 0.0
C1080 C 0.62601 0.6145 0.49377 0.0
C1081 C 0.65574 0.63635 0.47888 0.0
C1082 C 0.66648 0.6794 0.51584 0.0
C1083 C 0.63765 0.65697 0.53161 0.0
N1084 N 0.59243 0.60206 0.53882 0.0
N1085 N 0.70664 0.68764 0.47724 0.0
C1086 C 0.61814 0.62415 0.52153 0.0
C1087 C 0.67671 0.6683 0.49036 0.0
N1088 N 0.60479 0.58493 0.48082 0.0
N1089 N 0.68354 0.71145 0.52484 0.0
H1090 H 0.71456 0.68041 0.4582 0.0
H1091 H 0.72457 0.70983 0.4863 0.0
H1092 H 0.67724 0.72012 0.54396 0.0
H1093 H 0.70266 0.72991 0.51246 0.0
H1094 H 0.58105 0.56957 0.48859 0.0
H1095 H 0.60993 0.57659 0.46082 0.0
H1096 H 0.57963 0.57696 0.5346 0.0
H1097 H 0.58527 0.60836 0.5589 0.0
C1098 C 0.35158 0.00959 0.52257 0.0
C1099 C 0.35985 0.98472 0.52639 0.0
C1100 C 0.38516 0.99662 0.47612 0.0
C1101 C 0.38119 0.02446 0.47429 0.0
N1102 N 0.36254 0.05917 0.49607 0.0
N1103 N 0.38715 0.95616 0.50843 0.0
C1104 C 0.3646 0.03128 0.49746 0.0
C1105 C 0.37707 0.9784 0.50347 0.0
N1106 N 0.33099 0.01211 0.54279 0.0
N1107 N 0.39631 0.98743 0.45153 0.0
H1108 H 0.38157 0.94208 0.52807 0.0
H1109 H 0.40314 0.95336 0.49412 0.0
H1110 H 0.40249 0.0003 0.4311 0.0
H1111 H 0.39659 0.96551 0.45038 0.0
H1112 H 0.32145 0.02761 0.53976 0.0
H1113 H 0.32113 0.99655 0.56144 0.0
H1114 H 0.35411 0.06748 0.51386 0.0
H1115 H 0.37127 0.07529 0.47775 0.0
loop_
_geom_bond_atom_site_label_1
_geom_bond_atom_site_label_2
_geom_bond_distance
_geom_bond_site_symmetry_2
_ccdc_geom_bond_type
Li0 N17 1.990 . S
Li0 O60 1.956 . S
Li0 O61 1.970 1_454 S
Li0 O62 1.961 . S
Li1 N25 1.990 . S
Li1 O60 1.970 1_656 S
Li1 O61 1.956 . S
Li1 O63 1.961 1_655 S
Li2 N47 1.990 . S
Li2 O60 1.961 . S
Li2 O62 1.956 . S
Li2 O63 1.970 1_554 S
Li3 N53 1.990 . S
Li3 O61 1.961 1_455 S
Li3 O62 1.970 1_556 S
Li3 O63 1.956 . S
C4 C6 1.348 1_455 S
C4 C7 1.356 . S
C4 O60 1.325 . S
N5 C8 1.314 . S
N5 C9 1.279 1_655 S
C6 C4 1.348 1_655 S
C6 C8 1.353 . S
C6 H64 0.929 . S
C7 C4 1.356 . S
C7 C9 1.358 . S
C7 H65 0.930 . S
C8 N5 1.314 . S
C8 C6 1.353 . S
C8 H66 0.930 . S
C9 N5 1.279 1_455 S
C9 C7 1.358 . S
C9 H67 0.930 . S
C10 C13 1.348 1_556 S
C10 C14 1.356 . S
C10 O61 1.325 . S
C11 N12 1.279 . S
C11 C14 1.358 . S
C11 H68 0.930 . S
N12 C11 1.279 . S
N12 C15 1.314 1_556 S
C13 C10 1.348 1_554 S
C13 C15 1.353 . S
C13 H69 0.929 . S
C14 C10 1.356 . S
C14 C11 1.358 . S
C14 H70 0.930 . S
C15 N12 1.314 1_554 S
C15 C13 1.353 . S
C15 H71 0.930 . S
C16 N17 1.314 . S
C16 C21 1.353 . S
C16 H22 0.930 . S
N17 Li0 1.990 . S
N17 C16 1.314 . S
N17 C19 1.279 1_455 S
C18 C19 1.358 . S
C18 C20 1.356 . S
C18 H72 0.930 . S
C19 N17 1.279 1_655 S
C19 C18 1.358 . S
C19 H23 0.930 . S
C20 C18 1.356 . S
C20 C21 1.348 1_655 S
C21 C16 1.353 . S
C21 C20 1.348 1_455 S
C21 H73 0.929 . S
H22 C16 0.930 . S
H23 C19 0.930 . S
C24 N25 1.314 . S
C24 C26 1.353 . S
C24 H30 0.930 . S
N25 Li1 1.990 . S
N25 C24 1.314 . S
N25 C28 1.279 . S
C26 C24 1.353 . S
C26 C29 1.348 . S
C26 H74 0.929 . S
C27 C28 1.358 . S
C27 C29 1.356 . S
C27 H75 0.930 . S
C28 N25 1.279 . S
C28 C27 1.358 . S
C28 H31 0.930 . S
C29 C26 1.348 . S
C29 C27 1.356 . S
H30 C24 0.930 . S
H31 C28 0.930 . S
C32 C34 1.348 1_554 S
C32 C35 1.356 . S
C32 O62 1.325 . S
N33 C36 1.314 . S
N33 C37 1.279 . S
C34 C32 1.348 1_556 S
C34 C36 1.353 1_556 S
C34 H76 0.929 . S
C35 C32 1.356 . S
C35 C37 1.358 . S
C35 H77 0.930 . S
C36 N33 1.314 . S
C36 C34 1.353 1_554 S
C36 H78 0.930 1_554 S
C37 N33 1.279 . S
C37 C35 1.358 . S
C37 H79 0.930 . S
C38 C39 1.348 . S
C38 C40 1.356 . S
C38 O63 1.325 . S
C39 C38 1.348 . S
C39 C41 1.353 . S
C39 H80 0.929 . S
C40 C38 1.356 . S
C40 C42 1.358 . S
C40 H81 0.930 1_455 S
C41 C39 1.353 . S
C41 N43 1.314 . S
C41 H82 0.930 . S
C42 C40 1.358 . S
C42 N43 1.279 . S
C42 H83 0.930 1_455 S
N43 C41 1.314 . S
N43 C42 1.279 . S
C44 C46 1.353 . S
C44 N47 1.314 . S
C44 H50 0.930 . S
C45 N47 1.279 . S
C45 C48 1.358 . S
C45 H51 0.930 . S
C46 C44 1.353 . S
C46 C49 1.348 . S
C46 H84 0.929 . S
N47 Li2 1.990 . S
N47 C44 1.314 . S
N47 C45 1.279 . S
C48 C45 1.358 . S
C48 C49 1.356 . S
C48 H85 0.930 . S
C49 C46 1.348 . S
C49 C48 1.356 . S
H50 C44 0.930 . S
H51 C45 0.930 . S
C52 N53 1.314 . S
C52 C54 1.353 . S
C52 H58 0.930 . S
N53 Li3 1.990 . S
N53 C52 1.314 . S
N53 C56 1.279 . S
C54 C52 1.353 . S
C54 C57 1.348 . S
C54 H86 0.929 . S
C55 C56 1.358 . S
C55 C57 1.356 . S
C55 H87 0.930 . S
C56 N53 1.279 . S
C56 C55 1.358 . S
C56 H59 0.930 . S
C57 C54 1.348 . S
C57 C55 1.356 . S
H58 C52 0.930 . S
H59 C56 0.930 . S
O60 Li0 1.956 . S
O60 Li1 1.970 1_454 S
O60 Li2 1.961 . S
O60 C4 1.325 . S
O61 Li0 1.970 1_656 S
O61 Li1 1.956 . S
O61 Li3 1.961 1_655 S
O61 C10 1.325 . S
O62 Li0 1.961 . S
O62 Li2 1.956 . S
O62 Li3 1.970 1_554 S
O62 C32 1.325 . S
O63 Li1 1.961 1_455 S
O63 Li2 1.970 1_556 S
O63 Li3 1.956 . S
O63 C38 1.325 . S
H64 C6 0.929 . S
H65 C7 0.930 . S
H66 C8 0.930 . S
H67 C9 0.930 . S
H68 C11 0.930 . S
H69 C13 0.929 . S
H70 C14 0.930 . S
H71 C15 0.930 . S
H72 C18 0.930 . S
H73 C21 0.929 . S
H74 C26 0.929 . S
H75 C27 0.930 . S
H76 C34 0.929 . S
H77 C35 0.930 . S
H78 C36 0.930 1_556 S
H79 C37 0.930 . S
H80 C39 0.929 . S
H81 C40 0.930 1_655 S
H82 C41 0.930 . S
H83 C42 0.930 1_655 S
H84 C46 0.929 . S
H85 C48 0.930 . S
H86 C54 0.929 . S
H87 C55 0.930 . S
Li88 N105 1.990 . S
Li88 O148 1.956 . S
Li88 O149 1.970 1_556 S
Li88 O150 1.961 . S
Li89 N113 1.990 . S
Li89 O148 1.970 1_554 S
Li89 O149 1.956 . S
Li89 O151 1.961 . S
Li90 N135 1.990 . S
Li90 O148 1.961 . S
Li90 O150 1.956 . S
Li90 O151 1.970 1_556 S
Li91 N141 1.990 . S
Li91 O149 1.961 . S
Li91 O150 1.970 1_554 S
Li91 O151 1.956 . S
C92 C94 1.348 1_556 S
C92 C95 1.356 . S
C92 O148 1.325 . S
N93 C96 1.314 1_556 S
N93 C97 1.279 . S
C94 C92 1.348 1_554 S
C94 C96 1.353 . S
C94 H152 0.929 . S
C95 C92 1.356 . S
C95 C97 1.358 . S
C95 H153 0.930 . S
C96 N93 1.314 1_554 S
C96 C94 1.353 . S
C96 H154 0.930 . S
C97 N93 1.279 . S
C97 C95 1.358 . S
C97 H155 0.930 . S
C98 C101 1.348 . S
C98 C102 1.356 . S
C98 O149 1.325 . S
C99 N100 1.279 . S
C99 C102 1.358 . S
C99 H156 0.930 . S
N100 C99 1.279 . S
N100 C103 1.314 . S
C101 C98 1.348 . S
C101 C103 1.353 . S
C101 H157 0.929 . S
C102 C98 1.356 . S
C102 C99 1.358 . S
C102 H158 0.930 . S
C103 N100 1.314 . S
C103 C101 1.353 . S
C103 H159 0.930 . S
C104 N105 1.314 . S
C104 C109 1.353 . S
C104 H110 0.930 . S
N105 Li88 1.990 . S
N105 C104 1.314 . S
N105 C107 1.279 . S
C106 C107 1.358 . S
C106 C108 1.356 . S
C106 H160 0.930 . S
C107 N105 1.279 . S
C107 C106 1.358 . S
C107 H111 0.930 . S
C108 C106 1.356 . S
C108 C109 1.348 . S
C109 C104 1.353 . S
C109 C108 1.348 . S
C109 H161 0.929 . S
H110 C104 0.930 . S
H111 C107 0.930 . S
C112 N113 1.314 . S
C112 C114 1.353 . S
C112 H118 0.930 . S
N113 Li89 1.990 . S
N113 C112 1.314 . S
N113 C116 1.279 . S
C114 C112 1.353 . S
C114 C117 1.348 . S
C114 H162 0.929 . S
C115 C116 1.358 . S
C115 C117 1.356 . S
C115 H163 0.930 . S
C116 N113 1.279 . S
C116 C115 1.358 . S
C116 H119 0.930 . S
C117 C114 1.348 . S
C117 C115 1.356 . S
H118 C112 0.930 . S
H119 C116 0.930 . S
C120 C122 1.348 . S
C120 C123 1.356 . S
C120 O150 1.325 . S
N121 C124 1.314 . S
N121 C125 1.279 . S
C122 C120 1.348 . S
C122 C124 1.353 . S
C122 H164 0.929 . S
C123 C120 1.356 . S
C123 C125 1.358 . S
C123 H165 0.930 . S
C124 N121 1.314 . S
C124 C122 1.353 . S
C124 H166 0.930 . S
C125 N121 1.279 . S
C125 C123 1.358 . S
C125 H167 0.930 . S
C126 C127 1.348 1_554 S
C126 C128 1.356 . S
C126 O151 1.325 . S
C127 C126 1.348 1_556 S
C127 C129 1.353 1_556 S
C127 H168 0.929 . S
C128 C126 1.356 . S
C128 C130 1.358 . S
C128 H169 0.930 . S
C129 C127 1.353 1_554 S
C129 N131 1.314 . S
C129 H170 0.930 1_554 S
C130 C128 1.358 . S
C130 N131 1.279 . S
C130 H171 0.930 . S
N131 C129 1.314 . S
N131 C130 1.279 . S
C132 C134 1.353 . S
C132 N135 1.314 . S
C132 H138 0.930 . S
C133 N135 1.279 . S
C133 C136 1.358 . S
C133 H139 0.930 . S
C134 C132 1.353 . S
C134 C137 1.348 . S
C134 H172 0.929 . S
N135 Li90 1.990 . S
N135 C132 1.314 . S
N135 C133 1.279 . S
C136 C133 1.358 . S
C136 C137 1.356 . S
C136 H173 0.930 . S
C137 C134 1.348 . S
C137 C136 1.356 . S
H138 C132 0.930 . S
H139 C133 0.930 . S
C140 N141 1.314 . S
C140 C142 1.353 . S
C140 H146 0.930 . S
N141 Li91 1.990 . S
N141 C140 1.314 . S
N141 C144 1.279 . S
C142 C140 1.353 . S
C142 C145 1.348 . S
C142 H174 0.929 . S
C143 C144 1.358 . S
C143 C145 1.356 . S
C143 H175 0.930 . S
C144 N141 1.279 . S
C144 C143 1.358 . S
C144 H147 0.930 . S
C145 C142 1.348 . S
C145 C143 1.356 . S
H146 C140 0.930 . S
H147 C144 0.930 . S
O148 Li88 1.956 . S
O148 Li89 1.970 1_556 S
O148 Li90 1.961 . S
O148 C92 1.325 . S
O149 Li88 1.970 1_554 S
O149 Li89 1.956 . S
O149 Li91 1.961 . S
O149 C98 1.325 . S
O150 Li88 1.961 . S
O150 Li90 1.956 . S
O150 Li91 1.970 1_556 S
O150 C120 1.325 . S
O151 Li89 1.961 . S
O151 Li90 1.970 1_554 S
O151 Li91 1.956 . S
O151 C126 1.325 . S
H152 C94 0.929 . S
H153 C95 0.930 . S
H154 C96 0.930 . S
H155 C97 0.930 . S
H156 C99 0.930 . S
H157 C101 0.929 . S
H158 C102 0.930 . S
H159 C103 0.930 . S
H160 C106 0.930 . S
H161 C109 0.929 . S
H162 C114 0.929 . S
H163 C115 0.930 . S
H164 C122 0.929 . S
H165 C123 0.930 . S
H166 C124 0.930 . S
H167 C125 0.930 . S
H168 C127 0.929 . S
H169 C128 0.930 . S
H170 C129 0.930 1_556 S
H171 C130 0.930 . S
H172 C134 0.929 . S
H173 C136 0.930 . S
H174 C142 0.929 . S
H175 C143 0.930 . S
Li176 N193 1.990 . S
Li176 O236 1.956 . S
Li176 O237 1.970 1_556 S
Li176 O238 1.961 . S
Li177 N201 1.990 . S
Li177 O236 1.970 1_554 S
Li177 O237 1.956 . S
Li177 O239 1.961 1_545 S
Li178 N223 1.990 . S
Li178 O236 1.961 . S
Li178 O238 1.956 . S
Li178 O239 1.970 1_546 S
Li179 N229 1.990 . S
Li179 O237 1.961 1_565 S
Li179 O238 1.970 1_564 S
Li179 O239 1.956 . S
C180 C182 1.348 1_556 S
C180 C183 1.356 . S
C180 O236 1.325 . S
N181 C184 1.314 1_556 S
N181 C185 1.279 . S
C182 C180 1.348 1_554 S
C182 C184 1.353 . S
C182 H240 0.929 . S
C183 C180 1.356 . S
C183 C185 1.358 . S
C183 H241 0.930 . S
C184 N181 1.314 1_554 S
C184 C182 1.353 . S
C184 H242 0.930 . S
C185 N181 1.279 . S
C185 C183 1.358 . S
C185 H243 0.930 . S
C186 C189 1.348 . S
C186 C190 1.356 . S
C186 O237 1.325 . S
C187 N188 1.279 . S
C187 C190 1.358 . S
C187 H244 0.930 1_545 S
N188 C187 1.279 . S
N188 C191 1.314 . S
C189 C186 1.348 . S
C189 C191 1.353 . S
C189 H245 0.929 . S
C190 C186 1.356 . S
C190 C187 1.358 . S
C190 H246 0.930 1_545 S
C191 N188 1.314 . S
C191 C189 1.353 . S
C191 H247 0.930 . S
C192 N193 1.314 . S
C192 C197 1.353 . S
C192 H198 0.930 . S
N193 Li176 1.990 . S
N193 C192 1.314 . S
N193 C195 1.279 . S
C194 C195 1.358 . S
C194 C196 1.356 . S
C194 H248 0.930 . S
C195 N193 1.279 . S
C195 C194 1.358 . S
C195 H199 0.930 . S
C196 C194 1.356 . S
C196 C197 1.348 . S
C197 C192 1.353 . S
C197 C196 1.348 . S
C197 H249 0.929 . S
H198 C192 0.930 . S
H199 C195 0.930 . S
C200 N201 1.314 . S
C200 C202 1.353 . S
C200 H206 0.930 . S
N201 Li177 1.990 . S
N201 C200 1.314 . S
N201 C204 1.279 . S
C202 C200 1.353 . S
C202 C205 1.348 . S
C202 H250 0.929 . S
C203 C204 1.358 . S
C203 C205 1.356 . S
C203 H251 0.930 . S
C204 N201 1.279 . S
C204 C203 1.358 . S
C204 H207 0.930 . S
C205 C202 1.348 . S
C205 C203 1.356 . S
H206 C200 0.930 . S
H207 C204 0.930 . S
C208 C210 1.348 1_545 S
C208 C211 1.356 . S
C208 O238 1.325 . S
N209 C212 1.314 . S
N209 C213 1.279 1_565 S
C210 C208 1.348 1_565 S
C210 C212 1.353 . S
C210 H252 0.929 . S
C211 C208 1.356 . S
C211 C213 1.358 . S
C211 H253 0.930 . S
C212 N209 1.314 . S
C212 C210 1.353 . S
C212 H254 0.930 . S
C213 N209 1.279 1_545 S
C213 C211 1.358 . S
C213 H255 0.930 . S
C214 C215 1.348 1_554 S
C214 C216 1.356 . S
C214 O239 1.325 . S
C215 C214 1.348 1_556 S
C215 C217 1.353 1_556 S
C215 H256 0.929 . S
C216 C214 1.356 . S
C216 C218 1.358 . S
C216 H257 0.930 . S
C217 C215 1.353 1_554 S
C217 N219 1.314 . S
C217 H258 0.930 1_554 S
C218 C216 1.358 . S
C218 N219 1.279 . S
C218 H259 0.930 . S
N219 C217 1.314 . S
N219 C218 1.279 . S
C220 C222 1.353 . S
C220 N223 1.314 . S
C220 H226 0.930 . S
C221 N223 1.279 1_565 S
C221 C224 1.358 . S
C221 H227 0.930 . S
C222 C220 1.353 . S
C222 C225 1.348 1_545 S
C222 H260 0.929 . S
N223 Li178 1.990 . S
N223 C220 1.314 . S
N223 C221 1.279 1_545 S
C224 C221 1.358 . S
C224 C225 1.356 . S
C224 H261 0.930 . S
C225 C222 1.348 1_565 S
C225 C224 1.356 . S
H226 C220 0.930 . S
H227 C221 0.930 . S
C228 N229 1.314 . S
C228 C230 1.353 . S
C228 H234 0.930 . S
N229 Li179 1.990 . S
N229 C228 1.314 . S
N229 C232 1.279 . S
C230 C228 1.353 . S
C230 C233 1.348 . S
C230 H262 0.929 . S
C231 C232 1.358 . S
C231 C233 1.356 . S
C231 H263 0.930 . S
C232 N229 1.279 . S
C232 C231 1.358 . S
C232 H235 0.930 . S
C233 C230 1.348 . S
C233 C231 1.356 . S
H234 C228 0.930 . S
H235 C232 0.930 . S
O236 Li176 1.956 . S
O236 Li177 1.970 1_556 S
O236 Li178 1.961 . S
O236 C180 1.325 . S
O237 Li176 1.970 1_554 S
O237 Li177 1.956 . S
O237 Li179 1.961 1_545 S
O237 C186 1.325 . S
O238 Li176 1.961 . S
O238 Li178 1.956 . S
O238 Li179 1.970 1_546 S
O238 C208 1.325 . S
O239 Li177 1.961 1_565 S
O239 Li178 1.970 1_564 S
O239 Li179 1.956 . S
O239 C214 1.325 . S
H240 C182 0.929 . S
H241 C183 0.930 . S
H242 C184 0.930 . S
H243 C185 0.930 . S
H244 C187 0.930 1_565 S
H245 C189 0.929 . S
H246 C190 0.930 1_565 S
H247 C191 0.930 . S
H248 C194 0.930 . S
H249 C197 0.929 . S
H250 C202 0.929 . S
H251 C203 0.930 . S
H252 C210 0.929 . S
H253 C211 0.930 . S
H254 C212 0.930 . S
H255 C213 0.930 . S
H256 C215 0.929 . S
H257 C216 0.930 . S
H258 C217 0.930 1_556 S
H259 C218 0.930 . S
H260 C222 0.929 . S
H261 C224 0.930 . S
H262 C230 0.929 . S
H263 C231 0.930 . S
Li264 N281 1.990 . S
Li264 O324 1.956 . S
Li264 O325 1.970 . S
Li264 O326 1.961 . S
Li265 N289 1.990 . S
Li265 O324 1.970 . S
Li265 O325 1.956 . S
Li265 O327 1.961 . S
Li266 N311 1.990 . S
Li266 O324 1.961 . S
Li266 O326 1.956 . S
Li266 O327 1.970 . S
Li267 N317 1.990 . S
Li267 O325 1.961 . S
Li267 O326 1.970 . S
Li267 O327 1.956 . S
C268 C270 1.348 . S
C268 C271 1.356 . S
C268 O324 1.325 . S
N269 C272 1.314 . S
N269 C273 1.279 . S
C270 C268 1.348 . S
C270 C272 1.353 . S
C270 H328 0.929 . S
C271 C268 1.356 . S
C271 C273 1.358 . S
C271 H329 0.930 . S
C272 N269 1.314 . S
C272 C270 1.353 . S
C272 H330 0.930 . S
C273 N269 1.279 . S
C273 C271 1.358 . S
C273 H331 0.930 . S
C274 C277 1.348 . S
C274 C278 1.356 . S
C274 O325 1.325 . S
C275 N276 1.279 . S
C275 C278 1.358 . S
C275 H332 0.930 . S
N276 C275 1.279 . S
N276 C279 1.314 . S
C277 C274 1.348 . S
C277 C279 1.353 . S
C277 H333 0.929 . S
C278 C274 1.356 . S
C278 C275 1.358 . S
C278 H334 0.930 . S
C279 N276 1.314 . S
C279 C277 1.353 . S
C279 H335 0.930 . S
C280 N281 1.314 . S
C280 C285 1.353 . S
C280 H286 0.930 . S
N281 Li264 1.990 . S
N281 C280 1.314 . S
N281 C283 1.279 . S
C282 C283 1.358 . S
C282 C284 1.356 . S
C282 H336 0.930 . S
C283 N281 1.279 . S
C283 C282 1.358 . S
C283 H287 0.930 . S
C284 C282 1.356 . S
C284 C285 1.348 . S
C285 C280 1.353 . S
C285 C284 1.348 . S
C285 H337 0.929 . S
H286 C280 0.930 . S
H287 C283 0.930 . S
C288 N289 1.314 . S
C288 C290 1.353 . S
C288 H294 0.930 . S
N289 Li265 1.990 . S
N289 C288 1.314 . S
N289 C292 1.279 . S
C290 C288 1.353 . S
C290 C293 1.348 . S
C290 H338 0.929 . S
C291 C292 1.358 . S
C291 C293 1.356 . S
C291 H339 0.930 . S
C292 N289 1.279 . S
C292 C291 1.358 . S
C292 H295 0.930 . S
C293 C290 1.348 . S
C293 C291 1.356 . S
H294 C288 0.930 . S
H295 C292 0.930 . S
C296 C298 1.348 . S
C296 C299 1.356 . S
C296 O326 1.325 . S
N297 C300 1.314 . S
N297 C301 1.279 . S
C298 C296 1.348 . S
C298 C300 1.353 . S
C298 H340 0.929 . S
C299 C296 1.356 . S
C299 C301 1.358 . S
C299 H341 0.930 . S
C300 N297 1.314 . S
C300 C298 1.353 . S
C300 H342 0.930 . S
C301 N297 1.279 . S
C301 C299 1.358 . S
C301 H343 0.930 . S
C302 C303 1.348 . S
C302 C304 1.356 . S
C302 O327 1.325 . S
C303 C302 1.348 . S
C303 C305 1.353 . S
C303 H344 0.929 . S
C304 C302 1.356 . S
C304 C306 1.358 . S
C304 H345 0.930 . S
C305 C303 1.353 . S
C305 N307 1.314 . S
C305 H346 0.930 . S
C306 C304 1.358 . S
C306 N307 1.279 . S
C306 H347 0.930 . S
N307 C305 1.314 . S
N307 C306 1.279 . S
C308 C310 1.353 . S
C308 N311 1.314 . S
C308 H314 0.930 . S
C309 N311 1.279 . S
C309 C312 1.358 . S
C309 H315 0.930 . S
C310 C308 1.353 . S
C310 C313 1.348 . S
C310 H348 0.929 . S
N311 Li266 1.990 . S
N311 C308 1.314 . S
N311 C309 1.279 . S
C312 C309 1.358 . S
C312 C313 1.356 . S
C312 H349 0.930 . S
C313 C310 1.348 . S
C313 C312 1.356 . S
H314 C308 0.930 . S
H315 C309 0.930 . S
C316 N317 1.314 . S
C316 C318 1.353 . S
C316 H322 0.930 . S
N317 Li267 1.990 . S
N317 C316 1.314 . S
N317 C320 1.279 . S
C318 C316 1.353 . S
C318 C321 1.348 . S
C318 H350 0.929 . S
C319 C320 1.358 . S
C319 C321 1.356 . S
C319 H351 0.930 . S
C320 N317 1.279 . S
C320 C319 1.358 . S
C320 H323 0.930 . S
C321 C318 1.348 . S
C321 C319 1.356 . S
H322 C316 0.930 . S
H323 C320 0.930 . S
O324 Li264 1.956 . S
O324 Li265 1.970 . S
O324 Li266 1.961 . S
O324 C268 1.325 . S
O325 Li264 1.970 . S
O325 Li265 1.956 . S
O325 Li267 1.961 . S
O325 C274 1.325 . S
O326 Li264 1.961 . S
O326 Li266 1.956 . S
O326 Li267 1.970 . S
O326 C296 1.325 . S
O327 Li265 1.961 . S
O327 Li266 1.970 . S
O327 Li267 1.956 . S
O327 C302 1.325 . S
H328 C270 0.929 . S
H329 C271 0.930 . S
H330 C272 0.930 . S
H331 C273 0.930 . S
H332 C275 0.930 . S
H333 C277 0.929 . S
H334 C278 0.930 . S
H335 C279 0.930 . S
H336 C282 0.930 . S
H337 C285 0.929 . S
H338 C290 0.929 . S
H339 C291 0.930 . S
H340 C298 0.929 . S
H341 C299 0.930 . S
H342 C300 0.930 . S
H343 C301 0.930 . S
H344 C303 0.929 . S
H345 C304 0.930 . S
H346 C305 0.930 . S
H347 C306 0.930 . S
H348 C310 0.929 . S
H349 C312 0.930 . S
H350 C318 0.929 . S
H351 C319 0.930 . S
Li352 N369 1.990 . S
Li352 O412 1.956 . S
Li352 O413 1.970 . S
Li352 O414 1.961 . S
Li353 N377 1.990 . S
Li353 O412 1.970 . S
Li353 O413 1.956 . S
Li353 O415 1.961 . S
Li354 N399 1.990 . S
Li354 O412 1.961 . S
Li354 O414 1.956 . S
Li354 O415 1.970 . S
Li355 N405 1.990 . S
Li355 O413 1.961 . S
Li355 O414 1.970 . S
Li355 O415 1.956 . S
C356 C358 1.348 . S
C356 C359 1.356 . S
C356 O412 1.325 . S
N357 C360 1.314 . S
N357 C361 1.279 . S
C358 C356 1.348 . S
C358 C360 1.353 . S
C358 H416 0.929 . S
C359 C356 1.356 . S
C359 C361 1.358 . S
C359 H417 0.930 . S
C360 N357 1.314 . S
C360 C358 1.353 . S
C360 H418 0.930 . S
C361 N357 1.279 . S
C361 C359 1.358 . S
C361 H419 0.930 . S
C362 C365 1.348 . S
C362 C366 1.356 . S
C362 O413 1.325 . S
C363 N364 1.279 . S
C363 C366 1.358 . S
C363 H420 0.930 . S
N364 C363 1.279 . S
N364 C367 1.314 . S
C365 C362 1.348 . S
C365 C367 1.353 . S
C365 H421 0.929 . S
C366 C362 1.356 . S
C366 C363 1.358 . S
C366 H422 0.930 . S
C367 N364 1.314 . S
C367 C365 1.353 . S
C367 H423 0.930 . S
C368 N369 1.314 . S
C368 C373 1.353 . S
C368 H374 0.930 . S
N369 Li352 1.990 . S
N369 C368 1.314 . S
N369 C371 1.279 . S
C370 C371 1.358 . S
C370 C372 1.356 . S
C370 H424 0.930 . S
C371 N369 1.279 . S
C371 C370 1.358 . S
C371 H375 0.930 . S
C372 C370 1.356 . S
C372 C373 1.348 . S
C373 C368 1.353 . S
C373 C372 1.348 . S
C373 H425 0.929 . S
H374 C368 0.930 . S
H375 C371 0.930 . S
C376 N377 1.314 . S
C376 C378 1.353 . S
C376 H382 0.930 . S
N377 Li353 1.990 . S
N377 C376 1.314 . S
N377 C380 1.279 . S
C378 C376 1.353 . S
C378 C381 1.348 . S
C378 H426 0.929 . S
C379 C380 1.358 . S
C379 C381 1.356 . S
C379 H427 0.930 . S
C380 N377 1.279 . S
C380 C379 1.358 . S
C380 H383 0.930 . S
C381 C378 1.348 . S
C381 C379 1.356 . S
H382 C376 0.930 . S
H383 C380 0.930 . S
C384 C386 1.348 . S
C384 C387 1.356 . S
C384 O414 1.325 . S
N385 C388 1.314 . S
N385 C389 1.279 . S
C386 C384 1.348 . S
C386 C388 1.353 . S
C386 H428 0.929 . S
C387 C384 1.356 . S
C387 C389 1.358 . S
C387 H429 0.930 . S
C388 N385 1.314 . S
C388 C386 1.353 . S
C388 H430 0.930 . S
C389 N385 1.279 . S
C389 C387 1.358 . S
C389 H431 0.930 . S
C390 C391 1.348 . S
C390 C392 1.356 . S
C390 O415 1.325 . S
C391 C390 1.348 . S
C391 C393 1.353 . S
C391 H432 0.929 . S
C392 C390 1.356 . S
C392 C394 1.358 . S
C392 H433 0.930 . S
C393 C391 1.353 . S
C393 N395 1.314 . S
C393 H434 0.930 . S
C394 C392 1.358 . S
C394 N395 1.279 . S
C394 H435 0.930 . S
N395 C393 1.314 . S
N395 C394 1.279 . S
C396 C398 1.353 . S
C396 N399 1.314 . S
C396 H402 0.930 . S
C397 N399 1.279 . S
C397 C400 1.358 . S
C397 H403 0.930 . S
C398 C396 1.353 . S
C398 C401 1.348 . S
C398 H436 0.929 . S
N399 Li354 1.990 . S
N399 C396 1.314 . S
N399 C397 1.279 . S
C400 C397 1.358 . S
C400 C401 1.356 . S
C400 H437 0.930 . S
C401 C398 1.348 . S
C401 C400 1.356 . S
H402 C396 0.930 . S
H403 C397 0.930 . S
C404 N405 1.314 . S
C404 C406 1.353 . S
C404 H410 0.930 . S
N405 Li355 1.990 . S
N405 C404 1.314 . S
N405 C408 1.279 . S
C406 C404 1.353 . S
C406 C409 1.348 . S
C406 H438 0.929 . S
C407 C408 1.358 . S
C407 C409 1.356 . S
C407 H439 0.930 . S
C408 N405 1.279 . S
C408 C407 1.358 . S
C408 H411 0.930 . S
C409 C406 1.348 . S
C409 C407 1.356 . S
H410 C404 0.930 . S
H411 C408 0.930 . S
O412 Li352 1.956 . S
O412 Li353 1.970 . S
O412 Li354 1.961 . S
O412 C356 1.325 . S
O413 Li352 1.970 . S
O413 Li353 1.956 . S
O413 Li355 1.961 . S
O413 C362 1.325 . S
O414 Li352 1.961 . S
O414 Li354 1.956 . S
O414 Li355 1.970 . S
O414 C384 1.325 . S
O415 Li353 1.961 . S
O415 Li354 1.970 . S
O415 Li355 1.956 . S
O415 C390 1.325 . S
H416 C358 0.929 . S
H417 C359 0.930 . S
H418 C360 0.930 . S
H419 C361 0.930 . S
H420 C363 0.930 . S
H421 C365 0.929 . S
H422 C366 0.930 . S
H423 C367 0.930 . S
H424 C370 0.930 . S
H425 C373 0.929 . S
H426 C378 0.929 . S
H427 C379 0.930 . S
H428 C386 0.929 . S
H429 C387 0.930 . S
H430 C388 0.930 . S
H431 C389 0.930 . S
H432 C391 0.929 . S
H433 C392 0.930 . S
H434 C393 0.930 . S
H435 C394 0.930 . S
H436 C398 0.929 . S
H437 C400 0.930 . S
H438 C406 0.929 . S
H439 C407 0.930 . S
Li440 N457 1.990 . S
Li440 O500 1.956 . S
Li440 O501 1.970 . S
Li440 O502 1.961 . S
Li441 N465 1.990 . S
Li441 O500 1.970 . S
Li441 O501 1.956 . S
Li441 O503 1.961 . S
Li442 N487 1.990 . S
Li442 O500 1.961 . S
Li442 O502 1.956 . S
Li442 O503 1.970 . S
Li443 N493 1.990 . S
Li443 O501 1.961 . S
Li443 O502 1.970 . S
Li443 O503 1.956 . S
C444 C446 1.348 . S
C444 C447 1.356 . S
C444 O500 1.325 . S
N445 C448 1.314 . S
N445 C449 1.279 . S
C446 C444 1.348 . S
C446 C448 1.353 . S
C446 H504 0.929 . S
C447 C444 1.356 . S
C447 C449 1.358 . S
C447 H505 0.930 . S
C448 N445 1.314 . S
C448 C446 1.353 . S
C448 H506 0.930 . S
C449 N445 1.279 . S
C449 C447 1.358 . S
C449 H507 0.930 . S
C450 C453 1.348 . S
C450 C454 1.356 . S
C450 O501 1.325 . S
C451 N452 1.279 1_655 S
C451 C454 1.358 . S
C451 H508 0.930 . S
N452 C451 1.279 1_455 S
N452 C455 1.314 . S
C453 C450 1.348 . S
C453 C455 1.353 1_655 S
C453 H509 0.929 . S
C454 C450 1.356 . S
C454 C451 1.358 . S
C454 H510 0.930 . S
C455 N452 1.314 . S
C455 C453 1.353 1_455 S
C455 H511 0.930 . S
C456 N457 1.314 . S
C456 C461 1.353 . S
C456 H462 0.930 . S
N457 Li440 1.990 . S
N457 C456 1.314 . S
N457 C459 1.279 . S
C458 C459 1.358 . S
C458 C460 1.356 . S
C458 H512 0.930 . S
C459 N457 1.279 . S
C459 C458 1.358 . S
C459 H463 0.930 . S
C460 C458 1.356 . S
C460 C461 1.348 . S
C461 C456 1.353 . S
C461 C460 1.348 . S
C461 H513 0.929 . S
H462 C456 0.930 . S
H463 C459 0.930 . S
C464 N465 1.314 . S
C464 C466 1.353 . S
C464 H470 0.930 . S
N465 Li441 1.990 . S
N465 C464 1.314 . S
N465 C468 1.279 . S
C466 C464 1.353 . S
C466 C469 1.348 . S
C466 H514 0.929 . S
C467 C468 1.358 . S
C467 C469 1.356 . S
C467 H515 0.930 . S
C468 N465 1.279 . S
C468 C467 1.358 . S
C468 H471 0.930 . S
C469 C466 1.348 . S
C469 C467 1.356 . S
H470 C464 0.930 . S
H471 C468 0.930 . S
C472 C474 1.348 . S
C472 C475 1.356 . S
C472 O502 1.325 . S
N473 C476 1.314 . S
N473 C477 1.279 . S
C474 C472 1.348 . S
C474 C476 1.353 . S
C474 H516 0.929 . S
C475 C472 1.356 . S
C475 C477 1.358 . S
C475 H517 0.930 . S
C476 N473 1.314 . S
C476 C474 1.353 . S
C476 H518 0.930 . S
C477 N473 1.279 . S
C477 C475 1.358 . S
C477 H519 0.930 . S
C478 C479 1.348 . S
C478 C480 1.356 . S
C478 O503 1.325 . S
C479 C478 1.348 . S
C479 C481 1.353 . S
C479 H520 0.929 . S
C480 C478 1.356 . S
C480 C482 1.358 . S
C480 H521 0.930 . S
C481 C479 1.353 . S
C481 N483 1.314 . S
C481 H522 0.930 . S
C482 C480 1.358 . S
C482 N483 1.279 . S
C482 H523 0.930 . S
N483 C481 1.314 . S
N483 C482 1.279 . S
C484 C486 1.353 . S
C484 N487 1.314 . S
C484 H490 0.930 . S
C485 N487 1.279 . S
C485 C488 1.358 . S
C485 H491 0.930 . S
C486 C484 1.353 . S
C486 C489 1.348 . S
C486 H524 0.929 . S
N487 Li442 1.990 . S
N487 C484 1.314 . S
N487 C485 1.279 . S
C488 C485 1.358 . S
C488 C489 1.356 . S
C488 H525 0.930 . S
C489 C486 1.348 . S
C489 C488 1.356 . S
H490 C484 0.930 . S
H491 C485 0.930 . S
C492 N493 1.314 . S
C492 C494 1.353 . S
C492 H498 0.930 . S
N493 Li443 1.990 . S
N493 C492 1.314 . S
N493 C496 1.279 . S
C494 C492 1.353 . S
C494 C497 1.348 . S
C494 H526 0.929 . S
C495 C496 1.358 . S
C495 C497 1.356 . S
C495 H527 0.930 . S
C496 N493 1.279 . S
C496 C495 1.358 . S
C496 H499 0.930 . S
C497 C494 1.348 . S
C497 C495 1.356 . S
H498 C492 0.930 . S
H499 C496 0.930 . S
O500 Li440 1.956 . S
O500 Li441 1.970 . S
O500 Li442 1.961 . S
O500 C444 1.325 . S
O501 Li440 1.970 . S
O501 Li441 1.956 . S
O501 Li443 1.961 . S
O501 C450 1.325 . S
O502 Li440 1.961 . S
O502 Li442 1.956 . S
O502 Li443 1.970 . S
O502 C472 1.325 . S
O503 Li441 1.961 . S
O503 Li442 1.970 . S
O503 Li443 1.956 . S
O503 C478 1.325 . S
H504 C446 0.929 . S
H505 C447 0.930 . S
H506 C448 0.930 . S
H507 C449 0.930 . S
H508 C451 0.930 . S
H509 C453 0.929 . S
H510 C454 0.930 . S
H511 C455 0.930 . S
H512 C458 0.930 . S
H513 C461 0.929 . S
H514 C466 0.929 . S
H515 C467 0.930 . S
H516 C474 0.929 . S
H517 C475 0.930 . S
H518 C476 0.930 . S
H519 C477 0.930 . S
H520 C479 0.929 . S
H521 C480 0.930 . S
H522 C481 0.930 . S
H523 C482 0.930 . S
H524 C486 0.929 . S
H525 C488 0.930 . S
H526 C494 0.929 . S
H527 C495 0.930 . S
Li528 N545 1.990 . S
Li528 O588 1.956 . S
Li528 O589 1.970 . S
Li528 O590 1.961 . S
Li529 N553 1.990 . S
Li529 O588 1.970 . S
Li529 O589 1.956 . S
Li529 O591 1.961 . S
Li530 N575 1.990 . S
Li530 O588 1.961 . S
Li530 O590 1.956 . S
Li530 O591 1.970 . S
Li531 N581 1.990 . S
Li531 O589 1.961 . S
Li531 O590 1.970 . S
Li531 O591 1.956 . S
C532 C534 1.348 . S
C532 C535 1.356 . S
C532 O588 1.325 . S
N533 C536 1.314 . S
N533 C537 1.279 . S
C534 C532 1.348 . S
C534 C536 1.353 . S
C534 H592 0.929 . S
C535 C532 1.356 . S
C535 C537 1.358 . S
C535 H593 0.930 . S
C536 N533 1.314 . S
C536 C534 1.353 . S
C536 H594 0.930 . S
C537 N533 1.279 . S
C537 C535 1.358 . S
C537 H595 0.930 . S
C538 C541 1.348 . S
C538 C542 1.356 . S
C538 O589 1.325 . S
C539 N540 1.279 . S
C539 C542 1.358 . S
C539 H596 0.930 . S
N540 C539 1.279 . S
N540 C543 1.314 . S
C541 C538 1.348 . S
C541 C543 1.353 . S
C541 H597 0.929 . S
C542 C538 1.356 . S
C542 C539 1.358 . S
C542 H598 0.930 . S
C543 N540 1.314 . S
C543 C541 1.353 . S
C543 H599 0.930 . S
C544 N545 1.314 . S
C544 C549 1.353 . S
C544 H550 0.930 . S
N545 Li528 1.990 . S
N545 C544 1.314 . S
N545 C547 1.279 . S
C546 C547 1.358 . S
C546 C548 1.356 . S
C546 H600 0.930 . S
C547 N545 1.279 . S
C547 C546 1.358 . S
C547 H551 0.930 . S
C548 C546 1.356 . S
C548 C549 1.348 . S
C549 C544 1.353 . S
C549 C548 1.348 . S
C549 H601 0.929 . S
H550 C544 0.930 . S
H551 C547 0.930 . S
C552 N553 1.314 . S
C552 C554 1.353 . S
C552 H558 0.930 . S
N553 Li529 1.990 . S
N553 C552 1.314 . S
N553 C556 1.279 . S
C554 C552 1.353 . S
C554 C557 1.348 . S
C554 H602 0.929 . S
C555 C556 1.358 . S
C555 C557 1.356 . S
C555 H603 0.930 . S
C556 N553 1.279 . S
C556 C555 1.358 . S
C556 H559 0.930 . S
C557 C554 1.348 . S
C557 C555 1.356 . S
H558 C552 0.930 . S
H559 C556 0.930 . S
C560 C562 1.348 . S
C560 C563 1.356 . S
C560 O590 1.325 . S
N561 C564 1.314 . S
N561 C565 1.279 1_545 S
C562 C560 1.348 . S
C562 C564 1.353 1_565 S
C562 H604 0.929 . S
C563 C560 1.356 . S
C563 C565 1.358 . S
C563 H605 0.930 . S
C564 N561 1.314 . S
C564 C562 1.353 1_545 S
C564 H606 0.930 . S
C565 N561 1.279 1_565 S
C565 C563 1.358 . S
C565 H607 0.930 . S
C566 C567 1.348 . S
C566 C568 1.356 . S
C566 O591 1.325 . S
C567 C566 1.348 . S
C567 C569 1.353 . S
C567 H608 0.929 . S
C568 C566 1.356 . S
C568 C570 1.358 . S
C568 H609 0.930 . S
C569 C567 1.353 . S
C569 N571 1.314 . S
C569 H610 0.930 . S
C570 C568 1.358 . S
C570 N571 1.279 . S
C570 H611 0.930 . S
N571 C569 1.314 . S
N571 C570 1.279 . S
C572 C574 1.353 . S
C572 N575 1.314 . S
C572 H578 0.930 . S
C573 N575 1.279 . S
C573 C576 1.358 . S
C573 H579 0.930 . S
C574 C572 1.353 . S
C574 C577 1.348 . S
C574 H612 0.929 . S
N575 Li530 1.990 . S
N575 C572 1.314 . S
N575 C573 1.279 . S
C576 C573 1.358 . S
C576 C577 1.356 . S
C576 H613 0.930 . S
C577 C574 1.348 . S
C577 C576 1.356 . S
H578 C572 0.930 . S
H579 C573 0.930 . S
C580 N581 1.314 . S
C580 C582 1.353 . S
C580 H586 0.930 . S
N581 Li531 1.990 . S
N581 C580 1.314 . S
N581 C584 1.279 . S
C582 C580 1.353 . S
C582 C585 1.348 . S
C582 H614 0.929 . S
C583 C584 1.358 . S
C583 C585 1.356 . S
C583 H615 0.930 . S
C584 N581 1.279 . S
C584 C583 1.358 . S
C584 H587 0.930 . S
C585 C582 1.348 . S
C585 C583 1.356 . S
H586 C580 0.930 . S
H587 C584 0.930 . S
O588 Li528 1.956 . S
O588 Li529 1.970 . S
O588 Li530 1.961 . S
O588 C532 1.325 . S
O589 Li528 1.970 . S
O589 Li529 1.956 . S
O589 Li531 1.961 . S
O589 C538 1.325 . S
O590 Li528 1.961 . S
O590 Li530 1.956 . S
O590 Li531 1.970 . S
O590 C560 1.325 . S
O591 Li529 1.961 . S
O591 Li530 1.970 . S
O591 Li531 1.956 . S
O591 C566 1.325 . S
H592 C534 0.929 . S
H593 C535 0.930 . S
H594 C536 0.930 . S
H595 C537 0.930 . S
H596 C539 0.930 . S
H597 C541 0.929 . S
H598 C542 0.930 . S
H599 C543 0.930 . S
H600 C546 0.930 . S
H601 C549 0.929 . S
H602 C554 0.929 . S
H603 C555 0.930 . S
H604 C562 0.929 . S
H605 C563 0.930 . S
H606 C564 0.930 . S
H607 C565 0.930 . S
H608 C567 0.929 . S
H609 C568 0.930 . S
H610 C569 0.930 . S
H611 C570 0.930 . S
H612 C574 0.929 . S
H613 C576 0.930 . S
H614 C582 0.929 . S
H615 C583 0.930 . S
Li616 N633 1.990 . S
Li616 O676 1.956 . S
Li616 O677 1.970 . S
Li616 O678 1.961 . S
Li617 N641 1.990 . S
Li617 O676 1.970 . S
Li617 O677 1.956 . S
Li617 O679 1.961 . S
Li618 N663 1.990 . S
Li618 O676 1.961 . S
Li618 O678 1.956 . S
Li618 O679 1.970 . S
Li619 N669 1.990 . S
Li619 O677 1.961 . S
Li619 O678 1.970 . S
Li619 O679 1.956 . S
C620 C622 1.348 . S
C620 C623 1.356 . S
C620 O676 1.325 . S
N621 C624 1.314 . S
N621 C625 1.279 . S
C622 C620 1.348 . S
C622 C624 1.353 . S
C622 H680 0.929 . S
C623 C620 1.356 . S
C623 C625 1.358 . S
C623 H681 0.930 . S
C624 N621 1.314 . S
C624 C622 1.353 . S
C624 H682 0.930 . S
C625 N621 1.279 . S
C625 C623 1.358 . S
C625 H683 0.930 . S
C626 C629 1.348 . S
C626 C630 1.356 . S
C626 O677 1.325 . S
C627 N628 1.279 . S
C627 C630 1.358 . S
C627 H684 0.930 . S
N628 C627 1.279 . S
N628 C631 1.314 . S
C629 C626 1.348 . S
C629 C631 1.353 . S
C629 H685 0.929 . S
C630 C626 1.356 . S
C630 C627 1.358 . S
C630 H686 0.930 . S
C631 N628 1.314 . S
C631 C629 1.353 . S
C631 H687 0.930 . S
C632 N633 1.314 . S
C632 C637 1.353 . S
C632 H638 0.930 . S
N633 Li616 1.990 . S
N633 C632 1.314 . S
N633 C635 1.279 . S
C634 C635 1.358 . S
C634 C636 1.356 . S
C634 H688 0.930 . S
C635 N633 1.279 . S
C635 C634 1.358 . S
C635 H639 0.930 . S
C636 C634 1.356 . S
C636 C637 1.348 . S
C637 C632 1.353 . S
C637 C636 1.348 . S
C637 H689 0.929 . S
H638 C632 0.930 . S
H639 C635 0.930 . S
C640 N641 1.314 . S
C640 C642 1.353 . S
C640 H646 0.930 . S
N641 Li617 1.990 . S
N641 C640 1.314 . S
N641 C644 1.279 . S
C642 C640 1.353 . S
C642 C645 1.348 . S
C642 H690 0.929 . S
C643 C644 1.358 . S
C643 C645 1.356 . S
C643 H691 0.930 . S
C644 N641 1.279 . S
C644 C643 1.358 . S
C644 H647 0.930 . S
C645 C642 1.348 . S
C645 C643 1.356 . S
H646 C640 0.930 . S
H647 C644 0.930 . S
C648 C650 1.348 . S
C648 C651 1.356 . S
C648 O678 1.325 . S
N649 C652 1.314 . S
N649 C653 1.279 . S
C650 C648 1.348 . S
C650 C652 1.353 . S
C650 H692 0.929 . S
C651 C648 1.356 . S
C651 C653 1.358 . S
C651 H693 0.930 . S
C652 N649 1.314 . S
C652 C650 1.353 . S
C652 H694 0.930 . S
C653 N649 1.279 . S
C653 C651 1.358 . S
C653 H695 0.930 . S
C654 C655 1.348 . S
C654 C656 1.356 . S
C654 O679 1.325 . S
C655 C654 1.348 . S
C655 C657 1.353 . S
C655 H696 0.929 . S
C656 C654 1.356 . S
C656 C658 1.358 . S
C656 H697 0.930 . S
C657 C655 1.353 . S
C657 N659 1.314 . S
C657 H698 0.930 . S
C658 C656 1.358 . S
C658 N659 1.279 . S
C658 H699 0.930 . S
N659 C657 1.314 . S
N659 C658 1.279 . S
C660 C662 1.353 . S
C660 N663 1.314 . S
C660 H666 0.930 . S
C661 N663 1.279 . S
C661 C664 1.358 . S
C661 H667 0.930 . S
C662 C660 1.353 . S
C662 C665 1.348 . S
C662 H700 0.929 . S
N663 Li618 1.990 . S
N663 C660 1.314 . S
N663 C661 1.279 . S
C664 C661 1.358 . S
C664 C665 1.356 . S
C664 H701 0.930 . S
C665 C662 1.348 . S
C665 C664 1.356 . S
H666 C660 0.930 . S
H667 C661 0.930 . S
C668 N669 1.314 . S
C668 C670 1.353 . S
C668 H674 0.930 . S
N669 Li619 1.990 . S
N669 C668 1.314 . S
N669 C672 1.279 . S
C670 C668 1.353 . S
C670 C673 1.348 . S
C670 H702 0.929 . S
C671 C672 1.358 . S
C671 C673 1.356 . S
C671 H703 0.930 . S
C672 N669 1.279 . S
C672 C671 1.358 . S
C672 H675 0.930 . S
C673 C670 1.348 . S
C673 C671 1.356 . S
H674 C668 0.930 . S
H675 C672 0.930 . S
O676 Li616 1.956 . S
O676 Li617 1.970 . S
O676 Li618 1.961 . S
O676 C620 1.325 . S
O677 Li616 1.970 . S
O677 Li617 1.956 . S
O677 Li619 1.961 . S
O677 C626 1.325 . S
O678 Li616 1.961 . S
O678 Li618 1.956 . S
O678 Li619 1.970 . S
O678 C648 1.325 . S
O679 Li617 1.961 . S
O679 Li618 1.970 . S
O679 Li619 1.956 . S
O679 C654 1.325 . S
H680 C622 0.929 . S
H681 C623 0.930 . S
H682 C624 0.930 . S
H683 C625 0.930 . S
H684 C627 0.930 . S
H685 C629 0.929 . S
H686 C630 0.930 . S
H687 C631 0.930 . S
H688 C634 0.930 . S
H689 C637 0.929 . S
H690 C642 0.929 . S
H691 C643 0.930 . S
H692 C650 0.929 . S
H693 C651 0.930 . S
H694 C652 0.930 . S
H695 C653 0.930 . S
H696 C655 0.929 . S
H697 C656 0.930 . S
H698 C657 0.930 . S
H699 C658 0.930 . S
H700 C662 0.929 . S
H701 C664 0.930 . S
H702 C670 0.929 . S
H703 C671 0.930 . S
Li704 N721 1.990 . S
Li704 O764 1.956 . S
Li704 O765 1.970 . S
Li704 O766 1.961 . S
Li705 N729 1.990 . S
Li705 O764 1.970 . S
Li705 O765 1.956 . S
Li705 O767 1.961 . S
Li706 N751 1.990 . S
Li706 O764 1.961 . S
Li706 O766 1.956 . S
Li706 O767 1.970 . S
Li707 N757 1.990 . S
Li707 O765 1.961 . S
Li707 O766 1.970 . S
Li707 O767 1.956 . S
C708 C710 1.348 . S
C708 C711 1.356 . S
C708 O764 1.325 . S
N709 C712 1.314 . S
N709 C713 1.279 . S
C710 C708 1.348 . S
C710 C712 1.353 . S
C710 H768 0.929 . S
C711 C708 1.356 . S
C711 C713 1.358 . S
C711 H769 0.930 . S
C712 N709 1.314 . S
C712 C710 1.353 . S
C712 H770 0.930 . S
C713 N709 1.279 . S
C713 C711 1.358 . S
C713 H771 0.930 . S
C714 C717 1.348 . S
C714 C718 1.356 . S
C714 O765 1.325 . S
C715 N716 1.279 . S
C715 C718 1.358 . S
C715 H772 0.930 . S
N716 C715 1.279 . S
N716 C719 1.314 . S
C717 C714 1.348 . S
C717 C719 1.353 . S
C717 H773 0.929 . S
C718 C714 1.356 . S
C718 C715 1.358 . S
C718 H774 0.930 . S
C719 N716 1.314 . S
C719 C717 1.353 . S
C719 H775 0.930 . S
C720 N721 1.314 . S
C720 C725 1.353 . S
C720 H726 0.930 . S
N721 Li704 1.990 . S
N721 C720 1.314 . S
N721 C723 1.279 . S
C722 C723 1.358 . S
C722 C724 1.356 . S
C722 H776 0.930 . S
C723 N721 1.279 . S
C723 C722 1.358 . S
C723 H727 0.930 . S
C724 C722 1.356 . S
C724 C725 1.348 . S
C725 C720 1.353 . S
C725 C724 1.348 . S
C725 H777 0.929 . S
H726 C720 0.930 . S
H727 C723 0.930 . S
C728 N729 1.314 . S
C728 C730 1.353 . S
C728 H734 0.930 . S
N729 Li705 1.990 . S
N729 C728 1.314 . S
N729 C732 1.279 . S
C730 C728 1.353 . S
C730 C733 1.348 . S
C730 H778 0.929 . S
C731 C732 1.358 . S
C731 C733 1.356 . S
C731 H779 0.930 . S
C732 N729 1.279 . S
C732 C731 1.358 . S
C732 H735 0.930 . S
C733 C730 1.348 . S
C733 C731 1.356 . S
H734 C728 0.930 . S
H735 C732 0.930 . S
C736 C738 1.348 . S
C736 C739 1.356 . S
C736 O766 1.325 . S
N737 C740 1.314 . S
N737 C741 1.279 . S
C738 C736 1.348 . S
C738 C740 1.353 . S
C738 H780 0.929 . S
C739 C736 1.356 . S
C739 C741 1.358 . S
C739 H781 0.930 . S
C740 N737 1.314 . S
C740 C738 1.353 . S
C740 H782 0.930 . S
C741 N737 1.279 . S
C741 C739 1.358 . S
C741 H783 0.930 . S
C742 C743 1.348 . S
C742 C744 1.356 . S
C742 O767 1.325 . S
C743 C742 1.348 . S
C743 C745 1.353 . S
C743 H784 0.929 . S
C744 C742 1.356 . S
C744 C746 1.358 . S
C744 H785 0.930 . S
C745 C743 1.353 . S
C745 N747 1.314 . S
C745 H786 0.930 . S
C746 C744 1.358 . S
C746 N747 1.279 . S
C746 H787 0.930 . S
N747 C745 1.314 . S
N747 C746 1.279 . S
C748 C750 1.353 . S
C748 N751 1.314 . S
C748 H754 0.930 . S
C749 N751 1.279 . S
C749 C752 1.358 . S
C749 H755 0.930 . S
C750 C748 1.353 . S
C750 C753 1.348 . S
C750 H788 0.929 . S
N751 Li706 1.990 . S
N751 C748 1.314 . S
N751 C749 1.279 . S
C752 C749 1.358 . S
C752 C753 1.356 . S
C752 H789 0.930 . S
C753 C750 1.348 . S
C753 C752 1.356 . S
H754 C748 0.930 . S
H755 C749 0.930 . S
C756 N757 1.314 . S
C756 C758 1.353 . S
C756 H762 0.930 . S
N757 Li707 1.990 . S
N757 C756 1.314 . S
N757 C760 1.279 . S
C758 C756 1.353 . S
C758 C761 1.348 . S
C758 H790 0.929 . S
C759 C760 1.358 . S
C759 C761 1.356 . S
C759 H791 0.930 . S
C760 N757 1.279 . S
C760 C759 1.358 . S
C760 H763 0.930 . S
C761 C758 1.348 . S
C761 C759 1.356 . S
H762 C756 0.930 . S
H763 C760 0.930 . S
O764 Li704 1.956 . S
O764 Li705 1.970 . S
O764 Li706 1.961 . S
O764 C708 1.325 . S
O765 Li704 1.970 . S
O765 Li705 1.956 . S
O765 Li707 1.961 . S
O765 C714 1.325 . S
O766 Li704 1.961 . S
O766 Li706 1.956 . S
O766 Li707 1.970 . S
O766 C736 1.325 . S
O767 Li705 1.961 . S
O767 Li706 1.970 . S
O767 Li707 1.956 . S
O767 C742 1.325 . S
H768 C710 0.929 . S
H769 C711 0.930 . S
H770 C712 0.930 . S
H771 C713 0.930 . S
H772 C715 0.930 . S
H773 C717 0.929 . S
H774 C718 0.930 . S
H775 C719 0.930 . S
H776 C722 0.930 . S
H777 C725 0.929 . S
H778 C730 0.929 . S
H779 C731 0.930 . S
H780 C738 0.929 . S
H781 C739 0.930 . S
H782 C740 0.930 . S
H783 C741 0.930 . S
H784 C743 0.929 . S
H785 C744 0.930 . S
H786 C745 0.930 . S
H787 C746 0.930 . S
H788 C750 0.929 . S
H789 C752 0.930 . S
H790 C758 0.929 . S
H791 C759 0.930 . S
C792 C793 1.363 1_554 S
C792 C798 1.379 . S
C792 N800 1.356 . S
C793 C792 1.363 1_556 S
C793 C799 1.363 . S
C794 C795 1.363 1_556 S
C794 C799 1.379 . S
C794 N801 1.356 . S
C795 C794 1.363 1_554 S
C795 C798 1.363 . S
N796 C798 1.356 . S
N796 H808 0.984 . S
N796 H809 0.985 . S
N797 C799 1.356 . S
N797 H802 0.984 . S
N797 H803 0.985 . S
C798 C792 1.379 . S
C798 C795 1.363 . S
C798 N796 1.356 . S
C799 C793 1.363 . S
C799 C794 1.379 . S
C799 N797 1.356 . S
N800 C792 1.356 . S
N800 H806 0.984 . S
N800 H807 0.984 . S
N801 C794 1.356 . S
N801 H804 0.984 1_556 S
N801 H805 0.985 . S
H802 N797 0.984 . S
H803 N797 0.985 . S
H804 N801 0.984 1_554 S
H805 N801 0.985 . S
H806 N800 0.984 . S
H807 N800 0.984 . S
H808 N796 0.984 . S
H809 N796 0.985 . S
C810 C811 1.363 1_556 S
C810 C816 1.379 1_565 S
C810 N818 1.356 . S
C811 C810 1.363 1_554 S
C811 C817 1.363 1_565 S
C812 C813 1.363 1_554 S
C812 C817 1.379 . S
C812 N819 1.356 . S
C813 C812 1.363 1_556 S
C813 C816 1.363 . S
N814 C816 1.356 . S
N814 H826 0.984 . S
N814 H827 0.985 . S
N815 C817 1.356 . S
N815 H820 0.984 1_545 S
N815 H821 0.985 . S
C816 C810 1.379 1_545 S
C816 C813 1.363 . S
C816 N814 1.356 . S
C817 C811 1.363 1_545 S
C817 C812 1.379 . S
C817 N815 1.356 . S
N818 C810 1.356 . S
N818 H824 0.984 . S
N818 H825 0.984 1_556 S
N819 C812 1.356 . S
N819 H822 0.984 . S
N819 H823 0.985 . S
H820 N815 0.984 1_565 S
H821 N815 0.985 . S
H822 N819 0.984 . S
H823 N819 0.985 . S
H824 N818 0.984 . S
H825 N818 0.984 1_554 S
H826 N814 0.984 . S
H827 N814 0.985 . S
C828 C829 1.363 1_554 S
C828 C834 1.379 1_655 S
C828 N836 1.356 . S
C829 C828 1.363 1_556 S
C829 C835 1.363 1_655 S
C830 C831 1.363 1_556 S
C830 C835 1.379 . S
C830 N837 1.356 . S
C831 C830 1.363 1_554 S
C831 C834 1.363 . S
N832 C834 1.356 . S
N832 H844 0.984 . S
N832 H845 0.985 . S
N833 C835 1.356 . S
N833 H838 0.984 1_455 S
N833 H839 0.985 . S
C834 C828 1.379 1_455 S
C834 C831 1.363 . S
C834 N832 1.356 . S
C835 C829 1.363 1_455 S
C835 C830 1.379 . S
C835 N833 1.356 . S
N836 C828 1.356 . S
N836 H842 0.984 . S
N836 H843 0.984 . S
N837 C830 1.356 . S
N837 H840 0.984 1_556 S
N837 H841 0.985 . S
H838 N833 0.984 1_655 S
H839 N833 0.985 . S
H840 N837 0.984 1_554 S
H841 N837 0.985 . S
H842 N836 0.984 . S
H843 N836 0.984 . S
H844 N832 0.984 . S
H845 N832 0.985 . S
C846 C847 1.363 . S
C846 C852 1.379 . S
C846 N854 1.356 . S
C847 C846 1.363 . S
C847 C853 1.363 . S
C848 C849 1.363 . S
C848 C853 1.379 . S
C848 N855 1.356 . S
C849 C848 1.363 . S
C849 C852 1.363 . S
N850 C852 1.356 . S
N850 H862 0.984 . S
N850 H863 0.985 . S
N851 C853 1.356 . S
N851 H856 0.984 . S
N851 H857 0.985 . S
C852 C846 1.379 . S
C852 C849 1.363 . S
C852 N850 1.356 . S
C853 C847 1.363 . S
C853 C848 1.379 . S
C853 N851 1.356 . S
N854 C846 1.356 . S
N854 H860 0.984 . S
N854 H861 0.984 . S
N855 C848 1.356 . S
N855 H858 0.984 . S
N855 H859 0.985 . S
H856 N851 0.984 . S
H857 N851 0.985 . S
H858 N855 0.984 . S
H859 N855 0.985 . S
H860 N854 0.984 . S
H861 N854 0.984 . S
H862 N850 0.984 . S
H863 N850 0.985 . S
C864 C865 1.363 . S
C864 C870 1.379 . S
C864 N872 1.356 . S
C865 C864 1.363 . S
C865 C871 1.363 . S
C866 C867 1.363 . S
C866 C871 1.379 . S
C866 N873 1.356 . S
C867 C866 1.363 . S
C867 C870 1.363 . S
N868 C870 1.356 . S
N868 H880 0.984 . S
N868 H881 0.985 . S
N869 C871 1.356 . S
N869 H874 0.984 . S
N869 H875 0.985 . S
C870 C864 1.379 . S
C870 C867 1.363 . S
C870 N868 1.356 . S
C871 C865 1.363 . S
C871 C866 1.379 . S
C871 N869 1.356 . S
N872 C864 1.356 . S
N872 H878 0.984 . S
N872 H879 0.984 . S
N873 C866 1.356 . S
N873 H876 0.984 . S
N873 H877 0.985 . S
H874 N869 0.984 . S
H875 N869 0.985 . S
H876 N873 0.984 . S
H877 N873 0.985 . S
H878 N872 0.984 . S
H879 N872 0.984 . S
H880 N868 0.984 . S
H881 N868 0.985 . S
C882 C883 1.363 . S
C882 C888 1.379 . S
C882 N890 1.356 . S
C883 C882 1.363 . S
C883 C889 1.363 . S
C884 C885 1.363 . S
C884 C889 1.379 . S
C884 N891 1.356 . S
C885 C884 1.363 . S
C885 C888 1.363 . S
N886 C888 1.356 . S
N886 H898 0.984 . S
N886 H899 0.985 . S
N887 C889 1.356 . S
N887 H892 0.984 . S
N887 H893 0.985 . S
C888 C882 1.379 . S
C888 C885 1.363 . S
C888 N886 1.356 . S
C889 C883 1.363 . S
C889 C884 1.379 . S
C889 N887 1.356 . S
N890 C882 1.356 . S
N890 H896 0.984 . S
N890 H897 0.984 . S
N891 C884 1.356 . S
N891 H894 0.984 . S
N891 H895 0.985 . S
H892 N887 0.984 . S
H893 N887 0.985 . S
H894 N891 0.984 . S
H895 N891 0.985 . S
H896 N890 0.984 . S
H897 N890 0.984 . S
H898 N886 0.984 . S
H899 N886 0.985 . S
C900 C901 1.363 . S
C900 C906 1.379 . S
C900 N908 1.356 . S
C901 C900 1.363 . S
C901 C907 1.363 . S
C902 C903 1.363 . S
C902 C907 1.379 . S
C902 N909 1.356 . S
C903 C902 1.363 . S
C903 C906 1.363 . S
N904 C906 1.356 . S
N904 H916 0.984 . S
N904 H917 0.985 . S
N905 C907 1.356 . S
N905 H910 0.984 . S
N905 H911 0.985 . S
C906 C900 1.379 . S
C906 C903 1.363 . S
C906 N904 1.356 . S
C907 C901 1.363 . S
C907 C902 1.379 . S
C907 N905 1.356 . S
N908 C900 1.356 . S
N908 H914 0.984 . S
N908 H915 0.984 . S
N909 C902 1.356 . S
N909 H912 0.984 . S
N909 H913 0.985 . S
H910 N905 0.984 . S
H911 N905 0.985 . S
H912 N909 0.984 . S
H913 N909 0.985 . S
H914 N908 0.984 . S
H915 N908 0.984 . S
H916 N904 0.984 . S
H917 N904 0.985 . S
C918 C919 1.363 . S
C918 C924 1.379 . S
C918 N926 1.356 . S
C919 C918 1.363 . S
C919 C925 1.363 . S
C920 C921 1.363 . S
C920 C925 1.379 . S
C920 N927 1.356 . S
C921 C920 1.363 . S
C921 C924 1.363 . S
N922 C924 1.356 . S
N922 H934 0.984 . S
N922 H935 0.985 . S
N923 C925 1.356 . S
N923 H928 0.984 . S
N923 H929 0.985 . S
C924 C918 1.379 . S
C924 C921 1.363 . S
C924 N922 1.356 . S
C925 C919 1.363 . S
C925 C920 1.379 . S
C925 N923 1.356 . S
N926 C918 1.356 . S
N926 H932 0.984 . S
N926 H933 0.984 . S
N927 C920 1.356 . S
N927 H930 0.984 . S
N927 H931 0.985 . S
H928 N923 0.984 . S
H929 N923 0.985 . S
H930 N927 0.984 . S
H931 N927 0.985 . S
H932 N926 0.984 . S
H933 N926 0.984 . S
H934 N922 0.984 . S
H935 N922 0.985 . S
C936 C937 1.363 . S
C936 C942 1.379 . S
C936 N944 1.356 . S
C937 C936 1.363 . S
C937 C943 1.363 . S
C938 C939 1.363 . S
C938 C943 1.379 . S
C938 N945 1.356 . S
C939 C938 1.363 . S
C939 C942 1.363 . S
N940 C942 1.356 . S
N940 H952 0.984 . S
N940 H953 0.985 . S
N941 C943 1.356 . S
N941 H946 0.984 . S
N941 H947 0.985 . S
C942 C936 1.379 . S
C942 C939 1.363 . S
C942 N940 1.356 . S
C943 C937 1.363 . S
C943 C938 1.379 . S
C943 N941 1.356 . S
N944 C936 1.356 . S
N944 H950 0.984 . S
N944 H951 0.984 . S
N945 C938 1.356 . S
N945 H948 0.984 . S
N945 H949 0.985 . S
H946 N941 0.984 . S
H947 N941 0.985 . S
H948 N945 0.984 . S
H949 N945 0.985 . S
H950 N944 0.984 . S
H951 N944 0.984 . S
H952 N940 0.984 . S
H953 N940 0.985 . S
C954 C955 1.363 . S
C954 C960 1.379 . S
C954 N962 1.356 . S
C955 C954 1.363 . S
C955 C961 1.363 . S
C956 C957 1.363 . S
C956 C961 1.379 . S
C956 N963 1.356 . S
C957 C956 1.363 . S
C957 C960 1.363 . S
N958 C960 1.356 . S
N958 H970 0.984 . S
N958 H971 0.985 . S
N959 C961 1.356 . S
N959 H964 0.984 . S
N959 H965 0.985 . S
C960 C954 1.379 . S
C960 C957 1.363 . S
C960 N958 1.356 . S
C961 C955 1.363 . S
C961 C956 1.379 . S
C961 N959 1.356 . S
N962 C954 1.356 . S
N962 H968 0.984 . S
N962 H969 0.984 . S
N963 C956 1.356 . S
N963 H966 0.984 . S
N963 H967 0.985 . S
H964 N959 0.984 . S
H965 N959 0.985 . S
H966 N963 0.984 . S
H967 N963 0.985 . S
H968 N962 0.984 . S
H969 N962 0.984 . S
H970 N958 0.984 . S
H971 N958 0.985 . S
C972 C973 1.363 . S
C972 C978 1.379 . S
C972 N980 1.356 . S
C973 C972 1.363 . S
C973 C979 1.363 . S
C974 C975 1.363 . S
C974 C979 1.379 . S
C974 N981 1.356 . S
C975 C974 1.363 . S
C975 C978 1.363 . S
N976 C978 1.356 . S
N976 H988 0.984 . S
N976 H989 0.985 . S
N977 C979 1.356 . S
N977 H982 0.984 . S
N977 H983 0.985 . S
C978 C972 1.379 . S
C978 C975 1.363 . S
C978 N976 1.356 . S
C979 C973 1.363 . S
C979 C974 1.379 . S
C979 N977 1.356 . S
N980 C972 1.356 . S
N980 H986 0.984 . S
N980 H987 0.984 . S
N981 C974 1.356 . S
N981 H984 0.984 . S
N981 H985 0.985 . S
H982 N977 0.984 . S
H983 N977 0.985 . S
H984 N981 0.984 . S
H985 N981 0.985 . S
H986 N980 0.984 . S
H987 N980 0.984 . S
H988 N976 0.984 . S
H989 N976 0.985 . S
C990 C991 1.363 . S
C990 C996 1.379 . S
C990 N998 1.356 . S
C991 C990 1.363 . S
C991 C997 1.363 . S
C992 C993 1.363 . S
C992 C997 1.379 . S
C992 N999 1.356 1_565 S
C993 C992 1.363 . S
C993 C996 1.363 . S
N994 C996 1.356 . S
N994 H1006 0.984 . S
N994 H1007 0.985 . S
N995 C997 1.356 . S
N995 H1000 0.984 . S
N995 H1001 0.985 1_565 S
C996 C990 1.379 . S
C996 C993 1.363 . S
C996 N994 1.356 . S
C997 C991 1.363 . S
C997 C992 1.379 . S
C997 N995 1.356 . S
N998 C990 1.356 . S
N998 H1004 0.984 . S
N998 H1005 0.984 . S
N999 C992 1.356 1_545 S
N999 H1002 0.984 . S
N999 H1003 0.985 . S
H1000 N995 0.984 . S
H1001 N995 0.985 1_545 S
H1002 N999 0.984 . S
H1003 N999 0.985 . S
H1004 N998 0.984 . S
H1005 N998 0.984 . S
H1006 N994 0.984 . S
H1007 N994 0.985 . S
C1008 C1009 1.363 . S
C1008 C1014 1.379 . S
C1008 N1016 1.356 . S
C1009 C1008 1.363 . S
C1009 C1015 1.363 . S
C1010 C1011 1.363 . S
C1010 C1015 1.379 . S
C1010 N1017 1.356 . S
C1011 C1010 1.363 . S
C1011 C1014 1.363 . S
N1012 C1014 1.356 . S
N1012 H1024 0.984 1_545 S
N1012 H1025 0.985 . S
N1013 C1015 1.356 . S
N1013 H1018 0.984 . S
N1013 H1019 0.985 . S
C1014 C1008 1.379 . S
C1014 C1011 1.363 . S
C1014 N1012 1.356 . S
C1015 C1009 1.363 . S
C1015 C1010 1.379 . S
C1015 N1013 1.356 . S
N1016 C1008 1.356 . S
N1016 H1022 0.984 . S
N1016 H1023 0.984 . S
N1017 C1010 1.356 . S
N1017 H1020 0.984 . S
N1017 H1021 0.985 . S
H1018 N1013 0.984 . S
H1019 N1013 0.985 . S
H1020 N1017 0.984 . S
H1021 N1017 0.985 . S
H1022 N1016 0.984 . S
H1023 N1016 0.984 . S
H1024 N1012 0.984 1_565 S
H1025 N1012 0.985 . S
C1026 C1027 1.363 . S
C1026 C1032 1.379 . S
C1026 N1034 1.356 . S
C1027 C1026 1.363 . S
C1027 C1033 1.363 1_655 S
C1028 C1029 1.363 . S
C1028 C1033 1.379 1_655 S
C1028 N1035 1.356 1_655 S
C1029 C1028 1.363 . S
C1029 C1032 1.363 . S
N1030 C1032 1.356 . S
N1030 H1042 0.984 . S
N1030 H1043 0.985 . S
N1031 C1033 1.356 . S
N1031 H1036 0.984 . S
N1031 H1037 0.985 . S
C1032 C1026 1.379 . S
C1032 C1029 1.363 . S
C1032 N1030 1.356 . S
C1033 C1027 1.363 1_455 S
C1033 C1028 1.379 1_455 S
C1033 N1031 1.356 . S
N1034 C1026 1.356 . S
N1034 H1040 0.984 . S
N1034 H1041 0.984 . S
N1035 C1028 1.356 1_455 S
N1035 H1038 0.984 1_455 S
N1035 H1039 0.985 . S
H1036 N1031 0.984 . S
H1037 N1031 0.985 . S
H1038 N1035 0.984 1_655 S
H1039 N1035 0.985 . S
H1040 N1034 0.984 . S
H1041 N1034 0.984 . S
H1042 N1030 0.984 . S
H1043 N1030 0.985 . S
C1044 C1045 1.363 . S
C1044 C1050 1.379 . S
C1044 N1052 1.356 . S
C1045 C1044 1.363 . S
C1045 C1051 1.363 . S
C1046 C1047 1.363 . S
C1046 C1051 1.379 . S
C1046 N1053 1.356 . S
C1047 C1046 1.363 . S
C1047 C1050 1.363 . S
N1048 C1050 1.356 . S
N1048 H1060 0.984 . S
N1048 H1061 0.985 . S
N1049 C1051 1.356 . S
N1049 H1054 0.984 . S
N1049 H1055 0.985 . S
C1050 C1044 1.379 . S
C1050 C1047 1.363 . S
C1050 N1048 1.356 . S
C1051 C1045 1.363 . S
C1051 C1046 1.379 . S
C1051 N1049 1.356 . S
N1052 C1044 1.356 . S
N1052 H1058 0.984 . S
N1052 H1059 0.984 . S
N1053 C1046 1.356 . S
N1053 H1056 0.984 . S
N1053 H1057 0.985 . S
H1054 N1049 0.984 . S
H1055 N1049 0.985 . S
H1056 N1053 0.984 . S
H1057 N1053 0.985 . S
H1058 N1052 0.984 . S
H1059 N1052 0.984 . S
H1060 N1048 0.984 . S
H1061 N1048 0.985 . S
C1062 C1063 1.363 . S
C1062 C1068 1.379 . S
C1062 N1070 1.356 . S
C1063 C1062 1.363 . S
C1063 C1069 1.363 . S
C1064 C1065 1.363 . S
C1064 C1069 1.379 1_655 S
C1064 N1071 1.356 . S
C1065 C1064 1.363 . S
C1065 C1068 1.363 1_655 S
N1066 C1068 1.356 . S
N1066 H1078 0.984 . S
N1066 H1079 0.985 . S
N1067 C1069 1.356 1_655 S
N1067 H1072 0.984 1_655 S
N1067 H1073 0.985 . S
C1068 C1062 1.379 . S
C1068 C1065 1.363 1_455 S
C1068 N1066 1.356 . S
C1069 C1063 1.363 . S
C1069 C1064 1.379 1_455 S
C1069 N1067 1.356 1_455 S
N1070 C1062 1.356 . S
N1070 H1076 0.984 . S
N1070 H1077 0.984 . S
N1071 C1064 1.356 . S
N1071 H1074 0.984 . S
N1071 H1075 0.985 . S
H1072 N1067 0.984 1_455 S
H1073 N1067 0.985 . S
H1074 N1071 0.984 . S
H1075 N1071 0.985 . S
H1076 N1070 0.984 . S
H1077 N1070 0.984 . S
H1078 N1066 0.984 . S
H1079 N1066 0.985 . S
C1080 C1081 1.363 . S
C1080 C1086 1.379 . S
C1080 N1088 1.356 . S
C1081 C1080 1.363 . S
C1081 C1087 1.363 . S
C1082 C1083 1.363 . S
C1082 C1087 1.379 . S
C1082 N1089 1.356 . S
C1083 C1082 1.363 . S
C1083 C1086 1.363 . S
N1084 C1086 1.356 . S
N1084 H1096 0.984 . S
N1084 H1097 0.985 . S
N1085 C1087 1.356 . S
N1085 H1090 0.984 . S
N1085 H1091 0.985 . S
C1086 C1080 1.379 . S
C1086 C1083 1.363 . S
C1086 N1084 1.356 . S
C1087 C1081 1.363 . S
C1087 C1082 1.379 . S
C1087 N1085 1.356 . S
N1088 C1080 1.356 . S
N1088 H1094 0.984 . S
N1088 H1095 0.984 . S
N1089 C1082 1.356 . S
N1089 H1092 0.984 . S
N1089 H1093 0.985 . S
H1090 N1085 0.984 . S
H1091 N1085 0.985 . S
H1092 N1089 0.984 . S
H1093 N1089 0.985 . S
H1094 N1088 0.984 . S
H1095 N1088 0.984 . S
H1096 N1084 0.984 . S
H1097 N1084 0.985 . S
C1098 C1099 1.363 1_545 S
C1098 C1104 1.379 . S
C1098 N1106 1.356 . S
C1099 C1098 1.363 1_565 S
C1099 C1105 1.363 . S
C1100 C1101 1.363 . S
C1100 C1105 1.379 1_545 S
C1100 N1107 1.356 . S
C1101 C1100 1.363 . S
C1101 C1104 1.363 . S
N1102 C1104 1.356 . S
N1102 H1114 0.984 . S
N1102 H1115 0.985 . S
N1103 C1105 1.356 . S
N1103 H1108 0.984 . S
N1103 H1109 0.985 . S
C1104 C1098 1.379 . S
C1104 C1101 1.363 . S
C1104 N1102 1.356 . S
C1105 C1099 1.363 . S
C1105 C1100 1.379 1_565 S
C1105 N1103 1.356 . S
N1106 C1098 1.356 . S
N1106 H1112 0.984 . S
N1106 H1113 0.984 . S
N1107 C1100 1.356 . S
N1107 H1110 0.984 . S
N1107 H1111 0.985 1_545 S
H1108 N1103 0.984 . S
H1109 N1103 0.985 . S
H1110 N1107 0.984 . S
H1111 N1107 0.985 1_565 S
H1112 N1106 0.984 . S
H1113 N1106 0.984 . S
H1114 N1102 0.984 . S
H1115 N1102 0.985 . S
C793 C196 1.348 . S
C795 C49 1.348 . S
C811 C145 1.348 . S
C813 C29 1.348 . S
C829 C108 1.348 . S
C831 C233 1.347 . S
C847 C469 1.347 . S
C849 C321 1.347 . S
C865 C409 1.348 . S
C867 C284 1.348 . S
C883 C372 1.347 . S
C885 C489 1.347 . S
C901 C577 1.348 . S
C903 C724 1.348 . S
C919 C557 1.348 . S
C921 C665 1.348 . S
C937 C645 1.347 . S
C939 C761 1.347 . S
C955 C57 1.276 . S
C957 C636 1.276 . S
C973 C137 1.276 . S
C975 C733 1.276 . S
C991 C548 1.276 . S
C993 C225 1.276 . S
C1009 C401 1.276 . S
C1011 C205 1.276 . S
C1027 C20 1.276 . S
C1029 C497 1.276 . S
C1045 C313 1.276 . S
C1047 C117 1.276 . S
C1063 C673 1.276 . S
C1065 C460 1.276 . S
C1081 C293 1.276 . S
C1083 C753 1.276 . S
C1099 C585 1.276 . S
C1101 C381 1.276 . S
