# Generated by pormake.
# Topology wfa, (4)-cn, num edge types: 1
# Building blocks:
#     Node 0, Type 0, BuildingBlock: MUDLON_clean_sbu_0, # of connection points: 4
#     Node 1, Type 0, BuildingBlock: MUDLON_clean_sbu_0, # of connection points: 4
#     Node 2, Type 0, BuildingBlock: MUDLON_clean_sbu_0, # of connection points: 4
#     Node 3, Type 0, BuildingBlock: MUDLON_clean_sbu_0, # of connection points: 4
#     Node 4, Type 0, BuildingBlock: MUDLON_clean_sbu_0, # of connection points: 4
#     Node 5, Type 0, BuildingBlock: MUDLON_clean_sbu_0, # of connection points: 4
#     Node 6, Type 0, BuildingBlock: MUDLON_clean_sbu_0, # of connection points: 4
#     Node 7, Type 0, BuildingBlock: MUDLON_clean_sbu_0, # of connection points: 4
#     Node 8, Type 0, BuildingBlock: MUDLON_clean_sbu_0, # of connection points: 4
#     Node 9, Type 0, BuildingBlock: MUDLON_clean_sbu_0, # of connection points: 4
#     Node 10, Type 0, BuildingBlock: MUDLON_clean_sbu_0, # of connection points: 4
#     Node 11, Type 0, BuildingBlock: MUDLON_clean_sbu_0, # of connection points: 4
#     Node 12, Type 0, BuildingBlock: MUDLON_clean_sbu_0, # of connection points: 4
#     Node 13, Type 0, BuildingBlock: MUDLON_clean_sbu_0, # of connection points: 4
#     Node 14, Type 0, BuildingBlock: MUDLON_clean_sbu_0, # of connection points: 4
#     Node 15, Type 0, BuildingBlock: MUDLON_clean_sbu_0, # of connection points: 4
#     Edge 16, Type (0, 0), BuildingBlock: KIFKEQ_clean_linker_1, # of connection points: 2
#     Edge 17, Type (0, 0), BuildingBlock: KIFKEQ_clean_linker_1, # of connection points: 2
#     Edge 18, Type (0, 0), BuildingBlock: KIFKEQ_clean_linker_1, # of connection points: 2
#     Edge 19, Type (0, 0), BuildingBlock: KIFKEQ_clean_linker_1, # of connection points: 2
#     Edge 20, Type (0, 0), BuildingBlock: KIFKEQ_clean_linker_1, # of connection points: 2
#     Edge 21, Type (0, 0), BuildingBlock: KIFKEQ_clean_linker_1, # of connection points: 2
#     Edge 22, Type (0, 0), BuildingBlock: KIFKEQ_clean_linker_1, # of connection points: 2
#     Edge 23, Type (0, 0), BuildingBlock: KIFKEQ_clean_linker_1, # of connection points: 2
#     Edge 24, Type (0, 0), BuildingBlock: KIFKEQ_clean_linker_1, # of connection points: 2
#     Edge 25, Type (0, 0), BuildingBlock: KIFKEQ_clean_linker_1, # of connection points: 2
#     Edge 26, Type (0, 0), BuildingBlock: KIFKEQ_clean_linker_1, # of connection points: 2
#     Edge 27, Type (0, 0), BuildingBlock: KIFKEQ_clean_linker_1, # of connection points: 2
#     Edge 28, Type (0, 0), BuildingBlock: KIFKEQ_clean_linker_1, # of connection points: 2
#     Edge 29, Type (0, 0), BuildingBlock: KIFKEQ_clean_linker_1, # of connection points: 2
#     Edge 30, Type (0, 0), BuildingBlock: KIFKEQ_clean_linker_1, # of connection points: 2
#     Edge 31, Type (0, 0), BuildingBlock: KIFKEQ_clean_linker_1, # of connection points: 2
#     Edge 32, Type (0, 0), BuildingBlock: KIFKEQ_clean_linker_1, # of connection points: 2
#     Edge 33, Type (0, 0), BuildingBlock: KIFKEQ_clean_linker_1, # of connection points: 2
#     Edge 34, Type (0, 0), BuildingBlock: KIFKEQ_clean_linker_1, # of connection points: 2
#     Edge 35, Type (0, 0), BuildingBlock: KIFKEQ_clean_linker_1, # of connection points: 2
#     Edge 36, Type (0, 0), BuildingBlock: KIFKEQ_clean_linker_1, # of connection points: 2
#     Edge 37, Type (0, 0), BuildingBlock: KIFKEQ_clean_linker_1, # of connection points: 2
#     Edge 38, Type (0, 0), BuildingBlock: KIFKEQ_clean_linker_1, # of connection points: 2
#     Edge 39, Type (0, 0), BuildingBlock: KIFKEQ_clean_linker_1, # of connection points: 2
#     Edge 40, Type (0, 0), BuildingBlock: KIFKEQ_clean_linker_1, # of connection points: 2
#     Edge 41, Type (0, 0), BuildingBlock: KIFKEQ_clean_linker_1, # of connection points: 2
#     Edge 42, Type (0, 0), BuildingBlock: KIFKEQ_clean_linker_1, # of connection points: 2
#     Edge 43, Type (0, 0), BuildingBlock: KIFKEQ_clean_linker_1, # of connection points: 2
#     Edge 44, Type (0, 0), BuildingBlock: KIFKEQ_clean_linker_1, # of connection points: 2
#     Edge 45, Type (0, 0), BuildingBlock: KIFKEQ_clean_linker_1, # of connection points: 2
#     Edge 46, Type (0, 0), BuildingBlock: KIFKEQ_clean_linker_1, # of connection points: 2
#     Edge 47, Type (0, 0), BuildingBlock: KIFKEQ_clean_linker_1, # of connection points: 2
# Relax obj value: 0.200
# Max RMSD: 0.234
# Mean RMSD: 0.228
data_MOF--net-wfa--node1-MUDLON_clean_sbu_0--edge1-KIFKEQ_clean_linker_1
_symmetry_space_group_name_H-M    P1
_symmetry_Int_Tables_number       1
_symmetry_cell_setting            triclinic
loop_
_symmetry_equiv_pos_as_xyz
'x, y, z'
_cell_length_a     49.270412
_cell_length_b     49.35905
_cell_length_c     25.255245
_cell_angle_alpha  89.53111
_cell_angle_beta   89.6739
_cell_angle_gamma 89.840668
loop_
_atom_site_label
_atom_site_type_symbol
_atom_site_fract_x
_atom_site_fract_y
_atom_site_fract_z
_atom_type_partial_charge
Mg0 Mg 0.67708 0.03996 0.067 0.0
C1 C 0.69214 0.02543 0.17765 0.0
O2 O 0.67265 0.04322 0.18532 0.0
C3 C 0.61825 0.01787 0.08225 0.0
O4 O 0.62827 1.00501 0.12352 0.0
C5 C 0.72091 0.02037 0.99096 0.0
O6 O 0.7291 1.00774 0.034 0.0
O7 O 0.69994 0.03545 0.99338 0.0
O8 O 0.69671 0.01731 0.13072 0.0
O9 O 0.67967 0.08074 0.09771 0.0
C10 C 0.65963 0.09695 0.09601 0.0
O11 O 0.63853 0.09067 0.06705 0.0
O12 O 0.63394 0.03214 0.05325 0.0
Mg13 Mg 0.50356 0.66908 0.06522 0.0
C14 C 0.46832 0.65589 0.15141 0.0
O15 O 0.49333 0.6505 0.16607 0.0
C16 C 0.51984 0.7062 0.97468 0.0
O17 O 0.5384 0.71279 1.00939 0.0
C18 C 0.50164 0.61023 0.0443 0.0
O19 O 0.4768 0.61858 0.0346 0.0
O20 O 0.51919 0.62764 0.05832 0.0
O21 O 0.46447 0.66467 0.10453 0.0
O22 O 0.52367 0.69539 0.12183 0.0
C23 C 0.51317 0.71894 0.12489 0.0
O24 O 0.49422 0.72581 0.09088 0.0
O25 O 0.50218 0.68844 0.98721 0.0
Mg26 Mg 0.84803 0.49822 0.06152 0.0
C27 C 0.83162 0.51266 0.17383 0.0
O28 O 0.85467 0.50024 0.18376 0.0
C29 C 0.90821 0.50036 0.0821 0.0
O30 O 0.90027 0.48258 0.1179 0.0
C31 C 0.80274 0.514 0.98618 0.0
O32 O 0.79205 0.52265 0.03073 0.0
O33 O 0.82603 0.50276 0.98712 0.0
O34 O 0.82498 0.5169 0.12584 0.0
O35 O 0.85169 0.45599 0.08501 0.0
C36 C 0.83632 0.44537 0.12004 0.0
O37 O 0.81408 0.45816 0.1343 0.0
O38 O 0.89032 0.51181 0.0532 0.0
Mg39 Mg 0.04399 0.85352 0.05879 0.0
C40 C 0.09253 0.84159 0.1273 0.0
O41 O 0.08007 0.81819 0.1317 0.0
C42 C 0.02462 0.83089 0.95514 0.0
O43 O 1.00485 0.84795 0.96578 0.0
C44 C 0.04651 0.9118 0.02643 0.0
O45 O 0.07155 0.90356 0.01818 0.0
O46 O 0.02908 0.89464 0.043 0.0
O47 O 0.08369 0.85899 0.09414 0.0
O48 O 0.02227 0.83257 0.12251 0.0
C49 C 0.0195 0.80695 0.12116 0.0
O50 O 0.02593 0.79415 0.07742 0.0
O51 O 0.04446 0.82909 0.98707 0.0
Mg52 Mg 0.17866 0.99869 0.46516 0.0
C53 C 0.19147 1.01395 0.35446 0.0
O54 O 0.16817 1.0013 0.34986 0.0
C55 C 0.12248 1.0058 0.51375 0.0
O56 O 0.13422 0.99209 0.55216 0.0
C57 C 0.20165 0.02325 0.5653 0.0
O58 O 0.18588 0.04337 0.55028 0.0
O59 O 0.20219 1.00175 0.53784 0.0
O60 O 0.20031 0.0187 0.40069 0.0
O61 O 0.17824 0.95781 0.43411 0.0
C62 C 0.15724 0.94293 0.43408 0.0
O63 O 0.13575 0.95051 0.46119 0.0
O64 O 0.13654 1.01244 0.47323 0.0
Mg65 Mg 0.53833 0.17142 0.46712 0.0
C66 C 0.58821 0.18869 0.40674 0.0
O67 O 0.57417 0.2113 0.40366 0.0
C68 C 0.53932 0.18821 0.58359 0.0
O69 O 0.54895 0.16355 0.58981 0.0
C70 C 0.54449 0.1121 0.49235 0.0
O71 O 0.56966 0.12058 0.4961 0.0
O72 O 0.52598 0.12931 0.4814 0.0
O73 O 0.57961 0.16973 0.43678 0.0
O74 O 0.5176 0.19032 0.40019 0.0
C75 C 0.512 0.2155 0.40104 0.0
O76 O 0.51488 0.22872 0.44559 0.0
O77 O 0.53364 0.19661 0.53722 0.0
Mg78 Mg 0.34829 0.53324 0.47106 0.0
C79 C 0.33195 0.51901 0.359 0.0
O80 O 0.35493 0.53147 0.34872 0.0
C81 C 0.40854 0.53011 0.4501 0.0
O82 O 0.40092 0.54755 0.41351 0.0
C83 C 0.30362 0.51634 0.54778 0.0
O84 O 0.29386 0.50598 0.50411 0.0
O85 O 0.32606 0.52905 0.54575 0.0
O86 O 0.32533 0.51464 0.4071 0.0
O87 O 0.35232 0.57536 0.44696 0.0
C88 C 0.33682 0.58606 0.41249 0.0
O89 O 0.3144 0.5735 0.39938 0.0
O90 O 0.39043 0.51922 0.47953 0.0
Mg91 Mg 1.00665 0.35715 0.45316 0.0
C92 C 0.96971 0.37509 0.37421 0.0
O93 O 0.99443 0.3816 0.35902 0.0
C94 C 0.99943 0.3398 0.57021 0.0
O95 O 0.98789 0.36369 0.57511 0.0
C96 C 1.00564 0.41548 0.48024 0.0
O97 O 0.98057 0.40753 0.48896 0.0
O98 O 0.02302 0.39796 0.46503 0.0
O99 O 0.96663 0.36384 0.41935 0.0
O100 O 0.02473 0.33282 0.39015 0.0
C101 C 1.0088 0.31349 0.37855 0.0
O102 O 0.98689 0.30997 0.40768 0.0
O103 O 1.00802 0.33243 0.525 0.0
Mg104 Mg 0.36231 1.00763 0.96045 0.0
C105 C 0.31796 0.03247 0.89262 0.0
O106 O 0.3049 0.03125 0.93805 0.0
C107 C 0.41514 1.01312 0.01801 0.0
O108 O 0.39997 1.00109 0.05408 0.0
C109 C 0.31806 0.99657 0.04177 0.0
O110 O 0.31388 0.97608 1.00998 0.0
O111 O 0.33732 1.01289 0.03127 0.0
O112 O 0.34307 0.02635 0.89141 0.0
O113 O 0.36608 0.96563 0.93701 0.0
C114 C 0.35045 0.95573 0.90225 0.0
O115 O 0.32909 0.96969 0.88716 0.0
O116 O 0.40434 0.01998 0.97417 0.0
Mg117 Mg 0.54619 0.35334 0.96853 0.0
C118 C 0.52303 0.30689 0.90584 0.0
O119 O 0.52622 0.29462 0.95175 0.0
C120 C 0.54421 0.40979 1.01095 0.0
O121 O 0.56512 0.39953 0.03629 0.0
C122 C 0.5218 0.33041 0.06943 0.0
O123 O 0.50226 0.3471 0.05534 0.0
O124 O 0.54312 0.3291 0.04089 0.0
O125 O 0.52746 0.33224 0.90255 0.0
O126 O 0.58772 0.35825 0.94112 0.0
C127 C 0.59818 0.34064 0.9106 0.0
O128 O 0.58529 0.31772 0.90337 0.0
O129 O 0.53099 0.39458 0.97985 0.0
Mg130 Mg 0.16396 0.53911 0.96721 0.0
C131 C 0.20259 0.5091 0.89591 0.0
O132 O 0.21736 0.51079 0.9389 0.0
C133 C 0.1104 0.51187 1.00714 0.0
O134 O 0.12594 0.49091 0.01811 0.0
C135 C 0.18603 0.53309 0.08142 0.0
O136 O 0.16116 0.5395 0.09565 0.0
O137 O 0.19198 0.53181 0.03245 0.0
O138 O 0.17793 0.51683 0.89787 0.0
O139 O 0.16628 0.58049 0.93784 0.0
C140 C 0.18572 0.58742 0.90728 0.0
O141 O 0.20642 0.57087 0.90155 0.0
O142 O 0.12102 0.53302 0.98683 0.0
Mg143 Mg 0.99823 0.16902 0.95426 0.0
C144 C 1.01519 0.21937 0.89365 0.0
O145 O 1.00658 0.23043 0.93782 0.0
C146 C 1.00214 0.11203 0.99261 0.0
O147 O 0.98168 0.1217 0.02025 0.0
C148 C 0.02134 0.20226 0.04461 0.0
O149 O 0.04249 0.20307 1.01273 0.0
O150 O 1.00022 0.18943 0.03052 0.0
O151 O 1.01601 0.19364 0.89059 0.0
O152 O 0.95673 0.16314 0.92777 0.0
C153 C 0.94488 0.18099 0.89948 0.0
O154 O 0.95632 0.20478 0.89305 0.0
O155 O 1.01464 0.12791 0.96086 0.0
Mg156 Mg 0.86131 0.03195 0.56816 0.0
C157 C 0.81949 1.00708 0.6411 0.0
O158 O 0.80482 1.01045 0.59826 0.0
C159 C 0.91905 0.0368 0.53053 0.0
O160 O 0.90934 0.06087 0.51841 0.0
C161 C 0.83874 0.02584 0.45428 0.0
O162 O 0.86428 0.02779 0.43958 0.0
O163 O 0.83267 0.02722 0.50321 0.0
O164 O 0.84481 1.012 0.63863 0.0
O165 O 0.86407 0.07358 0.59469 0.0
C166 C 0.84608 0.08281 0.62611 0.0
O167 O 0.82395 0.06864 0.63458 0.0
O168 O 0.90302 0.01923 0.55054 0.0
Mg169 Mg 0.5022 0.8538 0.55983 0.0
C170 C 0.50918 0.80513 0.62345 0.0
O171 O 0.48789 0.80077 0.5936 0.0
C172 C 0.50429 0.91106 0.52345 0.0
O173 O 0.48207 0.90187 0.50144 0.0
C174 C 0.51567 0.83852 0.44607 0.0
O175 O 0.53181 0.85954 0.45019 0.0
O176 O 0.50025 0.83227 0.48485 0.0
O177 O 0.52276 0.82672 0.61549 0.0
O178 O 0.46267 0.85971 0.5976 0.0
C179 C 0.46354 0.85951 0.64799 0.0
O180 O 0.4871 0.85661 0.67141 0.0
O181 O 0.51873 0.89468 0.55062 0.0
Mg182 Mg 0.66345 0.49177 0.5684 0.0
C183 C 0.70173 0.52131 0.64016 0.0
O184 O 0.71657 0.52023 0.59683 0.0
C185 C 0.61021 0.5185 0.52627 0.0
O186 O 0.62609 0.53852 0.51129 0.0
C187 C 0.68575 0.49763 0.45404 0.0
O188 O 0.6613 0.48987 0.44036 0.0
O189 O 0.6914 0.49982 0.50287 0.0
O190 O 0.67722 0.5133 0.63839 0.0
O191 O 0.66596 0.45004 0.59566 0.0
C192 C 0.68521 0.44277 0.62604 0.0
O193 O 0.70566 0.45936 0.63298 0.0
O194 O 0.62051 0.49809 0.54986 0.0
Mg195 Mg 0.04922 0.67217 0.55842 0.0
C196 C 0.02547 0.718 0.62324 0.0
O197 O 0.02981 0.73112 0.57853 0.0
C198 C 0.04834 0.61552 0.51593 0.0
O199 O 0.0693 0.62579 0.4905 0.0
C200 C 0.02651 0.69313 0.4545 0.0
O201 O 1.00855 0.67422 0.46534 0.0
O202 O 0.04616 0.69659 0.48621 0.0
O203 O 0.02956 0.69254 0.62485 0.0
O204 O 0.09061 0.66773 0.58617 0.0
C205 C 0.10065 0.68569 0.61608 0.0
O206 O 0.08753 0.70866 0.62215 0.0
O207 O 0.03479 0.63076 0.54689 0.0
H208 H 0.62176 0.14457 0.4013 0.0
H209 H 0.60004 0.21806 0.31732 0.0
H210 H 0.64604 0.12863 0.32326 0.0
H211 H 0.62443 0.20206 0.23927 0.0
H212 H 0.69298 0.10618 0.18028 0.0
H213 H 0.68319 0.13456 0.25669 0.0
H214 H 0.61075 0.16431 0.18001 0.0
H215 H 0.62049 0.13605 0.10359 0.0
C216 C 0.62285 0.15768 0.36675 0.0
C217 C 0.6086 0.18238 0.3653 0.0
C218 C 0.63688 0.1486 0.32202 0.0
C219 C 0.63682 0.16395 0.27487 0.0
C220 C 0.62451 0.18966 0.27485 0.0
C221 C 0.61068 0.19887 0.31975 0.0
C222 C 0.67536 0.11934 0.17902 0.0
C223 C 0.65728 0.11858 0.13609 0.0
C224 C 0.66971 0.13549 0.22298 0.0
C225 C 0.64607 0.15143 0.22462 0.0
C226 C 0.62924 0.15239 0.17984 0.0
C227 C 0.63474 0.13607 0.13609 0.0
H228 H 0.32647 0.59318 0.30735 0.0
H229 H 0.37469 0.62422 0.43544 0.0
H230 H 0.35564 0.61636 0.24353 0.0
H231 H 0.40316 0.64849 0.37178 0.0
H232 H 0.47249 0.63822 0.25278 0.0
H233 H 0.43667 0.62905 0.31578 0.0
H234 H 0.37692 0.65535 0.20154 0.0
H235 H 0.41337 0.66401 0.13696 0.0
C236 C 0.34258 0.60595 0.32201 0.0
C237 C 0.3486 0.60658 0.37634 0.0
C238 C 0.35934 0.61927 0.28531 0.0
C239 C 0.3822 0.6337 0.30243 0.0
C240 C 0.38622 0.63684 0.35719 0.0
C241 C 0.36977 0.62317 0.39374 0.0
C242 C 0.45178 0.64227 0.24088 0.0
C243 C 0.44581 0.65169 0.18962 0.0
C244 C 0.43115 0.63732 0.27747 0.0
C245 C 0.40384 0.64177 0.26413 0.0
C246 C 0.39775 0.65165 0.21305 0.0
C247 C 0.41859 0.65662 0.17611 0.0
H248 H 0.87452 0.40752 0.09536 0.0
H249 H 0.82589 0.43739 0.22527 0.0
H250 H 0.90354 0.38341 0.15789 0.0
H251 H 0.8555 0.41415 0.28794 0.0
H252 H 0.91509 0.36519 0.39019 0.0
H253 H 0.87806 0.37406 0.32752 0.0
H254 H 0.93631 0.40503 0.21382 0.0
H255 H 0.97269 0.39595 0.27498 0.0
C256 C 0.86959 0.40829 0.13719 0.0
C257 C 0.84821 0.42462 0.15545 0.0
C258 C 0.88632 0.39468 0.17307 0.0
C259 C 0.8823 0.39754 0.22795 0.0
C260 C 0.85918 0.41153 0.24598 0.0
C261 C 0.84218 0.42487 0.20996 0.0
C262 C 0.91985 0.37373 0.35162 0.0
C263 C 0.94681 0.37994 0.33766 0.0
C264 C 0.8987 0.37877 0.31579 0.0
C265 C 0.90426 0.38987 0.26534 0.0
C266 C 0.93128 0.39579 0.25166 0.0
C267 C 0.9522 0.39088 0.2872 0.0
H268 H 0.12328 0.88762 0.12997 0.0
H269 H 0.10336 0.81578 0.22101 0.0
H270 H 0.14519 0.90685 0.20733 0.0
H271 H 0.12524 0.83514 0.29835 0.0
H272 H 0.19109 0.93263 0.35032 0.0
H273 H 0.18221 0.90295 0.27562 0.0
H274 H 0.10899 0.87474 0.35263 0.0
H275 H 0.11774 0.90443 0.42729 0.0
C276 C 0.12422 0.87562 0.16603 0.0
C277 C 0.11127 0.85033 0.16946 0.0
C278 C 0.13687 0.8866 0.21034 0.0
C279 C 0.13663 0.87261 0.25906 0.0
C280 C 0.12545 0.84648 0.26144 0.0
C281 C 0.11306 0.83536 0.21698 0.0
C282 C 0.17345 0.91959 0.35201 0.0
C283 C 0.15495 0.92106 0.39458 0.0
C284 C 0.16833 0.90271 0.30903 0.0
C285 C 0.14483 0.88669 0.30811 0.0
C286 C 0.12739 0.8867 0.35238 0.0
C287 C 0.13233 0.90381 0.39507 0.0
H288 H 0.32751 0.93505 0.81263 0.0
H289 H 0.39543 0.92446 0.91842 0.0
H290 H 0.34882 0.9042 0.74971 0.0
H291 H 0.41694 0.89448 0.85539 0.0
H292 H 0.45284 0.83818 0.7446 0.0
H293 H 0.4188 0.85347 0.80803 0.0
H294 H 0.38696 0.90912 0.69057 0.0
H295 H 0.42038 0.89274 0.62644 0.0
C296 C 0.34669 0.9257 0.82303 0.0
C297 C 0.35998 0.93254 0.87022 0.0
C298 C 0.35899 0.90819 0.78673 0.0
C299 C 0.38478 0.89713 0.79698 0.0
C300 C 0.39697 0.90235 0.84613 0.0
C301 C 0.38469 0.91975 0.88234 0.0
C302 C 0.43805 0.85318 0.73204 0.0
C303 C 0.43939 0.86462 0.68104 0.0
C304 C 0.41866 0.86205 0.76842 0.0
C305 C 0.40055 0.88301 0.75493 0.0
C306 C 0.40048 0.89286 0.70236 0.0
C307 C 0.41967 0.88358 0.66555 0.0
H308 H 0.64686 0.40299 0.62085 0.0
H309 H 0.71371 0.43091 0.7159 0.0
H310 H 0.63327 0.37222 0.69196 0.0
H311 H 0.70005 0.40002 0.78705 0.0
H312 H 0.63039 0.38555 0.91552 0.0
H313 H 0.6588 0.40398 0.84479 0.0
H314 H 0.6441 0.33277 0.75108 0.0
H315 H 0.61559 0.31426 0.82184 0.0
C316 C 0.65911 0.40202 0.6563 0.0
C317 C 0.68109 0.4197 0.663 0.0
C318 C 0.6514 0.38426 0.69701 0.0
C319 C 0.66542 0.38395 0.74536 0.0
C320 C 0.6887 0.40007 0.75044 0.0
C321 C 0.69658 0.41765 0.70951 0.0
C322 C 0.63381 0.37347 0.88047 0.0
C323 C 0.62038 0.34865 0.874 0.0
C324 C 0.65022 0.38397 0.83999 0.0
C325 C 0.65341 0.36994 0.79211 0.0
C326 C 0.64174 0.34415 0.78732 0.0
C327 C 0.62551 0.33352 0.82802 0.0
H328 H 0.13309 0.64066 0.61388 0.0
H329 H 0.11704 0.71314 0.70384 0.0
H330 H 0.16084 0.62309 0.68595 0.0
H331 H 0.14488 0.69548 0.77593 0.0
H332 H 0.14689 0.62707 0.90973 0.0
H333 H 0.13367 0.65677 0.8368 0.0
H334 H 0.20154 0.62782 0.74406 0.0
H335 H 0.21483 0.59802 0.81703 0.0
C336 C 0.13609 0.65318 0.64838 0.0
C337 C 0.12251 0.6781 0.65342 0.0
C338 C 0.15212 0.64316 0.68964 0.0
C339 C 0.15476 0.65779 0.73688 0.0
C340 C 0.14293 0.68364 0.74022 0.0
C341 C 0.1271 0.69379 0.69875 0.0
C342 C 0.15944 0.62757 0.87437 0.0
C343 C 0.18166 0.60989 0.86893 0.0
C344 C 0.15195 0.64471 0.83262 0.0
C345 C 0.16641 0.64438 0.78446 0.0
C346 C 0.18986 0.62826 0.78052 0.0
C347 C 0.19752 0.6113 0.82249 0.0
H348 H 0.92624 0.20759 0.81163 0.0
H349 H 0.91305 0.13585 0.90753 0.0
H350 H 0.89609 0.18966 0.7441 0.0
H351 H 0.88274 0.11813 0.84014 0.0
H352 H 0.88754 0.11924 0.61601 0.0
H353 H 0.90506 0.14873 0.68484 0.0
H354 H 0.83886 0.12545 0.7881 0.0
H355 H 0.82111 0.09609 0.7192 0.0
C356 C 0.91634 0.18835 0.81903 0.0
C357 C 0.92228 0.17296 0.86469 0.0
C358 C 0.89918 0.17807 0.78019 0.0
C359 C 0.88727 0.15245 0.78671 0.0
C360 C 0.89151 0.13804 0.83421 0.0
C361 C 0.90896 0.14812 0.87271 0.0
C362 C 0.87629 0.12098 0.65282 0.0
C363 C 0.85313 0.1051 0.66233 0.0
C364 C 0.88626 0.13796 0.69217 0.0
C365 C 0.87343 0.13914 0.74197 0.0
C366 C 0.84924 0.12472 0.7502 0.0
C367 C 0.83904 0.10803 0.71058 0.0
H368 H 0.70792 0.04117 0.89349 0.0
H369 H 0.76726 0.991 0.97318 0.0
H370 H 0.73205 0.03485 0.80999 0.0
H371 H 0.79118 0.9844 0.88936 0.0
H372 H 0.8422 1.00867 0.74 0.0
H373 H 0.81843 1.01028 0.82496 0.0
H374 H 0.74196 0.99964 0.74513 0.0
H375 H 0.76559 0.99839 0.66023 0.0
C376 C 0.72606 0.02873 0.89321 0.0
C377 C 0.73564 0.01662 0.9401 0.0
C378 C 0.73979 0.02493 0.84522 0.0
C379 C 0.76348 1.00898 0.8429 0.0
C380 C 0.77312 0.99695 0.88983 0.0
C381 C 0.75933 1.00067 0.93784 0.0
C382 C 0.82036 1.0062 0.74062 0.0
C383 C 0.8058 1.00357 0.69319 0.0
C384 C 0.80673 1.00712 0.78938 0.0
C385 C 0.77824 1.00545 0.79179 0.0
C386 C 0.76385 1.00154 0.74458 0.0
C387 C 0.77746 1.00059 0.69591 0.0
H388 H 0.55317 0.80388 0.69017 0.0
H389 H 0.4742 0.76845 0.66609 0.0
H390 H 0.55764 0.77819 0.77283 0.0
H391 H 0.47781 0.74423 0.74928 0.0
H392 H 0.49675 0.68773 0.88372 0.0
H393 H 0.49714 0.70919 0.79658 0.0
H394 H 0.54197 0.77672 0.85998 0.0
H395 H 0.54288 0.75434 0.94613 0.0
C396 C 0.53683 0.79056 0.70244 0.0
C397 C 0.51342 0.78814 0.67139 0.0
C398 C 0.53922 0.776 0.75014 0.0
C399 C 0.51804 0.75907 0.76829 0.0
C400 C 0.49485 0.75649 0.73652 0.0
C401 C 0.4927 0.7706 0.68864 0.0
C402 C 0.50673 0.70713 0.87887 0.0
C403 C 0.51969 0.71937 0.9218 0.0
C404 C 0.50687 0.71958 0.8289 0.0
C405 C 0.51947 0.74491 0.82081 0.0
C406 C 0.5325 0.75705 0.86402 0.0
C407 C 0.53281 0.74432 0.91371 0.0
H408 H 0.81888 0.49895 0.88662 0.0
H409 H 0.75259 0.53669 0.97136 0.0
H410 H 0.79386 0.50392 0.8041 0.0
H411 H 0.72778 0.54209 0.88865 0.0
H412 H 0.68022 0.51444 0.73981 0.0
H413 H 0.70454 0.51451 0.82364 0.0
H414 H 0.77802 0.53802 0.74147 0.0
H415 H 0.75386 0.53751 0.65761 0.0
C416 C 0.79904 0.50844 0.88765 0.0
C417 C 0.78775 0.51736 0.9357 0.0
C418 C 0.78476 0.51149 0.84023 0.0
C419 C 0.75881 0.52351 0.83965 0.0
C420 C 0.74758 0.53251 0.8877 0.0
C421 C 0.76189 0.52951 0.93512 0.0
C422 C 0.70144 0.5201 0.7397 0.0
C423 C 0.7151 0.52582 0.69187 0.0
C424 C 0.71541 0.52015 0.78784 0.0
C425 C 0.74335 0.52593 0.78926 0.0
C426 C 0.75666 0.53292 0.7417 0.0
C427 C 0.74271 0.53286 0.69363 0.0
H428 H 0.05875 0.78943 0.92653 0.0
H429 H 0.98753 0.83339 0.87518 0.0
H430 H 0.05641 0.76134 0.84749 0.0
H431 H 0.98511 0.80519 0.79652 0.0
H432 H 1.01259 0.7716 0.63329 0.0
H433 H 1.01124 0.79823 0.71417 0.0
H434 H 0.02763 0.72609 0.80656 0.0
H435 H 0.02918 0.69941 0.72556 0.0
C436 C 0.04258 0.79309 0.89847 0.0
C437 C 0.02339 0.81374 0.90717 0.0
C438 C 0.04111 0.77684 0.85336 0.0
C439 C 0.02053 0.78098 0.81572 0.0
C440 C 1.00135 0.80162 0.82448 0.0
C441 C 1.0027 0.81773 0.86972 0.0
C442 C 1.01555 0.76132 0.67089 0.0
C443 C 0.02102 0.73336 0.67286 0.0
C444 C 1.01471 0.7766 0.7173 0.0
C445 C 0.01953 0.76433 0.76683 0.0
C446 C 0.0242 0.73621 0.76898 0.0
C447 C 0.02481 0.72088 0.72256 0.0
H448 H 0.20234 0.06471 0.63659 0.0
H449 H 0.24083 0.98818 0.60102 0.0
H450 H 0.23157 0.06965 0.71358 0.0
H451 H 0.26991 0.99307 0.67827 0.0
H452 H 0.33514 0.02216 0.79128 0.0
H453 H 0.30763 0.02138 0.71115 0.0
H454 H 0.23789 0.04808 0.80115 0.0
H455 H 0.26536 0.04906 0.88111 0.0
C456 C 0.217 0.04891 0.64519 0.0
C457 C 0.21918 0.02601 0.61261 0.0
C458 C 0.23371 0.05172 0.68945 0.0
C459 C 0.25315 0.03181 0.70201 0.0
C460 C 0.25541 1.00897 0.6693 0.0
C461 C 0.23857 1.00606 0.62525 0.0
C462 C 0.31406 0.02833 0.79383 0.0
C463 C 0.30246 0.03566 0.84269 0.0
C464 C 0.29823 0.0276 0.74798 0.0
C465 C 0.2705 0.03443 0.74982 0.0
C466 C 0.25921 0.04285 0.79825 0.0
C467 C 0.27497 0.04336 0.84414 0.0
H468 H 0.51577 0.2386 0.58581 0.0
H469 H 0.55251 0.17789 0.68683 0.0
H470 H 0.50804 0.2674 0.66251 0.0
H471 H 0.54552 0.20692 0.76312 0.0
H472 H 0.51002 0.25328 0.8989 0.0
H473 H 0.5114 0.22489 0.82048 0.0
H474 H 0.53207 0.29478 0.72444 0.0
H475 H 0.5299 0.32328 0.80266 0.0
C476 C 0.5223 0.23143 0.62434 0.0
C477 C 0.53477 0.2059 0.63011 0.0
C478 C 0.51796 0.24801 0.66834 0.0
C479 C 0.52605 0.23952 0.7192 0.0
C480 C 0.53852 0.21397 0.72483 0.0
C481 C 0.54276 0.19736 0.68091 0.0
C482 C 0.51443 0.26268 0.86091 0.0
C483 C 0.51994 0.29055 0.85717 0.0
C484 C 0.51548 0.24634 0.81595 0.0
C485 C 0.52226 0.25741 0.76609 0.0
C486 C 0.52659 0.28553 0.76201 0.0
C487 C 0.52537 0.30191 0.80697 0.0
H488 H 0.25466 0.49157 0.56454 0.0
H489 H 0.31858 0.53368 0.64617 0.0
H490 H 0.22992 0.4862 0.64789 0.0
H491 H 0.29364 0.52865 0.72931 0.0
H492 H 0.25535 0.49459 0.87791 0.0
H493 H 0.27956 0.49416 0.79357 0.0
H494 H 0.20516 0.5139 0.7121 0.0
H495 H 0.18079 0.51398 0.79647 0.0
C496 C 0.26345 0.49971 0.60023 0.0
C497 C 0.28863 0.51308 0.5986 0.0
C498 C 0.24918 0.49671 0.648 0.0
C499 C 0.2598 0.50691 0.69536 0.0
C500 C 0.28505 0.52017 0.69373 0.0
C501 C 0.29928 0.52324 0.64596 0.0
C502 C 0.24402 0.49842 0.84197 0.0
C503 C 0.21612 0.50445 0.84408 0.0
C504 C 0.25798 0.49841 0.79363 0.0
C505 C 0.24441 0.50438 0.74612 0.0
C506 C 0.21624 0.50908 0.7479 0.0
C507 C 0.20225 0.50913 0.79633 0.0
H508 H 0.97975 0.34691 0.67071 0.0
H509 H 0.02799 0.2922 0.57603 0.0
H510 H 0.98626 0.31767 0.74772 0.0
H511 H 0.03527 0.26339 0.65347 0.0
H512 H 1.01526 0.20346 0.78991 0.0
H513 H 1.01261 0.23247 0.71152 0.0
H514 H 0.01927 0.30324 0.81022 0.0
H515 H 0.021 0.27423 0.88857 0.0
C516 C 0.99189 0.32872 0.66637 0.0
C517 C 1.00328 0.32191 0.61713 0.0
C518 C 0.99584 0.31203 0.71072 0.0
C519 C 1.01147 0.28817 0.70709 0.0
C520 C 0.02287 0.28139 0.65774 0.0
C521 C 0.01877 0.29801 0.61331 0.0
C522 C 0.01662 0.22519 0.79477 0.0
C523 C 0.01821 0.23653 0.84553 0.0
C524 C 1.01511 0.24188 0.74976 0.0
C525 C 1.01535 0.27029 0.75443 0.0
C526 C 0.01833 0.28151 0.8051 0.0
C527 C 0.01961 0.26485 0.85006 0.0
H528 H 0.17812 1.00629 0.25106 0.0
H529 H 0.2452 0.02866 0.35096 0.0
H530 H 0.20857 1.00456 0.175 0.0
H531 H 0.27586 0.02639 0.27476 0.0
H532 H 0.3199 0.03761 0.11447 0.0
H533 H 0.28879 0.04557 0.18852 0.0
H534 H 0.24403 0.9737 0.14726 0.0
H535 H 0.27467 0.96604 0.07306 0.0
C536 C 0.19932 1.01116 0.25673 0.0
C537 C 0.20923 0.01739 0.30725 0.0
C538 C 0.21685 1.00994 0.21313 0.0
C539 C 0.24477 1.01485 0.2189 0.0
C540 C 0.25446 0.02256 0.26885 0.0
C541 C 0.23687 0.02384 0.31258 0.0
C542 C 0.30341 0.02352 0.12124 0.0
C543 C 0.29976 1.0012 0.08771 0.0
C544 C 0.28563 0.02805 0.16379 0.0
C545 C 0.26376 1.01041 0.17363 0.0
C546 C 0.26031 0.98802 0.14026 0.0
C547 C 0.27805 0.98348 0.09789 0.0
H548 H 0.51984 0.19753 0.29968 0.0
H549 H 0.4968 0.26844 0.38866 0.0
H550 H 0.52046 0.22462 0.21839 0.0
H551 H 0.49764 0.29552 0.30747 0.0
H552 H 0.48085 0.3314 0.14301 0.0
H553 H 0.47536 0.30249 0.22116 0.0
H554 H 0.54999 0.26092 0.18222 0.0
H555 H 0.55541 0.28966 0.10379 0.0
C556 C 0.51444 0.21878 0.30183 0.0
C557 C 0.50829 0.23082 0.35077 0.0
C558 C 0.51509 0.23437 0.25528 0.0
C559 C 0.50936 0.26229 0.2565 0.0
C560 C 0.502 0.27404 0.30506 0.0
C561 C 0.50157 0.25851 0.35166 0.0
C562 C 0.49609 0.31608 0.15103 0.0
C563 C 0.51862 0.31291 0.11715 0.0
C564 C 0.49297 0.29956 0.19595 0.0
C565 C 0.51219 0.27934 0.20787 0.0
C566 C 0.53462 0.27605 0.17379 0.0
C567 C 0.53784 0.29269 0.12905 0.0
H568 H 0.28061 0.49785 0.36687 0.0
H569 H 0.33691 0.53359 0.25484 0.0
H570 H 0.24536 0.49828 0.29932 0.0
H571 H 0.30163 0.53465 0.18801 0.0
H572 H 0.23827 0.51597 0.06521 0.0
H573 H 0.27352 0.50851 0.13098 0.0
H574 H 0.21739 0.53145 0.2549 0.0
H575 H 0.1819 0.53823 0.18918 0.0
C576 C 0.28558 0.5055 0.32769 0.0
C577 C 0.31162 0.5157 0.31637 0.0
C578 C 0.26528 0.50599 0.28908 0.0
C579 C 0.27051 0.51672 0.23824 0.0
C580 C 0.29687 0.52596 0.22645 0.0
C581 C 0.31715 0.52541 0.26495 0.0
C582 C 0.23338 0.51931 0.10651 0.0
C583 C 0.20724 0.52784 0.12184 0.0
C584 C 0.25367 0.51513 0.14426 0.0
C585 C 0.24841 0.51946 0.19835 0.0
C586 C 0.22212 0.52755 0.21374 0.0
C587 C 0.20178 0.53165 0.17596 0.0
H588 H 0.99001 0.19322 0.13228 0.0
H589 H 0.05333 0.24517 0.07105 0.0
H590 H 0.98937 0.21858 0.21437 0.0
H591 H 0.05168 0.27175 0.15198 0.0
H592 H 0.05572 0.30374 0.32148 0.0
H593 H 0.0606 0.27537 0.24279 0.0
H594 H 0.97434 0.25933 0.24705 0.0
H595 H 0.96998 0.28608 0.3263 0.0
C596 C 1.00366 0.21023 0.13629 0.0
C597 C 0.02158 0.21728 0.09512 0.0
C598 C 1.0032 0.22498 0.18329 0.0
C599 C 0.0202 0.24763 0.18993 0.0
C600 C 0.0385 0.25433 0.14888 0.0
C601 C 0.03933 0.23919 0.10223 0.0
C602 C 0.03795 0.29394 0.30556 0.0
C603 C 1.01256 0.29689 0.33045 0.0
C604 C 0.04065 0.27779 0.26026 0.0
C605 C 0.01791 0.26467 0.23849 0.0
C606 C 0.99252 0.26825 0.2632 0.0
C607 C 0.98996 0.28386 0.30868 0.0
H608 H 0.68921 0.04209 0.2802 0.0
H609 H 0.73985 0.99648 0.17263 0.0
H610 H 0.72433 0.03948 0.34707 0.0
H611 H 0.77492 0.99322 0.24044 0.0
H612 H 0.84337 0.02716 0.34602 0.0
H613 H 0.80723 0.02315 0.28098 0.0
H614 H 0.74885 1.01141 0.40734 0.0
H615 H 0.78481 0.01618 0.47228 0.0
C616 C 0.70763 0.03098 0.27115 0.0
C617 C 0.71172 0.01963 0.22083 0.0
C618 C 0.72781 0.02939 0.30972 0.0
C619 C 0.75264 0.01632 0.29917 0.0
C620 C 0.75625 1.00386 0.24965 0.0
C621 C 0.73602 1.00548 0.21093 0.0
C622 C 0.82284 0.02363 0.35992 0.0
C623 C 0.817 0.02224 0.41443 0.0
C624 C 0.8021 0.0211 0.32256 0.0
C625 C 0.77502 0.017 0.33878 0.0
C626 C 0.76935 1.01498 0.39333 0.0
C627 C 0.79003 0.01763 0.43064 0.0
H628 H 0.53878 0.85059 0.35006 0.0
H629 H 0.49547 0.78735 0.43401 0.0
H630 H 0.54167 0.82178 0.27192 0.0
H631 H 0.49858 0.75854 0.35595 0.0
H632 H 0.53268 0.70519 0.22297 0.0
H633 H 0.53506 0.73433 0.30093 0.0
H634 H 0.50792 0.80245 0.20671 0.0
H635 H 0.50533 0.77341 0.12917 0.0
C636 C 0.52988 0.83056 0.35187 0.0
C637 C 0.51679 0.82132 0.3982 0.0
C638 C 0.53154 0.81408 0.30711 0.0
C639 C 0.52051 0.78785 0.30795 0.0
C640 C 0.50758 0.77854 0.35437 0.0
C641 C 0.50557 0.79515 0.39888 0.0
C642 C 0.52774 0.72649 0.21875 0.0
C643 C 0.51881 0.73702 0.16998 0.0
C644 C 0.52884 0.7431 0.26344 0.0
C645 C 0.52149 0.77062 0.25996 0.0
C646 C 0.51383 0.78137 0.21058 0.0
C647 C 0.5123 0.76472 0.16621 0.0
H648 H 0.73735 0.51635 0.46906 0.0
H649 H 0.68205 0.49162 0.34652 0.0
H650 H 0.77255 0.52415 0.4026 0.0
H651 H 0.71748 0.4988 0.28015 0.0
H652 H 0.7799 0.5331 0.16644 0.0
H653 H 0.74459 0.53257 0.23462 0.0
H654 H 0.80149 0.49789 0.34586 0.0
H655 H 0.83682 0.49899 0.27832 0.0
C656 C 0.73267 0.51256 0.42793 0.0
C657 C 0.70687 0.50321 0.4132 0.0
C658 C 0.75293 0.51694 0.38979 0.0
C659 C 0.74795 0.51204 0.33593 0.0
C660 C 0.72197 0.50316 0.32113 0.0
C661 C 0.70167 0.49883 0.35928 0.0
C662 C 0.785 0.52581 0.20572 0.0
C663 C 0.81122 0.51605 0.21681 0.0
C664 C 0.76467 0.52526 0.2447 0.0
C665 C 0.77007 0.51495 0.29569 0.0
C666 C 0.7966 0.50623 0.30728 0.0
C667 C 0.81691 0.5068 0.26838 0.0
H668 H 1.00984 0.75269 0.13193 0.0
H669 H 0.02036 0.82555 0.22314 0.0
H670 H 1.00986 0.72579 0.21335 0.0
H671 H 0.02016 0.7986 0.30463 0.0
H672 H 0.05661 0.7375 0.42538 0.0
H673 H 0.05169 0.76568 0.34611 0.0
H674 H 0.98452 0.71631 0.29582 0.0
H675 H 0.98955 0.68798 0.3748 0.0
C676 C 1.01167 0.76304 0.1694 0.0
C677 C 1.01514 0.79129 0.17091 0.0
C678 C 1.01163 0.7476 0.21613 0.0
C679 C 1.01526 0.76001 0.2655 0.0
C680 C 0.01771 0.78838 0.26718 0.0
C681 C 0.01753 0.80385 0.22047 0.0
C682 C 0.04078 0.73265 0.39746 0.0
C683 C 0.02354 0.7104 0.40643 0.0
C684 C 0.03781 0.74895 0.35221 0.0
C685 C 0.01765 0.7433 0.31466 0.0
C686 C 1.00039 0.72109 0.32371 0.0
C687 C 1.00323 0.7049 0.36912 0.0
H688 H 0.44237 1.00756 0.11124 0.0
H689 H 0.4551 0.02504 0.94519 0.0
H690 H 0.49106 1.00928 0.12593 0.0
H691 H 0.50405 0.02578 0.95936 0.0
H692 H 0.58956 0.04921 1.01205 0.0
H693 H 0.5408 0.04949 0.99678 0.0
H694 H 0.53114 0.9844 0.11082 0.0
H695 H 0.57978 0.98488 0.12744 0.0
C696 C 0.45559 1.01177 0.07777 0.0
C697 C 0.44477 0.01615 0.02701 0.0
C698 C 0.48363 1.0125 0.08611 0.0
C699 C 0.50175 0.01736 0.0438 0.0
C700 C 0.49085 0.02225 0.99311 0.0
C701 C 0.46272 0.02177 0.98487 0.0
C702 C 0.57704 0.03489 0.03377 0.0
C703 C 0.58865 0.01705 0.0711 0.0
C704 C 0.549 0.03496 0.02481 0.0
C705 C 0.53178 0.01705 0.05264 0.0
C706 C 0.54354 0.99891 0.08936 0.0
C707 C 0.57155 0.99901 0.09865 0.0
H708 H 0.56632 0.4461 0.07939 0.0
H709 H 0.50691 0.43976 0.95503 0.0
H710 H 0.55636 0.49422 0.08749 0.0
H711 H 0.49748 0.48814 0.96199 0.0
H712 H 0.46679 0.56873 0.02522 0.0
H713 H 0.47683 0.52073 0.01804 0.0
H714 H 0.56184 0.53706 0.04388 0.0
H715 H 0.55155 0.58532 0.05271 0.0
C716 C 0.55115 0.45498 0.05362 0.0
C717 C 0.53736 0.43898 0.01663 0.0
C718 C 0.5456 0.4827 0.05798 0.0
C719 C 0.52617 0.49525 0.02531 0.0
C720 C 0.51231 0.47919 0.98838 0.0
C721 C 0.51778 0.45141 0.98421 0.0
C722 C 0.48767 0.56217 0.02937 0.0
C723 C 0.50837 0.58096 0.03954 0.0
C724 C 0.49346 0.53454 0.02487 0.0
C725 C 0.52018 0.52485 0.03011 0.0
C726 C 0.54095 0.54368 0.04027 0.0
C727 C 0.53511 0.5714 0.04504 0.0
H728 H 0.95015 0.48191 0.14256 0.0
H729 H 0.93328 0.52837 1.0008 0.0
H730 H 0.99856 0.48572 0.12523 0.0
H731 H 0.98197 0.53164 0.98263 0.0
H732 H 0.07278 0.55223 0.99195 0.0
H733 H 0.02424 0.55104 1.01123 0.0
H734 H 0.03204 0.46821 0.06579 0.0
H735 H 0.08064 0.46963 0.04773 0.0
C736 C 0.95676 0.49301 0.10765 0.0
C737 C 0.93774 0.50477 0.07298 0.0
C738 C 0.98461 0.495 0.09746 0.0
C739 C 0.99432 0.50871 0.05216 0.0
C740 C 0.97531 0.52109 0.01813 0.0
C741 C 0.94735 0.51918 0.02846 0.0
C742 C 0.06416 0.53375 1.00813 0.0
C743 C 0.08071 0.51103 0.01839 0.0
C744 C 0.03623 0.53303 0.0189 0.0
C745 C 0.02409 0.50956 0.04024 0.0
C746 C 0.04067 0.48681 0.05024 0.0
C747 C 0.06859 0.48755 0.03954 0.0
H748 H 0.03842 0.08297 0.93229 0.0
H749 H 0.98176 0.07476 0.06251 0.0
H750 H 0.04827 0.0345 0.93768 0.0
H751 H 0.99212 0.02667 0.06895 0.0
H752 H 0.99654 0.93636 0.03579 0.0
H753 H 0.98581 0.98446 0.02548 0.0
H754 H 0.07018 1.00121 0.99138 0.0
H755 H 0.08068 0.95326 1.00007 0.0
C756 C 0.02825 0.07089 0.96236 0.0
C757 C 1.0093 0.08281 0.99692 0.0
C758 C 0.03394 0.04308 0.96561 0.0
C759 C 0.02093 0.0265 1.00367 0.0
C760 C 1.00217 0.03857 0.03847 0.0
C761 C 0.99639 0.06629 0.03506 0.0
C762 C 1.01275 0.95031 0.02581 0.0
C763 C 0.03946 0.94089 0.01882 0.0
C764 C 1.00665 0.97795 0.02023 0.0
C765 C 0.02714 0.99688 1.00774 0.0
C766 C 0.05378 0.98731 1.00023 0.0
C767 C 0.05983 0.95973 1.00558 0.0
H768 H 0.09078 0.03078 0.43866 0.0
H769 H 0.0867 0.99252 0.59295 0.0
H770 H 0.04164 0.03722 0.44028 0.0
H771 H 0.03773 0.99938 0.59495 0.0
H772 H 0.94741 0.99096 0.55918 0.0
H773 H 0.99639 0.98345 0.55374 0.0
H774 H 1.00661 0.0631 0.48448 0.0
H775 H 0.9578 0.07039 0.48896 0.0
C776 C 0.07946 0.02393 0.47312 0.0
C777 C 0.09276 1.01114 0.51568 0.0
C778 C 0.05125 0.02768 0.47412 0.0
C779 C 0.03562 0.01871 0.51766 0.0
C780 C 0.049 1.00614 0.56038 0.0
C781 C 0.07718 1.00242 0.55942 0.0
C782 C 0.96009 1.00678 0.54241 0.0
C783 C 0.9486 0.03129 0.52458 0.0
C784 C 0.98822 1.00256 0.53966 0.0
C785 C 1.00555 0.02272 0.5189 0.0
C786 C 0.99394 0.047 0.50017 0.0
C787 C 0.96588 0.05122 0.503 0.0
H788 H 0.47992 0.94911 0.4607 0.0
H789 H 0.54389 0.93936 0.57556 0.0
H790 H 0.48954 0.9973 0.45436 0.0
H791 H 0.55307 0.98792 0.57042 0.0
H792 H 0.58054 0.07062 0.50672 0.0
H793 H 0.57127 0.0224 0.51416 0.0
H794 H 0.48531 0.03865 0.50169 0.0
H795 H 0.49472 0.08702 0.49258 0.0
C796 C 0.49604 0.95726 0.48479 0.0
C797 C 0.51116 0.94029 0.51863 0.0
C798 C 0.5014 0.98503 0.48147 0.0
C799 C 0.52197 0.99671 0.51212 0.0
C800 C 0.53727 0.97967 0.54572 0.0
C801 C 0.53197 0.95179 0.54884 0.0
C802 C 0.55962 0.06397 0.50567 0.0
C803 C 0.53837 0.08277 0.49888 0.0
C804 C 0.55429 0.03623 0.5103 0.0
C805 C 0.52753 0.02645 0.50852 0.0
C806 C 0.50622 0.04532 0.50239 0.0
C807 C 0.51157 0.07312 0.4975 0.0
H808 H 0.58094 0.55979 0.48092 0.0
H809 H 0.57222 0.4792 0.54662 0.0
H810 H 0.53247 0.56122 0.46269 0.0
H811 H 0.52382 0.48031 0.52708 0.0
H812 H 0.43294 0.50391 0.53397 0.0
H813 H 0.48148 0.50068 0.55265 0.0
H814 H 0.49922 0.54256 0.40564 0.0
H815 H 0.45094 0.54642 0.38785 0.0
C816 C 0.56873 0.54231 0.49126 0.0
C817 C 0.58057 0.51939 0.51523 0.0
C818 C 0.54088 0.54303 0.48046 0.0
C819 C 0.52409 0.52081 0.4931 0.0
C820 C 0.53596 0.49793 0.5173 0.0
C821 C 0.56381 0.49724 0.52826 0.0
C822 C 0.44724 0.51221 0.50547 0.0
C823 C 0.43798 0.52555 0.45956 0.0
C824 C 0.47512 0.51031 0.51609 0.0
C825 C 0.49441 0.52161 0.48095 0.0
C826 C 0.48506 0.53417 0.43428 0.0
C827 C 0.45728 0.53618 0.42383 0.0
H828 H 1.01125 0.58554 0.57268 0.0
H829 H 0.07079 0.57917 0.4472 0.0
H830 H 1.00204 0.53719 0.56588 0.0
H831 H 0.06102 0.53106 0.4392 0.0
H832 H 0.05579 0.43986 0.47201 0.0
H833 H 0.06632 0.48796 0.48186 0.0
H834 H 0.98141 0.50495 0.5102 0.0
H835 H 0.97114 0.45716 0.50208 0.0
C836 C 0.0222 0.57389 0.54329 0.0
C837 C 0.04173 0.5863 0.51047 0.0
C838 C 0.01686 0.54612 0.53921 0.0
C839 C 0.03078 0.53004 0.50195 0.0
C840 C 0.05021 0.54257 0.46896 0.0
C841 C 0.05565 0.57029 0.47325 0.0
C842 C 0.03944 0.45389 0.48056 0.0
C843 C 1.01265 0.44457 0.48639 0.0
C844 C 0.04541 0.48152 0.48589 0.0
C845 C 0.02472 0.5005 0.49695 0.0
C846 C 0.99798 0.49103 0.50269 0.0
C847 C 0.99206 0.46351 0.49766 0.0
loop_
_geom_bond_atom_site_label_1
_geom_bond_atom_site_label_2
_geom_bond_distance
_geom_bond_site_symmetry_2
_ccdc_geom_bond_type
Mg0 O7 2.141 . S
Mg0 O8 2.048 . S
Mg0 O9 2.048 . S
Mg0 O12 2.141 . S
C1 O2 1.329 . S
C1 O8 1.184 1_565 S
O2 C1 1.329 . S
C3 O4 1.245 . S
C3 O12 1.289 1_565 S
O4 C3 1.245 . S
C5 O6 1.245 . S
C5 O7 1.289 1_565 S
O6 C5 1.245 . S
O7 Mg0 2.141 . S
O7 C5 1.289 1_545 S
O8 Mg0 2.048 . S
O8 C1 1.184 1_545 S
O9 Mg0 2.048 . S
O9 C10 1.195 . S
C10 O9 1.195 . S
C10 O11 1.313 1_545 S
O11 C10 1.313 1_565 S
O12 Mg0 2.141 . S
O12 C3 1.289 1_545 S
Mg13 O20 2.141 . S
Mg13 O21 2.048 . S
Mg13 O22 2.048 . S
Mg13 O25 2.141 . S
C14 O15 1.313 . S
C14 O21 1.195 . S
O15 C14 1.313 . S
C16 O17 1.245 . S
C16 O25 1.289 . S
O17 C16 1.245 . S
C18 O19 1.245 . S
C18 O20 1.289 . S
O19 C18 1.245 . S
O20 Mg13 2.141 . S
O20 C18 1.289 . S
O21 Mg13 2.048 . S
O21 C14 1.195 . S
O22 Mg13 2.048 . S
O22 C23 1.195 . S
C23 O22 1.195 . S
C23 O24 1.313 . S
O24 C23 1.313 . S
O25 Mg13 2.141 . S
O25 C16 1.289 . S
Mg26 O33 2.141 . S
Mg26 O34 2.048 . S
Mg26 O35 2.048 . S
Mg26 O38 2.141 . S
C27 O28 1.313 . S
C27 O34 1.195 . S
O28 C27 1.313 . S
C29 O30 1.245 . S
C29 O38 1.289 . S
O30 C29 1.245 . S
C31 O32 1.245 . S
C31 O33 1.289 . S
O32 C31 1.245 . S
O33 Mg26 2.141 . S
O33 C31 1.289 . S
O34 Mg26 2.048 . S
O34 C27 1.195 . S
O35 Mg26 2.048 . S
O35 C36 1.195 . S
C36 O35 1.195 . S
C36 O37 1.313 . S
O37 C36 1.313 . S
O38 Mg26 2.141 . S
O38 C29 1.289 . S
Mg39 O46 2.141 . S
Mg39 O47 2.048 . S
Mg39 O48 2.048 . S
Mg39 O51 2.141 . S
C40 O41 1.313 . S
C40 O47 1.195 1_455 S
O41 C40 1.313 . S
C42 O43 1.245 1_655 S
C42 O51 1.289 . S
O43 C42 1.245 1_455 S
C44 O45 1.245 . S
C44 O46 1.289 1_455 S
O45 C44 1.245 . S
O46 Mg39 2.141 . S
O46 C44 1.289 1_655 S
O47 Mg39 2.048 . S
O47 C40 1.195 1_655 S
O48 Mg39 2.048 . S
O48 C49 1.195 1_655 S
C49 O48 1.195 1_455 S
C49 O50 1.313 . S
O50 C49 1.313 . S
O51 Mg39 2.141 . S
O51 C42 1.289 . S
Mg52 O59 2.141 . S
Mg52 O60 2.048 . S
Mg52 O61 2.048 . S
Mg52 O64 2.141 . S
C53 O54 1.338 . S
C53 O60 1.177 1_545 S
O54 C53 1.338 . S
C55 O56 1.245 . S
C55 O64 1.289 1_545 S
O56 C55 1.245 . S
C57 O58 1.245 . S
C57 O59 1.289 1_545 S
O58 C57 1.245 . S
O59 Mg52 2.141 . S
O59 C57 1.289 1_565 S
O60 Mg52 2.048 . S
O60 C53 1.177 1_565 S
O61 Mg52 2.048 . S
O61 C62 1.195 . S
C62 O61 1.195 . S
C62 O63 1.313 1_565 S
O63 C62 1.313 1_545 S
O64 Mg52 2.141 . S
O64 C55 1.289 1_565 S
Mg65 O72 2.141 . S
Mg65 O73 2.048 . S
Mg65 O74 2.048 . S
Mg65 O77 2.141 . S
C66 O67 1.313 . S
C66 O73 1.195 . S
O67 C66 1.313 . S
C68 O69 1.245 . S
C68 O77 1.289 . S
O69 C68 1.245 . S
C70 O71 1.245 . S
C70 O72 1.289 . S
O71 C70 1.245 . S
O72 Mg65 2.141 . S
O72 C70 1.289 . S
O73 Mg65 2.048 . S
O73 C66 1.195 . S
O74 Mg65 2.048 . S
O74 C75 1.195 . S
C75 O74 1.195 . S
C75 O76 1.313 . S
O76 C75 1.313 . S
O77 Mg65 2.141 . S
O77 C68 1.289 . S
Mg78 O85 2.141 . S
Mg78 O86 2.048 . S
Mg78 O87 2.048 . S
Mg78 O90 2.141 . S
C79 O80 1.313 . S
C79 O86 1.195 . S
O80 C79 1.313 . S
C81 O82 1.245 . S
C81 O90 1.289 . S
O82 C81 1.245 . S
C83 O84 1.245 . S
C83 O85 1.289 . S
O84 C83 1.245 . S
O85 Mg78 2.141 . S
O85 C83 1.289 . S
O86 Mg78 2.048 . S
O86 C79 1.195 . S
O87 Mg78 2.048 . S
O87 C88 1.195 . S
C88 O87 1.195 . S
C88 O89 1.313 . S
O89 C88 1.313 . S
O90 Mg78 2.141 . S
O90 C81 1.289 . S
Mg91 O98 2.141 . S
Mg91 O99 2.048 . S
Mg91 O100 2.048 . S
Mg91 O103 2.141 . S
C92 O93 1.313 . S
C92 O99 1.195 1_655 S
O93 C92 1.313 . S
C94 O95 1.245 1_455 S
C94 O103 1.289 . S
O95 C94 1.245 1_655 S
C96 O97 1.245 . S
C96 O98 1.289 1_655 S
O97 C96 1.245 . S
O98 Mg91 2.141 . S
O98 C96 1.289 1_455 S
O99 Mg91 2.048 . S
O99 C92 1.195 1_455 S
O100 Mg91 2.048 . S
O100 C101 1.195 1_455 S
C101 O100 1.195 1_655 S
C101 O102 1.313 . S
O102 C101 1.313 . S
O103 Mg91 2.141 . S
O103 C94 1.289 . S
Mg104 O111 2.141 . S
Mg104 O112 2.048 . S
Mg104 O113 2.048 . S
Mg104 O116 2.141 . S
C105 O106 1.313 . S
C105 O112 1.195 1_565 S
O106 C105 1.313 . S
C107 O108 1.245 . S
C107 O116 1.289 1_565 S
O108 C107 1.245 . S
C109 O110 1.245 1_545 S
C109 O111 1.289 . S
O110 C109 1.245 1_565 S
O111 Mg104 2.141 . S
O111 C109 1.289 . S
O112 Mg104 2.048 . S
O112 C105 1.195 1_545 S
O113 Mg104 2.048 . S
O113 C114 1.195 1_545 S
C114 O113 1.195 1_565 S
C114 O115 1.313 . S
O115 C114 1.313 . S
O116 Mg104 2.141 . S
O116 C107 1.289 1_545 S
Mg117 O124 2.141 . S
Mg117 O125 2.048 . S
Mg117 O126 2.048 . S
Mg117 O129 2.141 . S
C118 O119 1.313 . S
C118 O125 1.195 . S
O119 C118 1.313 . S
C120 O121 1.245 . S
C120 O129 1.289 . S
O121 C120 1.245 . S
C122 O123 1.245 . S
C122 O124 1.289 . S
O123 C122 1.245 . S
O124 Mg117 2.141 . S
O124 C122 1.289 . S
O125 Mg117 2.048 . S
O125 C118 1.195 . S
O126 Mg117 2.048 . S
O126 C127 1.195 . S
C127 O126 1.195 . S
C127 O128 1.313 . S
O128 C127 1.313 . S
O129 Mg117 2.141 . S
O129 C120 1.289 . S
Mg130 O137 2.141 . S
Mg130 O138 2.048 . S
Mg130 O139 2.048 . S
Mg130 O142 2.141 . S
C131 O132 1.313 . S
C131 O138 1.195 . S
O132 C131 1.313 . S
C133 O134 1.245 . S
C133 O142 1.289 . S
O134 C133 1.245 . S
C135 O136 1.245 . S
C135 O137 1.289 . S
O136 C135 1.245 . S
O137 Mg130 2.141 . S
O137 C135 1.289 . S
O138 Mg130 2.048 . S
O138 C131 1.195 . S
O139 Mg130 2.048 . S
O139 C140 1.195 . S
C140 O139 1.195 . S
C140 O141 1.313 . S
O141 C140 1.313 . S
O142 Mg130 2.141 . S
O142 C133 1.289 . S
Mg143 O150 2.141 . S
Mg143 O151 2.048 . S
Mg143 O152 2.048 . S
Mg143 O155 2.141 . S
C144 O145 1.313 . S
C144 O151 1.195 1_655 S
O145 C144 1.313 . S
C146 O147 1.245 . S
C146 O155 1.289 1_655 S
O147 C146 1.245 . S
C148 O149 1.245 1_455 S
C148 O150 1.289 . S
O149 C148 1.245 1_655 S
O150 Mg143 2.141 . S
O150 C148 1.289 . S
O151 Mg143 2.048 . S
O151 C144 1.195 1_455 S
O152 Mg143 2.048 . S
O152 C153 1.195 1_455 S
C153 O152 1.195 1_655 S
C153 O154 1.313 . S
O154 C153 1.313 . S
O155 Mg143 2.141 . S
O155 C146 1.289 1_455 S
Mg156 O163 2.141 . S
Mg156 O164 2.048 . S
Mg156 O165 2.048 . S
Mg156 O168 2.141 . S
C157 O158 1.313 . S
C157 O164 1.195 1_545 S
O158 C157 1.313 . S
C159 O160 1.245 . S
C159 O168 1.289 1_545 S
O160 C159 1.245 . S
C161 O162 1.245 1_565 S
C161 O163 1.289 . S
O162 C161 1.245 1_545 S
O163 Mg156 2.141 . S
O163 C161 1.289 . S
O164 Mg156 2.048 . S
O164 C157 1.195 1_565 S
O165 Mg156 2.048 . S
O165 C166 1.195 1_565 S
C166 O165 1.195 1_545 S
C166 O167 1.313 . S
O167 C166 1.313 . S
O168 Mg156 2.141 . S
O168 C159 1.289 1_565 S
Mg169 O176 2.141 . S
Mg169 O177 2.048 . S
Mg169 O178 2.048 . S
Mg169 O181 2.141 . S
C170 O171 1.313 . S
C170 O177 1.195 . S
O171 C170 1.313 . S
C172 O173 1.245 . S
C172 O181 1.289 . S
O173 C172 1.245 . S
C174 O175 1.245 . S
C174 O176 1.289 . S
O175 C174 1.245 . S
O176 Mg169 2.141 . S
O176 C174 1.289 . S
O177 Mg169 2.048 . S
O177 C170 1.195 . S
O178 Mg169 2.048 . S
O178 C179 1.195 . S
C179 O178 1.195 . S
C179 O180 1.313 . S
O180 C179 1.313 . S
O181 Mg169 2.141 . S
O181 C172 1.289 . S
Mg182 O189 2.141 . S
Mg182 O190 2.048 . S
Mg182 O191 2.048 . S
Mg182 O194 2.141 . S
C183 O184 1.313 . S
C183 O190 1.195 . S
O184 C183 1.313 . S
C185 O186 1.245 . S
C185 O194 1.289 . S
O186 C185 1.245 . S
C187 O188 1.245 . S
C187 O189 1.289 . S
O188 C187 1.245 . S
O189 Mg182 2.141 . S
O189 C187 1.289 . S
O190 Mg182 2.048 . S
O190 C183 1.195 . S
O191 Mg182 2.048 . S
O191 C192 1.195 . S
C192 O191 1.195 . S
C192 O193 1.313 . S
O193 C192 1.313 . S
O194 Mg182 2.141 . S
O194 C185 1.289 . S
Mg195 O202 2.141 . S
Mg195 O203 2.048 . S
Mg195 O204 2.048 . S
Mg195 O207 2.141 . S
C196 O197 1.313 . S
C196 O203 1.195 1_455 S
O197 C196 1.313 . S
C198 O199 1.245 . S
C198 O207 1.289 1_455 S
O199 C198 1.245 . S
C200 O201 1.245 1_655 S
C200 O202 1.289 . S
O201 C200 1.245 1_455 S
O202 Mg195 2.141 . S
O202 C200 1.289 . S
O203 Mg195 2.048 . S
O203 C196 1.195 1_655 S
O204 Mg195 2.048 . S
O204 C205 1.195 1_655 S
C205 O204 1.195 1_455 S
C205 O206 1.313 . S
O206 C205 1.313 . S
O207 Mg195 2.141 . S
O207 C198 1.289 1_655 S
H208 C216 0.950 . S
H209 C221 0.950 . S
H210 C218 0.950 . S
H211 C220 0.950 . S
H212 C222 0.950 . S
H213 C224 0.950 . S
H214 C226 0.950 . S
H215 C227 0.949 . S
C216 H208 0.950 . S
C216 C217 1.386 . S
C216 C218 1.391 . S
C217 C216 1.386 . S
C217 C221 1.393 . S
C218 H210 0.950 . S
C218 C216 1.391 . S
C218 C219 1.400 . S
C219 C218 1.400 . S
C219 C220 1.398 . S
C219 C225 1.491 . S
C220 H211 0.950 . S
C220 C219 1.398 . S
C220 C221 1.391 . S
C221 H209 0.950 . S
C221 C217 1.393 . S
C221 C220 1.391 . S
C222 H212 0.950 . S
C222 C223 1.386 . S
C222 C224 1.391 . S
C223 C222 1.386 . S
C223 C227 1.393 . S
C224 H213 0.950 . S
C224 C222 1.391 . S
C224 C225 1.400 . S
C225 C219 1.491 . S
C225 C224 1.400 . S
C225 C226 1.398 . S
C226 H214 0.950 . S
C226 C225 1.398 . S
C226 C227 1.391 . S
C227 H215 0.949 . S
C227 C223 1.393 . S
C227 C226 1.391 . S
H228 C236 0.950 . S
H229 C241 0.950 . S
H230 C238 0.950 . S
H231 C240 0.950 . S
H232 C242 0.950 . S
H233 C244 0.950 . S
H234 C246 0.950 . S
H235 C247 0.950 . S
C236 H228 0.950 . S
C236 C237 1.386 . S
C236 C238 1.391 . S
C237 C236 1.386 . S
C237 C241 1.393 . S
C238 H230 0.950 . S
C238 C236 1.391 . S
C238 C239 1.400 . S
C239 C238 1.400 . S
C239 C240 1.398 . S
C239 C245 1.491 . S
C240 H231 0.950 . S
C240 C239 1.398 . S
C240 C241 1.391 . S
C241 H229 0.950 . S
C241 C237 1.393 . S
C241 C240 1.391 . S
C242 H232 0.950 . S
C242 C243 1.386 . S
C242 C244 1.391 . S
C243 C242 1.386 . S
C243 C247 1.393 . S
C244 H233 0.950 . S
C244 C242 1.391 . S
C244 C245 1.400 . S
C245 C239 1.491 . S
C245 C244 1.400 . S
C245 C246 1.398 . S
C246 H234 0.950 . S
C246 C245 1.398 . S
C246 C247 1.391 . S
C247 H235 0.950 . S
C247 C243 1.393 . S
C247 C246 1.391 . S
H248 C256 0.950 . S
H249 C261 0.950 . S
H250 C258 0.950 . S
H251 C260 0.950 . S
H252 C262 0.950 1_455 S
H253 C264 0.950 . S
H254 C266 0.950 . S
H255 C267 0.950 . S
C256 H248 0.950 . S
C256 C257 1.386 . S
C256 C258 1.391 . S
C257 C256 1.386 . S
C257 C261 1.393 . S
C258 H250 0.950 . S
C258 C256 1.391 . S
C258 C259 1.400 . S
C259 C258 1.400 . S
C259 C260 1.398 . S
C259 C265 1.491 . S
C260 H251 0.950 . S
C260 C259 1.398 . S
C260 C261 1.391 . S
C261 H249 0.950 . S
C261 C257 1.393 . S
C261 C260 1.391 . S
C262 H252 0.950 1_655 S
C262 C263 1.386 . S
C262 C264 1.391 . S
C263 C262 1.386 . S
C263 C267 1.393 . S
C264 H253 0.950 . S
C264 C262 1.391 . S
C264 C265 1.400 . S
C265 C259 1.491 . S
C265 C264 1.400 . S
C265 C266 1.398 . S
C266 H254 0.950 . S
C266 C265 1.398 . S
C266 C267 1.391 . S
C267 H255 0.950 . S
C267 C263 1.393 . S
C267 C266 1.391 . S
H268 C276 0.950 1_655 S
H269 C281 0.950 . S
H270 C278 0.950 . S
H271 C280 0.950 . S
H272 C282 0.950 . S
H273 C284 0.950 . S
H274 C286 0.950 . S
H275 C287 0.950 1_545 S
C276 H268 0.950 1_455 S
C276 C277 1.386 . S
C276 C278 1.391 . S
C277 C276 1.386 . S
C277 C281 1.393 . S
C278 H270 0.950 . S
C278 C276 1.391 . S
C278 C279 1.400 . S
C279 C278 1.400 . S
C279 C280 1.398 . S
C279 C285 1.491 . S
C280 H271 0.950 . S
C280 C279 1.398 . S
C280 C281 1.391 . S
C281 H269 0.950 . S
C281 C277 1.393 . S
C281 C280 1.391 . S
C282 H272 0.950 . S
C282 C283 1.386 . S
C282 C284 1.391 . S
C283 C282 1.386 . S
C283 C287 1.393 . S
C284 H273 0.950 . S
C284 C282 1.391 . S
C284 C285 1.400 . S
C285 C279 1.491 . S
C285 C284 1.400 . S
C285 C286 1.398 . S
C286 H274 0.950 . S
C286 C285 1.398 . S
C286 C287 1.391 . S
C287 H275 0.950 1_565 S
C287 C283 1.393 . S
C287 C286 1.391 . S
H288 C296 0.950 . S
H289 C301 0.950 . S
H290 C298 0.950 . S
H291 C300 0.950 . S
H292 C302 0.950 . S
H293 C304 0.950 . S
H294 C306 0.950 . S
H295 C307 0.950 . S
C296 H288 0.950 . S
C296 C297 1.386 . S
C296 C298 1.391 . S
C297 C296 1.386 . S
C297 C301 1.393 . S
C298 H290 0.950 . S
C298 C296 1.391 . S
C298 C299 1.400 . S
C299 C298 1.400 . S
C299 C300 1.398 . S
C299 C305 1.491 . S
C300 H291 0.950 . S
C300 C299 1.398 . S
C300 C301 1.391 . S
C301 H289 0.950 . S
C301 C297 1.393 . S
C301 C300 1.391 . S
C302 H292 0.950 . S
C302 C303 1.386 . S
C302 C304 1.391 . S
C303 C302 1.386 . S
C303 C307 1.393 . S
C304 H293 0.950 . S
C304 C302 1.391 . S
C304 C305 1.400 . S
C305 C299 1.491 . S
C305 C304 1.400 . S
C305 C306 1.398 . S
C306 H294 0.950 . S
C306 C305 1.398 . S
C306 C307 1.391 . S
C307 H295 0.950 . S
C307 C303 1.393 . S
C307 C306 1.391 . S
H308 C316 0.950 . S
H309 C321 0.950 . S
H310 C318 0.950 . S
H311 C320 0.950 . S
H312 C322 0.950 . S
H313 C324 0.950 . S
H314 C326 0.950 . S
H315 C327 0.950 . S
C316 H308 0.950 . S
C316 C317 1.386 . S
C316 C318 1.391 . S
C317 C316 1.386 . S
C317 C321 1.393 . S
C318 H310 0.950 . S
C318 C316 1.391 . S
C318 C319 1.400 . S
C319 C318 1.400 . S
C319 C320 1.398 . S
C319 C325 1.491 . S
C320 H311 0.950 . S
C320 C319 1.398 . S
C320 C321 1.391 . S
C321 H309 0.950 . S
C321 C317 1.393 . S
C321 C320 1.391 . S
C322 H312 0.950 . S
C322 C323 1.386 . S
C322 C324 1.391 . S
C323 C322 1.386 . S
C323 C327 1.393 . S
C324 H313 0.950 . S
C324 C322 1.391 . S
C324 C325 1.400 . S
C325 C319 1.491 . S
C325 C324 1.400 . S
C325 C326 1.398 . S
C326 H314 0.950 . S
C326 C325 1.398 . S
C326 C327 1.391 . S
C327 H315 0.950 . S
C327 C323 1.393 . S
C327 C326 1.391 . S
H328 C336 0.950 . S
H329 C341 0.950 . S
H330 C338 0.950 . S
H331 C340 0.950 . S
H332 C342 0.950 . S
H333 C344 0.950 . S
H334 C346 0.950 . S
H335 C347 0.950 . S
C336 H328 0.950 . S
C336 C337 1.386 . S
C336 C338 1.391 . S
C337 C336 1.386 . S
C337 C341 1.393 . S
C338 H330 0.950 . S
C338 C336 1.391 . S
C338 C339 1.400 . S
C339 C338 1.400 . S
C339 C340 1.398 . S
C339 C345 1.491 . S
C340 H331 0.950 . S
C340 C339 1.398 . S
C340 C341 1.391 . S
C341 H329 0.950 . S
C341 C337 1.393 . S
C341 C340 1.391 . S
C342 H332 0.950 . S
C342 C343 1.386 . S
C342 C344 1.391 . S
C343 C342 1.386 . S
C343 C347 1.393 . S
C344 H333 0.950 . S
C344 C342 1.391 . S
C344 C345 1.400 . S
C345 C339 1.491 . S
C345 C344 1.400 . S
C345 C346 1.398 . S
C346 H334 0.950 . S
C346 C345 1.398 . S
C346 C347 1.391 . S
C347 H335 0.950 . S
C347 C343 1.393 . S
C347 C346 1.391 . S
H348 C356 0.950 . S
H349 C361 0.950 1_455 S
H350 C358 0.950 . S
H351 C360 0.950 . S
H352 C362 0.950 1_565 S
H353 C364 0.950 . S
H354 C366 0.950 . S
H355 C367 0.950 . S
C356 H348 0.950 . S
C356 C357 1.386 . S
C356 C358 1.391 . S
C357 C356 1.386 . S
C357 C361 1.393 . S
C358 H350 0.950 . S
C358 C356 1.391 . S
C358 C359 1.400 . S
C359 C358 1.400 . S
C359 C360 1.398 . S
C359 C365 1.491 . S
C360 H351 0.950 . S
C360 C359 1.398 . S
C360 C361 1.391 . S
C361 H349 0.950 1_655 S
C361 C357 1.393 . S
C361 C360 1.391 . S
C362 H352 0.950 1_545 S
C362 C363 1.386 . S
C362 C364 1.391 . S
C363 C362 1.386 . S
C363 C367 1.393 . S
C364 H353 0.950 . S
C364 C362 1.391 . S
C364 C365 1.400 . S
C365 C359 1.491 . S
C365 C364 1.400 . S
C365 C366 1.398 . S
C366 H354 0.950 . S
C366 C365 1.398 . S
C366 C367 1.391 . S
C367 H355 0.950 . S
C367 C363 1.393 . S
C367 C366 1.391 . S
H368 C376 0.955 . S
H369 C381 0.950 . S
H370 C378 0.950 1_545 S
H371 C380 0.950 . S
H372 C382 0.950 . S
H373 C384 0.950 . S
H374 C386 0.950 . S
H375 C387 0.950 . S
C376 H368 0.955 . S
C376 C377 1.386 . S
C376 C378 1.391 . S
C377 C376 1.386 . S
C377 C381 1.393 . S
C378 H370 0.950 1_565 S
C378 C376 1.391 . S
C378 C379 1.400 . S
C379 C378 1.400 . S
C379 C380 1.398 . S
C379 C385 1.491 . S
C380 H371 0.950 . S
C380 C379 1.398 . S
C380 C381 1.391 . S
C381 H369 0.950 . S
C381 C377 1.393 . S
C381 C380 1.391 . S
C382 H372 0.950 . S
C382 C383 1.386 . S
C382 C384 1.391 . S
C383 C382 1.386 . S
C383 C387 1.393 1_565 S
C384 H373 0.950 . S
C384 C382 1.391 . S
C384 C385 1.400 . S
C385 C379 1.491 . S
C385 C384 1.400 . S
C385 C386 1.398 1_565 S
C386 H374 0.950 . S
C386 C385 1.398 1_545 S
C386 C387 1.391 . S
C387 H375 0.950 . S
C387 C383 1.393 1_545 S
C387 C386 1.391 . S
H388 C396 0.950 . S
H389 C401 0.950 . S
H390 C398 0.950 . S
H391 C400 0.950 . S
H392 C402 0.950 . S
H393 C404 0.950 . S
H394 C406 0.950 . S
H395 C407 0.950 . S
C396 H388 0.950 . S
C396 C397 1.386 . S
C396 C398 1.391 . S
C397 C396 1.386 . S
C397 C401 1.393 . S
C398 H390 0.950 . S
C398 C396 1.391 . S
C398 C399 1.400 . S
C399 C398 1.400 . S
C399 C400 1.398 . S
C399 C405 1.491 . S
C400 H391 0.950 . S
C400 C399 1.398 . S
C400 C401 1.391 . S
C401 H389 0.950 . S
C401 C397 1.393 . S
C401 C400 1.391 . S
C402 H392 0.950 . S
C402 C403 1.386 . S
C402 C404 1.391 . S
C403 C402 1.386 . S
C403 C407 1.393 . S
C404 H393 0.950 . S
C404 C402 1.391 . S
C404 C405 1.400 . S
C405 C399 1.491 . S
C405 C404 1.400 . S
C405 C406 1.398 . S
C406 H394 0.950 . S
C406 C405 1.398 . S
C406 C407 1.391 . S
C407 H395 0.950 . S
C407 C403 1.393 . S
C407 C406 1.391 . S
H408 C416 0.950 . S
H409 C421 0.950 . S
H410 C418 0.950 . S
H411 C420 0.950 . S
H412 C422 0.950 . S
H413 C424 0.950 . S
H414 C426 0.950 . S
H415 C427 0.950 . S
C416 H408 0.950 . S
C416 C417 1.386 . S
C416 C418 1.391 . S
C417 C416 1.386 . S
C417 C421 1.393 . S
C418 H410 0.950 . S
C418 C416 1.391 . S
C418 C419 1.400 . S
C419 C418 1.400 . S
C419 C420 1.398 . S
C419 C425 1.491 . S
C420 H411 0.950 . S
C420 C419 1.398 . S
C420 C421 1.391 . S
C421 H409 0.950 . S
C421 C417 1.393 . S
C421 C420 1.391 . S
C422 H412 0.950 . S
C422 C423 1.386 . S
C422 C424 1.391 . S
C423 C422 1.386 . S
C423 C427 1.393 . S
C424 H413 0.950 . S
C424 C422 1.391 . S
C424 C425 1.400 . S
C425 C419 1.491 . S
C425 C424 1.400 . S
C425 C426 1.398 . S
C426 H414 0.950 . S
C426 C425 1.398 . S
C426 C427 1.391 . S
C427 H415 0.950 . S
C427 C423 1.393 . S
C427 C426 1.391 . S
H428 C436 0.950 . S
H429 C441 0.934 1_455 S
H430 C438 0.950 . S
H431 C440 0.950 1_455 S
H432 C442 0.950 . S
H433 C444 0.950 . S
H434 C446 0.950 . S
H435 C447 0.950 . S
C436 H428 0.950 . S
C436 C437 1.386 . S
C436 C438 1.391 . S
C437 C436 1.386 . S
C437 C441 1.393 . S
C438 H430 0.950 . S
C438 C436 1.391 . S
C438 C439 1.400 . S
C439 C438 1.400 . S
C439 C440 1.398 . S
C439 C445 1.491 . S
C440 H431 0.950 1_655 S
C440 C439 1.398 . S
C440 C441 1.391 . S
C441 H429 0.934 1_655 S
C441 C437 1.393 . S
C441 C440 1.391 . S
C442 H432 0.950 . S
C442 C443 1.380 1_455 S
C442 C444 1.391 . S
C443 C442 1.380 1_655 S
C443 C447 1.400 . S
C444 H433 0.950 . S
C444 C442 1.391 . S
C444 C445 1.400 1_455 S
C445 C439 1.491 . S
C445 C444 1.400 1_655 S
C445 C446 1.398 . S
C446 H434 0.950 . S
C446 C445 1.398 . S
C446 C447 1.391 . S
C447 H435 0.950 . S
C447 C443 1.400 . S
C447 C446 1.391 . S
H448 C456 0.950 . S
H449 C461 0.950 . S
H450 C458 0.950 . S
H451 C460 0.950 . S
H452 C462 0.949 1_565 S
H453 C464 0.950 . S
H454 C466 0.950 . S
H455 C467 0.950 . S
C456 H448 0.950 . S
C456 C457 1.386 . S
C456 C458 1.391 . S
C457 C456 1.386 . S
C457 C461 1.393 . S
C458 H450 0.950 . S
C458 C456 1.391 . S
C458 C459 1.400 . S
C459 C458 1.400 . S
C459 C460 1.398 . S
C459 C465 1.491 . S
C460 H451 0.950 . S
C460 C459 1.398 . S
C460 C461 1.391 . S
C461 H449 0.950 . S
C461 C457 1.393 . S
C461 C460 1.391 . S
C462 H452 0.949 1_545 S
C462 C463 1.386 . S
C462 C464 1.391 . S
C463 C462 1.386 . S
C463 C467 1.393 . S
C464 H453 0.950 . S
C464 C462 1.391 . S
C464 C465 1.400 . S
C465 C459 1.491 . S
C465 C464 1.400 . S
C465 C466 1.398 . S
C466 H454 0.950 . S
C466 C465 1.398 . S
C466 C467 1.391 . S
C467 H455 0.950 . S
C467 C463 1.393 . S
C467 C466 1.391 . S
H468 C476 0.950 . S
H469 C481 0.950 . S
H470 C478 0.950 . S
H471 C480 0.950 . S
H472 C482 0.950 . S
H473 C484 0.950 . S
H474 C486 0.950 . S
H475 C487 0.950 . S
C476 H468 0.950 . S
C476 C477 1.386 . S
C476 C478 1.391 . S
C477 C476 1.386 . S
C477 C481 1.393 . S
C478 H470 0.950 . S
C478 C476 1.391 . S
C478 C479 1.400 . S
C479 C478 1.400 . S
C479 C480 1.398 . S
C479 C485 1.491 . S
C480 H471 0.950 . S
C480 C479 1.398 . S
C480 C481 1.391 . S
C481 H469 0.950 . S
C481 C477 1.393 . S
C481 C480 1.391 . S
C482 H472 0.950 . S
C482 C483 1.386 . S
C482 C484 1.391 . S
C483 C482 1.386 . S
C483 C487 1.393 . S
C484 H473 0.950 . S
C484 C482 1.391 . S
C484 C485 1.400 . S
C485 C479 1.491 . S
C485 C484 1.400 . S
C485 C486 1.398 . S
C486 H474 0.950 . S
C486 C485 1.398 . S
C486 C487 1.391 . S
C487 H475 0.950 . S
C487 C483 1.393 . S
C487 C486 1.391 . S
H488 C496 0.950 . S
H489 C501 0.950 . S
H490 C498 0.950 . S
H491 C500 0.950 . S
H492 C502 0.950 . S
H493 C504 0.950 . S
H494 C506 0.950 . S
H495 C507 0.950 . S
C496 H488 0.950 . S
C496 C497 1.386 . S
C496 C498 1.391 . S
C497 C496 1.386 . S
C497 C501 1.393 . S
C498 H490 0.950 . S
C498 C496 1.391 . S
C498 C499 1.400 . S
C499 C498 1.400 . S
C499 C500 1.398 . S
C499 C505 1.491 . S
C500 H491 0.950 . S
C500 C499 1.398 . S
C500 C501 1.391 . S
C501 H489 0.950 . S
C501 C497 1.393 . S
C501 C500 1.391 . S
C502 H492 0.950 . S
C502 C503 1.386 . S
C502 C504 1.391 . S
C503 C502 1.386 . S
C503 C507 1.393 . S
C504 H493 0.950 . S
C504 C502 1.391 . S
C504 C505 1.400 . S
C505 C499 1.491 . S
C505 C504 1.400 . S
C505 C506 1.398 . S
C506 H494 0.950 . S
C506 C505 1.398 . S
C506 C507 1.391 . S
C507 H495 0.950 . S
C507 C503 1.393 . S
C507 C506 1.391 . S
H508 C516 0.950 . S
H509 C521 0.950 . S
H510 C518 0.950 . S
H511 C520 0.950 . S
H512 C522 0.950 . S
H513 C524 0.950 . S
H514 C526 0.950 . S
H515 C527 0.950 . S
C516 H508 0.950 . S
C516 C517 1.386 1_655 S
C516 C518 1.391 . S
C517 C516 1.386 1_455 S
C517 C521 1.393 . S
C518 H510 0.950 . S
C518 C516 1.391 . S
C518 C519 1.400 1_655 S
C519 C518 1.400 1_455 S
C519 C520 1.398 . S
C519 C525 1.491 . S
C520 H511 0.950 . S
C520 C519 1.398 . S
C520 C521 1.391 . S
C521 H509 0.950 . S
C521 C517 1.393 . S
C521 C520 1.391 . S
C522 H512 0.950 . S
C522 C523 1.411 . S
C522 C524 1.391 . S
C523 C522 1.411 . S
C523 C527 1.371 1_455 S
C524 H513 0.950 . S
C524 C522 1.391 . S
C524 C525 1.400 . S
C525 C519 1.491 . S
C525 C524 1.400 . S
C525 C526 1.398 1_455 S
C526 H514 0.950 . S
C526 C525 1.398 1_655 S
C526 C527 1.391 . S
C527 H515 0.950 . S
C527 C523 1.371 1_655 S
C527 C526 1.391 . S
H528 C536 0.950 . S
H529 C541 0.950 . S
H530 C538 0.950 1_565 S
H531 C540 0.950 . S
H532 C542 0.950 . S
H533 C544 0.950 . S
H534 C546 0.961 . S
H535 C547 0.950 . S
C536 H528 0.950 . S
C536 C537 1.386 1_565 S
C536 C538 1.391 1_565 S
C537 C536 1.386 1_545 S
C537 C541 1.393 . S
C538 H530 0.950 1_545 S
C538 C536 1.391 1_545 S
C538 C539 1.400 . S
C539 C538 1.400 . S
C539 C540 1.398 . S
C539 C545 1.491 . S
C540 H531 0.950 . S
C540 C539 1.398 . S
C540 C541 1.391 . S
C541 H529 0.950 . S
C541 C537 1.393 . S
C541 C540 1.391 . S
C542 H532 0.950 . S
C542 C543 1.386 . S
C542 C544 1.391 . S
C543 C542 1.386 . S
C543 C547 1.393 . S
C544 H533 0.950 . S
C544 C542 1.391 . S
C544 C545 1.400 . S
C545 C539 1.491 . S
C545 C544 1.400 . S
C545 C546 1.398 . S
C546 H534 0.961 . S
C546 C545 1.398 . S
C546 C547 1.391 . S
C547 H535 0.950 . S
C547 C543 1.393 . S
C547 C546 1.391 . S
H548 C556 0.950 . S
H549 C561 0.950 . S
H550 C558 0.950 . S
H551 C560 0.950 . S
H552 C562 0.950 . S
H553 C564 0.950 . S
H554 C566 0.950 . S
H555 C567 0.950 . S
C556 H548 0.950 . S
C556 C557 1.386 . S
C556 C558 1.391 . S
C557 C556 1.386 . S
C557 C561 1.393 . S
C558 H550 0.950 . S
C558 C556 1.391 . S
C558 C559 1.400 . S
C559 C558 1.400 . S
C559 C560 1.398 . S
C559 C565 1.491 . S
C560 H551 0.950 . S
C560 C559 1.398 . S
C560 C561 1.391 . S
C561 H549 0.950 . S
C561 C557 1.393 . S
C561 C560 1.391 . S
C562 H552 0.950 . S
C562 C563 1.386 . S
C562 C564 1.391 . S
C563 C562 1.386 . S
C563 C567 1.393 . S
C564 H553 0.950 . S
C564 C562 1.391 . S
C564 C565 1.400 . S
C565 C559 1.491 . S
C565 C564 1.400 . S
C565 C566 1.398 . S
C566 H554 0.950 . S
C566 C565 1.398 . S
C566 C567 1.391 . S
C567 H555 0.950 . S
C567 C563 1.393 . S
C567 C566 1.391 . S
H568 C576 0.950 . S
H569 C581 0.950 . S
H570 C578 0.950 . S
H571 C580 0.950 . S
H572 C582 0.950 . S
H573 C584 0.950 . S
H574 C586 0.950 . S
H575 C587 0.950 . S
C576 H568 0.950 . S
C576 C577 1.386 . S
C576 C578 1.391 . S
C577 C576 1.386 . S
C577 C581 1.393 . S
C578 H570 0.950 . S
C578 C576 1.391 . S
C578 C579 1.400 . S
C579 C578 1.400 . S
C579 C580 1.398 . S
C579 C585 1.491 . S
C580 H571 0.950 . S
C580 C579 1.398 . S
C580 C581 1.391 . S
C581 H569 0.950 . S
C581 C577 1.393 . S
C581 C580 1.391 . S
C582 H572 0.950 . S
C582 C583 1.386 . S
C582 C584 1.391 . S
C583 C582 1.386 . S
C583 C587 1.393 . S
C584 H573 0.950 . S
C584 C582 1.391 . S
C584 C585 1.400 . S
C585 C579 1.491 . S
C585 C584 1.400 . S
C585 C586 1.398 . S
C586 H574 0.950 . S
C586 C585 1.398 . S
C586 C587 1.391 . S
C587 H575 0.950 . S
C587 C583 1.393 . S
C587 C586 1.391 . S
H588 C596 0.950 . S
H589 C601 0.950 . S
H590 C598 0.950 . S
H591 C600 0.950 . S
H592 C602 0.950 . S
H593 C604 0.950 . S
H594 C606 0.952 . S
H595 C607 0.950 . S
C596 H588 0.950 . S
C596 C597 1.386 . S
C596 C598 1.391 . S
C597 C596 1.386 . S
C597 C601 1.393 . S
C598 H590 0.950 . S
C598 C596 1.391 . S
C598 C599 1.400 . S
C599 C598 1.400 . S
C599 C600 1.398 . S
C599 C605 1.491 . S
C600 H591 0.950 . S
C600 C599 1.398 . S
C600 C601 1.391 . S
C601 H589 0.950 . S
C601 C597 1.393 . S
C601 C600 1.391 . S
C602 H592 0.950 . S
C602 C603 1.387 . S
C602 C604 1.391 . S
C603 C602 1.387 . S
C603 C607 1.392 1_455 S
C604 H593 0.950 . S
C604 C602 1.391 . S
C604 C605 1.400 . S
C605 C599 1.491 . S
C605 C604 1.400 . S
C605 C606 1.395 1_455 S
C606 H594 0.952 . S
C606 C605 1.395 1_655 S
C606 C607 1.392 . S
C607 H595 0.950 . S
C607 C603 1.392 1_655 S
C607 C606 1.392 . S
H608 C616 0.950 . S
H609 C621 0.950 . S
H610 C618 0.950 . S
H611 C620 0.950 . S
H612 C622 0.950 . S
H613 C624 0.950 . S
H614 C626 0.950 . S
H615 C627 0.950 . S
C616 H608 0.950 . S
C616 C617 1.404 . S
C616 C618 1.391 . S
C617 C616 1.404 . S
C617 C621 1.377 1_565 S
C618 H610 0.950 . S
C618 C616 1.391 . S
C618 C619 1.400 . S
C619 C618 1.400 . S
C619 C620 1.398 1_565 S
C619 C625 1.491 . S
C620 H611 0.950 . S
C620 C619 1.398 1_545 S
C620 C621 1.391 . S
C621 H609 0.950 . S
C621 C617 1.377 1_545 S
C621 C620 1.391 . S
C622 H612 0.950 . S
C622 C623 1.386 1_545 S
C622 C624 1.391 . S
C623 C622 1.386 1_565 S
C623 C627 1.393 . S
C624 H613 0.950 . S
C624 C622 1.391 . S
C624 C625 1.400 1_545 S
C625 C619 1.491 . S
C625 C624 1.400 1_565 S
C625 C626 1.398 . S
C626 H614 0.950 . S
C626 C625 1.398 . S
C626 C627 1.391 . S
C627 H615 0.950 . S
C627 C623 1.393 . S
C627 C626 1.391 . S
H628 C636 0.950 . S
H629 C641 0.950 . S
H630 C638 0.950 . S
H631 C640 0.950 . S
H632 C642 0.950 . S
H633 C644 0.950 . S
H634 C646 0.950 . S
H635 C647 0.950 . S
C636 H628 0.950 . S
C636 C637 1.386 . S
C636 C638 1.391 . S
C637 C636 1.386 . S
C637 C641 1.393 . S
C638 H630 0.950 . S
C638 C636 1.391 . S
C638 C639 1.400 . S
C639 C638 1.400 . S
C639 C640 1.398 . S
C639 C645 1.491 . S
C640 H631 0.950 . S
C640 C639 1.398 . S
C640 C641 1.391 . S
C641 H629 0.950 . S
C641 C637 1.393 . S
C641 C640 1.391 . S
C642 H632 0.950 . S
C642 C643 1.386 . S
C642 C644 1.391 . S
C643 C642 1.386 . S
C643 C647 1.393 . S
C644 H633 0.950 . S
C644 C642 1.391 . S
C644 C645 1.400 . S
C645 C639 1.491 . S
C645 C644 1.400 . S
C645 C646 1.398 . S
C646 H634 0.950 . S
C646 C645 1.398 . S
C646 C647 1.391 . S
C647 H635 0.950 . S
C647 C643 1.393 . S
C647 C646 1.391 . S
H648 C656 0.950 . S
H649 C661 0.950 . S
H650 C658 0.950 . S
H651 C660 0.950 . S
H652 C662 0.950 . S
H653 C664 0.950 . S
H654 C666 0.950 . S
H655 C667 0.950 . S
C656 H648 0.950 . S
C656 C657 1.386 . S
C656 C658 1.391 . S
C657 C656 1.386 . S
C657 C661 1.393 . S
C658 H650 0.950 . S
C658 C656 1.391 . S
C658 C659 1.400 . S
C659 C658 1.400 . S
C659 C660 1.398 . S
C659 C665 1.491 . S
C660 H651 0.950 . S
C660 C659 1.398 . S
C660 C661 1.391 . S
C661 H649 0.950 . S
C661 C657 1.393 . S
C661 C660 1.391 . S
C662 H652 0.950 . S
C662 C663 1.386 . S
C662 C664 1.391 . S
C663 C662 1.386 . S
C663 C667 1.393 . S
C664 H653 0.950 . S
C664 C662 1.391 . S
C664 C665 1.400 . S
C665 C659 1.491 . S
C665 C664 1.400 . S
C665 C666 1.398 . S
C666 H654 0.950 . S
C666 C665 1.398 . S
C666 C667 1.391 . S
C667 H655 0.950 . S
C667 C663 1.393 . S
C667 C666 1.391 . S
H668 C676 0.950 . S
H669 C681 0.950 . S
H670 C678 0.950 . S
H671 C680 0.950 . S
H672 C682 0.950 . S
H673 C684 0.950 . S
H674 C686 0.950 1_455 S
H675 C687 0.950 1_455 S
C676 H668 0.950 . S
C676 C677 1.379 1_455 S
C676 C678 1.391 . S
C677 C676 1.379 1_655 S
C677 C681 1.402 . S
C678 H670 0.950 . S
C678 C676 1.391 . S
C678 C679 1.400 1_455 S
C679 C678 1.400 1_655 S
C679 C680 1.398 . S
C679 C685 1.491 . S
C680 H671 0.950 . S
C680 C679 1.398 . S
C680 C681 1.391 . S
C681 H669 0.950 . S
C681 C677 1.402 . S
C681 C680 1.391 . S
C682 H672 0.950 . S
C682 C683 1.386 . S
C682 C684 1.391 . S
C683 C682 1.386 . S
C683 C687 1.393 . S
C684 H673 0.950 . S
C684 C682 1.391 . S
C684 C685 1.400 . S
C685 C679 1.491 . S
C685 C684 1.400 . S
C685 C686 1.398 . S
C686 H674 0.950 1_655 S
C686 C685 1.398 . S
C686 C687 1.391 . S
C687 H675 0.950 1_655 S
C687 C683 1.393 . S
C687 C686 1.391 . S
H688 C696 0.950 . S
H689 C701 0.950 . S
H690 C698 0.950 . S
H691 C700 0.950 . S
H692 C702 0.950 . S
H693 C704 0.950 . S
H694 C706 0.950 . S
H695 C707 0.950 . S
C696 H688 0.950 . S
C696 C697 1.367 1_564 S
C696 C698 1.391 . S
C697 C696 1.367 1_546 S
C697 C701 1.412 . S
C698 H690 0.950 . S
C698 C696 1.391 . S
C698 C699 1.400 1_554 S
C699 C698 1.400 1_556 S
C699 C700 1.399 1_565 S
C699 C705 1.491 1_556 S
C700 H691 0.950 . S
C700 C699 1.399 1_545 S
C700 C701 1.391 . S
C701 H689 0.950 . S
C701 C697 1.412 . S
C701 C700 1.391 . S
C702 H692 0.950 . S
C702 C703 1.359 1_546 S
C702 C704 1.391 . S
C703 C702 1.359 1_564 S
C703 C707 1.419 . S
C704 H693 0.950 . S
C704 C702 1.391 . S
C704 C705 1.400 1_546 S
C705 C699 1.491 1_554 S
C705 C704 1.400 1_564 S
C705 C706 1.399 . S
C706 H694 0.950 . S
C706 C705 1.399 . S
C706 C707 1.391 . S
C707 H695 0.950 . S
C707 C703 1.419 . S
C707 C706 1.391 . S
H708 C716 0.950 . S
H709 C721 0.950 . S
H710 C718 0.950 . S
H711 C720 0.950 . S
H712 C722 0.950 . S
H713 C724 0.950 . S
H714 C726 0.950 . S
H715 C727 0.950 . S
C716 H708 0.950 . S
C716 C717 1.386 . S
C716 C718 1.391 . S
C717 C716 1.386 . S
C717 C721 1.393 1_556 S
C718 H710 0.950 . S
C718 C716 1.391 . S
C718 C719 1.400 . S
C719 C718 1.400 . S
C719 C720 1.398 1_556 S
C719 C725 1.491 1_556 S
C720 H711 0.950 . S
C720 C719 1.398 1_554 S
C720 C721 1.391 . S
C721 H709 0.950 . S
C721 C717 1.393 1_554 S
C721 C720 1.391 . S
C722 H712 0.950 . S
C722 C723 1.386 . S
C722 C724 1.391 . S
C723 C722 1.386 . S
C723 C727 1.393 1_554 S
C724 H713 0.950 . S
C724 C722 1.391 . S
C724 C725 1.400 . S
C725 C719 1.491 1_554 S
C725 C724 1.400 . S
C725 C726 1.398 1_554 S
C726 H714 0.950 . S
C726 C725 1.398 1_556 S
C726 C727 1.391 . S
C727 H715 0.950 . S
C727 C723 1.393 1_556 S
C727 C726 1.391 . S
H728 C736 0.950 . S
H729 C741 0.950 . S
H730 C738 0.950 . S
H731 C740 0.950 . S
H732 C742 0.950 . S
H733 C744 0.950 . S
H734 C746 0.950 . S
H735 C747 0.950 . S
C736 H728 0.950 . S
C736 C737 1.386 . S
C736 C738 1.391 . S
C737 C736 1.386 . S
C737 C741 1.393 1_554 S
C738 H730 0.950 . S
C738 C736 1.391 . S
C738 C739 1.400 . S
C739 C738 1.400 . S
C739 C740 1.398 1_554 S
C739 C745 1.491 1_654 S
C740 H731 0.950 . S
C740 C739 1.398 1_556 S
C740 C741 1.391 . S
C741 H729 0.950 . S
C741 C737 1.393 1_556 S
C741 C740 1.391 . S
C742 H732 0.950 . S
C742 C743 1.386 . S
C742 C744 1.391 . S
C743 C742 1.386 . S
C743 C747 1.393 1_556 S
C744 H733 0.950 . S
C744 C742 1.391 . S
C744 C745 1.400 . S
C745 C739 1.491 1_456 S
C745 C744 1.400 . S
C745 C746 1.398 1_556 S
C746 H734 0.950 . S
C746 C745 1.398 1_554 S
C746 C747 1.391 . S
C747 H735 0.950 . S
C747 C743 1.393 1_554 S
C747 C746 1.391 . S
H748 C756 0.950 . S
H749 C761 0.950 . S
H750 C758 0.950 . S
H751 C760 0.950 . S
H752 C762 0.950 . S
H753 C764 0.950 . S
H754 C766 0.950 . S
H755 C767 0.950 . S
C756 H748 0.950 . S
C756 C757 1.384 1_454 S
C756 C758 1.391 . S
C757 C756 1.384 1_656 S
C757 C761 1.394 . S
C758 H750 0.950 . S
C758 C756 1.391 . S
C758 C759 1.394 1_454 S
C759 C758 1.394 1_656 S
C759 C760 1.405 . S
C759 C765 1.490 1_646 S
C760 H751 0.950 . S
C760 C759 1.405 . S
C760 C761 1.391 . S
C761 H749 0.950 . S
C761 C757 1.394 . S
C761 C760 1.391 . S
C762 H752 0.950 . S
C762 C763 1.384 1_556 S
C762 C764 1.391 . S
C763 C762 1.384 1_554 S
C763 C767 1.394 1_655 S
C764 H753 0.950 . S
C764 C762 1.391 . S
C764 C765 1.398 1_656 S
C765 C759 1.490 1_464 S
C765 C764 1.398 1_454 S
C765 C766 1.400 . S
C766 H754 0.950 . S
C766 C765 1.400 . S
C766 C767 1.391 . S
C767 H755 0.950 . S
C767 C763 1.394 1_455 S
C767 C766 1.391 . S
H768 C776 0.950 . S
H769 C781 0.950 . S
H770 C778 0.950 . S
H771 C780 0.950 . S
H772 C782 0.950 . S
H773 C784 0.950 . S
H774 C786 0.950 . S
H775 C787 0.950 . S
C776 H768 0.950 . S
C776 C777 1.386 . S
C776 C778 1.391 . S
C777 C776 1.386 . S
C777 C781 1.393 1_565 S
C778 H770 0.950 . S
C778 C776 1.391 . S
C778 C779 1.405 . S
C779 C778 1.405 . S
C779 C780 1.394 1_565 S
C779 C785 1.491 1_465 S
C780 H771 0.950 . S
C780 C779 1.394 1_545 S
C780 C781 1.391 . S
C781 H769 0.950 . S
C781 C777 1.393 1_545 S
C781 C780 1.391 . S
C782 H772 0.950 . S
C782 C783 1.386 1_545 S
C782 C784 1.391 . S
C783 C782 1.386 1_565 S
C783 C787 1.393 . S
C784 H773 0.950 . S
C784 C782 1.391 . S
C784 C785 1.401 . S
C785 C779 1.491 1_645 S
C785 C784 1.401 . S
C785 C786 1.397 1_545 S
C786 H774 0.950 . S
C786 C785 1.397 1_565 S
C786 C787 1.391 . S
C787 H775 0.950 . S
C787 C783 1.393 . S
C787 C786 1.391 . S
H788 C796 0.950 . S
H789 C801 0.950 . S
H790 C798 0.950 . S
H791 C800 0.950 . S
H792 C802 0.950 . S
H793 C804 0.950 . S
H794 C806 0.950 . S
H795 C807 0.950 . S
C796 H788 0.950 . S
C796 C797 1.386 . S
C796 C798 1.391 . S
C797 C796 1.386 . S
C797 C801 1.393 . S
C798 H790 0.950 . S
C798 C796 1.391 . S
C798 C799 1.400 . S
C799 C798 1.400 . S
C799 C800 1.398 . S
C799 C805 1.491 1_565 S
C800 H791 0.950 . S
C800 C799 1.398 . S
C800 C801 1.391 . S
C801 H789 0.950 . S
C801 C797 1.393 . S
C801 C800 1.391 . S
C802 H792 0.950 . S
C802 C803 1.386 . S
C802 C804 1.391 . S
C803 C802 1.386 . S
C803 C807 1.393 . S
C804 H793 0.950 . S
C804 C802 1.391 . S
C804 C805 1.400 . S
C805 C799 1.491 1_545 S
C805 C804 1.400 . S
C805 C806 1.398 . S
C806 H794 0.950 . S
C806 C805 1.398 . S
C806 C807 1.391 . S
C807 H795 0.950 . S
C807 C803 1.393 . S
C807 C806 1.391 . S
H808 C816 0.950 . S
H809 C821 0.950 . S
H810 C818 0.950 . S
H811 C820 0.950 . S
H812 C822 0.950 . S
H813 C824 0.950 . S
H814 C826 0.950 . S
H815 C827 0.950 . S
C816 H808 0.950 . S
C816 C817 1.386 . S
C816 C818 1.391 . S
C817 C816 1.386 . S
C817 C821 1.393 . S
C818 H810 0.950 . S
C818 C816 1.391 . S
C818 C819 1.400 . S
C819 C818 1.400 . S
C819 C820 1.398 . S
C819 C825 1.491 . S
C820 H811 0.950 . S
C820 C819 1.398 . S
C820 C821 1.391 . S
C821 H809 0.950 . S
C821 C817 1.393 . S
C821 C820 1.391 . S
C822 H812 0.950 . S
C822 C823 1.386 . S
C822 C824 1.391 . S
C823 C822 1.386 . S
C823 C827 1.393 . S
C824 H813 0.950 . S
C824 C822 1.391 . S
C824 C825 1.400 . S
C825 C819 1.491 . S
C825 C824 1.400 . S
C825 C826 1.398 . S
C826 H814 0.950 . S
C826 C825 1.398 . S
C826 C827 1.391 . S
C827 H815 0.950 . S
C827 C823 1.393 . S
C827 C826 1.391 . S
H828 C836 0.950 . S
H829 C841 0.950 . S
H830 C838 0.950 . S
H831 C840 0.950 . S
H832 C842 0.950 . S
H833 C844 0.950 . S
H834 C846 0.950 . S
H835 C847 0.950 . S
C836 H828 0.950 . S
C836 C837 1.386 . S
C836 C838 1.391 . S
C837 C836 1.386 . S
C837 C841 1.393 1_655 S
C838 H830 0.950 . S
C838 C836 1.391 . S
C838 C839 1.405 . S
C839 C838 1.405 . S
C839 C840 1.394 1_655 S
C839 C845 1.490 1_655 S
C840 H831 0.950 . S
C840 C839 1.394 1_455 S
C840 C841 1.391 . S
C841 H829 0.950 . S
C841 C837 1.393 1_455 S
C841 C840 1.391 . S
C842 H832 0.950 . S
C842 C843 1.386 . S
C842 C844 1.391 . S
C843 C842 1.386 . S
C843 C847 1.393 1_455 S
C844 H833 0.950 . S
C844 C842 1.391 . S
C844 C845 1.413 . S
C845 C839 1.490 1_455 S
C845 C844 1.413 . S
C845 C846 1.386 1_455 S
C846 H834 0.950 . S
C846 C845 1.386 1_655 S
C846 C847 1.391 . S
C847 H835 0.950 . S
C847 C843 1.393 1_655 S
C847 C846 1.391 . S
C217 C66 0.758 . S
C223 C10 0.763 . S
C237 C88 0.877 . S
C243 C14 0.876 . S
C257 C36 0.732 . S
C263 C92 0.724 . S
C277 C40 0.630 . S
C283 C62 0.588 . S
C297 C114 0.771 . S
C303 C179 0.731 . S
C317 C192 0.822 . S
C323 C127 0.847 . S
C337 C205 0.721 . S
C343 C140 0.743 . S
C357 C153 0.641 . S
C363 C166 0.627 . S
C377 C5 2.051 1_556 S
C383 C157 2.042 1_565 S
C397 C170 2.083 . S
C403 C16 2.019 1_556 S
C417 C31 2.172 1_556 S
C423 C183 2.173 . S
C437 C42 2.006 1_556 S
C443 C196 2.080 1_655 S
C457 C57 2.092 . S
C463 C105 2.086 1_545 S
C477 C68 2.068 . S
C483 C118 2.165 . S
C497 C83 2.100 . S
C503 C131 2.081 . S
C517 C94 1.968 . S
C523 C144 2.039 1_455 S
C537 C53 1.994 . S
C543 C109 1.948 1_554 S
C557 C75 2.092 . S
C563 C122 2.004 1_554 S
C577 C79 2.141 . S
C583 C135 2.078 1_554 S
C597 C148 2.009 1_554 S
C603 C101 2.084 1_455 S
C617 C1 2.055 . S
C623 C161 2.007 . S
C637 C174 2.072 . S
C643 C23 2.164 . S
C657 C187 2.010 . S
C663 C27 2.071 . S
C677 C49 2.031 1_655 S
C683 C200 1.966 . S
C697 C107 1.501 1_545 S
C703 C3 1.485 . S
C717 C120 1.520 . S
C723 C18 1.520 . S
C737 C29 1.673 . S
C743 C133 1.670 . S
C757 C146 1.670 . S
C763 C44 1.671 1_655 S
C777 C55 1.652 1_565 S
C783 C159 1.672 1_565 S
C797 C172 1.670 . S
C803 C70 1.670 . S
C817 C185 1.510 . S
C823 C81 1.509 . S
C837 C198 1.527 1_655 S
C843 C96 1.528 1_455 S
