# Generated by pormake.
# Topology xfz, (5)-cn, num edge types: 1
# Building blocks:
#     Node 0, Type 0, BuildingBlock: XOMCOT_clean_sbu_0, # of connection points: 5
#     Node 1, Type 0, BuildingBlock: XOMCOT_clean_sbu_0, # of connection points: 5
#     Node 2, Type 0, BuildingBlock: XOMCOT_clean_sbu_0, # of connection points: 5
#     Node 3, Type 0, BuildingBlock: XOMCOT_clean_sbu_0, # of connection points: 5
#     Node 4, Type 0, BuildingBlock: XOMCOT_clean_sbu_0, # of connection points: 5
#     Node 5, Type 0, BuildingBlock: XOMCOT_clean_sbu_0, # of connection points: 5
#     Node 6, Type 0, BuildingBlock: XOMCOT_clean_sbu_0, # of connection points: 5
#     Node 7, Type 0, BuildingBlock: XOMCOT_clean_sbu_0, # of connection points: 5
#     Node 8, Type 0, BuildingBlock: XOMCOT_clean_sbu_0, # of connection points: 5
#     Node 9, Type 0, BuildingBlock: XOMCOT_clean_sbu_0, # of connection points: 5
#     Node 10, Type 0, BuildingBlock: XOMCOT_clean_sbu_0, # of connection points: 5
#     Node 11, Type 0, BuildingBlock: XOMCOT_clean_sbu_0, # of connection points: 5
#     Node 12, Type 0, BuildingBlock: XOMCOT_clean_sbu_0, # of connection points: 5
#     Node 13, Type 0, BuildingBlock: XOMCOT_clean_sbu_0, # of connection points: 5
#     Node 14, Type 0, BuildingBlock: XOMCOT_clean_sbu_0, # of connection points: 5
#     Node 15, Type 0, BuildingBlock: XOMCOT_clean_sbu_0, # of connection points: 5
#     Edge 16, Type (0, 0), BuildingBlock: UVAHIK_clean_linker_0, # of connection points: 2
#     Edge 17, Type (0, 0), BuildingBlock: UVAHIK_clean_linker_0, # of connection points: 2
#     Edge 18, Type (0, 0), BuildingBlock: UVAHIK_clean_linker_0, # of connection points: 2
#     Edge 19, Type (0, 0), BuildingBlock: UVAHIK_clean_linker_0, # of connection points: 2
#     Edge 20, Type (0, 0), BuildingBlock: UVAHIK_clean_linker_0, # of connection points: 2
#     Edge 21, Type (0, 0), BuildingBlock: UVAHIK_clean_linker_0, # of connection points: 2
#     Edge 22, Type (0, 0), BuildingBlock: UVAHIK_clean_linker_0, # of connection points: 2
#     Edge 23, Type (0, 0), BuildingBlock: UVAHIK_clean_linker_0, # of connection points: 2
#     Edge 24, Type (0, 0), BuildingBlock: UVAHIK_clean_linker_0, # of connection points: 2
#     Edge 25, Type (0, 0), BuildingBlock: UVAHIK_clean_linker_0, # of connection points: 2
#     Edge 26, Type (0, 0), BuildingBlock: UVAHIK_clean_linker_0, # of connection points: 2
#     Edge 27, Type (0, 0), BuildingBlock: UVAHIK_clean_linker_0, # of connection points: 2
#     Edge 28, Type (0, 0), BuildingBlock: UVAHIK_clean_linker_0, # of connection points: 2
#     Edge 29, Type (0, 0), BuildingBlock: UVAHIK_clean_linker_0, # of connection points: 2
#     Edge 30, Type (0, 0), BuildingBlock: UVAHIK_clean_linker_0, # of connection points: 2
#     Edge 31, Type (0, 0), BuildingBlock: UVAHIK_clean_linker_0, # of connection points: 2
#     Edge 32, Type (0, 0), BuildingBlock: UVAHIK_clean_linker_0, # of connection points: 2
#     Edge 33, Type (0, 0), BuildingBlock: UVAHIK_clean_linker_0, # of connection points: 2
#     Edge 34, Type (0, 0), BuildingBlock: UVAHIK_clean_linker_0, # of connection points: 2
#     Edge 35, Type (0, 0), BuildingBlock: UVAHIK_clean_linker_0, # of connection points: 2
#     Edge 36, Type (0, 0), BuildingBlock: UVAHIK_clean_linker_0, # of connection points: 2
#     Edge 37, Type (0, 0), BuildingBlock: UVAHIK_clean_linker_0, # of connection points: 2
#     Edge 38, Type (0, 0), BuildingBlock: UVAHIK_clean_linker_0, # of connection points: 2
#     Edge 39, Type (0, 0), BuildingBlock: UVAHIK_clean_linker_0, # of connection points: 2
#     Edge 40, Type (0, 0), BuildingBlock: UVAHIK_clean_linker_0, # of connection points: 2
#     Edge 41, Type (0, 0), BuildingBlock: UVAHIK_clean_linker_0, # of connection points: 2
#     Edge 42, Type (0, 0), BuildingBlock: UVAHIK_clean_linker_0, # of connection points: 2
#     Edge 43, Type (0, 0), BuildingBlock: UVAHIK_clean_linker_0, # of connection points: 2
#     Edge 44, Type (0, 0), BuildingBlock: UVAHIK_clean_linker_0, # of connection points: 2
#     Edge 45, Type (0, 0), BuildingBlock: UVAHIK_clean_linker_0, # of connection points: 2
#     Edge 46, Type (0, 0), BuildingBlock: UVAHIK_clean_linker_0, # of connection points: 2
#     Edge 47, Type (0, 0), BuildingBlock: UVAHIK_clean_linker_0, # of connection points: 2
#     Edge 48, Type (0, 0), BuildingBlock: UVAHIK_clean_linker_0, # of connection points: 2
#     Edge 49, Type (0, 0), BuildingBlock: UVAHIK_clean_linker_0, # of connection points: 2
#     Edge 50, Type (0, 0), BuildingBlock: UVAHIK_clean_linker_0, # of connection points: 2
#     Edge 51, Type (0, 0), BuildingBlock: UVAHIK_clean_linker_0, # of connection points: 2
#     Edge 52, Type (0, 0), BuildingBlock: UVAHIK_clean_linker_0, # of connection points: 2
#     Edge 53, Type (0, 0), BuildingBlock: UVAHIK_clean_linker_0, # of connection points: 2
#     Edge 54, Type (0, 0), BuildingBlock: UVAHIK_clean_linker_0, # of connection points: 2
#     Edge 55, Type (0, 0), BuildingBlock: UVAHIK_clean_linker_0, # of connection points: 2
# Relax obj value: 0.394
# Max RMSD: 0.309
# Mean RMSD: 0.309
data_MOF--net-xfz--node1-XOMCOT_clean_sbu_0--edge1-UVAHIK_clean_linker_0
_symmetry_space_group_name_H-M    P1
_symmetry_Int_Tables_number       1
_symmetry_cell_setting            triclinic
loop_
_symmetry_equiv_pos_as_xyz
'x, y, z'
_cell_length_a     53.000035
_cell_length_b     53.013118
_cell_length_c     73.76548
_cell_angle_alpha  90.00193
_cell_angle_beta   90.000434
_cell_angle_gamma 89.93683
loop_
_atom_site_label
_atom_site_type_symbol
_atom_site_fract_x
_atom_site_fract_y
_atom_site_fract_z
_atom_type_partial_charge
Co0 Co 0.11598 0.4247 0.36697 0.0
C1 C 0.13919 0.45017 0.39829 0.0
C2 C 0.12378 0.47682 0.37954 0.0
C3 C 0.13069 0.48949 0.3951 0.0
N4 N 0.12942 0.45213 0.38147 0.0
N5 N 0.1401 0.47256 0.40694 0.0
H6 H 0.14355 0.43255 0.40477 0.0
H7 H 0.11348 0.48474 0.36824 0.0
C8 C 0.14129 0.45869 0.33977 0.0
O9 O 0.16011 0.46239 0.35106 0.0
N10 N 0.10205 0.39767 0.35278 0.0
C11 C 0.1019 0.37285 0.3567 0.0
C12 C 0.0904 0.36018 0.3426 0.0
C13 C 0.09071 0.39985 0.33655 0.0
N14 N 0.08358 0.37725 0.32994 0.0
C15 C 0.15655 0.39553 0.38182 0.0
C16 C 0.18568 0.39367 0.35082 0.0
C17 C 0.19525 0.38325 0.36689 0.0
C18 C 0.17999 0.38367 0.38239 0.0
C19 C 0.16193 0.40504 0.35083 0.0
N20 N 0.14845 0.40751 0.36653 0.0
H21 H 0.14474 0.39455 0.39368 0.0
H22 H 0.15441 0.41141 0.33806 0.0
H23 H 0.10979 0.36458 0.36884 0.0
H24 H 0.08746 0.41765 0.32979 0.0
O25 O 0.10183 0.41026 0.3889 0.0
O26 O 0.08267 0.43782 0.37087 0.0
O27 O 0.12323 0.44388 0.34399 0.0
C28 C 0.08226 0.42434 0.38558 0.0
H29 H 0.12698 0.50915 0.39806 0.0
H30 H 0.08776 0.33999 0.34155 0.0
H31 H 0.19636 0.39312 0.33832 0.0
H32 H 0.18581 0.37447 0.39482 0.0
Co33 Co 0.42049 0.86836 0.63428 0.0
C34 C 0.44695 0.85085 0.60216 0.0
C35 C 0.47346 0.86147 0.62276 0.0
C36 C 0.48654 0.85609 0.60701 0.0
N37 N 0.44868 0.85821 0.61955 0.0
N38 N 0.4697 0.84972 0.59405 0.0
H39 H 0.42916 0.84774 0.59533 0.0
H40 H 0.48131 0.86879 0.63523 0.0
C41 C 0.43149 0.84912 0.67142 0.0
O42 O 0.40803 0.8412 0.67231 0.0
N43 N 0.39231 0.87936 0.64912 0.0
C44 C 0.3674 0.87426 0.64812 0.0
C45 C 0.35517 0.88688 0.66191 0.0
C46 C 0.39469 0.89539 0.6632 0.0
N47 N 0.37242 0.90014 0.67136 0.0
C48 C 0.38699 0.83098 0.6202 0.0
C49 C 0.412 0.78956 0.63424 0.0
C50 C 0.39055 0.78581 0.62354 0.0
C51 C 0.37816 0.80685 0.6163 0.0
C52 C 0.42036 0.81405 0.63763 0.0
N53 N 0.40712 0.83448 0.63145 0.0
H54 H 0.37788 0.84688 0.61383 0.0
H55 H 0.43801 0.81637 0.64469 0.0
H56 H 0.3583 0.86244 0.63824 0.0
H57 H 0.41265 0.90282 0.66767 0.0
O58 O 0.4056 0.88416 0.61314 0.0
O59 O 0.43142 0.90286 0.63263 0.0
O60 O 0.4398 0.85925 0.65688 0.0
C61 C 0.41829 0.90413 0.61777 0.0
H62 H 0.5066 0.85849 0.60491 0.0
H63 H 0.33511 0.88647 0.66465 0.0
H64 H 0.42261 0.7737 0.6395 0.0
H65 H 0.3617 0.80473 0.60773 0.0
Co66 Co 0.87502 0.5675 0.36723 0.0
C67 C 0.85108 0.53951 0.3965 0.0
C68 C 0.86196 0.51447 0.37501 0.0
C69 C 0.85281 0.50032 0.38928 0.0
N70 N 0.86089 0.53897 0.3797 0.0
N71 N 0.8461 0.51618 0.40281 0.0
H72 H 0.84937 0.55661 0.40441 0.0
H73 H 0.86994 0.50733 0.36253 0.0
C74 C 0.86014 0.561 0.32851 0.0
O75 O 0.85366 0.58494 0.32827 0.0
N76 N 0.89001 0.59597 0.35465 0.0
C77 C 0.88798 0.62104 0.35747 0.0
C78 C 0.90246 0.63347 0.34478 0.0
C79 C 0.90635 0.59361 0.34073 0.0
N80 N 0.91391 0.61615 0.33421 0.0
C81 C 0.83776 0.60305 0.37924 0.0
C82 C 0.79787 0.58244 0.3602 0.0
C83 C 0.79401 0.60448 0.37021 0.0
C84 C 0.81405 0.61439 0.38031 0.0
C85 C 0.82178 0.57156 0.35974 0.0
N86 N 0.84182 0.58299 0.36803 0.0
H87 H 0.85281 0.61034 0.38756 0.0
H88 H 0.82401 0.55379 0.35281 0.0
H89 H 0.87714 0.63007 0.36796 0.0
H90 H 0.9119 0.57558 0.33513 0.0
O91 O 0.88841 0.57946 0.39012 0.0
O92 O 0.90827 0.55406 0.37085 0.0
O93 O 0.86808 0.55085 0.34317 0.0
C94 C 0.90816 0.56588 0.38629 0.0
H95 H 0.85213 0.47994 0.38989 0.0
H96 H 0.9045 0.65371 0.34354 0.0
H97 H 0.78251 0.57365 0.35285 0.0
H98 H 0.8116 0.63108 0.3886 0.0
Co99 Co 0.56504 0.11342 0.6276 0.0
C100 C 0.54224 0.14251 0.59784 0.0
C101 C 0.51422 0.12914 0.6163 0.0
C102 C 0.50227 0.13823 0.60103 0.0
N103 N 0.53938 0.13198 0.61434 0.0
N104 N 0.52005 0.14629 0.58932 0.0
H105 H 0.56017 0.14508 0.59134 0.0
H106 H 0.50531 0.11896 0.62728 0.0
C107 C 0.53605 0.14124 0.65635 0.0
O108 O 0.53455 0.16106 0.64571 0.0
N109 N 0.59027 0.09445 0.64048 0.0
C110 C 0.61457 0.09112 0.63572 0.0
C111 C 0.62649 0.07761 0.64921 0.0
C112 C 0.5876 0.08295 0.65661 0.0
N113 N 0.60949 0.07268 0.66236 0.0
C114 C 0.5993 0.15105 0.61419 0.0
C115 C 0.60803 0.17414 0.64716 0.0
C116 C 0.61914 0.18418 0.63155 0.0
C117 C 0.61502 0.17209 0.61493 0.0
C118 C 0.59243 0.15311 0.64577 0.0
N119 N 0.58686 0.1428 0.62926 0.0
H120 H 0.59785 0.14098 0.60156 0.0
H121 H 0.58548 0.14486 0.65814 0.0
H122 H 0.62314 0.09849 0.62351 0.0
H123 H 0.57002 0.08212 0.66401 0.0
O124 O 0.57658 0.09923 0.60476 0.0
O125 O 0.54705 0.08288 0.62265 0.0
O126 O 0.54788 0.12148 0.65124 0.0
C127 C 0.55994 0.08166 0.6077 0.0
H128 H 0.48234 0.13662 0.59805 0.0
H129 H 0.64627 0.07255 0.64959 0.0
H130 H 0.61135 0.1824 0.66037 0.0
H131 H 0.6244 0.1784 0.60271 0.0
Co132 Co 0.12683 0.56721 0.63386 0.0
C133 C 0.14816 0.53895 0.60357 0.0
C134 C 0.13999 0.51424 0.62586 0.0
C135 C 0.14798 0.49992 0.61132 0.0
N136 N 0.14008 0.53864 0.62085 0.0
N137 N 0.15296 0.51554 0.59729 0.0
H138 H 0.14882 0.5559 0.59542 0.0
H139 H 0.13349 0.50725 0.63881 0.0
C140 C 0.1449 0.5601 0.67192 0.0
O141 O 0.15209 0.58383 0.67199 0.0
N142 N 0.11266 0.59564 0.64697 0.0
C143 C 0.11085 0.62025 0.64236 0.0
C144 C 0.0964 0.63257 0.65518 0.0
C145 C 0.09857 0.59333 0.66209 0.0
N146 N 0.08894 0.61555 0.66761 0.0
C147 C 0.16273 0.60295 0.6206 0.0
C148 C 0.20486 0.58034 0.63562 0.0
C149 C 0.20792 0.60171 0.62474 0.0
C150 C 0.18652 0.61297 0.61708 0.0
C151 C 0.18072 0.57079 0.63864 0.0
N152 N 0.15987 0.58274 0.63185 0.0
H153 H 0.14679 0.6108 0.61354 0.0
H154 H 0.179 0.55318 0.64586 0.0
H155 H 0.11838 0.62878 0.63029 0.0
H156 H 0.09472 0.57548 0.66864 0.0
O157 O 0.11195 0.57933 0.61152 0.0
O158 O 0.09331 0.55387 0.63134 0.0
O159 O 0.13546 0.55038 0.65759 0.0
C160 C 0.09243 0.56587 0.61597 0.0
H161 H 0.14908 0.47954 0.61095 0.0
H162 H 0.09161 0.65243 0.65526 0.0
H163 H 0.22104 0.57059 0.64124 0.0
H164 H 0.18813 0.62928 0.60831 0.0
Co165 Co 0.56606 0.87646 0.36611 0.0
C166 C 0.53796 0.85351 0.39652 0.0
C167 C 0.51322 0.86499 0.37516 0.0
C168 C 0.49882 0.85767 0.38976 0.0
N169 N 0.53785 0.86187 0.37924 0.0
N170 N 0.51447 0.8506 0.40324 0.0
H171 H 0.55466 0.85244 0.40479 0.0
H172 H 0.50616 0.8738 0.36295 0.0
C173 C 0.53605 0.85076 0.33695 0.0
O174 O 0.53365 0.83091 0.34749 0.0
N175 N 0.59366 0.89166 0.35321 0.0
C176 C 0.61848 0.89003 0.35692 0.0
C177 C 0.63158 0.90282 0.34362 0.0
C178 C 0.59187 0.90548 0.33799 0.0
N179 N 0.61475 0.91251 0.33176 0.0
C180 C 0.59306 0.83409 0.38078 0.0
C181 C 0.60211 0.81056 0.34801 0.0
C182 C 0.61068 0.799 0.36397 0.0
C183 C 0.60636 0.81139 0.3805 0.0
C184 C 0.58957 0.8336 0.34889 0.0
N185 N 0.58376 0.84435 0.3652 0.0
H186 H 0.59125 0.84387 0.39348 0.0
H187 H 0.58496 0.84294 0.33633 0.0
H188 H 0.62647 0.87996 0.36831 0.0
H189 H 0.57416 0.9097 0.33136 0.0
O190 O 0.5791 0.88951 0.38881 0.0
O191 O 0.55217 0.90928 0.37056 0.0
O192 O 0.54856 0.86996 0.34231 0.0
C193 C 0.56494 0.90908 0.38561 0.0
H194 H 0.47849 0.85897 0.3907 0.0
H195 H 0.65186 0.90478 0.34276 0.0
H196 H 0.60518 0.80214 0.33483 0.0
H197 H 0.61385 0.80411 0.39311 0.0
Co198 Co 0.87576 0.43214 0.63244 0.0
C199 C 0.84823 0.45596 0.60236 0.0
C200 C 0.86203 0.4835 0.62102 0.0
C201 C 0.85391 0.49573 0.60556 0.0
N202 N 0.85834 0.45846 0.61903 0.0
N203 N 0.8456 0.47823 0.59374 0.0
H204 H 0.84526 0.43814 0.59582 0.0
H205 H 0.87225 0.49205 0.63212 0.0
C206 C 0.84922 0.46221 0.66117 0.0
O207 O 0.82933 0.46386 0.65059 0.0
N208 N 0.89368 0.40628 0.6454 0.0
C209 C 0.89485 0.38157 0.6413 0.0
C210 C 0.91002 0.36978 0.65388 0.0
C211 C 0.90816 0.40933 0.6602 0.0
N212 N 0.91839 0.38729 0.66575 0.0
C213 C 0.83675 0.39964 0.61907 0.0
C214 C 0.81335 0.39135 0.65199 0.0
C215 C 0.80312 0.38053 0.63632 0.0
C216 C 0.81533 0.38449 0.61975 0.0
C217 C 0.83481 0.40643 0.65067 0.0
N218 N 0.84539 0.41169 0.63419 0.0
H219 H 0.84691 0.40072 0.60647 0.0
H220 H 0.84325 0.41312 0.66306 0.0
H221 H 0.88544 0.3728 0.62992 0.0
H222 H 0.91093 0.42731 0.66683 0.0
O223 O 0.88929 0.41956 0.60971 0.0
O224 O 0.90715 0.44859 0.62726 0.0
O225 O 0.86865 0.44985 0.65605 0.0
C226 C 0.90771 0.43528 0.61247 0.0
H227 H 0.85641 0.51556 0.60258 0.0
H228 H 0.91479 0.34993 0.65408 0.0
H229 H 0.80501 0.38804 0.66518 0.0
H230 H 0.80893 0.37525 0.60749 0.0
Co231 Co 0.42245 0.11899 0.36609 0.0
C232 C 0.45201 0.1436 0.39431 0.0
C233 C 0.47572 0.13294 0.372 0.0
C234 C 0.49066 0.14264 0.38564 0.0
N235 N 0.45156 0.13353 0.37759 0.0
N236 N 0.47565 0.14922 0.39968 0.0
H237 H 0.43545 0.14513 0.40282 0.0
H238 H 0.48215 0.12499 0.35931 0.0
C239 C 0.42731 0.13247 0.32687 0.0
O240 O 0.40326 0.13854 0.32671 0.0
N241 N 0.39341 0.10367 0.35447 0.0
C242 C 0.36844 0.10676 0.3573 0.0
C243 C 0.35541 0.09201 0.34508 0.0
C244 C 0.39511 0.08652 0.34103 0.0
N245 N 0.37228 0.07938 0.33483 0.0
C246 C 0.38786 0.15629 0.37921 0.0
C247 C 0.40646 0.19597 0.35893 0.0
C248 C 0.38586 0.20006 0.37038 0.0
C249 C 0.37689 0.18008 0.38095 0.0
C250 C 0.41713 0.17199 0.35787 0.0
N251 N 0.40675 0.15209 0.36701 0.0
H252 H 0.38127 0.14126 0.38786 0.0
H253 H 0.43411 0.16972 0.34999 0.0
H254 H 0.35987 0.11875 0.36734 0.0
H255 H 0.41289 0.08027 0.33538 0.0
O256 O 0.41179 0.10591 0.38942 0.0
O257 O 0.43629 0.08588 0.36967 0.0
O258 O 0.4379 0.12542 0.34158 0.0
C259 C 0.42523 0.08615 0.38539 0.0
H260 H 0.51104 0.14383 0.38547 0.0
H261 H 0.33511 0.09078 0.34382 0.0
H262 H 0.41452 0.21129 0.35112 0.0
H263 H 0.36133 0.18273 0.39028 0.0
Co264 Co 0.61851 0.92368 0.86548 0.0
C265 C 0.64437 0.95163 0.89466 0.0
C266 C 0.6316 0.97638 0.87369 0.0
C267 C 0.64012 0.99077 0.88796 0.0
N268 N 0.63472 0.95175 0.87773 0.0
N269 N 0.64797 0.97511 0.90122 0.0
H270 H 0.64579 0.93497 0.90294 0.0
H271 H 0.62192 0.98346 0.86183 0.0
C272 C 0.6427 0.95274 0.83513 0.0
O273 O 0.66317 0.9555 0.84499 0.0
N274 N 0.60174 0.89624 0.85346 0.0
C275 C 0.6028 0.8715 0.85747 0.0
C276 C 0.58843 0.85855 0.84495 0.0
C277 C 0.58673 0.89815 0.83883 0.0
N278 N 0.57835 0.8754 0.83326 0.0
C279 C 0.66092 0.89575 0.87914 0.0
C280 C 0.6834 0.88711 0.84594 0.0
C281 C 0.6958 0.87891 0.86169 0.0
C282 C 0.68381 0.88278 0.87843 0.0
C283 C 0.66019 0.8993 0.84728 0.0
N284 N 0.6501 0.90513 0.86379 0.0
H285 H 0.6516 0.8975 0.89204 0.0
H286 H 0.65035 0.90384 0.83491 0.0
H287 H 0.61342 0.86346 0.86858 0.0
H288 H 0.58252 0.91585 0.8322 0.0
O289 O 0.60652 0.91168 0.88879 0.0
O290 O 0.58641 0.93864 0.87078 0.0
O291 O 0.62387 0.94035 0.84124 0.0
C292 C 0.58721 0.92637 0.88602 0.0
H293 H 0.63898 0.0111 0.88892 0.0
H294 H 0.58558 0.83835 0.84455 0.0
H295 H 0.69142 0.88426 0.83261 0.0
H296 H 0.69166 0.87545 0.89091 0.0
Co297 Co 0.92885 0.37879 0.12939 0.0
C298 C 0.95224 0.34975 0.09985 0.0
C299 C 0.97998 0.36404 0.11817 0.0
C300 C 0.99209 0.35511 0.1029 0.0
N301 N 0.9549 0.36054 0.11628 0.0
N302 N 0.97449 0.34648 0.09128 0.0
H303 H 0.93437 0.34666 0.09341 0.0
H304 H 0.98867 0.37459 0.12905 0.0
C305 C 0.95845 0.35223 0.15838 0.0
O306 O 0.96023 0.33224 0.14791 0.0
N307 N 0.9033 0.3975 0.1421 0.0
C308 C 0.87865 0.39921 0.13789 0.0
C309 C 0.86693 0.41398 0.15076 0.0
C310 C 0.9064 0.4113 0.15723 0.0
N311 N 0.88444 0.42155 0.16291 0.0
C312 C 0.89548 0.34016 0.11635 0.0
C313 C 0.88721 0.31736 0.14949 0.0
C314 C 0.87636 0.30685 0.13394 0.0
C315 C 0.88024 0.31879 0.11725 0.0
C316 C 0.90237 0.33871 0.14795 0.0
N317 N 0.90771 0.34892 0.13136 0.0
H318 H 0.89669 0.35008 0.10365 0.0
H319 H 0.90915 0.3473 0.16025 0.0
H320 H 0.86982 0.3902 0.12637 0.0
H321 H 0.92429 0.41336 0.16411 0.0
O322 O 0.91691 0.39224 0.10643 0.0
O323 O 0.94613 0.40964 0.12406 0.0
O324 O 0.9462 0.37166 0.15312 0.0
C325 C 0.93314 0.41026 0.10914 0.0
H326 H 0.01196 0.35725 0.09987 0.0
H327 H 0.84711 0.41886 0.15106 0.0
H328 H 0.884 0.30923 0.16276 0.0
H329 H 0.871 0.31212 0.10506 0.0
Co330 Co 0.38252 0.06879 0.86637 0.0
C331 C 0.36007 0.04382 0.89816 0.0
C332 C 0.37478 0.01687 0.87934 0.0
C333 C 0.36811 0.00438 0.89502 0.0
N334 N 0.36938 0.04162 0.88122 0.0
N335 N 0.35915 0.0215 0.90688 0.0
H336 H 0.35608 0.06155 0.90464 0.0
H337 H 0.38474 0.00876 0.86794 0.0
C338 C 0.35666 0.03434 0.83985 0.0
O339 O 0.33798 0.03134 0.85136 0.0
N340 N 0.39613 0.09564 0.85185 0.0
C341 C 0.39638 0.12045 0.85579 0.0
C342 C 0.40725 0.13319 0.84148 0.0
C343 C 0.40678 0.09352 0.83537 0.0
N344 N 0.41359 0.11617 0.82865 0.0
C345 C 0.34185 0.09832 0.88092 0.0
C346 C 0.31384 0.10086 0.84941 0.0
C347 C 0.30445 0.11257 0.86507 0.0
C348 C 0.31906 0.1115 0.88091 0.0
C349 C 0.337 0.08846 0.84994 0.0
N350 N 0.35001 0.08589 0.86582 0.0
H351 H 0.35335 0.09906 0.89294 0.0
H352 H 0.34462 0.08166 0.83732 0.0
H353 H 0.38891 0.12869 0.86808 0.0
H354 H 0.40971 0.07574 0.8285 0.0
O355 O 0.39689 0.08377 0.88805 0.0
O356 O 0.41593 0.0559 0.8702 0.0
O357 O 0.37503 0.04901 0.84366 0.0
C358 C 0.41651 0.06974 0.88473 0.0
H359 H 0.37171 0.98472 0.89802 0.0
H360 H 0.40975 0.15339 0.8404 0.0
H361 H 0.30365 0.10147 0.83671 0.0
H362 H 0.31346 0.12145 0.89308 0.0
Co363 Co 0.07049 0.62095 0.13337 0.0
C364 C 0.04441 0.64069 0.10185 0.0
C365 C 0.01762 0.62736 0.12141 0.0
C366 C 0.00495 0.63333 0.10559 0.0
N367 N 0.04234 0.63194 0.11889 0.0
N368 N 0.02198 0.64139 0.09327 0.0
H369 H 0.06233 0.64486 0.09551 0.0
H370 H 0.00966 0.61857 0.13335 0.0
C371 C 0.05948 0.63785 0.1711 0.0
O372 O 0.0829 0.64587 0.1721 0.0
N373 N 0.09878 0.60912 0.14778 0.0
C374 C 0.12379 0.61329 0.14602 0.0
C375 C 0.13632 0.60048 0.15956 0.0
C376 C 0.09666 0.5932 0.16196 0.0
N377 N 0.11919 0.58793 0.16959 0.0
C378 C 0.10406 0.65965 0.12095 0.0
C379 C 0.08006 0.69938 0.13809 0.0
C380 C 0.10212 0.70393 0.12829 0.0
C381 C 0.11379 0.68395 0.11917 0.0
C382 C 0.07067 0.67488 0.13913 0.0
N383 N 0.08373 0.65507 0.13181 0.0
H384 H 0.11282 0.64453 0.11345 0.0
H385 H 0.05271 0.67204 0.14568 0.0
H386 H 0.13273 0.62448 0.1357 0.0
H387 H 0.07874 0.58626 0.1669 0.0
O388 O 0.08549 0.60658 0.11171 0.0
O389 O 0.05979 0.58656 0.13061 0.0
O390 O 0.0511 0.62846 0.15631 0.0
C391 C 0.07295 0.58626 0.11574 0.0
H392 H 0.98514 0.63006 0.10292 0.0
H393 H 0.15652 0.60027 0.16172 0.0
H394 H 0.07005 0.71466 0.14469 0.0
H395 H 0.13055 0.68701 0.11106 0.0
Co396 Co 0.61479 0.06415 0.13014 0.0
C397 C 0.64203 0.03998 0.10002 0.0
C398 C 0.62951 0.01275 0.11937 0.0
C399 C 0.63787 0.00018 0.10413 0.0
N400 N 0.63236 0.03781 0.11685 0.0
N401 N 0.6454 0.01745 0.09187 0.0
H402 H 0.64419 0.05763 0.09306 0.0
H403 H 0.61978 0.00429 0.13072 0.0
C404 C 0.64101 0.03437 0.15924 0.0
O405 O 0.66137 0.03322 0.1491 0.0
N406 N 0.59671 0.08994 0.14307 0.0
C407 C 0.59574 0.11473 0.1392 0.0
C408 C 0.58057 0.12639 0.15186 0.0
C409 C 0.58212 0.08672 0.1578 0.0
N410 N 0.57202 0.10872 0.16354 0.0
C411 C 0.65473 0.09594 0.11715 0.0
C412 C 0.67666 0.10486 0.1505 0.0
C413 C 0.68783 0.11506 0.13495 0.0
C414 C 0.67634 0.11081 0.11814 0.0
C415 C 0.65503 0.09009 0.14887 0.0
N416 N 0.64519 0.08448 0.13221 0.0
H417 H 0.64515 0.09461 0.10433 0.0
H418 H 0.64593 0.0838 0.16112 0.0
H419 H 0.60536 0.12365 0.12798 0.0
H420 H 0.57925 0.06865 0.16427 0.0
O421 O 0.60155 0.07687 0.10735 0.0
O422 O 0.58347 0.04777 0.12472 0.0
O423 O 0.62152 0.04632 0.15374 0.0
C424 C 0.58305 0.06117 0.10998 0.0
H425 H 0.63608 0.98015 0.1016 0.0
H426 H 0.576 0.14628 0.15228 0.0
H427 H 0.68443 0.10835 0.16385 0.0
H428 H 0.6835 0.11958 0.10591 0.0
Co429 Co 0.06933 0.37611 0.86733 0.0
C430 C 0.04094 0.35074 0.89582 0.0
C431 C 0.0166 0.36058 0.87366 0.0
C432 C 0.00214 0.35056 0.88745 0.0
N433 N 0.04084 0.36071 0.87906 0.0
N434 N 0.01754 0.34449 0.9014 0.0
H435 H 0.05766 0.34974 0.9042 0.0
H436 H 0.00976 0.36829 0.86101 0.0
C437 C 0.06433 0.36193 0.82824 0.0
O438 O 0.08851 0.3564 0.82799 0.0
N439 N 0.09772 0.39233 0.85547 0.0
C440 C 0.12265 0.39158 0.85917 0.0
C441 C 0.13515 0.40694 0.84706 0.0
C442 C 0.09545 0.4088 0.84162 0.0
N443 N 0.11797 0.41769 0.83599 0.0
C444 C 0.10578 0.33999 0.87974 0.0
C445 C 0.08767 0.29979 0.85976 0.0
C446 C 0.10942 0.29655 0.87023 0.0
C447 C 0.11806 0.31675 0.88077 0.0
C448 C 0.07587 0.32326 0.85931 0.0
N449 N 0.08605 0.34351 0.86813 0.0
H450 H 0.11206 0.35509 0.88842 0.0
H451 H 0.05833 0.32493 0.85199 0.0
H452 H 0.1315 0.38116 0.86995 0.0
H453 H 0.07753 0.41365 0.83552 0.0
O454 O 0.07989 0.38958 0.89056 0.0
O455 O 0.05453 0.40875 0.8709 0.0
O456 O 0.05377 0.36905 0.84295 0.0
C457 C 0.06579 0.4089 0.88655 0.0
H458 H 0.98181 0.3488 0.88743 0.0
H459 H 0.1553 0.41015 0.84662 0.0
H460 H 0.07979 0.28427 0.85207 0.0
H461 H 0.13445 0.31479 0.88943 0.0
Co462 Co 0.37231 0.92485 0.1337 0.0
C463 C 0.35057 0.95471 0.10372 0.0
C464 C 0.36211 0.97836 0.12567 0.0
C465 C 0.35536 0.99347 0.11128 0.0
N466 N 0.35858 0.95397 0.12108 0.0
N467 N 0.34823 0.97849 0.09743 0.0
H468 H 0.34941 0.93837 0.0951 0.0
H469 H 0.37085 0.98476 0.13808 0.0
C470 C 0.34759 0.95452 0.16355 0.0
O471 O 0.32776 0.95801 0.15315 0.0
N472 N 0.38674 0.89647 0.14616 0.0
C473 C 0.38365 0.8717 0.14276 0.0
C474 C 0.39721 0.85822 0.15549 0.0
C475 C 0.40217 0.89783 0.16056 0.0
N476 N 0.40888 0.87476 0.1666 0.0
C477 C 0.32916 0.90033 0.11829 0.0
C478 C 0.30419 0.89155 0.15054 0.0
C479 C 0.29225 0.88517 0.1342 0.0
C480 C 0.30544 0.88906 0.11796 0.0
C481 C 0.32818 0.90234 0.15024 0.0
N482 N 0.33961 0.90824 0.13419 0.0
H483 H 0.33935 0.90196 0.10575 0.0
H484 H 0.33753 0.90579 0.16299 0.0
H485 H 0.37222 0.86403 0.13195 0.0
H486 H 0.40791 0.91543 0.16673 0.0
O487 O 0.385 0.91215 0.11081 0.0
O488 O 0.40557 0.93785 0.12946 0.0
O489 O 0.36636 0.94162 0.15786 0.0
C490 C 0.40497 0.9256 0.11419 0.0
H491 H 0.3571 0.01378 0.11075 0.0
H492 H 0.39846 0.83788 0.15645 0.0
H493 H 0.29517 0.88836 0.1635 0.0
H494 H 0.29783 0.88297 0.10507 0.0
Co495 Co 0.92696 0.62081 0.86564 0.0
C496 C 0.95665 0.64077 0.89562 0.0
C497 C 0.98086 0.62898 0.8739 0.0
C498 C 0.99561 0.63601 0.88848 0.0
N499 N 0.95649 0.63194 0.87853 0.0
N500 N 0.98027 0.64327 0.90217 0.0
H501 H 0.93966 0.64354 0.90351 0.0
H502 H 0.98742 0.6211 0.86122 0.0
C503 C 0.9357 0.63621 0.82715 0.0
O504 O 0.9125 0.64497 0.82661 0.0
N505 N 0.8974 0.60885 0.85268 0.0
C506 C 0.87259 0.6126 0.85584 0.0
C507 C 0.85886 0.59964 0.84299 0.0
C508 C 0.89826 0.59297 0.8384 0.0
N509 N 0.87508 0.58738 0.83201 0.0
C510 C 0.8946 0.66062 0.87802 0.0
C511 C 0.91797 0.69901 0.85905 0.0
C512 C 0.89595 0.70428 0.86878 0.0
C513 C 0.88475 0.68498 0.87893 0.0
C514 C 0.92735 0.67445 0.85876 0.0
N515 N 0.91442 0.65522 0.86689 0.0
H516 H 0.8862 0.6461 0.88627 0.0
H517 H 0.94502 0.67102 0.85194 0.0
H518 H 0.86459 0.62345 0.86674 0.0
H519 H 0.91571 0.58617 0.83254 0.0
O520 O 0.91355 0.60782 0.88823 0.0
O521 O 0.93737 0.58641 0.8688 0.0
O522 O 0.94457 0.62691 0.84182 0.0
C523 C 0.92547 0.5871 0.88421 0.0
H524 H 0.01597 0.63489 0.88913 0.0
H525 H 0.8385 0.59906 0.84201 0.0
H526 H 0.92774 0.71372 0.85166 0.0
H527 H 0.86805 0.68847 0.88702 0.0
C528 C 0.92061 0.5521 0.41717 0.0
C529 C 0.92765 0.56034 0.3998 0.0
C530 C 0.93798 0.53916 0.42804 0.0
C531 C 0.00482 0.51843 0.43123 0.0
H532 H 0.97702 0.45083 0.42973 0.0
C533 C 0.0375 0.43127 0.39346 0.0
C534 C 0.06256 0.4288 0.39913 0.0
C535 C 0.01986 0.44308 0.40461 0.0
C536 C 0.98502 0.46956 0.43088 0.0
H537 H 0.95846 0.5641 0.38081 0.0
H538 H 0.98904 0.54249 0.39993 0.0
H539 H 0.94871 0.48706 0.42993 0.0
H540 H 0.08877 0.43493 0.4212 0.0
H541 H 0.05803 0.45672 0.44053 0.0
H542 H 0.04114 0.50094 0.43024 0.0
C543 C 0.97025 0.54574 0.40524 0.0
C544 C 0.96882 0.49035 0.43107 0.0
C545 C 0.95277 0.55801 0.39422 0.0
C546 C 0.06936 0.43635 0.41671 0.0
C547 C 0.05185 0.44886 0.42772 0.0
C548 C 0.02102 0.49763 0.43124 0.0
C549 C 0.96268 0.53495 0.42179 0.0
C550 C 0.97865 0.51491 0.42976 0.0
C551 C 0.02723 0.45329 0.42139 0.0
C552 C 0.0112 0.47311 0.42958 0.0
H553 H 0.90115 0.55343 0.42159 0.0
H554 H 0.93166 0.53087 0.44067 0.0
H555 H 0.01282 0.53719 0.43037 0.0
H556 H 0.032 0.42576 0.37987 0.0
H557 H 0.00114 0.44652 0.39924 0.0
C558 C 0.53949 0.07148 0.57853 0.0
C559 C 0.55276 0.06326 0.5939 0.0
C560 C 0.52427 0.05459 0.56891 0.0
C561 C 0.4763 0.023 0.57184 0.0
H562 H 0.4872 0.95093 0.56774 0.0
C563 C 0.42632 0.94953 0.61238 0.0
C564 C 0.42167 0.92546 0.60534 0.0
C565 C 0.43627 0.96836 0.60132 0.0
C566 C 0.48364 0.97105 0.56822 0.0
H567 H 0.56278 0.03108 0.61035 0.0
H568 H 0.53714 0.00134 0.59325 0.0
H569 H 0.52263 0.97976 0.56382 0.0
H570 H 0.42197 0.90245 0.58108 0.0
H571 H 0.44057 0.93522 0.5618 0.0
H572 H 0.43793 0.01409 0.57832 0.0
C573 C 0.53829 0.02065 0.5885 0.0
C574 C 0.50397 0.98753 0.56605 0.0
C575 C 0.55296 0.03762 0.59835 0.0
C576 C 0.42523 0.92101 0.58674 0.0
C577 C 0.43589 0.93968 0.57573 0.0
C578 C 0.45605 0.00651 0.57423 0.0
C579 C 0.52259 0.02926 0.57442 0.0
C580 C 0.50079 0.01348 0.56909 0.0
C581 C 0.44237 0.9632 0.58314 0.0
C582 C 0.45997 0.98034 0.57366 0.0
H583 H 0.53876 0.09135 0.57515 0.0
H584 H 0.51227 0.06171 0.55817 0.0
H585 H 0.47326 0.04292 0.57432 0.0
H586 H 0.42379 0.9533 0.62671 0.0
H587 H 0.44138 0.98621 0.60746 0.0
C588 C 0.95234 0.43996 0.60371 0.0
C589 C 0.92689 0.44047 0.59874 0.0
C590 C 0.97031 0.45179 0.59288 0.0
C591 C 0.97235 0.50986 0.57054 0.0
H592 H 0.04356 0.49334 0.56895 0.0
C593 C 0.07693 0.55531 0.58509 0.0
C594 C 0.07169 0.56133 0.60325 0.0
C595 C 0.05818 0.54463 0.57416 0.0
C596 C 0.02374 0.49837 0.56865 0.0
H597 H 0.90006 0.45214 0.57829 0.0
H598 H 0.93151 0.47393 0.55956 0.0
H599 H 0.01234 0.45968 0.56714 0.0
H600 H 0.04276 0.56325 0.62386 0.0
H601 H 0.00978 0.54557 0.60468 0.0
H602 H 0.98384 0.54822 0.5743 0.0
C603 C 0.93768 0.46371 0.57148 0.0
C604 C 0.00589 0.47906 0.56768 0.0
C605 C 0.91976 0.45124 0.58214 0.0
C606 C 0.04708 0.55881 0.60986 0.0
C607 C 0.02823 0.54886 0.59882 0.0
C608 C 0.9902 0.52912 0.57172 0.0
C609 C 0.96294 0.46501 0.57721 0.0
C610 C 0.98016 0.48452 0.57001 0.0
C611 C 0.03389 0.54058 0.58117 0.0
C612 C 0.01603 0.52327 0.57216 0.0
H613 H 0.95805 0.43198 0.6166 0.0
H614 H 0.98954 0.45281 0.59782 0.0
H615 H 0.95263 0.51464 0.57238 0.0
H616 H 0.09596 0.55685 0.57984 0.0
H617 H 0.06302 0.53816 0.56067 0.0
C618 C 0.55887 0.95372 0.39404 0.0
C619 C 0.56007 0.92842 0.39934 0.0
C620 C 0.54702 0.97143 0.40511 0.0
C621 C 0.52013 0.00652 0.43083 0.0
H622 H 0.45173 0.98077 0.42894 0.0
C623 C 0.4394 0.07332 0.41615 0.0
C624 C 0.43104 0.06654 0.39876 0.0
C625 C 0.45198 0.05564 0.42699 0.0
C626 C 0.47069 0.9882 0.43016 0.0
H627 H 0.55157 0.90172 0.42069 0.0
H628 H 0.52978 0.93266 0.43988 0.0
H629 H 0.4871 0.9514 0.4293 0.0
H630 H 0.42682 0.03593 0.37964 0.0
H631 H 0.44783 0.00486 0.39869 0.0
H632 H 0.50374 0.04335 0.42973 0.0
C633 C 0.53863 0.93894 0.42743 0.0
C634 C 0.49099 0.97139 0.43046 0.0
C635 C 0.55113 0.92132 0.41651 0.0
C636 C 0.43303 0.04144 0.39307 0.0
C637 C 0.44494 0.02367 0.40405 0.0
C638 C 0.49982 0.02334 0.43069 0.0
C639 C 0.53551 0.96392 0.42143 0.0
C640 C 0.51585 0.98047 0.42931 0.0
C641 C 0.4557 0.03089 0.42069 0.0
C642 C 0.47504 0.01426 0.42888 0.0
H643 H 0.56546 0.95945 0.38075 0.0
H644 H 0.54463 0.99042 0.39997 0.0
H645 H 0.53913 0.01397 0.43012 0.0
H646 H 0.43832 0.09275 0.42066 0.0
H647 H 0.46026 0.0617 0.43969 0.0
C648 C 0.57798 0.94275 0.91678 0.0
C649 C 0.56918 0.93263 0.90037 0.0
C650 C 0.56172 0.95686 0.9278 0.0
C651 C 0.49523 0.97858 0.93283 0.0
H652 H 0.52371 0.0454 0.92682 0.0
C653 C 0.46153 0.06297 0.89189 0.0
C654 C 0.43673 0.06602 0.89801 0.0
C655 C 0.47959 0.05186 0.90307 0.0
C656 C 0.51557 0.02695 0.92919 0.0
H657 H 0.53651 0.92685 0.88336 0.0
H658 H 0.5079 0.95046 0.9028 0.0
H659 H 0.55154 0.00885 0.92783 0.0
H660 H 0.41151 0.06177 0.92087 0.0
H661 H 0.44298 0.04125 0.94032 0.0
H662 H 0.4591 0.99648 0.93221 0.0
C663 C 0.52718 0.94777 0.90728 0.0
C664 C 0.53151 0.00597 0.92987 0.0
C665 C 0.54353 0.93431 0.89608 0.0
C666 C 0.43068 0.05983 0.916 0.0
C667 C 0.44862 0.04805 0.92708 0.0
C668 C 0.4793 -0.00042 0.93231 0.0
C669 C 0.53642 0.96045 0.92267 0.0
C670 C 0.52131 0.9815 0.93019 0.0
C671 C 0.47293 0.04296 0.92038 0.0
C672 C 0.48928 0.02371 0.92899 0.0
H673 H 0.59786 0.94198 0.92015 0.0
H674 H 0.56933 0.96654 0.93951 0.0
H675 H 0.48694 0.95992 0.93328 0.0
H676 H 0.46648 0.06746 0.878 0.0
H677 H 0.49804 0.04792 0.8974 0.0
C678 C 0.94009 0.45424 0.09958 0.0
C679 C 0.93972 0.42861 0.09512 0.0
C680 C 0.95397 0.47113 0.0891 0.0
C681 C 0.98617 0.5042 0.06517 0.0
H682 H 0.05313 0.4776 0.07442 0.0
C683 C 0.065 0.5708 0.08446 0.0
C684 C 0.06983 0.5655 0.10279 0.0
C685 C 0.05418 0.5524 0.0733 0.0
C686 C 0.0347 0.48521 0.07116 0.0
H687 H 0.9519 0.40044 0.07578 0.0
H688 H 0.9771 0.42994 0.05768 0.0
H689 H 0.01758 0.44877 0.07173 0.0
H690 H 0.06989 0.53652 0.12341 0.0
H691 H 0.05203 0.50414 0.10388 0.0
H692 H 0.00294 0.5408 0.06648 0.0
C693 C 0.9661 0.43712 0.06893 0.0
C694 C 0.01431 0.46871 0.06952 0.0
C695 C 0.95162 0.42031 0.07921 0.0
C696 C 0.06639 0.54094 0.10929 0.0
C697 C 0.05627 0.5224 0.09804 0.0
C698 C 0.00661 0.52069 0.06663 0.0
C699 C 0.96835 0.46245 0.07432 0.0
C700 C 0.98962 0.47822 0.06795 0.0
C701 C 0.04878 0.52834 0.08025 0.0
C702 C 0.03068 0.51139 0.07105 0.0
H703 H 0.9313 0.46086 0.11197 0.0
H704 H 0.9556 0.49043 0.09378 0.0
H705 H 0.96734 0.51197 0.06381 0.0
H706 H 0.06732 0.58975 0.07925 0.0
H707 H 0.04845 0.55747 0.05968 0.0
C708 C 0.44963 0.93202 0.10578 0.0
C709 C 0.42436 0.93025 0.10045 0.0
C710 C 0.46734 0.94303 0.09429 0.0
C711 C 0.46791 0.99655 0.06626 0.0
H712 H 0.53969 0.98266 0.06754 0.0
C713 C 0.57085 0.04632 0.07934 0.0
C714 C 0.56379 0.0562 0.09624 0.0
C715 C 0.55304 0.03381 0.0686 0.0
C716 C 0.51974 0.98686 0.06639 0.0
H717 H 0.39775 0.93701 0.0787 0.0
H718 H 0.4287 0.95737 0.05875 0.0
H719 H 0.50981 0.94787 0.06885 0.0
H720 H 0.53273 0.06315 0.11455 0.0
H721 H 0.50147 0.04225 0.09567 0.0
H722 H 0.47786 0.03569 0.06587 0.0
C723 C 0.43493 0.94959 0.07158 0.0
C724 C 0.50263 0.96688 0.06724 0.0
C725 C 0.4173 0.9379 0.08294 0.0
C726 C 0.53842 0.05585 0.10144 0.0
C727 C 0.52055 0.04396 0.09056 0.0
C728 C 0.48503 0.01655 0.06555 0.0
C729 C 0.45989 0.95311 0.07747 0.0
C730 C 0.47665 0.97172 0.06862 0.0
C731 C 0.52793 0.03156 0.07454 0.0
C732 C 0.51104 0.01191 0.06706 0.0
H733 H 0.45535 0.92639 0.11929 0.0
H734 H 0.48632 0.94581 0.09935 0.0
H735 H 0.44798 0.00087 0.06726 0.0
H736 H 0.59048 0.04609 0.07529 0.0
H737 H 0.55924 0.02429 0.05639 0.0
C738 C 0.93742 0.5734 0.91521 0.0
C739 C 0.92962 0.56709 0.89759 0.0
C740 C 0.94937 0.55535 0.92609 0.0
C741 C 0.99699 0.52303 0.92992 0.0
H742 H 0.98458 0.45106 0.9278 0.0
C743 C 0.05789 0.45354 0.89424 0.0
C744 C 0.05948 0.42838 0.89987 0.0
C745 C 0.0452 0.4712 0.90485 0.0
C746 C 0.98834 0.47106 0.92915 0.0
H747 H 0.92551 0.53686 0.87815 0.0
H748 H 0.94541 0.50514 0.89726 0.0
H749 H 0.94909 0.48033 0.92715 0.0
H750 H 0.05065 0.40194 0.92131 0.0
H751 H 0.02735 0.4328 0.93967 0.0
H752 H 0.03634 0.51379 0.92981 0.0
C753 C 0.94258 0.52389 0.90276 0.0
C754 C 0.96799 0.48781 0.92869 0.0
C755 C 0.93128 0.54203 0.89175 0.0
C756 C 0.04992 0.42143 0.9169 0.0
C757 C 0.03656 0.43899 0.92734 0.0
C758 C 0.01734 0.50628 0.9302 0.0
C759 C 0.95304 0.5307 0.91958 0.0
C760 C 0.97227 0.51391 0.92773 0.0
C761 C 0.03323 0.46378 0.92102 0.0
C762 C 0.0132 0.48024 0.92848 0.0
H763 H 0.93661 0.59278 0.91986 0.0
H764 H 0.95739 0.56109 0.93895 0.0
H765 H 0.00088 0.54306 0.92919 0.0
H766 H 0.06498 0.45915 0.88107 0.0
H767 H 0.04264 0.49005 0.89948 0.0
C768 C 0.22921 0.35683 0.35255 0.0
C769 C 0.22044 0.37099 0.3674 0.0
C770 C 0.25211 0.3439 0.35358 0.0
C771 C 0.29021 0.31128 0.38604 0.0
H772 H 0.34053 0.30915 0.34792 0.0
C773 C 0.36838 0.2367 0.3876 0.0
C774 C 0.37335 0.22488 0.37098 0.0
C775 C 0.35458 0.25913 0.38814 0.0
C776 C 0.32659 0.30942 0.35865 0.0
H777 H 0.22964 0.38377 0.39459 0.0
H778 H 0.26915 0.36025 0.39657 0.0
H779 H 0.30668 0.34041 0.34659 0.0
H780 H 0.36856 0.22725 0.34189 0.0
H781 H 0.34356 0.2657 0.34276 0.0
H782 H 0.30869 0.27935 0.39752 0.0
C783 C 0.25823 0.35933 0.38417 0.0
C784 C 0.30735 0.32741 0.35791 0.0
C785 C 0.23552 0.37257 0.38306 0.0
C786 C 0.36507 0.23618 0.35486 0.0
C787 C 0.3509 0.25834 0.3554 0.0
C788 C 0.30914 0.29304 0.38663 0.0
C789 C 0.26651 0.34463 0.36953 0.0
C790 C 0.28875 0.32812 0.37142 0.0
C791 C 0.34506 0.26985 0.37207 0.0
C792 C 0.32724 0.29149 0.37272 0.0
H793 H 0.21798 0.35486 0.34038 0.0
H794 H 0.25798 0.33237 0.34221 0.0
H795 H 0.27587 0.31131 0.39652 0.0
H796 H 0.37491 0.22841 0.40019 0.0
H797 H 0.35093 0.26775 0.40119 0.0
C798 C 0.25018 0.61616 0.63555 0.0
C799 C 0.23325 0.61221 0.6212 0.0
C800 C 0.27289 0.62879 0.63255 0.0
C801 C 0.2977 0.67681 0.60216 0.0
H802 H 0.35926 0.66679 0.62966 0.0
C803 C 0.37306 0.75315 0.60258 0.0
C804 C 0.38082 0.76017 0.62007 0.0
C805 C 0.36081 0.73022 0.59976 0.0
C806 C 0.34222 0.66976 0.62184 0.0
H807 H 0.22759 0.61635 0.59225 0.0
H808 H 0.26738 0.63827 0.58697 0.0
H809 H 0.32654 0.63429 0.63002 0.0
H810 H 0.38327 0.74823 0.6481 0.0
H811 H 0.36134 0.70843 0.6433 0.0
H812 H 0.31257 0.71264 0.59466 0.0
C813 C 0.26287 0.63215 0.60059 0.0
C814 C 0.32352 0.65118 0.62205 0.0
C815 C 0.2401 0.61968 0.60361 0.0
C816 C 0.37752 0.74321 0.63448 0.0
C817 C 0.36508 0.72035 0.63169 0.0
C818 C 0.31631 0.69531 0.60197 0.0
C819 C 0.27912 0.63756 0.61513 0.0
C820 C 0.30077 0.65487 0.61261 0.0
C821 C 0.35587 0.71399 0.6144 0.0
C822 C 0.33846 0.69234 0.61221 0.0
H823 H 0.24529 0.61064 0.64924 0.0
H824 H 0.28485 0.63293 0.64408 0.0
H825 H 0.28025 0.68047 0.59499 0.0
H826 H 0.37586 0.76572 0.59118 0.0
H827 H 0.35438 0.72561 0.58622 0.0
C828 C 0.64108 0.76965 0.34847 0.0
C829 C 0.62531 0.77504 0.36331 0.0
C830 C 0.65567 0.7478 0.34819 0.0
C831 C 0.66681 0.68655 0.37204 0.0
H832 H 0.73321 0.69431 0.35066 0.0
C833 C 0.75797 0.62696 0.38508 0.0
C834 C 0.76969 0.61793 0.36928 0.0
C835 C 0.73668 0.64242 0.38384 0.0
C836 C 0.71462 0.69186 0.35652 0.0
H837 H 0.61192 0.76081 0.3892 0.0
H838 H 0.63888 0.7238 0.38935 0.0
H839 H 0.70361 0.7292 0.34955 0.0
H840 H 0.76803 0.61703 0.33992 0.0
H841 H 0.73118 0.64466 0.33779 0.0
H842 H 0.67904 0.64947 0.37998 0.0
C843 C 0.63938 0.73609 0.37764 0.0
C844 C 0.69752 0.71175 0.35578 0.0
C845 C 0.62424 0.75767 0.37772 0.0
C846 C 0.7592 0.62364 0.35229 0.0
C847 C 0.73823 0.63941 0.35105 0.0
C848 C 0.68425 0.66678 0.37313 0.0
C849 C 0.65557 0.73108 0.36298 0.0
C850 C 0.67334 0.70938 0.36346 0.0
C851 C 0.72721 0.64931 0.36679 0.0
C852 C 0.70818 0.66937 0.3653 0.0
H853 H 0.64283 0.78259 0.3372 0.0
H854 H 0.66738 0.7443 0.33642 0.0
H855 H 0.64828 0.68389 0.3779 0.0
H856 H 0.76569 0.62264 0.39832 0.0
H857 H 0.72848 0.6501 0.39611 0.0
C858 C 0.76193 0.36539 0.62393 0.0
C859 C 0.78078 0.36392 0.63727 0.0
C860 C 0.74179 0.3485 0.62401 0.0
C861 C 0.70786 0.30232 0.65247 0.0
H862 H 0.69265 0.27054 0.60639 0.0
C863 C 0.65316 0.20906 0.64681 0.0
C864 C 0.6356 0.20663 0.63266 0.0
C865 C 0.66881 0.23014 0.64777 0.0
C866 C 0.69637 0.27951 0.6193 0.0
H867 H 0.79311 0.34394 0.66136 0.0
H868 H 0.75794 0.31438 0.66149 0.0
H869 H 0.72335 0.30461 0.6076 0.0
H870 H 0.62025 0.22453 0.60863 0.0
H871 H 0.64768 0.26141 0.61028 0.0
H872 H 0.68118 0.27684 0.66421 0.0
C873 C 0.75855 0.32882 0.65111 0.0
C874 C 0.71394 0.29903 0.62 0.0
C875 C 0.77869 0.34573 0.65104 0.0
C876 C 0.63387 0.22576 0.61955 0.0
C877 C 0.64952 0.24686 0.62051 0.0
C878 C 0.69027 0.28279 0.65178 0.0
C879 C 0.74012 0.32979 0.63744 0.0
C880 C 0.72008 0.31043 0.63662 0.0
C881 C 0.66721 0.2492 0.63459 0.0
C882 C 0.68459 0.27099 0.63521 0.0
H883 H 0.76288 0.37949 0.61332 0.0
H884 H 0.72763 0.34992 0.61347 0.0
H885 H 0.712 0.31101 0.66543 0.0
H886 H 0.65518 0.19442 0.65696 0.0
H887 H 0.68258 0.23122 0.65859 0.0
C888 C 0.87843 0.73904 0.84997 0.0
C889 C 0.8835 0.72908 0.86723 0.0
C890 C 0.86263 0.7599 0.84809 0.0
C891 C 0.83244 0.81353 0.86936 0.0
H892 H 0.77165 0.79104 0.84502 0.0
C893 C 0.73813 0.86747 0.87485 0.0
C894 C 0.7205 0.86556 0.86065 0.0
C895 C 0.76066 0.85381 0.87435 0.0
C896 C 0.78862 0.79806 0.85143 0.0
H897 H 0.8779 0.73414 0.8961 0.0
H898 H 0.85044 0.77113 0.89278 0.0
H899 H 0.80814 0.76352 0.84619 0.0
H900 H 0.71349 0.8481 0.83444 0.0
H901 H 0.75334 0.82622 0.83291 0.0
H902 H 0.8132 0.84832 0.87435 0.0
C903 C 0.85861 0.76262 0.88078 0.0
C904 C 0.80947 0.78214 0.85218 0.0
C905 C 0.87409 0.74144 0.88266 0.0
C906 C 0.72655 0.85045 0.84559 0.0
C907 C 0.74935 0.83739 0.84486 0.0
C908 C 0.81172 0.82982 0.86824 0.0
C909 C 0.85206 0.77136 0.86345 0.0
C910 C 0.83136 0.78961 0.86134 0.0
C911 C 0.76645 0.83835 0.85943 0.0
C912 C 0.78936 0.82211 0.85949 0.0
H913 H 0.88532 0.72971 0.83787 0.0
H914 H 0.85768 0.76638 0.83462 0.0
H915 H 0.84924 0.81955 0.87651 0.0
H916 H 0.73453 0.87936 0.8865 0.0
H917 H 0.77314 0.85491 0.88594 0.0
C918 C 0.71257 0.1494 0.15002 0.0
C919 C 0.71053 0.13118 0.13626 0.0
C920 C 0.73329 0.16557 0.15059 0.0
C921 C 0.78063 0.19358 0.12076 0.0
H922 H 0.81189 0.21449 0.16585 0.0
C923 C 0.86219 0.26496 0.12215 0.0
C924 C 0.86018 0.2842 0.13516 0.0
C925 C 0.84635 0.24399 0.12291 0.0
C926 C 0.80324 0.20889 0.15317 0.0
H927 H 0.72905 0.11488 0.1128 0.0
H928 H 0.76528 0.14322 0.1138 0.0
H929 H 0.7798 0.18146 0.16617 0.0
H930 H 0.84013 0.29657 0.15921 0.0
H931 H 0.81235 0.26002 0.16047 0.0
H932 H 0.80357 0.22134 0.10778 0.0
C933 C 0.75066 0.1452 0.12396 0.0
C934 C 0.78492 0.19001 0.15336 0.0
C935 C 0.72994 0.12902 0.12338 0.0
C936 C 0.84233 0.28186 0.14913 0.0
C937 C 0.82646 0.26092 0.14987 0.0
C938 C 0.79891 0.21246 0.12057 0.0
C939 C 0.75237 0.16385 0.13743 0.0
C940 C 0.77321 0.1824 0.13717 0.0
C941 C 0.82816 0.24188 0.13667 0.0
C942 C 0.81017 0.22054 0.1368 0.0
H943 H 0.69774 0.15174 0.15998 0.0
H944 H 0.73392 0.18001 0.16097 0.0
H945 H 0.77166 0.18838 0.1081 0.0
H946 H 0.87605 0.2661 0.11139 0.0
H947 H 0.84832 0.22943 0.1127 0.0
C948 C 0.12983 0.2621 0.85259 0.0
C949 C 0.12373 0.27268 0.86948 0.0
C950 C 0.14588 0.24132 0.85156 0.0
C951 C 0.17383 0.18848 0.87581 0.0
H952 H 0.23353 0.20342 0.8474 0.0
C953 C 0.26496 0.12881 0.88004 0.0
C954 C 0.28048 0.12718 0.8646 0.0
C955 C 0.24346 0.14406 0.87998 0.0
C956 C 0.21679 0.19855 0.85505 0.0
H957 H 0.12824 0.26905 0.89857 0.0
H958 H 0.15629 0.23232 0.89674 0.0
H959 H 0.19911 0.23358 0.84833 0.0
H960 H 0.28481 0.13993 0.83676 0.0
H961 H 0.24665 0.16482 0.83626 0.0
H962 H 0.19129 0.15322 0.88233 0.0
C963 C 0.14868 0.24026 0.88435 0.0
C964 C 0.19715 0.21596 0.85565 0.0
C965 C 0.13287 0.26132 0.88539 0.0
C966 C 0.27331 0.14034 0.84887 0.0
C967 C 0.25155 0.15509 0.84868 0.0
C968 C 0.19335 0.17075 0.87495 0.0
C969 C 0.15582 0.23059 0.8674 0.0
C970 C 0.17564 0.21117 0.86613 0.0
C971 C 0.2367 0.1577 0.86436 0.0
C972 C 0.21518 0.17569 0.86466 0.0
H973 H 0.12314 0.27061 0.84013 0.0
H974 H 0.15114 0.23407 0.83835 0.0
H975 H 0.15731 0.18446 0.88396 0.0
H976 H 0.26955 0.11856 0.8923 0.0
H977 H 0.23263 0.14572 0.89236 0.0
C978 C 0.25 0.87825 0.11956 0.0
C979 C 0.26676 0.8735 0.13399 0.0
C980 C 0.22699 0.86559 0.11847 0.0
C981 C 0.17935 0.83099 0.14357 0.0
H982 H 0.17648 0.78599 0.1022 0.0
C983 C 0.12146 0.74005 0.1445 0.0
C984 C 0.11358 0.72916 0.12816 0.0
C985 C 0.13524 0.76243 0.14441 0.0
C986 C 0.17637 0.79886 0.11359 0.0
H987 H 0.27177 0.85226 0.15895 0.0
H988 H 0.23115 0.83101 0.15731 0.0
H989 H 0.20941 0.81769 0.10385 0.0
H990 H 0.11216 0.73355 0.09903 0.0
H991 H 0.13509 0.77349 0.0988 0.0
H992 H 0.14632 0.8124 0.15337 0.0
C993 C 0.23606 0.8445 0.14686 0.0
C994 C 0.1954 0.81693 0.11454 0.0
C995 C 0.25931 0.85675 0.14778 0.0
C996 C 0.11835 0.74162 0.11177 0.0
C997 C 0.13162 0.76436 0.11168 0.0
C998 C 0.15992 0.81329 0.14244 0.0
C999 C 0.22003 0.84842 0.13201 0.0
C1000 C 0.19747 0.83255 0.12979 0.0
C1001 C 0.14098 0.77463 0.12796 0.0
C1002 C 0.15872 0.79637 0.12774 0.0
H1003 H 0.25479 0.89149 0.10893 0.0
H1004 H 0.21479 0.86888 0.10692 0.0
H1005 H 0.18059 0.84306 0.15539 0.0
H1006 H 0.11807 0.73055 0.15728 0.0
H1007 H 0.14243 0.76936 0.1572 0.0
C1008 C 0.12175 0.46552 0.30932 0.0
C1009 C 0.14106 0.47103 0.32177 0.0
C1010 C 0.12078 0.47759 0.29256 0.0
C1011 C 0.15865 0.51349 0.25951 0.0
H1012 H 0.093 0.5362 0.24293 0.0
C1013 C 0.14444 0.57833 0.19696 0.0
C1014 C 0.12361 0.57326 0.18573 0.0
C1015 C 0.14775 0.56522 0.21324 0.0
C1016 C 0.11143 0.52971 0.24724 0.0
H1017 H 0.17482 0.49331 0.32616 0.0
H1018 H 0.17297 0.51467 0.29681 0.0
H1019 H 0.0967 0.51487 0.272 0.0
H1020 H 0.09061 0.54956 0.18242 0.0
H1021 H 0.09637 0.5267 0.21074 0.0
H1022 H 0.17334 0.52847 0.23467 0.0
C1023 C 0.1587 0.50078 0.30005 0.0
C1024 C 0.11356 0.5175 0.26392 0.0
C1025 C 0.15968 0.48864 0.31689 0.0
C1026 C 0.10656 0.5543 0.19091 0.0
C1027 C 0.10987 0.5412 0.20716 0.0
C1028 C 0.15652 0.52574 0.24277 0.0
C1029 C 0.13906 0.49557 0.28778 0.0
C1030 C 0.13715 0.50909 0.2702 0.0
C1031 C 0.1303 0.54675 0.21863 0.0
C1032 C 0.13284 0.53385 0.23641 0.0
H1033 H 0.10719 0.45193 0.31252 0.0
H1034 H 0.10568 0.47278 0.28329 0.0
H1035 H 0.17706 0.50702 0.2639 0.0
H1036 H 0.15776 0.59301 0.19348 0.0
H1037 H 0.16354 0.57012 0.22186 0.0
C1038 C 0.4728 0.85687 0.68686 0.0
C1039 C 0.44797 0.84764 0.68757 0.0
C1040 C 0.4877 0.85753 0.70246 0.0
C1041 C 0.49394 0.83235 0.749 0.0
H1042 H 0.53005 0.89482 0.75753 0.0
C1043 C 0.56399 0.84699 0.80867 0.0
C1044 C 0.56282 0.8704 0.81762 0.0
C1045 C 0.54995 0.84277 0.7929 0.0
C1046 C 0.51998 0.8773 0.75539 0.0
H1047 H 0.41962 0.83104 0.70511 0.0
H1048 H 0.44564 0.83232 0.73237 0.0
H1049 H 0.50607 0.88951 0.72965 0.0
H1050 H 0.545 0.90726 0.81741 0.0
H1051 H 0.52074 0.89997 0.78994 0.0
H1052 H 0.50756 0.82039 0.77498 0.0
C1053 C 0.45362 0.83889 0.71971 0.0
C1054 C 0.50649 0.87414 0.73932 0.0
C1055 C 0.43868 0.83827 0.70409 0.0
C1056 C 0.54682 0.88923 0.81067 0.0
C1057 C 0.53288 0.88505 0.79492 0.0
C1058 C 0.50756 0.83548 0.76508 0.0
C1059 C 0.47814 0.84894 0.71912 0.0
C1060 C 0.49321 0.85169 0.73596 0.0
C1061 C 0.53451 0.8619 0.78573 0.0
C1062 C 0.52055 0.85809 0.76851 0.0
H1063 H 0.48062 0.8641 0.67433 0.0
H1064 H 0.50666 0.86502 0.70152 0.0
H1065 H 0.48403 0.81477 0.74673 0.0
H1066 H 0.57628 0.83216 0.81353 0.0
H1067 H 0.55173 0.8248 0.78603 0.0
C1068 C 0.85216 0.55716 0.29515 0.0
C1069 C 0.85943 0.546 0.31163 0.0
C1070 C 0.85317 0.54341 0.279 0.0
C1071 C 0.88574 0.48925 0.2586 0.0
H1072 H 0.83399 0.49437 0.2216 0.0
C1073 C 0.90054 0.4502 0.18667 0.0
C1074 C 0.8805 0.43654 0.17897 0.0
C1075 C 0.89707 0.46384 0.20266 0.0
C1076 C 0.84851 0.49264 0.23186 0.0
H1077 H 0.87271 0.51138 0.32416 0.0
H1078 H 0.87429 0.48741 0.29602 0.0
H1079 H 0.82874 0.51685 0.25029 0.0
H1080 H 0.841 0.42672 0.18207 0.0
H1081 H 0.83494 0.45065 0.20995 0.0
H1082 H 0.90541 0.46488 0.24031 0.0
C1083 C 0.86815 0.50689 0.29555 0.0
C1084 C 0.84561 0.50568 0.2482 0.0
C1085 C 0.86711 0.52061 0.31168 0.0
C1086 C 0.85676 0.43726 0.18748 0.0
C1087 C 0.85328 0.45096 0.20348 0.0
C1088 C 0.88868 0.47631 0.24226 0.0
C1089 C 0.86152 0.51823 0.279 0.0
C1090 C 0.86421 0.50411 0.26174 0.0
C1091 C 0.87347 0.46419 0.21133 0.0
C1092 C 0.87014 0.47791 0.22869 0.0
H1093 H 0.84618 0.57669 0.29463 0.0
H1094 H 0.84814 0.55272 0.26644 0.0
H1095 H 0.90054 0.48789 0.26868 0.0
H1096 H 0.91892 0.4505 0.18031 0.0
H1097 H 0.91287 0.47423 0.2082 0.0
C1098 C 0.44166 0.14102 0.80876 0.0
C1099 C 0.42467 0.12099 0.8112 0.0
C1100 C 0.4532 0.14492 0.79194 0.0
C1101 C 0.4688 0.11069 0.74974 0.0
H1102 H 0.48307 0.17751 0.731 0.0
C1103 C 0.50553 0.15912 0.67897 0.0
C1104 C 0.52452 0.14166 0.67457 0.0
C1105 C 0.49355 0.15811 0.69587 0.0
C1106 C 0.47903 0.15873 0.73598 0.0
H1107 H 0.40542 0.09018 0.79777 0.0
H1108 H 0.42512 0.09716 0.76841 0.0
H1109 H 0.46039 0.17297 0.75964 0.0
H1110 H 0.54681 0.11038 0.68476 0.0
H1111 H 0.52647 0.10898 0.7142 0.0
H1112 H 0.48667 0.09636 0.72596 0.0
C1113 C 0.4302 0.10942 0.77957 0.0
C1114 C 0.4663 0.15612 0.7525 0.0
C1115 C 0.41887 0.10541 0.79638 0.0
C1116 C 0.53194 0.12382 0.6876 0.0
C1117 C 0.52018 0.12295 0.70448 0.0
C1118 C 0.48136 0.11328 0.73325 0.0
C1119 C 0.44781 0.12897 0.77719 0.0
C1120 C 0.46106 0.13205 0.75957 0.0
C1121 C 0.50049 0.13973 0.70871 0.0
C1122 C 0.48679 0.13731 0.7262 0.0
H1123 H 0.44657 0.1532 0.81999 0.0
H1124 H 0.46688 0.15997 0.79065 0.0
H1125 H 0.46543 0.09186 0.75488 0.0
H1126 H 0.49942 0.17308 0.66918 0.0
H1127 H 0.47834 0.17121 0.69864 0.0
C1128 C 0.15425 0.55586 0.70513 0.0
C1129 C 0.14559 0.54514 0.68885 0.0
C1130 C 0.15296 0.54229 0.72137 0.0
C1131 C 0.11735 0.49088 0.74267 0.0
H1132 H 0.17131 0.49084 0.77819 0.0
C1133 C 0.10346 0.45003 0.81417 0.0
C1134 C 0.12257 0.434 0.82069 0.0
C1135 C 0.10723 0.4645 0.79859 0.0
C1136 C 0.15613 0.49061 0.76836 0.0
H1137 H 0.12949 0.51144 0.67679 0.0
H1138 H 0.12735 0.48785 0.70505 0.0
H1139 H 0.17676 0.51356 0.74957 0.0
H1140 H 0.16088 0.42108 0.81601 0.0
H1141 H 0.16751 0.44651 0.78889 0.0
H1142 H 0.09679 0.46779 0.76128 0.0
C1143 C 0.13485 0.50684 0.7053 0.0
C1144 C 0.15917 0.50377 0.75206 0.0
C1145 C 0.13623 0.52034 0.68908 0.0
C1146 C 0.14585 0.4334 0.81152 0.0
C1147 C 0.14965 0.44796 0.79595 0.0
C1148 C 0.11426 0.47788 0.75897 0.0
C1149 C 0.14287 0.51778 0.72166 0.0
C1150 C 0.13984 0.50394 0.73902 0.0
C1151 C 0.13025 0.46338 0.78917 0.0
C1152 C 0.1336 0.47757 0.77199 0.0
H1153 H 0.16152 0.57494 0.70543 0.0
H1154 H 0.15912 0.55128 0.73379 0.0
H1155 H 0.10199 0.4909 0.73298 0.0
H1156 H 0.0855 0.45141 0.82107 0.0
H1157 H 0.09208 0.47656 0.79389 0.0
C1158 C 0.50867 0.83138 0.31294 0.0
C1159 C 0.52461 0.85099 0.31867 0.0
C1160 C 0.49721 0.83229 0.29586 0.0
C1161 C 0.47858 0.87796 0.26067 0.0
H1162 H 0.47193 0.81904 0.22987 0.0
C1163 C 0.44269 0.88676 0.18784 0.0
C1164 C 0.42425 0.86942 0.18223 0.0
C1165 C 0.45607 0.88293 0.20388 0.0
C1166 C 0.47348 0.83559 0.2384 0.0
H1167 H 0.54167 0.88653 0.31072 0.0
H1168 H 0.52199 0.88793 0.281 0.0
H1169 H 0.49311 0.8153 0.25923 0.0
H1170 H 0.40605 0.83397 0.18872 0.0
H1171 H 0.42949 0.82724 0.21687 0.0
H1172 H 0.45897 0.89826 0.24 0.0
C1173 C 0.51791 0.87209 0.2898 0.0
C1174 C 0.48557 0.83345 0.2552 0.0
C1175 C 0.52929 0.87122 0.30683 0.0
C1176 C 0.42024 0.84758 0.19264 0.0
C1177 C 0.43365 0.84374 0.20875 0.0
C1178 C 0.46657 0.88009 0.24393 0.0
C1179 C 0.50149 0.85282 0.2842 0.0
C1180 C 0.48838 0.85468 0.26646 0.0
C1181 C 0.45134 0.86167 0.21471 0.0
C1182 C 0.46401 0.85899 0.23255 0.0
H1183 H 0.5047 0.81552 0.32174 0.0
H1184 H 0.4845 0.81724 0.29199 0.0
H1185 H 0.47991 0.89455 0.26918 0.0
H1186 H 0.44664 0.90346 0.1799 0.0
H1187 H 0.47 0.89679 0.20788 0.0
C1188 C 0.82874 0.48902 0.68511 0.0
C1189 C 0.84892 0.47368 0.67947 0.0
C1190 C 0.82888 0.50011 0.70233 0.0
C1191 C 0.85829 0.49473 0.74766 0.0
H1192 H 0.84114 0.56557 0.75217 0.0
C1193 C 0.88606 0.55405 0.80991 0.0
C1194 C 0.86917 0.57255 0.81617 0.0
C1195 C 0.88113 0.54074 0.79396 0.0
C1196 C 0.84559 0.54567 0.75122 0.0
H1197 H 0.88496 0.45778 0.6876 0.0
H1198 H 0.88522 0.47716 0.71746 0.0
H1199 H 0.83683 0.54464 0.72289 0.0
H1200 H 0.83358 0.59126 0.81063 0.0
H1201 H 0.82474 0.56771 0.78296 0.0
H1202 H 0.86735 0.49579 0.77592 0.0
C1203 C 0.86917 0.48044 0.70868 0.0
C1204 C 0.84313 0.53368 0.73443 0.0
C1205 C 0.86909 0.46948 0.69148 0.0
C1206 C 0.8469 0.57702 0.80629 0.0
C1207 C 0.84197 0.56371 0.79031 0.0
C1208 C 0.8607 0.50668 0.76445 0.0
C1209 C 0.84913 0.49595 0.71429 0.0
C1210 C 0.84983 0.50818 0.7324 0.0
C1211 C 0.85915 0.54559 0.78387 0.0
C1212 C 0.85474 0.53239 0.76637 0.0
H1213 H 0.8129 0.49261 0.67619 0.0
H1214 H 0.81307 0.51181 0.70633 0.0
H1215 H 0.86317 0.47493 0.74661 0.0
H1216 H 0.90321 0.54987 0.81728 0.0
H1217 H 0.8949 0.5271 0.7893 0.0
C1218 C 0.46764 0.12554 0.31001 0.0
C1219 C 0.44215 0.13291 0.3099 0.0
C1220 C 0.48135 0.12432 0.29389 0.0
C1221 C 0.48295 0.14637 0.24658 0.0
H1222 H 0.52435 0.08684 0.23927 0.0
C1223 C 0.5548 0.13607 0.18779 0.0
C1224 C 0.55601 0.11247 0.17912 0.0
C1225 C 0.54004 0.13936 0.20333 0.0
C1226 C 0.51275 0.10349 0.24105 0.0
H1227 H 0.41127 0.14542 0.2928 0.0
H1228 H 0.43531 0.14324 0.26458 0.0
H1229 H 0.50036 0.09146 0.26724 0.0
H1230 H 0.54175 0.07411 0.17964 0.0
H1231 H 0.51629 0.07981 0.20677 0.0
H1232 H 0.49525 0.15824 0.22025 0.0
C1233 C 0.44465 0.13853 0.2772 0.0
C1234 C 0.49923 0.10628 0.25716 0.0
C1235 C 0.43087 0.13967 0.29335 0.0
C1236 C 0.54173 0.09239 0.18616 0.0
C1237 C 0.52707 0.09566 0.2017 0.0
C1238 C 0.49661 0.14364 0.23048 0.0
C1239 C 0.46994 0.13049 0.27729 0.0
C1240 C 0.48422 0.12774 0.26011 0.0
C1241 C 0.52625 0.1191 0.21055 0.0
C1242 C 0.51161 0.12214 0.22755 0.0
H1243 H 0.47697 0.12032 0.32252 0.0
H1244 H 0.50092 0.11844 0.29442 0.0
H1245 H 0.47165 0.16318 0.24854 0.0
H1246 H 0.56575 0.15187 0.18289 0.0
H1247 H 0.53999 0.15758 0.20997 0.0
C1248 C 0.63248 0.04159 0.6811 0.0
C1249 C 0.61399 0.06046 0.67947 0.0
C1250 C 0.63661 0.02962 0.69773 0.0
C1251 C 0.60547 0.01746 0.74175 0.0
H1252 H 0.673 -0.00019 0.75756 0.0
C1253 C 0.65897 0.98163 0.81088 0.0
C1254 C 0.64126 0.9637 0.81675 0.0
C1255 C 0.65664 0.99284 0.79379 0.0
C1256 C 0.65405 0.00479 0.7534 0.0
H1257 H 0.58601 0.08224 0.69413 0.0
H1258 H 0.59333 0.06166 0.72311 0.0
H1259 H 0.66705 0.0214 0.72865 0.0
H1260 H 0.60781 0.94271 0.80901 0.0
H1261 H 0.60407 0.96178 0.7792 0.0
H1262 H 0.59246 0.00163 0.76666 0.0
C1263 C 0.60421 0.05557 0.71148 0.0
C1264 C 0.65061 0.01688 0.73673 0.0
C1265 C 0.59999 0.06739 0.69486 0.0
C1266 C 0.6216 0.9567 0.80501 0.0
C1267 C 0.61937 0.96774 0.78792 0.0
C1268 C 0.60891 0.0055 0.7584 0.0
C1269 C 0.62242 0.0364 0.7131 0.0
C1270 C 0.62627 0.02338 0.73073 0.0
C1271 C 0.63663 0.98621 0.7822 0.0
C1272 C 0.63321 -0.00104 0.76443 0.0
H1273 H 0.6434 0.03574 0.66943 0.0
H1274 H 0.65056 0.01471 0.69846 0.0
H1275 H 0.58644 0.02188 0.73746 0.0
H1276 H 0.6743 0.98744 0.81964 0.0
H1277 H 0.67012 0.00717 0.78988 0.0
C1278 C 0.05448 0.35281 0.31052 0.0
C1279 C 0.07183 0.37259 0.31268 0.0
C1280 C 0.04229 0.34914 0.2939 0.0
C1281 C 0.02619 0.38349 0.25173 0.0
H1282 H 0.01068 0.31678 0.23332 0.0
C1283 C 0.98871 0.33457 0.18126 0.0
C1284 C 0.97011 0.35231 0.17657 0.0
C1285 C 0.00067 0.33578 0.19815 0.0
C1286 C 0.01506 0.33554 0.2382 0.0
H1287 H 0.09101 0.40319 0.29895 0.0
H1288 H 0.07026 0.39655 0.26995 0.0
H1289 H 0.03363 0.32116 0.26184 0.0
H1290 H 0.94861 0.38447 0.18623 0.0
H1291 H 0.96888 0.38617 0.21571 0.0
H1292 H 0.00849 0.39794 0.22791 0.0
C1293 C 0.06536 0.38434 0.28117 0.0
C1294 C 0.02794 0.33805 0.25466 0.0
C1295 C 0.07731 0.38814 0.29779 0.0
C1296 C 0.96314 0.37074 0.18931 0.0
C1297 C 0.97487 0.37179 0.20621 0.0
C1298 C 0.0135 0.38098 0.23527 0.0
C1299 C 0.04741 0.36504 0.27907 0.0
C1300 C 0.03369 0.36209 0.26161 0.0
C1301 C 0.99409 0.35462 0.21075 0.0
C1302 C 0.00768 0.357 0.22831 0.0
H1303 H 0.04981 0.34066 0.32182 0.0
H1304 H 0.02838 0.33427 0.29283 0.0
H1305 H 0.02993 0.40231 0.25677 0.0
H1306 H 0.99452 0.32018 0.1717 0.0
H1307 H 0.01554 0.32239 0.20113 0.0
C1308 C 0.34839 0.9099 0.69928 0.0
C1309 C 0.36841 0.91521 0.68737 0.0
C1310 C 0.34561 0.92348 0.71541 0.0
C1311 C 0.38288 0.96094 0.74771 0.0
H1312 H 0.31782 0.98304 0.76582 0.0
C1313 C 0.37492 0.02681 0.80907 0.0
C1314 C 0.35625 0.02148 0.82205 0.0
C1315 C 0.37521 0.01426 0.79247 0.0
C1316 C 0.33608 0.97675 0.76103 0.0
H1317 H 0.4004 0.93981 0.68265 0.0
H1318 H 0.39558 0.96342 0.71073 0.0
H1319 H 0.32032 0.96058 0.73692 0.0
H1320 H 0.32295 -0.00098 0.82759 0.0
H1321 H 0.32364 0.97679 0.79857 0.0
H1322 H 0.3987 0.97689 0.77174 0.0
C1323 C 0.38235 0.94841 0.70779 0.0
C1324 C 0.33752 0.96392 0.74448 0.0
C1325 C 0.38512 0.93487 0.6917 0.0
C1326 C 0.33759 0.00357 0.81789 0.0
C1327 C 0.33791 0.99092 0.80123 0.0
C1328 C 0.38146 0.9737 0.76421 0.0
C1329 C 0.3628 0.94263 0.71997 0.0
C1330 C 0.36097 0.95603 0.73759 0.0
C1331 C 0.3569 0.99596 0.78841 0.0
C1332 C 0.35808 0.98191 0.77101 0.0
H1333 H 0.33535 0.89472 0.69643 0.0
H1334 H 0.33048 0.91844 0.72459 0.0
H1335 H 0.40118 0.95463 0.74297 0.0
H1336 H 0.38946 0.04065 0.81172 0.0
H1337 H 0.38981 0.01895 0.78276 0.0
C1338 C 0.05201 0.64943 0.20359 0.0
C1339 C 0.04312 0.6388 0.18734 0.0
C1340 C 0.03722 0.64884 0.21927 0.0
C1341 C 0.98616 0.61257 0.24033 0.0
H1342 H 0.98242 0.66906 0.27366 0.0
C1343 C 0.94635 0.6018 0.31241 0.0
C1344 C 0.92947 0.62048 0.31846 0.0
C1345 C 0.96013 0.60516 0.29647 0.0
C1346 C 0.98316 0.65318 0.26443 0.0
H1347 H 0.01141 0.61981 0.17471 0.0
H1348 H 0.9856 0.61885 0.20208 0.0
H1349 H 0.00562 0.67349 0.24518 0.0
H1350 H 0.91425 0.65758 0.31253 0.0
H1351 H 0.93852 0.66353 0.28477 0.0
H1352 H 0.96366 0.59228 0.25948 0.0
C1353 C 0.00413 0.62741 0.20271 0.0
C1354 C 0.99661 0.65565 0.24821 0.0
C1355 C 0.01887 0.6281 0.18701 0.0
C1356 C 0.92726 0.64292 0.30841 0.0
C1357 C 0.94113 0.64633 0.29247 0.0
C1358 C 0.97286 0.61006 0.25657 0.0
C1359 C 0.01326 0.63752 0.21906 0.0
C1360 C -0.0017 0.63534 0.23601 0.0
C1361 C 0.95746 0.62733 0.2862 0.0
C1362 C 0.97131 0.63029 0.26884 0.0
H1363 H 0.0706 0.65783 0.20432 0.0
H1364 H 0.04488 0.65658 0.23169 0.0
H1365 H 0.98733 0.59648 0.23132 0.0
H1366 H 0.94895 0.58452 0.31998 0.0
H1367 H 0.97294 0.59039 0.29218 0.0
C1368 C 0.61921 0.02523 0.18852 0.0
C1369 C 0.64048 0.02233 0.17733 0.0
C1370 C 0.61808 0.01342 0.20537 0.0
C1371 C 0.65673 0.98419 0.24122 0.0
H1372 H 0.593 0.95353 0.25464 0.0
C1373 C 0.64252 0.92258 0.30573 0.0
C1374 C 0.61983 0.92621 0.31528 0.0
C1375 C 0.64651 0.93455 0.28907 0.0
C1376 C 0.61085 0.96222 0.25119 0.0
H1377 H 0.67748 0.00503 0.17525 0.0
H1378 H 0.67537 0.9841 0.20478 0.0
H1379 H 0.59734 0.97352 0.22514 0.0
H1380 H 0.58421 0.94636 0.31528 0.0
H1381 H 0.59112 0.96713 0.28632 0.0
H1382 H 0.67017 0.97276 0.2674 0.0
C1383 C 0.65966 0.99574 0.20048 0.0
C1384 C 0.61335 0.97367 0.23427 0.0
C1385 C 0.66082 0.00763 0.18354 0.0
C1386 C 0.60162 0.94269 0.30809 0.0
C1387 C 0.60559 0.95461 0.29149 0.0
C1388 C 0.65424 0.97265 0.2582 0.0
C1389 C 0.63814 -0.00169 0.21148 0.0
C1390 C 0.63619 0.98508 0.22917 0.0
C1391 C 0.62788 0.95036 0.28164 0.0
C1392 C 0.63114 0.96184 0.26344 0.0
H1393 H 0.60328 0.03659 0.18427 0.0
H1394 H 0.60144 0.0162 0.21367 0.0
H1395 H 0.67452 0.99296 0.23772 0.0
H1396 H 0.65684 0.90985 0.31082 0.0
H1397 H 0.66382 0.93079 0.28174 0.0
C1398 C 0.06069 0.35492 0.7947 0.0
C1399 C 0.04937 0.3612 0.81134 0.0
C1400 C 0.04679 0.35607 0.7786 0.0
C1401 C 0.99174 0.38804 0.75912 0.0
H1402 H 0.99617 0.33717 0.72146 0.0
C1403 C 0.94866 0.40338 0.68848 0.0
C1404 C 0.93451 0.38334 0.68124 0.0
C1405 C 0.9635 0.39985 0.7039 0.0
C1406 C 0.99469 0.35146 0.7319 0.0
H1407 H 0.01434 0.37278 0.82418 0.0
H1408 H 0.99022 0.37467 0.79617 0.0
H1409 H 0.01997 0.33172 0.74963 0.0
H1410 H 0.92517 0.34376 0.68455 0.0
H1411 H 0.95124 0.3376 0.71141 0.0
H1412 H 0.96632 0.40768 0.74157 0.0
C1413 C 0.0099 0.36919 0.79553 0.0
C1414 C 0.00845 0.34845 0.74793 0.0
C1415 C 0.02372 0.36797 0.81159 0.0
C1416 C 0.93601 0.35954 0.68961 0.0
C1417 C 0.95095 0.35599 0.70501 0.0
C1418 C 0.97813 0.39112 0.74309 0.0
C1419 C 0.02137 0.36363 0.77884 0.0
C1420 C 0.00701 0.36667 0.76173 0.0
C1421 C 0.96463 0.37619 0.71242 0.0
C1422 C 0.97942 0.37287 0.72932 0.0
H1423 H 0.08041 0.34963 0.79405 0.0
H1424 H 0.05616 0.35182 0.76591 0.0
H1425 H 0.99048 0.40255 0.76942 0.0
H1426 H 0.94841 0.42181 0.6822 0.0
H1427 H 0.97418 0.41567 0.70913 0.0
C1428 C 0.32909 0.9814 0.18823 0.0
C1429 C 0.34836 0.96534 0.18203 0.0
C1430 C 0.33045 0.99221 0.20551 0.0
C1431 C 0.3767 0.00872 0.24091 0.0
H1432 H 0.31776 0.01567 0.27167 0.0
C1433 C 0.38501 0.04532 0.31389 0.0
C1434 C 0.36737 0.06365 0.31929 0.0
C1435 C 0.38153 0.03172 0.29789 0.0
C1436 C 0.33434 0.01402 0.26317 0.0
H1437 H 0.38383 0.94748 0.18933 0.0
H1438 H 0.38602 0.96606 0.2194 0.0
H1439 H 0.31385 0.9951 0.24215 0.0
H1440 H 0.33188 0.08156 0.3123 0.0
H1441 H 0.32579 0.05779 0.28434 0.0
H1442 H 0.39718 0.02773 0.26178 0.0
C1443 C 0.37009 0.9707 0.21083 0.0
C1444 C 0.3321 0.00227 0.24626 0.0
C1445 C 0.36876 0.95995 0.19359 0.0
C1446 C 0.34568 0.0674 0.30864 0.0
C1447 C 0.34221 0.05379 0.2926 0.0
C1448 C 0.37894 0.02041 0.25778 0.0
C1449 C 0.3511 0.98716 0.21693 0.0
C1450 C 0.35328 -0.00052 0.23495 0.0
C1451 C 0.36034 0.03613 0.28688 0.0
C1452 C 0.35781 0.02318 0.26912 0.0
H1453 H 0.31313 0.98594 0.17966 0.0
H1454 H 0.31563 0.005 0.20974 0.0
H1455 H 0.39329 0.00734 0.23239 0.0
H1456 H 0.40165 0.04161 0.32197 0.0
H1457 H 0.39559 0.01786 0.29404 0.0
C1458 C 0.97425 0.62275 0.8102 0.0
C1459 C 0.95149 0.63636 0.81063 0.0
C1460 C 0.98863 0.62171 0.79438 0.0
C1461 C 0.00182 0.65394 0.75162 0.0
H1462 H 0.02507 0.58801 0.73609 0.0
C1463 C 0.05431 0.63773 0.68349 0.0
C1464 C 0.07372 0.61968 0.68348 0.0
C1465 C 0.03884 0.6407 0.69873 0.0
C1466 C 0.01905 0.60662 0.74034 0.0
H1467 H 0.92628 0.66008 0.7949 0.0
H1468 H 0.95172 0.65846 0.76723 0.0
H1469 H -0.00061 0.59176 0.76329 0.0
H1470 H 0.093 0.59148 0.69959 0.0
H1471 H 0.06658 0.59698 0.72625 0.0
H1472 H 0.02196 0.6689 0.72888 0.0
C1473 C 0.95829 0.64857 0.77918 0.0
C1474 C 0.00425 0.60872 0.7559 0.0
C1475 C 0.94371 0.64939 0.79499 0.0
C1476 C 0.07783 0.60516 0.69911 0.0
C1477 C 0.06261 0.60829 0.71436 0.0
C1478 C 0.01689 0.65188 0.73611 0.0
C1479 C 0.98072 0.63444 0.77868 0.0
C1480 C 0.99566 0.6324 0.76178 0.0
C1481 C 0.04267 0.62582 0.7143 0.0
C1482 C 0.02589 0.62819 0.73038 0.0
H1483 H 0.9808 0.61251 0.82201 0.0
H1484 H 0.006 0.61091 0.79442 0.0
H1485 H 0.99553 0.67243 0.75594 0.0
H1486 H 0.05065 0.64903 0.67155 0.0
H1487 H 0.02353 0.65421 0.69813 0.0
C1488 C 0.16832 0.52666 0.56667 0.0
C1489 C 0.15776 0.50891 0.57864 0.0
C1490 C 0.16955 0.52177 0.54809 0.0
C1491 C 0.13738 0.48331 0.51363 0.0
H1492 H 0.19099 0.50655 0.48199 0.0
C1493 C 0.14016 0.45695 0.43848 0.0
C1494 C 0.14496 0.47639 0.42597 0.0
C1495 C 0.1437 0.4608 0.45697 0.0
C1496 C 0.17581 0.50016 0.49068 0.0
H1497 H 0.14167 0.47137 0.58046 0.0
H1498 H 0.14461 0.46251 0.5482 0.0
H1499 H 0.19483 0.51221 0.5148 0.0
H1500 H 0.15771 0.51498 0.42311 0.0
H1501 H 0.16385 0.52182 0.45571 0.0
H1502 H 0.11839 0.47123 0.48961 0.0
C1503 C 0.1513 0.48055 0.55314 0.0
C1504 C 0.178 0.50336 0.50945 0.0
C1505 C 0.14993 0.4855 0.57171 0.0
C1506 C 0.15375 0.49972 0.43243 0.0
C1507 C 0.15745 0.50355 0.45104 0.0
C1508 C 0.13527 0.48001 0.49495 0.0
C1509 C 0.16042 0.49892 0.54105 0.0
C1510 C 0.1588 0.49491 0.52114 0.0
C1511 C 0.15213 0.48418 0.46348 0.0
C1512 C 0.15447 0.48832 0.48328 0.0
H1513 H 0.17502 0.54468 0.57158 0.0
H1514 H 0.17666 0.53637 0.53918 0.0
H1515 H 0.12193 0.47718 0.52217 0.0
H1516 H 0.13303 0.43885 0.43411 0.0
H1517 H 0.13969 0.44544 0.46622 0.0
C1518 C 0.52518 0.83317 0.43335 0.0
C1519 C 0.50821 0.84607 0.42199 0.0
C1520 C 0.52069 0.83137 0.45197 0.0
C1521 C 0.48572 0.86417 0.48816 0.0
H1522 H 0.50298 0.8054 0.51697 0.0
C1523 C 0.45587 0.85486 0.56236 0.0
C1524 C 0.47426 0.84705 0.5749 0.0
C1525 C 0.46043 0.8534 0.5438 0.0
C1526 C 0.49832 0.822 0.50908 0.0
H1527 H 0.47252 0.86617 0.42129 0.0
H1528 H 0.46427 0.86227 0.45355 0.0
H1529 H 0.50897 0.8044 0.48408 0.0
H1530 H 0.51171 0.83116 0.57777 0.0
H1531 H 0.51974 0.82851 0.54504 0.0
H1532 H 0.47484 0.88167 0.51307 0.0
C1533 C 0.48142 0.85409 0.44814 0.0
C1534 C 0.50171 0.82145 0.49028 0.0
C1535 C 0.48599 0.85602 0.42955 0.0
C1536 C 0.49727 0.83741 0.56841 0.0
C1537 C 0.50177 0.83573 0.54974 0.0
C1538 C 0.48219 0.86465 0.50688 0.0
C1539 C 0.49901 0.84229 0.45963 0.0
C1540 C 0.49531 0.8425 0.47959 0.0
C1541 C 0.48346 0.84401 0.53729 0.0
C1542 C 0.48829 0.84354 0.51752 0.0
H1543 H 0.54226 0.8249 0.42793 0.0
H1544 H 0.53467 0.82221 0.46041 0.0
H1545 H 0.48122 0.88095 0.48044 0.0
H1546 H 0.43809 0.8627 0.56682 0.0
H1547 H 0.44588 0.85967 0.53452 0.0
C1548 C 0.82734 0.5277 0.43235 0.0
C1549 C 0.8397 0.50995 0.42127 0.0
C1550 C 0.82461 0.52345 0.45093 0.0
C1551 C 0.85547 0.48784 0.48747 0.0
H1552 H 0.79821 0.50939 0.51637 0.0
C1553 C 0.84754 0.46225 0.5623 0.0
C1554 C 0.84128 0.4816 0.57457 0.0
C1555 C 0.84508 0.46584 0.54371 0.0
C1556 C 0.81438 0.50351 0.50845 0.0
H1557 H 0.85738 0.47303 0.42096 0.0
H1558 H 0.85188 0.46526 0.45319 0.0
H1559 H 0.79692 0.514 0.48333 0.0
H1560 H 0.82684 0.51972 0.5768 0.0
H1561 H 0.82258 0.52609 0.54396 0.0
H1562 H 0.87292 0.4773 0.51245 0.0
C1563 C 0.84492 0.48281 0.44758 0.0
C1564 C 0.81366 0.50609 0.48956 0.0
C1565 C 0.84777 0.48712 0.42902 0.0
C1566 C 0.83193 0.50453 0.5677 0.0
C1567 C 0.82933 0.50809 0.54896 0.0
C1568 C 0.85613 0.48517 0.50624 0.0
C1569 C 0.83403 0.50127 0.45884 0.0
C1570 C 0.83417 0.49813 0.47886 0.0
C1571 C 0.83631 0.48887 0.5368 0.0
C1572 C 0.83557 0.4928 0.51693 0.0
H1573 H 0.82044 0.54527 0.42675 0.0
H1574 H 0.81614 0.53808 0.45918 0.0
H1575 H 0.87189 0.48218 0.47972 0.0
H1576 H 0.8552 0.44447 0.56691 0.0
H1577 H 0.85032 0.45059 0.53469 0.0
C1578 C 0.50656 0.1485 0.42478 0.0
C1579 C 0.48308 0.15609 0.41782 0.0
C1580 C 0.51206 0.15155 0.44316 0.0
C1581 C 0.49096 0.18213 0.48596 0.0
H1582 H 0.52039 0.12229 0.50761 0.0
C1583 C 0.4941 0.1619 0.56369 0.0
C1584 C 0.51675 0.15153 0.57028 0.0
C1585 C 0.49048 0.1653 0.54503 0.0
C1586 C 0.51243 0.13927 0.50176 0.0
H1587 H 0.44786 0.17485 0.42443 0.0
H1588 H 0.45715 0.17952 0.45657 0.0
H1589 H 0.51438 0.12409 0.47502 0.0
H1590 H 0.55334 0.13664 0.5622 0.0
H1591 H 0.54722 0.14309 0.53012 0.0
H1592 H 0.48867 0.197 0.51298 0.0
C1593 C 0.47136 0.17126 0.44783 0.0
C1594 C 0.50908 0.14036 0.48305 0.0
C1595 C 0.46591 0.16831 0.42943 0.0
C1596 C 0.53581 0.14512 0.55782 0.0
C1597 C 0.53219 0.14847 0.5393 0.0
C1598 C 0.49427 0.181 0.50477 0.0
C1599 C 0.49417 0.16218 0.455 0.0
C1600 C 0.49843 0.16181 0.47489 0.0
C1601 C 0.50938 0.15819 0.53266 0.0
C1602 C 0.50518 0.15959 0.51282 0.0
H1603 H 0.52024 0.13902 0.41628 0.0
H1604 H 0.53004 0.14484 0.44821 0.0
H1605 H 0.48278 0.19896 0.48006 0.0
H1606 H 0.47914 0.16713 0.57295 0.0
H1607 H 0.47263 0.17275 0.54026 0.0
C1608 C 0.64355 0.00348 0.92766 0.0
C1609 C 0.65329 0.98134 0.91986 0.0
C1610 C 0.64576 0.00776 0.94626 0.0
C1611 C 0.67817 0.98664 0.98829 0.0
H1612 H 0.61745 0.01265 0.01094 0.0
C1613 C 0.65995 0.99043 0.06648 0.0
C1614 C 0.64984 0.01335 0.0728 0.0
C1615 C 0.66262 0.98605 0.04784 0.0
C1616 C 0.6346 0.00553 0.00479 0.0
H1617 H 0.6746 0.94723 0.92536 0.0
H1618 H 0.67778 0.95432 0.9579 0.0
H1619 H 0.61857 0.00677 0.97829 0.0
H1620 H 0.63479 0.04966 0.06426 0.0
H1621 H 0.63962 0.04207 0.03219 0.0
H1622 H 0.69391 0.98512 0.0151 0.0
C1623 C 0.66854 0.96845 0.94962 0.0
C1624 C 0.63532 0.00229 0.98607 0.0
C1625 C 0.66647 0.96425 0.93098 0.0
C1626 C 0.64294 0.0319 0.06008 0.0
C1627 C 0.64543 0.02746 0.04159 0.0
C1628 C 0.67738 0.98975 0.00714 0.0
C1629 C 0.65762 0.98994 0.95754 0.0
C1630 C 0.65719 0.99312 0.97754 0.0
C1631 C 0.65492 0.00441 0.03525 0.0
C1632 C 0.65567 -0.00046 0.0155 0.0
H1633 H 0.63322 0.01706 0.91961 0.0
H1634 H 0.63762 0.0248 0.95188 0.0
H1635 H 0.69533 0.97961 0.98213 0.0
H1636 H 0.66558 0.97587 0.07594 0.0
H1637 H 0.66997 0.96807 0.04327 0.0
C1638 C 0.02825 0.32598 0.93117 0.0
C1639 C 0.01057 0.33755 0.91962 0.0
C1640 C 0.0231 0.32294 0.9496 0.0
C1641 C 0.98458 0.35255 0.98499 0.0
H1642 H 0.00727 0.29671 0.01484 0.0
C1643 C 0.95844 0.34676 0.05982 0.0
C1644 C 0.97783 0.3412 0.07224 0.0
C1645 C 0.96208 0.3435 0.0413 0.0
C1646 C 0.00103 0.31248 0.00666 0.0
H1647 H 0.97284 0.35337 0.91825 0.0
H1648 H 0.96357 0.34737 0.95024 0.0
H1649 H 0.01301 0.29496 0.98191 0.0
H1650 H 0.01605 0.32712 0.0748 0.0
H1651 H 0.02257 0.32165 0.0421 0.0
H1652 H 0.97274 0.37017 0.00959 0.0
C1653 C 0.98172 0.34125 0.94511 0.0
C1654 C 0.00425 0.31148 0.98783 0.0
C1655 C 0.98692 0.3444 0.92669 0.0
C1656 C 0.00083 0.3317 0.06559 0.0
C1657 C 0.00447 0.32839 0.04692 0.0
C1658 C 0.98131 0.35351 0.00371 0.0
C1659 C 7e-05 0.33127 0.95688 0.0
C1660 C 0.99597 0.3315 0.97679 0.0
C1661 C 0.98523 0.33471 0.0346 0.0
C1662 C 0.98938 0.33347 0.01475 0.0
H1663 H 0.04645 0.32 0.92608 0.0
H1664 H 0.03766 0.31519 0.95828 0.0
H1665 H 0.97862 0.36861 0.97698 0.0
H1666 H 0.9406 0.35452 0.06423 0.0
H1667 H 0.94679 0.34824 0.03215 0.0
C1668 C 0.35461 0.0078 0.0717 0.0
C1669 C 0.34424 0.98547 0.07875 0.0
C1670 C 0.35344 0.01286 0.05314 0.0
C1671 C 0.32306 0.99299 0.0099 0.0
H1672 H 0.38445 0.02007 0.98898 0.0
C1673 C 0.34527 0.99489 0.93256 0.0
C1674 C 0.35483 0.01784 0.92597 0.0
C1675 C 0.34206 0.99116 0.95121 0.0
C1676 C 0.36711 0.01267 0.99465 0.0
H1677 H 0.32295 0.95186 0.07192 0.0
H1678 H 0.32175 0.96018 0.03954 0.0
H1679 H 0.38169 0.01403 0.02159 0.0
H1680 H 0.36867 0.05479 0.93387 0.0
H1681 H 0.36311 0.04828 0.96616 0.0
H1682 H 0.30886 0.99112 0.98268 0.0
C1683 C 0.33061 0.97392 0.04833 0.0
C1684 C 0.36544 0.00936 0.01336 0.0
C1685 C 0.33158 0.96898 0.0669 0.0
C1686 C 0.36096 0.037 0.93839 0.0
C1687 C 0.35802 0.03321 0.95695 0.0
C1688 C 0.32484 0.9961 0.99111 0.0
C1689 C 0.34205 0.99564 0.04117 0.0
C1690 C 0.34336 -0.00039 0.02125 0.0
C1691 C 0.34873 0.01022 0.96356 0.0
C1692 C 0.34684 0.00612 0.98335 0.0
H1693 H 0.36453 0.02094 0.08034 0.0
H1694 H 0.36196 0.03006 0.04813 0.0
H1695 H 0.30568 0.98566 0.01553 0.0
H1696 H 0.34031 0.97987 0.92328 0.0
H1697 H 0.33497 0.97321 0.956 0.0
C1698 C 0.00938 0.63864 0.92823 0.0
C1699 C 0.98691 0.64823 0.9208 0.0
C1700 C 0.01415 0.64063 0.9468 0.0
C1701 C 0.99291 0.67227 0.98932 0.0
H1702 H 0.02144 0.61251 0.01168 0.0
C1703 C 0.995 0.65359 0.06725 0.0
C1704 C 0.01817 0.64481 0.07407 0.0
C1705 C 0.99123 0.65586 0.04851 0.0
C1706 C 0.01362 0.62941 0.00561 0.0
H1707 H 0.95271 0.66906 0.92701 0.0
H1708 H 0.96057 0.67171 0.95939 0.0
H1709 H 0.01574 0.61378 0.97899 0.0
H1710 H 0.05544 0.63139 0.06647 0.0
H1711 H 0.04884 0.63533 0.03409 0.0
H1712 H 0.99032 0.68752 0.01621 0.0
C1713 C 0.97463 0.6628 0.95088 0.0
C1714 C 0.01049 0.63023 0.98685 0.0
C1715 C 0.96996 0.66098 0.93229 0.0
C1716 C 0.03747 0.63851 0.06178 0.0
C1717 C 0.03363 0.64052 0.04317 0.0
C1718 C 0.99584 0.67134 0.00816 0.0
C1719 C 0.99651 0.65212 0.95843 0.0
C1720 C 0.00024 0.65171 0.97843 0.0
C1721 C 0.01045 0.64902 0.03631 0.0
C1722 C 0.00638 0.64995 0.01646 0.0
H1723 H 0.02287 0.62867 0.91987 0.0
H1724 H 0.03149 0.63269 0.95209 0.0
H1725 H 0.98517 0.68921 0.98328 0.0
H1726 H 0.97986 0.65868 0.0764 0.0
H1727 H 0.97312 0.66238 0.04356 0.0
loop_
_geom_bond_atom_site_label_1
_geom_bond_atom_site_label_2
_geom_bond_distance
_geom_bond_site_symmetry_2
_ccdc_geom_bond_type
Co0 N4 2.148 . S
Co0 N10 2.128 . S
Co0 N20 2.194 . S
Co0 O25 2.351 . S
Co0 O26 2.155 . S
Co0 O27 2.096 . S
C1 N4 1.301 . S
C1 N5 1.328 . S
C1 H6 0.930 . S
C2 C3 1.333 . S
C2 N4 1.317 . S
C2 H7 0.930 . S
C3 C2 1.333 . S
C3 N5 1.350 . S
C3 H29 0.931 . S
N4 Co0 2.148 . S
N4 C1 1.301 . S
N4 C2 1.317 . S
N5 C1 1.328 . S
N5 C3 1.350 . S
H6 C1 0.930 . S
H7 C2 0.930 . S
C8 O9 1.224 . S
C8 O27 1.247 . S
O9 C8 1.224 . S
N10 Co0 2.128 . S
N10 C11 1.355 . S
N10 C13 1.311 . S
C11 N10 1.355 . S
C11 C12 1.363 . S
C11 H23 0.929 . S
C12 C11 1.363 . S
C12 N14 1.375 . S
C12 H30 0.931 . S
C13 N10 1.311 . S
C13 N14 1.347 . S
C13 H24 0.929 . S
N14 C12 1.375 . S
N14 C13 1.347 . S
C15 C18 1.365 . S
C15 N20 1.328 . S
C15 H21 0.929 . S
C16 C17 1.362 . S
C16 C19 1.378 . S
C16 H31 0.929 . S
C17 C16 1.362 . S
C17 C18 1.366 . S
C18 C15 1.365 . S
C18 C17 1.366 . S
C18 H32 0.930 . S
C19 C16 1.378 . S
C19 N20 1.315 . S
C19 H22 0.930 . S
N20 Co0 2.194 . S
N20 C15 1.328 . S
N20 C19 1.315 . S
H21 C15 0.929 . S
H22 C19 0.930 . S
H23 C11 0.929 . S
H24 C13 0.929 . S
O25 Co0 2.351 . S
O25 C28 1.244 . S
O26 Co0 2.155 . S
O26 C28 1.240 . S
O27 Co0 2.096 . S
O27 C8 1.247 . S
C28 O25 1.244 . S
C28 O26 1.240 . S
H29 C3 0.931 . S
H30 C12 0.931 . S
H31 C16 0.929 . S
H32 C18 0.930 . S
Co33 N37 2.148 . S
Co33 N43 2.128 . S
Co33 N53 2.194 . S
Co33 O58 2.351 . S
Co33 O59 2.155 . S
Co33 O60 2.096 . S
C34 N37 1.301 . S
C34 N38 1.328 . S
C34 H39 0.930 . S
C35 C36 1.333 . S
C35 N37 1.317 . S
C35 H40 0.930 . S
C36 C35 1.333 . S
C36 N38 1.350 . S
C36 H62 0.931 . S
N37 Co33 2.148 . S
N37 C34 1.301 . S
N37 C35 1.317 . S
N38 C34 1.328 . S
N38 C36 1.350 . S
H39 C34 0.930 . S
H40 C35 0.930 . S
C41 O42 1.224 . S
C41 O60 1.247 . S
O42 C41 1.224 . S
N43 Co33 2.128 . S
N43 C44 1.355 . S
N43 C46 1.311 . S
C44 N43 1.355 . S
C44 C45 1.363 . S
C44 H56 0.929 . S
C45 C44 1.363 . S
C45 N47 1.375 . S
C45 H63 0.931 . S
C46 N43 1.311 . S
C46 N47 1.347 . S
C46 H57 0.929 . S
N47 C45 1.375 . S
N47 C46 1.347 . S
C48 C51 1.365 . S
C48 N53 1.328 . S
C48 H54 0.929 . S
C49 C50 1.362 . S
C49 C52 1.378 . S
C49 H64 0.929 . S
C50 C49 1.362 . S
C50 C51 1.366 . S
C51 C48 1.365 . S
C51 C50 1.366 . S
C51 H65 0.930 . S
C52 C49 1.378 . S
C52 N53 1.315 . S
C52 H55 0.930 . S
N53 Co33 2.194 . S
N53 C48 1.328 . S
N53 C52 1.315 . S
H54 C48 0.929 . S
H55 C52 0.930 . S
H56 C44 0.929 . S
H57 C46 0.929 . S
O58 Co33 2.351 . S
O58 C61 1.244 . S
O59 Co33 2.155 . S
O59 C61 1.240 . S
O60 Co33 2.096 . S
O60 C41 1.247 . S
C61 O58 1.244 . S
C61 O59 1.240 . S
H62 C36 0.931 . S
H63 C45 0.931 . S
H64 C49 0.929 . S
H65 C51 0.930 . S
Co66 N70 2.148 . S
Co66 N76 2.128 . S
Co66 N86 2.194 . S
Co66 O91 2.351 . S
Co66 O92 2.155 . S
Co66 O93 2.096 . S
C67 N70 1.301 . S
C67 N71 1.328 . S
C67 H72 0.930 . S
C68 C69 1.333 . S
C68 N70 1.317 . S
C68 H73 0.930 . S
C69 C68 1.333 . S
C69 N71 1.350 . S
C69 H95 0.931 . S
N70 Co66 2.148 . S
N70 C67 1.301 . S
N70 C68 1.317 . S
N71 C67 1.328 . S
N71 C69 1.350 . S
H72 C67 0.930 . S
H73 C68 0.930 . S
C74 O75 1.224 . S
C74 O93 1.247 . S
O75 C74 1.224 . S
N76 Co66 2.128 . S
N76 C77 1.355 . S
N76 C79 1.311 . S
C77 N76 1.355 . S
C77 C78 1.363 . S
C77 H89 0.929 . S
C78 C77 1.363 . S
C78 N80 1.375 . S
C78 H96 0.931 . S
C79 N76 1.311 . S
C79 N80 1.347 . S
C79 H90 0.929 . S
N80 C78 1.375 . S
N80 C79 1.347 . S
C81 C84 1.365 . S
C81 N86 1.328 . S
C81 H87 0.929 . S
C82 C83 1.362 . S
C82 C85 1.378 . S
C82 H97 0.929 . S
C83 C82 1.362 . S
C83 C84 1.366 . S
C84 C81 1.365 . S
C84 C83 1.366 . S
C84 H98 0.930 . S
C85 C82 1.378 . S
C85 N86 1.315 . S
C85 H88 0.930 . S
N86 Co66 2.194 . S
N86 C81 1.328 . S
N86 C85 1.315 . S
H87 C81 0.929 . S
H88 C85 0.930 . S
H89 C77 0.929 . S
H90 C79 0.929 . S
O91 Co66 2.351 . S
O91 C94 1.244 . S
O92 Co66 2.155 . S
O92 C94 1.240 . S
O93 Co66 2.096 . S
O93 C74 1.247 . S
C94 O91 1.244 . S
C94 O92 1.240 . S
H95 C69 0.931 . S
H96 C78 0.931 . S
H97 C82 0.929 . S
H98 C84 0.930 . S
Co99 N103 2.148 . S
Co99 N109 2.128 . S
Co99 N119 2.194 . S
Co99 O124 2.351 . S
Co99 O125 2.155 . S
Co99 O126 2.096 . S
C100 N103 1.301 . S
C100 N104 1.328 . S
C100 H105 0.930 . S
C101 C102 1.333 . S
C101 N103 1.317 . S
C101 H106 0.930 . S
C102 C101 1.333 . S
C102 N104 1.350 . S
C102 H128 0.931 . S
N103 Co99 2.148 . S
N103 C100 1.301 . S
N103 C101 1.317 . S
N104 C100 1.328 . S
N104 C102 1.350 . S
H105 C100 0.930 . S
H106 C101 0.930 . S
C107 O108 1.224 . S
C107 O126 1.247 . S
O108 C107 1.224 . S
N109 Co99 2.128 . S
N109 C110 1.355 . S
N109 C112 1.311 . S
C110 N109 1.355 . S
C110 C111 1.363 . S
C110 H122 0.929 . S
C111 C110 1.363 . S
C111 N113 1.375 . S
C111 H129 0.931 . S
C112 N109 1.311 . S
C112 N113 1.347 . S
C112 H123 0.929 . S
N113 C111 1.375 . S
N113 C112 1.347 . S
C114 C117 1.365 . S
C114 N119 1.328 . S
C114 H120 0.929 . S
C115 C116 1.362 . S
C115 C118 1.378 . S
C115 H130 0.929 . S
C116 C115 1.362 . S
C116 C117 1.366 . S
C117 C114 1.365 . S
C117 C116 1.366 . S
C117 H131 0.930 . S
C118 C115 1.378 . S
C118 N119 1.315 . S
C118 H121 0.930 . S
N119 Co99 2.194 . S
N119 C114 1.328 . S
N119 C118 1.315 . S
H120 C114 0.929 . S
H121 C118 0.930 . S
H122 C110 0.929 . S
H123 C112 0.929 . S
O124 Co99 2.351 . S
O124 C127 1.244 . S
O125 Co99 2.155 . S
O125 C127 1.240 . S
O126 Co99 2.096 . S
O126 C107 1.247 . S
C127 O124 1.244 . S
C127 O125 1.240 . S
H128 C102 0.931 . S
H129 C111 0.931 . S
H130 C115 0.929 . S
H131 C117 0.930 . S
Co132 N136 2.148 . S
Co132 N142 2.128 . S
Co132 N152 2.194 . S
Co132 O157 2.351 . S
Co132 O158 2.155 . S
Co132 O159 2.096 . S
C133 N136 1.301 . S
C133 N137 1.328 . S
C133 H138 0.930 . S
C134 C135 1.333 . S
C134 N136 1.317 . S
C134 H139 0.930 . S
C135 C134 1.333 . S
C135 N137 1.350 . S
C135 H161 0.931 . S
N136 Co132 2.148 . S
N136 C133 1.301 . S
N136 C134 1.317 . S
N137 C133 1.328 . S
N137 C135 1.350 . S
H138 C133 0.930 . S
H139 C134 0.930 . S
C140 O141 1.224 . S
C140 O159 1.247 . S
O141 C140 1.224 . S
N142 Co132 2.128 . S
N142 C143 1.355 . S
N142 C145 1.311 . S
C143 N142 1.355 . S
C143 C144 1.363 . S
C143 H155 0.929 . S
C144 C143 1.363 . S
C144 N146 1.375 . S
C144 H162 0.931 . S
C145 N142 1.311 . S
C145 N146 1.347 . S
C145 H156 0.929 . S
N146 C144 1.375 . S
N146 C145 1.347 . S
C147 C150 1.365 . S
C147 N152 1.328 . S
C147 H153 0.929 . S
C148 C149 1.362 . S
C148 C151 1.378 . S
C148 H163 0.929 . S
C149 C148 1.362 . S
C149 C150 1.366 . S
C150 C147 1.365 . S
C150 C149 1.366 . S
C150 H164 0.930 . S
C151 C148 1.378 . S
C151 N152 1.315 . S
C151 H154 0.930 . S
N152 Co132 2.194 . S
N152 C147 1.328 . S
N152 C151 1.315 . S
H153 C147 0.929 . S
H154 C151 0.930 . S
H155 C143 0.929 . S
H156 C145 0.929 . S
O157 Co132 2.351 . S
O157 C160 1.244 . S
O158 Co132 2.155 . S
O158 C160 1.240 . S
O159 Co132 2.096 . S
O159 C140 1.247 . S
C160 O157 1.244 . S
C160 O158 1.240 . S
H161 C135 0.931 . S
H162 C144 0.931 . S
H163 C148 0.929 . S
H164 C150 0.930 . S
Co165 N169 2.148 . S
Co165 N175 2.128 . S
Co165 N185 2.194 . S
Co165 O190 2.351 . S
Co165 O191 2.155 . S
Co165 O192 2.096 . S
C166 N169 1.301 . S
C166 N170 1.328 . S
C166 H171 0.930 . S
C167 C168 1.333 . S
C167 N169 1.317 . S
C167 H172 0.930 . S
C168 C167 1.333 . S
C168 N170 1.350 . S
C168 H194 0.931 . S
N169 Co165 2.148 . S
N169 C166 1.301 . S
N169 C167 1.317 . S
N170 C166 1.328 . S
N170 C168 1.350 . S
H171 C166 0.930 . S
H172 C167 0.930 . S
C173 O174 1.224 . S
C173 O192 1.247 . S
O174 C173 1.224 . S
N175 Co165 2.128 . S
N175 C176 1.355 . S
N175 C178 1.311 . S
C176 N175 1.355 . S
C176 C177 1.363 . S
C176 H188 0.929 . S
C177 C176 1.363 . S
C177 N179 1.375 . S
C177 H195 0.931 . S
C178 N175 1.311 . S
C178 N179 1.347 . S
C178 H189 0.929 . S
N179 C177 1.375 . S
N179 C178 1.347 . S
C180 C183 1.365 . S
C180 N185 1.328 . S
C180 H186 0.929 . S
C181 C182 1.362 . S
C181 C184 1.378 . S
C181 H196 0.929 . S
C182 C181 1.362 . S
C182 C183 1.366 . S
C183 C180 1.365 . S
C183 C182 1.366 . S
C183 H197 0.930 . S
C184 C181 1.378 . S
C184 N185 1.315 . S
C184 H187 0.930 . S
N185 Co165 2.194 . S
N185 C180 1.328 . S
N185 C184 1.315 . S
H186 C180 0.929 . S
H187 C184 0.930 . S
H188 C176 0.929 . S
H189 C178 0.929 . S
O190 Co165 2.351 . S
O190 C193 1.244 . S
O191 Co165 2.155 . S
O191 C193 1.240 . S
O192 Co165 2.096 . S
O192 C173 1.247 . S
C193 O190 1.244 . S
C193 O191 1.240 . S
H194 C168 0.931 . S
H195 C177 0.931 . S
H196 C181 0.929 . S
H197 C183 0.930 . S
Co198 N202 2.148 . S
Co198 N208 2.128 . S
Co198 N218 2.194 . S
Co198 O223 2.351 . S
Co198 O224 2.155 . S
Co198 O225 2.096 . S
C199 N202 1.301 . S
C199 N203 1.328 . S
C199 H204 0.930 . S
C200 C201 1.333 . S
C200 N202 1.317 . S
C200 H205 0.930 . S
C201 C200 1.333 . S
C201 N203 1.350 . S
C201 H227 0.931 . S
N202 Co198 2.148 . S
N202 C199 1.301 . S
N202 C200 1.317 . S
N203 C199 1.328 . S
N203 C201 1.350 . S
H204 C199 0.930 . S
H205 C200 0.930 . S
C206 O207 1.224 . S
C206 O225 1.247 . S
O207 C206 1.224 . S
N208 Co198 2.128 . S
N208 C209 1.355 . S
N208 C211 1.311 . S
C209 N208 1.355 . S
C209 C210 1.363 . S
C209 H221 0.929 . S
C210 C209 1.363 . S
C210 N212 1.375 . S
C210 H228 0.931 . S
C211 N208 1.311 . S
C211 N212 1.347 . S
C211 H222 0.929 . S
N212 C210 1.375 . S
N212 C211 1.347 . S
C213 C216 1.365 . S
C213 N218 1.328 . S
C213 H219 0.929 . S
C214 C215 1.362 . S
C214 C217 1.378 . S
C214 H229 0.929 . S
C215 C214 1.362 . S
C215 C216 1.366 . S
C216 C213 1.365 . S
C216 C215 1.366 . S
C216 H230 0.930 . S
C217 C214 1.378 . S
C217 N218 1.315 . S
C217 H220 0.930 . S
N218 Co198 2.194 . S
N218 C213 1.328 . S
N218 C217 1.315 . S
H219 C213 0.929 . S
H220 C217 0.930 . S
H221 C209 0.929 . S
H222 C211 0.929 . S
O223 Co198 2.351 . S
O223 C226 1.244 . S
O224 Co198 2.155 . S
O224 C226 1.240 . S
O225 Co198 2.096 . S
O225 C206 1.247 . S
C226 O223 1.244 . S
C226 O224 1.240 . S
H227 C201 0.931 . S
H228 C210 0.931 . S
H229 C214 0.929 . S
H230 C216 0.930 . S
Co231 N235 2.148 . S
Co231 N241 2.128 . S
Co231 N251 2.194 . S
Co231 O256 2.351 . S
Co231 O257 2.155 . S
Co231 O258 2.096 . S
C232 N235 1.301 . S
C232 N236 1.328 . S
C232 H237 0.930 . S
C233 C234 1.333 . S
C233 N235 1.317 . S
C233 H238 0.930 . S
C234 C233 1.333 . S
C234 N236 1.350 . S
C234 H260 0.931 . S
N235 Co231 2.148 . S
N235 C232 1.301 . S
N235 C233 1.317 . S
N236 C232 1.328 . S
N236 C234 1.350 . S
H237 C232 0.930 . S
H238 C233 0.930 . S
C239 O240 1.224 . S
C239 O258 1.247 . S
O240 C239 1.224 . S
N241 Co231 2.128 . S
N241 C242 1.355 . S
N241 C244 1.311 . S
C242 N241 1.355 . S
C242 C243 1.363 . S
C242 H254 0.929 . S
C243 C242 1.363 . S
C243 N245 1.375 . S
C243 H261 0.931 . S
C244 N241 1.311 . S
C244 N245 1.347 . S
C244 H255 0.929 . S
N245 C243 1.375 . S
N245 C244 1.347 . S
C246 C249 1.365 . S
C246 N251 1.328 . S
C246 H252 0.929 . S
C247 C248 1.362 . S
C247 C250 1.378 . S
C247 H262 0.929 . S
C248 C247 1.362 . S
C248 C249 1.366 . S
C249 C246 1.365 . S
C249 C248 1.366 . S
C249 H263 0.930 . S
C250 C247 1.378 . S
C250 N251 1.315 . S
C250 H253 0.930 . S
N251 Co231 2.194 . S
N251 C246 1.328 . S
N251 C250 1.315 . S
H252 C246 0.929 . S
H253 C250 0.930 . S
H254 C242 0.929 . S
H255 C244 0.929 . S
O256 Co231 2.351 . S
O256 C259 1.244 . S
O257 Co231 2.155 . S
O257 C259 1.240 . S
O258 Co231 2.096 . S
O258 C239 1.247 . S
C259 O256 1.244 . S
C259 O257 1.240 . S
H260 C234 0.931 . S
H261 C243 0.931 . S
H262 C247 0.929 . S
H263 C249 0.930 . S
Co264 N268 2.148 . S
Co264 N274 2.128 . S
Co264 N284 2.194 . S
Co264 O289 2.351 . S
Co264 O290 2.155 . S
Co264 O291 2.096 . S
C265 N268 1.301 . S
C265 N269 1.328 . S
C265 H270 0.930 . S
C266 C267 1.333 . S
C266 N268 1.317 . S
C266 H271 0.930 . S
C267 C266 1.333 . S
C267 N269 1.350 . S
C267 H293 0.931 1_565 S
N268 Co264 2.148 . S
N268 C265 1.301 . S
N268 C266 1.317 . S
N269 C265 1.328 . S
N269 C267 1.350 . S
H270 C265 0.930 . S
H271 C266 0.930 . S
C272 O273 1.224 . S
C272 O291 1.247 . S
O273 C272 1.224 . S
N274 Co264 2.128 . S
N274 C275 1.355 . S
N274 C277 1.311 . S
C275 N274 1.355 . S
C275 C276 1.363 . S
C275 H287 0.929 . S
C276 C275 1.363 . S
C276 N278 1.375 . S
C276 H294 0.931 . S
C277 N274 1.311 . S
C277 N278 1.347 . S
C277 H288 0.929 . S
N278 C276 1.375 . S
N278 C277 1.347 . S
C279 C282 1.365 . S
C279 N284 1.328 . S
C279 H285 0.929 . S
C280 C281 1.362 . S
C280 C283 1.378 . S
C280 H295 0.929 . S
C281 C280 1.362 . S
C281 C282 1.366 . S
C282 C279 1.365 . S
C282 C281 1.366 . S
C282 H296 0.930 . S
C283 C280 1.378 . S
C283 N284 1.315 . S
C283 H286 0.930 . S
N284 Co264 2.194 . S
N284 C279 1.328 . S
N284 C283 1.315 . S
H285 C279 0.929 . S
H286 C283 0.930 . S
H287 C275 0.929 . S
H288 C277 0.929 . S
O289 Co264 2.351 . S
O289 C292 1.244 . S
O290 Co264 2.155 . S
O290 C292 1.240 . S
O291 Co264 2.096 . S
O291 C272 1.247 . S
C292 O289 1.244 . S
C292 O290 1.240 . S
H293 C267 0.931 1_545 S
H294 C276 0.931 . S
H295 C280 0.929 . S
H296 C282 0.930 . S
Co297 N301 2.148 . S
Co297 N307 2.128 . S
Co297 N317 2.194 . S
Co297 O322 2.351 . S
Co297 O323 2.155 . S
Co297 O324 2.096 . S
C298 N301 1.301 . S
C298 N302 1.328 . S
C298 H303 0.930 . S
C299 C300 1.333 . S
C299 N301 1.317 . S
C299 H304 0.930 . S
C300 C299 1.333 . S
C300 N302 1.350 . S
C300 H326 0.931 1_655 S
N301 Co297 2.148 . S
N301 C298 1.301 . S
N301 C299 1.317 . S
N302 C298 1.328 . S
N302 C300 1.350 . S
H303 C298 0.930 . S
H304 C299 0.930 . S
C305 O306 1.224 . S
C305 O324 1.247 . S
O306 C305 1.224 . S
N307 Co297 2.128 . S
N307 C308 1.355 . S
N307 C310 1.311 . S
C308 N307 1.355 . S
C308 C309 1.363 . S
C308 H320 0.929 . S
C309 C308 1.363 . S
C309 N311 1.375 . S
C309 H327 0.931 . S
C310 N307 1.311 . S
C310 N311 1.347 . S
C310 H321 0.929 . S
N311 C309 1.375 . S
N311 C310 1.347 . S
C312 C315 1.365 . S
C312 N317 1.328 . S
C312 H318 0.929 . S
C313 C314 1.362 . S
C313 C316 1.378 . S
C313 H328 0.929 . S
C314 C313 1.362 . S
C314 C315 1.366 . S
C315 C312 1.365 . S
C315 C314 1.366 . S
C315 H329 0.930 . S
C316 C313 1.378 . S
C316 N317 1.315 . S
C316 H319 0.930 . S
N317 Co297 2.194 . S
N317 C312 1.328 . S
N317 C316 1.315 . S
H318 C312 0.929 . S
H319 C316 0.930 . S
H320 C308 0.929 . S
H321 C310 0.929 . S
O322 Co297 2.351 . S
O322 C325 1.244 . S
O323 Co297 2.155 . S
O323 C325 1.240 . S
O324 Co297 2.096 . S
O324 C305 1.247 . S
C325 O322 1.244 . S
C325 O323 1.240 . S
H326 C300 0.931 1_455 S
H327 C309 0.931 . S
H328 C313 0.929 . S
H329 C315 0.930 . S
Co330 N334 2.148 . S
Co330 N340 2.128 . S
Co330 N350 2.194 . S
Co330 O355 2.351 . S
Co330 O356 2.155 . S
Co330 O357 2.096 . S
C331 N334 1.301 . S
C331 N335 1.328 . S
C331 H336 0.930 . S
C332 C333 1.333 . S
C332 N334 1.317 . S
C332 H337 0.930 . S
C333 C332 1.333 . S
C333 N335 1.350 . S
C333 H359 0.931 1_545 S
N334 Co330 2.148 . S
N334 C331 1.301 . S
N334 C332 1.317 . S
N335 C331 1.328 . S
N335 C333 1.350 . S
H336 C331 0.930 . S
H337 C332 0.930 . S
C338 O339 1.224 . S
C338 O357 1.247 . S
O339 C338 1.224 . S
N340 Co330 2.128 . S
N340 C341 1.355 . S
N340 C343 1.311 . S
C341 N340 1.355 . S
C341 C342 1.363 . S
C341 H353 0.929 . S
C342 C341 1.363 . S
C342 N344 1.375 . S
C342 H360 0.931 . S
C343 N340 1.311 . S
C343 N344 1.347 . S
C343 H354 0.929 . S
N344 C342 1.375 . S
N344 C343 1.347 . S
C345 C348 1.365 . S
C345 N350 1.328 . S
C345 H351 0.929 . S
C346 C347 1.362 . S
C346 C349 1.378 . S
C346 H361 0.929 . S
C347 C346 1.362 . S
C347 C348 1.366 . S
C348 C345 1.365 . S
C348 C347 1.366 . S
C348 H362 0.930 . S
C349 C346 1.378 . S
C349 N350 1.315 . S
C349 H352 0.930 . S
N350 Co330 2.194 . S
N350 C345 1.328 . S
N350 C349 1.315 . S
H351 C345 0.929 . S
H352 C349 0.930 . S
H353 C341 0.929 . S
H354 C343 0.929 . S
O355 Co330 2.351 . S
O355 C358 1.244 . S
O356 Co330 2.155 . S
O356 C358 1.240 . S
O357 Co330 2.096 . S
O357 C338 1.247 . S
C358 O355 1.244 . S
C358 O356 1.240 . S
H359 C333 0.931 1_565 S
H360 C342 0.931 . S
H361 C346 0.929 . S
H362 C348 0.930 . S
Co363 N367 2.148 . S
Co363 N373 2.128 . S
Co363 N383 2.194 . S
Co363 O388 2.351 . S
Co363 O389 2.155 . S
Co363 O390 2.096 . S
C364 N367 1.301 . S
C364 N368 1.328 . S
C364 H369 0.930 . S
C365 C366 1.333 . S
C365 N367 1.317 . S
C365 H370 0.930 . S
C366 C365 1.333 . S
C366 N368 1.350 . S
C366 H392 0.931 1_455 S
N367 Co363 2.148 . S
N367 C364 1.301 . S
N367 C365 1.317 . S
N368 C364 1.328 . S
N368 C366 1.350 . S
H369 C364 0.930 . S
H370 C365 0.930 . S
C371 O372 1.224 . S
C371 O390 1.247 . S
O372 C371 1.224 . S
N373 Co363 2.128 . S
N373 C374 1.355 . S
N373 C376 1.311 . S
C374 N373 1.355 . S
C374 C375 1.363 . S
C374 H386 0.929 . S
C375 C374 1.363 . S
C375 N377 1.375 . S
C375 H393 0.931 . S
C376 N373 1.311 . S
C376 N377 1.347 . S
C376 H387 0.929 . S
N377 C375 1.375 . S
N377 C376 1.347 . S
C378 C381 1.365 . S
C378 N383 1.328 . S
C378 H384 0.929 . S
C379 C380 1.362 . S
C379 C382 1.378 . S
C379 H394 0.929 . S
C380 C379 1.362 . S
C380 C381 1.366 . S
C381 C378 1.365 . S
C381 C380 1.366 . S
C381 H395 0.930 . S
C382 C379 1.378 . S
C382 N383 1.315 . S
C382 H385 0.930 . S
N383 Co363 2.194 . S
N383 C378 1.328 . S
N383 C382 1.315 . S
H384 C378 0.929 . S
H385 C382 0.930 . S
H386 C374 0.929 . S
H387 C376 0.929 . S
O388 Co363 2.351 . S
O388 C391 1.244 . S
O389 Co363 2.155 . S
O389 C391 1.240 . S
O390 Co363 2.096 . S
O390 C371 1.247 . S
C391 O388 1.244 . S
C391 O389 1.240 . S
H392 C366 0.931 1_655 S
H393 C375 0.931 . S
H394 C379 0.929 . S
H395 C381 0.930 . S
Co396 N400 2.148 . S
Co396 N406 2.128 . S
Co396 N416 2.194 . S
Co396 O421 2.351 . S
Co396 O422 2.155 . S
Co396 O423 2.096 . S
C397 N400 1.301 . S
C397 N401 1.328 . S
C397 H402 0.930 . S
C398 C399 1.333 . S
C398 N400 1.317 . S
C398 H403 0.930 . S
C399 C398 1.333 . S
C399 N401 1.350 . S
C399 H425 0.931 1_545 S
N400 Co396 2.148 . S
N400 C397 1.301 . S
N400 C398 1.317 . S
N401 C397 1.328 . S
N401 C399 1.350 . S
H402 C397 0.930 . S
H403 C398 0.930 . S
C404 O405 1.224 . S
C404 O423 1.247 . S
O405 C404 1.224 . S
N406 Co396 2.128 . S
N406 C407 1.355 . S
N406 C409 1.311 . S
C407 N406 1.355 . S
C407 C408 1.363 . S
C407 H419 0.929 . S
C408 C407 1.363 . S
C408 N410 1.375 . S
C408 H426 0.931 . S
C409 N406 1.311 . S
C409 N410 1.347 . S
C409 H420 0.929 . S
N410 C408 1.375 . S
N410 C409 1.347 . S
C411 C414 1.365 . S
C411 N416 1.328 . S
C411 H417 0.929 . S
C412 C413 1.362 . S
C412 C415 1.378 . S
C412 H427 0.929 . S
C413 C412 1.362 . S
C413 C414 1.366 . S
C414 C411 1.365 . S
C414 C413 1.366 . S
C414 H428 0.930 . S
C415 C412 1.378 . S
C415 N416 1.315 . S
C415 H418 0.930 . S
N416 Co396 2.194 . S
N416 C411 1.328 . S
N416 C415 1.315 . S
H417 C411 0.929 . S
H418 C415 0.930 . S
H419 C407 0.929 . S
H420 C409 0.929 . S
O421 Co396 2.351 . S
O421 C424 1.244 . S
O422 Co396 2.155 . S
O422 C424 1.240 . S
O423 Co396 2.096 . S
O423 C404 1.247 . S
C424 O421 1.244 . S
C424 O422 1.240 . S
H425 C399 0.931 1_565 S
H426 C408 0.931 . S
H427 C412 0.929 . S
H428 C414 0.930 . S
Co429 N433 2.148 . S
Co429 N439 2.128 . S
Co429 N449 2.194 . S
Co429 O454 2.351 . S
Co429 O455 2.155 . S
Co429 O456 2.096 . S
C430 N433 1.301 . S
C430 N434 1.328 . S
C430 H435 0.930 . S
C431 C432 1.333 . S
C431 N433 1.317 . S
C431 H436 0.930 . S
C432 C431 1.333 . S
C432 N434 1.350 . S
C432 H458 0.931 1_455 S
N433 Co429 2.148 . S
N433 C430 1.301 . S
N433 C431 1.317 . S
N434 C430 1.328 . S
N434 C432 1.350 . S
H435 C430 0.930 . S
H436 C431 0.930 . S
C437 O438 1.224 . S
C437 O456 1.247 . S
O438 C437 1.224 . S
N439 Co429 2.128 . S
N439 C440 1.355 . S
N439 C442 1.311 . S
C440 N439 1.355 . S
C440 C441 1.363 . S
C440 H452 0.929 . S
C441 C440 1.363 . S
C441 N443 1.375 . S
C441 H459 0.931 . S
C442 N439 1.311 . S
C442 N443 1.347 . S
C442 H453 0.929 . S
N443 C441 1.375 . S
N443 C442 1.347 . S
C444 C447 1.365 . S
C444 N449 1.328 . S
C444 H450 0.929 . S
C445 C446 1.362 . S
C445 C448 1.378 . S
C445 H460 0.929 . S
C446 C445 1.362 . S
C446 C447 1.366 . S
C447 C444 1.365 . S
C447 C446 1.366 . S
C447 H461 0.930 . S
C448 C445 1.378 . S
C448 N449 1.315 . S
C448 H451 0.930 . S
N449 Co429 2.194 . S
N449 C444 1.328 . S
N449 C448 1.315 . S
H450 C444 0.929 . S
H451 C448 0.930 . S
H452 C440 0.929 . S
H453 C442 0.929 . S
O454 Co429 2.351 . S
O454 C457 1.244 . S
O455 Co429 2.155 . S
O455 C457 1.240 . S
O456 Co429 2.096 . S
O456 C437 1.247 . S
C457 O454 1.244 . S
C457 O455 1.240 . S
H458 C432 0.931 1_655 S
H459 C441 0.931 . S
H460 C445 0.929 . S
H461 C447 0.930 . S
Co462 N466 2.148 . S
Co462 N472 2.128 . S
Co462 N482 2.194 . S
Co462 O487 2.351 . S
Co462 O488 2.155 . S
Co462 O489 2.096 . S
C463 N466 1.301 . S
C463 N467 1.328 . S
C463 H468 0.930 . S
C464 C465 1.333 . S
C464 N466 1.317 . S
C464 H469 0.930 . S
C465 C464 1.333 . S
C465 N467 1.350 . S
C465 H491 0.931 1_565 S
N466 Co462 2.148 . S
N466 C463 1.301 . S
N466 C464 1.317 . S
N467 C463 1.328 . S
N467 C465 1.350 . S
H468 C463 0.930 . S
H469 C464 0.930 . S
C470 O471 1.224 . S
C470 O489 1.247 . S
O471 C470 1.224 . S
N472 Co462 2.128 . S
N472 C473 1.355 . S
N472 C475 1.311 . S
C473 N472 1.355 . S
C473 C474 1.363 . S
C473 H485 0.929 . S
C474 C473 1.363 . S
C474 N476 1.375 . S
C474 H492 0.931 . S
C475 N472 1.311 . S
C475 N476 1.347 . S
C475 H486 0.929 . S
N476 C474 1.375 . S
N476 C475 1.347 . S
C477 C480 1.365 . S
C477 N482 1.328 . S
C477 H483 0.929 . S
C478 C479 1.362 . S
C478 C481 1.378 . S
C478 H493 0.929 . S
C479 C478 1.362 . S
C479 C480 1.366 . S
C480 C477 1.365 . S
C480 C479 1.366 . S
C480 H494 0.930 . S
C481 C478 1.378 . S
C481 N482 1.315 . S
C481 H484 0.930 . S
N482 Co462 2.194 . S
N482 C477 1.328 . S
N482 C481 1.315 . S
H483 C477 0.929 . S
H484 C481 0.930 . S
H485 C473 0.929 . S
H486 C475 0.929 . S
O487 Co462 2.351 . S
O487 C490 1.244 . S
O488 Co462 2.155 . S
O488 C490 1.240 . S
O489 Co462 2.096 . S
O489 C470 1.247 . S
C490 O487 1.244 . S
C490 O488 1.240 . S
H491 C465 0.931 1_545 S
H492 C474 0.931 . S
H493 C478 0.929 . S
H494 C480 0.930 . S
Co495 N499 2.148 . S
Co495 N505 2.128 . S
Co495 N515 2.194 . S
Co495 O520 2.351 . S
Co495 O521 2.155 . S
Co495 O522 2.096 . S
C496 N499 1.301 . S
C496 N500 1.328 . S
C496 H501 0.930 . S
C497 C498 1.333 . S
C497 N499 1.317 . S
C497 H502 0.930 . S
C498 C497 1.333 . S
C498 N500 1.350 . S
C498 H524 0.931 1_655 S
N499 Co495 2.148 . S
N499 C496 1.301 . S
N499 C497 1.317 . S
N500 C496 1.328 . S
N500 C498 1.350 . S
H501 C496 0.930 . S
H502 C497 0.930 . S
C503 O504 1.224 . S
C503 O522 1.247 . S
O504 C503 1.224 . S
N505 Co495 2.128 . S
N505 C506 1.355 . S
N505 C508 1.311 . S
C506 N505 1.355 . S
C506 C507 1.363 . S
C506 H518 0.929 . S
C507 C506 1.363 . S
C507 N509 1.375 . S
C507 H525 0.931 . S
C508 N505 1.311 . S
C508 N509 1.347 . S
C508 H519 0.929 . S
N509 C507 1.375 . S
N509 C508 1.347 . S
C510 C513 1.365 . S
C510 N515 1.328 . S
C510 H516 0.929 . S
C511 C512 1.362 . S
C511 C514 1.378 . S
C511 H526 0.929 . S
C512 C511 1.362 . S
C512 C513 1.366 . S
C513 C510 1.365 . S
C513 C512 1.366 . S
C513 H527 0.930 . S
C514 C511 1.378 . S
C514 N515 1.315 . S
C514 H517 0.930 . S
N515 Co495 2.194 . S
N515 C510 1.328 . S
N515 C514 1.315 . S
H516 C510 0.929 . S
H517 C514 0.930 . S
H518 C506 0.929 . S
H519 C508 0.929 . S
O520 Co495 2.351 . S
O520 C523 1.244 . S
O521 Co495 2.155 . S
O521 C523 1.240 . S
O522 Co495 2.096 . S
O522 C503 1.247 . S
C523 O520 1.244 . S
C523 O521 1.240 . S
H524 C498 0.931 1_455 S
H525 C507 0.931 . S
H526 C511 0.929 . S
H527 C513 0.930 . S
C528 C529 1.349 . S
C528 C530 1.327 . S
C528 H553 0.950 . S
C529 C528 1.349 . S
C529 C545 1.349 . S
C530 C528 1.327 . S
C530 C549 1.429 . S
C530 H554 0.950 . S
C531 C548 1.574 1_655 S
C531 C550 1.368 . S
C531 H555 0.949 . S
H532 C536 0.949 . S
C533 C534 1.349 . S
C533 C535 1.327 . S
C533 H556 0.950 . S
C534 C533 1.349 . S
C534 C546 1.349 . S
C535 C533 1.327 . S
C535 C551 1.429 . S
C535 H557 0.950 . S
C536 H532 0.949 . S
C536 C544 1.574 1_455 S
C536 C552 1.368 . S
H537 C545 0.950 . S
H538 C543 0.950 . S
H539 C544 0.949 . S
H540 C546 0.950 . S
H541 C547 0.950 . S
H542 C548 0.949 . S
C543 H538 0.950 . S
C543 C545 1.327 . S
C543 C549 1.429 . S
C544 C536 1.574 1_655 S
C544 H539 0.949 . S
C544 C550 1.368 . S
C545 C529 1.349 . S
C545 H537 0.950 . S
C545 C543 1.327 . S
C546 C534 1.349 . S
C546 H540 0.950 . S
C546 C547 1.327 . S
C547 H541 0.950 . S
C547 C546 1.327 . S
C547 C551 1.429 . S
C548 C531 1.574 1_455 S
C548 H542 0.949 . S
C548 C552 1.368 . S
C549 C530 1.429 . S
C549 C543 1.429 . S
C549 C550 1.523 . S
C550 C531 1.368 . S
C550 C544 1.368 . S
C550 C549 1.523 . S
C551 C535 1.429 . S
C551 C547 1.429 . S
C551 C552 1.523 . S
C552 C536 1.368 . S
C552 C548 1.368 . S
C552 C551 1.523 . S
H553 C528 0.950 . S
H554 C530 0.950 . S
H555 C531 0.949 . S
H556 C533 0.950 . S
H557 C535 0.950 . S
C558 C559 1.349 . S
C558 C560 1.327 . S
C558 H583 0.950 . S
C559 C558 1.349 . S
C559 C575 1.349 . S
C560 C558 1.327 . S
C560 C579 1.429 . S
C560 H584 0.950 . S
C561 C578 1.574 1_545 S
C561 C580 1.368 . S
C561 H585 0.949 . S
H562 C566 0.949 . S
C563 C564 1.349 . S
C563 C565 1.327 . S
C563 H586 0.950 . S
C564 C563 1.349 . S
C564 C576 1.349 . S
C565 C563 1.327 . S
C565 C581 1.429 . S
C565 H587 0.950 . S
C566 H562 0.949 . S
C566 C574 1.574 1_565 S
C566 C582 1.368 . S
H567 C575 0.950 . S
H568 C573 0.950 . S
H569 C574 0.949 . S
H570 C576 0.950 . S
H571 C577 0.950 . S
H572 C578 0.949 . S
C573 H568 0.950 . S
C573 C575 1.327 . S
C573 C579 1.429 . S
C574 C566 1.574 1_545 S
C574 H569 0.949 . S
C574 C580 1.368 . S
C575 C559 1.349 . S
C575 H567 0.950 . S
C575 C573 1.327 . S
C576 C564 1.349 . S
C576 H570 0.950 . S
C576 C577 1.327 . S
C577 H571 0.950 . S
C577 C576 1.327 . S
C577 C581 1.429 . S
C578 C561 1.574 1_565 S
C578 H572 0.949 . S
C578 C582 1.368 . S
C579 C560 1.429 . S
C579 C573 1.429 . S
C579 C580 1.523 . S
C580 C561 1.368 . S
C580 C574 1.368 . S
C580 C579 1.523 . S
C581 C565 1.429 . S
C581 C577 1.429 . S
C581 C582 1.523 . S
C582 C566 1.368 . S
C582 C578 1.368 . S
C582 C581 1.523 . S
H583 C558 0.950 . S
H584 C560 0.950 . S
H585 C561 0.949 . S
H586 C563 0.950 . S
H587 C565 0.950 . S
C588 C589 1.349 . S
C588 C590 1.327 . S
C588 H613 0.950 . S
C589 C588 1.349 . S
C589 C605 1.349 . S
C590 C588 1.327 . S
C590 C609 1.429 . S
C590 H614 0.950 . S
C591 C608 1.574 1_655 S
C591 C610 1.368 . S
C591 H615 0.949 . S
H592 C596 0.949 . S
C593 C594 1.349 . S
C593 C595 1.327 . S
C593 H616 0.950 . S
C594 C593 1.349 . S
C594 C606 1.349 . S
C595 C593 1.327 . S
C595 C611 1.429 . S
C595 H617 0.950 . S
C596 H592 0.949 . S
C596 C604 1.574 1_455 S
C596 C612 1.368 . S
H597 C605 0.950 . S
H598 C603 0.950 . S
H599 C604 0.949 . S
H600 C606 0.950 . S
H601 C607 0.950 . S
H602 C608 0.949 . S
C603 H598 0.950 . S
C603 C605 1.327 . S
C603 C609 1.429 . S
C604 C596 1.574 1_655 S
C604 H599 0.949 . S
C604 C610 1.368 . S
C605 C589 1.349 . S
C605 H597 0.950 . S
C605 C603 1.327 . S
C606 C594 1.349 . S
C606 H600 0.950 . S
C606 C607 1.327 . S
C607 H601 0.950 . S
C607 C606 1.327 . S
C607 C611 1.429 . S
C608 C591 1.574 1_455 S
C608 H602 0.949 . S
C608 C612 1.368 . S
C609 C590 1.429 . S
C609 C603 1.429 . S
C609 C610 1.523 . S
C610 C591 1.368 . S
C610 C604 1.368 . S
C610 C609 1.523 . S
C611 C595 1.429 . S
C611 C607 1.429 . S
C611 C612 1.523 . S
C612 C596 1.368 . S
C612 C608 1.368 . S
C612 C611 1.523 . S
H613 C588 0.950 . S
H614 C590 0.950 . S
H615 C591 0.949 . S
H616 C593 0.950 . S
H617 C595 0.950 . S
C618 C619 1.349 . S
C618 C620 1.327 . S
C618 H643 0.950 . S
C619 C618 1.349 . S
C619 C635 1.349 . S
C620 C618 1.327 . S
C620 C639 1.429 . S
C620 H644 0.950 . S
C621 C638 1.574 1_565 S
C621 C640 1.368 . S
C621 H645 0.949 . S
H622 C626 0.949 . S
C623 C624 1.349 . S
C623 C625 1.327 . S
C623 H646 0.950 . S
C624 C623 1.349 . S
C624 C636 1.349 . S
C625 C623 1.327 . S
C625 C641 1.429 . S
C625 H647 0.950 . S
C626 H622 0.949 . S
C626 C634 1.574 1_545 S
C626 C642 1.368 . S
H627 C635 0.950 . S
H628 C633 0.950 . S
H629 C634 0.949 . S
H630 C636 0.950 . S
H631 C637 0.950 . S
H632 C638 0.949 . S
C633 H628 0.950 . S
C633 C635 1.327 . S
C633 C639 1.429 . S
C634 C626 1.574 1_565 S
C634 H629 0.949 . S
C634 C640 1.368 . S
C635 C619 1.349 . S
C635 H627 0.950 . S
C635 C633 1.327 . S
C636 C624 1.349 . S
C636 H630 0.950 . S
C636 C637 1.327 . S
C637 H631 0.950 . S
C637 C636 1.327 . S
C637 C641 1.429 . S
C638 C621 1.574 1_545 S
C638 H632 0.949 . S
C638 C642 1.368 . S
C639 C620 1.429 . S
C639 C633 1.429 . S
C639 C640 1.523 . S
C640 C621 1.368 . S
C640 C634 1.368 . S
C640 C639 1.523 . S
C641 C625 1.429 . S
C641 C637 1.429 . S
C641 C642 1.523 . S
C642 C626 1.368 . S
C642 C638 1.368 . S
C642 C641 1.523 . S
H643 C618 0.950 . S
H644 C620 0.950 . S
H645 C621 0.949 . S
H646 C623 0.950 . S
H647 C625 0.950 . S
C648 C649 1.349 . S
C648 C650 1.327 . S
C648 H673 0.950 . S
C649 C648 1.349 . S
C649 C665 1.349 . S
C650 C648 1.327 . S
C650 C669 1.429 . S
C650 H674 0.950 . S
C651 C668 1.585 . S
C651 C670 1.368 . S
C651 H675 0.949 . S
H652 C656 0.949 . S
C653 C654 1.349 . S
C653 C655 1.327 . S
C653 H676 0.950 . S
C654 C653 1.349 . S
C654 C666 1.349 . S
C655 C653 1.327 . S
C655 C671 1.429 . S
C655 H677 0.950 . S
C656 H652 0.949 . S
C656 C664 1.585 . S
C656 C672 1.368 . S
H657 C665 0.950 . S
H658 C663 0.950 . S
H659 C664 0.949 . S
H660 C666 0.950 . S
H661 C667 0.950 . S
H662 C668 0.949 . S
C663 H658 0.950 . S
C663 C665 1.327 . S
C663 C669 1.429 . S
C664 C656 1.585 . S
C664 H659 0.949 . S
C664 C670 1.358 1_545 S
C665 C649 1.349 . S
C665 H657 0.950 . S
C665 C663 1.327 . S
C666 C654 1.349 . S
C666 H660 0.950 . S
C666 C667 1.327 . S
C667 H661 0.950 . S
C667 C666 1.327 . S
C667 C671 1.429 . S
C668 C651 1.585 . S
C668 H662 0.949 . S
C668 C672 1.358 1_565 S
C669 C650 1.429 . S
C669 C663 1.429 . S
C669 C670 1.523 . S
C670 C651 1.368 . S
C670 C664 1.358 1_565 S
C670 C669 1.523 . S
C671 C655 1.429 . S
C671 C667 1.429 . S
C671 C672 1.523 . S
C672 C656 1.368 . S
C672 C668 1.358 1_545 S
C672 C671 1.523 . S
H673 C648 0.950 . S
H674 C650 0.950 . S
H675 C651 0.949 . S
H676 C653 0.950 . S
H677 C655 0.950 . S
C678 C679 1.349 . S
C678 C680 1.327 . S
C678 H703 0.950 . S
C679 C678 1.349 . S
C679 C695 1.349 . S
C680 C678 1.327 . S
C680 C699 1.429 . S
C680 H704 0.950 . S
C681 C698 1.585 . S
C681 C700 1.368 . S
C681 H705 0.949 . S
H682 C686 0.949 . S
C683 C684 1.349 . S
C683 C685 1.327 . S
C683 H706 0.950 . S
C684 C683 1.349 . S
C684 C696 1.349 . S
C685 C683 1.327 . S
C685 C701 1.429 . S
C685 H707 0.950 . S
C686 H682 0.949 . S
C686 C694 1.585 . S
C686 C702 1.368 . S
H687 C695 0.950 . S
H688 C693 0.950 . S
H689 C694 0.949 . S
H690 C696 0.950 . S
H691 C697 0.950 . S
H692 C698 0.949 . S
C693 H688 0.950 . S
C693 C695 1.327 . S
C693 C699 1.429 . S
C694 C686 1.585 . S
C694 H689 0.949 . S
C694 C700 1.358 1_455 S
C695 C679 1.349 . S
C695 H687 0.950 . S
C695 C693 1.327 . S
C696 C684 1.349 . S
C696 H690 0.950 . S
C696 C697 1.327 . S
C697 H691 0.950 . S
C697 C696 1.327 . S
C697 C701 1.429 . S
C698 C681 1.585 . S
C698 H692 0.949 . S
C698 C702 1.358 1_655 S
C699 C680 1.429 . S
C699 C693 1.429 . S
C699 C700 1.523 . S
C700 C681 1.368 . S
C700 C694 1.358 1_655 S
C700 C699 1.523 . S
C701 C685 1.429 . S
C701 C697 1.429 . S
C701 C702 1.523 . S
C702 C686 1.368 . S
C702 C698 1.358 1_455 S
C702 C701 1.523 . S
H703 C678 0.950 . S
H704 C680 0.950 . S
H705 C681 0.949 . S
H706 C683 0.950 . S
H707 C685 0.950 . S
C708 C709 1.349 . S
C708 C710 1.327 . S
C708 H733 0.950 . S
C709 C708 1.349 . S
C709 C725 1.349 . S
C710 C708 1.327 . S
C710 C729 1.429 . S
C710 H734 0.950 . S
C711 C728 1.585 . S
C711 C730 1.358 1_545 S
C711 H735 0.949 . S
H712 C716 0.949 . S
C713 C714 1.349 . S
C713 C715 1.327 . S
C713 H736 0.950 . S
C714 C713 1.349 . S
C714 C726 1.349 . S
C715 C713 1.327 . S
C715 C731 1.429 . S
C715 H737 0.950 . S
C716 H712 0.949 . S
C716 C724 1.585 . S
C716 C732 1.358 1_565 S
H717 C725 0.950 . S
H718 C723 0.950 . S
H719 C724 0.949 . S
H720 C726 0.950 . S
H721 C727 0.950 . S
H722 C728 0.949 . S
C723 H718 0.950 . S
C723 C725 1.327 . S
C723 C729 1.429 . S
C724 C716 1.585 . S
C724 H719 0.949 . S
C724 C730 1.368 . S
C725 C709 1.349 . S
C725 H717 0.950 . S
C725 C723 1.327 . S
C726 C714 1.349 . S
C726 H720 0.950 . S
C726 C727 1.327 . S
C727 H721 0.950 . S
C727 C726 1.327 . S
C727 C731 1.429 . S
C728 C711 1.585 . S
C728 H722 0.949 . S
C728 C732 1.368 . S
C729 C710 1.429 . S
C729 C723 1.429 . S
C729 C730 1.523 . S
C730 C711 1.358 1_565 S
C730 C724 1.368 . S
C730 C729 1.523 . S
C731 C715 1.429 . S
C731 C727 1.429 . S
C731 C732 1.523 . S
C732 C716 1.358 1_545 S
C732 C728 1.368 . S
C732 C731 1.523 . S
H733 C708 0.950 . S
H734 C710 0.950 . S
H735 C711 0.949 . S
H736 C713 0.950 . S
H737 C715 0.950 . S
C738 C739 1.349 . S
C738 C740 1.327 . S
C738 H763 0.950 . S
C739 C738 1.349 . S
C739 C755 1.349 . S
C740 C738 1.327 . S
C740 C759 1.429 . S
C740 H764 0.950 . S
C741 C758 1.585 . S
C741 C760 1.358 1_455 S
C741 H765 0.949 . S
H742 C746 0.949 . S
C743 C744 1.349 . S
C743 C745 1.327 . S
C743 H766 0.950 . S
C744 C743 1.349 . S
C744 C756 1.349 . S
C745 C743 1.327 . S
C745 C761 1.429 . S
C745 H767 0.950 . S
C746 H742 0.949 . S
C746 C754 1.585 . S
C746 C762 1.358 1_655 S
H747 C755 0.950 . S
H748 C753 0.950 . S
H749 C754 0.949 . S
H750 C756 0.950 . S
H751 C757 0.950 . S
H752 C758 0.949 . S
C753 H748 0.950 . S
C753 C755 1.327 . S
C753 C759 1.429 . S
C754 C746 1.585 . S
C754 H749 0.949 . S
C754 C760 1.368 . S
C755 C739 1.349 . S
C755 H747 0.950 . S
C755 C753 1.327 . S
C756 C744 1.349 . S
C756 H750 0.950 . S
C756 C757 1.327 . S
C757 H751 0.950 . S
C757 C756 1.327 . S
C757 C761 1.429 . S
C758 C741 1.585 . S
C758 H752 0.949 . S
C758 C762 1.368 . S
C759 C740 1.429 . S
C759 C753 1.429 . S
C759 C760 1.523 . S
C760 C741 1.358 1_655 S
C760 C754 1.368 . S
C760 C759 1.523 . S
C761 C745 1.429 . S
C761 C757 1.429 . S
C761 C762 1.523 . S
C762 C746 1.358 1_455 S
C762 C758 1.368 . S
C762 C761 1.523 . S
H763 C738 0.950 . S
H764 C740 0.950 . S
H765 C741 0.949 . S
H766 C743 0.950 . S
H767 C745 0.950 . S
C768 C769 1.349 . S
C768 C770 1.327 . S
C768 H793 0.950 . S
C769 C768 1.349 . S
C769 C785 1.349 . S
C770 C768 1.327 . S
C770 C789 1.429 . S
C770 H794 0.950 . S
C771 C788 1.574 . S
C771 C790 1.368 . S
C771 H795 0.949 . S
H772 C776 0.949 . S
C773 C774 1.349 . S
C773 C775 1.327 . S
C773 H796 0.950 . S
C774 C773 1.349 . S
C774 C786 1.349 . S
C775 C773 1.327 . S
C775 C791 1.429 . S
C775 H797 0.950 . S
C776 H772 0.949 . S
C776 C784 1.574 . S
C776 C792 1.368 . S
H777 C785 0.950 . S
H778 C783 0.950 . S
H779 C784 0.949 . S
H780 C786 0.950 . S
H781 C787 0.950 . S
H782 C788 0.949 . S
C783 H778 0.950 . S
C783 C785 1.327 . S
C783 C789 1.429 . S
C784 C776 1.574 . S
C784 H779 0.949 . S
C784 C790 1.368 . S
C785 C769 1.349 . S
C785 H777 0.950 . S
C785 C783 1.327 . S
C786 C774 1.349 . S
C786 H780 0.950 . S
C786 C787 1.327 . S
C787 H781 0.950 . S
C787 C786 1.327 . S
C787 C791 1.429 . S
C788 C771 1.574 . S
C788 H782 0.949 . S
C788 C792 1.368 . S
C789 C770 1.429 . S
C789 C783 1.429 . S
C789 C790 1.523 . S
C790 C771 1.368 . S
C790 C784 1.368 . S
C790 C789 1.523 . S
C791 C775 1.429 . S
C791 C787 1.429 . S
C791 C792 1.523 . S
C792 C776 1.368 . S
C792 C788 1.368 . S
C792 C791 1.523 . S
H793 C768 0.950 . S
H794 C770 0.950 . S
H795 C771 0.949 . S
H796 C773 0.950 . S
H797 C775 0.950 . S
C798 C799 1.349 . S
C798 C800 1.327 . S
C798 H823 0.950 . S
C799 C798 1.349 . S
C799 C815 1.349 . S
C800 C798 1.327 . S
C800 C819 1.429 . S
C800 H824 0.950 . S
C801 C818 1.574 . S
C801 C820 1.368 . S
C801 H825 0.949 . S
H802 C806 0.949 . S
C803 C804 1.349 . S
C803 C805 1.327 . S
C803 H826 0.950 . S
C804 C803 1.349 . S
C804 C816 1.349 . S
C805 C803 1.327 . S
C805 C821 1.429 . S
C805 H827 0.950 . S
C806 H802 0.949 . S
C806 C814 1.574 . S
C806 C822 1.368 . S
H807 C815 0.950 . S
H808 C813 0.950 . S
H809 C814 0.949 . S
H810 C816 0.950 . S
H811 C817 0.950 . S
H812 C818 0.949 . S
C813 H808 0.950 . S
C813 C815 1.327 . S
C813 C819 1.429 . S
C814 C806 1.574 . S
C814 H809 0.949 . S
C814 C820 1.368 . S
C815 C799 1.349 . S
C815 H807 0.950 . S
C815 C813 1.327 . S
C816 C804 1.349 . S
C816 H810 0.950 . S
C816 C817 1.327 . S
C817 H811 0.950 . S
C817 C816 1.327 . S
C817 C821 1.429 . S
C818 C801 1.574 . S
C818 H812 0.949 . S
C818 C822 1.368 . S
C819 C800 1.429 . S
C819 C813 1.429 . S
C819 C820 1.523 . S
C820 C801 1.368 . S
C820 C814 1.368 . S
C820 C819 1.523 . S
C821 C805 1.429 . S
C821 C817 1.429 . S
C821 C822 1.523 . S
C822 C806 1.368 . S
C822 C818 1.368 . S
C822 C821 1.523 . S
H823 C798 0.950 . S
H824 C800 0.950 . S
H825 C801 0.949 . S
H826 C803 0.950 . S
H827 C805 0.950 . S
C828 C829 1.349 . S
C828 C830 1.327 . S
C828 H853 0.950 . S
C829 C828 1.349 . S
C829 C845 1.349 . S
C830 C828 1.327 . S
C830 C849 1.429 . S
C830 H854 0.950 . S
C831 C848 1.574 . S
C831 C850 1.368 . S
C831 H855 0.949 . S
H832 C836 0.949 . S
C833 C834 1.349 . S
C833 C835 1.327 . S
C833 H856 0.950 . S
C834 C833 1.349 . S
C834 C846 1.349 . S
C835 C833 1.327 . S
C835 C851 1.429 . S
C835 H857 0.950 . S
C836 H832 0.949 . S
C836 C844 1.574 . S
C836 C852 1.368 . S
H837 C845 0.950 . S
H838 C843 0.950 . S
H839 C844 0.949 . S
H840 C846 0.950 . S
H841 C847 0.950 . S
H842 C848 0.949 . S
C843 H838 0.950 . S
C843 C845 1.327 . S
C843 C849 1.429 . S
C844 C836 1.574 . S
C844 H839 0.949 . S
C844 C850 1.368 . S
C845 C829 1.349 . S
C845 H837 0.950 . S
C845 C843 1.327 . S
C846 C834 1.349 . S
C846 H840 0.950 . S
C846 C847 1.327 . S
C847 H841 0.950 . S
C847 C846 1.327 . S
C847 C851 1.429 . S
C848 C831 1.574 . S
C848 H842 0.949 . S
C848 C852 1.368 . S
C849 C830 1.429 . S
C849 C843 1.429 . S
C849 C850 1.523 . S
C850 C831 1.368 . S
C850 C844 1.368 . S
C850 C849 1.523 . S
C851 C835 1.429 . S
C851 C847 1.429 . S
C851 C852 1.523 . S
C852 C836 1.368 . S
C852 C848 1.368 . S
C852 C851 1.523 . S
H853 C828 0.950 . S
H854 C830 0.950 . S
H855 C831 0.949 . S
H856 C833 0.950 . S
H857 C835 0.950 . S
C858 C859 1.349 . S
C858 C860 1.327 . S
C858 H883 0.950 . S
C859 C858 1.349 . S
C859 C875 1.349 . S
C860 C858 1.327 . S
C860 C879 1.429 . S
C860 H884 0.950 . S
C861 C878 1.574 . S
C861 C880 1.368 . S
C861 H885 0.949 . S
H862 C866 0.949 . S
C863 C864 1.349 . S
C863 C865 1.327 . S
C863 H886 0.950 . S
C864 C863 1.349 . S
C864 C876 1.349 . S
C865 C863 1.327 . S
C865 C881 1.429 . S
C865 H887 0.950 . S
C866 H862 0.949 . S
C866 C874 1.574 . S
C866 C882 1.368 . S
H867 C875 0.950 . S
H868 C873 0.950 . S
H869 C874 0.949 . S
H870 C876 0.950 . S
H871 C877 0.950 . S
H872 C878 0.949 . S
C873 H868 0.950 . S
C873 C875 1.327 . S
C873 C879 1.429 . S
C874 C866 1.574 . S
C874 H869 0.949 . S
C874 C880 1.368 . S
C875 C859 1.349 . S
C875 H867 0.950 . S
C875 C873 1.327 . S
C876 C864 1.349 . S
C876 H870 0.950 . S
C876 C877 1.327 . S
C877 H871 0.950 . S
C877 C876 1.327 . S
C877 C881 1.429 . S
C878 C861 1.574 . S
C878 H872 0.949 . S
C878 C882 1.368 . S
C879 C860 1.429 . S
C879 C873 1.429 . S
C879 C880 1.523 . S
C880 C861 1.368 . S
C880 C874 1.368 . S
C880 C879 1.523 . S
C881 C865 1.429 . S
C881 C877 1.429 . S
C881 C882 1.523 . S
C882 C866 1.368 . S
C882 C878 1.368 . S
C882 C881 1.523 . S
H883 C858 0.950 . S
H884 C860 0.950 . S
H885 C861 0.949 . S
H886 C863 0.950 . S
H887 C865 0.950 . S
C888 C889 1.349 . S
C888 C890 1.327 . S
C888 H913 0.950 . S
C889 C888 1.349 . S
C889 C905 1.349 . S
C890 C888 1.327 . S
C890 C909 1.429 . S
C890 H914 0.950 . S
C891 C908 1.574 . S
C891 C910 1.368 . S
C891 H915 0.949 . S
H892 C896 0.949 . S
C893 C894 1.349 . S
C893 C895 1.327 . S
C893 H916 0.950 . S
C894 C893 1.349 . S
C894 C906 1.349 . S
C895 C893 1.327 . S
C895 C911 1.429 . S
C895 H917 0.950 . S
C896 H892 0.949 . S
C896 C904 1.574 . S
C896 C912 1.368 . S
H897 C905 0.950 . S
H898 C903 0.950 . S
H899 C904 0.949 . S
H900 C906 0.950 . S
H901 C907 0.950 . S
H902 C908 0.949 . S
C903 H898 0.950 . S
C903 C905 1.327 . S
C903 C909 1.429 . S
C904 C896 1.574 . S
C904 H899 0.949 . S
C904 C910 1.368 . S
C905 C889 1.349 . S
C905 H897 0.950 . S
C905 C903 1.327 . S
C906 C894 1.349 . S
C906 H900 0.950 . S
C906 C907 1.327 . S
C907 H901 0.950 . S
C907 C906 1.327 . S
C907 C911 1.429 . S
C908 C891 1.574 . S
C908 H902 0.949 . S
C908 C912 1.368 . S
C909 C890 1.429 . S
C909 C903 1.429 . S
C909 C910 1.523 . S
C910 C891 1.368 . S
C910 C904 1.368 . S
C910 C909 1.523 . S
C911 C895 1.429 . S
C911 C907 1.429 . S
C911 C912 1.523 . S
C912 C896 1.368 . S
C912 C908 1.368 . S
C912 C911 1.523 . S
H913 C888 0.950 . S
H914 C890 0.950 . S
H915 C891 0.949 . S
H916 C893 0.950 . S
H917 C895 0.950 . S
C918 C919 1.349 . S
C918 C920 1.327 . S
C918 H943 0.950 . S
C919 C918 1.349 . S
C919 C935 1.349 . S
C920 C918 1.327 . S
C920 C939 1.429 . S
C920 H944 0.950 . S
C921 C938 1.574 . S
C921 C940 1.368 . S
C921 H945 0.949 . S
H922 C926 0.949 . S
C923 C924 1.349 . S
C923 C925 1.327 . S
C923 H946 0.950 . S
C924 C923 1.349 . S
C924 C936 1.349 . S
C925 C923 1.327 . S
C925 C941 1.429 . S
C925 H947 0.950 . S
C926 H922 0.949 . S
C926 C934 1.574 . S
C926 C942 1.368 . S
H927 C935 0.950 . S
H928 C933 0.950 . S
H929 C934 0.949 . S
H930 C936 0.950 . S
H931 C937 0.950 . S
H932 C938 0.949 . S
C933 H928 0.950 . S
C933 C935 1.327 . S
C933 C939 1.429 . S
C934 C926 1.574 . S
C934 H929 0.949 . S
C934 C940 1.368 . S
C935 C919 1.349 . S
C935 H927 0.950 . S
C935 C933 1.327 . S
C936 C924 1.349 . S
C936 H930 0.950 . S
C936 C937 1.327 . S
C937 H931 0.950 . S
C937 C936 1.327 . S
C937 C941 1.429 . S
C938 C921 1.574 . S
C938 H932 0.949 . S
C938 C942 1.368 . S
C939 C920 1.429 . S
C939 C933 1.429 . S
C939 C940 1.523 . S
C940 C921 1.368 . S
C940 C934 1.368 . S
C940 C939 1.523 . S
C941 C925 1.429 . S
C941 C937 1.429 . S
C941 C942 1.523 . S
C942 C926 1.368 . S
C942 C938 1.368 . S
C942 C941 1.523 . S
H943 C918 0.950 . S
H944 C920 0.950 . S
H945 C921 0.949 . S
H946 C923 0.950 . S
H947 C925 0.950 . S
C948 C949 1.349 . S
C948 C950 1.327 . S
C948 H973 0.950 . S
C949 C948 1.349 . S
C949 C965 1.349 . S
C950 C948 1.327 . S
C950 C969 1.429 . S
C950 H974 0.950 . S
C951 C968 1.574 . S
C951 C970 1.368 . S
C951 H975 0.949 . S
H952 C956 0.949 . S
C953 C954 1.349 . S
C953 C955 1.327 . S
C953 H976 0.950 . S
C954 C953 1.349 . S
C954 C966 1.349 . S
C955 C953 1.327 . S
C955 C971 1.429 . S
C955 H977 0.950 . S
C956 H952 0.949 . S
C956 C964 1.574 . S
C956 C972 1.368 . S
H957 C965 0.950 . S
H958 C963 0.950 . S
H959 C964 0.949 . S
H960 C966 0.950 . S
H961 C967 0.950 . S
H962 C968 0.949 . S
C963 H958 0.950 . S
C963 C965 1.327 . S
C963 C969 1.429 . S
C964 C956 1.574 . S
C964 H959 0.949 . S
C964 C970 1.368 . S
C965 C949 1.349 . S
C965 H957 0.950 . S
C965 C963 1.327 . S
C966 C954 1.349 . S
C966 H960 0.950 . S
C966 C967 1.327 . S
C967 H961 0.950 . S
C967 C966 1.327 . S
C967 C971 1.429 . S
C968 C951 1.574 . S
C968 H962 0.949 . S
C968 C972 1.368 . S
C969 C950 1.429 . S
C969 C963 1.429 . S
C969 C970 1.523 . S
C970 C951 1.368 . S
C970 C964 1.368 . S
C970 C969 1.523 . S
C971 C955 1.429 . S
C971 C967 1.429 . S
C971 C972 1.523 . S
C972 C956 1.368 . S
C972 C968 1.368 . S
C972 C971 1.523 . S
H973 C948 0.950 . S
H974 C950 0.950 . S
H975 C951 0.949 . S
H976 C953 0.950 . S
H977 C955 0.950 . S
C978 C979 1.349 . S
C978 C980 1.327 . S
C978 H1003 0.950 . S
C979 C978 1.349 . S
C979 C995 1.349 . S
C980 C978 1.327 . S
C980 C999 1.429 . S
C980 H1004 0.950 . S
C981 C998 1.574 . S
C981 C1000 1.368 . S
C981 H1005 0.949 . S
H982 C986 0.949 . S
C983 C984 1.349 . S
C983 C985 1.327 . S
C983 H1006 0.950 . S
C984 C983 1.349 . S
C984 C996 1.349 . S
C985 C983 1.327 . S
C985 C1001 1.429 . S
C985 H1007 0.950 . S
C986 H982 0.949 . S
C986 C994 1.574 . S
C986 C1002 1.368 . S
H987 C995 0.950 . S
H988 C993 0.950 . S
H989 C994 0.949 . S
H990 C996 0.950 . S
H991 C997 0.950 . S
H992 C998 0.949 . S
C993 H988 0.950 . S
C993 C995 1.327 . S
C993 C999 1.429 . S
C994 C986 1.574 . S
C994 H989 0.949 . S
C994 C1000 1.368 . S
C995 C979 1.349 . S
C995 H987 0.950 . S
C995 C993 1.327 . S
C996 C984 1.349 . S
C996 H990 0.950 . S
C996 C997 1.327 . S
C997 H991 0.950 . S
C997 C996 1.327 . S
C997 C1001 1.429 . S
C998 C981 1.574 . S
C998 H992 0.949 . S
C998 C1002 1.368 . S
C999 C980 1.429 . S
C999 C993 1.429 . S
C999 C1000 1.523 . S
C1000 C981 1.368 . S
C1000 C994 1.368 . S
C1000 C999 1.523 . S
C1001 C985 1.429 . S
C1001 C997 1.429 . S
C1001 C1002 1.523 . S
C1002 C986 1.368 . S
C1002 C998 1.368 . S
C1002 C1001 1.523 . S
H1003 C978 0.950 . S
H1004 C980 0.950 . S
H1005 C981 0.949 . S
H1006 C983 0.950 . S
H1007 C985 0.950 . S
C1008 C1009 1.349 . S
C1008 C1010 1.327 . S
C1008 H1033 0.950 . S
C1009 C1008 1.349 . S
C1009 C1025 1.349 . S
C1010 C1008 1.327 . S
C1010 C1029 1.429 . S
C1010 H1034 0.950 . S
C1011 C1028 1.574 . S
C1011 C1030 1.368 . S
C1011 H1035 0.949 . S
H1012 C1016 0.949 . S
C1013 C1014 1.349 . S
C1013 C1015 1.327 . S
C1013 H1036 0.950 . S
C1014 C1013 1.349 . S
C1014 C1026 1.349 . S
C1015 C1013 1.327 . S
C1015 C1031 1.429 . S
C1015 H1037 0.950 . S
C1016 H1012 0.949 . S
C1016 C1024 1.574 . S
C1016 C1032 1.368 . S
H1017 C1025 0.950 . S
H1018 C1023 0.950 . S
H1019 C1024 0.949 . S
H1020 C1026 0.950 . S
H1021 C1027 0.950 . S
H1022 C1028 0.949 . S
C1023 H1018 0.950 . S
C1023 C1025 1.327 . S
C1023 C1029 1.429 . S
C1024 C1016 1.574 . S
C1024 H1019 0.949 . S
C1024 C1030 1.368 . S
C1025 C1009 1.349 . S
C1025 H1017 0.950 . S
C1025 C1023 1.327 . S
C1026 C1014 1.349 . S
C1026 H1020 0.950 . S
C1026 C1027 1.327 . S
C1027 H1021 0.950 . S
C1027 C1026 1.327 . S
C1027 C1031 1.429 . S
C1028 C1011 1.574 . S
C1028 H1022 0.949 . S
C1028 C1032 1.368 . S
C1029 C1010 1.429 . S
C1029 C1023 1.429 . S
C1029 C1030 1.523 . S
C1030 C1011 1.368 . S
C1030 C1024 1.368 . S
C1030 C1029 1.523 . S
C1031 C1015 1.429 . S
C1031 C1027 1.429 . S
C1031 C1032 1.523 . S
C1032 C1016 1.368 . S
C1032 C1028 1.368 . S
C1032 C1031 1.523 . S
H1033 C1008 0.950 . S
H1034 C1010 0.950 . S
H1035 C1011 0.949 . S
H1036 C1013 0.950 . S
H1037 C1015 0.950 . S
C1038 C1039 1.349 . S
C1038 C1040 1.327 . S
C1038 H1063 0.950 . S
C1039 C1038 1.349 . S
C1039 C1055 1.349 . S
C1040 C1038 1.327 . S
C1040 C1059 1.429 . S
C1040 H1064 0.950 . S
C1041 C1058 1.574 . S
C1041 C1060 1.368 . S
C1041 H1065 0.949 . S
H1042 C1046 0.949 . S
C1043 C1044 1.349 . S
C1043 C1045 1.327 . S
C1043 H1066 0.950 . S
C1044 C1043 1.349 . S
C1044 C1056 1.349 . S
C1045 C1043 1.327 . S
C1045 C1061 1.429 . S
C1045 H1067 0.950 . S
C1046 H1042 0.949 . S
C1046 C1054 1.574 . S
C1046 C1062 1.368 . S
H1047 C1055 0.950 . S
H1048 C1053 0.950 . S
H1049 C1054 0.949 . S
H1050 C1056 0.950 . S
H1051 C1057 0.950 . S
H1052 C1058 0.949 . S
C1053 H1048 0.950 . S
C1053 C1055 1.327 . S
C1053 C1059 1.429 . S
C1054 C1046 1.574 . S
C1054 H1049 0.949 . S
C1054 C1060 1.368 . S
C1055 C1039 1.349 . S
C1055 H1047 0.950 . S
C1055 C1053 1.327 . S
C1056 C1044 1.349 . S
C1056 H1050 0.950 . S
C1056 C1057 1.327 . S
C1057 H1051 0.950 . S
C1057 C1056 1.327 . S
C1057 C1061 1.429 . S
C1058 C1041 1.574 . S
C1058 H1052 0.949 . S
C1058 C1062 1.368 . S
C1059 C1040 1.429 . S
C1059 C1053 1.429 . S
C1059 C1060 1.523 . S
C1060 C1041 1.368 . S
C1060 C1054 1.368 . S
C1060 C1059 1.523 . S
C1061 C1045 1.429 . S
C1061 C1057 1.429 . S
C1061 C1062 1.523 . S
C1062 C1046 1.368 . S
C1062 C1058 1.368 . S
C1062 C1061 1.523 . S
H1063 C1038 0.950 . S
H1064 C1040 0.950 . S
H1065 C1041 0.949 . S
H1066 C1043 0.950 . S
H1067 C1045 0.950 . S
C1068 C1069 1.349 . S
C1068 C1070 1.327 . S
C1068 H1093 0.950 . S
C1069 C1068 1.349 . S
C1069 C1085 1.349 . S
C1070 C1068 1.327 . S
C1070 C1089 1.429 . S
C1070 H1094 0.950 . S
C1071 C1088 1.574 . S
C1071 C1090 1.368 . S
C1071 H1095 0.949 . S
H1072 C1076 0.949 . S
C1073 C1074 1.349 . S
C1073 C1075 1.327 . S
C1073 H1096 0.950 . S
C1074 C1073 1.349 . S
C1074 C1086 1.349 . S
C1075 C1073 1.327 . S
C1075 C1091 1.429 . S
C1075 H1097 0.950 . S
C1076 H1072 0.949 . S
C1076 C1084 1.574 . S
C1076 C1092 1.368 . S
H1077 C1085 0.950 . S
H1078 C1083 0.950 . S
H1079 C1084 0.949 . S
H1080 C1086 0.950 . S
H1081 C1087 0.950 . S
H1082 C1088 0.949 . S
C1083 H1078 0.950 . S
C1083 C1085 1.327 . S
C1083 C1089 1.429 . S
C1084 C1076 1.574 . S
C1084 H1079 0.949 . S
C1084 C1090 1.368 . S
C1085 C1069 1.349 . S
C1085 H1077 0.950 . S
C1085 C1083 1.327 . S
C1086 C1074 1.349 . S
C1086 H1080 0.950 . S
C1086 C1087 1.327 . S
C1087 H1081 0.950 . S
C1087 C1086 1.327 . S
C1087 C1091 1.429 . S
C1088 C1071 1.574 . S
C1088 H1082 0.949 . S
C1088 C1092 1.368 . S
C1089 C1070 1.429 . S
C1089 C1083 1.429 . S
C1089 C1090 1.523 . S
C1090 C1071 1.368 . S
C1090 C1084 1.368 . S
C1090 C1089 1.523 . S
C1091 C1075 1.429 . S
C1091 C1087 1.429 . S
C1091 C1092 1.523 . S
C1092 C1076 1.368 . S
C1092 C1088 1.368 . S
C1092 C1091 1.523 . S
H1093 C1068 0.950 . S
H1094 C1070 0.950 . S
H1095 C1071 0.949 . S
H1096 C1073 0.950 . S
H1097 C1075 0.950 . S
C1098 C1099 1.349 . S
C1098 C1100 1.327 . S
C1098 H1123 0.950 . S
C1099 C1098 1.349 . S
C1099 C1115 1.349 . S
C1100 C1098 1.327 . S
C1100 C1119 1.429 . S
C1100 H1124 0.950 . S
C1101 C1118 1.574 . S
C1101 C1120 1.368 . S
C1101 H1125 0.949 . S
H1102 C1106 0.949 . S
C1103 C1104 1.349 . S
C1103 C1105 1.327 . S
C1103 H1126 0.950 . S
C1104 C1103 1.349 . S
C1104 C1116 1.349 . S
C1105 C1103 1.327 . S
C1105 C1121 1.429 . S
C1105 H1127 0.950 . S
C1106 H1102 0.949 . S
C1106 C1114 1.574 . S
C1106 C1122 1.368 . S
H1107 C1115 0.950 . S
H1108 C1113 0.950 . S
H1109 C1114 0.949 . S
H1110 C1116 0.950 . S
H1111 C1117 0.950 . S
H1112 C1118 0.949 . S
C1113 H1108 0.950 . S
C1113 C1115 1.327 . S
C1113 C1119 1.429 . S
C1114 C1106 1.574 . S
C1114 H1109 0.949 . S
C1114 C1120 1.368 . S
C1115 C1099 1.349 . S
C1115 H1107 0.950 . S
C1115 C1113 1.327 . S
C1116 C1104 1.349 . S
C1116 H1110 0.950 . S
C1116 C1117 1.327 . S
C1117 H1111 0.950 . S
C1117 C1116 1.327 . S
C1117 C1121 1.429 . S
C1118 C1101 1.574 . S
C1118 H1112 0.949 . S
C1118 C1122 1.368 . S
C1119 C1100 1.429 . S
C1119 C1113 1.429 . S
C1119 C1120 1.523 . S
C1120 C1101 1.368 . S
C1120 C1114 1.368 . S
C1120 C1119 1.523 . S
C1121 C1105 1.429 . S
C1121 C1117 1.429 . S
C1121 C1122 1.523 . S
C1122 C1106 1.368 . S
C1122 C1118 1.368 . S
C1122 C1121 1.523 . S
H1123 C1098 0.950 . S
H1124 C1100 0.950 . S
H1125 C1101 0.949 . S
H1126 C1103 0.950 . S
H1127 C1105 0.950 . S
C1128 C1129 1.349 . S
C1128 C1130 1.327 . S
C1128 H1153 0.950 . S
C1129 C1128 1.349 . S
C1129 C1145 1.349 . S
C1130 C1128 1.327 . S
C1130 C1149 1.429 . S
C1130 H1154 0.950 . S
C1131 C1148 1.574 . S
C1131 C1150 1.368 . S
C1131 H1155 0.949 . S
H1132 C1136 0.949 . S
C1133 C1134 1.349 . S
C1133 C1135 1.327 . S
C1133 H1156 0.950 . S
C1134 C1133 1.349 . S
C1134 C1146 1.349 . S
C1135 C1133 1.327 . S
C1135 C1151 1.429 . S
C1135 H1157 0.950 . S
C1136 H1132 0.949 . S
C1136 C1144 1.574 . S
C1136 C1152 1.368 . S
H1137 C1145 0.950 . S
H1138 C1143 0.950 . S
H1139 C1144 0.949 . S
H1140 C1146 0.950 . S
H1141 C1147 0.950 . S
H1142 C1148 0.949 . S
C1143 H1138 0.950 . S
C1143 C1145 1.327 . S
C1143 C1149 1.429 . S
C1144 C1136 1.574 . S
C1144 H1139 0.949 . S
C1144 C1150 1.368 . S
C1145 C1129 1.349 . S
C1145 H1137 0.950 . S
C1145 C1143 1.327 . S
C1146 C1134 1.349 . S
C1146 H1140 0.950 . S
C1146 C1147 1.327 . S
C1147 H1141 0.950 . S
C1147 C1146 1.327 . S
C1147 C1151 1.429 . S
C1148 C1131 1.574 . S
C1148 H1142 0.949 . S
C1148 C1152 1.368 . S
C1149 C1130 1.429 . S
C1149 C1143 1.429 . S
C1149 C1150 1.523 . S
C1150 C1131 1.368 . S
C1150 C1144 1.368 . S
C1150 C1149 1.523 . S
C1151 C1135 1.429 . S
C1151 C1147 1.429 . S
C1151 C1152 1.523 . S
C1152 C1136 1.368 . S
C1152 C1148 1.368 . S
C1152 C1151 1.523 . S
H1153 C1128 0.950 . S
H1154 C1130 0.950 . S
H1155 C1131 0.949 . S
H1156 C1133 0.950 . S
H1157 C1135 0.950 . S
C1158 C1159 1.349 . S
C1158 C1160 1.327 . S
C1158 H1183 0.950 . S
C1159 C1158 1.349 . S
C1159 C1175 1.349 . S
C1160 C1158 1.327 . S
C1160 C1179 1.429 . S
C1160 H1184 0.950 . S
C1161 C1178 1.574 . S
C1161 C1180 1.368 . S
C1161 H1185 0.949 . S
H1162 C1166 0.949 . S
C1163 C1164 1.349 . S
C1163 C1165 1.327 . S
C1163 H1186 0.950 . S
C1164 C1163 1.349 . S
C1164 C1176 1.349 . S
C1165 C1163 1.327 . S
C1165 C1181 1.429 . S
C1165 H1187 0.950 . S
C1166 H1162 0.949 . S
C1166 C1174 1.574 . S
C1166 C1182 1.368 . S
H1167 C1175 0.950 . S
H1168 C1173 0.950 . S
H1169 C1174 0.949 . S
H1170 C1176 0.950 . S
H1171 C1177 0.950 . S
H1172 C1178 0.949 . S
C1173 H1168 0.950 . S
C1173 C1175 1.327 . S
C1173 C1179 1.429 . S
C1174 C1166 1.574 . S
C1174 H1169 0.949 . S
C1174 C1180 1.368 . S
C1175 C1159 1.349 . S
C1175 H1167 0.950 . S
C1175 C1173 1.327 . S
C1176 C1164 1.349 . S
C1176 H1170 0.950 . S
C1176 C1177 1.327 . S
C1177 H1171 0.950 . S
C1177 C1176 1.327 . S
C1177 C1181 1.429 . S
C1178 C1161 1.574 . S
C1178 H1172 0.949 . S
C1178 C1182 1.368 . S
C1179 C1160 1.429 . S
C1179 C1173 1.429 . S
C1179 C1180 1.523 . S
C1180 C1161 1.368 . S
C1180 C1174 1.368 . S
C1180 C1179 1.523 . S
C1181 C1165 1.429 . S
C1181 C1177 1.429 . S
C1181 C1182 1.523 . S
C1182 C1166 1.368 . S
C1182 C1178 1.368 . S
C1182 C1181 1.523 . S
H1183 C1158 0.950 . S
H1184 C1160 0.950 . S
H1185 C1161 0.949 . S
H1186 C1163 0.950 . S
H1187 C1165 0.950 . S
C1188 C1189 1.349 . S
C1188 C1190 1.327 . S
C1188 H1213 0.950 . S
C1189 C1188 1.349 . S
C1189 C1205 1.349 . S
C1190 C1188 1.327 . S
C1190 C1209 1.429 . S
C1190 H1214 0.950 . S
C1191 C1208 1.574 . S
C1191 C1210 1.368 . S
C1191 H1215 0.949 . S
H1192 C1196 0.949 . S
C1193 C1194 1.349 . S
C1193 C1195 1.327 . S
C1193 H1216 0.950 . S
C1194 C1193 1.349 . S
C1194 C1206 1.349 . S
C1195 C1193 1.327 . S
C1195 C1211 1.429 . S
C1195 H1217 0.950 . S
C1196 H1192 0.949 . S
C1196 C1204 1.574 . S
C1196 C1212 1.368 . S
H1197 C1205 0.950 . S
H1198 C1203 0.950 . S
H1199 C1204 0.949 . S
H1200 C1206 0.950 . S
H1201 C1207 0.950 . S
H1202 C1208 0.949 . S
C1203 H1198 0.950 . S
C1203 C1205 1.327 . S
C1203 C1209 1.429 . S
C1204 C1196 1.574 . S
C1204 H1199 0.949 . S
C1204 C1210 1.368 . S
C1205 C1189 1.349 . S
C1205 H1197 0.950 . S
C1205 C1203 1.327 . S
C1206 C1194 1.349 . S
C1206 H1200 0.950 . S
C1206 C1207 1.327 . S
C1207 H1201 0.950 . S
C1207 C1206 1.327 . S
C1207 C1211 1.429 . S
C1208 C1191 1.574 . S
C1208 H1202 0.949 . S
C1208 C1212 1.368 . S
C1209 C1190 1.429 . S
C1209 C1203 1.429 . S
C1209 C1210 1.523 . S
C1210 C1191 1.368 . S
C1210 C1204 1.368 . S
C1210 C1209 1.523 . S
C1211 C1195 1.429 . S
C1211 C1207 1.429 . S
C1211 C1212 1.523 . S
C1212 C1196 1.368 . S
C1212 C1208 1.368 . S
C1212 C1211 1.523 . S
H1213 C1188 0.950 . S
H1214 C1190 0.950 . S
H1215 C1191 0.949 . S
H1216 C1193 0.950 . S
H1217 C1195 0.950 . S
C1218 C1219 1.349 . S
C1218 C1220 1.327 . S
C1218 H1243 0.950 . S
C1219 C1218 1.349 . S
C1219 C1235 1.349 . S
C1220 C1218 1.327 . S
C1220 C1239 1.429 . S
C1220 H1244 0.950 . S
C1221 C1238 1.574 . S
C1221 C1240 1.368 . S
C1221 H1245 0.949 . S
H1222 C1226 0.949 . S
C1223 C1224 1.349 . S
C1223 C1225 1.327 . S
C1223 H1246 0.950 . S
C1224 C1223 1.349 . S
C1224 C1236 1.349 . S
C1225 C1223 1.327 . S
C1225 C1241 1.429 . S
C1225 H1247 0.950 . S
C1226 H1222 0.949 . S
C1226 C1234 1.574 . S
C1226 C1242 1.368 . S
H1227 C1235 0.950 . S
H1228 C1233 0.950 . S
H1229 C1234 0.949 . S
H1230 C1236 0.950 . S
H1231 C1237 0.950 . S
H1232 C1238 0.949 . S
C1233 H1228 0.950 . S
C1233 C1235 1.327 . S
C1233 C1239 1.429 . S
C1234 C1226 1.574 . S
C1234 H1229 0.949 . S
C1234 C1240 1.368 . S
C1235 C1219 1.349 . S
C1235 H1227 0.950 . S
C1235 C1233 1.327 . S
C1236 C1224 1.349 . S
C1236 H1230 0.950 . S
C1236 C1237 1.327 . S
C1237 H1231 0.950 . S
C1237 C1236 1.327 . S
C1237 C1241 1.429 . S
C1238 C1221 1.574 . S
C1238 H1232 0.949 . S
C1238 C1242 1.368 . S
C1239 C1220 1.429 . S
C1239 C1233 1.429 . S
C1239 C1240 1.523 . S
C1240 C1221 1.368 . S
C1240 C1234 1.368 . S
C1240 C1239 1.523 . S
C1241 C1225 1.429 . S
C1241 C1237 1.429 . S
C1241 C1242 1.523 . S
C1242 C1226 1.368 . S
C1242 C1238 1.368 . S
C1242 C1241 1.523 . S
H1243 C1218 0.950 . S
H1244 C1220 0.950 . S
H1245 C1221 0.949 . S
H1246 C1223 0.950 . S
H1247 C1225 0.950 . S
C1248 C1249 1.349 . S
C1248 C1250 1.327 . S
C1248 H1273 0.950 . S
C1249 C1248 1.349 . S
C1249 C1265 1.349 . S
C1250 C1248 1.327 . S
C1250 C1269 1.429 . S
C1250 H1274 0.950 . S
C1251 C1268 1.574 . S
C1251 C1270 1.368 . S
C1251 H1275 0.949 . S
H1252 C1256 0.949 1_565 S
C1253 C1254 1.349 . S
C1253 C1255 1.327 1_565 S
C1253 H1276 0.949 1_565 S
C1254 C1253 1.349 . S
C1254 C1266 1.349 . S
C1255 C1253 1.327 1_545 S
C1255 C1271 1.429 . S
C1255 H1277 0.950 . S
C1256 H1252 0.949 1_545 S
C1256 C1264 1.574 . S
C1256 C1272 1.368 . S
H1257 C1265 0.950 . S
H1258 C1263 0.950 . S
H1259 C1264 0.949 . S
H1260 C1266 0.950 . S
H1261 C1267 0.950 . S
H1262 C1268 0.949 . S
C1263 H1258 0.950 . S
C1263 C1265 1.327 . S
C1263 C1269 1.429 . S
C1264 C1256 1.574 . S
C1264 H1259 0.949 . S
C1264 C1270 1.368 . S
C1265 C1249 1.349 . S
C1265 H1257 0.950 . S
C1265 C1263 1.327 . S
C1266 C1254 1.349 . S
C1266 H1260 0.950 . S
C1266 C1267 1.327 . S
C1267 H1261 0.950 . S
C1267 C1266 1.327 . S
C1267 C1271 1.429 1_565 S
C1268 C1251 1.574 . S
C1268 H1262 0.949 . S
C1268 C1272 1.368 . S
C1269 C1250 1.429 . S
C1269 C1263 1.429 . S
C1269 C1270 1.523 . S
C1270 C1251 1.368 . S
C1270 C1264 1.368 . S
C1270 C1269 1.523 . S
C1271 C1255 1.429 . S
C1271 C1267 1.429 1_545 S
C1271 C1272 1.523 . S
C1272 C1256 1.368 . S
C1272 C1268 1.368 . S
C1272 C1271 1.523 . S
H1273 C1248 0.950 . S
H1274 C1250 0.950 . S
H1275 C1251 0.949 . S
H1276 C1253 0.949 1_545 S
H1277 C1255 0.950 . S
C1278 C1279 1.349 . S
C1278 C1280 1.327 . S
C1278 H1303 0.950 . S
C1279 C1278 1.349 . S
C1279 C1295 1.349 . S
C1280 C1278 1.327 . S
C1280 C1299 1.429 . S
C1280 H1304 0.950 . S
C1281 C1298 1.574 . S
C1281 C1300 1.368 . S
C1281 H1305 0.949 . S
H1282 C1286 0.949 . S
C1283 C1284 1.349 . S
C1283 C1285 1.327 1_655 S
C1283 H1306 0.950 . S
C1284 C1283 1.349 . S
C1284 C1296 1.349 . S
C1285 C1283 1.327 1_455 S
C1285 C1301 1.429 . S
C1285 H1307 0.950 . S
C1286 H1282 0.949 . S
C1286 C1294 1.574 . S
C1286 C1302 1.368 . S
H1287 C1295 0.950 . S
H1288 C1293 0.950 . S
H1289 C1294 0.949 . S
H1290 C1296 0.950 . S
H1291 C1297 0.950 . S
H1292 C1298 0.949 . S
C1293 H1288 0.950 . S
C1293 C1295 1.327 . S
C1293 C1299 1.429 . S
C1294 C1286 1.574 . S
C1294 H1289 0.949 . S
C1294 C1300 1.368 . S
C1295 C1279 1.349 . S
C1295 H1287 0.950 . S
C1295 C1293 1.327 . S
C1296 C1284 1.349 . S
C1296 H1290 0.950 . S
C1296 C1297 1.327 . S
C1297 H1291 0.950 . S
C1297 C1296 1.327 . S
C1297 C1301 1.429 1_655 S
C1298 C1281 1.574 . S
C1298 H1292 0.949 . S
C1298 C1302 1.368 . S
C1299 C1280 1.429 . S
C1299 C1293 1.429 . S
C1299 C1300 1.523 . S
C1300 C1281 1.368 . S
C1300 C1294 1.368 . S
C1300 C1299 1.523 . S
C1301 C1285 1.429 . S
C1301 C1297 1.429 1_455 S
C1301 C1302 1.523 . S
C1302 C1286 1.368 . S
C1302 C1298 1.368 . S
C1302 C1301 1.523 . S
H1303 C1278 0.950 . S
H1304 C1280 0.950 . S
H1305 C1281 0.949 . S
H1306 C1283 0.950 . S
H1307 C1285 0.950 . S
C1308 C1309 1.349 . S
C1308 C1310 1.327 . S
C1308 H1333 0.950 . S
C1309 C1308 1.349 . S
C1309 C1325 1.349 . S
C1310 C1308 1.327 . S
C1310 C1329 1.429 . S
C1310 H1334 0.950 . S
C1311 C1328 1.574 . S
C1311 C1330 1.368 . S
C1311 H1335 0.949 . S
H1312 C1316 0.949 . S
C1313 C1314 1.349 . S
C1313 C1315 1.327 . S
C1313 H1336 0.950 . S
C1314 C1313 1.349 . S
C1314 C1326 1.309 1_545 S
C1315 C1313 1.327 . S
C1315 C1331 1.429 1_545 S
C1315 H1337 0.950 . S
C1316 H1312 0.949 . S
C1316 C1324 1.574 . S
C1316 C1332 1.368 . S
H1317 C1325 0.950 . S
H1318 C1323 0.950 . S
H1319 C1324 0.949 . S
H1320 C1326 0.967 . S
H1321 C1327 0.950 . S
H1322 C1328 0.949 1_545 S
C1323 H1318 0.950 . S
C1323 C1325 1.327 . S
C1323 C1329 1.429 . S
C1324 C1316 1.574 . S
C1324 H1319 0.949 . S
C1324 C1330 1.368 . S
C1325 C1309 1.349 . S
C1325 H1317 0.950 . S
C1325 C1323 1.327 . S
C1326 C1314 1.309 1_565 S
C1326 H1320 0.967 . S
C1326 C1327 1.351 . S
C1327 H1321 0.950 . S
C1327 C1326 1.351 . S
C1327 C1331 1.429 . S
C1328 C1311 1.574 . S
C1328 H1322 0.949 1_565 S
C1328 C1332 1.368 . S
C1329 C1310 1.429 . S
C1329 C1323 1.429 . S
C1329 C1330 1.523 . S
C1330 C1311 1.368 . S
C1330 C1324 1.368 . S
C1330 C1329 1.523 . S
C1331 C1315 1.429 1_565 S
C1331 C1327 1.429 . S
C1331 C1332 1.523 . S
C1332 C1316 1.368 . S
C1332 C1328 1.368 . S
C1332 C1331 1.523 . S
H1333 C1308 0.950 . S
H1334 C1310 0.950 . S
H1335 C1311 0.949 . S
H1336 C1313 0.950 . S
H1337 C1315 0.950 . S
C1338 C1339 1.349 . S
C1338 C1340 1.327 1_455 S
C1338 H1363 0.950 . S
C1339 C1338 1.349 . S
C1339 C1355 1.349 . S
C1340 C1338 1.327 1_655 S
C1340 C1359 1.429 . S
C1340 H1364 0.950 . S
C1341 C1358 1.574 . S
C1341 C1360 1.368 . S
C1341 H1365 0.949 . S
H1342 C1346 0.949 . S
C1343 C1344 1.349 . S
C1343 C1345 1.327 . S
C1343 H1366 0.950 . S
C1344 C1343 1.349 . S
C1344 C1356 1.349 . S
C1345 C1343 1.327 . S
C1345 C1361 1.429 . S
C1345 H1367 0.950 . S
C1346 H1342 0.949 . S
C1346 C1354 1.574 . S
C1346 C1362 1.368 . S
H1347 C1355 0.950 . S
H1348 C1353 0.950 . S
H1349 C1354 0.949 . S
H1350 C1356 0.950 . S
H1351 C1357 0.950 . S
H1352 C1358 0.949 . S
C1353 H1348 0.950 . S
C1353 C1355 1.327 . S
C1353 C1359 1.429 1_455 S
C1354 C1346 1.574 . S
C1354 H1349 0.949 . S
C1354 C1360 1.368 . S
C1355 C1339 1.349 . S
C1355 H1347 0.950 . S
C1355 C1353 1.327 . S
C1356 C1344 1.349 . S
C1356 H1350 0.950 . S
C1356 C1357 1.327 . S
C1357 H1351 0.950 . S
C1357 C1356 1.327 . S
C1357 C1361 1.429 . S
C1358 C1341 1.574 . S
C1358 H1352 0.949 . S
C1358 C1362 1.368 . S
C1359 C1340 1.429 . S
C1359 C1353 1.429 1_655 S
C1359 C1360 1.523 . S
C1360 C1341 1.368 . S
C1360 C1354 1.368 . S
C1360 C1359 1.523 . S
C1361 C1345 1.429 . S
C1361 C1357 1.429 . S
C1361 C1362 1.523 . S
C1362 C1346 1.368 . S
C1362 C1358 1.368 . S
C1362 C1361 1.523 . S
H1363 C1338 0.950 . S
H1364 C1340 0.950 . S
H1365 C1341 0.949 . S
H1366 C1343 0.950 . S
H1367 C1345 0.950 . S
C1368 C1369 1.349 . S
C1368 C1370 1.327 . S
C1368 H1393 0.950 . S
C1369 C1368 1.349 . S
C1369 C1385 1.349 . S
C1370 C1368 1.327 . S
C1370 C1389 1.429 1_545 S
C1370 H1394 0.950 . S
C1371 C1388 1.574 . S
C1371 C1390 1.368 . S
C1371 H1395 0.949 . S
H1372 C1376 0.949 . S
C1373 C1374 1.349 . S
C1373 C1375 1.327 . S
C1373 H1396 0.950 . S
C1374 C1373 1.349 . S
C1374 C1386 1.349 . S
C1375 C1373 1.327 . S
C1375 C1391 1.429 . S
C1375 H1397 0.950 . S
C1376 H1372 0.949 . S
C1376 C1384 1.574 . S
C1376 C1392 1.368 . S
H1377 C1385 0.950 1_565 S
H1378 C1383 0.950 . S
H1379 C1384 0.949 1_545 S
H1380 C1386 0.950 . S
H1381 C1387 0.950 . S
H1382 C1388 0.949 . S
C1383 H1378 0.950 . S
C1383 C1385 1.327 1_565 S
C1383 C1389 1.429 . S
C1384 C1376 1.574 . S
C1384 H1379 0.949 1_565 S
C1384 C1390 1.368 . S
C1385 C1369 1.349 . S
C1385 H1377 0.950 1_545 S
C1385 C1383 1.327 1_545 S
C1386 C1374 1.349 . S
C1386 H1380 0.950 . S
C1386 C1387 1.327 . S
C1387 H1381 0.950 . S
C1387 C1386 1.327 . S
C1387 C1391 1.429 . S
C1388 C1371 1.574 . S
C1388 H1382 0.949 . S
C1388 C1392 1.368 . S
C1389 C1370 1.429 1_565 S
C1389 C1383 1.429 . S
C1389 C1390 1.523 . S
C1390 C1371 1.368 . S
C1390 C1384 1.368 . S
C1390 C1389 1.523 . S
C1391 C1375 1.429 . S
C1391 C1387 1.429 . S
C1391 C1392 1.523 . S
C1392 C1376 1.368 . S
C1392 C1388 1.368 . S
C1392 C1391 1.523 . S
H1393 C1368 0.950 . S
H1394 C1370 0.950 . S
H1395 C1371 0.949 . S
H1396 C1373 0.950 . S
H1397 C1375 0.950 . S
C1398 C1399 1.349 . S
C1398 C1400 1.327 1_455 S
C1398 H1423 0.950 . S
C1399 C1398 1.349 . S
C1399 C1415 1.349 . S
C1400 C1398 1.327 1_655 S
C1400 C1419 1.429 . S
C1400 H1424 0.950 . S
C1401 C1418 1.574 . S
C1401 C1420 1.368 . S
C1401 H1425 0.949 . S
H1402 C1406 0.949 . S
C1403 C1404 1.349 . S
C1403 C1405 1.327 . S
C1403 H1426 0.950 . S
C1404 C1403 1.349 . S
C1404 C1416 1.349 . S
C1405 C1403 1.327 . S
C1405 C1421 1.429 . S
C1405 H1427 0.950 . S
C1406 H1402 0.949 . S
C1406 C1414 1.574 . S
C1406 C1422 1.368 . S
H1407 C1415 0.950 . S
H1408 C1413 0.950 . S
H1409 C1414 0.949 . S
H1410 C1416 0.950 . S
H1411 C1417 0.950 . S
H1412 C1418 0.949 . S
C1413 H1408 0.950 . S
C1413 C1415 1.327 . S
C1413 C1419 1.429 1_455 S
C1414 C1406 1.574 . S
C1414 H1409 0.949 . S
C1414 C1420 1.368 . S
C1415 C1399 1.349 . S
C1415 H1407 0.950 . S
C1415 C1413 1.327 . S
C1416 C1404 1.349 . S
C1416 H1410 0.950 . S
C1416 C1417 1.327 . S
C1417 H1411 0.950 . S
C1417 C1416 1.327 . S
C1417 C1421 1.429 . S
C1418 C1401 1.574 . S
C1418 H1412 0.949 . S
C1418 C1422 1.368 . S
C1419 C1400 1.429 . S
C1419 C1413 1.429 1_655 S
C1419 C1420 1.523 . S
C1420 C1401 1.368 . S
C1420 C1414 1.368 . S
C1420 C1419 1.523 . S
C1421 C1405 1.429 . S
C1421 C1417 1.429 . S
C1421 C1422 1.523 . S
C1422 C1406 1.368 . S
C1422 C1418 1.368 . S
C1422 C1421 1.523 . S
H1423 C1398 0.950 . S
H1424 C1400 0.950 . S
H1425 C1401 0.949 . S
H1426 C1403 0.950 . S
H1427 C1405 0.950 . S
C1428 C1429 1.353 . S
C1428 C1430 1.325 1_565 S
C1428 H1453 0.948 1_565 S
C1429 C1428 1.353 . S
C1429 C1445 1.349 . S
C1430 C1428 1.325 1_545 S
C1430 C1449 1.429 . S
C1430 H1454 0.950 . S
C1431 C1448 1.574 . S
C1431 C1450 1.368 . S
C1431 H1455 0.949 1_545 S
H1432 C1436 0.949 . S
C1433 C1434 1.349 . S
C1433 C1435 1.327 . S
C1433 H1456 0.950 . S
C1434 C1433 1.349 . S
C1434 C1446 1.349 . S
C1435 C1433 1.327 . S
C1435 C1451 1.429 . S
C1435 H1457 0.950 . S
C1436 H1432 0.949 . S
C1436 C1444 1.574 . S
C1436 C1452 1.368 . S
H1437 C1445 0.950 . S
H1438 C1443 0.950 . S
H1439 C1444 0.949 . S
H1440 C1446 0.950 . S
H1441 C1447 0.950 . S
H1442 C1448 0.949 . S
C1443 H1438 0.950 . S
C1443 C1445 1.327 . S
C1443 C1449 1.429 1_565 S
C1444 C1436 1.574 . S
C1444 H1439 0.949 . S
C1444 C1450 1.368 . S
C1445 C1429 1.349 . S
C1445 H1437 0.950 . S
C1445 C1443 1.327 . S
C1446 C1434 1.349 . S
C1446 H1440 0.950 . S
C1446 C1447 1.327 . S
C1447 H1441 0.950 . S
C1447 C1446 1.327 . S
C1447 C1451 1.429 . S
C1448 C1431 1.574 . S
C1448 H1442 0.949 . S
C1448 C1452 1.368 . S
C1449 C1430 1.429 . S
C1449 C1443 1.429 1_545 S
C1449 C1450 1.523 . S
C1450 C1431 1.368 . S
C1450 C1444 1.368 . S
C1450 C1449 1.523 . S
C1451 C1435 1.429 . S
C1451 C1447 1.429 . S
C1451 C1452 1.523 . S
C1452 C1436 1.368 . S
C1452 C1448 1.368 . S
C1452 C1451 1.523 . S
H1453 C1428 0.948 1_545 S
H1454 C1430 0.950 . S
H1455 C1431 0.949 1_565 S
H1456 C1433 0.950 . S
H1457 C1435 0.950 . S
C1458 C1459 1.349 . S
C1458 C1460 1.327 . S
C1458 H1483 0.950 . S
C1459 C1458 1.349 . S
C1459 C1475 1.349 . S
C1460 C1458 1.327 . S
C1460 C1479 1.429 1_655 S
C1460 H1484 0.950 . S
C1461 C1478 1.574 . S
C1461 C1480 1.368 . S
C1461 H1485 0.949 . S
H1462 C1466 0.949 . S
C1463 C1464 1.349 . S
C1463 C1465 1.327 . S
C1463 H1486 0.950 . S
C1464 C1463 1.349 . S
C1464 C1476 1.349 . S
C1465 C1463 1.327 . S
C1465 C1481 1.429 . S
C1465 H1487 0.950 . S
C1466 H1462 0.949 . S
C1466 C1474 1.574 . S
C1466 C1482 1.368 . S
H1467 C1475 0.950 . S
H1468 C1473 0.950 . S
H1469 C1474 0.949 . S
H1470 C1476 0.950 . S
H1471 C1477 0.950 . S
H1472 C1478 0.949 . S
C1473 H1468 0.950 . S
C1473 C1475 1.327 1_455 S
C1473 C1479 1.429 . S
C1474 C1466 1.574 . S
C1474 H1469 0.949 . S
C1474 C1480 1.368 . S
C1475 C1459 1.349 . S
C1475 H1467 0.950 . S
C1475 C1473 1.327 1_655 S
C1476 C1464 1.349 . S
C1476 H1470 0.950 . S
C1476 C1477 1.327 . S
C1477 H1471 0.950 . S
C1477 C1476 1.327 . S
C1477 C1481 1.429 . S
C1478 C1461 1.574 . S
C1478 H1472 0.949 . S
C1478 C1482 1.368 . S
C1479 C1460 1.429 1_455 S
C1479 C1473 1.429 . S
C1479 C1480 1.523 . S
C1480 C1461 1.368 . S
C1480 C1474 1.368 . S
C1480 C1479 1.523 . S
C1481 C1465 1.429 . S
C1481 C1477 1.429 . S
C1481 C1482 1.523 . S
C1482 C1466 1.368 . S
C1482 C1478 1.368 . S
C1482 C1481 1.523 . S
H1483 C1458 0.950 . S
H1484 C1460 0.950 . S
H1485 C1461 0.949 . S
H1486 C1463 0.950 . S
H1487 C1465 0.950 . S
C1488 C1489 1.349 . S
C1488 C1490 1.327 . S
C1488 H1513 0.950 . S
C1489 C1488 1.349 . S
C1489 C1505 1.349 . S
C1490 C1488 1.327 . S
C1490 C1509 1.429 . S
C1490 H1514 0.950 . S
C1491 C1508 1.574 . S
C1491 C1510 1.368 . S
C1491 H1515 0.949 . S
H1492 C1496 0.949 . S
C1493 C1494 1.349 . S
C1493 C1495 1.327 . S
C1493 H1516 0.950 . S
C1494 C1493 1.349 . S
C1494 C1506 1.349 . S
C1495 C1493 1.327 . S
C1495 C1511 1.429 . S
C1495 H1517 0.950 . S
C1496 H1492 0.949 . S
C1496 C1504 1.574 . S
C1496 C1512 1.368 . S
H1497 C1505 0.950 . S
H1498 C1503 0.950 . S
H1499 C1504 0.949 . S
H1500 C1506 0.950 . S
H1501 C1507 0.950 . S
H1502 C1508 0.949 . S
C1503 H1498 0.950 . S
C1503 C1505 1.327 . S
C1503 C1509 1.429 . S
C1504 C1496 1.574 . S
C1504 H1499 0.949 . S
C1504 C1510 1.368 . S
C1505 C1489 1.349 . S
C1505 H1497 0.950 . S
C1505 C1503 1.327 . S
C1506 C1494 1.349 . S
C1506 H1500 0.950 . S
C1506 C1507 1.327 . S
C1507 H1501 0.950 . S
C1507 C1506 1.327 . S
C1507 C1511 1.429 . S
C1508 C1491 1.574 . S
C1508 H1502 0.949 . S
C1508 C1512 1.368 . S
C1509 C1490 1.429 . S
C1509 C1503 1.429 . S
C1509 C1510 1.523 . S
C1510 C1491 1.368 . S
C1510 C1504 1.368 . S
C1510 C1509 1.523 . S
C1511 C1495 1.429 . S
C1511 C1507 1.429 . S
C1511 C1512 1.523 . S
C1512 C1496 1.368 . S
C1512 C1508 1.368 . S
C1512 C1511 1.523 . S
H1513 C1488 0.950 . S
H1514 C1490 0.950 . S
H1515 C1491 0.949 . S
H1516 C1493 0.950 . S
H1517 C1495 0.950 . S
C1518 C1519 1.349 . S
C1518 C1520 1.327 . S
C1518 H1543 0.950 . S
C1519 C1518 1.349 . S
C1519 C1535 1.349 . S
C1520 C1518 1.327 . S
C1520 C1539 1.429 . S
C1520 H1544 0.950 . S
C1521 C1538 1.574 . S
C1521 C1540 1.368 . S
C1521 H1545 0.949 . S
H1522 C1526 0.949 . S
C1523 C1524 1.349 . S
C1523 C1525 1.327 . S
C1523 H1546 0.950 . S
C1524 C1523 1.349 . S
C1524 C1536 1.349 . S
C1525 C1523 1.327 . S
C1525 C1541 1.429 . S
C1525 H1547 0.950 . S
C1526 H1522 0.949 . S
C1526 C1534 1.574 . S
C1526 C1542 1.368 . S
H1527 C1535 0.950 . S
H1528 C1533 0.950 . S
H1529 C1534 0.949 . S
H1530 C1536 0.950 . S
H1531 C1537 0.950 . S
H1532 C1538 0.949 . S
C1533 H1528 0.950 . S
C1533 C1535 1.327 . S
C1533 C1539 1.429 . S
C1534 C1526 1.574 . S
C1534 H1529 0.949 . S
C1534 C1540 1.368 . S
C1535 C1519 1.349 . S
C1535 H1527 0.950 . S
C1535 C1533 1.327 . S
C1536 C1524 1.349 . S
C1536 H1530 0.950 . S
C1536 C1537 1.327 . S
C1537 H1531 0.950 . S
C1537 C1536 1.327 . S
C1537 C1541 1.429 . S
C1538 C1521 1.574 . S
C1538 H1532 0.949 . S
C1538 C1542 1.368 . S
C1539 C1520 1.429 . S
C1539 C1533 1.429 . S
C1539 C1540 1.523 . S
C1540 C1521 1.368 . S
C1540 C1534 1.368 . S
C1540 C1539 1.523 . S
C1541 C1525 1.429 . S
C1541 C1537 1.429 . S
C1541 C1542 1.523 . S
C1542 C1526 1.368 . S
C1542 C1538 1.368 . S
C1542 C1541 1.523 . S
H1543 C1518 0.950 . S
H1544 C1520 0.950 . S
H1545 C1521 0.949 . S
H1546 C1523 0.950 . S
H1547 C1525 0.950 . S
C1548 C1549 1.349 . S
C1548 C1550 1.327 . S
C1548 H1573 0.950 . S
C1549 C1548 1.349 . S
C1549 C1565 1.349 . S
C1550 C1548 1.327 . S
C1550 C1569 1.429 . S
C1550 H1574 0.950 . S
C1551 C1568 1.574 . S
C1551 C1570 1.368 . S
C1551 H1575 0.949 . S
H1552 C1556 0.949 . S
C1553 C1554 1.349 . S
C1553 C1555 1.327 . S
C1553 H1576 0.950 . S
C1554 C1553 1.349 . S
C1554 C1566 1.349 . S
C1555 C1553 1.327 . S
C1555 C1571 1.429 . S
C1555 H1577 0.950 . S
C1556 H1552 0.949 . S
C1556 C1564 1.574 . S
C1556 C1572 1.368 . S
H1557 C1565 0.950 . S
H1558 C1563 0.950 . S
H1559 C1564 0.949 . S
H1560 C1566 0.950 . S
H1561 C1567 0.950 . S
H1562 C1568 0.949 . S
C1563 H1558 0.950 . S
C1563 C1565 1.327 . S
C1563 C1569 1.429 . S
C1564 C1556 1.574 . S
C1564 H1559 0.949 . S
C1564 C1570 1.368 . S
C1565 C1549 1.349 . S
C1565 H1557 0.950 . S
C1565 C1563 1.327 . S
C1566 C1554 1.349 . S
C1566 H1560 0.950 . S
C1566 C1567 1.327 . S
C1567 H1561 0.950 . S
C1567 C1566 1.327 . S
C1567 C1571 1.429 . S
C1568 C1551 1.574 . S
C1568 H1562 0.949 . S
C1568 C1572 1.368 . S
C1569 C1550 1.429 . S
C1569 C1563 1.429 . S
C1569 C1570 1.523 . S
C1570 C1551 1.368 . S
C1570 C1564 1.368 . S
C1570 C1569 1.523 . S
C1571 C1555 1.429 . S
C1571 C1567 1.429 . S
C1571 C1572 1.523 . S
C1572 C1556 1.368 . S
C1572 C1568 1.368 . S
C1572 C1571 1.523 . S
H1573 C1548 0.950 . S
H1574 C1550 0.950 . S
H1575 C1551 0.949 . S
H1576 C1553 0.950 . S
H1577 C1555 0.950 . S
C1578 C1579 1.349 . S
C1578 C1580 1.327 . S
C1578 H1603 0.950 . S
C1579 C1578 1.349 . S
C1579 C1595 1.349 . S
C1580 C1578 1.327 . S
C1580 C1599 1.429 . S
C1580 H1604 0.950 . S
C1581 C1598 1.574 . S
C1581 C1600 1.368 . S
C1581 H1605 0.949 . S
H1582 C1586 0.949 . S
C1583 C1584 1.349 . S
C1583 C1585 1.327 . S
C1583 H1606 0.950 . S
C1584 C1583 1.349 . S
C1584 C1596 1.349 . S
C1585 C1583 1.327 . S
C1585 C1601 1.429 . S
C1585 H1607 0.950 . S
C1586 H1582 0.949 . S
C1586 C1594 1.574 . S
C1586 C1602 1.368 . S
H1587 C1595 0.950 . S
H1588 C1593 0.950 . S
H1589 C1594 0.949 . S
H1590 C1596 0.950 . S
H1591 C1597 0.950 . S
H1592 C1598 0.949 . S
C1593 H1588 0.950 . S
C1593 C1595 1.327 . S
C1593 C1599 1.429 . S
C1594 C1586 1.574 . S
C1594 H1589 0.949 . S
C1594 C1600 1.368 . S
C1595 C1579 1.349 . S
C1595 H1587 0.950 . S
C1595 C1593 1.327 . S
C1596 C1584 1.349 . S
C1596 H1590 0.950 . S
C1596 C1597 1.327 . S
C1597 H1591 0.950 . S
C1597 C1596 1.327 . S
C1597 C1601 1.429 . S
C1598 C1581 1.574 . S
C1598 H1592 0.949 . S
C1598 C1602 1.368 . S
C1599 C1580 1.429 . S
C1599 C1593 1.429 . S
C1599 C1600 1.523 . S
C1600 C1581 1.368 . S
C1600 C1594 1.368 . S
C1600 C1599 1.523 . S
C1601 C1585 1.429 . S
C1601 C1597 1.429 . S
C1601 C1602 1.523 . S
C1602 C1586 1.368 . S
C1602 C1598 1.368 . S
C1602 C1601 1.523 . S
H1603 C1578 0.950 . S
H1604 C1580 0.950 . S
H1605 C1581 0.949 . S
H1606 C1583 0.950 . S
H1607 C1585 0.950 . S
C1608 C1609 1.346 . S
C1608 C1610 1.328 1_565 S
C1608 H1633 0.952 1_565 S
C1609 C1608 1.346 . S
C1609 C1625 1.349 . S
C1610 C1608 1.328 1_545 S
C1610 C1629 1.429 1_545 S
C1610 H1634 0.950 . S
C1611 C1628 1.574 1_556 S
C1611 C1630 1.368 . S
C1611 H1635 0.949 . S
H1612 C1616 0.949 . S
C1613 C1614 1.346 . S
C1613 C1615 1.328 1_545 S
C1613 H1636 0.952 1_545 S
C1614 C1613 1.346 . S
C1614 C1626 1.349 . S
C1615 C1613 1.328 1_565 S
C1615 C1631 1.429 1_565 S
C1615 H1637 0.950 . S
C1616 H1612 0.949 . S
C1616 C1624 1.574 1_554 S
C1616 C1632 1.368 . S
H1617 C1625 0.950 . S
H1618 C1623 0.950 . S
H1619 C1624 0.949 . S
H1620 C1626 0.950 . S
H1621 C1627 0.950 . S
H1622 C1628 0.949 . S
C1623 H1618 0.950 . S
C1623 C1625 1.327 . S
C1623 C1629 1.429 . S
C1624 C1616 1.574 1_556 S
C1624 H1619 0.949 . S
C1624 C1630 1.368 1_545 S
C1625 C1609 1.349 . S
C1625 H1617 0.950 . S
C1625 C1623 1.327 . S
C1626 C1614 1.349 . S
C1626 H1620 0.950 . S
C1626 C1627 1.327 . S
C1627 H1621 0.950 . S
C1627 C1626 1.327 . S
C1627 C1631 1.429 . S
C1628 C1611 1.574 1_554 S
C1628 H1622 0.949 . S
C1628 C1632 1.368 1_565 S
C1629 C1610 1.429 1_565 S
C1629 C1623 1.429 . S
C1629 C1630 1.523 . S
C1630 C1611 1.368 . S
C1630 C1624 1.368 1_565 S
C1630 C1629 1.523 . S
C1631 C1615 1.429 1_545 S
C1631 C1627 1.429 . S
C1631 C1632 1.523 . S
C1632 C1616 1.368 . S
C1632 C1628 1.368 1_545 S
C1632 C1631 1.523 . S
H1633 C1608 0.952 1_545 S
H1634 C1610 0.950 . S
H1635 C1611 0.949 . S
H1636 C1613 0.952 1_565 S
H1637 C1615 0.950 . S
C1638 C1639 1.349 . S
C1638 C1640 1.327 . S
C1638 H1663 0.950 . S
C1639 C1638 1.349 . S
C1639 C1655 1.349 . S
C1640 C1638 1.327 . S
C1640 C1659 1.429 . S
C1640 H1664 0.950 . S
C1641 C1658 1.574 1_556 S
C1641 C1660 1.368 1_655 S
C1641 H1665 0.949 . S
H1642 C1646 0.949 . S
C1643 C1644 1.349 . S
C1643 C1645 1.327 . S
C1643 H1666 0.950 . S
C1644 C1643 1.349 . S
C1644 C1656 1.349 . S
C1645 C1643 1.327 . S
C1645 C1661 1.429 . S
C1645 H1667 0.950 . S
C1646 H1642 0.949 . S
C1646 C1654 1.574 1_554 S
C1646 C1662 1.368 1_455 S
H1647 C1655 0.950 1_655 S
H1648 C1653 0.936 1_655 S
H1649 C1654 0.949 . S
H1650 C1656 0.950 1_455 S
H1651 C1657 0.936 1_455 S
H1652 C1658 0.949 . S
C1653 H1648 0.936 1_455 S
C1653 C1655 1.332 . S
C1653 C1659 1.438 . S
C1654 C1646 1.574 1_556 S
C1654 H1649 0.949 . S
C1654 C1660 1.368 . S
C1655 C1639 1.349 . S
C1655 H1647 0.950 1_455 S
C1655 C1653 1.332 . S
C1656 C1644 1.349 . S
C1656 H1650 0.950 1_655 S
C1656 C1657 1.332 . S
C1657 H1651 0.936 1_655 S
C1657 C1656 1.332 . S
C1657 C1661 1.438 . S
C1658 C1641 1.574 1_554 S
C1658 H1652 0.949 . S
C1658 C1662 1.368 . S
C1659 C1640 1.429 . S
C1659 C1653 1.438 . S
C1659 C1660 1.523 . S
C1660 C1641 1.368 1_455 S
C1660 C1654 1.368 . S
C1660 C1659 1.523 . S
C1661 C1645 1.429 . S
C1661 C1657 1.438 . S
C1661 C1662 1.523 . S
C1662 C1646 1.368 1_655 S
C1662 C1658 1.368 . S
C1662 C1661 1.523 . S
H1663 C1638 0.950 . S
H1664 C1640 0.950 . S
H1665 C1641 0.949 . S
H1666 C1643 0.950 . S
H1667 C1645 0.950 . S
C1668 C1669 1.345 1_545 S
C1668 C1670 1.328 . S
C1668 H1693 0.953 . S
C1669 C1668 1.345 1_565 S
C1669 C1685 1.349 . S
C1670 C1668 1.328 . S
C1670 C1689 1.429 1_545 S
C1670 H1694 0.950 . S
C1671 C1688 1.574 1_554 S
C1671 C1690 1.368 . S
C1671 H1695 0.949 . S
H1672 C1676 0.949 . S
C1673 C1674 1.345 1_565 S
C1673 C1675 1.328 . S
C1673 H1696 0.953 . S
C1674 C1673 1.345 1_545 S
C1674 C1686 1.349 . S
C1675 C1673 1.328 . S
C1675 C1691 1.429 1_565 S
C1675 H1697 0.950 . S
C1676 H1672 0.949 . S
C1676 C1684 1.574 1_556 S
C1676 C1692 1.368 . S
H1677 C1685 0.950 . S
H1678 C1683 0.950 . S
H1679 C1684 0.949 . S
H1680 C1686 0.950 . S
H1681 C1687 0.950 . S
H1682 C1688 0.949 . S
C1683 H1678 0.950 . S
C1683 C1685 1.327 . S
C1683 C1689 1.429 . S
C1684 C1676 1.574 1_554 S
C1684 H1679 0.949 . S
C1684 C1690 1.368 1_545 S
C1685 C1669 1.349 . S
C1685 H1677 0.950 . S
C1685 C1683 1.327 . S
C1686 C1674 1.349 . S
C1686 H1680 0.950 . S
C1686 C1687 1.327 . S
C1687 H1681 0.950 . S
C1687 C1686 1.327 . S
C1687 C1691 1.429 . S
C1688 C1671 1.574 1_556 S
C1688 H1682 0.949 . S
C1688 C1692 1.368 1_565 S
C1689 C1670 1.429 1_565 S
C1689 C1683 1.429 . S
C1689 C1690 1.523 . S
C1690 C1671 1.368 . S
C1690 C1684 1.368 1_565 S
C1690 C1689 1.523 . S
C1691 C1675 1.429 1_545 S
C1691 C1687 1.429 . S
C1691 C1692 1.523 . S
C1692 C1676 1.368 . S
C1692 C1688 1.368 1_545 S
C1692 C1691 1.523 . S
H1693 C1668 0.953 . S
H1694 C1670 0.950 . S
H1695 C1671 0.949 . S
H1696 C1673 0.953 . S
H1697 C1675 0.950 . S
C1698 C1699 1.349 . S
C1698 C1700 1.332 . S
C1698 H1723 0.950 1_655 S
C1699 C1698 1.349 . S
C1699 C1715 1.349 . S
C1700 C1698 1.332 . S
C1700 C1719 1.438 . S
C1700 H1724 0.936 1_655 S
C1701 C1718 1.574 1_556 S
C1701 C1720 1.368 . S
C1701 H1725 0.949 . S
H1702 C1706 0.949 . S
C1703 C1704 1.349 . S
C1703 C1705 1.332 . S
C1703 H1726 0.950 1_455 S
C1704 C1703 1.349 . S
C1704 C1716 1.349 . S
C1705 C1703 1.332 . S
C1705 C1721 1.438 . S
C1705 H1727 0.936 1_455 S
C1706 H1702 0.949 . S
C1706 C1714 1.574 1_554 S
C1706 C1722 1.368 . S
H1707 C1715 0.950 . S
H1708 C1713 0.950 . S
H1709 C1714 0.949 . S
H1710 C1716 0.950 . S
H1711 C1717 0.950 . S
H1712 C1718 0.949 . S
C1713 H1708 0.950 . S
C1713 C1715 1.327 . S
C1713 C1719 1.429 . S
C1714 C1706 1.574 1_556 S
C1714 H1709 0.949 . S
C1714 C1720 1.368 1_455 S
C1715 C1699 1.349 . S
C1715 H1707 0.950 . S
C1715 C1713 1.327 . S
C1716 C1704 1.349 . S
C1716 H1710 0.950 . S
C1716 C1717 1.327 . S
C1717 H1711 0.950 . S
C1717 C1716 1.327 . S
C1717 C1721 1.429 . S
C1718 C1701 1.574 1_554 S
C1718 H1712 0.949 . S
C1718 C1722 1.368 1_655 S
C1719 C1700 1.438 . S
C1719 C1713 1.429 . S
C1719 C1720 1.523 . S
C1720 C1701 1.368 . S
C1720 C1714 1.368 1_655 S
C1720 C1719 1.523 . S
C1721 C1705 1.438 . S
C1721 C1717 1.429 . S
C1721 C1722 1.523 . S
C1722 C1706 1.368 . S
C1722 C1718 1.368 1_455 S
C1722 C1721 1.523 . S
H1723 C1698 0.950 1_455 S
H1724 C1700 0.936 1_455 S
H1725 C1701 0.949 . S
H1726 C1703 0.950 1_655 S
H1727 C1705 0.936 1_655 S
C529 C94 0.575 . S
C534 C28 0.575 . S
C559 C127 0.575 . S
C564 C61 0.575 . S
C589 C226 0.575 . S
C594 C160 0.575 . S
C619 C193 0.575 . S
C624 C259 0.575 . S
C649 C292 0.575 . S
C654 C358 0.575 . S
C679 C325 0.575 . S
C684 C391 0.575 . S
C709 C490 0.575 . S
C714 C424 0.575 . S
C739 C523 0.575 . S
C744 C457 0.575 . S
C769 C17 1.206 . S
C774 C248 1.206 . S
C799 C149 1.206 . S
C804 C50 1.206 . S
C829 C182 1.206 . S
C834 C83 1.206 . S
C859 C215 1.206 . S
C864 C116 1.206 . S
C889 C512 1.206 . S
C894 C281 1.206 . S
C919 C413 1.206 . S
C924 C314 1.206 . S
C949 C446 1.206 . S
C954 C347 1.206 . S
C979 C479 1.206 . S
C984 C380 1.206 . S
C1009 C8 0.780 . S
C1014 N377 0.781 . S
C1039 C41 0.780 . S
C1044 N278 0.781 . S
C1069 C74 0.780 . S
C1074 N311 0.781 . S
C1099 N344 0.781 . S
C1104 C107 0.780 . S
C1129 C140 0.780 . S
C1134 N443 0.781 . S
C1159 C173 0.780 . S
C1164 N476 0.781 . S
C1189 C206 0.780 . S
C1194 N509 0.781 . S
C1219 C239 0.780 . S
C1224 N410 0.781 . S
C1249 N113 0.781 . S
C1254 C272 0.780 . S
C1279 N14 0.781 . S
C1284 C305 0.780 . S
C1309 N47 0.781 . S
C1314 C338 0.780 . S
C1339 C371 0.780 . S
C1344 N80 0.781 . S
C1369 C404 0.780 . S
C1374 N179 0.781 . S
C1399 C437 0.780 . S
C1404 N212 0.781 . S
C1429 C470 0.780 . S
C1434 N245 0.781 . S
C1459 C503 0.780 . S
C1464 N146 0.781 . S
C1489 N137 1.617 . S
C1494 N5 1.617 . S
C1519 N170 1.617 . S
C1524 N38 1.617 . S
C1549 N71 1.617 . S
C1554 N203 1.617 . S
C1579 N236 1.617 . S
C1584 N104 1.617 . S
C1609 N269 1.617 . S
C1614 N401 1.617 . S
C1639 N434 1.617 . S
C1644 N302 1.617 . S
C1669 N467 1.617 . S
C1674 N335 1.617 . S
C1699 N500 1.617 . S
C1704 N368 1.617 . S
