# Generated by pormake.
# Topology kag, (6)-cn, num edge types: 1
# Building blocks:
#     Node 0, Type 0, BuildingBlock: KUMJIN_clean_sbu_0, # of connection points: 6
#     Node 1, Type 0, BuildingBlock: KUMJIN_clean_sbu_0, # of connection points: 6
#     Node 2, Type 0, BuildingBlock: KUMJIN_clean_sbu_0, # of connection points: 6
#     Edge 3, Type (0, 0), BuildingBlock: TEMPAE_clean_linker_10, # of connection points: 2
#     Edge 4, Type (0, 0), BuildingBlock: TEMPAE_clean_linker_10, # of connection points: 2
#     Edge 5, Type (0, 0), BuildingBlock: TEMPAE_clean_linker_10, # of connection points: 2
#     Edge 6, Type (0, 0), BuildingBlock: TEMPAE_clean_linker_10, # of connection points: 2
#     Edge 7, Type (0, 0), BuildingBlock: TEMPAE_clean_linker_10, # of connection points: 2
#     Edge 8, Type (0, 0), BuildingBlock: TEMPAE_clean_linker_10, # of connection points: 2
#     Edge 9, Type (0, 0), BuildingBlock: TEMPAE_clean_linker_10, # of connection points: 2
#     Edge 10, Type (0, 0), BuildingBlock: TEMPAE_clean_linker_10, # of connection points: 2
#     Edge 11, Type (0, 0), BuildingBlock: TEMPAE_clean_linker_10, # of connection points: 2
# Relax obj value: 0.070
# Max RMSD: 0.189
# Mean RMSD: 0.141
data_MOF--net-kag--node1-KUMJIN_clean_sbu_0--edge1-TEMPAE_clean_linker_10
_symmetry_space_group_name_H-M    P1
_symmetry_Int_Tables_number       1
_symmetry_cell_setting            triclinic
loop_
_symmetry_equiv_pos_as_xyz
'x, y, z'
_cell_length_a     40.048457
_cell_length_b     30.303792
_cell_length_c     15.439154
_cell_angle_alpha  94.270165
_cell_angle_beta   114.14445
_cell_angle_gamma 98.045105
loop_
_atom_site_label
_atom_site_type_symbol
_atom_site_fract_x
_atom_site_fract_y
_atom_site_fract_z
_atom_type_partial_charge
Eu0 Eu 1.0025 0.48477 0.97129 0.0
C1 C 0.99035 0.67425 0.11881 0.0
C2 C 0.92708 0.67948 0.0137 0.0
C3 C 0.95542 0.71764 0.17816 0.0
C4 C 0.96001 0.66279 0.0305 0.0
C5 C 0.98875 0.7027 0.19295 0.0
C6 C 0.92462 0.70599 0.08871 0.0
C7 C 0.05399 0.70239 0.28781 0.0
N8 N 0.02206 0.65912 0.13084 0.0
C9 C 0.0542 0.67427 0.21203 0.0
C10 C 0.02097 0.71613 0.27881 0.0
Eu11 Eu 0.01921 0.60858 0.00251 0.0
N12 N 0.96333 0.63717 0.95958 0.0
C13 C 0.93602 0.63021 0.86803 0.0
C14 C 0.89802 0.67004 0.92133 0.0
C15 C 0.90277 0.64596 0.84781 0.0
H16 H 0.07964 0.66329 0.21941 0.0
H17 H 0.88076 0.63924 0.7757 0.0
H18 H 0.89937 0.71862 0.07753 0.0
H19 H 0.07922 0.7133 0.35317 0.0
H20 H 0.93925 0.61127 0.81084 0.0
H21 H 0.13703 0.45069 0.21657 0.0
H22 H 0.87225 0.6822 0.90547 0.0
H23 H 0.94649 0.43485 0.74731 0.0
H24 H 0.08013 0.483 0.17057 0.0
H25 H 0.94945 0.38431 0.61798 0.0
H26 H 0.95347 0.73908 0.23463 0.0
H27 H 0.14646 0.40273 0.09495 0.0
H28 H 0.12264 0.36623 0.92393 0.0
H29 H 0.02088 0.73793 0.33758 0.0
H30 H 0.07191 0.34865 0.76094 0.0
N31 N 0.0577 0.45451 0.02347 0.0
C32 C 0.08377 0.46216 0.11656 0.0
C33 C 0.12152 0.41716 0.07398 0.0
C34 C 0.09421 0.40838 0.97928 0.0
C35 C 0.11618 0.44398 0.14299 0.0
C36 C 0.06193 0.42732 0.95619 0.0
H37 H 1.0071 0.35486 0.64646 0.0
N38 N 1.00206 0.43446 0.84621 0.0
C39 C 0.97327 0.39339 0.68693 0.0
C40 C 0.03332 0.41713 0.86471 0.0
C41 C 0.9716 0.42177 0.76017 0.0
C42 C 1.0059 0.37691 0.70324 0.0
C43 C 0.03625 0.38815 0.79343 0.0
O44 O 0.95155 0.43705 0.93994 0.0
O45 O 0.97905 0.54599 0.98361 0.0
O46 O 0.01531 0.58914 0.13628 0.0
O47 O 0.02391 0.5143 0.12922 0.0
O48 O 0.94389 0.49489 0.87688 0.0
O49 O 1.00058 0.43916 0.07295 0.0
O50 O 0.06885 0.65537 0.02015 0.0
O51 O 0.04307 0.54736 0.99142 0.0
O52 O 1.01068 0.50623 0.84417 0.0
O53 O 0.99525 0.57756 0.84374 0.0
O54 O 0.07859 0.59975 0.094 0.0
O55 O 0.01598 0.65603 0.90082 0.0
C56 C 0.94591 0.53377 0.92093 0.0
C57 C 0.95579 0.37113 0.01235 0.0
C58 C 0.91297 0.30743 0.02041 0.0
C59 C 0.92477 0.3541 0.02846 0.0
C60 C 0.93321 0.27796 -0.00305 0.0
C61 C 0.97551 0.34143 0.98824 0.0
C62 C 0.96424 0.29496 0.98093 0.0
C63 C 0.02128 0.55179 0.17421 0.0
C64 C 0.96599 0.42003 0.01925 0.0
C65 C 0.06898 0.37067 0.81497 0.0
C66 C 0.09786 0.38067 0.90778 0.0
C67 C 0.07639 0.55996 0.05342 0.0
C68 C 0.05954 0.72479 0.96594 0.0
C69 C 0.09258 0.74641 0.96498 0.0
C70 C 0.10361 0.79348 0.98741 0.0
C71 C 0.08038 0.81887 0.00871 0.0
C72 C 0.03676 0.75039 0.98821 0.0
C73 C 0.04714 0.79732 0.00896 0.0
C74 C 1.00183 0.54193 0.80202 0.0
C75 C 0.05087 0.67541 0.94801 0.0
H76 H 0.90995 0.37745 0.04804 0.0
H77 H 0.92474 0.24183 0.98956 0.0
H78 H 0.99939 0.35412 0.97496 0.0
H79 H 0.97947 0.272 0.96224 0.0
H80 H 0.10978 0.72629 0.94674 0.0
H81 H 0.0882 0.85517 0.02675 0.0
H82 H 1.01124 0.73421 0.99007 0.0
H83 H 0.02956 0.81704 0.02625 0.0
Eu84 Eu 0.5702 0.06661 0.04953 0.0
C85 C 0.41809 0.08405 0.768 0.0
C86 C 0.407 0.15429 0.82674 0.0
C87 C 0.38178 0.12976 0.65517 0.0
C88 C 0.42429 0.11631 0.84392 0.0
C89 C 0.39547 0.08958 0.67304 0.0
C90 C 0.38744 0.16206 0.73204 0.0
C91 C 0.3956 1.01222 0.62284 0.0
N92 N 0.43071 1.04502 0.78807 0.0
C93 C 0.41749 1.00815 0.71829 0.0
C94 C 0.38539 0.0535 0.5997 0.0
Eu95 Eu 0.47254 1.04424 0.95043 0.0
N96 N 0.44264 0.1073 0.93456 0.0
C97 C 0.43917 0.13028 0.00895 0.0
C98 C 0.40712 0.18108 0.90468 0.0
C99 C 0.42175 0.16775 -0.0046 0.0
H100 H 0.42497 0.97598 0.73529 0.0
H101 H 0.41959 0.18629 0.05497 0.0
H102 H 0.3747 0.19157 0.71756 0.0
H103 H 0.38656 0.9835 0.56724 0.0
H104 H 0.44995 0.12019 0.07919 0.0
H105 H 0.64643 0.09385 0.82672 0.0
H106 H 0.39376 0.21021 0.89453 0.0
H107 H 0.60014 1.00826 0.23619 0.0
H108 H 0.61438 0.11644 0.92535 0.0
H109 H 0.62917 0.94177 0.27665 0.0
H110 H 0.36492 0.13497 0.58257 0.0
H111 H 0.65967 1.01662 0.81922 0.0
H112 H 0.66225 0.94328 0.88623 0.0
H113 H 0.36811 0.05641 0.52582 0.0
H114 H 0.65727 0.90067 0.01137 0.0
N115 N 0.60658 0.05139 0.96543 0.0
C116 C 0.61966 0.08252 0.9213 0.0
C117 C 0.64507 1.02616 0.86115 0.0
C118 C 0.63612 0.99658 0.91724 0.0
C119 C 0.63784 0.06986 0.86562 0.0
C120 C 0.617 1.01062 0.97026 0.0
H121 H 0.64698 0.90127 0.16162 0.0
N122 N 0.59956 1.00435 0.09737 0.0
C123 C 0.62397 0.95312 0.20824 0.0
C124 C 0.61352 0.98626 0.03926 0.0
C125 C 0.60699 0.99052 0.18442 0.0
C126 C 0.63396 0.93035 0.14309 0.0
C127 C 0.63005 0.94783 0.05883 0.0
O128 O 0.58898 0.12066 0.1706 0.0
O129 O 0.52114 0.10332 0.01673 0.0
O130 O 0.48694 0.05374 0.82514 0.0
O131 O 0.55019 0.05243 0.88838 0.0
O132 O 0.56053 0.12658 0.96854 0.0
O133 O 0.62954 0.09272 0.13868 0.0
O134 O 0.41492 1.02373 0.93185 0.0
O135 O 0.52212 1.00832 0.0139 0.0
O136 O 0.54706 1.04098 0.1519 0.0
O137 O 0.49926 0.07922 0.104 0.0
O138 O 0.48133 0.98093 0.88052 0.0
O139 O 0.4581 0.99481 0.03164 0.0
C140 C 0.53089 0.13476 0.97563 0.0
C141 C 0.6432 0.17154 0.1918 0.0
C142 C 0.6926 0.22262 0.17488 0.0
C143 C 0.67444 0.17864 0.17052 0.0
C144 C 0.67906 0.25949 0.20045 0.0
C145 C 0.63045 0.20907 0.21779 0.0
C146 C 0.64824 0.25266 0.22174 0.0
C147 C 0.51805 0.05268 0.81609 0.0
C148 C 0.6238 0.12538 0.18695 0.0
C149 C 0.64532 0.93083 -0.00103 0.0
C150 C 0.64824 0.95516 0.92783 0.0
C151 C 0.51137 0.97402 0.94849 0.0
C152 C 0.39876 0.94872 0.9525 0.0
C153 C 0.36463 0.94062 0.95923 0.0
C154 C 0.34187 0.89751 0.92784 0.0
C155 C 0.35388 0.86269 0.88918 0.0
C156 C 0.40999 0.91365 0.91283 0.0
C157 C 0.38766 0.87087 0.8815 0.0
C158 C 0.52324 0.06088 0.17131 0.0
C159 C 0.42257 0.99363 0.98882 0.0
H160 H 0.6849 0.15007 0.1516 0.0
H161 H 0.6921 0.29368 0.2031 0.0
H162 H 0.60661 0.2048 0.23485 0.0
H163 H 0.6381 0.2813 0.24141 0.0
H164 H 0.35583 0.968 0.98864 0.0
H165 H 0.33747 0.82891 0.86621 0.0
H166 H 0.4361 0.91913 0.90681 0.0
H167 H 0.39671 0.84387 0.85194 0.0
Eu168 Eu 0.46373 0.53627 0.94494 0.0
C169 C 0.61706 0.62819 0.26878 0.0
C170 C 0.62442 0.70723 0.25061 0.0
C171 C 0.65027 0.68532 0.40968 0.0
C172 C 0.60975 0.66153 0.21056 0.0
C173 C 0.63804 0.63975 0.3689 0.0
C174 C 0.64355 0.71902 0.35061 0.0
C175 C 0.63635 0.56055 0.38038 0.0
N176 N 0.60501 0.58435 0.22688 0.0
C177 C 0.61557 0.55065 0.28095 0.0
C178 C 0.6471 0.60522 0.42477 0.0
Eu179 Eu 0.56766 0.57162 0.05737 0.0
N180 N 0.59161 0.64911 0.11407 0.0
C181 C 0.59247 0.67948 0.05406 0.0
C182 C 0.62146 0.73939 0.18866 0.0
C183 C 0.60662 0.72524 0.09004 0.0
H184 H 0.60678 0.51582 0.24868 0.0
H185 H 0.60667 0.74947 0.04209 0.0
H186 H 0.65453 0.75397 0.38268 0.0
H187 H 0.64371 0.53362 0.42283 0.0
H188 H 0.58285 0.66794 0.97853 0.0
H189 H 0.4296 0.36745 0.02005 0.0
H190 H 0.63257 0.77479 0.21642 0.0
H191 H 0.43109 0.57733 0.73725 0.0
H192 H 0.45805 0.44837 0.05879 0.0
H193 H 0.39482 0.54921 0.56367 0.0
H194 H 0.66607 0.69482 0.4865 0.0
H195 H 0.39527 0.33183 0.85055 0.0
H196 H 0.37128 0.34003 0.67546 0.0
H197 H 0.66314 0.61271 0.50186 0.0
H198 H 0.36267 0.38929 0.55106 0.0
N199 N 0.44092 0.45793 0.91292 0.0
C200 C 0.44332 0.43303 0.98463 0.0
C201 C 0.4078 0.36727 0.86718 0.0
C202 C 0.40444 0.39341 0.79399 0.0
C203 C 0.42711 0.38726 0.96295 0.0
C204 C 0.4213 0.43936 0.81955 0.0
H205 H 0.37118 0.46745 0.50864 0.0
N206 N 0.42936 0.51197 0.77818 0.0
C207 C 0.40053 0.52578 0.61526 0.0
C208 C 0.41573 0.46719 0.74979 0.0
C209 C 0.42096 0.5416 0.71323 0.0
C210 C 0.38737 0.47958 0.58445 0.0
C211 C 0.3942 0.44972 0.65215 0.0
O212 O 0.41302 0.56478 0.90891 0.0
O213 O 0.51238 0.59563 -0.00505 0.0
O214 O 0.54839 0.57294 0.17657 0.0
O215 O 0.48728 0.53188 0.1042 0.0
O216 O 0.46058 0.61016 0.9251 0.0
O217 O 0.42866 0.52424 0.02277 0.0
O218 O 0.62099 0.59907 0.05412 0.0
O219 O 0.51913 0.51278 0.00715 0.0
O220 O 0.48811 0.52537 0.83757 0.0
O221 O 0.5388 0.58442 0.90283 0.0
O222 O 0.57124 0.49862 0.0791 0.0
O223 O 0.59392 0.53189 0.9867 0.0
C224 C 0.49523 0.62849 0.96805 0.0
C225 C 0.36353 0.52258 0.9337 0.0
C226 C 0.30201 0.5108 0.93872 0.0
C227 C 0.33942 0.53454 0.9748 0.0
C228 C 0.28942 0.47567 0.86166 0.0
C229 C 0.34929 0.48795 0.85557 0.0
C230 C 0.31276 0.46461 0.8203 0.0
C231 C 0.51758 0.55254 0.17968 0.0
C232 C 0.40325 0.54577 0.97037 0.0
C233 C 0.37912 0.40345 0.62577 0.0
C234 C 0.38401 0.3754 0.6966 0.0
C235 C 0.53654 0.48003 0.03413 0.0
C236 C 0.66005 0.54663 0.05733 0.0
C237 C 0.68735 0.55222 0.0204 0.0
C238 C 0.72129 0.53628 0.06544 0.0
C239 C 0.72751 0.51623 0.14879 0.0
C240 C 0.66727 0.52563 0.1393 0.0
C241 C 0.70076 0.51092 0.18495 0.0
C242 C 0.51465 0.55394 0.82994 0.0
C243 C 0.6239 0.56213 0.01176 0.0
H244 H 0.3497 0.56157 0.03453 0.0
H245 H 0.26106 0.45707 0.83226 0.0
H246 H 0.36634 0.47904 0.82102 0.0
H247 H 0.30243 0.43783 0.76011 0.0
H248 H 0.68191 0.56793 0.9564 0.0
H249 H 0.75334 0.50464 0.18671 0.0
H250 H 0.64685 0.52039 0.16801 0.0
H251 H 0.70598 0.4951 0.24869 0.0
C252 C 0.98468 0.57286 0.64606 0.0
C253 C 1.00233 0.54298 0.70692 0.0
C254 C 0.98655 0.57464 0.55733 0.0
C255 C 1.00741 0.5468 0.53052 0.0
C256 C 0.02525 0.51664 0.59183 0.0
C257 C 0.0221 0.51472 0.67852 0.0
C258 C 0.96618 0.60618 0.49221 0.0
C259 C 0.04838 0.48702 0.56698 0.0
C260 C 0.99095 0.51855 0.27102 0.0
C261 C 0.01925 0.54969 0.26644 0.0
C262 C 0.98598 0.51824 0.35574 0.0
C263 C 1.01073 0.54893 0.4384 0.0
C264 C 0.0396 0.58027 0.43396 0.0
C265 C 0.04309 0.58079 0.34715 0.0
C266 C 0.95415 0.48532 0.35659 0.0
C267 C 0.06706 0.61278 0.52109 0.0
H268 H 0.96922 0.5946 0.66744 0.0
H269 H 0.03604 0.49168 0.72524 0.0
H270 H 0.98636 0.63156 0.48127 0.0
H271 H 0.94698 0.58709 0.42064 0.0
H272 H 0.94986 0.62409 0.52163 0.0
H273 H 0.05948 0.46439 0.62117 0.0
H274 H 0.03155 0.466 0.49612 0.0
H275 H 0.07216 0.50839 0.56169 0.0
H276 H 0.97199 0.4953 0.20728 0.0
H277 H 0.06476 0.60498 0.34265 0.0
H278 H 0.93665 0.50364 0.38083 0.0
H279 H 0.96514 0.46163 0.40818 0.0
H280 H 0.93623 0.46548 0.28478 0.0
H281 H 0.05215 0.63413 0.54857 0.0
H282 H 0.08778 0.63505 0.50542 0.0
H283 H 0.08212 0.59379 0.57922 0.0
C284 C 0.54252 1.03361 0.33043 0.0
C285 C 0.52183 0.06013 0.26543 0.0
C286 C 0.54119 1.0321 0.41953 0.0
C287 C 0.51853 0.05768 0.44411 0.0
C288 C 0.49746 0.08441 0.37877 0.0
C289 C 0.49939 0.08534 0.29017 0.0
C290 C 0.56407 1.0032 0.48745 0.0
C291 C 0.47305 0.1122 0.40269 0.0
C292 C 0.49143 1.02358 0.64176 0.0
C293 C 0.51748 0.05417 0.72072 0.0
C294 C 0.49106 1.02467 0.55066 0.0
C295 C 0.51752 0.05705 0.53909 0.0
C296 C 0.54362 0.08833 0.61887 0.0
C297 C 0.54313 0.08659 0.70875 0.0
C298 C 0.46278 0.99079 0.46727 0.0
C299 C 0.57217 0.12348 0.60948 0.0
H300 H 0.55958 1.01362 0.31157 0.0
H301 H 0.48342 0.10604 0.24059 0.0
H302 H 0.5839 1.02438 0.55599 0.0
H303 H 0.54562 0.97798 0.50454 0.0
H304 H 0.5801 0.98516 0.45722 0.0
H305 H 0.45793 0.1306 0.34331 0.0
H306 H 0.45235 0.09019 0.41873 0.0
H307 H 0.49026 0.13705 0.46795 0.0
H308 H 0.47198 0.99815 0.65172 0.0
H309 H 0.56248 0.11106 0.76951 0.0
H310 H 0.47728 0.96895 0.43934 0.0
H311 H 0.44648 1.00837 0.40789 0.0
H312 H 0.44317 0.96912 0.48759 0.0
H313 H 0.59011 0.10686 0.58385 0.0
H314 H 0.59023 0.14557 0.67851 0.0
H315 H 0.55802 0.1448 0.55543 0.0
C316 C 0.5373 0.58921 0.71723 0.0
C317 C 0.5153 0.55387 0.73465 0.0
C318 C 0.53772 0.58951 0.62671 0.0
C319 C 0.51563 0.55363 0.55192 0.0
C320 C 0.49343 0.51785 0.56916 0.0
C321 C 0.49371 0.51829 0.66035 0.0
C322 C 0.56176 0.62824 0.61102 0.0
C323 C 0.46943 0.47899 0.49138 0.0
C324 C 0.49064 0.57208 0.29338 0.0
C325 C 0.51685 0.55226 0.27407 0.0
C326 C 0.48998 0.57297 0.38378 0.0
C327 C 0.51602 0.55321 0.45585 0.0
C328 C 0.54213 0.53247 0.43567 0.0
C329 C 0.54199 0.53197 0.34458 0.0
C330 C 0.46162 0.59522 0.40236 0.0
C331 C 0.57007 0.51061 0.51006 0.0
H332 H 0.55408 0.61685 0.77415 0.0
H333 H 0.47702 0.4905 0.6734 0.0
H334 H 0.58221 0.61547 0.58909 0.0
H335 H 0.54424 0.6451 0.55194 0.0
H336 H 0.57715 0.65367 0.67638 0.0
H337 H 0.45336 0.45416 0.51615 0.0
H338 H 0.44953 0.49169 0.42868 0.0
H339 H 0.48709 0.46142 0.4664 0.0
H340 H 0.47096 0.58738 0.23803 0.0
H341 H 0.56095 0.51476 0.32778 0.0
H342 H 0.47601 0.62326 0.46287 0.0
H343 H 0.44408 0.57071 0.42358 0.0
H344 H 0.4432 0.60876 0.33852 0.0
H345 H 0.58747 0.53565 0.57486 0.0
H346 H 0.5887 0.49633 0.48311 0.0
H347 H 0.55534 0.48321 0.53251 0.0
C348 C 0.10816 0.5273 0.95809 0.0
C349 C 0.11004 0.54745 0.04522 0.0
C350 C 0.14066 0.5212 0.94717 0.0
C351 C 0.17631 0.5361 0.02491 0.0
C352 C 0.17824 0.55547 0.11376 0.0
C353 C 0.14528 0.56112 0.12255 0.0
C354 C 0.13679 0.49996 0.8512 0.0
C355 C 0.21527 0.57097 0.1994 0.0
C356 C 0.25753 0.487 0.01065 0.0
C357 C 0.27479 0.52114 0.97765 0.0
C358 C 0.2265 0.492 0.02933 0.0
C359 C 0.21146 0.53187 0.01298 0.0
C360 C 0.22955 0.56715 0.9826 0.0
C361 C 0.26102 0.56146 0.96577 0.0
C362 C 0.20879 0.45355 0.06234 0.0
C363 C 0.21465 0.61021 0.96375 0.0
H364 H 0.08137 0.51744 0.89727 0.0
H365 H 0.14713 0.57708 0.18998 0.0
H366 H 0.14939 0.52511 0.81923 0.0
H367 H 0.15197 0.47147 0.86019 0.0
H368 H 0.10723 0.48728 0.80027 0.0
H369 H 0.21211 0.58368 0.26448 0.0
H370 H 0.23079 0.54278 0.21533 0.0
H371 H 0.23243 0.59822 0.18313 0.0
H372 H 0.26765 0.45549 0.01875 0.0
H373 H 0.27363 0.58762 0.93837 0.0
H374 H 0.18191 0.43697 0.00258 0.0
H375 H 0.20285 0.46608 0.12294 0.0
H376 H 0.22669 0.42787 0.08519 0.0
H377 H 0.18628 0.60266 0.90409 0.0
H378 H 0.23263 0.63519 0.94457 0.0
H379 H 0.21225 0.62558 0.02795 0.0
C380 C 0.7255 0.20611 0.07159 0.0
C381 C 0.72557 0.23041 0.15266 0.0
C382 C 0.75571 0.2152 0.04717 0.0
C383 C 0.78678 0.24922 0.10552 0.0
C384 C 0.78737 0.27299 0.18881 0.0
C385 C 0.75677 0.26336 0.21121 0.0
C386 C 0.75395 0.18926 0.95759 0.0
C387 C 0.82006 0.30925 0.25339 0.0
C388 C 0.87992 0.25492 0.09114 0.0
C389 C 0.87967 0.29009 0.0368 0.0
C390 C 0.84948 0.2404 0.11205 0.0
C391 C 0.81803 0.26153 0.07775 0.0
C392 C 0.81723 0.29623 0.02077 0.0
C393 C 0.84797 0.30998 0.00087 0.0
C394 C 0.85144 0.20342 0.17333 0.0
C395 C 0.78426 0.31966 0.98271 0.0
H396 H 0.70133 0.18085 0.02566 0.0
H397 H 0.75721 0.28175 0.27475 0.0
H398 H 0.7537 0.2126 0.90535 0.0
H399 H 0.77904 0.17383 0.97482 0.0
H400 H 0.72878 0.16225 0.92285 0.0
H401 H 0.81693 0.32316 0.31772 0.0
H402 H 0.84622 0.29563 0.2774 0.0
H403 H 0.82307 0.33722 0.21311 0.0
H404 H 0.90442 0.23966 0.11989 0.0
H405 H 0.84726 0.33664 0.9574 0.0
H406 H 0.82654 0.17627 0.13691 0.0
H407 H 0.85151 0.21704 0.24214 0.0
H408 H 0.87678 0.18853 0.18934 0.0
H409 H 0.75826 0.29455 0.94179 0.0
H410 H 0.78718 0.34437 0.93541 0.0
H411 H 0.78116 0.33771 0.04342 0.0
C412 C 0.53275 0.90852 0.04738 0.0
C413 C 0.5157 0.92471 0.95937 0.0
C414 C 0.53348 0.86157 0.05311 0.0
C415 C 0.51351 0.82804 0.96993 0.0
C416 C 0.49402 0.84444 0.88205 0.0
C417 C 0.49689 0.89149 0.87757 0.0
C418 C 0.55487 0.84847 0.1503 0.0
C419 C 0.46799 0.81318 0.79129 0.0
C420 C 0.51999 0.70115 0.91985 0.0
C421 C 0.50712 0.67959 0.98115 0.0
C422 C 0.52512 0.74891 0.9215 0.0
C423 C 0.51175 0.77667 0.97485 0.0
C424 C 0.49488 0.75386 0.02892 0.0
C425 C 0.49423 0.70696 0.03411 0.0
C426 C 0.5446 0.7686 0.86382 0.0
C427 C 0.47504 0.77734 0.07786 0.0
H428 H 0.5446 0.93218 0.11273 0.0
H429 H 0.48217 0.90222 0.80871 0.0
H430 H 0.53803 0.84911 0.19211 0.0
H431 H 0.56221 0.81468 0.1459 0.0
H432 H 0.58093 0.87313 0.19157 0.0
H433 H 0.44177 0.82618 0.75596 0.0
H434 H 0.48097 0.81264 0.74012 0.0
H435 H 0.46055 0.77832 0.80353 0.0
H436 H 0.52658 0.68066 0.87054 0.0
H437 H 0.48105 0.69088 0.07557 0.0
H438 H 0.55632 0.80507 0.88785 0.0
H439 H 0.52468 0.76328 0.78705 0.0
H440 H 0.56758 0.75075 0.86865 0.0
H441 H 0.49198 0.78234 0.15663 0.0
H442 H 0.44803 0.75569 0.06366 0.0
H443 H 0.46932 0.81023 0.05422 0.0
C444 C 0.87717 0.53233 0.85781 0.0
C445 C 0.91273 0.54393 0.93428 0.0
C446 C 0.8448 0.53575 0.87133 0.0
C447 C 0.8478 0.55023 0.96419 0.0
C448 C 0.88382 0.56356 0.04103 0.0
C449 C 0.9157 0.56021 0.02517 0.0
C450 C 0.80726 0.52186 0.78683 0.0
C451 C 0.88875 0.57903 0.14144 0.0
C452 C 0.76362 0.57929 0.00162 0.0
C453 C 0.75074 0.53927 0.02812 0.0
C454 C 0.79473 0.5833 0.97902 0.0
C455 C 0.8135 0.5465 0.98298 0.0
C456 C 0.79974 0.50564 0.00645 0.0
C457 C 0.76863 0.5025 0.02788 0.0
C458 C 0.80818 0.62732 0.9535 0.0
C459 C 0.8185 0.46534 0.01153 0.0
H460 H 0.87463 0.51956 0.78747 0.0
H461 H 0.94289 0.56865 0.08511 0.0
H462 H 0.79246 0.48994 0.79567 0.0
H463 H 0.78984 0.54772 0.78322 0.0
H464 H 0.80968 0.51671 0.71778 0.0
H465 H 0.91836 0.59276 0.19079 0.0
H466 H 0.87199 0.60529 0.1409 0.0
H467 H 0.87862 0.5502 0.17023 0.0
H468 H 0.75028 0.60799 0.002 0.0
H469 H 0.75864 0.47112 0.0465 0.0
H470 H 0.81077 0.6214 0.88491 0.0
H471 H 0.83628 0.64279 0.00961 0.0
H472 H 0.7892 0.65161 0.94672 0.0
H473 H 0.81899 0.4552 0.94159 0.0
H474 H 0.8043 0.43592 0.03033 0.0
H475 H 0.84786 0.4743 0.06609 0.0
C476 C 0.17088 0.79514 0.02678 0.0
C477 C 0.13943 0.8153 0.98858 0.0
C478 C 0.20389 0.81224 0.01985 0.0
C479 C 0.20578 0.85097 0.97504 0.0
C480 C 0.17482 0.8729 0.9406 0.0
C481 C 0.14188 0.85466 0.9474 0.0
C482 C 0.23626 0.78778 0.0573 0.0
C483 C 0.17605 0.91464 0.89359 0.0
C484 C 0.30334 0.90708 0.0194 0.0
C485 C 0.30608 0.88846 0.93705 0.0
C486 C 0.27028 0.89673 0.03106 0.0
C487 C 0.23944 0.86657 0.95929 0.0
C488 C 0.24168 0.8486 0.87496 0.0
C489 C 0.27487 0.86 0.8646 0.0
C490 C 0.26878 0.91688 0.12154 0.0
C491 C 0.20943 0.81611 0.797 0.0
H492 H 0.16949 0.76535 0.06084 0.0
H493 H 0.11765 0.87031 0.91743 0.0
H494 H 0.24215 0.77459 -0.00296 0.0
H495 H 0.26172 0.81133 0.10881 0.0
H496 H 0.23076 0.75914 0.09354 0.0
H497 H 0.15106 0.93009 0.87908 0.0
H498 H 0.20127 0.94002 0.93972 0.0
H499 H 0.17778 0.90599 0.82464 0.0
H500 H 0.32739 0.92872 0.07625 0.0
H501 H 0.27647 0.84623 0.79988 0.0
H502 H 0.26697 0.89001 0.16533 0.0
H503 H 0.24352 0.93203 0.10366 0.0
H504 H 0.2937 0.94312 0.16577 0.0
H505 H 0.2151 0.80672 0.73405 0.0
H506 H 0.18395 0.83108 0.77249 0.0
H507 H 0.2035 0.78495 0.82579 0.0
C508 C 0.54616 0.40693 0.09907 0.0
C509 C 0.52569 0.42873 0.02209 0.0
C510 C 0.54606 0.3599 0.08966 0.0
C511 C 0.52257 0.33125 0.00173 0.0
C512 C 0.50131 0.3529 0.92329 0.0
C513 C 0.50449 0.40095 0.93317 0.0
C514 C 0.57369 0.3427 0.17428 0.0
C515 C 0.47567 0.32536 0.82749 0.0
C516 C 0.53887 0.21261 0.92807 0.0
C517 C 0.52463 0.18361 0.97745 0.0
C518 C 0.53932 0.25981 0.93683 0.0
C519 C 0.5222 0.27986 0.99064 0.0
C520 C 0.5072 0.25055 0.03979 0.0
C521 C 0.51038 0.20402 0.03656 0.0
C522 C 0.56047 0.2875 0.89167 0.0
C523 C 0.48795 0.26844 0.09706 0.0
H524 H 0.56464 0.42747 0.16718 0.0
H525 H 0.49105 0.41674 0.87047 0.0
H526 H 0.56643 0.3473 0.23606 0.0
H527 H 0.57529 0.3069 0.15972 0.0
H528 H 0.60192 0.36321 0.19688 0.0
H529 H 0.49212 0.31113 0.79351 0.0
H530 H 0.4575 0.29679 0.8372 0.0
H531 H 0.45805 0.34578 0.77715 0.0
H532 H 0.55169 0.19868 0.88523 0.0
H533 H 0.50286 0.18414 0.08322 0.0
H534 H 0.56403 0.32434 0.91108 0.0
H535 H 0.54593 0.27859 0.81244 0.0
H536 H 0.58857 0.2788 0.91377 0.0
H537 H 0.50768 0.29421 0.15763 0.0
H538 H 0.47627 0.24162 0.12746 0.0
H539 H 0.46519 0.28481 0.0508 0.0
loop_
_geom_bond_atom_site_label_1
_geom_bond_atom_site_label_2
_geom_bond_distance
_geom_bond_site_symmetry_2
_ccdc_geom_bond_type
Eu0 N31 2.657 1_656 S
Eu0 N38 2.609 . S
Eu0 O44 2.558 . S
Eu0 O45 2.615 . S
Eu0 O47 2.337 1_556 S
Eu0 O48 2.563 . S
Eu0 O49 2.419 1_556 S
Eu0 O51 2.380 1_656 S
Eu0 O52 2.432 . S
Eu0 C64 2.848 . S
C1 C4 1.429 . S
C1 C5 1.411 . S
C1 N8 1.377 1_655 S
C2 C4 1.420 1_556 S
C2 C6 1.423 1_556 S
C2 C14 1.392 . S
C3 C5 1.420 . S
C3 C6 1.351 . S
C3 H26 0.931 . S
C4 C1 1.429 . S
C4 C2 1.420 1_554 S
C4 N12 1.362 1_554 S
C5 C1 1.411 . S
C5 C3 1.420 . S
C5 C10 1.395 1_655 S
C6 C2 1.423 1_554 S
C6 C3 1.351 . S
C6 H18 0.930 1_554 S
C7 C9 1.400 . S
C7 C10 1.386 . S
C7 H19 0.930 . S
N8 C1 1.377 1_455 S
N8 C9 1.321 . S
N8 Eu11 2.609 . S
C9 C7 1.400 . S
C9 N8 1.321 . S
C9 H16 0.930 . S
C10 C5 1.395 1_455 S
C10 C7 1.386 . S
C10 H29 0.930 . S
Eu11 N8 2.609 . S
Eu11 N12 2.657 1_454 S
Eu11 O45 2.383 1_454 S
Eu11 O46 2.432 . S
Eu11 O50 2.558 . S
Eu11 O51 2.612 . S
Eu11 O53 2.336 1_554 S
Eu11 O54 2.563 . S
Eu11 O55 2.419 1_554 S
Eu11 C75 2.848 . S
N12 C4 1.362 1_556 S
N12 Eu11 2.657 1_656 S
N12 C13 1.334 . S
C13 N12 1.334 . S
C13 C15 1.413 . S
C13 H20 0.929 . S
C14 C2 1.392 . S
C14 C15 1.367 . S
C14 H22 0.930 . S
C15 C13 1.413 . S
C15 C14 1.367 . S
C15 H17 0.930 . S
H16 C9 0.930 . S
H17 C15 0.930 . S
H18 C6 0.930 1_556 S
H19 C7 0.930 . S
H20 C13 0.929 . S
H21 C35 0.930 . S
H22 C14 0.930 . S
H23 C41 0.930 . S
H24 C32 0.929 . S
H25 C39 0.930 . S
H26 C3 0.931 . S
H27 C33 0.930 . S
H28 C66 0.930 1_554 S
H29 C10 0.930 . S
H30 C65 0.931 . S
N31 Eu0 2.657 1_454 S
N31 C32 1.334 . S
N31 C36 1.359 1_554 S
C32 H24 0.929 . S
C32 N31 1.334 . S
C32 C35 1.413 . S
C33 H27 0.930 . S
C33 C34 1.392 . S
C33 C35 1.367 . S
C34 C33 1.392 . S
C34 C36 1.419 1_554 S
C34 C66 1.423 1_554 S
C35 H21 0.930 . S
C35 C32 1.413 . S
C35 C33 1.367 . S
C36 N31 1.359 1_556 S
C36 C34 1.419 1_556 S
C36 C40 1.432 . S
H37 C42 0.930 . S
N38 Eu0 2.609 . S
N38 C40 1.377 1_655 S
N38 C41 1.321 . S
C39 H25 0.930 . S
C39 C41 1.400 . S
C39 C42 1.386 . S
C40 C36 1.432 . S
C40 N38 1.377 1_455 S
C40 C43 1.411 . S
C41 H23 0.930 . S
C41 N38 1.321 . S
C41 C39 1.400 . S
C42 H37 0.930 . S
C42 C39 1.386 . S
C42 C43 1.395 1_655 S
C43 C40 1.411 . S
C43 C42 1.395 1_455 S
C43 C65 1.420 . S
O44 Eu0 2.558 . S
O44 C64 1.257 . S
O45 Eu0 2.615 . S
O45 Eu11 2.383 1_656 S
O45 C56 1.273 . S
O46 Eu11 2.432 . S
O46 C63 1.264 . S
O47 Eu0 2.337 1_554 S
O47 C63 1.255 1_655 S
O48 Eu0 2.563 . S
O48 C56 1.235 . S
O49 Eu0 2.419 1_554 S
O49 C64 1.249 1_554 S
O50 Eu11 2.558 . S
O50 C75 1.257 . S
O51 Eu0 2.380 1_454 S
O51 Eu11 2.612 . S
O51 C67 1.276 . S
O52 Eu0 2.432 . S
O52 C74 1.264 . S
O53 Eu11 2.336 1_556 S
O53 C74 1.257 1_455 S
O54 Eu11 2.563 . S
O54 C67 1.235 . S
O55 Eu11 2.419 1_556 S
O55 C75 1.249 1_556 S
C56 O45 1.273 . S
C56 O48 1.235 . S
C57 C59 1.392 . S
C57 C61 1.395 . S
C57 C64 1.492 . S
C58 C59 1.393 . S
C58 C60 1.386 . S
C59 C57 1.392 . S
C59 C58 1.393 . S
C59 H76 0.930 1_556 S
C60 C58 1.386 . S
C60 C62 1.395 . S
C60 H77 0.930 . S
C61 C57 1.395 . S
C61 C62 1.379 . S
C61 H78 0.930 . S
C62 C60 1.395 . S
C62 C61 1.379 . S
C62 H79 0.930 . S
C63 O46 1.264 . S
C63 O47 1.255 1_455 S
C64 Eu0 2.848 . S
C64 O44 1.257 . S
C64 O49 1.249 1_556 S
C64 C57 1.492 . S
C65 H30 0.931 . S
C65 C43 1.420 . S
C65 C66 1.351 . S
C66 H28 0.930 1_556 S
C66 C34 1.423 1_556 S
C66 C65 1.351 . S
C67 O51 1.276 . S
C67 O54 1.235 . S
C68 C69 1.393 . S
C68 C72 1.395 . S
C68 C75 1.492 . S
C69 C68 1.393 . S
C69 C70 1.392 . S
C69 H80 0.930 1_554 S
C70 C69 1.392 . S
C70 C71 1.386 . S
C71 C70 1.386 . S
C71 C73 1.395 . S
C71 H81 0.930 . S
C72 C68 1.395 . S
C72 C73 1.379 . S
C72 H82 0.930 . S
C73 C71 1.395 . S
C73 C72 1.379 . S
C73 H83 0.930 . S
C74 O52 1.264 . S
C74 O53 1.257 1_655 S
C75 Eu11 2.848 . S
C75 O50 1.257 . S
C75 O55 1.249 1_554 S
C75 C68 1.492 . S
H76 C59 0.930 1_554 S
H77 C60 0.930 . S
H78 C61 0.930 . S
H79 C62 0.930 . S
H80 C69 0.930 1_556 S
H81 C71 0.930 . S
H82 C72 0.930 . S
H83 C73 0.930 . S
Eu84 N115 2.657 1_545 S
Eu84 N122 2.609 1_545 S
Eu84 O128 2.558 . S
Eu84 O129 2.612 1_554 S
Eu84 O131 2.339 1_554 S
Eu84 O132 2.563 . S
Eu84 O133 2.419 . S
Eu84 O135 2.380 1_545 S
Eu84 O136 2.432 . S
Eu84 C148 2.848 . S
C85 C88 1.429 . S
C85 C89 1.411 . S
C85 N92 1.377 . S
C86 C88 1.420 . S
C86 C90 1.423 . S
C86 C98 1.392 1_556 S
C87 C89 1.420 . S
C87 C90 1.351 . S
C87 H110 0.931 . S
C88 C85 1.429 . S
C88 C86 1.420 . S
C88 N96 1.362 . S
C89 C85 1.411 . S
C89 C87 1.420 . S
C89 C94 1.395 . S
C90 C86 1.423 . S
C90 C87 1.351 . S
C90 H102 0.930 . S
C91 C93 1.400 1_545 S
C91 C94 1.386 . S
C91 H103 0.930 1_545 S
N92 C85 1.377 . S
N92 C93 1.321 1_545 S
N92 Eu95 2.609 1_545 S
C93 C91 1.400 1_565 S
C93 N92 1.321 1_565 S
C93 H100 0.930 . S
C94 C89 1.395 . S
C94 C91 1.386 . S
C94 H113 0.930 . S
Eu95 N92 2.609 1_565 S
Eu95 N96 2.657 1_565 S
Eu95 O129 2.380 1_565 S
Eu95 O130 2.432 . S
Eu95 O134 2.558 . S
Eu95 O135 2.612 1_556 S
Eu95 O137 2.339 1_556 S
Eu95 O138 2.563 . S
Eu95 O139 2.419 . S
Eu95 C159 2.848 . S
N96 C88 1.362 . S
N96 Eu95 2.657 1_545 S
N96 C97 1.334 1_556 S
C97 N96 1.334 1_554 S
C97 C99 1.413 . S
C97 H104 0.929 . S
C98 C86 1.392 1_554 S
C98 C99 1.367 . S
C98 H106 0.930 . S
C99 C97 1.413 . S
C99 C98 1.367 . S
C99 H101 0.930 . S
H100 C93 0.930 . S
H101 C99 0.930 . S
H102 C90 0.930 . S
H103 C91 0.930 1_565 S
H104 C97 0.929 . S
H105 C119 0.930 . S
H106 C98 0.930 . S
H107 C125 0.930 . S
H108 C116 0.929 . S
H109 C123 0.925 1_545 S
H110 C87 0.931 . S
H111 C117 0.930 . S
H112 C150 0.930 . S
H113 C94 0.930 . S
H114 C149 0.931 . S
N115 Eu84 2.657 1_565 S
N115 C116 1.334 1_554 S
N115 C120 1.362 . S
C116 H108 0.929 . S
C116 N115 1.334 1_556 S
C116 C119 1.413 . S
C117 H111 0.930 . S
C117 C118 1.392 1_556 S
C117 C119 1.367 . S
C118 C117 1.392 1_554 S
C118 C120 1.420 . S
C118 C150 1.423 . S
C119 H105 0.930 . S
C119 C116 1.413 . S
C119 C117 1.367 . S
C120 N115 1.362 . S
C120 C118 1.420 . S
C120 C124 1.429 . S
H121 C126 0.930 . S
N122 Eu84 2.609 1_565 S
N122 C124 1.377 . S
N122 C125 1.321 1_565 S
C123 H109 0.925 1_565 S
C123 C125 1.393 1_565 S
C123 C126 1.397 . S
C124 C120 1.429 . S
C124 N122 1.377 . S
C124 C127 1.411 . S
C125 H107 0.930 . S
C125 N122 1.321 1_545 S
C125 C123 1.393 1_545 S
C126 H121 0.930 . S
C126 C123 1.397 . S
C126 C127 1.395 . S
C127 C124 1.411 . S
C127 C126 1.395 . S
C127 C149 1.420 . S
O128 Eu84 2.558 . S
O128 C148 1.257 . S
O129 Eu84 2.612 1_556 S
O129 Eu95 2.380 1_545 S
O129 C140 1.276 . S
O130 Eu95 2.432 . S
O130 C147 1.264 1_565 S
O131 Eu84 2.339 1_556 S
O131 C147 1.254 . S
O132 Eu84 2.563 . S
O132 C140 1.235 1_554 S
O133 Eu84 2.419 . S
O133 C148 1.249 . S
O134 Eu95 2.558 . S
O134 C159 1.257 . S
O135 Eu84 2.380 1_565 S
O135 Eu95 2.612 1_554 S
O135 C151 1.276 . S
O136 Eu84 2.432 . S
O136 C158 1.270 . S
O137 Eu95 2.339 1_554 S
O137 C158 1.255 1_565 S
O138 Eu95 2.563 . S
O138 C151 1.235 1_556 S
O139 Eu95 2.419 . S
O139 C159 1.249 . S
C140 O129 1.276 . S
C140 O132 1.235 1_556 S
C141 C143 1.393 . S
C141 C145 1.395 . S
C141 C148 1.492 . S
C142 C143 1.392 . S
C142 C144 1.386 . S
C143 C141 1.393 . S
C143 C142 1.392 . S
C143 H160 0.930 1_554 S
C144 C142 1.386 . S
C144 C146 1.395 . S
C144 H161 0.930 . S
C145 C141 1.395 . S
C145 C146 1.379 . S
C145 H162 0.930 . S
C146 C144 1.395 . S
C146 C145 1.379 . S
C146 H163 0.930 . S
C147 O130 1.264 1_545 S
C147 O131 1.254 . S
C148 Eu84 2.848 . S
C148 O128 1.257 . S
C148 O133 1.249 . S
C148 C141 1.492 . S
C149 H114 0.931 . S
C149 C127 1.420 . S
C149 C150 1.351 . S
C150 H112 0.930 . S
C150 C118 1.423 . S
C150 C149 1.351 . S
C151 O135 1.276 . S
C151 O138 1.235 1_554 S
C152 C153 1.393 . S
C152 C156 1.395 . S
C152 C159 1.492 . S
C153 C152 1.393 . S
C153 C154 1.392 . S
C153 H164 0.930 1_556 S
C154 C153 1.392 . S
C154 C155 1.386 . S
C155 C154 1.386 . S
C155 C157 1.395 . S
C155 H165 0.930 . S
C156 C152 1.395 . S
C156 C157 1.379 . S
C156 H166 0.930 . S
C157 C155 1.395 . S
C157 C156 1.379 . S
C157 H167 0.930 . S
C158 O136 1.270 . S
C158 O137 1.255 1_545 S
C159 Eu95 2.848 . S
C159 O134 1.257 . S
C159 O139 1.249 . S
C159 C152 1.492 . S
H160 C143 0.930 1_556 S
H161 C144 0.930 . S
H162 C145 0.930 . S
H163 C146 0.930 . S
H164 C153 0.930 1_554 S
H165 C155 0.930 . S
H166 C156 0.930 . S
H167 C157 0.930 . S
Eu168 N199 2.657 . S
Eu168 N206 2.609 . S
Eu168 O212 2.558 . S
Eu168 O213 2.612 1_556 S
Eu168 O215 2.339 1_556 S
Eu168 O216 2.563 . S
Eu168 O217 2.419 . S
Eu168 O219 2.380 . S
Eu168 O220 2.432 . S
Eu168 C232 2.848 . S
C169 C172 1.429 . S
C169 C173 1.411 . S
C169 N176 1.377 . S
C170 C172 1.420 . S
C170 C174 1.423 . S
C170 C182 1.392 1_554 S
C171 C173 1.420 . S
C171 C174 1.351 . S
C171 H194 0.931 . S
C172 C169 1.429 . S
C172 C170 1.420 . S
C172 N180 1.362 . S
C173 C169 1.411 . S
C173 C171 1.420 . S
C173 C178 1.395 . S
C174 C170 1.423 . S
C174 C171 1.351 . S
C174 H186 0.930 . S
C175 C177 1.400 . S
C175 C178 1.386 . S
C175 H187 0.930 . S
N176 C169 1.377 . S
N176 C177 1.321 . S
N176 Eu179 2.609 . S
C177 C175 1.400 . S
C177 N176 1.321 . S
C177 H184 0.930 . S
C178 C173 1.395 . S
C178 C175 1.386 . S
C178 H197 0.930 . S
Eu179 N176 2.609 . S
Eu179 N180 2.657 . S
Eu179 O213 2.380 . S
Eu179 O214 2.432 . S
Eu179 O218 2.558 . S
Eu179 O219 2.612 1_554 S
Eu179 O221 2.339 1_554 S
Eu179 O222 2.563 . S
Eu179 O223 2.419 . S
Eu179 C243 2.848 . S
N180 C172 1.362 . S
N180 Eu179 2.657 . S
N180 C181 1.334 1_554 S
C181 N180 1.334 1_556 S
C181 C183 1.413 . S
C181 H188 0.929 . S
C182 C170 1.392 1_556 S
C182 C183 1.367 . S
C182 H190 0.930 . S
C183 C181 1.413 . S
C183 C182 1.367 . S
C183 H185 0.930 . S
H184 C177 0.930 . S
H185 C183 0.930 . S
H186 C174 0.930 . S
H187 C175 0.930 . S
H188 C181 0.929 . S
H189 C203 0.930 . S
H190 C182 0.930 . S
H191 C209 0.930 . S
H192 C200 0.929 . S
H193 C207 0.930 . S
H194 C171 0.931 . S
H195 C201 0.930 . S
H196 C234 0.930 . S
H197 C178 0.930 . S
H198 C233 0.931 . S
N199 Eu168 2.657 . S
N199 C200 1.334 1_556 S
N199 C204 1.362 . S
C200 H192 0.929 . S
C200 N199 1.334 1_554 S
C200 C203 1.413 . S
C201 H195 0.930 . S
C201 C202 1.392 1_554 S
C201 C203 1.367 . S
C202 C201 1.392 1_556 S
C202 C204 1.420 . S
C202 C234 1.423 . S
C203 H189 0.930 . S
C203 C200 1.413 . S
C203 C201 1.367 . S
C204 N199 1.362 . S
C204 C202 1.420 . S
C204 C208 1.429 . S
H205 C210 0.930 . S
N206 Eu168 2.609 . S
N206 C208 1.377 . S
N206 C209 1.321 . S
C207 H193 0.930 . S
C207 C209 1.400 . S
C207 C210 1.386 . S
C208 C204 1.429 . S
C208 N206 1.377 . S
C208 C211 1.411 . S
C209 H191 0.930 . S
C209 N206 1.321 . S
C209 C207 1.400 . S
C210 H205 0.930 . S
C210 C207 1.386 . S
C210 C211 1.395 . S
C211 C208 1.411 . S
C211 C210 1.395 . S
C211 C233 1.420 . S
O212 Eu168 2.558 . S
O212 C232 1.257 . S
O213 Eu168 2.612 1_554 S
O213 Eu179 2.380 . S
O213 C224 1.276 . S
O214 Eu179 2.432 . S
O214 C231 1.264 . S
O215 Eu168 2.339 1_554 S
O215 C231 1.254 . S
O216 Eu168 2.563 . S
O216 C224 1.235 1_556 S
O217 Eu168 2.419 . S
O217 C232 1.249 . S
O218 Eu179 2.558 . S
O218 C243 1.257 . S
O219 Eu168 2.380 . S
O219 Eu179 2.612 1_556 S
O219 C235 1.276 . S
O220 Eu168 2.432 . S
O220 C242 1.264 . S
O221 Eu179 2.339 1_556 S
O221 C242 1.254 . S
O222 Eu179 2.563 . S
O222 C235 1.235 1_554 S
O223 Eu179 2.419 . S
O223 C243 1.249 . S
C224 O213 1.276 . S
C224 O216 1.235 1_554 S
C225 C227 1.393 . S
C225 C229 1.395 . S
C225 C232 1.492 . S
C226 C227 1.392 . S
C226 C228 1.386 . S
C227 C225 1.393 . S
C227 C226 1.392 . S
C227 H244 0.930 1_556 S
C228 C226 1.386 . S
C228 C230 1.395 . S
C228 H245 0.930 . S
C229 C225 1.395 . S
C229 C230 1.379 . S
C229 H246 0.930 . S
C230 C228 1.395 . S
C230 C229 1.379 . S
C230 H247 0.930 . S
C231 O214 1.264 . S
C231 O215 1.254 . S
C232 Eu168 2.848 . S
C232 O212 1.257 . S
C232 O217 1.249 . S
C232 C225 1.492 . S
C233 H198 0.931 . S
C233 C211 1.420 . S
C233 C234 1.351 . S
C234 H196 0.930 . S
C234 C202 1.423 . S
C234 C233 1.351 . S
C235 O219 1.276 . S
C235 O222 1.235 1_556 S
C236 C237 1.393 . S
C236 C240 1.395 . S
C236 C243 1.492 . S
C237 C236 1.393 . S
C237 C238 1.392 . S
C237 H248 0.930 1_554 S
C238 C237 1.392 . S
C238 C239 1.386 . S
C239 C238 1.386 . S
C239 C241 1.395 . S
C239 H249 0.930 . S
C240 C236 1.395 . S
C240 C241 1.379 . S
C240 H250 0.930 . S
C241 C239 1.395 . S
C241 C240 1.379 . S
C241 H251 0.930 . S
C242 O220 1.264 . S
C242 O221 1.254 . S
C243 Eu179 2.848 . S
C243 O218 1.257 . S
C243 O223 1.249 . S
C243 C236 1.492 . S
H244 C227 0.930 1_554 S
H245 C228 0.930 . S
H246 C229 0.930 . S
H247 C230 0.930 . S
H248 C237 0.930 1_556 S
H249 C239 0.930 . S
H250 C240 0.930 . S
H251 C241 0.930 . S
C252 C253 1.382 1_655 S
C252 C254 1.394 . S
C252 H268 0.931 . S
C253 C252 1.382 1_455 S
C253 C257 1.400 . S
C254 C252 1.394 . S
C254 C255 1.369 1_655 S
C254 C258 1.531 . S
C255 C254 1.369 1_455 S
C255 C256 1.410 . S
C255 C263 1.503 . S
C256 C255 1.410 . S
C256 C257 1.392 . S
C256 C259 1.511 . S
C257 C253 1.400 . S
C257 C256 1.392 . S
C257 H269 0.929 . S
C258 C254 1.531 . S
C258 H270 0.960 . S
C258 H271 0.962 . S
C258 H272 0.960 . S
C259 C256 1.511 . S
C259 H273 0.961 . S
C259 H274 0.961 . S
C259 H275 0.961 . S
C260 C261 1.370 1_655 S
C260 C262 1.363 . S
C260 H276 0.931 . S
C261 C260 1.370 1_455 S
C261 C265 1.408 . S
C262 C260 1.363 . S
C262 C263 1.370 1_655 S
C262 C266 1.524 . S
C263 C255 1.503 . S
C263 C262 1.370 1_455 S
C263 C264 1.403 . S
C264 C263 1.403 . S
C264 C265 1.404 . S
C264 C267 1.539 . S
C265 C261 1.408 . S
C265 C264 1.404 . S
C265 H277 0.930 . S
C266 C262 1.524 . S
C266 H278 0.956 . S
C266 H279 0.961 . S
C266 H280 0.961 . S
C267 C264 1.539 . S
C267 H281 0.958 . S
C267 H282 0.961 . S
C267 H283 0.960 . S
H268 C252 0.931 . S
H269 C257 0.929 . S
H270 C258 0.960 . S
H271 C258 0.962 . S
H272 C258 0.960 . S
H273 C259 0.961 . S
H274 C259 0.961 . S
H275 C259 0.961 . S
H276 C260 0.931 . S
H277 C265 0.930 . S
H278 C266 0.956 . S
H279 C266 0.961 . S
H280 C266 0.961 . S
H281 C267 0.958 . S
H282 C267 0.961 . S
H283 C267 0.960 . S
C284 C285 1.391 1_545 S
C284 C286 1.394 . S
C284 H300 0.931 . S
C285 C284 1.391 1_565 S
C285 C289 1.376 . S
C286 C284 1.394 . S
C286 C287 1.369 . S
C286 C290 1.531 . S
C287 C286 1.369 . S
C287 C288 1.410 1_545 S
C287 C295 1.503 . S
C288 C287 1.410 1_565 S
C288 C289 1.392 . S
C288 C291 1.511 . S
C289 C285 1.376 . S
C289 C288 1.392 . S
C289 H301 0.929 . S
C290 C286 1.531 . S
C290 H302 0.960 . S
C290 H303 0.962 . S
C290 H304 0.960 . S
C291 C288 1.511 . S
C291 H305 0.961 . S
C291 H306 0.961 . S
C291 H307 0.961 . S
C292 C293 1.370 1_565 S
C292 C294 1.363 . S
C292 H308 0.931 . S
C293 C292 1.370 1_545 S
C293 C297 1.408 . S
C294 C292 1.363 . S
C294 C295 1.370 1_565 S
C294 C298 1.524 . S
C295 C287 1.503 . S
C295 C294 1.370 1_545 S
C295 C296 1.403 . S
C296 C295 1.403 . S
C296 C297 1.404 . S
C296 C299 1.539 . S
C297 C293 1.408 . S
C297 C296 1.404 . S
C297 H309 0.930 . S
C298 C294 1.524 . S
C298 H310 0.956 . S
C298 H311 0.961 . S
C298 H312 0.961 . S
C299 C296 1.539 . S
C299 H313 0.958 . S
C299 H314 0.961 . S
C299 H315 0.960 . S
H300 C284 0.931 . S
H301 C289 0.929 . S
H302 C290 0.960 . S
H303 C290 0.962 . S
H304 C290 0.960 . S
H305 C291 0.961 . S
H306 C291 0.961 . S
H307 C291 0.961 . S
H308 C292 0.931 . S
H309 C297 0.930 . S
H310 C298 0.956 . S
H311 C298 0.961 . S
H312 C298 0.961 . S
H313 C299 0.958 . S
H314 C299 0.961 . S
H315 C299 0.960 . S
C316 C317 1.391 . S
C316 C318 1.394 . S
C316 H332 0.931 . S
C317 C316 1.391 . S
C317 C321 1.376 . S
C318 C316 1.394 . S
C318 C319 1.369 . S
C318 C322 1.531 . S
C319 C318 1.369 . S
C319 C320 1.410 . S
C319 C327 1.503 . S
C320 C319 1.410 . S
C320 C321 1.392 . S
C320 C323 1.511 . S
C321 C317 1.376 . S
C321 C320 1.392 . S
C321 H333 0.929 . S
C322 C318 1.531 . S
C322 H334 0.960 . S
C322 H335 0.962 . S
C322 H336 0.960 . S
C323 C320 1.511 . S
C323 H337 0.961 . S
C323 H338 0.961 . S
C323 H339 0.961 . S
C324 C325 1.370 . S
C324 C326 1.363 . S
C324 H340 0.931 . S
C325 C324 1.370 . S
C325 C329 1.408 . S
C326 C324 1.363 . S
C326 C327 1.370 . S
C326 C330 1.524 . S
C327 C319 1.503 . S
C327 C326 1.370 . S
C327 C328 1.403 . S
C328 C327 1.403 . S
C328 C329 1.404 . S
C328 C331 1.539 . S
C329 C325 1.408 . S
C329 C328 1.404 . S
C329 H341 0.930 . S
C330 C326 1.524 . S
C330 H342 0.956 . S
C330 H343 0.961 . S
C330 H344 0.961 . S
C331 C328 1.539 . S
C331 H345 0.958 . S
C331 H346 0.961 . S
C331 H347 0.960 . S
H332 C316 0.931 . S
H333 C321 0.929 . S
H334 C322 0.960 . S
H335 C322 0.962 . S
H336 C322 0.960 . S
H337 C323 0.961 . S
H338 C323 0.961 . S
H339 C323 0.961 . S
H340 C324 0.931 . S
H341 C329 0.930 . S
H342 C330 0.956 . S
H343 C330 0.961 . S
H344 C330 0.961 . S
H345 C331 0.958 . S
H346 C331 0.961 . S
H347 C331 0.960 . S
C348 C349 1.391 1_556 S
C348 C350 1.394 . S
C348 H364 0.931 . S
C349 C348 1.391 1_554 S
C349 C353 1.376 . S
C350 C348 1.394 . S
C350 C351 1.369 . S
C350 C354 1.531 . S
C351 C350 1.369 . S
C351 C352 1.410 1_556 S
C351 C359 1.503 . S
C352 C351 1.410 1_554 S
C352 C353 1.392 . S
C352 C355 1.511 . S
C353 C349 1.376 . S
C353 C352 1.392 . S
C353 H365 0.929 . S
C354 C350 1.531 . S
C354 H366 0.960 . S
C354 H367 0.962 . S
C354 H368 0.960 . S
C355 C352 1.511 . S
C355 H369 0.961 . S
C355 H370 0.961 . S
C355 H371 0.961 . S
C356 C357 1.370 1_554 S
C356 C358 1.363 . S
C356 H372 0.931 . S
C357 C356 1.370 1_556 S
C357 C361 1.408 . S
C358 C356 1.363 . S
C358 C359 1.370 1_554 S
C358 C362 1.524 . S
C359 C351 1.503 . S
C359 C358 1.370 1_556 S
C359 C360 1.403 . S
C360 C359 1.403 . S
C360 C361 1.404 . S
C360 C363 1.539 . S
C361 C357 1.408 . S
C361 C360 1.404 . S
C361 H373 0.930 . S
C362 C358 1.524 . S
C362 H374 0.956 . S
C362 H375 0.961 . S
C362 H376 0.961 . S
C363 C360 1.539 . S
C363 H377 0.958 . S
C363 H378 0.961 . S
C363 H379 0.960 . S
H364 C348 0.931 . S
H365 C353 0.929 . S
H366 C354 0.960 . S
H367 C354 0.962 . S
H368 C354 0.960 . S
H369 C355 0.961 . S
H370 C355 0.961 . S
H371 C355 0.961 . S
H372 C356 0.931 . S
H373 C361 0.930 . S
H374 C362 0.956 . S
H375 C362 0.961 . S
H376 C362 0.961 . S
H377 C363 0.958 . S
H378 C363 0.961 . S
H379 C363 0.960 . S
C380 C381 1.391 1_556 S
C380 C382 1.394 . S
C380 H396 0.931 . S
C381 C380 1.391 1_554 S
C381 C385 1.376 . S
C382 C380 1.394 . S
C382 C383 1.369 1_556 S
C382 C386 1.531 . S
C383 C382 1.369 1_554 S
C383 C384 1.410 . S
C383 C391 1.503 . S
C384 C383 1.410 . S
C384 C385 1.392 . S
C384 C387 1.511 . S
C385 C381 1.376 . S
C385 C384 1.392 . S
C385 H397 0.929 . S
C386 C382 1.531 . S
C386 H398 0.960 . S
C386 H399 0.962 . S
C386 H400 0.960 . S
C387 C384 1.511 . S
C387 H401 0.961 . S
C387 H402 0.961 . S
C387 H403 0.961 . S
C388 C389 1.370 1_556 S
C388 C390 1.363 . S
C388 H404 0.931 . S
C389 C388 1.370 1_554 S
C389 C393 1.408 . S
C390 C388 1.363 . S
C390 C391 1.370 1_556 S
C390 C394 1.524 . S
C391 C383 1.503 . S
C391 C390 1.370 1_554 S
C391 C392 1.403 . S
C392 C391 1.403 . S
C392 C393 1.404 . S
C392 C395 1.539 . S
C393 C389 1.408 . S
C393 C392 1.404 . S
C393 H405 0.930 . S
C394 C390 1.524 . S
C394 H406 0.956 . S
C394 H407 0.961 . S
C394 H408 0.961 . S
C395 C392 1.539 . S
C395 H409 0.958 . S
C395 H410 0.961 . S
C395 H411 0.960 . S
H396 C380 0.931 . S
H397 C385 0.929 . S
H398 C386 0.960 . S
H399 C386 0.962 . S
H400 C386 0.960 . S
H401 C387 0.961 . S
H402 C387 0.961 . S
H403 C387 0.961 . S
H404 C388 0.931 . S
H405 C393 0.930 . S
H406 C394 0.956 . S
H407 C394 0.961 . S
H408 C394 0.961 . S
H409 C395 0.958 . S
H410 C395 0.961 . S
H411 C395 0.960 . S
C412 C413 1.391 . S
C412 C414 1.394 . S
C412 H428 0.931 . S
C413 C412 1.391 . S
C413 C417 1.376 1_554 S
C414 C412 1.394 . S
C414 C415 1.369 . S
C414 C418 1.531 . S
C415 C414 1.369 . S
C415 C416 1.410 . S
C415 C423 1.503 . S
C416 C415 1.410 . S
C416 C417 1.392 1_554 S
C416 C419 1.511 1_554 S
C417 C413 1.376 1_556 S
C417 C416 1.392 1_556 S
C417 H429 0.929 . S
C418 C414 1.531 . S
C418 H430 0.960 . S
C418 H431 0.962 . S
C418 H432 0.960 . S
C419 C416 1.511 1_556 S
C419 H433 0.961 . S
C419 H434 0.961 . S
C419 H435 0.961 1_556 S
C420 C421 1.370 1_556 S
C420 C422 1.363 . S
C420 H436 0.931 . S
C421 C420 1.370 1_554 S
C421 C425 1.408 . S
C422 C420 1.363 . S
C422 C423 1.370 1_556 S
C422 C426 1.524 . S
C423 C415 1.503 . S
C423 C422 1.370 1_554 S
C423 C424 1.403 . S
C424 C423 1.403 . S
C424 C425 1.404 . S
C424 C427 1.539 . S
C425 C421 1.408 . S
C425 C424 1.404 . S
C425 H437 0.930 . S
C426 C422 1.524 . S
C426 H438 0.956 . S
C426 H439 0.961 . S
C426 H440 0.961 . S
C427 C424 1.539 . S
C427 H441 0.958 . S
C427 H442 0.961 . S
C427 H443 0.960 . S
H428 C412 0.931 . S
H429 C417 0.929 . S
H430 C418 0.960 . S
H431 C418 0.962 . S
H432 C418 0.960 . S
H433 C419 0.961 . S
H434 C419 0.961 . S
H435 C419 0.961 1_554 S
H436 C420 0.931 . S
H437 C425 0.930 . S
H438 C426 0.956 . S
H439 C426 0.961 . S
H440 C426 0.961 . S
H441 C427 0.958 . S
H442 C427 0.961 . S
H443 C427 0.960 . S
C444 C445 1.391 . S
C444 C446 1.394 . S
C444 H460 0.931 . S
C445 C444 1.391 . S
C445 C449 1.376 1_556 S
C446 C444 1.394 . S
C446 C447 1.369 . S
C446 C450 1.531 . S
C447 C446 1.369 . S
C447 C448 1.410 1_556 S
C447 C455 1.503 . S
C448 C447 1.410 1_554 S
C448 C449 1.392 . S
C448 C451 1.511 . S
C449 C445 1.376 1_554 S
C449 C448 1.392 . S
C449 H461 0.929 . S
C450 C446 1.531 . S
C450 H462 0.960 . S
C450 H463 0.962 . S
C450 H464 0.960 . S
C451 C448 1.511 . S
C451 H465 0.961 . S
C451 H466 0.961 . S
C451 H467 0.961 . S
C452 C453 1.368 1_554 S
C452 C454 1.363 . S
C452 H468 0.931 . S
C453 C452 1.368 1_556 S
C453 C457 1.415 . S
C454 C452 1.363 . S
C454 C455 1.370 1_554 S
C454 C458 1.524 . S
C455 C447 1.503 . S
C455 C454 1.370 1_556 S
C455 C456 1.403 . S
C456 C455 1.403 . S
C456 C457 1.404 . S
C456 C459 1.539 . S
C457 C453 1.415 . S
C457 C456 1.404 . S
C457 H469 0.930 . S
C458 C454 1.524 . S
C458 H470 0.956 . S
C458 H471 0.961 . S
C458 H472 0.961 . S
C459 C456 1.539 . S
C459 H473 0.958 . S
C459 H474 0.961 . S
C459 H475 0.960 . S
H460 C444 0.931 . S
H461 C449 0.929 . S
H462 C450 0.960 . S
H463 C450 0.962 . S
H464 C450 0.960 . S
H465 C451 0.961 . S
H466 C451 0.961 . S
H467 C451 0.961 . S
H468 C452 0.931 . S
H469 C457 0.930 . S
H470 C458 0.956 . S
H471 C458 0.961 . S
H472 C458 0.961 . S
H473 C459 0.958 . S
H474 C459 0.961 . S
H475 C459 0.960 . S
C476 C477 1.391 . S
C476 C478 1.394 . S
C476 H492 0.931 . S
C477 C476 1.391 . S
C477 C481 1.376 1_556 S
C478 C476 1.394 . S
C478 C479 1.369 . S
C478 C482 1.531 . S
C479 C478 1.369 . S
C479 C480 1.410 1_556 S
C479 C487 1.503 . S
C480 C479 1.410 1_554 S
C480 C481 1.392 . S
C480 C483 1.511 . S
C481 C477 1.376 1_554 S
C481 C480 1.392 . S
C481 H493 0.929 . S
C482 C478 1.531 . S
C482 H494 0.960 . S
C482 H495 0.962 . S
C482 H496 0.960 . S
C483 C480 1.511 . S
C483 H497 0.961 . S
C483 H498 0.961 . S
C483 H499 0.961 . S
C484 C485 1.370 1_554 S
C484 C486 1.363 . S
C484 H500 0.931 . S
C485 C484 1.370 1_556 S
C485 C489 1.408 . S
C486 C484 1.363 . S
C486 C487 1.370 1_554 S
C486 C490 1.524 . S
C487 C479 1.503 . S
C487 C486 1.370 1_556 S
C487 C488 1.403 . S
C488 C487 1.403 . S
C488 C489 1.404 . S
C488 C491 1.539 . S
C489 C485 1.408 . S
C489 C488 1.404 . S
C489 H501 0.930 . S
C490 C486 1.524 . S
C490 H502 0.956 . S
C490 H503 0.961 . S
C490 H504 0.961 . S
C491 C488 1.539 . S
C491 H505 0.958 . S
C491 H506 0.961 . S
C491 H507 0.960 . S
H492 C476 0.931 . S
H493 C481 0.929 . S
H494 C482 0.960 . S
H495 C482 0.962 . S
H496 C482 0.960 . S
H497 C483 0.961 . S
H498 C483 0.961 . S
H499 C483 0.961 . S
H500 C484 0.931 . S
H501 C489 0.930 . S
H502 C490 0.956 . S
H503 C490 0.961 . S
H504 C490 0.961 . S
H505 C491 0.958 . S
H506 C491 0.961 . S
H507 C491 0.960 . S
C508 C509 1.391 1_554 S
C508 C510 1.394 . S
C508 H524 0.931 . S
C509 C508 1.391 1_556 S
C509 C513 1.376 . S
C510 C508 1.394 . S
C510 C511 1.369 1_554 S
C510 C514 1.531 . S
C511 C510 1.369 1_556 S
C511 C512 1.410 . S
C511 C519 1.503 . S
C512 C511 1.410 . S
C512 C513 1.392 . S
C512 C515 1.511 . S
C513 C509 1.376 . S
C513 C512 1.392 . S
C513 H525 0.929 . S
C514 C510 1.531 . S
C514 H526 0.960 . S
C514 H527 0.962 . S
C514 H528 0.960 . S
C515 C512 1.511 . S
C515 H529 0.961 . S
C515 H530 0.961 . S
C515 H531 0.961 . S
C516 C517 1.370 . S
C516 C518 1.363 . S
C516 H532 0.931 . S
C517 C516 1.370 . S
C517 C521 1.408 1_556 S
C518 C516 1.363 . S
C518 C519 1.370 . S
C518 C522 1.524 . S
C519 C511 1.503 . S
C519 C518 1.370 . S
C519 C520 1.403 1_556 S
C520 C519 1.403 1_554 S
C520 C521 1.404 . S
C520 C523 1.539 . S
C521 C517 1.408 1_554 S
C521 C520 1.404 . S
C521 H533 0.930 . S
C522 C518 1.524 . S
C522 H534 0.956 . S
C522 H535 0.961 . S
C522 H536 0.961 . S
C523 C520 1.539 . S
C523 H537 0.958 . S
C523 H538 0.961 . S
C523 H539 0.960 . S
H524 C508 0.931 . S
H525 C513 0.929 . S
H526 C514 0.960 . S
H527 C514 0.962 . S
H528 C514 0.960 . S
H529 C515 0.961 . S
H530 C515 0.961 . S
H531 C515 0.961 . S
H532 C516 0.931 . S
H533 C521 0.930 . S
H534 C522 0.956 . S
H535 C522 0.961 . S
H536 C522 0.961 . S
H537 C523 0.958 . S
H538 C523 0.961 . S
H539 C523 0.960 . S
C253 C74 1.481 1_455 S
C261 C63 1.480 . S
C285 C158 1.438 1_565 S
C293 C147 1.485 . S
C317 C242 1.509 . S
C325 C231 1.476 . S
C349 C67 1.559 . S
C357 C226 1.483 . S
C381 C142 0.754 . S
C389 C58 0.827 1_554 S
C413 C151 2.316 . S
C421 C224 2.376 . S
C445 C56 1.537 . S
C453 C238 1.504 1_556 S
C477 C70 0.824 1_556 S
C485 C154 0.753 . S
C509 C235 2.360 . S
C517 C140 2.318 . S
