# Generated by pormake.
# Topology svf, (7)-cn, num edge types: 1
# Building blocks:
#     Node 0, Type 0, BuildingBlock: NUHQUE_clean_sbu_2, # of connection points: 7
#     Node 1, Type 0, BuildingBlock: NUHQUE_clean_sbu_2, # of connection points: 7
#     Node 2, Type 0, BuildingBlock: NUHQUE_clean_sbu_2, # of connection points: 7
#     Node 3, Type 0, BuildingBlock: NUHQUE_clean_sbu_2, # of connection points: 7
#     Node 4, Type 0, BuildingBlock: NUHQUE_clean_sbu_2, # of connection points: 7
#     Node 5, Type 0, BuildingBlock: NUHQUE_clean_sbu_2, # of connection points: 7
#     Node 6, Type 0, BuildingBlock: NUHQUE_clean_sbu_2, # of connection points: 7
#     Node 7, Type 0, BuildingBlock: NUHQUE_clean_sbu_2, # of connection points: 7
#     Edge 8, Type (0, 0), BuildingBlock: TEMPAE_clean_linker_10, # of connection points: 2
#     Edge 9, Type (0, 0), BuildingBlock: TEMPAE_clean_linker_10, # of connection points: 2
#     Edge 10, Type (0, 0), BuildingBlock: TEMPAE_clean_linker_10, # of connection points: 2
#     Edge 11, Type (0, 0), BuildingBlock: TEMPAE_clean_linker_10, # of connection points: 2
#     Edge 12, Type (0, 0), BuildingBlock: TEMPAE_clean_linker_10, # of connection points: 2
#     Edge 13, Type (0, 0), BuildingBlock: TEMPAE_clean_linker_10, # of connection points: 2
#     Edge 14, Type (0, 0), BuildingBlock: TEMPAE_clean_linker_10, # of connection points: 2
#     Edge 15, Type (0, 0), BuildingBlock: TEMPAE_clean_linker_10, # of connection points: 2
#     Edge 16, Type (0, 0), BuildingBlock: TEMPAE_clean_linker_10, # of connection points: 2
#     Edge 17, Type (0, 0), BuildingBlock: TEMPAE_clean_linker_10, # of connection points: 2
#     Edge 18, Type (0, 0), BuildingBlock: TEMPAE_clean_linker_10, # of connection points: 2
#     Edge 19, Type (0, 0), BuildingBlock: TEMPAE_clean_linker_10, # of connection points: 2
#     Edge 20, Type (0, 0), BuildingBlock: TEMPAE_clean_linker_10, # of connection points: 2
#     Edge 21, Type (0, 0), BuildingBlock: TEMPAE_clean_linker_10, # of connection points: 2
#     Edge 22, Type (0, 0), BuildingBlock: TEMPAE_clean_linker_10, # of connection points: 2
#     Edge 23, Type (0, 0), BuildingBlock: TEMPAE_clean_linker_10, # of connection points: 2
#     Edge 24, Type (0, 0), BuildingBlock: TEMPAE_clean_linker_10, # of connection points: 2
#     Edge 25, Type (0, 0), BuildingBlock: TEMPAE_clean_linker_10, # of connection points: 2
#     Edge 26, Type (0, 0), BuildingBlock: TEMPAE_clean_linker_10, # of connection points: 2
#     Edge 27, Type (0, 0), BuildingBlock: TEMPAE_clean_linker_10, # of connection points: 2
#     Edge 28, Type (0, 0), BuildingBlock: TEMPAE_clean_linker_10, # of connection points: 2
#     Edge 29, Type (0, 0), BuildingBlock: TEMPAE_clean_linker_10, # of connection points: 2
#     Edge 30, Type (0, 0), BuildingBlock: TEMPAE_clean_linker_10, # of connection points: 2
#     Edge 31, Type (0, 0), BuildingBlock: TEMPAE_clean_linker_10, # of connection points: 2
#     Edge 32, Type (0, 0), BuildingBlock: TEMPAE_clean_linker_10, # of connection points: 2
#     Edge 33, Type (0, 0), BuildingBlock: TEMPAE_clean_linker_10, # of connection points: 2
#     Edge 34, Type (0, 0), BuildingBlock: TEMPAE_clean_linker_10, # of connection points: 2
#     Edge 35, Type (0, 0), BuildingBlock: TEMPAE_clean_linker_10, # of connection points: 2
# Relax obj value: 0.243
# Max RMSD: 0.222
# Mean RMSD: 0.216
data_MOF--net-svf--node1-NUHQUE_clean_sbu_2--edge1-TEMPAE_clean_linker_10
_symmetry_space_group_name_H-M    P1
_symmetry_Int_Tables_number       1
_symmetry_cell_setting            triclinic
loop_
_symmetry_equiv_pos_as_xyz
'x, y, z'
_cell_length_a     48.936516
_cell_length_b     48.918026
_cell_length_c     22.2228
_cell_angle_alpha  96.30501
_cell_angle_beta   90.08514
_cell_angle_gamma 89.899895
loop_
_atom_site_label
_atom_site_type_symbol
_atom_site_fract_x
_atom_site_fract_y
_atom_site_fract_z
_atom_type_partial_charge
O0 O 0.11192 0.34999 0.92499 0.0
Tb1 Tb 0.09512 0.38452 0.98293 0.0
Eu2 Eu 0.14182 0.39523 0.05306 0.0
C3 C 0.11785 0.35326 0.86878 0.0
O4 O 0.13964 0.36769 0.8586 0.0
C5 C 0.13385 0.43028 0.93658 0.0
O6 O 0.15611 0.42662 0.12317 0.0
C7 C 0.17257 0.35205 0.05445 0.0
C8 C 0.13961 0.44759 0.12985 0.0
O9 O 0.12123 0.4504 0.08786 0.0
C10 C 0.08494 0.37835 0.11473 0.0
C11 C 0.19024 0.32723 0.05533 0.0
C12 C 0.19738 0.31224 1.00005 0.0
C13 C 0.21592 0.29026 0.99819 0.0
C14 C 0.22633 0.28224 0.05247 0.0
C15 C 0.21882 0.29601 0.10904 0.0
C16 C 0.2012 0.31915 0.10993 0.0
O17 O 0.11127 0.41586 0.92842 0.0
O18 O 0.15078 0.42488 0.98038 0.0
O19 O 0.05318 0.3943 0.96317 0.0
O20 O 0.07868 0.42202 0.02448 0.0
C21 C 0.05479 0.4178 0.9987 0.0
O22 O 0.10515 0.39621 0.12002 0.0
O23 O 0.08224 0.36418 0.06155 0.0
O24 O 0.17816 0.3755 0.0868 0.0
O25 O 0.15056 0.35224 1.01998 0.0
H26 H 0.18965 0.31863 0.958 0.0
H27 H 0.24074 0.26529 0.05038 0.0
H28 H 0.1956 0.33048 0.15278 0.0
O29 O 0.6229 0.16596 0.17085 0.0
Tb30 Tb 0.59671 0.13493 0.12252 0.0
Eu31 Eu 0.64256 0.12234 0.04663 0.0
C32 C 0.61613 0.17956 0.22271 0.0
O33 O 0.63216 0.19914 0.2476 0.0
C34 C 0.63351 0.08876 0.16826 0.0
O35 O 0.65802 0.09654 0.96652 0.0
C36 C 0.67239 0.16657 0.05135 0.0
C37 C 0.6564 0.10569 0.91341 0.0
O38 O 0.6506 0.13163 0.9094 0.0
C39 C 0.5844 0.14007 0.98996 0.0
C40 C 0.68935 0.19161 0.04634 0.0
C41 C 0.69638 0.20805 0.09995 0.0
C42 C 0.71389 0.2307 0.09891 0.0
C43 C 0.72342 0.23787 0.0432 0.0
C44 C 0.71626 0.22242 0.98829 0.0
C45 C 0.69961 0.19873 0.99026 0.0
O46 O 0.61334 0.10605 0.18173 0.0
O47 O 0.64838 0.09122 0.11897 0.0
O48 O 0.55695 0.11937 0.14047 0.0
O49 O 0.58638 0.09579 0.07854 0.0
C50 C 0.56198 0.09645 0.10398 0.0
O51 O 0.60471 0.12216 0.98324 0.0
O52 O 0.58186 0.15425 0.04358 0.0
O53 O 0.68186 0.14188 0.03342 0.0
O54 O 0.64657 0.16737 0.0682 0.0
H55 H 0.68921 0.20243 0.14309 0.0
H56 H 0.73685 0.25547 0.0427 0.0
H57 H 0.69434 0.18624 0.94857 0.0
O58 O 0.84711 0.61846 0.16775 0.0
Tb59 Tb 0.88199 0.6021 0.11518 0.0
Eu60 Eu 0.89844 0.64514 0.0376 0.0
C61 C 0.84031 0.60923 0.21884 0.0
O62 O 0.82137 0.62199 0.25306 0.0
C63 C 0.92933 0.63986 0.167 0.0
O64 O 0.92922 0.65542 0.97044 0.0
C65 C 0.85965 0.68203 0.05151 0.0
C66 C 0.94614 0.63565 0.95056 0.0
O67 O 0.94456 0.61183 0.97252 0.0
C68 C 0.8729 0.58665 0.97697 0.0
C69 C 0.83289 0.69573 0.04011 0.0
C70 C 0.81593 0.70222 0.09064 0.0
C71 C 0.79214 0.71815 0.0875 0.0
C72 C 0.78485 0.72732 0.03177 0.0
C73 C 0.80097 0.72099 0.97963 0.0
C74 C 0.82526 0.70524 0.9841 0.0
O75 O 0.90656 0.62786 0.1807 0.0
O76 O 0.93212 0.64731 0.11182 0.0
O77 O 0.89568 0.5637 0.14477 0.0
O78 O 0.92053 0.58552 0.08396 0.0
C79 C 0.91865 0.56414 0.11428 0.0
O80 O 0.88858 0.60786 0.96963 0.0
O81 O 0.86259 0.58414 0.03085 0.0
O82 O 0.88056 0.68384 1.01502 0.0
O83 O 0.86023 0.65999 0.08095 0.0
H84 H 0.82215 0.69598 0.13398 0.0
H85 H 0.7665 0.73956 0.02886 0.0
H86 H 0.83828 0.70093 0.94482 0.0
O87 O 0.34644 0.90309 0.93532 0.0
Tb88 Tb 0.38275 0.91774 0.98524 0.0
Eu89 Eu 0.39889 0.87626 0.05787 0.0
C90 C 0.33696 0.91445 0.88878 0.0
O91 O 0.31719 0.90226 0.8561 0.0
C92 C 0.42843 0.87975 0.92592 0.0
O93 O 0.42983 0.8591 0.11513 0.0
C94 C 0.35622 0.84458 0.05201 0.0
C95 C 0.42859 0.86396 0.17409 0.0
O96 O 0.40608 0.87361 0.20068 0.0
C97 C 0.37613 0.93413 0.12144 0.0
C98 C 0.3297 0.83044 0.06083 0.0
C99 C 0.31267 0.82607 1.01014 0.0
C100 C 0.28998 0.80845 1.00879 0.0
C101 C 0.28257 0.79763 0.06271 0.0
C102 C 0.29775 0.80349 0.11664 0.0
C103 C 0.32215 0.81915 0.11467 0.0
O104 O 0.4066 0.89403 0.91432 0.0
O105 O 0.43067 0.8709 0.97995 0.0
O106 O 0.40217 0.95537 0.96613 0.0
O107 O 0.42178 0.92767 0.02461 0.0
C108 C 0.42364 0.95069 0.99966 0.0
O109 O 0.39502 0.91519 0.12459 0.0
O110 O 0.36272 0.93452 0.07007 0.0
O111 O 0.37733 0.84101 0.08688 0.0
O112 O 0.35848 0.86542 1.01924 0.0
H113 H 0.31801 0.83583 0.97036 0.0
H114 H 0.26538 0.78375 0.06281 0.0
H115 H 0.33489 0.82276 0.15463 0.0
O116 O 0.11428 0.67547 0.66192 0.0
Tb117 Tb 0.09835 0.63591 0.62302 0.0
Eu118 Eu 0.14214 0.6258 0.54635 0.0
C119 C 0.10568 0.68763 0.71379 0.0
O120 O 0.11827 0.70968 0.73895 0.0
C121 C 0.13724 0.59403 0.67119 0.0
O122 O 0.16408 0.59425 0.48794 0.0
C123 C 0.1728 0.66914 0.54607 0.0
C124 C 0.16053 0.59464 0.43 0.0
O125 O 0.15314 0.61769 0.40922 0.0
C126 C 0.08281 0.6415 0.49105 0.0
C127 C 0.19038 0.69394 0.5453 0.0
C128 C 0.19746 0.70822 0.60081 0.0
C129 C 0.21509 0.73067 0.60389 0.0
C130 C 0.2257 0.73942 0.55059 0.0
C131 C 0.21849 0.72631 0.49268 0.0
C132 C 0.20072 0.70307 0.49105 0.0
O133 O 0.12033 0.61415 0.68947 0.0
O134 O 0.14759 0.59339 0.61578 0.0
O135 O 0.06181 0.61501 0.64432 0.0
O136 O 0.09114 0.59609 0.57642 0.0
C137 C 0.06788 0.59345 0.60518 0.0
O138 O 0.10536 0.62682 0.48089 0.0
O139 O 0.07837 0.65285 0.5467 0.0
O140 O 0.17525 0.64775 0.50565 0.0
O141 O 0.15477 0.66634 0.58899 0.0
H142 H 0.18972 0.70145 0.64244 0.0
H143 H 0.24042 0.75597 0.55545 0.0
H144 H 0.19451 0.69222 0.4482 0.0
O145 O 0.35878 0.08562 0.67734 0.0
Tb146 Tb 0.38649 0.10093 0.613 0.0
Eu147 Eu 0.40303 0.14534 0.53248 0.0
C148 C 0.36043 0.09359 0.73567 0.0
O149 O 0.37361 0.11615 0.75499 0.0
C150 C 0.43004 0.14286 0.66563 0.0
O151 O 0.43515 0.16257 0.47734 0.0
C152 C 0.35972 0.17634 0.53694 0.0
C153 C 0.43573 0.15611 0.41856 0.0
O154 O 0.41506 0.14283 0.39135 0.0
C155 C 0.37738 0.08849 0.47506 0.0
C156 C 0.33482 0.19422 0.53694 0.0
C157 C 0.3209 0.20168 0.59153 0.0
C158 C 0.29753 0.21859 0.59355 0.0
C159 C 0.28798 0.22783 0.53948 0.0
C160 C 0.30089 0.22043 0.48326 0.0
C161 C 0.32467 0.20364 0.48288 0.0
O162 O 0.40587 0.13276 0.6769 0.0
O163 O 0.43489 0.14832 0.60978 0.0
O164 O 0.40644 0.06226 0.6241 0.0
O165 O 0.42671 0.09176 0.57527 0.0
C166 C 0.42834 0.06776 0.59473 0.0
O167 O 0.39728 0.10596 0.46945 0.0
O168 O 0.3644 0.08951 0.52739 0.0
O169 O 0.37957 0.1782 0.49784 0.0
O170 O 0.36394 0.15829 0.57614 0.0
H171 H 0.3288 0.19487 0.63295 0.0
H172 H 0.27025 0.24108 0.54162 0.0
H173 H 0.335 0.19732 0.44059 0.0
O174 O 0.85678 0.43236 0.42967 0.0
Tb175 Tb 0.88586 0.41606 0.48941 0.0
Eu176 Eu 0.90191 0.37204 0.56635 0.0
C177 C 0.86071 0.42869 0.37092 0.0
O178 O 0.87491 0.40743 0.34727 0.0
C179 C 0.92882 0.37454 0.43386 0.0
O180 O 0.93319 0.35238 0.619 0.0
C181 C 0.8575 0.34271 0.56159 0.0
C182 C 0.93496 0.35922 0.67746 0.0
O183 O 0.91462 0.37231 0.7065 0.0
C184 C 0.8791 0.42941 0.62697 0.0
C185 C 0.83197 0.32572 0.5608 0.0
C186 C 0.8172 0.32055 0.50662 0.0
C187 C 0.79271 0.30556 0.50427 0.0
C188 C 0.78245 0.29663 0.55796 0.0
C189 C 0.79714 0.29973 0.61338 0.0
C190 C 0.82224 0.3147 0.61347 0.0
O191 O 0.90449 0.38454 0.42324 0.0
O192 O 0.93386 0.36906 0.48957 0.0
O193 O 0.90672 0.45352 0.47248 0.0
O194 O 0.92581 0.42599 0.52815 0.0
C195 C 0.92823 0.44892 0.50427 0.0
O196 O 0.89905 0.41167 0.62985 0.0
O197 O 0.86467 0.42789 0.5764 0.0
O198 O 0.87713 0.34016 0.60102 0.0
O199 O 0.86245 0.36072 0.52267 0.0
H200 H 0.82526 0.32765 0.4657 0.0
H201 H 0.76253 0.28737 0.55491 0.0
H202 H 0.83443 0.31823 0.65404 0.0
O203 O 0.5954 0.84929 0.42824 0.0
Tb204 Tb 0.60455 0.88484 0.49131 0.0
Eu205 Eu 0.64722 0.89996 0.57107 0.0
C206 C 0.60532 0.84753 0.37315 0.0
O207 O 0.63048 0.85567 0.36541 0.0
C208 C 0.64082 0.9299 0.44815 0.0
O209 O 0.67041 0.9266 0.6393 0.0
C210 C 0.67816 0.85688 0.54533 0.0
C211 C 0.66552 0.92496 0.6965 0.0
O212 O 0.65565 0.90209 0.71344 0.0
C213 C 0.59109 0.8777 0.62439 0.0
C214 C 0.69155 0.82973 0.55096 0.0
C215 C 0.69728 0.81329 0.49672 0.0
C216 C 0.71432 0.79019 0.4956 0.0
C217 C 0.72481 0.78258 0.55032 0.0
C218 C 0.71935 0.79817 0.60646 0.0
C219 C 0.70255 0.82202 0.60612 0.0
O220 O 0.63065 0.90561 0.42924 0.0
O221 O 0.64677 0.93435 0.5064 0.0
O222 O 0.56761 0.90663 0.47129 0.0
O223 O 0.59454 0.92355 0.54287 0.0
C224 C 0.5722 0.92709 0.51301 0.0
O225 O 0.6113 0.89529 0.6361 0.0
O226 O 0.58968 0.86479 0.56915 0.0
O227 O 0.68514 0.87821 0.58316 0.0
O228 O 0.65387 0.85904 0.52013 0.0
H229 H 0.69 0.81966 0.45426 0.0
H230 H 0.73745 0.76431 0.54866 0.0
H231 H 0.69896 0.83508 0.64795 0.0
C232 C 0.00938 0.43082 0.03966 0.0
C233 C 0.03312 0.43781 1.01041 0.0
C234 C 0.99107 0.45137 0.06256 0.0
C235 C 0.99663 0.47911 0.05427 0.0
C236 C 0.02065 0.48608 0.02413 0.0
C237 C 0.03888 0.46523 1.00345 0.0
C238 C 0.96595 0.44354 0.09605 0.0
C239 C 0.02762 0.51544 1.01496 0.0
C240 C 0.93653 0.5263 0.0456 0.0
C241 C 0.93701 0.54099 0.10298 0.0
C242 C 0.95579 0.50582 0.02961 0.0
C243 C 0.97607 0.5004 0.07208 0.0
C244 C 0.9768 0.5155 0.13023 0.0
C245 C 0.95688 0.53571 0.14534 0.0
C246 C 0.955 0.49071 0.96659 0.0
C247 C 0.99898 0.51092 0.17535 0.0
H248 H 1.00583 0.40957 0.04708 0.0
H249 H 0.05792 0.47039 0.98255 0.0
H250 H 0.96538 0.45514 0.14186 0.0
H251 H 0.94733 0.44918 0.07163 0.0
H252 H 0.96528 0.4212 0.1009 0.0
H253 H 0.04289 0.51638 0.9783 0.0
H254 H 0.00926 0.52722 1.00377 0.0
H255 H 0.0365 0.52582 0.05741 0.0
H256 H 0.92131 0.53122 1.01287 0.0
H257 H 0.95736 0.54796 0.18909 0.0
H258 H 0.95429 0.46818 0.96888 0.0
H259 H 0.97387 0.49518 0.94179 0.0
H260 H 0.93706 0.49672 0.94037 0.0
H261 H 0.99928 0.48905 0.18433 0.0
H262 H 0.99627 0.52411 0.21893 0.0
H263 H 0.01921 0.51546 0.15631 0.0
C264 C 0.46082 0.96932 0.06638 0.0
C265 C 0.44636 0.96957 1.01209 0.0
C266 C 0.48122 0.98866 0.08212 0.0
C267 C 0.48758 1.00801 0.04153 0.0
C268 C 0.47423 1.00713 0.98479 0.0
C269 C 0.45332 0.98802 0.97106 0.0
C270 C 0.49503 0.98916 0.14313 0.0
C271 C 0.48148 0.02683 0.93951 0.0
C272 C 0.51525 0.07704 0.10503 0.0
C273 C 0.54297 0.07364 0.09166 0.0
C274 C 0.49694 0.05551 0.08956 0.0
C275 C 0.50686 0.03032 0.06007 0.0
C276 C 0.53498 0.02667 0.04753 0.0
C277 C 0.55277 0.04848 0.06365 0.0
C278 C 0.46695 0.05983 0.1037 0.0
C279 C 0.54621 0.99994 1.0166 0.0
H280 H 0.45548 0.95466 0.09765 0.0
H281 H 0.44249 0.98744 0.9284 0.0
H282 H 0.51756 0.98889 0.13789 0.0
H283 H 0.48961 1.00847 0.17161 0.0
H284 H 0.48892 0.97148 0.1675 0.0
H285 H 0.47143 0.02128 0.89501 0.0
H286 H 0.4751 0.04796 0.95721 0.0
H287 H 0.50392 0.02718 0.93251 0.0
H288 H 0.50781 0.09665 0.12602 0.0
H289 H 0.57438 0.04587 0.05382 0.0
H290 H 0.45954 0.04378 0.1313 0.0
H291 H 0.45496 0.05785 0.06103 0.0
H292 H 0.46278 0.08036 0.12862 0.0
H293 H 0.54291 0.9832 0.04566 0.0
H294 H 0.56842 1.00118 1.00696 0.0
H295 H 0.53526 0.9941 0.97336 0.0
C296 C 0.05578 0.55017 0.54283 0.0
C297 C 0.05008 0.56966 0.5922 0.0
C298 C 0.03767 0.52858 0.52646 0.0
C299 C 0.01381 0.52639 0.5613 0.0
C300 C 0.00857 0.54539 0.61272 0.0
C301 C 0.02679 0.56704 0.62734 0.0
C302 C 0.04369 0.50861 0.47122 0.0
C303 C 0.98329 0.54342 0.65099 0.0
C304 C 0.95101 0.49263 0.48968 0.0
C305 C 0.95127 0.46761 0.51452 0.0
C306 C 0.9719 0.51171 0.50306 0.0
C307 C 0.99333 0.50533 0.54201 0.0
C308 C 0.99422 0.47958 0.56523 0.0
C309 C 0.973 0.46091 0.55116 0.0
C310 C 0.97058 0.53899 0.47713 0.0
C311 C 0.01701 0.47217 0.60643 0.0
H312 H 0.07396 0.55224 0.51585 0.0
H313 H 0.02256 0.58213 0.66561 0.0
H314 H 0.0474 0.48782 0.48511 0.0
H315 H 0.02592 0.50703 0.43997 0.0
H316 H 0.06183 0.51479 0.44601 0.0
H317 H 0.98324 0.55885 0.6916 0.0
H318 H 0.96482 0.54666 0.62361 0.0
H319 H 0.9817 0.5226 0.66606 0.0
H320 H 0.93417 0.49757 0.46097 0.0
H321 H 0.97312 0.44135 0.56989 0.0
H322 H 0.98986 0.54267 0.4531 0.0
H323 H 0.96827 0.5559 0.51437 0.0
H324 H 0.95325 0.54004 0.44507 0.0
H325 H 0.0371 0.47463 0.58464 0.0
H326 H 0.0153 0.45071 0.61804 0.0
H327 H 0.01671 0.48633 0.649 0.0
C328 C 0.54982 0.96153 0.58535 0.0
C329 C 0.55471 0.95091 0.52542 0.0
C330 C 0.5314 0.98318 0.59832 0.0
C331 C 0.51841 0.9945 0.54983 0.0
C332 C 0.52496 0.98505 0.48912 0.0
C333 C 0.54294 0.96296 0.47762 0.0
C334 C 0.52461 0.99268 0.66358 0.0
C335 C 0.51197 0.99729 0.43646 0.0
C336 C 0.447 0.02099 0.57804 0.0
C337 C 0.45141 0.04931 0.58412 0.0
C338 C 0.46882 1.00287 0.56621 0.0
C339 C 0.49551 0.01363 0.56231 0.0
C340 C 0.50007 0.04232 0.56956 0.0
C341 C 0.4777 0.05999 0.57961 0.0
C342 C 0.46327 0.97231 0.55728 0.0
C343 C 0.52844 0.05424 0.56709 0.0
H344 H 0.55941 0.95209 0.62199 0.0
H345 H 0.5478 0.95508 0.43144 0.0
H346 H 0.52483 0.01546 0.67181 0.0
H347 H 0.50369 0.98578 0.67378 0.0
H348 H 0.53908 0.98429 0.69551 0.0
H349 H 0.52173 0.98974 0.39264 0.0
H350 H 0.48996 0.99185 0.43384 0.0
H351 H 0.51335 0.02006 0.44302 0.0
H352 H 0.42642 0.01307 0.58113 0.0
H353 H 0.48076 0.08208 0.585 0.0
H354 H 0.47475 0.96188 0.59133 0.0
H355 H 0.47045 0.96353 0.51187 0.0
H356 H 0.44121 0.96749 0.56126 0.0
H357 H 0.54121 0.04721 0.60375 0.0
H358 H 0.52827 0.07709 0.57218 0.0
H359 H 0.5384 0.04679 0.52352 0.0
C360 C 0.14258 0.54759 0.42785 0.0
C361 C 0.1525 0.56893 0.39645 0.0
C362 C 0.13278 0.52347 0.39662 0.0
C363 C 0.13382 0.52066 0.33305 0.0
C364 C 0.14235 0.54276 0.30109 0.0
C365 C 0.15157 0.56682 0.33362 0.0
C366 C 0.12261 0.50089 0.43206 0.0
C367 C 0.14316 0.54063 0.23265 0.0
C368 C 0.1581 0.4632 0.23019 0.0
C369 C 0.13613 0.46165 0.18988 0.0
C370 C 0.15593 0.47911 0.28565 0.0
C371 C 0.13133 0.49365 0.29924 0.0
C372 C 0.1077 0.48793 0.2639 0.0
C373 C 0.11051 0.47224 0.20818 0.0
C374 C 0.18117 0.48383 0.3246 0.0
C375 C 0.08061 0.50143 0.28057 0.0
H376 H 0.14213 0.54972 0.47694 0.0
H377 H 0.15849 0.58381 0.31004 0.0
H378 H 0.10841 0.48666 0.40527 0.0
H379 H 0.14027 0.48882 0.44607 0.0
H380 H 0.11209 0.50972 0.47405 0.0
H381 H 0.14943 0.56021 0.21571 0.0
H382 H 0.15783 0.52439 0.21496 0.0
H383 H 0.12274 0.53495 0.21359 0.0
H384 H 0.1775 0.45369 0.21669 0.0
H385 H 0.09299 0.46929 0.17821 0.0
H386 H 0.17599 0.48388 0.37312 0.0
H387 H 0.19005 0.5042 0.31835 0.0
H388 H 0.19701 0.46787 0.31263 0.0
H389 H 0.07827 0.50554 0.33041 0.0
H390 H 0.06337 0.48838 0.26184 0.0
H391 H 0.07936 0.52135 0.26117 0.0
C392 C 0.46372 0.15071 0.32422 0.0
C393 C 0.46145 0.1594 0.38622 0.0
C394 C 0.48888 0.15187 0.29468 0.0
C395 C 0.51204 0.16194 0.32818 0.0
C396 C 0.50992 0.17039 0.39084 0.0
C397 C 0.48459 0.16919 0.41902 0.0
C398 C 0.4908 0.14223 0.22795 0.0
C399 C 0.53437 0.18086 0.42811 0.0
C400 C 0.58425 0.14992 0.27223 0.0
C401 C 0.58967 0.17484 0.24944 0.0
C402 C 0.55842 0.14468 0.29522 0.0
C403 C 0.53824 0.1655 0.29749 0.0
C404 C 0.54391 0.19092 0.27531 0.0
C405 C 0.56969 0.19525 0.25119 0.0
C406 C 0.55295 0.11723 0.31804 0.0
C407 C 0.52294 0.21372 0.27825 0.0
H408 H 0.44594 0.14279 0.29893 0.0
H409 H 0.48308 0.17561 0.46716 0.0
H410 H 0.49739 0.15945 0.20279 0.0
H411 H 0.50651 0.12587 0.22036 0.0
H412 H 0.47106 0.13409 0.20882 0.0
H413 H 0.52932 0.1858 0.47682 0.0
H414 H 0.55092 0.16526 0.42407 0.0
H415 H 0.5425 0.19966 0.41081 0.0
H416 H 0.60036 0.13483 0.27345 0.0
H417 H 0.57427 0.21457 0.23368 0.0
H418 H 0.5342 0.10785 0.29664 0.0
H419 H 0.54938 0.12013 0.3676 0.0
H420 H 0.57021 0.10259 0.30853 0.0
H421 H 0.50386 0.20615 0.25512 0.0
H422 H 0.53034 0.23186 0.25703 0.0
H423 H 0.51772 0.22042 0.32619 0.0
C424 C 0.84033 0.47368 0.35603 0.0
C425 C 0.85983 0.4534 0.33934 0.0
C426 C 0.8419 0.49937 0.33435 0.0
C427 C 0.86374 0.5049 0.29568 0.0
C428 C 0.88374 0.48458 0.27917 0.0
C429 C 0.88135 0.45885 0.30075 0.0
C430 C 0.82026 0.52066 0.3532 0.0
C431 C 0.90804 0.49028 0.24057 0.0
C432 C 0.84231 0.55897 0.19823 0.0
C433 C 0.85078 0.58283 0.23352 0.0
C434 C 0.8488 0.53307 0.21517 0.0
C435 C 0.86384 0.53124 0.26899 0.0
C436 C 0.87437 0.55532 0.30215 0.0
C437 C 0.86727 0.58108 0.28445 0.0
C438 C 0.83774 0.50778 0.17803 0.0
C439 C 0.89149 0.55408 0.35838 0.0
H440 H 0.82409 0.46955 0.38696 0.0
H441 H 0.89707 0.44347 0.28973 0.0
H442 H 0.82988 0.53915 0.37781 0.0
H443 H 0.80999 0.5272 0.31257 0.0
H444 H 0.80451 0.51289 0.38296 0.0
H445 H 0.92082 0.47167 0.22879 0.0
H446 H 0.90129 0.49824 0.19812 0.0
H447 H 0.92097 0.50641 0.26537 0.0
H448 H 0.82972 0.56063 0.15859 0.0
H449 H 0.87397 0.59976 0.31116 0.0
H450 H 0.82127 0.49867 0.20368 0.0
H451 H 0.85399 0.49202 0.16923 0.0
H452 H 0.8293 0.51255 0.13393 0.0
H453 H 0.87784 0.55314 0.39791 0.0
H454 H 0.90458 0.57263 0.36745 0.0
H455 H 0.90472 0.53553 0.35462 0.0
C456 C 0.57273 0.8329 0.29106 0.0
C457 C 0.58516 0.85392 0.32875 0.0
C458 C 0.54791 0.8378 0.26274 0.0
C459 C 0.53485 0.86362 0.27634 0.0
C460 C 0.5483 0.88535 0.31144 0.0
C461 C 0.57393 0.8804 0.33539 0.0
C462 C 0.53499 0.815 0.22095 0.0
C463 C 0.53506 0.91301 0.32903 0.0
C464 C 0.47631 0.87852 0.17651 0.0
C465 C 0.45458 0.86685 0.20563 0.0
C466 C 0.50251 0.87883 0.20066 0.0
C467 C 0.5068 0.8673 0.25528 0.0
C468 C 0.48447 0.85767 0.28766 0.0
C469 C 0.45831 0.8575 0.26209 0.0
C470 C 0.52565 0.89062 0.16673 0.0
C471 C 0.48841 0.84684 0.3481 0.0
H472 H 0.58168 0.81249 0.28609 0.0
H473 H 0.58411 0.89667 0.36387 0.0
H474 H 0.51698 0.80682 0.24331 0.0
H475 H 0.52771 0.82302 0.17889 0.0
H476 H 0.54947 0.7978 0.20851 0.0
H477 H 0.55046 0.92969 0.32972 0.0
H478 H 0.51806 0.91765 0.29873 0.0
H479 H 0.52668 0.91331 0.3755 0.0
H480 H 0.47291 0.88687 0.13385 0.0
H481 H 0.44114 0.84911 0.28477 0.0
H482 H 0.54152 0.87465 0.15543 0.0
H483 H 0.53541 0.90782 0.19563 0.0
H484 H 0.51866 0.89846 0.12421 0.0
H485 H 0.49971 0.82705 0.34175 0.0
H486 H 0.46864 0.84336 0.37056 0.0
H487 H 0.50082 0.86149 0.37851 0.0
C488 C 0.85082 0.46554 0.69276 0.0
C489 C 0.87602 0.45275 0.67741 0.0
C490 C 0.84852 0.48697 0.74141 0.0
C491 C 0.87205 0.49681 0.77491 0.0
C492 C 0.8976 0.48437 0.75826 0.0
C493 C 0.89914 0.46244 0.71108 0.0
C494 C 0.82076 0.49904 0.75733 0.0
C495 C 0.92355 0.49399 0.79063 0.0
C496 C 0.87344 0.56936 0.86459 0.0
C497 C 0.86968 0.564 0.92502 0.0
C498 C 0.8734 0.54803 0.81576 0.0
C499 C 0.87016 0.52011 0.8267 0.0
C500 C 0.86635 0.51458 0.8877 0.0
C501 C 0.86584 0.5364 0.93558 0.0
C502 C 0.87769 0.55538 0.75229 0.0
C503 C 0.86364 0.48539 0.90276 0.0
H504 H 0.83275 0.45838 0.66759 0.0
H505 H 0.91884 0.4531 0.69974 0.0
H506 H 0.81597 0.49672 0.80531 0.0
H507 H 0.82079 0.52139 0.75266 0.0
H508 H 0.80434 0.48906 0.7282 0.0
H509 H 0.9421 0.48541 0.7667 0.0
H510 H 0.92492 0.51677 0.79552 0.0
H511 H 0.92344 0.48736 0.83671 0.0
H512 H 0.87672 0.5904 0.85535 0.0
H513 H 0.86355 0.53167 0.98183 0.0
H514 H 0.86103 0.54664 0.72222 0.0
H515 H 0.89716 0.54627 0.73399 0.0
H516 H 0.87839 0.57797 0.75044 0.0
H517 H 0.84663 0.47495 0.8764 0.0
H518 H 0.85989 0.48433 0.95174 0.0
H519 H 0.88263 0.4738 0.88975 0.0
C520 C 0.5447 0.85934 0.65612 0.0
C521 C 0.56832 0.87523 0.67063 0.0
C522 C 0.52231 0.85882 0.69699 0.0
C523 C 0.52292 0.87458 0.75483 0.0
C524 C 0.54685 0.89041 0.77 0.0
C525 C 0.56895 0.89054 0.72829 0.0
C526 C 0.49762 0.84164 0.67762 0.0
C527 C 0.549 0.90774 0.83029 0.0
C528 C 0.45409 0.89502 0.83525 0.0
C529 C 0.45196 0.87692 0.88036 0.0
C530 C 0.47681 0.89463 0.79522 0.0
C531 C 0.49834 0.87522 0.79826 0.0
C532 C 0.49617 0.85662 0.84315 0.0
C533 C 0.47347 0.85791 0.8837 0.0
C534 C 0.47797 0.9155 0.75008 0.0
C535 C 0.518 0.83525 0.84851 0.0
H536 H 0.54341 0.84757 0.61197 0.0
H537 H 0.58669 0.90316 0.74073 0.0
H538 H 0.49315 0.82723 0.71154 0.0
H539 H 0.47949 0.85514 0.67538 0.0
H540 H 0.50046 0.82962 0.63268 0.0
H541 H 0.56861 0.91916 0.83554 0.0
H542 H 0.53191 0.92275 0.83547 0.0
H543 H 0.54722 0.89448 0.86752 0.0
H544 H 0.43819 0.91025 0.83218 0.0
H545 H 0.47256 0.84388 0.91813 0.0
H546 H 0.47889 0.90487 0.70339 0.0
H547 H 0.49681 0.92804 0.75732 0.0
H548 H 0.46003 0.92954 0.75355 0.0
H549 H 0.5201 0.82204 0.80485 0.0
H550 H 0.51345 0.82197 0.8847 0.0
H551 H 0.538 0.84541 0.85838 0.0
C552 C 0.11854 0.47646 0.90471 0.0
C553 C 0.13776 0.45481 0.8998 0.0
C554 C 0.11992 0.49895 0.86898 0.0
C555 C 0.14064 0.50014 0.82432 0.0
C556 C 0.16017 0.47822 0.81894 0.0
C557 C 0.15869 0.45624 0.85665 0.0
C558 C 0.09853 0.52122 0.87848 0.0
C559 C 0.18249 0.47768 0.77219 0.0
C560 C 0.12662 0.54453 0.69091 0.0
C561 C 0.14025 0.56955 0.70849 0.0
C562 C 0.12674 0.52213 0.72725 0.0
C563 C 0.14137 0.52385 0.78312 0.0
C564 C 0.15562 0.54897 0.80045 0.0
C565 C 0.15453 0.57136 0.76396 0.0
C566 C 0.11046 0.49671 0.7063 0.0
C567 C 0.17171 0.55246 0.85864 0.0
H568 H 0.10213 0.47586 0.93719 0.0
H569 H 0.17354 0.4397 0.85099 0.0
H570 H 0.10782 0.54188 0.8783 0.0
H571 H 0.08348 0.51851 0.84091 0.0
H572 H 0.08742 0.52056 0.92184 0.0
H573 H 0.19649 0.45987 0.77378 0.0
H574 H 0.17331 0.47664 0.7263 0.0
H575 H 0.19458 0.49693 0.77917 0.0
H576 H 0.115 0.54272 0.64909 0.0
H577 H 0.16494 0.59042 0.77907 0.0
H578 H 0.09418 0.4938 0.73972 0.0
H579 H 0.12384 0.47829 0.70356 0.0
H580 H 0.10077 0.49789 0.6614 0.0
H581 H 0.15766 0.55174 0.89759 0.0
H582 H 0.18308 0.5722 0.86454 0.0
H583 H 0.18647 0.53527 0.85971 0.0
C584 C 0.4475 0.14056 0.77443 0.0
C585 C 0.4528 0.14453 0.71356 0.0
C586 C 0.46876 0.13996 0.81838 0.0
C587 C 0.49668 0.1431 0.80229 0.0
C588 C 0.50217 0.1469 0.74077 0.0
C589 C 0.48049 0.14768 0.69788 0.0
C590 C 0.46126 0.13554 0.88237 0.0
C591 C 0.53121 0.14969 0.71972 0.0
C592 C 0.54899 0.16583 0.93127 0.0
C593 C 0.56268 0.14126 0.94059 0.0
C594 C 0.52837 0.1668 0.88594 0.0
C595 C 0.51988 0.14246 0.8495 0.0
C596 C 0.53353 0.11753 0.8592 0.0
C597 C 0.55474 0.11733 0.90335 0.0
C598 C 0.51563 0.19413 0.87688 0.0
C599 C 0.52522 0.09067 0.82409 0.0
H600 H 0.42653 0.13769 0.78796 0.0
H601 H 0.48541 0.15017 0.65127 0.0
H602 H 0.47129 0.11659 0.89486 0.0
H603 H 0.46882 0.15295 0.91423 0.0
H604 H 0.43884 0.13363 0.88848 0.0
H605 H 0.53237 0.15332 0.67131 0.0
H606 H 0.54143 0.16695 0.74755 0.0
H607 H 0.54282 0.13069 0.7259 0.0
H608 H 0.55471 0.18456 0.95899 0.0
H609 H 0.5646 0.09804 0.91002 0.0
H610 H 0.49343 0.19364 0.88664 0.0
H611 H 0.5179 0.19814 0.82894 0.0
H612 H 0.52502 0.21141 0.90636 0.0
H613 H 0.50451 0.08494 0.83858 0.0
H614 H 0.53954 0.07368 0.83137 0.0
H615 H 0.52417 0.09273 0.77493 0.0
C616 C 0.67006 0.96091 0.78282 0.0
C617 C 0.65719 0.95077 0.72922 0.0
C618 C 0.66526 0.98801 0.80738 0.0
C619 C 0.64747 1.00477 0.77661 0.0
C620 C 0.63314 0.99386 0.72446 0.0
C621 C 0.63808 0.96674 0.70152 0.0
C622 C 0.68013 0.99906 0.86453 0.0
C623 C 0.61406 0.01115 0.69064 0.0
C624 C 0.627 0.06808 0.87424 0.0
C625 C 0.64912 0.08512 0.86441 0.0
C626 C 0.62479 0.04219 0.84212 0.0
C627 C 0.64481 0.03396 0.7983 0.0
C628 C 0.66492 0.05269 0.78235 0.0
C629 C 0.66712 0.0783 0.81668 0.0
C630 C 0.60326 0.02264 0.86068 0.0
C631 C 0.68574 0.04462 0.73356 0.0
H632 H 0.6847 0.94818 0.80366 0.0
H633 H 0.62797 0.95834 0.66007 0.0
H634 H 0.695 0.01498 0.85418 0.0
H635 H 0.66547 1.00895 0.89825 0.0
H636 H 0.69138 0.98268 0.88523 0.0
H637 H 0.60104 0.99831 0.65768 0.0
H638 H 0.60061 0.02412 0.72219 0.0
H639 H 0.62632 0.02518 0.66544 0.0
H640 H 0.61311 0.07383 0.91151 0.0
H641 H 0.68411 0.0918 0.80965 0.0
H642 H 0.61297 1.00763 0.88808 0.0
H643 H 0.59383 0.01081 0.82057 0.0
H644 H 0.58686 0.03359 0.88831 0.0
H645 H 0.70085 0.0303 0.75034 0.0
H646 H 0.69688 0.06277 0.72015 0.0
H647 H 0.67573 0.03376 0.69293 0.0
C648 C 0.05866 0.66955 0.70971 0.0
C649 C 0.08226 0.67657 0.74337 0.0
C650 C 0.03568 0.65944 0.73723 0.0
C651 C 0.03646 0.65693 0.79991 0.0
C652 C 0.06056 0.66342 0.8338 0.0
C653 C 0.08325 0.67341 0.805 0.0
C654 C 0.01048 0.65201 0.69967 0.0
C655 C 0.06201 0.66067 0.90076 0.0
C656 C 0.97233 0.66713 0.89244 0.0
C657 C 0.96742 0.64043 0.90665 0.0
C658 C 0.99422 0.67253 0.8554 0.0
C659 C 0.01128 0.6506 0.83169 0.0
C660 C 1.0054 0.6233 0.84265 0.0
C661 C 0.98356 0.61855 0.88065 0.0
C662 C 0.99988 0.70191 0.84418 0.0
C663 C 0.02281 0.59928 0.81708 0.0
H664 H 0.05807 0.67235 0.662 0.0
H665 H 0.10173 0.67882 0.83054 0.0
H666 H 1.0032 0.63122 0.70752 0.0
H667 H 0.99379 0.66674 0.71351 0.0
H668 H 0.01427 0.65232 0.65047 0.0
H669 H 0.08276 0.6651 0.91966 0.0
H670 H 0.04729 0.6751 0.92542 0.0
H671 H 0.05614 0.63956 0.90938 0.0
H672 H 0.9597 0.68403 0.91205 0.0
H673 H 0.97951 0.59777 0.89089 0.0
H674 H 1.00154 0.70348 0.79491 0.0
H675 H 0.01971 0.7086 0.86512 0.0
H676 H 0.98371 0.71631 0.86316 0.0
H677 H 0.03078 0.60222 0.77156 0.0
H678 H 0.0112 0.57967 0.81397 0.0
H679 H 0.04058 0.59734 0.84739 0.0
C680 C 0.38357 0.06156 0.79647 0.0
C681 C 0.35906 0.07178 0.77519 0.0
C682 C 0.38414 0.03656 0.82156 0.0
C683 C 0.35945 0.02198 0.82637 0.0
C684 C 0.33439 0.03336 0.80875 0.0
C685 C 0.33457 0.05798 0.78207 0.0
C686 C 0.41141 0.02501 0.83818 0.0
C687 C 0.30756 0.01872 0.81483 0.0
C688 C 0.35346 0.94487 0.81448 0.0
C689 C 0.34733 0.94099 0.87436 0.0
C690 C 0.35995 0.97107 0.79897 0.0
C691 C 0.35957 0.99377 0.84438 0.0
C692 C 0.35515 0.98956 0.90552 0.0
C693 C 0.34869 0.96314 0.91972 0.0
C694 C 0.36567 0.97472 0.73356 0.0
C695 C 0.35581 0.01315 0.95533 0.0
H696 H 0.4026 0.07213 0.78947 0.0
H697 H 0.3158 0.06594 0.76468 0.0
H698 H 0.40964 0.01292 0.8773 0.0
H699 H 0.41923 0.01112 0.79913 0.0
H700 H 0.42669 0.0416 0.84904 0.0
H701 H 0.28978 0.03153 0.80435 0.0
H702 H 0.30724 0.99944 0.78346 0.0
H703 H 0.30522 0.013 0.86151 0.0
H704 H 0.35249 0.92754 0.77964 0.0
H705 H 0.34382 0.95996 0.96602 0.0
H706 H 0.38436 0.98726 0.73001 0.0
H707 H 0.34843 0.98588 0.7148 0.0
H708 H 0.36839 0.95472 0.70529 0.0
H709 H 0.37434 0.02586 0.95136 0.0
H710 H 0.35559 1.0059 1.001 0.0
H711 H 0.33778 0.02659 0.95104 0.0
C712 C 0.96535 0.36221 0.76792 0.0
C713 C 0.9621 0.35926 0.70502 0.0
C714 C 0.99155 0.36359 0.79349 0.0
C715 C 0.01462 0.36221 0.75486 0.0
C716 C 0.01134 0.36037 0.69149 0.0
C717 C 0.98509 0.35867 0.66731 0.0
C718 C 0.99459 0.36609 0.86151 0.0
C719 C 0.03554 0.35944 0.64908 0.0
C720 C 0.08496 0.38077 0.81559 0.0
C721 C 0.09421 0.35512 0.82953 0.0
C722 C 0.05857 0.38369 0.79298 0.0
C723 C 0.04222 0.35999 0.77993 0.0
C724 C 0.05249 0.33371 0.78903 0.0
C725 C 0.0782 0.3317 0.81547 0.0
C726 C 0.04775 0.41215 0.78614 0.0
C727 C 0.03603 0.30787 0.77244 0.0
H728 H 0.9475 0.36318 0.79692 0.0
H729 H 0.98266 0.35726 0.61857 0.0
H730 H 1.00455 0.34733 0.87516 0.0
H731 H 0.00792 0.38379 0.87707 0.0
H732 H 0.97461 0.36885 0.88509 0.0
H733 H 0.02928 0.36003 0.60116 0.0
H734 H 0.04939 0.37704 0.66202 0.0
H735 H 0.04742 0.34033 0.65247 0.0
H736 H 0.09767 0.39876 0.82539 0.0
H737 H 0.0856 0.31192 0.82641 0.0
H738 H 0.03068 0.41699 0.81842 0.0
H739 H 0.03944 0.41312 0.73998 0.0
H740 H 0.06368 0.42824 0.79522 0.0
H741 H 0.01724 0.3084 0.80041 0.0
H742 H 0.04772 0.28896 0.77918 0.0
H743 H 0.02952 0.30663 0.72434 0.0
C744 C 0.39733 0.97243 0.1913 0.0
C745 C 0.37388 0.95737 0.17182 0.0
C746 C 0.39647 0.99404 0.23926 0.0
C747 C 0.37169 1.00049 0.27108 0.0
C748 C 0.34791 0.98519 0.25169 0.0
C749 C 0.34917 0.96425 0.20194 0.0
C750 C 0.42231 1.00988 0.25606 0.0
C751 C 0.3211 0.99071 0.28416 0.0
C752 C 0.37683 0.03813 0.43352 0.0
C753 C 0.37248 0.0658 0.42452 0.0
C754 C 0.37649 0.01685 0.38454 0.0
C755 C 0.37087 0.02296 0.32458 0.0
C756 C 0.36563 0.05086 0.31575 0.0
C757 C 0.36707 0.07183 0.36521 0.0
C758 C 0.38314 0.98786 0.39679 0.0
C759 C 0.35914 0.05873 0.25354 0.0
H760 H 0.4165 0.96745 0.16831 0.0
H761 H 0.33096 0.95271 0.18774 0.0
H762 H 0.41862 0.03227 0.25634 0.0
H763 H 0.42875 1.00627 0.30242 0.0
H764 H 0.43934 1.00385 0.22429 0.0
H765 H 0.30448 0.97716 0.26424 0.0
H766 H 0.32346 0.98753 0.33258 0.0
H767 H 0.31497 0.01247 0.28253 0.0
H768 H 0.38181 0.03324 0.47868 0.0
H769 H 0.3641 0.09312 0.35739 0.0
H770 H 0.40192 0.98074 0.37181 0.0
H771 H 0.36637 0.97378 0.3801 0.0
H772 H 0.38644 0.98617 0.44572 0.0
H773 H 0.37708 0.05451 0.22348 0.0
H774 H 0.3536 0.0808 0.2545 0.0
H775 H 0.34195 0.0461 0.23325 0.0
C776 C 0.05112 0.40217 0.19159 0.0
C777 C 0.06294 0.37771 0.16342 0.0
C778 C 0.02921 0.40199 0.23398 0.0
C779 C 0.01902 0.37675 0.25165 0.0
C780 C 0.0314 0.35205 0.22421 0.0
C781 C 0.05249 0.3528 0.18006 0.0
C782 C 0.01682 0.42906 0.25951 0.0
C783 C 0.02233 0.32456 0.24166 0.0
C784 C 0.97947 0.37529 0.40401 0.0
C785 C 0.95171 0.37364 0.38642 0.0
C786 C 1.00113 0.3768 0.36154 0.0
C787 C 0.99566 0.37603 0.29837 0.0
C788 C 0.96767 0.37419 0.28026 0.0
C789 C 0.94632 0.37341 0.32394 0.0
C790 C 0.03008 0.37965 0.38468 0.0
C791 C 0.96019 0.37324 0.21424 0.0
H792 H 0.05848 0.42164 0.17899 0.0
H793 H 0.06117 0.3337 0.15909 0.0
H794 H 0.99427 0.42846 0.25419 0.0
H795 H 0.02127 0.4328 0.30867 0.0
H796 H 0.02487 0.4466 0.23712 0.0
H797 H 0.03426 0.30724 0.21816 0.0
H798 H 0.02459 0.32417 0.29126 0.0
H799 H 1.00037 0.32136 0.23062 0.0
H800 H 0.98435 0.37619 0.45177 0.0
H801 H 0.92524 0.37251 0.30889 0.0
H802 H 0.03909 0.39901 0.37195 0.0
H803 H 0.04277 0.36243 0.36335 0.0
H804 H 0.0313 0.3799 0.43466 0.0
H805 H 0.96749 0.39216 0.19604 0.0
H806 H 0.93779 0.3714 0.20663 0.0
H807 H 0.97047 0.35553 0.18804 0.0
C808 C 0.65943 0.06078 0.24298 0.0
C809 C 0.63657 0.06444 0.206 0.0
C810 C 0.66059 0.03938 0.28217 0.0
C811 C 0.6387 0.0202 0.28451 0.0
C812 C 0.61579 0.02366 0.2463 0.0
C813 C 0.61486 0.04565 0.20899 0.0
C814 C 0.68525 0.03758 0.3222 0.0
C815 C 0.59179 1.0043 0.24531 0.0
C816 C 0.65051 0.94884 0.34608 0.0
C817 C 0.6414 0.9531 0.40664 0.0
C818 C 0.6503 0.97027 0.307 0.0
C819 C 0.63963 0.99692 0.32686 0.0
C820 C 0.62957 1.00099 0.38745 0.0
C821 C 0.63107 0.97955 0.42631 0.0
C822 C 0.66157 0.96429 0.24384 0.0
C823 C 0.61673 0.02805 0.41131 0.0
H824 H 0.67619 0.07521 0.2427 0.0
H825 H 0.59685 0.04813 0.1816 0.0
H826 H 0.67887 0.03991 0.37039 0.0
H827 H 0.69493 0.01703 0.31279 0.0
H828 H 0.70067 0.05362 0.31565 0.0
H829 H 0.57675 1.00786 0.20945 0.0
H830 H 0.59887 0.98264 0.23781 0.0
H831 H 0.58129 1.00703 0.28977 0.0
H832 H 0.65826 0.92868 0.32928 0.0
H833 H 0.62323 0.98331 0.47206 0.0
H834 H 0.67804 0.97915 0.23657 0.0
H835 H 0.64528 0.96695 0.2102 0.0
H836 H 0.66993 0.9431 0.2351 0.0
H837 H 0.63209 0.04473 0.41186 0.0
H838 H 0.60843 0.02778 0.45775 0.0
H839 H 0.59986 0.03315 0.38099 0.0
C840 C 0.06549 0.62996 0.38209 0.0
C841 C 0.06145 0.64305 0.44125 0.0
C842 C 0.04509 0.6299 0.33622 0.0
C843 C 0.01953 0.64333 0.34858 0.0
C844 C 0.01545 0.65674 0.40808 0.0
C845 C 0.03617 0.65643 0.45309 0.0
C846 C 0.05083 0.61504 0.27441 0.0
C847 C 0.98884 0.67122 0.42463 0.0
C848 C 0.97314 0.66185 0.21569 0.0
C849 C 0.95269 0.64152 0.21279 0.0
C850 C 0.99467 0.66284 0.25937 0.0
C851 C 0.99677 0.64251 0.30057 0.0
C852 C 0.97657 0.62152 0.2964 0.0
C853 C 0.95489 0.62154 0.25381 0.0
C854 C 0.01512 0.68594 0.26183 0.0
C855 C 0.97793 0.59865 0.33675 0.0
H856 H 0.08464 0.61934 0.37159 0.0
H857 H 0.03231 0.66648 0.4982 0.0
H858 H 0.035 0.59914 0.26249 0.0
H859 H 0.04984 0.62973 0.23983 0.0
H860 H 0.07123 0.60497 0.27189 0.0
H861 H 0.98898 0.68167 0.47161 0.0
H862 H 0.98456 0.68672 0.39291 0.0
H863 H 0.97183 0.65617 0.42028 0.0
H864 H 0.97203 0.67738 0.18454 0.0
H865 H 0.93976 0.60529 0.25182 0.0
H866 H 0.03596 0.67745 0.25333 0.0
H867 H 0.01521 0.69746 0.30773 0.0
H868 H 0.01063 0.70051 0.22812 0.0
H869 H 0.99774 0.58766 0.33026 0.0
H870 H 0.96114 0.5835 0.32745 0.0
H871 H 0.97684 0.60732 0.38495 0.0
C872 C 0.26096 0.23632 0.42182 0.0
C873 C 0.28917 0.23069 0.42635 0.0
C874 C 0.24979 0.24816 0.37216 0.0
C875 C 0.2667 0.2534 0.32311 0.0
C876 C 0.29492 0.24677 0.32569 0.0
C877 C 0.30584 0.23597 0.3773 0.0
C878 C 0.21969 0.2551 0.37237 0.0
C879 C 0.31367 0.25115 0.2738 0.0
C880 C 0.23101 0.25725 0.1705 0.0
C881 C 0.22988 0.2857 0.16581 0.0
C882 C 0.2431 0.24661 0.22067 0.0
C883 C 0.25446 0.2647 0.26837 0.0
C884 C 0.2531 0.2935 0.26446 0.0
C885 C 0.2408 0.30362 0.21353 0.0
C886 C 0.24381 0.21585 0.2224 0.0
C887 C 0.26467 0.31365 0.3142 0.0
H888 H 0.24721 0.23145 0.45718 0.0
H889 H 0.32759 0.23208 0.37933 0.0
H890 H 0.21676 0.27691 0.36436 0.0
H891 H 0.2092 0.24225 0.33512 0.0
H892 H 0.20966 0.25177 0.41577 0.0
H893 H 0.3348 0.24386 0.28118 0.0
H894 H 0.30566 0.24011 0.23112 0.0
H895 H 0.31441 0.27333 0.2676 0.0
H896 H 0.22235 0.24313 0.13452 0.0
H897 H 0.24033 0.32557 0.21042 0.0
H898 H 0.23209 0.2103 0.26196 0.0
H899 H 0.26518 0.20888 0.22786 0.0
H900 H 0.23509 0.20446 0.18079 0.0
H901 H 0.25388 0.3115 0.3573 0.0
H902 H 0.26277 0.33529 0.30391 0.0
H903 H 0.28657 0.30907 0.3214 0.0
C904 C 0.75202 0.24506 0.17001 0.0
C905 C 0.72407 0.24553 0.15646 0.0
C906 C 0.76206 0.25705 0.22602 0.0
C907 C 0.74379 0.27043 0.26917 0.0
C908 C 0.71563 0.27192 0.25462 0.0
C909 C 0.70603 0.25909 0.19871 0.0
C910 C 0.7921 0.25443 0.23994 0.0
C911 C 0.69559 0.2866 0.29856 0.0
C912 C 0.76676 0.27142 0.43292 0.0
C913 C 0.77838 0.29771 0.44515 0.0
C914 C 0.75447 0.26284 0.3769 0.0
C915 C 0.75401 0.28075 0.33101 0.0
C916 C 0.76508 0.30755 0.34322 0.0
C917 C 0.77707 0.31573 0.40007 0.0
C918 C 0.74281 0.23414 0.36614 0.0
C919 C 0.76485 0.32734 0.2957 0.0
H920 H 0.76591 0.2344 0.13743 0.0
H921 H 0.68443 0.25959 0.18797 0.0
H922 H 0.80102 0.27499 0.2537 0.0
H923 H 0.79475 0.24204 0.27849 0.0
H924 H 0.80378 0.24445 0.20065 0.0
H925 H 0.67462 0.28693 0.27946 0.0
H926 H 0.69492 0.27639 0.34071 0.0
H927 H 0.70235 0.3081 0.31131 0.0
H928 H 0.76798 0.25706 0.46664 0.0
H929 H 0.78554 0.33622 0.40907 0.0
H930 H 0.75468 0.22184 0.33023 0.0
H931 H 0.72137 0.23489 0.35008 0.0
H932 H 0.74322 0.22336 0.4076 0.0
H933 H 0.77804 0.3193 0.25718 0.0
H934 H 0.77231 0.34809 0.31363 0.0
H935 H 0.74388 0.3293 0.27762 0.0
C936 C 0.70464 0.76702 0.39085 0.0
C937 C 0.72354 0.77596 0.43633 0.0
C938 C 0.7134 0.75579 0.33296 0.0
C939 C 0.74173 0.75408 0.31974 0.0
C940 C 0.76085 0.7628 0.36588 0.0
C941 C 0.75153 0.77335 0.42363 0.0
C942 C 0.69235 0.74611 0.28571 0.0
C943 C 0.7912 0.76183 0.35368 0.0
C944 C 0.77117 0.70779 0.18606 0.0
C945 C 0.77618 0.72661 0.14392 0.0
C946 C 0.75893 0.71617 0.24238 0.0
C947 C 0.7516 0.74411 0.25737 0.0
C948 C 0.75558 0.76298 0.21408 0.0
C949 C 0.76773 0.754 0.15795 0.0
C950 C 0.75469 0.69526 0.28664 0.0
C951 C 0.74813 0.79296 0.2281 0.0
H952 H 0.68298 0.76897 0.40056 0.0
H953 H 0.7662 0.78061 0.45837 0.0
H954 H 0.69384 0.75842 0.2468 0.0
H955 H 0.69633 0.72435 0.26814 0.0
H956 H 0.67119 0.74782 0.3038 0.0
H957 H 0.8034 0.76897 0.39459 0.0
H958 H 0.79756 0.74055 0.33721 0.0
H959 H 0.79615 0.77499 0.31756 0.0
H960 H 0.77725 0.68649 0.17533 0.0
H961 H 0.7717 0.76877 0.12607 0.0
H962 H 0.7333 0.69607 0.30323 0.0
H963 H 0.76815 0.70016 0.32658 0.0
H964 H 0.75926 0.67398 0.2663 0.0
H965 H 0.7265 0.79506 0.24275 0.0
H966 H 0.7511 0.80469 0.18855 0.0
H967 H 0.76092 0.8024 0.26609 0.0
C968 C 0.25953 0.79508 0.18855 0.0
C969 C 0.28743 0.79264 0.17349 0.0
C970 C 0.2485 0.78348 0.23862 0.0
C971 C 0.26559 0.76879 0.27546 0.0
C972 C 0.29385 0.76634 0.2608 0.0
C973 C 0.30442 0.77835 0.2104 0.0
C974 C 0.21838 0.78698 0.25199 0.0
C975 C 0.31295 0.7509 0.29836 0.0
C976 C 0.23979 0.76425 0.43711 0.0
C977 C 0.23009 0.73695 0.4357 0.0
C978 C 0.25229 0.77421 0.38662 0.0
C979 C 0.254 0.75734 0.33079 0.0
C980 C 0.24344 0.73018 0.32767 0.0
C981 C 0.23217 0.72022 0.37992 0.0
C982 C 0.26361 0.8031 0.39317 0.0
C983 C 0.24378 0.71166 0.26874 0.0
H984 H 0.24615 0.8062 0.16082 0.0
H985 H 0.32588 0.77596 0.19901 0.0
H986 H 0.20867 0.76658 0.25332 0.0
H987 H 0.21547 0.79868 0.29718 0.0
H988 H 0.20759 0.79801 0.21782 0.0
H989 H 0.33429 0.75069 0.28133 0.0
H990 H 0.31273 0.76041 0.34605 0.0
H991 H 0.30591 0.72935 0.2983 0.0
H992 H 0.23753 0.77841 0.47766 0.0
H993 H 0.2252 0.69914 0.37663 0.0
H994 H 0.25184 0.81601 0.36427 0.0
H995 H 0.28516 0.8029 0.37761 0.0
H996 H 0.26283 0.81291 0.44065 0.0
H997 H 0.23167 0.72117 0.23423 0.0
H998 H 0.23522 0.69098 0.27345 0.0
H999 H 0.26498 0.7092 0.2514 0.0
C1000 C 0.75873 0.77774 0.66186 0.0
C1001 C 0.73235 0.7895 0.66368 0.0
C1002 C 0.77048 0.76701 0.71248 0.0
C1003 C 0.75597 0.76824 0.7679 0.0
C1004 C 0.72977 0.78099 0.77104 0.0
C1005 C 0.71832 0.79136 0.71926 0.0
C1006 C 0.7984 0.75385 0.7062 0.0
C1007 C 0.71354 0.78324 0.82901 0.0
C1008 C 0.77545 0.71634 0.87991 0.0
C1009 C 0.79206 0.73205 0.92209 0.0
C1010 C 0.76355 0.7278 0.83012 0.0
C1011 C 0.76819 0.75584 0.82178 0.0
C1012 C 0.78515 0.7717 0.86423 0.0
C1013 C 0.79664 0.75974 0.91376 0.0
C1014 C 0.74562 0.70995 0.7868 0.0
C1015 C 0.79094 0.80152 0.85777 0.0
H1016 H 0.77041 0.77676 0.62032 0.0
H1017 H 0.69801 0.80025 0.72195 0.0
H1018 H 0.81255 0.76422 0.74043 0.0
H1019 H 0.79706 0.73198 0.71481 0.0
H1020 H 0.80731 0.75477 0.66051 0.0
H1021 H 0.69396 0.79446 0.82516 0.0
H1022 H 0.709 0.76239 0.84153 0.0
H1023 H 0.7257 0.79406 0.86649 0.0
H1024 H 0.77118 0.69517 0.8868 0.0
H1025 H 0.8089 0.77222 0.94686 0.0
H1026 H 0.75396 0.7091 0.74023 0.0
H1027 H 0.72484 0.71901 0.78596 0.0
H1028 H 0.74389 0.68864 0.79925 0.0
H1029 H 0.80119 0.8033 0.81388 0.0
H1030 H 0.80412 0.81125 0.89481 0.0
H1031 H 0.77149 0.81319 0.85761 0.0
C1032 C 0.2172 0.77136 0.68241 0.0
C1033 C 0.22354 0.7438 0.66399 0.0
C1034 C 0.22446 0.78351 0.74049 0.0
C1035 C 0.23885 0.76778 0.78012 0.0
C1036 C 0.24489 0.73978 0.76166 0.0
C1037 C 0.237 0.72811 0.70392 0.0
C1038 C 0.21748 0.81333 0.75866 0.0
C1039 C 0.26039 0.72233 0.80224 0.0
C1040 C 0.28978 0.79961 0.89472 0.0
C1041 C 0.27554 0.80004 0.94989 0.0
C1042 C 0.27727 0.79115 0.83917 0.0
C1043 C 0.25028 0.781 0.83816 0.0
C1044 C 0.23555 0.78121 0.89298 0.0
C1045 C 0.24809 0.79136 0.94799 0.0
C1046 C 0.29348 0.79202 0.78153 0.0
C1047 C 0.20687 0.76993 0.89367 0.0
H1048 H 0.2064 0.78329 0.65153 0.0
H1049 H 0.24174 0.70674 0.68941 0.0
H1050 H 0.20851 0.8161 0.80474 0.0
H1051 H 0.23641 0.82582 0.75986 0.0
H1052 H 0.20287 0.82143 0.72661 0.0
H1053 H 0.26159 0.70043 0.78291 0.0
H1054 H 0.28149 0.73032 0.80924 0.0
H1055 H 0.25051 0.72344 0.84734 0.0
H1056 H 0.31118 0.80504 0.89426 0.0
H1057 H 0.23638 0.79204 0.98939 0.0
H1058 H 0.28131 0.80185 0.74762 0.0
H1059 H 0.2983 0.77076 0.76166 0.0
H1060 H 0.31294 0.80351 0.78941 0.0
H1061 H 0.19336 0.78108 0.8645 0.0
H1062 H 0.19811 0.77157 0.94003 0.0
H1063 H 0.20683 0.74796 0.87478 0.0
C1064 C 0.2083 0.26449 0.89539 0.0
C1065 C 0.22621 0.27704 0.93929 0.0
C1066 C 0.21812 0.2527 0.83884 0.0
C1067 C 0.2464 0.25413 0.82562 0.0
C1068 C 0.26448 0.26671 0.87018 0.0
C1069 C 0.2542 0.27775 0.9266 0.0
C1070 C 0.19826 0.23896 0.79314 0.0
C1071 C 0.29465 0.26918 0.85769 0.0
C1072 C 0.28049 0.20881 0.69646 0.0
C1073 C 0.28319 0.2271 0.65225 0.0
C1074 C 0.26779 0.21697 0.75239 0.0
C1075 C 0.25716 0.24397 0.76433 0.0
C1076 C 0.25891 0.26219 0.71922 0.0
C1077 C 0.27215 0.25369 0.66429 0.0
C1078 C 0.2663 0.1969 0.79925 0.0
C1079 C 0.24751 0.29103 0.72967 0.0
H1080 H 0.18666 0.26382 0.90548 0.0
H1081 H 0.26799 0.28768 0.96043 0.0
H1082 H 0.19889 0.24908 0.75088 0.0
H1083 H 0.20422 0.21715 0.78116 0.0
H1084 H 0.17694 0.23963 0.81037 0.0
H1085 H 0.30608 0.27881 0.89773 0.0
H1086 H 0.30352 0.24858 0.84373 0.0
H1087 H 0.29773 0.2818 0.8197 0.0
H1088 H 0.28835 0.18805 0.68746 0.0
H1089 H 0.2744 0.26828 0.63133 0.0
H1090 H 0.2449 0.19488 0.8145 0.0
H1091 H 0.27851 0.20474 0.83958 0.0
H1092 H 0.27411 0.1762 0.78184 0.0
H1093 H 0.22587 0.29054 0.74435 0.0
H1094 H 0.24859 0.30193 0.68844 0.0
H1095 H 0.25909 0.30306 0.76649 0.0
C1096 C 0.76268 0.26994 0.66561 0.0
C1097 C 0.78604 0.28725 0.66935 0.0
C1098 C 0.75131 0.25927 0.7165 0.0
C1099 C 0.76407 0.26423 0.77371 0.0
C1100 C 0.78816 0.28044 0.77839 0.0
C1101 C 0.79846 0.29205 0.72713 0.0
C1102 C 0.72514 0.24285 0.70893 0.0
C1103 C 0.80321 0.28552 0.83787 0.0
C1104 C 0.72122 0.25867 0.91677 0.0
C1105 C 0.72673 0.2318 0.9303 0.0
C1106 C 0.73304 0.2693 0.86625 0.0
C1107 C 0.75162 0.25306 0.8285 0.0
C1108 C 0.75732 0.22586 0.84206 0.0
C1109 C 0.74461 0.21549 0.89216 0.0
C1110 C 0.72553 0.29801 0.85323 0.0
C1111 C 0.77732 0.20786 0.80427 0.0
H1112 H 0.75265 0.26411 0.62306 0.0
H1113 H 0.81636 0.30488 0.73342 0.0
H1114 H 0.7287 0.22161 0.7202 0.0
H1115 H 0.70939 0.25224 0.74067 0.0
H1116 H 0.71685 0.24173 0.66216 0.0
H1117 H 0.82242 0.29725 0.83395 0.0
H1118 H 0.78998 0.29712 0.87224 0.0
H1119 H 0.80826 0.26561 0.85488 0.0
H1120 H 0.7076 0.27151 0.94617 0.0
H1121 H 0.74942 0.19492 0.90281 0.0
H1122 H 0.717 0.29744 0.8068 0.0
H1123 H 0.74404 0.31112 0.85509 0.0
H1124 H 0.71031 0.3078 0.88585 0.0
H1125 H 0.76941 0.20334 0.75747 0.0
H1126 H 0.78113 0.18806 0.82302 0.0
H1127 H 0.79705 0.21878 0.80137 0.0
loop_
_geom_bond_atom_site_label_1
_geom_bond_atom_site_label_2
_geom_bond_distance
_geom_bond_site_symmetry_2
_ccdc_geom_bond_type
O0 Tb1 2.292 . S
O0 C3 1.255 . S
Tb1 O0 2.292 . S
Tb1 O17 2.326 . S
Tb1 O19 2.500 . S
Tb1 O20 2.473 1_556 S
Tb1 O23 2.324 1_556 S
Eu2 O6 2.292 . S
Eu2 C7 2.852 . S
Eu2 O18 2.324 1_554 S
Eu2 O22 2.326 . S
Eu2 O24 2.500 . S
Eu2 O25 2.473 . S
C3 O0 1.255 . S
C3 O4 1.247 . S
O4 C3 1.247 . S
C5 O17 1.242 . S
C5 O18 1.258 . S
O6 Eu2 2.292 . S
O6 C8 1.255 . S
C7 Eu2 2.852 . S
C7 C11 1.503 . S
C7 O24 1.273 . S
C7 O25 1.257 . S
C8 O6 1.255 . S
C8 O9 1.247 . S
O9 C8 1.247 . S
C10 O22 1.242 . S
C10 O23 1.258 . S
C11 C7 1.503 . S
C11 C12 1.379 1_554 S
C11 C16 1.392 . S
C12 C11 1.379 1_556 S
C12 C13 1.404 . S
C12 H26 0.929 . S
C13 C12 1.404 . S
C13 C14 1.389 1_556 S
C14 C13 1.389 1_554 S
C14 C15 1.399 . S
C14 H27 0.931 . S
C15 C14 1.399 . S
C15 C16 1.390 . S
C16 C11 1.392 . S
C16 C15 1.390 . S
C16 H28 0.929 . S
O17 Tb1 2.326 . S
O17 C5 1.242 . S
O18 Eu2 2.324 1_556 S
O18 C5 1.258 . S
O19 Tb1 2.500 . S
O19 C21 1.273 . S
O20 Tb1 2.473 1_554 S
O20 C21 1.257 1_554 S
C21 O19 1.273 . S
C21 O20 1.257 1_556 S
O22 Eu2 2.326 . S
O22 C10 1.242 . S
O23 Tb1 2.324 1_554 S
O23 C10 1.258 . S
O24 Eu2 2.500 . S
O24 C7 1.273 . S
O25 Eu2 2.473 . S
O25 C7 1.257 . S
H26 C12 0.929 . S
H27 C14 0.931 . S
H28 C16 0.929 . S
O29 Tb30 2.292 . S
O29 C32 1.255 . S
Tb30 O29 2.292 . S
Tb30 O46 2.326 . S
Tb30 O48 2.500 . S
Tb30 O49 2.473 . S
Tb30 O52 2.324 1_554 S
Eu31 O35 2.292 . S
Eu31 C36 2.852 1_556 S
Eu31 O47 2.324 1_556 S
Eu31 O51 2.326 . S
Eu31 O53 2.500 . S
Eu31 O54 2.473 1_556 S
C32 O29 1.255 . S
C32 O33 1.247 . S
O33 C32 1.247 . S
C34 O46 1.242 . S
C34 O47 1.258 . S
O35 Eu31 2.292 . S
O35 C37 1.255 . S
C36 Eu31 2.852 1_554 S
C36 C40 1.503 . S
C36 O53 1.273 1_554 S
C36 O54 1.257 . S
C37 O35 1.255 . S
C37 O38 1.247 . S
O38 C37 1.247 . S
C39 O51 1.242 . S
C39 O52 1.258 . S
C40 C36 1.503 . S
C40 C41 1.379 . S
C40 C45 1.392 1_554 S
C41 C40 1.379 . S
C41 C42 1.404 . S
C41 H55 0.929 . S
C42 C41 1.404 . S
C42 C43 1.389 . S
C43 C42 1.389 . S
C43 C44 1.399 1_554 S
C43 H56 0.931 . S
C44 C43 1.399 1_556 S
C44 C45 1.390 . S
C45 C40 1.392 1_556 S
C45 C44 1.390 . S
C45 H57 0.929 . S
O46 Tb30 2.326 . S
O46 C34 1.242 . S
O47 Eu31 2.324 1_554 S
O47 C34 1.258 . S
O48 Tb30 2.500 . S
O48 C50 1.273 . S
O49 Tb30 2.473 . S
O49 C50 1.257 . S
C50 O48 1.273 . S
C50 O49 1.257 . S
O51 Eu31 2.326 . S
O51 C39 1.242 . S
O52 Tb30 2.324 1_556 S
O52 C39 1.258 . S
O53 Eu31 2.500 . S
O53 C36 1.273 1_556 S
O54 Eu31 2.473 1_554 S
O54 C36 1.257 . S
H55 C41 0.929 . S
H56 C43 0.931 . S
H57 C45 0.929 . S
O58 Tb59 2.292 . S
O58 C61 1.255 . S
Tb59 O58 2.292 . S
Tb59 O75 2.326 . S
Tb59 O77 2.500 . S
Tb59 O78 2.473 . S
Tb59 O81 2.324 1_554 S
Eu60 O64 2.292 1_554 S
Eu60 C65 2.852 . S
Eu60 O76 2.324 . S
Eu60 O80 2.326 1_554 S
Eu60 O82 2.500 1_554 S
Eu60 O83 2.473 . S
C61 O58 1.255 . S
C61 O62 1.247 . S
O62 C61 1.247 . S
C63 O75 1.242 . S
C63 O76 1.258 . S
O64 Eu60 2.292 1_556 S
O64 C66 1.255 . S
C65 Eu60 2.852 . S
C65 C69 1.503 . S
C65 O82 1.273 1_554 S
C65 O83 1.257 . S
C66 O64 1.255 . S
C66 O67 1.247 . S
O67 C66 1.247 . S
C68 O80 1.242 . S
C68 O81 1.258 . S
C69 C65 1.503 . S
C69 C70 1.379 . S
C69 C74 1.392 1_554 S
C70 C69 1.379 . S
C70 C71 1.404 . S
C70 H84 0.929 . S
C71 C70 1.404 . S
C71 C72 1.389 . S
C72 C71 1.389 . S
C72 C73 1.399 1_554 S
C72 H85 0.931 . S
C73 C72 1.399 1_556 S
C73 C74 1.390 . S
C74 C69 1.392 1_556 S
C74 C73 1.390 . S
C74 H86 0.929 . S
O75 Tb59 2.326 . S
O75 C63 1.242 . S
O76 Eu60 2.324 . S
O76 C63 1.258 . S
O77 Tb59 2.500 . S
O77 C79 1.273 . S
O78 Tb59 2.473 . S
O78 C79 1.257 . S
C79 O77 1.273 . S
C79 O78 1.257 . S
O80 Eu60 2.326 1_556 S
O80 C68 1.242 . S
O81 Tb59 2.324 1_556 S
O81 C68 1.258 . S
O82 Eu60 2.500 1_556 S
O82 C65 1.273 1_556 S
O83 Eu60 2.473 . S
O83 C65 1.257 . S
H84 C70 0.929 . S
H85 C72 0.931 . S
H86 C74 0.929 . S
O87 Tb88 2.292 . S
O87 C90 1.255 . S
Tb88 O87 2.292 . S
Tb88 O104 2.326 . S
Tb88 O106 2.500 . S
Tb88 O107 2.473 1_556 S
Tb88 O110 2.324 1_556 S
Eu89 O93 2.292 . S
Eu89 C94 2.852 . S
Eu89 O105 2.324 1_554 S
Eu89 O109 2.326 . S
Eu89 O111 2.500 . S
Eu89 O112 2.473 1_554 S
C90 O87 1.255 . S
C90 O91 1.247 . S
O91 C90 1.247 . S
C92 O104 1.242 . S
C92 O105 1.258 . S
O93 Eu89 2.292 . S
O93 C95 1.255 . S
C94 Eu89 2.852 . S
C94 C98 1.503 . S
C94 O111 1.273 . S
C94 O112 1.257 1_554 S
C95 O93 1.255 . S
C95 O96 1.247 . S
O96 C95 1.247 . S
C97 O109 1.242 . S
C97 O110 1.258 . S
C98 C94 1.503 . S
C98 C99 1.379 1_554 S
C98 C103 1.392 . S
C99 C98 1.379 1_556 S
C99 C100 1.404 . S
C99 H113 0.929 . S
C100 C99 1.404 . S
C100 C101 1.389 1_556 S
C101 C100 1.389 1_554 S
C101 C102 1.399 . S
C101 H114 0.931 . S
C102 C101 1.399 . S
C102 C103 1.390 . S
C103 C98 1.392 . S
C103 C102 1.390 . S
C103 H115 0.929 . S
O104 Tb88 2.326 . S
O104 C92 1.242 . S
O105 Eu89 2.324 1_556 S
O105 C92 1.258 . S
O106 Tb88 2.500 . S
O106 C108 1.273 . S
O107 Tb88 2.473 1_554 S
O107 C108 1.257 1_554 S
C108 O106 1.273 . S
C108 O107 1.257 1_556 S
O109 Eu89 2.326 . S
O109 C97 1.242 . S
O110 Tb88 2.324 1_554 S
O110 C97 1.258 . S
O111 Eu89 2.500 . S
O111 C94 1.273 . S
O112 Eu89 2.473 1_556 S
O112 C94 1.257 1_556 S
H113 C99 0.929 . S
H114 C101 0.931 . S
H115 C103 0.929 . S
O116 Tb117 2.292 . S
O116 C119 1.255 . S
Tb117 O116 2.292 . S
Tb117 O133 2.326 . S
Tb117 O135 2.500 . S
Tb117 O136 2.473 . S
Tb117 O139 2.324 . S
Eu118 O122 2.292 . S
Eu118 C123 2.852 . S
Eu118 O134 2.324 . S
Eu118 O138 2.326 . S
Eu118 O140 2.500 . S
Eu118 O141 2.473 . S
C119 O116 1.255 . S
C119 O120 1.247 . S
O120 C119 1.247 . S
C121 O133 1.242 . S
C121 O134 1.258 . S
O122 Eu118 2.292 . S
O122 C124 1.255 . S
C123 Eu118 2.852 . S
C123 C127 1.503 . S
C123 O140 1.273 . S
C123 O141 1.257 . S
C124 O122 1.255 . S
C124 O125 1.247 . S
O125 C124 1.247 . S
C126 O138 1.242 . S
C126 O139 1.258 . S
C127 C123 1.503 . S
C127 C128 1.379 . S
C127 C132 1.392 . S
C128 C127 1.379 . S
C128 C129 1.404 . S
C128 H142 0.929 . S
C129 C128 1.404 . S
C129 C130 1.389 . S
C130 C129 1.389 . S
C130 C131 1.399 . S
C130 H143 0.931 . S
C131 C130 1.399 . S
C131 C132 1.390 . S
C132 C127 1.392 . S
C132 C131 1.390 . S
C132 H144 0.929 . S
O133 Tb117 2.326 . S
O133 C121 1.242 . S
O134 Eu118 2.324 . S
O134 C121 1.258 . S
O135 Tb117 2.500 . S
O135 C137 1.273 . S
O136 Tb117 2.473 . S
O136 C137 1.257 . S
C137 O135 1.273 . S
C137 O136 1.257 . S
O138 Eu118 2.326 . S
O138 C126 1.242 . S
O139 Tb117 2.324 . S
O139 C126 1.258 . S
O140 Eu118 2.500 . S
O140 C123 1.273 . S
O141 Eu118 2.473 . S
O141 C123 1.257 . S
H142 C128 0.929 . S
H143 C130 0.931 . S
H144 C132 0.929 . S
O145 Tb146 2.292 . S
O145 C148 1.255 . S
Tb146 O145 2.292 . S
Tb146 O162 2.326 . S
Tb146 O164 2.500 . S
Tb146 O165 2.473 . S
Tb146 O168 2.324 . S
Eu147 O151 2.292 . S
Eu147 C152 2.852 . S
Eu147 O163 2.324 . S
Eu147 O167 2.326 . S
Eu147 O169 2.500 . S
Eu147 O170 2.473 . S
C148 O145 1.255 . S
C148 O149 1.247 . S
O149 C148 1.247 . S
C150 O162 1.242 . S
C150 O163 1.258 . S
O151 Eu147 2.292 . S
O151 C153 1.255 . S
C152 Eu147 2.852 . S
C152 C156 1.503 . S
C152 O169 1.273 . S
C152 O170 1.257 . S
C153 O151 1.255 . S
C153 O154 1.247 . S
O154 C153 1.247 . S
C155 O167 1.242 . S
C155 O168 1.258 . S
C156 C152 1.503 . S
C156 C157 1.379 . S
C156 C161 1.392 . S
C157 C156 1.379 . S
C157 C158 1.404 . S
C157 H171 0.929 . S
C158 C157 1.404 . S
C158 C159 1.389 . S
C159 C158 1.389 . S
C159 C160 1.399 . S
C159 H172 0.931 . S
C160 C159 1.399 . S
C160 C161 1.390 . S
C161 C156 1.392 . S
C161 C160 1.390 . S
C161 H173 0.929 . S
O162 Tb146 2.326 . S
O162 C150 1.242 . S
O163 Eu147 2.324 . S
O163 C150 1.258 . S
O164 Tb146 2.500 . S
O164 C166 1.273 . S
O165 Tb146 2.473 . S
O165 C166 1.257 . S
C166 O164 1.273 . S
C166 O165 1.257 . S
O167 Eu147 2.326 . S
O167 C155 1.242 . S
O168 Tb146 2.324 . S
O168 C155 1.258 . S
O169 Eu147 2.500 . S
O169 C152 1.273 . S
O170 Eu147 2.473 . S
O170 C152 1.257 . S
H171 C157 0.929 . S
H172 C159 0.931 . S
H173 C161 0.929 . S
O174 Tb175 2.292 . S
O174 C177 1.255 . S
Tb175 O174 2.292 . S
Tb175 O191 2.326 . S
Tb175 O193 2.500 . S
Tb175 O194 2.473 . S
Tb175 O197 2.324 . S
Eu176 O180 2.292 . S
Eu176 C181 2.852 . S
Eu176 O192 2.324 . S
Eu176 O196 2.326 . S
Eu176 O198 2.500 . S
Eu176 O199 2.473 . S
C177 O174 1.255 . S
C177 O178 1.247 . S
O178 C177 1.247 . S
C179 O191 1.242 . S
C179 O192 1.258 . S
O180 Eu176 2.292 . S
O180 C182 1.255 . S
C181 Eu176 2.852 . S
C181 C185 1.503 . S
C181 O198 1.273 . S
C181 O199 1.257 . S
C182 O180 1.255 . S
C182 O183 1.247 . S
O183 C182 1.247 . S
C184 O196 1.242 . S
C184 O197 1.258 . S
C185 C181 1.503 . S
C185 C186 1.379 . S
C185 C190 1.392 . S
C186 C185 1.379 . S
C186 C187 1.404 . S
C186 H200 0.929 . S
C187 C186 1.404 . S
C187 C188 1.389 . S
C188 C187 1.389 . S
C188 C189 1.399 . S
C188 H201 0.931 . S
C189 C188 1.399 . S
C189 C190 1.390 . S
C190 C185 1.392 . S
C190 C189 1.390 . S
C190 H202 0.929 . S
O191 Tb175 2.326 . S
O191 C179 1.242 . S
O192 Eu176 2.324 . S
O192 C179 1.258 . S
O193 Tb175 2.500 . S
O193 C195 1.273 . S
O194 Tb175 2.473 . S
O194 C195 1.257 . S
C195 O193 1.273 . S
C195 O194 1.257 . S
O196 Eu176 2.326 . S
O196 C184 1.242 . S
O197 Tb175 2.324 . S
O197 C184 1.258 . S
O198 Eu176 2.500 . S
O198 C181 1.273 . S
O199 Eu176 2.473 . S
O199 C181 1.257 . S
H200 C186 0.929 . S
H201 C188 0.931 . S
H202 C190 0.929 . S
O203 Tb204 2.292 . S
O203 C206 1.255 . S
Tb204 O203 2.292 . S
Tb204 O220 2.326 . S
Tb204 O222 2.500 . S
Tb204 O223 2.473 . S
Tb204 O226 2.324 . S
Eu205 O209 2.292 . S
Eu205 C210 2.852 . S
Eu205 O221 2.324 . S
Eu205 O225 2.326 . S
Eu205 O227 2.500 . S
Eu205 O228 2.473 . S
C206 O203 1.255 . S
C206 O207 1.247 . S
O207 C206 1.247 . S
C208 O220 1.242 . S
C208 O221 1.258 . S
O209 Eu205 2.292 . S
O209 C211 1.255 . S
C210 Eu205 2.852 . S
C210 C214 1.503 . S
C210 O227 1.273 . S
C210 O228 1.257 . S
C211 O209 1.255 . S
C211 O212 1.247 . S
O212 C211 1.247 . S
C213 O225 1.242 . S
C213 O226 1.258 . S
C214 C210 1.503 . S
C214 C215 1.379 . S
C214 C219 1.392 . S
C215 C214 1.379 . S
C215 C216 1.404 . S
C215 H229 0.929 . S
C216 C215 1.404 . S
C216 C217 1.389 . S
C217 C216 1.389 . S
C217 C218 1.399 . S
C217 H230 0.931 . S
C218 C217 1.399 . S
C218 C219 1.390 . S
C219 C214 1.392 . S
C219 C218 1.390 . S
C219 H231 0.929 . S
O220 Tb204 2.326 . S
O220 C208 1.242 . S
O221 Eu205 2.324 . S
O221 C208 1.258 . S
O222 Tb204 2.500 . S
O222 C224 1.273 . S
O223 Tb204 2.473 . S
O223 C224 1.257 . S
C224 O222 1.273 . S
C224 O223 1.257 . S
O225 Eu205 2.326 . S
O225 C213 1.242 . S
O226 Tb204 2.324 . S
O226 C213 1.258 . S
O227 Eu205 2.500 . S
O227 C210 1.273 . S
O228 Eu205 2.473 . S
O228 C210 1.257 . S
H229 C215 0.929 . S
H230 C217 0.931 . S
H231 C219 0.929 . S
C232 C233 1.391 1_554 S
C232 C234 1.394 . S
C232 H248 0.931 . S
C233 C232 1.391 1_556 S
C233 C237 1.376 . S
C234 C232 1.394 . S
C234 C235 1.369 . S
C234 C238 1.531 1_455 S
C235 C234 1.369 . S
C235 C236 1.410 1_554 S
C235 C243 1.503 1_455 S
C236 C235 1.410 1_556 S
C236 C237 1.392 . S
C236 C239 1.511 . S
C237 C233 1.376 . S
C237 C236 1.392 . S
C237 H249 0.929 . S
C238 C234 1.531 1_655 S
C238 H250 0.960 . S
C238 H251 0.962 . S
C238 H252 0.960 . S
C239 C236 1.511 . S
C239 H253 0.961 . S
C239 H254 0.961 . S
C239 H255 0.961 1_556 S
C240 C241 1.370 . S
C240 C242 1.363 . S
C240 H256 0.931 1_554 S
C241 C240 1.370 . S
C241 C245 1.408 . S
C242 C240 1.363 . S
C242 C243 1.370 . S
C242 C246 1.524 1_554 S
C243 C235 1.503 1_655 S
C243 C242 1.370 . S
C243 C244 1.403 . S
C244 C243 1.403 . S
C244 C245 1.404 . S
C244 C247 1.539 1_655 S
C245 C241 1.408 . S
C245 C244 1.404 . S
C245 H257 0.930 . S
C246 C242 1.524 1_556 S
C246 H258 0.956 . S
C246 H259 0.961 . S
C246 H260 0.961 . S
C247 C244 1.539 1_455 S
C247 H261 0.958 . S
C247 H262 0.961 . S
C247 H263 0.960 . S
H248 C232 0.931 . S
H249 C237 0.929 . S
H250 C238 0.960 . S
H251 C238 0.962 . S
H252 C238 0.960 . S
H253 C239 0.961 . S
H254 C239 0.961 . S
H255 C239 0.961 1_554 S
H256 C240 0.931 1_556 S
H257 C245 0.930 . S
H258 C246 0.956 . S
H259 C246 0.961 . S
H260 C246 0.961 . S
H261 C247 0.958 . S
H262 C247 0.961 . S
H263 C247 0.960 . S
C264 C265 1.391 1_554 S
C264 C266 1.394 . S
C264 H280 0.931 . S
C265 C264 1.391 1_556 S
C265 C269 1.376 . S
C266 C264 1.394 . S
C266 C267 1.369 . S
C266 C270 1.531 . S
C267 C266 1.369 . S
C267 C268 1.410 1_554 S
C267 C275 1.503 1_565 S
C268 C267 1.410 1_556 S
C268 C269 1.392 . S
C268 C271 1.511 1_565 S
C269 C265 1.376 . S
C269 C268 1.392 . S
C269 H281 0.929 . S
C270 C266 1.531 . S
C270 H282 0.960 . S
C270 H283 0.962 1_565 S
C270 H284 0.960 . S
C271 C268 1.511 1_545 S
C271 H285 0.961 . S
C271 H286 0.961 . S
C271 H287 0.961 1_545 S
C272 C273 1.370 . S
C272 C274 1.363 . S
C272 H288 0.931 . S
C273 C272 1.370 . S
C273 C277 1.408 . S
C274 C272 1.363 . S
C274 C275 1.370 . S
C274 C278 1.524 . S
C275 C267 1.503 1_545 S
C275 C274 1.370 . S
C275 C276 1.403 . S
C276 C275 1.403 . S
C276 C277 1.404 . S
C276 C279 1.539 1_545 S
C277 C273 1.408 . S
C277 C276 1.404 . S
C277 H289 0.930 . S
C278 C274 1.524 . S
C278 H290 0.956 . S
C278 H291 0.961 . S
C278 H292 0.961 . S
C279 C276 1.539 1_565 S
C279 H293 0.958 . S
C279 H294 0.961 1_554 S
C279 H295 0.960 1_554 S
H280 C264 0.931 . S
H281 C269 0.929 . S
H282 C270 0.960 . S
H283 C270 0.962 1_545 S
H284 C270 0.960 . S
H285 C271 0.961 . S
H286 C271 0.961 . S
H287 C271 0.961 1_565 S
H288 C272 0.931 . S
H289 C277 0.930 . S
H290 C278 0.956 . S
H291 C278 0.961 . S
H292 C278 0.961 . S
H293 C279 0.958 . S
H294 C279 0.961 1_556 S
H295 C279 0.960 1_556 S
C296 C297 1.391 . S
C296 C298 1.394 . S
C296 H312 0.931 . S
C297 C296 1.391 . S
C297 C301 1.376 . S
C298 C296 1.394 . S
C298 C299 1.369 . S
C298 C302 1.531 . S
C299 C298 1.369 . S
C299 C300 1.410 . S
C299 C307 1.503 1_455 S
C300 C299 1.410 . S
C300 C301 1.392 . S
C300 C303 1.511 1_455 S
C301 C297 1.376 . S
C301 C300 1.392 . S
C301 H313 0.929 . S
C302 C298 1.531 . S
C302 H314 0.960 . S
C302 H315 0.962 . S
C302 H316 0.960 . S
C303 C300 1.511 1_655 S
C303 H317 0.961 . S
C303 H318 0.961 . S
C303 H319 0.961 . S
C304 C305 1.370 . S
C304 C306 1.363 . S
C304 H320 0.931 . S
C305 C304 1.370 . S
C305 C309 1.408 . S
C306 C304 1.363 . S
C306 C307 1.370 . S
C306 C310 1.524 . S
C307 C299 1.503 1_655 S
C307 C306 1.370 . S
C307 C308 1.403 . S
C308 C307 1.403 . S
C308 C309 1.404 . S
C308 C311 1.539 1_655 S
C309 C305 1.408 . S
C309 C308 1.404 . S
C309 H321 0.930 . S
C310 C306 1.524 . S
C310 H322 0.956 . S
C310 H323 0.961 . S
C310 H324 0.961 . S
C311 C308 1.539 1_455 S
C311 H325 0.958 . S
C311 H326 0.961 1_455 S
C311 H327 0.960 . S
H312 C296 0.931 . S
H313 C301 0.929 . S
H314 C302 0.960 . S
H315 C302 0.962 . S
H316 C302 0.960 . S
H317 C303 0.961 . S
H318 C303 0.961 . S
H319 C303 0.961 . S
H320 C304 0.931 . S
H321 C309 0.930 . S
H322 C310 0.956 . S
H323 C310 0.961 . S
H324 C310 0.961 . S
H325 C311 0.958 . S
H326 C311 0.961 1_655 S
H327 C311 0.960 . S
C328 C329 1.391 . S
C328 C330 1.394 . S
C328 H344 0.931 . S
C329 C328 1.391 . S
C329 C333 1.376 . S
C330 C328 1.394 . S
C330 C331 1.369 . S
C330 C334 1.531 . S
C331 C330 1.369 . S
C331 C332 1.410 . S
C331 C339 1.503 1_565 S
C332 C331 1.410 . S
C332 C333 1.392 . S
C332 C335 1.511 . S
C333 C329 1.376 . S
C333 C332 1.392 . S
C333 H345 0.929 . S
C334 C330 1.531 . S
C334 H346 0.960 . S
C334 H347 0.962 . S
C334 H348 0.960 . S
C335 C332 1.511 . S
C335 H349 0.961 . S
C335 H350 0.963 . S
C335 H351 0.961 1_565 S
C336 C337 1.370 . S
C336 C338 1.363 1_545 S
C336 H352 0.931 . S
C337 C336 1.370 . S
C337 C341 1.408 . S
C338 C336 1.363 1_565 S
C338 C339 1.370 1_565 S
C338 C342 1.524 . S
C339 C331 1.503 1_545 S
C339 C338 1.370 1_545 S
C339 C340 1.403 . S
C340 C339 1.403 . S
C340 C341 1.404 . S
C340 C343 1.539 . S
C341 C337 1.408 . S
C341 C340 1.404 . S
C341 H353 0.930 . S
C342 C338 1.524 . S
C342 H354 0.956 . S
C342 H355 0.961 . S
C342 H356 0.961 . S
C343 C340 1.539 . S
C343 H357 0.958 . S
C343 H358 0.961 . S
C343 H359 0.960 . S
H344 C328 0.931 . S
H345 C333 0.929 . S
H346 C334 0.960 . S
H347 C334 0.962 . S
H348 C334 0.960 . S
H349 C335 0.961 . S
H350 C335 0.963 . S
H351 C335 0.961 1_545 S
H352 C336 0.931 . S
H353 C341 0.930 . S
H354 C342 0.956 . S
H355 C342 0.961 . S
H356 C342 0.961 . S
H357 C343 0.958 . S
H358 C343 0.961 . S
H359 C343 0.960 . S
C360 C361 1.391 . S
C360 C362 1.394 . S
C360 H376 0.931 . S
C361 C360 1.391 . S
C361 C365 1.376 . S
C362 C360 1.394 . S
C362 C363 1.369 . S
C362 C366 1.531 . S
C363 C362 1.369 . S
C363 C364 1.410 . S
C363 C371 1.503 . S
C364 C363 1.410 . S
C364 C365 1.392 . S
C364 C367 1.511 . S
C365 C361 1.376 . S
C365 C364 1.392 . S
C365 H377 0.929 . S
C366 C362 1.531 . S
C366 H378 0.960 . S
C366 H379 0.962 . S
C366 H380 0.960 . S
C367 C364 1.511 . S
C367 H381 0.961 . S
C367 H382 0.961 . S
C367 H383 0.961 . S
C368 C369 1.370 . S
C368 C370 1.363 . S
C368 H384 0.931 . S
C369 C368 1.370 . S
C369 C373 1.408 . S
C370 C368 1.363 . S
C370 C371 1.370 . S
C370 C374 1.524 . S
C371 C363 1.503 . S
C371 C370 1.370 . S
C371 C372 1.403 . S
C372 C371 1.403 . S
C372 C373 1.404 . S
C372 C375 1.539 . S
C373 C369 1.408 . S
C373 C372 1.404 . S
C373 H385 0.930 . S
C374 C370 1.524 . S
C374 H386 0.956 . S
C374 H387 0.961 . S
C374 H388 0.961 . S
C375 C372 1.539 . S
C375 H389 0.958 . S
C375 H390 0.961 . S
C375 H391 0.960 . S
H376 C360 0.931 . S
H377 C365 0.929 . S
H378 C366 0.960 . S
H379 C366 0.962 . S
H380 C366 0.960 . S
H381 C367 0.961 . S
H382 C367 0.961 . S
H383 C367 0.961 . S
H384 C368 0.931 . S
H385 C373 0.930 . S
H386 C374 0.956 . S
H387 C374 0.961 . S
H388 C374 0.961 . S
H389 C375 0.958 . S
H390 C375 0.961 . S
H391 C375 0.960 . S
C392 C393 1.391 . S
C392 C394 1.394 . S
C392 H408 0.931 . S
C393 C392 1.391 . S
C393 C397 1.376 . S
C394 C392 1.394 . S
C394 C395 1.369 . S
C394 C398 1.531 . S
C395 C394 1.369 . S
C395 C396 1.410 . S
C395 C403 1.503 . S
C396 C395 1.410 . S
C396 C397 1.392 . S
C396 C399 1.511 . S
C397 C393 1.376 . S
C397 C396 1.392 . S
C397 H409 0.929 . S
C398 C394 1.531 . S
C398 H410 0.960 . S
C398 H411 0.962 . S
C398 H412 0.960 . S
C399 C396 1.511 . S
C399 H413 0.961 . S
C399 H414 0.961 . S
C399 H415 0.961 . S
C400 C401 1.370 . S
C400 C402 1.363 . S
C400 H416 0.931 . S
C401 C400 1.370 . S
C401 C405 1.408 . S
C402 C400 1.363 . S
C402 C403 1.370 . S
C402 C406 1.524 . S
C403 C395 1.503 . S
C403 C402 1.370 . S
C403 C404 1.403 . S
C404 C403 1.403 . S
C404 C405 1.404 . S
C404 C407 1.539 . S
C405 C401 1.408 . S
C405 C404 1.404 . S
C405 H417 0.930 . S
C406 C402 1.524 . S
C406 H418 0.956 . S
C406 H419 0.961 . S
C406 H420 0.961 . S
C407 C404 1.539 . S
C407 H421 0.958 . S
C407 H422 0.961 . S
C407 H423 0.960 . S
H408 C392 0.931 . S
H409 C397 0.929 . S
H410 C398 0.960 . S
H411 C398 0.962 . S
H412 C398 0.960 . S
H413 C399 0.961 . S
H414 C399 0.961 . S
H415 C399 0.961 . S
H416 C400 0.931 . S
H417 C405 0.930 . S
H418 C406 0.956 . S
H419 C406 0.961 . S
H420 C406 0.961 . S
H421 C407 0.958 . S
H422 C407 0.961 . S
H423 C407 0.960 . S
C424 C425 1.391 . S
C424 C426 1.394 . S
C424 H440 0.931 . S
C425 C424 1.391 . S
C425 C429 1.376 . S
C426 C424 1.394 . S
C426 C427 1.369 . S
C426 C430 1.531 . S
C427 C426 1.369 . S
C427 C428 1.410 . S
C427 C435 1.503 . S
C428 C427 1.410 . S
C428 C429 1.392 . S
C428 C431 1.511 . S
C429 C425 1.376 . S
C429 C428 1.392 . S
C429 H441 0.929 . S
C430 C426 1.531 . S
C430 H442 0.960 . S
C430 H443 0.962 . S
C430 H444 0.960 . S
C431 C428 1.511 . S
C431 H445 0.961 . S
C431 H446 0.961 . S
C431 H447 0.961 . S
C432 C433 1.370 . S
C432 C434 1.363 . S
C432 H448 0.931 . S
C433 C432 1.370 . S
C433 C437 1.408 . S
C434 C432 1.363 . S
C434 C435 1.370 . S
C434 C438 1.524 . S
C435 C427 1.503 . S
C435 C434 1.370 . S
C435 C436 1.403 . S
C436 C435 1.403 . S
C436 C437 1.404 . S
C436 C439 1.539 . S
C437 C433 1.408 . S
C437 C436 1.404 . S
C437 H449 0.930 . S
C438 C434 1.524 . S
C438 H450 0.956 . S
C438 H451 0.961 . S
C438 H452 0.961 . S
C439 C436 1.539 . S
C439 H453 0.958 . S
C439 H454 0.961 . S
C439 H455 0.960 . S
H440 C424 0.931 . S
H441 C429 0.929 . S
H442 C430 0.960 . S
H443 C430 0.962 . S
H444 C430 0.960 . S
H445 C431 0.961 . S
H446 C431 0.961 . S
H447 C431 0.961 . S
H448 C432 0.931 . S
H449 C437 0.930 . S
H450 C438 0.956 . S
H451 C438 0.961 . S
H452 C438 0.961 . S
H453 C439 0.958 . S
H454 C439 0.961 . S
H455 C439 0.960 . S
C456 C457 1.391 . S
C456 C458 1.394 . S
C456 H472 0.931 . S
C457 C456 1.391 . S
C457 C461 1.376 . S
C458 C456 1.394 . S
C458 C459 1.369 . S
C458 C462 1.531 . S
C459 C458 1.369 . S
C459 C460 1.410 . S
C459 C467 1.503 . S
C460 C459 1.410 . S
C460 C461 1.392 . S
C460 C463 1.511 . S
C461 C457 1.376 . S
C461 C460 1.392 . S
C461 H473 0.929 . S
C462 C458 1.531 . S
C462 H474 0.960 . S
C462 H475 0.962 . S
C462 H476 0.960 . S
C463 C460 1.511 . S
C463 H477 0.961 . S
C463 H478 0.961 . S
C463 H479 0.961 . S
C464 C465 1.370 . S
C464 C466 1.363 . S
C464 H480 0.931 . S
C465 C464 1.370 . S
C465 C469 1.408 . S
C466 C464 1.363 . S
C466 C467 1.370 . S
C466 C470 1.524 . S
C467 C459 1.503 . S
C467 C466 1.370 . S
C467 C468 1.403 . S
C468 C467 1.403 . S
C468 C469 1.404 . S
C468 C471 1.539 . S
C469 C465 1.408 . S
C469 C468 1.404 . S
C469 H481 0.930 . S
C470 C466 1.524 . S
C470 H482 0.956 . S
C470 H483 0.961 . S
C470 H484 0.961 . S
C471 C468 1.539 . S
C471 H485 0.958 . S
C471 H486 0.961 . S
C471 H487 0.960 . S
H472 C456 0.931 . S
H473 C461 0.929 . S
H474 C462 0.960 . S
H475 C462 0.962 . S
H476 C462 0.960 . S
H477 C463 0.961 . S
H478 C463 0.961 . S
H479 C463 0.961 . S
H480 C464 0.931 . S
H481 C469 0.930 . S
H482 C470 0.956 . S
H483 C470 0.961 . S
H484 C470 0.961 . S
H485 C471 0.958 . S
H486 C471 0.961 . S
H487 C471 0.960 . S
C488 C489 1.391 . S
C488 C490 1.394 . S
C488 H504 0.931 . S
C489 C488 1.391 . S
C489 C493 1.376 . S
C490 C488 1.394 . S
C490 C491 1.369 . S
C490 C494 1.531 . S
C491 C490 1.369 . S
C491 C492 1.410 . S
C491 C499 1.503 . S
C492 C491 1.410 . S
C492 C493 1.392 . S
C492 C495 1.511 . S
C493 C489 1.376 . S
C493 C492 1.392 . S
C493 H505 0.929 . S
C494 C490 1.531 . S
C494 H506 0.960 . S
C494 H507 0.962 . S
C494 H508 0.960 . S
C495 C492 1.511 . S
C495 H509 0.961 . S
C495 H510 0.961 . S
C495 H511 0.961 . S
C496 C497 1.370 . S
C496 C498 1.363 . S
C496 H512 0.931 . S
C497 C496 1.370 . S
C497 C501 1.408 . S
C498 C496 1.363 . S
C498 C499 1.370 . S
C498 C502 1.524 . S
C499 C491 1.503 . S
C499 C498 1.370 . S
C499 C500 1.403 . S
C500 C499 1.403 . S
C500 C501 1.404 . S
C500 C503 1.539 . S
C501 C497 1.408 . S
C501 C500 1.404 . S
C501 H513 0.930 . S
C502 C498 1.524 . S
C502 H514 0.956 . S
C502 H515 0.961 . S
C502 H516 0.961 . S
C503 C500 1.539 . S
C503 H517 0.958 . S
C503 H518 0.961 . S
C503 H519 0.960 . S
H504 C488 0.931 . S
H505 C493 0.929 . S
H506 C494 0.960 . S
H507 C494 0.962 . S
H508 C494 0.960 . S
H509 C495 0.961 . S
H510 C495 0.961 . S
H511 C495 0.961 . S
H512 C496 0.931 . S
H513 C501 0.930 . S
H514 C502 0.956 . S
H515 C502 0.961 . S
H516 C502 0.961 . S
H517 C503 0.958 . S
H518 C503 0.961 . S
H519 C503 0.960 . S
C520 C521 1.391 . S
C520 C522 1.394 . S
C520 H536 0.931 . S
C521 C520 1.391 . S
C521 C525 1.376 . S
C522 C520 1.394 . S
C522 C523 1.369 . S
C522 C526 1.531 . S
C523 C522 1.369 . S
C523 C524 1.410 . S
C523 C531 1.503 . S
C524 C523 1.410 . S
C524 C525 1.392 . S
C524 C527 1.511 . S
C525 C521 1.376 . S
C525 C524 1.392 . S
C525 H537 0.929 . S
C526 C522 1.531 . S
C526 H538 0.960 . S
C526 H539 0.962 . S
C526 H540 0.960 . S
C527 C524 1.511 . S
C527 H541 0.961 . S
C527 H542 0.961 . S
C527 H543 0.961 . S
C528 C529 1.370 . S
C528 C530 1.363 . S
C528 H544 0.931 . S
C529 C528 1.370 . S
C529 C533 1.408 . S
C530 C528 1.363 . S
C530 C531 1.370 . S
C530 C534 1.524 . S
C531 C523 1.503 . S
C531 C530 1.370 . S
C531 C532 1.403 . S
C532 C531 1.403 . S
C532 C533 1.404 . S
C532 C535 1.539 . S
C533 C529 1.408 . S
C533 C532 1.404 . S
C533 H545 0.930 . S
C534 C530 1.524 . S
C534 H546 0.956 . S
C534 H547 0.961 . S
C534 H548 0.961 . S
C535 C532 1.539 . S
C535 H549 0.958 . S
C535 H550 0.961 . S
C535 H551 0.960 . S
H536 C520 0.931 . S
H537 C525 0.929 . S
H538 C526 0.960 . S
H539 C526 0.962 . S
H540 C526 0.960 . S
H541 C527 0.961 . S
H542 C527 0.961 . S
H543 C527 0.961 . S
H544 C528 0.931 . S
H545 C533 0.930 . S
H546 C534 0.956 . S
H547 C534 0.961 . S
H548 C534 0.961 . S
H549 C535 0.958 . S
H550 C535 0.961 . S
H551 C535 0.960 . S
C552 C553 1.391 . S
C552 C554 1.394 . S
C552 H568 0.931 . S
C553 C552 1.391 . S
C553 C557 1.376 . S
C554 C552 1.394 . S
C554 C555 1.369 . S
C554 C558 1.531 . S
C555 C554 1.369 . S
C555 C556 1.410 . S
C555 C563 1.503 . S
C556 C555 1.410 . S
C556 C557 1.392 . S
C556 C559 1.511 . S
C557 C553 1.376 . S
C557 C556 1.392 . S
C557 H569 0.929 . S
C558 C554 1.531 . S
C558 H570 0.960 . S
C558 H571 0.962 . S
C558 H572 0.960 . S
C559 C556 1.511 . S
C559 H573 0.961 . S
C559 H574 0.961 . S
C559 H575 0.961 . S
C560 C561 1.370 . S
C560 C562 1.363 . S
C560 H576 0.931 . S
C561 C560 1.370 . S
C561 C565 1.408 . S
C562 C560 1.363 . S
C562 C563 1.370 . S
C562 C566 1.524 . S
C563 C555 1.503 . S
C563 C562 1.370 . S
C563 C564 1.403 . S
C564 C563 1.403 . S
C564 C565 1.404 . S
C564 C567 1.539 . S
C565 C561 1.408 . S
C565 C564 1.404 . S
C565 H577 0.930 . S
C566 C562 1.524 . S
C566 H578 0.956 . S
C566 H579 0.961 . S
C566 H580 0.961 . S
C567 C564 1.539 . S
C567 H581 0.958 . S
C567 H582 0.961 . S
C567 H583 0.960 . S
H568 C552 0.931 . S
H569 C557 0.929 . S
H570 C558 0.960 . S
H571 C558 0.962 . S
H572 C558 0.960 . S
H573 C559 0.961 . S
H574 C559 0.961 . S
H575 C559 0.961 . S
H576 C560 0.931 . S
H577 C565 0.930 . S
H578 C566 0.956 . S
H579 C566 0.961 . S
H580 C566 0.961 . S
H581 C567 0.958 . S
H582 C567 0.961 . S
H583 C567 0.960 . S
C584 C585 1.391 . S
C584 C586 1.394 . S
C584 H600 0.931 . S
C585 C584 1.391 . S
C585 C589 1.376 . S
C586 C584 1.394 . S
C586 C587 1.369 . S
C586 C590 1.531 . S
C587 C586 1.369 . S
C587 C588 1.410 . S
C587 C595 1.503 . S
C588 C587 1.410 . S
C588 C589 1.392 . S
C588 C591 1.511 . S
C589 C585 1.376 . S
C589 C588 1.392 . S
C589 H601 0.929 . S
C590 C586 1.531 . S
C590 H602 0.960 . S
C590 H603 0.962 . S
C590 H604 0.960 . S
C591 C588 1.511 . S
C591 H605 0.961 . S
C591 H606 0.961 . S
C591 H607 0.961 . S
C592 C593 1.370 . S
C592 C594 1.363 . S
C592 H608 0.931 . S
C593 C592 1.370 . S
C593 C597 1.408 . S
C594 C592 1.363 . S
C594 C595 1.370 . S
C594 C598 1.524 . S
C595 C587 1.503 . S
C595 C594 1.370 . S
C595 C596 1.403 . S
C596 C595 1.403 . S
C596 C597 1.404 . S
C596 C599 1.539 . S
C597 C593 1.408 . S
C597 C596 1.404 . S
C597 H609 0.930 . S
C598 C594 1.524 . S
C598 H610 0.956 . S
C598 H611 0.961 . S
C598 H612 0.961 . S
C599 C596 1.539 . S
C599 H613 0.958 . S
C599 H614 0.961 . S
C599 H615 0.960 . S
H600 C584 0.931 . S
H601 C589 0.929 . S
H602 C590 0.960 . S
H603 C590 0.962 . S
H604 C590 0.960 . S
H605 C591 0.961 . S
H606 C591 0.961 . S
H607 C591 0.961 . S
H608 C592 0.931 . S
H609 C597 0.930 . S
H610 C598 0.956 . S
H611 C598 0.961 . S
H612 C598 0.961 . S
H613 C599 0.958 . S
H614 C599 0.961 . S
H615 C599 0.960 . S
C616 C617 1.391 . S
C616 C618 1.394 . S
C616 H632 0.931 . S
C617 C616 1.391 . S
C617 C621 1.376 . S
C618 C616 1.394 . S
C618 C619 1.369 . S
C618 C622 1.531 . S
C619 C618 1.369 . S
C619 C620 1.410 . S
C619 C627 1.503 1_565 S
C620 C619 1.410 . S
C620 C621 1.392 . S
C620 C623 1.511 . S
C621 C617 1.376 . S
C621 C620 1.392 . S
C621 H633 0.929 . S
C622 C618 1.531 . S
C622 H634 0.960 . S
C622 H635 0.962 . S
C622 H636 0.960 . S
C623 C620 1.511 . S
C623 H637 0.961 . S
C623 H638 0.961 1_565 S
C623 H639 0.961 . S
C624 C625 1.370 . S
C624 C626 1.363 . S
C624 H640 0.931 . S
C625 C624 1.370 . S
C625 C629 1.408 . S
C626 C624 1.363 . S
C626 C627 1.370 . S
C626 C630 1.524 . S
C627 C619 1.503 1_545 S
C627 C626 1.370 . S
C627 C628 1.403 . S
C628 C627 1.403 . S
C628 C629 1.404 . S
C628 C631 1.539 . S
C629 C625 1.408 . S
C629 C628 1.404 . S
C629 H641 0.930 . S
C630 C626 1.524 . S
C630 H642 0.956 1_545 S
C630 H643 0.961 1_545 S
C630 H644 0.961 . S
C631 C628 1.539 . S
C631 H645 0.958 . S
C631 H646 0.961 . S
C631 H647 0.960 . S
H632 C616 0.931 . S
H633 C621 0.929 . S
H634 C622 0.960 . S
H635 C622 0.962 . S
H636 C622 0.960 . S
H637 C623 0.961 . S
H638 C623 0.961 1_545 S
H639 C623 0.961 . S
H640 C624 0.931 . S
H641 C629 0.930 . S
H642 C630 0.956 1_565 S
H643 C630 0.961 1_565 S
H644 C630 0.961 . S
H645 C631 0.958 . S
H646 C631 0.961 . S
H647 C631 0.960 . S
C648 C649 1.391 . S
C648 C650 1.394 . S
C648 H664 0.931 . S
C649 C648 1.391 . S
C649 C653 1.376 . S
C650 C648 1.394 . S
C650 C651 1.369 . S
C650 C654 1.531 . S
C651 C650 1.369 . S
C651 C652 1.410 . S
C651 C659 1.503 1_455 S
C652 C651 1.410 . S
C652 C653 1.392 . S
C652 C655 1.511 . S
C653 C649 1.376 . S
C653 C652 1.392 . S
C653 H665 0.929 . S
C654 C650 1.531 . S
C654 H666 0.960 1_455 S
C654 H667 0.944 1_455 S
C654 H668 0.960 . S
C655 C652 1.511 . S
C655 H669 0.961 . S
C655 H670 0.961 . S
C655 H671 0.961 . S
C656 C657 1.370 . S
C656 C658 1.363 . S
C656 H672 0.931 . S
C657 C656 1.370 . S
C657 C661 1.408 . S
C658 C656 1.363 . S
C658 C659 1.370 . S
C658 C662 1.524 . S
C659 C651 1.503 1_655 S
C659 C658 1.370 . S
C659 C660 1.403 . S
C660 C659 1.403 . S
C660 C661 1.404 . S
C660 C663 1.545 . S
C661 C657 1.408 . S
C661 C660 1.404 . S
C661 H673 0.930 . S
C662 C658 1.524 . S
C662 H674 0.956 . S
C662 H675 0.961 1_655 S
C662 H676 0.961 . S
C663 C660 1.545 . S
C663 H677 0.959 . S
C663 H678 0.965 . S
C663 H679 0.950 1_655 S
H664 C648 0.931 . S
H665 C653 0.929 . S
H666 C654 0.960 1_655 S
H667 C654 0.944 1_655 S
H668 C654 0.960 . S
H669 C655 0.961 . S
H670 C655 0.961 . S
H671 C655 0.961 . S
H672 C656 0.931 . S
H673 C661 0.930 . S
H674 C662 0.956 . S
H675 C662 0.961 1_455 S
H676 C662 0.961 . S
H677 C663 0.959 . S
H678 C663 0.965 . S
H679 C663 0.950 1_455 S
C680 C681 1.391 . S
C680 C682 1.394 . S
C680 H696 0.931 . S
C681 C680 1.391 . S
C681 C685 1.376 . S
C682 C680 1.394 . S
C682 C683 1.369 . S
C682 C686 1.531 . S
C683 C682 1.369 . S
C683 C684 1.410 . S
C683 C691 1.503 1_545 S
C684 C683 1.410 . S
C684 C685 1.392 . S
C684 C687 1.511 . S
C685 C681 1.376 . S
C685 C684 1.392 . S
C685 H697 0.929 . S
C686 C682 1.531 . S
C686 H698 0.960 . S
C686 H699 0.962 . S
C686 H700 0.960 . S
C687 C684 1.511 . S
C687 H701 0.961 . S
C687 H702 0.936 1_545 S
C687 H703 0.961 . S
C688 C689 1.370 . S
C688 C690 1.363 . S
C688 H704 0.931 . S
C689 C688 1.370 . S
C689 C693 1.408 . S
C690 C688 1.363 . S
C690 C691 1.370 . S
C690 C694 1.524 . S
C691 C683 1.503 1_565 S
C691 C690 1.370 . S
C691 C692 1.403 . S
C692 C691 1.403 . S
C692 C693 1.404 . S
C692 C695 1.539 1_565 S
C693 C689 1.408 . S
C693 C692 1.404 . S
C693 H705 0.930 . S
C694 C690 1.524 . S
C694 H706 0.956 . S
C694 H707 0.961 . S
C694 H708 0.961 . S
C695 C692 1.539 1_545 S
C695 H709 0.958 . S
C695 H710 0.961 . S
C695 H711 0.960 . S
H696 C680 0.931 . S
H697 C685 0.929 . S
H698 C686 0.960 . S
H699 C686 0.962 . S
H700 C686 0.960 . S
H701 C687 0.961 . S
H702 C687 0.936 1_565 S
H703 C687 0.961 . S
H704 C688 0.931 . S
H705 C693 0.930 . S
H706 C694 0.956 . S
H707 C694 0.961 . S
H708 C694 0.961 . S
H709 C695 0.958 . S
H710 C695 0.961 . S
H711 C695 0.960 . S
C712 C713 1.391 . S
C712 C714 1.394 . S
C712 H728 0.931 . S
C713 C712 1.391 . S
C713 C717 1.376 . S
C714 C712 1.394 . S
C714 C715 1.369 . S
C714 C718 1.531 . S
C715 C714 1.369 . S
C715 C716 1.410 . S
C715 C723 1.503 1_655 S
C716 C715 1.410 . S
C716 C717 1.392 . S
C716 C719 1.511 1_655 S
C717 C713 1.376 . S
C717 C716 1.392 . S
C717 H729 0.929 . S
C718 C714 1.531 . S
C718 H730 0.960 . S
C718 H731 0.962 . S
C718 H732 0.960 . S
C719 C716 1.511 1_455 S
C719 H733 0.961 . S
C719 H734 0.961 . S
C719 H735 0.961 . S
C720 C721 1.370 . S
C720 C722 1.363 . S
C720 H736 0.931 . S
C721 C720 1.370 . S
C721 C725 1.408 . S
C722 C720 1.363 . S
C722 C723 1.370 . S
C722 C726 1.524 . S
C723 C715 1.503 1_455 S
C723 C722 1.370 . S
C723 C724 1.403 . S
C724 C723 1.403 . S
C724 C725 1.404 . S
C724 C727 1.539 . S
C725 C721 1.408 . S
C725 C724 1.404 . S
C725 H737 0.930 . S
C726 C722 1.524 . S
C726 H738 0.956 . S
C726 H739 0.961 . S
C726 H740 0.961 . S
C727 C724 1.539 . S
C727 H741 0.958 . S
C727 H742 0.961 . S
C727 H743 0.960 . S
H728 C712 0.931 . S
H729 C717 0.929 . S
H730 C718 0.960 . S
H731 C718 0.962 . S
H732 C718 0.960 . S
H733 C719 0.961 . S
H734 C719 0.961 . S
H735 C719 0.961 . S
H736 C720 0.931 . S
H737 C725 0.930 . S
H738 C726 0.956 . S
H739 C726 0.961 . S
H740 C726 0.961 . S
H741 C727 0.958 . S
H742 C727 0.961 . S
H743 C727 0.960 . S
C744 C745 1.391 . S
C744 C746 1.394 . S
C744 H760 0.931 . S
C745 C744 1.391 . S
C745 C749 1.376 . S
C746 C744 1.394 . S
C746 C747 1.369 . S
C746 C750 1.531 1_565 S
C747 C746 1.369 . S
C747 C748 1.410 . S
C747 C755 1.503 1_565 S
C748 C747 1.410 . S
C748 C749 1.392 . S
C748 C751 1.511 . S
C749 C745 1.376 . S
C749 C748 1.392 . S
C749 H761 0.929 . S
C750 C746 1.531 1_545 S
C750 H762 0.960 . S
C750 H763 0.962 1_545 S
C750 H764 0.959 . S
C751 C748 1.511 . S
C751 H765 0.961 . S
C751 H766 0.961 . S
C751 H767 0.961 . S
C752 C753 1.370 . S
C752 C754 1.363 . S
C752 H768 0.931 . S
C753 C752 1.370 . S
C753 C757 1.408 . S
C754 C752 1.363 . S
C754 C755 1.370 . S
C754 C758 1.524 1_545 S
C755 C747 1.503 1_545 S
C755 C754 1.370 . S
C755 C756 1.403 . S
C756 C755 1.403 . S
C756 C757 1.404 . S
C756 C759 1.539 . S
C757 C753 1.408 . S
C757 C756 1.404 . S
C757 H769 0.930 . S
C758 C754 1.524 1_565 S
C758 H770 0.956 . S
C758 H771 0.961 . S
C758 H772 0.961 . S
C759 C756 1.539 . S
C759 H773 0.958 . S
C759 H774 0.961 . S
C759 H775 0.960 . S
H760 C744 0.931 . S
H761 C749 0.929 . S
H762 C750 0.960 . S
H763 C750 0.962 1_565 S
H764 C750 0.959 . S
H765 C751 0.961 . S
H766 C751 0.961 . S
H767 C751 0.961 . S
H768 C752 0.931 . S
H769 C757 0.930 . S
H770 C758 0.956 . S
H771 C758 0.961 . S
H772 C758 0.961 . S
H773 C759 0.958 . S
H774 C759 0.961 . S
H775 C759 0.960 . S
C776 C777 1.391 . S
C776 C778 1.394 . S
C776 H792 0.931 . S
C777 C776 1.391 . S
C777 C781 1.376 . S
C778 C776 1.394 . S
C778 C779 1.369 . S
C778 C782 1.531 . S
C779 C778 1.369 . S
C779 C780 1.410 . S
C779 C787 1.503 1_455 S
C780 C779 1.410 . S
C780 C781 1.392 . S
C780 C783 1.511 . S
C781 C777 1.376 . S
C781 C780 1.392 . S
C781 H793 0.929 . S
C782 C778 1.531 . S
C782 H794 0.960 1_455 S
C782 H795 0.962 . S
C782 H796 0.960 . S
C783 C780 1.511 . S
C783 H797 0.961 . S
C783 H798 0.961 . S
C783 H799 0.961 . S
C784 C785 1.370 . S
C784 C786 1.363 1_655 S
C784 H800 0.931 . S
C785 C784 1.370 . S
C785 C789 1.408 . S
C786 C784 1.363 1_455 S
C786 C787 1.370 1_455 S
C786 C790 1.524 . S
C787 C779 1.503 1_655 S
C787 C786 1.370 1_655 S
C787 C788 1.403 . S
C788 C787 1.403 . S
C788 C789 1.404 . S
C788 C791 1.539 . S
C789 C785 1.408 . S
C789 C788 1.404 . S
C789 H801 0.930 . S
C790 C786 1.524 . S
C790 H802 0.956 . S
C790 H803 0.961 . S
C790 H804 0.961 . S
C791 C788 1.539 . S
C791 H805 0.958 . S
C791 H806 0.961 . S
C791 H807 0.960 . S
H792 C776 0.931 . S
H793 C781 0.929 . S
H794 C782 0.960 1_655 S
H795 C782 0.962 . S
H796 C782 0.960 . S
H797 C783 0.961 . S
H798 C783 0.961 . S
H799 C783 0.961 . S
H800 C784 0.931 . S
H801 C789 0.930 . S
H802 C790 0.956 . S
H803 C790 0.961 . S
H804 C790 0.961 . S
H805 C791 0.958 . S
H806 C791 0.961 . S
H807 C791 0.960 . S
C808 C809 1.391 . S
C808 C810 1.394 . S
C808 H824 0.931 . S
C809 C808 1.391 . S
C809 C813 1.376 . S
C810 C808 1.394 . S
C810 C811 1.369 . S
C810 C814 1.531 . S
C811 C810 1.369 . S
C811 C812 1.410 . S
C811 C819 1.503 1_545 S
C812 C811 1.410 . S
C812 C813 1.392 . S
C812 C815 1.511 1_545 S
C813 C809 1.376 . S
C813 C812 1.392 . S
C813 H825 0.929 . S
C814 C810 1.531 . S
C814 H826 0.960 . S
C814 H827 0.962 . S
C814 H828 0.960 . S
C815 C812 1.511 1_565 S
C815 H829 0.961 . S
C815 H830 0.961 . S
C815 H831 0.961 . S
C816 C817 1.370 . S
C816 C818 1.363 . S
C816 H832 0.931 . S
C817 C816 1.370 . S
C817 C821 1.408 . S
C818 C816 1.363 . S
C818 C819 1.370 . S
C818 C822 1.524 . S
C819 C811 1.503 1_565 S
C819 C818 1.370 . S
C819 C820 1.403 . S
C820 C819 1.403 . S
C820 C821 1.404 . S
C820 C823 1.539 1_565 S
C821 C817 1.408 . S
C821 C820 1.404 . S
C821 H833 0.930 . S
C822 C818 1.524 . S
C822 H834 0.956 . S
C822 H835 0.961 . S
C822 H836 0.961 . S
C823 C820 1.539 1_545 S
C823 H837 0.958 . S
C823 H838 0.961 . S
C823 H839 0.960 . S
H824 C808 0.931 . S
H825 C813 0.929 . S
H826 C814 0.960 . S
H827 C814 0.962 . S
H828 C814 0.960 . S
H829 C815 0.961 . S
H830 C815 0.961 . S
H831 C815 0.961 . S
H832 C816 0.931 . S
H833 C821 0.930 . S
H834 C822 0.956 . S
H835 C822 0.961 . S
H836 C822 0.961 . S
H837 C823 0.958 . S
H838 C823 0.961 . S
H839 C823 0.960 . S
C840 C841 1.391 . S
C840 C842 1.394 . S
C840 H856 0.931 . S
C841 C840 1.391 . S
C841 C845 1.376 . S
C842 C840 1.394 . S
C842 C843 1.369 . S
C842 C846 1.531 . S
C843 C842 1.369 . S
C843 C844 1.410 . S
C843 C851 1.507 1_455 S
C844 C843 1.410 . S
C844 C845 1.392 . S
C844 C847 1.511 1_455 S
C845 C841 1.376 . S
C845 C844 1.392 . S
C845 H857 0.929 . S
C846 C842 1.531 . S
C846 H858 0.960 . S
C846 H859 0.962 . S
C846 H860 0.960 . S
C847 C844 1.511 1_655 S
C847 H861 0.961 . S
C847 H862 0.961 . S
C847 H863 0.961 . S
C848 C849 1.370 . S
C848 C850 1.363 . S
C848 H864 0.931 . S
C849 C848 1.370 . S
C849 C853 1.408 . S
C850 C848 1.363 . S
C850 C851 1.370 . S
C850 C854 1.524 1_655 S
C851 C843 1.507 1_655 S
C851 C850 1.370 . S
C851 C852 1.400 . S
C852 C851 1.400 . S
C852 C853 1.404 . S
C852 C855 1.539 . S
C853 C849 1.408 . S
C853 C852 1.404 . S
C853 H865 0.930 . S
C854 C850 1.524 1_455 S
C854 H866 0.956 . S
C854 H867 0.961 . S
C854 H868 0.961 . S
C855 C852 1.539 . S
C855 H869 0.958 . S
C855 H870 0.961 . S
C855 H871 0.960 . S
H856 C840 0.931 . S
H857 C845 0.929 . S
H858 C846 0.960 . S
H859 C846 0.962 . S
H860 C846 0.960 . S
H861 C847 0.961 . S
H862 C847 0.961 . S
H863 C847 0.961 . S
H864 C848 0.931 . S
H865 C853 0.930 . S
H866 C854 0.956 . S
H867 C854 0.961 . S
H868 C854 0.961 . S
H869 C855 0.958 . S
H870 C855 0.961 . S
H871 C855 0.960 . S
C872 C873 1.391 . S
C872 C874 1.394 . S
C872 H888 0.931 . S
C873 C872 1.391 . S
C873 C877 1.376 . S
C874 C872 1.394 . S
C874 C875 1.369 . S
C874 C878 1.531 . S
C875 C874 1.369 . S
C875 C876 1.410 . S
C875 C883 1.503 . S
C876 C875 1.410 . S
C876 C877 1.392 . S
C876 C879 1.511 . S
C877 C873 1.376 . S
C877 C876 1.392 . S
C877 H889 0.929 . S
C878 C874 1.531 . S
C878 H890 0.960 . S
C878 H891 0.962 . S
C878 H892 0.960 . S
C879 C876 1.511 . S
C879 H893 0.961 . S
C879 H894 0.961 . S
C879 H895 0.961 . S
C880 C881 1.370 . S
C880 C882 1.363 . S
C880 H896 0.931 . S
C881 C880 1.370 . S
C881 C885 1.408 . S
C882 C880 1.363 . S
C882 C883 1.370 . S
C882 C886 1.524 . S
C883 C875 1.503 . S
C883 C882 1.370 . S
C883 C884 1.403 . S
C884 C883 1.403 . S
C884 C885 1.404 . S
C884 C887 1.539 . S
C885 C881 1.408 . S
C885 C884 1.404 . S
C885 H897 0.930 . S
C886 C882 1.524 . S
C886 H898 0.956 . S
C886 H899 0.961 . S
C886 H900 0.961 . S
C887 C884 1.539 . S
C887 H901 0.958 . S
C887 H902 0.961 . S
C887 H903 0.960 . S
H888 C872 0.931 . S
H889 C877 0.929 . S
H890 C878 0.960 . S
H891 C878 0.962 . S
H892 C878 0.960 . S
H893 C879 0.961 . S
H894 C879 0.961 . S
H895 C879 0.961 . S
H896 C880 0.931 . S
H897 C885 0.930 . S
H898 C886 0.956 . S
H899 C886 0.961 . S
H900 C886 0.961 . S
H901 C887 0.958 . S
H902 C887 0.961 . S
H903 C887 0.960 . S
C904 C905 1.391 . S
C904 C906 1.394 . S
C904 H920 0.931 . S
C905 C904 1.391 . S
C905 C909 1.376 . S
C906 C904 1.394 . S
C906 C907 1.369 . S
C906 C910 1.531 . S
C907 C906 1.369 . S
C907 C908 1.410 . S
C907 C915 1.503 . S
C908 C907 1.410 . S
C908 C909 1.392 . S
C908 C911 1.511 . S
C909 C905 1.376 . S
C909 C908 1.392 . S
C909 H921 0.929 . S
C910 C906 1.531 . S
C910 H922 0.960 . S
C910 H923 0.962 . S
C910 H924 0.960 . S
C911 C908 1.511 . S
C911 H925 0.961 . S
C911 H926 0.961 . S
C911 H927 0.961 . S
C912 C913 1.370 . S
C912 C914 1.363 . S
C912 H928 0.931 . S
C913 C912 1.370 . S
C913 C917 1.408 . S
C914 C912 1.363 . S
C914 C915 1.370 . S
C914 C918 1.524 . S
C915 C907 1.503 . S
C915 C914 1.370 . S
C915 C916 1.403 . S
C916 C915 1.403 . S
C916 C917 1.404 . S
C916 C919 1.539 . S
C917 C913 1.408 . S
C917 C916 1.404 . S
C917 H929 0.930 . S
C918 C914 1.524 . S
C918 H930 0.956 . S
C918 H931 0.961 . S
C918 H932 0.961 . S
C919 C916 1.539 . S
C919 H933 0.958 . S
C919 H934 0.961 . S
C919 H935 0.960 . S
H920 C904 0.931 . S
H921 C909 0.929 . S
H922 C910 0.960 . S
H923 C910 0.962 . S
H924 C910 0.960 . S
H925 C911 0.961 . S
H926 C911 0.961 . S
H927 C911 0.961 . S
H928 C912 0.931 . S
H929 C917 0.930 . S
H930 C918 0.956 . S
H931 C918 0.961 . S
H932 C918 0.961 . S
H933 C919 0.958 . S
H934 C919 0.961 . S
H935 C919 0.960 . S
C936 C937 1.391 . S
C936 C938 1.394 . S
C936 H952 0.931 . S
C937 C936 1.391 . S
C937 C941 1.376 . S
C938 C936 1.394 . S
C938 C939 1.369 . S
C938 C942 1.531 . S
C939 C938 1.369 . S
C939 C940 1.410 . S
C939 C947 1.503 . S
C940 C939 1.410 . S
C940 C941 1.392 . S
C940 C943 1.511 . S
C941 C937 1.376 . S
C941 C940 1.392 . S
C941 H953 0.929 . S
C942 C938 1.531 . S
C942 H954 0.960 . S
C942 H955 0.962 . S
C942 H956 0.960 . S
C943 C940 1.511 . S
C943 H957 0.961 . S
C943 H958 0.961 . S
C943 H959 0.961 . S
C944 C945 1.370 . S
C944 C946 1.363 . S
C944 H960 0.931 . S
C945 C944 1.370 . S
C945 C949 1.408 . S
C946 C944 1.363 . S
C946 C947 1.370 . S
C946 C950 1.524 . S
C947 C939 1.503 . S
C947 C946 1.370 . S
C947 C948 1.403 . S
C948 C947 1.403 . S
C948 C949 1.404 . S
C948 C951 1.539 . S
C949 C945 1.408 . S
C949 C948 1.404 . S
C949 H961 0.930 . S
C950 C946 1.524 . S
C950 H962 0.956 . S
C950 H963 0.961 . S
C950 H964 0.961 . S
C951 C948 1.539 . S
C951 H965 0.958 . S
C951 H966 0.961 . S
C951 H967 0.960 . S
H952 C936 0.931 . S
H953 C941 0.929 . S
H954 C942 0.960 . S
H955 C942 0.962 . S
H956 C942 0.960 . S
H957 C943 0.961 . S
H958 C943 0.961 . S
H959 C943 0.961 . S
H960 C944 0.931 . S
H961 C949 0.930 . S
H962 C950 0.956 . S
H963 C950 0.961 . S
H964 C950 0.961 . S
H965 C951 0.958 . S
H966 C951 0.961 . S
H967 C951 0.960 . S
C968 C969 1.391 . S
C968 C970 1.394 . S
C968 H984 0.931 . S
C969 C968 1.391 . S
C969 C973 1.376 . S
C970 C968 1.394 . S
C970 C971 1.369 . S
C970 C974 1.531 . S
C971 C970 1.369 . S
C971 C972 1.410 . S
C971 C979 1.503 . S
C972 C971 1.410 . S
C972 C973 1.392 . S
C972 C975 1.511 . S
C973 C969 1.376 . S
C973 C972 1.392 . S
C973 H985 0.929 . S
C974 C970 1.531 . S
C974 H986 0.960 . S
C974 H987 0.962 . S
C974 H988 0.960 . S
C975 C972 1.511 . S
C975 H989 0.961 . S
C975 H990 0.961 . S
C975 H991 0.961 . S
C976 C977 1.370 . S
C976 C978 1.363 . S
C976 H992 0.931 . S
C977 C976 1.370 . S
C977 C981 1.408 . S
C978 C976 1.363 . S
C978 C979 1.370 . S
C978 C982 1.524 . S
C979 C971 1.503 . S
C979 C978 1.370 . S
C979 C980 1.403 . S
C980 C979 1.403 . S
C980 C981 1.404 . S
C980 C983 1.539 . S
C981 C977 1.408 . S
C981 C980 1.404 . S
C981 H993 0.930 . S
C982 C978 1.524 . S
C982 H994 0.956 . S
C982 H995 0.961 . S
C982 H996 0.961 . S
C983 C980 1.539 . S
C983 H997 0.958 . S
C983 H998 0.961 . S
C983 H999 0.960 . S
H984 C968 0.931 . S
H985 C973 0.929 . S
H986 C974 0.960 . S
H987 C974 0.962 . S
H988 C974 0.960 . S
H989 C975 0.961 . S
H990 C975 0.961 . S
H991 C975 0.961 . S
H992 C976 0.931 . S
H993 C981 0.930 . S
H994 C982 0.956 . S
H995 C982 0.961 . S
H996 C982 0.961 . S
H997 C983 0.958 . S
H998 C983 0.961 . S
H999 C983 0.960 . S
C1000 C1001 1.391 . S
C1000 C1002 1.394 . S
C1000 H1016 0.931 . S
C1001 C1000 1.391 . S
C1001 C1005 1.376 . S
C1002 C1000 1.394 . S
C1002 C1003 1.369 . S
C1002 C1006 1.531 . S
C1003 C1002 1.369 . S
C1003 C1004 1.410 . S
C1003 C1011 1.503 . S
C1004 C1003 1.410 . S
C1004 C1005 1.392 . S
C1004 C1007 1.511 . S
C1005 C1001 1.376 . S
C1005 C1004 1.392 . S
C1005 H1017 0.929 . S
C1006 C1002 1.531 . S
C1006 H1018 0.960 . S
C1006 H1019 0.962 . S
C1006 H1020 0.960 . S
C1007 C1004 1.511 . S
C1007 H1021 0.961 . S
C1007 H1022 0.961 . S
C1007 H1023 0.961 . S
C1008 C1009 1.370 . S
C1008 C1010 1.363 . S
C1008 H1024 0.931 . S
C1009 C1008 1.370 . S
C1009 C1013 1.408 . S
C1010 C1008 1.363 . S
C1010 C1011 1.370 . S
C1010 C1014 1.524 . S
C1011 C1003 1.503 . S
C1011 C1010 1.370 . S
C1011 C1012 1.403 . S
C1012 C1011 1.403 . S
C1012 C1013 1.404 . S
C1012 C1015 1.539 . S
C1013 C1009 1.408 . S
C1013 C1012 1.404 . S
C1013 H1025 0.930 . S
C1014 C1010 1.524 . S
C1014 H1026 0.956 . S
C1014 H1027 0.961 . S
C1014 H1028 0.961 . S
C1015 C1012 1.539 . S
C1015 H1029 0.958 . S
C1015 H1030 0.961 . S
C1015 H1031 0.960 . S
H1016 C1000 0.931 . S
H1017 C1005 0.929 . S
H1018 C1006 0.960 . S
H1019 C1006 0.962 . S
H1020 C1006 0.960 . S
H1021 C1007 0.961 . S
H1022 C1007 0.961 . S
H1023 C1007 0.961 . S
H1024 C1008 0.931 . S
H1025 C1013 0.930 . S
H1026 C1014 0.956 . S
H1027 C1014 0.961 . S
H1028 C1014 0.961 . S
H1029 C1015 0.958 . S
H1030 C1015 0.961 . S
H1031 C1015 0.960 . S
C1032 C1033 1.391 . S
C1032 C1034 1.394 . S
C1032 H1048 0.931 . S
C1033 C1032 1.391 . S
C1033 C1037 1.376 . S
C1034 C1032 1.394 . S
C1034 C1035 1.369 . S
C1034 C1038 1.531 . S
C1035 C1034 1.369 . S
C1035 C1036 1.410 . S
C1035 C1043 1.503 . S
C1036 C1035 1.410 . S
C1036 C1037 1.392 . S
C1036 C1039 1.511 . S
C1037 C1033 1.376 . S
C1037 C1036 1.392 . S
C1037 H1049 0.929 . S
C1038 C1034 1.531 . S
C1038 H1050 0.960 . S
C1038 H1051 0.962 . S
C1038 H1052 0.960 . S
C1039 C1036 1.511 . S
C1039 H1053 0.961 . S
C1039 H1054 0.961 . S
C1039 H1055 0.961 . S
C1040 C1041 1.370 . S
C1040 C1042 1.363 . S
C1040 H1056 0.931 . S
C1041 C1040 1.370 . S
C1041 C1045 1.408 . S
C1042 C1040 1.363 . S
C1042 C1043 1.370 . S
C1042 C1046 1.524 . S
C1043 C1035 1.503 . S
C1043 C1042 1.370 . S
C1043 C1044 1.403 . S
C1044 C1043 1.403 . S
C1044 C1045 1.404 . S
C1044 C1047 1.539 . S
C1045 C1041 1.408 . S
C1045 C1044 1.404 . S
C1045 H1057 0.930 . S
C1046 C1042 1.524 . S
C1046 H1058 0.956 . S
C1046 H1059 0.961 . S
C1046 H1060 0.961 . S
C1047 C1044 1.539 . S
C1047 H1061 0.958 . S
C1047 H1062 0.961 . S
C1047 H1063 0.960 . S
H1048 C1032 0.931 . S
H1049 C1037 0.929 . S
H1050 C1038 0.960 . S
H1051 C1038 0.962 . S
H1052 C1038 0.960 . S
H1053 C1039 0.961 . S
H1054 C1039 0.961 . S
H1055 C1039 0.961 . S
H1056 C1040 0.931 . S
H1057 C1045 0.930 . S
H1058 C1046 0.956 . S
H1059 C1046 0.961 . S
H1060 C1046 0.961 . S
H1061 C1047 0.958 . S
H1062 C1047 0.961 . S
H1063 C1047 0.960 . S
C1064 C1065 1.391 . S
C1064 C1066 1.394 . S
C1064 H1080 0.931 . S
C1065 C1064 1.391 . S
C1065 C1069 1.376 . S
C1066 C1064 1.394 . S
C1066 C1067 1.369 . S
C1066 C1070 1.531 . S
C1067 C1066 1.369 . S
C1067 C1068 1.410 . S
C1067 C1075 1.503 . S
C1068 C1067 1.410 . S
C1068 C1069 1.392 . S
C1068 C1071 1.511 . S
C1069 C1065 1.376 . S
C1069 C1068 1.392 . S
C1069 H1081 0.929 . S
C1070 C1066 1.531 . S
C1070 H1082 0.960 . S
C1070 H1083 0.962 . S
C1070 H1084 0.960 . S
C1071 C1068 1.511 . S
C1071 H1085 0.961 . S
C1071 H1086 0.961 . S
C1071 H1087 0.961 . S
C1072 C1073 1.370 . S
C1072 C1074 1.363 . S
C1072 H1088 0.931 . S
C1073 C1072 1.370 . S
C1073 C1077 1.408 . S
C1074 C1072 1.363 . S
C1074 C1075 1.370 . S
C1074 C1078 1.524 . S
C1075 C1067 1.503 . S
C1075 C1074 1.370 . S
C1075 C1076 1.403 . S
C1076 C1075 1.403 . S
C1076 C1077 1.404 . S
C1076 C1079 1.539 . S
C1077 C1073 1.408 . S
C1077 C1076 1.404 . S
C1077 H1089 0.930 . S
C1078 C1074 1.524 . S
C1078 H1090 0.956 . S
C1078 H1091 0.961 . S
C1078 H1092 0.961 . S
C1079 C1076 1.539 . S
C1079 H1093 0.958 . S
C1079 H1094 0.961 . S
C1079 H1095 0.960 . S
H1080 C1064 0.931 . S
H1081 C1069 0.929 . S
H1082 C1070 0.960 . S
H1083 C1070 0.962 . S
H1084 C1070 0.960 . S
H1085 C1071 0.961 . S
H1086 C1071 0.961 . S
H1087 C1071 0.961 . S
H1088 C1072 0.931 . S
H1089 C1077 0.930 . S
H1090 C1078 0.956 . S
H1091 C1078 0.961 . S
H1092 C1078 0.961 . S
H1093 C1079 0.958 . S
H1094 C1079 0.961 . S
H1095 C1079 0.960 . S
C1096 C1097 1.391 . S
C1096 C1098 1.394 . S
C1096 H1112 0.931 . S
C1097 C1096 1.391 . S
C1097 C1101 1.376 . S
C1098 C1096 1.394 . S
C1098 C1099 1.369 . S
C1098 C1102 1.531 . S
C1099 C1098 1.369 . S
C1099 C1100 1.410 . S
C1099 C1107 1.503 . S
C1100 C1099 1.410 . S
C1100 C1101 1.392 . S
C1100 C1103 1.511 . S
C1101 C1097 1.376 . S
C1101 C1100 1.392 . S
C1101 H1113 0.929 . S
C1102 C1098 1.531 . S
C1102 H1114 0.960 . S
C1102 H1115 0.962 . S
C1102 H1116 0.960 . S
C1103 C1100 1.511 . S
C1103 H1117 0.961 . S
C1103 H1118 0.961 . S
C1103 H1119 0.961 . S
C1104 C1105 1.370 . S
C1104 C1106 1.363 . S
C1104 H1120 0.931 . S
C1105 C1104 1.370 . S
C1105 C1109 1.408 . S
C1106 C1104 1.363 . S
C1106 C1107 1.370 . S
C1106 C1110 1.524 . S
C1107 C1099 1.503 . S
C1107 C1106 1.370 . S
C1107 C1108 1.403 . S
C1108 C1107 1.403 . S
C1108 C1109 1.404 . S
C1108 C1111 1.539 . S
C1109 C1105 1.408 . S
C1109 C1108 1.404 . S
C1109 H1121 0.930 . S
C1110 C1106 1.524 . S
C1110 H1122 0.956 . S
C1110 H1123 0.961 . S
C1110 H1124 0.961 . S
C1111 C1108 1.539 . S
C1111 H1125 0.958 . S
C1111 H1126 0.961 . S
C1111 H1127 0.960 . S
H1112 C1096 0.931 . S
H1113 C1101 0.929 . S
H1114 C1102 0.960 . S
H1115 C1102 0.962 . S
H1116 C1102 0.960 . S
H1117 C1103 0.961 . S
H1118 C1103 0.961 . S
H1119 C1103 0.961 . S
H1120 C1104 0.931 . S
H1121 C1109 0.930 . S
H1122 C1110 0.956 . S
H1123 C1110 0.961 . S
H1124 C1110 0.961 . S
H1125 C1111 0.958 . S
H1126 C1111 0.961 . S
H1127 C1111 0.960 . S
C233 C21 0.393 . S
C241 C79 0.410 . S
C265 C108 0.484 . S
C273 C50 0.390 . S
C297 C137 0.460 . S
C305 C195 0.387 . S
C329 C224 0.458 . S
C337 C166 0.413 . S
C361 C124 0.898 . S
C369 C8 0.857 . S
C393 C153 0.780 . S
C401 C32 0.644 . S
C425 C177 0.883 . S
C433 C61 0.965 . S
C457 C206 0.569 . S
C465 C95 0.762 . S
C489 C184 1.900 . S
C497 C68 1.855 . S
C521 C213 2.049 . S
C529 C92 2.141 . S
C553 C5 2.309 . S
C561 C121 2.331 . S
C585 C150 2.143 . S
C593 C39 2.017 . S
C617 C211 0.866 . S
C625 C37 0.930 . S
C649 C119 0.662 . S
C657 C66 0.679 . S
C681 C148 1.008 . S
C689 C90 0.915 . S
C713 C182 0.749 . S
C721 C3 0.657 . S
C745 C97 1.841 . S
C753 C155 1.886 . S
C777 C10 1.995 . S
C785 C179 2.155 . S
C809 C34 2.332 . S
C817 C208 2.320 . S
C841 C126 1.992 . S
C849 C63 2.151 . S
C873 C160 2.933 . S
C881 C15 2.939 . S
C905 C42 2.365 . S
C913 C187 2.406 . S
C937 C216 2.367 . S
C945 C71 2.387 . S
C969 C102 2.933 . S
C977 C131 2.939 . S
C1001 C218 2.934 . S
C1009 C73 2.939 . S
C1033 C129 2.386 . S
C1041 C100 2.392 . S
C1065 C13 2.373 . S
C1073 C158 2.388 . S
C1097 C189 2.933 . S
C1105 C44 2.939 . S
