# Generated by pormake.
# Topology uoz, (4)-cn, num edge types: 1
# Building blocks:
#     Node 0, Type 0, BuildingBlock: QUQFOY_clean_sbu_3, # of connection points: 4
#     Node 1, Type 0, BuildingBlock: QUQFOY_clean_sbu_3, # of connection points: 4
#     Node 2, Type 0, BuildingBlock: QUQFOY_clean_sbu_3, # of connection points: 4
#     Node 3, Type 0, BuildingBlock: QUQFOY_clean_sbu_3, # of connection points: 4
#     Node 4, Type 0, BuildingBlock: QUQFOY_clean_sbu_3, # of connection points: 4
#     Node 5, Type 0, BuildingBlock: QUQFOY_clean_sbu_3, # of connection points: 4
#     Node 6, Type 0, BuildingBlock: QUQFOY_clean_sbu_3, # of connection points: 4
#     Node 7, Type 0, BuildingBlock: QUQFOY_clean_sbu_3, # of connection points: 4
#     Node 8, Type 0, BuildingBlock: QUQFOY_clean_sbu_3, # of connection points: 4
#     Node 9, Type 0, BuildingBlock: QUQFOY_clean_sbu_3, # of connection points: 4
#     Node 10, Type 0, BuildingBlock: QUQFOY_clean_sbu_3, # of connection points: 4
#     Node 11, Type 0, BuildingBlock: QUQFOY_clean_sbu_3, # of connection points: 4
#     Node 12, Type 0, BuildingBlock: QUQFOY_clean_sbu_3, # of connection points: 4
#     Node 13, Type 0, BuildingBlock: QUQFOY_clean_sbu_3, # of connection points: 4
#     Node 14, Type 0, BuildingBlock: QUQFOY_clean_sbu_3, # of connection points: 4
#     Node 15, Type 0, BuildingBlock: QUQFOY_clean_sbu_3, # of connection points: 4
#     Edge 16, Type (0, 0), None
#     Edge 17, Type (0, 0), None
#     Edge 18, Type (0, 0), None
#     Edge 19, Type (0, 0), None
#     Edge 20, Type (0, 0), None
#     Edge 21, Type (0, 0), None
#     Edge 22, Type (0, 0), None
#     Edge 23, Type (0, 0), None
#     Edge 24, Type (0, 0), None
#     Edge 25, Type (0, 0), None
#     Edge 26, Type (0, 0), None
#     Edge 27, Type (0, 0), None
#     Edge 28, Type (0, 0), None
#     Edge 29, Type (0, 0), None
#     Edge 30, Type (0, 0), None
#     Edge 31, Type (0, 0), None
#     Edge 32, Type (0, 0), None
#     Edge 33, Type (0, 0), None
#     Edge 34, Type (0, 0), None
#     Edge 35, Type (0, 0), None
#     Edge 36, Type (0, 0), None
#     Edge 37, Type (0, 0), None
#     Edge 38, Type (0, 0), None
#     Edge 39, Type (0, 0), None
#     Edge 40, Type (0, 0), None
#     Edge 41, Type (0, 0), None
#     Edge 42, Type (0, 0), None
#     Edge 43, Type (0, 0), None
#     Edge 44, Type (0, 0), None
#     Edge 45, Type (0, 0), None
#     Edge 46, Type (0, 0), None
#     Edge 47, Type (0, 0), None
# Relax obj value: 0.159
# Max RMSD: 0.165
# Mean RMSD: 0.165
data_MOF--net-uoz--node1-QUQFOY_clean_sbu_3--edge1-none
_symmetry_space_group_name_H-M    P1
_symmetry_Int_Tables_number       1
_symmetry_cell_setting            triclinic
loop_
_symmetry_equiv_pos_as_xyz
'x, y, z'
_cell_length_a     31.073679
_cell_length_b     31.07416
_cell_length_c     11.055901
_cell_angle_alpha  89.898859
_cell_angle_beta   90.044392
_cell_angle_gamma 89.993415
loop_
_atom_site_label
_atom_site_type_symbol
_atom_site_fract_x
_atom_site_fract_y
_atom_site_fract_z
_atom_type_partial_charge
C0 C 0.89976 0.59142 0.13065 0.0
O1 O 0.91036 0.58443 0.02175 0.0
Cd2 Cd -0.03328 0.53893 -0.03509 0.0
O3 O 0.91868 0.57259 0.2196 0.0
Cd4 Cd -0.02254 0.51739 0.25585 0.0
C5 C 0.04634 0.5887 0.13304 0.0
O6 O -0.04716 0.47963 0.09136 0.0
O7 O 0.02044 0.46942 0.12537 0.0
O8 O 0.93993 0.47416 0.41384 0.0
C9 C -0.0135 0.45874 0.06965 0.0
O10 O 0.03002 0.57906 0.03092 0.0
C11 C -0.02576 0.46276 0.46774 0.0
O12 O 0.03184 0.573 0.23164 0.0
O13 O 0.00894 0.48014 0.43187 0.0
C14 C 0.57669 0.62417 0.383 0.0
O15 O 0.58505 0.6357 0.27554 0.0
Cd16 Cd 0.63218 0.69244 0.23047 0.0
O17 O 0.59468 0.64218 0.47438 0.0
Cd18 Cd 0.6498 0.70053 0.50972 0.0
C19 C 0.57959 0.77045 0.39477 0.0
O20 O 0.69203 0.67481 0.3549 0.0
O21 O 0.68943 0.74435 0.36079 0.0
O22 O 0.69205 0.66386 0.67164 0.0
C23 C 0.70558 0.71046 0.31656 0.0
O24 O 0.59118 0.75563 0.29261 0.0
C25 C 0.70598 0.69842 0.71873 0.0
O26 O 0.59369 0.75455 0.49357 0.0
O27 O 0.69067 0.73333 0.67724 0.0
C28 C 0.54392 0.3009 0.63219 0.0
O29 O 0.53281 0.30827 0.5238 0.0
Cd30 Cd 0.47641 0.35414 0.46963 0.0
O31 O 0.52548 0.31951 0.72198 0.0
Cd32 Cd 0.46681 0.3748 0.75746 0.0
C33 C 0.39752 0.30376 0.63843 0.0
O34 O 0.49156 0.41351 0.59451 0.0
O35 O 0.42333 0.42118 0.62259 0.0
O36 O 0.50422 0.41769 0.91612 0.0
C37 C 0.4574 0.43315 0.56961 0.0
O38 O 0.41318 0.31397 0.53593 0.0
C39 C 0.46983 0.42977 -0.03191 0.0
O40 O 0.41264 0.31897 0.73676 0.0
O41 O 0.43504 0.41297 0.93088 0.0
C42 C 0.86719 0.26826 0.88301 0.0
O43 O 0.85953 0.25695 0.77503 0.0
Cd44 Cd 0.81338 0.20057 0.72282 0.0
O45 O 0.84877 0.25 -0.02645 0.0
Cd46 Cd 0.79351 0.19134 0.00917 0.0
C47 C 0.86422 0.12181 0.89079 0.0
O48 O 0.75399 0.21613 0.84778 0.0
O49 O 0.74863 0.14744 0.87182 0.0
O50 O 0.7505 0.22856 0.16789 0.0
C51 C 0.73564 0.18149 0.82048 0.0
O52 O 0.85364 0.13725 0.78824 0.0
C53 C 0.73826 0.19412 0.21953 0.0
O54 O 0.84937 0.13719 -0.01082 0.0
O55 O 0.75498 0.15934 0.18206 0.0
C56 C 0.89993 0.30119 0.90273 0.0
O57 O 0.91126 0.3094 0.01039 0.0
Cd58 Cd -0.03186 0.35647 0.05477 0.0
O59 O 0.91816 0.31927 0.81171 0.0
Cd60 Cd -0.02353 0.37429 0.77545 0.0
C61 C 0.0462 0.30391 0.89009 0.0
O62 O -0.04932 0.41641 0.93016 0.0
O63 O 0.02023 0.41381 0.92445 0.0
O64 O 0.93974 0.41637 0.61317 0.0
C65 C -0.0137 0.4299 -0.03121 0.0
O66 O 0.03124 0.31538 -0.00778 0.0
C67 C -0.02572 0.43054 0.56635 0.0
O68 O 0.03045 0.31815 0.79127 0.0
O69 O 0.00922 0.41545 0.60818 0.0
C70 C 0.86707 0.62409 0.1538 0.0
O71 O 0.8601 0.63473 0.26266 0.0
Cd72 Cd 0.81457 0.6911 0.3191 0.0
O73 O 0.84819 0.64297 0.06485 0.0
Cd74 Cd 0.79294 0.7017 0.02872 0.0
C75 C 0.86432 0.77061 0.15009 0.0
O76 O 0.75518 0.67702 0.19336 0.0
O77 O 0.74515 0.74468 0.15989 0.0
O78 O 0.74984 0.66413 0.87075 0.0
C79 C 0.7344 0.71071 0.21549 0.0
O80 O 0.85466 0.75437 0.25237 0.0
C81 C 0.73821 0.69844 0.81721 0.0
O82 O 0.84861 0.75604 0.05167 0.0
O83 O 0.75539 0.7332 0.85327 0.0
C84 C 0.54377 0.59131 0.40167 0.0
O85 O 0.53214 0.58313 0.50913 0.0
Cd86 Cd 0.47548 0.53611 0.55549 0.0
O87 O 0.52583 0.57318 0.31036 0.0
Cd88 Cd 0.46747 0.518 0.27515 0.0
C89 C 0.39743 0.58826 0.38937 0.0
O90 O 0.49304 0.47635 0.4317 0.0
O91 O 0.42355 0.47731 0.42203 0.0
O92 O 0.50434 0.47548 0.11479 0.0
C93 C 0.45754 0.4619 0.4682 0.0
O94 O 0.41222 0.57685 0.49192 0.0
C95 C 0.46982 0.46201 0.0663 0.0
O96 O 0.41341 0.57406 0.291 0.0
O97 O 0.43492 0.4777 0.1063 0.0
C98 C 0.57677 0.26817 0.65346 0.0
O99 O 0.58451 0.25703 0.76164 0.0
Cd100 Cd 0.63102 0.20027 0.81038 0.0
O101 O 0.59516 0.24975 0.56335 0.0
Cd102 Cd 0.65031 0.19133 0.52747 0.0
C103 C 0.57951 0.12187 0.64351 0.0
O104 O 0.69078 0.21663 0.68606 0.0
O105 O 0.69276 0.14739 0.67082 0.0
O106 O 0.69281 0.22849 0.3671 0.0
C107 C 0.70702 0.18148 0.7189 0.0
O108 O 0.59037 0.13714 0.74587 0.0
C109 C 0.70603 0.19404 0.31787 0.0
O110 O 0.59424 0.13735 0.54497 0.0
O111 O 0.69017 0.15911 0.35747 0.0
C112 C 0.36704 0.12415 0.6524 0.0
O113 O 0.35958 0.13526 0.76061 0.0
Cd114 Cd 0.3135 0.19187 0.81184 0.0
O115 O 0.34847 0.1426 0.56232 0.0
Cd116 Cd 0.29328 0.2012 0.52606 0.0
C117 C 0.36427 0.27054 0.6432 0.0
O118 O 0.25384 0.17638 0.68727 0.0
O119 O 0.24916 0.24521 0.66475 0.0
O120 O 0.25032 0.16398 0.36685 0.0
C121 C 0.23598 0.21116 0.71565 0.0
O122 O 0.35381 0.2551 0.7458 0.0
C123 C 0.23774 0.19844 0.31586 0.0
O124 O 0.34928 0.25519 0.54489 0.0
O125 O 0.25419 0.23326 0.35399 0.0
C126 C 0.07679 0.76811 0.15169 0.0
O127 O 0.08498 0.75636 0.25912 0.0
Cd128 Cd 0.13207 0.69947 0.30379 0.0
O129 O 0.09492 0.75025 0.06035 0.0
Cd130 Cd 0.15008 0.69194 0.02484 0.0
C131 C 0.07972 0.62181 0.13737 0.0
O132 O 0.19204 0.71753 0.18047 0.0
O133 O 0.18978 0.648 0.17382 0.0
O134 O 0.19255 0.72866 0.8636 0.0
C135 C 0.20567 0.68191 0.21884 0.0
O136 O 0.0912 0.63637 0.23997 0.0
C137 C 0.20636 0.69409 0.81632 0.0
O138 O 0.09391 0.63799 0.0391 0.0
O139 O 0.19091 0.6592 0.85742 0.0
C140 C 0.07662 0.12413 0.88117 0.0
O141 O 0.08433 0.13498 0.77279 0.0
Cd142 Cd 0.13057 0.19152 0.72144 0.0
O143 O 0.09498 0.14279 -0.02897 0.0
Cd144 Cd 0.15009 0.20136 0.00681 0.0
C145 C 0.07936 0.27056 0.88692 0.0
O146 O 0.19007 0.17629 0.84726 0.0
O147 O 0.19384 0.24528 0.8667 0.0
O148 O 0.19278 0.16407 0.16688 0.0
C149 C 0.20743 0.21118 0.81723 0.0
O150 O 0.08999 0.2548 0.78499 0.0
C151 C 0.20552 0.19849 0.21733 0.0
O152 O 0.09421 0.2555 -0.01405 0.0
O153 O 0.18927 0.23337 0.17856 0.0
C154 C 0.36716 0.76814 0.38105 0.0
O155 O 0.35993 0.75735 0.27242 0.0
Cd156 Cd 0.31417 0.70108 0.21689 0.0
O157 O 0.34846 0.74942 0.47046 0.0
Cd158 Cd 0.29324 0.69071 0.50659 0.0
C159 C 0.36427 0.62161 0.3851 0.0
O160 O 0.25496 0.7155 0.34285 0.0
O161 O 0.24575 0.64762 0.37452 0.0
O162 O 0.25038 0.72833 0.6648 0.0
C163 C 0.23452 0.68166 0.31996 0.0
O164 O 0.35433 0.63776 0.2829 0.0
C165 C 0.23859 0.69402 0.718 0.0
O166 O 0.34887 0.63631 0.48369 0.0
O167 O 0.25559 0.65922 0.68167 0.0
C168 C 0.3998 0.09136 0.63139 0.0
O169 O 0.41082 0.08378 0.52316 0.0
Cd170 Cd 0.46744 0.03767 0.47217 0.0
O171 O 0.41835 0.0729 0.72149 0.0
Cd172 Cd 0.47696 0.01775 0.75771 0.0
C173 C 0.54622 0.08868 0.63945 0.0
O174 O 0.45207 -0.02197 0.59734 0.0
O175 O 0.52102 -0.02593 0.6181 0.0
O176 O 0.43978 -0.02519 0.91734 0.0
C177 C 0.48697 -0.0394 0.56796 0.0
O178 O 0.53065 0.07814 0.53714 0.0
C179 C 0.47424 -0.03785 -0.03193 0.0
O180 O 0.53101 0.07373 0.73809 0.0
O181 O 0.50907 -0.02147 0.9296 0.0
C182 C 0.04386 0.80097 0.13291 0.0
O183 O 0.03215 0.80903 0.02539 0.0
Cd184 Cd -0.02461 0.85583 -0.02163 0.0
O185 O 0.02594 0.81915 0.22412 0.0
Cd186 Cd -0.03249 0.87435 0.2595 0.0
C187 C 0.89747 0.80394 0.14543 0.0
O188 O -0.00718 0.91559 0.10199 0.0
O189 O 0.92342 0.91575 0.11414 0.0
O190 O 0.00442 0.91707 0.41958 0.0
C191 C -0.04259 0.93075 0.06711 0.0
O192 O 0.91221 0.81519 0.04273 0.0
C193 C -0.03011 0.93024 0.46855 0.0
O194 O 0.9135 0.81827 0.24363 0.0
O195 O 0.93503 0.91428 0.42893 0.0
C196 C 0.39983 0.80091 0.4032 0.0
O197 O 0.41052 0.80844 0.51176 0.0
Cd198 Cd 0.46703 0.85449 0.56413 0.0
O199 O 0.41863 0.81941 0.31365 0.0
Cd200 Cd 0.47724 0.87455 0.27753 0.0
C201 C 0.54626 0.80362 0.398 0.0
O202 O 0.45231 0.91401 0.43819 0.0
O203 O 0.52111 0.91899 0.4158 0.0
O204 O 0.43989 0.91732 0.11767 0.0
C205 C 0.48701 0.93206 0.46645 0.0
O206 O 0.53031 0.81401 0.49991 0.0
C207 C 0.47429 0.92992 0.06671 0.0
O208 O 0.53139 0.81867 0.29898 0.0
O209 O 0.50916 0.91356 0.10512 0.0
C210 C 0.04382 0.0914 0.9027 0.0
O211 O 0.03279 0.08401 0.0111 0.0
Cd212 Cd -0.02364 0.03801 0.06409 0.0
O213 O 0.02532 0.07279 0.81296 0.0
Cd214 Cd -0.03328 0.01755 0.77721 0.0
C215 C 0.89744 0.08855 0.89542 0.0
O216 O -0.0084 -0.02146 0.93947 0.0
O217 O 0.92313 -0.02811 0.91354 0.0
O218 O 0.00419 -0.02516 0.61839 0.0
C219 C -0.04276 -0.04052 -0.03436 0.0
O220 O 0.9131 0.07822 -0.0021 0.0
C221 C -0.03019 -0.03753 0.56678 0.0
O222 O 0.91258 0.07344 0.79705 0.0
O223 O 0.93495 -0.021 0.6043 0.0
loop_
_geom_bond_atom_site_label_1
_geom_bond_atom_site_label_2
_geom_bond_distance
_geom_bond_site_symmetry_2
_ccdc_geom_bond_type
C0 O1 1.306 . S
C0 O3 1.160 . S
O1 C0 1.306 . S
O1 Cd2 2.228 1_654 S
Cd2 O1 2.228 1_456 S
Cd2 O6 2.273 1_556 S
Cd2 O10 2.277 1_556 S
O3 C0 1.160 . S
O3 Cd4 2.203 1_655 S
Cd4 O3 2.203 1_455 S
Cd4 O6 2.411 . S
Cd4 O7 2.333 . S
Cd4 O8 2.352 1_455 S
Cd4 O12 2.277 . S
Cd4 O13 2.356 . S
C5 O10 1.209 . S
C5 O12 1.226 . S
O6 Cd2 2.273 1_554 S
O6 Cd4 2.411 . S
O6 C9 1.320 . S
O7 Cd4 2.333 . S
O7 C9 1.214 . S
O8 Cd4 2.352 1_655 S
O8 C11 1.258 1_655 S
C9 O6 1.320 . S
C9 O7 1.214 . S
O10 Cd2 2.277 1_554 S
O10 C5 1.209 . S
C11 O8 1.258 1_455 S
C11 O13 1.282 . S
O12 Cd4 2.277 . S
O12 C5 1.226 . S
O13 Cd4 2.356 . S
O13 C11 1.282 . S
C14 O15 1.306 . S
C14 O17 1.160 . S
O15 C14 1.306 . S
O15 Cd16 2.228 . S
Cd16 O15 2.228 . S
Cd16 O20 2.273 . S
Cd16 O24 2.277 . S
O17 C14 1.160 . S
O17 Cd18 2.203 . S
Cd18 O17 2.203 . S
Cd18 O20 2.411 . S
Cd18 O21 2.333 . S
Cd18 O22 2.352 . S
Cd18 O26 2.277 . S
Cd18 O27 2.356 . S
C19 O24 1.209 . S
C19 O26 1.226 . S
O20 Cd16 2.273 . S
O20 Cd18 2.411 . S
O20 C23 1.320 . S
O21 Cd18 2.333 . S
O21 C23 1.214 . S
O22 Cd18 2.352 . S
O22 C25 1.258 . S
C23 O20 1.320 . S
C23 O21 1.214 . S
O24 Cd16 2.277 . S
O24 C19 1.209 . S
C25 O22 1.258 . S
C25 O27 1.282 . S
O26 Cd18 2.277 . S
O26 C19 1.226 . S
O27 Cd18 2.356 . S
O27 C25 1.282 . S
C28 O29 1.306 . S
C28 O31 1.160 . S
O29 C28 1.306 . S
O29 Cd30 2.228 . S
Cd30 O29 2.228 . S
Cd30 O34 2.273 . S
Cd30 O38 2.277 . S
O31 C28 1.160 . S
O31 Cd32 2.203 . S
Cd32 O31 2.203 . S
Cd32 O34 2.411 . S
Cd32 O35 2.333 . S
Cd32 O36 2.352 . S
Cd32 O40 2.277 . S
Cd32 O41 2.356 . S
C33 O38 1.209 . S
C33 O40 1.226 . S
O34 Cd30 2.273 . S
O34 Cd32 2.411 . S
O34 C37 1.320 . S
O35 Cd32 2.333 . S
O35 C37 1.214 . S
O36 Cd32 2.352 . S
O36 C39 1.258 . S
C37 O34 1.320 . S
C37 O35 1.214 . S
O38 Cd30 2.277 . S
O38 C33 1.209 . S
C39 O36 1.258 . S
C39 O41 1.282 . S
O40 Cd32 2.277 . S
O40 C33 1.226 . S
O41 Cd32 2.356 . S
O41 C39 1.282 . S
C42 O43 1.306 . S
C42 O45 1.160 1_556 S
O43 C42 1.306 . S
O43 Cd44 2.228 . S
Cd44 O43 2.228 . S
Cd44 O48 2.273 . S
Cd44 O52 2.277 . S
O45 C42 1.160 1_554 S
O45 Cd46 2.203 . S
Cd46 O45 2.203 . S
Cd46 O48 2.411 1_554 S
Cd46 O49 2.333 1_554 S
Cd46 O50 2.352 . S
Cd46 O54 2.277 . S
Cd46 O55 2.356 . S
C47 O52 1.209 . S
C47 O54 1.226 1_556 S
O48 Cd44 2.273 . S
O48 Cd46 2.411 1_556 S
O48 C51 1.320 . S
O49 Cd46 2.333 1_556 S
O49 C51 1.214 . S
O50 Cd46 2.352 . S
O50 C53 1.258 . S
C51 O48 1.320 . S
C51 O49 1.214 . S
O52 Cd44 2.277 . S
O52 C47 1.209 . S
C53 O50 1.258 . S
C53 O55 1.282 . S
O54 Cd46 2.277 . S
O54 C47 1.226 1_554 S
O55 Cd46 2.356 . S
O55 C53 1.282 . S
C56 O57 1.306 . S
C56 O59 1.160 . S
O57 C56 1.306 . S
O57 Cd58 2.228 1_656 S
Cd58 O57 2.228 1_454 S
Cd58 O62 2.273 . S
Cd58 O66 2.277 . S
O59 C56 1.160 . S
O59 Cd60 2.203 1_655 S
Cd60 O59 2.203 1_455 S
Cd60 O62 2.411 1_556 S
Cd60 O63 2.333 . S
Cd60 O64 2.352 1_455 S
Cd60 O68 2.277 . S
Cd60 O69 2.356 . S
C61 O66 1.209 1_556 S
C61 O68 1.226 . S
O62 Cd58 2.273 . S
O62 Cd60 2.411 1_554 S
O62 C65 1.320 . S
O63 Cd60 2.333 . S
O63 C65 1.214 1_556 S
O64 Cd60 2.352 1_655 S
O64 C67 1.258 1_655 S
C65 O62 1.320 . S
C65 O63 1.214 1_554 S
O66 Cd58 2.277 . S
O66 C61 1.209 1_554 S
C67 O64 1.258 1_455 S
C67 O69 1.282 . S
O68 Cd60 2.277 . S
O68 C61 1.226 . S
O69 Cd60 2.356 . S
O69 C67 1.282 . S
C70 O71 1.306 . S
C70 O73 1.160 . S
O71 C70 1.306 . S
O71 Cd72 2.228 . S
Cd72 O71 2.228 . S
Cd72 O76 2.273 . S
Cd72 O80 2.277 . S
O73 C70 1.160 . S
O73 Cd74 2.203 . S
Cd74 O73 2.203 . S
Cd74 O76 2.411 . S
Cd74 O77 2.333 . S
Cd74 O78 2.352 1_554 S
Cd74 O82 2.277 . S
Cd74 O83 2.356 1_554 S
C75 O80 1.209 . S
C75 O82 1.226 . S
O76 Cd72 2.273 . S
O76 Cd74 2.411 . S
O76 C79 1.320 . S
O77 Cd74 2.333 . S
O77 C79 1.214 . S
O78 Cd74 2.352 1_556 S
O78 C81 1.258 . S
C79 O76 1.320 . S
C79 O77 1.214 . S
O80 Cd72 2.277 . S
O80 C75 1.209 . S
C81 O78 1.258 . S
C81 O83 1.282 . S
O82 Cd74 2.277 . S
O82 C75 1.226 . S
O83 Cd74 2.356 1_556 S
O83 C81 1.282 . S
C84 O85 1.306 . S
C84 O87 1.160 . S
O85 C84 1.306 . S
O85 Cd86 2.228 . S
Cd86 O85 2.228 . S
Cd86 O90 2.273 . S
Cd86 O94 2.277 . S
O87 C84 1.160 . S
O87 Cd88 2.203 . S
Cd88 O87 2.203 . S
Cd88 O90 2.411 . S
Cd88 O91 2.333 . S
Cd88 O92 2.352 . S
Cd88 O96 2.277 . S
Cd88 O97 2.356 . S
C89 O94 1.209 . S
C89 O96 1.226 . S
O90 Cd86 2.273 . S
O90 Cd88 2.411 . S
O90 C93 1.320 . S
O91 Cd88 2.333 . S
O91 C93 1.214 . S
O92 Cd88 2.352 . S
O92 C95 1.258 . S
C93 O90 1.320 . S
C93 O91 1.214 . S
O94 Cd86 2.277 . S
O94 C89 1.209 . S
C95 O92 1.258 . S
C95 O97 1.282 . S
O96 Cd88 2.277 . S
O96 C89 1.226 . S
O97 Cd88 2.356 . S
O97 C95 1.282 . S
C98 O99 1.306 . S
C98 O101 1.160 . S
O99 C98 1.306 . S
O99 Cd100 2.228 . S
Cd100 O99 2.228 . S
Cd100 O104 2.273 . S
Cd100 O108 2.277 . S
O101 C98 1.160 . S
O101 Cd102 2.203 . S
Cd102 O101 2.203 . S
Cd102 O104 2.411 . S
Cd102 O105 2.333 . S
Cd102 O106 2.352 . S
Cd102 O110 2.277 . S
Cd102 O111 2.356 . S
C103 O108 1.209 . S
C103 O110 1.226 . S
O104 Cd100 2.273 . S
O104 Cd102 2.411 . S
O104 C107 1.320 . S
O105 Cd102 2.333 . S
O105 C107 1.214 . S
O106 Cd102 2.352 . S
O106 C109 1.258 . S
C107 O104 1.320 . S
C107 O105 1.214 . S
O108 Cd100 2.277 . S
O108 C103 1.209 . S
C109 O106 1.258 . S
C109 O111 1.282 . S
O110 Cd102 2.277 . S
O110 C103 1.226 . S
O111 Cd102 2.356 . S
O111 C109 1.282 . S
C112 O113 1.306 . S
C112 O115 1.160 . S
O113 C112 1.306 . S
O113 Cd114 2.228 . S
Cd114 O113 2.228 . S
Cd114 O118 2.273 . S
Cd114 O122 2.277 . S
O115 C112 1.160 . S
O115 Cd116 2.203 . S
Cd116 O115 2.203 . S
Cd116 O118 2.411 . S
Cd116 O119 2.333 . S
Cd116 O120 2.352 . S
Cd116 O124 2.277 . S
Cd116 O125 2.356 . S
C117 O122 1.209 . S
C117 O124 1.226 . S
O118 Cd114 2.273 . S
O118 Cd116 2.411 . S
O118 C121 1.320 . S
O119 Cd116 2.333 . S
O119 C121 1.214 . S
O120 Cd116 2.352 . S
O120 C123 1.258 . S
C121 O118 1.320 . S
C121 O119 1.214 . S
O122 Cd114 2.277 . S
O122 C117 1.209 . S
C123 O120 1.258 . S
C123 O125 1.282 . S
O124 Cd116 2.277 . S
O124 C117 1.226 . S
O125 Cd116 2.356 . S
O125 C123 1.282 . S
C126 O127 1.306 . S
C126 O129 1.160 . S
O127 C126 1.306 . S
O127 Cd128 2.228 . S
Cd128 O127 2.228 . S
Cd128 O132 2.273 . S
Cd128 O136 2.277 . S
O129 C126 1.160 . S
O129 Cd130 2.203 . S
Cd130 O129 2.203 . S
Cd130 O132 2.411 . S
Cd130 O133 2.333 . S
Cd130 O134 2.352 1_554 S
Cd130 O138 2.277 . S
Cd130 O139 2.356 1_554 S
C131 O136 1.209 . S
C131 O138 1.226 . S
O132 Cd128 2.273 . S
O132 Cd130 2.411 . S
O132 C135 1.320 . S
O133 Cd130 2.333 . S
O133 C135 1.214 . S
O134 Cd130 2.352 1_556 S
O134 C137 1.258 . S
C135 O132 1.320 . S
C135 O133 1.214 . S
O136 Cd128 2.277 . S
O136 C131 1.209 . S
C137 O134 1.258 . S
C137 O139 1.282 . S
O138 Cd130 2.277 . S
O138 C131 1.226 . S
O139 Cd130 2.356 1_556 S
O139 C137 1.282 . S
C140 O141 1.306 . S
C140 O143 1.160 1_556 S
O141 C140 1.306 . S
O141 Cd142 2.228 . S
Cd142 O141 2.228 . S
Cd142 O146 2.273 . S
Cd142 O150 2.277 . S
O143 C140 1.160 1_554 S
O143 Cd144 2.203 . S
Cd144 O143 2.203 . S
Cd144 O146 2.411 1_554 S
Cd144 O147 2.333 1_554 S
Cd144 O148 2.352 . S
Cd144 O152 2.277 . S
Cd144 O153 2.356 . S
C145 O150 1.209 . S
C145 O152 1.226 1_556 S
O146 Cd142 2.273 . S
O146 Cd144 2.411 1_556 S
O146 C149 1.320 . S
O147 Cd144 2.333 1_556 S
O147 C149 1.214 . S
O148 Cd144 2.352 . S
O148 C151 1.258 . S
C149 O146 1.320 . S
C149 O147 1.214 . S
O150 Cd142 2.277 . S
O150 C145 1.209 . S
C151 O148 1.258 . S
C151 O153 1.282 . S
O152 Cd144 2.277 . S
O152 C145 1.226 1_554 S
O153 Cd144 2.356 . S
O153 C151 1.282 . S
C154 O155 1.306 . S
C154 O157 1.160 . S
O155 C154 1.306 . S
O155 Cd156 2.228 . S
Cd156 O155 2.228 . S
Cd156 O160 2.273 . S
Cd156 O164 2.277 . S
O157 C154 1.160 . S
O157 Cd158 2.203 . S
Cd158 O157 2.203 . S
Cd158 O160 2.411 . S
Cd158 O161 2.333 . S
Cd158 O162 2.352 . S
Cd158 O166 2.277 . S
Cd158 O167 2.356 . S
C159 O164 1.209 . S
C159 O166 1.226 . S
O160 Cd156 2.273 . S
O160 Cd158 2.411 . S
O160 C163 1.320 . S
O161 Cd158 2.333 . S
O161 C163 1.214 . S
O162 Cd158 2.352 . S
O162 C165 1.258 . S
C163 O160 1.320 . S
C163 O161 1.214 . S
O164 Cd156 2.277 . S
O164 C159 1.209 . S
C165 O162 1.258 . S
C165 O167 1.282 . S
O166 Cd158 2.277 . S
O166 C159 1.226 . S
O167 Cd158 2.356 . S
O167 C165 1.282 . S
C168 O169 1.306 . S
C168 O171 1.160 . S
O169 C168 1.306 . S
O169 Cd170 2.228 . S
Cd170 O169 2.228 . S
Cd170 O174 2.273 . S
Cd170 O178 2.277 . S
O171 C168 1.160 . S
O171 Cd172 2.203 . S
Cd172 O171 2.203 . S
Cd172 O174 2.411 . S
Cd172 O175 2.333 . S
Cd172 O176 2.352 . S
Cd172 O180 2.277 . S
Cd172 O181 2.356 . S
C173 O178 1.209 . S
C173 O180 1.226 . S
O174 Cd170 2.273 . S
O174 Cd172 2.411 . S
O174 C177 1.320 . S
O175 Cd172 2.333 . S
O175 C177 1.214 . S
O176 Cd172 2.352 . S
O176 C179 1.258 . S
C177 O174 1.320 . S
C177 O175 1.214 . S
O178 Cd170 2.277 . S
O178 C173 1.209 . S
C179 O176 1.258 . S
C179 O181 1.282 . S
O180 Cd172 2.277 . S
O180 C173 1.226 . S
O181 Cd172 2.356 . S
O181 C179 1.282 . S
C182 O183 1.306 . S
C182 O185 1.160 . S
O183 C182 1.306 . S
O183 Cd184 2.228 1_554 S
Cd184 O183 2.228 1_556 S
Cd184 O188 2.273 1_556 S
Cd184 O192 2.277 1_456 S
O185 C182 1.160 . S
O185 Cd186 2.203 . S
Cd186 O185 2.203 . S
Cd186 O188 2.411 . S
Cd186 O189 2.333 1_455 S
Cd186 O190 2.352 . S
Cd186 O194 2.277 1_455 S
Cd186 O195 2.356 1_455 S
C187 O192 1.209 . S
C187 O194 1.226 . S
O188 Cd184 2.273 1_554 S
O188 Cd186 2.411 . S
O188 C191 1.320 . S
O189 Cd186 2.333 1_655 S
O189 C191 1.214 1_655 S
O190 Cd186 2.352 . S
O190 C193 1.258 . S
C191 O188 1.320 . S
C191 O189 1.214 1_455 S
O192 Cd184 2.277 1_654 S
O192 C187 1.209 . S
C193 O190 1.258 . S
C193 O195 1.282 1_455 S
O194 Cd186 2.277 1_655 S
O194 C187 1.226 . S
O195 Cd186 2.356 1_655 S
O195 C193 1.282 1_655 S
C196 O197 1.306 . S
C196 O199 1.160 . S
O197 C196 1.306 . S
O197 Cd198 2.228 . S
Cd198 O197 2.228 . S
Cd198 O202 2.273 . S
Cd198 O206 2.277 . S
O199 C196 1.160 . S
O199 Cd200 2.203 . S
Cd200 O199 2.203 . S
Cd200 O202 2.411 . S
Cd200 O203 2.333 . S
Cd200 O204 2.352 . S
Cd200 O208 2.277 . S
Cd200 O209 2.356 . S
C201 O206 1.209 . S
C201 O208 1.226 . S
O202 Cd198 2.273 . S
O202 Cd200 2.411 . S
O202 C205 1.320 . S
O203 Cd200 2.333 . S
O203 C205 1.214 . S
O204 Cd200 2.352 . S
O204 C207 1.258 . S
C205 O202 1.320 . S
C205 O203 1.214 . S
O206 Cd198 2.277 . S
O206 C201 1.209 . S
C207 O204 1.258 . S
C207 O209 1.282 . S
O208 Cd200 2.277 . S
O208 C201 1.226 . S
O209 Cd200 2.356 . S
O209 C207 1.282 . S
C210 O211 1.306 . S
C210 O213 1.160 . S
O211 C210 1.306 . S
O211 Cd212 2.228 1_556 S
Cd212 O211 2.228 1_554 S
Cd212 O216 2.273 . S
Cd212 O220 2.277 1_455 S
O213 C210 1.160 . S
O213 Cd214 2.203 . S
Cd214 O213 2.203 . S
Cd214 O216 2.411 1_556 S
Cd214 O217 2.333 1_455 S
Cd214 O218 2.352 . S
Cd214 O222 2.277 1_455 S
Cd214 O223 2.356 1_455 S
C215 O220 1.209 1_556 S
C215 O222 1.226 . S
O216 Cd212 2.273 . S
O216 Cd214 2.411 1_554 S
O216 C219 1.320 . S
O217 Cd214 2.333 1_655 S
O217 C219 1.214 1_656 S
O218 Cd214 2.352 . S
O218 C221 1.258 . S
C219 O216 1.320 . S
C219 O217 1.214 1_454 S
O220 Cd212 2.277 1_655 S
O220 C215 1.209 1_554 S
C221 O218 1.258 . S
C221 O223 1.282 1_455 S
O222 Cd214 2.277 1_655 S
O222 C215 1.226 . S
O223 Cd214 2.356 1_655 S
O223 C221 1.282 1_655 S
C131 C5 1.591 . S
C201 C19 1.591 . S
C33 C117 1.591 . S
C47 C215 1.591 . S
C61 C145 1.591 . S
C187 C75 1.591 . S
C159 C89 1.591 . S
C103 C173 1.591 . S
C56 C42 1.754 . S
C168 C112 1.753 . S
C84 C14 1.753 . S
C126 C182 1.753 . S
C0 C70 1.753 . S
C210 C140 1.754 . S
C98 C28 1.753 . S
C154 C196 1.753 . S
C9 C65 0.877 . S
C79 C23 0.877 . S
C93 C37 0.877 . S
C51 C107 0.877 . S
C149 C121 0.877 . S
C163 C135 0.877 . S
C205 C177 0.877 1_565 S
C219 C191 0.877 1_545 S
C67 C11 1.717 . S
C81 C25 1.717 . S
C95 C39 1.717 1_554 S
C53 C109 1.716 . S
C123 C151 1.716 . S
C165 C137 1.717 . S
C207 C179 1.717 1_564 S
C221 C193 1.717 1_545 S
