# Generated by pormake.
# Topology uns, (4)-cn, num edge types: 1
# Building blocks:
#     Node 0, Type 0, BuildingBlock: CEKHIL_clean_sbu_0, # of connection points: 4
#     Node 1, Type 0, BuildingBlock: CEKHIL_clean_sbu_0, # of connection points: 4
#     Node 2, Type 0, BuildingBlock: CEKHIL_clean_sbu_0, # of connection points: 4
#     Node 3, Type 0, BuildingBlock: CEKHIL_clean_sbu_0, # of connection points: 4
#     Node 4, Type 0, BuildingBlock: CEKHIL_clean_sbu_0, # of connection points: 4
#     Node 5, Type 0, BuildingBlock: CEKHIL_clean_sbu_0, # of connection points: 4
#     Node 6, Type 0, BuildingBlock: CEKHIL_clean_sbu_0, # of connection points: 4
#     Node 7, Type 0, BuildingBlock: CEKHIL_clean_sbu_0, # of connection points: 4
#     Node 8, Type 0, BuildingBlock: CEKHIL_clean_sbu_0, # of connection points: 4
#     Node 9, Type 0, BuildingBlock: CEKHIL_clean_sbu_0, # of connection points: 4
#     Node 10, Type 0, BuildingBlock: CEKHIL_clean_sbu_0, # of connection points: 4
#     Node 11, Type 0, BuildingBlock: CEKHIL_clean_sbu_0, # of connection points: 4
#     Node 12, Type 0, BuildingBlock: CEKHIL_clean_sbu_0, # of connection points: 4
#     Node 13, Type 0, BuildingBlock: CEKHIL_clean_sbu_0, # of connection points: 4
#     Node 14, Type 0, BuildingBlock: CEKHIL_clean_sbu_0, # of connection points: 4
#     Node 15, Type 0, BuildingBlock: CEKHIL_clean_sbu_0, # of connection points: 4
#     Node 16, Type 0, BuildingBlock: CEKHIL_clean_sbu_0, # of connection points: 4
#     Node 17, Type 0, BuildingBlock: CEKHIL_clean_sbu_0, # of connection points: 4
#     Node 18, Type 0, BuildingBlock: CEKHIL_clean_sbu_0, # of connection points: 4
#     Node 19, Type 0, BuildingBlock: CEKHIL_clean_sbu_0, # of connection points: 4
#     Node 20, Type 0, BuildingBlock: CEKHIL_clean_sbu_0, # of connection points: 4
#     Node 21, Type 0, BuildingBlock: CEKHIL_clean_sbu_0, # of connection points: 4
#     Node 22, Type 0, BuildingBlock: CEKHIL_clean_sbu_0, # of connection points: 4
#     Node 23, Type 0, BuildingBlock: CEKHIL_clean_sbu_0, # of connection points: 4
#     Node 24, Type 0, BuildingBlock: CEKHIL_clean_sbu_0, # of connection points: 4
#     Node 25, Type 0, BuildingBlock: CEKHIL_clean_sbu_0, # of connection points: 4
#     Node 26, Type 0, BuildingBlock: CEKHIL_clean_sbu_0, # of connection points: 4
#     Node 27, Type 0, BuildingBlock: CEKHIL_clean_sbu_0, # of connection points: 4
#     Node 28, Type 0, BuildingBlock: CEKHIL_clean_sbu_0, # of connection points: 4
#     Node 29, Type 0, BuildingBlock: CEKHIL_clean_sbu_0, # of connection points: 4
#     Node 30, Type 0, BuildingBlock: CEKHIL_clean_sbu_0, # of connection points: 4
#     Node 31, Type 0, BuildingBlock: CEKHIL_clean_sbu_0, # of connection points: 4
#     Node 32, Type 0, BuildingBlock: CEKHIL_clean_sbu_0, # of connection points: 4
#     Node 33, Type 0, BuildingBlock: CEKHIL_clean_sbu_0, # of connection points: 4
#     Node 34, Type 0, BuildingBlock: CEKHIL_clean_sbu_0, # of connection points: 4
#     Node 35, Type 0, BuildingBlock: CEKHIL_clean_sbu_0, # of connection points: 4
#     Edge 36, Type (0, 0), BuildingBlock: MIFKUJ_clean_linker_0, # of connection points: 2
#     Edge 37, Type (0, 0), BuildingBlock: MIFKUJ_clean_linker_0, # of connection points: 2
#     Edge 38, Type (0, 0), BuildingBlock: MIFKUJ_clean_linker_0, # of connection points: 2
#     Edge 39, Type (0, 0), BuildingBlock: MIFKUJ_clean_linker_0, # of connection points: 2
#     Edge 40, Type (0, 0), BuildingBlock: MIFKUJ_clean_linker_0, # of connection points: 2
#     Edge 41, Type (0, 0), BuildingBlock: MIFKUJ_clean_linker_0, # of connection points: 2
#     Edge 42, Type (0, 0), BuildingBlock: MIFKUJ_clean_linker_0, # of connection points: 2
#     Edge 43, Type (0, 0), BuildingBlock: MIFKUJ_clean_linker_0, # of connection points: 2
#     Edge 44, Type (0, 0), BuildingBlock: MIFKUJ_clean_linker_0, # of connection points: 2
#     Edge 45, Type (0, 0), BuildingBlock: MIFKUJ_clean_linker_0, # of connection points: 2
#     Edge 46, Type (0, 0), BuildingBlock: MIFKUJ_clean_linker_0, # of connection points: 2
#     Edge 47, Type (0, 0), BuildingBlock: MIFKUJ_clean_linker_0, # of connection points: 2
#     Edge 48, Type (0, 0), BuildingBlock: MIFKUJ_clean_linker_0, # of connection points: 2
#     Edge 49, Type (0, 0), BuildingBlock: MIFKUJ_clean_linker_0, # of connection points: 2
#     Edge 50, Type (0, 0), BuildingBlock: MIFKUJ_clean_linker_0, # of connection points: 2
#     Edge 51, Type (0, 0), BuildingBlock: MIFKUJ_clean_linker_0, # of connection points: 2
#     Edge 52, Type (0, 0), BuildingBlock: MIFKUJ_clean_linker_0, # of connection points: 2
#     Edge 53, Type (0, 0), BuildingBlock: MIFKUJ_clean_linker_0, # of connection points: 2
#     Edge 54, Type (0, 0), BuildingBlock: MIFKUJ_clean_linker_0, # of connection points: 2
#     Edge 55, Type (0, 0), BuildingBlock: MIFKUJ_clean_linker_0, # of connection points: 2
#     Edge 56, Type (0, 0), BuildingBlock: MIFKUJ_clean_linker_0, # of connection points: 2
#     Edge 57, Type (0, 0), BuildingBlock: MIFKUJ_clean_linker_0, # of connection points: 2
#     Edge 58, Type (0, 0), BuildingBlock: MIFKUJ_clean_linker_0, # of connection points: 2
#     Edge 59, Type (0, 0), BuildingBlock: MIFKUJ_clean_linker_0, # of connection points: 2
#     Edge 60, Type (0, 0), BuildingBlock: MIFKUJ_clean_linker_0, # of connection points: 2
#     Edge 61, Type (0, 0), BuildingBlock: MIFKUJ_clean_linker_0, # of connection points: 2
#     Edge 62, Type (0, 0), BuildingBlock: MIFKUJ_clean_linker_0, # of connection points: 2
#     Edge 63, Type (0, 0), BuildingBlock: MIFKUJ_clean_linker_0, # of connection points: 2
#     Edge 64, Type (0, 0), BuildingBlock: MIFKUJ_clean_linker_0, # of connection points: 2
#     Edge 65, Type (0, 0), BuildingBlock: MIFKUJ_clean_linker_0, # of connection points: 2
#     Edge 66, Type (0, 0), BuildingBlock: MIFKUJ_clean_linker_0, # of connection points: 2
#     Edge 67, Type (0, 0), BuildingBlock: MIFKUJ_clean_linker_0, # of connection points: 2
#     Edge 68, Type (0, 0), BuildingBlock: MIFKUJ_clean_linker_0, # of connection points: 2
#     Edge 69, Type (0, 0), BuildingBlock: MIFKUJ_clean_linker_0, # of connection points: 2
#     Edge 70, Type (0, 0), BuildingBlock: MIFKUJ_clean_linker_0, # of connection points: 2
#     Edge 71, Type (0, 0), BuildingBlock: MIFKUJ_clean_linker_0, # of connection points: 2
#     Edge 72, Type (0, 0), BuildingBlock: MIFKUJ_clean_linker_0, # of connection points: 2
#     Edge 73, Type (0, 0), BuildingBlock: MIFKUJ_clean_linker_0, # of connection points: 2
#     Edge 74, Type (0, 0), BuildingBlock: MIFKUJ_clean_linker_0, # of connection points: 2
#     Edge 75, Type (0, 0), BuildingBlock: MIFKUJ_clean_linker_0, # of connection points: 2
#     Edge 76, Type (0, 0), BuildingBlock: MIFKUJ_clean_linker_0, # of connection points: 2
#     Edge 77, Type (0, 0), BuildingBlock: MIFKUJ_clean_linker_0, # of connection points: 2
#     Edge 78, Type (0, 0), BuildingBlock: MIFKUJ_clean_linker_0, # of connection points: 2
#     Edge 79, Type (0, 0), BuildingBlock: MIFKUJ_clean_linker_0, # of connection points: 2
#     Edge 80, Type (0, 0), BuildingBlock: MIFKUJ_clean_linker_0, # of connection points: 2
#     Edge 81, Type (0, 0), BuildingBlock: MIFKUJ_clean_linker_0, # of connection points: 2
#     Edge 82, Type (0, 0), BuildingBlock: MIFKUJ_clean_linker_0, # of connection points: 2
#     Edge 83, Type (0, 0), BuildingBlock: MIFKUJ_clean_linker_0, # of connection points: 2
#     Edge 84, Type (0, 0), BuildingBlock: MIFKUJ_clean_linker_0, # of connection points: 2
#     Edge 85, Type (0, 0), BuildingBlock: MIFKUJ_clean_linker_0, # of connection points: 2
#     Edge 86, Type (0, 0), BuildingBlock: MIFKUJ_clean_linker_0, # of connection points: 2
#     Edge 87, Type (0, 0), BuildingBlock: MIFKUJ_clean_linker_0, # of connection points: 2
#     Edge 88, Type (0, 0), BuildingBlock: MIFKUJ_clean_linker_0, # of connection points: 2
#     Edge 89, Type (0, 0), BuildingBlock: MIFKUJ_clean_linker_0, # of connection points: 2
#     Edge 90, Type (0, 0), BuildingBlock: MIFKUJ_clean_linker_0, # of connection points: 2
#     Edge 91, Type (0, 0), BuildingBlock: MIFKUJ_clean_linker_0, # of connection points: 2
#     Edge 92, Type (0, 0), BuildingBlock: MIFKUJ_clean_linker_0, # of connection points: 2
#     Edge 93, Type (0, 0), BuildingBlock: MIFKUJ_clean_linker_0, # of connection points: 2
#     Edge 94, Type (0, 0), BuildingBlock: MIFKUJ_clean_linker_0, # of connection points: 2
#     Edge 95, Type (0, 0), BuildingBlock: MIFKUJ_clean_linker_0, # of connection points: 2
#     Edge 96, Type (0, 0), BuildingBlock: MIFKUJ_clean_linker_0, # of connection points: 2
#     Edge 97, Type (0, 0), BuildingBlock: MIFKUJ_clean_linker_0, # of connection points: 2
#     Edge 98, Type (0, 0), BuildingBlock: MIFKUJ_clean_linker_0, # of connection points: 2
#     Edge 99, Type (0, 0), BuildingBlock: MIFKUJ_clean_linker_0, # of connection points: 2
#     Edge 100, Type (0, 0), BuildingBlock: MIFKUJ_clean_linker_0, # of connection points: 2
#     Edge 101, Type (0, 0), BuildingBlock: MIFKUJ_clean_linker_0, # of connection points: 2
#     Edge 102, Type (0, 0), BuildingBlock: MIFKUJ_clean_linker_0, # of connection points: 2
#     Edge 103, Type (0, 0), BuildingBlock: MIFKUJ_clean_linker_0, # of connection points: 2
#     Edge 104, Type (0, 0), BuildingBlock: MIFKUJ_clean_linker_0, # of connection points: 2
#     Edge 105, Type (0, 0), BuildingBlock: MIFKUJ_clean_linker_0, # of connection points: 2
#     Edge 106, Type (0, 0), BuildingBlock: MIFKUJ_clean_linker_0, # of connection points: 2
#     Edge 107, Type (0, 0), BuildingBlock: MIFKUJ_clean_linker_0, # of connection points: 2
# Relax obj value: 0.114
# Max RMSD: 0.260
# Mean RMSD: 0.246
data_MOF--net-uns--node1-CEKHIL_clean_sbu_0--edge1-MIFKUJ_clean_linker_0
_symmetry_space_group_name_H-M    P1
_symmetry_Int_Tables_number       1
_symmetry_cell_setting            triclinic
loop_
_symmetry_equiv_pos_as_xyz
'x, y, z'
_cell_length_a     71.243273
_cell_length_b     70.316538
_cell_length_c     72.181328
_cell_angle_alpha  90.981751
_cell_angle_beta   90.002373
_cell_angle_gamma 120.42986
loop_
_atom_site_label
_atom_site_type_symbol
_atom_site_fract_x
_atom_site_fract_y
_atom_site_fract_z
_atom_type_partial_charge
Co0 Co 0.27852 0.18995 0.05769 0.0
O1 O 0.29098 0.17668 0.07241 0.0
O2 O 0.27652 0.19579 0.08381 0.0
C3 C 0.25972 0.16114 0.03826 0.0
O4 O 0.26335 0.20513 0.04617 0.0
Co5 Co 0.29235 0.19952 0.01684 0.0
O6 O 0.26598 0.20221 0.0153 0.0
C7 C 0.32295 0.22755 0.04567 0.0
C8 C 0.28679 0.18515 0.08678 0.0
C9 C 0.25778 0.20634 0.02941 0.0
O10 O 0.30754 0.2176 0.05728 0.0
O11 O 0.32092 0.22244 0.0284 0.0
O12 O 0.25179 0.16184 0.05434 0.0
O13 O 0.27957 0.17661 0.03537 0.0
Co14 Co 0.82004 0.08946 0.05654 0.0
O15 O 0.84883 0.11144 0.04972 0.0
O16 O 0.82127 0.09339 0.02993 0.0
C17 C 0.8165 0.10763 0.08093 0.0
O18 O 0.78798 0.06649 0.0592 0.0
Co19 Co 0.81445 0.06709 0.09459 0.0
O20 O 0.78315 0.05396 0.08839 0.0
C21 C 0.82991 0.05225 0.06307 0.0
C22 C 0.84169 0.10807 0.03276 0.0
C23 C 0.77576 0.05476 0.0725 0.0
O24 O 0.82739 0.06554 0.05278 0.0
O25 O 0.82712 0.05139 0.08062 0.0
O26 O 0.81345 0.1121 0.06419 0.0
O27 O 0.82451 0.09478 0.08214 0.0
Co28 Co 0.9108 0.73273 0.06235 0.0
O29 O 0.90215 0.75352 0.05579 0.0
O30 O 0.90452 0.73059 0.03589 0.0
C31 C 0.88948 0.71896 0.08733 0.0
O32 O 0.91852 0.7085 0.06495 0.0
Co33 Co 0.93557 0.74043 0.09969 0.0
O34 O 0.92671 0.70911 0.0952 0.0
C35 C 0.95984 0.76567 0.06737 0.0
C36 C 0.89985 0.74605 0.03891 0.0
C37 C 0.92223 0.69992 0.07915 0.0
O38 O 0.94222 0.7552 0.05768 0.0
O39 O 0.9606 0.76304 0.08481 0.0
O40 O 0.88159 0.71222 0.07075 0.0
O41 O 0.90903 0.7359 0.08811 0.0
Co42 Co 0.17414 0.26201 0.44034 0.0
O43 O 0.14546 0.23985 0.44773 0.0
O44 O 0.17054 0.26488 0.46672 0.0
C45 C 0.16445 0.27352 0.41509 0.0
O46 O 0.20522 0.28774 0.43719 0.0
Co47 Co 0.1922 0.25585 0.40296 0.0
O48 O 0.21283 0.28785 0.4069 0.0
C49 C 0.19368 0.23208 0.43557 0.0
C50 C 0.15088 0.2482 0.46437 0.0
C51 C 0.21713 0.29701 0.42295 0.0
O52 O 0.18543 0.24149 0.4453 0.0
O53 O 0.19685 0.23479 0.41811 0.0
O54 O 0.16316 0.28052 0.43154 0.0
O55 O 0.16866 0.25763 0.41466 0.0
Co56 Co 0.73386 0.90822 0.4371 0.0
O57 O 0.74768 0.89357 0.44774 0.0
O58 O 0.72731 0.90396 0.46326 0.0
C59 C 0.72005 0.88637 0.4119 0.0
O60 O 0.71614 0.92265 0.43044 0.0
Co61 Co 0.749 0.93129 0.39931 0.0
O62 O 0.72061 0.93021 0.40008 0.0
C63 C 0.77512 0.95311 0.43281 0.0
C64 C 0.73907 0.89462 0.46327 0.0
C65 C 0.71068 0.92811 0.41527 0.0
O66 O 0.76051 0.93763 0.44265 0.0
O67 O 0.7742 0.95324 0.41511 0.0
O68 O 0.71008 0.88036 0.42765 0.0
O69 O 0.73911 0.90398 0.41236 0.0
Co70 Co 0.08847 0.80069 0.45383 0.0
O71 O 0.116 0.81313 0.44155 0.0
O72 O 0.08397 0.79353 0.42751 0.0
C73 C 0.09581 0.83036 0.47133 0.0
O74 O 0.05675 0.78578 0.46215 0.0
Co75 Co 0.08748 0.79373 0.49625 0.0
O76 O 0.05602 0.78313 0.49329 0.0
C77 C 0.09432 0.7648 0.47145 0.0
C78 C 0.10512 0.80392 0.4264 0.0
C79 C 0.04655 0.78039 0.47767 0.0
O80 O 0.08969 0.77328 0.45786 0.0
O81 O 0.09566 0.77137 0.48828 0.0
O82 O 0.08963 0.82894 0.45414 0.0
O83 O 0.09967 0.81517 0.47659 0.0
Co84 Co 0.74608 0.82778 0.92542 0.0
O85 O 0.72591 0.83578 0.91605 0.0
O86 O 0.75969 0.84952 0.90614 0.0
C87 C 0.72312 0.79124 0.92371 0.0
O88 O 0.77095 0.82228 0.9319 0.0
Co89 Co 0.73578 0.80313 0.96264 0.0
O90 O 0.75775 0.79592 0.9535 0.0
C91 C 0.75381 0.85131 0.96304 0.0
C92 C 0.74095 0.84847 0.90469 0.0
C93 C 0.77205 0.80767 0.94166 0.0
O94 O 0.75595 0.85146 0.94533 0.0
O95 O 0.74488 0.83356 0.97238 0.0
O96 O 0.73378 0.80186 0.90923 0.0
O97 O 0.72486 0.80319 0.93815 0.0
Co98 Co 0.16692 0.92088 0.93572 0.0
O99 O 0.13754 0.90549 0.94417 0.0
O100 O 0.16137 0.89458 0.94886 0.0
C101 C 0.17476 0.9545 0.94577 0.0
O102 O 0.19893 0.93357 0.92902 0.0
Co103 Co 0.17853 0.9558 0.9053 0.0
O104 O 0.20861 0.96392 0.91237 0.0
C105 C 0.15623 0.90868 0.89465 0.0
C106 C 0.14183 0.89132 0.95127 0.0
C107 C 0.21338 0.95122 0.921 0.0
O108 O 0.15756 0.90387 0.91152 0.0
O109 O 0.16229 0.9283 0.88953 0.0
O110 O 0.17604 0.94096 0.95697 0.0
O111 O 0.16639 0.94648 0.92962 0.0
Co112 Co 0.0754 0.2501 0.9345 0.0
O113 O 0.09089 0.23521 0.94014 0.0
O114 O 0.10215 0.26989 0.94811 0.0
C115 C 0.04253 0.22316 0.9438 0.0
O116 O 0.06268 0.27027 0.93113 0.0
Co117 Co 0.03912 0.2295 0.90412 0.0
O118 O 0.03069 0.24966 0.91602 0.0
C119 C 0.08514 0.25567 0.89301 0.0
C120 C 0.10535 0.25321 0.94845 0.0
C121 C 0.04413 0.26692 0.9252 0.0
O122 O 0.09094 0.25987 0.91016 0.0
O123 O 0.06537 0.24292 0.88772 0.0
O124 O 0.05668 0.23706 0.95571 0.0
O125 O 0.04958 0.22438 0.9271 0.0
Co126 Co 0.82427 0.74804 0.56285 0.0
O127 O 0.85098 0.76215 0.54941 0.0
O128 O 0.82771 0.72614 0.54881 0.0
C129 C 0.81302 0.77154 0.55532 0.0
O130 O 0.79448 0.72825 0.57444 0.0
Co131 Co 0.81931 0.7737 0.59592 0.0
O132 O 0.7884 0.74998 0.59377 0.0
C133 C 0.84402 0.75121 0.60147 0.0
C134 C 0.84595 0.74275 0.54315 0.0
C135 C 0.78194 0.73167 0.58517 0.0
O136 O 0.83934 0.74382 0.58468 0.0
O137 O 0.83869 0.76465 0.60844 0.0
O138 O 0.80994 0.75565 0.54399 0.0
O139 O 0.82519 0.77448 0.56965 0.0
Co140 Co 0.24215 0.07244 0.56204 0.0
O141 O 0.23019 0.09085 0.55697 0.0
O142 O 0.26271 0.09769 0.54791 0.0
C143 C 0.21224 0.04049 0.55366 0.0
O144 O 0.2594 0.05655 0.56456 0.0
Co145 Co 0.2214 0.0372 0.59266 0.0
O146 O 0.23886 0.02572 0.58074 0.0
C147 C 0.25081 0.08401 0.60323 0.0
C148 C 0.24793 0.10338 0.54805 0.0
C149 C 0.25537 0.0378 0.57085 0.0
O150 O 0.25491 0.08891 0.58606 0.0
O151 O 0.23686 0.06465 0.60866 0.0
O152 O 0.22586 0.05307 0.54126 0.0
O153 O 0.21599 0.04854 0.57037 0.0
Co154 Co 0.91687 0.17286 0.57677 0.0
O155 O 0.88784 0.16052 0.58592 0.0
O156 O 0.91135 0.15063 0.59499 0.0
C157 C 0.92557 0.20821 0.58008 0.0
O158 O 0.94852 0.18293 0.57018 0.0
Co159 Co 0.92856 0.19971 0.5405 0.0
O160 O 0.95861 0.20936 0.54888 0.0
C161 C 0.90306 0.1511 0.53846 0.0
C162 C 0.89223 0.14865 0.59658 0.0
C163 C 0.96311 0.1985 0.56023 0.0
O164 O 0.90594 0.15035 0.55596 0.0
O165 O 0.90944 0.16914 0.52989 0.0
O166 O 0.92694 0.19764 0.59407 0.0
O167 O 0.91698 0.19654 0.56514 0.0
Co168 Co 0.94241 0.5242 0.3888 0.0
O169 O 0.95724 0.51185 0.40162 0.0
O170 O 0.93819 0.52502 0.41528 0.0
C171 C 0.92755 0.4985 0.36617 0.0
O172 O 0.92432 0.53731 0.37959 0.0
Co173 Co 0.95814 0.54185 0.3495 0.0
O174 O 0.93333 0.54715 0.34988 0.0
C175 C 0.98503 0.56678 0.38122 0.0
C176 C 0.95078 0.51667 0.41685 0.0
C177 C 0.92194 0.54491 0.36419 0.0
O178 O 0.96903 0.55404 0.39148 0.0
O179 O 0.98496 0.5639 0.36367 0.0
O180 O 0.91836 0.49507 0.38232 0.0
O181 O 0.94659 0.51601 0.36505 0.0
Co182 Co 0.48208 0.41731 0.39106 0.0
O183 O 0.50909 0.4256 0.37923 0.0
O184 O 0.48018 0.42278 0.36501 0.0
C185 C 0.49598 0.43978 0.416 0.0
O186 O 0.45173 0.40958 0.39958 0.0
Co187 Co 0.47352 0.39385 0.42897 0.0
O188 O 0.44831 0.39859 0.42916 0.0
C189 C 0.47082 0.36963 0.39472 0.0
C190 C 0.50029 0.42733 0.36412 0.0
C191 C 0.44128 0.40379 0.41499 0.0
O192 O 0.47166 0.38539 0.38533 0.0
O193 O 0.47359 0.37064 0.41231 0.0
O194 O 0.49345 0.44726 0.40045 0.0
O195 O 0.49268 0.41993 0.41524 0.0
Co196 Co 0.58315 0.07083 0.39333 0.0
O197 O 0.5753 0.09157 0.38454 0.0
O198 O 0.57738 0.06662 0.36687 0.0
C199 C 0.56131 0.05893 0.41814 0.0
O200 O 0.59015 0.04646 0.39787 0.0
Co201 Co 0.60666 0.07945 0.43138 0.0
O202 O 0.59755 0.04785 0.42834 0.0
C203 C 0.63218 0.10294 0.39881 0.0
C204 C 0.57324 0.08261 0.36825 0.0
C205 C 0.59339 0.0382 0.4125 0.0
O206 O 0.61481 0.09258 0.38879 0.0
O207 O 0.63237 0.10079 0.41638 0.0
O208 O 0.5537 0.05127 0.40164 0.0
O209 O 0.58095 0.07573 0.41878 0.0
Co210 Co 0.84245 0.5957 0.76545 0.0
O211 O 0.8128 0.57722 0.77283 0.0
O212 O 0.8397 0.59911 0.79198 0.0
C213 C 0.83632 0.61052 0.74043 0.0
O214 O 0.87497 0.61742 0.76197 0.0
Co215 Co 0.85559 0.58394 0.72757 0.0
O216 O 0.88283 0.61215 0.73266 0.0
C217 C 0.85393 0.55918 0.76046 0.0
C218 C 0.81906 0.58485 0.78956 0.0
C219 C 0.88816 0.62247 0.74822 0.0
O220 O 0.84879 0.57132 0.7702 0.0
O221 O 0.85615 0.56062 0.74285 0.0
O222 O 0.83628 0.61807 0.75696 0.0
O223 O 0.83662 0.59226 0.73985 0.0
Co224 Co 0.40253 0.24857 0.77369 0.0
O225 O 0.42126 0.2384 0.78233 0.0
O226 O 0.39909 0.24382 0.80023 0.0
C227 C 0.3889 0.22558 0.74903 0.0
O228 O 0.38029 0.25822 0.76887 0.0
Co229 Co 0.41213 0.27124 0.73552 0.0
O230 O 0.38193 0.26521 0.73839 0.0
C231 C 0.43873 0.29637 0.76788 0.0
C232 C 0.41341 0.23757 0.79869 0.0
C233 C 0.37266 0.26204 0.75406 0.0
O234 O 0.42634 0.28 0.77813 0.0
O235 O 0.43666 0.29585 0.75022 0.0
O236 O 0.38113 0.21895 0.76545 0.0
O237 O 0.40628 0.24488 0.74842 0.0
Co238 Co 0.75187 0.13992 0.77499 0.0
O239 O 0.77731 0.15287 0.75997 0.0
O240 O 0.74358 0.13392 0.74894 0.0
C241 C 0.7623 0.16866 0.79447 0.0
O242 O 0.72187 0.125 0.78703 0.0
Co243 Co 0.75757 0.13064 0.81567 0.0
O244 O 0.728 0.12664 0.81778 0.0
C245 C 0.7591 0.10244 0.78647 0.0
C246 C 0.76445 0.14418 0.74576 0.0
C247 C 0.71537 0.12296 0.80395 0.0
O248 O 0.75284 0.11207 0.77524 0.0
O249 O 0.76343 0.10816 0.80357 0.0
O250 O 0.75345 0.16815 0.77856 0.0
O251 O 0.76681 0.15324 0.79702 0.0
Co252 Co 0.40759 0.14867 0.25518 0.0
O253 O 0.38911 0.15867 0.2456 0.0
O254 O 0.42352 0.1721 0.23758 0.0
C255 C 0.38338 0.1126 0.25109 0.0
O256 O 0.43104 0.14146 0.26245 0.0
Co257 Co 0.39309 0.12062 0.29077 0.0
O258 O 0.41572 0.11376 0.28277 0.0
C259 C 0.41077 0.16862 0.2935 0.0
C260 C 0.40538 0.17222 0.23565 0.0
C261 C 0.43116 0.12616 0.272 0.0
O262 O 0.41633 0.17049 0.27639 0.0
O263 O 0.39968 0.15002 0.30145 0.0
O264 O 0.39558 0.12402 0.2375 0.0
O265 O 0.3848 0.12365 0.26602 0.0
Co266 Co 0.83914 0.26019 0.26836 0.0
O267 O 0.81013 0.24554 0.27773 0.0
O268 O 0.8339 0.23458 0.28241 0.0
C269 C 0.8477 0.29453 0.27692 0.0
O270 O 0.87086 0.2722 0.26083 0.0
Co271 Co 0.84932 0.29292 0.2362 0.0
O272 O 0.87958 0.30024 0.24147 0.0
C273 C 0.8251 0.24523 0.22819 0.0
C274 C 0.81449 0.23156 0.28513 0.0
C275 C 0.88477 0.28848 0.25106 0.0
O276 O 0.82851 0.24173 0.24494 0.0
O277 O 0.83053 0.26441 0.22231 0.0
O278 O 0.84913 0.2816 0.28874 0.0
O279 O 0.83874 0.28544 0.26118 0.0
Co280 Co 0.73147 0.57686 0.26685 0.0
O281 O 0.74343 0.55904 0.27419 0.0
O282 O 0.75729 0.59421 0.2822 0.0
C283 C 0.69666 0.55231 0.27346 0.0
O284 O 0.72246 0.5998 0.26247 0.0
Co285 Co 0.6993 0.56056 0.23317 0.0
O286 O 0.69629 0.58619 0.24021 0.0
C287 C 0.74629 0.58203 0.22641 0.0
C288 C 0.75813 0.57618 0.28334 0.0
C289 C 0.70826 0.60092 0.25219 0.0
O290 O 0.74994 0.58622 0.24388 0.0
O291 O 0.72713 0.57036 0.21947 0.0
O292 O 0.71014 0.56456 0.28649 0.0
O293 O 0.70514 0.55329 0.25742 0.0
Co294 Co 0.48627 0.0795 0.89539 0.0
O295 O 0.51698 0.09536 0.89078 0.0
O296 O 0.4943 0.06117 0.88094 0.0
C297 C 0.47989 0.10664 0.88754 0.0
O298 O 0.45347 0.05839 0.89724 0.0
Co299 Co 0.46807 0.09658 0.92662 0.0
O300 O 0.44004 0.07613 0.91395 0.0
C301 C 0.4898 0.07186 0.93653 0.0
C302 C 0.51405 0.07805 0.8816 0.0
C303 C 0.43746 0.06015 0.90352 0.0
O304 O 0.49124 0.06809 0.91923 0.0
O305 O 0.48255 0.08424 0.94233 0.0
O306 O 0.48122 0.09404 0.87491 0.0
O307 O 0.48492 0.10411 0.90417 0.0
Co308 Co 0.91575 0.41143 0.88776 0.0
O309 O 0.90407 0.4299 0.88228 0.0
O310 O 0.93739 0.43757 0.87501 0.0
C311 C 0.88707 0.37986 0.87714 0.0
O312 O 0.93252 0.3952 0.89122 0.0
Co313 Co 0.8913 0.37502 0.917 0.0
O314 O 0.91077 0.36469 0.90736 0.0
C315 C 0.91945 0.42112 0.92936 0.0
C316 C 0.92241 0.44299 0.87444 0.0
C317 C 0.92796 0.37651 0.89807 0.0
O318 O 0.92619 0.42648 0.91268 0.0
O319 O 0.90412 0.40189 0.93373 0.0
O320 O 0.90181 0.39328 0.86583 0.0
O321 O 0.88879 0.38711 0.89398 0.0
Co322 Co 0.58986 0.51865 0.90826 0.0
O323 O 0.56157 0.509 0.91812 0.0
O324 O 0.5821 0.49491 0.92562 0.0
C325 C 0.60273 0.55483 0.91282 0.0
O326 O 0.6205 0.52578 0.90067 0.0
Co327 Co 0.60287 0.54675 0.87276 0.0
O328 O 0.63237 0.55417 0.8811 0.0
C329 C 0.57343 0.49867 0.86954 0.0
C330 C 0.56409 0.49521 0.9279 0.0
C331 C 0.6358 0.54173 0.89151 0.0
O332 O 0.5763 0.49702 0.8869 0.0
O333 O 0.58149 0.51721 0.86142 0.0
O334 O 0.60297 0.54289 0.92621 0.0
O335 O 0.59257 0.54415 0.89787 0.0
Co336 Co 0.61369 0.86072 0.7193 0.0
O337 O 0.62826 0.84852 0.7327 0.0
O338 O 0.61382 0.86679 0.74574 0.0
C339 C 0.59399 0.8314 0.70052 0.0
O340 O 0.59686 0.87503 0.7093 0.0
Co341 Co 0.62422 0.8695 0.67759 0.0
O342 O 0.59947 0.87485 0.67822 0.0
C343 C 0.65645 0.89875 0.70488 0.0
C344 C 0.625 0.8569 0.74762 0.0
C345 C 0.59165 0.87823 0.69298 0.0
O346 O 0.64203 0.88891 0.71731 0.0
O347 O 0.65334 0.89298 0.68774 0.0
O348 O 0.5873 0.83193 0.7172 0.0
O349 O 0.61328 0.84731 0.69665 0.0
Co350 Co 0.15633 0.75756 0.72099 0.0
O351 O 0.18455 0.76609 0.71132 0.0
O352 O 0.1566 0.76209 0.69454 0.0
C353 C 0.16724 0.78066 0.7457 0.0
O354 O 0.12503 0.74956 0.72674 0.0
Co355 Co 0.14367 0.73536 0.75944 0.0
O356 O 0.12037 0.74279 0.75728 0.0
C357 C 0.14307 0.70933 0.72692 0.0
C358 C 0.17681 0.76697 0.69531 0.0
C359 C 0.11418 0.74638 0.74182 0.0
O360 O 0.147 0.72562 0.71655 0.0
O361 O 0.14241 0.71028 0.74462 0.0
O362 O 0.16629 0.78763 0.72938 0.0
O363 O 0.16452 0.76103 0.74603 0.0
Co364 Co 0.24406 0.40062 0.72406 0.0
O365 O 0.23781 0.42206 0.71419 0.0
O366 O 0.23758 0.39503 0.69775 0.0
C367 C 0.22267 0.39176 0.74914 0.0
O368 O 0.24932 0.37526 0.72998 0.0
Co369 Co 0.26813 0.41053 0.76205 0.0
O370 O 0.25812 0.37868 0.76029 0.0
C371 C 0.29348 0.43086 0.72857 0.0
C372 C 0.23476 0.41193 0.69833 0.0
C373 C 0.25293 0.36784 0.74499 0.0
O374 O 0.27589 0.42053 0.71883 0.0
O375 O 0.29392 0.42986 0.74625 0.0
O376 O 0.21451 0.38324 0.73297 0.0
O377 O 0.24285 0.40749 0.7492 0.0
Co378 Co 0.5053 0.92717 0.10738 0.0
O379 O 0.47616 0.90778 0.11542 0.0
O380 O 0.50364 0.92962 0.13413 0.0
C381 C 0.4969 0.94175 0.08347 0.0
O382 O 0.53739 0.94964 0.10347 0.0
Co383 Co 0.51887 0.91907 0.06843 0.0
O384 O 0.54317 0.94975 0.07278 0.0
C385 C 0.51851 0.89249 0.09968 0.0
C386 C 0.48305 0.91497 0.13213 0.0
C387 C 0.54922 0.95805 0.08904 0.0
O388 O 0.51279 0.90339 0.11045 0.0
O389 O 0.52061 0.89528 0.08214 0.0
O390 O 0.49777 0.94907 0.10027 0.0
O391 O 0.49838 0.92418 0.08201 0.0
Co392 Co 0.05994 0.56889 0.11044 0.0
O393 O 0.07688 0.55785 0.12126 0.0
O394 O 0.05521 0.56607 0.1371 0.0
C395 C 0.04616 0.54525 0.08637 0.0
O396 O 0.03988 0.58032 0.10279 0.0
Co397 Co 0.07494 0.58979 0.07158 0.0
O398 O 0.04665 0.58895 0.07261 0.0
C399 C 0.09969 0.61457 0.10433 0.0
C400 C 0.06915 0.55924 0.13713 0.0
C401 C 0.03555 0.58621 0.08725 0.0
O402 O 0.08466 0.59989 0.11439 0.0
O403 O 0.10028 0.61277 0.0867 0.0
O404 O 0.03742 0.53944 0.10262 0.0
O405 O 0.06468 0.56345 0.08601 0.0
Co406 Co 0.42782 0.47396 0.11625 0.0
O407 O 0.45426 0.4824 0.10322 0.0
O408 O 0.42216 0.47012 0.0897 0.0
C409 C 0.44117 0.5028 0.13607 0.0
O410 O 0.39726 0.46441 0.12583 0.0
Co411 Co 0.42586 0.46223 0.1577 0.0
O412 O 0.39991 0.46579 0.157 0.0
C413 C 0.42447 0.43133 0.12934 0.0
C414 C 0.44278 0.47668 0.08806 0.0
C415 C 0.38962 0.4643 0.14208 0.0
O416 O 0.42224 0.44313 0.11718 0.0
O417 O 0.4276 0.43667 0.14659 0.0
O418 O 0.43544 0.50456 0.11936 0.0
O419 O 0.44112 0.48476 0.13936 0.0
Co420 Co 0.06724 0.48016 0.59367 0.0
O421 O 0.04725 0.48868 0.58503 0.0
O422 O 0.08081 0.50239 0.57467 0.0
C423 C 0.04359 0.44374 0.59154 0.0
O424 O 0.09186 0.47405 0.59956 0.0
Co425 Co 0.05697 0.45485 0.63058 0.0
O426 O 0.07834 0.4472 0.62071 0.0
C427 C 0.07458 0.50291 0.63155 0.0
C428 C 0.06214 0.50158 0.57367 0.0
C429 C 0.09275 0.45905 0.60896 0.0
O430 O 0.07742 0.50339 0.61392 0.0
O431 O 0.06535 0.485 0.64066 0.0
O432 O 0.05421 0.45457 0.5771 0.0
O433 O 0.04604 0.45555 0.60626 0.0
Co434 Co 0.50742 0.59023 0.60599 0.0
O435 O 0.47655 0.57365 0.60967 0.0
O436 O 0.49978 0.5638 0.61957 0.0
C437 C 0.51169 0.62308 0.61468 0.0
O438 O 0.54038 0.60353 0.60512 0.0
Co439 Co 0.52723 0.62715 0.57672 0.0
O440 O 0.55482 0.6356 0.58999 0.0
C441 C 0.50714 0.58035 0.56473 0.0
C442 C 0.47983 0.55975 0.61864 0.0
C443 C 0.55678 0.62182 0.59983 0.0
O444 O 0.50404 0.57438 0.58172 0.0
O445 O 0.5149 0.60039 0.55984 0.0
O446 O 0.51072 0.60939 0.62701 0.0
O447 O 0.50814 0.61578 0.59774 0.0
Co448 Co 0.41077 0.91873 0.60363 0.0
O449 O 0.42805 0.90752 0.61373 0.0
O450 O 0.43445 0.94149 0.61873 0.0
C451 C 0.37791 0.89018 0.6108 0.0
O452 O 0.39532 0.93511 0.59544 0.0
Co453 Co 0.38082 0.89267 0.57007 0.0
O454 O 0.36866 0.91198 0.57566 0.0
C455 C 0.42751 0.92235 0.56387 0.0
C456 C 0.43994 0.92669 0.62159 0.0
C457 C 0.37818 0.92968 0.58551 0.0
O458 O 0.42974 0.9288 0.58093 0.0
O459 O 0.40957 0.90671 0.55711 0.0
O460 O 0.38935 0.9054 0.62311 0.0
O461 O 0.38789 0.891 0.5956 0.0
Co462 Co 0.15942 0.42153 0.23172 0.0
O463 O 0.19026 0.43902 0.22771 0.0
O464 O 0.16898 0.40561 0.21571 0.0
C465 C 0.15178 0.44844 0.22637 0.0
O466 O 0.12681 0.39905 0.23251 0.0
Co467 Co 0.13866 0.43402 0.26432 0.0
O468 O 0.1112 0.41317 0.25109 0.0
C469 C 0.16185 0.41001 0.27193 0.0
C470 C 0.18835 0.42297 0.21722 0.0
C471 C 0.10999 0.39878 0.23942 0.0
O472 O 0.16436 0.40824 0.25444 0.0
O473 O 0.15357 0.42108 0.27864 0.0
O474 O 0.15406 0.4376 0.21267 0.0
O475 O 0.15651 0.44439 0.24255 0.0
Co476 Co 0.57054 0.73715 0.22502 0.0
O477 O 0.56094 0.75678 0.21729 0.0
O478 O 0.59111 0.75807 0.20762 0.0
C479 C 0.53849 0.7057 0.22094 0.0
O480 O 0.58502 0.71898 0.23012 0.0
Co481 Co 0.54987 0.71006 0.2607 0.0
O482 O 0.56709 0.69612 0.25353 0.0
C483 C 0.58304 0.7571 0.26401 0.0
C484 C 0.57801 0.76587 0.20691 0.0
C485 C 0.58171 0.70329 0.24111 0.0
O486 O 0.58681 0.75742 0.24657 0.0
O487 O 0.56748 0.74048 0.27201 0.0
O488 O 0.5512 0.71498 0.20699 0.0
O489 O 0.54432 0.71699 0.23631 0.0
Co490 Co 0.25147 0.84069 0.24218 0.0
O491 O 0.22433 0.83324 0.25345 0.0
O492 O 0.24552 0.82037 0.26227 0.0
C493 C 0.2649 0.87723 0.2422 0.0
O494 O 0.28103 0.84579 0.23374 0.0
Co495 Co 0.26084 0.86232 0.20344 0.0
O496 O 0.28963 0.86504 0.20728 0.0
C497 C 0.23068 0.81462 0.20645 0.0
C498 C 0.22791 0.82134 0.26479 0.0
C499 C 0.29413 0.85601 0.22037 0.0
O500 O 0.23594 0.81561 0.22365 0.0
O501 O 0.23717 0.83169 0.19649 0.0
O502 O 0.26651 0.86779 0.25691 0.0
O503 O 0.25322 0.86417 0.2288 0.0
H504 H 0.29995 0.15707 0.09759 0.0
H505 H 0.32136 0.16022 0.12494 0.0
H506 H 0.31722 0.21634 0.14438 0.0
H507 H 0.29579 0.21339 0.11661 0.0
H508 H 0.35884 0.22466 0.14619 0.0
H509 H 0.29009 0.16813 0.16676 0.0
H510 H 0.2547 0.13346 0.16534 0.0
H511 H 0.28727 0.09646 0.15902 0.0
H512 H 0.32287 0.13094 0.16013 0.0
H513 H 0.38468 0.19524 0.2399 0.0
H514 H 0.36762 0.20477 0.2151 0.0
H515 H 0.3982 0.18408 0.17437 0.0
H516 H 0.41598 0.17529 0.19919 0.0
H517 H 0.34277 0.16123 0.18573 0.0
H518 H 0.41184 0.22111 0.16036 0.0
H519 H 0.4462 0.25668 0.16364 0.0
H520 H 0.41084 0.28796 0.18195 0.0
H521 H 0.37629 0.25243 0.17905 0.0
C522 C 0.30321 0.16984 0.10784 0.0
C523 C 0.29609 0.18491 0.10501 0.0
C524 C 0.31546 0.17161 0.12351 0.0
C525 C 0.32083 0.18845 0.13678 0.0
C526 C 0.31323 0.2032 0.13431 0.0
C527 C 0.3008 0.20135 0.11857 0.0
C528 C 0.33526 0.19096 0.15264 0.0
C529 C 0.35516 0.21086 0.15499 0.0
C530 C 0.33056 0.17299 0.16413 0.0
C531 C 0.30917 0.15217 0.16339 0.0
C532 C 0.28971 0.15262 0.16491 0.0
C533 C 0.26961 0.13299 0.16419 0.0
C534 C 0.26873 0.11277 0.16205 0.0
C535 C 0.28797 0.11214 0.16066 0.0
C536 C 0.30812 0.13172 0.16136 0.0
C537 C 0.38865 0.19384 0.22564 0.0
C538 C 0.40175 0.18473 0.22139 0.0
C539 C 0.37888 0.19924 0.21151 0.0
C540 C 0.38181 0.19531 0.19294 0.0
C541 C 0.39615 0.1877 0.18862 0.0
C542 C 0.40635 0.18275 0.20279 0.0
C543 C 0.36649 0.19453 0.17873 0.0
C544 C 0.34633 0.17497 0.17689 0.0
C545 C 0.37085 0.21283 0.16792 0.0
C546 C 0.39157 0.23407 0.16981 0.0
C547 C 0.41143 0.23549 0.16537 0.0
C548 C 0.43093 0.25567 0.16707 0.0
C549 C 0.43072 0.27455 0.17309 0.0
C550 C 0.41099 0.27331 0.17735 0.0
C551 C 0.39146 0.25316 0.17568 0.0
H552 H 0.44582 0.29016 0.17438 0.0
H553 H 0.25315 0.0976 0.16151 0.0
H554 H 0.81444 0.0957 0.11711 0.0
H555 H 0.80661 0.11191 0.1442 0.0
H556 H 0.79793 0.15559 0.10855 0.0
H557 H 0.80485 0.13892 0.08156 0.0
H558 H 0.83096 0.15212 0.15561 0.0
H559 H 0.77302 0.17543 0.12347 0.0
H560 H 0.73947 0.16037 0.10449 0.0
H561 H 0.71744 0.09587 0.12567 0.0
H562 H 0.75139 0.11037 0.14415 0.0
H563 H 0.81524 0.24518 0.19147 0.0
H564 H 0.8064 0.21599 0.16838 0.0
H565 H 0.80645 0.17382 0.21104 0.0
H566 H 0.81535 0.20286 0.23427 0.0
H567 H 0.77393 0.17228 0.16305 0.0
H568 H 0.83493 0.15005 0.19387 0.0
H569 H 0.86821 0.16717 0.21334 0.0
H570 H 0.88396 0.23135 0.19504 0.0
H571 H 0.851 0.21459 0.17527 0.0
C572 C 0.8105 0.1085 0.11508 0.0
C573 C 0.81048 0.11622 0.09727 0.0
C574 C 0.80591 0.11767 0.13054 0.0
C575 C 0.80135 0.13478 0.12846 0.0
C576 C 0.80069 0.14198 0.11057 0.0
C577 C 0.80501 0.13265 0.09513 0.0
C578 C 0.80054 0.14732 0.1449 0.0
C579 C 0.81811 0.15595 0.1575 0.0
C580 C 0.78429 0.15311 0.14709 0.0
C581 C 0.76479 0.14391 0.13496 0.0
C582 C 0.76115 0.15796 0.12384 0.0
C583 C 0.74215 0.1495 0.11311 0.0
C584 C 0.72649 0.12709 0.11369 0.0
C585 C 0.72985 0.11309 0.12493 0.0
C586 C 0.74905 0.12137 0.1354 0.0
C587 C 0.81303 0.22959 0.19603 0.0
C588 C 0.81635 0.22652 0.2147 0.0
C589 C 0.80788 0.21289 0.18281 0.0
C590 C 0.80611 0.19293 0.18801 0.0
C591 C 0.80803 0.18926 0.20676 0.0
C592 C 0.8131 0.2059 0.22001 0.0
C593 C 0.80421 0.17683 0.17361 0.0
C594 C 0.78637 0.16783 0.16139 0.0
C595 C 0.82032 0.17085 0.17165 0.0
C596 C 0.84035 0.18107 0.1833 0.0
C597 C 0.84554 0.1678 0.19398 0.0
C598 C 0.86435 0.17745 0.20506 0.0
C599 C 0.87816 0.20034 0.20548 0.0
C600 C 0.87323 0.21363 0.19476 0.0
C601 C 0.85447 0.20407 0.18364 0.0
H602 H 0.89269 0.20778 0.21408 0.0
H603 H 0.71166 0.1206 0.10556 0.0
H604 H 0.78959 0.6094 0.23506 0.0
H605 H 0.81904 0.63168 0.21373 0.0
H606 H 0.77448 0.60266 0.16744 0.0
H607 H 0.74515 0.58007 0.1885 0.0
H608 H 0.813 0.60801 0.15882 0.0
H609 H 0.78655 0.65272 0.18758 0.0
H610 H 0.77833 0.6698 0.2141 0.0
H611 H 0.84564 0.70375 0.23076 0.0
H612 H 0.85418 0.6866 0.20446 0.0
H613 H 0.84842 0.6839 0.08798 0.0
H614 H 0.82957 0.66008 0.1138 0.0
H615 H 0.8853 0.69942 0.1493 0.0
H616 H 0.90432 0.72381 0.12333 0.0
H617 H 0.84764 0.68924 0.16638 0.0
H618 H 0.8742 0.64706 0.13448 0.0
H619 H 0.88101 0.62888 0.10791 0.0
H620 H 0.81249 0.59067 0.09621 0.0
H621 H 0.80516 0.60827 0.12289 0.0
C622 C 0.78611 0.60747 0.22032 0.0
C623 C 0.76488 0.59308 0.21354 0.0
C624 C 0.80297 0.62033 0.20816 0.0
C625 C 0.79887 0.61916 0.18902 0.0
C626 C 0.77802 0.60391 0.18216 0.0
C627 C 0.76122 0.59101 0.19426 0.0
C628 C 0.81573 0.63457 0.17609 0.0
C629 C 0.82056 0.62577 0.16046 0.0
C630 C 0.82606 0.65778 0.17847 0.0
C631 C 0.82095 0.66818 0.1942 0.0
C632 C 0.79956 0.6637 0.19698 0.0
C633 C 0.79485 0.67341 0.21196 0.0
C634 C 0.81144 0.6878 0.22414 0.0
C635 C 0.83279 0.69256 0.22134 0.0
C636 C 0.83758 0.68286 0.2064 0.0
C637 C 0.85672 0.68758 0.10127 0.0
C638 C 0.87791 0.70569 0.1036 0.0
C639 C 0.84597 0.67379 0.116 0.0
C640 C 0.85622 0.6776 0.13337 0.0
C641 C 0.87719 0.69603 0.13594 0.0
C642 C 0.888 0.70997 0.12113 0.0
C643 C 0.84441 0.66264 0.14883 0.0
C644 C 0.84051 0.67151 0.16494 0.0
C645 C 0.83477 0.63947 0.14683 0.0
C646 C 0.83915 0.62908 0.13062 0.0
C647 C 0.86059 0.63488 0.12617 0.0
C648 C 0.86455 0.62466 0.11112 0.0
C649 C 0.84725 0.60881 0.10029 0.0
C650 C 0.8259 0.60298 0.10459 0.0
C651 C 0.82182 0.61297 0.11974 0.0
H652 H 0.85039 0.60098 0.08862 0.0
H653 H 0.80777 0.69531 0.23573 0.0
H654 H 0.1687 0.26444 0.37859 0.0
H655 H 0.1696 0.28547 0.35142 0.0
H656 H 0.1622 0.33105 0.38714 0.0
H657 H 0.16076 0.31 0.41401 0.0
H658 H 0.13541 0.31935 0.35881 0.0
H659 H 0.21374 0.34558 0.36595 0.0
H660 H 0.246 0.34117 0.36698 0.0
H661 H 0.22774 0.30685 0.31443 0.0
H662 H 0.1957 0.31154 0.31284 0.0
H663 H 0.16495 0.41387 0.30969 0.0
H664 H 0.1669 0.38862 0.33124 0.0
H665 H 0.17091 0.35067 0.28546 0.0
H666 H 0.16931 0.37614 0.26366 0.0
H667 H 0.19679 0.35331 0.31476 0.0
H668 H 0.1228 0.33355 0.30507 0.0
H669 H 0.09172 0.3397 0.30291 0.0
H670 H 0.10048 0.36023 0.36016 0.0
H671 H 0.13183 0.35456 0.3626 0.0
C672 C 0.16718 0.27891 0.38057 0.0
C673 C 0.16452 0.28549 0.39842 0.0
C674 C 0.1679 0.29102 0.36507 0.0
C675 C 0.16614 0.30997 0.36724 0.0
C676 C 0.16352 0.31647 0.38508 0.0
C677 C 0.16269 0.30438 0.40046 0.0
C678 C 0.16622 0.32288 0.35113 0.0
C679 C 0.14893 0.3269 0.34927 0.0
C680 C 0.18336 0.33198 0.33817 0.0
C681 C 0.20224 0.32867 0.33939 0.0
C682 C 0.21654 0.33695 0.35469 0.0
C683 C 0.23479 0.33445 0.35536 0.0
C684 C 0.23876 0.32351 0.34091 0.0
C685 C 0.2246 0.31523 0.32565 0.0
C686 C 0.20647 0.31792 0.32481 0.0
C687 C 0.16656 0.40036 0.30415 0.0
C688 C 0.16667 0.39688 0.28491 0.0
C689 C 0.1676 0.38589 0.31651 0.0
C690 C 0.16849 0.36747 0.30993 0.0
C691 C 0.17004 0.36469 0.29081 0.0
C692 C 0.16914 0.37929 0.27838 0.0
C693 C 0.1665 0.35058 0.32309 0.0
C694 C 0.18321 0.34561 0.32422 0.0
C695 C 0.14874 0.34047 0.33538 0.0
C696 C 0.12976 0.34375 0.33398 0.0
C697 C 0.11819 0.33952 0.31717 0.0
C698 C 0.10052 0.34291 0.3159 0.0
C699 C 0.09416 0.35037 0.33139 0.0
C700 C 0.10543 0.35445 0.34818 0.0
C701 C 0.12314 0.35113 0.34952 0.0
H702 H 0.08047 0.35296 0.33041 0.0
H703 H 0.25288 0.32157 0.34148 0.0
H704 H 0.62616 0.78481 0.25759 0.0
H705 H 0.65331 0.81205 0.27924 0.0
H706 H 0.60268 0.79908 0.3184 0.0
H707 H 0.57546 0.77134 0.29705 0.0
H708 H 0.63809 0.84674 0.31327 0.0
H709 H 0.62473 0.7728 0.32536 0.0
H710 H 0.62279 0.73779 0.31663 0.0
H711 H 0.69001 0.77318 0.30091 0.0
H712 H 0.69219 0.80847 0.30916 0.0
H713 H 0.67652 0.86377 0.40546 0.0
H714 H 0.65762 0.84755 0.37606 0.0
H715 H 0.71915 0.86897 0.34941 0.0
H716 H 0.73832 0.88598 0.3788 0.0
H717 H 0.68395 0.8217 0.34401 0.0
H718 H 0.69982 0.89473 0.33758 0.0
H719 H 0.7029 0.93024 0.34616 0.0
H720 H 0.63343 0.89873 0.34958 0.0
H721 H 0.62984 0.86275 0.34195 0.0
C722 C 0.62075 0.78809 0.27065 0.0
C723 C 0.59872 0.77589 0.27572 0.0
C724 C 0.63627 0.8036 0.28298 0.0
C725 C 0.62991 0.80743 0.30035 0.0
C726 C 0.6078 0.79632 0.30499 0.0
C727 C 0.59232 0.78045 0.29284 0.0
C728 C 0.64639 0.82132 0.31446 0.0
C729 C 0.64811 0.84133 0.32007 0.0
C730 C 0.65992 0.81446 0.32275 0.0
C731 C 0.65852 0.79328 0.31758 0.0
C732 C 0.63901 0.77314 0.31978 0.0
C733 C 0.63788 0.75324 0.31498 0.0
C734 C 0.65624 0.75326 0.30817 0.0
C735 C 0.67578 0.77319 0.30615 0.0
C736 C 0.67696 0.79314 0.31085 0.0
C737 C 0.68602 0.86498 0.39335 0.0
C738 C 0.70883 0.87597 0.39433 0.0
C739 C 0.67523 0.85585 0.37659 0.0
C740 C 0.68707 0.85723 0.36065 0.0
C741 C 0.70984 0.86788 0.36162 0.0
C742 C 0.72071 0.87752 0.37833 0.0
C743 C 0.67526 0.84687 0.34321 0.0
C744 C 0.67432 0.82744 0.33699 0.0
C745 C 0.66263 0.8544 0.33427 0.0
C746 C 0.66458 0.8759 0.3394 0.0
C747 C 0.68518 0.89523 0.34054 0.0
C748 C 0.68701 0.91547 0.34524 0.0
C749 C 0.66835 0.9167 0.34857 0.0
C750 C 0.64784 0.89768 0.34724 0.0
C751 C 0.6459 0.87734 0.34275 0.0
H752 H 0.66976 0.93241 0.35208 0.0
H753 H 0.65535 0.73783 0.3045 0.0
H754 H 0.08801 0.7888 0.39142 0.0
H755 H 0.10759 0.78809 0.36369 0.0
H756 H 0.16733 0.81659 0.39561 0.0
H757 H 0.14817 0.81823 0.42289 0.0
H758 H 0.17616 0.83604 0.36525 0.0
H759 H 0.13663 0.75895 0.38045 0.0
H760 H 0.10559 0.72179 0.38623 0.0
H761 H 0.07789 0.72109 0.33318 0.0
H762 H 0.10885 0.75824 0.32708 0.0
H763 H 0.23923 0.81667 0.29988 0.0
H764 H 0.21705 0.8098 0.32777 0.0
H765 H 0.16248 0.79865 0.29377 0.0
H766 H 0.18461 0.80589 0.26603 0.0
H767 H 0.15119 0.76975 0.32468 0.0
H768 H 0.19207 0.84722 0.30997 0.0
H769 H 0.22575 0.88209 0.30325 0.0
H770 H 0.25225 0.88078 0.35632 0.0
H771 H 0.21885 0.84569 0.36323 0.0
C772 C 0.10534 0.79505 0.39243 0.0
C773 C 0.11656 0.80377 0.4093 0.0
C774 C 0.1165 0.7944 0.37663 0.0
C775 C 0.13898 0.80205 0.37753 0.0
C776 C 0.15006 0.81067 0.39444 0.0
C777 C 0.13904 0.81161 0.41008 0.0
C778 C 0.15132 0.80191 0.36087 0.0
C779 C 0.17077 0.82137 0.35661 0.0
C780 C 0.14424 0.78303 0.3492 0.0
C781 C 0.12493 0.76142 0.35339 0.0
C782 C 0.12378 0.75098 0.37013 0.0
C783 C 0.10625 0.72987 0.37341 0.0
C784 C 0.08977 0.71908 0.36006 0.0
C785 C 0.09067 0.72946 0.34349 0.0
C786 C 0.10822 0.75051 0.3401 0.0
C787 C 0.22231 0.81206 0.29837 0.0
C788 C 0.21359 0.81183 0.28087 0.0
C789 C 0.20972 0.80832 0.31428 0.0
C790 C 0.18822 0.80399 0.31279 0.0
C791 C 0.17903 0.802 0.2952 0.0
C792 C 0.19168 0.80612 0.27938 0.0
C793 C 0.17593 0.80361 0.32947 0.0
C794 C 0.1565 0.78424 0.33354 0.0
C795 C 0.18309 0.82248 0.34107 0.0
C796 C 0.20307 0.8437 0.33702 0.0
C797 C 0.20516 0.85427 0.32014 0.0
C798 C 0.22418 0.87408 0.3163 0.0
C799 C 0.24115 0.8836 0.32932 0.0
C800 C 0.2391 0.87336 0.34623 0.0
C801 C 0.22013 0.85352 0.35012 0.0
H802 H 0.25586 0.89893 0.32633 0.0
H803 H 0.07633 0.70263 0.36249 0.0
H804 H 0.63034 0.88108 0.77967 0.0
H805 H 0.65183 0.8837 0.80724 0.0
H806 H 0.66641 0.8365 0.78234 0.0
H807 H 0.64487 0.83358 0.75513 0.0
H808 H 0.65734 0.82692 0.81672 0.0
H809 H 0.71009 0.89294 0.78604 0.0
H810 H 0.72562 0.92874 0.77064 0.0
H811 H 0.70582 0.95463 0.8161 0.0
H812 H 0.69092 0.91913 0.83205 0.0
H813 H 0.75239 0.85059 0.86847 0.0
H814 H 0.73391 0.85621 0.84219 0.0
H815 H 0.69748 0.87295 0.88004 0.0
H816 H 0.71526 0.86655 0.90631 0.0
H817 H 0.71747 0.8989 0.84048 0.0
H818 H 0.66899 0.82864 0.87188 0.0
H819 H 0.66287 0.79403 0.88551 0.0
H820 H 0.68022 0.7757 0.83404 0.0
H821 H 0.68682 0.81043 0.82023 0.0
C822 C 0.6379 0.87106 0.78022 0.0
C823 C 0.63581 0.85706 0.76524 0.0
C824 C 0.6504 0.87277 0.79588 0.0
C825 C 0.66101 0.8605 0.7968 0.0
C826 C 0.65844 0.84615 0.78201 0.0
C827 C 0.64606 0.84448 0.76643 0.0
C828 C 0.67453 0.86219 0.8132 0.0
C829 C 0.67046 0.84271 0.82183 0.0
C830 C 0.69178 0.88266 0.82 0.0
C831 C 0.69912 0.90338 0.81004 0.0
C832 C 0.70883 0.90622 0.79261 0.0
C833 C 0.71766 0.92649 0.78386 0.0
C834 C 0.71645 0.9439 0.79224 0.0
C835 C 0.70662 0.94112 0.80953 0.0
C836 C 0.69813 0.92098 0.81851 0.0
C837 C 0.74106 0.85629 0.87113 0.0
C838 C 0.73527 0.85824 0.88935 0.0
C839 C 0.73043 0.85934 0.85615 0.0
C840 C 0.71428 0.86486 0.85926 0.0
C841 C 0.70993 0.86874 0.87741 0.0
C842 C 0.72012 0.86515 0.89237 0.0
C843 C 0.70006 0.86376 0.84385 0.0
C844 C 0.70404 0.88324 0.83547 0.0
C845 C 0.6831 0.84326 0.83696 0.0
C846 C 0.67861 0.82219 0.84511 0.0
C847 C 0.67168 0.8173 0.86353 0.0
C848 C 0.6681 0.79766 0.87128 0.0
C849 C 0.67122 0.7827 0.86066 0.0
C850 C 0.67784 0.78732 0.84225 0.0
C851 C 0.6815 0.80697 0.83446 0.0
H852 H 0.66845 0.76751 0.86669 0.0
H853 H 0.7233 0.95958 0.78539 0.0
H854 H 0.15545 0.91278 0.85705 0.0
H855 H 0.15194 0.88612 0.83337 0.0
H856 H 0.13932 0.83835 0.87546 0.0
H857 H 0.14318 0.8651 0.8994 0.0
H858 H 0.17126 0.84314 0.85366 0.0
H859 H 0.09965 0.8301 0.84383 0.0
H860 H 0.0711 0.83951 0.83883 0.0
H861 H 0.10089 0.87062 0.7878 0.0
H862 H 0.12981 0.86169 0.79261 0.0
H863 H 0.16053 0.76628 0.78147 0.0
H864 H 0.15428 0.78389 0.80842 0.0
H865 H 0.1659 0.83901 0.77492 0.0
H866 H 0.17156 0.82129 0.74791 0.0
H867 H 0.12971 0.82485 0.79453 0.0
H868 H 0.20371 0.84216 0.80683 0.0
H869 H 0.23254 0.83316 0.812 0.0
H870 H 0.19787 0.79396 0.85861 0.0
H871 H 0.16869 0.80252 0.85357 0.0
C872 C 0.15145 0.89647 0.86132 0.0
C873 C 0.14983 0.89121 0.88018 0.0
C874 C 0.14935 0.88117 0.8477 0.0
C875 C 0.14533 0.86022 0.85264 0.0
C876 C 0.14248 0.85446 0.87136 0.0
C877 C 0.14463 0.86978 0.88502 0.0
C878 C 0.14643 0.84537 0.83841 0.0
C879 C 0.1618 0.83871 0.8409 0.0
C880 C 0.1344 0.83994 0.82164 0.0
C881 C 0.11699 0.84533 0.81865 0.0
C882 C 0.10022 0.83909 0.83161 0.0
C883 C 0.08394 0.84431 0.82879 0.0
C884 C 0.0842 0.85569 0.81302 0.0
C885 C 0.10071 0.86182 0.80001 0.0
C886 C 0.11703 0.85664 0.80276 0.0
C887 C 0.16198 0.78226 0.77991 0.0
C888 C 0.16641 0.79236 0.76256 0.0
C889 C 0.15841 0.7923 0.79532 0.0
C890 C 0.15959 0.81275 0.79366 0.0
C891 C 0.16473 0.82315 0.77648 0.0
C892 C 0.16811 0.81306 0.76108 0.0
C893 C 0.15496 0.82325 0.8096 0.0
C894 C 0.13889 0.82902 0.80743 0.0
C895 C 0.16635 0.82787 0.82665 0.0
C896 C 0.18391 0.82277 0.82969 0.0
C897 C 0.20215 0.83147 0.81809 0.0
C898 C 0.21857 0.82649 0.82101 0.0
C899 C 0.21701 0.81294 0.83559 0.0
C900 C 0.19904 0.80441 0.8473 0.0
C901 C 0.18257 0.80934 0.84443 0.0
H902 H 0.22974 0.8091 0.83783 0.0
H903 H 0.07159 0.85972 0.81087 0.0
H904 H 0.07859 0.2584 0.85606 0.0
H905 H 0.1054 0.28162 0.83342 0.0
H906 H 0.15637 0.30349 0.8747 0.0
H907 H 0.12946 0.28066 0.8977 0.0
H908 H 0.16021 0.33761 0.85689 0.0
H909 H 0.15159 0.26822 0.83823 0.0
H910 H 0.13168 0.22871 0.82944 0.0
H911 H 0.10377 0.24229 0.78239 0.0
H912 H 0.12328 0.28185 0.79102 0.0
H913 H 0.23854 0.39513 0.78458 0.0
H914 H 0.21847 0.3723 0.81094 0.0
H915 H 0.15929 0.34194 0.7782 0.0
H916 H 0.1793 0.36396 0.75181 0.0
H917 H 0.16454 0.31152 0.79365 0.0
H918 H 0.17026 0.38036 0.81463 0.0
H919 H 0.19014 0.41981 0.82367 0.0
H920 H 0.22398 0.40702 0.86643 0.0
H921 H 0.20448 0.36752 0.85749 0.0
C922 C 0.09553 0.26784 0.86031 0.0
C923 C 0.10183 0.26762 0.87874 0.0
C924 C 0.11089 0.28111 0.8473 0.0
C925 C 0.13297 0.29415 0.85228 0.0
C926 C 0.13943 0.29357 0.87053 0.0
C927 C 0.12402 0.28043 0.88364 0.0
C928 C 0.14897 0.30924 0.83863 0.0
C929 C 0.16147 0.33184 0.84316 0.0
C930 C 0.15048 0.30179 0.82066 0.0
C931 C 0.13882 0.278 0.81535 0.0
C932 C 0.14111 0.26277 0.82607 0.0
C933 C 0.1299 0.24036 0.82111 0.0
C934 C 0.11644 0.23299 0.80539 0.0
C935 C 0.1142 0.24802 0.79457 0.0
C936 C 0.12536 0.27045 0.79947 0.0
C937 C 0.2212 0.38378 0.78313 0.0
C938 C 0.21052 0.38111 0.76608 0.0
C939 C 0.20974 0.37077 0.7982 0.0
C940 C 0.18736 0.3553 0.79653 0.0
C941 C 0.17657 0.35355 0.77977 0.0
C942 C 0.18802 0.36624 0.76472 0.0
C943 C 0.17512 0.33996 0.81167 0.0
C944 C 0.16345 0.31725 0.80744 0.0
C945 C 0.17443 0.34733 0.82988 0.0
C946 C 0.1861 0.37105 0.83525 0.0
C947 C 0.18207 0.386 0.82586 0.0
C948 C 0.19324 0.40836 0.83099 0.0
C949 C 0.20836 0.41593 0.84558 0.0
C950 C 0.21229 0.40114 0.85511 0.0
C951 C 0.20118 0.37877 0.85003 0.0
H952 H 0.21699 0.43325 0.84953 0.0
H953 H 0.10778 0.21564 0.80157 0.0
H954 H 0.85086 0.75727 0.63903 0.0
H955 H 0.8579 0.73473 0.65995 0.0
H956 H 0.86482 0.69977 0.61322 0.0
H957 H 0.85761 0.72214 0.59212 0.0
H958 H 0.83493 0.67193 0.63617 0.0
H959 H 0.90762 0.73054 0.6427 0.0
H960 H 0.9382 0.76845 0.64784 0.0
H961 H 0.91553 0.76947 0.70275 0.0
H962 H 0.88457 0.73172 0.69785 0.0
H963 H 0.84394 0.60289 0.70447 0.0
H964 H 0.85232 0.62757 0.67817 0.0
H965 H 0.845 0.67359 0.71333 0.0
H966 H 0.83689 0.64932 0.73949 0.0
H967 H 0.88142 0.69442 0.69269 0.0
H968 H 0.80499 0.63889 0.68285 0.0
H969 H 0.77448 0.60088 0.67773 0.0
H970 H 0.80524 0.59447 0.62877 0.0
H971 H 0.83607 0.63238 0.63374 0.0
C972 C 0.85446 0.74523 0.63313 0.0
C973 C 0.85329 0.74133 0.61386 0.0
C974 C 0.85858 0.73236 0.64515 0.0
C975 C 0.86181 0.71547 0.63817 0.0
C976 C 0.86226 0.71263 0.61892 0.0
C977 C 0.85815 0.72549 0.60687 0.0
C978 C 0.86166 0.69906 0.65095 0.0
C979 C 0.8455 0.67681 0.64829 0.0
C980 C 0.87521 0.7054 0.6669 0.0
C981 C 0.89364 0.7283 0.66984 0.0
C982 C 0.909 0.73891 0.65581 0.0
C983 C 0.92645 0.76037 0.65869 0.0
C984 C 0.92879 0.77138 0.6756 0.0
C985 C 0.91369 0.76094 0.68966 0.0
C986 C 0.89619 0.7395 0.68683 0.0
C987 C 0.84397 0.6182 0.70651 0.0
C988 C 0.83972 0.62415 0.72403 0.0
C989 C 0.84881 0.63229 0.69151 0.0
C990 C 0.84933 0.65245 0.69382 0.0
C991 C 0.84488 0.65823 0.71126 0.0
C992 C 0.84008 0.64423 0.72618 0.0
C993 C 0.85419 0.66765 0.67819 0.0
C994 C 0.87123 0.68959 0.68033 0.0
C995 C 0.84146 0.66108 0.66177 0.0
C996 C 0.82294 0.63833 0.6588 0.0
C997 C 0.80532 0.6293 0.67108 0.0
C998 C 0.78796 0.60779 0.66819 0.0
C999 C 0.78796 0.59524 0.65297 0.0
C1000 C 0.80529 0.60419 0.64058 0.0
C1001 C 0.8227 0.62568 0.64342 0.0
H1002 H 0.7745 0.57859 0.65076 0.0
H1003 H 0.94232 0.78798 0.67781 0.0
H1004 H 0.35443 0.1839 0.74784 0.0
H1005 H 0.33333 0.16265 0.72081 0.0
H1006 H 0.375 0.21652 0.68547 0.0
H1007 H 0.39636 0.23813 0.71271 0.0
H1008 H 0.33045 0.19864 0.67792 0.0
H1009 H 0.38049 0.17306 0.68454 0.0
H1010 H 0.40114 0.15902 0.7011 0.0
H1011 H 0.34146 0.10089 0.71566 0.0
H1012 H 0.32042 0.11472 0.69941 0.0
H1013 H 0.28221 0.12714 0.59773 0.0
H1014 H 0.30701 0.15382 0.62088 0.0
H1015 H 0.27452 0.1065 0.66384 0.0
H1016 H 0.24977 0.07964 0.64088 0.0
H1017 H 0.31833 0.12373 0.66468 0.0
H1018 H 0.26838 0.1508 0.66033 0.0
H1019 H 0.24757 0.16494 0.64415 0.0
H1020 H 0.30709 0.22021 0.62524 0.0
H1021 H 0.32826 0.20625 0.64112 0.0
C1022 C 0.35923 0.19124 0.73433 0.0
C1023 C 0.37708 0.21265 0.73236 0.0
C1024 C 0.34717 0.17904 0.71889 0.0
C1025 C 0.35274 0.18796 0.70116 0.0
C1026 C 0.37052 0.20937 0.69907 0.0
C1027 C 0.38274 0.22161 0.71459 0.0
C1028 C 0.33954 0.17473 0.685 0.0
C1029 C 0.32811 0.18244 0.67472 0.0
C1030 C 0.33627 0.15347 0.68113 0.0
C1031 C 0.34887 0.14501 0.69085 0.0
C1032 C 0.37176 0.15735 0.69139 0.0
C1033 C 0.38353 0.14942 0.7007 0.0
C1034 C 0.37262 0.1291 0.70946 0.0
C1035 C 0.34989 0.11663 0.70888 0.0
C1036 C 0.33803 0.1245 0.69959 0.0
C1037 C 0.28012 0.12246 0.61213 0.0
C1038 C 0.26407 0.10114 0.61741 0.0
C1039 C 0.2943 0.13779 0.62534 0.0
C1040 C 0.2926 0.13209 0.64404 0.0
C1041 C 0.27613 0.11115 0.64944 0.0
C1042 C 0.26195 0.09584 0.63628 0.0
C1043 C 0.30876 0.14736 0.65789 0.0
C1044 C 0.32083 0.14003 0.6677 0.0
C1045 C 0.31259 0.16893 0.66127 0.0
C1046 C 0.29989 0.17734 0.65173 0.0
C1047 C 0.27703 0.16586 0.65258 0.0
C1048 C 0.26517 0.17387 0.6435 0.0
C1049 C 0.276 0.19342 0.63362 0.0
C1050 C 0.29872 0.20504 0.63286 0.0
C1051 C 0.31066 0.1971 0.64192 0.0
H1052 H 0.26679 0.19959 0.62659 0.0
H1053 H 0.38177 0.12299 0.71666 0.0
H1054 H 0.8491 0.11844 0.59417 0.0
H1055 H 0.82278 0.10897 0.61919 0.0
H1056 H 0.87568 0.14674 0.65787 0.0
H1057 H 0.90186 0.15453 0.63315 0.0
H1058 H 0.84539 0.11757 0.67614 0.0
H1059 H 0.8474 0.16872 0.63144 0.0
H1060 H 0.84442 0.1809 0.60028 0.0
H1061 H 0.77774 0.12862 0.59619 0.0
H1062 H 0.78042 0.11597 0.62726 0.0
H1063 H 0.8064 0.16911 0.73515 0.0
H1064 H 0.82385 0.16247 0.70883 0.0
H1065 H 0.76158 0.10959 0.6894 0.0
H1066 H 0.74381 0.11606 0.71604 0.0
H1067 H 0.79114 0.13958 0.66105 0.0
H1068 H 0.79167 0.09346 0.71072 0.0
H1069 H 0.79888 0.08661 0.74267 0.0
H1070 H 0.86564 0.13791 0.73846 0.0
H1071 H 0.85902 0.14489 0.70642 0.0
C1072 C 0.85502 0.12375 0.60822 0.0
C1073 C 0.87741 0.13704 0.61185 0.0
C1074 C 0.84 0.1187 0.62246 0.0
C1075 C 0.84714 0.12788 0.64033 0.0
C1076 C 0.86964 0.13955 0.64423 0.0
C1077 C 0.88466 0.14391 0.63012 0.0
C1078 C 0.83158 0.12745 0.65439 0.0
C1079 C 0.83356 0.12239 0.67275 0.0
C1080 C 0.81589 0.13358 0.65013 0.0
C1081 C 0.81419 0.14125 0.63154 0.0
C1082 C 0.83214 0.15976 0.62384 0.0
C1083 C 0.83051 0.16675 0.60621 0.0
C1084 C 0.81092 0.1555 0.59624 0.0
C1085 C 0.79291 0.13728 0.60391 0.0
C1086 C 0.79447 0.1302 0.62153 0.0
C1087 C 0.79629 0.1563 0.72513 0.0
C1088 C 0.77371 0.14305 0.72771 0.0
C1089 C 0.80634 0.15243 0.71017 0.0
C1090 C 0.79407 0.13523 0.69744 0.0
C1091 C 0.77133 0.12283 0.69922 0.0
C1092 C 0.76119 0.12666 0.71433 0.0
C1093 C 0.8054 0.13015 0.68265 0.0
C1094 C 0.80263 0.13425 0.66423 0.0
C1095 C 0.82092 0.12395 0.68694 0.0
C1096 C 0.82482 0.11975 0.70622 0.0
C1097 C 0.80786 0.10335 0.71665 0.0
C1098 C 0.81183 0.09942 0.73475 0.0
C1099 C 0.83261 0.11191 0.74263 0.0
C1100 C 0.84954 0.12826 0.73236 0.0
C1101 C 0.84573 0.13213 0.7142 0.0
H1102 H 0.8356 0.10885 0.75666 0.0
H1103 H 0.80969 0.16093 0.58259 0.0
H1104 H 0.96481 0.48859 0.42596 0.0
H1105 H 0.9853 0.4901 0.45375 0.0
H1106 H 0.98008 0.5448 0.47525 0.0
H1107 H 0.95903 0.54301 0.44761 0.0
H1108 H 0.02536 0.54938 0.47448 0.0
H1109 H 0.9508 0.50236 0.49524 0.0
H1110 H 0.91362 0.47025 0.49236 0.0
H1111 H 0.93933 0.42665 0.49128 0.0
H1112 H 0.97669 0.45855 0.49389 0.0
H1113 H 0.03124 0.51299 0.5753 0.0
H1114 H 0.01446 0.52064 0.54924 0.0
H1115 H 0.06203 0.52034 0.51246 0.0
H1116 H 0.07911 0.51281 0.53872 0.0
H1117 H 0.99579 0.49024 0.52103 0.0
H1118 H 0.0653 0.54811 0.47569 0.0
H1119 H 0.10299 0.57952 0.47821 0.0
H1120 H 0.08738 0.60064 0.52915 0.0
H1121 H 0.0496 0.56937 0.52684 0.0
C1122 C 0.96768 0.50067 0.43677 0.0
C1123 C 0.96012 0.51551 0.43476 0.0
C1124 C 0.9795 0.50161 0.45254 0.0
C1125 C 0.98433 0.51767 0.46642 0.0
C1126 C 0.97658 0.53236 0.46461 0.0
C1127 C 0.96433 0.53113 0.44897 0.0
C1128 C 0.99736 0.5189 0.48285 0.0
C1129 C 0.01887 0.53653 0.48474 0.0
C1130 C 0.989 0.50202 0.49606 0.0
C1131 C 0.96654 0.48285 0.49458 0.0
C1132 C 0.94853 0.48594 0.49422 0.0
C1133 C 0.92742 0.46778 0.49268 0.0
C1134 C 0.92411 0.44643 0.49159 0.0
C1135 C 0.94191 0.4432 0.4921 0.0
C1136 C 0.96305 0.46131 0.49363 0.0
C1137 C 0.03855 0.51521 0.56175 0.0
C1138 C 0.05638 0.51216 0.55899 0.0
C1139 C 0.02888 0.51949 0.54686 0.0
C1140 C 0.03683 0.52082 0.52889 0.0
C1141 C 0.05571 0.51951 0.52625 0.0
C1142 C 0.06552 0.5153 0.54126 0.0
C1143 C 0.02374 0.52088 0.51291 0.0
C1144 C 0.00225 0.50325 0.51092 0.0
C1145 C 0.03218 0.53765 0.49961 0.0
C1146 C 0.05471 0.55651 0.50106 0.0
C1147 C 0.06994 0.55953 0.48738 0.0
C1148 C 0.09131 0.57725 0.4888 0.0
C1149 C 0.09757 0.59208 0.50383 0.0
C1150 C 0.0825 0.58916 0.51751 0.0
C1151 C 0.06113 0.57143 0.51617 0.0
H1152 H 0.11411 0.60582 0.50488 0.0
H1153 H 0.90776 0.43239 0.4904 0.0
H1154 H 0.51188 0.48366 0.41988 0.0
H1155 H 0.51447 0.50431 0.44822 0.0
H1156 H 0.49011 0.44497 0.4798 0.0
H1157 H 0.48784 0.42415 0.45137 0.0
H1158 H 0.46778 0.46911 0.48542 0.0
H1159 H 0.53956 0.48088 0.4872 0.0
H1160 H 0.57544 0.49012 0.47497 0.0
H1161 H 0.58925 0.55558 0.46312 0.0
H1162 H 0.55328 0.54663 0.47501 0.0
H1163 H 0.48822 0.53562 0.56863 0.0
H1164 H 0.48586 0.50873 0.54543 0.0
H1165 H 0.51502 0.56002 0.50503 0.0
H1166 H 0.51756 0.58704 0.52803 0.0
H1167 H 0.53543 0.53587 0.50746 0.0
H1168 H 0.46223 0.52264 0.5021 0.0
H1169 H 0.42603 0.51343 0.51354 0.0
H1170 H 0.41484 0.45074 0.53178 0.0
H1171 H 0.45113 0.45972 0.52066 0.0
C1172 C 0.50734 0.47505 0.43289 0.0
C1173 C 0.49959 0.45231 0.43346 0.0
C1174 C 0.50888 0.48686 0.44905 0.0
C1175 C 0.50251 0.47613 0.46604 0.0
C1176 C 0.49511 0.45349 0.46677 0.0
C1177 C 0.49391 0.44167 0.45058 0.0
C1178 C 0.50261 0.48865 0.4827 0.0
C1179 C 0.48261 0.48342 0.49059 0.0
C1180 C 0.52194 0.5075 0.48907 0.0
C1181 C 0.54363 0.51301 0.48188 0.0
C1182 C 0.55016 0.49719 0.48184 0.0
C1183 C 0.57054 0.50239 0.47499 0.0
C1184 C 0.5846 0.52341 0.46824 0.0
C1185 C 0.57833 0.5393 0.46835 0.0
C1186 C 0.55795 0.53417 0.47516 0.0
C1187 C 0.4939 0.54117 0.55475 0.0
C1188 C 0.5032 0.56355 0.55023 0.0
C1189 C 0.4925 0.52575 0.54152 0.0
C1190 C 0.50034 0.53245 0.52358 0.0
C1191 C 0.50899 0.55459 0.51886 0.0
C1192 C 0.51031 0.56998 0.53202 0.0
C1193 C 0.50053 0.5167 0.50986 0.0
C1194 C 0.52063 0.52135 0.50254 0.0
C1195 C 0.48128 0.49735 0.50401 0.0
C1196 C 0.45951 0.49198 0.51078 0.0
C1197 C 0.45214 0.50699 0.50873 0.0
C1198 C 0.43159 0.50179 0.51511 0.0
C1199 C 0.41817 0.48155 0.52344 0.0
C1200 C 0.42527 0.46644 0.52536 0.0
C1201 C 0.44582 0.47157 0.51901 0.0
H1202 H 0.40225 0.47755 0.52836 0.0
H1203 H 0.60038 0.52741 0.46295 0.0
H1204 H 0.57099 0.0711 0.45491 0.0
H1205 H 0.55143 0.0492 0.48192 0.0
H1206 H 0.50679 0.99613 0.44538 0.0
H1207 H 0.52554 0.01806 0.41867 0.0
H1208 H 0.48496 0.0021 0.47057 0.0
H1209 H 0.54995 0.99578 0.4713 0.0
H1210 H 0.5895 0.00994 0.47304 0.0
H1211 H 0.59337 0.04213 0.52513 0.0
H1212 H 0.55386 0.02812 0.52377 0.0
H1213 H 0.4311 0.91215 0.52774 0.0
H1214 H 0.45756 0.93628 0.50514 0.0
H1215 H 0.49129 0.98602 0.54776 0.0
H1216 H 0.46508 0.96184 0.57063 0.0
H1217 H 0.51974 0.98478 0.522 0.0
H1218 H 0.45445 0.989 0.52193 0.0
H1219 H 0.41473 0.97366 0.52074 0.0
H1220 H 0.41166 0.94544 0.4668 0.0
H1221 H 0.45133 0.96034 0.46779 0.0
C1222 C 0.55693 0.0548 0.45273 0.0
C1223 C 0.5497 0.04638 0.43469 0.0
C1224 C 0.54589 0.04221 0.46815 0.0
C1225 C 0.52771 0.02087 0.46572 0.0
C1226 C 0.52067 0.01254 0.44767 0.0
C1227 C 0.53143 0.02515 0.43237 0.0
C1228 C 0.5153 0.00723 0.48172 0.0
C1229 C 0.49263 -0.00184 0.48167 0.0
C1230 C 0.52526 0.00261 0.49661 0.0
C1231 C 0.549 0.0111 0.49734 0.0
C1232 C 0.55927 0.006 0.48306 0.0
C1233 C 0.58166 0.01397 0.48398 0.0
C1234 C 0.59394 0.02704 0.4991 0.0
C1235 C 0.58384 0.03206 0.5134 0.0
C1236 C 0.56145 0.02406 0.5126 0.0
C1237 C 0.44435 0.92804 0.53244 0.0
C1238 C 0.4457 0.93517 0.55098 0.0
C1239 C 0.45947 0.94183 0.51947 0.0
C1240 C 0.47609 0.96313 0.5247 0.0
C1241 C 0.4785 0.9697 0.54342 0.0
C1242 C 0.46345 0.95584 0.55646 0.0
C1243 C 0.48948 0.97913 0.51033 0.0
C1244 C 0.51222 0.98878 0.51084 0.0
C1245 C 0.47964 0.9843 0.49576 0.0
C1246 C 0.45583 0.97565 0.495 0.0
C1247 C 0.44528 0.97943 0.50986 0.0
C1248 C 0.42278 0.97081 0.50922 0.0
C1249 C 0.41067 0.95855 0.49372 0.0
C1250 C 0.42106 0.95493 0.4788 0.0
C1251 C 0.44355 0.96347 0.47939 0.0
H1252 H 0.39325 0.95188 0.49326 0.0
H1253 H 0.61127 0.0332 0.49977 0.0
H1254 H 0.4956 0.0798 0.97398 0.0
H1255 H 0.50056 0.05772 0.9971 0.0
H1256 H 0.50066 0.0147 0.95386 0.0
H1257 H 0.49577 0.03672 0.93056 0.0
H1258 H 0.47195 0.9921 0.98197 0.0
H1259 H 0.54659 0.04733 0.97602 0.0
H1260 H 0.57824 0.08504 0.97473 0.0
H1261 H 0.56648 0.09802 0.03059 0.0
H1262 H 0.53454 0.06047 0.03212 0.0
H1263 H 0.49638 0.9312 0.04668 0.0
H1264 H 0.49817 0.95325 0.02006 0.0
H1265 H 0.5002 0.00305 0.05713 0.0
H1266 H 0.49852 0.98124 0.0837 0.0
H1267 H 0.53035 0.02114 0.02993 0.0
H1268 H 0.45388 0.96763 0.03471 0.0
H1269 H 0.42177 0.9302 0.03611 0.0
H1270 H 0.43681 0.91435 0.98248 0.0
H1271 H 0.46921 0.95163 0.98087 0.0
C1272 C 0.49695 0.06582 0.96933 0.0
C1273 C 0.49522 0.06001 0.95039 0.0
C1274 C 0.49986 0.05326 0.98257 0.0
C1275 C 0.50102 0.03461 0.97717 0.0
C1276 C 0.49981 0.02904 0.95829 0.0
C1277 C 0.49711 0.04172 0.945 0.0
C1278 C 0.50212 0.02023 0.99138 0.0
C1279 C 0.48495 -0.00169 0.99225 0.0
C1280 C 0.51885 0.0285 0.00498 0.0
C1281 C 0.53804 0.05113 0.00412 0.0
C1282 C 0.55063 0.05828 0.98798 0.0
C1283 C 0.56865 0.07962 0.98721 0.0
C1284 C 0.57434 0.09393 0.00255 0.0
C1285 C 0.56204 0.08692 0.01871 0.0
C1286 C 0.54399 0.0656 0.01954 0.0
C1287 C 0.49712 0.9468 0.04913 0.0
C1288 C 0.4972 0.95445 0.06727 0.0
C1289 C 0.49814 0.95937 0.03392 0.0
C1290 C 0.49924 0.97975 0.03663 0.0
C1291 C 0.49943 0.98741 0.05474 0.0
C1292 C 0.49834 0.97486 0.0699 0.0
C1293 C 0.50001 0.99313 0.02068 0.0
C1294 C 0.51751 0.01487 0.01951 0.0
C1295 C 0.48356 0.98472 0.00683 0.0
C1296 C 0.46411 0.96231 0.00777 0.0
C1297 C 0.45046 0.95609 0.02329 0.0
C1298 C 0.43218 0.93493 0.02411 0.0
C1299 C 0.4273 0.91988 0.00942 0.0
C1300 C 0.44065 0.92601 0.99386 0.0
C1301 C 0.45896 0.94715 0.99298 0.0
H1302 H 0.41314 0.9035 0.01007 0.0
H1303 H 0.58831 0.11044 0.00194 0.0
H1304 H 0.96181 0.45406 0.92942 0.0
H1305 H 0.98312 0.47749 0.9557 0.0
H1306 H 0.92574 0.44821 0.98961 0.0
H1307 H 0.90432 0.42413 0.96347 0.0
H1308 H 0.95523 0.49777 0.99221 0.0
H1309 H 0.95262 0.42932 0.99835 0.0
H1310 H 0.95571 0.39674 0.9907 0.0
H1311 H 0.02352 0.43868 0.97878 0.0
H1312 H 0.02072 0.47159 0.98597 0.0
H1313 H 0.00245 0.51788 0.08325 0.0
H1314 H 0.98121 0.50071 0.05499 0.0
H1315 H 0.0401 0.53063 0.02297 0.0
H1316 H 0.06155 0.54841 0.05125 0.0
H1317 H 0.01017 0.48218 0.0189 0.0
H1318 H 0.01126 0.55118 0.01625 0.0
H1319 H 0.00632 0.58131 0.0284 0.0
H1320 H 0.93876 0.53527 0.03809 0.0
H1321 H 0.9433 0.50481 0.026 0.0
C1322 C 0.95362 0.45284 0.94237 0.0
C1323 C 0.93142 0.43723 0.94444 0.0
C1324 C 0.96584 0.46616 0.95736 0.0
C1325 C 0.95595 0.46441 0.97451 0.0
C1326 C 0.93357 0.44971 0.97641 0.0
C1327 C 0.92142 0.43598 0.96153 0.0
C1328 C 0.96937 0.47702 0.9907 0.0
C1329 C 0.96714 0.49431 0.99816 0.0
C1330 C 0.98496 0.4725 0.99827 0.0
C1331 C 0.98637 0.45294 0.9924 0.0
C1332 C 0.96807 0.43164 0.99368 0.0
C1333 C 0.96981 0.4131 0.98956 0.0
C1334 C 0.98981 0.41564 0.98431 0.0
C1335 C 0.00804 0.43674 0.98287 0.0
C1336 C 0.00638 0.45535 0.98693 0.0
C1337 C 0.01091 0.52078 0.0702 0.0
C1338 C 0.03365 0.53428 0.0694 0.0
C1339 C 0.99873 0.51115 0.0541 0.0
C1340 C 0.00914 0.51463 0.03699 0.0
C1341 C 0.03186 0.52795 0.03611 0.0
C1342 C 0.04404 0.53796 0.05221 0.0
C1343 C 0.99628 0.50311 0.02027 0.0
C1344 C 0.99851 0.48589 0.01276 0.0
C1345 C 0.98043 0.50743 0.01297 0.0
C1346 C 0.97767 0.52568 0.02037 0.0
C1347 C 0.9954 0.54743 0.02113 0.0
C1348 C 0.99266 0.56459 0.02797 0.0
C1349 C 0.97226 0.5602 0.03411 0.0
C1350 C 0.95455 0.53865 0.03336 0.0
C1351 C 0.95718 0.52144 0.02646 0.0
H1352 H 0.97015 0.57349 0.03936 0.0
H1353 H 0.99118 0.40125 0.9814 0.0
H1354 H 0.57158 0.48575 0.96278 0.0
H1355 H 0.54644 0.47546 0.98885 0.0
H1356 H 0.4953 0.46705 0.95155 0.0
H1357 H 0.52059 0.47809 0.92572 0.0
H1358 H 0.49932 0.49402 0.9776 0.0
H1359 H 0.49282 0.42326 0.97665 0.0
H1360 H 0.50496 0.39607 0.97615 0.0
H1361 H 0.53758 0.42142 0.02851 0.0
H1362 H 0.5259 0.44899 0.02922 0.0
H1363 H 0.42413 0.46631 0.05316 0.0
H1364 H 0.44085 0.46327 0.02429 0.0
H1365 H 0.50023 0.48153 0.05416 0.0
H1366 H 0.48388 0.48473 0.08278 0.0
H1367 H 0.48769 0.44542 0.03059 0.0
H1368 H 0.49726 0.51872 0.02892 0.0
H1369 H 0.48465 0.54555 0.0292 0.0
H1370 H 0.44504 0.51385 0.98092 0.0
H1371 H 0.45722 0.48664 0.9805 0.0
C1372 C 0.55476 0.48089 0.9601 0.0
C1373 C 0.548 0.48276 0.9423 0.0
C1374 C 0.54036 0.47504 0.97501 0.0
C1375 C 0.51892 0.47058 0.97223 0.0
C1376 C 0.51176 0.47061 0.95412 0.0
C1377 C 0.52619 0.47677 0.93934 0.0
C1378 C 0.50495 0.46881 0.98824 0.0
C1379 C 0.49639 0.48297 0.98896 0.0
C1380 C 0.50143 0.45479 0.00332 0.0
C1381 C 0.50863 0.43833 0.00291 0.0
C1382 C 0.50275 0.42318 0.98799 0.0
C1383 C 0.50951 0.40767 0.98768 0.0
C1384 C 0.52207 0.40705 0.00227 0.0
C1385 C 0.52786 0.42193 0.01721 0.0
C1386 C 0.52115 0.43749 0.01758 0.0
C1387 C 0.44079 0.46981 0.05351 0.0
C1388 C 0.4527 0.47589 0.07024 0.0
C1389 C 0.45029 0.468 0.03705 0.0
C1390 C 0.47177 0.47211 0.03712 0.0
C1391 C 0.4836 0.47814 0.05381 0.0
C1392 C 0.47424 0.48013 0.07014 0.0
C1393 C 0.48235 0.47069 0.01984 0.0
C1394 C 0.49035 0.45608 0.01898 0.0
C1395 C 0.48527 0.48417 0.00455 0.0
C1396 C 0.47793 0.50049 0.00482 0.0
C1397 C 0.48571 0.51735 0.01847 0.0
C1398 C 0.47868 0.53265 0.01863 0.0
C1399 C 0.464 0.53136 0.00513 0.0
C1400 C 0.45637 0.5148 0.9914 0.0
C1401 C 0.46334 0.49944 0.99119 0.0
H1402 H 0.45858 0.54323 0.00527 0.0
H1403 H 0.52728 0.39502 0.00201 0.0
H1404 H 0.2107 0.98011 0.9665 0.0
H1405 H 0.22346 0.01746 0.97832 0.0
H1406 H 0.17054 0.01808 0.94974 0.0
H1407 H 0.15854 0.98102 0.93689 0.0
H1408 H 0.20475 0.05788 0.9499 0.0
H1409 H 0.16701 0.00405 0.99648 0.0
H1410 H 0.15903 0.97223 0.01577 0.0
H1411 H 0.22354 0.00793 0.03915 0.0
H1412 H 0.23199 0.03986 0.01983 0.0
H1413 H 0.21849 0.1265 0.04184 0.0
H1414 H 0.20027 0.0931 0.02244 0.0
H1415 H 0.25551 0.11984 0.98598 0.0
H1416 H 0.27376 0.15346 0.00525 0.0
H1417 H 0.21482 0.06559 0.0182 0.0
H1418 H 0.23825 0.09631 0.94246 0.0
H1419 H 0.24284 0.12726 0.92357 0.0
H1420 H 0.2003 0.13679 0.95971 0.0
H1421 H 0.19518 0.10569 0.97864 0.0
C1422 C 0.20199 0.98837 0.96256 0.0
C1423 C 0.18349 0.97773 0.95108 0.0
C1424 C 0.20922 0.00965 0.96935 0.0
C1425 C 0.19753 0.02028 0.96542 0.0
C1426 C 0.17969 0.01011 0.95309 0.0
C1427 C 0.17282 0.98898 0.94581 0.0
C1428 C 0.20316 0.04127 0.97518 0.0
C1429 C 0.20693 0.05959 0.96483 0.0
C1430 C 0.20535 0.04333 0.99473 0.0
C1431 C 0.20016 0.02429 0.00663 0.0
C1432 C 0.17951 0.00508 0.00569 0.0
C1433 C 0.17491 0.98702 0.01662 0.0
C1434 C 0.19078 0.98804 0.02866 0.0
C1435 C 0.21126 0.00715 0.02982 0.0
C1436 C 0.21596 0.02525 0.01891 0.0
C1437 C 0.22661 0.12544 0.02951 0.0
C1438 C 0.24765 0.14245 0.02516 0.0
C1439 C 0.21617 0.10635 0.01845 0.0
C1440 C 0.22654 0.10398 0.0028 0.0
C1441 C 0.24711 0.12143 0.99789 0.0
C1442 C 0.25757 0.14057 0.00896 0.0
C1443 C 0.21699 0.0824 0.99291 0.0
C1444 C 0.2125 0.06391 0.00327 0.0
C1445 C 0.21363 0.08014 0.97349 0.0
C1446 C 0.21652 0.09878 0.96208 0.0
C1447 C 0.22981 0.10495 0.94634 0.0
C1448 C 0.23251 0.12253 0.93562 0.0
C1449 C 0.22192 0.13403 0.94047 0.0
C1450 C 0.20856 0.12793 0.95601 0.0
C1451 C 0.20579 0.11035 0.96676 0.0
H1452 H 0.22405 0.14764 0.93216 0.0
H1453 H 0.18719 0.97404 0.03709 0.0
H1454 H 0.00895 0.19156 0.9223 0.0
H1455 H 0.97085 0.16777 0.93156 0.0
H1456 H 0.98645 0.19898 0.98582 0.0
H1457 H 0.02421 0.22218 0.97689 0.0
H1458 H 0.96306 0.1554 0.98837 0.0
H1459 H 0.96067 0.21168 0.95073 0.0
H1460 H 0.96551 0.23092 0.92126 0.0
H1461 H 0.91999 0.1696 0.89431 0.0
H1462 H 0.9151 0.14997 0.92354 0.0
H1463 H 0.87779 0.14831 0.03496 0.0
H1464 H 0.90748 0.16445 0.01289 0.0
H1465 H 0.87056 0.1101 0.97466 0.0
H1466 H 0.84032 0.09384 0.99683 0.0
H1467 H 0.90095 0.15676 0.95856 0.0
H1468 H 0.90012 0.10128 0.99728 0.0
H1469 H 0.89483 0.08254 0.02701 0.0
H1470 H 0.94667 0.14216 0.05166 0.0
H1471 H 0.95197 0.16139 0.02216 0.0
C1472 C 0.00417 0.19324 0.9362 0.0
C1473 C 0.01955 0.20864 0.94891 0.0
C1474 C 0.98243 0.17973 0.94143 0.0
C1475 C 0.9758 0.18165 0.95937 0.0
C1476 C 0.9912 0.19711 0.97195 0.0
C1477 C 0.01281 0.2104 0.96681 0.0
C1478 C 0.95301 0.16765 0.96553 0.0
C1479 C 0.94951 0.15565 0.98176 0.0
C1480 C 0.93513 0.16732 0.9566 0.0
C1481 C 0.93771 0.17933 0.93924 0.0
C1482 C 0.95178 0.2023 0.93849 0.0
C1483 C 0.95453 0.21327 0.92184 0.0
C1484 C 0.94313 0.20145 0.90593 0.0
C1485 C 0.92884 0.1787 0.90665 0.0
C1486 C 0.92607 0.16766 0.92324 0.0
C1487 C 0.87571 0.14007 0.02165 0.0
C1488 C 0.85694 0.1197 0.01766 0.0
C1489 C 0.89263 0.14937 0.00903 0.0
C1490 C 0.89126 0.13831 0.99229 0.0
C1491 C 0.87182 0.11887 0.98751 0.0
C1492 C 0.85464 0.10961 0.00016 0.0
C1493 C 0.91146 0.14546 0.98172 0.0
C1494 C 0.91445 0.15607 0.96479 0.0
C1495 C 0.92898 0.1445 0.98992 0.0
C1496 C 0.92637 0.13279 0.00752 0.0
C1497 C 0.91032 0.11042 0.00906 0.0
C1498 C 0.90731 0.09971 0.02588 0.0
C1499 C 0.9204 0.11115 0.04122 0.0
C1500 C 0.93656 0.13331 0.03976 0.0
C1501 C 0.93958 0.14412 0.02298 0.0
H1502 H 0.91803 0.10284 0.05423 0.0
H1503 H 0.94533 0.20988 0.89302 0.0
H1504 H 0.89209 0.73394 0.00185 0.0
H1505 H 0.87492 0.74613 0.97899 0.0
H1506 H 0.87083 0.78868 0.02051 0.0
H1507 H 0.8879 0.77685 0.04316 0.0
H1508 H 0.83153 0.76116 0.00316 0.0
H1509 H 0.90643 0.81083 0.98736 0.0
H1510 H 0.94332 0.82051 0.97752 0.0
H1511 H 0.91729 0.78438 0.92635 0.0
H1512 H 0.88017 0.77422 0.93602 0.0
H1513 H 0.81302 0.83723 0.95339 0.0
H1514 H 0.84049 0.82796 0.96283 0.0
H1515 H 0.80125 0.76271 0.93894 0.0
H1516 H 0.77348 0.77171 0.93007 0.0
H1517 H 0.86279 0.80037 0.9445 0.0
H1518 H 0.7869 0.74016 0.97014 0.0
H1519 H 0.75077 0.73329 0.97982 0.0
H1520 H 0.78113 0.7935 0.01223 0.0
H1521 H 0.81741 0.80077 0.00249 0.0
C1522 C 0.88774 0.74607 0.006 0.0
C1523 C 0.89123 0.7543 0.02435 0.0
C1524 C 0.87799 0.75305 0.99293 0.0
C1525 C 0.87154 0.76826 0.99809 0.0
C1526 C 0.87558 0.77686 0.01625 0.0
C1527 C 0.88538 0.77007 0.02919 0.0
C1528 C 0.85935 0.77439 0.98515 0.0
C1529 C 0.83842 0.76958 0.9903 0.0
C1530 C 0.86822 0.78542 0.96834 0.0
C1531 C 0.8905 0.79154 0.96251 0.0
C1532 C 0.90855 0.80477 0.97409 0.0
C1533 C 0.9295 0.81038 0.96853 0.0
C1534 C 0.93264 0.803 0.95135 0.0
C1535 C 0.91483 0.79005 0.93967 0.0
C1536 C 0.89383 0.78437 0.94518 0.0
C1537 C 0.81085 0.82133 0.94932 0.0
C1538 C 0.79133 0.80522 0.94087 0.0
C1539 C 0.82652 0.81603 0.95472 0.0
C1540 C 0.82288 0.79466 0.95155 0.0
C1541 C 0.80443 0.77934 0.94137 0.0
C1542 C 0.78861 0.78449 0.93627 0.0
C1543 C 0.83513 0.78688 0.96257 0.0
C1544 C 0.85593 0.79151 0.95718 0.0
C1545 C 0.82631 0.77568 0.97923 0.0
C1546 C 0.80471 0.77095 0.98565 0.0
C1547 C 0.7858 0.75185 0.97939 0.0
C1548 C 0.76532 0.74794 0.98482 0.0
C1549 C 0.76364 0.76295 0.99665 0.0
C1550 C 0.78245 0.78189 0.00308 0.0
C1551 C 0.80295 0.78592 0.99759 0.0
H1552 H 0.74779 0.75992 0.00084 0.0
H1553 H 0.94888 0.80737 0.94706 0.0
H1554 H 0.99953 0.23685 0.55177 0.0
H1555 H 0.03434 0.24141 0.5422 0.0
H1556 H 0.01294 0.17452 0.55743 0.0
H1557 H 0.97763 0.16965 0.56694 0.0
H1558 H 0.06466 0.21543 0.56227 0.0
H1559 H 0.00418 0.16961 0.51965 0.0
H1560 H 0.97017 0.16074 0.50334 0.0
H1561 H 0.00242 0.22457 0.47858 0.0
H1562 H 0.03655 0.23388 0.49496 0.0
H1563 H 0.11377 0.20827 0.46537 0.0
H1564 H 0.08458 0.19551 0.48795 0.0
H1565 H 0.12159 0.2562 0.51952 0.0
H1566 H 0.15128 0.26874 0.49718 0.0
H1567 H 0.0607 0.21238 0.49354 0.0
H1568 H 0.10409 0.24966 0.56433 0.0
H1569 H 0.13738 0.25701 0.58105 0.0
H1570 H 0.13902 0.20561 0.54941 0.0
H1571 H 0.10558 0.19773 0.53269 0.0
C1572 C 0.00241 0.22328 0.55365 0.0
C1573 C 0.9857 0.20276 0.55983 0.0
C1574 C 0.02238 0.22598 0.54826 0.0
C1575 C 0.02611 0.20827 0.54901 0.0
C1576 C 0.01036 0.18841 0.55688 0.0
C1577 C 0.99021 0.18566 0.5623 0.0
C1578 C 0.0444 0.20955 0.53828 0.0
C1579 C 0.06388 0.21456 0.54725 0.0
C1580 C 0.04316 0.20813 0.51874 0.0
C1581 C 0.02281 0.20249 0.50864 0.0
C1582 C 0.00395 0.1818 0.51084 0.0
C1583 C 0.98467 0.17668 0.50157 0.0
C1584 C 0.98412 0.19211 0.48997 0.0
C1585 C 0.00287 0.21265 0.48758 0.0
C1586 C 0.02218 0.21784 0.49684 0.0
C1587 C 0.11588 0.21874 0.47731 0.0
C1588 C 0.13474 0.23958 0.47944 0.0
C1589 C 0.09916 0.21142 0.49022 0.0
C1590 C 0.10078 0.22485 0.50548 0.0
C1591 C 0.12003 0.24534 0.50806 0.0
C1592 C 0.13696 0.25256 0.49523 0.0
C1593 C 0.08143 0.21837 0.51737 0.0
C1594 C 0.06165 0.21274 0.50855 0.0
C1595 C 0.08242 0.21878 0.53702 0.0
C1596 C 0.10242 0.22324 0.54714 0.0
C1597 C 0.1115 0.23985 0.561 0.0
C1598 C 0.13041 0.24413 0.57046 0.0
C1599 C 0.14034 0.23183 0.56626 0.0
C1600 C 0.13135 0.21518 0.55261 0.0
C1601 C 0.11244 0.21083 0.54311 0.0
H1602 H 0.15499 0.23518 0.57359 0.0
H1603 H 0.96918 0.18812 0.48281 0.0
H1604 H 0.7746 0.75779 0.53793 0.0
H1605 H 0.7591 0.78014 0.52851 0.0
H1606 H 0.81278 0.83749 0.5549 0.0
H1607 H 0.82787 0.8147 0.56519 0.0
H1608 H 0.77573 0.83942 0.55726 0.0
H1609 H 0.81477 0.82751 0.50914 0.0
H1610 H 0.82512 0.80593 0.4887 0.0
H1611 H 0.76017 0.77034 0.4662 0.0
H1612 H 0.74935 0.79151 0.48672 0.0
H1613 H 0.77113 0.91342 0.48938 0.0
H1614 H 0.78059 0.89358 0.51182 0.0
H1615 H 0.72337 0.83246 0.49514 0.0
H1616 H 0.71392 0.85229 0.47287 0.0
H1617 H 0.76362 0.83465 0.48922 0.0
H1618 H 0.72603 0.84973 0.53757 0.0
H1619 H 0.71816 0.87361 0.55753 0.0
H1620 H 0.78383 0.90679 0.57847 0.0
H1621 H 0.79219 0.88332 0.55843 0.0
C1622 C 0.78292 0.77509 0.54198 0.0
C1623 C 0.80261 0.78468 0.55196 0.0
C1624 C 0.77406 0.78785 0.5366 0.0
C1625 C 0.78511 0.81062 0.54054 0.0
C1626 C 0.80407 0.81998 0.5516 0.0
C1627 C 0.81271 0.80702 0.55739 0.0
C1628 C 0.77788 0.82467 0.53152 0.0
C1629 C 0.77329 0.83858 0.54237 0.0
C1630 C 0.77472 0.82361 0.51207 0.0
C1631 C 0.78121 0.81097 0.49958 0.0
C1632 C 0.80266 0.81499 0.49992 0.0
C1633 C 0.80862 0.80284 0.48831 0.0
C1634 C 0.7933 0.78674 0.47619 0.0
C1635 C 0.77201 0.7828 0.47562 0.0
C1636 C 0.76596 0.79488 0.48722 0.0
C1637 C 0.76019 0.8959 0.49113 0.0
C1638 C 0.74172 0.88427 0.4797 0.0
C1639 C 0.76558 0.8846 0.50389 0.0
C1640 C 0.75263 0.86158 0.50513 0.0
C1641 C 0.73346 0.85024 0.49446 0.0
C1642 C 0.72804 0.86153 0.48182 0.0
C1643 C 0.76083 0.84889 0.51496 0.0
C1644 C 0.76591 0.83541 0.50414 0.0
C1645 C 0.76481 0.85079 0.53429 0.0
C1646 C 0.7598 0.86491 0.54634 0.0
C1647 C 0.73886 0.86227 0.54629 0.0
C1648 C 0.73429 0.87569 0.55765 0.0
C1649 C 0.7505 0.89175 0.56922 0.0
C1650 C 0.77129 0.89437 0.56949 0.0
C1651 C 0.77595 0.88099 0.55814 0.0
H1652 H 0.74693 0.90213 0.57801 0.0
H1653 H 0.79794 0.77735 0.46721 0.0
H1654 H 0.19492 0.02425 0.51962 0.0
H1655 H 0.16765 0.98628 0.51111 0.0
H1656 H 0.16303 0.96772 0.5683 0.0
H1657 H 0.19005 0.00596 0.57703 0.0
H1658 H 0.1726 0.94243 0.54137 0.0
H1659 H 0.12095 0.96555 0.55226 0.0
H1660 H 0.10584 0.99012 0.54966 0.0
H1661 H 0.09988 0.97953 0.49067 0.0
H1662 H 0.11528 0.95515 0.49287 0.0
H1663 H 0.10166 0.8341 0.50885 0.0
H1664 H 0.11394 0.86736 0.52815 0.0
H1665 H 0.11398 0.90303 0.48004 0.0
H1666 H 0.10079 0.86963 0.46093 0.0
H1667 H 0.10246 0.91752 0.50858 0.0
H1668 H 0.16056 0.90291 0.49575 0.0
H1669 H 0.17871 0.88092 0.49563 0.0
H1670 H 0.17587 0.87838 0.55503 0.0
H1671 H 0.15744 0.90013 0.55546 0.0
C1672 C 0.1879 0.01215 0.53042 0.0
C1673 C 0.19464 0.01796 0.54896 0.0
C1674 C 0.17225 0.99053 0.52556 0.0
C1675 C 0.16329 0.97433 0.53912 0.0
C1676 C 0.16971 0.98011 0.5577 0.0
C1677 C 0.1851 0.00189 0.56264 0.0
C1678 C 0.14882 0.95108 0.53337 0.0
C1679 C 0.15695 0.93671 0.53465 0.0
C1680 C 0.12881 0.94404 0.52412 0.0
C1681 C 0.11939 0.95859 0.52273 0.0
C1682 C 0.11658 0.96858 0.53871 0.0
C1683 C 0.10793 0.98246 0.53731 0.0
C1684 C 0.10193 0.98641 0.52001 0.0
C1685 C 0.10453 0.97645 0.50407 0.0
C1686 C 0.11319 0.96257 0.50539 0.0
C1687 C 0.10396 0.84897 0.50249 0.0
C1688 C 0.10059 0.84943 0.48337 0.0
C1689 C 0.11102 0.86796 0.5135 0.0
C1690 C 0.11537 0.88783 0.50546 0.0
C1691 C 0.11079 0.88792 0.48656 0.0
C1692 C 0.10334 0.86885 0.47562 0.0
C1693 C 0.12646 0.90894 0.5162 0.0
C1694 C 0.11779 0.92296 0.51576 0.0
C1695 C 0.1463 0.91593 0.52585 0.0
C1696 C 0.15737 0.90287 0.52562 0.0
C1697 C 0.16366 0.89751 0.50877 0.0
C1698 C 0.17402 0.88512 0.50865 0.0
C1699 C 0.17836 0.87819 0.52531 0.0
C1700 C 0.17243 0.8837 0.54213 0.0
C1701 C 0.16203 0.89606 0.54233 0.0
H1702 H 0.18639 0.8686 0.52519 0.0
H1703 H 0.09524 0.99716 0.51895 0.0
H1704 H 0.77536 0.89296 0.94883 0.0
H1705 H 0.79244 0.92811 0.96596 0.0
H1706 H 0.77081 0.89351 0.01742 0.0
H1707 H 0.75345 0.85831 0.00047 0.0
H1708 H 0.76441 0.92803 0.01673 0.0
H1709 H 0.82327 0.91512 0.00349 0.0
H1710 H 0.84655 0.90718 0.98337 0.0
H1711 H 0.86582 0.96647 0.95345 0.0
H1712 H 0.8424 0.9746 0.97323 0.0
H1713 H 0.82491 0.01446 0.07804 0.0
H1714 H 0.81761 0.98123 0.06083 0.0
H1715 H 0.83223 0.01646 0.00963 0.0
H1716 H 0.83967 0.04992 0.02668 0.0
H1717 H 0.84327 0.98209 0.01013 0.0
H1718 H 0.78335 0.99402 0.02188 0.0
H1719 H 0.7608 0.00291 0.04207 0.0
H1720 H 0.74346 0.94564 0.0743 0.0
H1721 H 0.76631 0.93667 0.05451 0.0
C1722 C 0.77411 0.89278 0.96378 0.0
C1723 C 0.76308 0.87273 0.97325 0.0
C1724 C 0.78401 0.91291 0.97356 0.0
C1725 C 0.78318 0.91341 0.99298 0.0
C1726 C 0.77172 0.8935 0.00244 0.0
C1727 C 0.76182 0.87337 0.99269 0.0
C1728 C 0.7942 0.93466 0.00351 0.0
C1729 C 0.7817 0.93967 0.01546 0.0
C1730 C 0.81669 0.95012 0.00154 0.0
C1731 C 0.83092 0.94536 0.98973 0.0
C1732 C 0.83235 0.92638 0.99253 0.0
C1733 C 0.84559 0.92186 0.9812 0.0
C1734 C 0.85761 0.93628 0.96711 0.0
C1735 C 0.85648 0.95529 0.96436 0.0
C1736 C 0.84324 0.95988 0.97563 0.0
C1737 C 0.82737 0.01545 0.0632 0.0
C1738 C 0.83232 0.03472 0.05369 0.0
C1739 C 0.82313 0.99638 0.05339 0.0
C1740 C 0.8239 0.99633 0.03397 0.0
C1741 C 0.8314 0.01617 0.02462 0.0
C1742 C 0.83555 0.03525 0.03441 0.0
C1743 C 0.81349 0.97516 0.02342 0.0
C1744 C 0.82602 0.9703 0.01143 0.0
C1745 C 0.79099 0.95983 0.02524 0.0
C1746 C 0.77672 0.9648 0.03683 0.0
C1747 C 0.77485 0.9834 0.03334 0.0
C1748 C 0.76201 0.98846 0.04471 0.0
C1749 C 0.75075 0.97488 0.05948 0.0
C1750 C 0.75223 0.95617 0.06287 0.0
C1751 C 0.76512 0.95109 0.05158 0.0
H1752 H 0.74083 0.97883 0.06828 0.0
H1753 H 0.86785 0.93275 0.95835 0.0
H1754 H 0.14726 0.87479 0.98369 0.0
H1755 H 0.1183 0.85206 0.00557 0.0
H1756 H 0.06997 0.8454 0.9658 0.0
H1757 H 0.09871 0.86853 0.94439 0.0
H1758 H 0.06451 0.86062 0.99727 0.0
H1759 H 0.07674 0.80145 0.97876 0.0
H1760 H 0.09851 0.78349 0.97405 0.0
H1761 H 0.11417 0.79081 0.03214 0.0
H1762 H 0.09271 0.80908 0.03716 0.0
H1763 H 0.96417 0.77946 0.03167 0.0
H1764 H 0.99759 0.80038 0.01429 0.0
H1765 H 0.03554 0.80564 0.06269 0.0
H1766 H 0.00198 0.78437 0.08031 0.0
H1767 H 0.0494 0.79351 0.03095 0.0
H1768 H 0.03448 0.85019 0.04939 0.0
H1769 H 0.01179 0.86718 0.05372 0.0
H1770 H 0.00066 0.86388 0.99498 0.0
H1771 H 0.02308 0.84663 0.99032 0.0
C1772 C 0.13041 0.86785 0.97949 0.0
C1773 C 0.12514 0.87341 0.96244 0.0
C1774 C 0.11387 0.85495 0.99199 0.0
C1775 C 0.09192 0.84718 0.9874 0.0
C1776 C 0.08676 0.85141 0.96976 0.0
C1777 C 0.10318 0.86451 0.95749 0.0
C1778 C 0.07435 0.83659 0.00132 0.0
C1779 C 0.06112 0.8458 0.00447 0.0
C1780 C 0.07041 0.81779 0.01132 0.0
C1781 C 0.08335 0.80687 0.0083 0.0
C1782 C 0.085 0.79941 0.9905 0.0
C1783 C 0.09724 0.78914 0.98778 0.0
C1784 C 0.10777 0.78608 0.00277 0.0
C1785 C 0.10604 0.79324 0.02053 0.0
C1786 C 0.09383 0.80354 0.02333 0.0
C1787 C 0.97958 0.78517 0.03875 0.0
C1788 C 0.98033 0.78024 0.05745 0.0
C1789 C 0.99871 0.79719 0.02876 0.0
C1790 C 0.01906 0.80468 0.03722 0.0
C1791 C 0.01998 0.8 0.05591 0.0
C1792 C 0.00079 0.788 0.06599 0.0
C1793 C 0.03921 0.81713 0.02627 0.0
C1794 C 0.05298 0.80842 0.02382 0.0
C1795 C 0.04367 0.83638 0.01679 0.0
C1796 C 0.03037 0.847 0.01952 0.0
C1797 C 0.0271 0.85297 0.03741 0.0
C1798 C 0.0143 0.86267 0.03992 0.0
C1799 C 0.00477 0.86658 0.02464 0.0
C1800 C 0.00806 0.86085 0.00681 0.0
C1801 C 0.02085 0.85115 0.00422 0.0
H1802 H 0.99485 0.87407 0.02662 0.0
H1803 H 0.11723 0.77811 0.00064 0.0
H1804 H 0.12056 0.22528 0.94336 0.0
H1805 H 0.1467 0.22168 0.96239 0.0
H1806 H 0.15732 0.27765 0.99602 0.0
H1807 H 0.13109 0.2816 0.97657 0.0
H1808 H 0.19566 0.27686 0.98991 0.0
H1809 H 0.1252 0.22793 0.01263 0.0
H1810 H 0.08618 0.19982 0.01094 0.0
H1811 H 0.10162 0.15302 0.98728 0.0
H1812 H 0.14073 0.18095 0.98854 0.0
H1813 H 0.24962 0.23511 0.04941 0.0
H1814 H 0.22373 0.24722 0.04114 0.0
H1815 H 0.20269 0.20339 0.99336 0.0
H1816 H 0.22853 0.19169 0.00123 0.0
H1817 H 0.16814 0.20205 0.01489 0.0
H1818 H 0.23787 0.25448 0.98699 0.0
H1819 H 0.27683 0.28286 0.9888 0.0
H1820 H 0.26202 0.32327 0.02402 0.0
H1821 H 0.22297 0.29494 0.02261 0.0
C1822 C 0.1286 0.23703 0.95466 0.0
C1823 C 0.12359 0.25359 0.95859 0.0
C1824 C 0.14349 0.23488 0.9656 0.0
C1825 C 0.15354 0.24902 0.98093 0.0
C1826 C 0.14958 0.26642 0.98435 0.0
C1827 C 0.13466 0.2687 0.97322 0.0
C1828 C 0.16743 0.24468 0.9935 0.0
C1829 C 0.18953 0.2607 0.99579 0.0
C1830 C 0.15946 0.2236 0.00126 0.0
C1831 C 0.13593 0.2066 0.00063 0.0
C1832 C 0.12028 0.21169 0.00697 0.0
C1833 C 0.09814 0.19578 0.00609 0.0
C1834 C 0.09142 0.17465 0.99899 0.0
C1835 C 0.10684 0.16939 0.99278 0.0
C1836 C 0.12901 0.18525 0.99361 0.0
C1837 C 0.23928 0.22796 0.03727 0.0
C1838 C 0.24115 0.21257 0.02589 0.0
C1839 C 0.22461 0.23493 0.03253 0.0
C1840 C 0.21137 0.22623 0.0166 0.0
C1841 C 0.21274 0.2103 0.0057 0.0
C1842 C 0.22758 0.2037 0.01018 0.0
C1843 C 0.19643 0.23389 0.01058 0.0
C1844 C 0.1741 0.21843 0.00951 0.0
C1845 C 0.20417 0.25549 0.00415 0.0
C1846 C 0.22758 0.27249 0.00491 0.0
C1847 C 0.24296 0.26932 0.99526 0.0
C1848 C 0.26504 0.28541 0.99618 0.0
C1849 C 0.27191 0.30482 0.00657 0.0
C1850 C 0.25668 0.3082 0.01602 0.0
C1851 C 0.23458 0.29214 0.01516 0.0
H1852 H 0.28901 0.31726 0.00727 0.0
H1853 H 0.07427 0.16236 0.99832 0.0
H1854 H 0.85209 0.70736 0.53922 0.0
H1855 H 0.88193 0.70677 0.52256 0.0
H1856 H 0.90374 0.77217 0.50274 0.0
H1857 H 0.87436 0.77297 0.51946 0.0
H1858 H 0.90772 0.74375 0.47606 0.0
H1859 H 0.92527 0.76859 0.54059 0.0
H1860 H 0.91817 0.76362 0.57412 0.0
H1861 H 0.92268 0.70499 0.57181 0.0
H1862 H 0.92945 0.70945 0.53818 0.0
H1863 H 0.02231 0.79659 0.46288 0.0
H1864 H 0.98391 0.78375 0.46909 0.0
H1865 H 0.97886 0.72875 0.49912 0.0
H1866 H 0.01748 0.74244 0.49388 0.0
H1867 H 0.9632 0.74628 0.51914 0.0
H1868 H 0.95137 0.72409 0.45537 0.0
H1869 H 0.95706 0.72782 0.42163 0.0
H1870 H 0.94082 0.77888 0.42152 0.0
H1871 H 0.93532 0.77568 0.45531 0.0
C1872 C 0.86295 0.72134 0.53093 0.0
C1873 C 0.86109 0.74029 0.53075 0.0
C1874 C 0.87997 0.72101 0.52145 0.0
C1875 C 0.8951 0.7395 0.5115 0.0
C1876 C 0.89223 0.75773 0.51027 0.0
C1877 C 0.87552 0.75821 0.51993 0.0
C1878 C 0.91545 0.74127 0.50439 0.0
C1879 C 0.91992 0.74427 0.48539 0.0
C1880 C 0.93111 0.74157 0.51657 0.0
C1881 C 0.92761 0.73921 0.53686 0.0
C1882 C 0.92461 0.75457 0.54722 0.0
C1883 C 0.92066 0.75185 0.56624 0.0
C1884 C 0.9199 0.73396 0.57508 0.0
C1885 C 0.92322 0.71882 0.56494 0.0
C1886 C 0.92711 0.72143 0.5459 0.0
C1887 C 0.01277 0.78148 0.47041 0.0
C1888 C 0.02271 0.77046 0.47791 0.0
C1889 C 0.99078 0.77406 0.47392 0.0
C1890 C 0.97826 0.75512 0.48453 0.0
C1891 C 0.98806 0.74345 0.49102 0.0
C1892 C 0.0101 0.75118 0.48794 0.0
C1893 C 0.95582 0.74879 0.49056 0.0
C1894 C 0.95097 0.7452 0.50953 0.0
C1895 C 0.93978 0.74775 0.47825 0.0
C1896 C 0.94309 0.74974 0.45792 0.0
C1897 C 0.94916 0.73623 0.44818 0.0
C1898 C 0.95233 0.73823 0.42904 0.0
C1899 C 0.94934 0.7536 0.41944 0.0
C1900 C 0.94314 0.76698 0.42897 0.0
C1901 C 0.93997 0.76506 0.44812 0.0
H1902 H 0.9518 0.75513 0.40462 0.0
H1903 H 0.9168 0.73186 0.5898 0.0
H1904 H 0.22159 0.21855 0.42321 0.0
H1905 H 0.23679 0.20007 0.44097 0.0
H1906 H 0.19802 0.19708 0.48796 0.0
H1907 H 0.18317 0.21593 0.47053 0.0
H1908 H 0.23846 0.21146 0.49865 0.0
H1909 H 0.18559 0.15123 0.45963 0.0
H1910 H 0.16884 0.13247 0.42988 0.0
H1911 H 0.22908 0.13758 0.41325 0.0
H1912 H 0.24626 0.15662 0.44284 0.0
H1913 H 0.22575 0.12482 0.55362 0.0
H1914 H 0.22377 0.15102 0.53326 0.0
H1915 H 0.27168 0.14976 0.49751 0.0
H1916 H 0.27376 0.12331 0.51805 0.0
H1917 H 0.23442 0.14161 0.47872 0.0
H1918 H 0.28499 0.19637 0.52074 0.0
H1919 H 0.30043 0.21367 0.55121 0.0
H1920 H 0.24358 0.21796 0.56285 0.0
H1921 H 0.22763 0.20039 0.53257 0.0
C1922 C 0.2161 0.21371 0.43725 0.0
C1923 C 0.20117 0.21875 0.44544 0.0
C1924 C 0.22483 0.20316 0.44739 0.0
C1925 C 0.21855 0.19716 0.46581 0.0
C1926 C 0.20325 0.2017 0.47382 0.0
C1927 C 0.19468 0.21239 0.46379 0.0
C1928 C 0.22809 0.18655 0.47703 0.0
C1929 C 0.23747 0.19612 0.49433 0.0
C1930 C 0.22759 0.167 0.47111 0.0
C1931 C 0.21728 0.15559 0.45333 0.0
C1932 C 0.19531 0.14852 0.44956 0.0
C1933 C 0.18573 0.1378 0.43275 0.0
C1934 C 0.19791 0.1339 0.41966 0.0
C1935 C 0.21968 0.14065 0.42338 0.0
C1936 C 0.22935 0.1514 0.44017 0.0
C1937 C 0.23622 0.13045 0.54163 0.0
C1938 C 0.24988 0.12201 0.53738 0.0
C1939 C 0.23513 0.1455 0.53004 0.0
C1940 C 0.24764 0.15242 0.5139 0.0
C1941 C 0.26194 0.14467 0.50993 0.0
C1942 C 0.26322 0.1297 0.52171 0.0
C1943 C 0.24404 0.16612 0.50059 0.0
C1944 C 0.23583 0.15719 0.48288 0.0
C1945 C 0.24547 0.18619 0.50618 0.0
C1946 C 0.25507 0.19695 0.52438 0.0
C1947 C 0.27571 0.20087 0.52984 0.0
C1948 C 0.28456 0.21074 0.54707 0.0
C1949 C 0.27298 0.21688 0.55896 0.0
C1950 C 0.25254 0.21321 0.55362 0.0
C1951 C 0.2436 0.20332 0.5364 0.0
H1952 H 0.27986 0.22451 0.57231 0.0
H1953 H 0.19047 0.12559 0.40665 0.0
H1954 H 0.79191 0.95399 0.46697 0.0
H1955 H 0.81834 0.98647 0.48486 0.0
H1956 H 0.82441 0.02802 0.43921 0.0
H1957 H 0.79873 0.99549 0.42095 0.0
H1958 H 0.86245 0.04386 0.45609 0.0
H1959 H 0.78833 0.01778 0.47602 0.0
H1960 H 0.75243 0.98986 0.48777 0.0
H1961 H 0.78277 0.98331 0.53674 0.0
H1962 H 0.81888 0.01102 0.52516 0.0
H1963 H 0.89114 0.1448 0.50177 0.0
H1964 H 0.87316 0.11007 0.48414 0.0
H1965 H 0.87273 0.0751 0.53281 0.0
H1966 H 0.89032 0.10967 0.5507 0.0
H1967 H 0.83425 0.05464 0.51583 0.0
H1968 H 0.90817 0.08435 0.49748 0.0
H1969 H 0.94381 0.11299 0.48591 0.0
H1970 H 0.91417 0.1133 0.4342 0.0
H1971 H 0.87827 0.08493 0.44559 0.0
C1972 C 0.79915 0.97003 0.46065 0.0
C1973 C 0.79307 0.97227 0.44266 0.0
C1974 C 0.8142 0.98857 0.4709 0.0
C1975 C 0.82291 0.00973 0.46355 0.0
C1976 C 0.81781 0.01187 0.4452 0.0
C1977 C 0.8031 0.99327 0.43479 0.0
C1978 C 0.83591 0.0297 0.47537 0.0
C1979 C 0.85625 0.0463 0.4691 0.0
C1980 C 0.82803 0.03267 0.49256 0.0
C1981 C 0.8063 0.0163 0.49965 0.0
C1982 C 0.78734 0.01031 0.48925 0.0
C1983 C 0.76696 0.99452 0.49588 0.0
C1984 C 0.76533 0.98477 0.51297 0.0
C1985 C 0.78406 0.99085 0.5235 0.0
C1986 C 0.80448 0.0066 0.51692 0.0
C1987 C 0.88729 0.12976 0.50875 0.0
C1988 C 0.8922 0.13007 0.52767 0.0
C1989 C 0.87713 0.10992 0.49861 0.0
C1990 C 0.87191 0.09005 0.5071 0.0
C1991 C 0.8767 0.09027 0.52598 0.0
C1992 C 0.88676 0.11007 0.53617 0.0
C1993 C 0.86067 0.06894 0.49645 0.0
C1994 C 0.84062 0.05213 0.50294 0.0
C1995 C 0.86883 0.06585 0.47948 0.0
C1996 C 0.89048 0.08261 0.47245 0.0
C1997 C 0.90922 0.09061 0.48368 0.0
C1998 C 0.92948 0.1068 0.47715 0.0
C1999 C 0.93125 0.11499 0.45934 0.0
C2000 C 0.91277 0.10695 0.448 0.0
C2001 C 0.89247 0.0908 0.45448 0.0
H2002 H 0.94694 0.12753 0.45432 0.0
H2003 H 0.74954 0.97254 0.51807 0.0
H2004 H 0.88903 0.45977 0.36621 0.0
H2005 H 0.87574 0.42994 0.34317 0.0
H2006 H 0.93058 0.47023 0.30838 0.0
H2007 H 0.94429 0.50014 0.33171 0.0
H2008 H 0.86379 0.42181 0.30739 0.0
H2009 H 0.94855 0.43682 0.29092 0.0
H2010 H 0.98595 0.45633 0.3038 0.0
H2011 H 0.96065 0.44834 0.35892 0.0
H2012 H 0.92314 0.42858 0.34636 0.0
H2013 H 0.84674 0.3256 0.2551 0.0
H2014 H 0.8614 0.36481 0.26289 0.0
H2015 H 0.88337 0.3556 0.3159 0.0
H2016 H 0.86905 0.3168 0.30822 0.0
H2017 H 0.91402 0.39277 0.30001 0.0
H2018 H 0.83601 0.35569 0.31171 0.0
H2019 H 0.7973 0.33382 0.30245 0.0
H2020 H 0.80697 0.38234 0.26236 0.0
H2021 H 0.84583 0.40437 0.27126 0.0
C2022 C 0.8981 0.46244 0.35354 0.0
C2023 C 0.91792 0.48209 0.3509 0.0
C2024 C 0.89038 0.44543 0.34029 0.0
C2025 C 0.90232 0.44776 0.32418 0.0
C2026 C 0.92127 0.46801 0.32085 0.0
C2027 C 0.92908 0.48505 0.33417 0.0
C2028 C 0.89627 0.42802 0.31239 0.0
C2029 C 0.87488 0.41564 0.30544 0.0
C2030 C 0.91069 0.41989 0.30996 0.0
C2031 C 0.93312 0.43153 0.31768 0.0
C2032 C 0.95101 0.43923 0.30578 0.0
C2033 C 0.97221 0.45031 0.31303 0.0
C2034 C 0.97567 0.45365 0.33216 0.0
C2035 C 0.95795 0.44582 0.3441 0.0
C2036 C 0.93672 0.43469 0.33693 0.0
C2037 C 0.85479 0.33203 0.26837 0.0
C2038 C 0.85669 0.31817 0.2811 0.0
C2039 C 0.86313 0.35437 0.27278 0.0
C2040 C 0.87344 0.36305 0.28997 0.0
C2041 C 0.87561 0.34926 0.30251 0.0
C2042 C 0.86729 0.32705 0.29814 0.0
C2043 C 0.88136 0.38625 0.29556 0.0
C2044 C 0.90315 0.3993 0.30129 0.0
C2045 C 0.86716 0.39471 0.29727 0.0
C2046 C 0.84384 0.38151 0.29196 0.0
C2047 C 0.82991 0.36159 0.30081 0.0
C2048 C 0.80794 0.34919 0.29565 0.0
C2049 C 0.7997 0.35664 0.28178 0.0
C2050 C 0.81339 0.37656 0.27307 0.0
C2051 C 0.83538 0.38901 0.27817 0.0
H2052 H 0.78269 0.34702 0.2778 0.0
H2053 H 0.9921 0.46226 0.33774 0.0
H2054 H 0.53387 0.42195 0.35449 0.0
H2055 H 0.56185 0.44299 0.33183 0.0
H2056 H 0.52582 0.47351 0.3137 0.0
H2057 H 0.49733 0.45209 0.33646 0.0
H2058 H 0.5543 0.46283 0.28461 0.0
H2059 H 0.55683 0.50318 0.34091 0.0
H2060 H 0.55313 0.50564 0.37472 0.0
H2061 H 0.60332 0.48998 0.38382 0.0
H2062 H 0.60702 0.48703 0.35006 0.0
H2063 H 0.66151 0.54854 0.25458 0.0
H2064 H 0.62332 0.52802 0.2644 0.0
H2065 H 0.6419 0.50264 0.31062 0.0
H2066 H 0.67991 0.52426 0.30156 0.0
H2067 H 0.61783 0.5165 0.32271 0.0
H2068 H 0.61238 0.4713 0.26789 0.0
H2069 H 0.61567 0.46617 0.23437 0.0
H2070 H 0.572 0.48975 0.22245 0.0
H2071 H 0.5686 0.49516 0.2559 0.0
C2072 C 0.53152 0.43259 0.34528 0.0
C2073 C 0.51363 0.43565 0.34735 0.0
C2074 C 0.54746 0.44451 0.33228 0.0
C2075 C 0.54594 0.4599 0.32126 0.0
C2076 C 0.52714 0.46158 0.32205 0.0
C2077 C 0.51095 0.4494 0.33505 0.0
C2078 C 0.56582 0.47665 0.31192 0.0
C2079 C 0.56813 0.47494 0.29278 0.0
C2080 C 0.5838 0.49227 0.32267 0.0
C2081 C 0.58211 0.49477 0.34297 0.0
C2082 C 0.56699 0.50015 0.35013 0.0
C2083 C 0.56489 0.50163 0.36928 0.0
C2084 C 0.57796 0.49794 0.38141 0.0
C2085 C 0.59321 0.49284 0.37441 0.0
C2086 C 0.59533 0.49128 0.35527 0.0
C2087 C 0.65724 0.53831 0.26668 0.0
C2088 C 0.67346 0.53784 0.27736 0.0
C2089 C 0.63545 0.52656 0.27227 0.0
C2090 C 0.62961 0.51367 0.28826 0.0
C2091 C 0.64591 0.51261 0.29837 0.0
C2092 C 0.66761 0.52482 0.29314 0.0
C2093 C 0.60694 0.50203 0.29538 0.0
C2094 C 0.60402 0.50482 0.31427 0.0
C2095 C 0.58857 0.4874 0.28435 0.0
C2096 C 0.59037 0.48379 0.26434 0.0
C2097 C 0.60355 0.47545 0.2581 0.0
C2098 C 0.60542 0.47249 0.23913 0.0
C2099 C 0.59409 0.47768 0.22629 0.0
C2100 C 0.58078 0.48576 0.2324 0.0
C2101 C 0.57885 0.48874 0.25136 0.0
H2102 H 0.59559 0.4754 0.21161 0.0
H2103 H 0.57629 0.49907 0.39623 0.0
H2104 H 0.58276 0.12418 0.36065 0.0
H2105 H 0.56548 0.13535 0.33738 0.0
H2106 H 0.52688 0.0677 0.31813 0.0
H2107 H 0.54539 0.05683 0.34058 0.0
H2108 H 0.53371 0.09225 0.29023 0.0
H2109 H 0.50865 0.09258 0.35187 0.0
H2110 H 0.51195 0.10284 0.38506 0.0
H2111 H 0.54029 0.17107 0.37126 0.0
H2112 H 0.53739 0.16123 0.33797 0.0
H2113 H 0.43259 0.08839 0.27312 0.0
H2114 H 0.46381 0.08487 0.28201 0.0
H2115 H 0.50489 0.15568 0.2827 0.0
H2116 H 0.47368 0.15927 0.27331 0.0
H2117 H 0.50082 0.13388 0.31722 0.0
H2118 H 0.51793 0.1293 0.25383 0.0
H2119 H 0.5102 0.1153 0.22154 0.0
H2120 H 0.49107 0.05022 0.23985 0.0
H2121 H 0.49837 0.06375 0.27229 0.0
C2122 C 0.57092 0.11181 0.35115 0.0
C2123 C 0.56522 0.08964 0.35247 0.0
C2124 C 0.56093 0.11816 0.33794 0.0
C2125 C 0.54429 0.10228 0.32637 0.0
C2126 C 0.53954 0.08028 0.32695 0.0
C2127 C 0.55008 0.07405 0.33979 0.0
C2128 C 0.53068 0.10823 0.31486 0.0
C2129 C 0.52645 0.10126 0.29617 0.0
C2130 C 0.52131 0.12023 0.32246 0.0
C2131 C 0.52305 0.1262 0.34246 0.0
C2132 C 0.51572 0.10978 0.35593 0.0
C2133 C 0.5175 0.11552 0.37475 0.0
C2134 C 0.52639 0.1376 0.38027 0.0
C2135 C 0.53346 0.15398 0.36696 0.0
C2136 C 0.53174 0.14834 0.34812 0.0
C2137 C 0.44846 0.10317 0.27451 0.0
C2138 C 0.45077 0.1241 0.27257 0.0
C2139 C 0.46629 0.10113 0.27954 0.0
C2140 C 0.48665 0.12001 0.28302 0.0
C2141 C 0.48932 0.14092 0.27996 0.0
C2142 C 0.47154 0.14295 0.27452 0.0
C2143 C 0.50379 0.11781 0.29271 0.0
C2144 C 0.50849 0.1253 0.31117 0.0
C2145 C 0.51295 0.10573 0.28504 0.0
C2146 C 0.50857 0.09753 0.26553 0.0
C2147 C 0.5119 0.11196 0.251 0.0
C2148 C 0.50763 0.10411 0.23265 0.0
C2149 C 0.50011 0.08188 0.22865 0.0
C2150 C 0.49689 0.06744 0.24297 0.0
C2151 C 0.50112 0.0752 0.26134 0.0
H2152 H 0.49682 0.07584 0.21444 0.0
H2153 H 0.52775 0.142 0.39485 0.0
H2154 H 0.67356 0.58071 0.8899 0.0
H2155 H 0.70853 0.58637 0.87941 0.0
H2156 H 0.68334 0.51627 0.88038 0.0
H2157 H 0.64806 0.51045 0.89109 0.0
H2158 H 0.73313 0.54784 0.88832 0.0
H2159 H 0.67462 0.52884 0.84302 0.0
H2160 H 0.64488 0.53347 0.83076 0.0
H2161 H 0.68992 0.60228 0.82242 0.0
H2162 H 0.71988 0.59807 0.83486 0.0
H2163 H 0.77691 0.55178 0.78809 0.0
H2164 H 0.7488 0.54236 0.81115 0.0
H2165 H 0.79584 0.59278 0.84822 0.0
H2166 H 0.82442 0.60228 0.82503 0.0
H2167 H 0.73526 0.56955 0.82291 0.0
H2168 H 0.77599 0.57643 0.89373 0.0
H2169 H 0.80507 0.57144 0.90704 0.0
H2170 H 0.79515 0.52456 0.86369 0.0
H2171 H 0.76582 0.52905 0.85027 0.0
C2172 C 0.6757 0.56654 0.88859 0.0
C2173 C 0.65803 0.5451 0.89107 0.0
C2174 C 0.69574 0.56983 0.88267 0.0
C2175 C 0.69844 0.55174 0.87894 0.0
C2176 C 0.68159 0.53045 0.8833 0.0
C2177 C 0.66144 0.52714 0.88939 0.0
C2178 C 0.71659 0.5548 0.86689 0.0
C2179 C 0.73368 0.55256 0.87402 0.0
C2180 C 0.71718 0.56082 0.84821 0.0
C2181 C 0.69942 0.56317 0.83995 0.0
C2182 C 0.67815 0.54496 0.8386 0.0
C2183 C 0.66126 0.54751 0.83163 0.0
C2184 C 0.6655 0.56817 0.82583 0.0
C2185 C 0.68667 0.58629 0.8269 0.0
C2186 C 0.70361 0.58382 0.83388 0.0
C2187 C 0.78144 0.56077 0.80121 0.0
C2188 C 0.8029 0.57795 0.80464 0.0
C2189 C 0.76529 0.55532 0.8144 0.0
C2190 C 0.77013 0.56687 0.8314 0.0
C2191 C 0.79174 0.58351 0.83525 0.0
C2192 C 0.80804 0.58897 0.82198 0.0
C2193 C 0.75206 0.56256 0.84418 0.0
C2194 C 0.73488 0.56475 0.83718 0.0
C2195 C 0.75145 0.55633 0.86284 0.0
C2196 C 0.76887 0.55327 0.8709 0.0
C2197 C 0.77997 0.56501 0.88708 0.0
C2198 C 0.7965 0.56227 0.89463 0.0
C2199 C 0.80201 0.54775 0.88618 0.0
C2200 C 0.79093 0.53588 0.87018 0.0
C2201 C 0.77438 0.53854 0.86258 0.0
H2202 H 0.81482 0.54567 0.89205 0.0
H2203 H 0.6524 0.57013 0.82048 0.0
H2204 H 0.44605 0.22846 0.79901 0.0
H2205 H 0.45336 0.20816 0.82207 0.0
H2206 H 0.40269 0.20529 0.85661 0.0
H2207 H 0.39491 0.2256 0.83324 0.0
H2208 H 0.45586 0.21581 0.86988 0.0
H2209 H 0.3807 0.16346 0.8483 0.0
H2210 H 0.35279 0.14827 0.82347 0.0
H2211 H 0.39401 0.13368 0.79012 0.0
H2212 H 0.42228 0.14909 0.81468 0.0
H2213 H 0.4679 0.12929 0.91161 0.0
H2214 H 0.45265 0.15259 0.90356 0.0
H2215 H 0.45814 0.14076 0.84548 0.0
H2216 H 0.47269 0.1172 0.8534 0.0
H2217 H 0.42019 0.13665 0.8515 0.0
H2218 H 0.49514 0.18969 0.8696 0.0
H2219 H 0.52623 0.20701 0.89149 0.0
H2220 H 0.4887 0.22196 0.92928 0.0
H2221 H 0.4573 0.20449 0.90767 0.0
C2222 C 0.43661 0.22387 0.81161 0.0
C2223 C 0.41971 0.22842 0.8142 0.0
C2224 C 0.44092 0.21236 0.82481 0.0
C2225 C 0.42851 0.2052 0.84093 0.0
C2226 C 0.41244 0.21076 0.84421 0.0
C2227 C 0.40802 0.22232 0.83087 0.0
C2228 C 0.43111 0.18978 0.85283 0.0
C2229 C 0.44759 0.19833 0.86641 0.0
C2230 C 0.42071 0.16718 0.84786 0.0
C2231 C 0.40362 0.15756 0.83324 0.0
C2232 C 0.38385 0.15716 0.83561 0.0
C2233 C 0.36796 0.14849 0.8216 0.0
C2234 C 0.37164 0.14006 0.80521 0.0
C2235 C 0.39119 0.14022 0.80282 0.0
C2236 C 0.40713 0.1489 0.81678 0.0
C2237 C 0.46586 0.13174 0.89715 0.0
C2238 C 0.47147 0.12143 0.88312 0.0
C2239 C 0.45718 0.14507 0.89256 0.0
C2240 C 0.45427 0.14848 0.8739 0.0
C2241 C 0.46004 0.13825 0.85997 0.0
C2242 C 0.46847 0.12485 0.86452 0.0
C2243 C 0.44533 0.16264 0.86846 0.0
C2244 C 0.42783 0.15387 0.85579 0.0
C2245 C 0.45495 0.18505 0.87423 0.0
C2246 C 0.47381 0.19555 0.88715 0.0
C2247 C 0.49348 0.19653 0.88264 0.0
C2248 C 0.51116 0.20639 0.89498 0.0
C2249 C 0.50941 0.21551 0.91179 0.0
C2250 C 0.49 0.21484 0.91627 0.0
C2251 C 0.47227 0.20497 0.90399 0.0
H2252 H 0.52312 0.22314 0.92133 0.0
H2253 H 0.35933 0.13337 0.79437 0.0
H2254 H 0.85008 0.35035 0.89521 0.0
H2255 H 0.82301 0.31286 0.88465 0.0
H2256 H 0.8611 0.32104 0.83573 0.0
H2257 H 0.88746 0.35846 0.84579 0.0
H2258 H 0.8211 0.3028 0.82618 0.0
H2259 H 0.86111 0.2915 0.8743 0.0
H2260 H 0.87564 0.29497 0.90598 0.0
H2261 H 0.81062 0.26108 0.92729 0.0
H2262 H 0.79572 0.25771 0.89574 0.0
H2263 H 0.79444 0.18331 0.82048 0.0
H2264 H 0.80963 0.21754 0.83875 0.0
H2265 H 0.75943 0.22885 0.8177 0.0
H2266 H 0.74499 0.19521 0.79853 0.0
H2267 H 0.80048 0.23719 0.86436 0.0
H2268 H 0.78017 0.28232 0.80888 0.0
H2269 H 0.77183 0.27955 0.7754 0.0
H2270 H 0.80785 0.24652 0.76584 0.0
H2271 H 0.8166 0.24933 0.79921 0.0
C2272 C 0.85254 0.34407 0.88219 0.0
C2273 C 0.87076 0.35726 0.87126 0.0
C2274 C 0.83715 0.32268 0.87621 0.0
C2275 C 0.84007 0.31412 0.85943 0.0
C2276 C 0.85838 0.32734 0.84863 0.0
C2277 C 0.87349 0.34872 0.85443 0.0
C2278 C 0.82434 0.2914 0.85285 0.0
C2279 C 0.81643 0.28847 0.83461 0.0
C2280 C 0.81841 0.27269 0.86377 0.0
C2281 C 0.82732 0.27459 0.88271 0.0
C2282 C 0.84992 0.28494 0.88577 0.0
C2283 C 0.85822 0.28687 0.90369 0.0
C2284 C 0.84406 0.27831 0.91864 0.0
C2285 C 0.82157 0.26775 0.9157 0.0
C2286 C 0.81319 0.26582 0.8978 0.0
C2287 C 0.78648 0.19296 0.81997 0.0
C2288 C 0.76889 0.18699 0.80784 0.0
C2289 C 0.79508 0.21246 0.8305 0.0
C2290 C 0.78598 0.22605 0.82928 0.0
C2291 C 0.76708 0.21893 0.81848 0.0
C2292 C 0.75883 0.19973 0.80756 0.0
C2293 C 0.7978 0.24864 0.83752 0.0
C2294 C 0.80481 0.25155 0.85608 0.0
C2295 C 0.8038 0.26742 0.82664 0.0
C2296 C 0.79876 0.26577 0.80654 0.0
C2297 C 0.78632 0.2745 0.79961 0.0
C2298 C 0.78153 0.27293 0.78066 0.0
C2299 C 0.78923 0.26278 0.76851 0.0
C2300 C 0.80183 0.25429 0.77527 0.0
C2301 C 0.80669 0.25586 0.79419 0.0
H2302 H 0.78549 0.26156 0.75385 0.0
H2303 H 0.85051 0.27981 0.93251 0.0
H2304 H 0.39047 0.17412 0.3234 0.0
H2305 H 0.40111 0.20832 0.34075 0.0
H2306 H 0.45798 0.24284 0.30654 0.0
H2307 H 0.44673 0.20897 0.28855 0.0
H2308 H 0.43266 0.23436 0.36159 0.0
H2309 H 0.47211 0.29553 0.30123 0.0
H2310 H 0.4684 0.29596 0.26727 0.0
H2311 H 0.4018 0.24364 0.27016 0.0
H2312 H 0.40501 0.24313 0.30415 0.0
H2313 H 0.48671 0.34219 0.40104 0.0
H2314 H 0.47781 0.30826 0.38384 0.0
H2315 H 0.4327 0.31625 0.34949 0.0
H2316 H 0.44276 0.35085 0.36577 0.0
H2317 H 0.4516 0.30312 0.32875 0.0
H2318 H 0.41717 0.27809 0.38746 0.0
H2319 H 0.41498 0.27583 0.42153 0.0
H2320 H 0.46055 0.25291 0.42212 0.0
H2321 H 0.4632 0.25529 0.38806 0.0
C2322 C 0.40522 0.18904 0.3196 0.0
C2323 C 0.41765 0.18898 0.30452 0.0
C2324 C 0.41133 0.20856 0.32955 0.0
C2325 C 0.43017 0.22828 0.32478 0.0
C2326 C 0.44306 0.22801 0.31017 0.0
C2327 C 0.43667 0.20863 0.29994 0.0
C2328 C 0.43615 0.24915 0.33496 0.0
C2329 C 0.43677 0.2494 0.35441 0.0
C2330 C 0.44111 0.26869 0.32564 0.0
C2331 C 0.43889 0.26915 0.30522 0.0
C2332 C 0.45665 0.28419 0.29462 0.0
C2333 C 0.45463 0.28444 0.27537 0.0
C2334 C 0.4349 0.26979 0.26656 0.0
C2335 C 0.4171 0.25493 0.277 0.0
C2336 C 0.41901 0.25465 0.29625 0.0
C2337 C 0.47494 0.33663 0.38978 0.0
C2338 C 0.46538 0.34903 0.38471 0.0
C2339 C 0.46974 0.31719 0.38003 0.0
C2340 C 0.45426 0.30939 0.36553 0.0
C2341 C 0.44474 0.32188 0.36053 0.0
C2342 C 0.45044 0.34161 0.36988 0.0
C2343 C 0.44796 0.28835 0.35544 0.0
C2344 C 0.44744 0.2881 0.33597 0.0
C2345 C 0.44215 0.26857 0.36477 0.0
C2346 C 0.44054 0.26707 0.38524 0.0
C2347 C 0.42683 0.2727 0.39487 0.0
C2348 C 0.42549 0.27138 0.41418 0.0
C2349 C 0.43766 0.26429 0.42399 0.0
C2350 C 0.45115 0.25844 0.41451 0.0
C2351 C 0.45257 0.25975 0.3952 0.0
H2352 H 0.4366 0.26328 0.43893 0.0
H2353 H 0.43338 0.26997 0.25165 0.0
H2354 H 0.63808 0.12039 0.36438 0.0
H2355 H 0.67184 0.13939 0.34705 0.0
H2356 H 0.70732 0.13494 0.3936 0.0
H2357 H 0.67353 0.11637 0.41132 0.0
H2358 H 0.73065 0.17373 0.37763 0.0
H2359 H 0.69356 0.09916 0.35632 0.0
H2360 H 0.66242 0.06408 0.34486 0.0
H2361 H 0.65877 0.09587 0.29586 0.0
H2362 H 0.68969 0.13124 0.30715 0.0
H2363 H 0.82054 0.21058 0.3144 0.0
H2364 H 0.79228 0.1849 0.33564 0.0
H2365 H 0.74305 0.18709 0.30248 0.0
H2366 H 0.77094 0.21263 0.28157 0.0
H2367 H 0.73035 0.14478 0.31437 0.0
H2368 H 0.76376 0.22028 0.33935 0.0
H2369 H 0.79493 0.25511 0.35123 0.0
H2370 H 0.80611 0.21996 0.39381 0.0
H2371 H 0.77514 0.18487 0.382 0.0
C2372 C 0.65307 0.12361 0.37103 0.0
C2373 C 0.65307 0.1167 0.38919 0.0
C2374 C 0.67237 0.13436 0.36105 0.0
C2375 C 0.69204 0.13806 0.36883 0.0
C2376 C 0.69231 0.13209 0.38725 0.0
C2377 C 0.67298 0.12153 0.39737 0.0
C2378 C 0.71211 0.14785 0.35748 0.0
C2379 C 0.73073 0.16711 0.36396 0.0
C2380 C 0.71232 0.13922 0.33964 0.0
C2381 C 0.6939 0.1179 0.33264 0.0
C2382 C 0.68605 0.0987 0.34315 0.0
C2383 C 0.66844 0.07876 0.33668 0.0
C2384 C 0.6586 0.07775 0.31966 0.0
C2385 C 0.66641 0.09668 0.30904 0.0
C2386 C 0.684 0.11667 0.31546 0.0
C2387 C 0.80363 0.20518 0.31151 0.0
C2388 C 0.7979 0.21365 0.29644 0.0
C2389 C 0.78755 0.19064 0.32367 0.0
C2390 C 0.7656 0.18424 0.32069 0.0
C2391 C 0.75986 0.19179 0.30504 0.0
C2392 C 0.77584 0.20645 0.29314 0.0
C2393 C 0.74847 0.17099 0.33428 0.0
C2394 C 0.7304 0.15104 0.32822 0.0
C2395 C 0.74886 0.17886 0.35253 0.0
C2396 C 0.76734 0.19995 0.35966 0.0
C2397 C 0.77298 0.21997 0.35115 0.0
C2398 C 0.79059 0.23976 0.35789 0.0
C2399 C 0.80255 0.23974 0.37323 0.0
C2400 C 0.79687 0.21994 0.3819 0.0
C2401 C 0.7793 0.20011 0.3752 0.0
H2402 H 0.81617 0.25508 0.37843 0.0
H2403 H 0.64496 0.0623 0.31468 0.0
H2404 H 0.92581 0.58143 0.34854 0.0
H2405 H 0.89636 0.5882 0.34027 0.0
H2406 H 0.84987 0.52741 0.36586 0.0
H2407 H 0.87951 0.52096 0.37482 0.0
H2408 H 0.84651 0.53541 0.32376 0.0
H2409 H 0.85042 0.56407 0.38553 0.0
H2410 H 0.86906 0.58794 0.41277 0.0
H2411 H 0.88952 0.6455 0.38004 0.0
H2412 H 0.87128 0.62195 0.35251 0.0
H2413 H 0.75406 0.53916 0.29804 0.0
H2414 H 0.78068 0.53529 0.3162 0.0
H2415 H 0.82581 0.60526 0.3126 0.0
H2416 H 0.79851 0.60936 0.29504 0.0
H2417 H 0.82939 0.59223 0.34546 0.0
H2418 H 0.82919 0.56624 0.28387 0.0
H2419 H 0.81348 0.5444 0.25507 0.0
H2420 H 0.78992 0.48445 0.28512 0.0
H2421 H 0.80524 0.50594 0.31416 0.0
C2422 C 0.90938 0.56985 0.35287 0.0
C2423 C 0.90485 0.55072 0.36235 0.0
C2424 C 0.89262 0.57375 0.34817 0.0
C2425 C 0.87102 0.55833 0.35251 0.0
C2426 C 0.86651 0.53957 0.36256 0.0
C2427 C 0.88339 0.53595 0.36772 0.0
C2428 C 0.85318 0.56055 0.34437 0.0
C2429 C 0.84238 0.54749 0.32871 0.0
C2430 C 0.84865 0.57702 0.35039 0.0
C2431 C 0.85968 0.59123 0.3669 0.0
C2432 C 0.8591 0.58181 0.38408 0.0
C2433 C 0.86955 0.59529 0.39959 0.0
C2434 C 0.88053 0.61822 0.39813 0.0
C2435 C 0.88104 0.62773 0.38115 0.0
C2436 C 0.87063 0.61432 0.36559 0.0
C2437 C 0.76963 0.55377 0.30115 0.0
C2438 C 0.77435 0.57454 0.29491 0.0
C2439 C 0.78489 0.55152 0.3115 0.0
C2440 C 0.80552 0.56987 0.31538 0.0
C2441 C 0.81005 0.59082 0.30969 0.0
C2442 C 0.79452 0.59316 0.29961 0.0
C2443 C 0.82242 0.56689 0.32484 0.0
C2444 C 0.83326 0.57995 0.34059 0.0
C2445 C 0.82738 0.55069 0.31867 0.0
C2446 C 0.81817 0.5377 0.30122 0.0
C2447 C 0.82052 0.5484 0.28436 0.0
C2448 C 0.81171 0.53608 0.26799 0.0
C2449 C 0.80066 0.51305 0.26827 0.0
C2450 C 0.79845 0.50229 0.28493 0.0
C2451 C 0.80721 0.51453 0.30134 0.0
H2452 H 0.79386 0.50355 0.25559 0.0
H2453 H 0.88859 0.62863 0.41015 0.0
H2454 H 0.51275 0.0528 0.85155 0.0
H2455 H 0.54388 0.05738 0.83334 0.0
H2456 H 0.58778 0.10858 0.87164 0.0
H2457 H 0.55693 0.10462 0.88928 0.0
H2458 H 0.59874 0.12227 0.83836 0.0
H2459 H 0.57951 0.05411 0.86948 0.0
H2460 H 0.55505 0.01525 0.87768 0.0
H2461 H 0.54782 0.99596 0.82017 0.0
H2462 H 0.57205 0.03477 0.81161 0.0
H2463 H 0.69991 0.13025 0.83599 0.0
H2464 H 0.66262 0.11955 0.84351 0.0
H2465 H 0.64126 0.08998 0.78909 0.0
H2466 H 0.67907 0.10096 0.78122 0.0
H2467 H 0.61541 0.06348 0.82262 0.0
H2468 H 0.64066 0.13265 0.79304 0.0
H2469 H 0.66715 0.17162 0.78676 0.0
H2470 H 0.66442 0.18912 0.84356 0.0
H2471 H 0.63816 0.15019 0.85026 0.0
C2472 C 0.52908 0.06481 0.85615 0.0
C2473 C 0.53244 0.07842 0.87178 0.0
C2474 C 0.54687 0.06742 0.84575 0.0
C2475 C 0.56825 0.08339 0.85107 0.0
C2476 C 0.57149 0.09633 0.86709 0.0
C2477 C 0.55382 0.09398 0.87724 0.0
C2478 C 0.58746 0.08751 0.83984 0.0
C2479 C 0.60232 0.10935 0.83496 0.0
C2480 C 0.5919 0.07063 0.83474 0.0
C2481 C 0.57735 0.04735 0.83989 0.0
C2482 C 0.57255 0.0416 0.85857 0.0
C2483 C 0.55876 0.01959 0.86329 0.0
C2484 C 0.54982 0.00316 0.84945 0.0
C2485 C 0.55471 0.00871 0.83087 0.0
C2486 C 0.56847 0.0307 0.82608 0.0
C2487 C 0.68737 0.12142 0.82555 0.0
C2488 C 0.69249 0.11643 0.80798 0.0
C2489 C 0.66604 0.11536 0.82989 0.0
C2490 C 0.64923 0.10401 0.81686 0.0
C2491 C 0.65407 0.09872 0.79933 0.0
C2492 C 0.67564 0.10511 0.79483 0.0
C2493 C 0.62684 0.09825 0.82194 0.0
C2494 C 0.61145 0.07621 0.82563 0.0
C2495 C 0.62196 0.11495 0.82618 0.0
C2496 C 0.63751 0.13846 0.82216 0.0
C2497 C 0.64581 0.14478 0.80422 0.0
C2498 C 0.66078 0.16687 0.80058 0.0
C2499 C 0.66749 0.18283 0.81476 0.0
C2500 C 0.6592 0.17674 0.83259 0.0
C2501 C 0.64425 0.15467 0.83631 0.0
H2502 H 0.67909 0.19992 0.81192 0.0
H2503 H 0.53915 0.98613 0.85313 0.0
H2504 H 0.94007 0.45612 0.84012 0.0
H2505 H 0.93185 0.47789 0.81883 0.0
H2506 H 0.89975 0.49214 0.86303 0.0
H2507 H 0.90736 0.46999 0.884 0.0
H2508 H 0.87295 0.47256 0.83465 0.0
H2509 H 0.94693 0.53265 0.84257 0.0
H2510 H 0.98693 0.55034 0.84208 0.0
H2511 H 0.98443 0.53503 0.78397 0.0
H2512 H 0.94437 0.51698 0.78416 0.0
H2513 H 0.84788 0.5486 0.79708 0.0
H2514 H 0.8622 0.52928 0.8145 0.0
H2515 H 0.88818 0.51783 0.76433 0.0
H2516 H 0.87411 0.53748 0.74669 0.0
H2517 H 0.91832 0.5337 0.79245 0.0
H2518 H 0.84483 0.47542 0.7841 0.0
H2519 H 0.80483 0.45779 0.78431 0.0
H2520 H 0.80648 0.46926 0.84306 0.0
H2521 H 0.84653 0.48723 0.84317 0.0
C2522 C 0.93207 0.46469 0.84541 0.0
C2523 C 0.92429 0.46142 0.86363 0.0
C2524 C 0.92726 0.47702 0.83323 0.0
C2525 C 0.91494 0.48644 0.83928 0.0
C2526 C 0.90905 0.48483 0.85799 0.0
C2527 C 0.91355 0.47233 0.87001 0.0
C2528 C 0.90566 0.49544 0.82595 0.0
C2529 C 0.88295 0.48614 0.8256 0.0
C2530 C 0.91856 0.51245 0.81353 0.0
C2531 C 0.94263 0.52323 0.81343 0.0
C2532 C 0.95489 0.53286 0.82972 0.0
C2533 C 0.97758 0.543 0.82949 0.0
C2534 C 0.98821 0.54375 0.81302 0.0
C2535 C 0.97617 0.53441 0.79673 0.0
C2536 C 0.95348 0.52423 0.79688 0.0
C2537 C 0.85636 0.54174 0.78964 0.0
C2538 C 0.85981 0.54462 0.77045 0.0
C2539 C 0.86454 0.53066 0.79964 0.0
C2540 C 0.87622 0.52206 0.79071 0.0
C2541 C 0.87925 0.52438 0.77149 0.0
C2542 C 0.87102 0.53545 0.76142 0.0
C2543 C 0.88575 0.51129 0.80168 0.0
C2544 C 0.90839 0.52007 0.80146 0.0
C2545 C 0.87282 0.49373 0.8136 0.0
C2546 C 0.84871 0.48282 0.81361 0.0
C2547 C 0.83668 0.47432 0.79704 0.0
C2548 C 0.81399 0.46424 0.79711 0.0
C2549 C 0.80312 0.46244 0.81368 0.0
C2550 C 0.81492 0.47067 0.83023 0.0
C2551 C 0.83761 0.48078 0.83025 0.0
H2552 H 0.78556 0.45463 0.8137 0.0
H2553 H 0.00578 0.55161 0.81286 0.0
H2554 H 0.5635 0.49443 0.83238 0.0
H2555 H 0.54192 0.46032 0.81429 0.0
H2556 H 0.53293 0.42226 0.86315 0.0
H2557 H 0.55412 0.45612 0.88142 0.0
H2558 H 0.54758 0.42536 0.80706 0.0
H2559 H 0.48248 0.37722 0.86221 0.0
H2560 H 0.46494 0.38466 0.88859 0.0
H2561 H 0.47687 0.44476 0.86368 0.0
H2562 H 0.49421 0.43753 0.83705 0.0
H2563 H 0.45229 0.30216 0.804 0.0
H2564 H 0.47724 0.33665 0.82016 0.0
H2565 H 0.48738 0.3721 0.76947 0.0
H2566 H 0.46269 0.33754 0.75304 0.0
H2567 H 0.47234 0.37097 0.82587 0.0
H2568 H 0.53789 0.41882 0.77069 0.0
H2569 H 0.55595 0.41131 0.74477 0.0
H2570 H 0.54345 0.35124 0.77013 0.0
H2571 H 0.52559 0.35853 0.7963 0.0
C2572 C 0.5569 0.47881 0.83932 0.0
C2573 C 0.56045 0.47808 0.85841 0.0
C2574 C 0.54466 0.45934 0.82892 0.0
C2575 C 0.53565 0.43879 0.83741 0.0
C2576 C 0.53946 0.43796 0.85637 0.0
C2577 C 0.55164 0.45739 0.86679 0.0
C2578 C 0.52202 0.41815 0.82654 0.0
C2579 C 0.53101 0.41358 0.81099 0.0
C2580 C 0.5006 0.4026 0.83195 0.0
C2581 C 0.48983 0.40692 0.84773 0.0
C2582 C 0.48127 0.39197 0.86233 0.0
C2583 C 0.47138 0.39616 0.87733 0.0
C2584 C 0.46986 0.41521 0.87784 0.0
C2585 C 0.47814 0.43006 0.8633 0.0
C2586 C 0.48802 0.42593 0.84826 0.0
C2587 C 0.45998 0.31724 0.79619 0.0
C2588 C 0.45539 0.31707 0.77721 0.0
C2589 C 0.47422 0.33696 0.80549 0.0
C2590 C 0.48421 0.35696 0.79605 0.0
C2591 C 0.48009 0.35683 0.777 0.0
C2592 C 0.46592 0.33705 0.76763 0.0
C2593 C 0.49792 0.37799 0.80643 0.0
C2594 C 0.48891 0.3827 0.82189 0.0
C2595 C 0.51932 0.39359 0.80095 0.0
C2596 C 0.53018 0.38912 0.78535 0.0
C2597 C 0.53906 0.40404 0.77076 0.0
C2598 C 0.54925 0.39982 0.75602 0.0
C2599 C 0.55078 0.38077 0.75577 0.0
C2600 C 0.54218 0.36594 0.77029 0.0
C2601 C 0.53198 0.37009 0.78507 0.0
H2602 H 0.55867 0.37753 0.74434 0.0
H2603 H 0.46223 0.41844 0.88947 0.0
H2604 H 0.50976 0.63864 0.64884 0.0
H2605 H 0.51999 0.67639 0.65776 0.0
H2606 H 0.53697 0.69655 0.6012 0.0
H2607 H 0.52626 0.65855 0.59205 0.0
H2608 H 0.56986 0.72243 0.62979 0.0
H2609 H 0.49533 0.69649 0.6147 0.0
H2610 H 0.45575 0.67044 0.61522 0.0
H2611 H 0.45566 0.6792 0.67423 0.0
H2612 H 0.49531 0.70505 0.67412 0.0
H2613 H 0.59996 0.8291 0.66337 0.0
H2614 H 0.58214 0.79623 0.64315 0.0
H2615 H 0.54326 0.75799 0.68906 0.0
H2616 H 0.56022 0.79094 0.70898 0.0
H2617 H 0.51991 0.74349 0.6593 0.0
H2618 H 0.59307 0.76156 0.67607 0.0
H2619 H 0.63303 0.78531 0.67791 0.0
H2620 H 0.63611 0.78898 0.61856 0.0
H2621 H 0.59611 0.76545 0.6164 0.0
C2622 C 0.51553 0.65107 0.63827 0.0
C2623 C 0.51728 0.64573 0.61977 0.0
C2624 C 0.52124 0.67256 0.64336 0.0
C2625 C 0.52905 0.68912 0.63009 0.0
C2626 C 0.53083 0.68389 0.61158 0.0
C2627 C 0.52472 0.66224 0.6064 0.0
C2628 C 0.53654 0.71208 0.63602 0.0
C2629 C 0.55893 0.7273 0.63581 0.0
C2630 C 0.52223 0.71805 0.64427 0.0
C2631 C 0.49834 0.70263 0.6444 0.0
C2632 C 0.48691 0.69274 0.62781 0.0
C2633 C 0.46445 0.67803 0.62803 0.0
C2634 C 0.4532 0.67314 0.64475 0.0
C2635 C 0.46439 0.683 0.66129 0.0
C2636 C 0.48686 0.69771 0.66115 0.0
C2637 C 0.58736 0.81373 0.66902 0.0
C2638 C 0.58164 0.81245 0.68777 0.0
C2639 C 0.57725 0.79495 0.65749 0.0
C2640 C 0.56173 0.7745 0.66469 0.0
C2641 C 0.55522 0.77354 0.68318 0.0
C2642 C 0.56499 0.79237 0.69458 0.0
C2643 C 0.55339 0.75377 0.65358 0.0
C2644 C 0.53084 0.73891 0.65286 0.0
C2645 C 0.56761 0.74791 0.64481 0.0
C2646 C 0.59162 0.76201 0.64609 0.0
C2647 C 0.60227 0.76757 0.66343 0.0
C2648 C 0.62491 0.78097 0.66452 0.0
C2649 C 0.63709 0.78872 0.64837 0.0
C2650 C 0.62665 0.78302 0.63107 0.0
C2651 C 0.604 0.76965 0.6299 0.0
H2652 H 0.65462 0.79908 0.64924 0.0
H2653 H 0.43581 0.66175 0.64489 0.0
H2654 H 0.18967 0.80399 0.67569 0.0
H2655 H 0.22016 0.82066 0.65423 0.0
H2656 H 0.22649 0.76281 0.65711 0.0
H2657 H 0.19706 0.74705 0.67971 0.0
H2658 H 0.26294 0.79458 0.66267 0.0
H2659 H 0.21134 0.78137 0.61542 0.0
H2660 H 0.18028 0.7809 0.59991 0.0
H2661 H 0.21381 0.85168 0.60243 0.0
H2662 H 0.24495 0.8526 0.61821 0.0
H2663 H 0.35327 0.84685 0.59996 0.0
H2664 H 0.31477 0.8214 0.60741 0.0
H2665 H 0.31126 0.87498 0.63382 0.0
H2666 H 0.34973 0.90011 0.62712 0.0
H2667 H 0.27245 0.84102 0.60852 0.0
H2668 H 0.31976 0.8506 0.66212 0.0
H2669 H 0.35095 0.84983 0.67613 0.0
H2670 H 0.3238 0.78223 0.65843 0.0
H2671 H 0.2926 0.78275 0.64408 0.0
C2672 C 0.19722 0.79466 0.67126 0.0
C2673 C 0.19108 0.77427 0.67914 0.0
C2674 C 0.21461 0.80411 0.6589 0.0
C2675 C 0.22569 0.79299 0.6538 0.0
C2676 C 0.21839 0.77185 0.66082 0.0
C2677 C 0.20149 0.76274 0.67361 0.0
C2678 C 0.24648 0.80451 0.64332 0.0
C2679 C 0.26466 0.80417 0.65052 0.0
C2680 C 0.24918 0.81745 0.62756 0.0
C2681 C 0.23044 0.81703 0.61814 0.0
C2682 C 0.21203 0.79683 0.61281 0.0
C2683 C 0.19441 0.79649 0.60394 0.0
C2684 C 0.19505 0.81624 0.60021 0.0
C2685 C 0.21333 0.83639 0.60533 0.0
C2686 C 0.23099 0.83683 0.61422 0.0
C2687 C 0.34413 0.85315 0.60714 0.0
C2688 C 0.35439 0.87525 0.61322 0.0
C2689 C 0.32222 0.83869 0.61131 0.0
C2690 C 0.31027 0.84641 0.62111 0.0
C2691 C 0.32021 0.86879 0.62617 0.0
C2692 C 0.34219 0.88303 0.62249 0.0
C2693 C 0.28828 0.83091 0.62807 0.0
C2694 C 0.27016 0.83077 0.62034 0.0
C2695 C 0.28543 0.81717 0.64309 0.0
C2696 C 0.30405 0.81681 0.65184 0.0
C2697 C 0.32057 0.83565 0.66107 0.0
C2698 C 0.33821 0.83525 0.6691 0.0
C2699 C 0.3394 0.81602 0.66811 0.0
C2700 C 0.32289 0.79713 0.65915 0.0
C2701 C 0.30523 0.79747 0.65107 0.0
H2702 H 0.35307 0.81573 0.67434 0.0
H2703 H 0.1814 0.81594 0.59334 0.0
H2704 H 0.24843 0.45363 0.68743 0.0
H2705 H 0.23137 0.46518 0.66424 0.0
H2706 H 0.18481 0.39688 0.65128 0.0
H2707 H 0.20303 0.38543 0.67349 0.0
H2708 H 0.19068 0.41837 0.62174 0.0
H2709 H 0.17591 0.43046 0.68469 0.0
H2710 H 0.18513 0.44562 0.71662 0.0
H2711 H 0.21776 0.51149 0.69581 0.0
H2712 H 0.20894 0.49668 0.66374 0.0
H2713 H 0.09308 0.42083 0.60996 0.0
H2714 H 0.12418 0.41643 0.61684 0.0
H2715 H 0.16701 0.48688 0.61409 0.0
H2716 H 0.13568 0.4913 0.60699 0.0
H2717 H 0.1682 0.46945 0.6478 0.0
H2718 H 0.17402 0.45388 0.5841 0.0
H2719 H 0.1606 0.4357 0.55355 0.0
H2720 H 0.13957 0.37258 0.57741 0.0
H2721 H 0.15258 0.39033 0.60816 0.0
C2722 C 0.2349 0.44114 0.67925 0.0
C2723 C 0.2269 0.41867 0.68226 0.0
C2724 C 0.22502 0.44772 0.66611 0.0
C2725 C 0.20626 0.43194 0.65641 0.0
C2726 C 0.19914 0.40944 0.65862 0.0
C2727 C 0.20953 0.40286 0.67132 0.0
C2728 C 0.19301 0.43872 0.64531 0.0
C2729 C 0.18571 0.42948 0.62748 0.0
C2730 C 0.18674 0.45355 0.65256 0.0
C2731 C 0.19201 0.46247 0.67183 0.0
C2732 C 0.18517 0.44817 0.68693 0.0
C2733 C 0.19031 0.4567 0.70505 0.0
C2734 C 0.20209 0.4795 0.70824 0.0
C2735 C 0.20869 0.49383 0.69332 0.0
C2736 C 0.20362 0.48538 0.67517 0.0
C2737 C 0.10923 0.4353 0.61017 0.0
C2738 C 0.112 0.4564 0.60799 0.0
C2739 C 0.12702 0.43277 0.61405 0.0
C2740 C 0.14796 0.45132 0.61597 0.0
C2741 C 0.151 0.47234 0.61257 0.0
C2742 C 0.13314 0.47485 0.6084 0.0
C2743 C 0.1656 0.44884 0.62441 0.0
C2744 C 0.17361 0.45877 0.64186 0.0
C2745 C 0.17195 0.4342 0.617 0.0
C2746 C 0.16421 0.42346 0.59848 0.0
C2747 C 0.1664 0.43611 0.58287 0.0
C2748 C 0.15889 0.42588 0.5655 0.0
C2749 C 0.14921 0.403 0.56354 0.0
C2750 C 0.14708 0.3903 0.57894 0.0
C2751 C 0.15456 0.40045 0.59634 0.0
H2752 H 0.1434 0.39511 0.55009 0.0
H2753 H 0.20605 0.48607 0.72227 0.0
H2754 H 0.32574 0.86842 0.24728 0.0
H2755 H 0.36303 0.87535 0.24258 0.0
H2756 H 0.34647 0.85227 0.18586 0.0
H2757 H 0.30982 0.84584 0.19039 0.0
H2758 H 0.37283 0.83818 0.20354 0.0
H2759 H 0.36794 0.90567 0.19577 0.0
H2760 H 0.36127 0.93446 0.20858 0.0
H2761 H 0.41018 0.9508 0.25051 0.0
H2762 H 0.41692 0.92188 0.23805 0.0
H2763 H 0.44024 0.88398 0.13047 0.0
H2764 H 0.41384 0.87146 0.15514 0.0
H2765 H 0.46393 0.91457 0.19419 0.0
H2766 H 0.49081 0.9277 0.16908 0.0
H2767 H 0.42797 0.9176 0.19815 0.0
H2768 H 0.44118 0.85855 0.1978 0.0
H2769 H 0.44797 0.83004 0.1846 0.0
H2770 H 0.38437 0.79706 0.15938 0.0
H2771 H 0.3773 0.82553 0.17216 0.0
C2772 C 0.33005 0.86437 0.234 0.0
C2773 C 0.31508 0.85669 0.21915 0.0
C2774 C 0.35128 0.86838 0.23131 0.0
C2775 C 0.35748 0.86434 0.21386 0.0
C2776 C 0.34201 0.85538 0.19946 0.0
C2777 C 0.32112 0.85181 0.20202 0.0
C2778 C 0.38039 0.8714 0.20944 0.0
C2779 C 0.38507 0.85551 0.20257 0.0
C2780 C 0.39661 0.89398 0.20888 0.0
C2781 C 0.39274 0.9115 0.21614 0.0
C2782 C 0.37717 0.91533 0.20779 0.0
C2783 C 0.37338 0.93167 0.21497 0.0
C2784 C 0.38524 0.94441 0.23039 0.0
C2785 C 0.40097 0.94089 0.2386 0.0
C2786 C 0.40477 0.92453 0.23149 0.0
C2787 C 0.44583 0.89074 0.1443 0.0
C2788 C 0.46768 0.90684 0.1478 0.0
C2789 C 0.43068 0.88338 0.15849 0.0
C2790 C 0.43694 0.89168 0.17665 0.0
C2791 C 0.45878 0.90776 0.18032 0.0
C2792 C 0.4741 0.91522 0.16599 0.0
C2793 C 0.41993 0.88437 0.19112 0.0
C2794 C 0.41631 0.90021 0.19986 0.0
C2795 C 0.40474 0.86167 0.19354 0.0
C2796 C 0.40871 0.84422 0.18599 0.0
C2797 C 0.42866 0.84526 0.18939 0.0
C2798 C 0.43256 0.8291 0.18197 0.0
C2799 C 0.41661 0.81174 0.17117 0.0
C2800 C 0.3967 0.81049 0.16778 0.0
C2801 C 0.39271 0.82661 0.17516 0.0
H2802 H 0.41967 0.79926 0.16542 0.0
H2803 H 0.38228 0.95704 0.23594 0.0
H2804 H 0.13479 0.46427 0.25247 0.0
H2805 H 0.11814 0.487 0.24705 0.0
H2806 H 0.13183 0.48817 0.18879 0.0
H2807 H 0.14791 0.46513 0.19393 0.0
H2808 H 0.1438 0.53307 0.21702 0.0
H2809 H 0.0881 0.45842 0.18757 0.0
H2810 H 0.06362 0.41855 0.19237 0.0
H2811 H 0.03639 0.43287 0.23997 0.0
H2812 H 0.06093 0.47282 0.23553 0.0
H2813 H 0.10738 0.56087 0.14166 0.0
H2814 H 0.11912 0.54745 0.16721 0.0
H2815 H 0.06036 0.53127 0.19678 0.0
H2816 H 0.04827 0.54482 0.17066 0.0
H2817 H 0.06671 0.49694 0.19602 0.0
H2818 H 0.11025 0.56977 0.21757 0.0
H2819 H 0.13462 0.61011 0.21714 0.0
H2820 H 0.18419 0.60178 0.19101 0.0
H2821 H 0.16024 0.56136 0.19152 0.0
C2822 C 0.13428 0.46943 0.23852 0.0
C2823 C 0.14259 0.46289 0.22359 0.0
C2824 C 0.12477 0.48236 0.23549 0.0
C2825 C 0.12377 0.48912 0.21754 0.0
C2826 C 0.13245 0.483 0.20273 0.0
C2827 C 0.14159 0.46984 0.20569 0.0
C2828 C 0.11357 0.50243 0.21375 0.0
C2829 C 0.1269 0.52534 0.21261 0.0
C2830 C 0.09132 0.49237 0.20895 0.0
C2831 C 0.07637 0.46848 0.2113 0.0
C2832 C 0.07695 0.45302 0.1991 0.0
C2833 C 0.06307 0.43044 0.20174 0.0
C2834 C 0.04847 0.42319 0.21648 0.0
C2835 C 0.04771 0.43851 0.22858 0.0
C2836 C 0.06158 0.46111 0.226 0.0
C2837 C 0.09703 0.55479 0.1537 0.0
C2838 C 0.07681 0.5537 0.1541 0.0
C2839 C 0.10391 0.54734 0.16846 0.0
C2840 C 0.09081 0.5386 0.18411 0.0
C2841 C 0.07083 0.53812 0.18491 0.0
C2842 C 0.06396 0.54588 0.17004 0.0
C2843 C 0.09731 0.5277 0.19812 0.0
C2844 C 0.08336 0.50508 0.20113 0.0
C2845 C 0.1189 0.53821 0.20519 0.0
C2846 C 0.13341 0.56251 0.20457 0.0
C2847 C 0.12632 0.57654 0.21167 0.0
C2848 C 0.14009 0.59942 0.21148 0.0
C2849 C 0.16091 0.60851 0.20398 0.0
C2850 C 0.16807 0.59472 0.19682 0.0
C2851 C 0.15445 0.57181 0.19718 0.0
H2852 H 0.17148 0.62624 0.20374 0.0
H2853 H 0.03771 0.40572 0.2185 0.0
H2854 H 0.52402 0.67382 0.24727 0.0
H2855 H 0.50021 0.63397 0.24167 0.0
H2856 H 0.4886 0.64629 0.1857 0.0
H2857 H 0.5131 0.68582 0.19092 0.0
H2858 H 0.45056 0.6097 0.20567 0.0
H2859 H 0.52798 0.64021 0.1894 0.0
H2860 H 0.56715 0.65935 0.19723 0.0
H2861 H 0.55479 0.61219 0.23941 0.0
H2862 H 0.51543 0.59301 0.23205 0.0
H2863 H 0.43968 0.5404 0.1327 0.0
H2864 H 0.4494 0.5695 0.15593 0.0
H2865 H 0.46407 0.53321 0.19528 0.0
H2866 H 0.4545 0.5039 0.17185 0.0
H2867 H 0.49603 0.57574 0.19418 0.0
H2868 H 0.42054 0.5384 0.20254 0.0
H2869 H 0.38179 0.51817 0.1934 0.0
H2870 H 0.38918 0.57603 0.16748 0.0
H2871 H 0.42813 0.59656 0.17612 0.0
C2872 C 0.51598 0.66801 0.23394 0.0
C2873 C 0.52057 0.68273 0.21941 0.0
C2874 C 0.50236 0.64531 0.2308 0.0
C2875 C 0.49276 0.63732 0.21328 0.0
C2876 C 0.4958 0.65222 0.19934 0.0
C2877 C 0.50985 0.67474 0.20229 0.0
C2878 C 0.48247 0.61372 0.20822 0.0
C2879 C 0.46033 0.60206 0.20334 0.0
C2880 C 0.4952 0.60367 0.20575 0.0
C2881 C 0.51877 0.61538 0.21036 0.0
C2882 C 0.53358 0.6341 0.2005 0.0
C2883 C 0.55581 0.64491 0.20482 0.0
C2884 C 0.56343 0.63697 0.2188 0.0
C2885 C 0.54883 0.61831 0.22859 0.0
C2886 C 0.52657 0.60749 0.22437 0.0
C2887 C 0.44483 0.5385 0.14632 0.0
C2888 C 0.44641 0.51993 0.15046 0.0
C2889 C 0.45021 0.55507 0.15965 0.0
C2890 C 0.45712 0.55334 0.17743 0.0
C2891 C 0.45862 0.53475 0.18168 0.0
C2892 C 0.45317 0.51808 0.1683 0.0
C2893 C 0.4642 0.5719 0.19089 0.0
C2894 C 0.48585 0.58275 0.19725 0.0
C2895 C 0.4509 0.58104 0.19489 0.0
C2896 C 0.42734 0.56903 0.18997 0.0
C2897 C 0.41396 0.54682 0.19482 0.0
C2898 C 0.39195 0.53528 0.18972 0.0
C2899 C 0.38305 0.54582 0.17988 0.0
C2900 C 0.39612 0.56792 0.17513 0.0
C2901 C 0.41817 0.57953 0.18016 0.0
H2902 H 0.36602 0.53684 0.17597 0.0
H2903 H 0.58067 0.64519 0.22195 0.0
H2904 H 0.14902 0.70227 0.69058 0.0
H2905 H 0.13887 0.66723 0.67508 0.0
H2906 H 0.11576 0.63358 0.72681 0.0
H2907 H 0.12624 0.66867 0.74257 0.0
H2908 H 0.13735 0.61768 0.70749 0.0
H2909 H 0.08026 0.63315 0.69498 0.0
H2910 H 0.06483 0.65563 0.68449 0.0
H2911 H 0.08971 0.65782 0.6299 0.0
H2912 H 0.10556 0.63561 0.64014 0.0
H2913 H 0.07185 0.50956 0.66878 0.0
H2914 H 0.08484 0.54462 0.6854 0.0
H2915 H 0.10857 0.57946 0.63425 0.0
H2916 H 0.09537 0.54452 0.61744 0.0
H2917 H 0.08662 0.59454 0.65367 0.0
H2918 H 0.14345 0.57862 0.66624 0.0
H2919 H 0.15871 0.55605 0.67688 0.0
H2920 H 0.13394 0.55432 0.73144 0.0
H2921 H 0.11827 0.57665 0.72106 0.0
C2922 C 0.14187 0.68746 0.69871 0.0
C2923 C 0.13825 0.68828 0.7178 0.0
C2924 C 0.13603 0.66742 0.68981 0.0
C2925 C 0.12619 0.64775 0.69973 0.0
C2926 C 0.12325 0.64857 0.71888 0.0
C2927 C 0.12923 0.66865 0.72785 0.0
C2928 C 0.11839 0.62627 0.68998 0.0
C2929 C 0.12605 0.61247 0.69587 0.0
C2930 C 0.10394 0.61968 0.67461 0.0
C2931 C 0.09427 0.63289 0.66838 0.0
C2932 C 0.08257 0.63856 0.68078 0.0
C2933 C 0.07373 0.65123 0.67487 0.0
C2934 C 0.07633 0.65819 0.65655 0.0
C2935 C 0.08773 0.65244 0.64409 0.0
C2936 C 0.09663 0.63979 0.64993 0.0
C2937 C 0.07985 0.52464 0.66105 0.0
C2938 C 0.08256 0.52416 0.64175 0.0
C2939 C 0.08738 0.5447 0.67059 0.0
C2940 C 0.09789 0.56466 0.66109 0.0
C2941 C 0.10053 0.56425 0.64185 0.0
C2942 C 0.09299 0.54422 0.63229 0.0
C2943 C 0.10568 0.58599 0.67108 0.0
C2944 C 0.09795 0.59974 0.66527 0.0
C2945 C 0.12001 0.59247 0.68653 0.0
C2946 C 0.1295 0.57913 0.69282 0.0
C2947 C 0.14111 0.57329 0.68047 0.0
C2948 C 0.14986 0.56056 0.68646 0.0
C2949 C 0.14725 0.55371 0.70481 0.0
C2950 C 0.13593 0.55962 0.71722 0.0
C2951 C 0.12712 0.57232 0.7113 0.0
H2952 H 0.15403 0.54385 0.70942 0.0
H2953 H 0.06948 0.66801 0.652 0.0
H2954 H 0.33402 0.43975 0.73933 0.0
H2955 H 0.36751 0.45772 0.72125 0.0
H2956 H 0.33316 0.4687 0.67732 0.0
H2957 H 0.29956 0.45 0.69497 0.0
H2958 H 0.35672 0.45414 0.663 0.0
H2959 H 0.37003 0.51057 0.70928 0.0
H2960 H 0.37399 0.52562 0.74109 0.0
H2961 H 0.42539 0.51224 0.75209 0.0
H2962 H 0.42155 0.49687 0.7204 0.0
H2963 H 0.4366 0.544 0.61391 0.0
H2964 H 0.40691 0.51758 0.63299 0.0
H2965 H 0.45226 0.50789 0.66525 0.0
H2966 H 0.48231 0.53458 0.64608 0.0
H2967 H 0.42603 0.51732 0.68683 0.0
H2968 H 0.41595 0.46648 0.63801 0.0
H2969 H 0.41224 0.4532 0.60564 0.0
H2970 H 0.35466 0.45752 0.5988 0.0
H2971 H 0.35818 0.47114 0.63105 0.0
C2972 C 0.33372 0.44625 0.72591 0.0
C2973 C 0.31421 0.44356 0.71858 0.0
C2974 C 0.35287 0.45652 0.71558 0.0
C2975 C 0.35295 0.46474 0.69794 0.0
C2976 C 0.33352 0.46239 0.69082 0.0
C2977 C 0.31434 0.4518 0.70096 0.0
C2978 C 0.37302 0.47546 0.6866 0.0
C2979 C 0.37182 0.46807 0.66819 0.0
C2980 C 0.39302 0.49309 0.69353 0.0
C2981 C 0.39532 0.50234 0.71256 0.0
C2982 C 0.38206 0.51069 0.71854 0.0
C2983 C 0.3843 0.5193 0.73653 0.0
C2984 C 0.39988 0.51982 0.74862 0.0
C2985 C 0.4133 0.51178 0.74273 0.0
C2986 C 0.4111 0.50313 0.72475 0.0
C2987 C 0.44026 0.53599 0.62485 0.0
C2988 C 0.46178 0.54139 0.62854 0.0
C2989 C 0.42323 0.5208 0.63571 0.0
C2990 C 0.42735 0.51067 0.65048 0.0
C2991 C 0.44875 0.51549 0.65387 0.0
C2992 C 0.46585 0.53063 0.64287 0.0
C2993 C 0.40941 0.4965 0.6631 0.0
C2994 C 0.41102 0.50317 0.68175 0.0
C2995 C 0.38972 0.47835 0.65634 0.0
C2996 C 0.38741 0.46995 0.63696 0.0
C2997 C 0.40257 0.46474 0.62958 0.0
C2998 C 0.40049 0.45713 0.61124 0.0
C2999 C 0.38324 0.45455 0.60016 0.0
C3000 C 0.36801 0.45953 0.6074 0.0
C3001 C 0.37002 0.46716 0.62572 0.0
H3002 H 0.38167 0.44867 0.58597 0.0
H3003 H 0.40159 0.5265 0.76255 0.0
H3004 H 0.56982 0.88817 0.71984 0.0
H3005 H 0.54584 0.90345 0.71484 0.0
H3006 H 0.55569 0.90312 0.65592 0.0
H3007 H 0.57928 0.88819 0.66063 0.0
H3008 H 0.56019 0.94193 0.66759 0.0
H3009 H 0.50972 0.86316 0.67637 0.0
H3010 H 0.49301 0.82907 0.69446 0.0
H3011 H 0.47483 0.86045 0.73655 0.0
H3012 H 0.49169 0.89483 0.71879 0.0
H3013 H 0.4725 0.92052 0.61064 0.0
H3014 H 0.50067 0.92056 0.62998 0.0
H3015 H 0.47728 0.94003 0.67756 0.0
H3016 H 0.44923 0.94067 0.65788 0.0
H3017 H 0.48122 0.89994 0.68112 0.0
H3018 H 0.52398 0.97567 0.66693 0.0
H3019 H 0.53939 0.00838 0.6472 0.0
H3020 H 0.57158 0.98212 0.61433 0.0
H3021 H 0.5561 0.94909 0.63368 0.0
C3022 C 0.56683 0.89136 0.70584 0.0
C3023 C 0.57659 0.88693 0.69068 0.0
C3024 C 0.55313 0.90008 0.70301 0.0
C3025 C 0.54906 0.90456 0.68499 0.0
C3026 C 0.55873 0.90005 0.66996 0.0
C3027 C 0.57221 0.89135 0.67273 0.0
C3028 C 0.53459 0.91361 0.68117 0.0
C3029 C 0.54295 0.93284 0.67069 0.0
C3030 C 0.51223 0.90223 0.68573 0.0
C3031 C 0.50224 0.88164 0.69641 0.0
C3032 C 0.50234 0.86285 0.68957 0.0
C3033 C 0.49281 0.84346 0.69974 0.0
C3034 C 0.48294 0.84262 0.71668 0.0
C3035 C 0.48254 0.86114 0.72346 0.0
C3036 C 0.49208 0.88058 0.71335 0.0
C3037 C 0.47377 0.92543 0.62511 0.0
C3038 C 0.45899 0.93089 0.63277 0.0
C3039 C 0.4898 0.92538 0.63616 0.0
C3040 C 0.49108 0.93032 0.65519 0.0
C3041 C 0.4766 0.93627 0.66288 0.0
C3042 C 0.46078 0.93683 0.65165 0.0
C3043 C 0.50671 0.9276 0.66682 0.0
C3044 C 0.4986 0.90954 0.67867 0.0
C3045 C 0.52931 0.93996 0.66343 0.0
C3046 C 0.5388 0.95985 0.65175 0.0
C3047 C 0.53422 0.97679 0.65542 0.0
C3048 C 0.543 0.99541 0.64431 0.0
C3049 C 0.55645 0.99732 0.62951 0.0
C3050 C 0.56118 0.98063 0.62581 0.0
C3051 C 0.55244 0.96197 0.63687 0.0
H3052 H 0.56322 0.01174 0.62093 0.0
H3053 H 0.47555 0.82759 0.72453 0.0
H3054 H 0.18901 0.39651 0.18896 0.0
H3055 H 0.22064 0.40234 0.17087 0.0
H3056 H 0.26215 0.46015 0.20443 0.0
H3057 H 0.23076 0.45475 0.22209 0.0
H3058 H 0.27171 0.46904 0.16951 0.0
H3059 H 0.25939 0.40895 0.20936 0.0
H3060 H 0.23784 0.37167 0.22215 0.0
H3061 H 0.23004 0.34302 0.16764 0.0
H3062 H 0.25133 0.38017 0.15451 0.0
H3063 H 0.37742 0.48458 0.16749 0.0
H3064 H 0.34066 0.47692 0.17415 0.0
H3065 H 0.31538 0.4297 0.12869 0.0
H3066 H 0.35252 0.4377 0.1217 0.0
H3067 H 0.29413 0.41305 0.16285 0.0
H3068 H 0.31353 0.47417 0.12459 0.0
H3069 H 0.33587 0.51172 0.11264 0.0
H3070 H 0.33083 0.53913 0.16472 0.0
H3071 H 0.30904 0.50178 0.17721 0.0
C3072 C 0.20492 0.41035 0.19253 0.0
C3073 C 0.20737 0.42515 0.20697 0.0
C3074 C 0.223 0.41367 0.18219 0.0
C3075 C 0.24387 0.43168 0.18629 0.0
C3076 C 0.24626 0.44624 0.20087 0.0
C3077 C 0.22827 0.44305 0.21105 0.0
C3078 C 0.26338 0.43578 0.17549 0.0
C3079 C 0.27668 0.45684 0.16816 0.0
C3080 C 0.26948 0.41961 0.17304 0.0
C3081 C 0.2567 0.39732 0.18093 0.0
C3082 C 0.25292 0.3947 0.20009 0.0
C3083 C 0.24079 0.3736 0.2074 0.0
C3084 C 0.23251 0.35499 0.19571 0.0
C3085 C 0.23641 0.35745 0.17668 0.0
C3086 C 0.24852 0.37851 0.1693 0.0
C3087 C 0.36408 0.47284 0.15869 0.0
C3088 C 0.36778 0.46169 0.14409 0.0
C3089 C 0.34309 0.46852 0.16249 0.0
C3090 C 0.32526 0.45274 0.15192 0.0
C3091 C 0.32893 0.44197 0.13698 0.0
C3092 C 0.35011 0.44664 0.13293 0.0
C3093 C 0.30285 0.44659 0.15759 0.0
C3094 C 0.28899 0.42515 0.16391 0.0
C3095 C 0.29633 0.46248 0.15926 0.0
C3096 C 0.30975 0.48508 0.1519 0.0
C3097 C 0.31741 0.48818 0.13359 0.0
C3098 C 0.32997 0.50946 0.12671 0.0
C3099 C 0.33481 0.5278 0.13793 0.0
C3100 C 0.32707 0.5249 0.15604 0.0
C3101 C 0.31465 0.50367 0.16305 0.0
H3102 H 0.34453 0.54425 0.13258 0.0
H3103 H 0.22313 0.33867 0.20139 0.0
H3104 H 0.52854 0.86345 0.08259 0.0
H3105 H 0.54335 0.84253 0.09723 0.0
H3106 H 0.53892 0.86787 0.15085 0.0
H3107 H 0.52398 0.88852 0.13656 0.0
H3108 H 0.57991 0.87261 0.14397 0.0
H3109 H 0.5036 0.81726 0.14031 0.0
H3110 H 0.46837 0.79357 0.12449 0.0
H3111 H 0.49726 0.76452 0.09071 0.0
H3112 H 0.53277 0.78829 0.10619 0.0
H3113 H 0.57145 0.79985 0.21398 0.0
H3114 H 0.56818 0.82347 0.19129 0.0
H3115 H 0.58547 0.79272 0.1476 0.0
H3116 H 0.58954 0.76946 0.17053 0.0
H3117 H 0.54328 0.79094 0.1439 0.0
H3118 H 0.61844 0.84244 0.15239 0.0
H3119 H 0.65279 0.86565 0.16957 0.0
H3120 H 0.62562 0.9017 0.19532 0.0
H3121 H 0.59096 0.87848 0.17852 0.0
C3122 C 0.53046 0.86436 0.09752 0.0
C3123 C 0.52506 0.87772 0.10837 0.0
C3124 C 0.53897 0.85244 0.10584 0.0
C3125 C 0.54239 0.85384 0.12509 0.0
C3126 C 0.53658 0.86673 0.13595 0.0
C3127 C 0.52786 0.8784 0.12772 0.0
C3128 C 0.55228 0.84219 0.13411 0.0
C3129 C 0.57192 0.85475 0.14398 0.0
C3130 C 0.54217 0.81894 0.13362 0.0
C3131 C 0.52091 0.80478 0.1242 0.0
C3132 C 0.5025 0.806 0.12936 0.0
C3133 C 0.48247 0.79252 0.12049 0.0
C3134 C 0.4806 0.77761 0.10655 0.0
C3135 C 0.49875 0.77612 0.10148 0.0
C3136 C 0.51883 0.78959 0.11029 0.0
C3137 C 0.57526 0.79867 0.19962 0.0
C3138 C 0.58087 0.78302 0.19395 0.0
C3139 C 0.57337 0.81211 0.18669 0.0
C3140 C 0.57656 0.80979 0.1678 0.0
C3141 C 0.58305 0.79479 0.16215 0.0
C3142 C 0.58552 0.78168 0.17522 0.0
C3143 C 0.57063 0.82135 0.15413 0.0
C3144 C 0.55163 0.8088 0.14346 0.0
C3145 C 0.58126 0.84462 0.15399 0.0
C3146 C 0.60202 0.85858 0.16427 0.0
C3147 C 0.6197 0.85517 0.16185 0.0
C3148 C 0.63925 0.86837 0.17149 0.0
C3149 C 0.64137 0.88512 0.18355 0.0
C3150 C 0.62395 0.88872 0.18597 0.0
C3151 C 0.60435 0.87555 0.17637 0.0
H3152 H 0.65653 0.89533 0.19099 0.0
H3153 H 0.46507 0.76717 0.09971 0.0
H3154 H 0.22672 0.77557 0.21698 0.0
H3155 H 0.20894 0.74043 0.19971 0.0
H3156 H 0.1876 0.76903 0.1582 0.0
H3157 H 0.20604 0.80432 0.17495 0.0
H3158 H 0.17036 0.71183 0.19031 0.0
H3159 H 0.18646 0.74961 0.11604 0.0
H3160 H 0.21539 0.78189 0.10004 0.0
H3161 H 0.26229 0.7875 0.14041 0.0
H3162 H 0.23374 0.75507 0.15649 0.0
H3163 H 0.09162 0.63715 0.13041 0.0
H3164 H 0.11776 0.6703 0.14749 0.0
H3165 H 0.17043 0.67094 0.11733 0.0
H3166 H 0.14385 0.63824 0.09924 0.0
H3167 H 0.17946 0.71077 0.12218 0.0
H3168 H 0.1575 0.65165 0.16224 0.0
H3169 H 0.13139 0.61718 0.17743 0.0
H3170 H 0.10425 0.65109 0.20685 0.0
H3171 H 0.12961 0.68562 0.19126 0.0
C3172 C 0.2181 0.7743 0.20422 0.0
C3173 C 0.21791 0.79275 0.19724 0.0
C3174 C 0.20801 0.75423 0.19435 0.0
C3175 C 0.19738 0.75221 0.17741 0.0
C3176 C 0.1963 0.77035 0.17091 0.0
C3177 C 0.20668 0.79048 0.18059 0.0
C3178 C 0.18709 0.73115 0.16656 0.0
C3179 C 0.17247 0.71157 0.17545 0.0
C3180 C 0.19059 0.73054 0.14728 0.0
C3181 C 0.20789 0.74998 0.13755 0.0
C3182 C 0.20296 0.75765 0.12145 0.0
C3183 C 0.2193 0.77599 0.11238 0.0
C3184 C 0.24065 0.78677 0.11923 0.0
C3185 C 0.24573 0.77918 0.13514 0.0
C3186 C 0.22947 0.76084 0.14426 0.0
C3187 C 0.10879 0.64444 0.12738 0.0
C3188 C 0.11585 0.63512 0.11373 0.0
C3189 C 0.12372 0.66328 0.13722 0.0
C3190 C 0.14613 0.67271 0.13414 0.0
C3191 C 0.15323 0.66381 0.12006 0.0
C3192 C 0.13812 0.64519 0.10978 0.0
C3193 C 0.16184 0.69182 0.14578 0.0
C3194 C 0.17759 0.71097 0.13708 0.0
C3195 C 0.16012 0.69177 0.16536 0.0
C3196 C 0.14545 0.67127 0.17548 0.0
C3197 C 0.14592 0.65177 0.1719 0.0
C3198 C 0.1312 0.63219 0.18054 0.0
C3199 C 0.11619 0.63195 0.19313 0.0
C3200 C 0.11589 0.65131 0.1971 0.0
C3201 C 0.13042 0.6709 0.18833 0.0
H3202 H 0.1048 0.61675 0.19981 0.0
H3203 H 0.25326 0.80097 0.11219 0.0
H3204 H 0.35063 0.26692 0.0293 0.0
H3205 H 0.37837 0.30052 0.04548 0.0
H3206 H 0.36845 0.26353 0.09524 0.0
H3207 H 0.34069 0.23022 0.07931 0.0
H3208 H 0.35946 0.29582 0.1001 0.0
H3209 H 0.41784 0.28915 0.07525 0.0
H3210 H 0.43937 0.28402 0.05105 0.0
H3211 H 0.4505 0.34314 0.02477 0.0
H3212 H 0.42874 0.34845 0.04865 0.0
H3213 H 0.41919 0.39625 0.14982 0.0
H3214 H 0.41183 0.36026 0.13776 0.0
H3215 H 0.41812 0.38344 0.08186 0.0
H3216 H 0.42596 0.41926 0.09365 0.0
H3217 H 0.43342 0.35596 0.08403 0.0
H3218 H 0.36876 0.3573 0.10291 0.0
H3219 H 0.34544 0.36271 0.12507 0.0
H3220 H 0.34438 0.31352 0.16022 0.0
H3221 H 0.36796 0.30804 0.13834 0.0
C3222 C 0.35499 0.26588 0.04347 0.0
C3223 C 0.34335 0.24616 0.05317 0.0
C3224 C 0.37085 0.28503 0.0527 0.0
C3225 C 0.37533 0.2845 0.07161 0.0
C3226 C 0.36516 0.26431 0.0807 0.0
C3227 C 0.34928 0.24532 0.07158 0.0
C3228 C 0.38729 0.30523 0.08267 0.0
C3229 C 0.37589 0.30873 0.09691 0.0
C3230 C 0.40844 0.32226 0.07814 0.0
C3231 C 0.42151 0.31911 0.0637 0.0
C3232 C 0.42471 0.30096 0.06423 0.0
C3233 C 0.43699 0.29804 0.05058 0.0
C3234 C 0.44626 0.31322 0.03636 0.0
C3235 C 0.4433 0.33138 0.03579 0.0
C3236 C 0.43101 0.33437 0.0494 0.0
C3237 C 0.4194 0.39377 0.13499 0.0
C3238 C 0.42265 0.41044 0.1227 0.0
C3239 C 0.41521 0.37323 0.12812 0.0
C3240 C 0.41411 0.3691 0.1089 0.0
C3241 C 0.41887 0.38623 0.09673 0.0
C3242 C 0.42309 0.40666 0.10353 0.0
C3243 C 0.40542 0.3465 0.10121 0.0
C3244 C 0.41728 0.34272 0.08755 0.0
C3245 C 0.38448 0.32921 0.10598 0.0
C3246 C 0.37035 0.33249 0.11915 0.0
C3247 C 0.36369 0.34778 0.11544 0.0
C3248 C 0.35041 0.35084 0.12793 0.0
C3249 C 0.3435 0.33853 0.14408 0.0
C3250 C 0.3498 0.32309 0.14774 0.0
C3251 C 0.36313 0.32 0.1353 0.0
H3252 H 0.33321 0.34091 0.15373 0.0
H3253 H 0.45578 0.31093 0.02581 0.0
H3254 H 0.57209 0.99311 0.06688 0.0
H3255 H 0.61175 0.01465 0.06452 0.0
H3256 H 0.61771 0.98224 0.11251 0.0
H3257 H 0.57805 0.96147 0.11542 0.0
H3258 H 0.6525 0.02221 0.11029 0.0
H3259 H 0.61275 0.96011 0.06888 0.0
H3260 H 0.58492 0.93765 0.0452 0.0
H3261 H 0.61536 0.9907 0.00686 0.0
H3262 H 0.64321 0.01362 0.03043 0.0
H3263 H 0.7461 0.01871 0.09107 0.0
H3264 H 0.70693 0.00404 0.09232 0.0
H3265 H 0.71215 0.04913 0.05013 0.0
H3266 H 0.75155 0.0639 0.04869 0.0
H3267 H 0.67273 0.00579 0.04868 0.0
H3268 H 0.71745 0.06479 0.09185 0.0
H3269 H 0.74643 0.08083 0.11564 0.0
H3270 H 0.70615 0.02888 0.15264 0.0
H3271 H 0.6775 0.01157 0.12856 0.0
C3272 C 0.58194 0.99131 0.07737 0.0
C3273 C 0.57213 0.97555 0.09122 0.0
C3274 C 0.60456 0.00348 0.07594 0.0
C3275 C 0.61763 -0.00053 0.08795 0.0
C3276 C 0.60793 0.98546 0.10299 0.0
C3277 C 0.58527 0.97364 0.10469 0.0
C3278 C 0.64067 0.00724 0.08331 0.0
C3279 C 0.65692 0.01862 0.09685 0.0
C3280 C 0.64645 0.00247 0.06575 0.0
C3281 C 0.6299 0.98866 0.05147 0.0
C3282 C 0.61342 0.96703 0.05543 0.0
C3283 C 0.59765 0.95422 0.04203 0.0
C3284 C 0.59833 0.96276 0.02455 0.0
C3285 C 0.61483 0.98412 0.02042 0.0
C3286 C 0.63061 0.99703 0.03379 0.0
C3287 C 0.73887 0.0252 0.08177 0.0
C3288 C 0.75191 0.0428 0.07008 0.0
C3289 C 0.7165 0.01675 0.08246 0.0
C3290 C 0.70685 0.02592 0.07165 0.0
C3291 C 0.71943 0.042 0.05867 0.0
C3292 C 0.74189 0.05042 0.05788 0.0
C3293 C 0.68442 0.02068 0.07563 0.0
C3294 C 0.66833 0.00973 0.062 0.0
C3295 C 0.67877 0.02539 0.09326 0.0
C3296 C 0.69535 0.0367 0.10825 0.0
C3297 C 0.71482 0.0566 0.10496 0.0
C3298 C 0.73128 0.06584 0.11847 0.0
C3299 C 0.72811 0.05592 0.13566 0.0
C3300 C 0.70857 0.03657 0.13931 0.0
C3301 C 0.69228 0.02693 0.12567 0.0
H3302 H 0.74079 0.06324 0.14617 0.0
H3303 H 0.58611 0.95282 0.01419 0.0
H3304 H 0.93623 0.68586 0.04928 0.0
H3305 H 0.94731 0.65802 0.04988 0.0
H3306 H 0.92281 0.64111 0.10547 0.0
H3307 H 0.91216 0.66901 0.10504 0.0
H3308 H 0.96401 0.65292 0.1045 0.0
H3309 H 0.90062 0.60388 0.06908 0.0
H3310 H 0.87423 0.59214 0.04322 0.0
H3311 H 0.92431 0.60264 0.00463 0.0
H3312 H 0.95111 0.61477 0.03023 0.0
H3313 H 0.00565 0.58096 0.11393 0.0
H3314 H 0.97814 0.59204 0.11208 0.0
H3315 H 0.99783 0.6139 0.05624 0.0
H3316 H 0.02484 0.60268 0.0578 0.0
H3317 H 0.95464 0.59499 0.05907 0.0
H3318 H 0.01842 0.64983 0.09323 0.0
H3319 H 0.04575 0.66287 0.11848 0.0
H3320 H 0.99511 0.64246 0.15879 0.0
H3321 H 0.96745 0.62904 0.13375 0.0
C3322 C 0.93254 0.67564 0.06134 0.0
C3323 C 0.92355 0.67971 0.07717 0.0
C3324 C 0.93888 0.65974 0.0617 0.0
C3325 C 0.93601 0.64756 0.0778 0.0
C3326 C 0.92534 0.6504 0.09297 0.0
C3327 C 0.91922 0.66632 0.09267 0.0
C3328 C 0.94678 0.63434 0.07994 0.0
C3329 C 0.96153 0.63989 0.09477 0.0
C3330 C 0.94401 0.61774 0.06702 0.0
C3331 C 0.92793 0.61043 0.05158 0.0
C3332 C 0.90606 0.60388 0.05507 0.0
C3333 C 0.89101 0.59711 0.04045 0.0
C3334 C 0.8976 0.59669 0.02229 0.0
C3335 C 0.91924 0.60299 0.01871 0.0
C3336 C 0.93436 0.60979 0.03327 0.0
C3337 C 0.00394 0.5879 0.1012 0.0
C3338 C 0.01763 0.5911 0.0861 0.0
C3339 C 0.9882 0.5942 0.10015 0.0
C3340 C 0.98609 0.60401 0.08407 0.0
C3341 C 0.99909 0.60632 0.06876 0.0
C3342 C 0.01466 0.59995 0.06975 0.0
C3343 C 0.97185 0.61374 0.08353 0.0
C3344 C 0.95665 0.60768 0.06897 0.0
C3345 C 0.97426 0.63004 0.09661 0.0
C3346 C 0.99087 0.6382 0.11165 0.0
C3347 C 0.01312 0.64799 0.10749 0.0
C3348 C 0.02866 0.65546 0.12175 0.0
C3349 C 0.02216 0.65342 0.14023 0.0
C3350 C 0.00011 0.64397 0.14447 0.0
C3351 C 0.9845 0.63644 0.13025 0.0
H3352 H 0.03422 0.65922 0.15125 0.0
H3353 H 0.88592 0.59145 0.011 0.0
H3354 H 0.24548 0.31087 0.45244 0.0
H3355 H 0.28411 0.33935 0.45167 0.0
H3356 H 0.27495 0.3578 0.39717 0.0
H3357 H 0.23642 0.32935 0.39795 0.0
H3358 H 0.30439 0.34474 0.39727 0.0
H3359 H 0.29171 0.39483 0.43295 0.0
H3360 H 0.27757 0.40689 0.45899 0.0
H3361 H 0.31638 0.39487 0.49726 0.0
H3362 H 0.33053 0.38242 0.47148 0.0
H3363 H 0.4182 0.41084 0.38801 0.0
H3364 H 0.38045 0.40255 0.38966 0.0
H3365 H 0.37709 0.38265 0.44634 0.0
H3366 H 0.4147 0.3915 0.44507 0.0
H3367 H 0.35404 0.40195 0.44272 0.0
H3368 H 0.36034 0.34516 0.40946 0.0
H3369 H 0.37371 0.33051 0.38474 0.0
H3370 H 0.34571 0.35228 0.34348 0.0
H3371 H 0.33242 0.36733 0.36798 0.0
C3372 C 0.25156 0.3216 0.44064 0.0
C3373 C 0.23815 0.31776 0.42511 0.0
C3374 C 0.27364 0.33786 0.44019 0.0
C3375 C 0.28246 0.35057 0.42427 0.0
C3376 C 0.26854 0.34808 0.40952 0.0
C3377 C 0.24658 0.33185 0.40996 0.0
C3378 C 0.30638 0.36366 0.42178 0.0
C3379 C 0.31522 0.35767 0.40696 0.0
C3380 C 0.32051 0.38003 0.43471 0.0
C3381 C 0.31207 0.38754 0.45027 0.0
C3382 C 0.29711 0.39458 0.44693 0.0
C3383 C 0.28911 0.40152 0.46164 0.0
C3384 C 0.29604 0.40161 0.47977 0.0
C3385 C 0.31102 0.39479 0.48321 0.0
C3386 C 0.31906 0.38782 0.46855 0.0
C3387 C 0.40954 0.40505 0.40091 0.0
C3388 C 0.41943 0.40148 0.41628 0.0
C3389 C 0.38794 0.40027 0.40183 0.0
C3390 C 0.37579 0.39157 0.41803 0.0
C3391 C 0.38607 0.3893 0.43368 0.0
C3392 C 0.40761 0.39423 0.43285 0.0
C3393 C 0.35194 0.38281 0.41835 0.0
C3394 C 0.34314 0.38944 0.43279 0.0
C3395 C 0.33772 0.3667 0.40526 0.0
C3396 C 0.34566 0.35762 0.39052 0.0
C3397 C 0.35719 0.34697 0.39511 0.0
C3398 C 0.36473 0.33857 0.38114 0.0
C3399 C 0.36063 0.34053 0.36255 0.0
C3400 C 0.34893 0.35083 0.35788 0.0
C3401 C 0.34139 0.3593 0.3718 0.0
H3402 H 0.36648 0.33401 0.35175 0.0
H3403 H 0.28984 0.40699 0.49114 0.0
H3404 H 0.5868 0.00936 0.43968 0.0
H3405 H 0.59915 0.9827 0.44 0.0
H3406 H 0.61664 0.99517 0.38246 0.0
H3407 H 0.60448 0.02217 0.38209 0.0
H3408 H 0.5996 0.94869 0.39541 0.0
H3409 H 0.65425 0.02558 0.40984 0.0
H3410 H 0.66665 0.06055 0.42718 0.0
H3411 H 0.65858 0.02738 0.47852 0.0
H3412 H 0.64583 0.99214 0.46146 0.0
H3413 H 0.69096 0.93448 0.38549 0.0
H3414 H 0.66334 0.9452 0.38563 0.0
H3415 H 0.66193 0.94354 0.44534 0.0
H3416 H 0.6897 0.93284 0.44535 0.0
H3417 H 0.66727 0.98135 0.43349 0.0
H3418 H 0.62022 0.90622 0.41952 0.0
H3419 H 0.60443 0.86979 0.40406 0.0
H3420 H 0.59404 0.8961 0.35442 0.0
H3421 H 0.61075 0.93298 0.36923 0.0
C3422 C 0.5928 0.00605 0.42697 0.0
C3423 C 0.59517 0.01819 0.41099 0.0
C3424 C 0.59971 0.99073 0.42715 0.0
C3425 C 0.6091 0.98729 0.41134 0.0
C3426 C 0.60943 -0.00234 0.39479 0.0
C3427 C 0.60249 0.01307 0.39461 0.0
C3428 C 0.62165 0.97589 0.41298 0.0
C3429 C 0.61456 0.95581 0.4035 0.0
C3430 C 0.64063 0.98494 0.42419 0.0
C3431 C 0.64892 0.00623 0.4344 0.0
C3432 C 0.65502 0.02574 0.42483 0.0
C3433 C 0.66212 0.0456 0.4346 0.0
C3434 C 0.66336 0.04617 0.45394 0.0
C3435 C 0.65759 0.0269 0.46354 0.0
C3436 C 0.65045 0.00699 0.45383 0.0
C3437 C 0.68465 0.93616 0.39867 0.0
C3438 C 0.69272 0.93299 0.41543 0.0
C3439 C 0.6687 0.94213 0.3987 0.0
C3440 C 0.66047 0.94506 0.41548 0.0
C3441 C 0.66804 0.94133 0.43223 0.0
C3442 C 0.68392 0.93522 0.4322 0.0
C3443 C 0.64561 0.95408 0.41555 0.0
C3444 C 0.6523 0.9739 0.42539 0.0
C3445 C 0.62615 0.94455 0.4048 0.0
C3446 C 0.61705 0.92256 0.39548 0.0
C3447 C 0.61501 0.90442 0.40518 0.0
C3448 C 0.60585 0.88363 0.39653 0.0
C3449 C 0.59828 0.88064 0.37826 0.0
C3450 C 0.59992 0.89844 0.36858 0.0
C3451 C 0.60939 0.91934 0.37706 0.0
H3452 H 0.59112 0.86452 0.3716 0.0
H3453 H 0.66882 0.06156 0.46149 0.0
H3454 H 0.11409 0.75909 0.44179 0.0
H3455 H 0.10547 0.72354 0.42825 0.0
H3456 H 0.06875 0.6908 0.47681 0.0
H3457 H 0.07764 0.72655 0.49061 0.0
H3458 H 0.08696 0.66712 0.45524 0.0
H3459 H 0.04335 0.70181 0.44947 0.0
H3460 H 0.03919 0.73388 0.44328 0.0
H3461 H 0.06153 0.73613 0.38765 0.0
H3462 H 0.06588 0.70409 0.39373 0.0
H3463 H 0.99372 0.57312 0.41818 0.0
H3464 H 0.02123 0.60626 0.43413 0.0
H3465 H 0.04646 0.63707 0.38163 0.0
H3466 H 0.01835 0.60382 0.36534 0.0
H3467 H 0.03745 0.66205 0.40446 0.0
H3468 H 0.07681 0.62333 0.41041 0.0
H3469 H 0.0797 0.5908 0.41789 0.0
H3470 H 0.06173 0.5941 0.47414 0.0
H3471 H 0.05868 0.62655 0.46698 0.0
C3472 C 0.10508 0.7444 0.44996 0.0
C3473 C 0.09609 0.74534 0.46702 0.0
C3474 C 0.10027 0.72415 0.44225 0.0
C3475 C 0.0861 0.70465 0.4514 0.0
C3476 C 0.0797 0.70576 0.46959 0.0
C3477 C 0.08472 0.72615 0.47743 0.0
C3478 C 0.0738 0.68408 0.44037 0.0
C3479 C 0.0761 0.6659 0.44415 0.0
C3480 C 0.0596 0.68264 0.42598 0.0
C3481 C 0.05557 0.70099 0.42214 0.0
C3482 C 0.04756 0.70927 0.43598 0.0
C3483 C 0.04507 0.72738 0.43249 0.0
C3484 C 0.05022 0.73714 0.41512 0.0
C3485 C 0.05764 0.72865 0.40114 0.0
C3486 C 0.06013 0.71054 0.40459 0.0
C3487 C 0.00523 0.58681 0.40993 0.0
C3488 C 0.00367 0.58594 0.39045 0.0
C3489 C 0.02114 0.60569 0.41912 0.0
C3490 C 0.03602 0.62403 0.40907 0.0
C3491 C 0.03514 0.62298 0.38961 0.0
C3492 C 0.01913 0.60401 0.38033 0.0
C3493 C 0.05077 0.64497 0.41903 0.0
C3494 C 0.04864 0.66328 0.41524 0.0
C3495 C 0.0647 0.64627 0.43362 0.0
C3496 C 0.06746 0.62733 0.43814 0.0
C3497 C 0.07349 0.6171 0.42438 0.0
C3498 C 0.07517 0.59868 0.42856 0.0
C3499 C 0.0709 0.59037 0.44647 0.0
C3500 C 0.06511 0.60056 0.46028 0.0
C3501 C 0.06347 0.61903 0.45619 0.0
H3502 H 0.07208 0.57602 0.4496 0.0
H3503 H 0.04835 0.75119 0.41245 0.0
H3504 H 0.59803 0.58393 0.89159 0.0
H3505 H 0.61872 0.62427 0.8943 0.0
H3506 H 0.65664 0.62034 0.93918 0.0
H3507 H 0.63534 0.58018 0.93709 0.0
H3508 H 0.64804 0.65013 0.94761 0.0
H3509 H 0.67635 0.63366 0.89414 0.0
H3510 H 0.67508 0.61656 0.8637 0.0
H3511 H 0.64788 0.6525 0.83899 0.0
H3512 H 0.64866 0.66956 0.86937 0.0
H3513 H 0.7353 0.76458 0.90702 0.0
H3514 H 0.71585 0.7243 0.9065 0.0
H3515 H 0.66454 0.72342 0.9391 0.0
H3516 H 0.68494 0.76382 0.94075 0.0
H3517 H 0.68119 0.69571 0.89225 0.0
H3518 H 0.63725 0.67743 0.96335 0.0
H3519 H 0.64377 0.69371 0.9949 0.0
H3520 H 0.71276 0.72674 0.98633 0.0
H3521 H 0.70671 0.71041 0.95484 0.0
C3522 C 0.61076 0.59176 0.90204 0.0
C3523 C 0.61512 0.57904 0.91415 0.0
C3524 C 0.62262 0.61476 0.90354 0.0
C3525 C 0.63942 0.62535 0.91681 0.0
C3526 C 0.64371 0.61257 0.9289 0.0
C3527 C 0.63158 0.58962 0.92765 0.0
C3528 C 0.65263 0.64975 0.91812 0.0
C3529 C 0.65533 0.66012 0.93551 0.0
C3530 C 0.66266 0.66275 0.90244 0.0
C3531 C 0.66238 0.65274 0.88408 0.0
C3532 C 0.66997 0.63781 0.88224 0.0
C3533 C 0.66935 0.62814 0.865 0.0
C3534 C 0.66136 0.63341 0.84943 0.0
C3535 C 0.65404 0.64842 0.85107 0.0
C3536 C 0.65458 0.65811 0.8683 0.0
C3537 C 0.71996 0.75569 0.91422 0.0
C3538 C 0.71154 0.76709 0.92396 0.0
C3539 C 0.70881 0.73271 0.91386 0.0
C3540 C 0.68876 0.72071 0.92286 0.0
C3541 C 0.68023 0.73222 0.93245 0.0
C3542 C 0.69178 0.75526 0.93332 0.0
C3543 C 0.67663 0.69622 0.92178 0.0
C3544 C 0.67402 0.68579 0.9044 0.0
C3545 C 0.66763 0.68313 0.93764 0.0
C3546 C 0.67149 0.69286 0.95665 0.0
C3547 C 0.65382 0.68809 0.96822 0.0
C3548 C 0.65744 0.69734 0.9861 0.0
C3549 C 0.67868 0.7113 0.99259 0.0
C3550 C 0.69634 0.71598 0.98125 0.0
C3551 C 0.69282 0.70674 0.96339 0.0
H3552 H 0.68145 0.71847 0.00642 0.0
H3553 H 0.66089 0.6259 0.83609 0.0
H3554 H 0.24843 0.99054 0.91204 0.0
H3555 H 0.2855 -0.00097 0.90685 0.0
H3556 H 0.26839 0.93355 0.92325 0.0
H3557 H 0.23063 0.92467 0.92848 0.0
H3558 H 0.31023 0.96909 0.93739 0.0
H3559 H 0.27377 0.94063 0.88005 0.0
H3560 H 0.24873 0.9352 0.85427 0.0
H3561 H 0.28731 0.00375 0.8411 0.0
H3562 H 0.31241 0.00971 0.86699 0.0
H3563 H 0.42057 0.01551 0.90484 0.0
H3564 H 0.38164 0.98709 0.90504 0.0
H3565 H 0.36492 0.03695 0.89452 0.0
H3566 H 0.40346 0.06521 0.89472 0.0
H3567 H 0.33866 0.99635 0.87464 0.0
H3568 H 0.36769 0.02475 0.9374 0.0
H3569 H 0.39241 0.03069 0.96362 0.0
H3570 H 0.36738 0.96093 0.96602 0.0
H3571 H 0.3427 0.95463 0.93962 0.0
C3572 C 0.25242 0.97787 0.91468 0.0
C3573 C 0.23642 0.95679 0.92044 0.0
C3574 C 0.27367 0.98277 0.91166 0.0
C3575 C 0.27955 0.96677 0.91427 0.0
C3576 C 0.26406 0.94604 0.921 0.0
C3577 C 0.24256 0.94104 0.92403 0.0
C3578 C 0.30189 0.97217 0.90936 0.0
C3579 C 0.31636 0.97437 0.92353 0.0
C3580 C 0.30987 0.97907 0.89127 0.0
C3581 C 0.29497 0.97562 0.87552 0.0
C3582 C 0.27686 0.95459 0.87173 0.0
C3583 C 0.26265 0.95141 0.85709 0.0
C3584 C 0.26642 0.96912 0.84606 0.0
C3585 C 0.28443 0.99004 0.84964 0.0
C3586 C 0.29868 0.99332 0.86428 0.0
C3587 C 0.40852 0.0202 0.90206 0.0
C3588 C 0.41488 0.04247 0.89978 0.0
C3589 C 0.38637 0.00403 0.90228 0.0
C3590 C 0.37045 0.00998 0.89989 0.0
C3591 C 0.37694 0.03201 0.89634 0.0
C3592 C 0.39893 0.04814 0.89649 0.0
C3593 C 0.34704 0.99415 0.90283 0.0
C3594 C 0.33239 0.99013 0.88828 0.0
C3595 C 0.33891 0.98545 0.9205 0.0
C3596 C 0.3536 0.98926 0.93642 0.0
C3597 C 0.3676 0.01071 0.94343 0.0
C3598 C 0.38157 0.01414 0.95833 0.0
C3599 C 0.38152 0.99621 0.96644 0.0
C3600 C 0.36744 0.9748 0.9597 0.0
C3601 C 0.35346 0.9713 0.94477 0.0
H3602 H 0.39235 -0.00111 0.97798 0.0
H3603 H 0.2554 0.96663 0.83473 0.0
H3604 H 0.00533 0.2615 0.93539 0.0
H3605 H 0.99198 0.28667 0.9294 0.0
H3606 H 0.05588 0.33604 0.91142 0.0
H3607 H 0.06951 0.31086 0.9179 0.0
H3608 H 0.0322 0.35427 0.92888 0.0
H3609 H 0.02281 0.3036 0.88007 0.0
H3610 H 0.01237 0.26733 0.86601 0.0
H3611 H 0.94575 0.24297 0.88089 0.0
H3612 H 0.9559 0.27881 0.8956 0.0
H3613 H 0.97096 0.39929 0.88702 0.0
H3614 H 0.99722 0.38639 0.88827 0.0
H3615 H 0.9465 0.32316 0.90718 0.0
H3616 H 0.9204 0.33547 0.90544 0.0
H3617 H 0.97154 0.318 0.88312 0.0
H3618 H 0.98277 0.36837 0.93524 0.0
H3619 H 0.99306 0.40545 0.94704 0.0
H3620 H 0.05731 0.43131 0.92515 0.0
H3621 H 0.04693 0.3946 0.91205 0.0
C3622 C 0.01673 0.27803 0.93083 0.0
C3623 C 0.0384 0.28427 0.92703 0.0
C3624 C 0.00907 0.29236 0.92732 0.0
C3625 C 0.02282 0.313 0.91952 0.0
C3626 C 0.045 0.32013 0.91735 0.0
C3627 C 0.05279 0.30581 0.92113 0.0
C3628 C 0.01311 0.32546 0.91158 0.0
C3629 C 0.01917 0.34653 0.91866 0.0
C3630 C 0.99634 0.31551 0.898 0.0
C3631 C 0.99016 0.2939 0.88905 0.0
C3632 C 0.00597 0.29045 0.88051 0.0
C3633 C 0.00011 0.26993 0.87245 0.0
C3634 C 0.97843 0.25282 0.87262 0.0
C3635 C 0.96256 0.25619 0.88084 0.0
C3636 C 0.96837 0.2766 0.88906 0.0
C3637 C 0.96538 0.38252 0.89111 0.0
C3638 C 0.94362 0.36854 0.89637 0.0
C3639 C 0.98043 0.37522 0.89191 0.0
C3640 C 0.97392 0.35391 0.89812 0.0
C3641 C 0.95198 0.33969 0.90242 0.0
C3642 C 0.93705 0.34685 0.90152 0.0
C3643 C 0.9896 0.34619 0.90127 0.0
C3644 C 0.98482 0.32597 0.89311 0.0
C3645 C 0.00752 0.35701 0.91377 0.0
C3646 C 0.01396 0.37878 0.92242 0.0
C3647 C 0.99905 0.38198 0.9328 0.0
C3648 C 0.0049 0.40296 0.93973 0.0
C3649 C 0.02589 0.42072 0.93701 0.0
C3650 C 0.04105 0.41755 0.92724 0.0
C3651 C 0.03513 0.39669 0.91993 0.0
H3652 H 0.03038 0.43694 0.94243 0.0
H3653 H 0.97391 0.23696 0.86634 0.0
H3654 H 0.75227 0.7333 0.60786 0.0
H3655 H 0.71454 0.70556 0.61223 0.0
H3656 H 0.72108 0.66169 0.57376 0.0
H3657 H 0.75941 0.68996 0.56893 0.0
H3658 H 0.68459 0.66214 0.56681 0.0
H3659 H 0.71413 0.64954 0.61988 0.0
H3660 H 0.73717 0.65777 0.64775 0.0
H3661 H 0.70454 0.68806 0.67409 0.0
H3662 H 0.68152 0.68034 0.64628 0.0
H3663 H 0.57195 0.59339 0.59562 0.0
H3664 H 0.61036 0.60315 0.59524 0.0
H3665 H 0.62993 0.67006 0.61125 0.0
H3666 H 0.59178 0.66065 0.61091 0.0
H3667 H 0.65254 0.64622 0.62969 0.0
H3668 H 0.63171 0.66642 0.5705 0.0
H3669 H 0.6082 0.65587 0.54265 0.0
H3670 H 0.62438 0.60632 0.52855 0.0
H3671 H 0.64775 0.61643 0.55651 0.0
C3672 C 0.74592 0.71776 0.60034 0.0
C3673 C 0.75903 0.71393 0.58803 0.0
C3674 C 0.72425 0.70175 0.60302 0.0
C3675 C 0.71502 0.68131 0.59365 0.0
C3676 C 0.72793 0.67728 0.58129 0.0
C3677 C 0.74982 0.69343 0.57855 0.0
C3678 C 0.69151 0.66513 0.59616 0.0
C3679 C 0.67767 0.65811 0.58056 0.0
C3680 C 0.68232 0.65964 0.61408 0.0
C3681 C 0.69611 0.66439 0.63093 0.0
C3682 C 0.71195 0.65809 0.63156 0.0
C3683 C 0.725 0.66265 0.64737 0.0
C3684 C 0.72233 0.67344 0.66268 0.0
C3685 C 0.70658 0.67967 0.66222 0.0
C3686 C 0.69348 0.67517 0.64645 0.0
C3687 C 0.58446 0.61002 0.59952 0.0
C3688 C 0.57903 0.6263 0.60336 0.0
C3689 C 0.60632 0.61556 0.59922 0.0
C3690 C 0.62286 0.63729 0.60321 0.0
C3691 C 0.61733 0.65318 0.60822 0.0
C3692 C 0.5956 0.64781 0.60802 0.0
C3693 C 0.64603 0.64434 0.60045 0.0
C3694 C 0.65966 0.64963 0.616 0.0
C3695 C 0.65502 0.6478 0.58253 0.0
C3696 C 0.64122 0.64197 0.56567 0.0
C3697 C 0.63009 0.65315 0.56154 0.0
C3698 C 0.61683 0.64728 0.54573 0.0
C3699 C 0.61474 0.63038 0.53387 0.0
C3700 C 0.62597 0.61937 0.53777 0.0
C3701 C 0.63922 0.62516 0.55359 0.0
H3702 H 0.60446 0.62585 0.52163 0.0
H3703 H 0.73245 0.67695 0.6749 0.0
H3704 H 0.29955 0.06242 0.57497 0.0
H3705 H 0.32458 0.04828 0.57804 0.0
H3706 H 0.27196 0.9826 0.56444 0.0
H3707 H 0.24687 0.99654 0.56241 0.0
H3708 H 0.29053 0.9806 0.59361 0.0
H3709 H 0.31766 0.01586 0.53494 0.0
H3710 H 0.33318 0.04688 0.51334 0.0
H3711 H 0.38932 0.08255 0.54876 0.0
H3712 H 0.37399 0.05183 0.5707 0.0
H3713 H 0.33935 0.91998 0.57027 0.0
H3714 H 0.32327 0.94311 0.56867 0.0
H3715 H 0.37864 0.99556 0.59781 0.0
H3716 H 0.3953 0.97229 0.59943 0.0
H3717 H 0.36303 0.00865 0.56517 0.0
H3718 H 0.33581 0.969 0.62172 0.0
H3719 H 0.31992 0.93546 0.64048 0.0
H3720 H 0.26256 0.9057 0.60599 0.0
H3721 H 0.27825 0.93893 0.58684 0.0
C3722 C 0.29355 0.04508 0.57217 0.0
C3723 C 0.27135 0.03054 0.56842 0.0
C3724 C 0.30784 0.03698 0.57395 0.0
C3725 C 0.30022 0.01431 0.57152 0.0
C3726 C 0.27826 0.0001 0.5666 0.0
C3727 C 0.26394 0.00808 0.56528 0.0
C3728 C 0.31437 0.00486 0.57543 0.0
C3729 C 0.3063 0.98672 0.58723 0.0
C3730 C 0.33535 0.01321 0.56773 0.0
C3731 C 0.34456 0.03167 0.55456 0.0
C3732 C 0.33323 0.0304 0.5382 0.0
C3733 C 0.34201 0.04791 0.52588 0.0
C3734 C 0.36219 0.0667 0.52971 0.0
C3735 C 0.37367 0.068 0.54584 0.0
C3736 C 0.36495 0.05054 0.55821 0.0
C3737 C 0.34831 0.93643 0.57635 0.0
C3738 C 0.36869 0.94422 0.58504 0.0
C3739 C 0.339 0.94964 0.57542 0.0
C3740 C 0.34968 0.97096 0.58322 0.0
C3741 C 0.37016 0.9791 0.59171 0.0
C3742 C 0.37956 0.96575 0.59273 0.0
C3743 C 0.33872 0.9841 0.58271 0.0
C3744 C 0.34739 0.00289 0.5717 0.0
C3745 C 0.31809 0.97617 0.59087 0.0
C3746 C 0.30827 0.95646 0.6028 0.0
C3747 C 0.31984 0.95528 0.6181 0.0
C3748 C 0.31087 0.93632 0.6288 0.0
C3749 C 0.29026 0.91845 0.62442 0.0
C3750 C 0.27852 0.91956 0.60938 0.0
C3751 C 0.28743 0.93848 0.59862 0.0
H3752 H 0.28337 0.90375 0.63268 0.0
H3753 H 0.36896 0.08024 0.52016 0.0
H3754 H 0.02175 0.41645 0.62015 0.0
H3755 H 0.99917 0.37611 0.61879 0.0
H3756 H 0.01223 0.37634 0.5604 0.0
H3757 H 0.03465 0.41649 0.56161 0.0
H3758 H 0.96886 0.34896 0.56851 0.0
H3759 H 0.03922 0.36293 0.59011 0.0
H3760 H 0.07122 0.37944 0.61104 0.0
H3761 H 0.02993 0.34759 0.65738 0.0
H3762 H 0.99767 0.33091 0.6367 0.0
H3763 H 0.93851 0.23715 0.55158 0.0
H3764 H 0.95636 0.27736 0.55409 0.0
H3765 H 0.94971 0.27316 0.61359 0.0
H3766 H 0.93294 0.23315 0.61116 0.0
H3767 H 0.98849 0.30298 0.60599 0.0
H3768 H 0.9181 0.28655 0.58423 0.0
H3769 H 0.88601 0.27004 0.56342 0.0
H3770 H 0.92625 0.30664 0.51793 0.0
H3771 H 0.95863 0.32317 0.53842 0.0
C3772 C 0.01976 0.40787 0.60704 0.0
C3773 C 0.02997 0.41954 0.591 0.0
C3774 C 0.00692 0.38489 0.60629 0.0
C3775 C 0.00416 0.37334 0.5895 0.0
C3776 C 0.01414 0.38501 0.57346 0.0
C3777 C 0.02701 0.40791 0.57421 0.0
C3778 C 0.99122 0.34902 0.58862 0.0
C3779 C 0.97317 0.33882 0.57658 0.0
C3780 C 0.99666 0.33597 0.59949 0.0
C3781 C 0.01603 0.34586 0.6119 0.0
C3782 C 0.03696 0.35957 0.60479 0.0
C3783 C 0.05514 0.36894 0.6166 0.0
C3784 C 0.0526 0.36468 0.63554 0.0
C3785 C 0.03187 0.35092 0.6427 0.0
C3786 C 0.01364 0.34146 0.63094 0.0
C3787 C 0.94072 0.24485 0.56515 0.0
C3788 C 0.93449 0.23215 0.58118 0.0
C3789 C 0.95079 0.2678 0.56658 0.0
C3790 C 0.95417 0.27829 0.58403 0.0
C3791 C 0.94735 0.26546 0.59999 0.0
C3792 C 0.93773 0.24262 0.59858 0.0
C3793 C 0.96594 0.30267 0.58584 0.0
C3794 C 0.9839 0.31297 0.59803 0.0
C3795 C 0.9603 0.31578 0.57517 0.0
C3796 C 0.94082 0.30596 0.56284 0.0
C3797 C 0.92013 0.29097 0.56976 0.0
C3798 C 0.90188 0.28162 0.55803 0.0
C3799 C 0.9041 0.28725 0.53936 0.0
C3800 C 0.92456 0.30229 0.53239 0.0
C3801 C 0.94286 0.31167 0.54407 0.0
H3802 H 0.88995 0.27999 0.53029 0.0
H3803 H 0.06669 0.37197 0.64467 0.0
H3804 H 0.90594 0.66329 0.76575 0.0
H3805 H 0.94486 0.69234 0.76639 0.0
H3806 H 0.96063 0.6488 0.73631 0.0
H3807 H 0.92236 0.62033 0.73535 0.0
H3808 H 0.98691 0.67007 0.76855 0.0
H3809 H 0.95744 0.68418 0.71287 0.0
H3810 H 0.93293 0.69354 0.69642 0.0
H3811 H 0.96017 0.75485 0.72705 0.0
H3812 H 0.9846 0.74565 0.74392 0.0
H3813 H 0.08522 0.73373 0.71269 0.0
H3814 H 0.04632 0.72132 0.71502 0.0
H3815 H 0.05541 0.74197 0.7725 0.0
H3816 H 0.09407 0.75433 0.77033 0.0
H3817 H 0.0164 0.73652 0.72957 0.0
H3818 H 0.02117 0.69504 0.79519 0.0
H3819 H 0.04544 0.68423 0.8102 0.0
H3820 H 0.06666 0.67498 0.75686 0.0
H3821 H 0.04225 0.68535 0.74158 0.0
C3822 C 0.91785 0.66 0.75946 0.0
C3823 C 0.91124 0.63967 0.75045 0.0
C3824 C 0.93994 0.67656 0.75973 0.0
C3825 C 0.9555 0.67265 0.75131 0.0
C3826 C 0.94886 0.65213 0.74284 0.0
C3827 C 0.92699 0.63591 0.74228 0.0
C3828 C 0.9789 0.68952 0.75108 0.0
C3829 C 0.99333 0.68482 0.76032 0.0
C3830 C 0.98722 0.70854 0.74008 0.0
C3831 C 0.97263 0.71409 0.72984 0.0
C3832 C 0.95804 0.69955 0.71624 0.0
C3833 C 0.9442 0.70484 0.70681 0.0
C3834 C 0.94493 0.72474 0.71073 0.0
C3835 C 0.95957 0.73941 0.72406 0.0
C3836 C 0.97342 0.73417 0.73356 0.0
C3837 C 0.07907 0.73639 0.72561 0.0
C3838 C 0.09255 0.74451 0.74143 0.0
C3839 C 0.05687 0.72938 0.7269 0.0
C3840 C 0.04801 0.7305 0.744 0.0
C3841 C 0.06194 0.74088 0.75922 0.0
C3842 C 0.084 0.74776 0.75797 0.0
C3843 C 0.02426 0.71689 0.747 0.0
C3844 C 0.0099 0.72213 0.73824 0.0
C3845 C 0.01583 0.69808 0.75826 0.0
C3846 C 0.03012 0.69124 0.76728 0.0
C3847 C 0.03096 0.69061 0.78669 0.0
C3848 C 0.04473 0.68456 0.79524 0.0
C3849 C 0.05765 0.67901 0.78449 0.0
C3850 C 0.05672 0.67936 0.76517 0.0
C3851 C 0.04293 0.68533 0.75657 0.0
H3852 H 0.06833 0.67438 0.79113 0.0
H3853 H 0.93421 0.72882 0.7034 0.0
H3854 H 0.24925 0.3423 0.77414 0.0
H3855 H 0.2619 0.31603 0.77554 0.0
H3856 H 0.27254 0.32086 0.71662 0.0
H3857 H 0.26022 0.34772 0.71507 0.0
H3858 H 0.25648 0.27484 0.73714 0.0
H3859 H 0.31306 0.35248 0.73385 0.0
H3860 H 0.329 0.39166 0.74301 0.0
H3861 H 0.33158 0.37576 0.79979 0.0
H3862 H 0.31522 0.33638 0.79097 0.0
H3863 H 0.34552 0.25743 0.72568 0.0
H3864 H 0.31749 0.26748 0.72555 0.0
H3865 H 0.32767 0.28259 0.78415 0.0
H3866 H 0.35617 0.27273 0.78434 0.0
H3867 H 0.33056 0.31636 0.7652 0.0
H3868 H 0.27964 0.23943 0.76767 0.0
H3869 H 0.26293 0.20009 0.75888 0.0
H3870 H 0.24926 0.21363 0.70431 0.0
H3871 H 0.26616 0.25313 0.71269 0.0
C3872 C 0.25368 0.33735 0.76134 0.0
C3873 C 0.25419 0.34746 0.74453 0.0
C3874 C 0.26079 0.32222 0.76219 0.0
C3875 C 0.26835 0.31675 0.74624 0.0
C3876 C 0.26667 0.3249 0.72906 0.0
C3877 C 0.25965 0.34024 0.7282 0.0
C3878 C 0.28152 0.30608 0.74827 0.0
C3879 C 0.27277 0.28387 0.74305 0.0
C3880 C 0.30248 0.31781 0.7565 0.0
C3881 C 0.31267 0.34149 0.76179 0.0
C3882 C 0.31683 0.35732 0.74831 0.0
C3883 C 0.32597 0.37956 0.75343 0.0
C3884 C 0.33124 0.38618 0.77198 0.0
C3885 C 0.32744 0.37059 0.78543 0.0
C3886 C 0.31824 0.34832 0.78038 0.0
C3887 C 0.34158 0.26254 0.73864 0.0
C3888 C 0.35324 0.26452 0.755 0.0
C3889 C 0.32538 0.26811 0.73856 0.0
C3890 C 0.3204 0.27572 0.75484 0.0
C3891 C 0.33125 0.27671 0.77142 0.0
C3892 C 0.34745 0.27099 0.77154 0.0
C3893 C 0.30573 0.28494 0.75393 0.0
C3894 C 0.31423 0.30707 0.75938 0.0
C3895 C 0.2846 0.27306 0.74588 0.0
C3896 C 0.27433 0.2493 0.74078 0.0
C3897 C 0.27323 0.23406 0.75375 0.0
C3898 C 0.26369 0.21172 0.74885 0.0
C3899 C 0.25508 0.20437 0.73104 0.0
C3900 C 0.25594 0.21935 0.7181 0.0
C3901 C 0.26547 0.24172 0.72293 0.0
H3902 H 0.2477 0.18707 0.72727 0.0
H3903 H 0.33832 0.40341 0.77592 0.0
H3904 H 0.68255 0.93728 0.6866 0.0
H3905 H 0.71099 0.97193 0.70104 0.0
H3906 H 0.7041 0.93816 0.75206 0.0
H3907 H 0.67613 0.90381 0.73791 0.0
H3908 H 0.69627 0.97027 0.75702 0.0
H3909 H 0.75223 0.96205 0.72802 0.0
H3910 H 0.77114 0.95595 0.70203 0.0
H3911 H 0.78008 0.01443 0.67608 0.0
H3912 H 0.76094 0.02073 0.70178 0.0
H3913 H 0.7599 0.06931 0.80561 0.0
H3914 H 0.75363 0.03415 0.79243 0.0
H3915 H 0.75304 0.05686 0.7374 0.0
H3916 H 0.75988 0.09193 0.75024 0.0
H3917 H 0.76926 0.02903 0.73715 0.0
H3918 H 0.70658 0.0317 0.76018 0.0
H3919 H 0.68594 0.03861 0.78417 0.0
H3920 H 0.68802 0.99079 0.81902 0.0
H3921 H 0.70896 0.98392 0.7953 0.0
C3922 C 0.6878 0.93717 0.70067 0.0
C3923 C 0.67701 0.91803 0.71124 0.0
C3924 C 0.70403 0.95692 0.7089 0.0
C3925 C 0.70969 0.95755 0.72767 0.0
C3926 C 0.70015 0.93797 0.7376 0.0
C3927 C 0.68405 0.9184 0.72949 0.0
C3928 C 0.72253 0.97878 0.73788 0.0
C3929 C 0.71249 0.98286 0.75293 0.0
C3930 C 0.74338 0.99544 0.73223 0.0
C3931 C 0.75499 0.99176 0.71678 0.0
C3932 C 0.75807 0.97352 0.71671 0.0
C3933 C 0.76886 0.97004 0.70203 0.0
C3934 C 0.77676 0.98476 0.68739 0.0
C3935 C 0.77394 0.00303 0.68742 0.0
C3936 C 0.76314 0.00658 0.70205 0.0
C3937 C 0.75909 0.06702 0.7907 0.0
C3938 C 0.75979 0.08313 0.77901 0.0
C3939 C 0.75553 0.04697 0.78319 0.0
C3940 C 0.75255 0.04286 0.76397 0.0
C3941 C 0.75523 0.05968 0.75226 0.0
C3942 C 0.75888 0.07965 0.75969 0.0
C3943 C 0.74294 0.02024 0.75619 0.0
C3944 C 0.75337 0.01604 0.74151 0.0
C3945 C 0.72222 0.00344 0.7619 0.0
C3946 C 0.70949 0.00744 0.77609 0.0
C3947 C 0.70273 0.02277 0.77301 0.0
C3948 C 0.69098 0.02668 0.78655 0.0
C3949 C 0.68572 0.01519 0.80313 0.0
C3950 C 0.69214 -0.00028 0.80618 0.0
C3951 C 0.70394 0.9958 0.7927 0.0
H3952 H 0.67662 0.01823 0.81359 0.0
H3953 H 0.78511 0.98204 0.67605 0.0
H3954 H 0.30306 0.90683 0.25853 0.0
H3955 H 0.3206 0.94696 0.25853 0.0
H3956 H 0.26852 0.9419 0.22421 0.0
H3957 H 0.25168 0.90161 0.22323 0.0
H3958 H 0.30345 0.97516 0.21399 0.0
H3959 H 0.27106 0.95161 0.27251 0.0
H3960 H 0.26185 0.93141 0.30181 0.0
H3961 H 0.3291 0.96733 0.31859 0.0
H3962 H 0.33878 0.9875 0.28926 0.0
H3963 H 0.34786 0.08661 0.27185 0.0
H3964 H 0.32375 0.04664 0.26888 0.0
H3965 H 0.36381 0.04445 0.22493 0.0
H3966 H 0.38713 0.08448 0.22719 0.0
H3967 H 0.3286 0.0146 0.27464 0.0
H3968 H 0.33639 0.00319 0.19492 0.0
H3969 H 0.33963 0.02297 0.16613 0.0
H3970 H 0.31074 0.0569 0.19275 0.0
H3971 H 0.30704 0.0371 0.22162 0.0
C3972 C 0.29549 0.91434 0.25088 0.0
C3973 C 0.27598 0.9013 0.24105 0.0
C3974 C 0.3054 0.93724 0.25098 0.0
C3975 C 0.29552 0.94744 0.24185 0.0
C3976 C 0.27636 0.93439 0.23147 0.0
C3977 C 0.26675 0.91144 0.23092 0.0
C3978 C 0.30514 0.97168 0.24345 0.0
C3979 C 0.30886 0.9838 0.22725 0.0
C3980 C 0.3114 0.98292 0.26083 0.0
C3981 C 0.30566 0.97098 0.27861 0.0
C3982 C 0.28391 0.95512 0.2824 0.0
C3983 C 0.2786 0.94367 0.29902 0.0
C3984 C 0.29489 0.94806 0.31204 0.0
C3985 C 0.3165 0.96394 0.30849 0.0
C3986 C 0.32191 0.97541 0.29187 0.0
C3987 C 0.35138 0.07755 0.26149 0.0
C3988 C 0.36921 0.08853 0.24966 0.0
C3989 C 0.33763 0.05474 0.25981 0.0
C3990 C 0.34172 0.04252 0.24647 0.0
C3991 C 0.35988 0.05353 0.23494 0.0
C3992 C 0.37332 0.07638 0.23633 0.0
C3993 C 0.3276 0.01819 0.24511 0.0
C3994 C 0.32299 0.00602 0.26138 0.0
C3995 C 0.31958 0.00691 0.22789 0.0
C3996 C 0.32161 0.01877 0.2105 0.0
C3997 C 0.33064 0.01479 0.19461 0.0
C3998 C 0.33257 0.02603 0.17828 0.0
C3999 C 0.32546 0.04123 0.17763 0.0
C4000 C 0.31632 0.04518 0.19329 0.0
C4001 C 0.31433 0.03397 0.20966 0.0
H4002 H 0.32698 0.04991 0.16497 0.0
H4003 H 0.29075 0.93919 0.32491 0.0
H4004 H 0.91641 0.3184 0.22881 0.0
H4005 H 0.95386 0.32743 0.22624 0.0
H4006 H 0.94365 0.28005 0.26797 0.0
H4007 H 0.90546 0.27071 0.27078 0.0
H4008 H 0.98213 0.3205 0.2734 0.0
H4009 H 0.95022 0.26752 0.22525 0.0
H4010 H 0.92613 0.24789 0.19857 0.0
H4011 H 0.96014 0.30606 0.16595 0.0
H4012 H 0.98433 0.32615 0.19251 0.0
H4013 H 0.09298 0.35695 0.25121 0.0
H4014 H 0.05409 0.32875 0.25195 0.0
H4015 H 0.03894 0.37084 0.22035 0.0
H4016 H 0.07766 0.39932 0.22022 0.0
H4017 H 0.01288 0.32265 0.2112 0.0
H4018 H 0.03745 0.37628 0.26323 0.0
H4019 H 0.06155 0.3954 0.29009 0.0
H4020 H 0.04086 0.33311 0.31547 0.0
H4021 H 0.01686 0.31363 0.2886 0.0
C4022 C 0.9219 0.30975 0.23751 0.0
C4023 C 0.90775 0.29374 0.25002 0.0
C4024 C 0.94341 0.31487 0.23589 0.0
C4025 C 0.95148 0.30415 0.24665 0.0
C4026 C 0.93766 0.28837 0.25941 0.0
C4027 C 0.91587 0.28307 0.26098 0.0
C4028 C 0.97467 0.31047 0.24469 0.0
C4029 C 0.98878 0.32032 0.25992 0.0
C4030 C 0.98341 0.31036 0.22708 0.0
C4031 C 0.96907 0.29838 0.21093 0.0
C4032 C 0.9525 0.27618 0.21242 0.0
C4033 C 0.93882 0.26496 0.19731 0.0
C4034 C 0.94157 0.27573 0.18058 0.0
C4035 C 0.95805 0.29773 0.17892 0.0
C4036 C 0.97179 0.30903 0.19399 0.0
C4037 C 0.08136 0.35976 0.24387 0.0
C4038 C 0.08814 0.38004 0.23543 0.0
C4039 C 0.05921 0.34375 0.24438 0.0
C4040 C 0.0437 0.34778 0.23623 0.0
C4041 C 0.0507 0.36741 0.22662 0.0
C4042 C 0.07275 0.3836 0.22648 0.0
C4043 C 0.02017 0.33321 0.23974 0.0
C4044 C 0.00609 0.32202 0.22478 0.0
C4045 C 0.01145 0.33181 0.25762 0.0
C4046 C 0.02558 0.34351 0.27386 0.0
C4047 C 0.03817 0.36667 0.27449 0.0
C4048 C 0.05179 0.37757 0.28971 0.0
C4049 C 0.05278 0.36548 0.30446 0.0
C4050 C 0.04011 0.34246 0.30403 0.0
C4051 C 0.02649 0.33148 0.28881 0.0
H4052 H 0.06332 0.37396 0.31624 0.0
H4053 H 0.93094 0.26702 0.16891 0.0
H4054 H 0.68817 0.60866 0.28063 0.0
H4055 H 0.67088 0.6312 0.2791 0.0
H4056 H 0.70103 0.65602 0.22633 0.0
H4057 H 0.71796 0.63317 0.22771 0.0
H4058 H 0.69546 0.68762 0.25064 0.0
H4059 H 0.65649 0.61443 0.22277 0.0
H4060 H 0.64113 0.57414 0.22275 0.0
H4061 H 0.60049 0.56864 0.26868 0.0
H4062 H 0.61597 0.609 0.26921 0.0
H4063 H 0.61578 0.71312 0.21743 0.0
H4064 H 0.64113 0.69917 0.21871 0.0
H4065 H 0.60628 0.65904 0.26519 0.0
H4066 H 0.58082 0.67222 0.26375 0.0
H4067 H 0.61603 0.63636 0.24219 0.0
H4068 H 0.65383 0.70954 0.26956 0.0
H4069 H 0.66936 0.74983 0.26974 0.0
H4070 H 0.71259 0.75589 0.22586 0.0
H4071 H 0.69678 0.71552 0.22492 0.0
C4072 C 0.69189 0.61975 0.26918 0.0
C4073 C 0.70451 0.61948 0.25439 0.0
C4074 C 0.68193 0.63248 0.26824 0.0
C4075 C 0.68459 0.64511 0.25253 0.0
C4076 C 0.6989 0.64648 0.23859 0.0
C4077 C 0.70859 0.6335 0.23941 0.0
C4078 C 0.66974 0.65368 0.24919 0.0
C4079 C 0.67811 0.6765 0.24863 0.0
C4080 C 0.64714 0.63906 0.24662 0.0
C4081 C 0.63756 0.61476 0.24615 0.0
C4082 C 0.64443 0.60466 0.23297 0.0
C4083 C 0.63569 0.58181 0.23286 0.0
C4084 C 0.61987 0.56885 0.24572 0.0
C4085 C 0.61276 0.57871 0.25873 0.0
C4086 C 0.62152 0.60157 0.25895 0.0
C4087 C 0.61343 0.70117 0.2278 0.0
C4088 C 0.59629 0.69393 0.24053 0.0
C4089 C 0.628 0.69332 0.22859 0.0
C4090 C 0.6258 0.67829 0.24223 0.0
C4091 C 0.60838 0.67066 0.25457 0.0
C4092 C 0.59381 0.67831 0.25372 0.0
C4093 C 0.64156 0.67048 0.24404 0.0
C4094 C 0.63336 0.64763 0.24419 0.0
C4095 C 0.66427 0.68514 0.2463 0.0
C4096 C 0.67392 0.70945 0.24701 0.0
C4097 C 0.6665 0.71942 0.25982 0.0
C4098 C 0.67538 0.74228 0.26009 0.0
C4099 C 0.69197 0.75541 0.24787 0.0
C4100 C 0.69971 0.74569 0.23532 0.0
C4101 C 0.69075 0.72281 0.23487 0.0
H4102 H 0.69884 0.77312 0.24813 0.0
H4103 H 0.61304 0.55115 0.24555 0.0
loop_
_geom_bond_atom_site_label_1
_geom_bond_atom_site_label_2
_geom_bond_distance
_geom_bond_site_symmetry_2
_ccdc_geom_bond_type
Co0 O1 2.216 . S
Co0 O2 2.091 . S
Co0 O4 2.004 . S
Co0 O10 2.021 . S
Co0 O12 2.137 . S
Co0 O13 2.244 . S
O1 Co0 2.216 . S
O1 C8 1.247 . S
O2 Co0 2.091 . S
O2 C8 1.261 . S
C3 O12 1.247 . S
C3 O13 1.272 . S
O4 Co0 2.004 . S
O4 C9 1.259 . S
Co5 O6 2.061 . S
Co5 O11 2.052 . S
Co5 O13 2.135 . S
O6 Co5 2.061 . S
O6 C9 1.235 . S
C7 O10 1.238 . S
C7 O11 1.241 . S
C8 O1 1.247 . S
C8 O2 1.261 . S
C9 O4 1.259 . S
C9 O6 1.235 . S
O10 Co0 2.021 . S
O10 C7 1.238 . S
O11 Co5 2.052 . S
O11 C7 1.241 . S
O12 Co0 2.137 . S
O12 C3 1.247 . S
O13 Co0 2.244 . S
O13 C3 1.272 . S
O13 Co5 2.135 . S
Co14 O15 2.216 . S
Co14 O16 2.091 . S
Co14 O18 2.004 . S
Co14 O24 2.021 . S
Co14 O26 2.137 . S
Co14 O27 2.244 . S
O15 Co14 2.216 . S
O15 C22 1.247 . S
O16 Co14 2.091 . S
O16 C22 1.261 . S
C17 O26 1.247 . S
C17 O27 1.272 . S
O18 Co14 2.004 . S
O18 C23 1.259 . S
Co19 O20 2.061 . S
Co19 O25 2.052 . S
Co19 O27 2.135 . S
O20 Co19 2.061 . S
O20 C23 1.235 . S
C21 O24 1.238 . S
C21 O25 1.241 . S
C22 O15 1.247 . S
C22 O16 1.261 . S
C23 O18 1.259 . S
C23 O20 1.235 . S
O24 Co14 2.021 . S
O24 C21 1.238 . S
O25 Co19 2.052 . S
O25 C21 1.241 . S
O26 Co14 2.137 . S
O26 C17 1.247 . S
O27 Co14 2.244 . S
O27 C17 1.272 . S
O27 Co19 2.135 . S
Co28 O29 2.216 . S
Co28 O30 2.091 . S
Co28 O32 2.004 . S
Co28 O38 2.021 . S
Co28 O40 2.137 . S
Co28 O41 2.244 . S
O29 Co28 2.216 . S
O29 C36 1.247 . S
O30 Co28 2.091 . S
O30 C36 1.261 . S
C31 O40 1.247 . S
C31 O41 1.272 . S
O32 Co28 2.004 . S
O32 C37 1.259 . S
Co33 O34 2.061 . S
Co33 O39 2.052 . S
Co33 O41 2.135 . S
O34 Co33 2.061 . S
O34 C37 1.235 . S
C35 O38 1.238 . S
C35 O39 1.241 . S
C36 O29 1.247 . S
C36 O30 1.261 . S
C37 O32 1.259 . S
C37 O34 1.235 . S
O38 Co28 2.021 . S
O38 C35 1.238 . S
O39 Co33 2.052 . S
O39 C35 1.241 . S
O40 Co28 2.137 . S
O40 C31 1.247 . S
O41 Co28 2.244 . S
O41 C31 1.272 . S
O41 Co33 2.135 . S
Co42 O43 2.216 . S
Co42 O44 2.091 . S
Co42 O46 2.004 . S
Co42 O52 2.021 . S
Co42 O54 2.137 . S
Co42 O55 2.244 . S
O43 Co42 2.216 . S
O43 C50 1.247 . S
O44 Co42 2.091 . S
O44 C50 1.261 . S
C45 O54 1.247 . S
C45 O55 1.272 . S
O46 Co42 2.004 . S
O46 C51 1.259 . S
Co47 O48 2.061 . S
Co47 O53 2.052 . S
Co47 O55 2.135 . S
O48 Co47 2.061 . S
O48 C51 1.235 . S
C49 O52 1.238 . S
C49 O53 1.241 . S
C50 O43 1.247 . S
C50 O44 1.261 . S
C51 O46 1.259 . S
C51 O48 1.235 . S
O52 Co42 2.021 . S
O52 C49 1.238 . S
O53 Co47 2.052 . S
O53 C49 1.241 . S
O54 Co42 2.137 . S
O54 C45 1.247 . S
O55 Co42 2.244 . S
O55 C45 1.272 . S
O55 Co47 2.135 . S
Co56 O57 2.216 . S
Co56 O58 2.091 . S
Co56 O60 2.004 . S
Co56 O66 2.021 . S
Co56 O68 2.137 . S
Co56 O69 2.244 . S
O57 Co56 2.216 . S
O57 C64 1.247 . S
O58 Co56 2.091 . S
O58 C64 1.261 . S
C59 O68 1.247 . S
C59 O69 1.272 . S
O60 Co56 2.004 . S
O60 C65 1.259 . S
Co61 O62 2.061 . S
Co61 O67 2.052 . S
Co61 O69 2.135 . S
O62 Co61 2.061 . S
O62 C65 1.235 . S
C63 O66 1.238 . S
C63 O67 1.241 . S
C64 O57 1.247 . S
C64 O58 1.261 . S
C65 O60 1.259 . S
C65 O62 1.235 . S
O66 Co56 2.021 . S
O66 C63 1.238 . S
O67 Co61 2.052 . S
O67 C63 1.241 . S
O68 Co56 2.137 . S
O68 C59 1.247 . S
O69 Co56 2.244 . S
O69 C59 1.272 . S
O69 Co61 2.135 . S
Co70 O71 2.216 . S
Co70 O72 2.091 . S
Co70 O74 2.004 . S
Co70 O80 2.021 . S
Co70 O82 2.137 . S
Co70 O83 2.244 . S
O71 Co70 2.216 . S
O71 C78 1.247 . S
O72 Co70 2.091 . S
O72 C78 1.261 . S
C73 O82 1.247 . S
C73 O83 1.272 . S
O74 Co70 2.004 . S
O74 C79 1.259 . S
Co75 O76 2.061 . S
Co75 O81 2.052 . S
Co75 O83 2.135 . S
O76 Co75 2.061 . S
O76 C79 1.235 . S
C77 O80 1.238 . S
C77 O81 1.241 . S
C78 O71 1.247 . S
C78 O72 1.261 . S
C79 O74 1.259 . S
C79 O76 1.235 . S
O80 Co70 2.021 . S
O80 C77 1.238 . S
O81 Co75 2.052 . S
O81 C77 1.241 . S
O82 Co70 2.137 . S
O82 C73 1.247 . S
O83 Co70 2.244 . S
O83 C73 1.272 . S
O83 Co75 2.135 . S
Co84 O85 2.216 . S
Co84 O86 2.091 . S
Co84 O88 2.004 . S
Co84 O94 2.021 . S
Co84 O96 2.137 . S
Co84 O97 2.244 . S
O85 Co84 2.216 . S
O85 C92 1.247 . S
O86 Co84 2.091 . S
O86 C92 1.261 . S
C87 O96 1.247 . S
C87 O97 1.272 . S
O88 Co84 2.004 . S
O88 C93 1.259 . S
Co89 O90 2.061 . S
Co89 O95 2.052 . S
Co89 O97 2.135 . S
O90 Co89 2.061 . S
O90 C93 1.235 . S
C91 O94 1.238 . S
C91 O95 1.241 . S
C92 O85 1.247 . S
C92 O86 1.261 . S
C93 O88 1.259 . S
C93 O90 1.235 . S
O94 Co84 2.021 . S
O94 C91 1.238 . S
O95 Co89 2.052 . S
O95 C91 1.241 . S
O96 Co84 2.137 . S
O96 C87 1.247 . S
O97 Co84 2.244 . S
O97 C87 1.272 . S
O97 Co89 2.135 . S
Co98 O99 2.216 . S
Co98 O100 2.091 . S
Co98 O102 2.004 . S
Co98 O108 2.021 . S
Co98 O110 2.137 . S
Co98 O111 2.244 . S
O99 Co98 2.216 . S
O99 C106 1.247 . S
O100 Co98 2.091 . S
O100 C106 1.261 . S
C101 O110 1.247 . S
C101 O111 1.272 . S
O102 Co98 2.004 . S
O102 C107 1.259 . S
Co103 O104 2.061 . S
Co103 O109 2.052 . S
Co103 O111 2.135 . S
O104 Co103 2.061 . S
O104 C107 1.235 . S
C105 O108 1.238 . S
C105 O109 1.241 . S
C106 O99 1.247 . S
C106 O100 1.261 . S
C107 O102 1.259 . S
C107 O104 1.235 . S
O108 Co98 2.021 . S
O108 C105 1.238 . S
O109 Co103 2.052 . S
O109 C105 1.241 . S
O110 Co98 2.137 . S
O110 C101 1.247 . S
O111 Co98 2.244 . S
O111 C101 1.272 . S
O111 Co103 2.135 . S
Co112 O113 2.216 . S
Co112 O114 2.091 . S
Co112 O116 2.004 . S
Co112 O122 2.021 . S
Co112 O124 2.137 . S
Co112 O125 2.244 . S
O113 Co112 2.216 . S
O113 C120 1.247 . S
O114 Co112 2.091 . S
O114 C120 1.261 . S
C115 O124 1.247 . S
C115 O125 1.272 . S
O116 Co112 2.004 . S
O116 C121 1.259 . S
Co117 O118 2.061 . S
Co117 O123 2.052 . S
Co117 O125 2.135 . S
O118 Co117 2.061 . S
O118 C121 1.235 . S
C119 O122 1.238 . S
C119 O123 1.241 . S
C120 O113 1.247 . S
C120 O114 1.261 . S
C121 O116 1.259 . S
C121 O118 1.235 . S
O122 Co112 2.021 . S
O122 C119 1.238 . S
O123 Co117 2.052 . S
O123 C119 1.241 . S
O124 Co112 2.137 . S
O124 C115 1.247 . S
O125 Co112 2.244 . S
O125 C115 1.272 . S
O125 Co117 2.135 . S
Co126 O127 2.216 . S
Co126 O128 2.091 . S
Co126 O130 2.004 . S
Co126 O136 2.021 . S
Co126 O138 2.137 . S
Co126 O139 2.244 . S
O127 Co126 2.216 . S
O127 C134 1.247 . S
O128 Co126 2.091 . S
O128 C134 1.261 . S
C129 O138 1.247 . S
C129 O139 1.272 . S
O130 Co126 2.004 . S
O130 C135 1.259 . S
Co131 O132 2.061 . S
Co131 O137 2.052 . S
Co131 O139 2.135 . S
O132 Co131 2.061 . S
O132 C135 1.235 . S
C133 O136 1.238 . S
C133 O137 1.241 . S
C134 O127 1.247 . S
C134 O128 1.261 . S
C135 O130 1.259 . S
C135 O132 1.235 . S
O136 Co126 2.021 . S
O136 C133 1.238 . S
O137 Co131 2.052 . S
O137 C133 1.241 . S
O138 Co126 2.137 . S
O138 C129 1.247 . S
O139 Co126 2.244 . S
O139 C129 1.272 . S
O139 Co131 2.135 . S
Co140 O141 2.216 . S
Co140 O142 2.091 . S
Co140 O144 2.004 . S
Co140 O150 2.021 . S
Co140 O152 2.137 . S
Co140 O153 2.244 . S
O141 Co140 2.216 . S
O141 C148 1.247 . S
O142 Co140 2.091 . S
O142 C148 1.261 . S
C143 O152 1.247 . S
C143 O153 1.272 . S
O144 Co140 2.004 . S
O144 C149 1.259 . S
Co145 O146 2.061 . S
Co145 O151 2.052 . S
Co145 O153 2.135 . S
O146 Co145 2.061 . S
O146 C149 1.235 . S
C147 O150 1.238 . S
C147 O151 1.241 . S
C148 O141 1.247 . S
C148 O142 1.261 . S
C149 O144 1.259 . S
C149 O146 1.235 . S
O150 Co140 2.021 . S
O150 C147 1.238 . S
O151 Co145 2.052 . S
O151 C147 1.241 . S
O152 Co140 2.137 . S
O152 C143 1.247 . S
O153 Co140 2.244 . S
O153 C143 1.272 . S
O153 Co145 2.135 . S
Co154 O155 2.216 . S
Co154 O156 2.091 . S
Co154 O158 2.004 . S
Co154 O164 2.021 . S
Co154 O166 2.137 . S
Co154 O167 2.244 . S
O155 Co154 2.216 . S
O155 C162 1.247 . S
O156 Co154 2.091 . S
O156 C162 1.261 . S
C157 O166 1.247 . S
C157 O167 1.272 . S
O158 Co154 2.004 . S
O158 C163 1.259 . S
Co159 O160 2.061 . S
Co159 O165 2.052 . S
Co159 O167 2.135 . S
O160 Co159 2.061 . S
O160 C163 1.235 . S
C161 O164 1.238 . S
C161 O165 1.241 . S
C162 O155 1.247 . S
C162 O156 1.261 . S
C163 O158 1.259 . S
C163 O160 1.235 . S
O164 Co154 2.021 . S
O164 C161 1.238 . S
O165 Co159 2.052 . S
O165 C161 1.241 . S
O166 Co154 2.137 . S
O166 C157 1.247 . S
O167 Co154 2.244 . S
O167 C157 1.272 . S
O167 Co159 2.135 . S
Co168 O169 2.216 . S
Co168 O170 2.091 . S
Co168 O172 2.004 . S
Co168 O178 2.021 . S
Co168 O180 2.137 . S
Co168 O181 2.244 . S
O169 Co168 2.216 . S
O169 C176 1.247 . S
O170 Co168 2.091 . S
O170 C176 1.261 . S
C171 O180 1.247 . S
C171 O181 1.272 . S
O172 Co168 2.004 . S
O172 C177 1.259 . S
Co173 O174 2.061 . S
Co173 O179 2.052 . S
Co173 O181 2.135 . S
O174 Co173 2.061 . S
O174 C177 1.235 . S
C175 O178 1.238 . S
C175 O179 1.241 . S
C176 O169 1.247 . S
C176 O170 1.261 . S
C177 O172 1.259 . S
C177 O174 1.235 . S
O178 Co168 2.021 . S
O178 C175 1.238 . S
O179 Co173 2.052 . S
O179 C175 1.241 . S
O180 Co168 2.137 . S
O180 C171 1.247 . S
O181 Co168 2.244 . S
O181 C171 1.272 . S
O181 Co173 2.135 . S
Co182 O183 2.216 . S
Co182 O184 2.091 . S
Co182 O186 2.004 . S
Co182 O192 2.021 . S
Co182 O194 2.137 . S
Co182 O195 2.244 . S
O183 Co182 2.216 . S
O183 C190 1.247 . S
O184 Co182 2.091 . S
O184 C190 1.261 . S
C185 O194 1.247 . S
C185 O195 1.272 . S
O186 Co182 2.004 . S
O186 C191 1.259 . S
Co187 O188 2.061 . S
Co187 O193 2.052 . S
Co187 O195 2.135 . S
O188 Co187 2.061 . S
O188 C191 1.235 . S
C189 O192 1.238 . S
C189 O193 1.241 . S
C190 O183 1.247 . S
C190 O184 1.261 . S
C191 O186 1.259 . S
C191 O188 1.235 . S
O192 Co182 2.021 . S
O192 C189 1.238 . S
O193 Co187 2.052 . S
O193 C189 1.241 . S
O194 Co182 2.137 . S
O194 C185 1.247 . S
O195 Co182 2.244 . S
O195 C185 1.272 . S
O195 Co187 2.135 . S
Co196 O197 2.216 . S
Co196 O198 2.091 . S
Co196 O200 2.004 . S
Co196 O206 2.021 . S
Co196 O208 2.137 . S
Co196 O209 2.244 . S
O197 Co196 2.216 . S
O197 C204 1.247 . S
O198 Co196 2.091 . S
O198 C204 1.261 . S
C199 O208 1.247 . S
C199 O209 1.272 . S
O200 Co196 2.004 . S
O200 C205 1.259 . S
Co201 O202 2.061 . S
Co201 O207 2.052 . S
Co201 O209 2.135 . S
O202 Co201 2.061 . S
O202 C205 1.235 . S
C203 O206 1.238 . S
C203 O207 1.241 . S
C204 O197 1.247 . S
C204 O198 1.261 . S
C205 O200 1.259 . S
C205 O202 1.235 . S
O206 Co196 2.021 . S
O206 C203 1.238 . S
O207 Co201 2.052 . S
O207 C203 1.241 . S
O208 Co196 2.137 . S
O208 C199 1.247 . S
O209 Co196 2.244 . S
O209 C199 1.272 . S
O209 Co201 2.135 . S
Co210 O211 2.216 . S
Co210 O212 2.091 . S
Co210 O214 2.004 . S
Co210 O220 2.021 . S
Co210 O222 2.137 . S
Co210 O223 2.244 . S
O211 Co210 2.216 . S
O211 C218 1.247 . S
O212 Co210 2.091 . S
O212 C218 1.261 . S
C213 O222 1.247 . S
C213 O223 1.272 . S
O214 Co210 2.004 . S
O214 C219 1.259 . S
Co215 O216 2.061 . S
Co215 O221 2.052 . S
Co215 O223 2.135 . S
O216 Co215 2.061 . S
O216 C219 1.235 . S
C217 O220 1.238 . S
C217 O221 1.241 . S
C218 O211 1.247 . S
C218 O212 1.261 . S
C219 O214 1.259 . S
C219 O216 1.235 . S
O220 Co210 2.021 . S
O220 C217 1.238 . S
O221 Co215 2.052 . S
O221 C217 1.241 . S
O222 Co210 2.137 . S
O222 C213 1.247 . S
O223 Co210 2.244 . S
O223 C213 1.272 . S
O223 Co215 2.135 . S
Co224 O225 2.216 . S
Co224 O226 2.091 . S
Co224 O228 2.004 . S
Co224 O234 2.021 . S
Co224 O236 2.137 . S
Co224 O237 2.244 . S
O225 Co224 2.216 . S
O225 C232 1.247 . S
O226 Co224 2.091 . S
O226 C232 1.261 . S
C227 O236 1.247 . S
C227 O237 1.272 . S
O228 Co224 2.004 . S
O228 C233 1.259 . S
Co229 O230 2.061 . S
Co229 O235 2.052 . S
Co229 O237 2.135 . S
O230 Co229 2.061 . S
O230 C233 1.235 . S
C231 O234 1.238 . S
C231 O235 1.241 . S
C232 O225 1.247 . S
C232 O226 1.261 . S
C233 O228 1.259 . S
C233 O230 1.235 . S
O234 Co224 2.021 . S
O234 C231 1.238 . S
O235 Co229 2.052 . S
O235 C231 1.241 . S
O236 Co224 2.137 . S
O236 C227 1.247 . S
O237 Co224 2.244 . S
O237 C227 1.272 . S
O237 Co229 2.135 . S
Co238 O239 2.216 . S
Co238 O240 2.091 . S
Co238 O242 2.004 . S
Co238 O248 2.021 . S
Co238 O250 2.137 . S
Co238 O251 2.244 . S
O239 Co238 2.216 . S
O239 C246 1.247 . S
O240 Co238 2.091 . S
O240 C246 1.261 . S
C241 O250 1.247 . S
C241 O251 1.272 . S
O242 Co238 2.004 . S
O242 C247 1.259 . S
Co243 O244 2.061 . S
Co243 O249 2.052 . S
Co243 O251 2.135 . S
O244 Co243 2.061 . S
O244 C247 1.235 . S
C245 O248 1.238 . S
C245 O249 1.241 . S
C246 O239 1.247 . S
C246 O240 1.261 . S
C247 O242 1.259 . S
C247 O244 1.235 . S
O248 Co238 2.021 . S
O248 C245 1.238 . S
O249 Co243 2.052 . S
O249 C245 1.241 . S
O250 Co238 2.137 . S
O250 C241 1.247 . S
O251 Co238 2.244 . S
O251 C241 1.272 . S
O251 Co243 2.135 . S
Co252 O253 2.216 . S
Co252 O254 2.091 . S
Co252 O256 2.004 . S
Co252 O262 2.021 . S
Co252 O264 2.137 . S
Co252 O265 2.244 . S
O253 Co252 2.216 . S
O253 C260 1.247 . S
O254 Co252 2.091 . S
O254 C260 1.261 . S
C255 O264 1.247 . S
C255 O265 1.272 . S
O256 Co252 2.004 . S
O256 C261 1.259 . S
Co257 O258 2.061 . S
Co257 O263 2.052 . S
Co257 O265 2.135 . S
O258 Co257 2.061 . S
O258 C261 1.235 . S
C259 O262 1.238 . S
C259 O263 1.241 . S
C260 O253 1.247 . S
C260 O254 1.261 . S
C261 O256 1.259 . S
C261 O258 1.235 . S
O262 Co252 2.021 . S
O262 C259 1.238 . S
O263 Co257 2.052 . S
O263 C259 1.241 . S
O264 Co252 2.137 . S
O264 C255 1.247 . S
O265 Co252 2.244 . S
O265 C255 1.272 . S
O265 Co257 2.135 . S
Co266 O267 2.216 . S
Co266 O268 2.091 . S
Co266 O270 2.004 . S
Co266 O276 2.021 . S
Co266 O278 2.137 . S
Co266 O279 2.244 . S
O267 Co266 2.216 . S
O267 C274 1.247 . S
O268 Co266 2.091 . S
O268 C274 1.261 . S
C269 O278 1.247 . S
C269 O279 1.272 . S
O270 Co266 2.004 . S
O270 C275 1.259 . S
Co271 O272 2.061 . S
Co271 O277 2.052 . S
Co271 O279 2.135 . S
O272 Co271 2.061 . S
O272 C275 1.235 . S
C273 O276 1.238 . S
C273 O277 1.241 . S
C274 O267 1.247 . S
C274 O268 1.261 . S
C275 O270 1.259 . S
C275 O272 1.235 . S
O276 Co266 2.021 . S
O276 C273 1.238 . S
O277 Co271 2.052 . S
O277 C273 1.241 . S
O278 Co266 2.137 . S
O278 C269 1.247 . S
O279 Co266 2.244 . S
O279 C269 1.272 . S
O279 Co271 2.135 . S
Co280 O281 2.216 . S
Co280 O282 2.091 . S
Co280 O284 2.004 . S
Co280 O290 2.021 . S
Co280 O292 2.137 . S
Co280 O293 2.244 . S
O281 Co280 2.216 . S
O281 C288 1.247 . S
O282 Co280 2.091 . S
O282 C288 1.261 . S
C283 O292 1.247 . S
C283 O293 1.272 . S
O284 Co280 2.004 . S
O284 C289 1.259 . S
Co285 O286 2.061 . S
Co285 O291 2.052 . S
Co285 O293 2.135 . S
O286 Co285 2.061 . S
O286 C289 1.235 . S
C287 O290 1.238 . S
C287 O291 1.241 . S
C288 O281 1.247 . S
C288 O282 1.261 . S
C289 O284 1.259 . S
C289 O286 1.235 . S
O290 Co280 2.021 . S
O290 C287 1.238 . S
O291 Co285 2.052 . S
O291 C287 1.241 . S
O292 Co280 2.137 . S
O292 C283 1.247 . S
O293 Co280 2.244 . S
O293 C283 1.272 . S
O293 Co285 2.135 . S
Co294 O295 2.216 . S
Co294 O296 2.091 . S
Co294 O298 2.004 . S
Co294 O304 2.021 . S
Co294 O306 2.137 . S
Co294 O307 2.244 . S
O295 Co294 2.216 . S
O295 C302 1.247 . S
O296 Co294 2.091 . S
O296 C302 1.261 . S
C297 O306 1.247 . S
C297 O307 1.272 . S
O298 Co294 2.004 . S
O298 C303 1.259 . S
Co299 O300 2.061 . S
Co299 O305 2.052 . S
Co299 O307 2.135 . S
O300 Co299 2.061 . S
O300 C303 1.235 . S
C301 O304 1.238 . S
C301 O305 1.241 . S
C302 O295 1.247 . S
C302 O296 1.261 . S
C303 O298 1.259 . S
C303 O300 1.235 . S
O304 Co294 2.021 . S
O304 C301 1.238 . S
O305 Co299 2.052 . S
O305 C301 1.241 . S
O306 Co294 2.137 . S
O306 C297 1.247 . S
O307 Co294 2.244 . S
O307 C297 1.272 . S
O307 Co299 2.135 . S
Co308 O309 2.216 . S
Co308 O310 2.091 . S
Co308 O312 2.004 . S
Co308 O318 2.021 . S
Co308 O320 2.137 . S
Co308 O321 2.244 . S
O309 Co308 2.216 . S
O309 C316 1.247 . S
O310 Co308 2.091 . S
O310 C316 1.261 . S
C311 O320 1.247 . S
C311 O321 1.272 . S
O312 Co308 2.004 . S
O312 C317 1.259 . S
Co313 O314 2.061 . S
Co313 O319 2.052 . S
Co313 O321 2.135 . S
O314 Co313 2.061 . S
O314 C317 1.235 . S
C315 O318 1.238 . S
C315 O319 1.241 . S
C316 O309 1.247 . S
C316 O310 1.261 . S
C317 O312 1.259 . S
C317 O314 1.235 . S
O318 Co308 2.021 . S
O318 C315 1.238 . S
O319 Co313 2.052 . S
O319 C315 1.241 . S
O320 Co308 2.137 . S
O320 C311 1.247 . S
O321 Co308 2.244 . S
O321 C311 1.272 . S
O321 Co313 2.135 . S
Co322 O323 2.216 . S
Co322 O324 2.091 . S
Co322 O326 2.004 . S
Co322 O332 2.021 . S
Co322 O334 2.137 . S
Co322 O335 2.244 . S
O323 Co322 2.216 . S
O323 C330 1.247 . S
O324 Co322 2.091 . S
O324 C330 1.261 . S
C325 O334 1.247 . S
C325 O335 1.272 . S
O326 Co322 2.004 . S
O326 C331 1.259 . S
Co327 O328 2.061 . S
Co327 O333 2.052 . S
Co327 O335 2.135 . S
O328 Co327 2.061 . S
O328 C331 1.235 . S
C329 O332 1.238 . S
C329 O333 1.241 . S
C330 O323 1.247 . S
C330 O324 1.261 . S
C331 O326 1.259 . S
C331 O328 1.235 . S
O332 Co322 2.021 . S
O332 C329 1.238 . S
O333 Co327 2.052 . S
O333 C329 1.241 . S
O334 Co322 2.137 . S
O334 C325 1.247 . S
O335 Co322 2.244 . S
O335 C325 1.272 . S
O335 Co327 2.135 . S
Co336 O337 2.216 . S
Co336 O338 2.091 . S
Co336 O340 2.004 . S
Co336 O346 2.021 . S
Co336 O348 2.137 . S
Co336 O349 2.244 . S
O337 Co336 2.216 . S
O337 C344 1.247 . S
O338 Co336 2.091 . S
O338 C344 1.261 . S
C339 O348 1.247 . S
C339 O349 1.272 . S
O340 Co336 2.004 . S
O340 C345 1.259 . S
Co341 O342 2.061 . S
Co341 O347 2.052 . S
Co341 O349 2.135 . S
O342 Co341 2.061 . S
O342 C345 1.235 . S
C343 O346 1.238 . S
C343 O347 1.241 . S
C344 O337 1.247 . S
C344 O338 1.261 . S
C345 O340 1.259 . S
C345 O342 1.235 . S
O346 Co336 2.021 . S
O346 C343 1.238 . S
O347 Co341 2.052 . S
O347 C343 1.241 . S
O348 Co336 2.137 . S
O348 C339 1.247 . S
O349 Co336 2.244 . S
O349 C339 1.272 . S
O349 Co341 2.135 . S
Co350 O351 2.216 . S
Co350 O352 2.091 . S
Co350 O354 2.004 . S
Co350 O360 2.021 . S
Co350 O362 2.137 . S
Co350 O363 2.244 . S
O351 Co350 2.216 . S
O351 C358 1.247 . S
O352 Co350 2.091 . S
O352 C358 1.261 . S
C353 O362 1.247 . S
C353 O363 1.272 . S
O354 Co350 2.004 . S
O354 C359 1.259 . S
Co355 O356 2.061 . S
Co355 O361 2.052 . S
Co355 O363 2.135 . S
O356 Co355 2.061 . S
O356 C359 1.235 . S
C357 O360 1.238 . S
C357 O361 1.241 . S
C358 O351 1.247 . S
C358 O352 1.261 . S
C359 O354 1.259 . S
C359 O356 1.235 . S
O360 Co350 2.021 . S
O360 C357 1.238 . S
O361 Co355 2.052 . S
O361 C357 1.241 . S
O362 Co350 2.137 . S
O362 C353 1.247 . S
O363 Co350 2.244 . S
O363 C353 1.272 . S
O363 Co355 2.135 . S
Co364 O365 2.216 . S
Co364 O366 2.091 . S
Co364 O368 2.004 . S
Co364 O374 2.021 . S
Co364 O376 2.137 . S
Co364 O377 2.244 . S
O365 Co364 2.216 . S
O365 C372 1.247 . S
O366 Co364 2.091 . S
O366 C372 1.261 . S
C367 O376 1.247 . S
C367 O377 1.272 . S
O368 Co364 2.004 . S
O368 C373 1.259 . S
Co369 O370 2.061 . S
Co369 O375 2.052 . S
Co369 O377 2.135 . S
O370 Co369 2.061 . S
O370 C373 1.235 . S
C371 O374 1.238 . S
C371 O375 1.241 . S
C372 O365 1.247 . S
C372 O366 1.261 . S
C373 O368 1.259 . S
C373 O370 1.235 . S
O374 Co364 2.021 . S
O374 C371 1.238 . S
O375 Co369 2.052 . S
O375 C371 1.241 . S
O376 Co364 2.137 . S
O376 C367 1.247 . S
O377 Co364 2.244 . S
O377 C367 1.272 . S
O377 Co369 2.135 . S
Co378 O379 2.216 . S
Co378 O380 2.091 . S
Co378 O382 2.004 . S
Co378 O388 2.021 . S
Co378 O390 2.137 . S
Co378 O391 2.244 . S
O379 Co378 2.216 . S
O379 C386 1.247 . S
O380 Co378 2.091 . S
O380 C386 1.261 . S
C381 O390 1.247 . S
C381 O391 1.272 . S
O382 Co378 2.004 . S
O382 C387 1.259 . S
Co383 O384 2.061 . S
Co383 O389 2.052 . S
Co383 O391 2.135 . S
O384 Co383 2.061 . S
O384 C387 1.235 . S
C385 O388 1.238 . S
C385 O389 1.241 . S
C386 O379 1.247 . S
C386 O380 1.261 . S
C387 O382 1.259 . S
C387 O384 1.235 . S
O388 Co378 2.021 . S
O388 C385 1.238 . S
O389 Co383 2.052 . S
O389 C385 1.241 . S
O390 Co378 2.137 . S
O390 C381 1.247 . S
O391 Co378 2.244 . S
O391 C381 1.272 . S
O391 Co383 2.135 . S
Co392 O393 2.216 . S
Co392 O394 2.091 . S
Co392 O396 2.004 . S
Co392 O402 2.021 . S
Co392 O404 2.137 . S
Co392 O405 2.244 . S
O393 Co392 2.216 . S
O393 C400 1.247 . S
O394 Co392 2.091 . S
O394 C400 1.261 . S
C395 O404 1.247 . S
C395 O405 1.272 . S
O396 Co392 2.004 . S
O396 C401 1.259 . S
Co397 O398 2.061 . S
Co397 O403 2.052 . S
Co397 O405 2.135 . S
O398 Co397 2.061 . S
O398 C401 1.235 . S
C399 O402 1.238 . S
C399 O403 1.241 . S
C400 O393 1.247 . S
C400 O394 1.261 . S
C401 O396 1.259 . S
C401 O398 1.235 . S
O402 Co392 2.021 . S
O402 C399 1.238 . S
O403 Co397 2.052 . S
O403 C399 1.241 . S
O404 Co392 2.137 . S
O404 C395 1.247 . S
O405 Co392 2.244 . S
O405 C395 1.272 . S
O405 Co397 2.135 . S
Co406 O407 2.216 . S
Co406 O408 2.091 . S
Co406 O410 2.004 . S
Co406 O416 2.021 . S
Co406 O418 2.137 . S
Co406 O419 2.244 . S
O407 Co406 2.216 . S
O407 C414 1.247 . S
O408 Co406 2.091 . S
O408 C414 1.261 . S
C409 O418 1.247 . S
C409 O419 1.272 . S
O410 Co406 2.004 . S
O410 C415 1.259 . S
Co411 O412 2.061 . S
Co411 O417 2.052 . S
Co411 O419 2.135 . S
O412 Co411 2.061 . S
O412 C415 1.235 . S
C413 O416 1.238 . S
C413 O417 1.241 . S
C414 O407 1.247 . S
C414 O408 1.261 . S
C415 O410 1.259 . S
C415 O412 1.235 . S
O416 Co406 2.021 . S
O416 C413 1.238 . S
O417 Co411 2.052 . S
O417 C413 1.241 . S
O418 Co406 2.137 . S
O418 C409 1.247 . S
O419 Co406 2.244 . S
O419 C409 1.272 . S
O419 Co411 2.135 . S
Co420 O421 2.216 . S
Co420 O422 2.091 . S
Co420 O424 2.004 . S
Co420 O430 2.021 . S
Co420 O432 2.137 . S
Co420 O433 2.244 . S
O421 Co420 2.216 . S
O421 C428 1.247 . S
O422 Co420 2.091 . S
O422 C428 1.261 . S
C423 O432 1.247 . S
C423 O433 1.272 . S
O424 Co420 2.004 . S
O424 C429 1.259 . S
Co425 O426 2.061 . S
Co425 O431 2.052 . S
Co425 O433 2.135 . S
O426 Co425 2.061 . S
O426 C429 1.235 . S
C427 O430 1.238 . S
C427 O431 1.241 . S
C428 O421 1.247 . S
C428 O422 1.261 . S
C429 O424 1.259 . S
C429 O426 1.235 . S
O430 Co420 2.021 . S
O430 C427 1.238 . S
O431 Co425 2.052 . S
O431 C427 1.241 . S
O432 Co420 2.137 . S
O432 C423 1.247 . S
O433 Co420 2.244 . S
O433 C423 1.272 . S
O433 Co425 2.135 . S
Co434 O435 2.216 . S
Co434 O436 2.091 . S
Co434 O438 2.004 . S
Co434 O444 2.021 . S
Co434 O446 2.137 . S
Co434 O447 2.244 . S
O435 Co434 2.216 . S
O435 C442 1.247 . S
O436 Co434 2.091 . S
O436 C442 1.261 . S
C437 O446 1.247 . S
C437 O447 1.272 . S
O438 Co434 2.004 . S
O438 C443 1.259 . S
Co439 O440 2.061 . S
Co439 O445 2.052 . S
Co439 O447 2.135 . S
O440 Co439 2.061 . S
O440 C443 1.235 . S
C441 O444 1.238 . S
C441 O445 1.241 . S
C442 O435 1.247 . S
C442 O436 1.261 . S
C443 O438 1.259 . S
C443 O440 1.235 . S
O444 Co434 2.021 . S
O444 C441 1.238 . S
O445 Co439 2.052 . S
O445 C441 1.241 . S
O446 Co434 2.137 . S
O446 C437 1.247 . S
O447 Co434 2.244 . S
O447 C437 1.272 . S
O447 Co439 2.135 . S
Co448 O449 2.216 . S
Co448 O450 2.091 . S
Co448 O452 2.004 . S
Co448 O458 2.021 . S
Co448 O460 2.137 . S
Co448 O461 2.244 . S
O449 Co448 2.216 . S
O449 C456 1.247 . S
O450 Co448 2.091 . S
O450 C456 1.261 . S
C451 O460 1.247 . S
C451 O461 1.272 . S
O452 Co448 2.004 . S
O452 C457 1.259 . S
Co453 O454 2.061 . S
Co453 O459 2.052 . S
Co453 O461 2.135 . S
O454 Co453 2.061 . S
O454 C457 1.235 . S
C455 O458 1.238 . S
C455 O459 1.241 . S
C456 O449 1.247 . S
C456 O450 1.261 . S
C457 O452 1.259 . S
C457 O454 1.235 . S
O458 Co448 2.021 . S
O458 C455 1.238 . S
O459 Co453 2.052 . S
O459 C455 1.241 . S
O460 Co448 2.137 . S
O460 C451 1.247 . S
O461 Co448 2.244 . S
O461 C451 1.272 . S
O461 Co453 2.135 . S
Co462 O463 2.216 . S
Co462 O464 2.091 . S
Co462 O466 2.004 . S
Co462 O472 2.021 . S
Co462 O474 2.137 . S
Co462 O475 2.244 . S
O463 Co462 2.216 . S
O463 C470 1.247 . S
O464 Co462 2.091 . S
O464 C470 1.261 . S
C465 O474 1.247 . S
C465 O475 1.272 . S
O466 Co462 2.004 . S
O466 C471 1.259 . S
Co467 O468 2.061 . S
Co467 O473 2.052 . S
Co467 O475 2.135 . S
O468 Co467 2.061 . S
O468 C471 1.235 . S
C469 O472 1.238 . S
C469 O473 1.241 . S
C470 O463 1.247 . S
C470 O464 1.261 . S
C471 O466 1.259 . S
C471 O468 1.235 . S
O472 Co462 2.021 . S
O472 C469 1.238 . S
O473 Co467 2.052 . S
O473 C469 1.241 . S
O474 Co462 2.137 . S
O474 C465 1.247 . S
O475 Co462 2.244 . S
O475 C465 1.272 . S
O475 Co467 2.135 . S
Co476 O477 2.216 . S
Co476 O478 2.091 . S
Co476 O480 2.004 . S
Co476 O486 2.021 . S
Co476 O488 2.137 . S
Co476 O489 2.244 . S
O477 Co476 2.216 . S
O477 C484 1.247 . S
O478 Co476 2.091 . S
O478 C484 1.261 . S
C479 O488 1.247 . S
C479 O489 1.272 . S
O480 Co476 2.004 . S
O480 C485 1.259 . S
Co481 O482 2.061 . S
Co481 O487 2.052 . S
Co481 O489 2.135 . S
O482 Co481 2.061 . S
O482 C485 1.235 . S
C483 O486 1.238 . S
C483 O487 1.241 . S
C484 O477 1.247 . S
C484 O478 1.261 . S
C485 O480 1.259 . S
C485 O482 1.235 . S
O486 Co476 2.021 . S
O486 C483 1.238 . S
O487 Co481 2.052 . S
O487 C483 1.241 . S
O488 Co476 2.137 . S
O488 C479 1.247 . S
O489 Co476 2.244 . S
O489 C479 1.272 . S
O489 Co481 2.135 . S
Co490 O491 2.216 . S
Co490 O492 2.091 . S
Co490 O494 2.004 . S
Co490 O500 2.021 . S
Co490 O502 2.137 . S
Co490 O503 2.244 . S
O491 Co490 2.216 . S
O491 C498 1.247 . S
O492 Co490 2.091 . S
O492 C498 1.261 . S
C493 O502 1.247 . S
C493 O503 1.272 . S
O494 Co490 2.004 . S
O494 C499 1.259 . S
Co495 O496 2.061 . S
Co495 O501 2.052 . S
Co495 O503 2.135 . S
O496 Co495 2.061 . S
O496 C499 1.235 . S
C497 O500 1.238 . S
C497 O501 1.241 . S
C498 O491 1.247 . S
C498 O492 1.261 . S
C499 O494 1.259 . S
C499 O496 1.235 . S
O500 Co490 2.021 . S
O500 C497 1.238 . S
O501 Co495 2.052 . S
O501 C497 1.241 . S
O502 Co490 2.137 . S
O502 C493 1.247 . S
O503 Co490 2.244 . S
O503 C493 1.272 . S
O503 Co495 2.135 . S
H504 C522 0.951 . S
H505 C524 0.951 . S
H506 C526 0.950 . S
H507 C527 0.950 . S
H508 C529 0.950 . S
H509 C532 0.950 . S
H510 C533 0.950 . S
H511 C535 0.950 . S
H512 C536 0.950 . S
H513 C537 0.951 . S
H514 C539 0.951 . S
H515 C541 0.950 . S
H516 C542 0.950 . S
H517 C544 0.950 . S
H518 C547 0.950 . S
H519 C548 0.950 . S
H520 C550 0.950 . S
H521 C551 0.950 . S
C522 H504 0.951 . S
C522 C523 1.366 . S
C522 C524 1.388 . S
C523 C522 1.366 . S
C523 C527 1.385 . S
C524 H505 0.951 . S
C524 C522 1.388 . S
C524 C525 1.366 . S
C525 C524 1.366 . S
C525 C526 1.414 . S
C525 C528 1.499 . S
C526 H506 0.950 . S
C526 C525 1.414 . S
C526 C527 1.374 . S
C527 H507 0.950 . S
C527 C523 1.385 . S
C527 C526 1.374 . S
C528 C525 1.499 . S
C528 C529 1.373 . S
C528 C530 1.389 . S
C529 H508 0.950 . S
C529 C528 1.373 . S
C529 C545 1.377 . S
C530 C528 1.389 . S
C530 C531 1.524 . S
C530 C544 1.377 . S
C531 C530 1.524 . S
C531 C532 1.397 . S
C531 C536 1.363 . S
C532 H509 0.950 . S
C532 C531 1.397 . S
C532 C533 1.334 . S
C533 H510 0.950 . S
C533 C532 1.334 . S
C533 C534 1.287 . S
C534 C533 1.287 . S
C534 C535 1.524 . S
C534 H553 0.913 . S
C535 H511 0.950 . S
C535 C534 1.524 . S
C535 C536 1.415 . S
C536 H512 0.950 . S
C536 C531 1.363 . S
C536 C535 1.415 . S
C537 H513 0.951 . S
C537 C538 1.366 . S
C537 C539 1.388 . S
C538 C537 1.366 . S
C538 C542 1.385 . S
C539 H514 0.951 . S
C539 C537 1.388 . S
C539 C540 1.366 . S
C540 C539 1.366 . S
C540 C541 1.414 . S
C540 C543 1.499 . S
C541 H515 0.950 . S
C541 C540 1.414 . S
C541 C542 1.374 . S
C542 H516 0.950 . S
C542 C538 1.385 . S
C542 C541 1.374 . S
C543 C540 1.499 . S
C543 C544 1.373 . S
C543 C545 1.389 . S
C544 H517 0.950 . S
C544 C530 1.377 . S
C544 C543 1.373 . S
C545 C529 1.377 . S
C545 C543 1.389 . S
C545 C546 1.524 . S
C546 C545 1.524 . S
C546 C547 1.397 . S
C546 C551 1.363 . S
C547 H518 0.950 . S
C547 C546 1.397 . S
C547 C548 1.334 . S
C548 H519 0.950 . S
C548 C547 1.334 . S
C548 C549 1.287 . S
C549 C548 1.287 . S
C549 C550 1.524 . S
C549 H552 0.999 . S
C550 H520 0.950 . S
C550 C549 1.524 . S
C550 C551 1.415 . S
C551 H521 0.950 . S
C551 C546 1.363 . S
C551 C550 1.415 . S
H552 C549 0.999 . S
H553 C534 0.913 . S
H554 C572 0.951 . S
H555 C574 0.951 . S
H556 C576 0.950 . S
H557 C577 0.950 . S
H558 C579 0.950 . S
H559 C582 0.950 . S
H560 C583 0.950 . S
H561 C585 0.950 . S
H562 C586 0.950 . S
H563 C587 0.951 . S
H564 C589 0.951 . S
H565 C591 0.950 . S
H566 C592 0.950 . S
H567 C594 0.950 . S
H568 C597 0.950 . S
H569 C598 0.950 . S
H570 C600 0.950 . S
H571 C601 0.950 . S
C572 H554 0.951 . S
C572 C573 1.366 . S
C572 C574 1.388 . S
C573 C572 1.366 . S
C573 C577 1.385 . S
C574 H555 0.951 . S
C574 C572 1.388 . S
C574 C575 1.366 . S
C575 C574 1.366 . S
C575 C576 1.414 . S
C575 C578 1.499 . S
C576 H556 0.950 . S
C576 C575 1.414 . S
C576 C577 1.374 . S
C577 H557 0.950 . S
C577 C573 1.385 . S
C577 C576 1.374 . S
C578 C575 1.499 . S
C578 C579 1.373 . S
C578 C580 1.389 . S
C579 H558 0.950 . S
C579 C578 1.373 . S
C579 C595 1.377 . S
C580 C578 1.389 . S
C580 C581 1.524 . S
C580 C594 1.377 . S
C581 C580 1.524 . S
C581 C582 1.397 . S
C581 C586 1.363 . S
C582 H559 0.950 . S
C582 C581 1.397 . S
C582 C583 1.334 . S
C583 H560 0.950 . S
C583 C582 1.334 . S
C583 C584 1.287 . S
C584 C583 1.287 . S
C584 C585 1.524 . S
C584 H603 0.913 . S
C585 H561 0.950 . S
C585 C584 1.524 . S
C585 C586 1.415 . S
C586 H562 0.950 . S
C586 C581 1.363 . S
C586 C585 1.415 . S
C587 H563 0.951 . S
C587 C588 1.366 . S
C587 C589 1.388 . S
C588 C587 1.366 . S
C588 C592 1.385 . S
C589 H564 0.951 . S
C589 C587 1.388 . S
C589 C590 1.366 . S
C590 C589 1.366 . S
C590 C591 1.414 . S
C590 C593 1.499 . S
C591 H565 0.950 . S
C591 C590 1.414 . S
C591 C592 1.374 . S
C592 H566 0.950 . S
C592 C588 1.385 . S
C592 C591 1.374 . S
C593 C590 1.499 . S
C593 C594 1.373 . S
C593 C595 1.389 . S
C594 H567 0.950 . S
C594 C580 1.377 . S
C594 C593 1.373 . S
C595 C579 1.377 . S
C595 C593 1.389 . S
C595 C596 1.524 . S
C596 C595 1.524 . S
C596 C597 1.397 . S
C596 C601 1.363 . S
C597 H568 0.950 . S
C597 C596 1.397 . S
C597 C598 1.334 . S
C598 H569 0.950 . S
C598 C597 1.334 . S
C598 C599 1.287 . S
C599 C598 1.287 . S
C599 C600 1.524 . S
C599 H602 0.999 . S
C600 H570 0.950 . S
C600 C599 1.524 . S
C600 C601 1.415 . S
C601 H571 0.950 . S
C601 C596 1.363 . S
C601 C600 1.415 . S
H602 C599 0.999 . S
H603 C584 0.913 . S
H604 C622 0.951 . S
H605 C624 0.951 . S
H606 C626 0.950 . S
H607 C627 0.950 . S
H608 C629 0.950 . S
H609 C632 0.950 . S
H610 C633 0.950 . S
H611 C635 0.950 . S
H612 C636 0.950 . S
H613 C637 0.951 . S
H614 C639 0.951 . S
H615 C641 0.950 . S
H616 C642 0.950 . S
H617 C644 0.950 . S
H618 C647 0.950 . S
H619 C648 0.950 . S
H620 C650 0.950 . S
H621 C651 0.950 . S
C622 H604 0.951 . S
C622 C623 1.366 . S
C622 C624 1.388 . S
C623 C622 1.366 . S
C623 C627 1.385 . S
C624 H605 0.951 . S
C624 C622 1.388 . S
C624 C625 1.366 . S
C625 C624 1.366 . S
C625 C626 1.414 . S
C625 C628 1.499 . S
C626 H606 0.950 . S
C626 C625 1.414 . S
C626 C627 1.374 . S
C627 H607 0.950 . S
C627 C623 1.385 . S
C627 C626 1.374 . S
C628 C625 1.499 . S
C628 C629 1.373 . S
C628 C630 1.389 . S
C629 H608 0.950 . S
C629 C628 1.373 . S
C629 C645 1.377 . S
C630 C628 1.389 . S
C630 C631 1.524 . S
C630 C644 1.377 . S
C631 C630 1.524 . S
C631 C632 1.397 . S
C631 C636 1.363 . S
C632 H609 0.950 . S
C632 C631 1.397 . S
C632 C633 1.334 . S
C633 H610 0.950 . S
C633 C632 1.334 . S
C633 C634 1.287 . S
C634 C633 1.287 . S
C634 C635 1.524 . S
C634 H653 0.913 . S
C635 H611 0.950 . S
C635 C634 1.524 . S
C635 C636 1.415 . S
C636 H612 0.950 . S
C636 C631 1.363 . S
C636 C635 1.415 . S
C637 H613 0.951 . S
C637 C638 1.366 . S
C637 C639 1.388 . S
C638 C637 1.366 . S
C638 C642 1.385 . S
C639 H614 0.951 . S
C639 C637 1.388 . S
C639 C640 1.366 . S
C640 C639 1.366 . S
C640 C641 1.414 . S
C640 C643 1.499 . S
C641 H615 0.950 . S
C641 C640 1.414 . S
C641 C642 1.374 . S
C642 H616 0.950 . S
C642 C638 1.385 . S
C642 C641 1.374 . S
C643 C640 1.499 . S
C643 C644 1.373 . S
C643 C645 1.389 . S
C644 H617 0.950 . S
C644 C630 1.377 . S
C644 C643 1.373 . S
C645 C629 1.377 . S
C645 C643 1.389 . S
C645 C646 1.524 . S
C646 C645 1.524 . S
C646 C647 1.397 . S
C646 C651 1.363 . S
C647 H618 0.950 . S
C647 C646 1.397 . S
C647 C648 1.334 . S
C648 H619 0.950 . S
C648 C647 1.334 . S
C648 C649 1.287 . S
C649 C648 1.287 . S
C649 C650 1.524 . S
C649 H652 0.999 . S
C650 H620 0.950 . S
C650 C649 1.524 . S
C650 C651 1.415 . S
C651 H621 0.950 . S
C651 C646 1.363 . S
C651 C650 1.415 . S
H652 C649 0.999 . S
H653 C634 0.913 . S
H654 C672 0.951 . S
H655 C674 0.951 . S
H656 C676 0.950 . S
H657 C677 0.950 . S
H658 C679 0.950 . S
H659 C682 0.950 . S
H660 C683 0.950 . S
H661 C685 0.950 . S
H662 C686 0.950 . S
H663 C687 0.951 . S
H664 C689 0.951 . S
H665 C691 0.950 . S
H666 C692 0.950 . S
H667 C694 0.950 . S
H668 C697 0.950 . S
H669 C698 0.950 . S
H670 C700 0.950 . S
H671 C701 0.950 . S
C672 H654 0.951 . S
C672 C673 1.366 . S
C672 C674 1.388 . S
C673 C672 1.366 . S
C673 C677 1.385 . S
C674 H655 0.951 . S
C674 C672 1.388 . S
C674 C675 1.366 . S
C675 C674 1.366 . S
C675 C676 1.414 . S
C675 C678 1.499 . S
C676 H656 0.950 . S
C676 C675 1.414 . S
C676 C677 1.374 . S
C677 H657 0.950 . S
C677 C673 1.385 . S
C677 C676 1.374 . S
C678 C675 1.499 . S
C678 C679 1.373 . S
C678 C680 1.389 . S
C679 H658 0.950 . S
C679 C678 1.373 . S
C679 C695 1.377 . S
C680 C678 1.389 . S
C680 C681 1.524 . S
C680 C694 1.377 . S
C681 C680 1.524 . S
C681 C682 1.397 . S
C681 C686 1.363 . S
C682 H659 0.950 . S
C682 C681 1.397 . S
C682 C683 1.334 . S
C683 H660 0.950 . S
C683 C682 1.334 . S
C683 C684 1.287 . S
C684 C683 1.287 . S
C684 C685 1.524 . S
C684 H703 0.913 . S
C685 H661 0.950 . S
C685 C684 1.524 . S
C685 C686 1.415 . S
C686 H662 0.950 . S
C686 C681 1.363 . S
C686 C685 1.415 . S
C687 H663 0.951 . S
C687 C688 1.366 . S
C687 C689 1.388 . S
C688 C687 1.366 . S
C688 C692 1.385 . S
C689 H664 0.951 . S
C689 C687 1.388 . S
C689 C690 1.366 . S
C690 C689 1.366 . S
C690 C691 1.414 . S
C690 C693 1.499 . S
C691 H665 0.950 . S
C691 C690 1.414 . S
C691 C692 1.374 . S
C692 H666 0.950 . S
C692 C688 1.385 . S
C692 C691 1.374 . S
C693 C690 1.499 . S
C693 C694 1.373 . S
C693 C695 1.389 . S
C694 H667 0.950 . S
C694 C680 1.377 . S
C694 C693 1.373 . S
C695 C679 1.377 . S
C695 C693 1.389 . S
C695 C696 1.524 . S
C696 C695 1.524 . S
C696 C697 1.397 . S
C696 C701 1.363 . S
C697 H668 0.950 . S
C697 C696 1.397 . S
C697 C698 1.334 . S
C698 H669 0.950 . S
C698 C697 1.334 . S
C698 C699 1.287 . S
C699 C698 1.287 . S
C699 C700 1.524 . S
C699 H702 0.999 . S
C700 H670 0.950 . S
C700 C699 1.524 . S
C700 C701 1.415 . S
C701 H671 0.950 . S
C701 C696 1.363 . S
C701 C700 1.415 . S
H702 C699 0.999 . S
H703 C684 0.913 . S
H704 C722 0.951 . S
H705 C724 0.951 . S
H706 C726 0.950 . S
H707 C727 0.950 . S
H708 C729 0.950 . S
H709 C732 0.950 . S
H710 C733 0.950 . S
H711 C735 0.950 . S
H712 C736 0.950 . S
H713 C737 0.951 . S
H714 C739 0.951 . S
H715 C741 0.950 . S
H716 C742 0.950 . S
H717 C744 0.950 . S
H718 C747 0.950 . S
H719 C748 0.950 . S
H720 C750 0.950 . S
H721 C751 0.950 . S
C722 H704 0.951 . S
C722 C723 1.366 . S
C722 C724 1.388 . S
C723 C722 1.366 . S
C723 C727 1.385 . S
C724 H705 0.951 . S
C724 C722 1.388 . S
C724 C725 1.366 . S
C725 C724 1.366 . S
C725 C726 1.414 . S
C725 C728 1.499 . S
C726 H706 0.950 . S
C726 C725 1.414 . S
C726 C727 1.374 . S
C727 H707 0.950 . S
C727 C723 1.385 . S
C727 C726 1.374 . S
C728 C725 1.499 . S
C728 C729 1.373 . S
C728 C730 1.389 . S
C729 H708 0.950 . S
C729 C728 1.373 . S
C729 C745 1.377 . S
C730 C728 1.389 . S
C730 C731 1.524 . S
C730 C744 1.377 . S
C731 C730 1.524 . S
C731 C732 1.397 . S
C731 C736 1.363 . S
C732 H709 0.950 . S
C732 C731 1.397 . S
C732 C733 1.334 . S
C733 H710 0.950 . S
C733 C732 1.334 . S
C733 C734 1.287 . S
C734 C733 1.287 . S
C734 C735 1.524 . S
C734 H753 0.913 . S
C735 H711 0.950 . S
C735 C734 1.524 . S
C735 C736 1.415 . S
C736 H712 0.950 . S
C736 C731 1.363 . S
C736 C735 1.415 . S
C737 H713 0.951 . S
C737 C738 1.366 . S
C737 C739 1.388 . S
C738 C737 1.366 . S
C738 C742 1.385 . S
C739 H714 0.951 . S
C739 C737 1.388 . S
C739 C740 1.366 . S
C740 C739 1.366 . S
C740 C741 1.414 . S
C740 C743 1.499 . S
C741 H715 0.950 . S
C741 C740 1.414 . S
C741 C742 1.374 . S
C742 H716 0.950 . S
C742 C738 1.385 . S
C742 C741 1.374 . S
C743 C740 1.499 . S
C743 C744 1.373 . S
C743 C745 1.389 . S
C744 H717 0.950 . S
C744 C730 1.377 . S
C744 C743 1.373 . S
C745 C729 1.377 . S
C745 C743 1.389 . S
C745 C746 1.524 . S
C746 C745 1.524 . S
C746 C747 1.397 . S
C746 C751 1.363 . S
C747 H718 0.950 . S
C747 C746 1.397 . S
C747 C748 1.334 . S
C748 H719 0.950 . S
C748 C747 1.334 . S
C748 C749 1.287 . S
C749 C748 1.287 . S
C749 C750 1.524 . S
C749 H752 0.999 . S
C750 H720 0.950 . S
C750 C749 1.524 . S
C750 C751 1.415 . S
C751 H721 0.950 . S
C751 C746 1.363 . S
C751 C750 1.415 . S
H752 C749 0.999 . S
H753 C734 0.913 . S
H754 C772 0.951 . S
H755 C774 0.951 . S
H756 C776 0.950 . S
H757 C777 0.950 . S
H758 C779 0.950 . S
H759 C782 0.950 . S
H760 C783 0.950 . S
H761 C785 0.950 . S
H762 C786 0.950 . S
H763 C787 0.951 . S
H764 C789 0.951 . S
H765 C791 0.950 . S
H766 C792 0.950 . S
H767 C794 0.950 . S
H768 C797 0.950 . S
H769 C798 0.950 . S
H770 C800 0.950 . S
H771 C801 0.950 . S
C772 H754 0.951 . S
C772 C773 1.366 . S
C772 C774 1.388 . S
C773 C772 1.366 . S
C773 C777 1.385 . S
C774 H755 0.951 . S
C774 C772 1.388 . S
C774 C775 1.366 . S
C775 C774 1.366 . S
C775 C776 1.414 . S
C775 C778 1.499 . S
C776 H756 0.950 . S
C776 C775 1.414 . S
C776 C777 1.374 . S
C777 H757 0.950 . S
C777 C773 1.385 . S
C777 C776 1.374 . S
C778 C775 1.499 . S
C778 C779 1.373 . S
C778 C780 1.389 . S
C779 H758 0.950 . S
C779 C778 1.373 . S
C779 C795 1.377 . S
C780 C778 1.389 . S
C780 C781 1.524 . S
C780 C794 1.377 . S
C781 C780 1.524 . S
C781 C782 1.397 . S
C781 C786 1.363 . S
C782 H759 0.950 . S
C782 C781 1.397 . S
C782 C783 1.334 . S
C783 H760 0.950 . S
C783 C782 1.334 . S
C783 C784 1.287 . S
C784 C783 1.287 . S
C784 C785 1.524 . S
C784 H803 0.913 . S
C785 H761 0.950 . S
C785 C784 1.524 . S
C785 C786 1.415 . S
C786 H762 0.950 . S
C786 C781 1.363 . S
C786 C785 1.415 . S
C787 H763 0.951 . S
C787 C788 1.366 . S
C787 C789 1.388 . S
C788 C787 1.366 . S
C788 C792 1.385 . S
C789 H764 0.951 . S
C789 C787 1.388 . S
C789 C790 1.366 . S
C790 C789 1.366 . S
C790 C791 1.414 . S
C790 C793 1.499 . S
C791 H765 0.950 . S
C791 C790 1.414 . S
C791 C792 1.374 . S
C792 H766 0.950 . S
C792 C788 1.385 . S
C792 C791 1.374 . S
C793 C790 1.499 . S
C793 C794 1.373 . S
C793 C795 1.389 . S
C794 H767 0.950 . S
C794 C780 1.377 . S
C794 C793 1.373 . S
C795 C779 1.377 . S
C795 C793 1.389 . S
C795 C796 1.524 . S
C796 C795 1.524 . S
C796 C797 1.397 . S
C796 C801 1.363 . S
C797 H768 0.950 . S
C797 C796 1.397 . S
C797 C798 1.334 . S
C798 H769 0.950 . S
C798 C797 1.334 . S
C798 C799 1.287 . S
C799 C798 1.287 . S
C799 C800 1.524 . S
C799 H802 0.999 . S
C800 H770 0.950 . S
C800 C799 1.524 . S
C800 C801 1.415 . S
C801 H771 0.950 . S
C801 C796 1.363 . S
C801 C800 1.415 . S
H802 C799 0.999 . S
H803 C784 0.913 . S
H804 C822 0.951 . S
H805 C824 0.951 . S
H806 C826 0.950 . S
H807 C827 0.950 . S
H808 C829 0.950 . S
H809 C832 0.950 . S
H810 C833 0.950 . S
H811 C835 0.950 . S
H812 C836 0.950 . S
H813 C837 0.951 . S
H814 C839 0.951 . S
H815 C841 0.950 . S
H816 C842 0.950 . S
H817 C844 0.950 . S
H818 C847 0.950 . S
H819 C848 0.950 . S
H820 C850 0.950 . S
H821 C851 0.950 . S
C822 H804 0.951 . S
C822 C823 1.366 . S
C822 C824 1.388 . S
C823 C822 1.366 . S
C823 C827 1.385 . S
C824 H805 0.951 . S
C824 C822 1.388 . S
C824 C825 1.366 . S
C825 C824 1.366 . S
C825 C826 1.414 . S
C825 C828 1.499 . S
C826 H806 0.950 . S
C826 C825 1.414 . S
C826 C827 1.374 . S
C827 H807 0.950 . S
C827 C823 1.385 . S
C827 C826 1.374 . S
C828 C825 1.499 . S
C828 C829 1.373 . S
C828 C830 1.389 . S
C829 H808 0.950 . S
C829 C828 1.373 . S
C829 C845 1.377 . S
C830 C828 1.389 . S
C830 C831 1.524 . S
C830 C844 1.377 . S
C831 C830 1.524 . S
C831 C832 1.397 . S
C831 C836 1.363 . S
C832 H809 0.950 . S
C832 C831 1.397 . S
C832 C833 1.334 . S
C833 H810 0.950 . S
C833 C832 1.334 . S
C833 C834 1.287 . S
C834 C833 1.287 . S
C834 C835 1.524 . S
C834 H853 0.913 . S
C835 H811 0.950 . S
C835 C834 1.524 . S
C835 C836 1.415 . S
C836 H812 0.950 . S
C836 C831 1.363 . S
C836 C835 1.415 . S
C837 H813 0.951 . S
C837 C838 1.366 . S
C837 C839 1.388 . S
C838 C837 1.366 . S
C838 C842 1.385 . S
C839 H814 0.951 . S
C839 C837 1.388 . S
C839 C840 1.366 . S
C840 C839 1.366 . S
C840 C841 1.414 . S
C840 C843 1.499 . S
C841 H815 0.950 . S
C841 C840 1.414 . S
C841 C842 1.374 . S
C842 H816 0.950 . S
C842 C838 1.385 . S
C842 C841 1.374 . S
C843 C840 1.499 . S
C843 C844 1.373 . S
C843 C845 1.389 . S
C844 H817 0.950 . S
C844 C830 1.377 . S
C844 C843 1.373 . S
C845 C829 1.377 . S
C845 C843 1.389 . S
C845 C846 1.524 . S
C846 C845 1.524 . S
C846 C847 1.397 . S
C846 C851 1.363 . S
C847 H818 0.950 . S
C847 C846 1.397 . S
C847 C848 1.334 . S
C848 H819 0.950 . S
C848 C847 1.334 . S
C848 C849 1.287 . S
C849 C848 1.287 . S
C849 C850 1.524 . S
C849 H852 0.999 . S
C850 H820 0.950 . S
C850 C849 1.524 . S
C850 C851 1.415 . S
C851 H821 0.950 . S
C851 C846 1.363 . S
C851 C850 1.415 . S
H852 C849 0.999 . S
H853 C834 0.913 . S
H854 C872 0.951 . S
H855 C874 0.951 . S
H856 C876 0.950 . S
H857 C877 0.950 . S
H858 C879 0.950 . S
H859 C882 0.950 . S
H860 C883 0.950 . S
H861 C885 0.950 . S
H862 C886 0.950 . S
H863 C887 0.951 . S
H864 C889 0.951 . S
H865 C891 0.950 . S
H866 C892 0.950 . S
H867 C894 0.950 . S
H868 C897 0.950 . S
H869 C898 0.950 . S
H870 C900 0.950 . S
H871 C901 0.950 . S
C872 H854 0.951 . S
C872 C873 1.366 . S
C872 C874 1.388 . S
C873 C872 1.366 . S
C873 C877 1.385 . S
C874 H855 0.951 . S
C874 C872 1.388 . S
C874 C875 1.366 . S
C875 C874 1.366 . S
C875 C876 1.414 . S
C875 C878 1.499 . S
C876 H856 0.950 . S
C876 C875 1.414 . S
C876 C877 1.374 . S
C877 H857 0.950 . S
C877 C873 1.385 . S
C877 C876 1.374 . S
C878 C875 1.499 . S
C878 C879 1.373 . S
C878 C880 1.389 . S
C879 H858 0.950 . S
C879 C878 1.373 . S
C879 C895 1.377 . S
C880 C878 1.389 . S
C880 C881 1.524 . S
C880 C894 1.377 . S
C881 C880 1.524 . S
C881 C882 1.397 . S
C881 C886 1.363 . S
C882 H859 0.950 . S
C882 C881 1.397 . S
C882 C883 1.334 . S
C883 H860 0.950 . S
C883 C882 1.334 . S
C883 C884 1.287 . S
C884 C883 1.287 . S
C884 C885 1.524 . S
C884 H903 0.913 . S
C885 H861 0.950 . S
C885 C884 1.524 . S
C885 C886 1.415 . S
C886 H862 0.950 . S
C886 C881 1.363 . S
C886 C885 1.415 . S
C887 H863 0.951 . S
C887 C888 1.366 . S
C887 C889 1.388 . S
C888 C887 1.366 . S
C888 C892 1.385 . S
C889 H864 0.951 . S
C889 C887 1.388 . S
C889 C890 1.366 . S
C890 C889 1.366 . S
C890 C891 1.414 . S
C890 C893 1.499 . S
C891 H865 0.950 . S
C891 C890 1.414 . S
C891 C892 1.374 . S
C892 H866 0.950 . S
C892 C888 1.385 . S
C892 C891 1.374 . S
C893 C890 1.499 . S
C893 C894 1.373 . S
C893 C895 1.389 . S
C894 H867 0.950 . S
C894 C880 1.377 . S
C894 C893 1.373 . S
C895 C879 1.377 . S
C895 C893 1.389 . S
C895 C896 1.524 . S
C896 C895 1.524 . S
C896 C897 1.397 . S
C896 C901 1.363 . S
C897 H868 0.950 . S
C897 C896 1.397 . S
C897 C898 1.334 . S
C898 H869 0.950 . S
C898 C897 1.334 . S
C898 C899 1.287 . S
C899 C898 1.287 . S
C899 C900 1.524 . S
C899 H902 0.999 . S
C900 H870 0.950 . S
C900 C899 1.524 . S
C900 C901 1.415 . S
C901 H871 0.950 . S
C901 C896 1.363 . S
C901 C900 1.415 . S
H902 C899 0.999 . S
H903 C884 0.913 . S
H904 C922 0.951 . S
H905 C924 0.951 . S
H906 C926 0.950 . S
H907 C927 0.950 . S
H908 C929 0.950 . S
H909 C932 0.950 . S
H910 C933 0.950 . S
H911 C935 0.950 . S
H912 C936 0.950 . S
H913 C937 0.951 . S
H914 C939 0.951 . S
H915 C941 0.950 . S
H916 C942 0.950 . S
H917 C944 0.950 . S
H918 C947 0.950 . S
H919 C948 0.950 . S
H920 C950 0.950 . S
H921 C951 0.950 . S
C922 H904 0.951 . S
C922 C923 1.366 . S
C922 C924 1.388 . S
C923 C922 1.366 . S
C923 C927 1.385 . S
C924 H905 0.951 . S
C924 C922 1.388 . S
C924 C925 1.366 . S
C925 C924 1.366 . S
C925 C926 1.414 . S
C925 C928 1.499 . S
C926 H906 0.950 . S
C926 C925 1.414 . S
C926 C927 1.374 . S
C927 H907 0.950 . S
C927 C923 1.385 . S
C927 C926 1.374 . S
C928 C925 1.499 . S
C928 C929 1.373 . S
C928 C930 1.389 . S
C929 H908 0.950 . S
C929 C928 1.373 . S
C929 C945 1.377 . S
C930 C928 1.389 . S
C930 C931 1.524 . S
C930 C944 1.377 . S
C931 C930 1.524 . S
C931 C932 1.397 . S
C931 C936 1.363 . S
C932 H909 0.950 . S
C932 C931 1.397 . S
C932 C933 1.334 . S
C933 H910 0.950 . S
C933 C932 1.334 . S
C933 C934 1.287 . S
C934 C933 1.287 . S
C934 C935 1.524 . S
C934 H953 0.913 . S
C935 H911 0.950 . S
C935 C934 1.524 . S
C935 C936 1.415 . S
C936 H912 0.950 . S
C936 C931 1.363 . S
C936 C935 1.415 . S
C937 H913 0.951 . S
C937 C938 1.366 . S
C937 C939 1.388 . S
C938 C937 1.366 . S
C938 C942 1.385 . S
C939 H914 0.951 . S
C939 C937 1.388 . S
C939 C940 1.366 . S
C940 C939 1.366 . S
C940 C941 1.414 . S
C940 C943 1.499 . S
C941 H915 0.950 . S
C941 C940 1.414 . S
C941 C942 1.374 . S
C942 H916 0.950 . S
C942 C938 1.385 . S
C942 C941 1.374 . S
C943 C940 1.499 . S
C943 C944 1.373 . S
C943 C945 1.389 . S
C944 H917 0.950 . S
C944 C930 1.377 . S
C944 C943 1.373 . S
C945 C929 1.377 . S
C945 C943 1.389 . S
C945 C946 1.524 . S
C946 C945 1.524 . S
C946 C947 1.397 . S
C946 C951 1.363 . S
C947 H918 0.950 . S
C947 C946 1.397 . S
C947 C948 1.334 . S
C948 H919 0.950 . S
C948 C947 1.334 . S
C948 C949 1.287 . S
C949 C948 1.287 . S
C949 C950 1.524 . S
C949 H952 0.999 . S
C950 H920 0.950 . S
C950 C949 1.524 . S
C950 C951 1.415 . S
C951 H921 0.950 . S
C951 C946 1.363 . S
C951 C950 1.415 . S
H952 C949 0.999 . S
H953 C934 0.913 . S
H954 C972 0.951 . S
H955 C974 0.951 . S
H956 C976 0.950 . S
H957 C977 0.950 . S
H958 C979 0.950 . S
H959 C982 0.950 . S
H960 C983 0.950 . S
H961 C985 0.950 . S
H962 C986 0.950 . S
H963 C987 0.951 . S
H964 C989 0.951 . S
H965 C991 0.950 . S
H966 C992 0.950 . S
H967 C994 0.950 . S
H968 C997 0.950 . S
H969 C998 0.950 . S
H970 C1000 0.950 . S
H971 C1001 0.950 . S
C972 H954 0.951 . S
C972 C973 1.366 . S
C972 C974 1.388 . S
C973 C972 1.366 . S
C973 C977 1.385 . S
C974 H955 0.951 . S
C974 C972 1.388 . S
C974 C975 1.366 . S
C975 C974 1.366 . S
C975 C976 1.414 . S
C975 C978 1.499 . S
C976 H956 0.950 . S
C976 C975 1.414 . S
C976 C977 1.374 . S
C977 H957 0.950 . S
C977 C973 1.385 . S
C977 C976 1.374 . S
C978 C975 1.499 . S
C978 C979 1.373 . S
C978 C980 1.389 . S
C979 H958 0.950 . S
C979 C978 1.373 . S
C979 C995 1.377 . S
C980 C978 1.389 . S
C980 C981 1.524 . S
C980 C994 1.377 . S
C981 C980 1.524 . S
C981 C982 1.397 . S
C981 C986 1.363 . S
C982 H959 0.950 . S
C982 C981 1.397 . S
C982 C983 1.334 . S
C983 H960 0.950 . S
C983 C982 1.334 . S
C983 C984 1.287 . S
C984 C983 1.287 . S
C984 C985 1.524 . S
C984 H1003 0.913 . S
C985 H961 0.950 . S
C985 C984 1.524 . S
C985 C986 1.415 . S
C986 H962 0.950 . S
C986 C981 1.363 . S
C986 C985 1.415 . S
C987 H963 0.951 . S
C987 C988 1.366 . S
C987 C989 1.388 . S
C988 C987 1.366 . S
C988 C992 1.385 . S
C989 H964 0.951 . S
C989 C987 1.388 . S
C989 C990 1.366 . S
C990 C989 1.366 . S
C990 C991 1.414 . S
C990 C993 1.499 . S
C991 H965 0.950 . S
C991 C990 1.414 . S
C991 C992 1.374 . S
C992 H966 0.950 . S
C992 C988 1.385 . S
C992 C991 1.374 . S
C993 C990 1.499 . S
C993 C994 1.373 . S
C993 C995 1.389 . S
C994 H967 0.950 . S
C994 C980 1.377 . S
C994 C993 1.373 . S
C995 C979 1.377 . S
C995 C993 1.389 . S
C995 C996 1.524 . S
C996 C995 1.524 . S
C996 C997 1.397 . S
C996 C1001 1.363 . S
C997 H968 0.950 . S
C997 C996 1.397 . S
C997 C998 1.334 . S
C998 H969 0.950 . S
C998 C997 1.334 . S
C998 C999 1.287 . S
C999 C998 1.287 . S
C999 C1000 1.524 . S
C999 H1002 0.999 . S
C1000 H970 0.950 . S
C1000 C999 1.524 . S
C1000 C1001 1.415 . S
C1001 H971 0.950 . S
C1001 C996 1.363 . S
C1001 C1000 1.415 . S
H1002 C999 0.999 . S
H1003 C984 0.913 . S
H1004 C1022 0.951 . S
H1005 C1024 0.951 . S
H1006 C1026 0.950 . S
H1007 C1027 0.950 . S
H1008 C1029 0.950 . S
H1009 C1032 0.950 . S
H1010 C1033 0.950 . S
H1011 C1035 0.950 . S
H1012 C1036 0.950 . S
H1013 C1037 0.951 . S
H1014 C1039 0.951 . S
H1015 C1041 0.950 . S
H1016 C1042 0.950 . S
H1017 C1044 0.950 . S
H1018 C1047 0.950 . S
H1019 C1048 0.950 . S
H1020 C1050 0.950 . S
H1021 C1051 0.950 . S
C1022 H1004 0.951 . S
C1022 C1023 1.366 . S
C1022 C1024 1.388 . S
C1023 C1022 1.366 . S
C1023 C1027 1.385 . S
C1024 H1005 0.951 . S
C1024 C1022 1.388 . S
C1024 C1025 1.366 . S
C1025 C1024 1.366 . S
C1025 C1026 1.414 . S
C1025 C1028 1.499 . S
C1026 H1006 0.950 . S
C1026 C1025 1.414 . S
C1026 C1027 1.374 . S
C1027 H1007 0.950 . S
C1027 C1023 1.385 . S
C1027 C1026 1.374 . S
C1028 C1025 1.499 . S
C1028 C1029 1.373 . S
C1028 C1030 1.389 . S
C1029 H1008 0.950 . S
C1029 C1028 1.373 . S
C1029 C1045 1.377 . S
C1030 C1028 1.389 . S
C1030 C1031 1.524 . S
C1030 C1044 1.377 . S
C1031 C1030 1.524 . S
C1031 C1032 1.397 . S
C1031 C1036 1.363 . S
C1032 H1009 0.950 . S
C1032 C1031 1.397 . S
C1032 C1033 1.334 . S
C1033 H1010 0.950 . S
C1033 C1032 1.334 . S
C1033 C1034 1.287 . S
C1034 C1033 1.287 . S
C1034 C1035 1.524 . S
C1034 H1053 0.913 . S
C1035 H1011 0.950 . S
C1035 C1034 1.524 . S
C1035 C1036 1.415 . S
C1036 H1012 0.950 . S
C1036 C1031 1.363 . S
C1036 C1035 1.415 . S
C1037 H1013 0.951 . S
C1037 C1038 1.366 . S
C1037 C1039 1.388 . S
C1038 C1037 1.366 . S
C1038 C1042 1.385 . S
C1039 H1014 0.951 . S
C1039 C1037 1.388 . S
C1039 C1040 1.366 . S
C1040 C1039 1.366 . S
C1040 C1041 1.414 . S
C1040 C1043 1.499 . S
C1041 H1015 0.950 . S
C1041 C1040 1.414 . S
C1041 C1042 1.374 . S
C1042 H1016 0.950 . S
C1042 C1038 1.385 . S
C1042 C1041 1.374 . S
C1043 C1040 1.499 . S
C1043 C1044 1.373 . S
C1043 C1045 1.389 . S
C1044 H1017 0.950 . S
C1044 C1030 1.377 . S
C1044 C1043 1.373 . S
C1045 C1029 1.377 . S
C1045 C1043 1.389 . S
C1045 C1046 1.524 . S
C1046 C1045 1.524 . S
C1046 C1047 1.397 . S
C1046 C1051 1.363 . S
C1047 H1018 0.950 . S
C1047 C1046 1.397 . S
C1047 C1048 1.334 . S
C1048 H1019 0.950 . S
C1048 C1047 1.334 . S
C1048 C1049 1.287 . S
C1049 C1048 1.287 . S
C1049 C1050 1.524 . S
C1049 H1052 0.999 . S
C1050 H1020 0.950 . S
C1050 C1049 1.524 . S
C1050 C1051 1.415 . S
C1051 H1021 0.950 . S
C1051 C1046 1.363 . S
C1051 C1050 1.415 . S
H1052 C1049 0.999 . S
H1053 C1034 0.913 . S
H1054 C1072 0.951 . S
H1055 C1074 0.951 . S
H1056 C1076 0.950 . S
H1057 C1077 0.950 . S
H1058 C1079 0.950 . S
H1059 C1082 0.950 . S
H1060 C1083 0.950 . S
H1061 C1085 0.950 . S
H1062 C1086 0.950 . S
H1063 C1087 0.951 . S
H1064 C1089 0.951 . S
H1065 C1091 0.950 . S
H1066 C1092 0.950 . S
H1067 C1094 0.950 . S
H1068 C1097 0.950 . S
H1069 C1098 0.950 . S
H1070 C1100 0.950 . S
H1071 C1101 0.950 . S
C1072 H1054 0.951 . S
C1072 C1073 1.366 . S
C1072 C1074 1.388 . S
C1073 C1072 1.366 . S
C1073 C1077 1.385 . S
C1074 H1055 0.951 . S
C1074 C1072 1.388 . S
C1074 C1075 1.366 . S
C1075 C1074 1.366 . S
C1075 C1076 1.414 . S
C1075 C1078 1.499 . S
C1076 H1056 0.950 . S
C1076 C1075 1.414 . S
C1076 C1077 1.374 . S
C1077 H1057 0.950 . S
C1077 C1073 1.385 . S
C1077 C1076 1.374 . S
C1078 C1075 1.499 . S
C1078 C1079 1.373 . S
C1078 C1080 1.389 . S
C1079 H1058 0.950 . S
C1079 C1078 1.373 . S
C1079 C1095 1.377 . S
C1080 C1078 1.389 . S
C1080 C1081 1.524 . S
C1080 C1094 1.377 . S
C1081 C1080 1.524 . S
C1081 C1082 1.397 . S
C1081 C1086 1.363 . S
C1082 H1059 0.950 . S
C1082 C1081 1.397 . S
C1082 C1083 1.334 . S
C1083 H1060 0.950 . S
C1083 C1082 1.334 . S
C1083 C1084 1.287 . S
C1084 C1083 1.287 . S
C1084 C1085 1.524 . S
C1084 H1103 0.913 . S
C1085 H1061 0.950 . S
C1085 C1084 1.524 . S
C1085 C1086 1.415 . S
C1086 H1062 0.950 . S
C1086 C1081 1.363 . S
C1086 C1085 1.415 . S
C1087 H1063 0.951 . S
C1087 C1088 1.366 . S
C1087 C1089 1.388 . S
C1088 C1087 1.366 . S
C1088 C1092 1.385 . S
C1089 H1064 0.951 . S
C1089 C1087 1.388 . S
C1089 C1090 1.366 . S
C1090 C1089 1.366 . S
C1090 C1091 1.414 . S
C1090 C1093 1.499 . S
C1091 H1065 0.950 . S
C1091 C1090 1.414 . S
C1091 C1092 1.374 . S
C1092 H1066 0.950 . S
C1092 C1088 1.385 . S
C1092 C1091 1.374 . S
C1093 C1090 1.499 . S
C1093 C1094 1.373 . S
C1093 C1095 1.389 . S
C1094 H1067 0.950 . S
C1094 C1080 1.377 . S
C1094 C1093 1.373 . S
C1095 C1079 1.377 . S
C1095 C1093 1.389 . S
C1095 C1096 1.524 . S
C1096 C1095 1.524 . S
C1096 C1097 1.397 . S
C1096 C1101 1.363 . S
C1097 H1068 0.950 . S
C1097 C1096 1.397 . S
C1097 C1098 1.334 . S
C1098 H1069 0.950 . S
C1098 C1097 1.334 . S
C1098 C1099 1.287 . S
C1099 C1098 1.287 . S
C1099 C1100 1.524 . S
C1099 H1102 0.999 . S
C1100 H1070 0.950 . S
C1100 C1099 1.524 . S
C1100 C1101 1.415 . S
C1101 H1071 0.950 . S
C1101 C1096 1.363 . S
C1101 C1100 1.415 . S
H1102 C1099 0.999 . S
H1103 C1084 0.913 . S
H1104 C1122 0.951 . S
H1105 C1124 0.951 . S
H1106 C1126 0.950 . S
H1107 C1127 0.950 . S
H1108 C1129 0.950 . S
H1109 C1132 0.950 . S
H1110 C1133 0.950 . S
H1111 C1135 0.950 . S
H1112 C1136 0.950 . S
H1113 C1137 0.951 . S
H1114 C1139 0.951 . S
H1115 C1141 0.950 . S
H1116 C1142 0.950 . S
H1117 C1144 0.950 . S
H1118 C1147 0.950 . S
H1119 C1148 0.950 . S
H1120 C1150 0.950 . S
H1121 C1151 0.950 . S
C1122 H1104 0.951 . S
C1122 C1123 1.366 . S
C1122 C1124 1.388 . S
C1123 C1122 1.366 . S
C1123 C1127 1.385 . S
C1124 H1105 0.951 . S
C1124 C1122 1.388 . S
C1124 C1125 1.366 . S
C1125 C1124 1.366 . S
C1125 C1126 1.414 . S
C1125 C1128 1.499 . S
C1126 H1106 0.950 . S
C1126 C1125 1.414 . S
C1126 C1127 1.374 . S
C1127 H1107 0.950 . S
C1127 C1123 1.385 . S
C1127 C1126 1.374 . S
C1128 C1125 1.499 . S
C1128 C1129 1.373 1_655 S
C1128 C1130 1.389 . S
C1129 H1108 0.950 . S
C1129 C1128 1.373 1_455 S
C1129 C1145 1.377 . S
C1130 C1128 1.389 . S
C1130 C1131 1.524 . S
C1130 C1144 1.377 . S
C1131 C1130 1.524 . S
C1131 C1132 1.397 . S
C1131 C1136 1.363 . S
C1132 H1109 0.950 . S
C1132 C1131 1.397 . S
C1132 C1133 1.334 . S
C1133 H1110 0.950 . S
C1133 C1132 1.334 . S
C1133 C1134 1.287 . S
C1134 C1133 1.287 . S
C1134 C1135 1.524 . S
C1134 H1153 0.913 . S
C1135 H1111 0.950 . S
C1135 C1134 1.524 . S
C1135 C1136 1.415 . S
C1136 H1112 0.950 . S
C1136 C1131 1.363 . S
C1136 C1135 1.415 . S
C1137 H1113 0.951 . S
C1137 C1138 1.366 . S
C1137 C1139 1.388 . S
C1138 C1137 1.366 . S
C1138 C1142 1.385 . S
C1139 H1114 0.951 . S
C1139 C1137 1.388 . S
C1139 C1140 1.366 . S
C1140 C1139 1.366 . S
C1140 C1141 1.414 . S
C1140 C1143 1.499 . S
C1141 H1115 0.950 . S
C1141 C1140 1.414 . S
C1141 C1142 1.374 . S
C1142 H1116 0.950 . S
C1142 C1138 1.385 . S
C1142 C1141 1.374 . S
C1143 C1140 1.499 . S
C1143 C1144 1.373 1_455 S
C1143 C1145 1.389 . S
C1144 H1117 0.950 . S
C1144 C1130 1.377 . S
C1144 C1143 1.373 1_655 S
C1145 C1129 1.377 . S
C1145 C1143 1.389 . S
C1145 C1146 1.524 . S
C1146 C1145 1.524 . S
C1146 C1147 1.397 . S
C1146 C1151 1.363 . S
C1147 H1118 0.950 . S
C1147 C1146 1.397 . S
C1147 C1148 1.334 . S
C1148 H1119 0.950 . S
C1148 C1147 1.334 . S
C1148 C1149 1.287 . S
C1149 C1148 1.287 . S
C1149 C1150 1.524 . S
C1149 H1152 0.999 . S
C1150 H1120 0.950 . S
C1150 C1149 1.524 . S
C1150 C1151 1.415 . S
C1151 H1121 0.950 . S
C1151 C1146 1.363 . S
C1151 C1150 1.415 . S
H1152 C1149 0.999 . S
H1153 C1134 0.913 . S
H1154 C1172 0.951 . S
H1155 C1174 0.951 . S
H1156 C1176 0.950 . S
H1157 C1177 0.950 . S
H1158 C1179 0.950 . S
H1159 C1182 0.950 . S
H1160 C1183 0.950 . S
H1161 C1185 0.950 . S
H1162 C1186 0.950 . S
H1163 C1187 0.951 . S
H1164 C1189 0.951 . S
H1165 C1191 0.950 . S
H1166 C1192 0.950 . S
H1167 C1194 0.950 . S
H1168 C1197 0.950 . S
H1169 C1198 0.950 . S
H1170 C1200 0.950 . S
H1171 C1201 0.950 . S
C1172 H1154 0.951 . S
C1172 C1173 1.366 . S
C1172 C1174 1.388 . S
C1173 C1172 1.366 . S
C1173 C1177 1.385 . S
C1174 H1155 0.951 . S
C1174 C1172 1.388 . S
C1174 C1175 1.366 . S
C1175 C1174 1.366 . S
C1175 C1176 1.414 . S
C1175 C1178 1.499 . S
C1176 H1156 0.950 . S
C1176 C1175 1.414 . S
C1176 C1177 1.374 . S
C1177 H1157 0.950 . S
C1177 C1173 1.385 . S
C1177 C1176 1.374 . S
C1178 C1175 1.499 . S
C1178 C1179 1.373 . S
C1178 C1180 1.389 . S
C1179 H1158 0.950 . S
C1179 C1178 1.373 . S
C1179 C1195 1.377 . S
C1180 C1178 1.389 . S
C1180 C1181 1.524 . S
C1180 C1194 1.377 . S
C1181 C1180 1.524 . S
C1181 C1182 1.397 . S
C1181 C1186 1.363 . S
C1182 H1159 0.950 . S
C1182 C1181 1.397 . S
C1182 C1183 1.334 . S
C1183 H1160 0.950 . S
C1183 C1182 1.334 . S
C1183 C1184 1.287 . S
C1184 C1183 1.287 . S
C1184 C1185 1.524 . S
C1184 H1203 0.913 . S
C1185 H1161 0.950 . S
C1185 C1184 1.524 . S
C1185 C1186 1.415 . S
C1186 H1162 0.950 . S
C1186 C1181 1.363 . S
C1186 C1185 1.415 . S
C1187 H1163 0.951 . S
C1187 C1188 1.366 . S
C1187 C1189 1.388 . S
C1188 C1187 1.366 . S
C1188 C1192 1.385 . S
C1189 H1164 0.951 . S
C1189 C1187 1.388 . S
C1189 C1190 1.366 . S
C1190 C1189 1.366 . S
C1190 C1191 1.414 . S
C1190 C1193 1.499 . S
C1191 H1165 0.950 . S
C1191 C1190 1.414 . S
C1191 C1192 1.374 . S
C1192 H1166 0.950 . S
C1192 C1188 1.385 . S
C1192 C1191 1.374 . S
C1193 C1190 1.499 . S
C1193 C1194 1.373 . S
C1193 C1195 1.389 . S
C1194 H1167 0.950 . S
C1194 C1180 1.377 . S
C1194 C1193 1.373 . S
C1195 C1179 1.377 . S
C1195 C1193 1.389 . S
C1195 C1196 1.524 . S
C1196 C1195 1.524 . S
C1196 C1197 1.397 . S
C1196 C1201 1.363 . S
C1197 H1168 0.950 . S
C1197 C1196 1.397 . S
C1197 C1198 1.334 . S
C1198 H1169 0.950 . S
C1198 C1197 1.334 . S
C1198 C1199 1.287 . S
C1199 C1198 1.287 . S
C1199 C1200 1.524 . S
C1199 H1202 0.999 . S
C1200 H1170 0.950 . S
C1200 C1199 1.524 . S
C1200 C1201 1.415 . S
C1201 H1171 0.950 . S
C1201 C1196 1.363 . S
C1201 C1200 1.415 . S
H1202 C1199 0.999 . S
H1203 C1184 0.913 . S
H1204 C1222 0.951 . S
H1205 C1224 0.951 . S
H1206 C1226 0.950 . S
H1207 C1227 0.950 . S
H1208 C1229 0.950 . S
H1209 C1232 0.950 . S
H1210 C1233 0.950 . S
H1211 C1235 0.950 . S
H1212 C1236 0.950 . S
H1213 C1237 0.951 . S
H1214 C1239 0.951 . S
H1215 C1241 0.950 . S
H1216 C1242 0.950 . S
H1217 C1244 0.950 . S
H1218 C1247 0.950 . S
H1219 C1248 0.950 . S
H1220 C1250 0.950 . S
H1221 C1251 0.950 . S
C1222 H1204 0.951 . S
C1222 C1223 1.366 . S
C1222 C1224 1.388 . S
C1223 C1222 1.366 . S
C1223 C1227 1.385 . S
C1224 H1205 0.951 . S
C1224 C1222 1.388 . S
C1224 C1225 1.366 . S
C1225 C1224 1.366 . S
C1225 C1226 1.414 . S
C1225 C1228 1.499 . S
C1226 H1206 0.950 . S
C1226 C1225 1.414 . S
C1226 C1227 1.374 . S
C1227 H1207 0.950 . S
C1227 C1223 1.385 . S
C1227 C1226 1.374 . S
C1228 C1225 1.499 . S
C1228 C1229 1.373 1_545 S
C1228 C1230 1.389 . S
C1229 H1208 0.950 . S
C1229 C1228 1.373 1_565 S
C1229 C1245 1.377 . S
C1230 C1228 1.389 . S
C1230 C1231 1.524 . S
C1230 C1244 1.377 . S
C1231 C1230 1.524 . S
C1231 C1232 1.397 . S
C1231 C1236 1.363 . S
C1232 H1209 0.950 . S
C1232 C1231 1.397 . S
C1232 C1233 1.334 . S
C1233 H1210 0.950 . S
C1233 C1232 1.334 . S
C1233 C1234 1.287 . S
C1234 C1233 1.287 . S
C1234 C1235 1.524 . S
C1234 H1253 0.913 . S
C1235 H1211 0.950 . S
C1235 C1234 1.524 . S
C1235 C1236 1.415 . S
C1236 H1212 0.950 . S
C1236 C1231 1.363 . S
C1236 C1235 1.415 . S
C1237 H1213 0.951 . S
C1237 C1238 1.366 . S
C1237 C1239 1.388 . S
C1238 C1237 1.366 . S
C1238 C1242 1.385 . S
C1239 H1214 0.951 . S
C1239 C1237 1.388 . S
C1239 C1240 1.366 . S
C1240 C1239 1.366 . S
C1240 C1241 1.414 . S
C1240 C1243 1.499 . S
C1241 H1215 0.950 . S
C1241 C1240 1.414 . S
C1241 C1242 1.374 . S
C1242 H1216 0.950 . S
C1242 C1238 1.385 . S
C1242 C1241 1.374 . S
C1243 C1240 1.499 . S
C1243 C1244 1.373 1_565 S
C1243 C1245 1.389 . S
C1244 H1217 0.950 . S
C1244 C1230 1.377 . S
C1244 C1243 1.373 1_545 S
C1245 C1229 1.377 . S
C1245 C1243 1.389 . S
C1245 C1246 1.524 . S
C1246 C1245 1.524 . S
C1246 C1247 1.397 . S
C1246 C1251 1.363 . S
C1247 H1218 0.950 . S
C1247 C1246 1.397 . S
C1247 C1248 1.334 . S
C1248 H1219 0.950 . S
C1248 C1247 1.334 . S
C1248 C1249 1.287 . S
C1249 C1248 1.287 . S
C1249 C1250 1.524 . S
C1249 H1252 0.999 . S
C1250 H1220 0.950 . S
C1250 C1249 1.524 . S
C1250 C1251 1.415 . S
C1251 H1221 0.950 . S
C1251 C1246 1.363 . S
C1251 C1250 1.415 . S
H1252 C1249 0.999 . S
H1253 C1234 0.913 . S
H1254 C1272 0.951 . S
H1255 C1274 0.951 . S
H1256 C1276 0.950 . S
H1257 C1277 0.950 . S
H1258 C1279 0.950 . S
H1259 C1282 0.950 . S
H1260 C1283 0.950 . S
H1261 C1285 0.950 1_554 S
H1262 C1286 0.950 . S
H1263 C1287 0.951 . S
H1264 C1289 0.951 . S
H1265 C1291 0.949 . S
H1266 C1292 0.950 . S
H1267 C1294 0.950 . S
H1268 C1297 0.950 . S
H1269 C1298 0.950 . S
H1270 C1300 0.950 . S
H1271 C1301 0.950 1_556 S
C1272 H1254 0.951 . S
C1272 C1273 1.366 . S
C1272 C1274 1.388 . S
C1273 C1272 1.366 . S
C1273 C1277 1.385 . S
C1274 H1255 0.951 . S
C1274 C1272 1.388 . S
C1274 C1275 1.366 . S
C1275 C1274 1.366 . S
C1275 C1276 1.414 . S
C1275 C1278 1.499 . S
C1276 H1256 0.950 . S
C1276 C1275 1.414 . S
C1276 C1277 1.374 . S
C1277 H1257 0.950 . S
C1277 C1273 1.385 . S
C1277 C1276 1.374 . S
C1278 C1275 1.499 . S
C1278 C1279 1.373 1_545 S
C1278 C1280 1.389 . S
C1279 H1258 0.950 . S
C1279 C1278 1.373 1_565 S
C1279 C1295 1.377 1_556 S
C1280 C1278 1.389 . S
C1280 C1281 1.524 . S
C1280 C1294 1.377 1_556 S
C1281 C1280 1.524 . S
C1281 C1282 1.397 . S
C1281 C1286 1.363 1_556 S
C1282 H1259 0.950 . S
C1282 C1281 1.397 . S
C1282 C1283 1.334 . S
C1283 H1260 0.950 . S
C1283 C1282 1.334 . S
C1283 C1284 1.287 . S
C1284 C1283 1.287 . S
C1284 C1285 1.524 . S
C1284 H1303 0.913 . S
C1285 H1261 0.950 1_556 S
C1285 C1284 1.524 . S
C1285 C1286 1.415 1_556 S
C1286 H1262 0.950 . S
C1286 C1281 1.363 1_554 S
C1286 C1285 1.415 1_554 S
C1287 H1263 0.951 . S
C1287 C1288 1.366 . S
C1287 C1289 1.388 . S
C1288 C1287 1.366 . S
C1288 C1292 1.385 . S
C1289 H1264 0.951 . S
C1289 C1287 1.388 . S
C1289 C1290 1.366 . S
C1290 C1289 1.366 . S
C1290 C1291 1.414 . S
C1290 C1293 1.499 . S
C1291 H1265 0.949 . S
C1291 C1290 1.414 . S
C1291 C1292 1.374 . S
C1292 H1266 0.950 . S
C1292 C1288 1.385 . S
C1292 C1291 1.374 . S
C1293 C1290 1.499 . S
C1293 C1294 1.373 1_565 S
C1293 C1295 1.389 . S
C1294 H1267 0.950 . S
C1294 C1280 1.377 1_554 S
C1294 C1293 1.373 1_545 S
C1295 C1279 1.377 1_554 S
C1295 C1293 1.389 . S
C1295 C1296 1.524 . S
C1296 C1295 1.524 . S
C1296 C1297 1.397 . S
C1296 C1301 1.363 . S
C1297 H1268 0.950 . S
C1297 C1296 1.397 . S
C1297 C1298 1.334 . S
C1298 H1269 0.950 . S
C1298 C1297 1.334 . S
C1298 C1299 1.287 . S
C1299 C1298 1.287 . S
C1299 C1300 1.524 . S
C1299 H1302 0.999 . S
C1300 H1270 0.950 . S
C1300 C1299 1.524 . S
C1300 C1301 1.415 . S
C1301 H1271 0.950 1_554 S
C1301 C1296 1.363 . S
C1301 C1300 1.415 . S
H1302 C1299 0.999 . S
H1303 C1284 0.913 . S
H1304 C1322 0.951 . S
H1305 C1324 0.951 . S
H1306 C1326 0.950 . S
H1307 C1327 0.950 . S
H1308 C1329 0.950 . S
H1309 C1332 0.950 . S
H1310 C1333 0.950 . S
H1311 C1335 0.946 1_556 S
H1312 C1336 0.948 1_556 S
H1313 C1337 0.951 . S
H1314 C1339 0.951 . S
H1315 C1341 0.950 . S
H1316 C1342 0.950 . S
H1317 C1344 0.950 . S
H1318 C1347 0.950 . S
H1319 C1348 0.950 . S
H1320 C1350 0.950 . S
H1321 C1351 0.950 . S
C1322 H1304 0.951 . S
C1322 C1323 1.366 . S
C1322 C1324 1.388 . S
C1323 C1322 1.366 . S
C1323 C1327 1.385 . S
C1324 H1305 0.951 . S
C1324 C1322 1.388 . S
C1324 C1325 1.366 . S
C1325 C1324 1.366 . S
C1325 C1326 1.414 . S
C1325 C1328 1.499 . S
C1326 H1306 0.950 . S
C1326 C1325 1.414 . S
C1326 C1327 1.374 . S
C1327 H1307 0.950 . S
C1327 C1323 1.385 . S
C1327 C1326 1.374 . S
C1328 C1325 1.499 . S
C1328 C1329 1.373 . S
C1328 C1330 1.389 1_556 S
C1329 H1308 0.950 . S
C1329 C1328 1.373 . S
C1329 C1345 1.377 1_556 S
C1330 C1328 1.389 1_554 S
C1330 C1331 1.524 . S
C1330 C1344 1.377 1_655 S
C1331 C1330 1.524 . S
C1331 C1332 1.397 . S
C1331 C1336 1.364 1_655 S
C1332 H1309 0.950 . S
C1332 C1331 1.397 . S
C1332 C1333 1.334 . S
C1333 H1310 0.950 . S
C1333 C1332 1.334 . S
C1333 C1334 1.287 . S
C1334 C1333 1.287 . S
C1334 C1335 1.531 1_655 S
C1334 H1353 0.913 . S
C1335 H1311 0.946 1_554 S
C1335 C1334 1.531 1_455 S
C1335 C1336 1.414 . S
C1336 H1312 0.948 1_554 S
C1336 C1331 1.364 1_455 S
C1336 C1335 1.414 . S
C1337 H1313 0.951 . S
C1337 C1338 1.366 . S
C1337 C1339 1.388 . S
C1338 C1337 1.366 . S
C1338 C1342 1.385 . S
C1339 H1314 0.951 . S
C1339 C1337 1.388 . S
C1339 C1340 1.366 . S
C1340 C1339 1.366 . S
C1340 C1341 1.414 . S
C1340 C1343 1.499 . S
C1341 H1315 0.950 . S
C1341 C1340 1.414 . S
C1341 C1342 1.374 . S
C1342 H1316 0.950 . S
C1342 C1338 1.385 . S
C1342 C1341 1.374 . S
C1343 C1340 1.499 . S
C1343 C1344 1.373 . S
C1343 C1345 1.389 1_455 S
C1344 H1317 0.950 . S
C1344 C1330 1.377 1_455 S
C1344 C1343 1.373 . S
C1345 C1329 1.377 1_554 S
C1345 C1343 1.389 1_655 S
C1345 C1346 1.524 . S
C1346 C1345 1.524 . S
C1346 C1347 1.397 1_655 S
C1346 C1351 1.363 . S
C1347 H1318 0.950 . S
C1347 C1346 1.397 1_455 S
C1347 C1348 1.334 . S
C1348 H1319 0.950 . S
C1348 C1347 1.334 . S
C1348 C1349 1.287 . S
C1349 C1348 1.287 . S
C1349 C1350 1.524 1_455 S
C1349 H1352 0.999 . S
C1350 H1320 0.950 . S
C1350 C1349 1.524 1_655 S
C1350 C1351 1.415 . S
C1351 H1321 0.950 . S
C1351 C1346 1.363 . S
C1351 C1350 1.415 . S
H1352 C1349 0.999 . S
H1353 C1334 0.913 . S
H1354 C1372 0.951 . S
H1355 C1374 0.951 . S
H1356 C1376 0.950 . S
H1357 C1377 0.950 . S
H1358 C1379 0.950 . S
H1359 C1382 0.950 . S
H1360 C1383 0.950 . S
H1361 C1385 0.950 . S
H1362 C1386 0.950 . S
H1363 C1387 0.951 . S
H1364 C1389 0.951 . S
H1365 C1391 0.950 . S
H1366 C1392 0.950 . S
H1367 C1394 0.950 . S
H1368 C1397 0.950 . S
H1369 C1398 0.950 . S
H1370 C1400 0.950 . S
H1371 C1401 0.950 . S
C1372 H1354 0.951 . S
C1372 C1373 1.366 . S
C1372 C1374 1.388 . S
C1373 C1372 1.366 . S
C1373 C1377 1.385 . S
C1374 H1355 0.951 . S
C1374 C1372 1.388 . S
C1374 C1375 1.366 . S
C1375 C1374 1.366 . S
C1375 C1376 1.414 . S
C1375 C1378 1.499 . S
C1376 H1356 0.950 . S
C1376 C1375 1.414 . S
C1376 C1377 1.374 . S
C1377 H1357 0.950 . S
C1377 C1373 1.385 . S
C1377 C1376 1.374 . S
C1378 C1375 1.499 . S
C1378 C1379 1.373 . S
C1378 C1380 1.389 1_556 S
C1379 H1358 0.950 . S
C1379 C1378 1.373 . S
C1379 C1395 1.377 1_556 S
C1380 C1378 1.389 1_554 S
C1380 C1381 1.524 1_554 S
C1380 C1394 1.377 . S
C1381 C1380 1.524 1_556 S
C1381 C1382 1.403 . S
C1381 C1386 1.357 1_556 S
C1382 H1359 0.950 . S
C1382 C1381 1.403 . S
C1382 C1383 1.334 . S
C1383 H1360 0.950 . S
C1383 C1382 1.334 . S
C1383 C1384 1.287 . S
C1384 C1383 1.287 . S
C1384 C1385 1.524 1_556 S
C1384 H1403 0.913 . S
C1385 H1361 0.950 . S
C1385 C1384 1.524 1_554 S
C1385 C1386 1.415 . S
C1386 H1362 0.950 . S
C1386 C1381 1.357 1_554 S
C1386 C1385 1.415 . S
C1387 H1363 0.951 . S
C1387 C1388 1.366 . S
C1387 C1389 1.388 . S
C1388 C1387 1.366 . S
C1388 C1392 1.385 . S
C1389 H1364 0.951 . S
C1389 C1387 1.388 . S
C1389 C1390 1.366 . S
C1390 C1389 1.366 . S
C1390 C1391 1.414 . S
C1390 C1393 1.499 . S
C1391 H1365 0.950 . S
C1391 C1390 1.414 . S
C1391 C1392 1.374 . S
C1392 H1366 0.950 . S
C1392 C1388 1.385 . S
C1392 C1391 1.374 . S
C1393 C1390 1.499 . S
C1393 C1394 1.373 . S
C1393 C1395 1.389 . S
C1394 H1367 0.950 . S
C1394 C1380 1.377 . S
C1394 C1393 1.373 . S
C1395 C1379 1.377 1_554 S
C1395 C1393 1.389 . S
C1395 C1396 1.524 . S
C1396 C1395 1.524 . S
C1396 C1397 1.397 . S
C1396 C1401 1.363 1_554 S
C1397 H1368 0.950 . S
C1397 C1396 1.397 . S
C1397 C1398 1.334 . S
C1398 H1369 0.950 . S
C1398 C1397 1.334 . S
C1398 C1399 1.287 . S
C1399 C1398 1.287 . S
C1399 C1400 1.524 1_554 S
C1399 H1402 0.999 . S
C1400 H1370 0.950 . S
C1400 C1399 1.524 1_556 S
C1400 C1401 1.415 . S
C1401 H1371 0.950 . S
C1401 C1396 1.363 1_556 S
C1401 C1400 1.415 . S
H1402 C1399 0.999 . S
H1403 C1384 0.913 . S
H1404 C1422 0.951 . S
H1405 C1424 0.951 . S
H1406 C1426 0.950 . S
H1407 C1427 0.950 . S
H1408 C1429 0.950 . S
H1409 C1432 0.950 . S
H1410 C1433 0.950 . S
H1411 C1435 0.950 . S
H1412 C1436 0.950 . S
H1413 C1437 0.951 . S
H1414 C1439 0.951 . S
H1415 C1441 0.950 . S
H1416 C1442 0.950 . S
H1417 C1444 0.950 . S
H1418 C1447 0.950 . S
H1419 C1448 0.950 . S
H1420 C1450 0.950 . S
H1421 C1451 0.950 . S
C1422 H1404 0.951 . S
C1422 C1423 1.366 . S
C1422 C1424 1.388 1_565 S
C1423 C1422 1.366 . S
C1423 C1427 1.385 . S
C1424 H1405 0.951 . S
C1424 C1422 1.388 1_545 S
C1424 C1425 1.366 . S
C1425 C1424 1.366 . S
C1425 C1426 1.414 . S
C1425 C1428 1.499 . S
C1426 H1406 0.950 . S
C1426 C1425 1.414 . S
C1426 C1427 1.374 1_545 S
C1427 H1407 0.950 . S
C1427 C1423 1.385 . S
C1427 C1426 1.374 1_565 S
C1428 C1425 1.499 . S
C1428 C1429 1.373 . S
C1428 C1430 1.389 . S
C1429 H1408 0.950 . S
C1429 C1428 1.373 . S
C1429 C1445 1.377 . S
C1430 C1428 1.389 . S
C1430 C1431 1.524 1_556 S
C1430 C1444 1.377 1_556 S
C1431 C1430 1.524 1_554 S
C1431 C1432 1.397 . S
C1431 C1436 1.363 . S
C1432 H1409 0.950 . S
C1432 C1431 1.397 . S
C1432 C1433 1.334 1_545 S
C1433 H1410 0.950 . S
C1433 C1432 1.334 1_565 S
C1433 C1434 1.287 1_565 S
C1434 C1433 1.287 1_545 S
C1434 C1435 1.524 . S
C1434 H1453 0.913 1_545 S
C1435 H1411 0.950 . S
C1435 C1434 1.524 . S
C1435 C1436 1.415 . S
C1436 H1412 0.950 . S
C1436 C1431 1.363 . S
C1436 C1435 1.415 . S
C1437 H1413 0.951 . S
C1437 C1438 1.366 . S
C1437 C1439 1.388 . S
C1438 C1437 1.366 . S
C1438 C1442 1.385 . S
C1439 H1414 0.951 . S
C1439 C1437 1.388 . S
C1439 C1440 1.366 . S
C1440 C1439 1.366 . S
C1440 C1441 1.414 . S
C1440 C1443 1.499 1_554 S
C1441 H1415 0.950 . S
C1441 C1440 1.414 . S
C1441 C1442 1.374 . S
C1442 H1416 0.950 . S
C1442 C1438 1.385 . S
C1442 C1441 1.374 . S
C1443 C1440 1.499 1_556 S
C1443 C1444 1.373 1_556 S
C1443 C1445 1.389 . S
C1444 H1417 0.950 . S
C1444 C1430 1.377 1_554 S
C1444 C1443 1.373 1_554 S
C1445 C1429 1.377 . S
C1445 C1443 1.389 . S
C1445 C1446 1.524 . S
C1446 C1445 1.524 . S
C1446 C1447 1.397 . S
C1446 C1451 1.363 . S
C1447 H1418 0.950 . S
C1447 C1446 1.397 . S
C1447 C1448 1.334 . S
C1448 H1419 0.950 . S
C1448 C1447 1.334 . S
C1448 C1449 1.287 . S
C1449 C1448 1.287 . S
C1449 C1450 1.524 . S
C1449 H1452 0.999 . S
C1450 H1420 0.950 . S
C1450 C1449 1.524 . S
C1450 C1451 1.415 . S
C1451 H1421 0.950 . S
C1451 C1446 1.363 . S
C1451 C1450 1.415 . S
H1452 C1449 0.999 . S
H1453 C1434 0.913 1_565 S
H1454 C1472 0.951 . S
H1455 C1474 0.951 . S
H1456 C1476 0.950 . S
H1457 C1477 0.950 . S
H1458 C1479 0.950 . S
H1459 C1482 0.950 . S
H1460 C1483 0.950 . S
H1461 C1485 0.950 . S
H1462 C1486 0.950 . S
H1463 C1487 0.951 . S
H1464 C1489 0.951 . S
H1465 C1491 0.938 1_556 S
H1466 C1492 0.950 . S
H1467 C1494 0.950 . S
H1468 C1497 0.950 . S
H1469 C1498 0.950 . S
H1470 C1500 0.950 . S
H1471 C1501 0.950 . S
C1472 H1454 0.951 . S
C1472 C1473 1.366 . S
C1472 C1474 1.388 1_455 S
C1473 C1472 1.366 . S
C1473 C1477 1.385 . S
C1474 H1455 0.951 . S
C1474 C1472 1.388 1_655 S
C1474 C1475 1.366 . S
C1475 C1474 1.366 . S
C1475 C1476 1.414 . S
C1475 C1478 1.499 . S
C1476 H1456 0.950 . S
C1476 C1475 1.414 . S
C1476 C1477 1.374 1_655 S
C1477 H1457 0.950 . S
C1477 C1473 1.385 . S
C1477 C1476 1.374 1_455 S
C1478 C1475 1.499 . S
C1478 C1479 1.373 . S
C1478 C1480 1.389 . S
C1479 H1458 0.950 . S
C1479 C1478 1.373 . S
C1479 C1495 1.377 1_556 S
C1480 C1478 1.389 . S
C1480 C1481 1.524 . S
C1480 C1494 1.377 . S
C1481 C1480 1.524 . S
C1481 C1482 1.397 . S
C1481 C1486 1.363 . S
C1482 H1459 0.950 . S
C1482 C1481 1.397 . S
C1482 C1483 1.334 . S
C1483 H1460 0.950 . S
C1483 C1482 1.334 . S
C1483 C1484 1.287 . S
C1484 C1483 1.287 . S
C1484 C1485 1.524 . S
C1484 H1503 0.913 . S
C1485 H1461 0.950 . S
C1485 C1484 1.524 . S
C1485 C1486 1.415 . S
C1486 H1462 0.950 . S
C1486 C1481 1.363 . S
C1486 C1485 1.415 . S
C1487 H1463 0.951 . S
C1487 C1488 1.366 . S
C1487 C1489 1.388 . S
C1488 C1487 1.366 . S
C1488 C1492 1.385 . S
C1489 H1464 0.951 . S
C1489 C1487 1.388 . S
C1489 C1490 1.366 . S
C1490 C1489 1.366 . S
C1490 C1491 1.414 . S
C1490 C1493 1.499 1_554 S
C1491 H1465 0.938 1_554 S
C1491 C1490 1.414 . S
C1491 C1492 1.374 . S
C1492 H1466 0.950 . S
C1492 C1488 1.385 . S
C1492 C1491 1.374 . S
C1493 C1490 1.499 1_556 S
C1493 C1494 1.373 . S
C1493 C1495 1.389 1_556 S
C1494 H1467 0.950 . S
C1494 C1480 1.377 . S
C1494 C1493 1.373 . S
C1495 C1479 1.377 1_554 S
C1495 C1493 1.389 1_554 S
C1495 C1496 1.524 . S
C1496 C1495 1.524 . S
C1496 C1497 1.397 . S
C1496 C1501 1.363 . S
C1497 H1468 0.950 . S
C1497 C1496 1.397 . S
C1497 C1498 1.334 . S
C1498 H1469 0.950 . S
C1498 C1497 1.334 . S
C1498 C1499 1.287 . S
C1499 C1498 1.287 . S
C1499 C1500 1.524 . S
C1499 H1502 0.999 . S
C1500 H1470 0.950 . S
C1500 C1499 1.524 . S
C1500 C1501 1.415 . S
C1501 H1471 0.950 . S
C1501 C1496 1.363 . S
C1501 C1500 1.415 . S
H1502 C1499 0.999 . S
H1503 C1484 0.913 . S
H1504 C1522 0.951 . S
H1505 C1524 0.951 1_556 S
H1506 C1526 0.950 . S
H1507 C1527 0.950 . S
H1508 C1529 0.950 . S
H1509 C1532 0.892 1_554 S
H1510 C1533 0.950 1_554 S
H1511 C1535 0.950 . S
H1512 C1536 0.950 . S
H1513 C1537 0.951 . S
H1514 C1539 0.951 . S
H1515 C1541 0.950 . S
H1516 C1542 0.950 . S
H1517 C1544 0.950 . S
H1518 C1547 0.950 . S
H1519 C1548 0.950 . S
H1520 C1550 0.950 . S
H1521 C1551 0.950 . S
C1522 H1504 0.951 . S
C1522 C1523 1.366 . S
C1522 C1524 1.388 . S
C1523 C1522 1.366 . S
C1523 C1527 1.385 . S
C1524 H1505 0.951 1_554 S
C1524 C1522 1.388 . S
C1524 C1525 1.366 . S
C1525 C1524 1.366 . S
C1525 C1526 1.414 . S
C1525 C1528 1.522 . S
C1526 H1506 0.950 . S
C1526 C1525 1.414 . S
C1526 C1527 1.374 . S
C1527 H1507 0.950 . S
C1527 C1523 1.385 . S
C1527 C1526 1.374 . S
C1528 C1525 1.522 . S
C1528 C1529 1.382 . S
C1528 C1530 1.356 1_554 S
C1529 H1508 0.950 . S
C1529 C1528 1.382 . S
C1529 C1545 1.377 1_554 S
C1530 C1528 1.356 1_556 S
C1530 C1531 1.524 . S
C1530 C1544 1.377 . S
C1531 C1530 1.524 . S
C1531 C1532 1.447 . S
C1531 C1536 1.363 . S
C1532 H1509 0.892 1_556 S
C1532 C1531 1.447 . S
C1532 C1533 1.343 . S
C1533 H1510 0.950 1_556 S
C1533 C1532 1.343 . S
C1533 C1534 1.287 . S
C1534 C1533 1.287 . S
C1534 C1535 1.524 . S
C1534 H1553 0.913 . S
C1535 H1511 0.950 . S
C1535 C1534 1.524 . S
C1535 C1536 1.415 . S
C1536 H1512 0.950 . S
C1536 C1531 1.363 . S
C1536 C1535 1.415 . S
C1537 H1513 0.951 . S
C1537 C1538 1.366 . S
C1537 C1539 1.388 . S
C1538 C1537 1.366 . S
C1538 C1542 1.385 . S
C1539 H1514 0.951 . S
C1539 C1537 1.388 . S
C1539 C1540 1.366 . S
C1540 C1539 1.366 . S
C1540 C1541 1.414 . S
C1540 C1543 1.499 . S
C1541 H1515 0.950 . S
C1541 C1540 1.414 . S
C1541 C1542 1.374 . S
C1542 H1516 0.950 . S
C1542 C1538 1.385 . S
C1542 C1541 1.374 . S
C1543 C1540 1.499 . S
C1543 C1544 1.373 . S
C1543 C1545 1.389 . S
C1544 H1517 0.950 . S
C1544 C1530 1.377 . S
C1544 C1543 1.373 . S
C1545 C1529 1.377 1_556 S
C1545 C1543 1.389 . S
C1545 C1546 1.524 . S
C1546 C1545 1.524 . S
C1546 C1547 1.397 . S
C1546 C1551 1.363 1_556 S
C1547 H1518 0.950 . S
C1547 C1546 1.397 . S
C1547 C1548 1.334 . S
C1548 H1519 0.950 . S
C1548 C1547 1.334 . S
C1548 C1549 1.272 1_556 S
C1549 C1548 1.272 1_554 S
C1549 C1550 1.537 . S
C1549 H1552 1.002 . S
C1550 H1520 0.950 . S
C1550 C1549 1.537 . S
C1550 C1551 1.415 . S
C1551 H1521 0.950 . S
C1551 C1546 1.363 1_554 S
C1551 C1550 1.415 . S
H1552 C1549 1.002 . S
H1553 C1534 0.913 . S
H1554 C1572 0.951 . S
H1555 C1574 0.951 . S
H1556 C1576 0.950 . S
H1557 C1577 0.950 . S
H1558 C1579 0.950 . S
H1559 C1582 0.950 . S
H1560 C1583 0.950 . S
H1561 C1585 0.950 . S
H1562 C1586 0.950 . S
H1563 C1587 0.951 . S
H1564 C1589 0.951 . S
H1565 C1591 0.950 . S
H1566 C1592 0.950 . S
H1567 C1594 0.950 . S
H1568 C1597 0.950 . S
H1569 C1598 0.950 . S
H1570 C1600 0.950 . S
H1571 C1601 0.950 . S
C1572 H1554 0.951 . S
C1572 C1573 1.366 . S
C1572 C1574 1.388 1_655 S
C1573 C1572 1.366 . S
C1573 C1577 1.385 . S
C1574 H1555 0.951 . S
C1574 C1572 1.388 1_455 S
C1574 C1575 1.366 . S
C1575 C1574 1.366 . S
C1575 C1576 1.414 . S
C1575 C1578 1.499 . S
C1576 H1556 0.950 . S
C1576 C1575 1.414 . S
C1576 C1577 1.374 1_455 S
C1577 H1557 0.950 . S
C1577 C1573 1.385 . S
C1577 C1576 1.374 1_655 S
C1578 C1575 1.499 . S
C1578 C1579 1.373 . S
C1578 C1580 1.389 . S
C1579 H1558 0.950 . S
C1579 C1578 1.373 . S
C1579 C1595 1.377 . S
C1580 C1578 1.389 . S
C1580 C1581 1.524 . S
C1580 C1594 1.377 . S
C1581 C1580 1.524 . S
C1581 C1582 1.397 . S
C1581 C1586 1.363 . S
C1582 H1559 0.950 . S
C1582 C1581 1.397 . S
C1582 C1583 1.334 1_455 S
C1583 H1560 0.950 . S
C1583 C1582 1.334 1_655 S
C1583 C1584 1.287 . S
C1584 C1583 1.287 . S
C1584 C1585 1.524 1_655 S
C1584 H1603 0.913 . S
C1585 H1561 0.950 . S
C1585 C1584 1.524 1_455 S
C1585 C1586 1.415 . S
C1586 H1562 0.950 . S
C1586 C1581 1.363 . S
C1586 C1585 1.415 . S
C1587 H1563 0.951 . S
C1587 C1588 1.366 . S
C1587 C1589 1.388 . S
C1588 C1587 1.366 . S
C1588 C1592 1.385 . S
C1589 H1564 0.951 . S
C1589 C1587 1.388 . S
C1589 C1590 1.366 . S
C1590 C1589 1.366 . S
C1590 C1591 1.414 . S
C1590 C1593 1.499 . S
C1591 H1565 0.950 . S
C1591 C1590 1.414 . S
C1591 C1592 1.374 . S
C1592 H1566 0.950 . S
C1592 C1588 1.385 . S
C1592 C1591 1.374 . S
C1593 C1590 1.499 . S
C1593 C1594 1.373 . S
C1593 C1595 1.389 . S
C1594 H1567 0.950 . S
C1594 C1580 1.377 . S
C1594 C1593 1.373 . S
C1595 C1579 1.377 . S
C1595 C1593 1.389 . S
C1595 C1596 1.524 . S
C1596 C1595 1.524 . S
C1596 C1597 1.397 . S
C1596 C1601 1.363 . S
C1597 H1568 0.950 . S
C1597 C1596 1.397 . S
C1597 C1598 1.334 . S
C1598 H1569 0.950 . S
C1598 C1597 1.334 . S
C1598 C1599 1.287 . S
C1599 C1598 1.287 . S
C1599 C1600 1.524 . S
C1599 H1602 0.999 . S
C1600 H1570 0.950 . S
C1600 C1599 1.524 . S
C1600 C1601 1.415 . S
C1601 H1571 0.950 . S
C1601 C1596 1.363 . S
C1601 C1600 1.415 . S
H1602 C1599 0.999 . S
H1603 C1584 0.913 . S
H1604 C1622 0.951 . S
H1605 C1624 0.951 . S
H1606 C1626 0.950 . S
H1607 C1627 0.950 . S
H1608 C1629 0.950 . S
H1609 C1632 0.950 . S
H1610 C1633 0.950 . S
H1611 C1635 0.950 . S
H1612 C1636 0.950 . S
H1613 C1637 0.951 . S
H1614 C1639 0.951 . S
H1615 C1641 0.950 . S
H1616 C1642 0.950 . S
H1617 C1644 0.950 . S
H1618 C1647 0.950 . S
H1619 C1648 0.950 . S
H1620 C1650 0.950 . S
H1621 C1651 0.950 . S
C1622 H1604 0.951 . S
C1622 C1623 1.366 . S
C1622 C1624 1.388 . S
C1623 C1622 1.366 . S
C1623 C1627 1.385 . S
C1624 H1605 0.951 . S
C1624 C1622 1.388 . S
C1624 C1625 1.366 . S
C1625 C1624 1.366 . S
C1625 C1626 1.414 . S
C1625 C1628 1.499 . S
C1626 H1606 0.950 . S
C1626 C1625 1.414 . S
C1626 C1627 1.374 . S
C1627 H1607 0.950 . S
C1627 C1623 1.385 . S
C1627 C1626 1.374 . S
C1628 C1625 1.499 . S
C1628 C1629 1.373 . S
C1628 C1630 1.389 . S
C1629 H1608 0.950 . S
C1629 C1628 1.373 . S
C1629 C1645 1.377 . S
C1630 C1628 1.389 . S
C1630 C1631 1.524 . S
C1630 C1644 1.377 . S
C1631 C1630 1.524 . S
C1631 C1632 1.397 . S
C1631 C1636 1.363 . S
C1632 H1609 0.950 . S
C1632 C1631 1.397 . S
C1632 C1633 1.334 . S
C1633 H1610 0.950 . S
C1633 C1632 1.334 . S
C1633 C1634 1.287 . S
C1634 C1633 1.287 . S
C1634 C1635 1.524 . S
C1634 H1653 0.913 . S
C1635 H1611 0.950 . S
C1635 C1634 1.524 . S
C1635 C1636 1.415 . S
C1636 H1612 0.950 . S
C1636 C1631 1.363 . S
C1636 C1635 1.415 . S
C1637 H1613 0.951 . S
C1637 C1638 1.366 . S
C1637 C1639 1.388 . S
C1638 C1637 1.366 . S
C1638 C1642 1.385 . S
C1639 H1614 0.951 . S
C1639 C1637 1.388 . S
C1639 C1640 1.366 . S
C1640 C1639 1.366 . S
C1640 C1641 1.414 . S
C1640 C1643 1.499 . S
C1641 H1615 0.950 . S
C1641 C1640 1.414 . S
C1641 C1642 1.374 . S
C1642 H1616 0.950 . S
C1642 C1638 1.385 . S
C1642 C1641 1.374 . S
C1643 C1640 1.499 . S
C1643 C1644 1.373 . S
C1643 C1645 1.389 . S
C1644 H1617 0.950 . S
C1644 C1630 1.377 . S
C1644 C1643 1.373 . S
C1645 C1629 1.377 . S
C1645 C1643 1.389 . S
C1645 C1646 1.524 . S
C1646 C1645 1.524 . S
C1646 C1647 1.397 . S
C1646 C1651 1.363 . S
C1647 H1618 0.950 . S
C1647 C1646 1.397 . S
C1647 C1648 1.334 . S
C1648 H1619 0.950 . S
C1648 C1647 1.334 . S
C1648 C1649 1.287 . S
C1649 C1648 1.287 . S
C1649 C1650 1.524 . S
C1649 H1652 0.999 . S
C1650 H1620 0.950 . S
C1650 C1649 1.524 . S
C1650 C1651 1.415 . S
C1651 H1621 0.950 . S
C1651 C1646 1.363 . S
C1651 C1650 1.415 . S
H1652 C1649 0.999 . S
H1653 C1634 0.913 . S
H1654 C1672 0.951 . S
H1655 C1674 0.951 . S
H1656 C1676 0.950 . S
H1657 C1677 0.950 . S
H1658 C1679 0.950 . S
H1659 C1682 0.950 . S
H1660 C1683 0.950 . S
H1661 C1685 0.950 . S
H1662 C1686 0.950 . S
H1663 C1687 0.951 . S
H1664 C1689 0.951 . S
H1665 C1691 0.950 . S
H1666 C1692 0.950 . S
H1667 C1694 0.950 . S
H1668 C1697 0.950 . S
H1669 C1698 0.950 . S
H1670 C1700 0.950 . S
H1671 C1701 0.950 . S
C1672 H1654 0.951 . S
C1672 C1673 1.366 . S
C1672 C1674 1.388 1_545 S
C1673 C1672 1.366 . S
C1673 C1677 1.385 . S
C1674 H1655 0.951 . S
C1674 C1672 1.388 1_565 S
C1674 C1675 1.366 . S
C1675 C1674 1.366 . S
C1675 C1676 1.414 . S
C1675 C1678 1.499 . S
C1676 H1656 0.950 . S
C1676 C1675 1.414 . S
C1676 C1677 1.374 1_565 S
C1677 H1657 0.950 . S
C1677 C1673 1.385 . S
C1677 C1676 1.374 1_545 S
C1678 C1675 1.499 . S
C1678 C1679 1.373 . S
C1678 C1680 1.389 . S
C1679 H1658 0.950 . S
C1679 C1678 1.373 . S
C1679 C1695 1.377 . S
C1680 C1678 1.389 . S
C1680 C1681 1.524 . S
C1680 C1694 1.377 . S
C1681 C1680 1.524 . S
C1681 C1682 1.397 . S
C1681 C1686 1.363 . S
C1682 H1659 0.950 . S
C1682 C1681 1.397 . S
C1682 C1683 1.334 . S
C1683 H1660 0.950 . S
C1683 C1682 1.334 . S
C1683 C1684 1.287 . S
C1684 C1683 1.287 . S
C1684 C1685 1.524 . S
C1684 H1703 0.913 . S
C1685 H1661 0.950 . S
C1685 C1684 1.524 . S
C1685 C1686 1.415 . S
C1686 H1662 0.950 . S
C1686 C1681 1.363 . S
C1686 C1685 1.415 . S
C1687 H1663 0.951 . S
C1687 C1688 1.366 . S
C1687 C1689 1.388 . S
C1688 C1687 1.366 . S
C1688 C1692 1.385 . S
C1689 H1664 0.951 . S
C1689 C1687 1.388 . S
C1689 C1690 1.366 . S
C1690 C1689 1.366 . S
C1690 C1691 1.414 . S
C1690 C1693 1.499 . S
C1691 H1665 0.950 . S
C1691 C1690 1.414 . S
C1691 C1692 1.374 . S
C1692 H1666 0.950 . S
C1692 C1688 1.385 . S
C1692 C1691 1.374 . S
C1693 C1690 1.499 . S
C1693 C1694 1.373 . S
C1693 C1695 1.389 . S
C1694 H1667 0.950 . S
C1694 C1680 1.377 . S
C1694 C1693 1.373 . S
C1695 C1679 1.377 . S
C1695 C1693 1.389 . S
C1695 C1696 1.524 . S
C1696 C1695 1.524 . S
C1696 C1697 1.397 . S
C1696 C1701 1.363 . S
C1697 H1668 0.950 . S
C1697 C1696 1.397 . S
C1697 C1698 1.334 . S
C1698 H1669 0.950 . S
C1698 C1697 1.334 . S
C1698 C1699 1.287 . S
C1699 C1698 1.287 . S
C1699 C1700 1.524 . S
C1699 H1702 0.999 . S
C1700 H1670 0.950 . S
C1700 C1699 1.524 . S
C1700 C1701 1.415 . S
C1701 H1671 0.950 . S
C1701 C1696 1.363 . S
C1701 C1700 1.415 . S
H1702 C1699 0.999 . S
H1703 C1684 0.913 . S
H1704 C1722 0.951 . S
H1705 C1724 0.951 . S
H1706 C1726 0.950 1_554 S
H1707 C1727 0.950 . S
H1708 C1729 0.950 . S
H1709 C1732 0.950 . S
H1710 C1733 0.950 . S
H1711 C1735 0.950 . S
H1712 C1736 0.950 . S
H1713 C1737 0.951 . S
H1714 C1739 0.951 . S
H1715 C1741 0.950 1_556 S
H1716 C1742 0.950 . S
H1717 C1744 0.950 . S
H1718 C1747 0.950 . S
H1719 C1748 0.950 . S
H1720 C1750 0.950 . S
H1721 C1751 0.950 . S
C1722 H1704 0.951 . S
C1722 C1723 1.366 . S
C1722 C1724 1.388 . S
C1723 C1722 1.366 . S
C1723 C1727 1.385 . S
C1724 H1705 0.951 . S
C1724 C1722 1.388 . S
C1724 C1725 1.366 . S
C1725 C1724 1.366 . S
C1725 C1726 1.414 . S
C1725 C1728 1.499 . S
C1726 H1706 0.950 1_556 S
C1726 C1725 1.414 . S
C1726 C1727 1.374 . S
C1727 H1707 0.950 . S
C1727 C1723 1.385 . S
C1727 C1726 1.374 . S
C1728 C1725 1.499 . S
C1728 C1729 1.373 1_556 S
C1728 C1730 1.389 . S
C1729 H1708 0.950 . S
C1729 C1728 1.373 1_554 S
C1729 C1745 1.377 . S
C1730 C1728 1.389 . S
C1730 C1731 1.524 . S
C1730 C1744 1.377 . S
C1731 C1730 1.524 . S
C1731 C1732 1.397 . S
C1731 C1736 1.363 . S
C1732 H1709 0.950 . S
C1732 C1731 1.397 . S
C1732 C1733 1.334 . S
C1733 H1710 0.950 . S
C1733 C1732 1.334 . S
C1733 C1734 1.287 . S
C1734 C1733 1.287 . S
C1734 C1735 1.524 . S
C1734 H1753 0.913 . S
C1735 H1711 0.950 . S
C1735 C1734 1.524 . S
C1735 C1736 1.415 . S
C1736 H1712 0.950 . S
C1736 C1731 1.363 . S
C1736 C1735 1.415 . S
C1737 H1713 0.951 . S
C1737 C1738 1.366 . S
C1737 C1739 1.388 1_545 S
C1738 C1737 1.366 . S
C1738 C1742 1.385 . S
C1739 H1714 0.951 . S
C1739 C1737 1.388 1_565 S
C1739 C1740 1.366 . S
C1740 C1739 1.366 . S
C1740 C1741 1.414 1_565 S
C1740 C1743 1.499 . S
C1741 H1715 0.950 1_554 S
C1741 C1740 1.414 1_545 S
C1741 C1742 1.374 . S
C1742 H1716 0.950 . S
C1742 C1738 1.385 . S
C1742 C1741 1.374 . S
C1743 C1740 1.499 . S
C1743 C1744 1.373 1_554 S
C1743 C1745 1.389 . S
C1744 H1717 0.950 . S
C1744 C1730 1.377 . S
C1744 C1743 1.373 1_556 S
C1745 C1729 1.377 . S
C1745 C1743 1.389 . S
C1745 C1746 1.524 . S
C1746 C1745 1.524 . S
C1746 C1747 1.397 . S
C1746 C1751 1.363 . S
C1747 H1718 0.950 . S
C1747 C1746 1.397 . S
C1747 C1748 1.334 . S
C1748 H1719 0.950 . S
C1748 C1747 1.334 . S
C1748 C1749 1.287 . S
C1749 C1748 1.287 . S
C1749 C1750 1.524 . S
C1749 H1752 0.999 . S
C1750 H1720 0.950 . S
C1750 C1749 1.524 . S
C1750 C1751 1.415 . S
C1751 H1721 0.950 . S
C1751 C1746 1.363 . S
C1751 C1750 1.415 . S
H1752 C1749 0.999 . S
H1753 C1734 0.913 . S
H1754 C1772 0.951 . S
H1755 C1774 0.951 1_554 S
H1756 C1776 0.950 . S
H1757 C1777 0.950 . S
H1758 C1779 0.950 . S
H1759 C1782 0.950 . S
H1760 C1783 0.950 . S
H1761 C1785 0.950 . S
H1762 C1786 0.950 . S
H1763 C1787 0.951 . S
H1764 C1789 0.951 . S
H1765 C1791 0.950 . S
H1766 C1792 0.950 . S
H1767 C1794 0.950 . S
H1768 C1797 0.950 . S
H1769 C1798 0.950 . S
H1770 C1800 0.950 . S
H1771 C1801 0.950 . S
C1772 H1754 0.951 . S
C1772 C1773 1.366 . S
C1772 C1774 1.388 . S
C1773 C1772 1.366 . S
C1773 C1777 1.385 . S
C1774 H1755 0.951 1_556 S
C1774 C1772 1.388 . S
C1774 C1775 1.366 . S
C1775 C1774 1.366 . S
C1775 C1776 1.414 . S
C1775 C1778 1.499 . S
C1776 H1756 0.950 . S
C1776 C1775 1.414 . S
C1776 C1777 1.374 . S
C1777 H1757 0.950 . S
C1777 C1773 1.385 . S
C1777 C1776 1.374 . S
C1778 C1775 1.499 . S
C1778 C1779 1.373 . S
C1778 C1780 1.389 1_556 S
C1779 H1758 0.950 . S
C1779 C1778 1.373 . S
C1779 C1795 1.377 1_556 S
C1780 C1778 1.389 1_554 S
C1780 C1781 1.524 . S
C1780 C1794 1.377 . S
C1781 C1780 1.524 . S
C1781 C1782 1.397 1_554 S
C1781 C1786 1.363 . S
C1782 H1759 0.950 . S
C1782 C1781 1.397 1_556 S
C1782 C1783 1.334 . S
C1783 H1760 0.950 . S
C1783 C1782 1.334 . S
C1783 C1784 1.287 . S
C1784 C1783 1.287 . S
C1784 C1785 1.524 1_556 S
C1784 H1803 0.913 . S
C1785 H1761 0.950 . S
C1785 C1784 1.524 1_554 S
C1785 C1786 1.415 . S
C1786 H1762 0.950 . S
C1786 C1781 1.363 . S
C1786 C1785 1.415 . S
C1787 H1763 0.951 . S
C1787 C1788 1.366 . S
C1787 C1789 1.388 . S
C1788 C1787 1.366 . S
C1788 C1792 1.385 . S
C1789 H1764 0.951 . S
C1789 C1787 1.388 . S
C1789 C1790 1.366 1_655 S
C1790 C1789 1.366 1_455 S
C1790 C1791 1.414 . S
C1790 C1793 1.499 . S
C1791 H1765 0.950 . S
C1791 C1790 1.414 . S
C1791 C1792 1.374 1_455 S
C1792 H1766 0.950 . S
C1792 C1788 1.385 . S
C1792 C1791 1.374 1_655 S
C1793 C1790 1.499 . S
C1793 C1794 1.373 . S
C1793 C1795 1.389 . S
C1794 H1767 0.950 . S
C1794 C1780 1.377 . S
C1794 C1793 1.373 . S
C1795 C1779 1.377 1_554 S
C1795 C1793 1.389 . S
C1795 C1796 1.524 . S
C1796 C1795 1.524 . S
C1796 C1797 1.397 . S
C1796 C1801 1.363 1_554 S
C1797 H1768 0.950 . S
C1797 C1796 1.397 . S
C1797 C1798 1.334 . S
C1798 H1769 0.950 . S
C1798 C1797 1.334 . S
C1798 C1799 1.287 . S
C1799 C1798 1.287 . S
C1799 C1800 1.524 1_554 S
C1799 H1802 0.999 1_455 S
C1800 H1770 0.950 . S
C1800 C1799 1.524 1_556 S
C1800 C1801 1.415 . S
C1801 H1771 0.950 . S
C1801 C1796 1.363 1_556 S
C1801 C1800 1.415 . S
H1802 C1799 0.999 1_655 S
H1803 C1784 0.913 . S
H1804 C1822 0.951 . S
H1805 C1824 0.951 . S
H1806 C1826 0.950 . S
H1807 C1827 0.950 . S
H1808 C1829 0.950 . S
H1809 C1832 0.950 . S
H1810 C1833 0.950 . S
H1811 C1835 0.950 . S
H1812 C1836 0.950 . S
H1813 C1837 0.951 . S
H1814 C1839 0.951 . S
H1815 C1841 0.950 . S
H1816 C1842 0.950 . S
H1817 C1844 0.950 . S
H1818 C1847 0.950 . S
H1819 C1848 0.950 . S
H1820 C1850 0.950 . S
H1821 C1851 0.950 . S
C1822 H1804 0.951 . S
C1822 C1823 1.366 . S
C1822 C1824 1.388 . S
C1823 C1822 1.366 . S
C1823 C1827 1.385 . S
C1824 H1805 0.951 . S
C1824 C1822 1.388 . S
C1824 C1825 1.366 . S
C1825 C1824 1.366 . S
C1825 C1826 1.414 . S
C1825 C1828 1.499 . S
C1826 H1806 0.950 . S
C1826 C1825 1.414 . S
C1826 C1827 1.374 . S
C1827 H1807 0.950 . S
C1827 C1823 1.385 . S
C1827 C1826 1.374 . S
C1828 C1825 1.499 . S
C1828 C1829 1.373 . S
C1828 C1830 1.389 . S
C1829 H1808 0.950 . S
C1829 C1828 1.373 . S
C1829 C1845 1.376 1_556 S
C1830 C1828 1.389 . S
C1830 C1831 1.524 . S
C1830 C1844 1.377 1_556 S
C1831 C1830 1.524 . S
C1831 C1832 1.397 1_556 S
C1831 C1836 1.363 . S
C1832 H1809 0.950 . S
C1832 C1831 1.397 1_554 S
C1832 C1833 1.334 . S
C1833 H1810 0.950 . S
C1833 C1832 1.334 . S
C1833 C1834 1.287 . S
C1834 C1833 1.287 . S
C1834 C1835 1.524 1_554 S
C1834 H1853 0.913 . S
C1835 H1811 0.950 . S
C1835 C1834 1.524 1_556 S
C1835 C1836 1.415 . S
C1836 H1812 0.950 . S
C1836 C1831 1.363 . S
C1836 C1835 1.415 . S
C1837 H1813 0.951 . S
C1837 C1838 1.366 . S
C1837 C1839 1.388 . S
C1838 C1837 1.366 . S
C1838 C1842 1.385 . S
C1839 H1814 0.951 . S
C1839 C1837 1.388 . S
C1839 C1840 1.366 . S
C1840 C1839 1.366 . S
C1840 C1841 1.414 . S
C1840 C1843 1.499 . S
C1841 H1815 0.950 . S
C1841 C1840 1.414 . S
C1841 C1842 1.374 . S
C1842 H1816 0.950 . S
C1842 C1838 1.385 . S
C1842 C1841 1.374 . S
C1843 C1840 1.499 . S
C1843 C1844 1.373 . S
C1843 C1845 1.390 . S
C1844 H1817 0.950 . S
C1844 C1830 1.377 1_554 S
C1844 C1843 1.373 . S
C1845 C1829 1.376 1_554 S
C1845 C1843 1.390 . S
C1845 C1846 1.524 1_554 S
C1846 C1845 1.524 1_556 S
C1846 C1847 1.399 . S
C1846 C1851 1.361 1_556 S
C1847 H1818 0.950 . S
C1847 C1846 1.399 . S
C1847 C1848 1.334 . S
C1848 H1819 0.950 . S
C1848 C1847 1.334 . S
C1848 C1849 1.287 . S
C1849 C1848 1.287 . S
C1849 C1850 1.524 1_556 S
C1849 H1852 0.999 . S
C1850 H1820 0.950 . S
C1850 C1849 1.524 1_554 S
C1850 C1851 1.415 . S
C1851 H1821 0.950 . S
C1851 C1846 1.361 1_554 S
C1851 C1850 1.415 . S
H1852 C1849 0.999 . S
H1853 C1834 0.913 . S
H1854 C1872 0.951 . S
H1855 C1874 0.951 . S
H1856 C1876 0.950 . S
H1857 C1877 0.950 . S
H1858 C1879 0.950 . S
H1859 C1882 0.950 . S
H1860 C1883 0.950 . S
H1861 C1885 0.950 . S
H1862 C1886 0.950 . S
H1863 C1887 0.951 . S
H1864 C1889 0.951 . S
H1865 C1891 0.950 . S
H1866 C1892 0.950 . S
H1867 C1894 0.950 . S
H1868 C1897 0.950 . S
H1869 C1898 0.950 . S
H1870 C1900 0.950 . S
H1871 C1901 0.950 . S
C1872 H1854 0.951 . S
C1872 C1873 1.366 . S
C1872 C1874 1.388 . S
C1873 C1872 1.366 . S
C1873 C1877 1.385 . S
C1874 H1855 0.951 . S
C1874 C1872 1.388 . S
C1874 C1875 1.366 . S
C1875 C1874 1.366 . S
C1875 C1876 1.414 . S
C1875 C1878 1.499 . S
C1876 H1856 0.950 . S
C1876 C1875 1.414 . S
C1876 C1877 1.374 . S
C1877 H1857 0.950 . S
C1877 C1873 1.385 . S
C1877 C1876 1.374 . S
C1878 C1875 1.499 . S
C1878 C1879 1.373 . S
C1878 C1880 1.389 . S
C1879 H1858 0.950 . S
C1879 C1878 1.373 . S
C1879 C1895 1.377 . S
C1880 C1878 1.389 . S
C1880 C1881 1.524 . S
C1880 C1894 1.377 . S
C1881 C1880 1.524 . S
C1881 C1882 1.397 . S
C1881 C1886 1.363 . S
C1882 H1859 0.950 . S
C1882 C1881 1.397 . S
C1882 C1883 1.334 . S
C1883 H1860 0.950 . S
C1883 C1882 1.334 . S
C1883 C1884 1.287 . S
C1884 C1883 1.287 . S
C1884 C1885 1.524 . S
C1884 H1903 0.913 . S
C1885 H1861 0.950 . S
C1885 C1884 1.524 . S
C1885 C1886 1.415 . S
C1886 H1862 0.950 . S
C1886 C1881 1.363 . S
C1886 C1885 1.415 . S
C1887 H1863 0.951 . S
C1887 C1888 1.366 . S
C1887 C1889 1.388 1_455 S
C1888 C1887 1.366 . S
C1888 C1892 1.385 . S
C1889 H1864 0.951 . S
C1889 C1887 1.388 1_655 S
C1889 C1890 1.366 . S
C1890 C1889 1.366 . S
C1890 C1891 1.414 . S
C1890 C1893 1.499 . S
C1891 H1865 0.950 . S
C1891 C1890 1.414 . S
C1891 C1892 1.374 1_655 S
C1892 H1866 0.950 . S
C1892 C1888 1.385 . S
C1892 C1891 1.374 1_455 S
C1893 C1890 1.499 . S
C1893 C1894 1.373 . S
C1893 C1895 1.389 . S
C1894 H1867 0.950 . S
C1894 C1880 1.377 . S
C1894 C1893 1.373 . S
C1895 C1879 1.377 . S
C1895 C1893 1.389 . S
C1895 C1896 1.524 . S
C1896 C1895 1.524 . S
C1896 C1897 1.397 . S
C1896 C1901 1.363 . S
C1897 H1868 0.950 . S
C1897 C1896 1.397 . S
C1897 C1898 1.334 . S
C1898 H1869 0.950 . S
C1898 C1897 1.334 . S
C1898 C1899 1.287 . S
C1899 C1898 1.287 . S
C1899 C1900 1.524 . S
C1899 H1902 0.999 . S
C1900 H1870 0.950 . S
C1900 C1899 1.524 . S
C1900 C1901 1.415 . S
C1901 H1871 0.950 . S
C1901 C1896 1.363 . S
C1901 C1900 1.415 . S
H1902 C1899 0.999 . S
H1903 C1884 0.913 . S
H1904 C1922 0.951 . S
H1905 C1924 0.951 . S
H1906 C1926 0.950 . S
H1907 C1927 0.950 . S
H1908 C1929 0.950 . S
H1909 C1932 0.950 . S
H1910 C1933 0.950 . S
H1911 C1935 0.950 . S
H1912 C1936 0.950 . S
H1913 C1937 0.951 . S
H1914 C1939 0.951 . S
H1915 C1941 0.950 . S
H1916 C1942 0.950 . S
H1917 C1944 0.950 . S
H1918 C1947 0.950 . S
H1919 C1948 0.950 . S
H1920 C1950 0.950 . S
H1921 C1951 0.950 . S
C1922 H1904 0.951 . S
C1922 C1923 1.366 . S
C1922 C1924 1.388 . S
C1923 C1922 1.366 . S
C1923 C1927 1.385 . S
C1924 H1905 0.951 . S
C1924 C1922 1.388 . S
C1924 C1925 1.366 . S
C1925 C1924 1.366 . S
C1925 C1926 1.414 . S
C1925 C1928 1.499 . S
C1926 H1906 0.950 . S
C1926 C1925 1.414 . S
C1926 C1927 1.374 . S
C1927 H1907 0.950 . S
C1927 C1923 1.385 . S
C1927 C1926 1.374 . S
C1928 C1925 1.499 . S
C1928 C1929 1.373 . S
C1928 C1930 1.389 . S
C1929 H1908 0.950 . S
C1929 C1928 1.373 . S
C1929 C1945 1.377 . S
C1930 C1928 1.389 . S
C1930 C1931 1.524 . S
C1930 C1944 1.377 . S
C1931 C1930 1.524 . S
C1931 C1932 1.397 . S
C1931 C1936 1.363 . S
C1932 H1909 0.950 . S
C1932 C1931 1.397 . S
C1932 C1933 1.334 . S
C1933 H1910 0.950 . S
C1933 C1932 1.334 . S
C1933 C1934 1.287 . S
C1934 C1933 1.287 . S
C1934 C1935 1.524 . S
C1934 H1953 0.913 . S
C1935 H1911 0.950 . S
C1935 C1934 1.524 . S
C1935 C1936 1.415 . S
C1936 H1912 0.950 . S
C1936 C1931 1.363 . S
C1936 C1935 1.415 . S
C1937 H1913 0.951 . S
C1937 C1938 1.366 . S
C1937 C1939 1.388 . S
C1938 C1937 1.366 . S
C1938 C1942 1.385 . S
C1939 H1914 0.951 . S
C1939 C1937 1.388 . S
C1939 C1940 1.366 . S
C1940 C1939 1.366 . S
C1940 C1941 1.414 . S
C1940 C1943 1.499 . S
C1941 H1915 0.950 . S
C1941 C1940 1.414 . S
C1941 C1942 1.374 . S
C1942 H1916 0.950 . S
C1942 C1938 1.385 . S
C1942 C1941 1.374 . S
C1943 C1940 1.499 . S
C1943 C1944 1.373 . S
C1943 C1945 1.389 . S
C1944 H1917 0.950 . S
C1944 C1930 1.377 . S
C1944 C1943 1.373 . S
C1945 C1929 1.377 . S
C1945 C1943 1.389 . S
C1945 C1946 1.524 . S
C1946 C1945 1.524 . S
C1946 C1947 1.397 . S
C1946 C1951 1.363 . S
C1947 H1918 0.950 . S
C1947 C1946 1.397 . S
C1947 C1948 1.334 . S
C1948 H1919 0.950 . S
C1948 C1947 1.334 . S
C1948 C1949 1.287 . S
C1949 C1948 1.287 . S
C1949 C1950 1.524 . S
C1949 H1952 0.999 . S
C1950 H1920 0.950 . S
C1950 C1949 1.524 . S
C1950 C1951 1.415 . S
C1951 H1921 0.950 . S
C1951 C1946 1.363 . S
C1951 C1950 1.415 . S
H1952 C1949 0.999 . S
H1953 C1934 0.913 . S
H1954 C1972 0.951 . S
H1955 C1974 0.939 . S
H1956 C1976 0.950 . S
H1957 C1977 0.950 . S
H1958 C1979 0.950 . S
H1959 C1982 0.950 . S
H1960 C1983 0.950 . S
H1961 C1985 0.950 . S
H1962 C1986 0.950 . S
H1963 C1987 0.951 . S
H1964 C1989 0.951 . S
H1965 C1991 0.950 . S
H1966 C1992 0.950 . S
H1967 C1994 0.950 . S
H1968 C1997 0.950 . S
H1969 C1998 0.950 . S
H1970 C2000 0.950 . S
H1971 C2001 0.950 . S
C1972 H1954 0.951 . S
C1972 C1973 1.366 . S
C1972 C1974 1.361 1_565 S
C1973 C1972 1.366 . S
C1973 C1977 1.385 . S
C1974 H1955 0.939 . S
C1974 C1972 1.361 1_545 S
C1974 C1975 1.405 . S
C1975 C1974 1.405 . S
C1975 C1976 1.414 . S
C1975 C1978 1.499 . S
C1976 H1956 0.950 . S
C1976 C1975 1.414 . S
C1976 C1977 1.374 1_545 S
C1977 H1957 0.950 . S
C1977 C1973 1.385 . S
C1977 C1976 1.374 1_565 S
C1978 C1975 1.499 . S
C1978 C1979 1.373 . S
C1978 C1980 1.389 . S
C1979 H1958 0.950 . S
C1979 C1978 1.373 . S
C1979 C1995 1.377 . S
C1980 C1978 1.389 . S
C1980 C1981 1.524 . S
C1980 C1994 1.377 . S
C1981 C1980 1.524 . S
C1981 C1982 1.397 . S
C1981 C1986 1.363 . S
C1982 H1959 0.950 . S
C1982 C1981 1.397 . S
C1982 C1983 1.334 1_545 S
C1983 H1960 0.950 . S
C1983 C1982 1.334 1_565 S
C1983 C1984 1.287 . S
C1984 C1983 1.287 . S
C1984 C1985 1.524 . S
C1984 H2003 0.913 . S
C1985 H1961 0.950 . S
C1985 C1984 1.524 . S
C1985 C1986 1.415 1_565 S
C1986 H1962 0.950 . S
C1986 C1981 1.363 . S
C1986 C1985 1.415 1_545 S
C1987 H1963 0.951 . S
C1987 C1988 1.366 . S
C1987 C1989 1.388 . S
C1988 C1987 1.366 . S
C1988 C1992 1.385 . S
C1989 H1964 0.951 . S
C1989 C1987 1.388 . S
C1989 C1990 1.366 . S
C1990 C1989 1.366 . S
C1990 C1991 1.414 . S
C1990 C1993 1.499 . S
C1991 H1965 0.950 . S
C1991 C1990 1.414 . S
C1991 C1992 1.374 . S
C1992 H1966 0.950 . S
C1992 C1988 1.385 . S
C1992 C1991 1.374 . S
C1993 C1990 1.499 . S
C1993 C1994 1.373 . S
C1993 C1995 1.389 . S
C1994 H1967 0.950 . S
C1994 C1980 1.377 . S
C1994 C1993 1.373 . S
C1995 C1979 1.377 . S
C1995 C1993 1.389 . S
C1995 C1996 1.524 . S
C1996 C1995 1.524 . S
C1996 C1997 1.397 . S
C1996 C2001 1.363 . S
C1997 H1968 0.950 . S
C1997 C1996 1.397 . S
C1997 C1998 1.334 . S
C1998 H1969 0.950 . S
C1998 C1997 1.334 . S
C1998 C1999 1.287 . S
C1999 C1998 1.287 . S
C1999 C2000 1.524 . S
C1999 H2002 0.999 . S
C2000 H1970 0.950 . S
C2000 C1999 1.524 . S
C2000 C2001 1.415 . S
C2001 H1971 0.950 . S
C2001 C1996 1.363 . S
C2001 C2000 1.415 . S
H2002 C1999 0.999 . S
H2003 C1984 0.913 . S
H2004 C2022 0.951 . S
H2005 C2024 0.951 . S
H2006 C2026 0.950 . S
H2007 C2027 0.950 . S
H2008 C2029 0.950 . S
H2009 C2032 0.950 . S
H2010 C2033 0.950 . S
H2011 C2035 0.950 . S
H2012 C2036 0.950 . S
H2013 C2037 0.951 . S
H2014 C2039 0.951 . S
H2015 C2041 0.950 . S
H2016 C2042 0.950 . S
H2017 C2044 0.950 . S
H2018 C2047 0.950 . S
H2019 C2048 0.950 . S
H2020 C2050 0.950 . S
H2021 C2051 0.950 . S
C2022 H2004 0.951 . S
C2022 C2023 1.366 . S
C2022 C2024 1.388 . S
C2023 C2022 1.366 . S
C2023 C2027 1.385 . S
C2024 H2005 0.951 . S
C2024 C2022 1.388 . S
C2024 C2025 1.366 . S
C2025 C2024 1.366 . S
C2025 C2026 1.414 . S
C2025 C2028 1.499 . S
C2026 H2006 0.950 . S
C2026 C2025 1.414 . S
C2026 C2027 1.374 . S
C2027 H2007 0.950 . S
C2027 C2023 1.385 . S
C2027 C2026 1.374 . S
C2028 C2025 1.499 . S
C2028 C2029 1.373 . S
C2028 C2030 1.389 . S
C2029 H2008 0.950 . S
C2029 C2028 1.373 . S
C2029 C2045 1.377 . S
C2030 C2028 1.389 . S
C2030 C2031 1.524 . S
C2030 C2044 1.377 . S
C2031 C2030 1.524 . S
C2031 C2032 1.397 . S
C2031 C2036 1.363 . S
C2032 H2009 0.950 . S
C2032 C2031 1.397 . S
C2032 C2033 1.334 . S
C2033 H2010 0.950 . S
C2033 C2032 1.334 . S
C2033 C2034 1.287 . S
C2034 C2033 1.287 . S
C2034 C2035 1.524 . S
C2034 H2053 0.913 . S
C2035 H2011 0.950 . S
C2035 C2034 1.524 . S
C2035 C2036 1.415 . S
C2036 H2012 0.950 . S
C2036 C2031 1.363 . S
C2036 C2035 1.415 . S
C2037 H2013 0.951 . S
C2037 C2038 1.366 . S
C2037 C2039 1.388 . S
C2038 C2037 1.366 . S
C2038 C2042 1.385 . S
C2039 H2014 0.951 . S
C2039 C2037 1.388 . S
C2039 C2040 1.366 . S
C2040 C2039 1.366 . S
C2040 C2041 1.414 . S
C2040 C2043 1.499 . S
C2041 H2015 0.950 . S
C2041 C2040 1.414 . S
C2041 C2042 1.374 . S
C2042 H2016 0.950 . S
C2042 C2038 1.385 . S
C2042 C2041 1.374 . S
C2043 C2040 1.499 . S
C2043 C2044 1.373 . S
C2043 C2045 1.389 . S
C2044 H2017 0.950 . S
C2044 C2030 1.377 . S
C2044 C2043 1.373 . S
C2045 C2029 1.377 . S
C2045 C2043 1.389 . S
C2045 C2046 1.524 . S
C2046 C2045 1.524 . S
C2046 C2047 1.397 . S
C2046 C2051 1.363 . S
C2047 H2018 0.950 . S
C2047 C2046 1.397 . S
C2047 C2048 1.334 . S
C2048 H2019 0.950 . S
C2048 C2047 1.334 . S
C2048 C2049 1.287 . S
C2049 C2048 1.287 . S
C2049 C2050 1.524 . S
C2049 H2052 0.999 . S
C2050 H2020 0.950 . S
C2050 C2049 1.524 . S
C2050 C2051 1.415 . S
C2051 H2021 0.950 . S
C2051 C2046 1.363 . S
C2051 C2050 1.415 . S
H2052 C2049 0.999 . S
H2053 C2034 0.913 . S
H2054 C2072 0.951 . S
H2055 C2074 0.951 . S
H2056 C2076 0.950 . S
H2057 C2077 0.950 . S
H2058 C2079 0.950 . S
H2059 C2082 0.950 . S
H2060 C2083 0.950 . S
H2061 C2085 0.950 . S
H2062 C2086 0.950 . S
H2063 C2087 0.951 . S
H2064 C2089 0.951 . S
H2065 C2091 0.950 . S
H2066 C2092 0.950 . S
H2067 C2094 0.950 . S
H2068 C2097 0.950 . S
H2069 C2098 0.950 . S
H2070 C2100 0.950 . S
H2071 C2101 0.950 . S
C2072 H2054 0.951 . S
C2072 C2073 1.366 . S
C2072 C2074 1.388 . S
C2073 C2072 1.366 . S
C2073 C2077 1.385 . S
C2074 H2055 0.951 . S
C2074 C2072 1.388 . S
C2074 C2075 1.366 . S
C2075 C2074 1.366 . S
C2075 C2076 1.414 . S
C2075 C2078 1.499 . S
C2076 H2056 0.950 . S
C2076 C2075 1.414 . S
C2076 C2077 1.374 . S
C2077 H2057 0.950 . S
C2077 C2073 1.385 . S
C2077 C2076 1.374 . S
C2078 C2075 1.499 . S
C2078 C2079 1.373 . S
C2078 C2080 1.389 . S
C2079 H2058 0.950 . S
C2079 C2078 1.373 . S
C2079 C2095 1.377 . S
C2080 C2078 1.389 . S
C2080 C2081 1.524 . S
C2080 C2094 1.377 . S
C2081 C2080 1.524 . S
C2081 C2082 1.397 . S
C2081 C2086 1.363 . S
C2082 H2059 0.950 . S
C2082 C2081 1.397 . S
C2082 C2083 1.334 . S
C2083 H2060 0.950 . S
C2083 C2082 1.334 . S
C2083 C2084 1.287 . S
C2084 C2083 1.287 . S
C2084 C2085 1.524 . S
C2084 H2103 0.913 . S
C2085 H2061 0.950 . S
C2085 C2084 1.524 . S
C2085 C2086 1.415 . S
C2086 H2062 0.950 . S
C2086 C2081 1.363 . S
C2086 C2085 1.415 . S
C2087 H2063 0.951 . S
C2087 C2088 1.366 . S
C2087 C2089 1.388 . S
C2088 C2087 1.366 . S
C2088 C2092 1.385 . S
C2089 H2064 0.951 . S
C2089 C2087 1.388 . S
C2089 C2090 1.366 . S
C2090 C2089 1.366 . S
C2090 C2091 1.414 . S
C2090 C2093 1.499 . S
C2091 H2065 0.950 . S
C2091 C2090 1.414 . S
C2091 C2092 1.374 . S
C2092 H2066 0.950 . S
C2092 C2088 1.385 . S
C2092 C2091 1.374 . S
C2093 C2090 1.499 . S
C2093 C2094 1.373 . S
C2093 C2095 1.389 . S
C2094 H2067 0.950 . S
C2094 C2080 1.377 . S
C2094 C2093 1.373 . S
C2095 C2079 1.377 . S
C2095 C2093 1.389 . S
C2095 C2096 1.524 . S
C2096 C2095 1.524 . S
C2096 C2097 1.397 . S
C2096 C2101 1.363 . S
C2097 H2068 0.950 . S
C2097 C2096 1.397 . S
C2097 C2098 1.334 . S
C2098 H2069 0.950 . S
C2098 C2097 1.334 . S
C2098 C2099 1.287 . S
C2099 C2098 1.287 . S
C2099 C2100 1.524 . S
C2099 H2102 0.999 . S
C2100 H2070 0.950 . S
C2100 C2099 1.524 . S
C2100 C2101 1.415 . S
C2101 H2071 0.950 . S
C2101 C2096 1.363 . S
C2101 C2100 1.415 . S
H2102 C2099 0.999 . S
H2103 C2084 0.913 . S
H2104 C2122 0.951 . S
H2105 C2124 0.951 . S
H2106 C2126 0.950 . S
H2107 C2127 0.950 . S
H2108 C2129 0.950 . S
H2109 C2132 0.950 . S
H2110 C2133 0.950 . S
H2111 C2135 0.950 . S
H2112 C2136 0.950 . S
H2113 C2137 0.951 . S
H2114 C2139 0.951 . S
H2115 C2141 0.950 . S
H2116 C2142 0.950 . S
H2117 C2144 0.950 . S
H2118 C2147 0.950 . S
H2119 C2148 0.950 . S
H2120 C2150 0.950 . S
H2121 C2151 0.950 . S
C2122 H2104 0.951 . S
C2122 C2123 1.366 . S
C2122 C2124 1.388 . S
C2123 C2122 1.366 . S
C2123 C2127 1.385 . S
C2124 H2105 0.951 . S
C2124 C2122 1.388 . S
C2124 C2125 1.366 . S
C2125 C2124 1.366 . S
C2125 C2126 1.414 . S
C2125 C2128 1.499 . S
C2126 H2106 0.950 . S
C2126 C2125 1.414 . S
C2126 C2127 1.374 . S
C2127 H2107 0.950 . S
C2127 C2123 1.385 . S
C2127 C2126 1.374 . S
C2128 C2125 1.499 . S
C2128 C2129 1.373 . S
C2128 C2130 1.389 . S
C2129 H2108 0.950 . S
C2129 C2128 1.373 . S
C2129 C2145 1.377 . S
C2130 C2128 1.389 . S
C2130 C2131 1.524 . S
C2130 C2144 1.377 . S
C2131 C2130 1.524 . S
C2131 C2132 1.397 . S
C2131 C2136 1.363 . S
C2132 H2109 0.950 . S
C2132 C2131 1.397 . S
C2132 C2133 1.334 . S
C2133 H2110 0.950 . S
C2133 C2132 1.334 . S
C2133 C2134 1.287 . S
C2134 C2133 1.287 . S
C2134 C2135 1.524 . S
C2134 H2153 0.913 . S
C2135 H2111 0.950 . S
C2135 C2134 1.524 . S
C2135 C2136 1.415 . S
C2136 H2112 0.950 . S
C2136 C2131 1.363 . S
C2136 C2135 1.415 . S
C2137 H2113 0.951 . S
C2137 C2138 1.366 . S
C2137 C2139 1.388 . S
C2138 C2137 1.366 . S
C2138 C2142 1.385 . S
C2139 H2114 0.951 . S
C2139 C2137 1.388 . S
C2139 C2140 1.366 . S
C2140 C2139 1.366 . S
C2140 C2141 1.414 . S
C2140 C2143 1.499 . S
C2141 H2115 0.950 . S
C2141 C2140 1.414 . S
C2141 C2142 1.374 . S
C2142 H2116 0.950 . S
C2142 C2138 1.385 . S
C2142 C2141 1.374 . S
C2143 C2140 1.499 . S
C2143 C2144 1.373 . S
C2143 C2145 1.389 . S
C2144 H2117 0.950 . S
C2144 C2130 1.377 . S
C2144 C2143 1.373 . S
C2145 C2129 1.377 . S
C2145 C2143 1.389 . S
C2145 C2146 1.524 . S
C2146 C2145 1.524 . S
C2146 C2147 1.397 . S
C2146 C2151 1.363 . S
C2147 H2118 0.950 . S
C2147 C2146 1.397 . S
C2147 C2148 1.334 . S
C2148 H2119 0.950 . S
C2148 C2147 1.334 . S
C2148 C2149 1.287 . S
C2149 C2148 1.287 . S
C2149 C2150 1.524 . S
C2149 H2152 0.999 . S
C2150 H2120 0.950 . S
C2150 C2149 1.524 . S
C2150 C2151 1.415 . S
C2151 H2121 0.950 . S
C2151 C2146 1.363 . S
C2151 C2150 1.415 . S
H2152 C2149 0.999 . S
H2153 C2134 0.913 . S
H2154 C2172 0.951 . S
H2155 C2174 0.951 . S
H2156 C2176 0.950 . S
H2157 C2177 0.950 . S
H2158 C2179 0.950 . S
H2159 C2182 0.950 . S
H2160 C2183 0.950 . S
H2161 C2185 0.950 . S
H2162 C2186 0.950 . S
H2163 C2187 0.951 . S
H2164 C2189 0.951 . S
H2165 C2191 0.950 . S
H2166 C2192 0.950 . S
H2167 C2194 0.950 . S
H2168 C2197 0.950 . S
H2169 C2198 0.950 . S
H2170 C2200 0.950 . S
H2171 C2201 0.950 . S
C2172 H2154 0.951 . S
C2172 C2173 1.366 . S
C2172 C2174 1.388 . S
C2173 C2172 1.366 . S
C2173 C2177 1.385 . S
C2174 H2155 0.951 . S
C2174 C2172 1.388 . S
C2174 C2175 1.366 . S
C2175 C2174 1.366 . S
C2175 C2176 1.414 . S
C2175 C2178 1.499 . S
C2176 H2156 0.950 . S
C2176 C2175 1.414 . S
C2176 C2177 1.374 . S
C2177 H2157 0.950 . S
C2177 C2173 1.385 . S
C2177 C2176 1.374 . S
C2178 C2175 1.499 . S
C2178 C2179 1.373 . S
C2178 C2180 1.389 . S
C2179 H2158 0.950 . S
C2179 C2178 1.373 . S
C2179 C2195 1.377 . S
C2180 C2178 1.389 . S
C2180 C2181 1.524 . S
C2180 C2194 1.377 . S
C2181 C2180 1.524 . S
C2181 C2182 1.397 . S
C2181 C2186 1.363 . S
C2182 H2159 0.950 . S
C2182 C2181 1.397 . S
C2182 C2183 1.334 . S
C2183 H2160 0.950 . S
C2183 C2182 1.334 . S
C2183 C2184 1.287 . S
C2184 C2183 1.287 . S
C2184 C2185 1.524 . S
C2184 H2203 0.913 . S
C2185 H2161 0.950 . S
C2185 C2184 1.524 . S
C2185 C2186 1.415 . S
C2186 H2162 0.950 . S
C2186 C2181 1.363 . S
C2186 C2185 1.415 . S
C2187 H2163 0.951 . S
C2187 C2188 1.366 . S
C2187 C2189 1.388 . S
C2188 C2187 1.366 . S
C2188 C2192 1.385 . S
C2189 H2164 0.951 . S
C2189 C2187 1.388 . S
C2189 C2190 1.366 . S
C2190 C2189 1.366 . S
C2190 C2191 1.414 . S
C2190 C2193 1.499 . S
C2191 H2165 0.950 . S
C2191 C2190 1.414 . S
C2191 C2192 1.374 . S
C2192 H2166 0.950 . S
C2192 C2188 1.385 . S
C2192 C2191 1.374 . S
C2193 C2190 1.499 . S
C2193 C2194 1.373 . S
C2193 C2195 1.389 . S
C2194 H2167 0.950 . S
C2194 C2180 1.377 . S
C2194 C2193 1.373 . S
C2195 C2179 1.377 . S
C2195 C2193 1.389 . S
C2195 C2196 1.524 . S
C2196 C2195 1.524 . S
C2196 C2197 1.397 . S
C2196 C2201 1.363 . S
C2197 H2168 0.950 . S
C2197 C2196 1.397 . S
C2197 C2198 1.334 . S
C2198 H2169 0.950 . S
C2198 C2197 1.334 . S
C2198 C2199 1.287 . S
C2199 C2198 1.287 . S
C2199 C2200 1.524 . S
C2199 H2202 0.999 . S
C2200 H2170 0.950 . S
C2200 C2199 1.524 . S
C2200 C2201 1.415 . S
C2201 H2171 0.950 . S
C2201 C2196 1.363 . S
C2201 C2200 1.415 . S
H2202 C2199 0.999 . S
H2203 C2184 0.913 . S
H2204 C2222 0.951 . S
H2205 C2224 0.951 . S
H2206 C2226 0.950 . S
H2207 C2227 0.950 . S
H2208 C2229 0.950 . S
H2209 C2232 0.950 . S
H2210 C2233 0.950 . S
H2211 C2235 0.950 . S
H2212 C2236 0.950 . S
H2213 C2237 0.951 . S
H2214 C2239 0.951 . S
H2215 C2241 0.950 . S
H2216 C2242 0.950 . S
H2217 C2244 0.950 . S
H2218 C2247 0.950 . S
H2219 C2248 0.950 . S
H2220 C2250 0.950 . S
H2221 C2251 0.950 . S
C2222 H2204 0.951 . S
C2222 C2223 1.366 . S
C2222 C2224 1.388 . S
C2223 C2222 1.366 . S
C2223 C2227 1.385 . S
C2224 H2205 0.951 . S
C2224 C2222 1.388 . S
C2224 C2225 1.366 . S
C2225 C2224 1.366 . S
C2225 C2226 1.414 . S
C2225 C2228 1.499 . S
C2226 H2206 0.950 . S
C2226 C2225 1.414 . S
C2226 C2227 1.374 . S
C2227 H2207 0.950 . S
C2227 C2223 1.385 . S
C2227 C2226 1.374 . S
C2228 C2225 1.499 . S
C2228 C2229 1.373 . S
C2228 C2230 1.389 . S
C2229 H2208 0.950 . S
C2229 C2228 1.373 . S
C2229 C2245 1.377 . S
C2230 C2228 1.389 . S
C2230 C2231 1.524 . S
C2230 C2244 1.377 . S
C2231 C2230 1.524 . S
C2231 C2232 1.397 . S
C2231 C2236 1.363 . S
C2232 H2209 0.950 . S
C2232 C2231 1.397 . S
C2232 C2233 1.334 . S
C2233 H2210 0.950 . S
C2233 C2232 1.334 . S
C2233 C2234 1.287 . S
C2234 C2233 1.287 . S
C2234 C2235 1.524 . S
C2234 H2253 0.913 . S
C2235 H2211 0.950 . S
C2235 C2234 1.524 . S
C2235 C2236 1.415 . S
C2236 H2212 0.950 . S
C2236 C2231 1.363 . S
C2236 C2235 1.415 . S
C2237 H2213 0.951 . S
C2237 C2238 1.366 . S
C2237 C2239 1.388 . S
C2238 C2237 1.366 . S
C2238 C2242 1.385 . S
C2239 H2214 0.951 . S
C2239 C2237 1.388 . S
C2239 C2240 1.366 . S
C2240 C2239 1.366 . S
C2240 C2241 1.414 . S
C2240 C2243 1.499 . S
C2241 H2215 0.950 . S
C2241 C2240 1.414 . S
C2241 C2242 1.374 . S
C2242 H2216 0.950 . S
C2242 C2238 1.385 . S
C2242 C2241 1.374 . S
C2243 C2240 1.499 . S
C2243 C2244 1.373 . S
C2243 C2245 1.389 . S
C2244 H2217 0.950 . S
C2244 C2230 1.377 . S
C2244 C2243 1.373 . S
C2245 C2229 1.377 . S
C2245 C2243 1.389 . S
C2245 C2246 1.524 . S
C2246 C2245 1.524 . S
C2246 C2247 1.397 . S
C2246 C2251 1.363 . S
C2247 H2218 0.950 . S
C2247 C2246 1.397 . S
C2247 C2248 1.334 . S
C2248 H2219 0.950 . S
C2248 C2247 1.334 . S
C2248 C2249 1.287 . S
C2249 C2248 1.287 . S
C2249 C2250 1.524 . S
C2249 H2252 0.999 . S
C2250 H2220 0.950 . S
C2250 C2249 1.524 . S
C2250 C2251 1.415 . S
C2251 H2221 0.950 . S
C2251 C2246 1.363 . S
C2251 C2250 1.415 . S
H2252 C2249 0.999 . S
H2253 C2234 0.913 . S
H2254 C2272 0.951 . S
H2255 C2274 0.951 . S
H2256 C2276 0.950 . S
H2257 C2277 0.950 . S
H2258 C2279 0.950 . S
H2259 C2282 0.950 . S
H2260 C2283 0.950 . S
H2261 C2285 0.950 . S
H2262 C2286 0.950 . S
H2263 C2287 0.951 . S
H2264 C2289 0.951 . S
H2265 C2291 0.950 . S
H2266 C2292 0.950 . S
H2267 C2294 0.950 . S
H2268 C2297 0.950 . S
H2269 C2298 0.950 . S
H2270 C2300 0.950 . S
H2271 C2301 0.950 . S
C2272 H2254 0.951 . S
C2272 C2273 1.366 . S
C2272 C2274 1.388 . S
C2273 C2272 1.366 . S
C2273 C2277 1.385 . S
C2274 H2255 0.951 . S
C2274 C2272 1.388 . S
C2274 C2275 1.366 . S
C2275 C2274 1.366 . S
C2275 C2276 1.414 . S
C2275 C2278 1.499 . S
C2276 H2256 0.950 . S
C2276 C2275 1.414 . S
C2276 C2277 1.374 . S
C2277 H2257 0.950 . S
C2277 C2273 1.385 . S
C2277 C2276 1.374 . S
C2278 C2275 1.499 . S
C2278 C2279 1.373 . S
C2278 C2280 1.389 . S
C2279 H2258 0.950 . S
C2279 C2278 1.373 . S
C2279 C2295 1.377 . S
C2280 C2278 1.389 . S
C2280 C2281 1.524 . S
C2280 C2294 1.377 . S
C2281 C2280 1.524 . S
C2281 C2282 1.397 . S
C2281 C2286 1.363 . S
C2282 H2259 0.950 . S
C2282 C2281 1.397 . S
C2282 C2283 1.334 . S
C2283 H2260 0.950 . S
C2283 C2282 1.334 . S
C2283 C2284 1.287 . S
C2284 C2283 1.287 . S
C2284 C2285 1.524 . S
C2284 H2303 0.913 . S
C2285 H2261 0.950 . S
C2285 C2284 1.524 . S
C2285 C2286 1.415 . S
C2286 H2262 0.950 . S
C2286 C2281 1.363 . S
C2286 C2285 1.415 . S
C2287 H2263 0.951 . S
C2287 C2288 1.366 . S
C2287 C2289 1.388 . S
C2288 C2287 1.366 . S
C2288 C2292 1.385 . S
C2289 H2264 0.951 . S
C2289 C2287 1.388 . S
C2289 C2290 1.366 . S
C2290 C2289 1.366 . S
C2290 C2291 1.414 . S
C2290 C2293 1.499 . S
C2291 H2265 0.950 . S
C2291 C2290 1.414 . S
C2291 C2292 1.374 . S
C2292 H2266 0.950 . S
C2292 C2288 1.385 . S
C2292 C2291 1.374 . S
C2293 C2290 1.499 . S
C2293 C2294 1.373 . S
C2293 C2295 1.389 . S
C2294 H2267 0.950 . S
C2294 C2280 1.377 . S
C2294 C2293 1.373 . S
C2295 C2279 1.377 . S
C2295 C2293 1.389 . S
C2295 C2296 1.524 . S
C2296 C2295 1.524 . S
C2296 C2297 1.397 . S
C2296 C2301 1.363 . S
C2297 H2268 0.950 . S
C2297 C2296 1.397 . S
C2297 C2298 1.334 . S
C2298 H2269 0.950 . S
C2298 C2297 1.334 . S
C2298 C2299 1.287 . S
C2299 C2298 1.287 . S
C2299 C2300 1.524 . S
C2299 H2302 0.999 . S
C2300 H2270 0.950 . S
C2300 C2299 1.524 . S
C2300 C2301 1.415 . S
C2301 H2271 0.950 . S
C2301 C2296 1.363 . S
C2301 C2300 1.415 . S
H2302 C2299 0.999 . S
H2303 C2284 0.913 . S
H2304 C2322 0.951 . S
H2305 C2324 0.951 . S
H2306 C2326 0.950 . S
H2307 C2327 0.950 . S
H2308 C2329 0.950 . S
H2309 C2332 0.950 . S
H2310 C2333 0.950 . S
H2311 C2335 0.950 . S
H2312 C2336 0.950 . S
H2313 C2337 0.951 . S
H2314 C2339 0.951 . S
H2315 C2341 0.950 . S
H2316 C2342 0.950 . S
H2317 C2344 0.950 . S
H2318 C2347 0.950 . S
H2319 C2348 0.950 . S
H2320 C2350 0.950 . S
H2321 C2351 0.950 . S
C2322 H2304 0.951 . S
C2322 C2323 1.366 . S
C2322 C2324 1.388 . S
C2323 C2322 1.366 . S
C2323 C2327 1.385 . S
C2324 H2305 0.951 . S
C2324 C2322 1.388 . S
C2324 C2325 1.366 . S
C2325 C2324 1.366 . S
C2325 C2326 1.414 . S
C2325 C2328 1.499 . S
C2326 H2306 0.950 . S
C2326 C2325 1.414 . S
C2326 C2327 1.374 . S
C2327 H2307 0.950 . S
C2327 C2323 1.385 . S
C2327 C2326 1.374 . S
C2328 C2325 1.499 . S
C2328 C2329 1.373 . S
C2328 C2330 1.389 . S
C2329 H2308 0.950 . S
C2329 C2328 1.373 . S
C2329 C2345 1.377 . S
C2330 C2328 1.389 . S
C2330 C2331 1.524 . S
C2330 C2344 1.377 . S
C2331 C2330 1.524 . S
C2331 C2332 1.397 . S
C2331 C2336 1.363 . S
C2332 H2309 0.950 . S
C2332 C2331 1.397 . S
C2332 C2333 1.334 . S
C2333 H2310 0.950 . S
C2333 C2332 1.334 . S
C2333 C2334 1.287 . S
C2334 C2333 1.287 . S
C2334 C2335 1.524 . S
C2334 H2353 0.913 . S
C2335 H2311 0.950 . S
C2335 C2334 1.524 . S
C2335 C2336 1.415 . S
C2336 H2312 0.950 . S
C2336 C2331 1.363 . S
C2336 C2335 1.415 . S
C2337 H2313 0.951 . S
C2337 C2338 1.366 . S
C2337 C2339 1.388 . S
C2338 C2337 1.366 . S
C2338 C2342 1.385 . S
C2339 H2314 0.951 . S
C2339 C2337 1.388 . S
C2339 C2340 1.366 . S
C2340 C2339 1.366 . S
C2340 C2341 1.414 . S
C2340 C2343 1.499 . S
C2341 H2315 0.950 . S
C2341 C2340 1.414 . S
C2341 C2342 1.374 . S
C2342 H2316 0.950 . S
C2342 C2338 1.385 . S
C2342 C2341 1.374 . S
C2343 C2340 1.499 . S
C2343 C2344 1.373 . S
C2343 C2345 1.389 . S
C2344 H2317 0.950 . S
C2344 C2330 1.377 . S
C2344 C2343 1.373 . S
C2345 C2329 1.377 . S
C2345 C2343 1.389 . S
C2345 C2346 1.524 . S
C2346 C2345 1.524 . S
C2346 C2347 1.397 . S
C2346 C2351 1.363 . S
C2347 H2318 0.950 . S
C2347 C2346 1.397 . S
C2347 C2348 1.334 . S
C2348 H2319 0.950 . S
C2348 C2347 1.334 . S
C2348 C2349 1.287 . S
C2349 C2348 1.287 . S
C2349 C2350 1.524 . S
C2349 H2352 0.999 . S
C2350 H2320 0.950 . S
C2350 C2349 1.524 . S
C2350 C2351 1.415 . S
C2351 H2321 0.950 . S
C2351 C2346 1.363 . S
C2351 C2350 1.415 . S
H2352 C2349 0.999 . S
H2353 C2334 0.913 . S
H2354 C2372 0.951 . S
H2355 C2374 0.951 . S
H2356 C2376 0.950 . S
H2357 C2377 0.950 . S
H2358 C2379 0.950 . S
H2359 C2382 0.950 . S
H2360 C2383 0.950 . S
H2361 C2385 0.950 . S
H2362 C2386 0.950 . S
H2363 C2387 0.951 . S
H2364 C2389 0.951 . S
H2365 C2391 0.950 . S
H2366 C2392 0.950 . S
H2367 C2394 0.950 . S
H2368 C2397 0.950 . S
H2369 C2398 0.950 . S
H2370 C2400 0.950 . S
H2371 C2401 0.950 . S
C2372 H2354 0.951 . S
C2372 C2373 1.366 . S
C2372 C2374 1.388 . S
C2373 C2372 1.366 . S
C2373 C2377 1.385 . S
C2374 H2355 0.951 . S
C2374 C2372 1.388 . S
C2374 C2375 1.366 . S
C2375 C2374 1.366 . S
C2375 C2376 1.414 . S
C2375 C2378 1.499 . S
C2376 H2356 0.950 . S
C2376 C2375 1.414 . S
C2376 C2377 1.374 . S
C2377 H2357 0.950 . S
C2377 C2373 1.385 . S
C2377 C2376 1.374 . S
C2378 C2375 1.499 . S
C2378 C2379 1.373 . S
C2378 C2380 1.389 . S
C2379 H2358 0.950 . S
C2379 C2378 1.373 . S
C2379 C2395 1.377 . S
C2380 C2378 1.389 . S
C2380 C2381 1.524 . S
C2380 C2394 1.377 . S
C2381 C2380 1.524 . S
C2381 C2382 1.397 . S
C2381 C2386 1.363 . S
C2382 H2359 0.950 . S
C2382 C2381 1.397 . S
C2382 C2383 1.334 . S
C2383 H2360 0.950 . S
C2383 C2382 1.334 . S
C2383 C2384 1.287 . S
C2384 C2383 1.287 . S
C2384 C2385 1.524 . S
C2384 H2403 0.913 . S
C2385 H2361 0.950 . S
C2385 C2384 1.524 . S
C2385 C2386 1.415 . S
C2386 H2362 0.950 . S
C2386 C2381 1.363 . S
C2386 C2385 1.415 . S
C2387 H2363 0.951 . S
C2387 C2388 1.366 . S
C2387 C2389 1.388 . S
C2388 C2387 1.366 . S
C2388 C2392 1.385 . S
C2389 H2364 0.951 . S
C2389 C2387 1.388 . S
C2389 C2390 1.366 . S
C2390 C2389 1.366 . S
C2390 C2391 1.414 . S
C2390 C2393 1.499 . S
C2391 H2365 0.950 . S
C2391 C2390 1.414 . S
C2391 C2392 1.374 . S
C2392 H2366 0.950 . S
C2392 C2388 1.385 . S
C2392 C2391 1.374 . S
C2393 C2390 1.499 . S
C2393 C2394 1.373 . S
C2393 C2395 1.389 . S
C2394 H2367 0.950 . S
C2394 C2380 1.377 . S
C2394 C2393 1.373 . S
C2395 C2379 1.377 . S
C2395 C2393 1.389 . S
C2395 C2396 1.524 . S
C2396 C2395 1.524 . S
C2396 C2397 1.397 . S
C2396 C2401 1.363 . S
C2397 H2368 0.950 . S
C2397 C2396 1.397 . S
C2397 C2398 1.334 . S
C2398 H2369 0.950 . S
C2398 C2397 1.334 . S
C2398 C2399 1.287 . S
C2399 C2398 1.287 . S
C2399 C2400 1.524 . S
C2399 H2402 0.999 . S
C2400 H2370 0.950 . S
C2400 C2399 1.524 . S
C2400 C2401 1.415 . S
C2401 H2371 0.950 . S
C2401 C2396 1.363 . S
C2401 C2400 1.415 . S
H2402 C2399 0.999 . S
H2403 C2384 0.913 . S
H2404 C2422 0.951 . S
H2405 C2424 0.951 . S
H2406 C2426 0.950 . S
H2407 C2427 0.950 . S
H2408 C2429 0.950 . S
H2409 C2432 0.950 . S
H2410 C2433 0.950 . S
H2411 C2435 0.950 . S
H2412 C2436 0.950 . S
H2413 C2437 0.951 . S
H2414 C2439 0.951 . S
H2415 C2441 0.950 . S
H2416 C2442 0.950 . S
H2417 C2444 0.950 . S
H2418 C2447 0.950 . S
H2419 C2448 0.950 . S
H2420 C2450 0.950 . S
H2421 C2451 0.950 . S
C2422 H2404 0.951 . S
C2422 C2423 1.366 . S
C2422 C2424 1.388 . S
C2423 C2422 1.366 . S
C2423 C2427 1.385 . S
C2424 H2405 0.951 . S
C2424 C2422 1.388 . S
C2424 C2425 1.366 . S
C2425 C2424 1.366 . S
C2425 C2426 1.414 . S
C2425 C2428 1.499 . S
C2426 H2406 0.950 . S
C2426 C2425 1.414 . S
C2426 C2427 1.374 . S
C2427 H2407 0.950 . S
C2427 C2423 1.385 . S
C2427 C2426 1.374 . S
C2428 C2425 1.499 . S
C2428 C2429 1.373 . S
C2428 C2430 1.389 . S
C2429 H2408 0.950 . S
C2429 C2428 1.373 . S
C2429 C2445 1.377 . S
C2430 C2428 1.389 . S
C2430 C2431 1.524 . S
C2430 C2444 1.377 . S
C2431 C2430 1.524 . S
C2431 C2432 1.397 . S
C2431 C2436 1.363 . S
C2432 H2409 0.950 . S
C2432 C2431 1.397 . S
C2432 C2433 1.334 . S
C2433 H2410 0.950 . S
C2433 C2432 1.334 . S
C2433 C2434 1.287 . S
C2434 C2433 1.287 . S
C2434 C2435 1.524 . S
C2434 H2453 0.913 . S
C2435 H2411 0.950 . S
C2435 C2434 1.524 . S
C2435 C2436 1.415 . S
C2436 H2412 0.950 . S
C2436 C2431 1.363 . S
C2436 C2435 1.415 . S
C2437 H2413 0.951 . S
C2437 C2438 1.366 . S
C2437 C2439 1.388 . S
C2438 C2437 1.366 . S
C2438 C2442 1.385 . S
C2439 H2414 0.951 . S
C2439 C2437 1.388 . S
C2439 C2440 1.366 . S
C2440 C2439 1.366 . S
C2440 C2441 1.414 . S
C2440 C2443 1.499 . S
C2441 H2415 0.950 . S
C2441 C2440 1.414 . S
C2441 C2442 1.374 . S
C2442 H2416 0.950 . S
C2442 C2438 1.385 . S
C2442 C2441 1.374 . S
C2443 C2440 1.499 . S
C2443 C2444 1.373 . S
C2443 C2445 1.389 . S
C2444 H2417 0.950 . S
C2444 C2430 1.377 . S
C2444 C2443 1.373 . S
C2445 C2429 1.377 . S
C2445 C2443 1.389 . S
C2445 C2446 1.524 . S
C2446 C2445 1.524 . S
C2446 C2447 1.397 . S
C2446 C2451 1.363 . S
C2447 H2418 0.950 . S
C2447 C2446 1.397 . S
C2447 C2448 1.334 . S
C2448 H2419 0.950 . S
C2448 C2447 1.334 . S
C2448 C2449 1.287 . S
C2449 C2448 1.287 . S
C2449 C2450 1.524 . S
C2449 H2452 0.999 . S
C2450 H2420 0.950 . S
C2450 C2449 1.524 . S
C2450 C2451 1.415 . S
C2451 H2421 0.950 . S
C2451 C2446 1.363 . S
C2451 C2450 1.415 . S
H2452 C2449 0.999 . S
H2453 C2434 0.913 . S
H2454 C2472 0.951 . S
H2455 C2474 0.951 . S
H2456 C2476 0.950 . S
H2457 C2477 0.950 . S
H2458 C2479 0.950 . S
H2459 C2482 0.950 . S
H2460 C2483 0.950 . S
H2461 C2485 0.950 . S
H2462 C2486 0.950 . S
H2463 C2487 0.951 . S
H2464 C2489 0.951 . S
H2465 C2491 0.950 . S
H2466 C2492 0.950 . S
H2467 C2494 0.950 . S
H2468 C2497 0.950 . S
H2469 C2498 0.950 . S
H2470 C2500 0.950 . S
H2471 C2501 0.950 . S
C2472 H2454 0.951 . S
C2472 C2473 1.366 . S
C2472 C2474 1.388 . S
C2473 C2472 1.366 . S
C2473 C2477 1.385 . S
C2474 H2455 0.951 . S
C2474 C2472 1.388 . S
C2474 C2475 1.366 . S
C2475 C2474 1.366 . S
C2475 C2476 1.414 . S
C2475 C2478 1.499 . S
C2476 H2456 0.950 . S
C2476 C2475 1.414 . S
C2476 C2477 1.374 . S
C2477 H2457 0.950 . S
C2477 C2473 1.385 . S
C2477 C2476 1.374 . S
C2478 C2475 1.499 . S
C2478 C2479 1.373 . S
C2478 C2480 1.389 . S
C2479 H2458 0.950 . S
C2479 C2478 1.373 . S
C2479 C2495 1.377 . S
C2480 C2478 1.389 . S
C2480 C2481 1.524 . S
C2480 C2494 1.377 . S
C2481 C2480 1.524 . S
C2481 C2482 1.397 . S
C2481 C2486 1.363 . S
C2482 H2459 0.950 . S
C2482 C2481 1.397 . S
C2482 C2483 1.334 . S
C2483 H2460 0.950 . S
C2483 C2482 1.334 . S
C2483 C2484 1.287 . S
C2484 C2483 1.287 . S
C2484 C2485 1.524 . S
C2484 H2503 0.913 . S
C2485 H2461 0.950 . S
C2485 C2484 1.524 . S
C2485 C2486 1.415 . S
C2486 H2462 0.950 . S
C2486 C2481 1.363 . S
C2486 C2485 1.415 . S
C2487 H2463 0.951 . S
C2487 C2488 1.366 . S
C2487 C2489 1.388 . S
C2488 C2487 1.366 . S
C2488 C2492 1.385 . S
C2489 H2464 0.951 . S
C2489 C2487 1.388 . S
C2489 C2490 1.366 . S
C2490 C2489 1.366 . S
C2490 C2491 1.414 . S
C2490 C2493 1.499 . S
C2491 H2465 0.950 . S
C2491 C2490 1.414 . S
C2491 C2492 1.374 . S
C2492 H2466 0.950 . S
C2492 C2488 1.385 . S
C2492 C2491 1.374 . S
C2493 C2490 1.499 . S
C2493 C2494 1.373 . S
C2493 C2495 1.389 . S
C2494 H2467 0.950 . S
C2494 C2480 1.377 . S
C2494 C2493 1.373 . S
C2495 C2479 1.377 . S
C2495 C2493 1.389 . S
C2495 C2496 1.524 . S
C2496 C2495 1.524 . S
C2496 C2497 1.397 . S
C2496 C2501 1.363 . S
C2497 H2468 0.950 . S
C2497 C2496 1.397 . S
C2497 C2498 1.334 . S
C2498 H2469 0.950 . S
C2498 C2497 1.334 . S
C2498 C2499 1.287 . S
C2499 C2498 1.287 . S
C2499 C2500 1.524 . S
C2499 H2502 0.999 . S
C2500 H2470 0.950 . S
C2500 C2499 1.524 . S
C2500 C2501 1.415 . S
C2501 H2471 0.950 . S
C2501 C2496 1.363 . S
C2501 C2500 1.415 . S
H2502 C2499 0.999 . S
H2503 C2484 0.913 . S
H2504 C2522 0.951 . S
H2505 C2524 0.951 . S
H2506 C2526 0.950 . S
H2507 C2527 0.950 . S
H2508 C2529 0.950 . S
H2509 C2532 0.950 . S
H2510 C2533 0.950 . S
H2511 C2535 0.950 . S
H2512 C2536 0.950 . S
H2513 C2537 0.951 . S
H2514 C2539 0.951 . S
H2515 C2541 0.950 . S
H2516 C2542 0.950 . S
H2517 C2544 0.950 . S
H2518 C2547 0.950 . S
H2519 C2548 0.950 . S
H2520 C2550 0.950 . S
H2521 C2551 0.950 . S
C2522 H2504 0.951 . S
C2522 C2523 1.366 . S
C2522 C2524 1.388 . S
C2523 C2522 1.366 . S
C2523 C2527 1.385 . S
C2524 H2505 0.951 . S
C2524 C2522 1.388 . S
C2524 C2525 1.366 . S
C2525 C2524 1.366 . S
C2525 C2526 1.414 . S
C2525 C2528 1.499 . S
C2526 H2506 0.950 . S
C2526 C2525 1.414 . S
C2526 C2527 1.374 . S
C2527 H2507 0.950 . S
C2527 C2523 1.385 . S
C2527 C2526 1.374 . S
C2528 C2525 1.499 . S
C2528 C2529 1.373 . S
C2528 C2530 1.389 . S
C2529 H2508 0.950 . S
C2529 C2528 1.373 . S
C2529 C2545 1.377 . S
C2530 C2528 1.389 . S
C2530 C2531 1.524 . S
C2530 C2544 1.377 . S
C2531 C2530 1.524 . S
C2531 C2532 1.397 . S
C2531 C2536 1.363 . S
C2532 H2509 0.950 . S
C2532 C2531 1.397 . S
C2532 C2533 1.334 . S
C2533 H2510 0.950 . S
C2533 C2532 1.334 . S
C2533 C2534 1.287 . S
C2534 C2533 1.287 . S
C2534 C2535 1.524 . S
C2534 H2553 0.913 . S
C2535 H2511 0.950 . S
C2535 C2534 1.524 . S
C2535 C2536 1.415 . S
C2536 H2512 0.950 . S
C2536 C2531 1.363 . S
C2536 C2535 1.415 . S
C2537 H2513 0.951 . S
C2537 C2538 1.366 . S
C2537 C2539 1.388 . S
C2538 C2537 1.366 . S
C2538 C2542 1.385 . S
C2539 H2514 0.951 . S
C2539 C2537 1.388 . S
C2539 C2540 1.366 . S
C2540 C2539 1.366 . S
C2540 C2541 1.414 . S
C2540 C2543 1.499 . S
C2541 H2515 0.950 . S
C2541 C2540 1.414 . S
C2541 C2542 1.374 . S
C2542 H2516 0.950 . S
C2542 C2538 1.385 . S
C2542 C2541 1.374 . S
C2543 C2540 1.499 . S
C2543 C2544 1.373 . S
C2543 C2545 1.389 . S
C2544 H2517 0.950 . S
C2544 C2530 1.377 . S
C2544 C2543 1.373 . S
C2545 C2529 1.377 . S
C2545 C2543 1.389 . S
C2545 C2546 1.524 . S
C2546 C2545 1.524 . S
C2546 C2547 1.397 . S
C2546 C2551 1.363 . S
C2547 H2518 0.950 . S
C2547 C2546 1.397 . S
C2547 C2548 1.334 . S
C2548 H2519 0.950 . S
C2548 C2547 1.334 . S
C2548 C2549 1.287 . S
C2549 C2548 1.287 . S
C2549 C2550 1.524 . S
C2549 H2552 0.999 . S
C2550 H2520 0.950 . S
C2550 C2549 1.524 . S
C2550 C2551 1.415 . S
C2551 H2521 0.950 . S
C2551 C2546 1.363 . S
C2551 C2550 1.415 . S
H2552 C2549 0.999 . S
H2553 C2534 0.913 . S
H2554 C2572 0.951 . S
H2555 C2574 0.951 . S
H2556 C2576 0.950 . S
H2557 C2577 0.950 . S
H2558 C2579 0.950 . S
H2559 C2582 0.950 . S
H2560 C2583 0.950 . S
H2561 C2585 0.950 . S
H2562 C2586 0.950 . S
H2563 C2587 0.951 . S
H2564 C2589 0.951 . S
H2565 C2591 0.950 . S
H2566 C2592 0.950 . S
H2567 C2594 0.950 . S
H2568 C2597 0.950 . S
H2569 C2598 0.950 . S
H2570 C2600 0.950 . S
H2571 C2601 0.950 . S
C2572 H2554 0.951 . S
C2572 C2573 1.366 . S
C2572 C2574 1.388 . S
C2573 C2572 1.366 . S
C2573 C2577 1.385 . S
C2574 H2555 0.951 . S
C2574 C2572 1.388 . S
C2574 C2575 1.366 . S
C2575 C2574 1.366 . S
C2575 C2576 1.414 . S
C2575 C2578 1.499 . S
C2576 H2556 0.950 . S
C2576 C2575 1.414 . S
C2576 C2577 1.374 . S
C2577 H2557 0.950 . S
C2577 C2573 1.385 . S
C2577 C2576 1.374 . S
C2578 C2575 1.499 . S
C2578 C2579 1.373 . S
C2578 C2580 1.389 . S
C2579 H2558 0.950 . S
C2579 C2578 1.373 . S
C2579 C2595 1.377 . S
C2580 C2578 1.389 . S
C2580 C2581 1.524 . S
C2580 C2594 1.377 . S
C2581 C2580 1.524 . S
C2581 C2582 1.397 . S
C2581 C2586 1.363 . S
C2582 H2559 0.950 . S
C2582 C2581 1.397 . S
C2582 C2583 1.334 . S
C2583 H2560 0.950 . S
C2583 C2582 1.334 . S
C2583 C2584 1.287 . S
C2584 C2583 1.287 . S
C2584 C2585 1.524 . S
C2584 H2603 0.913 . S
C2585 H2561 0.950 . S
C2585 C2584 1.524 . S
C2585 C2586 1.415 . S
C2586 H2562 0.950 . S
C2586 C2581 1.363 . S
C2586 C2585 1.415 . S
C2587 H2563 0.951 . S
C2587 C2588 1.366 . S
C2587 C2589 1.388 . S
C2588 C2587 1.366 . S
C2588 C2592 1.385 . S
C2589 H2564 0.951 . S
C2589 C2587 1.388 . S
C2589 C2590 1.366 . S
C2590 C2589 1.366 . S
C2590 C2591 1.414 . S
C2590 C2593 1.499 . S
C2591 H2565 0.950 . S
C2591 C2590 1.414 . S
C2591 C2592 1.374 . S
C2592 H2566 0.950 . S
C2592 C2588 1.385 . S
C2592 C2591 1.374 . S
C2593 C2590 1.499 . S
C2593 C2594 1.373 . S
C2593 C2595 1.389 . S
C2594 H2567 0.950 . S
C2594 C2580 1.377 . S
C2594 C2593 1.373 . S
C2595 C2579 1.377 . S
C2595 C2593 1.389 . S
C2595 C2596 1.524 . S
C2596 C2595 1.524 . S
C2596 C2597 1.397 . S
C2596 C2601 1.363 . S
C2597 H2568 0.950 . S
C2597 C2596 1.397 . S
C2597 C2598 1.334 . S
C2598 H2569 0.950 . S
C2598 C2597 1.334 . S
C2598 C2599 1.287 . S
C2599 C2598 1.287 . S
C2599 C2600 1.524 . S
C2599 H2602 0.999 . S
C2600 H2570 0.950 . S
C2600 C2599 1.524 . S
C2600 C2601 1.415 . S
C2601 H2571 0.950 . S
C2601 C2596 1.363 . S
C2601 C2600 1.415 . S
H2602 C2599 0.999 . S
H2603 C2584 0.913 . S
H2604 C2622 0.951 . S
H2605 C2624 0.951 . S
H2606 C2626 0.950 . S
H2607 C2627 0.950 . S
H2608 C2629 0.950 . S
H2609 C2632 0.950 . S
H2610 C2633 0.950 . S
H2611 C2635 0.950 . S
H2612 C2636 0.950 . S
H2613 C2637 0.951 . S
H2614 C2639 0.951 . S
H2615 C2641 0.950 . S
H2616 C2642 0.950 . S
H2617 C2644 0.950 . S
H2618 C2647 0.950 . S
H2619 C2648 0.950 . S
H2620 C2650 0.950 . S
H2621 C2651 0.950 . S
C2622 H2604 0.951 . S
C2622 C2623 1.366 . S
C2622 C2624 1.388 . S
C2623 C2622 1.366 . S
C2623 C2627 1.385 . S
C2624 H2605 0.951 . S
C2624 C2622 1.388 . S
C2624 C2625 1.366 . S
C2625 C2624 1.366 . S
C2625 C2626 1.414 . S
C2625 C2628 1.499 . S
C2626 H2606 0.950 . S
C2626 C2625 1.414 . S
C2626 C2627 1.374 . S
C2627 H2607 0.950 . S
C2627 C2623 1.385 . S
C2627 C2626 1.374 . S
C2628 C2625 1.499 . S
C2628 C2629 1.373 . S
C2628 C2630 1.389 . S
C2629 H2608 0.950 . S
C2629 C2628 1.373 . S
C2629 C2645 1.377 . S
C2630 C2628 1.389 . S
C2630 C2631 1.524 . S
C2630 C2644 1.377 . S
C2631 C2630 1.524 . S
C2631 C2632 1.397 . S
C2631 C2636 1.363 . S
C2632 H2609 0.950 . S
C2632 C2631 1.397 . S
C2632 C2633 1.334 . S
C2633 H2610 0.950 . S
C2633 C2632 1.334 . S
C2633 C2634 1.287 . S
C2634 C2633 1.287 . S
C2634 C2635 1.524 . S
C2634 H2653 0.913 . S
C2635 H2611 0.950 . S
C2635 C2634 1.524 . S
C2635 C2636 1.415 . S
C2636 H2612 0.950 . S
C2636 C2631 1.363 . S
C2636 C2635 1.415 . S
C2637 H2613 0.951 . S
C2637 C2638 1.366 . S
C2637 C2639 1.388 . S
C2638 C2637 1.366 . S
C2638 C2642 1.385 . S
C2639 H2614 0.951 . S
C2639 C2637 1.388 . S
C2639 C2640 1.366 . S
C2640 C2639 1.366 . S
C2640 C2641 1.414 . S
C2640 C2643 1.499 . S
C2641 H2615 0.950 . S
C2641 C2640 1.414 . S
C2641 C2642 1.374 . S
C2642 H2616 0.950 . S
C2642 C2638 1.385 . S
C2642 C2641 1.374 . S
C2643 C2640 1.499 . S
C2643 C2644 1.373 . S
C2643 C2645 1.389 . S
C2644 H2617 0.950 . S
C2644 C2630 1.377 . S
C2644 C2643 1.373 . S
C2645 C2629 1.377 . S
C2645 C2643 1.389 . S
C2645 C2646 1.524 . S
C2646 C2645 1.524 . S
C2646 C2647 1.397 . S
C2646 C2651 1.363 . S
C2647 H2618 0.950 . S
C2647 C2646 1.397 . S
C2647 C2648 1.334 . S
C2648 H2619 0.950 . S
C2648 C2647 1.334 . S
C2648 C2649 1.287 . S
C2649 C2648 1.287 . S
C2649 C2650 1.524 . S
C2649 H2652 0.999 . S
C2650 H2620 0.950 . S
C2650 C2649 1.524 . S
C2650 C2651 1.415 . S
C2651 H2621 0.950 . S
C2651 C2646 1.363 . S
C2651 C2650 1.415 . S
H2652 C2649 0.999 . S
H2653 C2634 0.913 . S
H2654 C2672 0.951 . S
H2655 C2674 0.951 . S
H2656 C2676 0.950 . S
H2657 C2677 0.950 . S
H2658 C2679 0.950 . S
H2659 C2682 0.950 . S
H2660 C2683 0.950 . S
H2661 C2685 0.950 . S
H2662 C2686 0.950 . S
H2663 C2687 0.951 . S
H2664 C2689 0.951 . S
H2665 C2691 0.950 . S
H2666 C2692 0.950 . S
H2667 C2694 0.950 . S
H2668 C2697 0.950 . S
H2669 C2698 0.950 . S
H2670 C2700 0.950 . S
H2671 C2701 0.950 . S
C2672 H2654 0.951 . S
C2672 C2673 1.366 . S
C2672 C2674 1.388 . S
C2673 C2672 1.366 . S
C2673 C2677 1.385 . S
C2674 H2655 0.951 . S
C2674 C2672 1.388 . S
C2674 C2675 1.366 . S
C2675 C2674 1.366 . S
C2675 C2676 1.414 . S
C2675 C2678 1.499 . S
C2676 H2656 0.950 . S
C2676 C2675 1.414 . S
C2676 C2677 1.374 . S
C2677 H2657 0.950 . S
C2677 C2673 1.385 . S
C2677 C2676 1.374 . S
C2678 C2675 1.499 . S
C2678 C2679 1.373 . S
C2678 C2680 1.389 . S
C2679 H2658 0.950 . S
C2679 C2678 1.373 . S
C2679 C2695 1.377 . S
C2680 C2678 1.389 . S
C2680 C2681 1.524 . S
C2680 C2694 1.377 . S
C2681 C2680 1.524 . S
C2681 C2682 1.397 . S
C2681 C2686 1.363 . S
C2682 H2659 0.950 . S
C2682 C2681 1.397 . S
C2682 C2683 1.334 . S
C2683 H2660 0.950 . S
C2683 C2682 1.334 . S
C2683 C2684 1.287 . S
C2684 C2683 1.287 . S
C2684 C2685 1.524 . S
C2684 H2703 0.913 . S
C2685 H2661 0.950 . S
C2685 C2684 1.524 . S
C2685 C2686 1.415 . S
C2686 H2662 0.950 . S
C2686 C2681 1.363 . S
C2686 C2685 1.415 . S
C2687 H2663 0.951 . S
C2687 C2688 1.366 . S
C2687 C2689 1.388 . S
C2688 C2687 1.366 . S
C2688 C2692 1.385 . S
C2689 H2664 0.951 . S
C2689 C2687 1.388 . S
C2689 C2690 1.366 . S
C2690 C2689 1.366 . S
C2690 C2691 1.414 . S
C2690 C2693 1.499 . S
C2691 H2665 0.950 . S
C2691 C2690 1.414 . S
C2691 C2692 1.374 . S
C2692 H2666 0.950 . S
C2692 C2688 1.385 . S
C2692 C2691 1.374 . S
C2693 C2690 1.499 . S
C2693 C2694 1.373 . S
C2693 C2695 1.389 . S
C2694 H2667 0.950 . S
C2694 C2680 1.377 . S
C2694 C2693 1.373 . S
C2695 C2679 1.377 . S
C2695 C2693 1.389 . S
C2695 C2696 1.524 . S
C2696 C2695 1.524 . S
C2696 C2697 1.397 . S
C2696 C2701 1.363 . S
C2697 H2668 0.950 . S
C2697 C2696 1.397 . S
C2697 C2698 1.334 . S
C2698 H2669 0.950 . S
C2698 C2697 1.334 . S
C2698 C2699 1.287 . S
C2699 C2698 1.287 . S
C2699 C2700 1.524 . S
C2699 H2702 0.999 . S
C2700 H2670 0.950 . S
C2700 C2699 1.524 . S
C2700 C2701 1.415 . S
C2701 H2671 0.950 . S
C2701 C2696 1.363 . S
C2701 C2700 1.415 . S
H2702 C2699 0.999 . S
H2703 C2684 0.913 . S
H2704 C2722 0.951 . S
H2705 C2724 0.951 . S
H2706 C2726 0.950 . S
H2707 C2727 0.950 . S
H2708 C2729 0.950 . S
H2709 C2732 0.950 . S
H2710 C2733 0.950 . S
H2711 C2735 0.950 . S
H2712 C2736 0.950 . S
H2713 C2737 0.951 . S
H2714 C2739 0.951 . S
H2715 C2741 0.950 . S
H2716 C2742 0.950 . S
H2717 C2744 0.950 . S
H2718 C2747 0.950 . S
H2719 C2748 0.950 . S
H2720 C2750 0.950 . S
H2721 C2751 0.950 . S
C2722 H2704 0.951 . S
C2722 C2723 1.366 . S
C2722 C2724 1.388 . S
C2723 C2722 1.366 . S
C2723 C2727 1.385 . S
C2724 H2705 0.951 . S
C2724 C2722 1.388 . S
C2724 C2725 1.366 . S
C2725 C2724 1.366 . S
C2725 C2726 1.414 . S
C2725 C2728 1.499 . S
C2726 H2706 0.950 . S
C2726 C2725 1.414 . S
C2726 C2727 1.374 . S
C2727 H2707 0.950 . S
C2727 C2723 1.385 . S
C2727 C2726 1.374 . S
C2728 C2725 1.499 . S
C2728 C2729 1.373 . S
C2728 C2730 1.389 . S
C2729 H2708 0.950 . S
C2729 C2728 1.373 . S
C2729 C2745 1.377 . S
C2730 C2728 1.389 . S
C2730 C2731 1.524 . S
C2730 C2744 1.377 . S
C2731 C2730 1.524 . S
C2731 C2732 1.397 . S
C2731 C2736 1.363 . S
C2732 H2709 0.950 . S
C2732 C2731 1.397 . S
C2732 C2733 1.334 . S
C2733 H2710 0.950 . S
C2733 C2732 1.334 . S
C2733 C2734 1.287 . S
C2734 C2733 1.287 . S
C2734 C2735 1.524 . S
C2734 H2753 0.913 . S
C2735 H2711 0.950 . S
C2735 C2734 1.524 . S
C2735 C2736 1.415 . S
C2736 H2712 0.950 . S
C2736 C2731 1.363 . S
C2736 C2735 1.415 . S
C2737 H2713 0.951 . S
C2737 C2738 1.366 . S
C2737 C2739 1.388 . S
C2738 C2737 1.366 . S
C2738 C2742 1.385 . S
C2739 H2714 0.951 . S
C2739 C2737 1.388 . S
C2739 C2740 1.366 . S
C2740 C2739 1.366 . S
C2740 C2741 1.414 . S
C2740 C2743 1.499 . S
C2741 H2715 0.950 . S
C2741 C2740 1.414 . S
C2741 C2742 1.374 . S
C2742 H2716 0.950 . S
C2742 C2738 1.385 . S
C2742 C2741 1.374 . S
C2743 C2740 1.499 . S
C2743 C2744 1.373 . S
C2743 C2745 1.389 . S
C2744 H2717 0.950 . S
C2744 C2730 1.377 . S
C2744 C2743 1.373 . S
C2745 C2729 1.377 . S
C2745 C2743 1.389 . S
C2745 C2746 1.524 . S
C2746 C2745 1.524 . S
C2746 C2747 1.397 . S
C2746 C2751 1.363 . S
C2747 H2718 0.950 . S
C2747 C2746 1.397 . S
C2747 C2748 1.334 . S
C2748 H2719 0.950 . S
C2748 C2747 1.334 . S
C2748 C2749 1.287 . S
C2749 C2748 1.287 . S
C2749 C2750 1.524 . S
C2749 H2752 0.999 . S
C2750 H2720 0.950 . S
C2750 C2749 1.524 . S
C2750 C2751 1.415 . S
C2751 H2721 0.950 . S
C2751 C2746 1.363 . S
C2751 C2750 1.415 . S
H2752 C2749 0.999 . S
H2753 C2734 0.913 . S
H2754 C2772 0.951 . S
H2755 C2774 0.951 . S
H2756 C2776 0.950 . S
H2757 C2777 0.950 . S
H2758 C2779 0.950 . S
H2759 C2782 0.950 . S
H2760 C2783 0.950 . S
H2761 C2785 0.950 . S
H2762 C2786 0.950 . S
H2763 C2787 0.951 . S
H2764 C2789 0.951 . S
H2765 C2791 0.950 . S
H2766 C2792 0.950 . S
H2767 C2794 0.950 . S
H2768 C2797 0.950 . S
H2769 C2798 0.950 . S
H2770 C2800 0.950 . S
H2771 C2801 0.950 . S
C2772 H2754 0.951 . S
C2772 C2773 1.366 . S
C2772 C2774 1.388 . S
C2773 C2772 1.366 . S
C2773 C2777 1.385 . S
C2774 H2755 0.951 . S
C2774 C2772 1.388 . S
C2774 C2775 1.366 . S
C2775 C2774 1.366 . S
C2775 C2776 1.414 . S
C2775 C2778 1.499 . S
C2776 H2756 0.950 . S
C2776 C2775 1.414 . S
C2776 C2777 1.374 . S
C2777 H2757 0.950 . S
C2777 C2773 1.385 . S
C2777 C2776 1.374 . S
C2778 C2775 1.499 . S
C2778 C2779 1.373 . S
C2778 C2780 1.389 . S
C2779 H2758 0.950 . S
C2779 C2778 1.373 . S
C2779 C2795 1.377 . S
C2780 C2778 1.389 . S
C2780 C2781 1.524 . S
C2780 C2794 1.377 . S
C2781 C2780 1.524 . S
C2781 C2782 1.397 . S
C2781 C2786 1.363 . S
C2782 H2759 0.950 . S
C2782 C2781 1.397 . S
C2782 C2783 1.334 . S
C2783 H2760 0.950 . S
C2783 C2782 1.334 . S
C2783 C2784 1.287 . S
C2784 C2783 1.287 . S
C2784 C2785 1.524 . S
C2784 H2803 0.913 . S
C2785 H2761 0.950 . S
C2785 C2784 1.524 . S
C2785 C2786 1.415 . S
C2786 H2762 0.950 . S
C2786 C2781 1.363 . S
C2786 C2785 1.415 . S
C2787 H2763 0.951 . S
C2787 C2788 1.366 . S
C2787 C2789 1.388 . S
C2788 C2787 1.366 . S
C2788 C2792 1.385 . S
C2789 H2764 0.951 . S
C2789 C2787 1.388 . S
C2789 C2790 1.366 . S
C2790 C2789 1.366 . S
C2790 C2791 1.414 . S
C2790 C2793 1.499 . S
C2791 H2765 0.950 . S
C2791 C2790 1.414 . S
C2791 C2792 1.374 . S
C2792 H2766 0.950 . S
C2792 C2788 1.385 . S
C2792 C2791 1.374 . S
C2793 C2790 1.499 . S
C2793 C2794 1.373 . S
C2793 C2795 1.389 . S
C2794 H2767 0.950 . S
C2794 C2780 1.377 . S
C2794 C2793 1.373 . S
C2795 C2779 1.377 . S
C2795 C2793 1.389 . S
C2795 C2796 1.524 . S
C2796 C2795 1.524 . S
C2796 C2797 1.397 . S
C2796 C2801 1.363 . S
C2797 H2768 0.950 . S
C2797 C2796 1.397 . S
C2797 C2798 1.334 . S
C2798 H2769 0.950 . S
C2798 C2797 1.334 . S
C2798 C2799 1.287 . S
C2799 C2798 1.287 . S
C2799 C2800 1.524 . S
C2799 H2802 0.999 . S
C2800 H2770 0.950 . S
C2800 C2799 1.524 . S
C2800 C2801 1.415 . S
C2801 H2771 0.950 . S
C2801 C2796 1.363 . S
C2801 C2800 1.415 . S
H2802 C2799 0.999 . S
H2803 C2784 0.913 . S
H2804 C2822 0.951 . S
H2805 C2824 0.951 . S
H2806 C2826 0.950 . S
H2807 C2827 0.950 . S
H2808 C2829 0.950 . S
H2809 C2832 0.950 . S
H2810 C2833 0.950 . S
H2811 C2835 0.950 . S
H2812 C2836 0.950 . S
H2813 C2837 0.951 . S
H2814 C2839 0.951 . S
H2815 C2841 0.950 . S
H2816 C2842 0.950 . S
H2817 C2844 0.950 . S
H2818 C2847 0.950 . S
H2819 C2848 0.950 . S
H2820 C2850 0.950 . S
H2821 C2851 0.950 . S
C2822 H2804 0.951 . S
C2822 C2823 1.366 . S
C2822 C2824 1.388 . S
C2823 C2822 1.366 . S
C2823 C2827 1.385 . S
C2824 H2805 0.951 . S
C2824 C2822 1.388 . S
C2824 C2825 1.366 . S
C2825 C2824 1.366 . S
C2825 C2826 1.414 . S
C2825 C2828 1.499 . S
C2826 H2806 0.950 . S
C2826 C2825 1.414 . S
C2826 C2827 1.374 . S
C2827 H2807 0.950 . S
C2827 C2823 1.385 . S
C2827 C2826 1.374 . S
C2828 C2825 1.499 . S
C2828 C2829 1.373 . S
C2828 C2830 1.389 . S
C2829 H2808 0.950 . S
C2829 C2828 1.373 . S
C2829 C2845 1.377 . S
C2830 C2828 1.389 . S
C2830 C2831 1.524 . S
C2830 C2844 1.377 . S
C2831 C2830 1.524 . S
C2831 C2832 1.397 . S
C2831 C2836 1.363 . S
C2832 H2809 0.950 . S
C2832 C2831 1.397 . S
C2832 C2833 1.334 . S
C2833 H2810 0.950 . S
C2833 C2832 1.334 . S
C2833 C2834 1.287 . S
C2834 C2833 1.287 . S
C2834 C2835 1.524 . S
C2834 H2853 0.913 . S
C2835 H2811 0.950 . S
C2835 C2834 1.524 . S
C2835 C2836 1.415 . S
C2836 H2812 0.950 . S
C2836 C2831 1.363 . S
C2836 C2835 1.415 . S
C2837 H2813 0.951 . S
C2837 C2838 1.366 . S
C2837 C2839 1.388 . S
C2838 C2837 1.366 . S
C2838 C2842 1.385 . S
C2839 H2814 0.951 . S
C2839 C2837 1.388 . S
C2839 C2840 1.366 . S
C2840 C2839 1.366 . S
C2840 C2841 1.414 . S
C2840 C2843 1.499 . S
C2841 H2815 0.950 . S
C2841 C2840 1.414 . S
C2841 C2842 1.374 . S
C2842 H2816 0.950 . S
C2842 C2838 1.385 . S
C2842 C2841 1.374 . S
C2843 C2840 1.499 . S
C2843 C2844 1.373 . S
C2843 C2845 1.389 . S
C2844 H2817 0.950 . S
C2844 C2830 1.377 . S
C2844 C2843 1.373 . S
C2845 C2829 1.377 . S
C2845 C2843 1.389 . S
C2845 C2846 1.524 . S
C2846 C2845 1.524 . S
C2846 C2847 1.397 . S
C2846 C2851 1.363 . S
C2847 H2818 0.950 . S
C2847 C2846 1.397 . S
C2847 C2848 1.334 . S
C2848 H2819 0.950 . S
C2848 C2847 1.334 . S
C2848 C2849 1.287 . S
C2849 C2848 1.287 . S
C2849 C2850 1.524 . S
C2849 H2852 0.999 . S
C2850 H2820 0.950 . S
C2850 C2849 1.524 . S
C2850 C2851 1.415 . S
C2851 H2821 0.950 . S
C2851 C2846 1.363 . S
C2851 C2850 1.415 . S
H2852 C2849 0.999 . S
H2853 C2834 0.913 . S
H2854 C2872 0.951 . S
H2855 C2874 0.951 . S
H2856 C2876 0.950 . S
H2857 C2877 0.950 . S
H2858 C2879 0.950 . S
H2859 C2882 0.950 . S
H2860 C2883 0.950 . S
H2861 C2885 0.950 . S
H2862 C2886 0.950 . S
H2863 C2887 0.951 . S
H2864 C2889 0.951 . S
H2865 C2891 0.950 . S
H2866 C2892 0.950 . S
H2867 C2894 0.950 . S
H2868 C2897 0.950 . S
H2869 C2898 0.950 . S
H2870 C2900 0.950 . S
H2871 C2901 0.950 . S
C2872 H2854 0.951 . S
C2872 C2873 1.366 . S
C2872 C2874 1.388 . S
C2873 C2872 1.366 . S
C2873 C2877 1.385 . S
C2874 H2855 0.951 . S
C2874 C2872 1.388 . S
C2874 C2875 1.366 . S
C2875 C2874 1.366 . S
C2875 C2876 1.414 . S
C2875 C2878 1.499 . S
C2876 H2856 0.950 . S
C2876 C2875 1.414 . S
C2876 C2877 1.374 . S
C2877 H2857 0.950 . S
C2877 C2873 1.385 . S
C2877 C2876 1.374 . S
C2878 C2875 1.499 . S
C2878 C2879 1.373 . S
C2878 C2880 1.389 . S
C2879 H2858 0.950 . S
C2879 C2878 1.373 . S
C2879 C2895 1.377 . S
C2880 C2878 1.389 . S
C2880 C2881 1.524 . S
C2880 C2894 1.377 . S
C2881 C2880 1.524 . S
C2881 C2882 1.397 . S
C2881 C2886 1.363 . S
C2882 H2859 0.950 . S
C2882 C2881 1.397 . S
C2882 C2883 1.334 . S
C2883 H2860 0.950 . S
C2883 C2882 1.334 . S
C2883 C2884 1.287 . S
C2884 C2883 1.287 . S
C2884 C2885 1.524 . S
C2884 H2903 0.913 . S
C2885 H2861 0.950 . S
C2885 C2884 1.524 . S
C2885 C2886 1.415 . S
C2886 H2862 0.950 . S
C2886 C2881 1.363 . S
C2886 C2885 1.415 . S
C2887 H2863 0.951 . S
C2887 C2888 1.366 . S
C2887 C2889 1.388 . S
C2888 C2887 1.366 . S
C2888 C2892 1.385 . S
C2889 H2864 0.951 . S
C2889 C2887 1.388 . S
C2889 C2890 1.366 . S
C2890 C2889 1.366 . S
C2890 C2891 1.414 . S
C2890 C2893 1.499 . S
C2891 H2865 0.950 . S
C2891 C2890 1.414 . S
C2891 C2892 1.374 . S
C2892 H2866 0.950 . S
C2892 C2888 1.385 . S
C2892 C2891 1.374 . S
C2893 C2890 1.499 . S
C2893 C2894 1.373 . S
C2893 C2895 1.389 . S
C2894 H2867 0.950 . S
C2894 C2880 1.377 . S
C2894 C2893 1.373 . S
C2895 C2879 1.377 . S
C2895 C2893 1.389 . S
C2895 C2896 1.524 . S
C2896 C2895 1.524 . S
C2896 C2897 1.397 . S
C2896 C2901 1.363 . S
C2897 H2868 0.950 . S
C2897 C2896 1.397 . S
C2897 C2898 1.334 . S
C2898 H2869 0.950 . S
C2898 C2897 1.334 . S
C2898 C2899 1.287 . S
C2899 C2898 1.287 . S
C2899 C2900 1.524 . S
C2899 H2902 0.999 . S
C2900 H2870 0.950 . S
C2900 C2899 1.524 . S
C2900 C2901 1.415 . S
C2901 H2871 0.950 . S
C2901 C2896 1.363 . S
C2901 C2900 1.415 . S
H2902 C2899 0.999 . S
H2903 C2884 0.913 . S
H2904 C2922 0.951 . S
H2905 C2924 0.951 . S
H2906 C2926 0.950 . S
H2907 C2927 0.950 . S
H2908 C2929 0.950 . S
H2909 C2932 0.950 . S
H2910 C2933 0.950 . S
H2911 C2935 0.950 . S
H2912 C2936 0.950 . S
H2913 C2937 0.951 . S
H2914 C2939 0.951 . S
H2915 C2941 0.950 . S
H2916 C2942 0.950 . S
H2917 C2944 0.950 . S
H2918 C2947 0.950 . S
H2919 C2948 0.950 . S
H2920 C2950 0.950 . S
H2921 C2951 0.950 . S
C2922 H2904 0.951 . S
C2922 C2923 1.366 . S
C2922 C2924 1.388 . S
C2923 C2922 1.366 . S
C2923 C2927 1.385 . S
C2924 H2905 0.951 . S
C2924 C2922 1.388 . S
C2924 C2925 1.366 . S
C2925 C2924 1.366 . S
C2925 C2926 1.414 . S
C2925 C2928 1.499 . S
C2926 H2906 0.950 . S
C2926 C2925 1.414 . S
C2926 C2927 1.374 . S
C2927 H2907 0.950 . S
C2927 C2923 1.385 . S
C2927 C2926 1.374 . S
C2928 C2925 1.499 . S
C2928 C2929 1.373 . S
C2928 C2930 1.389 . S
C2929 H2908 0.950 . S
C2929 C2928 1.373 . S
C2929 C2945 1.377 . S
C2930 C2928 1.389 . S
C2930 C2931 1.524 . S
C2930 C2944 1.377 . S
C2931 C2930 1.524 . S
C2931 C2932 1.397 . S
C2931 C2936 1.363 . S
C2932 H2909 0.950 . S
C2932 C2931 1.397 . S
C2932 C2933 1.334 . S
C2933 H2910 0.950 . S
C2933 C2932 1.334 . S
C2933 C2934 1.287 . S
C2934 C2933 1.287 . S
C2934 C2935 1.524 . S
C2934 H2953 0.913 . S
C2935 H2911 0.950 . S
C2935 C2934 1.524 . S
C2935 C2936 1.415 . S
C2936 H2912 0.950 . S
C2936 C2931 1.363 . S
C2936 C2935 1.415 . S
C2937 H2913 0.951 . S
C2937 C2938 1.366 . S
C2937 C2939 1.388 . S
C2938 C2937 1.366 . S
C2938 C2942 1.385 . S
C2939 H2914 0.951 . S
C2939 C2937 1.388 . S
C2939 C2940 1.366 . S
C2940 C2939 1.366 . S
C2940 C2941 1.414 . S
C2940 C2943 1.499 . S
C2941 H2915 0.950 . S
C2941 C2940 1.414 . S
C2941 C2942 1.374 . S
C2942 H2916 0.950 . S
C2942 C2938 1.385 . S
C2942 C2941 1.374 . S
C2943 C2940 1.499 . S
C2943 C2944 1.373 . S
C2943 C2945 1.389 . S
C2944 H2917 0.950 . S
C2944 C2930 1.377 . S
C2944 C2943 1.373 . S
C2945 C2929 1.377 . S
C2945 C2943 1.389 . S
C2945 C2946 1.524 . S
C2946 C2945 1.524 . S
C2946 C2947 1.397 . S
C2946 C2951 1.363 . S
C2947 H2918 0.950 . S
C2947 C2946 1.397 . S
C2947 C2948 1.334 . S
C2948 H2919 0.950 . S
C2948 C2947 1.334 . S
C2948 C2949 1.287 . S
C2949 C2948 1.287 . S
C2949 C2950 1.524 . S
C2949 H2952 0.999 . S
C2950 H2920 0.950 . S
C2950 C2949 1.524 . S
C2950 C2951 1.415 . S
C2951 H2921 0.950 . S
C2951 C2946 1.363 . S
C2951 C2950 1.415 . S
H2952 C2949 0.999 . S
H2953 C2934 0.913 . S
H2954 C2972 0.951 . S
H2955 C2974 0.951 . S
H2956 C2976 0.950 . S
H2957 C2977 0.950 . S
H2958 C2979 0.950 . S
H2959 C2982 0.950 . S
H2960 C2983 0.950 . S
H2961 C2985 0.950 . S
H2962 C2986 0.950 . S
H2963 C2987 0.951 . S
H2964 C2989 0.951 . S
H2965 C2991 0.950 . S
H2966 C2992 0.950 . S
H2967 C2994 0.950 . S
H2968 C2997 0.950 . S
H2969 C2998 0.950 . S
H2970 C3000 0.950 . S
H2971 C3001 0.950 . S
C2972 H2954 0.951 . S
C2972 C2973 1.366 . S
C2972 C2974 1.388 . S
C2973 C2972 1.366 . S
C2973 C2977 1.385 . S
C2974 H2955 0.951 . S
C2974 C2972 1.388 . S
C2974 C2975 1.366 . S
C2975 C2974 1.366 . S
C2975 C2976 1.414 . S
C2975 C2978 1.499 . S
C2976 H2956 0.950 . S
C2976 C2975 1.414 . S
C2976 C2977 1.374 . S
C2977 H2957 0.950 . S
C2977 C2973 1.385 . S
C2977 C2976 1.374 . S
C2978 C2975 1.499 . S
C2978 C2979 1.373 . S
C2978 C2980 1.389 . S
C2979 H2958 0.950 . S
C2979 C2978 1.373 . S
C2979 C2995 1.377 . S
C2980 C2978 1.389 . S
C2980 C2981 1.524 . S
C2980 C2994 1.377 . S
C2981 C2980 1.524 . S
C2981 C2982 1.397 . S
C2981 C2986 1.363 . S
C2982 H2959 0.950 . S
C2982 C2981 1.397 . S
C2982 C2983 1.334 . S
C2983 H2960 0.950 . S
C2983 C2982 1.334 . S
C2983 C2984 1.287 . S
C2984 C2983 1.287 . S
C2984 C2985 1.524 . S
C2984 H3003 0.913 . S
C2985 H2961 0.950 . S
C2985 C2984 1.524 . S
C2985 C2986 1.415 . S
C2986 H2962 0.950 . S
C2986 C2981 1.363 . S
C2986 C2985 1.415 . S
C2987 H2963 0.951 . S
C2987 C2988 1.366 . S
C2987 C2989 1.388 . S
C2988 C2987 1.366 . S
C2988 C2992 1.385 . S
C2989 H2964 0.951 . S
C2989 C2987 1.388 . S
C2989 C2990 1.366 . S
C2990 C2989 1.366 . S
C2990 C2991 1.414 . S
C2990 C2993 1.499 . S
C2991 H2965 0.950 . S
C2991 C2990 1.414 . S
C2991 C2992 1.374 . S
C2992 H2966 0.950 . S
C2992 C2988 1.385 . S
C2992 C2991 1.374 . S
C2993 C2990 1.499 . S
C2993 C2994 1.373 . S
C2993 C2995 1.389 . S
C2994 H2967 0.950 . S
C2994 C2980 1.377 . S
C2994 C2993 1.373 . S
C2995 C2979 1.377 . S
C2995 C2993 1.389 . S
C2995 C2996 1.524 . S
C2996 C2995 1.524 . S
C2996 C2997 1.397 . S
C2996 C3001 1.363 . S
C2997 H2968 0.950 . S
C2997 C2996 1.397 . S
C2997 C2998 1.334 . S
C2998 H2969 0.950 . S
C2998 C2997 1.334 . S
C2998 C2999 1.287 . S
C2999 C2998 1.287 . S
C2999 C3000 1.524 . S
C2999 H3002 0.999 . S
C3000 H2970 0.950 . S
C3000 C2999 1.524 . S
C3000 C3001 1.415 . S
C3001 H2971 0.950 . S
C3001 C2996 1.363 . S
C3001 C3000 1.415 . S
H3002 C2999 0.999 . S
H3003 C2984 0.913 . S
H3004 C3022 0.951 . S
H3005 C3024 0.951 . S
H3006 C3026 0.950 . S
H3007 C3027 0.950 . S
H3008 C3029 0.950 . S
H3009 C3032 0.950 . S
H3010 C3033 0.950 . S
H3011 C3035 0.950 . S
H3012 C3036 0.950 . S
H3013 C3037 0.951 . S
H3014 C3039 0.951 . S
H3015 C3041 0.950 . S
H3016 C3042 0.950 . S
H3017 C3044 0.950 . S
H3018 C3047 0.950 . S
H3019 C3048 0.950 . S
H3020 C3050 0.950 . S
H3021 C3051 0.950 . S
C3022 H3004 0.951 . S
C3022 C3023 1.366 . S
C3022 C3024 1.388 . S
C3023 C3022 1.366 . S
C3023 C3027 1.385 . S
C3024 H3005 0.951 . S
C3024 C3022 1.388 . S
C3024 C3025 1.366 . S
C3025 C3024 1.366 . S
C3025 C3026 1.414 . S
C3025 C3028 1.499 . S
C3026 H3006 0.950 . S
C3026 C3025 1.414 . S
C3026 C3027 1.374 . S
C3027 H3007 0.950 . S
C3027 C3023 1.385 . S
C3027 C3026 1.374 . S
C3028 C3025 1.499 . S
C3028 C3029 1.373 . S
C3028 C3030 1.389 . S
C3029 H3008 0.950 . S
C3029 C3028 1.373 . S
C3029 C3045 1.377 . S
C3030 C3028 1.389 . S
C3030 C3031 1.524 . S
C3030 C3044 1.377 . S
C3031 C3030 1.524 . S
C3031 C3032 1.397 . S
C3031 C3036 1.363 . S
C3032 H3009 0.950 . S
C3032 C3031 1.397 . S
C3032 C3033 1.334 . S
C3033 H3010 0.950 . S
C3033 C3032 1.334 . S
C3033 C3034 1.287 . S
C3034 C3033 1.287 . S
C3034 C3035 1.524 . S
C3034 H3053 0.913 . S
C3035 H3011 0.950 . S
C3035 C3034 1.524 . S
C3035 C3036 1.415 . S
C3036 H3012 0.950 . S
C3036 C3031 1.363 . S
C3036 C3035 1.415 . S
C3037 H3013 0.951 . S
C3037 C3038 1.366 . S
C3037 C3039 1.388 . S
C3038 C3037 1.366 . S
C3038 C3042 1.385 . S
C3039 H3014 0.951 . S
C3039 C3037 1.388 . S
C3039 C3040 1.366 . S
C3040 C3039 1.366 . S
C3040 C3041 1.414 . S
C3040 C3043 1.499 . S
C3041 H3015 0.950 . S
C3041 C3040 1.414 . S
C3041 C3042 1.374 . S
C3042 H3016 0.950 . S
C3042 C3038 1.385 . S
C3042 C3041 1.374 . S
C3043 C3040 1.499 . S
C3043 C3044 1.373 . S
C3043 C3045 1.389 . S
C3044 H3017 0.950 . S
C3044 C3030 1.377 . S
C3044 C3043 1.373 . S
C3045 C3029 1.377 . S
C3045 C3043 1.389 . S
C3045 C3046 1.524 . S
C3046 C3045 1.524 . S
C3046 C3047 1.397 . S
C3046 C3051 1.363 . S
C3047 H3018 0.950 . S
C3047 C3046 1.397 . S
C3047 C3048 1.334 . S
C3048 H3019 0.950 . S
C3048 C3047 1.334 . S
C3048 C3049 1.287 . S
C3049 C3048 1.287 . S
C3049 C3050 1.524 . S
C3049 H3052 0.999 . S
C3050 H3020 0.950 . S
C3050 C3049 1.524 . S
C3050 C3051 1.415 . S
C3051 H3021 0.950 . S
C3051 C3046 1.363 . S
C3051 C3050 1.415 . S
H3052 C3049 0.999 . S
H3053 C3034 0.913 . S
H3054 C3072 0.951 . S
H3055 C3074 0.951 . S
H3056 C3076 0.950 . S
H3057 C3077 0.950 . S
H3058 C3079 0.950 . S
H3059 C3082 0.950 . S
H3060 C3083 0.950 . S
H3061 C3085 0.950 . S
H3062 C3086 0.950 . S
H3063 C3087 0.951 . S
H3064 C3089 0.951 . S
H3065 C3091 0.950 . S
H3066 C3092 0.950 . S
H3067 C3094 0.950 . S
H3068 C3097 0.950 . S
H3069 C3098 0.950 . S
H3070 C3100 0.950 . S
H3071 C3101 0.950 . S
C3072 H3054 0.951 . S
C3072 C3073 1.366 . S
C3072 C3074 1.388 . S
C3073 C3072 1.366 . S
C3073 C3077 1.385 . S
C3074 H3055 0.951 . S
C3074 C3072 1.388 . S
C3074 C3075 1.366 . S
C3075 C3074 1.366 . S
C3075 C3076 1.414 . S
C3075 C3078 1.499 . S
C3076 H3056 0.950 . S
C3076 C3075 1.414 . S
C3076 C3077 1.374 . S
C3077 H3057 0.950 . S
C3077 C3073 1.385 . S
C3077 C3076 1.374 . S
C3078 C3075 1.499 . S
C3078 C3079 1.373 . S
C3078 C3080 1.389 . S
C3079 H3058 0.950 . S
C3079 C3078 1.373 . S
C3079 C3095 1.377 . S
C3080 C3078 1.389 . S
C3080 C3081 1.524 . S
C3080 C3094 1.377 . S
C3081 C3080 1.524 . S
C3081 C3082 1.397 . S
C3081 C3086 1.363 . S
C3082 H3059 0.950 . S
C3082 C3081 1.397 . S
C3082 C3083 1.334 . S
C3083 H3060 0.950 . S
C3083 C3082 1.334 . S
C3083 C3084 1.287 . S
C3084 C3083 1.287 . S
C3084 C3085 1.524 . S
C3084 H3103 0.913 . S
C3085 H3061 0.950 . S
C3085 C3084 1.524 . S
C3085 C3086 1.415 . S
C3086 H3062 0.950 . S
C3086 C3081 1.363 . S
C3086 C3085 1.415 . S
C3087 H3063 0.951 . S
C3087 C3088 1.366 . S
C3087 C3089 1.388 . S
C3088 C3087 1.366 . S
C3088 C3092 1.385 . S
C3089 H3064 0.951 . S
C3089 C3087 1.388 . S
C3089 C3090 1.366 . S
C3090 C3089 1.366 . S
C3090 C3091 1.414 . S
C3090 C3093 1.499 . S
C3091 H3065 0.950 . S
C3091 C3090 1.414 . S
C3091 C3092 1.374 . S
C3092 H3066 0.950 . S
C3092 C3088 1.385 . S
C3092 C3091 1.374 . S
C3093 C3090 1.499 . S
C3093 C3094 1.373 . S
C3093 C3095 1.389 . S
C3094 H3067 0.950 . S
C3094 C3080 1.377 . S
C3094 C3093 1.373 . S
C3095 C3079 1.377 . S
C3095 C3093 1.389 . S
C3095 C3096 1.524 . S
C3096 C3095 1.524 . S
C3096 C3097 1.397 . S
C3096 C3101 1.363 . S
C3097 H3068 0.950 . S
C3097 C3096 1.397 . S
C3097 C3098 1.334 . S
C3098 H3069 0.950 . S
C3098 C3097 1.334 . S
C3098 C3099 1.287 . S
C3099 C3098 1.287 . S
C3099 C3100 1.524 . S
C3099 H3102 0.999 . S
C3100 H3070 0.950 . S
C3100 C3099 1.524 . S
C3100 C3101 1.415 . S
C3101 H3071 0.950 . S
C3101 C3096 1.363 . S
C3101 C3100 1.415 . S
H3102 C3099 0.999 . S
H3103 C3084 0.913 . S
H3104 C3122 0.951 . S
H3105 C3124 0.951 . S
H3106 C3126 0.950 . S
H3107 C3127 0.950 . S
H3108 C3129 0.950 . S
H3109 C3132 0.950 . S
H3110 C3133 0.950 . S
H3111 C3135 0.950 . S
H3112 C3136 0.950 . S
H3113 C3137 0.951 . S
H3114 C3139 0.951 . S
H3115 C3141 0.950 . S
H3116 C3142 0.950 . S
H3117 C3144 0.950 . S
H3118 C3147 0.950 . S
H3119 C3148 0.950 . S
H3120 C3150 0.950 . S
H3121 C3151 0.950 . S
C3122 H3104 0.951 . S
C3122 C3123 1.366 . S
C3122 C3124 1.388 . S
C3123 C3122 1.366 . S
C3123 C3127 1.385 . S
C3124 H3105 0.951 . S
C3124 C3122 1.388 . S
C3124 C3125 1.366 . S
C3125 C3124 1.366 . S
C3125 C3126 1.414 . S
C3125 C3128 1.499 . S
C3126 H3106 0.950 . S
C3126 C3125 1.414 . S
C3126 C3127 1.374 . S
C3127 H3107 0.950 . S
C3127 C3123 1.385 . S
C3127 C3126 1.374 . S
C3128 C3125 1.499 . S
C3128 C3129 1.373 . S
C3128 C3130 1.389 . S
C3129 H3108 0.950 . S
C3129 C3128 1.373 . S
C3129 C3145 1.377 . S
C3130 C3128 1.389 . S
C3130 C3131 1.524 . S
C3130 C3144 1.377 . S
C3131 C3130 1.524 . S
C3131 C3132 1.397 . S
C3131 C3136 1.363 . S
C3132 H3109 0.950 . S
C3132 C3131 1.397 . S
C3132 C3133 1.334 . S
C3133 H3110 0.950 . S
C3133 C3132 1.334 . S
C3133 C3134 1.287 . S
C3134 C3133 1.287 . S
C3134 C3135 1.524 . S
C3134 H3153 0.913 . S
C3135 H3111 0.950 . S
C3135 C3134 1.524 . S
C3135 C3136 1.415 . S
C3136 H3112 0.950 . S
C3136 C3131 1.363 . S
C3136 C3135 1.415 . S
C3137 H3113 0.951 . S
C3137 C3138 1.366 . S
C3137 C3139 1.388 . S
C3138 C3137 1.366 . S
C3138 C3142 1.385 . S
C3139 H3114 0.951 . S
C3139 C3137 1.388 . S
C3139 C3140 1.366 . S
C3140 C3139 1.366 . S
C3140 C3141 1.414 . S
C3140 C3143 1.499 . S
C3141 H3115 0.950 . S
C3141 C3140 1.414 . S
C3141 C3142 1.374 . S
C3142 H3116 0.950 . S
C3142 C3138 1.385 . S
C3142 C3141 1.374 . S
C3143 C3140 1.499 . S
C3143 C3144 1.373 . S
C3143 C3145 1.389 . S
C3144 H3117 0.950 . S
C3144 C3130 1.377 . S
C3144 C3143 1.373 . S
C3145 C3129 1.377 . S
C3145 C3143 1.389 . S
C3145 C3146 1.524 . S
C3146 C3145 1.524 . S
C3146 C3147 1.397 . S
C3146 C3151 1.363 . S
C3147 H3118 0.950 . S
C3147 C3146 1.397 . S
C3147 C3148 1.334 . S
C3148 H3119 0.950 . S
C3148 C3147 1.334 . S
C3148 C3149 1.287 . S
C3149 C3148 1.287 . S
C3149 C3150 1.524 . S
C3149 H3152 0.999 . S
C3150 H3120 0.950 . S
C3150 C3149 1.524 . S
C3150 C3151 1.415 . S
C3151 H3121 0.950 . S
C3151 C3146 1.363 . S
C3151 C3150 1.415 . S
H3152 C3149 0.999 . S
H3153 C3134 0.913 . S
H3154 C3172 0.951 . S
H3155 C3174 0.951 . S
H3156 C3176 0.950 . S
H3157 C3177 0.950 . S
H3158 C3179 0.950 . S
H3159 C3182 0.950 . S
H3160 C3183 0.950 . S
H3161 C3185 0.950 . S
H3162 C3186 0.950 . S
H3163 C3187 0.951 . S
H3164 C3189 0.951 . S
H3165 C3191 0.950 . S
H3166 C3192 0.950 . S
H3167 C3194 0.950 . S
H3168 C3197 0.950 . S
H3169 C3198 0.950 . S
H3170 C3200 0.950 . S
H3171 C3201 0.950 . S
C3172 H3154 0.951 . S
C3172 C3173 1.366 . S
C3172 C3174 1.388 . S
C3173 C3172 1.366 . S
C3173 C3177 1.385 . S
C3174 H3155 0.951 . S
C3174 C3172 1.388 . S
C3174 C3175 1.366 . S
C3175 C3174 1.366 . S
C3175 C3176 1.414 . S
C3175 C3178 1.499 . S
C3176 H3156 0.950 . S
C3176 C3175 1.414 . S
C3176 C3177 1.374 . S
C3177 H3157 0.950 . S
C3177 C3173 1.385 . S
C3177 C3176 1.374 . S
C3178 C3175 1.499 . S
C3178 C3179 1.373 . S
C3178 C3180 1.389 . S
C3179 H3158 0.950 . S
C3179 C3178 1.373 . S
C3179 C3195 1.377 . S
C3180 C3178 1.389 . S
C3180 C3181 1.524 . S
C3180 C3194 1.377 . S
C3181 C3180 1.524 . S
C3181 C3182 1.397 . S
C3181 C3186 1.363 . S
C3182 H3159 0.950 . S
C3182 C3181 1.397 . S
C3182 C3183 1.334 . S
C3183 H3160 0.950 . S
C3183 C3182 1.334 . S
C3183 C3184 1.287 . S
C3184 C3183 1.287 . S
C3184 C3185 1.524 . S
C3184 H3203 0.913 . S
C3185 H3161 0.950 . S
C3185 C3184 1.524 . S
C3185 C3186 1.415 . S
C3186 H3162 0.950 . S
C3186 C3181 1.363 . S
C3186 C3185 1.415 . S
C3187 H3163 0.951 . S
C3187 C3188 1.366 . S
C3187 C3189 1.388 . S
C3188 C3187 1.366 . S
C3188 C3192 1.385 . S
C3189 H3164 0.951 . S
C3189 C3187 1.388 . S
C3189 C3190 1.366 . S
C3190 C3189 1.366 . S
C3190 C3191 1.414 . S
C3190 C3193 1.499 . S
C3191 H3165 0.950 . S
C3191 C3190 1.414 . S
C3191 C3192 1.374 . S
C3192 H3166 0.950 . S
C3192 C3188 1.385 . S
C3192 C3191 1.374 . S
C3193 C3190 1.499 . S
C3193 C3194 1.373 . S
C3193 C3195 1.389 . S
C3194 H3167 0.950 . S
C3194 C3180 1.377 . S
C3194 C3193 1.373 . S
C3195 C3179 1.377 . S
C3195 C3193 1.389 . S
C3195 C3196 1.524 . S
C3196 C3195 1.524 . S
C3196 C3197 1.397 . S
C3196 C3201 1.363 . S
C3197 H3168 0.950 . S
C3197 C3196 1.397 . S
C3197 C3198 1.334 . S
C3198 H3169 0.950 . S
C3198 C3197 1.334 . S
C3198 C3199 1.287 . S
C3199 C3198 1.287 . S
C3199 C3200 1.524 . S
C3199 H3202 0.999 . S
C3200 H3170 0.950 . S
C3200 C3199 1.524 . S
C3200 C3201 1.415 . S
C3201 H3171 0.950 . S
C3201 C3196 1.363 . S
C3201 C3200 1.415 . S
H3202 C3199 0.999 . S
H3203 C3184 0.913 . S
H3204 C3222 0.951 . S
H3205 C3224 0.951 . S
H3206 C3226 0.950 . S
H3207 C3227 0.950 . S
H3208 C3229 0.950 . S
H3209 C3232 0.950 . S
H3210 C3233 0.950 . S
H3211 C3235 0.950 . S
H3212 C3236 0.950 . S
H3213 C3237 0.951 . S
H3214 C3239 0.951 . S
H3215 C3241 0.950 . S
H3216 C3242 0.950 . S
H3217 C3244 0.950 . S
H3218 C3247 0.950 . S
H3219 C3248 0.950 . S
H3220 C3250 0.950 . S
H3221 C3251 0.950 . S
C3222 H3204 0.951 . S
C3222 C3223 1.366 . S
C3222 C3224 1.388 . S
C3223 C3222 1.366 . S
C3223 C3227 1.385 . S
C3224 H3205 0.951 . S
C3224 C3222 1.388 . S
C3224 C3225 1.366 . S
C3225 C3224 1.366 . S
C3225 C3226 1.414 . S
C3225 C3228 1.499 . S
C3226 H3206 0.950 . S
C3226 C3225 1.414 . S
C3226 C3227 1.374 . S
C3227 H3207 0.950 . S
C3227 C3223 1.385 . S
C3227 C3226 1.374 . S
C3228 C3225 1.499 . S
C3228 C3229 1.373 . S
C3228 C3230 1.389 . S
C3229 H3208 0.950 . S
C3229 C3228 1.373 . S
C3229 C3245 1.377 . S
C3230 C3228 1.389 . S
C3230 C3231 1.524 . S
C3230 C3244 1.377 . S
C3231 C3230 1.524 . S
C3231 C3232 1.397 . S
C3231 C3236 1.363 . S
C3232 H3209 0.950 . S
C3232 C3231 1.397 . S
C3232 C3233 1.334 . S
C3233 H3210 0.950 . S
C3233 C3232 1.334 . S
C3233 C3234 1.287 . S
C3234 C3233 1.287 . S
C3234 C3235 1.524 . S
C3234 H3253 0.913 . S
C3235 H3211 0.950 . S
C3235 C3234 1.524 . S
C3235 C3236 1.415 . S
C3236 H3212 0.950 . S
C3236 C3231 1.363 . S
C3236 C3235 1.415 . S
C3237 H3213 0.951 . S
C3237 C3238 1.366 . S
C3237 C3239 1.388 . S
C3238 C3237 1.366 . S
C3238 C3242 1.385 . S
C3239 H3214 0.951 . S
C3239 C3237 1.388 . S
C3239 C3240 1.366 . S
C3240 C3239 1.366 . S
C3240 C3241 1.414 . S
C3240 C3243 1.499 . S
C3241 H3215 0.950 . S
C3241 C3240 1.414 . S
C3241 C3242 1.374 . S
C3242 H3216 0.950 . S
C3242 C3238 1.385 . S
C3242 C3241 1.374 . S
C3243 C3240 1.499 . S
C3243 C3244 1.373 . S
C3243 C3245 1.389 . S
C3244 H3217 0.950 . S
C3244 C3230 1.377 . S
C3244 C3243 1.373 . S
C3245 C3229 1.377 . S
C3245 C3243 1.389 . S
C3245 C3246 1.524 . S
C3246 C3245 1.524 . S
C3246 C3247 1.397 . S
C3246 C3251 1.363 . S
C3247 H3218 0.950 . S
C3247 C3246 1.397 . S
C3247 C3248 1.334 . S
C3248 H3219 0.950 . S
C3248 C3247 1.334 . S
C3248 C3249 1.287 . S
C3249 C3248 1.287 . S
C3249 C3250 1.524 . S
C3249 H3252 0.999 . S
C3250 H3220 0.950 . S
C3250 C3249 1.524 . S
C3250 C3251 1.415 . S
C3251 H3221 0.950 . S
C3251 C3246 1.363 . S
C3251 C3250 1.415 . S
H3252 C3249 0.999 . S
H3253 C3234 0.913 . S
H3254 C3272 0.951 . S
H3255 C3274 0.951 1_545 S
H3256 C3276 0.950 . S
H3257 C3277 0.950 . S
H3258 C3279 0.950 . S
H3259 C3282 0.950 . S
H3260 C3283 0.950 . S
H3261 C3285 0.950 . S
H3262 C3286 0.950 1_545 S
H3263 C3287 0.951 . S
H3264 C3289 0.951 . S
H3265 C3291 0.950 . S
H3266 C3292 0.950 . S
H3267 C3294 0.950 . S
H3268 C3297 0.950 . S
H3269 C3298 0.950 . S
H3270 C3300 0.950 . S
H3271 C3301 0.950 . S
C3272 H3254 0.951 . S
C3272 C3273 1.366 . S
C3272 C3274 1.388 . S
C3273 C3272 1.366 . S
C3273 C3277 1.385 . S
C3274 H3255 0.951 1_565 S
C3274 C3272 1.388 . S
C3274 C3275 1.366 . S
C3275 C3274 1.366 . S
C3275 C3276 1.414 . S
C3275 C3278 1.499 1_565 S
C3276 H3256 0.950 . S
C3276 C3275 1.414 . S
C3276 C3277 1.374 . S
C3277 H3257 0.950 . S
C3277 C3273 1.385 . S
C3277 C3276 1.374 . S
C3278 C3275 1.499 1_545 S
C3278 C3279 1.373 . S
C3278 C3280 1.389 . S
C3279 H3258 0.950 . S
C3279 C3278 1.373 . S
C3279 C3295 1.377 . S
C3280 C3278 1.389 . S
C3280 C3281 1.524 1_545 S
C3280 C3294 1.377 . S
C3281 C3280 1.524 1_565 S
C3281 C3282 1.397 . S
C3281 C3286 1.363 . S
C3282 H3259 0.950 . S
C3282 C3281 1.397 . S
C3282 C3283 1.334 . S
C3283 H3260 0.950 . S
C3283 C3282 1.334 . S
C3283 C3284 1.287 . S
C3284 C3283 1.287 . S
C3284 C3285 1.524 . S
C3284 H3303 0.913 . S
C3285 H3261 0.950 . S
C3285 C3284 1.524 . S
C3285 C3286 1.415 . S
C3286 H3262 0.950 1_565 S
C3286 C3281 1.363 . S
C3286 C3285 1.415 . S
C3287 H3263 0.951 . S
C3287 C3288 1.366 . S
C3287 C3289 1.388 . S
C3288 C3287 1.366 . S
C3288 C3292 1.385 . S
C3289 H3264 0.951 . S
C3289 C3287 1.388 . S
C3289 C3290 1.366 . S
C3290 C3289 1.366 . S
C3290 C3291 1.414 . S
C3290 C3293 1.499 . S
C3291 H3265 0.950 . S
C3291 C3290 1.414 . S
C3291 C3292 1.374 . S
C3292 H3266 0.950 . S
C3292 C3288 1.385 . S
C3292 C3291 1.374 . S
C3293 C3290 1.499 . S
C3293 C3294 1.373 . S
C3293 C3295 1.389 . S
C3294 H3267 0.950 . S
C3294 C3280 1.377 . S
C3294 C3293 1.373 . S
C3295 C3279 1.377 . S
C3295 C3293 1.389 . S
C3295 C3296 1.524 . S
C3296 C3295 1.524 . S
C3296 C3297 1.397 . S
C3296 C3301 1.363 . S
C3297 H3268 0.950 . S
C3297 C3296 1.397 . S
C3297 C3298 1.334 . S
C3298 H3269 0.950 . S
C3298 C3297 1.334 . S
C3298 C3299 1.287 . S
C3299 C3298 1.287 . S
C3299 C3300 1.524 . S
C3299 H3302 0.999 . S
C3300 H3270 0.950 . S
C3300 C3299 1.524 . S
C3300 C3301 1.415 . S
C3301 H3271 0.950 . S
C3301 C3296 1.363 . S
C3301 C3300 1.415 . S
H3302 C3299 0.999 . S
H3303 C3284 0.913 . S
H3304 C3322 0.951 . S
H3305 C3324 0.951 . S
H3306 C3326 0.950 . S
H3307 C3327 0.950 . S
H3308 C3329 0.950 . S
H3309 C3332 0.950 . S
H3310 C3333 0.950 . S
H3311 C3335 0.950 . S
H3312 C3336 0.950 1_455 S
H3313 C3337 0.951 . S
H3314 C3339 0.951 1_655 S
H3315 C3341 0.950 . S
H3316 C3342 0.950 . S
H3317 C3344 0.950 . S
H3318 C3347 0.950 . S
H3319 C3348 0.950 . S
H3320 C3350 0.950 . S
H3321 C3351 0.950 . S
C3322 H3304 0.951 . S
C3322 C3323 1.366 . S
C3322 C3324 1.388 . S
C3323 C3322 1.366 . S
C3323 C3327 1.385 . S
C3324 H3305 0.951 . S
C3324 C3322 1.388 . S
C3324 C3325 1.366 . S
C3325 C3324 1.366 . S
C3325 C3326 1.414 . S
C3325 C3328 1.499 . S
C3326 H3306 0.950 . S
C3326 C3325 1.414 . S
C3326 C3327 1.374 . S
C3327 H3307 0.950 . S
C3327 C3323 1.385 . S
C3327 C3326 1.374 . S
C3328 C3325 1.499 . S
C3328 C3329 1.373 . S
C3328 C3330 1.389 . S
C3329 H3308 0.950 . S
C3329 C3328 1.373 . S
C3329 C3345 1.377 . S
C3330 C3328 1.389 . S
C3330 C3331 1.524 . S
C3330 C3344 1.377 . S
C3331 C3330 1.524 . S
C3331 C3332 1.397 . S
C3331 C3336 1.363 . S
C3332 H3309 0.950 . S
C3332 C3331 1.397 . S
C3332 C3333 1.334 . S
C3333 H3310 0.950 . S
C3333 C3332 1.334 . S
C3333 C3334 1.287 . S
C3334 C3333 1.287 . S
C3334 C3335 1.524 . S
C3334 H3353 0.949 . S
C3335 H3311 0.950 . S
C3335 C3334 1.524 . S
C3335 C3336 1.415 . S
C3336 H3312 0.950 1_655 S
C3336 C3331 1.363 . S
C3336 C3335 1.415 . S
C3337 H3313 0.951 . S
C3337 C3338 1.366 . S
C3337 C3339 1.388 . S
C3338 C3337 1.366 . S
C3338 C3342 1.385 . S
C3339 H3314 0.951 1_455 S
C3339 C3337 1.388 . S
C3339 C3340 1.366 . S
C3340 C3339 1.366 . S
C3340 C3341 1.414 . S
C3340 C3343 1.499 1_455 S
C3341 H3315 0.950 . S
C3341 C3340 1.414 . S
C3341 C3342 1.374 . S
C3342 H3316 0.950 . S
C3342 C3338 1.385 . S
C3342 C3341 1.374 . S
C3343 C3340 1.499 1_655 S
C3343 C3344 1.373 . S
C3343 C3345 1.389 . S
C3344 H3317 0.950 . S
C3344 C3330 1.377 . S
C3344 C3343 1.373 . S
C3345 C3329 1.377 . S
C3345 C3343 1.389 . S
C3345 C3346 1.524 . S
C3346 C3345 1.524 . S
C3346 C3347 1.397 1_655 S
C3346 C3351 1.363 . S
C3347 H3318 0.950 . S
C3347 C3346 1.397 1_455 S
C3347 C3348 1.334 . S
C3348 H3319 0.950 . S
C3348 C3347 1.334 . S
C3348 C3349 1.287 . S
C3349 C3348 1.287 . S
C3349 C3350 1.524 1_455 S
C3349 H3352 0.999 . S
C3350 H3320 0.950 . S
C3350 C3349 1.524 1_655 S
C3350 C3351 1.415 . S
C3351 H3321 0.950 . S
C3351 C3346 1.363 . S
C3351 C3350 1.415 . S
H3352 C3349 0.999 . S
H3353 C3334 0.949 . S
H3354 C3372 0.951 . S
H3355 C3374 0.951 . S
H3356 C3376 0.950 . S
H3357 C3377 0.950 . S
H3358 C3379 0.950 . S
H3359 C3382 0.950 . S
H3360 C3383 0.950 . S
H3361 C3385 0.950 . S
H3362 C3386 0.950 . S
H3363 C3387 0.951 . S
H3364 C3389 0.951 . S
H3365 C3391 0.950 . S
H3366 C3392 0.950 . S
H3367 C3394 0.950 . S
H3368 C3397 0.950 . S
H3369 C3398 0.950 . S
H3370 C3400 0.950 . S
H3371 C3401 0.950 . S
C3372 H3354 0.951 . S
C3372 C3373 1.366 . S
C3372 C3374 1.388 . S
C3373 C3372 1.366 . S
C3373 C3377 1.385 . S
C3374 H3355 0.951 . S
C3374 C3372 1.388 . S
C3374 C3375 1.366 . S
C3375 C3374 1.366 . S
C3375 C3376 1.414 . S
C3375 C3378 1.499 . S
C3376 H3356 0.950 . S
C3376 C3375 1.414 . S
C3376 C3377 1.374 . S
C3377 H3357 0.950 . S
C3377 C3373 1.385 . S
C3377 C3376 1.374 . S
C3378 C3375 1.499 . S
C3378 C3379 1.373 . S
C3378 C3380 1.389 . S
C3379 H3358 0.950 . S
C3379 C3378 1.373 . S
C3379 C3395 1.377 . S
C3380 C3378 1.389 . S
C3380 C3381 1.524 . S
C3380 C3394 1.377 . S
C3381 C3380 1.524 . S
C3381 C3382 1.397 . S
C3381 C3386 1.363 . S
C3382 H3359 0.950 . S
C3382 C3381 1.397 . S
C3382 C3383 1.334 . S
C3383 H3360 0.950 . S
C3383 C3382 1.334 . S
C3383 C3384 1.287 . S
C3384 C3383 1.287 . S
C3384 C3385 1.524 . S
C3384 H3403 0.913 . S
C3385 H3361 0.950 . S
C3385 C3384 1.524 . S
C3385 C3386 1.415 . S
C3386 H3362 0.950 . S
C3386 C3381 1.363 . S
C3386 C3385 1.415 . S
C3387 H3363 0.951 . S
C3387 C3388 1.366 . S
C3387 C3389 1.388 . S
C3388 C3387 1.366 . S
C3388 C3392 1.385 . S
C3389 H3364 0.951 . S
C3389 C3387 1.388 . S
C3389 C3390 1.366 . S
C3390 C3389 1.366 . S
C3390 C3391 1.414 . S
C3390 C3393 1.499 . S
C3391 H3365 0.950 . S
C3391 C3390 1.414 . S
C3391 C3392 1.374 . S
C3392 H3366 0.950 . S
C3392 C3388 1.385 . S
C3392 C3391 1.374 . S
C3393 C3390 1.499 . S
C3393 C3394 1.373 . S
C3393 C3395 1.389 . S
C3394 H3367 0.950 . S
C3394 C3380 1.377 . S
C3394 C3393 1.373 . S
C3395 C3379 1.377 . S
C3395 C3393 1.389 . S
C3395 C3396 1.524 . S
C3396 C3395 1.524 . S
C3396 C3397 1.397 . S
C3396 C3401 1.363 . S
C3397 H3368 0.950 . S
C3397 C3396 1.397 . S
C3397 C3398 1.334 . S
C3398 H3369 0.950 . S
C3398 C3397 1.334 . S
C3398 C3399 1.287 . S
C3399 C3398 1.287 . S
C3399 C3400 1.524 . S
C3399 H3402 0.999 . S
C3400 H3370 0.950 . S
C3400 C3399 1.524 . S
C3400 C3401 1.415 . S
C3401 H3371 0.950 . S
C3401 C3396 1.363 . S
C3401 C3400 1.415 . S
H3402 C3399 0.999 . S
H3403 C3384 0.913 . S
H3404 C3422 0.951 . S
H3405 C3424 0.951 1_565 S
H3406 C3426 0.950 . S
H3407 C3427 0.950 . S
H3408 C3429 0.950 . S
H3409 C3432 0.950 . S
H3410 C3433 0.950 . S
H3411 C3435 0.950 . S
H3412 C3436 0.950 1_565 S
H3413 C3437 0.951 . S
H3414 C3439 0.951 . S
H3415 C3441 0.950 . S
H3416 C3442 0.950 . S
H3417 C3444 0.950 . S
H3418 C3447 0.950 . S
H3419 C3448 0.950 . S
H3420 C3450 0.950 . S
H3421 C3451 0.950 . S
C3422 H3404 0.951 . S
C3422 C3423 1.366 . S
C3422 C3424 1.388 . S
C3423 C3422 1.366 . S
C3423 C3427 1.385 . S
C3424 H3405 0.951 1_545 S
C3424 C3422 1.388 . S
C3424 C3425 1.366 . S
C3425 C3424 1.366 . S
C3425 C3426 1.414 . S
C3425 C3428 1.499 1_545 S
C3426 H3406 0.950 . S
C3426 C3425 1.414 . S
C3426 C3427 1.374 . S
C3427 H3407 0.950 . S
C3427 C3423 1.385 . S
C3427 C3426 1.374 . S
C3428 C3425 1.499 1_565 S
C3428 C3429 1.373 . S
C3428 C3430 1.389 . S
C3429 H3408 0.950 . S
C3429 C3428 1.373 . S
C3429 C3445 1.377 . S
C3430 C3428 1.389 . S
C3430 C3431 1.524 1_565 S
C3430 C3444 1.377 . S
C3431 C3430 1.524 1_545 S
C3431 C3432 1.397 . S
C3431 C3436 1.363 . S
C3432 H3409 0.950 . S
C3432 C3431 1.397 . S
C3432 C3433 1.334 . S
C3433 H3410 0.950 . S
C3433 C3432 1.334 . S
C3433 C3434 1.287 . S
C3434 C3433 1.287 . S
C3434 C3435 1.524 . S
C3434 H3453 0.913 . S
C3435 H3411 0.950 . S
C3435 C3434 1.524 . S
C3435 C3436 1.415 . S
C3436 H3412 0.950 1_545 S
C3436 C3431 1.363 . S
C3436 C3435 1.415 . S
C3437 H3413 0.951 . S
C3437 C3438 1.366 . S
C3437 C3439 1.388 . S
C3438 C3437 1.366 . S
C3438 C3442 1.385 . S
C3439 H3414 0.951 . S
C3439 C3437 1.388 . S
C3439 C3440 1.366 . S
C3440 C3439 1.366 . S
C3440 C3441 1.414 . S
C3440 C3443 1.499 . S
C3441 H3415 0.950 . S
C3441 C3440 1.414 . S
C3441 C3442 1.374 . S
C3442 H3416 0.950 . S
C3442 C3438 1.385 . S
C3442 C3441 1.374 . S
C3443 C3440 1.499 . S
C3443 C3444 1.373 . S
C3443 C3445 1.389 . S
C3444 H3417 0.950 . S
C3444 C3430 1.377 . S
C3444 C3443 1.373 . S
C3445 C3429 1.377 . S
C3445 C3443 1.389 . S
C3445 C3446 1.524 . S
C3446 C3445 1.524 . S
C3446 C3447 1.397 . S
C3446 C3451 1.363 . S
C3447 H3418 0.950 . S
C3447 C3446 1.397 . S
C3447 C3448 1.334 . S
C3448 H3419 0.950 . S
C3448 C3447 1.334 . S
C3448 C3449 1.287 . S
C3449 C3448 1.287 . S
C3449 C3450 1.524 . S
C3449 H3452 0.999 . S
C3450 H3420 0.950 . S
C3450 C3449 1.524 . S
C3450 C3451 1.415 . S
C3451 H3421 0.950 . S
C3451 C3446 1.363 . S
C3451 C3450 1.415 . S
H3452 C3449 0.999 . S
H3453 C3434 0.913 . S
H3454 C3472 0.951 . S
H3455 C3474 0.951 . S
H3456 C3476 0.950 . S
H3457 C3477 0.950 . S
H3458 C3479 0.950 . S
H3459 C3482 0.950 . S
H3460 C3483 0.950 . S
H3461 C3485 0.950 . S
H3462 C3486 0.950 . S
H3463 C3487 0.951 . S
H3464 C3489 0.951 . S
H3465 C3491 0.950 . S
H3466 C3492 0.950 . S
H3467 C3494 0.950 . S
H3468 C3497 0.950 . S
H3469 C3498 0.950 . S
H3470 C3500 0.950 . S
H3471 C3501 0.950 . S
C3472 H3454 0.951 . S
C3472 C3473 1.366 . S
C3472 C3474 1.388 . S
C3473 C3472 1.366 . S
C3473 C3477 1.385 . S
C3474 H3455 0.951 . S
C3474 C3472 1.388 . S
C3474 C3475 1.366 . S
C3475 C3474 1.366 . S
C3475 C3476 1.414 . S
C3475 C3478 1.499 . S
C3476 H3456 0.950 . S
C3476 C3475 1.414 . S
C3476 C3477 1.374 . S
C3477 H3457 0.950 . S
C3477 C3473 1.385 . S
C3477 C3476 1.374 . S
C3478 C3475 1.499 . S
C3478 C3479 1.373 . S
C3478 C3480 1.389 . S
C3479 H3458 0.950 . S
C3479 C3478 1.373 . S
C3479 C3495 1.377 . S
C3480 C3478 1.389 . S
C3480 C3481 1.524 . S
C3480 C3494 1.377 . S
C3481 C3480 1.524 . S
C3481 C3482 1.397 . S
C3481 C3486 1.363 . S
C3482 H3459 0.950 . S
C3482 C3481 1.397 . S
C3482 C3483 1.334 . S
C3483 H3460 0.950 . S
C3483 C3482 1.334 . S
C3483 C3484 1.287 . S
C3484 C3483 1.287 . S
C3484 C3485 1.524 . S
C3484 H3503 0.913 . S
C3485 H3461 0.950 . S
C3485 C3484 1.524 . S
C3485 C3486 1.415 . S
C3486 H3462 0.950 . S
C3486 C3481 1.363 . S
C3486 C3485 1.415 . S
C3487 H3463 0.951 . S
C3487 C3488 1.366 . S
C3487 C3489 1.388 . S
C3488 C3487 1.366 . S
C3488 C3492 1.385 . S
C3489 H3464 0.951 . S
C3489 C3487 1.388 . S
C3489 C3490 1.366 . S
C3490 C3489 1.366 . S
C3490 C3491 1.414 1_655 S
C3490 C3493 1.499 1_655 S
C3491 H3465 0.950 . S
C3491 C3490 1.414 1_455 S
C3491 C3492 1.374 1_455 S
C3492 H3466 0.950 . S
C3492 C3488 1.385 . S
C3492 C3491 1.374 1_655 S
C3493 C3490 1.499 1_455 S
C3493 C3494 1.373 . S
C3493 C3495 1.389 . S
C3494 H3467 0.950 . S
C3494 C3480 1.377 . S
C3494 C3493 1.373 . S
C3495 C3479 1.377 . S
C3495 C3493 1.389 . S
C3495 C3496 1.524 . S
C3496 C3495 1.524 . S
C3496 C3497 1.399 . S
C3496 C3501 1.361 1_455 S
C3497 H3468 0.950 . S
C3497 C3496 1.399 . S
C3497 C3498 1.334 . S
C3498 H3469 0.950 . S
C3498 C3497 1.334 . S
C3498 C3499 1.287 1_455 S
C3499 C3498 1.287 1_655 S
C3499 C3500 1.524 . S
C3499 H3502 0.999 . S
C3500 H3470 0.950 . S
C3500 C3499 1.524 . S
C3500 C3501 1.415 . S
C3501 H3471 0.950 . S
C3501 C3496 1.361 1_655 S
C3501 C3500 1.415 . S
H3502 C3499 0.999 . S
H3503 C3484 0.913 . S
H3504 C3522 0.951 . S
H3505 C3524 0.951 . S
H3506 C3526 0.950 . S
H3507 C3527 0.950 . S
H3508 C3529 0.950 . S
H3509 C3532 0.950 . S
H3510 C3533 0.950 . S
H3511 C3535 0.950 . S
H3512 C3536 0.950 . S
H3513 C3537 0.951 . S
H3514 C3539 0.951 . S
H3515 C3541 0.950 . S
H3516 C3542 0.950 . S
H3517 C3544 0.950 . S
H3518 C3547 0.950 . S
H3519 C3548 0.950 . S
H3520 C3550 0.950 . S
H3521 C3551 0.950 . S
C3522 H3504 0.951 . S
C3522 C3523 1.366 . S
C3522 C3524 1.388 . S
C3523 C3522 1.366 . S
C3523 C3527 1.385 . S
C3524 H3505 0.951 . S
C3524 C3522 1.388 . S
C3524 C3525 1.366 . S
C3525 C3524 1.366 . S
C3525 C3526 1.414 . S
C3525 C3528 1.499 . S
C3526 H3506 0.950 . S
C3526 C3525 1.414 . S
C3526 C3527 1.374 . S
C3527 H3507 0.950 . S
C3527 C3523 1.385 . S
C3527 C3526 1.374 . S
C3528 C3525 1.499 . S
C3528 C3529 1.373 . S
C3528 C3530 1.389 . S
C3529 H3508 0.950 . S
C3529 C3528 1.373 . S
C3529 C3545 1.377 . S
C3530 C3528 1.389 . S
C3530 C3531 1.524 . S
C3530 C3544 1.377 . S
C3531 C3530 1.524 . S
C3531 C3532 1.397 . S
C3531 C3536 1.363 . S
C3532 H3509 0.950 . S
C3532 C3531 1.397 . S
C3532 C3533 1.334 . S
C3533 H3510 0.950 . S
C3533 C3532 1.334 . S
C3533 C3534 1.287 . S
C3534 C3533 1.287 . S
C3534 C3535 1.524 . S
C3534 H3553 0.913 . S
C3535 H3511 0.950 . S
C3535 C3534 1.524 . S
C3535 C3536 1.415 . S
C3536 H3512 0.950 . S
C3536 C3531 1.363 . S
C3536 C3535 1.415 . S
C3537 H3513 0.951 . S
C3537 C3538 1.366 . S
C3537 C3539 1.388 . S
C3538 C3537 1.366 . S
C3538 C3542 1.385 . S
C3539 H3514 0.951 . S
C3539 C3537 1.388 . S
C3539 C3540 1.366 . S
C3540 C3539 1.366 . S
C3540 C3541 1.414 . S
C3540 C3543 1.499 . S
C3541 H3515 0.950 . S
C3541 C3540 1.414 . S
C3541 C3542 1.374 . S
C3542 H3516 0.950 . S
C3542 C3538 1.385 . S
C3542 C3541 1.374 . S
C3543 C3540 1.499 . S
C3543 C3544 1.373 . S
C3543 C3545 1.389 . S
C3544 H3517 0.950 . S
C3544 C3530 1.377 . S
C3544 C3543 1.373 . S
C3545 C3529 1.377 . S
C3545 C3543 1.389 . S
C3545 C3546 1.524 . S
C3546 C3545 1.524 . S
C3546 C3547 1.397 . S
C3546 C3551 1.363 . S
C3547 H3518 0.950 . S
C3547 C3546 1.397 . S
C3547 C3548 1.334 . S
C3548 H3519 0.950 . S
C3548 C3547 1.334 . S
C3548 C3549 1.287 . S
C3549 C3548 1.287 . S
C3549 C3550 1.524 . S
C3549 H3552 0.999 1_556 S
C3550 H3520 0.950 . S
C3550 C3549 1.524 . S
C3550 C3551 1.415 . S
C3551 H3521 0.950 . S
C3551 C3546 1.363 . S
C3551 C3550 1.415 . S
H3552 C3549 0.999 1_554 S
H3553 C3534 0.913 . S
H3554 C3572 0.951 . S
H3555 C3574 0.951 . S
H3556 C3576 0.950 . S
H3557 C3577 0.950 . S
H3558 C3579 0.950 . S
H3559 C3582 0.950 . S
H3560 C3583 0.950 . S
H3561 C3585 0.950 . S
H3562 C3586 0.950 1_545 S
H3563 C3587 0.951 . S
H3564 C3589 0.951 1_565 S
H3565 C3591 0.950 . S
H3566 C3592 0.950 . S
H3567 C3594 0.949 . S
H3568 C3597 0.950 . S
H3569 C3598 0.950 . S
H3570 C3600 0.950 . S
H3571 C3601 0.950 . S
C3572 H3554 0.951 . S
C3572 C3573 1.366 . S
C3572 C3574 1.388 . S
C3573 C3572 1.366 . S
C3573 C3577 1.385 . S
C3574 H3555 0.951 . S
C3574 C3572 1.388 . S
C3574 C3575 1.366 . S
C3575 C3574 1.366 . S
C3575 C3576 1.414 . S
C3575 C3578 1.499 . S
C3576 H3556 0.950 . S
C3576 C3575 1.414 . S
C3576 C3577 1.374 . S
C3577 H3557 0.950 . S
C3577 C3573 1.385 . S
C3577 C3576 1.374 . S
C3578 C3575 1.499 . S
C3578 C3579 1.373 . S
C3578 C3580 1.389 . S
C3579 H3558 0.950 . S
C3579 C3578 1.373 . S
C3579 C3595 1.377 . S
C3580 C3578 1.389 . S
C3580 C3581 1.524 . S
C3580 C3594 1.377 . S
C3581 C3580 1.524 . S
C3581 C3582 1.397 . S
C3581 C3586 1.363 . S
C3582 H3559 0.950 . S
C3582 C3581 1.397 . S
C3582 C3583 1.334 . S
C3583 H3560 0.950 . S
C3583 C3582 1.334 . S
C3583 C3584 1.287 . S
C3584 C3583 1.287 . S
C3584 C3585 1.524 . S
C3584 H3603 0.913 . S
C3585 H3561 0.950 . S
C3585 C3584 1.524 . S
C3585 C3586 1.415 . S
C3586 H3562 0.950 1_565 S
C3586 C3581 1.363 . S
C3586 C3585 1.415 . S
C3587 H3563 0.951 . S
C3587 C3588 1.366 . S
C3587 C3589 1.388 . S
C3588 C3587 1.366 . S
C3588 C3592 1.385 . S
C3589 H3564 0.951 1_545 S
C3589 C3587 1.388 . S
C3589 C3590 1.366 . S
C3590 C3589 1.366 . S
C3590 C3591 1.414 . S
C3590 C3593 1.499 . S
C3591 H3565 0.950 . S
C3591 C3590 1.414 . S
C3591 C3592 1.374 . S
C3592 H3566 0.950 . S
C3592 C3588 1.385 . S
C3592 C3591 1.374 . S
C3593 C3590 1.499 . S
C3593 C3594 1.373 1_545 S
C3593 C3595 1.389 1_545 S
C3594 H3567 0.949 . S
C3594 C3580 1.377 . S
C3594 C3593 1.373 1_565 S
C3595 C3579 1.377 . S
C3595 C3593 1.389 1_565 S
C3595 C3596 1.524 1_565 S
C3596 C3595 1.524 1_545 S
C3596 C3597 1.397 . S
C3596 C3601 1.363 1_545 S
C3597 H3568 0.950 . S
C3597 C3596 1.397 . S
C3597 C3598 1.334 . S
C3598 H3569 0.950 . S
C3598 C3597 1.334 . S
C3598 C3599 1.287 . S
C3599 C3598 1.287 . S
C3599 C3600 1.524 1_545 S
C3599 H3602 0.999 . S
C3600 H3570 0.950 . S
C3600 C3599 1.524 1_565 S
C3600 C3601 1.415 . S
C3601 H3571 0.950 . S
C3601 C3596 1.363 1_565 S
C3601 C3600 1.415 . S
H3602 C3599 0.999 . S
H3603 C3584 0.913 . S
H3604 C3622 0.951 . S
H3605 C3624 0.951 . S
H3606 C3626 0.950 . S
H3607 C3627 0.950 . S
H3608 C3629 0.950 . S
H3609 C3632 0.950 . S
H3610 C3633 0.950 . S
H3611 C3635 0.950 . S
H3612 C3636 0.950 . S
H3613 C3637 0.951 . S
H3614 C3639 0.951 1_455 S
H3615 C3641 0.950 . S
H3616 C3642 0.950 . S
H3617 C3644 0.950 . S
H3618 C3647 0.950 1_655 S
H3619 C3648 0.950 . S
H3620 C3650 0.950 . S
H3621 C3651 0.950 . S
C3622 H3604 0.951 . S
C3622 C3623 1.366 . S
C3622 C3624 1.388 . S
C3623 C3622 1.366 . S
C3623 C3627 1.385 . S
C3624 H3605 0.951 . S
C3624 C3622 1.388 . S
C3624 C3625 1.366 . S
C3625 C3624 1.366 . S
C3625 C3626 1.414 . S
C3625 C3628 1.499 . S
C3626 H3606 0.950 . S
C3626 C3625 1.414 . S
C3626 C3627 1.374 . S
C3627 H3607 0.950 . S
C3627 C3623 1.385 . S
C3627 C3626 1.374 . S
C3628 C3625 1.499 . S
C3628 C3629 1.373 . S
C3628 C3630 1.389 . S
C3629 H3608 0.950 . S
C3629 C3628 1.373 . S
C3629 C3645 1.377 . S
C3630 C3628 1.389 . S
C3630 C3631 1.524 1_455 S
C3630 C3644 1.377 1_455 S
C3631 C3630 1.524 1_655 S
C3631 C3632 1.397 1_655 S
C3631 C3636 1.363 . S
C3632 H3609 0.950 . S
C3632 C3631 1.397 1_455 S
C3632 C3633 1.334 . S
C3633 H3610 0.950 . S
C3633 C3632 1.334 . S
C3633 C3634 1.287 1_455 S
C3634 C3633 1.287 1_655 S
C3634 C3635 1.524 . S
C3634 H3653 0.913 . S
C3635 H3611 0.950 . S
C3635 C3634 1.524 . S
C3635 C3636 1.415 . S
C3636 H3612 0.950 . S
C3636 C3631 1.363 . S
C3636 C3635 1.415 . S
C3637 H3613 0.951 . S
C3637 C3638 1.366 . S
C3637 C3639 1.388 . S
C3638 C3637 1.366 . S
C3638 C3642 1.385 . S
C3639 H3614 0.951 1_655 S
C3639 C3637 1.388 . S
C3639 C3640 1.366 . S
C3640 C3639 1.366 . S
C3640 C3641 1.414 . S
C3640 C3643 1.499 . S
C3641 H3615 0.950 . S
C3641 C3640 1.414 . S
C3641 C3642 1.374 . S
C3642 H3616 0.950 . S
C3642 C3638 1.385 . S
C3642 C3641 1.374 . S
C3643 C3640 1.499 . S
C3643 C3644 1.373 . S
C3643 C3645 1.389 1_655 S
C3644 H3617 0.950 . S
C3644 C3630 1.377 1_655 S
C3644 C3643 1.373 . S
C3645 C3629 1.377 . S
C3645 C3643 1.389 1_455 S
C3645 C3646 1.524 . S
C3646 C3645 1.524 . S
C3646 C3647 1.397 . S
C3646 C3651 1.363 . S
C3647 H3618 0.950 1_455 S
C3647 C3646 1.397 . S
C3647 C3648 1.334 . S
C3648 H3619 0.950 . S
C3648 C3647 1.334 . S
C3648 C3649 1.287 . S
C3649 C3648 1.287 . S
C3649 C3650 1.524 . S
C3649 H3652 0.999 . S
C3650 H3620 0.950 . S
C3650 C3649 1.524 . S
C3650 C3651 1.415 . S
C3651 H3621 0.950 . S
C3651 C3646 1.363 . S
C3651 C3650 1.415 . S
H3652 C3649 0.999 . S
H3653 C3634 0.913 . S
H3654 C3672 0.951 . S
H3655 C3674 0.951 . S
H3656 C3676 0.950 . S
H3657 C3677 0.950 . S
H3658 C3679 0.950 . S
H3659 C3682 0.950 . S
H3660 C3683 0.950 . S
H3661 C3685 0.950 . S
H3662 C3686 0.950 . S
H3663 C3687 0.951 . S
H3664 C3689 0.951 . S
H3665 C3691 0.950 . S
H3666 C3692 0.950 . S
H3667 C3694 0.950 . S
H3668 C3697 0.950 . S
H3669 C3698 0.950 . S
H3670 C3700 0.950 . S
H3671 C3701 0.950 . S
C3672 H3654 0.951 . S
C3672 C3673 1.366 . S
C3672 C3674 1.388 . S
C3673 C3672 1.366 . S
C3673 C3677 1.385 . S
C3674 H3655 0.951 . S
C3674 C3672 1.388 . S
C3674 C3675 1.366 . S
C3675 C3674 1.366 . S
C3675 C3676 1.414 . S
C3675 C3678 1.499 . S
C3676 H3656 0.950 . S
C3676 C3675 1.414 . S
C3676 C3677 1.374 . S
C3677 H3657 0.950 . S
C3677 C3673 1.385 . S
C3677 C3676 1.374 . S
C3678 C3675 1.499 . S
C3678 C3679 1.373 . S
C3678 C3680 1.389 . S
C3679 H3658 0.950 . S
C3679 C3678 1.373 . S
C3679 C3695 1.377 . S
C3680 C3678 1.389 . S
C3680 C3681 1.524 . S
C3680 C3694 1.377 . S
C3681 C3680 1.524 . S
C3681 C3682 1.397 . S
C3681 C3686 1.363 . S
C3682 H3659 0.950 . S
C3682 C3681 1.397 . S
C3682 C3683 1.334 . S
C3683 H3660 0.950 . S
C3683 C3682 1.334 . S
C3683 C3684 1.287 . S
C3684 C3683 1.287 . S
C3684 C3685 1.524 . S
C3684 H3703 0.913 . S
C3685 H3661 0.950 . S
C3685 C3684 1.524 . S
C3685 C3686 1.415 . S
C3686 H3662 0.950 . S
C3686 C3681 1.363 . S
C3686 C3685 1.415 . S
C3687 H3663 0.951 . S
C3687 C3688 1.366 . S
C3687 C3689 1.388 . S
C3688 C3687 1.366 . S
C3688 C3692 1.385 . S
C3689 H3664 0.951 . S
C3689 C3687 1.388 . S
C3689 C3690 1.366 . S
C3690 C3689 1.366 . S
C3690 C3691 1.414 . S
C3690 C3693 1.499 . S
C3691 H3665 0.950 . S
C3691 C3690 1.414 . S
C3691 C3692 1.374 . S
C3692 H3666 0.950 . S
C3692 C3688 1.385 . S
C3692 C3691 1.374 . S
C3693 C3690 1.499 . S
C3693 C3694 1.373 . S
C3693 C3695 1.389 . S
C3694 H3667 0.950 . S
C3694 C3680 1.377 . S
C3694 C3693 1.373 . S
C3695 C3679 1.377 . S
C3695 C3693 1.389 . S
C3695 C3696 1.524 . S
C3696 C3695 1.524 . S
C3696 C3697 1.397 . S
C3696 C3701 1.363 . S
C3697 H3668 0.950 . S
C3697 C3696 1.397 . S
C3697 C3698 1.334 . S
C3698 H3669 0.950 . S
C3698 C3697 1.334 . S
C3698 C3699 1.287 . S
C3699 C3698 1.287 . S
C3699 C3700 1.524 . S
C3699 H3702 0.999 . S
C3700 H3670 0.950 . S
C3700 C3699 1.524 . S
C3700 C3701 1.415 . S
C3701 H3671 0.950 . S
C3701 C3696 1.363 . S
C3701 C3700 1.415 . S
H3702 C3699 0.999 . S
H3703 C3684 0.913 . S
H3704 C3722 0.951 . S
H3705 C3724 0.951 . S
H3706 C3726 0.950 . S
H3707 C3727 0.950 . S
H3708 C3729 0.951 1_565 S
H3709 C3732 0.950 . S
H3710 C3733 0.950 . S
H3711 C3735 0.950 . S
H3712 C3736 0.950 . S
H3713 C3737 0.951 . S
H3714 C3739 0.951 . S
H3715 C3741 0.950 1_545 S
H3716 C3742 0.950 . S
H3717 C3744 0.950 . S
H3718 C3747 0.950 . S
H3719 C3748 0.950 . S
H3720 C3750 0.950 . S
H3721 C3751 0.950 . S
C3722 H3704 0.951 . S
C3722 C3723 1.366 . S
C3722 C3724 1.388 . S
C3723 C3722 1.366 . S
C3723 C3727 1.385 . S
C3724 H3705 0.951 . S
C3724 C3722 1.388 . S
C3724 C3725 1.366 . S
C3725 C3724 1.366 . S
C3725 C3726 1.414 . S
C3725 C3728 1.499 . S
C3726 H3706 0.950 . S
C3726 C3725 1.414 . S
C3726 C3727 1.374 . S
C3727 H3707 0.950 . S
C3727 C3723 1.385 . S
C3727 C3726 1.374 . S
C3728 C3725 1.499 . S
C3728 C3729 1.384 . S
C3728 C3730 1.389 . S
C3729 H3708 0.951 1_545 S
C3729 C3728 1.384 . S
C3729 C3745 1.365 1_545 S
C3730 C3728 1.389 . S
C3730 C3731 1.524 . S
C3730 C3744 1.377 . S
C3731 C3730 1.524 . S
C3731 C3732 1.397 . S
C3731 C3736 1.363 . S
C3732 H3709 0.950 . S
C3732 C3731 1.397 . S
C3732 C3733 1.334 . S
C3733 H3710 0.950 . S
C3733 C3732 1.334 . S
C3733 C3734 1.287 . S
C3734 C3733 1.287 . S
C3734 C3735 1.524 . S
C3734 H3753 0.913 . S
C3735 H3711 0.950 . S
C3735 C3734 1.524 . S
C3735 C3736 1.415 . S
C3736 H3712 0.950 . S
C3736 C3731 1.363 . S
C3736 C3735 1.415 . S
C3737 H3713 0.951 . S
C3737 C3738 1.366 . S
C3737 C3739 1.388 . S
C3738 C3737 1.366 . S
C3738 C3742 1.385 . S
C3739 H3714 0.951 . S
C3739 C3737 1.388 . S
C3739 C3740 1.366 . S
C3740 C3739 1.366 . S
C3740 C3741 1.414 . S
C3740 C3743 1.527 . S
C3741 H3715 0.950 1_565 S
C3741 C3740 1.414 . S
C3741 C3742 1.374 . S
C3742 H3716 0.950 . S
C3742 C3738 1.385 . S
C3742 C3741 1.374 . S
C3743 C3740 1.527 . S
C3743 C3744 1.348 1_565 S
C3743 C3745 1.387 . S
C3744 H3717 0.950 . S
C3744 C3730 1.377 . S
C3744 C3743 1.348 1_545 S
C3745 C3729 1.365 1_565 S
C3745 C3743 1.387 . S
C3745 C3746 1.524 . S
C3746 C3745 1.524 . S
C3746 C3747 1.397 . S
C3746 C3751 1.363 . S
C3747 H3718 0.950 . S
C3747 C3746 1.397 . S
C3747 C3748 1.334 . S
C3748 H3719 0.950 . S
C3748 C3747 1.334 . S
C3748 C3749 1.287 . S
C3749 C3748 1.287 . S
C3749 C3750 1.524 . S
C3749 H3752 0.999 . S
C3750 H3720 0.950 . S
C3750 C3749 1.524 . S
C3750 C3751 1.415 . S
C3751 H3721 0.950 . S
C3751 C3746 1.363 . S
C3751 C3750 1.415 . S
H3752 C3749 0.999 . S
H3753 C3734 0.913 . S
H3754 C3772 0.951 . S
H3755 C3774 0.951 1_655 S
H3756 C3776 0.950 . S
H3757 C3777 0.950 . S
H3758 C3779 0.950 1_455 S
H3759 C3782 0.950 . S
H3760 C3783 0.950 . S
H3761 C3785 0.950 . S
H3762 C3786 0.950 . S
H3763 C3787 0.951 . S
H3764 C3789 0.951 . S
H3765 C3791 0.950 . S
H3766 C3792 0.950 . S
H3767 C3794 0.950 . S
H3768 C3797 0.950 . S
H3769 C3798 0.950 . S
H3770 C3800 0.950 1_455 S
H3771 C3801 0.950 1_455 S
C3772 H3754 0.951 . S
C3772 C3773 1.366 . S
C3772 C3774 1.388 . S
C3773 C3772 1.366 . S
C3773 C3777 1.385 . S
C3774 H3755 0.951 1_455 S
C3774 C3772 1.388 . S
C3774 C3775 1.366 . S
C3775 C3774 1.366 . S
C3775 C3776 1.414 . S
C3775 C3778 1.499 . S
C3776 H3756 0.950 . S
C3776 C3775 1.414 . S
C3776 C3777 1.374 . S
C3777 H3757 0.950 . S
C3777 C3773 1.385 . S
C3777 C3776 1.374 . S
C3778 C3775 1.499 . S
C3778 C3779 1.373 1_455 S
C3778 C3780 1.389 1_455 S
C3779 H3758 0.950 1_655 S
C3779 C3778 1.373 1_655 S
C3779 C3795 1.377 . S
C3780 C3778 1.389 1_655 S
C3780 C3781 1.526 . S
C3780 C3794 1.377 . S
C3781 C3780 1.526 . S
C3781 C3782 1.383 1_655 S
C3781 C3786 1.374 . S
C3782 H3759 0.950 . S
C3782 C3781 1.383 1_455 S
C3782 C3783 1.334 . S
C3783 H3760 0.950 . S
C3783 C3782 1.334 . S
C3783 C3784 1.287 . S
C3784 C3783 1.287 . S
C3784 C3785 1.524 1_455 S
C3784 H3803 0.913 . S
C3785 H3761 0.950 . S
C3785 C3784 1.524 1_655 S
C3785 C3786 1.415 . S
C3786 H3762 0.950 . S
C3786 C3781 1.374 . S
C3786 C3785 1.415 . S
C3787 H3763 0.951 . S
C3787 C3788 1.366 . S
C3787 C3789 1.388 . S
C3788 C3787 1.366 . S
C3788 C3792 1.385 . S
C3789 H3764 0.951 . S
C3789 C3787 1.388 . S
C3789 C3790 1.366 . S
C3790 C3789 1.366 . S
C3790 C3791 1.414 . S
C3790 C3793 1.499 . S
C3791 H3765 0.950 . S
C3791 C3790 1.414 . S
C3791 C3792 1.374 . S
C3792 H3766 0.950 . S
C3792 C3788 1.385 . S
C3792 C3791 1.374 . S
C3793 C3790 1.499 . S
C3793 C3794 1.373 . S
C3793 C3795 1.389 . S
C3794 H3767 0.950 . S
C3794 C3780 1.377 . S
C3794 C3793 1.373 . S
C3795 C3779 1.377 . S
C3795 C3793 1.389 . S
C3795 C3796 1.524 . S
C3796 C3795 1.524 . S
C3796 C3797 1.397 . S
C3796 C3801 1.363 . S
C3797 H3768 0.950 . S
C3797 C3796 1.397 . S
C3797 C3798 1.334 . S
C3798 H3769 0.950 . S
C3798 C3797 1.334 . S
C3798 C3799 1.287 . S
C3799 C3798 1.287 . S
C3799 C3800 1.524 . S
C3799 H3802 0.999 . S
C3800 H3770 0.950 1_655 S
C3800 C3799 1.524 . S
C3800 C3801 1.415 . S
C3801 H3771 0.950 1_655 S
C3801 C3796 1.363 . S
C3801 C3800 1.415 . S
H3802 C3799 0.999 . S
H3803 C3784 0.913 . S
H3804 C3822 0.951 . S
H3805 C3824 0.951 . S
H3806 C3826 0.950 . S
H3807 C3827 0.950 . S
H3808 C3829 0.950 . S
H3809 C3832 0.950 . S
H3810 C3833 0.950 . S
H3811 C3835 0.950 . S
H3812 C3836 0.950 . S
H3813 C3837 0.951 . S
H3814 C3839 0.951 . S
H3815 C3841 0.950 . S
H3816 C3842 0.950 . S
H3817 C3844 0.950 . S
H3818 C3847 0.950 . S
H3819 C3848 0.950 . S
H3820 C3850 0.950 . S
H3821 C3851 0.950 . S
C3822 H3804 0.951 . S
C3822 C3823 1.366 . S
C3822 C3824 1.388 . S
C3823 C3822 1.366 . S
C3823 C3827 1.385 . S
C3824 H3805 0.951 . S
C3824 C3822 1.388 . S
C3824 C3825 1.366 . S
C3825 C3824 1.366 . S
C3825 C3826 1.414 . S
C3825 C3828 1.499 . S
C3826 H3806 0.950 . S
C3826 C3825 1.414 . S
C3826 C3827 1.374 . S
C3827 H3807 0.950 . S
C3827 C3823 1.385 . S
C3827 C3826 1.374 . S
C3828 C3825 1.499 . S
C3828 C3829 1.373 . S
C3828 C3830 1.389 . S
C3829 H3808 0.950 . S
C3829 C3828 1.373 . S
C3829 C3845 1.377 1_655 S
C3830 C3828 1.389 . S
C3830 C3831 1.524 . S
C3830 C3844 1.377 1_655 S
C3831 C3830 1.524 . S
C3831 C3832 1.397 . S
C3831 C3836 1.363 . S
C3832 H3809 0.950 . S
C3832 C3831 1.397 . S
C3832 C3833 1.334 . S
C3833 H3810 0.950 . S
C3833 C3832 1.334 . S
C3833 C3834 1.287 . S
C3834 C3833 1.287 . S
C3834 C3835 1.524 . S
C3834 H3853 0.913 . S
C3835 H3811 0.950 . S
C3835 C3834 1.524 . S
C3835 C3836 1.415 . S
C3836 H3812 0.950 . S
C3836 C3831 1.363 . S
C3836 C3835 1.415 . S
C3837 H3813 0.951 . S
C3837 C3838 1.366 . S
C3837 C3839 1.388 . S
C3838 C3837 1.366 . S
C3838 C3842 1.385 . S
C3839 H3814 0.951 . S
C3839 C3837 1.388 . S
C3839 C3840 1.366 . S
C3840 C3839 1.366 . S
C3840 C3841 1.414 . S
C3840 C3843 1.499 . S
C3841 H3815 0.950 . S
C3841 C3840 1.414 . S
C3841 C3842 1.374 . S
C3842 H3816 0.950 . S
C3842 C3838 1.385 . S
C3842 C3841 1.374 . S
C3843 C3840 1.499 . S
C3843 C3844 1.373 . S
C3843 C3845 1.389 . S
C3844 H3817 0.950 . S
C3844 C3830 1.377 1_455 S
C3844 C3843 1.373 . S
C3845 C3829 1.377 1_455 S
C3845 C3843 1.389 . S
C3845 C3846 1.524 . S
C3846 C3845 1.524 . S
C3846 C3847 1.397 . S
C3846 C3851 1.363 . S
C3847 H3818 0.950 . S
C3847 C3846 1.397 . S
C3847 C3848 1.334 . S
C3848 H3819 0.950 . S
C3848 C3847 1.334 . S
C3848 C3849 1.287 . S
C3849 C3848 1.287 . S
C3849 C3850 1.524 . S
C3849 H3852 0.999 . S
C3850 H3820 0.950 . S
C3850 C3849 1.524 . S
C3850 C3851 1.415 . S
C3851 H3821 0.950 . S
C3851 C3846 1.363 . S
C3851 C3850 1.415 . S
H3852 C3849 0.999 . S
H3853 C3834 0.913 . S
H3854 C3872 0.951 . S
H3855 C3874 0.951 . S
H3856 C3876 0.950 . S
H3857 C3877 0.950 . S
H3858 C3879 0.950 . S
H3859 C3882 0.950 . S
H3860 C3883 0.950 . S
H3861 C3885 0.950 . S
H3862 C3886 0.950 . S
H3863 C3887 0.951 . S
H3864 C3889 0.951 . S
H3865 C3891 0.950 . S
H3866 C3892 0.950 . S
H3867 C3894 0.950 . S
H3868 C3897 0.950 . S
H3869 C3898 0.950 . S
H3870 C3900 0.950 . S
H3871 C3901 0.950 . S
C3872 H3854 0.951 . S
C3872 C3873 1.366 . S
C3872 C3874 1.388 . S
C3873 C3872 1.366 . S
C3873 C3877 1.385 . S
C3874 H3855 0.951 . S
C3874 C3872 1.388 . S
C3874 C3875 1.366 . S
C3875 C3874 1.366 . S
C3875 C3876 1.414 . S
C3875 C3878 1.499 . S
C3876 H3856 0.950 . S
C3876 C3875 1.414 . S
C3876 C3877 1.374 . S
C3877 H3857 0.950 . S
C3877 C3873 1.385 . S
C3877 C3876 1.374 . S
C3878 C3875 1.499 . S
C3878 C3879 1.373 . S
C3878 C3880 1.389 . S
C3879 H3858 0.950 . S
C3879 C3878 1.373 . S
C3879 C3895 1.377 . S
C3880 C3878 1.389 . S
C3880 C3881 1.524 . S
C3880 C3894 1.377 . S
C3881 C3880 1.524 . S
C3881 C3882 1.397 . S
C3881 C3886 1.363 . S
C3882 H3859 0.950 . S
C3882 C3881 1.397 . S
C3882 C3883 1.334 . S
C3883 H3860 0.950 . S
C3883 C3882 1.334 . S
C3883 C3884 1.287 . S
C3884 C3883 1.287 . S
C3884 C3885 1.524 . S
C3884 H3903 0.913 . S
C3885 H3861 0.950 . S
C3885 C3884 1.524 . S
C3885 C3886 1.415 . S
C3886 H3862 0.950 . S
C3886 C3881 1.363 . S
C3886 C3885 1.415 . S
C3887 H3863 0.951 . S
C3887 C3888 1.366 . S
C3887 C3889 1.388 . S
C3888 C3887 1.366 . S
C3888 C3892 1.385 . S
C3889 H3864 0.951 . S
C3889 C3887 1.388 . S
C3889 C3890 1.366 . S
C3890 C3889 1.366 . S
C3890 C3891 1.414 . S
C3890 C3893 1.499 . S
C3891 H3865 0.950 . S
C3891 C3890 1.414 . S
C3891 C3892 1.374 . S
C3892 H3866 0.950 . S
C3892 C3888 1.385 . S
C3892 C3891 1.374 . S
C3893 C3890 1.499 . S
C3893 C3894 1.373 . S
C3893 C3895 1.389 . S
C3894 H3867 0.950 . S
C3894 C3880 1.377 . S
C3894 C3893 1.373 . S
C3895 C3879 1.377 . S
C3895 C3893 1.389 . S
C3895 C3896 1.524 . S
C3896 C3895 1.524 . S
C3896 C3897 1.397 . S
C3896 C3901 1.363 . S
C3897 H3868 0.950 . S
C3897 C3896 1.397 . S
C3897 C3898 1.334 . S
C3898 H3869 0.950 . S
C3898 C3897 1.334 . S
C3898 C3899 1.287 . S
C3899 C3898 1.287 . S
C3899 C3900 1.524 . S
C3899 H3902 0.999 . S
C3900 H3870 0.950 . S
C3900 C3899 1.524 . S
C3900 C3901 1.415 . S
C3901 H3871 0.950 . S
C3901 C3896 1.363 . S
C3901 C3900 1.415 . S
H3902 C3899 0.999 . S
H3903 C3884 0.913 . S
H3904 C3922 0.951 . S
H3905 C3924 0.951 . S
H3906 C3926 0.950 . S
H3907 C3927 0.950 . S
H3908 C3929 0.950 . S
H3909 C3932 0.950 . S
H3910 C3933 0.950 . S
H3911 C3935 0.928 1_545 S
H3912 C3936 0.950 . S
H3913 C3937 0.951 . S
H3914 C3939 0.951 . S
H3915 C3941 0.950 . S
H3916 C3942 0.950 . S
H3917 C3944 0.950 . S
H3918 C3947 0.950 . S
H3919 C3948 0.950 . S
H3920 C3950 0.928 1_565 S
H3921 C3951 0.950 . S
C3922 H3904 0.951 . S
C3922 C3923 1.366 . S
C3922 C3924 1.388 . S
C3923 C3922 1.366 . S
C3923 C3927 1.385 . S
C3924 H3905 0.951 . S
C3924 C3922 1.388 . S
C3924 C3925 1.366 . S
C3925 C3924 1.366 . S
C3925 C3926 1.414 . S
C3925 C3928 1.499 . S
C3926 H3906 0.950 . S
C3926 C3925 1.414 . S
C3926 C3927 1.374 . S
C3927 H3907 0.950 . S
C3927 C3923 1.385 . S
C3927 C3926 1.374 . S
C3928 C3925 1.499 . S
C3928 C3929 1.373 . S
C3928 C3930 1.389 . S
C3929 H3908 0.950 . S
C3929 C3928 1.373 . S
C3929 C3945 1.377 1_565 S
C3930 C3928 1.389 . S
C3930 C3931 1.524 . S
C3930 C3944 1.377 1_565 S
C3931 C3930 1.524 . S
C3931 C3932 1.397 . S
C3931 C3936 1.363 1_565 S
C3932 H3909 0.950 . S
C3932 C3931 1.397 . S
C3932 C3933 1.334 . S
C3933 H3910 0.950 . S
C3933 C3932 1.334 . S
C3933 C3934 1.287 . S
C3934 C3933 1.287 . S
C3934 C3935 1.567 . S
C3934 H3953 0.913 . S
C3935 H3911 0.928 1_565 S
C3935 C3934 1.567 . S
C3935 C3936 1.398 1_565 S
C3936 H3912 0.950 . S
C3936 C3931 1.363 1_545 S
C3936 C3935 1.398 1_545 S
C3937 H3913 0.951 . S
C3937 C3938 1.366 . S
C3937 C3939 1.388 . S
C3938 C3937 1.366 . S
C3938 C3942 1.385 . S
C3939 H3914 0.951 . S
C3939 C3937 1.388 . S
C3939 C3940 1.366 . S
C3940 C3939 1.366 . S
C3940 C3941 1.414 . S
C3940 C3943 1.499 . S
C3941 H3915 0.950 . S
C3941 C3940 1.414 . S
C3941 C3942 1.374 . S
C3942 H3916 0.950 . S
C3942 C3938 1.385 . S
C3942 C3941 1.374 . S
C3943 C3940 1.499 . S
C3943 C3944 1.373 . S
C3943 C3945 1.389 . S
C3944 H3917 0.950 . S
C3944 C3930 1.377 1_545 S
C3944 C3943 1.373 . S
C3945 C3929 1.377 1_545 S
C3945 C3943 1.389 . S
C3945 C3946 1.524 . S
C3946 C3945 1.524 . S
C3946 C3947 1.397 . S
C3946 C3951 1.363 1_545 S
C3947 H3918 0.950 . S
C3947 C3946 1.397 . S
C3947 C3948 1.334 . S
C3948 H3919 0.950 . S
C3948 C3947 1.334 . S
C3948 C3949 1.287 . S
C3949 C3948 1.287 . S
C3949 C3950 1.567 . S
C3949 H3952 0.999 . S
C3950 H3920 0.928 1_545 S
C3950 C3949 1.567 . S
C3950 C3951 1.398 1_545 S
C3951 H3921 0.950 . S
C3951 C3946 1.363 1_565 S
C3951 C3950 1.398 1_565 S
H3952 C3949 0.999 . S
H3953 C3934 0.913 . S
H3954 C3972 0.951 . S
H3955 C3974 0.951 . S
H3956 C3976 0.950 . S
H3957 C3977 0.950 . S
H3958 C3979 0.950 . S
H3959 C3982 0.950 . S
H3960 C3983 0.950 . S
H3961 C3985 0.950 . S
H3962 C3986 0.950 . S
H3963 C3987 0.951 . S
H3964 C3989 0.951 . S
H3965 C3991 0.950 . S
H3966 C3992 0.950 . S
H3967 C3994 0.950 . S
H3968 C3997 0.950 . S
H3969 C3998 0.950 . S
H3970 C4000 0.950 . S
H3971 C4001 0.950 . S
C3972 H3954 0.951 . S
C3972 C3973 1.366 . S
C3972 C3974 1.388 . S
C3973 C3972 1.366 . S
C3973 C3977 1.385 . S
C3974 H3955 0.951 . S
C3974 C3972 1.388 . S
C3974 C3975 1.366 . S
C3975 C3974 1.366 . S
C3975 C3976 1.414 . S
C3975 C3978 1.499 . S
C3976 H3956 0.950 . S
C3976 C3975 1.414 . S
C3976 C3977 1.374 . S
C3977 H3957 0.950 . S
C3977 C3973 1.385 . S
C3977 C3976 1.374 . S
C3978 C3975 1.499 . S
C3978 C3979 1.373 . S
C3978 C3980 1.389 . S
C3979 H3958 0.950 . S
C3979 C3978 1.373 . S
C3979 C3995 1.377 1_565 S
C3980 C3978 1.389 . S
C3980 C3981 1.524 . S
C3980 C3994 1.377 1_565 S
C3981 C3980 1.524 . S
C3981 C3982 1.397 . S
C3981 C3986 1.363 . S
C3982 H3959 0.950 . S
C3982 C3981 1.397 . S
C3982 C3983 1.334 . S
C3983 H3960 0.950 . S
C3983 C3982 1.334 . S
C3983 C3984 1.287 . S
C3984 C3983 1.287 . S
C3984 C3985 1.524 . S
C3984 H4003 0.913 . S
C3985 H3961 0.950 . S
C3985 C3984 1.524 . S
C3985 C3986 1.415 . S
C3986 H3962 0.950 . S
C3986 C3981 1.363 . S
C3986 C3985 1.415 . S
C3987 H3963 0.951 . S
C3987 C3988 1.366 . S
C3987 C3989 1.388 . S
C3988 C3987 1.366 . S
C3988 C3992 1.385 . S
C3989 H3964 0.951 . S
C3989 C3987 1.388 . S
C3989 C3990 1.366 . S
C3990 C3989 1.366 . S
C3990 C3991 1.414 . S
C3990 C3993 1.499 . S
C3991 H3965 0.950 . S
C3991 C3990 1.414 . S
C3991 C3992 1.374 . S
C3992 H3966 0.950 . S
C3992 C3988 1.385 . S
C3992 C3991 1.374 . S
C3993 C3990 1.499 . S
C3993 C3994 1.373 . S
C3993 C3995 1.389 . S
C3994 H3967 0.950 . S
C3994 C3980 1.377 1_545 S
C3994 C3993 1.373 . S
C3995 C3979 1.377 1_545 S
C3995 C3993 1.389 . S
C3995 C3996 1.524 . S
C3996 C3995 1.524 . S
C3996 C3997 1.397 . S
C3996 C4001 1.363 . S
C3997 H3968 0.950 . S
C3997 C3996 1.397 . S
C3997 C3998 1.334 . S
C3998 H3969 0.950 . S
C3998 C3997 1.334 . S
C3998 C3999 1.287 . S
C3999 C3998 1.287 . S
C3999 C4000 1.524 . S
C3999 H4002 0.999 . S
C4000 H3970 0.950 . S
C4000 C3999 1.524 . S
C4000 C4001 1.415 . S
C4001 H3971 0.950 . S
C4001 C3996 1.363 . S
C4001 C4000 1.415 . S
H4002 C3999 0.999 . S
H4003 C3984 0.913 . S
H4004 C4022 0.951 . S
H4005 C4024 0.951 . S
H4006 C4026 0.950 . S
H4007 C4027 0.950 . S
H4008 C4029 0.950 . S
H4009 C4032 0.950 . S
H4010 C4033 0.950 . S
H4011 C4035 0.950 . S
H4012 C4036 0.950 . S
H4013 C4037 0.951 . S
H4014 C4039 0.951 . S
H4015 C4041 0.950 . S
H4016 C4042 0.950 . S
H4017 C4044 0.950 . S
H4018 C4047 0.950 . S
H4019 C4048 0.950 . S
H4020 C4050 0.950 . S
H4021 C4051 0.950 . S
C4022 H4004 0.951 . S
C4022 C4023 1.366 . S
C4022 C4024 1.388 . S
C4023 C4022 1.366 . S
C4023 C4027 1.385 . S
C4024 H4005 0.951 . S
C4024 C4022 1.388 . S
C4024 C4025 1.366 . S
C4025 C4024 1.366 . S
C4025 C4026 1.414 . S
C4025 C4028 1.499 . S
C4026 H4006 0.950 . S
C4026 C4025 1.414 . S
C4026 C4027 1.374 . S
C4027 H4007 0.950 . S
C4027 C4023 1.385 . S
C4027 C4026 1.374 . S
C4028 C4025 1.499 . S
C4028 C4029 1.373 . S
C4028 C4030 1.389 . S
C4029 H4008 0.950 . S
C4029 C4028 1.373 . S
C4029 C4045 1.377 1_655 S
C4030 C4028 1.389 . S
C4030 C4031 1.524 . S
C4030 C4044 1.377 1_655 S
C4031 C4030 1.524 . S
C4031 C4032 1.397 . S
C4031 C4036 1.363 . S
C4032 H4009 0.950 . S
C4032 C4031 1.397 . S
C4032 C4033 1.334 . S
C4033 H4010 0.950 . S
C4033 C4032 1.334 . S
C4033 C4034 1.287 . S
C4034 C4033 1.287 . S
C4034 C4035 1.524 . S
C4034 H4053 0.913 . S
C4035 H4011 0.950 . S
C4035 C4034 1.524 . S
C4035 C4036 1.415 . S
C4036 H4012 0.950 . S
C4036 C4031 1.363 . S
C4036 C4035 1.415 . S
C4037 H4013 0.951 . S
C4037 C4038 1.366 . S
C4037 C4039 1.388 . S
C4038 C4037 1.366 . S
C4038 C4042 1.385 . S
C4039 H4014 0.951 . S
C4039 C4037 1.388 . S
C4039 C4040 1.366 . S
C4040 C4039 1.366 . S
C4040 C4041 1.414 . S
C4040 C4043 1.499 . S
C4041 H4015 0.950 . S
C4041 C4040 1.414 . S
C4041 C4042 1.374 . S
C4042 H4016 0.950 . S
C4042 C4038 1.385 . S
C4042 C4041 1.374 . S
C4043 C4040 1.499 . S
C4043 C4044 1.373 . S
C4043 C4045 1.389 . S
C4044 H4017 0.950 . S
C4044 C4030 1.377 1_455 S
C4044 C4043 1.373 . S
C4045 C4029 1.377 1_455 S
C4045 C4043 1.389 . S
C4045 C4046 1.524 . S
C4046 C4045 1.524 . S
C4046 C4047 1.397 . S
C4046 C4051 1.363 . S
C4047 H4018 0.950 . S
C4047 C4046 1.397 . S
C4047 C4048 1.334 . S
C4048 H4019 0.950 . S
C4048 C4047 1.334 . S
C4048 C4049 1.287 . S
C4049 C4048 1.287 . S
C4049 C4050 1.524 . S
C4049 H4052 0.999 . S
C4050 H4020 0.950 . S
C4050 C4049 1.524 . S
C4050 C4051 1.415 . S
C4051 H4021 0.950 . S
C4051 C4046 1.363 . S
C4051 C4050 1.415 . S
H4052 C4049 0.999 . S
H4053 C4034 0.913 . S
H4054 C4072 0.951 . S
H4055 C4074 0.951 . S
H4056 C4076 0.950 . S
H4057 C4077 0.950 . S
H4058 C4079 0.950 . S
H4059 C4082 0.950 . S
H4060 C4083 0.950 . S
H4061 C4085 0.950 . S
H4062 C4086 0.950 . S
H4063 C4087 0.951 . S
H4064 C4089 0.951 . S
H4065 C4091 0.950 . S
H4066 C4092 0.950 . S
H4067 C4094 0.950 . S
H4068 C4097 0.950 . S
H4069 C4098 0.950 . S
H4070 C4100 0.950 . S
H4071 C4101 0.950 . S
C4072 H4054 0.951 . S
C4072 C4073 1.366 . S
C4072 C4074 1.388 . S
C4073 C4072 1.366 . S
C4073 C4077 1.385 . S
C4074 H4055 0.951 . S
C4074 C4072 1.388 . S
C4074 C4075 1.366 . S
C4075 C4074 1.366 . S
C4075 C4076 1.414 . S
C4075 C4078 1.499 . S
C4076 H4056 0.950 . S
C4076 C4075 1.414 . S
C4076 C4077 1.374 . S
C4077 H4057 0.950 . S
C4077 C4073 1.385 . S
C4077 C4076 1.374 . S
C4078 C4075 1.499 . S
C4078 C4079 1.373 . S
C4078 C4080 1.389 . S
C4079 H4058 0.950 . S
C4079 C4078 1.373 . S
C4079 C4095 1.377 . S
C4080 C4078 1.389 . S
C4080 C4081 1.524 . S
C4080 C4094 1.377 . S
C4081 C4080 1.524 . S
C4081 C4082 1.397 . S
C4081 C4086 1.363 . S
C4082 H4059 0.950 . S
C4082 C4081 1.397 . S
C4082 C4083 1.334 . S
C4083 H4060 0.950 . S
C4083 C4082 1.334 . S
C4083 C4084 1.287 . S
C4084 C4083 1.287 . S
C4084 C4085 1.524 . S
C4084 H4103 0.913 . S
C4085 H4061 0.950 . S
C4085 C4084 1.524 . S
C4085 C4086 1.415 . S
C4086 H4062 0.950 . S
C4086 C4081 1.363 . S
C4086 C4085 1.415 . S
C4087 H4063 0.951 . S
C4087 C4088 1.366 . S
C4087 C4089 1.388 . S
C4088 C4087 1.366 . S
C4088 C4092 1.385 . S
C4089 H4064 0.951 . S
C4089 C4087 1.388 . S
C4089 C4090 1.366 . S
C4090 C4089 1.366 . S
C4090 C4091 1.414 . S
C4090 C4093 1.499 . S
C4091 H4065 0.950 . S
C4091 C4090 1.414 . S
C4091 C4092 1.374 . S
C4092 H4066 0.950 . S
C4092 C4088 1.385 . S
C4092 C4091 1.374 . S
C4093 C4090 1.499 . S
C4093 C4094 1.373 . S
C4093 C4095 1.389 . S
C4094 H4067 0.950 . S
C4094 C4080 1.377 . S
C4094 C4093 1.373 . S
C4095 C4079 1.377 . S
C4095 C4093 1.389 . S
C4095 C4096 1.524 . S
C4096 C4095 1.524 . S
C4096 C4097 1.397 . S
C4096 C4101 1.363 . S
C4097 H4068 0.950 . S
C4097 C4096 1.397 . S
C4097 C4098 1.334 . S
C4098 H4069 0.950 . S
C4098 C4097 1.334 . S
C4098 C4099 1.287 . S
C4099 C4098 1.287 . S
C4099 C4100 1.524 . S
C4099 H4102 0.999 . S
C4100 H4070 0.950 . S
C4100 C4099 1.524 . S
C4100 C4101 1.415 . S
C4101 H4071 0.950 . S
C4101 C4096 1.363 . S
C4101 C4100 1.415 . S
H4102 C4099 0.999 . S
H4103 C4084 0.913 . S
C523 C8 1.264 . S
C538 C260 1.259 . S
C573 C17 1.379 . S
C588 C273 1.385 . S
C623 C287 1.372 . S
C638 C31 1.356 . S
C673 C45 1.355 . S
C688 C469 1.372 . S
C723 C483 1.385 . S
C738 C59 1.378 . S
C773 C78 1.264 . S
C788 C498 1.260 . S
C823 C344 1.264 . S
C838 C92 1.260 . S
C873 C105 1.385 . S
C888 C353 1.378 . S
C923 C119 1.372 . S
C938 C367 1.355 . S
C973 C133 1.372 . S
C988 C213 1.355 . S
C1023 C227 1.378 . S
C1038 C147 1.384 . S
C1073 C162 1.260 . S
C1088 C246 1.264 . S
C1123 C176 1.264 . S
C1138 C428 1.259 . S
C1173 C185 1.378 . S
C1188 C441 1.385 . S
C1223 C199 1.355 . S
C1238 C455 1.372 . S
C1273 C301 1.372 . S
C1288 C381 1.355 . S
C1323 C315 1.385 . S
C1338 C395 1.378 . S
C1373 C330 1.259 . S
C1388 C414 1.264 . S
C1423 C101 1.208 . S
C1438 C3 1.214 . S
C1473 C115 1.274 . S
C1488 C22 1.311 . S
C1523 C36 1.229 . S
C1538 C93 1.175 . S
C1573 C163 1.175 . S
C1588 C50 1.229 . S
C1623 C129 1.275 . S
C1638 C64 1.311 . S
C1673 C143 1.206 . S
C1688 C73 1.214 . S
C1723 C91 1.254 . S
C1738 C21 1.238 . S
C1773 C106 1.335 . S
C1788 C35 1.303 . S
C1823 C120 1.260 . S
C1838 C9 1.215 . S
C1873 C134 1.260 . S
C1888 C79 1.214 . S
C1923 C49 1.303 . S
C1938 C148 1.336 . S
C1973 C63 1.237 . S
C1988 C161 1.254 . S
C2023 C171 1.214 . S
C2038 C269 1.207 . S
C2073 C190 1.311 . S
C2088 C283 1.274 . S
C2123 C204 1.229 . S
C2138 C261 1.174 . S
C2173 C331 1.175 . S
C2188 C218 1.229 . S
C2223 C232 1.311 . S
C2238 C297 1.274 . S
C2273 C311 1.207 . S
C2288 C241 1.215 . S
C2323 C259 1.254 . S
C2338 C189 1.237 . S
C2373 C203 1.303 . S
C2388 C274 1.336 . S
C2423 C177 1.214 . S
C2438 C288 1.260 . S
C2473 C302 1.260 . S
C2488 C247 1.214 . S
C2523 C316 1.336 . S
C2538 C217 1.303 . S
C2573 C329 1.253 . S
C2588 C231 1.237 . S
C2623 C437 1.207 . S
C2638 C339 1.214 . S
C2673 C358 1.311 . S
C2688 C451 1.275 . S
C2723 C372 1.229 . S
C2738 C429 1.174 . S
C2773 C499 1.174 . S
C2788 C386 1.229 . S
C2823 C465 1.276 . S
C2838 C400 1.312 . S
C2873 C479 1.208 . S
C2888 C409 1.214 . S
C2923 C357 1.238 . S
C2938 C427 1.254 . S
C2973 C371 1.303 . S
C2988 C442 1.336 . S
C3023 C345 1.214 . S
C3038 C456 1.260 . S
C3073 C470 1.260 . S
C3088 C415 1.214 . S
C3123 C385 1.303 . S
C3138 C484 1.336 . S
C3173 C497 1.254 . S
C3188 C399 1.237 . S
C3223 C7 0.759 . S
C3238 C413 0.760 . S
C3273 C387 0.806 . S
C3288 C23 0.805 . S
C3323 C37 0.804 . S
C3338 C401 0.805 . S
C3373 C51 0.804 . S
C3388 C191 0.805 . S
C3423 C205 0.806 . S
C3438 C65 0.806 . S
C3473 C77 0.760 . S
C3488 C175 0.759 . S
C3523 C325 0.783 . S
C3538 C87 0.782 . S
C3573 C107 0.824 . S
C3588 C303 0.825 . S
C3623 C121 0.825 . S
C3638 C317 0.825 . S
C3673 C135 0.824 . S
C3688 C443 0.825 . S
C3723 C149 0.823 . S
C3738 C457 0.824 . S
C3773 C423 0.783 . S
C3788 C157 0.782 . S
C3823 C219 0.805 . S
C3838 C359 0.806 . S
C3873 C373 0.805 . S
C3888 C233 0.804 . S
C3923 C343 0.759 . S
C3938 C245 0.760 . S
C3973 C493 0.784 . S
C3988 C255 0.784 . S
C4023 C275 0.824 . S
C4038 C471 0.825 . S
C4073 C289 0.825 . S
C4088 C485 0.824 . S
