# Generated by pormake.
# Topology wlp, (5)-cn, num edge types: 1
# Building blocks:
#     Node 0, Type 0, BuildingBlock: BEQFEK_clean_sbu_0, # of connection points: 5
#     Node 1, Type 0, BuildingBlock: BEQFEK_clean_sbu_0, # of connection points: 5
#     Node 2, Type 0, BuildingBlock: BEQFEK_clean_sbu_0, # of connection points: 5
#     Node 3, Type 0, BuildingBlock: BEQFEK_clean_sbu_0, # of connection points: 5
#     Node 4, Type 0, BuildingBlock: BEQFEK_clean_sbu_0, # of connection points: 5
#     Node 5, Type 0, BuildingBlock: BEQFEK_clean_sbu_0, # of connection points: 5
#     Node 6, Type 0, BuildingBlock: BEQFEK_clean_sbu_0, # of connection points: 5
#     Node 7, Type 0, BuildingBlock: BEQFEK_clean_sbu_0, # of connection points: 5
#     Node 8, Type 0, BuildingBlock: BEQFEK_clean_sbu_0, # of connection points: 5
#     Node 9, Type 0, BuildingBlock: BEQFEK_clean_sbu_0, # of connection points: 5
#     Node 10, Type 0, BuildingBlock: BEQFEK_clean_sbu_0, # of connection points: 5
#     Node 11, Type 0, BuildingBlock: BEQFEK_clean_sbu_0, # of connection points: 5
#     Node 12, Type 0, BuildingBlock: BEQFEK_clean_sbu_0, # of connection points: 5
#     Node 13, Type 0, BuildingBlock: BEQFEK_clean_sbu_0, # of connection points: 5
#     Node 14, Type 0, BuildingBlock: BEQFEK_clean_sbu_0, # of connection points: 5
#     Node 15, Type 0, BuildingBlock: BEQFEK_clean_sbu_0, # of connection points: 5
#     Node 16, Type 0, BuildingBlock: BEQFEK_clean_sbu_0, # of connection points: 5
#     Node 17, Type 0, BuildingBlock: BEQFEK_clean_sbu_0, # of connection points: 5
#     Node 18, Type 0, BuildingBlock: BEQFEK_clean_sbu_0, # of connection points: 5
#     Node 19, Type 0, BuildingBlock: BEQFEK_clean_sbu_0, # of connection points: 5
#     Node 20, Type 0, BuildingBlock: BEQFEK_clean_sbu_0, # of connection points: 5
#     Node 21, Type 0, BuildingBlock: BEQFEK_clean_sbu_0, # of connection points: 5
#     Node 22, Type 0, BuildingBlock: BEQFEK_clean_sbu_0, # of connection points: 5
#     Node 23, Type 0, BuildingBlock: BEQFEK_clean_sbu_0, # of connection points: 5
#     Node 24, Type 0, BuildingBlock: BEQFEK_clean_sbu_0, # of connection points: 5
#     Node 25, Type 0, BuildingBlock: BEQFEK_clean_sbu_0, # of connection points: 5
#     Node 26, Type 0, BuildingBlock: BEQFEK_clean_sbu_0, # of connection points: 5
#     Node 27, Type 0, BuildingBlock: BEQFEK_clean_sbu_0, # of connection points: 5
#     Node 28, Type 0, BuildingBlock: BEQFEK_clean_sbu_0, # of connection points: 5
#     Node 29, Type 0, BuildingBlock: BEQFEK_clean_sbu_0, # of connection points: 5
#     Node 30, Type 0, BuildingBlock: BEQFEK_clean_sbu_0, # of connection points: 5
#     Node 31, Type 0, BuildingBlock: BEQFEK_clean_sbu_0, # of connection points: 5
#     Node 32, Type 0, BuildingBlock: BEQFEK_clean_sbu_0, # of connection points: 5
#     Node 33, Type 0, BuildingBlock: BEQFEK_clean_sbu_0, # of connection points: 5
#     Node 34, Type 0, BuildingBlock: BEQFEK_clean_sbu_0, # of connection points: 5
#     Node 35, Type 0, BuildingBlock: BEQFEK_clean_sbu_0, # of connection points: 5
#     Edge 36, Type (0, 0), None
#     Edge 37, Type (0, 0), None
#     Edge 38, Type (0, 0), None
#     Edge 39, Type (0, 0), None
#     Edge 40, Type (0, 0), None
#     Edge 41, Type (0, 0), None
#     Edge 42, Type (0, 0), None
#     Edge 43, Type (0, 0), None
#     Edge 44, Type (0, 0), None
#     Edge 45, Type (0, 0), None
#     Edge 46, Type (0, 0), None
#     Edge 47, Type (0, 0), None
#     Edge 48, Type (0, 0), None
#     Edge 49, Type (0, 0), None
#     Edge 50, Type (0, 0), None
#     Edge 51, Type (0, 0), None
#     Edge 52, Type (0, 0), None
#     Edge 53, Type (0, 0), None
#     Edge 54, Type (0, 0), None
#     Edge 55, Type (0, 0), None
#     Edge 56, Type (0, 0), None
#     Edge 57, Type (0, 0), None
#     Edge 58, Type (0, 0), None
#     Edge 59, Type (0, 0), None
#     Edge 60, Type (0, 0), None
#     Edge 61, Type (0, 0), None
#     Edge 62, Type (0, 0), None
#     Edge 63, Type (0, 0), None
#     Edge 64, Type (0, 0), None
#     Edge 65, Type (0, 0), None
#     Edge 66, Type (0, 0), None
#     Edge 67, Type (0, 0), None
#     Edge 68, Type (0, 0), None
#     Edge 69, Type (0, 0), None
#     Edge 70, Type (0, 0), None
#     Edge 71, Type (0, 0), None
#     Edge 72, Type (0, 0), None
#     Edge 73, Type (0, 0), None
#     Edge 74, Type (0, 0), None
#     Edge 75, Type (0, 0), None
#     Edge 76, Type (0, 0), None
#     Edge 77, Type (0, 0), None
#     Edge 78, Type (0, 0), None
#     Edge 79, Type (0, 0), None
#     Edge 80, Type (0, 0), None
#     Edge 81, Type (0, 0), None
#     Edge 82, Type (0, 0), None
#     Edge 83, Type (0, 0), None
#     Edge 84, Type (0, 0), None
#     Edge 85, Type (0, 0), None
#     Edge 86, Type (0, 0), None
#     Edge 87, Type (0, 0), None
#     Edge 88, Type (0, 0), None
#     Edge 89, Type (0, 0), None
#     Edge 90, Type (0, 0), None
#     Edge 91, Type (0, 0), None
#     Edge 92, Type (0, 0), None
#     Edge 93, Type (0, 0), None
#     Edge 94, Type (0, 0), None
#     Edge 95, Type (0, 0), None
#     Edge 96, Type (0, 0), None
#     Edge 97, Type (0, 0), None
#     Edge 98, Type (0, 0), None
#     Edge 99, Type (0, 0), None
#     Edge 100, Type (0, 0), None
#     Edge 101, Type (0, 0), None
#     Edge 102, Type (0, 0), None
#     Edge 103, Type (0, 0), None
#     Edge 104, Type (0, 0), None
#     Edge 105, Type (0, 0), None
#     Edge 106, Type (0, 0), None
#     Edge 107, Type (0, 0), None
#     Edge 108, Type (0, 0), None
#     Edge 109, Type (0, 0), None
#     Edge 110, Type (0, 0), None
#     Edge 111, Type (0, 0), None
#     Edge 112, Type (0, 0), None
#     Edge 113, Type (0, 0), None
#     Edge 114, Type (0, 0), None
#     Edge 115, Type (0, 0), None
#     Edge 116, Type (0, 0), None
#     Edge 117, Type (0, 0), None
#     Edge 118, Type (0, 0), None
#     Edge 119, Type (0, 0), None
#     Edge 120, Type (0, 0), None
#     Edge 121, Type (0, 0), None
#     Edge 122, Type (0, 0), None
#     Edge 123, Type (0, 0), None
#     Edge 124, Type (0, 0), None
#     Edge 125, Type (0, 0), None
# Relax obj value: 0.236
# Max RMSD: 0.122
# Mean RMSD: 0.122
data_MOF--net-wlp--node1-BEQFEK_clean_sbu_0--edge1-none
_symmetry_space_group_name_H-M    P1
_symmetry_Int_Tables_number       1
_symmetry_cell_setting            triclinic
loop_
_symmetry_equiv_pos_as_xyz
'x, y, z'
_cell_length_a     53.710227
_cell_length_b     53.712814
_cell_length_c     12.047334
_cell_angle_alpha  89.97352
_cell_angle_beta   90.026467
_cell_angle_gamma 120.01195
loop_
_atom_site_label
_atom_site_type_symbol
_atom_site_fract_x
_atom_site_fract_y
_atom_site_fract_z
_atom_type_partial_charge
Co0 Co 0.31936 0.20076 0.22138 0.0
Co1 Co 0.30285 0.22531 0.04164 0.0
C2 C 0.29131 0.17286 0.98068 0.0
O3 O 0.30384 0.1751 0.07487 0.0
O4 O 0.28266 0.1904 0.95473 0.0
C5 C 0.29137 0.15313 0.39285 0.0
O6 O 0.26739 0.14611 0.33989 0.0
C7 C 0.31724 0.27114 0.89297 0.0
C8 C 0.32959 0.30771 1.00652 0.0
C9 C 0.32679 0.30034 0.89539 0.0
N10 N 0.31257 0.26153 0.99616 0.0
N11 N 0.32155 0.28359 0.06466 0.0
C12 C 0.31013 0.25156 0.79532 0.0
H13 H 0.31989 0.23777 0.80691 0.0
H14 H 0.28652 0.23699 0.7927 0.0
H15 H 0.31802 0.26351 0.71632 0.0
C16 C 0.29131 0.233 0.35482 0.0
N17 N 0.29822 0.2214 0.26667 0.0
N18 N 0.28508 0.22374 0.18044 0.0
C19 C 0.26785 0.23443 0.20986 0.0
C20 C 0.27117 0.24201 0.32297 0.0
C21 C 0.30669 0.23857 0.46327 0.0
H22 H 0.32804 0.24043 0.45073 0.0
H23 H 0.2943 0.22017 0.52004 0.0
H24 H 0.30965 0.25869 0.50115 0.0
O25 O 0.36138 0.22711 0.15938 0.0
O26 O 0.34202 0.23239 1.00833 0.0
H27 H 0.2582 0.2569 0.08911 0.0
H28 H 0.22768 0.23235 0.17261 0.0
C29 C 0.2474 0.23571 0.12973 0.0
H30 H 0.2416 0.21922 0.06401 0.0
H31 H 0.322 0.2822 0.15093 0.0
O32 O 0.31519 0.17405 0.35559 0.0
C33 C 0.36353 0.23379 0.05551 0.0
Co34 Co 0.87285 0.13334 0.22211 0.0
Co35 Co 0.84839 0.09233 0.04227 0.0
C36 C 0.90083 0.1333 0.98159 0.0
O37 O 0.89854 0.14355 0.07573 0.0
O38 O 0.88333 0.10711 0.95556 0.0
C39 C 0.9205 0.15308 0.39357 0.0
O40 O 0.92759 0.13619 0.34049 0.0
C41 C 0.80267 0.06076 0.89339 0.0
C42 C 0.76605 0.03648 1.00679 0.0
C43 C 0.77347 0.04105 0.8957 0.0
N44 N 0.81222 0.06577 0.99664 0.0
N45 N 0.79013 0.05265 0.06502 0.0
C46 C 0.82229 0.07317 0.79583 0.0
H47 H 0.81037 0.06916 0.71678 0.0
H48 H 0.83618 0.09671 0.80742 0.0
H49 H 0.83676 0.06402 0.79333 0.0
C50 C 0.84067 0.07299 0.35543 0.0
N51 N 0.85226 0.09154 0.26733 0.0
N52 N 0.84994 0.0761 0.18105 0.0
C53 C 0.83927 0.04817 0.21038 0.0
C54 C 0.83168 0.04386 0.32345 0.0
C55 C 0.8351 0.08274 0.46396 0.0
H56 H 0.83321 0.10222 0.45155 0.0
H57 H 0.85351 0.08874 0.52067 0.0
H58 H 0.81499 0.06553 0.50184 0.0
O59 O 0.84644 0.14893 0.15998 0.0
O60 O 0.84123 0.12436 1.00887 0.0
H61 H 0.81683 1.01613 0.0894 0.0
H62 H 0.84131 1.01008 0.17299 0.0
C63 C 0.838 1.02648 0.13016 0.0
H64 H 0.85452 0.0372 0.06456 0.0
H65 H 0.79148 0.05451 0.15128 0.0
O66 O 0.89952 0.15589 0.35639 0.0
C67 C 0.83976 0.14441 0.0561 0.0
Co68 Co 0.93997 0.75418 0.2216 0.0
Co69 Co 0.98098 0.77084 0.04171 0.0
C70 C 0.93997 0.78223 0.98103 0.0
O71 O 0.92974 0.76967 0.07518 0.0
O72 O 0.96617 0.79097 0.95496 0.0
C73 C 0.9201 0.78205 0.39267 0.0
O74 O 0.93684 0.80601 0.33911 0.0
C75 C 1.0125 0.75663 0.8929 0.0
C76 C 1.03675 0.74428 1.00642 0.0
C77 C 1.03216 0.74709 0.89531 0.0
N78 N 1.00755 0.76126 0.99612 0.0
N79 N 1.02065 0.75228 0.06458 0.0
C80 C 1.00001 0.76373 0.79525 0.0
H81 H 0.97646 0.754 0.80688 0.0
H82 H 1.00907 0.78735 0.79251 0.0
H83 H 1.00404 0.75582 0.71629 0.0
C84 C 1.00033 0.78234 0.35481 0.0
N85 N 0.98177 0.77542 0.26675 0.0
N86 N 0.9972 0.78861 0.1805 0.0
C87 C 1.02514 0.80587 0.20982 0.0
C88 C 1.02946 0.80253 0.32284 0.0
C89 C 0.9906 0.76694 0.46323 0.0
H90 H 0.97114 0.74557 0.45072 0.0
H91 H 0.98457 0.77928 0.5201 0.0
H92 H 1.00783 0.76405 0.501 0.0
O93 O 0.92442 0.71219 0.15948 0.0
O94 O 0.94898 0.73162 1.00837 0.0
H95 H 0.05719 0.81558 0.0888 0.0
H96 H 0.06321 0.84606 0.17259 0.0
C97 C 0.04682 0.82636 0.12967 0.0
H98 H 1.03609 0.83218 0.06414 0.0
H99 H 1.01881 0.7518 0.15084 0.0
O100 O 0.9174 0.75828 0.3559 0.0
C101 C 0.92896 0.71007 0.0556 0.0
Co102 Co 0.21547 0.30474 0.49167 0.0
Co103 Co 0.24009 0.2883 0.67135 0.0
C104 C 0.18762 0.2767 0.73241 0.0
O105 O 0.18983 0.28922 0.63822 0.0
O106 O 0.20519 0.26808 0.75833 0.0
C107 C 0.16789 0.27672 0.32002 0.0
O108 O 0.16097 0.25272 0.37271 0.0
C109 C 0.28591 0.30252 0.81983 0.0
C110 C 0.3225 0.3149 0.70609 0.0
C111 C 0.31509 0.31197 0.81718 0.0
N112 N 0.27633 0.29803 0.71662 0.0
N113 N 0.29838 0.30702 0.64808 0.0
C114 C 0.26631 0.29522 0.91746 0.0
H115 H 0.25235 0.3048 0.90599 0.0
H116 H 0.25189 0.27158 0.9199 0.0
H117 H 0.27823 0.30313 0.9965 0.0
C118 C 0.24766 0.27664 0.35817 0.0
N119 N 0.23611 0.28359 0.44635 0.0
N120 N 0.2385 0.2705 0.53264 0.0
C121 C 0.24919 0.25327 0.50327 0.0
C122 C 0.2567 0.25652 0.39011 0.0
C123 C 0.25315 0.29194 0.2496 0.0
H124 H 0.255 0.31329 0.26197 0.0
H125 H 0.23473 0.2795 0.19301 0.0
H126 H 0.27326 0.29489 0.2116 0.0
O127 O 0.24181 0.34677 0.55366 0.0
O128 O 0.24713 0.32744 0.70472 0.0
H129 H 0.27174 0.24375 0.62413 0.0
H130 H 0.24721 0.21316 0.54086 0.0
C131 C 0.25054 0.23289 0.58357 0.0
H132 H 0.23406 0.22709 0.64934 0.0
H133 H 0.29699 0.30755 0.56183 0.0
O134 O 0.18875 0.30055 0.35749 0.0
C135 C 0.24851 0.34893 0.65752 0.0
Co136 Co 0.76883 0.92536 0.49169 0.0
Co137 Co 0.78541 0.96637 0.67151 0.0
C138 C 0.79687 0.92541 0.73234 0.0
O139 O 0.78432 0.91516 0.63817 0.0
O140 O 0.80556 0.9516 0.75836 0.0
C141 C 0.79673 0.90555 0.32051 0.0
O142 O 0.8207 0.92236 0.37387 0.0
C143 C 0.77134 0.99803 0.82013 0.0
C144 C 0.75894 1.02224 0.70641 0.0
C145 C 0.76188 1.01774 0.81748 0.0
N146 N 0.7758 0.99294 0.71691 0.0
N147 N 0.76679 1.00601 0.64839 0.0
C148 C 0.77862 0.9857 0.91778 0.0
H149 H 0.76905 0.96217 0.90627 0.0
H150 H 0.80226 0.99494 0.92033 0.0
H151 H 0.77067 0.98967 0.99677 0.0
C152 C 0.79702 0.98572 0.35842 0.0
N153 N 0.79007 0.96716 0.4465 0.0
N154 N 0.8032 0.9826 0.5328 0.0
C155 C 0.82046 1.01054 0.50353 0.0
C156 C 0.81718 1.01485 0.39044 0.0
C157 C 0.78169 0.97597 0.24987 0.0
H158 H 0.76033 0.95649 0.26224 0.0
H159 H 0.79409 0.96998 0.19318 0.0
H160 H 0.77879 0.99318 0.21198 0.0
O161 O 0.72682 0.90978 0.55377 0.0
O162 O 0.74621 0.93436 0.70488 0.0
H163 H 0.83002 0.04255 0.62462 0.0
H164 H 0.86058 0.04865 0.5411 0.0
C165 C 0.84086 0.03223 0.58384 0.0
H166 H 0.84668 1.02151 0.64944 0.0
H167 H 0.76623 1.00408 0.56215 0.0
O168 O 0.77295 0.9028 0.35743 0.0
C169 C 0.72468 0.91431 0.65764 0.0
Co170 Co 0.14797 0.85816 0.49106 0.0
Co171 Co 0.10696 0.83365 0.67088 0.0
C172 C 0.1479 0.88611 0.73163 0.0
O173 O 0.15816 0.88384 0.63747 0.0
O174 O 0.12171 0.86858 0.75764 0.0
C175 C 0.16766 0.90579 0.3195 0.0
O176 O 0.15072 0.91283 0.37244 0.0
C177 C 0.07523 0.78794 0.81962 0.0
C178 C 0.05099 0.75131 0.70605 0.0
C179 C 0.05546 0.75878 0.81708 0.0
N180 N 0.08039 0.79747 0.71635 0.0
N181 N 0.0673 0.77538 0.64793 0.0
C182 C 0.08747 0.8076 0.91715 0.0
H183 H 0.08353 0.79571 0.99624 0.0
H184 H 0.111 0.82165 0.90568 0.0
H185 H 0.07813 0.8219 0.91946 0.0
C186 C 0.08761 0.82603 0.35774 0.0
N187 N 0.10616 0.83758 0.44585 0.0
N188 N 0.09072 0.83522 0.53219 0.0
C189 C 0.06278 0.82453 0.50294 0.0
C190 C 0.05847 0.81701 0.38981 0.0
C191 C 0.09736 0.82054 0.24908 0.0
H192 H 0.11685 0.81867 0.26131 0.0
H193 H 0.10333 0.83897 0.19254 0.0
H194 H 0.08016 0.80044 0.21109 0.0
O195 O 0.16358 0.83176 0.55318 0.0
O196 O 0.139 0.82652 0.70432 0.0
H197 H 1.03079 0.802 0.62404 0.0
H198 H 1.02464 0.82646 0.54067 0.0
C199 C 1.04109 0.82318 0.58332 0.0
H200 H 0.0518 0.8397 0.64897 0.0
H201 H 0.06925 0.77673 0.56169 0.0
O202 O 0.17052 0.88485 0.35679 0.0
C203 C 0.15906 0.82507 0.65706 0.0
Co204 Co 0.76875 0.85805 0.99179 0.0
Co205 Co 0.78526 0.83349 0.17152 0.0
C206 C 0.7968 0.88594 0.23248 0.0
O207 O 0.78427 0.8837 0.1383 0.0
O208 O 0.80545 0.8684 0.25845 0.0
C209 C 0.79674 0.90568 0.82031 0.0
O210 O 0.82073 0.91269 0.87322 0.0
C211 C 0.77086 0.78766 0.32019 0.0
C212 C 0.75852 0.75109 0.20663 0.0
C213 C 0.76131 0.75846 0.31777 0.0
N214 N 0.77553 0.79727 0.21699 0.0
N215 N 0.76655 0.77521 0.1485 0.0
C216 C 0.77798 0.80723 0.41784 0.0
H217 H 0.76822 0.82103 0.40625 0.0
H218 H 0.80159 0.82181 0.42045 0.0
H219 H 0.77009 0.79529 0.49684 0.0
C220 C 0.7968 0.82581 0.85833 0.0
N221 N 0.78989 0.83741 0.9465 0.0
N222 N 0.80303 0.83506 0.03273 0.0
C223 C 0.82026 0.82437 1.0033 0.0
C224 C 0.81695 0.8168 0.89019 0.0
C225 C 0.78143 0.82024 0.74989 0.0
H226 H 0.76008 0.81838 0.76242 0.0
H227 H 0.79382 0.83864 0.69313 0.0
H228 H 0.77847 0.80012 0.712 0.0
O229 O 0.72673 0.8317 0.05379 0.0
O230 O 0.74609 0.82642 0.20483 0.0
H231 H 0.8299 0.80189 0.12405 0.0
H232 H 0.86042 0.82645 0.04056 0.0
C233 C 0.8407 0.82308 0.08343 0.0
H234 H 0.8465 0.83957 0.14916 0.0
H235 H 0.76611 0.7766 0.06223 0.0
O236 O 0.77292 0.88476 0.85758 0.0
C237 C 0.72458 0.82501 0.15765 0.0
Co238 Co 0.21526 0.92546 0.99105 0.0
Co239 Co 0.23972 0.96647 0.17089 0.0
C240 C 0.18728 0.92551 0.23157 0.0
O241 O 0.18957 0.91526 0.13743 0.0
O242 O 0.20478 0.9517 0.25761 0.0
C243 C 0.16761 0.90573 0.81959 0.0
O244 O 0.16053 0.92263 0.87261 0.0
C245 C 0.28545 0.99805 0.31977 0.0
C246 C 0.32206 1.02233 0.20637 0.0
C247 C 0.31464 1.01776 0.31745 0.0
N248 N 0.2759 0.99304 0.21652 0.0
N249 N 0.29798 1.00615 0.14814 0.0
C250 C 0.26582 0.98564 0.41733 0.0
H251 H 0.27774 0.98965 0.49638 0.0
H252 H 0.25194 0.9621 0.40574 0.0
H253 H 0.25135 0.99479 0.41983 0.0
C254 C 0.24744 0.98581 0.85773 0.0
N255 N 0.23585 0.96726 0.94583 0.0
N256 N 0.23817 0.9827 0.03211 0.0
C257 C 0.24884 1.01064 1.00278 0.0
C258 C 0.25643 1.01495 0.88971 0.0
C259 C 0.25301 0.97607 0.74921 0.0
H260 H 0.25489 0.95659 0.76161 0.0
H261 H 0.2346 0.97006 0.69249 0.0
H262 H 0.27312 0.99327 0.71132 0.0
O263 O 0.24167 0.90987 0.05318 0.0
O264 O 0.24688 0.93444 0.20429 0.0
H265 H 0.27129 0.04268 0.12376 0.0
H266 H 0.2468 0.04873 0.04017 0.0
C267 C 0.25012 0.03233 0.08299 0.0
H268 H 0.23359 1.02161 0.1486 0.0
H269 H 0.29663 1.0043 0.06188 0.0
O270 O 0.18858 0.90291 0.85677 0.0
C271 C 0.24835 0.91439 0.15706 0.0
Co272 Co 0.14815 0.30462 0.99155 0.0
Co273 Co 0.10713 0.28796 0.17143 0.0
C274 C 0.14814 0.27657 0.23211 0.0
O275 O 0.15837 0.28914 0.13796 0.0
O276 O 0.12194 0.26784 0.25819 0.0
C277 C 0.16801 0.27675 0.82048 0.0
O278 O 0.15126 0.25279 0.87398 0.0
C279 C 0.07562 0.30217 0.32023 0.0
C280 C 0.05136 0.31452 0.20671 0.0
C281 C 0.05596 0.31171 0.31782 0.0
N282 N 0.08056 0.29755 0.21702 0.0
N283 N 0.06746 0.30652 0.14856 0.0
C284 C 0.0881 0.29508 0.4179 0.0
H285 H 0.11165 0.30481 0.40626 0.0
H286 H 0.07904 0.27147 0.42064 0.0
H287 H 0.08407 0.30299 0.49685 0.0
C288 C 0.08778 0.27647 0.85834 0.0
N289 N 0.10634 0.28338 0.94639 0.0
N290 N 0.09091 0.27019 0.03264 0.0
C291 C 0.06297 0.25293 1.00332 0.0
C292 C 0.05865 0.25627 0.8903 0.0
C293 C 0.09751 0.29187 0.74992 0.0
H294 H 0.11697 0.31324 0.76245 0.0
H295 H 0.10354 0.27953 0.69304 0.0
H296 H 0.08028 0.29476 0.71216 0.0
O297 O 0.16369 0.34662 0.05367 0.0
O298 O 0.13913 0.32718 0.20477 0.0
H299 H 1.03092 0.24321 0.12434 0.0
H300 H 1.02491 0.21274 0.04054 0.0
C301 C 1.04129 0.23245 0.08346 0.0
H302 H 0.05203 0.22662 0.14899 0.0
H303 H 0.0693 0.307 0.0623 0.0
O304 O 0.17071 0.30053 0.85725 0.0
C305 C 0.15915 0.34874 0.15754 0.0
Co306 Co 0.87264 0.75407 0.72147 0.0
Co307 Co 0.84802 0.77051 0.5418 0.0
C308 C 0.90049 0.78211 0.48073 0.0
O309 O 0.89828 0.76959 0.57492 0.0
O310 O 0.88292 0.79073 0.4548 0.0
C311 C 0.92022 0.78208 0.89312 0.0
O312 O 0.92714 0.80609 0.84047 0.0
C313 C 0.8022 0.75628 0.39332 0.0
C314 C 0.76561 0.74391 0.50707 0.0
C315 C 0.77302 0.74683 0.39598 0.0
N316 N 0.81178 0.76078 0.49653 0.0
N317 N 0.78973 0.75178 0.56508 0.0
C318 C 0.8218 0.76358 0.29568 0.0
H319 H 0.83575 0.75399 0.30715 0.0
H320 H 0.83622 0.78722 0.29324 0.0
H321 H 0.80987 0.75566 0.21665 0.0
C322 C 0.84045 0.78217 0.85497 0.0
N323 N 0.85201 0.77522 0.76679 0.0
N324 N 0.84961 0.78831 0.68051 0.0
C325 C 0.83892 0.80554 0.70988 0.0
C326 C 0.83141 0.80229 0.82304 0.0
C327 C 0.83495 0.76686 0.96354 0.0
H328 H 0.83311 0.74552 0.95115 0.0
H329 H 0.85338 0.7793 1.02014 0.0
H330 H 0.81484 0.76391 1.00153 0.0
O331 O 0.8463 0.71204 0.65948 0.0
O332 O 0.84098 0.73137 0.50843 0.0
H333 H 0.81637 0.81506 0.58903 0.0
H334 H 0.84091 0.84565 0.6723 0.0
C335 C 0.83757 0.82592 0.62959 0.0
H336 H 0.85405 0.83172 0.56382 0.0
H337 H 0.79112 0.75126 0.65132 0.0
O338 O 0.89936 0.75825 0.85564 0.0
C339 C 0.8396 0.70987 0.55562 0.0
Co340 Co 0.31928 0.13345 0.72146 0.0
Co341 Co 0.3027 0.09243 0.54164 0.0
C342 C 0.29124 0.13339 0.48082 0.0
O343 O 0.30379 0.14365 0.57499 0.0
O344 O 0.28255 0.1072 0.45479 0.0
C345 C 0.29138 0.15325 0.89266 0.0
O346 O 0.2674 0.13643 0.83936 0.0
C347 C 0.31678 0.06078 0.39303 0.0
C348 C 0.32918 0.03656 0.50675 0.0
C349 C 0.32624 0.04106 0.39568 0.0
N350 N 0.31232 0.06587 0.49625 0.0
N351 N 0.32132 0.0528 0.56477 0.0
C352 C 0.30949 0.07311 0.29538 0.0
H353 H 0.31906 0.09664 0.30688 0.0
H354 H 0.28585 0.06386 0.29283 0.0
H355 H 0.31744 0.06913 0.21639 0.0
C356 C 0.29109 0.07309 0.85474 0.0
N357 N 0.29804 0.09164 0.76665 0.0
N358 N 0.28491 0.07621 0.68035 0.0
C359 C 0.26766 0.04827 0.70963 0.0
C360 C 0.27093 0.04395 0.82271 0.0
C361 C 0.30642 0.08283 0.96329 0.0
H362 H 0.32779 0.10231 0.95092 0.0
H363 H 0.29402 0.08883 1.01998 0.0
H364 H 0.30932 0.06563 1.00118 0.0
O365 O 0.36129 0.14903 0.65938 0.0
O366 O 0.3419 0.12445 0.50828 0.0
H367 H 0.25809 1.01625 0.58854 0.0
H368 H 0.22753 1.01015 0.67206 0.0
C369 C 0.24725 1.02658 0.62932 0.0
H370 H 0.24143 0.03729 0.56371 0.0
H371 H 0.32188 0.05472 0.65101 0.0
O372 O 0.31516 0.15601 0.85572 0.0
C373 C 0.36344 0.1445 0.55552 0.0
Co374 Co 0.94014 0.20064 0.72209 0.0
Co375 Co 0.98115 0.22516 0.54226 0.0
C376 C 0.94021 0.1727 0.48153 0.0
O377 O 0.92995 0.17496 0.57568 0.0
O378 O 0.9664 0.19023 0.4555 0.0
C379 C 0.92046 0.15302 0.89366 0.0
O380 O 0.9374 0.14598 0.84077 0.0
C381 C 1.01288 0.27086 0.39352 0.0
C382 C 1.03712 0.3075 0.50708 0.0
C383 C 1.03265 0.30003 0.39606 0.0
N384 N 1.00772 0.26134 0.49679 0.0
N385 N 1.0208 0.28343 0.5652 0.0
C386 C 1.00064 0.25121 0.29599 0.0
H387 H 1.00458 0.26309 0.2169 0.0
H388 H 0.97712 0.23715 0.30746 0.0
H389 H 1.00999 0.23691 0.29369 0.0
C390 C 1.0005 0.23278 0.85541 0.0
N391 N 0.98195 0.22122 0.7673 0.0
N392 N 0.99739 0.2236 0.68095 0.0
C393 C 1.02533 0.23428 0.7102 0.0
C394 C 1.02964 0.2418 0.82333 0.0
C395 C 0.99075 0.23826 0.96407 0.0
H396 H 0.97126 0.24013 0.95185 0.0
H397 H 0.98478 0.21983 0.02061 0.0
H398 H 1.00795 0.25836 1.00207 0.0
O399 O 0.92453 0.22705 0.65997 0.0
O400 O 0.94911 0.23229 0.50883 0.0
H401 H 0.05732 0.25682 0.5891 0.0
H402 H 0.06347 0.23235 0.67246 0.0
C403 C 0.04703 0.23563 0.62981 0.0
H404 H 1.03632 0.21912 0.56416 0.0
H405 H 1.01886 0.28209 0.65144 0.0
O406 O 0.9176 0.17396 0.85636 0.0
C407 C 0.92905 0.23374 0.5561 0.0
Co408 Co 0.98595 0.53397 0.55498 0.0
Co409 Co 0.96936 0.55844 0.37522 0.0
C410 C 0.95789 0.50602 0.31437 0.0
O411 O 0.97044 0.5083 0.40853 0.0
O412 O 0.94919 0.52352 0.28836 0.0
C413 C 0.958 0.48629 0.72632 0.0
O414 O 0.93403 0.47919 0.6731 0.0
C415 C 0.9837 0.60425 0.22656 0.0
C416 C 0.99603 0.64082 0.34013 0.0
C417 C 0.99325 0.63346 0.22899 0.0
N418 N 0.97903 0.59464 0.32974 0.0
N419 N 0.988 0.61669 0.39825 0.0
C420 C 0.97662 0.58469 0.12889 0.0
H421 H 0.98638 0.57091 0.1405 0.0
H422 H 0.95301 0.57011 0.1262 0.0
H423 H 0.98452 0.59665 0.04992 0.0
C424 C 0.95787 0.5662 0.68835 0.0
N425 N 0.96477 0.55457 0.60024 0.0
N426 N 0.95159 0.55686 0.51402 0.0
C427 C 0.93434 0.56754 0.54342 0.0
C428 C 0.93769 0.57516 0.65647 0.0
C429 C 0.97327 0.57181 0.79676 0.0
H430 H 0.99462 0.5737 0.7842 0.0
H431 H 0.9609 0.55343 0.85362 0.0
H432 H 0.97621 0.59194 0.83455 0.0
O433 O 1.02796 0.56036 0.49284 0.0
O434 O 1.00855 0.56558 0.34181 0.0
H435 H 0.92464 0.58993 0.42252 0.0
H436 H 0.89415 0.56541 0.50625 0.0
C437 C 0.91386 0.56876 0.46331 0.0
H438 H 0.90804 0.55224 0.39772 0.0
H439 H 0.98844 0.61531 0.48451 0.0
O440 O 0.98181 0.50727 0.68925 0.0
C441 C 1.03008 0.56704 0.38896 0.0
Co442 Co 0.53952 0.4667 0.55489 0.0
Co443 Co 0.51504 0.42569 0.37502 0.0
C444 C 0.56749 0.46664 0.31437 0.0
O445 O 0.5652 0.4769 0.40851 0.0
O446 O 0.54998 0.44045 0.28833 0.0
C447 C 0.58716 0.48643 0.72634 0.0
O448 O 0.59425 0.46954 0.67325 0.0
C449 C 0.46933 0.39414 0.22604 0.0
C450 C 0.4327 0.36986 0.33936 0.0
C451 C 0.44014 0.37443 0.22829 0.0
N452 N 0.47887 0.39914 0.32932 0.0
N453 N 0.45678 0.38602 0.39765 0.0
C454 C 0.48897 0.40656 0.12853 0.0
H455 H 0.50285 0.4301 0.14012 0.0
H456 H 0.50346 0.39742 0.12612 0.0
H457 H 0.47707 0.40254 0.04943 0.0
C458 C 0.50737 0.40636 0.68822 0.0
N459 N 0.51893 0.4249 0.60009 0.0
N460 N 0.51659 0.40946 0.51379 0.0
C461 C 0.50592 0.38153 0.54313 0.0
C462 C 0.49838 0.37723 0.65624 0.0
C463 C 0.50184 0.41612 0.79679 0.0
H464 H 0.49994 0.43559 0.78442 0.0
H465 H 0.52027 0.42214 0.8534 0.0
H466 H 0.48175 0.39891 0.83478 0.0
O467 O 0.5131 0.48229 0.49282 0.0
O468 O 0.50789 0.45773 0.34167 0.0
H469 H 0.48344 0.34947 0.42227 0.0
H470 H 0.50797 0.34344 0.50568 0.0
C471 C 0.50463 0.35983 0.4629 0.0
H472 H 0.52113 0.37055 0.3972 0.0
H473 H 0.45811 0.38786 0.48391 0.0
O474 O 0.56618 0.48924 0.68916 0.0
C475 C 0.50642 0.47777 0.38894 0.0
Co476 Co 0.60672 0.08752 0.55509 0.0
Co477 Co 0.64778 0.10413 0.37543 0.0
C478 C 0.60682 0.11558 0.31443 0.0
O479 O 0.59656 0.10303 0.40858 0.0
O480 O 0.63302 0.12429 0.2885 0.0
C481 C 0.58697 0.11545 0.72628 0.0
O482 O 0.60384 0.13942 0.67306 0.0
C483 C 0.67927 0.08983 0.2269 0.0
C484 C 0.70352 0.07751 0.34057 0.0
C485 C 0.69894 0.0803 0.22942 0.0
N486 N 0.67433 0.09448 0.33007 0.0
N487 N 0.68742 0.08552 0.39862 0.0
C488 C 0.6668 0.09692 0.12918 0.0
H489 H 0.64325 0.08717 0.14075 0.0
H490 H 0.67585 0.12053 0.12645 0.0
H491 H 0.67085 0.08901 0.05024 0.0
C492 C 0.66705 0.11563 0.68858 0.0
N493 N 0.64852 0.10872 0.60044 0.0
N494 N 0.66398 0.1219 0.51424 0.0
C495 C 0.69191 0.13916 0.54368 0.0
C496 C 0.6962 0.13581 0.65674 0.0
C497 C 0.65728 0.10023 0.79699 0.0
H498 H 0.6378 0.07887 0.78443 0.0
H499 H 0.65126 0.11259 0.85381 0.0
H500 H 0.67447 0.0973 0.83484 0.0
O501 O 0.59112 0.04552 0.49297 0.0
O502 O 0.61574 0.06494 0.34198 0.0
H503 H 0.72399 0.14886 0.4228 0.0
H504 H 0.72999 0.17934 0.50654 0.0
C505 C 0.71361 0.15963 0.46359 0.0
H506 H 0.7029 0.16546 0.39799 0.0
H507 H 0.68559 0.08507 0.48489 0.0
O508 O 0.58417 0.09165 0.68928 0.0
C509 C 0.59567 0.0434 0.38911 0.0
Co510 Co 0.882 0.63792 0.82491 0.0
Co511 Co 0.9066 0.62149 1.0047 0.0
C512 C 0.85413 0.60989 0.06561 0.0
O513 O 0.85635 0.6224 0.9714 0.0
O514 O 0.87169 0.60127 0.0916 0.0
C515 C 0.83438 0.60992 0.6534 0.0
O516 O 0.82739 0.58593 0.70635 0.0
C517 C 0.95238 0.63564 0.15333 0.0
C518 C 0.98899 0.64805 0.03971 0.0
C519 C 0.98156 0.64509 0.15076 0.0
N520 N 0.94282 0.6312 0.05009 0.0
N521 N 0.9649 0.64021 0.98162 0.0
C522 C 0.93274 0.62828 0.2509 0.0
H523 H 0.91875 0.63781 0.23942 0.0
H524 H 0.91837 0.60463 0.25326 0.0
H525 H 0.94464 0.6362 0.32998 0.0
C526 C 0.91418 0.60978 0.69153 0.0
N527 N 0.90263 0.61676 0.77968 0.0
N528 N 0.90504 0.60369 0.86602 0.0
C529 C 0.91573 0.58645 0.83672 0.0
C530 C 0.92322 0.58968 0.72355 0.0
C531 C 0.91964 0.62504 0.58287 0.0
H532 H 0.92149 0.64639 0.59513 0.0
H533 H 0.9012 0.61258 0.52637 0.0
H534 H 0.93974 0.62798 0.54483 0.0
O535 O 0.90835 0.67995 0.88691 0.0
O536 O 0.91367 0.66064 0.03804 0.0
H537 H 0.9383 0.57698 0.95762 0.0
H538 H 0.91377 0.54637 0.87445 0.0
C539 C 0.9171 0.56611 0.91709 0.0
H540 H 0.90062 0.56031 0.98287 0.0
H541 H 0.96353 0.64076 0.89537 0.0
O542 O 0.85529 0.63374 0.69067 0.0
C543 C 0.91506 0.68213 0.99078 0.0
Co544 Co 0.4356 0.25876 0.82473 0.0
Co545 Co 0.45219 0.2998 1.0044 0.0
C546 C 0.46365 0.25885 0.06538 0.0
O547 O 0.45109 0.24858 0.97123 0.0
O548 O 0.47235 0.28505 0.09133 0.0
C549 C 0.46351 0.23902 0.65342 0.0
O550 O 0.4875 0.25592 0.70653 0.0
C551 C 0.43804 0.33143 0.15281 0.0
C552 C 0.42566 0.35563 0.03896 0.0
C553 C 0.42856 0.35113 0.15006 0.0
N554 N 0.44255 0.32636 0.04963 0.0
N555 N 0.43356 0.33942 0.98103 0.0
C556 C 0.44529 0.31909 0.25053 0.0
H557 H 0.43571 0.29555 0.23903 0.0
H558 H 0.46893 0.32831 0.25316 0.0
H559 H 0.43733 0.32307 0.32948 0.0
C560 C 0.46374 0.31909 0.69133 0.0
N561 N 0.45682 0.30055 0.77943 0.0
N562 N 0.46998 0.31599 0.86568 0.0
C563 C 0.48723 0.34393 0.83634 0.0
C564 C 0.4839 0.34823 0.72328 0.0
C565 C 0.44837 0.30934 0.58286 0.0
H566 H 0.42701 0.28986 0.59533 0.0
H567 H 0.46075 0.30334 0.52609 0.0
H568 H 0.44545 0.32653 0.54501 0.0
O569 O 0.39359 0.24318 0.88679 0.0
O570 O 0.413 0.26777 0.03785 0.0
H571 H 0.49683 0.37595 0.95746 0.0
H572 H 0.52736 0.38206 0.87372 0.0
C573 C 0.50766 0.36563 0.91656 0.0
H574 H 0.51351 0.35493 0.98209 0.0
H575 H 0.43303 0.3375 0.89479 0.0
O576 O 0.43972 0.2362 0.69053 0.0
C577 C 0.39146 0.24773 0.99064 0.0
Co578 Co 0.81468 0.19147 0.82534 0.0
Co579 Co 0.77364 0.16691 1.00509 0.0
C580 C 0.81457 0.21937 0.06597 0.0
O581 O 0.82485 0.21713 0.97181 0.0
O582 O 0.78838 0.20183 0.09193 0.0
C583 C 0.8344 0.23914 0.65389 0.0
O584 O 0.81749 0.24621 0.70691 0.0
C585 C 0.742 0.12117 0.15379 0.0
C586 C 0.71778 0.08454 0.04019 0.0
C587 C 0.72226 0.09199 0.15123 0.0
N588 N 0.7471 0.13071 0.05053 0.0
N589 N 0.73403 0.10863 0.98209 0.0
C590 C 0.75429 0.1408 0.25135 0.0
H591 H 0.77782 0.15479 0.2399 0.0
H592 H 0.74502 0.15518 0.25366 0.0
H593 H 0.75031 0.12891 0.33044 0.0
C594 C 0.75434 0.15932 0.69188 0.0
N595 N 0.77288 0.17087 0.78005 0.0
N596 N 0.75741 0.16848 0.86635 0.0
C597 C 0.72948 0.15779 0.83701 0.0
C598 C 0.72519 0.15028 0.72385 0.0
C599 C 0.76412 0.15384 0.58327 0.0
H600 H 0.78362 0.15198 0.5956 0.0
H601 H 0.77011 0.17228 0.52674 0.0
H602 H 0.74695 0.13374 0.54524 0.0
O603 O 0.8303 0.16508 0.88742 0.0
O604 O 0.8057 0.1598 0.03851 0.0
H605 H 0.69744 0.13522 0.95789 0.0
H606 H 0.69134 0.15974 0.87463 0.0
C607 C 0.70776 0.15642 0.91732 0.0
H608 H 0.71846 0.1729 0.98308 0.0
H609 H 0.73595 0.10999 0.89584 0.0
O610 O 0.83723 0.21817 0.6911 0.0
C611 C 0.82577 0.15837 0.99127 0.0
Co612 Co 0.43555 0.19149 0.32481 0.0
Co613 Co 0.45206 0.16696 0.50465 0.0
C614 C 0.4636 0.21941 0.56545 0.0
O615 O 0.45107 0.21715 0.47127 0.0
O616 O 0.47226 0.20188 0.59149 0.0
C617 C 0.46353 0.23913 0.1534 0.0
O618 O 0.48751 0.24619 0.20648 0.0
C619 C 0.43776 0.12118 0.65346 0.0
C620 C 0.4254 0.08458 0.54001 0.0
C621 C 0.42823 0.09198 0.65112 0.0
N622 N 0.44237 0.13076 0.55023 0.0
N623 N 0.43339 0.10869 0.48181 0.0
C624 C 0.44493 0.14079 0.75104 0.0
H625 H 0.43523 0.15462 0.73944 0.0
H626 H 0.46855 0.15532 0.75359 0.0
H627 H 0.43705 0.12886 0.83009 0.0
C628 C 0.46365 0.15928 0.19148 0.0
N629 N 0.45672 0.17086 0.27961 0.0
N630 N 0.46984 0.16851 0.36589 0.0
C631 C 0.48708 0.15783 0.33654 0.0
C632 C 0.48379 0.15027 0.22343 0.0
C633 C 0.44832 0.15374 0.08295 0.0
H634 H 0.42696 0.15186 0.09536 0.0
H635 H 0.46073 0.17215 0.02627 0.0
H636 H 0.44539 0.13363 0.04502 0.0
O637 O 0.39353 0.16512 0.38683 0.0
O638 O 0.41288 0.15986 0.53796 0.0
H639 H 0.49669 0.13535 0.45736 0.0
H640 H 0.52723 0.15989 0.37395 0.0
C641 C 0.5075 0.15654 0.41675 0.0
H642 H 0.5133 0.17303 0.48247 0.0
H643 H 0.43291 0.11005 0.39554 0.0
O644 O 0.43972 0.21818 0.19055 0.0
C645 C 0.39137 0.15843 0.4907 0.0
Co646 Co 0.88196 0.25877 0.32533 0.0
Co647 Co 0.90647 0.29981 0.50515 0.0
C648 C 0.85402 0.25885 0.56591 0.0
O649 O 0.85629 0.24858 0.47177 0.0
O650 O 0.87154 0.28504 0.59192 0.0
C651 C 0.83427 0.23899 0.15398 0.0
O652 O 0.82714 0.25584 0.20714 0.0
C653 C 0.95222 0.33131 0.65405 0.0
C654 C 0.98884 0.35557 0.54066 0.0
C655 C 0.98142 0.351 0.65175 0.0
N656 N 0.94266 0.32635 0.5508 0.0
N657 N 0.96474 0.33944 0.48242 0.0
C658 C 0.9326 0.31887 0.75161 0.0
H659 H 0.91876 0.29533 0.74005 0.0
H660 H 0.91807 0.32796 0.75406 0.0
H661 H 0.94452 0.32291 0.83068 0.0
C662 C 0.91415 0.31911 0.19192 0.0
N663 N 0.90257 0.30057 0.28008 0.0
N664 N 0.90492 0.31603 0.36634 0.0
C665 C 0.91561 0.34397 0.33694 0.0
C666 C 0.92316 0.34825 0.22383 0.0
C667 C 0.91968 0.30933 0.0834 0.0
H668 H 0.92156 0.28985 0.09585 0.0
H669 H 0.90126 0.30332 0.02674 0.0
H670 H 0.93979 0.32652 0.04544 0.0
O671 O 0.90837 0.24317 0.38743 0.0
O672 O 0.91361 0.26776 0.53852 0.0
H673 H 0.9381 0.37605 0.45771 0.0
H674 H 0.91356 0.38206 0.3743 0.0
C675 C 0.91691 0.36567 0.41712 0.0
H676 H 0.90042 0.35497 0.48287 0.0
H677 H 0.96339 0.33761 0.39615 0.0
O678 O 0.85528 0.23622 0.19106 0.0
C679 C 0.91507 0.2477 0.49128 0.0
Co680 Co 0.81471 0.63784 0.32481 0.0
Co681 Co 0.77366 0.62118 0.50452 0.0
C682 C 0.81465 0.60977 0.5654 0.0
O683 O 0.82491 0.62235 0.47128 0.0
O684 O 0.78845 0.60104 0.59139 0.0
C685 C 0.83452 0.60996 0.15362 0.0
O686 O 0.81768 0.58598 0.20687 0.0
C687 C 0.74218 0.63548 0.65309 0.0
C688 C 0.71794 0.64782 0.53943 0.0
C689 C 0.72254 0.64504 0.65058 0.0
N690 N 0.7471 0.6308 0.54993 0.0
N691 N 0.73402 0.63977 0.48137 0.0
C692 C 0.75468 0.62842 0.75082 0.0
H693 H 0.77823 0.63817 0.73921 0.0
H694 H 0.74564 0.60481 0.75362 0.0
H695 H 0.75063 0.63634 0.82974 0.0
C696 C 0.75438 0.60974 0.19143 0.0
N697 N 0.77292 0.61662 0.27952 0.0
N698 N 0.75747 0.60341 0.36571 0.0
C699 C 0.72954 0.58616 0.3363 0.0
C700 C 0.72524 0.58954 0.22329 0.0
C701 C 0.76413 0.62516 0.08307 0.0
H702 H 0.7836 0.64653 0.09569 0.0
H703 H 0.77016 0.61283 0.02615 0.0
H704 H 0.74692 0.62808 0.0453 0.0
O705 O 0.83026 0.67983 0.38689 0.0
O706 O 0.80567 0.66039 0.53793 0.0
H707 H 0.69747 0.57643 0.4573 0.0
H708 H 0.69145 0.54597 0.37336 0.0
C709 C 0.70784 0.56566 0.41636 0.0
H710 H 0.71856 0.55981 0.48186 0.0
H711 H 0.73585 0.64022 0.39511 0.0
O712 O 0.83728 0.63374 0.19059 0.0
C713 C 0.82571 0.68195 0.49075 0.0
Co714 Co 0.53946 0.08749 0.05494 0.0
Co715 Co 0.51493 0.10402 0.87521 0.0
C716 C 0.56737 0.11554 0.81429 0.0
O717 O 0.56512 0.10301 0.90846 0.0
O718 O 0.54984 0.12421 0.78829 0.0
C719 C 0.58711 0.11546 0.2264 0.0
O720 O 0.59414 0.13945 0.1734 0.0
C721 C 0.46912 0.08983 0.7267 0.0
C722 C 0.43254 0.07746 0.84044 0.0
C723 C 0.43994 0.08037 0.72936 0.0
N724 N 0.47871 0.09433 0.8299 0.0
N725 N 0.45665 0.08534 0.89845 0.0
C726 C 0.48872 0.09711 0.62905 0.0
H727 H 0.50266 0.08752 0.64055 0.0
H728 H 0.50314 0.12074 0.62654 0.0
H729 H 0.47679 0.08918 0.55004 0.0
C730 C 0.50728 0.11563 0.18833 0.0
N731 N 0.51886 0.10868 0.1002 0.0
N732 N 0.51652 0.12181 1.01392 0.0
C733 C 0.50584 0.13905 0.04326 0.0
C734 C 0.49828 0.13577 0.15636 0.0
C735 C 0.50173 0.1003 0.29686 0.0
H736 H 0.49987 0.07894 0.28446 0.0
H737 H 0.52014 0.11271 0.35355 0.0
H738 H 0.48162 0.09736 0.33476 0.0
O739 O 0.51307 0.04548 0.99283 0.0
O740 O 0.50782 0.06485 0.84177 0.0
H741 H 0.48335 0.14862 0.92224 0.0
H742 H 0.50785 0.17918 1.00574 0.0
C743 C 0.50453 0.15946 0.96298 0.0
H744 H 0.52105 0.16527 0.89734 0.0
H745 H 0.45804 0.08481 0.98469 0.0
O746 O 0.56616 0.09165 0.18919 0.0
C747 C 0.50638 0.04333 0.88895 0.0
Co748 Co 0.98595 0.46672 0.05509 0.0
Co749 Co 0.9694 0.42566 0.87548 0.0
C750 C 0.9579 0.46658 0.81439 0.0
O751 O 0.97044 0.47687 0.90854 0.0
O752 O 0.94922 0.44039 0.78848 0.0
C753 C 0.958 0.48642 0.2264 0.0
O754 O 0.93401 0.46948 0.17339 0.0
C755 C 0.98356 0.39403 0.72716 0.0
C756 C 0.99593 0.36982 0.84104 0.0
C757 C 0.99302 0.37431 0.72994 0.0
N758 N 0.97906 0.39912 0.83033 0.0
N759 N 0.98805 0.38605 0.89896 0.0
C760 C 0.97631 0.40636 0.62943 0.0
H761 H 0.98589 0.42989 0.64089 0.0
H762 H 0.95267 0.39713 0.62685 0.0
H763 H 0.98425 0.40237 0.55048 0.0
C764 C 0.95781 0.40639 0.18862 0.0
N765 N 0.96475 0.42492 0.10046 0.0
N766 N 0.9516 0.40947 1.01423 0.0
C767 C 0.93435 0.38153 0.04361 0.0
C768 C 0.93765 0.37724 0.15672 0.0
C769 C 0.97315 0.41617 0.29712 0.0
H770 H 0.99451 0.43566 0.28467 0.0
H771 H 0.96075 0.42216 0.35382 0.0
H772 H 0.97609 0.39899 0.33505 0.0
O773 O 1.02797 0.48234 0.99297 0.0
O774 O 1.00857 0.45771 0.84198 0.0
H775 H 0.92477 0.34949 0.92261 0.0
H776 H 0.89422 0.34341 1.0062 0.0
C777 C 0.91394 0.35982 0.96339 0.0
H778 H 0.9081 0.37052 0.89777 0.0
H779 H 0.98858 0.38797 0.9852 0.0
O780 O 0.9818 0.48928 0.18925 0.0
C781 C 1.0301 0.4778 0.88912 0.0
Co782 Co 0.60677 0.53397 0.05488 0.0
Co783 Co 0.64778 0.5585 0.87508 0.0
C784 C 0.60686 0.50604 0.81431 0.0
O785 O 0.59659 0.5083 0.90846 0.0
O786 O 0.63305 0.52358 0.78831 0.0
C787 C 0.58711 0.48636 0.22644 0.0
O788 O 0.60407 0.47934 0.17359 0.0
C789 C 0.67947 0.60421 0.72631 0.0
C790 C 0.70371 0.64085 0.83982 0.0
C791 C 0.69923 0.63338 0.7288 0.0
N792 N 0.67434 0.59469 0.82959 0.0
N793 N 0.68742 0.61678 0.89798 0.0
C794 C 0.6672 0.58454 0.6288 0.0
H795 H 0.64367 0.57052 0.64028 0.0
H796 H 0.67652 0.57021 0.62655 0.0
H797 H 0.67116 0.59642 0.54968 0.0
C798 C 0.66711 0.56607 0.18827 0.0
N799 N 0.64857 0.55454 0.10011 0.0
N800 N 0.66402 0.55694 1.01378 0.0
C801 C 0.69196 0.56761 0.04308 0.0
C802 C 0.69625 0.5751 0.15624 0.0
C803 C 0.65734 0.57153 0.29695 0.0
H804 H 0.63785 0.57341 0.28471 0.0
H805 H 0.65135 0.55308 0.35341 0.0
H806 H 0.67453 0.59161 0.33504 0.0
O807 O 0.59116 0.56037 0.99284 0.0
O808 O 0.61573 0.56562 0.84168 0.0
H809 H 0.72398 0.59017 0.92213 0.0
H810 H 0.73009 0.56566 1.00535 0.0
C811 C 0.71366 0.56898 0.96271 0.0
H812 H 0.70295 0.55249 0.89696 0.0
H813 H 0.6855 0.61544 0.98422 0.0
O814 O 0.58423 0.50729 0.18911 0.0
C815 C 0.59568 0.56707 0.88898 0.0
Co816 Co 0.65256 0.86732 0.88835 0.0
Co817 Co 0.63605 0.89184 0.70851 0.0
C818 C 0.62451 0.8394 0.64771 0.0
O819 O 0.63704 0.84165 0.7419 0.0
O820 O 0.61585 0.85692 0.62168 0.0
C821 C 0.62458 0.81967 0.05976 0.0
O822 O 0.60061 0.81262 1.00663 0.0
C823 C 0.65035 0.93762 0.5597 0.0
C824 C 0.66271 0.97422 0.67315 0.0
C825 C 0.65988 0.96682 0.56204 0.0
N826 N 0.64574 0.92805 0.66294 0.0
N827 N 0.65472 0.95012 0.73135 0.0
C828 C 0.64317 0.91802 0.46212 0.0
H829 H 0.65288 0.90418 0.47373 0.0
H830 H 0.61955 0.90349 0.45958 0.0
H831 H 0.65106 0.92995 0.38308 0.0
C832 C 0.62446 0.89953 0.02169 0.0
N833 N 0.63139 0.88794 0.93356 0.0
N834 N 0.61828 0.89029 0.84727 0.0
C835 C 0.60103 0.90098 0.87663 0.0
C836 C 0.60432 0.90854 0.98973 0.0
C837 C 0.63979 0.90507 0.13022 0.0
H838 H 0.66115 0.90694 0.11781 0.0
H839 H 0.62738 0.88666 0.1869 0.0
H840 H 0.64273 0.92518 0.16814 0.0
O841 O 0.69458 0.89368 0.82633 0.0
O842 O 0.67523 0.89895 0.67521 0.0
H843 H 0.59142 0.92345 0.75579 0.0
H844 H 0.56088 0.89891 0.83921 0.0
C845 C 0.58061 0.90227 0.79641 0.0
H846 H 0.57481 0.88577 0.7307 0.0
H847 H 0.6552 0.94875 0.81762 0.0
O848 O 0.64839 0.84062 0.02262 0.0
C849 C 0.69674 0.90037 0.72246 0.0
Co850 Co 0.20614 0.80003 0.88784 0.0
Co851 Co 0.18164 0.759 0.70801 0.0
C852 C 0.23409 0.79996 0.64725 0.0
O853 O 0.23182 0.81022 0.7414 0.0
O854 O 0.21657 0.77377 0.62126 0.0
C855 C 0.25384 0.81981 0.05918 0.0
O856 O 0.26097 0.80297 1.00598 0.0
C857 C 0.13589 0.72749 0.55911 0.0
C858 C 0.09927 0.70323 0.67251 0.0
C859 C 0.10669 0.70781 0.56142 0.0
N860 N 0.14545 0.73246 0.66237 0.0
N861 N 0.12337 0.71936 0.73075 0.0
C862 C 0.15551 0.73993 0.46156 0.0
H863 H 0.16935 0.76348 0.47312 0.0
H864 H 0.17003 0.73084 0.4591 0.0
H865 H 0.14359 0.73589 0.38249 0.0
C866 C 0.17396 0.7397 0.02124 0.0
N867 N 0.18554 0.75823 0.93309 0.0
N868 N 0.18318 0.74277 0.84682 0.0
C869 C 0.1725 0.71484 0.87622 0.0
C870 C 0.16495 0.71055 0.98934 0.0
C871 C 0.16842 0.74947 0.12976 0.0
H872 H 0.16654 0.76895 0.11731 0.0
H873 H 0.18684 0.75549 0.18643 0.0
H874 H 0.14831 0.73228 0.16772 0.0
O875 O 0.17974 0.81564 0.82573 0.0
O876 O 0.17449 0.79105 0.67465 0.0
H877 H 0.15001 0.68276 0.75545 0.0
H878 H 0.17455 0.67675 0.83886 0.0
C879 C 0.1712 0.69313 0.79604 0.0
H880 H 0.18769 0.70384 0.7303 0.0
H881 H 0.12472 0.7212 0.81701 0.0
O882 O 0.23283 0.82259 0.02211 0.0
C883 C 0.17304 0.8111 0.72188 0.0
Co884 Co 0.2734 0.42096 0.88834 0.0
Co885 Co 0.31445 0.43763 0.70863 0.0
C886 C 0.27346 0.44903 0.64774 0.0
O887 O 0.2632 0.43646 0.74187 0.0
O888 O 0.29966 0.45777 0.62177 0.0
C889 C 0.25359 0.44885 0.05953 0.0
O890 O 0.27042 0.47282 1.00623 0.0
C891 C 0.34593 0.42333 0.56006 0.0
C892 C 0.37017 0.41099 0.67373 0.0
C893 C 0.36557 0.41377 0.56258 0.0
N894 N 0.34101 0.42801 0.66323 0.0
N895 N 0.35409 0.41904 0.73178 0.0
C896 C 0.33343 0.43039 0.46233 0.0
H897 H 0.30988 0.42064 0.47395 0.0
H898 H 0.34247 0.454 0.45953 0.0
H899 H 0.33747 0.42247 0.38341 0.0
C900 C 0.33373 0.44907 0.02172 0.0
N901 N 0.31519 0.44219 0.93363 0.0
N902 N 0.33064 0.45539 0.84744 0.0
C903 C 0.35857 0.47265 0.87685 0.0
C904 C 0.36287 0.46927 0.98986 0.0
C905 C 0.32398 0.43364 0.13008 0.0
H906 H 0.30451 0.41227 0.11746 0.0
H907 H 0.31795 0.44597 0.187 0.0
H908 H 0.34119 0.43072 0.16784 0.0
O909 O 0.25785 0.37897 0.82626 0.0
O910 O 0.28244 0.39842 0.67522 0.0
H911 H 0.39064 0.48238 0.75585 0.0
H912 H 0.39666 0.51284 0.8398 0.0
C913 C 0.38027 0.49315 0.79679 0.0
H914 H 0.36955 0.499 0.7313 0.0
H915 H 0.35226 0.41859 0.81804 0.0
O916 O 0.25083 0.42507 0.02257 0.0
C917 C 0.26241 0.37686 0.7224 0.0
Co918 Co 0.54865 0.97131 0.15821 0.0
Co919 Co 0.57318 0.95479 0.33795 0.0
C920 C 0.52074 0.94326 0.39887 0.0
O921 O 0.52299 0.9558 0.30469 0.0
O922 O 0.53827 0.9346 0.42486 0.0
C923 C 0.501 0.94334 0.98676 0.0
O924 O 0.49395 0.91936 0.03981 0.0
C925 C 0.61898 0.96897 0.48646 0.0
C926 C 0.65557 0.98135 0.37273 0.0
C927 C 0.64816 0.97843 0.48381 0.0
N928 N 0.6094 0.96447 0.38326 0.0
N929 N 0.63145 0.97346 0.31471 0.0
C930 C 0.59939 0.96169 0.58411 0.0
H931 H 0.58544 0.97128 0.5726 0.0
H932 H 0.58497 0.93806 0.58662 0.0
H933 H 0.61132 0.96963 0.66312 0.0
C934 C 0.58083 0.94318 0.02483 0.0
N935 N 0.56925 0.95012 0.11295 0.0
N936 N 0.57159 0.937 0.19923 0.0
C937 C 0.58227 0.91975 0.1699 0.0
C938 C 0.58983 0.92303 0.0568 0.0
C939 C 0.58638 0.95851 0.91629 0.0
H940 H 0.58824 0.97986 0.92869 0.0
H941 H 0.56797 0.9461 0.8596 0.0
H942 H 0.60649 0.96145 0.87839 0.0
O943 O 0.57504 1.01333 0.22032 0.0
O944 O 0.58029 0.99395 0.37139 0.0
H945 H 0.60476 0.91019 0.29092 0.0
H946 H 0.58026 0.87963 0.20742 0.0
C947 C 0.58358 0.89935 0.25018 0.0
H948 H 0.56706 0.89353 0.31582 0.0
H949 H 0.63007 0.97399 0.22847 0.0
O950 O 0.52194 0.96715 0.02396 0.0
C951 C 0.58173 1.01547 0.32419 0.0
Co952 Co 0.10216 0.59209 0.15806 0.0
Co953 Co 0.11871 0.63314 0.33767 0.0
C954 C 0.13021 0.59222 0.39877 0.0
O955 O 0.11767 0.58194 0.30461 0.0
O956 O 0.13889 0.61841 0.42467 0.0
C957 C 0.13011 0.57238 0.98676 0.0
O958 O 0.15409 0.58931 0.03983 0.0
C959 C 0.10454 0.66477 0.486 0.0
C960 C 0.09218 0.68898 0.37212 0.0
C961 C 0.09509 0.68449 0.48323 0.0
N962 N 0.10905 0.65969 0.38283 0.0
N963 N 0.10006 0.67275 0.3142 0.0
C964 C 0.1118 0.65245 0.58373 0.0
H965 H 0.10222 0.62891 0.57227 0.0
H966 H 0.13544 0.66167 0.58631 0.0
H967 H 0.10386 0.65643 0.66268 0.0
C968 C 0.1303 0.65241 0.02454 0.0
N969 N 0.12336 0.63388 0.11269 0.0
N970 N 0.1365 0.64934 0.19893 0.0
C971 C 0.15375 0.67727 0.16955 0.0
C972 C 0.15046 0.68156 0.05644 0.0
C973 C 0.11495 0.64264 0.91603 0.0
H974 H 0.0936 0.62314 0.92848 0.0
H975 H 0.12736 0.63664 0.85933 0.0
H976 H 0.11202 0.65982 0.87811 0.0
O977 O 0.06014 0.57646 0.22018 0.0
O978 O 0.07953 0.60109 0.37118 0.0
H979 H 0.16334 0.70931 0.29055 0.0
H980 H 0.19388 0.7154 0.20696 0.0
C981 C 0.17417 0.69898 0.24977 0.0
H982 H 0.18 0.68828 0.3154 0.0
H983 H 0.09953 0.67083 0.22797 0.0
O984 O 0.10631 0.56953 0.0239 0.0
C985 C 0.05801 0.58101 0.32403 0.0
Co986 Co 0.48134 0.52484 0.15827 0.0
Co987 Co 0.44033 0.5003 0.33806 0.0
C988 C 0.48125 0.55276 0.39884 0.0
O989 O 0.49152 0.55051 0.30469 0.0
O990 O 0.45506 0.53523 0.42484 0.0
C991 C 0.50101 0.57244 0.98671 0.0
O992 O 0.48405 0.57947 0.03961 0.0
C993 C 0.40864 0.4546 0.48685 0.0
C994 C 0.3844 0.41796 0.37334 0.0
C995 C 0.38888 0.42543 0.48436 0.0
N996 N 0.41377 0.46412 0.38356 0.0
N997 N 0.40069 0.44203 0.31518 0.0
C998 C 0.42091 0.47426 0.58435 0.0
H999 H 0.44443 0.48829 0.57287 0.0
H1000 H 0.41159 0.48859 0.5866 0.0
H1001 H 0.41695 0.46239 0.66347 0.0
C1002 C 0.421 0.49274 0.02487 0.0
N1003 N 0.43954 0.50426 0.11303 0.0
N1004 N 0.42409 0.50187 0.19937 0.0
C1005 C 0.39616 0.4912 0.17007 0.0
C1006 C 0.39186 0.48371 0.05691 0.0
C1007 C 0.43077 0.48728 0.91619 0.0
H1008 H 0.45026 0.4854 0.92843 0.0
H1009 H 0.43676 0.50573 0.85974 0.0
H1010 H 0.41358 0.4672 0.8781 0.0
O1011 O 0.49695 0.49843 0.2203 0.0
O1012 O 0.47238 0.49318 0.37147 0.0
H1013 H 0.36414 0.46863 0.29102 0.0
H1014 H 0.35802 0.49314 0.20781 0.0
C1015 C 0.37445 0.48983 0.25045 0.0
H1016 H 0.38516 0.50631 0.31619 0.0
H1017 H 0.40261 0.44337 0.22893 0.0
O1018 O 0.50388 0.55152 0.02403 0.0
C1019 C 0.49243 0.49173 0.32416 0.0
Co1020 Co 0.10216 0.52483 0.65818 0.0
Co1021 Co 0.11875 0.50036 0.83795 0.0
C1022 C 0.13022 0.55278 0.89879 0.0
O1023 O 0.11767 0.55051 0.80463 0.0
O1024 O 0.13891 0.53528 0.9248 0.0
C1025 C 0.13011 0.57252 0.48684 0.0
O1026 O 0.15408 0.57961 0.54001 0.0
C1027 C 0.1044 0.45455 0.9866 0.0
C1028 C 0.09207 0.41798 0.87303 0.0
C1029 C 0.09486 0.42534 0.98417 0.0
N1030 N 0.10907 0.46416 0.88342 0.0
N1031 N 0.10011 0.44211 0.81491 0.0
C1032 C 0.11149 0.47411 0.08427 0.0
H1033 H 0.10172 0.48789 0.07266 0.0
H1034 H 0.13509 0.4887 0.08696 0.0
H1035 H 0.10359 0.46215 0.16325 0.0
C1036 C 0.13024 0.49261 0.52481 0.0
N1037 N 0.12334 0.50423 0.61292 0.0
N1038 N 0.13651 0.50194 0.69914 0.0
C1039 C 0.15376 0.49126 0.66974 0.0
C1040 C 0.15042 0.48364 0.55668 0.0
C1041 C 0.11485 0.487 0.4164 0.0
H1042 H 0.09349 0.48511 0.42895 0.0
H1043 H 0.12721 0.50538 0.35954 0.0
H1044 H 0.11191 0.46687 0.37859 0.0
O1045 O 0.06015 0.49844 0.72031 0.0
O1046 O 0.07956 0.49322 0.87135 0.0
H1047 H 0.16347 0.46887 0.79064 0.0
H1048 H 0.19395 0.49338 0.70692 0.0
C1049 C 0.17424 0.49004 0.74985 0.0
H1050 H 0.18006 0.50656 0.81545 0.0
H1051 H 0.09966 0.44349 0.72865 0.0
O1052 O 0.1063 0.55153 0.52391 0.0
C1053 C 0.05802 0.49176 0.82419 0.0
Co1054 Co 0.54859 0.59211 0.65827 0.0
Co1055 Co 0.57307 0.63312 0.83814 0.0
C1056 C 0.52062 0.59217 0.89878 0.0
O1057 O 0.52291 0.58191 0.80465 0.0
O1058 O 0.53814 0.61835 0.92483 0.0
C1059 C 0.50095 0.57238 0.48681 0.0
O1060 O 0.49386 0.58927 0.53986 0.0
C1061 C 0.61878 0.66466 0.98712 0.0
C1062 C 0.65541 0.68895 0.87381 0.0
C1063 C 0.64798 0.68437 0.98488 0.0
N1064 N 0.60925 0.65967 0.88384 0.0
N1065 N 0.63134 0.67279 0.81552 0.0
C1066 C 0.59914 0.65225 0.08463 0.0
H1067 H 0.58527 0.62871 0.07304 0.0
H1068 H 0.58465 0.66138 0.08704 0.0
H1069 H 0.61104 0.65626 0.16373 0.0
C1070 C 0.58074 0.65244 0.52494 0.0
N1071 N 0.56918 0.6339 0.61307 0.0
N1072 N 0.57153 0.64935 0.69937 0.0
C1073 C 0.58219 0.67728 0.67003 0.0
C1074 C 0.58973 0.68158 0.55692 0.0
C1075 C 0.58627 0.64269 0.41636 0.0
H1076 H 0.58817 0.62321 0.42873 0.0
H1077 H 0.56784 0.63667 0.35976 0.0
H1078 H 0.60636 0.65989 0.37837 0.0
O1079 O 0.57501 0.57652 0.72033 0.0
O1080 O 0.58022 0.60108 0.87149 0.0
H1081 H 0.60467 0.70934 0.79089 0.0
H1082 H 0.58014 0.71537 0.70748 0.0
C1083 C 0.58349 0.69898 0.75026 0.0
H1084 H 0.56699 0.68826 0.81597 0.0
H1085 H 0.63 0.67095 0.72925 0.0
O1086 O 0.52193 0.56956 0.524 0.0
C1087 C 0.5817 0.58104 0.8242 0.0
Co1088 Co 0.48138 0.97128 0.65808 0.0
Co1089 Co 0.44032 0.95467 0.83774 0.0
C1090 C 0.48128 0.94322 0.89873 0.0
O1091 O 0.49155 0.95578 0.80459 0.0
O1092 O 0.45508 0.93452 0.92467 0.0
C1093 C 0.50114 0.94335 0.48687 0.0
O1094 O 0.48426 0.91938 0.54005 0.0
C1095 C 0.40883 0.96898 0.98627 0.0
C1096 C 0.38458 0.9813 0.87259 0.0
C1097 C 0.38916 0.97851 0.98375 0.0
N1098 N 0.41378 0.96432 0.8831 0.0
N1099 N 0.40068 0.97328 0.81454 0.0
C1100 C 0.42131 0.96189 0.08399 0.0
H1101 H 0.44486 0.97163 0.07242 0.0
H1102 H 0.41225 0.93828 0.08671 0.0
H1103 H 0.41726 0.96979 0.16293 0.0
C1104 C 0.42105 0.94317 0.52458 0.0
N1105 N 0.43959 0.95008 0.61273 0.0
N1106 N 0.42413 0.9369 0.69893 0.0
C1107 C 0.3962 0.91965 0.66949 0.0
C1108 C 0.39191 0.92299 0.55642 0.0
C1109 C 0.43083 0.95857 0.41617 0.0
H1110 H 0.4503 0.97993 0.42873 0.0
H1111 H 0.43684 0.94621 0.35935 0.0
H1112 H 0.41363 0.9615 0.37832 0.0
O1113 O 0.49699 1.01328 0.72019 0.0
O1114 O 0.47237 0.99387 0.87119 0.0
H1115 H 0.36411 0.90995 0.79037 0.0
H1116 H 0.35811 0.87947 0.70663 0.0
C1117 C 0.37449 0.89917 0.74957 0.0
H1118 H 0.3852 0.89335 0.81518 0.0
H1119 H 0.40252 0.97374 0.72828 0.0
O1120 O 0.50394 0.96715 0.52389 0.0
C1121 C 0.49243 1.01541 0.82404 0.0
Co1122 Co 0.2061 0.42088 0.38824 0.0
Co1123 Co 0.18151 0.43732 0.20845 0.0
C1124 C 0.23398 0.44892 0.14754 0.0
O1125 O 0.23175 0.4364 0.24174 0.0
O1126 O 0.21642 0.45754 0.12154 0.0
C1127 C 0.25372 0.44889 0.55975 0.0
O1128 O 0.26072 0.47288 0.50684 0.0
C1129 C 0.13573 0.42316 0.05982 0.0
C1130 C 0.09912 0.41075 0.17346 0.0
C1131 C 0.10655 0.41371 0.0624 0.0
N1132 N 0.14528 0.42761 0.16306 0.0
N1133 N 0.12321 0.4186 0.23154 0.0
C1134 C 0.15536 0.43052 0.96225 0.0
H1135 H 0.16935 0.42098 0.97373 0.0
H1136 H 0.16973 0.45417 0.95989 0.0
H1137 H 0.14346 0.4226 0.88318 0.0
C1138 C 0.17393 0.44902 0.52162 0.0
N1139 N 0.18548 0.44205 0.43347 0.0
N1140 N 0.18307 0.45511 0.34713 0.0
C1141 C 0.17238 0.47235 0.37644 0.0
C1142 C 0.16488 0.46913 0.48961 0.0
C1143 C 0.16847 0.43376 0.63027 0.0
H1144 H 0.16662 0.41241 0.61801 0.0
H1145 H 0.18691 0.44622 0.68678 0.0
H1146 H 0.14837 0.43082 0.66831 0.0
O1147 O 0.17976 0.37885 0.32623 0.0
O1148 O 0.17444 0.39817 0.17511 0.0
H1149 H 0.14981 0.48183 0.25553 0.0
H1150 H 0.17434 0.51244 0.33871 0.0
C1151 C 0.17101 0.4927 0.29607 0.0
H1152 H 0.18749 0.4985 0.23029 0.0
H1153 H 0.12458 0.41804 0.31778 0.0
O1154 O 0.23282 0.42507 0.52247 0.0
C1155 C 0.17305 0.37668 0.22237 0.0
Co1156 Co 0.65251 0.80005 0.38843 0.0
Co1157 Co 0.63592 0.75901 0.20875 0.0
C1158 C 0.62446 0.79995 0.14778 0.0
O1159 O 0.63702 0.81022 0.24192 0.0
O1160 O 0.61576 0.77376 0.12182 0.0
C1161 C 0.6246 0.81978 0.55974 0.0
O1162 O 0.60061 0.80288 0.50668 0.0
C1163 C 0.65007 0.72738 0.06035 0.0
C1164 C 0.66245 0.70318 0.1742 0.0
C1165 C 0.65955 0.70768 0.0631 0.0
N1166 N 0.64556 0.73245 0.16353 0.0
N1167 N 0.65455 0.71939 0.23214 0.0
C1168 C 0.64283 0.73972 0.96263 0.0
H1169 H 0.65241 0.76325 0.97413 0.0
H1170 H 0.61919 0.73049 0.95999 0.0
H1171 H 0.65079 0.73574 0.88368 0.0
C1172 C 0.62437 0.73971 0.52182 0.0
N1173 N 0.63129 0.75826 0.43372 0.0
N1174 N 0.61813 0.74281 0.34748 0.0
C1175 C 0.60089 0.71487 0.37682 0.0
C1176 C 0.60421 0.71057 0.48988 0.0
C1177 C 0.63974 0.74947 0.63029 0.0
H1178 H 0.6611 0.76895 0.61781 0.0
H1179 H 0.62736 0.75547 0.68707 0.0
H1180 H 0.64267 0.73227 0.66814 0.0
O1181 O 0.69452 0.81563 0.32637 0.0
O1182 O 0.67511 0.79103 0.17531 0.0
H1183 H 0.59128 0.68285 0.2557 0.0
H1184 H 0.56075 0.67675 0.33944 0.0
C1185 C 0.58045 0.69317 0.2966 0.0
H1186 H 0.5746 0.70388 0.23107 0.0
H1187 H 0.65508 0.72131 0.31837 0.0
O1188 O 0.64839 0.82261 0.52262 0.0
C1189 C 0.69665 0.81108 0.22252 0.0
Co1190 Co 0.27343 0.86733 0.38782 0.0
Co1191 Co 0.31446 0.89189 0.20807 0.0
C1192 C 0.27354 0.83943 0.14719 0.0
O1193 O 0.26326 0.84167 0.24135 0.0
O1194 O 0.29973 0.85697 0.12123 0.0
C1195 C 0.25371 0.81967 0.55928 0.0
O1196 O 0.27062 0.81261 0.5063 0.0
C1197 C 0.34611 0.93764 0.05938 0.0
C1198 C 0.37033 0.97426 0.17298 0.0
C1199 C 0.36585 0.96682 0.06193 0.0
N1200 N 0.34101 0.9281 0.16263 0.0
N1201 N 0.35408 0.95017 0.23108 0.0
C1202 C 0.33382 0.918 0.96181 0.0
H1203 H 0.31028 0.90402 0.97327 0.0
H1204 H 0.34308 0.90363 0.9595 0.0
H1205 H 0.3378 0.9299 0.88273 0.0
C1206 C 0.33377 0.89948 0.52128 0.0
N1207 N 0.31523 0.88793 0.4331 0.0
N1208 N 0.33069 0.89033 0.34681 0.0
C1209 C 0.35863 0.90102 0.37616 0.0
C1210 C 0.36292 0.90852 0.48931 0.0
C1211 C 0.32398 0.90496 0.62988 0.0
H1212 H 0.30449 0.90682 0.61755 0.0
H1213 H 0.31799 0.88653 0.68642 0.0
H1214 H 0.34116 0.92506 0.66792 0.0
O1215 O 0.25781 0.89373 0.32574 0.0
O1216 O 0.28241 0.89901 0.17465 0.0
H1217 H 0.39067 0.92358 0.25527 0.0
H1218 H 0.39676 0.89906 0.33853 0.0
C1219 C 0.38035 0.90238 0.29584 0.0
H1220 H 0.36965 0.8859 0.23008 0.0
H1221 H 0.35215 0.94881 0.31732 0.0
O1222 O 0.25087 0.84063 0.52206 0.0
C1223 C 0.26234 0.90044 0.22189 0.0
loop_
_geom_bond_atom_site_label_1
_geom_bond_atom_site_label_2
_geom_bond_distance
_geom_bond_site_symmetry_2
_ccdc_geom_bond_type
Co0 O3 1.970 . S
Co0 N17 1.989 . S
Co0 O25 1.967 . S
Co0 O32 1.920 . S
Co1 O4 1.966 1_554 S
Co1 N10 2.022 1_554 S
Co1 N18 1.993 . S
Co1 O26 1.941 . S
C2 O3 1.258 . S
C2 O4 1.263 1_554 S
O3 Co0 1.970 . S
O3 C2 1.258 . S
O4 Co1 1.966 1_556 S
O4 C2 1.263 1_556 S
C5 O6 1.235 . S
C5 O32 1.289 . S
O6 C5 1.235 . S
C7 C9 1.400 . S
C7 N10 1.351 . S
C7 C12 1.501 . S
C8 C9 1.387 . S
C8 N11 1.341 . S
C9 C7 1.400 . S
C9 C8 1.387 . S
N10 Co1 2.022 1_556 S
N10 C7 1.351 . S
N10 N11 1.365 . S
N11 C8 1.341 . S
N11 N10 1.365 . S
N11 H31 0.862 . S
C12 C7 1.501 . S
C12 H13 0.961 . S
C12 H14 0.961 . S
C12 H15 0.960 . S
H13 C12 0.961 . S
H14 C12 0.961 . S
H15 C12 0.960 . S
C16 N17 1.342 . S
C16 C20 1.401 . S
C16 C21 1.499 . S
N17 Co0 1.989 . S
N17 C16 1.342 . S
N17 N18 1.388 . S
N18 Co1 1.993 . S
N18 N17 1.388 . S
N18 C19 1.346 . S
C19 N18 1.346 . S
C19 C20 1.396 . S
C19 C29 1.510 . S
C20 C16 1.401 . S
C20 C19 1.396 . S
C21 C16 1.499 . S
C21 H22 0.959 . S
C21 H23 0.960 . S
C21 H24 0.961 . S
H22 C21 0.959 . S
H23 C21 0.960 . S
H24 C21 0.961 . S
O25 Co0 1.967 . S
O25 C33 1.258 . S
O26 Co1 1.941 . S
O26 C33 1.266 . S
H27 C29 0.959 . S
H28 C29 0.961 . S
C29 C19 1.510 . S
C29 H27 0.959 . S
C29 H28 0.961 . S
C29 H30 0.960 . S
H30 C29 0.960 . S
H31 N11 0.862 . S
O32 Co0 1.920 . S
O32 C5 1.289 . S
C33 O25 1.258 . S
C33 O26 1.266 . S
Co34 O37 1.970 . S
Co34 N51 1.989 . S
Co34 O59 1.967 . S
Co34 O66 1.920 . S
Co35 O38 1.966 1_554 S
Co35 N44 2.022 1_554 S
Co35 N52 1.993 . S
Co35 O60 1.941 . S
C36 O37 1.258 . S
C36 O38 1.263 1_554 S
O37 Co34 1.970 . S
O37 C36 1.258 . S
O38 Co35 1.966 1_556 S
O38 C36 1.263 1_556 S
C39 O40 1.235 . S
C39 O66 1.289 . S
O40 C39 1.235 . S
C41 C43 1.404 . S
C41 N44 1.351 . S
C41 C46 1.501 . S
C42 C43 1.389 1_565 S
C42 N45 1.341 1_565 S
C43 C41 1.404 . S
C43 C42 1.389 1_545 S
N44 Co35 2.022 1_556 S
N44 C41 1.351 . S
N44 N45 1.365 . S
N45 C42 1.341 1_545 S
N45 N44 1.365 . S
N45 H65 0.862 . S
C46 C41 1.501 . S
C46 H47 0.961 . S
C46 H48 0.961 . S
C46 H49 0.960 . S
H47 C46 0.961 . S
H48 C46 0.961 . S
H49 C46 0.960 . S
C50 N51 1.342 . S
C50 C54 1.401 . S
C50 C55 1.499 . S
N51 Co34 1.989 . S
N51 C50 1.342 . S
N51 N52 1.388 . S
N52 Co35 1.993 . S
N52 N51 1.388 . S
N52 C53 1.346 . S
C53 N52 1.346 . S
C53 C54 1.396 . S
C53 C63 1.541 . S
C54 C50 1.401 . S
C54 C53 1.396 . S
C55 C50 1.499 . S
C55 H56 0.959 . S
C55 H57 0.960 . S
C55 H58 0.961 . S
H56 C55 0.959 . S
H57 C55 0.960 . S
H58 C55 0.961 . S
O59 Co34 1.967 . S
O59 C67 1.258 . S
O60 Co35 1.941 . S
O60 C67 1.266 . S
H61 C63 0.956 1_565 S
H62 C63 0.922 1_565 S
C63 C53 1.541 . S
C63 H61 0.956 1_545 S
C63 H62 0.922 1_545 S
C63 H64 0.974 . S
H64 C63 0.974 . S
H65 N45 0.862 . S
O66 Co34 1.920 . S
O66 C39 1.289 . S
C67 O59 1.258 . S
C67 O60 1.266 . S
Co68 O71 1.970 . S
Co68 N85 1.989 . S
Co68 O93 1.967 . S
Co68 O100 1.920 . S
Co69 O72 1.966 1_554 S
Co69 N78 2.022 1_554 S
Co69 N86 1.993 . S
Co69 O94 1.941 . S
C70 O71 1.258 . S
C70 O72 1.263 1_554 S
O71 Co68 1.970 . S
O71 C70 1.258 . S
O72 Co69 1.966 1_556 S
O72 C70 1.263 1_556 S
C73 O74 1.235 . S
C73 O100 1.289 . S
O74 C73 1.235 . S
C75 C77 1.405 . S
C75 N78 1.351 . S
C75 C80 1.501 . S
C76 C77 1.384 1_455 S
C76 N79 1.341 1_455 S
C77 C75 1.405 . S
C77 C76 1.384 1_655 S
N78 Co69 2.022 1_556 S
N78 C75 1.351 . S
N78 N79 1.365 . S
N79 C76 1.341 1_655 S
N79 N78 1.365 . S
N79 H99 0.862 . S
C80 C75 1.501 . S
C80 H81 0.961 . S
C80 H82 0.961 . S
C80 H83 0.960 . S
H81 C80 0.961 . S
H82 C80 0.961 . S
H83 C80 0.960 . S
C84 N85 1.342 . S
C84 C88 1.401 . S
C84 C89 1.499 . S
N85 Co68 1.989 . S
N85 C84 1.342 . S
N85 N86 1.388 . S
N86 Co69 1.993 . S
N86 N85 1.388 . S
N86 C87 1.346 . S
C87 N86 1.346 . S
C87 C88 1.396 . S
C87 C97 1.543 . S
C88 C84 1.401 . S
C88 C87 1.396 . S
C89 C84 1.499 . S
C89 H90 0.959 . S
C89 H91 0.960 . S
C89 H92 0.961 . S
H90 C89 0.959 . S
H91 C89 0.960 . S
H92 C89 0.961 . S
O93 Co68 1.967 . S
O93 C101 1.258 . S
O94 Co69 1.941 . S
O94 C101 1.266 . S
H95 C97 0.921 1_455 S
H96 C97 0.960 1_455 S
C97 C87 1.543 . S
C97 H95 0.921 1_655 S
C97 H96 0.960 1_655 S
C97 H98 0.969 . S
H98 C97 0.969 . S
H99 N79 0.862 . S
O100 Co68 1.920 . S
O100 C73 1.289 . S
C101 O93 1.258 . S
C101 O94 1.266 . S
Co102 O105 1.970 . S
Co102 N119 1.989 . S
Co102 O127 1.967 . S
Co102 O134 1.920 . S
Co103 O106 1.966 . S
Co103 N112 2.022 . S
Co103 N120 1.993 . S
Co103 O128 1.941 . S
C104 O105 1.258 . S
C104 O106 1.263 . S
O105 Co102 1.970 . S
O105 C104 1.258 . S
O106 Co103 1.966 . S
O106 C104 1.263 . S
C107 O108 1.235 . S
C107 O134 1.289 . S
O108 C107 1.235 . S
C109 C111 1.400 . S
C109 N112 1.351 . S
C109 C114 1.501 . S
C110 C111 1.387 . S
C110 N113 1.341 . S
C111 C109 1.400 . S
C111 C110 1.387 . S
N112 Co103 2.022 . S
N112 C109 1.351 . S
N112 N113 1.365 . S
N113 C110 1.341 . S
N113 N112 1.365 . S
N113 H133 0.862 . S
C114 C109 1.501 . S
C114 H115 0.961 . S
C114 H116 0.961 . S
C114 H117 0.960 . S
H115 C114 0.961 . S
H116 C114 0.961 . S
H117 C114 0.960 . S
C118 N119 1.342 . S
C118 C122 1.401 . S
C118 C123 1.499 . S
N119 Co102 1.989 . S
N119 C118 1.342 . S
N119 N120 1.388 . S
N120 Co103 1.993 . S
N120 N119 1.388 . S
N120 C121 1.346 . S
C121 N120 1.346 . S
C121 C122 1.396 . S
C121 C131 1.510 . S
C122 C118 1.401 . S
C122 C121 1.396 . S
C123 C118 1.499 . S
C123 H124 0.959 . S
C123 H125 0.960 . S
C123 H126 0.961 . S
H124 C123 0.959 . S
H125 C123 0.960 . S
H126 C123 0.961 . S
O127 Co102 1.967 . S
O127 C135 1.258 . S
O128 Co103 1.941 . S
O128 C135 1.266 . S
H129 C131 0.959 . S
H130 C131 0.961 . S
C131 C121 1.510 . S
C131 H129 0.959 . S
C131 H130 0.961 . S
C131 H132 0.960 . S
H132 C131 0.960 . S
H133 N113 0.862 . S
O134 Co102 1.920 . S
O134 C107 1.289 . S
C135 O127 1.258 . S
C135 O128 1.266 . S
Co136 O139 1.970 . S
Co136 N153 1.989 . S
Co136 O161 1.967 . S
Co136 O168 1.920 . S
Co137 O140 1.966 . S
Co137 N146 2.022 . S
Co137 N154 1.993 . S
Co137 O162 1.941 . S
C138 O139 1.258 . S
C138 O140 1.263 . S
O139 Co136 1.970 . S
O139 C138 1.258 . S
O140 Co137 1.966 . S
O140 C138 1.263 . S
C141 O142 1.235 . S
C141 O168 1.289 . S
O142 C141 1.235 . S
C143 C145 1.405 . S
C143 N146 1.351 . S
C143 C148 1.501 . S
C144 C145 1.384 1_545 S
C144 N147 1.341 1_545 S
C145 C143 1.405 . S
C145 C144 1.384 1_565 S
N146 Co137 2.022 . S
N146 C143 1.351 . S
N146 N147 1.365 . S
N147 C144 1.341 1_565 S
N147 N146 1.365 . S
N147 H167 0.862 . S
C148 C143 1.501 . S
C148 H149 0.961 . S
C148 H150 0.961 . S
C148 H151 0.960 . S
H149 C148 0.961 . S
H150 C148 0.961 . S
H151 C148 0.960 . S
C152 N153 1.342 . S
C152 C156 1.401 . S
C152 C157 1.499 . S
N153 Co136 1.989 . S
N153 C152 1.342 . S
N153 N154 1.388 . S
N154 Co137 1.993 . S
N154 N153 1.388 . S
N154 C155 1.346 . S
C155 N154 1.346 . S
C155 C156 1.396 . S
C155 C165 1.543 . S
C156 C152 1.401 . S
C156 C155 1.396 . S
C157 C152 1.499 . S
C157 H158 0.959 . S
C157 H159 0.960 . S
C157 H160 0.961 . S
H158 C157 0.959 . S
H159 C157 0.960 . S
H160 C157 0.961 . S
O161 Co136 1.967 . S
O161 C169 1.258 . S
O162 Co137 1.941 . S
O162 C169 1.266 . S
H163 C165 0.921 1_545 S
H164 C165 0.960 1_545 S
C165 C155 1.543 . S
C165 H163 0.921 1_565 S
C165 H164 0.960 1_565 S
C165 H166 0.969 . S
H166 C165 0.969 . S
H167 N147 0.862 . S
O168 Co136 1.920 . S
O168 C141 1.289 . S
C169 O161 1.258 . S
C169 O162 1.266 . S
Co170 O173 1.970 . S
Co170 N187 1.989 . S
Co170 O195 1.967 . S
Co170 O202 1.920 . S
Co171 O174 1.966 . S
Co171 N180 2.022 . S
Co171 N188 1.993 . S
Co171 O196 1.941 . S
C172 O173 1.258 . S
C172 O174 1.263 . S
O173 Co170 1.970 . S
O173 C172 1.258 . S
O174 Co171 1.966 . S
O174 C172 1.263 . S
C175 O176 1.235 . S
C175 O202 1.289 . S
O176 C175 1.235 . S
C177 C179 1.404 . S
C177 N180 1.351 . S
C177 C182 1.501 . S
C178 C179 1.389 1_655 S
C178 N181 1.341 1_655 S
C179 C177 1.404 . S
C179 C178 1.389 1_455 S
N180 Co171 2.022 . S
N180 C177 1.351 . S
N180 N181 1.365 . S
N181 C178 1.341 1_455 S
N181 N180 1.365 . S
N181 H201 0.862 . S
C182 C177 1.501 . S
C182 H183 0.961 . S
C182 H184 0.961 . S
C182 H185 0.960 . S
H183 C182 0.961 . S
H184 C182 0.961 . S
H185 C182 0.960 . S
C186 N187 1.342 . S
C186 C190 1.401 . S
C186 C191 1.499 . S
N187 Co170 1.989 . S
N187 C186 1.342 . S
N187 N188 1.388 . S
N188 Co171 1.993 . S
N188 N187 1.388 . S
N188 C189 1.346 . S
C189 N188 1.346 . S
C189 C190 1.396 . S
C189 C199 1.541 . S
C190 C186 1.401 . S
C190 C189 1.396 . S
C191 C186 1.499 . S
C191 H192 0.959 . S
C191 H193 0.960 . S
C191 H194 0.961 . S
H192 C191 0.959 . S
H193 C191 0.960 . S
H194 C191 0.961 . S
O195 Co170 1.967 . S
O195 C203 1.258 . S
O196 Co171 1.941 . S
O196 C203 1.266 . S
H197 C199 0.956 1_655 S
H198 C199 0.922 1_655 S
C199 C189 1.541 . S
C199 H197 0.956 1_455 S
C199 H198 0.922 1_455 S
C199 H200 0.974 . S
H200 C199 0.974 . S
H201 N181 0.862 . S
O202 Co170 1.920 . S
O202 C175 1.289 . S
C203 O195 1.258 . S
C203 O196 1.266 . S
Co204 O207 1.970 1_556 S
Co204 N221 1.989 . S
Co204 O229 1.967 1_556 S
Co204 O236 1.920 . S
Co205 O208 1.966 . S
Co205 N214 2.022 . S
Co205 N222 1.993 1_554 S
Co205 O230 1.941 . S
C206 O207 1.258 . S
C206 O208 1.263 . S
O207 Co204 1.970 1_554 S
O207 C206 1.258 . S
O208 Co205 1.966 . S
O208 C206 1.263 . S
C209 O210 1.235 . S
C209 O236 1.289 . S
O210 C209 1.235 . S
C211 C213 1.400 . S
C211 N214 1.351 . S
C211 C216 1.501 . S
C212 C213 1.387 . S
C212 N215 1.341 . S
C213 C211 1.400 . S
C213 C212 1.387 . S
N214 Co205 2.022 . S
N214 C211 1.351 . S
N214 N215 1.365 . S
N215 C212 1.341 . S
N215 N214 1.365 . S
N215 H235 0.862 . S
C216 C211 1.501 . S
C216 H217 0.961 . S
C216 H218 0.961 . S
C216 H219 0.960 . S
H217 C216 0.961 . S
H218 C216 0.961 . S
H219 C216 0.960 . S
C220 N221 1.342 . S
C220 C224 1.401 . S
C220 C225 1.499 . S
N221 Co204 1.989 . S
N221 C220 1.342 . S
N221 N222 1.388 . S
N222 Co205 1.993 1_556 S
N222 N221 1.388 . S
N222 C223 1.346 . S
C223 N222 1.346 . S
C223 C224 1.396 . S
C223 C233 1.510 1_556 S
C224 C220 1.401 . S
C224 C223 1.396 . S
C225 C220 1.499 . S
C225 H226 0.959 . S
C225 H227 0.960 . S
C225 H228 0.961 . S
H226 C225 0.959 . S
H227 C225 0.960 . S
H228 C225 0.961 . S
O229 Co204 1.967 1_554 S
O229 C237 1.258 . S
O230 Co205 1.941 . S
O230 C237 1.266 . S
H231 C233 0.959 . S
H232 C233 0.961 . S
C233 C223 1.510 1_554 S
C233 H231 0.959 . S
C233 H232 0.961 . S
C233 H234 0.960 . S
H234 C233 0.960 . S
H235 N215 0.862 . S
O236 Co204 1.920 . S
O236 C209 1.289 . S
C237 O229 1.258 . S
C237 O230 1.266 . S
Co238 O241 1.970 1_556 S
Co238 N255 1.989 . S
Co238 O263 1.967 1_556 S
Co238 O270 1.920 . S
Co239 O242 1.966 . S
Co239 N248 2.022 . S
Co239 N256 1.993 1_554 S
Co239 O264 1.941 . S
C240 O241 1.258 . S
C240 O242 1.263 . S
O241 Co238 1.970 1_554 S
O241 C240 1.258 . S
O242 Co239 1.966 . S
O242 C240 1.263 . S
C243 O244 1.235 . S
C243 O270 1.289 . S
O244 C243 1.235 . S
C245 C247 1.404 . S
C245 N248 1.351 . S
C245 C250 1.501 . S
C246 C247 1.389 1_545 S
C246 N249 1.341 1_545 S
C247 C245 1.404 . S
C247 C246 1.389 1_565 S
N248 Co239 2.022 . S
N248 C245 1.351 . S
N248 N249 1.365 . S
N249 C246 1.341 1_565 S
N249 N248 1.365 . S
N249 H269 0.862 . S
C250 C245 1.501 . S
C250 H251 0.961 . S
C250 H252 0.961 . S
C250 H253 0.960 . S
H251 C250 0.961 . S
H252 C250 0.961 . S
H253 C250 0.960 . S
C254 N255 1.342 . S
C254 C258 1.401 . S
C254 C259 1.499 . S
N255 Co238 1.989 . S
N255 C254 1.342 . S
N255 N256 1.388 . S
N256 Co239 1.993 1_556 S
N256 N255 1.388 . S
N256 C257 1.346 . S
C257 N256 1.346 . S
C257 C258 1.396 . S
C257 C267 1.541 1_556 S
C258 C254 1.401 . S
C258 C257 1.396 . S
C259 C254 1.499 . S
C259 H260 0.959 . S
C259 H261 0.960 . S
C259 H262 0.961 . S
H260 C259 0.959 . S
H261 C259 0.960 . S
H262 C259 0.961 . S
O263 Co238 1.967 1_554 S
O263 C271 1.258 . S
O264 Co239 1.941 . S
O264 C271 1.266 . S
H265 C267 0.957 1_545 S
H266 C267 0.922 1_545 S
C267 C257 1.541 1_554 S
C267 H265 0.957 1_565 S
C267 H266 0.922 1_565 S
C267 H268 0.974 . S
H268 C267 0.974 . S
H269 N249 0.862 . S
O270 Co238 1.920 . S
O270 C243 1.289 . S
C271 O263 1.258 . S
C271 O264 1.266 . S
Co272 O275 1.970 1_556 S
Co272 N289 1.989 . S
Co272 O297 1.967 1_556 S
Co272 O304 1.920 . S
Co273 O276 1.966 . S
Co273 N282 2.022 . S
Co273 N290 1.993 1_554 S
Co273 O298 1.941 . S
C274 O275 1.258 . S
C274 O276 1.263 . S
O275 Co272 1.970 1_554 S
O275 C274 1.258 . S
O276 Co273 1.966 . S
O276 C274 1.263 . S
C277 O278 1.235 . S
C277 O304 1.289 . S
O278 C277 1.235 . S
C279 C281 1.405 . S
C279 N282 1.351 . S
C279 C284 1.501 . S
C280 C281 1.384 1_655 S
C280 N283 1.341 1_655 S
C281 C279 1.405 . S
C281 C280 1.384 1_455 S
N282 Co273 2.022 . S
N282 C279 1.351 . S
N282 N283 1.365 . S
N283 C280 1.341 1_455 S
N283 N282 1.365 . S
N283 H303 0.862 . S
C284 C279 1.501 . S
C284 H285 0.961 . S
C284 H286 0.961 . S
C284 H287 0.960 . S
H285 C284 0.961 . S
H286 C284 0.961 . S
H287 C284 0.960 . S
C288 N289 1.342 . S
C288 C292 1.401 . S
C288 C293 1.499 . S
N289 Co272 1.989 . S
N289 C288 1.342 . S
N289 N290 1.388 . S
N290 Co273 1.993 1_556 S
N290 N289 1.388 . S
N290 C291 1.346 . S
C291 N290 1.346 . S
C291 C292 1.396 . S
C291 C301 1.543 1_556 S
C292 C288 1.401 . S
C292 C291 1.396 . S
C293 C288 1.499 . S
C293 H294 0.959 . S
C293 H295 0.960 . S
C293 H296 0.961 . S
H294 C293 0.959 . S
H295 C293 0.960 . S
H296 C293 0.961 . S
O297 Co272 1.967 1_554 S
O297 C305 1.258 . S
O298 Co273 1.941 . S
O298 C305 1.266 . S
H299 C301 0.921 1_655 S
H300 C301 0.960 1_655 S
C301 C291 1.543 1_554 S
C301 H299 0.921 1_455 S
C301 H300 0.960 1_455 S
C301 H302 0.969 . S
H302 C301 0.969 . S
H303 N283 0.862 . S
O304 Co272 1.920 . S
O304 C277 1.289 . S
C305 O297 1.258 . S
C305 O298 1.266 . S
Co306 O309 1.970 . S
Co306 N323 1.989 . S
Co306 O331 1.967 . S
Co306 O338 1.920 . S
Co307 O310 1.966 . S
Co307 N316 2.022 . S
Co307 N324 1.993 . S
Co307 O332 1.941 . S
C308 O309 1.258 . S
C308 O310 1.263 . S
O309 Co306 1.970 . S
O309 C308 1.258 . S
O310 Co307 1.966 . S
O310 C308 1.263 . S
C311 O312 1.235 . S
C311 O338 1.289 . S
O312 C311 1.235 . S
C313 C315 1.400 . S
C313 N316 1.351 . S
C313 C318 1.501 . S
C314 C315 1.387 . S
C314 N317 1.341 . S
C315 C313 1.400 . S
C315 C314 1.387 . S
N316 Co307 2.022 . S
N316 C313 1.351 . S
N316 N317 1.365 . S
N317 C314 1.341 . S
N317 N316 1.365 . S
N317 H337 0.862 . S
C318 C313 1.501 . S
C318 H319 0.961 . S
C318 H320 0.961 . S
C318 H321 0.960 . S
H319 C318 0.961 . S
H320 C318 0.961 . S
H321 C318 0.960 . S
C322 N323 1.342 . S
C322 C326 1.401 . S
C322 C327 1.499 . S
N323 Co306 1.989 . S
N323 C322 1.342 . S
N323 N324 1.388 . S
N324 Co307 1.993 . S
N324 N323 1.388 . S
N324 C325 1.346 . S
C325 N324 1.346 . S
C325 C326 1.396 . S
C325 C335 1.510 . S
C326 C322 1.401 . S
C326 C325 1.396 . S
C327 C322 1.499 . S
C327 H328 0.959 . S
C327 H329 0.960 . S
C327 H330 0.961 1_556 S
H328 C327 0.959 . S
H329 C327 0.960 . S
H330 C327 0.961 1_554 S
O331 Co306 1.967 . S
O331 C339 1.258 . S
O332 Co307 1.941 . S
O332 C339 1.266 . S
H333 C335 0.959 . S
H334 C335 0.961 . S
C335 C325 1.510 . S
C335 H333 0.959 . S
C335 H334 0.961 . S
C335 H336 0.960 . S
H336 C335 0.960 . S
H337 N317 0.862 . S
O338 Co306 1.920 . S
O338 C311 1.289 . S
C339 O331 1.258 . S
C339 O332 1.266 . S
Co340 O343 1.970 . S
Co340 N357 1.989 . S
Co340 O365 1.967 . S
Co340 O372 1.920 . S
Co341 O344 1.966 . S
Co341 N350 2.022 . S
Co341 N358 1.993 . S
Co341 O366 1.941 . S
C342 O343 1.258 . S
C342 O344 1.263 . S
O343 Co340 1.970 . S
O343 C342 1.258 . S
O344 Co341 1.966 . S
O344 C342 1.263 . S
C345 O346 1.235 . S
C345 O372 1.289 . S
O346 C345 1.235 . S
C347 C349 1.405 . S
C347 N350 1.351 . S
C347 C352 1.501 . S
C348 C349 1.384 1_565 S
C348 N351 1.341 1_565 S
C349 C347 1.405 . S
C349 C348 1.384 1_545 S
N350 Co341 2.022 . S
N350 C347 1.351 . S
N350 N351 1.365 . S
N351 C348 1.341 1_545 S
N351 N350 1.365 . S
N351 H371 0.862 . S
C352 C347 1.501 . S
C352 H353 0.961 . S
C352 H354 0.961 . S
C352 H355 0.960 . S
H353 C352 0.961 . S
H354 C352 0.961 . S
H355 C352 0.960 . S
C356 N357 1.342 . S
C356 C360 1.401 . S
C356 C361 1.499 . S
N357 Co340 1.989 . S
N357 C356 1.342 . S
N357 N358 1.388 . S
N358 Co341 1.993 . S
N358 N357 1.388 . S
N358 C359 1.346 . S
C359 N358 1.346 . S
C359 C360 1.396 . S
C359 C369 1.543 . S
C360 C356 1.401 . S
C360 C359 1.396 . S
C361 C356 1.499 . S
C361 H362 0.959 . S
C361 H363 0.960 . S
C361 H364 0.961 1_556 S
H362 C361 0.959 . S
H363 C361 0.960 . S
H364 C361 0.961 1_554 S
O365 Co340 1.967 . S
O365 C373 1.258 . S
O366 Co341 1.941 . S
O366 C373 1.266 . S
H367 C369 0.921 1_565 S
H368 C369 0.960 1_565 S
C369 C359 1.543 . S
C369 H367 0.921 1_545 S
C369 H368 0.960 1_545 S
C369 H370 0.969 . S
H370 C369 0.969 . S
H371 N351 0.862 . S
O372 Co340 1.920 . S
O372 C345 1.289 . S
C373 O365 1.258 . S
C373 O366 1.266 . S
Co374 O377 1.970 . S
Co374 N391 1.989 . S
Co374 O399 1.967 . S
Co374 O406 1.920 . S
Co375 O378 1.966 . S
Co375 N384 2.022 . S
Co375 N392 1.993 . S
Co375 O400 1.941 . S
C376 O377 1.258 . S
C376 O378 1.263 . S
O377 Co374 1.970 . S
O377 C376 1.258 . S
O378 Co375 1.966 . S
O378 C376 1.263 . S
C379 O380 1.235 . S
C379 O406 1.289 . S
O380 C379 1.235 . S
C381 C383 1.404 . S
C381 N384 1.351 . S
C381 C386 1.501 . S
C382 C383 1.389 1_455 S
C382 N385 1.341 1_455 S
C383 C381 1.404 . S
C383 C382 1.389 1_655 S
N384 Co375 2.022 . S
N384 C381 1.351 . S
N384 N385 1.365 . S
N385 C382 1.341 1_655 S
N385 N384 1.365 . S
N385 H405 0.862 . S
C386 C381 1.501 . S
C386 H387 0.961 . S
C386 H388 0.961 . S
C386 H389 0.960 . S
H387 C386 0.961 . S
H388 C386 0.961 . S
H389 C386 0.960 . S
C390 N391 1.342 . S
C390 C394 1.401 . S
C390 C395 1.499 . S
N391 Co374 1.989 . S
N391 C390 1.342 . S
N391 N392 1.388 . S
N392 Co375 1.993 . S
N392 N391 1.388 . S
N392 C393 1.346 . S
C393 N392 1.346 . S
C393 C394 1.396 . S
C393 C403 1.541 . S
C394 C390 1.401 . S
C394 C393 1.396 . S
C395 C390 1.499 . S
C395 H396 0.959 . S
C395 H397 0.960 . S
C395 H398 0.961 1_556 S
H396 C395 0.959 . S
H397 C395 0.960 . S
H398 C395 0.961 1_554 S
O399 Co374 1.967 . S
O399 C407 1.258 . S
O400 Co375 1.941 . S
O400 C407 1.266 . S
H401 C403 0.956 1_455 S
H402 C403 0.922 1_455 S
C403 C393 1.541 . S
C403 H401 0.956 1_655 S
C403 H402 0.922 1_655 S
C403 H404 0.974 . S
H404 C403 0.974 . S
H405 N385 0.862 . S
O406 Co374 1.920 . S
O406 C379 1.289 . S
C407 O399 1.258 . S
C407 O400 1.266 . S
Co408 O411 1.970 . S
Co408 N425 1.989 . S
Co408 O433 1.967 . S
Co408 O440 1.920 . S
Co409 O412 1.966 . S
Co409 N418 2.022 . S
Co409 N426 1.993 . S
Co409 O434 1.941 . S
C410 O411 1.258 . S
C410 O412 1.263 . S
O411 Co408 1.970 . S
O411 C410 1.258 . S
O412 Co409 1.966 . S
O412 C410 1.263 . S
C413 O414 1.235 . S
C413 O440 1.289 . S
O414 C413 1.235 . S
C415 C417 1.400 . S
C415 N418 1.351 . S
C415 C420 1.501 . S
C416 C417 1.387 . S
C416 N419 1.341 . S
C417 C415 1.400 . S
C417 C416 1.387 . S
N418 Co409 2.022 . S
N418 C415 1.351 . S
N418 N419 1.365 . S
N419 C416 1.341 . S
N419 N418 1.365 . S
N419 H439 0.862 . S
C420 C415 1.501 . S
C420 H421 0.961 . S
C420 H422 0.961 . S
C420 H423 0.960 . S
H421 C420 0.961 . S
H422 C420 0.961 . S
H423 C420 0.960 . S
C424 N425 1.342 . S
C424 C428 1.401 . S
C424 C429 1.499 . S
N425 Co408 1.989 . S
N425 C424 1.342 . S
N425 N426 1.388 . S
N426 Co409 1.993 . S
N426 N425 1.388 . S
N426 C427 1.346 . S
C427 N426 1.346 . S
C427 C428 1.396 . S
C427 C437 1.510 . S
C428 C424 1.401 . S
C428 C427 1.396 . S
C429 C424 1.499 . S
C429 H430 0.959 . S
C429 H431 0.960 . S
C429 H432 0.961 . S
H430 C429 0.959 . S
H431 C429 0.960 . S
H432 C429 0.961 . S
O433 Co408 1.967 . S
O433 C441 1.258 . S
O434 Co409 1.941 . S
O434 C441 1.266 . S
H435 C437 0.959 . S
H436 C437 0.961 . S
C437 C427 1.510 . S
C437 H435 0.959 . S
C437 H436 0.961 . S
C437 H438 0.960 . S
H438 C437 0.960 . S
H439 N419 0.862 . S
O440 Co408 1.920 . S
O440 C413 1.289 . S
C441 O433 1.258 . S
C441 O434 1.266 . S
Co442 O445 1.970 . S
Co442 N459 1.989 . S
Co442 O467 1.967 . S
Co442 O474 1.920 . S
Co443 O446 1.966 . S
Co443 N452 2.022 . S
Co443 N460 1.993 . S
Co443 O468 1.941 . S
C444 O445 1.258 . S
C444 O446 1.263 . S
O445 Co442 1.970 . S
O445 C444 1.258 . S
O446 Co443 1.966 . S
O446 C444 1.263 . S
C447 O448 1.235 . S
C447 O474 1.289 . S
O448 C447 1.235 . S
C449 C451 1.400 . S
C449 N452 1.351 . S
C449 C454 1.501 . S
C450 C451 1.387 . S
C450 N453 1.341 . S
C451 C449 1.400 . S
C451 C450 1.387 . S
N452 Co443 2.022 . S
N452 C449 1.351 . S
N452 N453 1.365 . S
N453 C450 1.341 . S
N453 N452 1.365 . S
N453 H473 0.862 . S
C454 C449 1.501 . S
C454 H455 0.961 . S
C454 H456 0.961 . S
C454 H457 0.960 . S
H455 C454 0.961 . S
H456 C454 0.961 . S
H457 C454 0.960 . S
C458 N459 1.342 . S
C458 C462 1.401 . S
C458 C463 1.499 . S
N459 Co442 1.989 . S
N459 C458 1.342 . S
N459 N460 1.388 . S
N460 Co443 1.993 . S
N460 N459 1.388 . S
N460 C461 1.346 . S
C461 N460 1.346 . S
C461 C462 1.396 . S
C461 C471 1.510 . S
C462 C458 1.401 . S
C462 C461 1.396 . S
C463 C458 1.499 . S
C463 H464 0.959 . S
C463 H465 0.960 . S
C463 H466 0.961 . S
H464 C463 0.959 . S
H465 C463 0.960 . S
H466 C463 0.961 . S
O467 Co442 1.967 . S
O467 C475 1.258 . S
O468 Co443 1.941 . S
O468 C475 1.266 . S
H469 C471 0.959 . S
H470 C471 0.961 . S
C471 C461 1.510 . S
C471 H469 0.959 . S
C471 H470 0.961 . S
C471 H472 0.960 . S
H472 C471 0.960 . S
H473 N453 0.862 . S
O474 Co442 1.920 . S
O474 C447 1.289 . S
C475 O467 1.258 . S
C475 O468 1.266 . S
Co476 O479 1.970 . S
Co476 N493 1.989 . S
Co476 O501 1.967 . S
Co476 O508 1.920 . S
Co477 O480 1.966 . S
Co477 N486 2.022 . S
Co477 N494 1.993 . S
Co477 O502 1.941 . S
C478 O479 1.258 . S
C478 O480 1.263 . S
O479 Co476 1.970 . S
O479 C478 1.258 . S
O480 Co477 1.966 . S
O480 C478 1.263 . S
C481 O482 1.235 . S
C481 O508 1.289 . S
O482 C481 1.235 . S
C483 C485 1.400 . S
C483 N486 1.351 . S
C483 C488 1.501 . S
C484 C485 1.387 . S
C484 N487 1.341 . S
C485 C483 1.400 . S
C485 C484 1.387 . S
N486 Co477 2.022 . S
N486 C483 1.351 . S
N486 N487 1.365 . S
N487 C484 1.341 . S
N487 N486 1.365 . S
N487 H507 0.862 . S
C488 C483 1.501 . S
C488 H489 0.961 . S
C488 H490 0.961 . S
C488 H491 0.960 . S
H489 C488 0.961 . S
H490 C488 0.961 . S
H491 C488 0.960 . S
C492 N493 1.342 . S
C492 C496 1.401 . S
C492 C497 1.499 . S
N493 Co476 1.989 . S
N493 C492 1.342 . S
N493 N494 1.388 . S
N494 Co477 1.993 . S
N494 N493 1.388 . S
N494 C495 1.346 . S
C495 N494 1.346 . S
C495 C496 1.396 . S
C495 C505 1.510 . S
C496 C492 1.401 . S
C496 C495 1.396 . S
C497 C492 1.499 . S
C497 H498 0.959 . S
C497 H499 0.960 . S
C497 H500 0.961 . S
H498 C497 0.959 . S
H499 C497 0.960 . S
H500 C497 0.961 . S
O501 Co476 1.967 . S
O501 C509 1.258 . S
O502 Co477 1.941 . S
O502 C509 1.266 . S
H503 C505 0.959 . S
H504 C505 0.961 . S
C505 C495 1.510 . S
C505 H503 0.959 . S
C505 H504 0.961 . S
C505 H506 0.960 . S
H506 C505 0.960 . S
H507 N487 0.862 . S
O508 Co476 1.920 . S
O508 C481 1.289 . S
C509 O501 1.258 . S
C509 O502 1.266 . S
Co510 O513 1.970 . S
Co510 N527 1.989 . S
Co510 O535 1.967 . S
Co510 O542 1.920 . S
Co511 O514 1.966 1_556 S
Co511 N520 2.022 1_556 S
Co511 N528 1.993 . S
Co511 O536 1.941 . S
C512 O513 1.258 . S
C512 O514 1.263 1_556 S
O513 Co510 1.970 . S
O513 C512 1.258 . S
O514 Co511 1.966 1_554 S
O514 C512 1.263 1_554 S
C515 O516 1.235 . S
C515 O542 1.289 . S
O516 C515 1.235 . S
C517 C519 1.400 . S
C517 N520 1.351 . S
C517 C522 1.501 . S
C518 C519 1.387 . S
C518 N521 1.341 . S
C519 C517 1.400 . S
C519 C518 1.387 . S
N520 Co511 2.022 1_554 S
N520 C517 1.351 . S
N520 N521 1.365 . S
N521 C518 1.341 . S
N521 N520 1.365 . S
N521 H541 0.862 . S
C522 C517 1.501 . S
C522 H523 0.961 . S
C522 H524 0.961 . S
C522 H525 0.960 . S
H523 C522 0.961 . S
H524 C522 0.961 . S
H525 C522 0.960 . S
C526 N527 1.342 . S
C526 C530 1.401 . S
C526 C531 1.499 . S
N527 Co510 1.989 . S
N527 C526 1.342 . S
N527 N528 1.388 . S
N528 Co511 1.993 . S
N528 N527 1.388 . S
N528 C529 1.346 . S
C529 N528 1.346 . S
C529 C530 1.396 . S
C529 C539 1.510 . S
C530 C526 1.401 . S
C530 C529 1.396 . S
C531 C526 1.499 . S
C531 H532 0.959 . S
C531 H533 0.960 . S
C531 H534 0.961 . S
H532 C531 0.959 . S
H533 C531 0.960 . S
H534 C531 0.961 . S
O535 Co510 1.967 . S
O535 C543 1.258 . S
O536 Co511 1.941 . S
O536 C543 1.266 . S
H537 C539 0.959 . S
H538 C539 0.961 . S
C539 C529 1.510 . S
C539 H537 0.959 . S
C539 H538 0.961 . S
C539 H540 0.960 . S
H540 C539 0.960 . S
H541 N521 0.862 . S
O542 Co510 1.920 . S
O542 C515 1.289 . S
C543 O535 1.258 . S
C543 O536 1.266 . S
Co544 O547 1.970 . S
Co544 N561 1.989 . S
Co544 O569 1.967 . S
Co544 O576 1.920 . S
Co545 O548 1.966 1_556 S
Co545 N554 2.022 1_556 S
Co545 N562 1.993 . S
Co545 O570 1.941 . S
C546 O547 1.258 . S
C546 O548 1.263 1_556 S
O547 Co544 1.970 . S
O547 C546 1.258 . S
O548 Co545 1.966 1_554 S
O548 C546 1.263 1_554 S
C549 O550 1.235 . S
C549 O576 1.289 . S
O550 C549 1.235 . S
C551 C553 1.400 . S
C551 N554 1.351 . S
C551 C556 1.501 . S
C552 C553 1.387 . S
C552 N555 1.341 . S
C553 C551 1.400 . S
C553 C552 1.387 . S
N554 Co545 2.022 1_554 S
N554 C551 1.351 . S
N554 N555 1.365 . S
N555 C552 1.341 . S
N555 N554 1.365 . S
N555 H575 0.862 . S
C556 C551 1.501 . S
C556 H557 0.961 . S
C556 H558 0.961 . S
C556 H559 0.960 . S
H557 C556 0.961 . S
H558 C556 0.961 . S
H559 C556 0.960 . S
C560 N561 1.342 . S
C560 C564 1.401 . S
C560 C565 1.499 . S
N561 Co544 1.989 . S
N561 C560 1.342 . S
N561 N562 1.388 . S
N562 Co545 1.993 . S
N562 N561 1.388 . S
N562 C563 1.346 . S
C563 N562 1.346 . S
C563 C564 1.396 . S
C563 C573 1.510 . S
C564 C560 1.401 . S
C564 C563 1.396 . S
C565 C560 1.499 . S
C565 H566 0.959 . S
C565 H567 0.960 . S
C565 H568 0.961 . S
H566 C565 0.959 . S
H567 C565 0.960 . S
H568 C565 0.961 . S
O569 Co544 1.967 . S
O569 C577 1.258 . S
O570 Co545 1.941 . S
O570 C577 1.266 . S
H571 C573 0.959 . S
H572 C573 0.961 . S
C573 C563 1.510 . S
C573 H571 0.959 . S
C573 H572 0.961 . S
C573 H574 0.960 . S
H574 C573 0.960 . S
H575 N555 0.862 . S
O576 Co544 1.920 . S
O576 C549 1.289 . S
C577 O569 1.258 . S
C577 O570 1.266 . S
Co578 O581 1.970 . S
Co578 N595 1.989 . S
Co578 O603 1.967 . S
Co578 O610 1.920 . S
Co579 O582 1.966 1_556 S
Co579 N588 2.022 1_556 S
Co579 N596 1.993 . S
Co579 O604 1.941 . S
C580 O581 1.258 . S
C580 O582 1.263 1_556 S
O581 Co578 1.970 . S
O581 C580 1.258 . S
O582 Co579 1.966 1_554 S
O582 C580 1.263 1_554 S
C583 O584 1.235 . S
C583 O610 1.289 . S
O584 C583 1.235 . S
C585 C587 1.400 . S
C585 N588 1.351 . S
C585 C590 1.501 . S
C586 C587 1.387 . S
C586 N589 1.341 . S
C587 C585 1.400 . S
C587 C586 1.387 . S
N588 Co579 2.022 1_554 S
N588 C585 1.351 . S
N588 N589 1.365 . S
N589 C586 1.341 . S
N589 N588 1.365 . S
N589 H609 0.862 . S
C590 C585 1.501 . S
C590 H591 0.961 . S
C590 H592 0.961 . S
C590 H593 0.960 . S
H591 C590 0.961 . S
H592 C590 0.961 . S
H593 C590 0.960 . S
C594 N595 1.342 . S
C594 C598 1.401 . S
C594 C599 1.499 . S
N595 Co578 1.989 . S
N595 C594 1.342 . S
N595 N596 1.388 . S
N596 Co579 1.993 . S
N596 N595 1.388 . S
N596 C597 1.346 . S
C597 N596 1.346 . S
C597 C598 1.396 . S
C597 C607 1.510 . S
C598 C594 1.401 . S
C598 C597 1.396 . S
C599 C594 1.499 . S
C599 H600 0.959 . S
C599 H601 0.960 . S
C599 H602 0.961 . S
H600 C599 0.959 . S
H601 C599 0.960 . S
H602 C599 0.961 . S
O603 Co578 1.967 . S
O603 C611 1.258 . S
O604 Co579 1.941 . S
O604 C611 1.266 . S
H605 C607 0.959 . S
H606 C607 0.961 . S
C607 C597 1.510 . S
C607 H605 0.959 . S
C607 H606 0.961 . S
C607 H608 0.960 . S
H608 C607 0.960 . S
H609 N589 0.862 . S
O610 Co578 1.920 . S
O610 C583 1.289 . S
C611 O603 1.258 . S
C611 O604 1.266 . S
Co612 O615 1.970 . S
Co612 N629 1.989 . S
Co612 O637 1.967 . S
Co612 O644 1.920 . S
Co613 O616 1.966 . S
Co613 N622 2.022 . S
Co613 N630 1.993 . S
Co613 O638 1.941 . S
C614 O615 1.258 . S
C614 O616 1.263 . S
O615 Co612 1.970 . S
O615 C614 1.258 . S
O616 Co613 1.966 . S
O616 C614 1.263 . S
C617 O618 1.235 . S
C617 O644 1.289 . S
O618 C617 1.235 . S
C619 C621 1.400 . S
C619 N622 1.351 . S
C619 C624 1.501 . S
C620 C621 1.387 . S
C620 N623 1.341 . S
C621 C619 1.400 . S
C621 C620 1.387 . S
N622 Co613 2.022 . S
N622 C619 1.351 . S
N622 N623 1.365 . S
N623 C620 1.341 . S
N623 N622 1.365 . S
N623 H643 0.862 . S
C624 C619 1.501 . S
C624 H625 0.961 . S
C624 H626 0.961 . S
C624 H627 0.960 . S
H625 C624 0.961 . S
H626 C624 0.961 . S
H627 C624 0.960 . S
C628 N629 1.342 . S
C628 C632 1.401 . S
C628 C633 1.499 . S
N629 Co612 1.989 . S
N629 C628 1.342 . S
N629 N630 1.388 . S
N630 Co613 1.993 . S
N630 N629 1.388 . S
N630 C631 1.346 . S
C631 N630 1.346 . S
C631 C632 1.396 . S
C631 C641 1.510 . S
C632 C628 1.401 . S
C632 C631 1.396 . S
C633 C628 1.499 . S
C633 H634 0.959 . S
C633 H635 0.960 . S
C633 H636 0.961 . S
H634 C633 0.959 . S
H635 C633 0.960 . S
H636 C633 0.961 . S
O637 Co612 1.967 . S
O637 C645 1.258 . S
O638 Co613 1.941 . S
O638 C645 1.266 . S
H639 C641 0.959 . S
H640 C641 0.961 . S
C641 C631 1.510 . S
C641 H639 0.959 . S
C641 H640 0.961 . S
C641 H642 0.960 . S
H642 C641 0.960 . S
H643 N623 0.862 . S
O644 Co612 1.920 . S
O644 C617 1.289 . S
C645 O637 1.258 . S
C645 O638 1.266 . S
Co646 O649 1.970 . S
Co646 N663 1.989 . S
Co646 O671 1.967 . S
Co646 O678 1.920 . S
Co647 O650 1.966 . S
Co647 N656 2.022 . S
Co647 N664 1.993 . S
Co647 O672 1.941 . S
C648 O649 1.258 . S
C648 O650 1.263 . S
O649 Co646 1.970 . S
O649 C648 1.258 . S
O650 Co647 1.966 . S
O650 C648 1.263 . S
C651 O652 1.235 . S
C651 O678 1.289 . S
O652 C651 1.235 . S
C653 C655 1.400 . S
C653 N656 1.351 . S
C653 C658 1.501 . S
C654 C655 1.387 . S
C654 N657 1.341 . S
C655 C653 1.400 . S
C655 C654 1.387 . S
N656 Co647 2.022 . S
N656 C653 1.351 . S
N656 N657 1.365 . S
N657 C654 1.341 . S
N657 N656 1.365 . S
N657 H677 0.862 . S
C658 C653 1.501 . S
C658 H659 0.961 . S
C658 H660 0.961 . S
C658 H661 0.960 . S
H659 C658 0.961 . S
H660 C658 0.961 . S
H661 C658 0.960 . S
C662 N663 1.342 . S
C662 C666 1.401 . S
C662 C667 1.499 . S
N663 Co646 1.989 . S
N663 C662 1.342 . S
N663 N664 1.388 . S
N664 Co647 1.993 . S
N664 N663 1.388 . S
N664 C665 1.346 . S
C665 N664 1.346 . S
C665 C666 1.396 . S
C665 C675 1.510 . S
C666 C662 1.401 . S
C666 C665 1.396 . S
C667 C662 1.499 . S
C667 H668 0.959 . S
C667 H669 0.960 . S
C667 H670 0.961 . S
H668 C667 0.959 . S
H669 C667 0.960 . S
H670 C667 0.961 . S
O671 Co646 1.967 . S
O671 C679 1.258 . S
O672 Co647 1.941 . S
O672 C679 1.266 . S
H673 C675 0.959 . S
H674 C675 0.961 . S
C675 C665 1.510 . S
C675 H673 0.959 . S
C675 H674 0.961 . S
C675 H676 0.960 . S
H676 C675 0.960 . S
H677 N657 0.862 . S
O678 Co646 1.920 . S
O678 C651 1.289 . S
C679 O671 1.258 . S
C679 O672 1.266 . S
Co680 O683 1.970 . S
Co680 N697 1.989 . S
Co680 O705 1.967 . S
Co680 O712 1.920 . S
Co681 O684 1.966 . S
Co681 N690 2.022 . S
Co681 N698 1.993 . S
Co681 O706 1.941 . S
C682 O683 1.258 . S
C682 O684 1.263 . S
O683 Co680 1.970 . S
O683 C682 1.258 . S
O684 Co681 1.966 . S
O684 C682 1.263 . S
C685 O686 1.235 . S
C685 O712 1.289 . S
O686 C685 1.235 . S
C687 C689 1.400 . S
C687 N690 1.351 . S
C687 C692 1.501 . S
C688 C689 1.387 . S
C688 N691 1.341 . S
C689 C687 1.400 . S
C689 C688 1.387 . S
N690 Co681 2.022 . S
N690 C687 1.351 . S
N690 N691 1.365 . S
N691 C688 1.341 . S
N691 N690 1.365 . S
N691 H711 0.862 . S
C692 C687 1.501 . S
C692 H693 0.961 . S
C692 H694 0.961 . S
C692 H695 0.960 . S
H693 C692 0.961 . S
H694 C692 0.961 . S
H695 C692 0.960 . S
C696 N697 1.342 . S
C696 C700 1.401 . S
C696 C701 1.499 . S
N697 Co680 1.989 . S
N697 C696 1.342 . S
N697 N698 1.388 . S
N698 Co681 1.993 . S
N698 N697 1.388 . S
N698 C699 1.346 . S
C699 N698 1.346 . S
C699 C700 1.396 . S
C699 C709 1.510 . S
C700 C696 1.401 . S
C700 C699 1.396 . S
C701 C696 1.499 . S
C701 H702 0.959 . S
C701 H703 0.960 . S
C701 H704 0.961 . S
H702 C701 0.959 . S
H703 C701 0.960 . S
H704 C701 0.961 . S
O705 Co680 1.967 . S
O705 C713 1.258 . S
O706 Co681 1.941 . S
O706 C713 1.266 . S
H707 C709 0.959 . S
H708 C709 0.961 . S
C709 C699 1.510 . S
C709 H707 0.959 . S
C709 H708 0.961 . S
C709 H710 0.960 . S
H710 C709 0.960 . S
H711 N691 0.862 . S
O712 Co680 1.920 . S
O712 C685 1.289 . S
C713 O705 1.258 . S
C713 O706 1.266 . S
Co714 O717 1.970 1_554 S
Co714 N731 1.989 . S
Co714 O739 1.967 1_554 S
Co714 O746 1.920 . S
Co715 O718 1.966 . S
Co715 N724 2.022 . S
Co715 N732 1.993 1_556 S
Co715 O740 1.941 . S
C716 O717 1.258 . S
C716 O718 1.263 . S
O717 Co714 1.970 1_556 S
O717 C716 1.258 . S
O718 Co715 1.966 . S
O718 C716 1.263 . S
C719 O720 1.235 . S
C719 O746 1.289 . S
O720 C719 1.235 . S
C721 C723 1.400 . S
C721 N724 1.351 . S
C721 C726 1.501 . S
C722 C723 1.387 . S
C722 N725 1.341 . S
C723 C721 1.400 . S
C723 C722 1.387 . S
N724 Co715 2.022 . S
N724 C721 1.351 . S
N724 N725 1.365 . S
N725 C722 1.341 . S
N725 N724 1.365 . S
N725 H745 0.862 . S
C726 C721 1.501 . S
C726 H727 0.961 . S
C726 H728 0.961 . S
C726 H729 0.960 . S
H727 C726 0.961 . S
H728 C726 0.961 . S
H729 C726 0.960 . S
C730 N731 1.342 . S
C730 C734 1.401 . S
C730 C735 1.499 . S
N731 Co714 1.989 . S
N731 C730 1.342 . S
N731 N732 1.388 . S
N732 Co715 1.993 1_554 S
N732 N731 1.388 . S
N732 C733 1.346 . S
C733 N732 1.346 . S
C733 C734 1.396 . S
C733 C743 1.510 1_554 S
C734 C730 1.401 . S
C734 C733 1.396 . S
C735 C730 1.499 . S
C735 H736 0.959 . S
C735 H737 0.960 . S
C735 H738 0.961 . S
H736 C735 0.959 . S
H737 C735 0.960 . S
H738 C735 0.961 . S
O739 Co714 1.967 1_556 S
O739 C747 1.258 . S
O740 Co715 1.941 . S
O740 C747 1.266 . S
H741 C743 0.959 1_554 S
H742 C743 0.961 . S
C743 C733 1.510 1_556 S
C743 H741 0.959 1_556 S
C743 H742 0.961 . S
C743 H744 0.960 . S
H744 C743 0.960 . S
H745 N725 0.862 . S
O746 Co714 1.920 . S
O746 C719 1.289 . S
C747 O739 1.258 . S
C747 O740 1.266 . S
Co748 O751 1.970 1_554 S
Co748 N765 1.989 . S
Co748 O773 1.967 1_554 S
Co748 O780 1.920 . S
Co749 O752 1.966 . S
Co749 N758 2.022 . S
Co749 N766 1.993 1_556 S
Co749 O774 1.941 . S
C750 O751 1.258 . S
C750 O752 1.263 . S
O751 Co748 1.970 1_556 S
O751 C750 1.258 . S
O752 Co749 1.966 . S
O752 C750 1.263 . S
C753 O754 1.235 . S
C753 O780 1.289 . S
O754 C753 1.235 . S
C755 C757 1.400 . S
C755 N758 1.351 . S
C755 C760 1.501 . S
C756 C757 1.387 . S
C756 N759 1.341 . S
C757 C755 1.400 . S
C757 C756 1.387 . S
N758 Co749 2.022 . S
N758 C755 1.351 . S
N758 N759 1.365 . S
N759 C756 1.341 . S
N759 N758 1.365 . S
N759 H779 0.862 . S
C760 C755 1.501 . S
C760 H761 0.961 . S
C760 H762 0.961 . S
C760 H763 0.960 . S
H761 C760 0.961 . S
H762 C760 0.961 . S
H763 C760 0.960 . S
C764 N765 1.342 . S
C764 C768 1.401 . S
C764 C769 1.499 . S
N765 Co748 1.989 . S
N765 C764 1.342 . S
N765 N766 1.388 . S
N766 Co749 1.993 1_554 S
N766 N765 1.388 . S
N766 C767 1.346 . S
C767 N766 1.346 . S
C767 C768 1.396 . S
C767 C777 1.510 1_554 S
C768 C764 1.401 . S
C768 C767 1.396 . S
C769 C764 1.499 . S
C769 H770 0.959 . S
C769 H771 0.960 . S
C769 H772 0.961 . S
H770 C769 0.959 . S
H771 C769 0.960 . S
H772 C769 0.961 . S
O773 Co748 1.967 1_556 S
O773 C781 1.258 . S
O774 Co749 1.941 . S
O774 C781 1.266 . S
H775 C777 0.959 1_554 S
H776 C777 0.961 . S
C777 C767 1.510 1_556 S
C777 H775 0.959 1_556 S
C777 H776 0.961 . S
C777 H778 0.960 . S
H778 C777 0.960 . S
H779 N759 0.862 . S
O780 Co748 1.920 . S
O780 C753 1.289 . S
C781 O773 1.258 . S
C781 O774 1.266 . S
Co782 O785 1.970 1_554 S
Co782 N799 1.989 . S
Co782 O807 1.967 1_554 S
Co782 O814 1.920 . S
Co783 O786 1.966 . S
Co783 N792 2.022 . S
Co783 N800 1.993 1_556 S
Co783 O808 1.941 . S
C784 O785 1.258 . S
C784 O786 1.263 . S
O785 Co782 1.970 1_556 S
O785 C784 1.258 . S
O786 Co783 1.966 . S
O786 C784 1.263 . S
C787 O788 1.235 . S
C787 O814 1.289 . S
O788 C787 1.235 . S
C789 C791 1.400 . S
C789 N792 1.351 . S
C789 C794 1.501 . S
C790 C791 1.387 . S
C790 N793 1.341 . S
C791 C789 1.400 . S
C791 C790 1.387 . S
N792 Co783 2.022 . S
N792 C789 1.351 . S
N792 N793 1.365 . S
N793 C790 1.341 . S
N793 N792 1.365 . S
N793 H813 0.862 . S
C794 C789 1.501 . S
C794 H795 0.961 . S
C794 H796 0.961 . S
C794 H797 0.960 . S
H795 C794 0.961 . S
H796 C794 0.961 . S
H797 C794 0.960 . S
C798 N799 1.342 . S
C798 C802 1.401 . S
C798 C803 1.499 . S
N799 Co782 1.989 . S
N799 C798 1.342 . S
N799 N800 1.388 . S
N800 Co783 1.993 1_554 S
N800 N799 1.388 . S
N800 C801 1.346 . S
C801 N800 1.346 . S
C801 C802 1.396 . S
C801 C811 1.510 1_554 S
C802 C798 1.401 . S
C802 C801 1.396 . S
C803 C798 1.499 . S
C803 H804 0.959 . S
C803 H805 0.960 . S
C803 H806 0.961 . S
H804 C803 0.959 . S
H805 C803 0.960 . S
H806 C803 0.961 . S
O807 Co782 1.967 1_556 S
O807 C815 1.258 . S
O808 Co783 1.941 . S
O808 C815 1.266 . S
H809 C811 0.959 1_554 S
H810 C811 0.961 . S
C811 C801 1.510 1_556 S
C811 H809 0.959 1_556 S
C811 H810 0.961 . S
C811 H812 0.960 . S
H812 C811 0.960 . S
H813 N793 0.862 . S
O814 Co782 1.920 . S
O814 C787 1.289 . S
C815 O807 1.258 . S
C815 O808 1.266 . S
Co816 O819 1.970 . S
Co816 N833 1.989 . S
Co816 O841 1.967 . S
Co816 O848 1.920 1_556 S
Co817 O820 1.966 . S
Co817 N826 2.022 . S
Co817 N834 1.993 . S
Co817 O842 1.941 . S
C818 O819 1.258 . S
C818 O820 1.263 . S
O819 Co816 1.970 . S
O819 C818 1.258 . S
O820 Co817 1.966 . S
O820 C818 1.263 . S
C821 O822 1.235 . S
C821 O848 1.289 . S
O822 C821 1.235 . S
C823 C825 1.400 . S
C823 N826 1.351 . S
C823 C828 1.501 . S
C824 C825 1.387 . S
C824 N827 1.341 . S
C825 C823 1.400 . S
C825 C824 1.387 . S
N826 Co817 2.022 . S
N826 C823 1.351 . S
N826 N827 1.365 . S
N827 C824 1.341 . S
N827 N826 1.365 . S
N827 H847 0.862 . S
C828 C823 1.501 . S
C828 H829 0.961 . S
C828 H830 0.961 . S
C828 H831 0.960 . S
H829 C828 0.961 . S
H830 C828 0.961 . S
H831 C828 0.960 . S
C832 N833 1.342 1_554 S
C832 C836 1.401 1_554 S
C832 C837 1.499 . S
N833 Co816 1.989 . S
N833 C832 1.342 1_556 S
N833 N834 1.388 . S
N834 Co817 1.993 . S
N834 N833 1.388 . S
N834 C835 1.346 . S
C835 N834 1.346 . S
C835 C836 1.396 . S
C835 C845 1.510 . S
C836 C832 1.401 1_556 S
C836 C835 1.396 . S
C837 C832 1.499 . S
C837 H838 0.959 . S
C837 H839 0.960 . S
C837 H840 0.961 . S
H838 C837 0.959 . S
H839 C837 0.960 . S
H840 C837 0.961 . S
O841 Co816 1.967 . S
O841 C849 1.258 . S
O842 Co817 1.941 . S
O842 C849 1.266 . S
H843 C845 0.959 . S
H844 C845 0.961 . S
C845 C835 1.510 . S
C845 H843 0.959 . S
C845 H844 0.961 . S
C845 H846 0.960 . S
H846 C845 0.960 . S
H847 N827 0.862 . S
O848 Co816 1.920 1_554 S
O848 C821 1.289 . S
C849 O841 1.258 . S
C849 O842 1.266 . S
Co850 O853 1.970 . S
Co850 N867 1.989 . S
Co850 O875 1.967 . S
Co850 O882 1.920 1_556 S
Co851 O854 1.966 . S
Co851 N860 2.022 . S
Co851 N868 1.993 . S
Co851 O876 1.941 . S
C852 O853 1.258 . S
C852 O854 1.263 . S
O853 Co850 1.970 . S
O853 C852 1.258 . S
O854 Co851 1.966 . S
O854 C852 1.263 . S
C855 O856 1.235 . S
C855 O882 1.289 . S
O856 C855 1.235 . S
C857 C859 1.400 . S
C857 N860 1.351 . S
C857 C862 1.501 . S
C858 C859 1.387 . S
C858 N861 1.341 . S
C859 C857 1.400 . S
C859 C858 1.387 . S
N860 Co851 2.022 . S
N860 C857 1.351 . S
N860 N861 1.365 . S
N861 C858 1.341 . S
N861 N860 1.365 . S
N861 H881 0.862 . S
C862 C857 1.501 . S
C862 H863 0.961 . S
C862 H864 0.961 . S
C862 H865 0.960 . S
H863 C862 0.961 . S
H864 C862 0.961 . S
H865 C862 0.960 . S
C866 N867 1.342 1_554 S
C866 C870 1.401 1_554 S
C866 C871 1.499 . S
N867 Co850 1.989 . S
N867 C866 1.342 1_556 S
N867 N868 1.388 . S
N868 Co851 1.993 . S
N868 N867 1.388 . S
N868 C869 1.346 . S
C869 N868 1.346 . S
C869 C870 1.396 . S
C869 C879 1.510 . S
C870 C866 1.401 1_556 S
C870 C869 1.396 . S
C871 C866 1.499 . S
C871 H872 0.959 . S
C871 H873 0.960 . S
C871 H874 0.961 . S
H872 C871 0.959 . S
H873 C871 0.960 . S
H874 C871 0.961 . S
O875 Co850 1.967 . S
O875 C883 1.258 . S
O876 Co851 1.941 . S
O876 C883 1.266 . S
H877 C879 0.959 . S
H878 C879 0.961 . S
C879 C869 1.510 . S
C879 H877 0.959 . S
C879 H878 0.961 . S
C879 H880 0.960 . S
H880 C879 0.960 . S
H881 N861 0.862 . S
O882 Co850 1.920 1_554 S
O882 C855 1.289 . S
C883 O875 1.258 . S
C883 O876 1.266 . S
Co884 O887 1.970 . S
Co884 N901 1.989 . S
Co884 O909 1.967 . S
Co884 O916 1.920 1_556 S
Co885 O888 1.966 . S
Co885 N894 2.022 . S
Co885 N902 1.993 . S
Co885 O910 1.941 . S
C886 O887 1.258 . S
C886 O888 1.263 . S
O887 Co884 1.970 . S
O887 C886 1.258 . S
O888 Co885 1.966 . S
O888 C886 1.263 . S
C889 O890 1.235 . S
C889 O916 1.289 . S
O890 C889 1.235 . S
C891 C893 1.400 . S
C891 N894 1.351 . S
C891 C896 1.501 . S
C892 C893 1.387 . S
C892 N895 1.341 . S
C893 C891 1.400 . S
C893 C892 1.387 . S
N894 Co885 2.022 . S
N894 C891 1.351 . S
N894 N895 1.365 . S
N895 C892 1.341 . S
N895 N894 1.365 . S
N895 H915 0.862 . S
C896 C891 1.501 . S
C896 H897 0.961 . S
C896 H898 0.961 . S
C896 H899 0.960 . S
H897 C896 0.961 . S
H898 C896 0.961 . S
H899 C896 0.960 . S
C900 N901 1.342 1_554 S
C900 C904 1.401 1_554 S
C900 C905 1.499 . S
N901 Co884 1.989 . S
N901 C900 1.342 1_556 S
N901 N902 1.388 . S
N902 Co885 1.993 . S
N902 N901 1.388 . S
N902 C903 1.346 . S
C903 N902 1.346 . S
C903 C904 1.396 . S
C903 C913 1.510 . S
C904 C900 1.401 1_556 S
C904 C903 1.396 . S
C905 C900 1.499 . S
C905 H906 0.959 . S
C905 H907 0.960 . S
C905 H908 0.961 . S
H906 C905 0.959 . S
H907 C905 0.960 . S
H908 C905 0.961 . S
O909 Co884 1.967 . S
O909 C917 1.258 . S
O910 Co885 1.941 . S
O910 C917 1.266 . S
H911 C913 0.959 . S
H912 C913 0.961 . S
C913 C903 1.510 . S
C913 H911 0.959 . S
C913 H912 0.961 . S
C913 H914 0.960 . S
H914 C913 0.960 . S
H915 N895 0.862 . S
O916 Co884 1.920 1_554 S
O916 C889 1.289 . S
C917 O909 1.258 . S
C917 O910 1.266 . S
Co918 O921 1.970 . S
Co918 N935 1.989 . S
Co918 O943 1.967 . S
Co918 O950 1.920 1_554 S
Co919 O922 1.966 . S
Co919 N928 2.022 . S
Co919 N936 1.993 . S
Co919 O944 1.941 . S
C920 O921 1.258 . S
C920 O922 1.263 . S
O921 Co918 1.970 . S
O921 C920 1.258 . S
O922 Co919 1.966 . S
O922 C920 1.263 . S
C923 O924 1.235 . S
C923 O950 1.289 . S
O924 C923 1.235 . S
C925 C927 1.400 . S
C925 N928 1.351 . S
C925 C930 1.501 . S
C926 C927 1.387 . S
C926 N929 1.341 . S
C927 C925 1.400 . S
C927 C926 1.387 . S
N928 Co919 2.022 . S
N928 C925 1.351 . S
N928 N929 1.365 . S
N929 C926 1.341 . S
N929 N928 1.365 . S
N929 H949 0.862 . S
C930 C925 1.501 . S
C930 H931 0.961 . S
C930 H932 0.961 . S
C930 H933 0.960 . S
H931 C930 0.961 . S
H932 C930 0.961 . S
H933 C930 0.960 . S
C934 N935 1.342 1_556 S
C934 C938 1.401 1_556 S
C934 C939 1.499 . S
N935 Co918 1.989 . S
N935 C934 1.342 1_554 S
N935 N936 1.388 . S
N936 Co919 1.993 . S
N936 N935 1.388 . S
N936 C937 1.346 . S
C937 N936 1.346 . S
C937 C938 1.396 . S
C937 C947 1.510 . S
C938 C934 1.401 1_554 S
C938 C937 1.396 . S
C939 C934 1.499 . S
C939 H940 0.959 . S
C939 H941 0.960 . S
C939 H942 0.961 . S
H940 C939 0.959 . S
H941 C939 0.960 . S
H942 C939 0.961 . S
O943 Co918 1.967 . S
O943 C951 1.258 . S
O944 Co919 1.941 . S
O944 C951 1.266 . S
H945 C947 0.959 . S
H946 C947 0.961 . S
C947 C937 1.510 . S
C947 H945 0.959 . S
C947 H946 0.961 . S
C947 H948 0.960 . S
H948 C947 0.960 . S
H949 N929 0.862 . S
O950 Co918 1.920 1_556 S
O950 C923 1.289 . S
C951 O943 1.258 . S
C951 O944 1.266 . S
Co952 O955 1.970 . S
Co952 N969 1.989 . S
Co952 O977 1.967 . S
Co952 O984 1.920 1_554 S
Co953 O956 1.966 . S
Co953 N962 2.022 . S
Co953 N970 1.993 . S
Co953 O978 1.941 . S
C954 O955 1.258 . S
C954 O956 1.263 . S
O955 Co952 1.970 . S
O955 C954 1.258 . S
O956 Co953 1.966 . S
O956 C954 1.263 . S
C957 O958 1.235 . S
C957 O984 1.289 . S
O958 C957 1.235 . S
C959 C961 1.400 . S
C959 N962 1.351 . S
C959 C964 1.501 . S
C960 C961 1.387 . S
C960 N963 1.341 . S
C961 C959 1.400 . S
C961 C960 1.387 . S
N962 Co953 2.022 . S
N962 C959 1.351 . S
N962 N963 1.365 . S
N963 C960 1.341 . S
N963 N962 1.365 . S
N963 H983 0.862 . S
C964 C959 1.501 . S
C964 H965 0.961 . S
C964 H966 0.961 . S
C964 H967 0.960 . S
H965 C964 0.961 . S
H966 C964 0.961 . S
H967 C964 0.960 . S
C968 N969 1.342 1_556 S
C968 C972 1.401 1_556 S
C968 C973 1.499 . S
N969 Co952 1.989 . S
N969 C968 1.342 1_554 S
N969 N970 1.388 . S
N970 Co953 1.993 . S
N970 N969 1.388 . S
N970 C971 1.346 . S
C971 N970 1.346 . S
C971 C972 1.396 . S
C971 C981 1.510 . S
C972 C968 1.401 1_554 S
C972 C971 1.396 . S
C973 C968 1.499 . S
C973 H974 0.959 . S
C973 H975 0.960 . S
C973 H976 0.961 . S
H974 C973 0.959 . S
H975 C973 0.960 . S
H976 C973 0.961 . S
O977 Co952 1.967 . S
O977 C985 1.258 . S
O978 Co953 1.941 . S
O978 C985 1.266 . S
H979 C981 0.959 . S
H980 C981 0.961 . S
C981 C971 1.510 . S
C981 H979 0.959 . S
C981 H980 0.961 . S
C981 H982 0.960 . S
H982 C981 0.960 . S
H983 N963 0.862 . S
O984 Co952 1.920 1_556 S
O984 C957 1.289 . S
C985 O977 1.258 . S
C985 O978 1.266 . S
Co986 O989 1.970 . S
Co986 N1003 1.989 . S
Co986 O1011 1.967 . S
Co986 O1018 1.920 1_554 S
Co987 O990 1.966 . S
Co987 N996 2.022 . S
Co987 N1004 1.993 . S
Co987 O1012 1.941 . S
C988 O989 1.258 . S
C988 O990 1.263 . S
O989 Co986 1.970 . S
O989 C988 1.258 . S
O990 Co987 1.966 . S
O990 C988 1.263 . S
C991 O992 1.235 . S
C991 O1018 1.289 . S
O992 C991 1.235 . S
C993 C995 1.400 . S
C993 N996 1.351 . S
C993 C998 1.501 . S
C994 C995 1.387 . S
C994 N997 1.341 . S
C995 C993 1.400 . S
C995 C994 1.387 . S
N996 Co987 2.022 . S
N996 C993 1.351 . S
N996 N997 1.365 . S
N997 C994 1.341 . S
N997 N996 1.365 . S
N997 H1017 0.862 . S
C998 C993 1.501 . S
C998 H999 0.961 . S
C998 H1000 0.961 . S
C998 H1001 0.960 . S
H999 C998 0.961 . S
H1000 C998 0.961 . S
H1001 C998 0.960 . S
C1002 N1003 1.342 1_556 S
C1002 C1006 1.401 1_556 S
C1002 C1007 1.499 . S
N1003 Co986 1.989 . S
N1003 C1002 1.342 1_554 S
N1003 N1004 1.388 . S
N1004 Co987 1.993 . S
N1004 N1003 1.388 . S
N1004 C1005 1.346 . S
C1005 N1004 1.346 . S
C1005 C1006 1.396 . S
C1005 C1015 1.510 . S
C1006 C1002 1.401 1_554 S
C1006 C1005 1.396 . S
C1007 C1002 1.499 . S
C1007 H1008 0.959 . S
C1007 H1009 0.960 . S
C1007 H1010 0.961 . S
H1008 C1007 0.959 . S
H1009 C1007 0.960 . S
H1010 C1007 0.961 . S
O1011 Co986 1.967 . S
O1011 C1019 1.258 . S
O1012 Co987 1.941 . S
O1012 C1019 1.266 . S
H1013 C1015 0.959 . S
H1014 C1015 0.961 . S
C1015 C1005 1.510 . S
C1015 H1013 0.959 . S
C1015 H1014 0.961 . S
C1015 H1016 0.960 . S
H1016 C1015 0.960 . S
H1017 N997 0.862 . S
O1018 Co986 1.920 1_556 S
O1018 C991 1.289 . S
C1019 O1011 1.258 . S
C1019 O1012 1.266 . S
Co1020 O1023 1.970 . S
Co1020 N1037 1.989 . S
Co1020 O1045 1.967 . S
Co1020 O1052 1.920 . S
Co1021 O1024 1.966 . S
Co1021 N1030 2.022 . S
Co1021 N1038 1.993 . S
Co1021 O1046 1.941 . S
C1022 O1023 1.258 . S
C1022 O1024 1.263 . S
O1023 Co1020 1.970 . S
O1023 C1022 1.258 . S
O1024 Co1021 1.966 . S
O1024 C1022 1.263 . S
C1025 O1026 1.235 . S
C1025 O1052 1.289 . S
O1026 C1025 1.235 . S
C1027 C1029 1.400 1_556 S
C1027 N1030 1.351 . S
C1027 C1032 1.501 1_556 S
C1028 C1029 1.387 1_556 S
C1028 N1031 1.341 . S
C1029 C1027 1.400 1_554 S
C1029 C1028 1.387 1_554 S
N1030 Co1021 2.022 . S
N1030 C1027 1.351 . S
N1030 N1031 1.365 . S
N1031 C1028 1.341 . S
N1031 N1030 1.365 . S
N1031 H1051 0.862 . S
C1032 C1027 1.501 1_554 S
C1032 H1033 0.961 1_554 S
C1032 H1034 0.961 1_554 S
C1032 H1035 0.960 . S
H1033 C1032 0.961 1_556 S
H1034 C1032 0.961 1_556 S
H1035 C1032 0.960 . S
C1036 N1037 1.342 . S
C1036 C1040 1.401 . S
C1036 C1041 1.499 . S
N1037 Co1020 1.989 . S
N1037 C1036 1.342 . S
N1037 N1038 1.388 . S
N1038 Co1021 1.993 . S
N1038 N1037 1.388 . S
N1038 C1039 1.346 . S
C1039 N1038 1.346 . S
C1039 C1040 1.396 . S
C1039 C1049 1.510 . S
C1040 C1036 1.401 . S
C1040 C1039 1.396 . S
C1041 C1036 1.499 . S
C1041 H1042 0.959 . S
C1041 H1043 0.960 . S
C1041 H1044 0.961 . S
H1042 C1041 0.959 . S
H1043 C1041 0.960 . S
H1044 C1041 0.961 . S
O1045 Co1020 1.967 . S
O1045 C1053 1.258 . S
O1046 Co1021 1.941 . S
O1046 C1053 1.266 . S
H1047 C1049 0.959 . S
H1048 C1049 0.961 . S
C1049 C1039 1.510 . S
C1049 H1047 0.959 . S
C1049 H1048 0.961 . S
C1049 H1050 0.960 . S
H1050 C1049 0.960 . S
H1051 N1031 0.862 . S
O1052 Co1020 1.920 . S
O1052 C1025 1.289 . S
C1053 O1045 1.258 . S
C1053 O1046 1.266 . S
Co1054 O1057 1.970 . S
Co1054 N1071 1.989 . S
Co1054 O1079 1.967 . S
Co1054 O1086 1.920 . S
Co1055 O1058 1.966 . S
Co1055 N1064 2.022 . S
Co1055 N1072 1.993 . S
Co1055 O1080 1.941 . S
C1056 O1057 1.258 . S
C1056 O1058 1.263 . S
O1057 Co1054 1.970 . S
O1057 C1056 1.258 . S
O1058 Co1055 1.966 . S
O1058 C1056 1.263 . S
C1059 O1060 1.235 . S
C1059 O1086 1.289 . S
O1060 C1059 1.235 . S
C1061 C1063 1.400 1_556 S
C1061 N1064 1.351 . S
C1061 C1066 1.501 1_556 S
C1062 C1063 1.387 1_556 S
C1062 N1065 1.341 . S
C1063 C1061 1.400 1_554 S
C1063 C1062 1.387 1_554 S
N1064 Co1055 2.022 . S
N1064 C1061 1.351 . S
N1064 N1065 1.365 . S
N1065 C1062 1.341 . S
N1065 N1064 1.365 . S
N1065 H1085 0.862 . S
C1066 C1061 1.501 1_554 S
C1066 H1067 0.961 1_554 S
C1066 H1068 0.961 1_554 S
C1066 H1069 0.960 . S
H1067 C1066 0.961 1_556 S
H1068 C1066 0.961 1_556 S
H1069 C1066 0.960 . S
C1070 N1071 1.342 . S
C1070 C1074 1.401 . S
C1070 C1075 1.499 . S
N1071 Co1054 1.989 . S
N1071 C1070 1.342 . S
N1071 N1072 1.388 . S
N1072 Co1055 1.993 . S
N1072 N1071 1.388 . S
N1072 C1073 1.346 . S
C1073 N1072 1.346 . S
C1073 C1074 1.396 . S
C1073 C1083 1.510 . S
C1074 C1070 1.401 . S
C1074 C1073 1.396 . S
C1075 C1070 1.499 . S
C1075 H1076 0.959 . S
C1075 H1077 0.960 . S
C1075 H1078 0.961 . S
H1076 C1075 0.959 . S
H1077 C1075 0.960 . S
H1078 C1075 0.961 . S
O1079 Co1054 1.967 . S
O1079 C1087 1.258 . S
O1080 Co1055 1.941 . S
O1080 C1087 1.266 . S
H1081 C1083 0.959 . S
H1082 C1083 0.961 . S
C1083 C1073 1.510 . S
C1083 H1081 0.959 . S
C1083 H1082 0.961 . S
C1083 H1084 0.960 . S
H1084 C1083 0.960 . S
H1085 N1065 0.862 . S
O1086 Co1054 1.920 . S
O1086 C1059 1.289 . S
C1087 O1079 1.258 . S
C1087 O1080 1.266 . S
Co1088 O1091 1.970 . S
Co1088 N1105 1.989 . S
Co1088 O1113 1.967 . S
Co1088 O1120 1.920 . S
Co1089 O1092 1.966 . S
Co1089 N1098 2.022 . S
Co1089 N1106 1.993 . S
Co1089 O1114 1.941 . S
C1090 O1091 1.258 . S
C1090 O1092 1.263 . S
O1091 Co1088 1.970 . S
O1091 C1090 1.258 . S
O1092 Co1089 1.966 . S
O1092 C1090 1.263 . S
C1093 O1094 1.235 . S
C1093 O1120 1.289 . S
O1094 C1093 1.235 . S
C1095 C1097 1.400 1_556 S
C1095 N1098 1.351 . S
C1095 C1100 1.501 1_556 S
C1096 C1097 1.387 1_556 S
C1096 N1099 1.341 . S
C1097 C1095 1.400 1_554 S
C1097 C1096 1.387 1_554 S
N1098 Co1089 2.022 . S
N1098 C1095 1.351 . S
N1098 N1099 1.365 . S
N1099 C1096 1.341 . S
N1099 N1098 1.365 . S
N1099 H1119 0.862 . S
C1100 C1095 1.501 1_554 S
C1100 H1101 0.961 1_554 S
C1100 H1102 0.961 1_554 S
C1100 H1103 0.960 . S
H1101 C1100 0.961 1_556 S
H1102 C1100 0.961 1_556 S
H1103 C1100 0.960 . S
C1104 N1105 1.342 . S
C1104 C1108 1.401 . S
C1104 C1109 1.499 . S
N1105 Co1088 1.989 . S
N1105 C1104 1.342 . S
N1105 N1106 1.388 . S
N1106 Co1089 1.993 . S
N1106 N1105 1.388 . S
N1106 C1107 1.346 . S
C1107 N1106 1.346 . S
C1107 C1108 1.396 . S
C1107 C1117 1.510 . S
C1108 C1104 1.401 . S
C1108 C1107 1.396 . S
C1109 C1104 1.499 . S
C1109 H1110 0.959 . S
C1109 H1111 0.960 . S
C1109 H1112 0.961 . S
H1110 C1109 0.959 . S
H1111 C1109 0.960 . S
H1112 C1109 0.961 . S
O1113 Co1088 1.967 . S
O1113 C1121 1.258 . S
O1114 Co1089 1.941 . S
O1114 C1121 1.266 . S
H1115 C1117 0.959 . S
H1116 C1117 0.961 . S
C1117 C1107 1.510 . S
C1117 H1115 0.959 . S
C1117 H1116 0.961 . S
C1117 H1118 0.960 . S
H1118 C1117 0.960 . S
H1119 N1099 0.862 . S
O1120 Co1088 1.920 . S
O1120 C1093 1.289 . S
C1121 O1113 1.258 . S
C1121 O1114 1.266 . S
Co1122 O1125 1.970 . S
Co1122 N1139 1.989 . S
Co1122 O1147 1.967 . S
Co1122 O1154 1.920 . S
Co1123 O1126 1.966 . S
Co1123 N1132 2.022 . S
Co1123 N1140 1.993 . S
Co1123 O1148 1.941 . S
C1124 O1125 1.258 . S
C1124 O1126 1.263 . S
O1125 Co1122 1.970 . S
O1125 C1124 1.258 . S
O1126 Co1123 1.966 . S
O1126 C1124 1.263 . S
C1127 O1128 1.235 . S
C1127 O1154 1.289 . S
O1128 C1127 1.235 . S
C1129 C1131 1.400 1_554 S
C1129 N1132 1.351 . S
C1129 C1134 1.501 1_554 S
C1130 C1131 1.387 1_554 S
C1130 N1133 1.341 . S
C1131 C1129 1.400 1_556 S
C1131 C1130 1.387 1_556 S
N1132 Co1123 2.022 . S
N1132 C1129 1.351 . S
N1132 N1133 1.365 . S
N1133 C1130 1.341 . S
N1133 N1132 1.365 . S
N1133 H1153 0.862 . S
C1134 C1129 1.501 1_556 S
C1134 H1135 0.961 1_556 S
C1134 H1136 0.961 1_556 S
C1134 H1137 0.960 . S
H1135 C1134 0.961 1_554 S
H1136 C1134 0.961 1_554 S
H1137 C1134 0.960 . S
C1138 N1139 1.342 . S
C1138 C1142 1.401 . S
C1138 C1143 1.499 . S
N1139 Co1122 1.989 . S
N1139 C1138 1.342 . S
N1139 N1140 1.388 . S
N1140 Co1123 1.993 . S
N1140 N1139 1.388 . S
N1140 C1141 1.346 . S
C1141 N1140 1.346 . S
C1141 C1142 1.396 . S
C1141 C1151 1.510 . S
C1142 C1138 1.401 . S
C1142 C1141 1.396 . S
C1143 C1138 1.499 . S
C1143 H1144 0.959 . S
C1143 H1145 0.960 . S
C1143 H1146 0.961 . S
H1144 C1143 0.959 . S
H1145 C1143 0.960 . S
H1146 C1143 0.961 . S
O1147 Co1122 1.967 . S
O1147 C1155 1.258 . S
O1148 Co1123 1.941 . S
O1148 C1155 1.266 . S
H1149 C1151 0.959 . S
H1150 C1151 0.961 . S
C1151 C1141 1.510 . S
C1151 H1149 0.959 . S
C1151 H1150 0.961 . S
C1151 H1152 0.960 . S
H1152 C1151 0.960 . S
H1153 N1133 0.862 . S
O1154 Co1122 1.920 . S
O1154 C1127 1.289 . S
C1155 O1147 1.258 . S
C1155 O1148 1.266 . S
Co1156 O1159 1.970 . S
Co1156 N1173 1.989 . S
Co1156 O1181 1.967 . S
Co1156 O1188 1.920 . S
Co1157 O1160 1.966 . S
Co1157 N1166 2.022 . S
Co1157 N1174 1.993 . S
Co1157 O1182 1.941 . S
C1158 O1159 1.258 . S
C1158 O1160 1.263 . S
O1159 Co1156 1.970 . S
O1159 C1158 1.258 . S
O1160 Co1157 1.966 . S
O1160 C1158 1.263 . S
C1161 O1162 1.235 . S
C1161 O1188 1.289 . S
O1162 C1161 1.235 . S
C1163 C1165 1.400 1_554 S
C1163 N1166 1.351 . S
C1163 C1168 1.501 1_554 S
C1164 C1165 1.387 1_554 S
C1164 N1167 1.341 . S
C1165 C1163 1.400 1_556 S
C1165 C1164 1.387 1_556 S
N1166 Co1157 2.022 . S
N1166 C1163 1.351 . S
N1166 N1167 1.365 . S
N1167 C1164 1.341 . S
N1167 N1166 1.365 . S
N1167 H1187 0.862 . S
C1168 C1163 1.501 1_556 S
C1168 H1169 0.961 1_556 S
C1168 H1170 0.961 1_556 S
C1168 H1171 0.960 . S
H1169 C1168 0.961 1_554 S
H1170 C1168 0.961 1_554 S
H1171 C1168 0.960 . S
C1172 N1173 1.342 . S
C1172 C1176 1.401 . S
C1172 C1177 1.499 . S
N1173 Co1156 1.989 . S
N1173 C1172 1.342 . S
N1173 N1174 1.388 . S
N1174 Co1157 1.993 . S
N1174 N1173 1.388 . S
N1174 C1175 1.346 . S
C1175 N1174 1.346 . S
C1175 C1176 1.396 . S
C1175 C1185 1.510 . S
C1176 C1172 1.401 . S
C1176 C1175 1.396 . S
C1177 C1172 1.499 . S
C1177 H1178 0.959 . S
C1177 H1179 0.960 . S
C1177 H1180 0.961 . S
H1178 C1177 0.959 . S
H1179 C1177 0.960 . S
H1180 C1177 0.961 . S
O1181 Co1156 1.967 . S
O1181 C1189 1.258 . S
O1182 Co1157 1.941 . S
O1182 C1189 1.266 . S
H1183 C1185 0.959 . S
H1184 C1185 0.961 . S
C1185 C1175 1.510 . S
C1185 H1183 0.959 . S
C1185 H1184 0.961 . S
C1185 H1186 0.960 . S
H1186 C1185 0.960 . S
H1187 N1167 0.862 . S
O1188 Co1156 1.920 . S
O1188 C1161 1.289 . S
C1189 O1181 1.258 . S
C1189 O1182 1.266 . S
Co1190 O1193 1.970 . S
Co1190 N1207 1.989 . S
Co1190 O1215 1.967 . S
Co1190 O1222 1.920 . S
Co1191 O1194 1.966 . S
Co1191 N1200 2.022 . S
Co1191 N1208 1.993 . S
Co1191 O1216 1.941 . S
C1192 O1193 1.258 . S
C1192 O1194 1.263 . S
O1193 Co1190 1.970 . S
O1193 C1192 1.258 . S
O1194 Co1191 1.966 . S
O1194 C1192 1.263 . S
C1195 O1196 1.235 . S
C1195 O1222 1.289 . S
O1196 C1195 1.235 . S
C1197 C1199 1.400 1_554 S
C1197 N1200 1.351 . S
C1197 C1202 1.501 1_554 S
C1198 C1199 1.387 1_554 S
C1198 N1201 1.341 . S
C1199 C1197 1.400 1_556 S
C1199 C1198 1.387 1_556 S
N1200 Co1191 2.022 . S
N1200 C1197 1.351 . S
N1200 N1201 1.365 . S
N1201 C1198 1.341 . S
N1201 N1200 1.365 . S
N1201 H1221 0.862 . S
C1202 C1197 1.501 1_556 S
C1202 H1203 0.961 1_556 S
C1202 H1204 0.961 1_556 S
C1202 H1205 0.960 . S
H1203 C1202 0.961 1_554 S
H1204 C1202 0.961 1_554 S
H1205 C1202 0.960 . S
C1206 N1207 1.342 . S
C1206 C1210 1.401 . S
C1206 C1211 1.499 . S
N1207 Co1190 1.989 . S
N1207 C1206 1.342 . S
N1207 N1208 1.388 . S
N1208 Co1191 1.993 . S
N1208 N1207 1.388 . S
N1208 C1209 1.346 . S
C1209 N1208 1.346 . S
C1209 C1210 1.396 . S
C1209 C1219 1.510 . S
C1210 C1206 1.401 . S
C1210 C1209 1.396 . S
C1211 C1206 1.499 . S
C1211 H1212 0.959 . S
C1211 H1213 0.960 . S
C1211 H1214 0.961 . S
H1212 C1211 0.959 . S
H1213 C1211 0.960 . S
H1214 C1211 0.961 . S
O1215 Co1190 1.967 . S
O1215 C1223 1.258 . S
O1216 Co1191 1.941 . S
O1216 C1223 1.266 . S
H1217 C1219 0.959 . S
H1218 C1219 0.961 . S
C1219 C1209 1.510 . S
C1219 H1217 0.959 . S
C1219 H1218 0.961 . S
C1219 H1220 0.960 . S
H1220 C1219 0.960 . S
H1221 N1201 0.862 . S
O1222 Co1190 1.920 . S
O1222 C1195 1.289 . S
C1223 O1215 1.258 . S
C1223 O1216 1.266 . S
C345 C2 1.891 1_556 S
C379 C36 1.891 1_556 S
C311 C70 1.891 1_556 S
C277 C104 1.891 . S
C209 C138 1.891 . S
C243 C172 1.891 . S
C141 C206 1.891 . S
C240 C175 1.891 . S
C107 C274 1.891 . S
C73 C308 1.891 . S
C342 C5 1.891 . S
C39 C376 1.891 . S
C753 C410 1.891 . S
C444 C787 1.891 . S
C719 C478 1.891 . S
C685 C512 1.891 1_554 S
C617 C546 1.891 1_554 S
C580 C651 1.891 1_556 S
C614 C549 1.891 . S
C583 C648 1.891 . S
C515 C682 1.891 . S
C716 C481 1.891 . S
C750 C413 1.891 . S
C447 C784 1.891 . S
C818 C1161 1.891 . S
C852 C1195 1.891 . S
C886 C1127 1.891 . S
C920 C1093 1.891 . S
C1025 C954 1.891 . S
C1059 C988 1.891 . S
C1022 C957 1.891 . S
C991 C1056 1.891 . S
C923 C1090 1.891 . S
C1124 C889 1.891 . S
C1158 C821 1.891 . S
C855 C1192 1.891 . S
C122 C20 2.721 . S
C54 C156 2.722 1_545 S
C88 C190 2.721 1_655 S
C326 C224 2.721 . S
C258 C360 2.722 1_565 S
C394 C292 2.721 1_655 S
C428 C530 2.721 . S
C564 C462 2.722 . S
C496 C598 2.722 . S
C632 C734 2.721 . S
C768 C666 2.722 . S
C802 C700 2.721 . S
C836 C938 2.721 1_556 S
C972 C870 2.722 1_554 S
C904 C1006 2.722 1_556 S
C1040 C1142 2.722 . S
C1074 C1176 2.722 . S
C1210 C1108 2.721 . S
C111 C9 0.120 . S
C43 C145 0.119 1_545 S
C179 C77 0.119 1_455 S
C315 C213 0.120 . S
C349 C247 0.119 1_545 S
C383 C281 0.119 1_655 S
C417 C519 0.120 . S
C451 C553 0.120 . S
C587 C485 0.120 . S
C621 C723 0.120 . S
C757 C655 0.120 . S
C791 C689 0.120 . S
C825 C927 0.120 . S
C859 C961 0.120 . S
C995 C893 0.120 . S
C1131 C1029 0.120 1_556 S
C1165 C1063 0.120 1_556 S
C1199 C1097 0.120 1_556 S
C33 C577 2.571 1_554 S
C67 C611 2.571 1_554 S
C543 C101 2.571 1_556 S
C917 C135 2.572 . S
C169 C849 2.571 . S
C203 C883 2.571 . S
C1189 C237 2.572 . S
C1223 C271 2.571 . S
C305 C1155 2.571 . S
C713 C339 2.571 . S
C373 C645 2.571 . S
C679 C407 2.571 . S
C985 C441 2.572 1_455 S
C1019 C475 2.571 . S
C509 C951 2.571 1_545 S
C1121 C747 2.571 1_565 S
C781 C1053 2.572 1_655 S
C815 C1087 2.571 . S
