# Generated by pormake.
# Topology unf, (4)-cn, num edge types: 1
# Building blocks:
#     Node 0, Type 0, BuildingBlock: CEKHIL_clean_sbu_0, # of connection points: 4
#     Node 1, Type 0, BuildingBlock: CEKHIL_clean_sbu_0, # of connection points: 4
#     Node 2, Type 0, BuildingBlock: CEKHIL_clean_sbu_0, # of connection points: 4
#     Node 3, Type 0, BuildingBlock: CEKHIL_clean_sbu_0, # of connection points: 4
#     Node 4, Type 0, BuildingBlock: CEKHIL_clean_sbu_0, # of connection points: 4
#     Node 5, Type 0, BuildingBlock: CEKHIL_clean_sbu_0, # of connection points: 4
#     Node 6, Type 0, BuildingBlock: CEKHIL_clean_sbu_0, # of connection points: 4
#     Node 7, Type 0, BuildingBlock: CEKHIL_clean_sbu_0, # of connection points: 4
#     Node 8, Type 0, BuildingBlock: CEKHIL_clean_sbu_0, # of connection points: 4
#     Node 9, Type 0, BuildingBlock: CEKHIL_clean_sbu_0, # of connection points: 4
#     Node 10, Type 0, BuildingBlock: CEKHIL_clean_sbu_0, # of connection points: 4
#     Node 11, Type 0, BuildingBlock: CEKHIL_clean_sbu_0, # of connection points: 4
#     Edge 12, Type (0, 0), BuildingBlock: MIFKUJ_clean_linker_0, # of connection points: 2
#     Edge 13, Type (0, 0), BuildingBlock: MIFKUJ_clean_linker_0, # of connection points: 2
#     Edge 14, Type (0, 0), BuildingBlock: MIFKUJ_clean_linker_0, # of connection points: 2
#     Edge 15, Type (0, 0), BuildingBlock: MIFKUJ_clean_linker_0, # of connection points: 2
#     Edge 16, Type (0, 0), BuildingBlock: MIFKUJ_clean_linker_0, # of connection points: 2
#     Edge 17, Type (0, 0), BuildingBlock: MIFKUJ_clean_linker_0, # of connection points: 2
#     Edge 18, Type (0, 0), BuildingBlock: MIFKUJ_clean_linker_0, # of connection points: 2
#     Edge 19, Type (0, 0), BuildingBlock: MIFKUJ_clean_linker_0, # of connection points: 2
#     Edge 20, Type (0, 0), BuildingBlock: MIFKUJ_clean_linker_0, # of connection points: 2
#     Edge 21, Type (0, 0), BuildingBlock: MIFKUJ_clean_linker_0, # of connection points: 2
#     Edge 22, Type (0, 0), BuildingBlock: MIFKUJ_clean_linker_0, # of connection points: 2
#     Edge 23, Type (0, 0), BuildingBlock: MIFKUJ_clean_linker_0, # of connection points: 2
#     Edge 24, Type (0, 0), BuildingBlock: MIFKUJ_clean_linker_0, # of connection points: 2
#     Edge 25, Type (0, 0), BuildingBlock: MIFKUJ_clean_linker_0, # of connection points: 2
#     Edge 26, Type (0, 0), BuildingBlock: MIFKUJ_clean_linker_0, # of connection points: 2
#     Edge 27, Type (0, 0), BuildingBlock: MIFKUJ_clean_linker_0, # of connection points: 2
#     Edge 28, Type (0, 0), BuildingBlock: MIFKUJ_clean_linker_0, # of connection points: 2
#     Edge 29, Type (0, 0), BuildingBlock: MIFKUJ_clean_linker_0, # of connection points: 2
#     Edge 30, Type (0, 0), BuildingBlock: MIFKUJ_clean_linker_0, # of connection points: 2
#     Edge 31, Type (0, 0), BuildingBlock: MIFKUJ_clean_linker_0, # of connection points: 2
#     Edge 32, Type (0, 0), BuildingBlock: MIFKUJ_clean_linker_0, # of connection points: 2
#     Edge 33, Type (0, 0), BuildingBlock: MIFKUJ_clean_linker_0, # of connection points: 2
#     Edge 34, Type (0, 0), BuildingBlock: MIFKUJ_clean_linker_0, # of connection points: 2
#     Edge 35, Type (0, 0), BuildingBlock: MIFKUJ_clean_linker_0, # of connection points: 2
# Relax obj value: 0.234
# Max RMSD: 0.180
# Mean RMSD: 0.178
data_MOF--net-unf--node1-CEKHIL_clean_sbu_0--edge1-MIFKUJ_clean_linker_0
_symmetry_space_group_name_H-M    P1
_symmetry_Int_Tables_number       1
_symmetry_cell_setting            triclinic
loop_
_symmetry_equiv_pos_as_xyz
'x, y, z'
_cell_length_a     49.809728
_cell_length_b     49.273212
_cell_length_c     46.672031
_cell_angle_alpha  89.693243
_cell_angle_beta   90.599302
_cell_angle_gamma 120.35968
loop_
_atom_site_label
_atom_site_type_symbol
_atom_site_fract_x
_atom_site_fract_y
_atom_site_fract_z
_atom_type_partial_charge
Co0 Co 0.09017 0.39132 0.08213 0.0
O1 O 0.12015 0.41351 0.11196 0.0
O2 O 0.08798 0.3619 0.11081 0.0
C3 C 0.07096 0.42379 0.07856 0.0
O4 O 0.05541 0.36045 0.05574 0.0
Co5 Co 0.09559 0.42213 0.02256 0.0
O6 O 0.05186 0.38748 0.01833 0.0
C7 C 0.1362 0.39649 0.03657 0.0
C8 C 0.11021 0.38625 0.12394 0.0
C9 C 0.04116 0.36257 0.03342 0.0
O10 O 0.12195 0.386 0.06046 0.0
O11 O 0.13032 0.41292 0.01903 0.0
O12 O 0.06137 0.4027 0.09872 0.0
O13 O 0.094 0.42675 0.06363 0.0
Co14 Co 0.59559 0.69085 0.0904 0.0
O15 O 0.57589 0.69952 0.12124 0.0
O16 O 0.62538 0.71202 0.12088 0.0
C17 C 0.55841 0.64086 0.0819 0.0
O18 O 0.62365 0.68459 0.06316 0.0
Co19 Co 0.56561 0.67527 0.02923 0.0
O20 O 0.5993 0.66645 0.02063 0.0
C21 C 0.59899 0.74086 0.0494 0.0
C22 C 0.60283 0.71263 0.13409 0.0
C23 C 0.62213 0.67394 0.0377 0.0
O24 O 0.60741 0.73275 0.07249 0.0
O25 O 0.58087 0.72132 0.03047 0.0
O26 O 0.57812 0.64729 0.10289 0.0
O27 O 0.55941 0.66484 0.06956 0.0
Co28 Co 0.30555 0.89442 0.08366 0.0
O29 O 0.29614 0.86437 0.11404 0.0
O30 O 0.27789 0.89707 0.11036 0.0
C31 C 0.35731 0.91518 0.08182 0.0
O32 O 0.31041 0.92906 0.05686 0.0
Co33 Co 0.33175 0.88856 0.02541 0.0
O34 O 0.33531 0.92971 0.01672 0.0
C35 C 0.26515 0.84769 0.03702 0.0
C36 C 0.27868 0.87459 0.1243 0.0
C37 C 0.32297 0.94122 0.0327 0.0
O38 O 0.26876 0.86203 0.06091 0.0
O39 O 0.28769 0.85344 0.02039 0.0
O40 O 0.34513 0.92416 0.10146 0.0
O41 O 0.3378 0.8911 0.06675 0.0
Co42 Co 0.58899 0.89381 0.42069 0.0
O43 O 0.57093 0.86708 0.3878 0.0
O44 O 0.62142 0.89998 0.39478 0.0
C45 C 0.55592 0.91216 0.42305 0.0
O46 O 0.61625 0.92589 0.45073 0.0
Co47 Co 0.55281 0.88199 0.47758 0.0
O48 O 0.58668 0.92522 0.4871 0.0
C49 C 0.58065 0.84325 0.46361 0.0
C50 C 0.59927 0.87896 0.3787 0.0
C51 C 0.61245 0.93757 0.47387 0.0
O52 O 0.59296 0.85986 0.44104 0.0
O53 O 0.56244 0.84714 0.48004 0.0
O54 O 0.5787 0.92425 0.40491 0.0
O55 O 0.55188 0.88738 0.43646 0.0
Co56 Co 0.0844 0.68978 0.40968 0.0
O57 O 0.10864 0.69434 0.37645 0.0
O58 O 0.07734 0.71388 0.38098 0.0
C59 C 0.06608 0.63839 0.41731 0.0
O60 O 0.05456 0.68838 0.43994 0.0
Co61 Co 0.10095 0.67164 0.46848 0.0
O62 O 0.06092 0.6674 0.48062 0.0
C63 C 0.14024 0.73551 0.44588 0.0
C64 C 0.09709 0.71058 0.36551 0.0
C65 C 0.04643 0.67767 0.46554 0.0
O66 O 0.1199 0.72979 0.42607 0.0
O67 O 0.13829 0.71451 0.46338 0.0
O68 O 0.05285 0.64721 0.39818 0.0
O69 O 0.09157 0.66056 0.42839 0.0
Co70 Co 0.30705 0.40419 0.41784 0.0
O71 O 0.29591 0.42461 0.38877 0.0
O72 O 0.28076 0.37385 0.38938 0.0
C73 C 0.35811 0.43972 0.42079 0.0
O74 O 0.31491 0.37508 0.44316 0.0
Co75 Co 0.33161 0.43513 0.47741 0.0
O76 O 0.34328 0.40235 0.48147 0.0
C77 C 0.26456 0.40396 0.46495 0.0
C78 C 0.28009 0.39712 0.37679 0.0
C79 C 0.3313 0.37791 0.46566 0.0
O80 O 0.26915 0.39518 0.44049 0.0
O81 O 0.28652 0.42125 0.48247 0.0
O82 O 0.34747 0.41896 0.40033 0.0
O83 O 0.33728 0.44076 0.43628 0.0
Co84 Co 0.89955 0.5971 0.92222 0.0
O85 O 0.92144 0.57436 0.92084 0.0
O86 O 0.89807 0.57879 0.95924 0.0
C87 C 0.87246 0.57896 0.88131 0.0
O88 O 0.87403 0.61747 0.93148 0.0
Co89 Co 0.91105 0.64746 0.87629 0.0
O90 O 0.87426 0.6462 0.89381 0.0
C91 C 0.9582 0.6619 0.92106 0.0
C92 C 0.91471 0.56822 0.94778 0.0
C93 C 0.86421 0.63384 0.91831 0.0
O94 O 0.93912 0.63616 0.93379 0.0
O95 O 0.95254 0.6697 0.8965 0.0
O96 O 0.86262 0.56234 0.90461 0.0
O97 O 0.89966 0.60395 0.88275 0.0
Co98 Co 0.39953 0.30142 0.91747 0.0
O99 O 0.42275 0.29446 0.88879 0.0
O100 O 0.37248 0.27893 0.88568 0.0
C101 C 0.43423 0.35205 0.92654 0.0
O102 O 0.36824 0.30581 0.94174 0.0
Co103 Co 0.42419 0.31797 0.98022 0.0
O104 O 0.3896 0.32646 0.98469 0.0
C105 C 0.39604 0.25264 0.96015 0.0
C106 C 0.3968 0.2801 0.87437 0.0
C107 C 0.3677 0.31741 0.96623 0.0
O108 O 0.38856 0.26022 0.93624 0.0
O109 O 0.41202 0.27256 0.97974 0.0
O110 O 0.41581 0.34457 0.90435 0.0
O111 O 0.43353 0.32881 0.94013 0.0
Co112 Co 0.68661 0.09379 0.91274 0.0
O113 O 0.6423 0.07664 0.91169 0.0
O114 O 0.67314 0.10103 0.94892 0.0
C115 C 0.69883 0.11832 0.87031 0.0
O116 O 0.73274 0.1156 0.92162 0.0
Co117 Co 0.71904 0.07202 0.86973 0.0
O118 O 0.75815 0.10605 0.88715 0.0
C119 C 0.68428 0.03072 0.91764 0.0
C120 C 0.64517 0.0861 0.93811 0.0
C121 C 0.7579 0.12003 0.90994 0.0
O122 O 0.68042 0.05269 0.92776 0.0
O123 O 0.69698 0.03276 0.89342 0.0
O124 O 0.69395 0.13137 0.89227 0.0
O125 O 0.69187 0.08943 0.87368 0.0
Co126 Co 0.39559 0.08807 0.5874 0.0
O127 O 0.41594 0.06392 0.59182 0.0
O128 O 0.42233 0.09549 0.55522 0.0
C129 C 0.40272 0.10716 0.63215 0.0
O130 O 0.37967 0.11717 0.57562 0.0
Co131 Co 0.33581 0.07114 0.62141 0.0
O132 O 0.3417 0.11111 0.6052 0.0
C133 C 0.33223 0.03154 0.57293 0.0
C134 C 0.42864 0.07544 0.56717 0.0
C135 C 0.36033 0.12518 0.58461 0.0
O136 O 0.36037 0.05193 0.56638 0.0
O137 O 0.31893 0.03352 0.59551 0.0
O138 O 0.42503 0.1204 0.61357 0.0
O139 O 0.37871 0.08105 0.62413 0.0
Co140 Co 0.9009 0.29899 0.58249 0.0
O141 O 0.86878 0.29074 0.60932 0.0
O142 O 0.90557 0.27857 0.61612 0.0
C143 C 0.91389 0.34862 0.57209 0.0
O144 O 0.9385 0.30518 0.56007 0.0
Co145 Co 0.89398 0.3135 0.51871 0.0
O146 O 0.93834 0.3253 0.51672 0.0
C147 C 0.85653 0.24897 0.54081 0.0
C148 C 0.88098 0.27834 0.62565 0.0
C149 C 0.95149 0.31746 0.53598 0.0
O150 O 0.87306 0.25694 0.56392 0.0
O151 O 0.85941 0.26868 0.52138 0.0
O152 O 0.92521 0.34276 0.59499 0.0
O153 O 0.89302 0.32437 0.55829 0.0
Co154 Co 0.69402 0.59624 0.59106 0.0
O155 O 0.64944 0.57503 0.59252 0.0
O156 O 0.67659 0.5753 0.55503 0.0
C157 C 0.70213 0.58067 0.63395 0.0
O158 O 0.73984 0.61477 0.58201 0.0
Co159 Co 0.73405 0.64946 0.63441 0.0
O160 O 0.76882 0.64546 0.61863 0.0
C161 C 0.70111 0.66114 0.58775 0.0
C162 C 0.64961 0.56672 0.56619 0.0
C163 C 0.76613 0.63148 0.59494 0.0
O164 O 0.69485 0.63496 0.57623 0.0
O165 O 0.71415 0.67008 0.61241 0.0
O166 O 0.69474 0.56219 0.61185 0.0
O167 O 0.70101 0.60605 0.63007 0.0
H168 H 0.16885 0.37943 0.07238 0.0
H169 H 0.20754 0.36514 0.0592 0.0
H170 H 0.19555 0.38031 0.97005 0.0
H171 H 0.15714 0.39512 0.98301 0.0
H172 H 0.1938 0.32176 0.98302 0.0
H173 H 0.25692 0.43289 0.99851 0.0
H174 H 0.27633 0.48254 0.0251 0.0
H175 H 0.30761 0.44654 0.09365 0.0
H176 H 0.28794 0.39644 0.06763 0.0
H177 H 0.3279 0.32254 0.92888 0.0
H178 H 0.28667 0.33374 0.9405 0.0
H179 H 0.3059 0.33212 0.03065 0.0
H180 H 0.34737 0.32131 0.01921 0.0
H181 H 0.30352 0.38394 0.0164 0.0
H182 H 0.24092 0.27304 0.00117 0.0
H183 H 0.2212 0.223 0.97514 0.0
H184 H 0.18865 0.25783 0.90664 0.0
H185 H 0.20861 0.30829 0.93209 0.0
C186 C 0.17448 0.3798 0.04997 0.0
C187 C 0.16003 0.38849 0.02873 0.0
C188 C 0.1966 0.37169 0.04251 0.0
C189 C 0.20433 0.37176 0.0137 0.0
C190 C 0.1898 0.38014 0.9924 0.0
C191 C 0.16804 0.38876 -0.00013 0.0
C192 C 0.22762 0.36303 0.00589 0.0
C193 C 0.21792 0.33555 0.9899 0.0
C194 C 0.25881 0.38072 0.01553 0.0
C195 C 0.27062 0.41078 0.03127 0.0
C196 C 0.26764 0.43543 0.01939 0.0
C197 C 0.27876 0.46369 0.03433 0.0
C198 C 0.29311 0.46766 0.06109 0.0
C199 C 0.29644 0.44341 0.07294 0.0
C200 C 0.28533 0.41508 0.0581 0.0
C201 C 0.32303 0.32413 0.95118 0.0
C202 C 0.34095 0.32123 0.97314 0.0
C203 C 0.29948 0.33051 0.95778 0.0
C204 C 0.29323 0.33369 0.98643 0.0
C205 C 0.31045 0.32985 0.0084 0.0
C206 C 0.33409 0.32364 0.00182 0.0
C207 C 0.26978 0.34255 0.99351 0.0
C208 C 0.27944 0.37012 0.0094 0.0
C209 C 0.23856 0.32487 0.9838 0.0
C210 C 0.22658 0.29458 0.9684 0.0
C211 C 0.22983 0.27015 0.98043 0.0
C212 C 0.21855 0.24168 0.96581 0.0
C213 C 0.20376 0.23727 0.93922 0.0
C214 C 0.20016 0.2613 0.92722 0.0
C215 C 0.21144 0.28983 0.94174 0.0
H216 H 0.19503 0.21521 0.92794 0.0
H217 H 0.30172 0.48956 0.07262 0.0
H218 H 0.61743 0.76899 0.99797 0.0
H219 H 0.63698 0.8241 0.98616 0.0
H220 H 0.62879 0.84373 0.07456 0.0
H221 H 0.61002 0.78822 0.08687 0.0
H222 H 0.59678 0.86101 0.02494 0.0
H223 H 0.69382 0.8782 0.06066 0.0
H224 H 0.73644 0.86705 0.06749 0.0
H225 H 0.75478 0.87827 0.97722 0.0
H226 H 0.7119 0.88898 0.96975 0.0
H227 H 0.66185 0.01986 0.97243 0.0
H228 H 0.65042 0.97497 0.00311 0.0
H229 H 0.67477 0.93323 0.93475 0.0
H230 H 0.68682 0.9781 0.90394 0.0
H231 H 0.70193 0.93304 0.98636 0.0
H232 H 0.60175 0.90892 0.94955 0.0
H233 H 0.55603 0.91466 0.9408 0.0
H234 H 0.54045 0.91191 0.03133 0.0
H235 H 0.58678 0.90726 0.04072 0.0
C236 C 0.62001 0.78507 0.01495 0.0
C237 C 0.61206 0.77447 0.04325 0.0
C238 C 0.63131 0.81649 0.00821 0.0
C239 C 0.63435 0.83776 0.02953 0.0
C240 C 0.62669 0.82748 0.05795 0.0
C241 C 0.61606 0.79597 0.0649 0.0
C242 C 0.64355 0.87007 0.02091 0.0
C243 C 0.62 0.87744 0.01734 0.0
C244 C 0.67363 0.89066 0.01035 0.0
C245 C 0.69947 0.8842 0.01463 0.0
C246 C 0.70673 0.878 0.04221 0.0
C247 C 0.73099 0.87181 0.04621 0.0
C248 C 0.74827 0.8719 0.02279 0.0
C249 C 0.74136 0.87821 0.99533 0.0
C250 C 0.7171 0.88438 0.99122 0.0
C251 C 0.66457 0.00105 0.96377 0.0
C252 C 0.67523 0.0026 0.93563 0.0
C253 C 0.65795 0.97543 0.98137 0.0
C254 C 0.66154 0.95082 0.97112 0.0
C255 C 0.67192 0.95211 0.94305 0.0
C256 C 0.67865 0.97771 0.92543 0.0
C257 C 0.65489 0.92374 0.98963 0.0
C258 C 0.67894 0.91732 0.99483 0.0
C259 C 0.62512 0.9039 0.00151 0.0
C260 C 0.59818 0.90836 0.99587 0.0
C261 C 0.58901 0.91021 0.96765 0.0
C262 C 0.56287 0.91312 0.96256 0.0
C263 C 0.54535 0.91367 0.98549 0.0
C264 C 0.554 0.9114 0.01358 0.0
C265 C 0.58032 0.90884 0.0188 0.0
H266 H 0.5251 0.91589 0.98151 0.0
H267 H 0.76706 0.86712 0.02593 0.0
H268 H 0.21337 0.81392 0.06981 0.0
H269 H 0.15944 0.78144 0.05289 0.0
H270 H 0.19058 0.80036 0.96538 0.0
H271 H 0.2445 0.83212 0.98198 0.0
H272 H 0.14021 0.81376 0.98379 0.0
H273 H 0.17045 0.73426 0.98392 0.0
H274 H 0.18951 0.70116 0.0052 0.0
H275 H 0.1154 0.66465 0.06626 0.0
H276 H 0.09625 0.69802 0.04568 0.0
H277 H 0.01025 0.71194 0.89819 0.0
H278 H 0.0605 0.74466 0.92175 0.0
H279 H 0.02374 0.69346 0.00061 0.0
H280 H 0.97382 0.66001 0.97699 0.0
H281 H 0.07558 0.6978 0.99154 0.0
H282 H 0.04208 0.77166 0.99174 0.0
H283 H 0.02086 0.80403 0.97326 0.0
H284 H 0.09806 0.85118 0.91603 0.0
H285 H 0.11953 0.81875 0.93385 0.0
C286 C 0.20873 0.81077 0.04698 0.0
C287 C 0.23312 0.82549 0.0272 0.0
C288 C 0.178 0.79228 0.03739 0.0
C289 C 0.17124 0.78874 0.00795 0.0
C290 C 0.19551 0.80294 0.98819 0.0
C291 C 0.22625 0.82086 0.99772 0.0
C292 C 0.13874 0.7713 0.99763 0.0
C293 C 0.12608 0.78833 0.98509 0.0
C294 C 0.12014 0.73838 0.00064 0.0
C295 C 0.13226 0.71909 0.01359 0.0
C296 C 0.15853 0.7196 0.0022 0.0
C297 C 0.16928 0.70068 0.01406 0.0
C298 C 0.15377 0.68094 0.03717 0.0
C299 C 0.12748 0.68007 0.04846 0.0
C300 C 0.11671 0.69902 0.03673 0.0
C301 C 0.01277 0.70784 0.92062 0.0
C302 C 0.98807 0.68325 0.93564 0.0
C303 C 0.04147 0.72674 0.93415 0.0
C304 C 0.04584 0.72179 0.96308 0.0
C305 C 0.02096 0.69774 0.97828 0.0
C306 C 0.99241 0.67861 0.96471 0.0
C307 C 0.07701 0.73994 0.97677 0.0
C308 C 0.08951 0.72317 0.99019 0.0
C309 C 0.09522 0.77313 0.97501 0.0
C310 C 0.08226 0.79251 0.96395 0.0
C311 C 0.05439 0.7887 0.975 0.0
C312 C 0.04234 0.80711 0.96469 0.0
C313 C 0.05806 0.82958 0.94343 0.0
C314 C 0.08589 0.83372 0.93247 0.0
C315 C 0.09802 0.81535 0.94269 0.0
H316 H 0.04871 0.84384 0.93549 0.0
H317 H 0.16206 0.66622 0.04625 0.0
H318 H 0.69133 0.6617 0.53016 0.0
H319 H 0.67169 0.6917 0.50445 0.0
H320 H 0.66924 0.73485 0.58373 0.0
H321 H 0.68949 0.70548 0.60961 0.0
H322 H 0.6105 0.70109 0.54741 0.0
H323 H 0.72125 0.77925 0.54349 0.0
H324 H 0.77565 0.79721 0.53078 0.0
H325 H 0.74912 0.77624 0.44225 0.0
H326 H 0.69445 0.7577 0.45451 0.0
H327 H 0.57721 0.81905 0.51682 0.0
H328 H 0.59691 0.78531 0.53263 0.0
H329 H 0.62431 0.78083 0.44611 0.0
H330 H 0.60574 0.81604 0.43026 0.0
H331 H 0.66876 0.78982 0.48012 0.0
H332 H 0.56122 0.71525 0.4796 0.0
H333 H 0.50524 0.69306 0.48841 0.0
H334 H 0.52232 0.70072 0.5792 0.0
H335 H 0.57847 0.72324 0.57094 0.0
C336 C 0.68694 0.67785 0.54208 0.0
C337 C 0.69183 0.68118 0.57193 0.0
C338 C 0.67583 0.69497 0.52735 0.0
C339 C 0.66906 0.71533 0.54228 0.0
C340 C 0.67443 0.71919 0.57194 0.0
C341 C 0.68608 0.70252 0.58663 0.0
C342 C 0.65452 0.73115 0.52734 0.0
C343 C 0.62321 0.72071 0.5329 0.0
C344 C 0.67082 0.7555 0.50729 0.0
C345 C 0.7037 0.7667 0.49998 0.0
C346 C 0.72695 0.77813 0.52136 0.0
C347 C 0.75785 0.7885 0.51423 0.0
C348 C 0.76582 0.78776 0.48574 0.0
C349 C 0.74291 0.77674 0.46431 0.0
C350 C 0.71197 0.76632 0.47134 0.0
C351 C 0.58698 0.81055 0.50101 0.0
C352 C 0.58979 0.82013 0.47226 0.0
C353 C 0.59814 0.79108 0.51008 0.0
C354 C 0.61159 0.77998 0.4905 0.0
C355 C 0.61394 0.78902 0.46161 0.0
C356 C 0.60324 0.80905 0.45257 0.0
C357 C 0.62473 0.76053 0.50087 0.0
C358 C 0.65575 0.77003 0.49437 0.0
C359 C 0.60787 0.73464 0.51947 0.0
C360 C 0.5741 0.72112 0.52462 0.0
C361 C 0.55307 0.71239 0.50144 0.0
C362 C 0.5213 0.69971 0.50634 0.0
C363 C 0.51024 0.69554 0.53435 0.0
C364 C 0.53092 0.70396 0.55752 0.0
C365 C 0.56272 0.71662 0.55274 0.0
H366 H 0.48563 0.68574 0.5381 0.0
H367 H 0.78976 0.7958 0.48026 0.0
H368 H 0.18432 0.75787 0.48835 0.0
H369 H 0.22195 0.81241 0.49927 0.0
H370 H 0.1931 0.84225 0.42377 0.0
H371 H 0.15455 0.78744 0.41293 0.0
H372 H 0.27081 0.86101 0.47551 0.0
H373 H 0.19282 0.90951 0.44126 0.0
H374 H 0.13753 0.89122 0.43092 0.0
H375 H 0.10991 0.8152 0.49061 0.0
H376 H 0.16501 0.83328 0.50152 0.0
H377 H 0.35005 0.0213 0.52063 0.0
H378 H 0.32123 0.97583 0.48925 0.0
H379 H 0.24592 0.93505 0.54971 0.0
H380 H 0.27413 0.98061 0.58091 0.0
H381 H 0.22392 0.92685 0.496 0.0
H382 H 0.30061 0.91146 0.54833 0.0
H383 H 0.35436 0.92839 0.56376 0.0
H384 H 0.38178 0.93514 0.47586 0.0
H385 H 0.32816 0.91813 0.45999 0.0
C386 C 0.18613 0.77589 0.47378 0.0
C387 C 0.16594 0.76826 0.45005 0.0
C388 C 0.20788 0.80713 0.47998 0.0
C389 C 0.21003 0.83141 0.46257 0.0
C390 C 0.19146 0.82385 0.43773 0.0
C391 C 0.16944 0.79251 0.4316 0.0
C392 C 0.22935 0.86435 0.47243 0.0
C393 C 0.2607 0.87562 0.47955 0.0
C394 C 0.21614 0.88336 0.47791 0.0
C395 C 0.18297 0.87252 0.4719 0.0
C396 C 0.17491 0.88894 0.4522 0.0
C397 C 0.14363 0.87861 0.44625 0.0
C398 C 0.12022 0.85199 0.46002 0.0
C399 C 0.12805 0.83574 0.47989 0.0
C400 C 0.1593 0.84601 0.48595 0.0
C401 C 0.32727 0.00275 0.52721 0.0
C402 C 0.31448 0.00453 0.55342 0.0
C403 C 0.31086 0.97679 0.50922 0.0
C404 C 0.28157 0.95199 0.51727 0.0
C405 C 0.26846 0.95403 0.54305 0.0
C406 C 0.28471 0.98003 0.56095 0.0
C407 C 0.26503 0.92305 0.49979 0.0
C408 C 0.23429 0.91264 0.49116 0.0
C409 C 0.27857 0.90454 0.4935 0.0
C410 C 0.31052 0.91377 0.503 0.0
C411 C 0.31814 0.91655 0.53233 0.0
C412 C 0.34855 0.92611 0.54116 0.0
C413 C 0.37148 0.93281 0.52083 0.0
C414 C 0.36401 0.92982 0.49162 0.0
C415 C 0.33359 0.92014 0.48269 0.0
H416 H 0.395 0.94029 0.52777 0.0
H417 H 0.09602 0.844 0.45535 0.0
H418 H 0.99091 0.31025 0.5728 0.0
H419 H 0.0436 0.32094 0.56295 0.0
H420 H 0.03619 0.34791 0.47647 0.0
H421 H 0.98365 0.33687 0.48585 0.0
H422 H 0.06165 0.31027 0.47837 0.0
H423 H 0.07505 0.40299 0.52818 0.0
H424 H 0.06806 0.43034 0.56902 0.0
H425 H 0.11357 0.39629 0.62496 0.0
H426 H 0.12045 0.3684 0.5845 0.0
H427 H 0.21612 0.39441 0.43047 0.0
H428 H 0.16269 0.37677 0.44462 0.0
H429 H 0.18628 0.36924 0.53249 0.0
H430 H 0.24026 0.38897 0.51859 0.0
H431 H 0.15171 0.39242 0.53332 0.0
H432 H 0.14217 0.30267 0.48494 0.0
H433 H 0.14871 0.27335 0.44558 0.0
H434 H 0.09549 0.29779 0.38926 0.0
H435 H 0.08894 0.32758 0.42817 0.0
C436 C 0.00043 0.3183 0.55164 0.0
C437 C 0.98305 0.32289 0.53017 0.0
C438 C 0.03058 0.3245 0.5461 0.0
C439 C 0.04388 0.33547 0.51905 0.0
C440 C 0.02637 0.33946 0.49748 0.0
C441 C 0.99635 0.3333 0.50298 0.0
C442 C 0.07623 0.34349 0.51306 0.0
C443 C 0.08142 0.32835 0.49024 0.0
C444 C 0.10187 0.36633 0.52918 0.0
C445 C 0.09798 0.38336 0.55339 0.0
C446 C 0.08337 0.40117 0.54923 0.0
C447 C 0.07946 0.41679 0.5723 0.0
C448 C 0.0903 0.41499 0.59958 0.0
C449 C 0.10515 0.39764 0.60383 0.0
C450 C 0.10908 0.38193 0.58084 0.0
C451 C 0.20983 0.38898 0.45279 0.0
C452 C 0.23223 0.39302 0.47345 0.0
C453 C 0.17921 0.3786 0.46086 0.0
C454 C 0.1701 0.37088 0.48957 0.0
C455 C 0.1926 0.37496 0.51021 0.0
C456 C 0.22343 0.38621 0.50227 0.0
C457 C 0.13742 0.35952 0.4982 0.0
C458 C 0.13208 0.37402 0.52157 0.0
C459 C 0.11159 0.3357 0.48283 0.0
C460 C 0.11526 0.31755 0.45943 0.0
C461 C 0.132 0.30193 0.46412 0.0
C462 C 0.13569 0.28521 0.44189 0.0
C463 C 0.12258 0.28376 0.41492 0.0
C464 C 0.10565 0.29895 0.41015 0.0
C465 C 0.1019 0.31571 0.43229 0.0
H466 H 0.12548 0.27083 0.39774 0.0
H467 H 0.08724 0.42709 0.61742 0.0
H468 H 0.65693 0.65504 0.06798 0.0
H469 H 0.69824 0.64689 0.04959 0.0
H470 H 0.68766 0.67853 0.96599 0.0
H471 H 0.64548 0.68518 0.984 0.0
H472 H 0.69215 0.62942 0.95973 0.0
H473 H 0.75006 0.72501 0.01455 0.0
H474 H 0.76411 0.7582 0.05778 0.0
H475 H 0.78611 0.69541 0.10251 0.0
H476 H 0.77181 0.66163 0.05963 0.0
H477 H 0.83322 0.66175 0.8956 0.0
H478 H 0.79246 0.66776 0.91798 0.0
H479 H 0.79926 0.62168 0.99423 0.0
H480 H 0.8403 0.61576 0.97219 0.0
H481 H 0.79616 0.67496 0.00605 0.0
H482 H 0.74124 0.58168 0.94831 0.0
H483 H 0.72957 0.55127 0.90351 0.0
H484 H 0.70363 0.61296 0.86247 0.0
H485 H 0.71568 0.6441 0.90689 0.0
C486 C 0.66369 0.66044 0.04576 0.0
C487 C 0.64816 0.67071 0.02736 0.0
C488 C 0.68732 0.6559 0.03528 0.0
C489 C 0.69634 0.66244 0.00645 0.0
C490 C 0.68105 0.67318 0.98825 0.0
C491 C 0.65705 0.67708 0.99856 0.0
C492 C 0.72123 0.65756 0.99487 0.0
C493 C 0.715 0.63974 0.9697 0.0
C494 C 0.75082 0.67026 0.00825 0.0
C495 C 0.75956 0.69064 0.03398 0.0
C496 C 0.75769 0.71818 0.03367 0.0
C497 C 0.76573 0.73711 0.0581 0.0
C498 C 0.77591 0.72887 0.0829 0.0
C499 C 0.77817 0.70174 0.0833 0.0
C500 C 0.77013 0.6827 0.05894 0.0
C501 C 0.82619 0.65298 0.91717 0.0
C502 C 0.84 0.63818 0.93206 0.0
C503 C 0.80279 0.65633 0.92987 0.0
C504 C 0.79267 0.64485 0.95762 0.0
C505 C 0.80675 0.63062 0.97276 0.0
C506 C 0.83011 0.62718 0.96007 0.0
C507 C 0.76719 0.64751 0.9707 0.0
C508 C 0.77326 0.66468 0.99618 0.0
C509 C 0.73759 0.63455 0.95742 0.0
C510 C 0.72961 0.61538 0.93089 0.0
C511 C 0.73322 0.58888 0.92969 0.0
C512 C 0.72653 0.5715 0.90436 0.0
C513 C 0.71593 0.58021 0.88014 0.0
C514 C 0.71187 0.60625 0.88124 0.0
C515 C 0.71861 0.62376 0.9065 0.0
H516 H 0.7108 0.56675 0.86054 0.0
H517 H 0.78212 0.74356 0.10179 0.0
H518 H 0.38612 0.22399 0.01198 0.0
H519 H 0.36888 0.16902 0.02177 0.0
H520 H 0.36439 0.15058 0.93102 0.0
H521 H 0.38062 0.20566 0.92098 0.0
H522 H 0.31689 0.10316 0.9568 0.0
H523 H 0.42663 0.16044 0.97274 0.0
H524 H 0.47659 0.2024 0.9924 0.0
H525 H 0.44465 0.17092 0.07791 0.0
H526 H 0.39432 0.12902 0.05878 0.0
H527 H 0.32563 0.96267 0.97811 0.0
H528 H 0.3319 0.01341 0.96366 0.0
H529 H 0.32853 0.03592 0.05228 0.0
H530 H 0.32236 0.98541 0.06685 0.0
H531 H 0.38008 0.08055 0.02512 0.0
H532 H 0.2697 0.02151 0.00678 0.0
H533 H 0.22146 0.97889 0.98511 0.0
H534 H 0.25737 0.01253 0.901 0.0
H535 H 0.30605 0.05511 0.92217 0.0
C536 C 0.38153 0.20827 0.99408 0.0
C537 C 0.38512 0.21918 0.96573 0.0
C538 C 0.3717 0.17686 -0.0003 0.0
C539 C 0.3661 0.15588 0.97714 0.0
C540 C 0.36882 0.16645 0.94874 0.0
C541 C 0.37816 0.19789 0.94305 0.0
C542 C 0.35808 0.12317 0.98349 0.0
C543 C 0.33094 0.09816 0.97139 0.0
C544 C 0.37628 0.11667 0.00273 0.0
C545 C 0.4066 0.14176 0.01432 0.0
C546 C 0.43018 0.1626 0.99574 0.0
C547 C 0.45858 0.18635 0.00679 0.0
C548 C 0.46376 0.18937 0.03638 0.0
C549 C 0.44059 0.16858 0.05499 0.0
C550 C 0.41214 0.1448 0.04406 0.0
C551 C 0.32587 0.97833 0.99444 0.0
C552 C 0.32389 0.97034 0.0236 0.0
C553 C 0.32911 0.0071 0.98615 0.0
C554 C 0.33057 0.0283 0.00693 0.0
C555 C 0.32743 0.01983 0.03595 0.0
C556 C 0.32389 0.99099 0.04422 0.0
C557 C 0.33869 0.06056 0.9988 0.0
C558 C 0.36604 0.08552 0.01049 0.0
C559 C 0.32099 0.06683 0.97881 0.0
C560 C 0.29166 0.04133 0.96607 0.0
C561 C 0.26743 0.01967 0.98366 0.0
C562 C 0.23998 0.99555 0.97147 0.0
C563 C 0.23638 0.99295 0.9417 0.0
C564 C 0.2602 0.01454 0.92406 0.0
C565 C 0.28772 0.0387 0.93614 0.0
H566 H 0.21511 0.97426 0.93231 0.0
H567 H 0.48576 0.20779 0.0449 0.0
H568 H 0.99506 0.36197 0.0012 0.0
H569 H 0.94722 0.31607 0.98382 0.0
H570 H 0.97345 0.25468 0.02584 0.0
H571 H 0.02102 0.30057 0.04425 0.0
H572 H 0.95156 0.25746 0.95219 0.0
H573 H 0.92618 0.23387 0.05588 0.0
H574 H 0.92195 0.25057 0.10454 0.0
H575 H 0.86334 0.28462 0.07227 0.0
H576 H 0.86799 0.26889 0.02326 0.0
H577 H 0.81192 0.11846 0.91091 0.0
H578 H 0.86076 0.15544 0.93511 0.0
H579 H 0.81991 0.21005 0.96266 0.0
H580 H 0.77074 0.17227 0.9399 0.0
H581 H 0.85142 0.20702 0.00422 0.0
H582 H 0.87187 0.23069 0.90389 0.0
H583 H 0.87477 0.21863 0.85317 0.0
H584 H 0.94112 0.19053 0.87521 0.0
H585 H 0.93827 0.20199 0.92614 0.0
C586 C 0.99053 0.33871 0.00698 0.0
C587 C 0.01172 0.33482 0.02411 0.0
C588 C 0.96324 0.3126 0.99707 0.0
C589 C 0.95689 0.2822 0.0038 0.0
C590 C 0.9779 0.27808 0.02084 0.0
C591 C 0.00498 0.30426 0.03128 0.0
C592 C 0.92876 0.25499 0.99183 0.0
C593 C 0.92972 0.24583 0.96366 0.0
C594 C 0.9003 0.24087 0.00659 0.0
C595 C 0.89788 0.25071 0.0359 0.0
C596 C 0.91286 0.24542 0.0591 0.0
C597 C 0.91031 0.25462 0.08675 0.0
C598 C 0.89255 0.26884 0.09147 0.0
C599 C 0.87724 0.27379 0.06856 0.0
C600 C 0.87987 0.26479 0.04085 0.0
C601 C 0.81349 0.1384 0.92215 0.0
C602 C 0.78767 0.14259 0.9236 0.0
C603 C 0.84138 0.15956 0.93589 0.0
C604 C 0.84416 0.18577 0.95045 0.0
C605 C 0.81832 0.18993 0.95173 0.0
C606 C 0.79027 0.16841 0.93864 0.0
C607 C 0.8739 0.20912 0.96429 0.0
C608 C 0.87326 0.21793 0.99275 0.0
C609 C 0.90256 0.22338 0.9495 0.0
C610 C 0.90461 0.21688 0.91885 0.0
C611 C 0.88694 0.22176 0.89793 0.0
C612 C 0.88858 0.21505 0.86915 0.0
C613 C 0.90806 0.20375 0.86098 0.0
C614 C 0.92601 0.19924 0.88157 0.0
C615 C 0.9244 0.20585 0.9104 0.0
H616 H 0.90928 0.19854 0.8387 0.0
H617 H 0.89052 0.27587 0.1129 0.0
H618 H 0.39573 0.16109 0.53966 0.0
H619 H 0.39219 0.20286 0.51467 0.0
H620 H 0.31884 0.1902 0.57136 0.0
H621 H 0.32124 0.14757 0.59559 0.0
H622 H 0.30435 0.19617 0.51852 0.0
H623 H 0.39579 0.25238 0.57915 0.0
H624 H 0.4476 0.26589 0.59781 0.0
H625 H 0.4856 0.2935 0.5134 0.0
H626 H 0.43379 0.27961 0.49428 0.0
H627 H 0.35821 0.37242 0.51489 0.0
H628 H 0.36459 0.32867 0.52989 0.0
H629 H 0.32248 0.28027 0.45072 0.0
H630 H 0.31525 0.32386 0.43568 0.0
H631 H 0.39603 0.30351 0.50946 0.0
H632 H 0.28257 0.20063 0.4647 0.0
H633 H 0.22971 0.18812 0.45027 0.0
H634 H 0.2343 0.25637 0.50999 0.0
H635 H 0.28701 0.26899 0.525 0.0
C636 C 0.37884 0.16718 0.54684 0.0
C637 C 0.35897 0.15115 0.56988 0.0
C638 C 0.37694 0.19117 0.53257 0.0
C639 C 0.35546 0.19987 0.54132 0.0
C640 C 0.33556 0.18385 0.5642 0.0
C641 C 0.3372 0.15967 0.57825 0.0
C642 C 0.35352 0.22565 0.52678 0.0
C643 C 0.32444 0.21961 0.51641 0.0
C644 C 0.37973 0.2562 0.5239 0.0
C645 C 0.41086 0.26453 0.53529 0.0
C646 C 0.41514 0.26101 0.56459 0.0
C647 C 0.44451 0.2688 0.57524 0.0
C648 C 0.46988 0.28044 0.55678 0.0
C649 C 0.46591 0.2844 0.52766 0.0
C650 C 0.43655 0.27657 0.51692 0.0
C651 C 0.3503 0.35255 0.50055 0.0
C652 C 0.33597 0.35158 0.47414 0.0
C653 C 0.35413 0.32759 0.50914 0.0
C654 C 0.34383 0.30112 0.49154 0.0
C655 C 0.33021 0.3003 0.46482 0.0
C656 C 0.32613 0.32525 0.45625 0.0
C657 C 0.34671 0.27422 0.5019 0.0
C658 C 0.37602 0.27997 0.51123 0.0
C659 C 0.32061 0.24354 0.5043 0.0
C660 C 0.28885 0.23601 0.49568 0.0
C661 C 0.27225 0.21291 0.47477 0.0
C662 C 0.24233 0.2058 0.4665 0.0
C663 C 0.2287 0.22153 0.47912 0.0
C664 C 0.24493 0.2443 0.50014 0.0
C665 C 0.27484 0.25147 0.50852 0.0
H666 H 0.20555 0.21601 0.47267 0.0
H667 H 0.49261 0.28649 0.56504 0.0
H668 H 0.80962 0.22456 0.50116 0.0
H669 H 0.77044 0.16964 0.49362 0.0
H670 H 0.81112 0.14229 0.5618 0.0
H671 H 0.8501 0.19759 0.57013 0.0
H672 H 0.77483 0.12176 0.47735 0.0
H673 H 0.75323 0.07501 0.59317 0.0
H674 H 0.75754 0.0948 0.64247 0.0
H675 H 0.74311 0.16862 0.61122 0.0
H676 H 0.7383 0.14901 0.56181 0.0
H677 H 0.67412 0.9586 0.46663 0.0
H678 H 0.71817 0.00859 0.48276 0.0
H679 H 0.6549 0.03274 0.52197 0.0
H680 H 0.61082 0.98217 0.50694 0.0
H681 H 0.70493 0.05338 0.55423 0.0
H682 H 0.68461 0.05825 0.45333 0.0
H683 H 0.67758 0.04089 0.40294 0.0
H684 H 0.77015 0.05538 0.40246 0.0
H685 H 0.77756 0.07247 0.45297 0.0
C686 C 0.81032 0.20694 0.51461 0.0
C687 C 0.83299 0.21548 0.53628 0.0
C688 C 0.7879 0.1755 0.51021 0.0
C689 C 0.78774 0.15188 0.52723 0.0
C690 C 0.81054 0.1602 0.5487 0.0
C691 C 0.83284 0.19179 0.55336 0.0
C692 C 0.76356 0.11864 0.52215 0.0
C693 C 0.75966 0.10677 0.49421 0.0
C694 C 0.74365 0.09916 0.5441 0.0
C695 C 0.74577 0.11074 0.57378 0.0
C696 C 0.75085 0.09538 0.59685 0.0
C697 C 0.7534 0.10658 0.62481 0.0
C698 C 0.75073 0.13302 0.62996 0.0
C699 C 0.7453 0.14821 0.60719 0.0
C700 C 0.74268 0.13708 0.57921 0.0
C701 C 0.66965 0.97447 0.47893 0.0
C702 C 0.63907 0.9667 0.48529 0.0
C703 C 0.69482 0.003 0.48812 0.0
C704 C 0.68979 0.02466 0.50309 0.0
C705 C 0.65932 0.01639 0.51045 0.0
C706 C 0.63416 0.98756 0.50175 0.0
C707 C 0.71595 0.05674 0.50933 0.0
C708 C 0.72032 0.0683 0.53746 0.0
C709 C 0.73585 0.07632 0.48741 0.0
C710 C 0.73152 0.06633 0.45698 0.0
C711 C 0.70338 0.05756 0.44251 0.0
C712 C 0.69934 0.04779 0.41393 0.0
C713 C 0.72337 0.04695 0.39953 0.0
C714 C 0.75154 0.05599 0.41365 0.0
C715 C 0.75568 0.06574 0.44224 0.0
H716 H 0.7202 0.03937 0.37741 0.0
H717 H 0.75279 0.1417 0.6516 0.0
H718 H 0.03327 0.67791 0.52201 0.0
H719 H 0.98495 0.66998 0.54259 0.0
H720 H 0.94812 0.66635 0.45772 0.0
H721 H 0.99652 0.67413 0.43691 0.0
H722 H 0.93423 0.70026 0.49355 0.0
H723 H 0.92101 0.59742 0.49377 0.0
H724 H 0.93336 0.55549 0.50237 0.0
H725 H 0.94331 0.57582 0.59249 0.0
H726 H 0.93054 0.61762 0.58443 0.0
H727 H 0.77502 0.62529 0.53825 0.0
H728 H 0.82295 0.63446 0.5154 0.0
H729 H 0.86933 0.65599 0.59768 0.0
H730 H 0.82167 0.6474 0.6207 0.0
H731 H 0.87695 0.61198 0.5616 0.0
H732 H 0.8858 0.71429 0.55851 0.0
H733 H 0.86735 0.75105 0.54693 0.0
H734 H 0.86207 0.72786 0.45771 0.0
H735 H 0.88006 0.69058 0.46883 0.0
C736 C 0.01487 0.6754 0.50771 0.0
C737 C 0.01846 0.67611 0.47785 0.0
C738 C 0.98726 0.67082 0.5195 0.0
C739 C 0.96271 0.66694 0.50167 0.0
C740 C 0.96672 0.66909 0.47185 0.0
C741 C 0.99439 0.67362 0.46001 0.0
C742 C 0.93285 0.66042 0.51434 0.0
C743 C 0.9215 0.68072 0.50813 0.0
C744 C 0.91635 0.63508 0.53354 0.0
C745 C 0.92511 0.6108 0.53847 0.0
C746 C 0.92607 0.5931 0.51539 0.0
C747 C 0.93296 0.56924 0.52019 0.0
C748 C 0.93918 0.56304 0.54796 0.0
C749 C 0.93846 0.58064 0.571 0.0
C750 C 0.93124 0.60431 0.56635 0.0
C751 C 0.79537 0.63184 0.5515 0.0
C752 C 0.79462 0.6357 0.58126 0.0
C753 C 0.82273 0.6372 0.5384 0.0
C754 C 0.8496 0.64607 0.55489 0.0
C755 C 0.84877 0.64924 0.58465 0.0
C756 C 0.82159 0.64441 0.59772 0.0
C757 C 0.87864 0.65201 0.54107 0.0
C758 C 0.88977 0.63154 0.54705 0.0
C759 C 0.89455 0.67683 0.52128 0.0
C760 C 0.88396 0.69939 0.51454 0.0
C761 C 0.88043 0.71681 0.53645 0.0
C762 C 0.87011 0.73779 0.52997 0.0
C763 C 0.86345 0.74172 0.50161 0.0
C764 C 0.86719 0.72475 0.47967 0.0
C765 C 0.87748 0.70372 0.48605 0.0
H766 H 0.85546 0.75797 0.49663 0.0
H767 H 0.94461 0.54461 0.55161 0.0
H768 H 0.24063 0.34179 0.34934 0.0
H769 H 0.20796 0.3345 0.30714 0.0
H770 H 0.24479 0.4347 0.30298 0.0
H771 H 0.27698 0.44208 0.34526 0.0
H772 H 0.1831 0.40354 0.29763 0.0
H773 H 0.26818 0.39673 0.25663 0.0
H774 H 0.3032 0.37536 0.25127 0.0
H775 H 0.22494 0.28419 0.23218 0.0
H776 H 0.18939 0.30495 0.2378 0.0
H777 H 0.15241 0.43369 0.15786 0.0
H778 H 0.17665 0.42944 0.202 0.0
H779 H 0.1244 0.32826 0.19545 0.0
H780 H 0.09989 0.33231 0.15096 0.0
H781 H 0.18743 0.35228 0.20797 0.0
H782 H 0.10306 0.36138 0.24404 0.0
H783 H 0.06896 0.38396 0.24817 0.0
H784 H 0.14673 0.47187 0.27591 0.0
H785 H 0.18141 0.44996 0.27155 0.0
C786 C 0.24186 0.36226 0.33931 0.0
C787 C 0.26137 0.39251 0.35059 0.0
C788 C 0.22325 0.35806 0.31518 0.0
C789 C 0.22406 0.38408 0.30184 0.0
C790 C 0.24371 0.41428 0.31299 0.0
C791 C 0.26218 0.41847 0.33711 0.0
C792 C 0.20409 0.38012 0.27659 0.0
C793 C 0.18423 0.39253 0.27797 0.0
C794 C 0.20478 0.36481 0.25126 0.0
C795 C 0.2261 0.35229 0.248 0.0
C796 C 0.25841 0.37205 0.25156 0.0
C797 C 0.27836 0.36007 0.24842 0.0
C798 C 0.26629 0.32842 0.24149 0.0
C799 C 0.23425 0.30869 0.23761 0.0
C800 C 0.21419 0.32055 0.24076 0.0
C801 C 0.14593 0.4105 0.16581 0.0
C802 C 0.12417 0.38332 0.151 0.0
C803 C 0.15974 0.40812 0.1911 0.0
C804 C 0.15206 0.37854 0.20211 0.0
C805 C 0.13052 0.3513 0.1873 0.0
C806 C 0.11649 0.35365 0.162 0.0
C807 C 0.16719 0.3765 0.22885 0.0
C808 C 0.18602 0.36289 0.22779 0.0
C809 C 0.16569 0.39083 0.25448 0.0
C810 C 0.14488 0.40407 0.25728 0.0
C811 C 0.11294 0.3856 0.25082 0.0
C812 C 0.0935 0.39827 0.25324 0.0
C813 C 0.10568 0.42935 0.26225 0.0
C814 C 0.13733 0.4478 0.26892 0.0
C815 C 0.15688 0.43525 0.26652 0.0
H816 H 0.09059 0.43911 0.2641 0.0
H817 H 0.28178 0.31919 0.23904 0.0
H818 H 0.55998 0.71862 0.16458 0.0
H819 H 0.56915 0.75205 0.2061 0.0
H820 H 0.66615 0.77924 0.20681 0.0
H821 H 0.6572 0.74566 0.16486 0.0
H822 H 0.63673 0.76721 0.26318 0.0
H823 H 0.65341 0.82914 0.17979 0.0
H824 H 0.64182 0.83991 0.13098 0.0
H825 H 0.55631 0.83109 0.16021 0.0
H826 H 0.56708 0.81963 0.20913 0.0
H827 H 0.65535 0.8883 0.36064 0.0
H828 H 0.66523 0.86592 0.31797 0.0
H829 H 0.56838 0.82255 0.29382 0.0
H830 H 0.55825 0.8445 0.33641 0.0
H831 H 0.6104 0.8509 0.24748 0.0
H832 H 0.59121 0.78073 0.3287 0.0
H833 H 0.60276 0.76938 0.37736 0.0
H834 H 0.6952 0.79527 0.35159 0.0
H835 H 0.68436 0.80732 0.30287 0.0
C836 C 0.58322 0.73136 0.17371 0.0
C837 C 0.60794 0.72976 0.16129 0.0
C838 C 0.58841 0.75047 0.19741 0.0
C839 C 0.61838 0.76836 0.20917 0.0
C840 C 0.64289 0.76563 0.19789 0.0
C841 C 0.63773 0.74652 0.17396 0.0
C842 C 0.62384 0.79118 0.2321 0.0
C843 C 0.63175 0.78602 0.25969 0.0
C844 C 0.61727 0.81563 0.22738 0.0
C845 C 0.61099 0.82333 0.19814 0.0
C846 C 0.63203 0.8293 0.1758 0.0
C847 C 0.62562 0.83554 0.1481 0.0
C848 C 0.59832 0.83614 0.14248 0.0
C849 C 0.57745 0.83061 0.16459 0.0
C850 C 0.58372 0.82427 0.19233 0.0
C851 C 0.63626 0.87429 0.34604 0.0
C852 C 0.60598 0.86792 0.35189 0.0
C853 C 0.64195 0.86154 0.32175 0.0
C854 C 0.61749 0.84252 0.30292 0.0
C855 C 0.58754 0.83724 0.30812 0.0
C856 C 0.58177 0.84964 0.33252 0.0
C857 C 0.62227 0.82627 0.27872 0.0
C858 C 0.61623 0.83267 0.25085 0.0
C859 C 0.63084 0.80319 0.28318 0.0
C860 C 0.6371 0.79528 0.31226 0.0
C861 C 0.61407 0.78422 0.33347 0.0
C862 C 0.62048 0.77764 0.36105 0.0
C863 C 0.64972 0.78169 0.36759 0.0
C864 C 0.67258 0.7922 0.34651 0.0
C865 C 0.66632 0.79892 0.31892 0.0
H866 H 0.65464 0.77661 0.38896 0.0
H867 H 0.59337 0.84093 0.12101 0.0
H868 H 0.2478 0.89691 0.15533 0.0
H869 H 0.21242 0.87101 0.19539 0.0
H870 H 0.22917 0.79345 0.18998 0.0
H871 H 0.26481 0.8193 0.15012 0.0
H872 H 0.16542 0.7754 0.19165 0.0
H873 H 0.26186 0.84308 0.24196 0.0
H874 H 0.30827 0.89371 0.25469 0.0
H875 H 0.24999 0.92934 0.2824 0.0
H876 H 0.20318 0.87901 0.26945 0.0
H877 H 0.12402 0.69529 0.32324 0.0
H878 H 0.14816 0.72506 0.27974 0.0
H879 H 0.12022 0.79208 0.30178 0.0
H880 H 0.0955 0.76198 0.34541 0.0
H881 H 0.18397 0.8193 0.29005 0.0
H882 H 0.08746 0.74944 0.24579 0.0
H883 H 0.04087 0.69874 0.2337 0.0
H884 H 0.09815 0.66739 0.19469 0.0
H885 H 0.14518 0.71774 0.20694 0.0
C886 C 0.24412 0.87445 0.16283 0.0
C887 C 0.25905 0.8601 0.14965 0.0
C888 C 0.22394 0.85973 0.18569 0.0
C889 C 0.21821 0.83035 0.19552 0.0
C890 C 0.23328 0.81611 0.18256 0.0
C891 C 0.25374 0.83097 0.15995 0.0
C892 C 0.19608 0.81406 0.21901 0.0
C893 C 0.16952 0.78484 0.21323 0.0
C894 C 0.20093 0.82709 0.2468 0.0
C895 C 0.22904 0.85744 0.25436 0.0
C896 C 0.25894 0.86183 0.25046 0.0
C897 C 0.28532 0.89044 0.25779 0.0
C898 C 0.28209 0.91477 0.26924 0.0
C899 C 0.25246 0.9105 0.27346 0.0
C900 C 0.226 0.88193 0.26613 0.0
C901 C 0.12254 0.71606 0.31859 0.0
C902 C 0.10797 0.72639 0.33766 0.0
C903 C 0.13623 0.73297 0.29369 0.0
C904 C 0.13585 0.76067 0.28755 0.0
C905 C 0.12061 0.77067 0.30616 0.0
C906 C 0.10643 0.75342 0.33094 0.0
C907 C 0.1537 0.78019 0.2629 0.0
C908 C 0.1795 0.81006 0.26838 0.0
C909 C 0.14809 0.7678 0.23481 0.0
C910 C 0.1199 0.73733 0.2275 0.0
C911 C 0.09017 0.73164 0.23488 0.0
C912 C 0.06367 0.70297 0.22794 0.0
C913 C 0.06655 0.67983 0.21349 0.0
C914 C 0.09595 0.68533 0.20591 0.0
C915 C 0.12255 0.71396 0.21281 0.0
H916 H 0.04599 0.65766 0.20811 0.0
H917 H 0.30254 0.93689 0.27494 0.0
H918 H 0.88046 0.56684 0.82654 0.0
H919 H 0.84766 0.5614 0.785 0.0
H920 H 0.78718 0.57706 0.83961 0.0
H921 H 0.81837 0.57931 0.88135 0.0
H922 H 0.75309 0.53939 0.80328 0.0
H923 H 0.84807 0.63652 0.79413 0.0
H924 H 0.90474 0.67281 0.79168 0.0
H925 H 0.90927 0.62526 0.71667 0.0
H926 H 0.85266 0.58838 0.71889 0.0
H927 H 0.70638 0.60647 0.68639 0.0
H928 H 0.73131 0.60059 0.72972 0.0
H929 H 0.75302 0.53819 0.68436 0.0
H930 H 0.72737 0.54322 0.64117 0.0
H931 H 0.80512 0.59859 0.71512 0.0
H932 H 0.70374 0.50339 0.72712 0.0
H933 H 0.64663 0.4752 0.73162 0.0
H934 H 0.65483 0.53153 0.80474 0.0
H935 H 0.71198 0.5604 0.80038 0.0
C936 C 0.85982 0.56856 0.82952 0.0
C937 C 0.85173 0.57345 0.85684 0.0
C938 C 0.8413 0.56587 0.80582 0.0
C939 C 0.81537 0.56978 0.80888 0.0
C940 C 0.80701 0.57399 0.8365 0.0
C941 C 0.82484 0.57539 0.86034 0.0
C942 C 0.79733 0.57007 0.78335 0.0
C943 C 0.76463 0.55265 0.78418 0.0
C944 C 0.8121 0.58739 0.75825 0.0
C945 C 0.84617 0.60947 0.75687 0.0
C946 C 0.86119 0.63365 0.77724 0.0
C947 C 0.89329 0.65435 0.77587 0.0
C948 C 0.91061 0.65129 0.75408 0.0
C949 C 0.89584 0.62756 0.73357 0.0
C950 C 0.86374 0.60676 0.73486 0.0
C951 C 0.7161 0.59116 0.68581 0.0
C952 C 0.71497 0.57527 0.66051 0.0
C953 C 0.73022 0.58779 0.71051 0.0
C954 C 0.74382 0.5689 0.71009 0.0
C955 C 0.74244 0.55273 0.68499 0.0
C956 C 0.72776 0.55557 0.66044 0.0
C957 C 0.76138 0.56782 0.73527 0.0
C958 C 0.79391 0.58528 0.73431 0.0
C959 C 0.74648 0.55175 0.76061 0.0
C960 C 0.71212 0.53429 0.76321 0.0
C961 C 0.69336 0.51 0.74395 0.0
C962 C 0.66097 0.49384 0.74653 0.0
C963 C 0.6471 0.50163 0.76839 0.0
C964 C 0.66559 0.52555 0.78778 0.0
C965 C 0.69798 0.54179 0.78528 0.0
H966 H 0.62203 0.48909 0.77035 0.0
H967 H 0.93546 0.66735 0.75305 0.0
H968 H 0.34591 0.22917 0.85134 0.0
H969 H 0.3445 0.1988 0.80921 0.0
H970 H 0.44158 0.26469 0.79426 0.0
H971 H 0.44346 0.29455 0.83684 0.0
H972 H 0.38897 0.23902 0.74305 0.0
H973 H 0.43934 0.21238 0.82187 0.0
H974 H 0.43886 0.19514 0.87169 0.0
H975 H 0.35109 0.11121 0.85605 0.0
H976 H 0.35083 0.12828 0.80623 0.0
H977 H 0.44253 0.16827 0.64718 0.0
H978 H 0.43846 0.19644 0.68836 0.0
H979 H 0.35755 0.11135 0.71722 0.0
H980 H 0.36139 0.083 0.67598 0.0
H981 H 0.39693 0.14399 0.7619 0.0
H982 H 0.34291 0.16229 0.68851 0.0
H983 H 0.33109 0.17519 0.64074 0.0
H984 H 0.41198 0.26743 0.64603 0.0
H985 H 0.4241 0.25517 0.69422 0.0
C986 C 0.3668 0.23738 0.8388 0.0
C987 C 0.39483 0.26407 0.84728 0.0
C988 C 0.36596 0.22004 0.81487 0.0
C989 C 0.39296 0.22962 0.79887 0.0
C990 C 0.42056 0.25709 0.80646 0.0
C991 C 0.42161 0.274 0.83075 0.0
C992 C 0.39304 0.20991 0.77532 0.0
C993 C 0.39119 0.21853 0.74706 0.0
C994 C 0.39432 0.18237 0.78083 0.0
C995 C 0.39493 0.17174 0.81046 0.0
C996 C 0.41983 0.19038 0.82914 0.0
C997 C 0.41971 0.18063 0.85735 0.0
C998 C 0.39492 0.15214 0.86705 0.0
C999 C 0.37025 0.13329 0.84851 0.0
C1000 C 0.37024 0.14298 0.82029 0.0
C1001 C 0.42409 0.15548 0.66246 0.0
C1002 C 0.40222 0.12349 0.65835 0.0
C1003 C 0.42168 0.17162 0.68586 0.0
C1004 C 0.39751 0.15601 0.70562 0.0
C1005 C 0.37633 0.12379 0.70217 0.0
C1006 C 0.37854 0.10769 0.6786 0.0
C1007 C 0.39402 0.1737 0.72939 0.0
C1008 C 0.39497 0.16461 0.75775 0.0
C1009 C 0.39087 0.20025 0.72401 0.0
C1010 C 0.38457 0.20771 0.69479 0.0
C1011 C 0.35837 0.18522 0.67936 0.0
C1012 C 0.35156 0.19244 0.65227 0.0
C1013 C 0.37086 0.22203 0.64027 0.0
C1014 C 0.39706 0.2445 0.65537 0.0
C1015 C 0.40385 0.23749 0.68265 0.0
H1016 H 0.36527 0.22757 0.61941 0.0
H1017 H 0.39489 0.14462 0.88888 0.0
H1018 H 0.69684 0.10007 0.81515 0.0
H1019 H 0.73291 0.13024 0.77676 0.0
H1020 H 0.78375 0.20823 0.83488 0.0
H1021 H 0.74637 0.17884 0.87257 0.0
H1022 H 0.78311 0.23129 0.78794 0.0
H1023 H 0.80951 0.15512 0.81456 0.0
H1024 H 0.80108 0.10249 0.82601 0.0
H1025 H 0.76958 0.07213 0.73981 0.0
H1026 H 0.77732 0.12444 0.72795 0.0
H1027 H 0.90298 0.25472 0.66728 0.0
H1028 H 0.87832 0.231 0.71314 0.0
H1029 H 0.8017 0.24497 0.69155 0.0
H1030 H 0.82636 0.2692 0.64646 0.0
H1031 H 0.82575 0.18048 0.72634 0.0
H1032 H 0.77394 0.26203 0.74822 0.0
H1033 H 0.78954 0.31783 0.74201 0.0
H1034 H 0.88567 0.34333 0.74059 0.0
H1035 H 0.87072 0.28779 0.74722 0.0
C1036 C 0.71548 0.12385 0.81947 0.0
C1037 C 0.71875 0.13732 0.84659 0.0
C1038 C 0.73634 0.14094 0.7977 0.0
C1039 C 0.76162 0.1713 0.80304 0.0
C1040 C 0.76452 0.1849 0.83013 0.0
C1041 C 0.7431 0.16815 0.85164 0.0
C1042 C 0.78468 0.189 0.78027 0.0
C1043 C 0.79251 0.22016 0.77461 0.0
C1044 C 0.79815 0.1751 0.76352 0.0
C1045 C 0.79382 0.14368 0.77042 0.0
C1046 C 0.80063 0.13718 0.79808 0.0
C1047 C 0.79598 0.1074 0.80464 0.0
C1048 C 0.78477 0.08397 0.78366 0.0
C1049 C 0.77826 0.0903 0.75604 0.0
C1050 C 0.78281 0.12003 0.74938 0.0
C1051 C 0.88097 0.25287 0.67247 0.0
C1052 C 0.86673 0.26404 0.65339 0.0
C1053 C 0.86689 0.23927 0.69861 0.0
C1054 C 0.83841 0.23669 0.70599 0.0
C1055 C 0.82403 0.2474 0.68668 0.0
C1056 C 0.83812 0.26113 0.66079 0.0
C1057 C 0.82292 0.22211 0.73342 0.0
C1058 C 0.8166 0.19163 0.73997 0.0
C1059 C 0.81201 0.23713 0.75182 0.0
C1060 C 0.82115 0.27066 0.748 0.0
C1061 C 0.79841 0.27955 0.74673 0.0
C1062 C 0.80715 0.31114 0.7431 0.0
C1063 C 0.83857 0.3341 0.74083 0.0
C1064 C 0.86133 0.32552 0.74225 0.0
C1065 C 0.85273 0.29398 0.7459 0.0
H1066 H 0.84527 0.35854 0.73802 0.0
H1067 H 0.78116 0.06092 0.78879 0.0
H1068 H 0.02058 0.42088 0.10486 0.0
H1069 H 0.99111 0.4459 0.08902 0.0
H1070 H 0.05238 0.48625 0.01679 0.0
H1071 H 0.08234 0.46248 0.033 0.0
H1072 H 0.04285 0.5281 0.03867 0.0
H1073 H 0.97747 0.41947 0.01154 0.0
H1074 H 0.94587 0.36214 0.01905 0.0
H1075 H 0.88681 0.37537 0.07659 0.0
H1076 H 0.91815 0.43285 0.06958 0.0
H1077 H 0.95822 0.5538 0.93136 0.0
H1078 H 0.98227 0.53032 0.96033 0.0
H1079 H 0.92455 0.5224 0.03179 0.0
H1080 H 0.90042 0.54637 0.00291 0.0
H1081 H 0.92935 0.46661 0.01889 0.0
H1082 H 0.9949 0.57875 0.03461 0.0
H1083 H 0.02796 0.63435 0.02043 0.0
H1084 H 0.08901 0.61155 0.97596 0.0
H1085 H 0.05607 0.55582 0.98929 0.0
C1086 C 0.02783 0.4353 0.08574 0.0
C1087 C 0.05374 0.43972 0.07015 0.0
C1088 C 0.01086 0.44939 0.0766 0.0
C1089 C 0.01934 0.46771 0.05155 0.0
C1090 C 0.04542 0.47232 0.03624 0.0
C1091 C 0.06252 0.45862 0.0455 0.0
C1092 C 0.00148 0.48241 0.04093 0.0
C1093 C 0.01804 0.51458 0.03425 0.0
C1094 C 0.96897 0.46495 0.03577 0.0
C1095 C 0.9504 0.43047 0.04035 0.0
C1096 C 0.95793 0.41018 0.02602 0.0
C1097 C 0.94005 0.37767 0.03013 0.0
C1098 C 0.91449 0.36516 0.04839 0.0
C1099 C 0.90668 0.38512 0.06253 0.0
C1100 C 0.92447 0.41766 0.05847 0.0
C1101 C 0.95044 0.54691 0.95317 0.0
C1102 C 0.92747 0.55198 0.9649 0.0
C1103 C 0.96432 0.53364 0.96971 0.0
C1104 C 0.95539 0.52502 0.99823 0.0
C1105 C 0.93181 0.5291 0.00983 0.0
C1106 C 0.9181 0.54277 0.99334 0.0
C1107 C 0.97107 0.51188 0.01567 0.0
C1108 C 0.95405 0.48015 0.0238 0.0
C1109 C 0.00343 0.52946 0.02126 0.0
C1110 C 0.02285 0.56301 0.01283 0.0
C1111 C 0.01517 0.58552 0.02154 0.0
C1112 C 0.03393 0.61708 0.01369 0.0
C1113 C 0.06052 0.62639 0.99729 0.0
C1114 C 0.06839 0.60425 0.98865 0.0
C1115 C 0.04969 0.5727 0.99634 0.0
H1116 H 0.07513 0.65073 0.99126 0.0
H1117 H 0.90064 0.34 0.05145 0.0
H1118 H 0.56284 0.589 0.09491 0.0
H1119 H 0.54147 0.54034 0.06707 0.0
H1120 H 0.49731 0.57468 0.00902 0.0
H1121 H 0.51775 0.62277 0.03712 0.0
H1122 H 0.45988 0.51495 0.01855 0.0
H1123 H 0.56625 0.57798 0.98994 0.0
H1124 H 0.62324 0.60976 0.99511 0.0
H1125 H 0.62468 0.5327 0.03692 0.0
H1126 H 0.56759 0.50022 0.03162 0.0
H1127 H 0.43052 0.40316 0.90889 0.0
H1128 H 0.4521 0.45388 0.9335 0.0
H1129 H 0.49383 0.42271 0.99742 0.0
H1130 H 0.47299 0.37249 0.97274 0.0
H1131 H 0.53278 0.4825 0.98235 0.0
H1132 H 0.42403 0.41985 0.0098 0.0
H1133 H 0.36762 0.38913 0.00041 0.0
H1134 H 0.37141 0.46804 0.95716 0.0
H1135 H 0.428 0.49939 0.96636 0.0
C1136 C 0.54814 0.5859 0.07651 0.0
C1137 C 0.54216 0.60975 0.06804 0.0
C1138 C 0.53623 0.55828 0.06044 0.0
C1139 C 0.51841 0.55424 0.0356 0.0
C1140 C 0.51119 0.57739 0.02798 0.0
C1141 C 0.52292 0.60487 0.04407 0.0
C1142 C 0.50767 0.52618 0.0172 0.0
C1143 C 0.47589 0.50808 0.01035 0.0
C1144 C 0.5285 0.51712 0.00662 0.0
C1145 C 0.56266 0.53681 0.01065 0.0
C1146 C 0.57869 0.56792 0.00048 0.0
C1147 C 0.61103 0.58604 0.00336 0.0
C1148 C 0.6276 0.57339 0.01655 0.0
C1149 C 0.61183 0.54251 0.02677 0.0
C1150 C 0.57949 0.52417 0.02372 0.0
C1151 C 0.44467 0.40735 0.92796 0.0
C1152 C 0.44991 0.38384 0.93904 0.0
C1153 C 0.45677 0.43619 0.94209 0.0
C1154 C 0.47408 0.44177 0.96754 0.0
C1155 C 0.48041 0.41881 0.97788 0.0
C1156 C 0.46843 0.3901 0.96377 0.0
C1157 C 0.48499 0.47107 0.98408 0.0
C1158 C 0.51682 0.48945 0.99053 0.0
C1159 C 0.46425 0.4806 0.99396 0.0
C1160 C 0.43027 0.46182 0.98849 0.0
C1161 C 0.41287 0.43059 0.99813 0.0
C1162 C 0.38084 0.41306 0.99285 0.0
C1163 C 0.36591 0.42647 0.978 0.0
C1164 C 0.38299 0.45761 0.96859 0.0
C1165 C 0.41503 0.47531 0.97389 0.0
H1166 H 0.34113 0.41278 0.97386 0.0
H1167 H 0.65265 0.58744 0.01867 0.0
H1168 H 0.39725 0.97639 0.09654 0.0
H1169 H 0.44917 0.01147 0.07722 0.0
H1170 H 0.44274 0.93484 0.0275 0.0
H1171 H 0.39064 0.89973 0.04639 0.0
H1172 H 0.50144 0.97235 0.05494 0.0
H1173 H 0.42852 0.98395 0.993 0.0
H1174 H 0.38809 0.99658 0.9797 0.0
H1175 H 0.44177 0.08778 0.01839 0.0
H1176 H 0.48282 0.07576 0.03162 0.0
H1177 H 0.58462 0.058 0.92055 0.0
H1178 H 0.5386 0.03608 0.95079 0.0
H1179 H 0.59714 0.07173 0.02606 0.0
H1180 H 0.64344 0.09371 0.9959 0.0
H1181 H 0.51508 0.05937 0.99126 0.0
H1182 H 0.56062 0.00885 0.07725 0.0
H1183 H 0.603 -0.00274 0.08418 0.0
H1184 H 0.60372 0.98223 0.99372 0.0
H1185 H 0.56069 0.99247 0.98643 0.0
C1186 C 0.40709 0.9669 0.08182 0.0
C1187 C 0.38994 0.93533 0.07294 0.0
C1188 C 0.43665 0.98701 0.07072 0.0
C1189 C 0.44964 0.97573 0.05087 0.0
C1190 C 0.43308 0.94393 0.04286 0.0
C1191 C 0.40335 0.92394 0.05362 0.0
C1192 C 0.47986 -0.00275 0.03735 0.0
C1193 C 0.50458 0.99161 0.04128 0.0
C1194 C 0.48395 0.02239 0.01961 0.0
C1195 C 0.45848 0.02882 0.01358 0.0
C1196 C 0.43147 0.0065 0.99905 0.0
C1197 C 0.40852 0.01361 0.99142 0.0
C1198 C 0.41229 0.04291 0.99833 0.0
C1199 C 0.4389 0.06509 0.0131 0.0
C1200 C 0.46205 0.05818 0.02058 0.0
C1201 C 0.58773 0.06167 0.94349 0.0
C1202 C 0.61762 0.07729 0.95588 0.0
C1203 C 0.56141 0.04925 0.96073 0.0
C1204 C 0.56452 0.052 0.99065 0.0
C1205 C 0.59431 0.06917 0.00301 0.0
C1206 C 0.62069 0.08174 0.98574 0.0
C1207 C 0.5366 0.03436 0.00863 0.0
C1208 C 0.51229 0.04069 0.00555 0.0
C1209 C 0.53291 0.0098 0.02707 0.0
C1210 C 0.55781 0.00201 0.03126 0.0
C1211 C 0.56971 0.00286 0.05888 0.0
C1212 C 0.59383 0.99647 0.06288 0.0
C1213 C 0.60625 0.98926 0.0394 0.0
C1214 C 0.59437 0.98812 0.0119 0.0
C1215 C 0.56997 0.99402 0.00783 0.0
H1216 H 0.62493 0.98436 0.04259 0.0
H1217 H 0.39484 0.04861 0.99192 0.0
H1218 H 0.51426 0.89592 0.46612 0.0
H1219 H 0.49343 0.92684 0.48598 0.0
H1220 H 0.54041 -0.00232 0.421 0.0
H1221 H 0.56279 0.96728 0.40175 0.0
H1222 H 0.54909 0.02482 0.47062 0.0
H1223 H 0.45727 0.94839 0.42082 0.0
H1224 H 0.41656 0.89544 0.40522 0.0
H1225 H 0.39047 0.86876 0.49277 0.0
H1226 H 0.43129 0.9214 0.50888 0.0
H1227 H 0.46159 0.09782 0.51758 0.0
H1228 H 0.48506 0.07345 0.48936 0.0
H1229 H 0.45823 0.00122 0.5536 0.0
H1230 H 0.43504 0.02548 0.58198 0.0
H1231 H 0.4385 0.97825 0.49803 0.0
H1232 H 0.5323 0.05513 0.54734 0.0
H1233 H 0.57232 0.1087 0.56198 0.0
H1234 H 0.5941 0.13516 0.47375 0.0
H1235 H 0.55389 0.08181 0.45858 0.0
C1236 C 0.51997 0.91792 0.45581 0.0
C1237 C 0.54026 0.92921 0.43242 0.0
C1238 C 0.50778 0.9355 0.46707 0.0
C1239 C 0.51488 0.96439 0.45472 0.0
C1240 C 0.53452 0.9754 0.43083 0.0
C1241 C 0.54715 0.95796 0.41977 0.0
C1242 C 0.50324 0.98371 0.46808 0.0
C1243 C 0.52477 0.01482 0.47608 0.0
C1244 C 0.47161 0.97061 0.47561 0.0
C1245 C 0.4473 0.93881 0.46603 0.0
C1246 C 0.44295 0.93115 0.43673 0.0
C1247 C 0.41985 0.90121 0.4278 0.0
C1248 C 0.40094 0.87875 0.44799 0.0
C1249 C 0.40512 0.88617 0.47715 0.0
C1250 C 0.4282 0.91606 0.48619 0.0
C1251 C 0.46119 0.07706 0.52591 0.0
C1252 C 0.44644 0.06351 0.55196 0.0
C1253 C 0.47462 0.06321 0.50978 0.0
C1254 C 0.4733 0.03555 0.51942 0.0
C1255 C 0.45943 0.02257 0.54582 0.0
C1256 C 0.44632 0.03654 0.56206 0.0
C1257 C 0.48443 0.01879 0.50129 0.0
C1258 C 0.46272 0.98824 0.49228 0.0
C1259 C 0.51577 0.03251 0.4927 0.0
C1260 C 0.53982 0.0646 0.50182 0.0
C1261 C 0.5454 0.07246 0.53106 0.0
C1262 C 0.56817 0.10276 0.53945 0.0
C1263 C 0.58567 0.12536 0.51881 0.0
C1264 C 0.58048 0.11766 0.48972 0.0
C1265 C 0.55772 0.08739 0.48121 0.0
H1266 H 0.6033 0.1488 0.52535 0.0
H1267 H 0.38305 0.8556 0.44103 0.0
H1268 H 0.88712 0.36866 0.53312 0.0
H1269 H 0.91178 0.41853 0.50716 0.0
H1270 H -0.00326 0.44887 0.55531 0.0
H1271 H 0.9717 0.39929 0.58212 0.0
H1272 H 0.98626 0.49636 0.54722 0.0
H1273 H 0.98575 0.41647 0.48755 0.0
H1274 H 0.96118 0.36538 0.46257 0.0
H1275 H 0.90403 0.39119 0.41369 0.0
H1276 H 0.92798 0.44233 0.4386 0.0
H1277 H 0.09062 0.61466 0.45511 0.0
H1278 H 0.06339 0.56484 0.48085 0.0
H1279 H 0.97887 0.54069 0.43439 0.0
H1280 H 0.00617 0.59066 0.40822 0.0
H1281 H 0.9878 0.49014 0.44115 0.0
H1282 H 0.98939 0.5702 0.49877 0.0
H1283 H 0.01061 0.61991 0.52522 0.0
H1284 H 0.0655 0.59427 0.57783 0.0
H1285 H 0.04408 0.5439 0.55191 0.0
C1286 C 0.91092 0.38619 0.53844 0.0
C1287 C 0.92764 0.38017 0.55944 0.0
C1288 C 0.92502 0.41454 0.5235 0.0
C1289 C 0.95631 0.43702 0.5288 0.0
C1290 C 0.97261 0.4317 0.55077 0.0
C1291 C 0.95831 0.40346 0.56609 0.0
C1292 C 0.97233 0.4655 0.51071 0.0
C1293 C 0.98703 0.49501 0.52407 0.0
C1294 C 0.97251 0.46366 0.48043 0.0
C1295 C 0.95849 0.43313 0.4651 0.0
C1296 C 0.96784 0.41119 0.47158 0.0
C1297 C 0.95403 0.38223 0.45743 0.0
C1298 C 0.93101 0.37501 0.43663 0.0
C1299 C 0.92184 0.3968 0.42983 0.0
C1300 C 0.93555 0.4258 0.44392 0.0
C1301 C 0.06632 0.59861 0.4501 0.0
C1302 C 0.0504 0.60661 0.42985 0.0
C1303 C 0.0508 0.57022 0.46489 0.0
C1304 C 0.01904 0.54942 0.45985 0.0
C1305 C 0.0034 0.55657 0.43861 0.0
C1306 C 0.01898 0.58505 0.4237 0.0
C1307 C 0.00203 0.52094 0.47772 0.0
C1308 C 0.98712 0.49146 0.46431 0.0
C1309 C 0.0017 0.5228 0.50797 0.0
C1310 C 0.01524 0.55334 0.52325 0.0
C1311 C 0.00614 0.57522 0.51583 0.0
C1312 C 0.0182 0.60355 0.53076 0.0
C1313 C 0.03964 0.61047 0.55304 0.0
C1314 C 0.04891 0.58892 0.56054 0.0
C1315 C 0.03668 0.56038 0.54582 0.0
H1316 H 0.04895 0.63247 0.56456 0.0
H1317 H 0.92033 0.35255 0.42573 0.0
H1318 H 0.38609 0.48423 0.4623 0.0
H1319 H 0.43911 0.5068 0.48083 0.0
H1320 H 0.45787 0.45452 0.41824 0.0
H1321 H 0.40458 0.43157 0.39967 0.0
H1322 H 0.47526 0.44739 0.47127 0.0
H1323 H 0.49193 0.53323 0.4124 0.0
H1324 H 0.48247 0.57388 0.39188 0.0
H1325 H 0.49594 0.61649 0.47477 0.0
H1326 H 0.50493 0.57576 0.49593 0.0
H1327 H 0.63925 0.53572 0.51502 0.0
H1328 H 0.59169 0.51327 0.48535 0.0
H1329 H 0.54787 0.54124 0.54858 0.0
H1330 H 0.59468 0.56287 0.57853 0.0
H1331 H 0.54744 0.56113 0.48865 0.0
H1332 H 0.52382 0.47078 0.54764 0.0
H1333 H 0.53293 0.42981 0.56795 0.0
H1334 H 0.53323 0.39619 0.48334 0.0
H1335 H 0.52462 0.43735 0.46248 0.0
C1336 C 0.40162 0.47789 0.45219 0.0
C1337 C 0.39119 0.45614 0.42956 0.0
C1338 C 0.43197 0.4909 0.46273 0.0
C1339 C 0.45252 0.48251 0.45078 0.0
C1340 C 0.4424 0.46135 0.42771 0.0
C1341 C 0.41202 0.44839 0.41706 0.0
C1342 C 0.48375 0.4943 0.46379 0.0
C1343 C 0.49137 0.47231 0.47449 0.0
C1344 C 0.50452 0.52679 0.46837 0.0
C1345 C 0.49886 0.55124 0.4558 0.0
C1346 C 0.49257 0.55107 0.42633 0.0
C1347 C 0.48734 0.57417 0.41456 0.0
C1348 C 0.48853 0.59771 0.43202 0.0
C1349 C 0.49498 0.59822 0.46128 0.0
C1350 C 0.50017 0.57514 0.47317 0.0
C1351 C 0.61931 0.53671 0.52268 0.0
C1352 C 0.6206 0.55095 0.54908 0.0
C1353 C 0.59226 0.52393 0.50576 0.0
C1354 C 0.56647 0.52577 0.51484 0.0
C1355 C 0.56763 0.53968 0.54127 0.0
C1356 C 0.59433 0.55186 0.55839 0.0
C1357 C 0.53843 0.5142 0.49653 0.0
C1358 C 0.53151 0.53627 0.4849 0.0
C1359 C 0.51839 0.48186 0.491 0.0
C1360 C 0.5241 0.45747 0.50348 0.0
C1361 C 0.52628 0.45495 0.53334 0.0
C1362 C 0.53123 0.43161 0.54496 0.0
C1363 C 0.53379 0.41049 0.52694 0.0
C1364 C 0.53135 0.41263 0.49726 0.0
C1365 C 0.52644 0.43596 0.48553 0.0
H1366 H 0.53755 0.39239 0.53599 0.0
H1367 H 0.48451 0.61559 0.42286 0.0
loop_
_geom_bond_atom_site_label_1
_geom_bond_atom_site_label_2
_geom_bond_distance
_geom_bond_site_symmetry_2
_ccdc_geom_bond_type
Co0 O1 2.216 . S
Co0 O2 2.091 . S
Co0 O4 2.004 . S
Co0 O10 2.021 . S
Co0 O12 2.137 . S
Co0 O13 2.244 . S
O1 Co0 2.216 . S
O1 C8 1.247 . S
O2 Co0 2.091 . S
O2 C8 1.261 . S
C3 O12 1.247 . S
C3 O13 1.272 . S
O4 Co0 2.004 . S
O4 C9 1.259 . S
Co5 O6 2.061 . S
Co5 O11 2.052 . S
Co5 O13 2.135 . S
O6 Co5 2.061 . S
O6 C9 1.235 . S
C7 O10 1.238 . S
C7 O11 1.241 . S
C8 O1 1.247 . S
C8 O2 1.261 . S
C9 O4 1.259 . S
C9 O6 1.235 . S
O10 Co0 2.021 . S
O10 C7 1.238 . S
O11 Co5 2.052 . S
O11 C7 1.241 . S
O12 Co0 2.137 . S
O12 C3 1.247 . S
O13 Co0 2.244 . S
O13 C3 1.272 . S
O13 Co5 2.135 . S
Co14 O15 2.216 . S
Co14 O16 2.091 . S
Co14 O18 2.004 . S
Co14 O24 2.021 . S
Co14 O26 2.137 . S
Co14 O27 2.244 . S
O15 Co14 2.216 . S
O15 C22 1.247 . S
O16 Co14 2.091 . S
O16 C22 1.261 . S
C17 O26 1.247 . S
C17 O27 1.272 . S
O18 Co14 2.004 . S
O18 C23 1.259 . S
Co19 O20 2.061 . S
Co19 O25 2.052 . S
Co19 O27 2.135 . S
O20 Co19 2.061 . S
O20 C23 1.235 . S
C21 O24 1.238 . S
C21 O25 1.241 . S
C22 O15 1.247 . S
C22 O16 1.261 . S
C23 O18 1.259 . S
C23 O20 1.235 . S
O24 Co14 2.021 . S
O24 C21 1.238 . S
O25 Co19 2.052 . S
O25 C21 1.241 . S
O26 Co14 2.137 . S
O26 C17 1.247 . S
O27 Co14 2.244 . S
O27 C17 1.272 . S
O27 Co19 2.135 . S
Co28 O29 2.216 . S
Co28 O30 2.091 . S
Co28 O32 2.004 . S
Co28 O38 2.021 . S
Co28 O40 2.137 . S
Co28 O41 2.244 . S
O29 Co28 2.216 . S
O29 C36 1.247 . S
O30 Co28 2.091 . S
O30 C36 1.261 . S
C31 O40 1.247 . S
C31 O41 1.272 . S
O32 Co28 2.004 . S
O32 C37 1.259 . S
Co33 O34 2.061 . S
Co33 O39 2.052 . S
Co33 O41 2.135 . S
O34 Co33 2.061 . S
O34 C37 1.235 . S
C35 O38 1.238 . S
C35 O39 1.241 . S
C36 O29 1.247 . S
C36 O30 1.261 . S
C37 O32 1.259 . S
C37 O34 1.235 . S
O38 Co28 2.021 . S
O38 C35 1.238 . S
O39 Co33 2.052 . S
O39 C35 1.241 . S
O40 Co28 2.137 . S
O40 C31 1.247 . S
O41 Co28 2.244 . S
O41 C31 1.272 . S
O41 Co33 2.135 . S
Co42 O43 2.216 . S
Co42 O44 2.091 . S
Co42 O46 2.004 . S
Co42 O52 2.021 . S
Co42 O54 2.137 . S
Co42 O55 2.244 . S
O43 Co42 2.216 . S
O43 C50 1.247 . S
O44 Co42 2.091 . S
O44 C50 1.261 . S
C45 O54 1.247 . S
C45 O55 1.272 . S
O46 Co42 2.004 . S
O46 C51 1.259 . S
Co47 O48 2.061 . S
Co47 O53 2.052 . S
Co47 O55 2.135 . S
O48 Co47 2.061 . S
O48 C51 1.235 . S
C49 O52 1.238 . S
C49 O53 1.241 . S
C50 O43 1.247 . S
C50 O44 1.261 . S
C51 O46 1.259 . S
C51 O48 1.235 . S
O52 Co42 2.021 . S
O52 C49 1.238 . S
O53 Co47 2.052 . S
O53 C49 1.241 . S
O54 Co42 2.137 . S
O54 C45 1.247 . S
O55 Co42 2.244 . S
O55 C45 1.272 . S
O55 Co47 2.135 . S
Co56 O57 2.216 . S
Co56 O58 2.091 . S
Co56 O60 2.004 . S
Co56 O66 2.021 . S
Co56 O68 2.137 . S
Co56 O69 2.244 . S
O57 Co56 2.216 . S
O57 C64 1.247 . S
O58 Co56 2.091 . S
O58 C64 1.261 . S
C59 O68 1.247 . S
C59 O69 1.272 . S
O60 Co56 2.004 . S
O60 C65 1.259 . S
Co61 O62 2.061 . S
Co61 O67 2.052 . S
Co61 O69 2.135 . S
O62 Co61 2.061 . S
O62 C65 1.235 . S
C63 O66 1.238 . S
C63 O67 1.241 . S
C64 O57 1.247 . S
C64 O58 1.261 . S
C65 O60 1.259 . S
C65 O62 1.235 . S
O66 Co56 2.021 . S
O66 C63 1.238 . S
O67 Co61 2.052 . S
O67 C63 1.241 . S
O68 Co56 2.137 . S
O68 C59 1.247 . S
O69 Co56 2.244 . S
O69 C59 1.272 . S
O69 Co61 2.135 . S
Co70 O71 2.216 . S
Co70 O72 2.091 . S
Co70 O74 2.004 . S
Co70 O80 2.021 . S
Co70 O82 2.137 . S
Co70 O83 2.244 . S
O71 Co70 2.216 . S
O71 C78 1.247 . S
O72 Co70 2.091 . S
O72 C78 1.261 . S
C73 O82 1.247 . S
C73 O83 1.272 . S
O74 Co70 2.004 . S
O74 C79 1.259 . S
Co75 O76 2.061 . S
Co75 O81 2.052 . S
Co75 O83 2.135 . S
O76 Co75 2.061 . S
O76 C79 1.235 . S
C77 O80 1.238 . S
C77 O81 1.241 . S
C78 O71 1.247 . S
C78 O72 1.261 . S
C79 O74 1.259 . S
C79 O76 1.235 . S
O80 Co70 2.021 . S
O80 C77 1.238 . S
O81 Co75 2.052 . S
O81 C77 1.241 . S
O82 Co70 2.137 . S
O82 C73 1.247 . S
O83 Co70 2.244 . S
O83 C73 1.272 . S
O83 Co75 2.135 . S
Co84 O85 2.216 . S
Co84 O86 2.091 . S
Co84 O88 2.004 . S
Co84 O94 2.021 . S
Co84 O96 2.137 . S
Co84 O97 2.244 . S
O85 Co84 2.216 . S
O85 C92 1.247 . S
O86 Co84 2.091 . S
O86 C92 1.261 . S
C87 O96 1.247 . S
C87 O97 1.272 . S
O88 Co84 2.004 . S
O88 C93 1.259 . S
Co89 O90 2.061 . S
Co89 O95 2.052 . S
Co89 O97 2.135 . S
O90 Co89 2.061 . S
O90 C93 1.235 . S
C91 O94 1.238 . S
C91 O95 1.241 . S
C92 O85 1.247 . S
C92 O86 1.261 . S
C93 O88 1.259 . S
C93 O90 1.235 . S
O94 Co84 2.021 . S
O94 C91 1.238 . S
O95 Co89 2.052 . S
O95 C91 1.241 . S
O96 Co84 2.137 . S
O96 C87 1.247 . S
O97 Co84 2.244 . S
O97 C87 1.272 . S
O97 Co89 2.135 . S
Co98 O99 2.216 . S
Co98 O100 2.091 . S
Co98 O102 2.004 . S
Co98 O108 2.021 . S
Co98 O110 2.137 . S
Co98 O111 2.244 . S
O99 Co98 2.216 . S
O99 C106 1.247 . S
O100 Co98 2.091 . S
O100 C106 1.261 . S
C101 O110 1.247 . S
C101 O111 1.272 . S
O102 Co98 2.004 . S
O102 C107 1.259 . S
Co103 O104 2.061 . S
Co103 O109 2.052 . S
Co103 O111 2.135 . S
O104 Co103 2.061 . S
O104 C107 1.235 . S
C105 O108 1.238 . S
C105 O109 1.241 . S
C106 O99 1.247 . S
C106 O100 1.261 . S
C107 O102 1.259 . S
C107 O104 1.235 . S
O108 Co98 2.021 . S
O108 C105 1.238 . S
O109 Co103 2.052 . S
O109 C105 1.241 . S
O110 Co98 2.137 . S
O110 C101 1.247 . S
O111 Co98 2.244 . S
O111 C101 1.272 . S
O111 Co103 2.135 . S
Co112 O113 2.216 . S
Co112 O114 2.091 . S
Co112 O116 2.004 . S
Co112 O122 2.021 . S
Co112 O124 2.137 . S
Co112 O125 2.244 . S
O113 Co112 2.216 . S
O113 C120 1.247 . S
O114 Co112 2.091 . S
O114 C120 1.261 . S
C115 O124 1.247 . S
C115 O125 1.272 . S
O116 Co112 2.004 . S
O116 C121 1.259 . S
Co117 O118 2.061 . S
Co117 O123 2.052 . S
Co117 O125 2.135 . S
O118 Co117 2.061 . S
O118 C121 1.235 . S
C119 O122 1.238 . S
C119 O123 1.241 . S
C120 O113 1.247 . S
C120 O114 1.261 . S
C121 O116 1.259 . S
C121 O118 1.235 . S
O122 Co112 2.021 . S
O122 C119 1.238 . S
O123 Co117 2.052 . S
O123 C119 1.241 . S
O124 Co112 2.137 . S
O124 C115 1.247 . S
O125 Co112 2.244 . S
O125 C115 1.272 . S
O125 Co117 2.135 . S
Co126 O127 2.216 . S
Co126 O128 2.091 . S
Co126 O130 2.004 . S
Co126 O136 2.021 . S
Co126 O138 2.137 . S
Co126 O139 2.244 . S
O127 Co126 2.216 . S
O127 C134 1.247 . S
O128 Co126 2.091 . S
O128 C134 1.261 . S
C129 O138 1.247 . S
C129 O139 1.272 . S
O130 Co126 2.004 . S
O130 C135 1.259 . S
Co131 O132 2.061 . S
Co131 O137 2.052 . S
Co131 O139 2.135 . S
O132 Co131 2.061 . S
O132 C135 1.235 . S
C133 O136 1.238 . S
C133 O137 1.241 . S
C134 O127 1.247 . S
C134 O128 1.261 . S
C135 O130 1.259 . S
C135 O132 1.235 . S
O136 Co126 2.021 . S
O136 C133 1.238 . S
O137 Co131 2.052 . S
O137 C133 1.241 . S
O138 Co126 2.137 . S
O138 C129 1.247 . S
O139 Co126 2.244 . S
O139 C129 1.272 . S
O139 Co131 2.135 . S
Co140 O141 2.216 . S
Co140 O142 2.091 . S
Co140 O144 2.004 . S
Co140 O150 2.021 . S
Co140 O152 2.137 . S
Co140 O153 2.244 . S
O141 Co140 2.216 . S
O141 C148 1.247 . S
O142 Co140 2.091 . S
O142 C148 1.261 . S
C143 O152 1.247 . S
C143 O153 1.272 . S
O144 Co140 2.004 . S
O144 C149 1.259 . S
Co145 O146 2.061 . S
Co145 O151 2.052 . S
Co145 O153 2.135 . S
O146 Co145 2.061 . S
O146 C149 1.235 . S
C147 O150 1.238 . S
C147 O151 1.241 . S
C148 O141 1.247 . S
C148 O142 1.261 . S
C149 O144 1.259 . S
C149 O146 1.235 . S
O150 Co140 2.021 . S
O150 C147 1.238 . S
O151 Co145 2.052 . S
O151 C147 1.241 . S
O152 Co140 2.137 . S
O152 C143 1.247 . S
O153 Co140 2.244 . S
O153 C143 1.272 . S
O153 Co145 2.135 . S
Co154 O155 2.216 . S
Co154 O156 2.091 . S
Co154 O158 2.004 . S
Co154 O164 2.021 . S
Co154 O166 2.137 . S
Co154 O167 2.244 . S
O155 Co154 2.216 . S
O155 C162 1.247 . S
O156 Co154 2.091 . S
O156 C162 1.261 . S
C157 O166 1.247 . S
C157 O167 1.272 . S
O158 Co154 2.004 . S
O158 C163 1.259 . S
Co159 O160 2.061 . S
Co159 O165 2.052 . S
Co159 O167 2.135 . S
O160 Co159 2.061 . S
O160 C163 1.235 . S
C161 O164 1.238 . S
C161 O165 1.241 . S
C162 O155 1.247 . S
C162 O156 1.261 . S
C163 O158 1.259 . S
C163 O160 1.235 . S
O164 Co154 2.021 . S
O164 C161 1.238 . S
O165 Co159 2.052 . S
O165 C161 1.241 . S
O166 Co154 2.137 . S
O166 C157 1.247 . S
O167 Co154 2.244 . S
O167 C157 1.272 . S
O167 Co159 2.135 . S
H168 C186 0.951 . S
H169 C188 0.951 . S
H170 C190 0.950 . S
H171 C191 0.950 1_556 S
H172 C193 0.950 . S
H173 C196 0.954 . S
H174 C197 0.950 1_556 S
H175 C199 0.950 . S
H176 C200 0.950 . S
H177 C201 0.951 . S
H178 C203 0.951 . S
H179 C205 0.950 1_554 S
H180 C206 0.950 . S
H181 C208 0.950 . S
H182 C211 0.923 1_554 S
H183 C212 0.950 . S
H184 C214 0.950 . S
H185 C215 0.950 . S
C186 H168 0.951 . S
C186 C187 1.366 . S
C186 C188 1.388 . S
C187 C186 1.366 . S
C187 C191 1.385 . S
C188 H169 0.951 . S
C188 C186 1.388 . S
C188 C189 1.366 . S
C189 C188 1.366 . S
C189 C190 1.414 1_554 S
C189 C192 1.499 . S
C190 H170 0.950 . S
C190 C189 1.414 1_556 S
C190 C191 1.374 1_556 S
C191 H171 0.950 1_554 S
C191 C187 1.385 . S
C191 C190 1.374 1_554 S
C192 C189 1.499 . S
C192 C193 1.373 1_554 S
C192 C194 1.389 . S
C193 H172 0.950 . S
C193 C192 1.373 1_556 S
C193 C209 1.377 . S
C194 C192 1.389 . S
C194 C195 1.524 . S
C194 C208 1.377 1_554 S
C195 C194 1.524 . S
C195 C196 1.394 1_554 S
C195 C200 1.363 . S
C196 H173 0.954 . S
C196 C195 1.394 1_556 S
C196 C197 1.333 1_556 S
C197 H174 0.950 1_554 S
C197 C196 1.333 1_554 S
C197 C198 1.287 . S
C198 C197 1.287 . S
C198 C199 1.524 . S
C198 H217 0.913 . S
C199 H175 0.950 . S
C199 C198 1.524 . S
C199 C200 1.415 . S
C200 H176 0.950 . S
C200 C195 1.363 . S
C200 C199 1.415 . S
C201 H177 0.951 . S
C201 C202 1.366 . S
C201 C203 1.388 . S
C202 C201 1.366 . S
C202 C206 1.385 . S
C203 H178 0.951 . S
C203 C201 1.388 . S
C203 C204 1.366 . S
C204 C203 1.366 . S
C204 C205 1.414 . S
C204 C207 1.499 . S
C205 H179 0.950 1_556 S
C205 C204 1.414 . S
C205 C206 1.374 . S
C206 H180 0.950 . S
C206 C202 1.385 . S
C206 C205 1.374 . S
C207 C204 1.499 . S
C207 C208 1.373 . S
C207 C209 1.389 . S
C208 H181 0.950 . S
C208 C194 1.377 1_556 S
C208 C207 1.373 . S
C209 C193 1.377 . S
C209 C207 1.389 . S
C209 C210 1.524 . S
C210 C209 1.524 . S
C210 C211 1.397 . S
C210 C215 1.363 . S
C211 H182 0.923 1_556 S
C211 C210 1.397 . S
C211 C212 1.334 . S
C212 H183 0.950 . S
C212 C211 1.334 . S
C212 C213 1.287 . S
C213 C212 1.287 . S
C213 C214 1.524 . S
C213 H216 0.999 . S
C214 H184 0.950 . S
C214 C213 1.524 . S
C214 C215 1.415 . S
C215 H185 0.950 . S
C215 C210 1.363 . S
C215 C214 1.415 . S
H216 C213 0.999 . S
H217 C198 0.913 . S
H218 C236 0.951 . S
H219 C238 0.951 1_556 S
H220 C240 0.950 . S
H221 C241 0.950 . S
H222 C243 0.950 . S
H223 C246 0.950 . S
H224 C247 0.950 . S
H225 C249 0.950 . S
H226 C250 0.950 . S
H227 C251 0.951 . S
H228 C253 0.951 1_554 S
H229 C255 0.950 . S
H230 C256 0.950 1_545 S
H231 C258 0.950 . S
H232 C261 0.950 . S
H233 C262 0.950 . S
H234 C264 0.950 . S
H235 C265 0.950 . S
C236 H218 0.951 . S
C236 C237 1.366 . S
C236 C238 1.388 . S
C237 C236 1.366 . S
C237 C241 1.385 . S
C238 H219 0.951 1_554 S
C238 C236 1.388 . S
C238 C239 1.366 . S
C239 C238 1.366 . S
C239 C240 1.414 . S
C239 C242 1.499 . S
C240 H220 0.950 . S
C240 C239 1.414 . S
C240 C241 1.374 . S
C241 H221 0.950 . S
C241 C237 1.385 . S
C241 C240 1.374 . S
C242 C239 1.499 . S
C242 C243 1.373 . S
C242 C244 1.389 1_554 S
C243 H222 0.950 . S
C243 C242 1.373 . S
C243 C259 1.377 1_554 S
C244 C242 1.389 1_556 S
C244 C245 1.524 1_556 S
C244 C258 1.377 . S
C245 C244 1.524 1_554 S
C245 C246 1.397 . S
C245 C250 1.363 1_554 S
C246 H223 0.950 . S
C246 C245 1.397 . S
C246 C247 1.334 . S
C247 H224 0.950 . S
C247 C246 1.334 . S
C247 C248 1.287 . S
C248 C247 1.287 . S
C248 C249 1.524 1_554 S
C248 H267 0.913 . S
C249 H225 0.950 . S
C249 C248 1.524 1_556 S
C249 C250 1.415 . S
C250 H226 0.950 . S
C250 C245 1.363 1_556 S
C250 C249 1.415 . S
C251 H227 0.951 . S
C251 C252 1.366 . S
C251 C253 1.388 1_545 S
C252 C251 1.366 . S
C252 C256 1.385 1_545 S
C253 H228 0.951 1_556 S
C253 C251 1.388 1_565 S
C253 C254 1.366 . S
C254 C253 1.366 . S
C254 C255 1.414 . S
C254 C257 1.499 . S
C255 H229 0.950 . S
C255 C254 1.414 . S
C255 C256 1.374 . S
C256 H230 0.950 1_565 S
C256 C252 1.385 1_565 S
C256 C255 1.374 . S
C257 C254 1.499 . S
C257 C258 1.373 . S
C257 C259 1.389 . S
C258 H231 0.950 . S
C258 C244 1.377 . S
C258 C257 1.373 . S
C259 C243 1.377 1_556 S
C259 C257 1.389 . S
C259 C260 1.524 . S
C260 C259 1.524 . S
C260 C261 1.397 . S
C260 C265 1.363 1_556 S
C261 H232 0.950 . S
C261 C260 1.397 . S
C261 C262 1.334 . S
C262 H233 0.950 . S
C262 C261 1.334 . S
C262 C263 1.287 . S
C263 C262 1.287 . S
C263 C264 1.524 1_556 S
C263 H266 0.999 . S
C264 H234 0.950 . S
C264 C263 1.524 1_554 S
C264 C265 1.415 . S
C265 H235 0.950 . S
C265 C260 1.363 1_554 S
C265 C264 1.415 . S
H266 C263 0.999 . S
H267 C248 0.913 . S
H268 C286 0.951 . S
H269 C288 0.951 . S
H270 C290 0.957 . S
H271 C291 0.953 . S
H272 C293 0.950 . S
H273 C296 0.950 . S
H274 C297 0.950 . S
H275 C299 0.950 . S
H276 C300 0.950 . S
H277 C301 0.951 1_655 S
H278 C303 0.951 . S
H279 C305 0.950 1_554 S
H280 C306 0.950 . S
H281 C308 0.950 . S
H282 C311 0.950 1_554 S
H283 C312 0.950 1_655 S
H284 C314 0.950 . S
H285 C315 0.950 . S
C286 H268 0.951 . S
C286 C287 1.366 . S
C286 C288 1.388 . S
C287 C286 1.366 . S
C287 C291 1.385 . S
C288 H269 0.951 . S
C288 C286 1.388 . S
C288 C289 1.366 . S
C289 C288 1.366 . S
C289 C290 1.410 1_554 S
C289 C292 1.499 . S
C290 H270 0.957 . S
C290 C289 1.410 1_556 S
C290 C291 1.371 1_556 S
C291 H271 0.953 . S
C291 C287 1.385 . S
C291 C290 1.371 1_554 S
C292 C289 1.499 . S
C292 C293 1.373 1_554 S
C292 C294 1.389 . S
C293 H272 0.950 . S
C293 C292 1.373 1_556 S
C293 C309 1.377 . S
C294 C292 1.389 . S
C294 C295 1.524 . S
C294 C308 1.377 1_554 S
C295 C294 1.524 . S
C295 C296 1.397 1_554 S
C295 C300 1.363 . S
C296 H273 0.950 . S
C296 C295 1.397 1_556 S
C296 C297 1.334 . S
C297 H274 0.950 . S
C297 C296 1.334 . S
C297 C298 1.287 1_556 S
C298 C297 1.287 1_554 S
C298 C299 1.524 . S
C298 H317 0.913 . S
C299 H275 0.950 . S
C299 C298 1.524 . S
C299 C300 1.415 . S
C300 H276 0.950 . S
C300 C295 1.363 . S
C300 C299 1.415 . S
C301 H277 0.951 1_455 S
C301 C302 1.366 1_455 S
C301 C303 1.388 . S
C302 C301 1.366 1_655 S
C302 C306 1.385 . S
C303 H278 0.951 . S
C303 C301 1.388 . S
C303 C304 1.366 . S
C304 C303 1.366 . S
C304 C305 1.414 . S
C304 C307 1.499 . S
C305 H279 0.950 1_556 S
C305 C304 1.414 . S
C305 C306 1.374 1_455 S
C306 H280 0.950 . S
C306 C302 1.385 . S
C306 C305 1.374 1_655 S
C307 C304 1.499 . S
C307 C308 1.373 . S
C307 C309 1.389 . S
C308 H281 0.950 . S
C308 C294 1.377 1_556 S
C308 C307 1.373 . S
C309 C293 1.377 . S
C309 C307 1.389 . S
C309 C310 1.524 . S
C310 C309 1.524 . S
C310 C311 1.397 . S
C310 C315 1.363 . S
C311 H282 0.950 1_556 S
C311 C310 1.397 . S
C311 C312 1.334 . S
C312 H283 0.950 1_455 S
C312 C311 1.334 . S
C312 C313 1.287 . S
C313 C312 1.287 . S
C313 C314 1.524 . S
C313 H316 0.999 . S
C314 H284 0.950 . S
C314 C313 1.524 . S
C314 C315 1.415 . S
C315 H285 0.950 . S
C315 C310 1.363 . S
C315 C314 1.415 . S
H316 C313 0.999 . S
H317 C298 0.913 . S
H318 C336 0.951 . S
H319 C338 0.951 . S
H320 C340 0.950 . S
H321 C341 0.950 . S
H322 C343 0.950 . S
H323 C346 0.950 . S
H324 C347 0.950 . S
H325 C349 0.950 . S
H326 C350 0.950 . S
H327 C351 0.951 . S
H328 C353 0.951 . S
H329 C355 0.950 . S
H330 C356 0.950 . S
H331 C358 0.950 . S
H332 C361 0.950 . S
H333 C362 0.950 . S
H334 C364 0.950 . S
H335 C365 0.950 . S
C336 H318 0.951 . S
C336 C337 1.366 . S
C336 C338 1.388 . S
C337 C336 1.366 . S
C337 C341 1.385 . S
C338 H319 0.951 . S
C338 C336 1.388 . S
C338 C339 1.366 . S
C339 C338 1.366 . S
C339 C340 1.414 . S
C339 C342 1.499 . S
C340 H320 0.950 . S
C340 C339 1.414 . S
C340 C341 1.374 . S
C341 H321 0.950 . S
C341 C337 1.385 . S
C341 C340 1.374 . S
C342 C339 1.499 . S
C342 C343 1.373 . S
C342 C344 1.389 . S
C343 H322 0.950 . S
C343 C342 1.373 . S
C343 C359 1.377 . S
C344 C342 1.389 . S
C344 C345 1.524 . S
C344 C358 1.377 . S
C345 C344 1.524 . S
C345 C346 1.397 . S
C345 C350 1.363 . S
C346 H323 0.950 . S
C346 C345 1.397 . S
C346 C347 1.334 . S
C347 H324 0.950 . S
C347 C346 1.334 . S
C347 C348 1.287 . S
C348 C347 1.287 . S
C348 C349 1.524 . S
C348 H367 0.913 . S
C349 H325 0.950 . S
C349 C348 1.524 . S
C349 C350 1.415 . S
C350 H326 0.950 . S
C350 C345 1.363 . S
C350 C349 1.415 . S
C351 H327 0.951 . S
C351 C352 1.366 . S
C351 C353 1.388 . S
C352 C351 1.366 . S
C352 C356 1.385 . S
C353 H328 0.951 . S
C353 C351 1.388 . S
C353 C354 1.366 . S
C354 C353 1.366 . S
C354 C355 1.414 . S
C354 C357 1.499 . S
C355 H329 0.950 . S
C355 C354 1.414 . S
C355 C356 1.374 . S
C356 H330 0.950 . S
C356 C352 1.385 . S
C356 C355 1.374 . S
C357 C354 1.499 . S
C357 C358 1.373 . S
C357 C359 1.389 . S
C358 H331 0.950 . S
C358 C344 1.377 . S
C358 C357 1.373 . S
C359 C343 1.377 . S
C359 C357 1.389 . S
C359 C360 1.524 . S
C360 C359 1.524 . S
C360 C361 1.397 . S
C360 C365 1.363 . S
C361 H332 0.950 . S
C361 C360 1.397 . S
C361 C362 1.334 . S
C362 H333 0.950 . S
C362 C361 1.334 . S
C362 C363 1.287 . S
C363 C362 1.287 . S
C363 C364 1.524 . S
C363 H366 0.999 . S
C364 H334 0.950 . S
C364 C363 1.524 . S
C364 C365 1.415 . S
C365 H335 0.950 . S
C365 C360 1.363 . S
C365 C364 1.415 . S
H366 C363 0.999 . S
H367 C348 0.913 . S
H368 C386 0.951 . S
H369 C388 0.951 . S
H370 C390 0.950 . S
H371 C391 0.950 . S
H372 C393 0.950 . S
H373 C396 0.950 . S
H374 C397 0.950 . S
H375 C399 0.950 . S
H376 C400 0.950 . S
H377 C401 0.951 1_545 S
H378 C403 0.951 . S
H379 C405 0.950 . S
H380 C406 0.950 . S
H381 C408 0.950 . S
H382 C411 0.950 . S
H383 C412 0.950 . S
H384 C414 0.950 . S
H385 C415 0.950 . S
C386 H368 0.951 . S
C386 C387 1.366 . S
C386 C388 1.388 . S
C387 C386 1.366 . S
C387 C391 1.385 . S
C388 H369 0.951 . S
C388 C386 1.388 . S
C388 C389 1.366 . S
C389 C388 1.366 . S
C389 C390 1.414 . S
C389 C392 1.499 . S
C390 H370 0.950 . S
C390 C389 1.414 . S
C390 C391 1.374 . S
C391 H371 0.950 . S
C391 C387 1.385 . S
C391 C390 1.374 . S
C392 C389 1.499 . S
C392 C393 1.373 . S
C392 C394 1.389 . S
C393 H372 0.950 . S
C393 C392 1.373 . S
C393 C409 1.377 . S
C394 C392 1.389 . S
C394 C395 1.524 . S
C394 C408 1.377 . S
C395 C394 1.524 . S
C395 C396 1.397 . S
C395 C400 1.363 . S
C396 H373 0.950 . S
C396 C395 1.397 . S
C396 C397 1.334 . S
C397 H374 0.950 . S
C397 C396 1.334 . S
C397 C398 1.287 . S
C398 C397 1.287 . S
C398 C399 1.524 . S
C398 H417 0.913 . S
C399 H375 0.950 . S
C399 C398 1.524 . S
C399 C400 1.415 . S
C400 H376 0.950 . S
C400 C395 1.363 . S
C400 C399 1.415 . S
C401 H377 0.951 1_565 S
C401 C402 1.366 1_565 S
C401 C403 1.388 . S
C402 C401 1.366 1_545 S
C402 C406 1.385 . S
C403 H378 0.951 . S
C403 C401 1.388 . S
C403 C404 1.366 . S
C404 C403 1.366 . S
C404 C405 1.414 . S
C404 C407 1.499 . S
C405 H379 0.950 . S
C405 C404 1.414 . S
C405 C406 1.374 1_565 S
C406 H380 0.950 . S
C406 C402 1.385 . S
C406 C405 1.374 1_545 S
C407 C404 1.499 . S
C407 C408 1.373 . S
C407 C409 1.389 . S
C408 H381 0.950 . S
C408 C394 1.377 . S
C408 C407 1.373 . S
C409 C393 1.377 . S
C409 C407 1.389 . S
C409 C410 1.524 . S
C410 C409 1.524 . S
C410 C411 1.397 . S
C410 C415 1.363 . S
C411 H382 0.950 . S
C411 C410 1.397 . S
C411 C412 1.334 . S
C412 H383 0.950 . S
C412 C411 1.334 . S
C412 C413 1.287 . S
C413 C412 1.287 . S
C413 C414 1.524 . S
C413 H416 0.999 . S
C414 H384 0.950 . S
C414 C413 1.524 . S
C414 C415 1.415 . S
C415 H385 0.950 . S
C415 C410 1.363 . S
C415 C414 1.415 . S
H416 C413 0.999 . S
H417 C398 0.913 . S
H418 C436 0.949 1_655 S
H419 C438 0.951 . S
H420 C440 0.950 . S
H421 C441 0.950 1_655 S
H422 C443 0.950 . S
H423 C446 0.950 . S
H424 C447 0.950 . S
H425 C449 0.950 . S
H426 C450 0.950 . S
H427 C451 0.951 . S
H428 C453 0.951 . S
H429 C455 0.950 . S
H430 C456 0.950 . S
H431 C458 0.950 . S
H432 C461 0.950 . S
H433 C462 0.950 . S
H434 C464 0.950 . S
H435 C465 0.950 . S
C436 H418 0.949 1_455 S
C436 C437 1.366 1_455 S
C436 C438 1.388 . S
C437 C436 1.366 1_655 S
C437 C441 1.385 1_655 S
C438 H419 0.951 . S
C438 C436 1.388 . S
C438 C439 1.366 . S
C439 C438 1.366 . S
C439 C440 1.414 . S
C439 C442 1.499 . S
C440 H420 0.950 . S
C440 C439 1.414 . S
C440 C441 1.374 . S
C441 H421 0.950 1_455 S
C441 C437 1.385 1_455 S
C441 C440 1.374 . S
C442 C439 1.499 . S
C442 C443 1.373 . S
C442 C444 1.389 . S
C443 H422 0.950 . S
C443 C442 1.373 . S
C443 C459 1.377 . S
C444 C442 1.389 . S
C444 C445 1.524 . S
C444 C458 1.377 . S
C445 C444 1.524 . S
C445 C446 1.397 . S
C445 C450 1.363 . S
C446 H423 0.950 . S
C446 C445 1.397 . S
C446 C447 1.334 . S
C447 H424 0.950 . S
C447 C446 1.334 . S
C447 C448 1.287 . S
C448 C447 1.287 . S
C448 C449 1.524 . S
C448 H467 0.913 . S
C449 H425 0.950 . S
C449 C448 1.524 . S
C449 C450 1.415 . S
C450 H426 0.950 . S
C450 C445 1.363 . S
C450 C449 1.415 . S
C451 H427 0.951 . S
C451 C452 1.366 . S
C451 C453 1.388 . S
C452 C451 1.366 . S
C452 C456 1.385 . S
C453 H428 0.951 . S
C453 C451 1.388 . S
C453 C454 1.366 . S
C454 C453 1.366 . S
C454 C455 1.414 . S
C454 C457 1.499 . S
C455 H429 0.950 . S
C455 C454 1.414 . S
C455 C456 1.374 . S
C456 H430 0.950 . S
C456 C452 1.385 . S
C456 C455 1.374 . S
C457 C454 1.499 . S
C457 C458 1.373 . S
C457 C459 1.389 . S
C458 H431 0.950 . S
C458 C444 1.377 . S
C458 C457 1.373 . S
C459 C443 1.377 . S
C459 C457 1.389 . S
C459 C460 1.524 . S
C460 C459 1.524 . S
C460 C461 1.397 . S
C460 C465 1.363 . S
C461 H432 0.950 . S
C461 C460 1.397 . S
C461 C462 1.334 . S
C462 H433 0.950 . S
C462 C461 1.334 . S
C462 C463 1.287 . S
C463 C462 1.287 . S
C463 C464 1.524 . S
C463 H466 0.999 . S
C464 H434 0.950 . S
C464 C463 1.524 . S
C464 C465 1.415 . S
C465 H435 0.950 . S
C465 C460 1.363 . S
C465 C464 1.415 . S
H466 C463 0.999 . S
H467 C448 0.913 . S
H468 C486 0.951 . S
H469 C488 0.951 . S
H470 C490 0.950 1_556 S
H471 C491 0.950 . S
H472 C493 0.950 . S
H473 C496 0.950 . S
H474 C497 0.950 . S
H475 C499 0.950 . S
H476 C500 0.950 . S
H477 C501 0.951 . S
H478 C503 0.951 . S
H479 C505 0.950 1_554 S
H480 C506 0.950 . S
H481 C508 0.950 . S
H482 C511 0.950 . S
H483 C512 0.950 . S
H484 C514 0.950 . S
H485 C515 0.950 . S
C486 H468 0.951 . S
C486 C487 1.366 . S
C486 C488 1.388 . S
C487 C486 1.366 . S
C487 C491 1.385 . S
C488 H469 0.951 . S
C488 C486 1.388 . S
C488 C489 1.366 . S
C489 C488 1.366 . S
C489 C490 1.414 . S
C489 C492 1.499 . S
C490 H470 0.950 1_554 S
C490 C489 1.414 . S
C490 C491 1.374 . S
C491 H471 0.950 . S
C491 C487 1.385 . S
C491 C490 1.374 . S
C492 C489 1.499 . S
C492 C493 1.373 1_554 S
C492 C494 1.389 . S
C493 H472 0.950 . S
C493 C492 1.373 1_556 S
C493 C509 1.377 . S
C494 C492 1.389 . S
C494 C495 1.524 . S
C494 C508 1.377 . S
C495 C494 1.524 . S
C495 C496 1.397 . S
C495 C500 1.363 . S
C496 H473 0.950 . S
C496 C495 1.397 . S
C496 C497 1.334 . S
C497 H474 0.950 . S
C497 C496 1.334 . S
C497 C498 1.287 . S
C498 C497 1.287 . S
C498 C499 1.524 . S
C498 H517 0.913 . S
C499 H475 0.950 . S
C499 C498 1.524 . S
C499 C500 1.415 . S
C500 H476 0.950 . S
C500 C495 1.363 . S
C500 C499 1.415 . S
C501 H477 0.951 . S
C501 C502 1.366 . S
C501 C503 1.388 . S
C502 C501 1.366 . S
C502 C506 1.385 . S
C503 H478 0.951 . S
C503 C501 1.388 . S
C503 C504 1.366 . S
C504 C503 1.366 . S
C504 C505 1.414 . S
C504 C507 1.499 . S
C505 H479 0.950 1_556 S
C505 C504 1.414 . S
C505 C506 1.374 . S
C506 H480 0.950 . S
C506 C502 1.385 . S
C506 C505 1.374 . S
C507 C504 1.499 . S
C507 C508 1.373 1_556 S
C507 C509 1.389 . S
C508 H481 0.950 . S
C508 C494 1.377 . S
C508 C507 1.373 1_554 S
C509 C493 1.377 . S
C509 C507 1.389 . S
C509 C510 1.524 . S
C510 C509 1.524 . S
C510 C511 1.397 . S
C510 C515 1.363 . S
C511 H482 0.950 . S
C511 C510 1.397 . S
C511 C512 1.334 . S
C512 H483 0.950 . S
C512 C511 1.334 . S
C512 C513 1.287 . S
C513 C512 1.287 . S
C513 C514 1.524 . S
C513 H516 0.999 . S
C514 H484 0.950 . S
C514 C513 1.524 . S
C514 C515 1.415 . S
C515 H485 0.950 . S
C515 C510 1.363 . S
C515 C514 1.415 . S
H516 C513 0.999 . S
H517 C498 0.913 . S
H518 C536 0.951 . S
H519 C538 0.951 1_554 S
H520 C540 0.950 . S
H521 C541 0.950 . S
H522 C543 0.950 . S
H523 C546 0.950 1_556 S
H524 C547 0.950 . S
H525 C549 0.950 . S
H526 C550 0.950 . S
H527 C551 0.964 . S
H528 C553 0.951 1_556 S
H529 C555 0.950 . S
H530 C556 0.950 . S
H531 C558 0.950 . S
H532 C561 0.970 . S
H533 C562 0.950 1_565 S
H534 C564 0.950 . S
H535 C565 0.950 . S
C536 H518 0.951 . S
C536 C537 1.366 . S
C536 C538 1.388 . S
C537 C536 1.366 . S
C537 C541 1.385 . S
C538 H519 0.951 1_556 S
C538 C536 1.388 . S
C538 C539 1.366 . S
C539 C538 1.366 . S
C539 C540 1.414 . S
C539 C542 1.499 . S
C540 H520 0.950 . S
C540 C539 1.414 . S
C540 C541 1.374 . S
C541 H521 0.950 . S
C541 C537 1.385 . S
C541 C540 1.374 . S
C542 C539 1.499 . S
C542 C543 1.373 . S
C542 C544 1.389 1_556 S
C543 H522 0.950 . S
C543 C542 1.373 . S
C543 C559 1.377 . S
C544 C542 1.389 1_554 S
C544 C545 1.524 . S
C544 C558 1.377 . S
C545 C544 1.524 . S
C545 C546 1.397 . S
C545 C550 1.363 . S
C546 H523 0.950 1_554 S
C546 C545 1.397 . S
C546 C547 1.334 . S
C547 H524 0.950 . S
C547 C546 1.334 . S
C547 C548 1.287 . S
C548 C547 1.287 . S
C548 C549 1.524 . S
C548 H567 0.913 . S
C549 H525 0.950 . S
C549 C548 1.524 . S
C549 C550 1.415 . S
C550 H526 0.950 . S
C550 C545 1.363 . S
C550 C549 1.415 . S
C551 H527 0.964 . S
C551 C552 1.366 . S
C551 C553 1.388 1_565 S
C552 C551 1.366 . S
C552 C556 1.385 1_565 S
C553 H528 0.951 1_554 S
C553 C551 1.388 1_545 S
C553 C554 1.366 . S
C554 C553 1.366 . S
C554 C555 1.414 . S
C554 C557 1.499 . S
C555 H529 0.950 . S
C555 C554 1.414 . S
C555 C556 1.374 . S
C556 H530 0.950 . S
C556 C552 1.385 1_545 S
C556 C555 1.374 . S
C557 C554 1.499 . S
C557 C558 1.373 . S
C557 C559 1.389 1_554 S
C558 H531 0.950 . S
C558 C544 1.377 . S
C558 C557 1.373 . S
C559 C543 1.377 . S
C559 C557 1.389 1_556 S
C559 C560 1.524 . S
C560 C559 1.524 . S
C560 C561 1.397 . S
C560 C565 1.363 . S
C561 H532 0.970 . S
C561 C560 1.397 . S
C561 C562 1.334 . S
C562 H533 0.950 1_545 S
C562 C561 1.334 . S
C562 C563 1.287 . S
C563 C562 1.287 . S
C563 C564 1.524 . S
C563 H566 0.999 1_545 S
C564 H534 0.950 . S
C564 C563 1.524 . S
C564 C565 1.415 . S
C565 H535 0.950 . S
C565 C560 1.363 . S
C565 C564 1.415 . S
H566 C563 0.999 1_565 S
H567 C548 0.913 . S
H568 C586 0.951 . S
H569 C588 0.951 . S
H570 C590 0.950 . S
H571 C591 0.950 . S
H572 C593 0.950 . S
H573 C596 0.950 . S
H574 C597 0.950 . S
H575 C599 0.950 . S
H576 C600 0.950 . S
H577 C601 0.951 . S
H578 C603 0.951 . S
H579 C605 0.950 . S
H580 C606 0.950 . S
H581 C608 0.950 . S
H582 C611 0.950 . S
H583 C612 0.950 . S
H584 C614 0.950 . S
H585 C615 0.950 . S
C586 H568 0.951 . S
C586 C587 1.366 1_655 S
C586 C588 1.388 . S
C587 C586 1.366 1_455 S
C587 C591 1.385 . S
C588 H569 0.951 . S
C588 C586 1.388 . S
C588 C589 1.366 . S
C589 C588 1.366 . S
C589 C590 1.414 . S
C589 C592 1.499 . S
C590 H570 0.950 . S
C590 C589 1.414 . S
C590 C591 1.374 1_655 S
C591 H571 0.950 . S
C591 C587 1.385 . S
C591 C590 1.374 1_455 S
C592 C589 1.499 . S
C592 C593 1.373 1_554 S
C592 C594 1.389 . S
C593 H572 0.950 . S
C593 C592 1.373 1_556 S
C593 C609 1.377 . S
C594 C592 1.389 . S
C594 C595 1.524 . S
C594 C608 1.377 . S
C595 C594 1.524 . S
C595 C596 1.397 . S
C595 C600 1.363 . S
C596 H573 0.950 . S
C596 C595 1.397 . S
C596 C597 1.334 . S
C597 H574 0.950 . S
C597 C596 1.334 . S
C597 C598 1.287 . S
C598 C597 1.287 . S
C598 C599 1.524 . S
C598 H617 0.913 . S
C599 H575 0.950 . S
C599 C598 1.524 . S
C599 C600 1.415 . S
C600 H576 0.950 . S
C600 C595 1.363 . S
C600 C599 1.415 . S
C601 H577 0.951 . S
C601 C602 1.366 . S
C601 C603 1.388 . S
C602 C601 1.366 . S
C602 C606 1.385 . S
C603 H578 0.951 . S
C603 C601 1.388 . S
C603 C604 1.366 . S
C604 C603 1.366 . S
C604 C605 1.414 . S
C604 C607 1.499 . S
C605 H579 0.950 . S
C605 C604 1.414 . S
C605 C606 1.374 . S
C606 H580 0.950 . S
C606 C602 1.385 . S
C606 C605 1.374 . S
C607 C604 1.499 . S
C607 C608 1.373 1_556 S
C607 C609 1.389 . S
C608 H581 0.950 . S
C608 C594 1.377 . S
C608 C607 1.373 1_554 S
C609 C593 1.377 . S
C609 C607 1.389 . S
C609 C610 1.524 . S
C610 C609 1.524 . S
C610 C611 1.397 . S
C610 C615 1.363 . S
C611 H582 0.950 . S
C611 C610 1.397 . S
C611 C612 1.334 . S
C612 H583 0.950 . S
C612 C611 1.334 . S
C612 C613 1.287 . S
C613 C612 1.287 . S
C613 C614 1.524 . S
C613 H616 0.999 . S
C614 H584 0.950 . S
C614 C613 1.524 . S
C614 C615 1.415 . S
C615 H585 0.950 . S
C615 C610 1.363 . S
C615 C614 1.415 . S
H616 C613 0.999 . S
H617 C598 0.913 . S
H618 C636 0.951 . S
H619 C638 0.951 . S
H620 C640 0.950 . S
H621 C641 0.950 . S
H622 C643 0.950 . S
H623 C646 0.950 . S
H624 C647 0.950 . S
H625 C649 0.950 . S
H626 C650 0.950 . S
H627 C651 0.951 . S
H628 C653 0.951 . S
H629 C655 0.950 . S
H630 C656 0.950 . S
H631 C658 0.950 . S
H632 C661 0.950 . S
H633 C662 0.950 . S
H634 C664 0.950 . S
H635 C665 0.950 . S
C636 H618 0.951 . S
C636 C637 1.366 . S
C636 C638 1.388 . S
C637 C636 1.366 . S
C637 C641 1.385 . S
C638 H619 0.951 . S
C638 C636 1.388 . S
C638 C639 1.366 . S
C639 C638 1.366 . S
C639 C640 1.414 . S
C639 C642 1.499 . S
C640 H620 0.950 . S
C640 C639 1.414 . S
C640 C641 1.374 . S
C641 H621 0.950 . S
C641 C637 1.385 . S
C641 C640 1.374 . S
C642 C639 1.499 . S
C642 C643 1.373 . S
C642 C644 1.389 . S
C643 H622 0.950 . S
C643 C642 1.373 . S
C643 C659 1.377 . S
C644 C642 1.389 . S
C644 C645 1.524 . S
C644 C658 1.377 . S
C645 C644 1.524 . S
C645 C646 1.397 . S
C645 C650 1.363 . S
C646 H623 0.950 . S
C646 C645 1.397 . S
C646 C647 1.334 . S
C647 H624 0.950 . S
C647 C646 1.334 . S
C647 C648 1.287 . S
C648 C647 1.287 . S
C648 C649 1.524 . S
C648 H667 0.913 . S
C649 H625 0.950 . S
C649 C648 1.524 . S
C649 C650 1.415 . S
C650 H626 0.950 . S
C650 C645 1.363 . S
C650 C649 1.415 . S
C651 H627 0.951 . S
C651 C652 1.366 . S
C651 C653 1.388 . S
C652 C651 1.366 . S
C652 C656 1.385 . S
C653 H628 0.951 . S
C653 C651 1.388 . S
C653 C654 1.366 . S
C654 C653 1.366 . S
C654 C655 1.414 . S
C654 C657 1.499 . S
C655 H629 0.950 . S
C655 C654 1.414 . S
C655 C656 1.374 . S
C656 H630 0.950 . S
C656 C652 1.385 . S
C656 C655 1.374 . S
C657 C654 1.499 . S
C657 C658 1.373 . S
C657 C659 1.389 . S
C658 H631 0.950 . S
C658 C644 1.377 . S
C658 C657 1.373 . S
C659 C643 1.377 . S
C659 C657 1.389 . S
C659 C660 1.524 . S
C660 C659 1.524 . S
C660 C661 1.397 . S
C660 C665 1.363 . S
C661 H632 0.950 . S
C661 C660 1.397 . S
C661 C662 1.334 . S
C662 H633 0.950 . S
C662 C661 1.334 . S
C662 C663 1.287 . S
C663 C662 1.287 . S
C663 C664 1.524 . S
C663 H666 0.999 . S
C664 H634 0.950 . S
C664 C663 1.524 . S
C664 C665 1.415 . S
C665 H635 0.950 . S
C665 C660 1.363 . S
C665 C664 1.415 . S
H666 C663 0.999 . S
H667 C648 0.913 . S
H668 C686 0.951 . S
H669 C688 0.951 . S
H670 C690 0.950 . S
H671 C691 0.950 . S
H672 C693 0.950 . S
H673 C696 0.950 . S
H674 C697 0.950 . S
H675 C699 0.950 . S
H676 C700 0.950 . S
H677 C701 0.951 . S
H678 C703 0.951 . S
H679 C705 0.950 . S
H680 C706 0.950 . S
H681 C708 0.950 . S
H682 C711 0.950 . S
H683 C712 0.950 . S
H684 C714 0.950 . S
H685 C715 0.950 . S
C686 H668 0.951 . S
C686 C687 1.366 . S
C686 C688 1.388 . S
C687 C686 1.366 . S
C687 C691 1.385 . S
C688 H669 0.951 . S
C688 C686 1.388 . S
C688 C689 1.366 . S
C689 C688 1.366 . S
C689 C690 1.414 . S
C689 C692 1.499 . S
C690 H670 0.950 . S
C690 C689 1.414 . S
C690 C691 1.374 . S
C691 H671 0.950 . S
C691 C687 1.385 . S
C691 C690 1.374 . S
C692 C689 1.499 . S
C692 C693 1.373 . S
C692 C694 1.389 . S
C693 H672 0.950 . S
C693 C692 1.373 . S
C693 C709 1.377 . S
C694 C692 1.389 . S
C694 C695 1.524 . S
C694 C708 1.377 . S
C695 C694 1.524 . S
C695 C696 1.397 . S
C695 C700 1.363 . S
C696 H673 0.950 . S
C696 C695 1.397 . S
C696 C697 1.334 . S
C697 H674 0.950 . S
C697 C696 1.334 . S
C697 C698 1.287 . S
C698 C697 1.287 . S
C698 C699 1.524 . S
C698 H717 0.913 . S
C699 H675 0.950 . S
C699 C698 1.524 . S
C699 C700 1.415 . S
C700 H676 0.950 . S
C700 C695 1.363 . S
C700 C699 1.415 . S
C701 H677 0.951 . S
C701 C702 1.366 . S
C701 C703 1.388 1_565 S
C702 C701 1.366 . S
C702 C706 1.385 1_565 S
C703 H678 0.951 . S
C703 C701 1.388 1_545 S
C703 C704 1.366 . S
C704 C703 1.366 . S
C704 C705 1.414 . S
C704 C707 1.499 . S
C705 H679 0.950 . S
C705 C704 1.414 . S
C705 C706 1.374 . S
C706 H680 0.950 . S
C706 C702 1.385 1_545 S
C706 C705 1.374 . S
C707 C704 1.499 . S
C707 C708 1.373 . S
C707 C709 1.389 . S
C708 H681 0.950 . S
C708 C694 1.377 . S
C708 C707 1.373 . S
C709 C693 1.377 . S
C709 C707 1.389 . S
C709 C710 1.524 . S
C710 C709 1.524 . S
C710 C711 1.397 . S
C710 C715 1.363 . S
C711 H682 0.950 . S
C711 C710 1.397 . S
C711 C712 1.334 . S
C712 H683 0.950 . S
C712 C711 1.334 . S
C712 C713 1.287 . S
C713 C712 1.287 . S
C713 C714 1.524 . S
C713 H716 0.999 . S
C714 H684 0.950 . S
C714 C713 1.524 . S
C714 C715 1.415 . S
C715 H685 0.950 . S
C715 C710 1.363 . S
C715 C714 1.415 . S
H716 C713 0.999 . S
H717 C698 0.913 . S
H718 C736 0.951 . S
H719 C738 0.951 . S
H720 C740 0.950 . S
H721 C741 0.950 1_455 S
H722 C743 0.950 . S
H723 C746 0.950 . S
H724 C747 0.950 . S
H725 C749 0.950 . S
H726 C750 0.950 . S
H727 C751 0.951 . S
H728 C753 0.951 . S
H729 C755 0.950 . S
H730 C756 0.950 . S
H731 C758 0.950 . S
H732 C761 0.950 . S
H733 C762 0.950 . S
H734 C764 0.950 . S
H735 C765 0.950 . S
C736 H718 0.951 . S
C736 C737 1.366 . S
C736 C738 1.388 1_455 S
C737 C736 1.366 . S
C737 C741 1.385 1_455 S
C738 H719 0.951 . S
C738 C736 1.388 1_655 S
C738 C739 1.366 . S
C739 C738 1.366 . S
C739 C740 1.414 . S
C739 C742 1.499 . S
C740 H720 0.950 . S
C740 C739 1.414 . S
C740 C741 1.374 . S
C741 H721 0.950 1_655 S
C741 C737 1.385 1_655 S
C741 C740 1.374 . S
C742 C739 1.499 . S
C742 C743 1.373 . S
C742 C744 1.389 . S
C743 H722 0.950 . S
C743 C742 1.373 . S
C743 C759 1.377 . S
C744 C742 1.389 . S
C744 C745 1.524 . S
C744 C758 1.377 . S
C745 C744 1.524 . S
C745 C746 1.397 . S
C745 C750 1.363 . S
C746 H723 0.950 . S
C746 C745 1.397 . S
C746 C747 1.334 . S
C747 H724 0.950 . S
C747 C746 1.334 . S
C747 C748 1.287 . S
C748 C747 1.287 . S
C748 C749 1.524 . S
C748 H767 0.913 . S
C749 H725 0.950 . S
C749 C748 1.524 . S
C749 C750 1.415 . S
C750 H726 0.950 . S
C750 C745 1.363 . S
C750 C749 1.415 . S
C751 H727 0.951 . S
C751 C752 1.366 . S
C751 C753 1.388 . S
C752 C751 1.366 . S
C752 C756 1.385 . S
C753 H728 0.951 . S
C753 C751 1.388 . S
C753 C754 1.366 . S
C754 C753 1.366 . S
C754 C755 1.414 . S
C754 C757 1.499 . S
C755 H729 0.950 . S
C755 C754 1.414 . S
C755 C756 1.374 . S
C756 H730 0.950 . S
C756 C752 1.385 . S
C756 C755 1.374 . S
C757 C754 1.499 . S
C757 C758 1.373 . S
C757 C759 1.389 . S
C758 H731 0.950 . S
C758 C744 1.377 . S
C758 C757 1.373 . S
C759 C743 1.377 . S
C759 C757 1.389 . S
C759 C760 1.524 . S
C760 C759 1.524 . S
C760 C761 1.397 . S
C760 C765 1.363 . S
C761 H732 0.950 . S
C761 C760 1.397 . S
C761 C762 1.334 . S
C762 H733 0.950 . S
C762 C761 1.334 . S
C762 C763 1.287 . S
C763 C762 1.287 . S
C763 C764 1.524 . S
C763 H766 0.999 . S
C764 H734 0.950 . S
C764 C763 1.524 . S
C764 C765 1.415 . S
C765 H735 0.950 . S
C765 C760 1.363 . S
C765 C764 1.415 . S
H766 C763 0.999 . S
H767 C748 0.913 . S
H768 C786 0.951 . S
H769 C788 0.951 . S
H770 C790 0.950 . S
H771 C791 0.950 . S
H772 C793 0.950 . S
H773 C796 0.950 . S
H774 C797 0.950 . S
H775 C799 0.950 . S
H776 C800 0.950 . S
H777 C801 0.951 . S
H778 C803 0.951 . S
H779 C805 0.950 . S
H780 C806 0.950 . S
H781 C808 0.950 . S
H782 C811 0.950 . S
H783 C812 0.950 . S
H784 C814 0.950 . S
H785 C815 0.950 . S
C786 H768 0.951 . S
C786 C787 1.366 . S
C786 C788 1.388 . S
C787 C786 1.366 . S
C787 C791 1.385 . S
C788 H769 0.951 . S
C788 C786 1.388 . S
C788 C789 1.366 . S
C789 C788 1.366 . S
C789 C790 1.414 . S
C789 C792 1.499 . S
C790 H770 0.950 . S
C790 C789 1.414 . S
C790 C791 1.374 . S
C791 H771 0.950 . S
C791 C787 1.385 . S
C791 C790 1.374 . S
C792 C789 1.499 . S
C792 C793 1.373 . S
C792 C794 1.389 . S
C793 H772 0.950 . S
C793 C792 1.373 . S
C793 C809 1.377 . S
C794 C792 1.389 . S
C794 C795 1.524 . S
C794 C808 1.377 . S
C795 C794 1.524 . S
C795 C796 1.397 . S
C795 C800 1.363 . S
C796 H773 0.950 . S
C796 C795 1.397 . S
C796 C797 1.334 . S
C797 H774 0.950 . S
C797 C796 1.334 . S
C797 C798 1.287 . S
C798 C797 1.287 . S
C798 C799 1.524 . S
C798 H817 0.913 . S
C799 H775 0.950 . S
C799 C798 1.524 . S
C799 C800 1.415 . S
C800 H776 0.950 . S
C800 C795 1.363 . S
C800 C799 1.415 . S
C801 H777 0.951 . S
C801 C802 1.366 . S
C801 C803 1.388 . S
C802 C801 1.366 . S
C802 C806 1.385 . S
C803 H778 0.951 . S
C803 C801 1.388 . S
C803 C804 1.366 . S
C804 C803 1.366 . S
C804 C805 1.414 . S
C804 C807 1.499 . S
C805 H779 0.950 . S
C805 C804 1.414 . S
C805 C806 1.374 . S
C806 H780 0.950 . S
C806 C802 1.385 . S
C806 C805 1.374 . S
C807 C804 1.499 . S
C807 C808 1.373 . S
C807 C809 1.389 . S
C808 H781 0.950 . S
C808 C794 1.377 . S
C808 C807 1.373 . S
C809 C793 1.377 . S
C809 C807 1.389 . S
C809 C810 1.524 . S
C810 C809 1.524 . S
C810 C811 1.397 . S
C810 C815 1.363 . S
C811 H782 0.950 . S
C811 C810 1.397 . S
C811 C812 1.334 . S
C812 H783 0.950 . S
C812 C811 1.334 . S
C812 C813 1.287 . S
C813 C812 1.287 . S
C813 C814 1.524 . S
C813 H816 0.999 . S
C814 H784 0.950 . S
C814 C813 1.524 . S
C814 C815 1.415 . S
C815 H785 0.950 . S
C815 C810 1.363 . S
C815 C814 1.415 . S
H816 C813 0.999 . S
H817 C798 0.913 . S
H818 C836 0.951 . S
H819 C838 0.951 . S
H820 C840 0.950 . S
H821 C841 0.950 . S
H822 C843 0.950 . S
H823 C846 0.950 . S
H824 C847 0.950 . S
H825 C849 0.950 . S
H826 C850 0.950 . S
H827 C851 0.951 . S
H828 C853 0.951 . S
H829 C855 0.950 . S
H830 C856 0.950 . S
H831 C858 0.950 . S
H832 C861 0.950 . S
H833 C862 0.950 . S
H834 C864 0.950 . S
H835 C865 0.950 . S
C836 H818 0.951 . S
C836 C837 1.366 . S
C836 C838 1.388 . S
C837 C836 1.366 . S
C837 C841 1.385 . S
C838 H819 0.951 . S
C838 C836 1.388 . S
C838 C839 1.366 . S
C839 C838 1.366 . S
C839 C840 1.414 . S
C839 C842 1.499 . S
C840 H820 0.950 . S
C840 C839 1.414 . S
C840 C841 1.374 . S
C841 H821 0.950 . S
C841 C837 1.385 . S
C841 C840 1.374 . S
C842 C839 1.499 . S
C842 C843 1.373 . S
C842 C844 1.389 . S
C843 H822 0.950 . S
C843 C842 1.373 . S
C843 C859 1.377 . S
C844 C842 1.389 . S
C844 C845 1.524 . S
C844 C858 1.377 . S
C845 C844 1.524 . S
C845 C846 1.397 . S
C845 C850 1.363 . S
C846 H823 0.950 . S
C846 C845 1.397 . S
C846 C847 1.334 . S
C847 H824 0.950 . S
C847 C846 1.334 . S
C847 C848 1.287 . S
C848 C847 1.287 . S
C848 C849 1.524 . S
C848 H867 0.913 . S
C849 H825 0.950 . S
C849 C848 1.524 . S
C849 C850 1.415 . S
C850 H826 0.950 . S
C850 C845 1.363 . S
C850 C849 1.415 . S
C851 H827 0.951 . S
C851 C852 1.366 . S
C851 C853 1.388 . S
C852 C851 1.366 . S
C852 C856 1.385 . S
C853 H828 0.951 . S
C853 C851 1.388 . S
C853 C854 1.366 . S
C854 C853 1.366 . S
C854 C855 1.414 . S
C854 C857 1.499 . S
C855 H829 0.950 . S
C855 C854 1.414 . S
C855 C856 1.374 . S
C856 H830 0.950 . S
C856 C852 1.385 . S
C856 C855 1.374 . S
C857 C854 1.499 . S
C857 C858 1.373 . S
C857 C859 1.389 . S
C858 H831 0.950 . S
C858 C844 1.377 . S
C858 C857 1.373 . S
C859 C843 1.377 . S
C859 C857 1.389 . S
C859 C860 1.524 . S
C860 C859 1.524 . S
C860 C861 1.397 . S
C860 C865 1.363 . S
C861 H832 0.950 . S
C861 C860 1.397 . S
C861 C862 1.334 . S
C862 H833 0.950 . S
C862 C861 1.334 . S
C862 C863 1.287 . S
C863 C862 1.287 . S
C863 C864 1.524 . S
C863 H866 0.999 . S
C864 H834 0.950 . S
C864 C863 1.524 . S
C864 C865 1.415 . S
C865 H835 0.950 . S
C865 C860 1.363 . S
C865 C864 1.415 . S
H866 C863 0.999 . S
H867 C848 0.913 . S
H868 C886 0.951 . S
H869 C888 0.951 . S
H870 C890 0.950 . S
H871 C891 0.950 . S
H872 C893 0.950 . S
H873 C896 0.950 . S
H874 C897 0.950 . S
H875 C899 0.950 . S
H876 C900 0.950 . S
H877 C901 0.951 . S
H878 C903 0.951 . S
H879 C905 0.950 . S
H880 C906 0.950 . S
H881 C908 0.950 . S
H882 C911 0.950 . S
H883 C912 0.950 . S
H884 C914 0.950 . S
H885 C915 0.950 . S
C886 H868 0.951 . S
C886 C887 1.366 . S
C886 C888 1.388 . S
C887 C886 1.366 . S
C887 C891 1.385 . S
C888 H869 0.951 . S
C888 C886 1.388 . S
C888 C889 1.366 . S
C889 C888 1.366 . S
C889 C890 1.414 . S
C889 C892 1.499 . S
C890 H870 0.950 . S
C890 C889 1.414 . S
C890 C891 1.374 . S
C891 H871 0.950 . S
C891 C887 1.385 . S
C891 C890 1.374 . S
C892 C889 1.499 . S
C892 C893 1.373 . S
C892 C894 1.389 . S
C893 H872 0.950 . S
C893 C892 1.373 . S
C893 C909 1.377 . S
C894 C892 1.389 . S
C894 C895 1.524 . S
C894 C908 1.377 . S
C895 C894 1.524 . S
C895 C896 1.397 . S
C895 C900 1.363 . S
C896 H873 0.950 . S
C896 C895 1.397 . S
C896 C897 1.334 . S
C897 H874 0.950 . S
C897 C896 1.334 . S
C897 C898 1.287 . S
C898 C897 1.287 . S
C898 C899 1.524 . S
C898 H917 0.913 . S
C899 H875 0.950 . S
C899 C898 1.524 . S
C899 C900 1.415 . S
C900 H876 0.950 . S
C900 C895 1.363 . S
C900 C899 1.415 . S
C901 H877 0.951 . S
C901 C902 1.366 . S
C901 C903 1.388 . S
C902 C901 1.366 . S
C902 C906 1.385 . S
C903 H878 0.951 . S
C903 C901 1.388 . S
C903 C904 1.366 . S
C904 C903 1.366 . S
C904 C905 1.414 . S
C904 C907 1.499 . S
C905 H879 0.950 . S
C905 C904 1.414 . S
C905 C906 1.374 . S
C906 H880 0.950 . S
C906 C902 1.385 . S
C906 C905 1.374 . S
C907 C904 1.499 . S
C907 C908 1.373 . S
C907 C909 1.389 . S
C908 H881 0.950 . S
C908 C894 1.377 . S
C908 C907 1.373 . S
C909 C893 1.377 . S
C909 C907 1.389 . S
C909 C910 1.524 . S
C910 C909 1.524 . S
C910 C911 1.397 . S
C910 C915 1.363 . S
C911 H882 0.950 . S
C911 C910 1.397 . S
C911 C912 1.334 . S
C912 H883 0.950 . S
C912 C911 1.334 . S
C912 C913 1.287 . S
C913 C912 1.287 . S
C913 C914 1.524 . S
C913 H916 0.999 . S
C914 H884 0.950 . S
C914 C913 1.524 . S
C914 C915 1.415 . S
C915 H885 0.950 . S
C915 C910 1.363 . S
C915 C914 1.415 . S
H916 C913 0.999 . S
H917 C898 0.913 . S
H918 C936 0.951 . S
H919 C938 0.951 . S
H920 C940 0.950 . S
H921 C941 0.950 . S
H922 C943 0.950 . S
H923 C946 0.950 . S
H924 C947 0.950 . S
H925 C949 0.950 . S
H926 C950 0.950 . S
H927 C951 0.951 . S
H928 C953 0.951 . S
H929 C955 0.950 . S
H930 C956 0.950 . S
H931 C958 0.950 . S
H932 C961 0.950 . S
H933 C962 0.950 . S
H934 C964 0.950 . S
H935 C965 0.950 . S
C936 H918 0.951 . S
C936 C937 1.366 . S
C936 C938 1.388 . S
C937 C936 1.366 . S
C937 C941 1.385 . S
C938 H919 0.951 . S
C938 C936 1.388 . S
C938 C939 1.366 . S
C939 C938 1.366 . S
C939 C940 1.414 . S
C939 C942 1.499 . S
C940 H920 0.950 . S
C940 C939 1.414 . S
C940 C941 1.374 . S
C941 H921 0.950 . S
C941 C937 1.385 . S
C941 C940 1.374 . S
C942 C939 1.499 . S
C942 C943 1.373 . S
C942 C944 1.389 . S
C943 H922 0.950 . S
C943 C942 1.373 . S
C943 C959 1.377 . S
C944 C942 1.389 . S
C944 C945 1.524 . S
C944 C958 1.377 . S
C945 C944 1.524 . S
C945 C946 1.397 . S
C945 C950 1.363 . S
C946 H923 0.950 . S
C946 C945 1.397 . S
C946 C947 1.334 . S
C947 H924 0.950 . S
C947 C946 1.334 . S
C947 C948 1.287 . S
C948 C947 1.287 . S
C948 C949 1.524 . S
C948 H967 0.913 . S
C949 H925 0.950 . S
C949 C948 1.524 . S
C949 C950 1.415 . S
C950 H926 0.950 . S
C950 C945 1.363 . S
C950 C949 1.415 . S
C951 H927 0.951 . S
C951 C952 1.366 . S
C951 C953 1.388 . S
C952 C951 1.366 . S
C952 C956 1.385 . S
C953 H928 0.951 . S
C953 C951 1.388 . S
C953 C954 1.366 . S
C954 C953 1.366 . S
C954 C955 1.414 . S
C954 C957 1.499 . S
C955 H929 0.950 . S
C955 C954 1.414 . S
C955 C956 1.374 . S
C956 H930 0.950 . S
C956 C952 1.385 . S
C956 C955 1.374 . S
C957 C954 1.499 . S
C957 C958 1.373 . S
C957 C959 1.389 . S
C958 H931 0.950 . S
C958 C944 1.377 . S
C958 C957 1.373 . S
C959 C943 1.377 . S
C959 C957 1.389 . S
C959 C960 1.524 . S
C960 C959 1.524 . S
C960 C961 1.397 . S
C960 C965 1.363 . S
C961 H932 0.950 . S
C961 C960 1.397 . S
C961 C962 1.334 . S
C962 H933 0.950 . S
C962 C961 1.334 . S
C962 C963 1.287 . S
C963 C962 1.287 . S
C963 C964 1.524 . S
C963 H966 0.999 . S
C964 H934 0.950 . S
C964 C963 1.524 . S
C964 C965 1.415 . S
C965 H935 0.950 . S
C965 C960 1.363 . S
C965 C964 1.415 . S
H966 C963 0.999 . S
H967 C948 0.913 . S
H968 C986 0.951 . S
H969 C988 0.951 . S
H970 C990 0.950 . S
H971 C991 0.950 . S
H972 C993 0.950 . S
H973 C996 0.950 . S
H974 C997 0.950 . S
H975 C999 0.950 . S
H976 C1000 0.950 . S
H977 C1001 0.951 . S
H978 C1003 0.951 . S
H979 C1005 0.950 . S
H980 C1006 0.950 . S
H981 C1008 0.950 . S
H982 C1011 0.950 . S
H983 C1012 0.950 . S
H984 C1014 0.950 . S
H985 C1015 0.950 . S
C986 H968 0.951 . S
C986 C987 1.366 . S
C986 C988 1.388 . S
C987 C986 1.366 . S
C987 C991 1.385 . S
C988 H969 0.951 . S
C988 C986 1.388 . S
C988 C989 1.366 . S
C989 C988 1.366 . S
C989 C990 1.414 . S
C989 C992 1.499 . S
C990 H970 0.950 . S
C990 C989 1.414 . S
C990 C991 1.374 . S
C991 H971 0.950 . S
C991 C987 1.385 . S
C991 C990 1.374 . S
C992 C989 1.499 . S
C992 C993 1.373 . S
C992 C994 1.389 . S
C993 H972 0.950 . S
C993 C992 1.373 . S
C993 C1009 1.377 . S
C994 C992 1.389 . S
C994 C995 1.524 . S
C994 C1008 1.377 . S
C995 C994 1.524 . S
C995 C996 1.397 . S
C995 C1000 1.363 . S
C996 H973 0.950 . S
C996 C995 1.397 . S
C996 C997 1.334 . S
C997 H974 0.950 . S
C997 C996 1.334 . S
C997 C998 1.287 . S
C998 C997 1.287 . S
C998 C999 1.524 . S
C998 H1017 0.913 . S
C999 H975 0.950 . S
C999 C998 1.524 . S
C999 C1000 1.415 . S
C1000 H976 0.950 . S
C1000 C995 1.363 . S
C1000 C999 1.415 . S
C1001 H977 0.951 . S
C1001 C1002 1.366 . S
C1001 C1003 1.388 . S
C1002 C1001 1.366 . S
C1002 C1006 1.385 . S
C1003 H978 0.951 . S
C1003 C1001 1.388 . S
C1003 C1004 1.366 . S
C1004 C1003 1.366 . S
C1004 C1005 1.414 . S
C1004 C1007 1.499 . S
C1005 H979 0.950 . S
C1005 C1004 1.414 . S
C1005 C1006 1.374 . S
C1006 H980 0.950 . S
C1006 C1002 1.385 . S
C1006 C1005 1.374 . S
C1007 C1004 1.499 . S
C1007 C1008 1.373 . S
C1007 C1009 1.389 . S
C1008 H981 0.950 . S
C1008 C994 1.377 . S
C1008 C1007 1.373 . S
C1009 C993 1.377 . S
C1009 C1007 1.389 . S
C1009 C1010 1.524 . S
C1010 C1009 1.524 . S
C1010 C1011 1.397 . S
C1010 C1015 1.363 . S
C1011 H982 0.950 . S
C1011 C1010 1.397 . S
C1011 C1012 1.334 . S
C1012 H983 0.950 . S
C1012 C1011 1.334 . S
C1012 C1013 1.287 . S
C1013 C1012 1.287 . S
C1013 C1014 1.524 . S
C1013 H1016 0.999 . S
C1014 H984 0.950 . S
C1014 C1013 1.524 . S
C1014 C1015 1.415 . S
C1015 H985 0.950 . S
C1015 C1010 1.363 . S
C1015 C1014 1.415 . S
H1016 C1013 0.999 . S
H1017 C998 0.913 . S
H1018 C1036 0.951 . S
H1019 C1038 0.951 . S
H1020 C1040 0.950 . S
H1021 C1041 0.950 . S
H1022 C1043 0.950 . S
H1023 C1046 0.950 . S
H1024 C1047 0.950 . S
H1025 C1049 0.950 . S
H1026 C1050 0.950 . S
H1027 C1051 0.951 . S
H1028 C1053 0.951 . S
H1029 C1055 0.950 . S
H1030 C1056 0.950 . S
H1031 C1058 0.950 . S
H1032 C1061 0.950 . S
H1033 C1062 0.950 . S
H1034 C1064 0.950 . S
H1035 C1065 0.950 . S
C1036 H1018 0.951 . S
C1036 C1037 1.366 . S
C1036 C1038 1.388 . S
C1037 C1036 1.366 . S
C1037 C1041 1.385 . S
C1038 H1019 0.951 . S
C1038 C1036 1.388 . S
C1038 C1039 1.366 . S
C1039 C1038 1.366 . S
C1039 C1040 1.414 . S
C1039 C1042 1.499 . S
C1040 H1020 0.950 . S
C1040 C1039 1.414 . S
C1040 C1041 1.374 . S
C1041 H1021 0.950 . S
C1041 C1037 1.385 . S
C1041 C1040 1.374 . S
C1042 C1039 1.499 . S
C1042 C1043 1.373 . S
C1042 C1044 1.389 . S
C1043 H1022 0.950 . S
C1043 C1042 1.373 . S
C1043 C1059 1.377 . S
C1044 C1042 1.389 . S
C1044 C1045 1.524 . S
C1044 C1058 1.377 . S
C1045 C1044 1.524 . S
C1045 C1046 1.397 . S
C1045 C1050 1.363 . S
C1046 H1023 0.950 . S
C1046 C1045 1.397 . S
C1046 C1047 1.334 . S
C1047 H1024 0.950 . S
C1047 C1046 1.334 . S
C1047 C1048 1.287 . S
C1048 C1047 1.287 . S
C1048 C1049 1.524 . S
C1048 H1067 0.913 . S
C1049 H1025 0.950 . S
C1049 C1048 1.524 . S
C1049 C1050 1.415 . S
C1050 H1026 0.950 . S
C1050 C1045 1.363 . S
C1050 C1049 1.415 . S
C1051 H1027 0.951 . S
C1051 C1052 1.366 . S
C1051 C1053 1.388 . S
C1052 C1051 1.366 . S
C1052 C1056 1.385 . S
C1053 H1028 0.951 . S
C1053 C1051 1.388 . S
C1053 C1054 1.366 . S
C1054 C1053 1.366 . S
C1054 C1055 1.414 . S
C1054 C1057 1.499 . S
C1055 H1029 0.950 . S
C1055 C1054 1.414 . S
C1055 C1056 1.374 . S
C1056 H1030 0.950 . S
C1056 C1052 1.385 . S
C1056 C1055 1.374 . S
C1057 C1054 1.499 . S
C1057 C1058 1.373 . S
C1057 C1059 1.389 . S
C1058 H1031 0.950 . S
C1058 C1044 1.377 . S
C1058 C1057 1.373 . S
C1059 C1043 1.377 . S
C1059 C1057 1.389 . S
C1059 C1060 1.524 . S
C1060 C1059 1.524 . S
C1060 C1061 1.397 . S
C1060 C1065 1.363 . S
C1061 H1032 0.950 . S
C1061 C1060 1.397 . S
C1061 C1062 1.334 . S
C1062 H1033 0.950 . S
C1062 C1061 1.334 . S
C1062 C1063 1.287 . S
C1063 C1062 1.287 . S
C1063 C1064 1.524 . S
C1063 H1066 0.999 . S
C1064 H1034 0.950 . S
C1064 C1063 1.524 . S
C1064 C1065 1.415 . S
C1065 H1035 0.950 . S
C1065 C1060 1.363 . S
C1065 C1064 1.415 . S
H1066 C1063 0.999 . S
H1067 C1048 0.913 . S
H1068 C1086 0.951 . S
H1069 C1088 0.913 1_655 S
H1070 C1090 0.950 1_556 S
H1071 C1091 0.950 . S
H1072 C1093 0.950 . S
H1073 C1096 0.950 . S
H1074 C1097 0.950 . S
H1075 C1099 0.950 . S
H1076 C1100 0.950 . S
H1077 C1101 0.951 . S
H1078 C1103 0.951 1_455 S
H1079 C1105 0.950 . S
H1080 C1106 0.950 . S
H1081 C1108 0.950 . S
H1082 C1111 0.950 . S
H1083 C1112 0.950 . S
H1084 C1114 0.950 . S
H1085 C1115 0.950 . S
C1086 H1068 0.951 . S
C1086 C1087 1.366 . S
C1086 C1088 1.388 . S
C1087 C1086 1.366 . S
C1087 C1091 1.385 . S
C1088 H1069 0.913 1_455 S
C1088 C1086 1.388 . S
C1088 C1089 1.366 . S
C1089 C1088 1.366 . S
C1089 C1090 1.414 . S
C1089 C1092 1.499 . S
C1090 H1070 0.950 1_554 S
C1090 C1089 1.414 . S
C1090 C1091 1.374 . S
C1091 H1071 0.950 . S
C1091 C1087 1.385 . S
C1091 C1090 1.374 . S
C1092 C1089 1.499 . S
C1092 C1093 1.373 . S
C1092 C1094 1.389 1_455 S
C1093 H1072 0.950 . S
C1093 C1092 1.373 . S
C1093 C1109 1.377 1_554 S
C1094 C1092 1.389 1_655 S
C1094 C1095 1.524 . S
C1094 C1108 1.377 1_554 S
C1095 C1094 1.524 . S
C1095 C1096 1.397 1_554 S
C1095 C1100 1.363 . S
C1096 H1073 0.950 . S
C1096 C1095 1.397 1_556 S
C1096 C1097 1.334 . S
C1097 H1074 0.950 . S
C1097 C1096 1.334 . S
C1097 C1098 1.287 1_556 S
C1098 C1097 1.287 1_554 S
C1098 C1099 1.524 . S
C1098 H1117 0.913 . S
C1099 H1075 0.950 . S
C1099 C1098 1.524 . S
C1099 C1100 1.415 . S
C1100 H1076 0.950 . S
C1100 C1095 1.363 . S
C1100 C1099 1.415 . S
C1101 H1077 0.951 . S
C1101 C1102 1.366 . S
C1101 C1103 1.388 . S
C1102 C1101 1.366 . S
C1102 C1106 1.385 . S
C1103 H1078 0.951 1_655 S
C1103 C1101 1.388 . S
C1103 C1104 1.366 . S
C1104 C1103 1.366 . S
C1104 C1105 1.414 . S
C1104 C1107 1.499 . S
C1105 H1079 0.950 . S
C1105 C1104 1.414 . S
C1105 C1106 1.374 . S
C1106 H1080 0.950 . S
C1106 C1102 1.385 . S
C1106 C1105 1.374 . S
C1107 C1104 1.499 . S
C1107 C1108 1.373 . S
C1107 C1109 1.389 1_655 S
C1108 H1081 0.950 . S
C1108 C1094 1.377 1_556 S
C1108 C1107 1.373 . S
C1109 C1093 1.377 1_556 S
C1109 C1107 1.389 1_455 S
C1109 C1110 1.524 . S
C1110 C1109 1.524 . S
C1110 C1111 1.397 1_556 S
C1110 C1115 1.363 . S
C1111 H1082 0.950 . S
C1111 C1110 1.397 1_554 S
C1111 C1112 1.334 . S
C1112 H1083 0.950 . S
C1112 C1111 1.334 . S
C1112 C1113 1.287 1_554 S
C1113 C1112 1.287 1_556 S
C1113 C1114 1.524 . S
C1113 H1116 0.999 . S
C1114 H1084 0.950 . S
C1114 C1113 1.524 . S
C1114 C1115 1.415 . S
C1115 H1085 0.950 . S
C1115 C1110 1.363 . S
C1115 C1114 1.415 . S
H1116 C1113 0.999 . S
H1117 C1098 0.913 . S
H1118 C1136 0.951 . S
H1119 C1138 0.951 . S
H1120 C1140 0.950 1_556 S
H1121 C1141 0.950 . S
H1122 C1143 0.950 . S
H1123 C1146 0.950 . S
H1124 C1147 0.950 . S
H1125 C1149 0.950 . S
H1126 C1150 0.950 . S
H1127 C1151 0.951 . S
H1128 C1153 0.951 . S
H1129 C1155 0.950 1_554 S
H1130 C1156 0.950 . S
H1131 C1158 0.950 . S
H1132 C1161 0.950 . S
H1133 C1162 0.950 . S
H1134 C1164 0.950 . S
H1135 C1165 0.950 . S
C1136 H1118 0.951 . S
C1136 C1137 1.366 . S
C1136 C1138 1.388 . S
C1137 C1136 1.366 . S
C1137 C1141 1.385 . S
C1138 H1119 0.951 . S
C1138 C1136 1.388 . S
C1138 C1139 1.366 . S
C1139 C1138 1.366 . S
C1139 C1140 1.414 . S
C1139 C1142 1.499 . S
C1140 H1120 0.950 1_554 S
C1140 C1139 1.414 . S
C1140 C1141 1.374 . S
C1141 H1121 0.950 . S
C1141 C1137 1.385 . S
C1141 C1140 1.374 . S
C1142 C1139 1.499 . S
C1142 C1143 1.373 1_554 S
C1142 C1144 1.389 . S
C1143 H1122 0.950 . S
C1143 C1142 1.373 1_556 S
C1143 C1159 1.377 . S
C1144 C1142 1.389 . S
C1144 C1145 1.524 . S
C1144 C1158 1.377 . S
C1145 C1144 1.524 . S
C1145 C1146 1.397 . S
C1145 C1150 1.363 . S
C1146 H1123 0.950 . S
C1146 C1145 1.397 . S
C1146 C1147 1.334 . S
C1147 H1124 0.950 . S
C1147 C1146 1.334 . S
C1147 C1148 1.287 . S
C1148 C1147 1.287 . S
C1148 C1149 1.524 . S
C1148 H1167 0.913 . S
C1149 H1125 0.950 . S
C1149 C1148 1.524 . S
C1149 C1150 1.415 . S
C1150 H1126 0.950 . S
C1150 C1145 1.363 . S
C1150 C1149 1.415 . S
C1151 H1127 0.951 . S
C1151 C1152 1.366 . S
C1151 C1153 1.388 . S
C1152 C1151 1.366 . S
C1152 C1156 1.385 . S
C1153 H1128 0.951 . S
C1153 C1151 1.388 . S
C1153 C1154 1.366 . S
C1154 C1153 1.366 . S
C1154 C1155 1.414 . S
C1154 C1157 1.499 . S
C1155 H1129 0.950 1_556 S
C1155 C1154 1.414 . S
C1155 C1156 1.374 . S
C1156 H1130 0.950 . S
C1156 C1152 1.385 . S
C1156 C1155 1.374 . S
C1157 C1154 1.499 . S
C1157 C1158 1.373 1_556 S
C1157 C1159 1.389 . S
C1158 H1131 0.950 . S
C1158 C1144 1.377 . S
C1158 C1157 1.373 1_554 S
C1159 C1143 1.377 . S
C1159 C1157 1.389 . S
C1159 C1160 1.524 . S
C1160 C1159 1.524 . S
C1160 C1161 1.397 . S
C1160 C1165 1.363 . S
C1161 H1132 0.950 . S
C1161 C1160 1.397 . S
C1161 C1162 1.334 . S
C1162 H1133 0.950 . S
C1162 C1161 1.334 . S
C1162 C1163 1.287 . S
C1163 C1162 1.287 . S
C1163 C1164 1.524 . S
C1163 H1166 0.999 . S
C1164 H1134 0.950 . S
C1164 C1163 1.524 . S
C1164 C1165 1.415 . S
C1165 H1135 0.950 . S
C1165 C1160 1.363 . S
C1165 C1164 1.415 . S
H1166 C1163 0.999 . S
H1167 C1148 0.913 . S
H1168 C1186 0.951 . S
H1169 C1188 0.951 1_545 S
H1170 C1190 0.950 . S
H1171 C1191 0.950 . S
H1172 C1193 0.950 . S
H1173 C1196 0.950 . S
H1174 C1197 0.950 . S
H1175 C1199 0.950 . S
H1176 C1200 0.950 . S
H1177 C1201 0.951 . S
H1178 C1203 0.951 1_565 S
H1179 C1205 0.950 . S
H1180 C1206 0.950 . S
H1181 C1208 0.950 . S
H1182 C1211 0.950 . S
H1183 C1212 0.950 . S
H1184 C1214 0.950 . S
H1185 C1215 0.950 . S
C1186 H1168 0.951 . S
C1186 C1187 1.366 . S
C1186 C1188 1.388 . S
C1187 C1186 1.366 . S
C1187 C1191 1.385 . S
C1188 H1169 0.951 1_565 S
C1188 C1186 1.388 . S
C1188 C1189 1.366 . S
C1189 C1188 1.366 . S
C1189 C1190 1.414 . S
C1189 C1192 1.499 . S
C1190 H1170 0.950 . S
C1190 C1189 1.414 . S
C1190 C1191 1.374 . S
C1191 H1171 0.950 . S
C1191 C1187 1.385 . S
C1191 C1190 1.374 . S
C1192 C1189 1.499 . S
C1192 C1193 1.373 . S
C1192 C1194 1.389 1_564 S
C1193 H1172 0.950 . S
C1193 C1192 1.373 . S
C1193 C1209 1.377 . S
C1194 C1192 1.389 1_546 S
C1194 C1195 1.524 . S
C1194 C1208 1.377 . S
C1195 C1194 1.524 . S
C1195 C1196 1.397 1_545 S
C1195 C1200 1.363 . S
C1196 H1173 0.950 . S
C1196 C1195 1.397 1_565 S
C1196 C1197 1.334 . S
C1197 H1174 0.950 . S
C1197 C1196 1.334 . S
C1197 C1198 1.287 1_565 S
C1198 C1197 1.287 1_545 S
C1198 C1199 1.524 . S
C1198 H1217 0.913 . S
C1199 H1175 0.950 . S
C1199 C1198 1.524 . S
C1199 C1200 1.415 . S
C1200 H1176 0.950 . S
C1200 C1195 1.363 . S
C1200 C1199 1.415 . S
C1201 H1177 0.951 . S
C1201 C1202 1.366 . S
C1201 C1203 1.388 . S
C1202 C1201 1.366 . S
C1202 C1206 1.385 . S
C1203 H1178 0.951 1_545 S
C1203 C1201 1.388 . S
C1203 C1204 1.366 . S
C1204 C1203 1.366 . S
C1204 C1205 1.414 . S
C1204 C1207 1.499 . S
C1205 H1179 0.950 . S
C1205 C1204 1.414 . S
C1205 C1206 1.374 . S
C1206 H1180 0.950 . S
C1206 C1202 1.385 . S
C1206 C1205 1.374 . S
C1207 C1204 1.499 . S
C1207 C1208 1.373 . S
C1207 C1209 1.389 1_546 S
C1208 H1181 0.950 . S
C1208 C1194 1.377 . S
C1208 C1207 1.373 . S
C1209 C1193 1.377 . S
C1209 C1207 1.389 1_564 S
C1209 C1210 1.524 . S
C1210 C1209 1.524 . S
C1210 C1211 1.397 1_565 S
C1210 C1215 1.363 . S
C1211 H1182 0.950 . S
C1211 C1210 1.397 1_545 S
C1211 C1212 1.334 . S
C1212 H1183 0.950 . S
C1212 C1211 1.334 . S
C1212 C1213 1.287 1_545 S
C1213 C1212 1.287 1_565 S
C1213 C1214 1.524 . S
C1213 H1216 0.999 . S
C1214 H1184 0.950 . S
C1214 C1213 1.524 . S
C1214 C1215 1.415 . S
C1215 H1185 0.950 . S
C1215 C1210 1.363 . S
C1215 C1214 1.415 . S
H1216 C1213 0.999 . S
H1217 C1198 0.913 . S
H1218 C1236 0.951 . S
H1219 C1238 0.951 . S
H1220 C1240 0.950 . S
H1221 C1241 0.950 . S
H1222 C1243 0.950 . S
H1223 C1246 0.950 . S
H1224 C1247 0.950 . S
H1225 C1249 0.950 . S
H1226 C1250 0.950 . S
H1227 C1251 0.951 . S
H1228 C1253 0.951 . S
H1229 C1255 0.950 1_565 S
H1230 C1256 0.950 . S
H1231 C1258 0.950 . S
H1232 C1261 0.950 . S
H1233 C1262 0.950 . S
H1234 C1264 0.950 . S
H1235 C1265 0.950 . S
C1236 H1218 0.951 . S
C1236 C1237 1.366 . S
C1236 C1238 1.388 . S
C1237 C1236 1.366 . S
C1237 C1241 1.385 . S
C1238 H1219 0.951 . S
C1238 C1236 1.388 . S
C1238 C1239 1.366 . S
C1239 C1238 1.366 . S
C1239 C1240 1.414 . S
C1239 C1242 1.499 . S
C1240 H1220 0.950 . S
C1240 C1239 1.414 . S
C1240 C1241 1.374 . S
C1241 H1221 0.950 . S
C1241 C1237 1.385 . S
C1241 C1240 1.374 . S
C1242 C1239 1.499 . S
C1242 C1243 1.373 1_565 S
C1242 C1244 1.389 . S
C1243 H1222 0.950 . S
C1243 C1242 1.373 1_545 S
C1243 C1259 1.377 . S
C1244 C1242 1.389 . S
C1244 C1245 1.524 . S
C1244 C1258 1.377 . S
C1245 C1244 1.524 . S
C1245 C1246 1.397 . S
C1245 C1250 1.363 . S
C1246 H1223 0.950 . S
C1246 C1245 1.397 . S
C1246 C1247 1.334 . S
C1247 H1224 0.950 . S
C1247 C1246 1.334 . S
C1247 C1248 1.287 . S
C1248 C1247 1.287 . S
C1248 C1249 1.524 . S
C1248 H1267 0.913 . S
C1249 H1225 0.950 . S
C1249 C1248 1.524 . S
C1249 C1250 1.415 . S
C1250 H1226 0.950 . S
C1250 C1245 1.363 . S
C1250 C1249 1.415 . S
C1251 H1227 0.951 . S
C1251 C1252 1.366 . S
C1251 C1253 1.388 . S
C1252 C1251 1.366 . S
C1252 C1256 1.385 . S
C1253 H1228 0.951 . S
C1253 C1251 1.388 . S
C1253 C1254 1.366 . S
C1254 C1253 1.366 . S
C1254 C1255 1.414 . S
C1254 C1257 1.499 . S
C1255 H1229 0.950 1_545 S
C1255 C1254 1.414 . S
C1255 C1256 1.374 . S
C1256 H1230 0.950 . S
C1256 C1252 1.385 . S
C1256 C1255 1.374 . S
C1257 C1254 1.499 . S
C1257 C1258 1.373 1_545 S
C1257 C1259 1.389 . S
C1258 H1231 0.950 . S
C1258 C1244 1.377 . S
C1258 C1257 1.373 1_565 S
C1259 C1243 1.377 . S
C1259 C1257 1.389 . S
C1259 C1260 1.524 . S
C1260 C1259 1.524 . S
C1260 C1261 1.397 . S
C1260 C1265 1.363 . S
C1261 H1232 0.950 . S
C1261 C1260 1.397 . S
C1261 C1262 1.334 . S
C1262 H1233 0.950 . S
C1262 C1261 1.334 . S
C1262 C1263 1.287 . S
C1263 C1262 1.287 . S
C1263 C1264 1.524 . S
C1263 H1266 0.999 . S
C1264 H1234 0.950 . S
C1264 C1263 1.524 . S
C1264 C1265 1.415 . S
C1265 H1235 0.950 . S
C1265 C1260 1.363 . S
C1265 C1264 1.415 . S
H1266 C1263 0.999 . S
H1267 C1248 0.913 . S
H1268 C1286 0.951 . S
H1269 C1288 0.951 . S
H1270 C1290 0.950 1_455 S
H1271 C1291 0.950 . S
H1272 C1293 0.950 . S
H1273 C1296 0.950 1_455 S
H1274 C1297 0.950 . S
H1275 C1299 0.950 . S
H1276 C1300 0.950 . S
H1277 C1301 0.951 . S
H1278 C1303 0.951 . S
H1279 C1305 0.950 1_655 S
H1280 C1306 0.950 . S
H1281 C1308 0.951 . S
H1282 C1311 0.950 1_655 S
H1283 C1312 0.950 . S
H1284 C1314 0.950 . S
H1285 C1315 0.950 . S
C1286 H1268 0.951 . S
C1286 C1287 1.366 . S
C1286 C1288 1.388 . S
C1287 C1286 1.366 . S
C1287 C1291 1.385 . S
C1288 H1269 0.951 . S
C1288 C1286 1.388 . S
C1288 C1289 1.366 . S
C1289 C1288 1.366 . S
C1289 C1290 1.414 . S
C1289 C1292 1.499 . S
C1290 H1270 0.950 1_655 S
C1290 C1289 1.414 . S
C1290 C1291 1.374 . S
C1291 H1271 0.950 . S
C1291 C1287 1.385 . S
C1291 C1290 1.374 . S
C1292 C1289 1.499 . S
C1292 C1293 1.373 1_655 S
C1292 C1294 1.389 . S
C1293 H1272 0.950 . S
C1293 C1292 1.373 1_455 S
C1293 C1309 1.377 . S
C1294 C1292 1.389 . S
C1294 C1295 1.524 . S
C1294 C1308 1.377 1_655 S
C1295 C1294 1.524 . S
C1295 C1296 1.397 . S
C1295 C1300 1.363 . S
C1296 H1273 0.950 1_655 S
C1296 C1295 1.397 . S
C1296 C1297 1.334 . S
C1297 H1274 0.950 . S
C1297 C1296 1.334 . S
C1297 C1298 1.287 . S
C1298 C1297 1.287 . S
C1298 C1299 1.524 . S
C1298 H1317 0.913 . S
C1299 H1275 0.950 . S
C1299 C1298 1.524 . S
C1299 C1300 1.415 . S
C1300 H1276 0.950 . S
C1300 C1295 1.363 . S
C1300 C1299 1.415 . S
C1301 H1277 0.951 . S
C1301 C1302 1.366 . S
C1301 C1303 1.388 . S
C1302 C1301 1.366 . S
C1302 C1306 1.385 . S
C1303 H1278 0.951 . S
C1303 C1301 1.388 . S
C1303 C1304 1.366 . S
C1304 C1303 1.366 . S
C1304 C1305 1.414 . S
C1304 C1307 1.499 . S
C1305 H1279 0.950 1_455 S
C1305 C1304 1.414 . S
C1305 C1306 1.374 . S
C1306 H1280 0.950 . S
C1306 C1302 1.385 . S
C1306 C1305 1.374 . S
C1307 C1304 1.499 . S
C1307 C1308 1.373 . S
C1307 C1309 1.389 . S
C1308 H1281 0.951 . S
C1308 C1294 1.377 1_455 S
C1308 C1307 1.373 . S
C1309 C1293 1.377 . S
C1309 C1307 1.389 . S
C1309 C1310 1.524 . S
C1310 C1309 1.524 . S
C1310 C1311 1.397 . S
C1310 C1315 1.363 . S
C1311 H1282 0.950 1_455 S
C1311 C1310 1.397 . S
C1311 C1312 1.334 . S
C1312 H1283 0.950 . S
C1312 C1311 1.334 . S
C1312 C1313 1.287 . S
C1313 C1312 1.287 . S
C1313 C1314 1.524 . S
C1313 H1316 0.999 . S
C1314 H1284 0.950 . S
C1314 C1313 1.524 . S
C1314 C1315 1.415 . S
C1315 H1285 0.950 . S
C1315 C1310 1.363 . S
C1315 C1314 1.415 . S
H1316 C1313 0.999 . S
H1317 C1298 0.913 . S
H1318 C1336 0.951 . S
H1319 C1338 0.951 . S
H1320 C1340 0.950 . S
H1321 C1341 0.950 . S
H1322 C1343 0.950 . S
H1323 C1346 0.950 . S
H1324 C1347 0.950 . S
H1325 C1349 0.950 . S
H1326 C1350 0.950 . S
H1327 C1351 0.951 . S
H1328 C1353 0.951 . S
H1329 C1355 0.950 . S
H1330 C1356 0.950 . S
H1331 C1358 0.950 . S
H1332 C1361 0.950 . S
H1333 C1362 0.950 . S
H1334 C1364 0.950 . S
H1335 C1365 0.950 . S
C1336 H1318 0.951 . S
C1336 C1337 1.366 . S
C1336 C1338 1.388 . S
C1337 C1336 1.366 . S
C1337 C1341 1.385 . S
C1338 H1319 0.951 . S
C1338 C1336 1.388 . S
C1338 C1339 1.366 . S
C1339 C1338 1.366 . S
C1339 C1340 1.414 . S
C1339 C1342 1.499 . S
C1340 H1320 0.950 . S
C1340 C1339 1.414 . S
C1340 C1341 1.374 . S
C1341 H1321 0.950 . S
C1341 C1337 1.385 . S
C1341 C1340 1.374 . S
C1342 C1339 1.499 . S
C1342 C1343 1.373 . S
C1342 C1344 1.389 . S
C1343 H1322 0.950 . S
C1343 C1342 1.373 . S
C1343 C1359 1.377 . S
C1344 C1342 1.389 . S
C1344 C1345 1.524 . S
C1344 C1358 1.377 . S
C1345 C1344 1.524 . S
C1345 C1346 1.397 . S
C1345 C1350 1.363 . S
C1346 H1323 0.950 . S
C1346 C1345 1.397 . S
C1346 C1347 1.334 . S
C1347 H1324 0.950 . S
C1347 C1346 1.334 . S
C1347 C1348 1.287 . S
C1348 C1347 1.287 . S
C1348 C1349 1.524 . S
C1348 H1367 0.913 . S
C1349 H1325 0.950 . S
C1349 C1348 1.524 . S
C1349 C1350 1.415 . S
C1350 H1326 0.950 . S
C1350 C1345 1.363 . S
C1350 C1349 1.415 . S
C1351 H1327 0.951 . S
C1351 C1352 1.366 . S
C1351 C1353 1.388 . S
C1352 C1351 1.366 . S
C1352 C1356 1.385 . S
C1353 H1328 0.951 . S
C1353 C1351 1.388 . S
C1353 C1354 1.366 . S
C1354 C1353 1.366 . S
C1354 C1355 1.414 . S
C1354 C1357 1.499 . S
C1355 H1329 0.950 . S
C1355 C1354 1.414 . S
C1355 C1356 1.374 . S
C1356 H1330 0.950 . S
C1356 C1352 1.385 . S
C1356 C1355 1.374 . S
C1357 C1354 1.499 . S
C1357 C1358 1.373 . S
C1357 C1359 1.389 . S
C1358 H1331 0.950 . S
C1358 C1344 1.377 . S
C1358 C1357 1.373 . S
C1359 C1343 1.377 . S
C1359 C1357 1.389 . S
C1359 C1360 1.524 . S
C1360 C1359 1.524 . S
C1360 C1361 1.397 . S
C1360 C1365 1.363 . S
C1361 H1332 0.950 . S
C1361 C1360 1.397 . S
C1361 C1362 1.334 . S
C1362 H1333 0.950 . S
C1362 C1361 1.334 . S
C1362 C1363 1.287 . S
C1363 C1362 1.287 . S
C1363 C1364 1.524 . S
C1363 H1366 0.999 . S
C1364 H1334 0.950 . S
C1364 C1363 1.524 . S
C1364 C1365 1.415 . S
C1365 H1335 0.950 . S
C1365 C1360 1.363 . S
C1365 C1364 1.415 . S
H1366 C1363 0.999 . S
H1367 C1348 0.913 . S
C187 C7 0.597 . S
C202 C107 0.600 . S
C237 C21 0.567 . S
C252 C119 0.569 . S
C287 C35 0.558 . S
C302 C91 0.558 . S
C337 C161 0.558 . S
C352 C49 0.558 . S
C387 C63 0.567 . S
C402 C133 0.570 . S
C437 C149 0.600 . S
C452 C77 0.597 . S
C487 C23 0.589 . S
C502 C93 0.595 . S
C537 C105 0.538 . S
C552 C37 0.543 . S
C587 C9 0.564 . S
C602 C121 0.573 . S
C637 C135 0.572 . S
C652 C79 0.564 . S
C687 C147 0.537 . S
C702 C51 0.542 . S
C737 C65 0.590 . S
C752 C163 0.595 . S
C787 C78 1.559 . S
C802 C8 1.559 . S
C837 C22 1.602 . S
C852 C50 1.605 . S
C887 C36 1.605 . S
C902 C64 1.602 . S
C937 C87 1.567 . S
C952 C157 1.567 . S
C987 C106 1.561 . S
C1002 C129 1.554 . S
C1037 C115 1.553 . S
C1052 C148 1.561 . S
C1087 C3 1.599 . S
C1102 C92 1.601 . S
C1137 C17 1.639 . S
C1152 C101 1.639 . S
C1187 C31 1.636 . S
C1202 C120 1.637 . S
C1237 C45 1.635 . S
C1252 C134 1.636 . S
C1287 C143 1.639 . S
C1302 C59 1.639 . S
C1337 C73 1.598 . S
C1352 C162 1.601 . S
