# Generated by pormake.
# Topology snk, (6)-cn, num edge types: 1
# Building blocks:
#     Node 0, Type 0, BuildingBlock: CUKXOW_clean_sbu_0, # of connection points: 6
#     Node 1, Type 0, BuildingBlock: CUKXOW_clean_sbu_0, # of connection points: 6
#     Node 2, Type 0, BuildingBlock: CUKXOW_clean_sbu_0, # of connection points: 6
#     Node 3, Type 0, BuildingBlock: CUKXOW_clean_sbu_0, # of connection points: 6
#     Node 4, Type 0, BuildingBlock: CUKXOW_clean_sbu_0, # of connection points: 6
#     Node 5, Type 0, BuildingBlock: CUKXOW_clean_sbu_0, # of connection points: 6
#     Node 6, Type 0, BuildingBlock: CUKXOW_clean_sbu_0, # of connection points: 6
#     Node 7, Type 0, BuildingBlock: CUKXOW_clean_sbu_0, # of connection points: 6
#     Edge 8, Type (0, 0), BuildingBlock: MIFKUJ_clean_linker_0, # of connection points: 2
#     Edge 9, Type (0, 0), BuildingBlock: MIFKUJ_clean_linker_0, # of connection points: 2
#     Edge 10, Type (0, 0), BuildingBlock: MIFKUJ_clean_linker_0, # of connection points: 2
#     Edge 11, Type (0, 0), BuildingBlock: MIFKUJ_clean_linker_0, # of connection points: 2
#     Edge 12, Type (0, 0), BuildingBlock: MIFKUJ_clean_linker_0, # of connection points: 2
#     Edge 13, Type (0, 0), BuildingBlock: MIFKUJ_clean_linker_0, # of connection points: 2
#     Edge 14, Type (0, 0), BuildingBlock: MIFKUJ_clean_linker_0, # of connection points: 2
#     Edge 15, Type (0, 0), BuildingBlock: MIFKUJ_clean_linker_0, # of connection points: 2
#     Edge 16, Type (0, 0), BuildingBlock: MIFKUJ_clean_linker_0, # of connection points: 2
#     Edge 17, Type (0, 0), BuildingBlock: MIFKUJ_clean_linker_0, # of connection points: 2
#     Edge 18, Type (0, 0), BuildingBlock: MIFKUJ_clean_linker_0, # of connection points: 2
#     Edge 19, Type (0, 0), BuildingBlock: MIFKUJ_clean_linker_0, # of connection points: 2
#     Edge 20, Type (0, 0), BuildingBlock: MIFKUJ_clean_linker_0, # of connection points: 2
#     Edge 21, Type (0, 0), BuildingBlock: MIFKUJ_clean_linker_0, # of connection points: 2
#     Edge 22, Type (0, 0), BuildingBlock: MIFKUJ_clean_linker_0, # of connection points: 2
#     Edge 23, Type (0, 0), BuildingBlock: MIFKUJ_clean_linker_0, # of connection points: 2
#     Edge 24, Type (0, 0), BuildingBlock: MIFKUJ_clean_linker_0, # of connection points: 2
#     Edge 25, Type (0, 0), BuildingBlock: MIFKUJ_clean_linker_0, # of connection points: 2
#     Edge 26, Type (0, 0), BuildingBlock: MIFKUJ_clean_linker_0, # of connection points: 2
#     Edge 27, Type (0, 0), BuildingBlock: MIFKUJ_clean_linker_0, # of connection points: 2
#     Edge 28, Type (0, 0), BuildingBlock: MIFKUJ_clean_linker_0, # of connection points: 2
#     Edge 29, Type (0, 0), BuildingBlock: MIFKUJ_clean_linker_0, # of connection points: 2
#     Edge 30, Type (0, 0), BuildingBlock: MIFKUJ_clean_linker_0, # of connection points: 2
#     Edge 31, Type (0, 0), BuildingBlock: MIFKUJ_clean_linker_0, # of connection points: 2
# Relax obj value: 0.069
# Max RMSD: 0.173
# Mean RMSD: 0.128
data_MOF--net-snk--node1-CUKXOW_clean_sbu_0--edge1-MIFKUJ_clean_linker_0
_symmetry_space_group_name_H-M    P1
_symmetry_Int_Tables_number       1
_symmetry_cell_setting            triclinic
loop_
_symmetry_equiv_pos_as_xyz
'x, y, z'
_cell_length_a     58.527903
_cell_length_b     58.446671
_cell_length_c     19.083866
_cell_angle_alpha  97.993532
_cell_angle_beta   98.070995
_cell_angle_gamma 90.293489
loop_
_atom_site_label
_atom_site_type_symbol
_atom_site_fract_x
_atom_site_fract_y
_atom_site_fract_z
_atom_type_partial_charge
Tb0 Tb 0.02698 0.02817 0.61054 0.0
C1 C 0.03237 0.97389 0.60839 0.0
Tb2 Tb 0.98347 0.99589 0.60732 0.0
O3 O 0.03461 0.03814 0.72796 0.0
O4 O 0.00727 0.01662 0.68345 0.0
O5 O 0.04029 0.99336 0.59071 0.0
C6 C 0.94766 0.97464 0.64217 0.0
O7 O 0.01121 0.97163 0.62479 0.0
C8 C 0.99302 0.99823 0.47531 0.0
C9 C 0.97751 0.04911 0.59852 0.0
O10 O 0.96908 0.96958 0.66026 0.0
O11 O 0.94651 0.99156 0.60477 0.0
O12 O 0.97622 0.98586 0.48964 0.0
O13 O 0.00321 0.00752 0.53504 0.0
O14 O 0.97003 0.03073 0.6234 0.0
O15 O 0.99872 0.05085 0.58218 0.0
C16 C 0.06204 0.0486 0.56935 0.0
O17 O 0.0411 0.05609 0.56398 0.0
O18 O 0.06326 0.0299 0.59877 0.0
C19 C 0.01781 0.02586 0.74284 0.0
Tb20 Tb 0.22969 0.76879 0.77446 0.0
C21 C 0.28195 0.78581 0.82629 0.0
Tb22 Tb 0.26845 0.73141 0.804 0.0
O23 O 0.22321 0.77758 0.88644 0.0
O24 O 0.24652 0.75321 0.86013 0.0
O25 O 0.26125 0.79074 0.79341 0.0
C26 C 0.2999 0.70392 0.86251 0.0
O27 O 0.28713 0.76474 0.84262 0.0
C28 C 0.26061 0.73704 0.66602 0.0
C29 C 0.21616 0.71441 0.75259 0.0
O30 O 0.3041 0.72068 0.82778 0.0
O31 O 0.27783 0.70278 0.86537 0.0
O32 O 0.27506 0.7226 0.69232 0.0
O33 O 0.25159 0.74693 0.71803 0.0
O34 O 0.23694 0.70944 0.78488 0.0
O35 O 0.21092 0.73549 0.73644 0.0
C36 C 0.19799 0.79618 0.71647 0.0
O37 O 0.19394 0.77917 0.75035 0.0
O38 O 0.22008 0.79766 0.71412 0.0
C39 C 0.23762 0.76304 0.9124 0.0
Tb40 Tb 0.48044 0.01951 0.05686 0.0
C41 C 0.46346 0.96701 1.0087 0.0
Tb42 Tb 0.51766 0.98084 1.02831 0.0
O43 O 0.47135 0.02581 0.94474 0.0
O44 O 0.4957 0.00242 0.97098 0.0
O45 O 0.45859 0.98794 0.04012 0.0
C46 C 0.54509 0.94992 0.96822 0.0
O47 O 0.48445 0.9617 0.99226 0.0
C48 C 0.51241 0.9892 0.16647 0.0
C49 C 0.53473 0.03318 0.07942 0.0
O50 O 0.52934 0.94548 1.00628 0.0
O51 O 0.54533 0.9719 0.96328 0.0
O52 O 0.52684 0.97466 0.14053 0.0
O53 O 0.5024 0.99795 0.11401 0.0
O54 O 0.53969 0.01235 0.04755 0.0
O55 O 0.51363 0.03847 0.09487 0.0
C56 C 0.45307 0.0507 0.11591 0.0
O57 O 0.46978 0.05513 0.08143 0.0
O58 O 0.45185 0.02858 0.11798 0.0
C59 C 0.48574 0.01127 0.91862 0.0
Tb60 Tb 0.22631 0.22508 0.26266 0.0
C61 C 0.27934 0.21702 0.25339 0.0
Tb62 Tb 0.26028 0.26753 0.2673 0.0
O63 O 0.21831 0.21634 0.14526 0.0
O64 O 0.24054 0.24313 0.19037 0.0
O65 O 0.26 0.20932 0.27204 0.0
C66 C 0.28464 0.30198 0.23764 0.0
O67 O 0.28207 0.23845 0.23953 0.0
C68 C 0.25425 0.26012 0.39878 0.0
C69 C 0.20764 0.27599 0.27849 0.0
O70 O 0.29267 0.28657 0.27677 0.0
O71 O 0.263 0.29762 0.21306 0.0
O72 O 0.26722 0.27653 0.38517 0.0
O73 O 0.24596 0.24936 0.33883 0.0
O74 O 0.22688 0.2837 0.25915 0.0
O75 O 0.2048 0.25443 0.29158 0.0
C76 C 0.20526 0.18962 0.29943 0.0
O77 O 0.19483 0.20575 0.26773 0.0
O78 O 0.22731 0.19381 0.31203 0.0
C79 C 0.23158 0.23242 0.13086 0.0
Tb80 Tb 0.73196 0.26775 0.27588 0.0
C81 C 0.78429 0.28429 0.32458 0.0
Tb82 Tb 0.76896 0.23068 0.30467 0.0
O83 O 0.72284 0.27505 0.38582 0.0
O84 O 0.74626 0.25074 0.36089 0.0
O85 O 0.76389 0.2889 0.28942 0.0
C86 C 0.80237 0.20465 0.36096 0.0
O87 O 0.78894 0.26337 0.34273 0.0
C88 C 0.75644 0.23537 0.16834 0.0
C89 C 0.71631 0.21427 0.26212 0.0
O90 O 0.80372 0.21658 0.30905 0.0
O91 O 0.78212 0.20733 0.38113 0.0
O92 O 0.76392 0.21645 0.19115 0.0
O93 O 0.75831 0.25126 0.22142 0.0
O94 O 0.73728 0.20923 0.29254 0.0
O95 O 0.71119 0.2353 0.2457 0.0
C96 C 0.70258 0.2966 0.21484 0.0
O97 O 0.70527 0.27512 0.18909 0.0
O98 O 0.71657 0.30172 0.27414 0.0
C99 C 0.73664 0.26009 0.41214 0.0
Tb100 Tb 0.73125 0.73088 0.76895 0.0
C101 C 0.78348 0.72052 0.75537 0.0
Tb102 Tb 0.76655 0.77213 0.76956 0.0
O103 O 0.72231 0.7224 0.65104 0.0
O104 O 0.74529 0.74839 0.6955 0.0
O105 O 0.76408 0.71349 0.77531 0.0
C106 C 0.78967 0.80404 0.72167 0.0
O107 O 0.78687 0.74185 0.74142 0.0
C108 C 0.76207 0.76486 0.90241 0.0
C109 C 0.7148 0.7827 0.78997 0.0
O110 O 0.79893 0.78922 0.7613 0.0
O111 O 0.76743 0.80104 0.7096 0.0
O112 O 0.77549 0.7808 0.88739 0.0
O113 O 0.75265 0.75451 0.84297 0.0
O114 O 0.73396 0.78992 0.76894 0.0
O115 O 0.7114 0.7611 0.8017 0.0
C116 C 0.70781 0.69762 0.80912 0.0
O117 O 0.69862 0.7141 0.77631 0.0
O118 O 0.73011 0.70002 0.82001 0.0
C119 C 0.73589 0.73813 0.63597 0.0
Tb120 Tb 0.51991 0.51274 1.01396 0.0
C121 C 0.52942 0.45982 1.02747 0.0
Tb122 Tb 0.47802 0.4779 1.01308 0.0
O123 O 0.52875 0.52093 0.13196 0.0
O124 O 0.50286 0.4979 0.08639 0.0
O125 O 0.5372 0.47966 1.01159 0.0
C126 C 0.44487 0.45536 0.05612 0.0
O127 O 0.50764 0.45622 0.03706 0.0
C128 C 0.48474 0.48353 0.88071 0.0
C129 C 0.46836 0.53068 1.00029 0.0
O130 O 0.45577 0.44754 1.00338 0.0
O131 O 0.45276 0.47574 0.08538 0.0
O132 O 0.46904 0.46983 0.89533 0.0
O133 O 0.49514 0.49272 0.94038 0.0
O134 O 0.46073 0.51088 1.0166 0.0
O135 O 0.49003 0.5342 0.98934 0.0
C136 C 0.55282 0.53561 0.97028 0.0
O137 O 0.54008 0.5442 1.0175 0.0
O138 O 0.54693 0.51418 0.94705 0.0
C139 C 0.5131 0.50709 0.14624 0.0
Tb140 Tb 0.98082 0.51949 0.55232 0.0
C141 C 0.96369 0.46733 0.50043 0.0
Tb142 Tb 0.01781 0.48079 0.52136 0.0
O143 O 0.97176 0.52649 0.44083 0.0
O144 O 0.99593 0.50281 0.46556 0.0
O145 O 0.95914 0.48776 0.53594 0.0
C146 C 0.04432 0.44898 0.46121 0.0
O147 O 0.98442 0.46257 0.48107 0.0
C148 C 0.01214 0.48813 0.65954 0.0
C149 C 0.03517 0.53289 0.57335 0.0
O150 O 0.02762 0.44496 0.49621 0.0
O151 O 0.04607 0.47109 0.45928 0.0
O152 O 0.02645 0.47359 0.63298 0.0
O153 O 0.00259 0.49745 0.60777 0.0
O154 O 0.03991 0.51223 0.53972 0.0
O155 O 0.01426 0.53798 0.59082 0.0
C156 C 0.95403 0.55086 0.61347 0.0
O157 O 0.97122 0.55525 0.58087 0.0
O158 O 0.95196 0.52863 0.61235 0.0
C159 C 0.98605 0.51202 0.41389 0.0
H160 H 0.06061 0.08584 0.49946 0.0
H161 H 0.09092 0.09976 0.43912 0.0
H162 H 0.13552 0.04596 0.50685 0.0
H163 H 0.10522 0.03205 0.56831 0.0
H164 H 0.15659 0.08965 0.52835 0.0
H165 H 0.11246 0.03975 0.33891 0.0
H166 H 0.0762 0.0233 0.26779 0.0
H167 H 0.06027 0.08912 0.20001 0.0
H168 H 0.0961 0.10616 0.27208 0.0
H169 H 0.22627 0.15129 0.33878 0.0
H170 H 0.20766 0.11667 0.36644 0.0
H171 H 0.14096 0.14703 0.322 0.0
H172 H 0.15943 0.18121 0.29192 0.0
H173 H 0.13898 0.10179 0.27426 0.0
H174 H 0.1718 0.15282 0.49247 0.0
H175 H 0.20423 0.17338 0.57404 0.0
H176 H 0.23798 0.10903 0.59318 0.0
H177 H 0.20585 0.08814 0.51097 0.0
C178 C 0.07692 0.07709 0.50178 0.0
C179 C 0.08074 0.05796 0.53815 0.0
C180 C 0.09408 0.08487 0.46688 0.0
C181 C 0.11511 0.07345 0.46743 0.0
C182 C 0.11922 0.0547 0.50539 0.0
C183 C 0.10202 0.04691 0.54049 0.0
C184 C 0.13296 0.08205 0.4304 0.0
C185 C 0.15319 0.09169 0.4722 0.0
C186 C 0.12818 0.08471 0.35735 0.0
C187 C 0.10706 0.07425 0.3111 0.0
C188 C 0.10122 0.05075 0.309 0.0
C189 C 0.08069 0.04133 0.26865 0.0
C190 C 0.06593 0.05517 0.22951 0.0
C191 C 0.07173 0.07842 0.23034 0.0
C192 C 0.09217 0.08796 0.2709 0.0
C193 C 0.20762 0.1504 0.3345 0.0
C194 C 0.19415 0.16885 0.31441 0.0
C195 C 0.19707 0.13065 0.34987 0.0
C196 C 0.17303 0.12947 0.3467 0.0
C197 C 0.15957 0.14762 0.32425 0.0
C198 C 0.17008 0.16719 0.30787 0.0
C199 C 0.16175 0.11063 0.37349 0.0
C200 C 0.14289 0.09887 0.32954 0.0
C201 C 0.16746 0.10644 0.44503 0.0
C202 C 0.18663 0.11898 0.49487 0.0
C203 C 0.18621 0.1431 0.51375 0.0
C204 C 0.20452 0.1548 0.56011 0.0
C205 C 0.2232 0.14252 0.58848 0.0
C206 C 0.22354 0.11851 0.57092 0.0
C207 C 0.2053 0.10674 0.52446 0.0
H208 H 0.23739 0.1516 0.62411 0.0
H209 H 0.05002 0.04789 0.19844 0.0
H210 H 0.07683 0.97205 0.57869 0.0
H211 H 0.10362 0.9405 0.58806 0.0
H212 H 0.05108 0.89908 0.65194 0.0
H213 H 0.02413 0.93083 0.64389 0.0
H214 H 0.09086 0.89714 0.73692 0.0
H215 H 0.06795 0.88802 0.48348 0.0
H216 H 0.06106 0.90042 0.36413 0.0
H217 H 0.13298 0.91845 0.37939 0.0
H218 H 0.14025 0.90645 0.49931 0.0
H219 H 0.15181 0.79343 0.71915 0.0
H220 H 0.12297 0.82215 0.69152 0.0
H221 H 0.17548 0.86523 0.63427 0.0
H222 H 0.20447 0.8362 0.66096 0.0
H223 H 0.13525 0.86568 0.5434 0.0
H224 H 0.15788 0.87623 0.79762 0.0
H225 H 0.165 0.86424 0.91751 0.0
H226 H 0.09359 0.84401 0.90084 0.0
H227 H 0.08612 0.85558 0.78036 0.0
C228 C 0.07081 0.9562 0.59427 0.0
C229 C 0.04821 0.95406 0.61048 0.0
C230 C 0.08619 0.93808 0.59923 0.0
C231 C 0.07936 0.91724 0.61989 0.0
C232 C 0.05677 0.91496 0.6357 0.0
C233 C 0.04134 0.93313 0.63087 0.0
C234 C 0.0961 0.89829 0.628 0.0
C235 C 0.10025 0.89 0.6941 0.0
C236 C 0.10891 0.88938 0.57294 0.0
C237 C 0.10461 0.89652 0.50069 0.0
C238 C 0.08227 0.89479 0.46163 0.0
C239 C 0.0783 0.90172 0.39383 0.0
C240 C 0.09656 0.91027 0.36427 0.0
C241 C 0.11884 0.91185 0.40238 0.0
C242 C 0.12291 0.90496 0.47024 0.0
C243 C 0.15718 0.80891 0.69995 0.0
C244 C 0.18042 0.81266 0.69266 0.0
C245 C 0.14069 0.82537 0.68448 0.0
C246 C 0.14709 0.84609 0.66207 0.0
C247 C 0.17013 0.84944 0.65179 0.0
C248 C 0.18668 0.83287 0.6671 0.0
C249 C 0.12988 0.86452 0.65215 0.0
C250 C 0.12574 0.87276 0.58595 0.0
C251 C 0.11707 0.87345 0.70713 0.0
C252 C 0.1215 0.86656 0.77968 0.0
C253 C 0.14374 0.86906 0.81929 0.0
C254 C 0.14783 0.86237 0.88739 0.0
C255 C 0.12977 0.85331 0.9167 0.0
C256 C 0.10757 0.85099 0.87803 0.0
C257 C 0.10339 0.85763 0.80986 0.0
H258 H 0.13297 0.84814 0.96944 0.0
H259 H 0.09345 0.91563 0.31177 0.0
H260 H 0.32882 0.78169 0.86366 0.0
H261 H 0.35874 0.81208 0.89405 0.0
H262 H 0.30701 0.86367 0.86754 0.0
H263 H 0.2771 0.83312 0.83361 0.0
H264 H 0.3411 0.87795 0.81865 0.0
H265 H 0.33715 0.85161 0.04149 0.0
H266 H 0.3366 0.82348 0.12622 0.0
H267 H 0.4047 0.80235 0.0908 0.0
H268 H 0.40563 0.83039 1.00564 0.0
H269 H 0.41633 0.97203 1.00363 0.0
H270 H 0.38569 0.94202 0.97415 0.0
H271 H 0.43665 0.88998 0.94477 0.0
H272 H 0.46736 0.9199 0.97322 0.0
H273 H 0.40278 0.87687 1.02475 0.0
H274 H 0.40511 0.90725 0.80326 0.0
H275 H 0.40385 0.93831 0.72805 0.0
H276 H 0.33543 0.95485 0.77185 0.0
H277 H 0.33647 0.92417 0.84888 0.0
C278 C 0.3237 0.79949 0.86443 0.0
C279 C 0.30031 0.80474 0.84631 0.0
C280 C 0.34096 0.81705 0.88253 0.0
C281 C 0.33546 0.8406 0.88508 0.0
C282 C 0.31207 0.84584 0.86645 0.0
C283 C 0.29483 0.82824 0.84713 0.0
C284 C 0.354 0.85959 0.90588 0.0
C285 C 0.3543 0.87775 0.86449 0.0
C286 C 0.37171 0.85971 0.96525 0.0
C287 C 0.37136 0.84292 1.01667 0.0
C288 C 0.35196 0.84087 0.05148 0.0
C289 C 0.35158 0.82495 0.09963 0.0
C290 C 0.37055 0.81103 0.11361 0.0
C291 C 0.39 0.81311 0.0798 0.0
C292 C 0.39049 0.82906 1.03173 0.0
C293 C 0.42111 0.95423 0.99088 0.0
C294 C 0.44453 0.94861 0.99075 0.0
C295 C 0.40346 0.93699 0.97379 0.0
C296 C 0.40864 0.91353 0.95674 0.0
C297 C 0.43202 0.90784 0.95763 0.0
C298 C 0.44964 0.92509 0.97367 0.0
C299 C 0.38978 0.895 0.93742 0.0
C300 C 0.38947 0.87697 0.97909 0.0
C301 C 0.37174 0.89534 0.87949 0.0
C302 C 0.37097 0.91356 0.83243 0.0
C303 C 0.38986 0.91762 0.79734 0.0
C304 C 0.38918 0.93515 0.75429 0.0
C305 C 0.36959 0.94858 0.74515 0.0
C306 C 0.35061 0.94446 0.77902 0.0
C307 C 0.35124 0.92701 0.82243 0.0
H308 H 0.36911 0.96215 0.71176 0.0
H309 H 0.3702 0.79867 0.15079 0.0
H310 H 0.45506 0.09702 0.11409 0.0
H311 H 0.42652 0.12544 0.14685 0.0
H312 H 0.38554 0.07189 0.20777 0.0
H313 H 0.4141 0.04326 0.17436 0.0
H314 H 0.35967 0.09811 0.12211 0.0
H315 H 0.41503 0.11202 0.33401 0.0
H316 H 0.45364 0.12011 0.40397 0.0
H317 H 0.45791 0.18448 0.32161 0.0
H318 H 0.41944 0.17664 0.25031 0.0
H319 H 0.28034 0.17211 0.27888 0.0
H320 H 0.31095 0.14456 0.26359 0.0
H321 H 0.35219 0.19666 0.19675 0.0
H322 H 0.32164 0.22461 0.21257 0.0
H323 H 0.37796 0.17104 0.28844 0.0
H324 H 0.32274 0.157 0.07599 0.0
H325 H 0.28384 0.14932 1.00796 0.0
H326 H 0.27948 0.08493 0.09005 0.0
H327 H 0.3181 0.09255 0.1605 0.0
C328 C 0.44009 0.09135 0.13524 0.0
C329 C 0.43676 0.06797 0.14178 0.0
C330 C 0.42383 0.10762 0.15417 0.0
C331 C 0.40396 0.10084 0.18025 0.0
C332 C 0.40077 0.0775 0.18783 0.0
C333 C 0.4171 0.0612 0.16905 0.0
C334 C 0.38605 0.11794 0.19618 0.0
C335 C 0.36357 0.11386 0.15942 0.0
C336 C 0.39131 0.13882 0.24332 0.0
C337 C 0.41443 0.14363 0.2863 0.0
C338 C 0.42428 0.12782 0.33035 0.0
C339 C 0.44612 0.13237 0.37034 0.0
C340 C 0.45825 0.15277 0.3671 0.0
C341 C 0.44851 0.16868 0.324 0.0
C342 C 0.42668 0.1642 0.28384 0.0
C343 C 0.29591 0.17784 0.26112 0.0
C344 C 0.29841 0.2006 0.24642 0.0
C345 C 0.3134 0.162 0.25233 0.0
C346 C 0.33372 0.16847 0.22819 0.0
C347 C 0.33661 0.19131 0.21531 0.0
C348 C 0.31908 0.20723 0.22412 0.0
C349 C 0.35162 0.15114 0.21453 0.0
C350 C 0.37406 0.15522 0.25143 0.0
C351 C 0.34635 0.13026 0.16741 0.0
C352 C 0.32325 0.12546 0.12414 0.0
C353 C 0.31343 0.14128 0.08004 0.0
C354 C 0.29143 0.13693 0.04095 0.0
C355 C 0.27921 0.11664 0.04455 0.0
C356 C 0.28896 0.10065 0.08733 0.0
C357 C 0.3109 0.10499 0.12696 0.0
H358 H 0.26218 0.1133 1.01415 0.0
H359 H 0.47516 0.15627 0.39811 0.0
H360 H 0.94802 0.93507 0.70113 0.0
H361 H 0.91513 0.90873 0.69712 0.0
H362 H 0.86969 0.9566 0.59779 0.0
H363 H 0.90258 0.98311 0.60173 0.0
H364 H 0.85159 0.93502 0.70485 0.0
H365 H 0.8843 0.9152 0.49072 0.0
H366 H 0.91559 0.90702 0.41749 0.0
H367 H 0.93463 0.84832 0.52347 0.0
H368 H 0.90369 0.85637 0.5982 0.0
H369 H 0.77183 0.83827 0.64942 0.0
H370 H 0.79341 0.86998 0.61467 0.0
H371 H 0.85735 0.84159 0.70241 0.0
H372 H 0.83598 0.81 0.73701 0.0
H373 H 0.85911 0.85682 0.57144 0.0
H374 H 0.83262 0.88267 0.8018 0.0
H375 H 0.80237 0.89118 0.87892 0.0
H376 H 0.7719 0.93859 0.74198 0.0
H377 H 0.80186 0.93012 0.66355 0.0
C378 C 0.93096 0.94013 0.67971 0.0
C379 C 0.92771 0.96087 0.6511 0.0
C380 C 0.91228 0.9251 0.67708 0.0
C381 C 0.89026 0.93069 0.6458 0.0
C382 C 0.88669 0.95206 0.6215 0.0
C383 C 0.90541 0.9671 0.62387 0.0
C384 C 0.87136 0.91349 0.63582 0.0
C385 C 0.85283 0.91809 0.67427 0.0
C386 C 0.87317 0.89155 0.59559 0.0
C387 C 0.89171 0.88647 0.55033 0.0
C388 C 0.89525 0.90064 0.49878 0.0
C389 C 0.91292 0.89601 0.45694 0.0
C390 C 0.9271 0.87718 0.46587 0.0
C391 C 0.92362 0.86291 0.51659 0.0
C392 C 0.906 0.86748 0.55864 0.0
C393 C 0.79051 0.83877 0.66049 0.0
C394 C 0.80238 0.82199 0.69629 0.0
C395 C 0.80273 0.85678 0.64065 0.0
C396 C 0.82684 0.85802 0.65641 0.0
C397 C 0.8387 0.84075 0.68968 0.0
C398 C 0.82653 0.82286 0.70975 0.0
C399 C 0.84002 0.87801 0.64333 0.0
C400 C 0.85743 0.87398 0.60012 0.0
C401 C 0.83717 0.90044 0.67917 0.0
C402 C 0.81925 0.90554 0.72638 0.0
C403 C 0.81935 0.89476 0.78785 0.0
C404 C 0.80229 0.8996 0.83184 0.0
C405 C 0.78517 0.91535 0.81521 0.0
C406 C 0.78513 0.92635 0.75468 0.0
C407 C 0.80214 0.92154 0.71046 0.0
H408 H 0.77198 0.91909 0.84935 0.0
H409 H 0.94077 0.87362 0.43343 0.0
H410 H 0.93362 0.05326 0.63244 0.0
H411 H 0.90486 0.08114 0.59747 0.0
H412 H 0.95427 0.11439 0.49452 0.0
H413 H 0.98337 0.08671 0.53027 0.0
H414 H 0.92883 0.14608 0.56291 0.0
H415 H 0.91379 0.0769 0.39733 0.0
H416 H 0.90698 0.03504 0.36011 0.0
H417 H 0.84521 0.03787 0.45832 0.0
H418 H 0.85191 0.0797 0.49758 0.0
H419 H 0.8465 0.20145 0.33113 0.0
H420 H 0.87685 0.17664 0.37833 0.0
H421 H 0.83021 0.14989 0.50496 0.0
H422 H 0.79984 0.17496 0.45856 0.0
H423 H 0.85431 0.11523 0.42407 0.0
H424 H 0.87071 0.18527 0.58982 0.0
H425 H 0.87812 0.22726 0.62304 0.0
H426 H 0.93805 0.22258 0.51576 0.0
H427 H 0.93076 0.18063 0.48104 0.0
C428 C 0.93853 0.06662 0.60302 0.0
C429 C 0.96085 0.0676 0.58393 0.0
C430 C 0.92198 0.08252 0.58273 0.0
C431 C 0.92723 0.09965 0.54222 0.0
C432 C 0.94976 0.10129 0.52554 0.0
C433 C 0.96639 0.08542 0.54607 0.0
C434 C 0.90899 0.11527 0.51538 0.0
C435 C 0.91266 0.13931 0.53185 0.0
C436 C 0.88773 0.10652 0.47536 0.0
C437 C 0.88348 0.08141 0.45106 0.0
C438 C 0.89885 0.06858 0.4115 0.0
C439 C 0.895 0.04486 0.38997 0.0
C440 C 0.87569 0.0338 0.4069 0.0
C441 C 0.86017 0.04646 0.44532 0.0
C442 C 0.86399 0.07018 0.46725 0.0
C443 C 0.84275 0.19035 0.36927 0.0
C444 C 0.8208 0.19007 0.39103 0.0
C445 C 0.86011 0.17623 0.3963 0.0
C446 C 0.85581 0.16142 0.44522 0.0
C447 C 0.83388 0.16113 0.46712 0.0
C448 C 0.81658 0.17548 0.44073 0.0
C449 C 0.8741 0.14595 0.47229 0.0
C450 C 0.87046 0.12195 0.4554 0.0
C451 C 0.89548 0.15473 0.51101 0.0
C452 C 0.90003 0.17989 0.5322 0.0
C453 C 0.88533 0.19326 0.57278 0.0
C454 C 0.88953 0.21703 0.59198 0.0
C455 C 0.9085 0.22759 0.57132 0.0
C456 C 0.92334 0.21439 0.53162 0.0
C457 C 0.91919 0.19061 0.51223 0.0
H458 H 0.91173 0.246 0.58623 0.0
H459 H 0.87274 0.01544 0.39016 0.0
H460 H 0.66922 0.21857 0.22846 0.0
H461 H 0.63917 0.18801 0.19949 0.0
H462 H 0.69091 0.13654 0.22544 0.0
H463 H 0.72106 0.16704 0.25551 0.0
H464 H 0.65851 0.12444 0.10179 0.0
H465 H 0.65737 0.14979 0.35208 0.0
H466 H 0.65475 0.17845 0.45822 0.0
H467 H 0.58732 0.19675 0.36583 0.0
H468 H 0.58968 0.1684 0.25861 0.0
H469 H 0.58194 0.0281 0.08818 0.0
H470 H 0.61251 0.05791 0.12081 0.0
H471 H 0.56132 0.1101 0.14579 0.0
H472 H 0.53078 0.08019 0.11645 0.0
H473 H 0.5941 0.12206 0.24412 0.0
H474 H 0.59431 0.09904 0.99384 0.0
H475 H 0.59603 0.07208 0.88324 0.0
H476 H 0.66351 0.05161 0.96792 0.0
H477 H 0.66208 0.07825 0.07943 0.0
C478 C 0.6743 0.20078 0.22824 0.0
C479 C 0.69777 0.19548 0.24479 0.0
C480 C 0.65699 0.18323 0.21174 0.0
C481 C 0.66255 0.15976 0.21039 0.0
C482 C 0.68598 0.15439 0.22597 0.0
C483 C 0.70328 0.17196 0.24357 0.0
C484 C 0.644 0.1409 0.1928 0.0
C485 C 0.6446 0.12376 0.13355 0.0
C486 C 0.62531 0.14017 0.23249 0.0
C487 C 0.62381 0.15714 0.29701 0.0
C488 C 0.64206 0.16006 0.35413 0.0
C489 C 0.64061 0.17622 0.41454 0.0
C490 C 0.6209 0.18946 0.41869 0.0
C491 C 0.60259 0.18651 0.3625 0.0
C492 C 0.60397 0.17038 0.30192 0.0
C493 C 0.57711 0.04592 0.10051 0.0
C494 C 0.55367 0.05154 0.09916 0.0
C495 C 0.59475 0.06313 0.1188 0.0
C496 C 0.58958 0.0867 0.13465 0.0
C497 C 0.56614 0.09226 0.13394 0.0
C498 C 0.54853 0.07501 0.11681 0.0
C499 C 0.60842 0.10544 0.15255 0.0
C500 C 0.60792 0.12263 0.21201 0.0
C501 C 0.62702 0.10644 0.11226 0.0
C502 C 0.62798 0.09046 0.04525 0.0
C503 C 0.60945 0.08867 0.98905 0.0
C504 C 0.61038 0.07347 0.92618 0.0
C505 C 0.62984 0.0601 0.91864 0.0
C506 C 0.64844 0.06195 0.97389 0.0
C507 C 0.64758 0.07711 0.03691 0.0
H508 H 0.63053 0.04833 0.86993 0.0
H509 H 0.61981 0.20196 0.4655 0.0
H510 H 0.67524 0.77707 0.84842 0.0
H511 H 0.64598 0.80571 0.87167 0.0
H512 H 0.68378 0.85567 0.78338 0.0
H513 H 0.71333 0.82733 0.76116 0.0
H514 H 0.66995 0.87492 0.90379 0.0
H515 H 0.63405 0.82825 0.68954 0.0
H516 H 0.62016 0.792 0.61279 0.0
H517 H 0.57467 0.77889 0.76152 0.0
H518 H 0.58853 0.81492 0.83969 0.0
H519 H 0.58053 0.95706 0.89366 0.0
H520 H 0.60878 0.92884 0.85517 0.0
H521 H 0.57458 0.87629 0.94368 0.0
H522 H 0.54621 0.90426 0.98103 0.0
H523 H 0.58665 0.85906 0.81746 0.0
H524 H 0.62381 0.90453 1.03398 0.0
H525 H 0.63778 0.94058 0.11176 0.0
H526 H 0.68097 0.95573 0.95897 0.0
H527 H 0.667 0.9199 0.87981 0.0
C528 C 0.67731 0.7941 0.8336 0.0
C529 C 0.69665 0.79982 0.80268 0.0
C530 C 0.66049 0.81046 0.84672 0.0
C531 C 0.66251 0.83279 0.82847 0.0
C532 C 0.68182 0.83856 0.79785 0.0
C533 C 0.69869 0.82227 0.78504 0.0
C534 C 0.64474 0.85028 0.84254 0.0
C535 C 0.65177 0.87158 0.88391 0.0
C536 C 0.62095 0.84579 0.81789 0.0
C537 C 0.61248 0.82419 0.77076 0.0
C538 C 0.62121 0.81756 0.70613 0.0
C539 C 0.61332 0.79706 0.66233 0.0
C540 C 0.59658 0.78312 0.68234 0.0
C541 C 0.58765 0.78969 0.74612 0.0
C542 C 0.5955 0.81016 0.79015 0.0
C543 C 0.57899 0.93943 0.90428 0.0
C544 C 0.56129 0.93284 0.94056 0.0
C545 C 0.59517 0.92336 0.88262 0.0
C546 C 0.59398 0.9005 0.89739 0.0
C547 C 0.57587 0.8938 0.93175 0.0
C548 C 0.55971 0.90982 0.95323 0.0
C549 C 0.61187 0.88362 0.87892 0.0
C550 C 0.60485 0.86244 0.83685 0.0
C551 C 0.63567 0.8882 0.90297 0.0
C552 C 0.64417 0.90967 0.95065 0.0
C553 C 0.63615 0.91564 1.01674 0.0
C554 C 0.64409 0.93601 0.0611 0.0
C555 C 0.6602 0.95047 0.04022 0.0
C556 C 0.66846 0.94454 0.97501 0.0
C557 C 0.66055 0.92419 0.9304 0.0
H558 H 0.66633 0.96624 0.07464 0.0
H559 H 0.5905 0.76726 0.64837 0.0
H560 H 0.56973 0.5779 1.02942 0.0
H561 H 0.6016 0.59907 0.99635 0.0
H562 H 0.61088 0.5425 0.8322 0.0
H563 H 0.57873 0.52108 0.86538 0.0
H564 H 0.64689 0.5891 0.99486 0.0
H565 H 0.62462 0.57183 0.68711 0.0
H566 H 0.59133 0.56107 0.59324 0.0
H567 H 0.545 0.58832 0.73788 0.0
H568 H 0.578 0.59984 0.83177 0.0
H569 H 0.72559 0.65841 0.85315 0.0
H570 H 0.70393 0.62447 0.87286 0.0
H571 H 0.63999 0.65909 0.82145 0.0
H572 H 0.66151 0.69266 0.79959 0.0
H573 H 0.63729 0.61593 0.75722 0.0
H574 H 0.66399 0.65665 0.9943 0.0
H575 H 0.69365 0.67379 0.09273 0.0
H576 H 0.72477 0.60763 0.10003 0.0
H577 H 0.69545 0.59017 1.00091 0.0
C578 C 0.57861 0.56996 0.98646 0.0
C579 C 0.57189 0.54803 0.94961 0.0
C580 C 0.5969 0.58193 0.96812 0.0
C581 C 0.60856 0.5722 0.91232 0.0
C582 C 0.60203 0.55015 0.8756 0.0
C583 C 0.58373 0.53805 0.89433 0.0
C584 C 0.6265 0.58617 0.89061 0.0
C585 C 0.6451 0.59468 0.94248 0.0
C586 C 0.62383 0.5935 0.8225 0.0
C587 C 0.60378 0.58624 0.76693 0.0
C588 C 0.60732 0.5755 0.69885 0.0
C589 C 0.58851 0.5694 0.64551 0.0
C590 C 0.56607 0.57393 0.6597 0.0
C591 C 0.56239 0.58469 0.7271 0.0
C592 C 0.58114 0.59102 0.78039 0.0
C593 C 0.7069 0.6587 0.84635 0.0
C594 C 0.69506 0.67798 0.82516 0.0
C595 C 0.69462 0.63937 0.85741 0.0
C596 C 0.67044 0.63938 0.8485 0.0
C597 C 0.65867 0.65875 0.82784 0.0
C598 C 0.67092 0.67792 0.81598 0.0
C599 C 0.6571 0.61957 0.86242 0.0
C600 C 0.63957 0.60976 0.80878 0.0
C601 C 0.6602 0.61172 0.92979 0.0
C602 C 0.67774 0.62218 0.98958 0.0
C603 C 0.67727 0.6458 1.01653 0.0
C604 C 0.69399 0.65557 0.07248 0.0
C605 C 0.71113 0.64182 0.10239 0.0
C606 C 0.71152 0.61827 0.07664 0.0
C607 C 0.69486 0.60842 1.02059 0.0
H608 H 0.72408 0.64941 0.14558 0.0
H609 H 0.55153 0.56917 0.61839 0.0
H610 H 0.69495 0.34073 0.2706 0.0
H611 H 0.66439 0.36603 0.22891 0.0
H612 H 0.63981 0.31335 0.0525 0.0
H613 H 0.67061 0.28784 0.09418 0.0
H614 H 0.63956 0.3572 1.0118 0.0
H615 H 0.61186 0.31987 0.19175 0.0
H616 H 0.6135 0.30671 0.3096 0.0
H617 H 0.61926 0.37712 0.4121 0.0
H618 H 0.61799 0.3907 0.29487 0.0
H619 H 0.52138 0.41681 0.0629 0.0
H620 H 0.5493 0.38664 0.08338 0.0
H621 H 0.60339 0.43017 0.03721 0.0
H622 H 0.57561 0.46026 1.0155 0.0
H623 H 0.58581 0.38655 0.18101 0.0
H624 H 0.64441 0.39726 0.96561 0.0
H625 H 0.64092 0.40845 0.84466 0.0
H626 H 0.56941 0.38713 0.80578 0.0
H627 H 0.57255 0.3755 0.92605 0.0
C628 C 0.68316 0.33458 0.22258 0.0
C629 C 0.68508 0.31228 0.18575 0.0
C630 C 0.66566 0.34903 0.19893 0.0
C631 C 0.64964 0.34149 0.13804 0.0
C632 C 0.65198 0.3195 0.09963 0.0
C633 C 0.66951 0.30495 0.1235 0.0
C634 C 0.63008 0.3564 0.11642 0.0
C635 C 0.62777 0.3636 0.04867 0.0
C636 C 0.61437 0.36437 0.16393 0.0
C637 C 0.61502 0.35629 0.23454 0.0
C638 C 0.61365 0.33254 0.23946 0.0
C639 C 0.61449 0.32501 0.30614 0.0
C640 C 0.61654 0.34107 0.36831 0.0
C641 C 0.6177 0.3647 0.3639 0.0
C642 C 0.61689 0.37233 0.29734 0.0
C643 C 0.53917 0.41995 0.05649 0.0
C644 C 0.54616 0.44105 0.03744 0.0
C645 C 0.55515 0.40266 0.06843 0.0
C646 C 0.57845 0.40599 0.06127 0.0
C647 C 0.58546 0.42698 0.04191 0.0
C648 C 0.56951 0.44426 1.02985 0.0
C649 C 0.5956 0.38795 0.07698 0.0
C650 C 0.59749 0.38013 0.14382 0.0
C651 C 0.61066 0.37917 1.02813 0.0
C652 C 0.60869 0.3857 0.95514 0.0
C653 C 0.62798 0.39484 0.93112 0.0
C654 C 0.62605 0.40129 0.8627 0.0
C655 C 0.60494 0.39857 0.81766 0.0
C656 C 0.58573 0.3893 0.84082 0.0
C657 C 0.58757 0.38281 0.90915 0.0
H658 H 0.60347 0.4036 0.76476 0.0
H659 H 0.61718 0.3352 0.41989 0.0
H660 H 0.92053 0.46679 0.54384 0.0
H661 H 0.89052 0.43619 0.51451 0.0
H662 H 0.93385 0.39509 0.38413 0.0
H663 H 0.96387 0.42556 0.41303 0.0
H664 H 0.89039 0.39232 0.31687 0.0
H665 H 0.92674 0.38322 0.55233 0.0
H666 H 0.94079 0.39573 0.67999 0.0
H667 H 0.87175 0.41213 0.71795 0.0
H668 H 0.85734 0.40001 0.59024 0.0
H669 H 0.82657 0.28419 0.40991 0.0
H670 H 0.85655 0.31484 0.43917 0.0
H671 H 0.81413 0.35806 0.31145 0.0
H672 H 0.78412 0.32755 0.28199 0.0
H673 H 0.85825 0.35863 0.50797 0.0
H674 H 0.84907 0.39196 0.23442 0.0
H675 H 0.83727 0.37734 0.1067 0.0
H676 H 0.85586 0.30873 0.14503 0.0
H677 H 0.86805 0.32299 0.27271 0.0
C678 C 0.92373 0.45129 0.50876 0.0
C679 C 0.94487 0.44885 0.48121 0.0
C680 C 0.90649 0.43365 0.49219 0.0
C681 C 0.90977 0.41298 0.44738 0.0
C682 C 0.93068 0.4107 0.41879 0.0
C683 C 0.94798 0.42824 0.43572 0.0
C684 C 0.8916 0.39372 0.43065 0.0
C685 C 0.88334 0.38511 0.35888 0.0
C686 C 0.8824 0.38374 0.4848 0.0
C687 C 0.891 0.39092 0.56161 0.0
C688 C 0.91459 0.38966 0.58781 0.0
C689 C 0.92261 0.39665 0.66019 0.0
C690 C 0.90718 0.40478 0.70702 0.0
C691 C 0.88369 0.40586 0.68159 0.0
C692 C 0.87558 0.39892 0.60923 0.0
C693 C 0.82355 0.30019 0.38785 0.0
C694 C 0.80274 0.30315 0.34316 0.0
C695 C 0.84077 0.31784 0.40499 0.0
C696 C 0.83793 0.33893 0.3773 0.0
C697 C 0.8171 0.34199 0.33309 0.0
C698 C 0.7998 0.32443 0.31639 0.0
C699 C 0.85671 0.35758 0.3942 0.0
C700 C 0.86515 0.36601 0.46598 0.0
C701 C 0.86624 0.36724 0.34007 0.0
C702 C 0.85923 0.35852 0.26325 0.0
C703 C 0.8507 0.37377 0.21551 0.0
C704 C 0.84394 0.36555 0.14314 0.0
C705 C 0.84574 0.34211 0.11782 0.0
C706 C 0.85439 0.32686 0.16476 0.0
C707 C 0.8612 0.335 0.23715 0.0
H708 H 0.84048 0.33577 0.06179 0.0
H709 H 0.91343 0.41018 0.76304 0.0
H710 H 0.78308 0.67519 0.77734 0.0
H711 H 0.81308 0.64696 0.76104 0.0
H712 H 0.85595 0.69876 0.69919 0.0
H713 H 0.82586 0.72714 0.71429 0.0
H714 H 0.85503 0.65933 0.60943 0.0
H715 H 0.86748 0.68058 0.86395 0.0
H716 H 0.85654 0.6871 0.98517 0.0
H717 H 0.83641 0.61553 0.96691 0.0
H718 H 0.84692 0.60864 0.84511 0.0
H719 H 0.95761 0.59726 0.61633 0.0
H720 H 0.92952 0.62622 0.64865 0.0
H721 H 0.88609 0.57311 0.7013 0.0
H722 H 0.91442 0.54397 0.66966 0.0
H723 H 0.88738 0.61299 0.79736 0.0
H724 H 0.87421 0.59197 0.54258 0.0
H725 H 0.88492 0.58536 0.42108 0.0
H726 H 0.9061 0.65666 0.43997 0.0
H727 H 0.89582 0.66362 0.56206 0.0
C728 C 0.7989 0.68069 0.76052 0.0
C729 C 0.80201 0.70351 0.74716 0.0
C730 C 0.81612 0.6645 0.75161 0.0
C731 C 0.8369 0.67078 0.72971 0.0
C732 C 0.84008 0.69353 0.71631 0.0
C733 C 0.82285 0.70975 0.72511 0.0
C734 C 0.85496 0.65342 0.7183 0.0
C735 C 0.86236 0.64948 0.65095 0.0
C736 C 0.86406 0.64006 0.77179 0.0
C737 C 0.85778 0.64414 0.84512 0.0
C738 C 0.86054 0.66627 0.88554 0.0
C739 C 0.85445 0.67003 0.95441 0.0
C740 C 0.84573 0.65176 0.98365 0.0
C741 C 0.84314 0.62968 0.94415 0.0
C742 C 0.84918 0.62583 0.87522 0.0
C743 C 0.94219 0.59178 0.63551 0.0
C744 C 0.93806 0.56837 0.64 0.0
C745 C 0.92612 0.60833 0.6537 0.0
C746 C 0.90552 0.60178 0.67618 0.0
C747 C 0.90183 0.57852 0.68377 0.0
C748 C 0.91797 0.56191 0.66562 0.0
C749 C 0.88752 0.61908 0.68874 0.0
C750 C 0.88008 0.62293 0.75607 0.0
C751 C 0.87833 0.63238 0.63524 0.0
C752 C 0.88446 0.62826 0.56174 0.0
C753 C 0.88133 0.6062 0.52105 0.0
C754 C 0.88729 0.60239 0.45204 0.0
C755 C 0.89624 0.62057 0.42289 0.0
C756 C 0.89919 0.6426 0.46265 0.0
C757 C 0.89329 0.64648 0.53174 0.0
H758 H 0.90084 0.61759 0.36944 0.0
H759 H 0.84103 0.6547 0.03698 0.0
H760 H 0.27051 0.33509 0.15519 0.0
H761 H 0.2942 0.36716 0.13137 0.0
H762 H 0.35167 0.34612 0.27387 0.0
H763 H 0.32831 0.31408 0.29727 0.0
H764 H 0.32416 0.40502 0.22185 0.0
H765 H 0.39468 0.33941 0.17414 0.0
H766 H 0.39842 0.29736 0.14156 0.0
H767 H 0.33029 0.29292 1.022 0.0
H768 H 0.32632 0.33497 0.05294 0.0
H769 H 0.43042 0.46022 0.18621 0.0
H770 H 0.39897 0.43827 0.22055 0.0
H771 H 0.38375 0.40336 1.00369 0.0
H772 H 0.41598 0.42412 0.97078 0.0
H773 H 0.38714 0.37375 0.08991 0.0
H774 H 0.34756 0.446 0.08098 0.0
H775 H 0.34407 0.4881 0.11263 0.0
H776 H 0.34893 0.48025 0.3346 0.0
H777 H 0.35264 0.43812 0.3043 0.0
C778 C 0.28812 0.33756 0.18192 0.0
C779 C 0.29789 0.32203 0.22675 0.0
C780 C 0.30144 0.35596 0.16907 0.0
C781 C 0.32452 0.35875 0.20092 0.0
C782 C 0.33381 0.34406 0.24904 0.0
C783 C 0.32058 0.3257 0.26166 0.0
C784 C 0.34004 0.37446 0.1757 0.0
C785 C 0.33789 0.39837 0.19257 0.0
C786 C 0.35766 0.36548 0.13719 0.0
C787 C 0.36014 0.34028 0.11644 0.0
C788 C 0.38056 0.32946 0.14057 0.0
C789 C 0.38271 0.30563 0.12244 0.0
C790 C 0.36458 0.29247 0.07992 0.0
C791 C 0.3443 0.30312 0.05513 0.0
C792 C 0.34208 0.32695 0.073 0.0
C793 C 0.42018 0.4479 0.1462 0.0
C794 C 0.4255 0.44347 0.07634 0.0
C795 C 0.40217 0.4356 0.16552 0.0
C796 C 0.38894 0.4194 0.11438 0.0
C797 C 0.39384 0.41573 0.0439 0.0
C798 C 0.41221 0.42749 1.02521 0.0
C799 C 0.37136 0.40465 0.1351 0.0
C800 C 0.37327 0.38069 0.11813 0.0
C801 C 0.35339 0.41371 0.17233 0.0
C802 C 0.35044 0.43893 0.19037 0.0
C803 C 0.34791 0.45326 0.13654 0.0
C804 C 0.3459 0.47713 0.15424 0.0
C805 C 0.34628 0.48684 0.22557 0.0
C806 C 0.34858 0.4727 0.27935 0.0
C807 C 0.35059 0.44882 0.26193 0.0
H808 H 0.34479 0.50532 0.23919 0.0
H809 H 0.36626 0.27402 0.06608 0.0
H810 H 0.42341 0.53111 1.02549 0.0
H811 H 0.39537 0.56129 1.00957 0.0
H812 H 0.44654 0.60309 0.94063 0.0
H813 H 0.47498 0.57302 0.95744 0.0
H814 H 0.42167 0.62917 1.02913 0.0
H815 H 0.40479 0.57288 0.81972 0.0
H816 H 0.39611 0.53392 0.75252 0.0
H817 H 0.3343 0.52951 0.84788 0.0
H818 H 0.34277 0.56834 0.91646 0.0
H819 H 0.34595 0.70535 0.85613 0.0
H820 H 0.3745 0.6768 0.88786 0.0
H821 H 0.3219 0.63665 0.95652 0.0
H822 H 0.2931 0.6652 0.92383 0.0
H823 H 0.34719 0.60978 0.87189 0.0
H824 H 0.36361 0.66752 0.07746 0.0
H825 H 0.37241 0.70691 0.14126 0.0
H826 H 0.43531 0.70907 0.05038 0.0
H827 H 0.42672 0.66982 0.98505 0.0
C828 C 0.42883 0.5467 1.007 0.0
C829 C 0.45152 0.54948 0.99229 0.0
C830 C 0.41267 0.56396 0.99773 0.0
C831 C 0.41869 0.58437 0.97289 0.0
C832 C 0.44145 0.58748 0.95969 0.0
C833 C 0.45769 0.57021 0.96914 0.0
C834 C 0.4011 0.60223 0.9597 0.0
C835 C 0.4055 0.62499 0.9941 0.0
C836 C 0.37975 0.59673 0.9152 0.0
C837 C 0.37454 0.57342 0.87377 0.0
C838 C 0.38943 0.56353 0.82678 0.0
C839 C 0.38454 0.54148 0.78837 0.0
C840 C 0.3647 0.52922 0.79607 0.0
C841 C 0.34968 0.53901 0.84205 0.0
C842 C 0.35451 0.56105 0.88066 0.0
C843 C 0.3405 0.69057 0.87871 0.0
C844 C 0.31731 0.6875 0.88764 0.0
C845 C 0.35687 0.67428 0.89708 0.0
C846 C 0.35045 0.65462 0.92523 0.0
C847 C 0.32729 0.65168 0.93501 0.0
C848 C 0.31088 0.66803 0.91664 0.0
C849 C 0.36772 0.63674 0.94136 0.0
C850 C 0.36329 0.61395 0.90732 0.0
C851 C 0.38907 0.64227 0.98591 0.0
C852 C 0.39442 0.66578 1.02585 0.0
C853 C 0.37924 0.67645 0.07066 0.0
C854 C 0.38419 0.69874 0.10716 0.0
C855 C 0.40437 0.7105 0.09976 0.0
C856 C 0.41967 0.69995 0.05601 0.0
C857 C 0.41478 0.67767 1.01928 0.0
H858 H 0.40816 0.72777 0.12804 0.0
H859 H 0.36094 0.51216 0.76628 0.0
H860 H 0.22133 0.66707 0.73609 0.0
H861 H 0.19118 0.63652 0.70482 0.0
H862 H 0.13897 0.68811 0.69626 0.0
H863 H 0.169 0.71873 0.7257 0.0
H864 H 0.12933 0.65105 0.77539 0.0
H865 H 0.15007 0.6614 0.54626 0.0
H866 H 0.17715 0.66366 0.45933 0.0
H867 H 0.19716 0.59386 0.47674 0.0
H868 H 0.17044 0.59131 0.56469 0.0
H869 H 0.03159 0.57918 0.62309 0.0
H870 H 0.06193 0.60918 0.65221 0.0
H871 H 0.1125 0.55876 0.59867 0.0
H872 H 0.08197 0.52877 0.56684 0.0
H873 H 0.12384 0.59526 0.55239 0.0
H874 H 0.10626 0.5839 0.78175 0.0
H875 H 0.08235 0.58052 0.87651 0.0
H876 H 0.05926 0.64977 0.86655 0.0
H877 H 0.08309 0.65356 0.77161 0.0
C878 C 0.20345 0.67199 0.72746 0.0
C879 C 0.19777 0.69554 0.73342 0.0
C880 C 0.18616 0.65442 0.70936 0.0
C881 C 0.16262 0.65983 0.69792 0.0
C882 C 0.1569 0.68332 0.70475 0.0
C883 C 0.17419 0.70089 0.72137 0.0
C884 C 0.14403 0.6411 0.67893 0.0
C885 C 0.12796 0.63906 0.72613 0.0
C886 C 0.14249 0.62482 0.61587 0.0
C887 C 0.15843 0.62625 0.56263 0.0
C888 C 0.16039 0.6466 0.53204 0.0
C889 C 0.17565 0.64792 0.48249 0.0
C890 C 0.18892 0.62893 0.46267 0.0
C891 C 0.1869 0.60856 0.49222 0.0
C892 C 0.17169 0.60717 0.54189 0.0
C893 C 0.04916 0.57434 0.61765 0.0
C894 C 0.05411 0.55128 0.59272 0.0
C895 C 0.06669 0.59164 0.63494 0.0
C896 C 0.08995 0.58651 0.62935 0.0
C897 C 0.09489 0.5635 0.60392 0.0
C898 C 0.0773 0.54621 0.58583 0.0
C899 C 0.1089 0.60509 0.64889 0.0
C900 C 0.12511 0.60717 0.60178 0.0
C901 C 0.11084 0.62117 0.71279 0.0
C902 C 0.09626 0.61892 0.76912 0.0
C903 C 0.09594 0.59834 0.7994 0.0
C904 C 0.08244 0.59637 0.85323 0.0
C905 C 0.06919 0.61488 0.87732 0.0
C906 C 0.06949 0.63543 0.84775 0.0
C907 C 0.08305 0.63753 0.79407 0.0
H908 H 0.05878 0.61334 0.9191 0.0
H909 H 0.20072 0.62998 0.4243 0.0
H910 H 0.2066 0.32078 0.25221 0.0
H911 H 0.17756 0.34932 0.27673 0.0
H912 H 0.13756 0.29836 0.35338 0.0
H913 H 0.16658 0.2694 0.32849 0.0
H914 H 0.11046 0.32585 0.26903 0.0
H915 H 0.17112 0.3357 0.46776 0.0
H916 H 0.21162 0.34103 0.52465 0.0
H917 H 0.21566 0.4065 0.44876 0.0
H918 H 0.17545 0.40116 0.38879 0.0
H919 H 0.0411 0.40284 0.46394 0.0
H920 H 0.06783 0.37325 0.42585 0.0
H921 H 0.10932 0.4251 0.35849 0.0
H922 H 0.0826 0.45496 0.39751 0.0
H923 H 0.13558 0.39704 0.43685 0.0
H924 H 0.07555 0.38711 0.23663 0.0
H925 H 0.0355 0.38154 0.17611 0.0
H926 H 0.03026 0.31674 0.25519 0.0
H927 H 0.07022 0.3221 0.31741 0.0
C928 C 0.1916 0.31548 0.27392 0.0
C929 C 0.18906 0.29277 0.28896 0.0
C930 C 0.17502 0.33189 0.28798 0.0
C931 C 0.15559 0.32605 0.31781 0.0
C932 C 0.1525 0.30323 0.33053 0.0
C933 C 0.16913 0.28672 0.31643 0.0
C934 C 0.13901 0.34407 0.33799 0.0
C935 C 0.11586 0.34128 0.30642 0.0
C936 C 0.14624 0.36443 0.38563 0.0
C937 C 0.17029 0.36791 0.42308 0.0
C938 C 0.18068 0.35115 0.46261 0.0
C939 C 0.2036 0.35417 0.49547 0.0
C940 C 0.21618 0.37411 0.49055 0.0
C941 C 0.20589 0.39105 0.45254 0.0
C942 C 0.18305 0.38801 0.4189 0.0
C943 C 0.05582 0.40792 0.44047 0.0
C944 C 0.0598 0.43116 0.4335 0.0
C945 C 0.07105 0.39097 0.41852 0.0
C946 C 0.09048 0.39691 0.38874 0.0
C947 C 0.09441 0.42014 0.38125 0.0
C948 C 0.07912 0.43714 0.40321 0.0
C949 C 0.10701 0.37891 0.3676 0.0
C950 C 0.13017 0.38166 0.39927 0.0
C951 C 0.09979 0.35852 0.3201 0.0
C952 C 0.07582 0.35512 0.28226 0.0
C953 C 0.06581 0.37176 0.24161 0.0
C954 C 0.04312 0.36863 0.20691 0.0
C955 C 0.0303 0.34883 0.21187 0.0
C956 C 0.04019 0.33208 0.25145 0.0
C957 C 0.06287 0.33515 0.28643 0.0
H958 H 0.01273 0.34646 0.18493 0.0
H959 H 0.2339 0.37644 0.51618 0.0
H960 H 0.04519 0.04218 0.86613 0.0
H961 H 0.04106 0.03707 0.98842 0.0
H962 H 0.97815 0.99718 0.91188 0.0
H963 H 0.98235 0.00225 0.78787 0.0
H964 H 0.97429 0.02873 1.03381 0.0
H965 H 0.02596 0.96983 0.96587 0.0
H966 H 0.05985 0.95344 0.91545 0.0
H967 H 0.10488 0.99751 0.07605 0.0
H968 H 0.07123 0.01438 0.12662 0.0
H969 H 0.96685 0.98084 0.35089 0.0
H970 H 0.97156 0.9859 0.22902 0.0
H971 H 0.03307 0.0277 0.30847 0.0
H972 H 0.02832 0.02266 0.43209 0.0
H973 H 0.03785 0.99531 0.18533 0.0
H974 H 0.9847 0.05328 0.25475 0.0
H975 H 0.95002 0.06848 0.30325 0.0
H976 H 0.90681 0.02457 0.13733 0.0
H977 H 0.94124 0.00877 0.08858 0.0
C978 C 0.03042 0.03229 0.87497 0.0
C979 C 0.01414 0.02255 0.81685 0.0
C980 C 0.02813 0.0293 0.94529 0.0
C981 C 0.00944 0.01652 0.96008 0.0
C982 C 0.99281 0.00708 0.90224 0.0
C983 C 0.99522 0.00991 0.83126 0.0
C984 C 0.00757 0.01321 1.03596 0.0
C985 C 0.98805 0.0211 0.06648 0.0
C986 C 0.02571 0.00375 0.0798 0.0
C987 C 0.04604 0.99353 0.04982 0.0
C988 C 0.04308 0.97615 0.99015 0.0
C989 C 0.06225 0.96674 0.96153 0.0
C990 C 0.08451 0.97445 0.99244 0.0
C991 C 0.08763 0.99155 0.05212 0.0
C992 C 0.0685 0.00103 0.08085 0.0
C993 C 0.98146 0.99111 0.34278 0.0
C994 C 0.99716 0.0014 0.4016 0.0
C995 C 0.98409 0.99405 0.2727 0.0
C996 C 0.00255 0.00737 0.25883 0.0
C997 C 0.01864 0.01735 0.31737 0.0
C998 C 0.01589 0.01454 0.38813 0.0
C999 C 0.00455 0.01085 0.18319 0.0
C1000 C 0.0241 0.00297 0.15269 0.0
C1001 C 0.98635 0.02018 0.1392 0.0
C1002 C 0.96559 0.0297 0.16833 0.0
C1003 C 0.96781 0.04671 0.22894 0.0
C1004 C 0.9482 0.05546 0.25644 0.0
C1005 C 0.92623 0.04749 0.22339 0.0
C1006 C 0.92384 0.03073 0.16286 0.0
C1007 C 0.9434 0.02187 0.13526 0.0
H1008 H 0.91106 0.05435 0.24455 0.0
H1009 H 0.09933 0.96715 0.97021 0.0
H1010 H 0.23452 0.76955 0.59843 0.0
H1011 H 0.23077 0.77421 0.47088 0.0
H1012 H 0.274 0.71551 0.43264 0.0
H1013 H 0.27817 0.71129 0.55877 0.0
H1014 H 0.28699 0.74677 0.36389 0.0
H1015 H 0.21334 0.71347 0.3818 0.0
H1016 H 0.17662 0.7108 0.43003 0.0
H1017 H 0.1571 0.77647 0.36677 0.0
H1018 H 0.19386 0.77965 0.31889 0.0
H1019 H 0.2632 0.72988 0.97815 0.0
H1020 H 0.267 0.72467 0.10522 0.0
H1021 H 0.22496 0.78409 0.14677 0.0
H1022 H 0.22069 0.78883 1.02095 0.0
H1023 H 0.21147 0.75206 0.21362 0.0
H1024 H 0.28634 0.78378 0.19178 0.0
H1025 H 0.32292 0.78422 0.14167 0.0
H1026 H 0.34022 0.71895 0.21159 0.0
H1027 H 0.30351 0.71785 0.26063 0.0
C1028 C 0.24309 0.75765 0.56258 0.0
C1029 C 0.25662 0.74006 0.58892 0.0
C1030 C 0.24092 0.76024 0.48948 0.0
C1031 C 0.25203 0.74512 0.44118 0.0
C1032 C 0.26535 0.72753 0.46802 0.0
C1033 C 0.26762 0.72507 0.54052 0.0
C1034 C 0.25013 0.74742 0.36295 0.0
C1035 C 0.27041 0.7477 0.33104 0.0
C1036 C 0.22864 0.74886 0.31935 0.0
C1037 C 0.20644 0.7469 0.34744 0.0
C1038 C 0.20127 0.72741 0.37859 0.0
C1039 C 0.18045 0.72579 0.4058 0.0
C1040 C 0.16456 0.74349 0.40165 0.0
C1041 C 0.16944 0.7628 0.37004 0.0
C1042 C 0.19025 0.7645 0.34279 0.0
C1043 C 0.25491 0.74183 1.01462 0.0
C1044 C 0.24168 0.75977 0.98928 0.0
C1045 C 0.25711 0.73892 0.08745 0.0
C1046 C 0.24638 0.75409 0.13655 0.0
C1047 C 0.23335 0.77203 0.11073 0.0
C1048 C 0.23102 0.7748 0.03844 0.0
C1049 C 0.24834 0.75153 0.21459 0.0
C1050 C 0.22806 0.75118 0.24648 0.0
C1051 C 0.26984 0.74977 0.25798 0.0
C1052 C 0.29206 0.75063 0.22927 0.0
C1053 C 0.29788 0.76945 0.19604 0.0
C1054 C 0.31865 0.76982 0.16783 0.0
C1055 C 0.3339 0.75162 0.17332 0.0
C1056 C 0.3284 0.73302 0.20717 0.0
C1057 C 0.3076 0.73251 0.23516 0.0
H1058 H 0.34997 0.75195 0.15145 0.0
H1059 H 0.14845 0.74222 0.42278 0.0
H1060 H 0.45956 0.02799 0.81005 0.0
H1061 H 0.46418 0.02399 0.68417 0.0
H1062 H 0.52342 0.98169 0.72428 0.0
H1063 H 0.51877 0.98576 0.85201 0.0
H1064 H 0.53164 0.01391 0.63854 0.0
H1065 H 0.47225 0.95721 0.63376 0.0
H1066 H 0.43557 0.94125 0.65772 0.0
H1067 H 0.39806 0.99128 0.54546 0.0
H1068 H 0.43462 0.0076 0.52097 0.0
H1069 H 0.53845 0.9725 0.27534 0.0
H1070 H 0.53397 0.97704 0.40141 0.0
H1071 H 0.47522 0.01991 0.36056 0.0
H1072 H 0.47971 0.01529 0.23263 0.0
H1073 H 0.4668 0.98775 0.4467 0.0
H1074 H 0.52677 0.04345 0.4476 0.0
H1075 H 0.5637 0.05802 0.42057 0.0
H1076 H 0.60044 0.00924 0.53993 0.0
H1077 H 0.56369 0.99412 0.5668 0.0
C1078 C 0.47353 0.01765 0.79232 0.0
C1079 C 0.48877 0.00712 0.84143 0.0
C1080 C 0.47609 0.01531 0.71985 0.0
C1081 C 0.494 0.00233 0.69375 0.0
C1082 C 0.50938 0.99176 0.74267 0.0
C1083 C 0.50669 0.99399 0.81572 0.0
C1084 C 0.49669 0.00048 0.6159 0.0
C1085 C 0.51757 0.00781 0.59668 0.0
C1086 C 0.47818 0.99324 0.56061 0.0
C1087 C 0.45618 0.98376 0.57615 0.0
C1088 C 0.4562 0.96495 0.61476 0.0
C1089 C 0.43541 0.9558 0.62829 0.0
C1090 C 0.41447 0.96531 0.6034 0.0
C1091 C 0.41429 0.98396 0.5648 0.0
C1092 C 0.43503 0.99313 0.55092 0.0
C1093 C 0.52462 0.98307 0.29296 0.0
C1094 C 0.50947 0.99359 0.24363 0.0
C1095 C 0.52214 0.98573 0.36552 0.0
C1096 C 0.50442 0.99904 0.39142 0.0
C1097 C 0.48912 0.0096 0.34228 0.0
C1098 C 0.49171 0.00705 0.26914 0.0
C1099 C 0.50175 0.00116 0.4693 0.0
C1100 C 0.48087 0.99389 0.48855 0.0
C1101 C 0.52029 0.00842 0.52454 0.0
C1102 C 0.54244 0.0175 0.50867 0.0
C1103 C 0.54271 0.03569 0.46761 0.0
C1104 C 0.56361 0.04408 0.45239 0.0
C1105 C 0.5844 0.03452 0.47838 0.0
C1106 C 0.58432 0.0166 0.51978 0.0
C1107 C 0.56346 0.00813 0.53507 0.0
H1108 H 0.60056 0.04104 0.46656 0.0
H1109 H 0.39838 0.95817 0.6137 0.0
H1110 H 0.21252 0.20671 1.00788 0.0
H1111 H 0.21641 0.21127 0.88524 0.0
H1112 H 0.2616 0.2707 0.96132 0.0
H1113 H 0.25762 0.26615 0.08583 0.0
H1114 H 0.2294 0.27834 0.84777 0.0
H1115 H 0.28293 0.21843 0.89486 0.0
H1116 H 0.29597 0.18135 0.93219 0.0
H1117 H 0.24505 0.14477 0.77103 0.0
H1118 H 0.23146 0.18168 0.7335 0.0
H1119 H 0.27119 0.28656 0.52272 0.0
H1120 H 0.26627 0.28176 0.64439 0.0
H1121 H 0.22356 0.22077 0.56465 0.0
H1122 H 0.22863 0.22556 0.44116 0.0
H1123 H 0.25368 0.21359 0.67943 0.0
H1124 H 0.20031 0.2721 0.62979 0.0
H1125 H 0.18573 0.30858 0.5916 0.0
H1126 H 0.23406 0.34723 0.75615 0.0
H1127 H 0.24923 0.31099 0.79458 0.0
C1128 C 0.22338 0.22077 0.99888 0.0
C1129 C 0.23477 0.23607 0.05695 0.0
C1130 C 0.22569 0.22327 0.92834 0.0
C1131 C 0.23956 0.24113 0.91332 0.0
C1132 C 0.25085 0.25669 0.97121 0.0
C1133 C 0.24861 0.2541 0.04243 0.0
C1134 C 0.24164 0.24359 0.83711 0.0
C1135 C 0.23514 0.26433 0.81136 0.0
C1136 C 0.24818 0.225 0.78828 0.0
C1137 C 0.25608 0.20283 0.81168 0.0
C1138 C 0.27437 0.2025 0.86784 0.0
C1139 C 0.28188 0.1815 0.88896 0.0
C1140 C 0.27132 0.16071 0.85406 0.0
C1141 C 0.2532 0.16088 0.79805 0.0
C1142 C 0.24561 0.18183 0.77679 0.0
C1143 C 0.26063 0.27213 0.53072 0.0
C1144 C 0.25027 0.25646 0.47198 0.0
C1145 C 0.25773 0.26948 0.60069 0.0
C1146 C 0.24425 0.25111 0.61442 0.0
C1147 C 0.23396 0.2352 0.5558 0.0
C1148 C 0.23682 0.23793 0.48516 0.0
C1149 C 0.24166 0.24846 0.69016 0.0
C1150 C 0.248 0.22766 0.7158 0.0
C1151 C 0.23477 0.26693 0.73874 0.0
C1152 C 0.22605 0.28878 0.7147 0.0
C1153 C 0.20801 0.28836 0.65736 0.0
C1154 C 0.19959 0.30901 0.63579 0.0
C1155 C 0.20895 0.3302 0.6715 0.0
C1156 C 0.22682 0.3308 0.72859 0.0
C1157 C 0.23533 0.31021 0.7503 0.0
H1158 H 0.20232 0.34617 0.65503 0.0
H1159 H 0.27721 0.14447 0.87028 0.0
H1160 H 0.74837 0.27542 0.10712 0.0
H1161 H 0.74573 0.27976 0.97976 0.0
H1162 H 0.75543 0.20661 0.92763 0.0
H1163 H 0.75824 0.2023 0.05402 0.0
H1164 H 0.78109 0.22918 0.85448 0.0
H1165 H 0.70178 0.23198 0.8956 0.0
H1166 H 0.66874 0.24659 0.9543 0.0
H1167 H 0.67934 0.31376 0.89576 0.0
H1168 H 0.71267 0.29963 0.83753 0.0
H1169 H 0.7509 0.22135 0.47351 0.0
H1170 H 0.75403 0.21653 0.60039 0.0
H1171 H 0.73538 0.28764 0.65173 0.0
H1172 H 0.73087 0.29184 0.5252 0.0
H1173 H 0.71455 0.26569 0.72635 0.0
H1174 H 0.79439 0.26377 0.68767 0.0
H1175 H 0.82635 0.24903 0.62379 0.0
H1176 H 0.81504 0.18121 0.67647 0.0
H1177 H 0.78287 0.1955 0.74016 0.0
C1178 C 0.7498 0.26027 0.06839 0.0
C1179 C 0.7535 0.23851 0.09105 0.0
C1180 C 0.74826 0.26274 0.99535 0.0
C1181 C 0.75029 0.24349 0.94314 0.0
C1182 C 0.75391 0.2218 0.96613 0.0
C1183 C 0.75539 0.21934 0.03875 0.0
C1184 C 0.74867 0.24571 0.86478 0.0
C1185 C 0.76642 0.23703 0.82647 0.0
C1186 C 0.72982 0.25625 0.82751 0.0
C1187 C 0.70985 0.26479 0.86276 0.0
C1188 C 0.69719 0.24991 0.89574 0.0
C1189 C 0.67839 0.2581 0.92883 0.0
C1190 C 0.67196 0.28108 0.92874 0.0
C1191 C 0.68435 0.29595 0.89575 0.0
C1192 C 0.70318 0.28786 0.86267 0.0
C1193 C 0.74776 0.23597 0.51215 0.0
C1194 C 0.74085 0.25703 0.48924 0.0
C1195 C 0.74961 0.23328 0.58509 0.0
C1196 C 0.74534 0.25183 0.63726 0.0
C1197 C 0.73873 0.27292 0.61371 0.0
C1198 C 0.73631 0.27538 0.54099 0.0
C1199 C 0.74715 0.24948 0.71582 0.0
C1200 C 0.72936 0.25803 0.75426 0.0
C1201 C 0.76607 0.23901 0.7533 0.0
C1202 C 0.78611 0.23066 0.71815 0.0
C1203 C 0.79873 0.24571 0.68564 0.0
C1204 C 0.81686 0.23744 0.64941 0.0
C1205 C 0.82264 0.21419 0.64585 0.0
C1206 C 0.8105 0.19921 0.6792 0.0
C1207 C 0.79235 0.20739 0.7155 0.0
H1208 H 0.83651 0.20777 0.6172 0.0
H1209 H 0.65732 0.28734 0.95397 0.0
H1210 H 0.71491 0.71425 0.51156 0.0
H1211 H 0.71958 0.71869 0.38912 0.0
H1212 H 0.76902 0.77448 0.46777 0.0
H1213 H 0.76439 0.76993 0.59164 0.0
H1214 H 0.73862 0.78474 0.353 0.0
H1215 H 0.78663 0.72116 0.40126 0.0
H1216 H 0.79611 0.68348 0.44064 0.0
H1217 H 0.74383 0.65004 0.27761 0.0
H1218 H 0.73381 0.6876 0.23781 0.0
H1219 H 0.78225 0.78923 1.02719 0.0
H1220 H 0.77747 0.78455 0.14936 0.0
H1221 H 0.72946 0.7276 0.0696 0.0
H1222 H 0.73435 0.73227 0.94595 0.0
H1223 H 0.75884 0.71782 0.1848 0.0
H1224 H 0.71082 0.78089 0.13567 0.0
H1225 H 0.70074 0.81842 0.09612 0.0
H1226 H 0.7521 0.85269 0.26057 0.0
H1227 H 0.76275 0.8153 0.30044 0.0
C1228 C 0.72683 0.7275 0.50313 0.0
C1229 C 0.73924 0.74176 0.56186 0.0
C1230 C 0.72956 0.72995 0.43267 0.0
C1231 C 0.74486 0.74675 0.41831 0.0
C1232 C 0.75711 0.76133 0.4769 0.0
C1233 C 0.75447 0.75875 0.5479 0.0
C1234 C 0.74778 0.74896 0.3422 0.0
C1235 C 0.74343 0.77018 0.31669 0.0
C1236 C 0.75332 0.72986 0.29337 0.0
C1237 C 0.75933 0.70723 0.31696 0.0
C1238 C 0.77703 0.7058 0.37413 0.0
C1239 C 0.78253 0.68446 0.39646 0.0
C1240 C 0.77055 0.66439 0.36172 0.0
C1241 C 0.75308 0.66561 0.30446 0.0
C1242 C 0.74751 0.68691 0.28194 0.0
C1243 C 0.77062 0.77568 1.03534 0.0
C1244 C 0.75865 0.76116 0.9764 0.0
C1245 C 0.76781 0.77309 0.10564 0.0
C1246 C 0.75284 0.75592 0.11963 0.0
C1247 C 0.74107 0.74107 0.06079 0.0
C1248 C 0.74383 0.74374 0.98994 0.0
C1249 C 0.74977 0.75364 0.1956 0.0
C1250 C 0.75405 0.73239 0.22108 0.0
C1251 C 0.74409 0.77271 0.24436 0.0
C1252 C 0.73774 0.79525 0.22059 0.0
C1253 C 0.7201 0.7964 0.16303 0.0
C1254 C 0.71426 0.81766 0.14061 0.0
C1255 C 0.72581 0.83792 0.17569 0.0
C1256 C 0.74319 0.83697 0.23338 0.0
C1257 C 0.74913 0.81575 0.25594 0.0
H1258 H 0.72125 0.85436 0.15828 0.0
H1259 H 0.77483 0.64788 0.37908 0.0
H1260 H 0.46594 0.45751 0.75762 0.0
H1261 H 0.47089 0.46118 0.635 0.0
H1262 H 0.51674 0.52015 0.71132 0.0
H1263 H 0.51215 0.51607 0.83538 0.0
H1264 H 0.46038 0.49105 0.5513 0.0
H1265 H 0.5554 0.52501 0.59401 0.0
H1266 H 0.59091 0.52287 0.6797 0.0
H1267 H 0.56718 0.45803 0.72778 0.0
H1268 H 0.53171 0.45966 0.6422 0.0
H1269 H 0.53055 0.53352 0.27035 0.0
H1270 H 0.52553 0.52903 0.39251 0.0
H1271 H 0.48227 0.46838 0.31326 0.0
H1272 H 0.4871 0.47313 0.18998 0.0
H1273 H 0.53726 0.4976 0.47412 0.0
H1274 H 0.44428 0.46103 0.43285 0.0
H1275 H 0.40825 0.46077 0.34825 0.0
H1276 H 0.42777 0.5263 0.29411 0.0
H1277 H 0.46369 0.52719 0.37943 0.0
C1278 C 0.47723 0.47123 0.74857 0.0
C1279 C 0.48885 0.48634 0.8067 0.0
C1280 C 0.47994 0.47339 0.67794 0.0
C1281 C 0.49433 0.49083 0.6627 0.0
C1282 C 0.50584 0.50621 0.72088 0.0
C1283 C 0.50324 0.50391 0.79208 0.0
C1284 C 0.49709 0.49261 0.58607 0.0
C1285 C 0.47725 0.49224 0.53455 0.0
C1286 C 0.51899 0.49428 0.5631 0.0
C1287 C 0.54072 0.49269 0.61254 0.0
C1288 C 0.5578 0.51031 0.62282 0.0
C1289 C 0.5779 0.50919 0.67137 0.0
C1290 C 0.58121 0.49043 0.70942 0.0
C1291 C 0.56453 0.47263 0.69858 0.0
C1292 C 0.54442 0.47365 0.65012 0.0
C1293 C 0.5198 0.51928 0.27869 0.0
C1294 C 0.50893 0.50391 0.21995 0.0
C1295 C 0.51703 0.51665 0.34899 0.0
C1296 C 0.50332 0.49851 0.36322 0.0
C1297 C 0.49258 0.48287 0.30446 0.0
C1298 C 0.49528 0.4856 0.23366 0.0
C1299 C 0.50054 0.49622 0.43947 0.0
C1300 C 0.52039 0.49645 0.49093 0.0
C1301 C 0.47864 0.494 0.46212 0.0
C1302 C 0.45681 0.49403 0.41198 0.0
C1303 C 0.44083 0.47544 0.40316 0.0
C1304 C 0.42043 0.47518 0.35506 0.0
C1305 C 0.41578 0.49345 0.31556 0.0
C1306 C 0.43144 0.51212 0.32453 0.0
C1307 C 0.45181 0.51251 0.37279 0.0
H1308 H 0.40005 0.49314 0.27806 0.0
H1309 H 0.59673 0.48966 0.74713 0.0
H1310 H 0.98136 0.51654 0.72692 0.0
H1311 H 0.9759 0.52043 0.85377 0.0
H1312 H 0.02971 0.47162 0.89164 0.0
H1313 H 0.03474 0.4674 0.766 0.0
H1314 H 0.99577 0.46193 0.95843 0.0
H1315 H 0.03707 0.53204 0.94017 0.0
H1316 H 0.04253 0.5681 0.89062 0.0
H1317 H 0.98011 0.59431 0.96204 0.0
H1318 H 0.97394 0.55812 1.01051 0.0
H1319 H 0.01582 0.48289 0.34396 0.0
H1320 H 0.0202 0.47872 0.21614 0.0
H1321 H 0.96709 0.52854 0.18229 0.0
H1322 H 0.96309 0.53297 0.30865 0.0
H1323 H -3e-05 0.53781 0.11275 0.0
H1324 H 0.95876 0.46878 0.13378 0.0
H1325 H 0.9515 0.43215 0.17816 0.0
H1326 H 0.01169 0.40353 0.09767 0.0
H1327 H 0.01979 0.44024 0.05515 0.0
C1328 C 0.99198 0.5067 0.76246 0.0
C1329 C 0.00849 0.49169 0.73617 0.0
C1330 C 0.98894 0.50896 0.83519 0.0
C1331 C 0.00251 0.49642 0.88326 0.0
C1332 C 0.01891 0.48145 0.85641 0.0
C1333 C 0.02185 0.47914 0.78423 0.0
C1334 C -1e-05 0.49869 0.96142 0.0
C1335 C 0.99698 0.47854 0.99228 0.0
C1336 C 0.00097 0.52031 1.00598 0.0
C1337 C 0.00493 0.54228 0.97834 0.0
C1338 C 0.02444 0.54544 0.94496 0.0
C1339 C 0.02767 0.56591 0.91709 0.0
C1340 C 0.01169 0.5835 0.92317 0.0
C1341 C 0.99246 0.58066 0.9573 0.0
C1342 C 0.98908 0.56016 0.98493 0.0
C1343 C 0.00513 0.49289 0.30908 0.0
C1344 C 0.98911 0.50825 0.33672 0.0
C1345 C 0.00754 0.49047 0.2358 0.0
C1346 C 0.99388 0.50324 0.18859 0.0
C1347 C 0.97797 0.51853 0.21679 0.0
C1348 C 0.97561 0.52096 0.28944 0.0
C1349 C 0.99594 0.501 0.11008 0.0
C1350 C 0.99882 0.52117 0.07909 0.0
C1351 C 0.9947 0.47938 0.06532 0.0
C1352 C 0.99008 0.45742 0.09218 0.0
C1353 C 0.97066 0.4548 0.12652 0.0
C1354 C 0.9664 0.43401 0.15141 0.0
C1355 C 0.98124 0.41557 0.14132 0.0
C1356 C 0.00035 0.41788 0.10622 0.0
C1357 C 0.00481 0.4387 0.08182 0.0
H1358 H 0.97787 0.39945 0.16035 0.0
H1359 H 0.01422 0.59933 0.90147 0.0
loop_
_geom_bond_atom_site_label_1
_geom_bond_atom_site_label_2
_geom_bond_distance
_geom_bond_site_symmetry_2
_ccdc_geom_bond_type
Tb0 O3 2.453 . S
Tb0 O4 2.596 1_445 S
Tb0 O5 2.374 1_545 S
Tb0 O13 2.343 . S
Tb0 O15 2.353 1_455 S
Tb0 O17 2.427 . S
Tb0 O18 2.513 . S
C1 O5 1.251 . S
C1 O7 1.263 . S
Tb2 O4 2.343 . S
Tb2 O7 2.353 1_655 S
Tb2 O10 2.427 . S
Tb2 O11 2.513 . S
Tb2 O12 2.453 . S
Tb2 O13 2.596 1_665 S
Tb2 O14 2.374 1_565 S
O3 Tb0 2.453 . S
O3 C19 1.247 1_455 S
O4 Tb0 2.596 1_665 S
O4 Tb2 2.343 . S
O4 C19 1.259 1_565 S
O5 Tb0 2.374 1_565 S
O5 C1 1.251 . S
C6 O10 1.275 . S
C6 O11 1.246 . S
O7 C1 1.263 . S
O7 Tb2 2.353 1_455 S
C8 O12 1.241 1_455 S
C8 O13 1.260 1_565 S
C9 O14 1.250 . S
C9 O15 1.263 . S
O10 Tb2 2.427 . S
O10 C6 1.275 . S
O11 Tb2 2.513 . S
O11 C6 1.246 . S
O12 Tb2 2.453 . S
O12 C8 1.241 1_655 S
O13 Tb0 2.343 . S
O13 Tb2 2.596 1_445 S
O13 C8 1.260 1_545 S
O14 Tb2 2.374 1_545 S
O14 C9 1.250 . S
O15 Tb0 2.353 1_655 S
O15 C9 1.263 . S
C16 O17 1.275 . S
C16 O18 1.246 . S
O17 Tb0 2.427 . S
O17 C16 1.275 . S
O18 Tb0 2.513 . S
O18 C16 1.246 . S
C19 O3 1.247 1_655 S
C19 O4 1.259 1_545 S
Tb20 O23 2.453 . S
Tb20 O24 2.596 . S
Tb20 O25 2.374 . S
Tb20 O33 2.343 . S
Tb20 O35 2.353 . S
Tb20 O37 2.427 . S
Tb20 O38 2.513 . S
C21 O25 1.251 . S
C21 O27 1.263 . S
Tb22 O24 2.343 . S
Tb22 O27 2.353 . S
Tb22 O30 2.427 . S
Tb22 O31 2.513 . S
Tb22 O32 2.453 . S
Tb22 O33 2.596 . S
Tb22 O34 2.374 . S
O23 Tb20 2.453 . S
O23 C39 1.245 . S
O24 Tb20 2.596 . S
O24 Tb22 2.343 . S
O24 C39 1.259 . S
O25 Tb20 2.374 . S
O25 C21 1.251 . S
C26 O30 1.275 . S
C26 O31 1.246 . S
O27 C21 1.263 . S
O27 Tb22 2.353 . S
C28 O32 1.245 . S
C28 O33 1.259 . S
C29 O34 1.250 . S
C29 O35 1.263 . S
O30 Tb22 2.427 . S
O30 C26 1.275 . S
O31 Tb22 2.513 . S
O31 C26 1.246 . S
O32 Tb22 2.453 . S
O32 C28 1.245 . S
O33 Tb20 2.343 . S
O33 Tb22 2.596 . S
O33 C28 1.259 . S
O34 Tb22 2.374 . S
O34 C29 1.250 . S
O35 Tb20 2.353 . S
O35 C29 1.263 . S
C36 O37 1.275 . S
C36 O38 1.246 . S
O37 Tb20 2.427 . S
O37 C36 1.275 . S
O38 Tb20 2.513 . S
O38 C36 1.246 . S
C39 O23 1.245 . S
C39 O24 1.259 . S
Tb40 O43 2.453 . S
Tb40 O44 2.596 1_545 S
Tb40 O45 2.374 1_545 S
Tb40 O53 2.343 1_556 S
Tb40 O55 2.353 1_556 S
Tb40 O57 2.427 1_556 S
Tb40 O58 2.513 1_556 S
C41 O45 1.251 . S
C41 O47 1.263 . S
Tb42 O44 2.343 1_554 S
Tb42 O47 2.353 1_554 S
Tb42 O50 2.427 1_554 S
Tb42 O51 2.513 1_554 S
Tb42 O52 2.453 . S
Tb42 O53 2.596 1_565 S
Tb42 O54 2.374 1_565 S
O43 Tb40 2.453 . S
O43 C59 1.245 1_545 S
O44 Tb40 2.596 1_565 S
O44 Tb42 2.343 1_556 S
O44 C59 1.259 . S
O45 Tb40 2.374 1_565 S
O45 C41 1.251 . S
C46 O50 1.275 . S
C46 O51 1.246 . S
O47 C41 1.263 . S
O47 Tb42 2.353 1_556 S
C48 O52 1.245 1_545 S
C48 O53 1.259 . S
C49 O54 1.250 . S
C49 O55 1.263 . S
O50 Tb42 2.427 1_556 S
O50 C46 1.275 . S
O51 Tb42 2.513 1_556 S
O51 C46 1.246 . S
O52 Tb42 2.453 . S
O52 C48 1.245 1_565 S
O53 Tb40 2.343 1_554 S
O53 Tb42 2.596 1_545 S
O53 C48 1.259 . S
O54 Tb42 2.374 1_545 S
O54 C49 1.250 . S
O55 Tb40 2.353 1_554 S
O55 C49 1.263 . S
C56 O57 1.275 . S
C56 O58 1.246 . S
O57 Tb40 2.427 1_554 S
O57 C56 1.275 . S
O58 Tb40 2.513 1_554 S
O58 C56 1.246 . S
C59 O43 1.245 1_565 S
C59 O44 1.259 . S
Tb60 O63 2.453 . S
Tb60 O64 2.596 . S
Tb60 O65 2.374 . S
Tb60 O73 2.343 . S
Tb60 O75 2.353 . S
Tb60 O77 2.427 . S
Tb60 O78 2.513 . S
C61 O65 1.251 . S
C61 O67 1.263 . S
Tb62 O64 2.343 . S
Tb62 O67 2.353 . S
Tb62 O70 2.427 . S
Tb62 O71 2.513 . S
Tb62 O72 2.453 . S
Tb62 O73 2.596 . S
Tb62 O74 2.374 . S
O63 Tb60 2.453 . S
O63 C79 1.245 . S
O64 Tb60 2.596 . S
O64 Tb62 2.343 . S
O64 C79 1.259 . S
O65 Tb60 2.374 . S
O65 C61 1.251 . S
C66 O70 1.275 . S
C66 O71 1.246 . S
O67 C61 1.263 . S
O67 Tb62 2.353 . S
C68 O72 1.245 . S
C68 O73 1.259 . S
C69 O74 1.250 . S
C69 O75 1.263 . S
O70 Tb62 2.427 . S
O70 C66 1.275 . S
O71 Tb62 2.513 . S
O71 C66 1.246 . S
O72 Tb62 2.453 . S
O72 C68 1.245 . S
O73 Tb60 2.343 . S
O73 Tb62 2.596 . S
O73 C68 1.259 . S
O74 Tb62 2.374 . S
O74 C69 1.250 . S
O75 Tb60 2.353 . S
O75 C69 1.263 . S
C76 O77 1.275 . S
C76 O78 1.246 . S
O77 Tb60 2.427 . S
O77 C76 1.275 . S
O78 Tb60 2.513 . S
O78 C76 1.246 . S
C79 O63 1.245 . S
C79 O64 1.259 . S
Tb80 O83 2.453 . S
Tb80 O84 2.596 . S
Tb80 O85 2.374 . S
Tb80 O93 2.343 . S
Tb80 O95 2.353 . S
Tb80 O97 2.427 . S
Tb80 O98 2.513 . S
C81 O85 1.251 . S
C81 O87 1.263 . S
Tb82 O84 2.343 . S
Tb82 O87 2.353 . S
Tb82 O90 2.427 . S
Tb82 O91 2.513 . S
Tb82 O92 2.453 . S
Tb82 O93 2.596 . S
Tb82 O94 2.374 . S
O83 Tb80 2.453 . S
O83 C99 1.245 . S
O84 Tb80 2.596 . S
O84 Tb82 2.343 . S
O84 C99 1.259 . S
O85 Tb80 2.374 . S
O85 C81 1.251 . S
C86 O90 1.275 . S
C86 O91 1.246 . S
O87 C81 1.263 . S
O87 Tb82 2.353 . S
C88 O92 1.245 . S
C88 O93 1.259 . S
C89 O94 1.250 . S
C89 O95 1.263 . S
O90 Tb82 2.427 . S
O90 C86 1.275 . S
O91 Tb82 2.513 . S
O91 C86 1.246 . S
O92 Tb82 2.453 . S
O92 C88 1.245 . S
O93 Tb80 2.343 . S
O93 Tb82 2.596 . S
O93 C88 1.259 . S
O94 Tb82 2.374 . S
O94 C89 1.250 . S
O95 Tb80 2.353 . S
O95 C89 1.263 . S
C96 O97 1.275 . S
C96 O98 1.246 . S
O97 Tb80 2.427 . S
O97 C96 1.275 . S
O98 Tb80 2.513 . S
O98 C96 1.246 . S
C99 O83 1.245 . S
C99 O84 1.259 . S
Tb100 O103 2.453 . S
Tb100 O104 2.596 . S
Tb100 O105 2.374 . S
Tb100 O113 2.343 . S
Tb100 O115 2.353 . S
Tb100 O117 2.427 . S
Tb100 O118 2.513 . S
C101 O105 1.251 . S
C101 O107 1.263 . S
Tb102 O104 2.343 . S
Tb102 O107 2.353 . S
Tb102 O110 2.427 . S
Tb102 O111 2.513 . S
Tb102 O112 2.453 . S
Tb102 O113 2.596 . S
Tb102 O114 2.374 . S
O103 Tb100 2.453 . S
O103 C119 1.245 . S
O104 Tb100 2.596 . S
O104 Tb102 2.343 . S
O104 C119 1.259 . S
O105 Tb100 2.374 . S
O105 C101 1.251 . S
C106 O110 1.275 . S
C106 O111 1.246 . S
O107 C101 1.263 . S
O107 Tb102 2.353 . S
C108 O112 1.245 . S
C108 O113 1.259 . S
C109 O114 1.250 . S
C109 O115 1.263 . S
O110 Tb102 2.427 . S
O110 C106 1.275 . S
O111 Tb102 2.513 . S
O111 C106 1.246 . S
O112 Tb102 2.453 . S
O112 C108 1.245 . S
O113 Tb100 2.343 . S
O113 Tb102 2.596 . S
O113 C108 1.259 . S
O114 Tb102 2.374 . S
O114 C109 1.250 . S
O115 Tb100 2.353 . S
O115 C109 1.263 . S
C116 O117 1.275 . S
C116 O118 1.246 . S
O117 Tb100 2.427 . S
O117 C116 1.275 . S
O118 Tb100 2.513 . S
O118 C116 1.246 . S
C119 O103 1.245 . S
C119 O104 1.259 . S
Tb120 O123 2.453 . S
Tb120 O124 2.596 . S
Tb120 O125 2.374 . S
Tb120 O133 2.343 1_554 S
Tb120 O135 2.353 . S
Tb120 O137 2.427 1_554 S
Tb120 O138 2.513 1_554 S
C121 O125 1.251 . S
C121 O127 1.263 1_554 S
Tb122 O124 2.343 1_556 S
Tb122 O127 2.353 . S
Tb122 O130 2.427 1_556 S
Tb122 O131 2.513 1_556 S
Tb122 O132 2.453 . S
Tb122 O133 2.596 . S
Tb122 O134 2.374 . S
O123 Tb120 2.453 . S
O123 C139 1.245 . S
O124 Tb120 2.596 . S
O124 Tb122 2.343 1_554 S
O124 C139 1.259 . S
O125 Tb120 2.374 . S
O125 C121 1.251 . S
C126 O130 1.275 . S
C126 O131 1.246 . S
O127 C121 1.263 1_556 S
O127 Tb122 2.353 . S
C128 O132 1.245 . S
C128 O133 1.259 . S
C129 O134 1.250 . S
C129 O135 1.263 1_556 S
O130 Tb122 2.427 1_554 S
O130 C126 1.275 . S
O131 Tb122 2.513 1_554 S
O131 C126 1.246 . S
O132 Tb122 2.453 . S
O132 C128 1.245 . S
O133 Tb120 2.343 1_556 S
O133 Tb122 2.596 . S
O133 C128 1.259 . S
O134 Tb122 2.374 . S
O134 C129 1.250 . S
O135 Tb120 2.353 . S
O135 C129 1.263 1_554 S
C136 O137 1.275 . S
C136 O138 1.246 . S
O137 Tb120 2.427 1_556 S
O137 C136 1.275 . S
O138 Tb120 2.513 1_556 S
O138 C136 1.246 . S
C139 O123 1.245 . S
C139 O124 1.259 . S
Tb140 O143 2.453 . S
Tb140 O144 2.596 1_655 S
Tb140 O145 2.374 . S
Tb140 O153 2.343 . S
Tb140 O155 2.353 1_655 S
Tb140 O157 2.427 . S
Tb140 O158 2.513 . S
C141 O145 1.251 . S
C141 O147 1.263 . S
Tb142 O144 2.343 . S
Tb142 O147 2.353 1_455 S
Tb142 O150 2.427 . S
Tb142 O151 2.513 . S
Tb142 O152 2.453 . S
Tb142 O153 2.596 1_455 S
Tb142 O154 2.374 . S
O143 Tb140 2.453 . S
O143 C159 1.244 1_655 S
O144 Tb140 2.596 1_455 S
O144 Tb142 2.343 . S
O144 C159 1.260 . S
O145 Tb140 2.374 . S
O145 C141 1.251 . S
C146 O150 1.275 . S
C146 O151 1.246 . S
O147 C141 1.263 . S
O147 Tb142 2.353 1_655 S
C148 O152 1.244 . S
C148 O153 1.260 1_455 S
C149 O154 1.250 . S
C149 O155 1.263 . S
O150 Tb142 2.427 . S
O150 C146 1.275 . S
O151 Tb142 2.513 . S
O151 C146 1.246 . S
O152 Tb142 2.453 . S
O152 C148 1.244 . S
O153 Tb140 2.343 . S
O153 Tb142 2.596 1_655 S
O153 C148 1.260 1_655 S
O154 Tb142 2.374 . S
O154 C149 1.250 . S
O155 Tb140 2.353 1_455 S
O155 C149 1.263 . S
C156 O157 1.275 . S
C156 O158 1.246 . S
O157 Tb140 2.427 . S
O157 C156 1.275 . S
O158 Tb140 2.513 . S
O158 C156 1.246 . S
C159 O143 1.244 1_455 S
C159 O144 1.260 . S
H160 C178 0.951 . S
H161 C180 0.951 . S
H162 C182 0.950 . S
H163 C183 0.950 . S
H164 C185 0.950 . S
H165 C188 0.950 . S
H166 C189 0.950 . S
H167 C191 0.950 . S
H168 C192 0.950 . S
H169 C193 0.951 . S
H170 C195 0.951 . S
H171 C197 0.950 . S
H172 C198 0.950 . S
H173 C200 0.950 . S
H174 C203 0.950 . S
H175 C204 0.950 . S
H176 C206 0.950 . S
H177 C207 0.950 . S
C178 H160 0.951 . S
C178 C179 1.366 . S
C178 C180 1.388 . S
C179 C178 1.366 . S
C179 C183 1.385 . S
C180 H161 0.951 . S
C180 C178 1.388 . S
C180 C181 1.366 . S
C181 C180 1.366 . S
C181 C182 1.414 . S
C181 C184 1.499 . S
C182 H162 0.950 . S
C182 C181 1.414 . S
C182 C183 1.374 . S
C183 H163 0.950 . S
C183 C179 1.385 . S
C183 C182 1.374 . S
C184 C181 1.499 . S
C184 C185 1.373 . S
C184 C186 1.389 . S
C185 H164 0.950 . S
C185 C184 1.373 . S
C185 C201 1.377 . S
C186 C184 1.389 . S
C186 C187 1.524 . S
C186 C200 1.377 . S
C187 C186 1.524 . S
C187 C188 1.397 . S
C187 C192 1.363 . S
C188 H165 0.950 . S
C188 C187 1.397 . S
C188 C189 1.334 . S
C189 H166 0.950 . S
C189 C188 1.334 . S
C189 C190 1.287 . S
C190 C189 1.287 . S
C190 C191 1.524 . S
C190 H209 0.913 . S
C191 H167 0.950 . S
C191 C190 1.524 . S
C191 C192 1.415 . S
C192 H168 0.950 . S
C192 C187 1.363 . S
C192 C191 1.415 . S
C193 H169 0.951 . S
C193 C194 1.366 . S
C193 C195 1.388 . S
C194 C193 1.366 . S
C194 C198 1.385 . S
C195 H170 0.951 . S
C195 C193 1.388 . S
C195 C196 1.366 . S
C196 C195 1.366 . S
C196 C197 1.414 . S
C196 C199 1.499 . S
C197 H171 0.950 . S
C197 C196 1.414 . S
C197 C198 1.374 . S
C198 H172 0.950 . S
C198 C194 1.385 . S
C198 C197 1.374 . S
C199 C196 1.499 . S
C199 C200 1.373 . S
C199 C201 1.389 . S
C200 H173 0.950 . S
C200 C186 1.377 . S
C200 C199 1.373 . S
C201 C185 1.377 . S
C201 C199 1.389 . S
C201 C202 1.524 . S
C202 C201 1.524 . S
C202 C203 1.397 . S
C202 C207 1.363 . S
C203 H174 0.950 . S
C203 C202 1.397 . S
C203 C204 1.334 . S
C204 H175 0.950 . S
C204 C203 1.334 . S
C204 C205 1.287 . S
C205 C204 1.287 . S
C205 C206 1.524 . S
C205 H208 0.999 . S
C206 H176 0.950 . S
C206 C205 1.524 . S
C206 C207 1.415 . S
C207 H177 0.950 . S
C207 C202 1.363 . S
C207 C206 1.415 . S
H208 C205 0.999 . S
H209 C190 0.913 . S
H210 C228 0.951 . S
H211 C230 0.951 . S
H212 C232 0.950 . S
H213 C233 0.950 . S
H214 C235 0.950 . S
H215 C238 0.950 . S
H216 C239 0.950 . S
H217 C241 0.950 . S
H218 C242 0.950 . S
H219 C243 0.951 . S
H220 C245 0.951 . S
H221 C247 0.950 . S
H222 C248 0.950 . S
H223 C250 0.950 . S
H224 C253 0.950 . S
H225 C254 0.950 . S
H226 C256 0.950 . S
H227 C257 0.950 . S
C228 H210 0.951 . S
C228 C229 1.366 . S
C228 C230 1.388 . S
C229 C228 1.366 . S
C229 C233 1.385 . S
C230 H211 0.951 . S
C230 C228 1.388 . S
C230 C231 1.366 . S
C231 C230 1.366 . S
C231 C232 1.414 . S
C231 C234 1.499 . S
C232 H212 0.950 . S
C232 C231 1.414 . S
C232 C233 1.374 . S
C233 H213 0.950 . S
C233 C229 1.385 . S
C233 C232 1.374 . S
C234 C231 1.499 . S
C234 C235 1.373 . S
C234 C236 1.389 . S
C235 H214 0.950 . S
C235 C234 1.373 . S
C235 C251 1.377 . S
C236 C234 1.389 . S
C236 C237 1.524 . S
C236 C250 1.377 . S
C237 C236 1.524 . S
C237 C238 1.397 . S
C237 C242 1.363 . S
C238 H215 0.950 . S
C238 C237 1.397 . S
C238 C239 1.334 . S
C239 H216 0.950 . S
C239 C238 1.334 . S
C239 C240 1.287 . S
C240 C239 1.287 . S
C240 C241 1.524 . S
C240 H259 0.913 . S
C241 H217 0.950 . S
C241 C240 1.524 . S
C241 C242 1.415 . S
C242 H218 0.950 . S
C242 C237 1.363 . S
C242 C241 1.415 . S
C243 H219 0.951 . S
C243 C244 1.366 . S
C243 C245 1.388 . S
C244 C243 1.366 . S
C244 C248 1.385 . S
C245 H220 0.951 . S
C245 C243 1.388 . S
C245 C246 1.366 . S
C246 C245 1.366 . S
C246 C247 1.414 . S
C246 C249 1.499 . S
C247 H221 0.950 . S
C247 C246 1.414 . S
C247 C248 1.374 . S
C248 H222 0.950 . S
C248 C244 1.385 . S
C248 C247 1.374 . S
C249 C246 1.499 . S
C249 C250 1.373 . S
C249 C251 1.389 . S
C250 H223 0.950 . S
C250 C236 1.377 . S
C250 C249 1.373 . S
C251 C235 1.377 . S
C251 C249 1.389 . S
C251 C252 1.524 . S
C252 C251 1.524 . S
C252 C253 1.397 . S
C252 C257 1.363 . S
C253 H224 0.950 . S
C253 C252 1.397 . S
C253 C254 1.334 . S
C254 H225 0.950 . S
C254 C253 1.334 . S
C254 C255 1.287 . S
C255 C254 1.287 . S
C255 C256 1.524 . S
C255 H258 0.999 . S
C256 H226 0.950 . S
C256 C255 1.524 . S
C256 C257 1.415 . S
C257 H227 0.950 . S
C257 C252 1.363 . S
C257 C256 1.415 . S
H258 C255 0.999 . S
H259 C240 0.913 . S
H260 C278 0.951 . S
H261 C280 0.951 . S
H262 C282 0.950 . S
H263 C283 0.950 . S
H264 C285 0.950 . S
H265 C288 0.950 . S
H266 C289 0.950 . S
H267 C291 0.950 . S
H268 C292 0.950 . S
H269 C293 0.951 . S
H270 C295 0.951 . S
H271 C297 0.950 . S
H272 C298 0.950 1_554 S
H273 C300 0.950 . S
H274 C303 0.950 . S
H275 C304 0.950 . S
H276 C306 0.950 . S
H277 C307 0.950 . S
C278 H260 0.951 . S
C278 C279 1.366 . S
C278 C280 1.388 . S
C279 C278 1.366 . S
C279 C283 1.385 . S
C280 H261 0.951 . S
C280 C278 1.388 . S
C280 C281 1.366 . S
C281 C280 1.366 . S
C281 C282 1.414 . S
C281 C284 1.499 . S
C282 H262 0.950 . S
C282 C281 1.414 . S
C282 C283 1.374 . S
C283 H263 0.950 . S
C283 C279 1.385 . S
C283 C282 1.374 . S
C284 C281 1.499 . S
C284 C285 1.373 . S
C284 C286 1.389 . S
C285 H264 0.950 . S
C285 C284 1.373 . S
C285 C301 1.377 . S
C286 C284 1.389 . S
C286 C287 1.524 . S
C286 C300 1.377 . S
C287 C286 1.524 . S
C287 C288 1.397 . S
C287 C292 1.363 1_556 S
C288 H265 0.950 . S
C288 C287 1.397 . S
C288 C289 1.334 1_556 S
C289 H266 0.950 . S
C289 C288 1.334 1_554 S
C289 C290 1.287 . S
C290 C289 1.287 . S
C290 C291 1.524 . S
C290 H309 0.913 . S
C291 H267 0.950 . S
C291 C290 1.524 . S
C291 C292 1.415 . S
C292 H268 0.950 . S
C292 C287 1.363 1_554 S
C292 C291 1.415 . S
C293 H269 0.951 . S
C293 C294 1.366 . S
C293 C295 1.388 . S
C294 C293 1.366 . S
C294 C298 1.385 . S
C295 H270 0.951 . S
C295 C293 1.388 . S
C295 C296 1.366 . S
C296 C295 1.366 . S
C296 C297 1.414 . S
C296 C299 1.499 . S
C297 H271 0.950 . S
C297 C296 1.414 . S
C297 C298 1.374 . S
C298 H272 0.950 1_556 S
C298 C294 1.385 . S
C298 C297 1.374 . S
C299 C296 1.499 . S
C299 C300 1.373 . S
C299 C301 1.389 . S
C300 H273 0.950 . S
C300 C286 1.377 . S
C300 C299 1.373 . S
C301 C285 1.377 . S
C301 C299 1.389 . S
C301 C302 1.524 . S
C302 C301 1.524 . S
C302 C303 1.397 . S
C302 C307 1.363 . S
C303 H274 0.950 . S
C303 C302 1.397 . S
C303 C304 1.334 . S
C304 H275 0.950 . S
C304 C303 1.334 . S
C304 C305 1.287 . S
C305 C304 1.287 . S
C305 C306 1.524 . S
C305 H308 0.999 . S
C306 H276 0.950 . S
C306 C305 1.524 . S
C306 C307 1.415 . S
C307 H277 0.950 . S
C307 C302 1.363 . S
C307 C306 1.415 . S
H308 C305 0.999 . S
H309 C290 0.913 . S
H310 C328 0.951 . S
H311 C330 0.951 . S
H312 C332 0.950 . S
H313 C333 0.950 . S
H314 C335 0.950 . S
H315 C338 0.950 . S
H316 C339 0.950 . S
H317 C341 0.950 . S
H318 C342 0.950 . S
H319 C343 0.951 . S
H320 C345 0.951 . S
H321 C347 0.950 . S
H322 C348 0.950 . S
H323 C350 0.950 . S
H324 C353 0.950 . S
H325 C354 0.950 . S
H326 C356 0.950 . S
H327 C357 0.950 . S
C328 H310 0.951 . S
C328 C329 1.366 . S
C328 C330 1.388 . S
C329 C328 1.366 . S
C329 C333 1.385 . S
C330 H311 0.951 . S
C330 C328 1.388 . S
C330 C331 1.366 . S
C331 C330 1.366 . S
C331 C332 1.414 . S
C331 C334 1.499 . S
C332 H312 0.950 . S
C332 C331 1.414 . S
C332 C333 1.374 . S
C333 H313 0.950 . S
C333 C329 1.385 . S
C333 C332 1.374 . S
C334 C331 1.499 . S
C334 C335 1.373 . S
C334 C336 1.389 . S
C335 H314 0.950 . S
C335 C334 1.373 . S
C335 C351 1.377 . S
C336 C334 1.389 . S
C336 C337 1.524 . S
C336 C350 1.377 . S
C337 C336 1.524 . S
C337 C338 1.397 . S
C337 C342 1.363 . S
C338 H315 0.950 . S
C338 C337 1.397 . S
C338 C339 1.334 . S
C339 H316 0.950 . S
C339 C338 1.334 . S
C339 C340 1.287 . S
C340 C339 1.287 . S
C340 C341 1.524 . S
C340 H359 0.913 . S
C341 H317 0.950 . S
C341 C340 1.524 . S
C341 C342 1.415 . S
C342 H318 0.950 . S
C342 C337 1.363 . S
C342 C341 1.415 . S
C343 H319 0.951 . S
C343 C344 1.366 . S
C343 C345 1.388 . S
C344 C343 1.366 . S
C344 C348 1.385 . S
C345 H320 0.951 . S
C345 C343 1.388 . S
C345 C346 1.366 . S
C346 C345 1.366 . S
C346 C347 1.414 . S
C346 C349 1.499 . S
C347 H321 0.950 . S
C347 C346 1.414 . S
C347 C348 1.374 . S
C348 H322 0.950 . S
C348 C344 1.385 . S
C348 C347 1.374 . S
C349 C346 1.499 . S
C349 C350 1.373 . S
C349 C351 1.389 . S
C350 H323 0.950 . S
C350 C336 1.377 . S
C350 C349 1.373 . S
C351 C335 1.377 . S
C351 C349 1.389 . S
C351 C352 1.524 . S
C352 C351 1.524 . S
C352 C353 1.397 . S
C352 C357 1.363 . S
C353 H324 0.950 . S
C353 C352 1.397 . S
C353 C354 1.334 1_554 S
C354 H325 0.950 . S
C354 C353 1.334 1_556 S
C354 C355 1.287 . S
C355 C354 1.287 . S
C355 C356 1.524 . S
C355 H358 0.999 . S
C356 H326 0.950 . S
C356 C355 1.524 . S
C356 C357 1.415 1_556 S
C357 H327 0.950 . S
C357 C352 1.363 . S
C357 C356 1.415 1_554 S
H358 C355 0.999 . S
H359 C340 0.913 . S
H360 C378 0.951 . S
H361 C380 0.951 . S
H362 C382 0.950 . S
H363 C383 0.950 . S
H364 C385 0.950 . S
H365 C388 0.950 . S
H366 C389 0.950 . S
H367 C391 0.950 . S
H368 C392 0.950 . S
H369 C393 0.951 . S
H370 C395 0.951 . S
H371 C397 0.950 . S
H372 C398 0.950 . S
H373 C400 0.950 . S
H374 C403 0.950 . S
H375 C404 0.950 . S
H376 C406 0.950 . S
H377 C407 0.950 . S
C378 H360 0.951 . S
C378 C379 1.366 . S
C378 C380 1.388 . S
C379 C378 1.366 . S
C379 C383 1.385 . S
C380 H361 0.951 . S
C380 C378 1.388 . S
C380 C381 1.366 . S
C381 C380 1.366 . S
C381 C382 1.414 . S
C381 C384 1.499 . S
C382 H362 0.950 . S
C382 C381 1.414 . S
C382 C383 1.374 . S
C383 H363 0.950 . S
C383 C379 1.385 . S
C383 C382 1.374 . S
C384 C381 1.499 . S
C384 C385 1.373 . S
C384 C386 1.389 . S
C385 H364 0.950 . S
C385 C384 1.373 . S
C385 C401 1.377 . S
C386 C384 1.389 . S
C386 C387 1.524 . S
C386 C400 1.377 . S
C387 C386 1.524 . S
C387 C388 1.397 . S
C387 C392 1.363 . S
C388 H365 0.950 . S
C388 C387 1.397 . S
C388 C389 1.334 . S
C389 H366 0.950 . S
C389 C388 1.334 . S
C389 C390 1.287 . S
C390 C389 1.287 . S
C390 C391 1.524 . S
C390 H409 0.913 . S
C391 H367 0.950 . S
C391 C390 1.524 . S
C391 C392 1.415 . S
C392 H368 0.950 . S
C392 C387 1.363 . S
C392 C391 1.415 . S
C393 H369 0.951 . S
C393 C394 1.366 . S
C393 C395 1.388 . S
C394 C393 1.366 . S
C394 C398 1.385 . S
C395 H370 0.951 . S
C395 C393 1.388 . S
C395 C396 1.366 . S
C396 C395 1.366 . S
C396 C397 1.414 . S
C396 C399 1.499 . S
C397 H371 0.950 . S
C397 C396 1.414 . S
C397 C398 1.374 . S
C398 H372 0.950 . S
C398 C394 1.385 . S
C398 C397 1.374 . S
C399 C396 1.499 . S
C399 C400 1.373 . S
C399 C401 1.389 . S
C400 H373 0.950 . S
C400 C386 1.377 . S
C400 C399 1.373 . S
C401 C385 1.377 . S
C401 C399 1.389 . S
C401 C402 1.524 . S
C402 C401 1.524 . S
C402 C403 1.397 . S
C402 C407 1.363 . S
C403 H374 0.950 . S
C403 C402 1.397 . S
C403 C404 1.334 . S
C404 H375 0.950 . S
C404 C403 1.334 . S
C404 C405 1.287 . S
C405 C404 1.287 . S
C405 C406 1.524 . S
C405 H408 0.999 . S
C406 H376 0.950 . S
C406 C405 1.524 . S
C406 C407 1.415 . S
C407 H377 0.950 . S
C407 C402 1.363 . S
C407 C406 1.415 . S
H408 C405 0.999 . S
H409 C390 0.913 . S
H410 C428 0.951 . S
H411 C430 0.951 . S
H412 C432 0.950 . S
H413 C433 0.950 . S
H414 C435 0.950 . S
H415 C438 0.950 . S
H416 C439 0.950 . S
H417 C441 0.950 . S
H418 C442 0.950 . S
H419 C443 0.951 . S
H420 C445 0.951 . S
H421 C447 0.950 . S
H422 C448 0.950 . S
H423 C450 0.950 . S
H424 C453 0.950 . S
H425 C454 0.950 . S
H426 C456 0.950 . S
H427 C457 0.950 . S
C428 H410 0.951 . S
C428 C429 1.366 . S
C428 C430 1.388 . S
C429 C428 1.366 . S
C429 C433 1.385 . S
C430 H411 0.951 . S
C430 C428 1.388 . S
C430 C431 1.366 . S
C431 C430 1.366 . S
C431 C432 1.414 . S
C431 C434 1.499 . S
C432 H412 0.950 . S
C432 C431 1.414 . S
C432 C433 1.374 . S
C433 H413 0.950 . S
C433 C429 1.385 . S
C433 C432 1.374 . S
C434 C431 1.499 . S
C434 C435 1.373 . S
C434 C436 1.389 . S
C435 H414 0.950 . S
C435 C434 1.373 . S
C435 C451 1.377 . S
C436 C434 1.389 . S
C436 C437 1.524 . S
C436 C450 1.377 . S
C437 C436 1.524 . S
C437 C438 1.397 . S
C437 C442 1.363 . S
C438 H415 0.950 . S
C438 C437 1.397 . S
C438 C439 1.334 . S
C439 H416 0.950 . S
C439 C438 1.334 . S
C439 C440 1.287 . S
C440 C439 1.287 . S
C440 C441 1.524 . S
C440 H459 0.913 . S
C441 H417 0.950 . S
C441 C440 1.524 . S
C441 C442 1.415 . S
C442 H418 0.950 . S
C442 C437 1.363 . S
C442 C441 1.415 . S
C443 H419 0.951 . S
C443 C444 1.366 . S
C443 C445 1.388 . S
C444 C443 1.366 . S
C444 C448 1.385 . S
C445 H420 0.951 . S
C445 C443 1.388 . S
C445 C446 1.366 . S
C446 C445 1.366 . S
C446 C447 1.414 . S
C446 C449 1.499 . S
C447 H421 0.950 . S
C447 C446 1.414 . S
C447 C448 1.374 . S
C448 H422 0.950 . S
C448 C444 1.385 . S
C448 C447 1.374 . S
C449 C446 1.499 . S
C449 C450 1.373 . S
C449 C451 1.389 . S
C450 H423 0.950 . S
C450 C436 1.377 . S
C450 C449 1.373 . S
C451 C435 1.377 . S
C451 C449 1.389 . S
C451 C452 1.524 . S
C452 C451 1.524 . S
C452 C453 1.397 . S
C452 C457 1.363 . S
C453 H424 0.950 . S
C453 C452 1.397 . S
C453 C454 1.334 . S
C454 H425 0.950 . S
C454 C453 1.334 . S
C454 C455 1.287 . S
C455 C454 1.287 . S
C455 C456 1.524 . S
C455 H458 0.999 . S
C456 H426 0.950 . S
C456 C455 1.524 . S
C456 C457 1.415 . S
C457 H427 0.950 . S
C457 C452 1.363 . S
C457 C456 1.415 . S
H458 C455 0.999 . S
H459 C440 0.913 . S
H460 C478 0.951 . S
H461 C480 0.951 . S
H462 C482 0.950 . S
H463 C483 0.950 . S
H464 C485 0.950 . S
H465 C488 0.950 . S
H466 C489 0.950 . S
H467 C491 0.950 . S
H468 C492 0.950 . S
H469 C493 0.946 1_556 S
H470 C495 0.951 . S
H471 C497 0.950 . S
H472 C498 0.950 . S
H473 C500 0.950 . S
H474 C503 0.950 1_554 S
H475 C504 0.950 . S
H476 C506 0.950 . S
H477 C507 0.950 . S
C478 H460 0.951 . S
C478 C479 1.366 . S
C478 C480 1.388 . S
C479 C478 1.366 . S
C479 C483 1.385 . S
C480 H461 0.951 . S
C480 C478 1.388 . S
C480 C481 1.366 . S
C481 C480 1.366 . S
C481 C482 1.414 . S
C481 C484 1.499 . S
C482 H462 0.950 . S
C482 C481 1.414 . S
C482 C483 1.374 . S
C483 H463 0.950 . S
C483 C479 1.385 . S
C483 C482 1.374 . S
C484 C481 1.499 . S
C484 C485 1.373 . S
C484 C486 1.389 . S
C485 H464 0.950 . S
C485 C484 1.373 . S
C485 C501 1.377 . S
C486 C484 1.389 . S
C486 C487 1.524 . S
C486 C500 1.377 . S
C487 C486 1.524 . S
C487 C488 1.397 . S
C487 C492 1.363 . S
C488 H465 0.950 . S
C488 C487 1.397 . S
C488 C489 1.334 . S
C489 H466 0.950 . S
C489 C488 1.334 . S
C489 C490 1.287 . S
C490 C489 1.287 . S
C490 C491 1.524 . S
C490 H509 0.913 . S
C491 H467 0.950 . S
C491 C490 1.524 . S
C491 C492 1.415 . S
C492 H468 0.950 . S
C492 C487 1.363 . S
C492 C491 1.415 . S
C493 H469 0.946 1_554 S
C493 C494 1.366 . S
C493 C495 1.388 . S
C494 C493 1.366 . S
C494 C498 1.385 . S
C495 H470 0.951 . S
C495 C493 1.388 . S
C495 C496 1.366 . S
C496 C495 1.366 . S
C496 C497 1.414 . S
C496 C499 1.499 . S
C497 H471 0.950 . S
C497 C496 1.414 . S
C497 C498 1.374 . S
C498 H472 0.950 . S
C498 C494 1.385 . S
C498 C497 1.374 . S
C499 C496 1.499 . S
C499 C500 1.373 . S
C499 C501 1.389 . S
C500 H473 0.950 . S
C500 C486 1.377 . S
C500 C499 1.373 . S
C501 C485 1.377 . S
C501 C499 1.389 . S
C501 C502 1.524 1_554 S
C502 C501 1.524 1_556 S
C502 C503 1.397 . S
C502 C507 1.363 . S
C503 H474 0.950 1_556 S
C503 C502 1.397 . S
C503 C504 1.334 . S
C504 H475 0.950 . S
C504 C503 1.334 . S
C504 C505 1.287 . S
C505 C504 1.287 . S
C505 C506 1.524 . S
C505 H508 0.999 . S
C506 H476 0.950 . S
C506 C505 1.524 . S
C506 C507 1.415 . S
C507 H477 0.950 . S
C507 C502 1.363 . S
C507 C506 1.415 . S
H508 C505 0.999 . S
H509 C490 0.913 . S
H510 C528 0.951 . S
H511 C530 0.951 . S
H512 C532 0.950 . S
H513 C533 0.950 . S
H514 C535 0.950 . S
H515 C538 0.950 . S
H516 C539 0.950 . S
H517 C541 0.950 1_554 S
H518 C542 0.950 . S
H519 C543 0.951 . S
H520 C545 0.951 . S
H521 C547 0.950 . S
H522 C548 0.950 . S
H523 C550 0.950 . S
H524 C553 0.950 . S
H525 C554 0.950 . S
H526 C556 0.950 . S
H527 C557 0.950 . S
C528 H510 0.951 . S
C528 C529 1.366 . S
C528 C530 1.388 . S
C529 C528 1.366 . S
C529 C533 1.385 . S
C530 H511 0.951 . S
C530 C528 1.388 . S
C530 C531 1.366 . S
C531 C530 1.366 . S
C531 C532 1.414 . S
C531 C534 1.499 . S
C532 H512 0.950 . S
C532 C531 1.414 . S
C532 C533 1.374 . S
C533 H513 0.950 . S
C533 C529 1.385 . S
C533 C532 1.374 . S
C534 C531 1.499 . S
C534 C535 1.373 . S
C534 C536 1.389 . S
C535 H514 0.950 . S
C535 C534 1.373 . S
C535 C551 1.377 . S
C536 C534 1.389 . S
C536 C537 1.524 . S
C536 C550 1.377 . S
C537 C536 1.524 . S
C537 C538 1.397 . S
C537 C542 1.363 . S
C538 H515 0.950 . S
C538 C537 1.397 . S
C538 C539 1.334 . S
C539 H516 0.950 . S
C539 C538 1.334 . S
C539 C540 1.287 . S
C540 C539 1.287 . S
C540 C541 1.524 . S
C540 H559 0.913 . S
C541 H517 0.950 1_556 S
C541 C540 1.524 . S
C541 C542 1.415 . S
C542 H518 0.950 . S
C542 C537 1.363 . S
C542 C541 1.415 . S
C543 H519 0.951 . S
C543 C544 1.366 . S
C543 C545 1.388 . S
C544 C543 1.366 . S
C544 C548 1.385 . S
C545 H520 0.951 . S
C545 C543 1.388 . S
C545 C546 1.366 . S
C546 C545 1.366 . S
C546 C547 1.414 . S
C546 C549 1.499 . S
C547 H521 0.950 . S
C547 C546 1.414 . S
C547 C548 1.374 . S
C548 H522 0.950 . S
C548 C544 1.385 . S
C548 C547 1.374 . S
C549 C546 1.499 . S
C549 C550 1.373 . S
C549 C551 1.389 . S
C550 H523 0.950 . S
C550 C536 1.377 . S
C550 C549 1.373 . S
C551 C535 1.377 . S
C551 C549 1.389 . S
C551 C552 1.524 . S
C552 C551 1.524 . S
C552 C553 1.397 . S
C552 C557 1.363 . S
C553 H524 0.950 . S
C553 C552 1.397 . S
C553 C554 1.334 . S
C554 H525 0.950 . S
C554 C553 1.334 . S
C554 C555 1.287 . S
C555 C554 1.287 . S
C555 C556 1.524 . S
C555 H558 0.999 . S
C556 H526 0.950 . S
C556 C555 1.524 . S
C556 C557 1.415 . S
C557 H527 0.950 . S
C557 C552 1.363 . S
C557 C556 1.415 . S
H558 C555 0.999 . S
H559 C540 0.913 . S
H560 C578 0.951 . S
H561 C580 0.951 . S
H562 C582 0.950 . S
H563 C583 0.950 . S
H564 C585 0.950 . S
H565 C588 0.950 . S
H566 C589 0.950 . S
H567 C591 0.950 . S
H568 C592 0.950 . S
H569 C593 0.951 . S
H570 C595 0.951 . S
H571 C597 0.950 . S
H572 C598 0.950 . S
H573 C600 0.950 . S
H574 C603 0.950 . S
H575 C604 0.950 . S
H576 C606 0.950 . S
H577 C607 0.950 . S
C578 H560 0.951 . S
C578 C579 1.366 . S
C578 C580 1.388 . S
C579 C578 1.366 . S
C579 C583 1.385 . S
C580 H561 0.951 . S
C580 C578 1.388 . S
C580 C581 1.366 . S
C581 C580 1.366 . S
C581 C582 1.414 . S
C581 C584 1.499 . S
C582 H562 0.950 . S
C582 C581 1.414 . S
C582 C583 1.374 . S
C583 H563 0.950 . S
C583 C579 1.385 . S
C583 C582 1.374 . S
C584 C581 1.499 . S
C584 C585 1.373 . S
C584 C586 1.389 . S
C585 H564 0.950 . S
C585 C584 1.373 . S
C585 C601 1.377 . S
C586 C584 1.389 . S
C586 C587 1.524 . S
C586 C600 1.377 . S
C587 C586 1.524 . S
C587 C588 1.397 . S
C587 C592 1.363 . S
C588 H565 0.950 . S
C588 C587 1.397 . S
C588 C589 1.334 . S
C589 H566 0.950 . S
C589 C588 1.334 . S
C589 C590 1.287 . S
C590 C589 1.287 . S
C590 C591 1.524 . S
C590 H609 0.913 . S
C591 H567 0.950 . S
C591 C590 1.524 . S
C591 C592 1.415 . S
C592 H568 0.950 . S
C592 C587 1.363 . S
C592 C591 1.415 . S
C593 H569 0.951 . S
C593 C594 1.366 . S
C593 C595 1.388 . S
C594 C593 1.366 . S
C594 C598 1.385 . S
C595 H570 0.951 . S
C595 C593 1.388 . S
C595 C596 1.366 . S
C596 C595 1.366 . S
C596 C597 1.414 . S
C596 C599 1.499 . S
C597 H571 0.950 . S
C597 C596 1.414 . S
C597 C598 1.374 . S
C598 H572 0.950 . S
C598 C594 1.385 . S
C598 C597 1.374 . S
C599 C596 1.499 . S
C599 C600 1.373 . S
C599 C601 1.389 . S
C600 H573 0.950 . S
C600 C586 1.377 . S
C600 C599 1.373 . S
C601 C585 1.377 . S
C601 C599 1.389 . S
C601 C602 1.524 . S
C602 C601 1.524 . S
C602 C603 1.397 . S
C602 C607 1.363 1_556 S
C603 H574 0.950 . S
C603 C602 1.397 . S
C603 C604 1.334 1_556 S
C604 H575 0.950 . S
C604 C603 1.334 1_554 S
C604 C605 1.287 . S
C605 C604 1.287 . S
C605 C606 1.524 . S
C605 H608 0.999 . S
C606 H576 0.950 . S
C606 C605 1.524 . S
C606 C607 1.415 . S
C607 H577 0.950 . S
C607 C602 1.363 1_554 S
C607 C606 1.415 . S
H608 C605 0.999 . S
H609 C590 0.913 . S
H610 C628 0.951 . S
H611 C630 0.951 . S
H612 C632 0.950 . S
H613 C633 0.950 . S
H614 C635 0.950 . S
H615 C638 0.950 . S
H616 C639 0.950 . S
H617 C641 0.950 . S
H618 C642 0.950 . S
H619 C643 0.951 1_556 S
H620 C645 0.951 1_556 S
H621 C647 0.950 . S
H622 C648 0.950 . S
H623 C650 0.950 . S
H624 C653 0.950 1_554 S
H625 C654 0.950 . S
H626 C656 0.950 . S
H627 C657 0.950 . S
C628 H610 0.951 . S
C628 C629 1.366 . S
C628 C630 1.388 . S
C629 C628 1.366 . S
C629 C633 1.385 . S
C630 H611 0.951 . S
C630 C628 1.388 . S
C630 C631 1.366 . S
C631 C630 1.366 . S
C631 C632 1.414 . S
C631 C634 1.499 . S
C632 H612 0.950 . S
C632 C631 1.414 . S
C632 C633 1.374 . S
C633 H613 0.950 . S
C633 C629 1.385 . S
C633 C632 1.374 . S
C634 C631 1.499 . S
C634 C635 1.373 . S
C634 C636 1.389 . S
C635 H614 0.950 . S
C635 C634 1.373 . S
C635 C651 1.377 . S
C636 C634 1.389 . S
C636 C637 1.524 . S
C636 C650 1.377 . S
C637 C636 1.524 . S
C637 C638 1.397 . S
C637 C642 1.363 . S
C638 H615 0.950 . S
C638 C637 1.397 . S
C638 C639 1.334 . S
C639 H616 0.950 . S
C639 C638 1.334 . S
C639 C640 1.287 . S
C640 C639 1.287 . S
C640 C641 1.524 . S
C640 H659 0.913 . S
C641 H617 0.950 . S
C641 C640 1.524 . S
C641 C642 1.415 . S
C642 H618 0.950 . S
C642 C637 1.363 . S
C642 C641 1.415 . S
C643 H619 0.951 1_554 S
C643 C644 1.366 . S
C643 C645 1.388 . S
C644 C643 1.366 . S
C644 C648 1.385 . S
C645 H620 0.951 1_554 S
C645 C643 1.388 . S
C645 C646 1.366 . S
C646 C645 1.366 . S
C646 C647 1.414 . S
C646 C649 1.499 . S
C647 H621 0.950 . S
C647 C646 1.414 . S
C647 C648 1.374 . S
C648 H622 0.950 . S
C648 C644 1.385 . S
C648 C647 1.374 . S
C649 C646 1.499 . S
C649 C650 1.373 . S
C649 C651 1.389 . S
C650 H623 0.950 . S
C650 C636 1.377 . S
C650 C649 1.373 . S
C651 C635 1.377 . S
C651 C649 1.389 . S
C651 C652 1.524 1_554 S
C652 C651 1.524 1_556 S
C652 C653 1.397 . S
C652 C657 1.363 . S
C653 H624 0.950 1_556 S
C653 C652 1.397 . S
C653 C654 1.334 . S
C654 H625 0.950 . S
C654 C653 1.334 . S
C654 C655 1.287 . S
C655 C654 1.287 . S
C655 C656 1.524 . S
C655 H658 0.999 . S
C656 H626 0.950 . S
C656 C655 1.524 . S
C656 C657 1.415 . S
C657 H627 0.950 . S
C657 C652 1.363 . S
C657 C656 1.415 . S
H658 C655 0.999 . S
H659 C640 0.913 . S
H660 C678 0.951 . S
H661 C680 0.951 . S
H662 C682 0.950 . S
H663 C683 0.950 . S
H664 C685 0.950 . S
H665 C688 0.950 . S
H666 C689 0.950 . S
H667 C691 0.950 . S
H668 C692 0.950 . S
H669 C693 0.951 . S
H670 C695 0.951 . S
H671 C697 0.950 . S
H672 C698 0.950 . S
H673 C700 0.950 . S
H674 C703 0.950 . S
H675 C704 0.950 . S
H676 C706 0.950 . S
H677 C707 0.950 . S
C678 H660 0.951 . S
C678 C679 1.366 . S
C678 C680 1.388 . S
C679 C678 1.366 . S
C679 C683 1.385 . S
C680 H661 0.951 . S
C680 C678 1.388 . S
C680 C681 1.366 . S
C681 C680 1.366 . S
C681 C682 1.414 . S
C681 C684 1.499 . S
C682 H662 0.950 . S
C682 C681 1.414 . S
C682 C683 1.374 . S
C683 H663 0.950 . S
C683 C679 1.385 . S
C683 C682 1.374 . S
C684 C681 1.499 . S
C684 C685 1.373 . S
C684 C686 1.389 . S
C685 H664 0.950 . S
C685 C684 1.373 . S
C685 C701 1.377 . S
C686 C684 1.389 . S
C686 C687 1.524 . S
C686 C700 1.377 . S
C687 C686 1.524 . S
C687 C688 1.397 . S
C687 C692 1.363 . S
C688 H665 0.950 . S
C688 C687 1.397 . S
C688 C689 1.334 . S
C689 H666 0.950 . S
C689 C688 1.334 . S
C689 C690 1.287 . S
C690 C689 1.287 . S
C690 C691 1.524 . S
C690 H709 0.913 . S
C691 H667 0.950 . S
C691 C690 1.524 . S
C691 C692 1.415 . S
C692 H668 0.950 . S
C692 C687 1.363 . S
C692 C691 1.415 . S
C693 H669 0.951 . S
C693 C694 1.366 . S
C693 C695 1.388 . S
C694 C693 1.366 . S
C694 C698 1.385 . S
C695 H670 0.951 . S
C695 C693 1.388 . S
C695 C696 1.366 . S
C696 C695 1.366 . S
C696 C697 1.414 . S
C696 C699 1.499 . S
C697 H671 0.950 . S
C697 C696 1.414 . S
C697 C698 1.374 . S
C698 H672 0.950 . S
C698 C694 1.385 . S
C698 C697 1.374 . S
C699 C696 1.499 . S
C699 C700 1.373 . S
C699 C701 1.389 . S
C700 H673 0.950 . S
C700 C686 1.377 . S
C700 C699 1.373 . S
C701 C685 1.377 . S
C701 C699 1.389 . S
C701 C702 1.524 . S
C702 C701 1.524 . S
C702 C703 1.397 . S
C702 C707 1.363 . S
C703 H674 0.950 . S
C703 C702 1.397 . S
C703 C704 1.334 . S
C704 H675 0.950 . S
C704 C703 1.334 . S
C704 C705 1.287 . S
C705 C704 1.287 . S
C705 C706 1.524 . S
C705 H708 0.999 . S
C706 H676 0.950 . S
C706 C705 1.524 . S
C706 C707 1.415 . S
C707 H677 0.950 . S
C707 C702 1.363 . S
C707 C706 1.415 . S
H708 C705 0.999 . S
H709 C690 0.913 . S
H710 C728 0.951 . S
H711 C730 0.951 . S
H712 C732 0.950 . S
H713 C733 0.950 . S
H714 C735 0.950 . S
H715 C738 0.950 . S
H716 C739 0.950 . S
H717 C741 0.950 . S
H718 C742 0.950 . S
H719 C743 0.951 . S
H720 C745 0.951 . S
H721 C747 0.950 . S
H722 C748 0.950 . S
H723 C750 0.950 . S
H724 C753 0.950 . S
H725 C754 0.950 . S
H726 C756 0.950 . S
H727 C757 0.950 . S
C728 H710 0.951 . S
C728 C729 1.366 . S
C728 C730 1.388 . S
C729 C728 1.366 . S
C729 C733 1.385 . S
C730 H711 0.951 . S
C730 C728 1.388 . S
C730 C731 1.366 . S
C731 C730 1.366 . S
C731 C732 1.414 . S
C731 C734 1.499 . S
C732 H712 0.950 . S
C732 C731 1.414 . S
C732 C733 1.374 . S
C733 H713 0.950 . S
C733 C729 1.385 . S
C733 C732 1.374 . S
C734 C731 1.499 . S
C734 C735 1.373 . S
C734 C736 1.389 . S
C735 H714 0.950 . S
C735 C734 1.373 . S
C735 C751 1.377 . S
C736 C734 1.389 . S
C736 C737 1.524 . S
C736 C750 1.377 . S
C737 C736 1.524 . S
C737 C738 1.397 . S
C737 C742 1.363 . S
C738 H715 0.950 . S
C738 C737 1.397 . S
C738 C739 1.334 . S
C739 H716 0.950 . S
C739 C738 1.334 . S
C739 C740 1.287 . S
C740 C739 1.287 . S
C740 C741 1.524 . S
C740 H759 0.913 . S
C741 H717 0.950 . S
C741 C740 1.524 . S
C741 C742 1.415 . S
C742 H718 0.950 . S
C742 C737 1.363 . S
C742 C741 1.415 . S
C743 H719 0.951 . S
C743 C744 1.366 . S
C743 C745 1.388 . S
C744 C743 1.366 . S
C744 C748 1.385 . S
C745 H720 0.951 . S
C745 C743 1.388 . S
C745 C746 1.366 . S
C746 C745 1.366 . S
C746 C747 1.414 . S
C746 C749 1.499 . S
C747 H721 0.950 . S
C747 C746 1.414 . S
C747 C748 1.374 . S
C748 H722 0.950 . S
C748 C744 1.385 . S
C748 C747 1.374 . S
C749 C746 1.499 . S
C749 C750 1.373 . S
C749 C751 1.389 . S
C750 H723 0.950 . S
C750 C736 1.377 . S
C750 C749 1.373 . S
C751 C735 1.377 . S
C751 C749 1.389 . S
C751 C752 1.524 . S
C752 C751 1.524 . S
C752 C753 1.397 . S
C752 C757 1.363 . S
C753 H724 0.950 . S
C753 C752 1.397 . S
C753 C754 1.334 . S
C754 H725 0.950 . S
C754 C753 1.334 . S
C754 C755 1.287 . S
C755 C754 1.287 . S
C755 C756 1.524 . S
C755 H758 0.999 . S
C756 H726 0.950 . S
C756 C755 1.524 . S
C756 C757 1.415 . S
C757 H727 0.950 . S
C757 C752 1.363 . S
C757 C756 1.415 . S
H758 C755 0.999 . S
H759 C740 0.913 . S
H760 C778 0.951 . S
H761 C780 0.951 . S
H762 C782 0.950 . S
H763 C783 0.950 . S
H764 C785 0.950 . S
H765 C788 0.950 . S
H766 C789 0.950 . S
H767 C791 0.950 . S
H768 C792 0.950 . S
H769 C793 0.951 . S
H770 C795 0.951 . S
H771 C797 0.958 . S
H772 C798 0.950 1_556 S
H773 C800 0.950 . S
H774 C803 0.950 . S
H775 C804 0.950 . S
H776 C806 0.950 . S
H777 C807 0.950 . S
C778 H760 0.951 . S
C778 C779 1.366 . S
C778 C780 1.388 . S
C779 C778 1.366 . S
C779 C783 1.385 . S
C780 H761 0.951 . S
C780 C778 1.388 . S
C780 C781 1.366 . S
C781 C780 1.366 . S
C781 C782 1.414 . S
C781 C784 1.499 . S
C782 H762 0.950 . S
C782 C781 1.414 . S
C782 C783 1.374 . S
C783 H763 0.950 . S
C783 C779 1.385 . S
C783 C782 1.374 . S
C784 C781 1.499 . S
C784 C785 1.373 . S
C784 C786 1.389 . S
C785 H764 0.950 . S
C785 C784 1.373 . S
C785 C801 1.377 . S
C786 C784 1.389 . S
C786 C787 1.524 . S
C786 C800 1.377 . S
C787 C786 1.524 . S
C787 C788 1.397 . S
C787 C792 1.363 1_554 S
C788 H765 0.950 . S
C788 C787 1.397 . S
C788 C789 1.334 . S
C789 H766 0.950 . S
C789 C788 1.334 . S
C789 C790 1.287 . S
C790 C789 1.287 . S
C790 C791 1.524 1_554 S
C790 H809 0.913 1_554 S
C791 H767 0.950 . S
C791 C790 1.524 1_556 S
C791 C792 1.415 . S
C792 H768 0.950 . S
C792 C787 1.363 1_556 S
C792 C791 1.415 . S
C793 H769 0.951 . S
C793 C794 1.366 . S
C793 C795 1.388 . S
C794 C793 1.366 . S
C794 C798 1.385 . S
C795 H770 0.951 . S
C795 C793 1.388 . S
C795 C796 1.366 . S
C796 C795 1.366 . S
C796 C797 1.414 . S
C796 C799 1.499 . S
C797 H771 0.958 . S
C797 C796 1.414 . S
C797 C798 1.374 . S
C798 H772 0.950 1_554 S
C798 C794 1.385 . S
C798 C797 1.374 . S
C799 C796 1.499 . S
C799 C800 1.373 . S
C799 C801 1.389 . S
C800 H773 0.950 . S
C800 C786 1.377 . S
C800 C799 1.373 . S
C801 C785 1.377 . S
C801 C799 1.389 . S
C801 C802 1.524 . S
C802 C801 1.524 . S
C802 C803 1.397 . S
C802 C807 1.363 . S
C803 H774 0.950 . S
C803 C802 1.397 . S
C803 C804 1.334 . S
C804 H775 0.950 . S
C804 C803 1.334 . S
C804 C805 1.287 . S
C805 C804 1.287 . S
C805 C806 1.524 . S
C805 H808 0.999 . S
C806 H776 0.950 . S
C806 C805 1.524 . S
C806 C807 1.415 . S
C807 H777 0.950 . S
C807 C802 1.363 . S
C807 C806 1.415 . S
H808 C805 0.999 . S
H809 C790 0.913 1_556 S
H810 C828 0.951 . S
H811 C830 0.951 . S
H812 C832 0.950 . S
H813 C833 0.950 . S
H814 C835 0.950 . S
H815 C838 0.950 . S
H816 C839 0.950 . S
H817 C841 0.950 . S
H818 C842 0.950 . S
H819 C843 0.951 . S
H820 C845 0.951 . S
H821 C847 0.950 . S
H822 C848 0.950 . S
H823 C850 0.950 . S
H824 C853 0.951 . S
H825 C854 0.950 . S
H826 C856 0.950 . S
H827 C857 0.950 . S
C828 H810 0.951 . S
C828 C829 1.366 . S
C828 C830 1.388 . S
C829 C828 1.366 . S
C829 C833 1.385 . S
C830 H811 0.951 . S
C830 C828 1.388 . S
C830 C831 1.366 . S
C831 C830 1.366 . S
C831 C832 1.414 . S
C831 C834 1.499 . S
C832 H812 0.950 . S
C832 C831 1.414 . S
C832 C833 1.374 . S
C833 H813 0.950 . S
C833 C829 1.385 . S
C833 C832 1.374 . S
C834 C831 1.499 . S
C834 C835 1.373 . S
C834 C836 1.389 . S
C835 H814 0.950 . S
C835 C834 1.373 . S
C835 C851 1.377 . S
C836 C834 1.389 . S
C836 C837 1.524 . S
C836 C850 1.377 . S
C837 C836 1.524 . S
C837 C838 1.397 . S
C837 C842 1.363 . S
C838 H815 0.950 . S
C838 C837 1.397 . S
C838 C839 1.334 . S
C839 H816 0.950 . S
C839 C838 1.334 . S
C839 C840 1.287 . S
C840 C839 1.287 . S
C840 C841 1.524 . S
C840 H859 0.913 . S
C841 H817 0.950 . S
C841 C840 1.524 . S
C841 C842 1.415 . S
C842 H818 0.950 . S
C842 C837 1.363 . S
C842 C841 1.415 . S
C843 H819 0.951 . S
C843 C844 1.366 . S
C843 C845 1.388 . S
C844 C843 1.366 . S
C844 C848 1.385 . S
C845 H820 0.951 . S
C845 C843 1.388 . S
C845 C846 1.366 . S
C846 C845 1.366 . S
C846 C847 1.414 . S
C846 C849 1.499 . S
C847 H821 0.950 . S
C847 C846 1.414 . S
C847 C848 1.374 . S
C848 H822 0.950 . S
C848 C844 1.385 . S
C848 C847 1.374 . S
C849 C846 1.499 . S
C849 C850 1.373 . S
C849 C851 1.389 . S
C850 H823 0.950 . S
C850 C836 1.377 . S
C850 C849 1.373 . S
C851 C835 1.377 . S
C851 C849 1.389 . S
C851 C852 1.524 . S
C852 C851 1.524 . S
C852 C853 1.394 1_556 S
C852 C857 1.363 . S
C853 H824 0.951 . S
C853 C852 1.394 1_554 S
C853 C854 1.335 . S
C854 H825 0.950 . S
C854 C853 1.335 . S
C854 C855 1.287 . S
C855 C854 1.287 . S
C855 C856 1.524 1_554 S
C855 H858 0.999 . S
C856 H826 0.950 . S
C856 C855 1.524 1_556 S
C856 C857 1.415 . S
C857 H827 0.950 . S
C857 C852 1.363 . S
C857 C856 1.415 . S
H858 C855 0.999 . S
H859 C840 0.913 . S
H860 C878 0.951 . S
H861 C880 0.951 . S
H862 C882 0.950 . S
H863 C883 0.950 . S
H864 C885 0.950 . S
H865 C888 0.950 . S
H866 C889 0.950 . S
H867 C891 0.950 . S
H868 C892 0.950 . S
H869 C893 0.951 . S
H870 C895 0.951 . S
H871 C897 0.950 . S
H872 C898 0.950 . S
H873 C900 0.950 . S
H874 C903 0.950 . S
H875 C904 0.950 . S
H876 C906 0.950 . S
H877 C907 0.950 . S
C878 H860 0.951 . S
C878 C879 1.366 . S
C878 C880 1.388 . S
C879 C878 1.366 . S
C879 C883 1.385 . S
C880 H861 0.951 . S
C880 C878 1.388 . S
C880 C881 1.366 . S
C881 C880 1.366 . S
C881 C882 1.414 . S
C881 C884 1.499 . S
C882 H862 0.950 . S
C882 C881 1.414 . S
C882 C883 1.374 . S
C883 H863 0.950 . S
C883 C879 1.385 . S
C883 C882 1.374 . S
C884 C881 1.499 . S
C884 C885 1.373 . S
C884 C886 1.389 . S
C885 H864 0.950 . S
C885 C884 1.373 . S
C885 C901 1.377 . S
C886 C884 1.389 . S
C886 C887 1.524 . S
C886 C900 1.377 . S
C887 C886 1.524 . S
C887 C888 1.397 . S
C887 C892 1.363 . S
C888 H865 0.950 . S
C888 C887 1.397 . S
C888 C889 1.334 . S
C889 H866 0.950 . S
C889 C888 1.334 . S
C889 C890 1.287 . S
C890 C889 1.287 . S
C890 C891 1.524 . S
C890 H909 0.913 . S
C891 H867 0.950 . S
C891 C890 1.524 . S
C891 C892 1.415 . S
C892 H868 0.950 . S
C892 C887 1.363 . S
C892 C891 1.415 . S
C893 H869 0.951 . S
C893 C894 1.366 . S
C893 C895 1.388 . S
C894 C893 1.366 . S
C894 C898 1.385 . S
C895 H870 0.951 . S
C895 C893 1.388 . S
C895 C896 1.366 . S
C896 C895 1.366 . S
C896 C897 1.414 . S
C896 C899 1.499 . S
C897 H871 0.950 . S
C897 C896 1.414 . S
C897 C898 1.374 . S
C898 H872 0.950 . S
C898 C894 1.385 . S
C898 C897 1.374 . S
C899 C896 1.499 . S
C899 C900 1.373 . S
C899 C901 1.389 . S
C900 H873 0.950 . S
C900 C886 1.377 . S
C900 C899 1.373 . S
C901 C885 1.377 . S
C901 C899 1.389 . S
C901 C902 1.524 . S
C902 C901 1.524 . S
C902 C903 1.397 . S
C902 C907 1.363 . S
C903 H874 0.950 . S
C903 C902 1.397 . S
C903 C904 1.334 . S
C904 H875 0.950 . S
C904 C903 1.334 . S
C904 C905 1.287 . S
C905 C904 1.287 . S
C905 C906 1.524 . S
C905 H908 0.999 . S
C906 H876 0.950 . S
C906 C905 1.524 . S
C906 C907 1.415 . S
C907 H877 0.950 . S
C907 C902 1.363 . S
C907 C906 1.415 . S
H908 C905 0.999 . S
H909 C890 0.913 . S
H910 C928 0.951 . S
H911 C930 0.951 . S
H912 C932 0.950 . S
H913 C933 0.950 . S
H914 C935 0.950 . S
H915 C938 0.950 . S
H916 C939 0.950 . S
H917 C941 0.950 . S
H918 C942 0.950 . S
H919 C943 0.951 . S
H920 C945 0.951 . S
H921 C947 0.950 . S
H922 C948 0.950 . S
H923 C950 0.950 . S
H924 C953 0.950 . S
H925 C954 0.950 . S
H926 C956 0.950 . S
H927 C957 0.950 . S
C928 H910 0.951 . S
C928 C929 1.366 . S
C928 C930 1.388 . S
C929 C928 1.366 . S
C929 C933 1.385 . S
C930 H911 0.951 . S
C930 C928 1.388 . S
C930 C931 1.366 . S
C931 C930 1.366 . S
C931 C932 1.414 . S
C931 C934 1.499 . S
C932 H912 0.950 . S
C932 C931 1.414 . S
C932 C933 1.374 . S
C933 H913 0.950 . S
C933 C929 1.385 . S
C933 C932 1.374 . S
C934 C931 1.499 . S
C934 C935 1.373 . S
C934 C936 1.389 . S
C935 H914 0.950 . S
C935 C934 1.373 . S
C935 C951 1.377 . S
C936 C934 1.389 . S
C936 C937 1.524 . S
C936 C950 1.377 . S
C937 C936 1.524 . S
C937 C938 1.397 . S
C937 C942 1.363 . S
C938 H915 0.950 . S
C938 C937 1.397 . S
C938 C939 1.334 . S
C939 H916 0.950 . S
C939 C938 1.334 . S
C939 C940 1.287 . S
C940 C939 1.287 . S
C940 C941 1.524 . S
C940 H959 0.913 . S
C941 H917 0.950 . S
C941 C940 1.524 . S
C941 C942 1.415 . S
C942 H918 0.950 . S
C942 C937 1.363 . S
C942 C941 1.415 . S
C943 H919 0.951 . S
C943 C944 1.366 . S
C943 C945 1.388 . S
C944 C943 1.366 . S
C944 C948 1.385 . S
C945 H920 0.951 . S
C945 C943 1.388 . S
C945 C946 1.366 . S
C946 C945 1.366 . S
C946 C947 1.414 . S
C946 C949 1.499 . S
C947 H921 0.950 . S
C947 C946 1.414 . S
C947 C948 1.374 . S
C948 H922 0.950 . S
C948 C944 1.385 . S
C948 C947 1.374 . S
C949 C946 1.499 . S
C949 C950 1.373 . S
C949 C951 1.389 . S
C950 H923 0.950 . S
C950 C936 1.377 . S
C950 C949 1.373 . S
C951 C935 1.377 . S
C951 C949 1.389 . S
C951 C952 1.524 . S
C952 C951 1.524 . S
C952 C953 1.397 . S
C952 C957 1.363 . S
C953 H924 0.950 . S
C953 C952 1.397 . S
C953 C954 1.334 . S
C954 H925 0.950 . S
C954 C953 1.334 . S
C954 C955 1.287 . S
C955 C954 1.287 . S
C955 C956 1.524 . S
C955 H958 0.999 . S
C956 H926 0.950 . S
C956 C955 1.524 . S
C956 C957 1.415 . S
C957 H927 0.950 . S
C957 C952 1.363 . S
C957 C956 1.415 . S
H958 C955 0.999 . S
H959 C940 0.913 . S
H960 C978 0.951 . S
H961 C980 0.951 . S
H962 C982 0.951 . S
H963 C983 0.950 . S
H964 C985 0.950 . S
H965 C988 0.950 1_655 S
H966 C989 0.950 . S
H967 C991 0.950 . S
H968 C992 0.950 . S
H969 C993 0.951 . S
H970 C995 0.951 . S
H971 C997 0.951 . S
H972 C998 0.950 . S
H973 C1000 0.950 . S
H974 C1003 0.950 1_455 S
H975 C1004 0.950 . S
H976 C1006 0.950 . S
H977 C1007 0.950 . S
C978 H960 0.951 . S
C978 C979 1.366 1_455 S
C978 C980 1.388 . S
C979 C978 1.366 1_655 S
C979 C983 1.385 . S
C980 H961 0.951 . S
C980 C978 1.388 . S
C980 C981 1.366 1_455 S
C981 C980 1.366 1_655 S
C981 C982 1.414 . S
C981 C984 1.499 . S
C982 H962 0.951 . S
C982 C981 1.414 . S
C982 C983 1.374 . S
C983 H963 0.950 . S
C983 C979 1.385 . S
C983 C982 1.374 . S
C984 C981 1.499 . S
C984 C985 1.373 1_565 S
C984 C986 1.389 1_655 S
C985 H964 0.950 . S
C985 C984 1.373 1_545 S
C985 C1001 1.377 1_556 S
C986 C984 1.389 1_455 S
C986 C987 1.524 . S
C986 C1000 1.377 1_556 S
C987 C986 1.524 . S
C987 C988 1.397 . S
C987 C992 1.363 . S
C988 H965 0.950 1_455 S
C988 C987 1.397 . S
C988 C989 1.334 . S
C989 H966 0.950 . S
C989 C988 1.334 . S
C989 C990 1.287 . S
C990 C989 1.287 . S
C990 C991 1.524 . S
C990 H1009 0.913 . S
C991 H967 0.950 . S
C991 C990 1.524 . S
C991 C992 1.415 . S
C992 H968 0.950 . S
C992 C987 1.363 . S
C992 C991 1.415 . S
C993 H969 0.951 . S
C993 C994 1.366 1_655 S
C993 C995 1.388 . S
C994 C993 1.366 1_455 S
C994 C998 1.385 . S
C995 H970 0.951 . S
C995 C993 1.388 . S
C995 C996 1.366 1_655 S
C996 C995 1.366 1_455 S
C996 C997 1.414 . S
C996 C999 1.499 . S
C997 H971 0.951 . S
C997 C996 1.414 . S
C997 C998 1.374 . S
C998 H972 0.950 . S
C998 C994 1.385 . S
C998 C997 1.374 . S
C999 C996 1.499 . S
C999 C1000 1.373 1_545 S
C999 C1001 1.389 1_455 S
C1000 H973 0.950 . S
C1000 C986 1.377 1_554 S
C1000 C999 1.373 1_565 S
C1001 C985 1.377 1_554 S
C1001 C999 1.389 1_655 S
C1001 C1002 1.524 . S
C1002 C1001 1.524 . S
C1002 C1003 1.397 . S
C1002 C1007 1.363 . S
C1003 H974 0.950 1_655 S
C1003 C1002 1.397 . S
C1003 C1004 1.334 . S
C1004 H975 0.950 . S
C1004 C1003 1.334 . S
C1004 C1005 1.287 . S
C1005 C1004 1.287 . S
C1005 C1006 1.524 . S
C1005 H1008 0.999 . S
C1006 H976 0.950 . S
C1006 C1005 1.524 . S
C1006 C1007 1.415 . S
C1007 H977 0.950 . S
C1007 C1002 1.363 . S
C1007 C1006 1.415 . S
H1008 C1005 0.999 . S
H1009 C990 0.913 . S
H1010 C1028 0.951 . S
H1011 C1030 0.951 . S
H1012 C1032 0.950 . S
H1013 C1033 0.950 . S
H1014 C1035 0.950 . S
H1015 C1038 0.950 . S
H1016 C1039 0.950 . S
H1017 C1041 0.950 . S
H1018 C1042 0.950 . S
H1019 C1043 0.951 1_556 S
H1020 C1045 0.951 . S
H1021 C1047 0.950 . S
H1022 C1048 0.950 1_556 S
H1023 C1050 0.950 . S
H1024 C1053 0.950 . S
H1025 C1054 0.950 . S
H1026 C1056 0.950 . S
H1027 C1057 0.950 . S
C1028 H1010 0.951 . S
C1028 C1029 1.366 . S
C1028 C1030 1.388 . S
C1029 C1028 1.366 . S
C1029 C1033 1.385 . S
C1030 H1011 0.951 . S
C1030 C1028 1.388 . S
C1030 C1031 1.366 . S
C1031 C1030 1.366 . S
C1031 C1032 1.414 . S
C1031 C1034 1.499 . S
C1032 H1012 0.950 . S
C1032 C1031 1.414 . S
C1032 C1033 1.374 . S
C1033 H1013 0.950 . S
C1033 C1029 1.385 . S
C1033 C1032 1.374 . S
C1034 C1031 1.499 . S
C1034 C1035 1.373 . S
C1034 C1036 1.389 . S
C1035 H1014 0.950 . S
C1035 C1034 1.373 . S
C1035 C1051 1.377 . S
C1036 C1034 1.389 . S
C1036 C1037 1.524 . S
C1036 C1050 1.377 . S
C1037 C1036 1.524 . S
C1037 C1038 1.397 . S
C1037 C1042 1.363 . S
C1038 H1015 0.950 . S
C1038 C1037 1.397 . S
C1038 C1039 1.334 . S
C1039 H1016 0.950 . S
C1039 C1038 1.334 . S
C1039 C1040 1.287 . S
C1040 C1039 1.287 . S
C1040 C1041 1.524 . S
C1040 H1059 0.913 . S
C1041 H1017 0.950 . S
C1041 C1040 1.524 . S
C1041 C1042 1.415 . S
C1042 H1018 0.950 . S
C1042 C1037 1.363 . S
C1042 C1041 1.415 . S
C1043 H1019 0.951 1_554 S
C1043 C1044 1.366 1_554 S
C1043 C1045 1.388 . S
C1044 C1043 1.366 1_556 S
C1044 C1048 1.385 1_556 S
C1045 H1020 0.951 . S
C1045 C1043 1.388 . S
C1045 C1046 1.366 . S
C1046 C1045 1.366 . S
C1046 C1047 1.414 . S
C1046 C1049 1.499 . S
C1047 H1021 0.950 . S
C1047 C1046 1.414 . S
C1047 C1048 1.374 . S
C1048 H1022 0.950 1_554 S
C1048 C1044 1.385 1_554 S
C1048 C1047 1.374 . S
C1049 C1046 1.499 . S
C1049 C1050 1.373 . S
C1049 C1051 1.389 . S
C1050 H1023 0.950 . S
C1050 C1036 1.377 . S
C1050 C1049 1.373 . S
C1051 C1035 1.377 . S
C1051 C1049 1.389 . S
C1051 C1052 1.524 . S
C1052 C1051 1.524 . S
C1052 C1053 1.397 . S
C1052 C1057 1.363 . S
C1053 H1024 0.950 . S
C1053 C1052 1.397 . S
C1053 C1054 1.334 . S
C1054 H1025 0.950 . S
C1054 C1053 1.334 . S
C1054 C1055 1.287 . S
C1055 C1054 1.287 . S
C1055 C1056 1.524 . S
C1055 H1058 0.999 . S
C1056 H1026 0.950 . S
C1056 C1055 1.524 . S
C1056 C1057 1.415 . S
C1057 H1027 0.950 . S
C1057 C1052 1.363 . S
C1057 C1056 1.415 . S
H1058 C1055 0.999 . S
H1059 C1040 0.913 . S
H1060 C1078 0.951 . S
H1061 C1080 0.951 . S
H1062 C1082 0.950 . S
H1063 C1083 0.950 . S
H1064 C1085 0.950 . S
H1065 C1088 0.950 . S
H1066 C1089 0.950 . S
H1067 C1091 0.950 . S
H1068 C1092 0.950 . S
H1069 C1093 0.951 . S
H1070 C1095 0.951 . S
H1071 C1097 0.950 . S
H1072 C1098 0.950 . S
H1073 C1100 0.950 . S
H1074 C1103 0.950 . S
H1075 C1104 0.950 . S
H1076 C1106 0.950 . S
H1077 C1107 0.950 . S
C1078 H1060 0.951 . S
C1078 C1079 1.366 . S
C1078 C1080 1.388 . S
C1079 C1078 1.366 . S
C1079 C1083 1.385 1_565 S
C1080 H1061 0.951 . S
C1080 C1078 1.388 . S
C1080 C1081 1.366 . S
C1081 C1080 1.366 . S
C1081 C1082 1.414 1_565 S
C1081 C1084 1.499 . S
C1082 H1062 0.950 . S
C1082 C1081 1.414 1_545 S
C1082 C1083 1.374 . S
C1083 H1063 0.950 . S
C1083 C1079 1.385 1_545 S
C1083 C1082 1.374 . S
C1084 C1081 1.499 . S
C1084 C1085 1.373 1_565 S
C1084 C1086 1.389 . S
C1085 H1064 0.950 . S
C1085 C1084 1.373 1_545 S
C1085 C1101 1.377 . S
C1086 C1084 1.389 . S
C1086 C1087 1.524 . S
C1086 C1100 1.377 . S
C1087 C1086 1.524 . S
C1087 C1088 1.397 . S
C1087 C1092 1.363 . S
C1088 H1065 0.950 . S
C1088 C1087 1.397 . S
C1088 C1089 1.334 . S
C1089 H1066 0.950 . S
C1089 C1088 1.334 . S
C1089 C1090 1.287 . S
C1090 C1089 1.287 . S
C1090 C1091 1.524 . S
C1090 H1109 0.913 . S
C1091 H1067 0.950 . S
C1091 C1090 1.524 . S
C1091 C1092 1.415 . S
C1092 H1068 0.950 . S
C1092 C1087 1.363 . S
C1092 C1091 1.415 . S
C1093 H1069 0.951 . S
C1093 C1094 1.366 . S
C1093 C1095 1.388 . S
C1094 C1093 1.366 . S
C1094 C1098 1.385 1_545 S
C1095 H1070 0.951 . S
C1095 C1093 1.388 . S
C1095 C1096 1.366 . S
C1096 C1095 1.366 . S
C1096 C1097 1.414 1_545 S
C1096 C1099 1.499 . S
C1097 H1071 0.950 . S
C1097 C1096 1.414 1_565 S
C1097 C1098 1.374 . S
C1098 H1072 0.950 . S
C1098 C1094 1.385 1_565 S
C1098 C1097 1.374 . S
C1099 C1096 1.499 . S
C1099 C1100 1.373 1_545 S
C1099 C1101 1.389 . S
C1100 H1073 0.950 . S
C1100 C1086 1.377 . S
C1100 C1099 1.373 1_565 S
C1101 C1085 1.377 . S
C1101 C1099 1.389 . S
C1101 C1102 1.524 . S
C1102 C1101 1.524 . S
C1102 C1103 1.397 . S
C1102 C1107 1.363 . S
C1103 H1074 0.950 . S
C1103 C1102 1.397 . S
C1103 C1104 1.334 . S
C1104 H1075 0.950 . S
C1104 C1103 1.334 . S
C1104 C1105 1.287 . S
C1105 C1104 1.287 . S
C1105 C1106 1.524 . S
C1105 H1108 0.999 . S
C1106 H1076 0.950 . S
C1106 C1105 1.524 . S
C1106 C1107 1.415 . S
C1107 H1077 0.950 . S
C1107 C1102 1.363 . S
C1107 C1106 1.415 . S
H1108 C1105 0.999 . S
H1109 C1090 0.913 . S
H1110 C1128 0.951 1_554 S
H1111 C1130 0.951 . S
H1112 C1132 0.950 . S
H1113 C1133 0.952 . S
H1114 C1135 0.950 . S
H1115 C1138 0.950 . S
H1116 C1139 0.950 . S
H1117 C1141 0.950 . S
H1118 C1142 0.950 . S
H1119 C1143 0.951 . S
H1120 C1145 0.951 . S
H1121 C1147 0.950 . S
H1122 C1148 0.950 . S
H1123 C1150 0.950 . S
H1124 C1153 0.950 . S
H1125 C1154 0.950 . S
H1126 C1156 0.950 . S
H1127 C1157 0.950 . S
C1128 H1110 0.951 1_556 S
C1128 C1129 1.366 1_556 S
C1128 C1130 1.388 . S
C1129 C1128 1.366 1_554 S
C1129 C1133 1.387 . S
C1130 H1111 0.951 . S
C1130 C1128 1.388 . S
C1130 C1131 1.366 . S
C1131 C1130 1.366 . S
C1131 C1132 1.414 . S
C1131 C1134 1.499 . S
C1132 H1112 0.950 . S
C1132 C1131 1.414 . S
C1132 C1133 1.369 1_556 S
C1133 H1113 0.952 . S
C1133 C1129 1.387 . S
C1133 C1132 1.369 1_554 S
C1134 C1131 1.499 . S
C1134 C1135 1.373 . S
C1134 C1136 1.389 . S
C1135 H1114 0.950 . S
C1135 C1134 1.373 . S
C1135 C1151 1.377 . S
C1136 C1134 1.389 . S
C1136 C1137 1.524 . S
C1136 C1150 1.377 . S
C1137 C1136 1.524 . S
C1137 C1138 1.397 . S
C1137 C1142 1.363 . S
C1138 H1115 0.950 . S
C1138 C1137 1.397 . S
C1138 C1139 1.334 . S
C1139 H1116 0.950 . S
C1139 C1138 1.334 . S
C1139 C1140 1.287 . S
C1140 C1139 1.287 . S
C1140 C1141 1.524 . S
C1140 H1159 0.913 . S
C1141 H1117 0.950 . S
C1141 C1140 1.524 . S
C1141 C1142 1.415 . S
C1142 H1118 0.950 . S
C1142 C1137 1.363 . S
C1142 C1141 1.415 . S
C1143 H1119 0.951 . S
C1143 C1144 1.366 . S
C1143 C1145 1.388 . S
C1144 C1143 1.366 . S
C1144 C1148 1.385 . S
C1145 H1120 0.951 . S
C1145 C1143 1.388 . S
C1145 C1146 1.366 . S
C1146 C1145 1.366 . S
C1146 C1147 1.414 . S
C1146 C1149 1.499 . S
C1147 H1121 0.950 . S
C1147 C1146 1.414 . S
C1147 C1148 1.374 . S
C1148 H1122 0.950 . S
C1148 C1144 1.385 . S
C1148 C1147 1.374 . S
C1149 C1146 1.499 . S
C1149 C1150 1.373 . S
C1149 C1151 1.389 . S
C1150 H1123 0.950 . S
C1150 C1136 1.377 . S
C1150 C1149 1.373 . S
C1151 C1135 1.377 . S
C1151 C1149 1.389 . S
C1151 C1152 1.524 . S
C1152 C1151 1.524 . S
C1152 C1153 1.397 . S
C1152 C1157 1.363 . S
C1153 H1124 0.950 . S
C1153 C1152 1.397 . S
C1153 C1154 1.334 . S
C1154 H1125 0.950 . S
C1154 C1153 1.334 . S
C1154 C1155 1.287 . S
C1155 C1154 1.287 . S
C1155 C1156 1.524 . S
C1155 H1158 0.999 . S
C1156 H1126 0.950 . S
C1156 C1155 1.524 . S
C1156 C1157 1.415 . S
C1157 H1127 0.950 . S
C1157 C1152 1.363 . S
C1157 C1156 1.415 . S
H1158 C1155 0.999 . S
H1159 C1140 0.913 . S
H1160 C1178 0.958 . S
H1161 C1180 0.951 . S
H1162 C1182 0.950 . S
H1163 C1183 0.950 . S
H1164 C1185 0.950 . S
H1165 C1188 0.950 . S
H1166 C1189 0.950 . S
H1167 C1191 0.950 . S
H1168 C1192 0.950 . S
H1169 C1193 0.951 . S
H1170 C1195 0.951 . S
H1171 C1197 0.950 . S
H1172 C1198 0.950 . S
H1173 C1200 0.950 . S
H1174 C1203 0.950 . S
H1175 C1204 0.950 . S
H1176 C1206 0.950 . S
H1177 C1207 0.950 . S
C1178 H1160 0.958 . S
C1178 C1179 1.373 . S
C1178 C1180 1.373 1_554 S
C1179 C1178 1.373 . S
C1179 C1183 1.385 1_554 S
C1180 H1161 0.951 . S
C1180 C1178 1.373 1_556 S
C1180 C1181 1.366 . S
C1181 C1180 1.366 . S
C1181 C1182 1.414 . S
C1181 C1184 1.499 . S
C1182 H1162 0.950 . S
C1182 C1181 1.414 . S
C1182 C1183 1.374 . S
C1183 H1163 0.950 . S
C1183 C1179 1.385 1_556 S
C1183 C1182 1.374 . S
C1184 C1181 1.499 . S
C1184 C1185 1.373 . S
C1184 C1186 1.389 . S
C1185 H1164 0.950 . S
C1185 C1184 1.373 . S
C1185 C1201 1.377 . S
C1186 C1184 1.389 . S
C1186 C1187 1.524 . S
C1186 C1200 1.377 . S
C1187 C1186 1.524 . S
C1187 C1188 1.397 . S
C1187 C1192 1.363 . S
C1188 H1165 0.950 . S
C1188 C1187 1.397 . S
C1188 C1189 1.334 . S
C1189 H1166 0.950 . S
C1189 C1188 1.334 . S
C1189 C1190 1.287 . S
C1190 C1189 1.287 . S
C1190 C1191 1.524 . S
C1190 H1209 0.913 . S
C1191 H1167 0.950 . S
C1191 C1190 1.524 . S
C1191 C1192 1.415 . S
C1192 H1168 0.950 . S
C1192 C1187 1.363 . S
C1192 C1191 1.415 . S
C1193 H1169 0.951 . S
C1193 C1194 1.366 . S
C1193 C1195 1.388 . S
C1194 C1193 1.366 . S
C1194 C1198 1.385 . S
C1195 H1170 0.951 . S
C1195 C1193 1.388 . S
C1195 C1196 1.366 . S
C1196 C1195 1.366 . S
C1196 C1197 1.414 . S
C1196 C1199 1.499 . S
C1197 H1171 0.950 . S
C1197 C1196 1.414 . S
C1197 C1198 1.374 . S
C1198 H1172 0.950 . S
C1198 C1194 1.385 . S
C1198 C1197 1.374 . S
C1199 C1196 1.499 . S
C1199 C1200 1.373 . S
C1199 C1201 1.389 . S
C1200 H1173 0.950 . S
C1200 C1186 1.377 . S
C1200 C1199 1.373 . S
C1201 C1185 1.377 . S
C1201 C1199 1.389 . S
C1201 C1202 1.524 . S
C1202 C1201 1.524 . S
C1202 C1203 1.397 . S
C1202 C1207 1.363 . S
C1203 H1174 0.950 . S
C1203 C1202 1.397 . S
C1203 C1204 1.334 . S
C1204 H1175 0.950 . S
C1204 C1203 1.334 . S
C1204 C1205 1.287 . S
C1205 C1204 1.287 . S
C1205 C1206 1.524 . S
C1205 H1208 0.999 . S
C1206 H1176 0.950 . S
C1206 C1205 1.524 . S
C1206 C1207 1.415 . S
C1207 H1177 0.950 . S
C1207 C1202 1.363 . S
C1207 C1206 1.415 . S
H1208 C1205 0.999 . S
H1209 C1190 0.913 . S
H1210 C1228 0.951 . S
H1211 C1230 0.951 . S
H1212 C1232 0.950 . S
H1213 C1233 0.950 . S
H1214 C1235 0.950 . S
H1215 C1238 0.950 . S
H1216 C1239 0.950 . S
H1217 C1241 0.950 . S
H1218 C1242 0.950 . S
H1219 C1243 0.951 1_556 S
H1220 C1245 0.951 . S
H1221 C1247 0.950 . S
H1222 C1248 0.950 1_556 S
H1223 C1250 0.950 . S
H1224 C1253 0.950 . S
H1225 C1254 0.950 . S
H1226 C1256 0.950 . S
H1227 C1257 0.950 . S
C1228 H1210 0.951 . S
C1228 C1229 1.366 . S
C1228 C1230 1.388 . S
C1229 C1228 1.366 . S
C1229 C1233 1.385 . S
C1230 H1211 0.951 . S
C1230 C1228 1.388 . S
C1230 C1231 1.366 . S
C1231 C1230 1.366 . S
C1231 C1232 1.414 . S
C1231 C1234 1.499 . S
C1232 H1212 0.950 . S
C1232 C1231 1.414 . S
C1232 C1233 1.374 . S
C1233 H1213 0.950 . S
C1233 C1229 1.385 . S
C1233 C1232 1.374 . S
C1234 C1231 1.499 . S
C1234 C1235 1.373 . S
C1234 C1236 1.389 . S
C1235 H1214 0.950 . S
C1235 C1234 1.373 . S
C1235 C1251 1.377 . S
C1236 C1234 1.389 . S
C1236 C1237 1.524 . S
C1236 C1250 1.377 . S
C1237 C1236 1.524 . S
C1237 C1238 1.397 . S
C1237 C1242 1.363 . S
C1238 H1215 0.950 . S
C1238 C1237 1.397 . S
C1238 C1239 1.334 . S
C1239 H1216 0.950 . S
C1239 C1238 1.334 . S
C1239 C1240 1.287 . S
C1240 C1239 1.287 . S
C1240 C1241 1.524 . S
C1240 H1259 0.913 . S
C1241 H1217 0.950 . S
C1241 C1240 1.524 . S
C1241 C1242 1.415 . S
C1242 H1218 0.950 . S
C1242 C1237 1.363 . S
C1242 C1241 1.415 . S
C1243 H1219 0.951 1_554 S
C1243 C1244 1.366 1_554 S
C1243 C1245 1.388 . S
C1244 C1243 1.366 1_556 S
C1244 C1248 1.385 1_556 S
C1245 H1220 0.951 . S
C1245 C1243 1.388 . S
C1245 C1246 1.366 . S
C1246 C1245 1.366 . S
C1246 C1247 1.414 . S
C1246 C1249 1.499 . S
C1247 H1221 0.950 . S
C1247 C1246 1.414 . S
C1247 C1248 1.374 . S
C1248 H1222 0.950 1_554 S
C1248 C1244 1.385 1_554 S
C1248 C1247 1.374 . S
C1249 C1246 1.499 . S
C1249 C1250 1.373 . S
C1249 C1251 1.389 . S
C1250 H1223 0.950 . S
C1250 C1236 1.377 . S
C1250 C1249 1.373 . S
C1251 C1235 1.377 . S
C1251 C1249 1.389 . S
C1251 C1252 1.524 . S
C1252 C1251 1.524 . S
C1252 C1253 1.397 . S
C1252 C1257 1.363 . S
C1253 H1224 0.950 . S
C1253 C1252 1.397 . S
C1253 C1254 1.334 . S
C1254 H1225 0.950 . S
C1254 C1253 1.334 . S
C1254 C1255 1.287 . S
C1255 C1254 1.287 . S
C1255 C1256 1.524 . S
C1255 H1258 0.999 . S
C1256 H1226 0.950 . S
C1256 C1255 1.524 . S
C1256 C1257 1.415 . S
C1257 H1227 0.950 . S
C1257 C1252 1.363 . S
C1257 C1256 1.415 . S
H1258 C1255 0.999 . S
H1259 C1240 0.913 . S
H1260 C1278 0.951 . S
H1261 C1280 0.951 . S
H1262 C1282 0.950 . S
H1263 C1283 0.950 . S
H1264 C1285 0.950 . S
H1265 C1288 0.950 . S
H1266 C1289 0.950 . S
H1267 C1291 0.950 . S
H1268 C1292 0.950 . S
H1269 C1293 0.951 . S
H1270 C1295 0.951 . S
H1271 C1297 0.950 . S
H1272 C1298 0.950 . S
H1273 C1300 0.950 . S
H1274 C1303 0.950 . S
H1275 C1304 0.950 . S
H1276 C1306 0.950 . S
H1277 C1307 0.950 . S
C1278 H1260 0.951 . S
C1278 C1279 1.366 . S
C1278 C1280 1.388 . S
C1279 C1278 1.366 . S
C1279 C1283 1.385 . S
C1280 H1261 0.951 . S
C1280 C1278 1.388 . S
C1280 C1281 1.366 . S
C1281 C1280 1.366 . S
C1281 C1282 1.414 . S
C1281 C1284 1.499 . S
C1282 H1262 0.950 . S
C1282 C1281 1.414 . S
C1282 C1283 1.374 . S
C1283 H1263 0.950 . S
C1283 C1279 1.385 . S
C1283 C1282 1.374 . S
C1284 C1281 1.499 . S
C1284 C1285 1.373 . S
C1284 C1286 1.389 . S
C1285 H1264 0.950 . S
C1285 C1284 1.373 . S
C1285 C1301 1.377 . S
C1286 C1284 1.389 . S
C1286 C1287 1.524 . S
C1286 C1300 1.377 . S
C1287 C1286 1.524 . S
C1287 C1288 1.397 . S
C1287 C1292 1.363 . S
C1288 H1265 0.950 . S
C1288 C1287 1.397 . S
C1288 C1289 1.334 . S
C1289 H1266 0.950 . S
C1289 C1288 1.334 . S
C1289 C1290 1.287 . S
C1290 C1289 1.287 . S
C1290 C1291 1.524 . S
C1290 H1309 0.913 . S
C1291 H1267 0.950 . S
C1291 C1290 1.524 . S
C1291 C1292 1.415 . S
C1292 H1268 0.950 . S
C1292 C1287 1.363 . S
C1292 C1291 1.415 . S
C1293 H1269 0.951 . S
C1293 C1294 1.366 . S
C1293 C1295 1.388 . S
C1294 C1293 1.366 . S
C1294 C1298 1.385 . S
C1295 H1270 0.951 . S
C1295 C1293 1.388 . S
C1295 C1296 1.366 . S
C1296 C1295 1.366 . S
C1296 C1297 1.414 . S
C1296 C1299 1.499 . S
C1297 H1271 0.950 . S
C1297 C1296 1.414 . S
C1297 C1298 1.374 . S
C1298 H1272 0.950 . S
C1298 C1294 1.385 . S
C1298 C1297 1.374 . S
C1299 C1296 1.499 . S
C1299 C1300 1.373 . S
C1299 C1301 1.389 . S
C1300 H1273 0.950 . S
C1300 C1286 1.377 . S
C1300 C1299 1.373 . S
C1301 C1285 1.377 . S
C1301 C1299 1.389 . S
C1301 C1302 1.524 . S
C1302 C1301 1.524 . S
C1302 C1303 1.397 . S
C1302 C1307 1.363 . S
C1303 H1274 0.950 . S
C1303 C1302 1.397 . S
C1303 C1304 1.334 . S
C1304 H1275 0.950 . S
C1304 C1303 1.334 . S
C1304 C1305 1.287 . S
C1305 C1304 1.287 . S
C1305 C1306 1.524 . S
C1305 H1308 0.999 . S
C1306 H1276 0.950 . S
C1306 C1305 1.524 . S
C1306 C1307 1.415 . S
C1307 H1277 0.950 . S
C1307 C1302 1.363 . S
C1307 C1306 1.415 . S
H1308 C1305 0.999 . S
H1309 C1290 0.913 . S
H1310 C1328 0.951 . S
H1311 C1330 0.951 . S
H1312 C1332 0.950 . S
H1313 C1333 0.950 . S
H1314 C1335 0.950 . S
H1315 C1338 0.950 . S
H1316 C1339 0.950 . S
H1317 C1341 0.950 . S
H1318 C1342 0.950 1_554 S
H1319 C1343 0.951 . S
H1320 C1345 0.951 . S
H1321 C1347 0.950 . S
H1322 C1348 0.950 . S
H1323 C1350 0.950 . S
H1324 C1353 0.950 . S
H1325 C1354 0.950 . S
H1326 C1356 0.950 . S
H1327 C1357 0.950 1_556 S
C1328 H1310 0.951 . S
C1328 C1329 1.366 . S
C1328 C1330 1.388 . S
C1329 C1328 1.366 . S
C1329 C1333 1.385 1_655 S
C1330 H1311 0.951 . S
C1330 C1328 1.388 . S
C1330 C1331 1.369 . S
C1331 C1330 1.369 . S
C1331 C1332 1.410 1_655 S
C1331 C1334 1.499 1_655 S
C1332 H1312 0.950 . S
C1332 C1331 1.410 1_455 S
C1332 C1333 1.374 . S
C1333 H1313 0.950 . S
C1333 C1329 1.385 1_455 S
C1333 C1332 1.374 . S
C1334 C1331 1.499 1_455 S
C1334 C1335 1.373 1_455 S
C1334 C1336 1.389 . S
C1335 H1314 0.950 . S
C1335 C1334 1.373 1_655 S
C1335 C1351 1.377 1_556 S
C1336 C1334 1.389 . S
C1336 C1337 1.524 . S
C1336 C1350 1.377 1_556 S
C1337 C1336 1.524 . S
C1337 C1338 1.397 . S
C1337 C1342 1.363 1_455 S
C1338 H1315 0.950 . S
C1338 C1337 1.397 . S
C1338 C1339 1.334 . S
C1339 H1316 0.950 . S
C1339 C1338 1.334 . S
C1339 C1340 1.287 . S
C1340 C1339 1.287 . S
C1340 C1341 1.524 1_455 S
C1340 H1359 0.913 . S
C1341 H1317 0.950 . S
C1341 C1340 1.524 1_655 S
C1341 C1342 1.415 . S
C1342 H1318 0.950 1_556 S
C1342 C1337 1.363 1_655 S
C1342 C1341 1.415 . S
C1343 H1319 0.951 . S
C1343 C1344 1.366 . S
C1343 C1345 1.388 . S
C1344 C1343 1.366 . S
C1344 C1348 1.385 1_455 S
C1345 H1320 0.951 . S
C1345 C1343 1.388 . S
C1345 C1346 1.376 . S
C1346 C1345 1.376 . S
C1346 C1347 1.403 1_455 S
C1346 C1349 1.505 1_455 S
C1347 H1321 0.950 . S
C1347 C1346 1.403 1_655 S
C1347 C1348 1.374 . S
C1348 H1322 0.950 . S
C1348 C1344 1.385 1_655 S
C1348 C1347 1.374 . S
C1349 C1346 1.505 1_655 S
C1349 C1350 1.368 1_655 S
C1349 C1351 1.389 . S
C1350 H1323 0.950 . S
C1350 C1336 1.377 1_554 S
C1350 C1349 1.368 1_455 S
C1351 C1335 1.377 1_554 S
C1351 C1349 1.389 . S
C1351 C1352 1.524 . S
C1352 C1351 1.524 . S
C1352 C1353 1.397 . S
C1352 C1357 1.363 1_655 S
C1353 H1324 0.950 . S
C1353 C1352 1.397 . S
C1353 C1354 1.334 . S
C1354 H1325 0.950 . S
C1354 C1353 1.334 . S
C1354 C1355 1.287 . S
C1355 C1354 1.287 . S
C1355 C1356 1.524 1_655 S
C1355 H1358 0.999 . S
C1356 H1326 0.950 . S
C1356 C1355 1.524 1_455 S
C1356 C1357 1.415 . S
C1357 H1327 0.950 1_554 S
C1357 C1352 1.363 1_455 S
C1357 C1356 1.415 . S
H1358 C1355 0.999 . S
H1359 C1340 0.913 . S
C179 C16 1.256 . S
C194 C76 1.255 . S
C229 C1 1.538 . S
C244 C36 1.488 . S
C279 C21 1.762 . S
C294 C41 1.762 . S
C329 C56 1.487 . S
C344 C61 1.536 . S
C379 C6 1.257 . S
C394 C106 1.259 . S
C429 C9 1.537 . S
C444 C86 1.487 . S
C479 C89 1.762 . S
C494 C49 1.761 . S
C529 C109 1.537 . S
C544 C46 1.489 . S
C579 C136 1.256 . S
C594 C116 1.257 . S
C629 C96 1.488 . S
C644 C121 1.537 . S
C679 C141 1.762 . S
C694 C81 1.763 . S
C729 C101 1.538 . S
C744 C156 1.489 . S
C779 C66 1.256 . S
C794 C126 1.255 . S
C829 C129 1.537 . S
C844 C26 1.488 . S
C879 C29 1.762 . S
C894 C149 1.761 . S
C929 C69 1.537 . S
C944 C146 1.486 . S
C979 C19 2.012 1_565 S
C994 C8 2.014 1_545 S
C1029 C28 2.030 . S
C1044 C39 2.030 . S
C1079 C59 2.030 . S
C1094 C48 2.030 . S
C1129 C79 2.013 . S
C1144 C68 2.013 . S
C1179 C88 2.030 . S
C1194 C99 2.030 . S
C1229 C119 2.013 . S
C1244 C108 2.013 . S
C1279 C128 2.013 . S
C1294 C139 2.013 . S
C1329 C148 2.031 1_655 S
C1344 C159 2.031 . S
