# Generated by pormake.
# Topology qtz-a, (4)-cn, num edge types: 1
# Building blocks:
#     Node 0, Type 0, BuildingBlock: AZAVOO_clean_sbu_0, # of connection points: 4
#     Node 1, Type 0, BuildingBlock: AZAVOO_clean_sbu_0, # of connection points: 4
#     Node 2, Type 0, BuildingBlock: AZAVOO_clean_sbu_0, # of connection points: 4
#     Node 3, Type 0, BuildingBlock: AZAVOO_clean_sbu_0, # of connection points: 4
#     Node 4, Type 0, BuildingBlock: AZAVOO_clean_sbu_0, # of connection points: 4
#     Node 5, Type 0, BuildingBlock: AZAVOO_clean_sbu_0, # of connection points: 4
#     Node 6, Type 0, BuildingBlock: AZAVOO_clean_sbu_0, # of connection points: 4
#     Node 7, Type 0, BuildingBlock: AZAVOO_clean_sbu_0, # of connection points: 4
#     Node 8, Type 0, BuildingBlock: AZAVOO_clean_sbu_0, # of connection points: 4
#     Node 9, Type 0, BuildingBlock: AZAVOO_clean_sbu_0, # of connection points: 4
#     Node 10, Type 0, BuildingBlock: AZAVOO_clean_sbu_0, # of connection points: 4
#     Node 11, Type 0, BuildingBlock: AZAVOO_clean_sbu_0, # of connection points: 4
#     Edge 12, Type (0, 0), BuildingBlock: ZUJKAS_clean_linker_0, # of connection points: 2
#     Edge 13, Type (0, 0), BuildingBlock: ZUJKAS_clean_linker_0, # of connection points: 2
#     Edge 14, Type (0, 0), BuildingBlock: ZUJKAS_clean_linker_0, # of connection points: 2
#     Edge 15, Type (0, 0), BuildingBlock: ZUJKAS_clean_linker_0, # of connection points: 2
#     Edge 16, Type (0, 0), BuildingBlock: ZUJKAS_clean_linker_0, # of connection points: 2
#     Edge 17, Type (0, 0), BuildingBlock: ZUJKAS_clean_linker_0, # of connection points: 2
#     Edge 18, Type (0, 0), BuildingBlock: ZUJKAS_clean_linker_0, # of connection points: 2
#     Edge 19, Type (0, 0), BuildingBlock: ZUJKAS_clean_linker_0, # of connection points: 2
#     Edge 20, Type (0, 0), BuildingBlock: ZUJKAS_clean_linker_0, # of connection points: 2
#     Edge 21, Type (0, 0), BuildingBlock: ZUJKAS_clean_linker_0, # of connection points: 2
#     Edge 22, Type (0, 0), BuildingBlock: ZUJKAS_clean_linker_0, # of connection points: 2
#     Edge 23, Type (0, 0), BuildingBlock: ZUJKAS_clean_linker_0, # of connection points: 2
#     Edge 24, Type (0, 0), BuildingBlock: ZUJKAS_clean_linker_0, # of connection points: 2
#     Edge 25, Type (0, 0), BuildingBlock: ZUJKAS_clean_linker_0, # of connection points: 2
#     Edge 26, Type (0, 0), BuildingBlock: ZUJKAS_clean_linker_0, # of connection points: 2
#     Edge 27, Type (0, 0), BuildingBlock: ZUJKAS_clean_linker_0, # of connection points: 2
#     Edge 28, Type (0, 0), BuildingBlock: ZUJKAS_clean_linker_0, # of connection points: 2
#     Edge 29, Type (0, 0), BuildingBlock: ZUJKAS_clean_linker_0, # of connection points: 2
#     Edge 30, Type (0, 0), BuildingBlock: ZUJKAS_clean_linker_0, # of connection points: 2
#     Edge 31, Type (0, 0), BuildingBlock: ZUJKAS_clean_linker_0, # of connection points: 2
#     Edge 32, Type (0, 0), BuildingBlock: ZUJKAS_clean_linker_0, # of connection points: 2
#     Edge 33, Type (0, 0), BuildingBlock: ZUJKAS_clean_linker_0, # of connection points: 2
#     Edge 34, Type (0, 0), BuildingBlock: ZUJKAS_clean_linker_0, # of connection points: 2
#     Edge 35, Type (0, 0), BuildingBlock: ZUJKAS_clean_linker_0, # of connection points: 2
# Relax obj value: 0.802
# Max RMSD: 0.290
# Mean RMSD: 0.288
data_MOF--net-qtz-a--node1-AZAVOO_clean_sbu_0--edge1-ZUJKAS_clean_linker_0
_symmetry_space_group_name_H-M    P1
_symmetry_Int_Tables_number       1
_symmetry_cell_setting            triclinic
loop_
_symmetry_equiv_pos_as_xyz
'x, y, z'
_cell_length_a     48.961973
_cell_length_b     49.005474
_cell_length_c     64.765776
_cell_angle_alpha  89.968628
_cell_angle_beta   90.000615
_cell_angle_gamma 97.391081
loop_
_atom_site_label
_atom_site_type_symbol
_atom_site_fract_x
_atom_site_fract_y
_atom_site_fract_z
_atom_type_partial_charge
Mg0 Mg 0.44976 0.11489 0.13684 0.0
O1 O 0.47382 0.10184 0.10851 0.0
O2 O 0.45615 0.05819 0.10222 0.0
Mg3 Mg 0.42352 0.043 0.12635 0.0
C4 C 0.47264 0.07978 0.09776 0.0
C5 C 0.44838 0.17682 0.1375 0.0
O6 O 0.42219 0.16686 0.13853 0.0
O7 O 0.41283 0.11736 0.11559 0.0
O8 O 0.39602 0.07286 0.11252 0.0
O9 O 0.48051 0.10014 0.15839 0.0
O10 O 0.44315 0.07458 0.14708 0.0
C11 C 0.39455 0.09833 0.10915 0.0
C12 C 0.46579 0.07628 0.15734 0.0
O13 O 0.46568 0.16037 0.13335 0.0
Mg14 Mg 0.31235 0.4752 0.5142 0.0
O15 O 0.32966 0.50471 0.48825 0.0
O16 O 0.36524 0.48779 0.47371 0.0
Mg17 Mg 0.37044 0.44746 0.48988 0.0
C18 C 0.34919 0.50625 0.47506 0.0
C19 C 0.26163 0.50502 0.53075 0.0
O20 O 0.24127 0.51965 0.52788 0.0
O21 O 0.29147 0.4435 0.49111 0.0
O22 O 0.32864 0.42813 0.47754 0.0
O23 O 0.34288 0.498 0.53588 0.0
O24 O 0.35075 0.46159 0.51786 0.0
C25 C 0.30259 0.42794 0.4787 0.0
C26 C 0.3599 0.48131 0.53013 0.0
O27 O 0.27452 0.4978 0.51503 0.0
Mg28 Mg 0.98813 0.3214 0.96119 0.0
O29 O 0.97365 0.34737 0.93465 0.0
O30 O 0.00561 0.38357 0.92977 0.0
Mg31 Mg 0.04058 0.38085 0.95313 0.0
C32 C 0.98254 0.36961 0.92518 0.0
C33 C 0.92975 0.29138 0.95164 0.0
O34 O 0.92422 0.31663 0.95453 0.0
O35 O 0.01929 0.30472 0.93963 0.0
O36 O 0.0516 0.34147 0.93806 0.0
O37 O 0.96853 0.34754 0.98396 0.0
O38 O 0.01166 0.35597 0.97351 0.0
C39 C 0.04295 0.31636 0.93395 0.0
C40 C 0.99165 0.36368 0.98388 0.0
O41 O 0.95456 0.28648 0.95302 0.0
Mg42 Mg 0.50818 0.78625 0.10404 0.0
O43 O 0.48592 0.78281 0.07215 0.0
O44 O 0.46954 0.81062 0.09267 0.0
Mg45 Mg 0.47162 0.8524 0.10555 0.0
C46 C 0.47183 0.80253 0.07432 0.0
C47 C 0.55181 0.74284 0.1038 0.0
O48 O 0.56994 0.72904 0.095 0.0
O49 O 0.53602 0.82343 0.09085 0.0
O50 O 0.51471 0.86153 0.09066 0.0
O51 O 0.52285 0.80003 0.13565 0.0
O52 O 0.48733 0.81583 0.12095 0.0
C53 C 0.53555 0.84895 0.08684 0.0
C54 C 0.5045 0.81675 0.13605 0.0
O55 O 0.53788 0.75727 0.09258 0.0
Mg56 Mg 0.70091 0.54447 0.51118 0.0
O57 O 0.68788 0.51341 0.48515 0.0
O58 O 0.6524 0.52753 0.46831 0.0
Mg59 Mg 0.64208 0.56679 0.48368 0.0
C60 C 0.66967 0.51042 0.47092 0.0
C61 C 0.75295 0.51753 0.5298 0.0
O62 O 0.77548 0.506 0.52716 0.0
O63 O 0.72083 0.57717 0.48838 0.0
O64 O 0.68334 0.58951 0.4731 0.0
O65 O 0.67073 0.51985 0.53234 0.0
O66 O 0.66064 0.5539 0.51251 0.0
C67 C 0.70942 0.59174 0.47539 0.0
C68 C 0.65246 0.5341 0.525 0.0
O69 O 0.74121 0.52602 0.51394 0.0
Mg70 Mg 0.03047 0.68641 0.96038 0.0
O71 O 0.04067 0.65439 0.9365 0.0
O72 O 0.00796 0.61823 0.93841 0.0
Mg73 Mg 0.97647 0.62736 0.96284 0.0
C74 C 0.03025 0.6304 0.93064 0.0
C75 C 0.0761 0.73526 0.95881 0.0
O76 O 0.06943 0.73384 0.97847 0.0
O77 O 0.99689 0.69931 0.93894 0.0
O78 O 0.9651 0.66267 0.94299 0.0
O79 O 0.0528 0.66428 0.98424 0.0
O80 O 0.0082 0.65581 0.978 0.0
C81 C 0.97295 0.68643 0.93538 0.0
C82 C 0.02946 0.6492 0.98742 0.0
O83 O 0.06329 0.71809 0.94637 0.0
Mg84 Mg 0.81764 0.57392 0.76014 0.0
O85 O 0.82714 0.5356 0.78054 0.0
O86 O 0.86805 0.54871 0.7959 0.0
Mg87 Mg 0.87123 0.59471 0.79721 0.0
C88 C 0.84856 0.53021 0.79057 0.0
C89 C 0.76198 0.56692 0.7385 0.0
O90 O 0.76633 0.59345 0.74234 0.0
O91 O 0.79592 0.59659 0.78511 0.0
O92 O 0.82622 0.58308 0.80565 0.0
O93 O 0.84842 0.56333 0.73794 0.0
O94 O 0.85924 0.5917 0.76417 0.0
C95 C 0.80819 0.59884 0.80238 0.0
C96 C 0.86716 0.57774 0.74885 0.0
O97 O 0.778 0.55152 0.74669 0.0
Mg98 Mg 0.33505 0.99158 0.88504 0.0
O99 O 0.36424 0.97281 0.90725 0.0
O100 O 0.40392 0.00077 0.90946 0.0
Mg101 Mg 0.39886 0.03898 0.88991 0.0
C102 C 0.38867 0.97855 0.91431 0.0
C103 C 0.30131 0.934 0.8932 0.0
O104 O 0.32342 0.92611 0.88479 0.0
O105 O 0.32551 0.02094 0.91063 0.0
O106 O 0.36518 0.04907 0.91229 0.0
O107 O 0.35522 0.97264 0.85846 0.0
O108 O 0.36813 0.01447 0.87057 0.0
C109 C 0.3405 0.04168 0.91838 0.0
C110 C 0.37253 0.99497 0.85825 0.0
O111 O 0.29995 0.95955 0.89545 0.0
Mg112 Mg 0.4405 0.33769 0.36136 0.0
O113 O 0.47988 0.32336 0.37454 0.0
O114 O 0.47803 0.3282 0.40878 0.0
Mg115 Mg 0.43912 0.34625 0.41753 0.0
C116 C 0.49035 0.32175 0.39249 0.0
C117 C 0.46801 0.3272 0.3192 0.0
O118 O 0.48504 0.34825 0.32588 0.0
O119 O 0.41181 0.30004 0.37233 0.0
O120 O 0.41016 0.30885 0.40608 0.0
O121 O 0.46389 0.37917 0.35889 0.0
O122 O 0.43949 0.36476 0.38644 0.0
C123 C 0.40223 0.29424 0.39035 0.0
C124 C 0.45668 0.38339 0.37773 0.0
O125 O 0.44782 0.31752 0.33052 0.0
Mg126 Mg 0.14972 0.42815 0.73932 0.0
O127 O 0.14378 0.45346 0.76905 0.0
O128 O 0.1012 0.43736 0.77993 0.0
Mg129 Mg 0.08012 0.40496 0.75803 0.0
C130 C 0.12384 0.45331 0.78192 0.0
C131 C 0.20991 0.42448 0.72894 0.0
O132 O 0.19888 0.39861 0.72796 0.0
O133 O 0.15521 0.39023 0.75897 0.0
O134 O 0.11132 0.37638 0.76714 0.0
O135 O 0.1332 0.46075 0.72111 0.0
O136 O 0.10734 0.42471 0.73425 0.0
C137 C 0.1367 0.37291 0.76724 0.0
C138 C 0.10891 0.44855 0.72557 0.0
O139 O 0.19585 0.4418 0.737 0.0
Mg140 Mg 0.68366 0.01684 0.89602 0.0
O141 O 0.64807 0.02987 0.91557 0.0
O142 O 0.611 0.99879 0.91078 0.0
Mg143 Mg 0.62321 0.96514 0.88949 0.0
C144 C 0.62282 0.02082 0.91912 0.0
C145 C 0.7098 0.07433 0.91155 0.0
O146 O 0.68653 0.08055 0.90388 0.0
O147 O 0.68913 0.98538 0.92128 0.0
O148 O 0.65179 0.95501 0.91555 0.0
O149 O 0.66875 0.03845 0.86861 0.0
O150 O 0.65547 0.99487 0.87623 0.0
C151 C 0.67376 0.96304 0.92566 0.0
C152 C 0.65245 0.01599 0.86508 0.0
O153 O 0.71435 0.04938 0.91142 0.0
Mg154 Mg 0.56715 0.69496 0.36415 0.0
O155 O 0.52825 0.71015 0.37772 0.0
O156 O 0.53026 0.70297 0.41172 0.0
Mg157 Mg 0.56872 0.68412 0.42013 0.0
C158 C 0.51782 0.71053 0.39581 0.0
C159 C 0.53885 0.71207 0.32337 0.0
O160 O 0.51756 0.6972 0.33189 0.0
O161 O 0.59703 0.7314 0.37568 0.0
O162 O 0.59855 0.72114 0.40919 0.0
O163 O 0.54232 0.65413 0.36105 0.0
O164 O 0.56722 0.66692 0.38869 0.0
C165 C 0.60688 0.73616 0.39376 0.0
C166 C 0.54941 0.64908 0.37979 0.0
O167 O 0.56146 0.71601 0.33325 0.0
H168 H 0.47038 0.03929 0.06864 0.0
H169 H 0.49817 0.03813 0.03753 0.0
H170 H 0.54247 0.11723 0.05291 0.0
H171 H 0.5145 0.11881 0.0843 0.0
H172 H 0.50539 0.08462 0.00443 0.0
H173 H 0.60086 0.05886 0.04272 0.0
H174 H 0.56742 0.05018 0.05449 0.0
H175 H 0.58275 0.08537 0.05344 0.0
C176 C 0.48604 0.05648 0.06556 0.0
C177 C 0.4902 0.07914 0.07908 0.0
C178 C 0.50186 0.05578 0.04769 0.0
C179 C 0.52234 0.07754 0.04299 0.0
C180 C 0.52677 0.1002 0.05637 0.0
H181 H 0.64138 0.06598 0.94284 0.0
H182 H 0.61738 0.08503 0.97157 0.0
C183 C 0.51076 0.10104 0.07426 0.0
C184 C 0.53885 0.07614 0.02395 0.0
H185 H 0.59976 0.05807 0.00648 0.0
C186 C 0.52619 0.07922 0.00482 0.0
C187 C 0.56598 0.06928 0.02458 0.0
C188 C 0.58024 0.06562 0.04485 0.0
C189 C 0.53969 0.07478 0.98622 0.0
C190 C 0.56627 0.06632 0.98683 0.0
C191 C 0.57939 0.06449 0.00599 0.0
C192 C 0.5798 0.05694 0.96804 0.0
C193 C 0.52521 0.07896 0.96612 0.0
C194 C 0.56661 0.03496 0.95639 0.0
C195 C 0.58015 0.0241 0.93992 0.0
C196 C 0.60741 0.03476 0.93487 0.0
C197 C 0.62037 0.05728 0.94624 0.0
C198 C 0.60673 0.06818 0.96271 0.0
H199 H 0.5105 0.09428 0.96785 0.0
H200 H 0.5401 0.08598 0.95369 0.0
H201 H 0.51325 0.05921 0.96131 0.0
H202 H 0.54612 0.02545 0.96048 0.0
H203 H 0.56952 0.00673 0.93164 0.0
H204 H 0.48919 0.72548 0.42927 0.0
H205 H 0.44555 0.69939 0.43966 0.0
H206 H 0.4351 0.66536 0.37845 0.0
H207 H 0.47835 0.69174 0.36781 0.0
H208 H 0.38219 0.66723 0.40863 0.0
H209 H 0.47213 0.61774 0.43613 0.0
H210 H 0.47218 0.65381 0.44092 0.0
H211 H 0.47506 0.64181 0.41494 0.0
C212 C 0.47669 0.71397 0.41762 0.0
C213 C 0.48767 0.70992 0.39794 0.0
C214 C 0.45173 0.69896 0.42361 0.0
C215 C 0.43761 0.67986 0.40997 0.0
C216 C 0.44583 0.67987 0.38923 0.0
H217 H 0.37891 0.51208 0.43933 0.0
H218 H 0.39526 0.55484 0.4213 0.0
C219 C 0.47064 0.69514 0.38315 0.0
C220 C 0.42085 0.6551 0.41844 0.0
H221 H 0.42821 0.59485 0.44294 0.0
C222 C 0.39211 0.65138 0.41619 0.0
C223 C 0.43404 0.63432 0.42796 0.0
C224 C 0.46503 0.63684 0.4301 0.0
C225 C 0.37614 0.62728 0.42346 0.0
C226 C 0.38939 0.6067 0.4332 0.0
C227 C 0.41812 0.61058 0.43536 0.0
C228 C 0.37438 0.5807 0.44136 0.0
C229 C 0.34539 0.62374 0.42031 0.0
C230 C 0.35628 0.58091 0.45816 0.0
C231 C 0.34656 0.55637 0.46838 0.0
C232 C 0.35519 0.53131 0.46217 0.0
C233 C 0.37208 0.53104 0.44464 0.0
C234 C 0.38144 0.55546 0.4343 0.0
H235 H 0.33916 0.63819 0.4085 0.0
H236 H 0.3378 0.60233 0.41555 0.0
H237 H 0.33521 0.62784 0.43509 0.0
H238 H 0.35094 0.60019 0.46411 0.0
H239 H 0.33366 0.5573 0.48188 0.0
H240 H 0.81471 0.49736 0.81653 0.0
H241 H 0.82914 0.46 0.83769 0.0
H242 H 0.90483 0.46455 0.80308 0.0
H243 H 0.89048 0.50159 0.78205 0.0
H244 H 0.88421 0.40985 0.81704 0.0
H245 H 0.89095 0.4892 0.87904 0.0
H246 H 0.85777 0.48016 0.86726 0.0
H247 H 0.88568 0.49747 0.85232 0.0
C248 C 0.83375 0.48937 0.81283 0.0
C249 C 0.85144 0.50214 0.79763 0.0
C250 C 0.84215 0.4683 0.82507 0.0
C251 C 0.8683 0.45986 0.8222 0.0
C252 C 0.88461 0.47071 0.8056 0.0
H253 H 0.99299 0.4175 0.90306 0.0
H254 H 0.96312 0.43627 0.87803 0.0
C255 C 0.87634 0.49178 0.79352 0.0
C256 C 0.88076 0.44326 0.83803 0.0
H257 H 0.90875 0.44824 0.88644 0.0
C258 C 0.88917 0.41795 0.83236 0.0
C259 C 0.88771 0.45418 0.85787 0.0
C260 C 0.8803 0.48182 0.86456 0.0
C261 C 0.90478 0.40356 0.84586 0.0
C262 C 0.91207 0.41476 0.86554 0.0
C263 C 0.90307 0.43969 0.87137 0.0
C264 C 0.93055 0.40207 0.87986 0.0
C265 C 0.91442 0.37713 0.83869 0.0
C266 C 0.92223 0.3765 0.88919 0.0
C267 C 0.93929 0.36564 0.9036 0.0
C268 C 0.96502 0.38021 0.909 0.0
C269 C 0.97339 0.40564 0.89933 0.0
C270 C 0.95631 0.41646 0.885 0.0
H271 H 0.91096 0.37363 0.82189 0.0
H272 H 0.93668 0.37727 0.84204 0.0
H273 H 0.90298 0.35958 0.84718 0.0
H274 H 0.90227 0.36521 0.88567 0.0
H275 H 0.93209 0.34605 0.91075 0.0
H276 H 0.48917 0.80059 0.03405 0.0
H277 H 0.47844 0.83017 0.00536 0.0
H278 H 0.42693 0.8714 0.04574 0.0
H279 H 0.43789 0.84235 0.07442 0.0
H280 H 0.43003 0.8372 0.98707 0.0
H281 H 0.4761 0.93586 0.02134 0.0
H282 H 0.48215 0.90297 0.03169 0.0
H283 H 0.45115 0.91727 0.03813 0.0
C284 C 0.47558 0.81599 0.03679 0.0
C285 C 0.46463 0.81936 0.05657 0.0
C286 C 0.4695 0.8329 0.0204 0.0
C287 C 0.45237 0.85346 0.02348 0.0
C288 C 0.44085 0.85628 0.04309 0.0
H289 H 0.35982 0.93419 0.9337 0.0
H290 H 0.3768 0.90353 0.95899 0.0
C291 C 0.44703 0.83954 0.05947 0.0
C292 C 0.44592 0.87157 0.00617 0.0
H293 H 0.44561 0.93896 0.99276 0.0
C294 C 0.43367 0.85946 0.98823 0.0
C295 C 0.45116 0.90062 0.00746 0.0
C296 C 0.46614 0.91495 0.0256 0.0
C297 C 0.42561 0.87557 0.97189 0.0
C298 C 0.42924 0.90462 0.97376 0.0
C299 C 0.44242 0.91671 0.99139 0.0
C300 C 0.4191 0.92287 0.95786 0.0
C301 C 0.41353 0.86124 0.95273 0.0
C302 C 0.43699 0.94456 0.94916 0.0
C303 C 0.42722 0.96249 0.93489 0.0
C304 C 0.39932 0.95911 0.929 0.0
C305 C 0.38148 0.93729 0.93769 0.0
C306 C 0.39122 0.91955 0.95209 0.0
H307 H 0.42049 0.84067 0.95087 0.0
H308 H 0.39075 0.85811 0.95403 0.0
H309 H 0.41928 0.87359 0.93865 0.0
H310 H 0.45855 0.94766 0.95344 0.0
H311 H 0.44156 0.97903 0.92853 0.0
H312 H 0.68467 0.46032 0.4814 0.0
H313 H 0.66845 0.416 0.46518 0.0
H314 H 0.62957 0.45783 0.41699 0.0
H315 H 0.64516 0.50211 0.43323 0.0
H316 H 0.60229 0.41112 0.45721 0.0
H317 H 0.66892 0.38594 0.39221 0.0
H318 H 0.68263 0.40451 0.41487 0.0
H319 H 0.66374 0.42137 0.3961 0.0
C320 C 0.67349 0.46016 0.46696 0.0
C321 C 0.66593 0.48469 0.4587 0.0
C322 C 0.66432 0.43482 0.4577 0.0
C323 C 0.64808 0.43375 0.43982 0.0
C324 C 0.64245 0.45832 0.43062 0.0
H325 H 0.52983 0.34677 0.36719 0.0
H326 H 0.57508 0.36663 0.3792 0.0
C327 C 0.65121 0.48358 0.44001 0.0
C328 C 0.63198 0.40762 0.43331 0.0
H329 H 0.62437 0.36023 0.39447 0.0
C330 C 0.60731 0.39947 0.44379 0.0
C331 C 0.63861 0.39303 0.41563 0.0
C332 C 0.66497 0.40144 0.40398 0.0
C333 C 0.58804 0.37817 0.43633 0.0
C334 C 0.59428 0.36361 0.41832 0.0
C335 C 0.61975 0.37099 0.40841 0.0
C336 C 0.5728 0.34403 0.40802 0.0
C337 C 0.56029 0.37328 0.44689 0.0
C338 C 0.5577 0.32252 0.41915 0.0
C339 C 0.53129 0.3117 0.41257 0.0
C340 C 0.52034 0.32142 0.39434 0.0
C341 C 0.53768 0.33891 0.38134 0.0
C342 C 0.56364 0.35044 0.38827 0.0
H343 H 0.55703 0.39022 0.45765 0.0
H344 H 0.54333 0.37131 0.43539 0.0
H345 H 0.55885 0.354 0.45603 0.0
H346 H 0.56491 0.3164 0.43405 0.0
H347 H 0.51843 0.29803 0.42278 0.0
H348 H 0.10044 0.44639 0.8198 0.0
H349 H 0.09378 0.48217 0.84486 0.0
H350 H 0.14207 0.54263 0.80697 0.0
H351 H 0.14912 0.50663 0.78174 0.0
H352 H 0.13408 0.52602 0.86639 0.0
H353 H 0.05942 0.56343 0.8114 0.0
H354 H 0.06931 0.52929 0.80945 0.0
H355 H 0.09316 0.55854 0.80217 0.0
C356 C 0.11025 0.46717 0.81704 0.0
C357 C 0.12523 0.47376 0.7988 0.0
C358 C 0.10643 0.48757 0.83138 0.0
C359 C 0.1172 0.51502 0.82765 0.0
C360 C 0.13354 0.52152 0.81006 0.0
H361 H 0.08199 0.64515 0.91451 0.0
H362 H 0.10598 0.62011 0.88887 0.0
C363 C 0.13771 0.50095 0.79576 0.0
C364 C 0.10878 0.53674 0.84126 0.0
H365 H 0.06137 0.58194 0.84488 0.0
C366 C 0.11863 0.53872 0.86162 0.0
C367 C 0.08832 0.55292 0.83498 0.0
C368 C 0.07672 0.55105 0.81336 0.0
C369 C 0.10796 0.55598 0.87606 0.0
C370 C 0.08689 0.57146 0.86995 0.0
C371 C 0.07763 0.5701 0.84944 0.0
C372 C 0.07246 0.5872 0.88509 0.0
C373 C 0.11827 0.5566 0.89803 0.0
C374 C 0.0456 0.5771 0.89123 0.0
C375 C 0.03188 0.59121 0.90591 0.0
C376 C 0.04467 0.61591 0.91462 0.0
C377 C 0.07149 0.62622 0.90813 0.0
C378 C 0.08529 0.61193 0.89354 0.0
H379 H 0.13308 0.54159 0.90071 0.0
H380 H 0.12865 0.57752 0.90169 0.0
H381 H 0.10068 0.55202 0.90886 0.0
H382 H 0.03536 0.55805 0.88485 0.0
H383 H 0.01125 0.58268 0.91044 0.0
H384 H 0.40006 0.13619 0.07826 0.0
H385 H 0.37078 0.13545 0.04779 0.0
H386 H 0.31142 0.07449 0.0767 0.0
H387 H 0.34152 0.07416 0.10676 0.0
H388 H 0.33027 0.05467 0.04407 0.0
H389 H 0.30285 0.15591 0.02184 0.0
H390 H 0.33889 0.15921 0.0276 0.0
H391 H 0.3141 0.14896 0.04767 0.0
C392 C 0.3802 0.12356 0.07848 0.0
C393 C 0.37317 0.10495 0.09467 0.0
C394 C 0.36328 0.12328 0.06106 0.0
C395 C 0.33878 0.10488 0.05986 0.0
C396 C 0.33022 0.0888 0.07721 0.0
H397 H 0.29231 0.02848 0.94017 0.0
H398 H 0.28126 0.04667 0.97397 0.0
C399 C 0.34743 0.08859 0.09438 0.0
C400 C 0.32636 0.09755 0.03935 0.0
H401 H 0.31159 0.12519 0.9929 0.0
C402 C 0.3252 0.06998 0.0331 0.0
C403 C 0.31981 0.11743 0.02495 0.0
C404 C 0.31872 0.14696 0.031 0.0
C405 C 0.32035 0.06218 0.01251 0.0
C406 C 0.31602 0.08248 0.99774 0.0
C407 C 0.31497 0.10968 0.00424 0.0
C408 C 0.31776 0.07663 0.97539 0.0
C409 C 0.32246 0.03273 0.00647 0.0
C410 C 0.34086 0.08878 0.96444 0.0
C411 C 0.34712 0.07863 0.94515 0.0
C412 C 0.33044 0.05602 0.93646 0.0
C413 C 0.30583 0.04564 0.94656 0.0
C414 C 0.29947 0.05598 0.96588 0.0
H415 H 0.32971 0.0206 0.0194 0.0
H416 H 0.30192 0.02257 0.00161 0.0
H417 H 0.33687 0.03202 0.9933 0.0
H418 H 0.35519 0.1048 0.97146 0.0
H419 H 0.36599 0.0875 0.93768 0.0
H420 H 0.38561 0.25383 0.41869 0.0
H421 H 0.33916 0.24776 0.43308 0.0
H422 H 0.31273 0.29693 0.38324 0.0
H423 H 0.35738 0.29918 0.36767 0.0
H424 H 0.32947 0.28701 0.44998 0.0
H425 H 0.23982 0.27324 0.40086 0.0
H426 H 0.27069 0.2597 0.39276 0.0
H427 H 0.26391 0.29368 0.38473 0.0
C428 C 0.36914 0.26126 0.41001 0.0
C429 C 0.37515 0.27749 0.39233 0.0
C430 C 0.34255 0.25822 0.41839 0.0
C431 C 0.32227 0.27302 0.41 0.0
C432 C 0.32729 0.28505 0.39037 0.0
H433 H 0.30638 0.41629 0.43816 0.0
H434 H 0.29442 0.37077 0.4231 0.0
C435 C 0.35333 0.28656 0.38136 0.0
C436 C 0.30159 0.28379 0.42389 0.0
H437 H 0.24758 0.32119 0.41946 0.0
C438 C 0.31075 0.29314 0.44358 0.0
C439 C 0.27645 0.2916 0.41645 0.0
C440 C 0.26214 0.27861 0.39762 0.0
C441 C 0.29863 0.31353 0.45399 0.0
C442 C 0.27685 0.32512 0.44445 0.0
C443 C 0.26489 0.31291 0.42646 0.0
C444 C 0.27222 0.3535 0.44993 0.0
C445 C 0.31162 0.32502 0.47386 0.0
C446 C 0.26165 0.35952 0.46934 0.0
C447 C 0.26828 0.38582 0.47792 0.0
C448 C 0.28566 0.40607 0.46716 0.0
C449 C 0.29291 0.40101 0.4467 0.0
C450 C 0.28599 0.37497 0.43807 0.0
H451 H 0.32842 0.31353 0.47925 0.0
H452 H 0.32026 0.34692 0.47167 0.0
H453 H 0.29579 0.32409 0.48618 0.0
H454 H 0.25102 0.34321 0.47874 0.0
H455 H 0.26269 0.38919 0.49381 0.0
H456 H 0.18461 0.36989 0.78869 0.0
H457 H 0.18904 0.33973 0.81834 0.0
H458 H 0.10923 0.29524 0.80441 0.0
H459 H 0.10536 0.32434 0.77471 0.0
H460 H 0.15575 0.34708 0.84704 0.0
H461 H 0.13939 0.23614 0.83431 0.0
H462 H 0.151 0.25971 0.81371 0.0
H463 H 0.11465 0.25014 0.81853 0.0
C464 C 0.16877 0.3527 0.79136 0.0
C465 C 0.1443 0.34988 0.7798 0.0
C466 C 0.17129 0.33543 0.80832 0.0
C467 C 0.14938 0.31524 0.81386 0.0
C468 C 0.12671 0.31019 0.8005 0.0
H469 H 0.03061 0.29162 0.897 0.0
H470 H 0.06445 0.28241 0.87088 0.0
C471 C 0.12427 0.32725 0.78359 0.0
C472 C 0.14582 0.30571 0.83561 0.0
H473 H 0.11088 0.253 0.86326 0.0
C474 C 0.14705 0.3262 0.85083 0.0
C475 C 0.1346 0.27848 0.84077 0.0
C476 C 0.13517 0.25492 0.8259 0.0
C477 C 0.13393 0.32124 0.86991 0.0
C478 C 0.11977 0.29475 0.87412 0.0
C479 C 0.12134 0.27339 0.8599 0.0
C480 C 0.09962 0.29068 0.89126 0.0
C481 C 0.13285 0.34528 0.8844 0.0
C482 C 0.10797 0.2964 0.91169 0.0
C483 C 0.08875 0.30235 0.9264 0.0
C484 C 0.06087 0.30158 0.92105 0.0
C485 C 0.052 0.29215 0.90145 0.0
C486 C 0.07134 0.28687 0.88656 0.0
H487 H 0.14173 0.36517 0.87742 0.0
H488 H 0.11127 0.34694 0.88897 0.0
H489 H 0.14477 0.34212 0.89858 0.0
H490 H 0.12962 0.29892 0.91572 0.0
H491 H 0.09595 0.30951 0.94152 0.0
H492 H 0.58924 0.8403 0.09061 0.0
H493 H 0.62884 0.86274 0.07125 0.0
H494 H 0.57549 0.91234 0.03928 0.0
H495 H 0.53635 0.89113 0.05941 0.0
H496 H 0.63891 0.8599 0.03347 0.0
H497 H 0.63786 0.96979 0.04846 0.0
H498 H 0.61764 0.94384 0.06377 0.0
H499 H 0.60405 0.95618 0.04007 0.0
C500 C 0.58616 0.85644 0.07974 0.0
C501 C 0.55978 0.86409 0.07654 0.0
C502 C 0.60879 0.86927 0.0687 0.0
C503 C 0.6054 0.88968 0.05403 0.0
C504 C 0.57901 0.89749 0.05104 0.0
H505 H 0.65219 0.91097 0.93581 0.0
H506 H 0.64641 0.89229 0.97031 0.0
C507 C 0.55652 0.88514 0.06242 0.0
C508 C 0.62841 0.90049 0.04008 0.0
H509 H 0.65346 0.95835 0.01354 0.0
C510 C 0.64265 0.88158 0.02955 0.0
C511 C 0.63444 0.92883 0.03537 0.0
C512 C 0.62288 0.95076 0.04777 0.0
C513 C 0.66024 0.88987 0.01299 0.0
C514 C 0.66274 0.91754 0.00624 0.0
C515 C 0.65108 0.93693 0.01825 0.0
C516 C 0.67249 0.92575 0.98512 0.0
C517 C 0.67505 0.8686 0.00244 0.0
C518 C 0.68961 0.95064 0.98161 0.0
C519 C 0.69252 0.96176 0.96168 0.0
C520 C 0.67818 0.94819 0.94503 0.0
C521 C 0.66336 0.92205 0.94832 0.0
C522 C 0.6603 0.91112 0.96814 0.0
H523 H 0.68194 0.85415 0.01398 0.0
H524 H 0.66065 0.85625 0.99176 0.0
H525 H 0.69325 0.87813 0.9936 0.0
H526 H 0.69921 0.96234 0.99446 0.0
H527 H 0.70408 0.98197 0.95966 0.0
H528 H 0.62544 0.77392 0.42348 0.0
H529 H 0.67197 0.77677 0.43751 0.0
H530 H 0.69566 0.73053 0.38511 0.0
H531 H 0.65095 0.73128 0.37011 0.0
H532 H 0.67981 0.7348 0.45202 0.0
H533 H 0.76942 0.75151 0.40261 0.0
H534 H 0.73879 0.7664 0.39577 0.0
H535 H 0.74454 0.7329 0.38604 0.0
C536 C 0.64138 0.76648 0.41423 0.0
C537 C 0.63449 0.75183 0.39595 0.0
C538 C 0.668 0.76769 0.42238 0.0
C539 C 0.68744 0.75274 0.41301 0.0
C540 C 0.68172 0.74243 0.39296 0.0
H541 H 0.70538 0.60596 0.43529 0.0
H542 H 0.71606 0.65255 0.42184 0.0
C543 C 0.65566 0.7427 0.38427 0.0
C544 C 0.70781 0.74013 0.42605 0.0
H545 H 0.76169 0.70295 0.41966 0.0
C546 C 0.69851 0.72912 0.44528 0.0
C547 C 0.7328 0.73269 0.41804 0.0
C548 C 0.74697 0.7469 0.39958 0.0
C549 C 0.71058 0.70792 0.45471 0.0
C550 C 0.7325 0.6972 0.44464 0.0
C551 C 0.74437 0.71068 0.42708 0.0
C552 C 0.73768 0.66869 0.44922 0.0
C553 C 0.69749 0.69485 0.47406 0.0
C554 C 0.74836 0.6618 0.4684 0.0
C555 C 0.74242 0.63492 0.47608 0.0
C556 C 0.72562 0.61494 0.46466 0.0
C557 C 0.71833 0.62105 0.44438 0.0
C558 C 0.72453 0.64769 0.43665 0.0
H559 H 0.68033 0.70557 0.47981 0.0
H560 H 0.68934 0.67301 0.47105 0.0
H561 H 0.71317 0.69528 0.48647 0.0
H562 H 0.75855 0.67775 0.47833 0.0
H563 H 0.7481 0.63074 0.49182 0.0
H564 H 0.91792 0.67141 0.93284 0.0
H565 H 0.88706 0.68255 0.90589 0.0
H566 H 0.95197 0.73968 0.8792 0.0
H567 H 0.98381 0.72758 0.90612 0.0
H568 H 0.86647 0.72645 0.8896 0.0
H569 H 0.93691 0.6851 0.83302 0.0
H570 H 0.94281 0.68269 0.86036 0.0
H571 H 0.94938 0.7154 0.84751 0.0
C572 C 0.92574 0.68659 0.92142 0.0
C573 C 0.95357 0.698 0.92128 0.0
C574 C 0.90788 0.6932 0.90607 0.0
C575 C 0.91728 0.71151 0.8902 0.0
C576 C 0.94443 0.72498 0.89101 0.0
H577 H 0.82208 0.64906 0.78451 0.0
H578 H 0.84408 0.69034 0.80233 0.0
C579 C 0.96255 0.71819 0.90646 0.0
C580 C 0.89929 0.71257 0.87184 0.0
H581 H 0.89055 0.68131 0.82486 0.0
C582 C 0.87194 0.71753 0.87509 0.0
C583 C 0.90643 0.70138 0.85271 0.0
C584 C 0.9354 0.69571 0.84806 0.0
C585 C 0.851 0.70792 0.8611 0.0
C586 C 0.8577 0.69335 0.84342 0.0
C587 C 0.88548 0.69225 0.83861 0.0
C588 C 0.83707 0.67327 0.83297 0.0
C589 C 0.82161 0.71125 0.86624 0.0
C590 C 0.82502 0.6504 0.84432 0.0
C591 C 0.81295 0.62678 0.8342 0.0
C592 C 0.81228 0.62581 0.81259 0.0
C593 C 0.82188 0.64957 0.80123 0.0
C594 C 0.83449 0.67311 0.81137 0.0
H595 H 0.82053 0.7305 0.87509 0.0
H596 H 0.80888 0.71153 0.85207 0.0
H597 H 0.81271 0.69373 0.87604 0.0
H598 H 0.82735 0.64976 0.86094 0.0
H599 H 0.80607 0.60854 0.8432 0.0
H600 H 0.54988 0.84126 0.15672 0.0
H601 H 0.55387 0.88558 0.17488 0.0
H602 H 0.46687 0.8882 0.16629 0.0
H603 H 0.46286 0.84436 0.14816 0.0
H604 H 0.5411 0.93091 0.15286 0.0
H605 H 0.4795 0.92018 0.22427 0.0
H606 H 0.49301 0.8914 0.21226 0.0
H607 H 0.46122 0.9022 0.20333 0.0
C608 C 0.53149 0.8509 0.15938 0.0
C609 C 0.50609 0.83962 0.15091 0.0
C610 C 0.5338 0.87616 0.16974 0.0
C611 C 0.51062 0.89001 0.17215 0.0
C612 C 0.48491 0.87762 0.16504 0.0
H613 H 0.43685 0.02537 0.16124 0.0
H614 H 0.45436 0.98283 0.17067 0.0
C615 C 0.48268 0.85268 0.15448 0.0
C616 C 0.51355 0.91935 0.17817 0.0
H617 H 0.47978 0.96393 0.20566 0.0
C618 C 0.52854 0.93835 0.1649 0.0
C619 C 0.49727 0.9289 0.19393 0.0
C620 C 0.48208 0.90954 0.20939 0.0
C621 C 0.52501 0.96629 0.16533 0.0
C622 C 0.50644 0.9754 0.17976 0.0
C623 C 0.49382 0.95687 0.1945 0.0
C624 C 0.49579 0.00211 0.17709 0.0
C625 C 0.53899 0.9852 0.14899 0.0
C626 C 0.51309 0.02725 0.17812 0.0
C627 C 0.50316 0.05171 0.17238 0.0
C628 C 0.4758 0.0513 0.16563 0.0
C629 C 0.45818 0.02632 0.16589 0.0
C630 C 0.4681 0.00199 0.17151 0.0
H631 H 0.55018 0.974 0.13749 0.0
H632 H 0.52363 0.99595 0.1407 0.0
H633 H 0.55406 0.00101 0.15642 0.0
H634 H 0.53441 0.02782 0.18273 0.0
H635 H 0.51713 0.07074 0.17256 0.0
H636 H 0.6274 0.52242 0.56218 0.0
H637 H 0.57758 0.51416 0.56897 0.0
H638 H 0.56171 0.51953 0.50362 0.0
H639 H 0.611 0.52853 0.49703 0.0
H640 H 0.53081 0.55007 0.52464 0.0
H641 H 0.52317 0.44649 0.56069 0.0
H642 H 0.54617 0.47245 0.57363 0.0
H643 H 0.55398 0.46212 0.54788 0.0
C644 C 0.61314 0.52155 0.54934 0.0
C645 C 0.6229 0.52651 0.52913 0.0
C646 C 0.58475 0.51673 0.55319 0.0
C647 C 0.56585 0.5161 0.53678 0.0
C648 C 0.57582 0.52019 0.51655 0.0
H649 H 0.39918 0.44836 0.52146 0.0
H650 H 0.4487 0.45859 0.52616 0.0
C651 C 0.60402 0.52546 0.51278 0.0
C652 C 0.53562 0.51225 0.54036 0.0
H653 H 0.4822 0.46694 0.55851 0.0
C654 C 0.52018 0.53195 0.53215 0.0
C655 C 0.52178 0.48857 0.55011 0.0
C656 C 0.53705 0.46606 0.55843 0.0
C657 C 0.4913 0.52814 0.53263 0.0
C658 C 0.47742 0.50443 0.54233 0.0
C659 C 0.49288 0.48521 0.55124 0.0
C660 C 0.44699 0.49768 0.54134 0.0
C661 C 0.47602 0.5488 0.52168 0.0
C662 C 0.42934 0.5159 0.54879 0.0
C663 C 0.40085 0.51037 0.54567 0.0
C664 C 0.38957 0.48634 0.53529 0.0
C665 C 0.40719 0.46741 0.52901 0.0
C666 C 0.43557 0.47309 0.53189 0.0
H667 H 0.48962 0.5621 0.51099 0.0
H668 H 0.45841 0.53832 0.51268 0.0
H669 H 0.46786 0.56232 0.53326 0.0
H670 H 0.43763 0.53464 0.55665 0.0
H671 H 0.38778 0.52517 0.55096 0.0
H672 H 0.98427 0.62149 0.00534 0.0
H673 H 0.97715 0.57275 0.01442 0.0
H674 H 0.06245 0.5667 0.00103 0.0
H675 H 0.06978 0.61573 0.99205 0.0
H676 H 0.98606 0.53605 0.98267 0.0
H677 H 0.04634 0.51697 0.05265 0.0
H678 H 0.03626 0.5503 0.04665 0.0
H679 H 0.06478 0.53852 0.03342 0.0
C680 C 0.00174 0.60997 0.00496 0.0
C681 C 0.02752 0.62226 0.99782 0.0
C682 C 0.99763 0.58216 0.01018 0.0
C683 C 0.01925 0.56615 0.00842 0.0
C684 C 0.0456 0.57882 0.00283 0.0
H685 H 0.03885 0.39842 0.99008 0.0
H686 H 0.04323 0.447 0.99919 0.0
C687 C 0.04977 0.60681 0.99767 0.0
C688 C 0.01305 0.53581 0.00889 0.0
H689 H 0.02949 0.47772 0.03233 0.0
C690 C 0.9952 0.52326 0.99373 0.0
C691 C 0.02526 0.51931 0.0232 0.0
C692 C 0.04407 0.53189 0.04003 0.0
C693 C 0.98996 0.49459 0.99197 0.0
C694 C 0.00235 0.47797 0.00616 0.0
C695 C 0.01979 0.49052 0.02162 0.0
C696 C 0.99955 0.44768 0.00376 0.0
C697 C 0.97236 0.48244 0.97425 0.0
C698 C 0.9736 0.43164 0.00407 0.0
C699 C 0.97096 0.40382 0.99851 0.0
C700 C 0.99429 0.39168 0.99272 0.0
C701 C 0.0204 0.40734 0.99396 0.0
C702 C 0.02299 0.43507 0.99936 0.0
H703 H 0.96954 0.49804 0.96224 0.0
H704 H 0.98162 0.46536 0.96687 0.0
H705 H 0.95169 0.47409 0.98016 0.0
H706 H 0.9553 0.44088 0.00787 0.0
H707 H 0.9506 0.3922 0.99793 0.0
H708 H 0.89144 0.57109 0.71207 0.0
H709 H 0.9363 0.5557 0.70621 0.0
H710 H 0.95223 0.55914 0.77176 0.0
H711 H 0.90859 0.57714 0.7774 0.0
H712 H 0.99845 0.56957 0.75235 0.0
H713 H 0.94092 0.47694 0.7167 0.0
H714 H 0.93616 0.50727 0.70243 0.0
H715 H 0.92384 0.50324 0.72866 0.0
C716 C 0.90487 0.56923 0.72516 0.0
C717 C 0.89623 0.57448 0.74526 0.0
C718 C 0.93033 0.56014 0.72183 0.0
C719 C 0.94698 0.55491 0.73864 0.0
C720 C 0.93948 0.56249 0.75857 0.0
H721 H 0.05528 0.4297 0.73504 0.0
H722 H 0.01742 0.45681 0.73891 0.0
C723 C 0.91441 0.57264 0.76181 0.0
C724 C 0.97091 0.53962 0.73561 0.0
H725 H 0.98953 0.48131 0.71397 0.0
C726 C 0.99652 0.55022 0.74402 0.0
C727 C 0.96819 0.5139 0.72529 0.0
C728 C 0.94073 0.49953 0.71799 0.0
C729 C 0.01952 0.53595 0.74222 0.0
C730 C 0.01713 0.51113 0.73076 0.0
C731 C 0.99151 0.50056 0.72244 0.0
C732 C 0.04043 0.49487 0.72808 0.0
C733 C 0.0457 0.54713 0.75333 0.0
C734 C 0.06582 0.50692 0.72013 0.0
C735 C 0.08788 0.49156 0.71856 0.0
C736 C 0.08474 0.4637 0.72447 0.0
C737 C 0.05876 0.45127 0.73104 0.0
C738 C 0.03695 0.46675 0.73308 0.0
H739 H 0.04155 0.56081 0.76632 0.0
H740 H 0.05645 0.53027 0.75955 0.0
H741 H 0.05971 0.55947 0.74239 0.0
H742 H 0.06871 0.52827 0.71536 0.0
H743 H 0.10754 0.5017 0.71315 0.0
H744 H 0.40294 0.95333 0.84943 0.0
H745 H 0.45185 0.95899 0.83973 0.0
H746 H 0.45076 0.04642 0.83317 0.0
H747 H 0.4023 0.041 0.84333 0.0
H748 H 0.48759 0.98643 0.80655 0.0
H749 H 0.50103 0.0363 0.8837 0.0
H750 H 0.46913 0.01655 0.87579 0.0
H751 H 0.47818 0.05109 0.8665 0.0
C752 C 0.41295 0.97359 0.84525 0.0
C753 C 0.39909 0.9968 0.84738 0.0
C754 C 0.44084 0.9768 0.83973 0.0
C755 C 0.45491 0.00319 0.8361 0.0
C756 C 0.44029 0.02596 0.83618 0.0
H757 H 0.62847 0.06029 0.85185 0.0
H758 H 0.58149 0.05923 0.8387 0.0
C759 C 0.41265 0.02283 0.84197 0.0
C760 C 0.48533 0.00753 0.83553 0.0
H761 H 0.54086 0.03462 0.86396 0.0
C762 C 0.49933 0.99711 0.81899 0.0
C763 C 0.50048 0.02135 0.85188 0.0
C764 C 0.48653 0.03178 0.87058 0.0
C765 C 0.52829 0.00022 0.8184 0.0
C766 C 0.54338 0.01383 0.83487 0.0
C767 C 0.52926 0.02459 0.85118 0.0
C768 C 0.57359 0.0148 0.83697 0.0
C769 C 0.54247 0.98891 0.80024 0.0
C770 C 0.58507 0.99024 0.83952 0.0
C771 C 0.61187 0.99081 0.847 0.0
C772 C 0.6275 0.01593 0.85227 0.0
C773 C 0.61689 0.04062 0.84797 0.0
C774 C 0.59005 0.04004 0.84047 0.0
H775 H 0.52911 0.98734 0.78631 0.0
H776 H 0.56213 0.00194 0.79655 0.0
H777 H 0.54715 0.96792 0.80406 0.0
H778 H 0.57266 0.97053 0.83727 0.0
H779 H 0.61968 0.97147 0.84989 0.0
H780 H 0.49831 0.42154 0.36486 0.0
H781 H 0.51492 0.4652 0.38103 0.0
H782 H 0.45914 0.44578 0.43208 0.0
H783 H 0.44187 0.40183 0.41562 0.0
H784 H 0.45363 0.49465 0.41649 0.0
H785 H 0.56417 0.49181 0.42813 0.0
H786 H 0.55575 0.48024 0.40243 0.0
H787 H 0.54044 0.46083 0.42415 0.0
C788 C 0.48984 0.42627 0.3797 0.0
C789 C 0.46863 0.40834 0.38889 0.0
C790 C 0.49967 0.45113 0.3891 0.0
C791 C 0.48872 0.45856 0.40801 0.0
C792 C 0.46814 0.44028 0.41763 0.0
H793 H 0.56399 0.62917 0.41724 0.0
H794 H 0.54618 0.58496 0.43301 0.0
C795 C 0.45826 0.41525 0.40819 0.0
C796 C 0.49606 0.48703 0.41565 0.0
H797 H 0.55124 0.53695 0.41666 0.0
C798 C 0.47499 0.50382 0.41725 0.0
C799 C 0.5238 0.49904 0.41745 0.0
C800 C 0.54724 0.48187 0.4182 0.0
C801 C 0.48107 0.53254 0.41773 0.0
C802 C 0.5088 0.54464 0.41604 0.0
C803 C 0.52988 0.52779 0.41735 0.0
C804 C 0.51617 0.57344 0.409 0.0
C805 C 0.45758 0.54956 0.41889 0.0
C806 C 0.50499 0.58181 0.39043 0.0
C807 C 0.51512 0.6069 0.3814 0.0
C808 C 0.53684 0.62408 0.39066 0.0
C809 C 0.54725 0.61633 0.40973 0.0
C810 C 0.53708 0.59111 0.41878 0.0
H811 H 0.44136 0.53977 0.42949 0.0
H812 H 0.4645 0.57075 0.42435 0.0
H813 H 0.44814 0.55061 0.40337 0.0
H814 H 0.48937 0.56829 0.38227 0.0
H815 H 0.50655 0.61233 0.36677 0.0
H816 H 0.50707 0.34504 0.29025 0.0
H817 H 0.51191 0.32671 0.25543 0.0
H818 H 0.44178 0.26561 0.26616 0.0
H819 H 0.43686 0.28357 0.30094 0.0
H820 H 0.48917 0.24523 0.24934 0.0
H821 H 0.45973 0.33479 0.20549 0.0
H822 H 0.48636 0.34158 0.22465 0.0
H823 H 0.4518 0.32952 0.23255 0.0
C824 C 0.49268 0.32768 0.28521 0.0
C825 C 0.47152 0.31578 0.29836 0.0
C826 C 0.4954 0.31738 0.26527 0.0
C827 C 0.47699 0.29507 0.25818 0.0
C828 C 0.45611 0.28295 0.27135 0.0
H829 H 0.41675 0.21494 0.15135 0.0
H830 H 0.42972 0.24924 0.178 0.0
C831 C 0.45334 0.29323 0.29122 0.0
C832 C 0.47954 0.28369 0.23722 0.0
H833 H 0.46863 0.29621 0.18618 0.0
C834 C 0.48511 0.25646 0.23547 0.0
C835 C 0.47413 0.2985 0.21924 0.0
C836 C 0.46749 0.32767 0.22042 0.0
C837 C 0.4843 0.24314 0.2163 0.0
C838 C 0.47823 0.25769 0.19831 0.0
C839 C 0.47363 0.28529 0.19996 0.0
C840 C 0.47271 0.24318 0.1784 0.0
C841 C 0.48829 0.21309 0.21567 0.0
C842 C 0.493 0.2299 0.16873 0.0
C843 C 0.48561 0.21005 0.15352 0.0
C844 C 0.45782 0.20333 0.14781 0.0
C845 C 0.43825 0.21927 0.15565 0.0
C846 C 0.44564 0.23898 0.17088 0.0
H847 H 0.4882 0.20384 0.23134 0.0
H848 H 0.47184 0.20115 0.20637 0.0
H849 H 0.50838 0.21094 0.20835 0.0
H850 H 0.51414 0.23334 0.17404 0.0
H851 H 0.50128 0.19844 0.14759 0.0
H852 H 0.24446 0.3937 0.70901 0.0
H853 H 0.2706 0.40694 0.67766 0.0
H854 H 0.25139 0.48999 0.68409 0.0
H855 H 0.22601 0.47715 0.71564 0.0
H856 H 0.24211 0.42124 0.64584 0.0
H857 H 0.32663 0.50508 0.65918 0.0
H858 H 0.31122 0.48372 0.67993 0.0
H859 H 0.29552 0.51292 0.67105 0.0
C860 C 0.24678 0.41506 0.70423 0.0
C861 C 0.23271 0.43423 0.71462 0.0
C862 C 0.26173 0.4226 0.68627 0.0
C863 C 0.26291 0.44944 0.67841 0.0
C864 C 0.25126 0.46928 0.68995 0.0
H865 H 0.25305 0.53223 0.56615 0.0
H866 H 0.25961 0.51732 0.6016 0.0
C867 C 0.23653 0.46182 0.70802 0.0
C868 C 0.27092 0.45523 0.65655 0.0
H869 H 0.30554 0.50371 0.62494 0.0
C870 C 0.25658 0.43884 0.64127 0.0
C871 C 0.28963 0.4783 0.65054 0.0
C872 C 0.30681 0.49581 0.66609 0.0
C873 C 0.25896 0.44589 0.62031 0.0
C874 C 0.27656 0.46978 0.61439 0.0
C875 C 0.29202 0.48543 0.62953 0.0
C876 C 0.27662 0.48035 0.59293 0.0
C877 C 0.24118 0.42871 0.60484 0.0
C878 C 0.28462 0.46483 0.57629 0.0
C879 C 0.28059 0.47317 0.55595 0.0
C880 C 0.26887 0.49737 0.55198 0.0
C881 C 0.26207 0.51345 0.56871 0.0
C882 C 0.26599 0.50507 0.58898 0.0
H883 H 0.22516 0.41393 0.61243 0.0
H884 H 0.23082 0.44204 0.59432 0.0
H885 H 0.25429 0.41677 0.59534 0.0
H886 H 0.29301 0.44575 0.57901 0.0
H887 H 0.28535 0.45993 0.54348 0.0
H888 H 0.70634 0.12942 0.91452 0.0
H889 H 0.74343 0.16622 0.92248 0.0
H890 H 0.79964 0.10625 0.93099 0.0
H891 H 0.76256 0.06922 0.92342 0.0
H892 H 0.80523 0.14713 0.96085 0.0
H893 H 0.80538 0.19226 0.88221 0.0
H894 H 0.77249 0.18929 0.89484 0.0
H895 H 0.78738 0.15874 0.88829 0.0
C896 C 0.72654 0.12401 0.91821 0.0
C897 C 0.73155 0.0964 0.91815 0.0
C898 C 0.74775 0.1451 0.92263 0.0
C899 C 0.77441 0.13898 0.92685 0.0
C900 C 0.77925 0.1114 0.92759 0.0
H901 H 0.9333 0.23621 0.94864 0.0
H902 H 0.89569 0.199 0.9429 0.0
C903 C 0.75802 0.09028 0.92327 0.0
C904 C 0.79736 0.16135 0.93023 0.0
H905 H 0.83339 0.21763 0.9073 0.0
C906 C 0.81148 0.16249 0.94913 0.0
C907 C 0.80552 0.18128 0.91484 0.0
C908 C 0.7921 0.18027 0.89383 0.0
C909 C 0.83321 0.18339 0.95323 0.0
C910 C 0.84117 0.20341 0.93792 0.0
C911 C 0.82712 0.20225 0.91901 0.0
C912 C 0.86398 0.22586 0.94125 0.0
C913 C 0.84717 0.18421 0.97403 0.0
C914 C 0.85863 0.25328 0.94173 0.0
C915 C 0.88005 0.27459 0.94497 0.0
C916 C 0.90724 0.26884 0.94761 0.0
C917 C 0.91258 0.24133 0.94674 0.0
C918 C 0.89112 0.22003 0.94358 0.0
H919 H 0.83485 0.17108 0.98555 0.0
H920 H 0.86745 0.1766 0.97242 0.0
H921 H 0.85081 0.20561 0.98 0.0
H922 H 0.83782 0.25817 0.93981 0.0
H923 H 0.87524 0.29554 0.94546 0.0
H924 H 0.58136 0.73536 0.29915 0.0
H925 H 0.58049 0.74406 0.26199 0.0
H926 H 0.49318 0.71717 0.26074 0.0
H927 H 0.49377 0.70814 0.29795 0.0
H928 H 0.55667 0.6965 0.23318 0.0
H929 H 0.50918 0.79352 0.22618 0.0
H930 H 0.52832 0.7858 0.24886 0.0
H931 H 0.49475 0.7676 0.24428 0.0
C932 C 0.56185 0.73172 0.29109 0.0
C933 C 0.53765 0.72088 0.30152 0.0
C934 C 0.56142 0.73671 0.26985 0.0
C935 C 0.53678 0.73135 0.25871 0.0
C936 C 0.51236 0.72166 0.26915 0.0
H937 H 0.50424 0.73988 0.12618 0.0
H938 H 0.49945 0.7369 0.16393 0.0
C939 C 0.51278 0.71645 0.29039 0.0
C940 C 0.53722 0.73326 0.23592 0.0
H941 H 0.52066 0.7723 0.19523 0.0
C942 C 0.54881 0.71305 0.22485 0.0
C943 C 0.52658 0.75467 0.2252 0.0
C944 C 0.51404 0.7768 0.23662 0.0
C945 C 0.55017 0.71369 0.20322 0.0
C946 C 0.54038 0.73562 0.19244 0.0
C947 C 0.52829 0.7556 0.20353 0.0
C948 C 0.54317 0.73839 0.1697 0.0
C949 C 0.56173 0.69061 0.19215 0.0
C950 C 0.56932 0.74064 0.16047 0.0
C951 C 0.57203 0.74216 0.13903 0.0
C952 C 0.54871 0.74213 0.12644 0.0
C953 C 0.52255 0.7403 0.13563 0.0
C954 C 0.51981 0.73857 0.15713 0.0
H955 H 0.5604 0.67176 0.20183 0.0
H956 H 0.5507 0.68542 0.17741 0.0
H957 H 0.58379 0.69708 0.18861 0.0
H958 H 0.58766 0.74111 0.16988 0.0
H959 H 0.59241 0.74358 0.13228 0.0
H960 H 0.72613 0.59449 0.71695 0.0
H961 H 0.70865 0.58376 0.68218 0.0
H962 H 0.7431 0.50709 0.68378 0.0
H963 H 0.76011 0.51737 0.71863 0.0
H964 H 0.74534 0.58069 0.65208 0.0
H965 H 0.67325 0.48434 0.65186 0.0
H966 H 0.6816 0.50401 0.67511 0.0
H967 H 0.7041 0.48036 0.66584 0.0
C968 C 0.72913 0.57488 0.71021 0.0
C969 C 0.74488 0.55698 0.72046 0.0
C970 C 0.71911 0.56878 0.6903 0.0
C971 C 0.72454 0.54463 0.68032 0.0
C972 C 0.73817 0.52562 0.69124 0.0
H973 H 0.76109 0.48612 0.56316 0.0
H974 H 0.74819 0.49341 0.59895 0.0
C975 C 0.74806 0.53162 0.7112 0.0
C976 C 0.72072 0.54171 0.65763 0.0
H977 H 0.69795 0.49579 0.61982 0.0
C978 C 0.73438 0.56243 0.64499 0.0
C979 C 0.70657 0.51782 0.6484 0.0
C980 C 0.69033 0.49552 0.66104 0.0
C981 C 0.73582 0.55918 0.62353 0.0
C982 C 0.72277 0.53471 0.61436 0.0
C983 C 0.70795 0.51453 0.62687 0.0
C984 C 0.72702 0.52852 0.59227 0.0
C985 C 0.75283 0.5812 0.61103 0.0
C986 C 0.71883 0.54546 0.57653 0.0
C987 C 0.7265 0.54153 0.55602 0.0
C988 C 0.74209 0.52033 0.55091 0.0
C989 C 0.74915 0.50269 0.5666 0.0
C990 C 0.74162 0.5067 0.58705 0.0
H991 H 0.76572 0.59623 0.62096 0.0
H992 H 0.76655 0.57192 0.60015 0.0
H993 H 0.73892 0.59265 0.60184 0.0
H994 H 0.70733 0.56228 0.5802 0.0
H995 H 0.72128 0.55585 0.54441 0.0
H996 H 0.10711 0.7745 0.98167 0.0
H997 H 0.14471 0.80852 0.96982 0.0
H998 H 0.134 0.77714 0.90776 0.0
H999 H 0.09607 0.74317 0.91942 0.0
H1000 H 0.19375 0.79889 0.95112 0.0
H1001 H 0.13349 0.8603 0.90035 0.0
H1002 H 0.11749 0.83613 0.91916 0.0
H1003 H 0.12917 0.82405 0.89492 0.0
C1004 C 0.11261 0.77489 0.96547 0.0
C1005 C 0.09853 0.75616 0.95147 0.0
C1006 C 0.13413 0.79434 0.95874 0.0
C1007 C 0.14191 0.79554 0.93789 0.0
C1008 C 0.12797 0.77687 0.92386 0.0
H1009 H 0.29665 0.87801 0.88923 0.0
H1010 H 0.25812 0.84419 0.89996 0.0
C1011 C 0.1064 0.75739 0.93057 0.0
C1012 C 0.16518 0.81585 0.93104 0.0
H1013 H 0.18212 0.871 0.89923 0.0
C1014 C 0.19124 0.81468 0.93979 0.0
C1015 C 0.16172 0.8366 0.91644 0.0
C1016 C 0.13393 0.83961 0.90728 0.0
C1017 C 0.21403 0.83358 0.93418 0.0
C1018 C 0.21072 0.85389 0.91919 0.0
C1019 C 0.18461 0.85524 0.91059 0.0
C1020 C 0.23401 0.87431 0.91252 0.0
C1021 C 0.24131 0.83199 0.94467 0.0
C1022 C 0.23293 0.90248 0.9156 0.0
C1023 C 0.25481 0.92187 0.90937 0.0
C1024 C 0.27816 0.91344 0.89985 0.0
C1025 C 0.27906 0.88519 0.89663 0.0
C1026 C 0.25712 0.86581 0.90284 0.0
H1027 H 0.23878 0.82002 0.95928 0.0
H1028 H 0.2547 0.82159 0.93425 0.0
H1029 H 0.25197 0.85286 0.94815 0.0
H1030 H 0.21521 0.90945 0.92298 0.0
H1031 H 0.25343 0.94347 0.91205 0.0
loop_
_geom_bond_atom_site_label_1
_geom_bond_atom_site_label_2
_geom_bond_distance
_geom_bond_site_symmetry_2
_ccdc_geom_bond_type
Mg0 O1 2.028 . S
Mg0 O7 1.986 . S
Mg0 O9 2.114 . S
Mg0 O10 2.251 . S
Mg0 O13 2.010 . S
O1 Mg0 2.028 . S
O1 C4 1.250 . S
O2 Mg3 2.028 . S
O2 C4 1.248 . S
Mg3 O2 2.028 . S
Mg3 O8 2.032 . S
Mg3 O10 2.079 . S
C4 O1 1.250 . S
C4 O2 1.248 . S
C5 O6 1.264 . S
C5 O13 1.249 . S
O6 C5 1.264 . S
O7 Mg0 1.986 . S
O7 C11 1.246 . S
O8 Mg3 2.032 . S
O8 C11 1.259 . S
O9 Mg0 2.114 . S
O9 C12 1.252 . S
O10 Mg0 2.251 . S
O10 Mg3 2.079 . S
O10 C12 1.273 . S
C11 O7 1.246 . S
C11 O8 1.259 . S
C12 O9 1.252 . S
C12 O10 1.273 . S
O13 Mg0 2.010 . S
O13 C5 1.249 . S
Mg14 O15 2.028 . S
Mg14 O21 1.986 . S
Mg14 O23 2.114 . S
Mg14 O24 2.251 . S
Mg14 O27 2.010 . S
O15 Mg14 2.028 . S
O15 C18 1.250 . S
O16 Mg17 2.028 . S
O16 C18 1.248 . S
Mg17 O16 2.028 . S
Mg17 O22 2.032 . S
Mg17 O24 2.079 . S
C18 O15 1.250 . S
C18 O16 1.248 . S
C19 O20 1.264 . S
C19 O27 1.249 . S
O20 C19 1.264 . S
O21 Mg14 1.986 . S
O21 C25 1.246 . S
O22 Mg17 2.032 . S
O22 C25 1.259 . S
O23 Mg14 2.114 . S
O23 C26 1.252 . S
O24 Mg14 2.251 . S
O24 Mg17 2.079 . S
O24 C26 1.273 . S
C25 O21 1.246 . S
C25 O22 1.259 . S
C26 O23 1.252 . S
C26 O24 1.273 . S
O27 Mg14 2.010 . S
O27 C19 1.249 . S
Mg28 O29 2.028 . S
Mg28 O35 1.986 . S
Mg28 O37 2.114 . S
Mg28 O38 2.251 . S
Mg28 O41 2.010 . S
O29 Mg28 2.028 . S
O29 C32 1.250 . S
O30 Mg31 2.028 . S
O30 C32 1.248 . S
Mg31 O30 2.028 . S
Mg31 O36 2.032 1_655 S
Mg31 O38 2.079 . S
C32 O29 1.250 . S
C32 O30 1.248 . S
C33 O34 1.264 . S
C33 O41 1.249 . S
O34 C33 1.264 . S
O35 Mg28 1.986 . S
O35 C39 1.246 1_655 S
O36 Mg31 2.032 1_455 S
O36 C39 1.259 . S
O37 Mg28 2.114 . S
O37 C40 1.252 . S
O38 Mg28 2.251 . S
O38 Mg31 2.079 . S
O38 C40 1.273 . S
C39 O35 1.246 1_455 S
C39 O36 1.259 . S
C40 O37 1.252 . S
C40 O38 1.273 . S
O41 Mg28 2.010 . S
O41 C33 1.249 . S
Mg42 O43 2.028 . S
Mg42 O49 1.986 . S
Mg42 O51 2.114 . S
Mg42 O52 2.251 . S
Mg42 O55 2.010 . S
O43 Mg42 2.028 . S
O43 C46 1.250 . S
O44 Mg45 2.028 . S
O44 C46 1.248 . S
Mg45 O44 2.028 . S
Mg45 O50 2.032 . S
Mg45 O52 2.079 . S
C46 O43 1.250 . S
C46 O44 1.248 . S
C47 O48 1.264 . S
C47 O55 1.249 . S
O48 C47 1.264 . S
O49 Mg42 1.986 . S
O49 C53 1.246 . S
O50 Mg45 2.032 . S
O50 C53 1.259 . S
O51 Mg42 2.114 . S
O51 C54 1.252 . S
O52 Mg42 2.251 . S
O52 Mg45 2.079 . S
O52 C54 1.273 . S
C53 O49 1.246 . S
C53 O50 1.259 . S
C54 O51 1.252 . S
C54 O52 1.273 . S
O55 Mg42 2.010 . S
O55 C47 1.249 . S
Mg56 O57 2.028 . S
Mg56 O63 1.986 . S
Mg56 O65 2.114 . S
Mg56 O66 2.251 . S
Mg56 O69 2.010 . S
O57 Mg56 2.028 . S
O57 C60 1.250 . S
O58 Mg59 2.028 . S
O58 C60 1.248 . S
Mg59 O58 2.028 . S
Mg59 O64 2.032 . S
Mg59 O66 2.079 . S
C60 O57 1.250 . S
C60 O58 1.248 . S
C61 O62 1.264 . S
C61 O69 1.249 . S
O62 C61 1.264 . S
O63 Mg56 1.986 . S
O63 C67 1.246 . S
O64 Mg59 2.032 . S
O64 C67 1.259 . S
O65 Mg56 2.114 . S
O65 C68 1.252 . S
O66 Mg56 2.251 . S
O66 Mg59 2.079 . S
O66 C68 1.273 . S
C67 O63 1.246 . S
C67 O64 1.259 . S
C68 O65 1.252 . S
C68 O66 1.273 . S
O69 Mg56 2.010 . S
O69 C61 1.249 . S
Mg70 O71 2.028 . S
Mg70 O77 1.986 . S
Mg70 O79 2.114 . S
Mg70 O80 2.251 . S
Mg70 O83 2.010 . S
O71 Mg70 2.028 . S
O71 C74 1.250 . S
O72 Mg73 2.028 . S
O72 C74 1.248 . S
Mg73 O72 2.028 . S
Mg73 O78 2.032 1_455 S
Mg73 O80 2.079 . S
C74 O71 1.250 . S
C74 O72 1.248 . S
C75 O76 1.264 . S
C75 O83 1.249 . S
O76 C75 1.264 . S
O77 Mg70 1.986 . S
O77 C81 1.246 1_455 S
O78 Mg73 2.032 1_655 S
O78 C81 1.259 . S
O79 Mg70 2.114 . S
O79 C82 1.252 . S
O80 Mg70 2.251 . S
O80 Mg73 2.079 . S
O80 C82 1.273 . S
C81 O77 1.246 1_655 S
C81 O78 1.259 . S
C82 O79 1.252 . S
C82 O80 1.273 . S
O83 Mg70 2.010 . S
O83 C75 1.249 . S
Mg84 O85 2.028 . S
Mg84 O91 1.986 . S
Mg84 O93 2.114 . S
Mg84 O94 2.251 . S
Mg84 O97 2.010 . S
O85 Mg84 2.028 . S
O85 C88 1.250 . S
O86 Mg87 2.028 . S
O86 C88 1.248 . S
Mg87 O86 2.028 . S
Mg87 O92 2.032 . S
Mg87 O94 2.079 . S
C88 O85 1.250 . S
C88 O86 1.248 . S
C89 O90 1.264 . S
C89 O97 1.249 . S
O90 C89 1.264 . S
O91 Mg84 1.986 . S
O91 C95 1.246 . S
O92 Mg87 2.032 . S
O92 C95 1.259 . S
O93 Mg84 2.114 . S
O93 C96 1.252 . S
O94 Mg84 2.251 . S
O94 Mg87 2.079 . S
O94 C96 1.273 . S
C95 O91 1.246 . S
C95 O92 1.259 . S
C96 O93 1.252 . S
C96 O94 1.273 . S
O97 Mg84 2.010 . S
O97 C89 1.249 . S
Mg98 O99 2.028 . S
Mg98 O105 1.986 . S
Mg98 O107 2.114 . S
Mg98 O108 2.251 . S
Mg98 O111 2.010 . S
O99 Mg98 2.028 . S
O99 C102 1.250 . S
O100 Mg101 2.028 . S
O100 C102 1.248 . S
Mg101 O100 2.028 . S
Mg101 O106 2.032 1_565 S
Mg101 O108 2.079 . S
C102 O99 1.250 . S
C102 O100 1.248 . S
C103 O104 1.264 . S
C103 O111 1.249 . S
O104 C103 1.264 . S
O105 Mg98 1.986 . S
O105 C109 1.246 1_565 S
O106 Mg101 2.032 1_545 S
O106 C109 1.259 . S
O107 Mg98 2.114 . S
O107 C110 1.252 . S
O108 Mg98 2.251 . S
O108 Mg101 2.079 . S
O108 C110 1.273 . S
C109 O105 1.246 1_545 S
C109 O106 1.259 . S
C110 O107 1.252 . S
C110 O108 1.273 . S
O111 Mg98 2.010 . S
O111 C103 1.249 . S
Mg112 O113 2.028 . S
Mg112 O119 1.986 . S
Mg112 O121 2.114 . S
Mg112 O122 2.251 . S
Mg112 O125 2.010 . S
O113 Mg112 2.028 . S
O113 C116 1.250 . S
O114 Mg115 2.028 . S
O114 C116 1.248 . S
Mg115 O114 2.028 . S
Mg115 O120 2.032 . S
Mg115 O122 2.079 . S
C116 O113 1.250 . S
C116 O114 1.248 . S
C117 O118 1.264 . S
C117 O125 1.249 . S
O118 C117 1.264 . S
O119 Mg112 1.986 . S
O119 C123 1.246 . S
O120 Mg115 2.032 . S
O120 C123 1.259 . S
O121 Mg112 2.114 . S
O121 C124 1.252 . S
O122 Mg112 2.251 . S
O122 Mg115 2.079 . S
O122 C124 1.273 . S
C123 O119 1.246 . S
C123 O120 1.259 . S
C124 O121 1.252 . S
C124 O122 1.273 . S
O125 Mg112 2.010 . S
O125 C117 1.249 . S
Mg126 O127 2.028 . S
Mg126 O133 1.986 . S
Mg126 O135 2.114 . S
Mg126 O136 2.251 . S
Mg126 O139 2.010 . S
O127 Mg126 2.028 . S
O127 C130 1.250 . S
O128 Mg129 2.028 . S
O128 C130 1.248 . S
Mg129 O128 2.028 . S
Mg129 O134 2.032 . S
Mg129 O136 2.079 . S
C130 O127 1.250 . S
C130 O128 1.248 . S
C131 O132 1.264 . S
C131 O139 1.249 . S
O132 C131 1.264 . S
O133 Mg126 1.986 . S
O133 C137 1.246 . S
O134 Mg129 2.032 . S
O134 C137 1.259 . S
O135 Mg126 2.114 . S
O135 C138 1.252 . S
O136 Mg126 2.251 . S
O136 Mg129 2.079 . S
O136 C138 1.273 . S
C137 O133 1.246 . S
C137 O134 1.259 . S
C138 O135 1.252 . S
C138 O136 1.273 . S
O139 Mg126 2.010 . S
O139 C131 1.249 . S
Mg140 O141 2.028 . S
Mg140 O147 1.986 . S
Mg140 O149 2.114 . S
Mg140 O150 2.251 . S
Mg140 O153 2.010 . S
O141 Mg140 2.028 . S
O141 C144 1.250 . S
O142 Mg143 2.028 . S
O142 C144 1.248 . S
Mg143 O142 2.028 . S
Mg143 O148 2.032 1_545 S
Mg143 O150 2.079 . S
C144 O141 1.250 . S
C144 O142 1.248 . S
C145 O146 1.264 . S
C145 O153 1.249 . S
O146 C145 1.264 . S
O147 Mg140 1.986 . S
O147 C151 1.246 1_545 S
O148 Mg143 2.032 1_565 S
O148 C151 1.259 . S
O149 Mg140 2.114 . S
O149 C152 1.252 . S
O150 Mg140 2.251 . S
O150 Mg143 2.079 . S
O150 C152 1.273 . S
C151 O147 1.246 1_565 S
C151 O148 1.259 . S
C152 O149 1.252 . S
C152 O150 1.273 . S
O153 Mg140 2.010 . S
O153 C145 1.249 . S
Mg154 O155 2.028 . S
Mg154 O161 1.986 . S
Mg154 O163 2.114 . S
Mg154 O164 2.251 . S
Mg154 O167 2.010 . S
O155 Mg154 2.028 . S
O155 C158 1.250 . S
O156 Mg157 2.028 . S
O156 C158 1.248 . S
Mg157 O156 2.028 . S
Mg157 O162 2.032 . S
Mg157 O164 2.079 . S
C158 O155 1.250 . S
C158 O156 1.248 . S
C159 O160 1.264 . S
C159 O167 1.249 . S
O160 C159 1.264 . S
O161 Mg154 1.986 . S
O161 C165 1.246 . S
O162 Mg157 2.032 . S
O162 C165 1.259 . S
O163 Mg154 2.114 . S
O163 C166 1.252 . S
O164 Mg154 2.251 . S
O164 Mg157 2.079 . S
O164 C166 1.273 . S
C165 O161 1.246 . S
C165 O162 1.259 . S
C166 O163 1.252 . S
C166 O164 1.273 . S
O167 Mg154 2.010 . S
O167 C159 1.249 . S
H168 C176 0.929 . S
H169 C178 0.930 . S
H170 C180 0.930 . S
H171 C183 0.929 . S
H172 C186 0.930 . S
H173 C188 0.960 . S
H174 C188 0.960 . S
H175 C188 0.960 . S
C176 H168 0.929 . S
C176 C177 1.377 . S
C176 C178 1.384 . S
C177 C176 1.377 . S
C177 C183 1.390 . S
C178 H169 0.930 . S
C178 C176 1.384 . S
C178 C179 1.372 . S
C179 C178 1.372 . S
C179 C180 1.400 . S
C179 C184 1.490 . S
C180 H170 0.930 . S
C180 C179 1.400 . S
C180 C183 1.386 . S
H181 C197 0.930 . S
H182 C198 0.931 . S
C183 H171 0.929 . S
C183 C177 1.390 . S
C183 C180 1.386 . S
C184 C179 1.490 . S
C184 C186 1.395 . S
C184 C187 1.403 . S
H185 C191 0.930 . S
C186 H172 0.930 . S
C186 C184 1.395 . S
C186 C189 1.403 . S
C187 C184 1.403 . S
C187 C188 1.524 . S
C187 C191 1.400 . S
C188 H173 0.960 . S
C188 H174 0.960 . S
C188 H175 0.960 . S
C188 C187 1.524 . S
C189 C186 1.403 . S
C189 C190 1.392 . S
C189 C193 1.495 1_554 S
C190 C189 1.392 . S
C190 C191 1.385 . S
C190 C192 1.478 1_554 S
C191 H185 0.930 . S
C191 C187 1.400 . S
C191 C190 1.385 . S
C192 C190 1.478 1_556 S
C192 C194 1.381 . S
C192 C198 1.383 . S
C193 C189 1.495 1_556 S
C193 H199 0.959 . S
C193 H200 0.961 . S
C193 H201 0.960 . S
C194 C192 1.381 . S
C194 C195 1.394 . S
C194 H202 0.930 . S
C195 C194 1.394 . S
C195 C196 1.383 . S
C195 H203 0.929 . S
C196 C195 1.383 . S
C196 C197 1.377 . S
C197 H181 0.930 . S
C197 C196 1.377 . S
C197 C198 1.379 . S
C198 H182 0.931 . S
C198 C192 1.383 . S
C198 C197 1.379 . S
H199 C193 0.959 . S
H200 C193 0.961 . S
H201 C193 0.960 . S
H202 C194 0.930 . S
H203 C195 0.929 . S
H204 C212 0.929 . S
H205 C214 0.930 . S
H206 C216 0.930 . S
H207 C219 0.929 . S
H208 C222 0.930 . S
H209 C224 0.960 . S
H210 C224 0.960 . S
H211 C224 0.960 . S
C212 H204 0.929 . S
C212 C213 1.377 . S
C212 C214 1.384 . S
C213 C212 1.377 . S
C213 C219 1.390 . S
C214 H205 0.930 . S
C214 C212 1.384 . S
C214 C215 1.372 . S
C215 C214 1.372 . S
C215 C216 1.400 . S
C215 C220 1.490 . S
C216 H206 0.930 . S
C216 C215 1.400 . S
C216 C219 1.386 . S
H217 C233 0.930 . S
H218 C234 0.931 . S
C219 H207 0.929 . S
C219 C213 1.390 . S
C219 C216 1.386 . S
C220 C215 1.490 . S
C220 C222 1.395 . S
C220 C223 1.403 . S
H221 C227 0.930 . S
C222 H208 0.930 . S
C222 C220 1.395 . S
C222 C225 1.403 . S
C223 C220 1.403 . S
C223 C224 1.524 . S
C223 C227 1.400 . S
C224 H209 0.960 . S
C224 H210 0.960 . S
C224 H211 0.960 . S
C224 C223 1.524 . S
C225 C222 1.403 . S
C225 C226 1.392 . S
C225 C229 1.495 . S
C226 C225 1.392 . S
C226 C227 1.385 . S
C226 C228 1.478 . S
C227 H221 0.930 . S
C227 C223 1.400 . S
C227 C226 1.385 . S
C228 C226 1.478 . S
C228 C230 1.381 . S
C228 C234 1.383 . S
C229 C225 1.495 . S
C229 H235 0.959 . S
C229 H236 0.961 . S
C229 H237 0.960 . S
C230 C228 1.381 . S
C230 C231 1.394 . S
C230 H238 0.930 . S
C231 C230 1.394 . S
C231 C232 1.383 . S
C231 H239 0.929 . S
C232 C231 1.383 . S
C232 C233 1.377 . S
C233 H217 0.930 . S
C233 C232 1.377 . S
C233 C234 1.379 . S
C234 H218 0.931 . S
C234 C228 1.383 . S
C234 C233 1.379 . S
H235 C229 0.959 . S
H236 C229 0.961 . S
H237 C229 0.960 . S
H238 C230 0.930 . S
H239 C231 0.929 . S
H240 C248 0.929 . S
H241 C250 0.930 . S
H242 C252 0.930 . S
H243 C255 0.929 . S
H244 C258 0.930 . S
H245 C260 0.960 . S
H246 C260 0.960 . S
H247 C260 0.960 . S
C248 H240 0.929 . S
C248 C249 1.377 . S
C248 C250 1.384 . S
C249 C248 1.377 . S
C249 C255 1.390 . S
C250 H241 0.930 . S
C250 C248 1.384 . S
C250 C251 1.372 . S
C251 C250 1.372 . S
C251 C252 1.400 . S
C251 C256 1.490 . S
C252 H242 0.930 . S
C252 C251 1.400 . S
C252 C255 1.386 . S
H253 C269 0.930 . S
H254 C270 0.931 . S
C255 H243 0.929 . S
C255 C249 1.390 . S
C255 C252 1.386 . S
C256 C251 1.490 . S
C256 C258 1.395 . S
C256 C259 1.403 . S
H257 C263 0.930 . S
C258 H244 0.930 . S
C258 C256 1.395 . S
C258 C261 1.403 . S
C259 C256 1.403 . S
C259 C260 1.524 . S
C259 C263 1.400 . S
C260 H245 0.960 . S
C260 H246 0.960 . S
C260 H247 0.960 . S
C260 C259 1.524 . S
C261 C258 1.403 . S
C261 C262 1.392 . S
C261 C265 1.495 . S
C262 C261 1.392 . S
C262 C263 1.385 . S
C262 C264 1.478 . S
C263 H257 0.930 . S
C263 C259 1.400 . S
C263 C262 1.385 . S
C264 C262 1.478 . S
C264 C266 1.381 . S
C264 C270 1.383 . S
C265 C261 1.495 . S
C265 H271 0.959 . S
C265 H272 0.961 . S
C265 H273 0.960 . S
C266 C264 1.381 . S
C266 C267 1.394 . S
C266 H274 0.930 . S
C267 C266 1.394 . S
C267 C268 1.383 . S
C267 H275 0.929 . S
C268 C267 1.383 . S
C268 C269 1.377 . S
C269 H253 0.930 . S
C269 C268 1.377 . S
C269 C270 1.379 . S
C270 H254 0.931 . S
C270 C264 1.383 . S
C270 C269 1.379 . S
H271 C265 0.959 . S
H272 C265 0.961 . S
H273 C265 0.960 . S
H274 C266 0.930 . S
H275 C267 0.929 . S
H276 C284 0.929 . S
H277 C286 0.930 . S
H278 C288 0.930 . S
H279 C291 0.929 . S
H280 C294 0.930 . S
H281 C296 0.960 . S
H282 C296 0.960 . S
H283 C296 0.960 . S
C284 H276 0.929 . S
C284 C285 1.377 . S
C284 C286 1.384 . S
C285 C284 1.377 . S
C285 C291 1.390 . S
C286 H277 0.930 . S
C286 C284 1.384 . S
C286 C287 1.372 . S
C287 C286 1.372 . S
C287 C288 1.400 . S
C287 C292 1.490 . S
C288 H278 0.930 . S
C288 C287 1.400 . S
C288 C291 1.386 . S
H289 C305 0.930 . S
H290 C306 0.931 1_554 S
C291 H279 0.929 . S
C291 C285 1.390 . S
C291 C288 1.386 . S
C292 C287 1.490 . S
C292 C294 1.395 . S
C292 C295 1.403 . S
H293 C299 0.930 . S
C294 H280 0.930 . S
C294 C292 1.395 . S
C294 C297 1.403 . S
C295 C292 1.403 . S
C295 C296 1.524 . S
C295 C299 1.400 . S
C296 H281 0.960 . S
C296 H282 0.960 . S
C296 H283 0.960 . S
C296 C295 1.524 . S
C297 C294 1.403 . S
C297 C298 1.392 . S
C297 C301 1.495 1_554 S
C298 C297 1.392 . S
C298 C299 1.385 . S
C298 C300 1.478 1_554 S
C299 H293 0.930 . S
C299 C295 1.400 . S
C299 C298 1.385 . S
C300 C298 1.478 1_556 S
C300 C302 1.381 . S
C300 C306 1.383 . S
C301 C297 1.495 1_556 S
C301 H307 0.959 . S
C301 H308 0.961 . S
C301 H309 0.960 . S
C302 C300 1.381 . S
C302 C303 1.394 . S
C302 H310 0.930 . S
C303 C302 1.394 . S
C303 C304 1.383 . S
C303 H311 0.929 . S
C304 C303 1.383 . S
C304 C305 1.377 . S
C305 H289 0.930 . S
C305 C304 1.377 . S
C305 C306 1.379 . S
C306 H290 0.931 1_556 S
C306 C300 1.383 . S
C306 C305 1.379 . S
H307 C301 0.959 . S
H308 C301 0.961 . S
H309 C301 0.960 . S
H310 C302 0.930 . S
H311 C303 0.929 . S
H312 C320 0.929 . S
H313 C322 0.930 . S
H314 C324 0.930 . S
H315 C327 0.929 . S
H316 C330 0.930 . S
H317 C332 0.960 . S
H318 C332 0.960 . S
H319 C332 0.960 . S
C320 H312 0.929 . S
C320 C321 1.377 . S
C320 C322 1.384 . S
C321 C320 1.377 . S
C321 C327 1.390 . S
C322 H313 0.930 . S
C322 C320 1.384 . S
C322 C323 1.372 . S
C323 C322 1.372 . S
C323 C324 1.400 . S
C323 C328 1.490 . S
C324 H314 0.930 . S
C324 C323 1.400 . S
C324 C327 1.386 . S
H325 C341 0.930 . S
H326 C342 0.931 . S
C327 H315 0.929 . S
C327 C321 1.390 . S
C327 C324 1.386 . S
C328 C323 1.490 . S
C328 C330 1.395 . S
C328 C331 1.403 . S
H329 C335 0.930 . S
C330 H316 0.930 . S
C330 C328 1.395 . S
C330 C333 1.403 . S
C331 C328 1.403 . S
C331 C332 1.524 . S
C331 C335 1.400 . S
C332 H317 0.960 . S
C332 H318 0.960 . S
C332 H319 0.960 . S
C332 C331 1.524 . S
C333 C330 1.403 . S
C333 C334 1.392 . S
C333 C337 1.495 . S
C334 C333 1.392 . S
C334 C335 1.385 . S
C334 C336 1.478 . S
C335 H329 0.930 . S
C335 C331 1.400 . S
C335 C334 1.385 . S
C336 C334 1.478 . S
C336 C338 1.381 . S
C336 C342 1.383 . S
C337 C333 1.495 . S
C337 H343 0.959 . S
C337 H344 0.961 . S
C337 H345 0.960 . S
C338 C336 1.381 . S
C338 C339 1.394 . S
C338 H346 0.930 . S
C339 C338 1.394 . S
C339 C340 1.383 . S
C339 H347 0.929 . S
C340 C339 1.383 . S
C340 C341 1.377 . S
C341 H325 0.930 . S
C341 C340 1.377 . S
C341 C342 1.379 . S
C342 H326 0.931 . S
C342 C336 1.383 . S
C342 C341 1.379 . S
H343 C337 0.959 . S
H344 C337 0.961 . S
H345 C337 0.960 . S
H346 C338 0.930 . S
H347 C339 0.929 . S
H348 C356 0.929 . S
H349 C358 0.930 . S
H350 C360 0.930 . S
H351 C363 0.929 . S
H352 C366 0.930 . S
H353 C368 0.960 . S
H354 C368 0.960 . S
H355 C368 0.960 . S
C356 H348 0.929 . S
C356 C357 1.377 . S
C356 C358 1.384 . S
C357 C356 1.377 . S
C357 C363 1.390 . S
C358 H349 0.930 . S
C358 C356 1.384 . S
C358 C359 1.372 . S
C359 C358 1.372 . S
C359 C360 1.400 . S
C359 C364 1.490 . S
C360 H350 0.930 . S
C360 C359 1.400 . S
C360 C363 1.386 . S
H361 C377 0.930 . S
H362 C378 0.931 . S
C363 H351 0.929 . S
C363 C357 1.390 . S
C363 C360 1.386 . S
C364 C359 1.490 . S
C364 C366 1.395 . S
C364 C367 1.403 . S
H365 C371 0.930 . S
C366 H352 0.930 . S
C366 C364 1.395 . S
C366 C369 1.403 . S
C367 C364 1.403 . S
C367 C368 1.524 . S
C367 C371 1.400 . S
C368 H353 0.960 . S
C368 H354 0.960 . S
C368 H355 0.960 . S
C368 C367 1.524 . S
C369 C366 1.403 . S
C369 C370 1.392 . S
C369 C373 1.495 . S
C370 C369 1.392 . S
C370 C371 1.385 . S
C370 C372 1.478 . S
C371 H365 0.930 . S
C371 C367 1.400 . S
C371 C370 1.385 . S
C372 C370 1.478 . S
C372 C374 1.381 . S
C372 C378 1.383 . S
C373 C369 1.495 . S
C373 H379 0.959 . S
C373 H380 0.961 . S
C373 H381 0.960 . S
C374 C372 1.381 . S
C374 C375 1.394 . S
C374 H382 0.930 . S
C375 C374 1.394 . S
C375 C376 1.383 . S
C375 H383 0.929 . S
C376 C375 1.383 . S
C376 C377 1.377 . S
C377 H361 0.930 . S
C377 C376 1.377 . S
C377 C378 1.379 . S
C378 H362 0.931 . S
C378 C372 1.383 . S
C378 C377 1.379 . S
H379 C373 0.959 . S
H380 C373 0.961 . S
H381 C373 0.960 . S
H382 C374 0.930 . S
H383 C375 0.929 . S
H384 C392 0.929 . S
H385 C394 0.930 . S
H386 C396 0.930 . S
H387 C399 0.929 . S
H388 C402 0.930 . S
H389 C404 0.960 1_556 S
H390 C404 0.960 . S
H391 C404 0.960 . S
C392 H384 0.929 . S
C392 C393 1.377 . S
C392 C394 1.384 . S
C393 C392 1.377 . S
C393 C399 1.390 . S
C394 H385 0.930 . S
C394 C392 1.384 . S
C394 C395 1.372 . S
C395 C394 1.372 . S
C395 C396 1.400 . S
C395 C400 1.490 . S
C396 H386 0.930 . S
C396 C395 1.400 . S
C396 C399 1.386 . S
H397 C413 0.930 . S
H398 C414 0.931 1_554 S
C399 H387 0.929 . S
C399 C393 1.390 . S
C399 C396 1.386 . S
C400 C395 1.490 . S
C400 C402 1.395 . S
C400 C403 1.403 . S
H401 C407 0.930 1_556 S
C402 H388 0.930 . S
C402 C400 1.395 . S
C402 C405 1.403 . S
C403 C400 1.403 . S
C403 C404 1.524 . S
C403 C407 1.400 . S
C404 H389 0.960 1_554 S
C404 H390 0.960 . S
C404 H391 0.960 . S
C404 C403 1.524 . S
C405 C402 1.403 . S
C405 C406 1.392 . S
C405 C409 1.495 . S
C406 C405 1.392 . S
C406 C407 1.385 . S
C406 C408 1.478 1_554 S
C407 H401 0.930 1_554 S
C407 C403 1.400 . S
C407 C406 1.385 . S
C408 C406 1.478 1_556 S
C408 C410 1.381 . S
C408 C414 1.383 . S
C409 C405 1.495 . S
C409 H415 0.959 . S
C409 H416 0.961 . S
C409 H417 0.960 . S
C410 C408 1.381 . S
C410 C411 1.394 . S
C410 H418 0.930 . S
C411 C410 1.394 . S
C411 C412 1.383 . S
C411 H419 0.929 1_545 S
C412 C411 1.383 . S
C412 C413 1.377 . S
C413 H397 0.930 . S
C413 C412 1.377 . S
C413 C414 1.379 . S
C414 H398 0.931 1_556 S
C414 C408 1.383 . S
C414 C413 1.379 . S
H415 C409 0.959 . S
H416 C409 0.961 . S
H417 C409 0.960 . S
H418 C410 0.930 . S
H419 C411 0.929 1_565 S
H420 C428 0.929 . S
H421 C430 0.930 . S
H422 C432 0.930 . S
H423 C435 0.929 . S
H424 C438 0.930 . S
H425 C440 0.960 . S
H426 C440 0.960 . S
H427 C440 0.960 . S
C428 H420 0.929 . S
C428 C429 1.377 . S
C428 C430 1.384 . S
C429 C428 1.377 . S
C429 C435 1.390 . S
C430 H421 0.930 . S
C430 C428 1.384 . S
C430 C431 1.372 . S
C431 C430 1.372 . S
C431 C432 1.400 . S
C431 C436 1.490 . S
C432 H422 0.930 . S
C432 C431 1.400 . S
C432 C435 1.386 . S
H433 C449 0.930 . S
H434 C450 0.931 . S
C435 H423 0.929 . S
C435 C429 1.390 . S
C435 C432 1.386 . S
C436 C431 1.490 . S
C436 C438 1.395 . S
C436 C439 1.403 . S
H437 C443 0.930 . S
C438 H424 0.930 . S
C438 C436 1.395 . S
C438 C441 1.403 . S
C439 C436 1.403 . S
C439 C440 1.524 . S
C439 C443 1.400 . S
C440 H425 0.960 . S
C440 H426 0.960 . S
C440 H427 0.960 . S
C440 C439 1.524 . S
C441 C438 1.403 . S
C441 C442 1.392 . S
C441 C445 1.495 . S
C442 C441 1.392 . S
C442 C443 1.385 . S
C442 C444 1.478 . S
C443 H437 0.930 . S
C443 C439 1.400 . S
C443 C442 1.385 . S
C444 C442 1.478 . S
C444 C446 1.381 . S
C444 C450 1.383 . S
C445 C441 1.495 . S
C445 H451 0.959 . S
C445 H452 0.961 . S
C445 H453 0.960 . S
C446 C444 1.381 . S
C446 C447 1.394 . S
C446 H454 0.930 . S
C447 C446 1.394 . S
C447 C448 1.383 . S
C447 H455 0.929 . S
C448 C447 1.383 . S
C448 C449 1.377 . S
C449 H433 0.930 . S
C449 C448 1.377 . S
C449 C450 1.379 . S
C450 H434 0.931 . S
C450 C444 1.383 . S
C450 C449 1.379 . S
H451 C445 0.959 . S
H452 C445 0.961 . S
H453 C445 0.960 . S
H454 C446 0.930 . S
H455 C447 0.929 . S
H456 C464 0.929 . S
H457 C466 0.930 . S
H458 C468 0.930 . S
H459 C471 0.929 . S
H460 C474 0.930 . S
H461 C476 0.960 . S
H462 C476 0.960 . S
H463 C476 0.960 . S
C464 H456 0.929 . S
C464 C465 1.377 . S
C464 C466 1.384 . S
C465 C464 1.377 . S
C465 C471 1.390 . S
C466 H457 0.930 . S
C466 C464 1.384 . S
C466 C467 1.372 . S
C467 C466 1.372 . S
C467 C468 1.400 . S
C467 C472 1.490 . S
C468 H458 0.930 . S
C468 C467 1.400 . S
C468 C471 1.386 . S
H469 C485 0.930 1_655 S
H470 C486 0.931 . S
C471 H459 0.929 . S
C471 C465 1.390 . S
C471 C468 1.386 . S
C472 C467 1.490 . S
C472 C474 1.395 . S
C472 C475 1.403 . S
H473 C479 0.930 . S
C474 H460 0.930 . S
C474 C472 1.395 . S
C474 C477 1.403 . S
C475 C472 1.403 . S
C475 C476 1.524 . S
C475 C479 1.400 . S
C476 H461 0.960 . S
C476 H462 0.960 . S
C476 H463 0.960 . S
C476 C475 1.524 . S
C477 C474 1.403 . S
C477 C478 1.392 . S
C477 C481 1.495 . S
C478 C477 1.392 . S
C478 C479 1.385 . S
C478 C480 1.478 . S
C479 H473 0.930 . S
C479 C475 1.400 . S
C479 C478 1.385 . S
C480 C478 1.478 . S
C480 C482 1.381 . S
C480 C486 1.383 . S
C481 C477 1.495 . S
C481 H487 0.959 . S
C481 H488 0.961 . S
C481 H489 0.960 . S
C482 C480 1.381 . S
C482 C483 1.394 . S
C482 H490 0.930 . S
C483 C482 1.394 . S
C483 C484 1.383 . S
C483 H491 0.929 . S
C484 C483 1.383 . S
C484 C485 1.377 . S
C485 H469 0.930 1_455 S
C485 C484 1.377 . S
C485 C486 1.379 . S
C486 H470 0.931 . S
C486 C480 1.383 . S
C486 C485 1.379 . S
H487 C481 0.959 . S
H488 C481 0.961 . S
H489 C481 0.960 . S
H490 C482 0.930 . S
H491 C483 0.929 . S
H492 C500 0.929 . S
H493 C502 0.930 . S
H494 C504 0.930 . S
H495 C507 0.929 . S
H496 C510 0.930 . S
H497 C512 0.960 . S
H498 C512 0.960 . S
H499 C512 0.960 . S
C500 H492 0.929 . S
C500 C501 1.377 . S
C500 C502 1.384 . S
C501 C500 1.377 . S
C501 C507 1.390 . S
C502 H493 0.930 . S
C502 C500 1.384 . S
C502 C503 1.372 . S
C503 C502 1.372 . S
C503 C504 1.400 . S
C503 C508 1.490 . S
C504 H494 0.930 . S
C504 C503 1.400 . S
C504 C507 1.386 . S
H505 C521 0.930 . S
H506 C522 0.931 . S
C507 H495 0.929 . S
C507 C501 1.390 . S
C507 C504 1.386 . S
C508 C503 1.490 . S
C508 C510 1.395 . S
C508 C511 1.403 . S
H509 C515 0.930 . S
C510 H496 0.930 . S
C510 C508 1.395 . S
C510 C513 1.403 . S
C511 C508 1.403 . S
C511 C512 1.524 . S
C511 C515 1.400 . S
C512 H497 0.960 . S
C512 H498 0.960 . S
C512 H499 0.960 . S
C512 C511 1.524 . S
C513 C510 1.403 . S
C513 C514 1.392 . S
C513 C517 1.495 1_554 S
C514 C513 1.392 . S
C514 C515 1.385 . S
C514 C516 1.478 1_554 S
C515 H509 0.930 . S
C515 C511 1.400 . S
C515 C514 1.385 . S
C516 C514 1.478 1_556 S
C516 C518 1.381 . S
C516 C522 1.383 . S
C517 C513 1.495 1_556 S
C517 H523 0.959 1_556 S
C517 H524 0.961 . S
C517 H525 0.959 . S
C518 C516 1.381 . S
C518 C519 1.394 . S
C518 H526 0.930 1_556 S
C519 C518 1.394 . S
C519 C520 1.383 . S
C519 H527 0.929 . S
C520 C519 1.383 . S
C520 C521 1.377 . S
C521 H505 0.930 . S
C521 C520 1.377 . S
C521 C522 1.379 . S
C522 H506 0.931 . S
C522 C516 1.383 . S
C522 C521 1.379 . S
H523 C517 0.959 1_554 S
H524 C517 0.961 . S
H525 C517 0.959 . S
H526 C518 0.930 1_554 S
H527 C519 0.929 . S
H528 C536 0.929 . S
H529 C538 0.930 . S
H530 C540 0.930 . S
H531 C543 0.929 . S
H532 C546 0.930 . S
H533 C548 0.960 . S
H534 C548 0.960 . S
H535 C548 0.960 . S
C536 H528 0.929 . S
C536 C537 1.377 . S
C536 C538 1.384 . S
C537 C536 1.377 . S
C537 C543 1.390 . S
C538 H529 0.930 . S
C538 C536 1.384 . S
C538 C539 1.372 . S
C539 C538 1.372 . S
C539 C540 1.400 . S
C539 C544 1.490 . S
C540 H530 0.930 . S
C540 C539 1.400 . S
C540 C543 1.386 . S
H541 C557 0.930 . S
H542 C558 0.931 . S
C543 H531 0.929 . S
C543 C537 1.390 . S
C543 C540 1.386 . S
C544 C539 1.490 . S
C544 C546 1.395 . S
C544 C547 1.403 . S
H545 C551 0.930 . S
C546 H532 0.930 . S
C546 C544 1.395 . S
C546 C549 1.403 . S
C547 C544 1.403 . S
C547 C548 1.524 . S
C547 C551 1.400 . S
C548 H533 0.960 . S
C548 H534 0.960 . S
C548 H535 0.960 . S
C548 C547 1.524 . S
C549 C546 1.403 . S
C549 C550 1.392 . S
C549 C553 1.495 . S
C550 C549 1.392 . S
C550 C551 1.385 . S
C550 C552 1.478 . S
C551 H545 0.930 . S
C551 C547 1.400 . S
C551 C550 1.385 . S
C552 C550 1.478 . S
C552 C554 1.381 . S
C552 C558 1.383 . S
C553 C549 1.495 . S
C553 H559 0.959 . S
C553 H560 0.961 . S
C553 H561 0.960 . S
C554 C552 1.381 . S
C554 C555 1.394 . S
C554 H562 0.930 . S
C555 C554 1.394 . S
C555 C556 1.383 . S
C555 H563 0.929 . S
C556 C555 1.383 . S
C556 C557 1.377 . S
C557 H541 0.930 . S
C557 C556 1.377 . S
C557 C558 1.379 . S
C558 H542 0.931 . S
C558 C552 1.383 . S
C558 C557 1.379 . S
H559 C553 0.959 . S
H560 C553 0.961 . S
H561 C553 0.960 . S
H562 C554 0.930 . S
H563 C555 0.929 . S
H564 C572 0.929 . S
H565 C574 0.930 . S
H566 C576 0.930 . S
H567 C579 0.929 1_455 S
H568 C582 0.930 . S
H569 C584 0.960 . S
H570 C584 0.960 . S
H571 C584 0.960 . S
C572 H564 0.929 . S
C572 C573 1.377 . S
C572 C574 1.384 . S
C573 C572 1.377 . S
C573 C579 1.390 . S
C574 H565 0.930 . S
C574 C572 1.384 . S
C574 C575 1.372 . S
C575 C574 1.372 . S
C575 C576 1.400 . S
C575 C580 1.490 . S
C576 H566 0.930 . S
C576 C575 1.400 . S
C576 C579 1.386 . S
H577 C593 0.930 . S
H578 C594 0.931 . S
C579 H567 0.929 1_655 S
C579 C573 1.390 . S
C579 C576 1.386 . S
C580 C575 1.490 . S
C580 C582 1.395 . S
C580 C583 1.403 . S
H581 C587 0.930 . S
C582 H568 0.930 . S
C582 C580 1.395 . S
C582 C585 1.403 . S
C583 C580 1.403 . S
C583 C584 1.524 . S
C583 C587 1.400 . S
C584 H569 0.960 . S
C584 H570 0.960 . S
C584 H571 0.960 . S
C584 C583 1.524 . S
C585 C582 1.403 . S
C585 C586 1.392 . S
C585 C589 1.495 . S
C586 C585 1.392 . S
C586 C587 1.385 . S
C586 C588 1.478 . S
C587 H581 0.930 . S
C587 C583 1.400 . S
C587 C586 1.385 . S
C588 C586 1.478 . S
C588 C590 1.381 . S
C588 C594 1.383 . S
C589 C585 1.495 . S
C589 H595 0.959 . S
C589 H596 0.961 . S
C589 H597 0.960 . S
C590 C588 1.381 . S
C590 C591 1.394 . S
C590 H598 0.930 . S
C591 C590 1.394 . S
C591 C592 1.383 . S
C591 H599 0.929 . S
C592 C591 1.383 . S
C592 C593 1.377 . S
C593 H577 0.930 . S
C593 C592 1.377 . S
C593 C594 1.379 . S
C594 H578 0.931 . S
C594 C588 1.383 . S
C594 C593 1.379 . S
H595 C589 0.959 . S
H596 C589 0.961 . S
H597 C589 0.960 . S
H598 C590 0.930 . S
H599 C591 0.929 . S
H600 C608 0.929 . S
H601 C610 0.930 . S
H602 C612 0.930 . S
H603 C615 0.929 . S
H604 C618 0.930 . S
H605 C620 0.960 . S
H606 C620 0.960 . S
H607 C620 0.960 . S
C608 H600 0.929 . S
C608 C609 1.377 . S
C608 C610 1.384 . S
C609 C608 1.377 . S
C609 C615 1.390 . S
C610 H601 0.930 . S
C610 C608 1.384 . S
C610 C611 1.372 . S
C611 C610 1.372 . S
C611 C612 1.400 . S
C611 C616 1.490 . S
C612 H602 0.930 . S
C612 C611 1.400 . S
C612 C615 1.386 . S
H613 C629 0.930 . S
H614 C630 0.931 . S
C615 H603 0.929 . S
C615 C609 1.390 . S
C615 C612 1.386 . S
C616 C611 1.490 . S
C616 C618 1.395 . S
C616 C619 1.403 . S
H617 C623 0.930 . S
C618 H604 0.930 . S
C618 C616 1.395 . S
C618 C621 1.403 1_565 S
C619 C616 1.403 . S
C619 C620 1.524 . S
C619 C623 1.400 1_565 S
C620 H605 0.960 . S
C620 H606 0.960 . S
C620 H607 0.960 . S
C620 C619 1.524 . S
C621 C618 1.403 1_545 S
C621 C622 1.392 . S
C621 C625 1.495 . S
C622 C621 1.392 . S
C622 C623 1.385 . S
C622 C624 1.478 . S
C623 H617 0.930 . S
C623 C619 1.400 1_545 S
C623 C622 1.385 . S
C624 C622 1.478 . S
C624 C626 1.381 . S
C624 C630 1.383 . S
C625 C621 1.495 . S
C625 H631 0.959 . S
C625 H632 0.961 . S
C625 H633 0.960 . S
C626 C624 1.381 . S
C626 C627 1.394 . S
C626 H634 0.930 . S
C627 C626 1.394 . S
C627 C628 1.383 . S
C627 H635 0.929 . S
C628 C627 1.383 . S
C628 C629 1.377 . S
C629 H613 0.930 . S
C629 C628 1.377 . S
C629 C630 1.379 . S
C630 H614 0.931 . S
C630 C624 1.383 . S
C630 C629 1.379 . S
H631 C625 0.959 . S
H632 C625 0.961 . S
H633 C625 0.960 . S
H634 C626 0.930 . S
H635 C627 0.929 . S
H636 C644 0.929 . S
H637 C646 0.930 . S
H638 C648 0.930 . S
H639 C651 0.929 . S
H640 C654 0.930 . S
H641 C656 0.960 . S
H642 C656 0.960 . S
H643 C656 0.960 . S
C644 H636 0.929 . S
C644 C645 1.377 . S
C644 C646 1.384 . S
C645 C644 1.377 . S
C645 C651 1.390 . S
C646 H637 0.930 . S
C646 C644 1.384 . S
C646 C647 1.372 . S
C647 C646 1.372 . S
C647 C648 1.400 . S
C647 C652 1.490 . S
C648 H638 0.930 . S
C648 C647 1.400 . S
C648 C651 1.386 . S
H649 C665 0.930 . S
H650 C666 0.931 . S
C651 H639 0.929 . S
C651 C645 1.390 . S
C651 C648 1.386 . S
C652 C647 1.490 . S
C652 C654 1.395 . S
C652 C655 1.403 . S
H653 C659 0.930 . S
C654 H640 0.930 . S
C654 C652 1.395 . S
C654 C657 1.403 . S
C655 C652 1.403 . S
C655 C656 1.524 . S
C655 C659 1.400 . S
C656 H641 0.960 . S
C656 H642 0.960 . S
C656 H643 0.960 . S
C656 C655 1.524 . S
C657 C654 1.403 . S
C657 C658 1.392 . S
C657 C661 1.495 . S
C658 C657 1.392 . S
C658 C659 1.385 . S
C658 C660 1.478 . S
C659 H653 0.930 . S
C659 C655 1.400 . S
C659 C658 1.385 . S
C660 C658 1.478 . S
C660 C662 1.381 . S
C660 C666 1.383 . S
C661 C657 1.495 . S
C661 H667 0.959 . S
C661 H668 0.961 . S
C661 H669 0.960 . S
C662 C660 1.381 . S
C662 C663 1.394 . S
C662 H670 0.930 . S
C663 C662 1.394 . S
C663 C664 1.383 . S
C663 H671 0.929 . S
C664 C663 1.383 . S
C664 C665 1.377 . S
C665 H649 0.930 . S
C665 C664 1.377 . S
C665 C666 1.379 . S
C666 H650 0.931 . S
C666 C660 1.383 . S
C666 C665 1.379 . S
H667 C661 0.959 . S
H668 C661 0.961 . S
H669 C661 0.960 . S
H670 C662 0.930 . S
H671 C663 0.929 . S
H672 C680 0.929 . S
H673 C682 0.930 . S
H674 C684 0.930 . S
H675 C687 0.929 . S
H676 C690 0.930 . S
H677 C692 0.944 1_554 S
H678 C692 0.960 . S
H679 C692 0.960 . S
C680 H672 0.929 . S
C680 C681 1.377 1_655 S
C680 C682 1.384 . S
C681 C680 1.377 1_455 S
C681 C687 1.390 . S
C682 H673 0.930 . S
C682 C680 1.384 . S
C682 C683 1.372 1_655 S
C683 C682 1.372 1_455 S
C683 C684 1.400 . S
C683 C688 1.490 . S
C684 H674 0.930 . S
C684 C683 1.400 . S
C684 C687 1.386 . S
H685 C701 0.930 . S
H686 C702 0.931 . S
C687 H675 0.929 . S
C687 C681 1.390 . S
C687 C684 1.386 . S
C688 C683 1.490 . S
C688 C690 1.395 1_455 S
C688 C691 1.403 . S
H689 C695 0.930 . S
C690 H676 0.930 . S
C690 C688 1.395 1_655 S
C690 C693 1.403 . S
C691 C688 1.403 . S
C691 C692 1.524 . S
C691 C695 1.400 . S
C692 H677 0.944 1_556 S
C692 H678 0.960 . S
C692 H679 0.960 . S
C692 C691 1.524 . S
C693 C690 1.403 . S
C693 C694 1.392 . S
C693 C697 1.495 . S
C694 C693 1.392 . S
C694 C695 1.385 1_655 S
C694 C696 1.478 . S
C695 H689 0.930 . S
C695 C691 1.400 . S
C695 C694 1.385 1_455 S
C696 C694 1.478 . S
C696 C698 1.381 . S
C696 C702 1.383 1_655 S
C697 C693 1.495 . S
C697 H703 0.959 . S
C697 H704 0.961 . S
C697 H705 0.960 . S
C698 C696 1.381 . S
C698 C699 1.394 . S
C698 H706 0.930 . S
C699 C698 1.394 . S
C699 C700 1.383 . S
C699 H707 0.929 . S
C700 C699 1.383 . S
C700 C701 1.377 1_655 S
C701 H685 0.930 . S
C701 C700 1.377 1_455 S
C701 C702 1.379 . S
C702 H686 0.931 . S
C702 C696 1.383 1_455 S
C702 C701 1.379 . S
H703 C697 0.959 . S
H704 C697 0.961 . S
H705 C697 0.960 . S
H706 C698 0.930 . S
H707 C699 0.929 . S
H708 C716 0.929 . S
H709 C718 0.930 . S
H710 C720 0.930 . S
H711 C723 0.929 . S
H712 C726 0.930 . S
H713 C728 0.960 . S
H714 C728 0.960 . S
H715 C728 0.960 . S
C716 H708 0.929 . S
C716 C717 1.377 . S
C716 C718 1.384 . S
C717 C716 1.377 . S
C717 C723 1.390 . S
C718 H709 0.930 . S
C718 C716 1.384 . S
C718 C719 1.372 . S
C719 C718 1.372 . S
C719 C720 1.400 . S
C719 C724 1.490 . S
C720 H710 0.930 . S
C720 C719 1.400 . S
C720 C723 1.386 . S
H721 C737 0.930 . S
H722 C738 0.931 . S
C723 H711 0.929 . S
C723 C717 1.390 . S
C723 C720 1.386 . S
C724 C719 1.490 . S
C724 C726 1.395 . S
C724 C727 1.403 . S
H725 C731 0.930 . S
C726 H712 0.930 . S
C726 C724 1.395 . S
C726 C729 1.403 1_655 S
C727 C724 1.403 . S
C727 C728 1.524 . S
C727 C731 1.400 1_655 S
C728 H713 0.960 . S
C728 H714 0.960 . S
C728 H715 0.960 . S
C728 C727 1.524 . S
C729 C726 1.403 1_455 S
C729 C730 1.392 . S
C729 C733 1.495 . S
C730 C729 1.392 . S
C730 C731 1.385 . S
C730 C732 1.478 . S
C731 H725 0.930 . S
C731 C727 1.400 1_455 S
C731 C730 1.385 . S
C732 C730 1.478 . S
C732 C734 1.381 . S
C732 C738 1.383 . S
C733 C729 1.495 . S
C733 H739 0.959 . S
C733 H740 0.961 . S
C733 H741 0.960 . S
C734 C732 1.381 . S
C734 C735 1.394 . S
C734 H742 0.930 . S
C735 C734 1.394 . S
C735 C736 1.383 . S
C735 H743 0.929 . S
C736 C735 1.383 . S
C736 C737 1.377 . S
C737 H721 0.930 . S
C737 C736 1.377 . S
C737 C738 1.379 . S
C738 H722 0.931 . S
C738 C732 1.383 . S
C738 C737 1.379 . S
H739 C733 0.959 . S
H740 C733 0.961 . S
H741 C733 0.960 . S
H742 C734 0.930 . S
H743 C735 0.929 . S
H744 C752 0.929 . S
H745 C754 0.930 . S
H746 C756 0.930 . S
H747 C759 0.954 . S
H748 C762 0.930 . S
H749 C764 0.960 . S
H750 C764 0.960 . S
H751 C764 0.960 . S
C752 H744 0.929 . S
C752 C753 1.377 . S
C752 C754 1.384 . S
C753 C752 1.377 . S
C753 C759 1.364 1_565 S
C754 H745 0.930 . S
C754 C752 1.384 . S
C754 C755 1.372 . S
C755 C754 1.372 . S
C755 C756 1.400 1_565 S
C755 C760 1.490 . S
C756 H746 0.930 . S
C756 C755 1.400 1_545 S
C756 C759 1.388 . S
H757 C773 0.930 . S
H758 C774 0.931 . S
C759 H747 0.954 . S
C759 C753 1.364 1_545 S
C759 C756 1.388 . S
C760 C755 1.490 . S
C760 C762 1.395 . S
C760 C763 1.403 1_565 S
H761 C767 0.930 . S
C762 H748 0.930 . S
C762 C760 1.395 . S
C762 C765 1.403 . S
C763 C760 1.403 1_545 S
C763 C764 1.524 . S
C763 C767 1.400 . S
C764 H749 0.960 . S
C764 H750 0.960 . S
C764 H751 0.960 . S
C764 C763 1.524 . S
C765 C762 1.403 . S
C765 C766 1.370 1_565 S
C765 C769 1.495 . S
C766 C765 1.370 1_545 S
C766 C767 1.406 . S
C766 C768 1.480 . S
C767 H761 0.930 . S
C767 C763 1.400 . S
C767 C766 1.406 . S
C768 C766 1.480 . S
C768 C770 1.381 1_545 S
C768 C774 1.383 . S
C769 C765 1.495 . S
C769 H775 0.959 . S
C769 H776 0.961 . S
C769 H777 0.960 . S
C770 C768 1.381 1_565 S
C770 C771 1.394 . S
C770 H778 0.930 . S
C771 C770 1.394 . S
C771 C772 1.383 1_565 S
C771 H779 0.929 . S
C772 C771 1.383 1_545 S
C772 C773 1.377 . S
C773 H757 0.930 . S
C773 C772 1.377 . S
C773 C774 1.379 . S
C774 H758 0.931 . S
C774 C768 1.383 . S
C774 C773 1.379 . S
H775 C769 0.959 . S
H776 C769 0.961 . S
H777 C769 0.960 . S
H778 C770 0.930 . S
H779 C771 0.929 . S
H780 C788 0.929 . S
H781 C790 0.930 . S
H782 C792 0.930 . S
H783 C795 0.929 . S
H784 C798 0.930 . S
H785 C800 0.960 . S
H786 C800 0.960 . S
H787 C800 0.960 . S
C788 H780 0.929 . S
C788 C789 1.377 . S
C788 C790 1.384 . S
C789 C788 1.377 . S
C789 C795 1.390 . S
C790 H781 0.930 . S
C790 C788 1.384 . S
C790 C791 1.372 . S
C791 C790 1.372 . S
C791 C792 1.400 . S
C791 C796 1.490 . S
C792 H782 0.930 . S
C792 C791 1.400 . S
C792 C795 1.386 . S
H793 C809 0.930 . S
H794 C810 0.931 . S
C795 H783 0.929 . S
C795 C789 1.390 . S
C795 C792 1.386 . S
C796 C791 1.490 . S
C796 C798 1.395 . S
C796 C799 1.403 . S
H797 C803 0.930 . S
C798 H784 0.930 . S
C798 C796 1.395 . S
C798 C801 1.403 . S
C799 C796 1.403 . S
C799 C800 1.524 . S
C799 C803 1.400 . S
C800 H785 0.960 . S
C800 H786 0.960 . S
C800 H787 0.960 . S
C800 C799 1.524 . S
C801 C798 1.403 . S
C801 C802 1.392 . S
C801 C805 1.495 . S
C802 C801 1.392 . S
C802 C803 1.385 . S
C802 C804 1.478 . S
C803 H797 0.930 . S
C803 C799 1.400 . S
C803 C802 1.385 . S
C804 C802 1.478 . S
C804 C806 1.381 . S
C804 C810 1.383 . S
C805 C801 1.495 . S
C805 H811 0.959 . S
C805 H812 0.961 . S
C805 H813 0.960 . S
C806 C804 1.381 . S
C806 C807 1.394 . S
C806 H814 0.930 . S
C807 C806 1.394 . S
C807 C808 1.383 . S
C807 H815 0.929 . S
C808 C807 1.383 . S
C808 C809 1.377 . S
C809 H793 0.930 . S
C809 C808 1.377 . S
C809 C810 1.379 . S
C810 H794 0.931 . S
C810 C804 1.383 . S
C810 C809 1.379 . S
H811 C805 0.959 . S
H812 C805 0.961 . S
H813 C805 0.960 . S
H814 C806 0.930 . S
H815 C807 0.929 . S
H816 C824 0.929 . S
H817 C826 0.930 . S
H818 C828 0.930 . S
H819 C831 0.929 . S
H820 C834 0.930 . S
H821 C836 0.960 . S
H822 C836 0.960 . S
H823 C836 0.960 . S
C824 H816 0.929 . S
C824 C825 1.377 . S
C824 C826 1.384 . S
C825 C824 1.377 . S
C825 C831 1.390 . S
C826 H817 0.930 . S
C826 C824 1.384 . S
C826 C827 1.372 . S
C827 C826 1.372 . S
C827 C828 1.400 . S
C827 C832 1.490 . S
C828 H818 0.930 . S
C828 C827 1.400 . S
C828 C831 1.386 . S
H829 C845 0.930 . S
H830 C846 0.931 . S
C831 H819 0.929 . S
C831 C825 1.390 . S
C831 C828 1.386 . S
C832 C827 1.490 . S
C832 C834 1.395 . S
C832 C835 1.403 . S
H833 C839 0.930 . S
C834 H820 0.930 . S
C834 C832 1.395 . S
C834 C837 1.403 . S
C835 C832 1.403 . S
C835 C836 1.524 . S
C835 C839 1.400 . S
C836 H821 0.960 . S
C836 H822 0.960 . S
C836 H823 0.960 . S
C836 C835 1.524 . S
C837 C834 1.403 . S
C837 C838 1.392 . S
C837 C841 1.495 . S
C838 C837 1.392 . S
C838 C839 1.385 . S
C838 C840 1.478 . S
C839 H833 0.930 . S
C839 C835 1.400 . S
C839 C838 1.385 . S
C840 C838 1.478 . S
C840 C842 1.381 . S
C840 C846 1.383 . S
C841 C837 1.495 . S
C841 H847 0.959 . S
C841 H848 0.961 . S
C841 H849 0.960 . S
C842 C840 1.381 . S
C842 C843 1.394 . S
C842 H850 0.930 . S
C843 C842 1.394 . S
C843 C844 1.383 . S
C843 H851 0.929 . S
C844 C843 1.383 . S
C844 C845 1.377 . S
C845 H829 0.930 . S
C845 C844 1.377 . S
C845 C846 1.379 . S
C846 H830 0.931 . S
C846 C840 1.383 . S
C846 C845 1.379 . S
H847 C841 0.959 . S
H848 C841 0.961 . S
H849 C841 0.960 . S
H850 C842 0.930 . S
H851 C843 0.929 . S
H852 C860 0.929 . S
H853 C862 0.930 . S
H854 C864 0.930 . S
H855 C867 0.929 . S
H856 C870 0.930 . S
H857 C872 0.960 . S
H858 C872 0.960 . S
H859 C872 0.960 . S
C860 H852 0.929 . S
C860 C861 1.377 . S
C860 C862 1.384 . S
C861 C860 1.377 . S
C861 C867 1.390 . S
C862 H853 0.930 . S
C862 C860 1.384 . S
C862 C863 1.372 . S
C863 C862 1.372 . S
C863 C864 1.400 . S
C863 C868 1.490 . S
C864 H854 0.930 . S
C864 C863 1.400 . S
C864 C867 1.386 . S
H865 C881 0.930 . S
H866 C882 0.931 . S
C867 H855 0.929 . S
C867 C861 1.390 . S
C867 C864 1.386 . S
C868 C863 1.490 . S
C868 C870 1.395 . S
C868 C871 1.403 . S
H869 C875 0.930 . S
C870 H856 0.930 . S
C870 C868 1.395 . S
C870 C873 1.403 . S
C871 C868 1.403 . S
C871 C872 1.524 . S
C871 C875 1.400 . S
C872 H857 0.960 . S
C872 H858 0.960 . S
C872 H859 0.960 . S
C872 C871 1.524 . S
C873 C870 1.403 . S
C873 C874 1.392 . S
C873 C877 1.495 . S
C874 C873 1.392 . S
C874 C875 1.385 . S
C874 C876 1.478 . S
C875 H869 0.930 . S
C875 C871 1.400 . S
C875 C874 1.385 . S
C876 C874 1.478 . S
C876 C878 1.381 . S
C876 C882 1.383 . S
C877 C873 1.495 . S
C877 H883 0.959 . S
C877 H884 0.961 . S
C877 H885 0.960 . S
C878 C876 1.381 . S
C878 C879 1.394 . S
C878 H886 0.930 . S
C879 C878 1.394 . S
C879 C880 1.383 . S
C879 H887 0.929 . S
C880 C879 1.383 . S
C880 C881 1.377 . S
C881 H865 0.930 . S
C881 C880 1.377 . S
C881 C882 1.379 . S
C882 H866 0.931 . S
C882 C876 1.383 . S
C882 C881 1.379 . S
H883 C877 0.959 . S
H884 C877 0.961 . S
H885 C877 0.960 . S
H886 C878 0.930 . S
H887 C879 0.929 . S
H888 C896 0.929 . S
H889 C898 0.930 . S
H890 C900 0.930 . S
H891 C903 0.929 . S
H892 C906 0.930 . S
H893 C908 0.960 . S
H894 C908 0.960 . S
H895 C908 0.960 . S
C896 H888 0.929 . S
C896 C897 1.377 . S
C896 C898 1.384 . S
C897 C896 1.377 . S
C897 C903 1.390 . S
C898 H889 0.930 . S
C898 C896 1.384 . S
C898 C899 1.372 . S
C899 C898 1.372 . S
C899 C900 1.400 . S
C899 C904 1.490 . S
C900 H890 0.930 . S
C900 C899 1.400 . S
C900 C903 1.386 . S
H901 C917 0.930 . S
H902 C918 0.931 . S
C903 H891 0.929 . S
C903 C897 1.390 . S
C903 C900 1.386 . S
C904 C899 1.490 . S
C904 C906 1.395 . S
C904 C907 1.403 . S
H905 C911 0.930 . S
C906 H892 0.930 . S
C906 C904 1.395 . S
C906 C909 1.403 . S
C907 C904 1.403 . S
C907 C908 1.524 . S
C907 C911 1.400 . S
C908 H893 0.960 . S
C908 H894 0.960 . S
C908 H895 0.960 . S
C908 C907 1.524 . S
C909 C906 1.403 . S
C909 C910 1.392 . S
C909 C913 1.495 . S
C910 C909 1.392 . S
C910 C911 1.385 . S
C910 C912 1.478 . S
C911 H905 0.930 . S
C911 C907 1.400 . S
C911 C910 1.385 . S
C912 C910 1.478 . S
C912 C914 1.381 . S
C912 C918 1.383 . S
C913 C909 1.495 . S
C913 H919 0.959 . S
C913 H920 0.961 . S
C913 H921 0.960 . S
C914 C912 1.381 . S
C914 C915 1.394 . S
C914 H922 0.930 . S
C915 C914 1.394 . S
C915 C916 1.383 . S
C915 H923 0.929 . S
C916 C915 1.383 . S
C916 C917 1.377 . S
C917 H901 0.930 . S
C917 C916 1.377 . S
C917 C918 1.379 . S
C918 H902 0.931 . S
C918 C912 1.383 . S
C918 C917 1.379 . S
H919 C913 0.959 . S
H920 C913 0.961 . S
H921 C913 0.960 . S
H922 C914 0.930 . S
H923 C915 0.929 . S
H924 C932 0.929 . S
H925 C934 0.930 . S
H926 C936 0.930 . S
H927 C939 0.929 . S
H928 C942 0.930 . S
H929 C944 0.960 . S
H930 C944 0.960 . S
H931 C944 0.960 . S
C932 H924 0.929 . S
C932 C933 1.377 . S
C932 C934 1.384 . S
C933 C932 1.377 . S
C933 C939 1.390 . S
C934 H925 0.930 . S
C934 C932 1.384 . S
C934 C935 1.372 . S
C935 C934 1.372 . S
C935 C936 1.400 . S
C935 C940 1.490 . S
C936 H926 0.930 . S
C936 C935 1.400 . S
C936 C939 1.386 . S
H937 C953 0.930 . S
H938 C954 0.931 . S
C939 H927 0.929 . S
C939 C933 1.390 . S
C939 C936 1.386 . S
C940 C935 1.490 . S
C940 C942 1.395 . S
C940 C943 1.403 . S
H941 C947 0.930 . S
C942 H928 0.930 . S
C942 C940 1.395 . S
C942 C945 1.403 . S
C943 C940 1.403 . S
C943 C944 1.524 . S
C943 C947 1.400 . S
C944 H929 0.960 . S
C944 H930 0.960 . S
C944 H931 0.960 . S
C944 C943 1.524 . S
C945 C942 1.403 . S
C945 C946 1.392 . S
C945 C949 1.495 . S
C946 C945 1.392 . S
C946 C947 1.385 . S
C946 C948 1.478 . S
C947 H941 0.930 . S
C947 C943 1.400 . S
C947 C946 1.385 . S
C948 C946 1.478 . S
C948 C950 1.381 . S
C948 C954 1.383 . S
C949 C945 1.495 . S
C949 H955 0.959 . S
C949 H956 0.961 . S
C949 H957 0.960 . S
C950 C948 1.381 . S
C950 C951 1.394 . S
C950 H958 0.930 . S
C951 C950 1.394 . S
C951 C952 1.383 . S
C951 H959 0.929 . S
C952 C951 1.383 . S
C952 C953 1.377 . S
C953 H937 0.930 . S
C953 C952 1.377 . S
C953 C954 1.379 . S
C954 H938 0.931 . S
C954 C948 1.383 . S
C954 C953 1.379 . S
H955 C949 0.959 . S
H956 C949 0.961 . S
H957 C949 0.960 . S
H958 C950 0.930 . S
H959 C951 0.929 . S
H960 C968 0.929 . S
H961 C970 0.930 . S
H962 C972 0.930 . S
H963 C975 0.929 . S
H964 C978 0.930 . S
H965 C980 0.960 . S
H966 C980 0.960 . S
H967 C980 0.960 . S
C968 H960 0.929 . S
C968 C969 1.377 . S
C968 C970 1.384 . S
C969 C968 1.377 . S
C969 C975 1.390 . S
C970 H961 0.930 . S
C970 C968 1.384 . S
C970 C971 1.372 . S
C971 C970 1.372 . S
C971 C972 1.400 . S
C971 C976 1.490 . S
C972 H962 0.930 . S
C972 C971 1.400 . S
C972 C975 1.386 . S
H973 C989 0.930 . S
H974 C990 0.931 . S
C975 H963 0.929 . S
C975 C969 1.390 . S
C975 C972 1.386 . S
C976 C971 1.490 . S
C976 C978 1.395 . S
C976 C979 1.403 . S
H977 C983 0.930 . S
C978 H964 0.930 . S
C978 C976 1.395 . S
C978 C981 1.403 . S
C979 C976 1.403 . S
C979 C980 1.524 . S
C979 C983 1.400 . S
C980 H965 0.960 . S
C980 H966 0.960 . S
C980 H967 0.960 . S
C980 C979 1.524 . S
C981 C978 1.403 . S
C981 C982 1.392 . S
C981 C985 1.495 . S
C982 C981 1.392 . S
C982 C983 1.385 . S
C982 C984 1.478 . S
C983 H977 0.930 . S
C983 C979 1.400 . S
C983 C982 1.385 . S
C984 C982 1.478 . S
C984 C986 1.381 . S
C984 C990 1.383 . S
C985 C981 1.495 . S
C985 H991 0.959 . S
C985 H992 0.961 . S
C985 H993 0.960 . S
C986 C984 1.381 . S
C986 C987 1.394 . S
C986 H994 0.930 . S
C987 C986 1.394 . S
C987 C988 1.383 . S
C987 H995 0.929 . S
C988 C987 1.383 . S
C988 C989 1.377 . S
C989 H973 0.930 . S
C989 C988 1.377 . S
C989 C990 1.379 . S
C990 H974 0.931 . S
C990 C984 1.383 . S
C990 C989 1.379 . S
H991 C985 0.959 . S
H992 C985 0.961 . S
H993 C985 0.960 . S
H994 C986 0.930 . S
H995 C987 0.929 . S
H996 C1004 0.929 . S
H997 C1006 0.930 . S
H998 C1008 0.930 . S
H999 C1011 0.929 . S
H1000 C1014 0.930 . S
H1001 C1016 0.960 . S
H1002 C1016 0.960 . S
H1003 C1016 0.960 . S
C1004 H996 0.929 . S
C1004 C1005 1.377 . S
C1004 C1006 1.384 . S
C1005 C1004 1.377 . S
C1005 C1011 1.390 . S
C1006 H997 0.930 . S
C1006 C1004 1.384 . S
C1006 C1007 1.372 . S
C1007 C1006 1.372 . S
C1007 C1008 1.400 . S
C1007 C1012 1.490 . S
C1008 H998 0.930 . S
C1008 C1007 1.400 . S
C1008 C1011 1.386 . S
H1009 C1025 0.930 . S
H1010 C1026 0.931 . S
C1011 H999 0.929 . S
C1011 C1005 1.390 . S
C1011 C1008 1.386 . S
C1012 C1007 1.490 . S
C1012 C1014 1.395 . S
C1012 C1015 1.403 . S
H1013 C1019 0.930 . S
C1014 H1000 0.930 . S
C1014 C1012 1.395 . S
C1014 C1017 1.403 . S
C1015 C1012 1.403 . S
C1015 C1016 1.524 . S
C1015 C1019 1.400 . S
C1016 H1001 0.960 . S
C1016 H1002 0.960 . S
C1016 H1003 0.960 . S
C1016 C1015 1.524 . S
C1017 C1014 1.403 . S
C1017 C1018 1.392 . S
C1017 C1021 1.495 . S
C1018 C1017 1.392 . S
C1018 C1019 1.385 . S
C1018 C1020 1.478 . S
C1019 H1013 0.930 . S
C1019 C1015 1.400 . S
C1019 C1018 1.385 . S
C1020 C1018 1.478 . S
C1020 C1022 1.381 . S
C1020 C1026 1.383 . S
C1021 C1017 1.495 . S
C1021 H1027 0.959 . S
C1021 H1028 0.961 . S
C1021 H1029 0.960 . S
C1022 C1020 1.381 . S
C1022 C1023 1.394 . S
C1022 H1030 0.930 . S
C1023 C1022 1.394 . S
C1023 C1024 1.383 . S
C1023 H1031 0.929 . S
C1024 C1023 1.383 . S
C1024 C1025 1.377 . S
C1025 H1009 0.930 . S
C1025 C1024 1.377 . S
C1025 C1026 1.379 . S
C1026 H1010 0.931 . S
C1026 C1020 1.383 . S
C1026 C1025 1.379 . S
H1027 C1021 0.959 . S
H1028 C1021 0.961 . S
H1029 C1021 0.960 . S
H1030 C1022 0.930 . S
H1031 C1023 0.929 . S
C177 C4 0.730 . S
C196 C144 0.453 . S
C213 C158 0.787 . S
C232 C18 0.882 . S
C249 C88 0.740 . S
C268 C32 0.574 . S
C285 C46 0.728 . S
C304 C102 0.473 . S
C321 C60 0.815 . S
C340 C116 0.728 . S
C357 C130 0.730 . S
C376 C74 0.559 . S
C393 C11 0.953 . S
C412 C109 0.856 . S
C429 C123 0.843 . S
C448 C25 0.772 . S
C465 C137 0.969 . S
C484 C39 0.903 . S
C501 C53 0.958 . S
C520 C151 0.950 . S
C537 C165 0.843 . S
C556 C67 0.765 . S
C573 C81 0.887 . S
C592 C95 1.004 . S
C609 C54 0.228 . S
C628 C12 0.154 . S
C645 C68 0.389 . S
C664 C26 0.360 . S
C681 C82 0.624 . S
C700 C40 0.528 . S
C717 C96 0.235 . S
C736 C138 0.269 . S
C753 C110 0.593 . S
C772 C152 0.669 . S
C789 C124 0.391 . S
C808 C166 0.439 . S
C825 C117 0.930 . S
C844 C5 0.939 . S
C861 C131 0.984 . S
C880 C19 0.879 . S
C897 C145 1.214 . S
C916 C33 1.169 . S
C933 C159 0.947 . S
C952 C47 0.899 . S
C969 C89 0.984 . S
C988 C61 0.884 . S
C1005 C75 1.200 . S
C1024 C103 1.242 . S
