# Generated by pormake.
# Topology umx, (4)-cn, num edge types: 1
# Building blocks:
#     Node 0, Type 0, BuildingBlock: ICAMEG_clean_sbu_1, # of connection points: 4
#     Node 1, Type 0, BuildingBlock: ICAMEG_clean_sbu_1, # of connection points: 4
#     Node 2, Type 0, BuildingBlock: ICAMEG_clean_sbu_1, # of connection points: 4
#     Node 3, Type 0, BuildingBlock: ICAMEG_clean_sbu_1, # of connection points: 4
#     Node 4, Type 0, BuildingBlock: ICAMEG_clean_sbu_1, # of connection points: 4
#     Node 5, Type 0, BuildingBlock: ICAMEG_clean_sbu_1, # of connection points: 4
#     Node 6, Type 0, BuildingBlock: ICAMEG_clean_sbu_1, # of connection points: 4
#     Node 7, Type 0, BuildingBlock: ICAMEG_clean_sbu_1, # of connection points: 4
#     Edge 8, Type (0, 0), BuildingBlock: OJICUG_clean_linker_0, # of connection points: 2
#     Edge 9, Type (0, 0), BuildingBlock: OJICUG_clean_linker_0, # of connection points: 2
#     Edge 10, Type (0, 0), BuildingBlock: OJICUG_clean_linker_0, # of connection points: 2
#     Edge 11, Type (0, 0), BuildingBlock: OJICUG_clean_linker_0, # of connection points: 2
#     Edge 12, Type (0, 0), BuildingBlock: OJICUG_clean_linker_0, # of connection points: 2
#     Edge 13, Type (0, 0), BuildingBlock: OJICUG_clean_linker_0, # of connection points: 2
#     Edge 14, Type (0, 0), BuildingBlock: OJICUG_clean_linker_0, # of connection points: 2
#     Edge 15, Type (0, 0), BuildingBlock: OJICUG_clean_linker_0, # of connection points: 2
#     Edge 16, Type (0, 0), BuildingBlock: OJICUG_clean_linker_0, # of connection points: 2
#     Edge 17, Type (0, 0), BuildingBlock: OJICUG_clean_linker_0, # of connection points: 2
#     Edge 18, Type (0, 0), BuildingBlock: OJICUG_clean_linker_0, # of connection points: 2
#     Edge 19, Type (0, 0), BuildingBlock: OJICUG_clean_linker_0, # of connection points: 2
#     Edge 20, Type (0, 0), BuildingBlock: OJICUG_clean_linker_0, # of connection points: 2
#     Edge 21, Type (0, 0), BuildingBlock: OJICUG_clean_linker_0, # of connection points: 2
#     Edge 22, Type (0, 0), BuildingBlock: OJICUG_clean_linker_0, # of connection points: 2
#     Edge 23, Type (0, 0), BuildingBlock: OJICUG_clean_linker_0, # of connection points: 2
# Relax obj value: 0.036
# Max RMSD: 0.110
# Mean RMSD: 0.110
data_MOF--net-umx--node1-ICAMEG_clean_sbu_1--edge1-OJICUG_clean_linker_0
_symmetry_space_group_name_H-M    P1
_symmetry_Int_Tables_number       1
_symmetry_cell_setting            triclinic
loop_
_symmetry_equiv_pos_as_xyz
'x, y, z'
_cell_length_a     30.94648
_cell_length_b     30.944273
_cell_length_c     22.394655
_cell_angle_alpha  90.000207
_cell_angle_beta   89.992215
_cell_angle_gamma 89.980561
loop_
_atom_site_label
_atom_site_type_symbol
_atom_site_fract_x
_atom_site_fract_y
_atom_site_fract_z
_atom_type_partial_charge
Co0 Co 0.1854 0.5111 0.03437 0.0
Co1 Co 0.16126 0.4078 0.08156 0.0
O2 O 0.18813 0.44851 0.02672 0.0
C3 C 0.14945 0.49584 0.9142 0.0
O4 O 0.12049 0.47092 0.93959 0.0
C5 C 0.25339 0.38086 0.07307 0.0
O6 O 0.26426 0.4214 0.08155 0.0
O7 O 0.18646 0.43849 0.15204 0.0
O8 O 0.19256 0.50777 0.12289 0.0
H9 H 0.07736 0.36438 0.26396 0.0
H10 H 0.24725 0.47147 0.94906 0.0
O11 O 0.178 0.51503 0.94549 0.0
H12 H 0.33673 0.55532 0.08964 0.0
H13 H 0.2179 0.66324 0.96884 0.0
H14 H 0.14282 0.57262 0.1173 0.0
H15 H 0.25736 0.55425 0.09972 0.0
H16 H 0.22157 0.5837 0.96274 0.0
O17 O 0.21376 0.36975 0.07526 0.0
H18 H 0.11036 0.4157 0.19304 0.0
H19 H 0.15718 0.31152 0.08785 0.0
H20 H 0.13853 0.65199 0.12535 0.0
H21 H 0.32647 0.47195 0.93706 0.0
H22 H 0.17627 0.69787 0.05074 0.0
H23 H 0.37178 0.51398 0.0078 0.0
O24 O 0.12161 0.50935 0.04546 0.0
H25 H 0.16412 0.34414 0.87508 0.0
H26 H 0.07413 0.37231 0.05248 0.0
H27 H 0.0416 0.33714 0.96451 0.0
H28 H 0.08676 0.32276 0.87496 0.0
H29 H 0.19514 0.37967 0.96378 0.0
H30 H 0.12499 0.25905 0.15787 0.0
H31 H 0.08458 0.28543 0.24653 0.0
O32 O 0.10774 0.44449 0.08687 0.0
C33 C 0.19379 0.47841 0.16288 0.0
C34 C 0.09476 0.35249 0.22538 0.0
C35 C 0.12156 0.29338 0.16589 0.0
N36 N 0.13536 0.36662 0.13615 0.0
C37 C 0.1134 0.38139 0.18498 0.0
C38 C 0.13981 0.32323 0.12649 0.0
C39 C 0.09887 0.3082 0.21561 0.0
C40 C 0.2667 0.49025 0.9796 0.0
N41 N 0.24768 0.51301 0.02481 0.0
C42 C 0.31156 0.49022 0.97276 0.0
C43 C 0.33697 0.51375 0.01253 0.0
C44 C 0.31733 0.53692 0.05849 0.0
C45 C 0.27238 0.53612 0.06405 0.0
C46 C 0.2014 0.6436 1.00168 0.0
C47 C 0.15955 0.59237 0.0849 0.0
C48 C 0.2033 0.59856 0.99839 0.0
N49 N 0.18274 0.57358 0.03993 0.0
C50 C 0.1569 0.63729 0.08958 0.0
C51 C 0.17805 0.66301 0.04766 0.0
C52 C 0.09596 0.48203 0.06933 0.0
C53 C 0.1441 0.35023 0.91381 0.0
C54 C 0.09384 0.36652 0.01354 0.0
C55 C 0.07533 0.34638 0.96395 0.0
C56 C 0.10069 0.33829 0.91375 0.0
N57 N 0.13641 0.37823 0.01325 0.0
C58 C 0.16151 0.37026 0.96425 0.0
Co59 Co 0.50046 0.18506 0.53443 0.0
Co60 Co 0.60365 0.16074 0.58192 0.0
O61 O 0.56305 0.18764 0.52695 0.0
C62 C 0.5159 0.1491 0.41426 0.0
O63 O 0.54072 0.12005 0.43968 0.0
C64 C 0.6305 0.25285 0.57352 0.0
O65 O 0.58994 0.26367 0.58204 0.0
O66 O 0.57285 0.18598 0.65229 0.0
O67 O 0.50363 0.19226 0.62298 0.0
H68 H 0.64669 0.07686 0.7645 0.0
H69 H 0.54034 0.2468 0.44925 0.0
O70 O 0.49668 0.17766 0.44554 0.0
H71 H 0.45632 0.3365 0.58945 0.0
H72 H 0.34849 0.21774 0.46831 0.0
H73 H 0.43875 0.14264 0.61721 0.0
H74 H 0.45726 0.25713 0.59958 0.0
H75 H 0.42804 0.22131 0.46252 0.0
O76 O 0.64169 0.21322 0.57573 0.0
H77 H 0.59552 0.10981 0.69332 0.0
H78 H 0.69992 0.15668 0.58864 0.0
H79 H 0.35936 0.13845 0.62495 0.0
H80 H 0.54001 0.32602 0.43722 0.0
H81 H 0.31366 0.17619 0.55012 0.0
H82 H 0.49789 0.37144 0.50777 0.0
O83 O 0.50213 0.12126 0.54555 0.0
H84 H 0.66774 0.16351 0.37567 0.0
H85 H 0.63934 0.07363 0.55308 0.0
H86 H 0.67479 0.04107 0.46531 0.0
H87 H 0.68928 0.08617 0.37576 0.0
H88 H 0.63194 0.19456 0.46417 0.0
H89 H 0.75224 0.12454 0.65893 0.0
H90 H 0.72567 0.08413 0.74747 0.0
O91 O 0.56695 0.10724 0.58704 0.0
C92 C 0.53294 0.19344 0.66303 0.0
C93 C 0.65866 0.09426 0.72598 0.0
C94 C 0.7179 0.12108 0.66677 0.0
N95 N 0.64473 0.13483 0.63667 0.0
C96 C 0.62985 0.11286 0.68543 0.0
C97 C 0.68813 0.13931 0.62722 0.0
C98 C 0.70297 0.0984 0.71643 0.0
C99 C 0.52152 0.2663 0.4797 0.0
N100 N 0.49864 0.24734 0.52483 0.0
C101 C 0.52163 0.31116 0.47284 0.0
C102 C 0.49806 0.33663 0.51252 0.0
C103 C 0.47476 0.31705 0.55839 0.0
C104 C 0.47548 0.2721 0.56397 0.0
C105 C 0.36805 0.20123 0.50126 0.0
C106 C 0.41908 0.15938 0.58471 0.0
C107 C 0.41309 0.20308 0.49814 0.0
N108 N 0.43797 0.18252 0.53979 0.0
C109 C 0.37415 0.15678 0.58922 0.0
C110 C 0.34853 0.17793 0.54718 0.0
C111 C 0.52941 0.09555 0.56942 0.0
C112 C 0.6616 0.14352 0.4144 0.0
C113 C 0.64518 0.09331 0.51413 0.0
C114 C 0.66546 0.07478 0.46465 0.0
C115 C 0.67363 0.10012 0.41446 0.0
N116 N 0.63337 0.13586 0.51372 0.0
C117 C 0.64141 0.16094 0.46473 0.0
Co118 Co 0.82519 0.49984 0.03442 0.0
Co119 Co 0.84959 0.60306 0.08159 0.0
O120 O 0.82264 0.56242 0.02676 0.0
C121 C 0.86107 0.51509 0.91422 0.0
O122 O 0.89011 0.53992 0.93959 0.0
C123 C 0.75756 0.63016 0.07303 0.0
O124 O 0.74665 0.58966 0.08172 0.0
O125 O 0.82422 0.57248 0.15205 0.0
O126 O 0.81806 0.5032 0.12296 0.0
H127 H 0.93349 0.64631 0.26404 0.0
H128 H 0.76342 0.53965 0.9492 0.0
O129 O 0.83253 0.4959 0.94554 0.0
H130 H 0.67376 0.45607 0.08989 0.0
H131 H 0.79221 0.34779 0.96898 0.0
H132 H 0.86766 0.43821 0.11729 0.0
H133 H 0.75313 0.45689 0.09986 0.0
H134 H 0.78878 0.42735 0.96285 0.0
O135 O 0.79721 0.64125 0.07518 0.0
H136 H 0.90037 0.59505 0.19314 0.0
H137 H 0.85395 0.69933 0.08781 0.0
H138 H 0.87171 0.35883 0.12536 0.0
H139 H 0.68419 0.53944 0.93733 0.0
H140 H 0.83378 0.31305 0.05083 0.0
H141 H 0.63879 0.49755 0.00813 0.0
O142 O 0.889 0.50143 0.04543 0.0
H143 H 0.84712 0.66665 0.87506 0.0
H144 H 0.93686 0.63824 0.05259 0.0
H145 H 0.96959 0.67326 0.96463 0.0
H146 H 0.92456 0.68775 0.87502 0.0
H147 H 0.8159 0.63127 0.96375 0.0
H148 H 0.88626 0.75173 0.15781 0.0
H149 H 0.92653 0.72527 0.24652 0.0
O150 O 0.90298 0.56621 0.08701 0.0
C151 C 0.81681 0.53259 0.16292 0.0
C152 C 0.91615 0.65823 0.22543 0.0
C153 C 0.88957 0.7174 0.16586 0.0
N154 N 0.87557 0.64419 0.13618 0.0
C155 C 0.89745 0.62937 0.18505 0.0
C156 C 0.87125 0.68759 0.12647 0.0
C157 C 0.91219 0.70253 0.21562 0.0
C158 C 0.74392 0.52093 0.97976 0.0
N159 N 0.7629 0.4981 0.02494 0.0
C160 C 0.69906 0.52111 0.97299 0.0
C161 C 0.6736 0.49766 0.0128 0.0
C162 C 0.6932 0.47441 0.05872 0.0
C163 C 0.73815 0.47507 0.06421 0.0
C164 C 0.80879 0.36739 1.00179 0.0
C165 C 0.85085 0.41851 0.08492 0.0
C166 C 0.80702 0.41243 0.99849 0.0
N167 N 0.82768 0.43736 0.03999 0.0
C168 C 0.85336 0.37358 0.08961 0.0
C169 C 0.83211 0.34791 0.04774 0.0
C170 C 0.9147 0.52866 0.06939 0.0
C171 C 0.86708 0.66051 0.91382 0.0
C172 C 0.9172 0.64409 0.01362 0.0
C173 C 0.93583 0.66413 0.96403 0.0
C174 C 0.91054 0.6723 0.9138 0.0
N175 N 0.8746 0.63252 0.01329 0.0
C176 C 0.84956 0.64057 0.96426 0.0
Co177 Co 0.51048 0.82488 0.53352 0.0
Co178 Co 0.40757 0.84974 0.58147 0.0
O179 O 0.44787 0.82267 0.52626 0.0
C180 C 0.49502 0.86086 0.41342 0.0
O181 O 0.47041 0.89003 0.43896 0.0
C182 C 0.38007 0.75788 0.5729 0.0
O183 O 0.42054 0.74683 0.58155 0.0
O184 O 0.43824 0.82406 0.65159 0.0
O185 O 0.50743 0.8178 0.62212 0.0
H186 H 0.36541 0.93345 0.76461 0.0
H187 H 0.47008 0.76332 0.44857 0.0
O188 O 0.51415 0.8322 0.44461 0.0
H189 H 0.55362 0.67319 0.58877 0.0
H190 H 0.6621 0.791 0.46698 0.0
H191 H 0.57263 0.86711 0.61585 0.0
H192 H 0.55329 0.75258 0.59868 0.0
H193 H 0.58251 0.78799 0.46148 0.0
O194 O 0.36911 0.79758 0.57507 0.0
H195 H 0.41623 0.90024 0.69318 0.0
H196 H 0.31135 0.85464 0.58838 0.0
H197 H 0.65206 0.87074 0.62329 0.0
H198 H 0.4698 0.68408 0.43677 0.0
H199 H 0.69736 0.83248 0.54848 0.0
H200 H 0.51167 0.63845 0.50733 0.0
O201 O 0.50921 0.8887 0.54455 0.0
H202 H 0.34315 0.84812 0.37541 0.0
H203 H 0.37283 0.93731 0.55307 0.0
H204 H 0.33765 0.97046 0.46553 0.0
H205 H 0.32252 0.9257 0.37586 0.0
H206 H 0.37871 0.81648 0.46369 0.0
H207 H 0.25937 0.88707 0.65892 0.0
H208 H 0.28635 0.92697 0.74765 0.0
O209 O 0.44473 0.9029 0.58688 0.0
C210 C 0.47815 0.81659 0.66223 0.0
C211 C 0.35326 0.91628 0.72601 0.0
C212 C 0.29374 0.89018 0.66673 0.0
N213 N 0.36677 0.87584 0.63645 0.0
C214 C 0.38187 0.89752 0.68532 0.0
C215 C 0.32332 0.87179 0.62704 0.0
C216 C 0.3089 0.91258 0.7165 0.0
C217 C 0.4888 0.74372 0.47902 0.0
N218 N 0.51189 0.76258 0.52404 0.0
C219 C 0.48834 0.69885 0.47229 0.0
C220 C 0.51178 0.67326 0.51197 0.0
C221 C 0.53529 0.69274 0.55771 0.0
C222 C 0.53491 0.7377 0.56317 0.0
C223 C 0.64271 0.80772 0.49992 0.0
C224 C 0.59213 0.85015 0.58337 0.0
C225 C 0.59765 0.80619 0.49697 0.0
N226 N 0.57299 0.82703 0.53863 0.0
C227 C 0.63709 0.85243 0.5877 0.0
C228 C 0.66248 0.83099 0.54567 0.0
C229 C 0.48222 0.91448 0.56891 0.0
C230 C 0.34957 0.86796 0.41421 0.0
C231 C 0.3667 0.91777 0.51408 0.0
C232 C 0.34657 0.93664 0.46473 0.0
C233 C 0.33804 0.9115 0.41446 0.0
N234 N 0.378 0.87508 0.51348 0.0
C235 C 0.36961 0.8502 0.46442 0.0
Co236 Co 0.18508 0.50086 0.5384 0.0
Co237 Co 0.16037 0.60398 0.49105 0.0
O238 O 0.18743 0.56345 0.54595 0.0
C239 C 0.14914 0.51605 0.65863 0.0
O240 O 0.11998 0.54077 0.63327 0.0
C241 C 0.25237 0.63102 0.49919 0.0
O242 O 0.26319 0.5905 0.49034 0.0
O243 O 0.18568 0.57334 0.4206 0.0
O244 O 0.19221 0.50413 0.44986 0.0
H245 H 0.07612 0.64694 0.30875 0.0
H246 H 0.24671 0.54096 0.62353 0.0
O247 O 0.17776 0.49697 0.62729 0.0
H248 H 0.33669 0.45753 0.483 0.0
H249 H 0.21856 0.34897 0.60415 0.0
H250 H 0.14282 0.43903 0.45565 0.0
H251 H 0.2573 0.45802 0.47309 0.0
H252 H 0.22174 0.42853 0.6101 0.0
O253 O 0.21273 0.64219 0.49727 0.0
H254 H 0.10941 0.5958 0.37967 0.0
H255 H 0.15591 0.70024 0.48458 0.0
H256 H 0.13901 0.35963 0.44775 0.0
H257 H 0.32593 0.54107 0.63534 0.0
H258 H 0.17709 0.31403 0.52238 0.0
H259 H 0.3715 0.49925 0.56461 0.0
O260 O 0.12127 0.50229 0.52736 0.0
H261 H 0.16297 0.66796 0.69736 0.0
H262 H 0.07306 0.63909 0.52015 0.0
H263 H 0.04038 0.67426 0.60805 0.0
H264 H 0.0855 0.68899 0.6975 0.0
H265 H 0.19414 0.63243 0.60874 0.0
H266 H 0.12343 0.75253 0.41455 0.0
H267 H 0.08303 0.72593 0.32603 0.0
O268 O 0.10703 0.56705 0.48586 0.0
C269 C 0.19328 0.53346 0.40982 0.0
C270 C 0.09352 0.65893 0.34727 0.0
C271 C 0.12014 0.71819 0.4066 0.0
N272 N 0.13427 0.64502 0.43642 0.0
C273 C 0.11232 0.63013 0.38766 0.0
C274 C 0.13856 0.68843 0.446 0.0
C275 C 0.09745 0.70324 0.35695 0.0
C276 C 0.26627 0.52226 0.59301 0.0
N277 N 0.24738 0.4993 0.5479 0.0
C278 C 0.31114 0.52262 0.59974 0.0
C279 C 0.33668 0.49922 0.55997 0.0
C280 C 0.31717 0.47583 0.51413 0.0
C281 C 0.27222 0.4763 0.50868 0.0
C282 C 0.20191 0.36849 0.57129 0.0
C283 C 0.15969 0.41941 0.48806 0.0
C284 C 0.20354 0.41354 0.5745 0.0
N285 N 0.1828 0.43836 0.53296 0.0
C286 C 0.15732 0.37446 0.48347 0.0
C287 C 0.17865 0.3489 0.52539 0.0
C288 C 0.09546 0.52947 0.50348 0.0
C289 C 0.14297 0.66172 0.65867 0.0
C290 C 0.09276 0.64504 0.55905 0.0
C291 C 0.07416 0.66517 0.6086 0.0
C292 C 0.09949 0.67347 0.65874 0.0
N293 N 0.13539 0.63352 0.55933 0.0
C294 C 0.16047 0.64169 0.60827 0.0
Co295 Co 0.51094 0.18533 0.03846 0.0
Co296 Co 0.4076 0.16109 0.99161 0.0
O297 O 0.44837 0.18797 0.04631 0.0
C298 C 0.49591 0.14927 0.15865 0.0
O299 O 0.47103 0.12026 0.13329 0.0
C300 C 0.3807 0.25322 1.00009 0.0
O301 O 0.42122 0.26404 0.99135 0.0
O302 O 0.43814 0.1863 0.921 0.0
O303 O 0.50745 0.19256 0.94996 0.0
H304 H 0.36385 0.0771 0.80946 0.0
H305 H 0.47135 0.24706 0.12397 0.0
O306 O 0.51501 0.17787 0.12733 0.0
H307 H 0.55482 0.33678 0.98323 0.0
H308 H 0.66313 0.21801 0.10349 0.0
H309 H 0.57237 0.14291 0.95525 0.0
H310 H 0.55388 0.25741 0.97307 0.0
H311 H 0.58359 0.22154 0.1099 0.0
O312 O 0.36954 0.21359 0.99805 0.0
H313 H 0.4153 0.11018 0.88011 0.0
H314 H 0.31132 0.15696 0.98572 0.0
H315 H 0.65172 0.13877 0.94689 0.0
H316 H 0.47169 0.32627 0.13604 0.0
H317 H 0.69768 0.17653 0.02138 0.0
H318 H 0.51353 0.37171 0.06522 0.0
O319 O 0.50925 0.12153 0.02728 0.0
H320 H 0.34428 0.1639 0.19832 0.0
H321 H 0.37232 0.0739 0.02089 0.0
H322 H 0.33736 0.04133 0.10901 0.0
H323 H 0.32306 0.0865 0.19857 0.0
H324 H 0.3796 0.19496 0.10947 0.0
H325 H 0.25873 0.12469 0.91598 0.0
H326 H 0.28494 0.08426 0.82724 0.0
O327 O 0.44432 0.1076 0.98616 0.0
C328 C 0.47802 0.19373 0.91005 0.0
C329 C 0.35203 0.09451 0.84807 0.0
C330 C 0.29303 0.12129 0.90781 0.0
N331 N 0.36632 0.13516 0.9372 0.0
C332 C 0.38101 0.11319 0.88832 0.0
C333 C 0.32296 0.13959 0.94705 0.0
C334 C 0.30776 0.09859 0.85804 0.0
C335 C 0.49005 0.26656 0.0934 0.0
N336 N 0.51278 0.24761 0.04809 0.0
C337 C 0.48994 0.31142 0.10028 0.0
C338 C 0.51336 0.3369 0.06046 0.0
C339 C 0.5365 0.31733 0.01441 0.0
C340 C 0.53578 0.27238 0.00881 0.0
C341 C 0.64345 0.2015 0.07069 0.0
C342 C 0.59214 0.15964 0.98761 0.0
C343 C 0.59842 0.20332 0.07416 0.0
N344 N 0.5734 0.18276 0.03269 0.0
C345 C 0.63706 0.15708 0.98275 0.0
C346 C 0.66282 0.17823 0.0246 0.0
C347 C 0.48191 0.09586 1.00351 0.0
C348 C 0.35034 0.14389 0.15957 0.0
C349 C 0.36654 0.09362 0.05983 0.0
C350 C 0.34654 0.07508 0.10951 0.0
C351 C 0.33848 0.10045 0.15971 0.0
N352 N 0.37818 0.13621 0.06004 0.0
C353 C 0.37024 0.16132 0.10904 0.0
Co354 Co 0.8248 0.51057 0.53847 0.0
Co355 Co 0.84963 0.40743 0.4913 0.0
O356 O 0.82252 0.44798 0.54613 0.0
C357 C 0.86085 0.49539 0.65858 0.0
O358 O 0.88992 0.47062 0.63311 0.0
C359 C 0.75766 0.38021 0.49964 0.0
O360 O 0.74671 0.4207 0.49081 0.0
O361 O 0.82427 0.43797 0.42081 0.0
O362 O 0.81763 0.50721 0.44994 0.0
H363 H 0.93387 0.36439 0.30901 0.0
H364 H 0.76327 0.4705 0.62379 0.0
O365 O 0.8322 0.51452 0.62735 0.0
H366 H 0.67311 0.55367 0.48321 0.0
H367 H 0.79112 0.66246 0.60401 0.0
H368 H 0.86694 0.57239 0.45557 0.0
H369 H 0.75249 0.55323 0.47317 0.0
H370 H 0.78809 0.58289 0.61012 0.0
O371 O 0.79732 0.36915 0.49762 0.0
H372 H 0.90054 0.41556 0.37987 0.0
H373 H 0.85422 0.31117 0.48503 0.0
H374 H 0.87059 0.65179 0.44751 0.0
H375 H 0.68405 0.47032 0.63574 0.0
H376 H 0.83247 0.69739 0.5221 0.0
H377 H 0.6384 0.51201 0.56498 0.0
O378 O 0.88861 0.50922 0.52734 0.0
H379 H 0.8471 0.34368 0.69776 0.0
H380 H 0.93698 0.37247 0.52045 0.0
H381 H 0.9697 0.33745 0.60842 0.0
H382 H 0.9246 0.32277 0.69792 0.0
H383 H 0.81589 0.37907 0.60906 0.0
H384 H 0.88675 0.25885 0.41508 0.0
H385 H 0.92708 0.28541 0.32646 0.0
O386 O 0.90291 0.44441 0.486 0.0
C387 C 0.81663 0.47782 0.40996 0.0
C388 C 0.91651 0.35242 0.34758 0.0
C389 C 0.89 0.29319 0.40705 0.0
N390 N 0.87577 0.36636 0.43675 0.0
C391 C 0.89769 0.38124 0.38793 0.0
C392 C 0.87155 0.32296 0.44642 0.0
C393 C 0.91264 0.30811 0.35735 0.0
C394 C 0.74367 0.48914 0.59326 0.0
N395 N 0.76251 0.51206 0.54806 0.0
C396 C 0.69881 0.48874 0.60007 0.0
C397 C 0.67321 0.51207 0.56028 0.0
C398 C 0.69266 0.53542 0.51436 0.0
C399 C 0.73762 0.53498 0.50883 0.0
C400 C 0.80778 0.64294 0.57117 0.0
C401 C 0.85005 0.59201 0.48797 0.0
C402 C 0.80624 0.59789 0.57446 0.0
N403 N 0.827 0.57306 0.53293 0.0
C404 C 0.85233 0.63696 0.48328 0.0
C405 C 0.83098 0.66252 0.52518 0.0
C406 C 0.91444 0.48203 0.5035 0.0
C407 C 0.86709 0.34991 0.65904 0.0
C408 C 0.91729 0.36653 0.55937 0.0
C409 C 0.93592 0.3465 0.60896 0.0
C410 C 0.91059 0.33823 0.65913 0.0
N411 N 0.87464 0.37799 0.55963 0.0
C412 C 0.84957 0.36985 0.6086 0.0
Co413 Co 0.50001 0.82501 0.03757 0.0
Co414 Co 0.60329 0.84964 0.99087 0.0
O415 O 0.56257 0.82257 0.04548 0.0
C416 C 0.51491 0.86094 0.15781 0.0
O417 O 0.53979 0.88998 0.13252 0.0
C418 C 0.63038 0.7576 0.99917 0.0
O419 O 0.5899 0.74673 0.99026 0.0
O420 O 0.57289 0.8244 0.92018 0.0
O421 O 0.50359 0.81787 0.94907 0.0
H422 H 0.64691 0.93404 0.809 0.0
H423 H 0.53975 0.76332 0.12298 0.0
O424 O 0.49583 0.83236 0.12643 0.0
H425 H 0.45677 0.67346 0.98189 0.0
H426 H 0.34787 0.79165 0.10223 0.0
H427 H 0.43851 0.86734 0.95439 0.0
H428 H 0.45737 0.75284 0.97197 0.0
H429 H 0.42741 0.78844 0.1088 0.0
O430 O 0.64148 0.79725 0.99724 0.0
H431 H 0.59552 0.90068 0.87949 0.0
H432 H 0.69956 0.85406 0.98507 0.0
H433 H 0.35915 0.87116 0.94588 0.0
H434 H 0.53975 0.68409 0.13481 0.0
H435 H 0.31326 0.83311 0.02016 0.0
H436 H 0.49816 0.63859 0.06381 0.0
O437 O 0.50149 0.88883 0.02655 0.0
H438 H 0.66647 0.84679 0.19763 0.0
H439 H 0.63829 0.9369 0.02038 0.0
H440 H 0.67307 0.96948 0.10861 0.0
H441 H 0.68745 0.92426 0.19808 0.0
H442 H 0.63132 0.81572 0.10868 0.0
H443 H 0.7521 0.88661 0.91549 0.0
H444 H 0.72583 0.92711 0.82685 0.0
O445 O 0.56641 0.90302 0.9855 0.0
C446 C 0.53304 0.81681 0.9092 0.0
C447 C 0.65876 0.9166 0.84757 0.0
C448 C 0.71779 0.88991 0.90729 0.0
N449 N 0.64453 0.87576 0.93655 0.0
C450 C 0.62981 0.89776 0.88772 0.0
C451 C 0.6879 0.87145 0.94644 0.0
C452 C 0.70303 0.91265 0.85758 0.0
C453 C 0.52115 0.74379 0.09234 0.0
N454 N 0.49837 0.76271 0.04707 0.0
C455 C 0.52145 0.69892 0.09908 0.0
C456 C 0.49817 0.6734 0.05916 0.0
C457 C 0.47497 0.69294 0.01315 0.0
C458 C 0.4755 0.7379 0.00769 0.0
C459 C 0.36752 0.80829 0.06952 0.0
C460 C 0.41876 0.85048 0.98667 0.0
C461 C 0.41255 0.80665 0.07308 0.0
N462 N 0.43754 0.82737 0.03172 0.0
C463 C 0.37384 0.85287 0.98172 0.0
C464 C 0.34812 0.83154 0.02345 0.0
C465 C 0.52877 0.91463 1.00288 0.0
C466 C 0.66038 0.86683 0.15892 0.0
C467 C 0.64409 0.91716 0.05928 0.0
C468 C 0.664 0.9357 0.10902 0.0
C469 C 0.6721 0.91031 0.15917 0.0
N470 N 0.63259 0.87453 0.05938 0.0
C471 C 0.64057 0.84939 0.10834 0.0
C472 C 0.20127 0.46185 0.27246 0.0
C473 C 0.20021 0.49229 0.2259 0.0
H474 H 0.20074 0.45082 0.36664 0.0
C475 C 0.20141 0.53656 0.24064 0.0
H476 H 0.20056 0.42753 0.26297 0.0
C477 C 0.20105 0.55002 0.30029 0.0
C478 C 0.19991 0.51959 0.34685 0.0
H479 H 0.20086 0.56106 0.20612 0.0
H480 H 0.20019 0.58434 0.30977 0.0
C481 C 0.20134 0.47532 0.33212 0.0
C482 C 0.54949 0.20141 0.77253 0.0
C483 C 0.51904 0.20003 0.72601 0.0
H484 H 0.56059 0.20136 0.86668 0.0
C485 C 0.47477 0.20115 0.74079 0.0
H486 H 0.58381 0.20079 0.76301 0.0
C487 C 0.46135 0.20102 0.80047 0.0
C488 C 0.49181 0.20021 0.847 0.0
H489 H 0.45027 0.20035 0.7063 0.0
H490 H 0.42704 0.20008 0.81 0.0
C491 C 0.53606 0.20171 0.8322 0.0
C492 C 0.80914 0.46113 0.30044 0.0
C493 C 0.81011 0.49162 0.34694 0.0
H494 H 0.80966 0.44998 0.20629 0.0
C495 C 0.80871 0.53587 0.3321 0.0
H496 H 0.80999 0.42682 0.31 0.0
C497 C 0.80898 0.54926 0.27241 0.0
C498 C 0.81022 0.51877 0.22592 0.0
H499 H 0.80918 0.56041 0.36657 0.0
H500 H 0.8097 0.58357 0.26285 0.0
C501 C 0.80898 0.47452 0.24075 0.0
C502 C 0.47508 0.8084 0.83137 0.0
C503 C 0.51932 0.8102 0.84616 0.0
H504 H 0.42734 0.80895 0.7622 0.0
C505 C 0.5498 0.8095 0.79963 0.0
H506 H 0.45055 0.80864 0.86586 0.0
C507 C 0.53637 0.80921 0.73995 0.0
C508 C 0.4921 0.81006 0.72519 0.0
H509 H 0.58409 0.81066 0.80916 0.0
H510 H 0.56088 0.81012 0.70545 0.0
C511 C 0.46166 0.80855 0.77171 0.0
C512 C 0.9001 0.50261 0.75532 0.0
C513 C 0.86091 0.50058 0.72389 0.0
H514 H 0.93076 0.51001 0.84062 0.0
C515 C 0.82177 0.50325 0.75539 0.0
H516 H 0.93066 0.50072 0.73186 0.0
C517 C 0.82183 0.50714 0.81757 0.0
C518 C 0.86102 0.50992 0.8489 0.0
H519 H 0.79115 0.50155 0.73203 0.0
H520 H 0.79125 0.50873 0.84106 0.0
C521 C 0.90015 0.50803 0.8173 0.0
C522 C 0.50673 0.82175 0.25447 0.0
C523 C 0.50959 0.86093 0.2231 0.0
H524 H 0.50106 0.79112 0.34004 0.0
C525 C 0.50767 0.90008 0.25466 0.0
H526 H 0.50833 0.79116 0.23103 0.0
C527 C 0.50219 0.90006 0.31662 0.0
C528 C 0.50013 0.86089 0.3481 0.0
H529 H 0.5097 0.93067 0.2313 0.0
H530 H 0.50032 0.93064 0.34004 0.0
C531 C 0.50278 0.82173 0.31665 0.0
C532 C 0.18848 0.5041 0.81742 0.0
C533 C 0.14936 0.50116 0.8489 0.0
H534 H 0.21897 0.50992 0.73178 0.0
C535 C 0.11016 0.50309 0.81747 0.0
H536 H 0.21911 0.5025 0.84077 0.0
C537 C 0.11008 0.50866 0.75552 0.0
C538 C 0.1492 0.51081 0.72393 0.0
H539 H 0.0796 0.50101 0.84092 0.0
H540 H 0.07946 0.51054 0.7322 0.0
C541 C 0.18841 0.50813 0.75526 0.0
C542 C 0.50878 0.10998 0.31737 0.0
C543 C 0.51074 0.14912 0.34894 0.0
H544 H 0.50133 0.07945 0.23197 0.0
C545 C 0.50795 0.18831 0.31757 0.0
H546 H 0.51076 0.07938 0.34072 0.0
C547 C 0.50398 0.18836 0.2554 0.0
C548 C 0.50123 0.14921 0.22394 0.0
H549 H 0.50959 0.2189 0.34103 0.0
H550 H 0.50228 0.21897 0.23203 0.0
C551 C 0.50327 0.11003 0.25541 0.0
C552 C 0.9932 0.54879 0.07599 0.0
C553 C 0.96102 0.51674 0.07418 0.0
H554 H 0.06093 0.56303 0.07496 0.0
C555 C 0.97367 0.4731 0.07435 0.0
H556 H 0.98472 0.58267 0.07626 0.0
C557 C 0.01745 0.46182 0.07514 0.0
C558 C 0.04963 0.49388 0.07415 0.0
H559 H 0.94973 0.44759 0.07351 0.0
H560 H 0.02594 0.42794 0.0747 0.0
C561 C 0.03698 0.53751 0.07516 0.0
C562 C 0.53803 0.97323 0.57289 0.0
C563 C 0.49435 0.96073 0.57382 0.0
H564 H 0.58334 0.02534 0.57244 0.0
C565 C 0.46245 0.99303 0.5769 0.0
H566 H 0.56346 0.9492 0.57104 0.0
C567 C 0.47386 0.03677 0.57621 0.0
C568 C 0.5175 0.04926 0.57411 0.0
H569 H 0.42856 0.98468 0.57808 0.0
H570 H 0.44843 0.06082 0.57699 0.0
C571 C 0.54946 0.01696 0.57383 0.0
C572 C 0.03677 0.4737 0.49806 0.0
C573 C 0.0492 0.51739 0.49872 0.0
H574 H 0.98474 0.42831 0.49729 0.0
C575 C 0.01685 0.5493 0.49739 0.0
H576 H 0.06084 0.44829 0.49852 0.0
C577 C 0.97313 0.53783 0.49819 0.0
C578 C 0.9607 0.49413 0.49872 0.0
H579 H 0.02517 0.58322 0.49754 0.0
H580 H 0.94906 0.56324 0.49877 0.0
C581 C 0.99305 0.46223 0.49725 0.0
C582 C 0.47315 0.97355 0.99796 0.0
C583 C 0.5168 0.96095 0.99821 0.0
H584 H 0.42792 0.02577 0.9977 0.0
C585 C 0.5488 0.99318 0.99663 0.0
H586 H 0.44766 0.94957 0.99863 0.0
C587 C 0.53747 0.03694 0.9976 0.0
C588 C 0.49382 0.04954 0.99856 0.0
H589 H 0.58269 0.98474 0.99643 0.0
H590 H 0.56296 0.06092 0.99797 0.0
C591 C 0.46181 0.01732 0.99733 0.0
C592 C 0.32979 0.36033 0.04591 0.0
C593 C 0.2865 0.34833 0.05573 0.0
H594 H 0.39343 0.33995 0.02027 0.0
C595 C 0.27454 0.30503 0.04616 0.0
H596 H 0.34008 0.39345 0.05242 0.0
C597 C 0.30498 0.2745 0.02739 0.0
C598 C 0.34826 0.2864 0.0175 0.0
H599 H 0.2415 0.29457 0.05296 0.0
H600 H 0.29448 0.24145 0.02083 0.0
C601 C 0.36033 0.3297 0.02703 0.0
C602 C 0.68129 0.35975 0.52684 0.0
C603 C 0.72461 0.34774 0.51724 0.0
H604 H 0.61764 0.33945 0.55253 0.0
C605 C 0.73663 0.30451 0.52731 0.0
H606 H 0.67094 0.39282 0.51995 0.0
C607 C 0.70623 0.27407 0.54633 0.0
C608 C 0.66291 0.28597 0.55598 0.0
H609 H 0.7697 0.29406 0.52071 0.0
H610 H 0.71678 0.24106 0.55326 0.0
C611 C 0.65078 0.32921 0.54598 0.0
C612 C 0.73647 0.70594 0.04576 0.0
C613 C 0.7245 0.66265 0.05546 0.0
H614 H 0.71656 0.76945 0.02011 0.0
C615 C 0.68123 0.65062 0.04552 0.0
H616 H 0.76949 0.71641 0.05264 0.0
C617 C 0.65073 0.68119 0.02639 0.0
C618 C 0.66281 0.72448 0.01675 0.0
H619 H 0.67093 0.61751 0.05211 0.0
H620 H 0.61764 0.67091 0.01955 0.0
C621 C 0.70606 0.73641 0.02676 0.0
C622 C 0.35943 0.68162 0.54546 0.0
C623 C 0.3475 0.72492 0.55534 0.0
H624 H 0.339 0.61806 0.51959 0.0
C625 C 0.30424 0.73702 0.54561 0.0
H626 H 0.39251 0.67121 0.55209 0.0
C627 C 0.27371 0.70669 0.52665 0.0
C628 C 0.28554 0.66338 0.51671 0.0
H629 H 0.29385 0.77008 0.55245 0.0
H630 H 0.24069 0.71727 0.51998 0.0
C631 C 0.3288 0.65119 0.52638 0.0
loop_
_geom_bond_atom_site_label_1
_geom_bond_atom_site_label_2
_geom_bond_distance
_geom_bond_site_symmetry_2
_ccdc_geom_bond_type
Co0 O2 2.143 . S
Co0 O8 2.074 . S
Co0 O11 2.093 1_554 S
Co0 O24 2.097 . S
Co0 N41 2.151 . S
Co0 N49 2.214 . S
Co1 O2 2.160 . S
Co1 O7 2.058 . S
Co1 O17 2.057 . S
Co1 O32 2.037 . S
Co1 N36 2.145 . S
Co1 N57 2.256 . S
O2 Co0 2.143 . S
O2 Co1 2.160 . S
C3 O4 1.278 . S
C3 O11 1.224 . S
O4 C3 1.278 . S
C5 O6 1.245 . S
C5 O17 1.232 . S
O6 C5 1.245 . S
O7 Co1 2.058 . S
O7 C33 1.269 . S
O8 Co0 2.074 . S
O8 C33 1.257 . S
H9 C34 0.930 . S
H10 C40 0.930 . S
O11 Co0 2.093 1_556 S
O11 C3 1.224 . S
H12 C44 0.929 . S
H13 C46 0.927 1_556 S
H14 C47 0.930 . S
H15 C45 0.929 . S
H16 C48 0.928 1_556 S
O17 Co1 2.057 . S
O17 C5 1.232 . S
H18 C37 0.929 . S
H19 C38 0.929 . S
H20 C50 0.931 . S
H21 C42 0.929 . S
H22 C51 0.930 . S
H23 C43 0.931 . S
O24 Co0 2.097 . S
O24 C52 1.214 . S
H25 C53 0.929 . S
H26 C54 0.929 1_554 S
H27 C55 0.930 . S
H28 C56 0.929 . S
H29 C58 0.930 . S
H30 C35 0.930 . S
H31 C39 0.930 . S
O32 Co1 2.037 . S
O32 C52 1.234 . S
C33 O7 1.269 . S
C33 O8 1.257 . S
C34 H9 0.930 . S
C34 C37 1.388 . S
C34 C39 1.418 . S
C35 H30 0.930 . S
C35 C38 1.404 . S
C35 C39 1.353 . S
N36 Co1 2.145 . S
N36 C37 1.397 . S
N36 C38 1.334 . S
C37 H18 0.929 . S
C37 C34 1.388 . S
C37 N36 1.397 . S
C38 H19 0.929 . S
C38 C35 1.404 . S
C38 N36 1.334 . S
C39 H31 0.930 . S
C39 C34 1.418 . S
C39 C35 1.353 . S
C40 H10 0.930 . S
C40 N41 1.330 1_556 S
C40 C42 1.446 . S
N41 Co0 2.151 . S
N41 C40 1.330 1_554 S
N41 C45 1.418 . S
C42 H21 0.929 . S
C42 C40 1.446 . S
C42 C43 1.332 1_556 S
C43 H23 0.931 . S
C43 C42 1.332 1_554 S
C43 C44 1.267 . S
C44 H12 0.929 . S
C44 C43 1.267 . S
C44 C45 1.251 . S
C45 H15 0.929 . S
C45 N41 1.418 . S
C45 C44 1.251 . S
C46 H13 0.927 1_554 S
C46 C48 1.406 . S
C46 C51 1.261 . S
C47 H14 0.930 . S
C47 N49 1.325 . S
C47 C50 1.357 . S
C48 H16 0.928 1_554 S
C48 C46 1.406 . S
C48 N49 1.261 . S
N49 Co0 2.214 . S
N49 C47 1.325 . S
N49 C48 1.261 . S
C50 H20 0.931 . S
C50 C47 1.357 . S
C50 C51 1.312 . S
C51 H22 0.930 . S
C51 C46 1.261 . S
C51 C50 1.312 . S
C52 O24 1.214 . S
C52 O32 1.234 . S
C53 H25 0.929 . S
C53 C56 1.391 . S
C53 C58 1.391 . S
C54 H26 0.929 1_556 S
C54 C55 1.390 . S
C54 N57 1.391 1_556 S
C55 H27 0.930 . S
C55 C54 1.390 . S
C55 C56 1.392 . S
C56 H28 0.929 . S
C56 C53 1.391 . S
C56 C55 1.392 . S
N57 Co1 2.256 . S
N57 C54 1.391 1_554 S
N57 C58 1.389 1_554 S
C58 H29 0.930 . S
C58 C53 1.391 . S
C58 N57 1.389 1_556 S
Co59 O61 2.143 . S
Co59 O67 2.074 . S
Co59 O70 2.093 . S
Co59 O83 2.097 . S
Co59 N100 2.151 . S
Co59 N108 2.214 . S
Co60 O61 2.160 . S
Co60 O66 2.058 . S
Co60 O76 2.057 . S
Co60 O91 2.037 . S
Co60 N95 2.145 . S
Co60 N116 2.257 . S
O61 Co59 2.143 . S
O61 Co60 2.160 . S
C62 O63 1.278 . S
C62 O70 1.224 . S
O63 C62 1.278 . S
C64 O65 1.245 . S
C64 O76 1.232 . S
O65 C64 1.245 . S
O66 Co60 2.058 . S
O66 C92 1.269 . S
O67 Co59 2.074 . S
O67 C92 1.257 . S
H68 C93 0.930 . S
H69 C99 0.930 . S
O70 Co59 2.093 . S
O70 C62 1.224 . S
H71 C103 0.929 . S
H72 C105 0.930 . S
H73 C106 0.930 . S
H74 C104 0.929 . S
H75 C107 0.928 . S
O76 Co60 2.057 . S
O76 C64 1.232 . S
H77 C96 0.929 . S
H78 C97 0.929 . S
H79 C109 0.931 . S
H80 C101 0.929 . S
H81 C110 0.930 . S
H82 C102 0.931 . S
O83 Co59 2.097 . S
O83 C111 1.214 . S
H84 C112 0.929 . S
H85 C113 0.929 . S
H86 C114 0.930 . S
H87 C115 0.929 . S
H88 C117 0.930 . S
H89 C94 0.930 . S
H90 C98 0.930 . S
O91 Co60 2.037 . S
O91 C111 1.234 . S
C92 O66 1.269 . S
C92 O67 1.257 . S
C93 H68 0.930 . S
C93 C96 1.388 . S
C93 C98 1.418 . S
C94 H89 0.930 . S
C94 C97 1.404 . S
C94 C98 1.353 . S
N95 Co60 2.145 . S
N95 C96 1.397 . S
N95 C97 1.334 . S
C96 H77 0.929 . S
C96 C93 1.388 . S
C96 N95 1.397 . S
C97 H78 0.929 . S
C97 C94 1.404 . S
C97 N95 1.334 . S
C98 H90 0.930 . S
C98 C93 1.418 . S
C98 C94 1.353 . S
C99 H69 0.930 . S
C99 N100 1.330 . S
C99 C101 1.446 . S
N100 Co59 2.151 . S
N100 C99 1.330 . S
N100 C104 1.418 . S
C101 H80 0.929 . S
C101 C99 1.446 . S
C101 C102 1.332 . S
C102 H82 0.931 . S
C102 C101 1.332 . S
C102 C103 1.267 . S
C103 H71 0.929 . S
C103 C102 1.267 . S
C103 C104 1.251 . S
C104 H74 0.929 . S
C104 N100 1.418 . S
C104 C103 1.251 . S
C105 H72 0.930 . S
C105 C107 1.406 . S
C105 C110 1.261 . S
C106 H73 0.930 . S
C106 N108 1.325 . S
C106 C109 1.357 . S
C107 H75 0.928 . S
C107 C105 1.406 . S
C107 N108 1.261 . S
N108 Co59 2.214 . S
N108 C106 1.325 . S
N108 C107 1.261 . S
C109 H79 0.931 . S
C109 C106 1.357 . S
C109 C110 1.312 . S
C110 H81 0.930 . S
C110 C105 1.261 . S
C110 C109 1.312 . S
C111 O83 1.214 . S
C111 O91 1.234 . S
C112 H84 0.929 . S
C112 C115 1.391 . S
C112 C117 1.391 . S
C113 H85 0.929 . S
C113 C114 1.390 . S
C113 N116 1.391 . S
C114 H86 0.930 . S
C114 C113 1.390 . S
C114 C115 1.392 . S
C115 H87 0.929 . S
C115 C112 1.391 . S
C115 C114 1.392 . S
N116 Co60 2.257 . S
N116 C113 1.391 . S
N116 C117 1.388 . S
C117 H88 0.930 . S
C117 C112 1.391 . S
C117 N116 1.388 . S
Co118 O120 2.143 . S
Co118 O126 2.074 . S
Co118 O129 2.093 1_554 S
Co118 O142 2.097 . S
Co118 N159 2.151 . S
Co118 N167 2.214 . S
Co119 O120 2.160 . S
Co119 O125 2.058 . S
Co119 O135 2.057 . S
Co119 O150 2.037 . S
Co119 N154 2.145 . S
Co119 N175 2.256 . S
O120 Co118 2.143 . S
O120 Co119 2.160 . S
C121 O122 1.278 . S
C121 O129 1.224 . S
O122 C121 1.278 . S
C123 O124 1.245 . S
C123 O135 1.232 . S
O124 C123 1.245 . S
O125 Co119 2.058 . S
O125 C151 1.269 . S
O126 Co118 2.074 . S
O126 C151 1.257 . S
H127 C152 0.930 . S
H128 C158 0.930 . S
O129 Co118 2.093 1_556 S
O129 C121 1.224 . S
H130 C162 0.929 . S
H131 C164 0.927 1_556 S
H132 C165 0.930 . S
H133 C163 0.929 . S
H134 C166 0.928 1_556 S
O135 Co119 2.057 . S
O135 C123 1.232 . S
H136 C155 0.929 . S
H137 C156 0.929 . S
H138 C168 0.931 . S
H139 C160 0.929 . S
H140 C169 0.930 . S
H141 C161 0.931 . S
O142 Co118 2.097 . S
O142 C170 1.214 . S
H143 C171 0.929 . S
H144 C172 0.929 1_554 S
H145 C173 0.930 . S
H146 C174 0.929 . S
H147 C176 0.930 . S
H148 C153 0.930 . S
H149 C157 0.930 . S
O150 Co119 2.037 . S
O150 C170 1.234 . S
C151 O125 1.269 . S
C151 O126 1.257 . S
C152 H127 0.930 . S
C152 C155 1.388 . S
C152 C157 1.418 . S
C153 H148 0.930 . S
C153 C156 1.404 . S
C153 C157 1.353 . S
N154 Co119 2.145 . S
N154 C155 1.397 . S
N154 C156 1.334 . S
C155 H136 0.929 . S
C155 C152 1.388 . S
C155 N154 1.397 . S
C156 H137 0.929 . S
C156 C153 1.404 . S
C156 N154 1.334 . S
C157 H149 0.930 . S
C157 C152 1.418 . S
C157 C153 1.353 . S
C158 H128 0.930 . S
C158 N159 1.330 1_556 S
C158 C160 1.446 . S
N159 Co118 2.151 . S
N159 C158 1.330 1_554 S
N159 C163 1.418 . S
C160 H139 0.929 . S
C160 C158 1.446 . S
C160 C161 1.332 1_556 S
C161 H141 0.931 . S
C161 C160 1.332 1_554 S
C161 C162 1.267 . S
C162 H130 0.929 . S
C162 C161 1.267 . S
C162 C163 1.251 . S
C163 H133 0.929 . S
C163 N159 1.418 . S
C163 C162 1.251 . S
C164 H131 0.927 1_554 S
C164 C166 1.406 . S
C164 C169 1.261 . S
C165 H132 0.930 . S
C165 N167 1.325 . S
C165 C168 1.357 . S
C166 H134 0.928 1_554 S
C166 C164 1.406 . S
C166 N167 1.261 . S
N167 Co118 2.214 . S
N167 C165 1.325 . S
N167 C166 1.261 . S
C168 H138 0.931 . S
C168 C165 1.357 . S
C168 C169 1.312 . S
C169 H140 0.930 . S
C169 C164 1.261 . S
C169 C168 1.312 . S
C170 O142 1.214 . S
C170 O150 1.234 . S
C171 H143 0.929 . S
C171 C174 1.391 . S
C171 C176 1.391 . S
C172 H144 0.929 1_556 S
C172 C173 1.390 . S
C172 N175 1.391 1_556 S
C173 H145 0.930 . S
C173 C172 1.390 . S
C173 C174 1.392 . S
C174 H146 0.929 . S
C174 C171 1.391 . S
C174 C173 1.392 . S
N175 Co119 2.256 . S
N175 C172 1.391 1_554 S
N175 C176 1.389 1_554 S
C176 H147 0.930 . S
C176 C171 1.391 . S
C176 N175 1.389 1_556 S
Co177 O179 2.143 . S
Co177 O185 2.074 . S
Co177 O188 2.093 . S
Co177 O201 2.097 . S
Co177 N218 2.151 . S
Co177 N226 2.214 . S
Co178 O179 2.160 . S
Co178 O184 2.058 . S
Co178 O194 2.057 . S
Co178 O209 2.037 . S
Co178 N213 2.145 . S
Co178 N234 2.257 . S
O179 Co177 2.143 . S
O179 Co178 2.160 . S
C180 O181 1.278 . S
C180 O188 1.224 . S
O181 C180 1.278 . S
C182 O183 1.245 . S
C182 O194 1.232 . S
O183 C182 1.245 . S
O184 Co178 2.058 . S
O184 C210 1.269 . S
O185 Co177 2.074 . S
O185 C210 1.257 . S
H186 C211 0.930 . S
H187 C217 0.930 . S
O188 Co177 2.093 . S
O188 C180 1.224 . S
H189 C221 0.929 . S
H190 C223 0.930 . S
H191 C224 0.930 . S
H192 C222 0.929 . S
H193 C225 0.928 . S
O194 Co178 2.057 . S
O194 C182 1.232 . S
H195 C214 0.929 . S
H196 C215 0.929 . S
H197 C227 0.931 . S
H198 C219 0.929 . S
H199 C228 0.930 . S
H200 C220 0.931 . S
O201 Co177 2.097 . S
O201 C229 1.214 . S
H202 C230 0.929 . S
H203 C231 0.929 . S
H204 C232 0.930 . S
H205 C233 0.929 . S
H206 C235 0.930 . S
H207 C212 0.930 . S
H208 C216 0.930 . S
O209 Co178 2.037 . S
O209 C229 1.234 . S
C210 O184 1.269 . S
C210 O185 1.257 . S
C211 H186 0.930 . S
C211 C214 1.388 . S
C211 C216 1.418 . S
C212 H207 0.930 . S
C212 C215 1.404 . S
C212 C216 1.353 . S
N213 Co178 2.145 . S
N213 C214 1.397 . S
N213 C215 1.334 . S
C214 H195 0.929 . S
C214 C211 1.388 . S
C214 N213 1.397 . S
C215 H196 0.929 . S
C215 C212 1.404 . S
C215 N213 1.334 . S
C216 H208 0.930 . S
C216 C211 1.418 . S
C216 C212 1.353 . S
C217 H187 0.930 . S
C217 N218 1.330 . S
C217 C219 1.446 . S
N218 Co177 2.151 . S
N218 C217 1.330 . S
N218 C222 1.418 . S
C219 H198 0.929 . S
C219 C217 1.446 . S
C219 C220 1.332 . S
C220 H200 0.931 . S
C220 C219 1.332 . S
C220 C221 1.267 . S
C221 H189 0.929 . S
C221 C220 1.267 . S
C221 C222 1.251 . S
C222 H192 0.929 . S
C222 N218 1.418 . S
C222 C221 1.251 . S
C223 H190 0.930 . S
C223 C225 1.406 . S
C223 C228 1.261 . S
C224 H191 0.930 . S
C224 N226 1.325 . S
C224 C227 1.357 . S
C225 H193 0.928 . S
C225 C223 1.406 . S
C225 N226 1.261 . S
N226 Co177 2.214 . S
N226 C224 1.325 . S
N226 C225 1.261 . S
C227 H197 0.931 . S
C227 C224 1.357 . S
C227 C228 1.312 . S
C228 H199 0.930 . S
C228 C223 1.261 . S
C228 C227 1.312 . S
C229 O201 1.214 . S
C229 O209 1.234 . S
C230 H202 0.929 . S
C230 C233 1.391 . S
C230 C235 1.391 . S
C231 H203 0.929 . S
C231 C232 1.390 . S
C231 N234 1.391 . S
C232 H204 0.930 . S
C232 C231 1.390 . S
C232 C233 1.392 . S
C233 H205 0.929 . S
C233 C230 1.391 . S
C233 C232 1.392 . S
N234 Co178 2.257 . S
N234 C231 1.391 . S
N234 C235 1.388 . S
C235 H206 0.930 . S
C235 C230 1.391 . S
C235 N234 1.388 . S
Co236 O238 2.143 . S
Co236 O244 2.074 . S
Co236 O247 2.093 . S
Co236 O260 2.097 . S
Co236 N277 2.151 . S
Co236 N285 2.214 . S
Co237 O238 2.160 . S
Co237 O243 2.058 . S
Co237 O253 2.057 . S
Co237 O268 2.037 . S
Co237 N272 2.145 . S
Co237 N293 2.257 . S
O238 Co236 2.143 . S
O238 Co237 2.160 . S
C239 O240 1.278 . S
C239 O247 1.224 . S
O240 C239 1.278 . S
C241 O242 1.245 . S
C241 O253 1.232 . S
O242 C241 1.245 . S
O243 Co237 2.058 . S
O243 C269 1.269 . S
O244 Co236 2.074 . S
O244 C269 1.257 . S
H245 C270 0.930 . S
H246 C276 0.930 . S
O247 Co236 2.093 . S
O247 C239 1.224 . S
H248 C280 0.929 . S
H249 C282 0.930 . S
H250 C283 0.930 . S
H251 C281 0.929 . S
H252 C284 0.928 . S
O253 Co237 2.057 . S
O253 C241 1.232 . S
H254 C273 0.929 . S
H255 C274 0.929 . S
H256 C286 0.931 . S
H257 C278 0.929 . S
H258 C287 0.930 . S
H259 C279 0.931 . S
O260 Co236 2.097 . S
O260 C288 1.214 . S
H261 C289 0.929 . S
H262 C290 0.929 . S
H263 C291 0.930 . S
H264 C292 0.929 . S
H265 C294 0.930 . S
H266 C271 0.930 . S
H267 C275 0.930 . S
O268 Co237 2.037 . S
O268 C288 1.234 . S
C269 O243 1.269 . S
C269 O244 1.257 . S
C270 H245 0.930 . S
C270 C273 1.388 . S
C270 C275 1.418 . S
C271 H266 0.930 . S
C271 C274 1.404 . S
C271 C275 1.353 . S
N272 Co237 2.145 . S
N272 C273 1.397 . S
N272 C274 1.334 . S
C273 H254 0.929 . S
C273 C270 1.388 . S
C273 N272 1.397 . S
C274 H255 0.929 . S
C274 C271 1.404 . S
C274 N272 1.334 . S
C275 H267 0.930 . S
C275 C270 1.418 . S
C275 C271 1.353 . S
C276 H246 0.930 . S
C276 N277 1.330 . S
C276 C278 1.446 . S
N277 Co236 2.151 . S
N277 C276 1.330 . S
N277 C281 1.418 . S
C278 H257 0.929 . S
C278 C276 1.446 . S
C278 C279 1.332 . S
C279 H259 0.931 . S
C279 C278 1.332 . S
C279 C280 1.267 . S
C280 H248 0.929 . S
C280 C279 1.267 . S
C280 C281 1.251 . S
C281 H251 0.929 . S
C281 N277 1.418 . S
C281 C280 1.251 . S
C282 H249 0.930 . S
C282 C284 1.406 . S
C282 C287 1.261 . S
C283 H250 0.930 . S
C283 N285 1.325 . S
C283 C286 1.357 . S
C284 H252 0.928 . S
C284 C282 1.406 . S
C284 N285 1.261 . S
N285 Co236 2.214 . S
N285 C283 1.325 . S
N285 C284 1.261 . S
C286 H256 0.931 . S
C286 C283 1.357 . S
C286 C287 1.312 . S
C287 H258 0.930 . S
C287 C282 1.261 . S
C287 C286 1.312 . S
C288 O260 1.214 . S
C288 O268 1.234 . S
C289 H261 0.929 . S
C289 C292 1.391 . S
C289 C294 1.391 . S
C290 H262 0.929 . S
C290 C291 1.390 . S
C290 N293 1.391 . S
C291 H263 0.930 . S
C291 C290 1.390 . S
C291 C292 1.392 . S
C292 H264 0.929 . S
C292 C289 1.391 . S
C292 C291 1.392 . S
N293 Co237 2.257 . S
N293 C290 1.391 . S
N293 C294 1.388 . S
C294 H265 0.930 . S
C294 C289 1.391 . S
C294 N293 1.388 . S
Co295 O297 2.143 . S
Co295 O303 2.074 1_554 S
Co295 O306 2.093 . S
Co295 O319 2.097 . S
Co295 N336 2.151 . S
Co295 N344 2.214 . S
Co296 O297 2.160 1_556 S
Co296 O302 2.058 . S
Co296 O312 2.057 . S
Co296 O327 2.037 . S
Co296 N331 2.145 . S
Co296 N352 2.257 1_556 S
O297 Co295 2.143 . S
O297 Co296 2.160 1_554 S
C298 O299 1.278 . S
C298 O306 1.224 . S
O299 C298 1.278 . S
C300 O301 1.245 . S
C300 O312 1.232 1_554 S
O301 C300 1.245 . S
O302 Co296 2.058 . S
O302 C328 1.269 . S
O303 Co295 2.074 1_556 S
O303 C328 1.257 . S
H304 C329 0.930 . S
H305 C335 0.930 . S
O306 Co295 2.093 . S
O306 C298 1.224 . S
H307 C339 0.929 . S
H308 C341 0.930 . S
H309 C342 0.930 . S
H310 C340 0.929 . S
H311 C343 0.928 . S
O312 Co296 2.057 . S
O312 C300 1.232 1_556 S
H313 C332 0.929 . S
H314 C333 0.929 . S
H315 C345 0.931 . S
H316 C337 0.929 . S
H317 C346 0.930 . S
H318 C338 0.931 . S
O319 Co295 2.097 . S
O319 C347 1.214 . S
H320 C348 0.929 . S
H321 C349 0.929 . S
H322 C350 0.930 . S
H323 C351 0.929 . S
H324 C353 0.930 . S
H325 C330 0.930 . S
H326 C334 0.930 . S
O327 Co296 2.037 . S
O327 C347 1.234 1_556 S
C328 O302 1.269 . S
C328 O303 1.257 . S
C329 H304 0.930 . S
C329 C332 1.388 . S
C329 C334 1.418 . S
C330 H325 0.930 . S
C330 C333 1.404 . S
C330 C334 1.353 . S
N331 Co296 2.145 . S
N331 C332 1.397 . S
N331 C333 1.334 . S
C332 H313 0.929 . S
C332 C329 1.388 . S
C332 N331 1.397 . S
C333 H314 0.929 . S
C333 C330 1.404 . S
C333 N331 1.334 . S
C334 H326 0.930 . S
C334 C329 1.418 . S
C334 C330 1.353 . S
C335 H305 0.930 . S
C335 N336 1.330 . S
C335 C337 1.446 . S
N336 Co295 2.151 . S
N336 C335 1.330 . S
N336 C340 1.418 1_554 S
C337 H316 0.929 . S
C337 C335 1.446 . S
C337 C338 1.332 . S
C338 H318 0.931 . S
C338 C337 1.332 . S
C338 C339 1.267 1_554 S
C339 H307 0.929 . S
C339 C338 1.267 1_556 S
C339 C340 1.251 . S
C340 H310 0.929 . S
C340 N336 1.418 1_556 S
C340 C339 1.251 . S
C341 H308 0.930 . S
C341 C343 1.406 . S
C341 C346 1.261 1_554 S
C342 H309 0.930 . S
C342 N344 1.325 1_556 S
C342 C345 1.357 . S
C343 H311 0.928 . S
C343 C341 1.406 . S
C343 N344 1.261 . S
N344 Co295 2.214 . S
N344 C342 1.325 1_554 S
N344 C343 1.261 . S
C345 H315 0.931 . S
C345 C342 1.357 . S
C345 C346 1.312 . S
C346 H317 0.930 . S
C346 C341 1.261 1_556 S
C346 C345 1.312 . S
C347 O319 1.214 . S
C347 O327 1.234 1_554 S
C348 H320 0.929 . S
C348 C351 1.391 . S
C348 C353 1.391 . S
C349 H321 0.929 . S
C349 C350 1.390 . S
C349 N352 1.391 . S
C350 H322 0.930 . S
C350 C349 1.390 . S
C350 C351 1.392 . S
C351 H323 0.929 . S
C351 C348 1.391 . S
C351 C350 1.392 . S
N352 Co296 2.257 1_554 S
N352 C349 1.391 . S
N352 C353 1.388 . S
C353 H324 0.930 . S
C353 C348 1.391 . S
C353 N352 1.388 . S
Co354 O356 2.143 . S
Co354 O362 2.074 . S
Co354 O365 2.093 . S
Co354 O378 2.097 . S
Co354 N395 2.151 . S
Co354 N403 2.214 . S
Co355 O356 2.160 . S
Co355 O361 2.058 . S
Co355 O371 2.057 . S
Co355 O386 2.037 . S
Co355 N390 2.145 . S
Co355 N411 2.257 . S
O356 Co354 2.143 . S
O356 Co355 2.160 . S
C357 O358 1.278 . S
C357 O365 1.224 . S
O358 C357 1.278 . S
C359 O360 1.245 . S
C359 O371 1.232 . S
O360 C359 1.245 . S
O361 Co355 2.058 . S
O361 C387 1.269 . S
O362 Co354 2.074 . S
O362 C387 1.257 . S
H363 C388 0.930 . S
H364 C394 0.930 . S
O365 Co354 2.093 . S
O365 C357 1.224 . S
H366 C398 0.929 . S
H367 C400 0.930 . S
H368 C401 0.930 . S
H369 C399 0.929 . S
H370 C402 0.928 . S
O371 Co355 2.057 . S
O371 C359 1.232 . S
H372 C391 0.929 . S
H373 C392 0.929 . S
H374 C404 0.931 . S
H375 C396 0.929 . S
H376 C405 0.930 . S
H377 C397 0.931 . S
O378 Co354 2.097 . S
O378 C406 1.214 . S
H379 C407 0.929 . S
H380 C408 0.929 . S
H381 C409 0.930 . S
H382 C410 0.929 . S
H383 C412 0.930 . S
H384 C389 0.930 . S
H385 C393 0.930 . S
O386 Co355 2.037 . S
O386 C406 1.234 . S
C387 O361 1.269 . S
C387 O362 1.257 . S
C388 H363 0.930 . S
C388 C391 1.388 . S
C388 C393 1.418 . S
C389 H384 0.930 . S
C389 C392 1.404 . S
C389 C393 1.353 . S
N390 Co355 2.145 . S
N390 C391 1.397 . S
N390 C392 1.334 . S
C391 H372 0.929 . S
C391 C388 1.388 . S
C391 N390 1.397 . S
C392 H373 0.929 . S
C392 C389 1.404 . S
C392 N390 1.334 . S
C393 H385 0.930 . S
C393 C388 1.418 . S
C393 C389 1.353 . S
C394 H364 0.930 . S
C394 N395 1.330 . S
C394 C396 1.446 . S
N395 Co354 2.151 . S
N395 C394 1.330 . S
N395 C399 1.418 . S
C396 H375 0.929 . S
C396 C394 1.446 . S
C396 C397 1.332 . S
C397 H377 0.931 . S
C397 C396 1.332 . S
C397 C398 1.267 . S
C398 H366 0.929 . S
C398 C397 1.267 . S
C398 C399 1.251 . S
C399 H369 0.929 . S
C399 N395 1.418 . S
C399 C398 1.251 . S
C400 H367 0.930 . S
C400 C402 1.406 . S
C400 C405 1.261 . S
C401 H368 0.930 . S
C401 N403 1.325 . S
C401 C404 1.357 . S
C402 H370 0.928 . S
C402 C400 1.406 . S
C402 N403 1.261 . S
N403 Co354 2.214 . S
N403 C401 1.325 . S
N403 C402 1.261 . S
C404 H374 0.931 . S
C404 C401 1.357 . S
C404 C405 1.312 . S
C405 H376 0.930 . S
C405 C400 1.261 . S
C405 C404 1.312 . S
C406 O378 1.214 . S
C406 O386 1.234 . S
C407 H379 0.929 . S
C407 C410 1.391 . S
C407 C412 1.391 . S
C408 H380 0.929 . S
C408 C409 1.390 . S
C408 N411 1.391 . S
C409 H381 0.930 . S
C409 C408 1.390 . S
C409 C410 1.392 . S
C410 H382 0.929 . S
C410 C407 1.391 . S
C410 C409 1.392 . S
N411 Co355 2.257 . S
N411 C408 1.391 . S
N411 C412 1.388 . S
C412 H383 0.930 . S
C412 C407 1.391 . S
C412 N411 1.388 . S
Co413 O415 2.143 . S
Co413 O421 2.074 1_554 S
Co413 O424 2.093 . S
Co413 O437 2.097 . S
Co413 N454 2.151 . S
Co413 N462 2.214 . S
Co414 O415 2.160 1_556 S
Co414 O420 2.058 . S
Co414 O430 2.057 . S
Co414 O445 2.037 . S
Co414 N449 2.145 . S
Co414 N470 2.257 1_556 S
O415 Co413 2.143 . S
O415 Co414 2.160 1_554 S
C416 O417 1.278 . S
C416 O424 1.224 . S
O417 C416 1.278 . S
C418 O419 1.245 . S
C418 O430 1.232 1_554 S
O419 C418 1.245 . S
O420 Co414 2.058 . S
O420 C446 1.269 . S
O421 Co413 2.074 1_556 S
O421 C446 1.257 . S
H422 C447 0.930 . S
H423 C453 0.930 . S
O424 Co413 2.093 . S
O424 C416 1.224 . S
H425 C457 0.929 . S
H426 C459 0.930 . S
H427 C460 0.930 . S
H428 C458 0.929 . S
H429 C461 0.928 . S
O430 Co414 2.057 . S
O430 C418 1.232 1_556 S
H431 C450 0.929 . S
H432 C451 0.929 . S
H433 C463 0.931 . S
H434 C455 0.929 . S
H435 C464 0.930 . S
H436 C456 0.931 . S
O437 Co413 2.097 . S
O437 C465 1.214 . S
H438 C466 0.929 . S
H439 C467 0.929 . S
H440 C468 0.930 . S
H441 C469 0.929 . S
H442 C471 0.930 . S
H443 C448 0.930 . S
H444 C452 0.930 . S
O445 Co414 2.037 . S
O445 C465 1.234 1_556 S
C446 O420 1.269 . S
C446 O421 1.257 . S
C447 H422 0.930 . S
C447 C450 1.388 . S
C447 C452 1.418 . S
C448 H443 0.930 . S
C448 C451 1.404 . S
C448 C452 1.353 . S
N449 Co414 2.145 . S
N449 C450 1.397 . S
N449 C451 1.334 . S
C450 H431 0.929 . S
C450 C447 1.388 . S
C450 N449 1.397 . S
C451 H432 0.929 . S
C451 C448 1.404 . S
C451 N449 1.334 . S
C452 H444 0.930 . S
C452 C447 1.418 . S
C452 C448 1.353 . S
C453 H423 0.930 . S
C453 N454 1.330 . S
C453 C455 1.446 . S
N454 Co413 2.151 . S
N454 C453 1.330 . S
N454 C458 1.418 1_554 S
C455 H434 0.929 . S
C455 C453 1.446 . S
C455 C456 1.332 . S
C456 H436 0.931 . S
C456 C455 1.332 . S
C456 C457 1.267 1_554 S
C457 H425 0.929 . S
C457 C456 1.267 1_556 S
C457 C458 1.251 . S
C458 H428 0.929 . S
C458 N454 1.418 1_556 S
C458 C457 1.251 . S
C459 H426 0.930 . S
C459 C461 1.406 . S
C459 C464 1.261 1_554 S
C460 H427 0.930 . S
C460 N462 1.325 1_556 S
C460 C463 1.357 . S
C461 H429 0.928 . S
C461 C459 1.406 . S
C461 N462 1.261 . S
N462 Co413 2.214 . S
N462 C460 1.325 1_554 S
N462 C461 1.261 . S
C463 H433 0.931 . S
C463 C460 1.357 . S
C463 C464 1.312 . S
C464 H435 0.930 . S
C464 C459 1.261 1_556 S
C464 C463 1.312 . S
C465 O437 1.214 . S
C465 O445 1.234 1_554 S
C466 H438 0.929 . S
C466 C469 1.391 . S
C466 C471 1.391 . S
C467 H439 0.929 . S
C467 C468 1.390 . S
C467 N470 1.391 . S
C468 H440 0.930 . S
C468 C467 1.390 . S
C468 C469 1.392 . S
C469 H441 0.929 . S
C469 C466 1.391 . S
C469 C468 1.392 . S
N470 Co414 2.257 1_554 S
N470 C467 1.391 . S
N470 C471 1.388 . S
C471 H442 0.930 . S
C471 C466 1.391 . S
C471 N470 1.388 . S
C472 C473 1.387 . S
C472 H476 0.950 . S
C472 C481 1.390 . S
C473 C472 1.387 . S
C473 C475 1.387 . S
H474 C481 0.950 . S
C475 C473 1.387 . S
C475 C477 1.390 . S
C475 H479 0.950 . S
H476 C472 0.950 . S
C477 C475 1.390 . S
C477 C478 1.387 . S
C477 H480 0.950 . S
C478 C477 1.387 . S
C478 C481 1.387 . S
H479 C475 0.950 . S
H480 C477 0.950 . S
C481 C472 1.390 . S
C481 H474 0.950 . S
C481 C478 1.387 . S
C482 C483 1.387 . S
C482 H486 0.950 . S
C482 C491 1.390 . S
C483 C482 1.387 . S
C483 C485 1.387 . S
H484 C491 0.950 . S
C485 C483 1.387 . S
C485 C487 1.390 . S
C485 H489 0.950 . S
H486 C482 0.950 . S
C487 C485 1.390 . S
C487 C488 1.387 . S
C487 H490 0.950 . S
C488 C487 1.387 . S
C488 C491 1.387 . S
H489 C485 0.950 . S
H490 C487 0.950 . S
C491 C482 1.390 . S
C491 H484 0.950 . S
C491 C488 1.387 . S
C492 C493 1.387 . S
C492 H496 0.950 . S
C492 C501 1.390 . S
C493 C492 1.387 . S
C493 C495 1.387 . S
H494 C501 0.950 . S
C495 C493 1.387 . S
C495 C497 1.390 . S
C495 H499 0.950 . S
H496 C492 0.950 . S
C497 C495 1.390 . S
C497 C498 1.387 . S
C497 H500 0.950 . S
C498 C497 1.387 . S
C498 C501 1.387 . S
H499 C495 0.950 . S
H500 C497 0.950 . S
C501 C492 1.390 . S
C501 H494 0.950 . S
C501 C498 1.387 . S
C502 C503 1.387 . S
C502 H506 0.950 . S
C502 C511 1.390 . S
C503 C502 1.387 . S
C503 C505 1.387 . S
H504 C511 0.950 . S
C505 C503 1.387 . S
C505 C507 1.390 . S
C505 H509 0.950 . S
H506 C502 0.950 . S
C507 C505 1.390 . S
C507 C508 1.387 . S
C507 H510 0.950 . S
C508 C507 1.387 . S
C508 C511 1.387 . S
H509 C505 0.950 . S
H510 C507 0.950 . S
C511 C502 1.390 . S
C511 H504 0.950 . S
C511 C508 1.387 . S
C512 C513 1.387 . S
C512 H516 0.950 . S
C512 C521 1.390 . S
C513 C512 1.387 . S
C513 C515 1.387 . S
H514 C521 0.950 . S
C515 C513 1.387 . S
C515 C517 1.390 . S
C515 H519 0.950 . S
H516 C512 0.950 . S
C517 C515 1.390 . S
C517 C518 1.387 . S
C517 H520 0.950 . S
C518 C517 1.387 . S
C518 C521 1.387 . S
H519 C515 0.950 . S
H520 C517 0.950 . S
C521 C512 1.390 . S
C521 H514 0.950 . S
C521 C518 1.387 . S
C522 C523 1.387 . S
C522 H526 0.950 . S
C522 C531 1.390 . S
C523 C522 1.387 . S
C523 C525 1.387 . S
H524 C531 0.950 . S
C525 C523 1.387 . S
C525 C527 1.390 . S
C525 H529 0.950 . S
H526 C522 0.950 . S
C527 C525 1.390 . S
C527 C528 1.387 . S
C527 H530 0.950 . S
C528 C527 1.387 . S
C528 C531 1.387 . S
H529 C525 0.950 . S
H530 C527 0.950 . S
C531 C522 1.390 . S
C531 H524 0.950 . S
C531 C528 1.387 . S
C532 C533 1.387 . S
C532 H536 0.950 . S
C532 C541 1.390 . S
C533 C532 1.387 . S
C533 C535 1.387 . S
H534 C541 0.950 . S
C535 C533 1.387 . S
C535 C537 1.390 . S
C535 H539 0.950 . S
H536 C532 0.950 . S
C537 C535 1.390 . S
C537 C538 1.387 . S
C537 H540 0.950 . S
C538 C537 1.387 . S
C538 C541 1.387 . S
H539 C535 0.950 . S
H540 C537 0.950 . S
C541 C532 1.390 . S
C541 H534 0.950 . S
C541 C538 1.387 . S
C542 C543 1.387 . S
C542 H546 0.950 . S
C542 C551 1.390 . S
C543 C542 1.387 . S
C543 C545 1.387 . S
H544 C551 0.950 . S
C545 C543 1.387 . S
C545 C547 1.390 . S
C545 H549 0.950 . S
H546 C542 0.950 . S
C547 C545 1.390 . S
C547 C548 1.387 . S
C547 H550 0.950 . S
C548 C547 1.387 . S
C548 C551 1.387 . S
H549 C545 0.950 . S
H550 C547 0.950 . S
C551 C542 1.390 . S
C551 H544 0.950 . S
C551 C548 1.387 . S
C552 C553 1.387 . S
C552 H556 0.950 . S
C552 C561 1.390 1_655 S
C553 C552 1.387 . S
C553 C555 1.387 . S
H554 C561 0.950 . S
C555 C553 1.387 . S
C555 C557 1.390 1_655 S
C555 H559 0.950 1_554 S
H556 C552 0.950 . S
C557 C555 1.390 1_455 S
C557 C558 1.387 . S
C557 H560 0.950 1_554 S
C558 C557 1.387 . S
C558 C561 1.387 . S
H559 C555 0.950 1_556 S
H560 C557 0.950 1_556 S
C561 C552 1.390 1_455 S
C561 H554 0.950 . S
C561 C558 1.387 . S
C562 C563 1.387 . S
C562 H566 0.950 . S
C562 C571 1.390 1_565 S
C563 C562 1.387 . S
C563 C565 1.387 . S
H564 C571 0.950 . S
C565 C563 1.387 . S
C565 C567 1.390 1_565 S
C565 H569 0.950 . S
H566 C562 0.950 . S
C567 C565 1.390 1_545 S
C567 C568 1.387 . S
C567 H570 0.950 . S
C568 C567 1.387 . S
C568 C571 1.387 . S
H569 C565 0.950 . S
H570 C567 0.950 . S
C571 C562 1.390 1_545 S
C571 H564 0.950 . S
C571 C568 1.387 . S
C572 C573 1.387 . S
C572 H576 0.950 . S
C572 C581 1.390 1_455 S
C573 C572 1.387 . S
C573 C575 1.387 . S
H574 C581 0.950 . S
C575 C573 1.387 . S
C575 C577 1.390 1_455 S
C575 H579 0.950 . S
H576 C572 0.950 . S
C577 C575 1.390 1_655 S
C577 C578 1.387 . S
C577 H580 0.950 . S
C578 C577 1.387 . S
C578 C581 1.387 . S
H579 C575 0.950 . S
H580 C577 0.950 . S
C581 C572 1.390 1_655 S
C581 H574 0.950 . S
C581 C578 1.387 . S
C582 C583 1.387 . S
C582 H586 0.950 . S
C582 C591 1.390 1_565 S
C583 C582 1.387 . S
C583 C585 1.387 1_554 S
H584 C591 0.950 . S
C585 C583 1.387 1_556 S
C585 C587 1.390 1_565 S
C585 H589 0.950 . S
H586 C582 0.950 . S
C587 C585 1.390 1_545 S
C587 C588 1.387 1_556 S
C587 H590 0.950 . S
C588 C587 1.387 1_554 S
C588 C591 1.387 . S
H589 C585 0.950 . S
H590 C587 0.950 . S
C591 C582 1.390 1_545 S
C591 H584 0.950 . S
C591 C588 1.387 . S
C592 C593 1.387 . S
C592 H596 0.950 . S
C592 C601 1.390 . S
C593 C592 1.387 . S
C593 C595 1.387 1_554 S
H594 C601 0.950 . S
C595 C593 1.387 1_556 S
C595 C597 1.390 . S
C595 H599 0.950 . S
H596 C592 0.950 . S
C597 C595 1.390 . S
C597 C598 1.387 1_556 S
C597 H600 0.950 . S
C598 C597 1.387 1_554 S
C598 C601 1.387 . S
H599 C595 0.950 . S
H600 C597 0.950 . S
C601 C592 1.390 . S
C601 H594 0.950 . S
C601 C598 1.387 . S
C602 C603 1.387 . S
C602 H606 0.950 . S
C602 C611 1.390 . S
C603 C602 1.387 . S
C603 C605 1.387 . S
H604 C611 0.950 . S
C605 C603 1.387 . S
C605 C607 1.390 . S
C605 H609 0.950 . S
H606 C602 0.950 . S
C607 C605 1.390 . S
C607 C608 1.387 . S
C607 H610 0.950 . S
C608 C607 1.387 . S
C608 C611 1.387 . S
H609 C605 0.950 . S
H610 C607 0.950 . S
C611 C602 1.390 . S
C611 H604 0.950 . S
C611 C608 1.387 . S
C612 C613 1.387 . S
C612 H616 0.950 . S
C612 C621 1.390 . S
C613 C612 1.387 . S
C613 C615 1.387 1_554 S
H614 C621 0.950 . S
C615 C613 1.387 1_556 S
C615 C617 1.390 . S
C615 H619 0.950 . S
H616 C612 0.950 . S
C617 C615 1.390 . S
C617 C618 1.387 1_556 S
C617 H620 0.950 . S
C618 C617 1.387 1_554 S
C618 C621 1.387 . S
H619 C615 0.950 . S
H620 C617 0.950 . S
C621 C612 1.390 . S
C621 H614 0.950 . S
C621 C618 1.387 . S
C622 C623 1.387 . S
C622 H626 0.950 . S
C622 C631 1.390 . S
C623 C622 1.387 . S
C623 C625 1.387 . S
H624 C631 0.950 . S
C625 C623 1.387 . S
C625 C627 1.390 . S
C625 H629 0.950 . S
H626 C622 0.950 . S
C627 C625 1.390 . S
C627 C628 1.387 . S
C627 H630 0.950 . S
C628 C627 1.387 . S
C628 C631 1.387 . S
H629 C625 0.950 . S
H630 C627 0.950 . S
C631 C622 1.390 . S
C631 H624 0.950 . S
C631 C628 1.387 . S
C473 C33 1.532 . S
C478 C269 1.532 . S
C483 C92 1.530 . S
C488 C328 1.530 . S
C493 C387 1.532 . S
C498 C151 1.532 . S
C503 C446 1.532 . S
C508 C210 1.532 . S
C513 C357 1.323 . S
C518 C121 1.323 . S
C523 C416 1.325 . S
C528 C180 1.325 . S
C533 C3 1.325 . S
C538 C239 1.325 . S
C543 C62 1.323 . S
C548 C298 1.323 . S
C553 C170 1.448 . S
C558 C52 1.448 . S
C563 C229 1.447 . S
C568 C111 1.447 . S
C573 C288 1.448 . S
C578 C406 1.448 . S
C583 C465 1.447 . S
C588 C347 1.447 . S
C593 C5 1.484 . S
C598 C300 1.484 . S
C603 C359 1.484 . S
C608 C64 1.483 . S
C613 C123 1.484 . S
C618 C418 1.484 . S
C623 C182 1.483 . S
C628 C241 1.484 . S
