# Generated by pormake.
# Topology wmt, (6)-cn, num edge types: 1
# Building blocks:
#     Node 0, Type 0, BuildingBlock: BETFAJ_clean_sbu_0, # of connection points: 6
#     Node 1, Type 0, BuildingBlock: BETFAJ_clean_sbu_0, # of connection points: 6
#     Node 2, Type 0, BuildingBlock: BETFAJ_clean_sbu_0, # of connection points: 6
#     Node 3, Type 0, BuildingBlock: BETFAJ_clean_sbu_0, # of connection points: 6
#     Node 4, Type 0, BuildingBlock: BETFAJ_clean_sbu_0, # of connection points: 6
#     Node 5, Type 0, BuildingBlock: BETFAJ_clean_sbu_0, # of connection points: 6
#     Node 6, Type 0, BuildingBlock: BETFAJ_clean_sbu_0, # of connection points: 6
#     Node 7, Type 0, BuildingBlock: BETFAJ_clean_sbu_0, # of connection points: 6
#     Node 8, Type 0, BuildingBlock: BETFAJ_clean_sbu_0, # of connection points: 6
#     Node 9, Type 0, BuildingBlock: BETFAJ_clean_sbu_0, # of connection points: 6
#     Node 10, Type 0, BuildingBlock: BETFAJ_clean_sbu_0, # of connection points: 6
#     Node 11, Type 0, BuildingBlock: BETFAJ_clean_sbu_0, # of connection points: 6
#     Node 12, Type 0, BuildingBlock: BETFAJ_clean_sbu_0, # of connection points: 6
#     Node 13, Type 0, BuildingBlock: BETFAJ_clean_sbu_0, # of connection points: 6
#     Node 14, Type 0, BuildingBlock: BETFAJ_clean_sbu_0, # of connection points: 6
#     Node 15, Type 0, BuildingBlock: BETFAJ_clean_sbu_0, # of connection points: 6
#     Node 16, Type 0, BuildingBlock: BETFAJ_clean_sbu_0, # of connection points: 6
#     Node 17, Type 0, BuildingBlock: BETFAJ_clean_sbu_0, # of connection points: 6
#     Node 18, Type 0, BuildingBlock: BETFAJ_clean_sbu_0, # of connection points: 6
#     Node 19, Type 0, BuildingBlock: BETFAJ_clean_sbu_0, # of connection points: 6
#     Node 20, Type 0, BuildingBlock: BETFAJ_clean_sbu_0, # of connection points: 6
#     Node 21, Type 0, BuildingBlock: BETFAJ_clean_sbu_0, # of connection points: 6
#     Node 22, Type 0, BuildingBlock: BETFAJ_clean_sbu_0, # of connection points: 6
#     Node 23, Type 0, BuildingBlock: BETFAJ_clean_sbu_0, # of connection points: 6
#     Node 24, Type 0, BuildingBlock: BETFAJ_clean_sbu_0, # of connection points: 6
#     Node 25, Type 0, BuildingBlock: BETFAJ_clean_sbu_0, # of connection points: 6
#     Node 26, Type 0, BuildingBlock: BETFAJ_clean_sbu_0, # of connection points: 6
#     Node 27, Type 0, BuildingBlock: BETFAJ_clean_sbu_0, # of connection points: 6
#     Node 28, Type 0, BuildingBlock: BETFAJ_clean_sbu_0, # of connection points: 6
#     Node 29, Type 0, BuildingBlock: BETFAJ_clean_sbu_0, # of connection points: 6
#     Node 30, Type 0, BuildingBlock: BETFAJ_clean_sbu_0, # of connection points: 6
#     Node 31, Type 0, BuildingBlock: BETFAJ_clean_sbu_0, # of connection points: 6
#     Node 32, Type 0, BuildingBlock: BETFAJ_clean_sbu_0, # of connection points: 6
#     Node 33, Type 0, BuildingBlock: BETFAJ_clean_sbu_0, # of connection points: 6
#     Node 34, Type 0, BuildingBlock: BETFAJ_clean_sbu_0, # of connection points: 6
#     Node 35, Type 0, BuildingBlock: BETFAJ_clean_sbu_0, # of connection points: 6
#     Edge 36, Type (0, 0), BuildingBlock: CIFDUS_clean_linker_0, # of connection points: 2
#     Edge 37, Type (0, 0), BuildingBlock: CIFDUS_clean_linker_0, # of connection points: 2
#     Edge 38, Type (0, 0), BuildingBlock: CIFDUS_clean_linker_0, # of connection points: 2
#     Edge 39, Type (0, 0), BuildingBlock: CIFDUS_clean_linker_0, # of connection points: 2
#     Edge 40, Type (0, 0), BuildingBlock: CIFDUS_clean_linker_0, # of connection points: 2
#     Edge 41, Type (0, 0), BuildingBlock: CIFDUS_clean_linker_0, # of connection points: 2
#     Edge 42, Type (0, 0), BuildingBlock: CIFDUS_clean_linker_0, # of connection points: 2
#     Edge 43, Type (0, 0), BuildingBlock: CIFDUS_clean_linker_0, # of connection points: 2
#     Edge 44, Type (0, 0), BuildingBlock: CIFDUS_clean_linker_0, # of connection points: 2
#     Edge 45, Type (0, 0), BuildingBlock: CIFDUS_clean_linker_0, # of connection points: 2
#     Edge 46, Type (0, 0), BuildingBlock: CIFDUS_clean_linker_0, # of connection points: 2
#     Edge 47, Type (0, 0), BuildingBlock: CIFDUS_clean_linker_0, # of connection points: 2
#     Edge 48, Type (0, 0), BuildingBlock: CIFDUS_clean_linker_0, # of connection points: 2
#     Edge 49, Type (0, 0), BuildingBlock: CIFDUS_clean_linker_0, # of connection points: 2
#     Edge 50, Type (0, 0), BuildingBlock: CIFDUS_clean_linker_0, # of connection points: 2
#     Edge 51, Type (0, 0), BuildingBlock: CIFDUS_clean_linker_0, # of connection points: 2
#     Edge 52, Type (0, 0), BuildingBlock: CIFDUS_clean_linker_0, # of connection points: 2
#     Edge 53, Type (0, 0), BuildingBlock: CIFDUS_clean_linker_0, # of connection points: 2
#     Edge 54, Type (0, 0), BuildingBlock: CIFDUS_clean_linker_0, # of connection points: 2
#     Edge 55, Type (0, 0), BuildingBlock: CIFDUS_clean_linker_0, # of connection points: 2
#     Edge 56, Type (0, 0), BuildingBlock: CIFDUS_clean_linker_0, # of connection points: 2
#     Edge 57, Type (0, 0), BuildingBlock: CIFDUS_clean_linker_0, # of connection points: 2
#     Edge 58, Type (0, 0), BuildingBlock: CIFDUS_clean_linker_0, # of connection points: 2
#     Edge 59, Type (0, 0), BuildingBlock: CIFDUS_clean_linker_0, # of connection points: 2
#     Edge 60, Type (0, 0), BuildingBlock: CIFDUS_clean_linker_0, # of connection points: 2
#     Edge 61, Type (0, 0), BuildingBlock: CIFDUS_clean_linker_0, # of connection points: 2
#     Edge 62, Type (0, 0), BuildingBlock: CIFDUS_clean_linker_0, # of connection points: 2
#     Edge 63, Type (0, 0), BuildingBlock: CIFDUS_clean_linker_0, # of connection points: 2
#     Edge 64, Type (0, 0), BuildingBlock: CIFDUS_clean_linker_0, # of connection points: 2
#     Edge 65, Type (0, 0), BuildingBlock: CIFDUS_clean_linker_0, # of connection points: 2
#     Edge 66, Type (0, 0), BuildingBlock: CIFDUS_clean_linker_0, # of connection points: 2
#     Edge 67, Type (0, 0), BuildingBlock: CIFDUS_clean_linker_0, # of connection points: 2
#     Edge 68, Type (0, 0), BuildingBlock: CIFDUS_clean_linker_0, # of connection points: 2
#     Edge 69, Type (0, 0), BuildingBlock: CIFDUS_clean_linker_0, # of connection points: 2
#     Edge 70, Type (0, 0), BuildingBlock: CIFDUS_clean_linker_0, # of connection points: 2
#     Edge 71, Type (0, 0), BuildingBlock: CIFDUS_clean_linker_0, # of connection points: 2
#     Edge 72, Type (0, 0), BuildingBlock: CIFDUS_clean_linker_0, # of connection points: 2
#     Edge 73, Type (0, 0), BuildingBlock: CIFDUS_clean_linker_0, # of connection points: 2
#     Edge 74, Type (0, 0), BuildingBlock: CIFDUS_clean_linker_0, # of connection points: 2
#     Edge 75, Type (0, 0), BuildingBlock: CIFDUS_clean_linker_0, # of connection points: 2
#     Edge 76, Type (0, 0), BuildingBlock: CIFDUS_clean_linker_0, # of connection points: 2
#     Edge 77, Type (0, 0), BuildingBlock: CIFDUS_clean_linker_0, # of connection points: 2
#     Edge 78, Type (0, 0), BuildingBlock: CIFDUS_clean_linker_0, # of connection points: 2
#     Edge 79, Type (0, 0), BuildingBlock: CIFDUS_clean_linker_0, # of connection points: 2
#     Edge 80, Type (0, 0), BuildingBlock: CIFDUS_clean_linker_0, # of connection points: 2
#     Edge 81, Type (0, 0), BuildingBlock: CIFDUS_clean_linker_0, # of connection points: 2
#     Edge 82, Type (0, 0), BuildingBlock: CIFDUS_clean_linker_0, # of connection points: 2
#     Edge 83, Type (0, 0), BuildingBlock: CIFDUS_clean_linker_0, # of connection points: 2
#     Edge 84, Type (0, 0), BuildingBlock: CIFDUS_clean_linker_0, # of connection points: 2
#     Edge 85, Type (0, 0), BuildingBlock: CIFDUS_clean_linker_0, # of connection points: 2
#     Edge 86, Type (0, 0), BuildingBlock: CIFDUS_clean_linker_0, # of connection points: 2
#     Edge 87, Type (0, 0), BuildingBlock: CIFDUS_clean_linker_0, # of connection points: 2
#     Edge 88, Type (0, 0), BuildingBlock: CIFDUS_clean_linker_0, # of connection points: 2
#     Edge 89, Type (0, 0), BuildingBlock: CIFDUS_clean_linker_0, # of connection points: 2
#     Edge 90, Type (0, 0), BuildingBlock: CIFDUS_clean_linker_0, # of connection points: 2
#     Edge 91, Type (0, 0), BuildingBlock: CIFDUS_clean_linker_0, # of connection points: 2
#     Edge 92, Type (0, 0), BuildingBlock: CIFDUS_clean_linker_0, # of connection points: 2
#     Edge 93, Type (0, 0), BuildingBlock: CIFDUS_clean_linker_0, # of connection points: 2
#     Edge 94, Type (0, 0), BuildingBlock: CIFDUS_clean_linker_0, # of connection points: 2
#     Edge 95, Type (0, 0), BuildingBlock: CIFDUS_clean_linker_0, # of connection points: 2
#     Edge 96, Type (0, 0), BuildingBlock: CIFDUS_clean_linker_0, # of connection points: 2
#     Edge 97, Type (0, 0), BuildingBlock: CIFDUS_clean_linker_0, # of connection points: 2
#     Edge 98, Type (0, 0), BuildingBlock: CIFDUS_clean_linker_0, # of connection points: 2
#     Edge 99, Type (0, 0), BuildingBlock: CIFDUS_clean_linker_0, # of connection points: 2
#     Edge 100, Type (0, 0), BuildingBlock: CIFDUS_clean_linker_0, # of connection points: 2
#     Edge 101, Type (0, 0), BuildingBlock: CIFDUS_clean_linker_0, # of connection points: 2
#     Edge 102, Type (0, 0), BuildingBlock: CIFDUS_clean_linker_0, # of connection points: 2
#     Edge 103, Type (0, 0), BuildingBlock: CIFDUS_clean_linker_0, # of connection points: 2
#     Edge 104, Type (0, 0), BuildingBlock: CIFDUS_clean_linker_0, # of connection points: 2
#     Edge 105, Type (0, 0), BuildingBlock: CIFDUS_clean_linker_0, # of connection points: 2
#     Edge 106, Type (0, 0), BuildingBlock: CIFDUS_clean_linker_0, # of connection points: 2
#     Edge 107, Type (0, 0), BuildingBlock: CIFDUS_clean_linker_0, # of connection points: 2
#     Edge 108, Type (0, 0), BuildingBlock: CIFDUS_clean_linker_0, # of connection points: 2
#     Edge 109, Type (0, 0), BuildingBlock: CIFDUS_clean_linker_0, # of connection points: 2
#     Edge 110, Type (0, 0), BuildingBlock: CIFDUS_clean_linker_0, # of connection points: 2
#     Edge 111, Type (0, 0), BuildingBlock: CIFDUS_clean_linker_0, # of connection points: 2
#     Edge 112, Type (0, 0), BuildingBlock: CIFDUS_clean_linker_0, # of connection points: 2
#     Edge 113, Type (0, 0), BuildingBlock: CIFDUS_clean_linker_0, # of connection points: 2
#     Edge 114, Type (0, 0), BuildingBlock: CIFDUS_clean_linker_0, # of connection points: 2
#     Edge 115, Type (0, 0), BuildingBlock: CIFDUS_clean_linker_0, # of connection points: 2
#     Edge 116, Type (0, 0), BuildingBlock: CIFDUS_clean_linker_0, # of connection points: 2
#     Edge 117, Type (0, 0), BuildingBlock: CIFDUS_clean_linker_0, # of connection points: 2
#     Edge 118, Type (0, 0), BuildingBlock: CIFDUS_clean_linker_0, # of connection points: 2
#     Edge 119, Type (0, 0), BuildingBlock: CIFDUS_clean_linker_0, # of connection points: 2
#     Edge 120, Type (0, 0), BuildingBlock: CIFDUS_clean_linker_0, # of connection points: 2
#     Edge 121, Type (0, 0), BuildingBlock: CIFDUS_clean_linker_0, # of connection points: 2
#     Edge 122, Type (0, 0), BuildingBlock: CIFDUS_clean_linker_0, # of connection points: 2
#     Edge 123, Type (0, 0), BuildingBlock: CIFDUS_clean_linker_0, # of connection points: 2
#     Edge 124, Type (0, 0), BuildingBlock: CIFDUS_clean_linker_0, # of connection points: 2
#     Edge 125, Type (0, 0), BuildingBlock: CIFDUS_clean_linker_0, # of connection points: 2
#     Edge 126, Type (0, 0), BuildingBlock: CIFDUS_clean_linker_0, # of connection points: 2
#     Edge 127, Type (0, 0), BuildingBlock: CIFDUS_clean_linker_0, # of connection points: 2
#     Edge 128, Type (0, 0), BuildingBlock: CIFDUS_clean_linker_0, # of connection points: 2
#     Edge 129, Type (0, 0), BuildingBlock: CIFDUS_clean_linker_0, # of connection points: 2
#     Edge 130, Type (0, 0), BuildingBlock: CIFDUS_clean_linker_0, # of connection points: 2
#     Edge 131, Type (0, 0), BuildingBlock: CIFDUS_clean_linker_0, # of connection points: 2
#     Edge 132, Type (0, 0), BuildingBlock: CIFDUS_clean_linker_0, # of connection points: 2
#     Edge 133, Type (0, 0), BuildingBlock: CIFDUS_clean_linker_0, # of connection points: 2
#     Edge 134, Type (0, 0), BuildingBlock: CIFDUS_clean_linker_0, # of connection points: 2
#     Edge 135, Type (0, 0), BuildingBlock: CIFDUS_clean_linker_0, # of connection points: 2
#     Edge 136, Type (0, 0), BuildingBlock: CIFDUS_clean_linker_0, # of connection points: 2
#     Edge 137, Type (0, 0), BuildingBlock: CIFDUS_clean_linker_0, # of connection points: 2
#     Edge 138, Type (0, 0), BuildingBlock: CIFDUS_clean_linker_0, # of connection points: 2
#     Edge 139, Type (0, 0), BuildingBlock: CIFDUS_clean_linker_0, # of connection points: 2
#     Edge 140, Type (0, 0), BuildingBlock: CIFDUS_clean_linker_0, # of connection points: 2
#     Edge 141, Type (0, 0), BuildingBlock: CIFDUS_clean_linker_0, # of connection points: 2
#     Edge 142, Type (0, 0), BuildingBlock: CIFDUS_clean_linker_0, # of connection points: 2
#     Edge 143, Type (0, 0), BuildingBlock: CIFDUS_clean_linker_0, # of connection points: 2
# Relax obj value: 0.414
# Max RMSD: 0.194
# Mean RMSD: 0.194
data_MOF--net-wmt--node1-BETFAJ_clean_sbu_0--edge1-CIFDUS_clean_linker_0
_symmetry_space_group_name_H-M    P1
_symmetry_Int_Tables_number       1
_symmetry_cell_setting            triclinic
loop_
_symmetry_equiv_pos_as_xyz
'x, y, z'
_cell_length_a     70.077325
_cell_length_b     70.054553
_cell_length_c     31.52647
_cell_angle_alpha  89.920858
_cell_angle_beta   89.993862
_cell_angle_gamma 120.09392
loop_
_atom_site_label
_atom_site_type_symbol
_atom_site_fract_x
_atom_site_fract_y
_atom_site_fract_z
_atom_type_partial_charge
Sm0 Sm 0.0778 0.48291 0.25044 0.0
Sm1 Sm 0.0395 0.44874 0.20722 0.0
C2 C 0.10297 0.51214 0.30884 0.0
C3 C 0.09744 0.51985 0.34864 0.0
C4 C 0.07587 0.51564 0.356 0.0
C5 C 0.07069 0.5234 0.39284 0.0
C6 C 0.08692 0.5356 0.42356 0.0
C7 C 0.10846 0.53944 0.41638 0.0
C8 C 0.11364 0.5317 0.37938 0.0
C9 C 0.08948 0.45962 0.19285 0.0
C10 C 0.03695 0.44271 0.30721 0.0
C11 C 0.00835 0.41724 0.16101 0.0
C12 C 0.00564 0.40964 0.11728 0.0
C13 C 0.01653 0.39879 0.10233 0.0
C14 C 0.01663 0.39482 0.05933 0.0
C15 C 0.00533 0.40105 1.03093 0.0
C16 C 0.9931 0.41045 0.04635 0.0
C17 C 0.9933 0.41475 0.08931 0.0
C18 C 0.0306 0.47962 0.24201 0.0
C19 C 0.07251 0.49361 0.15276 0.0
O20 O 0.09714 0.51754 0.27339 0.0
O21 O 0.09888 0.49171 0.30847 0.0
O22 O 0.07252 0.45108 0.21712 0.0
O23 O 0.10227 0.47997 0.2043 0.0
O24 O 0.05258 0.46367 0.30595 0.0
O25 O 0.03186 0.43135 0.27189 0.0
O26 O 0.02194 0.41422 0.18472 0.0
O27 O 0.01032 0.43664 0.16605 0.0
O28 O 0.04828 0.48345 0.22454 0.0
O29 O 0.01839 0.45855 0.24753 0.0
O30 O 0.05857 0.47202 0.15032 0.0
O31 O 0.08041 0.50298 0.19012 0.0
H32 H 0.06298 0.50644 0.33301 0.0
H33 H 0.05386 0.51972 0.39732 0.0
H34 H 0.12149 0.54889 0.43893 0.0
H35 H 0.13039 0.53519 0.37458 0.0
H36 H 0.02561 0.39404 0.12346 0.0
H37 H 0.02613 0.38748 0.04827 0.0
H38 H 0.98364 0.41474 1.02522 0.0
H39 H 0.98436 0.42269 0.10048 0.0
Sm40 Sm 0.52224 0.59627 0.24311 0.0
Sm41 Sm 0.5652 0.60798 0.20559 0.0
C42 C 0.48802 0.5829 0.29566 0.0
C43 C 0.48095 0.57141 0.33788 0.0
C44 C 0.48118 0.55178 0.34615 0.0
C45 C 0.47355 0.54061 0.38508 0.0
C46 C 0.46541 0.54864 0.4173 0.0
C47 C 0.46579 0.56867 0.40939 0.0
C48 C 0.47339 0.57983 0.37028 0.0
C49 C 0.54066 0.6349 0.19272 0.0
C50 C 0.56138 0.59942 0.30853 0.0
C51 C 0.60543 0.62766 0.1752 0.0
C52 C 0.6114 0.62472 0.13227 0.0
C53 C 0.61904 0.64233 0.10348 0.0
C54 C 0.61737 0.6382 0.06009 0.0
C55 C 0.60818 0.61648 0.04529 0.0
C56 C 0.60246 0.59917 0.07395 0.0
C57 C 0.60412 0.60326 0.11719 0.0
C58 C 0.53774 0.56429 0.20024 0.0
C59 C 0.52095 0.58736 0.14227 0.0
O60 O 0.48819 0.57129 0.26311 0.0
O61 O 0.50484 0.60312 0.29532 0.0
O62 O 0.55113 0.6297 0.21927 0.0
O63 O 0.51976 0.62113 0.19733 0.0
O64 O 0.54204 0.59821 0.30452 0.0
O65 O 0.57392 0.60341 0.27482 0.0
O66 O 0.59365 0.63738 0.17686 0.0
O67 O 0.59786 0.61041 0.20002 0.0
O68 O 0.53868 0.57549 0.23298 0.0
O69 O 0.55202 0.57592 0.17109 0.0
O70 O 0.54288 0.60003 0.14472 0.0
O71 O 0.50877 0.5806 0.1773 0.0
H72 H 0.48713 0.54489 0.32235 0.0
H73 H 0.47409 0.52559 0.38988 0.0
H74 H 0.45964 0.57547 0.43296 0.0
H75 H 0.47304 0.59494 0.36512 0.0
H76 H 0.62453 0.65895 0.11445 0.0
H77 H 0.62226 0.6518 1.03814 0.0
H78 H 0.59537 0.5823 0.06303 0.0
H79 H 0.59796 0.58926 0.13853 0.0
Sm80 Sm 0.40812 0.92403 0.25102 0.0
Sm81 Sm 0.41163 0.96254 0.20924 0.0
C82 C 0.41248 0.89831 0.30813 0.0
C83 C 0.42278 0.90149 0.35107 0.0
C84 C 0.43996 0.92223 0.36439 0.0
C85 C 0.45005 0.92482 0.4043 0.0
C86 C 0.4432 0.90678 0.43227 0.0
C87 C 0.42581 0.88609 0.41883 0.0
C88 C 0.41581 0.88351 0.37888 0.0
C89 C 0.37374 0.91171 0.19173 0.0
C90 C 0.40827 0.96447 0.31039 0.0
C91 C 0.41011 0.99068 0.15638 0.0
C92 C 0.40957 0.99042 0.11021 0.0
C93 C 0.39502 0.97104 0.08839 0.0
C94 C 0.39629 0.97021 0.04455 0.0
C95 C 0.41232 0.98859 1.02222 0.0
C96 C 0.42732 0.0077 0.04404 0.0
C97 C 0.42587 0.00865 0.08791 0.0
C98 C 0.45158 0.97167 0.24335 0.0
C99 C 0.42555 0.93088 0.15362 0.0
O100 O 0.42597 0.90763 0.27619 0.0
O101 O 0.39473 0.90001 0.30505 0.0
O102 O 0.3812 0.92855 0.2165 0.0
O103 O 0.38213 0.89974 0.20381 0.0
O104 O 0.41088 0.94706 0.30806 0.0
O105 O 0.40491 0.97254 0.27524 0.0
O106 O 0.39253 0.97547 0.17601 0.0
O107 O 0.42848 0.9933 0.17199 0.0
O108 O 0.4378 0.95408 0.22548 0.0
O109 O 0.4427 0.98386 0.24905 0.0
O110 O 0.41944 0.946 0.15249 0.0
O111 O 0.42502 0.92099 0.18994 0.0
H112 H 0.44567 0.93646 0.3438 0.0
H113 H 0.4631 0.94107 0.41342 0.0
H114 H 0.42013 0.87169 0.43892 0.0
H115 H 0.40269 0.86732 0.36952 0.0
H116 H 0.38277 0.9565 0.1051 0.0
H117 H 0.38455 0.95537 1.02795 0.0
H118 H 0.4396 0.02211 1.02702 0.0
H119 H 0.4376 0.02348 0.10452 0.0
Sm120 Sm 0.48324 0.07944 0.58583 0.0
Sm121 Sm 0.44074 0.04733 0.6248 0.0
C122 C 0.51663 0.10131 0.53173 0.0
C123 C 0.52299 0.09844 0.48759 0.0
C124 C 0.52215 0.07881 0.47448 0.0
C125 C 0.52864 0.0767 0.43316 0.0
C126 C 0.53609 0.0941 0.40339 0.0
C127 C 0.53666 0.11363 0.41659 0.0
C128 C 0.53027 0.11575 0.45793 0.0
C129 C 0.46437 0.0988 0.63698 0.0
C130 C 0.44397 0.04284 0.52145 0.0
C131 C 0.40059 0.02543 0.65593 0.0
C132 C 0.39359 0.01498 0.69769 0.0
C133 C 0.3852 0.02372 0.72749 0.0
C134 C 0.38301 0.0172 0.76982 0.0
C135 C 0.38918 1.00186 0.78264 0.0
C136 C 0.39641 0.99224 0.75249 0.0
C137 C 0.39859 0.99871 0.71031 0.0
C138 C 0.46909 0.03228 0.62896 0.0
C139 C 0.48552 0.07227 0.68664 0.0
O140 O 0.51671 0.0884 0.56191 0.0
O141 O 0.50008 0.10496 0.53531 0.0
O142 O 0.45398 0.083 0.61065 0.0
O143 O 0.48533 0.10639 0.63201 0.0
O144 O 0.46298 0.06143 0.52495 0.0
O145 O 0.43185 0.03391 0.55558 0.0
O146 O 0.41224 0.04698 0.65633 0.0
O147 O 0.40853 0.01655 0.63011 0.0
O148 O 0.46754 0.04225 0.5963 0.0
O149 O 0.45496 0.02928 0.65861 0.0
O150 O 0.46356 0.06258 0.68465 0.0
O151 O 0.49753 0.07773 0.65135 0.0
H152 H 0.51647 0.06501 0.49617 0.0
H153 H 0.52753 0.06124 0.42441 0.0
H154 H 0.54247 0.12756 0.39521 0.0
H155 H 0.53116 0.13111 0.46686 0.0
H156 H 0.38152 0.03646 0.71849 0.0
H157 H 0.37759 0.02497 0.79281 0.0
H158 H 0.40104 0.98021 0.76181 0.0
H159 H 0.40525 0.99174 0.68818 0.0
Sm160 Sm 0.92631 0.41089 0.58561 0.0
Sm161 Sm 0.9572 0.39766 0.62283 0.0
C162 C 0.90453 0.42018 0.52799 0.0
C163 C 0.90959 0.43194 0.48626 0.0
C164 C 0.92779 0.45329 0.48113 0.0
C165 C 0.93249 0.46399 0.44159 0.0
C166 C 0.91936 0.45361 0.40554 0.0
C167 C 0.90109 0.43219 0.4109 0.0
C168 C 0.89628 0.42157 0.45066 0.0
C169 C 0.90566 0.37324 0.63812 0.0
C170 C 0.96369 0.40848 0.52411 0.0
C171 C 0.97219 0.37467 0.66105 0.0
C172 C 0.98453 0.3799 0.70044 0.0
C173 C 0.97482 0.36539 0.73444 0.0
C174 C 0.98197 0.3724 0.77532 0.0
C175 C 0.99911 0.39404 0.78277 0.0
C176 C 0.00953 0.40838 0.7487 0.0
C177 C 1.00231 0.40131 0.70756 0.0
C178 C 0.98169 0.44264 0.61725 0.0
C179 C 0.93741 0.42325 0.68413 0.0
O180 O 0.91322 0.4321 0.56232 0.0
O181 O 0.90462 0.40148 0.52868 0.0
O182 O 0.92095 0.37747 0.61089 0.0
O183 O 0.89924 0.38746 0.63203 0.0
O184 O 0.95318 0.41913 0.53341 0.0
O185 O 0.96349 0.39433 0.55179 0.0
O186 O 0.95216 0.37102 0.66623 0.0
O187 O 0.98228 0.38727 0.6284 0.0
O188 O 0.9617 0.43123 0.60583 0.0
O189 O 0.9893 0.43028 0.63059 0.0
O190 O 0.94665 0.41057 0.68214 0.0
O191 O 0.92994 0.42824 0.6495 0.0
H192 H 0.93848 0.46181 0.50772 0.0
H193 H 0.94642 0.48059 0.43958 0.0
H194 H 0.89065 0.42336 0.38426 0.0
H195 H 0.88218 0.40508 0.45351 0.0
H196 H 0.96037 0.34938 0.72979 0.0
H197 H 0.97325 0.36123 0.8013 0.0
H198 H 0.02274 0.42514 0.754 0.0
H199 H 0.00971 0.41303 0.68183 0.0
Sm200 Sm 0.59637 0.51775 0.58178 0.0
Sm201 Sm 0.59887 0.55655 0.61985 0.0
C202 C 0.58749 0.48563 0.5262 0.0
C203 C 0.57515 0.47848 0.48506 0.0
C204 C 0.5583 0.48318 0.47556 0.0
C205 C 0.54597 0.47547 0.43789 0.0
C206 C 0.5501 0.46286 0.40827 0.0
C207 C 0.56747 0.45877 0.41732 0.0
C208 C 0.57975 0.46643 0.45519 0.0
C209 C 0.63344 0.53977 0.63458 0.0
C210 C 0.59885 0.55816 0.51893 0.0
C211 C 0.60577 0.59018 0.66765 0.0
C212 C 0.60541 0.59255 0.71371 0.0
C213 C 0.62483 0.60009 0.73732 0.0
C214 C 0.6239 0.5993 0.78133 0.0
C215 C 0.60359 0.59089 0.80209 0.0
C216 C 0.58431 0.58432 0.77877 0.0
C217 C 0.58521 0.58524 0.7348 0.0
C218 C 0.55648 0.5271 0.59326 0.0
C219 C 0.58391 0.51217 0.68124 0.0
O220 O 0.57574 0.48296 0.56034 0.0
O221 O 0.60611 0.50447 0.52639 0.0
O222 O 0.62652 0.5493 0.60908 0.0
O223 O 0.62327 0.51881 0.62619 0.0
O224 O 0.59287 0.53714 0.5237 0.0
O225 O 0.60588 0.57121 0.55218 0.0
O226 O 0.62188 0.58796 0.65218 0.0
O227 O 0.58676 0.57663 0.65059 0.0
O228 O 0.56974 0.52242 0.61066 0.0
O229 O 0.56676 0.54797 0.58443 0.0
O230 O 0.59245 0.53393 0.67952 0.0
O231 O 0.58055 0.50065 0.64586 0.0
H232 H 0.55448 0.49265 0.49759 0.0
H233 H 0.53313 0.47944 0.43199 0.0
H234 H 0.5712 0.44908 0.39572 0.0
H235 H 0.59267 0.4626 0.46145 0.0
H236 H 0.64061 0.60603 0.72184 0.0
H237 H 0.63901 0.6052 0.79926 0.0
H238 H 0.56855 0.57815 0.79454 0.0
H239 H 0.56997 0.57958 0.71743 0.0
Sm240 Sm 0.96642 0.55516 0.12183 0.0
Sm241 Sm 0.92695 0.52198 0.07843 0.0
C242 C 0.99847 0.58446 0.16994 0.0
C243 C 1.00127 0.58822 0.21558 0.0
C244 C 0.98873 0.59546 0.23741 0.0
C245 C 0.98809 0.59492 0.28117 0.0
C246 C 1.0013 0.58873 0.30422 0.0
C247 C 0.01481 0.58254 0.2824 0.0
C248 C 0.01466 0.58212 0.23825 0.0
C249 C 0.97282 0.52265 0.08735 0.0
C250 C 0.93164 0.5111 0.17691 0.0
C251 C 0.90119 0.49331 1.0197 0.0
C252 C 0.90512 0.48616 0.97743 0.0
C253 C 0.92511 0.48686 0.96792 0.0
C254 C 0.92851 0.47989 0.92812 0.0
C255 C 0.91206 0.47212 0.89647 0.0
C256 C 0.89209 0.4715 0.90626 0.0
C257 C 0.88869 0.4784 0.94607 0.0
C258 C 0.91672 0.54616 0.13602 0.0
C259 C 0.96895 0.56183 1.02235 0.0
O260 O 0.98407 0.58832 0.15116 0.0
O261 O 0.99721 0.56614 0.15753 0.0
O262 O 0.95552 0.51988 0.1049 0.0
O263 O 0.98564 0.54352 0.08036 0.0
O264 O 0.94765 0.53201 0.17857 0.0
O265 O 0.9219 0.50195 0.14037 0.0
O266 O 0.90855 0.48779 0.053 0.0
O267 O 0.90447 0.51342 1.02244 0.0
O268 O 0.9339 0.55428 0.11214 0.0
O269 O 0.90313 0.5261 0.12383 0.0
O270 O 0.95233 0.54129 1.02318 0.0
O271 O 0.97503 0.57303 0.05786 0.0
H272 H 0.97893 0.60105 0.22089 0.0
H273 H 0.97707 0.5993 0.2968 0.0
H274 H 0.02547 0.57808 0.29927 0.0
H275 H 0.02462 0.57662 0.22183 0.0
H276 H 0.93819 0.49288 0.9913 0.0
H277 H 0.94421 0.48096 0.92194 0.0
H278 H 0.87884 0.46539 0.88329 0.0
H279 H 0.87311 0.47759 0.95241 0.0
Sm280 Sm 0.44271 0.39638 0.12614 0.0
Sm281 Sm 0.48272 0.40512 0.08179 0.0
C282 C 0.40507 0.38334 0.1642 0.0
C283 C 0.40401 0.38991 0.20746 0.0
C284 C 0.42064 0.39274 0.23592 0.0
C285 C 0.42318 0.40338 0.27412 0.0
C286 C 0.40921 0.41154 0.28456 0.0
C287 C 0.39256 0.40884 0.25619 0.0
C288 C 0.39002 0.3981 0.21762 0.0
C289 C 0.47173 0.44004 0.12685 0.0
C290 C 0.48986 0.41677 0.18092 0.0
C291 C 0.51382 0.41358 1.0239 0.0
C292 C 0.52072 0.42436 0.98125 0.0
C293 C 0.50992 0.43445 0.9618 0.0
C294 C 0.51618 0.44393 0.92108 0.0
C295 C 0.53374 0.44404 0.89912 0.0
C296 C 0.54478 0.43429 0.91889 0.0
C297 C 0.53823 0.42443 0.95926 0.0
C298 C 0.46506 0.36732 0.13545 0.0
C299 C 0.44198 0.40324 1.02376 0.0
O300 O 0.41328 0.37031 0.1597 0.0
O301 O 0.41343 0.39987 0.13765 0.0
O302 O 0.46887 0.42808 0.09423 0.0
O303 O 0.45891 0.42915 0.15815 0.0
O304 O 0.46787 0.40419 0.18293 0.0
O305 O 0.49997 0.42257 0.14362 0.0
O306 O 0.51678 0.42642 0.0565 0.0
O307 O 0.495 0.39491 1.02588 0.0
O308 O 0.4539 0.3725 0.11067 0.0
O309 O 0.48577 0.38061 0.1277 0.0
O310 O 0.46303 0.4093 1.02595 0.0
O311 O 0.42955 0.39477 0.05762 0.0
H312 H 0.43221 0.38736 0.22835 0.0
H313 H 0.43577 0.40473 0.29588 0.0
H314 H 0.38153 0.41496 0.26397 0.0
H315 H 0.37767 0.39679 0.1953 0.0
H316 H 0.49662 0.43497 0.97806 0.0
H317 H 0.50739 0.45137 0.90684 0.0
H318 H 0.55825 0.43395 0.90273 0.0
H319 H 0.54684 0.41676 0.9733 0.0
Sm320 Sm 0.59605 0.04096 0.12195 0.0
Sm321 Sm 0.59484 0.07848 0.08353 0.0
C322 C 0.60242 0.01346 0.16826 0.0
C323 C 0.60722 0.01336 0.2128 0.0
C324 C 0.61602 0.03304 0.23595 0.0
C325 C 0.61801 0.03267 0.27966 0.0
C326 C 0.61106 0.01256 0.30042 0.0
C327 C 0.60224 0.99286 0.27721 0.0
C328 C 0.60027 0.99327 0.2334 0.0
C329 C 0.55436 0.02937 0.09286 0.0
C330 C 0.58156 0.07015 0.18375 0.0
C331 C 0.58651 0.10235 1.02854 0.0
C332 C 0.57631 0.09899 0.98512 0.0
C333 C 0.55359 0.08451 0.97835 0.0
C334 C 0.54418 0.08181 0.93771 0.0
C335 C 0.5571 0.0935 0.90224 0.0
C336 C 0.57985 0.10797 0.90917 0.0
C337 C 0.58925 0.11067 0.94983 0.0
C338 C 0.63065 0.09308 0.13932 0.0
C339 C 0.59697 0.04031 1.02044 0.0
O340 O 0.61808 0.02912 0.14543 0.0
O341 O 0.58295 0.01093 0.16116 0.0
O342 O 0.56787 0.04708 0.11055 0.0
O343 O 0.56383 0.01779 0.08634 0.0
O344 O 0.58988 0.05682 0.18134 0.0
O345 O 0.57894 0.07921 0.14863 0.0
O346 O 0.57351 0.09151 0.06039 0.0
O347 O 0.60576 0.10354 1.03139 0.0
O348 O 0.62407 0.07638 0.11429 0.0
O349 O 0.62097 0.10399 0.12808 0.0
O350 O 0.59296 0.05676 1.02466 0.0
O351 O 0.60193 0.03263 0.05415 0.0
H352 H 0.62074 0.04855 0.22034 0.0
H353 H 0.62486 0.048 0.29723 0.0
H354 H 0.59649 0.97718 0.29307 0.0
H355 H 0.59281 0.97793 0.2158 0.0
H356 H 0.54296 0.07515 1.00449 0.0
H357 H 0.52673 0.07024 0.93409 0.0
H358 H 0.59048 0.11758 0.88325 0.0
H359 H 0.60673 0.12207 0.9537 0.0
Sm360 Sm 0.56282 0.95894 0.70509 0.0
Sm361 Sm 0.5218 0.92614 0.74464 0.0
C362 C 0.60175 0.98401 0.67142 0.0
C363 C 0.60479 0.99218 0.62805 0.0
C364 C 0.5894 0.97883 0.59726 0.0
C365 C 0.58928 0.98733 0.55775 0.0
C366 C 0.60454 0.00932 0.54836 0.0
C367 C 0.61987 0.0229 0.57885 0.0
C368 C 0.61986 0.01437 0.61893 0.0
C369 C 0.5332 0.97247 0.70167 0.0
C370 C 0.51837 0.93256 0.64384 0.0
C371 C 0.48849 0.90484 0.79892 0.0
C372 C 0.48173 0.90965 0.84118 0.0
C373 C 0.47075 0.9218 0.8437 0.0
C374 C 0.46428 0.92624 0.88297 0.0
C375 C 0.46857 0.91878 0.9215 0.0
C376 C 0.47931 0.90632 0.91897 0.0
C377 C 0.48575 0.90181 0.87949 0.0
C378 C 0.54043 0.90698 0.69251 0.0
C379 C 0.56076 0.96288 0.80859 0.0
O380 O 0.59331 0.96268 0.67568 0.0
O381 O 0.59234 0.9919 0.69577 0.0
O382 O 0.53552 0.96309 0.73447 0.0
O383 O 0.54678 0.97515 0.67126 0.0
O384 O 0.54034 0.94272 0.64539 0.0
O385 O 0.50665 0.92677 0.67945 0.0
O386 O 0.48758 0.91568 0.7657 0.0
O387 O 0.50575 0.9022 0.79797 0.0
O388 O 0.5513 0.92323 0.71784 0.0
O389 O 0.51956 0.89888 0.69985 0.0
O390 O 0.54221 0.94386 0.80535 0.0
O391 O 0.57228 0.9723 0.77414 0.0
H392 H 0.57717 0.96187 0.6038 0.0
H393 H 0.57768 0.97658 0.53399 0.0
H394 H 0.63203 0.03982 0.57134 0.0
H395 H 0.63131 0.02506 0.64287 0.0
H396 H 0.46702 0.92793 0.81517 0.0
H397 H 0.45561 0.9354 0.88287 0.0
H398 H 0.48313 0.90032 0.94755 0.0
H399 H 0.49397 0.89221 0.87902 0.0
Sm400 Sm 0.04914 0.60615 0.70372 0.0
Sm401 Sm 0.0803 0.59626 0.74715 0.0
C402 C 0.03477 0.62956 0.66419 0.0
C403 C 0.02071 0.62551 0.62778 0.0
C404 C 0.02666 0.64265 0.5988 0.0
C405 C 0.01779 0.63794 0.55829 0.0
C406 C 0.00272 0.61611 0.54671 0.0
C407 C 0.99545 0.5992 0.57697 0.0
C408 C 0.00454 0.60387 0.6174 0.0
C409 C 0.0255 0.56157 0.71279 0.0
C410 C 0.07095 0.58037 0.65002 0.0
C411 C 0.10326 0.58839 0.80477 0.0
C412 C 0.09828 0.57608 0.84574 0.0
C413 C 0.07793 0.55675 0.85251 0.0
C414 C 0.07365 0.54482 0.89056 0.0
C415 C 0.08957 0.55185 0.92314 0.0
C416 C 0.10971 0.57162 0.91673 0.0
C417 C 0.11401 0.58353 0.8785 0.0
C418 C 0.0996 0.63432 0.69537 0.0
C419 C 0.04064 0.59725 0.80391 0.0
O420 O 0.05346 0.6306 0.65507 0.0
O421 O 0.02526 0.61794 0.69818 0.0
O422 O 0.04532 0.57323 0.72552 0.0
O423 O 0.01788 0.57331 0.69608 0.0
O424 O 0.06064 0.59202 0.64753 0.0
O425 O 0.07809 0.57726 0.68686 0.0
O426 O 0.09515 0.5766 0.77023 0.0
O427 O 0.1019 0.60639 0.80452 0.0
O428 O 0.08409 0.62879 0.72231 0.0
O429 O 0.10619 0.62009 0.69762 0.0
O430 O 0.05453 0.5898 0.80081 0.0
O431 O 0.03843 0.60802 0.77194 0.0
H432 H 0.0395 0.65931 0.6063 0.0
H433 H 0.02412 0.65103 0.53496 0.0
H434 H 0.98384 0.58226 0.56857 0.0
H435 H 1.00006 0.59039 0.63942 0.0
H436 H 0.06531 0.55074 0.8282 0.0
H437 H 0.05776 0.53001 0.89441 0.0
H438 H 0.12245 0.5776 0.94078 0.0
H439 H 0.12979 0.59845 0.8743 0.0
Sm440 Sm 0.40883 0.4495 0.7095 0.0
Sm441 Sm 0.40881 0.48606 0.74924 0.0
C442 C 0.40344 0.4165 0.66125 0.0
C443 C 0.39904 0.41309 0.61633 0.0
C444 C 0.3935 0.42708 0.59461 0.0
C445 C 0.39118 0.42577 0.55107 0.0
C446 C 0.39484 0.41072 0.5289 0.0
C447 C 0.40062 0.39677 0.55019 0.0
C448 C 0.40267 0.39792 0.5942 0.0
C449 C 0.45058 0.4791 0.7385 0.0
C450 C 0.42397 0.49509 0.65161 0.0
C451 C 0.41355 0.51578 0.8073 0.0
C452 C 0.42488 0.52338 0.84936 0.0
C453 C 0.44473 0.5237 0.85847 0.0
C454 C 0.45522 0.5311 0.89812 0.0
C455 C 0.44612 0.53825 0.93006 0.0
C456 C 0.42617 0.53778 0.92071 0.0
C457 C 0.41576 0.53049 0.88106 0.0
C458 C 0.37288 0.46457 0.69288 0.0
C459 C 0.41 0.44747 0.81022 0.0
O460 O 0.38752 0.41585 0.68401 0.0
O461 O 0.42269 0.4334 0.66993 0.0
O462 O 0.43721 0.48387 0.72176 0.0
O463 O 0.44071 0.45804 0.74539 0.0
O464 O 0.41578 0.47336 0.65129 0.0
O465 O 0.42592 0.50533 0.6881 0.0
O466 O 0.4261 0.52054 0.77362 0.0
O467 O 0.39629 0.49587 0.80562 0.0
O468 O 0.37953 0.45458 0.71794 0.0
O469 O 0.38293 0.48529 0.70314 0.0
O470 O 0.41644 0.4685 0.80474 0.0
O471 O 0.40165 0.43426 0.7774 0.0
H472 H 0.39158 0.43945 0.61118 0.0
H473 H 0.3871 0.43685 0.53459 0.0
H474 H 0.40381 0.38534 0.53275 0.0
H475 H 0.40758 0.38749 0.61073 0.0
H476 H 0.45213 0.51816 0.83493 0.0
H477 H 0.47031 0.53084 0.90398 0.0
H478 H 0.41864 0.54334 0.94392 0.0
H479 H 0.40053 0.53048 0.8751 0.0
Sm480 Sm 0.74904 0.82179 0.58288 0.0
Sm481 Sm 0.71163 0.78647 0.54313 0.0
C482 C 0.77481 0.85193 0.63939 0.0
C483 C 0.77107 0.85855 0.6822 0.0
C484 C 0.75045 0.85588 0.69376 0.0
C485 C 0.74717 0.86233 0.73413 0.0
C486 C 0.76435 0.87149 0.76423 0.0
C487 C 0.78492 0.87396 0.75249 0.0
C488 C 0.7882 0.86759 0.71209 0.0
C489 C 0.76258 0.80036 0.52506 0.0
C490 C 0.70947 0.78264 0.64413 0.0
C491 C 0.68258 0.75329 0.49733 0.0
C492 C 0.68255 0.74757 0.45359 0.0
C493 C 0.70091 0.7612 0.4285 0.0
C494 C 0.70061 0.75717 0.3856 0.0
C495 C 0.68176 0.73969 0.36766 0.0
C496 C 0.66335 0.72593 0.39265 0.0
C497 C 0.6638 0.72983 0.43591 0.0
C498 C 0.70095 0.81668 0.57464 0.0
C499 C 0.7424 0.83129 0.48546 0.0
O500 O 0.76575 0.85621 0.6072 0.0
O501 O 0.77317 0.8325 0.63639 0.0
O502 O 0.74576 0.79032 0.54978 0.0
O503 O 0.77381 0.82093 0.53621 0.0
O504 O 0.72635 0.80288 0.64101 0.0
O505 O 0.70198 0.7707 0.60967 0.0
O506 O 0.69726 0.75206 0.52095 0.0
O507 O 0.68206 0.77149 0.50262 0.0
O508 O 0.71882 0.82103 0.55728 0.0
O509 O 0.68935 0.79562 0.58116 0.0
O510 O 0.72836 0.80971 0.48473 0.0
O511 O 0.75112 0.84123 0.52198 0.0
H512 H 0.73683 0.84876 0.67156 0.0
H513 H 0.73102 0.85981 0.74195 0.0
H514 H 0.79867 0.88113 0.77436 0.0
H515 H 0.80424 0.86983 0.70413 0.0
H516 H 0.71517 0.77533 0.44182 0.0
H517 H 0.71466 0.76816 0.36619 0.0
H518 H 0.64859 0.71259 0.3785 0.0
H519 H 0.64943 0.71952 0.45519 0.0
Sm520 Sm 0.18845 0.93163 0.57777 0.0
Sm521 Sm 0.22969 0.94112 0.53487 0.0
C522 C 0.15627 0.92106 0.634 0.0
C523 C 0.14917 0.90895 0.67557 0.0
C524 C 0.14899 0.88898 0.68201 0.0
C525 C 0.14126 0.87717 0.72029 0.0
C526 C 0.13347 0.8849 0.75365 0.0
C527 C 0.13432 0.90529 0.74761 0.0
C528 C 0.142 0.91708 0.70914 0.0
C529 C 0.20713 0.96983 0.52577 0.0
C530 C 0.22888 0.93264 0.63696 0.0
C531 C 0.26913 0.95716 0.50216 0.0
C532 C 0.27474 0.95066 0.46235 0.0
C533 C 0.28547 0.96666 0.43103 0.0
C534 C 0.28588 0.96024 0.38961 0.0
C535 C 0.27584 0.93772 0.37916 0.0
C536 C 0.26607 0.92173 0.41096 0.0
C537 C 0.26549 0.92815 0.45237 0.0
C538 C 0.2008 0.89745 0.53561 0.0
C539 C 0.1841 0.92063 0.47687 0.0
O540 O 0.15409 0.90934 0.59994 0.0
O541 O 0.17457 0.94027 0.63369 0.0
O542 O 0.21771 0.96425 0.55118 0.0
O543 O 0.18624 0.95674 0.53214 0.0
O544 O 0.20842 0.92891 0.63563 0.0
O545 O 0.24117 0.93962 0.60269 0.0
O546 O 0.25758 0.96702 0.49795 0.0
O547 O 0.26173 0.94221 0.53204 0.0
O548 O 0.20357 0.90989 0.56712 0.0
O549 O 0.21413 0.90764 0.50436 0.0
O550 O 0.20607 0.93246 0.47659 0.0
O551 O 0.17286 0.91524 0.51314 0.0
H552 H 0.15466 0.88231 0.65723 0.0
H553 H 0.14143 0.86187 0.72367 0.0
H554 H 0.12844 0.91187 0.77214 0.0
H555 H 0.142 0.93245 0.70536 0.0
H556 H 0.29217 0.98402 0.43801 0.0
H557 H 0.29303 0.97292 0.36541 0.0
H558 H 0.25828 0.90431 0.40357 0.0
H559 H 0.25673 0.91541 0.47593 0.0
Sm560 Sm 0.07393 0.26002 0.58098 0.0
Sm561 Sm 0.06894 0.29553 0.5481 0.0
C562 C 0.08164 0.23613 0.63697 0.0
C563 C 0.09258 0.23998 0.67965 0.0
C564 C 0.11398 0.25778 0.6873 0.0
C565 C 0.12384 0.26106 0.72768 0.0
C566 C 0.1126 0.24674 0.7619 0.0
C567 C 0.09114 0.22899 0.75405 0.0
C568 C 0.08135 0.22567 0.71368 0.0
C569 C 0.03632 0.2441 0.5297 0.0
C570 C 0.07369 0.29729 0.64705 0.0
C571 C 0.05964 0.3219 0.50448 0.0
C572 C 0.06543 0.32949 0.46066 0.0
C573 C 0.04882 0.32134 0.42986 0.0
C574 C 0.0544 0.32456 0.38716 0.0
C575 C 0.07664 0.33614 0.37483 0.0
C576 C 0.09325 0.34543 0.40548 0.0
C577 C 0.0877 0.34205 0.44824 0.0
C578 C 0.11276 0.30986 0.56697 0.0
C579 C 0.08514 0.26854 0.48143 0.0
O580 O 0.09419 0.2456 0.60373 0.0
O581 O 0.06305 0.23635 0.63538 0.0
O582 O 0.04236 0.25987 0.5568 0.0
O583 O 0.04782 0.23448 0.53579 0.0
O584 O 0.08282 0.28544 0.63662 0.0
O585 O 0.0614 0.29956 0.61828 0.0
O586 O 0.04567 0.30087 0.50911 0.0
O587 O 0.07602 0.3291 0.53102 0.0
O588 O 0.09909 0.29172 0.55085 0.0
O589 O 0.10287 0.32071 0.57626 0.0
O590 O 0.07663 0.28173 0.48598 0.0
O591 O 0.08884 0.25957 0.51542 0.0
H592 H 0.12313 0.26931 0.6621 0.0
H593 H 0.1402 0.27511 0.7322 0.0
H594 H 0.0819 0.21737 0.77903 0.0
H595 H 0.06488 0.2118 0.70903 0.0
H596 H 0.0316 0.31157 0.43877 0.0
H597 H 0.04136 0.3176 0.36369 0.0
H598 H 0.11048 0.35446 0.39635 0.0
H599 H 0.10092 0.34844 0.47132 0.0
Sm600 Sm 0.15055 0.41136 0.91744 0.0
Sm601 Sm 0.11133 0.37917 0.96134 0.0
C602 C 0.1811 0.43378 0.85853 0.0
C603 C 0.1879 0.43033 0.81539 0.0
C604 C 0.19252 0.41329 0.80698 0.0
C605 C 0.19941 0.41082 0.76635 0.0
C606 C 0.20185 0.42524 0.73278 0.0
C607 C 0.19712 0.4422 0.74142 0.0
C608 C 0.1903 0.44469 0.78199 0.0
C609 C 0.13229 0.43073 0.97011 0.0
C610 C 0.10906 0.37391 0.86088 0.0
C611 C 0.07566 0.35787 1.00873 0.0
C612 C 0.07055 0.34519 0.04768 0.0
C613 C 0.0591 0.34918 0.07947 0.0
C614 C 0.05846 0.34138 0.12023 0.0
C615 C 0.06912 0.32943 0.12915 0.0
C616 C 0.07917 0.32401 0.09676 0.0
C617 C 0.08002 0.33202 0.056 0.0
C618 C 0.1367 0.36054 0.93878 0.0
C619 C 0.15883 0.4057 1.01675 0.0
O620 O 0.18433 0.42406 0.89107 0.0
O621 O 0.16248 0.43389 0.86127 0.0
O622 O 0.12123 0.41408 0.94571 0.0
O623 O 0.15299 0.43896 0.96088 0.0
O624 O 0.13061 0.38475 0.86568 0.0
O625 O 0.097 0.374 0.89288 0.0
O626 O 0.08989 0.37881 1.01309 0.0
O627 O 0.07936 0.34922 0.9754 0.0
O628 O 0.14375 0.38005 0.95087 0.0
O629 O 0.11537 0.35032 0.93718 0.0
O630 O 0.13689 0.39286 1.01836 0.0
O631 O 0.16886 0.41339 0.97968 0.0
H632 H 0.1908 0.40183 0.83179 0.0
H633 H 0.20255 0.39736 0.76115 0.0
H634 H 0.19903 0.45389 0.71694 0.0
H635 H 0.18702 0.45806 0.78736 0.0
H636 H 0.052 0.35957 0.07347 0.0
H637 H 0.0508 0.34577 0.14533 0.0
H638 H 0.08765 0.315 0.10363 0.0
H639 H 0.08924 0.32909 1.0318 0.0
Sm640 Sm 0.59149 0.74199 0.91646 0.0
Sm641 Sm 0.62785 0.73814 0.9501 0.0
C642 C 0.56753 0.75093 0.86343 0.0
C643 C 0.57255 0.76323 0.82206 0.0
C644 C 0.58774 0.78602 0.81979 0.0
C645 C 0.59274 0.79738 0.78094 0.0
C646 C 0.58294 0.7864 0.74264 0.0
C647 C 0.56762 0.76355 0.74502 0.0
C648 C 0.56248 0.7522 0.78409 0.0
C649 C 0.57691 0.70463 0.96846 0.0
C650 C 0.62837 0.74042 0.84972 0.0
C651 C 0.6539 0.72769 0.99103 0.0
C652 C 0.65536 0.72432 1.03575 0.0
C653 C 0.63633 0.71608 0.06085 0.0
C654 C 0.63816 0.71862 0.10443 0.0
C655 C 0.65909 0.72991 0.12307 0.0
C656 C 0.67811 0.73748 0.09797 0.0
C657 C 0.67621 0.73448 0.05443 0.0
C658 C 0.64162 0.78122 0.92632 0.0
C659 C 0.60091 0.75396 1.01593 0.0
O660 O 0.57681 0.7625 0.89768 0.0
O661 O 0.5672 0.73204 0.86332 0.0
O662 O 0.59243 0.71136 0.94082 0.0
O663 O 0.56678 0.71572 0.96353 0.0
O664 O 0.61378 0.74675 0.85664 0.0
O665 O 0.63437 0.73243 0.88127 0.0
O666 O 0.63596 0.71295 0.97186 0.0
O667 O 0.65933 0.74796 0.98201 0.0
O668 O 0.62368 0.76792 0.94382 0.0
O669 O 0.65206 0.77089 0.91678 0.0
O670 O 0.61353 0.7448 1.01222 0.0
O671 O 0.59215 0.75762 0.98165 0.0
H672 H 0.5959 0.79522 0.84813 0.0
H673 H 0.60423 0.81496 0.78123 0.0
H674 H 0.55981 0.75425 0.7166 0.0
H675 H 0.55073 0.73466 0.78453 0.0
H676 H 0.62016 0.70899 0.04669 0.0
H677 H 0.62329 0.71237 0.12332 0.0
H678 H 0.69444 0.74652 0.11172 0.0
H679 H 0.69101 0.74153 1.03512 0.0
Sm680 Sm 0.26446 0.85541 0.91496 0.0
Sm681 Sm 0.26065 0.89019 0.95781 0.0
C682 C 0.26096 0.82575 0.85776 0.0
C683 C 0.24957 0.81715 0.81594 0.0
C684 C 0.22796 0.8129 0.80848 0.0
C685 C 0.21725 0.80404 0.76952 0.0
C686 C 0.22783 0.79929 0.73635 0.0
C687 C 0.24971 0.80409 0.74392 0.0
C688 C 0.26028 0.8127 0.78301 0.0
C689 C 0.29989 0.87976 0.97175 0.0
C690 C 0.26222 0.89456 0.85674 0.0
C691 C 0.2631 0.92318 1.00227 0.0
C692 C 0.26962 0.93239 0.04468 0.0
C693 C 0.29122 0.94042 0.05919 0.0
C694 C 0.29588 0.94448 0.10208 0.0
C695 C 0.27905 0.94076 0.13076 0.0
C696 C 0.2581 0.93525 0.11531 0.0
C697 C 0.25339 0.931 0.07247 0.0
C698 C 0.22075 0.85935 0.92293 0.0
C699 C 0.24798 0.84498 1.01301 0.0
O700 O 0.24851 0.82078 0.89161 0.0
O701 O 0.27762 0.84603 0.8588 0.0
O702 O 0.29106 0.88767 0.94707 0.0
O703 O 0.2922 0.85921 0.96163 0.0
O704 O 0.25832 0.87405 0.85845 0.0
O705 O 0.26769 0.90623 0.89174 0.0
O706 O 0.27881 0.92523 0.97692 0.0
O707 O 0.24541 0.90367 1.0006 0.0
O708 O 0.2345 0.85545 0.94073 0.0
O709 O 0.22964 0.88044 0.91808 0.0
O710 O 0.2551 0.86649 1.015 0.0
O711 O 0.24727 0.83561 0.97596 0.0
H712 H 0.21918 0.81621 0.833 0.0
H713 H 0.20044 0.80051 0.766 0.0
H714 H 0.25896 0.80139 0.71955 0.0
H715 H 0.27694 0.81586 0.78753 0.0
H716 H 0.30422 0.94225 1.03805 0.0
H717 H 0.3123 0.94911 0.11288 0.0
H718 H 0.24507 0.93329 0.13651 0.0
H719 H 0.23677 0.92544 0.06145 0.0
Sm720 Sm 0.62771 0.888 0.45356 0.0
Sm721 Sm 0.59023 0.85117 0.41323 0.0
C722 C 0.65528 0.92006 0.50301 0.0
C723 C 0.65768 0.91995 0.54858 0.0
C724 C 0.63896 0.90828 0.57433 0.0
C725 C 0.64139 0.9062 0.61745 0.0
C726 C 0.66255 0.91566 0.63505 0.0
C727 C 0.68123 0.92649 0.60888 0.0
C728 C 0.67879 0.92872 0.5658 0.0
C729 C 0.63877 0.85761 0.42492 0.0
C730 C 0.59639 0.84265 0.51156 0.0
C731 C 0.56519 0.82134 0.35556 0.0
C732 C 0.56906 0.81445 0.31289 0.0
C733 C 0.58727 0.81158 0.30499 0.0
C734 C 0.59058 0.80499 0.26473 0.0
C735 C 0.57587 0.80118 0.23095 0.0
C736 C 0.55771 0.80416 0.23908 0.0
C737 C 0.55438 0.81067 0.27935 0.0
C738 C 0.57779 0.87466 0.46832 0.0
C739 C 0.62943 0.89126 0.35382 0.0
O740 O 0.63703 0.91865 0.48922 0.0
O741 O 0.66051 0.90702 0.48327 0.0
O742 O 0.62068 0.8533 0.44131 0.0
O743 O 0.65046 0.87866 0.41785 0.0
O744 O 0.61138 0.86405 0.51158 0.0
O745 O 0.58683 0.83245 0.47568 0.0
O746 O 0.57362 0.8168 0.38854 0.0
O747 O 0.56697 0.84085 0.35823 0.0
O748 O 0.59391 0.88321 0.44202 0.0
O749 O 0.56611 0.85367 0.46056 0.0
O750 O 0.61553 0.86991 0.35797 0.0
O751 O 0.6341 0.90395 0.38728 0.0
H752 H 0.62247 0.90076 0.56122 0.0
H753 H 0.62678 0.898 0.63718 0.0
H754 H 0.6977 0.93372 0.62202 0.0
H755 H 0.69331 0.93707 0.54587 0.0
H756 H 0.59907 0.81452 0.32992 0.0
H757 H 0.60494 0.80326 0.25993 0.0
H758 H 0.54579 0.80118 0.21441 0.0
H759 H 0.54021 0.81271 0.28431 0.0
Sm760 Sm 0.10933 0.73124 0.46243 0.0
Sm761 Sm 0.15074 0.74202 0.42041 0.0
C762 C 0.06938 0.71341 0.4945 0.0
C763 C 0.06171 0.72045 0.53094 0.0
C764 C 0.04726 0.70461 0.55966 0.0
C765 C 0.04516 0.71093 0.60036 0.0
C766 C 0.05759 0.73317 0.6124 0.0
C767 C 0.07008 0.74931 0.58217 0.0
C768 C 0.07219 0.74295 0.5415 0.0
C769 C 0.13689 0.77531 0.46186 0.0
C770 C 0.1548 0.75315 0.5212 0.0
C771 C 0.18294 0.75217 0.36444 0.0
C772 C 0.18975 0.7638 0.32239 0.0
C773 C 0.1894 0.78343 0.315 0.0
C774 C 0.19691 0.7949 0.27637 0.0
C775 C 0.20503 0.78717 0.24359 0.0
C776 C 0.20461 0.76705 0.25047 0.0
C777 C 0.19714 0.75559 0.28934 0.0
C778 C 0.13203 0.70344 0.47139 0.0
C779 C 0.11023 0.74048 0.36057 0.0
O780 O 0.08297 0.7063 0.50376 0.0
O781 O 0.07581 0.72682 0.46209 0.0
O782 O 0.13485 0.76309 0.43049 0.0
O783 O 0.1236 0.76471 0.49288 0.0
O784 O 0.13287 0.74077 0.52125 0.0
O785 O 0.1661 0.75874 0.48499 0.0
O786 O 0.18504 0.76425 0.39788 0.0
O787 O 0.16477 0.73287 0.36545 0.0
O788 O 0.12189 0.70872 0.44441 0.0
O789 O 0.15281 0.71797 0.46914 0.0
O790 O 0.13079 0.74453 0.36224 0.0
O791 O 0.09787 0.73346 0.39478 0.0
H792 H 0.0391 0.68731 0.55182 0.0
H793 H 0.03533 0.69828 0.62344 0.0
H794 H 0.07987 0.76652 0.59104 0.0
H795 H 0.08344 0.75549 0.51963 0.0
H796 H 0.18351 0.79012 0.33934 0.0
H797 H 0.19638 0.80998 0.2723 0.0
H798 H 0.21071 0.76047 0.22635 0.0
H799 H 0.1975 0.74044 0.29383 0.0
Sm800 Sm 0.26457 0.37419 0.45343 0.0
Sm801 Sm 0.26423 0.41223 0.41785 0.0
C802 C 0.26918 0.34589 0.50063 0.0
C803 C 0.26644 0.3427 0.54618 0.0
C804 C 0.27341 0.36096 0.57312 0.0
C805 C 0.26844 0.35777 0.61608 0.0
C806 C 0.25655 0.33633 0.63236 0.0
C807 C 0.24896 0.3181 0.60523 0.0
C808 C 0.25387 0.32129 0.56222 0.0
C809 C 0.22241 0.36403 0.43012 0.0
C810 C 0.2521 0.40503 0.51691 0.0
C811 C 0.25799 0.43674 0.36103 0.0
C812 C 0.24471 0.43139 0.32099 0.0
C813 C 0.22537 0.41084 0.31558 0.0
C814 C 0.21269 0.40603 0.27833 0.0
C815 C 0.21892 0.42157 0.24505 0.0
C816 C 0.23862 0.44195 0.25022 0.0
C817 C 0.25128 0.44678 0.28763 0.0
C818 C 0.30135 0.42461 0.46976 0.0
C819 C 0.26185 0.3726 0.35403 0.0
O820 O 0.28602 0.36439 0.48753 0.0
O821 O 0.25096 0.34087 0.48092 0.0
O822 O 0.23685 0.38157 0.44705 0.0
O823 O 0.23088 0.35177 0.42146 0.0
O824 O 0.25961 0.39098 0.51379 0.0
O825 O 0.24914 0.41402 0.4822 0.0
O826 O 0.24692 0.42994 0.3967 0.0
O827 O 0.27518 0.434 0.36044 0.0
O828 O 0.29335 0.40856 0.4431 0.0
O829 O 0.29202 0.43637 0.46303 0.0
O830 O 0.25475 0.38646 0.36239 0.0
O831 O 0.27187 0.36821 0.38453 0.0
H832 H 0.28272 0.37765 0.56106 0.0
H833 H 0.27477 0.37198 0.63686 0.0
H834 H 0.23992 0.30144 0.61767 0.0
H835 H 0.24782 0.3071 0.54147 0.0
H836 H 0.21997 0.39845 0.34032 0.0
H837 H 0.19798 0.38998 0.27559 0.0
H838 H 0.24404 0.45447 0.22575 0.0
H839 H 0.26615 0.46269 0.29064 0.0
Sm840 Sm 0.23135 0.29312 1.03669 0.0
Sm841 Sm 0.18528 0.26103 0.07817 0.0
C842 C 0.27016 0.30741 1.00081 0.0
C843 C 0.2777 0.31304 0.95687 0.0
C844 C 0.2768 0.29666 0.93006 0.0
C845 C 0.27781 0.29954 0.88643 0.0
C846 C 0.28052 0.31921 0.86912 0.0
C847 C 0.28396 0.33657 0.8961 0.0
C848 C 0.28249 0.33349 0.93978 0.0
C849 C 0.20871 0.31561 0.04578 0.0
C850 C 0.18542 0.27104 0.97679 0.0
C851 C 0.15292 0.24038 0.13436 0.0
C852 C 0.14664 0.24388 0.17811 0.0
C853 C 0.1423 0.26101 0.18743 0.0
C854 C 0.13599 0.26356 0.22861 0.0
C855 C 0.13379 0.24907 0.26192 0.0
C856 C 0.13824 0.232 0.25237 0.0
C857 C 0.14452 0.22946 0.21128 0.0
C858 C 0.20268 0.24075 1.02561 0.0
C859 C 0.22793 0.29772 0.13844 0.0
O860 O 0.25613 0.28655 1.00781 0.0
O861 O 0.26466 0.32048 1.02002 0.0
O862 O 0.20229 0.29602 0.0572 0.0
O863 O 0.22835 0.32426 1.02955 0.0
O864 O 0.20743 0.28041 0.97834 0.0
O865 O 0.1729 0.2643 1.01174 0.0
O866 O 0.15192 0.25212 0.10265 0.0
O867 O 0.16989 0.23728 0.13159 0.0
O868 O 0.21359 0.25684 0.05135 0.0
O869 O 0.18193 0.23309 1.03397 0.0
O870 O 0.20632 0.2854 0.13312 0.0
O871 O 0.24142 0.29974 0.10737 0.0
H872 H 0.27374 0.28102 0.9427 0.0
H873 H 0.27515 0.28587 0.86639 0.0
H874 H 0.28673 0.35214 0.88342 0.0
H875 H 0.28378 0.34663 0.95983 0.0
H876 H 0.14379 0.27252 0.16292 0.0
H877 H 0.1331 0.27713 0.23437 0.0
H878 H 0.13649 0.22021 0.27649 0.0
H879 H 0.14758 0.216 0.20534 0.0
Sm880 Sm 0.7098 0.93152 0.04591 0.0
Sm881 Sm 0.74676 0.92813 0.07857 0.0
C882 C 0.68327 0.94183 1.00578 0.0
C883 C 0.68301 0.94832 0.96236 0.0
C884 C 0.70236 0.95668 0.93826 0.0
C885 C 0.70147 0.95817 0.89459 0.0
C886 C 0.6811 0.95075 0.87475 0.0
C887 C 0.66184 0.94329 0.89895 0.0
C888 C 0.66283 0.94218 0.94287 0.0
C889 C 0.69651 0.88851 0.06918 0.0
C890 C 0.73706 0.91616 0.97961 0.0
C891 C 0.77181 0.92072 0.13163 0.0
C892 C 0.76708 0.90865 0.17292 0.0
C893 C 0.74614 0.89039 0.1814 0.0
C894 C 0.74169 0.87899 0.22014 0.0
C895 C 0.75803 0.88548 0.25178 0.0
C896 C 0.77887 0.90412 0.24354 0.0
C897 C 0.78332 0.91553 0.20463 0.0
C898 C 0.76079 0.96548 1.02711 0.0
C899 C 0.70927 0.92761 0.14625 0.0
O900 O 0.69989 0.95599 1.0288 0.0
O901 O 0.67938 0.92164 1.00951 0.0
O902 O 0.71445 0.90197 0.05182 0.0
O903 O 0.68576 0.89855 0.07852 0.0
O904 O 0.72441 0.92528 0.9837 0.0
O905 O 0.74607 0.91258 1.01357 0.0
O906 O 0.76261 0.90875 0.09774 0.0
O907 O 0.77106 0.93905 0.13173 0.0
O908 O 0.74525 0.9586 0.05478 0.0
O909 O 0.77108 0.95453 1.03165 0.0
O910 O 0.72365 0.92122 0.13751 0.0
O911 O 0.70358 0.93659 0.11588 0.0
H912 H 0.71783 0.96049 0.95284 0.0
H913 H 0.71637 0.96349 0.87618 0.0
H914 H 0.64599 0.93734 0.88372 0.0
H915 H 0.64773 0.93519 0.96125 0.0
H916 H 0.73312 0.88488 0.158 0.0
H917 H 0.7253 0.8651 0.22536 0.0
H918 H 0.79196 0.90965 0.26677 0.0
H919 H 0.79954 0.92966 0.19919 0.0
Sm920 Sm 0.07659 0.78139 1.03994 0.0
Sm921 Sm 0.07531 0.81728 0.0829 0.0
C922 C 0.07352 0.74903 0.99252 0.0
C923 C 0.0727 0.74446 0.94736 0.0
C924 C 0.05669 0.74482 0.92135 0.0
C925 C 0.05779 0.74304 0.87774 0.0
C926 C 0.07506 0.74114 0.85958 0.0
C927 C 0.09083 0.74033 0.88573 0.0
C928 C 0.08957 0.74188 0.92945 0.0
C929 C 0.11746 0.81088 0.07258 0.0
C930 C 0.09108 0.82708 0.98452 0.0
C931 C 0.07968 0.8473 0.13991 0.0
C932 C 0.09052 0.8554 0.18227 0.0
C933 C 0.11288 0.86208 0.18906 0.0
C934 C 0.12301 0.87057 0.22853 0.0
C935 C 0.11111 0.87251 0.26284 0.0
C936 C 0.08855 0.8653 0.25598 0.0
C937 C 0.07852 0.85705 0.21638 0.0
C938 C 0.0398 0.79475 1.02618 0.0
C939 C 0.07508 0.77674 0.14057 0.0
O940 O 0.05633 0.74872 1.00958 0.0
O941 O 0.0922 0.76559 1.00516 0.0
O942 O 0.10414 0.8157 0.05571 0.0
O943 O 0.10752 0.7898 0.0789 0.0
O944 O 0.08319 0.80542 0.98266 0.0
O945 O 0.09253 0.8367 1.02164 0.0
O946 O 0.09255 0.8518 0.10681 0.0
O947 O 0.06235 0.82743 0.13819 0.0
O948 O 0.04723 0.78571 0.05157 0.0
O949 O 0.04908 0.81556 1.03542 0.0
O950 O 0.08076 0.7978 0.13869 0.0
O951 O 0.06812 0.7649 0.10576 0.0
H952 H 0.04359 0.74686 0.93448 0.0
H953 H 0.04513 0.74317 0.85823 0.0
H954 H 0.10434 0.73897 0.87236 0.0
H955 H 0.10216 0.74177 0.94924 0.0
H956 H 0.12271 0.86101 0.16365 0.0
H957 H 0.14039 0.87609 0.23158 0.0
H958 H 0.07841 0.86586 0.28127 0.0
H959 H 0.06127 0.852 0.21236 0.0
Sm960 Sm 0.41182 0.15077 0.91593 0.0
Sm961 Sm 0.37825 0.11159 0.87608 0.0
C962 C 0.43633 0.18169 0.97232 0.0
C963 C 0.43319 0.18864 1.01538 0.0
C964 C 0.41624 0.19334 1.02395 0.0
C965 C 0.41365 0.19987 0.06474 0.0
C966 C 0.42785 0.20181 0.09826 0.0
C967 C 0.44475 0.19701 0.08949 0.0
C968 C 0.44737 0.19057 0.0487 0.0
C969 C 0.42855 0.12977 0.86397 0.0
C970 C 0.37325 0.11099 0.97554 0.0
C971 C 0.35607 0.07581 0.83039 0.0
C972 C 0.3516 0.07427 0.78522 0.0
C973 C 0.36339 0.06808 0.75799 0.0
C974 C 0.3636 0.07183 0.71474 0.0
C975 C 0.3518 0.08149 0.6987 0.0
C976 C 0.33939 0.08691 0.72562 0.0
C977 C 0.33916 0.0832 0.76864 0.0
C978 C 0.36095 0.13808 0.89767 0.0
C979 C 0.40554 0.15771 0.81695 0.0
O980 O 0.42658 0.18515 0.94015 0.0
O981 O 0.43569 0.1627 0.9698 0.0
O982 O 0.41285 0.12038 0.89095 0.0
O983 O 0.43735 0.15092 0.86849 0.0
O984 O 0.38577 0.13245 0.97007 0.0
O985 O 0.37157 0.09797 0.94417 0.0
O986 O 0.37683 0.08395 0.83991 0.0
O987 O 0.34653 0.08416 0.85317 0.0
O988 O 0.38024 0.1447 0.88424 0.0
O989 O 0.35092 0.11695 0.90355 0.0
O990 O 0.39268 0.13573 0.81671 0.0
O991 O 0.41326 0.16831 0.85337 0.0
H992 H 0.40488 0.19189 0.99919 0.0
H993 H 0.40024 0.20305 0.07011 0.0
H994 H 0.45622 0.19854 0.11404 0.0
H995 H 0.4606 0.18711 0.04316 0.0
H996 H 0.37325 0.06138 0.77039 0.0
H997 H 0.37288 0.06718 0.69388 0.0
H998 H 0.33009 0.09426 0.71336 0.0
H999 H 0.33005 0.08832 0.78888 0.0
Sm1000 Sm 0.8527 0.26327 0.91133 0.0
Sm1001 Sm 0.89364 0.26508 0.87447 0.0
C1002 C 0.82011 0.25428 0.96575 0.0
C1003 C 0.81322 0.24228 1.00746 0.0
C1004 C 0.81835 0.22581 1.01767 0.0
C1005 C 0.81129 0.21406 0.05618 0.0
C1006 C 0.79883 0.21833 0.086 0.0
C1007 C 0.79427 0.23533 0.07617 0.0
C1008 C 0.80133 0.24707 1.03747 0.0
C1009 C 0.87673 0.29992 0.85838 0.0
C1010 C 0.89166 0.26391 0.97638 0.0
C1011 C 0.93073 0.27391 0.83657 0.0
C1012 C 0.94091 0.27958 0.79472 0.0
C1013 C 0.94435 0.29864 0.77348 0.0
C1014 C 0.94836 0.3006 0.73012 0.0
C1015 C 0.94949 0.28388 0.70804 0.0
C1016 C 0.94883 0.26623 0.73038 0.0
C1017 C 0.9445 0.26408 0.77359 0.0
C1018 C 0.86313 0.22391 0.90481 0.0
C1019 C 0.84933 0.24892 0.81161 0.0
O1020 O 0.81775 0.24235 0.932 0.0
O1021 O 0.83871 0.27319 0.96518 0.0
O1022 O 0.885 0.2918 0.88416 0.0
O1023 O 0.85579 0.29117 0.86671 0.0
O1024 O 0.87124 0.25981 0.97061 0.0
O1025 O 0.90529 0.26981 0.94401 0.0
O1026 O 0.92828 0.28888 0.85682 0.0
O1027 O 0.91351 0.2541 0.83936 0.0
O1028 O 0.85938 0.23749 0.88622 0.0
O1029 O 0.88427 0.23255 0.90927 0.0
O1030 O 0.87109 0.257 0.81432 0.0
O1031 O 0.83744 0.2471 0.84604 0.0
H1032 H 0.82773 0.22186 0.99564 0.0
H1033 H 0.81566 0.20154 0.06254 0.0
H1034 H 0.78471 0.23919 0.09785 0.0
H1035 H 0.79722 0.25976 1.03077 0.0
H1036 H 0.94241 0.31122 0.78951 0.0
H1037 H 0.94876 0.31421 0.71323 0.0
H1038 H 0.95021 0.25339 0.71399 0.0
H1039 H 0.9424 0.2495 0.78985 0.0
Sm1040 Sm 0.74195 0.59536 0.91032 0.0
Sm1041 Sm 0.72941 0.62585 0.86884 0.0
C1042 C 0.75254 0.57332 0.96592 0.0
C1043 C 0.76253 0.57591 1.00952 0.0
C1044 C 0.78481 0.5914 1.01807 0.0
C1045 C 0.79413 0.59262 0.05846 0.0
C1046 C 0.78155 0.57846 0.09206 0.0
C1047 C 0.75911 0.56325 0.08339 0.0
C1048 C 0.74988 0.56193 0.04297 0.0
C1049 C 0.70335 0.57516 0.85873 0.0
C1050 C 0.73969 0.63406 0.97065 0.0
C1051 C 0.70739 0.64355 0.83595 0.0
C1052 C 0.70545 0.64822 0.7913 0.0
C1053 C 0.68979 0.63129 0.76553 0.0
C1054 C 0.69193 0.63285 0.72177 0.0
C1055 C 0.70939 0.65167 0.70301 0.0
C1056 C 0.72372 0.66958 0.72854 0.0
C1057 C 0.72175 0.66788 0.77248 0.0
C1058 C 0.77326 0.64375 0.86725 0.0
C1059 C 0.7528 0.60321 0.81013 0.0
O1060 O 0.7654 0.58502 0.93442 0.0
O1061 O 0.7328 0.57106 0.96342 0.0
O1062 O 0.70865 0.59041 0.88608 0.0
O1063 O 0.71789 0.56892 0.86131 0.0
O1064 O 0.74378 0.61755 0.9686 0.0
O1065 O 0.7325 0.63951 0.93673 0.0
O1066 O 0.69817 0.62262 0.84584 0.0
O1067 O 0.72696 0.65535 0.85279 0.0
O1068 O 0.76156 0.6325 0.89888 0.0
O1069 O 0.76202 0.6466 0.83762 0.0
O1070 O 0.73907 0.61133 0.81004 0.0
O1071 O 0.75926 0.59836 0.84619 0.0
H1072 H 0.79523 0.60244 0.99334 0.0
H1073 H 0.81146 0.60442 0.06276 0.0
H1074 H 0.74842 0.55226 0.10788 0.0
H1075 H 0.73271 0.54973 1.03779 0.0
H1076 H 0.67689 0.6161 0.77914 0.0
H1077 H 0.68071 0.61873 0.70287 0.0
H1078 H 0.73698 0.68451 0.71463 0.0
H1079 H 0.73387 0.68137 0.7916 0.0
Sm1080 Sm 0.81558 0.74659 0.24696 0.0
Sm1081 Sm 0.77895 0.71184 0.29629 0.0
C1082 C 0.84649 0.76926 0.18866 0.0
C1083 C 0.85415 0.76413 0.14793 0.0
C1084 C 0.85183 0.74325 0.14068 0.0
C1085 C 0.86044 0.739 0.10377 0.0
C1086 C 0.87165 0.75546 0.07264 0.0
C1087 C 0.87335 0.77618 0.07946 0.0
C1088 C 0.8648 0.78045 0.11656 0.0
C1089 C 0.79281 0.76167 0.29964 0.0
C1090 C 0.77649 0.70313 0.19365 0.0
C1091 C 0.74369 0.68472 0.3388 0.0
C1092 C 0.74392 0.67859 0.38282 0.0
C1093 C 0.7582 0.6947 0.41174 0.0
C1094 C 0.76025 0.68876 0.45272 0.0
C1095 C 0.74807 0.66664 0.46531 0.0
C1096 C 0.73475 0.65038 0.43574 0.0
C1097 C 0.73267 0.65635 0.39462 0.0
C1098 C 0.81346 0.70511 0.29295 0.0
C1099 C 0.82477 0.74541 0.34816 0.0
O1100 O 0.85006 0.76128 0.22351 0.0
O1101 O 0.82716 0.76802 0.18885 0.0
O1102 O 0.78421 0.74463 0.27593 0.0
O1103 O 0.81377 0.77256 0.29122 0.0
O1104 O 0.79417 0.72304 0.19133 0.0
O1105 O 0.76708 0.69531 0.23066 0.0
O1106 O 0.74915 0.7053 0.33225 0.0
O1107 O 0.75337 0.67772 0.31289 0.0
O1108 O 0.80687 0.71126 0.26093 0.0
O1109 O 0.80144 0.70184 0.32638 0.0
O1110 O 0.80303 0.73228 0.35128 0.0
O1111 O 0.83451 0.75131 0.31043 0.0
H1112 H 0.84357 0.73021 0.16392 0.0
H1113 H 0.85828 0.72269 0.0997 0.0
H1114 H 0.88189 0.7894 0.05672 0.0
H1115 H 0.86688 0.79671 0.1211 0.0
H1116 H 0.76764 0.71196 0.4029 0.0
H1117 H 0.77035 0.7016 0.47518 0.0
H1118 H 0.72523 0.6332 0.44508 0.0
H1119 H 0.7223 0.64368 0.37212 0.0
Sm1120 Sm 0.25954 0.07683 0.24989 0.0
Sm1121 Sm 0.29353 0.06932 0.28552 0.0
C1122 C 0.23695 0.08673 0.195 0.0
C1123 C 0.24267 0.09921 0.15408 0.0
C1124 C 0.26462 0.11501 0.14432 0.0
C1125 C 0.26991 0.12712 0.10627 0.0
C1126 C 0.25341 0.12379 0.07666 0.0
C1127 C 0.23148 0.10753 0.08614 0.0
C1128 C 0.2262 0.09544 0.12433 0.0
C1129 C 0.24259 0.03859 0.3003 0.0
C1130 C 0.29607 0.07324 0.18676 0.0
C1131 C 0.31566 0.05471 0.32828 0.0
C1132 C 0.32229 0.05901 0.37231 0.0
C1133 C 0.31316 0.0413 0.40088 0.0
C1134 C 0.31368 0.04538 0.44398 0.0
C1135 C 0.32362 0.06717 0.45848 0.0
C1136 C 0.33375 0.08488 0.43025 0.0
C1137 C 0.33305 0.08085 0.38724 0.0
C1138 C 0.31061 0.11341 0.26334 0.0
C1139 C 0.26935 0.08933 0.3498 0.0
O1140 O 0.2462 0.09826 0.22931 0.0
O1141 O 0.23658 0.06783 0.19477 0.0
O1142 O 0.258 0.04482 0.27263 0.0
O1143 O 0.23384 0.05103 0.29656 0.0
O1144 O 0.28474 0.08331 0.19414 0.0
O1145 O 0.29733 0.06111 0.21703 0.0
O1146 O 0.29434 0.04319 0.32311 0.0
O1147 O 0.32523 0.07163 0.30272 0.0
O1148 O 0.29202 0.10069 0.27911 0.0
O1149 O 0.3209 0.10251 0.25838 0.0
O1150 O 0.2821 0.08025 0.34655 0.0
O1151 O 0.25984 0.09207 0.31556 0.0
H1152 H 0.27774 0.11814 0.16633 0.0
H1153 H 0.28703 0.13909 0.10002 0.0
H1154 H 0.21824 0.10448 0.06453 0.0
H1155 H 0.20915 0.08328 0.13084 0.0
H1156 H 0.30445 0.02439 0.38969 0.0
H1157 H 0.30619 0.0316 0.46592 0.0
H1158 H 0.34161 0.10177 0.44145 0.0
H1159 H 0.33984 0.09483 0.36579 0.0
Sm1160 Sm 0.92977 0.18594 0.25167 0.0
Sm1161 Sm 0.93007 0.22511 0.28711 0.0
C1162 C 0.92245 0.15329 0.1984 0.0
C1163 C 0.91162 0.14524 0.15595 0.0
C1164 C 0.90026 0.15451 0.13553 0.0
C1165 C 0.8892 0.14593 0.09667 0.0
C1166 C 0.88889 0.12761 0.07729 0.0
C1167 C 0.90068 0.11871 0.09756 0.0
C1168 C 0.91188 0.12741 0.13613 0.0
C1169 C 0.96569 0.2103 0.30635 0.0
C1170 C 0.93123 0.22546 0.1866 0.0
C1171 C 0.93603 0.25927 0.33178 0.0
C1172 C 0.93654 0.26215 0.3772 0.0
C1173 C 0.94249 0.24975 0.40324 0.0
C1174 C 0.93884 0.24888 0.44656 0.0
C1175 C 0.92934 0.26051 0.464 0.0
C1176 C 0.92382 0.27331 0.43818 0.0
C1177 C 0.92726 0.27398 0.39466 0.0
C1178 C 0.88879 0.19375 0.25805 0.0
C1179 C 0.91539 0.18148 0.35087 0.0
O1180 O 0.90948 0.15104 0.23027 0.0
O1181 O 0.94104 0.17218 0.1996 0.0
O1182 O 0.95832 0.2185 0.27875 0.0
O1183 O 0.95634 0.18916 0.29982 0.0
O1184 O 0.92663 0.20484 0.19213 0.0
O1185 O 0.93694 0.23876 0.21928 0.0
O1186 O 0.95244 0.25784 0.3154 0.0
O1187 O 0.91678 0.24417 0.318 0.0
O1188 O 0.90254 0.19036 0.27698 0.0
O1189 O 0.89771 0.21475 0.25083 0.0
O1190 O 0.92289 0.20303 0.34746 0.0
O1191 O 0.91379 0.16965 0.31663 0.0
H1192 H 0.89957 0.16815 0.14997 0.0
H1193 H 0.88026 0.15322 0.08253 0.0
H1194 H 0.90123 0.10488 0.08363 0.0
H1195 H 0.92051 0.11993 0.15084 0.0
H1196 H 0.94937 0.24023 0.39001 0.0
H1197 H 0.94363 0.23937 0.46649 0.0
H1198 H 0.91675 0.2826 0.45172 0.0
H1199 H 0.92213 0.28316 0.37457 0.0
Sm1200 Sm 0.29663 0.22931 0.79076 0.0
Sm1201 Sm 0.25856 0.18723 0.7482 0.0
C1202 C 0.31835 0.26836 0.82576 0.0
C1203 C 0.32463 0.27184 0.86983 0.0
C1204 C 0.32297 0.28785 0.89334 0.0
C1205 C 0.32371 0.28732 0.93743 0.0
C1206 C 0.32601 0.27071 0.95763 0.0
C1207 C 0.32814 0.25507 0.93373 0.0
C1208 C 0.32755 0.25569 0.89017 0.0
C1209 C 0.31225 0.2011 0.77572 0.0
C1210 C 0.26918 0.18228 0.84696 0.0
C1211 C 0.23427 0.15648 0.69156 0.0
C1212 C 0.23768 0.14895 0.64894 0.0
C1213 C 0.25059 0.13883 0.64384 0.0
C1214 C 0.25304 0.13134 0.60378 0.0
C1215 C 0.24273 0.13375 0.56727 0.0
C1216 C 0.2301 0.14421 0.57256 0.0
C1217 C 0.22754 0.15153 0.6126 0.0
C1218 C 0.2451 0.21003 0.80408 0.0
C1219 C 0.3001 0.22624 0.68948 0.0
O1220 O 0.29706 0.25833 0.81988 0.0
O1221 O 0.32809 0.26004 0.8033 0.0
O1222 O 0.29321 0.19762 0.76622 0.0
O1223 O 0.3237 0.22022 0.79369 0.0
O1224 O 0.28241 0.20424 0.84811 0.0
O1225 O 0.26032 0.17151 0.81095 0.0
O1226 O 0.24298 0.15256 0.72507 0.0
O1227 O 0.23546 0.17581 0.69314 0.0
O1228 O 0.2612 0.21843 0.77766 0.0
O1229 O 0.23372 0.18905 0.79592 0.0
O1230 O 0.28407 0.2055 0.69308 0.0
O1231 O 0.3051 0.23991 0.7214 0.0
H1232 H 0.32014 0.3 0.87777 0.0
H1233 H 0.32206 0.29951 0.95569 0.0
H1234 H 0.32937 0.2418 0.94872 0.0
H1235 H 0.32803 0.24266 0.87255 0.0
H1236 H 0.2587 0.13647 0.67092 0.0
H1237 H 0.26267 0.12321 0.60179 0.0
H1238 H 0.22219 0.14696 0.54565 0.0
H1239 H 0.2175 0.15923 0.61512 0.0
Sm1240 Sm 0.77764 0.06639 0.79351 0.0
Sm1241 Sm 0.8194 0.07629 0.75396 0.0
C1242 C 0.73743 0.05024 0.82389 0.0
C1243 C 0.72974 0.05585 0.86241 0.0
C1244 C 0.71651 0.03897 0.89079 0.0
C1245 C 0.7141 0.04415 0.93227 0.0
C1246 C 0.72483 0.06624 0.94549 0.0
C1247 C 0.73625 0.08321 0.9161 0.0
C1248 C 0.7388 0.07805 0.87466 0.0
C1249 C 0.80498 0.11028 0.79277 0.0
C1250 C 0.82369 0.08905 0.85245 0.0
C1251 C 0.85056 0.08337 0.69734 0.0
C1252 C 0.85752 0.09322 0.65388 0.0
C1253 C 0.85474 0.11077 0.6399 0.0
C1254 C 0.86139 0.11972 0.59881 0.0
C1255 C 0.87096 0.11135 0.57027 0.0
C1256 C 0.87355 0.09366 0.58449 0.0
C1257 C 0.86694 0.08477 0.62554 0.0
C1258 C 0.80053 0.03861 0.80732 0.0
C1259 C 0.78034 0.07516 0.69134 0.0
O1260 O 0.74928 0.04086 0.83026 0.0
O1261 O 0.74561 0.06548 0.79462 0.0
O1262 O 0.80402 0.09808 0.76196 0.0
O1263 O 0.79113 0.09954 0.82298 0.0
O1264 O 0.80176 0.07563 0.8528 0.0
O1265 O 0.83474 0.09506 0.81608 0.0
O1266 O 0.85364 0.09679 0.72904 0.0
O1267 O 0.83175 0.06475 0.70015 0.0
O1268 O 0.79007 0.0434 0.78003 0.0
O1269 O 0.8214 0.05247 0.80311 0.0
O1270 O 0.80143 0.08189 0.69663 0.0
O1271 O 0.76673 0.06577 0.72337 0.0
H1272 H 0.70957 0.02181 0.88191 0.0
H1273 H 0.7053 0.0309 0.95489 0.0
H1274 H 0.74482 0.10032 0.92607 0.0
H1275 H 0.74924 0.0914 0.85334 0.0
H1276 H 0.84733 0.11755 0.6607 0.0
H1277 H 0.85869 0.13302 0.58924 0.0
H1278 H 0.88103 0.0868 0.56411 0.0
H1279 H 0.86929 0.07124 0.63524 0.0
Sm1280 Sm 0.93828 0.71348 0.79151 0.0
Sm1281 Sm 0.93276 0.74676 0.74728 0.0
C1282 C 0.95181 0.68844 0.82699 0.0
C1283 C 0.94947 0.68185 0.87136 0.0
C1284 C 0.95198 0.69699 0.90299 0.0
C1285 C 0.94666 0.69016 0.9447 0.0
C1286 C 0.93794 0.66786 0.95541 0.0
C1287 C 0.93508 0.6526 0.92355 0.0
C1288 C 0.94098 0.65962 0.88179 0.0
C1289 C 0.89544 0.70052 0.7892 0.0
C1290 C 0.9198 0.74112 0.84711 0.0
C1291 C 0.92246 0.76882 0.69139 0.0
C1292 C 0.91074 0.76402 0.64949 0.0
C1293 C 0.89051 0.74451 0.64305 0.0
C1294 C 0.87922 0.74037 0.60426 0.0
C1295 C 0.88784 0.75539 0.56994 0.0
C1296 C 0.90825 0.77493 0.5765 0.0
C1297 C 0.91945 0.77917 0.61566 0.0
C1298 C 0.9695 0.76526 0.80257 0.0
C1299 C 0.93426 0.70858 0.6873 0.0
O1300 O 0.96512 0.70935 0.81896 0.0
O1301 O 0.93311 0.68037 0.8069 0.0
O1302 O 0.90814 0.71009 0.75749 0.0
O1303 O 0.90525 0.69772 0.82154 0.0
O1304 O 0.93118 0.7305 0.84948 0.0
O1305 O 0.91527 0.74645 0.80957 0.0
O1306 O 0.91047 0.7587 0.72483 0.0
O1307 O 0.94177 0.77006 0.69225 0.0
O1308 O 0.96392 0.74869 0.77816 0.0
O1309 O 0.95746 0.7739 0.79301 0.0
O1310 O 0.93626 0.72833 0.68858 0.0
O1311 O 0.93442 0.69897 0.72314 0.0
H1312 H 0.95747 0.71403 0.89551 0.0
H1313 H 0.94949 0.70245 0.96847 0.0
H1314 H 0.92802 0.63523 0.93074 0.0
H1315 H 0.93818 0.6476 0.85741 0.0
H1316 H 0.88321 0.73241 0.66823 0.0
H1317 H 0.86342 0.72538 0.60173 0.0
H1318 H 0.91581 0.78692 0.55127 0.0
H1319 H 0.935 0.79438 0.61951 0.0
Sm1320 Sm 0.89573 0.62627 0.37227 0.0
Sm1321 Sm 0.85459 0.59302 0.41319 0.0
C1322 C 0.93381 0.64952 0.33491 0.0
C1323 C 0.93535 0.65315 0.2891 0.0
C1324 C 0.92197 0.63523 0.26267 0.0
C1325 C 0.91874 0.63863 0.22077 0.0
C1326 C 0.92886 0.66004 0.20423 0.0
C1327 C 0.94227 0.67812 0.23024 0.0
C1328 C 0.94551 0.67467 0.27266 0.0
C1329 C 0.86595 0.63954 0.37409 0.0
C1330 C 0.85096 0.60066 0.31186 0.0
C1331 C 0.821 0.57108 0.4668 0.0
C1332 C 0.81357 0.57391 0.50992 0.0
C1333 C 0.81502 0.59386 0.52274 0.0
C1334 C 0.80663 0.59565 0.56236 0.0
C1335 C 0.79654 0.57756 0.59064 0.0
C1336 C 0.79579 0.55783 0.57801 0.0
C1337 C 0.80407 0.55604 0.53838 0.0
C1338 C 0.87247 0.57431 0.35754 0.0
C1339 C 0.89468 0.62989 0.47612 0.0
O1340 O 0.92669 0.62917 0.34726 0.0
O1341 O 0.92416 0.65877 0.35459 0.0
O1342 O 0.86908 0.63002 0.40553 0.0
O1343 O 0.87893 0.64274 0.34224 0.0
O1344 O 0.87294 0.61105 0.31271 0.0
O1345 O 0.83942 0.59428 0.3478 0.0
O1346 O 0.82087 0.58357 0.43583 0.0
O1347 O 0.838 0.56804 0.46486 0.0
O1348 O 0.88361 0.59029 0.38325 0.0
O1349 O 0.85176 0.56624 0.36662 0.0
O1350 O 0.87616 0.6107 0.47317 0.0
O1351 O 0.90581 0.63957 0.44132 0.0
H1352 H 0.91307 0.61857 0.27471 0.0
H1353 H 0.90816 0.62449 0.20123 0.0
H1354 H 0.95032 0.69476 0.21769 0.0
H1355 H 0.9552 0.68874 0.29297 0.0
H1356 H 0.82233 0.60805 0.50182 0.0
H1357 H 0.80752 0.61111 0.57016 0.0
H1358 H 0.78877 0.54358 0.59873 0.0
H1359 H 0.80279 0.54048 0.52975 0.0
Sm1360 Sm 0.37688 0.26424 0.37668 0.0
Sm1361 Sm 0.41335 0.26153 0.41444 0.0
C1362 C 0.34975 0.27166 0.33199 0.0
C1363 C 0.34704 0.27077 0.28647 0.0
C1364 C 0.36572 0.27995 0.26021 0.0
C1365 C 0.36349 0.2752 0.21734 0.0
C1366 C 0.34259 0.26093 0.20044 0.0
C1367 C 0.32392 0.25163 0.22676 0.0
C1368 C 0.32613 0.25671 0.2696 0.0
C1369 C 0.36418 0.22154 0.40305 0.0
C1370 C 0.40557 0.24959 0.31447 0.0
C1371 C 0.43732 0.2538 0.46992 0.0
C1372 C 0.43231 0.24112 0.51059 0.0
C1373 C 0.41171 0.22202 0.51736 0.0
C1374 C 0.40738 0.20965 0.55491 0.0
C1375 C 0.42338 0.21618 0.58713 0.0
C1376 C 0.44375 0.2357 0.58091 0.0
C1377 C 0.44819 0.24793 0.54301 0.0
C1378 C 0.42789 0.2986 0.3615 0.0
C1379 C 0.37499 0.26342 0.47545 0.0
O1380 O 0.36837 0.28765 0.34678 0.0
O1381 O 0.3441 0.25252 0.34861 0.0
O1382 O 0.38205 0.23511 0.38584 0.0
O1383 O 0.35282 0.23122 0.40954 0.0
O1384 O 0.39279 0.25855 0.31671 0.0
O1385 O 0.41373 0.24581 0.34958 0.0
O1386 O 0.42904 0.24226 0.43523 0.0
O1387 O 0.43604 0.27184 0.47033 0.0
O1388 O 0.41185 0.29154 0.38801 0.0
O1389 O 0.43852 0.28814 0.36833 0.0
O1390 O 0.38815 0.25513 0.47042 0.0
O1391 O 0.37217 0.27359 0.44335 0.0
H1392 H 0.38212 0.29021 0.27287 0.0
H1393 H 0.37806 0.28289 0.19742 0.0
H1394 H 0.30767 0.24046 0.21417 0.0
H1395 H 0.3117 0.24894 0.28989 0.0
H1396 H 0.39897 0.21649 0.49335 0.0
H1397 H 0.39143 0.19492 0.55882 0.0
H1398 H 0.45648 0.2412 0.60491 0.0
H1399 H 0.46417 0.26261 0.53884 0.0
Sm1400 Sm 0.7455 0.11423 0.3714 0.0
Sm1401 Sm 0.74065 0.14836 0.41504 0.0
C1402 C 0.74625 0.08337 0.32464 0.0
C1403 C 0.7452 0.07796 0.27966 0.0
C1404 C 0.72533 0.06936 0.25711 0.0
C1405 C 0.72528 0.06704 0.21338 0.0
C1406 C 0.74498 0.07286 0.19193 0.0
C1407 C 0.7646 0.08021 0.21461 0.0
C1408 C 0.76471 0.08275 0.25832 0.0
C1409 C 0.78494 0.14622 0.40579 0.0
C1410 C 0.75633 0.15904 0.3162 0.0
C1411 C 0.74386 0.17731 0.47377 0.0
C1412 C 0.7546 0.1848 0.51644 0.0
C1413 C 0.7729 0.18283 0.5285 0.0
C1414 C 0.78302 0.19033 0.56848 0.0
C1415 C 0.77513 0.19999 0.59784 0.0
C1416 C 0.75672 0.20183 0.58549 0.0
C1417 C 0.74667 0.19437 0.54555 0.0
C1418 C 0.70558 0.12381 0.35824 0.0
C1419 C 0.74194 0.1084 0.47183 0.0
O1420 O 0.72829 0.08083 0.34264 0.0
O1421 O 0.76388 0.10155 0.33597 0.0
O1422 O 0.77067 0.14932 0.38812 0.0
O1423 O 0.77669 0.12523 0.4117 0.0
O1424 O 0.75008 0.13771 0.31431 0.0
O1425 O 0.75668 0.16828 0.35329 0.0
O1426 O 0.75694 0.18258 0.44081 0.0
O1427 O 0.72694 0.15724 0.47099 0.0
O1428 O 0.71453 0.11587 0.38266 0.0
O1429 O 0.71273 0.1442 0.36908 0.0
O1430 O 0.74694 0.12927 0.47036 0.0
O1431 O 0.73598 0.09693 0.4365 0.0
H1432 H 0.70994 0.06484 0.27293 0.0
H1433 H 0.7099 0.06087 0.19623 0.0
H1434 H 0.77991 0.08464 0.1984 0.0
H1435 H 0.78017 0.08911 0.27528 0.0
H1436 H 0.7794 0.17544 0.50696 0.0
H1437 H 0.79688 0.18824 0.57658 0.0
H1438 H 0.75018 0.20937 0.6065 0.0
H1439 H 0.73268 0.19623 0.53728 0.0
H1440 H 0.09006 0.41581 1.01138 0.0
H1441 H 0.15987 0.4612 1.02603 0.0
H1442 H 0.15337 0.47322 0.09355 0.0
H1443 H 0.12847 0.47211 0.15018 0.0
H1444 H 0.05905 0.42619 0.14093 0.0
H1445 H 0.0648 0.41332 0.07181 0.0
C1446 C 0.10392 0.42814 1.02936 0.0
C1447 C 0.12565 0.43728 1.01207 0.0
C1448 C 0.10015 0.43512 0.07018 0.0
C1449 C 0.14296 0.45361 1.03694 0.0
C1450 C 0.1393 0.46063 0.07632 0.0
C1451 C 0.11449 0.45909 0.13343 0.0
C1452 C 0.09318 0.45005 0.15187 0.0
C1453 C 0.11804 0.45164 0.09349 0.0
C1454 C 0.07558 0.43328 0.12859 0.0
C1455 C 0.07893 0.42604 0.08855 0.0
H1456 H 0.55484 0.70266 0.04224 0.0
H1457 H 0.59126 0.67463 0.98598 0.0
H1458 H 0.58538 0.65251 0.05061 0.0
H1459 H 0.56846 0.63965 0.12269 0.0
H1460 H 0.53109 0.66719 0.17677 0.0
H1461 H 0.53897 0.69075 0.11433 0.0
C1462 C 0.56155 0.6917 0.04375 0.0
C1463 C 0.57354 0.69057 1.00822 0.0
C1464 C 0.55808 0.67889 0.08135 0.0
C1465 C 0.582 0.67613 1.01197 0.0
C1466 C 0.57863 0.66339 0.04928 0.0
C1467 C 0.56249 0.65116 0.12175 0.0
C1468 C 0.54958 0.65177 0.1563 0.0
C1469 C 0.56663 0.6645 0.08436 0.0
C1470 C 0.54142 0.66643 0.15204 0.0
C1471 C 0.54579 0.67988 0.1158 0.0
H1472 H 0.33904 0.91839 0.159 0.0
H1473 H 0.38329 0.89518 0.12295 0.0
H1474 H 0.36608 0.88462 0.0537 0.0
H1475 H 0.33674 0.87922 1.00269 0.0
H1476 H 0.29193 0.90176 1.03612 0.0
H1477 H 0.30983 0.91368 0.10583 0.0
C1478 C 0.3452 0.91136 0.13589 0.0
C1479 C 0.36304 0.90803 0.14744 0.0
C1480 C 0.33466 0.90465 0.09481 0.0
C1481 C 0.36998 0.89834 0.11615 0.0
C1482 C 0.35996 0.89208 0.07596 0.0
C1483 C 0.33117 0.88731 1.02464 0.0
C1484 C 0.31305 0.88995 1.0127 0.0
C1485 C 0.34206 0.8948 0.06481 0.0
C1486 C 0.30611 0.90005 0.04291 0.0
C1487 C 0.31645 0.90696 0.0832 0.0
H1488 H 0.43749 0.07506 0.70761 0.0
H1489 H 0.47298 0.14032 0.65364 0.0
H1490 H 0.46508 0.15533 0.71693 0.0
H1491 H 0.44973 0.1507 0.7897 0.0
H1492 H 0.41571 0.08589 0.84587 0.0
H1493 H 0.42124 0.0702 0.78042 0.0
C1494 C 0.44302 0.09244 0.7087 0.0
C1495 C 0.4554 0.10627 0.67397 0.0
C1496 C 0.43891 0.10125 0.74655 0.0
C1497 C 0.46305 0.129 0.67852 0.0
C1498 C 0.45867 0.1377 0.71524 0.0
C1499 C 0.44347 0.13309 0.78794 0.0
C1500 C 0.43208 0.11964 0.82362 0.0
C1501 C 0.44692 0.12411 0.74987 0.0
C1502 C 0.42425 0.09684 0.81957 0.0
C1503 C 0.42751 0.08781 0.78181 0.0
H1504 H 0.91339 0.3388 0.67046 0.0
H1505 H 0.88468 0.37872 0.7046 0.0
H1506 H 0.87426 0.36101 0.7731 0.0
H1507 H 0.87186 0.33353 0.82512 0.0
H1508 H 0.90295 0.29552 0.79717 0.0
H1509 H 0.91365 0.31287 0.72667 0.0
C1510 C 0.90538 0.34411 0.69306 0.0
C1511 C 0.90033 0.36076 0.68087 0.0
C1512 C 0.89967 0.33401 0.73463 0.0
C1513 C 0.88905 0.36624 0.71145 0.0
C1514 C 0.88301 0.35607 0.75146 0.0
C1515 C 0.88146 0.32932 0.80413 0.0
C1516 C 0.88679 0.31324 0.81768 0.0
C1517 C 0.88811 0.3399 0.76365 0.0
C1518 C 0.89895 0.30806 0.7889 0.0
C1519 C 0.905 0.31799 0.74806 0.0
H1520 H 0.63281 0.56075 0.7108 0.0
H1521 H 0.67156 0.53881 0.64267 0.0
H1522 H 0.69596 0.54745 0.70396 0.0
H1523 H 0.70562 0.55933 0.77918 0.0
H1524 H 0.6661 0.57943 0.84961 0.0
H1525 H 0.6424 0.57216 0.78725 0.0
C1526 C 0.64685 0.55829 0.70884 0.0
C1527 C 0.65044 0.54965 0.67054 0.0
C1528 C 0.6606 0.5625 0.74567 0.0
C1529 C 0.66846 0.54596 0.67043 0.0
C1530 C 0.6824 0.55069 0.70602 0.0
C1531 C 0.69207 0.56252 0.78095 0.0
C1532 C 0.68831 0.5705 0.81983 0.0
C1533 C 0.67855 0.5587 0.74417 0.0
C1534 C 0.67007 0.57385 0.82067 0.0
C1535 C 0.65642 0.56976 0.78456 0.0
H1536 H 0.915 0.58864 0.3183 0.0
H1537 H 0.84508 0.54571 0.29891 0.0
H1538 H 0.85205 0.53423 0.23118 0.0
H1539 H 0.8774 0.53482 0.17613 0.0
H1540 H 0.9469 0.57897 0.18896 0.0
H1541 H 0.94085 0.59132 0.25861 0.0
C1542 C 0.90124 0.57684 0.29936 0.0
C1543 C 0.87933 0.56818 0.3154 0.0
C1544 C 0.90533 0.57031 0.25834 0.0
C1545 C 0.86212 0.5528 0.28906 0.0
C1546 C 0.86606 0.54613 0.24955 0.0
C1547 C 0.89133 0.54735 0.19379 0.0
C1548 C 0.91285 0.55591 0.17656 0.0
C1549 C 0.88752 0.55458 0.23371 0.0
C1550 C 0.93033 0.57214 0.20081 0.0
C1551 C 0.92675 0.57908 0.24099 0.0
H1552 H 0.45549 0.30492 0.29377 0.0
H1553 H 0.40874 0.32356 0.33651 0.0
H1554 H 0.41413 0.34431 0.27026 0.0
H1555 H 0.43332 0.3583 0.20012 0.0
H1556 H 0.48129 0.34107 0.16016 0.0
H1557 H 0.4743 0.31887 0.22434 0.0
C1558 C 0.44642 0.31353 0.28893 0.0
C1559 C 0.43151 0.31231 0.32107 0.0
C1560 C 0.44979 0.3257 0.25045 0.0
C1561 C 0.42015 0.32381 0.3131 0.0
C1562 C 0.4233 0.33578 0.27484 0.0
C1563 C 0.4418 0.34934 0.20452 0.0
C1564 C 0.45743 0.35124 0.17336 0.0
C1565 C 0.43808 0.33689 0.24301 0.0
C1566 C 0.46887 0.33989 0.18217 0.0
C1567 C 0.46496 0.32719 0.21942 0.0
H1568 H 0.6572 0.07697 0.18053 0.0
H1569 H 0.63376 0.12305 0.19608 0.0
H1570 H 0.65322 0.13554 0.26234 0.0
H1571 H 0.67818 0.13536 0.31695 0.0
H1572 H 0.70098 0.089 0.30779 0.0
H1573 H 0.68125 0.07526 0.23999 0.0
C1574 C 0.65632 0.08973 0.19826 0.0
C1575 C 0.64377 0.099 0.18136 0.0
C1576 C 0.66778 0.09713 0.23846 0.0
C1577 C 0.64317 0.11547 0.20639 0.0
C1578 C 0.6544 0.12278 0.24512 0.0
C1579 C 0.67875 0.12207 0.30054 0.0
C1580 C 0.69138 0.11336 0.31846 0.0
C1581 C 0.66694 0.114 0.26155 0.0
C1582 C 0.69154 0.09609 0.29571 0.0
C1583 C 0.68018 0.08825 0.25644 0.0
H1584 H 0.54865 0.85404 0.53414 0.0
H1585 H 0.5996 0.91872 0.49537 0.0
H1586 H 0.59478 0.93425 0.56181 0.0
H1587 H 0.57476 0.9296 0.63129 0.0
H1588 H 0.52263 0.86481 0.66623 0.0
H1589 H 0.52928 0.84952 0.60224 0.0
C1590 C 0.55878 0.8716 0.53989 0.0
C1591 C 0.57467 0.88499 0.50884 0.0
C1592 C 0.55572 0.88053 0.57838 0.0
C1593 C 0.58743 0.90772 0.51802 0.0
C1594 C 0.58459 0.91668 0.55637 0.0
C1595 C 0.56517 0.91214 0.62562 0.0
C1596 C 0.54837 0.89854 0.65529 0.0
C1597 C 0.56872 0.90329 0.58709 0.0
C1598 C 0.53586 0.87589 0.64531 0.0
C1599 C 0.53956 0.86704 0.60814 0.0
H1600 H 0.08548 0.62643 0.61076 0.0
H1601 H 0.1289 0.67884 0.69455 0.0
H1602 H 0.14298 0.70434 0.63396 0.0
H1603 H 0.14437 0.71148 0.55603 0.0
H1604 H 0.09717 0.66053 0.47403 0.0
H1605 H 0.08316 0.63492 0.53459 0.0
C1606 C 0.09754 0.6435 0.61639 0.0
C1607 C 0.10564 0.65049 0.65835 0.0
C1608 C 0.1051 0.65842 0.58116 0.0
C1609 C 0.12191 0.67281 0.66345 0.0
C1610 C 0.1301 0.68745 0.62848 0.0
C1611 C 0.13072 0.69492 0.55127 0.0
C1612 C 0.12195 0.68819 0.50966 0.0
C1613 C 0.12202 0.68044 0.587 0.0
C1614 C 0.10431 0.66644 0.50507 0.0
C1615 C 0.09631 0.6517 0.53996 0.0
H1616 H 0.35712 0.42646 0.6375 0.0
H1617 H 0.35088 0.4837 0.6615 0.0
H1618 H 0.32914 0.47659 0.59764 0.0
H1619 H 0.31291 0.45586 0.53206 0.0
H1620 H 0.32159 0.401 0.5002 0.0
H1621 H 0.34131 0.40572 0.56757 0.0
C1622 C 0.3513 0.43756 0.62859 0.0
C1623 C 0.35645 0.45605 0.65538 0.0
C1624 C 0.33916 0.43392 0.58934 0.0
C1625 C 0.3477 0.46948 0.64267 0.0
C1626 C 0.33519 0.4655 0.60547 0.0
C1627 C 0.31913 0.44485 0.53937 0.0
C1628 C 0.31513 0.42777 0.51012 0.0
C1629 C 0.33107 0.44808 0.57801 0.0
C1630 C 0.32372 0.41402 0.52144 0.0
C1631 C 0.33524 0.41685 0.56039 0.0
H1632 H 0.81414 0.79086 0.36542 0.0
H1633 H 0.74898 0.74106 0.32735 0.0
H1634 H 0.73407 0.74513 0.39514 0.0
H1635 H 0.73922 0.76463 0.46613 0.0
H1636 H 0.8044 0.81731 0.49754 0.0
H1637 H 0.8191 0.81028 0.43346 0.0
C1638 C 0.79659 0.78091 0.37152 0.0
C1639 C 0.78296 0.76519 0.34058 0.0
C1640 C 0.78788 0.78404 0.41034 0.0
C1641 C 0.76023 0.75278 0.35022 0.0
C1642 C 0.75158 0.75537 0.38923 0.0
C1643 C 0.75658 0.77465 0.45893 0.0
C1644 C 0.77041 0.7918 0.48773 0.0
C1645 C 0.76516 0.7711 0.41983 0.0
C1646 C 0.79303 0.80405 0.47706 0.0
C1647 C 0.8016 0.80014 0.43978 0.0
H1648 H 0.23209 0.97211 0.45287 0.0
H1649 H 0.19938 0.00351 0.51119 0.0
H1650 H 0.20725 0.02699 0.44859 0.0
H1651 H 0.2222 0.03813 0.37561 0.0
H1652 H 0.25449 0.00663 0.31591 0.0
H1653 H 0.24853 0.98436 0.38021 0.0
C1654 C 0.22739 0.98459 0.45299 0.0
C1655 C 0.21579 0.98631 0.48873 0.0
C1656 C 0.23172 0.99805 0.41576 0.0
C1657 C 0.20878 1.00193 0.48553 0.0
C1658 C 0.21316 0.01536 0.44924 0.0
C1659 C 0.22799 0.0264 0.37635 0.0
C1660 C 0.23897 0.02441 0.33999 0.0
C1661 C 0.22438 0.01346 0.41382 0.0
C1662 C 0.24624 0.00897 0.34274 0.0
C1663 C 0.24272 0.99608 0.37983 0.0
H1664 H 0.97071 0.1903 0.37737 0.0
H1665 H 0.99165 0.25515 0.32784 0.0
H1666 H 0.01364 0.27165 0.39245 0.0
H1667 H 0.02887 0.26759 0.46299 0.0
H1668 H 0.00641 0.20205 0.51082 0.0
H1669 H 0.98364 0.18633 0.44797 0.0
C1670 C 0.98003 0.2081 0.38039 0.0
C1671 C 0.97934 0.22125 0.34654 0.0
C1672 C 0.99253 0.21754 0.41824 0.0
C1673 C 0.99161 0.24433 0.35244 0.0
C1674 C 0.00429 0.25384 0.38982 0.0
C1675 C 0.01835 0.24993 0.46081 0.0
C1676 C 0.01911 0.23624 0.49383 0.0
C1677 C 0.00504 0.24065 0.42323 0.0
C1678 C 0.00604 0.21326 0.48756 0.0
C1679 C 0.99302 0.20413 0.451 0.0
H1680 H 0.20754 0.20866 0.83596 0.0
H1681 H 0.27493 0.23181 0.87104 0.0
H1682 H 0.26889 0.24323 0.9396 0.0
H1683 H 0.24369 0.24591 0.99377 0.0
H1684 H 0.17633 0.22314 0.95704 0.0
H1685 H 0.18315 0.21285 0.8878 0.0
C1686 C 0.22115 0.21667 0.85808 0.0
C1687 C 0.2421 0.21987 0.8458 0.0
C1688 C 0.21746 0.22344 0.8988 0.0
C1689 C 0.25894 0.22975 0.87673 0.0
C1690 C 0.25534 0.23615 0.91721 0.0
C1691 C 0.23059 0.23923 0.97049 0.0
C1692 C 0.20942 0.2359 0.98199 0.0
C1693 C 0.23462 0.23316 0.92905 0.0
C1694 C 0.19281 0.22623 0.95054 0.0
C1695 C 0.19668 0.22023 0.91019 0.0
H1696 H 0.7724 0.03348 0.87662 0.0
H1697 H 0.81089 0.00699 0.82374 0.0
H1698 H 0.80237 0.98287 0.88542 0.0
H1699 H 0.78489 0.96952 0.9556 0.0
H1700 H 0.74586 0.99514 1.0098 0.0
H1701 H 0.75301 0.01856 0.9466 0.0
C1702 C 0.77806 0.02174 0.87727 0.0
C1703 C 0.79151 0.02159 0.84333 0.0
C1704 C 0.77317 0.00776 0.9139 0.0
C1705 C 0.8 0.00724 0.84786 0.0
C1706 C 0.79524 0.99345 0.88363 0.0
C1707 C 0.77787 0.98021 0.95393 0.0
C1708 C 0.7648 0.98034 0.98843 0.0
C1709 C 0.78201 0.99363 0.9171 0.0
C1710 C 0.75599 0.99447 0.98457 0.0
C1711 C 0.7601 0.00793 0.94805 0.0
H1712 H 0.02816 0.81564 0.96589 0.0
H1713 H 0.02011 0.75185 0.9938 0.0
H1714 H 1.00006 0.73751 0.92663 0.0
H1715 H 0.98448 0.74321 0.85845 0.0
H1716 H 0.99006 0.80638 0.83579 0.0
H1717 H 0.0116 0.82072 0.9005 0.0
C1718 C 0.022 0.79851 0.95763 0.0
C1719 C 0.02609 0.78503 0.98573 0.0
C1720 C 0.01007 0.79022 0.91884 0.0
C1721 C 0.01764 0.76287 0.97348 0.0
C1722 C 0.00606 0.75462 0.93467 0.0
C1723 C 0.99024 0.76 0.86747 0.0
C1724 C 0.98521 0.77341 0.84096 0.0
C1725 C 1.00216 0.76813 0.90671 0.0
C1726 C 0.99342 0.79539 0.85442 0.0
C1727 C 0.00577 0.80369 0.892 0.0
H1728 H 0.00906 0.42913 0.96805 0.0
H1729 H 0.00433 0.36606 0.99178 0.0
H1730 H 0.00613 0.36069 0.91617 0.0
H1731 H 0.00614 0.37227 0.84412 0.0
H1732 H 0.00472 0.43205 0.81867 0.0
H1733 H 0.00857 0.44067 0.89464 0.0
C1734 C 0.00819 0.41411 0.9566 0.0
C1735 C 0.00653 0.39798 0.98528 0.0
C1736 C 0.00831 0.41068 0.9131 0.0
C1737 C 0.00594 0.37885 0.97025 0.0
C1738 C 0.00685 0.3757 0.92712 0.0
C1739 C 0.00681 0.38725 0.8553 0.0
C1740 C 0.00509 0.40146 0.82651 0.0
C1741 C 0.0077 0.39132 0.89845 0.0
C1742 C 0.00629 0.42103 0.8407 0.0
C1743 C 0.0082 0.42578 0.88395 0.0
H1744 H 0.61887 0.59164 0.9971 0.0
H1745 H 0.5862 0.62992 0.99367 0.0
H1746 H 0.57944 0.62294 0.91776 0.0
H1747 H 0.58587 0.60875 0.85189 0.0
H1748 H 0.61991 0.57179 0.85454 0.0
H1749 H 0.62279 0.57501 0.93189 0.0
C1750 C 0.61013 0.59826 0.97963 0.0
C1751 C 0.60344 0.61162 1.00019 0.0
C1752 C 0.60655 0.59437 0.93625 0.0
C1753 C 0.592 0.62009 0.97781 0.0
C1754 C 0.58799 0.61597 0.93469 0.0
C1755 C 0.59353 0.60109 0.86967 0.0
C1756 C 0.60283 0.59024 0.8483 0.0
C1757 C 0.59564 0.60355 0.91351 0.0
C1758 C 0.61291 0.58043 0.87095 0.0
C1759 C 0.61455 0.58229 0.91489 0.0
H1760 H 0.37772 0.98267 0.97769 0.0
H1761 H 0.44469 0.99649 0.9649 0.0
H1762 H 0.44301 1.00082 0.88785 0.0
H1763 H 0.42284 0.00268 0.82557 0.0
H1764 H 0.35647 0.99068 0.84018 0.0
H1765 H 0.35751 0.98379 0.91592 0.0
C1766 C 0.39176 0.98625 0.95775 0.0
C1767 C 0.41117 0.98907 0.97607 0.0
C1768 C 0.39081 0.98927 0.91436 0.0
C1769 C 0.42958 0.9942 0.95077 0.0
C1770 C 0.42861 0.99671 0.90705 0.0
C1771 C 0.40853 0.99823 0.84537 0.0
C1772 C 0.38952 0.99698 0.82776 0.0
C1773 C 0.40938 0.99458 0.88869 0.0
C1774 C 0.37122 0.99174 0.85346 0.0
C1775 C 0.3718 0.98774 0.89651 0.0
H1776 H 0.99835 0.61907 0.35116 0.0
H1777 H 0.00503 0.56117 0.36192 0.0
H1778 H 0.00483 0.56379 0.43932 0.0
H1779 H 0.00337 0.58329 0.50305 0.0
H1780 H 0.99177 0.63805 0.48984 0.0
H1781 H 0.99183 0.63494 0.41295 0.0
C1782 C 0.999 0.60648 0.37012 0.0
C1783 C 1.00141 0.58981 0.35081 0.0
C1784 C 0.99756 0.60728 0.41382 0.0
C1785 C 0.00339 0.57435 0.3761 0.0
C1786 C 0.00298 0.57565 0.42023 0.0
C1787 C 1.0001 0.59404 0.48334 0.0
C1788 C 0.99765 0.61094 0.50173 0.0
C1789 C 0.99999 0.59205 0.43932 0.0
C1790 C 0.99386 0.62506 0.47605 0.0
C1791 C 0.99402 0.62337 0.4323 0.0
H1792 H 0.37482 0.39884 0.33608 0.0
H1793 H 0.44552 0.44078 0.32971 0.0
H1794 H 0.44722 0.44488 0.40692 0.0
H1795 H 0.42871 0.43253 0.47616 0.0
H1796 H 0.35824 0.38972 0.48155 0.0
H1797 H 0.35611 0.38979 0.40399 0.0
C1798 C 0.39048 0.40955 0.35144 0.0
C1799 C 0.40998 0.41944 0.32777 0.0
C1800 C 0.39136 0.41112 0.39538 0.0
C1801 C 0.43031 0.43298 0.34782 0.0
C1802 C 0.43131 0.43515 0.39176 0.0
C1803 C 0.41301 0.42328 0.45992 0.0
C1804 C 0.3937 0.41064 0.4832 0.0
C1805 C 0.41201 0.42353 0.41583 0.0
C1806 C 0.37322 0.39905 0.46317 0.0
C1807 C 0.37203 0.39927 0.41926 0.0
H1808 H 0.59548 0.02949 0.35871 0.0
H1809 H 0.63104 0.9944 0.34375 0.0
H1810 H 0.63415 0.99272 0.42056 0.0
H1811 H 0.62541 0.99972 0.49109 0.0
H1812 H 0.58751 0.03206 0.50815 0.0
H1813 H 0.58692 0.03695 0.43084 0.0
C1814 C 0.60408 0.02172 0.37257 0.0
C1815 C 0.61311 0.0121 0.34634 0.0
C1816 C 0.60552 0.0206 0.41659 0.0
C1817 C 0.62394 1.00175 0.36389 0.0
C1818 C 0.6258 1.00089 0.40753 0.0
C1819 C 0.61751 0.00829 0.47764 0.0
C1820 C 0.607 0.01604 0.50423 0.0
C1821 C 0.61657 0.01014 0.43398 0.0
C1822 C 0.59614 0.02655 0.48749 0.0
C1823 C 0.59563 0.02908 0.44361 0.0
H1824 H 0.65474 0.74541 0.31725 0.0
H1825 H 0.70706 0.73001 0.31804 0.0
H1826 H 0.70499 0.72627 0.24067 0.0
H1827 H 0.68684 0.72543 0.1747 0.0
H1828 H 0.63602 0.74315 0.17281 0.0
H1829 H 0.63859 0.74765 0.24983 0.0
C1830 C 0.66548 0.74107 0.30015 0.0
C1831 C 0.68058 0.73734 0.32217 0.0
C1832 C 0.66435 0.7393 0.25627 0.0
C1833 C 0.69509 0.73247 0.30077 0.0
C1834 C 0.69393 0.73041 0.25697 0.0
C1835 C 0.6766 0.73064 0.19107 0.0
C1836 C 0.66116 0.73375 0.16869 0.0
C1837 C 0.67844 0.73353 0.23463 0.0
C1838 C 0.64772 0.74023 0.18996 0.0
C1839 C 0.64926 0.74293 0.23371 0.0
H1840 H 0.25033 0.91307 0.18963 0.0
H1841 H 0.3165 0.96838 0.17468 0.0
H1842 H 0.32257 0.96851 0.25057 0.0
H1843 H 0.30797 0.95587 0.32109 0.0
H1844 H 0.23985 0.9054 0.33758 0.0
H1845 H 0.23566 0.90009 0.26081 0.0
C1846 C 0.26597 0.92541 0.20299 0.0
C1847 C 0.28282 0.94095 0.17665 0.0
C1848 C 0.269 0.92612 0.24674 0.0
C1849 C 0.30328 0.9562 0.19423 0.0
C1850 C 0.30675 0.95636 0.2376 0.0
C1851 C 0.29225 0.94365 0.3078 0.0
C1852 C 0.27423 0.93129 0.33451 0.0
C1853 C 0.28957 0.94178 0.26408 0.0
C1854 C 0.25403 0.91503 0.3174 0.0
C1855 C 0.25155 0.91221 0.27361 0.0
H1856 H 0.06251 0.30296 0.31904 0.0
H1857 H 0.10341 0.37355 0.33094 0.0
H1858 H 0.10741 0.3772 0.25377 0.0
H1859 H 0.09436 0.36073 0.1838 0.0
H1860 H 0.05181 0.29046 0.17155 0.0
H1861 H 0.05333 0.28597 0.24855 0.0
C1862 C 0.07247 0.31906 0.30451 0.0
C1863 C 0.08225 0.33804 0.32983 0.0
C1864 C 0.07416 0.321 0.26052 0.0
C1865 C 0.09565 0.35883 0.3115 0.0
C1866 C 0.09781 0.3609 0.26762 0.0
C1867 C 0.08576 0.34445 0.19823 0.0
C1868 C 0.07268 0.32593 0.1732 0.0
C1869 C 0.08639 0.34219 0.24196 0.0
C1870 C 0.06177 0.30481 0.19107 0.0
C1871 C 0.0626 0.30231 0.23476 0.0
H1872 H 0.6885 0.95236 0.67787 0.0
H1873 H 0.64146 0.88311 0.69437 0.0
H1874 H 0.64269 0.88818 0.77149 0.0
H1875 H 0.65644 0.9129 0.83319 0.0
H1876 H 0.70366 0.98196 0.81543 0.0
H1877 H 0.70323 0.97642 0.73876 0.0
C1878 C 0.67893 0.93827 0.69843 0.0
C1879 C 0.6651 0.91741 0.68106 0.0
C1880 C 0.67952 0.94139 0.74195 0.0
C1881 C 0.65225 0.89932 0.70758 0.0
C1882 C 0.65289 0.90223 0.75137 0.0
C1883 C 0.66634 0.92671 0.81223 0.0
C1884 C 0.67969 0.94787 0.82899 0.0
C1885 C 0.6662 0.9233 0.7687 0.0
C1886 C 0.69307 0.96565 0.80244 0.0
C1887 C 0.6929 0.96246 0.75898 0.0
H1888 H 0.07085 0.71442 0.6697 0.0
H1889 H 0.05395 0.76534 0.6543 0.0
H1890 H 0.06063 0.77421 0.73011 0.0
H1891 H 0.06886 0.76551 0.80073 0.0
H1892 H 0.08383 0.71309 0.81552 0.0
H1893 H 0.08101 0.70714 0.73907 0.0
C1894 C 0.06836 0.72727 0.68317 0.0
C1895 C 0.06122 0.73877 0.65742 0.0
C1896 C 0.07217 0.73212 0.72613 0.0
C1897 C 0.05899 0.75605 0.67426 0.0
C1898 C 0.06287 0.76112 0.71728 0.0
C1899 C 0.07145 0.75276 0.7871 0.0
C1900 C 0.07614 0.73947 0.81343 0.0
C1901 C 0.06907 0.74896 0.74354 0.0
C1902 C 0.08021 0.7235 0.79565 0.0
C1903 C 0.07839 0.71995 0.75213 0.0
H1904 H 0.25817 0.33663 0.83069 0.0
H1905 H 0.29619 0.30476 0.8053 0.0
H1906 H 0.28954 0.30517 0.7296 0.0
H1907 H 0.27444 0.31582 0.67117 0.0
H1908 H 0.23952 0.35085 0.6943 0.0
H1909 H 0.24359 0.34821 0.77126 0.0
C1910 C 0.26534 0.33015 0.80852 0.0
C1911 C 0.27777 0.3208 0.82334 0.0
C1912 C 0.26187 0.33087 0.76513 0.0
C1913 C 0.28646 0.3119 0.7945 0.0
C1914 C 0.28271 0.31216 0.75135 0.0
C1915 C 0.26737 0.32247 0.69324 0.0
C1916 C 0.25634 0.33304 0.67798 0.0
C1917 C 0.27051 0.32162 0.73649 0.0
C1918 C 0.24779 0.34234 0.70611 0.0
C1919 C 0.25024 0.34095 0.74974 0.0
H1920 H 0.31505 0.06619 0.65398 0.0
H1921 H 0.38599 0.10224 0.64351 0.0
H1922 H 0.38317 0.10341 0.56615 0.0
H1923 H 0.36032 0.09078 0.50255 0.0
H1924 H 0.28948 0.05259 0.51348 0.0
H1925 H 0.29224 0.05598 0.59084 0.0
C1926 C 0.32983 0.07467 0.63464 0.0
C1927 C 0.35064 0.08409 0.6534 0.0
C1928 C 0.32801 0.07483 0.59096 0.0
C1929 C 0.36985 0.09477 0.62884 0.0
C1930 C 0.36822 0.09548 0.58503 0.0
C1931 C 0.34557 0.08365 0.52209 0.0
C1932 C 0.3248 0.07144 0.50348 0.0
C1933 C 0.34738 0.08509 0.56589 0.0
C1934 C 0.30558 0.06192 0.52811 0.0
C1935 C 0.30718 0.06384 0.57191 0.0
H1936 H 0.95108 0.29625 0.5112 0.0
H1937 H 0.9051 0.22638 0.51759 0.0
H1938 H 0.90692 0.22767 0.59536 0.0
H1939 H 0.9232 0.24863 0.66021 0.0
H1940 H 0.9718 0.318 0.65282 0.0
H1941 H 0.96728 0.31713 0.57593 0.0
C1942 C 0.94121 0.28147 0.52992 0.0
C1943 C 0.92782 0.26136 0.50976 0.0
C1944 C 0.94308 0.28225 0.57383 0.0
C1945 C 0.91533 0.24202 0.53333 0.0
C1946 C 0.91651 0.24276 0.57741 0.0
C1947 C 0.93313 0.26345 0.64165 0.0
C1948 C 0.94812 0.28326 0.6617 0.0
C1949 C 0.93071 0.26273 0.5978 0.0
C1950 C 0.96028 0.30256 0.63773 0.0
C1951 C 0.95769 0.30208 0.59399 0.0
H1952 H 0.74875 0.66651 0.66355 0.0
H1953 H 0.67877 0.63678 0.64029 0.0
H1954 H 0.68489 0.63548 0.5647 0.0
H1955 H 0.70987 0.64525 0.50557 0.0
H1956 H 0.78013 0.67827 0.52597 0.0
H1957 H 0.77422 0.67588 0.60307 0.0
C1958 C 0.7349 0.66002 0.64182 0.0
C1959 C 0.71335 0.65188 0.65725 0.0
C1960 C 0.73857 0.65975 0.59833 0.0
C1961 C 0.69547 0.64301 0.62904 0.0
C1962 C 0.69894 0.64228 0.58593 0.0
C1963 C 0.72386 0.65129 0.52692 0.0
C1964 C 0.74531 0.66153 0.51066 0.0
C1965 C 0.72037 0.65075 0.57035 0.0
C1966 C 0.76344 0.67006 0.5383 0.0
C1967 C 0.76006 0.66887 0.5821 0.0
H1968 H 0.35373 0.26395 1.00487 0.0
H1969 H 0.29715 0.27287 1.0122 0.0
H1970 H 0.29593 0.26806 0.0892 0.0
H1971 H 0.31227 0.26337 0.15338 0.0
H1972 H 0.36786 0.25284 0.14578 0.0
H1973 H 0.36776 0.25552 0.06847 0.0
C1974 C 0.34103 0.26463 1.02339 0.0
C1975 C 0.32571 0.26897 1.00362 0.0
C1976 C 0.34011 0.2613 0.06684 0.0
C1977 C 0.30939 0.27005 1.02741 0.0
C1978 C 0.30852 0.26702 0.07105 0.0
C1979 C 0.32393 0.26099 0.13473 0.0
C1980 C 0.34009 0.25804 0.15467 0.0
C1981 C 0.32391 0.2628 0.09094 0.0
C1982 C 0.35542 0.25536 0.13058 0.0
C1983 C 0.35542 0.25697 0.08669 0.0
H1984 H 0.74423 0.05214 0.9992 0.0
H1985 H 0.71364 0.09221 0.99151 0.0
H1986 H 0.7186 0.09908 0.06828 0.0
H1987 H 0.72967 0.09149 0.13748 0.0
H1988 H 0.76062 0.05165 0.14402 0.0
H1989 H 0.75777 0.04692 0.06697 0.0
C1990 C 0.73854 0.06225 1.01458 0.0
C1991 C 0.728 0.07116 0.99078 0.0
C1992 C 0.74159 0.06613 0.05797 0.0
C1993 C 0.72138 0.08491 1.01 0.0
C1994 C 0.72426 0.08882 0.05356 0.0
C1995 C 0.73577 0.08182 0.12177 0.0
C1996 C 0.74498 0.07159 0.14573 0.0
C1997 C 0.73398 0.07916 0.07786 0.0
C1998 C 0.75339 0.05952 0.12568 0.0
C1999 C 0.75168 0.05677 0.08192 0.0
H2000 H 0.92046 0.68276 1.01517 0.0
H2001 H 0.94491 0.63765 0.99615 0.0
H2002 H 0.94207 0.63001 0.07165 0.0
H2003 H 0.93715 0.63933 0.143 0.0
H2004 H 0.91633 0.68689 0.16472 0.0
H2005 H 0.91417 0.69125 0.08774 0.0
C2006 C 0.92525 0.67132 1.02757 0.0
C2007 C 0.93314 0.66099 1.00012 0.0
C2008 C 0.92472 0.66788 0.07129 0.0
C2009 C 0.93857 0.64566 1.01643 0.0
C2010 C 0.93724 0.64148 0.05967 0.0
C2011 C 0.93189 0.65046 0.13078 0.0
C2012 C 0.92696 0.66285 0.15878 0.0
C2013 C 0.93103 0.653 0.08728 0.0
C2014 C 0.92042 0.67744 0.14318 0.0
C2015 C 0.91906 0.67978 0.09945 0.0
H2016 H 0.10096 0.56563 1.00624 0.0
H2017 H 0.06878 0.50682 0.92944 0.0
H2018 H 0.06087 0.48396 0.99256 0.0
H2019 H 0.06262 0.48023 0.06995 0.0
H2020 H 0.09522 0.5388 0.14717 0.0
H2021 H 0.10354 0.56188 0.08394 0.0
C2022 C 0.09236 0.54783 1.00317 0.0
C2023 C 0.08531 0.53813 0.96267 0.0
C2024 C 0.08791 0.53458 1.03994 0.0
C2025 C 0.07404 0.51492 0.9599 0.0
C2026 C 0.06962 0.50174 0.99612 0.0
C2027 C 0.07159 0.49804 0.07305 0.0
C2028 C 0.07824 0.50763 0.11362 0.0
C2029 C 0.07635 0.51133 1.03637 0.0
C2030 C 0.08992 0.53082 0.1166 0.0
C2031 C 0.09466 0.54411 0.08032 0.0
H2032 H 0.47658 0.56268 0.1232 0.0
H2033 H 0.54084 0.59516 0.06422 0.0
H2034 H 0.52381 0.58285 0.99459 0.0
H2035 H 0.49058 0.56293 0.9495 0.0
H2036 H 0.42633 0.53063 1.0085 0.0
H2037 H 0.44336 0.54292 0.07808 0.0
C2038 C 0.48692 0.56711 0.09518 0.0
C2039 C 0.51012 0.5799 0.09952 0.0
C2040 C 0.47695 0.56002 0.05474 0.0
C2041 C 0.52303 0.5854 0.06239 0.0
C2042 C 0.51325 0.57831 1.0223 0.0
C2043 C 0.48024 0.55839 0.97752 0.0
C2044 C 0.45702 0.54581 0.97305 0.0
C2045 C 0.49021 0.56557 1.01795 0.0
C2046 C 0.44413 0.5405 1.01024 0.0
C2047 C 0.45391 0.54745 0.05036 0.0
H2048 H 0.44081 0.95562 0.08103 0.0
H2049 H 0.42867 0.89413 0.13599 0.0
H2050 H 0.44092 0.88494 0.07024 0.0
H2051 H 0.45431 0.89394 0.99585 0.0
H2052 H 0.46848 0.95673 0.94344 0.0
H2053 H 0.45614 0.96552 1.00878 0.0
C2054 C 0.44082 0.94018 0.07873 0.0
C2055 C 0.43364 0.92556 0.11369 0.0
C2056 C 0.44821 0.9351 0.04086 0.0
C2057 C 0.4341 0.90577 0.1099 0.0
C2058 C 0.44109 0.90046 0.07211 0.0
C2059 C 0.45497 0.90967 0.99868 0.0
C2060 C 0.46205 0.92436 0.9636 0.0
C2061 C 0.44815 0.91497 1.03719 0.0
C2062 C 0.46257 0.94463 0.96873 0.0
C2063 C 0.45566 0.94985 1.00651 0.0
H2064 H 0.52789 0.08175 0.70685 0.0
H2065 H 0.46772 0.07232 0.76363 0.0
H2066 H 0.48429 0.07832 0.83389 0.0
H2067 H 0.51566 0.08598 0.88017 0.0
H2068 H 0.57554 0.0941 0.82434 0.0
H2069 H 0.55948 0.08925 0.75373 0.0
C2070 C 0.51841 0.08107 0.73456 0.0
C2071 C 0.49642 0.07648 0.72945 0.0
C2072 C 0.52804 0.08437 0.77551 0.0
C2073 C 0.48453 0.07562 0.76611 0.0
C2074 C 0.49404 0.07911 0.80657 0.0
C2075 C 0.52523 0.08649 0.85276 0.0
C2076 C 0.54699 0.09049 0.85843 0.0
C2077 C 0.51574 0.08336 0.81182 0.0
C2078 C 0.55898 0.09144 0.82171 0.0
C2079 C 0.5497 0.08848 0.78099 0.0
H2080 H 0.91731 0.44741 0.70342 0.0
H2081 H 0.95245 0.41817 0.76124 0.0
H2082 H 0.94824 0.43083 0.83081 0.0
H2083 H 0.93377 0.44946 0.87634 0.0
H2084 H 0.89867 0.47872 0.8185 0.0
H2085 H 0.90347 0.46664 0.74879 0.0
C2086 C 0.92411 0.44382 0.73116 0.0
C2087 C 0.93517 0.43171 0.72657 0.0
C2088 C 0.9215 0.45107 0.77158 0.0
C2089 C 0.94381 0.42734 0.7633 0.0
C2090 C 0.9414 0.4346 0.80337 0.0
C2091 C 0.92732 0.45342 0.84854 0.0
C2092 C 0.91569 0.46498 0.85337 0.0
C2093 C 0.93018 0.4464 0.80805 0.0
C2094 C 0.90733 0.46958 0.81647 0.0
C2095 C 0.9102 0.46277 0.77628 0.0
H2096 H 0.57257 0.47989 0.87337 0.0
H2097 H 0.50915 0.43024 0.82667 0.0
H2098 H 0.51942 0.44548 0.75471 0.0
H2099 H 0.54667 0.47336 0.7045 0.0
H2100 H 0.60786 0.52592 0.75389 0.0
H2101 H 0.59868 0.50907 0.82433 0.0
C2102 C 0.56104 0.47242 0.84737 0.0
C2103 C 0.54017 0.4538 0.85542 0.0
C2104 C 0.56682 0.48178 0.80621 0.0
C2105 C 0.52532 0.4445 0.82141 0.0
C2106 C 0.53123 0.45322 0.78017 0.0
C2107 C 0.55793 0.48114 0.73073 0.0
C2108 C 0.578 0.50096 0.72365 0.0
C2109 C 0.55196 0.47189 0.77206 0.0
C2110 C 0.59234 0.51076 0.75821 0.0
C2111 C 0.58705 0.50111 0.79868 0.0
H2112 H 0.95904 0.51294 0.23978 0.0
H2113 H 0.89066 0.47875 0.20281 0.0
H2114 H 0.88065 0.45792 0.2697 0.0
H2115 H 0.89131 0.45046 0.34013 0.0
H2116 H 0.96043 0.48251 0.37308 0.0
H2117 H 0.96997 0.50307 0.30689 0.0
C2118 C 0.94193 0.50092 0.24639 0.0
C2119 C 0.92558 0.49762 0.21652 0.0
C2120 C 0.93637 0.48866 0.2845 0.0
C2121 C 0.90356 0.48165 0.22523 0.0
C2122 C 0.89784 0.46978 0.26358 0.0
C2123 C 0.90851 0.46169 0.33285 0.0
C2124 C 0.92498 0.4651 0.36288 0.0
C2125 C 0.9141 0.47323 0.29369 0.0
C2126 C 0.94716 0.47992 0.352 0.0
C2127 C 0.95274 0.49163 0.31368 0.0
H2128 H 0.56233 0.45858 0.32686 0.0
H2129 H 0.50529 0.44557 0.40099 0.0
H2130 H 0.48176 0.43008 0.33877 0.0
H2131 H 0.47694 0.41979 0.26251 0.0
H2132 H 0.53423 0.43354 0.18846 0.0
H2133 H 0.55762 0.44865 0.25084 0.0
C2134 C 0.54474 0.45223 0.32964 0.0
C2135 C 0.53583 0.45343 0.36916 0.0
C2136 C 0.53112 0.44325 0.29338 0.0
C2137 C 0.51291 0.44529 0.3713 0.0
C2138 C 0.4993 0.43622 0.33558 0.0
C2139 C 0.49451 0.42595 0.26006 0.0
C2140 C 0.50362 0.42531 0.22045 0.0
C2141 C 0.50815 0.43504 0.29635 0.0
C2142 C 0.52657 0.43372 0.21818 0.0
C2143 C 0.54007 0.44243 0.25404 0.0
H2144 H 0.5597 0.09283 0.20675 0.0
H2145 H 0.58804 0.05569 0.25958 0.0
H2146 H 0.57669 0.05957 0.33013 0.0
H2147 H 0.55865 0.07316 0.37829 0.0
H2148 H 0.52996 0.11029 0.32756 0.0
H2149 H 0.54165 0.10699 0.25615 0.0
C2150 C 0.56346 0.08565 0.23367 0.0
C2151 C 0.57474 0.07386 0.22701 0.0
C2152 C 0.5568 0.08795 0.2752 0.0
C2153 C 0.57936 0.06476 0.26287 0.0
C2154 C 0.57284 0.06697 0.30368 0.0
C2155 C 0.5547 0.08039 0.35172 0.0
C2156 C 0.54327 0.09194 0.35907 0.0
C2157 C 0.56146 0.0784 0.31037 0.0
C2158 C 0.53888 0.10149 0.32363 0.0
C2159 C 0.54549 0.0995 0.28243 0.0
H2160 H 0.47405 0.90716 0.62364 0.0
H2161 H 0.53753 0.95143 0.56815 0.0
H2162 H 0.52026 0.94793 0.49931 0.0
H2163 H 0.48719 0.93213 0.45373 0.0
H2164 H 0.42364 0.88733 0.50829 0.0
H2165 H 0.4408 0.891 0.57752 0.0
C2166 C 0.48414 0.91602 0.5965 0.0
C2167 C 0.50722 0.92952 0.60156 0.0
C2168 C 0.47403 0.91377 0.55633 0.0
C2169 C 0.51984 0.94078 0.56563 0.0
C2170 C 0.50992 0.93884 0.52601 0.0
C2171 C 0.47699 0.92328 0.48074 0.0
C2172 C 0.45399 0.90943 0.47514 0.0
C2173 C 0.48703 0.92539 0.52083 0.0
C2174 C 0.44133 0.89791 0.51094 0.0
C2175 C 0.45116 0.90009 0.55086 0.0
H2176 H 0.10121 0.53782 0.50571 0.0
H2177 H 0.06016 0.55381 0.429 0.0
H2178 H 0.05131 0.56869 0.49118 0.0
H2179 H 0.05564 0.57794 0.56798 0.0
H2180 H 0.09643 0.56121 0.64401 0.0
H2181 H 0.10497 0.54631 0.58199 0.0
C2182 C 0.09044 0.54469 0.50239 0.0
C2183 C 0.08146 0.5446 0.46226 0.0
C2184 C 0.08533 0.55325 0.5385 0.0
C2185 C 0.06721 0.55332 0.45926 0.0
C2186 C 0.0622 0.56201 0.49492 0.0
C2187 C 0.06635 0.571 0.57102 0.0
C2188 C 0.07532 0.57084 0.61107 0.0
C2189 C 0.07119 0.56214 0.53483 0.0
C2190 C 0.08914 0.56163 0.61399 0.0
C2191 C 0.09413 0.55306 0.57833 0.0
H2192 H 0.46805 0.564 0.49958 0.0
H2193 H 0.44085 0.50365 0.42737 0.0
H2194 H 0.42597 0.48212 0.49204 0.0
H2195 H 0.42053 0.47994 0.56972 0.0
H2196 H 0.44695 0.54011 0.64213 0.0
H2197 H 0.46184 0.56181 0.57736 0.0
C2198 C 0.45874 0.54616 0.49777 0.0
C2199 C 0.45596 0.53569 0.45798 0.0
C2200 C 0.44994 0.53364 0.53551 0.0
C2201 C 0.44387 0.51241 0.45711 0.0
C2202 C 0.43512 0.49997 0.49428 0.0
C2203 C 0.4295 0.49781 0.57145 0.0
C2204 C 0.43248 0.50822 0.61124 0.0
C2205 C 0.4381 0.51034 0.53376 0.0
C2206 C 0.4442 0.53147 0.6123 0.0
C2207 C 0.45282 0.54398 0.57508 0.0
H2208 H 0.77189 0.90051 0.33347 0.0
H2209 H 0.73382 0.84056 0.26196 0.0
H2210 H 0.72561 0.81883 0.32679 0.0
H2211 H 0.72909 0.81645 0.40418 0.0
H2212 H 0.76753 0.8762 0.47598 0.0
H2213 H 0.7758 0.89808 0.41108 0.0
C2214 C 0.76193 0.88269 0.33189 0.0
C2215 C 0.75341 0.87238 0.29235 0.0
C2216 C 0.75729 0.8701 0.36964 0.0
C2217 C 0.74033 0.84918 0.29161 0.0
C2218 C 0.73571 0.83663 0.32883 0.0
C2219 C 0.7393 0.83426 0.40576 0.0
C2220 C 0.74763 0.84453 0.44532 0.0
C2221 C 0.74404 0.84687 0.36809 0.0
C2222 C 0.76086 0.86769 0.44627 0.0
C2223 C 0.76561 0.88029 0.40901 0.0
H2224 H 0.14661 0.8721 0.30109 0.0
H2225 H 0.10106 0.89586 0.32089 0.0
H2226 H 0.11824 0.91133 0.38885 0.0
H2227 H 0.14697 0.9191 0.44337 0.0
H2228 H 0.19524 0.89959 0.41851 0.0
H2229 H 0.17649 0.88187 0.35248 0.0
C2230 C 0.14048 0.88089 0.31966 0.0
C2231 C 0.12213 0.88233 0.30504 0.0
C2232 C 0.15107 0.89068 0.35844 0.0
C2233 C 0.1146 0.89366 0.33095 0.0
C2234 C 0.12463 0.90284 0.37002 0.0
C2235 C 0.15337 0.91101 0.42336 0.0
C2236 C 0.1725 0.91067 0.43605 0.0
C2237 C 0.14292 0.90151 0.38422 0.0
C2238 C 0.18069 0.9003 0.40945 0.0
C2239 C 0.1699 0.89006 0.37165 0.0
H2240 H 0.10466 0.26288 0.28593 0.0
H2241 H 0.14743 0.24123 0.33898 0.0
H2242 H 0.13588 0.24443 0.41037 0.0
H2243 H 0.11371 0.25371 0.45887 0.0
H2244 H 0.07225 0.2768 0.40527 0.0
H2245 H 0.08339 0.27297 0.33396 0.0
C2246 C 0.11172 0.25906 0.31295 0.0
C2247 C 0.12692 0.25165 0.30622 0.0
C2248 C 0.10517 0.2612 0.35442 0.0
C2249 C 0.13543 0.24655 0.34237 0.0
C2250 C 0.12892 0.24852 0.38356 0.0
C2251 C 0.10701 0.25779 0.4316 0.0
C2252 C 0.092 0.26547 0.43791 0.0
C2253 C 0.11372 0.25577 0.39012 0.0
C2254 C 0.0838 0.27089 0.40185 0.0
C2255 C 0.09018 0.26868 0.3608 0.0
H2256 H 0.23161 0.43302 0.16136 0.0
H2257 H 0.17357 0.39905 0.23996 0.0
H2258 H 0.1501 0.3909 0.17766 0.0
H2259 H 0.14563 0.39363 0.10013 0.0
H2260 H 0.20384 0.42801 1.02207 0.0
H2261 H 0.22719 0.43577 0.08425 0.0
C2262 C 0.21384 0.42398 0.1651 0.0
C2263 C 0.20462 0.41667 0.20594 0.0
C2264 C 0.20023 0.41937 0.12882 0.0
C2265 C 0.18141 0.40467 0.20932 0.0
C2266 C 0.16784 0.40009 0.17351 0.0
C2267 C 0.16341 0.40284 0.09665 0.0
C2268 C 0.17275 0.41023 0.05595 0.0
C2269 C 0.17701 0.40734 0.13298 0.0
C2270 C 0.19595 0.42211 0.0526 0.0
C2271 C 0.20945 0.42659 0.08836 0.0
H2272 H 0.58466 0.78144 1.03611 0.0
H2273 H 0.60907 0.74187 0.09335 0.0
H2274 H 0.6037 0.75279 0.16386 0.0
H2275 H 0.59185 0.77343 0.21004 0.0
H2276 H 0.56828 0.81376 0.15286 0.0
H2277 H 0.57336 0.8026 0.08243 0.0
C2278 C 0.58875 0.77513 0.06397 0.0
C2279 C 0.59729 0.76077 0.05898 0.0
C2280 C 0.58573 0.78163 0.10486 0.0
C2281 C 0.6026 0.75299 0.0958 0.0
C2282 C 0.59949 0.75923 0.13635 0.0
C2283 C 0.58798 0.77999 0.18228 0.0
C2284 C 0.5795 0.79441 0.18746 0.0
C2285 C 0.59111 0.77359 0.14139 0.0
C2286 C 0.57441 0.80236 0.15052 0.0
C2287 C 0.57746 0.79608 0.10994 0.0
H2288 H 0.20227 0.77312 0.16009 0.0
H2289 H 0.23032 0.83212 0.23653 0.0
H2290 H 0.24571 0.85476 0.17335 0.0
H2291 H 0.25137 0.85839 0.09594 0.0
H2292 H 0.22426 0.79973 1.01887 0.0
H2293 H 0.20873 0.77676 0.08211 0.0
C2294 C 0.21186 0.79091 0.16308 0.0
C2295 C 0.21473 0.80069 0.20364 0.0
C2296 C 0.22097 0.80409 0.12615 0.0
C2297 C 0.22722 0.8239 0.20615 0.0
C2298 C 0.23625 0.83698 0.16984 0.0
C2299 C 0.24211 0.84057 0.09286 0.0
C2300 C 0.23915 0.83097 0.05227 0.0
C2301 C 0.23318 0.82734 0.1296 0.0
C2302 C 0.22706 0.80776 0.04941 0.0
C2303 C 0.21806 0.79453 0.08574 0.0
H2304 H 0.55688 0.77909 0.6714 0.0
H2305 H 0.62291 0.8218 0.7182 0.0
H2306 H 0.63242 0.84321 0.65296 0.0
H2307 H 0.62231 0.85029 0.58188 0.0
H2308 H 0.5575 0.80586 0.53245 0.0
H2309 H 0.5475 0.78473 0.59866 0.0
C2310 C 0.57347 0.79287 0.66739 0.0
C2311 C 0.5889 0.79879 0.70085 0.0
C2312 C 0.57916 0.80499 0.6289 0.0
C2313 C 0.61026 0.81699 0.69423 0.0
C2314 C 0.61588 0.82925 0.65648 0.0
C2315 C 0.60598 0.836 0.58562 0.0
C2316 C 0.59065 0.8298 0.55211 0.0
C2317 C 0.60045 0.82354 0.62364 0.0
C2318 C 0.56967 0.81103 0.5575 0.0
C2319 C 0.56391 0.79892 0.5955 0.0
H2320 H 0.18949 0.75108 0.5577 0.0
H2321 H 0.14584 0.77684 0.57755 0.0
H2322 H 0.16505 0.79445 0.6434 0.0
H2323 H 0.19423 0.80259 0.69584 0.0
H2324 H 0.23435 0.77212 0.68154 0.0
H2325 H 0.21677 0.75662 0.61395 0.0
C2326 C 0.1842 0.76052 0.57656 0.0
C2327 C 0.16638 0.76285 0.56227 0.0
C2328 C 0.19476 0.76985 0.61576 0.0
C2329 C 0.15948 0.77478 0.58764 0.0
C2330 C 0.17052 0.78491 0.62538 0.0
C2331 C 0.19908 0.79234 0.67859 0.0
C2332 C 0.21619 0.78914 0.69461 0.0
C2333 C 0.18815 0.78251 0.64 0.0
C2334 C 0.22197 0.77582 0.67037 0.0
C2335 C 0.21166 0.7666 0.63148 0.0
H2336 H 0.22271 0.41905 0.53721 0.0
H2337 H 0.26664 0.39991 0.59375 0.0
H2338 H 0.25504 0.40402 0.66444 0.0
H2339 H 0.2324 0.41303 0.71102 0.0
H2340 H 0.18782 0.43155 0.65505 0.0
H2341 H 0.19984 0.42804 0.58426 0.0
C2342 C 0.22989 0.41597 0.565 0.0
C2343 C 0.24555 0.40907 0.55981 0.0
C2344 C 0.223 0.4183 0.60607 0.0
C2345 C 0.25442 0.40497 0.59645 0.0
C2346 C 0.24782 0.4074 0.6371 0.0
C2347 C 0.2251 0.41612 0.68345 0.0
C2348 C 0.20917 0.42266 0.68905 0.0
C2349 C 0.23202 0.41393 0.64242 0.0
C2350 C 0.20032 0.42686 0.65236 0.0
C2351 C 0.20712 0.42473 0.61157 0.0
H2352 H 0.15609 0.26137 0.78286 0.0
H2353 H 0.09269 0.24032 0.84028 0.0
H2354 H 0.10906 0.24561 0.91074 0.0
H2355 H 0.14162 0.25644 0.95707 0.0
H2356 H 0.20495 0.27778 0.89884 0.0
H2357 H 0.18846 0.27238 0.82875 0.0
C2358 C 0.1458 0.25811 0.81066 0.0
C2359 C 0.123 0.25034 0.8055 0.0
C2360 C 0.15539 0.26128 0.85153 0.0
C2361 C 0.11014 0.24596 0.84256 0.0
C2362 C 0.11955 0.24912 0.88318 0.0
C2363 C 0.15186 0.25994 0.92911 0.0
C2364 C 0.17468 0.26766 0.93389 0.0
C2365 C 0.14219 0.25676 0.88821 0.0
C2366 C 0.18746 0.27201 0.89679 0.0
C2367 C 0.17799 0.26887 0.85636 0.0
H2368 H 0.76027 0.8954 0.95806 0.0
H2369 H 0.72083 0.9207 0.90357 0.0
H2370 H 0.72528 0.9089 0.8333 0.0
H2371 H 0.74074 0.89178 0.78639 0.0
H2372 H 0.78017 0.86648 0.84073 0.0
H2373 H 0.77551 0.87802 0.91115 0.0
C2374 C 0.75266 0.8984 0.93086 0.0
C2375 C 0.74023 0.90903 0.93656 0.0
C2376 C 0.75535 0.89159 0.89009 0.0
C2377 C 0.73051 0.91262 0.90059 0.0
C2378 C 0.73304 0.90585 0.86015 0.0
C2379 C 0.74818 0.88859 0.81361 0.0
C2380 C 0.76092 0.87828 0.80769 0.0
C2381 C 0.74543 0.89532 0.85441 0.0
C2382 C 0.77059 0.87464 0.84373 0.0
C2383 C 0.76782 0.88115 0.88428 0.0
H2384 H 0.08715 0.81353 0.90136 0.0
H2385 H 0.11528 0.87223 0.97845 0.0
H2386 H 0.13067 0.89513 0.91518 0.0
H2387 H 0.13676 0.89876 0.83729 0.0
H2388 H 0.10777 0.83988 0.76046 0.0
H2389 H 0.09247 0.81718 0.82368 0.0
C2390 C 0.09661 0.83133 0.90443 0.0
C2391 C 0.0999 0.84098 0.94508 0.0
C2392 C 0.10547 0.84456 0.86761 0.0
C2393 C 0.11224 0.86417 0.94791 0.0
C2394 C 0.12116 0.87736 0.91155 0.0
C2395 C 0.12698 0.88098 0.83419 0.0
C2396 C 0.12381 0.87126 0.79351 0.0
C2397 C 0.11793 0.86779 0.8711 0.0
C2398 C 0.11109 0.84805 0.79092 0.0
C2399 C 0.10211 0.83494 0.82726 0.0
H2400 H 0.39954 0.14423 0.73293 0.0
H2401 H 0.42093 0.20188 0.81138 0.0
H2402 H 0.42841 0.22479 0.74861 0.0
H2403 H 0.42938 0.22906 0.67071 0.0
H2404 H 0.40749 0.17173 0.59158 0.0
H2405 H 0.40007 0.1485 0.65452 0.0
C2406 C 0.40582 0.16179 0.73629 0.0
C2407 C 0.40977 0.17116 0.77726 0.0
C2408 C 0.4102 0.17515 0.69959 0.0
C2409 C 0.41794 0.19405 0.7806 0.0
C2410 C 0.42221 0.20729 0.74453 0.0
C2411 C 0.42305 0.2115 0.66724 0.0
C2412 C 0.41899 0.20223 0.62623 0.0
C2413 C 0.41855 0.19811 0.70378 0.0
C2414 C 0.41058 0.17934 0.6226 0.0
C2415 C 0.40637 0.16601 0.65869 0.0
H2416 H 0.80485 0.22889 0.79062 0.0
H2417 H 0.86896 0.25082 0.73546 0.0
H2418 H 0.85214 0.23769 0.66616 0.0
H2419 H 0.81931 0.2201 0.61992 0.0
H2420 H 0.75505 0.19788 0.67443 0.0
H2421 H 0.77178 0.21109 0.74398 0.0
C2422 C 0.81519 0.23086 0.76349 0.0
C2423 C 0.83832 0.24094 0.76898 0.0
C2424 C 0.80533 0.22321 0.72298 0.0
C2425 C 0.8512 0.24319 0.73292 0.0
C2426 C 0.84156 0.23564 0.69291 0.0
C2427 C 0.80884 0.21791 0.64695 0.0
C2428 C 0.78576 0.20794 0.64108 0.0
C2429 C 0.81863 0.22557 0.68741 0.0
C2430 C 0.77281 0.20572 0.67708 0.0
C2431 C 0.7824 0.2132 0.71727 0.0
H2432 H 0.80911 0.61345 0.64436 0.0
H2433 H 0.75987 0.54459 0.63141 0.0
H2434 H 0.74272 0.54609 0.69745 0.0
H2435 H 0.74104 0.56694 0.75962 0.0
H2436 H 0.78842 0.63618 0.77018 0.0
H2437 H 0.80675 0.63451 0.70522 0.0
C2438 C 0.7945 0.59876 0.65551 0.0
C2439 C 0.78615 0.57886 0.63212 0.0
C2440 C 0.78421 0.5998 0.69358 0.0
C2441 C 0.76728 0.56008 0.6484 0.0
C2442 C 0.7572 0.56094 0.68632 0.0
C2443 C 0.75514 0.58172 0.74731 0.0
C2444 C 0.76307 0.60179 0.76947 0.0
C2445 C 0.76542 0.5807 0.70922 0.0
C2446 C 0.78177 0.62062 0.75355 0.0
C2447 C 0.7923 0.61964 0.71632 0.0
H2448 H 0.88741 0.78443 0.50946 0.0
H2449 H 0.86059 0.71479 0.53349 0.0
H2450 H 0.83822 0.70594 0.46999 0.0
H2451 H 0.82509 0.71745 0.40775 0.0
H2452 H 0.85535 0.78647 0.37692 0.0
H2453 H 0.87731 0.79595 0.44239 0.0
C2454 C 0.87694 0.76728 0.50083 0.0
C2455 C 0.87549 0.75041 0.52804 0.0
C2456 C 0.86445 0.7621 0.46276 0.0
C2457 C 0.86164 0.72834 0.51512 0.0
C2458 C 0.84886 0.72314 0.47819 0.0
C2459 C 0.83658 0.73458 0.41528 0.0
C2460 C 0.83845 0.75125 0.38754 0.0
C2461 C 0.84985 0.73983 0.45205 0.0
C2462 C 0.85358 0.77333 0.39764 0.0
C2463 C 0.86615 0.77873 0.43515 0.0
H2464 H 0.23536 0.09443 0.38061 0.0
H2465 H 0.29946 0.10464 0.41408 0.0
H2466 H 0.29745 0.11979 0.48262 0.0
H2467 H 0.27751 0.13015 0.5338 0.0
H2468 H 0.21198 0.11701 0.50265 0.0
H2469 H 0.21473 0.10344 0.43326 0.0
C2470 C 0.24889 0.09999 0.4029 0.0
C2471 C 0.26756 0.09834 0.39186 0.0
C2472 C 0.24742 0.1083 0.44307 0.0
C2473 C 0.28482 0.1055 0.42153 0.0
C2474 C 0.2837 0.11425 0.46088 0.0
C2475 C 0.26365 0.12412 0.51226 0.0
C2476 C 0.24462 0.12504 0.52428 0.0
C2477 C 0.26504 0.11565 0.47223 0.0
C2478 C 0.22713 0.11726 0.49478 0.0
C2479 C 0.22857 0.10921 0.45483 0.0
H2480 H 0.88957 0.15472 0.54441 0.0
H2481 H 0.8688 0.08972 0.49547 0.0
H2482 H 0.88082 0.1051 0.42441 0.0
H2483 H 0.8971 0.13733 0.37487 0.0
H2484 H 0.91701 0.20189 0.42529 0.0
H2485 H 0.90537 0.18641 0.49576 0.0
C2486 C 0.8874 0.14378 0.51829 0.0
C2487 C 0.87818 0.12094 0.5261 0.0
C2488 C 0.89428 0.15274 0.47708 0.0
C2489 C 0.87605 0.10736 0.49125 0.0
C2490 C 0.88284 0.11616 0.45023 0.0
C2491 C 0.89893 0.14802 0.40124 0.0
C2492 C 0.9081 0.17094 0.39405 0.0
C2493 C 0.89202 0.13889 0.44257 0.0
C2494 C 0.91018 0.18432 0.42915 0.0
C2495 C 0.90344 0.17543 0.46985 0.0
H2496 H 0.28708 0.19533 0.92737 0.0
H2497 H 0.2398 0.1383 0.85676 0.0
H2498 H 0.23092 0.11554 0.92007 0.0
H2499 H 0.23624 0.11128 0.99603 0.0
H2500 H 0.28341 0.168 0.06727 0.0
H2501 H 0.29264 0.19092 1.00374 0.0
C2502 C 0.27482 0.17794 0.92578 0.0
C2503 C 0.26419 0.16877 0.88684 0.0
C2504 C 0.26973 0.16463 0.96271 0.0
C2505 C 0.2484 0.14606 0.88586 0.0
C2506 C 0.24322 0.13289 0.92227 0.0
C2507 C 0.24844 0.12868 0.99789 0.0
C2508 C 0.25906 0.13769 1.03692 0.0
C2509 C 0.25372 0.14194 0.96097 0.0
C2510 C 0.27509 0.16032 1.03792 0.0
C2511 C 0.28032 0.17358 1.00147 0.0
H2512 H 0.88409 0.14773 1.00542 0.0
H2513 H 0.86338 0.08352 0.05873 0.0
H2514 H 0.84111 0.06593 0.99585 0.0
H2515 H 0.82672 0.06843 0.92493 0.0
H2516 H 0.8494 0.13252 0.87009 0.0
H2517 H 0.87101 0.15025 0.93363 0.0
C2518 C 0.87463 0.12988 1.0035 0.0
C2519 C 0.87556 0.11712 1.03747 0.0
C2520 C 0.86187 0.11971 0.96665 0.0
C2521 C 0.86333 0.09395 1.03342 0.0
C2522 C 0.85038 0.08379 0.99736 0.0
C2523 C 0.83626 0.08627 0.92714 0.0
C2524 C 0.83609 0.09914 0.89275 0.0
C2525 C 0.84936 0.09643 0.96372 0.0
C2526 C 0.84904 0.12223 0.89593 0.0
C2527 C 0.86149 0.13239 0.93243 0.0
H2528 H 0.91867 0.72763 0.93059 0.0
H2529 H 0.90015 0.76628 0.85222 0.0
H2530 H 0.88416 0.77425 0.91346 0.0
H2531 H 0.87448 0.76993 0.98965 0.0
H2532 H 0.89269 0.73121 0.06847 0.0
H2533 H 0.90923 0.72362 1.00741 0.0
C2534 C 0.91124 0.73788 0.92688 0.0
C2535 C 0.9108 0.74628 0.88626 0.0
C2536 C 0.90171 0.74236 0.96265 0.0
C2537 C 0.90087 0.75945 0.88262 0.0
C2538 C 0.89163 0.76408 0.91787 0.0
C2539 C 0.88219 0.75996 0.99373 0.0
C2540 C 0.88202 0.75111 1.03425 0.0
C2541 C 0.89183 0.75558 0.95812 0.0
C2542 C 0.89203 0.73801 1.03801 0.0
C2543 C 0.90172 0.73374 1.00293 0.0
H2544 H 0.81373 0.56546 0.27584 0.0
H2545 H 0.86316 0.63336 0.25395 0.0
H2546 H 0.84578 0.63314 0.18666 0.0
H2547 H 0.81687 0.61378 0.13293 0.0
H2548 H 0.76984 0.5445 0.15023 0.0
H2549 H 0.78567 0.54532 0.21935 0.0
C2550 C 0.82068 0.58018 0.25628 0.0
C2551 C 0.8398 0.59945 0.27033 0.0
C2552 C 0.81096 0.57975 0.21631 0.0
C2553 C 0.84862 0.61825 0.24408 0.0
C2554 C 0.83862 0.61816 0.20546 0.0
C2555 C 0.8101 0.59867 0.15122 0.0
C2556 C 0.79175 0.57915 0.1353 0.0
C2557 C 0.81986 0.59897 0.19092 0.0
C2558 C 0.78341 0.56006 0.16103 0.0
C2559 C 0.79267 0.5604 0.20087 0.0
H2560 H 0.41618 0.23253 0.12052 0.0
H2561 H 0.43313 0.18654 0.17546 0.0
H2562 H 0.42882 0.19767 0.24657 0.0
H2563 H 0.41941 0.22008 0.29401 0.0
H2564 H 0.40156 0.2652 0.23804 0.0
H2565 H 0.40682 0.25469 0.16731 0.0
C2566 C 0.41875 0.22474 0.14793 0.0
C2567 C 0.42504 0.20867 0.14207 0.0
C2568 C 0.41604 0.23109 0.18902 0.0
C2569 C 0.42862 0.19917 0.17849 0.0
C2570 C 0.42602 0.20544 0.21941 0.0
C2571 C 0.41681 0.2277 0.26634 0.0
C2572 C 0.40998 0.24339 0.27168 0.0
C2573 C 0.41971 0.2214 0.22519 0.0
C2574 C 0.40658 0.25294 0.23521 0.0
C2575 C 0.40964 0.24696 0.19453 0.0
H2576 H 0.79429 0.231 0.16741 0.0
H2577 H 0.7829 0.17389 0.0953 0.0
H2578 H 0.76898 0.15097 0.15858 0.0
H2579 H 0.7599 0.1466 0.23494 0.0
H2580 H 0.77095 0.20337 0.30762 0.0
H2581 H 0.78472 0.22649 0.24417 0.0
C2582 C 0.78865 0.21352 0.16532 0.0
C2583 C 0.79 0.20447 0.12596 0.0
C2584 C 0.78045 0.20015 0.20231 0.0
C2585 C 0.78265 0.18168 0.12476 0.0
C2586 C 0.77446 0.1684 0.16112 0.0
C2587 C 0.76524 0.16401 0.23705 0.0
C2588 C 0.76422 0.17302 0.27657 0.0
C2589 C 0.77332 0.17739 0.20017 0.0
C2590 C 0.77138 0.19575 0.27805 0.0
C2591 C 0.77934 0.20909 0.24156 0.0
H2592 H 0.04135 0.45973 0.38903 0.0
H2593 H 0.99826 0.40335 0.31243 0.0
H2594 H 0.97225 0.38777 0.37106 0.0
H2595 H 0.96071 0.38991 0.44484 0.0
H2596 H 0.00344 0.44605 0.52171 0.0
H2597 H 0.03023 0.46144 0.46353 0.0
C2598 C 0.02641 0.44391 0.38524 0.0
C2599 C 0.0222 0.43279 0.34578 0.0
C2600 C 0.0112 0.43478 0.41968 0.0
C2601 C 1.00243 0.41236 0.34206 0.0
C2602 C 0.98732 0.40336 0.3758 0.0
C2603 C 0.97597 0.40542 0.44893 0.0
C2604 C 0.98001 0.4167 0.48798 0.0
C2605 C 0.9914 0.41436 0.41486 0.0
C2606 C 0.99983 0.43694 0.49223 0.0
C2607 C 0.01521 0.4458 0.4588 0.0
H2608 H 0.57727 0.58134 0.50189 0.0
H2609 H 0.61119 0.55217 0.43985 0.0
H2610 H 0.60427 0.56353 0.37057 0.0
H2611 H 0.58753 0.58097 0.3264 0.0
H2612 H 0.54978 0.60612 0.38807 0.0
H2613 H 0.55903 0.59722 0.45749 0.0
C2614 C 0.5834 0.57772 0.47324 0.0
C2615 C 0.59529 0.56628 0.47663 0.0
C2616 C 0.5785 0.58356 0.43291 0.0
C2617 C 0.60234 0.56116 0.43869 0.0
C2618 C 0.5983 0.56764 0.39884 0.0
C2619 C 0.58154 0.58479 0.35501 0.0
C2620 C 0.56825 0.59476 0.35136 0.0
C2621 C 0.58631 0.5788 0.39533 0.0
C2622 C 0.56021 0.59881 0.38928 0.0
C2623 C 0.56549 0.59363 0.42928 0.0
H2624 H 0.42718 0.00932 0.32778 0.0
H2625 H 0.39795 0.94599 0.38976 0.0
H2626 H 0.40483 0.96397 0.45911 0.0
H2627 H 0.42018 0.99798 0.50354 0.0
H2628 H 0.45312 0.06144 0.44187 0.0
H2629 H 0.44388 0.04342 0.37236 0.0
C2630 C 0.42199 0.99939 0.3564 0.0
C2631 C 0.41148 0.97606 0.35283 0.0
C2632 C 0.42681 0.01003 0.39687 0.0
C2633 C 0.4057 0.9638 0.39087 0.0
C2634 C 0.40973 0.97416 0.43085 0.0
C2635 C 0.4251 0.00792 0.47493 0.0
C2636 C 0.43703 0.03129 0.47864 0.0
C2637 C 0.42036 0.9973 0.43448 0.0
C2638 C 0.44375 0.04359 0.44065 0.0
C2639 C 0.43846 0.03321 0.40059 0.0
H2640 H 0.96009 0.55919 0.93547 0.0
H2641 H 0.01358 0.58323 1.02521 0.0
H2642 H 0.04027 0.59535 0.96733 0.0
H2643 H 0.04902 0.59914 0.89023 0.0
H2644 H 0.99617 0.57942 0.80034 0.0
H2645 H 0.96914 0.56588 0.85815 0.0
C2646 C 0.97758 0.56725 0.94232 0.0
C2647 C 0.98463 0.57029 0.9851 0.0
C2648 C 0.9932 0.57506 0.90842 0.0
C2649 C 0.0075 0.58083 0.99294 0.0
C2650 C 0.02289 0.58773 0.95966 0.0
C2651 C 0.0316 0.59204 0.88333 0.0
C2652 C 0.02477 0.59041 0.84067 0.0
C2653 C 0.01604 0.58497 0.91716 0.0
C2654 C 1.00204 0.58115 0.83268 0.0
C2655 C 0.98648 0.57328 0.86587 0.0
H2656 H 0.38806 0.41127 0.86566 0.0
H2657 H 0.45133 0.469 0.84205 0.0
H2658 H 0.46704 0.46003 0.90274 0.0
H2659 H 0.4631 0.4364 0.96438 0.0
H2660 H 0.39935 0.38064 0.9934 0.0
H2661 H 0.38379 0.38821 0.93014 0.0
C2662 C 0.40527 0.42186 0.87378 0.0
C2663 C 0.41841 0.44087 0.84866 0.0
C2664 C 0.41425 0.41695 0.91025 0.0
C2665 C 0.44067 0.45439 0.86046 0.0
C2666 C 0.44976 0.44922 0.89535 0.0
C2667 C 0.44585 0.42568 0.95671 0.0
C2668 C 0.43263 0.40762 0.98381 0.0
C2669 C 0.43677 0.4306 0.92072 0.0
C2670 C 0.41011 0.3945 0.97341 0.0
C2671 C 0.40115 0.39887 0.937 0.0
H2672 H 0.57688 0.99573 1.00233 0.0
H2673 H 0.60843 0.05939 0.94145 0.0
H2674 H 0.60173 0.04161 0.87176 0.0
H2675 H 0.58574 0.00766 0.82693 0.0
H2676 H 0.55052 0.94407 0.88787 0.0
H2677 H 0.55961 0.96186 0.9575 0.0
C2678 C 0.58255 0.00576 0.97385 0.0
C2679 C 0.59365 0.02908 0.97772 0.0
C2680 C 0.57781 0.99527 0.93333 0.0
C2681 C 0.60014 0.04155 0.93997 0.0
C2682 C 0.59624 0.03131 0.89987 0.0
C2683 C 0.58029 0.99763 0.85541 0.0
C2684 C 0.56775 0.97429 0.85146 0.0
C2685 C 0.58498 0.00814 0.89594 0.0
C2686 C 0.56039 0.96189 0.88926 0.0
C2687 C 0.56557 0.97214 0.9294 0.0
H2688 H 0.673 0.76218 0.8348 0.0
H2689 H 0.61062 0.73035 0.76967 0.0
H2690 H 0.62984 0.73874 0.70109 0.0
H2691 H 0.6647 0.75619 0.65881 0.0
H2692 H 0.72683 0.79211 0.72422 0.0
H2693 H 0.70768 0.78125 0.79263 0.0
C2694 C 0.6636 0.75688 0.80559 0.0
C2695 C 0.64025 0.74518 0.80771 0.0
C2696 C 0.67487 0.76263 0.76595 0.0
C2697 C 0.62848 0.73911 0.76928 0.0
C2698 C 0.63954 0.74396 0.72992 0.0
C2699 C 0.67409 0.76139 0.68804 0.0
C2700 C 0.69741 0.77461 0.68594 0.0
C2701 C 0.66277 0.75579 0.72769 0.0
C2702 C 0.70904 0.78171 0.72446 0.0
C2703 C 0.69802 0.77553 0.76378 0.0
H2704 H 0.27144 0.89519 0.77022 0.0
H2705 H 0.23539 0.91205 0.85869 0.0
H2706 H 0.22106 0.92425 0.8005 0.0
H2707 H 0.21862 0.93067 0.7233 0.0
H2708 H 0.25802 0.91772 0.63573 0.0
H2709 H 0.27096 0.90395 0.69353 0.0
C2710 C 0.26054 0.90163 0.77677 0.0
C2711 C 0.25462 0.9026 0.81929 0.0
C2712 C 0.25288 0.90957 0.74281 0.0
C2713 C 0.24047 0.91115 0.82666 0.0
C2714 C 0.23216 0.91815 0.79317 0.0
C2715 C 0.23016 0.925 0.71686 0.0
C2716 C 0.23731 0.92551 0.67464 0.0
C2717 C 0.23826 0.91758 0.75094 0.0
C2718 C 0.25231 0.91795 0.66756 0.0
C2719 C 0.25972 0.90987 0.7008 0.0
H2720 H 0.12914 0.36259 0.7983 0.0
H2721 H 0.06547 0.35267 0.83423 0.0
H2722 H 0.04883 0.32905 0.77193 0.0
H2723 H 0.05213 0.31039 0.70617 0.0
H2724 H 0.11581 0.3187 0.67514 0.0
H2725 H 0.13228 0.34345 0.73527 0.0
C2726 C 0.11161 0.35543 0.79258 0.0
C2727 C 0.09878 0.35987 0.82144 0.0
C2728 C 0.10196 0.3413 0.75694 0.0
C2729 C 0.07599 0.34992 0.81299 0.0
C2730 C 0.06639 0.33627 0.77711 0.0
C2731 C 0.06959 0.31761 0.71255 0.0
C2732 C 0.08256 0.31238 0.68548 0.0
C2733 C 0.07914 0.3317 0.74866 0.0
C2734 C 0.10519 0.32201 0.69508 0.0
C2735 C 0.11475 0.33635 0.72967 0.0
H2736 H 0.6751 0.93377 0.17559 0.0
H2737 H 0.71562 0.90626 0.21271 0.0
H2738 H 0.69471 0.89249 0.27829 0.0
H2739 H 0.66411 0.88713 0.32566 0.0
H2740 H 0.62434 0.91566 0.29127 0.0
H2741 H 0.64538 0.92986 0.225 0.0
C2742 C 0.67955 0.92497 0.19816 0.0
C2743 C 0.69719 0.92122 0.18845 0.0
C2744 C 0.66732 0.91701 0.23667 0.0
C2745 C 0.70234 0.90959 0.2186 0.0
C2746 C 0.69026 0.90157 0.25642 0.0
C2747 C 0.66007 0.8965 0.30366 0.0
C2748 C 0.6425 0.9002 0.31352 0.0
C2749 C 0.67258 0.90497 0.26578 0.0
C2750 C 0.63768 0.91251 0.28464 0.0
C2751 C 0.64978 0.92066 0.24664 0.0
H2752 H 0.11446 0.73583 0.27334 0.0
H2753 H 0.08767 0.76255 0.36301 0.0
H2754 H 0.07519 0.77677 0.30501 0.0
H2755 H 0.07173 0.7821 0.22762 0.0
H2756 H 0.09456 0.75158 0.13802 0.0
H2757 H 0.1084 0.73866 0.19594 0.0
C2758 C 0.10578 0.74464 0.28019 0.0
C2759 C 0.10207 0.74795 0.32304 0.0
C2760 C 0.09777 0.75222 0.24618 0.0
C2761 C 0.09066 0.75944 0.33072 0.0
C2762 C 0.08353 0.76773 0.29735 0.0
C2763 C 0.07955 0.77246 0.22076 0.0
C2764 C 0.08188 0.76784 0.17796 0.0
C2765 C 0.08691 0.76425 0.25478 0.0
C2766 C 0.09216 0.75526 0.17028 0.0
C2767 C 0.10025 0.74789 0.20361 0.0
H2768 H 0.20701 0.30908 0.19995 0.0
H2769 H 0.27052 0.31718 0.1685 0.0
H2770 H 0.28659 0.34006 0.23157 0.0
H2771 H 0.28303 0.35867 0.29662 0.0
H2772 H 0.2201 0.35301 0.32363 0.0
H2773 H 0.20374 0.32857 0.2628 0.0
C2774 C 0.22434 0.31564 0.20697 0.0
C2775 C 0.23731 0.31089 0.17906 0.0
C2776 C 0.23378 0.3295 0.2431 0.0
C2777 C 0.25988 0.32015 0.18899 0.0
C2778 C 0.26918 0.33339 0.22531 0.0
C2779 C 0.26575 0.3521 0.28918 0.0
C2780 C 0.25293 0.35789 0.31526 0.0
C2781 C 0.25638 0.33833 0.25274 0.0
C2782 C 0.23056 0.34917 0.3044 0.0
C2783 C 0.22108 0.33503 0.26944 0.0
H2784 H 0.28959 0.07208 0.09939 0.0
H2785 H 0.34033 0.09163 0.19402 0.0
H2786 H 0.36869 0.10591 0.13889 0.0
H2787 H 0.37964 0.11315 0.06273 0.0
H2788 H 0.32869 0.08903 0.96772 0.0
H2789 H 0.30038 0.07645 1.02291 0.0
C2790 C 0.30684 0.07936 0.10787 0.0
C2791 C 0.31267 0.08079 0.15116 0.0
C2792 C 0.32326 0.08681 0.0755 0.0
C2793 C 0.33521 0.09021 0.16121 0.0
C2794 C 0.35155 0.09845 0.12955 0.0
C2795 C 0.36234 0.10498 0.05416 0.0
C2796 C 0.35645 0.10213 1.0108 0.0
C2797 C 0.34587 0.09687 0.08644 0.0
C2798 C 0.33384 0.09142 1.00059 0.0
C2799 C 0.31754 0.08422 1.03231 0.0
H2800 H 0.92051 0.24888 0.99459 0.0
H2801 H 0.87699 0.26732 0.05516 0.0
H2802 H 0.88619 0.25842 0.12465 0.0
H2803 H 0.90624 0.2447 0.1691 0.0
H2804 H 0.94601 0.22183 0.10798 0.0
H2805 H 0.93886 0.23312 1.03872 0.0
C2806 C 0.91325 0.25125 1.02302 0.0
C2807 C 0.89839 0.25937 1.01921 0.0
C2808 C 0.91799 0.2452 0.06319 0.0
C2809 C 0.88868 0.26151 0.05669 0.0
C2810 C 0.89392 0.25633 0.09665 0.0
C2811 C 0.91352 0.24237 0.14064 0.0
C2812 C 0.92711 0.2328 0.14417 0.0
C2813 C 0.90854 0.24812 0.10044 0.0
C2814 C 0.93576 0.22933 0.10657 0.0
C2815 C 0.93162 0.2358 0.06682 0.0
H2816 H 0.74364 0.62528 0.05613 0.0
H2817 H 0.75133 0.67746 0.97256 0.0
H2818 H 0.76405 0.70338 1.03158 0.0
H2819 H 0.77344 0.71203 0.10811 0.0
H2820 H 0.76232 0.65919 0.19304 0.0
H2821 H 0.75085 0.63343 0.13356 0.0
C2822 C 0.74793 0.64227 0.05081 0.0
C2823 C 0.74626 0.64908 1.00924 0.0
C2824 C 0.7548 0.65731 0.0857 0.0
C2825 C 0.75205 0.67136 1.00375 0.0
C2826 C 0.75951 0.68639 1.03773 0.0
C2827 C 0.7684 0.69486 0.11368 0.0
C2828 C 0.76875 0.68777 0.15563 0.0
C2829 C 0.761 0.67968 0.07903 0.0
C2830 C 0.76205 0.6653 0.16159 0.0
C2831 C 0.75551 0.65043 0.12732 0.0
H2832 H 0.3813 0.2587 0.56129 0.0
H2833 H 0.33179 0.25159 0.4715 0.0
H2834 H 0.30403 0.23833 0.52755 0.0
H2835 H 0.29326 0.2288 0.60327 0.0
H2836 H 0.34346 0.23959 0.69438 0.0
H2837 H 0.37098 0.25118 0.63775 0.0
C2838 C 0.36448 0.25438 0.55407 0.0
C2839 C 0.35888 0.25638 0.51188 0.0
C2840 C 0.34847 0.24731 0.58713 0.0
C2841 C 0.33685 0.25061 0.50351 0.0
C2842 C 0.32081 0.24286 0.53568 0.0
C2843 C 0.31022 0.23369 0.61064 0.0
C2844 C 0.31618 0.23322 0.65323 0.0
C2845 C 0.32633 0.24116 0.57776 0.0
C2846 C 0.33835 0.23983 0.66202 0.0
C2847 C 0.35417 0.24646 0.62953 0.0
H2848 H 0.75925 0.0539 0.61629 0.0
H2849 H 0.78597 0.11603 0.68151 0.0
H2850 H 0.77598 0.13172 0.62181 0.0
H2851 H 0.76026 0.12832 0.54945 0.0
H2852 H 0.73403 0.06622 0.48371 0.0
H2853 H 0.74309 0.05039 0.54407 0.0
C2854 C 0.76278 0.07083 0.61749 0.0
C2855 C 0.77334 0.08369 0.65382 0.0
C2856 C 0.75704 0.07992 0.58246 0.0
C2857 C 0.77788 0.10568 0.65427 0.0
C2858 C 0.77213 0.1147 0.61995 0.0
C2859 C 0.75626 0.11124 0.54837 0.0
C2860 C 0.74617 0.0986 0.51141 0.0
C2861 C 0.76174 0.10207 0.58364 0.0
C2862 C 0.74155 0.07653 0.51124 0.0
C2863 C 0.74683 0.06737 0.546 0.0
H2864 H 0.91085 0.66357 0.66979 0.0
H2865 H 0.94794 0.72672 0.60804 0.0
H2866 H 0.94042 0.70849 0.53888 0.0
H2867 H 0.92231 0.67445 0.49445 0.0
H2868 H 0.88254 0.61157 0.5558 0.0
H2869 H 0.89194 0.62959 0.62519 0.0
C2870 C 0.91756 0.67338 0.6413 0.0
C2871 C 0.9304 0.69672 0.64493 0.0
C2872 C 0.91254 0.66269 0.60088 0.0
C2873 C 0.93826 0.70888 0.60696 0.0
C2874 C 0.93389 0.69838 0.56707 0.0
C2875 C 0.91591 0.66458 0.52295 0.0
C2876 C 0.90194 0.64135 0.51909 0.0
C2877 C 0.92095 0.67526 0.56338 0.0
C2878 C 0.89348 0.62926 0.55701 0.0
C2879 C 0.89885 0.63965 0.59706 0.0
H2880 H 0.98978 0.46212 0.20756 0.0
H2881 H 0.04953 0.52377 0.23142 0.0
H2882 H 0.03855 0.54211 0.17876 0.0
H2883 H 0.01321 0.53997 0.12342 0.0
H2884 H 0.95314 0.47853 0.10015 0.0
H2885 H 0.96393 0.4602 0.15332 0.0
C2886 C 1.00011 0.47972 0.2023 0.0
C2887 C 0.02036 0.49167 0.22376 0.0
C2888 C 0.99426 0.48982 0.17049 0.0
C2889 C 0.03367 0.51438 0.21592 0.0
C2890 C 0.02766 0.5247 0.18511 0.0
C2891 C 0.0027 0.52243 0.12907 0.0
C2892 C 0.98255 0.51048 0.10726 0.0
C2893 C 0.00835 0.5124 0.16132 0.0
C2894 C 0.96898 0.48788 0.11574 0.0
C2895 C 0.97489 0.47757 0.14683 0.0
H2896 H 0.52267 0.54351 0.12653 0.0
H2897 H 0.52235 0.53205 0.26112 0.0
H2898 H 0.50378 0.49212 0.2484 0.0
H2899 H 0.48826 0.46118 0.19914 0.0
H2900 H 0.48711 0.47211 0.06466 0.0
H2901 H 0.50647 0.51222 0.07698 0.0
C2902 C 0.51833 0.5322 0.1531 0.0
C2903 C 0.52372 0.54045 0.19474 0.0
C2904 C 0.50789 0.50954 0.14539 0.0
C2905 C 0.51802 0.52588 0.229 0.0
C2906 C 0.50769 0.5032 0.22162 0.0
C2907 C 0.49238 0.47235 0.1724 0.0
C2908 C 0.48638 0.46391 0.13101 0.0
C2909 C 0.50275 0.49497 0.17996 0.0
C2910 C 0.4919 0.47839 0.09661 0.0
C2911 C 0.50266 0.50118 0.10379 0.0
H2912 H 0.5331 0.99014 0.13368 0.0
H2913 H 0.52707 0.04607 0.09583 0.0
H2914 H 0.49663 0.03513 0.14591 0.0
H2915 H 0.47311 0.01072 0.20223 0.0
H2916 H 0.47845 0.95431 0.23941 0.0
H2917 H 0.50897 0.96522 0.18935 0.0
C2918 C 0.52461 0.99949 0.13529 0.0
C2919 C 0.53193 0.01862 0.11041 0.0
C2920 C 0.50792 0.99372 0.16555 0.0
C2921 C 0.52125 0.03096 0.11385 0.0
C2922 C 0.50424 0.02501 0.14315 0.0
C2923 C 0.48137 1.00116 0.20041 0.0
C2924 C 0.47393 0.98202 0.22529 0.0
C2925 C 0.49789 0.00678 0.16993 0.0
C2926 C 0.48439 0.96947 0.22151 0.0
C2927 C 0.50143 0.97541 0.1922 0.0
H2928 H 0.5168 0.97721 0.62932 0.0
H2929 H 0.51893 0.98998 0.76358 0.0
H2930 H 0.50088 0.01189 0.75118 0.0
H2931 H 0.48529 0.02751 0.70179 0.0
H2932 H 0.48371 0.01506 0.56748 0.0
H2933 H 0.5017 0.99315 0.58 0.0
C2934 C 0.51309 0.98462 0.65595 0.0
C2935 C 0.51897 0.98205 0.69733 0.0
C2936 C 0.50339 0.99745 0.64834 0.0
C2937 C 0.51412 0.99153 0.73167 0.0
C2938 C 0.50415 0.00424 0.72444 0.0
C2939 C 0.48913 0.02016 0.67522 0.0
C2940 C 0.48333 0.02275 0.63377 0.0
C2941 C 0.49897 0.00744 0.68287 0.0
C2942 C 0.48838 0.01343 0.59946 0.0
C2943 C 0.49834 1.00073 0.60674 0.0
H2944 H 0.96324 0.46647 0.64441 0.0
H2945 H 0.02561 0.47114 0.61628 0.0
H2946 H 0.04516 0.50779 0.64875 0.0
H2947 H 0.04426 0.53767 0.68771 0.0
H2948 H 0.98179 0.53274 0.71612 0.0
H2949 H 0.9623 0.49594 0.6844 0.0
C2950 C 0.98106 0.47556 0.64504 0.0
C2951 C 0.99299 0.46623 0.62788 0.0
C2952 C 0.99208 0.49603 0.66565 0.0
C2953 C 0.01614 0.47819 0.62904 0.0
C2954 C 0.02729 0.49894 0.64815 0.0
C2955 C 0.02642 0.52841 0.68758 0.0
C2956 C 0.01443 0.53776 0.70437 0.0
C2957 C 0.0154 0.50779 0.66741 0.0
C2958 C 0.99129 0.52566 0.70368 0.0
C2959 C 0.98017 0.50483 0.68495 0.0
H2960 H 0.53947 0.49783 0.65787 0.0
H2961 H 0.52362 0.53535 0.57057 0.0
H2962 H 0.49052 0.5262 0.61219 0.0
H2963 H 0.46771 0.50927 0.67495 0.0
H2964 H 0.48378 0.47184 0.76216 0.0
H2965 H 0.51687 0.48126 0.72086 0.0
C2966 C 0.52876 0.5039 0.64756 0.0
C2967 C 0.53405 0.51734 0.61118 0.0
C2968 C 0.51061 0.49959 0.67275 0.0
C2969 C 0.51981 0.52489 0.5983 0.0
C2970 C 0.50117 0.52 0.62247 0.0
C2971 C 0.47852 0.50333 0.68535 0.0
C2972 C 0.4732 0.48969 0.72149 0.0
C2973 C 0.49679 0.50784 0.66029 0.0
C2974 C 0.48759 0.4824 0.73458 0.0
C2975 C 0.50626 0.48746 0.71055 0.0
H2976 H 0.67901 0.87646 0.46226 0.0
H2977 H 0.62139 0.81361 0.43505 0.0
H2978 H 0.6338 0.79554 0.48556 0.0
H2979 H 0.66043 0.79791 0.53853 0.0
H2980 H 0.71816 0.86073 0.5655 0.0
H2981 H 0.70558 0.87885 0.51546 0.0
C2982 C 0.66948 0.85871 0.46636 0.0
C2983 C 0.64953 0.84626 0.4442 0.0
C2984 C 0.67618 0.84867 0.49682 0.0
C2985 C 0.63708 0.82338 0.45092 0.0
C2986 C 0.64393 0.81317 0.48043 0.0
C2987 C 0.66994 0.81568 0.53453 0.0
C2988 C 0.69 0.82808 0.5564 0.0
C2989 C 0.66319 0.82574 0.50422 0.0
C2990 C 0.70239 0.85098 0.54985 0.0
C2991 C 0.69546 0.86123 0.52058 0.0
H2992 H 0.16732 0.87438 0.48334 0.0
H2993 H 0.20579 0.86785 0.58267 0.0
H2994 H 0.19178 0.82921 0.56256 0.0
H2995 H 0.1704 0.79863 0.51381 0.0
H2996 H 0.13132 0.80481 0.4154 0.0
H2997 H 0.1454 0.84352 0.43528 0.0
C2998 C 0.17228 0.86435 0.50095 0.0
C2999 C 0.18719 0.87357 0.53465 0.0
C3000 C 0.16501 0.84278 0.48786 0.0
C3001 C 0.1937 0.86065 0.55749 0.0
C3002 C 0.18616 0.83887 0.5453 0.0
C3003 C 0.16515 0.80853 0.49663 0.0
C3004 C 0.15014 0.79923 0.46316 0.0
C3005 C 0.17227 0.83003 0.50989 0.0
C3006 C 0.14345 0.81206 0.44049 0.0
C3007 C 0.15104 0.83388 0.45255 0.0
H3008 H 0.21081 0.36977 0.50828 0.0
H3009 H 0.18411 0.33358 0.39211 0.0
H3010 H 0.14748 0.31333 0.42539 0.0
H3011 H 0.12407 0.30595 0.48748 0.0
H3012 H 0.15086 0.3414 0.60424 0.0
H3013 H 0.18731 0.36242 0.57039 0.0
C3014 C 0.19695 0.35782 0.48983 0.0
C3015 C 0.19995 0.35342 0.44748 0.0
C3016 C 0.17639 0.34606 0.50946 0.0
C3017 C 0.182 0.33733 0.42451 0.0
C3018 C 0.16122 0.32575 0.4436 0.0
C3019 C 0.13789 0.31793 0.5059 0.0
C3020 C 0.13501 0.32183 0.5486 0.0
C3021 C 0.1584 0.32985 0.48616 0.0
C3022 C 0.15289 0.33804 0.57152 0.0
C3023 C 0.17357 0.35002 0.55213 0.0
H3024 H 0.16788 0.29637 1.00909 0.0
H3025 H 0.21927 0.35745 0.06133 0.0
H3026 H 0.20208 0.37715 1.03031 0.0
H3027 H 0.17474 0.37747 0.98324 0.0
H3028 H 0.12356 0.31676 0.92883 0.0
H3029 H 0.13947 0.29647 0.96319 0.0
C3030 C 0.17512 0.31385 1.01431 0.0
C3031 C 0.19477 0.32543 1.03767 0.0
C3032 C 0.16581 0.32522 0.99432 0.0
C3033 C 0.20399 0.34819 0.04387 0.0
C3034 C 0.19439 0.35949 1.02556 0.0
C3035 C 0.16702 0.35981 0.97865 0.0
C3036 C 0.14797 0.34864 0.95339 0.0
C3037 C 0.17575 0.34827 0.99959 0.0
C3038 C 0.13831 0.32575 0.94787 0.0
C3039 C 0.14723 0.31413 0.96796 0.0
H3040 H 0.71104 0.86996 1.01156 0.0
H3041 H 0.65401 0.85664 0.08631 0.0
H3042 H 0.63129 0.82342 0.04437 0.0
H3043 H 0.6274 0.79981 0.98432 0.0
H3044 H 0.68442 0.81281 0.90983 0.0
H3045 H 0.70722 0.84603 0.95187 0.0
C3046 C 0.69369 0.85972 1.01911 0.0
C3047 C 0.68418 0.86589 0.0519 0.0
C3048 C 0.68063 0.84131 0.99373 0.0
C3049 C 0.66171 0.85224 0.06135 0.0
C3050 C 0.64868 0.83348 1.03695 0.0
C3051 C 0.64478 0.80993 0.97689 0.0
C3052 C 0.65423 0.80375 0.944 0.0
C3053 C 0.65788 0.82824 1.00242 0.0
C3054 C 0.67674 0.81726 0.93478 0.0
C3055 C 0.68982 0.83601 0.95925 0.0
H3056 H 0.13474 0.84216 1.01126 0.0
H3057 H 0.14989 0.80137 0.09105 0.0
H3058 H 0.18152 0.80958 0.04577 0.0
H3059 H 0.20327 0.82672 0.98196 0.0
H3060 H 0.1874 0.86685 0.90172 0.0
H3061 H 0.15551 0.85809 0.9464 0.0
C3062 C 0.14497 0.83513 1.01912 0.0
C3063 C 0.13983 0.821 0.05438 0.0
C3064 C 0.16203 0.83868 0.99155 0.0
C3065 C 0.15359 0.8124 0.06427 0.0
C3066 C 0.17133 0.81668 1.03789 0.0
C3067 C 0.19269 0.83331 0.97373 0.0
C3068 C 0.19792 0.84776 0.93894 0.0
C3069 C 0.17527 0.82929 1.00086 0.0
C3070 C 0.18371 0.85572 0.92834 0.0
C3071 C 0.16582 0.85114 0.9544 0.0
H3072 H 0.29372 0.16524 0.82745 0.0
H3073 H 0.34714 0.20142 0.73987 0.0
H3074 H 0.36769 0.18541 0.77197 0.0
H3075 H 0.37257 0.16609 0.83116 0.0
H3076 H 0.31998 0.13036 0.92093 0.0
H3077 H 0.29733 0.14285 0.88379 0.0
C3078 C 0.30952 0.16915 0.81465 0.0
C3079 C 0.31889 0.18446 0.78128 0.0
C3080 C 0.32179 0.16106 0.83526 0.0
C3081 C 0.33948 0.18937 0.76506 0.0
C3082 C 0.35142 0.18064 0.78407 0.0
C3083 C 0.35622 0.16097 0.84284 0.0
C3084 C 0.34814 0.1476 0.87927 0.0
C3085 C 0.34317 0.16742 0.82045 0.0
C3086 C 0.3267 0.14098 0.89344 0.0
C3087 C 0.31368 0.14784 0.87184 0.0
H3088 H 0.87723 0.20066 0.8594 0.0
H3089 H 0.81939 0.19811 0.91333 0.0
H3090 H 0.79574 0.16494 0.87224 0.0
H3091 H 0.79169 0.13656 0.8234 0.0
H3092 H 0.84882 0.13686 0.77215 0.0
H3093 H 0.87292 0.17246 0.80698 0.0
C3094 C 0.85946 0.19235 0.86319 0.0
C3095 C 0.84991 0.20112 0.8906 0.0
C3096 C 0.84605 0.17381 0.83836 0.0
C3097 C 0.82693 0.19099 0.89372 0.0
C3098 C 0.81349 0.17244 0.86954 0.0
C3099 C 0.80945 0.14473 0.81905 0.0
C3100 C 0.81863 0.13424 0.79591 0.0
C3101 C 0.82291 0.16386 0.84174 0.0
C3102 C 0.84149 0.1449 0.78957 0.0
C3103 C 0.8552 0.16488 0.81039 0.0
H3104 H 0.86765 0.66194 0.82365 0.0
H3105 H 0.87066 0.71822 0.76136 0.0
H3106 H 0.83287 0.70625 0.78506 0.0
H3107 H 0.80035 0.68096 0.82686 0.0
H3108 H 0.79826 0.62575 0.89199 0.0
H3109 H 0.8353 0.63677 0.86538 0.0
C3110 C 0.85979 0.67131 0.8145 0.0
C3111 C 0.87155 0.69073 0.79052 0.0
C3112 C 0.83885 0.665 0.83008 0.0
C3113 C 0.86154 0.70291 0.77886 0.0
C3114 C 0.84023 0.69633 0.79321 0.0
C3115 C 0.80822 0.67158 0.83579 0.0
C3116 C 0.79691 0.65272 0.86149 0.0
C3117 C 0.82906 0.67774 0.81969 0.0
C3118 C 0.80698 0.64056 0.87295 0.0
C3119 C 0.82788 0.64663 0.85709 0.0
H3120 H 0.83483 0.6316 0.3184 0.0
H3121 H 0.87002 0.67261 0.42488 0.0
H3122 H 0.86116 0.70061 0.40082 0.0
H3123 H 0.84551 0.7139 0.34677 0.0
H3124 H 0.80983 0.67257 0.24094 0.0
H3125 H 0.81924 0.64487 0.26433 0.0
C3126 C 0.84001 0.64642 0.33683 0.0
C3127 C 0.85276 0.65013 0.3734 0.0
C3128 C 0.83626 0.66283 0.32111 0.0
C3129 C 0.85957 0.66928 0.39733 0.0
C3130 C 0.85516 0.6855 0.38279 0.0
C3131 C 0.84037 0.69906 0.32835 0.0
C3132 C 0.8272 0.6951 0.29232 0.0
C3133 C 0.84421 0.68269 0.34398 0.0
C3134 C 0.82051 0.67604 0.26818 0.0
C3135 C 0.82522 0.65997 0.28238 0.0
H3136 H 0.35173 0.21172 0.32266 0.0
H3137 H 0.35254 0.1823 0.44229 0.0
H3138 H 0.33719 0.14604 0.4078 0.0
H3139 H 0.324 0.12322 0.34334 0.0
H3140 H 0.32276 0.15262 0.22399 0.0
H3141 H 0.33857 0.18895 0.25831 0.0
C3142 C 0.3483 0.19725 0.34113 0.0
C3143 C 0.35286 0.19933 0.38487 0.0
C3144 C 0.33995 0.17683 0.32097 0.0
C3145 C 0.34875 0.18079 0.40873 0.0
C3146 C 0.34021 0.16024 0.38894 0.0
C3147 C 0.32751 0.13772 0.32489 0.0
C3148 C 0.32272 0.13563 0.28125 0.0
C3149 C 0.33594 0.15816 0.34506 0.0
C3150 C 0.32681 0.15417 0.25744 0.0
C3151 C 0.33558 0.17475 0.27715 0.0
H3152 H 0.86584 0.21065 0.29566 0.0
H3153 H 0.86286 0.14952 0.26227 0.0
H3154 H 0.83228 0.12949 0.31189 0.0
H3155 H 0.80795 0.12979 0.36687 0.0
H3156 H 0.8102 0.19066 0.39956 0.0
H3157 H 0.84071 0.21078 0.34968 0.0
C3158 C 0.85797 0.19284 0.2981 0.0
C3159 C 0.86622 0.18144 0.27469 0.0
C3160 C 0.84121 0.18167 0.32813 0.0
C3161 C 0.85632 0.15847 0.27916 0.0
C3162 C 0.83925 0.14715 0.30823 0.0
C3163 C 0.81551 0.14756 0.36408 0.0
C3164 C 0.80721 0.15887 0.38763 0.0
C3165 C 0.83204 0.1587 0.3337 0.0
C3166 C 0.81679 0.18178 0.38265 0.0
C3167 C 0.83384 0.19315 0.35346 0.0
loop_
_geom_bond_atom_site_label_1
_geom_bond_atom_site_label_2
_geom_bond_distance
_geom_bond_site_symmetry_2
_ccdc_geom_bond_type
Sm0 C2 2.846 . S
Sm0 O20 2.543 . S
Sm0 O21 2.450 . S
Sm0 O22 2.681 . S
Sm0 O23 2.464 . S
Sm0 O24 2.396 . S
Sm0 O28 2.386 . S
Sm0 O31 2.408 . S
Sm1 C11 2.846 . S
Sm1 O22 2.386 . S
Sm1 O25 2.408 . S
Sm1 O26 2.543 . S
Sm1 O27 2.450 . S
Sm1 O28 2.681 . S
Sm1 O29 2.464 . S
Sm1 O30 2.396 . S
C2 Sm0 2.846 . S
C2 C3 1.506 . S
C2 O20 1.261 . S
C2 O21 1.242 . S
C3 C2 1.506 . S
C3 C4 1.358 . S
C3 C8 1.382 . S
C4 C3 1.358 . S
C4 C5 1.385 . S
C4 H32 0.930 . S
C5 C4 1.385 . S
C5 C6 1.395 . S
C5 H33 0.929 . S
C6 C5 1.395 . S
C6 C7 1.335 . S
C7 C6 1.335 . S
C7 C8 1.398 . S
C7 H34 0.930 . S
C8 C3 1.382 . S
C8 C7 1.398 . S
C8 H35 0.929 . S
C9 O22 1.271 . S
C9 O23 1.251 . S
C10 O24 1.252 . S
C10 O25 1.272 . S
C11 Sm1 2.846 . S
C11 C12 1.506 . S
C11 O26 1.261 . S
C11 O27 1.242 . S
C12 C11 1.506 . S
C12 C13 1.358 1_554 S
C12 C17 1.382 1_554 S
C13 C12 1.358 1_556 S
C13 C14 1.385 . S
C13 H36 0.930 . S
C14 C13 1.385 . S
C14 C15 1.395 . S
C14 H37 0.929 . S
C15 C14 1.395 . S
C15 C16 1.335 . S
C16 C15 1.335 . S
C16 C17 1.398 . S
C16 H38 0.930 1_455 S
C17 C12 1.382 1_556 S
C17 C16 1.398 . S
C17 H39 0.929 1_456 S
C18 O28 1.271 . S
C18 O29 1.251 . S
C19 O30 1.252 . S
C19 O31 1.272 . S
O20 Sm0 2.543 . S
O20 C2 1.261 . S
O21 Sm0 2.450 . S
O21 C2 1.242 . S
O22 Sm0 2.681 . S
O22 Sm1 2.386 . S
O22 C9 1.271 . S
O23 Sm0 2.464 . S
O23 C9 1.251 . S
O24 Sm0 2.396 . S
O24 C10 1.252 . S
O25 Sm1 2.408 . S
O25 C10 1.272 . S
O26 Sm1 2.543 . S
O26 C11 1.261 . S
O27 Sm1 2.450 . S
O27 C11 1.242 . S
O28 Sm0 2.386 . S
O28 Sm1 2.681 . S
O28 C18 1.271 . S
O29 Sm1 2.464 . S
O29 C18 1.251 . S
O30 Sm1 2.396 . S
O30 C19 1.252 . S
O31 Sm0 2.408 . S
O31 C19 1.272 . S
H32 C4 0.930 . S
H33 C5 0.929 . S
H34 C7 0.930 . S
H35 C8 0.929 . S
H36 C13 0.930 . S
H37 C14 0.929 . S
H38 C16 0.930 1_655 S
H39 C17 0.929 1_654 S
Sm40 C42 2.846 . S
Sm40 O60 2.543 . S
Sm40 O61 2.450 . S
Sm40 O62 2.681 . S
Sm40 O63 2.464 . S
Sm40 O64 2.396 . S
Sm40 O68 2.386 . S
Sm40 O71 2.408 . S
Sm41 C51 2.846 . S
Sm41 O62 2.386 . S
Sm41 O65 2.408 . S
Sm41 O66 2.543 . S
Sm41 O67 2.450 . S
Sm41 O68 2.681 . S
Sm41 O69 2.464 . S
Sm41 O70 2.396 . S
C42 Sm40 2.846 . S
C42 C43 1.506 . S
C42 O60 1.261 . S
C42 O61 1.242 . S
C43 C42 1.506 . S
C43 C44 1.358 . S
C43 C48 1.382 . S
C44 C43 1.358 . S
C44 C45 1.385 . S
C44 H72 0.930 . S
C45 C44 1.385 . S
C45 C46 1.395 . S
C45 H73 0.929 . S
C46 C45 1.395 . S
C46 C47 1.335 . S
C47 C46 1.335 . S
C47 C48 1.398 . S
C47 H74 0.930 . S
C48 C43 1.382 . S
C48 C47 1.398 . S
C48 H75 0.929 . S
C49 O62 1.271 . S
C49 O63 1.251 . S
C50 O64 1.252 . S
C50 O65 1.272 . S
C51 Sm41 2.846 . S
C51 C52 1.506 . S
C51 O66 1.261 . S
C51 O67 1.242 . S
C52 C51 1.506 . S
C52 C53 1.358 1_554 S
C52 C57 1.382 1_554 S
C53 C52 1.358 1_556 S
C53 C54 1.385 . S
C53 H76 0.930 . S
C54 C53 1.385 . S
C54 C55 1.395 . S
C54 H77 0.929 . S
C55 C54 1.395 . S
C55 C56 1.335 . S
C56 C55 1.335 . S
C56 C57 1.398 . S
C56 H78 0.930 . S
C57 C52 1.382 1_556 S
C57 C56 1.398 . S
C57 H79 0.929 1_556 S
C58 O68 1.271 . S
C58 O69 1.251 . S
C59 O70 1.252 . S
C59 O71 1.272 . S
O60 Sm40 2.543 . S
O60 C42 1.261 . S
O61 Sm40 2.450 . S
O61 C42 1.242 . S
O62 Sm40 2.681 . S
O62 Sm41 2.386 . S
O62 C49 1.271 . S
O63 Sm40 2.464 . S
O63 C49 1.251 . S
O64 Sm40 2.396 . S
O64 C50 1.252 . S
O65 Sm41 2.408 . S
O65 C50 1.272 . S
O66 Sm41 2.543 . S
O66 C51 1.261 . S
O67 Sm41 2.450 . S
O67 C51 1.242 . S
O68 Sm40 2.386 . S
O68 Sm41 2.681 . S
O68 C58 1.271 . S
O69 Sm41 2.464 . S
O69 C58 1.251 . S
O70 Sm41 2.396 . S
O70 C59 1.252 . S
O71 Sm40 2.408 . S
O71 C59 1.272 . S
H72 C44 0.930 . S
H73 C45 0.929 . S
H74 C47 0.930 . S
H75 C48 0.929 . S
H76 C53 0.930 . S
H77 C54 0.929 . S
H78 C56 0.930 . S
H79 C57 0.929 1_554 S
Sm80 C82 2.846 . S
Sm80 O100 2.543 . S
Sm80 O101 2.450 . S
Sm80 O102 2.681 . S
Sm80 O103 2.464 . S
Sm80 O104 2.396 . S
Sm80 O108 2.386 . S
Sm80 O111 2.408 . S
Sm81 C91 2.846 . S
Sm81 O102 2.386 . S
Sm81 O105 2.408 . S
Sm81 O106 2.543 . S
Sm81 O107 2.450 . S
Sm81 O108 2.681 . S
Sm81 O109 2.464 . S
Sm81 O110 2.396 . S
C82 Sm80 2.846 . S
C82 C83 1.506 . S
C82 O100 1.261 . S
C82 O101 1.242 . S
C83 C82 1.506 . S
C83 C84 1.358 . S
C83 C88 1.382 . S
C84 C83 1.358 . S
C84 C85 1.385 . S
C84 H112 0.930 . S
C85 C84 1.385 . S
C85 C86 1.395 . S
C85 H113 0.929 . S
C86 C85 1.395 . S
C86 C87 1.335 . S
C87 C86 1.335 . S
C87 C88 1.398 . S
C87 H114 0.930 . S
C88 C83 1.382 . S
C88 C87 1.398 . S
C88 H115 0.929 . S
C89 O102 1.271 . S
C89 O103 1.251 . S
C90 O104 1.252 . S
C90 O105 1.272 . S
C91 Sm81 2.846 . S
C91 C92 1.506 . S
C91 O106 1.261 . S
C91 O107 1.242 . S
C92 C91 1.506 . S
C92 C93 1.358 1_554 S
C92 C97 1.382 1_554 S
C93 C92 1.358 1_556 S
C93 C94 1.385 . S
C93 H116 0.930 . S
C94 C93 1.385 . S
C94 C95 1.395 . S
C94 H117 0.929 . S
C95 C94 1.395 . S
C95 C96 1.335 . S
C96 C95 1.335 . S
C96 C97 1.398 . S
C96 H118 0.930 1_565 S
C97 C92 1.382 1_556 S
C97 C96 1.398 . S
C97 H119 0.929 1_566 S
C98 O108 1.271 . S
C98 O109 1.251 . S
C99 O110 1.252 . S
C99 O111 1.272 . S
O100 Sm80 2.543 . S
O100 C82 1.261 . S
O101 Sm80 2.450 . S
O101 C82 1.242 . S
O102 Sm80 2.681 . S
O102 Sm81 2.386 . S
O102 C89 1.271 . S
O103 Sm80 2.464 . S
O103 C89 1.251 . S
O104 Sm80 2.396 . S
O104 C90 1.252 . S
O105 Sm81 2.408 . S
O105 C90 1.272 . S
O106 Sm81 2.543 . S
O106 C91 1.261 . S
O107 Sm81 2.450 . S
O107 C91 1.242 . S
O108 Sm80 2.386 . S
O108 Sm81 2.681 . S
O108 C98 1.271 . S
O109 Sm81 2.464 . S
O109 C98 1.251 . S
O110 Sm81 2.396 . S
O110 C99 1.252 . S
O111 Sm80 2.408 . S
O111 C99 1.272 . S
H112 C84 0.930 . S
H113 C85 0.929 . S
H114 C87 0.930 . S
H115 C88 0.929 . S
H116 C93 0.930 . S
H117 C94 0.929 . S
H118 C96 0.930 1_545 S
H119 C97 0.929 1_544 S
Sm120 C122 2.846 . S
Sm120 O140 2.543 . S
Sm120 O141 2.450 . S
Sm120 O142 2.681 . S
Sm120 O143 2.464 . S
Sm120 O144 2.396 . S
Sm120 O148 2.386 . S
Sm120 O151 2.408 . S
Sm121 C131 2.846 . S
Sm121 O142 2.386 . S
Sm121 O145 2.408 . S
Sm121 O146 2.543 . S
Sm121 O147 2.450 . S
Sm121 O148 2.681 . S
Sm121 O149 2.464 . S
Sm121 O150 2.396 . S
C122 Sm120 2.846 . S
C122 C123 1.506 . S
C122 O140 1.261 . S
C122 O141 1.242 . S
C123 C122 1.506 . S
C123 C124 1.358 . S
C123 C128 1.382 . S
C124 C123 1.358 . S
C124 C125 1.385 . S
C124 H152 0.930 . S
C125 C124 1.385 . S
C125 C126 1.395 . S
C125 H153 0.929 . S
C126 C125 1.395 . S
C126 C127 1.335 . S
C127 C126 1.335 . S
C127 C128 1.398 . S
C127 H154 0.930 . S
C128 C123 1.382 . S
C128 C127 1.398 . S
C128 H155 0.929 . S
C129 O142 1.271 . S
C129 O143 1.251 . S
C130 O144 1.252 . S
C130 O145 1.272 . S
C131 Sm121 2.846 . S
C131 C132 1.506 . S
C131 O146 1.261 . S
C131 O147 1.242 . S
C132 C131 1.506 . S
C132 C133 1.358 . S
C132 C137 1.382 . S
C133 C132 1.358 . S
C133 C134 1.385 . S
C133 H156 0.930 . S
C134 C133 1.385 . S
C134 C135 1.395 . S
C134 H157 0.929 . S
C135 C134 1.395 . S
C135 C136 1.335 . S
C136 C135 1.335 . S
C136 C137 1.398 . S
C136 H158 0.930 1_545 S
C137 C132 1.382 . S
C137 C136 1.398 . S
C137 H159 0.929 1_545 S
C138 O148 1.271 . S
C138 O149 1.251 . S
C139 O150 1.252 . S
C139 O151 1.272 . S
O140 Sm120 2.543 . S
O140 C122 1.261 . S
O141 Sm120 2.450 . S
O141 C122 1.242 . S
O142 Sm120 2.681 . S
O142 Sm121 2.386 . S
O142 C129 1.271 . S
O143 Sm120 2.464 . S
O143 C129 1.251 . S
O144 Sm120 2.396 . S
O144 C130 1.252 . S
O145 Sm121 2.408 . S
O145 C130 1.272 . S
O146 Sm121 2.543 . S
O146 C131 1.261 . S
O147 Sm121 2.450 . S
O147 C131 1.242 . S
O148 Sm120 2.386 . S
O148 Sm121 2.681 . S
O148 C138 1.271 . S
O149 Sm121 2.464 . S
O149 C138 1.251 . S
O150 Sm121 2.396 . S
O150 C139 1.252 . S
O151 Sm120 2.408 . S
O151 C139 1.272 . S
H152 C124 0.930 . S
H153 C125 0.929 . S
H154 C127 0.930 . S
H155 C128 0.929 . S
H156 C133 0.930 . S
H157 C134 0.929 . S
H158 C136 0.930 1_565 S
H159 C137 0.929 1_565 S
Sm160 C162 2.846 . S
Sm160 O180 2.543 . S
Sm160 O181 2.450 . S
Sm160 O182 2.681 . S
Sm160 O183 2.464 . S
Sm160 O184 2.396 . S
Sm160 O188 2.386 . S
Sm160 O191 2.408 . S
Sm161 C171 2.846 . S
Sm161 O182 2.386 . S
Sm161 O185 2.408 . S
Sm161 O186 2.543 . S
Sm161 O187 2.450 . S
Sm161 O188 2.681 . S
Sm161 O189 2.464 . S
Sm161 O190 2.396 . S
C162 Sm160 2.846 . S
C162 C163 1.506 . S
C162 O180 1.261 . S
C162 O181 1.242 . S
C163 C162 1.506 . S
C163 C164 1.358 . S
C163 C168 1.382 . S
C164 C163 1.358 . S
C164 C165 1.385 . S
C164 H192 0.930 . S
C165 C164 1.385 . S
C165 C166 1.395 . S
C165 H193 0.929 . S
C166 C165 1.395 . S
C166 C167 1.335 . S
C167 C166 1.335 . S
C167 C168 1.398 . S
C167 H194 0.930 . S
C168 C163 1.382 . S
C168 C167 1.398 . S
C168 H195 0.929 . S
C169 O182 1.271 . S
C169 O183 1.251 . S
C170 O184 1.252 . S
C170 O185 1.272 . S
C171 Sm161 2.846 . S
C171 C172 1.506 . S
C171 O186 1.261 . S
C171 O187 1.242 . S
C172 C171 1.506 . S
C172 C173 1.358 . S
C172 C177 1.382 . S
C173 C172 1.358 . S
C173 C174 1.385 . S
C173 H196 0.930 . S
C174 C173 1.385 . S
C174 C175 1.395 . S
C174 H197 0.929 . S
C175 C174 1.395 . S
C175 C176 1.335 . S
C176 C175 1.335 . S
C176 C177 1.398 . S
C176 H198 0.930 1_655 S
C177 C172 1.382 . S
C177 C176 1.398 . S
C177 H199 0.929 1_655 S
C178 O188 1.271 . S
C178 O189 1.251 . S
C179 O190 1.252 . S
C179 O191 1.272 . S
O180 Sm160 2.543 . S
O180 C162 1.261 . S
O181 Sm160 2.450 . S
O181 C162 1.242 . S
O182 Sm160 2.681 . S
O182 Sm161 2.386 . S
O182 C169 1.271 . S
O183 Sm160 2.464 . S
O183 C169 1.251 . S
O184 Sm160 2.396 . S
O184 C170 1.252 . S
O185 Sm161 2.408 . S
O185 C170 1.272 . S
O186 Sm161 2.543 . S
O186 C171 1.261 . S
O187 Sm161 2.450 . S
O187 C171 1.242 . S
O188 Sm160 2.386 . S
O188 Sm161 2.681 . S
O188 C178 1.271 . S
O189 Sm161 2.464 . S
O189 C178 1.251 . S
O190 Sm161 2.396 . S
O190 C179 1.252 . S
O191 Sm160 2.408 . S
O191 C179 1.272 . S
H192 C164 0.930 . S
H193 C165 0.929 . S
H194 C167 0.930 . S
H195 C168 0.929 . S
H196 C173 0.930 . S
H197 C174 0.929 . S
H198 C176 0.930 1_455 S
H199 C177 0.929 1_455 S
Sm200 C202 2.846 . S
Sm200 O220 2.543 . S
Sm200 O221 2.450 . S
Sm200 O222 2.681 . S
Sm200 O223 2.464 . S
Sm200 O224 2.396 . S
Sm200 O228 2.386 . S
Sm200 O231 2.408 . S
Sm201 C211 2.846 . S
Sm201 O222 2.386 . S
Sm201 O225 2.408 . S
Sm201 O226 2.543 . S
Sm201 O227 2.450 . S
Sm201 O228 2.681 . S
Sm201 O229 2.464 . S
Sm201 O230 2.396 . S
C202 Sm200 2.846 . S
C202 C203 1.506 . S
C202 O220 1.261 . S
C202 O221 1.242 . S
C203 C202 1.506 . S
C203 C204 1.358 . S
C203 C208 1.382 . S
C204 C203 1.358 . S
C204 C205 1.385 . S
C204 H232 0.930 . S
C205 C204 1.385 . S
C205 C206 1.395 . S
C205 H233 0.929 . S
C206 C205 1.395 . S
C206 C207 1.335 . S
C207 C206 1.335 . S
C207 C208 1.398 . S
C207 H234 0.930 . S
C208 C203 1.382 . S
C208 C207 1.398 . S
C208 H235 0.929 . S
C209 O222 1.271 . S
C209 O223 1.251 . S
C210 O224 1.252 . S
C210 O225 1.272 . S
C211 Sm201 2.846 . S
C211 C212 1.506 . S
C211 O226 1.261 . S
C211 O227 1.242 . S
C212 C211 1.506 . S
C212 C213 1.358 . S
C212 C217 1.382 . S
C213 C212 1.358 . S
C213 C214 1.385 . S
C213 H236 0.930 . S
C214 C213 1.385 . S
C214 C215 1.395 . S
C214 H237 0.929 . S
C215 C214 1.395 . S
C215 C216 1.335 . S
C216 C215 1.335 . S
C216 C217 1.398 . S
C216 H238 0.930 . S
C217 C212 1.382 . S
C217 C216 1.398 . S
C217 H239 0.929 . S
C218 O228 1.271 . S
C218 O229 1.251 . S
C219 O230 1.252 . S
C219 O231 1.272 . S
O220 Sm200 2.543 . S
O220 C202 1.261 . S
O221 Sm200 2.450 . S
O221 C202 1.242 . S
O222 Sm200 2.681 . S
O222 Sm201 2.386 . S
O222 C209 1.271 . S
O223 Sm200 2.464 . S
O223 C209 1.251 . S
O224 Sm200 2.396 . S
O224 C210 1.252 . S
O225 Sm201 2.408 . S
O225 C210 1.272 . S
O226 Sm201 2.543 . S
O226 C211 1.261 . S
O227 Sm201 2.450 . S
O227 C211 1.242 . S
O228 Sm200 2.386 . S
O228 Sm201 2.681 . S
O228 C218 1.271 . S
O229 Sm201 2.464 . S
O229 C218 1.251 . S
O230 Sm201 2.396 . S
O230 C219 1.252 . S
O231 Sm200 2.408 . S
O231 C219 1.272 . S
H232 C204 0.930 . S
H233 C205 0.929 . S
H234 C207 0.930 . S
H235 C208 0.929 . S
H236 C213 0.930 . S
H237 C214 0.929 . S
H238 C216 0.930 . S
H239 C217 0.929 . S
Sm240 C242 2.846 . S
Sm240 O260 2.543 . S
Sm240 O261 2.450 . S
Sm240 O262 2.681 . S
Sm240 O263 2.464 . S
Sm240 O264 2.396 . S
Sm240 O268 2.386 . S
Sm240 O271 2.408 . S
Sm241 C251 2.846 1_554 S
Sm241 O262 2.386 . S
Sm241 O265 2.408 . S
Sm241 O266 2.543 1_554 S
Sm241 O267 2.450 1_554 S
Sm241 O268 2.681 . S
Sm241 O269 2.464 . S
Sm241 O270 2.396 . S
C242 Sm240 2.846 . S
C242 C243 1.506 . S
C242 O260 1.261 . S
C242 O261 1.242 . S
C243 C242 1.506 . S
C243 C244 1.358 . S
C243 C248 1.382 . S
C244 C243 1.358 . S
C244 C245 1.385 . S
C244 H272 0.930 . S
C245 C244 1.385 . S
C245 C246 1.395 . S
C245 H273 0.929 . S
C246 C245 1.395 . S
C246 C247 1.335 . S
C247 C246 1.335 . S
C247 C248 1.398 . S
C247 H274 0.930 1_655 S
C248 C243 1.382 . S
C248 C247 1.398 . S
C248 H275 0.929 1_655 S
C249 O262 1.271 . S
C249 O263 1.251 . S
C250 O264 1.252 . S
C250 O265 1.272 . S
C251 Sm241 2.846 1_556 S
C251 C252 1.506 . S
C251 O266 1.261 . S
C251 O267 1.242 . S
C252 C251 1.506 . S
C252 C253 1.358 . S
C252 C257 1.382 . S
C253 C252 1.358 . S
C253 C254 1.385 . S
C253 H276 0.930 . S
C254 C253 1.385 . S
C254 C255 1.395 . S
C254 H277 0.929 . S
C255 C254 1.395 . S
C255 C256 1.335 . S
C256 C255 1.335 . S
C256 C257 1.398 . S
C256 H278 0.930 . S
C257 C252 1.382 . S
C257 C256 1.398 . S
C257 H279 0.929 . S
C258 O268 1.271 . S
C258 O269 1.251 . S
C259 O270 1.252 . S
C259 O271 1.272 . S
O260 Sm240 2.543 . S
O260 C242 1.261 . S
O261 Sm240 2.450 . S
O261 C242 1.242 . S
O262 Sm240 2.681 . S
O262 Sm241 2.386 . S
O262 C249 1.271 . S
O263 Sm240 2.464 . S
O263 C249 1.251 . S
O264 Sm240 2.396 . S
O264 C250 1.252 . S
O265 Sm241 2.408 . S
O265 C250 1.272 . S
O266 Sm241 2.543 1_556 S
O266 C251 1.261 . S
O267 Sm241 2.450 1_556 S
O267 C251 1.242 . S
O268 Sm240 2.386 . S
O268 Sm241 2.681 . S
O268 C258 1.271 . S
O269 Sm241 2.464 . S
O269 C258 1.251 . S
O270 Sm241 2.396 . S
O270 C259 1.252 . S
O271 Sm240 2.408 . S
O271 C259 1.272 . S
H272 C244 0.930 . S
H273 C245 0.929 . S
H274 C247 0.930 1_455 S
H275 C248 0.929 1_455 S
H276 C253 0.930 . S
H277 C254 0.929 . S
H278 C256 0.930 . S
H279 C257 0.929 . S
Sm280 C282 2.846 . S
Sm280 O300 2.543 . S
Sm280 O301 2.450 . S
Sm280 O302 2.681 . S
Sm280 O303 2.464 . S
Sm280 O304 2.396 . S
Sm280 O308 2.386 . S
Sm280 O311 2.408 . S
Sm281 C291 2.846 1_554 S
Sm281 O302 2.386 . S
Sm281 O305 2.408 . S
Sm281 O306 2.543 1_554 S
Sm281 O307 2.450 1_554 S
Sm281 O308 2.681 . S
Sm281 O309 2.464 . S
Sm281 O310 2.396 . S
C282 Sm280 2.846 . S
C282 C283 1.506 . S
C282 O300 1.261 . S
C282 O301 1.242 . S
C283 C282 1.506 . S
C283 C284 1.358 . S
C283 C288 1.382 . S
C284 C283 1.358 . S
C284 C285 1.385 . S
C284 H312 0.930 . S
C285 C284 1.385 . S
C285 C286 1.395 . S
C285 H313 0.929 . S
C286 C285 1.395 . S
C286 C287 1.335 . S
C287 C286 1.335 . S
C287 C288 1.398 . S
C287 H314 0.930 . S
C288 C283 1.382 . S
C288 C287 1.398 . S
C288 H315 0.929 . S
C289 O302 1.271 . S
C289 O303 1.251 . S
C290 O304 1.252 . S
C290 O305 1.272 . S
C291 Sm281 2.846 1_556 S
C291 C292 1.506 . S
C291 O306 1.261 . S
C291 O307 1.242 . S
C292 C291 1.506 . S
C292 C293 1.358 . S
C292 C297 1.382 . S
C293 C292 1.358 . S
C293 C294 1.385 . S
C293 H316 0.930 . S
C294 C293 1.385 . S
C294 C295 1.395 . S
C294 H317 0.929 . S
C295 C294 1.395 . S
C295 C296 1.335 . S
C296 C295 1.335 . S
C296 C297 1.398 . S
C296 H318 0.930 . S
C297 C292 1.382 . S
C297 C296 1.398 . S
C297 H319 0.929 . S
C298 O308 1.271 . S
C298 O309 1.251 . S
C299 O310 1.252 . S
C299 O311 1.272 . S
O300 Sm280 2.543 . S
O300 C282 1.261 . S
O301 Sm280 2.450 . S
O301 C282 1.242 . S
O302 Sm280 2.681 . S
O302 Sm281 2.386 . S
O302 C289 1.271 . S
O303 Sm280 2.464 . S
O303 C289 1.251 . S
O304 Sm280 2.396 . S
O304 C290 1.252 . S
O305 Sm281 2.408 . S
O305 C290 1.272 . S
O306 Sm281 2.543 1_556 S
O306 C291 1.261 . S
O307 Sm281 2.450 1_556 S
O307 C291 1.242 . S
O308 Sm280 2.386 . S
O308 Sm281 2.681 . S
O308 C298 1.271 . S
O309 Sm281 2.464 . S
O309 C298 1.251 . S
O310 Sm281 2.396 . S
O310 C299 1.252 . S
O311 Sm280 2.408 . S
O311 C299 1.272 . S
H312 C284 0.930 . S
H313 C285 0.929 . S
H314 C287 0.930 . S
H315 C288 0.929 . S
H316 C293 0.930 . S
H317 C294 0.929 . S
H318 C296 0.930 . S
H319 C297 0.929 . S
Sm320 C322 2.846 . S
Sm320 O340 2.543 . S
Sm320 O341 2.450 . S
Sm320 O342 2.681 . S
Sm320 O343 2.464 . S
Sm320 O344 2.396 . S
Sm320 O348 2.386 . S
Sm320 O351 2.408 . S
Sm321 C331 2.846 1_554 S
Sm321 O342 2.386 . S
Sm321 O345 2.408 . S
Sm321 O346 2.543 1_554 S
Sm321 O347 2.450 1_554 S
Sm321 O348 2.681 . S
Sm321 O349 2.464 . S
Sm321 O350 2.396 . S
C322 Sm320 2.846 . S
C322 C323 1.506 . S
C322 O340 1.261 . S
C322 O341 1.242 . S
C323 C322 1.506 . S
C323 C324 1.358 . S
C323 C328 1.382 . S
C324 C323 1.358 . S
C324 C325 1.385 . S
C324 H352 0.930 . S
C325 C324 1.385 . S
C325 C326 1.395 . S
C325 H353 0.929 . S
C326 C325 1.395 . S
C326 C327 1.335 . S
C327 C326 1.335 . S
C327 C328 1.398 . S
C327 H354 0.930 1_545 S
C328 C323 1.382 . S
C328 C327 1.398 . S
C328 H355 0.929 1_545 S
C329 O342 1.271 . S
C329 O343 1.251 . S
C330 O344 1.252 . S
C330 O345 1.272 . S
C331 Sm321 2.846 1_556 S
C331 C332 1.506 . S
C331 O346 1.261 . S
C331 O347 1.242 . S
C332 C331 1.506 . S
C332 C333 1.358 . S
C332 C337 1.382 . S
C333 C332 1.358 . S
C333 C334 1.385 . S
C333 H356 0.930 . S
C334 C333 1.385 . S
C334 C335 1.395 . S
C334 H357 0.929 . S
C335 C334 1.395 . S
C335 C336 1.335 . S
C336 C335 1.335 . S
C336 C337 1.398 . S
C336 H358 0.930 . S
C337 C332 1.382 . S
C337 C336 1.398 . S
C337 H359 0.929 . S
C338 O348 1.271 . S
C338 O349 1.251 . S
C339 O350 1.252 . S
C339 O351 1.272 . S
O340 Sm320 2.543 . S
O340 C322 1.261 . S
O341 Sm320 2.450 . S
O341 C322 1.242 . S
O342 Sm320 2.681 . S
O342 Sm321 2.386 . S
O342 C329 1.271 . S
O343 Sm320 2.464 . S
O343 C329 1.251 . S
O344 Sm320 2.396 . S
O344 C330 1.252 . S
O345 Sm321 2.408 . S
O345 C330 1.272 . S
O346 Sm321 2.543 1_556 S
O346 C331 1.261 . S
O347 Sm321 2.450 1_556 S
O347 C331 1.242 . S
O348 Sm320 2.386 . S
O348 Sm321 2.681 . S
O348 C338 1.271 . S
O349 Sm321 2.464 . S
O349 C338 1.251 . S
O350 Sm321 2.396 . S
O350 C339 1.252 . S
O351 Sm320 2.408 . S
O351 C339 1.272 . S
H352 C324 0.930 . S
H353 C325 0.929 . S
H354 C327 0.930 1_565 S
H355 C328 0.929 1_565 S
H356 C333 0.930 . S
H357 C334 0.929 . S
H358 C336 0.930 . S
H359 C337 0.929 . S
Sm360 C362 2.846 . S
Sm360 O380 2.543 . S
Sm360 O381 2.450 . S
Sm360 O382 2.681 . S
Sm360 O383 2.464 . S
Sm360 O384 2.396 . S
Sm360 O388 2.386 . S
Sm360 O391 2.408 . S
Sm361 C371 2.846 . S
Sm361 O382 2.386 . S
Sm361 O385 2.408 . S
Sm361 O386 2.543 . S
Sm361 O387 2.450 . S
Sm361 O388 2.681 . S
Sm361 O389 2.464 . S
Sm361 O390 2.396 . S
C362 Sm360 2.846 . S
C362 C363 1.506 . S
C362 O380 1.261 . S
C362 O381 1.242 . S
C363 C362 1.506 . S
C363 C364 1.358 . S
C363 C368 1.382 . S
C364 C363 1.358 . S
C364 C365 1.385 . S
C364 H392 0.930 . S
C365 C364 1.385 . S
C365 C366 1.395 . S
C365 H393 0.929 . S
C366 C365 1.395 . S
C366 C367 1.335 . S
C367 C366 1.335 . S
C367 C368 1.398 . S
C367 H394 0.930 1_565 S
C368 C363 1.382 . S
C368 C367 1.398 . S
C368 H395 0.929 1_565 S
C369 O382 1.271 . S
C369 O383 1.251 . S
C370 O384 1.252 . S
C370 O385 1.272 . S
C371 Sm361 2.846 . S
C371 C372 1.506 . S
C371 O386 1.261 . S
C371 O387 1.242 . S
C372 C371 1.506 . S
C372 C373 1.358 . S
C372 C377 1.382 . S
C373 C372 1.358 . S
C373 C374 1.385 . S
C373 H396 0.930 . S
C374 C373 1.385 . S
C374 C375 1.395 . S
C374 H397 0.929 . S
C375 C374 1.395 . S
C375 C376 1.335 . S
C376 C375 1.335 . S
C376 C377 1.398 . S
C376 H398 0.930 . S
C377 C372 1.382 . S
C377 C376 1.398 . S
C377 H399 0.929 . S
C378 O388 1.271 . S
C378 O389 1.251 . S
C379 O390 1.252 . S
C379 O391 1.272 . S
O380 Sm360 2.543 . S
O380 C362 1.261 . S
O381 Sm360 2.450 . S
O381 C362 1.242 . S
O382 Sm360 2.681 . S
O382 Sm361 2.386 . S
O382 C369 1.271 . S
O383 Sm360 2.464 . S
O383 C369 1.251 . S
O384 Sm360 2.396 . S
O384 C370 1.252 . S
O385 Sm361 2.408 . S
O385 C370 1.272 . S
O386 Sm361 2.543 . S
O386 C371 1.261 . S
O387 Sm361 2.450 . S
O387 C371 1.242 . S
O388 Sm360 2.386 . S
O388 Sm361 2.681 . S
O388 C378 1.271 . S
O389 Sm361 2.464 . S
O389 C378 1.251 . S
O390 Sm361 2.396 . S
O390 C379 1.252 . S
O391 Sm360 2.408 . S
O391 C379 1.272 . S
H392 C364 0.930 . S
H393 C365 0.929 . S
H394 C367 0.930 1_545 S
H395 C368 0.929 1_545 S
H396 C373 0.930 . S
H397 C374 0.929 . S
H398 C376 0.930 . S
H399 C377 0.929 . S
Sm400 C402 2.846 . S
Sm400 O420 2.543 . S
Sm400 O421 2.450 . S
Sm400 O422 2.681 . S
Sm400 O423 2.464 . S
Sm400 O424 2.396 . S
Sm400 O428 2.386 . S
Sm400 O431 2.408 . S
Sm401 C411 2.846 . S
Sm401 O422 2.386 . S
Sm401 O425 2.408 . S
Sm401 O426 2.543 . S
Sm401 O427 2.450 . S
Sm401 O428 2.681 . S
Sm401 O429 2.464 . S
Sm401 O430 2.396 . S
C402 Sm400 2.846 . S
C402 C403 1.506 . S
C402 O420 1.261 . S
C402 O421 1.242 . S
C403 C402 1.506 . S
C403 C404 1.358 . S
C403 C408 1.382 . S
C404 C403 1.358 . S
C404 C405 1.385 . S
C404 H432 0.930 . S
C405 C404 1.385 . S
C405 C406 1.395 . S
C405 H433 0.929 . S
C406 C405 1.395 . S
C406 C407 1.335 . S
C407 C406 1.335 . S
C407 C408 1.398 . S
C407 H434 0.930 1_455 S
C408 C403 1.382 . S
C408 C407 1.398 . S
C408 H435 0.929 1_455 S
C409 O422 1.271 . S
C409 O423 1.251 . S
C410 O424 1.252 . S
C410 O425 1.272 . S
C411 Sm401 2.846 . S
C411 C412 1.506 . S
C411 O426 1.261 . S
C411 O427 1.242 . S
C412 C411 1.506 . S
C412 C413 1.358 . S
C412 C417 1.382 . S
C413 C412 1.358 . S
C413 C414 1.385 . S
C413 H436 0.930 . S
C414 C413 1.385 . S
C414 C415 1.395 . S
C414 H437 0.929 . S
C415 C414 1.395 . S
C415 C416 1.335 . S
C416 C415 1.335 . S
C416 C417 1.398 . S
C416 H438 0.930 . S
C417 C412 1.382 . S
C417 C416 1.398 . S
C417 H439 0.929 . S
C418 O428 1.271 . S
C418 O429 1.251 . S
C419 O430 1.252 . S
C419 O431 1.272 . S
O420 Sm400 2.543 . S
O420 C402 1.261 . S
O421 Sm400 2.450 . S
O421 C402 1.242 . S
O422 Sm400 2.681 . S
O422 Sm401 2.386 . S
O422 C409 1.271 . S
O423 Sm400 2.464 . S
O423 C409 1.251 . S
O424 Sm400 2.396 . S
O424 C410 1.252 . S
O425 Sm401 2.408 . S
O425 C410 1.272 . S
O426 Sm401 2.543 . S
O426 C411 1.261 . S
O427 Sm401 2.450 . S
O427 C411 1.242 . S
O428 Sm400 2.386 . S
O428 Sm401 2.681 . S
O428 C418 1.271 . S
O429 Sm401 2.464 . S
O429 C418 1.251 . S
O430 Sm401 2.396 . S
O430 C419 1.252 . S
O431 Sm400 2.408 . S
O431 C419 1.272 . S
H432 C404 0.930 . S
H433 C405 0.929 . S
H434 C407 0.930 1_655 S
H435 C408 0.929 1_655 S
H436 C413 0.930 . S
H437 C414 0.929 . S
H438 C416 0.930 . S
H439 C417 0.929 . S
Sm440 C442 2.846 . S
Sm440 O460 2.543 . S
Sm440 O461 2.450 . S
Sm440 O462 2.681 . S
Sm440 O463 2.464 . S
Sm440 O464 2.396 . S
Sm440 O468 2.386 . S
Sm440 O471 2.408 . S
Sm441 C451 2.846 . S
Sm441 O462 2.386 . S
Sm441 O465 2.408 . S
Sm441 O466 2.543 . S
Sm441 O467 2.450 . S
Sm441 O468 2.681 . S
Sm441 O469 2.464 . S
Sm441 O470 2.396 . S
C442 Sm440 2.846 . S
C442 C443 1.506 . S
C442 O460 1.261 . S
C442 O461 1.242 . S
C443 C442 1.506 . S
C443 C444 1.358 . S
C443 C448 1.382 . S
C444 C443 1.358 . S
C444 C445 1.385 . S
C444 H472 0.930 . S
C445 C444 1.385 . S
C445 C446 1.395 . S
C445 H473 0.929 . S
C446 C445 1.395 . S
C446 C447 1.335 . S
C447 C446 1.335 . S
C447 C448 1.398 . S
C447 H474 0.930 . S
C448 C443 1.382 . S
C448 C447 1.398 . S
C448 H475 0.929 . S
C449 O462 1.271 . S
C449 O463 1.251 . S
C450 O464 1.252 . S
C450 O465 1.272 . S
C451 Sm441 2.846 . S
C451 C452 1.506 . S
C451 O466 1.261 . S
C451 O467 1.242 . S
C452 C451 1.506 . S
C452 C453 1.358 . S
C452 C457 1.382 . S
C453 C452 1.358 . S
C453 C454 1.385 . S
C453 H476 0.930 . S
C454 C453 1.385 . S
C454 C455 1.395 . S
C454 H477 0.929 . S
C455 C454 1.395 . S
C455 C456 1.335 . S
C456 C455 1.335 . S
C456 C457 1.398 . S
C456 H478 0.930 . S
C457 C452 1.382 . S
C457 C456 1.398 . S
C457 H479 0.929 . S
C458 O468 1.271 . S
C458 O469 1.251 . S
C459 O470 1.252 . S
C459 O471 1.272 . S
O460 Sm440 2.543 . S
O460 C442 1.261 . S
O461 Sm440 2.450 . S
O461 C442 1.242 . S
O462 Sm440 2.681 . S
O462 Sm441 2.386 . S
O462 C449 1.271 . S
O463 Sm440 2.464 . S
O463 C449 1.251 . S
O464 Sm440 2.396 . S
O464 C450 1.252 . S
O465 Sm441 2.408 . S
O465 C450 1.272 . S
O466 Sm441 2.543 . S
O466 C451 1.261 . S
O467 Sm441 2.450 . S
O467 C451 1.242 . S
O468 Sm440 2.386 . S
O468 Sm441 2.681 . S
O468 C458 1.271 . S
O469 Sm441 2.464 . S
O469 C458 1.251 . S
O470 Sm441 2.396 . S
O470 C459 1.252 . S
O471 Sm440 2.408 . S
O471 C459 1.272 . S
H472 C444 0.930 . S
H473 C445 0.929 . S
H474 C447 0.930 . S
H475 C448 0.929 . S
H476 C453 0.930 . S
H477 C454 0.929 . S
H478 C456 0.930 . S
H479 C457 0.929 . S
Sm480 C482 2.846 . S
Sm480 O500 2.543 . S
Sm480 O501 2.450 . S
Sm480 O502 2.681 . S
Sm480 O503 2.464 . S
Sm480 O504 2.396 . S
Sm480 O508 2.386 . S
Sm480 O511 2.408 . S
Sm481 C491 2.846 . S
Sm481 O502 2.386 . S
Sm481 O505 2.408 . S
Sm481 O506 2.543 . S
Sm481 O507 2.450 . S
Sm481 O508 2.681 . S
Sm481 O509 2.464 . S
Sm481 O510 2.396 . S
C482 Sm480 2.846 . S
C482 C483 1.506 . S
C482 O500 1.261 . S
C482 O501 1.242 . S
C483 C482 1.506 . S
C483 C484 1.358 . S
C483 C488 1.382 . S
C484 C483 1.358 . S
C484 C485 1.385 . S
C484 H512 0.930 . S
C485 C484 1.385 . S
C485 C486 1.395 . S
C485 H513 0.929 . S
C486 C485 1.395 . S
C486 C487 1.335 . S
C487 C486 1.335 . S
C487 C488 1.398 . S
C487 H514 0.930 . S
C488 C483 1.382 . S
C488 C487 1.398 . S
C488 H515 0.929 . S
C489 O502 1.271 . S
C489 O503 1.251 . S
C490 O504 1.252 . S
C490 O505 1.272 . S
C491 Sm481 2.846 . S
C491 C492 1.506 . S
C491 O506 1.261 . S
C491 O507 1.242 . S
C492 C491 1.506 . S
C492 C493 1.358 . S
C492 C497 1.382 . S
C493 C492 1.358 . S
C493 C494 1.385 . S
C493 H516 0.930 . S
C494 C493 1.385 . S
C494 C495 1.395 . S
C494 H517 0.929 . S
C495 C494 1.395 . S
C495 C496 1.335 . S
C496 C495 1.335 . S
C496 C497 1.398 . S
C496 H518 0.930 . S
C497 C492 1.382 . S
C497 C496 1.398 . S
C497 H519 0.929 . S
C498 O508 1.271 . S
C498 O509 1.251 . S
C499 O510 1.252 . S
C499 O511 1.272 . S
O500 Sm480 2.543 . S
O500 C482 1.261 . S
O501 Sm480 2.450 . S
O501 C482 1.242 . S
O502 Sm480 2.681 . S
O502 Sm481 2.386 . S
O502 C489 1.271 . S
O503 Sm480 2.464 . S
O503 C489 1.251 . S
O504 Sm480 2.396 . S
O504 C490 1.252 . S
O505 Sm481 2.408 . S
O505 C490 1.272 . S
O506 Sm481 2.543 . S
O506 C491 1.261 . S
O507 Sm481 2.450 . S
O507 C491 1.242 . S
O508 Sm480 2.386 . S
O508 Sm481 2.681 . S
O508 C498 1.271 . S
O509 Sm481 2.464 . S
O509 C498 1.251 . S
O510 Sm481 2.396 . S
O510 C499 1.252 . S
O511 Sm480 2.408 . S
O511 C499 1.272 . S
H512 C484 0.930 . S
H513 C485 0.929 . S
H514 C487 0.930 . S
H515 C488 0.929 . S
H516 C493 0.930 . S
H517 C494 0.929 . S
H518 C496 0.930 . S
H519 C497 0.929 . S
Sm520 C522 2.846 . S
Sm520 O540 2.543 . S
Sm520 O541 2.450 . S
Sm520 O542 2.681 . S
Sm520 O543 2.464 . S
Sm520 O544 2.396 . S
Sm520 O548 2.386 . S
Sm520 O551 2.408 . S
Sm521 C531 2.846 . S
Sm521 O542 2.386 . S
Sm521 O545 2.408 . S
Sm521 O546 2.543 . S
Sm521 O547 2.450 . S
Sm521 O548 2.681 . S
Sm521 O549 2.464 . S
Sm521 O550 2.396 . S
C522 Sm520 2.846 . S
C522 C523 1.506 . S
C522 O540 1.261 . S
C522 O541 1.242 . S
C523 C522 1.506 . S
C523 C524 1.358 . S
C523 C528 1.382 . S
C524 C523 1.358 . S
C524 C525 1.385 . S
C524 H552 0.930 . S
C525 C524 1.385 . S
C525 C526 1.395 . S
C525 H553 0.929 . S
C526 C525 1.395 . S
C526 C527 1.335 . S
C527 C526 1.335 . S
C527 C528 1.398 . S
C527 H554 0.930 . S
C528 C523 1.382 . S
C528 C527 1.398 . S
C528 H555 0.929 . S
C529 O542 1.271 . S
C529 O543 1.251 . S
C530 O544 1.252 . S
C530 O545 1.272 . S
C531 Sm521 2.846 . S
C531 C532 1.506 . S
C531 O546 1.261 . S
C531 O547 1.242 . S
C532 C531 1.506 . S
C532 C533 1.358 . S
C532 C537 1.382 . S
C533 C532 1.358 . S
C533 C534 1.385 . S
C533 H556 0.930 . S
C534 C533 1.385 . S
C534 C535 1.395 . S
C534 H557 0.929 . S
C535 C534 1.395 . S
C535 C536 1.335 . S
C536 C535 1.335 . S
C536 C537 1.398 . S
C536 H558 0.930 . S
C537 C532 1.382 . S
C537 C536 1.398 . S
C537 H559 0.929 . S
C538 O548 1.271 . S
C538 O549 1.251 . S
C539 O550 1.252 . S
C539 O551 1.272 . S
O540 Sm520 2.543 . S
O540 C522 1.261 . S
O541 Sm520 2.450 . S
O541 C522 1.242 . S
O542 Sm520 2.681 . S
O542 Sm521 2.386 . S
O542 C529 1.271 . S
O543 Sm520 2.464 . S
O543 C529 1.251 . S
O544 Sm520 2.396 . S
O544 C530 1.252 . S
O545 Sm521 2.408 . S
O545 C530 1.272 . S
O546 Sm521 2.543 . S
O546 C531 1.261 . S
O547 Sm521 2.450 . S
O547 C531 1.242 . S
O548 Sm520 2.386 . S
O548 Sm521 2.681 . S
O548 C538 1.271 . S
O549 Sm521 2.464 . S
O549 C538 1.251 . S
O550 Sm521 2.396 . S
O550 C539 1.252 . S
O551 Sm520 2.408 . S
O551 C539 1.272 . S
H552 C524 0.930 . S
H553 C525 0.929 . S
H554 C527 0.930 . S
H555 C528 0.929 . S
H556 C533 0.930 . S
H557 C534 0.929 . S
H558 C536 0.930 . S
H559 C537 0.929 . S
Sm560 C562 2.846 . S
Sm560 O580 2.543 . S
Sm560 O581 2.450 . S
Sm560 O582 2.681 . S
Sm560 O583 2.464 . S
Sm560 O584 2.396 . S
Sm560 O588 2.386 . S
Sm560 O591 2.408 . S
Sm561 C571 2.846 . S
Sm561 O582 2.386 . S
Sm561 O585 2.408 . S
Sm561 O586 2.543 . S
Sm561 O587 2.450 . S
Sm561 O588 2.681 . S
Sm561 O589 2.464 . S
Sm561 O590 2.396 . S
C562 Sm560 2.846 . S
C562 C563 1.506 . S
C562 O580 1.261 . S
C562 O581 1.242 . S
C563 C562 1.506 . S
C563 C564 1.358 . S
C563 C568 1.382 . S
C564 C563 1.358 . S
C564 C565 1.385 . S
C564 H592 0.930 . S
C565 C564 1.385 . S
C565 C566 1.395 . S
C565 H593 0.929 . S
C566 C565 1.395 . S
C566 C567 1.335 . S
C567 C566 1.335 . S
C567 C568 1.398 . S
C567 H594 0.930 . S
C568 C563 1.382 . S
C568 C567 1.398 . S
C568 H595 0.929 . S
C569 O582 1.271 . S
C569 O583 1.251 . S
C570 O584 1.252 . S
C570 O585 1.272 . S
C571 Sm561 2.846 . S
C571 C572 1.506 . S
C571 O586 1.261 . S
C571 O587 1.242 . S
C572 C571 1.506 . S
C572 C573 1.358 . S
C572 C577 1.382 . S
C573 C572 1.358 . S
C573 C574 1.385 . S
C573 H596 0.930 . S
C574 C573 1.385 . S
C574 C575 1.395 . S
C574 H597 0.929 . S
C575 C574 1.395 . S
C575 C576 1.335 . S
C576 C575 1.335 . S
C576 C577 1.398 . S
C576 H598 0.930 . S
C577 C572 1.382 . S
C577 C576 1.398 . S
C577 H599 0.929 . S
C578 O588 1.271 . S
C578 O589 1.251 . S
C579 O590 1.252 . S
C579 O591 1.272 . S
O580 Sm560 2.543 . S
O580 C562 1.261 . S
O581 Sm560 2.450 . S
O581 C562 1.242 . S
O582 Sm560 2.681 . S
O582 Sm561 2.386 . S
O582 C569 1.271 . S
O583 Sm560 2.464 . S
O583 C569 1.251 . S
O584 Sm560 2.396 . S
O584 C570 1.252 . S
O585 Sm561 2.408 . S
O585 C570 1.272 . S
O586 Sm561 2.543 . S
O586 C571 1.261 . S
O587 Sm561 2.450 . S
O587 C571 1.242 . S
O588 Sm560 2.386 . S
O588 Sm561 2.681 . S
O588 C578 1.271 . S
O589 Sm561 2.464 . S
O589 C578 1.251 . S
O590 Sm561 2.396 . S
O590 C579 1.252 . S
O591 Sm560 2.408 . S
O591 C579 1.272 . S
H592 C564 0.930 . S
H593 C565 0.929 . S
H594 C567 0.930 . S
H595 C568 0.929 . S
H596 C573 0.930 . S
H597 C574 0.929 . S
H598 C576 0.930 . S
H599 C577 0.929 . S
Sm600 C602 2.846 . S
Sm600 O620 2.543 . S
Sm600 O621 2.450 . S
Sm600 O622 2.681 . S
Sm600 O623 2.464 . S
Sm600 O624 2.396 . S
Sm600 O628 2.386 . S
Sm600 O631 2.408 . S
Sm601 C611 2.846 1_556 S
Sm601 O622 2.386 . S
Sm601 O625 2.408 . S
Sm601 O626 2.543 1_556 S
Sm601 O627 2.450 1_556 S
Sm601 O628 2.681 . S
Sm601 O629 2.464 . S
Sm601 O630 2.396 . S
C602 Sm600 2.846 . S
C602 C603 1.506 . S
C602 O620 1.261 . S
C602 O621 1.242 . S
C603 C602 1.506 . S
C603 C604 1.358 . S
C603 C608 1.382 . S
C604 C603 1.358 . S
C604 C605 1.385 . S
C604 H632 0.930 . S
C605 C604 1.385 . S
C605 C606 1.395 . S
C605 H633 0.929 . S
C606 C605 1.395 . S
C606 C607 1.335 . S
C607 C606 1.335 . S
C607 C608 1.398 . S
C607 H634 0.930 . S
C608 C603 1.382 . S
C608 C607 1.398 . S
C608 H635 0.929 . S
C609 O622 1.271 . S
C609 O623 1.251 . S
C610 O624 1.252 . S
C610 O625 1.272 . S
C611 Sm601 2.846 1_554 S
C611 C612 1.506 . S
C611 O626 1.261 . S
C611 O627 1.242 . S
C612 C611 1.506 . S
C612 C613 1.358 . S
C612 C617 1.382 . S
C613 C612 1.358 . S
C613 C614 1.385 . S
C613 H636 0.930 . S
C614 C613 1.385 . S
C614 C615 1.395 . S
C614 H637 0.929 . S
C615 C614 1.395 . S
C615 C616 1.335 . S
C616 C615 1.335 . S
C616 C617 1.398 . S
C616 H638 0.930 . S
C617 C612 1.382 . S
C617 C616 1.398 . S
C617 H639 0.929 . S
C618 O628 1.271 . S
C618 O629 1.251 . S
C619 O630 1.252 . S
C619 O631 1.272 . S
O620 Sm600 2.543 . S
O620 C602 1.261 . S
O621 Sm600 2.450 . S
O621 C602 1.242 . S
O622 Sm600 2.681 . S
O622 Sm601 2.386 . S
O622 C609 1.271 . S
O623 Sm600 2.464 . S
O623 C609 1.251 . S
O624 Sm600 2.396 . S
O624 C610 1.252 . S
O625 Sm601 2.408 . S
O625 C610 1.272 . S
O626 Sm601 2.543 1_554 S
O626 C611 1.261 . S
O627 Sm601 2.450 1_554 S
O627 C611 1.242 . S
O628 Sm600 2.386 . S
O628 Sm601 2.681 . S
O628 C618 1.271 . S
O629 Sm601 2.464 . S
O629 C618 1.251 . S
O630 Sm601 2.396 . S
O630 C619 1.252 . S
O631 Sm600 2.408 . S
O631 C619 1.272 . S
H632 C604 0.930 . S
H633 C605 0.929 . S
H634 C607 0.930 . S
H635 C608 0.929 . S
H636 C613 0.930 . S
H637 C614 0.929 . S
H638 C616 0.930 . S
H639 C617 0.929 . S
Sm640 C642 2.846 . S
Sm640 O660 2.543 . S
Sm640 O661 2.450 . S
Sm640 O662 2.681 . S
Sm640 O663 2.464 . S
Sm640 O664 2.396 . S
Sm640 O668 2.386 . S
Sm640 O671 2.408 . S
Sm641 C651 2.846 1_556 S
Sm641 O662 2.386 . S
Sm641 O665 2.408 . S
Sm641 O666 2.543 1_556 S
Sm641 O667 2.450 1_556 S
Sm641 O668 2.681 . S
Sm641 O669 2.464 . S
Sm641 O670 2.396 . S
C642 Sm640 2.846 . S
C642 C643 1.506 . S
C642 O660 1.261 . S
C642 O661 1.242 . S
C643 C642 1.506 . S
C643 C644 1.358 . S
C643 C648 1.382 . S
C644 C643 1.358 . S
C644 C645 1.385 . S
C644 H672 0.930 . S
C645 C644 1.385 . S
C645 C646 1.395 . S
C645 H673 0.929 . S
C646 C645 1.395 . S
C646 C647 1.335 . S
C647 C646 1.335 . S
C647 C648 1.398 . S
C647 H674 0.930 . S
C648 C643 1.382 . S
C648 C647 1.398 . S
C648 H675 0.929 . S
C649 O662 1.271 . S
C649 O663 1.251 . S
C650 O664 1.252 . S
C650 O665 1.272 . S
C651 Sm641 2.846 1_554 S
C651 C652 1.506 . S
C651 O666 1.261 . S
C651 O667 1.242 . S
C652 C651 1.506 . S
C652 C653 1.358 . S
C652 C657 1.382 . S
C653 C652 1.358 . S
C653 C654 1.385 . S
C653 H676 0.930 . S
C654 C653 1.385 . S
C654 C655 1.395 . S
C654 H677 0.929 . S
C655 C654 1.395 . S
C655 C656 1.335 . S
C656 C655 1.335 . S
C656 C657 1.398 . S
C656 H678 0.930 . S
C657 C652 1.382 . S
C657 C656 1.398 . S
C657 H679 0.929 . S
C658 O668 1.271 . S
C658 O669 1.251 . S
C659 O670 1.252 . S
C659 O671 1.272 . S
O660 Sm640 2.543 . S
O660 C642 1.261 . S
O661 Sm640 2.450 . S
O661 C642 1.242 . S
O662 Sm640 2.681 . S
O662 Sm641 2.386 . S
O662 C649 1.271 . S
O663 Sm640 2.464 . S
O663 C649 1.251 . S
O664 Sm640 2.396 . S
O664 C650 1.252 . S
O665 Sm641 2.408 . S
O665 C650 1.272 . S
O666 Sm641 2.543 1_554 S
O666 C651 1.261 . S
O667 Sm641 2.450 1_554 S
O667 C651 1.242 . S
O668 Sm640 2.386 . S
O668 Sm641 2.681 . S
O668 C658 1.271 . S
O669 Sm641 2.464 . S
O669 C658 1.251 . S
O670 Sm641 2.396 . S
O670 C659 1.252 . S
O671 Sm640 2.408 . S
O671 C659 1.272 . S
H672 C644 0.930 . S
H673 C645 0.929 . S
H674 C647 0.930 . S
H675 C648 0.929 . S
H676 C653 0.930 . S
H677 C654 0.929 . S
H678 C656 0.930 . S
H679 C657 0.929 . S
Sm680 C682 2.846 . S
Sm680 O700 2.543 . S
Sm680 O701 2.450 . S
Sm680 O702 2.681 . S
Sm680 O703 2.464 . S
Sm680 O704 2.396 . S
Sm680 O708 2.386 . S
Sm680 O711 2.408 . S
Sm681 C691 2.846 1_556 S
Sm681 O702 2.386 . S
Sm681 O705 2.408 . S
Sm681 O706 2.543 1_556 S
Sm681 O707 2.450 1_556 S
Sm681 O708 2.681 . S
Sm681 O709 2.464 . S
Sm681 O710 2.396 . S
C682 Sm680 2.846 . S
C682 C683 1.506 . S
C682 O700 1.261 . S
C682 O701 1.242 . S
C683 C682 1.506 . S
C683 C684 1.358 . S
C683 C688 1.382 . S
C684 C683 1.358 . S
C684 C685 1.385 . S
C684 H712 0.930 . S
C685 C684 1.385 . S
C685 C686 1.395 . S
C685 H713 0.929 . S
C686 C685 1.395 . S
C686 C687 1.335 . S
C687 C686 1.335 . S
C687 C688 1.398 . S
C687 H714 0.930 . S
C688 C683 1.382 . S
C688 C687 1.398 . S
C688 H715 0.929 . S
C689 O702 1.271 . S
C689 O703 1.251 . S
C690 O704 1.252 . S
C690 O705 1.272 . S
C691 Sm681 2.846 1_554 S
C691 C692 1.506 . S
C691 O706 1.261 . S
C691 O707 1.242 . S
C692 C691 1.506 . S
C692 C693 1.358 . S
C692 C697 1.382 . S
C693 C692 1.358 . S
C693 C694 1.385 . S
C693 H716 0.930 . S
C694 C693 1.385 . S
C694 C695 1.395 . S
C694 H717 0.929 . S
C695 C694 1.395 . S
C695 C696 1.335 . S
C696 C695 1.335 . S
C696 C697 1.398 . S
C696 H718 0.930 . S
C697 C692 1.382 . S
C697 C696 1.398 . S
C697 H719 0.929 . S
C698 O708 1.271 . S
C698 O709 1.251 . S
C699 O710 1.252 . S
C699 O711 1.272 . S
O700 Sm680 2.543 . S
O700 C682 1.261 . S
O701 Sm680 2.450 . S
O701 C682 1.242 . S
O702 Sm680 2.681 . S
O702 Sm681 2.386 . S
O702 C689 1.271 . S
O703 Sm680 2.464 . S
O703 C689 1.251 . S
O704 Sm680 2.396 . S
O704 C690 1.252 . S
O705 Sm681 2.408 . S
O705 C690 1.272 . S
O706 Sm681 2.543 1_554 S
O706 C691 1.261 . S
O707 Sm681 2.450 1_554 S
O707 C691 1.242 . S
O708 Sm680 2.386 . S
O708 Sm681 2.681 . S
O708 C698 1.271 . S
O709 Sm681 2.464 . S
O709 C698 1.251 . S
O710 Sm681 2.396 . S
O710 C699 1.252 . S
O711 Sm680 2.408 . S
O711 C699 1.272 . S
H712 C684 0.930 . S
H713 C685 0.929 . S
H714 C687 0.930 . S
H715 C688 0.929 . S
H716 C693 0.930 . S
H717 C694 0.929 . S
H718 C696 0.930 . S
H719 C697 0.929 . S
Sm720 C722 2.846 . S
Sm720 O740 2.543 . S
Sm720 O741 2.450 . S
Sm720 O742 2.681 . S
Sm720 O743 2.464 . S
Sm720 O744 2.396 . S
Sm720 O748 2.386 . S
Sm720 O751 2.408 . S
Sm721 C731 2.846 . S
Sm721 O742 2.386 . S
Sm721 O745 2.408 . S
Sm721 O746 2.543 . S
Sm721 O747 2.450 . S
Sm721 O748 2.681 . S
Sm721 O749 2.464 . S
Sm721 O750 2.396 . S
C722 Sm720 2.846 . S
C722 C723 1.506 . S
C722 O740 1.261 . S
C722 O741 1.242 . S
C723 C722 1.506 . S
C723 C724 1.358 . S
C723 C728 1.382 . S
C724 C723 1.358 . S
C724 C725 1.385 . S
C724 H752 0.930 . S
C725 C724 1.385 . S
C725 C726 1.395 . S
C725 H753 0.929 . S
C726 C725 1.395 . S
C726 C727 1.335 . S
C727 C726 1.335 . S
C727 C728 1.398 . S
C727 H754 0.930 . S
C728 C723 1.382 . S
C728 C727 1.398 . S
C728 H755 0.929 . S
C729 O742 1.271 . S
C729 O743 1.251 . S
C730 O744 1.252 . S
C730 O745 1.272 . S
C731 Sm721 2.846 . S
C731 C732 1.506 . S
C731 O746 1.261 . S
C731 O747 1.242 . S
C732 C731 1.506 . S
C732 C733 1.358 . S
C732 C737 1.382 . S
C733 C732 1.358 . S
C733 C734 1.385 . S
C733 H756 0.930 . S
C734 C733 1.385 . S
C734 C735 1.395 . S
C734 H757 0.929 . S
C735 C734 1.395 . S
C735 C736 1.335 . S
C736 C735 1.335 . S
C736 C737 1.398 . S
C736 H758 0.930 . S
C737 C732 1.382 . S
C737 C736 1.398 . S
C737 H759 0.929 . S
C738 O748 1.271 . S
C738 O749 1.251 . S
C739 O750 1.252 . S
C739 O751 1.272 . S
O740 Sm720 2.543 . S
O740 C722 1.261 . S
O741 Sm720 2.450 . S
O741 C722 1.242 . S
O742 Sm720 2.681 . S
O742 Sm721 2.386 . S
O742 C729 1.271 . S
O743 Sm720 2.464 . S
O743 C729 1.251 . S
O744 Sm720 2.396 . S
O744 C730 1.252 . S
O745 Sm721 2.408 . S
O745 C730 1.272 . S
O746 Sm721 2.543 . S
O746 C731 1.261 . S
O747 Sm721 2.450 . S
O747 C731 1.242 . S
O748 Sm720 2.386 . S
O748 Sm721 2.681 . S
O748 C738 1.271 . S
O749 Sm721 2.464 . S
O749 C738 1.251 . S
O750 Sm721 2.396 . S
O750 C739 1.252 . S
O751 Sm720 2.408 . S
O751 C739 1.272 . S
H752 C724 0.930 . S
H753 C725 0.929 . S
H754 C727 0.930 . S
H755 C728 0.929 . S
H756 C733 0.930 . S
H757 C734 0.929 . S
H758 C736 0.930 . S
H759 C737 0.929 . S
Sm760 C762 2.846 . S
Sm760 O780 2.543 . S
Sm760 O781 2.450 . S
Sm760 O782 2.681 . S
Sm760 O783 2.464 . S
Sm760 O784 2.396 . S
Sm760 O788 2.386 . S
Sm760 O791 2.408 . S
Sm761 C771 2.846 . S
Sm761 O782 2.386 . S
Sm761 O785 2.408 . S
Sm761 O786 2.543 . S
Sm761 O787 2.450 . S
Sm761 O788 2.681 . S
Sm761 O789 2.464 . S
Sm761 O790 2.396 . S
C762 Sm760 2.846 . S
C762 C763 1.506 . S
C762 O780 1.261 . S
C762 O781 1.242 . S
C763 C762 1.506 . S
C763 C764 1.358 . S
C763 C768 1.382 . S
C764 C763 1.358 . S
C764 C765 1.385 . S
C764 H792 0.930 . S
C765 C764 1.385 . S
C765 C766 1.395 . S
C765 H793 0.929 . S
C766 C765 1.395 . S
C766 C767 1.335 . S
C767 C766 1.335 . S
C767 C768 1.398 . S
C767 H794 0.930 . S
C768 C763 1.382 . S
C768 C767 1.398 . S
C768 H795 0.929 . S
C769 O782 1.271 . S
C769 O783 1.251 . S
C770 O784 1.252 . S
C770 O785 1.272 . S
C771 Sm761 2.846 . S
C771 C772 1.506 . S
C771 O786 1.261 . S
C771 O787 1.242 . S
C772 C771 1.506 . S
C772 C773 1.358 . S
C772 C777 1.382 . S
C773 C772 1.358 . S
C773 C774 1.385 . S
C773 H796 0.930 . S
C774 C773 1.385 . S
C774 C775 1.395 . S
C774 H797 0.929 . S
C775 C774 1.395 . S
C775 C776 1.335 . S
C776 C775 1.335 . S
C776 C777 1.398 . S
C776 H798 0.930 . S
C777 C772 1.382 . S
C777 C776 1.398 . S
C777 H799 0.929 . S
C778 O788 1.271 . S
C778 O789 1.251 . S
C779 O790 1.252 . S
C779 O791 1.272 . S
O780 Sm760 2.543 . S
O780 C762 1.261 . S
O781 Sm760 2.450 . S
O781 C762 1.242 . S
O782 Sm760 2.681 . S
O782 Sm761 2.386 . S
O782 C769 1.271 . S
O783 Sm760 2.464 . S
O783 C769 1.251 . S
O784 Sm760 2.396 . S
O784 C770 1.252 . S
O785 Sm761 2.408 . S
O785 C770 1.272 . S
O786 Sm761 2.543 . S
O786 C771 1.261 . S
O787 Sm761 2.450 . S
O787 C771 1.242 . S
O788 Sm760 2.386 . S
O788 Sm761 2.681 . S
O788 C778 1.271 . S
O789 Sm761 2.464 . S
O789 C778 1.251 . S
O790 Sm761 2.396 . S
O790 C779 1.252 . S
O791 Sm760 2.408 . S
O791 C779 1.272 . S
H792 C764 0.930 . S
H793 C765 0.929 . S
H794 C767 0.930 . S
H795 C768 0.929 . S
H796 C773 0.930 . S
H797 C774 0.929 . S
H798 C776 0.930 . S
H799 C777 0.929 . S
Sm800 C802 2.846 . S
Sm800 O820 2.543 . S
Sm800 O821 2.450 . S
Sm800 O822 2.681 . S
Sm800 O823 2.464 . S
Sm800 O824 2.396 . S
Sm800 O828 2.386 . S
Sm800 O831 2.408 . S
Sm801 C811 2.846 . S
Sm801 O822 2.386 . S
Sm801 O825 2.408 . S
Sm801 O826 2.543 . S
Sm801 O827 2.450 . S
Sm801 O828 2.681 . S
Sm801 O829 2.464 . S
Sm801 O830 2.396 . S
C802 Sm800 2.846 . S
C802 C803 1.506 . S
C802 O820 1.261 . S
C802 O821 1.242 . S
C803 C802 1.506 . S
C803 C804 1.358 . S
C803 C808 1.382 . S
C804 C803 1.358 . S
C804 C805 1.385 . S
C804 H832 0.930 . S
C805 C804 1.385 . S
C805 C806 1.395 . S
C805 H833 0.929 . S
C806 C805 1.395 . S
C806 C807 1.335 . S
C807 C806 1.335 . S
C807 C808 1.398 . S
C807 H834 0.930 . S
C808 C803 1.382 . S
C808 C807 1.398 . S
C808 H835 0.929 . S
C809 O822 1.271 . S
C809 O823 1.251 . S
C810 O824 1.252 . S
C810 O825 1.272 . S
C811 Sm801 2.846 . S
C811 C812 1.506 . S
C811 O826 1.261 . S
C811 O827 1.242 . S
C812 C811 1.506 . S
C812 C813 1.358 . S
C812 C817 1.382 . S
C813 C812 1.358 . S
C813 C814 1.385 . S
C813 H836 0.930 . S
C814 C813 1.385 . S
C814 C815 1.395 . S
C814 H837 0.929 . S
C815 C814 1.395 . S
C815 C816 1.335 . S
C816 C815 1.335 . S
C816 C817 1.398 . S
C816 H838 0.930 . S
C817 C812 1.382 . S
C817 C816 1.398 . S
C817 H839 0.929 . S
C818 O828 1.271 . S
C818 O829 1.251 . S
C819 O830 1.252 . S
C819 O831 1.272 . S
O820 Sm800 2.543 . S
O820 C802 1.261 . S
O821 Sm800 2.450 . S
O821 C802 1.242 . S
O822 Sm800 2.681 . S
O822 Sm801 2.386 . S
O822 C809 1.271 . S
O823 Sm800 2.464 . S
O823 C809 1.251 . S
O824 Sm800 2.396 . S
O824 C810 1.252 . S
O825 Sm801 2.408 . S
O825 C810 1.272 . S
O826 Sm801 2.543 . S
O826 C811 1.261 . S
O827 Sm801 2.450 . S
O827 C811 1.242 . S
O828 Sm800 2.386 . S
O828 Sm801 2.681 . S
O828 C818 1.271 . S
O829 Sm801 2.464 . S
O829 C818 1.251 . S
O830 Sm801 2.396 . S
O830 C819 1.252 . S
O831 Sm800 2.408 . S
O831 C819 1.272 . S
H832 C804 0.930 . S
H833 C805 0.929 . S
H834 C807 0.930 . S
H835 C808 0.929 . S
H836 C813 0.930 . S
H837 C814 0.929 . S
H838 C816 0.930 . S
H839 C817 0.929 . S
Sm840 C842 2.846 . S
Sm840 O860 2.543 . S
Sm840 O861 2.450 . S
Sm840 O862 2.681 1_556 S
Sm840 O863 2.464 . S
Sm840 O864 2.396 . S
Sm840 O868 2.386 . S
Sm840 O871 2.408 1_556 S
Sm841 C851 2.846 . S
Sm841 O862 2.386 . S
Sm841 O865 2.408 1_554 S
Sm841 O866 2.543 . S
Sm841 O867 2.450 . S
Sm841 O868 2.681 1_554 S
Sm841 O869 2.464 . S
Sm841 O870 2.396 . S
C842 Sm840 2.846 . S
C842 C843 1.506 . S
C842 O860 1.261 . S
C842 O861 1.242 . S
C843 C842 1.506 . S
C843 C844 1.358 . S
C843 C848 1.382 . S
C844 C843 1.358 . S
C844 C845 1.385 . S
C844 H872 0.930 . S
C845 C844 1.385 . S
C845 C846 1.395 . S
C845 H873 0.929 . S
C846 C845 1.395 . S
C846 C847 1.335 . S
C847 C846 1.335 . S
C847 C848 1.398 . S
C847 H874 0.930 . S
C848 C843 1.382 . S
C848 C847 1.398 . S
C848 H875 0.929 . S
C849 O862 1.274 . S
C849 O863 1.245 1_554 S
C850 O864 1.252 . S
C850 O865 1.272 . S
C851 Sm841 2.846 . S
C851 C852 1.506 . S
C851 O866 1.261 . S
C851 O867 1.242 . S
C852 C851 1.506 . S
C852 C853 1.358 . S
C852 C857 1.382 . S
C853 C852 1.358 . S
C853 C854 1.385 . S
C853 H876 0.930 . S
C854 C853 1.385 . S
C854 C855 1.395 . S
C854 H877 0.929 . S
C855 C854 1.395 . S
C855 C856 1.335 . S
C856 C855 1.335 . S
C856 C857 1.398 . S
C856 H878 0.930 . S
C857 C852 1.382 . S
C857 C856 1.398 . S
C857 H879 0.929 . S
C858 O868 1.271 . S
C858 O869 1.251 1_556 S
C859 O870 1.252 . S
C859 O871 1.272 . S
O860 Sm840 2.543 . S
O860 C842 1.261 . S
O861 Sm840 2.450 . S
O861 C842 1.242 . S
O862 Sm840 2.681 1_554 S
O862 Sm841 2.386 . S
O862 C849 1.274 . S
O863 Sm840 2.464 . S
O863 C849 1.245 1_556 S
O864 Sm840 2.396 . S
O864 C850 1.252 . S
O865 Sm841 2.408 1_556 S
O865 C850 1.272 . S
O866 Sm841 2.543 . S
O866 C851 1.261 . S
O867 Sm841 2.450 . S
O867 C851 1.242 . S
O868 Sm840 2.386 . S
O868 Sm841 2.681 1_556 S
O868 C858 1.271 . S
O869 Sm841 2.464 . S
O869 C858 1.251 1_554 S
O870 Sm841 2.396 . S
O870 C859 1.252 . S
O871 Sm840 2.408 1_554 S
O871 C859 1.272 . S
H872 C844 0.930 . S
H873 C845 0.929 . S
H874 C847 0.930 . S
H875 C848 0.929 . S
H876 C853 0.930 . S
H877 C854 0.929 . S
H878 C856 0.930 . S
H879 C857 0.929 . S
Sm880 C882 2.846 . S
Sm880 O900 2.543 . S
Sm880 O901 2.450 . S
Sm880 O902 2.681 1_556 S
Sm880 O903 2.464 . S
Sm880 O904 2.396 . S
Sm880 O908 2.386 . S
Sm880 O911 2.408 1_556 S
Sm881 C891 2.846 . S
Sm881 O902 2.386 . S
Sm881 O905 2.408 1_554 S
Sm881 O906 2.543 . S
Sm881 O907 2.450 . S
Sm881 O908 2.681 1_554 S
Sm881 O909 2.464 . S
Sm881 O910 2.396 . S
C882 Sm880 2.846 . S
C882 C883 1.506 . S
C882 O900 1.261 . S
C882 O901 1.242 . S
C883 C882 1.506 . S
C883 C884 1.358 . S
C883 C888 1.382 . S
C884 C883 1.358 . S
C884 C885 1.385 . S
C884 H912 0.930 . S
C885 C884 1.385 . S
C885 C886 1.395 . S
C885 H913 0.929 . S
C886 C885 1.395 . S
C886 C887 1.335 . S
C887 C886 1.335 . S
C887 C888 1.398 . S
C887 H914 0.930 . S
C888 C883 1.382 . S
C888 C887 1.398 . S
C888 H915 0.929 . S
C889 O902 1.274 . S
C889 O903 1.245 1_554 S
C890 O904 1.252 . S
C890 O905 1.272 . S
C891 Sm881 2.846 . S
C891 C892 1.506 . S
C891 O906 1.261 . S
C891 O907 1.242 . S
C892 C891 1.506 . S
C892 C893 1.358 . S
C892 C897 1.382 . S
C893 C892 1.358 . S
C893 C894 1.385 . S
C893 H916 0.930 . S
C894 C893 1.385 . S
C894 C895 1.395 . S
C894 H917 0.929 . S
C895 C894 1.395 . S
C895 C896 1.335 . S
C896 C895 1.335 . S
C896 C897 1.398 . S
C896 H918 0.930 . S
C897 C892 1.382 . S
C897 C896 1.398 . S
C897 H919 0.929 . S
C898 O908 1.271 . S
C898 O909 1.251 1_556 S
C899 O910 1.252 . S
C899 O911 1.272 . S
O900 Sm880 2.543 . S
O900 C882 1.261 . S
O901 Sm880 2.450 . S
O901 C882 1.242 . S
O902 Sm880 2.681 1_554 S
O902 Sm881 2.386 . S
O902 C889 1.274 . S
O903 Sm880 2.464 . S
O903 C889 1.245 1_556 S
O904 Sm880 2.396 . S
O904 C890 1.252 . S
O905 Sm881 2.408 1_556 S
O905 C890 1.272 . S
O906 Sm881 2.543 . S
O906 C891 1.261 . S
O907 Sm881 2.450 . S
O907 C891 1.242 . S
O908 Sm880 2.386 . S
O908 Sm881 2.681 1_556 S
O908 C898 1.271 . S
O909 Sm881 2.464 . S
O909 C898 1.251 1_554 S
O910 Sm881 2.396 . S
O910 C899 1.252 . S
O911 Sm880 2.408 1_554 S
O911 C899 1.272 . S
H912 C884 0.930 . S
H913 C885 0.929 . S
H914 C887 0.930 . S
H915 C888 0.929 . S
H916 C893 0.930 . S
H917 C894 0.929 . S
H918 C896 0.930 . S
H919 C897 0.929 . S
Sm920 C922 2.846 . S
Sm920 O940 2.543 . S
Sm920 O941 2.450 . S
Sm920 O942 2.681 1_556 S
Sm920 O943 2.464 . S
Sm920 O944 2.396 . S
Sm920 O948 2.386 . S
Sm920 O951 2.408 1_556 S
Sm921 C931 2.846 . S
Sm921 O942 2.386 . S
Sm921 O945 2.408 1_554 S
Sm921 O946 2.543 . S
Sm921 O947 2.450 . S
Sm921 O948 2.681 1_554 S
Sm921 O949 2.464 . S
Sm921 O950 2.396 . S
C922 Sm920 2.846 . S
C922 C923 1.506 . S
C922 O940 1.261 . S
C922 O941 1.242 . S
C923 C922 1.506 . S
C923 C924 1.358 . S
C923 C928 1.382 . S
C924 C923 1.358 . S
C924 C925 1.385 . S
C924 H952 0.930 . S
C925 C924 1.385 . S
C925 C926 1.395 . S
C925 H953 0.929 . S
C926 C925 1.395 . S
C926 C927 1.335 . S
C927 C926 1.335 . S
C927 C928 1.398 . S
C927 H954 0.930 . S
C928 C923 1.382 . S
C928 C927 1.398 . S
C928 H955 0.929 . S
C929 O942 1.274 . S
C929 O943 1.246 1_554 S
C930 O944 1.252 . S
C930 O945 1.272 . S
C931 Sm921 2.846 . S
C931 C932 1.506 . S
C931 O946 1.261 . S
C931 O947 1.242 . S
C932 C931 1.506 . S
C932 C933 1.358 . S
C932 C937 1.382 . S
C933 C932 1.358 . S
C933 C934 1.385 . S
C933 H956 0.930 . S
C934 C933 1.385 . S
C934 C935 1.395 . S
C934 H957 0.929 . S
C935 C934 1.395 . S
C935 C936 1.335 . S
C936 C935 1.335 . S
C936 C937 1.398 . S
C936 H958 0.930 . S
C937 C932 1.382 . S
C937 C936 1.398 . S
C937 H959 0.929 . S
C938 O948 1.271 . S
C938 O949 1.251 1_556 S
C939 O950 1.252 . S
C939 O951 1.272 . S
O940 Sm920 2.543 . S
O940 C922 1.261 . S
O941 Sm920 2.450 . S
O941 C922 1.242 . S
O942 Sm920 2.681 1_554 S
O942 Sm921 2.386 . S
O942 C929 1.274 . S
O943 Sm920 2.464 . S
O943 C929 1.246 1_556 S
O944 Sm920 2.396 . S
O944 C930 1.252 . S
O945 Sm921 2.408 1_556 S
O945 C930 1.272 . S
O946 Sm921 2.543 . S
O946 C931 1.261 . S
O947 Sm921 2.450 . S
O947 C931 1.242 . S
O948 Sm920 2.386 . S
O948 Sm921 2.681 1_556 S
O948 C938 1.271 . S
O949 Sm921 2.464 . S
O949 C938 1.251 1_554 S
O950 Sm921 2.396 . S
O950 C939 1.252 . S
O951 Sm920 2.408 1_554 S
O951 C939 1.272 . S
H952 C924 0.930 . S
H953 C925 0.929 . S
H954 C927 0.930 . S
H955 C928 0.929 . S
H956 C933 0.930 . S
H957 C934 0.929 . S
H958 C936 0.930 . S
H959 C937 0.929 . S
Sm960 C962 2.846 . S
Sm960 O980 2.543 . S
Sm960 O981 2.450 . S
Sm960 O982 2.681 . S
Sm960 O983 2.464 . S
Sm960 O984 2.396 . S
Sm960 O988 2.386 . S
Sm960 O991 2.408 . S
Sm961 C971 2.846 . S
Sm961 O982 2.386 . S
Sm961 O985 2.408 . S
Sm961 O986 2.543 . S
Sm961 O987 2.450 . S
Sm961 O988 2.681 . S
Sm961 O989 2.464 . S
Sm961 O990 2.396 . S
C962 Sm960 2.846 . S
C962 C963 1.506 . S
C962 O980 1.261 . S
C962 O981 1.242 . S
C963 C962 1.506 . S
C963 C964 1.358 1_556 S
C963 C968 1.382 . S
C964 C963 1.358 1_554 S
C964 C965 1.385 . S
C964 H992 0.930 1_554 S
C965 C964 1.385 . S
C965 C966 1.395 . S
C965 H993 0.929 . S
C966 C965 1.395 . S
C966 C967 1.335 . S
C967 C966 1.335 . S
C967 C968 1.398 1_554 S
C967 H994 0.930 . S
C968 C963 1.382 . S
C968 C967 1.398 1_556 S
C968 H995 0.929 . S
C969 O982 1.271 . S
C969 O983 1.251 . S
C970 O984 1.252 . S
C970 O985 1.272 . S
C971 Sm961 2.846 . S
C971 C972 1.506 . S
C971 O986 1.261 . S
C971 O987 1.242 . S
C972 C971 1.506 . S
C972 C973 1.358 . S
C972 C977 1.382 . S
C973 C972 1.358 . S
C973 C974 1.385 . S
C973 H996 0.930 . S
C974 C973 1.385 . S
C974 C975 1.395 . S
C974 H997 0.929 . S
C975 C974 1.395 . S
C975 C976 1.335 . S
C976 C975 1.335 . S
C976 C977 1.398 . S
C976 H998 0.930 . S
C977 C972 1.382 . S
C977 C976 1.398 . S
C977 H999 0.929 . S
C978 O988 1.271 . S
C978 O989 1.251 . S
C979 O990 1.252 . S
C979 O991 1.272 . S
O980 Sm960 2.543 . S
O980 C962 1.261 . S
O981 Sm960 2.450 . S
O981 C962 1.242 . S
O982 Sm960 2.681 . S
O982 Sm961 2.386 . S
O982 C969 1.271 . S
O983 Sm960 2.464 . S
O983 C969 1.251 . S
O984 Sm960 2.396 . S
O984 C970 1.252 . S
O985 Sm961 2.408 . S
O985 C970 1.272 . S
O986 Sm961 2.543 . S
O986 C971 1.261 . S
O987 Sm961 2.450 . S
O987 C971 1.242 . S
O988 Sm960 2.386 . S
O988 Sm961 2.681 . S
O988 C978 1.271 . S
O989 Sm961 2.464 . S
O989 C978 1.251 . S
O990 Sm961 2.396 . S
O990 C979 1.252 . S
O991 Sm960 2.408 . S
O991 C979 1.272 . S
H992 C964 0.930 1_556 S
H993 C965 0.929 . S
H994 C967 0.930 . S
H995 C968 0.929 . S
H996 C973 0.930 . S
H997 C974 0.929 . S
H998 C976 0.930 . S
H999 C977 0.929 . S
Sm1000 C1002 2.846 . S
Sm1000 O1020 2.543 . S
Sm1000 O1021 2.450 . S
Sm1000 O1022 2.681 . S
Sm1000 O1023 2.464 . S
Sm1000 O1024 2.396 . S
Sm1000 O1028 2.386 . S
Sm1000 O1031 2.408 . S
Sm1001 C1011 2.846 . S
Sm1001 O1022 2.386 . S
Sm1001 O1025 2.408 . S
Sm1001 O1026 2.543 . S
Sm1001 O1027 2.450 . S
Sm1001 O1028 2.681 . S
Sm1001 O1029 2.464 . S
Sm1001 O1030 2.396 . S
C1002 Sm1000 2.846 . S
C1002 C1003 1.506 . S
C1002 O1020 1.261 . S
C1002 O1021 1.242 . S
C1003 C1002 1.506 . S
C1003 C1004 1.358 1_556 S
C1003 C1008 1.382 . S
C1004 C1003 1.358 1_554 S
C1004 C1005 1.385 . S
C1004 H1032 0.930 1_554 S
C1005 C1004 1.385 . S
C1005 C1006 1.395 . S
C1005 H1033 0.929 . S
C1006 C1005 1.395 . S
C1006 C1007 1.335 . S
C1007 C1006 1.335 . S
C1007 C1008 1.398 1_554 S
C1007 H1034 0.930 . S
C1008 C1003 1.382 . S
C1008 C1007 1.398 1_556 S
C1008 H1035 0.929 . S
C1009 O1022 1.271 . S
C1009 O1023 1.251 . S
C1010 O1024 1.252 . S
C1010 O1025 1.272 . S
C1011 Sm1001 2.846 . S
C1011 C1012 1.506 . S
C1011 O1026 1.261 . S
C1011 O1027 1.242 . S
C1012 C1011 1.506 . S
C1012 C1013 1.358 . S
C1012 C1017 1.382 . S
C1013 C1012 1.358 . S
C1013 C1014 1.385 . S
C1013 H1036 0.930 . S
C1014 C1013 1.385 . S
C1014 C1015 1.395 . S
C1014 H1037 0.929 . S
C1015 C1014 1.395 . S
C1015 C1016 1.335 . S
C1016 C1015 1.335 . S
C1016 C1017 1.398 . S
C1016 H1038 0.930 . S
C1017 C1012 1.382 . S
C1017 C1016 1.398 . S
C1017 H1039 0.929 . S
C1018 O1028 1.271 . S
C1018 O1029 1.251 . S
C1019 O1030 1.252 . S
C1019 O1031 1.272 . S
O1020 Sm1000 2.543 . S
O1020 C1002 1.261 . S
O1021 Sm1000 2.450 . S
O1021 C1002 1.242 . S
O1022 Sm1000 2.681 . S
O1022 Sm1001 2.386 . S
O1022 C1009 1.271 . S
O1023 Sm1000 2.464 . S
O1023 C1009 1.251 . S
O1024 Sm1000 2.396 . S
O1024 C1010 1.252 . S
O1025 Sm1001 2.408 . S
O1025 C1010 1.272 . S
O1026 Sm1001 2.543 . S
O1026 C1011 1.261 . S
O1027 Sm1001 2.450 . S
O1027 C1011 1.242 . S
O1028 Sm1000 2.386 . S
O1028 Sm1001 2.681 . S
O1028 C1018 1.271 . S
O1029 Sm1001 2.464 . S
O1029 C1018 1.251 . S
O1030 Sm1001 2.396 . S
O1030 C1019 1.252 . S
O1031 Sm1000 2.408 . S
O1031 C1019 1.272 . S
H1032 C1004 0.930 1_556 S
H1033 C1005 0.929 . S
H1034 C1007 0.930 . S
H1035 C1008 0.929 . S
H1036 C1013 0.930 . S
H1037 C1014 0.929 . S
H1038 C1016 0.930 . S
H1039 C1017 0.929 . S
Sm1040 C1042 2.846 . S
Sm1040 O1060 2.543 . S
Sm1040 O1061 2.450 . S
Sm1040 O1062 2.681 . S
Sm1040 O1063 2.464 . S
Sm1040 O1064 2.396 . S
Sm1040 O1068 2.386 . S
Sm1040 O1071 2.408 . S
Sm1041 C1051 2.846 . S
Sm1041 O1062 2.386 . S
Sm1041 O1065 2.408 . S
Sm1041 O1066 2.543 . S
Sm1041 O1067 2.450 . S
Sm1041 O1068 2.681 . S
Sm1041 O1069 2.464 . S
Sm1041 O1070 2.396 . S
C1042 Sm1040 2.846 . S
C1042 C1043 1.506 . S
C1042 O1060 1.261 . S
C1042 O1061 1.242 . S
C1043 C1042 1.506 . S
C1043 C1044 1.358 1_556 S
C1043 C1048 1.382 . S
C1044 C1043 1.358 1_554 S
C1044 C1045 1.385 . S
C1044 H1072 0.930 1_554 S
C1045 C1044 1.385 . S
C1045 C1046 1.395 . S
C1045 H1073 0.929 . S
C1046 C1045 1.395 . S
C1046 C1047 1.335 . S
C1047 C1046 1.335 . S
C1047 C1048 1.398 1_554 S
C1047 H1074 0.930 . S
C1048 C1043 1.382 . S
C1048 C1047 1.398 1_556 S
C1048 H1075 0.929 . S
C1049 O1062 1.271 . S
C1049 O1063 1.251 . S
C1050 O1064 1.252 . S
C1050 O1065 1.272 . S
C1051 Sm1041 2.846 . S
C1051 C1052 1.506 . S
C1051 O1066 1.261 . S
C1051 O1067 1.242 . S
C1052 C1051 1.506 . S
C1052 C1053 1.358 . S
C1052 C1057 1.382 . S
C1053 C1052 1.358 . S
C1053 C1054 1.385 . S
C1053 H1076 0.930 . S
C1054 C1053 1.385 . S
C1054 C1055 1.395 . S
C1054 H1077 0.929 . S
C1055 C1054 1.395 . S
C1055 C1056 1.335 . S
C1056 C1055 1.335 . S
C1056 C1057 1.398 . S
C1056 H1078 0.930 . S
C1057 C1052 1.382 . S
C1057 C1056 1.398 . S
C1057 H1079 0.929 . S
C1058 O1068 1.271 . S
C1058 O1069 1.251 . S
C1059 O1070 1.252 . S
C1059 O1071 1.272 . S
O1060 Sm1040 2.543 . S
O1060 C1042 1.261 . S
O1061 Sm1040 2.450 . S
O1061 C1042 1.242 . S
O1062 Sm1040 2.681 . S
O1062 Sm1041 2.386 . S
O1062 C1049 1.271 . S
O1063 Sm1040 2.464 . S
O1063 C1049 1.251 . S
O1064 Sm1040 2.396 . S
O1064 C1050 1.252 . S
O1065 Sm1041 2.408 . S
O1065 C1050 1.272 . S
O1066 Sm1041 2.543 . S
O1066 C1051 1.261 . S
O1067 Sm1041 2.450 . S
O1067 C1051 1.242 . S
O1068 Sm1040 2.386 . S
O1068 Sm1041 2.681 . S
O1068 C1058 1.271 . S
O1069 Sm1041 2.464 . S
O1069 C1058 1.251 . S
O1070 Sm1041 2.396 . S
O1070 C1059 1.252 . S
O1071 Sm1040 2.408 . S
O1071 C1059 1.272 . S
H1072 C1044 0.930 1_556 S
H1073 C1045 0.929 . S
H1074 C1047 0.930 . S
H1075 C1048 0.929 . S
H1076 C1053 0.930 . S
H1077 C1054 0.929 . S
H1078 C1056 0.930 . S
H1079 C1057 0.929 . S
Sm1080 C1082 2.846 . S
Sm1080 O1100 2.543 . S
Sm1080 O1101 2.450 . S
Sm1080 O1102 2.681 . S
Sm1080 O1103 2.464 . S
Sm1080 O1104 2.396 . S
Sm1080 O1108 2.386 . S
Sm1080 O1111 2.408 . S
Sm1081 C1091 2.846 . S
Sm1081 O1102 2.386 . S
Sm1081 O1105 2.408 . S
Sm1081 O1106 2.543 . S
Sm1081 O1107 2.450 . S
Sm1081 O1108 2.681 . S
Sm1081 O1109 2.464 . S
Sm1081 O1110 2.396 . S
C1082 Sm1080 2.846 . S
C1082 C1083 1.506 . S
C1082 O1100 1.261 . S
C1082 O1101 1.242 . S
C1083 C1082 1.506 . S
C1083 C1084 1.358 . S
C1083 C1088 1.382 . S
C1084 C1083 1.358 . S
C1084 C1085 1.385 . S
C1084 H1112 0.930 . S
C1085 C1084 1.385 . S
C1085 C1086 1.395 . S
C1085 H1113 0.929 . S
C1086 C1085 1.395 . S
C1086 C1087 1.335 . S
C1087 C1086 1.335 . S
C1087 C1088 1.398 . S
C1087 H1114 0.930 . S
C1088 C1083 1.382 . S
C1088 C1087 1.398 . S
C1088 H1115 0.929 . S
C1089 O1102 1.271 . S
C1089 O1103 1.251 . S
C1090 O1104 1.252 . S
C1090 O1105 1.272 . S
C1091 Sm1081 2.846 . S
C1091 C1092 1.506 . S
C1091 O1106 1.261 . S
C1091 O1107 1.242 . S
C1092 C1091 1.506 . S
C1092 C1093 1.358 . S
C1092 C1097 1.382 . S
C1093 C1092 1.358 . S
C1093 C1094 1.385 . S
C1093 H1116 0.930 . S
C1094 C1093 1.385 . S
C1094 C1095 1.395 . S
C1094 H1117 0.929 . S
C1095 C1094 1.395 . S
C1095 C1096 1.335 . S
C1096 C1095 1.335 . S
C1096 C1097 1.398 . S
C1096 H1118 0.930 . S
C1097 C1092 1.382 . S
C1097 C1096 1.398 . S
C1097 H1119 0.929 . S
C1098 O1108 1.271 . S
C1098 O1109 1.251 . S
C1099 O1110 1.252 . S
C1099 O1111 1.272 . S
O1100 Sm1080 2.543 . S
O1100 C1082 1.261 . S
O1101 Sm1080 2.450 . S
O1101 C1082 1.242 . S
O1102 Sm1080 2.681 . S
O1102 Sm1081 2.386 . S
O1102 C1089 1.271 . S
O1103 Sm1080 2.464 . S
O1103 C1089 1.251 . S
O1104 Sm1080 2.396 . S
O1104 C1090 1.252 . S
O1105 Sm1081 2.408 . S
O1105 C1090 1.272 . S
O1106 Sm1081 2.543 . S
O1106 C1091 1.261 . S
O1107 Sm1081 2.450 . S
O1107 C1091 1.242 . S
O1108 Sm1080 2.386 . S
O1108 Sm1081 2.681 . S
O1108 C1098 1.271 . S
O1109 Sm1081 2.464 . S
O1109 C1098 1.251 . S
O1110 Sm1081 2.396 . S
O1110 C1099 1.252 . S
O1111 Sm1080 2.408 . S
O1111 C1099 1.272 . S
H1112 C1084 0.930 . S
H1113 C1085 0.929 . S
H1114 C1087 0.930 . S
H1115 C1088 0.929 . S
H1116 C1093 0.930 . S
H1117 C1094 0.929 . S
H1118 C1096 0.930 . S
H1119 C1097 0.929 . S
Sm1120 C1122 2.846 . S
Sm1120 O1140 2.543 . S
Sm1120 O1141 2.450 . S
Sm1120 O1142 2.681 . S
Sm1120 O1143 2.464 . S
Sm1120 O1144 2.396 . S
Sm1120 O1148 2.386 . S
Sm1120 O1151 2.408 . S
Sm1121 C1131 2.846 . S
Sm1121 O1142 2.386 . S
Sm1121 O1145 2.408 . S
Sm1121 O1146 2.543 . S
Sm1121 O1147 2.450 . S
Sm1121 O1148 2.681 . S
Sm1121 O1149 2.464 . S
Sm1121 O1150 2.396 . S
C1122 Sm1120 2.846 . S
C1122 C1123 1.506 . S
C1122 O1140 1.261 . S
C1122 O1141 1.242 . S
C1123 C1122 1.506 . S
C1123 C1124 1.358 . S
C1123 C1128 1.382 . S
C1124 C1123 1.358 . S
C1124 C1125 1.385 . S
C1124 H1152 0.930 . S
C1125 C1124 1.385 . S
C1125 C1126 1.395 . S
C1125 H1153 0.929 . S
C1126 C1125 1.395 . S
C1126 C1127 1.335 . S
C1127 C1126 1.335 . S
C1127 C1128 1.398 . S
C1127 H1154 0.930 . S
C1128 C1123 1.382 . S
C1128 C1127 1.398 . S
C1128 H1155 0.929 . S
C1129 O1142 1.271 . S
C1129 O1143 1.251 . S
C1130 O1144 1.252 . S
C1130 O1145 1.272 . S
C1131 Sm1121 2.846 . S
C1131 C1132 1.506 . S
C1131 O1146 1.261 . S
C1131 O1147 1.242 . S
C1132 C1131 1.506 . S
C1132 C1133 1.358 . S
C1132 C1137 1.382 . S
C1133 C1132 1.358 . S
C1133 C1134 1.385 . S
C1133 H1156 0.930 . S
C1134 C1133 1.385 . S
C1134 C1135 1.395 . S
C1134 H1157 0.929 . S
C1135 C1134 1.395 . S
C1135 C1136 1.335 . S
C1136 C1135 1.335 . S
C1136 C1137 1.398 . S
C1136 H1158 0.930 . S
C1137 C1132 1.382 . S
C1137 C1136 1.398 . S
C1137 H1159 0.929 . S
C1138 O1148 1.271 . S
C1138 O1149 1.251 . S
C1139 O1150 1.252 . S
C1139 O1151 1.272 . S
O1140 Sm1120 2.543 . S
O1140 C1122 1.261 . S
O1141 Sm1120 2.450 . S
O1141 C1122 1.242 . S
O1142 Sm1120 2.681 . S
O1142 Sm1121 2.386 . S
O1142 C1129 1.271 . S
O1143 Sm1120 2.464 . S
O1143 C1129 1.251 . S
O1144 Sm1120 2.396 . S
O1144 C1130 1.252 . S
O1145 Sm1121 2.408 . S
O1145 C1130 1.272 . S
O1146 Sm1121 2.543 . S
O1146 C1131 1.261 . S
O1147 Sm1121 2.450 . S
O1147 C1131 1.242 . S
O1148 Sm1120 2.386 . S
O1148 Sm1121 2.681 . S
O1148 C1138 1.271 . S
O1149 Sm1121 2.464 . S
O1149 C1138 1.251 . S
O1150 Sm1121 2.396 . S
O1150 C1139 1.252 . S
O1151 Sm1120 2.408 . S
O1151 C1139 1.272 . S
H1152 C1124 0.930 . S
H1153 C1125 0.929 . S
H1154 C1127 0.930 . S
H1155 C1128 0.929 . S
H1156 C1133 0.930 . S
H1157 C1134 0.929 . S
H1158 C1136 0.930 . S
H1159 C1137 0.929 . S
Sm1160 C1162 2.846 . S
Sm1160 O1180 2.543 . S
Sm1160 O1181 2.450 . S
Sm1160 O1182 2.681 . S
Sm1160 O1183 2.464 . S
Sm1160 O1184 2.396 . S
Sm1160 O1188 2.386 . S
Sm1160 O1191 2.408 . S
Sm1161 C1171 2.846 . S
Sm1161 O1182 2.386 . S
Sm1161 O1185 2.408 . S
Sm1161 O1186 2.543 . S
Sm1161 O1187 2.450 . S
Sm1161 O1188 2.681 . S
Sm1161 O1189 2.464 . S
Sm1161 O1190 2.396 . S
C1162 Sm1160 2.846 . S
C1162 C1163 1.506 . S
C1162 O1180 1.261 . S
C1162 O1181 1.242 . S
C1163 C1162 1.506 . S
C1163 C1164 1.358 . S
C1163 C1168 1.382 . S
C1164 C1163 1.358 . S
C1164 C1165 1.385 . S
C1164 H1192 0.930 . S
C1165 C1164 1.385 . S
C1165 C1166 1.395 . S
C1165 H1193 0.929 . S
C1166 C1165 1.395 . S
C1166 C1167 1.335 . S
C1167 C1166 1.335 . S
C1167 C1168 1.398 . S
C1167 H1194 0.930 . S
C1168 C1163 1.382 . S
C1168 C1167 1.398 . S
C1168 H1195 0.929 . S
C1169 O1182 1.271 . S
C1169 O1183 1.251 . S
C1170 O1184 1.252 . S
C1170 O1185 1.272 . S
C1171 Sm1161 2.846 . S
C1171 C1172 1.506 . S
C1171 O1186 1.261 . S
C1171 O1187 1.242 . S
C1172 C1171 1.506 . S
C1172 C1173 1.358 . S
C1172 C1177 1.382 . S
C1173 C1172 1.358 . S
C1173 C1174 1.385 . S
C1173 H1196 0.930 . S
C1174 C1173 1.385 . S
C1174 C1175 1.395 . S
C1174 H1197 0.929 . S
C1175 C1174 1.395 . S
C1175 C1176 1.335 . S
C1176 C1175 1.335 . S
C1176 C1177 1.398 . S
C1176 H1198 0.930 . S
C1177 C1172 1.382 . S
C1177 C1176 1.398 . S
C1177 H1199 0.929 . S
C1178 O1188 1.271 . S
C1178 O1189 1.251 . S
C1179 O1190 1.252 . S
C1179 O1191 1.272 . S
O1180 Sm1160 2.543 . S
O1180 C1162 1.261 . S
O1181 Sm1160 2.450 . S
O1181 C1162 1.242 . S
O1182 Sm1160 2.681 . S
O1182 Sm1161 2.386 . S
O1182 C1169 1.271 . S
O1183 Sm1160 2.464 . S
O1183 C1169 1.251 . S
O1184 Sm1160 2.396 . S
O1184 C1170 1.252 . S
O1185 Sm1161 2.408 . S
O1185 C1170 1.272 . S
O1186 Sm1161 2.543 . S
O1186 C1171 1.261 . S
O1187 Sm1161 2.450 . S
O1187 C1171 1.242 . S
O1188 Sm1160 2.386 . S
O1188 Sm1161 2.681 . S
O1188 C1178 1.271 . S
O1189 Sm1161 2.464 . S
O1189 C1178 1.251 . S
O1190 Sm1161 2.396 . S
O1190 C1179 1.252 . S
O1191 Sm1160 2.408 . S
O1191 C1179 1.272 . S
H1192 C1164 0.930 . S
H1193 C1165 0.929 . S
H1194 C1167 0.930 . S
H1195 C1168 0.929 . S
H1196 C1173 0.930 . S
H1197 C1174 0.929 . S
H1198 C1176 0.930 . S
H1199 C1177 0.929 . S
Sm1200 C1202 2.846 . S
Sm1200 O1220 2.543 . S
Sm1200 O1221 2.450 . S
Sm1200 O1222 2.681 . S
Sm1200 O1223 2.464 . S
Sm1200 O1224 2.396 . S
Sm1200 O1228 2.386 . S
Sm1200 O1231 2.408 . S
Sm1201 C1211 2.846 . S
Sm1201 O1222 2.386 . S
Sm1201 O1225 2.408 . S
Sm1201 O1226 2.543 . S
Sm1201 O1227 2.450 . S
Sm1201 O1228 2.681 . S
Sm1201 O1229 2.464 . S
Sm1201 O1230 2.396 . S
C1202 Sm1200 2.846 . S
C1202 C1203 1.506 . S
C1202 O1220 1.261 . S
C1202 O1221 1.242 . S
C1203 C1202 1.506 . S
C1203 C1204 1.358 . S
C1203 C1208 1.382 . S
C1204 C1203 1.358 . S
C1204 C1205 1.385 . S
C1204 H1232 0.930 . S
C1205 C1204 1.385 . S
C1205 C1206 1.395 . S
C1205 H1233 0.929 . S
C1206 C1205 1.395 . S
C1206 C1207 1.335 . S
C1207 C1206 1.335 . S
C1207 C1208 1.398 . S
C1207 H1234 0.930 . S
C1208 C1203 1.382 . S
C1208 C1207 1.398 . S
C1208 H1235 0.929 . S
C1209 O1222 1.271 . S
C1209 O1223 1.251 . S
C1210 O1224 1.252 . S
C1210 O1225 1.272 . S
C1211 Sm1201 2.846 . S
C1211 C1212 1.506 . S
C1211 O1226 1.261 . S
C1211 O1227 1.242 . S
C1212 C1211 1.506 . S
C1212 C1213 1.358 . S
C1212 C1217 1.382 . S
C1213 C1212 1.358 . S
C1213 C1214 1.385 . S
C1213 H1236 0.930 . S
C1214 C1213 1.385 . S
C1214 C1215 1.395 . S
C1214 H1237 0.929 . S
C1215 C1214 1.395 . S
C1215 C1216 1.335 . S
C1216 C1215 1.335 . S
C1216 C1217 1.398 . S
C1216 H1238 0.930 . S
C1217 C1212 1.382 . S
C1217 C1216 1.398 . S
C1217 H1239 0.929 . S
C1218 O1228 1.271 . S
C1218 O1229 1.251 . S
C1219 O1230 1.252 . S
C1219 O1231 1.272 . S
O1220 Sm1200 2.543 . S
O1220 C1202 1.261 . S
O1221 Sm1200 2.450 . S
O1221 C1202 1.242 . S
O1222 Sm1200 2.681 . S
O1222 Sm1201 2.386 . S
O1222 C1209 1.271 . S
O1223 Sm1200 2.464 . S
O1223 C1209 1.251 . S
O1224 Sm1200 2.396 . S
O1224 C1210 1.252 . S
O1225 Sm1201 2.408 . S
O1225 C1210 1.272 . S
O1226 Sm1201 2.543 . S
O1226 C1211 1.261 . S
O1227 Sm1201 2.450 . S
O1227 C1211 1.242 . S
O1228 Sm1200 2.386 . S
O1228 Sm1201 2.681 . S
O1228 C1218 1.271 . S
O1229 Sm1201 2.464 . S
O1229 C1218 1.251 . S
O1230 Sm1201 2.396 . S
O1230 C1219 1.252 . S
O1231 Sm1200 2.408 . S
O1231 C1219 1.272 . S
H1232 C1204 0.930 . S
H1233 C1205 0.929 . S
H1234 C1207 0.930 . S
H1235 C1208 0.929 . S
H1236 C1213 0.930 . S
H1237 C1214 0.929 . S
H1238 C1216 0.930 . S
H1239 C1217 0.929 . S
Sm1240 C1242 2.846 . S
Sm1240 O1260 2.543 . S
Sm1240 O1261 2.450 . S
Sm1240 O1262 2.681 . S
Sm1240 O1263 2.464 . S
Sm1240 O1264 2.396 . S
Sm1240 O1268 2.386 . S
Sm1240 O1271 2.408 . S
Sm1241 C1251 2.846 . S
Sm1241 O1262 2.386 . S
Sm1241 O1265 2.408 . S
Sm1241 O1266 2.543 . S
Sm1241 O1267 2.450 . S
Sm1241 O1268 2.681 . S
Sm1241 O1269 2.464 . S
Sm1241 O1270 2.396 . S
C1242 Sm1240 2.846 . S
C1242 C1243 1.506 . S
C1242 O1260 1.261 . S
C1242 O1261 1.242 . S
C1243 C1242 1.506 . S
C1243 C1244 1.358 . S
C1243 C1248 1.382 . S
C1244 C1243 1.358 . S
C1244 C1245 1.385 . S
C1244 H1272 0.930 . S
C1245 C1244 1.385 . S
C1245 C1246 1.395 . S
C1245 H1273 0.929 . S
C1246 C1245 1.395 . S
C1246 C1247 1.335 . S
C1247 C1246 1.335 . S
C1247 C1248 1.398 . S
C1247 H1274 0.930 . S
C1248 C1243 1.382 . S
C1248 C1247 1.398 . S
C1248 H1275 0.929 . S
C1249 O1262 1.271 . S
C1249 O1263 1.251 . S
C1250 O1264 1.252 . S
C1250 O1265 1.272 . S
C1251 Sm1241 2.846 . S
C1251 C1252 1.506 . S
C1251 O1266 1.261 . S
C1251 O1267 1.242 . S
C1252 C1251 1.506 . S
C1252 C1253 1.358 . S
C1252 C1257 1.382 . S
C1253 C1252 1.358 . S
C1253 C1254 1.385 . S
C1253 H1276 0.930 . S
C1254 C1253 1.385 . S
C1254 C1255 1.395 . S
C1254 H1277 0.929 . S
C1255 C1254 1.395 . S
C1255 C1256 1.335 . S
C1256 C1255 1.335 . S
C1256 C1257 1.398 . S
C1256 H1278 0.930 . S
C1257 C1252 1.382 . S
C1257 C1256 1.398 . S
C1257 H1279 0.929 . S
C1258 O1268 1.271 . S
C1258 O1269 1.251 . S
C1259 O1270 1.252 . S
C1259 O1271 1.272 . S
O1260 Sm1240 2.543 . S
O1260 C1242 1.261 . S
O1261 Sm1240 2.450 . S
O1261 C1242 1.242 . S
O1262 Sm1240 2.681 . S
O1262 Sm1241 2.386 . S
O1262 C1249 1.271 . S
O1263 Sm1240 2.464 . S
O1263 C1249 1.251 . S
O1264 Sm1240 2.396 . S
O1264 C1250 1.252 . S
O1265 Sm1241 2.408 . S
O1265 C1250 1.272 . S
O1266 Sm1241 2.543 . S
O1266 C1251 1.261 . S
O1267 Sm1241 2.450 . S
O1267 C1251 1.242 . S
O1268 Sm1240 2.386 . S
O1268 Sm1241 2.681 . S
O1268 C1258 1.271 . S
O1269 Sm1241 2.464 . S
O1269 C1258 1.251 . S
O1270 Sm1241 2.396 . S
O1270 C1259 1.252 . S
O1271 Sm1240 2.408 . S
O1271 C1259 1.272 . S
H1272 C1244 0.930 . S
H1273 C1245 0.929 . S
H1274 C1247 0.930 . S
H1275 C1248 0.929 . S
H1276 C1253 0.930 . S
H1277 C1254 0.929 . S
H1278 C1256 0.930 . S
H1279 C1257 0.929 . S
Sm1280 C1282 2.846 . S
Sm1280 O1300 2.543 . S
Sm1280 O1301 2.450 . S
Sm1280 O1302 2.681 . S
Sm1280 O1303 2.464 . S
Sm1280 O1304 2.396 . S
Sm1280 O1308 2.386 . S
Sm1280 O1311 2.408 . S
Sm1281 C1291 2.846 . S
Sm1281 O1302 2.386 . S
Sm1281 O1305 2.408 . S
Sm1281 O1306 2.543 . S
Sm1281 O1307 2.450 . S
Sm1281 O1308 2.681 . S
Sm1281 O1309 2.464 . S
Sm1281 O1310 2.396 . S
C1282 Sm1280 2.846 . S
C1282 C1283 1.506 . S
C1282 O1300 1.261 . S
C1282 O1301 1.242 . S
C1283 C1282 1.506 . S
C1283 C1284 1.358 . S
C1283 C1288 1.382 . S
C1284 C1283 1.358 . S
C1284 C1285 1.385 . S
C1284 H1312 0.930 . S
C1285 C1284 1.385 . S
C1285 C1286 1.395 . S
C1285 H1313 0.929 . S
C1286 C1285 1.395 . S
C1286 C1287 1.335 . S
C1287 C1286 1.335 . S
C1287 C1288 1.398 . S
C1287 H1314 0.930 . S
C1288 C1283 1.382 . S
C1288 C1287 1.398 . S
C1288 H1315 0.929 . S
C1289 O1302 1.271 . S
C1289 O1303 1.251 . S
C1290 O1304 1.252 . S
C1290 O1305 1.272 . S
C1291 Sm1281 2.846 . S
C1291 C1292 1.506 . S
C1291 O1306 1.261 . S
C1291 O1307 1.242 . S
C1292 C1291 1.506 . S
C1292 C1293 1.358 . S
C1292 C1297 1.382 . S
C1293 C1292 1.358 . S
C1293 C1294 1.385 . S
C1293 H1316 0.930 . S
C1294 C1293 1.385 . S
C1294 C1295 1.395 . S
C1294 H1317 0.929 . S
C1295 C1294 1.395 . S
C1295 C1296 1.335 . S
C1296 C1295 1.335 . S
C1296 C1297 1.398 . S
C1296 H1318 0.930 . S
C1297 C1292 1.382 . S
C1297 C1296 1.398 . S
C1297 H1319 0.929 . S
C1298 O1308 1.271 . S
C1298 O1309 1.251 . S
C1299 O1310 1.252 . S
C1299 O1311 1.272 . S
O1300 Sm1280 2.543 . S
O1300 C1282 1.261 . S
O1301 Sm1280 2.450 . S
O1301 C1282 1.242 . S
O1302 Sm1280 2.681 . S
O1302 Sm1281 2.386 . S
O1302 C1289 1.271 . S
O1303 Sm1280 2.464 . S
O1303 C1289 1.251 . S
O1304 Sm1280 2.396 . S
O1304 C1290 1.252 . S
O1305 Sm1281 2.408 . S
O1305 C1290 1.272 . S
O1306 Sm1281 2.543 . S
O1306 C1291 1.261 . S
O1307 Sm1281 2.450 . S
O1307 C1291 1.242 . S
O1308 Sm1280 2.386 . S
O1308 Sm1281 2.681 . S
O1308 C1298 1.271 . S
O1309 Sm1281 2.464 . S
O1309 C1298 1.251 . S
O1310 Sm1281 2.396 . S
O1310 C1299 1.252 . S
O1311 Sm1280 2.408 . S
O1311 C1299 1.272 . S
H1312 C1284 0.930 . S
H1313 C1285 0.929 . S
H1314 C1287 0.930 . S
H1315 C1288 0.929 . S
H1316 C1293 0.930 . S
H1317 C1294 0.929 . S
H1318 C1296 0.930 . S
H1319 C1297 0.929 . S
Sm1320 C1322 2.846 . S
Sm1320 O1340 2.543 . S
Sm1320 O1341 2.450 . S
Sm1320 O1342 2.681 . S
Sm1320 O1343 2.464 . S
Sm1320 O1344 2.396 . S
Sm1320 O1348 2.386 . S
Sm1320 O1351 2.408 . S
Sm1321 C1331 2.846 . S
Sm1321 O1342 2.386 . S
Sm1321 O1345 2.408 . S
Sm1321 O1346 2.543 . S
Sm1321 O1347 2.450 . S
Sm1321 O1348 2.681 . S
Sm1321 O1349 2.464 . S
Sm1321 O1350 2.396 . S
C1322 Sm1320 2.846 . S
C1322 C1323 1.506 . S
C1322 O1340 1.261 . S
C1322 O1341 1.242 . S
C1323 C1322 1.506 . S
C1323 C1324 1.358 . S
C1323 C1328 1.382 . S
C1324 C1323 1.358 . S
C1324 C1325 1.385 . S
C1324 H1352 0.930 . S
C1325 C1324 1.385 . S
C1325 C1326 1.395 . S
C1325 H1353 0.929 . S
C1326 C1325 1.395 . S
C1326 C1327 1.335 . S
C1327 C1326 1.335 . S
C1327 C1328 1.398 . S
C1327 H1354 0.930 . S
C1328 C1323 1.382 . S
C1328 C1327 1.398 . S
C1328 H1355 0.929 . S
C1329 O1342 1.271 . S
C1329 O1343 1.251 . S
C1330 O1344 1.252 . S
C1330 O1345 1.272 . S
C1331 Sm1321 2.846 . S
C1331 C1332 1.506 . S
C1331 O1346 1.261 . S
C1331 O1347 1.242 . S
C1332 C1331 1.506 . S
C1332 C1333 1.358 . S
C1332 C1337 1.382 . S
C1333 C1332 1.358 . S
C1333 C1334 1.385 . S
C1333 H1356 0.930 . S
C1334 C1333 1.385 . S
C1334 C1335 1.395 . S
C1334 H1357 0.929 . S
C1335 C1334 1.395 . S
C1335 C1336 1.335 . S
C1336 C1335 1.335 . S
C1336 C1337 1.398 . S
C1336 H1358 0.930 . S
C1337 C1332 1.382 . S
C1337 C1336 1.398 . S
C1337 H1359 0.929 . S
C1338 O1348 1.271 . S
C1338 O1349 1.251 . S
C1339 O1350 1.252 . S
C1339 O1351 1.272 . S
O1340 Sm1320 2.543 . S
O1340 C1322 1.261 . S
O1341 Sm1320 2.450 . S
O1341 C1322 1.242 . S
O1342 Sm1320 2.681 . S
O1342 Sm1321 2.386 . S
O1342 C1329 1.271 . S
O1343 Sm1320 2.464 . S
O1343 C1329 1.251 . S
O1344 Sm1320 2.396 . S
O1344 C1330 1.252 . S
O1345 Sm1321 2.408 . S
O1345 C1330 1.272 . S
O1346 Sm1321 2.543 . S
O1346 C1331 1.261 . S
O1347 Sm1321 2.450 . S
O1347 C1331 1.242 . S
O1348 Sm1320 2.386 . S
O1348 Sm1321 2.681 . S
O1348 C1338 1.271 . S
O1349 Sm1321 2.464 . S
O1349 C1338 1.251 . S
O1350 Sm1321 2.396 . S
O1350 C1339 1.252 . S
O1351 Sm1320 2.408 . S
O1351 C1339 1.272 . S
H1352 C1324 0.930 . S
H1353 C1325 0.929 . S
H1354 C1327 0.930 . S
H1355 C1328 0.929 . S
H1356 C1333 0.930 . S
H1357 C1334 0.929 . S
H1358 C1336 0.930 . S
H1359 C1337 0.929 . S
Sm1360 C1362 2.846 . S
Sm1360 O1380 2.543 . S
Sm1360 O1381 2.450 . S
Sm1360 O1382 2.681 . S
Sm1360 O1383 2.464 . S
Sm1360 O1384 2.396 . S
Sm1360 O1388 2.386 . S
Sm1360 O1391 2.408 . S
Sm1361 C1371 2.846 . S
Sm1361 O1382 2.386 . S
Sm1361 O1385 2.408 . S
Sm1361 O1386 2.543 . S
Sm1361 O1387 2.450 . S
Sm1361 O1388 2.681 . S
Sm1361 O1389 2.464 . S
Sm1361 O1390 2.396 . S
C1362 Sm1360 2.846 . S
C1362 C1363 1.506 . S
C1362 O1380 1.261 . S
C1362 O1381 1.242 . S
C1363 C1362 1.506 . S
C1363 C1364 1.358 . S
C1363 C1368 1.382 . S
C1364 C1363 1.358 . S
C1364 C1365 1.385 . S
C1364 H1392 0.930 . S
C1365 C1364 1.385 . S
C1365 C1366 1.395 . S
C1365 H1393 0.929 . S
C1366 C1365 1.395 . S
C1366 C1367 1.335 . S
C1367 C1366 1.335 . S
C1367 C1368 1.398 . S
C1367 H1394 0.930 . S
C1368 C1363 1.382 . S
C1368 C1367 1.398 . S
C1368 H1395 0.929 . S
C1369 O1382 1.271 . S
C1369 O1383 1.251 . S
C1370 O1384 1.252 . S
C1370 O1385 1.272 . S
C1371 Sm1361 2.846 . S
C1371 C1372 1.506 . S
C1371 O1386 1.261 . S
C1371 O1387 1.242 . S
C1372 C1371 1.506 . S
C1372 C1373 1.358 . S
C1372 C1377 1.382 . S
C1373 C1372 1.358 . S
C1373 C1374 1.385 . S
C1373 H1396 0.930 . S
C1374 C1373 1.385 . S
C1374 C1375 1.395 . S
C1374 H1397 0.929 . S
C1375 C1374 1.395 . S
C1375 C1376 1.335 . S
C1376 C1375 1.335 . S
C1376 C1377 1.398 . S
C1376 H1398 0.930 . S
C1377 C1372 1.382 . S
C1377 C1376 1.398 . S
C1377 H1399 0.929 . S
C1378 O1388 1.271 . S
C1378 O1389 1.251 . S
C1379 O1390 1.252 . S
C1379 O1391 1.272 . S
O1380 Sm1360 2.543 . S
O1380 C1362 1.261 . S
O1381 Sm1360 2.450 . S
O1381 C1362 1.242 . S
O1382 Sm1360 2.681 . S
O1382 Sm1361 2.386 . S
O1382 C1369 1.271 . S
O1383 Sm1360 2.464 . S
O1383 C1369 1.251 . S
O1384 Sm1360 2.396 . S
O1384 C1370 1.252 . S
O1385 Sm1361 2.408 . S
O1385 C1370 1.272 . S
O1386 Sm1361 2.543 . S
O1386 C1371 1.261 . S
O1387 Sm1361 2.450 . S
O1387 C1371 1.242 . S
O1388 Sm1360 2.386 . S
O1388 Sm1361 2.681 . S
O1388 C1378 1.271 . S
O1389 Sm1361 2.464 . S
O1389 C1378 1.251 . S
O1390 Sm1361 2.396 . S
O1390 C1379 1.252 . S
O1391 Sm1360 2.408 . S
O1391 C1379 1.272 . S
H1392 C1364 0.930 . S
H1393 C1365 0.929 . S
H1394 C1367 0.930 . S
H1395 C1368 0.929 . S
H1396 C1373 0.930 . S
H1397 C1374 0.929 . S
H1398 C1376 0.930 . S
H1399 C1377 0.929 . S
Sm1400 C1402 2.846 . S
Sm1400 O1420 2.543 . S
Sm1400 O1421 2.450 . S
Sm1400 O1422 2.681 . S
Sm1400 O1423 2.464 . S
Sm1400 O1424 2.396 . S
Sm1400 O1428 2.386 . S
Sm1400 O1431 2.408 . S
Sm1401 C1411 2.846 . S
Sm1401 O1422 2.386 . S
Sm1401 O1425 2.408 . S
Sm1401 O1426 2.543 . S
Sm1401 O1427 2.450 . S
Sm1401 O1428 2.681 . S
Sm1401 O1429 2.464 . S
Sm1401 O1430 2.396 . S
C1402 Sm1400 2.846 . S
C1402 C1403 1.506 . S
C1402 O1420 1.261 . S
C1402 O1421 1.242 . S
C1403 C1402 1.506 . S
C1403 C1404 1.358 . S
C1403 C1408 1.382 . S
C1404 C1403 1.358 . S
C1404 C1405 1.385 . S
C1404 H1432 0.930 . S
C1405 C1404 1.385 . S
C1405 C1406 1.395 . S
C1405 H1433 0.929 . S
C1406 C1405 1.395 . S
C1406 C1407 1.335 . S
C1407 C1406 1.335 . S
C1407 C1408 1.398 . S
C1407 H1434 0.930 . S
C1408 C1403 1.382 . S
C1408 C1407 1.398 . S
C1408 H1435 0.929 . S
C1409 O1422 1.271 . S
C1409 O1423 1.251 . S
C1410 O1424 1.252 . S
C1410 O1425 1.272 . S
C1411 Sm1401 2.846 . S
C1411 C1412 1.506 . S
C1411 O1426 1.261 . S
C1411 O1427 1.242 . S
C1412 C1411 1.506 . S
C1412 C1413 1.358 . S
C1412 C1417 1.382 . S
C1413 C1412 1.358 . S
C1413 C1414 1.385 . S
C1413 H1436 0.930 . S
C1414 C1413 1.385 . S
C1414 C1415 1.395 . S
C1414 H1437 0.929 . S
C1415 C1414 1.395 . S
C1415 C1416 1.335 . S
C1416 C1415 1.335 . S
C1416 C1417 1.398 . S
C1416 H1438 0.930 . S
C1417 C1412 1.382 . S
C1417 C1416 1.398 . S
C1417 H1439 0.929 . S
C1418 O1428 1.271 . S
C1418 O1429 1.251 . S
C1419 O1430 1.252 . S
C1419 O1431 1.272 . S
O1420 Sm1400 2.543 . S
O1420 C1402 1.261 . S
O1421 Sm1400 2.450 . S
O1421 C1402 1.242 . S
O1422 Sm1400 2.681 . S
O1422 Sm1401 2.386 . S
O1422 C1409 1.271 . S
O1423 Sm1400 2.464 . S
O1423 C1409 1.251 . S
O1424 Sm1400 2.396 . S
O1424 C1410 1.252 . S
O1425 Sm1401 2.408 . S
O1425 C1410 1.272 . S
O1426 Sm1401 2.543 . S
O1426 C1411 1.261 . S
O1427 Sm1401 2.450 . S
O1427 C1411 1.242 . S
O1428 Sm1400 2.386 . S
O1428 Sm1401 2.681 . S
O1428 C1418 1.271 . S
O1429 Sm1401 2.464 . S
O1429 C1418 1.251 . S
O1430 Sm1401 2.396 . S
O1430 C1419 1.252 . S
O1431 Sm1400 2.408 . S
O1431 C1419 1.272 . S
H1432 C1404 0.930 . S
H1433 C1405 0.929 . S
H1434 C1407 0.930 . S
H1435 C1408 0.929 . S
H1436 C1413 0.930 . S
H1437 C1414 0.929 . S
H1438 C1416 0.930 . S
H1439 C1417 0.929 . S
H1440 C1446 0.930 . S
H1441 C1449 0.930 1_556 S
H1442 C1450 0.930 . S
H1443 C1451 0.930 . S
H1444 C1454 0.930 . S
H1445 C1455 0.930 . S
C1446 H1440 0.930 . S
C1446 C1447 1.355 . S
C1446 C1448 1.415 1_556 S
C1447 C1446 1.355 . S
C1447 C1449 1.419 1_556 S
C1448 C1446 1.415 1_554 S
C1448 C1453 1.425 . S
C1448 C1455 1.409 . S
C1449 H1441 0.930 1_554 S
C1449 C1447 1.419 1_554 S
C1449 C1450 1.362 . S
C1450 H1442 0.930 . S
C1450 C1449 1.362 . S
C1450 C1453 1.409 . S
C1451 H1443 0.930 . S
C1451 C1452 1.355 . S
C1451 C1453 1.415 . S
C1452 C1451 1.355 . S
C1452 C1454 1.419 . S
C1453 C1448 1.425 . S
C1453 C1450 1.409 . S
C1453 C1451 1.415 . S
C1454 H1444 0.930 . S
C1454 C1452 1.419 . S
C1454 C1455 1.362 . S
C1455 H1445 0.930 . S
C1455 C1448 1.409 . S
C1455 C1454 1.362 . S
H1456 C1462 0.930 . S
H1457 C1465 0.930 . S
H1458 C1466 0.930 . S
H1459 C1467 0.930 . S
H1460 C1470 0.930 . S
H1461 C1471 0.930 . S
C1462 H1456 0.930 . S
C1462 C1463 1.355 1_554 S
C1462 C1464 1.415 . S
C1463 C1462 1.355 1_556 S
C1463 C1465 1.419 . S
C1464 C1462 1.415 . S
C1464 C1469 1.425 . S
C1464 C1471 1.409 . S
C1465 H1457 0.930 . S
C1465 C1463 1.419 . S
C1465 C1466 1.362 1_556 S
C1466 H1458 0.930 . S
C1466 C1465 1.362 1_554 S
C1466 C1469 1.409 . S
C1467 H1459 0.930 . S
C1467 C1468 1.355 . S
C1467 C1469 1.415 . S
C1468 C1467 1.355 . S
C1468 C1470 1.419 . S
C1469 C1464 1.425 . S
C1469 C1466 1.409 . S
C1469 C1467 1.415 . S
C1470 H1460 0.930 . S
C1470 C1468 1.419 . S
C1470 C1471 1.362 . S
C1471 H1461 0.930 . S
C1471 C1464 1.409 . S
C1471 C1470 1.362 . S
H1472 C1478 0.930 . S
H1473 C1481 0.930 . S
H1474 C1482 0.930 . S
H1475 C1483 0.930 . S
H1476 C1486 0.930 1_556 S
H1477 C1487 0.930 . S
C1478 H1472 0.930 . S
C1478 C1479 1.355 . S
C1478 C1480 1.415 . S
C1479 C1478 1.355 . S
C1479 C1481 1.419 . S
C1480 C1478 1.415 . S
C1480 C1485 1.425 . S
C1480 C1487 1.409 . S
C1481 H1473 0.930 . S
C1481 C1479 1.419 . S
C1481 C1482 1.362 . S
C1482 H1474 0.930 . S
C1482 C1481 1.362 . S
C1482 C1485 1.409 . S
C1483 H1475 0.930 . S
C1483 C1484 1.355 . S
C1483 C1485 1.415 1_556 S
C1484 C1483 1.355 . S
C1484 C1486 1.419 1_556 S
C1485 C1480 1.425 . S
C1485 C1482 1.409 . S
C1485 C1483 1.415 1_554 S
C1486 H1476 0.930 1_554 S
C1486 C1484 1.419 1_554 S
C1486 C1487 1.362 . S
C1487 H1477 0.930 . S
C1487 C1480 1.409 . S
C1487 C1486 1.362 . S
H1488 C1494 0.930 . S
H1489 C1497 0.930 . S
H1490 C1498 0.930 . S
H1491 C1499 0.930 . S
H1492 C1502 0.930 . S
H1493 C1503 0.930 . S
C1494 H1488 0.930 . S
C1494 C1495 1.355 . S
C1494 C1496 1.415 . S
C1495 C1494 1.355 . S
C1495 C1497 1.419 . S
C1496 C1494 1.415 . S
C1496 C1501 1.425 . S
C1496 C1503 1.409 . S
C1497 H1489 0.930 . S
C1497 C1495 1.419 . S
C1497 C1498 1.362 . S
C1498 H1490 0.930 . S
C1498 C1497 1.362 . S
C1498 C1501 1.409 . S
C1499 H1491 0.930 . S
C1499 C1500 1.355 . S
C1499 C1501 1.415 . S
C1500 C1499 1.355 . S
C1500 C1502 1.419 . S
C1501 C1496 1.425 . S
C1501 C1498 1.409 . S
C1501 C1499 1.415 . S
C1502 H1492 0.930 . S
C1502 C1500 1.419 . S
C1502 C1503 1.362 . S
C1503 H1493 0.930 . S
C1503 C1496 1.409 . S
C1503 C1502 1.362 . S
H1504 C1510 0.930 . S
H1505 C1513 0.930 . S
H1506 C1514 0.930 . S
H1507 C1515 0.930 . S
H1508 C1518 0.930 . S
H1509 C1519 0.930 . S
C1510 H1504 0.930 . S
C1510 C1511 1.355 . S
C1510 C1512 1.415 . S
C1511 C1510 1.355 . S
C1511 C1513 1.419 . S
C1512 C1510 1.415 . S
C1512 C1517 1.425 . S
C1512 C1519 1.409 . S
C1513 H1505 0.930 . S
C1513 C1511 1.419 . S
C1513 C1514 1.362 . S
C1514 H1506 0.930 . S
C1514 C1513 1.362 . S
C1514 C1517 1.409 . S
C1515 H1507 0.930 . S
C1515 C1516 1.355 . S
C1515 C1517 1.415 . S
C1516 C1515 1.355 . S
C1516 C1518 1.419 . S
C1517 C1512 1.425 . S
C1517 C1514 1.409 . S
C1517 C1515 1.415 . S
C1518 H1508 0.930 . S
C1518 C1516 1.419 . S
C1518 C1519 1.362 . S
C1519 H1509 0.930 . S
C1519 C1512 1.409 . S
C1519 C1518 1.362 . S
H1520 C1526 0.930 . S
H1521 C1529 0.930 . S
H1522 C1530 0.930 . S
H1523 C1531 0.930 . S
H1524 C1534 0.930 . S
H1525 C1535 0.930 . S
C1526 H1520 0.930 . S
C1526 C1527 1.355 . S
C1526 C1528 1.415 . S
C1527 C1526 1.355 . S
C1527 C1529 1.419 . S
C1528 C1526 1.415 . S
C1528 C1533 1.425 . S
C1528 C1535 1.409 . S
C1529 H1521 0.930 . S
C1529 C1527 1.419 . S
C1529 C1530 1.362 . S
C1530 H1522 0.930 . S
C1530 C1529 1.362 . S
C1530 C1533 1.409 . S
C1531 H1523 0.930 . S
C1531 C1532 1.355 . S
C1531 C1533 1.415 . S
C1532 C1531 1.355 . S
C1532 C1534 1.419 . S
C1533 C1528 1.425 . S
C1533 C1530 1.409 . S
C1533 C1531 1.415 . S
C1534 H1524 0.930 . S
C1534 C1532 1.419 . S
C1534 C1535 1.362 . S
C1535 H1525 0.930 . S
C1535 C1528 1.409 . S
C1535 C1534 1.362 . S
H1536 C1542 0.930 . S
H1537 C1545 0.930 . S
H1538 C1546 0.930 . S
H1539 C1547 0.930 . S
H1540 C1550 0.930 . S
H1541 C1551 0.930 . S
C1542 H1536 0.930 . S
C1542 C1543 1.355 . S
C1542 C1544 1.415 . S
C1543 C1542 1.355 . S
C1543 C1545 1.419 . S
C1544 C1542 1.415 . S
C1544 C1549 1.425 . S
C1544 C1551 1.409 . S
C1545 H1537 0.930 . S
C1545 C1543 1.419 . S
C1545 C1546 1.362 . S
C1546 H1538 0.930 . S
C1546 C1545 1.362 . S
C1546 C1549 1.409 . S
C1547 H1539 0.930 . S
C1547 C1548 1.355 . S
C1547 C1549 1.415 . S
C1548 C1547 1.355 . S
C1548 C1550 1.419 . S
C1549 C1544 1.425 . S
C1549 C1546 1.409 . S
C1549 C1547 1.415 . S
C1550 H1540 0.930 . S
C1550 C1548 1.419 . S
C1550 C1551 1.362 . S
C1551 H1541 0.930 . S
C1551 C1544 1.409 . S
C1551 C1550 1.362 . S
H1552 C1558 0.930 . S
H1553 C1561 0.930 . S
H1554 C1562 0.930 . S
H1555 C1563 0.930 . S
H1556 C1566 0.930 . S
H1557 C1567 0.930 . S
C1558 H1552 0.930 . S
C1558 C1559 1.355 . S
C1558 C1560 1.415 . S
C1559 C1558 1.355 . S
C1559 C1561 1.419 . S
C1560 C1558 1.415 . S
C1560 C1565 1.425 . S
C1560 C1567 1.409 . S
C1561 H1553 0.930 . S
C1561 C1559 1.419 . S
C1561 C1562 1.362 . S
C1562 H1554 0.930 . S
C1562 C1561 1.362 . S
C1562 C1565 1.409 . S
C1563 H1555 0.930 . S
C1563 C1564 1.355 . S
C1563 C1565 1.415 . S
C1564 C1563 1.355 . S
C1564 C1566 1.419 . S
C1565 C1560 1.425 . S
C1565 C1562 1.409 . S
C1565 C1563 1.415 . S
C1566 H1556 0.930 . S
C1566 C1564 1.419 . S
C1566 C1567 1.362 . S
C1567 H1557 0.930 . S
C1567 C1560 1.409 . S
C1567 C1566 1.362 . S
H1568 C1574 0.930 . S
H1569 C1577 0.930 . S
H1570 C1578 0.930 . S
H1571 C1579 0.930 . S
H1572 C1582 0.930 . S
H1573 C1583 0.930 . S
C1574 H1568 0.930 . S
C1574 C1575 1.355 . S
C1574 C1576 1.415 . S
C1575 C1574 1.355 . S
C1575 C1577 1.419 . S
C1576 C1574 1.415 . S
C1576 C1581 1.425 . S
C1576 C1583 1.409 . S
C1577 H1569 0.930 . S
C1577 C1575 1.419 . S
C1577 C1578 1.362 . S
C1578 H1570 0.930 . S
C1578 C1577 1.362 . S
C1578 C1581 1.409 . S
C1579 H1571 0.930 . S
C1579 C1580 1.355 . S
C1579 C1581 1.415 . S
C1580 C1579 1.355 . S
C1580 C1582 1.419 . S
C1581 C1576 1.425 . S
C1581 C1578 1.409 . S
C1581 C1579 1.415 . S
C1582 H1572 0.930 . S
C1582 C1580 1.419 . S
C1582 C1583 1.362 . S
C1583 H1573 0.930 . S
C1583 C1576 1.409 . S
C1583 C1582 1.362 . S
H1584 C1590 0.930 . S
H1585 C1593 0.930 . S
H1586 C1594 0.930 . S
H1587 C1595 0.930 . S
H1588 C1598 0.930 . S
H1589 C1599 0.930 . S
C1590 H1584 0.930 . S
C1590 C1591 1.355 . S
C1590 C1592 1.415 . S
C1591 C1590 1.355 . S
C1591 C1593 1.419 . S
C1592 C1590 1.415 . S
C1592 C1597 1.425 . S
C1592 C1599 1.409 . S
C1593 H1585 0.930 . S
C1593 C1591 1.419 . S
C1593 C1594 1.362 . S
C1594 H1586 0.930 . S
C1594 C1593 1.362 . S
C1594 C1597 1.409 . S
C1595 H1587 0.930 . S
C1595 C1596 1.355 . S
C1595 C1597 1.415 . S
C1596 C1595 1.355 . S
C1596 C1598 1.419 . S
C1597 C1592 1.425 . S
C1597 C1594 1.409 . S
C1597 C1595 1.415 . S
C1598 H1588 0.930 . S
C1598 C1596 1.419 . S
C1598 C1599 1.362 . S
C1599 H1589 0.930 . S
C1599 C1592 1.409 . S
C1599 C1598 1.362 . S
H1600 C1606 0.930 . S
H1601 C1609 0.930 . S
H1602 C1610 0.930 . S
H1603 C1611 0.930 . S
H1604 C1614 0.930 . S
H1605 C1615 0.930 . S
C1606 H1600 0.930 . S
C1606 C1607 1.355 . S
C1606 C1608 1.415 . S
C1607 C1606 1.355 . S
C1607 C1609 1.419 . S
C1608 C1606 1.415 . S
C1608 C1613 1.425 . S
C1608 C1615 1.409 . S
C1609 H1601 0.930 . S
C1609 C1607 1.419 . S
C1609 C1610 1.362 . S
C1610 H1602 0.930 . S
C1610 C1609 1.362 . S
C1610 C1613 1.409 . S
C1611 H1603 0.930 . S
C1611 C1612 1.355 . S
C1611 C1613 1.415 . S
C1612 C1611 1.355 . S
C1612 C1614 1.419 . S
C1613 C1608 1.425 . S
C1613 C1610 1.409 . S
C1613 C1611 1.415 . S
C1614 H1604 0.930 . S
C1614 C1612 1.419 . S
C1614 C1615 1.362 . S
C1615 H1605 0.930 . S
C1615 C1608 1.409 . S
C1615 C1614 1.362 . S
H1616 C1622 0.930 . S
H1617 C1625 0.930 . S
H1618 C1626 0.930 . S
H1619 C1627 0.930 . S
H1620 C1630 0.930 . S
H1621 C1631 0.930 . S
C1622 H1616 0.930 . S
C1622 C1623 1.355 . S
C1622 C1624 1.415 . S
C1623 C1622 1.355 . S
C1623 C1625 1.419 . S
C1624 C1622 1.415 . S
C1624 C1629 1.425 . S
C1624 C1631 1.409 . S
C1625 H1617 0.930 . S
C1625 C1623 1.419 . S
C1625 C1626 1.362 . S
C1626 H1618 0.930 . S
C1626 C1625 1.362 . S
C1626 C1629 1.409 . S
C1627 H1619 0.930 . S
C1627 C1628 1.355 . S
C1627 C1629 1.415 . S
C1628 C1627 1.355 . S
C1628 C1630 1.419 . S
C1629 C1624 1.425 . S
C1629 C1626 1.409 . S
C1629 C1627 1.415 . S
C1630 H1620 0.930 . S
C1630 C1628 1.419 . S
C1630 C1631 1.362 . S
C1631 H1621 0.930 . S
C1631 C1624 1.409 . S
C1631 C1630 1.362 . S
H1632 C1638 0.930 . S
H1633 C1641 0.930 . S
H1634 C1642 0.930 . S
H1635 C1643 0.930 . S
H1636 C1646 0.930 . S
H1637 C1647 0.930 . S
C1638 H1632 0.930 . S
C1638 C1639 1.355 . S
C1638 C1640 1.415 . S
C1639 C1638 1.355 . S
C1639 C1641 1.419 . S
C1640 C1638 1.415 . S
C1640 C1645 1.425 . S
C1640 C1647 1.409 . S
C1641 H1633 0.930 . S
C1641 C1639 1.419 . S
C1641 C1642 1.362 . S
C1642 H1634 0.930 . S
C1642 C1641 1.362 . S
C1642 C1645 1.409 . S
C1643 H1635 0.930 . S
C1643 C1644 1.355 . S
C1643 C1645 1.415 . S
C1644 C1643 1.355 . S
C1644 C1646 1.419 . S
C1645 C1640 1.425 . S
C1645 C1642 1.409 . S
C1645 C1643 1.415 . S
C1646 H1636 0.930 . S
C1646 C1644 1.419 . S
C1646 C1647 1.362 . S
C1647 H1637 0.930 . S
C1647 C1640 1.409 . S
C1647 C1646 1.362 . S
H1648 C1654 0.930 . S
H1649 C1657 0.930 . S
H1650 C1658 0.930 . S
H1651 C1659 0.930 . S
H1652 C1662 0.930 . S
H1653 C1663 0.930 . S
C1654 H1648 0.930 . S
C1654 C1655 1.355 . S
C1654 C1656 1.415 . S
C1655 C1654 1.355 . S
C1655 C1657 1.419 1_565 S
C1656 C1654 1.415 . S
C1656 C1661 1.425 1_565 S
C1656 C1663 1.409 . S
C1657 H1649 0.930 . S
C1657 C1655 1.419 1_545 S
C1657 C1658 1.362 . S
C1658 H1650 0.930 . S
C1658 C1657 1.362 . S
C1658 C1661 1.409 . S
C1659 H1651 0.930 . S
C1659 C1660 1.355 . S
C1659 C1661 1.415 . S
C1660 C1659 1.355 . S
C1660 C1662 1.419 1_545 S
C1661 C1656 1.425 1_545 S
C1661 C1658 1.409 . S
C1661 C1659 1.415 . S
C1662 H1652 0.930 . S
C1662 C1660 1.419 1_565 S
C1662 C1663 1.362 . S
C1663 H1653 0.930 . S
C1663 C1656 1.409 . S
C1663 C1662 1.362 . S
H1664 C1670 0.930 . S
H1665 C1673 0.930 . S
H1666 C1674 0.930 1_455 S
H1667 C1675 0.930 . S
H1668 C1678 0.930 . S
H1669 C1679 0.930 1_655 S
C1670 H1664 0.930 . S
C1670 C1671 1.355 . S
C1670 C1672 1.415 . S
C1671 C1670 1.355 . S
C1671 C1673 1.419 . S
C1672 C1670 1.415 . S
C1672 C1677 1.425 1_655 S
C1672 C1679 1.409 1_655 S
C1673 H1665 0.930 . S
C1673 C1671 1.419 . S
C1673 C1674 1.362 . S
C1674 H1666 0.930 1_655 S
C1674 C1673 1.362 . S
C1674 C1677 1.409 1_655 S
C1675 H1667 0.930 . S
C1675 C1676 1.355 . S
C1675 C1677 1.415 . S
C1676 C1675 1.355 . S
C1676 C1678 1.419 . S
C1677 C1672 1.425 1_455 S
C1677 C1674 1.409 1_455 S
C1677 C1675 1.415 . S
C1678 H1668 0.930 . S
C1678 C1676 1.419 . S
C1678 C1679 1.362 . S
C1679 H1669 0.930 1_455 S
C1679 C1672 1.409 1_455 S
C1679 C1678 1.362 . S
H1680 C1686 0.930 . S
H1681 C1689 0.930 . S
H1682 C1690 0.930 . S
H1683 C1691 0.930 . S
H1684 C1694 0.930 . S
H1685 C1695 0.930 . S
C1686 H1680 0.930 . S
C1686 C1687 1.355 . S
C1686 C1688 1.415 . S
C1687 C1686 1.355 . S
C1687 C1689 1.419 . S
C1688 C1686 1.415 . S
C1688 C1693 1.425 . S
C1688 C1695 1.409 . S
C1689 H1681 0.930 . S
C1689 C1687 1.419 . S
C1689 C1690 1.362 . S
C1690 H1682 0.930 . S
C1690 C1689 1.362 . S
C1690 C1693 1.409 . S
C1691 H1683 0.930 . S
C1691 C1692 1.355 . S
C1691 C1693 1.415 . S
C1692 C1691 1.355 . S
C1692 C1694 1.419 . S
C1693 C1688 1.425 . S
C1693 C1690 1.409 . S
C1693 C1691 1.415 . S
C1694 H1684 0.930 . S
C1694 C1692 1.419 . S
C1694 C1695 1.362 . S
C1695 H1685 0.930 . S
C1695 C1688 1.409 . S
C1695 C1694 1.362 . S
H1696 C1702 0.930 . S
H1697 C1705 0.930 . S
H1698 C1706 0.930 . S
H1699 C1707 0.930 . S
H1700 C1710 0.930 . S
H1701 C1711 0.930 . S
C1702 H1696 0.930 . S
C1702 C1703 1.355 . S
C1702 C1704 1.415 . S
C1703 C1702 1.355 . S
C1703 C1705 1.419 . S
C1704 C1702 1.415 . S
C1704 C1709 1.425 1_545 S
C1704 C1711 1.409 1_545 S
C1705 H1697 0.930 . S
C1705 C1703 1.419 . S
C1705 C1706 1.362 . S
C1706 H1698 0.930 . S
C1706 C1705 1.362 . S
C1706 C1709 1.409 1_545 S
C1707 H1699 0.930 . S
C1707 C1708 1.355 . S
C1707 C1709 1.415 . S
C1708 C1707 1.355 . S
C1708 C1710 1.419 . S
C1709 C1704 1.425 1_565 S
C1709 C1706 1.409 1_565 S
C1709 C1707 1.415 . S
C1710 H1700 0.930 . S
C1710 C1708 1.419 . S
C1710 C1711 1.362 . S
C1711 H1701 0.930 . S
C1711 C1704 1.409 1_565 S
C1711 C1710 1.362 . S
H1712 C1718 0.930 . S
H1713 C1721 0.930 . S
H1714 C1722 0.923 . S
H1715 C1723 0.930 . S
H1716 C1726 0.930 . S
H1717 C1727 0.923 . S
C1718 H1712 0.930 . S
C1718 C1719 1.355 . S
C1718 C1720 1.415 . S
C1719 C1718 1.355 . S
C1719 C1721 1.419 . S
C1720 C1718 1.415 . S
C1720 C1725 1.425 1_455 S
C1720 C1727 1.434 . S
C1721 H1713 0.930 . S
C1721 C1719 1.419 . S
C1721 C1722 1.348 1_455 S
C1722 H1714 0.923 . S
C1722 C1721 1.348 1_655 S
C1722 C1725 1.434 . S
C1723 H1715 0.930 . S
C1723 C1724 1.355 . S
C1723 C1725 1.415 . S
C1724 C1723 1.355 . S
C1724 C1726 1.419 . S
C1725 C1720 1.425 1_655 S
C1725 C1722 1.434 . S
C1725 C1723 1.415 . S
C1726 H1716 0.930 . S
C1726 C1724 1.419 . S
C1726 C1727 1.348 1_655 S
C1727 H1717 0.923 . S
C1727 C1720 1.434 . S
C1727 C1726 1.348 1_455 S
H1728 C1734 0.930 . S
H1729 C1737 0.930 . S
H1730 C1738 0.930 . S
H1731 C1739 0.930 . S
H1732 C1742 0.930 . S
H1733 C1743 0.930 . S
C1734 H1728 0.930 . S
C1734 C1735 1.355 . S
C1734 C1736 1.415 . S
C1735 C1734 1.355 . S
C1735 C1737 1.419 . S
C1736 C1734 1.415 . S
C1736 C1741 1.425 1_455 S
C1736 C1743 1.409 . S
C1737 H1729 0.930 . S
C1737 C1735 1.419 . S
C1737 C1738 1.362 1_455 S
C1738 H1730 0.930 . S
C1738 C1737 1.362 1_655 S
C1738 C1741 1.409 . S
C1739 H1731 0.930 . S
C1739 C1740 1.355 . S
C1739 C1741 1.415 . S
C1740 C1739 1.355 . S
C1740 C1742 1.419 . S
C1741 C1736 1.425 1_655 S
C1741 C1738 1.409 . S
C1741 C1739 1.415 . S
C1742 H1732 0.930 . S
C1742 C1740 1.419 . S
C1742 C1743 1.362 1_655 S
C1743 H1733 0.930 . S
C1743 C1736 1.409 . S
C1743 C1742 1.362 1_455 S
H1744 C1750 0.930 . S
H1745 C1753 0.930 . S
H1746 C1754 0.930 . S
H1747 C1755 0.930 . S
H1748 C1758 0.930 . S
H1749 C1759 0.930 . S
C1750 H1744 0.930 . S
C1750 C1751 1.355 . S
C1750 C1752 1.415 . S
C1751 C1750 1.355 . S
C1751 C1753 1.419 . S
C1752 C1750 1.415 . S
C1752 C1757 1.425 . S
C1752 C1759 1.409 . S
C1753 H1745 0.930 . S
C1753 C1751 1.419 . S
C1753 C1754 1.362 . S
C1754 H1746 0.930 . S
C1754 C1753 1.362 . S
C1754 C1757 1.409 . S
C1755 H1747 0.930 . S
C1755 C1756 1.355 . S
C1755 C1757 1.415 . S
C1756 C1755 1.355 . S
C1756 C1758 1.419 . S
C1757 C1752 1.425 . S
C1757 C1754 1.409 . S
C1757 C1755 1.415 . S
C1758 H1748 0.930 . S
C1758 C1756 1.419 . S
C1758 C1759 1.362 . S
C1759 H1749 0.930 . S
C1759 C1752 1.409 . S
C1759 C1758 1.362 . S
H1760 C1766 0.930 . S
H1761 C1769 0.930 . S
H1762 C1770 0.930 1_545 S
H1763 C1771 0.930 . S
H1764 C1774 0.930 . S
H1765 C1775 0.930 1_565 S
C1766 H1760 0.930 . S
C1766 C1767 1.355 . S
C1766 C1768 1.415 . S
C1767 C1766 1.355 . S
C1767 C1769 1.419 . S
C1768 C1766 1.415 . S
C1768 C1773 1.425 1_565 S
C1768 C1775 1.409 1_565 S
C1769 H1761 0.930 . S
C1769 C1767 1.419 . S
C1769 C1770 1.362 . S
C1770 H1762 0.930 1_565 S
C1770 C1769 1.362 . S
C1770 C1773 1.409 1_565 S
C1771 H1763 0.930 . S
C1771 C1772 1.355 . S
C1771 C1773 1.415 . S
C1772 C1771 1.355 . S
C1772 C1774 1.419 . S
C1773 C1768 1.425 1_545 S
C1773 C1770 1.409 1_545 S
C1773 C1771 1.415 . S
C1774 H1764 0.930 . S
C1774 C1772 1.419 . S
C1774 C1775 1.362 . S
C1775 H1765 0.930 1_545 S
C1775 C1768 1.409 1_545 S
C1775 C1774 1.362 . S
H1776 C1782 0.930 . S
H1777 C1785 0.914 1_455 S
H1778 C1786 0.930 . S
H1779 C1787 0.930 . S
H1780 C1790 0.913 1_655 S
H1781 C1791 0.930 . S
C1782 H1776 0.930 . S
C1782 C1783 1.355 . S
C1782 C1784 1.415 . S
C1783 C1782 1.355 . S
C1783 C1785 1.419 . S
C1784 C1782 1.415 . S
C1784 C1789 1.425 1_655 S
C1784 C1791 1.409 . S
C1785 H1777 0.914 1_655 S
C1785 C1783 1.419 . S
C1785 C1786 1.362 1_655 S
C1786 H1778 0.930 . S
C1786 C1785 1.362 1_455 S
C1786 C1789 1.409 . S
C1787 H1779 0.930 . S
C1787 C1788 1.355 . S
C1787 C1789 1.415 . S
C1788 C1787 1.355 . S
C1788 C1790 1.419 . S
C1789 C1784 1.425 1_455 S
C1789 C1786 1.409 . S
C1789 C1787 1.415 . S
C1790 H1780 0.913 1_455 S
C1790 C1788 1.419 . S
C1790 C1791 1.362 1_455 S
C1791 H1781 0.930 . S
C1791 C1784 1.409 . S
C1791 C1790 1.362 1_655 S
H1792 C1798 0.930 . S
H1793 C1801 0.930 . S
H1794 C1802 0.930 . S
H1795 C1803 0.930 . S
H1796 C1806 0.930 . S
H1797 C1807 0.930 . S
C1798 H1792 0.930 . S
C1798 C1799 1.355 . S
C1798 C1800 1.415 . S
C1799 C1798 1.355 . S
C1799 C1801 1.419 . S
C1800 C1798 1.415 . S
C1800 C1805 1.425 . S
C1800 C1807 1.409 . S
C1801 H1793 0.930 . S
C1801 C1799 1.419 . S
C1801 C1802 1.362 . S
C1802 H1794 0.930 . S
C1802 C1801 1.362 . S
C1802 C1805 1.409 . S
C1803 H1795 0.930 . S
C1803 C1804 1.355 . S
C1803 C1805 1.415 . S
C1804 C1803 1.355 . S
C1804 C1806 1.419 . S
C1805 C1800 1.425 . S
C1805 C1802 1.409 . S
C1805 C1803 1.415 . S
C1806 H1796 0.930 . S
C1806 C1804 1.419 . S
C1806 C1807 1.362 . S
C1807 H1797 0.930 . S
C1807 C1800 1.409 . S
C1807 C1806 1.362 . S
H1808 C1814 0.930 . S
H1809 C1817 0.929 1_565 S
H1810 C1818 0.930 . S
H1811 C1819 0.930 . S
H1812 C1822 0.930 1_545 S
H1813 C1823 0.930 . S
C1814 H1808 0.930 . S
C1814 C1815 1.355 . S
C1814 C1816 1.415 . S
C1815 C1814 1.355 . S
C1815 C1817 1.422 . S
C1816 C1814 1.415 . S
C1816 C1821 1.425 1_545 S
C1816 C1823 1.409 . S
C1817 H1809 0.929 1_545 S
C1817 C1815 1.422 . S
C1817 C1818 1.360 1_545 S
C1818 H1810 0.930 . S
C1818 C1817 1.360 1_565 S
C1818 C1821 1.409 . S
C1819 H1811 0.930 . S
C1819 C1820 1.355 . S
C1819 C1821 1.415 . S
C1820 C1819 1.355 . S
C1820 C1822 1.419 . S
C1821 C1816 1.425 1_565 S
C1821 C1818 1.409 . S
C1821 C1819 1.415 . S
C1822 H1812 0.930 1_565 S
C1822 C1820 1.419 . S
C1822 C1823 1.362 1_565 S
C1823 H1813 0.930 . S
C1823 C1816 1.409 . S
C1823 C1822 1.362 1_545 S
H1824 C1830 0.930 . S
H1825 C1833 0.930 . S
H1826 C1834 0.930 . S
H1827 C1835 0.930 . S
H1828 C1838 0.930 . S
H1829 C1839 0.930 . S
C1830 H1824 0.930 . S
C1830 C1831 1.355 . S
C1830 C1832 1.415 . S
C1831 C1830 1.355 . S
C1831 C1833 1.419 . S
C1832 C1830 1.415 . S
C1832 C1837 1.425 . S
C1832 C1839 1.409 . S
C1833 H1825 0.930 . S
C1833 C1831 1.419 . S
C1833 C1834 1.362 . S
C1834 H1826 0.930 . S
C1834 C1833 1.362 . S
C1834 C1837 1.409 . S
C1835 H1827 0.930 . S
C1835 C1836 1.355 . S
C1835 C1837 1.415 . S
C1836 C1835 1.355 . S
C1836 C1838 1.419 . S
C1837 C1832 1.425 . S
C1837 C1834 1.409 . S
C1837 C1835 1.415 . S
C1838 H1828 0.930 . S
C1838 C1836 1.419 . S
C1838 C1839 1.362 . S
C1839 H1829 0.930 . S
C1839 C1832 1.409 . S
C1839 C1838 1.362 . S
H1840 C1846 0.930 . S
H1841 C1849 0.930 . S
H1842 C1850 0.930 . S
H1843 C1851 0.930 . S
H1844 C1854 0.930 . S
H1845 C1855 0.930 . S
C1846 H1840 0.930 . S
C1846 C1847 1.355 . S
C1846 C1848 1.415 . S
C1847 C1846 1.355 . S
C1847 C1849 1.419 . S
C1848 C1846 1.415 . S
C1848 C1853 1.425 . S
C1848 C1855 1.409 . S
C1849 H1841 0.930 . S
C1849 C1847 1.419 . S
C1849 C1850 1.362 . S
C1850 H1842 0.930 . S
C1850 C1849 1.362 . S
C1850 C1853 1.409 . S
C1851 H1843 0.930 . S
C1851 C1852 1.355 . S
C1851 C1853 1.415 . S
C1852 C1851 1.355 . S
C1852 C1854 1.419 . S
C1853 C1848 1.425 . S
C1853 C1850 1.409 . S
C1853 C1851 1.415 . S
C1854 H1844 0.930 . S
C1854 C1852 1.419 . S
C1854 C1855 1.362 . S
C1855 H1845 0.930 . S
C1855 C1848 1.409 . S
C1855 C1854 1.362 . S
H1856 C1862 0.930 . S
H1857 C1865 0.930 . S
H1858 C1866 0.930 . S
H1859 C1867 0.930 . S
H1860 C1870 0.930 . S
H1861 C1871 0.930 . S
C1862 H1856 0.930 . S
C1862 C1863 1.355 . S
C1862 C1864 1.415 . S
C1863 C1862 1.355 . S
C1863 C1865 1.419 . S
C1864 C1862 1.415 . S
C1864 C1869 1.425 . S
C1864 C1871 1.409 . S
C1865 H1857 0.930 . S
C1865 C1863 1.419 . S
C1865 C1866 1.362 . S
C1866 H1858 0.930 . S
C1866 C1865 1.362 . S
C1866 C1869 1.409 . S
C1867 H1859 0.930 . S
C1867 C1868 1.355 . S
C1867 C1869 1.415 . S
C1868 C1867 1.355 . S
C1868 C1870 1.419 . S
C1869 C1864 1.425 . S
C1869 C1866 1.409 . S
C1869 C1867 1.415 . S
C1870 H1860 0.930 . S
C1870 C1868 1.419 . S
C1870 C1871 1.362 . S
C1871 H1861 0.930 . S
C1871 C1864 1.409 . S
C1871 C1870 1.362 . S
H1872 C1878 0.930 . S
H1873 C1881 0.930 . S
H1874 C1882 0.930 . S
H1875 C1883 0.930 . S
H1876 C1886 0.930 . S
H1877 C1887 0.930 . S
C1878 H1872 0.930 . S
C1878 C1879 1.355 . S
C1878 C1880 1.415 . S
C1879 C1878 1.355 . S
C1879 C1881 1.419 . S
C1880 C1878 1.415 . S
C1880 C1885 1.425 . S
C1880 C1887 1.409 . S
C1881 H1873 0.930 . S
C1881 C1879 1.419 . S
C1881 C1882 1.362 . S
C1882 H1874 0.930 . S
C1882 C1881 1.362 . S
C1882 C1885 1.409 . S
C1883 H1875 0.930 . S
C1883 C1884 1.355 . S
C1883 C1885 1.415 . S
C1884 C1883 1.355 . S
C1884 C1886 1.419 . S
C1885 C1880 1.425 . S
C1885 C1882 1.409 . S
C1885 C1883 1.415 . S
C1886 H1876 0.930 . S
C1886 C1884 1.419 . S
C1886 C1887 1.362 . S
C1887 H1877 0.930 . S
C1887 C1880 1.409 . S
C1887 C1886 1.362 . S
H1888 C1894 0.930 . S
H1889 C1897 0.930 . S
H1890 C1898 0.930 . S
H1891 C1899 0.930 . S
H1892 C1902 0.930 . S
H1893 C1903 0.930 . S
C1894 H1888 0.930 . S
C1894 C1895 1.355 . S
C1894 C1896 1.415 . S
C1895 C1894 1.355 . S
C1895 C1897 1.419 . S
C1896 C1894 1.415 . S
C1896 C1901 1.425 . S
C1896 C1903 1.409 . S
C1897 H1889 0.930 . S
C1897 C1895 1.419 . S
C1897 C1898 1.362 . S
C1898 H1890 0.930 . S
C1898 C1897 1.362 . S
C1898 C1901 1.409 . S
C1899 H1891 0.930 . S
C1899 C1900 1.355 . S
C1899 C1901 1.415 . S
C1900 C1899 1.355 . S
C1900 C1902 1.419 . S
C1901 C1896 1.425 . S
C1901 C1898 1.409 . S
C1901 C1899 1.415 . S
C1902 H1892 0.930 . S
C1902 C1900 1.419 . S
C1902 C1903 1.362 . S
C1903 H1893 0.930 . S
C1903 C1896 1.409 . S
C1903 C1902 1.362 . S
H1904 C1910 0.930 . S
H1905 C1913 0.930 . S
H1906 C1914 0.930 . S
H1907 C1915 0.930 . S
H1908 C1918 0.930 . S
H1909 C1919 0.930 . S
C1910 H1904 0.930 . S
C1910 C1911 1.355 . S
C1910 C1912 1.415 . S
C1911 C1910 1.355 . S
C1911 C1913 1.419 . S
C1912 C1910 1.415 . S
C1912 C1917 1.425 . S
C1912 C1919 1.409 . S
C1913 H1905 0.930 . S
C1913 C1911 1.419 . S
C1913 C1914 1.362 . S
C1914 H1906 0.930 . S
C1914 C1913 1.362 . S
C1914 C1917 1.409 . S
C1915 H1907 0.930 . S
C1915 C1916 1.355 . S
C1915 C1917 1.415 . S
C1916 C1915 1.355 . S
C1916 C1918 1.419 . S
C1917 C1912 1.425 . S
C1917 C1914 1.409 . S
C1917 C1915 1.415 . S
C1918 H1908 0.930 . S
C1918 C1916 1.419 . S
C1918 C1919 1.362 . S
C1919 H1909 0.930 . S
C1919 C1912 1.409 . S
C1919 C1918 1.362 . S
H1920 C1926 0.930 . S
H1921 C1929 0.930 . S
H1922 C1930 0.930 . S
H1923 C1931 0.930 . S
H1924 C1934 0.930 . S
H1925 C1935 0.930 . S
C1926 H1920 0.930 . S
C1926 C1927 1.355 . S
C1926 C1928 1.415 . S
C1927 C1926 1.355 . S
C1927 C1929 1.419 . S
C1928 C1926 1.415 . S
C1928 C1933 1.425 . S
C1928 C1935 1.409 . S
C1929 H1921 0.930 . S
C1929 C1927 1.419 . S
C1929 C1930 1.362 . S
C1930 H1922 0.930 . S
C1930 C1929 1.362 . S
C1930 C1933 1.409 . S
C1931 H1923 0.930 . S
C1931 C1932 1.355 . S
C1931 C1933 1.415 . S
C1932 C1931 1.355 . S
C1932 C1934 1.419 . S
C1933 C1928 1.425 . S
C1933 C1930 1.409 . S
C1933 C1931 1.415 . S
C1934 H1924 0.930 . S
C1934 C1932 1.419 . S
C1934 C1935 1.362 . S
C1935 H1925 0.930 . S
C1935 C1928 1.409 . S
C1935 C1934 1.362 . S
H1936 C1942 0.930 . S
H1937 C1945 0.930 . S
H1938 C1946 0.930 . S
H1939 C1947 0.930 . S
H1940 C1950 0.930 . S
H1941 C1951 0.930 . S
C1942 H1936 0.930 . S
C1942 C1943 1.355 . S
C1942 C1944 1.415 . S
C1943 C1942 1.355 . S
C1943 C1945 1.419 . S
C1944 C1942 1.415 . S
C1944 C1949 1.425 . S
C1944 C1951 1.409 . S
C1945 H1937 0.930 . S
C1945 C1943 1.419 . S
C1945 C1946 1.362 . S
C1946 H1938 0.930 . S
C1946 C1945 1.362 . S
C1946 C1949 1.409 . S
C1947 H1939 0.930 . S
C1947 C1948 1.355 . S
C1947 C1949 1.415 . S
C1948 C1947 1.355 . S
C1948 C1950 1.419 . S
C1949 C1944 1.425 . S
C1949 C1946 1.409 . S
C1949 C1947 1.415 . S
C1950 H1940 0.930 . S
C1950 C1948 1.419 . S
C1950 C1951 1.362 . S
C1951 H1941 0.930 . S
C1951 C1944 1.409 . S
C1951 C1950 1.362 . S
H1952 C1958 0.930 . S
H1953 C1961 0.930 . S
H1954 C1962 0.930 . S
H1955 C1963 0.930 . S
H1956 C1966 0.930 . S
H1957 C1967 0.930 . S
C1958 H1952 0.930 . S
C1958 C1959 1.355 . S
C1958 C1960 1.415 . S
C1959 C1958 1.355 . S
C1959 C1961 1.419 . S
C1960 C1958 1.415 . S
C1960 C1965 1.425 . S
C1960 C1967 1.409 . S
C1961 H1953 0.930 . S
C1961 C1959 1.419 . S
C1961 C1962 1.362 . S
C1962 H1954 0.930 . S
C1962 C1961 1.362 . S
C1962 C1965 1.409 . S
C1963 H1955 0.930 . S
C1963 C1964 1.355 . S
C1963 C1965 1.415 . S
C1964 C1963 1.355 . S
C1964 C1966 1.419 . S
C1965 C1960 1.425 . S
C1965 C1962 1.409 . S
C1965 C1963 1.415 . S
C1966 H1956 0.930 . S
C1966 C1964 1.419 . S
C1966 C1967 1.362 . S
C1967 H1957 0.930 . S
C1967 C1960 1.409 . S
C1967 C1966 1.362 . S
H1968 C1974 0.930 . S
H1969 C1977 0.930 . S
H1970 C1978 0.930 . S
H1971 C1979 0.930 . S
H1972 C1982 0.930 . S
H1973 C1983 0.930 . S
C1974 H1968 0.930 . S
C1974 C1975 1.355 . S
C1974 C1976 1.415 1_556 S
C1975 C1974 1.355 . S
C1975 C1977 1.419 1_556 S
C1976 C1974 1.415 1_554 S
C1976 C1981 1.425 . S
C1976 C1983 1.409 . S
C1977 H1969 0.930 . S
C1977 C1975 1.419 1_554 S
C1977 C1978 1.362 . S
C1978 H1970 0.930 . S
C1978 C1977 1.362 . S
C1978 C1981 1.409 . S
C1979 H1971 0.930 . S
C1979 C1980 1.355 . S
C1979 C1981 1.415 . S
C1980 C1979 1.355 . S
C1980 C1982 1.419 . S
C1981 C1976 1.425 . S
C1981 C1978 1.409 . S
C1981 C1979 1.415 . S
C1982 H1972 0.930 . S
C1982 C1980 1.419 . S
C1982 C1983 1.362 . S
C1983 H1973 0.930 . S
C1983 C1976 1.409 . S
C1983 C1982 1.362 . S
H1984 C1990 0.930 . S
H1985 C1993 0.930 . S
H1986 C1994 0.930 . S
H1987 C1995 0.930 . S
H1988 C1998 0.930 . S
H1989 C1999 0.930 . S
C1990 H1984 0.930 . S
C1990 C1991 1.355 1_554 S
C1990 C1992 1.415 . S
C1991 C1990 1.355 1_556 S
C1991 C1993 1.419 . S
C1992 C1990 1.415 . S
C1992 C1997 1.425 . S
C1992 C1999 1.409 . S
C1993 H1985 0.930 . S
C1993 C1991 1.419 . S
C1993 C1994 1.362 . S
C1994 H1986 0.930 . S
C1994 C1993 1.362 . S
C1994 C1997 1.409 1_556 S
C1995 H1987 0.930 . S
C1995 C1996 1.355 . S
C1995 C1997 1.415 . S
C1996 C1995 1.355 . S
C1996 C1998 1.419 . S
C1997 C1992 1.425 . S
C1997 C1994 1.409 1_554 S
C1997 C1995 1.415 . S
C1998 H1988 0.930 . S
C1998 C1996 1.419 . S
C1998 C1999 1.362 . S
C1999 H1989 0.930 . S
C1999 C1992 1.409 . S
C1999 C1998 1.362 . S
H2000 C2006 0.930 . S
H2001 C2009 0.930 . S
H2002 C2010 0.928 1_556 S
H2003 C2011 0.930 . S
H2004 C2014 0.930 . S
H2005 C2015 0.930 . S
C2006 H2000 0.930 . S
C2006 C2007 1.355 1_554 S
C2006 C2008 1.415 . S
C2007 C2006 1.355 1_556 S
C2007 C2009 1.419 . S
C2008 C2006 1.415 . S
C2008 C2013 1.425 . S
C2008 C2015 1.409 . S
C2009 H2001 0.930 . S
C2009 C2007 1.419 . S
C2009 C2010 1.362 1_556 S
C2010 H2002 0.928 1_554 S
C2010 C2009 1.362 1_554 S
C2010 C2013 1.409 . S
C2011 H2003 0.930 . S
C2011 C2012 1.355 . S
C2011 C2013 1.415 . S
C2012 C2011 1.355 . S
C2012 C2014 1.419 . S
C2013 C2008 1.425 . S
C2013 C2010 1.409 . S
C2013 C2011 1.415 . S
C2014 H2004 0.930 . S
C2014 C2012 1.419 . S
C2014 C2015 1.362 . S
C2015 H2005 0.930 . S
C2015 C2008 1.409 . S
C2015 C2014 1.362 . S
H2016 C2022 0.930 . S
H2017 C2025 0.930 . S
H2018 C2026 0.930 . S
H2019 C2027 0.930 . S
H2020 C2030 0.930 . S
H2021 C2031 0.930 . S
C2022 H2016 0.930 . S
C2022 C2023 1.355 . S
C2022 C2024 1.415 . S
C2023 C2022 1.355 . S
C2023 C2025 1.419 . S
C2024 C2022 1.415 . S
C2024 C2029 1.425 . S
C2024 C2031 1.409 1_556 S
C2025 H2017 0.930 . S
C2025 C2023 1.419 . S
C2025 C2026 1.362 . S
C2026 H2018 0.930 . S
C2026 C2025 1.362 . S
C2026 C2029 1.409 . S
C2027 H2019 0.930 . S
C2027 C2028 1.355 . S
C2027 C2029 1.415 1_554 S
C2028 C2027 1.355 . S
C2028 C2030 1.419 . S
C2029 C2024 1.425 . S
C2029 C2026 1.409 . S
C2029 C2027 1.415 1_556 S
C2030 H2020 0.930 . S
C2030 C2028 1.419 . S
C2030 C2031 1.362 . S
C2031 H2021 0.930 . S
C2031 C2024 1.409 1_554 S
C2031 C2030 1.362 . S
H2032 C2038 0.930 . S
H2033 C2041 0.930 . S
H2034 C2042 0.930 . S
H2035 C2043 0.930 . S
H2036 C2046 0.930 . S
H2037 C2047 0.930 . S
C2038 H2032 0.930 . S
C2038 C2039 1.355 . S
C2038 C2040 1.415 . S
C2039 C2038 1.355 . S
C2039 C2041 1.419 . S
C2040 C2038 1.415 . S
C2040 C2045 1.425 1_554 S
C2040 C2047 1.409 . S
C2041 H2033 0.930 . S
C2041 C2039 1.419 . S
C2041 C2042 1.362 1_554 S
C2042 H2034 0.930 . S
C2042 C2041 1.362 1_556 S
C2042 C2045 1.409 . S
C2043 H2035 0.930 . S
C2043 C2044 1.355 . S
C2043 C2045 1.415 . S
C2044 C2043 1.355 . S
C2044 C2046 1.419 . S
C2045 C2040 1.425 1_556 S
C2045 C2042 1.409 . S
C2045 C2043 1.415 . S
C2046 H2036 0.930 . S
C2046 C2044 1.419 . S
C2046 C2047 1.362 1_556 S
C2047 H2037 0.930 . S
C2047 C2040 1.409 . S
C2047 C2046 1.362 1_554 S
H2048 C2054 0.930 . S
H2049 C2057 0.930 . S
H2050 C2058 0.930 . S
H2051 C2059 0.930 . S
H2052 C2062 0.930 . S
H2053 C2063 0.930 . S
C2054 H2048 0.930 . S
C2054 C2055 1.355 . S
C2054 C2056 1.415 1_554 S
C2055 C2054 1.355 . S
C2055 C2057 1.419 . S
C2056 C2054 1.415 1_556 S
C2056 C2061 1.425 . S
C2056 C2063 1.409 . S
C2057 H2049 0.930 . S
C2057 C2055 1.419 . S
C2057 C2058 1.362 . S
C2058 H2050 0.930 . S
C2058 C2057 1.362 . S
C2058 C2061 1.409 1_554 S
C2059 H2051 0.930 . S
C2059 C2060 1.355 . S
C2059 C2061 1.415 . S
C2060 C2059 1.355 . S
C2060 C2062 1.419 . S
C2061 C2056 1.425 . S
C2061 C2058 1.409 1_556 S
C2061 C2059 1.415 . S
C2062 H2052 0.930 . S
C2062 C2060 1.419 . S
C2062 C2063 1.362 . S
C2063 H2053 0.930 . S
C2063 C2056 1.409 . S
C2063 C2062 1.362 . S
H2064 C2070 0.930 . S
H2065 C2073 0.930 . S
H2066 C2074 0.930 . S
H2067 C2075 0.930 . S
H2068 C2078 0.930 . S
H2069 C2079 0.930 . S
C2070 H2064 0.930 . S
C2070 C2071 1.355 . S
C2070 C2072 1.415 . S
C2071 C2070 1.355 . S
C2071 C2073 1.419 . S
C2072 C2070 1.415 . S
C2072 C2077 1.425 . S
C2072 C2079 1.409 . S
C2073 H2065 0.930 . S
C2073 C2071 1.419 . S
C2073 C2074 1.362 . S
C2074 H2066 0.930 . S
C2074 C2073 1.362 . S
C2074 C2077 1.409 . S
C2075 H2067 0.930 . S
C2075 C2076 1.355 . S
C2075 C2077 1.415 . S
C2076 C2075 1.355 . S
C2076 C2078 1.419 . S
C2077 C2072 1.425 . S
C2077 C2074 1.409 . S
C2077 C2075 1.415 . S
C2078 H2068 0.930 . S
C2078 C2076 1.419 . S
C2078 C2079 1.362 . S
C2079 H2069 0.930 . S
C2079 C2072 1.409 . S
C2079 C2078 1.362 . S
H2080 C2086 0.930 . S
H2081 C2089 0.930 . S
H2082 C2090 0.930 . S
H2083 C2091 0.930 . S
H2084 C2094 0.930 . S
H2085 C2095 0.930 . S
C2086 H2080 0.930 . S
C2086 C2087 1.355 . S
C2086 C2088 1.415 . S
C2087 C2086 1.355 . S
C2087 C2089 1.419 . S
C2088 C2086 1.415 . S
C2088 C2093 1.425 . S
C2088 C2095 1.409 . S
C2089 H2081 0.930 . S
C2089 C2087 1.419 . S
C2089 C2090 1.362 . S
C2090 H2082 0.930 . S
C2090 C2089 1.362 . S
C2090 C2093 1.409 . S
C2091 H2083 0.930 . S
C2091 C2092 1.355 . S
C2091 C2093 1.415 . S
C2092 C2091 1.355 . S
C2092 C2094 1.419 . S
C2093 C2088 1.425 . S
C2093 C2090 1.409 . S
C2093 C2091 1.415 . S
C2094 H2084 0.930 . S
C2094 C2092 1.419 . S
C2094 C2095 1.362 . S
C2095 H2085 0.930 . S
C2095 C2088 1.409 . S
C2095 C2094 1.362 . S
H2096 C2102 0.930 . S
H2097 C2105 0.930 . S
H2098 C2106 0.930 . S
H2099 C2107 0.930 . S
H2100 C2110 0.930 . S
H2101 C2111 0.930 . S
C2102 H2096 0.930 . S
C2102 C2103 1.355 . S
C2102 C2104 1.415 . S
C2103 C2102 1.355 . S
C2103 C2105 1.419 . S
C2104 C2102 1.415 . S
C2104 C2109 1.425 . S
C2104 C2111 1.409 . S
C2105 H2097 0.930 . S
C2105 C2103 1.419 . S
C2105 C2106 1.362 . S
C2106 H2098 0.930 . S
C2106 C2105 1.362 . S
C2106 C2109 1.409 . S
C2107 H2099 0.930 . S
C2107 C2108 1.355 . S
C2107 C2109 1.415 . S
C2108 C2107 1.355 . S
C2108 C2110 1.419 . S
C2109 C2104 1.425 . S
C2109 C2106 1.409 . S
C2109 C2107 1.415 . S
C2110 H2100 0.930 . S
C2110 C2108 1.419 . S
C2110 C2111 1.362 . S
C2111 H2101 0.930 . S
C2111 C2104 1.409 . S
C2111 C2110 1.362 . S
H2112 C2118 0.930 . S
H2113 C2121 0.930 . S
H2114 C2122 0.930 . S
H2115 C2123 0.930 . S
H2116 C2126 0.930 . S
H2117 C2127 0.930 . S
C2118 H2112 0.930 . S
C2118 C2119 1.355 . S
C2118 C2120 1.415 . S
C2119 C2118 1.355 . S
C2119 C2121 1.419 . S
C2120 C2118 1.415 . S
C2120 C2125 1.425 . S
C2120 C2127 1.409 . S
C2121 H2113 0.930 . S
C2121 C2119 1.419 . S
C2121 C2122 1.362 . S
C2122 H2114 0.930 . S
C2122 C2121 1.362 . S
C2122 C2125 1.409 . S
C2123 H2115 0.930 . S
C2123 C2124 1.355 . S
C2123 C2125 1.415 . S
C2124 C2123 1.355 . S
C2124 C2126 1.419 . S
C2125 C2120 1.425 . S
C2125 C2122 1.409 . S
C2125 C2123 1.415 . S
C2126 H2116 0.930 . S
C2126 C2124 1.419 . S
C2126 C2127 1.362 . S
C2127 H2117 0.930 . S
C2127 C2120 1.409 . S
C2127 C2126 1.362 . S
H2128 C2134 0.930 . S
H2129 C2137 0.930 . S
H2130 C2138 0.930 . S
H2131 C2139 0.930 . S
H2132 C2142 0.930 . S
H2133 C2143 0.930 . S
C2134 H2128 0.930 . S
C2134 C2135 1.355 . S
C2134 C2136 1.415 . S
C2135 C2134 1.355 . S
C2135 C2137 1.419 . S
C2136 C2134 1.415 . S
C2136 C2141 1.425 . S
C2136 C2143 1.409 . S
C2137 H2129 0.930 . S
C2137 C2135 1.419 . S
C2137 C2138 1.362 . S
C2138 H2130 0.930 . S
C2138 C2137 1.362 . S
C2138 C2141 1.409 . S
C2139 H2131 0.930 . S
C2139 C2140 1.355 . S
C2139 C2141 1.415 . S
C2140 C2139 1.355 . S
C2140 C2142 1.419 . S
C2141 C2136 1.425 . S
C2141 C2138 1.409 . S
C2141 C2139 1.415 . S
C2142 H2132 0.930 . S
C2142 C2140 1.419 . S
C2142 C2143 1.362 . S
C2143 H2133 0.930 . S
C2143 C2136 1.409 . S
C2143 C2142 1.362 . S
H2144 C2150 0.930 . S
H2145 C2153 0.930 . S
H2146 C2154 0.930 . S
H2147 C2155 0.930 . S
H2148 C2158 0.930 . S
H2149 C2159 0.930 . S
C2150 H2144 0.930 . S
C2150 C2151 1.355 . S
C2150 C2152 1.415 . S
C2151 C2150 1.355 . S
C2151 C2153 1.419 . S
C2152 C2150 1.415 . S
C2152 C2157 1.425 . S
C2152 C2159 1.409 . S
C2153 H2145 0.930 . S
C2153 C2151 1.419 . S
C2153 C2154 1.362 . S
C2154 H2146 0.930 . S
C2154 C2153 1.362 . S
C2154 C2157 1.409 . S
C2155 H2147 0.930 . S
C2155 C2156 1.355 . S
C2155 C2157 1.415 . S
C2156 C2155 1.355 . S
C2156 C2158 1.419 . S
C2157 C2152 1.425 . S
C2157 C2154 1.409 . S
C2157 C2155 1.415 . S
C2158 H2148 0.930 . S
C2158 C2156 1.419 . S
C2158 C2159 1.362 . S
C2159 H2149 0.930 . S
C2159 C2152 1.409 . S
C2159 C2158 1.362 . S
H2160 C2166 0.930 . S
H2161 C2169 0.930 . S
H2162 C2170 0.930 . S
H2163 C2171 0.930 . S
H2164 C2174 0.930 . S
H2165 C2175 0.930 . S
C2166 H2160 0.930 . S
C2166 C2167 1.355 . S
C2166 C2168 1.415 . S
C2167 C2166 1.355 . S
C2167 C2169 1.419 . S
C2168 C2166 1.415 . S
C2168 C2173 1.425 . S
C2168 C2175 1.409 . S
C2169 H2161 0.930 . S
C2169 C2167 1.419 . S
C2169 C2170 1.362 . S
C2170 H2162 0.930 . S
C2170 C2169 1.362 . S
C2170 C2173 1.409 . S
C2171 H2163 0.930 . S
C2171 C2172 1.355 . S
C2171 C2173 1.415 . S
C2172 C2171 1.355 . S
C2172 C2174 1.419 . S
C2173 C2168 1.425 . S
C2173 C2170 1.409 . S
C2173 C2171 1.415 . S
C2174 H2164 0.930 . S
C2174 C2172 1.419 . S
C2174 C2175 1.362 . S
C2175 H2165 0.930 . S
C2175 C2168 1.409 . S
C2175 C2174 1.362 . S
H2176 C2182 0.930 . S
H2177 C2185 0.930 . S
H2178 C2186 0.930 . S
H2179 C2187 0.930 . S
H2180 C2190 0.930 . S
H2181 C2191 0.930 . S
C2182 H2176 0.930 . S
C2182 C2183 1.355 . S
C2182 C2184 1.415 . S
C2183 C2182 1.355 . S
C2183 C2185 1.419 . S
C2184 C2182 1.415 . S
C2184 C2189 1.425 . S
C2184 C2191 1.409 . S
C2185 H2177 0.930 . S
C2185 C2183 1.419 . S
C2185 C2186 1.362 . S
C2186 H2178 0.930 . S
C2186 C2185 1.362 . S
C2186 C2189 1.409 . S
C2187 H2179 0.930 . S
C2187 C2188 1.355 . S
C2187 C2189 1.415 . S
C2188 C2187 1.355 . S
C2188 C2190 1.419 . S
C2189 C2184 1.425 . S
C2189 C2186 1.409 . S
C2189 C2187 1.415 . S
C2190 H2180 0.930 . S
C2190 C2188 1.419 . S
C2190 C2191 1.362 . S
C2191 H2181 0.930 . S
C2191 C2184 1.409 . S
C2191 C2190 1.362 . S
H2192 C2198 0.930 . S
H2193 C2201 0.930 . S
H2194 C2202 0.930 . S
H2195 C2203 0.930 . S
H2196 C2206 0.930 . S
H2197 C2207 0.930 . S
C2198 H2192 0.930 . S
C2198 C2199 1.355 . S
C2198 C2200 1.415 . S
C2199 C2198 1.355 . S
C2199 C2201 1.419 . S
C2200 C2198 1.415 . S
C2200 C2205 1.425 . S
C2200 C2207 1.409 . S
C2201 H2193 0.930 . S
C2201 C2199 1.419 . S
C2201 C2202 1.362 . S
C2202 H2194 0.930 . S
C2202 C2201 1.362 . S
C2202 C2205 1.409 . S
C2203 H2195 0.930 . S
C2203 C2204 1.355 . S
C2203 C2205 1.415 . S
C2204 C2203 1.355 . S
C2204 C2206 1.419 . S
C2205 C2200 1.425 . S
C2205 C2202 1.409 . S
C2205 C2203 1.415 . S
C2206 H2196 0.930 . S
C2206 C2204 1.419 . S
C2206 C2207 1.362 . S
C2207 H2197 0.930 . S
C2207 C2200 1.409 . S
C2207 C2206 1.362 . S
H2208 C2214 0.930 . S
H2209 C2217 0.930 . S
H2210 C2218 0.930 . S
H2211 C2219 0.930 . S
H2212 C2222 0.930 . S
H2213 C2223 0.930 . S
C2214 H2208 0.930 . S
C2214 C2215 1.355 . S
C2214 C2216 1.415 . S
C2215 C2214 1.355 . S
C2215 C2217 1.419 . S
C2216 C2214 1.415 . S
C2216 C2221 1.425 . S
C2216 C2223 1.409 . S
C2217 H2209 0.930 . S
C2217 C2215 1.419 . S
C2217 C2218 1.362 . S
C2218 H2210 0.930 . S
C2218 C2217 1.362 . S
C2218 C2221 1.409 . S
C2219 H2211 0.930 . S
C2219 C2220 1.355 . S
C2219 C2221 1.415 . S
C2220 C2219 1.355 . S
C2220 C2222 1.419 . S
C2221 C2216 1.425 . S
C2221 C2218 1.409 . S
C2221 C2219 1.415 . S
C2222 H2212 0.930 . S
C2222 C2220 1.419 . S
C2222 C2223 1.362 . S
C2223 H2213 0.930 . S
C2223 C2216 1.409 . S
C2223 C2222 1.362 . S
H2224 C2230 0.930 . S
H2225 C2233 0.930 . S
H2226 C2234 0.930 . S
H2227 C2235 0.930 . S
H2228 C2238 0.930 . S
H2229 C2239 0.930 . S
C2230 H2224 0.930 . S
C2230 C2231 1.355 . S
C2230 C2232 1.415 . S
C2231 C2230 1.355 . S
C2231 C2233 1.419 . S
C2232 C2230 1.415 . S
C2232 C2237 1.425 . S
C2232 C2239 1.409 . S
C2233 H2225 0.930 . S
C2233 C2231 1.419 . S
C2233 C2234 1.362 . S
C2234 H2226 0.930 . S
C2234 C2233 1.362 . S
C2234 C2237 1.409 . S
C2235 H2227 0.930 . S
C2235 C2236 1.355 . S
C2235 C2237 1.415 . S
C2236 C2235 1.355 . S
C2236 C2238 1.419 . S
C2237 C2232 1.425 . S
C2237 C2234 1.409 . S
C2237 C2235 1.415 . S
C2238 H2228 0.930 . S
C2238 C2236 1.419 . S
C2238 C2239 1.362 . S
C2239 H2229 0.930 . S
C2239 C2232 1.409 . S
C2239 C2238 1.362 . S
H2240 C2246 0.930 . S
H2241 C2249 0.930 . S
H2242 C2250 0.930 . S
H2243 C2251 0.930 . S
H2244 C2254 0.930 . S
H2245 C2255 0.930 . S
C2246 H2240 0.930 . S
C2246 C2247 1.355 . S
C2246 C2248 1.415 . S
C2247 C2246 1.355 . S
C2247 C2249 1.419 . S
C2248 C2246 1.415 . S
C2248 C2253 1.425 . S
C2248 C2255 1.409 . S
C2249 H2241 0.930 . S
C2249 C2247 1.419 . S
C2249 C2250 1.362 . S
C2250 H2242 0.930 . S
C2250 C2249 1.362 . S
C2250 C2253 1.409 . S
C2251 H2243 0.930 . S
C2251 C2252 1.355 . S
C2251 C2253 1.415 . S
C2252 C2251 1.355 . S
C2252 C2254 1.419 . S
C2253 C2248 1.425 . S
C2253 C2250 1.409 . S
C2253 C2251 1.415 . S
C2254 H2244 0.930 . S
C2254 C2252 1.419 . S
C2254 C2255 1.362 . S
C2255 H2245 0.930 . S
C2255 C2248 1.409 . S
C2255 C2254 1.362 . S
H2256 C2262 0.930 . S
H2257 C2265 0.930 . S
H2258 C2266 0.930 . S
H2259 C2267 0.930 . S
H2260 C2270 0.930 1_556 S
H2261 C2271 0.930 . S
C2262 H2256 0.930 . S
C2262 C2263 1.355 . S
C2262 C2264 1.415 . S
C2263 C2262 1.355 . S
C2263 C2265 1.419 . S
C2264 C2262 1.415 . S
C2264 C2269 1.425 . S
C2264 C2271 1.409 . S
C2265 H2257 0.930 . S
C2265 C2263 1.419 . S
C2265 C2266 1.362 . S
C2266 H2258 0.930 . S
C2266 C2265 1.362 . S
C2266 C2269 1.409 . S
C2267 H2259 0.930 . S
C2267 C2268 1.355 . S
C2267 C2269 1.415 . S
C2268 C2267 1.355 . S
C2268 C2270 1.419 . S
C2269 C2264 1.425 . S
C2269 C2266 1.409 . S
C2269 C2267 1.415 . S
C2270 H2260 0.930 1_554 S
C2270 C2268 1.419 . S
C2270 C2271 1.362 . S
C2271 H2261 0.930 . S
C2271 C2264 1.409 . S
C2271 C2270 1.362 . S
H2272 C2278 0.930 . S
H2273 C2281 0.930 . S
H2274 C2282 0.930 . S
H2275 C2283 0.930 . S
H2276 C2286 0.930 . S
H2277 C2287 0.930 . S
C2278 H2272 0.930 . S
C2278 C2279 1.355 . S
C2278 C2280 1.415 . S
C2279 C2278 1.355 . S
C2279 C2281 1.419 . S
C2280 C2278 1.415 . S
C2280 C2285 1.425 . S
C2280 C2287 1.409 . S
C2281 H2273 0.930 . S
C2281 C2279 1.419 . S
C2281 C2282 1.362 . S
C2282 H2274 0.930 . S
C2282 C2281 1.362 . S
C2282 C2285 1.409 . S
C2283 H2275 0.930 . S
C2283 C2284 1.355 . S
C2283 C2285 1.415 . S
C2284 C2283 1.355 . S
C2284 C2286 1.419 . S
C2285 C2280 1.425 . S
C2285 C2282 1.409 . S
C2285 C2283 1.415 . S
C2286 H2276 0.930 . S
C2286 C2284 1.419 . S
C2286 C2287 1.362 . S
C2287 H2277 0.930 . S
C2287 C2280 1.409 . S
C2287 C2286 1.362 . S
H2288 C2294 0.930 . S
H2289 C2297 0.930 . S
H2290 C2298 0.930 . S
H2291 C2299 0.930 . S
H2292 C2302 0.909 1_556 S
H2293 C2303 0.930 . S
C2294 H2288 0.930 . S
C2294 C2295 1.355 . S
C2294 C2296 1.415 . S
C2295 C2294 1.355 . S
C2295 C2297 1.419 . S
C2296 C2294 1.415 . S
C2296 C2301 1.425 . S
C2296 C2303 1.409 . S
C2297 H2289 0.930 . S
C2297 C2295 1.419 . S
C2297 C2298 1.362 . S
C2298 H2290 0.930 . S
C2298 C2297 1.362 . S
C2298 C2301 1.409 . S
C2299 H2291 0.930 . S
C2299 C2300 1.355 . S
C2299 C2301 1.415 . S
C2300 C2299 1.355 . S
C2300 C2302 1.419 . S
C2301 C2296 1.425 . S
C2301 C2298 1.409 . S
C2301 C2299 1.415 . S
C2302 H2292 0.909 1_554 S
C2302 C2300 1.419 . S
C2302 C2303 1.362 . S
C2303 H2293 0.930 . S
C2303 C2296 1.409 . S
C2303 C2302 1.362 . S
H2304 C2310 0.930 . S
H2305 C2313 0.930 . S
H2306 C2314 0.930 . S
H2307 C2315 0.930 . S
H2308 C2318 0.930 . S
H2309 C2319 0.930 . S
C2310 H2304 0.930 . S
C2310 C2311 1.355 . S
C2310 C2312 1.415 . S
C2311 C2310 1.355 . S
C2311 C2313 1.419 . S
C2312 C2310 1.415 . S
C2312 C2317 1.425 . S
C2312 C2319 1.409 . S
C2313 H2305 0.930 . S
C2313 C2311 1.419 . S
C2313 C2314 1.362 . S
C2314 H2306 0.930 . S
C2314 C2313 1.362 . S
C2314 C2317 1.409 . S
C2315 H2307 0.930 . S
C2315 C2316 1.355 . S
C2315 C2317 1.415 . S
C2316 C2315 1.355 . S
C2316 C2318 1.419 . S
C2317 C2312 1.425 . S
C2317 C2314 1.409 . S
C2317 C2315 1.415 . S
C2318 H2308 0.930 . S
C2318 C2316 1.419 . S
C2318 C2319 1.362 . S
C2319 H2309 0.930 . S
C2319 C2312 1.409 . S
C2319 C2318 1.362 . S
H2320 C2326 0.930 . S
H2321 C2329 0.930 . S
H2322 C2330 0.930 . S
H2323 C2331 0.930 . S
H2324 C2334 0.930 . S
H2325 C2335 0.930 . S
C2326 H2320 0.930 . S
C2326 C2327 1.355 . S
C2326 C2328 1.415 . S
C2327 C2326 1.355 . S
C2327 C2329 1.419 . S
C2328 C2326 1.415 . S
C2328 C2333 1.425 . S
C2328 C2335 1.409 . S
C2329 H2321 0.930 . S
C2329 C2327 1.419 . S
C2329 C2330 1.362 . S
C2330 H2322 0.930 . S
C2330 C2329 1.362 . S
C2330 C2333 1.409 . S
C2331 H2323 0.930 . S
C2331 C2332 1.355 . S
C2331 C2333 1.415 . S
C2332 C2331 1.355 . S
C2332 C2334 1.419 . S
C2333 C2328 1.425 . S
C2333 C2330 1.409 . S
C2333 C2331 1.415 . S
C2334 H2324 0.930 . S
C2334 C2332 1.419 . S
C2334 C2335 1.362 . S
C2335 H2325 0.930 . S
C2335 C2328 1.409 . S
C2335 C2334 1.362 . S
H2336 C2342 0.930 . S
H2337 C2345 0.930 . S
H2338 C2346 0.930 . S
H2339 C2347 0.930 . S
H2340 C2350 0.930 . S
H2341 C2351 0.930 . S
C2342 H2336 0.930 . S
C2342 C2343 1.355 . S
C2342 C2344 1.415 . S
C2343 C2342 1.355 . S
C2343 C2345 1.419 . S
C2344 C2342 1.415 . S
C2344 C2349 1.425 . S
C2344 C2351 1.409 . S
C2345 H2337 0.930 . S
C2345 C2343 1.419 . S
C2345 C2346 1.362 . S
C2346 H2338 0.930 . S
C2346 C2345 1.362 . S
C2346 C2349 1.409 . S
C2347 H2339 0.930 . S
C2347 C2348 1.355 . S
C2347 C2349 1.415 . S
C2348 C2347 1.355 . S
C2348 C2350 1.419 . S
C2349 C2344 1.425 . S
C2349 C2346 1.409 . S
C2349 C2347 1.415 . S
C2350 H2340 0.930 . S
C2350 C2348 1.419 . S
C2350 C2351 1.362 . S
C2351 H2341 0.930 . S
C2351 C2344 1.409 . S
C2351 C2350 1.362 . S
H2352 C2358 0.930 . S
H2353 C2361 0.930 . S
H2354 C2362 0.930 . S
H2355 C2363 0.930 . S
H2356 C2366 0.930 . S
H2357 C2367 0.930 . S
C2358 H2352 0.930 . S
C2358 C2359 1.355 . S
C2358 C2360 1.415 . S
C2359 C2358 1.355 . S
C2359 C2361 1.419 . S
C2360 C2358 1.415 . S
C2360 C2365 1.425 . S
C2360 C2367 1.409 . S
C2361 H2353 0.930 . S
C2361 C2359 1.419 . S
C2361 C2362 1.362 . S
C2362 H2354 0.930 . S
C2362 C2361 1.362 . S
C2362 C2365 1.409 . S
C2363 H2355 0.930 . S
C2363 C2364 1.355 . S
C2363 C2365 1.415 . S
C2364 C2363 1.355 . S
C2364 C2366 1.419 . S
C2365 C2360 1.425 . S
C2365 C2362 1.409 . S
C2365 C2363 1.415 . S
C2366 H2356 0.930 . S
C2366 C2364 1.419 . S
C2366 C2367 1.362 . S
C2367 H2357 0.930 . S
C2367 C2360 1.409 . S
C2367 C2366 1.362 . S
H2368 C2374 0.930 . S
H2369 C2377 0.930 . S
H2370 C2378 0.930 . S
H2371 C2379 0.930 . S
H2372 C2382 0.930 . S
H2373 C2383 0.930 . S
C2374 H2368 0.930 . S
C2374 C2375 1.355 . S
C2374 C2376 1.415 . S
C2375 C2374 1.355 . S
C2375 C2377 1.419 . S
C2376 C2374 1.415 . S
C2376 C2381 1.425 . S
C2376 C2383 1.409 . S
C2377 H2369 0.930 . S
C2377 C2375 1.419 . S
C2377 C2378 1.362 . S
C2378 H2370 0.930 . S
C2378 C2377 1.362 . S
C2378 C2381 1.409 . S
C2379 H2371 0.930 . S
C2379 C2380 1.355 . S
C2379 C2381 1.415 . S
C2380 C2379 1.355 . S
C2380 C2382 1.419 . S
C2381 C2376 1.425 . S
C2381 C2378 1.409 . S
C2381 C2379 1.415 . S
C2382 H2372 0.930 . S
C2382 C2380 1.419 . S
C2382 C2383 1.362 . S
C2383 H2373 0.930 . S
C2383 C2376 1.409 . S
C2383 C2382 1.362 . S
H2384 C2390 0.930 . S
H2385 C2393 0.930 . S
H2386 C2394 0.930 . S
H2387 C2395 0.930 . S
H2388 C2398 0.930 . S
H2389 C2399 0.930 . S
C2390 H2384 0.930 . S
C2390 C2391 1.355 . S
C2390 C2392 1.415 . S
C2391 C2390 1.355 . S
C2391 C2393 1.419 . S
C2392 C2390 1.415 . S
C2392 C2397 1.425 . S
C2392 C2399 1.409 . S
C2393 H2385 0.930 . S
C2393 C2391 1.419 . S
C2393 C2394 1.362 . S
C2394 H2386 0.930 . S
C2394 C2393 1.362 . S
C2394 C2397 1.409 . S
C2395 H2387 0.930 . S
C2395 C2396 1.355 . S
C2395 C2397 1.415 . S
C2396 C2395 1.355 . S
C2396 C2398 1.419 . S
C2397 C2392 1.425 . S
C2397 C2394 1.409 . S
C2397 C2395 1.415 . S
C2398 H2388 0.930 . S
C2398 C2396 1.419 . S
C2398 C2399 1.362 . S
C2399 H2389 0.930 . S
C2399 C2392 1.409 . S
C2399 C2398 1.362 . S
H2400 C2406 0.930 . S
H2401 C2409 0.930 . S
H2402 C2410 0.930 . S
H2403 C2411 0.930 . S
H2404 C2414 0.930 . S
H2405 C2415 0.930 . S
C2406 H2400 0.930 . S
C2406 C2407 1.355 . S
C2406 C2408 1.415 . S
C2407 C2406 1.355 . S
C2407 C2409 1.419 . S
C2408 C2406 1.415 . S
C2408 C2413 1.425 . S
C2408 C2415 1.409 . S
C2409 H2401 0.930 . S
C2409 C2407 1.419 . S
C2409 C2410 1.362 . S
C2410 H2402 0.930 . S
C2410 C2409 1.362 . S
C2410 C2413 1.409 . S
C2411 H2403 0.930 . S
C2411 C2412 1.355 . S
C2411 C2413 1.415 . S
C2412 C2411 1.355 . S
C2412 C2414 1.419 . S
C2413 C2408 1.425 . S
C2413 C2410 1.409 . S
C2413 C2411 1.415 . S
C2414 H2404 0.930 . S
C2414 C2412 1.419 . S
C2414 C2415 1.362 . S
C2415 H2405 0.930 . S
C2415 C2408 1.409 . S
C2415 C2414 1.362 . S
H2416 C2422 0.930 . S
H2417 C2425 0.930 . S
H2418 C2426 0.930 . S
H2419 C2427 0.930 . S
H2420 C2430 0.930 . S
H2421 C2431 0.930 . S
C2422 H2416 0.930 . S
C2422 C2423 1.355 . S
C2422 C2424 1.415 . S
C2423 C2422 1.355 . S
C2423 C2425 1.419 . S
C2424 C2422 1.415 . S
C2424 C2429 1.425 . S
C2424 C2431 1.409 . S
C2425 H2417 0.930 . S
C2425 C2423 1.419 . S
C2425 C2426 1.362 . S
C2426 H2418 0.930 . S
C2426 C2425 1.362 . S
C2426 C2429 1.409 . S
C2427 H2419 0.930 . S
C2427 C2428 1.355 . S
C2427 C2429 1.415 . S
C2428 C2427 1.355 . S
C2428 C2430 1.419 . S
C2429 C2424 1.425 . S
C2429 C2426 1.409 . S
C2429 C2427 1.415 . S
C2430 H2420 0.930 . S
C2430 C2428 1.419 . S
C2430 C2431 1.362 . S
C2431 H2421 0.930 . S
C2431 C2424 1.409 . S
C2431 C2430 1.362 . S
H2432 C2438 0.930 . S
H2433 C2441 0.930 . S
H2434 C2442 0.930 . S
H2435 C2443 0.930 . S
H2436 C2446 0.930 . S
H2437 C2447 0.930 . S
C2438 H2432 0.930 . S
C2438 C2439 1.355 . S
C2438 C2440 1.415 . S
C2439 C2438 1.355 . S
C2439 C2441 1.419 . S
C2440 C2438 1.415 . S
C2440 C2445 1.425 . S
C2440 C2447 1.409 . S
C2441 H2433 0.930 . S
C2441 C2439 1.419 . S
C2441 C2442 1.362 . S
C2442 H2434 0.930 . S
C2442 C2441 1.362 . S
C2442 C2445 1.409 . S
C2443 H2435 0.930 . S
C2443 C2444 1.355 . S
C2443 C2445 1.415 . S
C2444 C2443 1.355 . S
C2444 C2446 1.419 . S
C2445 C2440 1.425 . S
C2445 C2442 1.409 . S
C2445 C2443 1.415 . S
C2446 H2436 0.930 . S
C2446 C2444 1.419 . S
C2446 C2447 1.362 . S
C2447 H2437 0.930 . S
C2447 C2440 1.409 . S
C2447 C2446 1.362 . S
H2448 C2454 0.930 . S
H2449 C2457 0.930 . S
H2450 C2458 0.930 . S
H2451 C2459 0.930 . S
H2452 C2462 0.930 . S
H2453 C2463 0.930 . S
C2454 H2448 0.930 . S
C2454 C2455 1.355 . S
C2454 C2456 1.415 . S
C2455 C2454 1.355 . S
C2455 C2457 1.419 . S
C2456 C2454 1.415 . S
C2456 C2461 1.425 . S
C2456 C2463 1.409 . S
C2457 H2449 0.930 . S
C2457 C2455 1.419 . S
C2457 C2458 1.362 . S
C2458 H2450 0.930 . S
C2458 C2457 1.362 . S
C2458 C2461 1.409 . S
C2459 H2451 0.930 . S
C2459 C2460 1.355 . S
C2459 C2461 1.415 . S
C2460 C2459 1.355 . S
C2460 C2462 1.419 . S
C2461 C2456 1.425 . S
C2461 C2458 1.409 . S
C2461 C2459 1.415 . S
C2462 H2452 0.930 . S
C2462 C2460 1.419 . S
C2462 C2463 1.362 . S
C2463 H2453 0.930 . S
C2463 C2456 1.409 . S
C2463 C2462 1.362 . S
H2464 C2470 0.930 . S
H2465 C2473 0.930 . S
H2466 C2474 0.930 . S
H2467 C2475 0.930 . S
H2468 C2478 0.930 . S
H2469 C2479 0.930 . S
C2470 H2464 0.930 . S
C2470 C2471 1.355 . S
C2470 C2472 1.415 . S
C2471 C2470 1.355 . S
C2471 C2473 1.419 . S
C2472 C2470 1.415 . S
C2472 C2477 1.425 . S
C2472 C2479 1.409 . S
C2473 H2465 0.930 . S
C2473 C2471 1.419 . S
C2473 C2474 1.362 . S
C2474 H2466 0.930 . S
C2474 C2473 1.362 . S
C2474 C2477 1.409 . S
C2475 H2467 0.930 . S
C2475 C2476 1.355 . S
C2475 C2477 1.415 . S
C2476 C2475 1.355 . S
C2476 C2478 1.419 . S
C2477 C2472 1.425 . S
C2477 C2474 1.409 . S
C2477 C2475 1.415 . S
C2478 H2468 0.930 . S
C2478 C2476 1.419 . S
C2478 C2479 1.362 . S
C2479 H2469 0.930 . S
C2479 C2472 1.409 . S
C2479 C2478 1.362 . S
H2480 C2486 0.930 . S
H2481 C2489 0.930 . S
H2482 C2490 0.930 . S
H2483 C2491 0.930 . S
H2484 C2494 0.930 . S
H2485 C2495 0.930 . S
C2486 H2480 0.930 . S
C2486 C2487 1.355 . S
C2486 C2488 1.415 . S
C2487 C2486 1.355 . S
C2487 C2489 1.419 . S
C2488 C2486 1.415 . S
C2488 C2493 1.425 . S
C2488 C2495 1.409 . S
C2489 H2481 0.930 . S
C2489 C2487 1.419 . S
C2489 C2490 1.362 . S
C2490 H2482 0.930 . S
C2490 C2489 1.362 . S
C2490 C2493 1.409 . S
C2491 H2483 0.930 . S
C2491 C2492 1.355 . S
C2491 C2493 1.415 . S
C2492 C2491 1.355 . S
C2492 C2494 1.419 . S
C2493 C2488 1.425 . S
C2493 C2490 1.409 . S
C2493 C2491 1.415 . S
C2494 H2484 0.930 . S
C2494 C2492 1.419 . S
C2494 C2495 1.362 . S
C2495 H2485 0.930 . S
C2495 C2488 1.409 . S
C2495 C2494 1.362 . S
H2496 C2502 0.930 . S
H2497 C2505 0.930 . S
H2498 C2506 0.930 . S
H2499 C2507 0.930 . S
H2500 C2510 0.930 1_554 S
H2501 C2511 0.930 . S
C2502 H2496 0.930 . S
C2502 C2503 1.355 . S
C2502 C2504 1.415 . S
C2503 C2502 1.355 . S
C2503 C2505 1.419 . S
C2504 C2502 1.415 . S
C2504 C2509 1.425 . S
C2504 C2511 1.409 . S
C2505 H2497 0.930 . S
C2505 C2503 1.419 . S
C2505 C2506 1.362 . S
C2506 H2498 0.930 . S
C2506 C2505 1.362 . S
C2506 C2509 1.409 . S
C2507 H2499 0.930 . S
C2507 C2508 1.355 . S
C2507 C2509 1.415 . S
C2508 C2507 1.355 . S
C2508 C2510 1.419 . S
C2509 C2504 1.425 . S
C2509 C2506 1.409 . S
C2509 C2507 1.415 . S
C2510 H2500 0.930 1_556 S
C2510 C2508 1.419 . S
C2510 C2511 1.362 . S
C2511 H2501 0.930 . S
C2511 C2504 1.409 . S
C2511 C2510 1.362 . S
H2512 C2518 0.930 . S
H2513 C2521 0.934 . S
H2514 C2522 0.930 . S
H2515 C2523 0.930 . S
H2516 C2526 0.930 . S
H2517 C2527 0.930 . S
C2518 H2512 0.930 . S
C2518 C2519 1.355 . S
C2518 C2520 1.415 . S
C2519 C2518 1.355 . S
C2519 C2521 1.419 . S
C2520 C2518 1.415 . S
C2520 C2525 1.425 . S
C2520 C2527 1.409 . S
C2521 H2513 0.934 . S
C2521 C2519 1.419 . S
C2521 C2522 1.362 . S
C2522 H2514 0.930 . S
C2522 C2521 1.362 . S
C2522 C2525 1.409 . S
C2523 H2515 0.930 . S
C2523 C2524 1.355 . S
C2523 C2525 1.415 . S
C2524 C2523 1.355 . S
C2524 C2526 1.419 . S
C2525 C2520 1.425 . S
C2525 C2522 1.409 . S
C2525 C2523 1.415 . S
C2526 H2516 0.930 . S
C2526 C2524 1.419 . S
C2526 C2527 1.362 . S
C2527 H2517 0.930 . S
C2527 C2520 1.409 . S
C2527 C2526 1.362 . S
H2528 C2534 0.930 . S
H2529 C2537 0.930 . S
H2530 C2538 0.930 . S
H2531 C2539 0.930 . S
H2532 C2542 0.930 1_554 S
H2533 C2543 0.930 . S
C2534 H2528 0.930 . S
C2534 C2535 1.355 . S
C2534 C2536 1.415 . S
C2535 C2534 1.355 . S
C2535 C2537 1.419 . S
C2536 C2534 1.415 . S
C2536 C2541 1.425 . S
C2536 C2543 1.409 . S
C2537 H2529 0.930 . S
C2537 C2535 1.419 . S
C2537 C2538 1.362 . S
C2538 H2530 0.930 . S
C2538 C2537 1.362 . S
C2538 C2541 1.409 . S
C2539 H2531 0.930 . S
C2539 C2540 1.355 . S
C2539 C2541 1.415 . S
C2540 C2539 1.355 . S
C2540 C2542 1.419 . S
C2541 C2536 1.425 . S
C2541 C2538 1.409 . S
C2541 C2539 1.415 . S
C2542 H2532 0.930 1_556 S
C2542 C2540 1.419 . S
C2542 C2543 1.362 . S
C2543 H2533 0.930 . S
C2543 C2536 1.409 . S
C2543 C2542 1.362 . S
H2544 C2550 0.930 . S
H2545 C2553 0.930 . S
H2546 C2554 0.930 . S
H2547 C2555 0.930 . S
H2548 C2558 0.930 . S
H2549 C2559 0.930 . S
C2550 H2544 0.930 . S
C2550 C2551 1.355 . S
C2550 C2552 1.415 . S
C2551 C2550 1.355 . S
C2551 C2553 1.419 . S
C2552 C2550 1.415 . S
C2552 C2557 1.425 . S
C2552 C2559 1.409 . S
C2553 H2545 0.930 . S
C2553 C2551 1.419 . S
C2553 C2554 1.362 . S
C2554 H2546 0.930 . S
C2554 C2553 1.362 . S
C2554 C2557 1.409 . S
C2555 H2547 0.930 . S
C2555 C2556 1.355 . S
C2555 C2557 1.415 . S
C2556 C2555 1.355 . S
C2556 C2558 1.419 . S
C2557 C2552 1.425 . S
C2557 C2554 1.409 . S
C2557 C2555 1.415 . S
C2558 H2548 0.930 . S
C2558 C2556 1.419 . S
C2558 C2559 1.362 . S
C2559 H2549 0.930 . S
C2559 C2552 1.409 . S
C2559 C2558 1.362 . S
H2560 C2566 0.930 . S
H2561 C2569 0.930 . S
H2562 C2570 0.930 . S
H2563 C2571 0.930 . S
H2564 C2574 0.930 . S
H2565 C2575 0.930 . S
C2566 H2560 0.930 . S
C2566 C2567 1.355 . S
C2566 C2568 1.415 . S
C2567 C2566 1.355 . S
C2567 C2569 1.419 . S
C2568 C2566 1.415 . S
C2568 C2573 1.425 . S
C2568 C2575 1.409 . S
C2569 H2561 0.930 . S
C2569 C2567 1.419 . S
C2569 C2570 1.362 . S
C2570 H2562 0.930 . S
C2570 C2569 1.362 . S
C2570 C2573 1.409 . S
C2571 H2563 0.930 . S
C2571 C2572 1.355 . S
C2571 C2573 1.415 . S
C2572 C2571 1.355 . S
C2572 C2574 1.419 . S
C2573 C2568 1.425 . S
C2573 C2570 1.409 . S
C2573 C2571 1.415 . S
C2574 H2564 0.930 . S
C2574 C2572 1.419 . S
C2574 C2575 1.362 . S
C2575 H2565 0.930 . S
C2575 C2568 1.409 . S
C2575 C2574 1.362 . S
H2576 C2582 0.930 . S
H2577 C2585 0.930 . S
H2578 C2586 0.930 . S
H2579 C2587 0.930 . S
H2580 C2590 0.930 . S
H2581 C2591 0.930 . S
C2582 H2576 0.930 . S
C2582 C2583 1.355 . S
C2582 C2584 1.415 . S
C2583 C2582 1.355 . S
C2583 C2585 1.419 . S
C2584 C2582 1.415 . S
C2584 C2589 1.425 . S
C2584 C2591 1.409 . S
C2585 H2577 0.930 . S
C2585 C2583 1.419 . S
C2585 C2586 1.362 . S
C2586 H2578 0.930 . S
C2586 C2585 1.362 . S
C2586 C2589 1.409 . S
C2587 H2579 0.930 . S
C2587 C2588 1.355 . S
C2587 C2589 1.415 . S
C2588 C2587 1.355 . S
C2588 C2590 1.419 . S
C2589 C2584 1.425 . S
C2589 C2586 1.409 . S
C2589 C2587 1.415 . S
C2590 H2580 0.930 . S
C2590 C2588 1.419 . S
C2590 C2591 1.362 . S
C2591 H2581 0.930 . S
C2591 C2584 1.409 . S
C2591 C2590 1.362 . S
H2592 C2598 0.930 . S
H2593 C2601 0.930 1_655 S
H2594 C2602 0.930 . S
H2595 C2603 0.930 . S
H2596 C2606 0.930 1_455 S
H2597 C2607 0.930 . S
C2598 H2592 0.930 . S
C2598 C2599 1.355 . S
C2598 C2600 1.415 . S
C2599 C2598 1.355 . S
C2599 C2601 1.419 . S
C2600 C2598 1.415 . S
C2600 C2605 1.425 1_455 S
C2600 C2607 1.409 . S
C2601 H2593 0.930 1_455 S
C2601 C2599 1.419 . S
C2601 C2602 1.362 1_455 S
C2602 H2594 0.930 . S
C2602 C2601 1.362 1_655 S
C2602 C2605 1.409 . S
C2603 H2595 0.930 . S
C2603 C2604 1.355 . S
C2603 C2605 1.415 . S
C2604 C2603 1.355 . S
C2604 C2606 1.419 . S
C2605 C2600 1.425 1_655 S
C2605 C2602 1.409 . S
C2605 C2603 1.415 . S
C2606 H2596 0.930 1_655 S
C2606 C2604 1.419 . S
C2606 C2607 1.362 1_655 S
C2607 H2597 0.930 . S
C2607 C2600 1.409 . S
C2607 C2606 1.362 1_455 S
H2608 C2614 0.930 . S
H2609 C2617 0.930 . S
H2610 C2618 0.930 . S
H2611 C2619 0.930 . S
H2612 C2622 0.930 . S
H2613 C2623 0.930 . S
C2614 H2608 0.930 . S
C2614 C2615 1.355 . S
C2614 C2616 1.415 . S
C2615 C2614 1.355 . S
C2615 C2617 1.419 . S
C2616 C2614 1.415 . S
C2616 C2621 1.425 . S
C2616 C2623 1.409 . S
C2617 H2609 0.930 . S
C2617 C2615 1.419 . S
C2617 C2618 1.362 . S
C2618 H2610 0.930 . S
C2618 C2617 1.362 . S
C2618 C2621 1.409 . S
C2619 H2611 0.930 . S
C2619 C2620 1.355 . S
C2619 C2621 1.415 . S
C2620 C2619 1.355 . S
C2620 C2622 1.419 . S
C2621 C2616 1.425 . S
C2621 C2618 1.409 . S
C2621 C2619 1.415 . S
C2622 H2612 0.930 . S
C2622 C2620 1.419 . S
C2622 C2623 1.362 . S
C2623 H2613 0.930 . S
C2623 C2616 1.409 . S
C2623 C2622 1.362 . S
H2624 C2630 0.930 1_545 S
H2625 C2633 0.930 . S
H2626 C2634 0.930 . S
H2627 C2635 0.930 1_565 S
H2628 C2638 0.930 . S
H2629 C2639 0.930 . S
C2630 H2624 0.930 1_565 S
C2630 C2631 1.355 . S
C2630 C2632 1.415 1_565 S
C2631 C2630 1.355 . S
C2631 C2633 1.419 . S
C2632 C2630 1.415 1_545 S
C2632 C2637 1.425 1_545 S
C2632 C2639 1.409 . S
C2633 H2625 0.930 . S
C2633 C2631 1.419 . S
C2633 C2634 1.362 . S
C2634 H2626 0.930 . S
C2634 C2633 1.362 . S
C2634 C2637 1.409 . S
C2635 H2627 0.930 1_545 S
C2635 C2636 1.355 . S
C2635 C2637 1.415 1_545 S
C2636 C2635 1.355 . S
C2636 C2638 1.419 . S
C2637 C2632 1.425 1_565 S
C2637 C2634 1.409 . S
C2637 C2635 1.415 1_565 S
C2638 H2628 0.930 . S
C2638 C2636 1.419 . S
C2638 C2639 1.362 . S
C2639 H2629 0.930 . S
C2639 C2632 1.409 . S
C2639 C2638 1.362 . S
H2640 C2646 0.930 . S
H2641 C2649 0.935 . S
H2642 C2650 0.930 . S
H2643 C2651 0.930 . S
H2644 C2654 0.935 . S
H2645 C2655 0.930 . S
C2646 H2640 0.930 . S
C2646 C2647 1.355 . S
C2646 C2648 1.415 . S
C2647 C2646 1.355 . S
C2647 C2649 1.402 1_655 S
C2648 C2646 1.415 . S
C2648 C2653 1.425 1_655 S
C2648 C2655 1.409 . S
C2649 H2641 0.935 . S
C2649 C2647 1.402 1_455 S
C2649 C2650 1.375 . S
C2650 H2642 0.930 . S
C2650 C2649 1.375 . S
C2650 C2653 1.409 . S
C2651 H2643 0.930 . S
C2651 C2652 1.355 . S
C2651 C2653 1.415 . S
C2652 C2651 1.355 . S
C2652 C2654 1.400 1_455 S
C2653 C2648 1.425 1_455 S
C2653 C2650 1.409 . S
C2653 C2651 1.415 . S
C2654 H2644 0.935 . S
C2654 C2652 1.400 1_655 S
C2654 C2655 1.377 . S
C2655 H2645 0.930 . S
C2655 C2648 1.409 . S
C2655 C2654 1.377 . S
H2656 C2662 0.930 . S
H2657 C2665 0.930 . S
H2658 C2666 0.930 . S
H2659 C2667 0.930 . S
H2660 C2670 0.930 . S
H2661 C2671 0.930 . S
C2662 H2656 0.930 . S
C2662 C2663 1.355 . S
C2662 C2664 1.415 . S
C2663 C2662 1.355 . S
C2663 C2665 1.419 . S
C2664 C2662 1.415 . S
C2664 C2669 1.425 . S
C2664 C2671 1.409 . S
C2665 H2657 0.930 . S
C2665 C2663 1.419 . S
C2665 C2666 1.362 . S
C2666 H2658 0.930 . S
C2666 C2665 1.362 . S
C2666 C2669 1.409 . S
C2667 H2659 0.930 . S
C2667 C2668 1.355 . S
C2667 C2669 1.415 . S
C2668 C2667 1.355 . S
C2668 C2670 1.419 . S
C2669 C2664 1.425 . S
C2669 C2666 1.409 . S
C2669 C2667 1.415 . S
C2670 H2660 0.930 . S
C2670 C2668 1.419 . S
C2670 C2671 1.362 . S
C2671 H2661 0.930 . S
C2671 C2664 1.409 . S
C2671 C2670 1.362 . S
H2672 C2678 0.931 . S
H2673 C2681 0.930 . S
H2674 C2682 0.930 . S
H2675 C2683 0.931 . S
H2676 C2686 0.930 . S
H2677 C2687 0.930 . S
C2678 H2672 0.931 . S
C2678 C2679 1.355 . S
C2678 C2680 1.415 1_545 S
C2679 C2678 1.355 . S
C2679 C2681 1.419 . S
C2680 C2678 1.415 1_565 S
C2680 C2685 1.425 1_565 S
C2680 C2687 1.409 . S
C2681 H2673 0.930 . S
C2681 C2679 1.419 . S
C2681 C2682 1.362 . S
C2682 H2674 0.930 . S
C2682 C2681 1.362 . S
C2682 C2685 1.409 . S
C2683 H2675 0.931 . S
C2683 C2684 1.355 . S
C2683 C2685 1.415 1_565 S
C2684 C2683 1.355 . S
C2684 C2686 1.419 . S
C2685 C2680 1.425 1_545 S
C2685 C2682 1.409 . S
C2685 C2683 1.415 1_545 S
C2686 H2676 0.930 . S
C2686 C2684 1.419 . S
C2686 C2687 1.362 . S
C2687 H2677 0.930 . S
C2687 C2680 1.409 . S
C2687 C2686 1.362 . S
H2688 C2694 0.930 . S
H2689 C2697 0.930 . S
H2690 C2698 0.930 . S
H2691 C2699 0.930 . S
H2692 C2702 0.930 . S
H2693 C2703 0.930 . S
C2694 H2688 0.930 . S
C2694 C2695 1.355 . S
C2694 C2696 1.415 . S
C2695 C2694 1.355 . S
C2695 C2697 1.419 . S
C2696 C2694 1.415 . S
C2696 C2701 1.425 . S
C2696 C2703 1.409 . S
C2697 H2689 0.930 . S
C2697 C2695 1.419 . S
C2697 C2698 1.362 . S
C2698 H2690 0.930 . S
C2698 C2697 1.362 . S
C2698 C2701 1.409 . S
C2699 H2691 0.930 . S
C2699 C2700 1.355 . S
C2699 C2701 1.415 . S
C2700 C2699 1.355 . S
C2700 C2702 1.419 . S
C2701 C2696 1.425 . S
C2701 C2698 1.409 . S
C2701 C2699 1.415 . S
C2702 H2692 0.930 . S
C2702 C2700 1.419 . S
C2702 C2703 1.362 . S
C2703 H2693 0.930 . S
C2703 C2696 1.409 . S
C2703 C2702 1.362 . S
H2704 C2710 0.930 . S
H2705 C2713 0.930 . S
H2706 C2714 0.930 . S
H2707 C2715 0.930 . S
H2708 C2718 0.930 . S
H2709 C2719 0.930 . S
C2710 H2704 0.930 . S
C2710 C2711 1.355 . S
C2710 C2712 1.415 . S
C2711 C2710 1.355 . S
C2711 C2713 1.419 . S
C2712 C2710 1.415 . S
C2712 C2717 1.425 . S
C2712 C2719 1.409 . S
C2713 H2705 0.930 . S
C2713 C2711 1.419 . S
C2713 C2714 1.362 . S
C2714 H2706 0.930 . S
C2714 C2713 1.362 . S
C2714 C2717 1.409 . S
C2715 H2707 0.930 . S
C2715 C2716 1.355 . S
C2715 C2717 1.415 . S
C2716 C2715 1.355 . S
C2716 C2718 1.419 . S
C2717 C2712 1.425 . S
C2717 C2714 1.409 . S
C2717 C2715 1.415 . S
C2718 H2708 0.930 . S
C2718 C2716 1.419 . S
C2718 C2719 1.362 . S
C2719 H2709 0.930 . S
C2719 C2712 1.409 . S
C2719 C2718 1.362 . S
H2720 C2726 0.930 . S
H2721 C2729 0.930 . S
H2722 C2730 0.930 . S
H2723 C2731 0.930 . S
H2724 C2734 0.930 . S
H2725 C2735 0.930 . S
C2726 H2720 0.930 . S
C2726 C2727 1.355 . S
C2726 C2728 1.415 . S
C2727 C2726 1.355 . S
C2727 C2729 1.419 . S
C2728 C2726 1.415 . S
C2728 C2733 1.425 . S
C2728 C2735 1.409 . S
C2729 H2721 0.930 . S
C2729 C2727 1.419 . S
C2729 C2730 1.362 . S
C2730 H2722 0.930 . S
C2730 C2729 1.362 . S
C2730 C2733 1.409 . S
C2731 H2723 0.930 . S
C2731 C2732 1.355 . S
C2731 C2733 1.415 . S
C2732 C2731 1.355 . S
C2732 C2734 1.419 . S
C2733 C2728 1.425 . S
C2733 C2730 1.409 . S
C2733 C2731 1.415 . S
C2734 H2724 0.930 . S
C2734 C2732 1.419 . S
C2734 C2735 1.362 . S
C2735 H2725 0.930 . S
C2735 C2728 1.409 . S
C2735 C2734 1.362 . S
H2736 C2742 0.930 . S
H2737 C2745 0.930 . S
H2738 C2746 0.930 . S
H2739 C2747 0.930 . S
H2740 C2750 0.930 . S
H2741 C2751 0.930 . S
C2742 H2736 0.930 . S
C2742 C2743 1.355 . S
C2742 C2744 1.415 . S
C2743 C2742 1.355 . S
C2743 C2745 1.419 . S
C2744 C2742 1.415 . S
C2744 C2749 1.425 . S
C2744 C2751 1.409 . S
C2745 H2737 0.930 . S
C2745 C2743 1.419 . S
C2745 C2746 1.362 . S
C2746 H2738 0.930 . S
C2746 C2745 1.362 . S
C2746 C2749 1.409 . S
C2747 H2739 0.930 . S
C2747 C2748 1.355 . S
C2747 C2749 1.415 . S
C2748 C2747 1.355 . S
C2748 C2750 1.419 . S
C2749 C2744 1.425 . S
C2749 C2746 1.409 . S
C2749 C2747 1.415 . S
C2750 H2740 0.930 . S
C2750 C2748 1.419 . S
C2750 C2751 1.362 . S
C2751 H2741 0.930 . S
C2751 C2744 1.409 . S
C2751 C2750 1.362 . S
H2752 C2758 0.930 . S
H2753 C2761 0.930 . S
H2754 C2762 0.930 . S
H2755 C2763 0.930 . S
H2756 C2766 0.930 . S
H2757 C2767 0.930 . S
C2758 H2752 0.930 . S
C2758 C2759 1.355 . S
C2758 C2760 1.415 . S
C2759 C2758 1.355 . S
C2759 C2761 1.419 . S
C2760 C2758 1.415 . S
C2760 C2765 1.425 . S
C2760 C2767 1.409 . S
C2761 H2753 0.930 . S
C2761 C2759 1.419 . S
C2761 C2762 1.362 . S
C2762 H2754 0.930 . S
C2762 C2761 1.362 . S
C2762 C2765 1.409 . S
C2763 H2755 0.930 . S
C2763 C2764 1.355 . S
C2763 C2765 1.415 . S
C2764 C2763 1.355 . S
C2764 C2766 1.419 . S
C2765 C2760 1.425 . S
C2765 C2762 1.409 . S
C2765 C2763 1.415 . S
C2766 H2756 0.930 . S
C2766 C2764 1.419 . S
C2766 C2767 1.362 . S
C2767 H2757 0.930 . S
C2767 C2760 1.409 . S
C2767 C2766 1.362 . S
H2768 C2774 0.930 . S
H2769 C2777 0.930 . S
H2770 C2778 0.930 . S
H2771 C2779 0.930 . S
H2772 C2782 0.930 . S
H2773 C2783 0.930 . S
C2774 H2768 0.930 . S
C2774 C2775 1.355 . S
C2774 C2776 1.415 . S
C2775 C2774 1.355 . S
C2775 C2777 1.419 . S
C2776 C2774 1.415 . S
C2776 C2781 1.425 . S
C2776 C2783 1.409 . S
C2777 H2769 0.930 . S
C2777 C2775 1.419 . S
C2777 C2778 1.362 . S
C2778 H2770 0.930 . S
C2778 C2777 1.362 . S
C2778 C2781 1.409 . S
C2779 H2771 0.930 . S
C2779 C2780 1.355 . S
C2779 C2781 1.415 . S
C2780 C2779 1.355 . S
C2780 C2782 1.419 . S
C2781 C2776 1.425 . S
C2781 C2778 1.409 . S
C2781 C2779 1.415 . S
C2782 H2772 0.930 . S
C2782 C2780 1.419 . S
C2782 C2783 1.362 . S
C2783 H2773 0.930 . S
C2783 C2776 1.409 . S
C2783 C2782 1.362 . S
H2784 C2790 0.930 . S
H2785 C2793 0.930 . S
H2786 C2794 0.930 . S
H2787 C2795 0.930 . S
H2788 C2798 0.930 . S
H2789 C2799 0.930 . S
C2790 H2784 0.930 . S
C2790 C2791 1.355 . S
C2790 C2792 1.415 . S
C2791 C2790 1.355 . S
C2791 C2793 1.419 . S
C2792 C2790 1.415 . S
C2792 C2797 1.425 . S
C2792 C2799 1.409 1_554 S
C2793 H2785 0.930 . S
C2793 C2791 1.419 . S
C2793 C2794 1.362 . S
C2794 H2786 0.930 . S
C2794 C2793 1.362 . S
C2794 C2797 1.409 . S
C2795 H2787 0.930 . S
C2795 C2796 1.355 1_554 S
C2795 C2797 1.415 . S
C2796 C2795 1.355 1_556 S
C2796 C2798 1.419 . S
C2797 C2792 1.425 . S
C2797 C2794 1.409 . S
C2797 C2795 1.415 . S
C2798 H2788 0.930 . S
C2798 C2796 1.419 . S
C2798 C2799 1.362 . S
C2799 H2789 0.930 . S
C2799 C2792 1.409 1_556 S
C2799 C2798 1.362 . S
H2800 C2806 0.930 . S
H2801 C2809 0.930 . S
H2802 C2810 0.930 . S
H2803 C2811 0.930 . S
H2804 C2814 0.930 . S
H2805 C2815 0.930 . S
C2806 H2800 0.930 . S
C2806 C2807 1.355 . S
C2806 C2808 1.415 1_556 S
C2807 C2806 1.355 . S
C2807 C2809 1.419 1_556 S
C2808 C2806 1.415 1_554 S
C2808 C2813 1.425 . S
C2808 C2815 1.409 . S
C2809 H2801 0.930 . S
C2809 C2807 1.419 1_554 S
C2809 C2810 1.362 . S
C2810 H2802 0.930 . S
C2810 C2809 1.362 . S
C2810 C2813 1.409 . S
C2811 H2803 0.930 . S
C2811 C2812 1.355 . S
C2811 C2813 1.415 . S
C2812 C2811 1.355 . S
C2812 C2814 1.419 . S
C2813 C2808 1.425 . S
C2813 C2810 1.409 . S
C2813 C2811 1.415 . S
C2814 H2804 0.930 . S
C2814 C2812 1.419 . S
C2814 C2815 1.362 . S
C2815 H2805 0.930 . S
C2815 C2808 1.409 . S
C2815 C2814 1.362 . S
H2816 C2822 0.930 . S
H2817 C2825 0.930 . S
H2818 C2826 0.930 . S
H2819 C2827 0.930 . S
H2820 C2830 0.930 . S
H2821 C2831 0.930 . S
C2822 H2816 0.930 . S
C2822 C2823 1.355 1_554 S
C2822 C2824 1.415 . S
C2823 C2822 1.355 1_556 S
C2823 C2825 1.419 . S
C2824 C2822 1.415 . S
C2824 C2829 1.425 . S
C2824 C2831 1.409 . S
C2825 H2817 0.930 . S
C2825 C2823 1.419 . S
C2825 C2826 1.362 1_556 S
C2826 H2818 0.930 . S
C2826 C2825 1.362 1_554 S
C2826 C2829 1.409 . S
C2827 H2819 0.930 . S
C2827 C2828 1.355 . S
C2827 C2829 1.415 . S
C2828 C2827 1.355 . S
C2828 C2830 1.419 . S
C2829 C2824 1.425 . S
C2829 C2826 1.409 . S
C2829 C2827 1.415 . S
C2830 H2820 0.930 . S
C2830 C2828 1.419 . S
C2830 C2831 1.362 . S
C2831 H2821 0.930 . S
C2831 C2824 1.409 . S
C2831 C2830 1.362 . S
H2832 C2838 0.930 . S
H2833 C2841 0.930 . S
H2834 C2842 0.930 . S
H2835 C2843 0.930 . S
H2836 C2846 0.930 . S
H2837 C2847 0.930 . S
C2838 H2832 0.930 . S
C2838 C2839 1.355 . S
C2838 C2840 1.415 . S
C2839 C2838 1.355 . S
C2839 C2841 1.419 . S
C2840 C2838 1.415 . S
C2840 C2845 1.425 . S
C2840 C2847 1.409 . S
C2841 H2833 0.930 . S
C2841 C2839 1.419 . S
C2841 C2842 1.362 . S
C2842 H2834 0.930 . S
C2842 C2841 1.362 . S
C2842 C2845 1.409 . S
C2843 H2835 0.930 . S
C2843 C2844 1.355 . S
C2843 C2845 1.415 . S
C2844 C2843 1.355 . S
C2844 C2846 1.419 . S
C2845 C2840 1.425 . S
C2845 C2842 1.409 . S
C2845 C2843 1.415 . S
C2846 H2836 0.930 . S
C2846 C2844 1.419 . S
C2846 C2847 1.362 . S
C2847 H2837 0.930 . S
C2847 C2840 1.409 . S
C2847 C2846 1.362 . S
H2848 C2854 0.930 . S
H2849 C2857 0.930 . S
H2850 C2858 0.930 . S
H2851 C2859 0.930 . S
H2852 C2862 0.930 . S
H2853 C2863 0.930 . S
C2854 H2848 0.930 . S
C2854 C2855 1.355 . S
C2854 C2856 1.415 . S
C2855 C2854 1.355 . S
C2855 C2857 1.419 . S
C2856 C2854 1.415 . S
C2856 C2861 1.425 . S
C2856 C2863 1.409 . S
C2857 H2849 0.930 . S
C2857 C2855 1.419 . S
C2857 C2858 1.362 . S
C2858 H2850 0.930 . S
C2858 C2857 1.362 . S
C2858 C2861 1.409 . S
C2859 H2851 0.930 . S
C2859 C2860 1.355 . S
C2859 C2861 1.415 . S
C2860 C2859 1.355 . S
C2860 C2862 1.419 . S
C2861 C2856 1.425 . S
C2861 C2858 1.409 . S
C2861 C2859 1.415 . S
C2862 H2852 0.930 . S
C2862 C2860 1.419 . S
C2862 C2863 1.362 . S
C2863 H2853 0.930 . S
C2863 C2856 1.409 . S
C2863 C2862 1.362 . S
H2864 C2870 0.930 . S
H2865 C2873 0.930 . S
H2866 C2874 0.930 . S
H2867 C2875 0.930 . S
H2868 C2878 0.930 . S
H2869 C2879 0.930 . S
C2870 H2864 0.930 . S
C2870 C2871 1.355 . S
C2870 C2872 1.415 . S
C2871 C2870 1.355 . S
C2871 C2873 1.419 . S
C2872 C2870 1.415 . S
C2872 C2877 1.425 . S
C2872 C2879 1.409 . S
C2873 H2865 0.930 . S
C2873 C2871 1.419 . S
C2873 C2874 1.362 . S
C2874 H2866 0.930 . S
C2874 C2873 1.362 . S
C2874 C2877 1.409 . S
C2875 H2867 0.930 . S
C2875 C2876 1.355 . S
C2875 C2877 1.415 . S
C2876 C2875 1.355 . S
C2876 C2878 1.419 . S
C2877 C2872 1.425 . S
C2877 C2874 1.409 . S
C2877 C2875 1.415 . S
C2878 H2868 0.930 . S
C2878 C2876 1.419 . S
C2878 C2879 1.362 . S
C2879 H2869 0.930 . S
C2879 C2872 1.409 . S
C2879 C2878 1.362 . S
H2880 C2886 0.930 . S
H2881 C2889 0.930 . S
H2882 C2890 0.930 . S
H2883 C2891 0.930 . S
H2884 C2894 0.930 . S
H2885 C2895 0.930 . S
C2886 H2880 0.930 . S
C2886 C2887 1.355 . S
C2886 C2888 1.415 1_455 S
C2887 C2886 1.355 . S
C2887 C2889 1.419 . S
C2888 C2886 1.415 1_655 S
C2888 C2893 1.425 1_655 S
C2888 C2895 1.409 . S
C2889 H2881 0.930 . S
C2889 C2887 1.419 . S
C2889 C2890 1.362 . S
C2890 H2882 0.930 . S
C2890 C2889 1.362 . S
C2890 C2893 1.409 . S
C2891 H2883 0.930 . S
C2891 C2892 1.355 . S
C2891 C2893 1.415 1_655 S
C2892 C2891 1.355 . S
C2892 C2894 1.419 . S
C2893 C2888 1.425 1_455 S
C2893 C2890 1.409 . S
C2893 C2891 1.415 1_455 S
C2894 H2884 0.930 . S
C2894 C2892 1.419 . S
C2894 C2895 1.362 . S
C2895 H2885 0.930 . S
C2895 C2888 1.409 . S
C2895 C2894 1.362 . S
H2896 C2902 0.930 . S
H2897 C2905 0.930 . S
H2898 C2906 0.930 . S
H2899 C2907 0.930 . S
H2900 C2910 0.930 . S
H2901 C2911 0.930 . S
C2902 H2896 0.930 . S
C2902 C2903 1.355 . S
C2902 C2904 1.415 . S
C2903 C2902 1.355 . S
C2903 C2905 1.419 . S
C2904 C2902 1.415 . S
C2904 C2909 1.425 . S
C2904 C2911 1.409 . S
C2905 H2897 0.930 . S
C2905 C2903 1.419 . S
C2905 C2906 1.362 . S
C2906 H2898 0.930 . S
C2906 C2905 1.362 . S
C2906 C2909 1.409 . S
C2907 H2899 0.930 . S
C2907 C2908 1.355 . S
C2907 C2909 1.415 . S
C2908 C2907 1.355 . S
C2908 C2910 1.419 . S
C2909 C2904 1.425 . S
C2909 C2906 1.409 . S
C2909 C2907 1.415 . S
C2910 H2900 0.930 . S
C2910 C2908 1.419 . S
C2910 C2911 1.362 . S
C2911 H2901 0.930 . S
C2911 C2904 1.409 . S
C2911 C2910 1.362 . S
H2912 C2918 0.930 . S
H2913 C2921 0.930 . S
H2914 C2922 0.930 . S
H2915 C2923 0.930 . S
H2916 C2926 0.930 . S
H2917 C2927 0.930 . S
C2918 H2912 0.930 . S
C2918 C2919 1.355 . S
C2918 C2920 1.415 1_545 S
C2919 C2918 1.355 . S
C2919 C2921 1.419 . S
C2920 C2918 1.415 1_565 S
C2920 C2925 1.425 1_565 S
C2920 C2927 1.409 . S
C2921 H2913 0.930 . S
C2921 C2919 1.419 . S
C2921 C2922 1.362 . S
C2922 H2914 0.930 . S
C2922 C2921 1.362 . S
C2922 C2925 1.409 . S
C2923 H2915 0.930 . S
C2923 C2924 1.355 . S
C2923 C2925 1.415 1_565 S
C2924 C2923 1.355 . S
C2924 C2926 1.419 . S
C2925 C2920 1.425 1_545 S
C2925 C2922 1.409 . S
C2925 C2923 1.415 1_545 S
C2926 H2916 0.930 . S
C2926 C2924 1.419 . S
C2926 C2927 1.362 . S
C2927 H2917 0.930 . S
C2927 C2920 1.409 . S
C2927 C2926 1.362 . S
H2928 C2934 0.930 . S
H2929 C2937 0.930 . S
H2930 C2938 0.930 . S
H2931 C2939 0.930 . S
H2932 C2942 0.930 . S
H2933 C2943 0.930 . S
C2934 H2928 0.930 . S
C2934 C2935 1.355 . S
C2934 C2936 1.415 . S
C2935 C2934 1.355 . S
C2935 C2937 1.419 . S
C2936 C2934 1.415 . S
C2936 C2941 1.425 1_565 S
C2936 C2943 1.409 . S
C2937 H2929 0.930 . S
C2937 C2935 1.419 . S
C2937 C2938 1.362 1_565 S
C2938 H2930 0.930 . S
C2938 C2937 1.362 1_545 S
C2938 C2941 1.409 . S
C2939 H2931 0.930 . S
C2939 C2940 1.355 . S
C2939 C2941 1.415 . S
C2940 C2939 1.355 . S
C2940 C2942 1.419 . S
C2941 C2936 1.425 1_545 S
C2941 C2938 1.409 . S
C2941 C2939 1.415 . S
C2942 H2932 0.930 . S
C2942 C2940 1.419 . S
C2942 C2943 1.362 1_545 S
C2943 H2933 0.930 . S
C2943 C2936 1.409 . S
C2943 C2942 1.362 1_565 S
H2944 C2950 0.930 . S
H2945 C2953 0.930 . S
H2946 C2954 0.930 . S
H2947 C2955 0.930 . S
H2948 C2958 0.930 . S
H2949 C2959 0.930 . S
C2950 H2944 0.930 . S
C2950 C2951 1.355 . S
C2950 C2952 1.415 . S
C2951 C2950 1.355 . S
C2951 C2953 1.419 . S
C2952 C2950 1.415 . S
C2952 C2957 1.425 1_655 S
C2952 C2959 1.409 . S
C2953 H2945 0.930 . S
C2953 C2951 1.419 . S
C2953 C2954 1.362 1_655 S
C2954 H2946 0.930 . S
C2954 C2953 1.362 1_455 S
C2954 C2957 1.409 . S
C2955 H2947 0.930 . S
C2955 C2956 1.355 . S
C2955 C2957 1.415 . S
C2956 C2955 1.355 . S
C2956 C2958 1.419 . S
C2957 C2952 1.425 1_455 S
C2957 C2954 1.409 . S
C2957 C2955 1.415 . S
C2958 H2948 0.930 . S
C2958 C2956 1.419 . S
C2958 C2959 1.362 1_455 S
C2959 H2949 0.930 . S
C2959 C2952 1.409 . S
C2959 C2958 1.362 1_655 S
H2960 C2966 0.930 . S
H2961 C2969 0.930 . S
H2962 C2970 0.930 . S
H2963 C2971 0.930 . S
H2964 C2974 0.930 . S
H2965 C2975 0.930 . S
C2966 H2960 0.930 . S
C2966 C2967 1.355 . S
C2966 C2968 1.415 . S
C2967 C2966 1.355 . S
C2967 C2969 1.419 . S
C2968 C2966 1.415 . S
C2968 C2973 1.425 . S
C2968 C2975 1.409 . S
C2969 H2961 0.930 . S
C2969 C2967 1.419 . S
C2969 C2970 1.362 . S
C2970 H2962 0.930 . S
C2970 C2969 1.362 . S
C2970 C2973 1.409 . S
C2971 H2963 0.930 . S
C2971 C2972 1.355 . S
C2971 C2973 1.415 . S
C2972 C2971 1.355 . S
C2972 C2974 1.419 . S
C2973 C2968 1.425 . S
C2973 C2970 1.409 . S
C2973 C2971 1.415 . S
C2974 H2964 0.930 . S
C2974 C2972 1.419 . S
C2974 C2975 1.362 . S
C2975 H2965 0.930 . S
C2975 C2968 1.409 . S
C2975 C2974 1.362 . S
H2976 C2982 0.930 . S
H2977 C2985 0.930 . S
H2978 C2986 0.930 . S
H2979 C2987 0.930 . S
H2980 C2990 0.930 . S
H2981 C2991 0.930 . S
C2982 H2976 0.930 . S
C2982 C2983 1.355 . S
C2982 C2984 1.415 . S
C2983 C2982 1.355 . S
C2983 C2985 1.419 . S
C2984 C2982 1.415 . S
C2984 C2989 1.425 . S
C2984 C2991 1.409 . S
C2985 H2977 0.930 . S
C2985 C2983 1.419 . S
C2985 C2986 1.362 . S
C2986 H2978 0.930 . S
C2986 C2985 1.362 . S
C2986 C2989 1.409 . S
C2987 H2979 0.930 . S
C2987 C2988 1.355 . S
C2987 C2989 1.415 . S
C2988 C2987 1.355 . S
C2988 C2990 1.419 . S
C2989 C2984 1.425 . S
C2989 C2986 1.409 . S
C2989 C2987 1.415 . S
C2990 H2980 0.930 . S
C2990 C2988 1.419 . S
C2990 C2991 1.362 . S
C2991 H2981 0.930 . S
C2991 C2984 1.409 . S
C2991 C2990 1.362 . S
H2992 C2998 0.930 . S
H2993 C3001 0.930 . S
H2994 C3002 0.930 . S
H2995 C3003 0.930 . S
H2996 C3006 0.930 . S
H2997 C3007 0.930 . S
C2998 H2992 0.930 . S
C2998 C2999 1.355 . S
C2998 C3000 1.415 . S
C2999 C2998 1.355 . S
C2999 C3001 1.419 . S
C3000 C2998 1.415 . S
C3000 C3005 1.425 . S
C3000 C3007 1.409 . S
C3001 H2993 0.930 . S
C3001 C2999 1.419 . S
C3001 C3002 1.362 . S
C3002 H2994 0.930 . S
C3002 C3001 1.362 . S
C3002 C3005 1.409 . S
C3003 H2995 0.930 . S
C3003 C3004 1.355 . S
C3003 C3005 1.415 . S
C3004 C3003 1.355 . S
C3004 C3006 1.419 . S
C3005 C3000 1.425 . S
C3005 C3002 1.409 . S
C3005 C3003 1.415 . S
C3006 H2996 0.930 . S
C3006 C3004 1.419 . S
C3006 C3007 1.362 . S
C3007 H2997 0.930 . S
C3007 C3000 1.409 . S
C3007 C3006 1.362 . S
H3008 C3014 0.930 . S
H3009 C3017 0.930 . S
H3010 C3018 0.930 . S
H3011 C3019 0.930 . S
H3012 C3022 0.930 . S
H3013 C3023 0.930 . S
C3014 H3008 0.930 . S
C3014 C3015 1.355 . S
C3014 C3016 1.415 . S
C3015 C3014 1.355 . S
C3015 C3017 1.419 . S
C3016 C3014 1.415 . S
C3016 C3021 1.425 . S
C3016 C3023 1.409 . S
C3017 H3009 0.930 . S
C3017 C3015 1.419 . S
C3017 C3018 1.362 . S
C3018 H3010 0.930 . S
C3018 C3017 1.362 . S
C3018 C3021 1.409 . S
C3019 H3011 0.930 . S
C3019 C3020 1.355 . S
C3019 C3021 1.415 . S
C3020 C3019 1.355 . S
C3020 C3022 1.419 . S
C3021 C3016 1.425 . S
C3021 C3018 1.409 . S
C3021 C3019 1.415 . S
C3022 H3012 0.930 . S
C3022 C3020 1.419 . S
C3022 C3023 1.362 . S
C3023 H3013 0.930 . S
C3023 C3016 1.409 . S
C3023 C3022 1.362 . S
H3024 C3030 0.930 . S
H3025 C3033 0.930 . S
H3026 C3034 0.930 1_554 S
H3027 C3035 0.930 . S
H3028 C3038 0.930 . S
H3029 C3039 0.930 . S
C3030 H3024 0.930 . S
C3030 C3031 1.355 1_556 S
C3030 C3032 1.415 . S
C3031 C3030 1.355 1_554 S
C3031 C3033 1.419 . S
C3032 C3030 1.415 . S
C3032 C3037 1.425 . S
C3032 C3039 1.409 . S
C3033 H3025 0.930 . S
C3033 C3031 1.419 . S
C3033 C3034 1.362 1_554 S
C3034 H3026 0.930 1_556 S
C3034 C3033 1.362 1_556 S
C3034 C3037 1.409 . S
C3035 H3027 0.930 . S
C3035 C3036 1.355 . S
C3035 C3037 1.415 . S
C3036 C3035 1.355 . S
C3036 C3038 1.419 . S
C3037 C3032 1.425 . S
C3037 C3034 1.409 . S
C3037 C3035 1.415 . S
C3038 H3028 0.930 . S
C3038 C3036 1.419 . S
C3038 C3039 1.362 . S
C3039 H3029 0.930 . S
C3039 C3032 1.409 . S
C3039 C3038 1.362 . S
H3040 C3046 0.930 . S
H3041 C3049 0.930 . S
H3042 C3050 0.930 . S
H3043 C3051 0.930 . S
H3044 C3054 0.930 . S
H3045 C3055 0.930 . S
C3046 H3040 0.930 . S
C3046 C3047 1.355 1_556 S
C3046 C3048 1.415 . S
C3047 C3046 1.355 1_554 S
C3047 C3049 1.419 . S
C3048 C3046 1.415 . S
C3048 C3053 1.425 . S
C3048 C3055 1.409 . S
C3049 H3041 0.930 . S
C3049 C3047 1.419 . S
C3049 C3050 1.362 1_554 S
C3050 H3042 0.930 . S
C3050 C3049 1.362 1_556 S
C3050 C3053 1.409 . S
C3051 H3043 0.930 . S
C3051 C3052 1.355 . S
C3051 C3053 1.415 . S
C3052 C3051 1.355 . S
C3052 C3054 1.419 . S
C3053 C3048 1.425 . S
C3053 C3050 1.409 . S
C3053 C3051 1.415 . S
C3054 H3044 0.930 . S
C3054 C3052 1.419 . S
C3054 C3055 1.362 . S
C3055 H3045 0.930 . S
C3055 C3048 1.409 . S
C3055 C3054 1.362 . S
H3056 C3062 0.930 . S
H3057 C3065 0.930 . S
H3058 C3066 0.930 . S
H3059 C3067 0.930 . S
H3060 C3070 0.930 . S
H3061 C3071 0.930 . S
C3062 H3056 0.930 . S
C3062 C3063 1.355 1_556 S
C3062 C3064 1.415 . S
C3063 C3062 1.355 1_554 S
C3063 C3065 1.419 . S
C3064 C3062 1.415 . S
C3064 C3069 1.425 . S
C3064 C3071 1.409 . S
C3065 H3057 0.930 . S
C3065 C3063 1.419 . S
C3065 C3066 1.362 1_554 S
C3066 H3058 0.930 . S
C3066 C3065 1.362 1_556 S
C3066 C3069 1.409 . S
C3067 H3059 0.930 . S
C3067 C3068 1.355 . S
C3067 C3069 1.415 . S
C3068 C3067 1.355 . S
C3068 C3070 1.419 . S
C3069 C3064 1.425 . S
C3069 C3066 1.409 . S
C3069 C3067 1.415 . S
C3070 H3060 0.930 . S
C3070 C3068 1.419 . S
C3070 C3071 1.362 . S
C3071 H3061 0.930 . S
C3071 C3064 1.409 . S
C3071 C3070 1.362 . S
H3072 C3078 0.930 . S
H3073 C3081 0.930 . S
H3074 C3082 0.930 . S
H3075 C3083 0.930 . S
H3076 C3086 0.930 . S
H3077 C3087 0.930 . S
C3078 H3072 0.930 . S
C3078 C3079 1.355 . S
C3078 C3080 1.415 . S
C3079 C3078 1.355 . S
C3079 C3081 1.419 . S
C3080 C3078 1.415 . S
C3080 C3085 1.425 . S
C3080 C3087 1.409 . S
C3081 H3073 0.930 . S
C3081 C3079 1.419 . S
C3081 C3082 1.362 . S
C3082 H3074 0.930 . S
C3082 C3081 1.362 . S
C3082 C3085 1.409 . S
C3083 H3075 0.930 . S
C3083 C3084 1.355 . S
C3083 C3085 1.415 . S
C3084 C3083 1.355 . S
C3084 C3086 1.419 . S
C3085 C3080 1.425 . S
C3085 C3082 1.409 . S
C3085 C3083 1.415 . S
C3086 H3076 0.930 . S
C3086 C3084 1.419 . S
C3086 C3087 1.362 . S
C3087 H3077 0.930 . S
C3087 C3080 1.409 . S
C3087 C3086 1.362 . S
H3088 C3094 0.930 . S
H3089 C3097 0.930 . S
H3090 C3098 0.930 . S
H3091 C3099 0.930 . S
H3092 C3102 0.930 . S
H3093 C3103 0.930 . S
C3094 H3088 0.930 . S
C3094 C3095 1.355 . S
C3094 C3096 1.415 . S
C3095 C3094 1.355 . S
C3095 C3097 1.419 . S
C3096 C3094 1.415 . S
C3096 C3101 1.425 . S
C3096 C3103 1.409 . S
C3097 H3089 0.930 . S
C3097 C3095 1.419 . S
C3097 C3098 1.362 . S
C3098 H3090 0.930 . S
C3098 C3097 1.362 . S
C3098 C3101 1.409 . S
C3099 H3091 0.930 . S
C3099 C3100 1.355 . S
C3099 C3101 1.415 . S
C3100 C3099 1.355 . S
C3100 C3102 1.419 . S
C3101 C3096 1.425 . S
C3101 C3098 1.409 . S
C3101 C3099 1.415 . S
C3102 H3092 0.930 . S
C3102 C3100 1.419 . S
C3102 C3103 1.362 . S
C3103 H3093 0.930 . S
C3103 C3096 1.409 . S
C3103 C3102 1.362 . S
H3104 C3110 0.930 . S
H3105 C3113 0.930 . S
H3106 C3114 0.930 . S
H3107 C3115 0.930 . S
H3108 C3118 0.930 . S
H3109 C3119 0.930 . S
C3110 H3104 0.930 . S
C3110 C3111 1.355 . S
C3110 C3112 1.415 . S
C3111 C3110 1.355 . S
C3111 C3113 1.419 . S
C3112 C3110 1.415 . S
C3112 C3117 1.425 . S
C3112 C3119 1.409 . S
C3113 H3105 0.930 . S
C3113 C3111 1.419 . S
C3113 C3114 1.362 . S
C3114 H3106 0.930 . S
C3114 C3113 1.362 . S
C3114 C3117 1.409 . S
C3115 H3107 0.930 . S
C3115 C3116 1.355 . S
C3115 C3117 1.415 . S
C3116 C3115 1.355 . S
C3116 C3118 1.419 . S
C3117 C3112 1.425 . S
C3117 C3114 1.409 . S
C3117 C3115 1.415 . S
C3118 H3108 0.930 . S
C3118 C3116 1.419 . S
C3118 C3119 1.362 . S
C3119 H3109 0.930 . S
C3119 C3112 1.409 . S
C3119 C3118 1.362 . S
H3120 C3126 0.930 . S
H3121 C3129 0.930 . S
H3122 C3130 0.930 . S
H3123 C3131 0.930 . S
H3124 C3134 0.930 . S
H3125 C3135 0.930 . S
C3126 H3120 0.930 . S
C3126 C3127 1.355 . S
C3126 C3128 1.415 . S
C3127 C3126 1.355 . S
C3127 C3129 1.419 . S
C3128 C3126 1.415 . S
C3128 C3133 1.425 . S
C3128 C3135 1.409 . S
C3129 H3121 0.930 . S
C3129 C3127 1.419 . S
C3129 C3130 1.362 . S
C3130 H3122 0.930 . S
C3130 C3129 1.362 . S
C3130 C3133 1.409 . S
C3131 H3123 0.930 . S
C3131 C3132 1.355 . S
C3131 C3133 1.415 . S
C3132 C3131 1.355 . S
C3132 C3134 1.419 . S
C3133 C3128 1.425 . S
C3133 C3130 1.409 . S
C3133 C3131 1.415 . S
C3134 H3124 0.930 . S
C3134 C3132 1.419 . S
C3134 C3135 1.362 . S
C3135 H3125 0.930 . S
C3135 C3128 1.409 . S
C3135 C3134 1.362 . S
H3136 C3142 0.930 . S
H3137 C3145 0.930 . S
H3138 C3146 0.930 . S
H3139 C3147 0.930 . S
H3140 C3150 0.930 . S
H3141 C3151 0.930 . S
C3142 H3136 0.930 . S
C3142 C3143 1.355 . S
C3142 C3144 1.415 . S
C3143 C3142 1.355 . S
C3143 C3145 1.419 . S
C3144 C3142 1.415 . S
C3144 C3149 1.425 . S
C3144 C3151 1.409 . S
C3145 H3137 0.930 . S
C3145 C3143 1.419 . S
C3145 C3146 1.362 . S
C3146 H3138 0.930 . S
C3146 C3145 1.362 . S
C3146 C3149 1.409 . S
C3147 H3139 0.930 . S
C3147 C3148 1.355 . S
C3147 C3149 1.415 . S
C3148 C3147 1.355 . S
C3148 C3150 1.419 . S
C3149 C3144 1.425 . S
C3149 C3146 1.409 . S
C3149 C3147 1.415 . S
C3150 H3140 0.930 . S
C3150 C3148 1.419 . S
C3150 C3151 1.362 . S
C3151 H3141 0.930 . S
C3151 C3144 1.409 . S
C3151 C3150 1.362 . S
H3152 C3158 0.930 . S
H3153 C3161 0.930 . S
H3154 C3162 0.930 . S
H3155 C3163 0.930 . S
H3156 C3166 0.930 . S
H3157 C3167 0.930 . S
C3158 H3152 0.930 . S
C3158 C3159 1.355 . S
C3158 C3160 1.415 . S
C3159 C3158 1.355 . S
C3159 C3161 1.419 . S
C3160 C3158 1.415 . S
C3160 C3165 1.425 . S
C3160 C3167 1.409 . S
C3161 H3153 0.930 . S
C3161 C3159 1.419 . S
C3161 C3162 1.362 . S
C3162 H3154 0.930 . S
C3162 C3161 1.362 . S
C3162 C3165 1.409 . S
C3163 H3155 0.930 . S
C3163 C3164 1.355 . S
C3163 C3165 1.415 . S
C3164 C3163 1.355 . S
C3164 C3166 1.419 . S
C3165 C3160 1.425 . S
C3165 C3162 1.409 . S
C3165 C3163 1.415 . S
C3166 H3156 0.930 . S
C3166 C3164 1.419 . S
C3166 C3167 1.362 . S
C3167 H3157 0.930 . S
C3167 C3160 1.409 . S
C3167 C3166 1.362 . S
C1447 C609 2.144 . S
C1452 C9 2.155 . S
C1463 C649 2.207 . S
C1468 C49 2.189 . S
C1479 C89 2.144 . S
C1484 C689 2.153 . S
C1495 C129 2.208 . S
C1500 C969 2.207 . S
C1511 C169 2.144 . S
C1516 C1009 2.157 . S
C1527 C209 2.204 . S
C1532 C1049 2.210 . S
C1543 C1338 2.145 . S
C1548 C258 2.147 . S
C1559 C1378 2.210 . S
C1564 C298 2.200 . S
C1575 C338 2.145 . S
C1580 C1418 2.147 . S
C1591 C738 2.210 . S
C1596 C378 2.198 . S
C1607 C418 2.201 . S
C1612 C778 2.210 . S
C1623 C458 2.152 . S
C1628 C818 2.174 . S
C1639 C1089 2.155 . S
C1644 C489 2.144 . S
C1655 C529 2.206 . S
C1660 C1129 2.210 . S
C1671 C1169 2.183 . S
C1676 C569 2.159 . S
C1687 C1218 2.167 . S
C1692 C858 2.148 . S
C1703 C1258 2.154 . S
C1708 C898 2.177 . S
C1719 C938 2.203 . S
C1724 C1298 2.183 . S
C1735 C15 0.396 . S
C1740 C175 0.284 . S
C1751 C55 0.466 . S
C1756 C215 0.381 . S
C1767 C95 0.326 . S
C1772 C135 0.453 . S
C1783 C246 0.293 . S
C1788 C406 0.353 . S
C1799 C286 0.284 . S
C1804 C446 0.399 . S
C1815 C326 0.399 . S
C1820 C366 0.284 . S
C1831 C495 0.460 . S
C1836 C655 0.343 . S
C1847 C695 0.451 . S
C1852 C535 0.323 . S
C1863 C575 0.291 . S
C1868 C615 0.358 . S
C1879 C726 0.321 . S
C1884 C886 0.450 . S
C1895 C766 0.324 . S
C1900 C926 0.314 . S
C1911 C846 0.466 . S
C1916 C806 0.373 . S
C1927 C975 0.459 . S
C1932 C1135 0.418 . S
C1943 C1175 0.393 . S
C1948 C1015 0.466 . S
C1959 C1055 0.440 . S
C1964 C1095 0.307 . S
C1975 C1206 0.453 . S
C1980 C1366 0.430 . S
C1991 C1246 0.330 . S
C1996 C1406 0.309 . S
C2007 C1286 0.403 . S
C2012 C1326 0.284 . S
C2023 C415 1.629 . S
C2028 C19 1.666 . S
C2039 C59 1.700 . S
C2044 C455 1.672 . S
C2055 C99 1.698 . S
C2060 C375 1.599 . S
C2071 C139 1.716 . S
C2076 C335 1.653 . S
C2087 C179 1.709 . S
C2092 C255 1.667 . S
C2103 C295 1.618 . S
C2108 C219 1.712 . S
C2119 C250 1.699 . S
C2124 C166 1.600 . S
C2135 C206 1.596 . S
C2140 C290 1.693 . S
C2151 C330 1.713 . S
C2156 C126 1.661 . S
C2167 C370 1.705 . S
C2172 C86 1.670 . S
C2183 C6 1.597 . S
C2188 C410 1.696 . S
C2199 C46 1.605 . S
C2204 C450 1.670 . S
C2215 C895 1.612 . S
C2220 C499 1.667 . S
C2231 C935 1.667 . S
C2236 C539 1.684 . S
C2247 C855 1.634 . S
C2252 C579 1.716 . S
C2263 C815 1.617 . S
C2268 C619 1.666 1_554 S
C2279 C659 1.714 1_554 S
C2284 C735 1.658 . S
C2295 C775 1.637 . S
C2300 C699 1.668 1_554 S
C2311 C646 1.609 . S
C2316 C730 1.707 . S
C2327 C770 1.678 . S
C2332 C686 1.660 . S
C2343 C810 1.716 . S
C2348 C606 1.644 . S
C2359 C566 1.653 . S
C2364 C850 1.716 . S
C2375 C890 1.712 . S
C2380 C486 1.662 . S
C2391 C930 1.670 . S
C2396 C526 1.646 . S
C2407 C979 1.666 . S
C2412 C1375 1.621 . S
C2423 C1019 1.704 . S
C2428 C1415 1.671 . S
C2439 C1335 1.659 . S
C2444 C1059 1.677 . S
C2455 C1295 1.602 . S
C2460 C1099 1.702 . S
C2471 C1139 1.678 . S
C2476 C1215 1.660 . S
C2487 C1255 1.666 . S
C2492 C1179 1.710 . S
C2503 C1210 1.680 . S
C2508 C1126 1.595 1_556 S
C2519 C1166 1.630 1_556 S
C2524 C1250 1.666 . S
C2535 C1290 1.670 . S
C2540 C1086 1.605 1_556 S
C2551 C1330 1.674 . S
C2556 C1046 1.655 . S
C2567 C966 1.656 . S
C2572 C1370 1.715 . S
C2583 C1006 1.594 . S
C2588 C1410 1.687 . S
C2599 C10 3.319 . S
C2604 C170 3.314 . S
C2615 C210 3.328 . S
C2620 C50 3.325 . S
C2631 C90 3.327 . S
C2636 C130 3.328 . S
C2647 C259 3.314 1_556 S
C2652 C419 3.317 . S
C2663 C459 3.319 . S
C2668 C299 3.326 1_556 S
C2679 C339 3.327 1_556 S
C2684 C379 3.320 . S
C2695 C650 3.328 . S
C2700 C490 3.326 . S
C2711 C690 3.314 . S
C2716 C530 3.316 . S
C2727 C610 3.322 . S
C2732 C570 3.315 . S
C2743 C899 3.323 . S
C2748 C739 3.328 . S
C2759 C779 3.314 . S
C2764 C939 3.315 . S
C2775 C859 3.318 . S
C2780 C819 3.314 . S
C2791 C1130 3.318 . S
C2796 C970 3.314 . S
C2807 C1010 3.320 . S
C2812 C1170 3.327 . S
C2823 C1050 3.322 . S
C2828 C1090 3.315 . S
C2839 C1379 3.314 . S
C2844 C1219 3.316 . S
C2855 C1259 3.316 . S
C2860 C1419 3.324 . S
C2871 C1299 3.327 . S
C2876 C1339 3.320 . S
C2887 C18 0.891 . S
C2892 C249 0.891 . S
C2903 C58 0.887 . S
C2908 C289 0.888 . S
C2919 C329 0.953 . S
C2924 C98 0.953 . S
C2935 C369 0.855 . S
C2940 C138 0.855 . S
C2951 C178 0.965 . S
C2956 C409 0.965 . S
C2967 C218 1.045 . S
C2972 C449 1.045 . S
C2983 C729 0.898 . S
C2988 C498 0.898 . S
C2999 C538 0.910 . S
C3004 C769 0.910 . S
C3015 C809 1.038 . S
C3020 C578 1.038 . S
C3031 C849 0.920 . S
C3036 C618 0.919 . S
C3047 C889 0.903 . S
C3052 C658 0.902 . S
C3063 C929 0.902 . S
C3068 C698 0.902 . S
C3079 C1209 0.898 . S
C3084 C978 0.898 . S
C3095 C1018 1.026 . S
C3100 C1249 1.026 . S
C3111 C1289 1.052 . S
C3116 C1058 1.052 . S
C3127 C1329 0.865 . S
C3132 C1098 0.865 . S
C3143 C1369 1.039 . S
C3148 C1138 1.039 . S
C3159 C1178 0.876 . S
C3164 C1409 0.876 . S
