# Generated by pormake.
# Topology snz, (6)-cn, num edge types: 1
# Building blocks:
#     Node 0, Type 0, BuildingBlock: JUFBIX_clean_sbu_0, # of connection points: 6
#     Node 1, Type 0, BuildingBlock: JUFBIX_clean_sbu_0, # of connection points: 6
#     Node 2, Type 0, BuildingBlock: JUFBIX_clean_sbu_0, # of connection points: 6
#     Node 3, Type 0, BuildingBlock: JUFBIX_clean_sbu_0, # of connection points: 6
#     Node 4, Type 0, BuildingBlock: JUFBIX_clean_sbu_0, # of connection points: 6
#     Node 5, Type 0, BuildingBlock: JUFBIX_clean_sbu_0, # of connection points: 6
#     Node 6, Type 0, BuildingBlock: JUFBIX_clean_sbu_0, # of connection points: 6
#     Node 7, Type 0, BuildingBlock: JUFBIX_clean_sbu_0, # of connection points: 6
#     Node 8, Type 0, BuildingBlock: JUFBIX_clean_sbu_0, # of connection points: 6
#     Edge 9, Type (0, 0), BuildingBlock: XUDNAN_clean_linker_2, # of connection points: 2
#     Edge 10, Type (0, 0), BuildingBlock: XUDNAN_clean_linker_2, # of connection points: 2
#     Edge 11, Type (0, 0), BuildingBlock: XUDNAN_clean_linker_2, # of connection points: 2
#     Edge 12, Type (0, 0), BuildingBlock: XUDNAN_clean_linker_2, # of connection points: 2
#     Edge 13, Type (0, 0), BuildingBlock: XUDNAN_clean_linker_2, # of connection points: 2
#     Edge 14, Type (0, 0), BuildingBlock: XUDNAN_clean_linker_2, # of connection points: 2
#     Edge 15, Type (0, 0), BuildingBlock: XUDNAN_clean_linker_2, # of connection points: 2
#     Edge 16, Type (0, 0), BuildingBlock: XUDNAN_clean_linker_2, # of connection points: 2
#     Edge 17, Type (0, 0), BuildingBlock: XUDNAN_clean_linker_2, # of connection points: 2
#     Edge 18, Type (0, 0), BuildingBlock: XUDNAN_clean_linker_2, # of connection points: 2
#     Edge 19, Type (0, 0), BuildingBlock: XUDNAN_clean_linker_2, # of connection points: 2
#     Edge 20, Type (0, 0), BuildingBlock: XUDNAN_clean_linker_2, # of connection points: 2
#     Edge 21, Type (0, 0), BuildingBlock: XUDNAN_clean_linker_2, # of connection points: 2
#     Edge 22, Type (0, 0), BuildingBlock: XUDNAN_clean_linker_2, # of connection points: 2
#     Edge 23, Type (0, 0), BuildingBlock: XUDNAN_clean_linker_2, # of connection points: 2
#     Edge 24, Type (0, 0), BuildingBlock: XUDNAN_clean_linker_2, # of connection points: 2
#     Edge 25, Type (0, 0), BuildingBlock: XUDNAN_clean_linker_2, # of connection points: 2
#     Edge 26, Type (0, 0), BuildingBlock: XUDNAN_clean_linker_2, # of connection points: 2
#     Edge 27, Type (0, 0), BuildingBlock: XUDNAN_clean_linker_2, # of connection points: 2
#     Edge 28, Type (0, 0), BuildingBlock: XUDNAN_clean_linker_2, # of connection points: 2
#     Edge 29, Type (0, 0), BuildingBlock: XUDNAN_clean_linker_2, # of connection points: 2
#     Edge 30, Type (0, 0), BuildingBlock: XUDNAN_clean_linker_2, # of connection points: 2
#     Edge 31, Type (0, 0), BuildingBlock: XUDNAN_clean_linker_2, # of connection points: 2
#     Edge 32, Type (0, 0), BuildingBlock: XUDNAN_clean_linker_2, # of connection points: 2
#     Edge 33, Type (0, 0), BuildingBlock: XUDNAN_clean_linker_2, # of connection points: 2
#     Edge 34, Type (0, 0), BuildingBlock: XUDNAN_clean_linker_2, # of connection points: 2
#     Edge 35, Type (0, 0), BuildingBlock: XUDNAN_clean_linker_2, # of connection points: 2
# Relax obj value: 0.336
# Max RMSD: 0.273
# Mean RMSD: 0.226
data_MOF--net-snz--node1-JUFBIX_clean_sbu_0--edge1-XUDNAN_clean_linker_2
_symmetry_space_group_name_H-M    P1
_symmetry_Int_Tables_number       1
_symmetry_cell_setting            triclinic
loop_
_symmetry_equiv_pos_as_xyz
'x, y, z'
_cell_length_a     53.367316
_cell_length_b     57.922654
_cell_length_c     14.536585
_cell_angle_alpha  90.289265
_cell_angle_beta   90.558665
_cell_angle_gamma 119.65217
loop_
_atom_site_label
_atom_site_type_symbol
_atom_site_fract_x
_atom_site_fract_y
_atom_site_fract_z
_atom_type_partial_charge
Co0 Co 0.12804 0.55581 0.90178 0.0
C1 C 0.09977 0.53788 0.06476 0.0
Co2 Co 0.09113 0.51459 0.89273 0.0
C3 C 0.16454 0.60979 0.96876 0.0
C4 C 0.1858 0.59813 0.87023 0.0
N5 N 0.16027 0.58959 0.91183 0.0
N6 N 0.19181 0.6304 0.96533 0.0
C7 C 0.20517 0.62313 0.90285 0.0
H8 H 0.14831 0.60886 0.01499 0.0
H9 H 0.19036 0.58654 0.82158 0.0
C10 C 0.11904 0.53401 0.72862 0.0
N11 N 0.05897 0.48032 0.88442 0.0
C12 C 0.05717 0.45657 0.86508 0.0
C13 C 0.03164 0.47429 0.90097 0.0
N14 N 0.02972 0.43596 0.86922 0.0
C15 C 1.01378 0.44739 0.8912 0.0
C16 C 0.07812 0.55565 0.85356 0.0
O17 O 0.13558 0.55379 0.779 0.0
O18 O 0.09831 0.51359 0.76473 0.0
O19 O 0.06735 0.53056 0.86181 0.0
O20 O 0.10498 0.57065 0.86758 0.0
O21 O 0.08415 0.51623 0.02107 0.0
H22 H 0.02499 0.48848 0.92025 0.0
H23 H 0.07576 0.4545 0.84996 0.0
O24 O 0.11979 0.55742 0.02371 0.0
O25 O 0.15108 0.54116 0.9374 0.0
O26 O 0.11573 0.5 0.92471 0.0
C27 C 0.14193 0.51646 0.94511 0.0
H28 H 0.22749 0.63484 0.883 0.0
H29 H 0.99069 0.43729 0.89997 0.0
Co30 Co 0.62709 0.5277 0.97952 0.0
C31 C 0.62267 0.55272 0.81795 0.0
Co32 Co 0.63042 0.5672 -0.0049 0.0
C33 C 0.6097 0.47049 0.97417 0.0
C34 C 0.64348 0.49509 0.88224 0.0
N35 N 0.62625 0.49606 0.94796 0.0
N36 N 0.61645 0.45408 0.92754 0.0
C37 C 0.63764 0.46946 0.87014 0.0
H38 H 0.59304 0.46405 0.02539 0.0
H39 H 0.65902 0.51194 0.84362 0.0
C40 C 0.63655 0.54348 0.15614 0.0
N41 N 0.63274 0.59932 0.0261 0.0
C42 C 0.65332 0.61768 0.08233 0.0
C43 C 0.61338 0.60766 0.01462 0.0
N44 N 0.64746 0.63685 0.10787 0.0
C45 C 0.62232 0.63071 0.06549 0.0
C46 C 0.57427 0.52413 0.00883 0.0
O47 O 0.63267 0.52361 0.10751 0.0
O48 O 0.63549 0.56268 0.11888 0.0
O49 O 0.59016 0.54926 0.01008 0.0
O50 O 0.58581 0.50964 -0.00372 0.0
O51 O 0.6259 0.57174 0.86984 0.0
H52 H 0.59337 0.59697 0.97596 0.0
H53 H 0.67131 0.61602 0.10951 0.0
O54 O 0.62177 0.53227 0.85284 0.0
O55 O 0.66868 0.54669 0.96328 0.0
O56 O 0.67031 0.5849 0.97977 0.0
C57 C 0.68323 0.57193 0.96567 0.0
H58 H 0.64782 0.46248 0.82187 0.0
H59 H 0.61086 0.64166 0.07282 0.0
Co60 Co 0.66943 0.01931 0.24378 0.0
C61 C 0.67753 0.04268 0.41475 0.0
Co62 Co 0.6596 0.05218 0.24869 0.0
C63 C 0.70219 0.99154 0.26178 0.0
C64 C 0.66065 0.96769 0.19834 0.0
N65 N 0.67771 0.99171 0.23742 0.0
N66 N 0.70113 0.96847 0.23806 0.0
C67 C 0.67495 0.95343 0.19848 0.0
H68 H 0.72092 1.00843 0.29225 0.0
H69 H 0.6395 0.96128 0.16883 0.0
C70 C 0.65294 0.03083 0.07656 0.0
N71 N 0.65143 0.07977 0.2548 0.0
C72 C 0.65587 0.09798 0.18999 0.0
C73 C 0.63865 0.08534 0.32433 0.0
N74 N 0.64622 0.11458 0.21602 0.0
C75 C 0.63548 0.10675 0.3008 0.0
C76 C 0.71633 0.06855 0.20363 0.0
O77 O 0.66062 0.01553 0.11458 0.0
O78 O 0.64969 0.04727 0.12551 0.0
O79 O 0.69843 0.07663 0.21731 0.0
O80 O 0.70838 0.04412 0.2146 0.0
O81 O 0.66987 0.05707 0.37119 0.0
H82 H 0.63153 0.07418 0.38733 0.0
H83 H 0.66591 0.09896 0.12474 0.0
O84 O 0.6786 0.02382 0.37299 0.0
O85 O 0.62985 0.99472 0.27138 0.0
O86 O 0.62072 0.02764 0.27917 0.0
C87 C 0.61198 1.00292 0.2847 0.0
H88 H 0.66692 0.93367 0.16992 0.0
H89 H 0.62512 0.11525 0.34155 0.0
Co90 Co 0.88932 0.91086 0.45487 0.0
C91 C 0.85887 0.88901 0.61673 0.0
Co92 Co 0.85074 0.87077 0.44156 0.0
C93 C 0.92461 0.96564 0.51496 0.0
C94 C 0.94928 0.95089 0.44659 0.0
N95 N 0.92242 0.94359 0.47454 0.0
N96 N 0.95179 0.98651 0.51306 0.0
C97 C 0.96733 0.97715 0.47007 0.0
H98 H 0.90649 0.96632 0.54479 0.0
H99 H 0.95524 0.93811 0.40965 0.0
C100 C 0.88146 0.89101 0.28039 0.0
N101 N 0.81693 0.83888 0.4153 0.0
C102 C 0.80473 0.81386 0.44875 0.0
C103 C 0.79923 0.83721 0.34514 0.0
N104 N 0.78011 0.79727 0.40235 0.0
C105 C 0.77671 0.8119 0.33751 0.0
C106 C 0.84139 0.91417 0.40945 0.0
O107 O 0.89798 0.91188 0.32656 0.0
O108 O 0.8605 0.87179 0.31927 0.0
O109 O 0.83045 0.88919 0.41321 0.0
O110 O 0.86801 0.92883 0.42802 0.0
O111 O 0.8416 0.86973 0.56518 0.0
H112 H 0.80285 0.85331 0.29993 0.0
H113 H 0.81388 0.80787 0.50423 0.0
O114 O 0.8803 0.90917 0.58197 0.0
O115 O 0.91039 0.89206 0.48119 0.0
O116 O 0.87139 0.85278 0.46976 0.0
C117 C 0.8984 0.86673 0.48536 0.0
H118 H 0.98998 0.9886 0.45397 0.0
H119 H 0.75947 0.80447 0.2865 0.0
Co120 Co 0.34395 0.86798 0.40111 0.0
C121 C 0.34365 0.89294 0.2365 0.0
Co122 Co 0.35193 0.90928 0.41154 0.0
C123 C 0.31256 0.81479 0.33385 0.0
C124 C 0.35119 0.82112 0.40195 0.0
N125 N 0.33608 0.83337 0.37989 0.0
N126 N 0.31213 0.79141 0.32654 0.0
C127 C 0.33653 0.79527 0.36874 0.0
H128 H 0.29622 0.81853 0.30434 0.0
H129 H 0.37152 0.83038 0.43932 0.0
C130 C 0.3545 0.88581 0.57559 0.0
N131 N 0.35809 0.94346 0.43411 0.0
C132 C 0.38085 0.96751 0.41491 0.0
C133 C 0.34079 0.94898 0.48584 0.0
N134 N 0.37833 0.98768 0.4528 0.0
C135 C 0.35301 0.97591 0.49702 0.0
C136 C 0.29395 0.87059 0.4259 0.0
O137 O 0.34894 0.86515 0.52906 0.0
O138 O 0.35534 0.90567 0.53657 0.0
O139 O 0.31107 0.89543 0.42203 0.0
O140 O 0.30411 0.855 0.41933 0.0
O141 O 0.3492 0.91296 0.28642 0.0
H142 H 0.32117 0.93435 0.51802 0.0
H143 H 0.3993 0.9701 0.37644 0.0
O144 O 0.33951 0.87148 0.27322 0.0
O145 O 0.38416 0.88136 0.38397 0.0
O146 O 0.39259 0.92236 0.39983 0.0
C147 C 0.402 0.90622 0.38692 0.0
H148 H 0.3431 0.78043 0.37603 0.0
H149 H 0.34466 0.98589 0.53954 0.0
Co150 Co 0.31869 0.38095 0.20591 0.0
C151 C 0.32687 0.40761 0.37014 0.0
Co152 Co 0.31082 0.41492 0.19702 0.0
C153 C 0.3464 0.35183 0.26543 0.0
C154 C 0.30874 0.3274 0.1837 0.0
N155 N 0.32502 0.35235 0.21676 0.0
N156 N 0.34408 0.32753 0.26498 0.0
C157 C 0.32038 0.31208 0.21331 0.0
H158 H 0.36281 0.36885 0.30315 0.0
H159 H 0.28938 0.32068 0.14222 0.0
C160 C 0.30456 0.38852 0.03189 0.0
N161 N 0.30452 0.44362 0.18785 0.0
C162 C 0.28074 0.44412 0.15741 0.0
C163 C 0.32266 0.46859 0.21755 0.0
N164 N 0.28322 0.46834 0.16833 0.0
C165 C 0.30967 0.48379 0.2057 0.0
C166 C 0.36767 0.428 0.16153 0.0
O167 O 0.3093 0.37316 0.0819 0.0
O168 O 0.30324 0.40786 0.0687 0.0
O169 O 0.35055 0.43719 0.17063 0.0
O170 O 0.35817 0.40333 0.17346 0.0
O171 O 0.31882 0.42184 0.32644 0.0
H172 H 0.34368 0.47516 0.24834 0.0
H173 H 0.2615 0.42678 0.13156 0.0
O174 O 0.32839 0.38913 0.32854 0.0
O175 O 0.27916 0.35883 0.23964 0.0
O176 O 0.27156 0.39249 0.22355 0.0
C177 C 0.26219 0.36833 0.2438 0.0
H178 H 0.31193 0.2912 0.19815 0.0
H179 H 0.31883 0.50453 0.22469 0.0
Co180 Co 0.53886 0.22432 0.67652 0.0
C181 C 0.49248 0.17559 0.62128 0.0
Co182 Co 0.4974 0.22416 0.6647 0.0
C183 C 0.58518 0.22257 0.77421 0.0
C184 C 0.58505 0.21417 0.63079 0.0
N185 N 0.57231 0.22216 0.69324 0.0
N186 N 0.60473 0.21437 0.76551 0.0
C187 C 0.60491 0.20932 0.67497 0.0
H188 H 0.57862 0.22659 0.83976 0.0
H189 H 0.57878 0.21013 0.55898 0.0
C190 C 0.54442 0.27273 0.72197 0.0
N191 N 0.46412 0.22622 0.64712 0.0
C192 C 0.46281 0.24628 0.60474 0.0
C193 C 0.43662 0.20879 0.66863 0.0
N194 N 0.43567 0.24219 0.59844 0.0
C195 C 0.41905 0.21853 0.63854 0.0
C196 C 0.50652 0.21324 0.83861 0.0
O197 O 0.55858 0.26054 0.71262 0.0
O198 O 0.51763 0.26076 0.70193 0.0
O199 O 0.48819 0.21508 0.78761 0.0
O200 O 0.5291 0.21517 0.80286 0.0
O201 O 0.47767 0.18729 0.62795 0.0
H202 H 0.42979 0.19014 0.70306 0.0
H203 H 0.4815 0.26328 0.57669 0.0
O204 O 0.51916 0.1883 0.64156 0.0
O205 O 0.54783 0.23371 0.54909 0.0
O206 O 0.50673 0.23362 0.54273 0.0
C207 C 0.52924 0.23678 0.50339 0.0
H208 H 0.61725 0.20123 0.64356 0.0
H209 H 0.39589 0.20896 0.64595 0.0
Co210 Co 1.01291 0.21998 0.71144 0.0
C211 C 0.9902 0.25318 0.7454 0.0
Co212 Co 0.96524 0.19809 0.7198 0.0
C213 C 0.06772 0.2569 0.63406 0.0
C214 C 0.07223 0.2329 0.73688 0.0
N215 N 0.05264 0.23791 0.69626 0.0
N216 N 0.09585 0.26367 0.63281 0.0
C217 C 0.09877 0.24867 0.6981 0.0
H218 H 0.05786 0.26466 0.58746 0.0
H219 H 0.06733 0.21805 0.789 0.0
C220 C 0.9882 0.16503 0.68603 0.0
N221 N 0.92547 0.17943 0.73461 0.0
C222 C 0.9103 0.17871 0.8096 0.0
C223 C 0.90604 0.16029 0.67798 0.0
N224 N 0.88235 0.15954 0.80269 0.0
C225 C 0.87958 0.14799 0.71968 0.0
C226 C 0.98383 0.21427 0.54649 0.0
O227 O 1.01191 0.18686 0.69132 0.0
O228 O 0.96472 0.16532 0.69629 0.0
O229 O 0.96065 0.2018 0.59131 0.0
O230 O 1.00793 0.22256 0.58676 0.0
O231 O 0.96638 0.23126 0.74347 0.0
H232 H 0.91111 0.1547 0.61259 0.0
H233 H 0.91994 0.19087 0.87055 0.0
O234 O 1.01356 0.2529 0.73153 0.0
O235 O 1.01754 0.21771 0.83702 0.0
O236 O 0.97041 0.19499 0.84749 0.0
C237 C 0.99519 0.20592 0.88567 0.0
H238 H 0.11851 0.24866 0.71567 0.0
H239 H 0.86001 0.13135 0.69217 0.0
Co240 Co 0.96309 0.69528 0.67237 0.0
C241 C 0.97666 0.74814 0.64168 0.0
Co242 Co 1.00998 0.72398 0.67041 0.0
C243 C 0.90333 0.67136 0.72623 0.0
C244 C 0.90952 0.64899 0.62038 0.0
N245 N 0.92367 0.67136 0.6717 0.0
N246 N 0.87705 0.64977 0.71171 0.0
C247 C 0.88094 0.63574 0.64454 0.0
H248 H 0.90803 0.68655 0.77774 0.0
H249 H 0.91945 0.64241 0.56987 0.0
C250 C 0.99632 0.67111 0.70055 0.0
N251 N 0.04971 0.7468 0.67343 0.0
C252 C 0.06797 0.76377 0.61038 0.0
C253 C 0.06704 0.74636 0.74087 0.0
N254 N 0.09586 0.77345 0.63599 0.0
C255 C 0.09528 0.76258 0.71799 0.0
C256 C 0.98492 0.71658 0.8405 0.0
O257 O 0.97048 0.6666 0.69516 0.0
O258 O 1.01676 0.69478 0.69051 0.0
O259 O 1.00878 0.72864 0.79933 0.0
O260 O 0.96229 0.70053 0.79669 0.0
O261 O 1.00261 0.75282 0.6501 0.0
H262 H 0.05965 0.73398 0.80112 0.0
H263 H 0.06107 0.76776 0.545 0.0
O264 O 0.95606 0.7243 0.64925 0.0
O265 O 0.96408 0.69056 0.54797 0.0
O266 O 1.01034 0.71945 0.54118 0.0
C267 C 0.98651 0.70383 0.50111 0.0
H268 H 0.86445 0.61715 0.61493 0.0
H269 H 0.11403 0.76563 0.75735 0.0
H270 H 0.09458 0.49622 0.5889 0.0
H271 H 0.1447 0.58129 0.64315 0.0
H272 H 0.13884 0.59011 0.48271 0.0
H273 H 0.1266 0.50079 0.36273 0.0
H274 H 0.09374 0.47447 0.31262 0.0
H275 H 0.10091 0.47446 0.43393 0.0
H276 H 0.052 0.4719 0.46825 0.0
H277 H 0.04513 0.47268 0.34696 0.0
H278 H 0.04481 0.49707 0.42371 0.0
H279 H 0.12554 0.59079 0.3242 0.0
H280 H 0.11668 0.58359 0.15809 0.0
H281 H 0.07897 0.49845 0.19504 0.0
C282 C 0.10461 0.51663 0.56633 0.0
C283 C 0.11988 0.53801 0.62875 0.0
C284 C 0.13295 0.56451 0.59683 0.0
C285 C 0.12945 0.56982 0.50595 0.0
C286 C 0.11338 0.54847 0.44716 0.0
C287 C 0.10207 0.52241 0.47435 0.0
C288 C 0.08796 0.50348 0.39348 0.0
C289 C 0.10322 0.48736 0.37457 0.0
C290 C 0.05555 0.4852 0.40908 0.0
C291 C 0.09319 0.52317 0.31741 0.0
C292 C 0.10719 0.5489 0.35139 0.0
C293 C 0.11484 0.57079 0.2961 0.0
C294 C 0.10963 0.56646 0.20197 0.0
C295 C 0.09742 0.54051 0.16411 0.0
C296 C 0.08804 0.51844 0.22266 0.0
H297 H 0.59797 0.5142 0.68433 0.0
H298 H 0.65571 0.59864 0.72831 0.0
H299 H 0.66965 0.60324 0.56536 0.0
H300 H 0.64052 0.50209 0.52548 0.0
H301 H 0.61083 0.47981 0.45192 0.0
H302 H 0.60501 0.48255 0.57245 0.0
H303 H 0.56534 0.49451 0.53297 0.0
H304 H 0.57043 0.49097 0.41253 0.0
H305 H 0.57342 0.52148 0.45566 0.0
H306 H 0.67989 0.59847 0.40462 0.0
H307 H 0.67712 0.58745 0.24016 0.0
H308 H 0.61013 0.5066 0.2931 0.0
C309 C 0.61312 0.53371 0.65885 0.0
C310 C 0.62578 0.55613 0.71819 0.0
C311 C 0.64553 0.58135 0.68331 0.0
C312 C 0.6539 0.58406 0.59143 0.0
C313 C 0.6419 0.56142 0.53555 0.0
C314 C 0.62121 0.5369 0.56662 0.0
C315 C 0.61041 0.51622 0.48989 0.0
C316 C 0.6171 0.49385 0.51126 0.0
C317 C 0.57798 0.50516 0.47167 0.0
C318 C 0.62835 0.53304 0.41079 0.0
C319 C 0.64685 0.55886 0.43998 0.0
C320 C 0.6654 0.57841 0.38062 0.0
C321 C 0.66378 0.5719 0.28761 0.0
C322 C 0.64344 0.54621 0.2547 0.0
C323 C 0.62623 0.52618 0.31718 0.0
H324 H 0.65794 0.99952 0.94095 0.0
H325 H 0.65155 0.07079 -0.01462 0.0
H326 H 0.66476 0.0836 0.82619 0.0
H327 H 0.71647 0.02657 0.78038 0.0
H328 H 0.70132 0.99784 0.70528 0.0
H329 H 0.69301 0.99407 0.82607 0.0
H330 H 0.63825 0.9705 0.78709 0.0
H331 H 0.64651 0.97368 0.66645 0.0
H332 H 0.62459 0.98661 0.71229 0.0
H333 H 0.68224 0.09133 0.67132 0.0
H334 H 0.68774 0.08704 0.50655 0.0
H335 H 0.67691 1.0083 0.5479 0.0
C336 C 0.65896 0.01759 0.91655 0.0
C337 C 0.6543 0.03439 0.97636 0.0
C338 C 0.65537 0.0577 0.94168 0.0
C339 C 0.66322 0.0654 0.8514 0.0
C340 C 0.66913 0.04924 0.79573 0.0
C341 C 0.66591 0.02529 0.8249 0.0
C342 C 0.67068 0.01061 0.74623 0.0
C343 C 0.69693 1.00707 0.7657 0.0
C344 C 0.64338 0.98376 0.72685 0.0
C345 C 0.67664 0.03007 0.66871 0.0
C346 C 0.67674 0.0526 0.70081 0.0
C347 C 0.68179 0.07366 0.64452 0.0
C348 C 0.68493 0.07099 0.55102 0.0
C349 C 0.68213 0.04709 0.51443 0.0
C350 C 0.67917 0.02676 0.57429 0.0
H351 H 0.87954 0.92724 0.75393 0.0
H352 H 0.8378 0.84209 0.70358 0.0
H353 H 0.84525 0.8351 0.86568 0.0
H354 H 0.93254 0.93278 0.91689 0.0
H355 H 0.92955 0.95609 -0.00774 0.0
H356 H 0.92146 0.95528 0.87122 0.0
H357 H 0.87051 0.94778 0.9075 0.0
H358 H 0.87881 0.9494 0.02853 0.0
H359 H 0.84728 0.92086 -0.01865 0.0
H360 H 0.85979 0.83695 0.02581 0.0
H361 H 0.86922 0.84593 0.19136 0.0
H362 H 0.89829 0.92946 0.14708 0.0
C363 C 0.87156 0.90714 0.77781 0.0
C364 C 0.85812 0.88519 0.71654 0.0
C365 C 0.84786 0.85915 0.74964 0.0
C366 C 0.85237 0.85498 0.84123 0.0
C367 C 0.86665 0.87703 0.89903 0.0
C368 C 0.87518 0.9025 0.87009 0.0
C369 C 0.88812 0.9223 0.94925 0.0
C370 C 0.9198 0.94283 0.93128 0.0
C371 C 0.8701 0.93588 0.96776 0.0
C372 C 0.88562 0.90386 0.02673 0.0
C373 C 0.8738 0.87797 -0.00513 0.0
C374 C 0.86883 0.85706 0.05207 0.0
C375 C 0.87441 0.86241 0.14576 0.0
C376 C 0.88439 0.88835 0.18141 0.0
C377 C 0.89115 0.90958 0.12103 0.0
H378 H 0.32879 0.84852 0.71056 0.0
H379 H 0.39534 0.92971 0.65939 0.0
H380 H 0.40057 0.93942 0.82513 0.0
H381 H 0.29431 0.86254 0.87905 0.0
H382 H 0.28645 0.83509 0.95374 0.0
H383 H 0.29078 0.83215 0.83239 0.0
H384 H 0.33105 0.82049 0.86466 0.0
H385 H 0.32623 0.82257 -0.0136 0.0
H386 H 0.36138 0.84219 0.93713 0.0
H387 H 0.39229 0.94327 -0.0138 0.0
H388 H 0.37841 0.93854 0.1486 0.0
H389 H 0.31905 0.8544 0.10275 0.0
C390 C 0.34522 0.86791 0.73513 0.0
C391 C 0.3616 0.88844 0.67339 0.0
C392 C 0.38252 0.91385 0.70655 0.0
C393 C 0.38567 0.91956 0.80025 0.0
C394 C 0.36798 0.89951 0.85947 0.0
C395 C 0.34876 0.87397 0.82931 0.0
C396 C 0.33127 0.85681 0.90839 0.0
C397 C 0.29879 0.84603 0.89237 0.0
C398 C 0.33789 0.83418 0.92515 0.0
C399 C 0.34291 0.87712 -0.014 0.0
C400 C 0.36392 0.90159 0.95562 0.0
C401 C 0.3764 0.92409 0.01191 0.0
C402 C 0.36804 0.92129 0.10345 0.0
C403 C 0.34773 0.89612 0.13743 0.0
C404 C 0.33474 0.87381 0.07794 0.0
H405 H 0.30263 0.42459 0.50208 0.0
H406 H 0.36213 0.39475 0.46181 0.0
H407 H 0.36188 0.38658 0.62719 0.0
H408 H 0.33358 0.4566 0.73428 0.0
H409 H 0.29845 0.44793 0.7772 0.0
H410 H 0.30602 0.45467 0.6567 0.0
H411 H 0.26191 0.40878 0.61687 0.0
H412 H 0.25474 0.40148 0.73713 0.0
H413 H 0.26002 0.37917 0.66339 0.0
H414 H 0.34865 0.37376 0.78514 0.0
H415 H 0.33322 0.36748 0.94539 0.0
H416 H 0.28529 0.40891 0.89405 0.0
C417 C 0.31646 0.41739 0.529 0.0
C418 C 0.33225 0.41012 0.46965 0.0
C419 C 0.34973 0.40025 0.50644 0.0
C420 C 0.34967 0.39545 0.60009 0.0
C421 C 0.33244 0.4011 0.65609 0.0
C422 C 0.31693 0.41271 0.62334 0.0
C423 C 0.29972 0.41601 0.69974 0.0
C424 C 0.31007 0.44556 0.71808 0.0
C425 C 0.26717 0.40043 0.67793 0.0
C426 C 0.30749 0.40374 0.77919 0.0
C427 C 0.326 0.39492 0.75125 0.0
C428 C 0.33474 0.38114 0.80895 0.0
C429 C 0.32547 0.37735 0.89957 0.0
C430 C 0.30814 0.38782 0.93214 0.0
C431 C 0.29863 0.40082 0.8708 0.0
H432 H 0.55258 0.21917 0.36917 0.0
H433 H 0.50843 0.26419 0.41349 0.0
H434 H 0.4976 0.26194 0.24833 0.0
H435 H 0.58281 0.24974 0.13638 0.0
H436 H 0.57831 0.21883 0.09153 0.0
H437 H 0.58603 0.22678 0.21219 0.0
H438 H 0.5405 0.18235 0.25138 0.0
H439 H 0.53217 0.17467 0.13094 0.0
H440 H 0.5059 0.17547 0.20593 0.0
H441 H 0.48336 0.24796 0.08938 0.0
H442 H 0.47742 0.2335 0.92801 0.0
H443 H 0.53421 0.2008 0.97545 0.0
C444 C 0.5418 0.22952 0.34316 0.0
C445 C 0.53123 0.24178 0.40387 0.0
C446 C 0.51659 0.25462 0.36802 0.0
C447 C 0.5102 0.25335 0.27441 0.0
C448 C 0.51911 0.23963 0.21708 0.0
C449 C 0.53554 0.2288 0.24865 0.0
C450 C 0.54164 0.21473 0.1707 0.0
C451 C 0.57413 0.22834 0.15157 0.0
C452 C 0.52931 0.18504 0.19101 0.0
C453 C 0.52526 0.21874 0.09204 0.0
C454 C 0.51211 0.23279 0.12147 0.0
C455 C 0.4941 0.23751 0.0645 0.0
C456 C 0.49053 0.22883 0.97317 0.0
C457 C 0.50538 0.21606 0.93905 0.0
C458 C 0.52262 0.21054 -0.00024 0.0
H459 H 0.94661 0.18237 0.40943 0.0
H460 H 0.02277 0.25876 0.46448 0.0
H461 H 0.03272 0.26484 0.29952 0.0
H462 H 0.97451 0.16101 0.24256 0.0
H463 H 0.9437 0.14589 0.16567 0.0
H464 H 0.93869 0.14866 0.28664 0.0
H465 H 0.9113 0.17423 0.25238 0.0
H466 H 0.91538 0.17081 0.13092 0.0
H467 H 0.92774 0.20326 0.18099 0.0
H468 H 0.0405 0.25887 0.13982 0.0
H469 H 0.0394 0.24644 0.97764 0.0
H470 H 0.95642 0.17549 0.01711 0.0
C471 C 0.96458 0.20079 0.38586 0.0
C472 C 0.98416 0.21999 0.44876 0.0
C473 C 1.00782 0.24372 0.41671 0.0
C474 C 1.01363 0.24739 0.32336 0.0
C475 C 0.9952 0.22737 0.26317 0.0
C476 C 0.97057 0.20496 0.29191 0.0
C477 C 0.95542 0.1861 0.21175 0.0
C478 C 0.95295 0.15881 0.22767 0.0
C479 C 0.9257 0.18345 0.19289 0.0
C480 C 0.97626 0.20093 0.13541 0.0
C481 C 0.99908 0.22456 0.16735 0.0
C482 C 0.02239 0.2408 0.11281 0.0
C483 C 0.02177 0.23333 0.02129 0.0
C484 C 0.99779 0.21006 -0.0147 0.0
C485 C 0.97492 0.19344 0.04327 0.0
H486 H 0.02757 0.72073 0.36566 0.0
H487 H 0.93647 0.69135 0.41492 0.0
H488 H 0.92924 0.699 0.25458 0.0
H489 H 0.03741 0.77085 0.19383 0.0
H490 H 0.06018 0.7638 0.12187 0.0
H491 H 0.05993 0.75907 0.24444 0.0
H492 H 0.04699 0.71005 0.21835 0.0
H493 H 0.04775 0.71483 0.09601 0.0
H494 H 1.01597 0.68852 0.14805 0.0
H495 H 0.9302 0.70779 0.09413 0.0
H496 H 0.93752 0.7097 0.92765 0.0
H497 H 0.02716 0.73135 0.97273 0.0
C498 C 1.00619 0.71593 0.34214 0.0
C499 C 0.98266 0.70552 0.40239 0.0
C500 C 0.95484 0.69917 0.36972 0.0
C501 C 0.95052 0.70383 0.27909 0.0
C502 C 0.97411 0.71455 0.22177 0.0
C503 C 1.00126 0.71994 0.25058 0.0
C504 C 0.02186 0.72841 0.17082 0.0
C505 C 0.04629 0.75725 0.18354 0.0
C506 C 0.03383 0.7093 0.15752 0.0
C507 C 1.0016 0.72597 0.09295 0.0
C508 C 0.97445 0.71877 0.12517 0.0
C509 C 0.95135 0.71358 0.06749 0.0
C510 C 0.95569 0.71459 0.97329 0.0
C511 C 0.98281 0.72045 0.9384 0.0
C512 C 1.00637 0.72716 -0.00152 0.0
H513 H 0.24153 0.45029 0.03307 0.0
H514 H 0.27542 0.50329 0.26995 0.0
H515 H 0.24004 0.51806 0.24302 0.0
H516 H 0.22985 0.49387 0.8917 0.0
H517 H 0.19667 0.4686 0.83958 0.0
H518 H 0.22309 0.46024 0.8807 0.0
H519 H 0.18464 0.42364 -0.01698 0.0
H520 H 0.15807 0.43191 0.94219 0.0
H521 H 0.16505 0.43219 0.06388 0.0
H522 H 0.20437 0.52957 0.18741 0.0
H523 H 0.16963 0.53806 0.10332 0.0
H524 H 0.15637 0.47754 0.9011 0.0
C525 C 0.24111 0.46468 0.07986 0.0
C526 C 0.26139 0.47577 0.15344 0.0
C527 C 0.26047 0.49484 0.21248 0.0
C528 C 0.24025 0.50318 0.19824 0.0
C529 C 0.2209 0.49223 0.12469 0.0
C530 C 0.22098 0.47339 0.06628 0.0
C531 C 0.19858 0.46609 -0.01043 0.0
C532 C 0.21291 0.4726 0.89478 0.0
C533 C 0.1752 0.43671 -0.00498 0.0
C534 C 0.18648 0.48426 0.01321 0.0
C535 C 0.19967 0.49891 0.0921 0.0
C536 C 0.19366 0.51807 0.12615 0.0
C537 C 0.17398 0.5228 0.0777 0.0
C538 C 0.16035 0.50842 -0.00387 0.0
C539 C 0.16623 0.4885 0.96408 0.0
H540 H 0.70543 0.66551 0.12716 0.0
H541 H 0.62559 0.65498 0.23917 0.0
H542 H 0.65324 0.6902 0.35539 0.0
H543 H 0.74787 0.68291 0.34687 0.0
H544 H 0.78024 0.70757 0.29233 0.0
H545 H 0.75429 0.67872 0.22803 0.0
H546 H 0.75039 0.70892 0.10421 0.0
H547 H 0.77674 0.73765 0.16697 0.0
H548 H 0.74207 0.73427 0.13913 0.0
H549 H 0.68923 0.7293 0.44757 0.0
H550 H 0.72997 0.7735 0.49025 0.0
H551 H 0.78652 0.75946 0.31781 0.0
C552 C 0.69385 0.67033 0.17747 0.0
C553 C 0.66343 0.65751 0.17487 0.0
C554 C 0.6489 0.66472 0.23993 0.0
C555 C 0.66443 0.6844 0.30688 0.0
C556 C 0.69448 0.69669 0.3077 0.0
C557 C 0.70905 0.69016 0.24383 0.0
C558 C 0.74131 0.70869 0.25129 0.0
C559 C 0.75684 0.69356 0.28144 0.0
C560 C 0.75331 0.72325 0.16004 0.0
C561 C 0.74258 0.72745 0.32662 0.0
C562 C 0.7154 0.71964 0.36036 0.0
C563 C 0.71068 0.73526 0.42342 0.0
C564 C 0.73394 0.76016 0.44833 0.0
C565 C 0.76139 0.76925 0.40975 0.0
C566 C 0.76601 0.75223 0.35144 0.0
H567 H 0.56844 0.01426 0.31741 0.0
H568 H 0.58561 0.9486 0.29502 0.0
H569 H 0.53413 0.91699 0.32193 0.0
H570 H 0.5152 0.98607 0.4979 0.0
H571 H 0.49312 0.99885 0.45123 0.0
H572 H 0.53145 0.01635 0.43282 0.0
H573 H 0.52242 0.0142 0.25675 0.0
H574 H 0.48408 0.99666 0.27478 0.0
H575 H 0.50007 0.98244 0.20137 0.0
H576 H 0.48048 0.89239 0.34655 0.0
H577 H 0.42876 0.87655 0.36915 0.0
H578 H 0.44626 0.95818 0.37658 0.0
C579 C 0.56145 0.99324 0.31865 0.0
C580 C 0.58119 0.98395 0.3041 0.0
C581 C 0.57101 0.95625 0.3061 0.0
C582 C 0.54177 0.93813 0.32133 0.0
C583 C 0.52291 0.94795 0.33475 0.0
C584 C 0.53233 0.97487 0.3339 0.0
C585 C 0.50752 0.9802 0.34891 0.0
C586 C 0.5121 0.99632 0.43802 0.0
C587 C 0.50328 0.9942 0.26547 0.0
C588 C 0.48261 0.95206 0.35755 0.0
C589 C 0.49199 0.93377 0.34932 0.0
C590 C 0.47293 0.90654 0.35345 0.0
C591 C 0.44353 0.89774 0.36621 0.0
C592 C 0.43332 0.91607 0.37481 0.0
C593 C 0.45329 0.94362 0.37064 0.0
H594 H 0.64081 0.11506 0.03013 0.0
H595 H 0.64852 0.15971 0.27935 0.0
H596 H 0.64323 0.1929 0.18763 0.0
H597 H 0.67894 0.1723 0.87716 0.0
H598 H 0.6548 0.15549 0.78155 0.0
H599 H 0.66193 0.13667 0.86584 0.0
H600 H 0.60719 0.1078 0.89481 0.0
H601 H 0.59985 0.12643 0.8107 0.0
H602 H 0.58669 0.12368 0.92613 0.0
H603 H 0.63349 0.21931 0.07026 0.0
H604 H 0.61892 0.23635 0.9367 0.0
H605 H 0.61726 0.17416 0.76472 0.0
C606 C 0.64212 0.13216 0.06516 0.0
C607 C 0.64527 0.13491 0.16189 0.0
C608 C 0.646 0.15717 0.2054 0.0
C609 C 0.64321 0.17621 0.15381 0.0
C610 C 0.63977 0.17271 0.0587 0.0
C611 C 0.63922 0.15125 0.01476 0.0
C612 C 0.63313 0.15104 0.9127 0.0
C613 C 0.65873 0.15406 0.85598 0.0
C614 C 0.60505 0.12574 0.88449 0.0
C615 C 0.6299 0.17553 0.90628 0.0
C616 C 0.63404 0.18788 -0.00891 0.0
C617 C 0.63054 0.20999 0.0033 0.0
C618 C 0.62214 0.21946 0.92714 0.0
C619 C 0.61712 0.20675 0.83994 0.0
C620 C 0.6216 0.18478 0.82958 0.0
H621 H 0.03573 0.30446 0.72931 0.0
H622 H 0.94609 0.2596 0.81015 0.0
H623 H 0.94699 0.30141 0.85056 0.0
H624 H 0.05931 0.35498 0.90586 0.0
H625 H 0.08317 0.3817 0.83243 0.0
H626 H 0.07577 0.34831 0.80917 0.0
H627 H 0.0588 0.35078 0.6439 0.0
H628 H 0.06624 0.38422 0.6665 0.0
H629 H 0.03083 0.3593 0.6274 0.0
H630 H 0.95772 0.34746 0.88718 0.0
H631 H 0.97628 0.39492 0.91092 0.0
H632 H 0.05895 0.4115 0.80016 0.0
C633 C 1.01627 0.30344 0.75537 0.0
C634 C 0.99079 0.27862 0.76659 0.0
C635 C 0.9658 0.27825 0.80056 0.0
C636 C 0.96613 0.30193 0.82399 0.0
C637 C 0.99155 0.32596 0.81252 0.0
C638 C 1.01613 0.32699 0.77839 0.0
C639 C 0.04044 0.35562 0.77186 0.0
C640 C 0.06619 0.36043 0.83351 0.0
C641 C 0.04961 0.3629 0.67144 0.0
C642 C 0.02569 0.37046 0.80831 0.0
C643 C 0.99755 0.35285 0.83155 0.0
C644 C 0.97963 0.36148 0.86823 0.0
C645 C 0.99053 0.38881 0.88096 0.0
C646 C 1.01922 0.40766 0.85646 0.0
C647 C 0.03699 0.39805 0.81984 0.0
H648 H 0.82908 0.60051 0.72257 0.0
H649 H 0.86469 0.68268 0.81203 0.0
H650 H 0.82031 0.67048 0.89693 0.0
H651 H 0.75741 0.5885 0.68333 0.0
H652 H 0.74035 0.55467 0.72239 0.0
H653 H 0.7757 0.5695 0.673 0.0
H654 H 0.79524 0.55822 0.81987 0.0
H655 H 0.75996 0.54354 0.87002 0.0
H656 H 0.79058 0.56974 0.93043 0.0
H657 H 0.77167 0.65013 0.96685 0.0
H658 H 0.72091 0.62329 0.01193 0.0
H659 H 0.71595 0.55424 0.8756 0.0
C660 C 0.82767 0.61606 0.75953 0.0
C661 C 0.85077 0.64262 0.76066 0.0
C662 C 0.84776 0.66213 0.81099 0.0
C663 C 0.82251 0.65542 0.85937 0.0
C664 C 0.80033 0.6291 0.85686 0.0
C665 C 0.80255 0.60973 0.80792 0.0
C666 C 0.775 0.58313 0.81343 0.0
C667 C 0.76131 0.57339 0.71733 0.0
C668 C 0.78054 0.56244 0.86131 0.0
C669 C 0.75684 0.59068 0.87241 0.0
C670 C 0.77201 0.61728 0.89709 0.0
C671 C 0.75962 0.62926 0.94841 0.0
C672 C 0.73075 0.61382 0.97362 0.0
C673 C 0.71452 0.58664 0.94758 0.0
C674 C 0.72794 0.57484 0.89767 0.0
H675 H 0.04923 0.6751 0.73228 0.0
H676 H 0.95785 0.61764 0.71385 0.0
H677 H 0.96848 0.58157 0.74875 0.0
H678 H 0.07476 0.63383 0.6293 0.0
H679 H 0.10584 0.64601 0.70468 0.0
H680 H 0.09093 0.66705 0.67654 0.0
H681 H 0.08548 0.67379 0.85002 0.0
H682 H 0.10035 0.65276 0.8787 0.0
H683 H 0.06553 0.64518 0.92141 0.0
H684 H 0.98958 0.55149 0.7872 0.0
H685 H 1.01909 0.53067 0.82747 0.0
H686 H 0.09624 0.6082 0.82202 0.0
C687 C 0.03141 0.65493 0.73509 0.0
C688 C 1.00266 0.64927 0.71995 0.0
C689 C 0.98005 0.62255 0.72502 0.0
C690 C 0.98588 0.60189 0.74478 0.0
C691 C 1.01446 0.6082 0.75958 0.0
C692 C 0.03683 0.63411 0.75504 0.0
C693 C 0.0656 0.63576 0.77506 0.0
C694 C 0.08545 0.64628 0.6914 0.0
C695 C 0.08008 0.65288 0.86143 0.0
C696 C 0.05599 0.60676 0.79179 0.0
C697 C 0.02644 0.59109 0.78232 0.0
C698 C 1.01274 0.56363 0.79474 0.0
C699 C 0.02968 0.55195 0.81758 0.0
C700 C 0.06001 0.5677 0.82814 0.0
C701 C 0.07313 0.59548 0.81473 0.0
H702 H 0.56726 0.41665 0.84656 0.0
H703 H 0.64083 0.42912 0.01124 0.0
H704 H 0.62846 0.38242 -0.0164 0.0
H705 H 0.51828 0.34442 0.91059 0.0
H706 H 0.50334 0.33603 0.79557 0.0
H707 H 0.51504 0.36874 0.8423 0.0
H708 H 0.54807 0.38923 0.70189 0.0
H709 H 0.53708 0.35664 0.656 0.0
H710 H 0.57479 0.37977 0.67642 0.0
H711 H 0.61331 0.33773 0.91688 0.0
H712 H 0.59228 0.295 0.83258 0.0
H713 H 0.52716 0.31029 0.71264 0.0
C714 C 0.57969 0.40894 0.88047 0.0
C715 C 0.60441 0.42593 0.93349 0.0
C716 C 0.62134 0.41592 0.97304 0.0
C717 C 0.61459 0.38959 0.95692 0.0
C718 C 0.59076 0.37355 0.9011 0.0
C719 C 0.57313 0.38258 0.86499 0.0
C720 C 0.55021 0.36187 0.80137 0.0
C721 C 0.51992 0.35219 0.83978 0.0
C722 C 0.55271 0.37252 0.70313 0.0
C723 C 0.55832 0.34022 0.80513 0.0
C724 C 0.5818 0.34743 0.86299 0.0
C725 C 0.59457 0.33162 0.87281 0.0
C726 C 0.58267 0.30752 0.8238 0.0
C727 C 0.5581 0.29933 0.76612 0.0
C728 C 0.54583 0.31597 0.75678 0.0
H729 H 0.8404 0.10908 0.83733 0.0
H730 H 0.8759 0.19083 0.92866 0.0
H731 H 0.83861 0.17635 0.04879 0.0
H732 H 0.76612 0.0889 0.8682 0.0
H733 H 0.75667 0.05625 0.90845 0.0
H734 H 0.78632 0.07322 0.83114 0.0
H735 H 0.82014 0.06782 0.94765 0.0
H736 H 0.79057 0.05097 0.02553 0.0
H737 H 0.82323 0.08 0.06395 0.0
H738 H 0.79465 0.15293 0.15035 0.0
H739 H 0.74973 0.12225 0.23128 0.0
H740 H 0.74566 0.0557 0.0805 0.0
C741 C 0.84023 0.12395 0.88227 0.0
C742 C 0.86086 0.15113 0.87321 0.0
C743 C 0.86031 0.16992 0.93465 0.0
C744 C 0.83919 0.16187 0.00283 0.0
C745 C 0.81908 0.1349 0.00956 0.0
C746 C 0.81963 0.11621 0.95142 0.0
C747 C 0.79575 0.08844 0.97311 0.0
C748 C 0.775 0.07599 0.89031 0.0
C749 C 0.80818 0.07077 0.00444 0.0
C750 C 0.78137 0.09443 0.05168 0.0
C751 C 0.79496 0.12135 0.07136 0.0
C752 C 0.78417 0.13178 0.13672 0.0
C753 C 0.75872 0.11426 0.18236 0.0
C754 C 0.74469 0.08662 0.1636 0.0
C755 C 0.75645 0.07665 0.09827 0.0
H756 H 0.74072 0.9807 0.37734 0.0
H757 H 0.71293 0.94121 0.11152 0.0
H758 H 0.74943 0.92709 0.12247 0.0
H759 H 0.81874 1.00252 0.35221 0.0
H760 H 0.82315 0.99624 0.47091 0.0
H761 H 0.79682 1.00578 0.43923 0.0
H762 H 0.75686 0.96361 0.51677 0.0
H763 H 0.78304 0.95396 0.54867 0.0
H764 H 0.75141 0.93146 0.48256 0.0
H765 H 0.78515 0.91396 0.1654 0.0
H766 H 0.81848 0.90167 0.24007 0.0
H767 H 0.82501 0.94942 0.47941 0.0
C768 C 0.74281 0.96952 0.32093 0.0
C769 C 0.72393 0.96197 0.24354 0.0
C770 C 0.7269 0.94693 0.17172 0.0
C771 C 0.74774 0.93902 0.177 0.0
C772 C 0.76561 0.94629 0.25461 0.0
C773 C 0.76352 0.96122 0.32546 0.0
C774 C 0.78429 0.96464 0.40375 0.0
C775 C 0.80711 0.99405 0.41731 0.0
C776 C 0.76792 0.9527 0.49321 0.0
C777 C 0.79772 0.94871 0.36656 0.0
C778 C 0.78672 0.93862 0.27983 0.0
C779 C 0.79421 0.922 0.23268 0.0
C780 C 0.81308 0.91509 0.27566 0.0
C781 C 0.82439 0.92481 0.36473 0.0
C782 C 0.81704 0.94221 0.41044 0.0
H783 H 0.31893 0.75429 0.23165 0.0
H784 H 0.25501 0.7748 0.3206 0.0
H785 H 0.21699 0.73546 0.23822 0.0
H786 H 0.28942 0.73209 0.00602 0.0
H787 H 0.29745 0.70532 0.00196 0.0
H788 H 0.31956 0.73448 0.07109 0.0
H789 H 0.31011 0.7052 0.215 0.0
H790 H 0.28815 0.67592 0.14616 0.0
H791 H 0.27351 0.68256 0.24766 0.0
H792 H 0.18601 0.69431 0.14375 0.0
H793 H 0.16435 0.65429 0.04392 0.0
H794 H 0.24838 0.66048 0.01641 0.0
C795 C 0.29687 0.75026 0.23468 0.0
C796 C 0.28992 0.76761 0.28236 0.0
C797 C 0.26085 0.76193 0.2836 0.0
C798 C 0.2391 0.73957 0.23737 0.0
C799 C 0.24672 0.72308 0.18986 0.0
C800 C 0.27488 0.7281 0.1882 0.0
C801 C 0.27738 0.70759 0.12988 0.0
C802 C 0.29712 0.72066 0.04735 0.0
C803 C 0.28791 0.69189 0.18818 0.0
C804 C 0.24625 0.69029 0.09915 0.0
C805 C 0.2289 0.69952 0.1347 0.0
C806 C 0.19937 0.68683 0.11577 0.0
C807 C 0.18723 0.66403 0.05927 0.0
C808 C 0.20458 0.65415 0.02204 0.0
C809 C 0.23451 0.66763 0.0425 0.0
H810 H 0.53284 0.47207 0.04925 0.0
H811 H 0.54448 0.55076 0.00085 0.0
H812 H 0.4934 0.53426 0.03216 0.0
H813 H 0.46003 0.43507 0.94754 0.0
H814 H 0.44727 0.40915 0.03201 0.0
H815 H 0.48484 0.42658 0.00202 0.0
H816 H 0.4989 0.43894 0.17355 0.0
H817 H 0.46138 0.42168 0.20396 0.0
H818 H 0.48391 0.45611 0.23619 0.0
H819 H 0.44223 0.51076 0.07384 0.0
H820 H 0.39235 0.48051 0.12017 0.0
H821 H 0.41176 0.41618 0.14254 0.0
C822 C 0.5245 0.48569 0.04428 0.0
C823 C 0.54282 0.51276 0.02262 0.0
C824 C 0.53108 0.52999 0.01765 0.0
C825 C 0.50199 0.52083 0.0352 0.0
C826 C 0.48465 0.49429 0.05771 0.0
C827 C 0.49524 0.47684 0.06203 0.0
C828 C 0.47165 0.44939 0.08998 0.0
C829 C 0.46559 0.42884 0.0133 0.0
C830 C 0.47943 0.44105 0.18135 0.0
C831 C 0.4464 0.45438 0.10117 0.0
C832 C 0.45455 0.48047 0.08199 0.0
C833 C 0.43547 0.49022 0.08866 0.0
C834 C 0.40715 0.47285 0.11531 0.0
C835 C 0.39802 0.44592 0.13501 0.0
C836 C 0.41802 0.43662 0.12776 0.0
H837 H 0.92392 0.7446 0.60566 0.0
H838 H 1.01535 0.80152 0.63046 0.0
H839 H 1.00541 0.83787 0.594 0.0
H840 H 0.90933 0.77555 0.41452 0.0
H841 H 0.87435 0.76828 0.45467 0.0
H842 H 0.88856 0.74679 0.48451 0.0
H843 H 0.88204 0.75315 0.65743 0.0
H844 H 0.86776 0.77462 0.62809 0.0
H845 H 0.89828 0.78626 0.70567 0.0
H846 H 0.98537 0.86834 0.55415 0.0
H847 H 0.957 0.89011 0.51334 0.0
H848 H 0.87869 0.81335 0.51242 0.0
C849 C 0.94188 0.76471 0.60383 0.0
C850 C 0.97048 0.7701 0.62134 0.0
C851 C 0.99327 0.79677 0.61756 0.0
C852 C 0.98783 0.81761 0.59685 0.0
C853 C 0.95946 0.81159 0.57969 0.0
C854 C 0.93685 0.78577 0.58289 0.0
C855 C 0.90837 0.78461 0.5607 0.0
C856 C 0.89433 0.76781 0.47341 0.0
C857 C 0.88791 0.77404 0.64287 0.0
C858 C 0.91846 0.81378 0.54448 0.0
C859 C 0.948 0.82903 0.55597 0.0
C860 C 0.96223 0.85654 0.54494 0.0
C861 C 0.9459 0.86876 0.5217 0.0
C862 C 0.91557 0.85355 0.50931 0.0
C863 C 0.90183 0.82564 0.52097 0.0
H864 H 0.43496 0.13848 0.59225 0.0
H865 H 0.52162 0.15018 0.57054 0.0
H866 H 0.5018 0.10446 0.51219 0.0
H867 H 0.40292 0.07221 0.67295 0.0
H868 H 0.36943 0.06073 0.61046 0.0
H869 H 0.39042 0.09512 0.64456 0.0
H870 H 0.39148 0.10915 0.47499 0.0
H871 H 0.37057 0.07475 0.44032 0.0
H872 H 0.40479 0.09594 0.38756 0.0
H873 H 0.47293 0.05688 0.46329 0.0
H874 H 0.43654 0.00997 0.43513 0.0
H875 H 0.36858 0.02889 0.48543 0.0
C876 C 0.44973 0.13146 0.57452 0.0
C877 C 0.47983 0.14796 0.58612 0.0
C878 C 0.49845 0.13794 0.56277 0.0
C879 C 0.48744 0.112 0.52896 0.0
C880 C 0.45773 0.09621 0.51869 0.0
C881 C 0.43909 0.10546 0.54098 0.0
C882 C 0.40799 0.08382 0.52792 0.0
C883 C 0.39174 0.07761 0.61941 0.0
C884 C 0.39282 0.09137 0.45323 0.0
C885 C 0.41216 0.06097 0.49636 0.0
C886 C 0.44102 0.06861 0.4906 0.0
C887 C 0.45022 0.05068 0.46666 0.0
C888 C 0.42934 0.02405 0.45016 0.0
C889 C 0.39958 0.01556 0.45811 0.0
C890 C 0.39108 0.03456 0.47952 0.0
H891 H 0.14511 0.26371 0.58245 0.0
H892 H 0.09566 0.30389 0.53722 0.0
H893 H 0.13099 0.33258 0.42302 0.0
H894 H 0.2148 0.3223 0.56909 0.0
H895 H 0.23114 0.30538 0.51255 0.0
H896 H 0.20131 0.28742 0.58843 0.0
H897 H 0.17344 0.25349 0.45719 0.0
H898 H 0.20307 0.27162 0.38058 0.0
H899 H 0.16741 0.26516 0.34896 0.0
H900 H 0.17235 0.35785 0.317 0.0
H901 H 0.21815 0.37943 0.23279 0.0
H902 H 0.24096 0.32308 0.34715 0.0
C903 C 0.14171 0.27863 0.54931 0.0
C904 C 0.11731 0.28128 0.56887 0.0
C905 C 0.11378 0.30103 0.52269 0.0
C906 C 0.13382 0.31753 0.45772 0.0
C907 C 0.15737 0.31413 0.43952 0.0
C908 C 0.16154 0.29531 0.48438 0.0
C909 C 0.18918 0.29632 0.45422 0.0
C910 C 0.21035 0.30328 0.53593 0.0
C911 C 0.18288 0.27008 0.40746 0.0
C912 C 0.19998 0.31875 0.38574 0.0
C913 C 0.18123 0.32867 0.37804 0.0
C914 C 0.1871 0.35014 0.32198 0.0
C915 C 0.21315 0.36223 0.27424 0.0
C916 C 0.23302 0.35279 0.28269 0.0
C917 C 0.22599 0.33043 0.33787 0.0
H918 H 0.38312 0.22783 0.52075 0.0
H919 H 0.46782 0.2956 0.57708 0.0
H920 H 0.45361 0.32467 0.49595 0.0
H921 H 0.37381 0.24684 0.29556 0.0
H922 H 0.33589 0.23544 0.30788 0.0
H923 H 0.35244 0.2198 0.37164 0.0
H924 H 0.33444 0.22944 0.52426 0.0
H925 H 0.31764 0.24493 0.46088 0.0
H926 H 0.3432 0.26301 0.55197 0.0
H927 H 0.43066 0.34633 0.40611 0.0
H928 H 0.40003 0.35929 0.31764 0.0
H929 H 0.32968 0.2778 0.32355 0.0
C930 C 0.39858 0.24881 0.51705 0.0
C931 C 0.4267 0.25932 0.55492 0.0
C932 C 0.44634 0.28692 0.54738 0.0
C933 C 0.43842 0.30366 0.50181 0.0
C934 C 0.41072 0.29259 0.46428 0.0
C935 C 0.39102 0.26584 0.47179 0.0
C936 C 0.36264 0.25901 0.42491 0.0
C937 C 0.35581 0.2391 0.34527 0.0
C938 C 0.33803 0.24848 0.49468 0.0
C939 C 0.36954 0.28608 0.38963 0.0
C940 C 0.39738 0.30515 0.41311 0.0
C941 C 0.40874 0.33159 0.38786 0.0
C942 C 0.39109 0.33879 0.33792 0.0
C943 C 0.36231 0.31965 0.31375 0.0
C944 C 0.35159 0.29291 0.33987 0.0
H945 H 0.92019 0.01146 0.54219 0.0
H946 H 1.00701 0.02315 0.55929 0.0
H947 H 0.02534 0.06961 0.60733 0.0
H948 H 0.93893 0.07503 0.45355 0.0
H949 H 0.91281 0.07893 0.51944 0.0
H950 H 0.90607 0.04619 0.4885 0.0
H951 H 0.89918 0.03288 0.66002 0.0
H952 H 0.90578 0.06556 0.69155 0.0
H953 H 0.92722 0.05269 0.74264 0.0
H954 H 0.03484 0.11537 0.64796 0.0
H955 H 0.03455 0.15697 0.68276 0.0
H956 H 0.94152 0.11578 0.6446 0.0
C957 C 0.94299 0.0236 0.55719 0.0
C958 C 0.96211 0.01343 0.54607 0.0
C959 C 0.99189 0.03036 0.56552 0.0
C960 C 1.00254 0.05684 0.59354 0.0
C961 C 0.98321 0.06626 0.60261 0.0
C962 C 0.95403 0.05015 0.58564 0.0
C963 C 0.93798 0.06542 0.5997 0.0
C964 C 0.92308 0.06645 0.50994 0.0
C965 C 0.91626 0.05342 0.67816 0.0
C966 C 0.96276 0.09266 0.6263 0.0
C967 C 0.98865 0.09265 0.62755 0.0
C968 C 1.01467 0.11558 0.64783 0.0
C969 C 1.01428 0.13915 0.66737 0.0
C970 C 0.98803 0.13971 0.66688 0.0
C971 C 0.96194 0.11602 0.64631 0.0
H972 H 0.1401 0.76442 0.60986 0.0
H973 H 0.1095 0.81934 0.54853 0.0
H974 H 0.15674 0.85019 0.47858 0.0
H975 H 0.21015 0.81083 0.67509 0.0
H976 H 0.22691 0.79356 0.6237 0.0
H977 H 0.19012 0.77522 0.66071 0.0
H978 H 0.17381 0.75489 0.49701 0.0
H979 H 0.21065 0.77304 0.45955 0.0
H980 H 0.18305 0.77656 0.39943 0.0
H981 H 0.20986 0.8771 0.43342 0.0
H982 H 0.26191 0.89557 0.40264 0.0
H983 H 0.25571 0.82119 0.48683 0.0
C984 C 0.14327 0.78278 0.58025 0.0
C985 C 0.12142 0.78971 0.58445 0.0
C986 C 0.12606 0.81375 0.545 0.0
C987 C 0.15279 0.83134 0.50571 0.0
C988 C 0.17426 0.8242 0.50495 0.0
C989 C 0.16948 0.80019 0.53965 0.0
C990 C 0.19605 0.79727 0.53298 0.0
C991 C 0.20641 0.79404 0.62881 0.0
C992 C 0.19055 0.77407 0.46838 0.0
C993 C 0.2169 0.8237 0.49151 0.0
C994 C 0.20409 0.83907 0.4759 0.0
C995 C 0.21991 0.86501 0.44375 0.0
C996 C 0.24946 0.87538 0.42684 0.0
C997 C 0.26276 0.85972 0.44136 0.0
C998 C 0.24608 0.83352 0.4735 0.0
loop_
_geom_bond_atom_site_label_1
_geom_bond_atom_site_label_2
_geom_bond_distance
_geom_bond_site_symmetry_2
_ccdc_geom_bond_type
Co0 N5 2.057 . S
Co0 O17 2.021 1_554 S
Co0 O20 2.062 . S
Co0 O24 2.117 . S
Co0 O25 2.020 . S
C1 O21 1.259 . S
C1 O24 1.258 . S
Co2 N11 2.057 1_554 S
Co2 O18 2.117 1_554 S
Co2 O19 2.020 . S
Co2 O21 2.021 . S
Co2 O26 2.062 . S
C3 N5 1.316 . S
C3 N6 1.347 . S
C3 H8 0.931 1_554 S
C4 N5 1.375 . S
C4 C7 1.350 . S
C4 H9 0.930 . S
N5 Co0 2.057 . S
N5 C3 1.316 . S
N5 C4 1.375 . S
N6 C3 1.347 . S
N6 C7 1.373 . S
C7 C4 1.350 . S
C7 N6 1.373 . S
C7 H28 0.931 . S
H8 C3 0.931 1_556 S
H9 C4 0.930 . S
C10 O17 1.259 . S
C10 O18 1.258 . S
N11 Co2 2.057 1_556 S
N11 C12 1.316 1_556 S
N11 C13 1.375 . S
C12 N11 1.316 1_554 S
C12 N14 1.347 1_554 S
C12 H23 0.931 . S
C13 N11 1.375 . S
C13 C15 1.350 . S
C13 H22 0.930 . S
N14 C12 1.347 1_556 S
N14 C15 1.373 . S
C15 C13 1.350 . S
C15 N14 1.373 . S
C15 H29 0.931 . S
C16 O19 1.256 . S
C16 O20 1.255 . S
O17 Co0 2.021 1_556 S
O17 C10 1.259 . S
O18 Co2 2.117 1_556 S
O18 C10 1.258 . S
O19 Co2 2.020 . S
O19 C16 1.256 . S
O20 Co0 2.062 . S
O20 C16 1.255 . S
O21 C1 1.259 . S
O21 Co2 2.021 . S
H22 C13 0.930 . S
H23 C12 0.931 . S
O24 Co0 2.117 . S
O24 C1 1.258 . S
O25 Co0 2.020 . S
O25 C27 1.256 . S
O26 Co2 2.062 . S
O26 C27 1.255 . S
C27 O25 1.256 . S
C27 O26 1.255 . S
H28 C7 0.931 . S
H29 C15 0.931 . S
Co30 N35 2.057 . S
Co30 O47 2.021 . S
Co30 O50 2.062 . S
Co30 O54 2.117 1_554 S
Co30 O55 2.020 . S
C31 O51 1.259 . S
C31 O54 1.258 . S
Co32 N41 2.057 . S
Co32 O48 2.117 . S
Co32 O49 2.020 . S
Co32 O51 2.021 1_554 S
Co32 O56 2.062 . S
C33 N35 1.316 . S
C33 N36 1.347 . S
C33 H38 0.931 . S
C34 N35 1.375 1_556 S
C34 C37 1.350 . S
C34 H39 0.930 . S
N35 Co30 2.057 . S
N35 C33 1.316 . S
N35 C34 1.375 1_554 S
N36 C33 1.347 . S
N36 C37 1.373 1_554 S
C37 C34 1.350 . S
C37 N36 1.373 1_556 S
C37 H58 0.931 . S
H38 C33 0.931 . S
H39 C34 0.930 . S
C40 O47 1.259 . S
C40 O48 1.258 . S
N41 Co32 2.057 . S
N41 C42 1.316 . S
N41 C43 1.375 . S
C42 N41 1.316 . S
C42 N44 1.347 . S
C42 H53 0.931 . S
C43 N41 1.375 . S
C43 C45 1.350 . S
C43 H52 0.930 . S
N44 C42 1.347 . S
N44 C45 1.373 . S
C45 C43 1.350 . S
C45 N44 1.373 . S
C45 H59 0.931 . S
C46 O49 1.256 . S
C46 O50 1.255 . S
O47 Co30 2.021 . S
O47 C40 1.259 . S
O48 Co32 2.117 . S
O48 C40 1.258 . S
O49 Co32 2.020 . S
O49 C46 1.256 . S
O50 Co30 2.062 . S
O50 C46 1.255 . S
O51 C31 1.259 . S
O51 Co32 2.021 1_556 S
H52 C43 0.930 . S
H53 C42 0.931 . S
O54 Co30 2.117 1_556 S
O54 C31 1.258 . S
O55 Co30 2.020 . S
O55 C57 1.256 . S
O56 Co32 2.062 . S
O56 C57 1.255 . S
C57 O55 1.256 . S
C57 O56 1.255 . S
H58 C37 0.931 . S
H59 C45 0.931 . S
Co60 N65 2.057 1_545 S
Co60 O77 2.021 1_545 S
Co60 O80 2.062 . S
Co60 O84 2.117 . S
Co60 O85 2.020 1_545 S
C61 O81 1.259 . S
C61 O84 1.258 . S
Co62 N71 2.057 . S
Co62 O78 2.117 . S
Co62 O79 2.020 . S
Co62 O81 2.021 . S
Co62 O86 2.062 . S
C63 N65 1.316 . S
C63 N66 1.347 . S
C63 H68 0.931 . S
C64 N65 1.375 . S
C64 C67 1.350 . S
C64 H69 0.930 . S
N65 Co60 2.057 1_565 S
N65 C63 1.316 . S
N65 C64 1.375 . S
N66 C63 1.347 . S
N66 C67 1.373 . S
C67 C64 1.350 . S
C67 N66 1.373 . S
C67 H88 0.931 . S
H68 C63 0.931 . S
H69 C64 0.930 . S
C70 O77 1.259 1_546 S
C70 O78 1.258 1_556 S
N71 Co62 2.057 . S
N71 C72 1.316 . S
N71 C73 1.375 . S
C72 N71 1.316 . S
C72 N74 1.347 . S
C72 H83 0.931 . S
C73 N71 1.375 . S
C73 C75 1.350 . S
C73 H82 0.930 1_554 S
N74 C72 1.347 . S
N74 C75 1.373 . S
C75 C73 1.350 . S
C75 N74 1.373 . S
C75 H89 0.931 1_554 S
C76 O79 1.256 . S
C76 O80 1.255 . S
O77 Co60 2.021 1_565 S
O77 C70 1.259 1_564 S
O78 Co62 2.117 . S
O78 C70 1.258 1_554 S
O79 Co62 2.020 . S
O79 C76 1.256 . S
O80 Co60 2.062 . S
O80 C76 1.255 . S
O81 C61 1.259 . S
O81 Co62 2.021 . S
H82 C73 0.930 1_556 S
H83 C72 0.931 . S
O84 Co60 2.117 . S
O84 C61 1.258 . S
O85 Co60 2.020 1_565 S
O85 C87 1.256 . S
O86 Co62 2.062 . S
O86 C87 1.255 1_545 S
C87 O85 1.256 . S
C87 O86 1.255 1_565 S
H88 C67 0.931 . S
H89 C75 0.931 1_556 S
Co90 N95 2.057 . S
Co90 O107 2.021 . S
Co90 O110 2.062 . S
Co90 O114 2.117 . S
Co90 O115 2.020 . S
C91 O111 1.259 . S
C91 O114 1.258 . S
Co92 N101 2.057 . S
Co92 O108 2.117 . S
Co92 O109 2.020 . S
Co92 O111 2.021 . S
Co92 O116 2.062 . S
C93 N95 1.316 . S
C93 N96 1.347 . S
C93 H98 0.931 . S
C94 N95 1.375 . S
C94 C97 1.350 . S
C94 H99 0.930 . S
N95 Co90 2.057 . S
N95 C93 1.316 . S
N95 C94 1.375 . S
N96 C93 1.347 . S
N96 C97 1.373 . S
C97 C94 1.350 . S
C97 N96 1.373 . S
C97 H118 0.931 . S
H98 C93 0.931 . S
H99 C94 0.930 . S
C100 O107 1.259 . S
C100 O108 1.258 . S
N101 Co92 2.057 . S
N101 C102 1.316 . S
N101 C103 1.375 . S
C102 N101 1.316 . S
C102 N104 1.347 . S
C102 H113 0.931 . S
C103 N101 1.375 . S
C103 C105 1.350 . S
C103 H112 0.930 . S
N104 C102 1.347 . S
N104 C105 1.373 . S
C105 C103 1.350 . S
C105 N104 1.373 . S
C105 H119 0.931 . S
C106 O109 1.256 . S
C106 O110 1.255 . S
O107 Co90 2.021 . S
O107 C100 1.259 . S
O108 Co92 2.117 . S
O108 C100 1.258 . S
O109 Co92 2.020 . S
O109 C106 1.256 . S
O110 Co90 2.062 . S
O110 C106 1.255 . S
O111 C91 1.259 . S
O111 Co92 2.021 . S
H112 C103 0.930 . S
H113 C102 0.931 . S
O114 Co90 2.117 . S
O114 C91 1.258 . S
O115 Co90 2.020 . S
O115 C117 1.256 . S
O116 Co92 2.062 . S
O116 C117 1.255 . S
C117 O115 1.256 . S
C117 O116 1.255 . S
H118 C97 0.931 . S
H119 C105 0.931 . S
Co120 N125 2.057 . S
Co120 O137 2.021 . S
Co120 O140 2.062 . S
Co120 O144 2.117 . S
Co120 O145 2.020 . S
C121 O141 1.259 . S
C121 O144 1.258 . S
Co122 N131 2.057 . S
Co122 O138 2.117 . S
Co122 O139 2.020 . S
Co122 O141 2.021 . S
Co122 O146 2.062 . S
C123 N125 1.316 . S
C123 N126 1.347 . S
C123 H128 0.931 . S
C124 N125 1.375 . S
C124 C127 1.350 . S
C124 H129 0.930 . S
N125 Co120 2.057 . S
N125 C123 1.316 . S
N125 C124 1.375 . S
N126 C123 1.347 . S
N126 C127 1.373 . S
C127 C124 1.350 . S
C127 N126 1.373 . S
C127 H148 0.931 . S
H128 C123 0.931 . S
H129 C124 0.930 . S
C130 O137 1.259 . S
C130 O138 1.258 . S
N131 Co122 2.057 . S
N131 C132 1.316 . S
N131 C133 1.375 . S
C132 N131 1.316 . S
C132 N134 1.347 1_565 S
C132 H143 0.931 . S
C133 N131 1.375 . S
C133 C135 1.384 . S
C133 H142 0.930 . S
N134 C132 1.347 1_545 S
N134 C135 1.362 1_545 S
C135 C133 1.384 . S
C135 N134 1.362 1_565 S
C135 H149 0.913 1_565 S
C136 O139 1.256 . S
C136 O140 1.255 . S
O137 Co120 2.021 . S
O137 C130 1.259 . S
O138 Co122 2.117 . S
O138 C130 1.258 . S
O139 Co122 2.020 . S
O139 C136 1.256 . S
O140 Co120 2.062 . S
O140 C136 1.255 . S
O141 C121 1.259 . S
O141 Co122 2.021 . S
H142 C133 0.930 . S
H143 C132 0.931 . S
O144 Co120 2.117 . S
O144 C121 1.258 . S
O145 Co120 2.020 . S
O145 C147 1.256 . S
O146 Co122 2.062 . S
O146 C147 1.255 . S
C147 O145 1.256 . S
C147 O146 1.255 . S
H148 C127 0.931 . S
H149 C135 0.913 1_545 S
Co150 N155 2.057 . S
Co150 O167 2.021 . S
Co150 O170 2.062 . S
Co150 O174 2.117 . S
Co150 O175 2.020 . S
C151 O171 1.259 . S
C151 O174 1.258 . S
Co152 N161 2.057 . S
Co152 O168 2.117 . S
Co152 O169 2.020 . S
Co152 O171 2.021 . S
Co152 O176 2.062 . S
C153 N155 1.316 . S
C153 N156 1.347 . S
C153 H158 0.931 . S
C154 N155 1.375 . S
C154 C157 1.350 . S
C154 H159 0.930 . S
N155 Co150 2.057 . S
N155 C153 1.316 . S
N155 C154 1.375 . S
N156 C153 1.347 . S
N156 C157 1.373 . S
C157 C154 1.350 . S
C157 N156 1.373 . S
C157 H178 0.931 . S
H158 C153 0.931 . S
H159 C154 0.930 . S
C160 O167 1.259 . S
C160 O168 1.258 . S
N161 Co152 2.057 . S
N161 C162 1.316 . S
N161 C163 1.375 . S
C162 N161 1.316 . S
C162 N164 1.347 . S
C162 H173 0.931 . S
C163 N161 1.375 . S
C163 C165 1.350 . S
C163 H172 0.930 . S
N164 C162 1.347 . S
N164 C165 1.373 . S
C165 C163 1.350 . S
C165 N164 1.373 . S
C165 H179 0.931 . S
C166 O169 1.256 . S
C166 O170 1.255 . S
O167 Co150 2.021 . S
O167 C160 1.259 . S
O168 Co152 2.117 . S
O168 C160 1.258 . S
O169 Co152 2.020 . S
O169 C166 1.256 . S
O170 Co150 2.062 . S
O170 C166 1.255 . S
O171 C151 1.259 . S
O171 Co152 2.021 . S
H172 C163 0.930 . S
H173 C162 0.931 . S
O174 Co150 2.117 . S
O174 C151 1.258 . S
O175 Co150 2.020 . S
O175 C177 1.256 . S
O176 Co152 2.062 . S
O176 C177 1.255 . S
C177 O175 1.256 . S
C177 O176 1.255 . S
H178 C157 0.931 . S
H179 C165 0.931 . S
Co180 N185 2.057 . S
Co180 O197 2.021 . S
Co180 O200 2.062 . S
Co180 O204 2.117 . S
Co180 O205 2.020 . S
C181 O201 1.259 . S
C181 O204 1.258 . S
Co182 N191 2.057 . S
Co182 O198 2.117 . S
Co182 O199 2.020 . S
Co182 O201 2.021 . S
Co182 O206 2.062 . S
C183 N185 1.316 . S
C183 N186 1.347 . S
C183 H188 0.931 . S
C184 N185 1.375 . S
C184 C187 1.350 . S
C184 H189 0.930 . S
N185 Co180 2.057 . S
N185 C183 1.316 . S
N185 C184 1.375 . S
N186 C183 1.347 . S
N186 C187 1.373 . S
C187 C184 1.350 . S
C187 N186 1.373 . S
C187 H208 0.931 . S
H188 C183 0.931 . S
H189 C184 0.930 . S
C190 O197 1.259 . S
C190 O198 1.258 . S
N191 Co182 2.057 . S
N191 C192 1.316 . S
N191 C193 1.375 . S
C192 N191 1.316 . S
C192 N194 1.347 . S
C192 H203 0.931 . S
C193 N191 1.375 . S
C193 C195 1.350 . S
C193 H202 0.930 . S
N194 C192 1.347 . S
N194 C195 1.373 . S
C195 C193 1.350 . S
C195 N194 1.373 . S
C195 H209 0.931 . S
C196 O199 1.256 . S
C196 O200 1.255 . S
O197 Co180 2.021 . S
O197 C190 1.259 . S
O198 Co182 2.117 . S
O198 C190 1.258 . S
O199 Co182 2.020 . S
O199 C196 1.256 . S
O200 Co180 2.062 . S
O200 C196 1.255 . S
O201 C181 1.259 . S
O201 Co182 2.021 . S
H202 C193 0.930 . S
H203 C192 0.931 . S
O204 Co180 2.117 . S
O204 C181 1.258 . S
O205 Co180 2.020 . S
O205 C207 1.256 . S
O206 Co182 2.062 . S
O206 C207 1.255 . S
C207 O205 1.256 . S
C207 O206 1.255 . S
H208 C187 0.931 . S
H209 C195 0.931 . S
Co210 N215 2.057 . S
Co210 O227 2.021 1_455 S
Co210 O230 2.062 1_455 S
Co210 O234 2.117 1_455 S
Co210 O235 2.020 . S
C211 O231 1.259 . S
C211 O234 1.258 . S
Co212 N221 2.057 . S
Co212 O228 2.117 . S
Co212 O229 2.020 . S
Co212 O231 2.021 . S
Co212 O236 2.062 . S
C213 N215 1.316 . S
C213 N216 1.347 . S
C213 H218 0.931 . S
C214 N215 1.375 . S
C214 C217 1.350 . S
C214 H219 0.930 . S
N215 Co210 2.057 . S
N215 C213 1.316 . S
N215 C214 1.375 . S
N216 C213 1.347 . S
N216 C217 1.373 . S
C217 C214 1.350 . S
C217 N216 1.373 . S
C217 H238 0.931 . S
H218 C213 0.931 . S
H219 C214 0.930 . S
C220 O227 1.259 . S
C220 O228 1.258 . S
N221 Co212 2.057 . S
N221 C222 1.316 . S
N221 C223 1.375 . S
C222 N221 1.316 . S
C222 N224 1.347 . S
C222 H233 0.931 . S
C223 N221 1.375 . S
C223 C225 1.350 . S
C223 H232 0.930 . S
N224 C222 1.347 . S
N224 C225 1.373 . S
C225 C223 1.350 . S
C225 N224 1.373 . S
C225 H239 0.931 . S
C226 O229 1.256 . S
C226 O230 1.255 . S
O227 Co210 2.021 1_655 S
O227 C220 1.259 . S
O228 Co212 2.117 . S
O228 C220 1.258 . S
O229 Co212 2.020 . S
O229 C226 1.256 . S
O230 Co210 2.062 1_655 S
O230 C226 1.255 . S
O231 C211 1.259 . S
O231 Co212 2.021 . S
H232 C223 0.930 . S
H233 C222 0.931 . S
O234 Co210 2.117 1_655 S
O234 C211 1.258 . S
O235 Co210 2.020 . S
O235 C237 1.256 1_455 S
O236 Co212 2.062 . S
O236 C237 1.255 . S
C237 O235 1.256 1_655 S
C237 O236 1.255 . S
H238 C217 0.931 . S
H239 C225 0.931 . S
Co240 N245 2.057 . S
Co240 O257 2.021 . S
Co240 O260 2.062 . S
Co240 O264 2.117 . S
Co240 O265 2.020 . S
C241 O261 1.259 . S
C241 O264 1.258 . S
Co242 N251 2.057 . S
Co242 O258 2.117 . S
Co242 O259 2.020 1_455 S
Co242 O261 2.021 1_455 S
Co242 O266 2.062 1_455 S
C243 N245 1.316 . S
C243 N246 1.347 . S
C243 H248 0.931 . S
C244 N245 1.375 . S
C244 C247 1.350 . S
C244 H249 0.930 . S
N245 Co240 2.057 . S
N245 C243 1.316 . S
N245 C244 1.375 . S
N246 C243 1.347 . S
N246 C247 1.373 . S
C247 C244 1.350 . S
C247 N246 1.373 . S
C247 H268 0.931 . S
H248 C243 0.931 . S
H249 C244 0.930 . S
C250 O257 1.259 . S
C250 O258 1.258 1_655 S
N251 Co242 2.057 . S
N251 C252 1.316 . S
N251 C253 1.375 . S
C252 N251 1.316 . S
C252 N254 1.347 . S
C252 H263 0.931 . S
C253 N251 1.375 . S
C253 C255 1.350 . S
C253 H262 0.930 . S
N254 C252 1.347 . S
N254 C255 1.373 . S
C255 C253 1.350 . S
C255 N254 1.373 . S
C255 H269 0.931 . S
C256 O259 1.256 . S
C256 O260 1.255 . S
O257 Co240 2.021 . S
O257 C250 1.259 . S
O258 Co242 2.117 . S
O258 C250 1.258 1_455 S
O259 Co242 2.020 1_655 S
O259 C256 1.256 . S
O260 Co240 2.062 . S
O260 C256 1.255 . S
O261 C241 1.259 . S
O261 Co242 2.021 1_655 S
H262 C253 0.930 . S
H263 C252 0.931 . S
O264 Co240 2.117 . S
O264 C241 1.258 . S
O265 Co240 2.020 . S
O265 C267 1.256 . S
O266 Co242 2.062 1_655 S
O266 C267 1.255 . S
C267 O265 1.256 . S
C267 O266 1.255 . S
H268 C247 0.931 . S
H269 C255 0.931 . S
H270 C282 0.930 . S
H271 C284 0.930 . S
H272 C285 0.930 . S
H273 C289 0.959 . S
H274 C289 0.959 . S
H275 C289 0.961 . S
H276 C290 0.960 . S
H277 C290 0.961 . S
H278 C290 0.959 . S
H279 C293 0.929 . S
H280 C294 0.931 . S
H281 C296 0.930 . S
C282 H270 0.930 . S
C282 C283 1.399 . S
C282 C287 1.399 . S
C283 C282 1.399 . S
C283 C284 1.376 . S
C284 H271 0.930 . S
C284 C283 1.376 . S
C284 C285 1.388 . S
C285 H272 0.930 . S
C285 C284 1.388 . S
C285 C286 1.390 . S
C286 C285 1.390 . S
C286 C287 1.394 . S
C286 C292 1.465 . S
C287 C282 1.399 . S
C287 C286 1.394 . S
C287 C288 1.516 . S
C288 C287 1.516 . S
C288 C289 1.502 . S
C288 C290 1.561 . S
C288 C291 1.526 . S
C289 H273 0.959 . S
C289 H274 0.959 . S
C289 H275 0.961 . S
C289 C288 1.502 . S
C290 H276 0.960 . S
C290 H277 0.961 . S
C290 H278 0.959 . S
C290 C288 1.561 . S
C291 C288 1.526 . S
C291 C292 1.396 . S
C291 C296 1.390 . S
C292 C286 1.465 . S
C292 C291 1.396 . S
C292 C293 1.399 . S
C293 H279 0.929 . S
C293 C292 1.399 . S
C293 C294 1.385 . S
C294 H280 0.931 . S
C294 C293 1.385 . S
C294 C295 1.389 . S
C295 C294 1.389 . S
C295 C296 1.387 . S
C296 H281 0.930 . S
C296 C291 1.390 . S
C296 C295 1.387 . S
H297 C309 0.930 . S
H298 C311 0.930 . S
H299 C312 0.930 . S
H300 C316 0.959 . S
H301 C316 0.959 . S
H302 C316 0.961 . S
H303 C317 0.960 . S
H304 C317 0.961 . S
H305 C317 0.959 . S
H306 C320 0.929 . S
H307 C321 0.931 . S
H308 C323 0.930 . S
C309 H297 0.930 . S
C309 C310 1.399 . S
C309 C314 1.399 . S
C310 C309 1.399 . S
C310 C311 1.376 . S
C311 H298 0.930 . S
C311 C310 1.376 . S
C311 C312 1.388 . S
C312 H299 0.930 . S
C312 C311 1.388 . S
C312 C313 1.390 . S
C313 C312 1.390 . S
C313 C314 1.394 . S
C313 C319 1.465 . S
C314 C309 1.399 . S
C314 C313 1.394 . S
C314 C315 1.516 . S
C315 C314 1.516 . S
C315 C316 1.502 . S
C315 C317 1.561 . S
C315 C318 1.526 . S
C316 H300 0.959 . S
C316 H301 0.959 . S
C316 H302 0.961 . S
C316 C315 1.502 . S
C317 H303 0.960 . S
C317 H304 0.961 . S
C317 H305 0.959 . S
C317 C315 1.561 . S
C318 C315 1.526 . S
C318 C319 1.396 . S
C318 C323 1.390 . S
C319 C313 1.465 . S
C319 C318 1.396 . S
C319 C320 1.399 . S
C320 H306 0.929 . S
C320 C319 1.399 . S
C320 C321 1.385 . S
C321 H307 0.931 . S
C321 C320 1.385 . S
C321 C322 1.389 . S
C322 C321 1.389 . S
C322 C323 1.387 . S
C323 H308 0.930 . S
C323 C318 1.390 . S
C323 C322 1.387 . S
H324 C336 0.930 . S
H325 C338 0.930 . S
H326 C339 0.930 . S
H327 C343 0.980 . S
H328 C343 0.959 . S
H329 C343 0.961 . S
H330 C344 0.960 . S
H331 C344 0.961 . S
H332 C344 0.959 . S
H333 C347 0.929 . S
H334 C348 0.931 . S
H335 C350 0.930 . S
C336 H324 0.930 . S
C336 C337 1.399 1_565 S
C336 C341 1.399 1_565 S
C337 C336 1.399 1_545 S
C337 C338 1.376 . S
C338 H325 0.930 . S
C338 C337 1.376 . S
C338 C339 1.388 . S
C339 H326 0.930 . S
C339 C338 1.388 . S
C339 C340 1.390 . S
C340 C339 1.390 . S
C340 C341 1.394 . S
C340 C346 1.465 . S
C341 C336 1.399 1_545 S
C341 C340 1.394 . S
C341 C342 1.516 1_545 S
C342 C341 1.516 1_565 S
C342 C343 1.502 . S
C342 C344 1.561 . S
C342 C345 1.526 1_565 S
C343 H327 0.980 . S
C343 H328 0.959 . S
C343 H329 0.961 . S
C343 C342 1.502 . S
C344 H330 0.960 . S
C344 H331 0.961 . S
C344 H332 0.959 . S
C344 C342 1.561 . S
C345 C342 1.526 1_545 S
C345 C346 1.396 . S
C345 C350 1.390 . S
C346 C340 1.465 . S
C346 C345 1.396 . S
C346 C347 1.399 . S
C347 H333 0.929 . S
C347 C346 1.399 . S
C347 C348 1.385 . S
C348 H334 0.931 . S
C348 C347 1.385 . S
C348 C349 1.389 . S
C349 C348 1.389 . S
C349 C350 1.387 . S
C350 H335 0.930 . S
C350 C345 1.390 . S
C350 C349 1.387 . S
H351 C363 0.930 . S
H352 C365 0.930 . S
H353 C366 0.930 . S
H354 C370 0.959 . S
H355 C370 0.959 . S
H356 C370 0.961 . S
H357 C371 0.960 . S
H358 C371 0.961 . S
H359 C371 0.959 . S
H360 C374 0.929 . S
H361 C375 0.931 . S
H362 C377 0.930 . S
C363 H351 0.930 . S
C363 C364 1.399 . S
C363 C368 1.399 . S
C364 C363 1.399 . S
C364 C365 1.376 . S
C365 H352 0.930 . S
C365 C364 1.376 . S
C365 C366 1.388 . S
C366 H353 0.930 . S
C366 C365 1.388 . S
C366 C367 1.390 . S
C367 C366 1.390 . S
C367 C368 1.394 . S
C367 C373 1.465 . S
C368 C363 1.399 . S
C368 C367 1.394 . S
C368 C369 1.516 . S
C369 C368 1.516 . S
C369 C370 1.502 . S
C369 C371 1.561 . S
C369 C372 1.526 . S
C370 H354 0.959 . S
C370 H355 0.959 . S
C370 H356 0.961 . S
C370 C369 1.502 . S
C371 H357 0.960 . S
C371 H358 0.961 . S
C371 H359 0.959 . S
C371 C369 1.561 . S
C372 C369 1.526 . S
C372 C373 1.396 . S
C372 C377 1.390 1_556 S
C373 C367 1.465 . S
C373 C372 1.396 . S
C373 C374 1.399 . S
C374 H360 0.929 . S
C374 C373 1.399 . S
C374 C375 1.385 1_556 S
C375 H361 0.931 . S
C375 C374 1.385 1_554 S
C375 C376 1.389 . S
C376 C375 1.389 . S
C376 C377 1.387 . S
C377 H362 0.930 . S
C377 C372 1.390 1_554 S
C377 C376 1.387 . S
H378 C390 0.930 . S
H379 C392 0.930 . S
H380 C393 0.930 . S
H381 C397 0.959 . S
H382 C397 0.959 . S
H383 C397 0.961 . S
H384 C398 0.960 . S
H385 C398 0.961 . S
H386 C398 0.959 . S
H387 C401 0.929 . S
H388 C402 0.931 . S
H389 C404 0.930 . S
C390 H378 0.930 . S
C390 C391 1.399 . S
C390 C395 1.399 . S
C391 C390 1.399 . S
C391 C392 1.376 . S
C392 H379 0.930 . S
C392 C391 1.376 . S
C392 C393 1.388 . S
C393 H380 0.930 . S
C393 C392 1.388 . S
C393 C394 1.390 . S
C394 C393 1.390 . S
C394 C395 1.394 . S
C394 C400 1.465 . S
C395 C390 1.399 . S
C395 C394 1.394 . S
C395 C396 1.516 . S
C396 C395 1.516 . S
C396 C397 1.502 . S
C396 C398 1.561 . S
C396 C399 1.526 . S
C397 H381 0.959 . S
C397 H382 0.959 . S
C397 H383 0.961 . S
C397 C396 1.502 . S
C398 H384 0.960 . S
C398 H385 0.961 . S
C398 H386 0.959 . S
C398 C396 1.561 . S
C399 C396 1.526 . S
C399 C400 1.396 . S
C399 C404 1.390 1_556 S
C400 C394 1.465 . S
C400 C399 1.396 . S
C400 C401 1.399 . S
C401 H387 0.929 . S
C401 C400 1.399 . S
C401 C402 1.385 1_556 S
C402 H388 0.931 . S
C402 C401 1.385 1_554 S
C402 C403 1.389 . S
C403 C402 1.389 . S
C403 C404 1.387 . S
C404 H389 0.930 . S
C404 C399 1.390 1_554 S
C404 C403 1.387 . S
H405 C417 0.930 . S
H406 C419 0.930 . S
H407 C420 0.930 . S
H408 C424 0.959 . S
H409 C424 0.959 . S
H410 C424 0.961 . S
H411 C425 0.960 . S
H412 C425 0.961 . S
H413 C425 0.959 . S
H414 C428 0.929 . S
H415 C429 0.931 1_554 S
H416 C431 0.930 . S
C417 H405 0.930 . S
C417 C418 1.399 . S
C417 C422 1.399 . S
C418 C417 1.399 . S
C418 C419 1.376 . S
C419 H406 0.930 . S
C419 C418 1.376 . S
C419 C420 1.388 . S
C420 H407 0.930 . S
C420 C419 1.388 . S
C420 C421 1.390 . S
C421 C420 1.390 . S
C421 C422 1.394 . S
C421 C427 1.465 . S
C422 C417 1.399 . S
C422 C421 1.394 . S
C422 C423 1.516 . S
C423 C422 1.516 . S
C423 C424 1.502 . S
C423 C425 1.561 . S
C423 C426 1.526 . S
C424 H408 0.959 . S
C424 H409 0.959 . S
C424 H410 0.961 . S
C424 C423 1.502 . S
C425 H411 0.960 . S
C425 H412 0.961 . S
C425 H413 0.959 . S
C425 C423 1.561 . S
C426 C423 1.526 . S
C426 C427 1.396 . S
C426 C431 1.390 . S
C427 C421 1.465 . S
C427 C426 1.396 . S
C427 C428 1.399 . S
C428 H414 0.929 . S
C428 C427 1.399 . S
C428 C429 1.385 . S
C429 H415 0.931 1_556 S
C429 C428 1.385 . S
C429 C430 1.389 1_556 S
C430 C429 1.389 1_554 S
C430 C431 1.387 1_554 S
C431 H416 0.930 . S
C431 C426 1.390 . S
C431 C430 1.387 1_556 S
H432 C444 0.930 . S
H433 C446 0.930 . S
H434 C447 0.930 . S
H435 C451 0.959 . S
H436 C451 0.959 . S
H437 C451 0.961 . S
H438 C452 0.960 . S
H439 C452 0.961 . S
H440 C452 0.959 . S
H441 C455 0.929 . S
H442 C456 0.931 . S
H443 C458 0.930 . S
C444 H432 0.930 . S
C444 C445 1.399 . S
C444 C449 1.399 . S
C445 C444 1.399 . S
C445 C446 1.376 . S
C446 H433 0.930 . S
C446 C445 1.376 . S
C446 C447 1.388 . S
C447 H434 0.930 . S
C447 C446 1.388 . S
C447 C448 1.390 . S
C448 C447 1.390 . S
C448 C449 1.394 . S
C448 C454 1.465 . S
C449 C444 1.399 . S
C449 C448 1.394 . S
C449 C450 1.516 . S
C450 C449 1.516 . S
C450 C451 1.502 . S
C450 C452 1.561 . S
C450 C453 1.526 . S
C451 H435 0.959 . S
C451 H436 0.959 . S
C451 H437 0.961 . S
C451 C450 1.502 . S
C452 H438 0.960 . S
C452 H439 0.961 . S
C452 H440 0.959 . S
C452 C450 1.561 . S
C453 C450 1.526 . S
C453 C454 1.396 . S
C453 C458 1.390 . S
C454 C448 1.465 . S
C454 C453 1.396 . S
C454 C455 1.399 . S
C455 H441 0.929 . S
C455 C454 1.399 . S
C455 C456 1.385 1_554 S
C456 H442 0.931 . S
C456 C455 1.385 1_556 S
C456 C457 1.389 . S
C457 C456 1.389 . S
C457 C458 1.387 1_556 S
C458 H443 0.930 . S
C458 C453 1.390 . S
C458 C457 1.387 1_554 S
H459 C471 0.930 . S
H460 C473 0.930 . S
H461 C474 0.930 . S
H462 C478 0.959 1_455 S
H463 C478 0.959 . S
H464 C478 0.961 . S
H465 C479 0.960 . S
H466 C479 0.961 . S
H467 C479 0.959 . S
H468 C482 0.929 . S
H469 C483 0.931 . S
H470 C485 0.930 . S
C471 H459 0.930 . S
C471 C472 1.399 . S
C471 C476 1.399 . S
C472 C471 1.399 . S
C472 C473 1.376 . S
C473 H460 0.930 . S
C473 C472 1.376 . S
C473 C474 1.388 . S
C474 H461 0.930 . S
C474 C473 1.388 . S
C474 C475 1.390 . S
C475 C474 1.390 . S
C475 C476 1.394 . S
C475 C481 1.465 . S
C476 C471 1.399 . S
C476 C475 1.394 . S
C476 C477 1.516 . S
C477 C476 1.516 . S
C477 C478 1.502 . S
C477 C479 1.561 . S
C477 C480 1.526 . S
C478 H462 0.959 1_655 S
C478 H463 0.959 . S
C478 H464 0.961 . S
C478 C477 1.502 . S
C479 H465 0.960 . S
C479 H466 0.961 . S
C479 H467 0.959 . S
C479 C477 1.561 . S
C480 C477 1.526 . S
C480 C481 1.396 . S
C480 C485 1.390 . S
C481 C475 1.465 . S
C481 C480 1.396 . S
C481 C482 1.399 . S
C482 H468 0.929 . S
C482 C481 1.399 . S
C482 C483 1.385 1_554 S
C483 H469 0.931 . S
C483 C482 1.385 1_556 S
C483 C484 1.389 . S
C484 C483 1.389 . S
C484 C485 1.387 1_556 S
C485 H470 0.930 . S
C485 C480 1.390 . S
C485 C484 1.387 1_554 S
H486 C498 0.930 . S
H487 C500 0.930 . S
H488 C501 0.930 . S
H489 C505 0.959 1_455 S
H490 C505 0.959 . S
H491 C505 0.961 . S
H492 C506 0.960 . S
H493 C506 0.961 . S
H494 C506 0.959 . S
H495 C509 0.929 . S
H496 C510 0.931 1_556 S
H497 C512 0.930 1_556 S
C498 H486 0.930 . S
C498 C499 1.399 . S
C498 C503 1.399 . S
C499 C498 1.399 . S
C499 C500 1.376 . S
C500 H487 0.930 . S
C500 C499 1.376 . S
C500 C501 1.388 . S
C501 H488 0.930 . S
C501 C500 1.388 . S
C501 C502 1.390 . S
C502 C501 1.390 . S
C502 C503 1.394 . S
C502 C508 1.465 . S
C503 C498 1.399 . S
C503 C502 1.394 . S
C503 C504 1.516 . S
C504 C503 1.516 . S
C504 C505 1.502 . S
C504 C506 1.561 . S
C504 C507 1.526 . S
C505 H489 0.959 1_655 S
C505 H490 0.959 . S
C505 H491 0.961 . S
C505 C504 1.502 . S
C506 H492 0.960 . S
C506 H493 0.961 . S
C506 H494 0.959 . S
C506 C504 1.561 . S
C507 C504 1.526 . S
C507 C508 1.396 . S
C507 C512 1.390 . S
C508 C502 1.465 . S
C508 C507 1.396 . S
C508 C509 1.399 . S
C509 H495 0.929 . S
C509 C508 1.399 . S
C509 C510 1.385 . S
C510 H496 0.931 1_554 S
C510 C509 1.385 . S
C510 C511 1.389 1_554 S
C511 C510 1.389 1_556 S
C511 C512 1.387 1_556 S
C512 H497 0.930 1_554 S
C512 C507 1.390 . S
C512 C511 1.387 1_554 S
H513 C525 0.930 . S
H514 C527 0.930 . S
H515 C528 0.930 . S
H516 C532 0.959 . S
H517 C532 0.959 . S
H518 C532 0.961 . S
H519 C533 0.960 . S
H520 C533 0.961 . S
H521 C533 0.959 . S
H522 C536 0.929 . S
H523 C537 0.931 . S
H524 C539 0.930 . S
C525 H513 0.930 . S
C525 C526 1.399 . S
C525 C530 1.399 . S
C526 C525 1.399 . S
C526 C527 1.376 . S
C527 H514 0.930 . S
C527 C526 1.376 . S
C527 C528 1.388 . S
C528 H515 0.930 . S
C528 C527 1.388 . S
C528 C529 1.390 . S
C529 C528 1.390 . S
C529 C530 1.394 . S
C529 C535 1.465 . S
C530 C525 1.399 . S
C530 C529 1.394 . S
C530 C531 1.516 . S
C531 C530 1.516 . S
C531 C532 1.502 . S
C531 C533 1.561 . S
C531 C534 1.526 . S
C532 H516 0.959 . S
C532 H517 0.959 . S
C532 H518 0.961 . S
C532 C531 1.502 . S
C533 H519 0.960 . S
C533 H520 0.961 . S
C533 H521 0.959 . S
C533 C531 1.561 . S
C534 C531 1.526 . S
C534 C535 1.396 . S
C534 C539 1.390 . S
C535 C529 1.465 . S
C535 C534 1.396 . S
C535 C536 1.399 . S
C536 H522 0.929 . S
C536 C535 1.399 . S
C536 C537 1.385 . S
C537 H523 0.931 . S
C537 C536 1.385 . S
C537 C538 1.389 . S
C538 C537 1.389 . S
C538 C539 1.387 . S
C539 H524 0.930 . S
C539 C534 1.390 . S
C539 C538 1.387 . S
H540 C552 0.930 . S
H541 C554 0.930 . S
H542 C555 0.930 . S
H543 C559 0.959 . S
H544 C559 0.959 . S
H545 C559 0.961 . S
H546 C560 0.960 . S
H547 C560 0.961 . S
H548 C560 0.959 . S
H549 C563 0.929 . S
H550 C564 0.931 . S
H551 C566 0.930 . S
C552 H540 0.930 . S
C552 C553 1.399 . S
C552 C557 1.399 . S
C553 C552 1.399 . S
C553 C554 1.376 . S
C554 H541 0.930 . S
C554 C553 1.376 . S
C554 C555 1.388 . S
C555 H542 0.930 . S
C555 C554 1.388 . S
C555 C556 1.390 . S
C556 C555 1.390 . S
C556 C557 1.394 . S
C556 C562 1.465 . S
C557 C552 1.399 . S
C557 C556 1.394 . S
C557 C558 1.516 . S
C558 C557 1.516 . S
C558 C559 1.502 . S
C558 C560 1.561 . S
C558 C561 1.526 . S
C559 H543 0.959 . S
C559 H544 0.959 . S
C559 H545 0.961 . S
C559 C558 1.502 . S
C560 H546 0.960 . S
C560 H547 0.961 . S
C560 H548 0.959 . S
C560 C558 1.561 . S
C561 C558 1.526 . S
C561 C562 1.396 . S
C561 C566 1.390 . S
C562 C556 1.465 . S
C562 C561 1.396 . S
C562 C563 1.399 . S
C563 H549 0.929 . S
C563 C562 1.399 . S
C563 C564 1.385 . S
C564 H550 0.931 . S
C564 C563 1.385 . S
C564 C565 1.389 . S
C565 C564 1.389 . S
C565 C566 1.387 . S
C566 H551 0.930 . S
C566 C561 1.390 . S
C566 C565 1.387 . S
H567 C579 0.930 . S
H568 C581 0.930 . S
H569 C582 0.930 . S
H570 C586 0.959 . S
H571 C586 0.959 . S
H572 C586 0.961 . S
H573 C587 0.960 . S
H574 C587 0.961 . S
H575 C587 0.959 . S
H576 C590 0.929 . S
H577 C591 0.931 . S
H578 C593 0.930 . S
C579 H567 0.930 . S
C579 C580 1.399 . S
C579 C584 1.399 . S
C580 C579 1.399 . S
C580 C581 1.376 . S
C581 H568 0.930 . S
C581 C580 1.376 . S
C581 C582 1.388 . S
C582 H569 0.930 . S
C582 C581 1.388 . S
C582 C583 1.390 . S
C583 C582 1.390 . S
C583 C584 1.394 . S
C583 C589 1.465 . S
C584 C579 1.399 . S
C584 C583 1.394 . S
C584 C585 1.516 . S
C585 C584 1.516 . S
C585 C586 1.502 . S
C585 C587 1.561 . S
C585 C588 1.526 . S
C586 H570 0.959 . S
C586 H571 0.959 . S
C586 H572 0.961 . S
C586 C585 1.502 . S
C587 H573 0.960 . S
C587 H574 0.961 . S
C587 H575 0.959 . S
C587 C585 1.561 . S
C588 C585 1.526 . S
C588 C589 1.396 . S
C588 C593 1.390 . S
C589 C583 1.465 . S
C589 C588 1.396 . S
C589 C590 1.399 . S
C590 H576 0.929 . S
C590 C589 1.399 . S
C590 C591 1.385 . S
C591 H577 0.931 . S
C591 C590 1.385 . S
C591 C592 1.389 . S
C592 C591 1.389 . S
C592 C593 1.387 . S
C593 H578 0.930 . S
C593 C588 1.390 . S
C593 C592 1.387 . S
H594 C606 0.930 1_556 S
H595 C608 0.930 . S
H596 C609 0.930 . S
H597 C613 0.959 . S
H598 C613 0.959 . S
H599 C613 0.961 . S
H600 C614 0.960 . S
H601 C614 0.961 . S
H602 C614 0.959 . S
H603 C617 0.929 . S
H604 C618 0.931 . S
H605 C620 0.930 . S
C606 H594 0.930 1_554 S
C606 C607 1.399 . S
C606 C611 1.399 1_554 S
C607 C606 1.399 . S
C607 C608 1.376 . S
C608 H595 0.930 . S
C608 C607 1.376 . S
C608 C609 1.388 . S
C609 H596 0.930 . S
C609 C608 1.388 . S
C609 C610 1.390 . S
C610 C609 1.390 . S
C610 C611 1.394 1_554 S
C610 C616 1.465 1_554 S
C611 C606 1.399 1_556 S
C611 C610 1.394 1_556 S
C611 C612 1.516 . S
C612 C611 1.516 . S
C612 C613 1.502 . S
C612 C614 1.561 . S
C612 C615 1.526 . S
C613 H597 0.959 . S
C613 H598 0.959 . S
C613 H599 0.961 . S
C613 C612 1.502 . S
C614 H600 0.960 . S
C614 H601 0.961 . S
C614 H602 0.959 . S
C614 C612 1.561 . S
C615 C612 1.526 . S
C615 C616 1.396 . S
C615 C620 1.390 . S
C616 C610 1.465 1_556 S
C616 C615 1.396 . S
C616 C617 1.399 1_556 S
C617 H603 0.929 . S
C617 C616 1.399 1_554 S
C617 C618 1.385 1_554 S
C618 H604 0.931 . S
C618 C617 1.385 1_556 S
C618 C619 1.389 . S
C619 C618 1.389 . S
C619 C620 1.387 . S
C620 H605 0.930 . S
C620 C615 1.390 . S
C620 C619 1.387 . S
H621 C633 0.917 1_455 S
H622 C635 0.930 . S
H623 C636 0.930 . S
H624 C640 0.959 . S
H625 C640 0.959 . S
H626 C640 0.961 . S
H627 C641 0.960 . S
H628 C641 0.961 . S
H629 C641 0.959 . S
H630 C644 0.929 . S
H631 C645 0.931 . S
H632 C647 0.930 . S
C633 H621 0.917 1_655 S
C633 C634 1.399 . S
C633 C638 1.399 . S
C634 C633 1.399 . S
C634 C635 1.376 . S
C635 H622 0.930 . S
C635 C634 1.376 . S
C635 C636 1.388 . S
C636 H623 0.930 . S
C636 C635 1.388 . S
C636 C637 1.390 . S
C637 C636 1.390 . S
C637 C638 1.394 . S
C637 C643 1.465 . S
C638 C633 1.399 . S
C638 C637 1.394 . S
C638 C639 1.516 1_655 S
C639 C638 1.516 1_455 S
C639 C640 1.502 . S
C639 C641 1.561 1_455 S
C639 C642 1.526 . S
C640 H624 0.959 . S
C640 H625 0.959 . S
C640 H626 0.961 . S
C640 C639 1.502 . S
C641 H627 0.960 . S
C641 H628 0.961 . S
C641 H629 0.959 . S
C641 C639 1.561 1_655 S
C642 C639 1.526 . S
C642 C643 1.396 1_455 S
C642 C647 1.389 . S
C643 C637 1.465 . S
C643 C642 1.396 1_655 S
C643 C644 1.399 1_556 S
C644 H630 0.929 . S
C644 C643 1.399 1_554 S
C644 C645 1.385 . S
C645 H631 0.931 . S
C645 C644 1.385 . S
C645 C646 1.389 1_654 S
C646 C645 1.389 1_456 S
C646 C647 1.387 . S
C647 H632 0.930 . S
C647 C642 1.389 . S
C647 C646 1.387 . S
H648 C660 0.930 . S
H649 C662 0.930 . S
H650 C663 0.930 1_554 S
H651 C667 0.959 . S
H652 C667 0.959 . S
H653 C667 0.961 . S
H654 C668 0.960 . S
H655 C668 0.961 . S
H656 C668 0.959 . S
H657 C671 0.929 . S
H658 C672 0.931 . S
H659 C674 0.930 . S
C660 H648 0.930 . S
C660 C661 1.399 . S
C660 C665 1.399 . S
C661 C660 1.399 . S
C661 C662 1.376 . S
C662 H649 0.930 . S
C662 C661 1.376 . S
C662 C663 1.388 . S
C663 H650 0.930 1_556 S
C663 C662 1.388 . S
C663 C664 1.390 . S
C664 C663 1.390 . S
C664 C665 1.394 . S
C664 C670 1.465 1_556 S
C665 C660 1.399 . S
C665 C664 1.394 . S
C665 C666 1.516 . S
C666 C665 1.516 . S
C666 C667 1.502 . S
C666 C668 1.561 . S
C666 C669 1.526 . S
C667 H651 0.959 . S
C667 H652 0.959 . S
C667 H653 0.961 . S
C667 C666 1.502 . S
C668 H654 0.960 . S
C668 H655 0.961 . S
C668 H656 0.959 . S
C668 C666 1.561 . S
C669 C666 1.526 . S
C669 C670 1.396 1_556 S
C669 C674 1.390 . S
C670 C664 1.465 1_554 S
C670 C669 1.396 1_554 S
C670 C671 1.399 . S
C671 H657 0.929 . S
C671 C670 1.399 . S
C671 C672 1.385 . S
C672 H658 0.931 . S
C672 C671 1.385 . S
C672 C673 1.389 . S
C673 C672 1.389 . S
C673 C674 1.387 1_554 S
C674 H659 0.930 . S
C674 C669 1.390 . S
C674 C673 1.387 1_556 S
H675 C687 0.930 . S
H676 C689 0.930 . S
H677 C690 0.930 . S
H678 C694 0.959 . S
H679 C694 0.959 . S
H680 C694 0.961 . S
H681 C695 0.960 . S
H682 C695 0.961 . S
H683 C695 0.959 . S
H684 C698 0.929 1_554 S
H685 C699 0.931 1_655 S
H686 C701 0.930 . S
C687 H675 0.930 . S
C687 C688 1.399 1_455 S
C687 C692 1.399 . S
C688 C687 1.399 1_655 S
C688 C689 1.376 . S
C689 H676 0.930 . S
C689 C688 1.376 . S
C689 C690 1.388 . S
C690 H677 0.930 . S
C690 C689 1.388 . S
C690 C691 1.390 1_655 S
C691 C690 1.390 1_455 S
C691 C692 1.394 . S
C691 C697 1.465 . S
C692 C687 1.399 . S
C692 C691 1.394 . S
C692 C693 1.516 . S
C693 C692 1.516 . S
C693 C694 1.502 . S
C693 C695 1.561 . S
C693 C696 1.526 . S
C694 H678 0.959 . S
C694 H679 0.959 . S
C694 H680 0.961 . S
C694 C693 1.502 . S
C695 H681 0.960 . S
C695 H682 0.961 . S
C695 H683 0.959 . S
C695 C693 1.561 . S
C696 C693 1.526 . S
C696 C697 1.396 . S
C696 C701 1.390 . S
C697 C691 1.465 . S
C697 C696 1.396 . S
C697 C698 1.399 1_455 S
C698 H684 0.929 1_556 S
C698 C697 1.399 1_655 S
C698 C699 1.385 1_656 S
C699 H685 0.931 1_455 S
C699 C698 1.385 1_454 S
C699 C700 1.389 1_554 S
C700 C699 1.389 1_556 S
C700 C701 1.387 . S
C701 H686 0.930 . S
C701 C696 1.390 . S
C701 C700 1.387 . S
H702 C714 0.930 . S
H703 C716 0.930 . S
H704 C717 0.930 . S
H705 C721 0.959 . S
H706 C721 0.959 . S
H707 C721 0.961 . S
H708 C722 0.960 . S
H709 C722 0.961 . S
H710 C722 0.959 . S
H711 C725 0.929 1_554 S
H712 C726 0.931 . S
H713 C728 0.930 . S
C714 H702 0.930 . S
C714 C715 1.399 1_556 S
C714 C719 1.399 . S
C715 C714 1.399 1_554 S
C715 C716 1.376 . S
C716 H703 0.930 . S
C716 C715 1.376 . S
C716 C717 1.388 . S
C717 H704 0.930 . S
C717 C716 1.388 . S
C717 C718 1.390 1_554 S
C718 C717 1.390 1_556 S
C718 C719 1.394 . S
C718 C724 1.465 . S
C719 C714 1.399 . S
C719 C718 1.394 . S
C719 C720 1.516 . S
C720 C719 1.516 . S
C720 C721 1.502 . S
C720 C722 1.561 . S
C720 C723 1.526 . S
C721 H705 0.959 . S
C721 H706 0.959 . S
C721 H707 0.961 . S
C721 C720 1.502 . S
C722 H708 0.960 . S
C722 H709 0.961 . S
C722 H710 0.959 . S
C722 C720 1.561 . S
C723 C720 1.526 . S
C723 C724 1.396 . S
C723 C728 1.390 . S
C724 C718 1.465 . S
C724 C723 1.396 . S
C724 C725 1.399 . S
C725 H711 0.929 1_556 S
C725 C724 1.399 . S
C725 C726 1.385 . S
C726 H712 0.931 . S
C726 C725 1.385 . S
C726 C727 1.389 . S
C727 C726 1.389 . S
C727 C728 1.387 . S
C728 H713 0.930 . S
C728 C723 1.390 . S
C728 C727 1.387 . S
H729 C741 0.930 . S
H730 C743 0.930 . S
H731 C744 0.930 . S
H732 C748 0.959 . S
H733 C748 0.959 . S
H734 C748 0.961 . S
H735 C749 0.960 . S
H736 C749 0.961 . S
H737 C749 0.959 . S
H738 C752 0.929 . S
H739 C753 0.931 1_556 S
H740 C755 0.930 . S
C741 H729 0.930 . S
C741 C742 1.399 . S
C741 C746 1.399 . S
C742 C741 1.399 . S
C742 C743 1.376 . S
C743 H730 0.930 . S
C743 C742 1.376 . S
C743 C744 1.388 . S
C744 H731 0.930 . S
C744 C743 1.388 . S
C744 C745 1.390 . S
C745 C744 1.390 . S
C745 C746 1.394 . S
C745 C751 1.465 . S
C746 C741 1.399 . S
C746 C745 1.394 . S
C746 C747 1.516 1_556 S
C747 C746 1.516 1_554 S
C747 C748 1.502 . S
C747 C749 1.561 . S
C747 C750 1.526 . S
C748 H732 0.959 . S
C748 H733 0.959 . S
C748 H734 0.961 . S
C748 C747 1.502 . S
C749 H735 0.960 . S
C749 H736 0.961 . S
C749 H737 0.959 . S
C749 C747 1.561 . S
C750 C747 1.526 . S
C750 C751 1.396 1_554 S
C750 C755 1.390 . S
C751 C745 1.465 . S
C751 C750 1.396 1_556 S
C751 C752 1.399 . S
C752 H738 0.929 . S
C752 C751 1.399 . S
C752 C753 1.385 1_556 S
C753 H739 0.931 1_554 S
C753 C752 1.385 1_554 S
C753 C754 1.389 . S
C754 C753 1.389 . S
C754 C755 1.387 . S
C755 H740 0.930 . S
C755 C750 1.390 . S
C755 C754 1.387 . S
H756 C768 0.930 . S
H757 C770 0.930 . S
H758 C771 0.930 . S
H759 C775 0.959 . S
H760 C775 0.959 . S
H761 C775 0.961 . S
H762 C776 0.960 . S
H763 C776 0.961 . S
H764 C776 0.959 . S
H765 C779 0.929 . S
H766 C780 0.931 . S
H767 C782 0.930 . S
C768 H756 0.930 . S
C768 C769 1.399 . S
C768 C773 1.399 . S
C769 C768 1.399 . S
C769 C770 1.376 . S
C770 H757 0.930 . S
C770 C769 1.376 . S
C770 C771 1.388 . S
C771 H758 0.930 . S
C771 C770 1.388 . S
C771 C772 1.390 . S
C772 C771 1.390 . S
C772 C773 1.394 . S
C772 C778 1.465 . S
C773 C768 1.399 . S
C773 C772 1.394 . S
C773 C774 1.516 . S
C774 C773 1.516 . S
C774 C775 1.502 . S
C774 C776 1.561 . S
C774 C777 1.526 . S
C775 H759 0.959 . S
C775 H760 0.959 . S
C775 H761 0.961 . S
C775 C774 1.502 . S
C776 H762 0.960 . S
C776 H763 0.961 . S
C776 H764 0.959 . S
C776 C774 1.561 . S
C777 C774 1.526 . S
C777 C778 1.396 . S
C777 C782 1.390 . S
C778 C772 1.465 . S
C778 C777 1.396 . S
C778 C779 1.399 . S
C779 H765 0.929 . S
C779 C778 1.399 . S
C779 C780 1.385 . S
C780 H766 0.931 . S
C780 C779 1.385 . S
C780 C781 1.389 . S
C781 C780 1.389 . S
C781 C782 1.387 . S
C782 H767 0.930 . S
C782 C777 1.390 . S
C782 C781 1.387 . S
H783 C795 0.930 . S
H784 C797 0.930 . S
H785 C798 0.930 . S
H786 C802 0.959 . S
H787 C802 0.959 1_556 S
H788 C802 0.961 . S
H789 C803 0.960 . S
H790 C803 0.961 . S
H791 C803 0.959 1_554 S
H792 C806 0.929 . S
H793 C807 0.931 . S
H794 C809 0.930 1_556 S
C795 H783 0.930 . S
C795 C796 1.399 . S
C795 C800 1.399 . S
C796 C795 1.399 . S
C796 C797 1.376 . S
C797 H784 0.930 . S
C797 C796 1.376 . S
C797 C798 1.388 . S
C798 H785 0.930 . S
C798 C797 1.388 . S
C798 C799 1.390 . S
C799 C798 1.390 . S
C799 C800 1.394 . S
C799 C805 1.465 . S
C800 C795 1.399 . S
C800 C799 1.394 . S
C800 C801 1.516 . S
C801 C800 1.516 . S
C801 C802 1.502 . S
C801 C803 1.561 1_554 S
C801 C804 1.526 . S
C802 H786 0.959 . S
C802 H787 0.959 1_554 S
C802 H788 0.961 . S
C802 C801 1.502 . S
C803 H789 0.960 . S
C803 H790 0.961 . S
C803 H791 0.959 1_556 S
C803 C801 1.561 1_556 S
C804 C801 1.526 . S
C804 C805 1.396 . S
C804 C809 1.390 . S
C805 C799 1.465 . S
C805 C804 1.396 . S
C805 C806 1.399 . S
C806 H792 0.929 . S
C806 C805 1.399 . S
C806 C807 1.385 . S
C807 H793 0.931 . S
C807 C806 1.385 . S
C807 C808 1.389 . S
C808 C807 1.389 . S
C808 C809 1.387 . S
C809 H794 0.930 1_554 S
C809 C804 1.390 . S
C809 C808 1.387 . S
H810 C822 0.930 . S
H811 C824 0.930 1_556 S
H812 C825 0.930 1_556 S
H813 C829 0.959 . S
H814 C829 0.959 . S
H815 C829 0.961 . S
H816 C830 0.960 . S
H817 C830 0.961 . S
H818 C830 0.959 . S
H819 C833 0.929 . S
H820 C834 0.931 . S
H821 C836 0.930 . S
C822 H810 0.930 . S
C822 C823 1.399 . S
C822 C827 1.399 . S
C823 C822 1.399 . S
C823 C824 1.376 . S
C824 H811 0.930 1_554 S
C824 C823 1.376 . S
C824 C825 1.388 . S
C825 H812 0.930 1_554 S
C825 C824 1.388 . S
C825 C826 1.390 . S
C826 C825 1.390 . S
C826 C827 1.394 . S
C826 C832 1.465 . S
C827 C822 1.399 . S
C827 C826 1.394 . S
C827 C828 1.516 . S
C828 C827 1.516 . S
C828 C829 1.502 . S
C828 C830 1.561 . S
C828 C831 1.526 . S
C829 H813 0.959 . S
C829 H814 0.959 . S
C829 H815 0.961 . S
C829 C828 1.502 . S
C830 H816 0.960 . S
C830 H817 0.961 . S
C830 H818 0.959 . S
C830 C828 1.561 . S
C831 C828 1.526 . S
C831 C832 1.396 . S
C831 C836 1.390 . S
C832 C826 1.465 . S
C832 C831 1.396 . S
C832 C833 1.399 . S
C833 H819 0.929 . S
C833 C832 1.399 . S
C833 C834 1.385 . S
C834 H820 0.931 . S
C834 C833 1.385 . S
C834 C835 1.389 . S
C835 C834 1.389 . S
C835 C836 1.387 . S
C836 H821 0.930 . S
C836 C831 1.390 . S
C836 C835 1.387 . S
H837 C849 0.930 . S
H838 C851 0.930 . S
H839 C852 0.930 . S
H840 C856 0.959 . S
H841 C856 0.959 . S
H842 C856 0.961 . S
H843 C857 0.960 . S
H844 C857 0.961 . S
H845 C857 0.959 . S
H846 C860 0.929 . S
H847 C861 0.931 . S
H848 C863 0.930 . S
C849 H837 0.930 . S
C849 C850 1.399 . S
C849 C854 1.399 . S
C850 C849 1.399 . S
C850 C851 1.376 . S
C851 H838 0.930 . S
C851 C850 1.376 . S
C851 C852 1.388 . S
C852 H839 0.930 . S
C852 C851 1.388 . S
C852 C853 1.390 . S
C853 C852 1.390 . S
C853 C854 1.394 . S
C853 C859 1.465 . S
C854 C849 1.399 . S
C854 C853 1.394 . S
C854 C855 1.516 . S
C855 C854 1.516 . S
C855 C856 1.502 . S
C855 C857 1.561 . S
C855 C858 1.526 . S
C856 H840 0.959 . S
C856 H841 0.959 . S
C856 H842 0.961 . S
C856 C855 1.502 . S
C857 H843 0.960 . S
C857 H844 0.961 . S
C857 H845 0.959 . S
C857 C855 1.561 . S
C858 C855 1.526 . S
C858 C859 1.396 . S
C858 C863 1.390 . S
C859 C853 1.465 . S
C859 C858 1.396 . S
C859 C860 1.399 . S
C860 H846 0.929 . S
C860 C859 1.399 . S
C860 C861 1.385 . S
C861 H847 0.931 . S
C861 C860 1.385 . S
C861 C862 1.389 . S
C862 C861 1.389 . S
C862 C863 1.387 . S
C863 H848 0.930 . S
C863 C858 1.390 . S
C863 C862 1.387 . S
H864 C876 0.930 . S
H865 C878 0.930 . S
H866 C879 0.930 . S
H867 C883 0.959 . S
H868 C883 0.959 . S
H869 C883 0.961 . S
H870 C884 0.960 . S
H871 C884 0.961 . S
H872 C884 0.959 . S
H873 C887 0.929 . S
H874 C888 0.931 . S
H875 C890 0.930 . S
C876 H864 0.930 . S
C876 C877 1.399 . S
C876 C881 1.399 . S
C877 C876 1.399 . S
C877 C878 1.376 . S
C878 H865 0.930 . S
C878 C877 1.376 . S
C878 C879 1.388 . S
C879 H866 0.930 . S
C879 C878 1.388 . S
C879 C880 1.390 . S
C880 C879 1.390 . S
C880 C881 1.394 . S
C880 C886 1.465 . S
C881 C876 1.399 . S
C881 C880 1.394 . S
C881 C882 1.516 . S
C882 C881 1.516 . S
C882 C883 1.502 . S
C882 C884 1.561 . S
C882 C885 1.526 . S
C883 H867 0.959 . S
C883 H868 0.959 . S
C883 H869 0.961 . S
C883 C882 1.502 . S
C884 H870 0.960 . S
C884 H871 0.961 . S
C884 H872 0.959 . S
C884 C882 1.561 . S
C885 C882 1.526 . S
C885 C886 1.396 . S
C885 C890 1.390 . S
C886 C880 1.465 . S
C886 C885 1.396 . S
C886 C887 1.399 . S
C887 H873 0.929 . S
C887 C886 1.399 . S
C887 C888 1.385 . S
C888 H874 0.931 . S
C888 C887 1.385 . S
C888 C889 1.389 . S
C889 C888 1.389 . S
C889 C890 1.387 . S
C890 H875 0.930 . S
C890 C885 1.390 . S
C890 C889 1.387 . S
H891 C903 0.930 . S
H892 C905 0.930 . S
H893 C906 0.930 . S
H894 C910 0.959 . S
H895 C910 0.959 . S
H896 C910 0.961 . S
H897 C911 0.960 . S
H898 C911 0.961 . S
H899 C911 0.959 . S
H900 C914 0.929 . S
H901 C915 0.931 . S
H902 C917 0.930 . S
C903 H891 0.930 . S
C903 C904 1.399 . S
C903 C908 1.399 . S
C904 C903 1.399 . S
C904 C905 1.376 . S
C905 H892 0.930 . S
C905 C904 1.376 . S
C905 C906 1.388 . S
C906 H893 0.930 . S
C906 C905 1.388 . S
C906 C907 1.390 . S
C907 C906 1.390 . S
C907 C908 1.394 . S
C907 C913 1.465 . S
C908 C903 1.399 . S
C908 C907 1.394 . S
C908 C909 1.516 . S
C909 C908 1.516 . S
C909 C910 1.502 . S
C909 C911 1.561 . S
C909 C912 1.526 . S
C910 H894 0.959 . S
C910 H895 0.959 . S
C910 H896 0.961 . S
C910 C909 1.502 . S
C911 H897 0.960 . S
C911 H898 0.961 . S
C911 H899 0.959 . S
C911 C909 1.561 . S
C912 C909 1.526 . S
C912 C913 1.396 . S
C912 C917 1.390 . S
C913 C907 1.465 . S
C913 C912 1.396 . S
C913 C914 1.399 . S
C914 H900 0.929 . S
C914 C913 1.399 . S
C914 C915 1.385 . S
C915 H901 0.931 . S
C915 C914 1.385 . S
C915 C916 1.389 . S
C916 C915 1.389 . S
C916 C917 1.387 . S
C917 H902 0.930 . S
C917 C912 1.390 . S
C917 C916 1.387 . S
H918 C930 0.930 . S
H919 C932 0.930 . S
H920 C933 0.930 . S
H921 C937 0.959 . S
H922 C937 0.959 . S
H923 C937 0.961 . S
H924 C938 0.960 . S
H925 C938 0.961 . S
H926 C938 0.959 . S
H927 C941 0.929 . S
H928 C942 0.931 . S
H929 C944 0.930 . S
C930 H918 0.930 . S
C930 C931 1.399 . S
C930 C935 1.399 . S
C931 C930 1.399 . S
C931 C932 1.376 . S
C932 H919 0.930 . S
C932 C931 1.376 . S
C932 C933 1.388 . S
C933 H920 0.930 . S
C933 C932 1.388 . S
C933 C934 1.390 . S
C934 C933 1.390 . S
C934 C935 1.394 . S
C934 C940 1.465 . S
C935 C930 1.399 . S
C935 C934 1.394 . S
C935 C936 1.516 . S
C936 C935 1.516 . S
C936 C937 1.502 . S
C936 C938 1.561 . S
C936 C939 1.526 . S
C937 H921 0.959 . S
C937 H922 0.959 . S
C937 H923 0.961 . S
C937 C936 1.502 . S
C938 H924 0.960 . S
C938 H925 0.961 . S
C938 H926 0.959 . S
C938 C936 1.561 . S
C939 C936 1.526 . S
C939 C940 1.396 . S
C939 C944 1.390 . S
C940 C934 1.465 . S
C940 C939 1.396 . S
C940 C941 1.399 . S
C941 H927 0.929 . S
C941 C940 1.399 . S
C941 C942 1.385 . S
C942 H928 0.931 . S
C942 C941 1.385 . S
C942 C943 1.389 . S
C943 C942 1.389 . S
C943 C944 1.387 . S
C944 H929 0.930 . S
C944 C939 1.390 . S
C944 C943 1.387 . S
H945 C957 0.930 . S
H946 C959 0.930 . S
H947 C960 0.930 1_455 S
H948 C964 0.959 . S
H949 C964 0.959 . S
H950 C964 0.961 . S
H951 C965 0.960 . S
H952 C965 0.961 . S
H953 C965 0.959 . S
H954 C968 0.929 1_455 S
H955 C969 0.931 1_455 S
H956 C971 0.930 . S
C957 H945 0.930 . S
C957 C958 1.399 . S
C957 C962 1.399 . S
C958 C957 1.399 . S
C958 C959 1.376 . S
C959 H946 0.930 . S
C959 C958 1.376 . S
C959 C960 1.388 . S
C960 H947 0.930 1_655 S
C960 C959 1.388 . S
C960 C961 1.390 . S
C961 C960 1.390 . S
C961 C962 1.394 . S
C961 C967 1.465 . S
C962 C957 1.399 . S
C962 C961 1.394 . S
C962 C963 1.516 . S
C963 C962 1.516 . S
C963 C964 1.502 . S
C963 C965 1.561 . S
C963 C966 1.526 . S
C964 H948 0.959 . S
C964 H949 0.959 . S
C964 H950 0.961 . S
C964 C963 1.502 . S
C965 H951 0.960 . S
C965 H952 0.961 . S
C965 H953 0.959 . S
C965 C963 1.561 . S
C966 C963 1.526 . S
C966 C967 1.396 . S
C966 C971 1.390 . S
C967 C961 1.465 . S
C967 C966 1.396 . S
C967 C968 1.399 . S
C968 H954 0.929 1_655 S
C968 C967 1.399 . S
C968 C969 1.385 . S
C969 H955 0.931 1_655 S
C969 C968 1.385 . S
C969 C970 1.389 . S
C970 C969 1.389 . S
C970 C971 1.387 . S
C971 H956 0.930 . S
C971 C966 1.390 . S
C971 C970 1.387 . S
H972 C984 0.930 . S
H973 C986 0.930 . S
H974 C987 0.930 . S
H975 C991 0.959 . S
H976 C991 0.959 . S
H977 C991 0.961 . S
H978 C992 0.960 . S
H979 C992 0.961 . S
H980 C992 0.959 . S
H981 C995 0.929 . S
H982 C996 0.931 . S
H983 C998 0.930 . S
C984 H972 0.930 . S
C984 C985 1.399 . S
C984 C989 1.399 . S
C985 C984 1.399 . S
C985 C986 1.376 . S
C986 H973 0.930 . S
C986 C985 1.376 . S
C986 C987 1.388 . S
C987 H974 0.930 . S
C987 C986 1.388 . S
C987 C988 1.390 . S
C988 C987 1.390 . S
C988 C989 1.394 . S
C988 C994 1.465 . S
C989 C984 1.399 . S
C989 C988 1.394 . S
C989 C990 1.516 . S
C990 C989 1.516 . S
C990 C991 1.502 . S
C990 C992 1.561 . S
C990 C993 1.526 . S
C991 H975 0.959 . S
C991 H976 0.959 . S
C991 H977 0.961 . S
C991 C990 1.502 . S
C992 H978 0.960 . S
C992 H979 0.961 . S
C992 H980 0.959 . S
C992 C990 1.561 . S
C993 C990 1.526 . S
C993 C994 1.396 . S
C993 C998 1.390 . S
C994 C988 1.465 . S
C994 C993 1.396 . S
C994 C995 1.399 . S
C995 H981 0.929 . S
C995 C994 1.399 . S
C995 C996 1.385 . S
C996 H982 0.931 . S
C996 C995 1.385 . S
C996 C997 1.389 . S
C997 C996 1.389 . S
C997 C998 1.387 . S
C998 H983 0.930 . S
C998 C993 1.390 . S
C998 C997 1.387 . S
C283 C10 1.063 . S
C295 C1 1.061 . S
C310 C31 1.102 . S
C322 C40 1.059 . S
C337 C70 1.082 . S
C349 C61 1.125 . S
C364 C91 1.046 . S
C376 C100 1.086 . S
C391 C130 1.080 . S
C403 C121 1.086 . S
C418 C151 1.116 . S
C430 C160 1.081 . S
C445 C207 1.102 . S
C457 C196 1.085 . S
C472 C226 1.103 . S
C484 C237 1.039 . S
C499 C267 1.014 . S
C511 C256 1.075 . S
C526 N164 1.418 . S
C538 C27 1.455 . S
C553 N44 1.016 . S
C565 N104 1.095 . S
C580 C87 1.856 . S
C592 C147 1.894 . S
C607 N74 0.888 . S
C619 N186 0.787 . S
C634 C211 1.475 . S
C646 N14 1.442 . S
C661 N246 1.379 . S
C673 C57 1.386 . S
C688 C250 1.886 . S
C700 C16 1.879 1_556 S
C715 N36 1.010 . S
C727 C190 0.969 . S
C742 N224 1.139 . S
C754 C76 1.105 . S
C769 N66 1.410 . S
C781 C106 1.451 . S
C796 N126 1.108 . S
C808 N6 0.978 . S
C823 C46 1.897 . S
C835 C166 1.870 . S
C850 C241 1.902 . S
C862 C117 1.860 . S
C877 C181 0.958 . S
C889 N134 0.988 . S
C904 N216 1.046 . S
C916 C177 1.140 . S
C931 N194 0.870 . S
C943 N156 0.822 . S
C958 N96 1.402 1_545 S
C970 C220 1.480 . S
C985 N254 1.395 . S
C997 C136 1.373 . S
