# Generated by pormake.
# Topology wjf, (4)-cn, num edge types: 1
# Building blocks:
#     Node 0, Type 0, BuildingBlock: ESEHIV_clean_sbu_0, # of connection points: 4
#     Node 1, Type 0, BuildingBlock: ESEHIV_clean_sbu_0, # of connection points: 4
#     Node 2, Type 0, BuildingBlock: ESEHIV_clean_sbu_0, # of connection points: 4
#     Node 3, Type 0, BuildingBlock: ESEHIV_clean_sbu_0, # of connection points: 4
#     Node 4, Type 0, BuildingBlock: ESEHIV_clean_sbu_0, # of connection points: 4
#     Node 5, Type 0, BuildingBlock: ESEHIV_clean_sbu_0, # of connection points: 4
#     Node 6, Type 0, BuildingBlock: ESEHIV_clean_sbu_0, # of connection points: 4
#     Node 7, Type 0, BuildingBlock: ESEHIV_clean_sbu_0, # of connection points: 4
#     Node 8, Type 0, BuildingBlock: ESEHIV_clean_sbu_0, # of connection points: 4
#     Node 9, Type 0, BuildingBlock: ESEHIV_clean_sbu_0, # of connection points: 4
#     Node 10, Type 0, BuildingBlock: ESEHIV_clean_sbu_0, # of connection points: 4
#     Node 11, Type 0, BuildingBlock: ESEHIV_clean_sbu_0, # of connection points: 4
#     Edge 12, Type (0, 0), BuildingBlock: MIFKUJ_clean_linker_0, # of connection points: 2
#     Edge 13, Type (0, 0), BuildingBlock: MIFKUJ_clean_linker_0, # of connection points: 2
#     Edge 14, Type (0, 0), BuildingBlock: MIFKUJ_clean_linker_0, # of connection points: 2
#     Edge 15, Type (0, 0), BuildingBlock: MIFKUJ_clean_linker_0, # of connection points: 2
#     Edge 16, Type (0, 0), BuildingBlock: MIFKUJ_clean_linker_0, # of connection points: 2
#     Edge 17, Type (0, 0), BuildingBlock: MIFKUJ_clean_linker_0, # of connection points: 2
#     Edge 18, Type (0, 0), BuildingBlock: MIFKUJ_clean_linker_0, # of connection points: 2
#     Edge 19, Type (0, 0), BuildingBlock: MIFKUJ_clean_linker_0, # of connection points: 2
#     Edge 20, Type (0, 0), BuildingBlock: MIFKUJ_clean_linker_0, # of connection points: 2
#     Edge 21, Type (0, 0), BuildingBlock: MIFKUJ_clean_linker_0, # of connection points: 2
#     Edge 22, Type (0, 0), BuildingBlock: MIFKUJ_clean_linker_0, # of connection points: 2
#     Edge 23, Type (0, 0), BuildingBlock: MIFKUJ_clean_linker_0, # of connection points: 2
#     Edge 24, Type (0, 0), BuildingBlock: MIFKUJ_clean_linker_0, # of connection points: 2
#     Edge 25, Type (0, 0), BuildingBlock: MIFKUJ_clean_linker_0, # of connection points: 2
#     Edge 26, Type (0, 0), BuildingBlock: MIFKUJ_clean_linker_0, # of connection points: 2
#     Edge 27, Type (0, 0), BuildingBlock: MIFKUJ_clean_linker_0, # of connection points: 2
#     Edge 28, Type (0, 0), BuildingBlock: MIFKUJ_clean_linker_0, # of connection points: 2
#     Edge 29, Type (0, 0), BuildingBlock: MIFKUJ_clean_linker_0, # of connection points: 2
#     Edge 30, Type (0, 0), BuildingBlock: MIFKUJ_clean_linker_0, # of connection points: 2
#     Edge 31, Type (0, 0), BuildingBlock: MIFKUJ_clean_linker_0, # of connection points: 2
#     Edge 32, Type (0, 0), BuildingBlock: MIFKUJ_clean_linker_0, # of connection points: 2
#     Edge 33, Type (0, 0), BuildingBlock: MIFKUJ_clean_linker_0, # of connection points: 2
#     Edge 34, Type (0, 0), BuildingBlock: MIFKUJ_clean_linker_0, # of connection points: 2
#     Edge 35, Type (0, 0), BuildingBlock: MIFKUJ_clean_linker_0, # of connection points: 2
# Relax obj value: 0.104
# Max RMSD: 0.230
# Mean RMSD: 0.230
data_MOF--net-wjf--node1-ESEHIV_clean_sbu_0--edge1-MIFKUJ_clean_linker_0
_symmetry_space_group_name_H-M    P1
_symmetry_Int_Tables_number       1
_symmetry_cell_setting            triclinic
loop_
_symmetry_equiv_pos_as_xyz
'x, y, z'
_cell_length_a     74.138383
_cell_length_b     73.926714
_cell_length_c     36.788416
_cell_angle_alpha  90.220632
_cell_angle_beta   89.818796
_cell_angle_gamma 120.03053
loop_
_atom_site_label
_atom_site_type_symbol
_atom_site_fract_x
_atom_site_fract_y
_atom_site_fract_z
_atom_type_partial_charge
Cu0 Cu 0.3416 0.38743 0.11391 0.0
N1 N 0.36238 0.41521 0.1093 0.0
N2 N 0.39439 0.44306 0.10575 0.0
C3 C 0.38291 0.42241 0.11298 0.0
C4 C 0.38039 0.44901 0.09734 0.0
C5 C 0.36065 0.43177 0.09948 0.0
O6 O 0.34826 0.37708 0.15752 0.0
C7 C 0.32713 0.35893 0.05229 0.0
O8 O 0.30856 0.34989 0.06734 0.0
H9 H 0.38918 0.41255 0.12068 0.0
H10 H 0.3461 0.43122 0.09354 0.0
N11 N 0.31606 0.38619 0.12148 0.0
N12 N 0.28579 0.38549 0.11396 0.0
C13 C 0.30255 0.38642 0.09728 0.0
C14 C 0.30775 0.38539 0.15437 0.0
C15 C 0.28911 0.38489 0.14987 0.0
C16 C 0.33578 0.35995 0.17317 0.0
O17 O 0.31808 0.34695 0.15727 0.0
H18 H 0.30489 0.3871 0.06816 0.0
H19 H 0.31489 0.38537 0.17995 0.0
O20 O 0.34244 0.37381 0.06891 0.0
H21 H 0.38408 0.46454 0.08919 0.0
H22 H 0.27902 0.38456 0.17149 0.0
Cu23 Cu 0.95915 0.34021 0.44213 0.0
N24 N 0.9559 0.36358 0.44621 0.0
N25 N 0.96327 0.39684 0.44638 0.0
C26 C 0.97026 0.38352 0.43866 0.0
C27 C 0.94367 0.3847 0.45894 0.0
C28 C 0.93918 0.36422 0.45876 0.0
O29 O 0.97336 0.33896 0.48579 0.0
C30 C 0.97526 0.32833 0.3801 0.0
O31 O 0.96904 0.31047 0.39675 0.0
H32 H 0.98573 0.38817 0.42875 0.0
H33 H 0.9248 0.35078 0.46758 0.0
N34 N 0.93281 0.31634 0.44411 0.0
N35 N 0.90343 0.28633 0.4327 0.0
C36 C 0.92151 0.30184 0.41873 0.0
C37 C 0.92152 0.30986 0.47484 0.0
C38 C 0.90344 0.29149 0.46795 0.0
C39 C 0.98897 0.35438 0.50078 0.0
O40 O 0.99892 0.37225 0.48347 0.0
H41 H 0.92662 0.30242 0.39096 0.0
H42 H 0.92625 0.31798 0.50063 0.0
O43 O 0.97307 0.3425 0.3958 0.0
H44 H 0.93327 0.39017 0.46769 0.0
H45 H 0.89117 0.28274 0.48743 0.0
Cu46 Cu 0.62036 0.95377 0.77772 0.0
N47 N 0.5941 0.95161 0.77676 0.0
N48 N 0.56847 0.95922 0.77479 0.0
C49 C 0.58922 0.96677 0.77246 0.0
C50 C 0.55998 0.93851 0.78036 0.0
C51 C 0.57577 0.93388 0.78146 0.0
O52 O 0.63508 0.96803 0.82218 0.0
C53 C 0.64008 0.98349 0.7199 0.0
O54 O 0.63783 0.99654 0.74114 0.0
H55 H 0.60062 0.98306 0.76853 0.0
H56 H 0.57399 0.9186 0.78561 0.0
N57 N 0.61594 0.92674 0.78252 0.0
N58 N 0.61405 0.89601 0.77264 0.0
C59 C 0.61944 0.91495 0.75863 0.0
C60 C 0.60833 0.91499 0.81256 0.0
C61 C 0.60706 0.89602 0.80654 0.0
C62 C 0.63606 0.98415 0.83679 0.0
O63 O 0.62896 0.99468 0.81912 0.0
H64 H 0.6256 0.92008 0.73155 0.0
H65 H 0.604 0.91995 0.83717 0.0
O66 O 0.63473 0.96529 0.73162 0.0
H67 H 0.54351 0.92745 0.78328 0.0
H68 H 0.60178 0.88337 0.8259 0.0
Cu69 Cu 0.67236 0.61923 0.11595 0.0
N70 N 0.64973 0.59218 0.11995 0.0
N71 N 0.61715 0.56522 0.11817 0.0
C72 C 0.63003 0.58541 0.10914 0.0
C73 C 0.62934 0.55902 0.13485 0.0
C74 C 0.64941 0.5757 0.13594 0.0
O75 O 0.67254 0.63563 0.1578 0.0
C76 C 0.68531 0.64578 0.05302 0.0
O77 O 0.70321 0.6567 0.06986 0.0
H78 H 0.62521 0.59525 0.09555 0.0
H79 H 0.66274 0.57595 0.14834 0.0
N80 N 0.69669 0.61781 0.11942 0.0
N81 N 0.72592 0.61718 0.1075 0.0
C82 C 0.70984 0.61856 0.09331 0.0
C83 C 0.70469 0.61593 0.15096 0.0
C84 C 0.72267 0.61551 0.14375 0.0
C85 C 0.65616 0.63241 0.17464 0.0
O86 O 0.63785 0.61949 0.16066 0.0
H87 H 0.7076 0.61994 0.06461 0.0
H88 H 0.69791 0.61505 0.17743 0.0
O89 O 0.67043 0.63016 0.06896 0.0
H90 H 0.62401 0.54379 0.14671 0.0
H91 H 0.7328 0.6145 0.16376 0.0
Cu92 Cu 0.05568 0.66834 0.43377 0.0
N93 N 0.06619 0.65024 0.42982 0.0
N94 N 0.0656 0.61973 0.42982 0.0
C95 C 0.05479 0.62963 0.43629 0.0
C96 C 0.08463 0.63478 0.41872 0.0
C97 C 0.08497 0.65365 0.41883 0.0
O98 O 0.04046 0.66102 0.47959 0.0
C99 C 0.03608 0.67727 0.37453 0.0
O100 O 0.04345 0.69584 0.38936 0.0
H101 H 0.0386 0.62199 0.44455 0.0
H102 H 0.09788 0.66867 0.41104 0.0
N103 N 0.07722 0.69614 0.43634 0.0
N104 N 0.10512 0.72702 0.4236 0.0
C105 C 0.09343 0.7068 0.4135 0.0
C106 C 0.0789 0.7101 0.46166 0.0
C107 C 0.09601 0.72916 0.45378 0.0
C108 C 0.02967 0.66842 0.49308 0.0
O109 O 0.02635 0.68141 0.47384 0.0
H110 H 0.09627 0.70006 0.38952 0.0
H111 H 0.06832 0.70672 0.48421 0.0
O112 O 0.0387 0.66353 0.39059 0.0
H113 H 0.09738 0.63236 0.41108 0.0
H114 H 0.10142 0.74348 0.46912 0.0
Cu115 Cu 0.39449 0.06003 0.7725 0.0
N116 N 0.42213 0.06721 0.76487 0.0
N117 N 0.45089 0.06458 0.76277 0.0
C118 C 0.4306 0.05528 0.77254 0.0
C119 C 0.4553 0.08321 0.74865 0.0
C120 C 0.43753 0.08478 0.75004 0.0
O121 O 0.38526 0.04299 0.81616 0.0
C122 C 0.381 0.03232 0.71276 0.0
O123 O 0.39246 0.02563 0.72844 0.0
H124 H 0.42177 0.0398 0.78407 0.0
H125 H 0.43588 0.09772 0.74061 0.0
N126 N 0.39379 0.08446 0.78177 0.0
N127 N 0.39151 0.11333 0.77511 0.0
C128 C 0.38949 0.09595 0.7588 0.0
C129 C 0.3987 0.09482 0.81357 0.0
C130 C 0.39733 0.11258 0.8096 0.0
C131 C 0.36896 0.03905 0.83397 0.0
O132 O 0.35603 0.04453 0.8204 0.0
H133 H 0.3851 0.09161 0.73074 0.0
H134 H 0.40335 0.08993 0.83777 0.0
O135 O 0.37866 0.04635 0.72865 0.0
H136 H 0.47025 0.09492 0.73803 0.0
H137 H 0.40097 0.12429 0.83039 0.0
Cu138 Cu 0.62898 0.67087 0.61712 0.0
N139 N 0.60046 0.65283 0.62155 0.0
N140 N 0.57058 0.62246 0.62495 0.0
C141 C 0.59156 0.63199 0.62442 0.0
C142 C 0.56611 0.63802 0.62226 0.0
C143 C 0.58463 0.6568 0.62023 0.0
O144 O 0.6368 0.66279 0.57201 0.0
C145 C 0.65743 0.6809 0.67711 0.0
O146 O 0.668 0.69966 0.66292 0.0
H147 H 0.60041 0.62396 0.62477 0.0
H148 H 0.58643 0.67217 0.6173 0.0
N149 N 0.63464 0.69841 0.61283 0.0
N150 N 0.63712 0.72934 0.62374 0.0
C151 C 0.63108 0.71007 0.63693 0.0
C152 C 0.64298 0.71061 0.58346 0.0
C153 C 0.6446 0.72968 0.59012 0.0
C154 C 0.65477 0.67159 0.5574 0.0
O155 O 0.67069 0.68646 0.57511 0.0
H156 H 0.62431 0.70456 0.66354 0.0
H157 H 0.6473 0.70589 0.55862 0.0
O158 O 0.64149 0.66682 0.66053 0.0
H159 H 0.55061 0.636 0.62162 0.0
H160 H 0.65034 0.7426 0.57125 0.0
Cu161 Cu 0.95687 0.6209 0.93432 0.0
N162 N 0.95003 0.59301 0.93066 0.0
N163 N 0.95312 0.56443 0.93227 0.0
C164 C 0.96194 0.58492 0.94089 0.0
C165 C 0.93476 0.55947 0.91648 0.0
C166 C 0.93291 0.57711 0.91556 0.0
O167 O 0.97398 0.6362 0.89251 0.0
C168 C 0.97058 0.64622 0.99926 0.0
O169 O 0.9627 0.65693 0.98463 0.0
H170 H 0.97719 0.59419 0.95294 0.0
H171 H 0.92019 0.57839 0.90404 0.0
N172 N 0.93251 0.62225 0.92969 0.0
N173 N 0.90373 0.62418 0.93946 0.0
C174 C 0.91922 0.6222 0.95489 0.0
C175 C 0.92506 0.62405 0.89748 0.0
C176 C 0.90738 0.62525 0.90335 0.0
C177 C 0.98631 0.63172 0.87578 0.0
O178 O 0.99047 0.61792 0.88984 0.0
H179 H 0.92112 0.62119 0.98383 0.0
H180 H 0.93211 0.62453 0.87145 0.0
O181 O 0.97024 0.63127 0.9814 0.0
H182 H 0.92352 0.54425 0.90595 0.0
H183 H 0.89785 0.62658 0.88251 0.0
Cu184 Cu 0.33966 0.95838 0.2714 0.0
N185 N 0.35777 0.94793 0.26623 0.0
N186 N 0.38828 0.94867 0.26519 0.0
C187 C 0.37778 0.95811 0.27697 0.0
C188 C 0.37411 0.93152 0.24696 0.0
C189 C 0.35528 0.93115 0.24754 0.0
O190 O 0.34301 0.97582 0.2293 0.0
C191 C 0.33401 0.97781 0.33481 0.0
O192 O 0.3167 0.97454 0.31925 0.0
H193 H 0.38466 0.97271 0.29184 0.0
H194 H 0.34109 0.92005 0.23384 0.0
N195 N 0.31194 0.93694 0.27088 0.0
N196 N 0.28135 0.90857 0.28316 0.0
C197 C 0.30203 0.91911 0.2903 0.0
C198 C 0.29712 0.93753 0.25079 0.0
C199 C 0.27829 0.92012 0.2583 0.0
C200 C 0.36017 0.987 0.21267 0.0
O201 O 0.37749 0.98943 0.22677 0.0
H202 H 0.30965 0.9143 0.30989 0.0
H203 H 0.29984 0.95 0.23234 0.0
O204 O 0.34598 0.97294 0.31789 0.0
H205 H 0.37738 0.92071 0.23248 0.0
H206 H 0.26344 0.91623 0.24636 0.0
Cu207 Cu 0.39044 0.34447 0.61433 0.0
N208 N 0.41762 0.36686 0.61482 0.0
N209 N 0.44446 0.39956 0.61589 0.0
C210 C 0.42352 0.38729 0.61453 0.0
C211 C 0.45193 0.38624 0.61703 0.0
C212 C 0.43534 0.36609 0.61636 0.0
O213 O 0.37699 0.34837 0.57197 0.0
C214 C 0.36121 0.33103 0.6747 0.0
O215 O 0.34891 0.3144 0.65532 0.0
H216 H 0.41261 0.39297 0.61407 0.0
H217 H 0.43611 0.35187 0.6171 0.0
N218 N 0.39174 0.32009 0.60791 0.0
N219 N 0.39097 0.28976 0.61637 0.0
C220 C 0.38747 0.30448 0.6314 0.0
C221 C 0.39825 0.31519 0.57725 0.0
C222 C 0.39779 0.29657 0.58231 0.0
C223 C 0.36289 0.33322 0.55376 0.0
O224 O 0.35482 0.31415 0.56656 0.0
H225 H 0.38192 0.30398 0.65881 0.0
H226 H 0.40324 0.32473 0.55302 0.0
O227 O 0.37838 0.34502 0.66117 0.0
H228 H 0.46823 0.39069 0.61797 0.0
H229 H 0.40264 0.28896 0.56258 0.0
Cu230 Cu 0.05818 0.39135 0.94448 0.0
N231 N 0.06305 0.41856 0.94726 0.0
N232 N 0.05716 0.44537 0.94835 0.0
C233 C 0.0488 0.42459 0.94325 0.0
C234 C 0.07747 0.45263 0.95581 0.0
C235 C 0.08106 0.43604 0.95507 0.0
O236 O 0.04536 0.38028 0.8974 0.0
C237 C 0.04244 0.36224 1.00471 0.0
O238 O 0.05287 0.35378 0.99092 0.0
H239 H 0.03252 0.41383 0.93762 0.0
H240 H 0.0957 0.43663 0.96019 0.0
N241 N 0.08381 0.39231 0.94251 0.0
N242 N 0.11406 0.39382 0.95477 0.0
C243 C 0.09663 0.39272 0.96889 0.0
C244 C 0.09342 0.39318 0.911 0.0
C245 C 0.11198 0.39407 0.91838 0.0
C246 C 0.02646 0.37128 0.88714 0.0
O247 O 0.01161 0.36685 0.911 0.0
H248 H 0.09337 0.39244 0.99764 0.0
H249 H 0.08727 0.39313 0.88435 0.0
O250 O 0.04199 0.37697 0.98765 0.0
H251 H 0.08896 0.46877 0.96125 0.0
H252 H 0.12292 0.39449 0.89839 0.0
Cu253 Cu 0.66851 0.05655 0.27959 0.0
N254 N 0.64378 0.05707 0.28545 0.0
N255 N 0.61024 0.04831 0.28481 0.0
C256 C 0.6244 0.04282 0.2747 0.0
C257 C 0.62122 0.06673 0.30239 0.0
C258 C 0.64186 0.07206 0.30276 0.0
O259 O 0.66814 0.04449 0.23218 0.0
C260 C 0.65715 0.02739 0.33707 0.0
O261 O 0.63915 0.01822 0.32016 0.0
H262 H 0.62078 0.02869 0.25999 0.0
H263 H 0.65458 0.08576 0.31526 0.0
N264 N 0.68997 0.08425 0.27668 0.0
N265 N 0.71992 0.11435 0.2834 0.0
C266 C 0.708 0.09448 0.29532 0.0
C267 C 0.69047 0.09806 0.25246 0.0
C268 C 0.70885 0.1166 0.25652 0.0
C269 C 0.6594 0.02551 0.22192 0.0
O270 O 0.6497 0.01049 0.24578 0.0
H271 H 0.71247 0.08738 0.3165 0.0
H272 H 0.67829 0.09474 0.23297 0.0
O273 O 0.67246 0.04332 0.32249 0.0
H274 H 0.61474 0.07546 0.31506 0.0
H275 H 0.71361 0.1307 0.24104 0.0
H276 H 0.36562 0.38772 0.21971 0.0
H277 H 0.36981 0.38298 0.28406 0.0
H278 H 0.31934 0.31922 0.27768 0.0
H279 H 0.31456 0.32413 0.21339 0.0
H280 H 0.31454 0.33637 0.33564 0.0
H281 H 0.3726 0.3332 0.28523 0.0
H282 H 0.40452 0.34517 0.24871 0.0
H283 H 0.43577 0.40107 0.31312 0.0
H284 H 0.40394 0.38956 0.34975 0.0
H285 H 0.33433 0.30429 0.5068 0.0
H286 H 0.32937 0.30895 0.44259 0.0
H287 H 0.37579 0.37425 0.45049 0.0
H288 H 0.38098 0.36969 0.51472 0.0
H289 H 0.38264 0.35614 0.39209 0.0
H290 H 0.3242 0.35873 0.44265 0.0
H291 H 0.29222 0.34618 0.47925 0.0
H292 H 0.2617 0.29039 0.41442 0.0
H293 H 0.2936 0.30247 0.37772 0.0
C294 C 0.35556 0.37258 0.23181 0.0
C295 C 0.33978 0.35627 0.21125 0.0
C296 C 0.35803 0.36986 0.26873 0.0
C297 C 0.34507 0.35064 0.28588 0.0
C298 C 0.32954 0.33421 0.26521 0.0
C299 C 0.32689 0.337 0.22835 0.0
C300 C 0.34718 0.34796 0.32559 0.0
C301 C 0.3294 0.34039 0.34782 0.0
C302 C 0.36662 0.35368 0.3419 0.0
C303 C 0.38582 0.36059 0.32003 0.0
C304 C 0.38623 0.34811 0.29145 0.0
C305 C 0.40431 0.3548 0.27076 0.0
C306 C 0.42214 0.37389 0.27853 0.0
C307 C 0.42194 0.3863 0.3071 0.0
C308 C 0.40389 0.37968 0.32787 0.0
C309 C 0.3433 0.31973 0.49507 0.0
C310 C 0.35805 0.33661 0.51604 0.0
C311 C 0.34041 0.32237 0.45829 0.0
C312 C 0.35215 0.34197 0.44163 0.0
C313 C 0.36657 0.35897 0.46268 0.0
C314 C 0.36942 0.35635 0.4995 0.0
C315 C 0.35003 0.34454 0.40197 0.0
C316 C 0.3678 0.3521 0.37981 0.0
C317 C 0.33057 0.33869 0.3857 0.0
C318 C 0.31136 0.33142 0.40766 0.0
C319 C 0.31072 0.3437 0.43638 0.0
C320 C 0.2926 0.33669 0.45711 0.0
C321 C 0.27496 0.31747 0.44922 0.0
C322 C 0.27539 0.30526 0.42052 0.0
C323 C 0.29348 0.31219 0.39973 0.0
H324 H 0.26095 0.31207 0.4653 0.0
H325 H 0.43612 0.37905 0.26247 0.0
H326 H 0.02417 0.38093 0.53908 0.0
H327 H 0.02992 0.38089 0.6047 0.0
H328 H 0.96953 0.3258 0.61657 0.0
H329 H 0.9638 0.32545 0.55102 0.0
H330 H 0.97799 0.36032 0.66531 0.0
H331 H 0.00822 0.31909 0.62561 0.0
H332 H 0.03169 0.31181 0.58867 0.0
H333 H 0.08475 0.36649 0.63208 0.0
H334 H 0.06156 0.37427 0.6689 0.0
H335 H 0.9886 0.34617 0.85406 0.0
H336 H 0.98147 0.34042 0.78873 0.0
H337 H 0.04653 0.38248 0.76579 0.0
H338 H 0.05382 0.38748 0.83062 0.0
H339 H 0.03421 0.3523 0.72187 0.0
H340 H 0.00646 0.39598 0.75744 0.0
H341 H 0.98473 0.40634 0.79274 0.0
H342 H 0.92943 0.35154 0.75577 0.0
H343 H 0.95087 0.34071 0.72061 0.0
C344 C 0.01224 0.36862 0.55556 0.0
C345 C 0.99357 0.35315 0.53972 0.0
C346 C 0.01555 0.36863 0.59306 0.0
C347 C 1.00013 0.35336 0.61553 0.0
C348 C 0.98161 0.33774 0.59975 0.0
C349 C 0.97845 0.33749 0.56221 0.0
C350 C 1.00303 0.35413 0.65562 0.0
C351 C 0.99007 0.35825 0.67783 0.0
C352 C 0.01918 0.35206 0.67175 0.0
C353 C 0.03314 0.34736 0.64975 0.0
C354 C 0.02488 0.32966 0.62704 0.0
C355 C 0.03814 0.32543 0.60617 0.0
C356 C 0.0597 0.33871 0.60796 0.0
C357 C 0.06805 0.35623 0.63069 0.0
C358 C 0.05486 0.36055 0.65159 0.0
C359 C 1.00136 0.35411 0.83505 0.0
C360 C 0.02176 0.36729 0.84767 0.0
C361 C 0.99727 0.35093 0.79762 0.0
C362 C 0.0134 0.36126 0.772 0.0
C363 C 0.03377 0.37425 0.78474 0.0
C364 C 0.03791 0.37714 0.82199 0.0
C365 C 0.00928 0.35872 0.73198 0.0
C366 C 0.02203 0.35428 0.70963 0.0
C367 C 0.9932 0.36096 0.71562 0.0
C368 C 0.98028 0.36741 0.73675 0.0
C369 C 0.98967 0.38606 0.75708 0.0
C370 C 0.97741 0.39203 0.77702 0.0
C371 C 0.95572 0.37957 0.77659 0.0
C372 C 0.94624 0.36115 0.75614 0.0
C373 C 0.95844 0.35509 0.73618 0.0
H374 H 0.94625 0.38423 0.79204 0.0
H375 H 0.06993 0.3354 0.59179 0.0
H376 H 0.64652 0.02031 0.87391 0.0
H377 H 0.65318 0.02689 0.93924 0.0
H378 H 0.6453 0.96547 0.95302 0.0
H379 H 0.63901 0.95889 0.88775 0.0
H380 H 0.62095 0.97541 1.00157 0.0
H381 H 0.69173 1.00408 0.96053 0.0
H382 H 0.72242 0.02669 0.92291 0.0
H383 H 0.72275 0.0811 0.96506 0.0
H384 H 0.69185 0.05878 1.00256 0.0
H385 H 0.64718 0.98753 0.18935 0.0
H386 H 0.64566 0.97996 0.12418 0.0
H387 H 0.66843 0.04497 0.10025 0.0
H388 H 0.67074 0.05271 0.16504 0.0
H389 H 0.68606 0.03189 0.0562 0.0
H390 H 0.61518 1.00538 0.09307 0.0
H391 H 0.58331 0.98434 0.12915 0.0
H392 H 0.58142 0.92804 0.09348 0.0
H393 H 0.61346 0.94878 0.05753 0.0
C394 C 0.6465 0.00831 0.89075 0.0
C395 C 0.64228 0.9891 0.87554 0.0
C396 C 0.65031 0.0121 0.92808 0.0
C397 C 0.64971 0.99665 0.951 0.0
C398 C 0.64582 0.97759 0.93584 0.0
C399 C 0.64236 0.97392 0.89846 0.0
C400 C 0.65226 1.00007 0.99098 0.0
C401 C 0.63529 0.98753 1.01365 0.0
C402 C 0.67075 0.01629 1.00656 0.0
C403 C 0.68935 0.02974 0.98409 0.0
C404 C 0.69822 0.02085 0.96153 0.0
C405 C 0.71568 0.03362 0.94028 0.0
C406 C 0.7245 0.05532 0.94152 0.0
C407 C 0.71589 0.06429 0.96409 0.0
C408 C 0.69842 0.05159 0.98538 0.0
C409 C 0.65196 1.00022 0.17019 0.0
C410 C 0.65903 0.02071 0.18252 0.0
C411 C 0.65097 0.99586 0.13285 0.0
C412 C 0.65661 0.01183 0.10702 0.0
C413 C 0.664 0.03234 0.11942 0.0
C414 C 0.66526 0.03674 0.15663 0.0
C415 C 0.65465 0.0073 0.06712 0.0
C416 C 0.67172 0.01965 0.04434 0.0
C417 C 0.63608 0.99115 0.05133 0.0
C418 C 0.61685 0.97864 0.07296 0.0
C419 C 0.60807 0.98852 0.09316 0.0
C420 C 0.58996 0.97665 0.11354 0.0
C421 C 0.58039 0.95487 0.1137 0.0
C422 C 0.58888 0.94492 0.09339 0.0
C423 C 0.60701 0.95672 0.07299 0.0
H424 H 0.56636 0.94571 0.12948 0.0
H425 H 0.73802 0.06518 0.92505 0.0
H426 H 0.62419 0.62447 0.22102 0.0
H427 H 0.62641 0.63373 0.28512 0.0
H428 H 0.69351 0.66757 0.27821 0.0
H429 H 0.69142 0.65787 0.214 0.0
H430 H 0.68176 0.64375 0.33625 0.0
H431 H 0.66489 0.69304 0.2875 0.0
H432 H 0.64549 0.70545 0.25078 0.0
H433 H 0.58989 0.6665 0.31181 0.0
H434 H 0.60888 0.65362 0.3486 0.0
H435 H 0.69036 0.68753 0.51584 0.0
H436 H 0.69282 0.68286 0.45032 0.0
H437 H 0.62632 0.64165 0.44552 0.0
H438 H 0.6237 0.64609 0.51069 0.0
H439 H 0.64068 0.67254 0.39314 0.0
H440 H 0.6578 0.62195 0.43912 0.0
H441 H 0.67771 0.6101 0.47576 0.0
H442 H 0.73389 0.65305 0.41972 0.0
H443 H 0.71434 0.66536 0.38306 0.0
C444 C 0.63945 0.63415 0.23289 0.0
C445 C 0.65762 0.64044 0.21224 0.0
C446 C 0.64069 0.6395 0.26965 0.0
C447 C 0.66013 0.65154 0.28659 0.0
C448 C 0.67833 0.65828 0.26582 0.0
C449 C 0.6771 0.65282 0.22903 0.0
C450 C 0.66134 0.6561 0.3263 0.0
C451 C 0.67309 0.65043 0.34856 0.0
C452 C 0.64978 0.6645 0.34262 0.0
C453 C 0.63829 0.67224 0.32063 0.0
C454 C 0.64849 0.687 0.29292 0.0
C455 C 0.63757 0.69414 0.27212 0.0
C456 C 0.61646 0.68674 0.27891 0.0
C457 C 0.60624 0.67221 0.30657 0.0
C458 C 0.61708 0.665 0.32744 0.0
C459 C 0.6763 0.67727 0.50093 0.0
C460 C 0.65684 0.66722 0.51861 0.0
C461 C 0.67773 0.67462 0.46347 0.0
C462 C 0.65973 0.66194 0.443 0.0
C463 C 0.64039 0.65158 0.46072 0.0
C464 C 0.63896 0.65407 0.4981 0.0
C465 C 0.66081 0.6599 0.40293 0.0
C466 C 0.6495 0.66607 0.38068 0.0
C467 C 0.67289 0.65213 0.38663 0.0
C468 C 0.68465 0.64475 0.40866 0.0
C469 C 0.67443 0.62901 0.43485 0.0
C470 C 0.68565 0.62218 0.45557 0.0
C471 C 0.70707 0.63087 0.45016 0.0
C472 C 0.71731 0.64636 0.42394 0.0
C473 C 0.70617 0.65326 0.40316 0.0
H474 H 0.71572 0.62555 0.46622 0.0
H475 H 0.60803 0.69228 0.26277 0.0
H476 H 0.01108 0.62367 0.83117 0.0
H477 H 0.01876 0.63249 0.76703 0.0
H478 H 0.98469 0.66566 0.77039 0.0
H479 H 0.97661 0.65658 0.83462 0.0
H480 H 0.97334 0.64052 0.71272 0.0
H481 H 0.03815 0.69192 0.76328 0.0
H482 H 0.0696 0.70554 0.80143 0.0
H483 H 0.08882 0.66758 0.74318 0.0
H484 H 0.05733 0.6535 0.70497 0.0
H485 H 0.0079 0.68275 0.53307 0.0
H486 H 1.00051 0.6785 0.59847 0.0
H487 H 0.03021 0.64126 0.60662 0.0
H488 H 0.03764 0.64539 0.5416 0.0
H489 H 0.04403 0.67145 0.65881 0.0
H490 H 0.9779 0.61869 0.61087 0.0
H491 H 0.94636 0.60522 0.57299 0.0
H492 H 0.92982 0.64658 0.62662 0.0
H493 H 0.96144 0.66051 0.6645 0.0
C494 C 1.00545 0.6331 0.8185 0.0
C495 C 0.99323 0.63942 0.83817 0.0
C496 C 0.00991 0.63819 0.78173 0.0
C497 C 1.00243 0.64987 0.7638 0.0
C498 C 0.99063 0.65663 0.78357 0.0
C499 C 0.98614 0.65153 0.82039 0.0
C500 C 1.00611 0.65411 0.72407 0.0
C501 C 0.98885 0.64765 0.70103 0.0
C502 C 0.02628 0.66305 0.7086 0.0
C503 C 0.04528 0.67152 0.73145 0.0
C504 C 0.049 0.68635 0.75878 0.0
C505 C 0.06685 0.69418 0.78039 0.0
C506 C 0.08117 0.68739 0.77479 0.0
C507 C 0.0777 0.6728 0.7475 0.0
C508 C 0.05986 0.66491 0.72583 0.0
C509 C 0.01266 0.67347 0.5487 0.0
C510 C 0.02338 0.66444 0.53198 0.0
C511 C 0.00842 0.67105 0.58611 0.0
C512 C 0.01482 0.65956 0.60751 0.0
C513 C 0.0252 0.65027 0.59074 0.0
C514 C 0.02934 0.65258 0.55344 0.0
C515 C 0.01126 0.65759 0.64752 0.0
C516 C 0.02855 0.6645 0.6706 0.0
C517 C 0.99114 0.64914 0.663 0.0
C518 C 0.97216 0.64082 0.64021 0.0
C519 C 0.96764 0.62506 0.61435 0.0
C520 C 0.94973 0.61731 0.59293 0.0
C521 C 0.93613 0.62509 0.59731 0.0
C522 C 0.94039 0.6406 0.6232 0.0
C523 C 0.9583 0.64842 0.64466 0.0
H524 H 0.92226 0.61906 0.58072 0.0
H525 H 0.09498 0.69347 0.79154 0.0
H526 H 0.39367 0.00906 0.16788 0.0
H527 H 0.39343 0.01806 0.10424 0.0
H528 H 0.32669 0.99108 0.10859 0.0
H529 H 0.32674 0.98165 0.17229 0.0
H530 H 0.33726 0.97803 0.04941 0.0
H531 H 0.35941 0.04431 0.10395 0.0
H532 H 0.38042 0.0748 0.1433 0.0
H533 H 0.43556 0.08824 0.08346 0.0
H534 H 0.41492 0.05764 0.04405 0.0
H535 H 0.33398 0.02323 0.87679 0.0
H536 H 0.33097 0.01387 0.94135 0.0
H537 H 0.39518 0.029 0.94194 0.0
H538 H 0.39823 0.03799 0.87746 0.0
H539 H 0.38403 0.0485 0.99861 0.0
H540 H 0.36084 0.9807 0.94552 0.0
H541 H 0.3389 0.9505 0.90621 0.0
H542 H 0.28424 0.94071 0.96366 0.0
H543 H 0.30584 0.97108 1.00301 0.0
C544 C 0.37894 1.00526 0.15553 0.0
C545 C 0.36023 0.99464 0.17533 0.0
C546 C 0.37883 0.01048 0.11905 0.0
C547 C 0.36005 1.00539 0.10155 0.0
C548 C 0.34138 0.99516 0.12144 0.0
C549 C 0.34146 0.9899 0.15796 0.0
C550 C 0.35991 0.01 0.06216 0.0
C551 C 0.34723 0.99354 0.03845 0.0
C552 C 0.37313 0.03014 0.04758 0.0
C553 C 0.38564 0.04855 0.07125 0.0
C554 C 0.37605 0.05366 0.09937 0.0
C555 C 0.38788 0.07098 0.12165 0.0
C556 C 0.40932 0.08342 0.11594 0.0
C557 C 0.41896 0.07858 0.08788 0.0
C558 C 0.40719 0.06126 0.06553 0.0
C559 C 0.34737 0.0243 0.89055 0.0
C560 C 0.36633 0.03134 0.87193 0.0
C561 C 0.34563 0.01895 0.92742 0.0
C562 C 0.36288 0.02081 0.94644 0.0
C563 C 0.3817 0.02751 0.92779 0.0
C564 C 0.38336 0.03252 0.89085 0.0
C565 C 0.36159 0.01652 0.98607 0.0
C566 C 0.37399 0.03305 1.00974 0.0
C567 C 0.34796 0.99653 1.00062 0.0
C568 C 0.33493 0.97833 0.97691 0.0
C569 C 0.34412 0.97226 0.94952 0.0
C570 C 0.33175 0.95507 0.92729 0.0
C571 C 0.31018 0.94374 0.93235 0.0
C572 C 0.30094 0.94954 0.95972 0.0
C573 C 0.31325 0.96672 0.98201 0.0
H574 H 0.30063 0.93043 0.91513 0.0
H575 H 0.41846 0.09683 0.13322 0.0
H576 H 0.15397 0.41155 0.93164 0.0
H577 H 0.18246 0.40949 0.96032 0.0
H578 H 0.14216 0.37514 0.04972 0.0
H579 H 0.11333 0.37701 1.02081 0.0
H580 H 0.18137 0.40483 0.07254 0.0
H581 H 0.15218 0.34942 0.985 0.0
H582 H 0.13955 0.3335 0.92467 0.0
H583 H 0.20044 0.37271 0.87949 0.0
H584 H 0.21337 0.38911 0.93947 0.0
H585 H 0.24682 0.36885 0.14179 0.0
H586 H 0.21737 0.3703 0.1158 0.0
H587 H 0.25475 0.4032 1.02263 0.0
H588 H 0.28444 0.40189 0.04866 0.0
H589 H 0.21614 0.37322 1.00273 0.0
H590 H 0.24515 0.4292 0.08972 0.0
H591 H 0.25786 0.44532 0.14991 0.0
H592 H 0.19743 0.40516 0.19599 0.0
H593 H 0.18443 0.38858 0.13614 0.0
C594 C 0.15108 0.40346 0.95731 0.0
C595 C 0.13125 0.39415 0.97364 0.0
C596 C 0.16742 0.40234 0.97372 0.0
C597 C 0.16433 0.3918 1.00679 0.0
C598 C 0.14484 0.38324 1.02406 0.0
C599 C 0.1284 0.38438 1.0076 0.0
C600 C 0.18145 0.38951 1.02273 0.0
C601 C 0.18877 0.39763 0.05753 0.0
C602 C 0.1914 0.38052 1.00278 0.0
C603 C 0.1837 0.37063 0.96668 0.0
C604 C 0.16284 0.35477 0.96214 0.0
C605 C 0.15563 0.34564 0.92802 0.0
C606 C 0.16917 0.35213 0.89825 0.0
C607 C 0.18996 0.36773 0.90257 0.0
C608 C 0.19725 0.37693 0.93663 0.0
C609 C 0.24889 0.37655 0.11591 0.0
C610 C 0.26812 0.38547 0.09753 0.0
C611 C 0.23199 0.37734 0.10105 0.0
C612 C 0.23394 0.38717 0.06757 0.0
C613 C 0.25291 0.39559 0.04859 0.0
C614 C 0.26986 0.39477 0.06344 0.0
C615 C 0.21618 0.38868 0.05246 0.0
C616 C 0.20872 0.38038 1.01779 0.0
C617 C 0.20612 0.39752 0.07253 0.0
C618 C 0.21388 0.40751 0.10852 0.0
C619 C 0.23462 0.42369 0.11275 0.0
C620 C 0.24187 0.43293 0.14679 0.0
C621 C 0.22848 0.42623 0.17677 0.0
C622 C 0.20779 0.41031 0.17275 0.0
C623 C 0.20047 0.401 0.13877 0.0
H624 H 0.23412 0.43341 0.2031 0.0
H625 H 0.16356 0.34503 0.87185 0.0
H626 H 0.89425 0.28131 0.36045 0.0
H627 H 0.86538 0.2508 0.33105 0.0
H628 H 0.84685 0.21951 0.43461 0.0
H629 H 0.87601 0.24939 0.46373 0.0
H630 H 0.84285 0.19258 0.38364 0.0
H631 H 0.82276 0.24508 0.39762 0.0
H632 H 0.82658 0.27994 0.38961 0.0
H633 H 0.8254 0.27256 0.27365 0.0
H634 H 0.82184 0.23774 0.28099 0.0
H635 H 0.73568 0.11855 0.35142 0.0
H636 H 0.7692 0.14673 0.3736 0.0
H637 H 0.78363 0.17391 0.26642 0.0
H638 H 0.75021 0.14593 0.24427 0.0
H639 H 0.79107 0.20287 0.3155 0.0
H640 H 0.80825 0.14867 0.30231 0.0
H641 H 0.80387 0.11366 0.31139 0.0
H642 H 0.80993 0.12389 0.42676 0.0
H643 H 0.81407 0.15887 0.41841 0.0
C644 C 0.88423 0.26782 0.37685 0.0
C645 C 0.88731 0.26799 0.41459 0.0
C646 C 0.86761 0.25044 0.36006 0.0
C647 C 0.8537 0.23298 0.38073 0.0
C648 C 0.85727 0.23282 0.4181 0.0
C649 C 0.87385 0.25008 0.43481 0.0
C650 C 0.83494 0.21515 0.36405 0.0
C651 C 0.83145 0.19481 0.36894 0.0
C652 C 0.82022 0.21805 0.34429 0.0
C653 C 0.82227 0.23892 0.33985 0.0
C654 C 0.82347 0.25096 0.37041 0.0
C655 C 0.82556 0.27069 0.366 0.0
C656 C 0.8263 0.27848 0.33114 0.0
C657 C 0.82487 0.26652 0.30063 0.0
C658 C 0.82281 0.24679 0.3049 0.0
C659 C 0.74613 0.13037 0.33251 0.0
C660 C 0.7402 0.13007 0.29615 0.0
C661 C 0.7653 0.14647 0.34519 0.0
C662 C 0.77902 0.16242 0.32162 0.0
C663 C 0.77328 0.16187 0.28516 0.0
C664 C 0.75412 0.14588 0.27256 0.0
C665 C 0.79889 0.18024 0.33523 0.0
C666 C 0.80256 0.20061 0.32985 0.0
C667 C 0.8137 0.17733 0.35466 0.0
C668 C 0.81129 0.15633 0.35974 0.0
C669 C 0.80849 0.1434 0.32963 0.0
C670 C 0.80608 0.12357 0.33465 0.0
C671 C 0.80657 0.11654 0.36963 0.0
C672 C 0.80953 0.12935 0.39968 0.0
C673 C 0.81194 0.14919 0.39482 0.0
H674 H 0.8047 0.10118 0.37346 0.0
H675 H 0.82791 0.29377 0.32778 0.0
H676 H 0.58919 0.8546 0.78418 0.0
H677 H 0.59315 0.82625 0.7587 0.0
H678 H 0.64678 0.87094 0.69767 0.0
H679 H 0.64268 0.89942 0.72289 0.0
H680 H 0.62286 0.83755 0.65707 0.0
H681 H 0.65185 0.84889 0.77708 0.0
H682 H 0.65203 0.85272 0.84372 0.0
H683 H 0.60009 0.79033 0.85285 0.0
H684 H 0.59942 0.78623 0.78619 0.0
H685 H 0.66232 0.77083 0.61345 0.0
H686 H 0.65824 0.79908 0.63907 0.0
H687 H 0.60399 0.75412 0.69841 0.0
H688 H 0.60811 0.72571 0.67291 0.0
H689 H 0.62818 0.78757 0.73986 0.0
H690 H 0.59936 0.77631 0.61961 0.0
H691 H 0.59939 0.77259 0.55297 0.0
H692 H 0.65133 0.835 0.54434 0.0
H693 H 0.65179 0.839 0.611 0.0
C694 C 0.60187 0.8584 0.76543 0.0
C695 C 0.61576 0.87927 0.75583 0.0
C696 C 0.60413 0.84218 0.75089 0.0
C697 C 0.62052 0.84647 0.72684 0.0
C698 C 0.63406 0.86725 0.71631 0.0
C699 C 0.63168 0.88351 0.73065 0.0
C700 C 0.62358 0.82929 0.7129 0.0
C701 C 0.62432 0.8268 0.67519 0.0
C702 C 0.625 0.81494 0.7365 0.0
C703 C 0.62547 0.81732 0.77662 0.0
C704 C 0.64038 0.83604 0.79328 0.0
C705 C 0.64058 0.83825 0.83106 0.0
C706 C 0.62605 0.82179 0.8525 0.0
C707 C 0.61133 0.80307 0.8362 0.0
C708 C 0.61104 0.80078 0.79843 0.0
C709 C 0.64948 0.76693 0.63184 0.0
C710 C 0.6354 0.746 0.64084 0.0
C711 C 0.64716 0.7831 0.64648 0.0
C712 C 0.63057 0.7787 0.6701 0.0
C713 C 0.61686 0.75788 0.6801 0.0
C714 C 0.61926 0.74166 0.66561 0.0
C715 C 0.62746 0.79585 0.68405 0.0
C716 C 0.62672 0.79832 0.72175 0.0
C717 C 0.62607 0.8102 0.66045 0.0
C718 C 0.62572 0.80788 0.62033 0.0
C719 C 0.61088 0.78919 0.60352 0.0
C720 C 0.6108 0.78704 0.56574 0.0
C721 C 0.62539 0.80353 0.54444 0.0
C722 C 0.64005 0.82223 0.56087 0.0
C723 C 0.64022 0.82446 0.59865 0.0
H724 H 0.6253 0.80183 0.5152 0.0
H725 H 0.62623 0.82354 0.88174 0.0
H726 H 0.74345 0.63717 0.04422 0.0
H727 H 0.77422 0.63977 1.01427 0.0
H728 H 0.77858 0.60147 0.09807 0.0
H729 H 0.748 0.5989 0.12806 0.0
H730 H 0.81584 0.63527 0.08491 0.0
H731 H 0.75953 0.5821 1.01187 0.0
H732 H 0.72815 0.56905 0.97361 0.0
H733 H 0.76217 0.6185 0.89718 0.0
H734 H 0.79369 0.632 0.93524 0.0
H735 H 0.88577 0.60724 1.00442 0.0
H736 H 0.85602 0.6077 0.03258 0.0
H737 H 0.85368 0.64382 0.94278 0.0
H738 H 0.88331 0.64347 0.91468 0.0
H739 H 0.81594 0.61327 0.95743 0.0
H740 H 0.87221 0.6657 1.02522 0.0
H741 H 0.90377 0.6821 0.06325 0.0
H742 H 0.87085 0.63843 0.14883 0.0
H743 H 0.83924 0.62136 0.11091 0.0
C744 C 0.75083 0.62911 0.05598 0.0
C745 C 0.74332 0.61789 0.08859 0.0
C746 C 0.76844 0.63063 0.03889 0.0
C747 C 0.77867 0.62073 0.05386 0.0
C748 C 0.77103 0.60934 0.08615 0.0
C749 C 0.75356 0.60792 0.1033 0.0
C750 C 0.79754 0.6224 0.03645 0.0
C751 C 0.81581 0.63018 0.05719 0.0
C752 C 0.79771 0.61657 0.99983 0.0
C753 C 0.77891 0.60815 0.97654 0.0
C754 C 0.76029 0.59024 0.98698 0.0
C755 C 0.74248 0.58276 0.96533 0.0
C756 C 0.74315 0.59298 0.93304 0.0
C757 C 0.76167 0.61063 0.92223 0.0
C758 C 0.77951 0.61818 0.9438 0.0
C759 C 0.87907 0.61548 0.99091 0.0
C760 C 0.88686 0.62519 0.95717 0.0
C761 C 0.86205 0.61572 1.00699 0.0
C762 C 0.85263 0.62585 0.98983 0.0
C763 C 0.86056 0.63577 0.95641 0.0
C764 C 0.8775 0.63549 0.94032 0.0
C765 C 0.8342 0.62571 1.00618 0.0
C766 C 0.81603 0.61831 0.98519 0.0
C767 C 0.83422 0.63221 0.04244 0.0
C768 C 0.8534 0.64207 0.06499 0.0
C769 C 0.87177 0.65938 0.05193 0.0
C770 C 0.88968 0.66882 0.07349 0.0
C771 C 0.88935 0.66126 0.10837 0.0
C772 C 0.87112 0.64421 0.12173 0.0
C773 C 0.85321 0.63462 0.10019 0.0
H774 H 0.9032 0.66868 0.12508 0.0
H775 H 0.72934 0.58721 0.91636 0.0
H776 H 0.13741 0.72432 0.39525 0.0
H777 H 0.1696 0.75315 0.36899 0.0
H778 H 0.14564 0.79503 0.38557 0.0
H779 H 0.11388 0.76651 0.41249 0.0
H780 H 0.16396 0.79567 0.31284 0.0
H781 H 0.17731 0.79884 0.44316 0.0
H782 H 0.18027 0.78392 0.50115 0.0
H783 H 0.22696 0.77265 0.45464 0.0
H784 H 0.22403 0.78723 0.39615 0.0
H785 H 0.24216 0.89897 0.2996 0.0
H786 H 0.214 0.86562 0.32148 0.0
H787 H 0.2559 0.84103 0.32426 0.0
H788 H 0.28445 0.87487 0.30286 0.0
H789 H 0.23038 0.82761 0.38176 0.0
H790 H 0.22109 0.8281 0.25448 0.0
H791 H 0.21855 0.84209 0.1952 0.0
H792 H 0.16479 0.84445 0.2323 0.0
H793 H 0.16719 0.83076 0.29203 0.0
C794 C 0.13905 0.73967 0.39292 0.0
C795 C 0.12329 0.74331 0.40591 0.0
C796 C 0.15739 0.75608 0.37815 0.0
C797 C 0.15995 0.77618 0.37551 0.0
C798 C 0.14393 0.77963 0.38743 0.0
C799 C 0.12588 0.7634 0.40288 0.0
C800 C 0.17938 0.79389 0.36094 0.0
C801 C 0.17849 0.80273 0.32787 0.0
C802 C 0.19846 0.80255 0.38003 0.0
C803 C 0.20024 0.79385 0.41517 0.0
C804 C 0.18804 0.79297 0.44518 0.0
C805 C 0.18975 0.78462 0.47817 0.0
C806 C 0.20374 0.77727 0.48154 0.0
C807 C 0.21609 0.7783 0.45196 0.0
C808 C 0.21442 0.78661 0.41889 0.0
C809 C 0.24538 0.88646 0.30486 0.0
C810 C 0.2654 0.88939 0.29901 0.0
C811 C 0.22927 0.86738 0.3173 0.0
C812 C 0.23266 0.8506 0.32356 0.0
C813 C 0.25287 0.8537 0.31928 0.0
C814 C 0.26916 0.873 0.30716 0.0
C815 C 0.21485 0.82989 0.33401 0.0
C816 C 0.21601 0.82042 0.36626 0.0
C817 C 0.19604 0.82042 0.31384 0.0
C818 C 0.19441 0.82852 0.27784 0.0
C819 C 0.2088 0.83172 0.25009 0.0
C820 C 0.20738 0.83959 0.21639 0.0
C821 C 0.19154 0.84419 0.21001 0.0
C822 C 0.17706 0.84088 0.23729 0.0
C823 C 0.17842 0.83304 0.27107 0.0
H824 H 0.19046 0.85028 0.1839 0.0
H825 H 0.20505 0.77082 0.50711 0.0
H826 H 0.39126 0.12168 0.70297 0.0
H827 H 0.38872 0.15043 0.67637 0.0
H828 H 0.38472 0.17205 0.78351 0.0
H829 H 0.38605 0.14272 0.81034 0.0
H830 H 0.35922 0.17624 0.74033 0.0
H831 H 0.43101 0.19478 0.73362 0.0
H832 H 0.46073 0.19003 0.71788 0.0
H833 H 0.44543 0.18655 0.60463 0.0
H834 H 0.41543 0.19101 0.61975 0.0
H835 H 0.39046 0.2816 0.68871 0.0
H836 H 0.38822 0.25046 0.71614 0.0
H837 H 0.38445 0.22435 0.60957 0.0
H838 H 0.38616 0.25505 0.58195 0.0
H839 H 0.4138 0.22271 0.65288 0.0
H840 H 0.34198 0.2052 0.66148 0.0
H841 H 0.31325 0.21118 0.67906 0.0
H842 H 0.33016 0.21444 0.79141 0.0
H843 H 0.35919 0.20876 0.77445 0.0
C844 C 0.38954 0.13229 0.721 0.0
C845 C 0.38913 0.12985 0.75899 0.0
C846 C 0.38831 0.14893 0.70568 0.0
C847 C 0.38698 0.16371 0.72794 0.0
C848 C 0.3859 0.16097 0.76574 0.0
C849 C 0.38691 0.14423 0.78108 0.0
C850 C 0.38717 0.18226 0.71194 0.0
C851 C 0.3713 0.18653 0.72154 0.0
C852 C 0.40277 0.1956 0.68706 0.0
C853 C 0.42086 0.19302 0.67786 0.0
C854 C 0.4339 0.19285 0.70538 0.0
C855 C 0.45081 0.19023 0.69657 0.0
C856 C 0.45494 0.18793 0.66029 0.0
C857 C 0.4422 0.1883 0.63273 0.0
C858 C 0.42525 0.19089 0.6414 0.0
C859 C 0.38884 0.26914 0.67106 0.0
C860 C 0.38866 0.27102 0.633 0.0
C861 C 0.38762 0.25135 0.68682 0.0
C862 C 0.38618 0.23509 0.66487 0.0
C863 C 0.3857 0.23678 0.627 0.0
C864 C 0.3868 0.25445 0.61125 0.0
C865 C 0.38583 0.21658 0.68114 0.0
C866 C 0.40171 0.21238 0.67164 0.0
C867 C 0.3704 0.20348 0.70639 0.0
C868 C 0.35288 0.20676 0.71665 0.0
C869 C 0.33968 0.20736 0.68991 0.0
C870 C 0.32332 0.21066 0.69976 0.0
C871 C 0.31992 0.21324 0.73632 0.0
C872 C 0.33284 0.21246 0.7631 0.0
C873 C 0.34923 0.20918 0.75339 0.0
H874 H 0.30725 0.2158 0.74389 0.0
H875 H 0.46804 0.1859 0.65352 0.0
H876 H 0.38572 0.36081 0.7244 0.0
H877 H 0.37826 0.36309 0.78837 0.0
H878 H 0.31779 0.30804 0.77671 0.0
H879 H 0.32514 0.30557 0.71235 0.0
H880 H 0.31694 0.34014 0.81694 0.0
H881 H 0.35485 0.30322 0.81624 0.0
H882 H 0.38394 0.29758 0.79987 0.0
H883 H 0.42691 0.35444 0.85457 0.0
H884 H 0.3981 0.36058 0.8708 0.0
H885 H 0.29808 0.32839 1.0077 0.0
H886 H 0.30242 0.32131 0.94418 0.0
H887 H 0.36674 0.37042 0.94749 0.0
H888 H 0.36267 0.37723 1.01106 0.0
H889 H 0.3639 0.33859 0.91115 0.0
H890 H 0.32769 0.37722 0.90861 0.0
H891 H 0.29961 0.38464 0.92382 0.0
H892 H 0.25462 0.32672 0.87445 0.0
H893 H 0.28243 0.31882 0.85939 0.0
C894 C 0.37076 0.34921 0.73526 0.0
C895 C 0.35606 0.33294 0.71314 0.0
C896 C 0.36656 0.3505 0.77196 0.0
C897 C 0.34756 0.33561 0.78748 0.0
C898 C 0.33258 0.31967 0.76533 0.0
C899 C 0.33683 0.31826 0.72856 0.0
C900 C 0.3436 0.33662 0.82695 0.0
C901 C 0.32697 0.33943 0.83762 0.0
C902 C 0.35699 0.33621 0.85389 0.0
C903 C 0.37433 0.33244 0.84448 0.0
C904 C 0.37052 0.3146 0.82455 0.0
C905 C 0.38696 0.3113 0.81533 0.0
C906 C 0.40727 0.32566 0.82611 0.0
C907 C 0.41117 0.34333 0.84621 0.0
C908 C 0.39479 0.34672 0.85547 0.0
C909 C 0.3132 0.33757 0.99502 0.0
C910 C 0.32999 0.35344 1.01456 0.0
C911 C 0.31563 0.33359 0.95856 0.0
C912 C 0.33483 0.34555 0.9407 0.0
C913 C 0.35175 0.36098 0.96051 0.0
C914 C 0.34938 0.36488 0.99695 0.0
C915 C 0.33732 0.34233 0.90131 0.0
C916 C 0.35372 0.33912 0.89059 0.0
C917 C 0.32384 0.3426 0.87431 0.0
C918 C 0.3071 0.34732 0.88326 0.0
C919 C 0.31179 0.36599 0.90126 0.0
C920 C 0.29592 0.37029 0.90981 0.0
C921 C 0.27533 0.35613 0.90021 0.0
C922 C 0.27057 0.33766 0.88194 0.0
C923 C 0.28638 0.33326 0.87338 0.0
H924 H 0.26307 0.35949 0.90684 0.0
H925 H 0.41998 0.32308 0.81893 0.0
H926 H 0.98427 0.36113 0.33481 0.0
H927 H 0.99505 0.36526 0.27114 0.0
H928 H 0.99486 0.3069 0.27492 0.0
H929 H 0.98399 0.30257 0.33883 0.0
H930 H 0.02968 0.33846 0.23855 0.0
H931 H 0.95514 0.30801 0.23627 0.0
H932 H 0.92178 0.30573 0.25254 0.0
H933 H 0.94226 0.3657 0.20411 0.0
H934 H 0.97588 0.36847 0.18802 0.0
H935 H 0.03803 0.32996 0.0477 0.0
H936 H 0.02576 0.32252 0.11064 0.0
H937 H 0.01505 0.37476 0.10962 0.0
H938 H 0.0266 0.38182 0.04645 0.0
H939 H 0.98502 0.34464 0.14499 0.0
H940 H 0.05941 0.37682 0.1496 0.0
H941 H 0.09378 0.38113 0.13455 0.0
H942 H 0.07516 0.32079 0.17969 0.0
H943 H 0.04055 0.31599 0.19454 0.0
C944 C 0.98663 0.3492 0.32228 0.0
C945 C 0.98316 0.33145 0.34204 0.0
C946 C 0.99272 0.35156 0.28574 0.0
C947 C 0.99554 0.33628 0.26806 0.0
C948 C 0.99273 0.31886 0.28795 0.0
C949 C 0.98647 0.3164 0.32449 0.0
C950 C 1.00105 0.33836 0.22867 0.0
C951 C 0.01978 0.33949 0.218 0.0
C952 C 0.9884 0.34026 0.20191 0.0
C953 C 0.9681 0.33852 0.21122 0.0
C954 C 0.95259 0.32077 0.22932 0.0
C955 C 0.93362 0.31939 0.23847 0.0
C956 C 0.92992 0.33558 0.22943 0.0
C957 C 0.94515 0.35317 0.21112 0.0
C958 C 0.96416 0.35465 0.20195 0.0
C959 C 0.03288 0.33975 0.06076 0.0
C960 C 0.0334 0.35654 0.04195 0.0
C961 C 0.02599 0.33557 0.09692 0.0
C962 C 0.01984 0.34832 0.11537 0.0
C963 C 0.01975 0.36469 0.09622 0.0
C964 C 0.02639 0.36873 0.05998 0.0
C965 C 0.0138 0.3449 0.15466 0.0
C966 C 0.99494 0.34352 0.1654 0.0
C967 C 0.02649 0.34307 0.18154 0.0
C968 C 0.04731 0.34595 0.17282 0.0
C969 C 0.06259 0.3644 0.15607 0.0
C970 C 0.08212 0.36694 0.14761 0.0
C971 C 0.08663 0.35121 0.15606 0.0
C972 C 0.07163 0.33294 0.17309 0.0
C973 C 0.05206 0.33031 0.18156 0.0
H974 H 0.10176 0.35321 0.14949 0.0
H975 H 0.91522 0.33448 0.23655 0.0
H976 H 0.64885 0.01951 0.68444 0.0
H977 H 0.65497 0.02686 0.61947 0.0
H978 H 0.65107 0.96729 0.60221 0.0
H979 H 0.64504 0.95981 0.66732 0.0
H980 H 0.68177 0.99819 0.55961 0.0
H981 H 0.60934 0.97178 0.58696 0.0
H982 H 0.57988 0.97095 0.6198 0.0
H983 H 0.59894 0.03305 0.58308 0.0
H984 H 0.62872 0.03437 0.55047 0.0
H985 H 0.62702 0.99448 0.37524 0.0
H986 H 0.6271 0.9865 0.43946 0.0
H987 H 0.68983 0.03824 0.4498 0.0
H988 H 0.68993 0.0463 0.38517 0.0
H989 H 0.62984 0.01022 0.49583 0.0
H990 H 0.71391 0.02724 0.5204 0.0
H991 H 0.74202 0.02556 0.48724 0.0
H992 H 0.69684 0.97741 0.41795 0.0
H993 H 0.66846 0.97861 0.45098 0.0
C994 C 0.64957 0.00805 0.66699 0.0
C995 C 0.64627 0.98897 0.68119 0.0
C996 C 0.65303 0.01228 0.62976 0.0
C997 C 0.65322 0.99752 0.60582 0.0
C998 C 0.65097 0.97891 0.62011 0.0
C999 C 0.64745 0.97463 0.65738 0.0
C1000 C 0.65432 1.0009 0.56575 0.0
C1001 C 0.67048 1.00091 0.54566 0.0
C1002 C 0.6394 1.00409 0.54735 0.0
C1003 C 0.62137 1.00324 0.56658 0.0
C1004 C 0.60733 0.98531 0.5861 0.0
C1005 C 0.59056 0.98474 0.60465 0.0
C1006 C 0.58757 1.00195 0.60361 0.0
C1007 C 0.6013 0.01974 0.58391 0.0
C1008 C 0.61811 0.0204 0.56538 0.0
C1009 C 0.64098 1.00404 0.39094 0.0
C1010 C 0.65846 0.0211 0.37493 0.0
C1011 C 0.64096 0.99948 0.4278 0.0
C1012 C 0.65843 0.01176 0.44963 0.0
C1013 C 0.6762 0.02839 0.43352 0.0
C1014 C 0.67624 0.03299 0.39651 0.0
C1015 C 0.65744 0.00776 0.48953 0.0
C1016 C 0.64125 0.00764 0.50969 0.0
C1017 C 0.67217 1.0042 0.50779 0.0
C1018 C 0.68909 1.0032 0.48793 0.0
C1019 C 0.70998 0.01626 0.49815 0.0
C1020 C 0.72596 0.01539 0.47937 0.0
C1021 C 0.72122 1.00144 0.45042 0.0
C1022 C 0.70049 0.98827 0.44028 0.0
C1023 C 0.68446 0.98907 0.45898 0.0
H1024 H 0.73361 1.0008 0.43591 0.0
H1025 H 0.57459 1.00149 0.618 0.0
H1026 H 0.63444 0.64638 0.71931 0.0
H1027 H 0.64074 0.641 0.78241 0.0
H1028 H 0.69781 0.70038 0.78245 0.0
H1029 H 0.69156 0.70604 0.71916 0.0
H1030 H 0.70068 0.66713 0.81792 0.0
H1031 H 0.65767 0.69908 0.81881 0.0
H1032 H 0.62725 0.70211 0.80101 0.0
H1033 H 0.58617 0.64166 0.84642 0.0
H1034 H 0.61636 0.63814 0.864 0.0
H1035 H 0.71394 0.67738 1.00981 0.0
H1036 H 0.71042 0.68371 0.94568 0.0
H1037 H 0.64805 0.63067 0.94484 0.0
H1038 H 0.65127 0.62451 1.00901 0.0
H1039 H 0.6487 0.66157 0.90916 0.0
H1040 H 0.6898 0.62827 0.90766 0.0
H1041 H 0.71912 0.62313 0.92438 0.0
H1042 H 0.76241 0.68302 0.87947 0.0
H1043 H 0.73336 0.68864 0.86288 0.0
C1044 C 0.64848 0.65823 0.73249 0.0
C1045 C 0.66244 0.67672 0.71414 0.0
C1046 C 0.65202 0.65513 0.76866 0.0
C1047 C 0.66964 0.67037 0.78724 0.0
C1048 C 0.68409 0.68843 0.76861 0.0
C1049 C 0.68046 0.69166 0.73247 0.0
C1050 C 0.67233 0.66784 0.8266 0.0
C1051 C 0.68951 0.66621 0.838 0.0
C1052 C 0.65743 0.66609 0.85262 0.0
C1053 C 0.63927 0.66827 0.84241 0.0
C1054 C 0.64214 0.68637 0.82475 0.0
C1055 C 0.62494 0.68818 0.81474 0.0
C1056 C 0.60478 0.67206 0.8225 0.0
C1057 C 0.60179 0.65412 0.84038 0.0
C1058 C 0.61894 0.65222 0.85041 0.0
C1059 C 0.69942 0.66713 0.99605 0.0
C1060 C 0.68291 0.65041 1.01463 0.0
C1061 C 0.69748 0.67068 0.95926 0.0
C1062 C 0.67907 0.65748 0.94015 0.0
C1063 C 0.66243 0.64106 0.95887 0.0
C1064 C 0.66432 0.63755 0.99564 0.0
C1065 C 0.67706 0.66076 0.90073 0.0
C1066 C 0.65997 0.66254 0.88924 0.0
C1067 C 0.6919 0.66235 0.87461 0.0
C1068 C 0.70941 0.65898 0.88438 0.0
C1069 C 0.70558 0.64042 0.9016 0.0
C1070 C 0.72215 0.6374 0.91101 0.0
C1071 C 0.74262 0.65277 0.90311 0.0
C1072 C 0.74655 0.67115 0.88564 0.0
C1073 C 0.73004 0.67425 0.87619 0.0
H1074 H 0.75542 0.65043 0.91046 0.0
H1075 H 0.59149 0.6735 0.81472 0.0
H1076 H 0.02862 0.64483 0.32918 0.0
H1077 H 0.01705 0.63982 0.2659 0.0
H1078 H 0.01162 0.69514 0.27193 0.0
H1079 H 0.0235 0.70049 0.33527 0.0
H1080 H 0.97715 0.65922 0.23587 0.0
H1081 H 0.05247 0.70019 0.23328 0.0
H1082 H 0.08775 0.70733 0.24903 0.0
H1083 H 0.07546 0.65012 0.19726 0.0
H1084 H 0.03997 0.64249 0.18166 0.0
H1085 H 0.97039 0.67451 0.04748 0.0
H1086 H 0.98102 0.67968 0.11128 0.0
H1087 H 0.99832 0.63217 0.1017 0.0
H1088 H 0.98793 0.62706 0.03778 0.0
H1089 H 0.02674 0.66408 0.14021 0.0
H1090 H 0.95328 0.62163 0.1428 0.0
H1091 H 0.91662 0.61048 0.12938 0.0
H1092 H 0.92331 0.66527 0.18268 0.0
H1093 H 0.96017 0.67697 0.19588 0.0
C1094 C 0.02476 0.65584 0.31726 0.0
C1095 C 0.02706 0.67312 0.33733 0.0
C1096 C 0.01822 0.65298 0.281 0.0
C1097 C 0.01364 0.6672 0.26412 0.0
C1098 C 0.01511 0.684 0.28443 0.0
C1099 C 0.02193 0.68705 0.32061 0.0
C1100 C 0.00807 0.66491 0.22491 0.0
C1101 C 0.98807 0.66063 0.21486 0.0
C1102 C 0.02209 0.66598 0.19765 0.0
C1103 C 0.04351 0.67068 0.2066 0.0
C1104 C 0.05724 0.68906 0.22549 0.0
C1105 C 0.07728 0.69321 0.23435 0.0
C1106 C 0.08382 0.67916 0.22423 0.0
C1107 C 0.07036 0.66097 0.20512 0.0
C1108 C 0.05029 0.65674 0.19623 0.0
C1109 C 0.97658 0.66525 0.05883 0.0
C1110 C 0.97823 0.65032 0.03742 0.0
C1111 C 0.98255 0.66814 0.09544 0.0
C1112 C 0.99023 0.65613 0.11154 0.0
C1113 C 0.99241 0.64161 0.08999 0.0
C1114 C 0.98642 0.63868 0.0534 0.0
C1115 C 0.99579 0.65855 0.15091 0.0
C1116 C 0.01579 0.66281 0.16107 0.0
C1117 C 0.9816 0.65702 0.17833 0.0
C1118 C 0.95956 0.6503 0.16995 0.0
C1119 C 0.94701 0.63144 0.1513 0.0
C1120 C 0.92619 0.625 0.14379 0.0
C1121 C 0.91767 0.63718 0.1551 0.0
C1122 C 0.92996 0.65587 0.17388 0.0
C1123 C 0.95082 0.66242 0.18138 0.0
H1124 H 0.90151 0.63207 0.14945 0.0
H1125 H 0.09934 0.68239 0.23113 0.0
H1126 H 0.31481 0.99394 0.37712 0.0
H1127 H 0.32093 1.00355 0.44166 0.0
H1128 H 0.36911 0.98713 0.44407 0.0
H1129 H 0.36331 0.97775 0.37968 0.0
H1130 H 0.33965 0.96921 0.50079 0.0
H1131 H 0.38281 0.03663 0.44489 0.0
H1132 H 0.38967 0.066 0.40464 0.0
H1133 H 0.34474 0.07527 0.46322 0.0
H1134 H 0.3374 0.04574 0.50352 0.0
H1135 H 0.3906 0.00928 0.66697 0.0
H1136 H 0.38036 1.00016 0.60385 0.0
H1137 H 0.34321 0.03008 0.60984 0.0
H1138 H 0.35417 0.04007 0.67309 0.0
H1139 H 0.36354 0.04038 0.54916 0.0
H1140 H 0.32113 0.97499 0.60713 0.0
H1141 H 0.31277 0.94521 0.64742 0.0
H1142 H 0.35336 0.93105 0.58549 0.0
H1143 H 0.36219 0.96091 0.54509 0.0
C1144 C 0.32684 0.99256 0.3913 0.0
C1145 C 0.33857 0.98508 0.37317 0.0
C1146 C 0.33032 0.99807 0.42818 0.0
C1147 C 0.34547 0.99604 0.44768 0.0
C1148 C 0.35731 0.98878 0.42957 0.0
C1149 C 0.35403 0.98352 0.39268 0.0
C1150 C 0.34868 1.00092 0.48721 0.0
C1151 C 0.34506 0.98481 0.51139 0.0
C1152 C 0.35497 0.02108 0.50114 0.0
C1153 C 0.35938 0.03882 0.47694 0.0
C1154 C 0.37425 0.0448 0.44897 0.0
C1155 C 0.37825 0.0615 0.4262 0.0
C1156 C 0.3676 0.07245 0.4313 0.0
C1157 C 0.35295 0.06675 0.45926 0.0
C1158 C 0.34887 0.05004 0.48208 0.0
C1159 C 0.38006 0.01377 0.65511 0.0
C1160 C 0.37312 0.02533 0.67526 0.0
C1161 C 0.37411 0.00843 0.61888 0.0
C1162 C 0.36067 0.01407 0.60201 0.0
C1163 C 0.35353 0.02547 0.62217 0.0
C1164 C 0.35973 0.03109 0.65841 0.0
C1165 C 0.35485 0.00872 0.56299 0.0
C1166 C 0.35792 0.02471 0.5388 0.0
C1167 C 0.34776 0.98834 0.54907 0.0
C1168 C 0.34244 0.9703 0.57324 0.0
C1169 C 0.32839 0.96561 0.60224 0.0
C1170 C 0.32355 0.9487 0.62508 0.0
C1171 C 0.33256 0.93627 0.61906 0.0
C1172 C 0.3464 0.9407 0.59013 0.0
C1173 C 0.35131 0.9576 0.56722 0.0
H1174 H 0.3288 0.92319 0.63678 0.0
H1175 H 0.37073 0.08539 0.41365 0.0
H1176 H 0.41764 0.4854 0.11162 0.0
H1177 H 0.45562 0.50671 0.11161 0.0
H1178 H 0.46033 0.45114 0.10061 0.0
H1179 H 0.42251 0.42976 0.0998 0.0
H1180 H 0.4862 0.47744 0.15345 0.0
H1181 H 0.46946 0.4821 0.02885 0.0
H1182 H 0.45168 0.48932 0.97925 0.0
H1183 H 0.47934 0.55321 1.01416 0.0
H1184 H 0.49707 0.54629 0.06432 0.0
H1185 H 0.59316 0.52321 0.11143 0.0
H1186 H 0.55516 0.50291 0.10778 0.0
H1187 H 0.55242 0.5598 0.11202 0.0
H1188 H 0.5904 0.58018 0.11556 0.0
H1189 H 0.52541 0.53341 0.0631 0.0
H1190 H 0.54213 0.52929 0.1873 0.0
H1191 H 0.5598 0.52252 0.23766 0.0
H1192 H 0.53195 0.45825 0.20494 0.0
H1193 H 0.51433 0.46471 0.15403 0.0
C1194 C 0.42669 0.47768 0.10879 0.0
C1195 C 0.41686 0.45577 0.10578 0.0
C1196 C 0.44844 0.48991 0.10889 0.0
C1197 C 0.46079 0.4805 0.10593 0.0
C1198 C 0.45108 0.4587 0.10308 0.0
C1199 C 0.42938 0.44648 0.1028 0.0
C1200 C 0.48386 0.49331 0.10629 0.0
C1201 C 0.4948 0.4895 0.13342 0.0
C1202 C 0.49502 0.50941 0.08075 0.0
C1203 C 0.48441 0.51361 0.05057 0.0
C1204 C 0.47161 0.49764 1.02615 0.0
C1205 C 0.46157 0.50169 0.99789 0.0
C1206 C 0.46433 0.52169 0.99362 0.0
C1207 C 0.47719 0.53771 1.01754 0.0
C1208 C 0.48725 0.53374 0.04587 0.0
C1209 C 0.58447 0.53139 0.11166 0.0
C1210 C 0.59483 0.55331 0.11398 0.0
C1211 C 0.56275 0.51978 0.10956 0.0
C1212 C 0.55091 0.52981 0.11018 0.0
C1213 C 0.56122 0.55172 0.1115 0.0
C1214 C 0.58296 0.56336 0.11341 0.0
C1215 C 0.52778 0.51745 0.11014 0.0
C1216 C 0.51683 0.52136 0.08315 0.0
C1217 C 0.51657 0.5015 0.13596 0.0
C1218 C 0.52707 0.49754 0.16664 0.0
C1219 C 0.5399 0.51375 0.19067 0.0
C1220 C 0.54988 0.50996 0.21935 0.0
C1221 C 0.54704 0.48998 0.22444 0.0
C1222 C 0.53416 0.47373 0.20093 0.0
C1223 C 0.52416 0.47744 0.17218 0.0
H1224 H 0.55479 0.48708 0.24666 0.0
H1225 H 0.45655 0.5248 0.97172 0.0
H1226 H 0.07807 0.59652 0.39115 0.0
H1227 H 0.06318 0.55857 0.39386 0.0
H1228 H 0.02027 0.55476 0.47702 0.0
H1229 H 0.03542 0.59261 0.47515 0.0
H1230 H 0.03599 0.52992 0.49274 0.0
H1231 H 1.00497 0.54334 0.38885 0.0
H1232 H 1.00525 0.55942 0.3301 0.0
H1233 H 0.03742 0.53088 0.28058 0.0
H1234 H 0.03758 0.51484 0.33922 0.0
H1235 H 0.95683 0.42438 0.48529 0.0
H1236 H 0.97652 0.46238 0.48155 0.0
H1237 H 0.01592 0.45874 0.39879 0.0
H1238 H 0.99581 0.42057 0.40151 0.0
H1239 H 1.00478 0.48734 0.38169 0.0
H1240 H 0.03336 0.47173 0.48535 0.0
H1241 H 0.03235 0.45539 0.54419 0.0
H1242 H 1.00436 0.48791 0.5944 0.0
H1243 H 1.00491 0.50423 0.53572 0.0
C1244 C 0.06567 0.58763 0.41035 0.0
C1245 C 0.05781 0.59758 0.4327 0.0
C1246 C 0.05705 0.56593 0.41166 0.0
C1247 C 0.04042 0.5538 0.43531 0.0
C1248 C 0.03303 0.56378 0.45845 0.0
C1249 C 0.04159 0.58541 0.45711 0.0
C1250 C 0.03029 0.53066 0.43556 0.0
C1251 C 0.02903 0.5206 0.46853 0.0
C1252 C 0.02163 0.51851 0.40378 0.0
C1253 C 0.0215 0.52809 0.3685 0.0
C1254 C 0.01226 0.54063 0.3655 0.0
C1255 C 0.01231 0.54971 0.33222 0.0
C1256 C 0.0214 0.54623 0.30165 0.0
C1257 C 0.03042 0.5336 0.3043 0.0
C1258 C 0.03043 0.5245 0.33754 0.0
C1259 C 0.96951 0.43158 0.46598 0.0
C1260 C 0.97473 0.41934 0.44376 0.0
C1261 C 0.98092 0.45336 0.46416 0.0
C1262 C 0.9979 0.46342 0.44029 0.0
C1263 C 1.00296 0.4513 0.41758 0.0
C1264 C 0.99154 0.42948 0.41938 0.0
C1265 C 0.01025 0.48659 0.439 0.0
C1266 C 0.01193 0.49665 0.40584 0.0
C1267 C 0.01925 0.49875 0.47064 0.0
C1268 C 0.01903 0.48907 0.50605 0.0
C1269 C 0.02685 0.47529 0.50888 0.0
C1270 C 0.02638 0.46604 0.54221 0.0
C1271 C 0.01826 0.47057 0.57299 0.0
C1272 C 0.01063 0.4844 0.57052 0.0
C1273 C 0.01104 0.49367 0.53724 0.0
H1274 H 0.0179 0.4634 0.59878 0.0
H1275 H 0.02142 0.55327 0.2759 0.0
H1276 H 0.58015 0.9952 0.73802 0.0
H1277 H 0.56147 0.01467 0.73534 0.0
H1278 H 0.51365 0.96912 0.80542 0.0
H1279 H 0.53215 0.94962 0.80803 0.0
H1280 H 0.49655 0.97794 0.75077 0.0
H1281 H 0.55086 0.01768 0.83677 0.0
H1282 H 0.58705 0.03763 0.85889 0.0
H1283 H 0.60219 0.08255 0.7737 0.0
H1284 H 0.56614 0.06269 0.75074 0.0
H1285 H 0.44635 0.03306 0.80672 0.0
H1286 H 0.46771 0.01654 0.80731 0.0
H1287 H 0.50803 0.05968 0.7258 0.0
H1288 H 0.48643 0.07604 0.72416 0.0
H1289 H 0.52958 0.05308 0.78317 0.0
H1290 H 0.47403 0.01309 0.69911 0.0
H1291 H 0.43737 0.99309 0.67944 0.0
H1292 H 0.42419 0.94832 0.76413 0.0
H1293 H 0.46072 0.96825 0.78468 0.0
C1294 C 0.56575 0.98944 0.75307 0.0
C1295 C 0.55763 0.97084 0.77321 0.0
C1296 C 0.55508 1.00058 0.75153 0.0
C1297 C 0.53623 0.99346 0.77044 0.0
C1298 C 0.52811 0.97488 0.79048 0.0
C1299 C 0.53868 0.96371 0.79186 0.0
C1300 C 0.52471 1.00509 0.76906 0.0
C1301 C 0.50374 0.99431 0.75825 0.0
C1302 C 0.53419 0.02659 0.77804 0.0
C1303 C 0.55586 0.03857 0.79179 0.0
C1304 C 0.56195 0.03171 0.82256 0.0
C1305 C 0.58243 0.04302 0.83529 0.0
C1306 C 0.59693 0.06131 0.81764 0.0
C1307 C 0.59096 0.06836 0.78729 0.0
C1308 C 0.5705 0.05709 0.77442 0.0
C1309 C 0.45963 0.03902 0.78865 0.0
C1310 C 0.46442 0.05578 0.76503 0.0
C1311 C 0.47191 0.0296 0.78922 0.0
C1312 C 0.4893 0.03676 0.76631 0.0
C1313 C 0.49465 0.05393 0.74368 0.0
C1314 C 0.48228 0.0633 0.74289 0.0
C1315 C 0.50145 0.02582 0.76532 0.0
C1316 C 0.52249 0.03673 0.77558 0.0
C1317 C 0.49202 1.00439 0.75614 0.0
C1318 C 0.47007 0.99227 0.74364 0.0
C1319 C 0.46328 0.99907 0.71372 0.0
C1320 C 0.44253 0.98773 0.70238 0.0
C1321 C 0.42845 0.96947 0.72057 0.0
C1322 C 0.43511 0.96248 0.75009 0.0
C1323 C 0.45584 0.97379 0.76158 0.0
H1324 H 0.41238 0.96071 0.71175 0.0
H1325 H 0.61278 0.07005 0.82755 0.0
H1326 H 0.57718 0.59302 0.65541 0.0
H1327 H 0.55427 0.55523 0.65302 0.0
H1328 H 0.50845 0.56338 0.59478 0.0
H1329 H 0.53144 0.60137 0.59691 0.0
H1330 H 0.49057 0.53295 0.64673 0.0
H1331 H 0.53914 0.54994 0.54905 0.0
H1332 H 0.57386 0.56609 0.52038 0.0
H1333 H 0.59068 0.52993 0.58875 0.0
H1334 H 0.55615 0.51377 0.61822 0.0
H1335 H 0.43307 0.42645 0.58857 0.0
H1336 H 0.45323 0.46461 0.58998 0.0
H1337 H 0.50296 0.46208 0.64591 0.0
H1338 H 0.48289 0.42397 0.64473 0.0
H1339 H 0.51786 0.48997 0.59184 0.0
H1340 H 0.46965 0.47393 0.69098 0.0
H1341 H 0.43494 0.45789 0.71969 0.0
H1342 H 0.41734 0.49218 0.64815 0.0
H1343 H 0.45187 0.50822 0.61866 0.0
C1344 C 0.56228 0.58682 0.64196 0.0
C1345 C 0.55628 0.60024 0.62593 0.0
C1346 C 0.54917 0.5652 0.64068 0.0
C1347 C 0.52981 0.55648 0.62315 0.0
C1348 C 0.52337 0.56979 0.60833 0.0
C1349 C 0.5365 0.5915 0.60966 0.0
C1350 C 0.51662 0.53345 0.61969 0.0
C1351 C 0.4964 0.52356 0.63424 0.0
C1352 C 0.52437 0.52119 0.6039 0.0
C1353 C 0.54511 0.53078 0.58606 0.0
C1354 C 0.55029 0.54554 0.55816 0.0
C1355 C 0.56993 0.55468 0.54174 0.0
C1356 C 0.58448 0.54908 0.55279 0.0
C1357 C 0.5794 0.53427 0.58024 0.0
C1358 C 0.55979 0.5251 0.59679 0.0
C1359 C 0.4482 0.43399 0.60149 0.0
C1360 C 0.45632 0.4221 0.6166 0.0
C1361 C 0.45973 0.45583 0.60223 0.0
C1362 C 0.47953 0.46621 0.61836 0.0
C1363 C 0.48773 0.4544 0.63324 0.0
C1364 C 0.47625 0.43259 0.63244 0.0
C1365 C 0.4919 0.48939 0.61937 0.0
C1366 C 0.51198 0.49934 0.60423 0.0
C1367 C 0.48399 0.50167 0.63457 0.0
C1368 C 0.46327 0.49211 0.65237 0.0
C1369 C 0.45832 0.47793 0.68118 0.0
C1370 C 0.43869 0.46886 0.69762 0.0
C1371 C 0.42393 0.47397 0.68568 0.0
C1372 C 0.42878 0.48821 0.65733 0.0
C1373 C 0.44839 0.49731 0.64076 0.0
H1374 H 0.40874 0.46693 0.69845 0.0
H1375 H 0.59968 0.55617 0.54004 0.0
H1376 H 0.98386 0.5699 0.97893 0.0
H1377 H 1.00103 0.54914 0.98232 0.0
H1378 H 0.96042 0.50807 0.89871 0.0
H1379 H 0.94341 0.52896 0.89448 0.0
H1380 H 0.96562 0.48661 0.95555 0.0
H1381 H 0.00841 0.54419 0.87676 0.0
H1382 H 0.02901 0.58135 0.85973 0.0
H1383 H 0.07044 0.59275 0.94924 0.0
H1384 H 0.04987 0.5557 0.96716 0.0
H1385 H 0.02291 0.43654 0.90876 0.0
H1386 H 1.00459 0.4563 0.90732 0.0
H1387 H 0.04873 0.50071 0.98368 0.0
H1388 H 0.06718 0.48107 0.98505 0.0
H1389 H 0.04151 0.52046 0.93092 0.0
H1390 H 0.99918 0.46322 1.01003 0.0
H1391 H 0.97854 0.42623 0.0281 0.0
H1392 H 0.93636 0.41429 0.93961 0.0
H1393 H 0.95691 0.45117 0.9207 0.0
C1394 C 0.9786 0.55655 0.96105 0.0
C1395 C 0.96231 0.55131 0.93616 0.0
C1396 C 0.98841 0.54464 0.96316 0.0
C1397 C 0.98216 0.52721 0.94048 0.0
C1398 C 0.96549 0.52147 0.91647 0.0
C1399 C 0.95572 0.53344 0.91421 0.0
C1400 C 0.99334 0.51526 0.94117 0.0
C1401 C 0.98216 0.49392 0.94975 0.0
C1402 C 0.015 0.52495 0.93438 0.0
C1403 C 0.02747 0.54721 0.92352 0.0
C1404 C 0.02181 0.55465 0.893 0.0
C1405 C 0.0335 0.57569 0.88315 0.0
C1406 C 0.05099 0.58941 0.90344 0.0
C1407 C 0.05687 0.58211 0.93358 0.0
C1408 C 0.04521 0.56109 0.94358 0.0
C1409 C 0.02862 0.45041 0.92546 0.0
C1410 C 0.04647 0.45717 0.94713 0.0
C1411 C 0.01813 0.46171 0.92462 0.0
C1412 C 0.02511 0.47985 0.94578 0.0
C1413 C 0.04306 0.48677 0.96711 0.0
C1414 C 0.05363 0.47555 0.96779 0.0
C1415 C 0.01382 0.49175 0.94541 0.0
C1416 C 0.02497 0.51311 0.93683 0.0
C1417 C 0.99215 0.48209 0.95236 0.0
C1418 C 0.97971 0.45992 0.96375 0.0
C1419 C 0.98559 0.45268 0.99426 0.0
C1420 C 0.97389 0.43174 1.00468 0.0
C1421 C 0.95618 0.41791 0.98496 0.0
C1422 C 0.9501 0.42502 0.95483 0.0
C1423 C 0.96175 0.44594 0.94427 0.0
H1424 H 0.94715 0.4017 0.99308 0.0
H1425 H 0.06003 0.60569 0.89577 0.0
H1426 H 0.58419 0.06387 0.27978 0.0
H1427 H 0.54625 0.04413 0.27633 0.0
H1428 H 0.54749 0.98642 0.2752 0.0
H1429 H 0.58562 0.00617 0.27875 0.0
H1430 H 0.51881 0.98552 0.22717 0.0
H1431 H 0.53581 1.00234 0.35268 0.0
H1432 H 0.55356 0.02541 0.40493 0.0
H1433 H 0.52423 0.06145 0.3809 0.0
H1434 H 0.50653 0.03877 0.32816 0.0
H1435 H 0.40868 0.92668 0.26441 0.0
H1436 H 0.44647 0.94092 0.26765 0.0
H1437 H 0.45585 1.00334 0.27371 0.0
H1438 H 0.41842 0.98933 0.27044 0.0
H1439 H 0.47911 0.99832 0.32277 0.0
H1440 H 0.46432 0.98332 0.19481 0.0
H1441 H 0.44701 0.96081 0.14174 0.0
H1442 H 0.47217 0.92156 0.17013 0.0
H1443 H 0.48942 0.9437 0.22368 0.0
C1444 C 0.57643 0.04699 0.27891 0.0
C1445 C 0.58795 0.03661 0.27999 0.0
C1446 C 0.55473 0.03571 0.27685 0.0
C1447 C 0.54402 0.01379 0.27618 0.0
C1448 C 0.55545 1.00334 0.27583 0.0
C1449 C 0.57724 0.01465 0.27777 0.0
C1450 C 0.52088 1.00194 0.27687 0.0
C1451 C 0.51008 0.98803 0.24838 0.0
C1452 C 0.50953 1.00539 0.30434 0.0
C1453 C 0.51996 0.01893 0.33631 0.0
C1454 C 0.53324 0.01526 0.3584 0.0
C1455 C 0.54328 0.02826 0.38812 0.0
C1456 C 0.54005 0.04491 0.39619 0.0
C1457 C 0.52672 0.04856 0.37461 0.0
C1458 C 0.51666 0.03562 0.34482 0.0
C1459 C 0.41883 0.94343 0.26629 0.0
C1460 C 0.41047 0.95682 0.26746 0.0
C1461 C 0.44041 0.95155 0.26812 0.0
C1462 C 0.45402 0.97323 0.27077 0.0
C1463 C 0.44568 0.98656 0.27195 0.0
C1464 C 0.4242 0.97849 0.27026 0.0
C1465 C 0.47698 0.98227 0.27257 0.0
C1466 C 0.48778 0.99563 0.3017 0.0
C1467 C 0.48828 0.9783 0.24566 0.0
C1468 C 0.47795 0.96501 0.21348 0.0
C1469 C 0.46602 0.96978 0.18991 0.0
C1470 C 0.45625 0.95711 0.15971 0.0
C1471 C 0.45843 0.93972 0.15263 0.0
C1472 C 0.47045 0.93501 0.17569 0.0
C1473 C 0.48024 0.94762 0.20595 0.0
H1474 H 0.45086 0.92993 0.12923 0.0
H1475 H 0.54784 0.05496 0.41921 0.0
loop_
_geom_bond_atom_site_label_1
_geom_bond_atom_site_label_2
_geom_bond_distance
_geom_bond_site_symmetry_2
_ccdc_geom_bond_type
Cu0 N1 1.999 . S
Cu0 O6 1.974 . S
Cu0 N11 1.985 . S
Cu0 O20 1.959 . S
N1 Cu0 1.999 . S
N1 C3 1.263 . S
N1 C5 1.389 . S
N2 C3 1.358 . S
N2 C4 1.400 . S
C3 N1 1.263 . S
C3 N2 1.358 . S
C3 H9 0.930 . S
C4 N2 1.400 . S
C4 C5 1.351 . S
C4 H21 0.930 . S
C5 N1 1.389 . S
C5 C4 1.351 . S
C5 H10 0.930 . S
O6 Cu0 1.974 . S
O6 C16 1.282 . S
C7 O8 1.261 . S
C7 O20 1.251 . S
O8 C7 1.261 . S
H9 C3 0.930 . S
H10 C5 0.930 . S
N11 Cu0 1.985 . S
N11 C13 1.335 . S
N11 C14 1.390 . S
N12 C13 1.345 . S
N12 C15 1.336 . S
C13 N11 1.335 . S
C13 N12 1.345 . S
C13 H18 0.930 . S
C14 N11 1.390 . S
C14 C15 1.346 . S
C14 H19 0.930 . S
C15 N12 1.336 . S
C15 C14 1.346 . S
C15 H22 0.929 . S
C16 O6 1.282 . S
C16 O17 1.216 . S
O17 C16 1.216 . S
H18 C13 0.930 . S
H19 C14 0.930 . S
O20 Cu0 1.959 . S
O20 C7 1.251 . S
H21 C4 0.930 . S
H22 C15 0.929 . S
Cu23 N24 1.999 . S
Cu23 O29 1.974 . S
Cu23 N34 1.985 . S
Cu23 O43 1.959 . S
N24 Cu23 1.999 . S
N24 C26 1.263 . S
N24 C28 1.389 . S
N25 C26 1.358 . S
N25 C27 1.400 . S
C26 N24 1.263 . S
C26 N25 1.358 . S
C26 H32 0.930 . S
C27 N25 1.400 . S
C27 C28 1.351 . S
C27 H44 0.930 . S
C28 N24 1.389 . S
C28 C27 1.351 . S
C28 H33 0.930 . S
O29 Cu23 1.974 . S
O29 C39 1.282 . S
C30 O31 1.261 . S
C30 O43 1.251 . S
O31 C30 1.261 . S
H32 C26 0.930 . S
H33 C28 0.930 . S
N34 Cu23 1.985 . S
N34 C36 1.335 . S
N34 C37 1.390 . S
N35 C36 1.345 . S
N35 C38 1.336 . S
C36 N34 1.335 . S
C36 N35 1.345 . S
C36 H41 0.930 . S
C37 N34 1.390 . S
C37 C38 1.346 . S
C37 H42 0.930 . S
C38 N35 1.336 . S
C38 C37 1.346 . S
C38 H45 0.929 . S
C39 O29 1.282 . S
C39 O40 1.216 . S
O40 C39 1.216 . S
H41 C36 0.930 . S
H42 C37 0.930 . S
O43 Cu23 1.959 . S
O43 C30 1.251 . S
H44 C27 0.930 . S
H45 C38 0.929 . S
Cu46 N47 1.999 . S
Cu46 O52 1.974 . S
Cu46 N57 1.985 . S
Cu46 O66 1.959 . S
N47 Cu46 1.999 . S
N47 C49 1.263 . S
N47 C51 1.389 . S
N48 C49 1.358 . S
N48 C50 1.400 . S
C49 N47 1.263 . S
C49 N48 1.358 . S
C49 H55 0.930 . S
C50 N48 1.400 . S
C50 C51 1.351 . S
C50 H67 0.930 . S
C51 N47 1.389 . S
C51 C50 1.351 . S
C51 H56 0.930 . S
O52 Cu46 1.974 . S
O52 C62 1.282 . S
C53 O54 1.261 . S
C53 O66 1.251 . S
O54 C53 1.261 . S
H55 C49 0.930 . S
H56 C51 0.930 . S
N57 Cu46 1.985 . S
N57 C59 1.335 . S
N57 C60 1.390 . S
N58 C59 1.345 . S
N58 C61 1.336 . S
C59 N57 1.335 . S
C59 N58 1.345 . S
C59 H64 0.930 . S
C60 N57 1.390 . S
C60 C61 1.346 . S
C60 H65 0.930 . S
C61 N58 1.336 . S
C61 C60 1.346 . S
C61 H68 0.929 . S
C62 O52 1.282 . S
C62 O63 1.216 . S
O63 C62 1.216 . S
H64 C59 0.930 . S
H65 C60 0.930 . S
O66 Cu46 1.959 . S
O66 C53 1.251 . S
H67 C50 0.930 . S
H68 C61 0.929 . S
Cu69 N70 1.999 . S
Cu69 O75 1.974 . S
Cu69 N80 1.985 . S
Cu69 O89 1.959 . S
N70 Cu69 1.999 . S
N70 C72 1.263 . S
N70 C74 1.389 . S
N71 C72 1.358 . S
N71 C73 1.400 . S
C72 N70 1.263 . S
C72 N71 1.358 . S
C72 H78 0.930 . S
C73 N71 1.400 . S
C73 C74 1.351 . S
C73 H90 0.930 . S
C74 N70 1.389 . S
C74 C73 1.351 . S
C74 H79 0.930 . S
O75 Cu69 1.974 . S
O75 C85 1.282 . S
C76 O77 1.261 . S
C76 O89 1.251 . S
O77 C76 1.261 . S
H78 C72 0.930 . S
H79 C74 0.930 . S
N80 Cu69 1.985 . S
N80 C82 1.335 . S
N80 C83 1.390 . S
N81 C82 1.345 . S
N81 C84 1.336 . S
C82 N80 1.335 . S
C82 N81 1.345 . S
C82 H87 0.930 . S
C83 N80 1.390 . S
C83 C84 1.346 . S
C83 H88 0.930 . S
C84 N81 1.336 . S
C84 C83 1.346 . S
C84 H91 0.929 . S
C85 O75 1.282 . S
C85 O86 1.216 . S
O86 C85 1.216 . S
H87 C82 0.930 . S
H88 C83 0.930 . S
O89 Cu69 1.959 . S
O89 C76 1.251 . S
H90 C73 0.930 . S
H91 C84 0.929 . S
Cu92 N93 1.999 . S
Cu92 O98 1.974 . S
Cu92 N103 1.985 . S
Cu92 O112 1.959 . S
N93 Cu92 1.999 . S
N93 C95 1.263 . S
N93 C97 1.389 . S
N94 C95 1.358 . S
N94 C96 1.400 . S
C95 N93 1.263 . S
C95 N94 1.358 . S
C95 H101 0.930 . S
C96 N94 1.400 . S
C96 C97 1.351 . S
C96 H113 0.930 . S
C97 N93 1.389 . S
C97 C96 1.351 . S
C97 H102 0.930 . S
O98 Cu92 1.974 . S
O98 C108 1.282 . S
C99 O100 1.261 . S
C99 O112 1.251 . S
O100 C99 1.261 . S
H101 C95 0.930 . S
H102 C97 0.930 . S
N103 Cu92 1.985 . S
N103 C105 1.335 . S
N103 C106 1.390 . S
N104 C105 1.345 . S
N104 C107 1.336 . S
C105 N103 1.335 . S
C105 N104 1.345 . S
C105 H110 0.930 . S
C106 N103 1.390 . S
C106 C107 1.346 . S
C106 H111 0.930 . S
C107 N104 1.336 . S
C107 C106 1.346 . S
C107 H114 0.929 . S
C108 O98 1.282 . S
C108 O109 1.216 . S
O109 C108 1.216 . S
H110 C105 0.930 . S
H111 C106 0.930 . S
O112 Cu92 1.959 . S
O112 C99 1.251 . S
H113 C96 0.930 . S
H114 C107 0.929 . S
Cu115 N116 1.999 . S
Cu115 O121 1.974 . S
Cu115 N126 1.985 . S
Cu115 O135 1.959 . S
N116 Cu115 1.999 . S
N116 C118 1.263 . S
N116 C120 1.389 . S
N117 C118 1.358 . S
N117 C119 1.400 . S
C118 N116 1.263 . S
C118 N117 1.358 . S
C118 H124 0.930 . S
C119 N117 1.400 . S
C119 C120 1.351 . S
C119 H136 0.930 . S
C120 N116 1.389 . S
C120 C119 1.351 . S
C120 H125 0.930 . S
O121 Cu115 1.974 . S
O121 C131 1.282 . S
C122 O123 1.261 . S
C122 O135 1.251 . S
O123 C122 1.261 . S
H124 C118 0.930 . S
H125 C120 0.930 . S
N126 Cu115 1.985 . S
N126 C128 1.335 . S
N126 C129 1.390 . S
N127 C128 1.345 . S
N127 C130 1.336 . S
C128 N126 1.335 . S
C128 N127 1.345 . S
C128 H133 0.930 . S
C129 N126 1.390 . S
C129 C130 1.346 . S
C129 H134 0.930 . S
C130 N127 1.336 . S
C130 C129 1.346 . S
C130 H137 0.929 . S
C131 O121 1.282 . S
C131 O132 1.216 . S
O132 C131 1.216 . S
H133 C128 0.930 . S
H134 C129 0.930 . S
O135 Cu115 1.959 . S
O135 C122 1.251 . S
H136 C119 0.930 . S
H137 C130 0.929 . S
Cu138 N139 1.999 . S
Cu138 O144 1.974 . S
Cu138 N149 1.985 . S
Cu138 O158 1.959 . S
N139 Cu138 1.999 . S
N139 C141 1.263 . S
N139 C143 1.389 . S
N140 C141 1.358 . S
N140 C142 1.400 . S
C141 N139 1.263 . S
C141 N140 1.358 . S
C141 H147 0.930 . S
C142 N140 1.400 . S
C142 C143 1.351 . S
C142 H159 0.930 . S
C143 N139 1.389 . S
C143 C142 1.351 . S
C143 H148 0.930 . S
O144 Cu138 1.974 . S
O144 C154 1.282 . S
C145 O146 1.261 . S
C145 O158 1.251 . S
O146 C145 1.261 . S
H147 C141 0.930 . S
H148 C143 0.930 . S
N149 Cu138 1.985 . S
N149 C151 1.335 . S
N149 C152 1.390 . S
N150 C151 1.345 . S
N150 C153 1.336 . S
C151 N149 1.335 . S
C151 N150 1.345 . S
C151 H156 0.930 . S
C152 N149 1.390 . S
C152 C153 1.346 . S
C152 H157 0.930 . S
C153 N150 1.336 . S
C153 C152 1.346 . S
C153 H160 0.929 . S
C154 O144 1.282 . S
C154 O155 1.216 . S
O155 C154 1.216 . S
H156 C151 0.930 . S
H157 C152 0.930 . S
O158 Cu138 1.959 . S
O158 C145 1.251 . S
H159 C142 0.930 . S
H160 C153 0.929 . S
Cu161 N162 1.999 . S
Cu161 O167 1.974 . S
Cu161 N172 1.985 . S
Cu161 O181 1.959 . S
N162 Cu161 1.999 . S
N162 C164 1.263 . S
N162 C166 1.389 . S
N163 C164 1.358 . S
N163 C165 1.400 . S
C164 N162 1.263 . S
C164 N163 1.358 . S
C164 H170 0.930 . S
C165 N163 1.400 . S
C165 C166 1.351 . S
C165 H182 0.930 . S
C166 N162 1.389 . S
C166 C165 1.351 . S
C166 H171 0.930 . S
O167 Cu161 1.974 . S
O167 C177 1.282 . S
C168 O169 1.261 . S
C168 O181 1.251 . S
O169 C168 1.261 . S
H170 C164 0.930 . S
H171 C166 0.930 . S
N172 Cu161 1.985 . S
N172 C174 1.335 . S
N172 C175 1.390 . S
N173 C174 1.345 . S
N173 C176 1.336 . S
C174 N172 1.335 . S
C174 N173 1.345 . S
C174 H179 0.930 . S
C175 N172 1.390 . S
C175 C176 1.346 . S
C175 H180 0.930 . S
C176 N173 1.336 . S
C176 C175 1.346 . S
C176 H183 0.929 . S
C177 O167 1.282 . S
C177 O178 1.216 . S
O178 C177 1.216 . S
H179 C174 0.930 . S
H180 C175 0.930 . S
O181 Cu161 1.959 . S
O181 C168 1.251 . S
H182 C165 0.930 . S
H183 C176 0.929 . S
Cu184 N185 1.999 . S
Cu184 O190 1.974 . S
Cu184 N195 1.985 . S
Cu184 O204 1.959 . S
N185 Cu184 1.999 . S
N185 C187 1.263 . S
N185 C189 1.389 . S
N186 C187 1.358 . S
N186 C188 1.400 . S
C187 N185 1.263 . S
C187 N186 1.358 . S
C187 H193 0.930 . S
C188 N186 1.400 . S
C188 C189 1.351 . S
C188 H205 0.930 . S
C189 N185 1.389 . S
C189 C188 1.351 . S
C189 H194 0.930 . S
O190 Cu184 1.974 . S
O190 C200 1.282 . S
C191 O192 1.261 . S
C191 O204 1.251 . S
O192 C191 1.261 . S
H193 C187 0.930 . S
H194 C189 0.930 . S
N195 Cu184 1.985 . S
N195 C197 1.335 . S
N195 C198 1.390 . S
N196 C197 1.345 . S
N196 C199 1.336 . S
C197 N195 1.335 . S
C197 N196 1.345 . S
C197 H202 0.930 . S
C198 N195 1.390 . S
C198 C199 1.346 . S
C198 H203 0.930 . S
C199 N196 1.336 . S
C199 C198 1.346 . S
C199 H206 0.929 . S
C200 O190 1.282 . S
C200 O201 1.216 . S
O201 C200 1.216 . S
H202 C197 0.930 . S
H203 C198 0.930 . S
O204 Cu184 1.959 . S
O204 C191 1.251 . S
H205 C188 0.930 . S
H206 C199 0.929 . S
Cu207 N208 1.999 . S
Cu207 O213 1.974 . S
Cu207 N218 1.985 . S
Cu207 O227 1.959 . S
N208 Cu207 1.999 . S
N208 C210 1.263 . S
N208 C212 1.389 . S
N209 C210 1.358 . S
N209 C211 1.400 . S
C210 N208 1.263 . S
C210 N209 1.358 . S
C210 H216 0.930 . S
C211 N209 1.400 . S
C211 C212 1.351 . S
C211 H228 0.930 . S
C212 N208 1.389 . S
C212 C211 1.351 . S
C212 H217 0.930 . S
O213 Cu207 1.974 . S
O213 C223 1.282 . S
C214 O215 1.261 . S
C214 O227 1.251 . S
O215 C214 1.261 . S
H216 C210 0.930 . S
H217 C212 0.930 . S
N218 Cu207 1.985 . S
N218 C220 1.335 . S
N218 C221 1.390 . S
N219 C220 1.345 . S
N219 C222 1.336 . S
C220 N218 1.335 . S
C220 N219 1.345 . S
C220 H225 0.930 . S
C221 N218 1.390 . S
C221 C222 1.346 . S
C221 H226 0.930 . S
C222 N219 1.336 . S
C222 C221 1.346 . S
C222 H229 0.929 . S
C223 O213 1.282 . S
C223 O224 1.216 . S
O224 C223 1.216 . S
H225 C220 0.930 . S
H226 C221 0.930 . S
O227 Cu207 1.959 . S
O227 C214 1.251 . S
H228 C211 0.930 . S
H229 C222 0.929 . S
Cu230 N231 1.999 . S
Cu230 O236 1.974 . S
Cu230 N241 1.985 . S
Cu230 O250 1.959 . S
N231 Cu230 1.999 . S
N231 C233 1.263 . S
N231 C235 1.389 . S
N232 C233 1.358 . S
N232 C234 1.400 . S
C233 N231 1.263 . S
C233 N232 1.358 . S
C233 H239 0.930 . S
C234 N232 1.400 . S
C234 C235 1.351 . S
C234 H251 0.930 . S
C235 N231 1.389 . S
C235 C234 1.351 . S
C235 H240 0.930 . S
O236 Cu230 1.974 . S
O236 C246 1.282 . S
C237 O238 1.261 . S
C237 O250 1.251 . S
O238 C237 1.261 . S
H239 C233 0.930 . S
H240 C235 0.930 . S
N241 Cu230 1.985 . S
N241 C243 1.335 . S
N241 C244 1.390 . S
N242 C243 1.345 . S
N242 C245 1.336 . S
C243 N241 1.335 . S
C243 N242 1.345 . S
C243 H248 0.930 . S
C244 N241 1.390 . S
C244 C245 1.346 . S
C244 H249 0.930 . S
C245 N242 1.336 . S
C245 C244 1.346 . S
C245 H252 0.929 . S
C246 O236 1.282 . S
C246 O247 1.216 . S
O247 C246 1.216 . S
H248 C243 0.930 . S
H249 C244 0.930 . S
O250 Cu230 1.959 . S
O250 C237 1.251 . S
H251 C234 0.930 . S
H252 C245 0.929 . S
Cu253 N254 1.999 . S
Cu253 O259 1.974 . S
Cu253 N264 1.985 . S
Cu253 O273 1.959 . S
N254 Cu253 1.999 . S
N254 C256 1.263 . S
N254 C258 1.389 . S
N255 C256 1.358 . S
N255 C257 1.400 . S
C256 N254 1.263 . S
C256 N255 1.358 . S
C256 H262 0.930 . S
C257 N255 1.400 . S
C257 C258 1.351 . S
C257 H274 0.930 . S
C258 N254 1.389 . S
C258 C257 1.351 . S
C258 H263 0.930 . S
O259 Cu253 1.974 . S
O259 C269 1.282 . S
C260 O261 1.261 . S
C260 O273 1.251 . S
O261 C260 1.261 . S
H262 C256 0.930 . S
H263 C258 0.930 . S
N264 Cu253 1.985 . S
N264 C266 1.335 . S
N264 C267 1.390 . S
N265 C266 1.345 . S
N265 C268 1.336 . S
C266 N264 1.335 . S
C266 N265 1.345 . S
C266 H271 0.930 . S
C267 N264 1.390 . S
C267 C268 1.346 . S
C267 H272 0.930 . S
C268 N265 1.336 . S
C268 C267 1.346 . S
C268 H275 0.929 . S
C269 O259 1.282 . S
C269 O270 1.216 . S
O270 C269 1.216 . S
H271 C266 0.930 . S
H272 C267 0.930 . S
O273 Cu253 1.959 . S
O273 C260 1.251 . S
H274 C257 0.930 . S
H275 C268 0.929 . S
H276 C294 0.951 . S
H277 C296 0.951 . S
H278 C298 0.950 . S
H279 C299 0.950 . S
H280 C301 0.950 . S
H281 C304 0.950 . S
H282 C305 0.950 . S
H283 C307 0.950 . S
H284 C308 0.950 . S
H285 C309 0.951 . S
H286 C311 0.951 . S
H287 C313 0.950 . S
H288 C314 0.950 . S
H289 C316 0.950 . S
H290 C319 0.950 . S
H291 C320 0.950 . S
H292 C322 0.950 . S
H293 C323 0.950 . S
C294 H276 0.951 . S
C294 C295 1.366 . S
C294 C296 1.388 . S
C295 C294 1.366 . S
C295 C299 1.385 . S
C296 H277 0.951 . S
C296 C294 1.388 . S
C296 C297 1.366 . S
C297 C296 1.366 . S
C297 C298 1.414 . S
C297 C300 1.499 . S
C298 H278 0.950 . S
C298 C297 1.414 . S
C298 C299 1.374 . S
C299 H279 0.950 . S
C299 C295 1.385 . S
C299 C298 1.374 . S
C300 C297 1.499 . S
C300 C301 1.373 . S
C300 C302 1.389 . S
C301 H280 0.950 . S
C301 C300 1.373 . S
C301 C317 1.377 . S
C302 C300 1.389 . S
C302 C303 1.524 . S
C302 C316 1.377 . S
C303 C302 1.524 . S
C303 C304 1.397 . S
C303 C308 1.363 . S
C304 H281 0.950 . S
C304 C303 1.397 . S
C304 C305 1.334 . S
C305 H282 0.950 . S
C305 C304 1.334 . S
C305 C306 1.287 . S
C306 C305 1.287 . S
C306 C307 1.524 . S
C306 H325 0.913 . S
C307 H283 0.950 . S
C307 C306 1.524 . S
C307 C308 1.415 . S
C308 H284 0.950 . S
C308 C303 1.363 . S
C308 C307 1.415 . S
C309 H285 0.951 . S
C309 C310 1.366 . S
C309 C311 1.388 . S
C310 C309 1.366 . S
C310 C314 1.385 . S
C311 H286 0.951 . S
C311 C309 1.388 . S
C311 C312 1.366 . S
C312 C311 1.366 . S
C312 C313 1.414 . S
C312 C315 1.499 . S
C313 H287 0.950 . S
C313 C312 1.414 . S
C313 C314 1.374 . S
C314 H288 0.950 . S
C314 C310 1.385 . S
C314 C313 1.374 . S
C315 C312 1.499 . S
C315 C316 1.373 . S
C315 C317 1.389 . S
C316 H289 0.950 . S
C316 C302 1.377 . S
C316 C315 1.373 . S
C317 C301 1.377 . S
C317 C315 1.389 . S
C317 C318 1.524 . S
C318 C317 1.524 . S
C318 C319 1.397 . S
C318 C323 1.363 . S
C319 H290 0.950 . S
C319 C318 1.397 . S
C319 C320 1.334 . S
C320 H291 0.950 . S
C320 C319 1.334 . S
C320 C321 1.287 . S
C321 C320 1.287 . S
C321 C322 1.524 . S
C321 H324 0.999 . S
C322 H292 0.950 . S
C322 C321 1.524 . S
C322 C323 1.415 . S
C323 H293 0.950 . S
C323 C318 1.363 . S
C323 C322 1.415 . S
H324 C321 0.999 . S
H325 C306 0.913 . S
H326 C344 0.951 1_455 S
H327 C346 0.951 . S
H328 C348 0.950 . S
H329 C349 0.950 . S
H330 C351 0.950 . S
H331 C354 0.950 . S
H332 C355 0.950 . S
H333 C357 0.950 . S
H334 C358 0.950 . S
H335 C359 0.951 1_655 S
H336 C361 0.951 . S
H337 C363 0.950 . S
H338 C364 0.950 . S
H339 C366 0.950 . S
H340 C369 0.950 . S
H341 C370 0.950 . S
H342 C372 0.950 . S
H343 C373 0.950 . S
C344 H326 0.951 1_655 S
C344 C345 1.366 . S
C344 C346 1.388 1_655 S
C345 C344 1.366 . S
C345 C349 1.385 . S
C346 H327 0.951 . S
C346 C344 1.388 1_455 S
C346 C347 1.366 1_455 S
C347 C346 1.366 1_655 S
C347 C348 1.414 . S
C347 C350 1.499 . S
C348 H328 0.950 . S
C348 C347 1.414 . S
C348 C349 1.374 . S
C349 H329 0.950 . S
C349 C345 1.385 . S
C349 C348 1.374 . S
C350 C347 1.499 . S
C350 C351 1.373 . S
C350 C352 1.389 1_655 S
C351 H330 0.950 . S
C351 C350 1.373 . S
C351 C367 1.377 . S
C352 C350 1.389 1_455 S
C352 C353 1.524 . S
C352 C366 1.377 . S
C353 C352 1.524 . S
C353 C354 1.397 . S
C353 C358 1.363 . S
C354 H331 0.950 . S
C354 C353 1.397 . S
C354 C355 1.334 . S
C355 H332 0.950 . S
C355 C354 1.334 . S
C355 C356 1.287 . S
C356 C355 1.287 . S
C356 C357 1.524 . S
C356 H375 0.913 . S
C357 H333 0.950 . S
C357 C356 1.524 . S
C357 C358 1.415 . S
C358 H334 0.950 . S
C358 C353 1.363 . S
C358 C357 1.415 . S
C359 H335 0.951 1_455 S
C359 C360 1.366 . S
C359 C361 1.388 1_455 S
C360 C359 1.366 . S
C360 C364 1.385 . S
C361 H336 0.951 . S
C361 C359 1.388 1_655 S
C361 C362 1.366 1_655 S
C362 C361 1.366 1_455 S
C362 C363 1.414 . S
C362 C365 1.499 . S
C363 H337 0.950 . S
C363 C362 1.414 . S
C363 C364 1.374 . S
C364 H338 0.950 . S
C364 C360 1.385 . S
C364 C363 1.374 . S
C365 C362 1.499 . S
C365 C366 1.373 . S
C365 C367 1.389 1_455 S
C366 H339 0.950 . S
C366 C352 1.377 . S
C366 C365 1.373 . S
C367 C351 1.377 . S
C367 C365 1.389 1_655 S
C367 C368 1.524 . S
C368 C367 1.524 . S
C368 C369 1.397 . S
C368 C373 1.363 . S
C369 H340 0.950 . S
C369 C368 1.397 . S
C369 C370 1.334 . S
C370 H341 0.950 . S
C370 C369 1.334 . S
C370 C371 1.287 . S
C371 C370 1.287 . S
C371 C372 1.524 . S
C371 H374 0.999 . S
C372 H342 0.950 . S
C372 C371 1.524 . S
C372 C373 1.415 . S
C373 H343 0.950 . S
C373 C368 1.363 . S
C373 C372 1.415 . S
H374 C371 0.999 . S
H375 C356 0.913 . S
H376 C394 0.951 1_545 S
H377 C396 0.951 . S
H378 C398 0.950 . S
H379 C399 0.950 . S
H380 C401 0.950 . S
H381 C404 0.950 . S
H382 C405 0.950 . S
H383 C407 0.950 . S
H384 C408 0.950 . S
H385 C409 0.951 1_565 S
H386 C411 0.951 . S
H387 C413 0.950 . S
H388 C414 0.950 . S
H389 C416 0.950 . S
H390 C419 0.950 . S
H391 C420 0.950 . S
H392 C422 0.950 . S
H393 C423 0.950 . S
C394 H376 0.951 1_565 S
C394 C395 1.366 . S
C394 C396 1.388 1_565 S
C395 C394 1.366 . S
C395 C399 1.385 . S
C396 H377 0.951 . S
C396 C394 1.388 1_545 S
C396 C397 1.366 1_545 S
C397 C396 1.366 1_565 S
C397 C398 1.414 . S
C397 C400 1.499 . S
C398 H378 0.950 . S
C398 C397 1.414 . S
C398 C399 1.374 . S
C399 H379 0.950 . S
C399 C395 1.385 . S
C399 C398 1.374 . S
C400 C397 1.499 . S
C400 C401 1.373 . S
C400 C402 1.389 1_565 S
C401 H380 0.950 . S
C401 C400 1.373 . S
C401 C417 1.377 1_556 S
C402 C400 1.389 1_545 S
C402 C403 1.524 . S
C402 C416 1.377 1_556 S
C403 C402 1.524 . S
C403 C404 1.397 . S
C403 C408 1.363 . S
C404 H381 0.950 . S
C404 C403 1.397 . S
C404 C405 1.334 . S
C405 H382 0.950 . S
C405 C404 1.334 . S
C405 C406 1.287 . S
C406 C405 1.287 . S
C406 C407 1.524 . S
C406 H425 0.913 . S
C407 H383 0.950 . S
C407 C406 1.524 . S
C407 C408 1.415 . S
C408 H384 0.950 . S
C408 C403 1.363 . S
C408 C407 1.415 . S
C409 H385 0.951 1_545 S
C409 C410 1.366 . S
C409 C411 1.388 1_545 S
C410 C409 1.366 . S
C410 C414 1.385 . S
C411 H386 0.951 . S
C411 C409 1.388 1_565 S
C411 C412 1.366 1_565 S
C412 C411 1.366 1_545 S
C412 C413 1.414 . S
C412 C415 1.499 . S
C413 H387 0.950 . S
C413 C412 1.414 . S
C413 C414 1.374 . S
C414 H388 0.950 . S
C414 C410 1.385 . S
C414 C413 1.374 . S
C415 C412 1.499 . S
C415 C416 1.373 . S
C415 C417 1.389 1_545 S
C416 H389 0.950 . S
C416 C402 1.377 1_554 S
C416 C415 1.373 . S
C417 C401 1.377 1_554 S
C417 C415 1.389 1_565 S
C417 C418 1.524 . S
C418 C417 1.524 . S
C418 C419 1.397 . S
C418 C423 1.363 . S
C419 H390 0.950 . S
C419 C418 1.397 . S
C419 C420 1.334 . S
C420 H391 0.950 . S
C420 C419 1.334 . S
C420 C421 1.287 . S
C421 C420 1.287 . S
C421 C422 1.524 . S
C421 H424 0.999 . S
C422 H392 0.950 . S
C422 C421 1.524 . S
C422 C423 1.415 . S
C423 H393 0.950 . S
C423 C418 1.363 . S
C423 C422 1.415 . S
H424 C421 0.999 . S
H425 C406 0.913 . S
H426 C444 0.951 . S
H427 C446 0.951 . S
H428 C448 0.950 . S
H429 C449 0.950 . S
H430 C451 0.950 . S
H431 C454 0.950 . S
H432 C455 0.950 . S
H433 C457 0.950 . S
H434 C458 0.950 . S
H435 C459 0.951 . S
H436 C461 0.951 . S
H437 C463 0.950 . S
H438 C464 0.950 . S
H439 C466 0.950 . S
H440 C469 0.950 . S
H441 C470 0.950 . S
H442 C472 0.950 . S
H443 C473 0.950 . S
C444 H426 0.951 . S
C444 C445 1.366 . S
C444 C446 1.388 . S
C445 C444 1.366 . S
C445 C449 1.385 . S
C446 H427 0.951 . S
C446 C444 1.388 . S
C446 C447 1.366 . S
C447 C446 1.366 . S
C447 C448 1.414 . S
C447 C450 1.499 . S
C448 H428 0.950 . S
C448 C447 1.414 . S
C448 C449 1.374 . S
C449 H429 0.950 . S
C449 C445 1.385 . S
C449 C448 1.374 . S
C450 C447 1.499 . S
C450 C451 1.373 . S
C450 C452 1.389 . S
C451 H430 0.950 . S
C451 C450 1.373 . S
C451 C467 1.377 . S
C452 C450 1.389 . S
C452 C453 1.524 . S
C452 C466 1.377 . S
C453 C452 1.524 . S
C453 C454 1.397 . S
C453 C458 1.363 . S
C454 H431 0.950 . S
C454 C453 1.397 . S
C454 C455 1.334 . S
C455 H432 0.950 . S
C455 C454 1.334 . S
C455 C456 1.287 . S
C456 C455 1.287 . S
C456 C457 1.524 . S
C456 H475 0.913 . S
C457 H433 0.950 . S
C457 C456 1.524 . S
C457 C458 1.415 . S
C458 H434 0.950 . S
C458 C453 1.363 . S
C458 C457 1.415 . S
C459 H435 0.951 . S
C459 C460 1.366 . S
C459 C461 1.388 . S
C460 C459 1.366 . S
C460 C464 1.385 . S
C461 H436 0.951 . S
C461 C459 1.388 . S
C461 C462 1.366 . S
C462 C461 1.366 . S
C462 C463 1.414 . S
C462 C465 1.499 . S
C463 H437 0.950 . S
C463 C462 1.414 . S
C463 C464 1.374 . S
C464 H438 0.950 . S
C464 C460 1.385 . S
C464 C463 1.374 . S
C465 C462 1.499 . S
C465 C466 1.373 . S
C465 C467 1.389 . S
C466 H439 0.950 . S
C466 C452 1.377 . S
C466 C465 1.373 . S
C467 C451 1.377 . S
C467 C465 1.389 . S
C467 C468 1.524 . S
C468 C467 1.524 . S
C468 C469 1.397 . S
C468 C473 1.363 . S
C469 H440 0.950 . S
C469 C468 1.397 . S
C469 C470 1.334 . S
C470 H441 0.950 . S
C470 C469 1.334 . S
C470 C471 1.287 . S
C471 C470 1.287 . S
C471 C472 1.524 . S
C471 H474 0.999 . S
C472 H442 0.950 . S
C472 C471 1.524 . S
C472 C473 1.415 . S
C473 H443 0.950 . S
C473 C468 1.363 . S
C473 C472 1.415 . S
H474 C471 0.999 . S
H475 C456 0.913 . S
H476 C494 0.951 1_455 S
H477 C496 0.939 1_455 S
H478 C498 0.950 . S
H479 C499 0.950 . S
H480 C501 0.950 . S
H481 C504 0.950 . S
H482 C505 0.950 . S
H483 C507 0.950 . S
H484 C508 0.950 . S
H485 C509 0.951 1_655 S
H486 C511 0.939 1_655 S
H487 C513 0.950 . S
H488 C514 0.950 . S
H489 C516 0.950 . S
H490 C519 0.950 . S
H491 C520 0.950 . S
H492 C522 0.950 . S
H493 C523 0.950 . S
C494 H476 0.951 1_655 S
C494 C495 1.366 . S
C494 C496 1.391 . S
C495 C494 1.366 . S
C495 C499 1.385 . S
C496 H477 0.939 1_655 S
C496 C494 1.391 . S
C496 C497 1.375 . S
C497 C496 1.375 . S
C497 C498 1.414 . S
C497 C500 1.499 . S
C498 H478 0.950 . S
C498 C497 1.414 . S
C498 C499 1.374 . S
C499 H479 0.950 . S
C499 C495 1.385 . S
C499 C498 1.374 . S
C500 C497 1.499 . S
C500 C501 1.373 . S
C500 C502 1.389 1_655 S
C501 H480 0.950 . S
C501 C500 1.373 . S
C501 C517 1.377 . S
C502 C500 1.389 1_455 S
C502 C503 1.524 . S
C502 C516 1.377 . S
C503 C502 1.524 . S
C503 C504 1.397 . S
C503 C508 1.363 . S
C504 H481 0.950 . S
C504 C503 1.397 . S
C504 C505 1.334 . S
C505 H482 0.950 . S
C505 C504 1.334 . S
C505 C506 1.287 . S
C506 C505 1.287 . S
C506 C507 1.524 . S
C506 H525 0.913 . S
C507 H483 0.950 . S
C507 C506 1.524 . S
C507 C508 1.415 . S
C508 H484 0.950 . S
C508 C503 1.363 . S
C508 C507 1.415 . S
C509 H485 0.951 1_455 S
C509 C510 1.366 . S
C509 C511 1.391 . S
C510 C509 1.366 . S
C510 C514 1.385 . S
C511 H486 0.939 1_455 S
C511 C509 1.391 . S
C511 C512 1.375 . S
C512 C511 1.375 . S
C512 C513 1.414 . S
C512 C515 1.499 . S
C513 H487 0.950 . S
C513 C512 1.414 . S
C513 C514 1.374 . S
C514 H488 0.950 . S
C514 C510 1.385 . S
C514 C513 1.374 . S
C515 C512 1.499 . S
C515 C516 1.373 . S
C515 C517 1.389 1_455 S
C516 H489 0.950 . S
C516 C502 1.377 . S
C516 C515 1.373 . S
C517 C501 1.377 . S
C517 C515 1.389 1_655 S
C517 C518 1.524 . S
C518 C517 1.524 . S
C518 C519 1.397 . S
C518 C523 1.363 . S
C519 H490 0.950 . S
C519 C518 1.397 . S
C519 C520 1.334 . S
C520 H491 0.950 . S
C520 C519 1.334 . S
C520 C521 1.287 . S
C521 C520 1.287 . S
C521 C522 1.524 . S
C521 H524 0.999 . S
C522 H492 0.950 . S
C522 C521 1.524 . S
C522 C523 1.415 . S
C523 H493 0.950 . S
C523 C518 1.363 . S
C523 C522 1.415 . S
H524 C521 0.999 . S
H525 C506 0.913 . S
H526 C544 0.951 1_545 S
H527 C546 0.951 . S
H528 C548 0.950 . S
H529 C549 0.950 . S
H530 C551 0.950 . S
H531 C554 0.950 . S
H532 C555 0.950 . S
H533 C557 0.950 . S
H534 C558 0.950 . S
H535 C559 0.951 1_565 S
H536 C561 0.951 . S
H537 C563 0.950 . S
H538 C564 0.950 . S
H539 C566 0.950 . S
H540 C569 0.950 . S
H541 C570 0.950 . S
H542 C572 0.950 . S
H543 C573 0.950 . S
C544 H526 0.951 1_565 S
C544 C545 1.366 . S
C544 C546 1.388 1_565 S
C545 C544 1.366 . S
C545 C549 1.385 . S
C546 H527 0.951 . S
C546 C544 1.388 1_545 S
C546 C547 1.366 1_545 S
C547 C546 1.366 1_565 S
C547 C548 1.414 . S
C547 C550 1.499 . S
C548 H528 0.950 . S
C548 C547 1.414 . S
C548 C549 1.374 . S
C549 H529 0.950 . S
C549 C545 1.385 . S
C549 C548 1.374 . S
C550 C547 1.499 . S
C550 C551 1.373 . S
C550 C552 1.389 1_565 S
C551 H530 0.950 . S
C551 C550 1.373 . S
C551 C567 1.377 1_554 S
C552 C550 1.389 1_545 S
C552 C553 1.524 . S
C552 C566 1.377 1_554 S
C553 C552 1.524 . S
C553 C554 1.397 . S
C553 C558 1.363 . S
C554 H531 0.950 . S
C554 C553 1.397 . S
C554 C555 1.334 . S
C555 H532 0.950 . S
C555 C554 1.334 . S
C555 C556 1.287 . S
C556 C555 1.287 . S
C556 C557 1.524 . S
C556 H575 0.913 . S
C557 H533 0.950 . S
C557 C556 1.524 . S
C557 C558 1.415 . S
C558 H534 0.950 . S
C558 C553 1.363 . S
C558 C557 1.415 . S
C559 H535 0.951 1_545 S
C559 C560 1.366 . S
C559 C561 1.388 1_545 S
C560 C559 1.366 . S
C560 C564 1.385 . S
C561 H536 0.951 . S
C561 C559 1.388 1_565 S
C561 C562 1.366 1_565 S
C562 C561 1.366 1_545 S
C562 C563 1.414 . S
C562 C565 1.499 . S
C563 H537 0.950 . S
C563 C562 1.414 . S
C563 C564 1.374 . S
C564 H538 0.950 . S
C564 C560 1.385 . S
C564 C563 1.374 . S
C565 C562 1.499 . S
C565 C566 1.373 . S
C565 C567 1.389 1_545 S
C566 H539 0.950 . S
C566 C552 1.377 1_556 S
C566 C565 1.373 . S
C567 C551 1.377 1_556 S
C567 C565 1.389 1_565 S
C567 C568 1.524 . S
C568 C567 1.524 . S
C568 C569 1.397 . S
C568 C573 1.363 . S
C569 H540 0.950 . S
C569 C568 1.397 . S
C569 C570 1.334 . S
C570 H541 0.950 . S
C570 C569 1.334 . S
C570 C571 1.287 . S
C571 C570 1.287 . S
C571 C572 1.524 . S
C571 H574 0.999 . S
C572 H542 0.950 . S
C572 C571 1.524 . S
C572 C573 1.415 . S
C573 H543 0.950 . S
C573 C568 1.363 . S
C573 C572 1.415 . S
H574 C571 0.999 . S
H575 C556 0.913 . S
H576 C594 0.951 . S
H577 C596 0.951 . S
H578 C598 0.940 1_554 S
H579 C599 0.950 1_554 S
H580 C601 0.950 . S
H581 C604 0.950 . S
H582 C605 0.950 . S
H583 C607 0.950 . S
H584 C608 0.950 . S
H585 C609 0.951 . S
H586 C611 0.951 . S
H587 C613 0.941 1_556 S
H588 C614 0.950 1_556 S
H589 C616 0.950 . S
H590 C619 0.950 . S
H591 C620 0.950 . S
H592 C622 0.950 . S
H593 C623 0.950 . S
C594 H576 0.951 . S
C594 C595 1.366 . S
C594 C596 1.388 . S
C595 C594 1.366 . S
C595 C599 1.385 . S
C596 H577 0.951 . S
C596 C594 1.388 . S
C596 C597 1.366 . S
C597 C596 1.366 . S
C597 C598 1.421 . S
C597 C600 1.499 . S
C598 H578 0.940 1_556 S
C598 C597 1.421 . S
C598 C599 1.377 . S
C599 H579 0.950 1_556 S
C599 C595 1.385 . S
C599 C598 1.377 . S
C600 C597 1.499 . S
C600 C601 1.373 1_556 S
C600 C602 1.389 . S
C601 H580 0.950 . S
C601 C600 1.373 1_554 S
C601 C617 1.377 . S
C602 C600 1.389 . S
C602 C603 1.524 . S
C602 C616 1.377 . S
C603 C602 1.524 . S
C603 C604 1.397 . S
C603 C608 1.363 . S
C604 H581 0.950 . S
C604 C603 1.397 . S
C604 C605 1.334 . S
C605 H582 0.950 . S
C605 C604 1.334 . S
C605 C606 1.287 . S
C606 C605 1.287 . S
C606 C607 1.524 . S
C606 H625 0.913 . S
C607 H583 0.950 . S
C607 C606 1.524 . S
C607 C608 1.415 . S
C608 H584 0.950 . S
C608 C603 1.363 . S
C608 C607 1.415 . S
C609 H585 0.951 . S
C609 C610 1.366 . S
C609 C611 1.388 . S
C610 C609 1.366 . S
C610 C614 1.385 . S
C611 H586 0.951 . S
C611 C609 1.388 . S
C611 C612 1.366 . S
C612 C611 1.366 . S
C612 C613 1.420 . S
C612 C615 1.499 . S
C613 H587 0.941 1_554 S
C613 C612 1.420 . S
C613 C614 1.377 . S
C614 H588 0.950 1_554 S
C614 C610 1.385 . S
C614 C613 1.377 . S
C615 C612 1.499 . S
C615 C616 1.373 1_554 S
C615 C617 1.389 . S
C616 H589 0.950 . S
C616 C602 1.377 . S
C616 C615 1.373 1_556 S
C617 C601 1.377 . S
C617 C615 1.389 . S
C617 C618 1.524 . S
C618 C617 1.524 . S
C618 C619 1.397 . S
C618 C623 1.363 . S
C619 H590 0.950 . S
C619 C618 1.397 . S
C619 C620 1.334 . S
C620 H591 0.950 . S
C620 C619 1.334 . S
C620 C621 1.287 . S
C621 C620 1.287 . S
C621 C622 1.524 . S
C621 H624 0.999 . S
C622 H592 0.950 . S
C622 C621 1.524 . S
C622 C623 1.415 . S
C623 H593 0.950 . S
C623 C618 1.363 . S
C623 C622 1.415 . S
H624 C621 0.999 . S
H625 C606 0.913 . S
H626 C644 0.951 . S
H627 C646 0.951 . S
H628 C648 0.950 . S
H629 C649 0.950 . S
H630 C651 0.950 . S
H631 C654 0.950 . S
H632 C655 0.950 . S
H633 C657 0.950 . S
H634 C658 0.950 . S
H635 C659 0.951 . S
H636 C661 0.951 . S
H637 C663 0.950 . S
H638 C664 0.950 . S
H639 C666 0.950 . S
H640 C669 0.950 . S
H641 C670 0.950 . S
H642 C672 0.950 . S
H643 C673 0.950 . S
C644 H626 0.951 . S
C644 C645 1.366 . S
C644 C646 1.388 . S
C645 C644 1.366 . S
C645 C649 1.385 . S
C646 H627 0.951 . S
C646 C644 1.388 . S
C646 C647 1.366 . S
C647 C646 1.366 . S
C647 C648 1.414 . S
C647 C650 1.499 . S
C648 H628 0.950 . S
C648 C647 1.414 . S
C648 C649 1.374 . S
C649 H629 0.950 . S
C649 C645 1.385 . S
C649 C648 1.374 . S
C650 C647 1.499 . S
C650 C651 1.373 . S
C650 C652 1.389 . S
C651 H630 0.950 . S
C651 C650 1.373 . S
C651 C667 1.377 . S
C652 C650 1.389 . S
C652 C653 1.524 . S
C652 C666 1.377 . S
C653 C652 1.524 . S
C653 C654 1.397 . S
C653 C658 1.363 . S
C654 H631 0.950 . S
C654 C653 1.397 . S
C654 C655 1.334 . S
C655 H632 0.950 . S
C655 C654 1.334 . S
C655 C656 1.287 . S
C656 C655 1.287 . S
C656 C657 1.524 . S
C656 H675 0.913 . S
C657 H633 0.950 . S
C657 C656 1.524 . S
C657 C658 1.415 . S
C658 H634 0.950 . S
C658 C653 1.363 . S
C658 C657 1.415 . S
C659 H635 0.951 . S
C659 C660 1.366 . S
C659 C661 1.388 . S
C660 C659 1.366 . S
C660 C664 1.385 . S
C661 H636 0.951 . S
C661 C659 1.388 . S
C661 C662 1.366 . S
C662 C661 1.366 . S
C662 C663 1.414 . S
C662 C665 1.499 . S
C663 H637 0.950 . S
C663 C662 1.414 . S
C663 C664 1.374 . S
C664 H638 0.950 . S
C664 C660 1.385 . S
C664 C663 1.374 . S
C665 C662 1.499 . S
C665 C666 1.373 . S
C665 C667 1.389 . S
C666 H639 0.950 . S
C666 C652 1.377 . S
C666 C665 1.373 . S
C667 C651 1.377 . S
C667 C665 1.389 . S
C667 C668 1.524 . S
C668 C667 1.524 . S
C668 C669 1.397 . S
C668 C673 1.363 . S
C669 H640 0.950 . S
C669 C668 1.397 . S
C669 C670 1.334 . S
C670 H641 0.950 . S
C670 C669 1.334 . S
C670 C671 1.287 . S
C671 C670 1.287 . S
C671 C672 1.524 . S
C671 H674 0.999 . S
C672 H642 0.950 . S
C672 C671 1.524 . S
C672 C673 1.415 . S
C673 H643 0.950 . S
C673 C668 1.363 . S
C673 C672 1.415 . S
H674 C671 0.999 . S
H675 C656 0.913 . S
H676 C694 0.951 . S
H677 C696 0.951 . S
H678 C698 0.950 . S
H679 C699 0.950 . S
H680 C701 0.950 . S
H681 C704 0.950 . S
H682 C705 0.950 . S
H683 C707 0.950 . S
H684 C708 0.950 . S
H685 C709 0.951 . S
H686 C711 0.951 . S
H687 C713 0.950 . S
H688 C714 0.950 . S
H689 C716 0.950 . S
H690 C719 0.950 . S
H691 C720 0.950 . S
H692 C722 0.950 . S
H693 C723 0.950 . S
C694 H676 0.951 . S
C694 C695 1.366 . S
C694 C696 1.388 . S
C695 C694 1.366 . S
C695 C699 1.385 . S
C696 H677 0.951 . S
C696 C694 1.388 . S
C696 C697 1.366 . S
C697 C696 1.366 . S
C697 C698 1.414 . S
C697 C700 1.499 . S
C698 H678 0.950 . S
C698 C697 1.414 . S
C698 C699 1.374 . S
C699 H679 0.950 . S
C699 C695 1.385 . S
C699 C698 1.374 . S
C700 C697 1.499 . S
C700 C701 1.373 . S
C700 C702 1.389 . S
C701 H680 0.950 . S
C701 C700 1.373 . S
C701 C717 1.377 . S
C702 C700 1.389 . S
C702 C703 1.524 . S
C702 C716 1.377 . S
C703 C702 1.524 . S
C703 C704 1.397 . S
C703 C708 1.363 . S
C704 H681 0.950 . S
C704 C703 1.397 . S
C704 C705 1.334 . S
C705 H682 0.950 . S
C705 C704 1.334 . S
C705 C706 1.287 . S
C706 C705 1.287 . S
C706 C707 1.524 . S
C706 H725 0.913 . S
C707 H683 0.950 . S
C707 C706 1.524 . S
C707 C708 1.415 . S
C708 H684 0.950 . S
C708 C703 1.363 . S
C708 C707 1.415 . S
C709 H685 0.951 . S
C709 C710 1.366 . S
C709 C711 1.388 . S
C710 C709 1.366 . S
C710 C714 1.385 . S
C711 H686 0.951 . S
C711 C709 1.388 . S
C711 C712 1.366 . S
C712 C711 1.366 . S
C712 C713 1.414 . S
C712 C715 1.499 . S
C713 H687 0.950 . S
C713 C712 1.414 . S
C713 C714 1.374 . S
C714 H688 0.950 . S
C714 C710 1.385 . S
C714 C713 1.374 . S
C715 C712 1.499 . S
C715 C716 1.373 . S
C715 C717 1.389 . S
C716 H689 0.950 . S
C716 C702 1.377 . S
C716 C715 1.373 . S
C717 C701 1.377 . S
C717 C715 1.389 . S
C717 C718 1.524 . S
C718 C717 1.524 . S
C718 C719 1.397 . S
C718 C723 1.363 . S
C719 H690 0.950 . S
C719 C718 1.397 . S
C719 C720 1.334 . S
C720 H691 0.950 . S
C720 C719 1.334 . S
C720 C721 1.287 . S
C721 C720 1.287 . S
C721 C722 1.524 . S
C721 H724 0.999 . S
C722 H692 0.950 . S
C722 C721 1.524 . S
C722 C723 1.415 . S
C723 H693 0.950 . S
C723 C718 1.363 . S
C723 C722 1.415 . S
H724 C721 0.999 . S
H725 C706 0.913 . S
H726 C744 0.951 1_556 S
H727 C746 0.953 . S
H728 C748 0.950 . S
H729 C749 0.950 . S
H730 C751 0.950 . S
H731 C754 0.950 . S
H732 C755 0.950 . S
H733 C757 0.950 . S
H734 C758 0.950 . S
H735 C759 0.951 1_554 S
H736 C761 0.952 . S
H737 C763 0.950 . S
H738 C764 0.950 . S
H739 C766 0.950 . S
H740 C769 0.950 . S
H741 C770 0.950 . S
H742 C772 0.950 . S
H743 C773 0.950 . S
C744 H726 0.951 1_554 S
C744 C745 1.366 . S
C744 C746 1.387 1_554 S
C745 C744 1.366 . S
C745 C749 1.385 . S
C746 H727 0.953 . S
C746 C744 1.387 1_556 S
C746 C747 1.364 1_556 S
C747 C746 1.364 1_554 S
C747 C748 1.414 . S
C747 C750 1.499 . S
C748 H728 0.950 . S
C748 C747 1.414 . S
C748 C749 1.374 . S
C749 H729 0.950 . S
C749 C745 1.385 . S
C749 C748 1.374 . S
C750 C747 1.499 . S
C750 C751 1.373 . S
C750 C752 1.389 1_554 S
C751 H730 0.950 . S
C751 C750 1.373 . S
C751 C767 1.377 . S
C752 C750 1.389 1_556 S
C752 C753 1.524 . S
C752 C766 1.377 . S
C753 C752 1.524 . S
C753 C754 1.397 . S
C753 C758 1.363 . S
C754 H731 0.950 . S
C754 C753 1.397 . S
C754 C755 1.334 . S
C755 H732 0.950 . S
C755 C754 1.334 . S
C755 C756 1.287 . S
C756 C755 1.287 . S
C756 C757 1.524 . S
C756 H775 0.913 . S
C757 H733 0.950 . S
C757 C756 1.524 . S
C757 C758 1.415 . S
C758 H734 0.950 . S
C758 C753 1.363 . S
C758 C757 1.415 . S
C759 H735 0.951 1_556 S
C759 C760 1.366 . S
C759 C761 1.387 1_556 S
C760 C759 1.366 . S
C760 C764 1.385 . S
C761 H736 0.952 . S
C761 C759 1.387 1_554 S
C761 C762 1.365 1_554 S
C762 C761 1.365 1_556 S
C762 C763 1.414 . S
C762 C765 1.499 . S
C763 H737 0.950 . S
C763 C762 1.414 . S
C763 C764 1.374 . S
C764 H738 0.950 . S
C764 C760 1.385 . S
C764 C763 1.374 . S
C765 C762 1.499 . S
C765 C766 1.373 . S
C765 C767 1.389 1_556 S
C766 H739 0.950 . S
C766 C752 1.377 . S
C766 C765 1.373 . S
C767 C751 1.377 . S
C767 C765 1.389 1_554 S
C767 C768 1.524 . S
C768 C767 1.524 . S
C768 C769 1.397 . S
C768 C773 1.363 . S
C769 H740 0.950 . S
C769 C768 1.397 . S
C769 C770 1.334 . S
C770 H741 0.950 . S
C770 C769 1.334 . S
C770 C771 1.287 . S
C771 C770 1.287 . S
C771 C772 1.524 . S
C771 H774 0.999 . S
C772 H742 0.950 . S
C772 C771 1.524 . S
C772 C773 1.415 . S
C773 H743 0.950 . S
C773 C768 1.363 . S
C773 C772 1.415 . S
H774 C771 0.999 . S
H775 C756 0.913 . S
H776 C794 0.951 . S
H777 C796 0.951 . S
H778 C798 0.950 . S
H779 C799 0.950 . S
H780 C801 0.950 . S
H781 C804 0.950 . S
H782 C805 0.950 . S
H783 C807 0.950 . S
H784 C808 0.950 . S
H785 C809 0.951 . S
H786 C811 0.951 . S
H787 C813 0.950 . S
H788 C814 0.950 . S
H789 C816 0.950 . S
H790 C819 0.950 . S
H791 C820 0.950 . S
H792 C822 0.950 . S
H793 C823 0.950 . S
C794 H776 0.951 . S
C794 C795 1.366 . S
C794 C796 1.388 . S
C795 C794 1.366 . S
C795 C799 1.385 . S
C796 H777 0.951 . S
C796 C794 1.388 . S
C796 C797 1.366 . S
C797 C796 1.366 . S
C797 C798 1.414 . S
C797 C800 1.499 . S
C798 H778 0.950 . S
C798 C797 1.414 . S
C798 C799 1.374 . S
C799 H779 0.950 . S
C799 C795 1.385 . S
C799 C798 1.374 . S
C800 C797 1.499 . S
C800 C801 1.373 . S
C800 C802 1.389 . S
C801 H780 0.950 . S
C801 C800 1.373 . S
C801 C817 1.377 . S
C802 C800 1.389 . S
C802 C803 1.524 . S
C802 C816 1.377 . S
C803 C802 1.524 . S
C803 C804 1.397 . S
C803 C808 1.363 . S
C804 H781 0.950 . S
C804 C803 1.397 . S
C804 C805 1.334 . S
C805 H782 0.950 . S
C805 C804 1.334 . S
C805 C806 1.287 . S
C806 C805 1.287 . S
C806 C807 1.524 . S
C806 H825 0.913 . S
C807 H783 0.950 . S
C807 C806 1.524 . S
C807 C808 1.415 . S
C808 H784 0.950 . S
C808 C803 1.363 . S
C808 C807 1.415 . S
C809 H785 0.951 . S
C809 C810 1.366 . S
C809 C811 1.388 . S
C810 C809 1.366 . S
C810 C814 1.385 . S
C811 H786 0.951 . S
C811 C809 1.388 . S
C811 C812 1.366 . S
C812 C811 1.366 . S
C812 C813 1.414 . S
C812 C815 1.499 . S
C813 H787 0.950 . S
C813 C812 1.414 . S
C813 C814 1.374 . S
C814 H788 0.950 . S
C814 C810 1.385 . S
C814 C813 1.374 . S
C815 C812 1.499 . S
C815 C816 1.373 . S
C815 C817 1.389 . S
C816 H789 0.950 . S
C816 C802 1.377 . S
C816 C815 1.373 . S
C817 C801 1.377 . S
C817 C815 1.389 . S
C817 C818 1.524 . S
C818 C817 1.524 . S
C818 C819 1.397 . S
C818 C823 1.363 . S
C819 H790 0.950 . S
C819 C818 1.397 . S
C819 C820 1.334 . S
C820 H791 0.950 . S
C820 C819 1.334 . S
C820 C821 1.287 . S
C821 C820 1.287 . S
C821 C822 1.524 . S
C821 H824 0.999 . S
C822 H792 0.950 . S
C822 C821 1.524 . S
C822 C823 1.415 . S
C823 H793 0.950 . S
C823 C818 1.363 . S
C823 C822 1.415 . S
H824 C821 0.999 . S
H825 C806 0.913 . S
H826 C844 0.951 . S
H827 C846 0.951 . S
H828 C848 0.950 . S
H829 C849 0.950 . S
H830 C851 0.950 . S
H831 C854 0.950 . S
H832 C855 0.950 . S
H833 C857 0.950 . S
H834 C858 0.950 . S
H835 C859 0.951 . S
H836 C861 0.951 . S
H837 C863 0.950 . S
H838 C864 0.950 . S
H839 C866 0.950 . S
H840 C869 0.950 . S
H841 C870 0.950 . S
H842 C872 0.950 . S
H843 C873 0.950 . S
C844 H826 0.951 . S
C844 C845 1.366 . S
C844 C846 1.388 . S
C845 C844 1.366 . S
C845 C849 1.385 . S
C846 H827 0.951 . S
C846 C844 1.388 . S
C846 C847 1.366 . S
C847 C846 1.366 . S
C847 C848 1.414 . S
C847 C850 1.499 . S
C848 H828 0.950 . S
C848 C847 1.414 . S
C848 C849 1.374 . S
C849 H829 0.950 . S
C849 C845 1.385 . S
C849 C848 1.374 . S
C850 C847 1.499 . S
C850 C851 1.373 . S
C850 C852 1.389 . S
C851 H830 0.950 . S
C851 C850 1.373 . S
C851 C867 1.377 . S
C852 C850 1.389 . S
C852 C853 1.524 . S
C852 C866 1.377 . S
C853 C852 1.524 . S
C853 C854 1.397 . S
C853 C858 1.363 . S
C854 H831 0.950 . S
C854 C853 1.397 . S
C854 C855 1.334 . S
C855 H832 0.950 . S
C855 C854 1.334 . S
C855 C856 1.287 . S
C856 C855 1.287 . S
C856 C857 1.524 . S
C856 H875 0.913 . S
C857 H833 0.950 . S
C857 C856 1.524 . S
C857 C858 1.415 . S
C858 H834 0.950 . S
C858 C853 1.363 . S
C858 C857 1.415 . S
C859 H835 0.951 . S
C859 C860 1.366 . S
C859 C861 1.388 . S
C860 C859 1.366 . S
C860 C864 1.385 . S
C861 H836 0.951 . S
C861 C859 1.388 . S
C861 C862 1.366 . S
C862 C861 1.366 . S
C862 C863 1.414 . S
C862 C865 1.499 . S
C863 H837 0.950 . S
C863 C862 1.414 . S
C863 C864 1.374 . S
C864 H838 0.950 . S
C864 C860 1.385 . S
C864 C863 1.374 . S
C865 C862 1.499 . S
C865 C866 1.373 . S
C865 C867 1.389 . S
C866 H839 0.950 . S
C866 C852 1.377 . S
C866 C865 1.373 . S
C867 C851 1.377 . S
C867 C865 1.389 . S
C867 C868 1.524 . S
C868 C867 1.524 . S
C868 C869 1.397 . S
C868 C873 1.363 . S
C869 H840 0.950 . S
C869 C868 1.397 . S
C869 C870 1.334 . S
C870 H841 0.950 . S
C870 C869 1.334 . S
C870 C871 1.287 . S
C871 C870 1.287 . S
C871 C872 1.524 . S
C871 H874 0.999 . S
C872 H842 0.950 . S
C872 C871 1.524 . S
C872 C873 1.415 . S
C873 H843 0.950 . S
C873 C868 1.363 . S
C873 C872 1.415 . S
H874 C871 0.999 . S
H875 C856 0.913 . S
H876 C894 0.951 . S
H877 C896 0.951 . S
H878 C898 0.950 . S
H879 C899 0.950 . S
H880 C901 0.950 . S
H881 C904 0.950 . S
H882 C905 0.950 . S
H883 C907 0.950 . S
H884 C908 0.950 . S
H885 C909 0.951 . S
H886 C911 0.951 . S
H887 C913 0.950 . S
H888 C914 0.950 . S
H889 C916 0.950 . S
H890 C919 0.950 . S
H891 C920 0.950 . S
H892 C922 0.950 . S
H893 C923 0.950 . S
C894 H876 0.951 . S
C894 C895 1.366 . S
C894 C896 1.388 . S
C895 C894 1.366 . S
C895 C899 1.385 . S
C896 H877 0.951 . S
C896 C894 1.388 . S
C896 C897 1.366 . S
C897 C896 1.366 . S
C897 C898 1.414 . S
C897 C900 1.499 . S
C898 H878 0.950 . S
C898 C897 1.414 . S
C898 C899 1.374 . S
C899 H879 0.950 . S
C899 C895 1.385 . S
C899 C898 1.374 . S
C900 C897 1.499 . S
C900 C901 1.373 . S
C900 C902 1.389 . S
C901 H880 0.950 . S
C901 C900 1.373 . S
C901 C917 1.377 . S
C902 C900 1.389 . S
C902 C903 1.524 . S
C902 C916 1.377 . S
C903 C902 1.524 . S
C903 C904 1.397 . S
C903 C908 1.363 . S
C904 H881 0.950 . S
C904 C903 1.397 . S
C904 C905 1.334 . S
C905 H882 0.950 . S
C905 C904 1.334 . S
C905 C906 1.287 . S
C906 C905 1.287 . S
C906 C907 1.524 . S
C906 H925 0.913 . S
C907 H883 0.950 . S
C907 C906 1.524 . S
C907 C908 1.415 . S
C908 H884 0.950 . S
C908 C903 1.363 . S
C908 C907 1.415 . S
C909 H885 0.951 . S
C909 C910 1.366 . S
C909 C911 1.388 . S
C910 C909 1.366 . S
C910 C914 1.385 . S
C911 H886 0.951 . S
C911 C909 1.388 . S
C911 C912 1.366 . S
C912 C911 1.366 . S
C912 C913 1.414 . S
C912 C915 1.499 . S
C913 H887 0.950 . S
C913 C912 1.414 . S
C913 C914 1.374 . S
C914 H888 0.950 . S
C914 C910 1.385 . S
C914 C913 1.374 . S
C915 C912 1.499 . S
C915 C916 1.373 . S
C915 C917 1.389 . S
C916 H889 0.950 . S
C916 C902 1.377 . S
C916 C915 1.373 . S
C917 C901 1.377 . S
C917 C915 1.389 . S
C917 C918 1.524 . S
C918 C917 1.524 . S
C918 C919 1.397 . S
C918 C923 1.363 . S
C919 H890 0.950 . S
C919 C918 1.397 . S
C919 C920 1.334 . S
C920 H891 0.950 . S
C920 C919 1.334 . S
C920 C921 1.287 . S
C921 C920 1.287 . S
C921 C922 1.524 . S
C921 H924 0.999 . S
C922 H892 0.950 . S
C922 C921 1.524 . S
C922 C923 1.415 . S
C923 H893 0.950 . S
C923 C918 1.363 . S
C923 C922 1.415 . S
H924 C921 0.999 . S
H925 C906 0.913 . S
H926 C944 0.951 . S
H927 C946 0.951 . S
H928 C948 0.950 . S
H929 C949 0.950 . S
H930 C951 0.950 . S
H931 C954 0.950 . S
H932 C955 0.950 . S
H933 C957 0.950 . S
H934 C958 0.950 . S
H935 C959 0.951 . S
H936 C961 0.951 . S
H937 C963 0.950 . S
H938 C964 0.950 . S
H939 C966 0.950 . S
H940 C969 0.950 . S
H941 C970 0.950 . S
H942 C972 0.950 . S
H943 C973 0.950 . S
C944 H926 0.951 . S
C944 C945 1.366 . S
C944 C946 1.388 . S
C945 C944 1.366 . S
C945 C949 1.385 . S
C946 H927 0.951 . S
C946 C944 1.388 . S
C946 C947 1.366 . S
C947 C946 1.366 . S
C947 C948 1.414 . S
C947 C950 1.499 . S
C948 H928 0.950 . S
C948 C947 1.414 . S
C948 C949 1.374 . S
C949 H929 0.950 . S
C949 C945 1.385 . S
C949 C948 1.374 . S
C950 C947 1.499 . S
C950 C951 1.373 1_655 S
C950 C952 1.389 . S
C951 H930 0.950 . S
C951 C950 1.373 1_455 S
C951 C967 1.377 . S
C952 C950 1.389 . S
C952 C953 1.524 . S
C952 C966 1.377 . S
C953 C952 1.524 . S
C953 C954 1.397 . S
C953 C958 1.363 . S
C954 H931 0.950 . S
C954 C953 1.397 . S
C954 C955 1.334 . S
C955 H932 0.950 . S
C955 C954 1.334 . S
C955 C956 1.287 . S
C956 C955 1.287 . S
C956 C957 1.524 . S
C956 H975 0.913 . S
C957 H933 0.950 . S
C957 C956 1.524 . S
C957 C958 1.415 . S
C958 H934 0.950 . S
C958 C953 1.363 . S
C958 C957 1.415 . S
C959 H935 0.951 . S
C959 C960 1.366 . S
C959 C961 1.388 . S
C960 C959 1.366 . S
C960 C964 1.385 . S
C961 H936 0.951 . S
C961 C959 1.388 . S
C961 C962 1.366 . S
C962 C961 1.366 . S
C962 C963 1.414 . S
C962 C965 1.499 . S
C963 H937 0.950 . S
C963 C962 1.414 . S
C963 C964 1.374 . S
C964 H938 0.950 . S
C964 C960 1.385 . S
C964 C963 1.374 . S
C965 C962 1.499 . S
C965 C966 1.373 1_455 S
C965 C967 1.389 . S
C966 H939 0.950 . S
C966 C952 1.377 . S
C966 C965 1.373 1_655 S
C967 C951 1.377 . S
C967 C965 1.389 . S
C967 C968 1.524 . S
C968 C967 1.524 . S
C968 C969 1.397 . S
C968 C973 1.363 . S
C969 H940 0.950 . S
C969 C968 1.397 . S
C969 C970 1.334 . S
C970 H941 0.950 . S
C970 C969 1.334 . S
C970 C971 1.287 . S
C971 C970 1.287 . S
C971 C972 1.524 . S
C971 H974 0.999 . S
C972 H942 0.950 . S
C972 C971 1.524 . S
C972 C973 1.415 . S
C973 H943 0.950 . S
C973 C968 1.363 . S
C973 C972 1.415 . S
H974 C971 0.999 . S
H975 C956 0.913 . S
H976 C994 0.951 1_545 S
H977 C996 0.951 . S
H978 C998 0.950 . S
H979 C999 0.950 . S
H980 C1001 0.950 . S
H981 C1004 0.950 . S
H982 C1005 0.950 . S
H983 C1007 0.950 . S
H984 C1008 0.950 . S
H985 C1009 0.951 1_565 S
H986 C1011 0.951 . S
H987 C1013 0.950 . S
H988 C1014 0.950 . S
H989 C1016 0.950 . S
H990 C1019 0.950 . S
H991 C1020 0.950 . S
H992 C1022 0.950 . S
H993 C1023 0.950 . S
C994 H976 0.951 1_565 S
C994 C995 1.366 . S
C994 C996 1.388 1_565 S
C995 C994 1.366 . S
C995 C999 1.385 . S
C996 H977 0.951 . S
C996 C994 1.388 1_545 S
C996 C997 1.366 1_545 S
C997 C996 1.366 1_565 S
C997 C998 1.414 . S
C997 C1000 1.499 . S
C998 H978 0.950 . S
C998 C997 1.414 . S
C998 C999 1.374 . S
C999 H979 0.950 . S
C999 C995 1.385 . S
C999 C998 1.374 . S
C1000 C997 1.499 . S
C1000 C1001 1.373 . S
C1000 C1002 1.389 1_565 S
C1001 H980 0.950 . S
C1001 C1000 1.373 . S
C1001 C1017 1.377 . S
C1002 C1000 1.389 1_545 S
C1002 C1003 1.524 . S
C1002 C1016 1.377 . S
C1003 C1002 1.524 . S
C1003 C1004 1.397 1_545 S
C1003 C1008 1.363 . S
C1004 H981 0.950 . S
C1004 C1003 1.397 1_565 S
C1004 C1005 1.334 . S
C1005 H982 0.950 . S
C1005 C1004 1.334 . S
C1005 C1006 1.287 1_565 S
C1006 C1005 1.287 1_545 S
C1006 C1007 1.524 . S
C1006 H1025 0.913 . S
C1007 H983 0.950 . S
C1007 C1006 1.524 . S
C1007 C1008 1.415 . S
C1008 H984 0.950 . S
C1008 C1003 1.363 . S
C1008 C1007 1.415 . S
C1009 H985 0.951 1_545 S
C1009 C1010 1.366 . S
C1009 C1011 1.388 1_545 S
C1010 C1009 1.366 . S
C1010 C1014 1.385 . S
C1011 H986 0.951 . S
C1011 C1009 1.388 1_565 S
C1011 C1012 1.366 1_565 S
C1012 C1011 1.366 1_545 S
C1012 C1013 1.414 . S
C1012 C1015 1.499 . S
C1013 H987 0.950 . S
C1013 C1012 1.414 . S
C1013 C1014 1.374 . S
C1014 H988 0.950 . S
C1014 C1010 1.385 . S
C1014 C1013 1.374 . S
C1015 C1012 1.499 . S
C1015 C1016 1.373 . S
C1015 C1017 1.389 1_545 S
C1016 H989 0.950 . S
C1016 C1002 1.377 . S
C1016 C1015 1.373 . S
C1017 C1001 1.377 . S
C1017 C1015 1.389 1_565 S
C1017 C1018 1.524 . S
C1018 C1017 1.524 . S
C1018 C1019 1.397 1_565 S
C1018 C1023 1.363 . S
C1019 H990 0.950 . S
C1019 C1018 1.397 1_545 S
C1019 C1020 1.334 . S
C1020 H991 0.950 . S
C1020 C1019 1.334 . S
C1020 C1021 1.287 1_545 S
C1021 C1020 1.287 1_565 S
C1021 C1022 1.524 . S
C1021 H1024 0.999 . S
C1022 H992 0.950 . S
C1022 C1021 1.524 . S
C1022 C1023 1.415 . S
C1023 H993 0.950 . S
C1023 C1018 1.363 . S
C1023 C1022 1.415 . S
H1024 C1021 0.999 . S
H1025 C1006 0.913 . S
H1026 C1044 0.951 . S
H1027 C1046 0.951 . S
H1028 C1048 0.950 . S
H1029 C1049 0.950 . S
H1030 C1051 0.950 . S
H1031 C1054 0.950 . S
H1032 C1055 0.950 . S
H1033 C1057 0.950 . S
H1034 C1058 0.950 . S
H1035 C1059 0.951 . S
H1036 C1061 0.951 . S
H1037 C1063 0.950 . S
H1038 C1064 0.950 . S
H1039 C1066 0.950 . S
H1040 C1069 0.950 . S
H1041 C1070 0.950 . S
H1042 C1072 0.950 . S
H1043 C1073 0.950 . S
C1044 H1026 0.951 . S
C1044 C1045 1.366 . S
C1044 C1046 1.388 . S
C1045 C1044 1.366 . S
C1045 C1049 1.385 . S
C1046 H1027 0.951 . S
C1046 C1044 1.388 . S
C1046 C1047 1.366 . S
C1047 C1046 1.366 . S
C1047 C1048 1.414 . S
C1047 C1050 1.499 . S
C1048 H1028 0.950 . S
C1048 C1047 1.414 . S
C1048 C1049 1.374 . S
C1049 H1029 0.950 . S
C1049 C1045 1.385 . S
C1049 C1048 1.374 . S
C1050 C1047 1.499 . S
C1050 C1051 1.373 . S
C1050 C1052 1.389 . S
C1051 H1030 0.950 . S
C1051 C1050 1.373 . S
C1051 C1067 1.377 . S
C1052 C1050 1.389 . S
C1052 C1053 1.524 . S
C1052 C1066 1.377 . S
C1053 C1052 1.524 . S
C1053 C1054 1.397 . S
C1053 C1058 1.363 . S
C1054 H1031 0.950 . S
C1054 C1053 1.397 . S
C1054 C1055 1.334 . S
C1055 H1032 0.950 . S
C1055 C1054 1.334 . S
C1055 C1056 1.287 . S
C1056 C1055 1.287 . S
C1056 C1057 1.524 . S
C1056 H1075 0.913 . S
C1057 H1033 0.950 . S
C1057 C1056 1.524 . S
C1057 C1058 1.415 . S
C1058 H1034 0.950 . S
C1058 C1053 1.363 . S
C1058 C1057 1.415 . S
C1059 H1035 0.951 . S
C1059 C1060 1.366 . S
C1059 C1061 1.388 . S
C1060 C1059 1.366 . S
C1060 C1064 1.385 . S
C1061 H1036 0.951 . S
C1061 C1059 1.388 . S
C1061 C1062 1.366 . S
C1062 C1061 1.366 . S
C1062 C1063 1.414 . S
C1062 C1065 1.499 . S
C1063 H1037 0.950 . S
C1063 C1062 1.414 . S
C1063 C1064 1.374 . S
C1064 H1038 0.950 . S
C1064 C1060 1.385 . S
C1064 C1063 1.374 . S
C1065 C1062 1.499 . S
C1065 C1066 1.373 . S
C1065 C1067 1.389 . S
C1066 H1039 0.950 . S
C1066 C1052 1.377 . S
C1066 C1065 1.373 . S
C1067 C1051 1.377 . S
C1067 C1065 1.389 . S
C1067 C1068 1.524 . S
C1068 C1067 1.524 . S
C1068 C1069 1.397 . S
C1068 C1073 1.363 . S
C1069 H1040 0.950 . S
C1069 C1068 1.397 . S
C1069 C1070 1.334 . S
C1070 H1041 0.950 . S
C1070 C1069 1.334 . S
C1070 C1071 1.287 . S
C1071 C1070 1.287 . S
C1071 C1072 1.524 . S
C1071 H1074 0.999 . S
C1072 H1042 0.950 . S
C1072 C1071 1.524 . S
C1072 C1073 1.415 . S
C1073 H1043 0.950 . S
C1073 C1068 1.363 . S
C1073 C1072 1.415 . S
H1074 C1071 0.999 . S
H1075 C1056 0.913 . S
H1076 C1094 0.951 . S
H1077 C1096 0.951 . S
H1078 C1098 0.950 1_655 S
H1079 C1099 0.950 . S
H1080 C1101 0.950 . S
H1081 C1104 0.950 . S
H1082 C1105 0.950 . S
H1083 C1107 0.950 . S
H1084 C1108 0.950 . S
H1085 C1109 0.951 . S
H1086 C1111 0.951 . S
H1087 C1113 0.950 1_455 S
H1088 C1114 0.950 . S
H1089 C1116 0.950 . S
H1090 C1119 0.950 . S
H1091 C1120 0.950 . S
H1092 C1122 0.950 . S
H1093 C1123 0.950 . S
C1094 H1076 0.951 . S
C1094 C1095 1.366 . S
C1094 C1096 1.388 . S
C1095 C1094 1.366 . S
C1095 C1099 1.385 . S
C1096 H1077 0.951 . S
C1096 C1094 1.388 . S
C1096 C1097 1.366 . S
C1097 C1096 1.366 . S
C1097 C1098 1.414 . S
C1097 C1100 1.499 . S
C1098 H1078 0.950 1_455 S
C1098 C1097 1.414 . S
C1098 C1099 1.374 . S
C1099 H1079 0.950 . S
C1099 C1095 1.385 . S
C1099 C1098 1.374 . S
C1100 C1097 1.499 . S
C1100 C1101 1.373 1_455 S
C1100 C1102 1.389 . S
C1101 H1080 0.950 . S
C1101 C1100 1.373 1_655 S
C1101 C1117 1.377 . S
C1102 C1100 1.389 . S
C1102 C1103 1.524 . S
C1102 C1116 1.377 . S
C1103 C1102 1.524 . S
C1103 C1104 1.397 . S
C1103 C1108 1.363 . S
C1104 H1081 0.950 . S
C1104 C1103 1.397 . S
C1104 C1105 1.334 . S
C1105 H1082 0.950 . S
C1105 C1104 1.334 . S
C1105 C1106 1.287 . S
C1106 C1105 1.287 . S
C1106 C1107 1.524 . S
C1106 H1125 0.913 . S
C1107 H1083 0.950 . S
C1107 C1106 1.524 . S
C1107 C1108 1.415 . S
C1108 H1084 0.950 . S
C1108 C1103 1.363 . S
C1108 C1107 1.415 . S
C1109 H1085 0.951 . S
C1109 C1110 1.366 . S
C1109 C1111 1.388 . S
C1110 C1109 1.366 . S
C1110 C1114 1.385 . S
C1111 H1086 0.951 . S
C1111 C1109 1.388 . S
C1111 C1112 1.366 . S
C1112 C1111 1.366 . S
C1112 C1113 1.414 . S
C1112 C1115 1.499 . S
C1113 H1087 0.950 1_655 S
C1113 C1112 1.414 . S
C1113 C1114 1.374 . S
C1114 H1088 0.950 . S
C1114 C1110 1.385 . S
C1114 C1113 1.374 . S
C1115 C1112 1.499 . S
C1115 C1116 1.373 1_655 S
C1115 C1117 1.389 . S
C1116 H1089 0.950 . S
C1116 C1102 1.377 . S
C1116 C1115 1.373 1_455 S
C1117 C1101 1.377 . S
C1117 C1115 1.389 . S
C1117 C1118 1.524 . S
C1118 C1117 1.524 . S
C1118 C1119 1.397 . S
C1118 C1123 1.363 . S
C1119 H1090 0.950 . S
C1119 C1118 1.397 . S
C1119 C1120 1.334 . S
C1120 H1091 0.950 . S
C1120 C1119 1.334 . S
C1120 C1121 1.287 . S
C1121 C1120 1.287 . S
C1121 C1122 1.524 . S
C1121 H1124 0.999 . S
C1122 H1092 0.950 . S
C1122 C1121 1.524 . S
C1122 C1123 1.415 . S
C1123 H1093 0.950 . S
C1123 C1118 1.363 . S
C1123 C1122 1.415 . S
H1124 C1121 0.999 . S
H1125 C1106 0.913 . S
H1126 C1144 0.951 . S
H1127 C1146 0.951 1_545 S
H1128 C1148 0.950 . S
H1129 C1149 0.950 . S
H1130 C1151 0.950 . S
H1131 C1154 0.950 . S
H1132 C1155 0.950 . S
H1133 C1157 0.950 . S
H1134 C1158 0.950 . S
H1135 C1159 0.951 . S
H1136 C1161 0.951 1_565 S
H1137 C1163 0.950 . S
H1138 C1164 0.950 . S
H1139 C1166 0.950 . S
H1140 C1169 0.950 . S
H1141 C1170 0.950 . S
H1142 C1172 0.950 . S
H1143 C1173 0.950 . S
C1144 H1126 0.951 . S
C1144 C1145 1.366 . S
C1144 C1146 1.388 . S
C1145 C1144 1.366 . S
C1145 C1149 1.385 . S
C1146 H1127 0.951 1_565 S
C1146 C1144 1.388 . S
C1146 C1147 1.366 . S
C1147 C1146 1.366 . S
C1147 C1148 1.414 . S
C1147 C1150 1.499 . S
C1148 H1128 0.950 . S
C1148 C1147 1.414 . S
C1148 C1149 1.374 . S
C1149 H1129 0.950 . S
C1149 C1145 1.385 . S
C1149 C1148 1.374 . S
C1150 C1147 1.499 . S
C1150 C1151 1.373 . S
C1150 C1152 1.389 1_565 S
C1151 H1130 0.950 . S
C1151 C1150 1.373 . S
C1151 C1167 1.377 . S
C1152 C1150 1.389 1_545 S
C1152 C1153 1.524 . S
C1152 C1166 1.377 . S
C1153 C1152 1.524 . S
C1153 C1154 1.397 . S
C1153 C1158 1.363 . S
C1154 H1131 0.950 . S
C1154 C1153 1.397 . S
C1154 C1155 1.334 . S
C1155 H1132 0.950 . S
C1155 C1154 1.334 . S
C1155 C1156 1.287 . S
C1156 C1155 1.287 . S
C1156 C1157 1.524 . S
C1156 H1175 0.913 . S
C1157 H1133 0.950 . S
C1157 C1156 1.524 . S
C1157 C1158 1.415 . S
C1158 H1134 0.950 . S
C1158 C1153 1.363 . S
C1158 C1157 1.415 . S
C1159 H1135 0.951 . S
C1159 C1160 1.366 . S
C1159 C1161 1.388 . S
C1160 C1159 1.366 . S
C1160 C1164 1.385 . S
C1161 H1136 0.951 1_545 S
C1161 C1159 1.388 . S
C1161 C1162 1.366 . S
C1162 C1161 1.366 . S
C1162 C1163 1.414 . S
C1162 C1165 1.499 . S
C1163 H1137 0.950 . S
C1163 C1162 1.414 . S
C1163 C1164 1.374 . S
C1164 H1138 0.950 . S
C1164 C1160 1.385 . S
C1164 C1163 1.374 . S
C1165 C1162 1.499 . S
C1165 C1166 1.373 . S
C1165 C1167 1.389 1_545 S
C1166 H1139 0.950 . S
C1166 C1152 1.377 . S
C1166 C1165 1.373 . S
C1167 C1151 1.377 . S
C1167 C1165 1.389 1_565 S
C1167 C1168 1.524 . S
C1168 C1167 1.524 . S
C1168 C1169 1.397 . S
C1168 C1173 1.363 . S
C1169 H1140 0.950 . S
C1169 C1168 1.397 . S
C1169 C1170 1.334 . S
C1170 H1141 0.950 . S
C1170 C1169 1.334 . S
C1170 C1171 1.287 . S
C1171 C1170 1.287 . S
C1171 C1172 1.524 . S
C1171 H1174 0.999 . S
C1172 H1142 0.950 . S
C1172 C1171 1.524 . S
C1172 C1173 1.415 . S
C1173 H1143 0.950 . S
C1173 C1168 1.363 . S
C1173 C1172 1.415 . S
H1174 C1171 0.999 . S
H1175 C1156 0.913 . S
H1176 C1194 0.951 . S
H1177 C1196 0.951 . S
H1178 C1198 0.950 . S
H1179 C1199 0.950 . S
H1180 C1201 0.950 . S
H1181 C1204 0.950 . S
H1182 C1205 0.950 1_556 S
H1183 C1207 0.950 . S
H1184 C1208 0.950 . S
H1185 C1209 0.951 . S
H1186 C1211 0.951 . S
H1187 C1213 0.950 . S
H1188 C1214 0.950 . S
H1189 C1216 0.950 . S
H1190 C1219 0.950 . S
H1191 C1220 0.950 . S
H1192 C1222 0.950 . S
H1193 C1223 0.950 . S
C1194 H1176 0.951 . S
C1194 C1195 1.366 . S
C1194 C1196 1.388 . S
C1195 C1194 1.366 . S
C1195 C1199 1.385 . S
C1196 H1177 0.951 . S
C1196 C1194 1.388 . S
C1196 C1197 1.366 . S
C1197 C1196 1.366 . S
C1197 C1198 1.414 . S
C1197 C1200 1.499 . S
C1198 H1178 0.950 . S
C1198 C1197 1.414 . S
C1198 C1199 1.374 . S
C1199 H1179 0.950 . S
C1199 C1195 1.385 . S
C1199 C1198 1.374 . S
C1200 C1197 1.499 . S
C1200 C1201 1.373 . S
C1200 C1202 1.389 . S
C1201 H1180 0.950 . S
C1201 C1200 1.373 . S
C1201 C1217 1.377 . S
C1202 C1200 1.389 . S
C1202 C1203 1.524 . S
C1202 C1216 1.377 . S
C1203 C1202 1.524 . S
C1203 C1204 1.397 . S
C1203 C1208 1.363 . S
C1204 H1181 0.950 . S
C1204 C1203 1.397 . S
C1204 C1205 1.334 . S
C1205 H1182 0.950 1_554 S
C1205 C1204 1.334 . S
C1205 C1206 1.287 1_554 S
C1206 C1205 1.287 1_556 S
C1206 C1207 1.524 1_556 S
C1206 H1225 0.913 . S
C1207 H1183 0.950 . S
C1207 C1206 1.524 1_554 S
C1207 C1208 1.415 . S
C1208 H1184 0.950 . S
C1208 C1203 1.363 . S
C1208 C1207 1.415 . S
C1209 H1185 0.951 . S
C1209 C1210 1.366 . S
C1209 C1211 1.388 . S
C1210 C1209 1.366 . S
C1210 C1214 1.385 . S
C1211 H1186 0.951 . S
C1211 C1209 1.388 . S
C1211 C1212 1.366 . S
C1212 C1211 1.366 . S
C1212 C1213 1.414 . S
C1212 C1215 1.499 . S
C1213 H1187 0.950 . S
C1213 C1212 1.414 . S
C1213 C1214 1.374 . S
C1214 H1188 0.950 . S
C1214 C1210 1.385 . S
C1214 C1213 1.374 . S
C1215 C1212 1.499 . S
C1215 C1216 1.373 . S
C1215 C1217 1.389 . S
C1216 H1189 0.950 . S
C1216 C1202 1.377 . S
C1216 C1215 1.373 . S
C1217 C1201 1.377 . S
C1217 C1215 1.389 . S
C1217 C1218 1.524 . S
C1218 C1217 1.524 . S
C1218 C1219 1.397 . S
C1218 C1223 1.363 . S
C1219 H1190 0.950 . S
C1219 C1218 1.397 . S
C1219 C1220 1.334 . S
C1220 H1191 0.950 . S
C1220 C1219 1.334 . S
C1220 C1221 1.287 . S
C1221 C1220 1.287 . S
C1221 C1222 1.524 . S
C1221 H1224 0.999 . S
C1222 H1192 0.950 . S
C1222 C1221 1.524 . S
C1222 C1223 1.415 . S
C1223 H1193 0.950 . S
C1223 C1218 1.363 . S
C1223 C1222 1.415 . S
H1224 C1221 0.999 . S
H1225 C1206 0.913 . S
H1226 C1244 0.951 . S
H1227 C1246 0.951 . S
H1228 C1248 0.950 . S
H1229 C1249 0.950 . S
H1230 C1251 0.945 . S
H1231 C1254 0.950 . S
H1232 C1255 0.950 . S
H1233 C1257 0.950 . S
H1234 C1258 0.950 . S
H1235 C1259 0.951 . S
H1236 C1261 0.951 . S
H1237 C1263 0.950 . S
H1238 C1264 0.950 . S
H1239 C1266 0.945 . S
H1240 C1269 0.950 . S
H1241 C1270 0.950 . S
H1242 C1272 0.950 . S
H1243 C1273 0.950 . S
C1244 H1226 0.951 . S
C1244 C1245 1.366 1_455 S
C1244 C1246 1.388 . S
C1245 C1244 1.366 1_655 S
C1245 C1249 1.385 . S
C1246 H1227 0.951 . S
C1246 C1244 1.388 . S
C1246 C1247 1.366 1_455 S
C1247 C1246 1.366 1_655 S
C1247 C1248 1.414 . S
C1247 C1250 1.499 . S
C1248 H1228 0.950 . S
C1248 C1247 1.414 . S
C1248 C1249 1.374 . S
C1249 H1229 0.950 . S
C1249 C1245 1.385 . S
C1249 C1248 1.374 . S
C1250 C1247 1.499 . S
C1250 C1251 1.379 . S
C1250 C1252 1.389 . S
C1251 H1230 0.945 . S
C1251 C1250 1.379 . S
C1251 C1267 1.367 1_655 S
C1252 C1250 1.389 . S
C1252 C1253 1.524 . S
C1252 C1266 1.367 1_655 S
C1253 C1252 1.524 . S
C1253 C1254 1.397 . S
C1253 C1258 1.363 1_655 S
C1254 H1231 0.950 . S
C1254 C1253 1.397 . S
C1254 C1255 1.334 . S
C1255 H1232 0.950 . S
C1255 C1254 1.334 . S
C1255 C1256 1.287 . S
C1256 C1255 1.287 . S
C1256 C1257 1.524 1_655 S
C1256 H1275 0.913 . S
C1257 H1233 0.950 . S
C1257 C1256 1.524 1_455 S
C1257 C1258 1.415 . S
C1258 H1234 0.950 . S
C1258 C1253 1.363 1_455 S
C1258 C1257 1.415 . S
C1259 H1235 0.951 . S
C1259 C1260 1.366 1_655 S
C1259 C1261 1.388 . S
C1260 C1259 1.366 1_455 S
C1260 C1264 1.385 . S
C1261 H1236 0.951 . S
C1261 C1259 1.388 . S
C1261 C1262 1.366 1_655 S
C1262 C1261 1.366 1_455 S
C1262 C1263 1.414 . S
C1262 C1265 1.499 . S
C1263 H1237 0.950 . S
C1263 C1262 1.414 . S
C1263 C1264 1.374 . S
C1264 H1238 0.950 . S
C1264 C1260 1.385 . S
C1264 C1263 1.374 . S
C1265 C1262 1.499 . S
C1265 C1266 1.379 . S
C1265 C1267 1.389 . S
C1266 H1239 0.945 . S
C1266 C1252 1.367 1_455 S
C1266 C1265 1.379 . S
C1267 C1251 1.367 1_455 S
C1267 C1265 1.389 . S
C1267 C1268 1.524 . S
C1268 C1267 1.524 . S
C1268 C1269 1.397 . S
C1268 C1273 1.363 1_455 S
C1269 H1240 0.950 . S
C1269 C1268 1.397 . S
C1269 C1270 1.334 . S
C1270 H1241 0.950 . S
C1270 C1269 1.334 . S
C1270 C1271 1.287 . S
C1271 C1270 1.287 . S
C1271 C1272 1.524 1_455 S
C1271 H1274 0.999 . S
C1272 H1242 0.950 . S
C1272 C1271 1.524 1_655 S
C1272 C1273 1.415 . S
C1273 H1243 0.950 . S
C1273 C1268 1.363 1_655 S
C1273 C1272 1.415 . S
H1274 C1271 0.999 . S
H1275 C1256 0.913 . S
H1276 C1294 0.951 . S
H1277 C1296 0.951 . S
H1278 C1298 0.950 . S
H1279 C1299 0.950 . S
H1280 C1301 0.950 . S
H1281 C1304 0.950 . S
H1282 C1305 0.950 . S
H1283 C1307 0.950 . S
H1284 C1308 0.950 . S
H1285 C1309 0.951 . S
H1286 C1311 0.951 . S
H1287 C1313 0.950 . S
H1288 C1314 0.950 . S
H1289 C1316 0.950 . S
H1290 C1319 0.950 . S
H1291 C1320 0.950 . S
H1292 C1322 0.950 . S
H1293 C1323 0.950 . S
C1294 H1276 0.951 . S
C1294 C1295 1.366 . S
C1294 C1296 1.388 . S
C1295 C1294 1.366 . S
C1295 C1299 1.385 1_545 S
C1296 H1277 0.951 . S
C1296 C1294 1.388 . S
C1296 C1297 1.366 . S
C1297 C1296 1.366 . S
C1297 C1298 1.414 1_545 S
C1297 C1300 1.499 . S
C1298 H1278 0.950 . S
C1298 C1297 1.414 1_565 S
C1298 C1299 1.374 . S
C1299 H1279 0.950 . S
C1299 C1295 1.385 1_565 S
C1299 C1298 1.374 . S
C1300 C1297 1.499 . S
C1300 C1301 1.373 1_545 S
C1300 C1302 1.389 . S
C1301 H1280 0.950 . S
C1301 C1300 1.373 1_565 S
C1301 C1317 1.377 . S
C1302 C1300 1.389 . S
C1302 C1303 1.524 . S
C1302 C1316 1.377 . S
C1303 C1302 1.524 . S
C1303 C1304 1.397 . S
C1303 C1308 1.363 . S
C1304 H1281 0.950 . S
C1304 C1303 1.397 . S
C1304 C1305 1.334 . S
C1305 H1282 0.950 . S
C1305 C1304 1.334 . S
C1305 C1306 1.287 . S
C1306 C1305 1.287 . S
C1306 C1307 1.524 . S
C1306 H1325 0.913 . S
C1307 H1283 0.950 . S
C1307 C1306 1.524 . S
C1307 C1308 1.415 . S
C1308 H1284 0.950 . S
C1308 C1303 1.363 . S
C1308 C1307 1.415 . S
C1309 H1285 0.951 . S
C1309 C1310 1.366 . S
C1309 C1311 1.388 . S
C1310 C1309 1.366 . S
C1310 C1314 1.385 1_565 S
C1311 H1286 0.951 . S
C1311 C1309 1.388 . S
C1311 C1312 1.366 . S
C1312 C1311 1.366 . S
C1312 C1313 1.414 1_565 S
C1312 C1315 1.499 . S
C1313 H1287 0.950 . S
C1313 C1312 1.414 1_545 S
C1313 C1314 1.374 . S
C1314 H1288 0.950 . S
C1314 C1310 1.385 1_545 S
C1314 C1313 1.374 . S
C1315 C1312 1.499 . S
C1315 C1316 1.373 1_565 S
C1315 C1317 1.389 . S
C1316 H1289 0.950 . S
C1316 C1302 1.377 . S
C1316 C1315 1.373 1_545 S
C1317 C1301 1.377 . S
C1317 C1315 1.389 . S
C1317 C1318 1.524 . S
C1318 C1317 1.524 . S
C1318 C1319 1.397 . S
C1318 C1323 1.363 . S
C1319 H1290 0.950 . S
C1319 C1318 1.397 . S
C1319 C1320 1.334 . S
C1320 H1291 0.950 . S
C1320 C1319 1.334 . S
C1320 C1321 1.287 . S
C1321 C1320 1.287 . S
C1321 C1322 1.524 . S
C1321 H1324 0.999 . S
C1322 H1292 0.950 . S
C1322 C1321 1.524 . S
C1322 C1323 1.415 . S
C1323 H1293 0.950 . S
C1323 C1318 1.363 . S
C1323 C1322 1.415 . S
H1324 C1321 0.999 . S
H1325 C1306 0.913 . S
H1326 C1344 0.951 . S
H1327 C1346 0.951 . S
H1328 C1348 0.950 . S
H1329 C1349 0.950 . S
H1330 C1351 0.950 . S
H1331 C1354 0.950 . S
H1332 C1355 0.950 . S
H1333 C1357 0.950 . S
H1334 C1358 0.950 . S
H1335 C1359 0.951 . S
H1336 C1361 0.951 . S
H1337 C1363 0.950 . S
H1338 C1364 0.950 . S
H1339 C1366 0.950 . S
H1340 C1369 0.950 . S
H1341 C1370 0.950 . S
H1342 C1372 0.950 . S
H1343 C1373 0.950 . S
C1344 H1326 0.951 . S
C1344 C1345 1.366 . S
C1344 C1346 1.388 . S
C1345 C1344 1.366 . S
C1345 C1349 1.385 . S
C1346 H1327 0.951 . S
C1346 C1344 1.388 . S
C1346 C1347 1.366 . S
C1347 C1346 1.366 . S
C1347 C1348 1.414 . S
C1347 C1350 1.499 . S
C1348 H1328 0.950 . S
C1348 C1347 1.414 . S
C1348 C1349 1.374 . S
C1349 H1329 0.950 . S
C1349 C1345 1.385 . S
C1349 C1348 1.374 . S
C1350 C1347 1.499 . S
C1350 C1351 1.373 . S
C1350 C1352 1.389 . S
C1351 H1330 0.950 . S
C1351 C1350 1.373 . S
C1351 C1367 1.377 . S
C1352 C1350 1.389 . S
C1352 C1353 1.524 . S
C1352 C1366 1.377 . S
C1353 C1352 1.524 . S
C1353 C1354 1.397 . S
C1353 C1358 1.363 . S
C1354 H1331 0.950 . S
C1354 C1353 1.397 . S
C1354 C1355 1.334 . S
C1355 H1332 0.950 . S
C1355 C1354 1.334 . S
C1355 C1356 1.287 . S
C1356 C1355 1.287 . S
C1356 C1357 1.524 . S
C1356 H1375 0.913 . S
C1357 H1333 0.950 . S
C1357 C1356 1.524 . S
C1357 C1358 1.415 . S
C1358 H1334 0.950 . S
C1358 C1353 1.363 . S
C1358 C1357 1.415 . S
C1359 H1335 0.951 . S
C1359 C1360 1.366 . S
C1359 C1361 1.388 . S
C1360 C1359 1.366 . S
C1360 C1364 1.385 . S
C1361 H1336 0.951 . S
C1361 C1359 1.388 . S
C1361 C1362 1.366 . S
C1362 C1361 1.366 . S
C1362 C1363 1.414 . S
C1362 C1365 1.499 . S
C1363 H1337 0.950 . S
C1363 C1362 1.414 . S
C1363 C1364 1.374 . S
C1364 H1338 0.950 . S
C1364 C1360 1.385 . S
C1364 C1363 1.374 . S
C1365 C1362 1.499 . S
C1365 C1366 1.373 . S
C1365 C1367 1.389 . S
C1366 H1339 0.950 . S
C1366 C1352 1.377 . S
C1366 C1365 1.373 . S
C1367 C1351 1.377 . S
C1367 C1365 1.389 . S
C1367 C1368 1.524 . S
C1368 C1367 1.524 . S
C1368 C1369 1.397 . S
C1368 C1373 1.363 . S
C1369 H1340 0.950 . S
C1369 C1368 1.397 . S
C1369 C1370 1.334 . S
C1370 H1341 0.950 . S
C1370 C1369 1.334 . S
C1370 C1371 1.287 . S
C1371 C1370 1.287 . S
C1371 C1372 1.524 . S
C1371 H1374 0.999 . S
C1372 H1342 0.950 . S
C1372 C1371 1.524 . S
C1372 C1373 1.415 . S
C1373 H1343 0.950 . S
C1373 C1368 1.363 . S
C1373 C1372 1.415 . S
H1374 C1371 0.999 . S
H1375 C1356 0.913 . S
H1376 C1394 0.951 . S
H1377 C1396 0.951 . S
H1378 C1398 0.950 . S
H1379 C1399 0.950 . S
H1380 C1401 0.950 . S
H1381 C1404 0.950 . S
H1382 C1405 0.950 . S
H1383 C1407 0.950 . S
H1384 C1408 0.950 . S
H1385 C1409 0.951 . S
H1386 C1411 0.951 . S
H1387 C1413 0.950 . S
H1388 C1414 0.950 . S
H1389 C1416 0.950 . S
H1390 C1419 0.950 . S
H1391 C1420 0.950 . S
H1392 C1422 0.950 . S
H1393 C1423 0.950 . S
C1394 H1376 0.951 . S
C1394 C1395 1.366 . S
C1394 C1396 1.388 . S
C1395 C1394 1.366 . S
C1395 C1399 1.385 1_455 S
C1396 H1377 0.951 . S
C1396 C1394 1.388 . S
C1396 C1397 1.366 . S
C1397 C1396 1.366 . S
C1397 C1398 1.414 1_455 S
C1397 C1400 1.499 . S
C1398 H1378 0.950 . S
C1398 C1397 1.414 1_655 S
C1398 C1399 1.374 . S
C1399 H1379 0.950 . S
C1399 C1395 1.385 1_655 S
C1399 C1398 1.374 . S
C1400 C1397 1.499 . S
C1400 C1401 1.373 1_455 S
C1400 C1402 1.389 . S
C1401 H1380 0.950 . S
C1401 C1400 1.373 1_655 S
C1401 C1417 1.377 . S
C1402 C1400 1.389 . S
C1402 C1403 1.524 . S
C1402 C1416 1.377 . S
C1403 C1402 1.524 . S
C1403 C1404 1.397 . S
C1403 C1408 1.363 . S
C1404 H1381 0.950 . S
C1404 C1403 1.397 . S
C1404 C1405 1.334 . S
C1405 H1382 0.950 . S
C1405 C1404 1.334 . S
C1405 C1406 1.287 . S
C1406 C1405 1.287 . S
C1406 C1407 1.524 . S
C1406 H1425 0.913 . S
C1407 H1383 0.950 . S
C1407 C1406 1.524 . S
C1407 C1408 1.415 . S
C1408 H1384 0.950 . S
C1408 C1403 1.363 . S
C1408 C1407 1.415 . S
C1409 H1385 0.951 . S
C1409 C1410 1.366 . S
C1409 C1411 1.388 . S
C1410 C1409 1.366 . S
C1410 C1414 1.385 1_655 S
C1411 H1386 0.951 . S
C1411 C1409 1.388 . S
C1411 C1412 1.366 . S
C1412 C1411 1.366 . S
C1412 C1413 1.414 1_655 S
C1412 C1415 1.499 . S
C1413 H1387 0.950 . S
C1413 C1412 1.414 1_455 S
C1413 C1414 1.374 . S
C1414 H1388 0.950 . S
C1414 C1410 1.385 1_455 S
C1414 C1413 1.374 . S
C1415 C1412 1.499 . S
C1415 C1416 1.373 1_655 S
C1415 C1417 1.389 . S
C1416 H1389 0.950 . S
C1416 C1402 1.377 . S
C1416 C1415 1.373 1_455 S
C1417 C1401 1.377 . S
C1417 C1415 1.389 . S
C1417 C1418 1.524 . S
C1418 C1417 1.524 . S
C1418 C1419 1.397 . S
C1418 C1423 1.363 . S
C1419 H1390 0.950 . S
C1419 C1418 1.397 . S
C1419 C1420 1.334 . S
C1420 H1391 0.950 . S
C1420 C1419 1.334 . S
C1420 C1421 1.287 . S
C1421 C1420 1.287 . S
C1421 C1422 1.524 . S
C1421 H1424 0.999 . S
C1422 H1392 0.950 . S
C1422 C1421 1.524 . S
C1422 C1423 1.415 . S
C1423 H1393 0.950 . S
C1423 C1418 1.363 . S
C1423 C1422 1.415 . S
H1424 C1421 0.999 . S
H1425 C1406 0.913 . S
H1426 C1444 0.951 . S
H1427 C1446 0.951 . S
H1428 C1448 0.950 . S
H1429 C1449 0.950 . S
H1430 C1451 0.950 . S
H1431 C1454 0.950 . S
H1432 C1455 0.950 . S
H1433 C1457 0.950 . S
H1434 C1458 0.950 . S
H1435 C1459 0.951 . S
H1436 C1461 0.951 . S
H1437 C1463 0.950 . S
H1438 C1464 0.950 . S
H1439 C1466 0.950 . S
H1440 C1469 0.950 . S
H1441 C1470 0.950 . S
H1442 C1472 0.950 . S
H1443 C1473 0.950 . S
C1444 H1426 0.951 . S
C1444 C1445 1.366 1_545 S
C1444 C1446 1.388 . S
C1445 C1444 1.366 1_565 S
C1445 C1449 1.385 . S
C1446 H1427 0.951 . S
C1446 C1444 1.388 . S
C1446 C1447 1.366 1_545 S
C1447 C1446 1.366 1_565 S
C1447 C1448 1.414 . S
C1447 C1450 1.499 . S
C1448 H1428 0.950 . S
C1448 C1447 1.414 . S
C1448 C1449 1.374 . S
C1449 H1429 0.950 . S
C1449 C1445 1.385 . S
C1449 C1448 1.374 . S
C1450 C1447 1.499 . S
C1450 C1451 1.373 . S
C1450 C1452 1.389 1_565 S
C1451 H1430 0.950 . S
C1451 C1450 1.373 . S
C1451 C1467 1.377 . S
C1452 C1450 1.389 1_545 S
C1452 C1453 1.524 . S
C1452 C1466 1.377 . S
C1453 C1452 1.524 . S
C1453 C1454 1.397 . S
C1453 C1458 1.363 . S
C1454 H1431 0.950 . S
C1454 C1453 1.397 . S
C1454 C1455 1.334 . S
C1455 H1432 0.950 . S
C1455 C1454 1.334 . S
C1455 C1456 1.287 . S
C1456 C1455 1.287 . S
C1456 C1457 1.524 . S
C1456 H1475 0.913 . S
C1457 H1433 0.950 . S
C1457 C1456 1.524 . S
C1457 C1458 1.415 . S
C1458 H1434 0.950 . S
C1458 C1453 1.363 . S
C1458 C1457 1.415 . S
C1459 H1435 0.951 . S
C1459 C1460 1.366 1_565 S
C1459 C1461 1.388 . S
C1460 C1459 1.366 1_545 S
C1460 C1464 1.385 . S
C1461 H1436 0.951 . S
C1461 C1459 1.388 . S
C1461 C1462 1.366 1_565 S
C1462 C1461 1.366 1_545 S
C1462 C1463 1.414 . S
C1462 C1465 1.499 . S
C1463 H1437 0.950 . S
C1463 C1462 1.414 . S
C1463 C1464 1.374 . S
C1464 H1438 0.950 . S
C1464 C1460 1.385 . S
C1464 C1463 1.374 . S
C1465 C1462 1.499 . S
C1465 C1466 1.373 . S
C1465 C1467 1.389 1_545 S
C1466 H1439 0.950 . S
C1466 C1452 1.377 . S
C1466 C1465 1.373 . S
C1467 C1451 1.377 . S
C1467 C1465 1.389 1_565 S
C1467 C1468 1.524 . S
C1468 C1467 1.524 . S
C1468 C1469 1.397 . S
C1468 C1473 1.363 . S
C1469 H1440 0.950 . S
C1469 C1468 1.397 . S
C1469 C1470 1.334 . S
C1470 H1441 0.950 . S
C1470 C1469 1.334 . S
C1470 C1471 1.287 . S
C1471 C1470 1.287 . S
C1471 C1472 1.524 . S
C1471 H1474 0.999 . S
C1472 H1442 0.950 . S
C1472 C1471 1.524 . S
C1472 C1473 1.415 . S
C1473 H1443 0.950 . S
C1473 C1468 1.363 . S
C1473 C1472 1.415 . S
H1474 C1471 0.999 . S
H1475 C1456 0.913 . S
C295 C16 1.529 . S
C310 C223 1.530 . S
C345 C39 1.530 . S
C360 C246 1.529 . S
C395 C62 1.530 . S
C410 C269 1.529 . S
C445 C85 1.530 . S
C460 C154 1.529 . S
C495 C177 1.530 . S
C510 C108 1.529 . S
C545 C200 1.530 . S
C560 C131 1.529 . S
C595 N242 2.289 . S
C610 N12 2.290 . S
C645 N35 2.290 . S
C660 N265 2.290 . S
C695 N58 2.290 . S
C710 N150 2.290 . S
C745 N81 2.289 . S
C760 N173 2.289 . S
C795 N104 2.290 . S
C810 N196 2.290 . S
C845 N127 2.290 . S
C860 N219 2.289 . S
C895 C214 1.560 . S
C910 C7 1.560 1_556 S
C945 C30 1.561 . S
C960 C237 1.561 1_554 S
C995 C53 1.561 . S
C1010 C260 1.561 . S
C1045 C145 1.560 . S
C1060 C76 1.560 1_556 S
C1095 C99 1.561 . S
C1110 C168 1.561 1_554 S
C1145 C191 1.561 . S
C1160 C122 1.561 . S
C1195 N2 2.184 . S
C1210 N71 2.183 . S
C1245 N94 2.183 1_655 S
C1260 N25 2.183 1_455 S
C1295 N48 2.182 1_545 S
C1310 N117 2.183 1_565 S
C1345 N140 2.183 . S
C1360 N209 2.183 . S
C1395 N163 2.182 1_455 S
C1410 N232 2.183 1_655 S
C1445 N255 2.184 1_565 S
C1460 N186 2.183 1_545 S
