# Generated by pormake.
# Topology wiu, (6)-cn, num edge types: 1
# Building blocks:
#     Node 0, Type 0, BuildingBlock: NUHQIS_clean_sbu_0, # of connection points: 6
#     Node 1, Type 0, BuildingBlock: NUHQIS_clean_sbu_0, # of connection points: 6
#     Node 2, Type 0, BuildingBlock: NUHQIS_clean_sbu_0, # of connection points: 6
#     Node 3, Type 0, BuildingBlock: NUHQIS_clean_sbu_0, # of connection points: 6
#     Node 4, Type 0, BuildingBlock: NUHQIS_clean_sbu_0, # of connection points: 6
#     Node 5, Type 0, BuildingBlock: NUHQIS_clean_sbu_0, # of connection points: 6
#     Node 6, Type 0, BuildingBlock: NUHQIS_clean_sbu_0, # of connection points: 6
#     Node 7, Type 0, BuildingBlock: NUHQIS_clean_sbu_0, # of connection points: 6
#     Node 8, Type 0, BuildingBlock: NUHQIS_clean_sbu_0, # of connection points: 6
#     Node 9, Type 0, BuildingBlock: NUHQIS_clean_sbu_0, # of connection points: 6
#     Node 10, Type 0, BuildingBlock: NUHQIS_clean_sbu_0, # of connection points: 6
#     Node 11, Type 0, BuildingBlock: NUHQIS_clean_sbu_0, # of connection points: 6
#     Node 12, Type 0, BuildingBlock: NUHQIS_clean_sbu_0, # of connection points: 6
#     Node 13, Type 0, BuildingBlock: NUHQIS_clean_sbu_0, # of connection points: 6
#     Node 14, Type 0, BuildingBlock: NUHQIS_clean_sbu_0, # of connection points: 6
#     Node 15, Type 0, BuildingBlock: NUHQIS_clean_sbu_0, # of connection points: 6
#     Edge 16, Type (0, 0), BuildingBlock: ZUJKAS_clean_linker_0, # of connection points: 2
#     Edge 17, Type (0, 0), BuildingBlock: ZUJKAS_clean_linker_0, # of connection points: 2
#     Edge 18, Type (0, 0), BuildingBlock: ZUJKAS_clean_linker_0, # of connection points: 2
#     Edge 19, Type (0, 0), BuildingBlock: ZUJKAS_clean_linker_0, # of connection points: 2
#     Edge 20, Type (0, 0), BuildingBlock: ZUJKAS_clean_linker_0, # of connection points: 2
#     Edge 21, Type (0, 0), BuildingBlock: ZUJKAS_clean_linker_0, # of connection points: 2
#     Edge 22, Type (0, 0), BuildingBlock: ZUJKAS_clean_linker_0, # of connection points: 2
#     Edge 23, Type (0, 0), BuildingBlock: ZUJKAS_clean_linker_0, # of connection points: 2
#     Edge 24, Type (0, 0), BuildingBlock: ZUJKAS_clean_linker_0, # of connection points: 2
#     Edge 25, Type (0, 0), BuildingBlock: ZUJKAS_clean_linker_0, # of connection points: 2
#     Edge 26, Type (0, 0), BuildingBlock: ZUJKAS_clean_linker_0, # of connection points: 2
#     Edge 27, Type (0, 0), BuildingBlock: ZUJKAS_clean_linker_0, # of connection points: 2
#     Edge 28, Type (0, 0), BuildingBlock: ZUJKAS_clean_linker_0, # of connection points: 2
#     Edge 29, Type (0, 0), BuildingBlock: ZUJKAS_clean_linker_0, # of connection points: 2
#     Edge 30, Type (0, 0), BuildingBlock: ZUJKAS_clean_linker_0, # of connection points: 2
#     Edge 31, Type (0, 0), BuildingBlock: ZUJKAS_clean_linker_0, # of connection points: 2
#     Edge 32, Type (0, 0), BuildingBlock: ZUJKAS_clean_linker_0, # of connection points: 2
#     Edge 33, Type (0, 0), BuildingBlock: ZUJKAS_clean_linker_0, # of connection points: 2
#     Edge 34, Type (0, 0), BuildingBlock: ZUJKAS_clean_linker_0, # of connection points: 2
#     Edge 35, Type (0, 0), BuildingBlock: ZUJKAS_clean_linker_0, # of connection points: 2
#     Edge 36, Type (0, 0), BuildingBlock: ZUJKAS_clean_linker_0, # of connection points: 2
#     Edge 37, Type (0, 0), BuildingBlock: ZUJKAS_clean_linker_0, # of connection points: 2
#     Edge 38, Type (0, 0), BuildingBlock: ZUJKAS_clean_linker_0, # of connection points: 2
#     Edge 39, Type (0, 0), BuildingBlock: ZUJKAS_clean_linker_0, # of connection points: 2
#     Edge 40, Type (0, 0), BuildingBlock: ZUJKAS_clean_linker_0, # of connection points: 2
#     Edge 41, Type (0, 0), BuildingBlock: ZUJKAS_clean_linker_0, # of connection points: 2
#     Edge 42, Type (0, 0), BuildingBlock: ZUJKAS_clean_linker_0, # of connection points: 2
#     Edge 43, Type (0, 0), BuildingBlock: ZUJKAS_clean_linker_0, # of connection points: 2
#     Edge 44, Type (0, 0), BuildingBlock: ZUJKAS_clean_linker_0, # of connection points: 2
#     Edge 45, Type (0, 0), BuildingBlock: ZUJKAS_clean_linker_0, # of connection points: 2
#     Edge 46, Type (0, 0), BuildingBlock: ZUJKAS_clean_linker_0, # of connection points: 2
#     Edge 47, Type (0, 0), BuildingBlock: ZUJKAS_clean_linker_0, # of connection points: 2
#     Edge 48, Type (0, 0), BuildingBlock: ZUJKAS_clean_linker_0, # of connection points: 2
#     Edge 49, Type (0, 0), BuildingBlock: ZUJKAS_clean_linker_0, # of connection points: 2
#     Edge 50, Type (0, 0), BuildingBlock: ZUJKAS_clean_linker_0, # of connection points: 2
#     Edge 51, Type (0, 0), BuildingBlock: ZUJKAS_clean_linker_0, # of connection points: 2
#     Edge 52, Type (0, 0), BuildingBlock: ZUJKAS_clean_linker_0, # of connection points: 2
#     Edge 53, Type (0, 0), BuildingBlock: ZUJKAS_clean_linker_0, # of connection points: 2
#     Edge 54, Type (0, 0), BuildingBlock: ZUJKAS_clean_linker_0, # of connection points: 2
#     Edge 55, Type (0, 0), BuildingBlock: ZUJKAS_clean_linker_0, # of connection points: 2
#     Edge 56, Type (0, 0), BuildingBlock: ZUJKAS_clean_linker_0, # of connection points: 2
#     Edge 57, Type (0, 0), BuildingBlock: ZUJKAS_clean_linker_0, # of connection points: 2
#     Edge 58, Type (0, 0), BuildingBlock: ZUJKAS_clean_linker_0, # of connection points: 2
#     Edge 59, Type (0, 0), BuildingBlock: ZUJKAS_clean_linker_0, # of connection points: 2
#     Edge 60, Type (0, 0), BuildingBlock: ZUJKAS_clean_linker_0, # of connection points: 2
#     Edge 61, Type (0, 0), BuildingBlock: ZUJKAS_clean_linker_0, # of connection points: 2
#     Edge 62, Type (0, 0), BuildingBlock: ZUJKAS_clean_linker_0, # of connection points: 2
#     Edge 63, Type (0, 0), BuildingBlock: ZUJKAS_clean_linker_0, # of connection points: 2
# Relax obj value: 0.435
# Max RMSD: 0.305
# Mean RMSD: 0.305
data_MOF--net-wiu--node1-NUHQIS_clean_sbu_0--edge1-ZUJKAS_clean_linker_0
_symmetry_space_group_name_H-M    P1
_symmetry_Int_Tables_number       1
_symmetry_cell_setting            triclinic
loop_
_symmetry_equiv_pos_as_xyz
'x, y, z'
_cell_length_a     46.284066
_cell_length_b     46.389246
_cell_length_c     73.077237
_cell_angle_alpha  90.198302
_cell_angle_beta   90.230844
_cell_angle_gamma 89.956101
loop_
_atom_site_label
_atom_site_type_symbol
_atom_site_fract_x
_atom_site_fract_y
_atom_site_fract_z
_atom_type_partial_charge
Tb0 Tb 0.33499 0.14697 0.27323 0.0
Eu1 Eu 0.37855 0.09699 0.25835 0.0
C2 C 0.40008 0.16098 0.26574 0.0
C3 C 0.33426 0.12981 0.23017 0.0
C4 C 0.30054 0.21962 0.2773 0.0
C5 C 0.31815 0.26677 0.2678 0.0
C6 C 0.32354 0.23872 0.27401 0.0
C7 C 0.27216 0.22914 0.27421 0.0
C8 C 0.26678 0.2571 0.26788 0.0
C9 C 0.28969 0.27629 0.26461 0.0
C10 C 0.30555 0.1898 0.28386 0.0
O11 O 0.30978 0.1077 0.27576 0.0
O12 O 0.33348 0.07962 0.25465 0.0
O13 O 0.37424 0.08526 0.28816 0.0
O14 O 0.34891 0.12464 0.29893 0.0
C15 C 0.31045 0.08563 0.26442 0.0
O16 O 0.39228 0.0525 0.25351 0.0
O17 O 0.41985 0.08807 0.24557 0.0
O18 O 0.40565 0.13391 0.26925 0.0
O19 O 0.37336 0.1686 0.26219 0.0
O20 O 0.32124 0.14208 0.2443 0.0
O21 O 0.35895 0.11584 0.23228 0.0
C22 C 0.36267 0.09984 0.30176 0.0
O23 O 0.29532 0.16918 0.27357 0.0
O24 O 0.33129 0.18358 0.29007 0.0
C25 C 0.42145 0.04699 0.22724 0.0
C26 C 0.43798 0.03095 0.19165 0.0
C27 C 0.45615 0.02519 0.20669 0.0
C28 C 0.44794 0.03321 0.22434 0.0
C29 C 0.40251 0.05139 0.21249 0.0
C30 C 0.41069 0.04338 0.1948 0.0
C31 C 0.41579 0.06027 0.24504 0.0
H32 H 0.33631 0.28089 0.26524 0.0
H33 H 0.3457 0.23201 0.27616 0.0
H34 H 0.25406 0.2149 0.27669 0.0
H35 H 0.2446 0.26381 0.26579 0.0
H36 H 0.47745 1.01603 0.20474 0.0
H37 H 0.46291 0.02998 0.23559 0.0
H38 H 0.38199 0.06215 0.21455 0.0
H39 H 0.39609 0.04777 0.18353 0.0
Tb40 Tb 0.63804 0.58353 0.5216 0.0
Eu41 Eu 0.68863 0.62607 0.50665 0.0
C42 C 0.62458 0.64862 0.51391 0.0
C43 C 0.65526 0.58202 0.47856 0.0
C44 C 0.56525 0.54932 0.52579 0.0
C45 C 0.51795 0.56685 0.5161 0.0
C46 C 0.54616 0.57226 0.52223 0.0
C47 C 0.5556 0.52096 0.52303 0.0
C48 C 0.5275 0.51555 0.51678 0.0
C49 C 0.5083 0.53842 0.51325 0.0
C50 C 0.5952 0.55435 0.53229 0.0
O51 O 0.67735 0.55851 0.52495 0.0
O52 O 0.70531 0.58064 0.50329 0.0
O53 O 0.70017 0.62213 0.53655 0.0
O54 O 0.6603 0.59782 0.54733 0.0
C55 C 0.69922 0.55823 0.51354 0.0
O56 O 0.73359 0.63923 0.5028 0.0
O57 O 0.69856 0.66633 0.49304 0.0
O58 O 0.65191 0.65398 0.51707 0.0
O59 O 0.61651 0.62201 0.5106 0.0
O60 O 0.6427 0.56945 0.49269 0.0
O61 O 0.66972 0.60637 0.4806 0.0
C62 C 0.68535 0.6112 0.55018 0.0
O63 O 0.61572 0.54402 0.52203 0.0
O64 O 0.60147 0.58009 0.53839 0.0
C65 C 0.74144 0.66705 0.47625 0.0
C66 C 0.76461 0.68326 0.44231 0.0
C67 C 0.7752 0.6955 0.45866 0.0
C68 C 0.76361 0.68749 0.4755 0.0
C69 C 0.73192 0.65356 0.46013 0.0
C70 C 0.7434 0.66161 0.44326 0.0
C71 C 0.72644 0.6622 0.49356 0.0
H72 H 0.50382 0.58495 0.51334 0.0
H73 H 0.55298 0.5944 0.52413 0.0
H74 H 0.56986 0.50291 0.52572 0.0
H75 H 0.52066 0.4934 0.51494 0.0
H76 H 0.79186 0.71187 0.45839 0.0
H77 H 0.77121 0.69804 0.48786 0.0
H78 H 0.71471 0.63777 0.46052 0.0
H79 H 0.73458 0.65195 0.43094 0.0
Tb80 Tb 0.20304 0.88534 0.77282 0.0
Eu81 Eu 0.15983 0.93562 0.75805 0.0
C82 C 0.13789 0.87154 0.76513 0.0
C83 C 0.20303 0.90215 0.7297 0.0
C84 C 0.23776 0.81289 0.77691 0.0
C85 C 0.22021 0.76662 0.76553 0.0
C86 C 0.21479 0.79469 0.77178 0.0
C87 C 0.26615 0.80253 0.77558 0.0
C88 C 0.27159 0.77456 0.76921 0.0
C89 C 0.24869 0.75624 0.7641 0.0
C90 C 0.23271 0.8427 0.78347 0.0
O91 O 0.22846 0.92449 0.77561 0.0
O92 O 0.20512 0.95241 0.7543 0.0
O93 O 0.1648 0.94751 0.78784 0.0
O94 O 0.18878 0.90736 0.79858 0.0
C95 C 0.22811 0.94631 0.76417 0.0
O96 O 0.1471 0.98032 0.75269 0.0
O97 O 0.11776 0.94517 0.74646 0.0
O98 O 0.13251 0.89871 0.76857 0.0
O99 O 0.16455 0.86363 0.76176 0.0
O100 O 0.21616 0.88985 0.7438 0.0
O101 O 0.17854 0.91643 0.73185 0.0
C102 C 0.17566 0.93249 0.80146 0.0
O103 O 0.20696 0.84882 0.78958 0.0
O104 O 0.24278 0.86323 0.7732 0.0
C105 C 0.11481 0.98565 0.72772 0.0
C106 C 0.09109 1.00251 0.69395 0.0
C107 C 0.08183 1.01557 0.71032 0.0
C108 C 0.09356 1.00709 0.72709 0.0
C109 C 0.12557 0.97398 0.71138 0.0
C110 C 0.11379 0.98235 0.6946 0.0
C111 C 0.12249 0.97281 0.74533 0.0
H112 H 0.2021 0.75319 0.76153 0.0
H113 H 0.19265 0.80214 0.77254 0.0
H114 H 0.2842 0.81613 0.77946 0.0
H115 H 0.29376 0.76716 0.7685 0.0
H116 H 0.06474 0.03153 0.71022 0.0
H117 H 0.08504 0.01627 0.73961 0.0
H118 H 0.14191 0.95725 0.71168 0.0
H119 H 0.12126 0.97171 0.68228 0.0
Tb120 Tb 0.89631 0.44719 1.02108 0.0
Eu121 Eu 0.84524 0.40514 1.00523 0.0
C122 C 0.90918 0.3819 1.01268 0.0
C123 C 0.87969 0.44928 0.97792 0.0
C124 C 0.9691 0.4814 1.02602 0.0
C125 C 1.0158 0.46462 1.01489 0.0
C126 C 0.98774 0.45877 1.021 0.0
C127 C 0.97905 0.50989 1.02478 0.0
C128 C 1.00698 0.51575 1.01856 0.0
C129 C 0.02572 0.4932 1.01352 0.0
C130 C 0.93927 0.47596 1.03241 0.0
O131 O 0.85723 0.47273 1.02402 0.0
O132 O 0.8294 0.45081 1.00198 0.0
O133 O 0.83389 0.40844 1.03526 0.0
O134 O 0.87371 0.43283 1.04645 0.0
C135 C 0.83559 0.47321 1.01233 0.0
O136 O 0.80006 0.39265 1.00112 0.0
O137 O 0.8346 0.36603 0.99025 0.0
O138 O 0.88172 0.37648 1.01524 0.0
O139 O 0.91751 0.40857 1.00996 0.0
O140 O 0.89247 0.46143 0.99224 0.0
O141 O 0.86464 0.42527 0.97964 0.0
C142 C 0.84868 0.4194 1.04906 0.0
O143 O 0.93314 0.44994 1.03792 0.0
O144 O 0.91861 0.48667 1.02236 0.0
C145 C 0.79173 0.36855 0.97303 0.0
C146 C 0.7656 0.35911 0.9386 0.0
C147 C 0.75261 0.34879 0.95469 0.0
C148 C 0.76564 0.35341 0.97175 0.0
C149 C 0.80409 0.38005 0.95715 0.0
C150 C 0.79121 0.37532 0.9401 0.0
C151 C 0.80679 0.37075 0.99071 0.0
H152 H 0.02956 0.44678 1.01094 0.0
H153 H 0.98065 0.43657 1.0217 0.0
H154 H 0.96513 0.52769 1.02861 0.0
H155 H 1.01403 0.53798 1.01791 0.0
H156 H 0.73265 0.33666 0.95408 0.0
H157 H 0.75571 0.34453 0.9839 0.0
H158 H 0.82425 0.39183 0.95788 0.0
H159 H 0.80205 0.38331 0.92803 0.0
Tb160 Tb 0.65826 0.93312 0.96007 0.0
Eu161 Eu 0.70181 0.88376 0.94496 0.0
C162 C 0.72508 0.94615 0.95473 0.0
C163 C 0.67278 0.93194 0.91701 0.0
C164 C 0.61449 0.98267 0.9897 0.0
C165 C 0.58413 0.01671 1.00593 0.0
C166 C 0.59577 1.00638 0.98958 0.0
C167 C 0.623 0.97053 1.00642 0.0
C168 C 0.61127 0.98074 1.02278 0.0
C169 C 0.59091 1.00329 1.02264 0.0
C170 C 0.6216 0.9685 0.97234 0.0
O171 O 0.6315 0.89695 0.95002 0.0
O172 O 0.66262 0.86075 0.9562 0.0
O173 O 0.71488 0.88901 0.97496 0.0
O174 O 0.67639 0.91541 0.98579 0.0
C175 C 0.63612 0.86952 0.95341 0.0
O176 O 0.7433 0.86143 0.94406 0.0
O177 O 0.70758 0.84597 0.9275 0.0
O178 O 0.72644 0.92519 0.94267 0.0
O179 O 0.7018 0.95029 0.96473 0.0
O180 O 0.66222 0.94583 0.93127 0.0
O181 O 0.68618 0.90688 0.91892 0.0
C182 C 0.70102 0.90149 0.98863 0.0
O183 O 0.64533 0.97629 0.9642 0.0
O184 O 0.61818 0.94063 0.97213 0.0
C185 C 0.73893 0.81131 0.94017 0.0
C186 C 0.75014 0.75523 0.95327 0.0
C187 C 0.72805 0.77212 0.96103 0.0
C188 C 0.72254 0.79994 0.95456 0.0
C189 C 0.76083 0.79457 0.93231 0.0
C190 C 0.76641 0.76677 0.9388 0.0
C191 C 0.73362 0.84075 0.93358 0.0
H192 H 0.56895 0.03447 1.00541 0.0
H193 H 0.58905 1.01601 0.97676 0.0
H194 H 0.63738 0.95211 1.00674 0.0
H195 H 0.6168 0.96976 1.03537 0.0
H196 H 0.71536 0.76406 0.97233 0.0
H197 H 0.70563 0.81268 0.96086 0.0
H198 H 0.77366 0.80303 0.92119 0.0
H199 H 0.78331 0.75422 0.93236 0.0
Tb200 Tb 0.35053 0.40812 0.71035 0.0
Eu201 Eu 0.40038 0.45067 0.69517 0.0
C202 C 0.33802 0.47479 0.70439 0.0
C203 C 0.35218 0.4213 0.66717 0.0
C204 C 0.30025 0.366 0.7401 0.0
C205 C 0.26699 0.33577 0.75688 0.0
C206 C 0.27752 0.34613 0.74028 0.0
C207 C 0.31115 0.37686 0.75667 0.0
C208 C 0.30072 0.36645 0.77328 0.0
C209 C 0.27922 0.34502 0.77354 0.0
C210 C 0.31479 0.37211 0.72278 0.0
O211 O 0.38676 0.38103 0.70079 0.0
O212 O 0.42293 0.41194 0.70741 0.0
O213 O 0.39517 0.46462 0.72497 0.0
O214 O 0.36824 0.42682 0.73602 0.0
C215 C 0.41416 0.38551 0.70464 0.0
O216 O 0.42305 0.49183 0.69375 0.0
O217 O 0.43848 0.45535 0.67798 0.0
O218 O 0.35914 0.47569 0.69249 0.0
O219 O 0.33348 0.45173 0.71447 0.0
O220 O 0.33787 0.4116 0.68145 0.0
O221 O 0.37755 0.43416 0.66915 0.0
C222 C 0.38247 0.45128 0.7387 0.0
O223 O 0.30721 0.39542 0.71409 0.0
O224 O 0.34273 0.36865 0.72303 0.0
C225 C 0.47329 0.48698 0.69031 0.0
C226 C 0.52949 0.49838 0.70355 0.0
C227 C 0.51256 0.47656 0.71145 0.0
C228 C 0.48468 0.47096 0.70491 0.0
C229 C 0.49006 0.5086 0.6823 0.0
C230 C 0.51793 0.51427 0.68886 0.0
C231 C 0.4438 0.48156 0.68361 0.0
H232 H 0.25005 0.31966 0.75665 0.0
H233 H 0.26885 0.33757 0.72758 0.0
H234 H 0.32881 0.39215 0.75673 0.0
H235 H 0.31077 0.37388 0.78585 0.0
H236 H 0.52066 0.46416 0.72291 0.0
H237 H 0.47191 0.45426 0.71133 0.0
H238 H 0.48158 0.52114 0.67101 0.0
H239 H 0.53051 0.53096 0.68231 0.0
Tb240 Tb 0.87577 0.09774 0.46124 0.0
Eu241 Eu 0.83318 0.14777 0.44608 0.0
C242 C 0.80874 0.08581 0.45557 0.0
C243 C 0.86212 0.09951 0.41806 0.0
C244 C 0.91745 0.04668 0.4908 0.0
C245 C 0.94702 1.01269 0.50764 0.0
C246 C 0.9371 0.02374 0.49102 0.0
C247 C 0.90634 0.05729 0.50733 0.0
C248 C 0.91631 0.04636 0.52397 0.0
C249 C 0.93752 0.02462 0.5243 0.0
C250 C 0.91166 0.0616 0.47355 0.0
O251 O 0.90311 0.13345 0.4514 0.0
O252 O 0.87263 0.17018 0.45764 0.0
O253 O 0.82011 0.14318 0.47609 0.0
O254 O 0.85771 0.11552 0.48698 0.0
C255 C 0.89895 0.16099 0.45482 0.0
O256 O 0.79208 0.17091 0.44506 0.0
O257 O 0.82796 0.18528 0.42848 0.0
O258 O 0.80772 0.10682 0.44361 0.0
O259 O 0.83203 0.08117 0.46557 0.0
O260 O 0.87169 0.08509 0.43237 0.0
O261 O 0.8494 0.12492 0.42003 0.0
C262 C 0.83355 0.13024 0.48977 0.0
O263 O 0.88832 0.05438 0.46463 0.0
O264 O 0.91528 0.08945 0.47407 0.0
C265 C 0.79729 0.22089 0.44085 0.0
C266 C 0.78706 0.27754 0.45354 0.0
C267 C 0.81176 0.26223 0.45925 0.0
C268 C 0.81677 0.23414 0.453 0.0
C269 C 0.77272 0.23601 0.43507 0.0
C270 C 0.76762 0.26406 0.44135 0.0
C271 C 0.80209 0.19116 0.4345 0.0
H272 H 0.96297 0.99561 0.50746 0.0
H273 H 0.94582 1.01529 0.47834 0.0
H274 H 0.89121 0.07509 0.50736 0.0
H275 H 0.90873 0.05621 0.53652 0.0
H276 H 0.82735 0.27201 0.46844 0.0
H277 H 0.83585 0.22274 0.45768 0.0
H278 H 0.75734 0.22602 0.42581 0.0
H279 H 0.74815 0.27499 0.43691 0.0
Tb280 Tb 0.1857 0.62331 0.21089 0.0
Eu281 Eu 0.13567 0.58102 0.19478 0.0
C282 C 0.19771 0.55655 0.20493 0.0
C283 C 0.18414 0.61035 0.16745 0.0
C284 C 0.23764 0.6628 0.24106 0.0
C285 C 0.26489 0.69528 0.26054 0.0
C286 C 0.25454 0.68756 0.24326 0.0
C287 C 0.23254 0.64482 0.25609 0.0
C288 C 0.24283 0.65256 0.27343 0.0
C289 C 0.25835 0.67837 0.27591 0.0
C290 C 0.22242 0.65827 0.22372 0.0
O291 O 0.14955 0.65153 0.20248 0.0
O292 O 0.11232 0.62022 0.20582 0.0
O293 O 0.13967 0.56774 0.22481 0.0
O294 O 0.16811 0.60436 0.23628 0.0
C295 C 0.12176 0.64674 0.20469 0.0
O296 O 0.11332 0.53967 0.19314 0.0
O297 O 0.09818 0.57563 0.17691 0.0
O298 O 0.17694 0.55581 0.19266 0.0
O299 O 0.20208 0.57955 0.21519 0.0
O300 O 0.19826 0.61993 0.18196 0.0
O301 O 0.15872 0.5976 0.16908 0.0
C302 C 0.15289 0.58051 0.2387 0.0
O303 O 0.22924 0.63541 0.21427 0.0
O304 O 0.19456 0.66202 0.2245 0.0
C305 C 0.06321 0.5441 0.18879 0.0
C306 C 1.00676 0.53265 0.2012 0.0
C307 C 0.02345 0.55455 0.20939 0.0
C308 C 0.05146 0.56018 0.20326 0.0
C309 C 0.04667 0.52241 0.18049 0.0
C310 C 0.01867 0.5167 0.18663 0.0
C311 C 0.09285 0.54953 0.18257 0.0
H312 H 0.27644 0.71546 0.262 0.0
H313 H 0.25846 0.70174 0.23178 0.0
H314 H 0.21951 0.62558 0.25454 0.0
H315 H 0.23774 0.63893 0.28498 0.0
H316 H 1.01509 0.56697 0.22077 0.0
H317 H 0.06405 0.57693 0.2099 0.0
H318 H 0.05544 0.50981 0.1693 0.0
H319 H 1.00628 0.49994 0.17988 0.0
Tb320 Tb 0.83626 0.64818 0.77198 0.0
Eu321 Eu 0.87917 0.59778 0.75702 0.0
C322 C 0.90144 0.66167 0.76459 0.0
C323 C 0.83566 0.63121 0.72883 0.0
C324 C 0.80192 0.72074 0.77593 0.0
C325 C 0.81974 0.7668 0.76469 0.0
C326 C 0.82501 0.73887 0.77114 0.0
C327 C 0.77355 0.73104 0.77409 0.0
C328 C 0.76827 0.75886 0.76752 0.0
C329 C 0.79129 0.77711 0.76274 0.0
C330 C 0.80682 0.691 0.78259 0.0
O331 O 0.81091 0.60905 0.77475 0.0
O332 O 0.8338 0.58105 0.75327 0.0
O333 O 0.87422 0.58579 0.78671 0.0
O334 O 0.85042 0.62596 0.79766 0.0
C335 C 0.81104 0.58716 0.76328 0.0
O336 O 0.89182 0.55305 0.75161 0.0
O337 O 0.92099 0.58814 0.74524 0.0
O338 O 0.90669 0.63447 0.76793 0.0
O339 O 0.87481 0.66968 0.76112 0.0
O340 O 0.82267 0.64344 0.74299 0.0
O341 O 0.86023 0.61705 0.73092 0.0
C342 C 0.86339 0.60072 0.80039 0.0
O343 O 0.79659 0.67038 0.77231 0.0
O344 O 0.83257 0.68482 0.78879 0.0
C345 C 0.92342 0.54747 0.72646 0.0
C346 C 0.94583 0.52982 0.69253 0.0
C347 C 0.95555 0.51698 0.70885 0.0
C348 C 0.94448 0.52584 0.7257 0.0
C349 C 0.91224 0.559 0.71019 0.0
C350 C 0.92337 0.55025 0.69334 0.0
C351 C 0.91624 0.56049 0.74413 0.0
H352 H 0.83795 0.78017 0.76095 0.0
H353 H 0.84713 0.73147 0.77229 0.0
H354 H 0.75541 0.71748 0.7777 0.0
H355 H 0.74612 0.76622 0.76638 0.0
H356 H 0.97246 0.50083 0.70865 0.0
H357 H 0.95331 0.51676 0.73817 0.0
H358 H 0.89605 0.57586 0.71059 0.0
H359 H 0.91557 0.56074 0.68106 0.0
Tb360 Tb 0.13587 0.08239 1.02307 0.0
Eu361 Eu 0.18541 0.12618 1.00836 0.0
C362 C 0.12099 0.147 1.01537 0.0
C363 C 0.15265 0.08202 0.98005 0.0
C364 C 0.06378 0.0478 1.02722 0.0
C365 C 0.02692 0.05259 1.00358 0.0
C366 C 0.05504 0.05778 1.00995 0.0
C367 C 0.04398 0.03286 1.03811 0.0
C368 C 1.01584 0.02774 1.03179 0.0
C369 C 1.00696 0.03743 1.01441 0.0
C370 C 0.09341 0.05279 1.03398 0.0
O371 O 0.1755 0.05757 1.02569 0.0
O372 O 0.20291 0.08124 1.00438 0.0
O373 O 0.19788 0.12126 1.03807 0.0
O374 O 0.15806 0.09683 1.0488 0.0
C375 C 0.19725 0.05824 1.01418 0.0
O376 O 0.22984 0.13972 1.00272 0.0
O377 O 0.19391 0.16828 0.99682 0.0
O378 O 0.14803 0.15279 1.01912 0.0
O379 O 0.11372 0.12028 1.01174 0.0
O380 O 0.14068 0.06877 0.99413 0.0
O381 O 0.16627 0.10686 0.98222 0.0
C382 C 0.18315 0.11011 1.05167 0.0
O383 O 0.11412 0.04269 1.02378 0.0
O384 O 0.09906 0.07885 1.0397 0.0
C385 C 0.23397 0.1718 0.97773 0.0
C386 C 0.2498 0.19499 0.94373 0.0
C387 C 0.26266 0.20515 0.95999 0.0
C388 C 0.2547 0.19368 0.97687 0.0
C389 C 0.22244 0.16028 0.96151 0.0
C390 C 0.2303 0.17179 0.94461 0.0
C391 C 0.22167 0.16407 0.99546 0.0
H392 H 0.02074 0.06067 0.99024 0.0
H393 H 0.07 0.06952 1.00139 0.0
H394 H 0.05035 0.02498 1.05147 0.0
H395 H 1.0012 1.0157 1.04039 0.0
H396 H 0.27813 0.22265 0.95972 0.0
H397 H 0.26375 0.2028 0.98931 0.0
H398 H 0.20622 0.14347 0.96198 0.0
H399 H 0.21983 0.16362 0.93237 0.0
Tb400 Tb 0.70172 0.38404 0.27145 0.0
Eu401 Eu 0.65845 0.43423 0.25672 0.0
C402 C 0.6366 0.37037 0.26405 0.0
C403 C 0.70157 0.40067 0.22833 0.0
C404 C 0.73544 0.31152 0.27569 0.0
C405 C 0.7241 0.27246 0.25453 0.0
C406 C 0.7196 0.30072 0.26075 0.0
C407 C 0.75577 0.29374 0.28432 0.0
C408 C 0.76033 0.26552 0.27811 0.0
C409 C 0.7446 0.2545 0.2631 0.0
C410 C 0.73108 0.34126 0.28229 0.0
O411 O 0.72719 0.42315 0.27414 0.0
O412 O 0.70369 0.45097 0.25284 0.0
O413 O 0.66376 0.44642 0.28643 0.0
O414 O 0.68769 0.40626 0.2972 0.0
C415 C 0.72673 0.44493 0.26268 0.0
O416 O 0.64563 0.47888 0.25133 0.0
O417 O 0.61635 0.44367 0.24513 0.0
O418 O 0.63128 0.39751 0.26759 0.0
O419 O 0.66317 0.36256 0.26037 0.0
O420 O 0.71488 0.38854 0.24242 0.0
O421 O 0.67699 0.41478 0.23053 0.0
C422 C 0.67469 0.43147 0.30006 0.0
O423 O 0.7412 0.36159 0.27188 0.0
O424 O 0.70525 0.34745 0.28819 0.0
C425 C 0.61351 0.48402 0.22628 0.0
C426 C 0.59034 0.50082 0.19236 0.0
C427 C 0.58079 0.51388 0.20866 0.0
C428 C 0.59224 0.50543 0.22551 0.0
C429 C 0.62452 0.47231 0.21003 0.0
C430 C 0.61302 0.48064 0.19318 0.0
C431 C 0.62105 0.47131 0.24396 0.0
H432 H 0.71185 0.26487 0.24282 0.0
H433 H 0.70385 0.31419 0.25385 0.0
H434 H 0.76815 0.30168 0.2959 0.0
H435 H 0.77598 0.25223 0.28522 0.0
H436 H 0.56371 0.52985 0.20844 0.0
H437 H 0.58353 0.51464 0.23797 0.0
H438 H 0.64087 0.45561 0.21045 0.0
H439 H 0.6207 0.46999 0.18091 0.0
Tb440 Tb 0.39926 0.94928 0.52304 0.0
Eu441 Eu 0.34959 0.90579 0.5077 0.0
C442 C 0.41384 0.88453 0.51526 0.0
C443 C 0.38269 0.94988 0.47985 0.0
C444 C 0.47156 0.98365 0.5282 0.0
C445 C 0.51264 0.97054 0.50921 0.0
C446 C 0.48429 0.96556 0.51507 0.0
C447 C 0.48746 1.00682 0.53532 0.0
C448 C 0.51575 1.01188 0.52944 0.0
C449 C 0.52878 0.9938 0.51632 0.0
C450 C 0.44168 0.97886 0.53442 0.0
O451 O 0.35979 0.97444 0.52532 0.0
O452 O 0.3322 0.95076 0.50385 0.0
O453 O 0.33704 0.91065 0.53735 0.0
O454 O 0.3768 0.935 0.54854 0.0
C455 C 0.33802 0.97381 0.5137 0.0
O456 O 0.30512 0.89214 0.50218 0.0
O457 O 0.34102 0.86402 0.49545 0.0
O458 O 0.3867 0.87891 0.51865 0.0
O459 O 0.42137 0.9112 0.51187 0.0
O460 O 0.39478 0.96288 0.49411 0.0
O461 O 0.36874 0.92522 0.48176 0.0
C462 C 0.35168 0.92172 0.55114 0.0
O463 O 0.42137 0.98887 0.52382 0.0
O464 O 0.43565 0.95297 0.54017 0.0
C465 C 0.3003 0.86071 0.47676 0.0
C466 C 0.28498 0.83953 0.44198 0.0
C467 C 0.27648 0.82483 0.45788 0.0
C468 C 0.28415 0.83535 0.47514 0.0
C469 C 0.30737 0.87642 0.46106 0.0
C470 C 0.29971 0.86593 0.44376 0.0
C471 C 0.31318 0.86803 0.49448 0.0
H472 H 0.522 0.95598 0.49925 0.0
H473 H 0.47233 0.94757 0.50936 0.0
H474 H 0.47793 0.02114 0.54537 0.0
H475 H 0.52724 0.03028 0.535 0.0
H476 H 0.26545 0.80429 0.457 0.0
H477 H 0.2788 0.82286 0.48716 0.0
H478 H 0.31998 0.89602 0.46214 0.0
H479 H 0.30623 0.87791 0.43177 0.0
Tb480 Tb 0.16085 0.43256 0.45951 0.0
Eu481 Eu 0.20342 0.38253 0.44431 0.0
C482 C 0.22776 0.44471 0.45414 0.0
C483 C 0.17468 0.43111 0.4165 0.0
C484 C 0.11838 0.48275 0.48924 0.0
C485 C 0.08817 0.51609 0.50614 0.0
C486 C 0.09854 0.50552 0.4895 0.0
C487 C 0.12922 0.47183 0.50577 0.0
C488 C 0.1188 0.4823 0.52242 0.0
C489 C 0.0974 0.50385 0.52275 0.0
C490 C 0.12454 0.46822 0.47187 0.0
O491 O 0.13377 0.39661 0.44944 0.0
O492 O 0.16429 0.36012 0.456 0.0
O493 O 0.21653 0.38688 0.4744 0.0
O494 O 0.17942 0.41529 0.48519 0.0
C495 C 0.13793 0.3692 0.45311 0.0
O496 O 0.24468 0.35984 0.44284 0.0
O497 O 0.20824 0.34459 0.42686 0.0
O498 O 0.22892 0.42348 0.44225 0.0
O499 O 0.20448 0.4494 0.46404 0.0
O500 O 0.16556 0.44567 0.43088 0.0
O501 O 0.18669 0.40534 0.41835 0.0
C502 C 0.20338 0.40026 0.48802 0.0
O503 O 0.14793 0.47578 0.46326 0.0
O504 O 0.12113 0.44034 0.47202 0.0
C505 C 0.24004 0.30973 0.43883 0.0
C506 C 0.25136 0.25323 0.45118 0.0
C507 C 0.23026 0.27038 0.45978 0.0
C508 C 0.22469 0.2984 0.45368 0.0
C509 C 0.26099 0.29277 0.43016 0.0
C510 C 0.26663 0.26477 0.43627 0.0
C511 C 0.23451 0.33925 0.43247 0.0
H512 H 0.07208 0.53305 0.50597 0.0
H513 H 0.09001 0.51419 0.47683 0.0
H514 H 0.14448 0.45413 0.50579 0.0
H515 H 0.1262 0.47223 0.53495 0.0
H516 H 0.21838 0.26233 0.47143 0.0
H517 H 0.20851 0.31129 0.46059 0.0
H518 H 0.273 0.30119 0.41866 0.0
H519 H 0.28274 0.25204 0.42919 0.0
Tb520 Tb 0.84923 0.90942 0.21027 0.0
Eu521 Eu 0.89921 0.95192 0.1951 0.0
C522 C 0.83489 0.97623 0.20248 0.0
C523 C 0.85065 0.92601 0.16719 0.0
C524 C 0.81123 0.85524 0.23799 0.0
C525 C 0.78932 0.81638 0.25514 0.0
C526 C 0.79162 0.83235 0.23902 0.0
C527 C 0.82867 0.86199 0.25314 0.0
C528 C 0.8263 0.84616 0.26925 0.0
C529 C 0.80657 0.82322 0.27044 0.0
C530 C 0.81355 0.87201 0.22113 0.0
O531 O 0.89092 0.88848 0.21699 0.0
O532 O 0.91627 0.90624 0.19319 0.0
O533 O 0.90067 0.9572 0.22652 0.0
O534 O 0.85965 0.93305 0.23538 0.0
C535 C 0.91276 0.88633 0.2056 0.0
O536 O 0.92419 0.99171 0.19631 0.0
O537 O 0.93638 0.95831 0.17719 0.0
O538 O 0.86074 0.98087 0.19584 0.0
O539 O 0.82632 0.95069 0.20821 0.0
O540 O 0.84403 0.90745 0.18019 0.0
O541 O 0.86944 0.94687 0.17029 0.0
C542 C 0.88109 0.95083 0.23907 0.0
O543 O 0.8099 0.89965 0.22298 0.0
O544 O 0.83583 0.86615 0.21095 0.0
C545 C 0.97361 0.98647 0.19023 0.0
C546 C 0.03071 0.99604 0.20241 0.0
C547 C 1.01361 0.97448 0.21046 0.0
C548 C 0.98526 0.96977 0.20443 0.0
C549 C 0.99068 1.00757 0.18193 0.0
C550 C 0.01899 1.01232 0.18795 0.0
C551 C 0.94335 0.98299 0.18454 0.0
H552 H 0.77376 0.79899 0.25572 0.0
H553 H 0.77804 0.8269 0.2274 0.0
H554 H 0.84409 0.87952 0.25249 0.0
H555 H 0.84014 0.85168 0.28073 0.0
H556 H 0.02186 0.96177 0.22173 0.0
H557 H 0.97225 0.95346 0.21105 0.0
H558 H 0.98199 0.02064 0.17095 0.0
H559 H 0.0317 0.02879 0.18128 0.0
Tb560 Tb 0.37341 0.59842 0.96035 0.0
Eu561 Eu 0.33102 0.64836 0.94504 0.0
C562 C 0.30646 0.5865 0.95472 0.0
C563 C 0.35959 0.59979 0.91722 0.0
C564 C 0.41527 0.54716 0.98976 0.0
C565 C 0.4449 0.51278 1.00622 0.0
C566 C 0.43468 0.52402 0.98972 0.0
C567 C 0.40462 0.55775 1.00641 0.0
C568 C 0.4149 0.54663 1.02293 0.0
C569 C 0.43596 0.52473 1.02299 0.0
C570 C 0.40933 0.56226 0.9726 0.0
O571 O 0.40077 0.63407 0.95039 0.0
O572 O 0.37036 0.67075 0.95678 0.0
O573 O 0.31774 0.64381 0.975 0.0
O574 O 0.35534 0.61631 0.98603 0.0
C575 C 0.39668 0.66158 0.95391 0.0
O576 O 0.32597 0.68605 0.92757 0.0
O577 O 0.2898 0.67125 0.94374 0.0
O578 O 0.30558 0.60737 0.94265 0.0
O579 O 0.32967 0.58196 0.96481 0.0
O580 O 0.36867 0.58529 0.93162 0.0
O581 O 0.34758 0.62555 0.91908 0.0
C582 C 0.33113 0.63097 0.98874 0.0
O583 O 0.38598 0.55506 0.96368 0.0
O584 O 0.4129 0.59012 0.9732 0.0
C585 C 0.29471 0.72131 0.9398 0.0
C586 C 0.28351 0.77758 0.95278 0.0
C587 C 0.30859 0.76274 0.9583 0.0
C588 C 0.31408 0.73482 0.95192 0.0
C589 C 0.26979 0.73602 0.93418 0.0
C590 C 0.26421 0.7639 0.94061 0.0
C591 C 0.29992 0.69169 0.93337 0.0
H592 H 0.46071 0.49557 1.00585 0.0
H593 H 0.44302 0.51556 0.97695 0.0
H594 H 0.38963 0.57567 1.00664 0.0
H595 H 0.40773 0.55647 1.03558 0.0
H596 H 0.3237 0.7725 0.96783 0.0
H597 H 0.33334 0.72368 0.95655 0.0
H598 H 0.25458 0.72588 0.92487 0.0
H599 H 0.24488 0.77483 0.93593 0.0
Tb600 Tb 0.68812 0.12321 0.71214 0.0
Eu601 Eu 0.63719 0.08263 0.69533 0.0
C602 C 0.6999 0.05656 0.70292 0.0
C603 C 0.68757 0.11019 0.66897 0.0
C604 C 0.72257 0.17998 0.73996 0.0
C605 C 0.74457 0.21827 0.75788 0.0
C606 C 0.74623 0.1978 0.74383 0.0
C607 C 0.69698 0.18319 0.74998 0.0
C608 C 0.69534 0.20351 0.76409 0.0
C609 C 0.71922 0.22106 0.76832 0.0
C610 C 0.7248 0.15755 0.72584 0.0
O611 O 0.65159 0.15265 0.70658 0.0
O612 O 0.61424 0.12095 0.70779 0.0
O613 O 0.64308 0.06764 0.72486 0.0
O614 O 0.66576 0.10745 0.73678 0.0
C615 C 0.6237 0.14753 0.70785 0.0
O616 O 0.61373 0.04198 0.69303 0.0
O617 O 0.59912 0.07912 0.67773 0.0
O618 O 0.67696 0.05552 0.69232 0.0
O619 O 0.70648 0.07968 0.71261 0.0
O620 O 0.7028 0.11616 0.68382 0.0
O621 O 0.66053 0.10117 0.67026 0.0
C622 C 0.6537 0.08187 0.73902 0.0
O623 O 0.72072 0.13134 0.73152 0.0
O624 O 0.7107 0.16248 0.71073 0.0
C625 C 0.56363 0.04779 0.68935 0.0
C626 C 0.50754 0.03633 0.70248 0.0
C627 C 0.5247 0.05788 0.71067 0.0
C628 C 0.55252 0.06351 0.70419 0.0
C629 C 0.54659 0.02652 0.68102 0.0
C630 C 0.51878 0.02083 0.68751 0.0
C631 C 0.59324 0.05288 0.68291 0.0
H632 H 0.76341 0.23128 0.76095 0.0
H633 H 0.76613 0.19556 0.73619 0.0
H634 H 0.67842 0.16968 0.74706 0.0
H635 H 0.67544 0.20539 0.77175 0.0
H636 H 0.51687 0.06998 0.72234 0.0
H637 H 0.5655 0.07991 0.71088 0.0
H638 H 0.55485 1.01419 0.66955 0.0
H639 H 0.50602 1.00436 0.68073 0.0
H640 H 0.45874 0.15148 0.26827 0.0
H641 H 0.49802 0.18686 0.26781 0.0
H642 H 0.43594 0.25545 0.26189 0.0
H643 H 0.39648 0.22017 0.26228 0.0
H644 H 0.51322 0.22775 0.24046 0.0
H645 H 0.48555 0.28291 0.30557 0.0
H646 H 0.47104 0.24806 0.29942 0.0
H647 H 0.45646 0.28019 0.28929 0.0
C648 C 0.45331 0.17409 0.26692 0.0
C649 C 0.42418 0.18278 0.26541 0.0
C650 C 0.47594 0.19438 0.26662 0.0
C651 C 0.4702 0.22407 0.26506 0.0
C652 C 0.44115 0.23283 0.26343 0.0
H653 H 0.57798 0.38013 0.26626 0.0
H654 H 0.53862 0.34491 0.26589 0.0
C655 C 0.4185 0.21251 0.26357 0.0
C656 C 0.49457 0.24567 0.26489 0.0
H657 H 0.52296 0.30359 0.28805 0.0
C658 C 0.51537 0.24427 0.25091 0.0
C659 C 0.49756 0.26747 0.27841 0.0
C660 C 0.47666 0.26975 0.29413 0.0
C661 C 0.53847 0.26418 0.24988 0.0
C662 C 0.5417 0.28585 0.26355 0.0
C663 C 0.52083 0.28718 0.27753 0.0
C664 C 0.56624 0.30742 0.26356 0.0
C665 C 0.55859 0.26227 0.23373 0.0
C666 C 0.59536 0.29856 0.2626 0.0
C667 C 0.61805 0.31883 0.26261 0.0
C668 C 0.61243 0.34864 0.26391 0.0
C669 C 0.58334 0.35745 0.26521 0.0
C670 C 0.56067 0.3372 0.26503 0.0
H671 H 0.54815 0.25128 0.2219 0.0
H672 H 0.56578 0.28397 0.2293 0.0
H673 H 0.57791 0.24948 0.23762 0.0
H674 H 0.60069 0.27586 0.26206 0.0
H675 H 0.64009 0.31105 0.2618 0.0
H676 H 0.63434 0.70716 0.51652 0.0
H677 H 0.59891 0.7465 0.51664 0.0
H678 H 0.52986 0.68483 0.51115 0.0
H679 H 0.56515 0.64537 0.511 0.0
H680 H 0.5571 0.76256 0.49007 0.0
H681 H 0.50368 0.73339 0.55522 0.0
H682 H 0.53828 0.71876 0.54861 0.0
H683 H 0.50559 0.70475 0.53866 0.0
C684 C 0.61162 0.70185 0.51538 0.0
C685 C 0.60281 0.67283 0.51384 0.0
C686 C 0.59129 0.7245 0.51541 0.0
C687 C 0.56146 0.7189 0.51416 0.0
C688 C 0.5526 0.68996 0.51248 0.0
H689 H 0.40458 0.82592 0.51702 0.0
H690 H 0.44014 0.78686 0.5162 0.0
C691 C 0.57292 0.66729 0.51229 0.0
C692 C 0.53979 0.74328 0.51438 0.0
H693 H 0.48215 0.77089 0.53807 0.0
C694 C 0.54079 0.76441 0.50062 0.0
C695 C 0.51824 0.7459 0.52804 0.0
C696 C 0.5164 0.72468 0.54358 0.0
C697 C 0.52072 0.78744 0.49991 0.0
C698 C 0.49928 0.79027 0.51369 0.0
C699 C 0.49836 0.76909 0.52746 0.0
C700 C 0.47748 0.81467 0.51401 0.0
C701 C 0.52219 0.80794 0.48395 0.0
C702 C 0.48613 0.8438 0.51328 0.0
C703 C 0.46565 0.86633 0.51356 0.0
C704 C 0.43582 0.86054 0.51489 0.0
C705 C 0.42724 0.83143 0.51595 0.0
C706 C 0.4477 0.80892 0.51552 0.0
H707 H 0.53305 0.79789 0.47199 0.0
H708 H 0.50032 0.81511 0.47966 0.0
H709 H 0.53495 0.82718 0.488 0.0
H710 H 0.50883 0.84925 0.5127 0.0
H711 H 0.47327 0.88837 0.51292 0.0
H712 H 0.14104 0.81221 0.76208 0.0
H713 H 0.10134 0.77715 0.76179 0.0
H714 H 0.03978 0.84631 0.76714 0.0
H715 H 0.07928 0.88143 0.76753 0.0
H716 H 0.05766 0.76677 0.78873 0.0
H717 H 1.0082 0.80046 0.72292 0.0
H718 H 0.04442 0.8107 0.72953 0.0
H719 H 1.01385 0.82909 0.73917 0.0
C720 C 0.11908 0.82005 0.76316 0.0
C721 C 0.11361 0.84987 0.76479 0.0
C722 C 0.09629 0.79987 0.76301 0.0
C723 C 0.06728 0.80887 0.7642 0.0
C724 C 0.06178 0.83862 0.76588 0.0
H725 H 0.89854 0.721 0.76172 0.0
H726 H 0.93829 0.75591 0.76213 0.0
C727 C 0.08455 0.85877 0.7662 0.0
C728 C 0.04291 0.78724 0.76405 0.0
H729 H 0.98221 0.7664 0.74037 0.0
C730 C 0.04125 0.76663 0.77809 0.0
C731 C 0.02117 0.78695 0.7503 0.0
C732 C 0.02198 0.80779 0.73452 0.0
C733 C 0.01843 0.74638 0.77898 0.0
C734 C 0.9968 0.74582 0.7651 0.0
C735 C 0.99852 0.76649 0.75105 0.0
C736 C 0.97231 0.72416 0.76489 0.0
C737 C 1.01732 0.72644 0.79523 0.0
C738 C 0.97766 0.69429 0.766 0.0
C739 C 0.95482 0.67422 0.76597 0.0
C740 C 0.9258 0.68324 0.7645 0.0
C741 C 0.92046 0.71308 0.76296 0.0
C742 C 0.94333 0.73317 0.76315 0.0
H743 H 0.02919 0.73556 0.80716 0.0
H744 H 0.99471 0.72208 0.79941 0.0
H745 H 0.02776 0.70567 0.79158 0.0
H746 H 0.99962 0.68634 0.76673 0.0
H747 H 0.96 0.65151 0.76696 0.0
H748 H 0.12969 0.20565 1.01806 0.0
H749 H 0.0937 0.24443 1.01739 0.0
H750 H 0.02584 0.18169 1.01086 0.0
H751 H 0.06173 0.14274 1.01152 0.0
H752 H 0.05312 0.25958 0.98997 0.0
H753 H 0.9967 0.23039 1.0541 0.0
H754 H 0.0318 0.21613 1.04828 0.0
H755 H 0.99983 0.20166 1.03768 0.0
C756 C 0.10711 0.19998 1.01654 0.0
C757 C 0.09881 0.17081 1.01492 0.0
C758 C 0.08646 0.22231 1.01612 0.0
C759 C 0.05678 0.21625 1.01433 0.0
C760 C 0.04843 0.18716 1.0126 0.0
H761 H 0.89934 0.32324 1.01405 0.0
H762 H 0.93471 0.28392 1.01382 0.0
C763 C 0.0691 0.1648 1.01287 0.0
C764 C 0.0348 0.24035 1.014 0.0
H765 H 0.97585 0.26772 1.03649 0.0
C766 C 0.03629 0.26137 1.00019 0.0
C767 C 1.01256 0.24288 1.02721 0.0
C768 C 1.01013 0.22175 1.04277 0.0
C769 C 1.01611 0.28426 0.99904 0.0
C770 C 0.99404 0.28706 1.01241 0.0
C771 C 0.99256 0.26594 1.02619 0.0
C772 C 0.97231 0.31152 1.01235 0.0
C773 C 0.01823 0.30467 0.98307 0.0
C774 C 0.98116 0.34058 1.01183 0.0
C775 C 0.96083 0.36323 1.01177 0.0
C776 C 0.93091 0.35765 1.01255 0.0
C777 C 0.92208 0.32859 1.01339 0.0
C778 C 0.94242 0.30594 1.0133 0.0
H779 H 0.02955 0.29454 0.9713 0.0
H780 H 0.99653 0.31184 0.97841 0.0
H781 H 0.03086 0.32392 0.98727 0.0
H782 H 1.00392 0.3459 1.01168 0.0
H783 H 0.96866 0.3852 1.0113 0.0
H784 H 0.57723 0.87975 0.95147 0.0
H785 H 0.53755 0.84471 0.95198 0.0
H786 H 0.59928 0.77532 0.95526 0.0
H787 H 0.63885 0.8102 0.95533 0.0
H788 H 0.52052 0.80289 0.93006 0.0
H789 H 0.54823 0.75098 0.99578 0.0
H790 H 0.56566 0.78357 0.98826 0.0
H791 H 0.57742 0.74898 0.97979 0.0
C792 C 0.58242 0.85704 0.95242 0.0
C793 C 0.61152 0.84808 0.95351 0.0
C794 C 0.55957 0.83687 0.95268 0.0
C795 C 0.56494 0.807 0.95408 0.0
C796 C 0.59405 0.79804 0.9548 0.0
H797 H 0.45542 0.6507 0.95144 0.0
H798 H 0.49547 0.68547 0.95127 0.0
C799 C 0.61687 0.81819 0.95467 0.0
C800 C 0.54027 0.78537 0.95431 0.0
H801 H 0.51279 0.72715 0.97748 0.0
C802 C 0.51886 0.78651 0.94055 0.0
C803 C 0.53758 0.76365 0.9679 0.0
C804 C 0.55827 0.76185 0.98387 0.0
C805 C 0.49564 0.76662 0.9398 0.0
C806 C 0.49314 0.7448 0.95328 0.0
C807 C 0.51451 0.74359 0.96703 0.0
C808 C 0.46843 0.72337 0.95347 0.0
C809 C 0.47426 0.76877 0.92423 0.0
C810 C 0.43954 0.73262 0.95504 0.0
C811 C 0.41653 0.7127 0.95525 0.0
C812 C 0.42153 0.68274 0.95386 0.0
C813 C 0.45049 0.67347 0.95244 0.0
C814 C 0.47354 0.69344 0.95238 0.0
H815 H 0.4831 0.78126 0.91259 0.0
H816 H 0.46791 0.74704 0.91922 0.0
H817 H 0.45452 0.77996 0.92911 0.0
H818 H 0.43471 0.75538 0.95628 0.0
H819 H 0.3947 0.72089 0.95644 0.0
H820 H 0.63411 0.20631 0.70983 0.0
H821 H 0.59893 0.24595 0.71002 0.0
H822 H 0.52932 0.18453 0.70664 0.0
H823 H 0.56419 0.14497 0.70689 0.0
H824 H 0.55998 0.26416 0.68574 0.0
H825 H 0.49939 0.23281 0.74757 0.0
H826 H 0.53319 0.21607 0.74145 0.0
H827 H 0.49999 0.20461 0.73074 0.0
C828 C 0.6113 0.20116 0.7093 0.0
C829 C 0.60226 0.17213 0.70849 0.0
C830 C 0.59107 0.22399 0.70937 0.0
C831 C 0.56107 0.21864 0.70871 0.0
C832 C 0.55207 0.18965 0.70773 0.0
H833 H 0.40416 0.32683 0.70129 0.0
H834 H 0.43942 0.28723 0.70207 0.0
C835 C 0.57224 0.16685 0.70774 0.0
C836 C 0.53939 0.24323 0.70845 0.0
H837 H 0.47791 0.2692 0.72902 0.0
C838 C 0.5422 0.26525 0.69533 0.0
C839 C 0.51584 0.24511 0.72085 0.0
C840 C 0.51203 0.22356 0.73606 0.0
C841 C 0.52219 0.28832 0.69403 0.0
C842 C 0.49858 0.29007 0.70635 0.0
C843 C 0.49574 0.26809 0.71947 0.0
C844 C 0.47685 0.31453 0.70594 0.0
C845 C 0.52617 0.31026 0.67907 0.0
C846 C 0.48561 0.34343 0.70812 0.0
C847 C 0.4654 0.36619 0.70772 0.0
C848 C 0.43561 0.36092 0.70517 0.0
C849 C 0.4268 0.33196 0.70319 0.0
C850 C 0.44706 0.30916 0.70367 0.0
H851 H 0.5399 0.30177 0.66783 0.0
H852 H 0.50506 0.317 0.67322 0.0
H853 H 0.53699 0.32961 0.68484 0.0
H854 H 0.5082 0.34846 0.71031 0.0
H855 H 0.47324 0.38803 0.70942 0.0
H856 H 0.13989 0.3099 0.45559 0.0
H857 H 0.09983 0.27548 0.45547 0.0
H858 H 0.03914 0.34571 0.45161 0.0
H859 H 0.07922 0.38019 0.45113 0.0
H860 H 0.05679 0.2649 0.47756 0.0
H861 H 1.00737 0.2969 0.41169 0.0
H862 H 0.04217 0.31017 0.41898 0.0
H863 H 1.00949 0.32646 0.42749 0.0
C864 C 0.11804 0.31813 0.45459 0.0
C865 C 0.11308 0.34807 0.45321 0.0
C866 C 0.09497 0.29827 0.45456 0.0
C867 C 0.06603 0.30754 0.45314 0.0
C868 C 0.06102 0.33752 0.45212 0.0
H869 H 0.89699 0.22035 0.45686 0.0
H870 H 0.93711 0.25479 0.45663 0.0
C871 C 0.08412 0.3574 0.452 0.0
C872 C 0.04137 0.28592 0.45318 0.0
H873 H 0.97981 0.26509 0.4302 0.0
C874 C 0.04014 0.26495 0.46708 0.0
C875 C 0.01927 0.28549 0.43959 0.0
C876 C 0.01973 0.30575 0.4235 0.0
C877 C 0.01758 0.24435 0.46798 0.0
C878 C 0.99539 0.24414 0.45451 0.0
C879 C 0.99656 0.26506 0.44062 0.0
C880 C 0.97079 0.22261 0.45466 0.0
C881 C 1.01735 0.22335 0.48369 0.0
C882 C 0.97583 0.19268 0.4534 0.0
C883 C 0.95274 0.17277 0.45342 0.0
C884 C 0.9238 0.18211 0.45474 0.0
C885 C 0.91883 0.2121 0.45591 0.0
C886 C 0.94189 0.23197 0.45574 0.0
H887 H 0.03128 0.23074 0.4952 0.0
H888 H 0.99506 0.22012 0.48887 0.0
H889 H 0.02566 0.20221 0.47889 0.0
H890 H 0.9977 0.18463 0.4522 0.0
H891 H 0.95763 0.14999 0.45243 0.0
H892 H 0.13133 0.70368 0.2143 0.0
H893 H 0.0963 0.74326 0.21619 0.0
H894 H 0.02918 0.68614 0.19696 0.0
H895 H 0.06369 0.64627 0.19633 0.0
H896 H 0.0668 0.77273 0.19511 0.0
H897 H 0.98412 0.71859 0.23661 0.0
H898 H 0.01887 0.70242 0.23249 0.0
H899 H 0.99001 0.69867 0.21595 0.0
C900 C 0.10903 0.69947 0.21063 0.0
C901 C 0.1005 0.67148 0.20535 0.0
C902 C 0.08882 0.72228 0.21169 0.0
C903 C 0.05937 0.71811 0.20722 0.0
C904 C 0.05115 0.69026 0.20134 0.0
H905 H 0.94827 0.86634 0.17843 0.0
H906 H 0.98247 0.82637 0.17906 0.0
C907 C 0.07117 0.6673 0.20075 0.0
C908 C 0.03776 0.74295 0.2081 0.0
H909 H 0.96878 0.76135 0.22109 0.0
C910 C 0.04549 0.77008 0.20097 0.0
C911 C 1.00983 0.74051 0.21609 0.0
C912 C 1.00036 0.71358 0.2259 0.0
C913 C 0.02646 0.79405 0.20124 0.0
C914 C 0.9978 0.791 0.20801 0.0
C915 C 0.99028 0.76409 0.21553 0.0
C916 C 0.97554 0.81525 0.20748 0.0
C917 C 0.03797 0.82268 0.19479 0.0
C918 C 0.95823 0.822 0.22282 0.0
C919 C 0.93762 0.84457 0.22227 0.0
C920 C 0.93383 0.86143 0.20642 0.0
C921 C 0.95077 0.85436 0.19103 0.0
C922 C 0.9708 0.83147 0.19145 0.0
H923 H 0.06176 0.82404 0.19671 0.0
H924 H 0.03351 0.82502 0.17994 0.0
H925 H 0.02788 0.84098 0.20223 0.0
H926 H 0.96087 0.81001 0.23541 0.0
H927 H 0.92503 0.84914 0.2344 0.0
H928 H 0.46944 0.98558 0.17818 0.0
H929 H 0.49339 0.98252 0.14844 0.0
H930 H 0.4548 0.06337 0.13261 0.0
H931 H 0.43162 0.06715 0.1625 0.0
H932 H 0.47234 0.98305 0.11237 0.0
H933 H 0.54197 0.07787 0.12729 0.0
H934 H 0.52122 0.05992 0.14473 0.0
H935 H 0.50386 0.0845 0.12923 0.0
C936 C 0.46598 1.00266 0.16835 0.0
C937 C 0.44887 0.02673 0.17277 0.0
C938 C 0.47956 1.00082 0.15135 0.0
C939 C 0.4763 0.02302 0.13854 0.0
C940 C 0.458 0.04629 0.14249 0.0
H941 H 0.53319 1.01454 1.02557 0.0
H942 H 0.50522 0.02127 1.05347 0.0
C943 C 0.44447 0.0482 0.15949 0.0
C944 C 0.4929 0.02226 0.12131 0.0
H945 H 0.54546 0.05757 1.09762 0.0
C946 C 0.48828 0.99934 0.1091 0.0
C947 C 0.51398 0.04337 0.11729 0.0
C948 C 0.52083 0.06769 0.13037 0.0
C949 C 0.50408 0.99706 1.09283 0.0
C950 C 0.52466 0.01854 1.08859 0.0
C951 C 0.52944 0.04134 1.10087 0.0
C952 C 0.54197 0.01724 1.07166 0.0
C953 C 0.49909 0.97132 1.08052 0.0
C954 C 0.57209 1.01413 1.07266 0.0
C955 C 0.58827 1.01074 1.05669 0.0
C956 C 0.57458 1.01053 1.03948 0.0
C957 C 0.54451 1.01491 1.03856 0.0
C958 C 0.52839 0.01837 1.05451 0.0
H959 H 0.48798 0.95353 1.08781 0.0
H960 H 0.48526 0.97785 1.0688 0.0
H961 H 0.51982 0.96304 1.07499 0.0
H962 H 0.58296 1.0135 1.08581 0.0
H963 H 0.61142 1.00779 1.05784 0.0
H964 H 0.77283 0.73959 0.43316 0.0
H965 H 0.78362 0.7593 0.40306 0.0
H966 H 0.7867 0.67337 0.38045 0.0
H967 H 0.77622 0.65329 0.4107 0.0
H968 H 0.83112 0.74841 0.37896 0.0
H969 H 0.72495 0.71601 0.34929 0.0
H970 H 0.73174 0.71653 0.37364 0.0
H971 H 0.74592 0.68785 0.35977 0.0
C972 C 0.77636 0.72479 0.4219 0.0
C973 C 0.77366 0.69484 0.42432 0.0
C974 C 0.78234 0.73612 0.40468 0.0
C975 C 0.78556 0.71779 0.38955 0.0
C976 C 0.78378 0.68786 0.39195 0.0
H977 H 0.8026 0.76474 0.27438 0.0
H978 H 0.79907 0.73751 0.30297 0.0
C979 C 0.77781 0.67645 0.40921 0.0
C980 C 0.79001 0.73033 0.37123 0.0
H981 H 0.75701 0.74065 0.32993 0.0
C982 C 0.81504 0.74659 0.36817 0.0
C983 C 0.76894 0.72783 0.35726 0.0
C984 C 0.74124 0.71131 0.36009 0.0
C985 C 0.8195 0.76068 0.35149 0.0
C986 C 0.79806 0.75886 0.33768 0.0
C987 C 0.77336 0.74199 0.34058 0.0
C988 C 0.80029 0.77524 0.32044 0.0
C989 C 0.84713 0.77735 0.34878 0.0
C990 C 0.80158 0.80545 0.32084 0.0
C991 C 0.80356 0.821 0.30459 0.0
C992 C 0.80399 0.80663 0.28763 0.0
C993 C 0.80213 0.77638 0.28725 0.0
C994 C 0.80026 0.76082 0.30353 0.0
H995 H 0.8645 0.76977 0.35814 0.0
H996 H 0.85486 0.77547 0.33446 0.0
H997 H 0.84315 0.80048 0.35178 0.0
H998 H 0.80081 0.81701 0.33373 0.0
H999 H 0.80438 0.84432 0.30529 0.0
H1000 H 0.11323 1.00877 0.6594 0.0
H1001 H 0.0861 1.0119 0.6306 0.0
H1002 H 1.00601 1.0099 0.66051 0.0
H1003 H 0.03277 1.00644 0.68923 0.0
H1004 H 0.04532 0.97031 0.61804 0.0
H1005 H 0.99582 0.0788 0.62576 0.0
H1006 H 0.02646 0.06722 0.63924 0.0
H1007 H 0.9907 0.05524 0.64493 0.0
C1008 C 0.08985 1.00922 0.65984 0.0
C1009 C 0.07516 1.00753 0.67661 0.0
C1010 C 0.07442 1.01106 0.64341 0.0
C1011 C 0.04412 1.01144 0.6435 0.0
C1012 C 0.02941 1.01025 0.6602 0.0
H1013 H 0.91294 0.01665 0.55804 0.0
H1014 H 0.93817 1.01045 0.58732 0.0
C1015 C 0.04477 1.00838 0.6766 0.0
C1016 C 0.02776 1.01142 0.62612 0.0
H1017 H 0.9787 0.04985 0.60122 0.0
C1018 C 0.03084 0.98774 0.61429 0.0
C1019 C 1.00874 0.03408 0.62143 0.0
C1020 C 1.00533 0.06042 0.63341 0.0
C1021 C 1.01514 0.986 0.59787 0.0
C1022 C 0.99628 1.00877 0.59311 0.0
C1023 C 0.99306 0.03235 0.60501 0.0
C1024 C 0.98086 1.00943 0.57538 0.0
C1025 C 0.01857 0.95966 0.5859 0.0
C1026 C 0.99655 1.01065 0.55905 0.0
C1027 C 0.98228 1.01428 0.54238 0.0
C1028 C 0.95201 0.01693 0.54175 0.0
C1029 C 0.93627 1.01488 0.55811 0.0
C1030 C 0.95061 1.01126 0.57481 0.0
H1031 H 0.02704 0.941 0.59376 0.0
H1032 H 0.99768 0.95347 0.57948 0.0
H1033 H 0.03416 0.96447 0.57482 0.0
H1034 H 0.01995 1.00996 0.55926 0.0
H1035 H 0.99512 0.01642 0.53011 0.0
H1036 H 0.74259 0.30738 0.92797 0.0
H1037 H 0.72849 0.29233 0.8972 0.0
H1038 H 0.74921 0.37675 0.87663 0.0
H1039 H 0.76269 0.39243 0.90757 0.0
H1040 H 0.68712 0.31931 0.86982 0.0
H1041 H 0.80295 0.31633 0.84915 0.0
H1042 H 0.7922 0.31603 0.87288 0.0
H1043 H 0.78943 0.34862 0.85986 0.0
C1044 C 0.74346 0.32307 0.91706 0.0
C1045 C 0.75395 0.35111 0.92027 0.0
C1046 C 0.73552 0.31434 0.89945 0.0
C1047 C 0.73808 0.33337 0.8847 0.0
C1048 C 0.74736 0.36171 0.88788 0.0
H1049 H 0.7386 0.27682 0.77018 0.0
H1050 H 0.73988 0.3084 0.79714 0.0
C1051 C 0.75518 0.37055 0.90553 0.0
C1052 C 0.73305 0.32262 0.8659 0.0
H1053 H 0.76894 0.29899 0.82804 0.0
C1054 C 0.7049 0.31516 0.86055 0.0
C1055 C 0.75632 0.31747 0.85386 0.0
C1056 C 0.78701 0.32484 0.85914 0.0
C1057 C 0.69948 0.30199 0.84355 0.0
C1058 C 0.72296 0.2954 0.8319 0.0
C1059 C 0.75096 0.30399 0.83698 0.0
C1060 C 0.7195 0.2776 0.81513 0.0
C1061 C 0.66867 0.29515 0.83832 0.0
C1062 C 0.70767 0.24981 0.81629 0.0
C1063 C 0.70685 0.23183 0.80095 0.0
C1064 C 0.71824 0.2411 0.78417 0.0
C1065 C 0.72983 0.26904 0.78296 0.0
C1066 C 0.73045 0.28712 0.79831 0.0
H1067 H 0.65332 0.31021 0.84506 0.0
H1068 H 0.66537 0.2963 0.82328 0.0
H1069 H 0.66334 0.27303 0.84292 0.0
H1070 H 0.69995 0.24161 0.82924 0.0
H1071 H 0.69828 0.21024 0.80241 0.0
H1072 H 0.27124 0.3689 0.80759 0.0
H1073 H 0.26536 0.3432 0.83661 0.0
H1074 H 0.265 0.26208 0.80763 0.0
H1075 H 0.27167 0.28735 0.77874 0.0
H1076 H 0.22175 0.30211 0.848 0.0
H1077 H 0.33212 0.25499 0.84516 0.0
H1078 H 0.32115 0.28505 0.83111 0.0
H1079 H 0.31028 0.24906 0.82511 0.0
C1080 C 0.26982 0.3456 0.80742 0.0
C1081 C 0.27203 0.33017 0.79088 0.0
C1082 C 0.26635 0.33099 0.82396 0.0
C1083 C 0.26525 0.30079 0.82421 0.0
C1084 C 0.26624 0.28541 0.80769 0.0
H1085 H 0.25716 0.17157 0.90952 0.0
H1086 H 0.26047 0.19742 0.8804 0.0
C1087 C 0.26969 0.29994 0.79118 0.0
C1088 C 0.26389 0.2852 0.84176 0.0
H1089 H 0.30161 0.23855 0.86886 0.0
C1090 C 0.23921 0.28829 0.85264 0.0
C1091 C 0.28676 0.2672 0.84766 0.0
C1092 C 0.31421 0.26398 0.83676 0.0
C1093 C 0.23655 0.27338 0.86921 0.0
C1094 C 0.25944 0.2554 0.87513 0.0
C1095 C 0.28412 0.25232 0.86423 0.0
C1096 C 0.25832 0.23985 0.89272 0.0
C1097 C 0.20904 0.27652 0.88006 0.0
C1098 C 0.25674 0.25522 0.90922 0.0
C1099 C 0.25474 0.24059 0.9258 0.0
C1100 C 0.25451 0.21026 0.92619 0.0
C1101 C 0.25697 0.19492 0.90964 0.0
C1102 C 0.25896 0.20962 0.89303 0.0
H1103 H 0.19101 0.28489 0.87151 0.0
H1104 H 0.20243 0.25557 0.88603 0.0
H1105 H 0.2127 0.29197 0.89146 0.0
H1106 H 0.25676 0.27857 0.90926 0.0
H1107 H 0.25251 0.25307 0.93826 0.0
H1108 H 0.3241 0.83684 0.41421 0.0
H1109 H 0.32046 0.80908 0.38587 0.0
H1110 H 0.23454 0.78201 0.40054 0.0
H1111 H 0.23783 0.81005 0.42893 0.0
H1112 H 0.27287 0.73649 0.39106 0.0
H1113 H 0.27294 0.82362 0.33908 0.0
H1114 H 0.30155 0.82583 0.35571 0.0
H1115 H 0.26471 0.83018 0.36287 0.0
C1116 C 0.3041 0.82565 0.4112 0.0
C1117 C 0.28119 0.82572 0.4238 0.0
C1118 C 0.30212 0.80971 0.39502 0.0
C1119 C 0.27718 0.7937 0.3911 0.0
C1120 C 0.25397 0.79428 0.40337 0.0
H1121 H 0.22282 0.67797 0.30556 0.0
H1122 H 0.22973 0.70337 0.33451 0.0
C1123 C 0.2559 0.81025 0.41957 0.0
C1124 C 0.27606 0.77493 0.37474 0.0
H1125 H 0.27819 0.77578 0.32812 0.0
C1126 C 0.27391 0.74503 0.37728 0.0
C1127 C 0.27768 0.78622 0.35685 0.0
C1128 C 0.27911 0.81823 0.35337 0.0
C1129 C 0.27357 0.72601 0.36232 0.0
C1130 C 0.27498 0.73731 0.34442 0.0
C1131 C 0.27732 0.7672 0.3419 0.0
C1132 C 0.27259 0.71875 0.328 0.0
C1133 C 0.27214 0.694 0.36581 0.0
C1134 C 0.29452 0.71878 0.31481 0.0
C1135 C 0.29067 0.70421 0.29823 0.0
C1136 C 0.2647 0.68956 0.29452 0.0
C1137 C 0.24328 0.68858 0.30811 0.0
C1138 C 0.24717 0.70315 0.32467 0.0
H1139 H 0.27947 0.68858 0.37988 0.0
H1140 H 0.24944 0.68666 0.36429 0.0
H1141 H 0.28556 0.68188 0.35584 0.0
H1142 H 0.31429 0.73076 0.31716 0.0
H1143 H 0.30763 0.70514 0.28808 0.0
H1144 H 0.03961 0.51139 0.52793 0.0
H1145 H 1.01422 0.51785 0.55683 0.0
H1146 H 0.09549 0.51707 0.58589 0.0
H1147 H 0.12128 0.51149 0.55689 0.0
H1148 H 1.01705 0.47793 0.58561 0.0
H1149 H 0.05275 0.58694 0.60787 0.0
H1150 H 0.05616 0.57442 0.58454 0.0
H1151 H 0.08141 0.56266 0.6017 0.0
C1152 C 0.0522 0.51343 0.54039 0.0
C1153 C 0.08251 0.51108 0.5401 0.0
C1154 C 0.03761 0.51685 0.55691 0.0
C1155 C 0.053 0.51811 0.57343 0.0
C1156 C 0.08327 0.51655 0.57322 0.0
H1157 H 1.00389 0.52491 0.68717 0.0
H1158 H 0.0294 0.51998 0.65818 0.0
C1159 C 0.09793 0.51312 0.55668 0.0
C1160 C 0.03717 0.51898 0.59093 0.0
H1161 H 0.02653 0.55932 0.62941 0.0
C1162 C 0.01898 0.49576 0.59518 0.0
C1163 C 0.0399 0.54225 0.60333 0.0
C1164 C 0.05841 0.56813 0.59913 0.0
C1165 C 1.0037 0.49498 0.61169 0.0
C1166 C 1.00639 0.51827 0.62409 0.0
C1167 C 0.02458 0.54149 0.61984 0.0
C1168 C 0.99059 0.51902 0.64161 0.0
C1169 C 0.98533 0.46899 0.6159 0.0
C1170 C 0.96029 0.51982 0.64185 0.0
C1171 C 0.94558 0.52231 0.65844 0.0
C1172 C 0.96097 0.52421 0.67503 0.0
C1173 C 0.99134 0.52292 0.67469 0.0
C1174 C 1.00599 0.5204 0.65813 0.0
H1175 H 0.99128 0.45014 0.60728 0.0
H1176 H 0.9874 0.46285 0.63052 0.0
H1177 H 0.96233 0.47424 0.61314 0.0
H1178 H 0.94805 0.51922 0.6292 0.0
H1179 H 0.92219 0.52315 0.65827 0.0
H1180 H 0.61324 0.50702 0.15802 0.0
H1181 H 0.58679 0.5101 0.12901 0.0
H1182 H 0.50601 0.50911 0.15821 0.0
H1183 H 0.53213 0.505 0.18715 0.0
H1184 H 0.50854 0.46943 0.12949 0.0
H1185 H 0.54267 0.57852 1.10715 0.0
H1186 H 0.57192 0.55472 0.11292 0.0
H1187 H 0.54715 0.56612 0.13039 0.0
C1188 C 0.58985 0.50762 0.15825 0.0
C1189 C 0.57479 0.50591 0.17489 0.0
C1190 C 0.57479 0.50962 0.1417 0.0
C1191 C 0.54448 0.51013 0.14153 0.0
C1192 C 0.52942 0.50891 0.1581 0.0
H1193 H 0.41245 0.51678 1.05705 0.0
H1194 H 0.43863 0.51096 1.08601 0.0
C1195 C 0.54441 0.50687 0.17463 0.0
C1196 C 0.52835 0.51051 0.12406 0.0
H1197 H 0.5168 0.55022 1.08555 0.0
C1198 C 0.51021 0.48712 0.11989 0.0
C1199 C 0.53068 0.53364 0.11163 0.0
C1200 C 0.54894 0.55982 0.11576 0.0
C1201 C 0.49461 0.48604 1.10341 0.0
C1202 C 0.49702 0.50912 1.09097 0.0
C1203 C 0.51514 0.53251 1.09514 0.0
C1204 C 0.48092 0.50967 1.0735 0.0
C1205 C 0.47613 0.46002 1.09928 0.0
C1206 C 0.49607 0.51077 1.05696 0.0
C1207 C 0.48126 0.51432 1.04048 0.0
C1208 C 0.45098 0.51697 1.04024 0.0
C1209 C 0.43577 0.51493 1.05681 0.0
C1210 C 0.45066 0.51137 1.07333 0.0
H1211 H 0.48191 0.44141 1.1081 0.0
H1212 H 0.45314 0.46549 1.10179 0.0
H1213 H 0.47827 0.45345 1.08473 0.0
H1214 H 0.51946 0.50966 1.05687 0.0
H1215 H 0.49369 0.51634 1.02803 0.0
H1216 H 0.31486 0.3269 0.27595 0.0
H1217 H 0.30434 0.3759 0.26532 0.0
H1218 H 0.24075 0.34224 0.22769 0.0
H1219 H 0.25134 0.29319 0.23806 0.0
H1220 H 0.28133 0.38494 0.21273 0.0
H1221 H 0.22803 0.42093 0.27702 0.0
H1222 H 0.263 0.40435 0.27929 0.0
H1223 H 0.2329 0.3833 0.27139 0.0
C1224 C 0.29878 0.3299 0.26532 0.0
C1225 C 0.28383 0.3061 0.25793 0.0
C1226 C 0.29265 0.35793 0.25936 0.0
C1227 C 0.27155 0.36274 0.24585 0.0
C1228 C 0.257 0.33903 0.2382 0.0
H1229 H 0.19165 0.50386 0.18833 0.0
H1230 H 0.21252 0.45804 0.19783 0.0
C1231 C 0.26296 0.31103 0.24423 0.0
C1232 C 0.26444 0.39244 0.23972 0.0
H1233 H 0.23234 0.45515 0.25351 0.0
C1234 C 0.2707 0.40036 0.22164 0.0
C1235 C 0.25078 0.41257 0.25141 0.0
C1236 C 0.24304 0.40497 0.27084 0.0
C1237 C 0.26362 0.42787 0.21493 0.0
C1238 C 0.24915 0.44777 0.22646 0.0
C1239 C 0.24342 0.43998 0.24466 0.0
C1240 C 0.23845 0.47617 0.21974 0.0
C1241 C 0.27204 0.43542 0.19561 0.0
C1242 C 0.24574 0.50181 0.22896 0.0
C1243 C 0.23357 0.52818 0.22364 0.0
C1244 C 0.2137 0.52946 0.20902 0.0
C1245 C 0.20704 0.50384 0.19953 0.0
C1246 C 0.21912 0.47752 0.2049 0.0
H1247 H 0.29082 0.42242 0.19096 0.0
H1248 H 0.25367 0.43065 0.18627 0.0
H1249 H 0.27753 0.45863 0.19436 0.0
H1250 H 0.26046 0.50134 0.24051 0.0
H1251 H 0.23907 0.54739 0.23136 0.0
H1252 H 0.45782 0.56386 0.52448 0.0
H1253 H 0.40854 0.5533 0.51398 0.0
H1254 H 0.44167 0.48913 0.47678 0.0
H1255 H 0.49099 0.49973 0.48704 0.0
H1256 H 0.39861 0.53008 0.46169 0.0
H1257 H 0.36382 0.47685 0.52611 0.0
H1258 H 0.3807 0.51164 0.52824 0.0
H1259 H 0.40142 0.48143 0.52029 0.0
C1260 C 0.45464 0.54765 0.51397 0.0
C1261 C 0.47835 0.53253 0.50666 0.0
C1262 C 0.42646 0.54151 0.50809 0.0
C1263 C 0.42145 0.52024 0.49474 0.0
C1264 C 0.44506 0.50552 0.48717 0.0
H1265 H 0.28044 0.43919 0.43761 0.0
H1266 H 0.32613 0.46073 0.44706 0.0
C1267 C 0.47321 0.51148 0.49313 0.0
C1268 C 0.39162 0.51313 0.48868 0.0
H1269 H 0.32925 0.48074 0.50258 0.0
C1270 C 0.38336 0.5194 0.47063 0.0
C1271 C 0.37174 0.49941 0.50042 0.0
C1272 C 0.37975 0.4917 0.51983 0.0
C1273 C 0.35575 0.51218 0.46396 0.0
C1274 C 0.33612 0.49761 0.47552 0.0
C1275 C 0.34423 0.49192 0.49371 0.0
C1276 C 0.30775 0.48659 0.46881 0.0
C1277 C 0.34782 0.52052 0.44464 0.0
C1278 C 0.28205 0.49367 0.47796 0.0
C1279 C 0.25576 0.48112 0.47268 0.0
C1280 C 0.25466 0.46108 0.45818 0.0
C1281 C 0.28034 0.45467 0.44874 0.0
C1282 C 0.30657 0.46714 0.45406 0.0
H1283 H 0.36059 0.53937 0.43997 0.0
H1284 H 0.35265 0.50224 0.43531 0.0
H1285 H 0.32449 0.5258 0.44342 0.0
H1286 H 0.28243 0.50849 0.48945 0.0
H1287 H 0.2365 0.48644 0.48036 0.0
H1288 H 0.29047 0.73892 0.74003 0.0
H1289 H 0.30101 0.69 0.72941 0.0
H1290 H 0.23131 0.65719 0.76231 0.0
H1291 H 0.22048 0.70616 0.77287 0.0
H1292 H 0.31752 0.64357 0.74924 0.0
H1293 H 0.21426 0.61925 0.71351 0.0
H1294 H 0.224 0.65525 0.72065 0.0
H1295 H 0.21002 0.62997 0.73697 0.0
C1296 C 0.27737 0.7213 0.74501 0.0
C1297 C 0.2546 0.72649 0.75729 0.0
C1298 C 0.28334 0.69334 0.73887 0.0
C1299 C 0.26671 0.66988 0.74483 0.0
C1300 C 0.244 0.67496 0.75713 0.0
H1301 H 0.29819 0.48477 0.73151 0.0
H1302 H 0.27858 0.5315 0.74121 0.0
C1303 C 0.23788 0.70298 0.7632 0.0
C1304 C 0.2741 0.64011 0.73874 0.0
H1305 H 0.24757 0.58052 0.7166 0.0
C1306 C 0.3022 0.62986 0.74208 0.0
C1307 C 0.2541 0.6221 0.72943 0.0
C1308 C 0.22399 0.63223 0.72476 0.0
C1309 C 0.31082 0.60223 0.73638 0.0
C1310 C 0.29091 0.58438 0.727 0.0
C1311 C 0.26272 0.59432 0.72384 0.0
C1312 C 0.29968 0.55573 0.71988 0.0
C1313 C 0.34121 0.59219 0.74037 0.0
C1314 C 0.31731 0.55385 0.70437 0.0
C1315 C 0.32841 0.52725 0.69872 0.0
C1316 C 0.32221 0.50194 0.70853 0.0
C1317 C 0.30336 0.50375 0.72359 0.0
C1318 C 0.29217 0.53044 0.72919 0.0
H1319 H 0.35269 0.60685 0.75 0.0
H1320 H 0.34093 0.57015 0.74627 0.0
H1321 H 0.35359 0.59122 0.72741 0.0
H1322 H 0.32324 0.57316 0.69698 0.0
H1323 H 0.34278 0.52677 0.68706 0.0
H1324 H 0.0423 0.53526 0.98957 0.0
H1325 H 0.09111 0.54669 0.9792 0.0
H1326 H 0.12533 0.47756 1.01212 0.0
H1327 H 0.07646 0.46583 1.02243 0.0
H1328 H 0.13731 0.56391 0.99926 0.0
H1329 H 0.16374 0.46152 0.9635 0.0
H1330 H 0.12747 0.47052 0.97049 0.0
H1331 H 0.15311 0.45699 0.98691 0.0
C1332 C 0.0602 0.52247 0.99461 0.0
C1333 C 0.05543 0.4996 1.00683 0.0
C1334 C 0.08811 0.52896 0.98861 0.0
C1335 C 0.11193 0.51276 0.99465 0.0
C1336 C 0.10728 0.48993 1.00688 0.0
H1337 H 0.29704 0.54611 0.98149 0.0
H1338 H 0.25048 0.52615 0.99112 0.0
C1339 C 0.07931 0.48329 1.01281 0.0
C1340 C 0.14164 0.52071 0.98872 0.0
H1341 H 0.20185 0.49547 0.96678 0.0
C1342 C 0.15135 0.54892 0.99213 0.0
C1343 C 0.16008 0.50114 0.97945 0.0
C1344 C 0.15054 0.47093 0.9747 0.0
C1345 C 0.17885 0.55807 0.98656 0.0
C1346 C 0.19713 0.5386 0.97721 0.0
C1347 C 0.18774 0.51029 0.97399 0.0
C1348 C 0.22565 0.54791 0.97019 0.0
C1349 C 0.18831 0.58853 0.99068 0.0
C1350 C 0.22714 0.56607 0.95493 0.0
C1351 C 0.25365 0.57737 0.94932 0.0
C1352 C 0.27927 0.57083 0.95891 0.0
C1353 C 0.27782 0.55156 0.97374 0.0
C1354 C 0.25123 0.54016 0.9793 0.0
H1355 H 0.17358 0.59952 1.00044 0.0
H1356 H 0.21054 0.58866 0.99648 0.0
H1357 H 0.18867 0.6011 0.97779 0.0
H1358 H 0.20762 0.57218 0.94768 0.0
H1359 H 0.25385 0.59208 0.93784 0.0
H1360 H 0.79384 0.48461 0.98667 0.0
H1361 H 0.77483 0.53178 0.97791 0.0
H1362 H 0.82465 0.57191 1.02094 0.0
H1363 H 0.84357 0.52485 1.02999 0.0
H1364 H 0.76818 0.59507 1.01677 0.0
H1365 H 0.82737 0.58922 0.95087 0.0
H1366 H 0.80338 0.55957 0.95505 0.0
H1367 H 0.83448 0.56474 0.96949 0.0
C1368 C 0.8004 0.50336 0.99451 0.0
C1369 C 0.82047 0.50091 1.00895 0.0
C1370 C 0.78964 0.53035 0.98938 0.0
C1371 C 0.79878 0.55538 0.99855 0.0
C1372 C 0.81746 0.55286 1.01362 0.0
H1373 H 0.80303 0.7305 0.9593 0.0
H1374 H 0.8134 0.68208 0.97068 0.0
C1375 C 0.82825 0.5259 1.01877 0.0
C1376 C 0.79028 0.58431 0.99181 0.0
H1377 H 0.79755 0.62975 0.95545 0.0
C1378 C 0.77447 0.60267 1.00334 0.0
C1379 C 0.79894 0.59428 0.97439 0.0
C1380 C 0.8172 0.57607 0.96176 0.0
C1381 C 0.76697 0.63073 0.99788 0.0
C1382 C 0.77522 0.6405 0.98033 0.0
C1383 C 0.79107 0.62214 0.96884 0.0
C1384 C 0.76854 0.67004 0.97379 0.0
C1385 C 0.75095 0.64994 1.0111 0.0
C1386 C 0.73986 0.67928 0.9716 0.0
C1387 C 0.73384 0.70695 0.96503 0.0
C1388 C 0.75642 0.72584 0.96037 0.0
C1389 C 0.78513 0.71641 0.96252 0.0
C1390 C 0.7911 0.68879 0.96912 0.0
H1391 H 0.75238 0.64181 1.02536 0.0
H1392 H 0.75957 0.67227 1.01076 0.0
H1393 H 0.7278 0.65072 1.00715 0.0
H1394 H 0.7221 0.66494 0.97473 0.0
H1395 H 0.7115 0.71336 0.96327 0.0
H1396 H 0.57154 0.46003 0.71402 0.0
H1397 H 0.62011 0.47085 0.72552 0.0
H1398 H 0.60271 0.56185 0.72068 0.0
H1399 H 0.55416 0.55125 0.70924 0.0
H1400 H 0.65507 0.54583 0.70572 0.0
H1401 H 0.64348 0.502 0.77596 0.0
H1402 H 0.63461 0.47715 0.75789 0.0
H1403 H 0.61286 0.50882 0.76121 0.0
C1404 C 0.57793 0.48235 0.71561 0.0
C1405 C 0.55895 0.50478 0.71071 0.0
C1406 C 0.60569 0.48849 0.72221 0.0
C1407 C 0.6149 0.51716 0.72419 0.0
C1408 C 0.59603 0.53956 0.71929 0.0
H1409 H 0.75908 0.59444 0.78053 0.0
H1410 H 0.71234 0.57458 0.77132 0.0
C1411 C 0.56834 0.53346 0.71266 0.0
C1412 C 0.64451 0.52399 0.73075 0.0
H1413 H 0.69013 0.518 0.76744 0.0
C1414 C 0.66278 0.53968 0.7192 0.0
C1415 C 0.65439 0.51614 0.7484 0.0
C1416 C 0.63528 0.50032 0.76168 0.0
C1417 C 0.69063 0.54785 0.72481 0.0
C1418 C 0.7007 0.53965 0.74235 0.0
C1419 C 0.68246 0.52394 0.75392 0.0
C1420 C 0.72951 0.5487 0.74921 0.0
C1421 C 0.70868 0.56599 0.71211 0.0
C1422 C 0.75482 0.53988 0.74027 0.0
C1423 C 0.78162 0.5512 0.74549 0.0
C1424 C 0.78361 0.5715 0.7598 0.0
C1425 C 0.75838 0.57896 0.76941 0.0
C1426 C 0.7316 0.56762 0.76417 0.0
H1427 H 0.69542 0.57578 0.70106 0.0
H1428 H 0.71982 0.58352 0.71975 0.0
H1429 H 0.72541 0.55225 0.70562 0.0
H1430 H 0.75372 0.52488 0.7289 0.0
H1431 H 0.80058 0.54487 0.73782 0.0
H1432 H 0.79579 0.29882 0.48823 0.0
H1433 H 0.78487 0.34723 0.4997 0.0
H1434 H 0.75407 0.3718 0.44624 0.0
H1435 H 0.76543 0.32369 0.43451 0.0
H1436 H 0.8044 0.40343 0.48669 0.0
H1437 H 0.68551 0.38823 0.48169 0.0
H1438 H 0.71061 0.35842 0.48116 0.0
H1439 H 0.70531 0.38026 0.46118 0.0
C1440 C 0.78706 0.3146 0.47882 0.0
C1441 C 0.78133 0.30725 0.46045 0.0
C1442 C 0.78074 0.34222 0.48544 0.0
C1443 C 0.76837 0.36293 0.47387 0.0
C1444 C 0.7632 0.35594 0.45546 0.0
H1445 H 0.74058 0.54633 0.48782 0.0
H1446 H 0.75999 0.49902 0.4796 0.0
C1447 C 0.76959 0.32839 0.44881 0.0
C1448 C 0.76023 0.39166 0.48114 0.0
H1449 H 0.70206 0.43505 0.48922 0.0
C1450 C 0.78204 0.41038 0.48731 0.0
C1451 C 0.73103 0.40046 0.48211 0.0
C1452 C 0.70668 0.38076 0.47634 0.0
C1453 C 0.77539 0.43799 0.49411 0.0
C1454 C 0.74622 0.44704 0.49462 0.0
C1455 C 0.72443 0.42809 0.48875 0.0
C1456 C 0.73758 0.47616 0.50104 0.0
C1457 C 0.79953 0.45714 0.50085 0.0
C1458 C 0.71875 0.47906 0.51592 0.0
C1459 C 0.70756 0.50605 0.52065 0.0
C1460 C 0.71481 0.53069 0.51048 0.0
C1461 C 0.73466 0.52788 0.49604 0.0
C1462 C 0.74586 0.50084 0.49133 0.0
H1463 H 0.81955 0.44467 0.5037 0.0
H1464 H 0.80453 0.47337 0.4902 0.0
H1465 H 0.7931 0.46883 0.51348 0.0
H1466 H 0.71203 0.46026 0.52356 0.0
H1467 H 0.69236 0.50735 0.53185 0.0
H1468 H 0.73632 0.48693 0.23715 0.0
H1469 H 0.78291 0.50641 0.22758 0.0
H1470 H 0.82583 0.45682 0.26943 0.0
H1471 H 0.77938 0.43745 0.27928 0.0
H1472 H 0.84797 0.51332 0.26533 0.0
H1473 H 0.83973 0.45491 0.19894 0.0
H1474 H 0.81005 0.47858 0.20398 0.0
H1475 H 0.81621 0.44738 0.21796 0.0
C1476 C 0.75557 0.48052 0.24456 0.0
C1477 C 0.75408 0.46039 0.2589 0.0
C1478 C 0.78222 0.49153 0.23897 0.0
C1479 C 0.80784 0.48257 0.24755 0.0
C1480 C 0.8063 0.46385 0.26254 0.0
H1481 H 0.98216 0.47972 0.20649 0.0
H1482 H 0.9337 0.46905 0.2178 0.0
C1483 C 0.77969 0.45281 0.26816 0.0
C1484 C 0.83638 0.49142 0.24035 0.0
H1485 H 0.88051 0.48477 0.20324 0.0
C1486 C 0.85509 0.50722 0.25173 0.0
C1487 C 0.84571 0.483 0.2227 0.0
C1488 C 0.82704 0.46482 0.2102 0.0
C1489 C 0.88292 0.51492 0.2459 0.0
C1490 C 0.89207 0.5069 0.22814 0.0
C1491 C 0.87335 0.49107 0.21679 0.0
C1492 C 0.9214 0.51373 0.22129 0.0
C1493 C 0.90257 0.53086 0.25899 0.0
C1494 C 0.93045 0.54241 0.2193 0.0
C1495 C 0.95814 0.54859 0.21278 0.0
C1496 C 0.97721 0.52618 0.20799 0.0
C1497 C 0.96791 0.49748 0.20984 0.0
C1498 C 0.94027 0.49134 0.21639 0.0
H1499 H 0.89494 0.52931 0.27335 0.0
H1500 H 0.92496 0.52234 0.25827 0.0
H1501 H 0.9031 0.554 0.2552 0.0
H1502 H 0.91601 0.56003 0.22263 0.0
H1503 H 0.96446 0.57092 0.21124 0.0
H1504 H 0.81925 0.82734 0.77181 0.0
H1505 H 0.80911 0.87608 0.76058 0.0
H1506 H 0.74029 0.84271 0.72673 0.0
H1507 H 0.75047 0.7939 0.73771 0.0
H1508 H 0.78052 0.88314 0.709 0.0
H1509 H 0.73556 0.92416 0.77465 0.0
H1510 H 0.77015 0.90653 0.77581 0.0
H1511 H 0.73865 0.88613 0.76964 0.0
C1512 C 0.80209 0.83034 0.76188 0.0
C1513 C 0.78557 0.80672 0.75573 0.0
C1514 C 0.79619 0.85823 0.75558 0.0
C1515 C 0.77376 0.86304 0.74296 0.0
C1516 C 0.7576 0.83949 0.73654 0.0
H1517 H 0.69102 1.00372 0.687 0.0
H1518 H 0.71231 0.9578 0.6959 0.0
C1519 C 0.76333 0.81164 0.74292 0.0
C1520 C 0.76695 0.89261 0.7365 0.0
H1521 H 0.73858 0.95705 0.75031 0.0
C1522 C 0.77145 0.89937 0.71802 0.0
C1523 C 0.75528 0.91377 0.74833 0.0
C1524 C 0.74938 0.90741 0.7682 0.0
C1525 C 0.76454 0.92675 0.71104 0.0
C1526 C 0.75213 0.94771 0.72275 0.0
C1527 C 0.74815 0.94106 0.74132 0.0
C1528 C 0.74163 0.97609 0.71594 0.0
C1529 C 0.77089 0.93301 0.69121 0.0
C1530 C 0.75092 1.00186 0.72422 0.0
C1531 C 0.73859 0.02831 0.71924 0.0
C1532 C 0.71652 0.02951 0.70594 0.0
C1533 C 0.70807 1.00376 0.69719 0.0
C1534 C 0.72036 0.97737 0.70221 0.0
H1535 H 0.78852 0.91903 0.68595 0.0
H1536 H 0.75127 0.92859 0.68289 0.0
H1537 H 0.7771 0.9559 0.68923 0.0
H1538 H 0.76722 1.00144 0.7349 0.0
H1539 H 0.74556 0.04761 0.72635 0.0
H1540 H 0.73727 0.97816 0.9854 0.0
H1541 H 0.78416 0.99774 0.99466 0.0
H1542 H 0.82098 0.96955 0.94352 0.0
H1543 H 0.77435 0.94941 0.93431 0.0
H1544 H 0.85253 0.95165 0.97255 0.0
H1545 H 0.82965 0.06841 0.9801 0.0
H1546 H 0.80558 0.0459 0.99288 0.0
H1547 H 0.80539 0.04416 0.96828 0.0
C1548 C 0.75515 0.97675 0.97591 0.0
C1549 C 0.75198 0.96226 0.95907 0.0
C1550 C 0.78199 0.98803 0.98123 0.0
C1551 C 0.80612 0.98542 0.96972 0.0
C1552 C 0.80271 0.97189 0.95263 0.0
H1553 H 0.99052 0.02064 0.97988 0.0
H1554 H 0.94185 1.00914 0.96888 0.0
C1555 C 0.77597 0.96045 0.94735 0.0
C1556 C 0.83539 0.99448 0.97605 0.0
H1557 H 0.87463 0.05176 0.9921 0.0
C1558 C 0.85738 0.97361 0.97668 0.0
C1559 C 0.84173 0.02309 0.98157 0.0
C1560 C 0.81943 0.04676 0.98054 0.0
C1561 C 0.88534 0.9804 0.98287 0.0
C1562 C 0.89168 1.00897 0.98838 0.0
C1563 C 0.86972 0.02987 0.98784 0.0
C1564 C 0.92101 0.01741 0.99481 0.0
C1565 C 0.90773 0.95678 0.98383 0.0
C1566 C 0.92538 0.02664 1.01292 0.0
C1567 C 0.95319 0.03339 1.01924 0.0
C1568 C 0.97719 0.03128 1.00752 0.0
C1569 C 0.97257 0.0227 0.98925 0.0
C1570 C 0.94478 1.01585 0.98297 0.0
H1571 H 0.89776 0.93502 0.98324 0.0
H1572 H 0.92264 0.95882 0.97206 0.0
H1573 H 0.9207 0.95856 0.9966 0.0
H1574 H 0.90733 0.02816 1.02226 0.0
H1575 H 0.95588 0.04034 1.03331 0.0
H1576 H 0.78995 0.98232 0.22658 0.0
H1577 H 0.76655 0.02747 0.23588 0.0
H1578 H 0.81563 0.07357 0.1954 0.0
H1579 H 0.83877 0.02875 0.18594 0.0
H1580 H 0.79663 0.07365 0.25032 0.0
H1581 H 0.73558 0.10858 0.18903 0.0
H1582 H 0.74818 0.07201 0.19198 0.0
H1583 H 0.77239 0.0995 0.18395 0.0
C1584 C 0.79505 1.00191 0.21925 0.0
C1585 C 0.81622 1.00187 0.20549 0.0
C1586 C 0.78181 0.02775 0.22468 0.0
C1587 C 0.78915 0.05394 0.21626 0.0
C1588 C 0.80917 0.05365 0.20189 0.0
H1589 H 0.79635 0.22621 0.25964 0.0
H1590 H 0.80483 0.17694 0.24905 0.0
C1591 C 0.82251 0.02794 0.19655 0.0
C1592 C 0.77846 0.0819 0.22366 0.0
H1593 H 0.74639 0.14536 0.21129 0.0
C1594 C 0.78528 0.08916 0.24185 0.0
C1595 C 0.76347 0.10212 0.21269 0.0
C1596 C 0.75421 0.09508 0.19338 0.0
C1597 C 0.77857 0.11644 0.24912 0.0
C1598 C 0.76504 0.13724 0.23782 0.0
C1599 C 0.7571 0.12957 0.21988 0.0
C1600 C 0.7597 0.16727 0.24423 0.0
C1601 C 0.78614 0.12275 0.26883 0.0
C1602 C 0.73157 0.1786 0.2446 0.0
C1603 C 0.72662 0.20687 0.25067 0.0
C1604 C 0.74976 0.22448 0.2564 0.0
C1605 C 0.77795 0.21314 0.25572 0.0
C1606 C 0.78286 0.18492 0.24965 0.0
H1607 H 0.78841 0.10261 0.27691 0.0
H1608 H 0.80712 0.1343 0.26941 0.0
H1609 H 0.7695 0.13658 0.27536 0.0
H1610 H 0.71337 0.16544 0.24041 0.0
H1611 H 0.70461 0.21477 0.25114 0.0
H1612 H 0.75585 0.09185 0.43909 0.0
H1613 H 0.70972 0.07205 0.44917 0.0
H1614 H 0.75323 0.02502 0.49192 0.0
H1615 H 0.79968 0.04484 0.48203 0.0
H1616 H 0.70557 0.99407 0.47036 0.0
H1617 H 0.67526 0.10028 0.50023 0.0
H1618 H 0.68839 0.1007 0.47709 0.0
H1619 H 0.71224 0.09052 0.49538 0.0
C1620 C 0.75581 0.07695 0.45047 0.0
C1621 C 0.78158 0.07011 0.4598 0.0
C1622 C 0.72934 0.06572 0.45624 0.0
C1623 C 0.72805 0.04736 0.47141 0.0
C1624 C 0.75379 0.03923 0.4802 0.0
H1625 H 0.5754 1.01173 0.53675 0.0
H1626 H 0.62412 0.02295 0.52614 0.0
C1627 C 0.78034 0.05056 0.47448 0.0
C1628 C 0.69964 0.03819 0.47872 0.0
H1629 H 0.63934 0.06411 0.5 0.0
C1630 C 0.69107 1.00931 0.47688 0.0
C1631 C 0.68097 0.05806 0.48742 0.0
C1632 C 0.68962 0.08911 0.49033 0.0
C1633 C 0.66396 0.99993 0.48319 0.0
C1634 C 0.64492 0.02003 0.49141 0.0
C1635 C 0.65384 0.04876 0.49359 0.0
C1636 C 0.61561 1.01184 0.49786 0.0
C1637 C 0.65604 0.96854 0.4812 0.0
C1638 C 0.59451 1.002 0.48548 0.0
C1639 C 0.56649 0.9958 0.49148 0.0
C1640 C 0.55891 0.99942 0.50999 0.0
C1641 C 0.58025 1.00907 0.52236 0.0
C1642 C 0.60822 1.01533 0.51634 0.0
H1643 H 0.67539 0.95482 0.47891 0.0
H1644 H 0.64456 0.96072 0.49354 0.0
H1645 H 0.64139 0.96588 0.46926 0.0
H1646 H 0.59952 0.99973 0.47108 0.0
H1647 H 0.55057 0.98889 0.48149 0.0
H1648 H 0.30412 0.22724 0.45528 0.0
H1649 H 0.31434 0.17848 0.46613 0.0
H1650 H 0.22317 0.16331 0.47317 0.0
H1651 H 0.21271 0.21207 0.46225 0.0
H1652 H 0.25583 0.14567 0.50293 0.0
H1653 H 0.30199 0.10299 0.43839 0.0
H1654 H 0.31931 0.13537 0.44625 0.0
H1655 H 0.28195 0.13636 0.43937 0.0
C1656 C 0.2862 0.21342 0.45891 0.0
C1657 C 0.25758 0.22353 0.45778 0.0
C1658 C 0.29209 0.18554 0.46511 0.0
C1659 C 0.26949 0.16708 0.47017 0.0
C1660 C 0.24093 0.17716 0.46926 0.0
H1661 H 0.29647 0.98313 0.4876 0.0
H1662 H 0.27635 0.02939 0.47798 0.0
C1663 C 0.235 0.20508 0.46309 0.0
C1664 C 0.27578 0.13753 0.47684 0.0
H1665 H 0.30909 0.07446 0.4651 0.0
C1666 C 0.26727 0.13 0.49462 0.0
C1667 C 0.29036 0.11697 0.46589 0.0
C1668 C 0.29869 0.12317 0.44635 0.0
C1669 C 0.27374 0.10277 0.50194 0.0
C1670 C 0.28945 0.0827 0.49128 0.0
C1671 C 0.2972 0.08993 0.47331 0.0
C1672 C 0.2989 0.05439 0.49858 0.0
C1673 C 0.26359 0.09568 0.52099 0.0
C1674 C 0.3179 0.05301 0.51357 0.0
C1675 C 0.3294 0.02657 0.51917 0.0
C1676 C 0.32226 1.00098 0.5098 0.0
C1677 C 0.30235 1.00233 0.49521 0.0
C1678 C 0.2909 0.0288 0.48962 0.0
H1679 H 0.24515 0.10954 0.52516 0.0
H1680 H 0.25693 0.07274 0.52199 0.0
H1681 H 0.28154 0.09941 0.53082 0.0
H1682 H 0.3248 0.07253 0.52048 0.0
H1683 H 0.34477 0.0264 0.53038 0.0
H1684 H 0.07266 0.95732 0.21259 0.0
H1685 H 0.12132 0.96784 0.22413 0.0
H1686 H 0.10438 0.05895 0.21949 0.0
H1687 H 0.0558 0.04867 0.20806 0.0
H1688 H 0.15717 0.04256 0.20476 0.0
H1689 H 0.14338 0.99899 0.27494 0.0
H1690 H 0.13477 0.97431 0.25671 0.0
H1691 H 0.11319 1.00613 0.2599 0.0
C1692 C 0.07921 0.9796 0.2142 0.0
C1693 C 0.06033 1.00216 0.20939 0.0
C1694 C 0.107 0.98556 0.22081 0.0
C1695 C 0.11634 1.01418 0.22287 0.0
C1696 C 0.09761 0.03671 0.218 0.0
H1697 H 0.25774 0.09301 0.28073 0.0
H1698 H 0.21154 0.07263 0.27088 0.0
C1699 C 0.06989 0.03078 0.21138 0.0
C1700 C 0.1458 0.02089 0.22971 0.0
H1701 H 0.19007 1.01548 0.26708 0.0
C1702 C 0.16443 0.03653 0.21835 0.0
C1703 C 0.15507 1.01323 0.24752 0.0
C1704 C 0.13553 0.99745 0.26058 0.0
C1705 C 0.19204 0.04488 0.22434 0.0
C1706 C 0.20145 0.03694 0.24207 0.0
C1707 C 0.18288 0.02122 0.25343 0.0
C1708 C 0.22986 0.04629 0.24937 0.0
C1709 C 0.21056 0.06292 0.21184 0.0
C1710 C 0.25559 0.03735 0.24101 0.0
C1711 C 0.28209 0.04894 0.24659 0.0
C1712 C 0.28331 0.06965 0.26071 0.0
C1713 C 0.25763 0.07721 0.26978 0.0
C1714 C 0.23116 0.0656 0.26417 0.0
H1715 H 0.19783 0.07235 0.20041 0.0
H1716 H 0.22114 0.0807 0.21955 0.0
H1717 H 0.22776 0.04919 0.20585 0.0
H1718 H 0.25509 0.02207 0.22977 0.0
H1719 H 0.30142 0.04252 0.23934 0.0
H1720 H 0.23497 0.04753 0.98622 0.0
H1721 H 0.25414 1.00075 0.97665 0.0
H1722 H 0.21363 0.96041 1.02298 0.0
H1723 H 0.19436 1.0071 1.03275 0.0
H1724 H 0.27262 0.94068 1.01428 0.0
H1725 H 0.19674 0.93933 0.95499 0.0
H1726 H 0.21904 0.97087 0.95733 0.0
H1727 H 0.19215 0.96333 0.97427 0.0
C1728 C 0.23059 0.02885 0.99462 0.0
C1729 C 0.21294 0.03107 1.01021 0.0
C1730 C 0.24143 1.00211 0.98904 0.0
C1731 C 0.23491 0.97713 0.99896 0.0
C1732 C 0.21877 0.97947 1.0151 0.0
H1733 H 0.23167 0.79927 0.96431 0.0
H1734 H 0.22133 0.84783 0.97567 0.0
C1735 C 0.20778 1.00618 1.02065 0.0
C1736 C 0.24328 0.94836 0.99191 0.0
H1737 H 0.22901 0.90019 0.95762 0.0
C1738 C 0.26323 0.9318 1.00186 0.0
C1739 C 0.23065 0.93681 0.97583 0.0
C1740 C 0.20828 0.95331 0.965 0.0
C1741 C 0.271 0.90393 0.99608 0.0
C1742 C 0.25861 0.89249 0.97988 0.0
C1743 C 0.2386 0.90908 0.96998 0.0
C1744 C 0.26533 0.863 0.97322 0.0
C1745 C 0.29185 0.88668 1.0076 0.0
C1746 C 0.29347 0.85548 0.96793 0.0
C1747 C 0.29944 0.82774 0.96137 0.0
C1748 C 0.27731 0.80706 0.95984 0.0
C1749 C 0.24913 0.81476 0.96509 0.0
C1750 C 0.24321 0.84246 0.97167 0.0
H1751 H 0.29415 0.89578 1.02161 0.0
H1752 H 0.28473 0.8639 1.00867 0.0
H1753 H 0.31345 0.88692 1.00106 0.0
H1754 H 0.31074 0.87118 0.96864 0.0
H1755 H 0.32128 0.82264 0.95718 0.0
H1756 H 0.46579 0.07431 0.71392 0.0
H1757 H 0.41766 0.06309 0.72572 0.0
H1758 H 0.43487 0.97229 0.71911 0.0
H1759 H 0.48297 0.98328 0.70737 0.0
H1760 H 0.3818 0.98864 0.70516 0.0
H1761 H 0.3966 0.03038 0.77591 0.0
H1762 H 0.40461 0.0558 0.75814 0.0
H1763 H 0.42654 0.02406 0.76064 0.0
C1764 C 0.45945 0.05194 0.71517 0.0
C1765 C 0.47826 0.02969 0.7097 0.0
C1766 C 0.43194 0.04557 0.72195 0.0
C1767 C 0.42281 0.01684 0.72353 0.0
C1768 C 0.44149 0.99462 0.71802 0.0
H1769 H 0.28081 0.93841 0.78067 0.0
H1770 H 0.32725 0.95821 0.77112 0.0
C1771 C 0.46893 1.00095 0.71122 0.0
C1772 C 0.39351 1.00977 0.73038 0.0
H1773 H 0.34956 1.01466 0.76775 0.0
C1774 C 0.37471 0.9944 0.71882 0.0
C1775 C 0.38443 0.01707 0.74828 0.0
C1776 C 0.40413 0.03252 0.76156 0.0
C1777 C 0.34711 0.98606 0.72467 0.0
C1778 C 0.33783 0.99374 0.74246 0.0
C1779 C 0.35661 1.0091 0.75404 0.0
C1780 C 0.30927 0.98459 0.74954 0.0
C1781 C 0.32848 0.9683 0.71192 0.0
C1782 C 0.28362 0.9937 0.74103 0.0
C1783 C 0.25699 0.98242 0.74644 0.0
C1784 C 0.25549 0.96187 0.76054 0.0
C1785 C 0.2811 0.9541 0.76973 0.0
C1786 C 0.30772 0.96539 0.76429 0.0
H1787 H 0.34124 0.95885 0.70054 0.0
H1788 H 0.31768 0.95055 0.71941 0.0
H1789 H 0.31147 0.98224 0.70587 0.0
H1790 H 0.2843 1.00893 0.72983 0.0
H1791 H 0.23773 0.989 0.73909 0.0
H1792 H 0.28592 0.1603 0.21844 0.0
H1793 H 0.26046 0.15732 0.18898 0.0
H1794 H 0.32127 0.09322 0.17058 0.0
H1795 H 0.34743 0.09716 0.19955 0.0
H1796 H 0.23104 0.11945 0.17148 0.0
H1797 H 0.32393 0.14065 0.12648 0.0
H1798 H 0.33044 0.10969 0.14047 0.0
H1799 H 0.32641 0.14474 0.15095 0.0
C1800 C 0.29426 0.14591 0.20803 0.0
C1801 C 0.31933 0.12941 0.21157 0.0
C1802 C 0.27943 0.14404 0.19106 0.0
C1803 C 0.2889 0.12548 0.17691 0.0
C1804 C 0.31367 0.10861 0.18062 0.0
H1805 H 0.22409 0.14853 1.06406 0.0
H1806 H 0.24724 0.15208 1.09401 0.0
C1807 C 0.32871 0.11077 0.19746 0.0
C1808 C 0.27264 0.12333 0.15866 0.0
H1809 H 0.2817 0.12225 0.11195 0.0
C1810 C 0.24227 0.12027 0.1585 0.0
C1811 C 0.28658 0.12473 0.14134 0.0
C1812 C 0.31857 0.13044 0.13978 0.0
C1813 C 0.2259 0.11837 0.142 0.0
C1814 C 0.24001 0.1185 0.12469 0.0
C1815 C 0.27036 0.12177 0.12489 0.0
C1816 C 0.22408 0.11657 1.10628 0.0
C1817 C 0.19343 0.11729 0.14345 0.0
C1818 C 0.2027 0.0955 1.10248 0.0
C1819 C 0.18873 0.09383 1.08517 0.0
C1820 C 0.19609 0.11268 1.07079 0.0
C1821 C 0.21757 0.13352 1.07458 0.0
C1822 C 0.23109 0.13551 1.0919 0.0
H1823 H 0.18585 0.12678 0.15657 0.0
H1824 H 0.18288 0.12904 0.13203 0.0
H1825 H 0.18627 0.09448 0.14308 0.0
H1826 H 0.19714 0.07977 0.11276 0.0
H1827 H 0.17274 0.07716 1.08289 0.0
H1828 H 0.63716 0.47343 0.312 0.0
H1829 H 0.63346 0.49639 0.34194 0.0
H1830 H 0.70374 0.44391 0.36173 0.0
H1831 H 0.70654 0.41976 0.3318 0.0
H1832 H 0.66414 0.52966 0.36046 0.0
H1833 H 0.65448 0.43391 0.40464 0.0
H1834 H 0.68727 0.43322 0.39171 0.0
H1835 H 0.65289 0.43128 0.38006 0.0
C1836 C 0.65172 0.46636 0.32273 0.0
C1837 C 0.67205 0.44431 0.3192 0.0
C1838 C 0.64963 0.47977 0.34005 0.0
C1839 C 0.66794 0.47204 0.35472 0.0
C1840 C 0.68849 0.45007 0.3512 0.0
H1841 H 0.62301 0.535 0.4664 0.0
H1842 H 0.62567 0.50953 0.43694 0.0
C1843 C 0.69028 0.43624 0.33386 0.0
C1844 C 0.66591 0.48787 0.37313 0.0
H1845 H 0.66281 0.47861 0.41985 0.0
C1846 C 0.66374 0.51824 0.37337 0.0
C1847 C 0.66484 0.47366 0.39038 0.0
C1848 C 0.66468 0.44124 0.39173 0.0
C1849 C 0.66077 0.53441 0.38981 0.0
C1850 C 0.66103 0.52033 0.4071 0.0
C1851 C 0.66292 0.48993 0.4069 0.0
C1852 C 0.65904 0.53654 0.42536 0.0
C1853 C 0.65629 0.56653 0.38823 0.0
C1854 C 0.67688 0.56047 0.42936 0.0
C1855 C 0.67493 0.57552 0.44617 0.0
C1856 C 0.65551 0.56697 0.46 0.0
C1857 C 0.63804 0.54269 0.4562 0.0
C1858 C 0.63971 0.52786 0.43923 0.0
H1859 H 0.64662 0.57234 0.3748 0.0
H1860 H 0.64197 0.57485 0.3992 0.0
H1861 H 0.67749 0.57756 0.38926 0.0
H1862 H 0.69288 0.56739 0.41956 0.0
H1863 H 0.68933 0.59355 0.44848 0.0
H1864 H 0.19113 0.93633 0.69962 0.0
H1865 H 0.21726 0.93992 0.6707 0.0
H1866 H 0.27437 0.87171 0.68792 0.0
H1867 H 0.24911 0.86908 0.71727 0.0
H1868 H 0.22593 0.91007 0.6426 0.0
H1869 H 0.33518 0.92384 0.67157 0.0
H1870 H 0.31995 0.89016 0.67855 0.0
H1871 H 0.30346 0.92353 0.68578 0.0
C1872 C 0.20922 0.92196 0.69733 0.0
C1873 C 0.21774 0.90238 0.7111 0.0
C1874 C 0.22437 0.92409 0.6806 0.0
C1875 C 0.24868 0.90665 0.6768 0.0
C1876 C 0.25661 0.88638 0.69035 0.0
H1877 H 0.36351 0.95295 0.58314 0.0
H1878 H 0.33895 0.95007 0.61292 0.0
C1879 C 0.24173 0.88456 0.70722 0.0
C1880 C 0.265 0.9094 0.65866 0.0
H1881 H 0.33278 0.9139 0.63949 0.0
C1882 C 0.24932 0.91102 0.64209 0.0
C1883 C 0.29568 0.91135 0.65743 0.0
C1884 C 0.31453 0.91245 0.67429 0.0
C1885 C 0.26296 0.91394 0.6248 0.0
C1886 C 0.29367 0.91424 0.62348 0.0
C1887 C 0.30939 0.91323 0.64006 0.0
C1888 C 0.30968 0.91564 0.60519 0.0
C1889 C 0.2439 0.91768 0.60818 0.0
C1890 C 0.30256 0.89693 0.5906 0.0
C1891 C 0.31637 0.89886 0.57345 0.0
C1892 C 0.33855 0.91909 0.57014 0.0
C1893 C 0.34664 0.93706 0.58494 0.0
C1894 C 0.33244 0.9354 0.60211 0.0
H1895 H 0.22266 0.92718 0.61191 0.0
H1896 H 0.25415 0.93179 0.59783 0.0
H1897 H 0.23967 0.89628 0.6019 0.0
H1898 H 0.28617 0.88058 0.5924 0.0
H1899 H 0.30955 0.88423 0.56269 0.0
H1900 H 0.83192 0.61271 0.83215 0.0
H1901 H 0.83435 0.58793 0.86189 0.0
H1902 H 0.90391 0.53494 0.84185 0.0
H1903 H 0.90075 0.55856 0.81219 0.0
H1904 H 0.87068 0.58103 0.8888 0.0
H1905 H 0.85581 0.47188 0.86037 0.0
H1906 H 0.88705 0.48857 0.85068 0.0
H1907 H 0.85168 0.50364 0.84649 0.0
C1908 C 0.84775 0.59578 0.83406 0.0
C1909 C 0.86588 0.58766 0.81941 0.0
C1910 C 0.84914 0.58145 0.85119 0.0
C1911 C 0.86876 0.55855 0.85436 0.0
C1912 C 0.88767 0.55145 0.83994 0.0
H1913 H 0.84514 0.43923 0.94763 0.0
H1914 H 0.84222 0.46604 0.91897 0.0
C1915 C 0.88602 0.56538 0.82283 0.0
C1916 C 0.86978 0.5423 0.87254 0.0
H1917 H 0.87277 0.47432 0.8912 0.0
C1918 C 0.87097 0.55768 0.88922 0.0
C1919 C 0.86959 0.51163 0.87364 0.0
C1920 C 0.86564 0.49299 0.85685 0.0
C1921 C 0.87258 0.54367 0.9065 0.0
C1922 C 0.87401 0.51301 0.90752 0.0
C1923 C 0.87222 0.49768 0.89084 0.0
C1924 C 0.87632 0.49635 0.92554 0.0
C1925 C 0.87175 0.56216 0.9235 0.0
C1926 C 0.89678 0.50345 0.93926 0.0
C1927 C 0.89824 0.48815 0.95599 0.0
C1928 C 0.87982 0.46457 0.95953 0.0
C1929 C 0.85998 0.45694 0.94559 0.0
C1930 C 0.85824 0.47249 0.92902 0.0
H1931 H 0.86078 0.58306 0.92086 0.0
H1932 H 0.86038 0.55112 0.93482 0.0
H1933 H 0.89418 0.56698 0.92795 0.0
H1934 H 0.91189 0.52087 0.93707 0.0
H1935 H 0.91391 0.49485 0.96619 0.0
H1936 H 0.85218 0.96322 0.13741 0.0
H1937 H 0.82665 0.95918 1.10798 0.0
H1938 H 0.79085 0.87781 0.12475 0.0
H1939 H 0.8155 0.88217 0.15427 0.0
H1940 H 0.82764 0.92473 1.07967 0.0
H1941 H 0.71797 0.91389 1.10814 0.0
H1942 H 0.74864 0.92316 0.12224 0.0
H1943 H 0.74146 0.88606 0.11639 0.0
C1944 C 0.83883 0.94444 0.13491 0.0
C1945 C 0.83601 0.92316 0.14858 0.0
C1946 C 0.8241 0.94211 0.11792 0.0
C1947 C 0.80588 0.91847 0.11389 0.0
C1948 C 0.80372 0.89685 0.12737 0.0
H1949 H 0.68471 0.9322 1.01961 0.0
H1950 H 0.70994 0.93656 1.04905 0.0
C1951 C 0.81824 0.89926 0.14437 0.0
C1952 C 0.78968 0.9162 1.09566 0.0
H1953 H 0.72293 0.90295 1.07641 0.0
C1954 C 0.80471 0.92004 1.07908 0.0
C1955 C 0.75946 0.91065 1.09438 0.0
C1956 C 0.74088 0.90852 0.11123 0.0
C1957 C 0.79091 0.91794 1.0617 0.0
C1958 C 0.76099 0.91098 1.06042 0.0
C1959 C 0.74583 0.90778 1.077 0.0
C1960 C 0.74498 0.90757 1.0422 0.0
C1961 C 0.80861 0.92413 1.04487 0.0
C1962 C 0.75529 0.88926 1.02819 0.0
C1963 C 0.7408 0.8868 1.01117 0.0
C1964 C 0.71507 0.90217 1.00749 0.0
C1965 C 0.70425 0.91979 1.02171 0.0
C1966 C 0.71886 0.92238 1.03871 0.0
H1967 H 0.82759 0.93788 1.04817 0.0
H1968 H 0.81684 0.90352 1.03916 0.0
H1969 H 0.79552 0.93509 1.0342 0.0
H1970 H 0.7747 0.87669 1.03037 0.0
H1971 H 0.75002 0.8729 1.00078 0.0
H1972 H 0.38679 0.54874 0.90812 0.0
H1973 H 0.39055 0.52486 0.87836 0.0
H1974 H 0.34332 0.59446 0.85335 0.0
H1975 H 0.33923 0.61849 0.88326 0.0
H1976 H 0.41557 0.53906 0.84631 0.0
H1977 H 0.29826 0.52645 0.83355 0.0
H1978 H 0.30918 0.56309 0.83743 0.0
H1979 H 0.31254 0.53716 0.85555 0.0
C1980 C 0.37709 0.55916 0.89636 0.0
C1981 C 0.36255 0.58579 0.89844 0.0
C1982 C 0.37933 0.54532 0.87917 0.0
C1983 C 0.36688 0.55727 0.86328 0.0
C1984 C 0.35267 0.58409 0.86523 0.0
H1985 H 0.35343 0.4348 0.7702 0.0
H1986 H 0.35025 0.46004 0.79968 0.0
C1987 C 0.35053 0.59808 0.88246 0.0
C1988 C 0.36922 0.54175 0.84488 0.0
H1989 H 0.32943 0.51348 0.80918 0.0
C1990 C 0.39663 0.53359 0.83825 0.0
C1991 C 0.34474 0.53387 0.83414 0.0
C1992 C 0.31448 0.5403 0.84055 0.0
C1993 C 0.40023 0.51849 0.82145 0.0
C1994 C 0.37581 0.51124 0.81049 0.0
C1995 C 0.34836 0.51902 0.81724 0.0
C1996 C 0.37827 0.49538 0.79223 0.0
C1997 C 0.43033 0.50979 0.81584 0.0
C1998 C 0.39495 0.50641 0.77773 0.0
C1999 C 0.39685 0.49187 0.76072 0.0
C2000 C 0.38213 0.46564 0.75746 0.0
C2001 C 0.36543 0.45462 0.772 0.0
C2002 C 0.36343 0.46927 0.78899 0.0
H2003 H 0.4454 0.50949 0.82772 0.0
H2004 H 0.43039 0.48813 0.80932 0.0
H2005 H 0.43869 0.52559 0.80581 0.0
H2006 H 0.40619 0.5267 0.7794 0.0
H2007 H 0.40963 0.50152 0.74999 0.0
H2008 H 0.74121 0.13286 0.66057 0.0
H2009 H 0.76507 0.1365 0.6308 0.0
H2010 H 0.691 0.09779 0.60475 0.0
H2011 H 0.66697 0.094 0.63456 0.0
H2012 H 0.75179 0.165 0.59896 0.0
H2013 H 0.75533 0.04797 0.58397 0.0
H2014 H 0.71969 0.06147 0.5885 0.0
H2015 H 0.74655 0.06193 0.60635 0.0
C2016 C 0.72983 0.12503 0.64857 0.0
C2017 C 0.70191 0.11299 0.65031 0.0
C2018 C 0.74364 0.12719 0.63138 0.0
C2019 C 0.73037 0.11707 0.61518 0.0
C2020 C 0.70234 0.10531 0.61684 0.0
H2021 H 0.84934 0.09957 0.52086 0.0
H2022 H 0.8249 0.09702 0.55052 0.0
C2023 C 0.68839 0.10333 0.63404 0.0
C2024 C 0.74573 0.11915 0.59676 0.0
H2025 H 0.76993 0.07916 0.56008 0.0
C2026 C 0.75564 0.14614 0.59051 0.0
C2027 C 0.75148 0.09474 0.5855 0.0
C2028 C 0.74299 0.06483 0.59143 0.0
C2029 C 0.77035 0.14939 0.57359 0.0
C2030 C 0.77549 0.12508 0.56213 0.0
C2031 C 0.76602 0.09802 0.56851 0.0
C2032 C 0.7909 0.1272 0.54373 0.0
C2033 C 0.78087 0.17897 0.56833 0.0
C2034 C 0.78035 0.14489 0.5295 0.0
C2035 C 0.79441 0.14636 0.51234 0.0
C2036 C 0.8197 0.13027 0.50867 0.0
C2037 C 0.83027 0.11264 0.52296 0.0
C2038 C 0.81607 0.11101 0.54006 0.0
H2039 H 0.78237 0.19356 0.58039 0.0
H2040 H 0.8024 0.17779 0.56172 0.0
H2041 H 0.76544 0.18865 0.55845 0.0
H2042 H 0.76077 0.15726 0.5315 0.0
H2043 H 0.78512 0.15995 0.50183 0.0
H2044 H 0.1478 0.4823 0.40745 0.0
H2045 H 0.14414 0.50618 0.37778 0.0
H2046 H 0.1908 0.43622 0.35268 0.0
H2047 H 0.19482 0.4122 0.38253 0.0
H2048 H 0.11895 0.49242 0.34566 0.0
H2049 H 0.23632 0.5036 0.3332 0.0
H2050 H 0.22499 0.46707 0.3368 0.0
H2051 H 0.2221 0.49292 0.35511 0.0
C2052 C 0.1574 0.4718 0.3957 0.0
C2053 C 0.17176 0.44507 0.39774 0.0
C2054 C 0.15522 0.48564 0.37855 0.0
C2055 C 0.16754 0.47359 0.36266 0.0
C2056 C 0.18157 0.44667 0.36456 0.0
H2057 H 0.182 0.59638 0.27049 0.0
H2058 H 0.18496 0.57082 0.29976 0.0
C2059 C 0.18367 0.43269 0.38176 0.0
C2060 C 0.16526 0.48915 0.34432 0.0
H2061 H 0.20513 0.51703 0.30885 0.0
C2062 C 0.1379 0.49768 0.33766 0.0
C2063 C 0.18976 0.49674 0.33366 0.0
C2064 C 0.21998 0.4899 0.34008 0.0
C2065 C 0.13437 0.51289 0.32095 0.0
C2066 C 0.1588 0.51989 0.31008 0.0
C2067 C 0.1862 0.5117 0.31684 0.0
C2068 C 0.15642 0.53594 0.29193 0.0
C2069 C 0.10434 0.522 0.31533 0.0
C2070 C 0.13949 0.52531 0.27729 0.0
C2071 C 0.13775 0.54002 0.26038 0.0
C2072 C 0.15289 0.56602 0.25737 0.0
C2073 C 0.16976 0.57669 0.27207 0.0
C2074 C 0.17161 0.56187 0.28895 0.0
H2075 H 0.08935 0.52238 0.32717 0.0
H2076 H 0.10451 0.5437 0.30898 0.0
H2077 H 0.09573 0.50639 0.30515 0.0
H2078 H 0.12794 0.50518 0.27877 0.0
H2079 H 0.1248 0.53065 0.24952 0.0
H2080 H 0.67426 0.5793 0.5818 0.0
H2081 H 0.69902 0.58219 0.61166 0.0
H2082 H 0.74997 0.65327 0.59207 0.0
H2083 H 0.72643 0.64963 0.56227 0.0
H2084 H 0.7048 0.61793 0.63871 0.0
H2085 H 0.81472 0.60749 0.61086 0.0
H2086 H 0.79695 0.63822 0.60123 0.0
H2087 H 0.78311 0.60251 0.59676 0.0
C2088 C 0.69075 0.59556 0.58383 0.0
C2089 C 0.69833 0.61397 0.56927 0.0
C2090 C 0.70507 0.59722 0.60104 0.0
C2091 C 0.72742 0.61742 0.60438 0.0
C2092 C 0.73394 0.63659 0.59004 0.0
H2093 H 0.84771 0.59754 0.69846 0.0
H2094 H 0.8212 0.59377 0.66954 0.0
C2095 C 0.72004 0.63467 0.57285 0.0
C2096 C 0.74365 0.61876 0.62266 0.0
H2097 H 0.81159 0.62403 0.64174 0.0
C2098 C 0.72818 0.61911 0.63927 0.0
C2099 C 0.77438 0.61968 0.62395 0.0
C2100 C 0.79324 0.61663 0.60726 0.0
C2101 C 0.74212 0.62096 0.65663 0.0
C2102 C 0.77276 0.62358 0.65784 0.0
C2103 C 0.78822 0.62259 0.64125 0.0
C2104 C 0.78929 0.6264 0.67598 0.0
C2105 C 0.7236 0.61908 0.67351 0.0
C2106 C 0.7812 0.64639 0.68969 0.0
C2107 C 0.79632 0.64833 0.70655 0.0
C2108 C 0.82068 0.6309 0.71025 0.0
C2109 C 0.82934 0.6116 0.69631 0.0
C2110 C 0.81397 0.60937 0.67959 0.0
H2111 H 0.70314 0.60734 0.67068 0.0
H2112 H 0.7351 0.60796 0.68482 0.0
H2113 H 0.71781 0.64115 0.6781 0.0
H2114 H 0.76313 0.66074 0.68741 0.0
H2115 H 0.78882 0.66357 0.71674 0.0
H2116 H 0.13705 0.9733 0.81356 0.0
H2117 H 0.13294 0.99604 0.84355 0.0
H2118 H 0.20488 0.94552 0.86302 0.0
H2119 H 0.20805 0.92152 0.83306 0.0
H2120 H 0.1626 0.0301 0.86193 0.0
H2121 H 0.15685 0.93415 0.90623 0.0
H2122 H 0.18948 0.93455 0.89314 0.0
H2123 H 0.15504 0.93139 0.88165 0.0
C2124 C 0.15187 0.96661 0.82424 0.0
C2125 C 0.17278 0.94514 0.82062 0.0
C2126 C 0.14955 0.97989 0.84158 0.0
C2127 C 0.16822 0.97265 0.85618 0.0
C2128 C 0.18935 0.95126 0.85256 0.0
H2129 H 0.12211 0.03398 0.96789 0.0
H2130 H 0.12565 1.00862 0.93845 0.0
C2131 C 0.19134 0.93752 0.8352 0.0
C2132 C 0.16595 0.9884 0.87461 0.0
H2133 H 0.16389 0.97911 0.92136 0.0
C2134 C 0.16276 0.01869 0.87485 0.0
C2135 C 0.16565 0.97419 0.89188 0.0
C2136 C 0.16662 0.94178 0.89325 0.0
C2137 C 0.15944 0.03476 0.89129 0.0
C2138 C 0.16041 0.02072 0.90859 0.0
C2139 C 0.1634 0.99041 0.90839 0.0
C2140 C 0.15794 0.03685 0.92684 0.0
C2141 C 0.15382 0.06671 0.88973 0.0
C2142 C 0.17488 0.06144 0.9308 0.0
C2143 C 0.17241 0.07642 0.94762 0.0
C2144 C 0.15335 0.06716 0.96145 0.0
C2145 C 0.1368 0.04223 0.95768 0.0
C2146 C 0.13899 0.02747 0.94072 0.0
H2147 H 0.14388 0.07218 0.87631 0.0
H2148 H 0.13928 0.07451 0.90073 0.0
H2149 H 0.17463 0.07847 0.89072 0.0
H2150 H 0.19058 0.06895 0.92098 0.0
H2151 H 0.18615 0.09497 0.94993 0.0
H2152 H 0.80685 0.38169 1.06102 0.0
H2153 H 0.78426 0.37796 1.09104 0.0
H2154 H 0.83654 0.44856 0.11059 0.0
H2155 H 0.86032 0.45131 1.08069 0.0
H2156 H 0.75099 0.40792 0.10976 0.0
H2157 H 0.84797 0.40032 0.15364 0.0
H2158 H 0.84798 0.43295 0.14062 0.0
H2159 H 0.8502 0.39859 0.12906 0.0
C2160 C 0.81395 0.39627 1.07173 0.0
C2161 C 0.83588 0.41666 1.06815 0.0
C2162 C 0.80077 0.39418 1.08909 0.0
C2163 C 0.80859 0.41256 1.10374 0.0
C2164 C 0.83036 0.43321 1.10012 0.0
H2165 H 0.74895 0.36916 0.21612 0.0
H2166 H 0.77364 0.37167 0.1865 0.0
C2167 C 0.84397 0.43497 1.08278 0.0
C2168 C 0.79313 0.41055 0.12224 0.0
H2169 H 0.80344 0.40874 0.16896 0.0
C2170 C 0.76273 0.40796 0.12263 0.0
C2171 C 0.80774 0.41008 0.13946 0.0
C2172 C 0.84026 0.41031 0.14071 0.0
C2173 C 0.74691 0.40517 0.13917 0.0
C2174 C 0.76138 0.40605 0.15641 0.0
C2175 C 0.79181 0.40836 0.15606 0.0
C2176 C 0.74559 0.40417 0.17478 0.0
C2177 C 0.71477 0.40022 0.13777 0.0
C2178 C 0.72132 0.42158 0.17875 0.0
C2179 C 0.70672 0.41972 0.19569 0.0
C2180 C 0.71605 0.40081 0.20964 0.0
C2181 C 0.74065 0.38377 0.20584 0.0
C2182 C 0.75504 0.38537 0.18877 0.0
H2183 H 0.7088 0.39023 0.12444 0.0
H2184 H 0.7069 0.38605 0.14889 0.0
H2185 H 0.70341 0.42125 0.13867 0.0
H2186 H 0.71379 0.43719 0.16886 0.0
H2187 H 0.68841 0.43379 0.19799 0.0
H2188 H 0.35116 0.93609 0.44872 0.0
H2189 H 0.34704 0.96256 0.41994 0.0
H2190 H 0.4094 0.02441 0.43954 0.0
H2191 H 0.41264 0.99862 0.46867 0.0
H2192 H 0.37841 0.97426 0.39286 0.0
H2193 H 0.35256 0.08093 0.42201 0.0
H2194 H 0.38665 0.06818 0.4304 0.0
H2195 H 0.35397 0.04895 0.4359 0.0
C2196 C 0.36412 0.9553 0.447 0.0
C2197 C 0.38227 0.96493 0.46136 0.0
C2198 C 0.36168 0.97064 0.43035 0.0
C2199 C 0.37729 0.99632 0.42725 0.0
C2200 C 0.39612 1.00547 0.44141 0.0
H2201 H 0.32876 0.10918 0.33282 0.0
H2202 H 0.33146 0.08448 0.36257 0.0
C2203 C 0.39832 0.99031 0.45816 0.0
C2204 C 0.37434 1.01274 0.40918 0.0
H2205 H 0.36528 0.08019 0.39035 0.0
C2206 C 0.37543 0.99744 0.39247 0.0
C2207 C 0.36965 0.04308 0.40809 0.0
C2208 C 0.3653 0.06119 0.42505 0.0
C2209 C 0.37263 1.01117 0.3752 0.0
C2210 C 0.36979 0.04172 0.37407 0.0
C2211 C 0.36801 0.05699 0.39078 0.0
C2212 C 0.36852 0.05795 0.35584 0.0
C2213 C 0.37174 0.99227 0.35836 0.0
C2214 C 0.38873 0.0525 0.34184 0.0
C2215 C 0.38688 0.06631 0.32469 0.0
C2216 C 0.36525 0.08695 0.32083 0.0
C2217 C 0.34578 0.09354 0.33508 0.0
C2218 C 0.34733 0.07925 0.35223 0.0
H2219 H 0.36364 0.97034 0.36162 0.0
H2220 H 0.35767 1.00158 0.34754 0.0
H2221 H 0.39393 0.98982 0.35288 0.0
H2222 H 0.40618 0.03738 0.34411 0.0
H2223 H 0.40266 0.06073 0.31436 0.0
H2224 H 0.30713 0.38597 0.65651 0.0
H2225 H 0.28362 0.38155 0.62663 0.0
H2226 H 0.34051 0.44648 0.60504 0.0
H2227 H 0.36504 0.44989 0.63477 0.0
H2228 H 0.25238 0.41281 0.60682 0.0
H2229 H 0.34819 0.39303 0.56389 0.0
H2230 H 0.35034 0.39339 0.58851 0.0
H2231 H 0.3511 0.42669 0.57584 0.0
C2232 C 0.31501 0.39913 0.64538 0.0
C2233 C 0.33845 0.41811 0.64831 0.0
C2234 C 0.30131 0.39665 0.62812 0.0
C2235 C 0.31022 0.41319 0.61297 0.0
C2236 C 0.33344 0.4325 0.61596 0.0
H2237 H 0.24735 0.36562 0.5017 0.0
H2238 H 0.27174 0.36828 0.53152 0.0
C2239 C 0.34749 0.43466 0.63319 0.0
C2240 C 0.29453 0.41076 0.59452 0.0
H2241 H 0.30455 0.40405 0.54802 0.0
C2242 C 0.26402 0.41075 0.59404 0.0
C2243 C 0.309 0.40753 0.57746 0.0
C2244 C 0.34143 0.40484 0.57642 0.0
C2245 C 0.24798 0.40797 0.57749 0.0
C2246 C 0.26245 0.40613 0.56036 0.0
C2247 C 0.29296 0.40579 0.56084 0.0
C2248 C 0.24659 0.40408 0.54197 0.0
C2249 C 0.21552 0.40601 0.5788 0.0
C2250 C 0.22401 0.42321 0.53724 0.0
C2251 C 0.20953 0.4213 0.52019 0.0
C2252 C 0.21737 0.40058 0.50689 0.0
C2253 C 0.24026 0.38172 0.51147 0.0
C2254 C 0.25447 0.38337 0.52865 0.0
H2255 H 0.2087 0.39774 0.59237 0.0
H2256 H 0.20608 0.42784 0.57718 0.0
H2257 H 0.20641 0.39165 0.56805 0.0
H2258 H 0.2178 0.44021 0.5466 0.0
H2259 H 0.19263 0.43676 0.51724 0.0
H2260 H 0.89518 0.05251 0.40806 0.0
H2261 H 0.9 0.02928 0.37819 0.0
H2262 H 0.84029 0.09058 0.35506 0.0
H2263 H 0.83632 0.11467 0.38489 0.0
H2264 H 0.8671 1.00065 0.35726 0.0
H2265 H 0.89787 0.09488 0.31577 0.0
H2266 H 0.89602 0.0966 0.34038 0.0
H2267 H 0.8637 0.10023 0.32671 0.0
C2268 C 0.88322 0.0614 0.39663 0.0
C2269 C 0.86548 0.08589 0.39919 0.0
C2270 C 0.88595 0.04787 0.37936 0.0
C2271 C 0.87101 0.05806 0.36379 0.0
C2272 C 0.853 0.08241 0.36636 0.0
H2273 H 0.92109 0.98962 0.25393 0.0
H2274 H 0.91949 1.01454 0.2837 0.0
C2275 C 0.85051 0.09621 0.38365 0.0
C2276 C 0.87364 0.0425 0.34534 0.0
H2277 H 0.88503 0.05237 0.29921 0.0
C2278 C 0.87114 1.01218 0.34465 0.0
C2279 C 0.87946 0.05682 0.32853 0.0
C2280 C 0.88473 0.08887 0.32786 0.0
C2281 C 0.87379 0.99621 0.32812 0.0
C2282 C 0.87825 1.01063 0.31119 0.0
C2283 C 0.88127 0.0409 0.31188 0.0
C2284 C 0.87968 0.99482 0.2928 0.0
C2285 C 0.87262 0.96376 0.3292 0.0
C2286 C 0.85792 0.97526 0.28738 0.0
C2287 C 0.85903 0.96065 0.27041 0.0
C2288 C 0.88173 0.9652 0.25785 0.0
C2289 C 0.9034 0.98505 0.26312 0.0
C2290 C 0.90237 0.99957 0.28024 0.0
H2291 H 0.87922 0.95599 0.34296 0.0
H2292 H 0.8501 0.95649 0.32675 0.0
H2293 H 0.88685 0.95352 0.31885 0.0
H2294 H 0.83955 0.97155 0.29617 0.0
H2295 H 0.84153 0.94608 0.267 0.0
H2296 H 0.16588 0.5895 0.13347 0.0
H2297 H 0.18985 0.59379 1.10363 0.0
H2298 H 0.25898 0.6418 0.12889 0.0
H2299 H 0.23515 0.63785 0.15855 0.0
H2300 H 0.24201 0.57532 1.09054 0.0
H2301 H 0.24083 0.69429 1.08656 0.0
H2302 H 0.25796 0.6813 1.107 0.0
H2303 H 0.22005 0.6748 1.10329 0.0
C2304 C 0.18606 0.60122 0.13272 0.0
C2305 C 0.19817 0.6135 0.14873 0.0
C2306 C 0.19993 0.60359 0.11551 0.0
C2307 C 0.22629 0.6186 0.11356 0.0
C2308 C 0.23845 0.63069 0.12957 0.0
H2309 H 0.28108 0.65853 1.00014 0.0
H2310 H 0.25626 0.65519 1.02963 0.0
C2311 C 0.22471 0.62823 0.14674 0.0
C2312 C 0.24131 0.62115 1.09506 0.0
H2313 H 0.27007 0.66988 1.06471 0.0
C2314 C 0.24804 0.59607 1.08495 0.0
C2315 C 0.24913 0.6481 1.08725 0.0
C2316 C 0.24139 0.67618 1.09647 0.0
C2317 C 0.2626 0.59712 1.06786 0.0
C2318 C 0.27132 0.62402 1.06037 0.0
C2319 C 0.26399 0.64912 1.07027 0.0
C2320 C 0.28738 0.62659 1.04223 0.0
C2321 C 0.26792 0.56923 1.05776 0.0
C2322 C 0.31386 0.61227 1.0391 0.0
C2323 C 0.32834 0.61431 1.02212 0.0
C2324 C 0.31702 0.63083 1.00754 0.0
C2325 C 0.29082 0.64563 1.01084 0.0
C2326 C 0.27643 0.64369 1.02785 0.0
H2327 H 0.2532 0.55187 1.06246 0.0
H2328 H 0.26501 0.57201 1.04278 0.0
H2329 H 0.29044 0.56206 1.06035 0.0
H2330 H 0.3235 0.59943 1.04986 0.0
H2331 H 0.34831 0.60249 1.02037 0.0
H2332 H 0.70497 0.9224 0.88545 0.0
H2333 H 0.7022 0.94788 0.85607 0.0
H2334 H 0.6304 0.99778 0.87619 0.0
H2335 H 0.63419 0.97361 0.90573 0.0
H2336 H 0.6682 0.95339 0.82919 0.0
H2337 H 0.67371 0.06332 0.85765 0.0
H2338 H 0.6791 0.03201 0.87174 0.0
H2339 H 0.64307 0.04476 0.86669 0.0
C2340 C 0.68861 0.93887 0.88367 0.0
C2341 C 0.67003 0.94592 0.89829 0.0
C2342 C 0.687 0.95359 0.86671 0.0
C2343 C 0.6666 0.97581 0.86362 0.0
C2344 C 0.64728 0.98191 0.87804 0.0
H2345 H 0.68551 0.09631 0.76993 0.0
H2346 H 0.6892 0.07052 0.79907 0.0
C2347 C 0.64924 0.96764 0.89506 0.0
C2348 C 0.6652 0.99208 0.84542 0.0
H2349 H 0.65835 0.05965 0.82651 0.0
C2350 C 0.66621 0.97666 0.82875 0.0
C2351 C 0.66328 0.0227 0.84425 0.0
C2352 C 0.66507 0.04165 0.86103 0.0
C2353 C 0.6648 0.9905 0.81142 0.0
C2354 C 0.66102 0.02095 0.81029 0.0
C2355 C 0.66063 0.0364 0.82695 0.0
C2356 C 0.65819 0.03722 0.79216 0.0
C2357 C 0.66848 0.97211 0.79452 0.0
C2358 C 0.63904 0.02814 0.77818 0.0
C2359 C 0.63719 0.0428 0.76126 0.0
C2360 C 0.65381 0.06768 0.75774 0.0
C2361 C 0.67214 0.07745 0.77196 0.0
C2362 C 0.67432 0.06251 0.78878 0.0
H2363 H 0.68093 0.95219 0.79756 0.0
H2364 H 0.64691 0.96542 0.78938 0.0
H2365 H 0.67983 0.98399 0.78352 0.0
H2366 H 0.62531 1.0096 0.78028 0.0
H2367 H 0.62266 0.03449 0.75086 0.0
loop_
_geom_bond_atom_site_label_1
_geom_bond_atom_site_label_2
_geom_bond_distance
_geom_bond_site_symmetry_2
_ccdc_geom_bond_type
Tb0 C10 2.825 . S
Tb0 O11 2.347 . S
Tb0 O14 2.366 . S
Tb0 O19 2.418 . S
Tb0 O20 2.384 . S
Tb0 O23 2.479 . S
Tb0 O24 2.471 . S
Eu1 O12 2.418 . S
Eu1 O13 2.384 . S
Eu1 O16 2.479 . S
Eu1 O17 2.471 . S
Eu1 O18 2.347 . S
Eu1 O21 2.366 . S
Eu1 C31 2.825 . S
C2 O18 1.259 . S
C2 O19 1.265 . S
C3 O20 1.255 . S
C3 O21 1.265 . S
C4 C6 1.380 . S
C4 C7 1.374 . S
C4 C10 1.507 . S
C5 C6 1.384 . S
C5 C9 1.387 . S
C5 H32 0.930 . S
C6 C4 1.380 . S
C6 C5 1.384 . S
C6 H33 0.931 . S
C7 C4 1.374 . S
C7 C8 1.390 . S
C7 H34 0.930 . S
C8 C7 1.390 . S
C8 C9 1.391 . S
C8 H35 0.930 . S
C9 C5 1.387 . S
C9 C8 1.391 . S
C10 Tb0 2.825 . S
C10 C4 1.507 . S
C10 O23 1.238 . S
C10 O24 1.247 . S
O11 Tb0 2.347 . S
O11 C15 1.259 . S
O12 Eu1 2.418 . S
O12 C15 1.265 . S
O13 Eu1 2.384 . S
O13 C22 1.255 . S
O14 Tb0 2.366 . S
O14 C22 1.265 . S
C15 O11 1.259 . S
C15 O12 1.265 . S
O16 Eu1 2.479 . S
O16 C31 1.238 . S
O17 Eu1 2.471 . S
O17 C31 1.247 . S
O18 Eu1 2.347 . S
O18 C2 1.259 . S
O19 Tb0 2.418 . S
O19 C2 1.265 . S
O20 Tb0 2.384 . S
O20 C3 1.255 . S
O21 Eu1 2.366 . S
O21 C3 1.265 . S
C22 O13 1.255 . S
C22 O14 1.265 . S
O23 Tb0 2.479 . S
O23 C10 1.238 . S
O24 Tb0 2.471 . S
O24 C10 1.247 . S
C25 C28 1.380 . S
C25 C29 1.374 . S
C25 C31 1.507 . S
C26 C27 1.387 . S
C26 C30 1.391 . S
C27 C26 1.387 . S
C27 C28 1.384 . S
C27 H36 0.930 1_545 S
C28 C25 1.380 . S
C28 C27 1.384 . S
C28 H37 0.931 . S
C29 C25 1.374 . S
C29 C30 1.390 . S
C29 H38 0.930 . S
C30 C26 1.391 . S
C30 C29 1.390 . S
C30 H39 0.930 . S
C31 Eu1 2.825 . S
C31 O16 1.238 . S
C31 O17 1.247 . S
C31 C25 1.507 . S
H32 C5 0.930 . S
H33 C6 0.931 . S
H34 C7 0.930 . S
H35 C8 0.930 . S
H36 C27 0.930 1_565 S
H37 C28 0.931 . S
H38 C29 0.930 . S
H39 C30 0.930 . S
Tb40 C50 2.825 . S
Tb40 O51 2.347 . S
Tb40 O54 2.366 . S
Tb40 O59 2.418 . S
Tb40 O60 2.384 . S
Tb40 O63 2.479 . S
Tb40 O64 2.471 . S
Eu41 O52 2.418 . S
Eu41 O53 2.384 . S
Eu41 O56 2.479 . S
Eu41 O57 2.471 . S
Eu41 O58 2.347 . S
Eu41 O61 2.366 . S
Eu41 C71 2.825 . S
C42 O58 1.259 . S
C42 O59 1.265 . S
C43 O60 1.255 . S
C43 O61 1.265 . S
C44 C46 1.380 . S
C44 C47 1.374 . S
C44 C50 1.507 . S
C45 C46 1.384 . S
C45 C49 1.387 . S
C45 H72 0.930 . S
C46 C44 1.380 . S
C46 C45 1.384 . S
C46 H73 0.931 . S
C47 C44 1.374 . S
C47 C48 1.390 . S
C47 H74 0.930 . S
C48 C47 1.390 . S
C48 C49 1.391 . S
C48 H75 0.930 . S
C49 C45 1.387 . S
C49 C48 1.391 . S
C50 Tb40 2.825 . S
C50 C44 1.507 . S
C50 O63 1.238 . S
C50 O64 1.247 . S
O51 Tb40 2.347 . S
O51 C55 1.259 . S
O52 Eu41 2.418 . S
O52 C55 1.265 . S
O53 Eu41 2.384 . S
O53 C62 1.255 . S
O54 Tb40 2.366 . S
O54 C62 1.265 . S
C55 O51 1.259 . S
C55 O52 1.265 . S
O56 Eu41 2.479 . S
O56 C71 1.238 . S
O57 Eu41 2.471 . S
O57 C71 1.247 . S
O58 Eu41 2.347 . S
O58 C42 1.259 . S
O59 Tb40 2.418 . S
O59 C42 1.265 . S
O60 Tb40 2.384 . S
O60 C43 1.255 . S
O61 Eu41 2.366 . S
O61 C43 1.265 . S
C62 O53 1.255 . S
C62 O54 1.265 . S
O63 Tb40 2.479 . S
O63 C50 1.238 . S
O64 Tb40 2.471 . S
O64 C50 1.247 . S
C65 C68 1.380 . S
C65 C69 1.374 . S
C65 C71 1.507 . S
C66 C67 1.387 . S
C66 C70 1.391 . S
C67 C66 1.387 . S
C67 C68 1.384 . S
C67 H76 0.930 . S
C68 C65 1.380 . S
C68 C67 1.384 . S
C68 H77 0.931 . S
C69 C65 1.374 . S
C69 C70 1.390 . S
C69 H78 0.930 . S
C70 C66 1.391 . S
C70 C69 1.390 . S
C70 H79 0.930 . S
C71 Eu41 2.825 . S
C71 O56 1.238 . S
C71 O57 1.247 . S
C71 C65 1.507 . S
H72 C45 0.930 . S
H73 C46 0.931 . S
H74 C47 0.930 . S
H75 C48 0.930 . S
H76 C67 0.930 . S
H77 C68 0.931 . S
H78 C69 0.930 . S
H79 C70 0.930 . S
Tb80 C90 2.825 . S
Tb80 O91 2.347 . S
Tb80 O94 2.366 . S
Tb80 O99 2.418 . S
Tb80 O100 2.384 . S
Tb80 O103 2.479 . S
Tb80 O104 2.471 . S
Eu81 O92 2.418 . S
Eu81 O93 2.384 . S
Eu81 O96 2.479 . S
Eu81 O97 2.471 . S
Eu81 O98 2.347 . S
Eu81 O101 2.366 . S
Eu81 C111 2.825 . S
C82 O98 1.259 . S
C82 O99 1.265 . S
C83 O100 1.255 . S
C83 O101 1.265 . S
C84 C86 1.380 . S
C84 C87 1.374 . S
C84 C90 1.507 . S
C85 C86 1.384 . S
C85 C89 1.387 . S
C85 H112 0.930 . S
C86 C84 1.380 . S
C86 C85 1.384 . S
C86 H113 0.931 . S
C87 C84 1.374 . S
C87 C88 1.390 . S
C87 H114 0.930 . S
C88 C87 1.390 . S
C88 C89 1.391 . S
C88 H115 0.930 . S
C89 C85 1.387 . S
C89 C88 1.391 . S
C90 Tb80 2.825 . S
C90 C84 1.507 . S
C90 O103 1.238 . S
C90 O104 1.247 . S
O91 Tb80 2.347 . S
O91 C95 1.259 . S
O92 Eu81 2.418 . S
O92 C95 1.265 . S
O93 Eu81 2.384 . S
O93 C102 1.255 . S
O94 Tb80 2.366 . S
O94 C102 1.265 . S
C95 O91 1.259 . S
C95 O92 1.265 . S
O96 Eu81 2.479 . S
O96 C111 1.238 . S
O97 Eu81 2.471 . S
O97 C111 1.247 . S
O98 Eu81 2.347 . S
O98 C82 1.259 . S
O99 Tb80 2.418 . S
O99 C82 1.265 . S
O100 Tb80 2.384 . S
O100 C83 1.255 . S
O101 Eu81 2.366 . S
O101 C83 1.265 . S
C102 O93 1.255 . S
C102 O94 1.265 . S
O103 Tb80 2.479 . S
O103 C90 1.238 . S
O104 Tb80 2.471 . S
O104 C90 1.247 . S
C105 C108 1.380 . S
C105 C109 1.374 . S
C105 C111 1.507 . S
C106 C107 1.387 . S
C106 C110 1.391 . S
C107 C106 1.387 . S
C107 C108 1.384 . S
C107 H116 0.930 1_565 S
C108 C105 1.380 . S
C108 C107 1.384 . S
C108 H117 0.931 . S
C109 C105 1.374 . S
C109 C110 1.390 . S
C109 H118 0.930 . S
C110 C106 1.391 . S
C110 C109 1.390 . S
C110 H119 0.930 . S
C111 Eu81 2.825 . S
C111 O96 1.238 . S
C111 O97 1.247 . S
C111 C105 1.507 . S
H112 C85 0.930 . S
H113 C86 0.931 . S
H114 C87 0.930 . S
H115 C88 0.930 . S
H116 C107 0.930 1_545 S
H117 C108 0.931 . S
H118 C109 0.930 . S
H119 C110 0.930 . S
Tb120 C130 2.825 . S
Tb120 O131 2.347 . S
Tb120 O134 2.366 . S
Tb120 O139 2.418 . S
Tb120 O140 2.384 . S
Tb120 O143 2.479 . S
Tb120 O144 2.471 . S
Eu121 O132 2.418 . S
Eu121 O133 2.384 . S
Eu121 O136 2.479 . S
Eu121 O137 2.471 . S
Eu121 O138 2.347 . S
Eu121 O141 2.366 . S
Eu121 C151 2.825 . S
C122 O138 1.259 . S
C122 O139 1.265 . S
C123 O140 1.255 . S
C123 O141 1.265 . S
C124 C126 1.380 1_655 S
C124 C127 1.374 . S
C124 C130 1.507 . S
C125 C126 1.384 . S
C125 C129 1.387 . S
C125 H152 0.930 . S
C126 C124 1.380 1_455 S
C126 C125 1.384 . S
C126 H153 0.931 . S
C127 C124 1.374 . S
C127 C128 1.390 . S
C127 H154 0.930 . S
C128 C127 1.390 . S
C128 C129 1.391 1_655 S
C128 H155 0.930 . S
C129 C125 1.387 . S
C129 C128 1.391 1_455 S
C130 Tb120 2.825 . S
C130 C124 1.507 . S
C130 O143 1.238 . S
C130 O144 1.247 . S
O131 Tb120 2.347 . S
O131 C135 1.259 . S
O132 Eu121 2.418 . S
O132 C135 1.265 . S
O133 Eu121 2.384 . S
O133 C142 1.255 . S
O134 Tb120 2.366 . S
O134 C142 1.265 . S
C135 O131 1.259 . S
C135 O132 1.265 . S
O136 Eu121 2.479 . S
O136 C151 1.238 . S
O137 Eu121 2.471 . S
O137 C151 1.247 . S
O138 Eu121 2.347 . S
O138 C122 1.259 . S
O139 Tb120 2.418 . S
O139 C122 1.265 . S
O140 Tb120 2.384 . S
O140 C123 1.255 . S
O141 Eu121 2.366 . S
O141 C123 1.265 . S
C142 O133 1.255 . S
C142 O134 1.265 . S
O143 Tb120 2.479 . S
O143 C130 1.238 . S
O144 Tb120 2.471 . S
O144 C130 1.247 . S
C145 C148 1.380 . S
C145 C149 1.374 . S
C145 C151 1.507 . S
C146 C147 1.387 . S
C146 C150 1.391 . S
C147 C146 1.387 . S
C147 C148 1.384 . S
C147 H156 0.930 . S
C148 C145 1.380 . S
C148 C147 1.384 . S
C148 H157 0.931 . S
C149 C145 1.374 . S
C149 C150 1.390 . S
C149 H158 0.930 . S
C150 C146 1.391 . S
C150 C149 1.390 . S
C150 H159 0.930 . S
C151 Eu121 2.825 . S
C151 O136 1.238 . S
C151 O137 1.247 . S
C151 C145 1.507 . S
H152 C125 0.930 . S
H153 C126 0.931 . S
H154 C127 0.930 . S
H155 C128 0.930 . S
H156 C147 0.930 . S
H157 C148 0.931 . S
H158 C149 0.930 . S
H159 C150 0.930 . S
Tb160 C170 2.825 . S
Tb160 O171 2.347 . S
Tb160 O174 2.366 . S
Tb160 O179 2.418 . S
Tb160 O180 2.384 . S
Tb160 O183 2.479 . S
Tb160 O184 2.471 . S
Eu161 O172 2.418 . S
Eu161 O173 2.384 . S
Eu161 O176 2.479 . S
Eu161 O177 2.471 . S
Eu161 O178 2.347 . S
Eu161 O181 2.366 . S
Eu161 C191 2.825 . S
C162 O178 1.259 . S
C162 O179 1.265 . S
C163 O180 1.255 . S
C163 O181 1.265 . S
C164 C166 1.380 . S
C164 C167 1.374 . S
C164 C170 1.507 . S
C165 C166 1.384 . S
C165 C169 1.387 . S
C165 H192 0.930 1_565 S
C166 C164 1.380 . S
C166 C165 1.384 . S
C166 H193 0.931 . S
C167 C164 1.374 . S
C167 C168 1.390 . S
C167 H194 0.930 . S
C168 C167 1.390 . S
C168 C169 1.391 . S
C168 H195 0.930 . S
C169 C165 1.387 . S
C169 C168 1.391 . S
C170 Tb160 2.825 . S
C170 C164 1.507 . S
C170 O183 1.238 . S
C170 O184 1.247 . S
O171 Tb160 2.347 . S
O171 C175 1.259 . S
O172 Eu161 2.418 . S
O172 C175 1.265 . S
O173 Eu161 2.384 . S
O173 C182 1.255 . S
O174 Tb160 2.366 . S
O174 C182 1.265 . S
C175 O171 1.259 . S
C175 O172 1.265 . S
O176 Eu161 2.479 . S
O176 C191 1.238 . S
O177 Eu161 2.471 . S
O177 C191 1.247 . S
O178 Eu161 2.347 . S
O178 C162 1.259 . S
O179 Tb160 2.418 . S
O179 C162 1.265 . S
O180 Tb160 2.384 . S
O180 C163 1.255 . S
O181 Eu161 2.366 . S
O181 C163 1.265 . S
C182 O173 1.255 . S
C182 O174 1.265 . S
O183 Tb160 2.479 . S
O183 C170 1.238 . S
O184 Tb160 2.471 . S
O184 C170 1.247 . S
C185 C188 1.380 . S
C185 C189 1.374 . S
C185 C191 1.507 . S
C186 C187 1.387 . S
C186 C190 1.391 . S
C187 C186 1.387 . S
C187 C188 1.384 . S
C187 H196 0.930 . S
C188 C185 1.380 . S
C188 C187 1.384 . S
C188 H197 0.931 . S
C189 C185 1.374 . S
C189 C190 1.390 . S
C189 H198 0.930 . S
C190 C186 1.391 . S
C190 C189 1.390 . S
C190 H199 0.930 . S
C191 Eu161 2.825 . S
C191 O176 1.238 . S
C191 O177 1.247 . S
C191 C185 1.507 . S
H192 C165 0.930 1_545 S
H193 C166 0.931 . S
H194 C167 0.930 . S
H195 C168 0.930 . S
H196 C187 0.930 . S
H197 C188 0.931 . S
H198 C189 0.930 . S
H199 C190 0.930 . S
Tb200 C210 2.825 . S
Tb200 O211 2.347 . S
Tb200 O214 2.366 . S
Tb200 O219 2.418 . S
Tb200 O220 2.384 . S
Tb200 O223 2.479 . S
Tb200 O224 2.471 . S
Eu201 O212 2.418 . S
Eu201 O213 2.384 . S
Eu201 O216 2.479 . S
Eu201 O217 2.471 . S
Eu201 O218 2.347 . S
Eu201 O221 2.366 . S
Eu201 C231 2.825 . S
C202 O218 1.259 . S
C202 O219 1.265 . S
C203 O220 1.255 . S
C203 O221 1.265 . S
C204 C206 1.380 . S
C204 C207 1.374 . S
C204 C210 1.507 . S
C205 C206 1.384 . S
C205 C209 1.387 . S
C205 H232 0.930 . S
C206 C204 1.380 . S
C206 C205 1.384 . S
C206 H233 0.931 . S
C207 C204 1.374 . S
C207 C208 1.390 . S
C207 H234 0.930 . S
C208 C207 1.390 . S
C208 C209 1.391 . S
C208 H235 0.930 . S
C209 C205 1.387 . S
C209 C208 1.391 . S
C210 Tb200 2.825 . S
C210 C204 1.507 . S
C210 O223 1.238 . S
C210 O224 1.247 . S
O211 Tb200 2.347 . S
O211 C215 1.259 . S
O212 Eu201 2.418 . S
O212 C215 1.265 . S
O213 Eu201 2.384 . S
O213 C222 1.255 . S
O214 Tb200 2.366 . S
O214 C222 1.265 . S
C215 O211 1.259 . S
C215 O212 1.265 . S
O216 Eu201 2.479 . S
O216 C231 1.238 . S
O217 Eu201 2.471 . S
O217 C231 1.247 . S
O218 Eu201 2.347 . S
O218 C202 1.259 . S
O219 Tb200 2.418 . S
O219 C202 1.265 . S
O220 Tb200 2.384 . S
O220 C203 1.255 . S
O221 Eu201 2.366 . S
O221 C203 1.265 . S
C222 O213 1.255 . S
C222 O214 1.265 . S
O223 Tb200 2.479 . S
O223 C210 1.238 . S
O224 Tb200 2.471 . S
O224 C210 1.247 . S
C225 C228 1.380 . S
C225 C229 1.374 . S
C225 C231 1.507 . S
C226 C227 1.387 . S
C226 C230 1.391 . S
C227 C226 1.387 . S
C227 C228 1.384 . S
C227 H236 0.930 . S
C228 C225 1.380 . S
C228 C227 1.384 . S
C228 H237 0.931 . S
C229 C225 1.374 . S
C229 C230 1.390 . S
C229 H238 0.930 . S
C230 C226 1.391 . S
C230 C229 1.390 . S
C230 H239 0.930 . S
C231 Eu201 2.825 . S
C231 O216 1.238 . S
C231 O217 1.247 . S
C231 C225 1.507 . S
H232 C205 0.930 . S
H233 C206 0.931 . S
H234 C207 0.930 . S
H235 C208 0.930 . S
H236 C227 0.930 . S
H237 C228 0.931 . S
H238 C229 0.930 . S
H239 C230 0.930 . S
Tb240 C250 2.825 . S
Tb240 O251 2.347 . S
Tb240 O254 2.366 . S
Tb240 O259 2.418 . S
Tb240 O260 2.384 . S
Tb240 O263 2.479 . S
Tb240 O264 2.471 . S
Eu241 O252 2.418 . S
Eu241 O253 2.384 . S
Eu241 O256 2.479 . S
Eu241 O257 2.471 . S
Eu241 O258 2.347 . S
Eu241 O261 2.366 . S
Eu241 C271 2.825 . S
C242 O258 1.259 . S
C242 O259 1.265 . S
C243 O260 1.255 . S
C243 O261 1.265 . S
C244 C246 1.380 . S
C244 C247 1.374 . S
C244 C250 1.507 . S
C245 C246 1.384 . S
C245 C249 1.387 . S
C245 H272 0.930 1_545 S
C246 C244 1.380 . S
C246 C245 1.384 . S
C246 H273 0.931 . S
C247 C244 1.374 . S
C247 C248 1.390 . S
C247 H274 0.930 . S
C248 C247 1.390 . S
C248 C249 1.391 . S
C248 H275 0.930 . S
C249 C245 1.387 . S
C249 C248 1.391 . S
C250 Tb240 2.825 . S
C250 C244 1.507 . S
C250 O263 1.238 . S
C250 O264 1.247 . S
O251 Tb240 2.347 . S
O251 C255 1.259 . S
O252 Eu241 2.418 . S
O252 C255 1.265 . S
O253 Eu241 2.384 . S
O253 C262 1.255 . S
O254 Tb240 2.366 . S
O254 C262 1.265 . S
C255 O251 1.259 . S
C255 O252 1.265 . S
O256 Eu241 2.479 . S
O256 C271 1.238 . S
O257 Eu241 2.471 . S
O257 C271 1.247 . S
O258 Eu241 2.347 . S
O258 C242 1.259 . S
O259 Tb240 2.418 . S
O259 C242 1.265 . S
O260 Tb240 2.384 . S
O260 C243 1.255 . S
O261 Eu241 2.366 . S
O261 C243 1.265 . S
C262 O253 1.255 . S
C262 O254 1.265 . S
O263 Tb240 2.479 . S
O263 C250 1.238 . S
O264 Tb240 2.471 . S
O264 C250 1.247 . S
C265 C268 1.380 . S
C265 C269 1.374 . S
C265 C271 1.507 . S
C266 C267 1.387 . S
C266 C270 1.391 . S
C267 C266 1.387 . S
C267 C268 1.384 . S
C267 H276 0.930 . S
C268 C265 1.380 . S
C268 C267 1.384 . S
C268 H277 0.931 . S
C269 C265 1.374 . S
C269 C270 1.390 . S
C269 H278 0.930 . S
C270 C266 1.391 . S
C270 C269 1.390 . S
C270 H279 0.930 . S
C271 Eu241 2.825 . S
C271 O256 1.238 . S
C271 O257 1.247 . S
C271 C265 1.507 . S
H272 C245 0.930 1_565 S
H273 C246 0.931 . S
H274 C247 0.930 . S
H275 C248 0.930 . S
H276 C267 0.930 . S
H277 C268 0.931 . S
H278 C269 0.930 . S
H279 C270 0.930 . S
Tb280 C290 2.825 . S
Tb280 O291 2.347 . S
Tb280 O294 2.366 . S
Tb280 O299 2.418 . S
Tb280 O300 2.384 . S
Tb280 O303 2.479 . S
Tb280 O304 2.471 . S
Eu281 O292 2.418 . S
Eu281 O293 2.384 . S
Eu281 O296 2.479 . S
Eu281 O297 2.471 . S
Eu281 O298 2.347 . S
Eu281 O301 2.366 . S
Eu281 C311 2.825 . S
C282 O298 1.259 . S
C282 O299 1.265 . S
C283 O300 1.255 . S
C283 O301 1.265 . S
C284 C286 1.380 . S
C284 C287 1.374 . S
C284 C290 1.507 . S
C285 C286 1.384 . S
C285 C289 1.387 . S
C285 H312 0.930 . S
C286 C284 1.380 . S
C286 C285 1.384 . S
C286 H313 0.931 . S
C287 C284 1.374 . S
C287 C288 1.390 . S
C287 H314 0.930 . S
C288 C287 1.390 . S
C288 C289 1.391 . S
C288 H315 0.930 . S
C289 C285 1.387 . S
C289 C288 1.391 . S
C290 Tb280 2.825 . S
C290 C284 1.507 . S
C290 O303 1.238 . S
C290 O304 1.247 . S
O291 Tb280 2.347 . S
O291 C295 1.259 . S
O292 Eu281 2.418 . S
O292 C295 1.265 . S
O293 Eu281 2.384 . S
O293 C302 1.255 . S
O294 Tb280 2.366 . S
O294 C302 1.265 . S
C295 O291 1.259 . S
C295 O292 1.265 . S
O296 Eu281 2.479 . S
O296 C311 1.238 . S
O297 Eu281 2.471 . S
O297 C311 1.247 . S
O298 Eu281 2.347 . S
O298 C282 1.259 . S
O299 Tb280 2.418 . S
O299 C282 1.265 . S
O300 Tb280 2.384 . S
O300 C283 1.255 . S
O301 Eu281 2.366 . S
O301 C283 1.265 . S
C302 O293 1.255 . S
C302 O294 1.265 . S
O303 Tb280 2.479 . S
O303 C290 1.238 . S
O304 Tb280 2.471 . S
O304 C290 1.247 . S
C305 C308 1.380 1_455 S
C305 C309 1.374 . S
C305 C311 1.507 . S
C306 C307 1.387 . S
C306 C310 1.391 1_655 S
C307 C306 1.387 . S
C307 C308 1.384 . S
C307 H316 0.930 . S
C308 C305 1.380 1_655 S
C308 C307 1.384 . S
C308 H317 0.931 . S
C309 C305 1.374 . S
C309 C310 1.390 . S
C309 H318 0.930 . S
C310 C306 1.391 1_455 S
C310 C309 1.390 . S
C310 H319 0.930 . S
C311 Eu281 2.825 . S
C311 O296 1.238 . S
C311 O297 1.247 . S
C311 C305 1.507 . S
H312 C285 0.930 . S
H313 C286 0.931 . S
H314 C287 0.930 . S
H315 C288 0.930 . S
H316 C307 0.930 . S
H317 C308 0.931 . S
H318 C309 0.930 . S
H319 C310 0.930 . S
Tb320 C330 2.825 . S
Tb320 O331 2.347 . S
Tb320 O334 2.366 . S
Tb320 O339 2.418 . S
Tb320 O340 2.384 . S
Tb320 O343 2.479 . S
Tb320 O344 2.471 . S
Eu321 O332 2.418 . S
Eu321 O333 2.384 . S
Eu321 O336 2.479 . S
Eu321 O337 2.471 . S
Eu321 O338 2.347 . S
Eu321 O341 2.366 . S
Eu321 C351 2.825 . S
C322 O338 1.259 . S
C322 O339 1.265 . S
C323 O340 1.255 . S
C323 O341 1.265 . S
C324 C326 1.380 . S
C324 C327 1.374 . S
C324 C330 1.507 . S
C325 C326 1.384 . S
C325 C329 1.387 . S
C325 H352 0.930 . S
C326 C324 1.380 . S
C326 C325 1.384 . S
C326 H353 0.931 . S
C327 C324 1.374 . S
C327 C328 1.390 . S
C327 H354 0.930 . S
C328 C327 1.390 . S
C328 C329 1.391 . S
C328 H355 0.930 . S
C329 C325 1.387 . S
C329 C328 1.391 . S
C330 Tb320 2.825 . S
C330 C324 1.507 . S
C330 O343 1.238 . S
C330 O344 1.247 . S
O331 Tb320 2.347 . S
O331 C335 1.259 . S
O332 Eu321 2.418 . S
O332 C335 1.265 . S
O333 Eu321 2.384 . S
O333 C342 1.255 . S
O334 Tb320 2.366 . S
O334 C342 1.265 . S
C335 O331 1.259 . S
C335 O332 1.265 . S
O336 Eu321 2.479 . S
O336 C351 1.238 . S
O337 Eu321 2.471 . S
O337 C351 1.247 . S
O338 Eu321 2.347 . S
O338 C322 1.259 . S
O339 Tb320 2.418 . S
O339 C322 1.265 . S
O340 Tb320 2.384 . S
O340 C323 1.255 . S
O341 Eu321 2.366 . S
O341 C323 1.265 . S
C342 O333 1.255 . S
C342 O334 1.265 . S
O343 Tb320 2.479 . S
O343 C330 1.238 . S
O344 Tb320 2.471 . S
O344 C330 1.247 . S
C345 C348 1.380 . S
C345 C349 1.374 . S
C345 C351 1.507 . S
C346 C347 1.387 . S
C346 C350 1.391 . S
C347 C346 1.387 . S
C347 C348 1.384 . S
C347 H356 0.930 . S
C348 C345 1.380 . S
C348 C347 1.384 . S
C348 H357 0.931 . S
C349 C345 1.374 . S
C349 C350 1.390 . S
C349 H358 0.930 . S
C350 C346 1.391 . S
C350 C349 1.390 . S
C350 H359 0.930 . S
C351 Eu321 2.825 . S
C351 O336 1.238 . S
C351 O337 1.247 . S
C351 C345 1.507 . S
H352 C325 0.930 . S
H353 C326 0.931 . S
H354 C327 0.930 . S
H355 C328 0.930 . S
H356 C347 0.930 . S
H357 C348 0.931 . S
H358 C349 0.930 . S
H359 C350 0.930 . S
Tb360 C370 2.825 . S
Tb360 O371 2.347 . S
Tb360 O374 2.366 . S
Tb360 O379 2.418 . S
Tb360 O380 2.384 . S
Tb360 O383 2.479 . S
Tb360 O384 2.471 . S
Eu361 O372 2.418 . S
Eu361 O373 2.384 . S
Eu361 O376 2.479 . S
Eu361 O377 2.471 . S
Eu361 O378 2.347 . S
Eu361 O381 2.366 . S
Eu361 C391 2.825 . S
C362 O378 1.259 . S
C362 O379 1.265 . S
C363 O380 1.255 . S
C363 O381 1.265 . S
C364 C366 1.382 1_455 S
C364 C367 1.368 1_545 S
C364 C370 1.510 . S
C365 C366 1.384 1_565 S
C365 C369 1.387 . S
C365 H392 0.933 . S
C366 C364 1.382 1_655 S
C366 C365 1.384 1_545 S
C366 H393 0.931 . S
C367 C364 1.368 1_565 S
C367 C368 1.390 . S
C367 H394 0.930 . S
C368 C367 1.390 . S
C368 C369 1.391 1_455 S
C368 H395 0.930 . S
C369 C365 1.387 . S
C369 C368 1.391 1_655 S
C370 Tb360 2.825 . S
C370 C364 1.510 . S
C370 O383 1.238 . S
C370 O384 1.247 . S
O371 Tb360 2.347 . S
O371 C375 1.259 . S
O372 Eu361 2.418 . S
O372 C375 1.265 . S
O373 Eu361 2.384 . S
O373 C382 1.255 . S
O374 Tb360 2.366 . S
O374 C382 1.265 . S
C375 O371 1.259 . S
C375 O372 1.265 . S
O376 Eu361 2.479 . S
O376 C391 1.238 . S
O377 Eu361 2.471 . S
O377 C391 1.247 . S
O378 Eu361 2.347 . S
O378 C362 1.259 . S
O379 Tb360 2.418 . S
O379 C362 1.265 . S
O380 Tb360 2.384 . S
O380 C363 1.255 . S
O381 Eu361 2.366 . S
O381 C363 1.265 . S
C382 O373 1.255 . S
C382 O374 1.265 . S
O383 Tb360 2.479 . S
O383 C370 1.238 . S
O384 Tb360 2.471 . S
O384 C370 1.247 . S
C385 C388 1.380 . S
C385 C389 1.374 . S
C385 C391 1.507 . S
C386 C387 1.387 . S
C386 C390 1.391 . S
C387 C386 1.387 . S
C387 C388 1.384 . S
C387 H396 0.930 . S
C388 C385 1.380 . S
C388 C387 1.384 . S
C388 H397 0.931 . S
C389 C385 1.374 . S
C389 C390 1.390 . S
C389 H398 0.930 . S
C390 C386 1.391 . S
C390 C389 1.390 . S
C390 H399 0.930 . S
C391 Eu361 2.825 . S
C391 O376 1.238 . S
C391 O377 1.247 . S
C391 C385 1.507 . S
H392 C365 0.933 . S
H393 C366 0.931 . S
H394 C367 0.930 . S
H395 C368 0.930 . S
H396 C387 0.930 . S
H397 C388 0.931 . S
H398 C389 0.930 . S
H399 C390 0.930 . S
Tb400 C410 2.825 . S
Tb400 O411 2.347 . S
Tb400 O414 2.366 . S
Tb400 O419 2.418 . S
Tb400 O420 2.384 . S
Tb400 O423 2.479 . S
Tb400 O424 2.471 . S
Eu401 O412 2.418 . S
Eu401 O413 2.384 . S
Eu401 O416 2.479 . S
Eu401 O417 2.471 . S
Eu401 O418 2.347 . S
Eu401 O421 2.366 . S
Eu401 C431 2.825 . S
C402 O418 1.259 . S
C402 O419 1.265 . S
C403 O420 1.255 . S
C403 O421 1.265 . S
C404 C406 1.380 . S
C404 C407 1.374 . S
C404 C410 1.507 . S
C405 C406 1.384 . S
C405 C409 1.387 . S
C405 H432 0.930 . S
C406 C404 1.380 . S
C406 C405 1.384 . S
C406 H433 0.931 . S
C407 C404 1.374 . S
C407 C408 1.390 . S
C407 H434 0.930 . S
C408 C407 1.390 . S
C408 C409 1.391 . S
C408 H435 0.930 . S
C409 C405 1.387 . S
C409 C408 1.391 . S
C410 Tb400 2.825 . S
C410 C404 1.507 . S
C410 O423 1.238 . S
C410 O424 1.247 . S
O411 Tb400 2.347 . S
O411 C415 1.259 . S
O412 Eu401 2.418 . S
O412 C415 1.265 . S
O413 Eu401 2.384 . S
O413 C422 1.255 . S
O414 Tb400 2.366 . S
O414 C422 1.265 . S
C415 O411 1.259 . S
C415 O412 1.265 . S
O416 Eu401 2.479 . S
O416 C431 1.238 . S
O417 Eu401 2.471 . S
O417 C431 1.247 . S
O418 Eu401 2.347 . S
O418 C402 1.259 . S
O419 Tb400 2.418 . S
O419 C402 1.265 . S
O420 Tb400 2.384 . S
O420 C403 1.255 . S
O421 Eu401 2.366 . S
O421 C403 1.265 . S
C422 O413 1.255 . S
C422 O414 1.265 . S
O423 Tb400 2.479 . S
O423 C410 1.238 . S
O424 Tb400 2.471 . S
O424 C410 1.247 . S
C425 C428 1.380 . S
C425 C429 1.374 . S
C425 C431 1.507 . S
C426 C427 1.387 . S
C426 C430 1.391 . S
C427 C426 1.387 . S
C427 C428 1.384 . S
C427 H436 0.930 . S
C428 C425 1.380 . S
C428 C427 1.384 . S
C428 H437 0.931 . S
C429 C425 1.374 . S
C429 C430 1.390 . S
C429 H438 0.930 . S
C430 C426 1.391 . S
C430 C429 1.390 . S
C430 H439 0.930 . S
C431 Eu401 2.825 . S
C431 O416 1.238 . S
C431 O417 1.247 . S
C431 C425 1.507 . S
H432 C405 0.930 . S
H433 C406 0.931 . S
H434 C407 0.930 . S
H435 C408 0.930 . S
H436 C427 0.930 . S
H437 C428 0.931 . S
H438 C429 0.930 . S
H439 C430 0.930 . S
Tb440 C450 2.825 . S
Tb440 O451 2.347 . S
Tb440 O454 2.366 . S
Tb440 O459 2.418 . S
Tb440 O460 2.384 . S
Tb440 O463 2.479 . S
Tb440 O464 2.471 . S
Eu441 O452 2.418 . S
Eu441 O453 2.384 . S
Eu441 O456 2.479 . S
Eu441 O457 2.471 . S
Eu441 O458 2.347 . S
Eu441 O461 2.366 . S
Eu441 C471 2.825 . S
C442 O458 1.259 . S
C442 O459 1.265 . S
C443 O460 1.255 . S
C443 O461 1.265 . S
C444 C446 1.382 . S
C444 C447 1.368 1_565 S
C444 C450 1.510 . S
C445 C446 1.384 1_545 S
C445 C449 1.387 . S
C445 H472 0.933 . S
C446 C444 1.382 . S
C446 C445 1.384 1_565 S
C446 H473 0.931 . S
C447 C444 1.368 1_545 S
C447 C448 1.390 . S
C447 H474 0.930 . S
C448 C447 1.390 . S
C448 C449 1.391 . S
C448 H475 0.930 . S
C449 C445 1.387 . S
C449 C448 1.391 . S
C450 Tb440 2.825 . S
C450 C444 1.510 . S
C450 O463 1.238 . S
C450 O464 1.247 . S
O451 Tb440 2.347 . S
O451 C455 1.259 . S
O452 Eu441 2.418 . S
O452 C455 1.265 . S
O453 Eu441 2.384 . S
O453 C462 1.255 . S
O454 Tb440 2.366 . S
O454 C462 1.265 . S
C455 O451 1.259 . S
C455 O452 1.265 . S
O456 Eu441 2.479 . S
O456 C471 1.238 . S
O457 Eu441 2.471 . S
O457 C471 1.247 . S
O458 Eu441 2.347 . S
O458 C442 1.259 . S
O459 Tb440 2.418 . S
O459 C442 1.265 . S
O460 Tb440 2.384 . S
O460 C443 1.255 . S
O461 Eu441 2.366 . S
O461 C443 1.265 . S
C462 O453 1.255 . S
C462 O454 1.265 . S
O463 Tb440 2.479 . S
O463 C450 1.238 . S
O464 Tb440 2.471 . S
O464 C450 1.247 . S
C465 C468 1.380 . S
C465 C469 1.374 . S
C465 C471 1.507 . S
C466 C467 1.387 . S
C466 C470 1.391 . S
C467 C466 1.387 . S
C467 C468 1.384 . S
C467 H476 0.930 . S
C468 C465 1.380 . S
C468 C467 1.384 . S
C468 H477 0.931 . S
C469 C465 1.374 . S
C469 C470 1.390 . S
C469 H478 0.930 . S
C470 C466 1.391 . S
C470 C469 1.390 . S
C470 H479 0.930 . S
C471 Eu441 2.825 . S
C471 O456 1.238 . S
C471 O457 1.247 . S
C471 C465 1.507 . S
H472 C445 0.933 . S
H473 C446 0.931 . S
H474 C447 0.930 . S
H475 C448 0.930 . S
H476 C467 0.930 . S
H477 C468 0.931 . S
H478 C469 0.930 . S
H479 C470 0.930 . S
Tb480 C490 2.825 . S
Tb480 O491 2.347 . S
Tb480 O494 2.366 . S
Tb480 O499 2.418 . S
Tb480 O500 2.384 . S
Tb480 O503 2.479 . S
Tb480 O504 2.471 . S
Eu481 O492 2.418 . S
Eu481 O493 2.384 . S
Eu481 O496 2.479 . S
Eu481 O497 2.471 . S
Eu481 O498 2.347 . S
Eu481 O501 2.366 . S
Eu481 C511 2.825 . S
C482 O498 1.259 . S
C482 O499 1.265 . S
C483 O500 1.255 . S
C483 O501 1.265 . S
C484 C486 1.380 . S
C484 C487 1.374 . S
C484 C490 1.507 . S
C485 C486 1.384 . S
C485 C489 1.387 . S
C485 H512 0.930 . S
C486 C484 1.380 . S
C486 C485 1.384 . S
C486 H513 0.931 . S
C487 C484 1.374 . S
C487 C488 1.390 . S
C487 H514 0.930 . S
C488 C487 1.390 . S
C488 C489 1.391 . S
C488 H515 0.930 . S
C489 C485 1.387 . S
C489 C488 1.391 . S
C490 Tb480 2.825 . S
C490 C484 1.507 . S
C490 O503 1.238 . S
C490 O504 1.247 . S
O491 Tb480 2.347 . S
O491 C495 1.259 . S
O492 Eu481 2.418 . S
O492 C495 1.265 . S
O493 Eu481 2.384 . S
O493 C502 1.255 . S
O494 Tb480 2.366 . S
O494 C502 1.265 . S
C495 O491 1.259 . S
C495 O492 1.265 . S
O496 Eu481 2.479 . S
O496 C511 1.238 . S
O497 Eu481 2.471 . S
O497 C511 1.247 . S
O498 Eu481 2.347 . S
O498 C482 1.259 . S
O499 Tb480 2.418 . S
O499 C482 1.265 . S
O500 Tb480 2.384 . S
O500 C483 1.255 . S
O501 Eu481 2.366 . S
O501 C483 1.265 . S
C502 O493 1.255 . S
C502 O494 1.265 . S
O503 Tb480 2.479 . S
O503 C490 1.238 . S
O504 Tb480 2.471 . S
O504 C490 1.247 . S
C505 C508 1.380 . S
C505 C509 1.374 . S
C505 C511 1.507 . S
C506 C507 1.387 . S
C506 C510 1.391 . S
C507 C506 1.387 . S
C507 C508 1.384 . S
C507 H516 0.930 . S
C508 C505 1.380 . S
C508 C507 1.384 . S
C508 H517 0.931 . S
C509 C505 1.374 . S
C509 C510 1.390 . S
C509 H518 0.930 . S
C510 C506 1.391 . S
C510 C509 1.390 . S
C510 H519 0.930 . S
C511 Eu481 2.825 . S
C511 O496 1.238 . S
C511 O497 1.247 . S
C511 C505 1.507 . S
H512 C485 0.930 . S
H513 C486 0.931 . S
H514 C487 0.930 . S
H515 C488 0.930 . S
H516 C507 0.930 . S
H517 C508 0.931 . S
H518 C509 0.930 . S
H519 C510 0.930 . S
Tb520 C530 2.825 . S
Tb520 O531 2.347 . S
Tb520 O534 2.366 . S
Tb520 O539 2.418 . S
Tb520 O540 2.384 . S
Tb520 O543 2.479 . S
Tb520 O544 2.471 . S
Eu521 O532 2.418 . S
Eu521 O533 2.384 . S
Eu521 O536 2.479 . S
Eu521 O537 2.471 . S
Eu521 O538 2.347 . S
Eu521 O541 2.366 . S
Eu521 C551 2.825 . S
C522 O538 1.259 . S
C522 O539 1.265 . S
C523 O540 1.255 . S
C523 O541 1.265 . S
C524 C526 1.380 . S
C524 C527 1.374 . S
C524 C530 1.507 . S
C525 C526 1.384 . S
C525 C529 1.387 . S
C525 H552 0.930 . S
C526 C524 1.380 . S
C526 C525 1.384 . S
C526 H553 0.931 . S
C527 C524 1.374 . S
C527 C528 1.390 . S
C527 H554 0.930 . S
C528 C527 1.390 . S
C528 C529 1.391 . S
C528 H555 0.930 . S
C529 C525 1.387 . S
C529 C528 1.391 . S
C530 Tb520 2.825 . S
C530 C524 1.507 . S
C530 O543 1.238 . S
C530 O544 1.247 . S
O531 Tb520 2.347 . S
O531 C535 1.259 . S
O532 Eu521 2.418 . S
O532 C535 1.265 . S
O533 Eu521 2.384 . S
O533 C542 1.255 . S
O534 Tb520 2.366 . S
O534 C542 1.265 . S
C535 O531 1.259 . S
C535 O532 1.265 . S
O536 Eu521 2.479 . S
O536 C551 1.238 . S
O537 Eu521 2.471 . S
O537 C551 1.247 . S
O538 Eu521 2.347 . S
O538 C522 1.259 . S
O539 Tb520 2.418 . S
O539 C522 1.265 . S
O540 Tb520 2.384 . S
O540 C523 1.255 . S
O541 Eu521 2.366 . S
O541 C523 1.265 . S
C542 O533 1.255 . S
C542 O534 1.265 . S
O543 Tb520 2.479 . S
O543 C530 1.238 . S
O544 Tb520 2.471 . S
O544 C530 1.247 . S
C545 C548 1.382 1_655 S
C545 C549 1.368 1_565 S
C545 C551 1.510 . S
C546 C547 1.387 . S
C546 C550 1.391 1_455 S
C547 C546 1.387 . S
C547 C548 1.384 1_545 S
C547 H556 0.933 . S
C548 C545 1.382 1_455 S
C548 C547 1.384 1_565 S
C548 H557 0.931 . S
C549 C545 1.368 1_545 S
C549 C550 1.390 . S
C549 H558 0.930 . S
C550 C546 1.391 1_655 S
C550 C549 1.390 . S
C550 H559 0.930 . S
C551 Eu521 2.825 . S
C551 O536 1.238 . S
C551 O537 1.247 . S
C551 C545 1.510 . S
H552 C525 0.930 . S
H553 C526 0.931 . S
H554 C527 0.930 . S
H555 C528 0.930 . S
H556 C547 0.933 . S
H557 C548 0.931 . S
H558 C549 0.930 . S
H559 C550 0.930 . S
Tb560 C570 2.825 . S
Tb560 O571 2.347 . S
Tb560 O574 2.366 . S
Tb560 O579 2.418 . S
Tb560 O580 2.384 . S
Tb560 O583 2.479 . S
Tb560 O584 2.471 . S
Eu561 O572 2.418 . S
Eu561 O573 2.384 . S
Eu561 O576 2.479 . S
Eu561 O577 2.471 . S
Eu561 O578 2.347 . S
Eu561 O581 2.366 . S
Eu561 C591 2.825 . S
C562 O578 1.259 . S
C562 O579 1.265 . S
C563 O580 1.255 . S
C563 O581 1.265 . S
C564 C566 1.380 . S
C564 C567 1.374 . S
C564 C570 1.507 . S
C565 C566 1.384 . S
C565 C569 1.387 . S
C565 H592 0.930 . S
C566 C564 1.380 . S
C566 C565 1.384 . S
C566 H593 0.931 . S
C567 C564 1.374 . S
C567 C568 1.390 . S
C567 H594 0.930 . S
C568 C567 1.390 . S
C568 C569 1.391 . S
C568 H595 0.930 . S
C569 C565 1.387 . S
C569 C568 1.391 . S
C570 Tb560 2.825 . S
C570 C564 1.507 . S
C570 O583 1.238 . S
C570 O584 1.247 . S
O571 Tb560 2.347 . S
O571 C575 1.259 . S
O572 Eu561 2.418 . S
O572 C575 1.265 . S
O573 Eu561 2.384 . S
O573 C582 1.255 . S
O574 Tb560 2.366 . S
O574 C582 1.265 . S
C575 O571 1.259 . S
C575 O572 1.265 . S
O576 Eu561 2.479 . S
O576 C591 1.238 . S
O577 Eu561 2.471 . S
O577 C591 1.247 . S
O578 Eu561 2.347 . S
O578 C562 1.259 . S
O579 Tb560 2.418 . S
O579 C562 1.265 . S
O580 Tb560 2.384 . S
O580 C563 1.255 . S
O581 Eu561 2.366 . S
O581 C563 1.265 . S
C582 O573 1.255 . S
C582 O574 1.265 . S
O583 Tb560 2.479 . S
O583 C570 1.238 . S
O584 Tb560 2.471 . S
O584 C570 1.247 . S
C585 C588 1.380 . S
C585 C589 1.374 . S
C585 C591 1.507 . S
C586 C587 1.387 . S
C586 C590 1.391 . S
C587 C586 1.387 . S
C587 C588 1.384 . S
C587 H596 0.930 . S
C588 C585 1.380 . S
C588 C587 1.384 . S
C588 H597 0.931 . S
C589 C585 1.374 . S
C589 C590 1.390 . S
C589 H598 0.930 . S
C590 C586 1.391 . S
C590 C589 1.390 . S
C590 H599 0.930 . S
C591 Eu561 2.825 . S
C591 O576 1.238 . S
C591 O577 1.247 . S
C591 C585 1.507 . S
H592 C565 0.930 . S
H593 C566 0.931 . S
H594 C567 0.930 . S
H595 C568 0.930 . S
H596 C587 0.930 . S
H597 C588 0.931 . S
H598 C589 0.930 . S
H599 C590 0.930 . S
Tb600 C610 2.825 . S
Tb600 O611 2.347 . S
Tb600 O614 2.366 . S
Tb600 O619 2.418 . S
Tb600 O620 2.384 . S
Tb600 O623 2.479 . S
Tb600 O624 2.471 . S
Eu601 O612 2.418 . S
Eu601 O613 2.384 . S
Eu601 O616 2.479 . S
Eu601 O617 2.471 . S
Eu601 O618 2.347 . S
Eu601 O621 2.366 . S
Eu601 C631 2.825 . S
C602 O618 1.259 . S
C602 O619 1.265 . S
C603 O620 1.255 . S
C603 O621 1.265 . S
C604 C606 1.380 . S
C604 C607 1.374 . S
C604 C610 1.507 . S
C605 C606 1.384 . S
C605 C609 1.387 . S
C605 H632 0.930 . S
C606 C604 1.380 . S
C606 C605 1.384 . S
C606 H633 0.931 . S
C607 C604 1.374 . S
C607 C608 1.390 . S
C607 H634 0.930 . S
C608 C607 1.390 . S
C608 C609 1.391 . S
C608 H635 0.930 . S
C609 C605 1.387 . S
C609 C608 1.391 . S
C610 Tb600 2.825 . S
C610 C604 1.507 . S
C610 O623 1.238 . S
C610 O624 1.247 . S
O611 Tb600 2.347 . S
O611 C615 1.259 . S
O612 Eu601 2.418 . S
O612 C615 1.265 . S
O613 Eu601 2.384 . S
O613 C622 1.255 . S
O614 Tb600 2.366 . S
O614 C622 1.265 . S
C615 O611 1.259 . S
C615 O612 1.265 . S
O616 Eu601 2.479 . S
O616 C631 1.238 . S
O617 Eu601 2.471 . S
O617 C631 1.247 . S
O618 Eu601 2.347 . S
O618 C602 1.259 . S
O619 Tb600 2.418 . S
O619 C602 1.265 . S
O620 Tb600 2.384 . S
O620 C603 1.255 . S
O621 Eu601 2.366 . S
O621 C603 1.265 . S
C622 O613 1.255 . S
C622 O614 1.265 . S
O623 Tb600 2.479 . S
O623 C610 1.238 . S
O624 Tb600 2.471 . S
O624 C610 1.247 . S
C625 C628 1.382 . S
C625 C629 1.368 1_545 S
C625 C631 1.510 . S
C626 C627 1.387 . S
C626 C630 1.391 . S
C627 C626 1.387 . S
C627 C628 1.384 1_565 S
C627 H636 0.933 . S
C628 C625 1.382 . S
C628 C627 1.384 1_545 S
C628 H637 0.931 . S
C629 C625 1.368 1_565 S
C629 C630 1.390 . S
C629 H638 0.930 . S
C630 C626 1.391 . S
C630 C629 1.390 . S
C630 H639 0.930 . S
C631 Eu601 2.825 . S
C631 O616 1.238 . S
C631 O617 1.247 . S
C631 C625 1.510 . S
H632 C605 0.930 . S
H633 C606 0.931 . S
H634 C607 0.930 . S
H635 C608 0.930 . S
H636 C627 0.933 . S
H637 C628 0.931 . S
H638 C629 0.930 . S
H639 C630 0.930 . S
H640 C648 0.929 . S
H641 C650 0.930 . S
H642 C652 0.930 . S
H643 C655 0.929 . S
H644 C658 0.930 . S
H645 C660 0.960 . S
H646 C660 0.960 . S
H647 C660 0.960 . S
C648 H640 0.929 . S
C648 C649 1.377 . S
C648 C650 1.384 . S
C649 C648 1.377 . S
C649 C655 1.390 . S
C650 H641 0.930 . S
C650 C648 1.384 . S
C650 C651 1.372 . S
C651 C650 1.372 . S
C651 C652 1.400 . S
C651 C656 1.490 . S
C652 H642 0.930 . S
C652 C651 1.400 . S
C652 C655 1.386 . S
H653 C669 0.930 . S
H654 C670 0.931 . S
C655 H643 0.929 . S
C655 C649 1.390 . S
C655 C652 1.386 . S
C656 C651 1.490 . S
C656 C658 1.395 . S
C656 C659 1.403 . S
H657 C663 0.930 . S
C658 H644 0.930 . S
C658 C656 1.395 . S
C658 C661 1.403 . S
C659 C656 1.403 . S
C659 C660 1.524 . S
C659 C663 1.400 . S
C660 H645 0.960 . S
C660 H646 0.960 . S
C660 H647 0.960 . S
C660 C659 1.524 . S
C661 C658 1.403 . S
C661 C662 1.392 . S
C661 C665 1.495 . S
C662 C661 1.392 . S
C662 C663 1.385 . S
C662 C664 1.478 . S
C663 H657 0.930 . S
C663 C659 1.400 . S
C663 C662 1.385 . S
C664 C662 1.478 . S
C664 C666 1.381 . S
C664 C670 1.383 . S
C665 C661 1.495 . S
C665 H671 0.959 . S
C665 H672 0.961 . S
C665 H673 0.960 . S
C666 C664 1.381 . S
C666 C667 1.394 . S
C666 H674 0.930 . S
C667 C666 1.394 . S
C667 C668 1.383 . S
C667 H675 0.929 . S
C668 C667 1.383 . S
C668 C669 1.377 . S
C669 H653 0.930 . S
C669 C668 1.377 . S
C669 C670 1.379 . S
C670 H654 0.931 . S
C670 C664 1.383 . S
C670 C669 1.379 . S
H671 C665 0.959 . S
H672 C665 0.961 . S
H673 C665 0.960 . S
H674 C666 0.930 . S
H675 C667 0.929 . S
H676 C684 0.929 . S
H677 C686 0.930 . S
H678 C688 0.930 . S
H679 C691 0.929 . S
H680 C694 0.930 . S
H681 C696 0.960 . S
H682 C696 0.960 . S
H683 C696 0.960 . S
C684 H676 0.929 . S
C684 C685 1.377 . S
C684 C686 1.384 . S
C685 C684 1.377 . S
C685 C691 1.390 . S
C686 H677 0.930 . S
C686 C684 1.384 . S
C686 C687 1.372 . S
C687 C686 1.372 . S
C687 C688 1.400 . S
C687 C692 1.490 . S
C688 H678 0.930 . S
C688 C687 1.400 . S
C688 C691 1.386 . S
H689 C705 0.930 . S
H690 C706 0.931 . S
C691 H679 0.929 . S
C691 C685 1.390 . S
C691 C688 1.386 . S
C692 C687 1.490 . S
C692 C694 1.395 . S
C692 C695 1.403 . S
H693 C699 0.930 . S
C694 H680 0.930 . S
C694 C692 1.395 . S
C694 C697 1.403 . S
C695 C692 1.403 . S
C695 C696 1.524 . S
C695 C699 1.400 . S
C696 H681 0.960 . S
C696 H682 0.960 . S
C696 H683 0.960 . S
C696 C695 1.524 . S
C697 C694 1.403 . S
C697 C698 1.392 . S
C697 C701 1.495 . S
C698 C697 1.392 . S
C698 C699 1.385 . S
C698 C700 1.478 . S
C699 H693 0.930 . S
C699 C695 1.400 . S
C699 C698 1.385 . S
C700 C698 1.478 . S
C700 C702 1.381 . S
C700 C706 1.383 . S
C701 C697 1.495 . S
C701 H707 0.959 . S
C701 H708 0.961 . S
C701 H709 0.960 . S
C702 C700 1.381 . S
C702 C703 1.394 . S
C702 H710 0.930 . S
C703 C702 1.394 . S
C703 C704 1.383 . S
C703 H711 0.929 . S
C704 C703 1.383 . S
C704 C705 1.377 . S
C705 H689 0.930 . S
C705 C704 1.377 . S
C705 C706 1.379 . S
C706 H690 0.931 . S
C706 C700 1.383 . S
C706 C705 1.379 . S
H707 C701 0.959 . S
H708 C701 0.961 . S
H709 C701 0.960 . S
H710 C702 0.930 . S
H711 C703 0.929 . S
H712 C720 0.929 . S
H713 C722 0.930 . S
H714 C724 0.930 . S
H715 C727 0.929 . S
H716 C730 0.930 . S
H717 C732 0.960 . S
H718 C732 0.960 1_455 S
H719 C732 0.960 1_455 S
C720 H712 0.929 . S
C720 C721 1.377 . S
C720 C722 1.384 . S
C721 C720 1.377 . S
C721 C727 1.390 . S
C722 H713 0.930 . S
C722 C720 1.384 . S
C722 C723 1.372 . S
C723 C722 1.372 . S
C723 C724 1.400 . S
C723 C728 1.490 . S
C724 H714 0.930 . S
C724 C723 1.400 . S
C724 C727 1.386 . S
H725 C741 0.930 . S
H726 C742 0.931 . S
C727 H715 0.929 . S
C727 C721 1.390 . S
C727 C724 1.386 . S
C728 C723 1.490 . S
C728 C730 1.395 . S
C728 C731 1.422 . S
H729 C735 0.930 . S
C730 H716 0.930 . S
C730 C728 1.395 . S
C730 C733 1.403 . S
C731 C728 1.422 . S
C731 C732 1.522 1_455 S
C731 C735 1.382 1_455 S
C732 H717 0.960 . S
C732 H718 0.960 1_655 S
C732 H719 0.960 1_655 S
C732 C731 1.522 1_655 S
C733 C730 1.403 . S
C733 C734 1.392 1_455 S
C733 C737 1.495 . S
C734 C733 1.392 1_655 S
C734 C735 1.385 . S
C734 C736 1.478 . S
C735 H729 0.930 . S
C735 C731 1.382 1_655 S
C735 C734 1.385 . S
C736 C734 1.478 . S
C736 C738 1.381 . S
C736 C742 1.383 . S
C737 C733 1.495 . S
C737 H743 0.959 . S
C737 H744 0.961 1_455 S
C737 H745 0.960 1_455 S
C738 C736 1.381 . S
C738 C739 1.394 . S
C738 H746 0.930 . S
C739 C738 1.394 . S
C739 C740 1.383 . S
C739 H747 0.929 . S
C740 C739 1.383 . S
C740 C741 1.377 . S
C741 H725 0.930 . S
C741 C740 1.377 . S
C741 C742 1.379 . S
C742 H726 0.931 . S
C742 C736 1.383 . S
C742 C741 1.379 . S
H743 C737 0.959 . S
H744 C737 0.961 1_655 S
H745 C737 0.960 1_655 S
H746 C738 0.930 . S
H747 C739 0.929 . S
H748 C756 0.929 . S
H749 C758 0.930 . S
H750 C760 0.930 1_655 S
H751 C763 0.929 . S
H752 C766 0.930 . S
H753 C768 0.965 . S
H754 C768 0.960 . S
H755 C768 0.960 . S
C756 H748 0.929 . S
C756 C757 1.377 . S
C756 C758 1.384 . S
C757 C756 1.377 . S
C757 C763 1.390 . S
C758 H749 0.930 . S
C758 C756 1.384 . S
C758 C759 1.372 . S
C759 C758 1.372 . S
C759 C760 1.400 . S
C759 C764 1.490 . S
C760 H750 0.930 1_455 S
C760 C759 1.400 . S
C760 C763 1.386 . S
H761 C777 0.930 . S
H762 C778 0.931 . S
C763 H751 0.929 . S
C763 C757 1.390 . S
C763 C760 1.386 . S
C764 C759 1.490 . S
C764 C766 1.395 . S
C764 C767 1.403 . S
H765 C771 0.930 . S
C766 H752 0.930 . S
C766 C764 1.395 . S
C766 C769 1.403 1_455 S
C767 C764 1.403 . S
C767 C768 1.524 . S
C767 C771 1.400 1_455 S
C768 H753 0.965 . S
C768 H754 0.960 . S
C768 H755 0.960 . S
C768 C767 1.524 . S
C769 C766 1.403 1_655 S
C769 C770 1.392 . S
C769 C773 1.495 . S
C770 C769 1.392 . S
C770 C771 1.385 . S
C770 C772 1.478 . S
C771 H765 0.930 . S
C771 C767 1.400 1_655 S
C771 C770 1.385 . S
C772 C770 1.478 . S
C772 C774 1.381 . S
C772 C778 1.383 . S
C773 C769 1.495 . S
C773 H779 0.959 1_655 S
C773 H780 0.961 . S
C773 H781 0.960 1_655 S
C774 C772 1.381 . S
C774 C775 1.394 . S
C774 H782 0.930 1_655 S
C775 C774 1.394 . S
C775 C776 1.383 . S
C775 H783 0.929 . S
C776 C775 1.383 . S
C776 C777 1.377 . S
C777 H761 0.930 . S
C777 C776 1.377 . S
C777 C778 1.379 . S
C778 H762 0.931 . S
C778 C772 1.383 . S
C778 C777 1.379 . S
H779 C773 0.959 1_455 S
H780 C773 0.961 . S
H781 C773 0.960 1_455 S
H782 C774 0.930 1_455 S
H783 C775 0.929 . S
H784 C792 0.929 . S
H785 C794 0.930 . S
H786 C796 0.930 . S
H787 C799 0.929 . S
H788 C802 0.930 . S
H789 C804 0.960 . S
H790 C804 0.960 . S
H791 C804 0.960 . S
C792 H784 0.929 . S
C792 C793 1.377 . S
C792 C794 1.384 . S
C793 C792 1.377 . S
C793 C799 1.390 . S
C794 H785 0.930 . S
C794 C792 1.384 . S
C794 C795 1.372 . S
C795 C794 1.372 . S
C795 C796 1.400 . S
C795 C800 1.490 . S
C796 H786 0.930 . S
C796 C795 1.400 . S
C796 C799 1.386 . S
H797 C813 0.930 . S
H798 C814 0.931 . S
C799 H787 0.929 . S
C799 C793 1.390 . S
C799 C796 1.386 . S
C800 C795 1.490 . S
C800 C802 1.395 . S
C800 C803 1.403 . S
H801 C807 0.930 . S
C802 H788 0.930 . S
C802 C800 1.395 . S
C802 C805 1.403 . S
C803 C800 1.403 . S
C803 C804 1.524 . S
C803 C807 1.400 . S
C804 H789 0.960 . S
C804 H790 0.960 . S
C804 H791 0.960 . S
C804 C803 1.524 . S
C805 C802 1.403 . S
C805 C806 1.392 . S
C805 C809 1.495 . S
C806 C805 1.392 . S
C806 C807 1.385 . S
C806 C808 1.478 . S
C807 H801 0.930 . S
C807 C803 1.400 . S
C807 C806 1.385 . S
C808 C806 1.478 . S
C808 C810 1.381 . S
C808 C814 1.383 . S
C809 C805 1.495 . S
C809 H815 0.959 . S
C809 H816 0.961 . S
C809 H817 0.960 . S
C810 C808 1.381 . S
C810 C811 1.394 . S
C810 H818 0.930 . S
C811 C810 1.394 . S
C811 C812 1.383 . S
C811 H819 0.929 . S
C812 C811 1.383 . S
C812 C813 1.377 . S
C813 H797 0.930 . S
C813 C812 1.377 . S
C813 C814 1.379 . S
C814 H798 0.931 . S
C814 C808 1.383 . S
C814 C813 1.379 . S
H815 C809 0.959 . S
H816 C809 0.961 . S
H817 C809 0.960 . S
H818 C810 0.930 . S
H819 C811 0.929 . S
H820 C828 0.929 . S
H821 C830 0.930 . S
H822 C832 0.930 . S
H823 C835 0.929 . S
H824 C838 0.930 . S
H825 C840 0.960 . S
H826 C840 0.960 . S
H827 C840 0.960 . S
C828 H820 0.929 . S
C828 C829 1.377 . S
C828 C830 1.384 . S
C829 C828 1.377 . S
C829 C835 1.390 . S
C830 H821 0.930 . S
C830 C828 1.384 . S
C830 C831 1.372 . S
C831 C830 1.372 . S
C831 C832 1.400 . S
C831 C836 1.490 . S
C832 H822 0.930 . S
C832 C831 1.400 . S
C832 C835 1.386 . S
H833 C849 0.930 . S
H834 C850 0.931 . S
C835 H823 0.929 . S
C835 C829 1.390 . S
C835 C832 1.386 . S
C836 C831 1.490 . S
C836 C838 1.395 . S
C836 C839 1.403 . S
H837 C843 0.930 . S
C838 H824 0.930 . S
C838 C836 1.395 . S
C838 C841 1.403 . S
C839 C836 1.403 . S
C839 C840 1.524 . S
C839 C843 1.400 . S
C840 H825 0.960 . S
C840 H826 0.960 . S
C840 H827 0.960 . S
C840 C839 1.524 . S
C841 C838 1.403 . S
C841 C842 1.392 . S
C841 C845 1.495 . S
C842 C841 1.392 . S
C842 C843 1.385 . S
C842 C844 1.478 . S
C843 H837 0.930 . S
C843 C839 1.400 . S
C843 C842 1.385 . S
C844 C842 1.478 . S
C844 C846 1.381 . S
C844 C850 1.383 . S
C845 C841 1.495 . S
C845 H851 0.959 . S
C845 H852 0.961 . S
C845 H853 0.960 . S
C846 C844 1.381 . S
C846 C847 1.394 . S
C846 H854 0.930 . S
C847 C846 1.394 . S
C847 C848 1.383 . S
C847 H855 0.929 . S
C848 C847 1.383 . S
C848 C849 1.377 . S
C849 H833 0.930 . S
C849 C848 1.377 . S
C849 C850 1.379 . S
C850 H834 0.931 . S
C850 C844 1.383 . S
C850 C849 1.379 . S
H851 C845 0.959 . S
H852 C845 0.961 . S
H853 C845 0.960 . S
H854 C846 0.930 . S
H855 C847 0.929 . S
H856 C864 0.929 . S
H857 C866 0.930 . S
H858 C868 0.930 . S
H859 C871 0.929 . S
H860 C874 0.930 . S
H861 C876 0.960 . S
H862 C876 0.960 1_455 S
H863 C876 0.960 1_455 S
C864 H856 0.929 . S
C864 C865 1.377 . S
C864 C866 1.384 . S
C865 C864 1.377 . S
C865 C871 1.390 . S
C866 H857 0.930 . S
C866 C864 1.384 . S
C866 C867 1.372 . S
C867 C866 1.372 . S
C867 C868 1.400 . S
C867 C872 1.490 . S
C868 H858 0.930 . S
C868 C867 1.400 . S
C868 C871 1.386 . S
H869 C885 0.930 . S
H870 C886 0.931 . S
C871 H859 0.929 . S
C871 C865 1.390 . S
C871 C868 1.386 . S
C872 C867 1.490 . S
C872 C874 1.395 . S
C872 C875 1.408 . S
H873 C879 0.930 . S
C874 H860 0.930 . S
C874 C872 1.395 . S
C874 C877 1.403 . S
C875 C872 1.408 . S
C875 C876 1.523 1_455 S
C875 C879 1.395 1_455 S
C876 H861 0.960 . S
C876 H862 0.960 1_655 S
C876 H863 0.960 1_655 S
C876 C875 1.523 1_655 S
C877 C874 1.403 . S
C877 C878 1.392 1_455 S
C877 C881 1.495 . S
C878 C877 1.392 1_655 S
C878 C879 1.385 . S
C878 C880 1.478 . S
C879 H873 0.930 . S
C879 C875 1.395 1_655 S
C879 C878 1.385 . S
C880 C878 1.478 . S
C880 C882 1.381 . S
C880 C886 1.383 . S
C881 C877 1.495 . S
C881 H887 0.959 . S
C881 H888 0.961 1_455 S
C881 H889 0.960 1_455 S
C882 C880 1.381 . S
C882 C883 1.394 . S
C882 H890 0.930 . S
C883 C882 1.394 . S
C883 C884 1.383 . S
C883 H891 0.929 . S
C884 C883 1.383 . S
C884 C885 1.377 . S
C885 H869 0.930 . S
C885 C884 1.377 . S
C885 C886 1.379 . S
C886 H870 0.931 . S
C886 C880 1.383 . S
C886 C885 1.379 . S
H887 C881 0.959 . S
H888 C881 0.961 1_655 S
H889 C881 0.960 1_655 S
H890 C882 0.930 . S
H891 C883 0.929 . S
H892 C900 0.929 . S
H893 C902 0.930 . S
H894 C904 0.930 . S
H895 C907 0.929 . S
H896 C910 0.930 . S
H897 C912 0.960 . S
H898 C912 0.960 . S
H899 C912 0.960 . S
C900 H892 0.929 . S
C900 C901 1.377 . S
C900 C902 1.384 . S
C901 C900 1.377 . S
C901 C907 1.390 . S
C902 H893 0.930 . S
C902 C900 1.384 . S
C902 C903 1.372 . S
C903 C902 1.372 . S
C903 C904 1.400 . S
C903 C908 1.490 . S
C904 H894 0.930 . S
C904 C903 1.400 . S
C904 C907 1.386 . S
H905 C921 0.930 . S
H906 C922 0.931 . S
C907 H895 0.929 . S
C907 C901 1.390 . S
C907 C904 1.386 . S
C908 C903 1.490 . S
C908 C910 1.395 . S
C908 C911 1.403 1_455 S
H909 C915 0.930 . S
C910 H896 0.930 . S
C910 C908 1.395 . S
C910 C913 1.403 . S
C911 C908 1.403 1_655 S
C911 C912 1.524 . S
C911 C915 1.400 . S
C912 H897 0.960 . S
C912 H898 0.960 . S
C912 H899 0.960 . S
C912 C911 1.524 . S
C913 C910 1.403 . S
C913 C914 1.392 1_455 S
C913 C917 1.495 . S
C914 C913 1.392 1_655 S
C914 C915 1.385 . S
C914 C916 1.478 . S
C915 H909 0.930 . S
C915 C911 1.400 . S
C915 C914 1.385 . S
C916 C914 1.478 . S
C916 C918 1.381 . S
C916 C922 1.383 . S
C917 C913 1.495 . S
C917 H923 0.959 . S
C917 H924 0.961 . S
C917 H925 0.960 . S
C918 C916 1.381 . S
C918 C919 1.394 . S
C918 H926 0.930 . S
C919 C918 1.394 . S
C919 C920 1.383 . S
C919 H927 0.929 . S
C920 C919 1.383 . S
C920 C921 1.377 . S
C921 H905 0.930 . S
C921 C920 1.377 . S
C921 C922 1.379 . S
C922 H906 0.931 . S
C922 C916 1.383 . S
C922 C921 1.379 . S
H923 C917 0.959 . S
H924 C917 0.961 . S
H925 C917 0.960 . S
H926 C918 0.930 . S
H927 C919 0.929 . S
H928 C936 0.929 . S
H929 C938 0.930 . S
H930 C940 0.930 . S
H931 C943 0.929 . S
H932 C946 0.930 . S
H933 C948 0.960 . S
H934 C948 0.960 1_565 S
H935 C948 0.960 . S
C936 H928 0.929 . S
C936 C937 1.377 1_565 S
C936 C938 1.384 . S
C937 C936 1.377 1_545 S
C937 C943 1.390 . S
C938 H929 0.930 . S
C938 C936 1.384 . S
C938 C939 1.372 1_565 S
C939 C938 1.372 1_545 S
C939 C940 1.400 . S
C939 C944 1.490 . S
C940 H930 0.930 . S
C940 C939 1.400 . S
C940 C943 1.386 . S
H941 C957 0.930 . S
H942 C958 0.931 . S
C943 H931 0.929 . S
C943 C937 1.390 . S
C943 C940 1.386 . S
C944 C939 1.490 . S
C944 C946 1.395 1_544 S
C944 C947 1.403 . S
H945 C951 0.930 . S
C946 H932 0.930 . S
C946 C944 1.395 1_566 S
C946 C949 1.403 . S
C947 C944 1.403 . S
C947 C948 1.524 . S
C947 C951 1.400 . S
C948 H933 0.960 . S
C948 H934 0.960 1_545 S
C948 H935 0.960 . S
C948 C947 1.524 . S
C949 C946 1.403 . S
C949 C950 1.392 . S
C949 C953 1.495 . S
C950 C949 1.392 . S
C950 C951 1.385 1_566 S
C950 C952 1.478 . S
C951 H945 0.930 . S
C951 C947 1.400 . S
C951 C950 1.385 1_544 S
C952 C950 1.478 . S
C952 C954 1.381 . S
C952 C958 1.383 1_565 S
C953 C949 1.495 . S
C953 H959 0.959 . S
C953 H960 0.961 . S
C953 H961 0.960 . S
C954 C952 1.381 . S
C954 C955 1.394 . S
C954 H962 0.930 . S
C955 C954 1.394 . S
C955 C956 1.383 . S
C955 H963 0.929 . S
C956 C955 1.383 . S
C956 C957 1.377 1_565 S
C957 H941 0.930 . S
C957 C956 1.377 1_545 S
C957 C958 1.379 . S
C958 H942 0.931 . S
C958 C952 1.383 1_545 S
C958 C957 1.379 . S
H959 C953 0.959 . S
H960 C953 0.961 . S
H961 C953 0.960 . S
H962 C954 0.930 . S
H963 C955 0.929 . S
H964 C972 0.929 . S
H965 C974 0.930 . S
H966 C976 0.930 . S
H967 C979 0.929 . S
H968 C982 0.930 . S
H969 C984 0.960 . S
H970 C984 0.960 . S
H971 C984 0.960 . S
C972 H964 0.929 . S
C972 C973 1.377 . S
C972 C974 1.384 . S
C973 C972 1.377 . S
C973 C979 1.390 . S
C974 H965 0.930 . S
C974 C972 1.384 . S
C974 C975 1.372 . S
C975 C974 1.372 . S
C975 C976 1.400 . S
C975 C980 1.490 . S
C976 H966 0.930 . S
C976 C975 1.400 . S
C976 C979 1.386 . S
H977 C993 0.930 . S
H978 C994 0.931 . S
C979 H967 0.929 . S
C979 C973 1.390 . S
C979 C976 1.386 . S
C980 C975 1.490 . S
C980 C982 1.395 . S
C980 C983 1.403 . S
H981 C987 0.930 . S
C982 H968 0.930 . S
C982 C980 1.395 . S
C982 C985 1.403 . S
C983 C980 1.403 . S
C983 C984 1.524 . S
C983 C987 1.400 . S
C984 H969 0.960 . S
C984 H970 0.960 . S
C984 H971 0.960 . S
C984 C983 1.524 . S
C985 C982 1.403 . S
C985 C986 1.392 . S
C985 C989 1.495 . S
C986 C985 1.392 . S
C986 C987 1.385 . S
C986 C988 1.478 . S
C987 H981 0.930 . S
C987 C983 1.400 . S
C987 C986 1.385 . S
C988 C986 1.478 . S
C988 C990 1.381 . S
C988 C994 1.383 . S
C989 C985 1.495 . S
C989 H995 0.959 . S
C989 H996 0.961 . S
C989 H997 0.960 . S
C990 C988 1.381 . S
C990 C991 1.394 . S
C990 H998 0.930 . S
C991 C990 1.394 . S
C991 C992 1.383 . S
C991 H999 0.929 . S
C992 C991 1.383 . S
C992 C993 1.377 . S
C993 H977 0.930 . S
C993 C992 1.377 . S
C993 C994 1.379 . S
C994 H978 0.931 . S
C994 C988 1.383 . S
C994 C993 1.379 . S
H995 C989 0.959 . S
H996 C989 0.961 . S
H997 C989 0.960 . S
H998 C990 0.930 . S
H999 C991 0.929 . S
H1000 C1008 0.929 . S
H1001 C1010 0.930 . S
H1002 C1012 0.930 1_545 S
H1003 C1015 0.929 . S
H1004 C1018 0.930 . S
H1005 C1020 0.960 . S
H1006 C1020 0.960 . S
H1007 C1020 0.960 . S
C1008 H1000 0.929 . S
C1008 C1009 1.377 . S
C1008 C1010 1.384 . S
C1009 C1008 1.377 . S
C1009 C1015 1.390 . S
C1010 H1001 0.930 . S
C1010 C1008 1.384 . S
C1010 C1011 1.372 . S
C1011 C1010 1.372 . S
C1011 C1012 1.400 . S
C1011 C1016 1.490 . S
C1012 H1002 0.930 1_565 S
C1012 C1011 1.400 . S
C1012 C1015 1.386 . S
H1013 C1029 0.930 . S
H1014 C1030 0.931 . S
C1015 H1003 0.929 . S
C1015 C1009 1.390 . S
C1015 C1012 1.386 . S
C1016 C1011 1.490 . S
C1016 C1018 1.395 . S
C1016 C1019 1.403 1_565 S
H1017 C1023 0.930 . S
C1018 H1004 0.930 . S
C1018 C1016 1.395 . S
C1018 C1021 1.403 1_455 S
C1019 C1016 1.403 1_545 S
C1019 C1020 1.524 . S
C1019 C1023 1.400 1_455 S
C1020 H1005 0.960 . S
C1020 H1006 0.960 . S
C1020 H1007 0.960 . S
C1020 C1019 1.524 . S
C1021 C1018 1.403 1_655 S
C1021 C1022 1.392 . S
C1021 C1025 1.495 . S
C1022 C1021 1.392 . S
C1022 C1023 1.385 1_565 S
C1022 C1024 1.478 1_565 S
C1023 H1017 0.930 . S
C1023 C1019 1.400 1_655 S
C1023 C1022 1.385 1_545 S
C1024 C1022 1.478 1_545 S
C1024 C1026 1.381 1_545 S
C1024 C1030 1.383 . S
C1025 C1021 1.495 . S
C1025 H1031 0.959 . S
C1025 H1032 0.961 . S
C1025 H1033 0.960 . S
C1026 C1024 1.381 1_565 S
C1026 C1027 1.394 1_565 S
C1026 H1034 0.930 . S
C1027 C1026 1.394 1_545 S
C1027 C1028 1.383 . S
C1027 H1035 0.929 . S
C1028 C1027 1.383 . S
C1028 C1029 1.377 . S
C1029 H1013 0.930 . S
C1029 C1028 1.377 . S
C1029 C1030 1.379 . S
C1030 H1014 0.931 . S
C1030 C1024 1.383 . S
C1030 C1029 1.379 . S
H1031 C1025 0.959 . S
H1032 C1025 0.961 . S
H1033 C1025 0.960 . S
H1034 C1026 0.930 . S
H1035 C1027 0.929 . S
H1036 C1044 0.929 . S
H1037 C1046 0.930 . S
H1038 C1048 0.930 . S
H1039 C1051 0.929 . S
H1040 C1054 0.930 . S
H1041 C1056 0.960 . S
H1042 C1056 0.960 . S
H1043 C1056 0.960 . S
C1044 H1036 0.929 . S
C1044 C1045 1.377 . S
C1044 C1046 1.384 . S
C1045 C1044 1.377 . S
C1045 C1051 1.390 . S
C1046 H1037 0.930 . S
C1046 C1044 1.384 . S
C1046 C1047 1.372 . S
C1047 C1046 1.372 . S
C1047 C1048 1.400 . S
C1047 C1052 1.490 . S
C1048 H1038 0.930 . S
C1048 C1047 1.400 . S
C1048 C1051 1.386 . S
H1049 C1065 0.930 . S
H1050 C1066 0.931 . S
C1051 H1039 0.929 . S
C1051 C1045 1.390 . S
C1051 C1048 1.386 . S
C1052 C1047 1.490 . S
C1052 C1054 1.395 . S
C1052 C1055 1.403 . S
H1053 C1059 0.930 . S
C1054 H1040 0.930 . S
C1054 C1052 1.395 . S
C1054 C1057 1.403 . S
C1055 C1052 1.403 . S
C1055 C1056 1.524 . S
C1055 C1059 1.400 . S
C1056 H1041 0.960 . S
C1056 H1042 0.960 . S
C1056 H1043 0.960 . S
C1056 C1055 1.524 . S
C1057 C1054 1.403 . S
C1057 C1058 1.392 . S
C1057 C1061 1.495 . S
C1058 C1057 1.392 . S
C1058 C1059 1.385 . S
C1058 C1060 1.478 . S
C1059 H1053 0.930 . S
C1059 C1055 1.400 . S
C1059 C1058 1.385 . S
C1060 C1058 1.478 . S
C1060 C1062 1.381 . S
C1060 C1066 1.383 . S
C1061 C1057 1.495 . S
C1061 H1067 0.959 . S
C1061 H1068 0.961 . S
C1061 H1069 0.960 . S
C1062 C1060 1.381 . S
C1062 C1063 1.394 . S
C1062 H1070 0.930 . S
C1063 C1062 1.394 . S
C1063 C1064 1.383 . S
C1063 H1071 0.929 . S
C1064 C1063 1.383 . S
C1064 C1065 1.377 . S
C1065 H1049 0.930 . S
C1065 C1064 1.377 . S
C1065 C1066 1.379 . S
C1066 H1050 0.931 . S
C1066 C1060 1.383 . S
C1066 C1065 1.379 . S
H1067 C1061 0.959 . S
H1068 C1061 0.961 . S
H1069 C1061 0.960 . S
H1070 C1062 0.930 . S
H1071 C1063 0.929 . S
H1072 C1080 0.929 . S
H1073 C1082 0.930 . S
H1074 C1084 0.930 . S
H1075 C1087 0.929 . S
H1076 C1090 0.930 . S
H1077 C1092 0.960 . S
H1078 C1092 0.960 . S
H1079 C1092 0.960 . S
C1080 H1072 0.929 . S
C1080 C1081 1.377 . S
C1080 C1082 1.384 . S
C1081 C1080 1.377 . S
C1081 C1087 1.390 . S
C1082 H1073 0.930 . S
C1082 C1080 1.384 . S
C1082 C1083 1.372 . S
C1083 C1082 1.372 . S
C1083 C1084 1.400 . S
C1083 C1088 1.490 . S
C1084 H1074 0.930 . S
C1084 C1083 1.400 . S
C1084 C1087 1.386 . S
H1085 C1101 0.930 . S
H1086 C1102 0.931 . S
C1087 H1075 0.929 . S
C1087 C1081 1.390 . S
C1087 C1084 1.386 . S
C1088 C1083 1.490 . S
C1088 C1090 1.395 . S
C1088 C1091 1.403 . S
H1089 C1095 0.930 . S
C1090 H1076 0.930 . S
C1090 C1088 1.395 . S
C1090 C1093 1.403 . S
C1091 C1088 1.403 . S
C1091 C1092 1.524 . S
C1091 C1095 1.400 . S
C1092 H1077 0.960 . S
C1092 H1078 0.960 . S
C1092 H1079 0.960 . S
C1092 C1091 1.524 . S
C1093 C1090 1.403 . S
C1093 C1094 1.392 . S
C1093 C1097 1.495 . S
C1094 C1093 1.392 . S
C1094 C1095 1.385 . S
C1094 C1096 1.478 . S
C1095 H1089 0.930 . S
C1095 C1091 1.400 . S
C1095 C1094 1.385 . S
C1096 C1094 1.478 . S
C1096 C1098 1.381 . S
C1096 C1102 1.383 . S
C1097 C1093 1.495 . S
C1097 H1103 0.959 . S
C1097 H1104 0.961 . S
C1097 H1105 0.960 . S
C1098 C1096 1.381 . S
C1098 C1099 1.394 . S
C1098 H1106 0.930 . S
C1099 C1098 1.394 . S
C1099 C1100 1.383 . S
C1099 H1107 0.929 . S
C1100 C1099 1.383 . S
C1100 C1101 1.377 . S
C1101 H1085 0.930 . S
C1101 C1100 1.377 . S
C1101 C1102 1.379 . S
C1102 H1086 0.931 . S
C1102 C1096 1.383 . S
C1102 C1101 1.379 . S
H1103 C1097 0.959 . S
H1104 C1097 0.961 . S
H1105 C1097 0.960 . S
H1106 C1098 0.930 . S
H1107 C1099 0.929 . S
H1108 C1116 0.929 . S
H1109 C1118 0.930 . S
H1110 C1120 0.930 . S
H1111 C1123 0.929 . S
H1112 C1126 0.930 . S
H1113 C1128 0.960 . S
H1114 C1128 0.960 . S
H1115 C1128 0.960 . S
C1116 H1108 0.929 . S
C1116 C1117 1.377 . S
C1116 C1118 1.384 . S
C1117 C1116 1.377 . S
C1117 C1123 1.390 . S
C1118 H1109 0.930 . S
C1118 C1116 1.384 . S
C1118 C1119 1.372 . S
C1119 C1118 1.372 . S
C1119 C1120 1.400 . S
C1119 C1124 1.490 . S
C1120 H1110 0.930 . S
C1120 C1119 1.400 . S
C1120 C1123 1.386 . S
H1121 C1137 0.930 . S
H1122 C1138 0.931 . S
C1123 H1111 0.929 . S
C1123 C1117 1.390 . S
C1123 C1120 1.386 . S
C1124 C1119 1.490 . S
C1124 C1126 1.395 . S
C1124 C1127 1.403 . S
H1125 C1131 0.930 . S
C1126 H1112 0.930 . S
C1126 C1124 1.395 . S
C1126 C1129 1.403 . S
C1127 C1124 1.403 . S
C1127 C1128 1.524 . S
C1127 C1131 1.400 . S
C1128 H1113 0.960 . S
C1128 H1114 0.960 . S
C1128 H1115 0.960 . S
C1128 C1127 1.524 . S
C1129 C1126 1.403 . S
C1129 C1130 1.392 . S
C1129 C1133 1.495 . S
C1130 C1129 1.392 . S
C1130 C1131 1.385 . S
C1130 C1132 1.478 . S
C1131 H1125 0.930 . S
C1131 C1127 1.400 . S
C1131 C1130 1.385 . S
C1132 C1130 1.478 . S
C1132 C1134 1.381 . S
C1132 C1138 1.383 . S
C1133 C1129 1.495 . S
C1133 H1139 0.959 . S
C1133 H1140 0.961 . S
C1133 H1141 0.960 . S
C1134 C1132 1.381 . S
C1134 C1135 1.394 . S
C1134 H1142 0.930 . S
C1135 C1134 1.394 . S
C1135 C1136 1.383 . S
C1135 H1143 0.929 . S
C1136 C1135 1.383 . S
C1136 C1137 1.377 . S
C1137 H1121 0.930 . S
C1137 C1136 1.377 . S
C1137 C1138 1.379 . S
C1138 H1122 0.931 . S
C1138 C1132 1.383 . S
C1138 C1137 1.379 . S
H1139 C1133 0.959 . S
H1140 C1133 0.961 . S
H1141 C1133 0.960 . S
H1142 C1134 0.930 . S
H1143 C1135 0.929 . S
H1144 C1152 0.929 . S
H1145 C1154 0.930 . S
H1146 C1156 0.930 . S
H1147 C1159 0.929 . S
H1148 C1162 0.930 . S
H1149 C1164 0.960 . S
H1150 C1164 0.960 . S
H1151 C1164 0.960 . S
C1152 H1144 0.929 . S
C1152 C1153 1.377 . S
C1152 C1154 1.384 . S
C1153 C1152 1.377 . S
C1153 C1159 1.390 . S
C1154 H1145 0.930 . S
C1154 C1152 1.384 . S
C1154 C1155 1.372 . S
C1155 C1154 1.372 . S
C1155 C1156 1.400 . S
C1155 C1160 1.490 . S
C1156 H1146 0.930 . S
C1156 C1155 1.400 . S
C1156 C1159 1.386 . S
H1157 C1173 0.930 . S
H1158 C1174 0.931 . S
C1159 H1147 0.929 . S
C1159 C1153 1.390 . S
C1159 C1156 1.386 . S
C1160 C1155 1.490 . S
C1160 C1162 1.395 . S
C1160 C1163 1.403 . S
H1161 C1167 0.930 . S
C1162 H1148 0.930 . S
C1162 C1160 1.395 . S
C1162 C1165 1.403 1_455 S
C1163 C1160 1.403 . S
C1163 C1164 1.524 . S
C1163 C1167 1.400 1_455 S
C1164 H1149 0.960 . S
C1164 H1150 0.960 . S
C1164 H1151 0.960 . S
C1164 C1163 1.524 . S
C1165 C1162 1.403 1_655 S
C1165 C1166 1.392 . S
C1165 C1169 1.495 . S
C1166 C1165 1.392 . S
C1166 C1167 1.385 . S
C1166 C1168 1.478 . S
C1167 H1161 0.930 . S
C1167 C1163 1.400 1_655 S
C1167 C1166 1.385 . S
C1168 C1166 1.478 . S
C1168 C1170 1.381 . S
C1168 C1174 1.383 . S
C1169 C1165 1.495 . S
C1169 H1175 0.959 . S
C1169 H1176 0.961 . S
C1169 H1177 0.960 . S
C1170 C1168 1.381 . S
C1170 C1171 1.394 . S
C1170 H1178 0.930 . S
C1171 C1170 1.394 . S
C1171 C1172 1.383 . S
C1171 H1179 0.929 . S
C1172 C1171 1.383 . S
C1172 C1173 1.377 . S
C1173 H1157 0.930 . S
C1173 C1172 1.377 . S
C1173 C1174 1.379 . S
C1174 H1158 0.931 . S
C1174 C1168 1.383 . S
C1174 C1173 1.379 . S
H1175 C1169 0.959 . S
H1176 C1169 0.961 . S
H1177 C1169 0.960 . S
H1178 C1170 0.930 . S
H1179 C1171 0.929 . S
H1180 C1188 0.929 . S
H1181 C1190 0.930 . S
H1182 C1192 0.930 . S
H1183 C1195 0.929 . S
H1184 C1198 0.930 . S
H1185 C1200 0.960 . S
H1186 C1200 0.960 . S
H1187 C1200 0.960 . S
C1188 H1180 0.929 . S
C1188 C1189 1.377 . S
C1188 C1190 1.384 . S
C1189 C1188 1.377 . S
C1189 C1195 1.390 . S
C1190 H1181 0.930 . S
C1190 C1188 1.384 . S
C1190 C1191 1.372 . S
C1191 C1190 1.372 . S
C1191 C1192 1.400 . S
C1191 C1196 1.490 . S
C1192 H1182 0.930 . S
C1192 C1191 1.400 . S
C1192 C1195 1.386 . S
H1193 C1209 0.930 . S
H1194 C1210 0.931 . S
C1195 H1183 0.929 . S
C1195 C1189 1.390 . S
C1195 C1192 1.386 . S
C1196 C1191 1.490 . S
C1196 C1198 1.395 . S
C1196 C1199 1.403 1_554 S
H1197 C1203 0.930 . S
C1198 H1184 0.930 . S
C1198 C1196 1.395 . S
C1198 C1201 1.403 . S
C1199 C1196 1.403 1_556 S
C1199 C1200 1.524 . S
C1199 C1203 1.400 . S
C1200 H1185 0.960 . S
C1200 H1186 0.960 . S
C1200 H1187 0.960 . S
C1200 C1199 1.524 . S
C1201 C1198 1.403 . S
C1201 C1202 1.392 1_554 S
C1201 C1205 1.495 . S
C1202 C1201 1.392 1_556 S
C1202 C1203 1.385 . S
C1202 C1204 1.478 . S
C1203 H1197 0.930 . S
C1203 C1199 1.400 . S
C1203 C1202 1.385 . S
C1204 C1202 1.478 . S
C1204 C1206 1.381 . S
C1204 C1210 1.383 . S
C1205 C1201 1.495 . S
C1205 H1211 0.959 . S
C1205 H1212 0.961 . S
C1205 H1213 0.960 . S
C1206 C1204 1.381 . S
C1206 C1207 1.394 . S
C1206 H1214 0.930 . S
C1207 C1206 1.394 . S
C1207 C1208 1.383 . S
C1207 H1215 0.929 . S
C1208 C1207 1.383 . S
C1208 C1209 1.377 . S
C1209 H1193 0.930 . S
C1209 C1208 1.377 . S
C1209 C1210 1.379 . S
C1210 H1194 0.931 . S
C1210 C1204 1.383 . S
C1210 C1209 1.379 . S
H1211 C1205 0.959 . S
H1212 C1205 0.961 . S
H1213 C1205 0.960 . S
H1214 C1206 0.930 . S
H1215 C1207 0.929 . S
H1216 C1224 0.929 . S
H1217 C1226 0.930 . S
H1218 C1228 0.930 . S
H1219 C1231 0.929 . S
H1220 C1234 0.930 . S
H1221 C1236 0.960 . S
H1222 C1236 0.960 . S
H1223 C1236 0.960 . S
C1224 H1216 0.929 . S
C1224 C1225 1.377 . S
C1224 C1226 1.384 . S
C1225 C1224 1.377 . S
C1225 C1231 1.390 . S
C1226 H1217 0.930 . S
C1226 C1224 1.384 . S
C1226 C1227 1.372 . S
C1227 C1226 1.372 . S
C1227 C1228 1.400 . S
C1227 C1232 1.490 . S
C1228 H1218 0.930 . S
C1228 C1227 1.400 . S
C1228 C1231 1.386 . S
H1229 C1245 0.930 . S
H1230 C1246 0.931 . S
C1231 H1219 0.929 . S
C1231 C1225 1.390 . S
C1231 C1228 1.386 . S
C1232 C1227 1.490 . S
C1232 C1234 1.395 . S
C1232 C1235 1.403 . S
H1233 C1239 0.930 . S
C1234 H1220 0.930 . S
C1234 C1232 1.395 . S
C1234 C1237 1.403 . S
C1235 C1232 1.403 . S
C1235 C1236 1.524 . S
C1235 C1239 1.400 . S
C1236 H1221 0.960 . S
C1236 H1222 0.960 . S
C1236 H1223 0.960 . S
C1236 C1235 1.524 . S
C1237 C1234 1.403 . S
C1237 C1238 1.392 . S
C1237 C1241 1.495 . S
C1238 C1237 1.392 . S
C1238 C1239 1.385 . S
C1238 C1240 1.478 . S
C1239 H1233 0.930 . S
C1239 C1235 1.400 . S
C1239 C1238 1.385 . S
C1240 C1238 1.478 . S
C1240 C1242 1.381 . S
C1240 C1246 1.383 . S
C1241 C1237 1.495 . S
C1241 H1247 0.959 . S
C1241 H1248 0.961 . S
C1241 H1249 0.960 . S
C1242 C1240 1.381 . S
C1242 C1243 1.394 . S
C1242 H1250 0.930 . S
C1243 C1242 1.394 . S
C1243 C1244 1.383 . S
C1243 H1251 0.929 . S
C1244 C1243 1.383 . S
C1244 C1245 1.377 . S
C1245 H1229 0.930 . S
C1245 C1244 1.377 . S
C1245 C1246 1.379 . S
C1246 H1230 0.931 . S
C1246 C1240 1.383 . S
C1246 C1245 1.379 . S
H1247 C1241 0.959 . S
H1248 C1241 0.961 . S
H1249 C1241 0.960 . S
H1250 C1242 0.930 . S
H1251 C1243 0.929 . S
H1252 C1260 0.929 . S
H1253 C1262 0.930 . S
H1254 C1264 0.930 . S
H1255 C1267 0.929 . S
H1256 C1270 0.930 . S
H1257 C1272 0.960 . S
H1258 C1272 0.960 . S
H1259 C1272 0.960 . S
C1260 H1252 0.929 . S
C1260 C1261 1.377 . S
C1260 C1262 1.384 . S
C1261 C1260 1.377 . S
C1261 C1267 1.390 . S
C1262 H1253 0.930 . S
C1262 C1260 1.384 . S
C1262 C1263 1.372 . S
C1263 C1262 1.372 . S
C1263 C1264 1.400 . S
C1263 C1268 1.490 . S
C1264 H1254 0.930 . S
C1264 C1263 1.400 . S
C1264 C1267 1.386 . S
H1265 C1281 0.930 . S
H1266 C1282 0.931 . S
C1267 H1255 0.929 . S
C1267 C1261 1.390 . S
C1267 C1264 1.386 . S
C1268 C1263 1.490 . S
C1268 C1270 1.395 . S
C1268 C1271 1.403 . S
H1269 C1275 0.930 . S
C1270 H1256 0.930 . S
C1270 C1268 1.395 . S
C1270 C1273 1.403 . S
C1271 C1268 1.403 . S
C1271 C1272 1.524 . S
C1271 C1275 1.400 . S
C1272 H1257 0.960 . S
C1272 H1258 0.960 . S
C1272 H1259 0.960 . S
C1272 C1271 1.524 . S
C1273 C1270 1.403 . S
C1273 C1274 1.392 . S
C1273 C1277 1.495 . S
C1274 C1273 1.392 . S
C1274 C1275 1.385 . S
C1274 C1276 1.478 . S
C1275 H1269 0.930 . S
C1275 C1271 1.400 . S
C1275 C1274 1.385 . S
C1276 C1274 1.478 . S
C1276 C1278 1.381 . S
C1276 C1282 1.383 . S
C1277 C1273 1.495 . S
C1277 H1283 0.959 . S
C1277 H1284 0.961 . S
C1277 H1285 0.960 . S
C1278 C1276 1.381 . S
C1278 C1279 1.394 . S
C1278 H1286 0.930 . S
C1279 C1278 1.394 . S
C1279 C1280 1.383 . S
C1279 H1287 0.929 . S
C1280 C1279 1.383 . S
C1280 C1281 1.377 . S
C1281 H1265 0.930 . S
C1281 C1280 1.377 . S
C1281 C1282 1.379 . S
C1282 H1266 0.931 . S
C1282 C1276 1.383 . S
C1282 C1281 1.379 . S
H1283 C1277 0.959 . S
H1284 C1277 0.961 . S
H1285 C1277 0.960 . S
H1286 C1278 0.930 . S
H1287 C1279 0.929 . S
H1288 C1296 0.929 . S
H1289 C1298 0.930 . S
H1290 C1300 0.930 . S
H1291 C1303 0.929 . S
H1292 C1306 0.930 . S
H1293 C1308 0.960 . S
H1294 C1308 0.960 . S
H1295 C1308 0.960 . S
C1296 H1288 0.929 . S
C1296 C1297 1.377 . S
C1296 C1298 1.384 . S
C1297 C1296 1.377 . S
C1297 C1303 1.390 . S
C1298 H1289 0.930 . S
C1298 C1296 1.384 . S
C1298 C1299 1.372 . S
C1299 C1298 1.372 . S
C1299 C1300 1.400 . S
C1299 C1304 1.490 . S
C1300 H1290 0.930 . S
C1300 C1299 1.400 . S
C1300 C1303 1.386 . S
H1301 C1317 0.930 . S
H1302 C1318 0.931 . S
C1303 H1291 0.929 . S
C1303 C1297 1.390 . S
C1303 C1300 1.386 . S
C1304 C1299 1.490 . S
C1304 C1306 1.395 . S
C1304 C1307 1.403 . S
H1305 C1311 0.930 . S
C1306 H1292 0.930 . S
C1306 C1304 1.395 . S
C1306 C1309 1.403 . S
C1307 C1304 1.403 . S
C1307 C1308 1.524 . S
C1307 C1311 1.400 . S
C1308 H1293 0.960 . S
C1308 H1294 0.960 . S
C1308 H1295 0.960 . S
C1308 C1307 1.524 . S
C1309 C1306 1.403 . S
C1309 C1310 1.392 . S
C1309 C1313 1.495 . S
C1310 C1309 1.392 . S
C1310 C1311 1.385 . S
C1310 C1312 1.478 . S
C1311 H1305 0.930 . S
C1311 C1307 1.400 . S
C1311 C1310 1.385 . S
C1312 C1310 1.478 . S
C1312 C1314 1.381 . S
C1312 C1318 1.383 . S
C1313 C1309 1.495 . S
C1313 H1319 0.959 . S
C1313 H1320 0.961 . S
C1313 H1321 0.960 . S
C1314 C1312 1.381 . S
C1314 C1315 1.394 . S
C1314 H1322 0.930 . S
C1315 C1314 1.394 . S
C1315 C1316 1.383 . S
C1315 H1323 0.929 . S
C1316 C1315 1.383 . S
C1316 C1317 1.377 . S
C1317 H1301 0.930 . S
C1317 C1316 1.377 . S
C1317 C1318 1.379 . S
C1318 H1302 0.931 . S
C1318 C1312 1.383 . S
C1318 C1317 1.379 . S
H1319 C1313 0.959 . S
H1320 C1313 0.961 . S
H1321 C1313 0.960 . S
H1322 C1314 0.930 . S
H1323 C1315 0.929 . S
H1324 C1332 0.929 . S
H1325 C1334 0.930 . S
H1326 C1336 0.930 . S
H1327 C1339 0.929 . S
H1328 C1342 0.930 . S
H1329 C1344 0.960 . S
H1330 C1344 0.960 . S
H1331 C1344 0.960 . S
C1332 H1324 0.929 . S
C1332 C1333 1.377 . S
C1332 C1334 1.384 . S
C1333 C1332 1.377 . S
C1333 C1339 1.390 . S
C1334 H1325 0.930 . S
C1334 C1332 1.384 . S
C1334 C1335 1.372 . S
C1335 C1334 1.372 . S
C1335 C1336 1.400 . S
C1335 C1340 1.490 . S
C1336 H1326 0.930 . S
C1336 C1335 1.400 . S
C1336 C1339 1.386 . S
H1337 C1353 0.930 . S
H1338 C1354 0.931 . S
C1339 H1327 0.929 . S
C1339 C1333 1.390 . S
C1339 C1336 1.386 . S
C1340 C1335 1.490 . S
C1340 C1342 1.395 . S
C1340 C1343 1.403 . S
H1341 C1347 0.930 . S
C1342 H1328 0.930 . S
C1342 C1340 1.395 . S
C1342 C1345 1.403 . S
C1343 C1340 1.403 . S
C1343 C1344 1.524 . S
C1343 C1347 1.400 . S
C1344 H1329 0.960 . S
C1344 H1330 0.960 . S
C1344 H1331 0.960 . S
C1344 C1343 1.524 . S
C1345 C1342 1.403 . S
C1345 C1346 1.392 . S
C1345 C1349 1.495 . S
C1346 C1345 1.392 . S
C1346 C1347 1.385 . S
C1346 C1348 1.478 . S
C1347 H1341 0.930 . S
C1347 C1343 1.400 . S
C1347 C1346 1.385 . S
C1348 C1346 1.478 . S
C1348 C1350 1.381 . S
C1348 C1354 1.383 . S
C1349 C1345 1.495 . S
C1349 H1355 0.959 . S
C1349 H1356 0.961 . S
C1349 H1357 0.960 . S
C1350 C1348 1.381 . S
C1350 C1351 1.394 . S
C1350 H1358 0.930 . S
C1351 C1350 1.394 . S
C1351 C1352 1.383 . S
C1351 H1359 0.929 . S
C1352 C1351 1.383 . S
C1352 C1353 1.377 . S
C1353 H1337 0.930 . S
C1353 C1352 1.377 . S
C1353 C1354 1.379 . S
C1354 H1338 0.931 . S
C1354 C1348 1.383 . S
C1354 C1353 1.379 . S
H1355 C1349 0.959 . S
H1356 C1349 0.961 . S
H1357 C1349 0.960 . S
H1358 C1350 0.930 . S
H1359 C1351 0.929 . S
H1360 C1368 0.929 . S
H1361 C1370 0.930 . S
H1362 C1372 0.930 . S
H1363 C1375 0.929 . S
H1364 C1378 0.930 . S
H1365 C1380 0.960 . S
H1366 C1380 0.960 . S
H1367 C1380 0.960 . S
C1368 H1360 0.929 . S
C1368 C1369 1.377 . S
C1368 C1370 1.384 . S
C1369 C1368 1.377 . S
C1369 C1375 1.390 . S
C1370 H1361 0.930 . S
C1370 C1368 1.384 . S
C1370 C1371 1.372 . S
C1371 C1370 1.372 . S
C1371 C1372 1.400 . S
C1371 C1376 1.490 . S
C1372 H1362 0.930 . S
C1372 C1371 1.400 . S
C1372 C1375 1.386 . S
H1373 C1389 0.930 . S
H1374 C1390 0.931 . S
C1375 H1363 0.929 . S
C1375 C1369 1.390 . S
C1375 C1372 1.386 . S
C1376 C1371 1.490 . S
C1376 C1378 1.395 . S
C1376 C1379 1.403 . S
H1377 C1383 0.930 . S
C1378 H1364 0.930 . S
C1378 C1376 1.395 . S
C1378 C1381 1.403 . S
C1379 C1376 1.403 . S
C1379 C1380 1.524 . S
C1379 C1383 1.400 . S
C1380 H1365 0.960 . S
C1380 H1366 0.960 . S
C1380 H1367 0.960 . S
C1380 C1379 1.524 . S
C1381 C1378 1.403 . S
C1381 C1382 1.392 . S
C1381 C1385 1.495 . S
C1382 C1381 1.392 . S
C1382 C1383 1.385 . S
C1382 C1384 1.478 . S
C1383 H1377 0.930 . S
C1383 C1379 1.400 . S
C1383 C1382 1.385 . S
C1384 C1382 1.478 . S
C1384 C1386 1.381 . S
C1384 C1390 1.383 . S
C1385 C1381 1.495 . S
C1385 H1391 0.959 . S
C1385 H1392 0.961 . S
C1385 H1393 0.960 . S
C1386 C1384 1.381 . S
C1386 C1387 1.394 . S
C1386 H1394 0.930 . S
C1387 C1386 1.394 . S
C1387 C1388 1.383 . S
C1387 H1395 0.929 . S
C1388 C1387 1.383 . S
C1388 C1389 1.377 . S
C1389 H1373 0.930 . S
C1389 C1388 1.377 . S
C1389 C1390 1.379 . S
C1390 H1374 0.931 . S
C1390 C1384 1.383 . S
C1390 C1389 1.379 . S
H1391 C1385 0.959 . S
H1392 C1385 0.961 . S
H1393 C1385 0.960 . S
H1394 C1386 0.930 . S
H1395 C1387 0.929 . S
H1396 C1404 0.929 . S
H1397 C1406 0.930 . S
H1398 C1408 0.930 . S
H1399 C1411 0.929 . S
H1400 C1414 0.930 . S
H1401 C1416 0.960 . S
H1402 C1416 0.960 . S
H1403 C1416 0.960 . S
C1404 H1396 0.929 . S
C1404 C1405 1.377 . S
C1404 C1406 1.384 . S
C1405 C1404 1.377 . S
C1405 C1411 1.390 . S
C1406 H1397 0.930 . S
C1406 C1404 1.384 . S
C1406 C1407 1.372 . S
C1407 C1406 1.372 . S
C1407 C1408 1.400 . S
C1407 C1412 1.490 . S
C1408 H1398 0.930 . S
C1408 C1407 1.400 . S
C1408 C1411 1.386 . S
H1409 C1425 0.930 . S
H1410 C1426 0.931 . S
C1411 H1399 0.929 . S
C1411 C1405 1.390 . S
C1411 C1408 1.386 . S
C1412 C1407 1.490 . S
C1412 C1414 1.395 . S
C1412 C1415 1.403 . S
H1413 C1419 0.930 . S
C1414 H1400 0.930 . S
C1414 C1412 1.395 . S
C1414 C1417 1.403 . S
C1415 C1412 1.403 . S
C1415 C1416 1.524 . S
C1415 C1419 1.400 . S
C1416 H1401 0.960 . S
C1416 H1402 0.960 . S
C1416 H1403 0.960 . S
C1416 C1415 1.524 . S
C1417 C1414 1.403 . S
C1417 C1418 1.392 . S
C1417 C1421 1.495 . S
C1418 C1417 1.392 . S
C1418 C1419 1.385 . S
C1418 C1420 1.478 . S
C1419 H1413 0.930 . S
C1419 C1415 1.400 . S
C1419 C1418 1.385 . S
C1420 C1418 1.478 . S
C1420 C1422 1.381 . S
C1420 C1426 1.383 . S
C1421 C1417 1.495 . S
C1421 H1427 0.959 . S
C1421 H1428 0.961 . S
C1421 H1429 0.960 . S
C1422 C1420 1.381 . S
C1422 C1423 1.394 . S
C1422 H1430 0.930 . S
C1423 C1422 1.394 . S
C1423 C1424 1.383 . S
C1423 H1431 0.929 . S
C1424 C1423 1.383 . S
C1424 C1425 1.377 . S
C1425 H1409 0.930 . S
C1425 C1424 1.377 . S
C1425 C1426 1.379 . S
C1426 H1410 0.931 . S
C1426 C1420 1.383 . S
C1426 C1425 1.379 . S
H1427 C1421 0.959 . S
H1428 C1421 0.961 . S
H1429 C1421 0.960 . S
H1430 C1422 0.930 . S
H1431 C1423 0.929 . S
H1432 C1440 0.929 . S
H1433 C1442 0.930 . S
H1434 C1444 0.930 . S
H1435 C1447 0.929 . S
H1436 C1450 0.930 . S
H1437 C1452 0.960 . S
H1438 C1452 0.960 . S
H1439 C1452 0.960 . S
C1440 H1432 0.929 . S
C1440 C1441 1.377 . S
C1440 C1442 1.384 . S
C1441 C1440 1.377 . S
C1441 C1447 1.390 . S
C1442 H1433 0.930 . S
C1442 C1440 1.384 . S
C1442 C1443 1.372 . S
C1443 C1442 1.372 . S
C1443 C1444 1.400 . S
C1443 C1448 1.490 . S
C1444 H1434 0.930 . S
C1444 C1443 1.400 . S
C1444 C1447 1.386 . S
H1445 C1461 0.930 . S
H1446 C1462 0.931 . S
C1447 H1435 0.929 . S
C1447 C1441 1.390 . S
C1447 C1444 1.386 . S
C1448 C1443 1.490 . S
C1448 C1450 1.395 . S
C1448 C1451 1.403 . S
H1449 C1455 0.930 . S
C1450 H1436 0.930 . S
C1450 C1448 1.395 . S
C1450 C1453 1.403 . S
C1451 C1448 1.403 . S
C1451 C1452 1.524 . S
C1451 C1455 1.400 . S
C1452 H1437 0.960 . S
C1452 H1438 0.960 . S
C1452 H1439 0.960 . S
C1452 C1451 1.524 . S
C1453 C1450 1.403 . S
C1453 C1454 1.392 . S
C1453 C1457 1.495 . S
C1454 C1453 1.392 . S
C1454 C1455 1.385 . S
C1454 C1456 1.478 . S
C1455 H1449 0.930 . S
C1455 C1451 1.400 . S
C1455 C1454 1.385 . S
C1456 C1454 1.478 . S
C1456 C1458 1.381 . S
C1456 C1462 1.383 . S
C1457 C1453 1.495 . S
C1457 H1463 0.959 . S
C1457 H1464 0.961 . S
C1457 H1465 0.960 . S
C1458 C1456 1.381 . S
C1458 C1459 1.394 . S
C1458 H1466 0.930 . S
C1459 C1458 1.394 . S
C1459 C1460 1.383 . S
C1459 H1467 0.929 . S
C1460 C1459 1.383 . S
C1460 C1461 1.377 . S
C1461 H1445 0.930 . S
C1461 C1460 1.377 . S
C1461 C1462 1.379 . S
C1462 H1446 0.931 . S
C1462 C1456 1.383 . S
C1462 C1461 1.379 . S
H1463 C1457 0.959 . S
H1464 C1457 0.961 . S
H1465 C1457 0.960 . S
H1466 C1458 0.930 . S
H1467 C1459 0.929 . S
H1468 C1476 0.929 . S
H1469 C1478 0.930 . S
H1470 C1480 0.930 . S
H1471 C1483 0.929 . S
H1472 C1486 0.930 . S
H1473 C1488 0.960 . S
H1474 C1488 0.960 . S
H1475 C1488 0.960 . S
C1476 H1468 0.929 . S
C1476 C1477 1.377 . S
C1476 C1478 1.384 . S
C1477 C1476 1.377 . S
C1477 C1483 1.390 . S
C1478 H1469 0.930 . S
C1478 C1476 1.384 . S
C1478 C1479 1.372 . S
C1479 C1478 1.372 . S
C1479 C1480 1.400 . S
C1479 C1484 1.490 . S
C1480 H1470 0.930 . S
C1480 C1479 1.400 . S
C1480 C1483 1.386 . S
H1481 C1497 0.930 . S
H1482 C1498 0.931 . S
C1483 H1471 0.929 . S
C1483 C1477 1.390 . S
C1483 C1480 1.386 . S
C1484 C1479 1.490 . S
C1484 C1486 1.395 . S
C1484 C1487 1.403 . S
H1485 C1491 0.930 . S
C1486 H1472 0.930 . S
C1486 C1484 1.395 . S
C1486 C1489 1.403 . S
C1487 C1484 1.403 . S
C1487 C1488 1.524 . S
C1487 C1491 1.400 . S
C1488 H1473 0.960 . S
C1488 H1474 0.960 . S
C1488 H1475 0.960 . S
C1488 C1487 1.524 . S
C1489 C1486 1.403 . S
C1489 C1490 1.392 . S
C1489 C1493 1.495 . S
C1490 C1489 1.392 . S
C1490 C1491 1.385 . S
C1490 C1492 1.478 . S
C1491 H1485 0.930 . S
C1491 C1487 1.400 . S
C1491 C1490 1.385 . S
C1492 C1490 1.478 . S
C1492 C1494 1.381 . S
C1492 C1498 1.383 . S
C1493 C1489 1.495 . S
C1493 H1499 0.959 . S
C1493 H1500 0.961 . S
C1493 H1501 0.960 . S
C1494 C1492 1.381 . S
C1494 C1495 1.394 . S
C1494 H1502 0.930 . S
C1495 C1494 1.394 . S
C1495 C1496 1.383 . S
C1495 H1503 0.929 . S
C1496 C1495 1.383 . S
C1496 C1497 1.377 . S
C1497 H1481 0.930 . S
C1497 C1496 1.377 . S
C1497 C1498 1.379 . S
C1498 H1482 0.931 . S
C1498 C1492 1.383 . S
C1498 C1497 1.379 . S
H1499 C1493 0.959 . S
H1500 C1493 0.961 . S
H1501 C1493 0.960 . S
H1502 C1494 0.930 . S
H1503 C1495 0.929 . S
H1504 C1512 0.929 . S
H1505 C1514 0.930 . S
H1506 C1516 0.930 . S
H1507 C1519 0.929 . S
H1508 C1522 0.930 . S
H1509 C1524 0.960 . S
H1510 C1524 0.960 . S
H1511 C1524 0.960 . S
C1512 H1504 0.929 . S
C1512 C1513 1.377 . S
C1512 C1514 1.384 . S
C1513 C1512 1.377 . S
C1513 C1519 1.390 . S
C1514 H1505 0.930 . S
C1514 C1512 1.384 . S
C1514 C1515 1.372 . S
C1515 C1514 1.372 . S
C1515 C1516 1.400 . S
C1515 C1520 1.490 . S
C1516 H1506 0.930 . S
C1516 C1515 1.400 . S
C1516 C1519 1.386 . S
H1517 C1533 0.930 . S
H1518 C1534 0.931 . S
C1519 H1507 0.929 . S
C1519 C1513 1.390 . S
C1519 C1516 1.386 . S
C1520 C1515 1.490 . S
C1520 C1522 1.395 . S
C1520 C1523 1.403 . S
H1521 C1527 0.930 . S
C1522 H1508 0.930 . S
C1522 C1520 1.395 . S
C1522 C1525 1.403 . S
C1523 C1520 1.403 . S
C1523 C1524 1.524 . S
C1523 C1527 1.400 . S
C1524 H1509 0.960 . S
C1524 H1510 0.960 . S
C1524 H1511 0.960 . S
C1524 C1523 1.524 . S
C1525 C1522 1.403 . S
C1525 C1526 1.392 . S
C1525 C1529 1.495 . S
C1526 C1525 1.392 . S
C1526 C1527 1.385 . S
C1526 C1528 1.478 . S
C1527 H1521 0.930 . S
C1527 C1523 1.400 . S
C1527 C1526 1.385 . S
C1528 C1526 1.478 . S
C1528 C1530 1.381 . S
C1528 C1534 1.383 . S
C1529 C1525 1.495 . S
C1529 H1535 0.959 . S
C1529 H1536 0.961 . S
C1529 H1537 0.960 . S
C1530 C1528 1.381 . S
C1530 C1531 1.394 . S
C1530 H1538 0.930 . S
C1531 C1530 1.394 . S
C1531 C1532 1.383 . S
C1531 H1539 0.929 1_565 S
C1532 C1531 1.383 . S
C1532 C1533 1.377 . S
C1533 H1517 0.930 . S
C1533 C1532 1.377 . S
C1533 C1534 1.379 . S
C1534 H1518 0.931 . S
C1534 C1528 1.383 . S
C1534 C1533 1.379 . S
H1535 C1529 0.959 . S
H1536 C1529 0.961 . S
H1537 C1529 0.960 . S
H1538 C1530 0.930 . S
H1539 C1531 0.929 1_545 S
H1540 C1548 0.929 . S
H1541 C1550 0.930 . S
H1542 C1552 0.930 . S
H1543 C1555 0.929 . S
H1544 C1558 0.930 . S
H1545 C1560 0.960 . S
H1546 C1560 0.960 . S
H1547 C1560 0.960 . S
C1548 H1540 0.929 . S
C1548 C1549 1.377 . S
C1548 C1550 1.384 . S
C1549 C1548 1.377 . S
C1549 C1555 1.390 . S
C1550 H1541 0.930 . S
C1550 C1548 1.384 . S
C1550 C1551 1.372 . S
C1551 C1550 1.372 . S
C1551 C1552 1.400 . S
C1551 C1556 1.490 . S
C1552 H1542 0.930 . S
C1552 C1551 1.400 . S
C1552 C1555 1.386 . S
H1553 C1569 0.930 . S
H1554 C1570 0.931 . S
C1555 H1543 0.929 . S
C1555 C1549 1.390 . S
C1555 C1552 1.386 . S
C1556 C1551 1.490 . S
C1556 C1558 1.395 . S
C1556 C1559 1.403 . S
H1557 C1563 0.930 . S
C1558 H1544 0.930 . S
C1558 C1556 1.395 . S
C1558 C1561 1.403 . S
C1559 C1556 1.403 . S
C1559 C1560 1.524 . S
C1559 C1563 1.400 . S
C1560 H1545 0.960 . S
C1560 H1546 0.960 . S
C1560 H1547 0.960 . S
C1560 C1559 1.524 . S
C1561 C1558 1.403 . S
C1561 C1562 1.392 . S
C1561 C1565 1.495 . S
C1562 C1561 1.392 . S
C1562 C1563 1.385 . S
C1562 C1564 1.478 . S
C1563 H1557 0.930 . S
C1563 C1559 1.400 . S
C1563 C1562 1.385 . S
C1564 C1562 1.478 . S
C1564 C1566 1.381 . S
C1564 C1570 1.383 . S
C1565 C1561 1.495 . S
C1565 H1571 0.959 . S
C1565 H1572 0.961 . S
C1565 H1573 0.960 . S
C1566 C1564 1.381 . S
C1566 C1567 1.394 . S
C1566 H1574 0.930 . S
C1567 C1566 1.394 . S
C1567 C1568 1.383 . S
C1567 H1575 0.929 . S
C1568 C1567 1.383 . S
C1568 C1569 1.377 . S
C1569 H1553 0.930 . S
C1569 C1568 1.377 . S
C1569 C1570 1.379 . S
C1570 H1554 0.931 . S
C1570 C1564 1.383 . S
C1570 C1569 1.379 . S
H1571 C1565 0.959 . S
H1572 C1565 0.961 . S
H1573 C1565 0.960 . S
H1574 C1566 0.930 . S
H1575 C1567 0.929 . S
H1576 C1584 0.929 1_565 S
H1577 C1586 0.930 . S
H1578 C1588 0.930 . S
H1579 C1591 0.929 . S
H1580 C1594 0.930 . S
H1581 C1596 0.960 . S
H1582 C1596 0.960 . S
H1583 C1596 0.960 . S
C1584 H1576 0.929 1_545 S
C1584 C1585 1.377 . S
C1584 C1586 1.384 . S
C1585 C1584 1.377 . S
C1585 C1591 1.390 . S
C1586 H1577 0.930 . S
C1586 C1584 1.384 . S
C1586 C1587 1.372 . S
C1587 C1586 1.372 . S
C1587 C1588 1.400 . S
C1587 C1592 1.490 . S
C1588 H1578 0.930 . S
C1588 C1587 1.400 . S
C1588 C1591 1.386 . S
H1589 C1605 0.930 . S
H1590 C1606 0.931 . S
C1591 H1579 0.929 . S
C1591 C1585 1.390 . S
C1591 C1588 1.386 . S
C1592 C1587 1.490 . S
C1592 C1594 1.395 . S
C1592 C1595 1.403 . S
H1593 C1599 0.930 . S
C1594 H1580 0.930 . S
C1594 C1592 1.395 . S
C1594 C1597 1.403 . S
C1595 C1592 1.403 . S
C1595 C1596 1.524 . S
C1595 C1599 1.400 . S
C1596 H1581 0.960 . S
C1596 H1582 0.960 . S
C1596 H1583 0.960 . S
C1596 C1595 1.524 . S
C1597 C1594 1.403 . S
C1597 C1598 1.392 . S
C1597 C1601 1.495 . S
C1598 C1597 1.392 . S
C1598 C1599 1.385 . S
C1598 C1600 1.478 . S
C1599 H1593 0.930 . S
C1599 C1595 1.400 . S
C1599 C1598 1.385 . S
C1600 C1598 1.478 . S
C1600 C1602 1.381 . S
C1600 C1606 1.383 . S
C1601 C1597 1.495 . S
C1601 H1607 0.959 . S
C1601 H1608 0.961 . S
C1601 H1609 0.960 . S
C1602 C1600 1.381 . S
C1602 C1603 1.394 . S
C1602 H1610 0.930 . S
C1603 C1602 1.394 . S
C1603 C1604 1.383 . S
C1603 H1611 0.929 . S
C1604 C1603 1.383 . S
C1604 C1605 1.377 . S
C1605 H1589 0.930 . S
C1605 C1604 1.377 . S
C1605 C1606 1.379 . S
C1606 H1590 0.931 . S
C1606 C1600 1.383 . S
C1606 C1605 1.379 . S
H1607 C1601 0.959 . S
H1608 C1601 0.961 . S
H1609 C1601 0.960 . S
H1610 C1602 0.930 . S
H1611 C1603 0.929 . S
H1612 C1620 0.929 . S
H1613 C1622 0.930 . S
H1614 C1624 0.930 . S
H1615 C1627 0.929 . S
H1616 C1630 0.930 . S
H1617 C1632 0.960 . S
H1618 C1632 0.960 . S
H1619 C1632 0.960 . S
C1620 H1612 0.929 . S
C1620 C1621 1.377 . S
C1620 C1622 1.384 . S
C1621 C1620 1.377 . S
C1621 C1627 1.390 . S
C1622 H1613 0.930 . S
C1622 C1620 1.384 . S
C1622 C1623 1.372 . S
C1623 C1622 1.372 . S
C1623 C1624 1.400 . S
C1623 C1628 1.490 . S
C1624 H1614 0.930 . S
C1624 C1623 1.400 . S
C1624 C1627 1.386 . S
H1625 C1641 0.930 . S
H1626 C1642 0.931 . S
C1627 H1615 0.929 . S
C1627 C1621 1.390 . S
C1627 C1624 1.386 . S
C1628 C1623 1.490 . S
C1628 C1630 1.395 . S
C1628 C1631 1.403 . S
H1629 C1635 0.930 . S
C1630 H1616 0.930 . S
C1630 C1628 1.395 . S
C1630 C1633 1.403 . S
C1631 C1628 1.403 . S
C1631 C1632 1.524 . S
C1631 C1635 1.400 . S
C1632 H1617 0.960 . S
C1632 H1618 0.960 . S
C1632 H1619 0.960 . S
C1632 C1631 1.524 . S
C1633 C1630 1.403 . S
C1633 C1634 1.392 . S
C1633 C1637 1.495 . S
C1634 C1633 1.392 . S
C1634 C1635 1.385 . S
C1634 C1636 1.478 . S
C1635 H1629 0.930 . S
C1635 C1631 1.400 . S
C1635 C1634 1.385 . S
C1636 C1634 1.478 . S
C1636 C1638 1.381 . S
C1636 C1642 1.383 . S
C1637 C1633 1.495 . S
C1637 H1643 0.959 1_545 S
C1637 H1644 0.961 . S
C1637 H1645 0.960 1_545 S
C1638 C1636 1.381 . S
C1638 C1639 1.394 . S
C1638 H1646 0.930 . S
C1639 C1638 1.394 . S
C1639 C1640 1.383 . S
C1639 H1647 0.929 . S
C1640 C1639 1.383 . S
C1640 C1641 1.377 . S
C1641 H1625 0.930 . S
C1641 C1640 1.377 . S
C1641 C1642 1.379 . S
C1642 H1626 0.931 . S
C1642 C1636 1.383 . S
C1642 C1641 1.379 . S
H1643 C1637 0.959 1_565 S
H1644 C1637 0.961 . S
H1645 C1637 0.960 1_565 S
H1646 C1638 0.930 . S
H1647 C1639 0.929 . S
H1648 C1656 0.929 . S
H1649 C1658 0.930 . S
H1650 C1660 0.930 . S
H1651 C1663 0.929 . S
H1652 C1666 0.930 . S
H1653 C1668 0.960 . S
H1654 C1668 0.960 . S
H1655 C1668 0.960 . S
C1656 H1648 0.929 . S
C1656 C1657 1.377 . S
C1656 C1658 1.384 . S
C1657 C1656 1.377 . S
C1657 C1663 1.390 . S
C1658 H1649 0.930 . S
C1658 C1656 1.384 . S
C1658 C1659 1.372 . S
C1659 C1658 1.372 . S
C1659 C1660 1.400 . S
C1659 C1664 1.490 . S
C1660 H1650 0.930 . S
C1660 C1659 1.400 . S
C1660 C1663 1.386 . S
H1661 C1677 0.930 1_565 S
H1662 C1678 0.931 . S
C1663 H1651 0.929 . S
C1663 C1657 1.390 . S
C1663 C1660 1.386 . S
C1664 C1659 1.490 . S
C1664 C1666 1.395 . S
C1664 C1667 1.403 . S
H1665 C1671 0.930 . S
C1666 H1652 0.930 . S
C1666 C1664 1.395 . S
C1666 C1669 1.403 . S
C1667 C1664 1.403 . S
C1667 C1668 1.524 . S
C1667 C1671 1.400 . S
C1668 H1653 0.960 . S
C1668 H1654 0.960 . S
C1668 H1655 0.960 . S
C1668 C1667 1.524 . S
C1669 C1666 1.403 . S
C1669 C1670 1.392 . S
C1669 C1673 1.495 . S
C1670 C1669 1.392 . S
C1670 C1671 1.385 . S
C1670 C1672 1.478 . S
C1671 H1665 0.930 . S
C1671 C1667 1.400 . S
C1671 C1670 1.385 . S
C1672 C1670 1.478 . S
C1672 C1674 1.381 . S
C1672 C1678 1.383 . S
C1673 C1669 1.495 . S
C1673 H1679 0.959 . S
C1673 H1680 0.961 . S
C1673 H1681 0.960 . S
C1674 C1672 1.381 . S
C1674 C1675 1.394 . S
C1674 H1682 0.930 . S
C1675 C1674 1.394 . S
C1675 C1676 1.383 . S
C1675 H1683 0.929 . S
C1676 C1675 1.383 . S
C1676 C1677 1.377 . S
C1677 H1661 0.930 1_545 S
C1677 C1676 1.377 . S
C1677 C1678 1.379 . S
C1678 H1662 0.931 . S
C1678 C1672 1.383 . S
C1678 C1677 1.379 . S
H1679 C1673 0.959 . S
H1680 C1673 0.961 . S
H1681 C1673 0.960 . S
H1682 C1674 0.930 . S
H1683 C1675 0.929 . S
H1684 C1692 0.929 1_565 S
H1685 C1694 0.930 . S
H1686 C1696 0.930 . S
H1687 C1699 0.929 . S
H1688 C1702 0.930 . S
H1689 C1704 0.960 . S
H1690 C1704 0.960 . S
H1691 C1704 0.960 . S
C1692 H1684 0.929 1_545 S
C1692 C1693 1.377 . S
C1692 C1694 1.384 . S
C1693 C1692 1.377 . S
C1693 C1699 1.390 . S
C1694 H1685 0.930 . S
C1694 C1692 1.384 . S
C1694 C1695 1.372 . S
C1695 C1694 1.372 . S
C1695 C1696 1.400 . S
C1695 C1700 1.490 . S
C1696 H1686 0.930 . S
C1696 C1695 1.400 . S
C1696 C1699 1.386 . S
H1697 C1713 0.930 . S
H1698 C1714 0.931 . S
C1699 H1687 0.929 . S
C1699 C1693 1.390 . S
C1699 C1696 1.386 . S
C1700 C1695 1.490 . S
C1700 C1702 1.395 . S
C1700 C1703 1.403 . S
H1701 C1707 0.930 . S
C1702 H1688 0.930 . S
C1702 C1700 1.395 . S
C1702 C1705 1.403 . S
C1703 C1700 1.403 . S
C1703 C1704 1.524 . S
C1703 C1707 1.400 . S
C1704 H1689 0.960 . S
C1704 H1690 0.960 . S
C1704 H1691 0.960 . S
C1704 C1703 1.524 . S
C1705 C1702 1.403 . S
C1705 C1706 1.392 . S
C1705 C1709 1.495 . S
C1706 C1705 1.392 . S
C1706 C1707 1.385 . S
C1706 C1708 1.478 . S
C1707 H1701 0.930 . S
C1707 C1703 1.400 . S
C1707 C1706 1.385 . S
C1708 C1706 1.478 . S
C1708 C1710 1.381 . S
C1708 C1714 1.383 . S
C1709 C1705 1.495 . S
C1709 H1715 0.959 . S
C1709 H1716 0.961 . S
C1709 H1717 0.960 . S
C1710 C1708 1.381 . S
C1710 C1711 1.394 . S
C1710 H1718 0.930 . S
C1711 C1710 1.394 . S
C1711 C1712 1.383 . S
C1711 H1719 0.929 . S
C1712 C1711 1.383 . S
C1712 C1713 1.377 . S
C1713 H1697 0.930 . S
C1713 C1712 1.377 . S
C1713 C1714 1.379 . S
C1714 H1698 0.931 . S
C1714 C1708 1.383 . S
C1714 C1713 1.379 . S
H1715 C1709 0.959 . S
H1716 C1709 0.961 . S
H1717 C1709 0.960 . S
H1718 C1710 0.930 . S
H1719 C1711 0.929 . S
H1720 C1728 0.929 . S
H1721 C1730 0.930 . S
H1722 C1732 0.930 . S
H1723 C1735 0.929 . S
H1724 C1738 0.930 . S
H1725 C1740 0.960 . S
H1726 C1740 0.960 . S
H1727 C1740 0.960 . S
C1728 H1720 0.929 . S
C1728 C1729 1.377 . S
C1728 C1730 1.384 . S
C1729 C1728 1.377 . S
C1729 C1735 1.390 . S
C1730 H1721 0.930 . S
C1730 C1728 1.384 . S
C1730 C1731 1.372 . S
C1731 C1730 1.372 . S
C1731 C1732 1.400 . S
C1731 C1736 1.490 . S
C1732 H1722 0.930 . S
C1732 C1731 1.400 . S
C1732 C1735 1.386 . S
H1733 C1749 0.930 . S
H1734 C1750 0.931 . S
C1735 H1723 0.929 . S
C1735 C1729 1.390 . S
C1735 C1732 1.386 . S
C1736 C1731 1.490 . S
C1736 C1738 1.395 . S
C1736 C1739 1.403 . S
H1737 C1743 0.930 . S
C1738 H1724 0.930 . S
C1738 C1736 1.395 . S
C1738 C1741 1.403 . S
C1739 C1736 1.403 . S
C1739 C1740 1.524 . S
C1739 C1743 1.400 . S
C1740 H1725 0.960 . S
C1740 H1726 0.960 . S
C1740 H1727 0.960 . S
C1740 C1739 1.524 . S
C1741 C1738 1.403 . S
C1741 C1742 1.392 . S
C1741 C1745 1.495 . S
C1742 C1741 1.392 . S
C1742 C1743 1.385 . S
C1742 C1744 1.478 . S
C1743 H1737 0.930 . S
C1743 C1739 1.400 . S
C1743 C1742 1.385 . S
C1744 C1742 1.478 . S
C1744 C1746 1.381 . S
C1744 C1750 1.383 . S
C1745 C1741 1.495 . S
C1745 H1751 0.959 . S
C1745 H1752 0.961 . S
C1745 H1753 0.960 . S
C1746 C1744 1.381 . S
C1746 C1747 1.394 . S
C1746 H1754 0.930 . S
C1747 C1746 1.394 . S
C1747 C1748 1.383 . S
C1747 H1755 0.929 . S
C1748 C1747 1.383 . S
C1748 C1749 1.377 . S
C1749 H1733 0.930 . S
C1749 C1748 1.377 . S
C1749 C1750 1.379 . S
C1750 H1734 0.931 . S
C1750 C1744 1.383 . S
C1750 C1749 1.379 . S
H1751 C1745 0.959 . S
H1752 C1745 0.961 . S
H1753 C1745 0.960 . S
H1754 C1746 0.930 . S
H1755 C1747 0.929 . S
H1756 C1764 0.929 1_545 S
H1757 C1766 0.930 . S
H1758 C1768 0.930 . S
H1759 C1771 0.929 . S
H1760 C1774 0.930 . S
H1761 C1776 0.960 . S
H1762 C1776 0.960 . S
H1763 C1776 0.960 . S
C1764 H1756 0.929 1_565 S
C1764 C1765 1.377 . S
C1764 C1766 1.384 . S
C1765 C1764 1.377 . S
C1765 C1771 1.390 . S
C1766 H1757 0.930 . S
C1766 C1764 1.384 . S
C1766 C1767 1.372 . S
C1767 C1766 1.372 . S
C1767 C1768 1.400 . S
C1767 C1772 1.490 . S
C1768 H1758 0.930 . S
C1768 C1767 1.400 . S
C1768 C1771 1.386 . S
H1769 C1785 0.930 . S
H1770 C1786 0.931 . S
C1771 H1759 0.929 . S
C1771 C1765 1.390 . S
C1771 C1768 1.386 . S
C1772 C1767 1.490 . S
C1772 C1774 1.395 . S
C1772 C1775 1.403 . S
H1773 C1779 0.930 . S
C1774 H1760 0.930 . S
C1774 C1772 1.395 . S
C1774 C1777 1.403 . S
C1775 C1772 1.403 . S
C1775 C1776 1.524 . S
C1775 C1779 1.400 . S
C1776 H1761 0.960 . S
C1776 H1762 0.960 . S
C1776 H1763 0.960 . S
C1776 C1775 1.524 . S
C1777 C1774 1.403 . S
C1777 C1778 1.392 . S
C1777 C1781 1.495 . S
C1778 C1777 1.392 . S
C1778 C1779 1.385 . S
C1778 C1780 1.478 . S
C1779 H1773 0.930 . S
C1779 C1775 1.400 . S
C1779 C1778 1.385 . S
C1780 C1778 1.478 . S
C1780 C1782 1.381 . S
C1780 C1786 1.383 . S
C1781 C1777 1.495 . S
C1781 H1787 0.959 . S
C1781 H1788 0.961 . S
C1781 H1789 0.960 . S
C1782 C1780 1.381 . S
C1782 C1783 1.394 . S
C1782 H1790 0.930 . S
C1783 C1782 1.394 . S
C1783 C1784 1.383 . S
C1783 H1791 0.929 . S
C1784 C1783 1.383 . S
C1784 C1785 1.377 . S
C1785 H1769 0.930 . S
C1785 C1784 1.377 . S
C1785 C1786 1.379 . S
C1786 H1770 0.931 . S
C1786 C1780 1.383 . S
C1786 C1785 1.379 . S
H1787 C1781 0.959 . S
H1788 C1781 0.961 . S
H1789 C1781 0.960 . S
H1790 C1782 0.930 . S
H1791 C1783 0.929 . S
H1792 C1800 0.929 . S
H1793 C1802 0.930 . S
H1794 C1804 0.930 . S
H1795 C1807 0.929 . S
H1796 C1810 0.930 . S
H1797 C1812 0.960 . S
H1798 C1812 0.960 . S
H1799 C1812 0.960 . S
C1800 H1792 0.929 . S
C1800 C1801 1.377 . S
C1800 C1802 1.384 . S
C1801 C1800 1.377 . S
C1801 C1807 1.390 . S
C1802 H1793 0.930 . S
C1802 C1800 1.384 . S
C1802 C1803 1.372 1_554 S
C1803 C1802 1.372 1_556 S
C1803 C1804 1.400 . S
C1803 C1808 1.490 . S
C1804 H1794 0.930 . S
C1804 C1803 1.400 . S
C1804 C1807 1.386 1_556 S
H1805 C1821 0.930 . S
H1806 C1822 0.931 . S
C1807 H1795 0.929 . S
C1807 C1801 1.390 . S
C1807 C1804 1.386 1_554 S
C1808 C1803 1.490 . S
C1808 C1810 1.395 . S
C1808 C1811 1.403 . S
H1809 C1815 0.930 . S
C1810 H1796 0.930 . S
C1810 C1808 1.395 . S
C1810 C1813 1.403 . S
C1811 C1808 1.403 . S
C1811 C1812 1.524 . S
C1811 C1815 1.400 . S
C1812 H1797 0.960 . S
C1812 H1798 0.960 . S
C1812 H1799 0.960 . S
C1812 C1811 1.524 . S
C1813 C1810 1.403 . S
C1813 C1814 1.392 . S
C1813 C1817 1.495 . S
C1814 C1813 1.392 . S
C1814 C1815 1.385 . S
C1814 C1816 1.478 . S
C1815 H1809 0.930 . S
C1815 C1811 1.400 . S
C1815 C1814 1.385 . S
C1816 C1814 1.478 . S
C1816 C1818 1.381 . S
C1816 C1822 1.383 . S
C1817 C1813 1.495 . S
C1817 H1823 0.959 . S
C1817 H1824 0.961 . S
C1817 H1825 0.960 . S
C1818 C1816 1.381 . S
C1818 C1819 1.394 . S
C1818 H1826 0.930 . S
C1819 C1818 1.394 . S
C1819 C1820 1.383 . S
C1819 H1827 0.929 . S
C1820 C1819 1.383 . S
C1820 C1821 1.377 . S
C1821 H1805 0.930 . S
C1821 C1820 1.377 . S
C1821 C1822 1.379 . S
C1822 H1806 0.931 . S
C1822 C1816 1.383 . S
C1822 C1821 1.379 . S
H1823 C1817 0.959 . S
H1824 C1817 0.961 . S
H1825 C1817 0.960 . S
H1826 C1818 0.930 . S
H1827 C1819 0.929 . S
H1828 C1836 0.929 . S
H1829 C1838 0.930 . S
H1830 C1840 0.930 . S
H1831 C1843 0.929 . S
H1832 C1846 0.930 . S
H1833 C1848 0.960 . S
H1834 C1848 0.960 . S
H1835 C1848 0.960 . S
C1836 H1828 0.929 . S
C1836 C1837 1.377 . S
C1836 C1838 1.384 . S
C1837 C1836 1.377 . S
C1837 C1843 1.390 . S
C1838 H1829 0.930 . S
C1838 C1836 1.384 . S
C1838 C1839 1.372 . S
C1839 C1838 1.372 . S
C1839 C1840 1.400 . S
C1839 C1844 1.490 . S
C1840 H1830 0.930 . S
C1840 C1839 1.400 . S
C1840 C1843 1.386 . S
H1841 C1857 0.930 . S
H1842 C1858 0.931 . S
C1843 H1831 0.929 . S
C1843 C1837 1.390 . S
C1843 C1840 1.386 . S
C1844 C1839 1.490 . S
C1844 C1846 1.395 . S
C1844 C1847 1.403 . S
H1845 C1851 0.930 . S
C1846 H1832 0.930 . S
C1846 C1844 1.395 . S
C1846 C1849 1.403 . S
C1847 C1844 1.403 . S
C1847 C1848 1.524 . S
C1847 C1851 1.400 . S
C1848 H1833 0.960 . S
C1848 H1834 0.960 . S
C1848 H1835 0.960 . S
C1848 C1847 1.524 . S
C1849 C1846 1.403 . S
C1849 C1850 1.392 . S
C1849 C1853 1.495 . S
C1850 C1849 1.392 . S
C1850 C1851 1.385 . S
C1850 C1852 1.478 . S
C1851 H1845 0.930 . S
C1851 C1847 1.400 . S
C1851 C1850 1.385 . S
C1852 C1850 1.478 . S
C1852 C1854 1.381 . S
C1852 C1858 1.383 . S
C1853 C1849 1.495 . S
C1853 H1859 0.959 . S
C1853 H1860 0.961 . S
C1853 H1861 0.960 . S
C1854 C1852 1.381 . S
C1854 C1855 1.394 . S
C1854 H1862 0.930 . S
C1855 C1854 1.394 . S
C1855 C1856 1.383 . S
C1855 H1863 0.929 . S
C1856 C1855 1.383 . S
C1856 C1857 1.377 . S
C1857 H1841 0.930 . S
C1857 C1856 1.377 . S
C1857 C1858 1.379 . S
C1858 H1842 0.931 . S
C1858 C1852 1.383 . S
C1858 C1857 1.379 . S
H1859 C1853 0.959 . S
H1860 C1853 0.961 . S
H1861 C1853 0.960 . S
H1862 C1854 0.930 . S
H1863 C1855 0.929 . S
H1864 C1872 0.929 . S
H1865 C1874 0.930 . S
H1866 C1876 0.930 . S
H1867 C1879 0.929 . S
H1868 C1882 0.930 . S
H1869 C1884 0.960 . S
H1870 C1884 0.960 . S
H1871 C1884 0.960 . S
C1872 H1864 0.929 . S
C1872 C1873 1.377 . S
C1872 C1874 1.384 . S
C1873 C1872 1.377 . S
C1873 C1879 1.390 . S
C1874 H1865 0.930 . S
C1874 C1872 1.384 . S
C1874 C1875 1.372 . S
C1875 C1874 1.372 . S
C1875 C1876 1.400 . S
C1875 C1880 1.490 . S
C1876 H1866 0.930 . S
C1876 C1875 1.400 . S
C1876 C1879 1.386 . S
H1877 C1893 0.930 . S
H1878 C1894 0.931 . S
C1879 H1867 0.929 . S
C1879 C1873 1.390 . S
C1879 C1876 1.386 . S
C1880 C1875 1.490 . S
C1880 C1882 1.395 . S
C1880 C1883 1.403 . S
H1881 C1887 0.930 . S
C1882 H1868 0.930 . S
C1882 C1880 1.395 . S
C1882 C1885 1.403 . S
C1883 C1880 1.403 . S
C1883 C1884 1.524 . S
C1883 C1887 1.400 . S
C1884 H1869 0.960 . S
C1884 H1870 0.960 . S
C1884 H1871 0.960 . S
C1884 C1883 1.524 . S
C1885 C1882 1.403 . S
C1885 C1886 1.392 . S
C1885 C1889 1.495 . S
C1886 C1885 1.392 . S
C1886 C1887 1.385 . S
C1886 C1888 1.478 . S
C1887 H1881 0.930 . S
C1887 C1883 1.400 . S
C1887 C1886 1.385 . S
C1888 C1886 1.478 . S
C1888 C1890 1.381 . S
C1888 C1894 1.383 . S
C1889 C1885 1.495 . S
C1889 H1895 0.959 . S
C1889 H1896 0.961 . S
C1889 H1897 0.960 . S
C1890 C1888 1.381 . S
C1890 C1891 1.394 . S
C1890 H1898 0.930 . S
C1891 C1890 1.394 . S
C1891 C1892 1.383 . S
C1891 H1899 0.929 . S
C1892 C1891 1.383 . S
C1892 C1893 1.377 . S
C1893 H1877 0.930 . S
C1893 C1892 1.377 . S
C1893 C1894 1.379 . S
C1894 H1878 0.931 . S
C1894 C1888 1.383 . S
C1894 C1893 1.379 . S
H1895 C1889 0.959 . S
H1896 C1889 0.961 . S
H1897 C1889 0.960 . S
H1898 C1890 0.930 . S
H1899 C1891 0.929 . S
H1900 C1908 0.929 . S
H1901 C1910 0.930 . S
H1902 C1912 0.930 . S
H1903 C1915 0.929 . S
H1904 C1918 0.930 . S
H1905 C1920 0.960 . S
H1906 C1920 0.960 . S
H1907 C1920 0.960 . S
C1908 H1900 0.929 . S
C1908 C1909 1.377 . S
C1908 C1910 1.384 . S
C1909 C1908 1.377 . S
C1909 C1915 1.390 . S
C1910 H1901 0.930 . S
C1910 C1908 1.384 . S
C1910 C1911 1.372 . S
C1911 C1910 1.372 . S
C1911 C1912 1.400 . S
C1911 C1916 1.490 . S
C1912 H1902 0.930 . S
C1912 C1911 1.400 . S
C1912 C1915 1.386 . S
H1913 C1929 0.930 . S
H1914 C1930 0.931 . S
C1915 H1903 0.929 . S
C1915 C1909 1.390 . S
C1915 C1912 1.386 . S
C1916 C1911 1.490 . S
C1916 C1918 1.395 . S
C1916 C1919 1.403 . S
H1917 C1923 0.930 . S
C1918 H1904 0.930 . S
C1918 C1916 1.395 . S
C1918 C1921 1.403 . S
C1919 C1916 1.403 . S
C1919 C1920 1.524 . S
C1919 C1923 1.400 . S
C1920 H1905 0.960 . S
C1920 H1906 0.960 . S
C1920 H1907 0.960 . S
C1920 C1919 1.524 . S
C1921 C1918 1.403 . S
C1921 C1922 1.392 . S
C1921 C1925 1.495 . S
C1922 C1921 1.392 . S
C1922 C1923 1.385 . S
C1922 C1924 1.478 . S
C1923 H1917 0.930 . S
C1923 C1919 1.400 . S
C1923 C1922 1.385 . S
C1924 C1922 1.478 . S
C1924 C1926 1.381 . S
C1924 C1930 1.383 . S
C1925 C1921 1.495 . S
C1925 H1931 0.959 . S
C1925 H1932 0.961 . S
C1925 H1933 0.960 . S
C1926 C1924 1.381 . S
C1926 C1927 1.394 . S
C1926 H1934 0.930 . S
C1927 C1926 1.394 . S
C1927 C1928 1.383 . S
C1927 H1935 0.929 . S
C1928 C1927 1.383 . S
C1928 C1929 1.377 . S
C1929 H1913 0.930 . S
C1929 C1928 1.377 . S
C1929 C1930 1.379 . S
C1930 H1914 0.931 . S
C1930 C1924 1.383 . S
C1930 C1929 1.379 . S
H1931 C1925 0.959 . S
H1932 C1925 0.961 . S
H1933 C1925 0.960 . S
H1934 C1926 0.930 . S
H1935 C1927 0.929 . S
H1936 C1944 0.929 . S
H1937 C1946 0.930 . S
H1938 C1948 0.930 . S
H1939 C1951 0.929 . S
H1940 C1954 0.930 . S
H1941 C1956 0.960 . S
H1942 C1956 0.960 . S
H1943 C1956 0.960 . S
C1944 H1936 0.929 . S
C1944 C1945 1.377 . S
C1944 C1946 1.384 . S
C1945 C1944 1.377 . S
C1945 C1951 1.390 . S
C1946 H1937 0.930 . S
C1946 C1944 1.384 . S
C1946 C1947 1.372 . S
C1947 C1946 1.372 . S
C1947 C1948 1.400 . S
C1947 C1952 1.490 . S
C1948 H1938 0.930 . S
C1948 C1947 1.400 . S
C1948 C1951 1.386 . S
H1949 C1965 0.930 . S
H1950 C1966 0.931 . S
C1951 H1939 0.929 . S
C1951 C1945 1.390 . S
C1951 C1948 1.386 . S
C1952 C1947 1.490 . S
C1952 C1954 1.395 . S
C1952 C1955 1.403 . S
H1953 C1959 0.930 . S
C1954 H1940 0.930 . S
C1954 C1952 1.395 . S
C1954 C1957 1.403 . S
C1955 C1952 1.403 . S
C1955 C1956 1.524 . S
C1955 C1959 1.400 . S
C1956 H1941 0.960 . S
C1956 H1942 0.960 . S
C1956 H1943 0.960 . S
C1956 C1955 1.524 . S
C1957 C1954 1.403 . S
C1957 C1958 1.392 . S
C1957 C1961 1.495 . S
C1958 C1957 1.392 . S
C1958 C1959 1.385 . S
C1958 C1960 1.478 . S
C1959 H1953 0.930 . S
C1959 C1955 1.400 . S
C1959 C1958 1.385 . S
C1960 C1958 1.478 . S
C1960 C1962 1.381 1_554 S
C1960 C1966 1.383 . S
C1961 C1957 1.495 . S
C1961 H1967 0.959 . S
C1961 H1968 0.961 . S
C1961 H1969 0.960 . S
C1962 C1960 1.381 1_556 S
C1962 C1963 1.394 . S
C1962 H1970 0.930 . S
C1963 C1962 1.394 . S
C1963 C1964 1.383 . S
C1963 H1971 0.929 . S
C1964 C1963 1.383 . S
C1964 C1965 1.377 . S
C1965 H1949 0.930 . S
C1965 C1964 1.377 . S
C1965 C1966 1.379 1_556 S
C1966 H1950 0.931 . S
C1966 C1960 1.383 . S
C1966 C1965 1.379 1_554 S
H1967 C1961 0.959 . S
H1968 C1961 0.961 . S
H1969 C1961 0.960 . S
H1970 C1962 0.930 . S
H1971 C1963 0.929 . S
H1972 C1980 0.929 . S
H1973 C1982 0.930 . S
H1974 C1984 0.930 . S
H1975 C1987 0.929 . S
H1976 C1990 0.930 . S
H1977 C1992 0.960 . S
H1978 C1992 0.960 . S
H1979 C1992 0.960 . S
C1980 H1972 0.929 . S
C1980 C1981 1.377 . S
C1980 C1982 1.384 . S
C1981 C1980 1.377 . S
C1981 C1987 1.390 . S
C1982 H1973 0.930 . S
C1982 C1980 1.384 . S
C1982 C1983 1.372 . S
C1983 C1982 1.372 . S
C1983 C1984 1.400 . S
C1983 C1988 1.490 . S
C1984 H1974 0.930 . S
C1984 C1983 1.400 . S
C1984 C1987 1.386 . S
H1985 C2001 0.930 . S
H1986 C2002 0.931 . S
C1987 H1975 0.929 . S
C1987 C1981 1.390 . S
C1987 C1984 1.386 . S
C1988 C1983 1.490 . S
C1988 C1990 1.395 . S
C1988 C1991 1.403 . S
H1989 C1995 0.930 . S
C1990 H1976 0.930 . S
C1990 C1988 1.395 . S
C1990 C1993 1.403 . S
C1991 C1988 1.403 . S
C1991 C1992 1.524 . S
C1991 C1995 1.400 . S
C1992 H1977 0.960 . S
C1992 H1978 0.960 . S
C1992 H1979 0.960 . S
C1992 C1991 1.524 . S
C1993 C1990 1.403 . S
C1993 C1994 1.392 . S
C1993 C1997 1.495 . S
C1994 C1993 1.392 . S
C1994 C1995 1.385 . S
C1994 C1996 1.478 . S
C1995 H1989 0.930 . S
C1995 C1991 1.400 . S
C1995 C1994 1.385 . S
C1996 C1994 1.478 . S
C1996 C1998 1.381 . S
C1996 C2002 1.383 . S
C1997 C1993 1.495 . S
C1997 H2003 0.959 . S
C1997 H2004 0.961 . S
C1997 H2005 0.960 . S
C1998 C1996 1.381 . S
C1998 C1999 1.394 . S
C1998 H2006 0.930 . S
C1999 C1998 1.394 . S
C1999 C2000 1.383 . S
C1999 H2007 0.929 . S
C2000 C1999 1.383 . S
C2000 C2001 1.377 . S
C2001 H1985 0.930 . S
C2001 C2000 1.377 . S
C2001 C2002 1.379 . S
C2002 H1986 0.931 . S
C2002 C1996 1.383 . S
C2002 C2001 1.379 . S
H2003 C1997 0.959 . S
H2004 C1997 0.961 . S
H2005 C1997 0.960 . S
H2006 C1998 0.930 . S
H2007 C1999 0.929 . S
H2008 C2016 0.929 . S
H2009 C2018 0.930 . S
H2010 C2020 0.930 . S
H2011 C2023 0.929 . S
H2012 C2026 0.930 . S
H2013 C2028 0.960 . S
H2014 C2028 0.960 . S
H2015 C2028 0.960 . S
C2016 H2008 0.929 . S
C2016 C2017 1.377 . S
C2016 C2018 1.384 . S
C2017 C2016 1.377 . S
C2017 C2023 1.390 . S
C2018 H2009 0.930 . S
C2018 C2016 1.384 . S
C2018 C2019 1.372 . S
C2019 C2018 1.372 . S
C2019 C2020 1.400 . S
C2019 C2024 1.490 . S
C2020 H2010 0.930 . S
C2020 C2019 1.400 . S
C2020 C2023 1.386 . S
H2021 C2037 0.930 . S
H2022 C2038 0.931 . S
C2023 H2011 0.929 . S
C2023 C2017 1.390 . S
C2023 C2020 1.386 . S
C2024 C2019 1.490 . S
C2024 C2026 1.395 . S
C2024 C2027 1.403 . S
H2025 C2031 0.930 . S
C2026 H2012 0.930 . S
C2026 C2024 1.395 . S
C2026 C2029 1.403 . S
C2027 C2024 1.403 . S
C2027 C2028 1.524 . S
C2027 C2031 1.400 . S
C2028 H2013 0.960 . S
C2028 H2014 0.960 . S
C2028 H2015 0.960 . S
C2028 C2027 1.524 . S
C2029 C2026 1.403 . S
C2029 C2030 1.392 . S
C2029 C2033 1.495 . S
C2030 C2029 1.392 . S
C2030 C2031 1.385 . S
C2030 C2032 1.478 . S
C2031 H2025 0.930 . S
C2031 C2027 1.400 . S
C2031 C2030 1.385 . S
C2032 C2030 1.478 . S
C2032 C2034 1.381 . S
C2032 C2038 1.383 . S
C2033 C2029 1.495 . S
C2033 H2039 0.959 . S
C2033 H2040 0.961 . S
C2033 H2041 0.960 . S
C2034 C2032 1.381 . S
C2034 C2035 1.394 . S
C2034 H2042 0.930 . S
C2035 C2034 1.394 . S
C2035 C2036 1.383 . S
C2035 H2043 0.929 . S
C2036 C2035 1.383 . S
C2036 C2037 1.377 . S
C2037 H2021 0.930 . S
C2037 C2036 1.377 . S
C2037 C2038 1.379 . S
C2038 H2022 0.931 . S
C2038 C2032 1.383 . S
C2038 C2037 1.379 . S
H2039 C2033 0.959 . S
H2040 C2033 0.961 . S
H2041 C2033 0.960 . S
H2042 C2034 0.930 . S
H2043 C2035 0.929 . S
H2044 C2052 0.929 . S
H2045 C2054 0.930 . S
H2046 C2056 0.930 . S
H2047 C2059 0.929 . S
H2048 C2062 0.930 . S
H2049 C2064 0.960 . S
H2050 C2064 0.960 . S
H2051 C2064 0.960 . S
C2052 H2044 0.929 . S
C2052 C2053 1.377 . S
C2052 C2054 1.384 . S
C2053 C2052 1.377 . S
C2053 C2059 1.390 . S
C2054 H2045 0.930 . S
C2054 C2052 1.384 . S
C2054 C2055 1.372 . S
C2055 C2054 1.372 . S
C2055 C2056 1.400 . S
C2055 C2060 1.490 . S
C2056 H2046 0.930 . S
C2056 C2055 1.400 . S
C2056 C2059 1.386 . S
H2057 C2073 0.930 . S
H2058 C2074 0.931 . S
C2059 H2047 0.929 . S
C2059 C2053 1.390 . S
C2059 C2056 1.386 . S
C2060 C2055 1.490 . S
C2060 C2062 1.395 . S
C2060 C2063 1.403 . S
H2061 C2067 0.930 . S
C2062 H2048 0.930 . S
C2062 C2060 1.395 . S
C2062 C2065 1.403 . S
C2063 C2060 1.403 . S
C2063 C2064 1.524 . S
C2063 C2067 1.400 . S
C2064 H2049 0.960 . S
C2064 H2050 0.960 . S
C2064 H2051 0.960 . S
C2064 C2063 1.524 . S
C2065 C2062 1.403 . S
C2065 C2066 1.392 . S
C2065 C2069 1.495 . S
C2066 C2065 1.392 . S
C2066 C2067 1.385 . S
C2066 C2068 1.478 . S
C2067 H2061 0.930 . S
C2067 C2063 1.400 . S
C2067 C2066 1.385 . S
C2068 C2066 1.478 . S
C2068 C2070 1.381 . S
C2068 C2074 1.383 . S
C2069 C2065 1.495 . S
C2069 H2075 0.959 . S
C2069 H2076 0.961 . S
C2069 H2077 0.960 . S
C2070 C2068 1.381 . S
C2070 C2071 1.394 . S
C2070 H2078 0.930 . S
C2071 C2070 1.394 . S
C2071 C2072 1.383 . S
C2071 H2079 0.929 . S
C2072 C2071 1.383 . S
C2072 C2073 1.377 . S
C2073 H2057 0.930 . S
C2073 C2072 1.377 . S
C2073 C2074 1.379 . S
C2074 H2058 0.931 . S
C2074 C2068 1.383 . S
C2074 C2073 1.379 . S
H2075 C2069 0.959 . S
H2076 C2069 0.961 . S
H2077 C2069 0.960 . S
H2078 C2070 0.930 . S
H2079 C2071 0.929 . S
H2080 C2088 0.929 . S
H2081 C2090 0.930 . S
H2082 C2092 0.930 . S
H2083 C2095 0.929 . S
H2084 C2098 0.930 . S
H2085 C2100 0.960 . S
H2086 C2100 0.960 . S
H2087 C2100 0.960 . S
C2088 H2080 0.929 . S
C2088 C2089 1.377 . S
C2088 C2090 1.384 . S
C2089 C2088 1.377 . S
C2089 C2095 1.390 . S
C2090 H2081 0.930 . S
C2090 C2088 1.384 . S
C2090 C2091 1.372 . S
C2091 C2090 1.372 . S
C2091 C2092 1.400 . S
C2091 C2096 1.490 . S
C2092 H2082 0.930 . S
C2092 C2091 1.400 . S
C2092 C2095 1.386 . S
H2093 C2109 0.930 . S
H2094 C2110 0.931 . S
C2095 H2083 0.929 . S
C2095 C2089 1.390 . S
C2095 C2092 1.386 . S
C2096 C2091 1.490 . S
C2096 C2098 1.395 . S
C2096 C2099 1.403 . S
H2097 C2103 0.930 . S
C2098 H2084 0.930 . S
C2098 C2096 1.395 . S
C2098 C2101 1.403 . S
C2099 C2096 1.403 . S
C2099 C2100 1.524 . S
C2099 C2103 1.400 . S
C2100 H2085 0.960 . S
C2100 H2086 0.960 . S
C2100 H2087 0.960 . S
C2100 C2099 1.524 . S
C2101 C2098 1.403 . S
C2101 C2102 1.392 . S
C2101 C2105 1.495 . S
C2102 C2101 1.392 . S
C2102 C2103 1.385 . S
C2102 C2104 1.478 . S
C2103 H2097 0.930 . S
C2103 C2099 1.400 . S
C2103 C2102 1.385 . S
C2104 C2102 1.478 . S
C2104 C2106 1.381 . S
C2104 C2110 1.383 . S
C2105 C2101 1.495 . S
C2105 H2111 0.959 . S
C2105 H2112 0.961 . S
C2105 H2113 0.960 . S
C2106 C2104 1.381 . S
C2106 C2107 1.394 . S
C2106 H2114 0.930 . S
C2107 C2106 1.394 . S
C2107 C2108 1.383 . S
C2107 H2115 0.929 . S
C2108 C2107 1.383 . S
C2108 C2109 1.377 . S
C2109 H2093 0.930 . S
C2109 C2108 1.377 . S
C2109 C2110 1.379 . S
C2110 H2094 0.931 . S
C2110 C2104 1.383 . S
C2110 C2109 1.379 . S
H2111 C2105 0.959 . S
H2112 C2105 0.961 . S
H2113 C2105 0.960 . S
H2114 C2106 0.930 . S
H2115 C2107 0.929 . S
H2116 C2124 0.929 . S
H2117 C2126 0.930 . S
H2118 C2128 0.930 . S
H2119 C2131 0.929 . S
H2120 C2134 0.930 . S
H2121 C2136 0.960 . S
H2122 C2136 0.960 . S
H2123 C2136 0.960 . S
C2124 H2116 0.929 . S
C2124 C2125 1.377 . S
C2124 C2126 1.384 . S
C2125 C2124 1.377 . S
C2125 C2131 1.390 . S
C2126 H2117 0.930 . S
C2126 C2124 1.384 . S
C2126 C2127 1.372 . S
C2127 C2126 1.372 . S
C2127 C2128 1.400 . S
C2127 C2132 1.490 . S
C2128 H2118 0.930 . S
C2128 C2127 1.400 . S
C2128 C2131 1.386 . S
H2129 C2145 0.930 . S
H2130 C2146 0.931 . S
C2131 H2119 0.929 . S
C2131 C2125 1.390 . S
C2131 C2128 1.386 . S
C2132 C2127 1.490 . S
C2132 C2134 1.395 . S
C2132 C2135 1.403 . S
H2133 C2139 0.930 . S
C2134 H2120 0.930 . S
C2134 C2132 1.395 . S
C2134 C2137 1.403 . S
C2135 C2132 1.403 . S
C2135 C2136 1.524 . S
C2135 C2139 1.400 . S
C2136 H2121 0.960 . S
C2136 H2122 0.960 . S
C2136 H2123 0.960 . S
C2136 C2135 1.524 . S
C2137 C2134 1.403 . S
C2137 C2138 1.392 . S
C2137 C2141 1.495 1_565 S
C2138 C2137 1.392 . S
C2138 C2139 1.385 . S
C2138 C2140 1.478 . S
C2139 H2133 0.930 . S
C2139 C2135 1.400 . S
C2139 C2138 1.385 . S
C2140 C2138 1.478 . S
C2140 C2142 1.381 1_565 S
C2140 C2146 1.383 . S
C2141 C2137 1.495 1_545 S
C2141 H2147 0.959 . S
C2141 H2148 0.961 . S
C2141 H2149 0.960 . S
C2142 C2140 1.381 1_545 S
C2142 C2143 1.394 . S
C2142 H2150 0.930 . S
C2143 C2142 1.394 . S
C2143 C2144 1.383 . S
C2143 H2151 0.929 . S
C2144 C2143 1.383 . S
C2144 C2145 1.377 1_545 S
C2145 H2129 0.930 . S
C2145 C2144 1.377 1_565 S
C2145 C2146 1.379 . S
C2146 H2130 0.931 . S
C2146 C2140 1.383 . S
C2146 C2145 1.379 . S
H2147 C2141 0.959 . S
H2148 C2141 0.961 . S
H2149 C2141 0.960 . S
H2150 C2142 0.930 . S
H2151 C2143 0.929 . S
H2152 C2160 0.929 . S
H2153 C2162 0.930 . S
H2154 C2164 0.930 . S
H2155 C2167 0.929 . S
H2156 C2170 0.930 . S
H2157 C2172 0.960 . S
H2158 C2172 0.960 . S
H2159 C2172 0.960 . S
C2160 H2152 0.929 . S
C2160 C2161 1.377 . S
C2160 C2162 1.384 . S
C2161 C2160 1.377 . S
C2161 C2167 1.390 . S
C2162 H2153 0.930 . S
C2162 C2160 1.384 . S
C2162 C2163 1.372 . S
C2163 C2162 1.372 . S
C2163 C2164 1.400 . S
C2163 C2168 1.490 . S
C2164 H2154 0.930 . S
C2164 C2163 1.400 . S
C2164 C2167 1.386 . S
H2165 C2181 0.930 . S
H2166 C2182 0.931 . S
C2167 H2155 0.929 . S
C2167 C2161 1.390 . S
C2167 C2164 1.386 . S
C2168 C2163 1.490 . S
C2168 C2170 1.395 . S
C2168 C2171 1.403 . S
H2169 C2175 0.930 . S
C2170 H2156 0.930 . S
C2170 C2168 1.395 . S
C2170 C2173 1.403 . S
C2171 C2168 1.403 . S
C2171 C2172 1.524 . S
C2171 C2175 1.400 . S
C2172 H2157 0.960 . S
C2172 H2158 0.960 . S
C2172 H2159 0.960 . S
C2172 C2171 1.524 . S
C2173 C2170 1.403 . S
C2173 C2174 1.392 . S
C2173 C2177 1.495 . S
C2174 C2173 1.392 . S
C2174 C2175 1.385 . S
C2174 C2176 1.478 . S
C2175 H2169 0.930 . S
C2175 C2171 1.400 . S
C2175 C2174 1.385 . S
C2176 C2174 1.478 . S
C2176 C2178 1.381 . S
C2176 C2182 1.383 1_556 S
C2177 C2173 1.495 . S
C2177 H2183 0.959 . S
C2177 H2184 0.961 . S
C2177 H2185 0.960 . S
C2178 C2176 1.381 . S
C2178 C2179 1.394 1_556 S
C2178 H2186 0.930 . S
C2179 C2178 1.394 1_554 S
C2179 C2180 1.383 . S
C2179 H2187 0.929 . S
C2180 C2179 1.383 . S
C2180 C2181 1.377 . S
C2181 H2165 0.930 . S
C2181 C2180 1.377 . S
C2181 C2182 1.379 . S
C2182 H2166 0.931 . S
C2182 C2176 1.383 1_554 S
C2182 C2181 1.379 . S
H2183 C2177 0.959 . S
H2184 C2177 0.961 . S
H2185 C2177 0.960 . S
H2186 C2178 0.930 . S
H2187 C2179 0.929 . S
H2188 C2196 0.929 . S
H2189 C2198 0.930 . S
H2190 C2200 0.930 . S
H2191 C2203 0.929 . S
H2192 C2206 0.930 . S
H2193 C2208 0.960 . S
H2194 C2208 0.960 . S
H2195 C2208 0.960 . S
C2196 H2188 0.929 . S
C2196 C2197 1.377 . S
C2196 C2198 1.384 . S
C2197 C2196 1.377 . S
C2197 C2203 1.390 1_565 S
C2198 H2189 0.930 . S
C2198 C2196 1.384 . S
C2198 C2199 1.372 1_565 S
C2199 C2198 1.372 1_545 S
C2199 C2200 1.400 . S
C2199 C2204 1.490 . S
C2200 H2190 0.930 . S
C2200 C2199 1.400 . S
C2200 C2203 1.386 . S
H2201 C2217 0.930 . S
H2202 C2218 0.931 . S
C2203 H2191 0.929 . S
C2203 C2197 1.390 1_545 S
C2203 C2200 1.386 . S
C2204 C2199 1.490 . S
C2204 C2206 1.395 . S
C2204 C2207 1.403 . S
H2205 C2211 0.930 . S
C2206 H2192 0.930 . S
C2206 C2204 1.395 . S
C2206 C2209 1.403 . S
C2207 C2204 1.403 . S
C2207 C2208 1.524 . S
C2207 C2211 1.400 . S
C2208 H2193 0.960 . S
C2208 H2194 0.960 . S
C2208 H2195 0.960 . S
C2208 C2207 1.524 . S
C2209 C2206 1.403 . S
C2209 C2210 1.392 . S
C2209 C2213 1.495 . S
C2210 C2209 1.392 . S
C2210 C2211 1.385 . S
C2210 C2212 1.478 . S
C2211 H2205 0.930 . S
C2211 C2207 1.400 . S
C2211 C2210 1.385 . S
C2212 C2210 1.478 . S
C2212 C2214 1.381 . S
C2212 C2218 1.383 . S
C2213 C2209 1.495 . S
C2213 H2219 0.959 . S
C2213 H2220 0.961 . S
C2213 H2221 0.960 . S
C2214 C2212 1.381 . S
C2214 C2215 1.394 . S
C2214 H2222 0.930 . S
C2215 C2214 1.394 . S
C2215 C2216 1.383 . S
C2215 H2223 0.929 . S
C2216 C2215 1.383 . S
C2216 C2217 1.377 . S
C2217 H2201 0.930 . S
C2217 C2216 1.377 . S
C2217 C2218 1.379 . S
C2218 H2202 0.931 . S
C2218 C2212 1.383 . S
C2218 C2217 1.379 . S
H2219 C2213 0.959 . S
H2220 C2213 0.961 . S
H2221 C2213 0.960 . S
H2222 C2214 0.930 . S
H2223 C2215 0.929 . S
H2224 C2232 0.929 . S
H2225 C2234 0.930 . S
H2226 C2236 0.930 . S
H2227 C2239 0.929 . S
H2228 C2242 0.930 . S
H2229 C2244 0.960 . S
H2230 C2244 0.960 . S
H2231 C2244 0.960 . S
C2232 H2224 0.929 . S
C2232 C2233 1.377 . S
C2232 C2234 1.384 . S
C2233 C2232 1.377 . S
C2233 C2239 1.390 . S
C2234 H2225 0.930 . S
C2234 C2232 1.384 . S
C2234 C2235 1.372 . S
C2235 C2234 1.372 . S
C2235 C2236 1.400 . S
C2235 C2240 1.490 . S
C2236 H2226 0.930 . S
C2236 C2235 1.400 . S
C2236 C2239 1.386 . S
H2237 C2253 0.930 . S
H2238 C2254 0.931 . S
C2239 H2227 0.929 . S
C2239 C2233 1.390 . S
C2239 C2236 1.386 . S
C2240 C2235 1.490 . S
C2240 C2242 1.395 . S
C2240 C2243 1.403 . S
H2241 C2247 0.930 . S
C2242 H2228 0.930 . S
C2242 C2240 1.395 . S
C2242 C2245 1.403 . S
C2243 C2240 1.403 . S
C2243 C2244 1.524 . S
C2243 C2247 1.400 . S
C2244 H2229 0.960 . S
C2244 H2230 0.960 . S
C2244 H2231 0.960 . S
C2244 C2243 1.524 . S
C2245 C2242 1.403 . S
C2245 C2246 1.392 . S
C2245 C2249 1.495 . S
C2246 C2245 1.392 . S
C2246 C2247 1.385 . S
C2246 C2248 1.478 . S
C2247 H2241 0.930 . S
C2247 C2243 1.400 . S
C2247 C2246 1.385 . S
C2248 C2246 1.478 . S
C2248 C2250 1.381 . S
C2248 C2254 1.383 . S
C2249 C2245 1.495 . S
C2249 H2255 0.959 . S
C2249 H2256 0.961 . S
C2249 H2257 0.960 . S
C2250 C2248 1.381 . S
C2250 C2251 1.394 . S
C2250 H2258 0.930 . S
C2251 C2250 1.394 . S
C2251 C2252 1.383 . S
C2251 H2259 0.929 . S
C2252 C2251 1.383 . S
C2252 C2253 1.377 . S
C2253 H2237 0.930 . S
C2253 C2252 1.377 . S
C2253 C2254 1.379 . S
C2254 H2238 0.931 . S
C2254 C2248 1.383 . S
C2254 C2253 1.379 . S
H2255 C2249 0.959 . S
H2256 C2249 0.961 . S
H2257 C2249 0.960 . S
H2258 C2250 0.930 . S
H2259 C2251 0.929 . S
H2260 C2268 0.929 . S
H2261 C2270 0.930 . S
H2262 C2272 0.930 . S
H2263 C2275 0.929 . S
H2264 C2278 0.930 . S
H2265 C2280 0.960 . S
H2266 C2280 0.960 . S
H2267 C2280 0.960 . S
C2268 H2260 0.929 . S
C2268 C2269 1.377 . S
C2268 C2270 1.384 . S
C2269 C2268 1.377 . S
C2269 C2275 1.390 . S
C2270 H2261 0.930 . S
C2270 C2268 1.384 . S
C2270 C2271 1.372 . S
C2271 C2270 1.372 . S
C2271 C2272 1.400 . S
C2271 C2276 1.490 . S
C2272 H2262 0.930 . S
C2272 C2271 1.400 . S
C2272 C2275 1.386 . S
H2273 C2289 0.930 . S
H2274 C2290 0.931 . S
C2275 H2263 0.929 . S
C2275 C2269 1.390 . S
C2275 C2272 1.386 . S
C2276 C2271 1.490 . S
C2276 C2278 1.395 . S
C2276 C2279 1.403 . S
H2277 C2283 0.930 . S
C2278 H2264 0.930 . S
C2278 C2276 1.395 . S
C2278 C2281 1.403 . S
C2279 C2276 1.403 . S
C2279 C2280 1.524 . S
C2279 C2283 1.400 . S
C2280 H2265 0.960 . S
C2280 H2266 0.960 . S
C2280 H2267 0.960 . S
C2280 C2279 1.524 . S
C2281 C2278 1.403 . S
C2281 C2282 1.392 . S
C2281 C2285 1.495 . S
C2282 C2281 1.392 . S
C2282 C2283 1.385 . S
C2282 C2284 1.478 . S
C2283 H2277 0.930 . S
C2283 C2279 1.400 . S
C2283 C2282 1.385 . S
C2284 C2282 1.478 . S
C2284 C2286 1.381 1_545 S
C2284 C2290 1.383 . S
C2285 C2281 1.495 . S
C2285 H2291 0.959 . S
C2285 H2292 0.961 . S
C2285 H2293 0.960 1_545 S
C2286 C2284 1.381 1_565 S
C2286 C2287 1.394 . S
C2286 H2294 0.930 . S
C2287 C2286 1.394 . S
C2287 C2288 1.383 . S
C2287 H2295 0.929 . S
C2288 C2287 1.383 . S
C2288 C2289 1.377 1_565 S
C2289 H2273 0.930 . S
C2289 C2288 1.377 1_545 S
C2289 C2290 1.379 . S
C2290 H2274 0.931 . S
C2290 C2284 1.383 . S
C2290 C2289 1.379 . S
H2291 C2285 0.959 . S
H2292 C2285 0.961 . S
H2293 C2285 0.960 1_565 S
H2294 C2286 0.930 . S
H2295 C2287 0.929 . S
H2296 C2304 0.929 . S
H2297 C2306 0.930 . S
H2298 C2308 0.930 . S
H2299 C2311 0.929 . S
H2300 C2314 0.930 . S
H2301 C2316 0.960 . S
H2302 C2316 0.960 . S
H2303 C2316 0.960 . S
C2304 H2296 0.929 . S
C2304 C2305 1.377 . S
C2304 C2306 1.384 . S
C2305 C2304 1.377 . S
C2305 C2311 1.390 . S
C2306 H2297 0.930 . S
C2306 C2304 1.384 . S
C2306 C2307 1.372 . S
C2307 C2306 1.372 . S
C2307 C2308 1.400 . S
C2307 C2312 1.490 . S
C2308 H2298 0.930 . S
C2308 C2307 1.400 . S
C2308 C2311 1.386 . S
H2309 C2325 0.930 . S
H2310 C2326 0.931 . S
C2311 H2299 0.929 . S
C2311 C2305 1.390 . S
C2311 C2308 1.386 . S
C2312 C2307 1.490 . S
C2312 C2314 1.395 . S
C2312 C2315 1.403 . S
H2313 C2319 0.930 . S
C2314 H2300 0.930 . S
C2314 C2312 1.395 . S
C2314 C2317 1.403 . S
C2315 C2312 1.403 . S
C2315 C2316 1.524 . S
C2315 C2319 1.400 . S
C2316 H2301 0.960 . S
C2316 H2302 0.960 . S
C2316 H2303 0.960 . S
C2316 C2315 1.524 . S
C2317 C2314 1.403 . S
C2317 C2318 1.392 . S
C2317 C2321 1.495 . S
C2318 C2317 1.392 . S
C2318 C2319 1.385 . S
C2318 C2320 1.478 . S
C2319 H2313 0.930 . S
C2319 C2315 1.400 . S
C2319 C2318 1.385 . S
C2320 C2318 1.478 . S
C2320 C2322 1.381 1_554 S
C2320 C2326 1.383 . S
C2321 C2317 1.495 . S
C2321 H2327 0.959 . S
C2321 H2328 0.981 . S
C2321 H2329 0.960 . S
C2322 C2320 1.381 1_556 S
C2322 C2323 1.394 . S
C2322 H2330 0.930 1_556 S
C2323 C2322 1.394 . S
C2323 C2324 1.383 . S
C2323 H2331 0.929 . S
C2324 C2323 1.383 . S
C2324 C2325 1.377 . S
C2325 H2309 0.930 . S
C2325 C2324 1.377 . S
C2325 C2326 1.379 1_556 S
C2326 H2310 0.931 . S
C2326 C2320 1.383 . S
C2326 C2325 1.379 1_554 S
H2327 C2321 0.959 . S
H2328 C2321 0.981 . S
H2329 C2321 0.960 . S
H2330 C2322 0.930 1_554 S
H2331 C2323 0.929 . S
H2332 C2340 0.929 . S
H2333 C2342 0.930 . S
H2334 C2344 0.930 . S
H2335 C2347 0.929 . S
H2336 C2350 0.930 . S
H2337 C2352 0.960 . S
H2338 C2352 0.960 . S
H2339 C2352 0.960 . S
C2340 H2332 0.929 . S
C2340 C2341 1.377 . S
C2340 C2342 1.384 . S
C2341 C2340 1.377 . S
C2341 C2347 1.390 . S
C2342 H2333 0.930 . S
C2342 C2340 1.384 . S
C2342 C2343 1.372 . S
C2343 C2342 1.372 . S
C2343 C2344 1.400 . S
C2343 C2348 1.490 . S
C2344 H2334 0.930 . S
C2344 C2343 1.400 . S
C2344 C2347 1.386 . S
H2345 C2361 0.930 . S
H2346 C2362 0.931 . S
C2347 H2335 0.929 . S
C2347 C2341 1.390 . S
C2347 C2344 1.386 . S
C2348 C2343 1.490 . S
C2348 C2350 1.395 . S
C2348 C2351 1.403 . S
H2349 C2355 0.930 . S
C2350 H2336 0.930 . S
C2350 C2348 1.395 . S
C2350 C2353 1.403 . S
C2351 C2348 1.403 . S
C2351 C2352 1.524 . S
C2351 C2355 1.400 . S
C2352 H2337 0.960 . S
C2352 H2338 0.960 . S
C2352 H2339 0.960 . S
C2352 C2351 1.524 . S
C2353 C2350 1.403 . S
C2353 C2354 1.392 . S
C2353 C2357 1.495 . S
C2354 C2353 1.392 . S
C2354 C2355 1.385 . S
C2354 C2356 1.478 . S
C2355 H2349 0.930 . S
C2355 C2351 1.400 . S
C2355 C2354 1.385 . S
C2356 C2354 1.478 . S
C2356 C2358 1.381 . S
C2356 C2362 1.383 1_565 S
C2357 C2353 1.495 . S
C2357 H2363 0.959 . S
C2357 H2364 0.961 . S
C2357 H2365 0.960 . S
C2358 C2356 1.381 . S
C2358 C2359 1.394 . S
C2358 H2366 0.930 . S
C2359 C2358 1.394 . S
C2359 C2360 1.383 1_565 S
C2359 H2367 0.929 . S
C2360 C2359 1.383 1_545 S
C2360 C2361 1.377 . S
C2361 H2345 0.930 . S
C2361 C2360 1.377 . S
C2361 C2362 1.379 . S
C2362 H2346 0.931 . S
C2362 C2356 1.383 1_545 S
C2362 C2361 1.379 . S
H2363 C2357 0.959 . S
H2364 C2357 0.961 . S
H2365 C2357 0.960 . S
H2366 C2358 0.930 . S
H2367 C2359 0.929 . S
C649 C2 2.399 . S
C668 C402 2.397 . S
C685 C42 2.397 . S
C704 C442 2.386 . S
C721 C82 2.399 . S
C740 C322 2.403 . S
C757 C362 2.399 . S
C776 C122 2.398 . S
C793 C175 2.398 . S
C812 C575 2.380 . S
C829 C615 2.398 . S
C848 C215 2.380 . S
C865 C495 2.397 . S
C884 C255 2.405 . S
C901 C295 2.397 . S
C920 C535 2.382 . S
C937 C26 0.745 . S
C956 C169 0.682 . S
C973 C66 0.735 . S
C992 C529 0.673 . S
C1009 C106 0.759 . S
C1028 C249 0.783 . S
C1045 C146 0.737 . S
C1064 C609 0.672 . S
C1081 C209 0.737 . S
C1100 C386 0.672 . S
C1117 C466 0.738 . S
C1136 C289 0.788 . S
C1153 C489 0.757 . S
C1172 C346 0.803 . S
C1189 C426 0.746 . S
C1208 C569 0.810 . S
C1225 C9 0.787 . S
C1244 C282 0.809 . S
C1261 C49 0.787 . S
C1280 C482 0.809 . S
C1297 C89 0.767 . S
C1316 C202 0.819 . S
C1333 C129 0.766 . S
C1352 C562 0.818 . S
C1369 C135 0.794 . S
C1388 C186 0.742 . S
C1405 C226 0.769 . S
C1424 C335 0.778 . S
C1441 C266 0.768 . S
C1460 C55 0.771 . S
C1477 C415 0.794 . S
C1496 C306 0.743 . S
C1513 C329 0.780 . S
C1532 C602 0.817 1_565 S
C1549 C162 0.792 . S
C1568 C369 0.783 . S
C1585 C522 0.797 1_545 S
C1604 C409 0.831 . S
C1621 C242 0.800 . S
C1640 C449 0.784 . S
C1657 C506 0.794 . S
C1676 C455 0.814 1_545 S
C1693 C546 0.771 . S
C1712 C15 0.783 . S
C1729 C375 0.796 1_565 S
C1748 C586 0.772 . S
C1765 C626 0.768 . S
C1784 C95 0.777 . S
C1801 C3 4.108 . S
C1820 C382 4.058 . S
C1837 C422 4.055 . S
C1856 C43 4.110 . S
C1873 C83 4.109 . S
C1892 C462 4.046 . S
C1909 C342 4.055 . S
C1928 C123 4.100 . S
C1945 C523 4.054 . S
C1964 C182 4.098 . S
C1981 C563 4.055 . S
C2000 C222 4.110 . S
C2017 C603 4.055 . S
C2036 C262 4.110 . S
C2053 C483 4.056 . S
C2072 C302 4.109 . S
C2089 C62 4.054 . S
C2108 C323 4.097 . S
C2125 C102 4.054 . S
C2144 C363 4.110 . S
C2161 C142 4.052 . S
C2180 C403 4.105 . S
C2197 C443 4.110 . S
C2216 C22 4.053 . S
C2233 C203 4.051 . S
C2252 C502 4.101 . S
C2269 C243 4.052 . S
C2288 C542 4.104 . S
C2305 C283 4.052 . S
C2324 C582 4.095 . S
C2341 C163 4.054 . S
C2360 C622 4.099 . S
