# Generated by pormake.
# Topology umu, (4)-cn, num edge types: 1
# Building blocks:
#     Node 0, Type 0, BuildingBlock: CEKHIL_clean_sbu_0, # of connection points: 4
#     Node 1, Type 0, BuildingBlock: CEKHIL_clean_sbu_0, # of connection points: 4
#     Node 2, Type 0, BuildingBlock: CEKHIL_clean_sbu_0, # of connection points: 4
#     Node 3, Type 0, BuildingBlock: CEKHIL_clean_sbu_0, # of connection points: 4
#     Node 4, Type 0, BuildingBlock: CEKHIL_clean_sbu_0, # of connection points: 4
#     Node 5, Type 0, BuildingBlock: CEKHIL_clean_sbu_0, # of connection points: 4
#     Node 6, Type 0, BuildingBlock: CEKHIL_clean_sbu_0, # of connection points: 4
#     Node 7, Type 0, BuildingBlock: CEKHIL_clean_sbu_0, # of connection points: 4
#     Node 8, Type 0, BuildingBlock: CEKHIL_clean_sbu_0, # of connection points: 4
#     Node 9, Type 0, BuildingBlock: CEKHIL_clean_sbu_0, # of connection points: 4
#     Node 10, Type 0, BuildingBlock: CEKHIL_clean_sbu_0, # of connection points: 4
#     Node 11, Type 0, BuildingBlock: CEKHIL_clean_sbu_0, # of connection points: 4
#     Node 12, Type 0, BuildingBlock: CEKHIL_clean_sbu_0, # of connection points: 4
#     Node 13, Type 0, BuildingBlock: CEKHIL_clean_sbu_0, # of connection points: 4
#     Node 14, Type 0, BuildingBlock: CEKHIL_clean_sbu_0, # of connection points: 4
#     Node 15, Type 0, BuildingBlock: CEKHIL_clean_sbu_0, # of connection points: 4
#     Node 16, Type 0, BuildingBlock: CEKHIL_clean_sbu_0, # of connection points: 4
#     Node 17, Type 0, BuildingBlock: CEKHIL_clean_sbu_0, # of connection points: 4
#     Node 18, Type 0, BuildingBlock: CEKHIL_clean_sbu_0, # of connection points: 4
#     Node 19, Type 0, BuildingBlock: CEKHIL_clean_sbu_0, # of connection points: 4
#     Node 20, Type 0, BuildingBlock: CEKHIL_clean_sbu_0, # of connection points: 4
#     Node 21, Type 0, BuildingBlock: CEKHIL_clean_sbu_0, # of connection points: 4
#     Node 22, Type 0, BuildingBlock: CEKHIL_clean_sbu_0, # of connection points: 4
#     Node 23, Type 0, BuildingBlock: CEKHIL_clean_sbu_0, # of connection points: 4
#     Node 24, Type 0, BuildingBlock: CEKHIL_clean_sbu_0, # of connection points: 4
#     Node 25, Type 0, BuildingBlock: CEKHIL_clean_sbu_0, # of connection points: 4
#     Node 26, Type 0, BuildingBlock: CEKHIL_clean_sbu_0, # of connection points: 4
#     Node 27, Type 0, BuildingBlock: CEKHIL_clean_sbu_0, # of connection points: 4
#     Node 28, Type 0, BuildingBlock: CEKHIL_clean_sbu_0, # of connection points: 4
#     Node 29, Type 0, BuildingBlock: CEKHIL_clean_sbu_0, # of connection points: 4
#     Node 30, Type 0, BuildingBlock: CEKHIL_clean_sbu_0, # of connection points: 4
#     Node 31, Type 0, BuildingBlock: CEKHIL_clean_sbu_0, # of connection points: 4
#     Edge 32, Type (0, 0), None
#     Edge 33, Type (0, 0), None
#     Edge 34, Type (0, 0), None
#     Edge 35, Type (0, 0), None
#     Edge 36, Type (0, 0), None
#     Edge 37, Type (0, 0), None
#     Edge 38, Type (0, 0), None
#     Edge 39, Type (0, 0), None
#     Edge 40, Type (0, 0), None
#     Edge 41, Type (0, 0), None
#     Edge 42, Type (0, 0), None
#     Edge 43, Type (0, 0), None
#     Edge 44, Type (0, 0), None
#     Edge 45, Type (0, 0), None
#     Edge 46, Type (0, 0), None
#     Edge 47, Type (0, 0), None
#     Edge 48, Type (0, 0), None
#     Edge 49, Type (0, 0), None
#     Edge 50, Type (0, 0), None
#     Edge 51, Type (0, 0), None
#     Edge 52, Type (0, 0), None
#     Edge 53, Type (0, 0), None
#     Edge 54, Type (0, 0), None
#     Edge 55, Type (0, 0), None
#     Edge 56, Type (0, 0), None
#     Edge 57, Type (0, 0), None
#     Edge 58, Type (0, 0), None
#     Edge 59, Type (0, 0), None
#     Edge 60, Type (0, 0), None
#     Edge 61, Type (0, 0), None
#     Edge 62, Type (0, 0), None
#     Edge 63, Type (0, 0), None
#     Edge 64, Type (0, 0), None
#     Edge 65, Type (0, 0), None
#     Edge 66, Type (0, 0), None
#     Edge 67, Type (0, 0), None
#     Edge 68, Type (0, 0), None
#     Edge 69, Type (0, 0), None
#     Edge 70, Type (0, 0), None
#     Edge 71, Type (0, 0), None
#     Edge 72, Type (0, 0), None
#     Edge 73, Type (0, 0), None
#     Edge 74, Type (0, 0), None
#     Edge 75, Type (0, 0), None
#     Edge 76, Type (0, 0), None
#     Edge 77, Type (0, 0), None
#     Edge 78, Type (0, 0), None
#     Edge 79, Type (0, 0), None
#     Edge 80, Type (0, 0), None
#     Edge 81, Type (0, 0), None
#     Edge 82, Type (0, 0), None
#     Edge 83, Type (0, 0), None
#     Edge 84, Type (0, 0), None
#     Edge 85, Type (0, 0), None
#     Edge 86, Type (0, 0), None
#     Edge 87, Type (0, 0), None
#     Edge 88, Type (0, 0), None
#     Edge 89, Type (0, 0), None
#     Edge 90, Type (0, 0), None
#     Edge 91, Type (0, 0), None
#     Edge 92, Type (0, 0), None
#     Edge 93, Type (0, 0), None
#     Edge 94, Type (0, 0), None
#     Edge 95, Type (0, 0), None
# Relax obj value: 0.120
# Max RMSD: 0.095
# Mean RMSD: 0.095
data_MOF--net-umu--node1-CEKHIL_clean_sbu_0--edge1-none
_symmetry_space_group_name_H-M    P1
_symmetry_Int_Tables_number       1
_symmetry_cell_setting            triclinic
loop_
_symmetry_equiv_pos_as_xyz
'x, y, z'
_cell_length_a     33.774402
_cell_length_b     33.77401
_cell_length_c     11.374947
_cell_angle_alpha  89.979686
_cell_angle_beta   90.008793
_cell_angle_gamma 90.000003
loop_
_atom_site_label
_atom_site_type_symbol
_atom_site_fract_x
_atom_site_fract_y
_atom_site_fract_z
_atom_type_partial_charge
Co0 Co 0.26335 0.21619 0.08952 0.0
O1 O 0.2507 0.16454 0.02703 0.0
O2 O 0.20922 0.2149 0.02368 0.0
C3 C 0.29727 0.19743 0.25739 0.0
O4 O 0.26941 0.27462 0.13758 0.0
Co5 Co 0.35514 0.23342 0.09754 0.0
O6 O 0.33425 0.27995 0.18375 0.0
C7 C 0.31118 0.23146 0.87496 0.0
C8 C 0.21827 0.17957 0.98526 0.0
C9 C 0.29963 0.29486 0.17322 0.0
O10 O 0.27878 0.23205 0.93042 0.0
O11 O 0.34521 0.22828 0.92394 0.0
O12 O 0.25866 0.19934 0.25738 0.0
O13 O 0.31244 0.20147 0.15499 0.0
Co14 Co 0.16036 1.02053 0.33961 0.0
O15 O 0.21202 1.00788 0.27711 0.0
O16 O 0.16165 0.9664 0.27384 0.0
C17 C 0.17912 1.05445 0.50743 0.0
O18 O 0.10192 1.02658 0.38768 0.0
Co19 Co 0.14312 0.11232 0.34752 0.0
O20 O 0.09658 0.09143 0.43372 0.0
C21 C 0.14508 0.06836 0.12499 0.0
C22 C 0.19698 0.97545 0.23539 0.0
C23 C 0.08168 1.0568 0.42325 0.0
O24 O 0.1445 1.03596 0.1805 0.0
O25 O 0.14826 0.10239 0.17392 0.0
O26 O 0.17721 1.01585 0.50748 0.0
O27 O 0.17507 0.06962 0.40501 0.0
Co28 Co 0.35601 0.91754 0.58968 0.0
O29 O 0.36867 0.9692 0.52717 0.0
O30 O 0.41014 0.91883 0.52391 0.0
C31 C 0.32209 0.93629 0.75749 0.0
O32 O 0.34996 0.8591 0.63774 0.0
Co33 Co 0.26422 0.90031 0.59763 0.0
O34 O 0.2851 0.85373 0.68372 0.0
C35 C 0.30818 0.90227 0.37508 0.0
C36 C 0.4011 0.95416 0.48545 0.0
C37 C 0.31974 0.83883 0.67325 0.0
O38 O 0.34058 0.9017 0.43057 0.0
O39 O 0.27415 0.90544 0.42402 0.0
O40 O 0.36069 0.93436 0.75753 0.0
O41 O 0.30692 0.93225 0.65508 0.0
Co42 Co 0.45901 0.11319 0.83959 0.0
O43 O 0.40736 0.12585 0.77709 0.0
O44 O 0.45773 0.16733 0.77375 0.0
C45 C 0.44026 0.07928 0.00745 0.0
O46 O 0.51745 0.10714 0.88765 0.0
Co47 Co 0.47624 1.0214 0.84766 0.0
O48 O 0.52281 1.04228 0.93377 0.0
C49 C 0.47427 0.06537 0.62505 0.0
C50 C 0.42239 0.15828 0.73532 0.0
C51 C 0.53771 0.07691 0.92324 0.0
O52 O 0.47485 0.09777 0.6805 0.0
O53 O 0.47111 1.03134 0.67404 0.0
O54 O 0.44219 0.11788 0.00743 0.0
O55 O 0.4443 0.0641 0.90507 0.0
Co56 Co 0.26339 0.91748 0.03423 0.0
O57 O 0.25078 0.96912 0.09686 0.0
O58 O 0.20927 0.91878 0.10007 0.0
C59 C 0.29731 0.93626 0.86641 0.0
O60 O 0.26942 0.85906 0.98601 0.0
Co61 Co 0.3552 0.90026 0.02627 0.0
O62 O 0.33431 0.85365 0.9404 0.0
C63 C 0.31123 0.90224 0.24878 0.0
C64 C 0.21835 0.95409 0.1386 0.0
C65 C 0.29965 0.83879 0.95061 0.0
O66 O 0.27883 0.90155 0.19328 0.0
O67 O 0.34525 0.9055 0.19983 0.0
O68 O 0.2587 0.93438 0.8664 0.0
O69 O 0.31248 0.93219 0.9688 0.0
Co70 Co 0.45908 1.02058 0.28425 0.0
O71 O 0.40743 1.00796 0.34689 0.0
O72 O 0.45778 0.96646 0.35014 0.0
C73 C 0.4403 1.0545 0.1164 0.0
O74 O 0.5175 1.02661 0.23604 0.0
Co75 Co 0.47629 0.11239 0.27617 0.0
O76 O 0.52292 0.09151 0.19038 0.0
C77 C 0.4743 0.06841 0.49875 0.0
C78 C 0.42247 0.97553 0.38865 0.0
C79 C 0.53777 1.05685 0.20063 0.0
O80 O 0.47499 1.03602 0.44329 0.0
O81 O 0.47105 0.10244 0.44975 0.0
O82 O 0.44219 1.01589 0.11644 0.0
O83 O 0.44436 0.06967 0.21877 0.0
Co84 Co 0.35596 0.21626 0.53414 0.0
O85 O 0.36859 0.16461 0.59679 0.0
O86 O 0.41009 0.21497 0.59998 0.0
C87 C 0.32205 0.19749 0.36632 0.0
O88 O 0.34993 0.27469 0.48592 0.0
Co89 Co 0.26416 0.23347 0.5261 0.0
O90 O 0.28503 0.28013 0.4404 0.0
C91 C 0.30813 0.23148 0.74865 0.0
C92 C 0.40102 0.17965 0.63851 0.0
C93 C 0.3197 0.29498 0.4506 0.0
O94 O 0.34053 0.23215 0.69318 0.0
O95 O 0.27411 0.22824 0.69968 0.0
O96 O 0.36065 0.19939 0.36633 0.0
O97 O 0.30687 0.20155 0.4687 0.0
Co98 Co 0.16029 0.11315 0.78412 0.0
O99 O 0.21194 0.12577 0.84677 0.0
O100 O 0.16159 0.16728 0.84991 0.0
C101 C 0.17907 0.07923 0.61634 0.0
O102 O 0.10187 0.10713 0.7359 0.0
Co103 Co 0.14308 1.02135 0.7762 0.0
O104 O 0.09643 1.04223 0.69043 0.0
C105 C 0.14506 0.06532 -0.00131 0.0
C106 C 0.19691 0.1582 0.88846 0.0
C107 C 0.08158 0.07689 0.70059 0.0
O108 O 0.14439 0.09771 0.94318 0.0
O109 O 0.1483 1.0313 0.94977 0.0
O110 O 0.17718 0.11784 0.6163 0.0
O111 O 0.175 0.06406 0.71874 0.0
Co112 Co 0.85602 0.91754 0.03418 0.0
O113 O 0.86867 0.96919 0.09668 0.0
O114 O 0.91015 0.91883 0.10002 0.0
C115 C 0.8221 0.9363 0.86631 0.0
O116 O 0.84996 0.85911 0.98612 0.0
Co117 Co 0.76422 0.90031 0.02616 0.0
O118 O 0.78511 0.85378 0.93995 0.0
C119 C 0.80819 0.90227 0.24874 0.0
C120 C 0.90109 0.95416 0.13845 0.0
C121 C 0.81974 0.83887 0.95048 0.0
O122 O 0.84058 0.90168 0.19328 0.0
O123 O 0.77416 0.90545 0.19976 0.0
O124 O 0.8607 0.93439 0.86632 0.0
O125 O 0.80693 0.93226 0.96871 0.0
Co126 Co 0.95901 0.1132 0.7841 0.0
O127 O 0.90735 0.12585 0.84659 0.0
O128 O 0.95771 0.16733 0.84987 0.0
C129 C 0.94025 0.07928 0.61628 0.0
O130 O 1.01745 0.10715 0.73605 0.0
Co131 Co 0.97626 1.02141 0.77618 0.0
O132 O 1.02278 1.04231 0.68989 0.0
C133 C 0.9743 0.06537 -0.00129 0.0
C134 C 0.92239 0.15828 0.88831 0.0
C135 C 1.03768 0.07694 0.70038 0.0
O136 O 0.97487 0.09777 0.94321 0.0
O137 O 0.97113 1.03134 0.94978 0.0
O138 O 0.94217 0.11788 0.61623 0.0
O139 O 0.9443 0.06411 0.7187 0.0
Co140 Co 0.76335 0.21619 0.53402 0.0
O141 O 0.7507 0.16453 0.59654 0.0
O142 O 0.70922 0.21491 0.59979 0.0
C143 C 0.79728 0.19744 0.36621 0.0
O144 O 0.76941 0.27463 0.48596 0.0
Co145 Co 0.85515 0.23342 0.52607 0.0
O146 O 0.83426 0.28001 0.43998 0.0
C147 C 0.81118 0.23146 0.74862 0.0
C148 C 0.71827 0.17957 0.63825 0.0
C149 C 0.79963 0.2949 0.45045 0.0
O150 O 0.77878 0.23203 0.69313 0.0
O151 O 0.84521 0.22829 0.69968 0.0
O152 O 0.75867 0.19937 0.36618 0.0
O153 O 0.81245 0.20148 0.46862 0.0
Co154 Co 0.66035 1.02054 0.28412 0.0
O155 O 0.71201 1.00788 0.34661 0.0
O156 O 0.66164 0.96641 0.34996 0.0
C157 C 0.6791 1.05446 0.11625 0.0
O158 O 0.60191 1.02659 0.23608 0.0
Co159 Co 0.64311 0.11233 0.27603 0.0
O160 O 0.59656 0.09144 0.18984 0.0
C161 C 0.64508 0.06836 0.49865 0.0
C162 C 0.69697 0.97545 0.38838 0.0
C163 C 0.58167 1.05681 0.20039 0.0
O164 O 0.64452 1.03596 0.44321 0.0
O165 O 0.64824 0.1024 0.44966 0.0
O166 O 0.67717 1.01585 0.11627 0.0
O167 O 0.67506 0.06963 0.21864 0.0
Co168 Co 0.85597 0.21626 0.08947 0.0
O169 O 0.86859 0.16461 0.02683 0.0
O170 O 0.9101 0.21495 0.02363 0.0
C171 C 0.82206 0.19747 0.25729 0.0
O172 O 0.84995 0.27468 0.13769 0.0
Co173 Co 0.76417 0.23347 0.09743 0.0
O174 O 0.78506 0.28008 0.18329 0.0
C175 C 0.80814 0.23149 0.87492 0.0
C176 C 0.90102 0.17964 0.9851 0.0
C177 C 0.81971 0.29494 0.17309 0.0
O178 O 0.84053 0.23218 0.93042 0.0
O179 O 0.77412 0.22824 0.92387 0.0
O180 O 0.86066 0.19935 0.2573 0.0
O181 O 0.80688 0.20154 0.1549 0.0
Co182 Co 0.66029 0.11315 0.83945 0.0
O183 O 0.71193 0.12577 0.77682 0.0
O184 O 0.66159 0.16728 0.77356 0.0
C185 C 0.67906 0.07924 0.0073 0.0
O186 O 0.60186 0.10712 0.88764 0.0
Co187 Co 0.64306 1.02135 0.84754 0.0
O188 O 0.59646 1.04223 0.93343 0.0
C189 C 0.64505 0.06532 0.62496 0.0
C190 C 0.6969 0.1582 0.73506 0.0
C191 C 0.5816 0.07689 0.92316 0.0
O192 O 0.64438 0.09772 0.68041 0.0
O193 O 0.64829 1.0313 0.67396 0.0
O194 O 0.67717 0.11784 0.00726 0.0
O195 O 0.675 0.06406 0.90493 0.0
Co196 Co 0.7634 0.91747 0.58956 0.0
O197 O 0.75077 0.96912 0.52691 0.0
O198 O 0.70928 0.91876 0.52372 0.0
C199 C 0.79732 0.93624 0.75738 0.0
O200 O 0.76943 0.85904 0.63778 0.0
Co201 Co 0.85521 0.90026 0.5976 0.0
O202 O 0.83433 0.8536 0.6833 0.0
C203 C 0.81123 0.90225 0.37505 0.0
C204 C 0.71835 0.95408 0.48519 0.0
C205 C 0.79967 0.83875 0.6731 0.0
O206 O 0.77884 0.90158 0.43052 0.0
O207 O 0.84526 0.90549 0.42402 0.0
O208 O 0.75871 0.93434 0.75737 0.0
O209 O 0.81249 0.93219 0.655 0.0
Co210 Co 0.95908 1.02058 0.33958 0.0
O211 O 0.90743 1.00795 0.27694 0.0
O212 O 0.95777 0.96645 0.27379 0.0
C213 C 0.9403 1.0545 0.50737 0.0
O214 O 1.01751 1.0266 0.38778 0.0
Co215 Co 0.97631 0.11238 0.34752 0.0
O216 O 1.02293 0.09149 0.43338 0.0
C217 C 0.97432 0.06841 0.12501 0.0
C218 C 0.92246 0.97553 0.23524 0.0
C219 C 1.03778 1.05683 0.4232 0.0
O220 O 0.97498 1.03601 0.18052 0.0
O221 O 0.97109 0.10243 0.17395 0.0
O222 O 0.94219 1.01589 0.50741 0.0
O223 O 0.94437 0.06967 0.40497 0.0
Co224 Co 0.76335 0.71619 0.58951 0.0
O225 O 0.7507 0.66454 0.52703 0.0
O226 O 0.70922 0.7149 0.52367 0.0
C227 C 0.79727 0.69743 0.75738 0.0
O228 O 0.76941 0.77463 0.63755 0.0
Co229 Co 0.85514 0.73344 0.59754 0.0
O230 O 0.83425 0.77995 0.68385 0.0
C231 C 0.81118 0.73147 0.37495 0.0
C232 C 0.71827 0.67957 0.48526 0.0
C233 C 0.79962 0.79485 0.6733 0.0
O234 O 0.77878 0.73205 0.43041 0.0
O235 O 0.84521 0.72831 0.42394 0.0
O236 O 0.75867 0.69935 0.75737 0.0
O237 O 0.81244 0.70148 0.65498 0.0
Co238 Co 0.66036 0.52053 0.83961 0.0
O239 O 0.71202 0.50788 0.7771 0.0
O240 O 0.66165 0.4664 0.77384 0.0
C241 C 0.67912 0.55445 0.00743 0.0
O242 O 0.60192 0.52658 0.88767 0.0
Co243 Co 0.64312 0.61232 0.84751 0.0
O244 O 0.59658 0.59143 0.93372 0.0
C245 C 0.64508 0.56836 0.62499 0.0
C246 C 0.69698 0.47545 0.73538 0.0
C247 C 0.58168 0.5568 0.92324 0.0
O248 O 0.6445 0.53596 0.6805 0.0
O249 O 0.64826 0.60239 0.67392 0.0
O250 O 0.67721 0.51585 0.00747 0.0
O251 O 0.67507 0.56962 0.90501 0.0
Co252 Co 0.85602 0.41754 0.08967 0.0
O253 O 0.86867 0.4692 0.02717 0.0
O254 O 0.91015 0.41883 0.02391 0.0
C255 C 0.82209 0.43629 0.25749 0.0
O256 O 0.84996 0.35909 0.13772 0.0
Co257 Co 0.76423 0.40029 0.09764 0.0
O258 O 0.78512 0.35373 0.18383 0.0
C259 C 0.80819 0.40226 0.87509 0.0
C260 C 0.9011 0.45416 0.98546 0.0
C261 C 0.81975 0.33884 0.17334 0.0
O262 O 0.84059 0.4017 0.93057 0.0
O263 O 0.77416 0.40541 0.92403 0.0
O264 O 0.8607 0.43436 0.25753 0.0
O265 O 0.80692 0.43225 0.15508 0.0
Co266 Co 0.95901 0.61319 0.33958 0.0
O267 O 0.90736 0.62585 0.27708 0.0
O268 O 0.95773 0.66733 0.27375 0.0
C269 C 0.94026 0.57928 0.50745 0.0
O270 O 1.01745 0.60714 0.38765 0.0
Co271 Co 0.97624 0.5214 0.34766 0.0
O272 O 1.02281 0.54228 0.43376 0.0
C273 C 0.97427 0.56537 0.12505 0.0
C274 C 0.9224 0.65828 0.23532 0.0
C275 C 1.03771 0.57691 0.42324 0.0
O276 O 0.97485 0.59777 0.1805 0.0
O277 O 0.97111 0.53134 0.17404 0.0
O278 O 0.94219 0.61788 0.50743 0.0
O279 O 0.9443 0.5641 0.40506 0.0
Co280 Co 0.76339 0.41747 0.53423 0.0
O281 O 0.75078 0.46912 0.59686 0.0
O282 O 0.70927 0.41878 0.60007 0.0
C283 C 0.79731 0.43625 0.36641 0.0
O284 O 0.76942 0.35905 0.48604 0.0
Co285 Co 0.8552 0.40025 0.52626 0.0
O286 O 0.83431 0.35365 0.44031 0.0
C287 C 0.81123 0.40223 0.74878 0.0
C288 C 0.71835 0.45409 0.63859 0.0
C289 C 0.79965 0.3388 0.45054 0.0
O290 O 0.77883 0.40155 0.69329 0.0
O291 O 0.84525 0.40547 0.69983 0.0
O292 O 0.7587 0.43437 0.3664 0.0
O293 O 0.81249 0.43218 0.46881 0.0
Co294 Co 0.95908 0.52058 0.78425 0.0
O295 O 0.90744 0.50796 0.84689 0.0
O296 O 0.95778 0.46646 0.85014 0.0
C297 C 0.9403 0.5545 0.6164 0.0
O298 O 1.0175 0.52662 0.73603 0.0
Co299 Co 0.97629 0.61239 0.77617 0.0
O300 O 1.02292 0.59151 0.69038 0.0
C301 C 0.9743 0.56841 -0.00126 0.0
C302 C 0.92247 0.47553 0.88865 0.0
C303 C 1.03777 0.55685 0.70062 0.0
O304 O 0.97499 0.53602 0.94329 0.0
O305 O 0.97105 0.60244 0.94975 0.0
O306 O 0.94219 0.51589 0.61644 0.0
O307 O 0.94436 0.56967 0.71877 0.0
Co308 Co 0.85597 0.71627 0.03414 0.0
O309 O 0.8686 0.66461 0.09678 0.0
O310 O 0.91009 0.71497 0.09998 0.0
C311 C 0.82205 0.69749 0.86632 0.0
O312 O 0.84994 0.7747 0.98594 0.0
Co313 Co 0.76416 0.73348 0.02608 0.0
O314 O 0.78504 0.78013 0.94029 0.0
C315 C 0.80814 0.7315 0.24865 0.0
C316 C 0.90102 0.67965 0.13851 0.0
C317 C 0.81971 0.79497 0.95051 0.0
O318 O 0.84053 0.73215 0.19318 0.0
O319 O 0.77411 0.72827 0.19967 0.0
O320 O 0.86065 0.69939 0.86633 0.0
O321 O 0.80688 0.70155 0.9687 0.0
Co322 Co 0.66029 0.61315 0.28412 0.0
O323 O 0.71194 0.62577 0.34677 0.0
O324 O 0.66159 0.66728 0.34991 0.0
C325 C 0.67907 0.57923 0.11633 0.0
O326 O 0.60187 0.60713 0.2359 0.0
Co327 Co 0.64308 0.52135 0.2762 0.0
O328 O 0.59643 0.54223 0.19042 0.0
C329 C 0.64506 0.56532 0.49869 0.0
C330 C 0.69691 0.6582 0.38846 0.0
C331 C 0.58158 0.57689 0.20059 0.0
O332 O 0.64439 0.59771 0.44317 0.0
O333 O 0.6483 0.5313 0.44976 0.0
O334 O 0.67718 0.61784 0.11629 0.0
O335 O 0.675 0.56406 0.21873 0.0
Co336 Co 0.35602 0.41754 0.53419 0.0
O337 O 0.36867 0.46919 0.59667 0.0
O338 O 0.41015 0.41883 0.60003 0.0
C339 C 0.3221 0.4363 0.36632 0.0
O340 O 0.34996 0.3591 0.48614 0.0
Co341 Co 0.26423 0.4003 0.52615 0.0
O342 O 0.28512 0.35378 0.43985 0.0
C343 C 0.30819 0.40226 0.74874 0.0
C344 C 0.40109 0.45416 0.63844 0.0
C345 C 0.31975 0.33888 0.4504 0.0
O346 O 0.34059 0.40168 0.69329 0.0
O347 O 0.27416 0.40543 0.69976 0.0
O348 O 0.3607 0.43438 0.36633 0.0
O349 O 0.30693 0.43225 0.46871 0.0
Co350 Co 0.45901 0.6132 0.28409 0.0
O351 O 0.40735 0.62585 0.34659 0.0
O352 O 0.45771 0.66733 0.34986 0.0
C353 C 0.44025 0.57928 0.11627 0.0
O354 O 0.51745 0.60715 0.23605 0.0
Co355 Co 0.47626 0.52141 0.27618 0.0
O356 O 0.52278 0.54231 0.18988 0.0
C357 C 0.4743 0.56537 0.49871 0.0
C358 C 0.42239 0.65828 0.38831 0.0
C359 C 0.53768 0.57694 0.20037 0.0
O360 O 0.47487 0.59777 0.44321 0.0
O361 O 0.47113 0.53134 0.44977 0.0
O362 O 0.44217 0.61788 0.11623 0.0
O363 O 0.4443 0.56411 0.21869 0.0
Co364 Co 0.26335 0.7162 0.03402 0.0
O365 O 0.25069 0.66454 0.09653 0.0
O366 O 0.20922 0.71491 0.09979 0.0
C367 C 0.29727 0.69744 0.86621 0.0
O368 O 0.2694 0.77464 0.98597 0.0
Co369 Co 0.35514 0.73344 0.02605 0.0
O370 O 0.33425 0.78 0.93987 0.0
C371 C 0.31118 0.73147 0.24861 0.0
C372 C 0.21827 0.67957 0.13824 0.0
C373 C 0.29962 0.79489 0.95035 0.0
O374 O 0.27878 0.73203 0.19313 0.0
O375 O 0.34521 0.72832 0.19966 0.0
O376 O 0.25867 0.69937 0.86617 0.0
O377 O 0.31245 0.70148 0.96861 0.0
Co378 Co 0.16035 0.52054 0.78412 0.0
O379 O 0.21201 0.50788 0.84661 0.0
O380 O 0.16164 0.46641 0.84995 0.0
C381 C 0.1791 0.55446 0.61625 0.0
O382 O 0.10191 0.52659 0.73607 0.0
Co383 Co 0.14311 0.61233 0.77603 0.0
O384 O 0.09656 0.59144 0.68984 0.0
C385 C 0.14508 0.56836 -0.00135 0.0
C386 C 0.19697 0.47545 0.88838 0.0
C387 C 0.08167 0.55681 0.70038 0.0
O388 O 0.14451 0.53597 0.94321 0.0
O389 O 0.14824 0.6024 0.94965 0.0
O390 O 0.17717 0.51585 0.61627 0.0
O391 O 0.17506 0.56963 0.71864 0.0
Co392 Co 0.35597 0.71626 0.58946 0.0
O393 O 0.36859 0.66461 0.52684 0.0
O394 O 0.4101 0.71495 0.52362 0.0
C395 C 0.32206 0.69748 0.75729 0.0
O396 O 0.34995 0.77468 0.63766 0.0
Co397 Co 0.26417 0.73349 0.59744 0.0
O398 O 0.28506 0.78008 0.68339 0.0
C399 C 0.30814 0.73151 0.37491 0.0
C400 C 0.40102 0.67964 0.4851 0.0
C401 C 0.31972 0.79493 0.67316 0.0
O402 O 0.34053 0.73218 0.4304 0.0
O403 O 0.27412 0.72826 0.42387 0.0
O404 O 0.36066 0.69936 0.7573 0.0
O405 O 0.30688 0.70155 0.65489 0.0
Co406 Co 0.16029 0.61315 0.33944 0.0
O407 O 0.21193 0.62577 0.27682 0.0
O408 O 0.16159 0.66728 0.27355 0.0
C409 C 0.17906 0.57924 0.5073 0.0
O410 O 0.10186 0.60712 0.38764 0.0
Co411 Co 0.14307 0.52135 0.34754 0.0
O412 O 0.09646 0.54223 0.43342 0.0
C413 C 0.14505 0.56532 0.12496 0.0
C414 C 0.1969 0.6582 0.23505 0.0
C415 C 0.0816 0.57689 0.42316 0.0
O416 O 0.14438 0.59772 0.1804 0.0
O417 O 0.14829 0.5313 0.17396 0.0
O418 O 0.17717 0.61784 0.50726 0.0
O419 O 0.175 0.56406 0.40493 0.0
Co420 Co 0.2634 0.41747 0.08956 0.0
O421 O 0.25077 0.46912 0.02692 0.0
O422 O 0.20927 0.41876 0.02372 0.0
C423 C 0.29732 0.43624 0.25738 0.0
O424 O 0.26943 0.35904 0.13776 0.0
Co425 Co 0.3552 0.40025 0.09762 0.0
O426 O 0.33432 0.3536 0.18341 0.0
C427 C 0.31123 0.40223 0.87505 0.0
C428 C 0.21834 0.45408 0.98519 0.0
C429 C 0.29966 0.33876 0.17319 0.0
O430 O 0.27883 0.40158 0.93051 0.0
O431 O 0.34525 0.40546 0.92403 0.0
O432 O 0.25871 0.43434 0.25737 0.0
O433 O 0.31249 0.43218 0.155 0.0
Co434 Co 0.45908 0.52058 0.83958 0.0
O435 O 0.40743 0.50795 0.77694 0.0
O436 O 0.45777 0.46645 0.77379 0.0
C437 C 0.4403 0.5545 0.00736 0.0
O438 O 0.51751 0.5266 0.88778 0.0
Co439 Co 0.47631 0.61238 0.84751 0.0
O440 O 0.52293 0.59149 0.93338 0.0
C441 C 0.47432 0.56841 0.62501 0.0
C442 C 0.42246 0.47553 0.73524 0.0
C443 C 0.53778 0.55683 0.92319 0.0
O444 O 0.47498 0.53601 0.68052 0.0
O445 O 0.47109 0.60243 0.67394 0.0
O446 O 0.44219 0.51589 0.0074 0.0
O447 O 0.44437 0.56967 0.90496 0.0
loop_
_geom_bond_atom_site_label_1
_geom_bond_atom_site_label_2
_geom_bond_distance
_geom_bond_site_symmetry_2
_ccdc_geom_bond_type
Co0 O1 2.216 . S
Co0 O2 2.091 . S
Co0 O4 2.004 . S
Co0 O10 2.021 1_554 S
Co0 O12 2.137 . S
Co0 O13 2.244 . S
O1 Co0 2.216 . S
O1 C8 1.247 . S
O2 Co0 2.091 . S
O2 C8 1.261 . S
C3 O12 1.247 . S
C3 O13 1.272 . S
O4 Co0 2.004 . S
O4 C9 1.259 . S
Co5 O6 2.061 . S
Co5 O11 2.052 1_554 S
Co5 O13 2.135 . S
O6 Co5 2.061 . S
O6 C9 1.235 . S
C7 O10 1.238 . S
C7 O11 1.241 . S
C8 O1 1.247 . S
C8 O2 1.261 . S
C9 O4 1.259 . S
C9 O6 1.235 . S
O10 Co0 2.021 1_556 S
O10 C7 1.238 . S
O11 Co5 2.052 1_556 S
O11 C7 1.241 . S
O12 Co0 2.137 . S
O12 C3 1.247 . S
O13 Co0 2.244 . S
O13 C3 1.272 . S
O13 Co5 2.135 . S
Co14 O15 2.216 . S
Co14 O16 2.091 . S
Co14 O18 2.004 . S
Co14 O24 2.021 . S
Co14 O26 2.137 . S
Co14 O27 2.244 1_565 S
O15 Co14 2.216 . S
O15 C22 1.247 . S
O16 Co14 2.091 . S
O16 C22 1.261 . S
C17 O26 1.247 . S
C17 O27 1.272 1_565 S
O18 Co14 2.004 . S
O18 C23 1.259 . S
Co19 O20 2.061 . S
Co19 O25 2.052 . S
Co19 O27 2.135 . S
O20 Co19 2.061 . S
O20 C23 1.235 1_545 S
C21 O24 1.238 1_545 S
C21 O25 1.241 . S
C22 O15 1.247 . S
C22 O16 1.261 . S
C23 O18 1.259 . S
C23 O20 1.235 1_565 S
O24 Co14 2.021 . S
O24 C21 1.238 1_565 S
O25 Co19 2.052 . S
O25 C21 1.241 . S
O26 Co14 2.137 . S
O26 C17 1.247 . S
O27 Co14 2.244 1_545 S
O27 C17 1.272 1_545 S
O27 Co19 2.135 . S
Co28 O29 2.216 . S
Co28 O30 2.091 . S
Co28 O32 2.004 . S
Co28 O38 2.021 . S
Co28 O40 2.137 . S
Co28 O41 2.244 . S
O29 Co28 2.216 . S
O29 C36 1.247 . S
O30 Co28 2.091 . S
O30 C36 1.261 . S
C31 O40 1.247 . S
C31 O41 1.272 . S
O32 Co28 2.004 . S
O32 C37 1.259 . S
Co33 O34 2.061 . S
Co33 O39 2.052 . S
Co33 O41 2.135 . S
O34 Co33 2.061 . S
O34 C37 1.235 . S
C35 O38 1.238 . S
C35 O39 1.241 . S
C36 O29 1.247 . S
C36 O30 1.261 . S
C37 O32 1.259 . S
C37 O34 1.235 . S
O38 Co28 2.021 . S
O38 C35 1.238 . S
O39 Co33 2.052 . S
O39 C35 1.241 . S
O40 Co28 2.137 . S
O40 C31 1.247 . S
O41 Co28 2.244 . S
O41 C31 1.272 . S
O41 Co33 2.135 . S
Co42 O43 2.216 . S
Co42 O44 2.091 . S
Co42 O46 2.004 . S
Co42 O52 2.021 . S
Co42 O54 2.137 1_556 S
Co42 O55 2.244 . S
O43 Co42 2.216 . S
O43 C50 1.247 . S
O44 Co42 2.091 . S
O44 C50 1.261 . S
C45 O54 1.247 . S
C45 O55 1.272 1_554 S
O46 Co42 2.004 . S
O46 C51 1.259 . S
Co47 O48 2.061 1_565 S
Co47 O53 2.052 . S
Co47 O55 2.135 1_565 S
O48 Co47 2.061 1_545 S
O48 C51 1.235 . S
C49 O52 1.245 . S
C49 O53 1.235 1_545 S
C50 O43 1.247 . S
C50 O44 1.261 . S
C51 O46 1.259 . S
C51 O48 1.235 . S
O52 Co42 2.021 . S
O52 C49 1.245 . S
O53 Co47 2.052 . S
O53 C49 1.235 1_565 S
O54 Co42 2.137 1_554 S
O54 C45 1.247 . S
O55 Co42 2.244 . S
O55 C45 1.272 1_556 S
O55 Co47 2.135 1_545 S
Co56 O57 2.216 . S
Co56 O58 2.091 . S
Co56 O60 2.004 . S
Co56 O66 2.021 . S
Co56 O68 2.137 1_554 S
Co56 O69 2.244 1_554 S
O57 Co56 2.216 . S
O57 C64 1.247 . S
O58 Co56 2.091 . S
O58 C64 1.261 . S
C59 O68 1.247 . S
C59 O69 1.272 . S
O60 Co56 2.004 . S
O60 C65 1.259 . S
Co61 O62 2.061 . S
Co61 O67 2.052 . S
Co61 O69 2.135 1_554 S
O62 Co61 2.061 . S
O62 C65 1.235 . S
C63 O66 1.238 . S
C63 O67 1.241 . S
C64 O57 1.247 . S
C64 O58 1.261 . S
C65 O60 1.259 . S
C65 O62 1.235 . S
O66 Co56 2.021 . S
O66 C63 1.238 . S
O67 Co61 2.052 . S
O67 C63 1.241 . S
O68 Co56 2.137 1_556 S
O68 C59 1.247 . S
O69 Co56 2.244 1_556 S
O69 C59 1.272 . S
O69 Co61 2.135 1_556 S
Co70 O71 2.216 . S
Co70 O72 2.091 . S
Co70 O74 2.004 . S
Co70 O80 2.021 . S
Co70 O82 2.137 . S
Co70 O83 2.244 1_565 S
O71 Co70 2.216 . S
O71 C78 1.247 . S
O72 Co70 2.091 . S
O72 C78 1.261 . S
C73 O82 1.247 . S
C73 O83 1.272 1_565 S
O74 Co70 2.004 . S
O74 C79 1.259 . S
Co75 O76 2.061 . S
Co75 O81 2.052 . S
Co75 O83 2.135 . S
O76 Co75 2.061 . S
O76 C79 1.235 1_545 S
C77 O80 1.238 1_545 S
C77 O81 1.241 . S
C78 O71 1.247 . S
C78 O72 1.261 . S
C79 O74 1.259 . S
C79 O76 1.235 1_565 S
O80 Co70 2.021 . S
O80 C77 1.238 1_565 S
O81 Co75 2.052 . S
O81 C77 1.241 . S
O82 Co70 2.137 . S
O82 C73 1.247 . S
O83 Co70 2.244 1_545 S
O83 C73 1.272 1_545 S
O83 Co75 2.135 . S
Co84 O85 2.216 . S
Co84 O86 2.091 . S
Co84 O88 2.004 . S
Co84 O94 2.021 . S
Co84 O96 2.137 . S
Co84 O97 2.244 . S
O85 Co84 2.216 . S
O85 C92 1.247 . S
O86 Co84 2.091 . S
O86 C92 1.261 . S
C87 O96 1.247 . S
C87 O97 1.272 . S
O88 Co84 2.004 . S
O88 C93 1.259 . S
Co89 O90 2.061 . S
Co89 O95 2.052 . S
Co89 O97 2.135 . S
O90 Co89 2.061 . S
O90 C93 1.235 . S
C91 O94 1.238 . S
C91 O95 1.241 . S
C92 O85 1.247 . S
C92 O86 1.261 . S
C93 O88 1.259 . S
C93 O90 1.235 . S
O94 Co84 2.021 . S
O94 C91 1.238 . S
O95 Co89 2.052 . S
O95 C91 1.241 . S
O96 Co84 2.137 . S
O96 C87 1.247 . S
O97 Co84 2.244 . S
O97 C87 1.272 . S
O97 Co89 2.135 . S
Co98 O99 2.216 . S
Co98 O100 2.091 . S
Co98 O102 2.004 . S
Co98 O108 2.015 1_556 S
Co98 O110 2.137 . S
Co98 O111 2.244 . S
O99 Co98 2.216 . S
O99 C106 1.247 . S
O100 Co98 2.091 . S
O100 C106 1.261 . S
C101 O110 1.247 . S
C101 O111 1.272 . S
O102 Co98 2.004 . S
O102 C107 1.259 . S
Co103 O104 2.061 1_565 S
Co103 O109 2.052 . S
Co103 O111 2.135 1_565 S
O104 Co103 2.061 1_545 S
O104 C107 1.235 . S
C105 O108 1.247 . S
C105 O109 1.235 1_544 S
C106 O99 1.247 . S
C106 O100 1.261 . S
C107 O102 1.259 . S
C107 O104 1.235 . S
O108 Co98 2.015 1_554 S
O108 C105 1.247 . S
O109 Co103 2.052 . S
O109 C105 1.235 1_566 S
O110 Co98 2.137 . S
O110 C101 1.247 . S
O111 Co98 2.244 . S
O111 C101 1.272 . S
O111 Co103 2.135 1_545 S
Co112 O113 2.216 . S
Co112 O114 2.091 . S
Co112 O116 2.004 . S
Co112 O122 2.021 . S
Co112 O124 2.137 1_554 S
Co112 O125 2.244 1_554 S
O113 Co112 2.216 . S
O113 C120 1.247 . S
O114 Co112 2.091 . S
O114 C120 1.261 . S
C115 O124 1.247 . S
C115 O125 1.272 . S
O116 Co112 2.004 . S
O116 C121 1.259 . S
Co117 O118 2.061 . S
Co117 O123 2.052 . S
Co117 O125 2.135 1_554 S
O118 Co117 2.061 . S
O118 C121 1.235 . S
C119 O122 1.238 . S
C119 O123 1.241 . S
C120 O113 1.247 . S
C120 O114 1.261 . S
C121 O116 1.259 . S
C121 O118 1.235 . S
O122 Co112 2.021 . S
O122 C119 1.238 . S
O123 Co117 2.052 . S
O123 C119 1.241 . S
O124 Co112 2.137 1_556 S
O124 C115 1.247 . S
O125 Co112 2.244 1_556 S
O125 C115 1.272 . S
O125 Co117 2.135 1_556 S
Co126 O127 2.216 . S
Co126 O128 2.091 . S
Co126 O130 2.004 . S
Co126 O136 2.015 1_556 S
Co126 O138 2.137 . S
Co126 O139 2.244 . S
O127 Co126 2.216 . S
O127 C134 1.247 . S
O128 Co126 2.091 . S
O128 C134 1.261 . S
C129 O138 1.247 . S
C129 O139 1.272 . S
O130 Co126 2.004 . S
O130 C135 1.259 . S
Co131 O132 2.061 1_565 S
Co131 O137 2.052 . S
Co131 O139 2.135 1_565 S
O132 Co131 2.061 1_545 S
O132 C135 1.235 . S
C133 O136 1.247 . S
C133 O137 1.235 1_544 S
C134 O127 1.247 . S
C134 O128 1.261 . S
C135 O130 1.259 . S
C135 O132 1.235 . S
O136 Co126 2.015 1_554 S
O136 C133 1.247 . S
O137 Co131 2.052 . S
O137 C133 1.235 1_566 S
O138 Co126 2.137 . S
O138 C129 1.247 . S
O139 Co126 2.244 . S
O139 C129 1.272 . S
O139 Co131 2.135 1_545 S
Co140 O141 2.216 . S
Co140 O142 2.091 . S
Co140 O144 2.004 . S
Co140 O150 2.021 . S
Co140 O152 2.137 . S
Co140 O153 2.244 . S
O141 Co140 2.216 . S
O141 C148 1.247 . S
O142 Co140 2.091 . S
O142 C148 1.261 . S
C143 O152 1.247 . S
C143 O153 1.272 . S
O144 Co140 2.004 . S
O144 C149 1.259 . S
Co145 O146 2.061 . S
Co145 O151 2.052 . S
Co145 O153 2.135 . S
O146 Co145 2.061 . S
O146 C149 1.235 . S
C147 O150 1.238 . S
C147 O151 1.241 . S
C148 O141 1.247 . S
C148 O142 1.261 . S
C149 O144 1.259 . S
C149 O146 1.235 . S
O150 Co140 2.021 . S
O150 C147 1.238 . S
O151 Co145 2.052 . S
O151 C147 1.241 . S
O152 Co140 2.137 . S
O152 C143 1.247 . S
O153 Co140 2.244 . S
O153 C143 1.272 . S
O153 Co145 2.135 . S
Co154 O155 2.216 . S
Co154 O156 2.091 . S
Co154 O158 2.004 . S
Co154 O164 2.021 . S
Co154 O166 2.137 . S
Co154 O167 2.244 1_565 S
O155 Co154 2.216 . S
O155 C162 1.247 . S
O156 Co154 2.091 . S
O156 C162 1.261 . S
C157 O166 1.247 . S
C157 O167 1.272 1_565 S
O158 Co154 2.004 . S
O158 C163 1.259 . S
Co159 O160 2.061 . S
Co159 O165 2.052 . S
Co159 O167 2.135 . S
O160 Co159 2.061 . S
O160 C163 1.235 1_545 S
C161 O164 1.238 1_545 S
C161 O165 1.241 . S
C162 O155 1.247 . S
C162 O156 1.261 . S
C163 O158 1.259 . S
C163 O160 1.235 1_565 S
O164 Co154 2.021 . S
O164 C161 1.238 1_565 S
O165 Co159 2.052 . S
O165 C161 1.241 . S
O166 Co154 2.137 . S
O166 C157 1.247 . S
O167 Co154 2.244 1_545 S
O167 C157 1.272 1_545 S
O167 Co159 2.135 . S
Co168 O169 2.216 . S
Co168 O170 2.091 . S
Co168 O172 2.004 . S
Co168 O178 2.021 1_554 S
Co168 O180 2.137 . S
Co168 O181 2.244 . S
O169 Co168 2.216 . S
O169 C176 1.247 . S
O170 Co168 2.091 . S
O170 C176 1.261 . S
C171 O180 1.247 . S
C171 O181 1.272 . S
O172 Co168 2.004 . S
O172 C177 1.259 . S
Co173 O174 2.061 . S
Co173 O179 2.052 1_554 S
Co173 O181 2.135 . S
O174 Co173 2.061 . S
O174 C177 1.235 . S
C175 O178 1.238 . S
C175 O179 1.241 . S
C176 O169 1.247 . S
C176 O170 1.261 . S
C177 O172 1.259 . S
C177 O174 1.235 . S
O178 Co168 2.021 1_556 S
O178 C175 1.238 . S
O179 Co173 2.052 1_556 S
O179 C175 1.241 . S
O180 Co168 2.137 . S
O180 C171 1.247 . S
O181 Co168 2.244 . S
O181 C171 1.272 . S
O181 Co173 2.135 . S
Co182 O183 2.216 . S
Co182 O184 2.091 . S
Co182 O186 2.004 . S
Co182 O192 2.021 . S
Co182 O194 2.137 1_556 S
Co182 O195 2.244 . S
O183 Co182 2.216 . S
O183 C190 1.247 . S
O184 Co182 2.091 . S
O184 C190 1.261 . S
C185 O194 1.247 . S
C185 O195 1.272 1_554 S
O186 Co182 2.004 . S
O186 C191 1.259 . S
Co187 O188 2.061 1_565 S
Co187 O193 2.052 . S
Co187 O195 2.135 1_565 S
O188 Co187 2.061 1_545 S
O188 C191 1.235 . S
C189 O192 1.245 . S
C189 O193 1.235 1_545 S
C190 O183 1.247 . S
C190 O184 1.261 . S
C191 O186 1.259 . S
C191 O188 1.235 . S
O192 Co182 2.021 . S
O192 C189 1.245 . S
O193 Co187 2.052 . S
O193 C189 1.235 1_565 S
O194 Co182 2.137 1_554 S
O194 C185 1.247 . S
O195 Co182 2.244 . S
O195 C185 1.272 1_556 S
O195 Co187 2.135 1_545 S
Co196 O197 2.216 . S
Co196 O198 2.091 . S
Co196 O200 2.004 . S
Co196 O206 2.021 . S
Co196 O208 2.137 . S
Co196 O209 2.244 . S
O197 Co196 2.216 . S
O197 C204 1.247 . S
O198 Co196 2.091 . S
O198 C204 1.261 . S
C199 O208 1.247 . S
C199 O209 1.272 . S
O200 Co196 2.004 . S
O200 C205 1.259 . S
Co201 O202 2.061 . S
Co201 O207 2.052 . S
Co201 O209 2.135 . S
O202 Co201 2.061 . S
O202 C205 1.235 . S
C203 O206 1.238 . S
C203 O207 1.241 . S
C204 O197 1.247 . S
C204 O198 1.261 . S
C205 O200 1.259 . S
C205 O202 1.235 . S
O206 Co196 2.021 . S
O206 C203 1.238 . S
O207 Co201 2.052 . S
O207 C203 1.241 . S
O208 Co196 2.137 . S
O208 C199 1.247 . S
O209 Co196 2.244 . S
O209 C199 1.272 . S
O209 Co201 2.135 . S
Co210 O211 2.216 . S
Co210 O212 2.091 . S
Co210 O214 2.004 . S
Co210 O220 2.021 . S
Co210 O222 2.137 . S
Co210 O223 2.244 1_565 S
O211 Co210 2.216 . S
O211 C218 1.247 . S
O212 Co210 2.091 . S
O212 C218 1.261 . S
C213 O222 1.247 . S
C213 O223 1.272 1_565 S
O214 Co210 2.004 . S
O214 C219 1.259 . S
Co215 O216 2.061 . S
Co215 O221 2.052 . S
Co215 O223 2.135 . S
O216 Co215 2.061 . S
O216 C219 1.235 1_545 S
C217 O220 1.238 1_545 S
C217 O221 1.241 . S
C218 O211 1.247 . S
C218 O212 1.261 . S
C219 O214 1.259 . S
C219 O216 1.235 1_565 S
O220 Co210 2.021 . S
O220 C217 1.238 1_565 S
O221 Co215 2.052 . S
O221 C217 1.241 . S
O222 Co210 2.137 . S
O222 C213 1.247 . S
O223 Co210 2.244 1_545 S
O223 C213 1.272 1_545 S
O223 Co215 2.135 . S
Co224 O225 2.216 . S
Co224 O226 2.091 . S
Co224 O228 2.004 . S
Co224 O234 2.021 . S
Co224 O236 2.137 . S
Co224 O237 2.244 . S
O225 Co224 2.216 . S
O225 C232 1.247 . S
O226 Co224 2.091 . S
O226 C232 1.261 . S
C227 O236 1.247 . S
C227 O237 1.272 . S
O228 Co224 2.004 . S
O228 C233 1.259 . S
Co229 O230 2.061 . S
Co229 O235 2.052 . S
Co229 O237 2.135 . S
O230 Co229 2.061 . S
O230 C233 1.235 . S
C231 O234 1.238 . S
C231 O235 1.241 . S
C232 O225 1.247 . S
C232 O226 1.261 . S
C233 O228 1.259 . S
C233 O230 1.235 . S
O234 Co224 2.021 . S
O234 C231 1.238 . S
O235 Co229 2.052 . S
O235 C231 1.241 . S
O236 Co224 2.137 . S
O236 C227 1.247 . S
O237 Co224 2.244 . S
O237 C227 1.272 . S
O237 Co229 2.135 . S
Co238 O239 2.216 . S
Co238 O240 2.091 . S
Co238 O242 2.004 . S
Co238 O248 2.021 . S
Co238 O250 2.137 1_556 S
Co238 O251 2.244 . S
O239 Co238 2.216 . S
O239 C246 1.247 . S
O240 Co238 2.091 . S
O240 C246 1.261 . S
C241 O250 1.247 . S
C241 O251 1.272 1_554 S
O242 Co238 2.004 . S
O242 C247 1.259 . S
Co243 O244 2.061 . S
Co243 O249 2.052 . S
Co243 O251 2.135 . S
O244 Co243 2.061 . S
O244 C247 1.235 . S
C245 O248 1.238 . S
C245 O249 1.241 . S
C246 O239 1.247 . S
C246 O240 1.261 . S
C247 O242 1.259 . S
C247 O244 1.235 . S
O248 Co238 2.021 . S
O248 C245 1.238 . S
O249 Co243 2.052 . S
O249 C245 1.241 . S
O250 Co238 2.137 1_554 S
O250 C241 1.247 . S
O251 Co238 2.244 . S
O251 C241 1.272 1_556 S
O251 Co243 2.135 . S
Co252 O253 2.216 . S
Co252 O254 2.091 . S
Co252 O256 2.004 . S
Co252 O262 2.021 1_554 S
Co252 O264 2.137 . S
Co252 O265 2.244 . S
O253 Co252 2.216 . S
O253 C260 1.247 . S
O254 Co252 2.091 . S
O254 C260 1.261 . S
C255 O264 1.247 . S
C255 O265 1.272 . S
O256 Co252 2.004 . S
O256 C261 1.259 . S
Co257 O258 2.061 . S
Co257 O263 2.052 1_554 S
Co257 O265 2.135 . S
O258 Co257 2.061 . S
O258 C261 1.235 . S
C259 O262 1.238 . S
C259 O263 1.241 . S
C260 O253 1.247 . S
C260 O254 1.261 . S
C261 O256 1.259 . S
C261 O258 1.235 . S
O262 Co252 2.021 1_556 S
O262 C259 1.238 . S
O263 Co257 2.052 1_556 S
O263 C259 1.241 . S
O264 Co252 2.137 . S
O264 C255 1.247 . S
O265 Co252 2.244 . S
O265 C255 1.272 . S
O265 Co257 2.135 . S
Co266 O267 2.216 . S
Co266 O268 2.091 . S
Co266 O270 2.004 . S
Co266 O276 2.021 . S
Co266 O278 2.137 . S
Co266 O279 2.244 . S
O267 Co266 2.216 . S
O267 C274 1.247 . S
O268 Co266 2.091 . S
O268 C274 1.261 . S
C269 O278 1.247 . S
C269 O279 1.272 . S
O270 Co266 2.004 . S
O270 C275 1.259 . S
Co271 O272 2.061 . S
Co271 O277 2.052 . S
Co271 O279 2.135 . S
O272 Co271 2.061 . S
O272 C275 1.235 . S
C273 O276 1.238 . S
C273 O277 1.241 . S
C274 O267 1.247 . S
C274 O268 1.261 . S
C275 O270 1.259 . S
C275 O272 1.235 . S
O276 Co266 2.021 . S
O276 C273 1.238 . S
O277 Co271 2.052 . S
O277 C273 1.241 . S
O278 Co266 2.137 . S
O278 C269 1.247 . S
O279 Co266 2.244 . S
O279 C269 1.272 . S
O279 Co271 2.135 . S
Co280 O281 2.216 . S
Co280 O282 2.091 . S
Co280 O284 2.004 . S
Co280 O290 2.021 . S
Co280 O292 2.137 . S
Co280 O293 2.244 . S
O281 Co280 2.216 . S
O281 C288 1.247 . S
O282 Co280 2.091 . S
O282 C288 1.261 . S
C283 O292 1.247 . S
C283 O293 1.272 . S
O284 Co280 2.004 . S
O284 C289 1.259 . S
Co285 O286 2.061 . S
Co285 O291 2.052 . S
Co285 O293 2.135 . S
O286 Co285 2.061 . S
O286 C289 1.235 . S
C287 O290 1.238 . S
C287 O291 1.241 . S
C288 O281 1.247 . S
C288 O282 1.261 . S
C289 O284 1.259 . S
C289 O286 1.235 . S
O290 Co280 2.021 . S
O290 C287 1.238 . S
O291 Co285 2.052 . S
O291 C287 1.241 . S
O292 Co280 2.137 . S
O292 C283 1.247 . S
O293 Co280 2.244 . S
O293 C283 1.272 . S
O293 Co285 2.135 . S
Co294 O295 2.216 . S
Co294 O296 2.091 . S
Co294 O298 2.004 . S
Co294 O304 2.015 1_556 S
Co294 O306 2.137 . S
Co294 O307 2.244 . S
O295 Co294 2.216 . S
O295 C302 1.247 . S
O296 Co294 2.091 . S
O296 C302 1.261 . S
C297 O306 1.247 . S
C297 O307 1.272 . S
O298 Co294 2.004 . S
O298 C303 1.259 . S
Co299 O300 2.061 . S
Co299 O305 2.052 . S
Co299 O307 2.135 . S
O300 Co299 2.061 . S
O300 C303 1.235 . S
C301 O304 1.239 . S
C301 O305 1.241 1_554 S
C302 O295 1.247 . S
C302 O296 1.261 . S
C303 O298 1.259 . S
C303 O300 1.235 . S
O304 Co294 2.015 1_554 S
O304 C301 1.239 . S
O305 Co299 2.052 . S
O305 C301 1.241 1_556 S
O306 Co294 2.137 . S
O306 C297 1.247 . S
O307 Co294 2.244 . S
O307 C297 1.272 . S
O307 Co299 2.135 . S
Co308 O309 2.216 . S
Co308 O310 2.091 . S
Co308 O312 2.004 . S
Co308 O318 2.021 . S
Co308 O320 2.137 1_554 S
Co308 O321 2.244 1_554 S
O309 Co308 2.216 . S
O309 C316 1.247 . S
O310 Co308 2.091 . S
O310 C316 1.261 . S
C311 O320 1.247 . S
C311 O321 1.272 . S
O312 Co308 2.004 . S
O312 C317 1.259 . S
Co313 O314 2.061 . S
Co313 O319 2.052 . S
Co313 O321 2.135 1_554 S
O314 Co313 2.061 . S
O314 C317 1.235 . S
C315 O318 1.238 . S
C315 O319 1.241 . S
C316 O309 1.247 . S
C316 O310 1.261 . S
C317 O312 1.259 . S
C317 O314 1.235 . S
O318 Co308 2.021 . S
O318 C315 1.238 . S
O319 Co313 2.052 . S
O319 C315 1.241 . S
O320 Co308 2.137 1_556 S
O320 C311 1.247 . S
O321 Co308 2.244 1_556 S
O321 C311 1.272 . S
O321 Co313 2.135 1_556 S
Co322 O323 2.216 . S
Co322 O324 2.091 . S
Co322 O326 2.004 . S
Co322 O332 2.021 . S
Co322 O334 2.137 . S
Co322 O335 2.244 . S
O323 Co322 2.216 . S
O323 C330 1.247 . S
O324 Co322 2.091 . S
O324 C330 1.261 . S
C325 O334 1.247 . S
C325 O335 1.272 . S
O326 Co322 2.004 . S
O326 C331 1.259 . S
Co327 O328 2.061 . S
Co327 O333 2.052 . S
Co327 O335 2.135 . S
O328 Co327 2.061 . S
O328 C331 1.235 . S
C329 O332 1.238 . S
C329 O333 1.241 . S
C330 O323 1.247 . S
C330 O324 1.261 . S
C331 O326 1.259 . S
C331 O328 1.235 . S
O332 Co322 2.021 . S
O332 C329 1.238 . S
O333 Co327 2.052 . S
O333 C329 1.241 . S
O334 Co322 2.137 . S
O334 C325 1.247 . S
O335 Co322 2.244 . S
O335 C325 1.272 . S
O335 Co327 2.135 . S
Co336 O337 2.216 . S
Co336 O338 2.091 . S
Co336 O340 2.004 . S
Co336 O346 2.021 . S
Co336 O348 2.137 . S
Co336 O349 2.244 . S
O337 Co336 2.216 . S
O337 C344 1.247 . S
O338 Co336 2.091 . S
O338 C344 1.261 . S
C339 O348 1.247 . S
C339 O349 1.272 . S
O340 Co336 2.004 . S
O340 C345 1.259 . S
Co341 O342 2.061 . S
Co341 O347 2.052 . S
Co341 O349 2.135 . S
O342 Co341 2.061 . S
O342 C345 1.235 . S
C343 O346 1.238 . S
C343 O347 1.241 . S
C344 O337 1.247 . S
C344 O338 1.261 . S
C345 O340 1.259 . S
C345 O342 1.235 . S
O346 Co336 2.021 . S
O346 C343 1.238 . S
O347 Co341 2.052 . S
O347 C343 1.241 . S
O348 Co336 2.137 . S
O348 C339 1.247 . S
O349 Co336 2.244 . S
O349 C339 1.272 . S
O349 Co341 2.135 . S
Co350 O351 2.216 . S
Co350 O352 2.091 . S
Co350 O354 2.004 . S
Co350 O360 2.021 . S
Co350 O362 2.137 . S
Co350 O363 2.244 . S
O351 Co350 2.216 . S
O351 C358 1.247 . S
O352 Co350 2.091 . S
O352 C358 1.261 . S
C353 O362 1.247 . S
C353 O363 1.272 . S
O354 Co350 2.004 . S
O354 C359 1.259 . S
Co355 O356 2.061 . S
Co355 O361 2.052 . S
Co355 O363 2.135 . S
O356 Co355 2.061 . S
O356 C359 1.235 . S
C357 O360 1.238 . S
C357 O361 1.241 . S
C358 O351 1.247 . S
C358 O352 1.261 . S
C359 O354 1.259 . S
C359 O356 1.235 . S
O360 Co350 2.021 . S
O360 C357 1.238 . S
O361 Co355 2.052 . S
O361 C357 1.241 . S
O362 Co350 2.137 . S
O362 C353 1.247 . S
O363 Co350 2.244 . S
O363 C353 1.272 . S
O363 Co355 2.135 . S
Co364 O365 2.216 . S
Co364 O366 2.091 . S
Co364 O368 2.004 . S
Co364 O374 2.021 . S
Co364 O376 2.137 1_554 S
Co364 O377 2.244 1_554 S
O365 Co364 2.216 . S
O365 C372 1.247 . S
O366 Co364 2.091 . S
O366 C372 1.261 . S
C367 O376 1.247 . S
C367 O377 1.272 . S
O368 Co364 2.004 . S
O368 C373 1.259 . S
Co369 O370 2.061 . S
Co369 O375 2.052 . S
Co369 O377 2.135 1_554 S
O370 Co369 2.061 . S
O370 C373 1.235 . S
C371 O374 1.238 . S
C371 O375 1.241 . S
C372 O365 1.247 . S
C372 O366 1.261 . S
C373 O368 1.259 . S
C373 O370 1.235 . S
O374 Co364 2.021 . S
O374 C371 1.238 . S
O375 Co369 2.052 . S
O375 C371 1.241 . S
O376 Co364 2.137 1_556 S
O376 C367 1.247 . S
O377 Co364 2.244 1_556 S
O377 C367 1.272 . S
O377 Co369 2.135 1_556 S
Co378 O379 2.216 . S
Co378 O380 2.091 . S
Co378 O382 2.004 . S
Co378 O388 2.015 1_556 S
Co378 O390 2.137 . S
Co378 O391 2.244 . S
O379 Co378 2.216 . S
O379 C386 1.247 . S
O380 Co378 2.091 . S
O380 C386 1.261 . S
C381 O390 1.247 . S
C381 O391 1.272 . S
O382 Co378 2.004 . S
O382 C387 1.259 . S
Co383 O384 2.061 . S
Co383 O389 2.052 . S
Co383 O391 2.135 . S
O384 Co383 2.061 . S
O384 C387 1.235 . S
C385 O388 1.239 . S
C385 O389 1.241 1_554 S
C386 O379 1.247 . S
C386 O380 1.261 . S
C387 O382 1.259 . S
C387 O384 1.235 . S
O388 Co378 2.015 1_554 S
O388 C385 1.239 . S
O389 Co383 2.052 . S
O389 C385 1.241 1_556 S
O390 Co378 2.137 . S
O390 C381 1.247 . S
O391 Co378 2.244 . S
O391 C381 1.272 . S
O391 Co383 2.135 . S
Co392 O393 2.216 . S
Co392 O394 2.091 . S
Co392 O396 2.004 . S
Co392 O402 2.021 . S
Co392 O404 2.137 . S
Co392 O405 2.244 . S
O393 Co392 2.216 . S
O393 C400 1.247 . S
O394 Co392 2.091 . S
O394 C400 1.261 . S
C395 O404 1.247 . S
C395 O405 1.272 . S
O396 Co392 2.004 . S
O396 C401 1.259 . S
Co397 O398 2.061 . S
Co397 O403 2.052 . S
Co397 O405 2.135 . S
O398 Co397 2.061 . S
O398 C401 1.235 . S
C399 O402 1.238 . S
C399 O403 1.241 . S
C400 O393 1.247 . S
C400 O394 1.261 . S
C401 O396 1.259 . S
C401 O398 1.235 . S
O402 Co392 2.021 . S
O402 C399 1.238 . S
O403 Co397 2.052 . S
O403 C399 1.241 . S
O404 Co392 2.137 . S
O404 C395 1.247 . S
O405 Co392 2.244 . S
O405 C395 1.272 . S
O405 Co397 2.135 . S
Co406 O407 2.216 . S
Co406 O408 2.091 . S
Co406 O410 2.004 . S
Co406 O416 2.021 . S
Co406 O418 2.137 . S
Co406 O419 2.244 . S
O407 Co406 2.216 . S
O407 C414 1.247 . S
O408 Co406 2.091 . S
O408 C414 1.261 . S
C409 O418 1.247 . S
C409 O419 1.272 . S
O410 Co406 2.004 . S
O410 C415 1.259 . S
Co411 O412 2.061 . S
Co411 O417 2.052 . S
Co411 O419 2.135 . S
O412 Co411 2.061 . S
O412 C415 1.235 . S
C413 O416 1.238 . S
C413 O417 1.241 . S
C414 O407 1.247 . S
C414 O408 1.261 . S
C415 O410 1.259 . S
C415 O412 1.235 . S
O416 Co406 2.021 . S
O416 C413 1.238 . S
O417 Co411 2.052 . S
O417 C413 1.241 . S
O418 Co406 2.137 . S
O418 C409 1.247 . S
O419 Co406 2.244 . S
O419 C409 1.272 . S
O419 Co411 2.135 . S
Co420 O421 2.216 . S
Co420 O422 2.091 . S
Co420 O424 2.004 . S
Co420 O430 2.021 1_554 S
Co420 O432 2.137 . S
Co420 O433 2.244 . S
O421 Co420 2.216 . S
O421 C428 1.247 . S
O422 Co420 2.091 . S
O422 C428 1.261 . S
C423 O432 1.247 . S
C423 O433 1.272 . S
O424 Co420 2.004 . S
O424 C429 1.259 . S
Co425 O426 2.061 . S
Co425 O431 2.052 1_554 S
Co425 O433 2.135 . S
O426 Co425 2.061 . S
O426 C429 1.235 . S
C427 O430 1.238 . S
C427 O431 1.241 . S
C428 O421 1.247 . S
C428 O422 1.261 . S
C429 O424 1.259 . S
C429 O426 1.235 . S
O430 Co420 2.021 1_556 S
O430 C427 1.238 . S
O431 Co425 2.052 1_556 S
O431 C427 1.241 . S
O432 Co420 2.137 . S
O432 C423 1.247 . S
O433 Co420 2.244 . S
O433 C423 1.272 . S
O433 Co425 2.135 . S
Co434 O435 2.216 . S
Co434 O436 2.091 . S
Co434 O438 2.004 . S
Co434 O444 2.021 . S
Co434 O446 2.137 1_556 S
Co434 O447 2.244 . S
O435 Co434 2.216 . S
O435 C442 1.247 . S
O436 Co434 2.091 . S
O436 C442 1.261 . S
C437 O446 1.247 . S
C437 O447 1.272 1_554 S
O438 Co434 2.004 . S
O438 C443 1.259 . S
Co439 O440 2.061 . S
Co439 O445 2.052 . S
Co439 O447 2.135 . S
O440 Co439 2.061 . S
O440 C443 1.235 . S
C441 O444 1.238 . S
C441 O445 1.241 . S
C442 O435 1.247 . S
C442 O436 1.261 . S
C443 O438 1.259 . S
C443 O440 1.235 . S
O444 Co434 2.021 . S
O444 C441 1.238 . S
O445 Co439 2.052 . S
O445 C441 1.241 . S
O446 Co434 2.137 1_554 S
O446 C437 1.247 . S
O447 Co434 2.244 . S
O447 C437 1.272 1_556 S
O447 Co439 2.135 . S
C106 C8 1.969 1_556 S
C22 C64 1.969 . S
C78 C36 1.969 . S
C50 C92 1.969 . S
C120 C218 1.969 . S
C134 C176 1.969 1_556 S
C148 C190 1.969 . S
C162 C204 1.969 . S
C232 C330 1.969 . S
C246 C288 1.969 . S
C302 C260 1.969 1_556 S
C316 C274 1.969 . S
C344 C442 1.969 . S
C400 C358 1.969 . S
C414 C372 1.969 . S
C386 C428 1.969 1_556 S
C7 C91 1.054 . S
C21 C105 1.058 . S
C63 C35 1.054 . S
C49 C77 1.058 . S
C119 C203 1.054 . S
C133 C217 1.058 . S
C175 C147 1.054 . S
C189 C161 1.058 . S
C231 C315 1.054 . S
C329 C245 1.054 . S
C287 C259 1.054 . S
C273 C301 1.054 . S
C343 C427 1.054 . S
C357 C441 1.054 . S
C399 C371 1.054 . S
C413 C385 1.054 . S
C9 C429 1.464 . S
C23 C219 1.464 1_455 S
C37 C401 1.464 . S
C51 C191 1.464 . S
C65 C373 1.464 . S
C79 C163 1.464 . S
C93 C345 1.464 . S
C135 C107 1.464 1_655 S
C317 C121 1.464 . S
C149 C289 1.464 . S
C261 C177 1.464 . S
C233 C205 1.464 . S
C247 C443 1.464 . S
C275 C415 1.464 1_655 S
C303 C387 1.464 1_655 S
C359 C331 1.464 . S
C3 C87 1.679 . S
C17 C101 1.679 1_565 S
C59 C31 1.679 . S
C45 C73 1.679 1_545 S
C115 C199 1.679 . S
C129 C213 1.679 1_545 S
C171 C143 1.679 . S
C157 C185 1.679 1_565 S
C311 C227 1.679 . S
C325 C241 1.679 . S
C283 C255 1.679 . S
C297 C269 1.679 . S
C423 C339 1.679 . S
C437 C353 1.679 . S
C367 C395 1.679 . S
C409 C381 1.679 . S
