# Generated by pormake.
# Topology xfy, (5)-cn, num edge types: 1
# Building blocks:
#     Node 0, Type 0, BuildingBlock: BEQFEK_clean_sbu_0, # of connection points: 5
#     Node 1, Type 0, BuildingBlock: BEQFEK_clean_sbu_0, # of connection points: 5
#     Node 2, Type 0, BuildingBlock: BEQFEK_clean_sbu_0, # of connection points: 5
#     Node 3, Type 0, BuildingBlock: BEQFEK_clean_sbu_0, # of connection points: 5
#     Node 4, Type 0, BuildingBlock: BEQFEK_clean_sbu_0, # of connection points: 5
#     Node 5, Type 0, BuildingBlock: BEQFEK_clean_sbu_0, # of connection points: 5
#     Node 6, Type 0, BuildingBlock: BEQFEK_clean_sbu_0, # of connection points: 5
#     Node 7, Type 0, BuildingBlock: BEQFEK_clean_sbu_0, # of connection points: 5
#     Edge 8, Type (0, 0), BuildingBlock: OJICUG_clean_linker_0, # of connection points: 2
#     Edge 9, Type (0, 0), BuildingBlock: OJICUG_clean_linker_0, # of connection points: 2
#     Edge 10, Type (0, 0), BuildingBlock: OJICUG_clean_linker_0, # of connection points: 2
#     Edge 11, Type (0, 0), BuildingBlock: OJICUG_clean_linker_0, # of connection points: 2
#     Edge 12, Type (0, 0), BuildingBlock: OJICUG_clean_linker_0, # of connection points: 2
#     Edge 13, Type (0, 0), BuildingBlock: OJICUG_clean_linker_0, # of connection points: 2
#     Edge 14, Type (0, 0), BuildingBlock: OJICUG_clean_linker_0, # of connection points: 2
#     Edge 15, Type (0, 0), BuildingBlock: OJICUG_clean_linker_0, # of connection points: 2
#     Edge 16, Type (0, 0), BuildingBlock: OJICUG_clean_linker_0, # of connection points: 2
#     Edge 17, Type (0, 0), BuildingBlock: OJICUG_clean_linker_0, # of connection points: 2
#     Edge 18, Type (0, 0), BuildingBlock: OJICUG_clean_linker_0, # of connection points: 2
#     Edge 19, Type (0, 0), BuildingBlock: OJICUG_clean_linker_0, # of connection points: 2
#     Edge 20, Type (0, 0), BuildingBlock: OJICUG_clean_linker_0, # of connection points: 2
#     Edge 21, Type (0, 0), BuildingBlock: OJICUG_clean_linker_0, # of connection points: 2
#     Edge 22, Type (0, 0), BuildingBlock: OJICUG_clean_linker_0, # of connection points: 2
#     Edge 23, Type (0, 0), BuildingBlock: OJICUG_clean_linker_0, # of connection points: 2
#     Edge 24, Type (0, 0), BuildingBlock: OJICUG_clean_linker_0, # of connection points: 2
#     Edge 25, Type (0, 0), BuildingBlock: OJICUG_clean_linker_0, # of connection points: 2
#     Edge 26, Type (0, 0), BuildingBlock: OJICUG_clean_linker_0, # of connection points: 2
#     Edge 27, Type (0, 0), BuildingBlock: OJICUG_clean_linker_0, # of connection points: 2
# Relax obj value: 0.382
# Max RMSD: 0.228
# Mean RMSD: 0.228
data_MOF--net-xfy--node1-BEQFEK_clean_sbu_0--edge1-OJICUG_clean_linker_0
_symmetry_space_group_name_H-M    P1
_symmetry_Int_Tables_number       1
_symmetry_cell_setting            triclinic
loop_
_symmetry_equiv_pos_as_xyz
'x, y, z'
_cell_length_a     22.418959
_cell_length_b     21.97519
_cell_length_c     46.033459
_cell_angle_alpha  89.99656
_cell_angle_beta   89.964628
_cell_angle_gamma 89.9934
loop_
_atom_site_label
_atom_site_type_symbol
_atom_site_fract_x
_atom_site_fract_y
_atom_site_fract_z
_atom_type_partial_charge
Co0 Co 0.20004 -0.00265 0.42877 0.0
Co1 Co 0.19656 0.11323 0.38896 0.0
C2 C 0.09865 0.01701 0.38978 0.0
O3 O 0.12562 0.98297 0.40785 0.0
O4 O 0.12057 0.06772 0.38149 0.0
C5 C 0.20136 0.8753 0.45356 0.0
O6 O 0.17503 0.85804 0.42943 0.0
C7 C 0.21021 0.16528 0.33114 0.0
C8 C 0.20517 0.26426 0.33921 0.0
C9 C 0.21235 0.22138 0.31743 0.0
N10 N 0.20288 0.17443 0.35975 0.0
N11 N 0.1997 0.23369 0.36447 0.0
C12 C 0.21069 0.10378 0.31714 0.0
H13 H 0.19406 0.06864 0.33245 0.0
H14 H 0.2568 0.09173 0.31067 0.0
H15 H 0.18287 0.1043 0.2972 0.0
C16 C 0.31325 0.97873 0.39939 0.0
N17 N 0.26207 0.00947 0.40248 0.0
N18 N 0.26476 0.06065 0.38773 0.0
C19 C 0.31978 0.06534 0.37592 0.0
C20 C 0.35193 0.01315 0.38275 0.0
C21 C 0.32702 0.92021 0.41463 0.0
H22 H 0.28988 0.88775 0.41121 0.0
H23 H 0.3689 0.89946 0.40641 0.0
H24 H 0.33142 0.92879 0.43829 0.0
O25 O 0.19044 0.069 0.45431 0.0
O26 O 0.18853 0.15287 0.42752 0.0
H27 H 0.39215 0.12827 0.36901 0.0
H28 H 0.34259 0.11909 0.33886 0.0
C29 C 0.34463 0.12237 0.36286 0.0
H30 H 0.31881 0.16265 0.37007 0.0
H31 H 0.19368 0.25328 0.38492 0.0
O32 O 0.21683 0.93052 0.45643 0.0
C33 C 0.18655 0.12657 0.45215 0.0
Co34 Co 0.00891 0.74783 0.57617 0.0
Co35 Co 0.1112 0.77056 0.62189 0.0
C36 C 0.0195 0.86385 0.61065 0.0
O37 O -0.00334 0.8299 0.59129 0.0
O38 O 0.06394 0.84662 0.62574 0.0
C39 C 0.88929 0.75205 0.55522 0.0
O40 O 0.87944 0.77671 0.58079 0.0
C41 C 0.16238 0.78176 0.68018 0.0
C42 C 0.25426 0.7484 0.67346 0.0
C43 C 0.21491 0.76755 0.6949 0.0
N44 N 0.17044 0.77035 0.65173 0.0
N45 N 0.22581 0.75164 0.64778 0.0
C46 C 0.10333 0.79968 0.69281 0.0
H47 H 0.06687 0.7909 0.67707 0.0
H48 H 0.09435 0.7742 0.71316 0.0
H49 H 0.1039 0.84904 0.69787 0.0
C50 C -0.00996 0.63964 0.61123 0.0
N51 N 0.01815 0.6924 0.60635 0.0
N52 N 0.06088 0.70008 0.62563 0.0
C53 C 0.06073 0.65173 0.64379 0.0
C54 C 0.0153 0.61241 0.63543 0.0
C55 C 0.94581 0.61257 0.59051 0.0
H56 H 0.95789 0.62466 0.56789 0.0
H57 H 0.90093 0.63146 0.59522 0.0
H58 H 0.94405 0.56228 0.59218 0.0
O59 O 0.07993 0.74863 0.55224 0.0
O60 O 0.15257 0.77336 0.58286 0.0
H61 H 0.15004 0.6491 0.66042 0.0
H62 H 0.09937 0.5972 0.67844 0.0
C63 C 0.10373 0.64265 0.66829 0.0
H64 H 0.09449 0.6766 0.68539 0.0
H65 H 0.24333 0.73845 0.62773 0.0
O66 O 0.94095 0.73129 0.54966 0.0
C67 C 0.1341 0.76182 0.55719 0.0
Co68 Co 0.75662 0.97511 0.43421 0.0
Co69 Co 0.75493 0.86111 0.39288 0.0
C70 C 0.85414 0.95518 0.39244 0.0
O71 O 0.82937 0.98841 0.41161 0.0
O72 O 0.83086 0.90529 0.38395 0.0
C73 C 0.7608 0.09703 0.45847 0.0
O74 O 0.78617 0.11237 0.43379 0.0
C75 C 0.7467 0.8102 0.33466 0.0
C76 C 0.72864 0.71285 0.34267 0.0
C77 C 0.73691 0.755 0.32057 0.0
N78 N 0.74471 0.80074 0.36346 0.0
N79 N 0.73413 0.74244 0.36816 0.0
C80 C 0.75361 0.8721 0.3215 0.0
H81 H 0.74215 0.90788 0.33757 0.0
H82 H 0.72481 0.87691 0.30203 0.0
H83 H 0.8008 0.87881 0.31497 0.0
C84 C 0.64235 -0.00178 0.40639 0.0
N85 N 0.69216 0.96508 0.40922 0.0
N86 N 0.68817 0.91563 0.39324 0.0
C87 C 0.63395 0.91485 0.38046 0.0
C88 C 0.60331 0.96737 0.3884 0.0
C89 C 0.63209 0.05794 0.42123 0.0
H90 H 0.67095 0.08798 0.41738 0.0
H91 H 0.59154 0.08114 0.41298 0.0
H92 H 0.62771 0.05045 0.44497 0.0
O93 O 0.76712 0.90264 0.45904 0.0
O94 O 0.76602 0.82029 0.43112 0.0
H95 H 0.56016 0.86125 0.36435 0.0
H96 H 0.624 0.86582 0.34075 0.0
C97 C 0.60963 0.862 0.36374 0.0
H98 H 0.62717 0.81873 0.3727 0.0
H99 H 0.73013 0.72295 0.38876 0.0
O100 O 0.74374 0.04248 0.46212 0.0
C101 C 0.7703 0.84518 0.45603 0.0
Co102 Co 0.95881 0.22753 0.57724 0.0
Co103 Co 0.85817 0.2102 0.62421 0.0
C104 C 0.94457 0.11293 0.61277 0.0
O105 O 0.96736 0.14459 0.5925 0.0
O106 O 0.90229 0.13278 0.62855 0.0
C107 C 0.07706 0.21763 0.55451 0.0
O108 O 0.08742 0.1911 0.57959 0.0
C109 C 0.80714 0.20208 0.68245 0.0
C110 C 0.71637 0.23885 0.67623 0.0
C111 C 0.75544 0.21763 0.6972 0.0
N112 N 0.79935 0.21424 0.65412 0.0
N113 N 0.74461 0.23523 0.65043 0.0
C114 C 0.86318 0.17568 0.6949 0.0
H115 H 0.90228 0.18893 0.68153 0.0
H116 H 0.86988 0.18996 0.71776 0.0
H117 H 0.85967 0.12532 0.69447 0.0
C118 C -0.01655 0.33597 0.61148 0.0
N119 N 0.95324 0.28417 0.60718 0.0
N120 N 0.91166 0.27816 0.62718 0.0
C121 C 0.91517 0.32617 0.64544 0.0
C122 C 0.96107 0.36403 0.63618 0.0
C123 C 0.02673 0.36158 0.58985 0.0
H124 H 0.07175 0.34276 0.59425 0.0
H125 H 0.02878 0.41193 0.59089 0.0
H126 H 0.01345 0.34839 0.56755 0.0
O127 O 0.88725 0.22957 0.55384 0.0
O128 O 0.81583 0.2069 0.58548 0.0
H129 H 0.88453 0.37937 0.6824 0.0
H130 H 0.8838 0.29902 0.68713 0.0
C131 C 0.87554 0.3357 0.67123 0.0
H132 H 0.82814 0.33385 0.66443 0.0
H133 H 0.72733 0.24924 0.63048 0.0
O134 O 0.0261 0.24103 0.55001 0.0
C135 C 0.83317 0.21735 0.55951 0.0
Co136 Co 0.25985 0.50696 0.93226 0.0
Co137 Co 0.25959 0.62102 0.89095 0.0
C138 C 0.35858 0.5267 0.89116 0.0
O139 O 0.33318 0.49354 0.91015 0.0
O140 O 0.33567 0.57667 0.88252 0.0
C141 C 0.26229 0.38485 0.95657 0.0
O142 O 0.28759 0.36894 0.93195 0.0
C143 C 0.25237 0.67206 0.83268 0.0
C144 C 0.23452 0.76945 0.8407 0.0
C145 C 0.24286 0.72732 0.8186 0.0
N146 N 0.25013 0.68146 0.86149 0.0
N147 N 0.23971 0.73979 0.86619 0.0
C148 C 0.25915 0.61015 0.81951 0.0
H149 H 0.24767 0.57438 0.83558 0.0
H150 H 0.23028 0.60542 0.80007 0.0
H151 H 0.3063 0.60336 0.81295 0.0
C152 C 0.14581 0.48484 0.90413 0.0
N153 N 0.19612 0.51719 0.90687 0.0
N154 N 0.19272 0.5667 0.8909 0.0
C155 C 0.13844 0.56828 0.8782 0.0
C156 C 0.10712 0.51624 0.88619 0.0
C157 C 0.13391 0.42629 0.91973 0.0
H158 H 0.17155 0.39463 0.91595 0.0
H159 H 0.09226 0.4043 0.91204 0.0
H160 H 0.13051 0.43512 0.9434 0.0
O161 O 0.26968 0.57938 0.95716 0.0
O162 O 0.26964 0.66179 0.92928 0.0
H163 H 0.06504 0.62212 0.86177 0.0
H164 H 0.13009 0.61905 0.83891 0.0
C165 C 0.11453 0.6217 0.86174 0.0
H166 H 0.13144 0.66465 0.87133 0.0
H167 H 0.23554 0.75924 0.88679 0.0
O168 O 0.24609 0.43969 0.96013 0.0
C169 C 0.27304 0.63683 0.95421 0.0
Co170 Co 0.50667 0.7341 0.07676 0.0
Co171 Co 0.60725 0.71142 0.12335 0.0
C172 C 0.51666 0.61782 0.11117 0.0
O173 O 0.49461 0.65168 0.09155 0.0
O174 O 0.56012 0.63526 0.12686 0.0
C175 C 0.38786 0.72945 0.05467 0.0
O176 O 0.37708 0.7044 0.08006 0.0
C177 C 0.65733 0.70051 0.18194 0.0
C178 C 0.74926 0.73397 0.17551 0.0
C179 C 0.70963 0.71483 0.19683 0.0
N180 N 0.66581 0.71187 0.15351 0.0
N181 N 0.7212 0.73065 0.14974 0.0
C182 C 0.59817 0.68237 0.19435 0.0
H183 H 0.56195 0.6908 0.17844 0.0
H184 H 0.5887 0.70797 0.21461 0.0
H185 H 0.59893 0.63306 0.19952 0.0
C186 C 0.48614 0.84204 0.11177 0.0
N187 N 0.51453 0.78933 0.10711 0.0
N188 N 0.55661 0.78173 0.12673 0.0
C189 C 0.55574 0.83006 0.14489 0.0
C190 C 0.51052 0.86929 0.13618 0.0
C191 C 0.44266 0.86908 0.09066 0.0
H192 H 0.45566 0.8571 0.06815 0.0
H193 H 0.39766 0.85007 0.09494 0.0
H194 H 0.4407 0.91936 0.09235 0.0
O195 O 0.57843 0.73396 0.0534 0.0
O196 O 0.64977 0.7086 0.08462 0.0
H197 H 0.64453 0.83299 0.16216 0.0
H198 H 0.59312 0.8847 0.17982 0.0
C199 C 0.59797 0.83927 0.1697 0.0
H200 H 0.58834 0.80525 0.18672 0.0
H201 H 0.73901 0.74378 0.12974 0.0
O202 O 0.43963 0.75053 0.04968 0.0
C203 C 0.63234 0.72045 0.0588 0.0
Co204 Co 0.70257 0.48403 0.93097 0.0
Co205 Co 0.70112 0.36866 0.89076 0.0
C206 C 0.60291 0.46449 0.89088 0.0
O207 O 0.62897 0.49832 0.90936 0.0
O208 O 0.6253 0.41396 0.88265 0.0
C209 C 0.70218 0.60586 0.95588 0.0
O210 O 0.67616 0.62286 0.93163 0.0
C211 C 0.71601 0.31687 0.83293 0.0
C212 C 0.71193 0.21784 0.84099 0.0
C213 C 0.71874 0.2608 0.81923 0.0
N214 N 0.70868 0.30763 0.86154 0.0
N215 N 0.70612 0.24833 0.86626 0.0
C216 C 0.71578 0.37835 0.81892 0.0
H217 H 0.70019 0.41358 0.83443 0.0
H218 H 0.76147 0.39023 0.8117 0.0
H219 H 0.6867 0.37782 0.79941 0.0
C220 C 0.8162 0.5042 0.90221 0.0
N221 N 0.76558 0.47249 0.90519 0.0
N222 N 0.76905 0.42168 0.89018 0.0
C223 C 0.82406 0.41825 0.87826 0.0
C224 C 0.85538 0.4708 0.88537 0.0
C225 C 0.82821 0.56367 0.91696 0.0
H226 H 0.79007 0.59477 0.91331 0.0
H227 H 0.86933 0.58553 0.9085 0.0
H228 H 0.83294 0.55609 0.94067 0.0
O229 O 0.6923 0.41213 0.95627 0.0
O230 O 0.69173 0.32866 0.92918 0.0
H231 H 0.89719 0.35668 0.87061 0.0
H232 H 0.84752 0.36676 0.84057 0.0
C233 C 0.8496 0.36224 0.86453 0.0
H234 H 0.82434 0.32126 0.87127 0.0
H235 H 0.70016 0.22867 0.88669 0.0
O236 O 0.71813 0.5508 0.95883 0.0
C237 C 0.6887 0.35458 0.95387 0.0
Co238 Co 0.45619 0.25345 0.07664 0.0
Co239 Co 0.3547 0.27201 0.12305 0.0
C240 C 0.44187 0.36856 0.11184 0.0
O241 O 0.46474 0.33645 0.09175 0.0
O242 O 0.39931 0.34912 0.12757 0.0
C243 C 0.57521 0.26244 0.05493 0.0
O244 O 0.58482 0.2885 0.08019 0.0
C245 C 0.30246 0.28078 0.18101 0.0
C246 C 0.21172 0.24426 0.17442 0.0
C247 C 0.25046 0.2654 0.19555 0.0
N248 N 0.29515 0.26857 0.15265 0.0
N249 N 0.24042 0.24777 0.14874 0.0
C250 C 0.35839 0.30694 0.19368 0.0
H251 H 0.39773 0.29304 0.18062 0.0
H252 H 0.36438 0.29312 0.21665 0.0
H253 H 0.35535 0.35731 0.19295 0.0
C254 C 0.47952 0.1453 0.11128 0.0
N255 N 0.44963 0.19718 0.10668 0.0
N256 N 0.40762 0.20363 0.12643 0.0
C257 C 0.41047 0.1558 0.14482 0.0
C258 C 0.45644 0.11763 0.13593 0.0
C259 C 0.52329 0.11928 0.09001 0.0
H260 H 0.56826 0.13795 0.09466 0.0
H261 H 0.52511 0.06893 0.09119 0.0
H262 H 0.51069 0.1323 0.06759 0.0
O263 O 0.38522 0.25155 0.05283 0.0
O264 O 0.31336 0.27541 0.08404 0.0
H265 H 0.37855 0.103 0.18166 0.0
H266 H 0.37853 0.18336 0.18633 0.0
C267 C 0.37021 0.14673 0.17041 0.0
H268 H 0.32298 0.14904 0.16339 0.0
H269 H 0.22347 0.23371 0.12873 0.0
O270 O 0.52424 0.23953 0.0499 0.0
C271 C 0.33115 0.26445 0.05819 0.0
C272 C 0.50626 0.98999 0.41131 0.0
C273 C 0.53908 0.97981 0.38585 0.0
H274 H 0.42163 0.0111 0.42988 0.0
C275 C 0.5105 0.98292 0.35876 0.0
H276 H 0.5272 0.98697 0.43247 0.0
C277 C 0.44938 -0.00387 0.35731 0.0
C278 C 0.41698 0.00589 0.38297 0.0
H279 H 0.53535 0.97526 0.3389 0.0
H280 H 0.42726 -0.00262 0.3364 0.0
C281 C 0.44602 0.00364 0.40986 0.0
C282 C 0.92957 0.46963 0.64804 0.0
C283 C 0.97521 0.42624 0.64575 0.0
H284 H 0.90756 0.5643 0.64829 0.0
C285 C 0.03494 0.44509 0.64684 0.0
H286 H 0.88313 0.45645 0.64665 0.0
C287 C 0.0488 0.50685 0.64603 0.0
C288 C 0.00293 0.55022 0.64551 0.0
H289 H 0.07076 0.41214 0.64526 0.0
H290 H 0.09491 0.52014 0.64306 0.0
C291 C 0.94352 0.53134 0.6486 0.0
C292 C 0.95058 0.48752 0.91085 0.0
C293 C 0.92019 0.48021 0.88451 0.0
H294 H 0.03314 0.50723 0.9317 0.0
C295 C 0.95134 0.48515 0.85816 0.0
H296 H 0.92741 0.48329 0.93142 0.0
C297 C 0.01254 0.49831 0.85833 0.0
C298 C 0.04245 0.50604 0.88485 0.0
H299 H 0.92827 0.47972 0.83766 0.0
H300 H 0.03652 0.50182 0.83796 0.0
C301 C 0.01091 0.50105 0.91101 0.0
C302 C 0.52991 0.03667 0.14736 0.0
C303 C 0.47022 0.05555 0.1458 0.0
H304 H 0.58994 0.96154 0.14421 0.0
C305 C 0.4245 0.01223 0.14788 0.0
H306 H 0.56578 0.06958 0.14594 0.0
C307 C 0.43839 0.95051 0.14869 0.0
C308 C 0.49788 0.93156 0.14607 0.0
H309 H 0.37811 0.02543 0.14613 0.0
H310 H 0.40243 0.91757 0.1482 0.0
C311 C 0.54375 0.9749 0.14682 0.0
C312 C 0.019 0.9401 0.38106 0.0
C313 C 0.03683 0.00133 0.38211 0.0
H314 H 0.94596 0.8774 0.38243 0.0
C315 C -0.00666 0.04724 0.38102 0.0
H316 H 0.05184 0.90394 0.38183 0.0
C317 C 0.93289 0.0321 0.38212 0.0
C318 C 0.9152 0.97087 0.38345 0.0
H319 H 0.00595 0.0948 0.38196 0.0
H320 H 0.90016 0.06824 0.38371 0.0
C321 C 0.95851 0.92496 0.38129 0.0
C322 C 0.95451 0.01416 0.58867 0.0
C323 C 0.96076 0.04864 0.61402 0.0
H324 H 0.96714 0.92853 0.56806 0.0
C325 C -0.01582 0.02178 0.6392 0.0
H326 H 0.93629 0.03427 0.56907 0.0
C327 C 0.00338 0.96105 0.63851 0.0
C328 C -0.00257 0.92669 0.61289 0.0
H329 H -0.01073 0.04815 0.65892 0.0
H330 H 0.02286 0.94109 0.65782 0.0
C331 C 0.97195 0.95365 0.58819 0.0
C332 C 0.52381 0.54153 0.88133 0.0
C333 C 0.54148 0.48027 0.88256 0.0
H334 H 0.45082 0.60435 0.88198 0.0
C335 C 0.498 0.43442 0.88099 0.0
H336 H 0.55665 0.57763 0.88246 0.0
C337 C 0.43755 0.44967 0.88147 0.0
C338 C 0.41989 0.51093 0.88265 0.0
H339 H 0.51051 0.38685 0.88205 0.0
H340 H 0.40471 0.41359 0.88273 0.0
C341 C 0.46335 0.55677 0.88094 0.0
C342 C 0.45854 0.46604 0.0873 0.0
C343 C 0.45899 0.43266 0.11318 0.0
H344 H 0.47533 0.55099 0.0667 0.0
C345 C 0.47678 0.46066 0.13917 0.0
H346 H 0.44459 0.4452 0.06706 0.0
C347 C 0.49602 0.5214 0.1389 0.0
C348 C 0.49542 0.55469 0.11281 0.0
H349 H 0.47733 0.43522 0.15933 0.0
H350 H 0.51099 0.54233 0.15891 0.0
C351 C 0.47581 0.5266 0.08717 0.0
C352 C 0.19524 0.28613 0.24169 0.0
C353 C 0.24222 0.25723 0.22703 0.0
H354 H 0.14966 0.29815 0.28237 0.0
C355 C 0.27926 0.21679 0.24221 0.0
H356 H 0.16583 0.317 0.23022 0.0
C357 C 0.26944 0.20518 0.27162 0.0
C358 C 0.22253 0.23401 0.28637 0.0
H359 H 0.31517 0.19324 0.23119 0.0
H360 H 0.29896 0.17413 0.28288 0.0
C361 C 0.18603 0.27533 0.27134 0.0
C362 C 0.27172 0.70639 0.76667 0.0
C363 C 0.23876 0.74021 0.78698 0.0
H364 H 0.28952 0.68819 0.72192 0.0
C365 C 0.20186 0.7874 0.77684 0.0
H366 H 0.30321 0.67212 0.77356 0.0
C367 C 0.19541 0.7981 0.74703 0.0
C368 C 0.2252 0.76135 0.72667 0.0
H369 H 0.17701 0.81546 0.79194 0.0
H370 H 0.16705 0.83511 0.7401 0.0
C371 C 0.26473 0.71655 0.73692 0.0
C372 C 0.69573 0.69519 0.27877 0.0
C373 C 0.73282 0.74218 0.28895 0.0
H374 H 0.66095 0.64763 0.24199 0.0
C375 C 0.76605 0.77582 0.26869 0.0
H376 H 0.67067 0.66727 0.29385 0.0
C377 C 0.75922 0.76569 0.23893 0.0
C378 C 0.71956 0.72107 0.22863 0.0
H379 H 0.79769 0.80991 0.27562 0.0
H380 H 0.78427 0.79389 0.22398 0.0
C381 C 0.68942 0.68451 0.24895 0.0
C382 C 0.77547 0.27716 0.77332 0.0
C383 C 0.72867 0.24832 0.78814 0.0
H384 H 0.82077 0.28933 0.73278 0.0
C385 C 0.69193 0.20719 0.77314 0.0
H386 H 0.80515 0.30806 0.78456 0.0
C387 C 0.70078 0.19662 0.74344 0.0
C388 C 0.74764 0.22554 0.72872 0.0
H389 H 0.65563 0.18438 0.78422 0.0
H390 H 0.67118 0.16592 0.732 0.0
C391 C 0.78495 0.26577 0.74387 0.0
C392 C 0.15608 0.75018 0.50462 0.0
C393 C 0.17096 0.77634 0.53155 0.0
H394 H 0.15474 0.76086 0.45847 0.0
C395 C 0.20867 0.82727 0.53207 0.0
H396 H 0.12758 0.71041 0.50362 0.0
C397 C 0.22382 0.85661 0.50612 0.0
C398 C 0.20167 0.83516 0.47938 0.0
H399 H 0.22092 0.84836 0.55248 0.0
H400 H 0.24844 0.89895 0.5073 0.0
C401 C 0.17138 0.77931 0.47872 0.0
C402 C 0.82788 0.76034 0.4789 0.0
C403 C 0.7877 0.80902 0.4817 0.0
H404 H 0.89195 0.70357 0.50033 0.0
C405 C 0.77303 0.83011 0.50962 0.0
H406 H 0.84008 0.74328 0.45763 0.0
C407 C 0.80208 0.80699 0.53405 0.0
C408 C 0.84725 0.76313 0.53098 0.0
H409 H 0.7418 0.86731 0.51239 0.0
H410 H 0.79245 0.82714 0.55501 0.0
C411 C 0.85778 0.73785 0.50335 0.0
C412 C 0.7931 0.19429 0.48176 0.0
C413 C 0.76232 0.13883 0.48367 0.0
H414 H 0.83827 0.26472 0.50502 0.0
C415 C 0.74092 0.11967 0.51095 0.0
H416 H 0.80915 0.21102 0.46104 0.0
C417 C 0.75711 0.15094 0.53621 0.0
C418 C 0.79519 0.20149 0.53447 0.0
H419 H 0.71596 0.0777 0.51308 0.0
H420 H 0.74535 0.13154 0.55708 0.0
C421 C 0.80944 0.22534 0.50697 0.0
C422 C 0.18709 0.13775 0.50599 0.0
C423 C 0.17152 0.16126 0.47864 0.0
H424 H 0.17065 0.13852 0.5517 0.0
C425 C 0.13317 0.21169 0.47718 0.0
H426 H 0.21707 0.09924 0.50775 0.0
C427 C 0.1058 0.23378 0.50241 0.0
C428 C 0.11704 0.20627 0.52948 0.0
H429 H 0.12042 0.23074 0.45639 0.0
H430 H 0.07293 0.26968 0.50043 0.0
C431 C 0.16052 0.16039 0.5312 0.0
C432 C 0.30863 0.25636 1.00552 0.0
C433 C 0.29391 0.28051 0.03291 0.0
H434 H 0.30962 0.27042 0.95958 0.0
C435 C 0.25624 0.33142 0.03435 0.0
H436 H 0.33714 0.2167 1.00379 0.0
C437 C 0.24096 0.36269 0.00895 0.0
C438 C 0.26286 0.34317 0.98182 0.0
H439 H 0.24413 0.35105 0.05512 0.0
H440 H 0.21631 0.4049 0.01088 0.0
C441 C 0.29318 0.28741 0.98017 0.0
C442 C 0.32981 0.72149 0.97771 0.0
C443 C 0.28943 0.67289 0.98007 0.0
H444 H 0.39301 0.77808 0.99983 0.0
C445 C 0.27349 0.65176 0.00781 0.0
H446 H 0.34296 0.73858 0.95659 0.0
C447 C 0.3015 0.67475 0.03256 0.0
C448 C 0.34688 0.71851 0.02999 0.0
H449 H 0.24207 0.61463 0.01025 0.0
H450 H 0.29091 0.65457 0.05341 0.0
C451 C 0.35866 0.74386 1.00249 0.0
C452 C 0.70738 0.65448 0.03435 0.0
C453 C 0.66998 0.70564 0.03347 0.0
H454 H 0.74745 0.58233 0.01002 0.0
C455 C 0.65606 0.73167 1.00639 0.0
H456 H 0.7189 0.63347 0.05489 0.0
C457 C 0.67191 0.70219 0.98066 0.0
C458 C 0.70185 0.64616 0.98164 0.0
H459 H 0.62783 0.77161 1.00511 0.0
H460 H 0.656 0.72058 0.96026 0.0
C461 C 0.72312 0.62481 0.00858 0.0
C462 C 0.63415 0.26928 0.97812 0.0
C463 C 0.67269 0.31947 0.98009 0.0
H464 H 0.57277 0.21127 1.00063 0.0
C465 C 0.6874 0.34243 0.00766 0.0
H466 H 0.62203 0.25067 0.95714 0.0
C467 C 0.65983 0.31951 0.03256 0.0
C468 C 0.61616 0.27392 0.03029 0.0
H469 H 0.71749 0.38075 0.00982 0.0
H470 H 0.66933 0.34098 0.05322 0.0
C471 C 0.60576 0.24693 1.00303 0.0
loop_
_geom_bond_atom_site_label_1
_geom_bond_atom_site_label_2
_geom_bond_distance
_geom_bond_site_symmetry_2
_ccdc_geom_bond_type
Co0 O3 1.970 . S
Co0 N17 1.989 . S
Co0 O25 1.967 . S
Co0 O32 1.920 . S
Co1 O4 1.966 . S
Co1 N10 2.022 . S
Co1 N18 1.993 . S
Co1 O26 1.941 . S
C2 O3 1.258 . S
C2 O4 1.263 . S
O3 Co0 1.970 . S
O3 C2 1.258 . S
O4 Co1 1.966 . S
O4 C2 1.263 . S
C5 O6 1.235 . S
C5 O32 1.289 1_565 S
O6 C5 1.235 . S
C7 C9 1.400 . S
C7 N10 1.351 . S
C7 C12 1.501 . S
C8 C9 1.387 . S
C8 N11 1.341 . S
C9 C7 1.400 . S
C9 C8 1.387 . S
N10 Co1 2.022 . S
N10 C7 1.351 . S
N10 N11 1.365 . S
N11 C8 1.341 . S
N11 N10 1.365 . S
N11 H31 0.862 . S
C12 C7 1.501 . S
C12 H13 0.961 . S
C12 H14 0.961 . S
C12 H15 0.960 . S
H13 C12 0.961 . S
H14 C12 0.961 . S
H15 C12 0.960 . S
C16 N17 1.342 . S
C16 C20 1.401 . S
C16 C21 1.499 1_545 S
N17 Co0 1.989 . S
N17 C16 1.342 . S
N17 N18 1.388 . S
N18 Co1 1.993 . S
N18 N17 1.388 . S
N18 C19 1.346 . S
C19 N18 1.346 . S
C19 C20 1.396 . S
C19 C29 1.510 . S
C20 C16 1.401 . S
C20 C19 1.396 . S
C21 C16 1.499 1_565 S
C21 H22 0.959 . S
C21 H23 0.960 . S
C21 H24 0.961 1_565 S
H22 C21 0.959 . S
H23 C21 0.960 . S
H24 C21 0.961 1_545 S
O25 Co0 1.967 . S
O25 C33 1.258 . S
O26 Co1 1.941 . S
O26 C33 1.266 . S
H27 C29 0.959 . S
H28 C29 0.961 . S
C29 C19 1.510 . S
C29 H27 0.959 . S
C29 H28 0.961 . S
C29 H30 0.960 . S
H30 C29 0.960 . S
H31 N11 0.862 . S
O32 Co0 1.920 . S
O32 C5 1.289 1_545 S
C33 O25 1.258 . S
C33 O26 1.266 . S
Co34 O37 1.970 . S
Co34 N51 1.989 . S
Co34 O59 1.967 . S
Co34 O66 1.920 . S
Co35 O38 1.966 . S
Co35 N44 2.022 . S
Co35 N52 1.993 . S
Co35 O60 1.941 . S
C36 O37 1.258 . S
C36 O38 1.263 . S
O37 Co34 1.970 . S
O37 C36 1.258 . S
O38 Co35 1.966 . S
O38 C36 1.263 . S
C39 O40 1.235 . S
C39 O66 1.289 1_655 S
O40 C39 1.235 . S
C41 C43 1.400 . S
C41 N44 1.351 . S
C41 C46 1.501 . S
C42 C43 1.387 . S
C42 N45 1.341 . S
C43 C41 1.400 . S
C43 C42 1.387 . S
N44 Co35 2.022 . S
N44 C41 1.351 . S
N44 N45 1.365 . S
N45 C42 1.341 . S
N45 N44 1.365 . S
N45 H65 0.862 . S
C46 C41 1.501 . S
C46 H47 0.961 . S
C46 H48 0.961 . S
C46 H49 0.960 . S
H47 C46 0.961 . S
H48 C46 0.961 . S
H49 C46 0.960 . S
C50 N51 1.342 . S
C50 C54 1.401 . S
C50 C55 1.499 1_455 S
N51 Co34 1.989 . S
N51 C50 1.342 . S
N51 N52 1.388 . S
N52 Co35 1.993 . S
N52 N51 1.388 . S
N52 C53 1.346 . S
C53 N52 1.346 . S
C53 C54 1.396 . S
C53 C63 1.510 . S
C54 C50 1.401 . S
C54 C53 1.396 . S
C55 C50 1.499 1_655 S
C55 H56 0.959 . S
C55 H57 0.960 . S
C55 H58 0.961 1_655 S
H56 C55 0.959 . S
H57 C55 0.960 . S
H58 C55 0.961 1_455 S
O59 Co34 1.967 . S
O59 C67 1.258 . S
O60 Co35 1.941 . S
O60 C67 1.266 . S
H61 C63 0.959 . S
H62 C63 0.961 . S
C63 C53 1.510 . S
C63 H61 0.959 . S
C63 H62 0.961 . S
C63 H64 0.960 . S
H64 C63 0.960 . S
H65 N45 0.862 . S
O66 Co34 1.920 . S
O66 C39 1.289 1_455 S
C67 O59 1.258 . S
C67 O60 1.266 . S
Co68 O71 1.970 . S
Co68 N85 1.989 . S
Co68 O93 1.967 . S
Co68 O100 1.920 . S
Co69 O72 1.966 . S
Co69 N78 2.022 . S
Co69 N86 1.993 . S
Co69 O94 1.941 . S
C70 O71 1.258 . S
C70 O72 1.263 . S
O71 Co68 1.970 . S
O71 C70 1.258 . S
O72 Co69 1.966 . S
O72 C70 1.263 . S
C73 O74 1.235 . S
C73 O100 1.289 1_545 S
O74 C73 1.235 . S
C75 C77 1.400 . S
C75 N78 1.351 . S
C75 C80 1.501 . S
C76 C77 1.387 . S
C76 N79 1.341 . S
C77 C75 1.400 . S
C77 C76 1.387 . S
N78 Co69 2.022 . S
N78 C75 1.351 . S
N78 N79 1.365 . S
N79 C76 1.341 . S
N79 N78 1.365 . S
N79 H99 0.862 . S
C80 C75 1.501 . S
C80 H81 0.961 . S
C80 H82 0.961 . S
C80 H83 0.960 . S
H81 C80 0.961 . S
H82 C80 0.961 . S
H83 C80 0.960 . S
C84 N85 1.342 . S
C84 C88 1.401 . S
C84 C89 1.499 1_565 S
N85 Co68 1.989 . S
N85 C84 1.342 . S
N85 N86 1.388 . S
N86 Co69 1.993 . S
N86 N85 1.388 . S
N86 C87 1.346 . S
C87 N86 1.346 . S
C87 C88 1.396 . S
C87 C97 1.510 . S
C88 C84 1.401 . S
C88 C87 1.396 . S
C89 C84 1.499 1_545 S
C89 H90 0.959 . S
C89 H91 0.960 . S
C89 H92 0.961 1_545 S
H90 C89 0.959 . S
H91 C89 0.960 . S
H92 C89 0.961 1_565 S
O93 Co68 1.967 . S
O93 C101 1.258 . S
O94 Co69 1.941 . S
O94 C101 1.266 . S
H95 C97 0.959 . S
H96 C97 0.961 . S
C97 C87 1.510 . S
C97 H95 0.959 . S
C97 H96 0.961 . S
C97 H98 0.960 . S
H98 C97 0.960 . S
H99 N79 0.862 . S
O100 Co68 1.920 . S
O100 C73 1.289 1_565 S
C101 O93 1.258 . S
C101 O94 1.266 . S
Co102 O105 1.970 . S
Co102 N119 1.989 . S
Co102 O127 1.967 . S
Co102 O134 1.920 . S
Co103 O106 1.966 . S
Co103 N112 2.022 . S
Co103 N120 1.993 . S
Co103 O128 1.941 . S
C104 O105 1.258 . S
C104 O106 1.263 . S
O105 Co102 1.970 . S
O105 C104 1.258 . S
O106 Co103 1.966 . S
O106 C104 1.263 . S
C107 O108 1.235 . S
C107 O134 1.289 1_455 S
O108 C107 1.235 . S
C109 C111 1.400 . S
C109 N112 1.351 . S
C109 C114 1.501 . S
C110 C111 1.387 . S
C110 N113 1.341 . S
C111 C109 1.400 . S
C111 C110 1.387 . S
N112 Co103 2.022 . S
N112 C109 1.351 . S
N112 N113 1.365 . S
N113 C110 1.341 . S
N113 N112 1.365 . S
N113 H133 0.862 . S
C114 C109 1.501 . S
C114 H115 0.961 . S
C114 H116 0.961 . S
C114 H117 0.960 . S
H115 C114 0.961 . S
H116 C114 0.961 . S
H117 C114 0.960 . S
C118 N119 1.342 . S
C118 C122 1.401 . S
C118 C123 1.499 1_655 S
N119 Co102 1.989 . S
N119 C118 1.342 . S
N119 N120 1.388 . S
N120 Co103 1.993 . S
N120 N119 1.388 . S
N120 C121 1.346 . S
C121 N120 1.346 . S
C121 C122 1.396 . S
C121 C131 1.510 . S
C122 C118 1.401 . S
C122 C121 1.396 . S
C123 C118 1.499 1_455 S
C123 H124 0.959 . S
C123 H125 0.960 . S
C123 H126 0.961 1_455 S
H124 C123 0.959 . S
H125 C123 0.960 . S
H126 C123 0.961 1_655 S
O127 Co102 1.967 . S
O127 C135 1.258 . S
O128 Co103 1.941 . S
O128 C135 1.266 . S
H129 C131 0.959 . S
H130 C131 0.961 . S
C131 C121 1.510 . S
C131 H129 0.959 . S
C131 H130 0.961 . S
C131 H132 0.960 . S
H132 C131 0.960 . S
H133 N113 0.862 . S
O134 Co102 1.920 . S
O134 C107 1.289 1_655 S
C135 O127 1.258 . S
C135 O128 1.266 . S
Co136 O139 1.970 . S
Co136 N153 1.989 . S
Co136 O161 1.967 . S
Co136 O168 1.920 . S
Co137 O140 1.966 . S
Co137 N146 2.022 . S
Co137 N154 1.993 . S
Co137 O162 1.941 . S
C138 O139 1.258 . S
C138 O140 1.263 . S
O139 Co136 1.970 . S
O139 C138 1.258 . S
O140 Co137 1.966 . S
O140 C138 1.263 . S
C141 O142 1.235 . S
C141 O168 1.289 . S
O142 C141 1.235 . S
C143 C145 1.400 . S
C143 N146 1.351 . S
C143 C148 1.501 . S
C144 C145 1.387 . S
C144 N147 1.341 . S
C145 C143 1.400 . S
C145 C144 1.387 . S
N146 Co137 2.022 . S
N146 C143 1.351 . S
N146 N147 1.365 . S
N147 C144 1.341 . S
N147 N146 1.365 . S
N147 H167 0.862 . S
C148 C143 1.501 . S
C148 H149 0.961 . S
C148 H150 0.961 . S
C148 H151 0.960 . S
H149 C148 0.961 . S
H150 C148 0.961 . S
H151 C148 0.960 . S
C152 N153 1.342 . S
C152 C156 1.401 . S
C152 C157 1.499 . S
N153 Co136 1.989 . S
N153 C152 1.342 . S
N153 N154 1.388 . S
N154 Co137 1.993 . S
N154 N153 1.388 . S
N154 C155 1.346 . S
C155 N154 1.346 . S
C155 C156 1.396 . S
C155 C165 1.510 . S
C156 C152 1.401 . S
C156 C155 1.396 . S
C157 C152 1.499 . S
C157 H158 0.959 . S
C157 H159 0.960 . S
C157 H160 0.961 . S
H158 C157 0.959 . S
H159 C157 0.960 . S
H160 C157 0.961 . S
O161 Co136 1.967 . S
O161 C169 1.258 . S
O162 Co137 1.941 . S
O162 C169 1.266 . S
H163 C165 0.959 . S
H164 C165 0.961 . S
C165 C155 1.510 . S
C165 H163 0.959 . S
C165 H164 0.961 . S
C165 H166 0.960 . S
H166 C165 0.960 . S
H167 N147 0.862 . S
O168 Co136 1.920 . S
O168 C141 1.289 . S
C169 O161 1.258 . S
C169 O162 1.266 . S
Co170 O173 1.970 . S
Co170 N187 1.989 . S
Co170 O195 1.967 . S
Co170 O202 1.920 . S
Co171 O174 1.966 . S
Co171 N180 2.022 . S
Co171 N188 1.993 . S
Co171 O196 1.941 . S
C172 O173 1.258 . S
C172 O174 1.263 . S
O173 Co170 1.970 . S
O173 C172 1.258 . S
O174 Co171 1.966 . S
O174 C172 1.263 . S
C175 O176 1.235 . S
C175 O202 1.289 . S
O176 C175 1.235 . S
C177 C179 1.400 . S
C177 N180 1.351 . S
C177 C182 1.501 . S
C178 C179 1.387 . S
C178 N181 1.341 . S
C179 C177 1.400 . S
C179 C178 1.387 . S
N180 Co171 2.022 . S
N180 C177 1.351 . S
N180 N181 1.365 . S
N181 C178 1.341 . S
N181 N180 1.365 . S
N181 H201 0.862 . S
C182 C177 1.501 . S
C182 H183 0.961 . S
C182 H184 0.961 . S
C182 H185 0.960 . S
H183 C182 0.961 . S
H184 C182 0.961 . S
H185 C182 0.960 . S
C186 N187 1.342 . S
C186 C190 1.401 . S
C186 C191 1.499 . S
N187 Co170 1.989 . S
N187 C186 1.342 . S
N187 N188 1.388 . S
N188 Co171 1.993 . S
N188 N187 1.388 . S
N188 C189 1.346 . S
C189 N188 1.346 . S
C189 C190 1.396 . S
C189 C199 1.510 . S
C190 C186 1.401 . S
C190 C189 1.396 . S
C191 C186 1.499 . S
C191 H192 0.959 . S
C191 H193 0.960 . S
C191 H194 0.961 . S
H192 C191 0.959 . S
H193 C191 0.960 . S
H194 C191 0.961 . S
O195 Co170 1.967 . S
O195 C203 1.258 . S
O196 Co171 1.941 . S
O196 C203 1.266 . S
H197 C199 0.959 . S
H198 C199 0.961 . S
C199 C189 1.510 . S
C199 H197 0.959 . S
C199 H198 0.961 . S
C199 H200 0.960 . S
H200 C199 0.960 . S
H201 N181 0.862 . S
O202 Co170 1.920 . S
O202 C175 1.289 . S
C203 O195 1.258 . S
C203 O196 1.266 . S
Co204 O207 1.970 . S
Co204 N221 1.989 . S
Co204 O229 1.967 . S
Co204 O236 1.920 . S
Co205 O208 1.966 . S
Co205 N214 2.022 . S
Co205 N222 1.993 . S
Co205 O230 1.941 . S
C206 O207 1.258 . S
C206 O208 1.263 . S
O207 Co204 1.970 . S
O207 C206 1.258 . S
O208 Co205 1.966 . S
O208 C206 1.263 . S
C209 O210 1.235 . S
C209 O236 1.289 . S
O210 C209 1.235 . S
C211 C213 1.400 . S
C211 N214 1.351 . S
C211 C216 1.501 . S
C212 C213 1.387 . S
C212 N215 1.341 . S
C213 C211 1.400 . S
C213 C212 1.387 . S
N214 Co205 2.022 . S
N214 C211 1.351 . S
N214 N215 1.365 . S
N215 C212 1.341 . S
N215 N214 1.365 . S
N215 H235 0.862 . S
C216 C211 1.501 . S
C216 H217 0.961 . S
C216 H218 0.961 . S
C216 H219 0.960 . S
H217 C216 0.961 . S
H218 C216 0.961 . S
H219 C216 0.960 . S
C220 N221 1.342 . S
C220 C224 1.401 . S
C220 C225 1.499 . S
N221 Co204 1.989 . S
N221 C220 1.342 . S
N221 N222 1.388 . S
N222 Co205 1.993 . S
N222 N221 1.388 . S
N222 C223 1.346 . S
C223 N222 1.346 . S
C223 C224 1.396 . S
C223 C233 1.510 . S
C224 C220 1.401 . S
C224 C223 1.396 . S
C225 C220 1.499 . S
C225 H226 0.959 . S
C225 H227 0.960 . S
C225 H228 0.961 . S
H226 C225 0.959 . S
H227 C225 0.960 . S
H228 C225 0.961 . S
O229 Co204 1.967 . S
O229 C237 1.258 . S
O230 Co205 1.941 . S
O230 C237 1.266 . S
H231 C233 0.959 . S
H232 C233 0.961 . S
C233 C223 1.510 . S
C233 H231 0.959 . S
C233 H232 0.961 . S
C233 H234 0.960 . S
H234 C233 0.960 . S
H235 N215 0.862 . S
O236 Co204 1.920 . S
O236 C209 1.289 . S
C237 O229 1.258 . S
C237 O230 1.266 . S
Co238 O241 1.970 . S
Co238 N255 1.989 . S
Co238 O263 1.967 . S
Co238 O270 1.920 . S
Co239 O242 1.966 . S
Co239 N248 2.022 . S
Co239 N256 1.993 . S
Co239 O264 1.941 . S
C240 O241 1.258 . S
C240 O242 1.263 . S
O241 Co238 1.970 . S
O241 C240 1.258 . S
O242 Co239 1.966 . S
O242 C240 1.263 . S
C243 O244 1.235 . S
C243 O270 1.289 . S
O244 C243 1.235 . S
C245 C247 1.400 . S
C245 N248 1.351 . S
C245 C250 1.501 . S
C246 C247 1.387 . S
C246 N249 1.341 . S
C247 C245 1.400 . S
C247 C246 1.387 . S
N248 Co239 2.022 . S
N248 C245 1.351 . S
N248 N249 1.365 . S
N249 C246 1.341 . S
N249 N248 1.365 . S
N249 H269 0.862 . S
C250 C245 1.501 . S
C250 H251 0.961 . S
C250 H252 0.961 . S
C250 H253 0.960 . S
H251 C250 0.961 . S
H252 C250 0.961 . S
H253 C250 0.960 . S
C254 N255 1.342 . S
C254 C258 1.401 . S
C254 C259 1.499 . S
N255 Co238 1.989 . S
N255 C254 1.342 . S
N255 N256 1.388 . S
N256 Co239 1.993 . S
N256 N255 1.388 . S
N256 C257 1.346 . S
C257 N256 1.346 . S
C257 C258 1.396 . S
C257 C267 1.510 . S
C258 C254 1.401 . S
C258 C257 1.396 . S
C259 C254 1.499 . S
C259 H260 0.959 . S
C259 H261 0.960 . S
C259 H262 0.961 . S
H260 C259 0.959 . S
H261 C259 0.960 . S
H262 C259 0.961 . S
O263 Co238 1.967 . S
O263 C271 1.258 . S
O264 Co239 1.941 . S
O264 C271 1.266 . S
H265 C267 0.959 . S
H266 C267 0.961 . S
C267 C257 1.510 . S
C267 H265 0.959 . S
C267 H266 0.961 . S
C267 H268 0.960 . S
H268 C267 0.960 . S
H269 N249 0.862 . S
O270 Co238 1.920 . S
O270 C243 1.289 . S
C271 O263 1.258 . S
C271 O264 1.266 . S
C272 C273 1.387 . S
C272 H276 0.950 . S
C272 C281 1.390 1_565 S
C273 C272 1.387 . S
C273 C275 1.387 . S
H274 C281 0.950 . S
C275 C273 1.387 . S
C275 C277 1.390 1_565 S
C275 H279 0.950 . S
H276 C272 0.950 . S
C277 C275 1.390 1_545 S
C277 C278 1.387 . S
C277 H280 0.950 . S
C278 C277 1.387 . S
C278 C281 1.387 . S
H279 C275 0.950 . S
H280 C277 0.950 . S
C281 C272 1.390 1_545 S
C281 H274 0.950 . S
C281 C278 1.387 . S
C282 C283 1.387 . S
C282 H286 0.950 . S
C282 C291 1.390 1_655 S
C283 C282 1.387 . S
C283 C285 1.387 . S
H284 C291 0.950 . S
C285 C283 1.387 . S
C285 C287 1.390 1_655 S
C285 H289 0.950 . S
H286 C282 0.950 . S
C287 C285 1.390 1_455 S
C287 C288 1.387 . S
C287 H290 0.950 . S
C288 C287 1.387 . S
C288 C291 1.387 . S
H289 C285 0.950 . S
H290 C287 0.950 . S
C291 C282 1.390 1_455 S
C291 H284 0.950 . S
C291 C288 1.387 . S
C292 C293 1.387 . S
C292 H296 0.950 . S
C292 C301 1.390 1_655 S
C293 C292 1.387 . S
C293 C295 1.387 . S
H294 C301 0.950 . S
C295 C293 1.387 . S
C295 C297 1.390 1_655 S
C295 H299 0.950 . S
H296 C292 0.950 . S
C297 C295 1.390 1_455 S
C297 C298 1.387 . S
C297 H300 0.950 . S
C298 C297 1.387 . S
C298 C301 1.387 . S
H299 C295 0.950 . S
H300 C297 0.950 . S
C301 C292 1.390 1_455 S
C301 H294 0.950 . S
C301 C298 1.387 . S
C302 C303 1.387 . S
C302 H306 0.950 . S
C302 C311 1.390 1_545 S
C303 C302 1.387 . S
C303 C305 1.387 . S
H304 C311 0.950 . S
C305 C303 1.387 . S
C305 C307 1.390 1_545 S
C305 H309 0.950 . S
H306 C302 0.950 . S
C307 C305 1.390 1_565 S
C307 C308 1.387 . S
C307 H310 0.950 . S
C308 C307 1.387 . S
C308 C311 1.387 . S
H309 C305 0.950 . S
H310 C307 0.950 . S
C311 C302 1.390 1_565 S
C311 H304 0.950 . S
C311 C308 1.387 . S
C312 C313 1.387 . S
C312 H316 0.950 . S
C312 C321 1.390 1_445 S
C313 C312 1.387 . S
C313 C315 1.387 . S
H314 C321 0.950 . S
C315 C313 1.387 . S
C315 C317 1.390 1_445 S
C315 H319 0.950 . S
H316 C312 0.950 . S
C317 C315 1.390 1_665 S
C317 C318 1.387 . S
C317 H320 0.950 . S
C318 C317 1.387 . S
C318 C321 1.387 . S
H319 C315 0.950 . S
H320 C317 0.950 . S
C321 C312 1.390 1_665 S
C321 H314 0.950 . S
C321 C318 1.387 . S
C322 C323 1.387 . S
C322 H326 0.950 . S
C322 C331 1.390 1_645 S
C323 C322 1.387 . S
C323 C325 1.387 . S
H324 C331 0.950 . S
C325 C323 1.387 . S
C325 C327 1.390 1_645 S
C325 H329 0.950 . S
H326 C322 0.950 . S
C327 C325 1.390 1_465 S
C327 C328 1.387 . S
C327 H330 0.950 . S
C328 C327 1.387 . S
C328 C331 1.387 . S
H329 C325 0.950 . S
H330 C327 0.950 . S
C331 C322 1.390 1_465 S
C331 H324 0.950 . S
C331 C328 1.387 . S
C332 C333 1.387 . S
C332 H336 0.950 . S
C332 C341 1.390 . S
C333 C332 1.387 . S
C333 C335 1.387 . S
H334 C341 0.950 . S
C335 C333 1.387 . S
C335 C337 1.390 . S
C335 H339 0.950 . S
H336 C332 0.950 . S
C337 C335 1.390 . S
C337 C338 1.387 . S
C337 H340 0.950 . S
C338 C337 1.387 . S
C338 C341 1.387 . S
H339 C335 0.950 . S
H340 C337 0.950 . S
C341 C332 1.390 . S
C341 H334 0.950 . S
C341 C338 1.387 . S
C342 C343 1.387 . S
C342 H346 0.950 . S
C342 C351 1.390 . S
C343 C342 1.387 . S
C343 C345 1.387 . S
H344 C351 0.950 . S
C345 C343 1.387 . S
C345 C347 1.390 . S
C345 H349 0.950 . S
H346 C342 0.950 . S
C347 C345 1.390 . S
C347 C348 1.387 . S
C347 H350 0.950 . S
C348 C347 1.387 . S
C348 C351 1.387 . S
H349 C345 0.950 . S
H350 C347 0.950 . S
C351 C342 1.390 . S
C351 H344 0.950 . S
C351 C348 1.387 . S
C352 C353 1.387 . S
C352 H356 0.950 . S
C352 C361 1.390 . S
C353 C352 1.387 . S
C353 C355 1.387 . S
H354 C361 0.950 . S
C355 C353 1.387 . S
C355 C357 1.390 . S
C355 H359 0.950 . S
H356 C352 0.950 . S
C357 C355 1.390 . S
C357 C358 1.387 . S
C357 H360 0.950 . S
C358 C357 1.387 . S
C358 C361 1.387 . S
H359 C355 0.950 . S
H360 C357 0.950 . S
C361 C352 1.390 . S
C361 H354 0.950 . S
C361 C358 1.387 . S
C362 C363 1.387 . S
C362 H366 0.950 . S
C362 C371 1.390 . S
C363 C362 1.387 . S
C363 C365 1.387 . S
H364 C371 0.950 . S
C365 C363 1.387 . S
C365 C367 1.390 . S
C365 H369 0.950 . S
H366 C362 0.950 . S
C367 C365 1.390 . S
C367 C368 1.387 . S
C367 H370 0.950 . S
C368 C367 1.387 . S
C368 C371 1.387 . S
H369 C365 0.950 . S
H370 C367 0.950 . S
C371 C362 1.390 . S
C371 H364 0.950 . S
C371 C368 1.387 . S
C372 C373 1.387 . S
C372 H376 0.950 . S
C372 C381 1.390 . S
C373 C372 1.387 . S
C373 C375 1.387 . S
H374 C381 0.950 . S
C375 C373 1.387 . S
C375 C377 1.390 . S
C375 H379 0.950 . S
H376 C372 0.950 . S
C377 C375 1.390 . S
C377 C378 1.387 . S
C377 H380 0.950 . S
C378 C377 1.387 . S
C378 C381 1.387 . S
H379 C375 0.950 . S
H380 C377 0.950 . S
C381 C372 1.390 . S
C381 H374 0.950 . S
C381 C378 1.387 . S
C382 C383 1.387 . S
C382 H386 0.950 . S
C382 C391 1.390 . S
C383 C382 1.387 . S
C383 C385 1.387 . S
H384 C391 0.950 . S
C385 C383 1.387 . S
C385 C387 1.390 . S
C385 H389 0.950 . S
H386 C382 0.950 . S
C387 C385 1.390 . S
C387 C388 1.387 . S
C387 H390 0.950 . S
C388 C387 1.387 . S
C388 C391 1.387 . S
H389 C385 0.950 . S
H390 C387 0.950 . S
C391 C382 1.390 . S
C391 H384 0.950 . S
C391 C388 1.387 . S
C392 C393 1.387 . S
C392 H396 0.950 . S
C392 C401 1.390 . S
C393 C392 1.387 . S
C393 C395 1.387 . S
H394 C401 0.950 . S
C395 C393 1.387 . S
C395 C397 1.390 . S
C395 H399 0.950 . S
H396 C392 0.950 . S
C397 C395 1.390 . S
C397 C398 1.387 . S
C397 H400 0.950 . S
C398 C397 1.387 . S
C398 C401 1.387 . S
H399 C395 0.950 . S
H400 C397 0.950 . S
C401 C392 1.390 . S
C401 H394 0.950 . S
C401 C398 1.387 . S
C402 C403 1.387 . S
C402 H406 0.950 . S
C402 C411 1.390 . S
C403 C402 1.387 . S
C403 C405 1.387 . S
H404 C411 0.950 . S
C405 C403 1.387 . S
C405 C407 1.390 . S
C405 H409 0.950 . S
H406 C402 0.950 . S
C407 C405 1.390 . S
C407 C408 1.387 . S
C407 H410 0.950 . S
C408 C407 1.387 . S
C408 C411 1.387 . S
H409 C405 0.950 . S
H410 C407 0.950 . S
C411 C402 1.390 . S
C411 H404 0.950 . S
C411 C408 1.387 . S
C412 C413 1.387 . S
C412 H416 0.950 . S
C412 C421 1.390 . S
C413 C412 1.387 . S
C413 C415 1.387 . S
H414 C421 0.950 . S
C415 C413 1.387 . S
C415 C417 1.390 . S
C415 H419 0.950 . S
H416 C412 0.950 . S
C417 C415 1.390 . S
C417 C418 1.387 . S
C417 H420 0.950 . S
C418 C417 1.387 . S
C418 C421 1.387 . S
H419 C415 0.950 . S
H420 C417 0.950 . S
C421 C412 1.390 . S
C421 H414 0.950 . S
C421 C418 1.387 . S
C422 C423 1.387 . S
C422 H426 0.950 . S
C422 C431 1.390 . S
C423 C422 1.387 . S
C423 C425 1.387 . S
H424 C431 0.950 . S
C425 C423 1.387 . S
C425 C427 1.390 . S
C425 H429 0.950 . S
H426 C422 0.950 . S
C427 C425 1.390 . S
C427 C428 1.387 . S
C427 H430 0.950 . S
C428 C427 1.387 . S
C428 C431 1.387 . S
H429 C425 0.950 . S
H430 C427 0.950 . S
C431 C422 1.390 . S
C431 H424 0.950 . S
C431 C428 1.387 . S
C432 C433 1.387 . S
C432 H436 0.950 . S
C432 C441 1.390 . S
C433 C432 1.387 . S
C433 C435 1.387 . S
H434 C441 0.950 . S
C435 C433 1.387 . S
C435 C437 1.390 . S
C435 H439 0.950 . S
H436 C432 0.950 . S
C437 C435 1.390 . S
C437 C438 1.387 1_554 S
C437 H440 0.940 1_554 S
C438 C437 1.387 1_556 S
C438 C441 1.387 1_556 S
H439 C435 0.950 . S
H440 C437 0.940 1_556 S
C441 C432 1.390 . S
C441 H434 0.950 . S
C441 C438 1.387 1_554 S
C442 C443 1.387 . S
C442 H446 0.950 . S
C442 C451 1.390 . S
C443 C442 1.387 . S
C443 C445 1.387 . S
H444 C451 0.950 . S
C445 C443 1.387 . S
C445 C447 1.390 . S
C445 H449 0.950 . S
H446 C442 0.950 . S
C447 C445 1.390 . S
C447 C448 1.387 1_556 S
C447 H450 0.950 1_556 S
C448 C447 1.387 1_554 S
C448 C451 1.387 1_554 S
H449 C445 0.950 . S
H450 C447 0.950 1_554 S
C451 C442 1.390 . S
C451 H444 0.950 . S
C451 C448 1.387 1_556 S
C452 C453 1.387 . S
C452 H456 0.950 . S
C452 C461 1.390 . S
C453 C452 1.387 . S
C453 C455 1.387 . S
H454 C461 0.950 . S
C455 C453 1.387 . S
C455 C457 1.390 . S
C455 H459 0.950 . S
H456 C452 0.950 . S
C457 C455 1.390 . S
C457 C458 1.387 1_554 S
C457 H460 0.950 1_554 S
C458 C457 1.387 1_556 S
C458 C461 1.387 1_556 S
H459 C455 0.950 . S
H460 C457 0.950 1_556 S
C461 C452 1.390 . S
C461 H454 0.950 . S
C461 C458 1.387 1_554 S
C462 C463 1.387 . S
C462 H466 0.950 . S
C462 C471 1.390 . S
C463 C462 1.387 . S
C463 C465 1.387 . S
H464 C471 0.950 . S
C465 C463 1.387 . S
C465 C467 1.390 . S
C465 H469 0.950 . S
H466 C462 0.950 . S
C467 C465 1.390 . S
C467 C468 1.387 1_556 S
C467 H470 0.950 1_556 S
C468 C467 1.387 1_554 S
C468 C471 1.387 1_554 S
H469 C465 0.950 . S
H470 C467 0.950 1_554 S
C471 C462 1.390 . S
C471 H464 0.950 . S
C471 C468 1.387 1_556 S
C273 C88 1.290 . S
C278 C20 1.290 . S
C283 C122 1.287 . S
C288 C54 1.287 . S
C293 C224 1.287 . S
C298 C156 1.287 . S
C303 C258 1.287 . S
C308 C190 1.287 . S
C313 C2 1.512 . S
C318 C70 1.512 . S
C323 C104 1.512 . S
C328 C36 1.512 . S
C333 C206 1.512 . S
C338 C138 1.512 . S
C343 C240 1.512 . S
C348 C172 1.512 . S
C353 C247 1.548 . S
C358 C9 1.547 . S
C363 C145 1.547 . S
C368 C43 1.547 . S
C373 C77 1.547 . S
C378 C179 1.547 . S
C383 C213 1.547 . S
C388 C111 1.548 . S
C393 C67 0.844 . S
C398 C5 0.874 . S
C403 C101 0.841 . S
C408 C39 0.875 . S
C413 C73 0.876 . S
C418 C135 0.842 . S
C423 C33 0.839 . S
C428 C107 0.872 . S
C433 C271 0.839 . S
C438 C141 0.872 . S
C443 C169 0.841 . S
C448 C175 0.875 . S
C453 C203 0.840 . S
C458 C209 0.872 . S
C463 C237 0.841 . S
C468 C243 0.875 . S
