# Generated by pormake.
# Topology umd, (4)-cn, num edge types: 1
# Building blocks:
#     Node 0, Type 0, BuildingBlock: NAWXER_clean_sbu_0, # of connection points: 4
#     Node 1, Type 0, BuildingBlock: NAWXER_clean_sbu_0, # of connection points: 4
#     Node 2, Type 0, BuildingBlock: NAWXER_clean_sbu_0, # of connection points: 4
#     Node 3, Type 0, BuildingBlock: NAWXER_clean_sbu_0, # of connection points: 4
#     Node 4, Type 0, BuildingBlock: NAWXER_clean_sbu_0, # of connection points: 4
#     Node 5, Type 0, BuildingBlock: NAWXER_clean_sbu_0, # of connection points: 4
#     Node 6, Type 0, BuildingBlock: NAWXER_clean_sbu_0, # of connection points: 4
#     Node 7, Type 0, BuildingBlock: NAWXER_clean_sbu_0, # of connection points: 4
#     Node 8, Type 0, BuildingBlock: NAWXER_clean_sbu_0, # of connection points: 4
#     Node 9, Type 0, BuildingBlock: NAWXER_clean_sbu_0, # of connection points: 4
#     Node 10, Type 0, BuildingBlock: NAWXER_clean_sbu_0, # of connection points: 4
#     Node 11, Type 0, BuildingBlock: NAWXER_clean_sbu_0, # of connection points: 4
#     Node 12, Type 0, BuildingBlock: NAWXER_clean_sbu_0, # of connection points: 4
#     Node 13, Type 0, BuildingBlock: NAWXER_clean_sbu_0, # of connection points: 4
#     Node 14, Type 0, BuildingBlock: NAWXER_clean_sbu_0, # of connection points: 4
#     Node 15, Type 0, BuildingBlock: NAWXER_clean_sbu_0, # of connection points: 4
#     Edge 16, Type (0, 0), BuildingBlock: TEMPAE_clean_linker_10, # of connection points: 2
#     Edge 17, Type (0, 0), BuildingBlock: TEMPAE_clean_linker_10, # of connection points: 2
#     Edge 18, Type (0, 0), BuildingBlock: TEMPAE_clean_linker_10, # of connection points: 2
#     Edge 19, Type (0, 0), BuildingBlock: TEMPAE_clean_linker_10, # of connection points: 2
#     Edge 20, Type (0, 0), BuildingBlock: TEMPAE_clean_linker_10, # of connection points: 2
#     Edge 21, Type (0, 0), BuildingBlock: TEMPAE_clean_linker_10, # of connection points: 2
#     Edge 22, Type (0, 0), BuildingBlock: TEMPAE_clean_linker_10, # of connection points: 2
#     Edge 23, Type (0, 0), BuildingBlock: TEMPAE_clean_linker_10, # of connection points: 2
#     Edge 24, Type (0, 0), BuildingBlock: TEMPAE_clean_linker_10, # of connection points: 2
#     Edge 25, Type (0, 0), BuildingBlock: TEMPAE_clean_linker_10, # of connection points: 2
#     Edge 26, Type (0, 0), BuildingBlock: TEMPAE_clean_linker_10, # of connection points: 2
#     Edge 27, Type (0, 0), BuildingBlock: TEMPAE_clean_linker_10, # of connection points: 2
#     Edge 28, Type (0, 0), BuildingBlock: TEMPAE_clean_linker_10, # of connection points: 2
#     Edge 29, Type (0, 0), BuildingBlock: TEMPAE_clean_linker_10, # of connection points: 2
#     Edge 30, Type (0, 0), BuildingBlock: TEMPAE_clean_linker_10, # of connection points: 2
#     Edge 31, Type (0, 0), BuildingBlock: TEMPAE_clean_linker_10, # of connection points: 2
#     Edge 32, Type (0, 0), BuildingBlock: TEMPAE_clean_linker_10, # of connection points: 2
#     Edge 33, Type (0, 0), BuildingBlock: TEMPAE_clean_linker_10, # of connection points: 2
#     Edge 34, Type (0, 0), BuildingBlock: TEMPAE_clean_linker_10, # of connection points: 2
#     Edge 35, Type (0, 0), BuildingBlock: TEMPAE_clean_linker_10, # of connection points: 2
#     Edge 36, Type (0, 0), BuildingBlock: TEMPAE_clean_linker_10, # of connection points: 2
#     Edge 37, Type (0, 0), BuildingBlock: TEMPAE_clean_linker_10, # of connection points: 2
#     Edge 38, Type (0, 0), BuildingBlock: TEMPAE_clean_linker_10, # of connection points: 2
#     Edge 39, Type (0, 0), BuildingBlock: TEMPAE_clean_linker_10, # of connection points: 2
#     Edge 40, Type (0, 0), BuildingBlock: TEMPAE_clean_linker_10, # of connection points: 2
#     Edge 41, Type (0, 0), BuildingBlock: TEMPAE_clean_linker_10, # of connection points: 2
#     Edge 42, Type (0, 0), BuildingBlock: TEMPAE_clean_linker_10, # of connection points: 2
#     Edge 43, Type (0, 0), BuildingBlock: TEMPAE_clean_linker_10, # of connection points: 2
#     Edge 44, Type (0, 0), BuildingBlock: TEMPAE_clean_linker_10, # of connection points: 2
#     Edge 45, Type (0, 0), BuildingBlock: TEMPAE_clean_linker_10, # of connection points: 2
#     Edge 46, Type (0, 0), BuildingBlock: TEMPAE_clean_linker_10, # of connection points: 2
#     Edge 47, Type (0, 0), BuildingBlock: TEMPAE_clean_linker_10, # of connection points: 2
# Relax obj value: 0.021
# Max RMSD: 0.190
# Mean RMSD: 0.190
data_MOF--net-umd--node1-NAWXER_clean_sbu_0--edge1-TEMPAE_clean_linker_10
_symmetry_space_group_name_H-M    P1
_symmetry_Int_Tables_number       1
_symmetry_cell_setting            triclinic
loop_
_symmetry_equiv_pos_as_xyz
'x, y, z'
_cell_length_a     40.936362
_cell_length_b     40.922159
_cell_length_c     58.961294
_cell_angle_alpha  90.019207
_cell_angle_beta   90.026205
_cell_angle_gamma 90.011215
loop_
_atom_site_label
_atom_site_type_symbol
_atom_site_fract_x
_atom_site_fract_y
_atom_site_fract_z
_atom_type_partial_charge
C0 C 0.11239 0.44902 0.13304 0.0
C1 C 0.21416 0.38853 0.13726 0.0
O2 O 0.11675 0.41862 0.13596 0.0
Zn3 Zn 0.1636 0.41947 0.13548 0.0
O4 O 0.13716 0.46808 0.13115 0.0
Zn5 Zn 0.18989 0.46303 0.13187 0.0
O6 O 0.20166 0.47997 0.1026 0.0
O7 O 0.17495 0.43314 0.10089 0.0
O8 O 0.21965 0.41929 0.1352 0.0
O9 O 0.18499 0.37817 0.13815 0.0
O10 O 0.17465 0.44445 0.16692 0.0
O11 O 0.20233 0.4887 0.15776 0.0
C12 C 0.18945 0.45695 0.09092 0.0
C13 C 0.18947 0.47076 0.17286 0.0
C14 C 0.54101 0.19053 0.59224 0.0
C15 C 0.53139 0.19378 0.67456 0.0
O16 O 0.52006 0.20568 0.60414 0.0
Zn17 Zn 0.53702 0.19303 0.63334 0.0
O18 O 0.56386 0.17431 0.602 0.0
Zn19 Zn 0.57905 0.16399 0.63638 0.0
O20 O 0.57758 0.11734 0.63642 0.0
O21 O 0.52879 0.14038 0.63427 0.0
O22 O 0.55592 0.17661 0.6681 0.0
O23 O 0.514 0.2082 0.65981 0.0
O24 O 0.58221 0.22001 0.63459 0.0
O25 O 0.62149 0.1837 0.63907 0.0
C26 C 0.54673 0.11465 0.63527 0.0
C27 C 0.61258 0.21322 0.63704 0.0
C28 C 0.80791 0.53522 0.17136 0.0
C29 C 0.81209 0.54587 0.08924 0.0
O30 O 0.79432 0.51756 0.15637 0.0
Zn31 Zn 0.80927 0.54145 0.13031 0.0
O32 O 0.82487 0.56007 0.1652 0.0
Zn33 Zn 0.83903 0.58286 0.13362 0.0
O34 O 0.82029 0.62586 0.13488 0.0
O35 O 0.78307 0.58696 0.13321 0.0
O36 O 0.82941 0.56779 0.09913 0.0
O37 O 0.79559 0.52584 0.10101 0.0
O38 O 0.86178 0.53229 0.13041 0.0
O39 O 0.88551 0.58029 0.13546 0.0
C40 C 0.79051 0.61734 0.13454 0.0
C41 C 0.88777 0.5496 0.13278 0.0
C42 C 0.45603 0.81159 0.59001 0.0
C43 C 0.46168 0.81123 0.67246 0.0
O44 O 0.47817 0.80001 0.60273 0.0
Zn45 Zn 0.45868 0.81206 0.63142 0.0
O46 O 0.43157 0.82637 0.59886 0.0
Zn47 Zn 0.41549 0.83934 0.63237 0.0
O48 O 0.4161 0.88621 0.63152 0.0
O49 O 0.46543 0.86452 0.63265 0.0
O50 O 0.4367 0.82731 0.66533 0.0
O51 O 0.48083 0.79805 0.65821 0.0
O52 O 0.41385 0.78362 0.63309 0.0
O53 O 0.37337 0.81934 0.63331 0.0
C54 C 0.44685 0.88976 0.6323 0.0
C55 C 0.38312 0.78991 0.63357 0.0
C56 C 0.18753 0.53792 0.33779 0.0
C57 C 0.18662 0.54696 0.42006 0.0
O58 O 0.20079 0.51946 0.35244 0.0
Zn59 Zn 0.18693 0.5429 0.37875 0.0
O60 O 0.17172 0.56338 0.34437 0.0
Zn61 Zn 0.16002 0.58628 0.37681 0.0
O62 O 0.18048 0.62809 0.37525 0.0
O63 O 0.21584 0.58735 0.37662 0.0
O64 O 0.17225 0.57126 0.41068 0.0
O65 O 0.19827 0.52428 0.40783 0.0
O66 O 0.13443 0.53672 0.37748 0.0
O67 O 0.11321 0.58633 0.37751 0.0
C68 C 0.2098 0.61811 0.37556 0.0
C69 C 0.1094 0.55558 0.37734 0.0
C70 C 0.45022 0.18658 0.92152 0.0
C71 C 0.46602 0.19102 0.83967 0.0
O72 O 0.47169 0.20225 0.91041 0.0
Zn73 Zn 0.45738 0.18941 0.88077 0.0
O74 O 0.42847 0.16983 0.91091 0.0
Zn75 Zn 0.41606 0.16002 0.87565 0.0
O76 O 0.4183 0.11362 0.87397 0.0
O77 O 0.46609 0.13688 0.8807 0.0
O78 O 0.44107 0.17384 0.84515 0.0
O79 O 0.48249 0.20497 0.85514 0.0
O80 O 0.41193 0.21571 0.87815 0.0
O81 O 0.37361 0.17894 0.8717 0.0
C82 C 0.44873 0.11106 0.87767 0.0
C83 C 0.38189 0.20852 0.87452 0.0
C84 C 0.80955 0.45899 0.41869 0.0
C85 C 0.80592 0.47057 0.33656 0.0
O86 O 0.79403 0.48001 0.40708 0.0
Zn87 Zn 0.8067 0.46386 0.37769 0.0
O88 O 0.82601 0.43658 0.40864 0.0
Zn89 Zn 0.8363 0.42228 0.37411 0.0
O90 O 0.88285 0.4243 0.37402 0.0
O91 O 0.85918 0.47278 0.37674 0.0
O92 O 0.8234 0.4461 0.34272 0.0
O93 O 0.79115 0.48731 0.35151 0.0
O94 O 0.7804 0.41834 0.37615 0.0
O95 O 0.81718 0.37966 0.37105 0.0
C96 C 0.88511 0.45517 0.3755 0.0
C97 C 0.78758 0.38811 0.3734 0.0
C98 C 0.52768 0.80932 0.83742 0.0
C99 C 0.54782 0.81185 0.9189 0.0
O100 O 0.51165 0.79538 0.8531 0.0
Zn101 Zn 0.53876 0.80922 0.87833 0.0
O102 O 0.55363 0.82526 0.84248 0.0
Zn103 Zn 0.581 0.83703 0.87236 0.0
O104 O 0.62228 0.81603 0.86728 0.0
O105 O 0.58278 0.78096 0.87467 0.0
O106 O 0.56971 0.8277 0.90782 0.0
O107 O 0.52533 0.79685 0.9083 0.0
O108 O 0.53245 0.8621 0.87889 0.0
O109 O 0.58075 0.8836 0.87111 0.0
C110 C 0.6129 0.78683 0.87031 0.0
C111 C 0.55067 0.88728 0.87568 0.0
C112 C 0.81235 0.54581 0.91848 0.0
C113 C 0.81169 0.53315 0.83648 0.0
O114 O 0.82696 0.56965 0.90864 0.0
Zn115 Zn 0.83837 0.58361 0.87412 0.0
O116 O 0.80005 0.52295 0.90669 0.0
Zn117 Zn 0.81186 0.54016 0.87752 0.0
O118 O 0.86452 0.53481 0.87807 0.0
O119 O 0.88511 0.58425 0.87357 0.0
O120 O 0.79899 0.51498 0.85153 0.0
O121 O 0.82678 0.55925 0.84254 0.0
O122 O 0.8175 0.62506 0.87176 0.0
O123 O 0.78248 0.58417 0.87446 0.0
C124 C 0.88935 0.55381 0.87628 0.0
C125 C 0.78826 0.6149 0.87258 0.0
C126 C 0.46838 0.80677 0.33697 0.0
C127 C 0.45942 0.80949 0.41934 0.0
O128 O 0.4442 0.82429 0.3436 0.0
Zn129 Zn 0.42151 0.83699 0.37544 0.0
O130 O 0.48565 0.79192 0.35159 0.0
Zn131 Zn 0.46306 0.80722 0.37821 0.0
O132 O 0.41742 0.78105 0.37693 0.0
O133 O 0.37874 0.81809 0.37282 0.0
O134 O 0.47998 0.79401 0.40732 0.0
O135 O 0.4368 0.8262 0.40971 0.0
O136 O 0.42367 0.88355 0.37557 0.0
O137 O 0.47214 0.85976 0.37747 0.0
C138 C 0.38716 0.78839 0.37463 0.0
C139 C 0.45456 0.88576 0.37663 0.0
C140 C 0.18902 0.45545 0.9201 0.0
C141 C 0.19343 0.46465 0.83783 0.0
O142 O 0.17123 0.43376 0.91037 0.0
Zn143 Zn 0.16127 0.41841 0.87599 0.0
O144 O 0.2059 0.47497 0.90817 0.0
Zn145 Zn 0.19185 0.45926 0.87896 0.0
O146 O 0.13955 0.46943 0.87879 0.0
O147 O 0.11498 0.42176 0.87407 0.0
O148 O 0.2073 0.48237 0.85267 0.0
O149 O 0.17595 0.44028 0.84422 0.0
O150 O 0.17887 0.37504 0.87506 0.0
O151 O 0.21698 0.41314 0.87631 0.0
C152 C 0.11328 0.45251 0.87652 0.0
C153 C 0.20882 0.38293 0.87522 0.0
C154 C 0.54472 0.18842 0.42154 0.0
C155 C 0.53923 0.18877 0.33909 0.0
O156 O 0.56936 0.17389 0.41272 0.0
Zn157 Zn 0.58559 0.16105 0.37923 0.0
O158 O 0.52248 0.19977 0.40881 0.0
Zn159 Zn 0.54215 0.18794 0.38014 0.0
O160 O 0.5359 0.13545 0.37888 0.0
O161 O 0.58543 0.1142 0.38007 0.0
O162 O 0.51993 0.20177 0.35333 0.0
O163 O 0.56433 0.1729 0.34625 0.0
O164 O 0.62751 0.18137 0.37832 0.0
O165 O 0.58673 0.21675 0.37848 0.0
C166 C 0.55472 0.11038 0.37924 0.0
C167 C 0.61751 0.2107 0.37803 0.0
C168 C 0.81097 0.46667 0.6715 0.0
C169 C 0.81154 0.45574 0.58941 0.0
O170 O 0.82626 0.44082 0.6652 0.0
Zn171 Zn 0.83801 0.41721 0.63334 0.0
O172 O 0.79809 0.48502 0.65663 0.0
Zn173 Zn 0.81119 0.4605 0.63043 0.0
O174 O 0.78211 0.41617 0.63306 0.0
O175 O 0.81743 0.37549 0.63527 0.0
O176 O 0.79919 0.47827 0.60145 0.0
O177 O 0.82635 0.43178 0.59898 0.0
O178 O 0.88477 0.41699 0.63394 0.0
O179 O 0.86384 0.46638 0.63007 0.0
C180 C 0.78812 0.38544 0.63459 0.0
C181 C 0.88882 0.44755 0.63168 0.0
C182 C 0.61599 0.79072 0.13672 0.0
C183 C 0.55129 0.88999 0.13384 0.0
O184 O 0.58581 0.78432 0.13275 0.0
Zn185 Zn 0.54077 0.81217 0.13053 0.0
O186 O 0.62493 0.82002 0.14003 0.0
Zn187 Zn 0.58316 0.84001 0.13577 0.0
O188 O 0.55788 0.82652 0.16621 0.0
O189 O 0.51539 0.79695 0.15613 0.0
O190 O 0.58174 0.88685 0.13724 0.0
O191 O 0.53348 0.8645 0.13101 0.0
O192 O 0.52503 0.80158 0.10083 0.0
O193 O 0.57145 0.82926 0.10051 0.0
C194 C 0.53242 0.81007 0.17165 0.0
C195 C 0.54829 0.81464 0.08984 0.0
C196 C 0.18896 0.54432 0.59087 0.0
C197 C 0.19382 0.52937 0.67272 0.0
O198 O 0.1725 0.56634 0.60142 0.0
Zn199 Zn 0.16316 0.57933 0.63665 0.0
O200 O 0.20472 0.52295 0.60201 0.0
Zn201 Zn 0.19221 0.53776 0.63157 0.0
O202 O 0.13957 0.52949 0.63159 0.0
O203 O 0.11666 0.57741 0.63847 0.0
O204 O 0.20762 0.51272 0.65729 0.0
O205 O 0.17684 0.55443 0.66717 0.0
O206 O 0.18265 0.62169 0.64031 0.0
O207 O 0.21898 0.58303 0.63377 0.0
C208 C 0.11389 0.54701 0.63464 0.0
C209 C 0.21211 0.61318 0.63732 0.0
C210 C 0.44946 0.11411 0.13563 0.0
C211 C 0.38961 0.21636 0.14079 0.0
O212 O 0.4682 0.1389 0.13272 0.0
Zn213 Zn 0.4634 0.19155 0.13303 0.0
O214 O 0.41935 0.11841 0.13981 0.0
Zn215 Zn 0.42008 0.16536 0.1389 0.0
O216 O 0.43099 0.17589 0.10351 0.0
O217 O 0.47843 0.2018 0.1031 0.0
O218 O 0.37955 0.18746 0.14422 0.0
O219 O 0.41986 0.2214 0.13621 0.0
O220 O 0.49062 0.2048 0.15833 0.0
O221 O 0.44758 0.17641 0.16887 0.0
C222 C 0.45432 0.18962 0.09247 0.0
C223 C 0.47399 0.19152 0.17398 0.0
C224 C 0.05411 0.44876 0.14536 0.0
C225 C 0.07901 0.46255 0.13218 0.0
C226 C 0.0226 0.46229 0.1455 0.0
C227 C 0.01563 0.48955 0.13152 0.0
C228 C 0.04051 0.50295 0.11766 0.0
C229 C 0.07209 0.48962 0.11847 0.0
C230 C 0.99702 0.44796 0.16104 0.0
C231 C 0.0338 0.53138 0.10202 0.0
C232 C 0.92633 0.50708 0.11845 0.0
C233 C 0.92021 0.53394 0.13256 0.0
C234 C 0.95745 0.49266 0.11766 0.0
C235 C 0.98259 0.50471 0.13191 0.0
C236 C 0.97623 0.53141 0.14655 0.0
C237 C 0.94526 0.54607 0.14639 0.0
C238 C 0.96357 0.46491 0.10133 0.0
C239 C 0.00206 0.54433 0.16251 0.0
H240 H 0.05955 0.42796 0.15611 0.0
H241 H 0.09131 0.50011 0.10812 0.0
H242 H 0.98832 0.46695 0.17304 0.0
H243 H 0.97557 0.43975 0.15106 0.0
H244 H 0.00645 0.42689 0.17095 0.0
H245 H 0.0552 0.53747 0.09124 0.0
H246 H 0.01271 0.5257 0.09085 0.0
H247 H 0.0272 0.55329 0.11209 0.0
H248 H 0.90699 0.4979 0.10761 0.0
H249 H 0.9404 0.56669 0.15744 0.0
H250 H 0.97097 0.44266 0.11076 0.0
H251 H 0.984 0.47131 0.08978 0.0
H252 H 0.94169 0.45904 0.09094 0.0
H253 H 0.01129 0.52428 0.17344 0.0
H254 H 0.9927 0.56425 0.17354 0.0
H255 H 0.02313 0.5538 0.15269 0.0
C256 C 0.44826 0.9476 0.6192 0.0
C257 C 0.46117 0.92277 0.63286 0.0
C258 C 0.4621 0.979 0.61919 0.0
C259 C 0.48857 0.98597 0.6339 0.0
C260 C 0.50117 0.96107 0.64812 0.0
C261 C 0.48771 0.92954 0.64708 0.0
C262 C 0.44876 0.00451 0.60317 0.0
C263 C 0.52861 0.96782 0.66459 0.0
C264 C 0.54528 0.05723 0.62145 0.0
C265 C 0.53165 0.08199 0.63482 0.0
C266 C 0.53105 0.02605 0.6206 0.0
C267 C 0.50337 0.01919 0.63419 0.0
C268 C 0.48988 0.04407 0.64805 0.0
C269 C 0.50382 0.07543 0.64783 0.0
C270 C 0.54543 0.00059 0.60497 0.0
C271 C 0.46111 0.0374 0.66338 0.0
H272 H 0.42786 0.94219 0.60807 0.0
H273 H 0.49745 0.91032 0.65779 0.0
H274 H 0.43919 0.02563 0.61289 0.0
H275 H 0.46864 0.01379 0.59211 0.0
H276 H 0.42886 0.9948 0.59226 0.0
H277 H 0.53434 0.94628 0.67535 0.0
H278 H 0.55099 0.9749 0.65522 0.0
H279 H 0.52202 0.98861 0.67577 0.0
H280 H 0.56667 0.06252 0.61124 0.0
H281 H 0.49352 0.09463 0.6583 0.0
H282 H 0.52629 0.99121 0.59332 0.0
H283 H 0.5545 0.97953 0.61498 0.0
H284 H 0.56595 0.01037 0.59468 0.0
H285 H 0.43958 0.0301 0.65314 0.0
H286 H 0.45441 0.05903 0.67378 0.0
H287 H 0.46684 0.01675 0.67491 0.0
C288 C 0.05168 0.55475 0.39057 0.0
C289 C 0.07633 0.54153 0.37692 0.0
C290 C 0.02026 0.541 0.39079 0.0
C291 C 0.01314 0.51431 0.3763 0.0
C292 C 0.03785 0.50145 0.36205 0.0
C293 C 0.0694 0.51482 0.36289 0.0
C294 C 0.99493 0.5546 0.40683 0.0
C295 C 0.03091 0.47377 0.34581 0.0
C296 C 0.94238 0.4574 0.38939 0.0
C297 C 0.91751 0.47065 0.37594 0.0
C298 C 0.97341 0.47191 0.39011 0.0
C299 C 0.97998 0.49947 0.37632 0.0
C300 C 0.95497 0.51262 0.36244 0.0
C301 C 0.92375 0.49841 0.36279 0.0
C302 C 0.99906 0.4579 0.40575 0.0
C303 C 0.96135 0.54124 0.34691 0.0
H304 H 0.05726 0.57528 0.40154 0.0
H305 H 0.08851 0.50486 0.35219 0.0
H306 H 0.97364 0.56388 0.39715 0.0
H307 H 0.98589 0.53493 0.41816 0.0
H308 H 0.00471 0.57479 0.41745 0.0
H309 H 0.05227 0.46796 0.33491 0.0
H310 H 0.02407 0.45148 0.35538 0.0
H311 H 0.0099 0.48014 0.33475 0.0
H312 H 0.93732 0.43605 0.3997 0.0
H313 H 0.90444 0.5084 0.35227 0.0
H314 H 0.00858 0.47731 0.41713 0.0
H315 H 0.01999 0.44859 0.39572 0.0
H316 H 0.98941 0.43761 0.41633 0.0
H317 H 0.96886 0.56289 0.35696 0.0
H318 H 0.93955 0.54785 0.33666 0.0
H319 H 0.98177 0.53536 0.33522 0.0
C320 C 0.54934 0.94556 0.86351 0.0
C321 C 0.53657 0.92037 0.87693 0.0
C322 C 0.53545 0.97689 0.86387 0.0
C323 C 0.50882 0.98334 0.87851 0.0
C324 C 0.49641 0.95817 0.89256 0.0
C325 C 0.51013 0.92679 0.89133 0.0
C326 C 0.54876 0.00284 0.84818 0.0
C327 C 0.46862 0.96436 0.90883 0.0
C328 C 0.49125 0.07245 0.89192 0.0
C329 C 0.4641 0.0785 0.87808 0.0
C330 C 0.50569 0.04134 0.89261 0.0
C331 C 0.49327 0.01614 0.87856 0.0
C332 C 0.46612 0.02234 0.86432 0.0
C333 C 0.45154 0.05333 0.86453 0.0
C334 C 0.53403 0.03537 0.90847 0.0
C335 C 0.45274 0.99638 0.84864 0.0
H336 H 0.56965 0.94052 0.85225 0.0
H337 H 0.50046 0.90735 0.90187 0.0
H338 H 0.52915 0.01144 0.83663 0.0
H339 H 0.55715 0.02427 0.85811 0.0
H340 H 0.56949 0.9938 0.83776 0.0
H341 H 0.46322 0.94274 0.91959 0.0
H342 H 0.47457 0.98536 0.92002 0.0
H343 H 0.44623 0.97089 0.89926 0.0
H344 H 0.50078 0.09187 0.90254 0.0
H345 H 0.43069 0.05811 0.85367 0.0
H346 H 0.55606 0.02848 0.89862 0.0
H347 H 0.52834 0.01465 0.91995 0.0
H348 H 0.53991 0.05718 0.91892 0.0
H349 H 0.47232 0.9876 0.83714 0.0
H350 H 0.43207 0.00546 0.83818 0.0
H351 H 0.44422 0.97506 0.85862 0.0
C352 C 0.94782 0.55474 0.86451 0.0
C353 C 0.92267 0.54022 0.87708 0.0
C354 C 0.97935 0.5413 0.86439 0.0
C355 C 0.98604 0.51334 0.87774 0.0
C356 C 0.9609 0.49917 0.89099 0.0
C357 C 0.92933 0.51247 0.89019 0.0
C358 C 0.00525 0.5565 0.84952 0.0
C359 C 0.96732 0.4699 0.90593 0.0
C360 C 0.05642 0.45742 0.86215 0.0
C361 C 0.08115 0.46863 0.87659 0.0
C362 C 0.02557 0.47229 0.86199 0.0
C363 C 0.01903 0.4982 0.87725 0.0
C364 C 0.04388 0.50937 0.89207 0.0
C365 C 0.07492 0.4948 0.89127 0.0
C366 C 1.00005 0.46038 0.84542 0.0
C367 C 0.0375 0.53623 0.90906 0.0
H368 H 0.94258 0.57607 0.85424 0.0
H369 H 0.90992 0.50143 0.90008 0.0
H370 H 0.02652 0.56407 0.85993 0.0
H371 H 0.01416 0.53822 0.83707 0.0
H372 H 0.99605 0.57816 0.84013 0.0
H373 H 0.94572 0.46324 0.91635 0.0
H374 H 0.9741 0.44855 0.89535 0.0
H375 H 0.98819 0.47495 0.91743 0.0
H376 H 0.06141 0.43732 0.85067 0.0
H377 H 0.09406 0.50322 0.90257 0.0
H378 H 0.99102 0.48109 0.83501 0.0
H379 H 0.97881 0.4503 0.85475 0.0
H380 H 0.00963 0.44116 0.83389 0.0
H381 H 0.03016 0.55895 0.90016 0.0
H382 H 0.05924 0.54159 0.91971 0.0
H383 H 0.01696 0.52917 0.92031 0.0
C384 C 0.51402 0.07037 0.36459 0.0
C385 C 0.54069 0.07726 0.37867 0.0
C386 C 0.50073 0.03878 0.36361 0.0
C387 C 0.51363 0.01394 0.37775 0.0
C388 C 0.54029 0.02101 0.39227 0.0
C389 C 0.55394 0.05248 0.39221 0.0
C390 C 0.47306 0.03193 0.34734 0.0
C391 C 0.55395 0.99554 0.40819 0.0
C392 C 0.45686 0.94298 0.39069 0.0
C393 C 0.47007 0.91818 0.37716 0.0
C394 C 0.47131 0.97405 0.39147 0.0
C395 C 0.49881 0.98075 0.37766 0.0
C396 C 0.51194 0.95581 0.3637 0.0
C397 C 0.49777 0.92455 0.36397 0.0
C398 C 0.45731 0.99959 0.4072 0.0
C399 C 0.54051 0.96233 0.34815 0.0
H400 H 0.50403 0.08956 0.35397 0.0
H401 H 0.57444 0.05798 0.40322 0.0
H402 H 0.47945 0.01102 0.33621 0.0
H403 H 0.45079 0.02499 0.3569 0.0
H404 H 0.46722 0.05338 0.33653 0.0
H405 H 0.57416 0.00524 0.41883 0.0
H406 H 0.53432 0.98639 0.41951 0.0
H407 H 0.56321 0.97433 0.39841 0.0
H408 H 0.43556 0.93784 0.40102 0.0
H409 H 0.50775 0.90532 0.35338 0.0
H410 H 0.44799 0.02058 0.39724 0.0
H411 H 0.47672 0.00905 0.4186 0.0
H412 H 0.43705 0.98986 0.41775 0.0
H413 H 0.53457 0.98282 0.33653 0.0
H414 H 0.54711 0.94059 0.33784 0.0
H415 H 0.56216 0.96981 0.3582 0.0
C416 C 0.94706 0.44683 0.64404 0.0
C417 C 0.92207 0.46143 0.63135 0.0
C418 C 0.97853 0.46042 0.64458 0.0
C419 C 0.98536 0.48863 0.63152 0.0
C420 C 0.96037 0.50296 0.6182 0.0
C421 C 0.92883 0.48949 0.61859 0.0
C422 C 0.00423 0.44501 0.65953 0.0
C423 C 0.96696 0.53248 0.60354 0.0
C424 C 0.05636 0.54337 0.64811 0.0
C425 C 0.08121 0.53193 0.63385 0.0
C426 C 0.02519 0.52913 0.64777 0.0
C427 C 0.01846 0.50361 0.63223 0.0
C428 C 0.04338 0.49234 0.6175 0.0
C429 C 0.07468 0.50628 0.61878 0.0
C430 C 0.9996 0.54113 0.66423 0.0
C431 C 0.03685 0.46588 0.60024 0.0
H432 H 0.94174 0.42527 0.65406 0.0
H433 H 0.90954 0.50062 0.60862 0.0
H434 H 0.02548 0.4373 0.64917 0.0
H435 H 0.01324 0.4632 0.67202 0.0
H436 H 0.99482 0.42341 0.66887 0.0
H437 H 0.9454 0.53946 0.59317 0.0
H438 H 0.97389 0.55359 0.61431 0.0
H439 H 0.9878 0.52751 0.59201 0.0
H440 H 0.06153 0.56306 0.65989 0.0
H441 H 0.09387 0.49766 0.60761 0.0
H442 H 0.99045 0.52044 0.6746 0.0
H443 H 0.97843 0.55124 0.65482 0.0
H444 H 0.00915 0.56033 0.67579 0.0
H445 H 0.02959 0.44297 0.60892 0.0
H446 H 0.05852 0.46076 0.58947 0.0
H447 H 0.01623 0.47317 0.58911 0.0
C448 C 0.45062 0.05585 0.14813 0.0
C449 C 0.4632 0.08083 0.13444 0.0
C450 C 0.46469 0.02456 0.14803 0.0
C451 C 0.49126 0.01792 0.13335 0.0
C452 C 0.5034 0.04286 0.11901 0.0
C453 C 0.48956 0.0742 0.12001 0.0
C454 C 0.45165 0.99887 0.16402 0.0
C455 C 0.53103 0.03648 0.10264 0.0
C456 C 0.54905 0.94795 0.14687 0.0
C457 C 0.53625 0.92275 0.13346 0.0
C458 C 0.53433 0.97892 0.14725 0.0
C459 C 0.5068 0.98506 0.13332 0.0
C460 C 0.49419 0.95983 0.1194 0.0
C461 C 0.50876 0.92878 0.11992 0.0
C462 C 0.54795 0.00492 0.16279 0.0
C463 C 0.46551 0.96571 0.10382 0.0
H464 H 0.4304 0.06107 0.15943 0.0
H465 H 0.49912 0.09348 0.10928 0.0
H466 H 0.44311 0.97728 0.15432 0.0
H467 H 0.47146 0.99044 0.17547 0.0
H468 H 0.4311 0.00807 0.17453 0.0
H469 H 0.5363 0.05796 0.09171 0.0
H470 H 0.55354 0.0301 0.11213 0.0
H471 H 0.52499 0.01533 0.09161 0.0
H472 H 0.57014 0.9432 0.1575 0.0
H473 H 0.499 0.90934 0.10942 0.0
H474 H 0.52855 0.01376 0.17442 0.0
H475 H 0.55633 0.0262 0.15271 0.0
H476 H 0.56878 0.99586 0.17311 0.0
H477 H 0.44368 0.97262 0.11386 0.0
H478 H 0.45943 0.94384 0.09346 0.0
H479 H 0.47094 0.98637 0.09223 0.0
C480 C 0.16908 0.54499 0.29754 0.0
C481 C 0.18945 0.52948 0.31336 0.0
C482 C 0.16954 0.536 0.27455 0.0
C483 C 0.19115 0.51116 0.26714 0.0
C484 C 0.21226 0.49591 0.28294 0.0
C485 C 0.21102 0.50511 0.30586 0.0
C486 C 0.14644 0.55262 0.25825 0.0
C487 C 0.23591 0.4696 0.27567 0.0
C488 C 0.17075 0.46482 0.21307 0.0
C489 C 0.19059 0.4806 0.19706 0.0
C490 C 0.17062 0.47461 0.2359 0.0
C491 C 0.19112 0.50056 0.24297 0.0
C492 C 0.21152 0.51632 0.22697 0.0
C493 C 0.21088 0.50629 0.20419 0.0
C494 C 0.1483 0.45737 0.25241 0.0
C495 C 0.234 0.54382 0.23392 0.0
H496 H 0.15225 0.56374 0.3032 0.0
H497 H 0.22697 0.49311 0.31794 0.0
H498 H 0.16036 0.56393 0.24415 0.0
H499 H 0.12972 0.53429 0.25065 0.0
H500 H 0.13154 0.57184 0.26662 0.0
H501 H 0.25157 0.46107 0.28987 0.0
H502 H 0.22226 0.44835 0.26882 0.0
H503 H 0.25186 0.47883 0.26187 0.0
H504 H 0.15487 0.44508 0.20771 0.0
H505 H 0.22637 0.51854 0.19195 0.0
H506 H 0.13131 0.47524 0.26024 0.0
H507 H 0.16285 0.44635 0.26631 0.0
H508 H 0.13368 0.43781 0.24417 0.0
H509 H 0.21954 0.56433 0.24102 0.0
H510 H 0.24876 0.55315 0.2195 0.0
H511 H 0.25084 0.53537 0.24746 0.0
C512 C 0.53912 0.17591 0.7148 0.0
C513 C 0.52306 0.1959 0.699 0.0
C514 C 0.53059 0.17648 0.73785 0.0
C515 C 0.50557 0.19775 0.74536 0.0
C516 C 0.48978 0.21856 0.72961 0.0
C517 C 0.4986 0.21728 0.7066 0.0
C518 C 0.54783 0.15371 0.75408 0.0
C519 C 0.46316 0.24176 0.73701 0.0
C520 C 0.46032 0.17414 0.79911 0.0
C521 C 0.47574 0.19367 0.8155 0.0
C522 C 0.46966 0.17543 0.77624 0.0
C523 C 0.49488 0.19701 0.7695 0.0
C524 C 0.51025 0.21716 0.78586 0.0
C525 C 0.5006 0.21514 0.80871 0.0
C526 C 0.45285 0.15333 0.75935 0.0
C527 C 0.53704 0.24066 0.77926 0.0
H528 H 0.55801 0.15927 0.70911 0.0
H529 H 0.48617 0.23293 0.69454 0.0
H530 H 0.55863 0.16778 0.7683 0.0
H531 H 0.52997 0.13634 0.7615 0.0
H532 H 0.56752 0.13948 0.74569 0.0
H533 H 0.45457 0.25761 0.72293 0.0
H534 H 0.44203 0.2277 0.7436 0.0
H535 H 0.47206 0.25753 0.75103 0.0
H536 H 0.44116 0.15738 0.80417 0.0
H537 H 0.51256 0.2304 0.82124 0.0
H538 H 0.471 0.13681 0.75137 0.0
H539 H 0.44172 0.1681 0.7456 0.0
H540 H 0.43345 0.1382 0.7673 0.0
H541 H 0.55805 0.22696 0.77214 0.0
H542 H 0.54576 0.25542 0.79387 0.0
H543 H 0.52819 0.25747 0.76584 0.0
C544 C 0.78405 0.50177 0.20291 0.0
C545 C 0.80516 0.52673 0.19573 0.0
C546 C 0.78224 0.49273 0.22586 0.0
C547 C 0.80222 0.50884 0.24197 0.0
C548 C 0.82324 0.53434 0.23489 0.0
C549 C 0.82434 0.54307 0.21188 0.0
C550 C 0.75933 0.46561 0.23282 0.0
C551 C 0.8451 0.55195 0.25153 0.0
C552 C 0.78227 0.504 0.30489 0.0
C553 C 0.80395 0.47965 0.31226 0.0
C554 C 0.78101 0.51337 0.28198 0.0
C555 C 0.80213 0.49825 0.26612 0.0
C556 C 0.82385 0.47348 0.27343 0.0
C557 C 0.8244 0.4644 0.29636 0.0
C558 C 0.75733 0.53968 0.27478 0.0
C559 C 0.84694 0.45695 0.25707 0.0
H560 H 0.76903 0.48912 0.19057 0.0
H561 H 0.84077 0.56234 0.20651 0.0
H562 H 0.77355 0.44482 0.23976 0.0
H563 H 0.74277 0.47422 0.24646 0.0
H564 H 0.7443 0.45662 0.21842 0.0
H565 H 0.8594 0.57181 0.24339 0.0
H566 H 0.83029 0.56262 0.26543 0.0
H567 H 0.86238 0.53436 0.25935 0.0
H568 H 0.76631 0.51583 0.31703 0.0
H569 H 0.8413 0.44563 0.30189 0.0
H570 H 0.74134 0.53047 0.26099 0.0
H571 H 0.77094 0.56095 0.26794 0.0
H572 H 0.74172 0.54816 0.28902 0.0
H573 H 0.83298 0.44557 0.243 0.0
H574 H 0.86196 0.43778 0.26539 0.0
H575 H 0.86355 0.47533 0.24944 0.0
C576 C 0.53124 0.82831 0.79723 0.0
C577 C 0.51642 0.80817 0.81352 0.0
C578 C 0.52088 0.8281 0.77456 0.0
C579 C 0.49523 0.80701 0.76787 0.0
C580 C 0.48016 0.78652 0.78417 0.0
C581 C 0.49083 0.78747 0.80685 0.0
C582 C 0.53742 0.85052 0.75776 0.0
C583 C 0.45294 0.76349 0.77761 0.0
C584 C 0.45208 0.82852 0.71272 0.0
C585 C 0.46866 0.8087 0.69709 0.0
C586 C 0.4599 0.82766 0.73592 0.0
C587 C 0.48466 0.80623 0.7437 0.0
C588 C 0.50075 0.78544 0.7281 0.0
C589 C 0.49268 0.78705 0.70499 0.0
C590 C 0.4424 0.85041 0.752 0.0
C591 C 0.52707 0.76205 0.73575 0.0
H592 H 0.55089 0.84455 0.80222 0.0
H593 H 0.47928 0.7718 0.81931 0.0
H594 H 0.54891 0.83591 0.74406 0.0
H595 H 0.51909 0.86674 0.74968 0.0
H596 H 0.55653 0.86595 0.76579 0.0
H597 H 0.44372 0.74922 0.7923 0.0
H598 H 0.43232 0.77743 0.77016 0.0
H599 H 0.46166 0.74621 0.76444 0.0
H600 H 0.43352 0.84534 0.70677 0.0
H601 H 0.50545 0.77145 0.69306 0.0
H602 H 0.46008 0.86805 0.75934 0.0
H603 H 0.43172 0.83641 0.7663 0.0
H604 H 0.42259 0.86434 0.74349 0.0
H605 H 0.54829 0.77599 0.74236 0.0
H606 H 0.53564 0.74597 0.72177 0.0
H607 H 0.51792 0.7465 0.74978 0.0
C608 C 0.82973 0.53965 0.79618 0.0
C609 C 0.80991 0.52388 0.81221 0.0
C610 C 0.82927 0.5303 0.77327 0.0
C611 C 0.8082 0.50484 0.76615 0.0
C612 C 0.78772 0.48921 0.78216 0.0
C613 C 0.78897 0.49877 0.80502 0.0
C614 C 0.85172 0.54734 0.75675 0.0
C615 C 0.76463 0.46225 0.77516 0.0
C616 C 0.78819 0.50042 0.70324 0.0
C617 C 0.80927 0.47557 0.69584 0.0
C618 C 0.78716 0.50981 0.72614 0.0
C619 C 0.808 0.49426 0.74198 0.0
C620 C 0.82917 0.46901 0.73465 0.0
C621 C 0.8294 0.45983 0.71171 0.0
C622 C 0.76397 0.53655 0.73336 0.0
C623 C 0.85199 0.45208 0.75099 0.0
H624 H 0.84609 0.55897 0.8016 0.0
H625 H 0.77346 0.48657 0.81728 0.0
H626 H 0.86853 0.52932 0.74891 0.0
H627 H 0.83727 0.5585 0.74284 0.0
H628 H 0.86652 0.56677 0.76498 0.0
H629 H 0.74958 0.45328 0.78954 0.0
H630 H 0.74808 0.47105 0.76156 0.0
H631 H 0.77866 0.44139 0.76812 0.0
H632 H 0.77245 0.5126 0.69112 0.0
H633 H 0.84586 0.44072 0.70613 0.0
H634 H 0.77797 0.55755 0.74023 0.0
H635 H 0.74781 0.52761 0.74713 0.0
H636 H 0.74852 0.54534 0.71913 0.0
H637 H 0.8689 0.47019 0.75865 0.0
H638 H 0.8667 0.4327 0.74263 0.0
H639 H 0.83787 0.44089 0.76503 0.0
C640 C 0.46085 0.82539 0.29689 0.0
C641 C 0.47646 0.80473 0.31249 0.0
C642 C 0.46917 0.82488 0.2738 0.0
C643 C 0.4935 0.80299 0.26605 0.0
C644 C 0.50881 0.78152 0.2816 0.0
C645 C 0.50023 0.78275 0.30466 0.0
C646 C 0.45249 0.84838 0.2578 0.0
C647 C 0.53466 0.75763 0.27394 0.0
C648 C 0.49741 0.78647 0.20256 0.0
C649 C 0.52284 0.80731 0.19583 0.0
C650 C 0.48792 0.78435 0.22543 0.0
C651 C 0.50402 0.80378 0.24189 0.0
C652 C 0.5298 0.8247 0.2352 0.0
C653 C 0.53898 0.8261 0.21231 0.0
C654 C 0.46051 0.76155 0.23197 0.0
C655 C 0.54741 0.84602 0.25219 0.0
H656 H 0.4425 0.8425 0.30277 0.0
H657 H 0.51229 0.76659 0.31657 0.0
H658 H 0.4708 0.86532 0.25043 0.0
H659 H 0.44116 0.83483 0.24352 0.0
H660 H 0.43329 0.86307 0.26636 0.0
H661 H 0.54287 0.74133 0.28788 0.0
H662 H 0.52519 0.74235 0.25985 0.0
H663 H 0.55616 0.77115 0.26737 0.0
H664 H 0.48489 0.77178 0.18997 0.0
H665 H 0.55859 0.84236 0.20729 0.0
H666 H 0.43995 0.77574 0.23927 0.0
H667 H 0.46896 0.74429 0.24525 0.0
H668 H 0.45125 0.74726 0.21729 0.0
H669 H 0.52983 0.86296 0.26037 0.0
H670 H 0.56719 0.86069 0.24427 0.0
H671 H 0.5582 0.83072 0.26579 0.0
C672 C 0.21823 0.49673 0.80594 0.0
C673 C 0.19641 0.47255 0.81338 0.0
C674 C 0.22012 0.50537 0.78292 0.0
C675 C 0.19948 0.48969 0.767 0.0
C676 C 0.17786 0.46486 0.77434 0.0
C677 C 0.17669 0.45649 0.79741 0.0
C678 C 0.2437 0.53176 0.7757 0.0
C679 C 0.15524 0.44776 0.75793 0.0
C680 C 0.17679 0.53525 0.7132 0.0
C681 C 0.19631 0.51969 0.69689 0.0
C682 C 0.17782 0.52587 0.73606 0.0
C683 C 0.19911 0.50047 0.74289 0.0
C684 C 0.2193 0.48498 0.72661 0.0
C685 C 0.21754 0.49467 0.70377 0.0
C686 C 0.15569 0.54282 0.75286 0.0
C687 C 0.24252 0.458 0.73331 0.0
H688 H 0.23369 0.50913 0.81814 0.0
H689 H 0.15973 0.4378 0.80298 0.0
H690 H 0.25946 0.52278 0.76172 0.0
H691 H 0.22995 0.55311 0.76913 0.0
H692 H 0.25954 0.54006 0.78988 0.0
H693 H 0.14084 0.42807 0.76618 0.0
H694 H 0.13804 0.46572 0.75044 0.0
H695 H 0.16945 0.43697 0.74377 0.0
H696 H 0.16022 0.55455 0.70807 0.0
H697 H 0.23279 0.4826 0.69129 0.0
H698 H 0.1704 0.55379 0.76671 0.0
H699 H 0.13893 0.52477 0.76072 0.0
H700 H 0.14082 0.56238 0.74485 0.0
H701 H 0.2592 0.46667 0.74688 0.0
H702 H 0.25742 0.44926 0.71878 0.0
H703 H 0.2286 0.43703 0.74028 0.0
C704 C 0.54878 0.17134 0.29886 0.0
C705 C 0.5323 0.19129 0.31446 0.0
C706 C 0.54103 0.17224 0.27565 0.0
C707 C 0.51647 0.19386 0.26783 0.0
C708 C 0.50048 0.21476 0.2834 0.0
C709 C 0.50845 0.2131 0.30652 0.0
C710 C 0.5584 0.14933 0.2596 0.0
C711 C 0.47439 0.23838 0.2757 0.0
C712 C 0.5109 0.21284 0.20469 0.0
C713 C 0.48512 0.19245 0.19792 0.0
C714 C 0.52144 0.21361 0.2274 0.0
C715 C 0.50606 0.19324 0.24362 0.0
C716 C 0.48022 0.17243 0.23682 0.0
C717 C 0.46997 0.17243 0.21413 0.0
C718 C 0.54884 0.23636 0.23407 0.0
C719 C 0.46336 0.15012 0.25354 0.0
H720 H 0.56721 0.15439 0.30485 0.0
H721 H 0.49576 0.22879 0.31843 0.0
H722 H 0.54059 0.13191 0.25218 0.0
H723 H 0.56933 0.16326 0.24536 0.0
H724 H 0.578 0.13517 0.26816 0.0
H725 H 0.46586 0.25449 0.28967 0.0
H726 H 0.48376 0.2539 0.26172 0.0
H727 H 0.45311 0.22463 0.26901 0.0
H728 H 0.5227 0.22842 0.19229 0.0
H729 H 0.45018 0.15642 0.20905 0.0
H730 H 0.56927 0.2222 0.24157 0.0
H731 H 0.54019 0.25369 0.24724 0.0
H732 H 0.5583 0.25058 0.21944 0.0
H733 H 0.4815 0.13372 0.26166 0.0
H734 H 0.44419 0.13487 0.24542 0.0
H735 H 0.4519 0.16479 0.26721 0.0
C736 C 0.21891 0.46471 0.95645 0.0
C737 C 0.18976 0.45746 0.94506 0.0
C738 C 0.22017 0.46501 0.98026 0.0
C739 C 0.19132 0.4591 0.99287 0.0
C740 C 0.1616 0.45276 0.98136 0.0
C741 C 0.16133 0.45141 0.95758 0.0
C742 C 0.25251 0.47083 0.99192 0.0
C743 C 0.1301 0.4474 0.99415 0.0
C744 C 0.19507 0.42867 0.05369 0.0
C745 C 0.19127 0.45774 0.06594 0.0
C746 C 0.19622 0.42893 0.02989 0.0
C747 C 0.19223 0.45883 0.01811 0.0
C748 C 0.1882 0.48825 0.03046 0.0
C749 C 0.18836 0.48742 0.05428 0.0
C750 C 0.20162 0.39719 0.01737 0.0
C751 C 0.1828 0.52045 0.01854 0.0
H752 H 0.24094 0.46911 0.94673 0.0
H753 H 0.13872 0.44608 0.94872 0.0
H754 H 0.25088 0.49249 1.00316 0.0
H755 H 0.25864 0.44955 1.00278 0.0
H756 H 0.27273 0.47472 0.97965 0.0
H757 H 0.10876 0.44493 0.98263 0.0
H758 H 0.13193 0.42494 1.0046 0.0
H759 H 0.12561 0.46811 0.0059 0.0
H760 H 0.19757 0.40575 0.06275 0.0
H761 H 0.18511 0.50986 0.06379 0.0
H762 H 0.22247 0.39968 1.00547 0.0
H763 H 0.17972 0.39113 0.00712 0.0
H764 H 0.20663 0.3765 0.02907 0.0
H765 H 0.2036 0.52586 0.0071 0.0
H766 H 0.17994 0.54108 0.03062 0.0
H767 H 0.16054 0.51895 0.00783 0.0
C768 C 0.57063 0.1974 0.45922 0.0
C769 C 0.54242 0.19151 0.44641 0.0
C770 C 0.56926 0.19923 0.48297 0.0
C771 C 0.53916 0.19375 0.49418 0.0
C772 C 0.51055 0.18785 0.48127 0.0
C773 C 0.51243 0.1874 0.45747 0.0
C774 C 0.60011 0.20667 0.49605 0.0
C775 C 0.47824 0.18081 0.4926 0.0
C776 C 0.54701 0.16321 0.55476 0.0
C777 C 0.53919 0.19124 0.56726 0.0
C778 C 0.54593 0.16342 0.53097 0.0
C779 C 0.53806 0.19273 0.51942 0.0
C780 C 0.53027 0.22118 0.53202 0.0
C781 C 0.53034 0.21992 0.55584 0.0
C782 C 0.55337 0.13229 0.51821 0.0
C783 C 0.52284 0.25316 0.52035 0.0
H784 H 0.59379 0.20085 0.45062 0.0
H785 H 0.49068 0.18256 0.44752 0.0
H786 H 0.59583 0.22718 0.508 0.0
H787 H 0.60728 0.1851 0.50629 0.0
H788 H 0.62079 0.21319 0.48472 0.0
H789 H 0.45819 0.17724 0.48014 0.0
H790 H 0.48039 0.15843 0.50312 0.0
H791 H 0.4715 0.20113 0.50413 0.0
H792 H 0.55357 0.14095 0.56363 0.0
H793 H 0.52454 0.24165 0.56556 0.0
H794 H 0.57609 0.13534 0.50819 0.0
H795 H 0.53338 0.12678 0.50608 0.0
H796 H 0.55652 0.11104 0.52973 0.0
H797 H 0.54414 0.26076 0.50996 0.0
H798 H 0.51712 0.27299 0.53259 0.0
H799 H 0.50184 0.25021 0.50864 0.0
C800 C 0.78244 0.53668 0.0528 0.0
C801 C 0.81147 0.54414 0.06428 0.0
C802 C 0.78128 0.53657 0.02899 0.0
C803 C 0.81013 0.54289 0.01647 0.0
C804 C 0.83973 0.54945 0.02807 0.0
C805 C 0.83988 0.55061 0.05186 0.0
C806 C 0.74906 0.53052 0.01725 0.0
C807 C 0.87123 0.55524 0.01537 0.0
C808 C 0.81361 0.51507 0.95499 0.0
C809 C 0.81047 0.5448 0.94344 0.0
C810 C 0.8137 0.51405 0.9788 0.0
C811 C 0.80933 0.54335 0.99124 0.0
C812 C 0.80509 0.5733 0.97957 0.0
C813 C 0.80635 0.57374 0.95578 0.0
C814 C 0.81938 0.48182 0.99062 0.0
C815 C 0.79932 0.60489 0.99219 0.0
H816 H 0.76042 0.53194 0.06247 0.0
H817 H 0.86239 0.5561 0.06079 0.0
H818 H 0.74277 0.55181 0.00643 0.0
H819 H 0.75095 0.50894 0.00595 0.0
H820 H 0.72882 0.52635 0.02945 0.0
H821 H 0.89249 0.55784 0.02695 0.0
H822 H 0.87599 0.53466 1.00356 0.0
H823 H 0.86922 0.57775 1.005 0.0
H824 H 0.8171 0.49273 0.94539 0.0
H825 H 0.80366 0.5967 0.9468 0.0
H826 H 0.79857 0.4761 1.00198 0.0
H827 H 0.84157 0.48347 1.00138 0.0
H828 H 0.82251 0.46132 0.97846 0.0
H829 H 0.77845 0.60209 1.00404 0.0
H830 H 0.79415 0.62561 0.98057 0.0
H831 H 0.82111 0.61109 1.00252 0.0
C832 C 0.4298 0.8041 0.55227 0.0
C833 C 0.45824 0.80845 0.56513 0.0
C834 C 0.43113 0.80224 0.52852 0.0
C835 C 0.46152 0.80606 0.51735 0.0
C836 C 0.49037 0.81036 0.5303 0.0
C837 C 0.48845 0.81092 0.5541 0.0
C838 C 0.39995 0.79657 0.51539 0.0
C839 C 0.52306 0.81556 0.51902 0.0
C840 C 0.46878 0.77954 0.45566 0.0
C841 C 0.46146 0.80867 0.44429 0.0
C842 C 0.46887 0.77824 0.47949 0.0
C843 C 0.46272 0.80706 0.49211 0.0
C844 C 0.45647 0.83679 0.4806 0.0
C845 C 0.45528 0.83708 0.45682 0.0
C846 C 0.47451 0.74587 0.49113 0.0
C847 C 0.45085 0.86827 0.49338 0.0
H848 H 0.40646 0.80189 0.56083 0.0
H849 H 0.51041 0.81455 0.56408 0.0
H850 H 0.39403 0.81853 0.50516 0.0
H851 H 0.4031 0.77587 0.50343 0.0
H852 H 0.3789 0.79122 0.52668 0.0
H853 H 0.54325 0.81793 0.5315 0.0
H854 H 0.52864 0.79493 0.50746 0.0
H855 H 0.52222 0.83807 0.50853 0.0
H856 H 0.47329 0.75753 0.44592 0.0
H857 H 0.44991 0.85967 0.44796 0.0
H858 H 0.45278 0.73941 0.50145 0.0
H859 H 0.49557 0.74764 0.5029 0.0
H860 H 0.47922 0.7258 0.47887 0.0
H861 H 0.42797 0.86653 0.50338 0.0
H862 H 0.44896 0.88969 0.48188 0.0
H863 H 0.4711 0.87259 0.50554 0.0
C864 C 0.19462 0.57418 0.4574 0.0
C865 C 0.18915 0.54552 0.44499 0.0
C866 C 0.19612 0.57357 0.48117 0.0
C867 C 0.19074 0.54376 0.49279 0.0
C868 C 0.18508 0.51473 0.48028 0.0
C869 C 0.18497 0.51586 0.45646 0.0
C870 C 0.20333 0.60483 0.49384 0.0
C871 C 0.1782 0.4827 0.49205 0.0
C872 C 0.21798 0.53542 0.55419 0.0
C873 C 0.18939 0.5438 0.56587 0.0
C874 C 0.21891 0.53563 0.53038 0.0
C875 C 0.1902 0.54322 0.51804 0.0
C876 C 0.16104 0.55093 0.52982 0.0
C877 C 0.16117 0.55173 0.55363 0.0
C878 C 0.25072 0.5284 0.51845 0.0
C879 C 0.12967 0.55815 0.51731 0.0
H880 H 0.19809 0.59708 0.44847 0.0
H881 H 0.18043 0.49376 0.44681 0.0
H882 H 0.1819 0.61191 0.50424 0.0
H883 H 0.22415 0.60111 0.50563 0.0
H884 H 0.2093 0.62536 0.48224 0.0
H885 H 0.17412 0.4624 0.47986 0.0
H886 H 0.19886 0.47609 0.50332 0.0
H887 H 0.15619 0.48519 0.5029 0.0
H888 H 0.23987 0.52953 0.56371 0.0
H889 H 0.13898 0.5579 0.56271 0.0
H890 H 0.25762 0.54937 0.50753 0.0
H891 H 0.2479 0.50683 0.50724 0.0
H892 H 0.27098 0.52358 0.53054 0.0
H893 H 0.13258 0.58052 0.5069 0.0
H894 H 0.10871 0.56173 0.529 0.0
H895 H 0.12382 0.53779 0.50554 0.0
C896 C 0.45896 0.21626 0.95798 0.0
C897 C 0.4503 0.18753 0.94653 0.0
C898 C 0.45882 0.21762 0.98178 0.0
C899 C 0.45101 0.1892 0.99438 0.0
C900 C 0.44271 0.15998 0.98283 0.0
C901 C 0.44186 0.15968 0.95902 0.0
C902 C 0.46676 0.24951 0.99344 0.0
C903 C 0.43528 0.12888 0.99562 0.0
C904 C 0.48222 0.18509 0.05505 0.0
C905 C 0.45354 0.19034 0.06747 0.0
C906 C 0.48166 0.18419 0.03125 0.0
C907 C 0.45191 0.18991 0.01963 0.0
C908 C 0.42302 0.19606 0.03215 0.0
C909 C 0.42406 0.19555 0.05596 0.0
C910 C 0.51276 0.17647 0.01857 0.0
C911 C 0.39107 0.20338 0.0204 0.0
H912 H 0.46521 0.23789 0.94829 0.0
H913 H 0.43542 0.13739 0.95013 0.0
H914 H 0.44661 0.25639 1.00509 0.0
H915 H 0.48913 0.24675 1.00387 0.0
H916 H 0.47066 0.26975 0.98119 0.0
H917 H 0.43029 0.10799 0.98409 0.0
H918 H 0.45621 0.12245 0.00673 0.0
H919 H 0.41375 0.1325 0.00674 0.0
H920 H 0.50495 0.18072 0.064 0.0
H921 H 0.40193 0.19982 0.06562 0.0
H922 H 0.51937 0.19713 0.00731 0.0
H923 H 0.50901 0.15473 0.00761 0.0
H924 H 0.53359 0.17159 0.03016 0.0
H925 H 0.3942 0.22427 0.00859 0.0
H926 H 0.37126 0.20936 0.03259 0.0
H927 H 0.38333 0.18205 0.01012 0.0
C928 C 0.78014 0.46777 0.45526 0.0
C929 C 0.80901 0.46022 0.44366 0.0
C930 C 0.77912 0.46736 0.47908 0.0
C931 C 0.80798 0.46048 0.49147 0.0
C932 C 0.83743 0.45383 0.47974 0.0
C933 C 0.83741 0.45315 0.45595 0.0
C934 C 0.74704 0.47349 0.49097 0.0
C935 C 0.86895 0.44745 0.49229 0.0
C936 C 0.81254 0.48713 0.55317 0.0
C937 C 0.80934 0.4572 0.56448 0.0
C938 C 0.81224 0.48859 0.52938 0.0
C939 C 0.80739 0.45958 0.5167 0.0
C940 C 0.80306 0.42944 0.52814 0.0
C941 C 0.80474 0.42854 0.55191 0.0
C942 C 0.81806 0.52099 0.51781 0.0
C943 C 0.79677 0.39815 0.51527 0.0
H944 H 0.75812 0.47295 0.44569 0.0
H945 H 0.8598 0.44758 0.44691 0.0
H946 H 0.74063 0.45207 0.50162 0.0
H947 H 0.74922 0.49484 0.50245 0.0
H948 H 0.72676 0.47806 0.47886 0.0
H949 H 0.8901 0.44484 0.48063 0.0
H950 H 0.87403 0.46775 0.50428 0.0
H951 H 0.86677 0.42477 0.50246 0.0
H952 H 0.81639 0.50925 0.56295 0.0
H953 H 0.80199 0.40544 0.56071 0.0
H954 H 0.79719 0.52708 0.50659 0.0
H955 H 0.84013 0.51936 0.50694 0.0
H956 H 0.82149 0.54125 0.53013 0.0
H957 H 0.77584 0.40141 0.50352 0.0
H958 H 0.79142 0.3773 0.52675 0.0
H959 H 0.8184 0.39185 0.50483 0.0
C960 C 0.57774 0.80838 0.05307 0.0
C961 C 0.54848 0.81344 0.06485 0.0
C962 C 0.57816 0.80693 0.02927 0.0
C963 C 0.54881 0.81199 0.01701 0.0
C964 C 0.51927 0.81763 0.0289 0.0
C965 C 0.51937 0.81764 0.05271 0.0
C966 C 0.60992 0.79972 0.01726 0.0
C967 C 0.48769 0.82424 0.01647 0.0
C968 C 0.55679 0.84009 0.9558 0.0
C969 C 0.54848 0.81166 0.9439 0.0
C970 C 0.55653 0.84067 0.97961 0.0
C971 C 0.54903 0.81176 0.99175 0.0
C972 C 0.54138 0.78275 0.97973 0.0
C973 C 0.54056 0.78323 0.95592 0.0
C974 C 0.5637 0.87237 0.99177 0.0
C975 C 0.53433 0.75116 0.99203 0.0
H976 H 0.6002 0.80486 0.06253 0.0
H977 H 0.49679 0.82184 0.06187 0.0
H978 H 0.60687 0.77831 0.00589 0.0
H979 H 0.61698 0.82077 0.00648 0.0
H980 H 0.63016 0.79461 0.0293 0.0
H981 H 0.4671 0.82926 0.02824 0.0
H982 H 0.49075 0.84556 1.00503 0.0
H983 H 0.48114 0.80299 0.00572 0.0
H984 H 0.56261 0.86216 0.94646 0.0
H985 H 0.53439 0.76119 0.94665 0.0
H986 H 0.5856 0.86958 1.00266 0.0
H987 H 0.54295 0.87882 1.00303 0.0
H988 H 0.56796 0.89292 0.97982 0.0
H989 H 0.55489 0.74511 1.00356 0.0
H990 H 0.53053 0.7304 0.98017 0.0
H991 H 0.51216 0.75389 1.00265 0.0
C992 C 0.27049 0.37252 0.14935 0.0
C993 C 0.24147 0.36503 0.13787 0.0
C994 C 0.29604 0.34964 0.15065 0.0
C995 C 0.29286 0.31914 0.13946 0.0
C996 C 0.26391 0.31198 0.12726 0.0
C997 C 0.23834 0.33477 0.12698 0.0
C998 C 0.32606 0.35774 0.16443 0.0
C999 C 0.25993 0.28022 0.11449 0.0
C1000 C 0.3688 0.26937 0.1257 0.0
C1001 C 0.36633 0.24385 0.14143 0.0
C1002 C 0.34522 0.2943 0.12497 0.0
C1003 C 0.3193 0.29423 0.1409 0.0
C1004 C 0.31761 0.26921 0.15745 0.0
C1005 C 0.3408 0.24395 0.15723 0.0
C1006 C 0.34728 0.3199 0.10659 0.0
C1007 C 0.29099 0.26881 0.17517 0.0
H1008 H 0.27278 0.39589 0.15788 0.0
H1009 H 0.216 0.32915 0.11789 0.0
H1010 H 0.32915 0.33944 0.17815 0.0
H1011 H 0.34818 0.35649 0.15361 0.0
H1012 H 0.32469 0.38245 0.17217 0.0
H1013 H 0.23687 0.2794 0.10457 0.0
H1014 H 0.28077 0.27663 0.10271 0.0
H1015 H 0.26001 0.25942 0.12655 0.0
H1016 H 0.38842 0.26908 0.11336 0.0
H1017 H 0.33909 0.22432 0.16952 0.0
H1018 H 0.34746 0.34471 0.11415 0.0
H1019 H 0.3254 0.31827 0.09553 0.0
H1020 H 0.36943 0.31701 0.0959 0.0
H1021 H 0.28963 0.29285 0.18383 0.0
H1022 H 0.29497 0.24952 0.18814 0.0
H1023 H 0.267 0.26446 0.16696 0.0
C1024 C 0.73288 0.3675 0.64753 0.0
C1025 C 0.76122 0.36154 0.63491 0.0
C1026 C 0.7078 0.3441 0.64859 0.0
C1027 C 0.71071 0.31474 0.636 0.0
C1028 C 0.73894 0.30917 0.62267 0.0
C1029 C 0.76414 0.33237 0.62265 0.0
C1030 C 0.67859 0.35042 0.66358 0.0
C1031 C 0.7425 0.27874 0.60838 0.0
C1032 C 0.66383 0.23804 0.65199 0.0
C1033 C 0.63704 0.23964 0.63727 0.0
C1034 C 0.68734 0.26301 0.65236 0.0
C1035 C 0.6846 0.28947 0.63699 0.0
C1036 C 0.65761 0.29104 0.62198 0.0
C1037 C 0.63378 0.26637 0.62262 0.0
C1038 C 0.71516 0.26101 0.66913 0.0
C1039 C 0.65443 0.31821 0.6048 0.0
H1040 H 0.73082 0.39003 0.65711 0.0
H1041 H 0.78598 0.32798 0.6127 0.0
H1042 H 0.65586 0.35015 0.65335 0.0
H1043 H 0.67641 0.33067 0.67639 0.0
H1044 H 0.68028 0.37424 0.67255 0.0
H1045 H 0.76499 0.27916 0.59784 0.0
H1046 H 0.7433 0.25684 0.61944 0.0
H1047 H 0.72104 0.27602 0.59702 0.0
H1048 H 0.66611 0.21748 0.66348 0.0
H1049 H 0.61312 0.26742 0.61113 0.0
H1050 H 0.7168 0.28404 0.67902 0.0
H1051 H 0.73862 0.25801 0.65997 0.0
H1052 H 0.71229 0.24027 0.68112 0.0
H1053 H 0.65398 0.34225 0.61347 0.0
H1054 H 0.63197 0.31584 0.59433 0.0
H1055 H 0.67596 0.31812 0.59336 0.0
C1056 C 0.76867 0.67211 0.12406 0.0
C1057 C 0.76452 0.64225 0.13528 0.0
C1058 C 0.74378 0.69569 0.12402 0.0
C1059 C 0.71458 0.68967 0.13621 0.0
C1060 C 0.71055 0.65972 0.14791 0.0
C1061 C 0.73536 0.63607 0.14694 0.0
C1062 C 0.74858 0.72686 0.11073 0.0
C1063 C 0.68026 0.65285 0.16172 0.0
C1064 C 0.66613 0.76514 0.15274 0.0
C1065 C 0.64037 0.76425 0.13712 0.0
C1066 C 0.68987 0.74041 0.15311 0.0
C1067 C 0.68845 0.71493 0.13688 0.0
C1068 C 0.66252 0.71408 0.12096 0.0
C1069 C 0.63841 0.73847 0.12155 0.0
C1070 C 0.71648 0.74158 0.17084 0.0
C1071 C 0.66074 0.68793 0.10292 0.0
H1072 H 0.79112 0.6767 0.11484 0.0
H1073 H 0.73229 0.613 0.15573 0.0
H1074 H 0.72822 0.73012 0.0985 0.0
H1075 H 0.74824 0.74817 0.12235 0.0
H1076 H 0.77201 0.72704 0.10123 0.0
H1077 H 0.68137 0.62878 0.17039 0.0
H1078 H 0.67697 0.67221 0.17471 0.0
H1079 H 0.65836 0.6533 0.15065 0.0
H1080 H 0.66744 0.78499 0.1649 0.0
H1081 H 0.61859 0.73801 0.10934 0.0
H1082 H 0.74057 0.74494 0.16256 0.0
H1083 H 0.7174 0.71811 0.18024 0.0
H1084 H 0.7128 0.76176 0.18319 0.0
H1085 H 0.68319 0.68858 0.09238 0.0
H1086 H 0.63919 0.69096 0.09166 0.0
H1087 H 0.65953 0.66342 0.11089 0.0
C1088 C 0.2647 0.63512 0.62249 0.0
C1089 C 0.23829 0.6379 0.63746 0.0
C1090 C 0.28901 0.65929 0.62166 0.0
C1091 C 0.2874 0.68618 0.63675 0.0
C1092 C 0.26127 0.68849 0.65241 0.0
C1093 C 0.23665 0.66461 0.65227 0.0
C1094 C 0.31587 0.65653 0.60422 0.0
C1095 C 0.25925 0.71622 0.66925 0.0
C1096 C 0.36528 0.7348 0.64676 0.0
C1097 C 0.35909 0.76311 0.63414 0.0
C1098 C 0.34198 0.70966 0.64802 0.0
C1099 C 0.31242 0.7125 0.63566 0.0
C1100 C 0.30653 0.74075 0.62241 0.0
C1101 C 0.3297 0.766 0.62215 0.0
C1102 C 0.34867 0.68041 0.66291 0.0
C1103 C 0.27582 0.74424 0.6084 0.0
H1104 H 0.26577 0.61456 0.61091 0.0
H1105 H 0.21633 0.66655 0.66398 0.0
H1106 H 0.3154 0.67819 0.5929 0.0
H1107 H 0.34006 0.65619 0.61268 0.0
H1108 H 0.31351 0.63416 0.59366 0.0
H1109 H 0.23869 0.71314 0.68136 0.0
H1110 H 0.28237 0.71799 0.67901 0.0
H1111 H 0.25597 0.73971 0.66016 0.0
H1112 H 0.38796 0.73274 0.65616 0.0
H1113 H 0.3251 0.78781 0.61221 0.0
H1114 H 0.34855 0.65774 0.65261 0.0
H1115 H 0.32905 0.67796 0.67579 0.0
H1116 H 0.37254 0.68227 0.6718 0.0
H1117 H 0.27313 0.72292 0.59691 0.0
H1118 H 0.27584 0.7669 0.59802 0.0
H1119 H 0.25412 0.74465 0.61964 0.0
C1120 C 0.33541 0.7648 0.35961 0.0
C1121 C 0.36226 0.76242 0.37422 0.0
C1122 C 0.31152 0.74022 0.35902 0.0
C1123 C 0.31395 0.71335 0.37407 0.0
C1124 C 0.34097 0.71101 0.389 0.0
C1125 C 0.36517 0.73532 0.38858 0.0
C1126 C 0.28366 0.74303 0.34234 0.0
C1127 C 0.34385 0.68337 0.40584 0.0
C1128 C 0.23407 0.67082 0.38797 0.0
C1129 C 0.23674 0.64195 0.37536 0.0
C1130 C 0.25945 0.69383 0.38818 0.0
C1131 C 0.28759 0.68836 0.37474 0.0
C1132 C 0.2902 0.65933 0.36175 0.0
C1133 C 0.26495 0.63611 0.36258 0.0
C1134 C 0.25622 0.7239 0.40288 0.0
C1135 C 0.31931 0.65316 0.34663 0.0
H1136 H 0.3334 0.78566 0.34835 0.0
H1137 H 0.38589 0.73368 0.39999 0.0
H1138 H 0.28175 0.72034 0.33211 0.0
H1139 H 0.26026 0.74598 0.35158 0.0
H1140 H 0.28669 0.76411 0.33066 0.0
H1141 H 0.3663 0.68524 0.41635 0.0
H1142 H 0.32229 0.68334 0.41724 0.0
H1143 H 0.3441 0.65956 0.39685 0.0
H1144 H 0.21232 0.6751 0.39804 0.0
H1145 H 0.26681 0.61381 0.35273 0.0
H1146 H 0.25571 0.74611 0.39211 0.0
H1147 H 0.27768 0.72603 0.41429 0.0
H1148 H 0.2337 0.72345 0.41338 0.0
H1149 H 0.32173 0.67332 0.33415 0.0
H1150 H 0.3173 0.62967 0.33728 0.0
H1151 H 0.34205 0.65278 0.35685 0.0
C1152 C 0.35967 0.26138 0.88856 0.0
C1153 C 0.35704 0.2345 0.87397 0.0
C1154 C 0.33556 0.28574 0.88885 0.0
C1155 C 0.30891 0.28365 0.87359 0.0
C1156 C 0.30666 0.25692 0.8584 0.0
C1157 C 0.33048 0.2323 0.85908 0.0
C1158 C 0.33825 0.31329 0.90579 0.0
C1159 C 0.27918 0.25442 0.84139 0.0
C1160 C 0.23006 0.32851 0.88681 0.0
C1161 C 0.23417 0.35749 0.87453 0.0
C1162 C 0.25449 0.30449 0.88697 0.0
C1163 C 0.28305 0.30912 0.87381 0.0
C1164 C 0.28694 0.3381 0.86097 0.0
C1165 C 0.26267 0.36228 0.86185 0.0
C1166 C 0.24997 0.27443 0.90149 0.0
C1167 C 0.31653 0.34341 0.84614 0.0
H1168 H 0.38013 0.26287 0.9002 0.0
H1169 H 0.32867 0.21159 0.84767 0.0
H1170 H 0.33952 0.33708 0.89683 0.0
H1171 H 0.31615 0.31384 0.91668 0.0
H1172 H 0.36012 0.31091 0.91682 0.0
H1173 H 0.28205 0.23309 0.8299 0.0
H1174 H 0.25547 0.25217 0.85034 0.0
H1175 H 0.27808 0.27698 0.83097 0.0
H1176 H 0.20808 0.32505 0.89679 0.0
H1177 H 0.26564 0.38468 0.85224 0.0
H1178 H 0.27076 0.272 0.91346 0.0
H1179 H 0.24977 0.25224 0.8907 0.0
H1180 H 0.2269 0.27518 0.91139 0.0
H1181 H 0.33897 0.34387 0.85668 0.0
H1182 H 0.3151 0.36663 0.83643 0.0
H1183 H 0.31908 0.32285 0.83399 0.0
C1184 C 0.63522 0.26557 0.36434 0.0
C1185 C 0.64131 0.23766 0.37741 0.0
C1186 C 0.65842 0.29078 0.36296 0.0
C1187 C 0.68772 0.28845 0.37565 0.0
C1188 C 0.69348 0.26064 0.38937 0.0
C1189 C 0.67045 0.23528 0.38974 0.0
C1190 C 0.6519 0.31954 0.34757 0.0
C1191 C 0.72389 0.25774 0.40374 0.0
C1192 C 0.76363 0.33608 0.35905 0.0
C1193 C 0.76157 0.36324 0.37342 0.0
C1194 C 0.73912 0.3121 0.35905 0.0
C1195 C 0.71265 0.31482 0.3744 0.0
C1196 C 0.71062 0.34217 0.38905 0.0
C1197 C 0.73485 0.3664 0.38808 0.0
C1198 C 0.74158 0.28385 0.34265 0.0
C1199 C 0.6834 0.34538 0.40619 0.0
H1200 H 0.61274 0.26721 0.35468 0.0
H1201 H 0.67495 0.21377 0.40001 0.0
H1202 H 0.65177 0.34253 0.35753 0.0
H1203 H 0.67175 0.32165 0.33484 0.0
H1204 H 0.6282 0.31733 0.33852 0.0
H1205 H 0.72373 0.23544 0.41449 0.0
H1206 H 0.74583 0.25701 0.39273 0.0
H1207 H 0.72629 0.27945 0.41491 0.0
H1208 H 0.7842 0.33385 0.34758 0.0
H1209 H 0.73346 0.38735 0.39931 0.0
H1210 H 0.71866 0.28168 0.3327 0.0
H1211 H 0.74476 0.26066 0.35213 0.0
H1212 H 0.76237 0.28662 0.33071 0.0
H1213 H 0.65938 0.34537 0.39749 0.0
H1214 H 0.68548 0.36808 0.41643 0.0
H1215 H 0.68371 0.32408 0.41783 0.0
C1216 C 0.76433 0.66839 0.8835 0.0
C1217 C 0.7612 0.63858 0.87205 0.0
C1218 C 0.73895 0.69139 0.8833 0.0
C1219 C 0.7103 0.68486 0.87062 0.0
C1220 C 0.70717 0.65485 0.85883 0.0
C1221 C 0.73248 0.63173 0.86005 0.0
C1222 C 0.7428 0.7226 0.89672 0.0
C1223 C 0.67745 0.64749 0.84454 0.0
C1224 C 0.63407 0.7337 0.88471 0.0
C1225 C 0.63669 0.75986 0.86951 0.0
C1226 C 0.65776 0.70892 0.88518 0.0
C1227 C 0.68395 0.70981 0.86951 0.0
C1228 C 0.68591 0.73556 0.85351 0.0
C1229 C 0.66256 0.76066 0.854 0.0
C1230 C 0.65543 0.68251 0.90299 0.0
C1231 C 0.71287 0.73682 0.83607 0.0
H1232 H 0.78646 0.67348 0.89297 0.0
H1233 H 0.73025 0.60869 0.85108 0.0
H1234 H 0.74291 0.74389 0.88509 0.0
H1235 H 0.7218 0.72571 0.90843 0.0
H1236 H 0.76572 0.72297 0.90682 0.0
H1237 H 0.67899 0.62321 0.83619 0.0
H1238 H 0.65511 0.64815 0.85517 0.0
H1239 H 0.67462 0.66651 0.83127 0.0
H1240 H 0.61414 0.7333 0.89682 0.0
H1241 H 0.66436 0.78079 0.84212 0.0
H1242 H 0.67725 0.6835 0.91415 0.0
H1243 H 0.65516 0.65806 0.89489 0.0
H1244 H 0.63322 0.68502 0.91367 0.0
H1245 H 0.73671 0.74066 0.8446 0.0
H1246 H 0.70918 0.75677 0.82355 0.0
H1247 H 0.71434 0.71323 0.82683 0.0
loop_
_geom_bond_atom_site_label_1
_geom_bond_atom_site_label_2
_geom_bond_distance
_geom_bond_site_symmetry_2
_ccdc_geom_bond_type
C0 O2 1.247 . S
C0 O4 1.258 . S
C1 O8 1.247 . S
C1 O9 1.258 . S
O2 C0 1.247 . S
O2 Zn3 2.028 . S
Zn3 O2 2.028 . S
Zn3 O7 2.035 . S
Zn3 O9 2.035 . S
Zn3 O10 2.028 . S
O4 C0 1.258 . S
O4 Zn5 2.035 . S
Zn5 O4 2.035 . S
Zn5 O6 2.028 . S
Zn5 O8 2.028 . S
Zn5 O11 2.035 . S
O6 Zn5 2.028 . S
O6 C12 1.247 . S
O7 Zn3 2.035 . S
O7 C12 1.258 . S
O8 C1 1.247 . S
O8 Zn5 2.028 . S
O9 C1 1.258 . S
O9 Zn3 2.035 . S
O10 Zn3 2.028 . S
O10 C13 1.247 . S
O11 Zn5 2.035 . S
O11 C13 1.258 . S
C12 O6 1.247 . S
C12 O7 1.258 . S
C13 O10 1.247 . S
C13 O11 1.258 . S
C14 O16 1.247 . S
C14 O18 1.258 . S
C15 O22 1.247 . S
C15 O23 1.258 . S
O16 C14 1.247 . S
O16 Zn17 2.028 . S
Zn17 O16 2.028 . S
Zn17 O21 2.035 . S
Zn17 O23 2.035 . S
Zn17 O24 2.028 . S
O18 C14 1.258 . S
O18 Zn19 2.035 . S
Zn19 O18 2.035 . S
Zn19 O20 2.028 . S
Zn19 O22 2.028 . S
Zn19 O25 2.035 . S
O20 Zn19 2.028 . S
O20 C26 1.247 . S
O21 Zn17 2.035 . S
O21 C26 1.258 . S
O22 C15 1.247 . S
O22 Zn19 2.028 . S
O23 C15 1.258 . S
O23 Zn17 2.035 . S
O24 Zn17 2.028 . S
O24 C27 1.247 . S
O25 Zn19 2.035 . S
O25 C27 1.258 . S
C26 O20 1.247 . S
C26 O21 1.258 . S
C27 O24 1.247 . S
C27 O25 1.258 . S
C28 O30 1.247 . S
C28 O32 1.258 . S
C29 O36 1.247 . S
C29 O37 1.258 . S
O30 C28 1.247 . S
O30 Zn31 2.028 . S
Zn31 O30 2.028 . S
Zn31 O35 2.035 . S
Zn31 O37 2.035 . S
Zn31 O38 2.028 . S
O32 C28 1.258 . S
O32 Zn33 2.035 . S
Zn33 O32 2.035 . S
Zn33 O34 2.028 . S
Zn33 O36 2.028 . S
Zn33 O39 2.035 . S
O34 Zn33 2.028 . S
O34 C40 1.247 . S
O35 Zn31 2.035 . S
O35 C40 1.258 . S
O36 C29 1.247 . S
O36 Zn33 2.028 . S
O37 C29 1.258 . S
O37 Zn31 2.035 . S
O38 Zn31 2.028 . S
O38 C41 1.247 . S
O39 Zn33 2.035 . S
O39 C41 1.258 . S
C40 O34 1.247 . S
C40 O35 1.258 . S
C41 O38 1.247 . S
C41 O39 1.258 . S
C42 O44 1.247 . S
C42 O46 1.258 . S
C43 O50 1.247 . S
C43 O51 1.258 . S
O44 C42 1.247 . S
O44 Zn45 2.028 . S
Zn45 O44 2.028 . S
Zn45 O49 2.035 . S
Zn45 O51 2.035 . S
Zn45 O52 2.028 . S
O46 C42 1.258 . S
O46 Zn47 2.035 . S
Zn47 O46 2.035 . S
Zn47 O48 2.028 . S
Zn47 O50 2.028 . S
Zn47 O53 2.035 . S
O48 Zn47 2.028 . S
O48 C54 1.247 . S
O49 Zn45 2.035 . S
O49 C54 1.258 . S
O50 C43 1.247 . S
O50 Zn47 2.028 . S
O51 C43 1.258 . S
O51 Zn45 2.035 . S
O52 Zn45 2.028 . S
O52 C55 1.247 . S
O53 Zn47 2.035 . S
O53 C55 1.258 . S
C54 O48 1.247 . S
C54 O49 1.258 . S
C55 O52 1.247 . S
C55 O53 1.258 . S
C56 O58 1.247 . S
C56 O60 1.258 . S
C57 O64 1.247 . S
C57 O65 1.258 . S
O58 C56 1.247 . S
O58 Zn59 2.028 . S
Zn59 O58 2.028 . S
Zn59 O63 2.035 . S
Zn59 O65 2.035 . S
Zn59 O66 2.028 . S
O60 C56 1.258 . S
O60 Zn61 2.035 . S
Zn61 O60 2.035 . S
Zn61 O62 2.028 . S
Zn61 O64 2.028 . S
Zn61 O67 2.035 . S
O62 Zn61 2.028 . S
O62 C68 1.247 . S
O63 Zn59 2.035 . S
O63 C68 1.258 . S
O64 C57 1.247 . S
O64 Zn61 2.028 . S
O65 C57 1.258 . S
O65 Zn59 2.035 . S
O66 Zn59 2.028 . S
O66 C69 1.247 . S
O67 Zn61 2.035 . S
O67 C69 1.258 . S
C68 O62 1.247 . S
C68 O63 1.258 . S
C69 O66 1.247 . S
C69 O67 1.258 . S
C70 O72 1.247 . S
C70 O74 1.258 . S
C71 O78 1.247 . S
C71 O79 1.258 . S
O72 C70 1.247 . S
O72 Zn73 2.028 . S
Zn73 O72 2.028 . S
Zn73 O77 2.035 . S
Zn73 O79 2.035 . S
Zn73 O80 2.028 . S
O74 C70 1.258 . S
O74 Zn75 2.035 . S
Zn75 O74 2.035 . S
Zn75 O76 2.028 . S
Zn75 O78 2.028 . S
Zn75 O81 2.035 . S
O76 Zn75 2.028 . S
O76 C82 1.247 . S
O77 Zn73 2.035 . S
O77 C82 1.258 . S
O78 C71 1.247 . S
O78 Zn75 2.028 . S
O79 C71 1.258 . S
O79 Zn73 2.035 . S
O80 Zn73 2.028 . S
O80 C83 1.247 . S
O81 Zn75 2.035 . S
O81 C83 1.258 . S
C82 O76 1.247 . S
C82 O77 1.258 . S
C83 O80 1.247 . S
C83 O81 1.258 . S
C84 O86 1.247 . S
C84 O88 1.258 . S
C85 O92 1.247 . S
C85 O93 1.258 . S
O86 C84 1.247 . S
O86 Zn87 2.028 . S
Zn87 O86 2.028 . S
Zn87 O91 2.035 . S
Zn87 O93 2.035 . S
Zn87 O94 2.028 . S
O88 C84 1.258 . S
O88 Zn89 2.035 . S
Zn89 O88 2.035 . S
Zn89 O90 2.028 . S
Zn89 O92 2.028 . S
Zn89 O95 2.035 . S
O90 Zn89 2.028 . S
O90 C96 1.247 . S
O91 Zn87 2.035 . S
O91 C96 1.258 . S
O92 C85 1.247 . S
O92 Zn89 2.028 . S
O93 C85 1.258 . S
O93 Zn87 2.035 . S
O94 Zn87 2.028 . S
O94 C97 1.247 . S
O95 Zn89 2.035 . S
O95 C97 1.258 . S
C96 O90 1.247 . S
C96 O91 1.258 . S
C97 O94 1.247 . S
C97 O95 1.258 . S
C98 O100 1.247 . S
C98 O102 1.258 . S
C99 O106 1.247 . S
C99 O107 1.258 . S
O100 C98 1.247 . S
O100 Zn101 2.028 . S
Zn101 O100 2.028 . S
Zn101 O105 2.035 . S
Zn101 O107 2.035 . S
Zn101 O108 2.028 . S
O102 C98 1.258 . S
O102 Zn103 2.035 . S
Zn103 O102 2.035 . S
Zn103 O104 2.028 . S
Zn103 O106 2.028 . S
Zn103 O109 2.035 . S
O104 Zn103 2.028 . S
O104 C110 1.247 . S
O105 Zn101 2.035 . S
O105 C110 1.258 . S
O106 C99 1.247 . S
O106 Zn103 2.028 . S
O107 C99 1.258 . S
O107 Zn101 2.035 . S
O108 Zn101 2.028 . S
O108 C111 1.247 . S
O109 Zn103 2.035 . S
O109 C111 1.258 . S
C110 O104 1.247 . S
C110 O105 1.258 . S
C111 O108 1.247 . S
C111 O109 1.258 . S
C112 O114 1.247 . S
C112 O116 1.258 . S
C113 O120 1.247 . S
C113 O121 1.258 . S
O114 C112 1.247 . S
O114 Zn115 2.028 . S
Zn115 O114 2.028 . S
Zn115 O119 2.035 . S
Zn115 O121 2.035 . S
Zn115 O122 2.028 . S
O116 C112 1.258 . S
O116 Zn117 2.035 . S
Zn117 O116 2.035 . S
Zn117 O118 2.028 . S
Zn117 O120 2.028 . S
Zn117 O123 2.035 . S
O118 Zn117 2.028 . S
O118 C124 1.247 . S
O119 Zn115 2.035 . S
O119 C124 1.258 . S
O120 C113 1.247 . S
O120 Zn117 2.028 . S
O121 C113 1.258 . S
O121 Zn115 2.035 . S
O122 Zn115 2.028 . S
O122 C125 1.247 . S
O123 Zn117 2.035 . S
O123 C125 1.258 . S
C124 O118 1.247 . S
C124 O119 1.258 . S
C125 O122 1.247 . S
C125 O123 1.258 . S
C126 O128 1.247 . S
C126 O130 1.258 . S
C127 O134 1.247 . S
C127 O135 1.258 . S
O128 C126 1.247 . S
O128 Zn129 2.028 . S
Zn129 O128 2.028 . S
Zn129 O133 2.035 . S
Zn129 O135 2.035 . S
Zn129 O136 2.028 . S
O130 C126 1.258 . S
O130 Zn131 2.035 . S
Zn131 O130 2.035 . S
Zn131 O132 2.028 . S
Zn131 O134 2.028 . S
Zn131 O137 2.035 . S
O132 Zn131 2.028 . S
O132 C138 1.247 . S
O133 Zn129 2.035 . S
O133 C138 1.258 . S
O134 C127 1.247 . S
O134 Zn131 2.028 . S
O135 C127 1.258 . S
O135 Zn129 2.035 . S
O136 Zn129 2.028 . S
O136 C139 1.247 . S
O137 Zn131 2.035 . S
O137 C139 1.258 . S
C138 O132 1.247 . S
C138 O133 1.258 . S
C139 O136 1.247 . S
C139 O137 1.258 . S
C140 O142 1.247 . S
C140 O144 1.258 . S
C141 O148 1.247 . S
C141 O149 1.258 . S
O142 C140 1.247 . S
O142 Zn143 2.028 . S
Zn143 O142 2.028 . S
Zn143 O147 2.035 . S
Zn143 O149 2.035 . S
Zn143 O150 2.028 . S
O144 C140 1.258 . S
O144 Zn145 2.035 . S
Zn145 O144 2.035 . S
Zn145 O146 2.028 . S
Zn145 O148 2.028 . S
Zn145 O151 2.035 . S
O146 Zn145 2.028 . S
O146 C152 1.247 . S
O147 Zn143 2.035 . S
O147 C152 1.258 . S
O148 C141 1.247 . S
O148 Zn145 2.028 . S
O149 C141 1.258 . S
O149 Zn143 2.035 . S
O150 Zn143 2.028 . S
O150 C153 1.247 . S
O151 Zn145 2.035 . S
O151 C153 1.258 . S
C152 O146 1.247 . S
C152 O147 1.258 . S
C153 O150 1.247 . S
C153 O151 1.258 . S
C154 O156 1.247 . S
C154 O158 1.258 . S
C155 O162 1.247 . S
C155 O163 1.258 . S
O156 C154 1.247 . S
O156 Zn157 2.028 . S
Zn157 O156 2.028 . S
Zn157 O161 2.035 . S
Zn157 O163 2.035 . S
Zn157 O164 2.028 . S
O158 C154 1.258 . S
O158 Zn159 2.035 . S
Zn159 O158 2.035 . S
Zn159 O160 2.028 . S
Zn159 O162 2.028 . S
Zn159 O165 2.035 . S
O160 Zn159 2.028 . S
O160 C166 1.247 . S
O161 Zn157 2.035 . S
O161 C166 1.258 . S
O162 C155 1.247 . S
O162 Zn159 2.028 . S
O163 C155 1.258 . S
O163 Zn157 2.035 . S
O164 Zn157 2.028 . S
O164 C167 1.247 . S
O165 Zn159 2.035 . S
O165 C167 1.258 . S
C166 O160 1.247 . S
C166 O161 1.258 . S
C167 O164 1.247 . S
C167 O165 1.258 . S
C168 O170 1.247 . S
C168 O172 1.258 . S
C169 O176 1.247 . S
C169 O177 1.258 . S
O170 C168 1.247 . S
O170 Zn171 2.028 . S
Zn171 O170 2.028 . S
Zn171 O175 2.035 . S
Zn171 O177 2.035 . S
Zn171 O178 2.028 . S
O172 C168 1.258 . S
O172 Zn173 2.035 . S
Zn173 O172 2.035 . S
Zn173 O174 2.028 . S
Zn173 O176 2.028 . S
Zn173 O179 2.035 . S
O174 Zn173 2.028 . S
O174 C180 1.247 . S
O175 Zn171 2.035 . S
O175 C180 1.258 . S
O176 C169 1.247 . S
O176 Zn173 2.028 . S
O177 C169 1.258 . S
O177 Zn171 2.035 . S
O178 Zn171 2.028 . S
O178 C181 1.247 . S
O179 Zn173 2.035 . S
O179 C181 1.258 . S
C180 O174 1.247 . S
C180 O175 1.258 . S
C181 O178 1.247 . S
C181 O179 1.258 . S
C182 O184 1.247 . S
C182 O186 1.258 . S
C183 O190 1.247 . S
C183 O191 1.258 . S
O184 C182 1.247 . S
O184 Zn185 2.028 . S
Zn185 O184 2.028 . S
Zn185 O189 2.035 . S
Zn185 O191 2.035 . S
Zn185 O192 2.028 . S
O186 C182 1.258 . S
O186 Zn187 2.035 . S
Zn187 O186 2.035 . S
Zn187 O188 2.028 . S
Zn187 O190 2.028 . S
Zn187 O193 2.035 . S
O188 Zn187 2.028 . S
O188 C194 1.247 . S
O189 Zn185 2.035 . S
O189 C194 1.258 . S
O190 C183 1.247 . S
O190 Zn187 2.028 . S
O191 C183 1.258 . S
O191 Zn185 2.035 . S
O192 Zn185 2.028 . S
O192 C195 1.247 . S
O193 Zn187 2.035 . S
O193 C195 1.258 . S
C194 O188 1.247 . S
C194 O189 1.258 . S
C195 O192 1.247 . S
C195 O193 1.258 . S
C196 O198 1.247 . S
C196 O200 1.258 . S
C197 O204 1.247 . S
C197 O205 1.258 . S
O198 C196 1.247 . S
O198 Zn199 2.028 . S
Zn199 O198 2.028 . S
Zn199 O203 2.035 . S
Zn199 O205 2.035 . S
Zn199 O206 2.028 . S
O200 C196 1.258 . S
O200 Zn201 2.035 . S
Zn201 O200 2.035 . S
Zn201 O202 2.028 . S
Zn201 O204 2.028 . S
Zn201 O207 2.035 . S
O202 Zn201 2.028 . S
O202 C208 1.247 . S
O203 Zn199 2.035 . S
O203 C208 1.258 . S
O204 C197 1.247 . S
O204 Zn201 2.028 . S
O205 C197 1.258 . S
O205 Zn199 2.035 . S
O206 Zn199 2.028 . S
O206 C209 1.247 . S
O207 Zn201 2.035 . S
O207 C209 1.258 . S
C208 O202 1.247 . S
C208 O203 1.258 . S
C209 O206 1.247 . S
C209 O207 1.258 . S
C210 O212 1.247 . S
C210 O214 1.258 . S
C211 O218 1.247 . S
C211 O219 1.258 . S
O212 C210 1.247 . S
O212 Zn213 2.028 . S
Zn213 O212 2.028 . S
Zn213 O217 2.035 . S
Zn213 O219 2.035 . S
Zn213 O220 2.028 . S
O214 C210 1.258 . S
O214 Zn215 2.035 . S
Zn215 O214 2.035 . S
Zn215 O216 2.028 . S
Zn215 O218 2.028 . S
Zn215 O221 2.035 . S
O216 Zn215 2.028 . S
O216 C222 1.247 . S
O217 Zn213 2.035 . S
O217 C222 1.258 . S
O218 C211 1.247 . S
O218 Zn215 2.028 . S
O219 C211 1.258 . S
O219 Zn213 2.035 . S
O220 Zn213 2.028 . S
O220 C223 1.247 . S
O221 Zn215 2.035 . S
O221 C223 1.258 . S
C222 O216 1.247 . S
C222 O217 1.258 . S
C223 O220 1.247 . S
C223 O221 1.258 . S
C224 C225 1.391 . S
C224 C226 1.394 . S
C224 H240 0.931 . S
C225 C224 1.391 . S
C225 C229 1.376 . S
C226 C224 1.394 . S
C226 C227 1.369 . S
C226 C230 1.531 . S
C227 C226 1.369 . S
C227 C228 1.410 . S
C227 C235 1.503 1_455 S
C228 C227 1.410 . S
C228 C229 1.392 . S
C228 C231 1.511 . S
C229 C225 1.376 . S
C229 C228 1.392 . S
C229 H241 0.929 . S
C230 C226 1.531 . S
C230 H242 0.960 1_455 S
C230 H243 0.962 . S
C230 H244 0.960 . S
C231 C228 1.511 . S
C231 H245 0.961 . S
C231 H246 0.961 . S
C231 H247 0.961 . S
C232 C233 1.370 . S
C232 C234 1.363 . S
C232 H248 0.931 . S
C233 C232 1.370 . S
C233 C237 1.408 . S
C234 C232 1.363 . S
C234 C235 1.370 . S
C234 C238 1.524 . S
C235 C227 1.503 1_655 S
C235 C234 1.370 . S
C235 C236 1.403 . S
C236 C235 1.403 . S
C236 C237 1.404 . S
C236 C239 1.539 . S
C237 C233 1.408 . S
C237 C236 1.404 . S
C237 H249 0.930 . S
C238 C234 1.524 . S
C238 H250 0.956 . S
C238 H251 0.961 1_655 S
C238 H252 0.961 . S
C239 C236 1.539 . S
C239 H253 0.958 . S
C239 H254 0.961 . S
C239 H255 0.960 1_655 S
H240 C224 0.931 . S
H241 C229 0.929 . S
H242 C230 0.960 1_655 S
H243 C230 0.962 . S
H244 C230 0.960 . S
H245 C231 0.961 . S
H246 C231 0.961 . S
H247 C231 0.961 . S
H248 C232 0.931 . S
H249 C237 0.930 . S
H250 C238 0.956 . S
H251 C238 0.961 1_455 S
H252 C238 0.961 . S
H253 C239 0.958 . S
H254 C239 0.961 . S
H255 C239 0.960 1_455 S
C256 C257 1.391 . S
C256 C258 1.394 . S
C256 H272 0.931 . S
C257 C256 1.391 . S
C257 C261 1.376 . S
C258 C256 1.394 . S
C258 C259 1.369 . S
C258 C262 1.531 . S
C259 C258 1.369 . S
C259 C260 1.410 . S
C259 C267 1.503 1_565 S
C260 C259 1.410 . S
C260 C261 1.392 . S
C260 C263 1.511 . S
C261 C257 1.376 . S
C261 C260 1.392 . S
C261 H273 0.929 . S
C262 C258 1.531 . S
C262 H274 0.960 1_565 S
C262 H275 0.962 . S
C262 H276 0.960 . S
C263 C260 1.511 . S
C263 H277 0.961 . S
C263 H278 0.961 . S
C263 H279 0.961 . S
C264 C265 1.370 . S
C264 C266 1.363 . S
C264 H280 0.931 . S
C265 C264 1.370 . S
C265 C269 1.408 . S
C266 C264 1.363 . S
C266 C267 1.370 . S
C266 C270 1.524 . S
C267 C259 1.503 1_545 S
C267 C266 1.370 . S
C267 C268 1.403 . S
C268 C267 1.403 . S
C268 C269 1.404 . S
C268 C271 1.539 . S
C269 C265 1.408 . S
C269 C268 1.404 . S
C269 H281 0.930 . S
C270 C266 1.524 . S
C270 H282 0.956 1_545 S
C270 H283 0.961 1_545 S
C270 H284 0.961 . S
C271 C268 1.539 . S
C271 H285 0.958 . S
C271 H286 0.961 . S
C271 H287 0.960 . S
H272 C256 0.931 . S
H273 C261 0.929 . S
H274 C262 0.960 1_545 S
H275 C262 0.962 . S
H276 C262 0.960 . S
H277 C263 0.961 . S
H278 C263 0.961 . S
H279 C263 0.961 . S
H280 C264 0.931 . S
H281 C269 0.930 . S
H282 C270 0.956 1_565 S
H283 C270 0.961 1_565 S
H284 C270 0.961 . S
H285 C271 0.958 . S
H286 C271 0.961 . S
H287 C271 0.960 . S
C288 C289 1.391 . S
C288 C290 1.394 . S
C288 H304 0.931 . S
C289 C288 1.391 . S
C289 C293 1.376 . S
C290 C288 1.394 . S
C290 C291 1.369 . S
C290 C294 1.531 . S
C291 C290 1.369 . S
C291 C292 1.410 . S
C291 C299 1.503 1_455 S
C292 C291 1.410 . S
C292 C293 1.392 . S
C292 C295 1.511 . S
C293 C289 1.376 . S
C293 C292 1.392 . S
C293 H305 0.929 . S
C294 C290 1.531 . S
C294 H306 0.960 1_455 S
C294 H307 0.962 . S
C294 H308 0.960 . S
C295 C292 1.511 . S
C295 H309 0.961 . S
C295 H310 0.961 . S
C295 H311 0.961 . S
C296 C297 1.370 . S
C296 C298 1.363 . S
C296 H312 0.931 . S
C297 C296 1.370 . S
C297 C301 1.408 . S
C298 C296 1.363 . S
C298 C299 1.370 . S
C298 C302 1.524 . S
C299 C291 1.503 1_655 S
C299 C298 1.370 . S
C299 C300 1.403 . S
C300 C299 1.403 . S
C300 C301 1.404 . S
C300 C303 1.539 . S
C301 C297 1.408 . S
C301 C300 1.404 . S
C301 H313 0.930 . S
C302 C298 1.524 . S
C302 H314 0.956 1_655 S
C302 H315 0.961 1_655 S
C302 H316 0.961 . S
C303 C300 1.539 . S
C303 H317 0.958 . S
C303 H318 0.961 . S
C303 H319 0.960 . S
H304 C288 0.931 . S
H305 C293 0.929 . S
H306 C294 0.960 1_655 S
H307 C294 0.962 . S
H308 C294 0.960 . S
H309 C295 0.961 . S
H310 C295 0.961 . S
H311 C295 0.961 . S
H312 C296 0.931 . S
H313 C301 0.930 . S
H314 C302 0.956 1_455 S
H315 C302 0.961 1_455 S
H316 C302 0.961 . S
H317 C303 0.958 . S
H318 C303 0.961 . S
H319 C303 0.960 . S
C320 C321 1.391 . S
C320 C322 1.394 . S
C320 H336 0.931 . S
C321 C320 1.391 . S
C321 C325 1.376 . S
C322 C320 1.394 . S
C322 C323 1.369 . S
C322 C326 1.531 . S
C323 C322 1.369 . S
C323 C324 1.410 . S
C323 C331 1.503 1_565 S
C324 C323 1.410 . S
C324 C325 1.392 . S
C324 C327 1.511 . S
C325 C321 1.376 . S
C325 C324 1.392 . S
C325 H337 0.929 . S
C326 C322 1.531 . S
C326 H338 0.960 1_565 S
C326 H339 0.962 . S
C326 H340 0.960 . S
C327 C324 1.511 . S
C327 H341 0.961 . S
C327 H342 0.961 . S
C327 H343 0.961 . S
C328 C329 1.370 . S
C328 C330 1.363 . S
C328 H344 0.931 . S
C329 C328 1.370 . S
C329 C333 1.408 . S
C330 C328 1.363 . S
C330 C331 1.370 . S
C330 C334 1.524 . S
C331 C323 1.503 1_545 S
C331 C330 1.370 . S
C331 C332 1.403 . S
C332 C331 1.403 . S
C332 C333 1.404 . S
C332 C335 1.539 . S
C333 C329 1.408 . S
C333 C332 1.404 . S
C333 H345 0.930 . S
C334 C330 1.524 . S
C334 H346 0.956 . S
C334 H347 0.961 1_545 S
C334 H348 0.961 . S
C335 C332 1.539 . S
C335 H349 0.958 . S
C335 H350 0.961 . S
C335 H351 0.964 . S
H336 C320 0.931 . S
H337 C325 0.929 . S
H338 C326 0.960 1_545 S
H339 C326 0.962 . S
H340 C326 0.960 . S
H341 C327 0.961 . S
H342 C327 0.961 . S
H343 C327 0.961 . S
H344 C328 0.931 . S
H345 C333 0.930 . S
H346 C334 0.956 . S
H347 C334 0.961 1_565 S
H348 C334 0.961 . S
H349 C335 0.958 . S
H350 C335 0.961 . S
H351 C335 0.964 . S
C352 C353 1.391 . S
C352 C354 1.394 . S
C352 H368 0.931 . S
C353 C352 1.391 . S
C353 C357 1.376 . S
C354 C352 1.394 . S
C354 C355 1.369 . S
C354 C358 1.531 . S
C355 C354 1.369 . S
C355 C356 1.410 . S
C355 C363 1.503 1_655 S
C356 C355 1.410 . S
C356 C357 1.392 . S
C356 C359 1.511 . S
C357 C353 1.376 . S
C357 C356 1.392 . S
C357 H369 0.929 . S
C358 C354 1.531 . S
C358 H370 0.960 1_655 S
C358 H371 0.962 . S
C358 H372 0.960 . S
C359 C356 1.511 . S
C359 H373 0.961 . S
C359 H374 0.961 . S
C359 H375 0.961 . S
C360 C361 1.370 . S
C360 C362 1.363 . S
C360 H376 0.931 . S
C361 C360 1.370 . S
C361 C365 1.408 . S
C362 C360 1.363 . S
C362 C363 1.370 . S
C362 C366 1.524 . S
C363 C355 1.503 1_455 S
C363 C362 1.370 . S
C363 C364 1.403 . S
C364 C363 1.403 . S
C364 C365 1.404 . S
C364 C367 1.539 . S
C365 C361 1.408 . S
C365 C364 1.404 . S
C365 H377 0.930 . S
C366 C362 1.524 . S
C366 H378 0.956 . S
C366 H379 0.961 1_455 S
C366 H380 0.961 . S
C367 C364 1.539 . S
C367 H381 0.958 . S
C367 H382 0.961 . S
C367 H383 0.960 1_455 S
H368 C352 0.931 . S
H369 C357 0.929 . S
H370 C358 0.960 1_455 S
H371 C358 0.962 . S
H372 C358 0.960 . S
H373 C359 0.961 . S
H374 C359 0.961 . S
H375 C359 0.961 . S
H376 C360 0.931 . S
H377 C365 0.930 . S
H378 C366 0.956 . S
H379 C366 0.961 1_655 S
H380 C366 0.961 . S
H381 C367 0.958 . S
H382 C367 0.961 . S
H383 C367 0.960 1_655 S
C384 C385 1.391 . S
C384 C386 1.394 . S
C384 H400 0.931 . S
C385 C384 1.391 . S
C385 C389 1.376 . S
C386 C384 1.394 . S
C386 C387 1.369 . S
C386 C390 1.531 . S
C387 C386 1.369 . S
C387 C388 1.410 . S
C387 C395 1.503 1_545 S
C388 C387 1.410 . S
C388 C389 1.392 . S
C388 C391 1.511 . S
C389 C385 1.376 . S
C389 C388 1.392 . S
C389 H401 0.929 . S
C390 C386 1.531 . S
C390 H402 0.960 . S
C390 H403 0.962 . S
C390 H404 0.960 . S
C391 C388 1.511 . S
C391 H405 0.961 . S
C391 H406 0.961 1_545 S
C391 H407 0.961 . S
C392 C393 1.370 . S
C392 C394 1.363 . S
C392 H408 0.931 . S
C393 C392 1.370 . S
C393 C397 1.408 . S
C394 C392 1.363 . S
C394 C395 1.370 . S
C394 C398 1.524 . S
C395 C387 1.503 1_565 S
C395 C394 1.370 . S
C395 C396 1.403 . S
C396 C395 1.403 . S
C396 C397 1.404 . S
C396 C399 1.539 . S
C397 C393 1.408 . S
C397 C396 1.404 . S
C397 H409 0.930 . S
C398 C394 1.524 . S
C398 H410 0.956 1_565 S
C398 H411 0.961 1_565 S
C398 H412 0.961 . S
C399 C396 1.539 . S
C399 H413 0.958 . S
C399 H414 0.961 . S
C399 H415 0.960 . S
H400 C384 0.931 . S
H401 C389 0.929 . S
H402 C390 0.960 . S
H403 C390 0.962 . S
H404 C390 0.960 . S
H405 C391 0.961 . S
H406 C391 0.961 1_565 S
H407 C391 0.961 . S
H408 C392 0.931 . S
H409 C397 0.930 . S
H410 C398 0.956 1_545 S
H411 C398 0.961 1_545 S
H412 C398 0.961 . S
H413 C399 0.958 . S
H414 C399 0.961 . S
H415 C399 0.960 . S
C416 C417 1.391 . S
C416 C418 1.394 . S
C416 H432 0.931 . S
C417 C416 1.391 . S
C417 C421 1.376 . S
C418 C416 1.394 . S
C418 C419 1.369 . S
C418 C422 1.531 . S
C419 C418 1.369 . S
C419 C420 1.410 . S
C419 C427 1.503 1_655 S
C420 C419 1.410 . S
C420 C421 1.392 . S
C420 C423 1.511 . S
C421 C417 1.376 . S
C421 C420 1.392 . S
C421 H433 0.929 . S
C422 C418 1.531 . S
C422 H434 0.960 1_655 S
C422 H435 0.962 . S
C422 H436 0.960 . S
C423 C420 1.511 . S
C423 H437 0.961 . S
C423 H438 0.961 . S
C423 H439 0.961 . S
C424 C425 1.370 . S
C424 C426 1.363 . S
C424 H440 0.931 . S
C425 C424 1.370 . S
C425 C429 1.408 . S
C426 C424 1.363 . S
C426 C427 1.370 . S
C426 C430 1.524 . S
C427 C419 1.503 1_455 S
C427 C426 1.370 . S
C427 C428 1.403 . S
C428 C427 1.403 . S
C428 C429 1.404 . S
C428 C431 1.539 . S
C429 C425 1.408 . S
C429 C428 1.404 . S
C429 H441 0.930 . S
C430 C426 1.524 . S
C430 H442 0.956 . S
C430 H443 0.961 1_455 S
C430 H444 0.961 . S
C431 C428 1.539 . S
C431 H445 0.958 . S
C431 H446 0.961 . S
C431 H447 0.960 1_455 S
H432 C416 0.931 . S
H433 C421 0.929 . S
H434 C422 0.960 1_455 S
H435 C422 0.962 . S
H436 C422 0.960 . S
H437 C423 0.961 . S
H438 C423 0.961 . S
H439 C423 0.961 . S
H440 C424 0.931 . S
H441 C429 0.930 . S
H442 C430 0.956 . S
H443 C430 0.961 1_655 S
H444 C430 0.961 . S
H445 C431 0.958 . S
H446 C431 0.961 . S
H447 C431 0.960 1_655 S
C448 C449 1.391 . S
C448 C450 1.394 . S
C448 H464 0.931 . S
C449 C448 1.391 . S
C449 C453 1.376 . S
C450 C448 1.394 . S
C450 C451 1.369 . S
C450 C454 1.531 . S
C451 C450 1.369 . S
C451 C452 1.410 . S
C451 C459 1.503 1_545 S
C452 C451 1.410 . S
C452 C453 1.392 . S
C452 C455 1.511 . S
C453 C449 1.376 . S
C453 C452 1.392 . S
C453 H465 0.929 . S
C454 C450 1.531 . S
C454 H466 0.960 1_545 S
C454 H467 0.962 . S
C454 H468 0.960 . S
C455 C452 1.511 . S
C455 H469 0.961 . S
C455 H470 0.961 1_545 S
C455 H471 0.961 . S
C456 C457 1.370 . S
C456 C458 1.363 . S
C456 H472 0.931 . S
C457 C456 1.370 . S
C457 C461 1.408 . S
C458 C456 1.363 . S
C458 C459 1.370 . S
C458 C462 1.524 . S
C459 C451 1.503 1_565 S
C459 C458 1.370 . S
C459 C460 1.403 . S
C460 C459 1.403 . S
C460 C461 1.404 . S
C460 C463 1.539 . S
C461 C457 1.408 . S
C461 C460 1.404 . S
C461 H473 0.930 . S
C462 C458 1.524 . S
C462 H474 0.956 1_565 S
C462 H475 0.961 1_565 S
C462 H476 0.961 . S
C463 C460 1.539 . S
C463 H477 0.958 . S
C463 H478 0.961 . S
C463 H479 0.960 . S
H464 C448 0.931 . S
H465 C453 0.929 . S
H466 C454 0.960 1_565 S
H467 C454 0.962 . S
H468 C454 0.960 . S
H469 C455 0.961 . S
H470 C455 0.961 1_565 S
H471 C455 0.961 . S
H472 C456 0.931 . S
H473 C461 0.930 . S
H474 C462 0.956 1_545 S
H475 C462 0.961 1_545 S
H476 C462 0.961 . S
H477 C463 0.958 . S
H478 C463 0.961 . S
H479 C463 0.960 . S
C480 C481 1.391 . S
C480 C482 1.394 . S
C480 H496 0.931 . S
C481 C480 1.391 . S
C481 C485 1.376 . S
C482 C480 1.394 . S
C482 C483 1.369 . S
C482 C486 1.531 . S
C483 C482 1.369 . S
C483 C484 1.410 . S
C483 C491 1.503 . S
C484 C483 1.410 . S
C484 C485 1.392 . S
C484 C487 1.511 . S
C485 C481 1.376 . S
C485 C484 1.392 . S
C485 H497 0.929 . S
C486 C482 1.531 . S
C486 H498 0.960 . S
C486 H499 0.962 . S
C486 H500 0.960 . S
C487 C484 1.511 . S
C487 H501 0.961 . S
C487 H502 0.961 . S
C487 H503 0.961 . S
C488 C489 1.370 . S
C488 C490 1.363 . S
C488 H504 0.931 . S
C489 C488 1.370 . S
C489 C493 1.408 . S
C490 C488 1.363 . S
C490 C491 1.370 . S
C490 C494 1.524 . S
C491 C483 1.503 . S
C491 C490 1.370 . S
C491 C492 1.403 . S
C492 C491 1.403 . S
C492 C493 1.404 . S
C492 C495 1.539 . S
C493 C489 1.408 . S
C493 C492 1.404 . S
C493 H505 0.930 . S
C494 C490 1.524 . S
C494 H506 0.956 . S
C494 H507 0.961 . S
C494 H508 0.961 . S
C495 C492 1.539 . S
C495 H509 0.958 . S
C495 H510 0.961 . S
C495 H511 0.960 . S
H496 C480 0.931 . S
H497 C485 0.929 . S
H498 C486 0.960 . S
H499 C486 0.962 . S
H500 C486 0.960 . S
H501 C487 0.961 . S
H502 C487 0.961 . S
H503 C487 0.961 . S
H504 C488 0.931 . S
H505 C493 0.930 . S
H506 C494 0.956 . S
H507 C494 0.961 . S
H508 C494 0.961 . S
H509 C495 0.958 . S
H510 C495 0.961 . S
H511 C495 0.960 . S
C512 C513 1.391 . S
C512 C514 1.394 . S
C512 H528 0.931 . S
C513 C512 1.391 . S
C513 C517 1.376 . S
C514 C512 1.394 . S
C514 C515 1.369 . S
C514 C518 1.531 . S
C515 C514 1.369 . S
C515 C516 1.410 . S
C515 C523 1.503 . S
C516 C515 1.410 . S
C516 C517 1.392 . S
C516 C519 1.511 . S
C517 C513 1.376 . S
C517 C516 1.392 . S
C517 H529 0.929 . S
C518 C514 1.531 . S
C518 H530 0.960 . S
C518 H531 0.962 . S
C518 H532 0.960 . S
C519 C516 1.511 . S
C519 H533 0.961 . S
C519 H534 0.961 . S
C519 H535 0.961 . S
C520 C521 1.370 . S
C520 C522 1.363 . S
C520 H536 0.931 . S
C521 C520 1.370 . S
C521 C525 1.408 . S
C522 C520 1.363 . S
C522 C523 1.370 . S
C522 C526 1.524 . S
C523 C515 1.503 . S
C523 C522 1.370 . S
C523 C524 1.403 . S
C524 C523 1.403 . S
C524 C525 1.404 . S
C524 C527 1.539 . S
C525 C521 1.408 . S
C525 C524 1.404 . S
C525 H537 0.930 . S
C526 C522 1.524 . S
C526 H538 0.956 . S
C526 H539 0.961 . S
C526 H540 0.961 . S
C527 C524 1.539 . S
C527 H541 0.958 . S
C527 H542 0.961 . S
C527 H543 0.960 . S
H528 C512 0.931 . S
H529 C517 0.929 . S
H530 C518 0.960 . S
H531 C518 0.962 . S
H532 C518 0.960 . S
H533 C519 0.961 . S
H534 C519 0.961 . S
H535 C519 0.961 . S
H536 C520 0.931 . S
H537 C525 0.930 . S
H538 C526 0.956 . S
H539 C526 0.961 . S
H540 C526 0.961 . S
H541 C527 0.958 . S
H542 C527 0.961 . S
H543 C527 0.960 . S
C544 C545 1.391 . S
C544 C546 1.394 . S
C544 H560 0.931 . S
C545 C544 1.391 . S
C545 C549 1.376 . S
C546 C544 1.394 . S
C546 C547 1.369 . S
C546 C550 1.531 . S
C547 C546 1.369 . S
C547 C548 1.410 . S
C547 C555 1.503 . S
C548 C547 1.410 . S
C548 C549 1.392 . S
C548 C551 1.511 . S
C549 C545 1.376 . S
C549 C548 1.392 . S
C549 H561 0.929 . S
C550 C546 1.531 . S
C550 H562 0.960 . S
C550 H563 0.962 . S
C550 H564 0.960 . S
C551 C548 1.511 . S
C551 H565 0.961 . S
C551 H566 0.961 . S
C551 H567 0.961 . S
C552 C553 1.370 . S
C552 C554 1.363 . S
C552 H568 0.931 . S
C553 C552 1.370 . S
C553 C557 1.408 . S
C554 C552 1.363 . S
C554 C555 1.370 . S
C554 C558 1.524 . S
C555 C547 1.503 . S
C555 C554 1.370 . S
C555 C556 1.403 . S
C556 C555 1.403 . S
C556 C557 1.404 . S
C556 C559 1.539 . S
C557 C553 1.408 . S
C557 C556 1.404 . S
C557 H569 0.930 . S
C558 C554 1.524 . S
C558 H570 0.956 . S
C558 H571 0.961 . S
C558 H572 0.961 . S
C559 C556 1.539 . S
C559 H573 0.958 . S
C559 H574 0.961 . S
C559 H575 0.960 . S
H560 C544 0.931 . S
H561 C549 0.929 . S
H562 C550 0.960 . S
H563 C550 0.962 . S
H564 C550 0.960 . S
H565 C551 0.961 . S
H566 C551 0.961 . S
H567 C551 0.961 . S
H568 C552 0.931 . S
H569 C557 0.930 . S
H570 C558 0.956 . S
H571 C558 0.961 . S
H572 C558 0.961 . S
H573 C559 0.958 . S
H574 C559 0.961 . S
H575 C559 0.960 . S
C576 C577 1.391 . S
C576 C578 1.394 . S
C576 H592 0.931 . S
C577 C576 1.391 . S
C577 C581 1.376 . S
C578 C576 1.394 . S
C578 C579 1.369 . S
C578 C582 1.531 . S
C579 C578 1.369 . S
C579 C580 1.410 . S
C579 C587 1.503 . S
C580 C579 1.410 . S
C580 C581 1.392 . S
C580 C583 1.511 . S
C581 C577 1.376 . S
C581 C580 1.392 . S
C581 H593 0.929 . S
C582 C578 1.531 . S
C582 H594 0.960 . S
C582 H595 0.962 . S
C582 H596 0.960 . S
C583 C580 1.511 . S
C583 H597 0.961 . S
C583 H598 0.961 . S
C583 H599 0.961 . S
C584 C585 1.370 . S
C584 C586 1.363 . S
C584 H600 0.931 . S
C585 C584 1.370 . S
C585 C589 1.408 . S
C586 C584 1.363 . S
C586 C587 1.370 . S
C586 C590 1.524 . S
C587 C579 1.503 . S
C587 C586 1.370 . S
C587 C588 1.403 . S
C588 C587 1.403 . S
C588 C589 1.404 . S
C588 C591 1.539 . S
C589 C585 1.408 . S
C589 C588 1.404 . S
C589 H601 0.930 . S
C590 C586 1.524 . S
C590 H602 0.956 . S
C590 H603 0.961 . S
C590 H604 0.961 . S
C591 C588 1.539 . S
C591 H605 0.958 . S
C591 H606 0.961 . S
C591 H607 0.960 . S
H592 C576 0.931 . S
H593 C581 0.929 . S
H594 C582 0.960 . S
H595 C582 0.962 . S
H596 C582 0.960 . S
H597 C583 0.961 . S
H598 C583 0.961 . S
H599 C583 0.961 . S
H600 C584 0.931 . S
H601 C589 0.930 . S
H602 C590 0.956 . S
H603 C590 0.961 . S
H604 C590 0.961 . S
H605 C591 0.958 . S
H606 C591 0.961 . S
H607 C591 0.960 . S
C608 C609 1.391 . S
C608 C610 1.394 . S
C608 H624 0.931 . S
C609 C608 1.391 . S
C609 C613 1.376 . S
C610 C608 1.394 . S
C610 C611 1.369 . S
C610 C614 1.531 . S
C611 C610 1.369 . S
C611 C612 1.410 . S
C611 C619 1.503 . S
C612 C611 1.410 . S
C612 C613 1.392 . S
C612 C615 1.511 . S
C613 C609 1.376 . S
C613 C612 1.392 . S
C613 H625 0.929 . S
C614 C610 1.531 . S
C614 H626 0.960 . S
C614 H627 0.962 . S
C614 H628 0.960 . S
C615 C612 1.511 . S
C615 H629 0.961 . S
C615 H630 0.961 . S
C615 H631 0.961 . S
C616 C617 1.370 . S
C616 C618 1.363 . S
C616 H632 0.931 . S
C617 C616 1.370 . S
C617 C621 1.408 . S
C618 C616 1.363 . S
C618 C619 1.370 . S
C618 C622 1.524 . S
C619 C611 1.503 . S
C619 C618 1.370 . S
C619 C620 1.403 . S
C620 C619 1.403 . S
C620 C621 1.404 . S
C620 C623 1.539 . S
C621 C617 1.408 . S
C621 C620 1.404 . S
C621 H633 0.930 . S
C622 C618 1.524 . S
C622 H634 0.956 . S
C622 H635 0.961 . S
C622 H636 0.961 . S
C623 C620 1.539 . S
C623 H637 0.958 . S
C623 H638 0.961 . S
C623 H639 0.960 . S
H624 C608 0.931 . S
H625 C613 0.929 . S
H626 C614 0.960 . S
H627 C614 0.962 . S
H628 C614 0.960 . S
H629 C615 0.961 . S
H630 C615 0.961 . S
H631 C615 0.961 . S
H632 C616 0.931 . S
H633 C621 0.930 . S
H634 C622 0.956 . S
H635 C622 0.961 . S
H636 C622 0.961 . S
H637 C623 0.958 . S
H638 C623 0.961 . S
H639 C623 0.960 . S
C640 C641 1.391 . S
C640 C642 1.394 . S
C640 H656 0.931 . S
C641 C640 1.391 . S
C641 C645 1.376 . S
C642 C640 1.394 . S
C642 C643 1.369 . S
C642 C646 1.531 . S
C643 C642 1.369 . S
C643 C644 1.410 . S
C643 C651 1.503 . S
C644 C643 1.410 . S
C644 C645 1.392 . S
C644 C647 1.511 . S
C645 C641 1.376 . S
C645 C644 1.392 . S
C645 H657 0.929 . S
C646 C642 1.531 . S
C646 H658 0.960 . S
C646 H659 0.962 . S
C646 H660 0.960 . S
C647 C644 1.511 . S
C647 H661 0.961 . S
C647 H662 0.961 . S
C647 H663 0.961 . S
C648 C649 1.370 . S
C648 C650 1.363 . S
C648 H664 0.931 . S
C649 C648 1.370 . S
C649 C653 1.408 . S
C650 C648 1.363 . S
C650 C651 1.370 . S
C650 C654 1.524 . S
C651 C643 1.503 . S
C651 C650 1.370 . S
C651 C652 1.403 . S
C652 C651 1.403 . S
C652 C653 1.404 . S
C652 C655 1.539 . S
C653 C649 1.408 . S
C653 C652 1.404 . S
C653 H665 0.930 . S
C654 C650 1.524 . S
C654 H666 0.956 . S
C654 H667 0.961 . S
C654 H668 0.961 . S
C655 C652 1.539 . S
C655 H669 0.958 . S
C655 H670 0.961 . S
C655 H671 0.960 . S
H656 C640 0.931 . S
H657 C645 0.929 . S
H658 C646 0.960 . S
H659 C646 0.962 . S
H660 C646 0.960 . S
H661 C647 0.961 . S
H662 C647 0.961 . S
H663 C647 0.961 . S
H664 C648 0.931 . S
H665 C653 0.930 . S
H666 C654 0.956 . S
H667 C654 0.961 . S
H668 C654 0.961 . S
H669 C655 0.958 . S
H670 C655 0.961 . S
H671 C655 0.960 . S
C672 C673 1.391 . S
C672 C674 1.394 . S
C672 H688 0.931 . S
C673 C672 1.391 . S
C673 C677 1.376 . S
C674 C672 1.394 . S
C674 C675 1.369 . S
C674 C678 1.531 . S
C675 C674 1.369 . S
C675 C676 1.410 . S
C675 C683 1.503 . S
C676 C675 1.410 . S
C676 C677 1.392 . S
C676 C679 1.511 . S
C677 C673 1.376 . S
C677 C676 1.392 . S
C677 H689 0.929 . S
C678 C674 1.531 . S
C678 H690 0.960 . S
C678 H691 0.962 . S
C678 H692 0.960 . S
C679 C676 1.511 . S
C679 H693 0.961 . S
C679 H694 0.961 . S
C679 H695 0.961 . S
C680 C681 1.370 . S
C680 C682 1.363 . S
C680 H696 0.931 . S
C681 C680 1.370 . S
C681 C685 1.408 . S
C682 C680 1.363 . S
C682 C683 1.370 . S
C682 C686 1.524 . S
C683 C675 1.503 . S
C683 C682 1.370 . S
C683 C684 1.403 . S
C684 C683 1.403 . S
C684 C685 1.404 . S
C684 C687 1.539 . S
C685 C681 1.408 . S
C685 C684 1.404 . S
C685 H697 0.930 . S
C686 C682 1.524 . S
C686 H698 0.956 . S
C686 H699 0.961 . S
C686 H700 0.961 . S
C687 C684 1.539 . S
C687 H701 0.958 . S
C687 H702 0.961 . S
C687 H703 0.960 . S
H688 C672 0.931 . S
H689 C677 0.929 . S
H690 C678 0.960 . S
H691 C678 0.962 . S
H692 C678 0.960 . S
H693 C679 0.961 . S
H694 C679 0.961 . S
H695 C679 0.961 . S
H696 C680 0.931 . S
H697 C685 0.930 . S
H698 C686 0.956 . S
H699 C686 0.961 . S
H700 C686 0.961 . S
H701 C687 0.958 . S
H702 C687 0.961 . S
H703 C687 0.960 . S
C704 C705 1.391 . S
C704 C706 1.394 . S
C704 H720 0.931 . S
C705 C704 1.391 . S
C705 C709 1.376 . S
C706 C704 1.394 . S
C706 C707 1.369 . S
C706 C710 1.531 . S
C707 C706 1.369 . S
C707 C708 1.410 . S
C707 C715 1.503 . S
C708 C707 1.410 . S
C708 C709 1.392 . S
C708 C711 1.511 . S
C709 C705 1.376 . S
C709 C708 1.392 . S
C709 H721 0.929 . S
C710 C706 1.531 . S
C710 H722 0.960 . S
C710 H723 0.962 . S
C710 H724 0.960 . S
C711 C708 1.511 . S
C711 H725 0.961 . S
C711 H726 0.961 . S
C711 H727 0.961 . S
C712 C713 1.370 . S
C712 C714 1.363 . S
C712 H728 0.931 . S
C713 C712 1.370 . S
C713 C717 1.408 . S
C714 C712 1.363 . S
C714 C715 1.370 . S
C714 C718 1.524 . S
C715 C707 1.503 . S
C715 C714 1.370 . S
C715 C716 1.403 . S
C716 C715 1.403 . S
C716 C717 1.404 . S
C716 C719 1.539 . S
C717 C713 1.408 . S
C717 C716 1.404 . S
C717 H729 0.930 . S
C718 C714 1.524 . S
C718 H730 0.956 . S
C718 H731 0.961 . S
C718 H732 0.961 . S
C719 C716 1.539 . S
C719 H733 0.958 . S
C719 H734 0.961 . S
C719 H735 0.960 . S
H720 C704 0.931 . S
H721 C709 0.929 . S
H722 C710 0.960 . S
H723 C710 0.962 . S
H724 C710 0.960 . S
H725 C711 0.961 . S
H726 C711 0.961 . S
H727 C711 0.961 . S
H728 C712 0.931 . S
H729 C717 0.930 . S
H730 C718 0.956 . S
H731 C718 0.961 . S
H732 C718 0.961 . S
H733 C719 0.958 . S
H734 C719 0.961 . S
H735 C719 0.960 . S
C736 C737 1.391 . S
C736 C738 1.394 . S
C736 H752 0.931 . S
C737 C736 1.391 . S
C737 C741 1.376 . S
C738 C736 1.394 . S
C738 C739 1.369 . S
C738 C742 1.531 . S
C739 C738 1.369 . S
C739 C740 1.410 . S
C739 C747 1.503 1_556 S
C740 C739 1.410 . S
C740 C741 1.392 . S
C740 C743 1.511 . S
C741 C737 1.376 . S
C741 C740 1.392 . S
C741 H753 0.929 . S
C742 C738 1.531 . S
C742 H754 0.960 1_556 S
C742 H755 0.962 . S
C742 H756 0.960 . S
C743 C740 1.511 . S
C743 H757 0.961 . S
C743 H758 0.961 1_556 S
C743 H759 0.961 . S
C744 C745 1.370 . S
C744 C746 1.363 . S
C744 H760 0.931 . S
C745 C744 1.370 . S
C745 C749 1.408 . S
C746 C744 1.363 . S
C746 C747 1.370 . S
C746 C750 1.524 . S
C747 C739 1.503 1_554 S
C747 C746 1.370 . S
C747 C748 1.403 . S
C748 C747 1.403 . S
C748 C749 1.404 . S
C748 C751 1.539 . S
C749 C745 1.408 . S
C749 C748 1.404 . S
C749 H761 0.930 . S
C750 C746 1.524 . S
C750 H762 0.984 . S
C750 H763 0.961 1_554 S
C750 H764 0.961 . S
C751 C748 1.539 . S
C751 H765 0.958 . S
C751 H766 0.961 . S
C751 H767 0.970 . S
H752 C736 0.931 . S
H753 C741 0.929 . S
H754 C742 0.960 1_554 S
H755 C742 0.962 . S
H756 C742 0.960 . S
H757 C743 0.961 . S
H758 C743 0.961 1_554 S
H759 C743 0.961 . S
H760 C744 0.931 . S
H761 C749 0.930 . S
H762 C750 0.984 . S
H763 C750 0.961 1_556 S
H764 C750 0.961 . S
H765 C751 0.958 . S
H766 C751 0.961 . S
H767 C751 0.970 . S
C768 C769 1.391 . S
C768 C770 1.394 . S
C768 H784 0.931 . S
C769 C768 1.391 . S
C769 C773 1.376 . S
C770 C768 1.394 . S
C770 C771 1.369 . S
C770 C774 1.531 . S
C771 C770 1.369 . S
C771 C772 1.410 . S
C771 C779 1.503 . S
C772 C771 1.410 . S
C772 C773 1.392 . S
C772 C775 1.511 . S
C773 C769 1.376 . S
C773 C772 1.392 . S
C773 H785 0.929 . S
C774 C770 1.531 . S
C774 H786 0.960 . S
C774 H787 0.962 . S
C774 H788 0.960 . S
C775 C772 1.511 . S
C775 H789 0.961 . S
C775 H790 0.961 . S
C775 H791 0.961 . S
C776 C777 1.370 . S
C776 C778 1.363 . S
C776 H792 0.931 . S
C777 C776 1.370 . S
C777 C781 1.408 . S
C778 C776 1.363 . S
C778 C779 1.370 . S
C778 C782 1.524 . S
C779 C771 1.503 . S
C779 C778 1.370 . S
C779 C780 1.403 . S
C780 C779 1.403 . S
C780 C781 1.404 . S
C780 C783 1.539 . S
C781 C777 1.408 . S
C781 C780 1.404 . S
C781 H793 0.930 . S
C782 C778 1.524 . S
C782 H794 0.956 . S
C782 H795 0.961 . S
C782 H796 0.961 . S
C783 C780 1.539 . S
C783 H797 0.958 . S
C783 H798 0.961 . S
C783 H799 0.960 . S
H784 C768 0.931 . S
H785 C773 0.929 . S
H786 C774 0.960 . S
H787 C774 0.962 . S
H788 C774 0.960 . S
H789 C775 0.961 . S
H790 C775 0.961 . S
H791 C775 0.961 . S
H792 C776 0.931 . S
H793 C781 0.930 . S
H794 C782 0.956 . S
H795 C782 0.961 . S
H796 C782 0.961 . S
H797 C783 0.958 . S
H798 C783 0.961 . S
H799 C783 0.960 . S
C800 C801 1.391 . S
C800 C802 1.394 . S
C800 H816 0.931 . S
C801 C800 1.391 . S
C801 C805 1.376 . S
C802 C800 1.394 . S
C802 C803 1.369 . S
C802 C806 1.531 . S
C803 C802 1.369 . S
C803 C804 1.410 . S
C803 C811 1.503 1_554 S
C804 C803 1.410 . S
C804 C805 1.392 . S
C804 C807 1.511 . S
C805 C801 1.376 . S
C805 C804 1.392 . S
C805 H817 0.929 . S
C806 C802 1.531 . S
C806 H818 0.960 1_554 S
C806 H819 0.962 . S
C806 H820 0.960 . S
C807 C804 1.511 . S
C807 H821 0.961 . S
C807 H822 0.961 1_554 S
C807 H823 0.961 . S
C808 C809 1.370 . S
C808 C810 1.363 . S
C808 H824 0.931 . S
C809 C808 1.370 . S
C809 C813 1.408 . S
C810 C808 1.363 . S
C810 C811 1.370 . S
C810 C814 1.524 . S
C811 C803 1.503 1_556 S
C811 C810 1.370 . S
C811 C812 1.403 . S
C812 C811 1.403 . S
C812 C813 1.404 . S
C812 C815 1.539 . S
C813 C809 1.408 . S
C813 C812 1.404 . S
C813 H825 0.930 . S
C814 C810 1.524 . S
C814 H826 0.984 . S
C814 H827 0.961 1_556 S
C814 H828 0.961 . S
C815 C812 1.539 . S
C815 H829 0.958 . S
C815 H830 0.961 . S
C815 H831 0.970 . S
H816 C800 0.931 . S
H817 C805 0.929 . S
H818 C806 0.960 1_556 S
H819 C806 0.962 . S
H820 C806 0.960 . S
H821 C807 0.961 . S
H822 C807 0.961 1_556 S
H823 C807 0.961 . S
H824 C808 0.931 . S
H825 C813 0.930 . S
H826 C814 0.984 . S
H827 C814 0.961 1_554 S
H828 C814 0.961 . S
H829 C815 0.958 . S
H830 C815 0.961 . S
H831 C815 0.970 . S
C832 C833 1.391 . S
C832 C834 1.394 . S
C832 H848 0.931 . S
C833 C832 1.391 . S
C833 C837 1.376 . S
C834 C832 1.394 . S
C834 C835 1.369 . S
C834 C838 1.531 . S
C835 C834 1.369 . S
C835 C836 1.410 . S
C835 C843 1.503 . S
C836 C835 1.410 . S
C836 C837 1.392 . S
C836 C839 1.511 . S
C837 C833 1.376 . S
C837 C836 1.392 . S
C837 H849 0.929 . S
C838 C834 1.531 . S
C838 H850 0.960 . S
C838 H851 0.962 . S
C838 H852 0.960 . S
C839 C836 1.511 . S
C839 H853 0.961 . S
C839 H854 0.961 . S
C839 H855 0.961 . S
C840 C841 1.370 . S
C840 C842 1.363 . S
C840 H856 0.931 . S
C841 C840 1.370 . S
C841 C845 1.408 . S
C842 C840 1.363 . S
C842 C843 1.370 . S
C842 C846 1.524 . S
C843 C835 1.503 . S
C843 C842 1.370 . S
C843 C844 1.403 . S
C844 C843 1.403 . S
C844 C845 1.404 . S
C844 C847 1.539 . S
C845 C841 1.408 . S
C845 C844 1.404 . S
C845 H857 0.930 . S
C846 C842 1.524 . S
C846 H858 0.956 . S
C846 H859 0.961 . S
C846 H860 0.961 . S
C847 C844 1.539 . S
C847 H861 0.958 . S
C847 H862 0.961 . S
C847 H863 0.960 . S
H848 C832 0.931 . S
H849 C837 0.929 . S
H850 C838 0.960 . S
H851 C838 0.962 . S
H852 C838 0.960 . S
H853 C839 0.961 . S
H854 C839 0.961 . S
H855 C839 0.961 . S
H856 C840 0.931 . S
H857 C845 0.930 . S
H858 C846 0.956 . S
H859 C846 0.961 . S
H860 C846 0.961 . S
H861 C847 0.958 . S
H862 C847 0.961 . S
H863 C847 0.960 . S
C864 C865 1.391 . S
C864 C866 1.394 . S
C864 H880 0.931 . S
C865 C864 1.391 . S
C865 C869 1.376 . S
C866 C864 1.394 . S
C866 C867 1.369 . S
C866 C870 1.531 . S
C867 C866 1.369 . S
C867 C868 1.410 . S
C867 C875 1.503 . S
C868 C867 1.410 . S
C868 C869 1.392 . S
C868 C871 1.511 . S
C869 C865 1.376 . S
C869 C868 1.392 . S
C869 H881 0.929 . S
C870 C866 1.531 . S
C870 H882 0.960 . S
C870 H883 0.962 . S
C870 H884 0.960 . S
C871 C868 1.511 . S
C871 H885 0.961 . S
C871 H886 0.961 . S
C871 H887 0.961 . S
C872 C873 1.370 . S
C872 C874 1.363 . S
C872 H888 0.931 . S
C873 C872 1.370 . S
C873 C877 1.408 . S
C874 C872 1.363 . S
C874 C875 1.370 . S
C874 C878 1.524 . S
C875 C867 1.503 . S
C875 C874 1.370 . S
C875 C876 1.403 . S
C876 C875 1.403 . S
C876 C877 1.404 . S
C876 C879 1.539 . S
C877 C873 1.408 . S
C877 C876 1.404 . S
C877 H889 0.930 . S
C878 C874 1.524 . S
C878 H890 0.956 . S
C878 H891 0.961 . S
C878 H892 0.961 . S
C879 C876 1.539 . S
C879 H893 0.958 . S
C879 H894 0.961 . S
C879 H895 0.960 . S
H880 C864 0.931 . S
H881 C869 0.929 . S
H882 C870 0.960 . S
H883 C870 0.962 . S
H884 C870 0.960 . S
H885 C871 0.961 . S
H886 C871 0.961 . S
H887 C871 0.961 . S
H888 C872 0.931 . S
H889 C877 0.930 . S
H890 C878 0.956 . S
H891 C878 0.961 . S
H892 C878 0.961 . S
H893 C879 0.958 . S
H894 C879 0.961 . S
H895 C879 0.960 . S
C896 C897 1.391 . S
C896 C898 1.394 . S
C896 H912 0.931 . S
C897 C896 1.391 . S
C897 C901 1.376 . S
C898 C896 1.394 . S
C898 C899 1.369 . S
C898 C902 1.531 . S
C899 C898 1.369 . S
C899 C900 1.410 . S
C899 C907 1.503 1_556 S
C900 C899 1.410 . S
C900 C901 1.392 . S
C900 C903 1.511 . S
C901 C897 1.376 . S
C901 C900 1.392 . S
C901 H913 0.929 . S
C902 C898 1.531 . S
C902 H914 0.960 1_556 S
C902 H915 0.962 . S
C902 H916 0.960 . S
C903 C900 1.511 . S
C903 H917 0.961 . S
C903 H918 0.961 1_556 S
C903 H919 0.961 . S
C904 C905 1.370 . S
C904 C906 1.363 . S
C904 H920 0.931 . S
C905 C904 1.370 . S
C905 C909 1.408 . S
C906 C904 1.363 . S
C906 C907 1.370 . S
C906 C910 1.524 . S
C907 C899 1.503 1_554 S
C907 C906 1.370 . S
C907 C908 1.403 . S
C908 C907 1.403 . S
C908 C909 1.404 . S
C908 C911 1.539 . S
C909 C905 1.408 . S
C909 C908 1.404 . S
C909 H921 0.930 . S
C910 C906 1.524 . S
C910 H922 0.984 . S
C910 H923 0.961 1_554 S
C910 H924 0.961 . S
C911 C908 1.539 . S
C911 H925 0.958 . S
C911 H926 0.961 . S
C911 H927 0.970 . S
H912 C896 0.931 . S
H913 C901 0.929 . S
H914 C902 0.960 1_554 S
H915 C902 0.962 . S
H916 C902 0.960 . S
H917 C903 0.961 . S
H918 C903 0.961 1_554 S
H919 C903 0.961 . S
H920 C904 0.931 . S
H921 C909 0.930 . S
H922 C910 0.984 . S
H923 C910 0.961 1_556 S
H924 C910 0.961 . S
H925 C911 0.958 . S
H926 C911 0.961 . S
H927 C911 0.970 . S
C928 C929 1.391 . S
C928 C930 1.394 . S
C928 H944 0.931 . S
C929 C928 1.391 . S
C929 C933 1.376 . S
C930 C928 1.394 . S
C930 C931 1.369 . S
C930 C934 1.531 . S
C931 C930 1.369 . S
C931 C932 1.410 . S
C931 C939 1.503 . S
C932 C931 1.410 . S
C932 C933 1.392 . S
C932 C935 1.511 . S
C933 C929 1.376 . S
C933 C932 1.392 . S
C933 H945 0.929 . S
C934 C930 1.531 . S
C934 H946 0.960 . S
C934 H947 0.962 . S
C934 H948 0.960 . S
C935 C932 1.511 . S
C935 H949 0.961 . S
C935 H950 0.961 . S
C935 H951 0.961 . S
C936 C937 1.370 . S
C936 C938 1.363 . S
C936 H952 0.931 . S
C937 C936 1.370 . S
C937 C941 1.408 . S
C938 C936 1.363 . S
C938 C939 1.370 . S
C938 C942 1.524 . S
C939 C931 1.503 . S
C939 C938 1.370 . S
C939 C940 1.403 . S
C940 C939 1.403 . S
C940 C941 1.404 . S
C940 C943 1.539 . S
C941 C937 1.408 . S
C941 C940 1.404 . S
C941 H953 0.930 . S
C942 C938 1.524 . S
C942 H954 0.956 . S
C942 H955 0.961 . S
C942 H956 0.961 . S
C943 C940 1.539 . S
C943 H957 0.958 . S
C943 H958 0.961 . S
C943 H959 0.960 . S
H944 C928 0.931 . S
H945 C933 0.929 . S
H946 C934 0.960 . S
H947 C934 0.962 . S
H948 C934 0.960 . S
H949 C935 0.961 . S
H950 C935 0.961 . S
H951 C935 0.961 . S
H952 C936 0.931 . S
H953 C941 0.930 . S
H954 C942 0.956 . S
H955 C942 0.961 . S
H956 C942 0.961 . S
H957 C943 0.958 . S
H958 C943 0.961 . S
H959 C943 0.960 . S
C960 C961 1.391 . S
C960 C962 1.394 . S
C960 H976 0.931 . S
C961 C960 1.391 . S
C961 C965 1.376 . S
C962 C960 1.394 . S
C962 C963 1.369 . S
C962 C966 1.531 . S
C963 C962 1.369 . S
C963 C964 1.410 . S
C963 C971 1.503 1_554 S
C964 C963 1.410 . S
C964 C965 1.392 . S
C964 C967 1.511 . S
C965 C961 1.376 . S
C965 C964 1.392 . S
C965 H977 0.929 . S
C966 C962 1.531 . S
C966 H978 0.960 1_554 S
C966 H979 0.962 . S
C966 H980 0.960 . S
C967 C964 1.511 . S
C967 H981 0.961 . S
C967 H982 0.961 1_554 S
C967 H983 0.961 . S
C968 C969 1.370 . S
C968 C970 1.363 . S
C968 H984 0.931 . S
C969 C968 1.370 . S
C969 C973 1.408 . S
C970 C968 1.363 . S
C970 C971 1.370 . S
C970 C974 1.524 . S
C971 C963 1.503 1_556 S
C971 C970 1.370 . S
C971 C972 1.403 . S
C972 C971 1.403 . S
C972 C973 1.404 . S
C972 C975 1.539 . S
C973 C969 1.408 . S
C973 C972 1.404 . S
C973 H985 0.930 . S
C974 C970 1.524 . S
C974 H986 0.984 . S
C974 H987 0.961 1_556 S
C974 H988 0.961 . S
C975 C972 1.539 . S
C975 H989 0.958 . S
C975 H990 0.961 . S
C975 H991 0.970 . S
H976 C960 0.931 . S
H977 C965 0.929 . S
H978 C966 0.960 1_556 S
H979 C966 0.962 . S
H980 C966 0.960 . S
H981 C967 0.961 . S
H982 C967 0.961 1_556 S
H983 C967 0.961 . S
H984 C968 0.931 . S
H985 C973 0.930 . S
H986 C974 0.984 . S
H987 C974 0.961 1_554 S
H988 C974 0.961 . S
H989 C975 0.958 . S
H990 C975 0.961 . S
H991 C975 0.970 . S
C992 C993 1.391 . S
C992 C994 1.394 . S
C992 H1008 0.931 . S
C993 C992 1.391 . S
C993 C997 1.376 . S
C994 C992 1.394 . S
C994 C995 1.369 . S
C994 C998 1.531 . S
C995 C994 1.369 . S
C995 C996 1.410 . S
C995 C1003 1.503 . S
C996 C995 1.410 . S
C996 C997 1.392 . S
C996 C999 1.511 . S
C997 C993 1.376 . S
C997 C996 1.392 . S
C997 H1009 0.929 . S
C998 C994 1.531 . S
C998 H1010 0.960 . S
C998 H1011 0.962 . S
C998 H1012 0.960 . S
C999 C996 1.511 . S
C999 H1013 0.961 . S
C999 H1014 0.961 . S
C999 H1015 0.961 . S
C1000 C1001 1.370 . S
C1000 C1002 1.363 . S
C1000 H1016 0.931 . S
C1001 C1000 1.370 . S
C1001 C1005 1.408 . S
C1002 C1000 1.363 . S
C1002 C1003 1.370 . S
C1002 C1006 1.524 . S
C1003 C995 1.503 . S
C1003 C1002 1.370 . S
C1003 C1004 1.403 . S
C1004 C1003 1.403 . S
C1004 C1005 1.404 . S
C1004 C1007 1.539 . S
C1005 C1001 1.408 . S
C1005 C1004 1.404 . S
C1005 H1017 0.930 . S
C1006 C1002 1.524 . S
C1006 H1018 0.956 . S
C1006 H1019 0.961 . S
C1006 H1020 0.961 . S
C1007 C1004 1.539 . S
C1007 H1021 0.958 . S
C1007 H1022 0.961 . S
C1007 H1023 0.960 . S
H1008 C992 0.931 . S
H1009 C997 0.929 . S
H1010 C998 0.960 . S
H1011 C998 0.962 . S
H1012 C998 0.960 . S
H1013 C999 0.961 . S
H1014 C999 0.961 . S
H1015 C999 0.961 . S
H1016 C1000 0.931 . S
H1017 C1005 0.930 . S
H1018 C1006 0.956 . S
H1019 C1006 0.961 . S
H1020 C1006 0.961 . S
H1021 C1007 0.958 . S
H1022 C1007 0.961 . S
H1023 C1007 0.960 . S
C1024 C1025 1.391 . S
C1024 C1026 1.394 . S
C1024 H1040 0.931 . S
C1025 C1024 1.391 . S
C1025 C1029 1.376 . S
C1026 C1024 1.394 . S
C1026 C1027 1.369 . S
C1026 C1030 1.531 . S
C1027 C1026 1.369 . S
C1027 C1028 1.410 . S
C1027 C1035 1.503 . S
C1028 C1027 1.410 . S
C1028 C1029 1.392 . S
C1028 C1031 1.511 . S
C1029 C1025 1.376 . S
C1029 C1028 1.392 . S
C1029 H1041 0.929 . S
C1030 C1026 1.531 . S
C1030 H1042 0.960 . S
C1030 H1043 0.962 . S
C1030 H1044 0.960 . S
C1031 C1028 1.511 . S
C1031 H1045 0.961 . S
C1031 H1046 0.961 . S
C1031 H1047 0.961 . S
C1032 C1033 1.370 . S
C1032 C1034 1.363 . S
C1032 H1048 0.931 . S
C1033 C1032 1.370 . S
C1033 C1037 1.408 . S
C1034 C1032 1.363 . S
C1034 C1035 1.370 . S
C1034 C1038 1.524 . S
C1035 C1027 1.503 . S
C1035 C1034 1.370 . S
C1035 C1036 1.403 . S
C1036 C1035 1.403 . S
C1036 C1037 1.404 . S
C1036 C1039 1.539 . S
C1037 C1033 1.408 . S
C1037 C1036 1.404 . S
C1037 H1049 0.930 . S
C1038 C1034 1.524 . S
C1038 H1050 0.956 . S
C1038 H1051 0.961 . S
C1038 H1052 0.961 . S
C1039 C1036 1.539 . S
C1039 H1053 0.958 . S
C1039 H1054 0.961 . S
C1039 H1055 0.960 . S
H1040 C1024 0.931 . S
H1041 C1029 0.929 . S
H1042 C1030 0.960 . S
H1043 C1030 0.962 . S
H1044 C1030 0.960 . S
H1045 C1031 0.961 . S
H1046 C1031 0.961 . S
H1047 C1031 0.961 . S
H1048 C1032 0.931 . S
H1049 C1037 0.930 . S
H1050 C1038 0.956 . S
H1051 C1038 0.961 . S
H1052 C1038 0.961 . S
H1053 C1039 0.958 . S
H1054 C1039 0.961 . S
H1055 C1039 0.960 . S
C1056 C1057 1.391 . S
C1056 C1058 1.394 . S
C1056 H1072 0.931 . S
C1057 C1056 1.391 . S
C1057 C1061 1.376 . S
C1058 C1056 1.394 . S
C1058 C1059 1.369 . S
C1058 C1062 1.531 . S
C1059 C1058 1.369 . S
C1059 C1060 1.410 . S
C1059 C1067 1.503 . S
C1060 C1059 1.410 . S
C1060 C1061 1.392 . S
C1060 C1063 1.511 . S
C1061 C1057 1.376 . S
C1061 C1060 1.392 . S
C1061 H1073 0.929 . S
C1062 C1058 1.531 . S
C1062 H1074 0.960 . S
C1062 H1075 0.962 . S
C1062 H1076 0.960 . S
C1063 C1060 1.511 . S
C1063 H1077 0.961 . S
C1063 H1078 0.961 . S
C1063 H1079 0.961 . S
C1064 C1065 1.370 . S
C1064 C1066 1.363 . S
C1064 H1080 0.931 . S
C1065 C1064 1.370 . S
C1065 C1069 1.408 . S
C1066 C1064 1.363 . S
C1066 C1067 1.370 . S
C1066 C1070 1.524 . S
C1067 C1059 1.503 . S
C1067 C1066 1.370 . S
C1067 C1068 1.403 . S
C1068 C1067 1.403 . S
C1068 C1069 1.404 . S
C1068 C1071 1.539 . S
C1069 C1065 1.408 . S
C1069 C1068 1.404 . S
C1069 H1081 0.930 . S
C1070 C1066 1.524 . S
C1070 H1082 0.956 . S
C1070 H1083 0.961 . S
C1070 H1084 0.961 . S
C1071 C1068 1.539 . S
C1071 H1085 0.958 . S
C1071 H1086 0.961 . S
C1071 H1087 0.960 . S
H1072 C1056 0.931 . S
H1073 C1061 0.929 . S
H1074 C1062 0.960 . S
H1075 C1062 0.962 . S
H1076 C1062 0.960 . S
H1077 C1063 0.961 . S
H1078 C1063 0.961 . S
H1079 C1063 0.961 . S
H1080 C1064 0.931 . S
H1081 C1069 0.930 . S
H1082 C1070 0.956 . S
H1083 C1070 0.961 . S
H1084 C1070 0.961 . S
H1085 C1071 0.958 . S
H1086 C1071 0.961 . S
H1087 C1071 0.960 . S
C1088 C1089 1.391 . S
C1088 C1090 1.394 . S
C1088 H1104 0.931 . S
C1089 C1088 1.391 . S
C1089 C1093 1.376 . S
C1090 C1088 1.394 . S
C1090 C1091 1.369 . S
C1090 C1094 1.531 . S
C1091 C1090 1.369 . S
C1091 C1092 1.410 . S
C1091 C1099 1.503 . S
C1092 C1091 1.410 . S
C1092 C1093 1.392 . S
C1092 C1095 1.511 . S
C1093 C1089 1.376 . S
C1093 C1092 1.392 . S
C1093 H1105 0.929 . S
C1094 C1090 1.531 . S
C1094 H1106 0.960 . S
C1094 H1107 0.962 . S
C1094 H1108 0.960 . S
C1095 C1092 1.511 . S
C1095 H1109 0.961 . S
C1095 H1110 0.961 . S
C1095 H1111 0.961 . S
C1096 C1097 1.370 . S
C1096 C1098 1.363 . S
C1096 H1112 0.931 . S
C1097 C1096 1.370 . S
C1097 C1101 1.408 . S
C1098 C1096 1.363 . S
C1098 C1099 1.370 . S
C1098 C1102 1.524 . S
C1099 C1091 1.503 . S
C1099 C1098 1.370 . S
C1099 C1100 1.403 . S
C1100 C1099 1.403 . S
C1100 C1101 1.404 . S
C1100 C1103 1.539 . S
C1101 C1097 1.408 . S
C1101 C1100 1.404 . S
C1101 H1113 0.930 . S
C1102 C1098 1.524 . S
C1102 H1114 0.956 . S
C1102 H1115 0.961 . S
C1102 H1116 0.961 . S
C1103 C1100 1.539 . S
C1103 H1117 0.958 . S
C1103 H1118 0.961 . S
C1103 H1119 0.960 . S
H1104 C1088 0.931 . S
H1105 C1093 0.929 . S
H1106 C1094 0.960 . S
H1107 C1094 0.962 . S
H1108 C1094 0.960 . S
H1109 C1095 0.961 . S
H1110 C1095 0.961 . S
H1111 C1095 0.961 . S
H1112 C1096 0.931 . S
H1113 C1101 0.930 . S
H1114 C1102 0.956 . S
H1115 C1102 0.961 . S
H1116 C1102 0.961 . S
H1117 C1103 0.958 . S
H1118 C1103 0.961 . S
H1119 C1103 0.960 . S
C1120 C1121 1.391 . S
C1120 C1122 1.394 . S
C1120 H1136 0.931 . S
C1121 C1120 1.391 . S
C1121 C1125 1.376 . S
C1122 C1120 1.394 . S
C1122 C1123 1.369 . S
C1122 C1126 1.531 . S
C1123 C1122 1.369 . S
C1123 C1124 1.410 . S
C1123 C1131 1.503 . S
C1124 C1123 1.410 . S
C1124 C1125 1.392 . S
C1124 C1127 1.511 . S
C1125 C1121 1.376 . S
C1125 C1124 1.392 . S
C1125 H1137 0.929 . S
C1126 C1122 1.531 . S
C1126 H1138 0.960 . S
C1126 H1139 0.962 . S
C1126 H1140 0.960 . S
C1127 C1124 1.511 . S
C1127 H1141 0.961 . S
C1127 H1142 0.961 . S
C1127 H1143 0.961 . S
C1128 C1129 1.370 . S
C1128 C1130 1.363 . S
C1128 H1144 0.931 . S
C1129 C1128 1.370 . S
C1129 C1133 1.408 . S
C1130 C1128 1.363 . S
C1130 C1131 1.370 . S
C1130 C1134 1.524 . S
C1131 C1123 1.503 . S
C1131 C1130 1.370 . S
C1131 C1132 1.403 . S
C1132 C1131 1.403 . S
C1132 C1133 1.404 . S
C1132 C1135 1.539 . S
C1133 C1129 1.408 . S
C1133 C1132 1.404 . S
C1133 H1145 0.930 . S
C1134 C1130 1.524 . S
C1134 H1146 0.956 . S
C1134 H1147 0.961 . S
C1134 H1148 0.961 . S
C1135 C1132 1.539 . S
C1135 H1149 0.958 . S
C1135 H1150 0.961 . S
C1135 H1151 0.960 . S
H1136 C1120 0.931 . S
H1137 C1125 0.929 . S
H1138 C1126 0.960 . S
H1139 C1126 0.962 . S
H1140 C1126 0.960 . S
H1141 C1127 0.961 . S
H1142 C1127 0.961 . S
H1143 C1127 0.961 . S
H1144 C1128 0.931 . S
H1145 C1133 0.930 . S
H1146 C1134 0.956 . S
H1147 C1134 0.961 . S
H1148 C1134 0.961 . S
H1149 C1135 0.958 . S
H1150 C1135 0.961 . S
H1151 C1135 0.960 . S
C1152 C1153 1.391 . S
C1152 C1154 1.394 . S
C1152 H1168 0.931 . S
C1153 C1152 1.391 . S
C1153 C1157 1.376 . S
C1154 C1152 1.394 . S
C1154 C1155 1.369 . S
C1154 C1158 1.531 . S
C1155 C1154 1.369 . S
C1155 C1156 1.410 . S
C1155 C1163 1.503 . S
C1156 C1155 1.410 . S
C1156 C1157 1.392 . S
C1156 C1159 1.511 . S
C1157 C1153 1.376 . S
C1157 C1156 1.392 . S
C1157 H1169 0.929 . S
C1158 C1154 1.531 . S
C1158 H1170 0.960 . S
C1158 H1171 0.962 . S
C1158 H1172 0.960 . S
C1159 C1156 1.511 . S
C1159 H1173 0.961 . S
C1159 H1174 0.961 . S
C1159 H1175 0.961 . S
C1160 C1161 1.370 . S
C1160 C1162 1.363 . S
C1160 H1176 0.931 . S
C1161 C1160 1.370 . S
C1161 C1165 1.408 . S
C1162 C1160 1.363 . S
C1162 C1163 1.370 . S
C1162 C1166 1.524 . S
C1163 C1155 1.503 . S
C1163 C1162 1.370 . S
C1163 C1164 1.403 . S
C1164 C1163 1.403 . S
C1164 C1165 1.404 . S
C1164 C1167 1.539 . S
C1165 C1161 1.408 . S
C1165 C1164 1.404 . S
C1165 H1177 0.930 . S
C1166 C1162 1.524 . S
C1166 H1178 0.956 . S
C1166 H1179 0.961 . S
C1166 H1180 0.961 . S
C1167 C1164 1.539 . S
C1167 H1181 0.958 . S
C1167 H1182 0.961 . S
C1167 H1183 0.960 . S
H1168 C1152 0.931 . S
H1169 C1157 0.929 . S
H1170 C1158 0.960 . S
H1171 C1158 0.962 . S
H1172 C1158 0.960 . S
H1173 C1159 0.961 . S
H1174 C1159 0.961 . S
H1175 C1159 0.961 . S
H1176 C1160 0.931 . S
H1177 C1165 0.930 . S
H1178 C1166 0.956 . S
H1179 C1166 0.961 . S
H1180 C1166 0.961 . S
H1181 C1167 0.958 . S
H1182 C1167 0.961 . S
H1183 C1167 0.960 . S
C1184 C1185 1.391 . S
C1184 C1186 1.394 . S
C1184 H1200 0.931 . S
C1185 C1184 1.391 . S
C1185 C1189 1.376 . S
C1186 C1184 1.394 . S
C1186 C1187 1.369 . S
C1186 C1190 1.531 . S
C1187 C1186 1.369 . S
C1187 C1188 1.410 . S
C1187 C1195 1.503 . S
C1188 C1187 1.410 . S
C1188 C1189 1.392 . S
C1188 C1191 1.511 . S
C1189 C1185 1.376 . S
C1189 C1188 1.392 . S
C1189 H1201 0.929 . S
C1190 C1186 1.531 . S
C1190 H1202 0.960 . S
C1190 H1203 0.962 . S
C1190 H1204 0.960 . S
C1191 C1188 1.511 . S
C1191 H1205 0.961 . S
C1191 H1206 0.961 . S
C1191 H1207 0.961 . S
C1192 C1193 1.370 . S
C1192 C1194 1.363 . S
C1192 H1208 0.931 . S
C1193 C1192 1.370 . S
C1193 C1197 1.408 . S
C1194 C1192 1.363 . S
C1194 C1195 1.370 . S
C1194 C1198 1.524 . S
C1195 C1187 1.503 . S
C1195 C1194 1.370 . S
C1195 C1196 1.403 . S
C1196 C1195 1.403 . S
C1196 C1197 1.404 . S
C1196 C1199 1.539 . S
C1197 C1193 1.408 . S
C1197 C1196 1.404 . S
C1197 H1209 0.930 . S
C1198 C1194 1.524 . S
C1198 H1210 0.956 . S
C1198 H1211 0.961 . S
C1198 H1212 0.961 . S
C1199 C1196 1.539 . S
C1199 H1213 0.958 . S
C1199 H1214 0.961 . S
C1199 H1215 0.960 . S
H1200 C1184 0.931 . S
H1201 C1189 0.929 . S
H1202 C1190 0.960 . S
H1203 C1190 0.962 . S
H1204 C1190 0.960 . S
H1205 C1191 0.961 . S
H1206 C1191 0.961 . S
H1207 C1191 0.961 . S
H1208 C1192 0.931 . S
H1209 C1197 0.930 . S
H1210 C1198 0.956 . S
H1211 C1198 0.961 . S
H1212 C1198 0.961 . S
H1213 C1199 0.958 . S
H1214 C1199 0.961 . S
H1215 C1199 0.960 . S
C1216 C1217 1.391 . S
C1216 C1218 1.394 . S
C1216 H1232 0.931 . S
C1217 C1216 1.391 . S
C1217 C1221 1.376 . S
C1218 C1216 1.394 . S
C1218 C1219 1.369 . S
C1218 C1222 1.531 . S
C1219 C1218 1.369 . S
C1219 C1220 1.410 . S
C1219 C1227 1.503 . S
C1220 C1219 1.410 . S
C1220 C1221 1.392 . S
C1220 C1223 1.511 . S
C1221 C1217 1.376 . S
C1221 C1220 1.392 . S
C1221 H1233 0.929 . S
C1222 C1218 1.531 . S
C1222 H1234 0.960 . S
C1222 H1235 0.962 . S
C1222 H1236 0.960 . S
C1223 C1220 1.511 . S
C1223 H1237 0.961 . S
C1223 H1238 0.961 . S
C1223 H1239 0.961 . S
C1224 C1225 1.370 . S
C1224 C1226 1.363 . S
C1224 H1240 0.931 . S
C1225 C1224 1.370 . S
C1225 C1229 1.408 . S
C1226 C1224 1.363 . S
C1226 C1227 1.370 . S
C1226 C1230 1.524 . S
C1227 C1219 1.503 . S
C1227 C1226 1.370 . S
C1227 C1228 1.403 . S
C1228 C1227 1.403 . S
C1228 C1229 1.404 . S
C1228 C1231 1.539 . S
C1229 C1225 1.408 . S
C1229 C1228 1.404 . S
C1229 H1241 0.930 . S
C1230 C1226 1.524 . S
C1230 H1242 0.956 . S
C1230 H1243 0.961 . S
C1230 H1244 0.961 . S
C1231 C1228 1.539 . S
C1231 H1245 0.958 . S
C1231 H1246 0.961 . S
C1231 H1247 0.960 . S
H1232 C1216 0.931 . S
H1233 C1221 0.929 . S
H1234 C1222 0.960 . S
H1235 C1222 0.962 . S
H1236 C1222 0.960 . S
H1237 C1223 0.961 . S
H1238 C1223 0.961 . S
H1239 C1223 0.961 . S
H1240 C1224 0.931 . S
H1241 C1229 0.930 . S
H1242 C1230 0.956 . S
H1243 C1230 0.961 . S
H1244 C1230 0.961 . S
H1245 C1231 0.958 . S
H1246 C1231 0.961 . S
H1247 C1231 0.960 . S
C225 C0 1.746 . S
C233 C41 1.743 . S
C257 C54 1.729 . S
C265 C26 1.747 . S
C289 C69 1.726 . S
C297 C96 1.749 . S
C321 C111 1.742 . S
C329 C82 1.743 . S
C353 C124 1.736 . S
C361 C152 1.738 . S
C385 C166 1.732 . S
C393 C139 1.749 . S
C417 C181 1.735 . S
C425 C208 1.738 . S
C449 C210 1.718 . S
C457 C183 1.749 . S
C481 C56 1.592 . S
C489 C13 1.610 . S
C513 C15 1.593 . S
C521 C71 1.610 . S
C545 C28 1.600 . S
C553 C85 1.612 . S
C577 C98 1.593 . S
C585 C43 1.609 . S
C609 C113 1.609 . S
C617 C168 1.611 . S
C641 C126 1.595 . S
C649 C194 1.613 . S
C673 C141 1.614 . S
C681 C197 1.603 . S
C705 C155 1.601 . S
C713 C223 1.612 . S
C737 C140 1.573 . S
C745 C12 1.583 . S
C769 C154 1.585 . S
C777 C14 1.587 . S
C801 C29 1.595 . S
C809 C112 1.593 . S
C833 C42 1.574 . S
C841 C127 1.584 . S
C865 C57 1.590 . S
C873 C196 1.590 . S
C897 C70 1.596 . S
C905 C222 1.594 . S
C929 C84 1.594 . S
C937 C169 1.592 . S
C961 C195 1.585 . S
C969 C99 1.589 . S
C993 C1 1.684 . S
C1001 C211 1.693 . S
C1025 C180 1.705 . S
C1033 C27 1.703 . S
C1057 C40 1.707 . S
C1065 C182 1.705 . S
C1089 C209 1.685 . S
C1097 C55 1.696 . S
C1121 C138 1.700 . S
C1129 C68 1.701 . S
C1153 C83 1.690 . S
C1161 C153 1.695 . S
C1185 C167 1.705 . S
C1193 C97 1.703 . S
C1217 C125 1.686 . S
C1225 C110 1.696 . S
