# Generated by pormake.
# Topology ukm, (4)-cn, num edge types: 1
# Building blocks:
#     Node 0, Type 0, BuildingBlock: QUQFOY_clean_sbu_1, # of connection points: 4
#     Node 1, Type 0, BuildingBlock: QUQFOY_clean_sbu_1, # of connection points: 4
#     Node 2, Type 0, BuildingBlock: QUQFOY_clean_sbu_1, # of connection points: 4
#     Node 3, Type 0, BuildingBlock: QUQFOY_clean_sbu_1, # of connection points: 4
#     Node 4, Type 0, BuildingBlock: QUQFOY_clean_sbu_1, # of connection points: 4
#     Node 5, Type 0, BuildingBlock: QUQFOY_clean_sbu_1, # of connection points: 4
#     Node 6, Type 0, BuildingBlock: QUQFOY_clean_sbu_1, # of connection points: 4
#     Node 7, Type 0, BuildingBlock: QUQFOY_clean_sbu_1, # of connection points: 4
#     Node 8, Type 0, BuildingBlock: QUQFOY_clean_sbu_1, # of connection points: 4
#     Node 9, Type 0, BuildingBlock: QUQFOY_clean_sbu_1, # of connection points: 4
#     Node 10, Type 0, BuildingBlock: QUQFOY_clean_sbu_1, # of connection points: 4
#     Node 11, Type 0, BuildingBlock: QUQFOY_clean_sbu_1, # of connection points: 4
#     Node 12, Type 0, BuildingBlock: QUQFOY_clean_sbu_1, # of connection points: 4
#     Node 13, Type 0, BuildingBlock: QUQFOY_clean_sbu_1, # of connection points: 4
#     Node 14, Type 0, BuildingBlock: QUQFOY_clean_sbu_1, # of connection points: 4
#     Node 15, Type 0, BuildingBlock: QUQFOY_clean_sbu_1, # of connection points: 4
#     Node 16, Type 0, BuildingBlock: QUQFOY_clean_sbu_1, # of connection points: 4
#     Node 17, Type 0, BuildingBlock: QUQFOY_clean_sbu_1, # of connection points: 4
#     Node 18, Type 0, BuildingBlock: QUQFOY_clean_sbu_1, # of connection points: 4
#     Node 19, Type 0, BuildingBlock: QUQFOY_clean_sbu_1, # of connection points: 4
#     Node 20, Type 0, BuildingBlock: QUQFOY_clean_sbu_1, # of connection points: 4
#     Node 21, Type 0, BuildingBlock: QUQFOY_clean_sbu_1, # of connection points: 4
#     Node 22, Type 0, BuildingBlock: QUQFOY_clean_sbu_1, # of connection points: 4
#     Node 23, Type 0, BuildingBlock: QUQFOY_clean_sbu_1, # of connection points: 4
#     Node 24, Type 0, BuildingBlock: QUQFOY_clean_sbu_1, # of connection points: 4
#     Node 25, Type 0, BuildingBlock: QUQFOY_clean_sbu_1, # of connection points: 4
#     Node 26, Type 0, BuildingBlock: QUQFOY_clean_sbu_1, # of connection points: 4
#     Node 27, Type 0, BuildingBlock: QUQFOY_clean_sbu_1, # of connection points: 4
#     Node 28, Type 0, BuildingBlock: QUQFOY_clean_sbu_1, # of connection points: 4
#     Node 29, Type 0, BuildingBlock: QUQFOY_clean_sbu_1, # of connection points: 4
#     Node 30, Type 0, BuildingBlock: QUQFOY_clean_sbu_1, # of connection points: 4
#     Node 31, Type 0, BuildingBlock: QUQFOY_clean_sbu_1, # of connection points: 4
#     Edge 32, Type (0, 0), BuildingBlock: ZUJKAS_clean_linker_0, # of connection points: 2
#     Edge 33, Type (0, 0), BuildingBlock: ZUJKAS_clean_linker_0, # of connection points: 2
#     Edge 34, Type (0, 0), BuildingBlock: ZUJKAS_clean_linker_0, # of connection points: 2
#     Edge 35, Type (0, 0), BuildingBlock: ZUJKAS_clean_linker_0, # of connection points: 2
#     Edge 36, Type (0, 0), BuildingBlock: ZUJKAS_clean_linker_0, # of connection points: 2
#     Edge 37, Type (0, 0), BuildingBlock: ZUJKAS_clean_linker_0, # of connection points: 2
#     Edge 38, Type (0, 0), BuildingBlock: ZUJKAS_clean_linker_0, # of connection points: 2
#     Edge 39, Type (0, 0), BuildingBlock: ZUJKAS_clean_linker_0, # of connection points: 2
#     Edge 40, Type (0, 0), BuildingBlock: ZUJKAS_clean_linker_0, # of connection points: 2
#     Edge 41, Type (0, 0), BuildingBlock: ZUJKAS_clean_linker_0, # of connection points: 2
#     Edge 42, Type (0, 0), BuildingBlock: ZUJKAS_clean_linker_0, # of connection points: 2
#     Edge 43, Type (0, 0), BuildingBlock: ZUJKAS_clean_linker_0, # of connection points: 2
#     Edge 44, Type (0, 0), BuildingBlock: ZUJKAS_clean_linker_0, # of connection points: 2
#     Edge 45, Type (0, 0), BuildingBlock: ZUJKAS_clean_linker_0, # of connection points: 2
#     Edge 46, Type (0, 0), BuildingBlock: ZUJKAS_clean_linker_0, # of connection points: 2
#     Edge 47, Type (0, 0), BuildingBlock: ZUJKAS_clean_linker_0, # of connection points: 2
#     Edge 48, Type (0, 0), BuildingBlock: ZUJKAS_clean_linker_0, # of connection points: 2
#     Edge 49, Type (0, 0), BuildingBlock: ZUJKAS_clean_linker_0, # of connection points: 2
#     Edge 50, Type (0, 0), BuildingBlock: ZUJKAS_clean_linker_0, # of connection points: 2
#     Edge 51, Type (0, 0), BuildingBlock: ZUJKAS_clean_linker_0, # of connection points: 2
#     Edge 52, Type (0, 0), BuildingBlock: ZUJKAS_clean_linker_0, # of connection points: 2
#     Edge 53, Type (0, 0), BuildingBlock: ZUJKAS_clean_linker_0, # of connection points: 2
#     Edge 54, Type (0, 0), BuildingBlock: ZUJKAS_clean_linker_0, # of connection points: 2
#     Edge 55, Type (0, 0), BuildingBlock: ZUJKAS_clean_linker_0, # of connection points: 2
#     Edge 56, Type (0, 0), BuildingBlock: ZUJKAS_clean_linker_0, # of connection points: 2
#     Edge 57, Type (0, 0), BuildingBlock: ZUJKAS_clean_linker_0, # of connection points: 2
#     Edge 58, Type (0, 0), BuildingBlock: ZUJKAS_clean_linker_0, # of connection points: 2
#     Edge 59, Type (0, 0), BuildingBlock: ZUJKAS_clean_linker_0, # of connection points: 2
#     Edge 60, Type (0, 0), BuildingBlock: ZUJKAS_clean_linker_0, # of connection points: 2
#     Edge 61, Type (0, 0), BuildingBlock: ZUJKAS_clean_linker_0, # of connection points: 2
#     Edge 62, Type (0, 0), BuildingBlock: ZUJKAS_clean_linker_0, # of connection points: 2
#     Edge 63, Type (0, 0), BuildingBlock: ZUJKAS_clean_linker_0, # of connection points: 2
#     Edge 64, Type (0, 0), BuildingBlock: ZUJKAS_clean_linker_0, # of connection points: 2
#     Edge 65, Type (0, 0), BuildingBlock: ZUJKAS_clean_linker_0, # of connection points: 2
#     Edge 66, Type (0, 0), BuildingBlock: ZUJKAS_clean_linker_0, # of connection points: 2
#     Edge 67, Type (0, 0), BuildingBlock: ZUJKAS_clean_linker_0, # of connection points: 2
#     Edge 68, Type (0, 0), BuildingBlock: ZUJKAS_clean_linker_0, # of connection points: 2
#     Edge 69, Type (0, 0), BuildingBlock: ZUJKAS_clean_linker_0, # of connection points: 2
#     Edge 70, Type (0, 0), BuildingBlock: ZUJKAS_clean_linker_0, # of connection points: 2
#     Edge 71, Type (0, 0), BuildingBlock: ZUJKAS_clean_linker_0, # of connection points: 2
#     Edge 72, Type (0, 0), BuildingBlock: ZUJKAS_clean_linker_0, # of connection points: 2
#     Edge 73, Type (0, 0), BuildingBlock: ZUJKAS_clean_linker_0, # of connection points: 2
#     Edge 74, Type (0, 0), BuildingBlock: ZUJKAS_clean_linker_0, # of connection points: 2
#     Edge 75, Type (0, 0), BuildingBlock: ZUJKAS_clean_linker_0, # of connection points: 2
#     Edge 76, Type (0, 0), BuildingBlock: ZUJKAS_clean_linker_0, # of connection points: 2
#     Edge 77, Type (0, 0), BuildingBlock: ZUJKAS_clean_linker_0, # of connection points: 2
#     Edge 78, Type (0, 0), BuildingBlock: ZUJKAS_clean_linker_0, # of connection points: 2
#     Edge 79, Type (0, 0), BuildingBlock: ZUJKAS_clean_linker_0, # of connection points: 2
#     Edge 80, Type (0, 0), BuildingBlock: ZUJKAS_clean_linker_0, # of connection points: 2
#     Edge 81, Type (0, 0), BuildingBlock: ZUJKAS_clean_linker_0, # of connection points: 2
#     Edge 82, Type (0, 0), BuildingBlock: ZUJKAS_clean_linker_0, # of connection points: 2
#     Edge 83, Type (0, 0), BuildingBlock: ZUJKAS_clean_linker_0, # of connection points: 2
#     Edge 84, Type (0, 0), BuildingBlock: ZUJKAS_clean_linker_0, # of connection points: 2
#     Edge 85, Type (0, 0), BuildingBlock: ZUJKAS_clean_linker_0, # of connection points: 2
#     Edge 86, Type (0, 0), BuildingBlock: ZUJKAS_clean_linker_0, # of connection points: 2
#     Edge 87, Type (0, 0), BuildingBlock: ZUJKAS_clean_linker_0, # of connection points: 2
#     Edge 88, Type (0, 0), BuildingBlock: ZUJKAS_clean_linker_0, # of connection points: 2
#     Edge 89, Type (0, 0), BuildingBlock: ZUJKAS_clean_linker_0, # of connection points: 2
#     Edge 90, Type (0, 0), BuildingBlock: ZUJKAS_clean_linker_0, # of connection points: 2
#     Edge 91, Type (0, 0), BuildingBlock: ZUJKAS_clean_linker_0, # of connection points: 2
#     Edge 92, Type (0, 0), BuildingBlock: ZUJKAS_clean_linker_0, # of connection points: 2
#     Edge 93, Type (0, 0), BuildingBlock: ZUJKAS_clean_linker_0, # of connection points: 2
#     Edge 94, Type (0, 0), BuildingBlock: ZUJKAS_clean_linker_0, # of connection points: 2
#     Edge 95, Type (0, 0), BuildingBlock: ZUJKAS_clean_linker_0, # of connection points: 2
# Relax obj value: 0.235
# Max RMSD: 0.210
# Mean RMSD: 0.210
data_MOF--net-ukm--node1-QUQFOY_clean_sbu_1--edge1-ZUJKAS_clean_linker_0
_symmetry_space_group_name_H-M    P1
_symmetry_Int_Tables_number       1
_symmetry_cell_setting            triclinic
loop_
_symmetry_equiv_pos_as_xyz
'x, y, z'
_cell_length_a     39.381958
_cell_length_b     137.11247
_cell_length_c     51.150001
_cell_angle_alpha  89.99792
_cell_angle_beta   89.991006
_cell_angle_gamma 90.013573
loop_
_atom_site_label
_atom_site_type_symbol
_atom_site_fract_x
_atom_site_fract_y
_atom_site_fract_z
_atom_type_partial_charge
O0 O 0.13464 0.32419 0.33685 0.0
Cd1 Cd 0.15857 0.31378 0.3142 0.0
Cd2 Cd 0.09034 0.30939 0.30575 0.0
O3 O 0.08089 0.31977 0.33378 0.0
O4 O 0.20708 0.31679 0.32143 0.0
O5 O 0.18466 0.3024 0.32984 0.0
C6 C 0.21091 0.30804 0.32993 0.0
C7 C 0.06467 0.29414 0.30378 0.0
C8 C 0.10354 0.32547 0.34265 0.0
C9 C 0.13067 0.31634 0.25994 0.0
O10 O 0.10147 0.31463 0.26933 0.0
O11 O 0.15692 0.31575 0.27427 0.0
O12 O 0.04753 0.30203 0.29998 0.0
O13 O 0.09605 0.29496 0.31089 0.0
O14 O 0.11354 0.92775 0.33483 0.0
Cd15 Cd 0.09434 0.93902 0.31244 0.0
Cd16 Cd 0.16325 0.94196 0.30799 0.0
O17 O 0.16816 0.93132 0.33601 0.0
O18 O 0.0447 0.93671 0.31593 0.0
O19 O 0.06886 0.95042 0.32856 0.0
C20 C 0.04162 0.94528 0.32581 0.0
C21 C 0.18817 0.95727 0.30813 0.0
C22 C 0.14351 0.92587 0.34262 0.0
C23 C 0.12661 0.9365 0.25957 0.0
O24 O 0.15527 0.93707 0.27075 0.0
O25 O 0.09946 0.93782 0.27248 0.0
O26 O 0.20616 0.94947 0.30529 0.0
O27 O 0.15623 0.95628 0.31346 0.0
O28 O 0.13741 0.92772 0.90699 0.0
Cd29 Cd 0.15682 0.93893 0.92954 0.0
Cd30 Cd 0.08861 0.94233 0.93202 0.0
O31 O 0.0835 0.93188 0.90355 0.0
O32 O 0.2064 0.93648 0.92617 0.0
O33 O 0.18272 0.95025 0.91347 0.0
C34 C 0.20974 0.94501 0.91605 0.0
C35 C 0.06567 0.95789 0.93209 0.0
C36 C 0.10778 0.92614 0.89804 0.0
C37 C 0.12248 0.93645 0.98134 0.0
O38 O 0.09454 0.93711 0.96915 0.0
O39 O 0.1504 0.9378 0.96945 0.0
O40 O 0.0466 0.95027 0.93416 0.0
O41 O 0.09764 0.95661 0.92738 0.0
O42 O 0.11693 0.32371 0.9082 0.0
Cd43 Cd 0.09761 0.3133 0.93344 0.0
Cd44 Cd 0.16524 0.30921 0.9347 0.0
O45 O 0.16999 0.31878 0.90409 0.0
O46 O 0.04793 0.31582 0.93133 0.0
O47 O 0.07057 0.30174 0.92003 0.0
C48 C 0.04383 0.30709 0.92276 0.0
C49 C 0.18648 0.29347 0.93684 0.0
C50 C 0.14628 0.32465 0.89811 0.0
C51 C 0.13492 0.31673 0.98367 0.0
O52 O 0.16213 0.31548 0.97087 0.0
O53 O 0.10629 0.31535 0.97285 0.0
O54 O 0.20644 0.30093 0.93695 0.0
O55 O 0.15441 0.29494 0.93304 0.0
O56 O 0.90178 0.687 0.72107 0.0
Cd57 Cd 0.91242 0.69185 0.6842 0.0
Cd58 Cd 0.8446 0.68696 0.67607 0.0
O59 O 0.84646 0.68549 0.71615 0.0
O60 O 0.9547 0.69951 0.68939 0.0
O61 O 0.9058 0.70618 0.67777 0.0
C62 C 0.93707 0.70726 0.68495 0.0
C63 C 0.79182 0.69237 0.66038 0.0
C64 C 0.87268 0.68524 0.73056 0.0
C65 C 0.9003 0.67518 0.64879 0.0
O66 O 0.86906 0.67636 0.65432 0.0
O67 O 0.9225 0.68113 0.65722 0.0
O68 O 0.79604 0.68375 0.66969 0.0
O69 O 0.81801 0.69802 0.65938 0.0
O70 O 0.84161 0.06502 0.71903 0.0
Cd71 Cd 0.83429 0.05942 0.6825 0.0
Cd72 Cd 0.90203 0.06439 0.67716 0.0
O73 O 0.89744 0.06568 0.71724 0.0
O74 O 0.79283 0.05131 0.6869 0.0
O75 O 0.84353 0.04508 0.67853 0.0
C76 C 0.81198 0.04373 0.68455 0.0
C77 C 0.95569 0.05919 0.66271 0.0
C78 C 0.86997 0.06644 0.73009 0.0
C79 C 0.84777 0.07579 0.64692 0.0
O80 O 0.87839 0.07492 0.65452 0.0
O81 O 0.8254 0.06964 0.65394 0.0
O82 O 0.95079 0.06775 0.67229 0.0
O83 O 0.92978 0.05346 0.661 0.0
O84 O 0.90839 0.06507 0.01894 0.0
Cd85 Cd 0.91645 0.05977 0.05576 0.0
Cd86 Cd 0.84763 0.06295 0.0607 0.0
O87 O 0.85258 0.06433 0.02075 0.0
O88 O 0.95892 0.05209 0.05231 0.0
O89 O 0.9087 0.04542 0.06034 0.0
C90 C 0.94055 0.04435 0.0548 0.0
C91 C 0.79444 0.05703 0.07422 0.0
C92 C 0.87969 0.06576 0.00787 0.0
C93 C 0.89792 0.07569 0.09117 0.0
O94 O 0.86783 0.07401 0.08332 0.0
O95 O 0.9222 0.07014 0.08438 0.0
O96 O 0.79817 0.06558 0.06436 0.0
O97 O 0.82125 0.0517 0.07679 0.0
O98 O 0.83838 0.6853 0.02012 0.0
Cd99 Cd 0.83393 0.69134 0.05644 0.0
Cd100 Cd 0.90189 0.68751 0.05837 0.0
O101 O 0.89417 0.68614 0.01862 0.0
O102 O 0.79264 0.69958 0.05358 0.0
O103 O 0.84445 0.70563 0.05846 0.0
C104 C 0.81251 0.70707 0.05392 0.0
C105 C 0.95578 0.69329 0.07056 0.0
C106 C 0.86591 0.68454 0.00745 0.0
C107 C 0.85246 0.67546 0.09161 0.0
O108 O 0.8819 0.67664 0.08184 0.0
O109 O 0.82873 0.68142 0.08631 0.0
O110 O 0.95143 0.68475 0.06073 0.0
O111 O 0.92924 0.69869 0.07368 0.0
O112 O 0.13556 0.82365 0.83271 0.0
Cd113 Cd 0.15537 0.81161 0.81327 0.0
Cd114 Cd 0.08672 0.80999 0.80631 0.0
O115 O 0.08118 0.81997 0.83566 0.0
O116 O 0.20478 0.81448 0.81592 0.0
O117 O 0.18202 0.8013 0.83322 0.0
C118 C 0.2087 0.80651 0.82876 0.0
C119 C 0.06201 0.7947 0.80351 0.0
C120 C 0.10585 0.82558 0.84108 0.0
C121 C 0.12666 0.81425 0.75978 0.0
O122 O 0.09824 0.81581 0.77059 0.0
O123 O 0.15147 0.81102 0.77303 0.0
O124 O 0.04415 0.80253 0.80079 0.0
O125 O 0.09359 0.7956 0.8101 0.0
O126 O 0.12259 0.42619 0.83107 0.0
Cd127 Cd 0.10219 0.43785 0.81084 0.0
Cd128 Cd 0.1713 0.4409 0.80507 0.0
O129 O 0.17717 0.42984 0.83177 0.0
O130 O 0.05293 0.43484 0.8132 0.0
O131 O 0.07472 0.44834 0.82944 0.0
C132 C 0.04837 0.443 0.825 0.0
C133 C 0.19553 0.45628 0.80658 0.0
C134 C 0.15283 0.42423 0.83807 0.0
C135 C 0.13287 0.43641 0.75701 0.0
O136 O 0.16203 0.4366 0.76749 0.0
O137 O 0.10641 0.43765 0.77076 0.0
O138 O 0.21378 0.44861 0.80247 0.0
O139 O 0.16381 0.45509 0.81237 0.0
O140 O 0.13072 0.42685 0.40543 0.0
Cd141 Cd 0.1505 0.4383 0.42698 0.0
Cd142 Cd 0.08232 0.44181 0.42973 0.0
O143 O 0.07719 0.43135 0.40133 0.0
O144 O 0.20004 0.43552 0.42571 0.0
O145 O 0.17803 0.44902 0.40953 0.0
C146 C 0.20452 0.44377 0.4143 0.0
C147 C 0.06009 0.45743 0.42992 0.0
C148 C 0.10105 0.4254 0.39636 0.0
C149 C 0.11594 0.43632 0.47898 0.0
O150 O 0.08789 0.43659 0.46687 0.0
O151 O 0.14358 0.43785 0.46689 0.0
O152 O 0.04064 0.44988 0.43172 0.0
O153 O 0.09203 0.45604 0.42529 0.0
O154 O 0.12271 0.82291 0.41165 0.0
Cd155 Cd 0.10771 0.81047 0.43191 0.0
Cd156 Cd 0.17615 0.80979 0.43304 0.0
O157 O 0.17637 0.81963 0.4031 0.0
O158 O 0.05802 0.81278 0.43508 0.0
O159 O 0.07894 0.80027 0.41334 0.0
C160 C 0.05279 0.80504 0.42154 0.0
C161 C 0.19811 0.7942 0.43427 0.0
C162 C 0.15055 0.82508 0.40039 0.0
C163 C 0.14386 0.8132 0.48259 0.0
O164 O 0.16969 0.81567 0.46941 0.0
O165 O 0.11846 0.80935 0.47135 0.0
O166 O 0.21784 0.80174 0.43483 0.0
O167 O 0.16597 0.79558 0.43038 0.0
O168 O 0.91665 0.18672 0.21947 0.0
Cd169 Cd 0.91847 0.19208 0.18224 0.0
Cd170 Cd 0.85064 0.18862 0.18353 0.0
O171 O 0.86118 0.18815 0.22302 0.0
O172 O 0.95962 0.20041 0.18189 0.0
O173 O 0.90729 0.20625 0.17854 0.0
C174 C 0.93949 0.20784 0.18127 0.0
C175 C 0.79621 0.19422 0.1724 0.0
C176 C 0.88996 0.18648 0.2333 0.0
C177 C 0.89664 0.17577 0.14988 0.0
O178 O 0.86813 0.17715 0.16098 0.0
O179 O 0.92091 0.18174 0.15332 0.0
O180 O 0.80088 0.1861 0.18441 0.0
O181 O 0.82264 0.19935 0.16659 0.0
O182 O 0.84691 0.56527 0.22233 0.0
Cd183 Cd 0.83904 0.55967 0.18586 0.0
Cd184 Cd 0.90747 0.56386 0.18079 0.0
O185 O 0.9028 0.56504 0.22088 0.0
O186 O 0.79675 0.55193 0.19027 0.0
O187 O 0.84691 0.54527 0.18224 0.0
C188 C 0.81521 0.54419 0.18822 0.0
C189 C 0.96064 0.55831 0.16617 0.0
C190 C 0.87539 0.56624 0.23357 0.0
C191 C 0.85485 0.57585 0.1504 0.0
O192 O 0.88518 0.57468 0.15839 0.0
O193 O 0.83165 0.56989 0.15703 0.0
O194 O 0.95661 0.56682 0.17623 0.0
O195 O 0.93417 0.55281 0.16414 0.0
O196 O 0.91295 0.56448 0.52245 0.0
Cd197 Cd 0.92073 0.55924 0.55934 0.0
Cd198 Cd 0.85241 0.56349 0.56476 0.0
O199 O 0.85712 0.56481 0.52476 0.0
O200 O 0.9627 0.55135 0.55561 0.0
O201 O 0.91225 0.54492 0.56405 0.0
C202 C 0.94394 0.5437 0.55824 0.0
C203 C 0.79875 0.55803 0.57852 0.0
C204 C 0.88431 0.56567 0.51161 0.0
C205 C 0.90517 0.57548 0.59488 0.0
O206 O 0.87464 0.57422 0.58746 0.0
O207 O 0.92836 0.56962 0.58766 0.0
O208 O 0.80338 0.5666 0.56898 0.0
O209 O 0.82494 0.55243 0.58071 0.0
O210 O 0.84942 0.18656 0.51784 0.0
Cd211 Cd 0.83644 0.19152 0.55415 0.0
Cd212 Cd 0.90419 0.18667 0.56494 0.0
O213 O 0.90431 0.18497 0.5249 0.0
O214 O 0.7942 0.19903 0.54729 0.0
O215 O 0.84222 0.20591 0.56013 0.0
C216 C 0.81134 0.20686 0.55193 0.0
C217 C 0.95661 0.19211 0.58128 0.0
C218 C 0.87905 0.18472 0.50952 0.0
C219 C 0.84696 0.17506 0.59087 0.0
O220 O 0.87852 0.17627 0.58661 0.0
O221 O 0.8252 0.18086 0.58112 0.0
O222 O 0.95235 0.18339 0.57264 0.0
O223 O 0.93057 0.19783 0.58143 0.0
O224 O 0.63669 0.32317 0.83788 0.0
Cd225 Cd 0.65698 0.31121 0.81835 0.0
Cd226 Cd 0.5882 0.30969 0.8097 0.0
O227 O 0.58199 0.31973 0.83885 0.0
O228 O 0.70633 0.31389 0.82252 0.0
O229 O 0.68238 0.30058 0.83805 0.0
C230 C 0.70945 0.30573 0.83465 0.0
C231 C 0.56256 0.29452 0.80642 0.0
C232 C 0.60663 0.3252 0.84531 0.0
C233 C 0.63016 0.31385 0.76406 0.0
O234 O 0.60122 0.31534 0.77411 0.0
O235 O 0.65459 0.31079 0.778 0.0
O236 O 0.54533 0.30245 0.80332 0.0
O237 O 0.59393 0.29526 0.8137 0.0
O238 O 0.6076 0.92898 0.82198 0.0
Cd239 Cd 0.59537 0.94246 0.80616 0.0
Cd240 Cd 0.66258 0.9422 0.80761 0.0
O241 O 0.65967 0.93162 0.83596 0.0
O242 O 0.54509 0.94121 0.80447 0.0
O243 O 0.57029 0.95258 0.8279 0.0
C244 C 0.54253 0.94849 0.82017 0.0
C245 C 0.68767 0.95744 0.80869 0.0
C246 C 0.63363 0.92617 0.83464 0.0
C247 C 0.63162 0.94046 0.75636 0.0
O248 O 0.65595 0.93726 0.77012 0.0
O249 O 0.60655 0.94463 0.76723 0.0
O250 O 0.70589 0.9496 0.80747 0.0
O251 O 0.65524 0.95651 0.81213 0.0
O252 O 0.63663 0.92903 0.40443 0.0
Cd253 Cd 0.65446 0.94103 0.42514 0.0
Cd254 Cd 0.58561 0.94217 0.43088 0.0
O255 O 0.58192 0.93222 0.40121 0.0
O256 O 0.70425 0.93875 0.42297 0.0
O257 O 0.68018 0.95194 0.40684 0.0
C258 C 0.70744 0.94698 0.4112 0.0
C259 C 0.56105 0.95748 0.43327 0.0
C260 C 0.60729 0.92689 0.39566 0.0
C261 C 0.62396 0.938 0.47818 0.0
O262 O 0.59585 0.93642 0.46691 0.0
O263 O 0.64916 0.94121 0.46531 0.0
O264 O 0.54289 0.94967 0.43528 0.0
O265 O 0.59289 0.95655 0.42748 0.0
O266 O 0.60998 0.3228 0.42174 0.0
Cd267 Cd 0.59832 0.30923 0.43724 0.0
Cd268 Cd 0.66492 0.30921 0.43343 0.0
O269 O 0.66085 0.31995 0.40561 0.0
O270 O 0.5481 0.31032 0.44031 0.0
O271 O 0.5727 0.2993 0.41531 0.0
C272 C 0.54515 0.30323 0.42402 0.0
C273 C 0.688 0.29377 0.4308 0.0
C274 C 0.6353 0.32552 0.40812 0.0
C275 C 0.63758 0.31064 0.48581 0.0
O276 O 0.66113 0.31392 0.47137 0.0
O277 O 0.61168 0.30666 0.47559 0.0
O278 O 0.70724 0.30141 0.43156 0.0
O279 O 0.65553 0.29503 0.42861 0.0
O280 O 0.40129 0.68749 0.22231 0.0
Cd281 Cd 0.41185 0.69229 0.18538 0.0
Cd282 Cd 0.34315 0.68832 0.17821 0.0
O283 O 0.34559 0.68747 0.21841 0.0
O284 O 0.45448 0.69983 0.19021 0.0
O285 O 0.40551 0.70664 0.17931 0.0
C286 C 0.4369 0.70763 0.18628 0.0
C287 C 0.29033 0.69363 0.16222 0.0
C288 C 0.37205 0.68658 0.23238 0.0
C289 C 0.39684 0.67565 0.15098 0.0
O290 O 0.36608 0.67719 0.1574 0.0
O291 O 0.42012 0.68149 0.15821 0.0
O292 O 0.29428 0.68521 0.17281 0.0
O293 O 0.31675 0.69916 0.16025 0.0
O294 O 0.34942 0.06413 0.22305 0.0
Cd295 Cd 0.33985 0.05917 0.18612 0.0
Cd296 Cd 0.40834 0.0632 0.17948 0.0
O297 O 0.40515 0.06448 0.21957 0.0
O298 O 0.29703 0.0517 0.19049 0.0
O299 O 0.3462 0.0448 0.18055 0.0
C300 C 0.31459 0.04387 0.18698 0.0
C301 C 0.46101 0.05742 0.16453 0.0
C302 C 0.37844 0.06529 0.23331 0.0
C303 C 0.3553 0.07551 0.15072 0.0
O304 O 0.38603 0.07408 0.15738 0.0
O305 O 0.33203 0.06976 0.15838 0.0
O306 O 0.45744 0.066 0.17426 0.0
O307 O 0.43428 0.052 0.16281 0.0
O308 O 0.41179 0.06461 0.5235 0.0
Cd309 Cd 0.41687 0.05918 0.56047 0.0
Cd310 Cd 0.34871 0.06354 0.56285 0.0
O311 O 0.35588 0.06454 0.52295 0.0
O312 O 0.45846 0.05104 0.55813 0.0
O313 O 0.4071 0.0449 0.56454 0.0
C314 C 0.43901 0.0435 0.55987 0.0
C315 C 0.29446 0.05827 0.57581 0.0
C316 C 0.38407 0.0656 0.51121 0.0
C317 C 0.3997 0.07554 0.59478 0.0
O318 O 0.36988 0.0744 0.58569 0.0
O319 O 0.42307 0.06949 0.5892 0.0
O320 O 0.29951 0.0667 0.56552 0.0
O321 O 0.32049 0.05267 0.57893 0.0
O322 O 0.33852 0.6861 0.52268 0.0
Cd323 Cd 0.33486 0.69151 0.55976 0.0
Cd324 Cd 0.40215 0.68708 0.56141 0.0
O325 O 0.39439 0.68597 0.52161 0.0
O326 O 0.29426 0.70005 0.55826 0.0
O327 O 0.34657 0.70565 0.56383 0.0
C328 C 0.31471 0.70739 0.55974 0.0
C329 C 0.45591 0.69288 0.57368 0.0
C330 C 0.366 0.685 0.51012 0.0
C331 C 0.35199 0.67515 0.59399 0.0
O332 O 0.38171 0.6762 0.58464 0.0
O333 O 0.32875 0.68125 0.58855 0.0
O334 O 0.45168 0.68436 0.56371 0.0
O335 O 0.4293 0.69824 0.57701 0.0
O336 O 0.63823 0.82332 0.33356 0.0
Cd337 Cd 0.65821 0.8108 0.31685 0.0
Cd338 Cd 0.58828 0.80883 0.30899 0.0
O339 O 0.58322 0.82025 0.33465 0.0
O340 O 0.70752 0.81379 0.31885 0.0
O341 O 0.68504 0.80111 0.33883 0.0
C342 C 0.71163 0.80617 0.33308 0.0
C343 C 0.56075 0.79389 0.30997 0.0
C344 C 0.60821 0.82577 0.34004 0.0
C345 C 0.63041 0.81112 0.26206 0.0
O346 O 0.60113 0.81254 0.27159 0.0
O347 O 0.65531 0.80917 0.27689 0.0
O348 O 0.54443 0.80184 0.30492 0.0
O349 O 0.59216 0.79459 0.31718 0.0
O350 O 0.60916 0.4293 0.31946 0.0
Cd351 Cd 0.59628 0.443 0.30578 0.0
Cd352 Cd 0.66337 0.44381 0.3101 0.0
O353 O 0.65979 0.43232 0.33594 0.0
O354 O 0.54622 0.44173 0.3019 0.0
O355 O 0.56965 0.45227 0.32899 0.0
C356 C 0.54255 0.44846 0.31914 0.0
C357 C 0.68751 0.45905 0.31487 0.0
C358 C 0.63484 0.42656 0.33262 0.0
C359 C 0.63615 0.44292 0.25716 0.0
O360 O 0.66072 0.44012 0.27132 0.0
O361 O 0.60906 0.44601 0.26772 0.0
O362 O 0.7062 0.45132 0.31335 0.0
O363 O 0.65496 0.45794 0.31695 0.0
O364 O 0.63361 0.42841 0.90601 0.0
Cd365 Cd 0.65294 0.4405 0.92514 0.0
Cd366 Cd 0.58293 0.44277 0.93148 0.0
O367 O 0.57868 0.43162 0.90479 0.0
O368 O 0.7024 0.43766 0.92435 0.0
O369 O 0.68062 0.4507 0.90552 0.0
C370 C 0.707 0.44561 0.9116 0.0
C371 C 0.55635 0.45783 0.9307 0.0
C372 C 0.60362 0.42615 0.89895 0.0
C373 C 0.6226 0.43925 0.97923 0.0
O374 O 0.59339 0.43862 0.96899 0.0
O375 O 0.64845 0.44098 0.96518 0.0
O376 O 0.5393 0.44992 0.93454 0.0
O377 O 0.58812 0.45706 0.92454 0.0
O378 O 0.61155 0.82208 0.92316 0.0
Cd379 Cd 0.60016 0.80815 0.93622 0.0
Cd380 Cd 0.66664 0.80785 0.93047 0.0
O381 O 0.66109 0.81925 0.90463 0.0
O382 O 0.55025 0.80895 0.94188 0.0
O383 O 0.57316 0.79903 0.91287 0.0
C384 C 0.5463 0.80245 0.92405 0.0
C385 C 0.68973 0.79252 0.92544 0.0
C386 C 0.63622 0.82493 0.90905 0.0
C387 C 0.64219 0.80799 0.98369 0.0
O388 O 0.66528 0.81156 0.96928 0.0
O389 O 0.61554 0.8045 0.97336 0.0
O390 O 0.70892 0.80018 0.92615 0.0
O391 O 0.65717 0.79376 0.92418 0.0
O392 O 0.40683 0.18788 0.72221 0.0
Cd393 Cd 0.4158 0.19234 0.68472 0.0
Cd394 Cd 0.34717 0.18829 0.67891 0.0
O395 O 0.35107 0.18764 0.71905 0.0
O396 O 0.45821 0.20008 0.68789 0.0
O397 O 0.40842 0.20659 0.6778 0.0
C398 C 0.44005 0.20776 0.68386 0.0
C399 C 0.29378 0.19368 0.6644 0.0
C400 C 0.37786 0.18696 0.73272 0.0
C401 C 0.39981 0.17552 0.65108 0.0
O402 O 0.36917 0.17708 0.65781 0.0
O403 O 0.42324 0.18136 0.65796 0.0
O404 O 0.29805 0.18526 0.67494 0.0
O405 O 0.32024 0.19913 0.66145 0.0
O406 O 0.34993 0.56439 0.72245 0.0
Cd407 Cd 0.33941 0.55924 0.68587 0.0
Cd408 Cd 0.40737 0.56377 0.67767 0.0
O409 O 0.40543 0.56534 0.71775 0.0
O410 O 0.29727 0.55154 0.69127 0.0
O411 O 0.34646 0.54489 0.68021 0.0
C412 C 0.31515 0.5438 0.68728 0.0
C413 C 0.46033 0.55842 0.6621 0.0
C414 C 0.37913 0.56595 0.73201 0.0
C415 C 0.35211 0.57556 0.64974 0.0
O416 O 0.38323 0.57433 0.65557 0.0
O417 O 0.32961 0.56972 0.65823 0.0
O418 O 0.45586 0.56705 0.6713 0.0
O419 O 0.43431 0.5527 0.66123 0.0
O420 O 0.41208 0.56566 0.02209 0.0
Cd421 Cd 0.41573 0.55988 0.05877 0.0
Cd422 Cd 0.34801 0.56389 0.06002 0.0
O423 O 0.35629 0.56498 0.02024 0.0
O424 O 0.45668 0.55147 0.05675 0.0
O425 O 0.40453 0.54566 0.06157 0.0
C426 C 0.43647 0.54406 0.05743 0.0
C427 C 0.29424 0.55806 0.07235 0.0
C428 C 0.38474 0.56639 0.00917 0.0
C429 C 0.39718 0.57592 0.09343 0.0
O430 O 0.36783 0.57481 0.08343 0.0
O431 O 0.42081 0.5699 0.08834 0.0
O432 O 0.29837 0.56655 0.06211 0.0
O433 O 0.32091 0.55274 0.07572 0.0
O434 O 0.34089 0.1873 0.02374 0.0
Cd435 Cd 0.33565 0.19219 0.06122 0.0
Cd436 Cd 0.40414 0.18848 0.06316 0.0
O437 O 0.39663 0.18843 0.02323 0.0
O438 O 0.29333 0.20002 0.05994 0.0
O439 O 0.34426 0.20645 0.06646 0.0
C440 C 0.31217 0.20768 0.06212 0.0
C441 C 0.45818 0.19381 0.0762 0.0
C442 C 0.36873 0.18708 0.01132 0.0
C443 C 0.35481 0.17549 0.0936 0.0
O444 O 0.38437 0.17692 0.08429 0.0
O445 O 0.331 0.18151 0.08907 0.0
O446 O 0.45373 0.18573 0.06393 0.0
O447 O 0.43171 0.19899 0.0815 0.0
H448 H 0.03865 0.41701 0.38861 0.0
H449 H 0.02757 0.39975 0.37939 0.0
H450 H 0.13472 0.39481 0.36877 0.0
H451 H 0.14619 0.41197 0.37796 0.0
H452 H 0.06684 0.38536 0.33139 0.0
H453 H 0.08346 0.37897 0.43825 0.0
H454 H 0.06469 0.39006 0.42575 0.0
H455 H 0.1094 0.38802 0.42225 0.0
C456 C 0.05977 0.41233 0.3835 0.0
C457 C 0.09337 0.41584 0.38427 0.0
C458 C 0.05336 0.40247 0.37837 0.0
C459 C 0.0804 0.39606 0.37373 0.0
C460 C 0.11361 0.39968 0.37243 0.0
H461 H 0.14452 0.33817 0.36889 0.0
H462 H 0.13173 0.35513 0.37943 0.0
C463 C 0.12007 0.4095 0.37765 0.0
C464 C 0.07487 0.38543 0.37292 0.0
H465 H 0.08198 0.36509 0.41099 0.0
C466 C 0.06939 0.38089 0.34878 0.0
C467 C 0.07845 0.37972 0.39574 0.0
C468 C 0.08423 0.38438 0.42209 0.0
C469 C 0.06897 0.37068 0.34667 0.0
C470 C 0.07383 0.36494 0.3694 0.0
C471 C 0.07799 0.36952 0.39369 0.0
C472 C 0.07904 0.35428 0.3677 0.0
C473 C 0.06533 0.36611 0.31997 0.0
C474 C 0.05311 0.34805 0.35901 0.0
C475 C 0.06031 0.33831 0.35306 0.0
C476 C 0.0936 0.33469 0.3556 0.0
C477 C 0.1187 0.34075 0.3665 0.0
C478 C 0.11145 0.35045 0.37253 0.0
H479 H 0.06672 0.37161 0.30403 0.0
H480 H 0.08548 0.36058 0.31676 0.0
H481 H 0.04041 0.36237 0.31865 0.0
H482 H 0.02779 0.35086 0.3556 0.0
H483 H 0.04037 0.33384 0.34476 0.0
H484 H 0.09691 0.91334 0.36326 0.0
H485 H 0.10548 0.89611 0.3731 0.0
H486 H 0.21285 0.89927 0.3591 0.0
H487 H 0.20463 0.91659 0.34926 0.0
H488 H 0.13501 0.88392 0.33195 0.0
H489 H 0.20524 0.88177 0.42635 0.0
H490 H 0.17966 0.89222 0.41767 0.0
H491 H 0.22 0.89035 0.40223 0.0
C492 C 0.12252 0.91046 0.36299 0.0
C493 C 0.15004 0.91633 0.3552 0.0
C494 C 0.12733 0.9006 0.36855 0.0
C495 C 0.15973 0.89643 0.36666 0.0
C496 C 0.18769 0.90239 0.36085 0.0
H497 H 0.20903 0.83448 0.38573 0.0
H498 H 0.21469 0.85165 0.37331 0.0
C499 C 0.18292 0.91229 0.35528 0.0
C500 C 0.16325 0.88571 0.3677 0.0
H501 H 0.19273 0.86695 0.40512 0.0
C502 C 0.1478 0.8802 0.34787 0.0
C503 C 0.18042 0.88092 0.38823 0.0
C504 C 0.1972 0.88657 0.40998 0.0
C505 C 0.14823 0.86998 0.3484 0.0
C506 C 0.16397 0.86517 0.36959 0.0
C507 C 0.18065 0.87067 0.38889 0.0
C508 C 0.16067 0.85451 0.37344 0.0
C509 C 0.13159 0.86444 0.32636 0.0
C510 C 0.1284 0.85039 0.37703 0.0
C511 C 0.12506 0.8406 0.38404 0.0
C512 C 0.15396 0.83475 0.38778 0.0
C513 C 0.18624 0.83876 0.38286 0.0
C514 C 0.18956 0.84859 0.37593 0.0
H515 H 0.13084 0.86885 0.30814 0.0
H516 H 0.1451 0.8575 0.32229 0.0
H517 H 0.10502 0.8627 0.33187 0.0
H518 H 0.1058 0.85486 0.37564 0.0
H519 H 0.09984 0.83776 0.38771 0.0
H520 H 0.04608 0.91733 0.88989 0.0
H521 H 0.03668 0.90002 0.88012 0.0
H522 H 0.14426 0.89602 0.86913 0.0
H523 H 0.15402 0.91322 0.87876 0.0
H524 H 0.06535 0.88636 0.83439 0.0
H525 H 0.10862 0.87912 0.93607 0.0
H526 H 0.0915 0.89076 0.92598 0.0
H527 H 0.13407 0.88744 0.91717 0.0
C528 C 0.06764 0.91284 0.88457 0.0
C529 C 0.10087 0.91662 0.88543 0.0
C530 C 0.06219 0.90296 0.87912 0.0
C531 C 0.08987 0.89678 0.87439 0.0
C532 C 0.12267 0.9007 0.87302 0.0
H533 H 0.15281 0.83862 0.85877 0.0
H534 H 0.14333 0.85572 0.8696 0.0
C535 C 0.12815 0.91053 0.87847 0.0
C536 C 0.08537 0.8861 0.87347 0.0
H537 H 0.10389 0.86545 0.90788 0.0
C538 C 0.07317 0.88176 0.85054 0.0
C539 C 0.09557 0.88018 0.89469 0.0
C540 C 0.10797 0.88457 0.92 0.0
C541 C 0.07266 0.87156 0.84775 0.0
C542 C 0.08417 0.86563 0.86865 0.0
C543 C 0.09501 0.87001 0.89196 0.0
C544 C 0.0887 0.85498 0.86561 0.0
C545 C 0.06161 0.86722 0.822 0.0
C546 C 0.06095 0.8488 0.86102 0.0
C547 C 0.06627 0.83897 0.85489 0.0
C548 C 0.09946 0.8352 0.85323 0.0
C549 C 0.12695 0.84129 0.8597 0.0
C550 C 0.12159 0.85107 0.86586 0.0
H551 H 0.05888 0.87285 0.80651 0.0
H552 H 0.08015 0.86166 0.81529 0.0
H553 H 0.03669 0.86357 0.82455 0.0
H554 H 0.0353 0.85165 0.86126 0.0
H555 H 0.04453 0.83448 0.85007 0.0
H556 H 0.10694 0.4112 0.85737 0.0
H557 H 0.11648 0.39391 0.86581 0.0
H558 H 0.22365 0.39769 0.85209 0.0
H559 H 0.21446 0.41509 0.84349 0.0
H560 H 0.15212 0.38224 0.82196 0.0
H561 H 0.21061 0.37973 0.92104 0.0
H562 H 0.18235 0.38962 0.9126 0.0
H563 H 0.22402 0.38914 0.89864 0.0
C564 C 0.13271 0.40844 0.85678 0.0
C565 C 0.1599 0.41452 0.84949 0.0
C566 C 0.13806 0.39855 0.86155 0.0
C567 C 0.17067 0.39456 0.85935 0.0
C568 C 0.1983 0.40069 0.85394 0.0
H569 H 0.20871 0.33243 0.88687 0.0
H570 H 0.22024 0.3491 0.87216 0.0
C571 C 0.19298 0.41062 0.84913 0.0
C572 C 0.17476 0.38387 0.86003 0.0
H573 H 0.19664 0.36501 0.9 0.0
C574 C 0.16227 0.37844 0.83885 0.0
C575 C 0.18846 0.37901 0.88191 0.0
C576 C 0.20216 0.38461 0.90497 0.0
C577 C 0.16178 0.36822 0.83947 0.0
C578 C 0.17346 0.36334 0.86207 0.0
C579 C 0.18768 0.36877 0.88267 0.0
C580 C 0.16741 0.35279 0.86618 0.0
C581 C 0.14814 0.36276 0.81612 0.0
C582 C 0.13398 0.34926 0.86689 0.0
C583 C 0.12731 0.33977 0.87521 0.0
C584 C 0.15395 0.33363 0.88318 0.0
C585 C 0.18762 0.33695 0.88074 0.0
C586 C 0.19427 0.3465 0.8725 0.0
H587 H 0.15157 0.36703 0.79784 0.0
H588 H 0.1608 0.35558 0.8138 0.0
H589 H 0.12052 0.36151 0.81879 0.0
H590 H 0.11281 0.35404 0.86254 0.0
H591 H 0.10111 0.33744 0.87687 0.0
H592 H 0.8627 0.58817 0.61969 0.0
H593 H 0.87464 0.60519 0.63033 0.0
H594 H 0.9795 0.60113 0.60877 0.0
H595 H 0.96788 0.58404 0.5981 0.0
H596 H 0.92734 0.61519 0.66332 0.0
H597 H 0.93667 0.62174 0.55594 0.0
H598 H 0.91704 0.61091 0.56917 0.0
H599 H 0.96232 0.61222 0.57 0.0
C600 C 0.88853 0.5908 0.61789 0.0
C601 C 0.91425 0.58478 0.60776 0.0
C602 C 0.89529 0.60054 0.62396 0.0
C603 C 0.92778 0.60442 0.61987 0.0
C604 C 0.95418 0.59826 0.61178 0.0
H605 H 0.96329 0.66676 0.65007 0.0
H606 H 0.97651 0.64965 0.64073 0.0
C607 C 0.94751 0.58848 0.60589 0.0
C608 C 0.9327 0.61509 0.62148 0.0
H609 H 0.93675 0.6355 0.58327 0.0
C610 C 0.93013 0.61964 0.64592 0.0
C611 C 0.93589 0.62083 0.59862 0.0
C612 C 0.93799 0.61624 0.57185 0.0
C613 C 0.92971 0.62985 0.64804 0.0
C614 C 0.93185 0.63558 0.62512 0.0
C615 C 0.93544 0.63104 0.60075 0.0
C616 C 0.92643 0.64623 0.62609 0.0
C617 C 0.92529 0.63447 0.6746 0.0
C618 C 0.89441 0.65 0.61975 0.0
C619 C 0.8867 0.65974 0.62512 0.0
C620 C 0.91101 0.66586 0.63678 0.0
C621 C 0.94402 0.66225 0.64101 0.0
C622 C 0.9516 0.65247 0.63585 0.0
H623 H 0.92198 0.62895 0.69032 0.0
H624 H 0.94789 0.63898 0.67924 0.0
H625 H 0.90284 0.63936 0.6745 0.0
H626 H 0.87472 0.64527 0.61212 0.0
H627 H 0.8611 0.6623 0.62154 0.0
H628 H 0.78479 0.08417 0.6463 0.0
H629 H 0.77162 0.10113 0.63511 0.0
H630 H 0.8744 0.10532 0.60838 0.0
H631 H 0.88795 0.08845 0.61979 0.0
H632 H 0.81266 0.11678 0.66049 0.0
H633 H 0.81153 0.11885 0.55204 0.0
H634 H 0.80286 0.1077 0.56969 0.0
H635 H 0.84577 0.1119 0.56597 0.0
C636 C 0.80429 0.0886 0.63722 0.0
C637 C 0.83748 0.08498 0.63401 0.0
C638 C 0.79674 0.0983 0.63101 0.0
C639 C 0.82204 0.10444 0.62094 0.0
C640 C 0.85446 0.10065 0.61592 0.0
H641 H 0.88385 0.16284 0.622 0.0
H642 H 0.87035 0.14589 0.63251 0.0
C643 C 0.86216 0.09101 0.62246 0.0
C644 C 0.8162 0.11506 0.61871 0.0
H645 H 0.81828 0.13388 0.57514 0.0
C646 C 0.81321 0.12053 0.64182 0.0
C647 C 0.81688 0.11989 0.59435 0.0
C648 C 0.81916 0.1143 0.56902 0.0
C649 C 0.81276 0.13076 0.64123 0.0
C650 C 0.81529 0.1356 0.61694 0.0
C651 C 0.81638 0.13013 0.59376 0.0
C652 C 0.82027 0.14627 0.61517 0.0
C653 C 0.81059 0.13635 0.66655 0.0
C654 C 0.79612 0.15216 0.60269 0.0
C655 C 0.80359 0.16191 0.59695 0.0
C656 C 0.83566 0.16582 0.60308 0.0
C657 C 0.85894 0.16005 0.61703 0.0
C658 C 0.85126 0.15036 0.62307 0.0
H659 H 0.80088 0.13173 0.68275 0.0
H660 H 0.8363 0.13898 0.67198 0.0
H661 H 0.79384 0.14282 0.66439 0.0
H662 H 0.77213 0.1491 0.59636 0.0
H663 H 0.7852 0.16613 0.58601 0.0
H664 H 0.95771 0.16735 0.13748 0.0
H665 H 0.96714 0.15037 0.12438 0.0
H666 H 0.85889 0.14582 0.12053 0.0
H667 H 0.84925 0.1627 0.13327 0.0
H668 H 0.94463 0.13467 0.15442 0.0
H669 H 0.892 0.1324 0.05439 0.0
H670 H 0.90334 0.14386 0.06945 0.0
H671 H 0.86311 0.13821 0.07657 0.0
C672 C 0.93594 0.16282 0.13304 0.0
C673 C 0.9027 0.16637 0.13649 0.0
C674 C 0.94139 0.15311 0.12573 0.0
C675 C 0.91373 0.14686 0.12137 0.0
C676 C 0.88062 0.15055 0.12337 0.0
H677 H 0.85225 0.0883 0.11259 0.0
H678 H 0.86164 0.10552 0.12221 0.0
C679 C 0.87515 0.16021 0.13077 0.0
C680 C 0.91888 0.13626 0.11748 0.0
H681 H 0.89434 0.11731 0.07868 0.0
C682 C 0.93432 0.13087 0.1376 0.0
C683 C 0.90545 0.13134 0.09552 0.0
C684 C 0.89036 0.13677 0.07264 0.0
C685 C 0.93479 0.12062 0.13702 0.0
C686 C 0.91953 0.11573 0.1158 0.0
C687 C 0.90565 0.12113 0.09509 0.0
C688 C 0.91573 0.10502 0.11515 0.0
C689 C 0.95 0.11506 0.15958 0.0
C690 C 0.94338 0.09899 0.10913 0.0
C691 C 0.93814 0.08909 0.10366 0.0
C692 C 0.9051 0.08516 0.10392 0.0
C693 C 0.87797 0.0911 0.11204 0.0
C694 C 0.88324 0.10095 0.11749 0.0
H695 H 0.95873 0.11996 0.17552 0.0
H696 H 0.93104 0.10986 0.16762 0.0
H697 H 0.97199 0.11073 0.15256 0.0
H698 H 0.96862 0.10204 0.10712 0.0
H699 H 0.95957 0.08473 0.09739 0.0
H700 H 0.79214 0.58436 0.1461 0.0
H701 H 0.78037 0.60131 0.13383 0.0
H702 H 0.8859 0.60539 0.11418 0.0
H703 H 0.89784 0.58854 0.12622 0.0
H704 H 0.81138 0.61698 0.15996 0.0
H705 H 0.83705 0.61888 0.05374 0.0
H706 H 0.8287 0.60751 0.07041 0.0
H707 H 0.87045 0.61285 0.07127 0.0
C708 C 0.81261 0.58877 0.13833 0.0
C709 C 0.84598 0.58511 0.1372 0.0
C710 C 0.80586 0.59847 0.13151 0.0
C711 C 0.83222 0.60459 0.12301 0.0
C712 C 0.86507 0.60076 0.1203 0.0
H713 H 0.89766 0.66238 0.11153 0.0
H714 H 0.88654 0.6453 0.1219 0.0
C715 C 0.87188 0.59112 0.12728 0.0
C716 C 0.8267 0.61521 0.11978 0.0
H717 H 0.84184 0.63401 0.07768 0.0
C718 C 0.81723 0.62071 0.14181 0.0
C719 C 0.83434 0.62004 0.09609 0.0
C720 C 0.84287 0.6145 0.07146 0.0
C721 C 0.8173 0.63095 0.14114 0.0
C722 C 0.827 0.63574 0.11793 0.0
C723 C 0.83468 0.63026 0.09554 0.0
C724 C 0.8322 0.6464 0.11685 0.0
C725 C 0.80875 0.63664 0.16547 0.0
C726 C 0.80505 0.65272 0.11169 0.0
C727 C 0.81127 0.66254 0.10584 0.0
C728 C 0.8448 0.6661 0.10481 0.0
C729 C 0.87158 0.65987 0.11202 0.0
C730 C 0.86532 0.6501 0.11789 0.0
H731 H 0.80095 0.63183 0.18189 0.0
H732 H 0.83118 0.64098 0.17164 0.0
H733 H 0.78787 0.64185 0.16125 0.0
H734 H 0.77932 0.64994 0.11075 0.0
H735 H 0.79009 0.66713 0.10027 0.0
H736 H 0.65103 0.4131 0.88207 0.0
H737 H 0.64248 0.39576 0.87364 0.0
H738 H 0.53448 0.39934 0.8832 0.0
H739 H 0.54266 0.41678 0.89179 0.0
H740 H 0.60604 0.38395 0.91542 0.0
H741 H 0.55026 0.38145 0.81544 0.0
H742 H 0.57709 0.39154 0.82494 0.0
H743 H 0.53487 0.39063 0.83773 0.0
C744 C 0.62533 0.41028 0.88178 0.0
C745 C 0.59755 0.41632 0.88786 0.0
C746 C 0.62054 0.40036 0.87701 0.0
C747 C 0.58792 0.3963 0.87798 0.0
C748 C 0.55984 0.40238 0.88227 0.0
H749 H 0.54525 0.33418 0.85332 0.0
H750 H 0.53596 0.35125 0.8655 0.0
C751 C 0.56459 0.41234 0.8871 0.0
C752 C 0.58406 0.38559 0.87713 0.0
H753 H 0.56191 0.36671 0.83724 0.0
C754 C 0.59608 0.38016 0.89845 0.0
C755 C 0.5706 0.38073 0.85515 0.0
C756 C 0.55748 0.38632 0.83187 0.0
C757 C 0.59605 0.36993 0.89801 0.0
C758 C 0.58439 0.36504 0.8754 0.0
C759 C 0.57089 0.37048 0.85455 0.0
C760 C 0.58914 0.3544 0.87186 0.0
C761 C 0.60889 0.36448 0.92164 0.0
C762 C 0.62202 0.35047 0.87199 0.0
C763 C 0.62743 0.34074 0.86515 0.0
C764 C 0.60005 0.33476 0.8578 0.0
C765 C 0.56689 0.33857 0.859 0.0
C766 C 0.56153 0.34834 0.86581 0.0
H767 H 0.60572 0.36886 0.93976 0.0
H768 H 0.59548 0.35741 0.92413 0.0
H769 H 0.6364 0.36298 0.91918 0.0
H770 H 0.64378 0.35505 0.87612 0.0
H771 H 0.65328 0.33806 0.86439 0.0
H772 H 0.60763 0.84029 0.93374 0.0
H773 H 0.61014 0.85743 0.92176 0.0
H774 H 0.66908 0.85017 0.85335 0.0
H775 H 0.66838 0.83289 0.86629 0.0
H776 H 0.69298 0.86614 0.8746 0.0
H777 H 0.5538 0.87025 0.86806 0.0
H778 H 0.56576 0.86619 0.90001 0.0
H779 H 0.57368 0.85852 0.872 0.0
C780 C 0.62092 0.84231 0.91601 0.0
C781 C 0.6373 0.83523 0.90066 0.0
C782 C 0.6222 0.85213 0.90912 0.0
C783 C 0.63883 0.85509 0.8862 0.0
C784 C 0.65578 0.84805 0.87099 0.0
H785 H 0.59664 0.91097 0.81671 0.0
H786 H 0.60062 0.89393 0.82907 0.0
C787 C 0.65526 0.83819 0.8783 0.0
C788 C 0.63855 0.86554 0.87844 0.0
H789 H 0.58578 0.88502 0.87041 0.0
C790 C 0.66952 0.87026 0.87339 0.0
C791 C 0.60792 0.8709 0.87649 0.0
C792 C 0.57345 0.86616 0.87914 0.0
C793 C 0.67073 0.88021 0.86674 0.0
C794 C 0.6402 0.88568 0.8662 0.0
C795 C 0.60929 0.88091 0.87115 0.0
C796 C 0.63902 0.89617 0.85879 0.0
C797 C 0.70458 0.88463 0.85963 0.0
C798 C 0.65915 0.90322 0.87144 0.0
C799 C 0.65749 0.91305 0.86388 0.0
C800 C 0.63483 0.916 0.8442 0.0
C801 C 0.6141 0.90897 0.83218 0.0
C802 C 0.61641 0.89918 0.8392 0.0
H803 H 0.72308 0.87897 0.85342 0.0
H804 H 0.70194 0.89004 0.84361 0.0
H805 H 0.71529 0.88838 0.877 0.0
H806 H 0.67604 0.90116 0.88718 0.0
H807 H 0.67368 0.91833 0.87352 0.0
H808 H 0.65583 0.8389 0.35609 0.0
H809 H 0.64764 0.85627 0.36408 0.0
H810 H 0.53962 0.85285 0.35409 0.0
H811 H 0.54747 0.83537 0.34603 0.0
H812 H 0.61482 0.86843 0.32381 0.0
H813 H 0.55183 0.87036 0.42126 0.0
H814 H 0.57714 0.85999 0.41148 0.0
H815 H 0.53573 0.86175 0.39772 0.0
C816 C 0.6302 0.84177 0.35614 0.0
C817 C 0.60232 0.83574 0.35023 0.0
C818 C 0.62562 0.85171 0.36064 0.0
C819 C 0.59309 0.85583 0.35956 0.0
C820 C 0.56491 0.84978 0.35518 0.0
H821 H 0.54712 0.91774 0.38419 0.0
H822 H 0.53962 0.9007 0.37101 0.0
C823 C 0.56947 0.83979 0.35063 0.0
C824 C 0.58939 0.86655 0.36075 0.0
H825 H 0.56343 0.88521 0.40004 0.0
C826 C 0.60334 0.87212 0.34037 0.0
C827 C 0.57397 0.8713 0.38217 0.0
C828 C 0.55889 0.86559 0.40455 0.0
C829 C 0.60318 0.88234 0.34121 0.0
C830 C 0.58933 0.8871 0.36327 0.0
C831 C 0.57405 0.88154 0.38314 0.0
C832 C 0.59336 0.89774 0.36739 0.0
C833 C 0.61813 0.88793 0.31855 0.0
C834 C 0.62602 0.90178 0.36913 0.0
C835 C 0.63041 0.91149 0.37653 0.0
C836 C 0.6022 0.91736 0.3826 0.0
C837 C 0.56939 0.91344 0.37954 0.0
C838 C 0.56504 0.90369 0.37216 0.0
H839 H 0.61678 0.88364 0.30015 0.0
H840 H 0.60485 0.89498 0.31555 0.0
H841 H 0.6453 0.88945 0.3226 0.0
H842 H 0.64828 0.89728 0.36603 0.0
H843 H 0.65603 0.91425 0.37874 0.0
H844 H 0.59972 0.3409 0.42677 0.0
H845 H 0.60273 0.35784 0.41312 0.0
H846 H 0.6754 0.35021 0.35338 0.0
H847 H 0.67389 0.33313 0.3681 0.0
H848 H 0.69366 0.36658 0.37625 0.0
H849 H 0.55762 0.36969 0.35188 0.0
H850 H 0.56267 0.36596 0.38519 0.0
H851 H 0.57717 0.35813 0.35913 0.0
C852 C 0.6161 0.34277 0.41051 0.0
C853 C 0.63618 0.33565 0.39821 0.0
C854 C 0.61768 0.35248 0.40265 0.0
C855 C 0.6385 0.35528 0.3817 0.0
C856 C 0.65888 0.3482 0.36944 0.0
H857 H 0.60575 0.4112 0.30849 0.0
H858 H 0.61002 0.39403 0.31962 0.0
C859 C 0.6579 0.33846 0.37775 0.0
C860 C 0.6392 0.36564 0.37318 0.0
H861 H 0.58742 0.38474 0.3581 0.0
C862 C 0.67049 0.37054 0.37193 0.0
C863 C 0.60903 0.37078 0.36716 0.0
C864 C 0.57483 0.36582 0.36562 0.0
C865 C 0.67235 0.38048 0.36533 0.0
C866 C 0.64195 0.38575 0.36088 0.0
C867 C 0.61077 0.38078 0.36183 0.0
C868 C 0.64148 0.39629 0.35384 0.0
C869 C 0.7069 0.38513 0.36258 0.0
C870 C 0.65787 0.40338 0.36925 0.0
C871 C 0.65615 0.41328 0.36245 0.0
C872 C 0.63702 0.41624 0.34069 0.0
C873 C 0.62031 0.40915 0.3256 0.0
C874 C 0.62281 0.39931 0.33193 0.0
H875 H 0.72682 0.3796 0.3585 0.0
H876 H 0.70722 0.39062 0.34664 0.0
H877 H 0.71366 0.38882 0.38118 0.0
H878 H 0.67161 0.40129 0.3867 0.0
H879 H 0.66918 0.41861 0.37443 0.0
H880 H 0.4595 0.5841 0.1029 0.0
H881 H 0.47062 0.60095 0.1164 0.0
H882 H 0.36322 0.60559 0.12719 0.0
H883 H 0.35193 0.58883 0.11401 0.0
H884 H 0.44528 0.61679 0.08835 0.0
H885 H 0.40333 0.6188 0.19136 0.0
H886 H 0.41296 0.60737 0.17541 0.0
H887 H 0.37215 0.61305 0.17097 0.0
C888 C 0.43836 0.58861 0.10899 0.0
C889 C 0.4048 0.58514 0.1073 0.0
C890 C 0.44476 0.59826 0.11653 0.0
C891 C 0.41777 0.6045 0.12291 0.0
C892 C 0.38449 0.60085 0.12278 0.0
H893 H 0.35385 0.6625 0.12861 0.0
H894 H 0.36553 0.64532 0.11995 0.0
C895 C 0.37806 0.59127 0.11513 0.0
C896 C 0.42348 0.61509 0.12675 0.0
H897 H 0.40262 0.63396 0.16712 0.0
C898 C 0.43675 0.62054 0.10582 0.0
C899 C 0.41238 0.61996 0.14955 0.0
C900 C 0.39973 0.61447 0.17319 0.0
C901 C 0.43709 0.63079 0.1065 0.0
C902 C 0.4239 0.63562 0.1286 0.0
C903 C 0.41243 0.63018 0.15008 0.0
C904 C 0.41898 0.64629 0.12914 0.0
C905 C 0.44979 0.63643 0.08318 0.0
C906 C 0.44558 0.65256 0.13615 0.0
C907 C 0.43904 0.66244 0.14106 0.0
C908 C 0.40572 0.66611 0.13925 0.0
C909 C 0.37974 0.65991 0.13033 0.0
C910 C 0.38631 0.65008 0.12542 0.0
H911 H 0.45966 0.63158 0.06753 0.0
H912 H 0.42887 0.64093 0.07506 0.0
H913 H 0.47033 0.64148 0.08934 0.0
H914 H 0.47094 0.64972 0.13916 0.0
H915 H 0.4596 0.667 0.14799 0.0
H916 H 0.39992 0.16235 0.11346 0.0
H917 H 0.38875 0.1453 0.12424 0.0
H918 H 0.28175 0.14979 0.11125 0.0
H919 H 0.2926 0.16693 0.1005 0.0
H920 H 0.33949 0.13578 0.16177 0.0
H921 H 0.3166 0.12868 0.05585 0.0
H922 H 0.33897 0.13939 0.06705 0.0
H923 H 0.29389 0.13852 0.07131 0.0
C924 C 0.3739 0.15979 0.1135 0.0
C925 C 0.34719 0.16597 0.1059 0.0
C926 C 0.36758 0.15004 0.11964 0.0
C927 C 0.33454 0.1463 0.1181 0.0
C928 C 0.30747 0.15257 0.11228 0.0
H929 H 0.29298 0.08434 0.14886 0.0
H930 H 0.28194 0.10151 0.13859 0.0
C931 C 0.31372 0.16237 0.10634 0.0
C932 C 0.32925 0.13567 0.12047 0.0
H933 H 0.31901 0.11506 0.08371 0.0
C934 C 0.33435 0.13125 0.14485 0.0
C935 C 0.32287 0.12982 0.09821 0.0
C936 C 0.31789 0.13428 0.07152 0.0
C937 C 0.33412 0.12106 0.14743 0.0
C938 C 0.32891 0.11521 0.12503 0.0
C939 C 0.32277 0.11962 0.10079 0.0
C940 C 0.33336 0.10455 0.1263 0.0
C941 C 0.34091 0.11655 0.17382 0.0
C942 C 0.36555 0.10056 0.12166 0.0
C943 C 0.37201 0.0908 0.12756 0.0
C944 C 0.34631 0.08487 0.13812 0.0
C945 C 0.3133 0.0887 0.14066 0.0
C946 C 0.30693 0.09851 0.13493 0.0
H947 H 0.34382 0.12212 0.18943 0.0
H948 H 0.31973 0.11159 0.17916 0.0
H949 H 0.36445 0.11211 0.17292 0.0
H950 H 0.38619 0.10515 0.11495 0.0
H951 H 0.39765 0.08807 0.12527 0.0
H952 H 0.35568 0.08851 0.6167 0.0
H953 H 0.36752 0.10545 0.62809 0.0
H954 H 0.47404 0.10086 0.61307 0.0
H955 H 0.46245 0.08383 0.60151 0.0
H956 H 0.41411 0.11501 0.66426 0.0
H957 H 0.44231 0.12205 0.5591 0.0
H958 H 0.42099 0.11111 0.56991 0.0
H959 H 0.46576 0.11251 0.57516 0.0
C960 C 0.38176 0.09101 0.61643 0.0
C961 C 0.40806 0.08485 0.60791 0.0
C962 C 0.38847 0.10071 0.62292 0.0
C963 C 0.42152 0.10443 0.62088 0.0
C964 C 0.44828 0.09813 0.61438 0.0
H965 H 0.46236 0.1668 0.64813 0.0
H966 H 0.47358 0.14955 0.63889 0.0
C967 C 0.44163 0.08838 0.60802 0.0
C968 C 0.42694 0.11507 0.62338 0.0
H969 H 0.43924 0.13567 0.58689 0.0
C970 C 0.42027 0.11952 0.6475 0.0
C971 C 0.43466 0.12091 0.60133 0.0
C972 C 0.44118 0.11647 0.57481 0.0
C973 C 0.42013 0.12971 0.64998 0.0
C974 C 0.42658 0.13554 0.62775 0.0
C975 C 0.43449 0.13112 0.60384 0.0
C976 C 0.42163 0.1462 0.6287 0.0
C977 C 0.41166 0.13424 0.67605 0.0
C978 C 0.38901 0.15002 0.62494 0.0
C979 C 0.38247 0.15983 0.63018 0.0
C980 C 0.4085 0.16598 0.63929 0.0
C981 C 0.44177 0.16228 0.64107 0.0
C982 C 0.44825 0.15242 0.63592 0.0
H983 H 0.40986 0.12873 0.69189 0.0
H984 H 0.43129 0.1397 0.6814 0.0
H985 H 0.387 0.13813 0.67462 0.0
H986 H 0.36823 0.14529 0.61929 0.0
H987 H 0.35662 0.16245 0.62849 0.0
H988 H 0.39558 0.66208 0.61603 0.0
H989 H 0.38319 0.64511 0.62704 0.0
H990 H 0.27702 0.64994 0.61126 0.0
H991 H 0.28907 0.66699 0.60032 0.0
H992 H 0.33079 0.63557 0.66306 0.0
H993 H 0.31534 0.62899 0.55609 0.0
H994 H 0.3375 0.63955 0.5685 0.0
H995 H 0.29216 0.63887 0.57098 0.0
C996 C 0.36944 0.65962 0.6156 0.0
C997 C 0.34336 0.66585 0.60706 0.0
C998 C 0.36243 0.64992 0.62187 0.0
C999 C 0.32932 0.64628 0.61953 0.0
C1000 C 0.30278 0.65264 0.61296 0.0
H1001 H 0.28956 0.58424 0.65066 0.0
H1002 H 0.27736 0.60139 0.64094 0.0
C1003 C 0.30971 0.66239 0.6069 0.0
C1004 C 0.32362 0.63566 0.62139 0.0
H1005 H 0.31623 0.61524 0.5835 0.0
C1006 C 0.32688 0.63112 0.6458 0.0
C1007 C 0.3189 0.62992 0.59869 0.0
C1008 C 0.31588 0.63451 0.57198 0.0
C1009 C 0.32652 0.62092 0.648 0.0
C1010 C 0.32295 0.61518 0.6252 0.0
C1011 C 0.31866 0.61971 0.60089 0.0
C1012 C 0.32763 0.60451 0.62617 0.0
C1013 C 0.33162 0.6163 0.67448 0.0
C1014 C 0.3594 0.60056 0.61989 0.0
C1015 C 0.36654 0.59081 0.62549 0.0
C1016 C 0.34188 0.58485 0.63734 0.0
C1017 C 0.30907 0.58863 0.64146 0.0
C1018 C 0.30207 0.59843 0.63606 0.0
H1019 H 0.33548 0.6218 0.69014 0.0
H1020 H 0.3091 0.61181 0.67952 0.0
H1021 H 0.35399 0.61137 0.67398 0.0
H1022 H 0.37937 0.60517 0.61218 0.0
H1023 H 0.39199 0.58811 0.62199 0.0
H1024 H 0.52873 0.28916 0.38768 0.0
H1025 H 0.47193 0.28536 0.37057 0.0
H1026 H 0.42831 0.30677 0.42243 0.0
H1027 H 0.48428 0.31041 0.43991 0.0
H1028 H 0.38949 0.29015 0.41942 0.0
H1029 H 0.42388 0.30379 0.32026 0.0
H1030 H 0.44873 0.29387 0.3329 0.0
H1031 H 0.45101 0.30564 0.34821 0.0
C1032 C 0.50694 0.29296 0.3956 0.0
C1033 C 0.51107 0.30016 0.41496 0.0
C1034 C 0.47455 0.29082 0.38573 0.0
C1035 C 0.44594 0.29589 0.39495 0.0
C1036 C 0.44998 0.30277 0.415 0.0
H1037 H 0.26765 0.31906 0.33573 0.0
H1038 H 0.32364 0.31393 0.35023 0.0
C1039 C 0.48211 0.30487 0.4249 0.0
C1040 C 0.41187 0.29467 0.38298 0.0
H1041 H 0.36671 0.30029 0.32806 0.0
C1042 C 0.38448 0.29218 0.39929 0.0
C1043 C 0.40546 0.29736 0.35674 0.0
C1044 C 0.43368 0.30038 0.33846 0.0
C1045 C 0.35074 0.29291 0.39057 0.0
C1046 C 0.34432 0.29603 0.36468 0.0
C1047 C 0.37178 0.29789 0.34789 0.0
C1048 C 0.30979 0.29879 0.35578 0.0
C1049 C 0.32225 0.29099 0.40962 0.0
C1050 C 0.28322 0.29198 0.35409 0.0
C1051 C 0.25079 0.29493 0.34593 0.0
C1052 C 0.24463 0.30472 0.33915 0.0
C1053 C 0.27144 0.31147 0.34077 0.0
C1054 C 0.30357 0.30854 0.34899 0.0
H1055 H 0.3316 0.29009 0.42997 0.0
H1056 H 0.30357 0.29705 0.40923 0.0
H1057 H 0.30881 0.2842 0.40391 0.0
H1058 H 0.28759 0.28439 0.35889 0.0
H1059 H 0.2307 0.28956 0.34471 0.0
H1060 H 0.98119 0.93608 0.31936 0.0
H1061 H 0.92515 0.94158 0.33255 0.0
H1062 H 0.96816 0.96823 0.36276 0.0
H1063 H 0.02511 0.96268 0.3497 0.0
H1064 H 0.92419 0.95937 0.39736 0.0
H1065 H 0.86293 0.96194 0.30075 0.0
H1066 H 0.88397 0.95042 0.30421 0.0
H1067 H 0.90852 0.96152 0.3046 0.0
C1068 C 0.9789 0.94316 0.32861 0.0
C1069 C 0.00768 0.94895 0.33345 0.0
C1070 C 0.94669 0.94634 0.33591 0.0
C1071 C 0.94232 0.95542 0.34806 0.0
C1072 C 0.97094 0.96125 0.35306 0.0
H1073 H 0.72418 0.96329 0.38241 0.0
H1074 H 0.78131 0.96835 0.36841 0.0
C1075 C 0.00341 0.95807 0.34565 0.0
C1076 C 0.908 0.95825 0.35724 0.0
H1077 H 0.8253 0.95808 0.33735 0.0
C1078 C 0.90261 0.95937 0.38418 0.0
C1079 C 0.87984 0.95849 0.34005 0.0
C1080 C 0.88417 0.95814 0.31076 0.0
C1081 C 0.86963 0.95972 0.39455 0.0
C1082 C 0.84146 0.95875 0.37756 0.0
C1083 C 0.84687 0.95864 0.35045 0.0
C1084 C 0.80708 0.95636 0.38752 0.0
C1085 C 0.86531 0.96071 0.42373 0.0
C1086 C 0.80263 0.94791 0.40256 0.0
C1087 C 0.77031 0.945 0.41039 0.0
C1088 C 0.74152 0.95044 0.40323 0.0
C1089 C 0.74588 0.95896 0.38828 0.0
C1090 C 0.77846 0.96187 0.38033 0.0
H1091 H 0.88653 0.96496 0.4324 0.0
H1092 H 0.84094 0.96433 0.42876 0.0
H1093 H 0.86562 0.95335 0.43276 0.0
H1094 H 0.82416 0.94338 0.40769 0.0
H1095 H 0.76794 0.93839 0.42183 0.0
H1096 H 0.52666 0.96364 0.85343 0.0
H1097 H 0.47021 0.96785 0.87058 0.0
H1098 H 0.4261 0.94444 0.82562 0.0
H1099 H 0.48163 0.9404 0.80804 0.0
H1100 H 0.38704 0.96083 0.82413 0.0
H1101 H 0.42327 0.95176 0.92659 0.0
H1102 H 0.44737 0.96119 0.91073 0.0
H1103 H 0.45023 0.94884 0.8992 0.0
C1104 C 0.50483 0.95946 0.84708 0.0
C1105 C 0.50868 0.95163 0.82955 0.0
C1106 C 0.47265 0.96185 0.85697 0.0
C1107 C 0.44399 0.95637 0.84967 0.0
C1108 C 0.44779 0.94878 0.83154 0.0
H1109 H 0.26854 0.9347 0.91622 0.0
H1110 H 0.32431 0.93985 0.90132 0.0
C1111 C 0.47968 0.94645 0.82157 0.0
C1112 C 0.41006 0.95802 0.86153 0.0
H1113 H 0.36581 0.9546 0.91819 0.0
C1114 C 0.38236 0.95966 0.8448 0.0
C1115 C 0.4041 0.95646 0.8885 0.0
C1116 C 0.43268 0.9544 0.90737 0.0
C1117 C 0.34876 0.95911 0.85391 0.0
C1118 C 0.34279 0.9571 0.88064 0.0
C1119 C 0.37053 0.95615 0.89771 0.0
C1120 C 0.30857 0.95443 0.8905 0.0
C1121 C 0.32003 0.95998 0.83452 0.0
C1122 C 0.28103 0.96093 0.88955 0.0
C1123 C 0.24871 0.95795 0.89789 0.0
C1124 C 0.24362 0.94845 0.90752 0.0
C1125 C 0.27147 0.94206 0.90889 0.0
C1126 C 0.30349 0.94501 0.90046 0.0
H1127 H 0.3292 0.95997 0.81398 0.0
H1128 H 0.30174 0.95389 0.83701 0.0
H1129 H 0.30623 0.96692 0.83797 0.0
H1130 H 0.28449 0.96829 0.88232 0.0
H1131 H 0.22778 0.96306 0.89677 0.0
H1132 H 0.76976 0.31479 0.82637 0.0
H1133 H 0.82562 0.31005 0.84197 0.0
H1134 H 0.78257 0.28476 0.87958 0.0
H1135 H 0.7258 0.28954 0.86403 0.0
H1136 H 0.82585 0.29539 0.91181 0.0
H1137 H 0.88848 0.28837 0.81722 0.0
H1138 H 0.86704 0.2999 0.81684 0.0
H1139 H 0.84284 0.28884 0.82065 0.0
C1140 C 0.77201 0.30817 0.83779 0.0
C1141 C 0.74327 0.30253 0.84393 0.0
C1142 C 0.80412 0.30542 0.84649 0.0
C1143 C 0.80841 0.29694 0.86142 0.0
C1144 C 0.77983 0.29127 0.86777 0.0
H1145 H 0.02559 0.28969 0.89975 0.0
H1146 H 0.9681 0.28447 0.88721 0.0
C1147 C 0.74747 0.29401 0.85892 0.0
C1148 C 0.8426 0.29458 0.87178 0.0
H1149 H 0.92556 0.29363 0.85268 0.0
C1150 C 0.84761 0.29474 0.89893 0.0
C1151 C 0.87097 0.29351 0.85503 0.0
C1152 C 0.86701 0.29253 0.82582 0.0
C1153 C 0.88044 0.29479 0.90961 0.0
C1154 C 0.90887 0.29486 0.89267 0.0
C1155 C 0.9038 0.29375 0.86568 0.0
C1156 C 0.94336 0.29742 0.9021 0.0
C1157 C 0.88435 0.29516 0.93893 0.0
C1158 C 0.94852 0.30645 0.91434 0.0
C1159 C 0.98108 0.30945 0.92135 0.0
C1160 C 0.00939 0.30352 0.91614 0.0
C1161 C 0.00427 0.29441 0.90409 0.0
C1162 C 0.97149 0.29142 0.89696 0.0
H1163 H 0.8627 0.29149 0.94881 0.0
H1164 H 0.90837 0.29166 0.94534 0.0
H1165 H 0.88458 0.30289 0.94538 0.0
H1166 H 0.92739 0.31134 0.91782 0.0
H1167 H 0.98405 0.31652 0.93053 0.0
H1168 H 0.77358 0.70958 0.63635 0.0
H1169 H 0.71632 0.71446 0.62215 0.0
H1170 H 0.67634 0.68717 0.6506 0.0
H1171 H 0.73274 0.68229 0.66477 0.0
H1172 H 0.67374 0.70467 0.5863 0.0
H1173 H 0.61193 0.70731 0.68296 0.0
H1174 H 0.65754 0.70749 0.67898 0.0
H1175 H 0.63487 0.69608 0.67952 0.0
C1176 C 0.75249 0.70467 0.63969 0.0
C1177 C 0.75771 0.69556 0.65172 0.0
C1178 C 0.71986 0.70747 0.63163 0.0
C1179 C 0.692 0.70126 0.63584 0.0
C1180 C 0.6973 0.69218 0.64776 0.0
H1181 H 0.51566 0.68376 0.56348 0.0
H1182 H 0.5724 0.68853 0.57713 0.0
C1183 C 0.7297 0.68937 0.65564 0.0
C1184 C 0.65751 0.70379 0.62645 0.0
H1185 H 0.57479 0.70362 0.64633 0.0
C1186 C 0.65213 0.7047 0.59945 0.0
C1187 C 0.62935 0.70403 0.64362 0.0
C1188 C 0.63373 0.70378 0.67291 0.0
C1189 C 0.61914 0.70494 0.58906 0.0
C1190 C 0.59097 0.7041 0.60611 0.0
C1191 C 0.59638 0.70411 0.63322 0.0
C1192 C 0.55644 0.70184 0.59626 0.0
C1193 C 0.61479 0.70569 0.55984 0.0
C1194 C 0.52834 0.70765 0.60291 0.0
C1195 C 0.49552 0.7049 0.59518 0.0
C1196 C 0.49037 0.69622 0.58103 0.0
C1197 C 0.51866 0.69049 0.57433 0.0
C1198 C 0.55125 0.69326 0.5819 0.0
H1199 H 0.63633 0.70969 0.55079 0.0
H1200 H 0.61429 0.69825 0.55131 0.0
H1201 H 0.59072 0.70944 0.55466 0.0
H1202 H 0.53177 0.71424 0.61429 0.0
H1203 H 0.47422 0.70944 0.6007 0.0
H1204 H 0.01368 0.06985 0.66599 0.0
H1205 H 0.0704 0.0654 0.65142 0.0
H1206 H 0.03331 0.03739 0.62584 0.0
H1207 H 0.97578 0.04185 0.64027 0.0
H1208 H 0.11172 0.04943 0.66668 0.0
H1209 H 0.08053 0.049 0.56039 0.0
H1210 H 0.05268 0.0545 0.58422 0.0
H1211 H 0.05547 0.04148 0.5818 0.0
C1212 C 0.01741 0.06273 0.65728 0.0
C1213 C 0.9901 0.05622 0.65414 0.0
C1214 C 0.04996 0.06018 0.64906 0.0
C1215 C 0.05605 0.0511 0.63742 0.0
C1216 C 0.02905 0.04449 0.63453 0.0
H1217 H 0.27428 0.0415 0.60119 0.0
H1218 H 0.21654 0.03731 0.61571 0.0
C1219 C 0.99625 0.04703 0.64283 0.0
C1220 C 0.09075 0.04887 0.62787 0.0
H1221 H 0.13794 0.04789 0.57195 0.0
C1222 C 0.11752 0.04888 0.646 0.0
C1223 C 0.0981 0.04819 0.60088 0.0
C1224 C 0.07033 0.04834 0.58056 0.0
C1225 C 0.15156 0.0488 0.6378 0.0
C1226 C 0.15892 0.04859 0.61074 0.0
C1227 C 0.13214 0.048 0.59268 0.0
C1228 C 0.19363 0.05053 0.60075 0.0
C1229 C 0.1793 0.04963 0.65803 0.0
C1230 C 0.19967 0.05921 0.58707 0.0
C1231 C 0.23234 0.0616 0.57878 0.0
C1232 C 0.25981 0.05534 0.5839 0.0
C1233 C 0.25367 0.0465 0.59707 0.0
C1234 C 0.22076 0.04411 0.60544 0.0
H1235 H 0.16908 0.05098 0.67794 0.0
H1236 H 0.19411 0.04274 0.6585 0.0
H1237 H 0.19701 0.05563 0.6529 0.0
H1238 H 0.17913 0.06428 0.58328 0.0
H1239 H 0.23606 0.06844 0.56859 0.0
H1240 H 0.47789 0.0404 0.13897 0.0
H1241 H 0.53474 0.03533 0.12432 0.0
H1242 H 0.57701 0.06184 0.15592 0.0
H1243 H 0.52102 0.06689 0.1706 0.0
H1244 H 0.57727 0.04521 0.08953 0.0
H1245 H 0.64092 0.04109 0.18499 0.0
H1246 H 0.59523 0.04127 0.18168 0.0
H1247 H 0.61888 0.05251 0.18303 0.0
C1248 C 0.49941 0.04508 0.14297 0.0
C1249 C 0.49494 0.05404 0.15597 0.0
C1250 C 0.53181 0.04218 0.13464 0.0
C1251 C 0.56019 0.04811 0.13954 0.0
C1252 C 0.55566 0.05702 0.15254 0.0
H1253 H 0.73442 0.06627 0.06617 0.0
H1254 H 0.67816 0.06133 0.08049 0.0
C1255 C 0.52348 0.05994 0.16071 0.0
C1256 C 0.59437 0.04556 0.12952 0.0
H1257 H 0.67752 0.04533 0.14829 0.0
C1258 C 0.59915 0.04497 0.10239 0.0
C1259 C 0.6229 0.04504 0.14629 0.0
C1260 C 0.61919 0.0449 0.17563 0.0
C1261 C 0.63189 0.0448 0.09155 0.0
C1262 C 0.66044 0.04539 0.10828 0.0
C1263 C 0.65564 0.04504 0.13544 0.0
C1264 C 0.69472 0.0478 0.09815 0.0
C1265 C 0.63557 0.0444 0.06222 0.0
C1266 C 0.72304 0.04194 0.10384 0.0
C1267 C 0.75561 0.04479 0.09573 0.0
C1268 C 0.76029 0.05362 0.08217 0.0
C1269 C 0.73179 0.05942 0.07652 0.0
C1270 C 0.69946 0.05655 0.08447 0.0
H1271 H 0.61385 0.0405 0.05314 0.0
H1272 H 0.63581 0.05194 0.05433 0.0
H1273 H 0.65954 0.04073 0.05638 0.0
H1274 H 0.71997 0.03521 0.11469 0.0
H1275 H 0.77709 0.04019 0.10044 0.0
H1276 H 0.97436 0.71015 0.09614 0.0
H1277 H 0.03181 0.71489 0.11005 0.0
H1278 H 0.07191 0.68846 0.07635 0.0
H1279 H 0.01527 0.68376 0.0623 0.0
H1280 H 0.0735 0.70483 0.14378 0.0
H1281 H 0.13765 0.70875 0.04847 0.0
H1282 H 0.09195 0.70866 0.05163 0.0
H1283 H 0.11532 0.69737 0.05031 0.0
C1284 C 0.99553 0.70543 0.09144 0.0
C1285 C 0.99024 0.69658 0.0781 0.0
C1286 C 0.0283 0.70815 0.09936 0.0
C1287 C 0.05625 0.70213 0.09375 0.0
C1288 C 0.05093 0.69336 0.08026 0.0
H1289 H 0.23088 0.68387 0.16831 0.0
H1290 H 0.17479 0.68845 0.15275 0.0
C1291 C 0.01838 0.69063 0.07246 0.0
C1292 C 0.09069 0.70441 0.10381 0.0
H1293 H 0.17397 0.70437 0.08523 0.0
C1294 C 0.09542 0.70498 0.13095 0.0
C1295 C 0.11932 0.70481 0.0871 0.0
C1296 C 0.11577 0.70497 0.05775 0.0
C1297 C 0.12813 0.70506 0.14186 0.0
C1298 C 0.15672 0.70441 0.1252 0.0
C1299 C 0.15203 0.70472 0.09802 0.0
C1300 C 0.19098 0.70209 0.1355 0.0
C1301 C 0.13173 0.70547 0.1712 0.0
C1302 C 0.21904 0.70813 0.1304 0.0
C1303 C 0.25149 0.70549 0.13926 0.0
C1304 C 0.25633 0.69671 0.15299 0.0
C1305 C 0.22812 0.6907 0.15787 0.0
C1306 C 0.19589 0.69335 0.14918 0.0
H1307 H 0.10981 0.70928 0.1803 0.0
H1308 H 0.13239 0.69793 0.17907 0.0
H1309 H 0.1555 0.70925 0.17704 0.0
H1310 H 0.21582 0.71486 0.11958 0.0
H1311 H 0.27275 0.71026 0.13513 0.0
H1312 H 0.48932 0.80318 0.95368 0.0
H1313 H 0.43088 0.80055 0.9396 0.0
H1314 H 0.46629 0.79295 0.8624 0.0
H1315 H 0.52517 0.7952 0.87682 0.0
H1316 H 0.40164 0.81145 0.90447 0.0
H1317 H 0.39219 0.77307 0.8717 0.0
H1318 H 0.42733 0.77749 0.89105 0.0
H1319 H 0.42652 0.77945 0.85626 0.0
C1320 C 0.4847 0.80073 0.93386 0.0
C1321 C 0.51173 0.79944 0.91628 0.0
C1322 C 0.45128 0.79922 0.92584 0.0
C1323 C 0.44407 0.7965 0.89997 0.0
C1324 C 0.47116 0.79482 0.88262 0.0
H1325 H 0.26893 0.81457 0.81475 0.0
H1326 H 0.32506 0.81108 0.83234 0.0
C1327 C 0.5048 0.79617 0.89081 0.0
C1328 C 0.40839 0.79673 0.89055 0.0
H1329 H 0.34777 0.78388 0.8573 0.0
C1330 C 0.38982 0.80535 0.89447 0.0
C1331 C 0.39274 0.78877 0.87765 0.0
C1332 C 0.41061 0.77914 0.87415 0.0
C1333 C 0.35651 0.80634 0.8853 0.0
C1334 C 0.34152 0.7986 0.87118 0.0
C1335 C 0.35951 0.78984 0.86791 0.0
C1336 C 0.30786 0.79978 0.85868 0.0
C1337 C 0.3377 0.81572 0.89072 0.0
C1338 C 0.27972 0.79428 0.86692 0.0
C1339 C 0.24735 0.79623 0.85673 0.0
C1340 C 0.24283 0.8037 0.83821 0.0
C1341 C 0.27141 0.80886 0.82926 0.0
C1342 C 0.30357 0.80688 0.83928 0.0
H1343 H 0.34869 0.81969 0.90766 0.0
H1344 H 0.33956 0.82055 0.87336 0.0
H1345 H 0.31041 0.81432 0.89467 0.0
H1346 H 0.28262 0.78873 0.88183 0.0
H1347 H 0.22583 0.7921 0.86389 0.0
H1348 H 0.76331 0.44284 0.94055 0.0
H1349 H 0.8221 0.44579 0.92796 0.0
H1350 H 0.78839 0.45753 0.85408 0.0
H1351 H 0.72904 0.45503 0.86737 0.0
H1352 H 0.85082 0.43657 0.89006 0.0
H1353 H 0.86427 0.4761 0.87035 0.0
H1354 H 0.8282 0.47109 0.88753 0.0
H1355 H 0.82997 0.47069 0.85238 0.0
C1356 C 0.76843 0.44626 0.92185 0.0
C1357 C 0.74178 0.44866 0.90481 0.0
C1358 C 0.80203 0.44796 0.91468 0.0
C1359 C 0.80982 0.45191 0.89009 0.0
C1360 C 0.7831 0.45468 0.87338 0.0
H1361 H 0.98901 0.43601 0.80601 0.0
H1362 H 0.93176 0.43938 0.82157 0.0
C1363 C 0.74923 0.45318 0.88087 0.0
C1364 C 0.84565 0.45186 0.88098 0.0
H1365 H 0.90857 0.46573 0.85371 0.0
C1366 C 0.86345 0.443 0.88242 0.0
C1367 C 0.86236 0.46024 0.87116 0.0
C1368 C 0.84533 0.47009 0.87049 0.0
C1369 C 0.89711 0.44223 0.87396 0.0
C1370 C 0.91325 0.45046 0.86287 0.0
C1371 C 0.89594 0.45941 0.86196 0.0
C1372 C 0.94758 0.44965 0.85128 0.0
C1373 C 0.91512 0.43257 0.87708 0.0
C1374 C 0.97536 0.45469 0.86199 0.0
C1375 C 0.00834 0.45285 0.85287 0.0
C1376 C 0.01381 0.4459 0.83309 0.0
C1377 C 0.98569 0.44128 0.8216 0.0
C1378 C 0.95293 0.44319 0.83044 0.0
H1379 H 0.90317 0.42803 0.89253 0.0
H1380 H 0.91365 0.42847 0.85841 0.0
H1381 H 0.94231 0.43364 0.88206 0.0
H1382 H 0.97166 0.45974 0.87802 0.0
H1383 H 0.02957 0.45655 0.86197 0.0
H1384 H 0.52386 0.45719 0.36527 0.0
H1385 H 0.46576 0.45901 0.3822 0.0
H1386 H 0.42585 0.44787 0.30961 0.0
H1387 H 0.48344 0.44581 0.29292 0.0
H1388 H 0.40375 0.46836 0.36475 0.0
H1389 H 0.39514 0.42796 0.36498 0.0
H1390 H 0.4348 0.43434 0.36068 0.0
H1391 H 0.40589 0.43301 0.33369 0.0
C1392 C 0.50263 0.4553 0.35281 0.0
C1393 C 0.50813 0.4512 0.32798 0.0
C1394 C 0.46951 0.45635 0.36246 0.0
C1395 C 0.44161 0.45339 0.34731 0.0
C1396 C 0.44707 0.45002 0.32178 0.0
H1397 H 0.22354 0.45716 0.37707 0.0
H1398 H 0.28155 0.46064 0.36204 0.0
C1399 C 0.48 0.44886 0.31229 0.0
C1400 C 0.40715 0.45285 0.35883 0.0
H1401 H 0.3444 0.43661 0.37346 0.0
C1402 C 0.39072 0.46143 0.36681 0.0
C1403 C 0.39049 0.44377 0.36183 0.0
C1404 C 0.40756 0.43423 0.35509 0.0
C1405 C 0.35767 0.46118 0.37731 0.0
C1406 C 0.34063 0.45212 0.37943 0.0
C1407 C 0.35736 0.44356 0.3717 0.0
C1408 C 0.30581 0.45114 0.39026 0.0
C1409 C 0.3416 0.47056 0.38645 0.0
C1410 C 0.30013 0.44466 0.41103 0.0
C1411 C 0.2672 0.44252 0.41917 0.0
C1412 C 0.23914 0.44688 0.40692 0.0
C1413 C 0.24474 0.45373 0.38691 0.0
C1414 C 0.27788 0.45577 0.37846 0.0
H1415 H 0.36094 0.4763 0.3901 0.0
H1416 H 0.32408 0.47327 0.3711 0.0
H1417 H 0.32672 0.4694 0.40462 0.0
H1418 H 0.32124 0.44101 0.42046 0.0
H1419 H 0.26372 0.43729 0.43483 0.0
H1420 H 0.72949 0.79404 0.37372 0.0
H1421 H 0.78707 0.79131 0.391 0.0
H1422 H 0.82842 0.80941 0.32983 0.0
H1423 H 0.7715 0.81234 0.31298 0.0
H1424 H 0.84987 0.78421 0.36858 0.0
H1425 H 0.85746 0.8231 0.39761 0.0
H1426 H 0.81801 0.81733 0.3885 0.0
H1427 H 0.84711 0.82147 0.36374 0.0
C1428 C 0.75095 0.79735 0.36389 0.0
C1429 C 0.74599 0.80354 0.34232 0.0
C1430 C 0.78376 0.79577 0.37371 0.0
C1431 C 0.81185 0.80031 0.36196 0.0
C1432 C 0.807 0.806 0.33951 0.0
H1433 H 0.02979 0.79461 0.37929 0.0
H1434 H 0.9703 0.79204 0.36667 0.0
C1435 C 0.77442 0.80767 0.32992 0.0
C1436 C 0.84608 0.79975 0.37385 0.0
H1437 H 0.90926 0.81421 0.39769 0.0
C1438 C 0.86284 0.79073 0.37525 0.0
C1439 C 0.86269 0.80825 0.38286 0.0
C1440 C 0.84529 0.81807 0.38338 0.0
C1441 C 0.89635 0.79006 0.38469 0.0
C1442 C 0.91352 0.79866 0.39243 0.0
C1443 C 0.89626 0.80761 0.39163 0.0
C1444 C 0.94936 0.79874 0.40149 0.0
C1445 C 0.91284 0.78016 0.38649 0.0
C1446 C 0.95745 0.80333 0.42521 0.0
C1447 C 0.99119 0.80501 0.43204 0.0
C1448 C 0.01767 0.80203 0.41549 0.0
C1449 C 0.00981 0.79693 0.39245 0.0
C1450 C 0.97584 0.79539 0.38534 0.0
H1451 H 0.89358 0.77425 0.38764 0.0
H1452 H 0.92837 0.7789 0.3687 0.0
H1453 H 0.92973 0.77966 0.40381 0.0
H1454 H 0.93753 0.80596 0.43801 0.0
H1455 H 0.99653 0.80888 0.45004 0.0
H1456 H 0.73718 0.18872 0.19531 0.0
H1457 H 0.67957 0.19146 0.17939 0.0
H1458 H 0.71886 0.20874 0.11575 0.0
H1459 H 0.77691 0.20627 0.1322 0.0
H1460 H 0.65655 0.21584 0.13571 0.0
H1461 H 0.6505 0.1762 0.11489 0.0
H1462 H 0.65969 0.17881 0.14851 0.0
H1463 H 0.68954 0.18227 0.12351 0.0
C1464 C 0.73356 0.19323 0.17814 0.0
C1465 C 0.76153 0.19716 0.16473 0.0
C1466 C 0.70062 0.19477 0.16905 0.0
C1467 C 0.69502 0.20008 0.14602 0.0
C1468 C 0.72269 0.20455 0.13347 0.0
H1469 H 0.51717 0.1888 0.05268 0.0
H1470 H 0.57481 0.1919 0.06786 0.0
C1471 C 0.75578 0.20314 0.14285 0.0
C1472 C 0.66073 0.20019 0.13403 0.0
H1473 H 0.59894 0.18498 0.1113 0.0
C1474 C 0.64393 0.20911 0.13019 0.0
C1475 C 0.64459 0.19142 0.12642 0.0
C1476 C 0.66212 0.18164 0.12827 0.0
C1477 C 0.61103 0.20946 0.11944 0.0
C1478 C 0.59439 0.20063 0.11288 0.0
C1479 C 0.61153 0.19175 0.11644 0.0
C1480 C 0.55951 0.20025 0.10181 0.0
C1481 C 0.59472 0.21925 0.11478 0.0
C1482 C 0.53157 0.20414 0.11541 0.0
C1483 C 0.49839 0.20251 0.10642 0.0
C1484 C 0.49275 0.19677 0.08409 0.0
C1485 C 0.52076 0.19318 0.07009 0.0
C1486 C 0.55373 0.19496 0.07874 0.0
H1487 H 0.61401 0.22515 0.11342 0.0
H1488 H 0.57939 0.21923 0.09657 0.0
H1489 H 0.57766 0.22099 0.1314 0.0
H1490 H 0.53525 0.20806 0.13357 0.0
H1491 H 0.4772 0.2053 0.11764 0.0
H1492 H 0.27627 0.54148 0.09942 0.0
H1493 H 0.21907 0.53682 0.11413 0.0
H1494 H 0.17802 0.56271 0.07816 0.0
H1495 H 0.23441 0.56732 0.06331 0.0
H1496 H 0.17781 0.54724 0.14722 0.0
H1497 H 0.11209 0.54201 0.05304 0.0
H1498 H 0.15784 0.54221 0.05569 0.0
H1499 H 0.1342 0.55344 0.05355 0.0
C1500 C 0.25493 0.54609 0.09437 0.0
C1501 C 0.25989 0.55477 0.08019 0.0
C1502 C 0.22231 0.54342 0.10276 0.0
C1503 C 0.19417 0.54932 0.0968 0.0
C1504 C 0.19915 0.5579 0.0824 0.0
H1505 H 0.02014 0.5681 0.17192 0.0
H1506 H 0.0762 0.56344 0.15644 0.0
C1507 C 0.23156 0.56058 0.07413 0.0
C1508 C 0.15992 0.54713 0.10741 0.0
H1509 H 0.07633 0.54682 0.08974 0.0
C1510 C 0.15566 0.5469 0.13464 0.0
C1511 C 0.13101 0.54648 0.09107 0.0
C1512 C 0.13405 0.54594 0.06171 0.0
C1513 C 0.12316 0.5469 0.14591 0.0
C1514 C 0.09425 0.54732 0.12951 0.0
C1515 C 0.09849 0.54667 0.10233 0.0
C1516 C 0.06008 0.54966 0.13996 0.0
C1517 C 0.1201 0.54683 0.1753 0.0
C1518 C 0.03204 0.54357 0.1353 0.0
C1519 C 0.9996 0.54625 0.14409 0.0
C1520 C 0.99473 0.55513 0.15734 0.0
C1521 C 0.02293 0.56119 0.16187 0.0
C1522 C 0.05515 0.5585 0.15323 0.0
H1523 H 0.14218 0.54311 0.18445 0.0
H1524 H 0.11965 0.55445 0.18257 0.0
H1525 H 0.09643 0.54313 0.18173 0.0
H1526 H 0.03525 0.53677 0.12481 0.0
H1527 H 0.97835 0.54144 0.14022 0.0
H1528 H 0.74001 0.56814 0.57255 0.0
H1529 H 0.68316 0.5635 0.58634 0.0
H1530 H 0.72159 0.5362 0.61593 0.0
H1531 H 0.77928 0.54085 0.60222 0.0
H1532 H 0.64336 0.54677 0.57258 0.0
H1533 H 0.67217 0.54902 0.67916 0.0
H1534 H 0.69999 0.55428 0.65491 0.0
H1535 H 0.69834 0.5413 0.65907 0.0
C1536 C 0.73655 0.56113 0.58195 0.0
C1537 C 0.76427 0.55489 0.58647 0.0
C1538 C 0.70393 0.55847 0.5897 0.0
C1539 C 0.69818 0.54954 0.60226 0.0
C1540 C 0.72559 0.54317 0.60646 0.0
H1541 H 0.47969 0.54086 0.64042 0.0
H1542 H 0.53711 0.53613 0.62623 0.0
C1543 C 0.75846 0.54583 0.5986 0.0
C1544 C 0.66345 0.54731 0.61167 0.0
H1545 H 0.61503 0.54784 0.66699 0.0
C1546 C 0.6371 0.54675 0.59323 0.0
C1547 C 0.65551 0.54732 0.63862 0.0
C1548 C 0.68283 0.54805 0.65921 0.0
C1549 C 0.60289 0.54686 0.60099 0.0
C1550 C 0.59496 0.54746 0.62789 0.0
C1551 C 0.6213 0.54735 0.64638 0.0
C1552 C 0.56024 0.54988 0.63697 0.0
C1553 C 0.57551 0.54706 0.58037 0.0
C1554 C 0.55442 0.5591 0.64788 0.0
C1555 C 0.52197 0.5618 0.6559 0.0
C1556 C 0.49449 0.55533 0.6533 0.0
C1557 C 0.50033 0.54602 0.64257 0.0
C1558 C 0.53304 0.54332 0.63444 0.0
H1559 H 0.58612 0.54745 0.56026 0.0
H1560 H 0.55979 0.54037 0.58193 0.0
H1561 H 0.55856 0.55343 0.58346 0.0
H1562 H 0.57505 0.56428 0.64992 0.0
H1563 H 0.51849 0.56901 0.66414 0.0
H1564 H 0.97522 0.20972 0.60302 0.0
H1565 H 0.0327 0.21482 0.61614 0.0
H1566 H 0.07197 0.18691 0.59177 0.0
H1567 H 0.01534 0.1818 0.57874 0.0
H1568 H 0.0764 0.20552 0.65312 0.0
H1569 H 0.13518 0.20655 0.55507 0.0
H1570 H 0.08973 0.20694 0.55993 0.0
H1571 H 0.11194 0.19547 0.56034 0.0
C1572 C 0.99618 0.2047 0.60041 0.0
C1573 C 0.99071 0.19536 0.58979 0.0
C1574 C 0.02894 0.20763 0.60784 0.0
C1575 C 0.05665 0.20131 0.60437 0.0
C1576 C 0.05109 0.19199 0.59401 0.0
H1577 H 0.23423 0.18449 0.67462 0.0
H1578 H 0.17739 0.18917 0.66104 0.0
C1579 C 0.01856 0.18905 0.58678 0.0
C1580 C 0.09136 0.20403 0.61281 0.0
H1581 H 0.17342 0.20351 0.59141 0.0
C1582 C 0.09759 0.20535 0.63958 0.0
C1583 C 0.11896 0.204 0.5951 0.0
C1584 C 0.11361 0.20327 0.56597 0.0
C1585 C 0.13091 0.20571 0.6493 0.0
C1586 C 0.1585 0.2046 0.63182 0.0
C1587 C 0.15225 0.20423 0.60485 0.0
C1588 C 0.1932 0.20237 0.64128 0.0
C1589 C 0.13625 0.20684 0.67834 0.0
C1590 C 0.22124 0.20813 0.63418 0.0
C1591 C 0.25412 0.20544 0.64191 0.0
C1592 C 0.25937 0.19686 0.65646 0.0
C1593 C 0.23116 0.19115 0.66344 0.0
C1594 C 0.19851 0.19386 0.65592 0.0
H1595 H 0.11493 0.21091 0.68748 0.0
H1596 H 0.13728 0.19951 0.68751 0.0
H1597 H 0.16039 0.2107 0.68265 0.0
H1598 H 0.21768 0.21466 0.62257 0.0
H1599 H 0.27537 0.20997 0.63619 0.0
H1600 H 0.90308 0.22458 0.18956 0.0
H1601 H 0.92385 0.23964 0.20968 0.0
H1602 H 0.02592 0.22828 0.2088 0.0
H1603 H 0.00547 0.21321 0.18882 0.0
H1604 H 0.0021 0.23432 0.25882 0.0
H1605 H 0.98167 0.26281 0.18314 0.0
H1606 H 0.94585 0.25505 0.18959 0.0
H1607 H 0.98361 0.24997 0.17537 0.0
C1608 C 0.93008 0.2254 0.19293 0.0
C1609 C 0.95259 0.21768 0.18767 0.0
C1610 C 0.94191 0.23401 0.20446 0.0
C1611 C 0.97641 0.23506 0.21073 0.0
C1612 C 0.99918 0.2276 0.20414 0.0
H1613 H 0.09765 0.27673 0.29757 0.0
H1614 H 0.07515 0.26198 0.27703 0.0
C1615 C 0.98743 0.21901 0.1926 0.0
C1616 C 0.98832 0.2435 0.22634 0.0
H1617 H 0.99728 0.26824 0.2254 0.0
C1618 C 1.00119 0.24174 0.25151 0.0
C1619 C 0.98679 0.25315 0.21681 0.0
C1620 C 0.974 0.2554 0.18967 0.0
C1621 C 0.01229 0.24941 0.26756 0.0
C1622 C 0.01111 0.25908 0.25794 0.0
C1623 C 0.99808 0.26083 0.23278 0.0
C1624 C 0.02385 0.2675 0.27331 0.0
C1625 C 0.02451 0.24711 0.29483 0.0
C1626 C 0.00248 0.27546 0.27829 0.0
C1627 C 0.01533 0.28392 0.28986 0.0
C1628 C 0.04987 0.28459 0.29662 0.0
C1629 C 0.07087 0.27642 0.29284 0.0
C1630 C 0.05801 0.26797 0.28111 0.0
H1631 H 0.01453 0.23999 0.30181 0.0
H1632 H 0.05264 0.24667 0.29479 0.0
H1633 H 0.01679 0.25288 0.30887 0.0
H1634 H 0.97604 0.27525 0.27246 0.0
H1635 H 0.99847 0.29009 0.29249 0.0
H1636 H 0.15488 0.9747 0.30276 0.0
H1637 H 0.17705 0.98954 0.28227 0.0
H1638 H 0.27627 0.97641 0.27709 0.0
H1639 H 0.2544 0.96154 0.29731 0.0
H1640 H 0.2325 0.0024 0.29391 0.0
H1641 H 0.25082 0.9825 0.20033 0.0
H1642 H 0.22585 0.97764 0.22691 0.0
H1643 H 0.27142 0.97712 0.22815 0.0
C1644 C 0.18159 0.97504 0.2978 0.0
C1645 C 0.20279 0.9669 0.30141 0.0
C1646 C 0.19417 0.98351 0.28598 0.0
C1647 C 0.22805 0.98395 0.27757 0.0
C1648 C 0.24984 0.97611 0.28289 0.0
H1649 H 0.34777 0.02641 0.19205 0.0
H1650 H 0.32581 0.0116 0.21283 0.0
C1651 C 0.23732 0.96765 0.29465 0.0
C1652 C 0.24021 0.99239 0.26208 0.0
H1653 H 0.27068 0.99879 0.2019 0.0
C1654 C 0.24075 0.00164 0.27378 0.0
C1655 C 0.25089 0.99134 0.2358 0.0
C1656 C 0.24951 0.98164 0.2219 0.0
C1657 C 0.25233 0.00985 0.26002 0.0
C1658 C 0.26298 0.0088 0.23372 0.0
C1659 C 0.26245 0.99956 0.22203 0.0
C1660 C 0.275 0.01725 0.21819 0.0
C1661 C 0.25378 0.01955 0.27395 0.0
C1662 C 0.25323 0.02512 0.21314 0.0
C1663 C 0.26564 0.03357 0.20124 0.0
C1664 C 0.30002 0.03427 0.19402 0.0
C1665 C 0.32117 0.0261 0.19736 0.0
C1666 C 0.30871 0.01765 0.20935 0.0
H1667 H 0.25281 0.01866 0.29553 0.0
H1668 H 0.27729 0.02358 0.26876 0.0
H1669 H 0.23169 0.02404 0.26795 0.0
H1670 H 0.2269 0.02485 0.21923 0.0
H1671 H 0.2486 0.0397 0.19878 0.0
H1672 H 0.00645 0.03989 0.04341 0.0
H1673 H 0.02746 0.02504 0.02255 0.0
H1674 H 0.92781 0.01219 0.02823 0.0
H1675 H 0.90637 0.02708 0.0489 0.0
H1676 H 0.02764 0.00504 0.03681 0.0
H1677 H 0.94834 0.01217 0.94897 0.0
H1678 H 0.95553 0.02125 0.97391 0.0
H1679 H 0.9255 0.0116 0.97935 0.0
C1680 C 0.98909 0.03384 0.04069 0.0
C1681 C 0.95463 0.0347 0.04759 0.0
C1682 C 1.00116 0.02537 0.0287 0.0
C1683 C 0.979 0.01763 0.02328 0.0
C1684 C 0.94514 0.01818 0.03174 0.0
H1685 H 0.99984 0.96272 0.94259 0.0
H1686 H 0.9794 0.97768 0.96317 0.0
C1687 C 0.93302 0.02666 0.0438 0.0
C1688 C 0.99105 0.00921 0.00765 0.0
H1689 H 0.97992 0.9975 0.94931 0.0
C1690 C 0.01729 0.00339 0.01766 0.0
C1691 C 0.97759 0.00713 0.9826 0.0
C1692 C 0.95039 0.0134 0.97039 0.0
C1693 C 0.02997 0.99541 0.00352 0.0
C1694 C 0.0165 0.99332 0.97847 0.0
C1695 C 0.99029 0.99915 0.96845 0.0
C1696 C 0.02832 0.98485 0.96293 0.0
C1697 C 0.05707 0.98912 0.01581 0.0
C1698 C 0.06228 0.98412 0.95478 0.0
C1699 C 0.07409 0.97557 0.94292 0.0
C1700 C 0.05206 0.96763 0.93896 0.0
C1701 C 0.01753 0.96868 0.94544 0.0
C1702 C 0.00578 0.97722 0.95728 0.0
H1703 H 0.05896 0.99033 0.03724 0.0
H1704 H 0.05193 0.98126 0.01224 0.0
H1705 H 0.08203 0.99092 0.00698 0.0
H1706 H 0.07991 0.99003 0.95842 0.0
H1707 H 0.1008 0.97501 0.93811 0.0
H1708 H 0.24585 0.21246 0.05347 0.0
H1709 H 0.22451 0.2273 0.03278 0.0
H1710 H 0.32517 0.23965 0.03431 0.0
H1711 H 0.34692 0.22477 0.05482 0.0
H1712 H 0.2267 0.24755 0.04559 0.0
H1713 H 0.29998 0.23878 0.95571 0.0
H1714 H 0.29342 0.23004 0.98161 0.0
H1715 H 0.32458 0.23952 0.98522 0.0
C1716 C 0.26338 0.21841 0.04994 0.0
C1717 C 0.29818 0.21739 0.05554 0.0
C1718 C 0.25112 0.22688 0.03804 0.0
C1719 C 0.27342 0.23445 0.03145 0.0
C1720 C 0.3077 0.23378 0.03877 0.0
H1721 H 0.25235 0.28829 0.94579 0.0
H1722 H 0.27262 0.27354 0.96746 0.0
C1723 C 0.32001 0.22531 0.05073 0.0
C1724 C 0.2611 0.24276 0.01555 0.0
H1725 H 0.26951 0.25363 0.95578 0.0
C1726 C 0.23598 0.24888 0.02595 0.0
C1727 C 0.27315 0.24442 0.98985 0.0
C1728 C 0.29906 0.23781 0.97726 0.0
C1729 C 0.22308 0.25678 0.01153 0.0
C1730 C 0.23514 0.25844 0.98583 0.0
C1731 C 0.26022 0.2523 0.97543 0.0
C1732 C 0.22308 0.26679 0.96991 0.0
C1733 C 0.19729 0.26341 0.02419 0.0
C1734 C 0.18872 0.26767 0.96298 0.0
C1735 C 0.177 0.27611 0.9505 0.0
C1736 C 0.19951 0.28377 0.9447 0.0
C1737 C 0.23429 0.28255 0.95007 0.0
C1738 C 0.24594 0.27412 0.96253 0.0
H1739 H 0.1967 0.2625 0.04577 0.0
H1740 H 0.20279 0.27117 0.01964 0.0
H1741 H 0.17167 0.26165 0.0165 0.0
H1742 H 0.1708 0.26198 0.96796 0.0
H1743 H 0.15008 0.27681 0.94657 0.0
H1744 H 0.0022 0.71166 0.69874 0.0
H1745 H 0.02264 0.72682 0.7182 0.0
H1746 H 0.92444 0.73998 0.70624 0.0
H1747 H 0.90353 0.72476 0.68697 0.0
H1748 H 0.02552 0.74638 0.70094 0.0
H1749 H 0.93907 0.74177 0.78598 0.0
H1750 H 0.94722 0.7321 0.76289 0.0
H1751 H 0.91864 0.74183 0.75457 0.0
C1752 C 0.98506 0.71782 0.6998 0.0
C1753 C 0.95111 0.71697 0.69153 0.0
C1754 C 0.9968 0.72648 0.71099 0.0
C1755 C 0.97483 0.73443 0.71422 0.0
C1756 C 0.94158 0.73384 0.70442 0.0
H1757 H 0.99676 0.79063 0.78916 0.0
H1758 H 0.97581 0.77571 0.76864 0.0
C1759 C 0.92979 0.72517 0.69318 0.0
C1760 C 0.98639 0.74312 0.72897 0.0
H1761 H 0.97234 0.75611 0.78495 0.0
C1762 C 0.01394 0.74851 0.71931 0.0
C1763 C 0.97132 0.74584 0.75302 0.0
C1764 C 0.94261 0.74005 0.76493 0.0
C1765 C 0.02649 0.75667 0.73283 0.0
C1766 C 0.01147 0.75937 0.75692 0.0
C1767 C 0.98386 0.75399 0.76655 0.0
C1768 C 0.02343 0.76795 0.77194 0.0
C1769 C 0.05522 0.76245 0.72094 0.0
C1770 C 0.05675 0.76838 0.78164 0.0
C1771 C 0.06883 0.7769 0.79347 0.0
C1772 C 0.04772 0.78513 0.79585 0.0
C1773 C 0.01374 0.78444 0.78756 0.0
C1774 C 0.00171 0.77593 0.77577 0.0
H1775 H 0.05844 0.76082 0.6998 0.0
H1776 H 0.05091 0.7704 0.72331 0.0
H1777 H 0.07927 0.76055 0.73104 0.0
H1778 H 0.07369 0.76222 0.77939 0.0
H1779 H 0.0951 0.77718 0.79969 0.0
H1780 H 0.75441 0.96157 0.79903 0.0
H1781 H 0.77739 0.97641 0.77937 0.0
H1782 H 0.67817 0.98966 0.78224 0.0
H1783 H 0.65503 0.97489 0.80219 0.0
H1784 H 0.75597 0.98346 0.73141 0.0
H1785 H 0.73931 0.01162 0.80816 0.0
H1786 H 0.73755 0.99872 0.81514 0.0
H1787 H 0.70137 0.00483 0.8013 0.0
C1788 C 0.73762 0.96773 0.79616 0.0
C1789 C 0.70284 0.96703 0.80219 0.0
C1790 C 0.75079 0.97619 0.78477 0.0
C1791 C 0.72955 0.98416 0.77938 0.0
C1792 C 0.69518 0.98367 0.7866 0.0
H1793 H 0.74666 0.03871 0.69616 0.0
H1794 H 0.7271 0.02373 0.71717 0.0
C1795 C 0.68197 0.97521 0.79801 0.0
C1796 C 0.74259 0.99258 0.76413 0.0
H1797 H 0.75171 0.01733 0.76522 0.0
C1798 C 0.75533 0.99087 0.73887 0.0
C1799 C 0.74158 0.00223 0.77385 0.0
C1800 C 0.72952 0.00448 0.80119 0.0
C1801 C 0.76632 0.99857 0.72283 0.0
C1802 C 0.76497 0.00822 0.73246 0.0
C1803 C 0.75254 0.00992 0.75781 0.0
C1804 C 0.77627 0.01671 0.71669 0.0
C1805 C 0.7784 0.99633 0.69549 0.0
C1806 C 0.81027 0.01764 0.70878 0.0
C1807 C 0.82154 0.02619 0.69656 0.0
C1808 C 0.79904 0.034 0.69228 0.0
C1809 C 0.76467 0.03284 0.69913 0.0
C1810 C 0.75345 0.0243 0.71127 0.0
H1811 H 0.76986 0.98901 0.68885 0.0
H1812 H 0.7691 0.00189 0.68141 0.0
H1813 H 0.80657 0.99643 0.69512 0.0
H1814 H 0.82845 0.01194 0.71311 0.0
H1815 H 0.84823 0.02688 0.69176 0.0
H1816 H 0.65569 0.77542 0.93423 0.0
H1817 H 0.6787 0.76073 0.9548 0.0
H1818 H 0.77946 0.77293 0.9511 0.0
H1819 H 0.75674 0.78768 0.93076 0.0
H1820 H 0.73076 0.74699 0.9421 0.0
H1821 H 0.76239 0.76896 0.03013 0.0
H1822 H 0.7352 0.77347 0.00442 0.0
H1823 H 0.78047 0.77331 5e-05 0.0
C1824 C 0.68287 0.77489 0.93714 0.0
C1825 C 0.70431 0.78278 0.93112 0.0
C1826 C 0.69595 0.7665 0.94903 0.0
C1827 C 0.73063 0.76587 0.95512 0.0
C1828 C 0.75249 0.77338 0.94713 0.0
H1829 H 0.84934 0.72357 0.04329 0.0
H1830 H 0.82939 0.73814 0.02017 0.0
C1831 C 0.73947 0.78177 0.93527 0.0
C1832 C 0.74347 0.75768 0.97128 0.0
H1833 H 0.77845 0.75236 0.03079 0.0
C1834 C 0.74117 0.74815 0.96149 0.0
C1835 C 0.75696 0.75923 -0.00338 0.0
C1836 C 0.75871 0.76928 0.00861 0.0
C1837 C 0.75244 0.74013 0.97621 0.0
C1838 C 0.7657 0.74167 0.00162 0.0
C1839 C 0.76822 0.75121 0.01134 0.0
C1840 C 0.77699 0.73344 0.01833 0.0
C1841 C 0.75056 0.73008 0.96427 0.0
C1842 C 0.75385 0.72623 0.02611 0.0
C1843 C 0.76511 0.71793 0.03939 0.0
C1844 C 0.79975 0.71671 0.04528 0.0
C1845 C 0.8225 0.72428 0.03909 0.0
C1846 C 0.81118 0.73259 0.02574 0.0
H1847 H 0.74796 0.7304 0.94266 0.0
H1848 H 0.77351 0.72574 0.96916 0.0
H1849 H 0.72807 0.7262 0.97219 0.0
H1850 H 0.7272 0.72687 0.02114 0.0
H1851 H 0.74685 0.71228 0.044 0.0
H1852 H 0.3493 0.52645 0.69087 0.0
H1853 H 0.32852 0.51132 0.71071 0.0
H1854 H 0.22962 0.52429 0.7207 0.0
H1855 H 0.24995 0.53935 0.70069 0.0
H1856 H 0.30382 0.5105 0.76214 0.0
H1857 H 0.20684 0.49728 0.69189 0.0
H1858 H 0.2388 0.50614 0.68309 0.0
H1859 H 0.20175 0.50983 0.70109 0.0
C1860 C 0.32288 0.52599 0.69661 0.0
C1861 C 0.30128 0.53411 0.69421 0.0
C1862 C 0.31111 0.51736 0.7081 0.0
C1863 C 0.27751 0.51667 0.71709 0.0
C1864 C 0.25549 0.5246 0.71354 0.0
H1865 H 0.16126 0.47363 0.80381 0.0
H1866 H 0.18211 0.4889 0.78488 0.0
C1867 C 0.26721 0.53322 0.70214 0.0
C1868 C 0.26625 0.50804 0.73225 0.0
H1869 H 0.20701 0.48989 0.73396 0.0
C1870 C 0.28281 0.50594 0.7559 0.0
C1871 C 0.23862 0.50219 0.7242 0.0
C1872 C 0.22063 0.5039 0.69857 0.0
C1873 C 0.27218 0.4982 0.77192 0.0
C1874 C 0.24458 0.49234 0.76386 0.0
C1875 C 0.228 0.49445 0.74021 0.0
C1876 C 0.23338 0.48368 0.77893 0.0
C1877 C 0.29016 0.4965 0.79757 0.0
C1878 C 0.25553 0.47578 0.78252 0.0
C1879 C 0.24375 0.46707 0.79344 0.0
C1880 C 0.2095 0.46607 0.80078 0.0
C1881 C 0.18781 0.47417 0.7985 0.0
C1882 C 0.19963 0.48288 0.78753 0.0
H1883 H 0.30366 0.50315 0.80434 0.0
H1884 H 0.27204 0.49417 0.81299 0.0
H1885 H 0.30928 0.49064 0.795 0.0
H1886 H 0.28151 0.47617 0.77566 0.0
H1887 H 0.2611 0.46097 0.79481 0.0
H1888 H 0.09626 0.47424 0.43788 0.0
H1889 H 0.07604 0.48905 0.45965 0.0
H1890 H 0.97439 0.4774 0.46109 0.0
H1891 H 0.9943 0.46256 0.43956 0.0
H1892 H 0.02336 0.50295 0.44857 0.0
H1893 H 0.99819 0.48172 0.53908 0.0
H1894 H 0.02325 0.47698 0.51239 0.0
H1895 H 0.97771 0.47714 0.51019 0.0
C1896 C 0.06945 0.47492 0.44226 0.0
C1897 C 0.04695 0.46717 0.43724 0.0
C1898 C 0.05799 0.48337 0.45482 0.0
C1899 C 0.02392 0.48419 0.46258 0.0
C1900 C 1.00094 0.4768 0.45581 0.0
H1901 H 0.90839 0.52675 0.55079 0.0
H1902 H 0.92883 0.51199 0.52888 0.0
C1903 C 0.01235 0.46835 0.4433 0.0
C1904 C 0.01276 0.49252 0.4789 0.0
H1905 H 0.9813 0.49829 0.53923 0.0
C1906 C 0.01428 0.50195 0.46841 0.0
C1907 C 1.00098 0.49117 0.50481 0.0
C1908 C 1.00015 0.48122 0.51745 0.0
C1909 C 0.00365 0.51008 0.48298 0.0
C1910 C 0.99188 0.50873 0.5089 0.0
C1911 C 0.99038 0.49929 0.51939 0.0
C1912 C 0.98065 0.51706 0.52523 0.0
C1913 C 0.00437 0.52001 0.47028 0.0
C1914 C 0.00341 0.52455 0.53164 0.0
C1915 C 0.99187 0.53297 0.54419 0.0
C1916 C 0.95735 0.53401 0.55071 0.0
C1917 C 0.93512 0.52617 0.54605 0.0
C1918 C 0.94672 0.51775 0.53341 0.0
H1919 H 0.00599 0.51949 0.44863 0.0
H1920 H 0.98139 0.52428 0.4755 0.0
H1921 H 0.02696 0.52408 0.47729 0.0
H1922 H 0.0299 0.52404 0.52608 0.0
H1923 H 0.00971 0.53884 0.54766 0.0
H1924 H 0.24945 0.71315 0.55072 0.0
H1925 H 0.23092 0.72825 0.52988 0.0
H1926 H 0.33368 0.73909 0.53154 0.0
H1927 H 0.35264 0.72391 0.55213 0.0
H1928 H 0.2357 0.74816 0.54256 0.0
H1929 H 0.30956 0.73904 0.45321 0.0
H1930 H 0.30187 0.73031 0.47893 0.0
H1931 H 0.33388 0.73953 0.4829 0.0
C1932 C 0.26807 0.71881 0.54714 0.0
C1933 C 0.30261 0.71728 0.55283 0.0
C1934 C 0.25741 0.72743 0.53516 0.0
C1935 C 0.28107 0.73467 0.52857 0.0
C1936 C 0.31516 0.73348 0.53594 0.0
H1937 H 0.26396 0.78913 0.44409 0.0
H1938 H 0.28397 0.77431 0.46568 0.0
C1939 C 0.32588 0.72484 0.54795 0.0
C1940 C 0.27018 0.74318 0.51278 0.0
H1941 H 0.28062 0.75414 0.45331 0.0
C1942 C 0.24549 0.74948 0.52305 0.0
C1943 C 0.28287 0.74483 0.48726 0.0
C1944 C 0.30829 0.73804 0.47475 0.0
C1945 C 0.2335 0.75748 0.50863 0.0
C1946 C 0.24612 0.75911 0.48308 0.0
C1947 C 0.27092 0.75284 0.47285 0.0
C1948 C 0.23452 0.76747 0.46704 0.0
C1949 C 0.20793 0.76424 0.52106 0.0
C1950 C 0.20038 0.76831 0.45951 0.0
C1951 C 0.18883 0.77676 0.44705 0.0
C1952 C 0.21131 0.7845 0.4419 0.0
C1953 C 0.24595 0.78333 0.44785 0.0
C1954 C 0.25744 0.77487 0.46026 0.0
H1955 H 0.20683 0.7633 0.54262 0.0
H1956 H 0.21406 0.77198 0.51666 0.0
H1957 H 0.18235 0.76265 0.51303 0.0
H1958 H 0.18243 0.76257 0.46407 0.0
H1959 H 0.16202 0.77742 0.44269 0.0
H1960 H 0.75449 0.46356 0.30794 0.0
H1961 H 0.77742 0.4784 0.28825 0.0
H1962 H 0.67739 0.49117 0.288 0.0
H1963 H 0.65423 0.47639 0.3079 0.0
H1964 H 0.75613 0.48464 0.23898 0.0
H1965 H 0.73716 0.51375 0.31289 0.0
H1966 H 0.73626 0.50095 0.32113 0.0
H1967 H 0.69989 0.50662 0.30631 0.0
C1968 C 0.73748 0.46963 0.30445 0.0
C1969 C 0.70247 0.46876 0.30944 0.0
C1970 C 0.75064 0.47809 0.29305 0.0
C1971 C 0.72914 0.48588 0.28663 0.0
C1972 C 0.69455 0.4853 0.29311 0.0
H1973 H 0.74936 0.53967 0.19963 0.0
H1974 H 0.72846 0.525 0.22144 0.0
C1975 C 0.68134 0.47683 0.30452 0.0
C1976 C 0.74217 0.49414 0.27075 0.0
H1977 H 0.75115 0.5189 0.26979 0.0
C1978 C 0.75531 0.49213 0.24578 0.0
C1979 C 0.74081 0.5039 0.27958 0.0
C1980 C 0.72806 0.50646 0.30653 0.0
C1981 C 0.76653 0.49963 0.22919 0.0
C1982 C 0.76509 0.5094 0.23799 0.0
C1983 C 0.7521 0.5114 0.26302 0.0
C1984 C 0.77711 0.51769 0.22174 0.0
C1985 C 0.77898 0.49706 0.20216 0.0
C1986 C 0.81126 0.51834 0.21398 0.0
C1987 C 0.82327 0.5267 0.20127 0.0
C1988 C 0.8014 0.53461 0.19636 0.0
C1989 C 0.76689 0.53372 0.20307 0.0
C1990 C 0.75491 0.52536 0.21568 0.0
H1991 H 0.76992 0.48975 0.19592 0.0
H1992 H 0.77048 0.50254 0.18757 0.0
H1993 H 0.80715 0.49694 0.20216 0.0
H1994 H 0.82899 0.51258 0.21881 0.0
H1995 H 0.85005 0.52719 0.19661 0.0
H1996 H 0.84523 0.22422 0.54748 0.0
H1997 H 0.82447 0.23913 0.52667 0.0
H1998 H 0.72539 0.22613 0.51793 0.0
H1999 H 0.74608 0.21115 0.53824 0.0
H2000 H 0.74979 0.23342 0.47194 0.0
H2001 H 0.76289 0.2611 0.55036 0.0
H2002 H 0.80113 0.25437 0.54421 0.0
H2003 H 0.76436 0.24817 0.55685 0.0
C2004 C 0.81878 0.22463 0.54176 0.0
C2005 C 0.79732 0.21649 0.5445 0.0
C2006 C 0.80693 0.23317 0.52987 0.0
C2007 C 0.77331 0.23377 0.52082 0.0
C2008 C 0.75143 0.22583 0.52472 0.0
H2009 H 0.65376 0.27652 0.43667 0.0
H2010 H 0.6757 0.26149 0.45607 0.0
C2011 C 0.76328 0.21728 0.53646 0.0
C2012 C 0.76167 0.24232 0.50543 0.0
H2013 H 0.75174 0.26705 0.50754 0.0
C2014 C 0.75004 0.24077 0.47978 0.0
C2015 C 0.76217 0.25191 0.51561 0.0
C2016 C 0.773 0.25401 0.54334 0.0
C2017 C 0.73926 0.24855 0.46395 0.0
C2018 C 0.73981 0.25812 0.47414 0.0
C2019 C 0.75154 0.25969 0.49973 0.0
C2020 C 0.72752 0.26663 0.45893 0.0
C2021 C 0.7279 0.24648 0.43634 0.0
C2022 C 0.7495 0.27443 0.4536 0.0
C2023 C 0.73706 0.28302 0.44245 0.0
C2024 C 0.7023 0.28402 0.43667 0.0
C2025 C 0.68069 0.27598 0.4407 0.0
C2026 C 0.6932 0.26738 0.45182 0.0
H2027 H 0.73695 0.23926 0.4294 0.0
H2028 H 0.69974 0.24648 0.4356 0.0
H2029 H 0.73722 0.2522 0.42272 0.0
H2030 H 0.77608 0.274 0.45893 0.0
H2031 H 0.75441 0.28907 0.43967 0.0
H2032 H 0.49725 0.29072 0.79166 0.0
H2033 H 0.47569 0.27589 0.77103 0.0
H2034 H 0.57343 0.2622 0.78088 0.0
H2035 H 0.5951 0.27696 0.80191 0.0
H2036 H 0.50096 0.26823 0.72515 0.0
H2037 H 0.5087 0.24087 0.80481 0.0
H2038 H 0.51088 0.25383 0.81085 0.0
H2039 H 0.54767 0.24735 0.79937 0.0
C2040 C 0.51397 0.28448 0.79002 0.0
C2041 C 0.54791 0.28503 0.79847 0.0
C2042 C 0.50162 0.27602 0.77809 0.0
C2043 C 0.52289 0.26793 0.77449 0.0
C2044 C 0.55638 0.2683 0.78385 0.0
H2045 H 0.50563 0.2124 0.69572 0.0
H2046 H 0.52618 0.22756 0.71513 0.0
C2047 C 0.56875 0.27675 0.79587 0.0
C2048 C 0.5108 0.25941 0.75919 0.0
H2049 H 0.49909 0.23477 0.76192 0.0
C2050 C 0.50033 0.26092 0.73323 0.0
C2051 C 0.51011 0.24988 0.76973 0.0
C2052 C 0.51963 0.24787 0.79779 0.0
C2053 C 0.48978 0.25312 0.71737 0.0
C2054 C 0.48934 0.24359 0.72788 0.0
C2055 C 0.49967 0.24209 0.75386 0.0
C2056 C 0.47792 0.23502 0.7125 0.0
C2057 C 0.47993 0.2551 0.68938 0.0
C2058 C 0.44419 0.23429 0.70383 0.0
C2059 C 0.43235 0.22563 0.69256 0.0
C2060 C 0.45401 0.21753 0.69001 0.0
C2061 C 0.48825 0.21849 0.69739 0.0
C2062 C 0.50004 0.22714 0.70861 0.0
H2063 H 0.48967 0.26226 0.68249 0.0
H2064 H 0.48966 0.2493 0.67622 0.0
H2065 H 0.45183 0.25521 0.6878 0.0
H2066 H 0.42655 0.24024 0.70697 0.0
H2067 H 0.40578 0.22511 0.68728 0.0
H2068 H 0.40295 0.02664 0.5523 0.0
H2069 H 0.42333 0.01169 0.53138 0.0
H2070 H 0.52487 0.02343 0.5293 0.0
H2071 H 0.50475 0.03841 0.54996 0.0
H2072 H 0.50074 0.01726 0.48051 0.0
H2073 H 0.48172 0.98866 0.55601 0.0
H2074 H 0.44522 0.99617 0.54983 0.0
H2075 H 0.48273 0.00151 0.56381 0.0
C2076 C 0.42979 0.02594 0.54807 0.0
C2077 C 0.4522 0.03373 0.55274 0.0
C2078 C 0.4414 0.01738 0.5361 0.0
C2079 C 0.47563 0.01645 0.52881 0.0
C2080 C 0.49835 0.02401 0.53473 0.0
H2081 H 0.5949 0.97471 0.44053 0.0
H2082 H 0.57312 0.98941 0.46173 0.0
C2083 C 0.4868 0.03255 0.54666 0.0
C2084 C 0.48721 0.00803 0.51295 0.0
H2085 H 0.49564 0.98326 0.5133 0.0
C2086 C 0.49978 0.00982 0.4877 0.0
C2087 C 0.48567 0.99834 0.52232 0.0
C2088 C 0.47339 0.99602 0.54955 0.0
C2089 C 0.51054 0.00217 0.47143 0.0
C2090 C 0.50923 0.99248 0.48084 0.0
C2091 C 0.49652 0.99069 0.50607 0.0
C2092 C 0.52156 0.98409 0.46518 0.0
C2093 C 0.52257 0.00452 0.44413 0.0
C2094 C 0.49978 0.97624 0.45982 0.0
C2095 C 0.51219 0.96781 0.4478 0.0
C2096 C 0.54671 0.96704 0.44101 0.0
C2097 C 0.56813 0.97509 0.44527 0.0
C2098 C 0.5557 0.98352 0.45738 0.0
H2099 H 0.51298 0.01172 0.43742 0.0
H2100 H 0.55073 0.0048 0.44396 0.0
H2101 H 0.51429 0.99885 0.43 0.0
H2102 H 0.47335 0.97653 0.46565 0.0
H2103 H 0.495 0.96174 0.44485 0.0
H2104 H 0.49519 0.79018 0.29574 0.0
H2105 H 0.47338 0.77532 0.27552 0.0
H2106 H 0.56979 0.76117 0.28804 0.0
H2107 H 0.59201 0.77607 0.30813 0.0
H2108 H 0.54738 0.76082 0.23584 0.0
H2109 H 0.44551 0.74845 0.3031 0.0
H2110 H 0.4428 0.76108 0.29407 0.0
H2111 H 0.47832 0.75688 0.31303 0.0
C2112 C 0.51152 0.78383 0.29487 0.0
C2113 C 0.54539 0.78432 0.30352 0.0
C2114 C 0.49895 0.77532 0.28332 0.0
C2115 C 0.51992 0.76713 0.28033 0.0
C2116 C 0.55317 0.76742 0.29019 0.0
H2117 H 0.50201 0.71185 0.20057 0.0
H2118 H 0.5225 0.72678 0.22108 0.0
C2119 C 0.56576 0.77592 0.30184 0.0
C2120 C 0.50823 0.75866 0.26468 0.0
H2121 H 0.4472 0.74103 0.26112 0.0
C2122 C 0.52561 0.75645 0.24144 0.0
C2123 C 0.47961 0.75305 0.27187 0.0
C2124 C 0.4606 0.75491 0.29699 0.0
C2125 C 0.51491 0.74883 0.22504 0.0
C2126 C 0.48639 0.74317 0.2323 0.0
C2127 C 0.46893 0.74541 0.25549 0.0
C2128 C 0.4751 0.7346 0.21684 0.0
C2129 C 0.53385 0.74703 0.19985 0.0
C2130 C 0.4417 0.73405 0.20733 0.0
C2131 C 0.42983 0.72548 0.19557 0.0
C2132 C 0.45109 0.71728 0.19338 0.0
C2133 C 0.485 0.71803 0.20181 0.0
C2134 C 0.49682 0.72659 0.21351 0.0
H2135 H 0.54809 0.7536 0.19346 0.0
H2136 H 0.55246 0.74106 0.20288 0.0
H2137 H 0.51625 0.74481 0.18396 0.0
H2138 H 0.4245 0.74015 0.20975 0.0
H2139 H 0.40353 0.72513 0.18945 0.0
H2140 H 0.58873 0.47539 0.93604 0.0
H2141 H 0.56618 0.49004 0.95718 0.0
H2142 H 0.46754 0.47653 0.96248 0.0
H2143 H 0.48993 0.46181 0.94178 0.0
H2144 H 0.51251 0.50292 0.94721 0.0
H2145 H 0.49116 0.48213 0.03898 0.0
H2146 H 0.51565 0.47733 0.01209 0.0
H2147 H 0.47003 0.47719 0.01083 0.0
C2148 C 0.56205 0.47561 0.94115 0.0
C2149 C 0.54122 0.46739 0.93749 0.0
C2150 C 0.54925 0.48398 0.95336 0.0
C2151 C 0.51545 0.48425 0.96207 0.0
C2152 C 0.49394 0.47636 0.95656 0.0
H2153 H 0.39925 0.52746 0.04893 0.0
H2154 H 0.4186 0.51258 0.0269 0.0
C2155 C 0.50673 0.46799 0.94448 0.0
C2156 C 0.50325 0.49258 0.97805 0.0
H2157 H 0.47239 0.49853 0.03849 0.0
C2158 C 0.50378 0.50197 0.96717 0.0
C2159 C 0.49198 0.49131 0.00415 0.0
C2160 C 0.4924 0.48147 0.01735 0.0
C2161 C 0.49293 0.51011 0.98156 0.0
C2162 C 0.48174 0.50884 0.00764 0.0
C2163 C 0.48099 0.49946 0.01849 0.0
C2164 C 0.47094 0.51723 0.0239 0.0
C2165 C 0.49306 0.52001 0.96863 0.0
C2166 C 0.49431 0.52452 0.03062 0.0
C2167 C 0.48343 0.53298 0.04332 0.0
C2168 C 0.44894 0.5343 0.04956 0.0
C2169 C 0.42599 0.52667 0.04441 0.0
C2170 C 0.43695 0.51819 0.03171 0.0
H2171 H 0.49487 0.51943 0.947 0.0
H2172 H 0.46976 0.52415 0.97369 0.0
H2173 H 0.51529 0.52423 0.97568 0.0
H2174 H 0.5208 0.52382 0.02522 0.0
H2175 H 0.50183 0.53868 0.0471 0.0
H2176 H 0.08016 0.3174 0.22356 0.0
H2177 H 0.08606 0.32017 0.17669 0.0
H2178 H 0.19424 0.32365 0.18589 0.0
H2179 H 0.18876 0.32073 0.23291 0.0
H2180 H 0.11438 0.33593 0.14767 0.0
H2181 H 0.18415 0.301 0.13341 0.0
H2182 H 0.16158 0.30378 0.16319 0.0
H2183 H 0.20208 0.30932 0.1568 0.0
C2184 C 0.10523 0.3188 0.21571 0.0
C2185 C 0.13407 0.31873 0.23192 0.0
C2186 C 0.1085 0.32042 0.18894 0.0
C2187 C 0.1406 0.32198 0.17791 0.0
C2188 C 0.16931 0.3223 0.19409 0.0
H2189 H 0.19177 0.32062 0.0124 0.0
H2190 H 0.19518 0.32365 0.05937 0.0
C2191 C 0.1661 0.32066 0.22091 0.0
C2192 C 0.1439 0.32272 0.14927 0.0
H2193 H 0.17304 0.31036 0.096 0.0
C2194 C 0.12745 0.33041 0.13631 0.0
C2195 C 0.16097 0.31548 0.13466 0.0
C2196 C 0.17801 0.30688 0.14761 0.0
C2197 C 0.1272 0.33095 0.10894 0.0
C2198 C 0.1434 0.32354 0.09435 0.0
C2199 C 0.16074 0.31604 0.10734 0.0
C2200 C 0.14091 0.323 0.06561 0.0
C2201 C 0.10947 0.3394 0.0959 0.0
C2202 C 0.10919 0.3217 0.05364 0.0
C2203 C 0.1071 0.31996 0.02681 0.0
C2204 C 0.13676 0.3194 0.01159 0.0
C2205 C 0.16844 0.32098 0.02358 0.0
C2206 C 0.17047 0.32273 0.05038 0.0
H2207 H 0.10748 0.34578 0.10921 0.0
H2208 H 0.12299 0.34167 0.07784 0.0
H2209 H 0.08334 0.33716 0.09044 0.0
H2210 H 0.08614 0.32166 0.06519 0.0
H2211 H 0.08234 0.31876 0.01818 0.0
H2212 H 0.17706 0.93493 0.0142 0.0
H2213 H 0.17601 0.9328 0.06165 0.0
H2214 H 0.06665 0.93129 0.05999 0.0
H2215 H 0.0673 0.9335 0.01265 0.0
H2216 H 0.09365 0.94515 0.09485 0.0
H2217 H 0.15393 0.90884 0.10759 0.0
H2218 H 0.17709 0.91715 0.0871 0.0
H2219 H 0.13613 0.91284 0.07685 0.0
C2220 C 0.1528 0.93403 0.02387 0.0
C2221 C 0.12226 0.93443 0.00968 0.0
C2222 C 0.15228 0.93274 0.05094 0.0
C2223 C 0.12127 0.93177 0.06415 0.0
C2224 C 0.09082 0.93196 0.05002 0.0
H2225 H 0.06989 0.93378 0.22962 0.0
H2226 H 0.06726 0.93176 0.18218 0.0
C2227 C 0.09128 0.93324 0.02299 0.0
C2228 C 0.12041 0.93148 0.09294 0.0
H2229 H 0.14694 0.91848 0.14598 0.0
C2230 C 0.10497 0.93928 0.10608 0.0
C2231 C 0.1354 0.92382 0.10735 0.0
C2232 C 0.15134 0.91513 0.09406 0.0
C2233 C 0.1049 0.93977 0.1334 0.0
C2234 C 0.1201 0.93215 0.14786 0.0
C2235 C 0.13523 0.92428 0.13474 0.0
C2236 C 0.12167 0.93245 0.17663 0.0
C2237 C 0.08962 0.94861 0.14652 0.0
C2238 C 0.15322 0.93314 0.18916 0.0
C2239 C 0.15486 0.93423 0.21623 0.0
C2240 C 0.12493 0.93464 0.23119 0.0
C2241 C 0.09339 0.93359 0.21862 0.0
C2242 C 0.0918 0.93246 0.19154 0.0
H2243 H 0.08614 0.95475 0.13263 0.0
H2244 H 0.06433 0.94666 0.15455 0.0
H2245 H 0.10582 0.95112 0.16295 0.0
H2246 H 0.17652 0.93311 0.1779 0.0
H2247 H 0.17956 0.93498 0.22532 0.0
H2248 H 0.81483 0.68081 0.75781 0.0
H2249 H 0.80951 0.67812 0.80494 0.0
H2250 H 0.91745 0.68222 0.81401 0.0
H2251 H 0.9232 0.68478 0.76703 0.0
H2252 H 0.89009 0.6663 0.84307 0.0
H2253 H 0.81826 0.70088 0.85731 0.0
H2254 H 0.80085 0.69249 0.83388 0.0
H2255 H 0.84105 0.69821 0.82756 0.0
C2256 C 0.83746 0.68109 0.76981 0.0
C2257 C 0.86939 0.68311 0.75872 0.0
C2258 C 0.83435 0.67957 0.79669 0.0
C2259 C 0.86304 0.68011 0.81284 0.0
C2260 C 0.89503 0.6818 0.80177 0.0
H2261 H 0.91924 0.68326 0.97336 0.0
H2262 H 0.91649 0.68067 0.92616 0.0
C2263 C 0.89821 0.68329 0.77494 0.0
C2264 C 0.85981 0.67937 0.84147 0.0
H2265 H 0.82953 0.69151 0.89473 0.0
C2266 C 0.87664 0.67175 0.85442 0.0
C2267 C 0.84224 0.68652 0.85607 0.0
C2268 C 0.82476 0.69504 0.84311 0.0
C2269 C 0.8767 0.67117 0.88178 0.0
C2270 C 0.85992 0.67847 0.89637 0.0
C2271 C 0.84229 0.68591 0.88338 0.0
C2272 C 0.86188 0.67892 0.92512 0.0
C2273 C 0.89479 0.66278 0.89484 0.0
C2274 C 0.83205 0.67886 0.94004 0.0
C2275 C 0.83347 0.68042 0.96694 0.0
C2276 C 0.86479 0.68214 0.97934 0.0
C2277 C 0.89474 0.68194 0.9644 0.0
C2278 C 0.89326 0.68038 0.93747 0.0
H2279 H 0.89762 0.65647 0.88139 0.0
H2280 H 0.92059 0.66518 0.90076 0.0
H2281 H 0.88101 0.66036 0.91263 0.0
H2282 H 0.80759 0.67781 0.93075 0.0
H2283 H 0.80993 0.6805 0.97789 0.0
H2284 H 0.92568 0.06776 0.76195 0.0
H2285 H 0.92603 0.06973 0.80954 0.0
H2286 H 0.81683 0.07202 0.80956 0.0
H2287 H 0.81606 0.06996 0.76219 0.0
H2288 H 0.89757 0.08475 0.84348 0.0
H2289 H 0.83862 0.04821 0.85679 0.0
H2290 H 0.85747 0.05202 0.82629 0.0
H2291 H 0.81608 0.05634 0.83541 0.0
C2292 C 0.90177 0.06877 0.77205 0.0
C2293 C 0.87081 0.06856 0.75836 0.0
C2294 C 0.90204 0.06992 0.79918 0.0
C2295 C 0.87142 0.07086 0.81292 0.0
C2296 C 0.84065 0.07114 0.79922 0.0
H2297 H 0.82282 0.06812 0.9779 0.0
H2298 H 0.82017 0.07069 0.93066 0.0
C2299 C 0.84031 0.06997 0.77217 0.0
C2300 C 0.87143 0.07098 0.84171 0.0
H2301 H 0.84693 0.05767 0.89472 0.0
C2302 C 0.88651 0.07885 0.85477 0.0
C2303 C 0.85696 0.06324 0.85619 0.0
C2304 C 0.84159 0.05442 0.84303 0.0
C2305 C 0.8872 0.07924 0.88217 0.0
C2306 C 0.87291 0.07147 0.89662 0.0
C2307 C 0.85765 0.06364 0.8835 0.0
C2308 C 0.87466 0.07103 0.92539 0.0
C2309 C 0.90285 0.08799 0.8954 0.0
C2310 C 0.90621 0.07041 0.93794 0.0
C2311 C 0.90785 0.06893 0.96489 0.0
C2312 C 0.87792 0.06797 0.97967 0.0
C2313 C 0.84633 0.0688 0.96706 0.0
C2314 C 0.84475 0.0703 0.94012 0.0
H2315 H 0.90392 0.09439 0.8821 0.0
H2316 H 0.8884 0.09003 0.91322 0.0
H2317 H 0.92922 0.08619 0.90132 0.0
H2318 H 0.92957 0.07074 0.92679 0.0
H2319 H 0.93259 0.0683 0.97399 0.0
H2320 H 0.16788 0.80459 0.72603 0.0
H2321 H 0.17227 0.80695 0.67887 0.0
H2322 H 0.10034 0.83067 0.6833 0.0
H2323 H 0.09427 0.82788 0.73032 0.0
H2324 H 0.08402 0.81989 0.64544 0.0
H2325 H 0.22159 0.82613 0.63604 0.0
H2326 H 0.2146 0.81473 0.65219 0.0
H2327 H 0.20074 0.82592 0.66743 0.0
C2328 C 0.15328 0.81036 0.71692 0.0
C2329 C 0.13075 0.81606 0.73167 0.0
C2330 C 0.15607 0.81178 0.69002 0.0
C2331 C 0.13732 0.81916 0.67758 0.0
C2332 C 0.11521 0.82497 0.69247 0.0
H2333 H 0.17692 0.82728 0.51029 0.0
H2334 H 0.17375 0.83022 0.55746 0.0
C2335 C 0.11172 0.82337 0.71927 0.0
C2336 C 0.13863 0.82023 0.64879 0.0
H2337 H 0.19308 0.82022 0.59699 0.0
C2338 C 0.1079 0.82015 0.63489 0.0
C2339 C 0.16966 0.82083 0.63492 0.0
C2340 C 0.20342 0.82203 0.64851 0.0
C2341 C 0.1074 0.82013 0.60753 0.0
C2342 C 0.1385 0.81969 0.59373 0.0
C2343 C 0.1692 0.82033 0.60756 0.0
C2344 C 0.13978 0.81813 0.56513 0.0
C2345 C 0.07348 0.8206 0.59384 0.0
C2346 C 0.12221 0.81027 0.55387 0.0
C2347 C 0.12336 0.80872 0.52697 0.0
C2348 C 0.14307 0.81481 0.51097 0.0
C2349 C 0.16158 0.82248 0.52228 0.0
C2350 C 0.15974 0.82417 0.54916 0.0
H2351 H 0.05452 0.8246 0.60586 0.0
H2352 H 0.07547 0.82425 0.57453 0.0
H2353 H 0.06369 0.81309 0.59091 0.0
H2354 H 0.10776 0.80527 0.56589 0.0
H2355 H 0.10928 0.80267 0.51873 0.0
H2356 H 0.18382 0.43549 0.72083 0.0
H2357 H 0.17801 0.43381 0.67347 0.0
H2358 H 0.06918 0.432 0.68161 0.0
H2359 H 0.07459 0.43384 0.72893 0.0
H2360 H 0.14729 0.41898 0.64301 0.0
H2361 H 0.08345 0.45489 0.631 0.0
H2362 H 0.10511 0.45146 0.6607 0.0
H2363 H 0.06349 0.44674 0.65381 0.0
C2364 C 0.15865 0.43471 0.71257 0.0
C2365 C 0.12963 0.43491 0.72858 0.0
C2366 C 0.1554 0.43373 0.68555 0.0
C2367 C 0.12316 0.43293 0.67416 0.0
C2368 C 0.09423 0.43279 0.6901 0.0
H2369 H 0.06152 0.43343 0.5112 0.0
H2370 H 0.0622 0.43135 0.55864 0.0
C2371 C 0.0974 0.43382 0.7171 0.0
C2372 C 0.11985 0.43253 0.6455 0.0
H2373 H 0.08953 0.44522 0.59318 0.0
C2374 C 0.1346 0.42469 0.63206 0.0
C2375 C 0.10326 0.44002 0.63143 0.0
C2376 C 0.08815 0.4488 0.64488 0.0
C2377 C 0.1332 0.42413 0.60472 0.0
C2378 C 0.11701 0.43168 0.59067 0.0
C2379 C 0.10178 0.43943 0.60414 0.0
C2380 C 0.11691 0.43198 0.56189 0.0
C2381 C 0.14888 0.41547 0.59111 0.0
C2382 C 0.14751 0.43302 0.54818 0.0
C2383 C 0.14727 0.43424 0.52112 0.0
C2384 C 0.11635 0.43449 0.50739 0.0
C2385 C 0.08576 0.43327 0.5212 0.0
C2386 C 0.08606 0.43207 0.54826 0.0
H2387 H 0.15197 0.40918 0.6046 0.0
H2388 H 0.1332 0.41315 0.57417 0.0
H2389 H 0.17439 0.41752 0.58373 0.0
H2390 H 0.17153 0.43318 0.5585 0.0
H2391 H 0.17126 0.43517 0.51106 0.0
H2392 H 0.94748 0.18315 0.26185 0.0
H2393 H 0.95155 0.18011 0.30884 0.0
H2394 H 0.84259 0.18207 0.31552 0.0
H2395 H 0.83813 0.18502 0.26858 0.0
H2396 H 0.92907 0.1929 0.34751 0.0
H2397 H 0.86505 0.15705 0.35598 0.0
H2398 H 0.88084 0.16173 0.32527 0.0
H2399 H 0.84072 0.16585 0.33797 0.0
C2400 C 0.92433 0.18284 0.27326 0.0
C2401 C 0.89245 0.18433 0.2615 0.0
C2402 C 0.92674 0.18108 0.30006 0.0
C2403 C 0.89735 0.18071 0.31546 0.0
C2404 C 0.86551 0.18211 0.30379 0.0
H2405 H 0.83084 0.18403 0.4713 0.0
H2406 H 0.83966 0.18186 0.42449 0.0
C2407 C 0.86304 0.18388 0.27702 0.0
C2408 C 0.89995 0.17967 0.34407 0.0
H2409 H 0.87025 0.16638 0.39555 0.0
C2410 C 0.91679 0.18701 0.35807 0.0
C2411 C 0.88391 0.17196 0.35762 0.0
C2412 C 0.86689 0.16365 0.34343 0.0
C2413 C 0.91632 0.18716 0.38544 0.0
C2414 C 0.89903 0.17967 0.399 0.0
C2415 C 0.88344 0.1721 0.385 0.0
C2416 C 0.8941 0.1801 0.42753 0.0
C2417 C 0.93269 0.19561 0.39959 0.0
C2418 C 0.92181 0.17961 0.44467 0.0
C2419 C 0.91692 0.1809 0.47149 0.0
C2420 C 0.88419 0.18265 0.48149 0.0
C2421 C 0.85639 0.18276 0.46425 0.0
C2422 C 0.86134 0.18148 0.43751 0.0
H2423 H 0.9397 0.20162 0.38607 0.0
H2424 H 0.91537 0.19855 0.4148 0.0
H2425 H 0.95615 0.19305 0.40944 0.0
H2426 H 0.94723 0.1784 0.43726 0.0
H2427 H 0.93881 0.1807 0.48429 0.0
H2428 H 0.82775 0.56906 0.48193 0.0
H2429 H 0.8251 0.57122 0.43452 0.0
H2430 H 0.93414 0.56888 0.42986 0.0
H2431 H 0.93721 0.56685 0.47723 0.0
H2432 H 0.90558 0.5839 0.39814 0.0
H2433 H 0.84186 0.54803 0.38481 0.0
H2434 H 0.821 0.55622 0.40701 0.0
H2435 H 0.86224 0.55148 0.41502 0.0
C2436 C 0.8512 0.56907 0.47086 0.0
C2437 C 0.88266 0.56768 0.4833 0.0
C2438 C 0.84961 0.57028 0.44381 0.0
C2439 C 0.87939 0.57006 0.4288 0.0
C2440 C 0.9109 0.56905 0.4412 0.0
H2441 H 0.93127 0.56759 0.26525 0.0
H2442 H 0.93194 0.56969 0.31274 0.0
C2443 C 0.91255 0.56786 0.46824 0.0
C2444 C 0.87769 0.5704 0.40004 0.0
H2445 H 0.84965 0.55765 0.34709 0.0
C2446 C 0.89331 0.57819 0.38691 0.0
C2447 C 0.86181 0.56289 0.38561 0.0
C2448 C 0.84601 0.55413 0.39875 0.0
C2449 C 0.89316 0.5787 0.35952 0.0
C2450 C 0.87736 0.57117 0.34514 0.0
C2451 C 0.86158 0.56343 0.3583 0.0
C2452 C 0.87737 0.57098 0.31633 0.0
C2453 C 0.90956 0.58731 0.3462 0.0
C2454 C 0.84646 0.57098 0.30279 0.0
C2455 C 0.84594 0.56971 0.27577 0.0
C2456 C 0.87637 0.56836 0.26185 0.0
C2457 C 0.90741 0.56863 0.27541 0.0
C2458 C 0.90787 0.56989 0.30249 0.0
H2459 H 0.91303 0.59354 0.35984 0.0
H2460 H 0.93494 0.58513 0.33882 0.0
H2461 H 0.89413 0.58978 0.32927 0.0
H2462 H 0.82267 0.57176 0.31323 0.0
H2463 H 0.8216 0.56958 0.26592 0.0
H2464 H 0.6086 0.29904 0.52264 0.0
H2465 H 0.61043 0.30113 0.57004 0.0
H2466 H 0.67155 0.32704 0.56057 0.0
H2467 H 0.67137 0.32464 0.51315 0.0
H2468 H 0.69439 0.31698 0.59953 0.0
H2469 H 0.55539 0.31989 0.61102 0.0
H2470 H 0.56633 0.30854 0.59594 0.0
H2471 H 0.5755 0.31985 0.57937 0.0
C2472 C 0.62246 0.30516 0.53072 0.0
C2473 C 0.63963 0.31172 0.51434 0.0
C2474 C 0.62324 0.30641 0.55776 0.0
C2475 C 0.64023 0.31441 0.56879 0.0
C2476 C 0.65803 0.32086 0.55245 0.0
H2477 H 0.59766 0.32682 0.73261 0.0
H2478 H 0.6034 0.32854 0.68522 0.0
C2479 C 0.65794 0.31948 0.52541 0.0
C2480 C 0.63983 0.31595 0.59742 0.0
H2481 H 0.58699 0.31645 0.65012 0.0
C2482 C 0.67088 0.317 0.61059 0.0
C2483 C 0.60913 0.31626 0.61178 0.0
C2484 C 0.57474 0.31619 0.59872 0.0
C2485 C 0.67214 0.31795 0.63786 0.0
C2486 C 0.6416 0.3174 0.65237 0.0
C2487 C 0.61049 0.31674 0.63908 0.0
C2488 C 0.64109 0.31712 0.68131 0.0
C2489 C 0.70617 0.31962 0.65066 0.0
C2490 C 0.66058 0.31021 0.69491 0.0
C2491 C 0.65798 0.3094 0.72202 0.0
C2492 C 0.63496 0.31527 0.73584 0.0
C2493 C 0.6155 0.3222 0.72231 0.0
C2494 C 0.61879 0.32318 0.69529 0.0
H2495 H 0.72382 0.32349 0.63723 0.0
H2496 H 0.70374 0.32396 0.66889 0.0
H2497 H 0.71782 0.31248 0.65548 0.0
H2498 H 0.67704 0.30521 0.68453 0.0
H2499 H 0.67293 0.30392 0.73202 0.0
H2500 H 0.66568 0.94756 0.51178 0.0
H2501 H 0.66811 0.94585 0.5592 0.0
H2502 H 0.59268 0.92302 0.55575 0.0
H2503 H 0.5887 0.92514 0.50834 0.0
H2504 H 0.57687 0.93478 0.5921 0.0
H2505 H 0.71283 0.92657 0.60481 0.0
H2506 H 0.7082 0.9378 0.58736 0.0
H2507 H 0.69293 0.9266 0.57306 0.0
C2508 C 0.6499 0.9421 0.52114 0.0
C2509 C 0.62704 0.93647 0.5065 0.0
C2510 C 0.65155 0.94106 0.54822 0.0
C2511 C 0.6312 0.93414 0.56102 0.0
C2512 C 0.60876 0.92837 0.54629 0.0
H2513 H 0.66288 0.92604 0.72889 0.0
H2514 H 0.66108 0.92337 0.68161 0.0
C2515 C 0.60648 0.92959 0.51926 0.0
C2516 C 0.63139 0.93349 0.58991 0.0
H2517 H 0.68404 0.93315 0.64278 0.0
C2518 C 0.6003 0.93425 0.60317 0.0
C2519 C 0.66181 0.93258 0.60444 0.0
C2520 C 0.69572 0.93072 0.59161 0.0
C2521 C 0.5989 0.93456 0.6305 0.0
C2522 C 0.62958 0.93458 0.64491 0.0
C2523 C 0.66055 0.93335 0.63173 0.0
C2524 C 0.6302 0.93609 0.67355 0.0
C2525 C 0.5645 0.93479 0.64353 0.0
C2526 C 0.61393 0.94421 0.68465 0.0
C2527 C 0.61427 0.94561 0.71164 0.0
C2528 C 0.63189 0.9391 0.72788 0.0
C2529 C 0.64918 0.93117 0.71673 0.0
C2530 C 0.64812 0.92964 0.68977 0.0
H2531 H 0.54498 0.93118 0.63119 0.0
H2532 H 0.56498 0.93113 0.66289 0.0
H2533 H 0.55653 0.94248 0.64627 0.0
H2534 H 0.60106 0.9495 0.67246 0.0
H2535 H 0.60115 0.95186 0.71978 0.0
H2536 H 0.3097 0.68241 0.47976 0.0
H2537 H 0.30754 0.68028 0.43241 0.0
H2538 H 0.41692 0.68111 0.42894 0.0
H2539 H 0.41947 0.68313 0.47636 0.0
H2540 H 0.33345 0.69387 0.39732 0.0
H2541 H 0.39302 0.65762 0.38276 0.0
H2542 H 0.37678 0.6616 0.41402 0.0
H2543 H 0.41755 0.66575 0.40277 0.0
C2544 C 0.33335 0.68201 0.46901 0.0
C2545 C 0.36479 0.68298 0.4818 0.0
C2546 C 0.33203 0.68077 0.44197 0.0
C2547 C 0.36205 0.68042 0.42732 0.0
C2548 C 0.39349 0.68116 0.44003 0.0
H2549 H 0.42323 0.68516 0.26814 0.0
H2550 H 0.41802 0.6829 0.31528 0.0
C2551 C 0.39488 0.68239 0.46709 0.0
C2552 C 0.36045 0.68022 0.39852 0.0
H2553 H 0.3874 0.66769 0.34482 0.0
C2554 C 0.34481 0.68809 0.38579 0.0
C2555 C 0.37543 0.67267 0.3837 0.0
C2556 C 0.39138 0.66388 0.39648 0.0
C2557 C 0.34487 0.6888 0.35849 0.0
C2558 C 0.36045 0.68135 0.34365 0.0
C2559 C 0.37544 0.67337 0.35636 0.0
C2560 C 0.36318 0.68203 0.31498 0.0
C2561 C 0.32952 0.69772 0.34581 0.0
C2562 C 0.33402 0.6821 0.29926 0.0
C2563 C 0.33684 0.68345 0.2723 0.0
C2564 C 0.36893 0.68468 0.26068 0.0
C2565 C 0.39813 0.68429 0.27647 0.0
C2566 C 0.39525 0.68296 0.30339 0.0
H2567 H 0.32502 0.70367 0.36014 0.0
H2568 H 0.34626 0.70052 0.33004 0.0
H2569 H 0.30475 0.69574 0.33694 0.0
H2570 H 0.30909 0.68124 0.3079 0.0
H2571 H 0.3139 0.68364 0.26064 0.0
H2572 H 0.43985 0.0685 0.4805 0.0
H2573 H 0.44138 0.07083 0.43321 0.0
H2574 H 0.33203 0.06953 0.43042 0.0
H2575 H 0.3301 0.0673 0.47781 0.0
H2576 H 0.41573 0.0573 0.39776 0.0
H2577 H 0.35438 0.09342 0.38506 0.0
H2578 H 0.37118 0.08933 0.41604 0.0
H2579 H 0.33055 0.08505 0.40488 0.0
C2580 C 0.41606 0.06883 0.46991 0.0
C2581 C 0.38482 0.06768 0.4829 0.0
C2582 C 0.41703 0.07018 0.44292 0.0
C2583 C 0.38683 0.07047 0.42847 0.0
C2584 C 0.35557 0.06953 0.44136 0.0
H2585 H 0.32669 0.06653 0.26866 0.0
H2586 H 0.33121 0.06862 0.3159 0.0
C2587 C 0.35454 0.06818 0.4684 0.0
C2588 C 0.38817 0.07084 0.39968 0.0
H2589 H 0.36085 0.0837 0.34662 0.0
C2590 C 0.40413 0.06313 0.38653 0.0
C2591 C 0.37287 0.07845 0.38525 0.0
C2592 C 0.35653 0.08708 0.39849 0.0
C2593 C 0.4042 0.06263 0.35921 0.0
C2594 C 0.38841 0.07015 0.34475 0.0
C2595 C 0.37298 0.07797 0.35787 0.0
C2596 C 0.386 0.0697 0.31602 0.0
C2597 C 0.41997 0.05387 0.34607 0.0
C2598 C 0.41535 0.06984 0.3005 0.0
C2599 C 0.41293 0.06859 0.27349 0.0
C2600 C 0.38106 0.06725 0.26161 0.0
C2601 C 0.35164 0.06749 0.27719 0.0
C2602 C 0.35412 0.06872 0.30417 0.0
H2603 H 0.42453 0.04781 0.36006 0.0
H2604 H 0.40349 0.05115 0.33004 0.0
H2605 H 0.44476 0.05599 0.33747 0.0
H2606 H 0.44014 0.07075 0.30935 0.0
H2607 H 0.43603 0.06852 0.262 0.0
H2608 H 0.59924 0.8 0.01953 0.0
H2609 H 0.60331 0.80092 0.06706 0.0
H2610 H 0.69676 0.81713 0.06043 0.0
H2611 H 0.69293 0.81631 0.01268 0.0
H2612 H 0.65894 0.79455 0.1004 0.0
H2613 H 0.63145 0.83436 0.10602 0.0
H2614 H 0.62191 0.82717 0.07736 0.0
H2615 H 0.66493 0.83061 0.08428 0.0
C2616 C 0.62074 0.80374 0.02812 0.0
C2617 C 0.64566 0.80814 0.01237 0.0
C2618 C 0.62303 0.80424 0.05525 0.0
C2619 C 0.65012 0.80917 0.06705 0.0
C2620 C 0.67547 0.81339 0.05151 0.0
H2621 H 0.68894 0.8076 0.23496 0.0
H2622 H 0.69649 0.80747 0.18751 0.0
C2623 C 0.67328 0.81288 0.02431 0.0
C2624 C 0.65126 0.80999 0.09571 0.0
H2625 H 0.64037 0.82609 0.14582 0.0
C2626 C 0.65522 0.80144 0.11042 0.0
C2627 C 0.646 0.819 0.10846 0.0
C2628 C 0.64059 0.82833 0.09333 0.0
C2629 C 0.65362 0.80165 0.13775 0.0
C2630 C 0.64825 0.81066 0.1505 0.0
C2631 C 0.6447 0.81923 0.13581 0.0
C2632 C 0.64432 0.81123 0.17906 0.0
C2633 C 0.6565 0.79221 0.15278 0.0
C2634 C 0.61265 0.81361 0.18978 0.0
C2635 C 0.60819 0.8137 0.21681 0.0
C2636 C 0.63545 0.81145 0.23351 0.0
C2637 C 0.6674 0.80931 0.22262 0.0
C2638 C 0.67178 0.8092 0.19557 0.0
H2639 H 0.65459 0.78573 0.13981 0.0
H2640 H 0.68143 0.79196 0.16287 0.0
H2641 H 0.63635 0.79174 0.16792 0.0
H2642 H 0.59123 0.81521 0.1772 0.0
H2643 H 0.58331 0.81541 0.22458 0.0
H2644 H 0.68178 0.43789 0.00674 0.0
H2645 H 0.68849 0.43689 0.05414 0.0
H2646 H 0.57964 0.43759 0.06352 0.0
H2647 H 0.5726 0.43838 0.01616 0.0
H2648 H 0.66799 0.45044 0.08952 0.0
H2649 H 0.60611 0.415 0.11032 0.0
H2650 H 0.61849 0.41862 0.07775 0.0
H2651 H 0.57942 0.42301 0.09171 0.0
C2652 C 0.65924 0.43773 0.01887 0.0
C2653 C 0.62664 0.43821 0.00773 0.0
C2654 C 0.66315 0.43714 0.04592 0.0
C2655 C 0.63456 0.43701 0.06223 0.0
C2656 C 0.60199 0.43743 0.05119 0.0
H2657 H 0.58571 0.44619 0.22176 0.0
H2658 H 0.58873 0.44442 0.17431 0.0
C2659 C 0.59803 0.43795 0.02414 0.0
C2660 C 0.63875 0.43716 0.09087 0.0
H2661 H 0.61374 0.42577 0.14693 0.0
C2662 C 0.65661 0.44497 0.10209 0.0
C2663 C 0.62395 0.42998 0.10711 0.0
C2664 C 0.60622 0.42113 0.0961 0.0
C2665 C 0.65878 0.44602 0.12927 0.0
C2666 C 0.64275 0.43907 0.14541 0.0
C2667 C 0.6258 0.4311 0.13429 0.0
C2668 C 0.64166 0.44025 0.17394 0.0
C2669 C 0.67701 0.45472 0.14062 0.0
C2670 C 0.67057 0.43848 0.18916 0.0
C2671 C 0.66897 0.43946 0.2163 0.0
C2672 C 0.63843 0.44223 0.22846 0.0
C2673 C 0.60964 0.44407 0.21298 0.0
C2674 C 0.61124 0.44304 0.18593 0.0
H2675 H 0.68528 0.45996 0.12532 0.0
H2676 H 0.66026 0.45858 0.1547 0.0
H2677 H 0.69977 0.45221 0.1515 0.0
H2678 H 0.69419 0.43627 0.18006 0.0
H2679 H 0.69156 0.43799 0.22771 0.0
H2680 H 0.32032 0.18419 0.76175 0.0
H2681 H 0.31625 0.1825 0.80924 0.0
H2682 H 0.4252 0.18459 0.81554 0.0
H2683 H 0.42969 0.18616 0.76812 0.0
H2684 H 0.39538 0.16974 0.84692 0.0
H2685 H 0.33201 0.20573 0.85897 0.0
H2686 H 0.31168 0.19748 0.83662 0.0
H2687 H 0.35308 0.20221 0.82909 0.0
C2688 C 0.34344 0.18425 0.77321 0.0
C2689 C 0.37532 0.1854 0.7612 0.0
C2690 C 0.34103 0.18331 0.80031 0.0
C2691 C 0.37039 0.18357 0.81578 0.0
C2692 C 0.40228 0.18441 0.80384 0.0
H2693 H 0.42333 0.1861 0.97839 0.0
H2694 H 0.4225 0.18425 0.93089 0.0
C2695 C 0.40475 0.18533 0.77676 0.0
C2696 C 0.36796 0.18329 0.84451 0.0
H2697 H 0.33975 0.19629 0.89701 0.0
C2698 C 0.38315 0.17551 0.85793 0.0
C2699 C 0.35201 0.19087 0.85866 0.0
C2700 C 0.33649 0.19959 0.84519 0.0
C2701 C 0.38275 0.1751 0.88531 0.0
C2702 C 0.36718 0.18274 0.89943 0.0
C2703 C 0.35156 0.19044 0.886 0.0
C2704 C 0.3678 0.18312 0.92822 0.0
C2705 C 0.39879 0.16649 0.89889 0.0
C2706 C 0.33727 0.18322 0.94228 0.0
C2707 C 0.33761 0.18434 0.96937 0.0
C2708 C 0.36853 0.18546 0.98281 0.0
C2709 C 0.39911 0.18524 0.96864 0.0
C2710 C 0.39872 0.18411 0.94153 0.0
H2711 H 0.40151 0.16015 0.88553 0.0
H2712 H 0.4245 0.16856 0.90581 0.0
H2713 H 0.38356 0.16423 0.91614 0.0
H2714 H 0.31316 0.18253 0.93223 0.0
H2715 H 0.3136 0.18447 0.9797 0.0
H2716 H 0.332 0.56723 0.97445 0.0
H2717 H 0.33554 0.56943 0.92707 0.0
H2718 H 0.44422 0.57266 0.93266 0.0
H2719 H 0.44112 0.57035 0.97995 0.0
H2720 H 0.36433 0.58498 0.896 0.0
H2721 H 0.42985 0.54936 0.88237 0.0
H2722 H 0.4084 0.55255 0.91235 0.0
H2723 H 0.44935 0.55764 0.90509 0.0
C2724 C 0.35664 0.56847 0.96564 0.0
C2725 C 0.38632 0.5685 0.98091 0.0
C2726 C 0.35858 0.56975 0.93862 0.0
C2727 C 0.39018 0.57106 0.92649 0.0
C2728 C 0.41968 0.5715 0.94173 0.0
H2729 H 0.43752 0.56896 0.75993 0.0
H2730 H 0.4426 0.57173 0.80704 0.0
C2731 C 0.41781 0.5702 0.96872 0.0
C2732 C 0.3923 0.57151 0.89776 0.0
H2733 H 0.41964 0.5587 0.84466 0.0
C2734 C 0.37658 0.57928 0.88471 0.0
C2735 C 0.40844 0.56405 0.88326 0.0
C2736 C 0.42478 0.55538 0.89638 0.0
C2737 C 0.37624 0.57975 0.85734 0.0
C2738 C 0.39154 0.57215 0.84284 0.0
C2739 C 0.40808 0.56453 0.85592 0.0
C2740 C 0.38846 0.57152 0.81416 0.0
C2741 C 0.35944 0.58833 0.84418 0.0
C2742 C 0.35633 0.57048 0.80272 0.0
C2743 C 0.35331 0.56888 0.77592 0.0
C2744 C 0.38243 0.56821 0.76011 0.0
C2745 C 0.41461 0.56943 0.77158 0.0
C2746 C 0.41758 0.57103 0.79844 0.0
H2747 H 0.35843 0.59477 0.85733 0.0
H2748 H 0.37303 0.59039 0.82597 0.0
H2749 H 0.33298 0.58635 0.83897 0.0
H2750 H 0.3336 0.5706 0.81464 0.0
H2751 H 0.32816 0.56796 0.76773 0.0
loop_
_geom_bond_atom_site_label_1
_geom_bond_atom_site_label_2
_geom_bond_distance
_geom_bond_site_symmetry_2
_ccdc_geom_bond_type
O0 Cd1 2.223 . S
O0 C8 1.315 . S
Cd1 O0 2.223 . S
Cd1 O4 2.297 . S
Cd1 O5 2.439 . S
Cd1 O11 2.240 . S
Cd2 O3 2.240 . S
Cd2 O10 2.223 . S
Cd2 O12 2.297 . S
Cd2 O13 2.439 . S
O3 Cd2 2.240 . S
O3 C8 1.279 . S
O4 Cd1 2.297 . S
O4 C6 1.247 . S
O5 Cd1 2.439 . S
O5 C6 1.208 . S
C6 O4 1.247 . S
C6 O5 1.208 . S
C7 O12 1.247 . S
C7 O13 1.208 . S
C8 O0 1.315 . S
C8 O3 1.279 . S
C9 O10 1.315 . S
C9 O11 1.279 . S
O10 Cd2 2.223 . S
O10 C9 1.315 . S
O11 Cd1 2.240 . S
O11 C9 1.279 . S
O12 Cd2 2.297 . S
O12 C7 1.247 . S
O13 Cd2 2.439 . S
O13 C7 1.208 . S
O14 Cd15 2.223 . S
O14 C22 1.315 . S
Cd15 O14 2.223 . S
Cd15 O18 2.297 . S
Cd15 O19 2.439 . S
Cd15 O25 2.240 . S
Cd16 O17 2.240 . S
Cd16 O24 2.223 . S
Cd16 O26 2.297 . S
Cd16 O27 2.439 . S
O17 Cd16 2.240 . S
O17 C22 1.279 . S
O18 Cd15 2.297 . S
O18 C20 1.247 . S
O19 Cd15 2.439 . S
O19 C20 1.208 . S
C20 O18 1.247 . S
C20 O19 1.208 . S
C21 O26 1.247 . S
C21 O27 1.208 . S
C22 O14 1.315 . S
C22 O17 1.279 . S
C23 O24 1.315 . S
C23 O25 1.279 . S
O24 Cd16 2.223 . S
O24 C23 1.315 . S
O25 Cd15 2.240 . S
O25 C23 1.279 . S
O26 Cd16 2.297 . S
O26 C21 1.247 . S
O27 Cd16 2.439 . S
O27 C21 1.208 . S
O28 Cd29 2.223 . S
O28 C36 1.315 . S
Cd29 O28 2.223 . S
Cd29 O32 2.297 . S
Cd29 O33 2.439 . S
Cd29 O39 2.240 . S
Cd30 O31 2.240 . S
Cd30 O38 2.223 . S
Cd30 O40 2.297 . S
Cd30 O41 2.439 . S
O31 Cd30 2.240 . S
O31 C36 1.279 . S
O32 Cd29 2.297 . S
O32 C34 1.247 . S
O33 Cd29 2.439 . S
O33 C34 1.208 . S
C34 O32 1.247 . S
C34 O33 1.208 . S
C35 O40 1.247 . S
C35 O41 1.208 . S
C36 O28 1.315 . S
C36 O31 1.279 . S
C37 O38 1.315 . S
C37 O39 1.279 . S
O38 Cd30 2.223 . S
O38 C37 1.315 . S
O39 Cd29 2.240 . S
O39 C37 1.279 . S
O40 Cd30 2.297 . S
O40 C35 1.247 . S
O41 Cd30 2.439 . S
O41 C35 1.208 . S
O42 Cd43 2.223 . S
O42 C50 1.315 . S
Cd43 O42 2.223 . S
Cd43 O46 2.297 . S
Cd43 O47 2.439 . S
Cd43 O53 2.240 . S
Cd44 O45 2.240 . S
Cd44 O52 2.223 . S
Cd44 O54 2.297 . S
Cd44 O55 2.439 . S
O45 Cd44 2.240 . S
O45 C50 1.279 . S
O46 Cd43 2.297 . S
O46 C48 1.247 . S
O47 Cd43 2.439 . S
O47 C48 1.208 . S
C48 O46 1.247 . S
C48 O47 1.208 . S
C49 O54 1.247 . S
C49 O55 1.208 . S
C50 O42 1.315 . S
C50 O45 1.279 . S
C51 O52 1.315 . S
C51 O53 1.279 . S
O52 Cd44 2.223 . S
O52 C51 1.315 . S
O53 Cd43 2.240 . S
O53 C51 1.279 . S
O54 Cd44 2.297 . S
O54 C49 1.247 . S
O55 Cd44 2.439 . S
O55 C49 1.208 . S
O56 Cd57 2.223 . S
O56 C64 1.315 . S
Cd57 O56 2.223 . S
Cd57 O60 2.297 . S
Cd57 O61 2.439 . S
Cd57 O67 2.240 . S
Cd58 O59 2.240 . S
Cd58 O66 2.223 . S
Cd58 O68 2.297 . S
Cd58 O69 2.439 . S
O59 Cd58 2.240 . S
O59 C64 1.279 . S
O60 Cd57 2.297 . S
O60 C62 1.247 . S
O61 Cd57 2.439 . S
O61 C62 1.208 . S
C62 O60 1.247 . S
C62 O61 1.208 . S
C63 O68 1.247 . S
C63 O69 1.208 . S
C64 O56 1.315 . S
C64 O59 1.279 . S
C65 O66 1.315 . S
C65 O67 1.279 . S
O66 Cd58 2.223 . S
O66 C65 1.315 . S
O67 Cd57 2.240 . S
O67 C65 1.279 . S
O68 Cd58 2.297 . S
O68 C63 1.247 . S
O69 Cd58 2.439 . S
O69 C63 1.208 . S
O70 Cd71 2.223 . S
O70 C78 1.315 . S
Cd71 O70 2.223 . S
Cd71 O74 2.297 . S
Cd71 O75 2.439 . S
Cd71 O81 2.240 . S
Cd72 O73 2.240 . S
Cd72 O80 2.223 . S
Cd72 O82 2.297 . S
Cd72 O83 2.439 . S
O73 Cd72 2.240 . S
O73 C78 1.279 . S
O74 Cd71 2.297 . S
O74 C76 1.247 . S
O75 Cd71 2.439 . S
O75 C76 1.208 . S
C76 O74 1.247 . S
C76 O75 1.208 . S
C77 O82 1.247 . S
C77 O83 1.208 . S
C78 O70 1.315 . S
C78 O73 1.279 . S
C79 O80 1.315 . S
C79 O81 1.279 . S
O80 Cd72 2.223 . S
O80 C79 1.315 . S
O81 Cd71 2.240 . S
O81 C79 1.279 . S
O82 Cd72 2.297 . S
O82 C77 1.247 . S
O83 Cd72 2.439 . S
O83 C77 1.208 . S
O84 Cd85 2.223 . S
O84 C92 1.315 . S
Cd85 O84 2.223 . S
Cd85 O88 2.297 . S
Cd85 O89 2.439 . S
Cd85 O95 2.240 . S
Cd86 O87 2.240 . S
Cd86 O94 2.223 . S
Cd86 O96 2.297 . S
Cd86 O97 2.439 . S
O87 Cd86 2.240 . S
O87 C92 1.279 . S
O88 Cd85 2.297 . S
O88 C90 1.247 . S
O89 Cd85 2.439 . S
O89 C90 1.208 . S
C90 O88 1.247 . S
C90 O89 1.208 . S
C91 O96 1.247 . S
C91 O97 1.208 . S
C92 O84 1.315 . S
C92 O87 1.279 . S
C93 O94 1.315 . S
C93 O95 1.279 . S
O94 Cd86 2.223 . S
O94 C93 1.315 . S
O95 Cd85 2.240 . S
O95 C93 1.279 . S
O96 Cd86 2.297 . S
O96 C91 1.247 . S
O97 Cd86 2.439 . S
O97 C91 1.208 . S
O98 Cd99 2.223 . S
O98 C106 1.315 . S
Cd99 O98 2.223 . S
Cd99 O102 2.297 . S
Cd99 O103 2.439 . S
Cd99 O109 2.240 . S
Cd100 O101 2.240 . S
Cd100 O108 2.223 . S
Cd100 O110 2.297 . S
Cd100 O111 2.439 . S
O101 Cd100 2.240 . S
O101 C106 1.279 . S
O102 Cd99 2.297 . S
O102 C104 1.247 . S
O103 Cd99 2.439 . S
O103 C104 1.208 . S
C104 O102 1.247 . S
C104 O103 1.208 . S
C105 O110 1.247 . S
C105 O111 1.208 . S
C106 O98 1.315 . S
C106 O101 1.279 . S
C107 O108 1.315 . S
C107 O109 1.279 . S
O108 Cd100 2.223 . S
O108 C107 1.315 . S
O109 Cd99 2.240 . S
O109 C107 1.279 . S
O110 Cd100 2.297 . S
O110 C105 1.247 . S
O111 Cd100 2.439 . S
O111 C105 1.208 . S
O112 Cd113 2.223 . S
O112 C120 1.315 . S
Cd113 O112 2.223 . S
Cd113 O116 2.297 . S
Cd113 O117 2.439 . S
Cd113 O123 2.240 . S
Cd114 O115 2.240 . S
Cd114 O122 2.223 . S
Cd114 O124 2.297 . S
Cd114 O125 2.439 . S
O115 Cd114 2.240 . S
O115 C120 1.279 . S
O116 Cd113 2.297 . S
O116 C118 1.247 . S
O117 Cd113 2.439 . S
O117 C118 1.208 . S
C118 O116 1.247 . S
C118 O117 1.208 . S
C119 O124 1.247 . S
C119 O125 1.208 . S
C120 O112 1.315 . S
C120 O115 1.279 . S
C121 O122 1.315 . S
C121 O123 1.279 . S
O122 Cd114 2.223 . S
O122 C121 1.315 . S
O123 Cd113 2.240 . S
O123 C121 1.279 . S
O124 Cd114 2.297 . S
O124 C119 1.247 . S
O125 Cd114 2.439 . S
O125 C119 1.208 . S
O126 Cd127 2.223 . S
O126 C134 1.315 . S
Cd127 O126 2.223 . S
Cd127 O130 2.297 . S
Cd127 O131 2.439 . S
Cd127 O137 2.240 . S
Cd128 O129 2.240 . S
Cd128 O136 2.223 . S
Cd128 O138 2.297 . S
Cd128 O139 2.439 . S
O129 Cd128 2.240 . S
O129 C134 1.279 . S
O130 Cd127 2.297 . S
O130 C132 1.247 . S
O131 Cd127 2.439 . S
O131 C132 1.208 . S
C132 O130 1.247 . S
C132 O131 1.208 . S
C133 O138 1.247 . S
C133 O139 1.208 . S
C134 O126 1.315 . S
C134 O129 1.279 . S
C135 O136 1.315 . S
C135 O137 1.279 . S
O136 Cd128 2.223 . S
O136 C135 1.315 . S
O137 Cd127 2.240 . S
O137 C135 1.279 . S
O138 Cd128 2.297 . S
O138 C133 1.247 . S
O139 Cd128 2.439 . S
O139 C133 1.208 . S
O140 Cd141 2.223 . S
O140 C148 1.315 . S
Cd141 O140 2.223 . S
Cd141 O144 2.297 . S
Cd141 O145 2.439 . S
Cd141 O151 2.240 . S
Cd142 O143 2.240 . S
Cd142 O150 2.223 . S
Cd142 O152 2.297 . S
Cd142 O153 2.439 . S
O143 Cd142 2.240 . S
O143 C148 1.279 . S
O144 Cd141 2.297 . S
O144 C146 1.247 . S
O145 Cd141 2.439 . S
O145 C146 1.208 . S
C146 O144 1.247 . S
C146 O145 1.208 . S
C147 O152 1.247 . S
C147 O153 1.208 . S
C148 O140 1.315 . S
C148 O143 1.279 . S
C149 O150 1.315 . S
C149 O151 1.279 . S
O150 Cd142 2.223 . S
O150 C149 1.315 . S
O151 Cd141 2.240 . S
O151 C149 1.279 . S
O152 Cd142 2.297 . S
O152 C147 1.247 . S
O153 Cd142 2.439 . S
O153 C147 1.208 . S
O154 Cd155 2.223 . S
O154 C162 1.315 . S
Cd155 O154 2.223 . S
Cd155 O158 2.297 . S
Cd155 O159 2.439 . S
Cd155 O165 2.240 . S
Cd156 O157 2.240 . S
Cd156 O164 2.223 . S
Cd156 O166 2.297 . S
Cd156 O167 2.439 . S
O157 Cd156 2.240 . S
O157 C162 1.279 . S
O158 Cd155 2.297 . S
O158 C160 1.247 . S
O159 Cd155 2.439 . S
O159 C160 1.208 . S
C160 O158 1.247 . S
C160 O159 1.208 . S
C161 O166 1.247 . S
C161 O167 1.208 . S
C162 O154 1.315 . S
C162 O157 1.279 . S
C163 O164 1.315 . S
C163 O165 1.279 . S
O164 Cd156 2.223 . S
O164 C163 1.315 . S
O165 Cd155 2.240 . S
O165 C163 1.279 . S
O166 Cd156 2.297 . S
O166 C161 1.247 . S
O167 Cd156 2.439 . S
O167 C161 1.208 . S
O168 Cd169 2.223 . S
O168 C176 1.315 . S
Cd169 O168 2.223 . S
Cd169 O172 2.297 . S
Cd169 O173 2.439 . S
Cd169 O179 2.240 . S
Cd170 O171 2.240 . S
Cd170 O178 2.223 . S
Cd170 O180 2.297 . S
Cd170 O181 2.439 . S
O171 Cd170 2.240 . S
O171 C176 1.279 . S
O172 Cd169 2.297 . S
O172 C174 1.247 . S
O173 Cd169 2.439 . S
O173 C174 1.208 . S
C174 O172 1.247 . S
C174 O173 1.208 . S
C175 O180 1.247 . S
C175 O181 1.208 . S
C176 O168 1.315 . S
C176 O171 1.279 . S
C177 O178 1.315 . S
C177 O179 1.279 . S
O178 Cd170 2.223 . S
O178 C177 1.315 . S
O179 Cd169 2.240 . S
O179 C177 1.279 . S
O180 Cd170 2.297 . S
O180 C175 1.247 . S
O181 Cd170 2.439 . S
O181 C175 1.208 . S
O182 Cd183 2.223 . S
O182 C190 1.315 . S
Cd183 O182 2.223 . S
Cd183 O186 2.297 . S
Cd183 O187 2.439 . S
Cd183 O193 2.240 . S
Cd184 O185 2.240 . S
Cd184 O192 2.223 . S
Cd184 O194 2.297 . S
Cd184 O195 2.439 . S
O185 Cd184 2.240 . S
O185 C190 1.279 . S
O186 Cd183 2.297 . S
O186 C188 1.247 . S
O187 Cd183 2.439 . S
O187 C188 1.208 . S
C188 O186 1.247 . S
C188 O187 1.208 . S
C189 O194 1.247 . S
C189 O195 1.208 . S
C190 O182 1.315 . S
C190 O185 1.279 . S
C191 O192 1.315 . S
C191 O193 1.279 . S
O192 Cd184 2.223 . S
O192 C191 1.315 . S
O193 Cd183 2.240 . S
O193 C191 1.279 . S
O194 Cd184 2.297 . S
O194 C189 1.247 . S
O195 Cd184 2.439 . S
O195 C189 1.208 . S
O196 Cd197 2.223 . S
O196 C204 1.315 . S
Cd197 O196 2.223 . S
Cd197 O200 2.297 . S
Cd197 O201 2.439 . S
Cd197 O207 2.240 . S
Cd198 O199 2.240 . S
Cd198 O206 2.223 . S
Cd198 O208 2.297 . S
Cd198 O209 2.439 . S
O199 Cd198 2.240 . S
O199 C204 1.279 . S
O200 Cd197 2.297 . S
O200 C202 1.247 . S
O201 Cd197 2.439 . S
O201 C202 1.208 . S
C202 O200 1.247 . S
C202 O201 1.208 . S
C203 O208 1.247 . S
C203 O209 1.208 . S
C204 O196 1.315 . S
C204 O199 1.279 . S
C205 O206 1.315 . S
C205 O207 1.279 . S
O206 Cd198 2.223 . S
O206 C205 1.315 . S
O207 Cd197 2.240 . S
O207 C205 1.279 . S
O208 Cd198 2.297 . S
O208 C203 1.247 . S
O209 Cd198 2.439 . S
O209 C203 1.208 . S
O210 Cd211 2.223 . S
O210 C218 1.315 . S
Cd211 O210 2.223 . S
Cd211 O214 2.297 . S
Cd211 O215 2.439 . S
Cd211 O221 2.240 . S
Cd212 O213 2.240 . S
Cd212 O220 2.223 . S
Cd212 O222 2.297 . S
Cd212 O223 2.439 . S
O213 Cd212 2.240 . S
O213 C218 1.279 . S
O214 Cd211 2.297 . S
O214 C216 1.247 . S
O215 Cd211 2.439 . S
O215 C216 1.208 . S
C216 O214 1.247 . S
C216 O215 1.208 . S
C217 O222 1.247 . S
C217 O223 1.208 . S
C218 O210 1.315 . S
C218 O213 1.279 . S
C219 O220 1.315 . S
C219 O221 1.279 . S
O220 Cd212 2.223 . S
O220 C219 1.315 . S
O221 Cd211 2.240 . S
O221 C219 1.279 . S
O222 Cd212 2.297 . S
O222 C217 1.247 . S
O223 Cd212 2.439 . S
O223 C217 1.208 . S
O224 Cd225 2.223 . S
O224 C232 1.315 . S
Cd225 O224 2.223 . S
Cd225 O228 2.297 . S
Cd225 O229 2.439 . S
Cd225 O235 2.240 . S
Cd226 O227 2.240 . S
Cd226 O234 2.223 . S
Cd226 O236 2.297 . S
Cd226 O237 2.439 . S
O227 Cd226 2.240 . S
O227 C232 1.279 . S
O228 Cd225 2.297 . S
O228 C230 1.247 . S
O229 Cd225 2.439 . S
O229 C230 1.208 . S
C230 O228 1.247 . S
C230 O229 1.208 . S
C231 O236 1.247 . S
C231 O237 1.208 . S
C232 O224 1.315 . S
C232 O227 1.279 . S
C233 O234 1.315 . S
C233 O235 1.279 . S
O234 Cd226 2.223 . S
O234 C233 1.315 . S
O235 Cd225 2.240 . S
O235 C233 1.279 . S
O236 Cd226 2.297 . S
O236 C231 1.247 . S
O237 Cd226 2.439 . S
O237 C231 1.208 . S
O238 Cd239 2.223 . S
O238 C246 1.315 . S
Cd239 O238 2.223 . S
Cd239 O242 2.297 . S
Cd239 O243 2.439 . S
Cd239 O249 2.240 . S
Cd240 O241 2.240 . S
Cd240 O248 2.223 . S
Cd240 O250 2.297 . S
Cd240 O251 2.439 . S
O241 Cd240 2.240 . S
O241 C246 1.279 . S
O242 Cd239 2.297 . S
O242 C244 1.247 . S
O243 Cd239 2.439 . S
O243 C244 1.208 . S
C244 O242 1.247 . S
C244 O243 1.208 . S
C245 O250 1.247 . S
C245 O251 1.208 . S
C246 O238 1.315 . S
C246 O241 1.279 . S
C247 O248 1.315 . S
C247 O249 1.279 . S
O248 Cd240 2.223 . S
O248 C247 1.315 . S
O249 Cd239 2.240 . S
O249 C247 1.279 . S
O250 Cd240 2.297 . S
O250 C245 1.247 . S
O251 Cd240 2.439 . S
O251 C245 1.208 . S
O252 Cd253 2.223 . S
O252 C260 1.315 . S
Cd253 O252 2.223 . S
Cd253 O256 2.297 . S
Cd253 O257 2.439 . S
Cd253 O263 2.240 . S
Cd254 O255 2.240 . S
Cd254 O262 2.223 . S
Cd254 O264 2.297 . S
Cd254 O265 2.439 . S
O255 Cd254 2.240 . S
O255 C260 1.279 . S
O256 Cd253 2.297 . S
O256 C258 1.247 . S
O257 Cd253 2.439 . S
O257 C258 1.208 . S
C258 O256 1.247 . S
C258 O257 1.208 . S
C259 O264 1.247 . S
C259 O265 1.208 . S
C260 O252 1.315 . S
C260 O255 1.279 . S
C261 O262 1.315 . S
C261 O263 1.279 . S
O262 Cd254 2.223 . S
O262 C261 1.315 . S
O263 Cd253 2.240 . S
O263 C261 1.279 . S
O264 Cd254 2.297 . S
O264 C259 1.247 . S
O265 Cd254 2.439 . S
O265 C259 1.208 . S
O266 Cd267 2.223 . S
O266 C274 1.315 . S
Cd267 O266 2.223 . S
Cd267 O270 2.297 . S
Cd267 O271 2.439 . S
Cd267 O277 2.240 . S
Cd268 O269 2.240 . S
Cd268 O276 2.223 . S
Cd268 O278 2.297 . S
Cd268 O279 2.439 . S
O269 Cd268 2.240 . S
O269 C274 1.279 . S
O270 Cd267 2.297 . S
O270 C272 1.247 . S
O271 Cd267 2.439 . S
O271 C272 1.208 . S
C272 O270 1.247 . S
C272 O271 1.208 . S
C273 O278 1.247 . S
C273 O279 1.208 . S
C274 O266 1.315 . S
C274 O269 1.279 . S
C275 O276 1.315 . S
C275 O277 1.279 . S
O276 Cd268 2.223 . S
O276 C275 1.315 . S
O277 Cd267 2.240 . S
O277 C275 1.279 . S
O278 Cd268 2.297 . S
O278 C273 1.247 . S
O279 Cd268 2.439 . S
O279 C273 1.208 . S
O280 Cd281 2.223 . S
O280 C288 1.315 . S
Cd281 O280 2.223 . S
Cd281 O284 2.297 . S
Cd281 O285 2.439 . S
Cd281 O291 2.240 . S
Cd282 O283 2.240 . S
Cd282 O290 2.223 . S
Cd282 O292 2.297 . S
Cd282 O293 2.439 . S
O283 Cd282 2.240 . S
O283 C288 1.279 . S
O284 Cd281 2.297 . S
O284 C286 1.247 . S
O285 Cd281 2.439 . S
O285 C286 1.208 . S
C286 O284 1.247 . S
C286 O285 1.208 . S
C287 O292 1.247 . S
C287 O293 1.208 . S
C288 O280 1.315 . S
C288 O283 1.279 . S
C289 O290 1.315 . S
C289 O291 1.279 . S
O290 Cd282 2.223 . S
O290 C289 1.315 . S
O291 Cd281 2.240 . S
O291 C289 1.279 . S
O292 Cd282 2.297 . S
O292 C287 1.247 . S
O293 Cd282 2.439 . S
O293 C287 1.208 . S
O294 Cd295 2.223 . S
O294 C302 1.315 . S
Cd295 O294 2.223 . S
Cd295 O298 2.297 . S
Cd295 O299 2.439 . S
Cd295 O305 2.240 . S
Cd296 O297 2.240 . S
Cd296 O304 2.223 . S
Cd296 O306 2.297 . S
Cd296 O307 2.439 . S
O297 Cd296 2.240 . S
O297 C302 1.279 . S
O298 Cd295 2.297 . S
O298 C300 1.247 . S
O299 Cd295 2.439 . S
O299 C300 1.208 . S
C300 O298 1.247 . S
C300 O299 1.208 . S
C301 O306 1.247 . S
C301 O307 1.208 . S
C302 O294 1.315 . S
C302 O297 1.279 . S
C303 O304 1.315 . S
C303 O305 1.279 . S
O304 Cd296 2.223 . S
O304 C303 1.315 . S
O305 Cd295 2.240 . S
O305 C303 1.279 . S
O306 Cd296 2.297 . S
O306 C301 1.247 . S
O307 Cd296 2.439 . S
O307 C301 1.208 . S
O308 Cd309 2.223 . S
O308 C316 1.315 . S
Cd309 O308 2.223 . S
Cd309 O312 2.297 . S
Cd309 O313 2.439 . S
Cd309 O319 2.240 . S
Cd310 O311 2.240 . S
Cd310 O318 2.223 . S
Cd310 O320 2.297 . S
Cd310 O321 2.439 . S
O311 Cd310 2.240 . S
O311 C316 1.279 . S
O312 Cd309 2.297 . S
O312 C314 1.247 . S
O313 Cd309 2.439 . S
O313 C314 1.208 . S
C314 O312 1.247 . S
C314 O313 1.208 . S
C315 O320 1.247 . S
C315 O321 1.208 . S
C316 O308 1.315 . S
C316 O311 1.279 . S
C317 O318 1.315 . S
C317 O319 1.279 . S
O318 Cd310 2.223 . S
O318 C317 1.315 . S
O319 Cd309 2.240 . S
O319 C317 1.279 . S
O320 Cd310 2.297 . S
O320 C315 1.247 . S
O321 Cd310 2.439 . S
O321 C315 1.208 . S
O322 Cd323 2.223 . S
O322 C330 1.315 . S
Cd323 O322 2.223 . S
Cd323 O326 2.297 . S
Cd323 O327 2.439 . S
Cd323 O333 2.240 . S
Cd324 O325 2.240 . S
Cd324 O332 2.223 . S
Cd324 O334 2.297 . S
Cd324 O335 2.439 . S
O325 Cd324 2.240 . S
O325 C330 1.279 . S
O326 Cd323 2.297 . S
O326 C328 1.247 . S
O327 Cd323 2.439 . S
O327 C328 1.208 . S
C328 O326 1.247 . S
C328 O327 1.208 . S
C329 O334 1.247 . S
C329 O335 1.208 . S
C330 O322 1.315 . S
C330 O325 1.279 . S
C331 O332 1.315 . S
C331 O333 1.279 . S
O332 Cd324 2.223 . S
O332 C331 1.315 . S
O333 Cd323 2.240 . S
O333 C331 1.279 . S
O334 Cd324 2.297 . S
O334 C329 1.247 . S
O335 Cd324 2.439 . S
O335 C329 1.208 . S
O336 Cd337 2.223 . S
O336 C344 1.315 . S
Cd337 O336 2.223 . S
Cd337 O340 2.297 . S
Cd337 O341 2.439 . S
Cd337 O347 2.240 . S
Cd338 O339 2.240 . S
Cd338 O346 2.223 . S
Cd338 O348 2.297 . S
Cd338 O349 2.439 . S
O339 Cd338 2.240 . S
O339 C344 1.279 . S
O340 Cd337 2.297 . S
O340 C342 1.247 . S
O341 Cd337 2.439 . S
O341 C342 1.208 . S
C342 O340 1.247 . S
C342 O341 1.208 . S
C343 O348 1.247 . S
C343 O349 1.208 . S
C344 O336 1.315 . S
C344 O339 1.279 . S
C345 O346 1.315 . S
C345 O347 1.279 . S
O346 Cd338 2.223 . S
O346 C345 1.315 . S
O347 Cd337 2.240 . S
O347 C345 1.279 . S
O348 Cd338 2.297 . S
O348 C343 1.247 . S
O349 Cd338 2.439 . S
O349 C343 1.208 . S
O350 Cd351 2.223 . S
O350 C358 1.315 . S
Cd351 O350 2.223 . S
Cd351 O354 2.297 . S
Cd351 O355 2.439 . S
Cd351 O361 2.240 . S
Cd352 O353 2.240 . S
Cd352 O360 2.223 . S
Cd352 O362 2.297 . S
Cd352 O363 2.439 . S
O353 Cd352 2.240 . S
O353 C358 1.279 . S
O354 Cd351 2.297 . S
O354 C356 1.247 . S
O355 Cd351 2.439 . S
O355 C356 1.208 . S
C356 O354 1.247 . S
C356 O355 1.208 . S
C357 O362 1.247 . S
C357 O363 1.208 . S
C358 O350 1.315 . S
C358 O353 1.279 . S
C359 O360 1.315 . S
C359 O361 1.279 . S
O360 Cd352 2.223 . S
O360 C359 1.315 . S
O361 Cd351 2.240 . S
O361 C359 1.279 . S
O362 Cd352 2.297 . S
O362 C357 1.247 . S
O363 Cd352 2.439 . S
O363 C357 1.208 . S
O364 Cd365 2.223 . S
O364 C372 1.315 . S
Cd365 O364 2.223 . S
Cd365 O368 2.297 . S
Cd365 O369 2.439 . S
Cd365 O375 2.240 . S
Cd366 O367 2.240 . S
Cd366 O374 2.223 . S
Cd366 O376 2.297 . S
Cd366 O377 2.439 . S
O367 Cd366 2.240 . S
O367 C372 1.279 . S
O368 Cd365 2.297 . S
O368 C370 1.247 . S
O369 Cd365 2.439 . S
O369 C370 1.208 . S
C370 O368 1.247 . S
C370 O369 1.208 . S
C371 O376 1.247 . S
C371 O377 1.208 . S
C372 O364 1.315 . S
C372 O367 1.279 . S
C373 O374 1.315 . S
C373 O375 1.279 . S
O374 Cd366 2.223 . S
O374 C373 1.315 . S
O375 Cd365 2.240 . S
O375 C373 1.279 . S
O376 Cd366 2.297 . S
O376 C371 1.247 . S
O377 Cd366 2.439 . S
O377 C371 1.208 . S
O378 Cd379 2.223 . S
O378 C386 1.315 . S
Cd379 O378 2.223 . S
Cd379 O382 2.297 . S
Cd379 O383 2.439 . S
Cd379 O389 2.240 . S
Cd380 O381 2.240 . S
Cd380 O388 2.223 . S
Cd380 O390 2.297 . S
Cd380 O391 2.439 . S
O381 Cd380 2.240 . S
O381 C386 1.279 . S
O382 Cd379 2.297 . S
O382 C384 1.247 . S
O383 Cd379 2.439 . S
O383 C384 1.208 . S
C384 O382 1.247 . S
C384 O383 1.208 . S
C385 O390 1.247 . S
C385 O391 1.208 . S
C386 O378 1.315 . S
C386 O381 1.279 . S
C387 O388 1.315 . S
C387 O389 1.279 . S
O388 Cd380 2.223 . S
O388 C387 1.315 . S
O389 Cd379 2.240 . S
O389 C387 1.279 . S
O390 Cd380 2.297 . S
O390 C385 1.247 . S
O391 Cd380 2.439 . S
O391 C385 1.208 . S
O392 Cd393 2.223 . S
O392 C400 1.315 . S
Cd393 O392 2.223 . S
Cd393 O396 2.297 . S
Cd393 O397 2.439 . S
Cd393 O403 2.240 . S
Cd394 O395 2.240 . S
Cd394 O402 2.223 . S
Cd394 O404 2.297 . S
Cd394 O405 2.439 . S
O395 Cd394 2.240 . S
O395 C400 1.279 . S
O396 Cd393 2.297 . S
O396 C398 1.247 . S
O397 Cd393 2.439 . S
O397 C398 1.208 . S
C398 O396 1.247 . S
C398 O397 1.208 . S
C399 O404 1.247 . S
C399 O405 1.208 . S
C400 O392 1.315 . S
C400 O395 1.279 . S
C401 O402 1.315 . S
C401 O403 1.279 . S
O402 Cd394 2.223 . S
O402 C401 1.315 . S
O403 Cd393 2.240 . S
O403 C401 1.279 . S
O404 Cd394 2.297 . S
O404 C399 1.247 . S
O405 Cd394 2.439 . S
O405 C399 1.208 . S
O406 Cd407 2.223 . S
O406 C414 1.315 . S
Cd407 O406 2.223 . S
Cd407 O410 2.297 . S
Cd407 O411 2.439 . S
Cd407 O417 2.240 . S
Cd408 O409 2.240 . S
Cd408 O416 2.223 . S
Cd408 O418 2.297 . S
Cd408 O419 2.439 . S
O409 Cd408 2.240 . S
O409 C414 1.279 . S
O410 Cd407 2.297 . S
O410 C412 1.247 . S
O411 Cd407 2.439 . S
O411 C412 1.208 . S
C412 O410 1.247 . S
C412 O411 1.208 . S
C413 O418 1.247 . S
C413 O419 1.208 . S
C414 O406 1.315 . S
C414 O409 1.279 . S
C415 O416 1.315 . S
C415 O417 1.279 . S
O416 Cd408 2.223 . S
O416 C415 1.315 . S
O417 Cd407 2.240 . S
O417 C415 1.279 . S
O418 Cd408 2.297 . S
O418 C413 1.247 . S
O419 Cd408 2.439 . S
O419 C413 1.208 . S
O420 Cd421 2.223 . S
O420 C428 1.315 . S
Cd421 O420 2.223 . S
Cd421 O424 2.297 . S
Cd421 O425 2.439 . S
Cd421 O431 2.240 . S
Cd422 O423 2.240 . S
Cd422 O430 2.223 . S
Cd422 O432 2.297 . S
Cd422 O433 2.439 . S
O423 Cd422 2.240 . S
O423 C428 1.279 . S
O424 Cd421 2.297 . S
O424 C426 1.247 . S
O425 Cd421 2.439 . S
O425 C426 1.208 . S
C426 O424 1.247 . S
C426 O425 1.208 . S
C427 O432 1.247 . S
C427 O433 1.208 . S
C428 O420 1.315 . S
C428 O423 1.279 . S
C429 O430 1.315 . S
C429 O431 1.279 . S
O430 Cd422 2.223 . S
O430 C429 1.315 . S
O431 Cd421 2.240 . S
O431 C429 1.279 . S
O432 Cd422 2.297 . S
O432 C427 1.247 . S
O433 Cd422 2.439 . S
O433 C427 1.208 . S
O434 Cd435 2.223 . S
O434 C442 1.315 . S
Cd435 O434 2.223 . S
Cd435 O438 2.297 . S
Cd435 O439 2.439 . S
Cd435 O445 2.240 . S
Cd436 O437 2.240 . S
Cd436 O444 2.223 . S
Cd436 O446 2.297 . S
Cd436 O447 2.439 . S
O437 Cd436 2.240 . S
O437 C442 1.279 . S
O438 Cd435 2.297 . S
O438 C440 1.247 . S
O439 Cd435 2.439 . S
O439 C440 1.208 . S
C440 O438 1.247 . S
C440 O439 1.208 . S
C441 O446 1.247 . S
C441 O447 1.208 . S
C442 O434 1.315 . S
C442 O437 1.279 . S
C443 O444 1.315 . S
C443 O445 1.279 . S
O444 Cd436 2.223 . S
O444 C443 1.315 . S
O445 Cd435 2.240 . S
O445 C443 1.279 . S
O446 Cd436 2.297 . S
O446 C441 1.247 . S
O447 Cd436 2.439 . S
O447 C441 1.208 . S
H448 C456 0.929 . S
H449 C458 0.930 . S
H450 C460 0.930 . S
H451 C463 0.929 . S
H452 C466 0.930 . S
H453 C468 0.960 . S
H454 C468 0.960 . S
H455 C468 0.960 . S
C456 H448 0.929 . S
C456 C457 1.377 . S
C456 C458 1.384 . S
C457 C456 1.377 . S
C457 C463 1.390 . S
C458 H449 0.930 . S
C458 C456 1.384 . S
C458 C459 1.372 . S
C459 C458 1.372 . S
C459 C460 1.400 . S
C459 C464 1.490 . S
C460 H450 0.930 . S
C460 C459 1.400 . S
C460 C463 1.386 . S
H461 C477 0.930 . S
H462 C478 0.931 . S
C463 H451 0.929 . S
C463 C457 1.390 . S
C463 C460 1.386 . S
C464 C459 1.490 . S
C464 C466 1.395 . S
C464 C467 1.403 . S
H465 C471 0.930 . S
C466 H452 0.930 . S
C466 C464 1.395 . S
C466 C469 1.403 . S
C467 C464 1.403 . S
C467 C468 1.524 . S
C467 C471 1.400 . S
C468 H453 0.960 . S
C468 H454 0.960 . S
C468 H455 0.960 . S
C468 C467 1.524 . S
C469 C466 1.403 . S
C469 C470 1.392 . S
C469 C473 1.495 . S
C470 C469 1.392 . S
C470 C471 1.385 . S
C470 C472 1.478 . S
C471 H465 0.930 . S
C471 C467 1.400 . S
C471 C470 1.385 . S
C472 C470 1.478 . S
C472 C474 1.381 . S
C472 C478 1.383 . S
C473 C469 1.495 . S
C473 H479 0.959 . S
C473 H480 0.961 . S
C473 H481 0.960 . S
C474 C472 1.381 . S
C474 C475 1.394 . S
C474 H482 0.930 . S
C475 C474 1.394 . S
C475 C476 1.383 . S
C475 H483 0.929 . S
C476 C475 1.383 . S
C476 C477 1.377 . S
C477 H461 0.930 . S
C477 C476 1.377 . S
C477 C478 1.379 . S
C478 H462 0.931 . S
C478 C472 1.383 . S
C478 C477 1.379 . S
H479 C473 0.959 . S
H480 C473 0.961 . S
H481 C473 0.960 . S
H482 C474 0.930 . S
H483 C475 0.929 . S
H484 C492 0.929 . S
H485 C494 0.930 . S
H486 C496 0.930 . S
H487 C499 0.929 . S
H488 C502 0.930 . S
H489 C504 0.960 . S
H490 C504 0.960 . S
H491 C504 0.960 . S
C492 H484 0.929 . S
C492 C493 1.377 . S
C492 C494 1.384 . S
C493 C492 1.377 . S
C493 C499 1.390 . S
C494 H485 0.930 . S
C494 C492 1.384 . S
C494 C495 1.372 . S
C495 C494 1.372 . S
C495 C496 1.400 . S
C495 C500 1.490 . S
C496 H486 0.930 . S
C496 C495 1.400 . S
C496 C499 1.386 . S
H497 C513 0.930 . S
H498 C514 0.931 . S
C499 H487 0.929 . S
C499 C493 1.390 . S
C499 C496 1.386 . S
C500 C495 1.490 . S
C500 C502 1.395 . S
C500 C503 1.403 . S
H501 C507 0.930 . S
C502 H488 0.930 . S
C502 C500 1.395 . S
C502 C505 1.403 . S
C503 C500 1.403 . S
C503 C504 1.524 . S
C503 C507 1.400 . S
C504 H489 0.960 . S
C504 H490 0.960 . S
C504 H491 0.960 . S
C504 C503 1.524 . S
C505 C502 1.403 . S
C505 C506 1.392 . S
C505 C509 1.495 . S
C506 C505 1.392 . S
C506 C507 1.385 . S
C506 C508 1.478 . S
C507 H501 0.930 . S
C507 C503 1.400 . S
C507 C506 1.385 . S
C508 C506 1.478 . S
C508 C510 1.381 . S
C508 C514 1.383 . S
C509 C505 1.495 . S
C509 H515 0.959 . S
C509 H516 0.961 . S
C509 H517 0.960 . S
C510 C508 1.381 . S
C510 C511 1.394 . S
C510 H518 0.930 . S
C511 C510 1.394 . S
C511 C512 1.383 . S
C511 H519 0.929 . S
C512 C511 1.383 . S
C512 C513 1.377 . S
C513 H497 0.930 . S
C513 C512 1.377 . S
C513 C514 1.379 . S
C514 H498 0.931 . S
C514 C508 1.383 . S
C514 C513 1.379 . S
H515 C509 0.959 . S
H516 C509 0.961 . S
H517 C509 0.960 . S
H518 C510 0.930 . S
H519 C511 0.929 . S
H520 C528 0.929 . S
H521 C530 0.930 . S
H522 C532 0.930 . S
H523 C535 0.929 . S
H524 C538 0.930 . S
H525 C540 0.960 . S
H526 C540 0.960 . S
H527 C540 0.960 . S
C528 H520 0.929 . S
C528 C529 1.377 . S
C528 C530 1.384 . S
C529 C528 1.377 . S
C529 C535 1.390 . S
C530 H521 0.930 . S
C530 C528 1.384 . S
C530 C531 1.372 . S
C531 C530 1.372 . S
C531 C532 1.400 . S
C531 C536 1.490 . S
C532 H522 0.930 . S
C532 C531 1.400 . S
C532 C535 1.386 . S
H533 C549 0.930 . S
H534 C550 0.931 . S
C535 H523 0.929 . S
C535 C529 1.390 . S
C535 C532 1.386 . S
C536 C531 1.490 . S
C536 C538 1.395 . S
C536 C539 1.403 . S
H537 C543 0.930 . S
C538 H524 0.930 . S
C538 C536 1.395 . S
C538 C541 1.403 . S
C539 C536 1.403 . S
C539 C540 1.524 . S
C539 C543 1.400 . S
C540 H525 0.960 . S
C540 H526 0.960 . S
C540 H527 0.960 . S
C540 C539 1.524 . S
C541 C538 1.403 . S
C541 C542 1.392 . S
C541 C545 1.495 . S
C542 C541 1.392 . S
C542 C543 1.385 . S
C542 C544 1.478 . S
C543 H537 0.930 . S
C543 C539 1.400 . S
C543 C542 1.385 . S
C544 C542 1.478 . S
C544 C546 1.381 . S
C544 C550 1.383 . S
C545 C541 1.495 . S
C545 H551 0.959 . S
C545 H552 0.961 . S
C545 H553 0.960 . S
C546 C544 1.381 . S
C546 C547 1.394 . S
C546 H554 0.930 . S
C547 C546 1.394 . S
C547 C548 1.383 . S
C547 H555 0.929 . S
C548 C547 1.383 . S
C548 C549 1.377 . S
C549 H533 0.930 . S
C549 C548 1.377 . S
C549 C550 1.379 . S
C550 H534 0.931 . S
C550 C544 1.383 . S
C550 C549 1.379 . S
H551 C545 0.959 . S
H552 C545 0.961 . S
H553 C545 0.960 . S
H554 C546 0.930 . S
H555 C547 0.929 . S
H556 C564 0.929 . S
H557 C566 0.930 . S
H558 C568 0.930 . S
H559 C571 0.929 . S
H560 C574 0.930 . S
H561 C576 0.960 . S
H562 C576 0.960 . S
H563 C576 0.960 . S
C564 H556 0.929 . S
C564 C565 1.377 . S
C564 C566 1.384 . S
C565 C564 1.377 . S
C565 C571 1.390 . S
C566 H557 0.930 . S
C566 C564 1.384 . S
C566 C567 1.372 . S
C567 C566 1.372 . S
C567 C568 1.400 . S
C567 C572 1.490 . S
C568 H558 0.930 . S
C568 C567 1.400 . S
C568 C571 1.386 . S
H569 C585 0.930 . S
H570 C586 0.931 . S
C571 H559 0.929 . S
C571 C565 1.390 . S
C571 C568 1.386 . S
C572 C567 1.490 . S
C572 C574 1.395 . S
C572 C575 1.403 . S
H573 C579 0.930 . S
C574 H560 0.930 . S
C574 C572 1.395 . S
C574 C577 1.403 . S
C575 C572 1.403 . S
C575 C576 1.524 . S
C575 C579 1.400 . S
C576 H561 0.960 . S
C576 H562 0.960 . S
C576 H563 0.960 . S
C576 C575 1.524 . S
C577 C574 1.403 . S
C577 C578 1.392 . S
C577 C581 1.495 . S
C578 C577 1.392 . S
C578 C579 1.385 . S
C578 C580 1.478 . S
C579 H573 0.930 . S
C579 C575 1.400 . S
C579 C578 1.385 . S
C580 C578 1.478 . S
C580 C582 1.381 . S
C580 C586 1.383 . S
C581 C577 1.495 . S
C581 H587 0.959 . S
C581 H588 0.961 . S
C581 H589 0.960 . S
C582 C580 1.381 . S
C582 C583 1.394 . S
C582 H590 0.930 . S
C583 C582 1.394 . S
C583 C584 1.383 . S
C583 H591 0.929 . S
C584 C583 1.383 . S
C584 C585 1.377 . S
C585 H569 0.930 . S
C585 C584 1.377 . S
C585 C586 1.379 . S
C586 H570 0.931 . S
C586 C580 1.383 . S
C586 C585 1.379 . S
H587 C581 0.959 . S
H588 C581 0.961 . S
H589 C581 0.960 . S
H590 C582 0.930 . S
H591 C583 0.929 . S
H592 C600 0.929 . S
H593 C602 0.930 . S
H594 C604 0.930 . S
H595 C607 0.929 . S
H596 C610 0.930 . S
H597 C612 0.960 . S
H598 C612 0.960 . S
H599 C612 0.960 . S
C600 H592 0.929 . S
C600 C601 1.377 . S
C600 C602 1.384 . S
C601 C600 1.377 . S
C601 C607 1.390 . S
C602 H593 0.930 . S
C602 C600 1.384 . S
C602 C603 1.372 . S
C603 C602 1.372 . S
C603 C604 1.400 . S
C603 C608 1.490 . S
C604 H594 0.930 . S
C604 C603 1.400 . S
C604 C607 1.386 . S
H605 C621 0.930 . S
H606 C622 0.931 . S
C607 H595 0.929 . S
C607 C601 1.390 . S
C607 C604 1.386 . S
C608 C603 1.490 . S
C608 C610 1.395 . S
C608 C611 1.403 . S
H609 C615 0.930 . S
C610 H596 0.930 . S
C610 C608 1.395 . S
C610 C613 1.403 . S
C611 C608 1.403 . S
C611 C612 1.524 . S
C611 C615 1.400 . S
C612 H597 0.960 . S
C612 H598 0.960 . S
C612 H599 0.960 . S
C612 C611 1.524 . S
C613 C610 1.403 . S
C613 C614 1.392 . S
C613 C617 1.495 . S
C614 C613 1.392 . S
C614 C615 1.385 . S
C614 C616 1.478 . S
C615 H609 0.930 . S
C615 C611 1.400 . S
C615 C614 1.385 . S
C616 C614 1.478 . S
C616 C618 1.381 . S
C616 C622 1.383 . S
C617 C613 1.495 . S
C617 H623 0.959 . S
C617 H624 0.961 . S
C617 H625 0.960 . S
C618 C616 1.381 . S
C618 C619 1.394 . S
C618 H626 0.930 . S
C619 C618 1.394 . S
C619 C620 1.383 . S
C619 H627 0.929 . S
C620 C619 1.383 . S
C620 C621 1.377 . S
C621 H605 0.930 . S
C621 C620 1.377 . S
C621 C622 1.379 . S
C622 H606 0.931 . S
C622 C616 1.383 . S
C622 C621 1.379 . S
H623 C617 0.959 . S
H624 C617 0.961 . S
H625 C617 0.960 . S
H626 C618 0.930 . S
H627 C619 0.929 . S
H628 C636 0.929 . S
H629 C638 0.930 . S
H630 C640 0.930 . S
H631 C643 0.929 . S
H632 C646 0.930 . S
H633 C648 0.960 . S
H634 C648 0.960 . S
H635 C648 0.960 . S
C636 H628 0.929 . S
C636 C637 1.377 . S
C636 C638 1.384 . S
C637 C636 1.377 . S
C637 C643 1.390 . S
C638 H629 0.930 . S
C638 C636 1.384 . S
C638 C639 1.372 . S
C639 C638 1.372 . S
C639 C640 1.400 . S
C639 C644 1.490 . S
C640 H630 0.930 . S
C640 C639 1.400 . S
C640 C643 1.386 . S
H641 C657 0.930 . S
H642 C658 0.931 . S
C643 H631 0.929 . S
C643 C637 1.390 . S
C643 C640 1.386 . S
C644 C639 1.490 . S
C644 C646 1.395 . S
C644 C647 1.403 . S
H645 C651 0.930 . S
C646 H632 0.930 . S
C646 C644 1.395 . S
C646 C649 1.403 . S
C647 C644 1.403 . S
C647 C648 1.524 . S
C647 C651 1.400 . S
C648 H633 0.960 . S
C648 H634 0.960 . S
C648 H635 0.960 . S
C648 C647 1.524 . S
C649 C646 1.403 . S
C649 C650 1.392 . S
C649 C653 1.495 . S
C650 C649 1.392 . S
C650 C651 1.385 . S
C650 C652 1.478 . S
C651 H645 0.930 . S
C651 C647 1.400 . S
C651 C650 1.385 . S
C652 C650 1.478 . S
C652 C654 1.381 . S
C652 C658 1.383 . S
C653 C649 1.495 . S
C653 H659 0.959 . S
C653 H660 0.961 . S
C653 H661 0.960 . S
C654 C652 1.381 . S
C654 C655 1.394 . S
C654 H662 0.930 . S
C655 C654 1.394 . S
C655 C656 1.383 . S
C655 H663 0.929 . S
C656 C655 1.383 . S
C656 C657 1.377 . S
C657 H641 0.930 . S
C657 C656 1.377 . S
C657 C658 1.379 . S
C658 H642 0.931 . S
C658 C652 1.383 . S
C658 C657 1.379 . S
H659 C653 0.959 . S
H660 C653 0.961 . S
H661 C653 0.960 . S
H662 C654 0.930 . S
H663 C655 0.929 . S
H664 C672 0.929 . S
H665 C674 0.930 . S
H666 C676 0.930 . S
H667 C679 0.929 . S
H668 C682 0.930 . S
H669 C684 0.960 . S
H670 C684 0.960 . S
H671 C684 0.960 . S
C672 H664 0.929 . S
C672 C673 1.377 . S
C672 C674 1.384 . S
C673 C672 1.377 . S
C673 C679 1.390 . S
C674 H665 0.930 . S
C674 C672 1.384 . S
C674 C675 1.372 . S
C675 C674 1.372 . S
C675 C676 1.400 . S
C675 C680 1.490 . S
C676 H666 0.930 . S
C676 C675 1.400 . S
C676 C679 1.386 . S
H677 C693 0.930 . S
H678 C694 0.931 . S
C679 H667 0.929 . S
C679 C673 1.390 . S
C679 C676 1.386 . S
C680 C675 1.490 . S
C680 C682 1.395 . S
C680 C683 1.403 . S
H681 C687 0.930 . S
C682 H668 0.930 . S
C682 C680 1.395 . S
C682 C685 1.403 . S
C683 C680 1.403 . S
C683 C684 1.524 . S
C683 C687 1.400 . S
C684 H669 0.960 . S
C684 H670 0.960 . S
C684 H671 0.960 . S
C684 C683 1.524 . S
C685 C682 1.403 . S
C685 C686 1.392 . S
C685 C689 1.495 . S
C686 C685 1.392 . S
C686 C687 1.385 . S
C686 C688 1.478 . S
C687 H681 0.930 . S
C687 C683 1.400 . S
C687 C686 1.385 . S
C688 C686 1.478 . S
C688 C690 1.381 . S
C688 C694 1.383 . S
C689 C685 1.495 . S
C689 H695 0.959 . S
C689 H696 0.961 . S
C689 H697 0.960 . S
C690 C688 1.381 . S
C690 C691 1.394 . S
C690 H698 0.930 . S
C691 C690 1.394 . S
C691 C692 1.383 . S
C691 H699 0.929 . S
C692 C691 1.383 . S
C692 C693 1.377 . S
C693 H677 0.930 . S
C693 C692 1.377 . S
C693 C694 1.379 . S
C694 H678 0.931 . S
C694 C688 1.383 . S
C694 C693 1.379 . S
H695 C689 0.959 . S
H696 C689 0.961 . S
H697 C689 0.960 . S
H698 C690 0.930 . S
H699 C691 0.929 . S
H700 C708 0.929 . S
H701 C710 0.930 . S
H702 C712 0.930 . S
H703 C715 0.929 . S
H704 C718 0.930 . S
H705 C720 0.960 . S
H706 C720 0.960 . S
H707 C720 0.960 . S
C708 H700 0.929 . S
C708 C709 1.377 . S
C708 C710 1.384 . S
C709 C708 1.377 . S
C709 C715 1.390 . S
C710 H701 0.930 . S
C710 C708 1.384 . S
C710 C711 1.372 . S
C711 C710 1.372 . S
C711 C712 1.400 . S
C711 C716 1.490 . S
C712 H702 0.930 . S
C712 C711 1.400 . S
C712 C715 1.386 . S
H713 C729 0.930 . S
H714 C730 0.931 . S
C715 H703 0.929 . S
C715 C709 1.390 . S
C715 C712 1.386 . S
C716 C711 1.490 . S
C716 C718 1.395 . S
C716 C719 1.403 . S
H717 C723 0.930 . S
C718 H704 0.930 . S
C718 C716 1.395 . S
C718 C721 1.403 . S
C719 C716 1.403 . S
C719 C720 1.524 . S
C719 C723 1.400 . S
C720 H705 0.960 . S
C720 H706 0.960 . S
C720 H707 0.960 . S
C720 C719 1.524 . S
C721 C718 1.403 . S
C721 C722 1.392 . S
C721 C725 1.495 . S
C722 C721 1.392 . S
C722 C723 1.385 . S
C722 C724 1.478 . S
C723 H717 0.930 . S
C723 C719 1.400 . S
C723 C722 1.385 . S
C724 C722 1.478 . S
C724 C726 1.381 . S
C724 C730 1.383 . S
C725 C721 1.495 . S
C725 H731 0.959 . S
C725 H732 0.961 . S
C725 H733 0.960 . S
C726 C724 1.381 . S
C726 C727 1.394 . S
C726 H734 0.930 . S
C727 C726 1.394 . S
C727 C728 1.383 . S
C727 H735 0.929 . S
C728 C727 1.383 . S
C728 C729 1.377 . S
C729 H713 0.930 . S
C729 C728 1.377 . S
C729 C730 1.379 . S
C730 H714 0.931 . S
C730 C724 1.383 . S
C730 C729 1.379 . S
H731 C725 0.959 . S
H732 C725 0.961 . S
H733 C725 0.960 . S
H734 C726 0.930 . S
H735 C727 0.929 . S
H736 C744 0.929 . S
H737 C746 0.930 . S
H738 C748 0.930 . S
H739 C751 0.929 . S
H740 C754 0.930 . S
H741 C756 0.960 . S
H742 C756 0.960 . S
H743 C756 0.960 . S
C744 H736 0.929 . S
C744 C745 1.377 . S
C744 C746 1.384 . S
C745 C744 1.377 . S
C745 C751 1.390 . S
C746 H737 0.930 . S
C746 C744 1.384 . S
C746 C747 1.372 . S
C747 C746 1.372 . S
C747 C748 1.400 . S
C747 C752 1.490 . S
C748 H738 0.930 . S
C748 C747 1.400 . S
C748 C751 1.386 . S
H749 C765 0.930 . S
H750 C766 0.931 . S
C751 H739 0.929 . S
C751 C745 1.390 . S
C751 C748 1.386 . S
C752 C747 1.490 . S
C752 C754 1.395 . S
C752 C755 1.403 . S
H753 C759 0.930 . S
C754 H740 0.930 . S
C754 C752 1.395 . S
C754 C757 1.403 . S
C755 C752 1.403 . S
C755 C756 1.524 . S
C755 C759 1.400 . S
C756 H741 0.960 . S
C756 H742 0.960 . S
C756 H743 0.960 . S
C756 C755 1.524 . S
C757 C754 1.403 . S
C757 C758 1.392 . S
C757 C761 1.495 . S
C758 C757 1.392 . S
C758 C759 1.385 . S
C758 C760 1.478 . S
C759 H753 0.930 . S
C759 C755 1.400 . S
C759 C758 1.385 . S
C760 C758 1.478 . S
C760 C762 1.381 . S
C760 C766 1.383 . S
C761 C757 1.495 . S
C761 H767 0.959 . S
C761 H768 0.961 . S
C761 H769 0.960 . S
C762 C760 1.381 . S
C762 C763 1.394 . S
C762 H770 0.930 . S
C763 C762 1.394 . S
C763 C764 1.383 . S
C763 H771 0.929 . S
C764 C763 1.383 . S
C764 C765 1.377 . S
C765 H749 0.930 . S
C765 C764 1.377 . S
C765 C766 1.379 . S
C766 H750 0.931 . S
C766 C760 1.383 . S
C766 C765 1.379 . S
H767 C761 0.959 . S
H768 C761 0.961 . S
H769 C761 0.960 . S
H770 C762 0.930 . S
H771 C763 0.929 . S
H772 C780 0.929 . S
H773 C782 0.930 . S
H774 C784 0.930 . S
H775 C787 0.929 . S
H776 C790 0.930 . S
H777 C792 0.960 . S
H778 C792 0.960 . S
H779 C792 0.960 . S
C780 H772 0.929 . S
C780 C781 1.377 . S
C780 C782 1.384 . S
C781 C780 1.377 . S
C781 C787 1.390 . S
C782 H773 0.930 . S
C782 C780 1.384 . S
C782 C783 1.372 . S
C783 C782 1.372 . S
C783 C784 1.400 . S
C783 C788 1.490 . S
C784 H774 0.930 . S
C784 C783 1.400 . S
C784 C787 1.386 . S
H785 C801 0.930 . S
H786 C802 0.931 . S
C787 H775 0.929 . S
C787 C781 1.390 . S
C787 C784 1.386 . S
C788 C783 1.490 . S
C788 C790 1.395 . S
C788 C791 1.403 . S
H789 C795 0.930 . S
C790 H776 0.930 . S
C790 C788 1.395 . S
C790 C793 1.403 . S
C791 C788 1.403 . S
C791 C792 1.524 . S
C791 C795 1.400 . S
C792 H777 0.960 . S
C792 H778 0.960 . S
C792 H779 0.960 . S
C792 C791 1.524 . S
C793 C790 1.403 . S
C793 C794 1.392 . S
C793 C797 1.495 . S
C794 C793 1.392 . S
C794 C795 1.385 . S
C794 C796 1.478 . S
C795 H789 0.930 . S
C795 C791 1.400 . S
C795 C794 1.385 . S
C796 C794 1.478 . S
C796 C798 1.381 . S
C796 C802 1.383 . S
C797 C793 1.495 . S
C797 H803 0.959 . S
C797 H804 0.961 . S
C797 H805 0.960 . S
C798 C796 1.381 . S
C798 C799 1.394 . S
C798 H806 0.930 . S
C799 C798 1.394 . S
C799 C800 1.383 . S
C799 H807 0.929 . S
C800 C799 1.383 . S
C800 C801 1.377 . S
C801 H785 0.930 . S
C801 C800 1.377 . S
C801 C802 1.379 . S
C802 H786 0.931 . S
C802 C796 1.383 . S
C802 C801 1.379 . S
H803 C797 0.959 . S
H804 C797 0.961 . S
H805 C797 0.960 . S
H806 C798 0.930 . S
H807 C799 0.929 . S
H808 C816 0.929 . S
H809 C818 0.930 . S
H810 C820 0.930 . S
H811 C823 0.929 . S
H812 C826 0.930 . S
H813 C828 0.960 . S
H814 C828 0.960 . S
H815 C828 0.960 . S
C816 H808 0.929 . S
C816 C817 1.377 . S
C816 C818 1.384 . S
C817 C816 1.377 . S
C817 C823 1.390 . S
C818 H809 0.930 . S
C818 C816 1.384 . S
C818 C819 1.372 . S
C819 C818 1.372 . S
C819 C820 1.400 . S
C819 C824 1.490 . S
C820 H810 0.930 . S
C820 C819 1.400 . S
C820 C823 1.386 . S
H821 C837 0.930 . S
H822 C838 0.931 . S
C823 H811 0.929 . S
C823 C817 1.390 . S
C823 C820 1.386 . S
C824 C819 1.490 . S
C824 C826 1.395 . S
C824 C827 1.403 . S
H825 C831 0.930 . S
C826 H812 0.930 . S
C826 C824 1.395 . S
C826 C829 1.403 . S
C827 C824 1.403 . S
C827 C828 1.524 . S
C827 C831 1.400 . S
C828 H813 0.960 . S
C828 H814 0.960 . S
C828 H815 0.960 . S
C828 C827 1.524 . S
C829 C826 1.403 . S
C829 C830 1.392 . S
C829 C833 1.495 . S
C830 C829 1.392 . S
C830 C831 1.385 . S
C830 C832 1.478 . S
C831 H825 0.930 . S
C831 C827 1.400 . S
C831 C830 1.385 . S
C832 C830 1.478 . S
C832 C834 1.381 . S
C832 C838 1.383 . S
C833 C829 1.495 . S
C833 H839 0.959 . S
C833 H840 0.961 . S
C833 H841 0.960 . S
C834 C832 1.381 . S
C834 C835 1.394 . S
C834 H842 0.930 . S
C835 C834 1.394 . S
C835 C836 1.383 . S
C835 H843 0.929 . S
C836 C835 1.383 . S
C836 C837 1.377 . S
C837 H821 0.930 . S
C837 C836 1.377 . S
C837 C838 1.379 . S
C838 H822 0.931 . S
C838 C832 1.383 . S
C838 C837 1.379 . S
H839 C833 0.959 . S
H840 C833 0.961 . S
H841 C833 0.960 . S
H842 C834 0.930 . S
H843 C835 0.929 . S
H844 C852 0.929 . S
H845 C854 0.930 . S
H846 C856 0.930 . S
H847 C859 0.929 . S
H848 C862 0.930 . S
H849 C864 0.960 . S
H850 C864 0.960 . S
H851 C864 0.960 . S
C852 H844 0.929 . S
C852 C853 1.377 . S
C852 C854 1.384 . S
C853 C852 1.377 . S
C853 C859 1.390 . S
C854 H845 0.930 . S
C854 C852 1.384 . S
C854 C855 1.372 . S
C855 C854 1.372 . S
C855 C856 1.400 . S
C855 C860 1.490 . S
C856 H846 0.930 . S
C856 C855 1.400 . S
C856 C859 1.386 . S
H857 C873 0.930 . S
H858 C874 0.931 . S
C859 H847 0.929 . S
C859 C853 1.390 . S
C859 C856 1.386 . S
C860 C855 1.490 . S
C860 C862 1.395 . S
C860 C863 1.403 . S
H861 C867 0.930 . S
C862 H848 0.930 . S
C862 C860 1.395 . S
C862 C865 1.403 . S
C863 C860 1.403 . S
C863 C864 1.524 . S
C863 C867 1.400 . S
C864 H849 0.960 . S
C864 H850 0.960 . S
C864 H851 0.960 . S
C864 C863 1.524 . S
C865 C862 1.403 . S
C865 C866 1.392 . S
C865 C869 1.495 . S
C866 C865 1.392 . S
C866 C867 1.385 . S
C866 C868 1.478 . S
C867 H861 0.930 . S
C867 C863 1.400 . S
C867 C866 1.385 . S
C868 C866 1.478 . S
C868 C870 1.381 . S
C868 C874 1.383 . S
C869 C865 1.495 . S
C869 H875 0.959 . S
C869 H876 0.961 . S
C869 H877 0.960 . S
C870 C868 1.381 . S
C870 C871 1.394 . S
C870 H878 0.930 . S
C871 C870 1.394 . S
C871 C872 1.383 . S
C871 H879 0.929 . S
C872 C871 1.383 . S
C872 C873 1.377 . S
C873 H857 0.930 . S
C873 C872 1.377 . S
C873 C874 1.379 . S
C874 H858 0.931 . S
C874 C868 1.383 . S
C874 C873 1.379 . S
H875 C869 0.959 . S
H876 C869 0.961 . S
H877 C869 0.960 . S
H878 C870 0.930 . S
H879 C871 0.929 . S
H880 C888 0.929 . S
H881 C890 0.930 . S
H882 C892 0.930 . S
H883 C895 0.929 . S
H884 C898 0.930 . S
H885 C900 0.960 . S
H886 C900 0.960 . S
H887 C900 0.960 . S
C888 H880 0.929 . S
C888 C889 1.377 . S
C888 C890 1.384 . S
C889 C888 1.377 . S
C889 C895 1.390 . S
C890 H881 0.930 . S
C890 C888 1.384 . S
C890 C891 1.372 . S
C891 C890 1.372 . S
C891 C892 1.400 . S
C891 C896 1.490 . S
C892 H882 0.930 . S
C892 C891 1.400 . S
C892 C895 1.386 . S
H893 C909 0.930 . S
H894 C910 0.931 . S
C895 H883 0.929 . S
C895 C889 1.390 . S
C895 C892 1.386 . S
C896 C891 1.490 . S
C896 C898 1.395 . S
C896 C899 1.403 . S
H897 C903 0.930 . S
C898 H884 0.930 . S
C898 C896 1.395 . S
C898 C901 1.403 . S
C899 C896 1.403 . S
C899 C900 1.524 . S
C899 C903 1.400 . S
C900 H885 0.960 . S
C900 H886 0.960 . S
C900 H887 0.960 . S
C900 C899 1.524 . S
C901 C898 1.403 . S
C901 C902 1.392 . S
C901 C905 1.495 . S
C902 C901 1.392 . S
C902 C903 1.385 . S
C902 C904 1.478 . S
C903 H897 0.930 . S
C903 C899 1.400 . S
C903 C902 1.385 . S
C904 C902 1.478 . S
C904 C906 1.381 . S
C904 C910 1.383 . S
C905 C901 1.495 . S
C905 H911 0.959 . S
C905 H912 0.961 . S
C905 H913 0.960 . S
C906 C904 1.381 . S
C906 C907 1.394 . S
C906 H914 0.930 . S
C907 C906 1.394 . S
C907 C908 1.383 . S
C907 H915 0.929 . S
C908 C907 1.383 . S
C908 C909 1.377 . S
C909 H893 0.930 . S
C909 C908 1.377 . S
C909 C910 1.379 . S
C910 H894 0.931 . S
C910 C904 1.383 . S
C910 C909 1.379 . S
H911 C905 0.959 . S
H912 C905 0.961 . S
H913 C905 0.960 . S
H914 C906 0.930 . S
H915 C907 0.929 . S
H916 C924 0.929 . S
H917 C926 0.930 . S
H918 C928 0.930 . S
H919 C931 0.929 . S
H920 C934 0.930 . S
H921 C936 0.960 . S
H922 C936 0.960 . S
H923 C936 0.960 . S
C924 H916 0.929 . S
C924 C925 1.377 . S
C924 C926 1.384 . S
C925 C924 1.377 . S
C925 C931 1.390 . S
C926 H917 0.930 . S
C926 C924 1.384 . S
C926 C927 1.372 . S
C927 C926 1.372 . S
C927 C928 1.400 . S
C927 C932 1.490 . S
C928 H918 0.930 . S
C928 C927 1.400 . S
C928 C931 1.386 . S
H929 C945 0.930 . S
H930 C946 0.931 . S
C931 H919 0.929 . S
C931 C925 1.390 . S
C931 C928 1.386 . S
C932 C927 1.490 . S
C932 C934 1.395 . S
C932 C935 1.403 . S
H933 C939 0.930 . S
C934 H920 0.930 . S
C934 C932 1.395 . S
C934 C937 1.403 . S
C935 C932 1.403 . S
C935 C936 1.524 . S
C935 C939 1.400 . S
C936 H921 0.960 . S
C936 H922 0.960 . S
C936 H923 0.960 . S
C936 C935 1.524 . S
C937 C934 1.403 . S
C937 C938 1.392 . S
C937 C941 1.495 . S
C938 C937 1.392 . S
C938 C939 1.385 . S
C938 C940 1.478 . S
C939 H933 0.930 . S
C939 C935 1.400 . S
C939 C938 1.385 . S
C940 C938 1.478 . S
C940 C942 1.381 . S
C940 C946 1.383 . S
C941 C937 1.495 . S
C941 H947 0.959 . S
C941 H948 0.961 . S
C941 H949 0.960 . S
C942 C940 1.381 . S
C942 C943 1.394 . S
C942 H950 0.930 . S
C943 C942 1.394 . S
C943 C944 1.383 . S
C943 H951 0.929 . S
C944 C943 1.383 . S
C944 C945 1.377 . S
C945 H929 0.930 . S
C945 C944 1.377 . S
C945 C946 1.379 . S
C946 H930 0.931 . S
C946 C940 1.383 . S
C946 C945 1.379 . S
H947 C941 0.959 . S
H948 C941 0.961 . S
H949 C941 0.960 . S
H950 C942 0.930 . S
H951 C943 0.929 . S
H952 C960 0.929 . S
H953 C962 0.930 . S
H954 C964 0.930 . S
H955 C967 0.929 . S
H956 C970 0.930 . S
H957 C972 0.960 . S
H958 C972 0.960 . S
H959 C972 0.960 . S
C960 H952 0.929 . S
C960 C961 1.377 . S
C960 C962 1.384 . S
C961 C960 1.377 . S
C961 C967 1.390 . S
C962 H953 0.930 . S
C962 C960 1.384 . S
C962 C963 1.372 . S
C963 C962 1.372 . S
C963 C964 1.400 . S
C963 C968 1.490 . S
C964 H954 0.930 . S
C964 C963 1.400 . S
C964 C967 1.386 . S
H965 C981 0.930 . S
H966 C982 0.931 . S
C967 H955 0.929 . S
C967 C961 1.390 . S
C967 C964 1.386 . S
C968 C963 1.490 . S
C968 C970 1.395 . S
C968 C971 1.403 . S
H969 C975 0.930 . S
C970 H956 0.930 . S
C970 C968 1.395 . S
C970 C973 1.403 . S
C971 C968 1.403 . S
C971 C972 1.524 . S
C971 C975 1.400 . S
C972 H957 0.960 . S
C972 H958 0.960 . S
C972 H959 0.960 . S
C972 C971 1.524 . S
C973 C970 1.403 . S
C973 C974 1.392 . S
C973 C977 1.495 . S
C974 C973 1.392 . S
C974 C975 1.385 . S
C974 C976 1.478 . S
C975 H969 0.930 . S
C975 C971 1.400 . S
C975 C974 1.385 . S
C976 C974 1.478 . S
C976 C978 1.381 . S
C976 C982 1.383 . S
C977 C973 1.495 . S
C977 H983 0.959 . S
C977 H984 0.961 . S
C977 H985 0.960 . S
C978 C976 1.381 . S
C978 C979 1.394 . S
C978 H986 0.930 . S
C979 C978 1.394 . S
C979 C980 1.383 . S
C979 H987 0.929 . S
C980 C979 1.383 . S
C980 C981 1.377 . S
C981 H965 0.930 . S
C981 C980 1.377 . S
C981 C982 1.379 . S
C982 H966 0.931 . S
C982 C976 1.383 . S
C982 C981 1.379 . S
H983 C977 0.959 . S
H984 C977 0.961 . S
H985 C977 0.960 . S
H986 C978 0.930 . S
H987 C979 0.929 . S
H988 C996 0.929 . S
H989 C998 0.930 . S
H990 C1000 0.930 . S
H991 C1003 0.929 . S
H992 C1006 0.930 . S
H993 C1008 0.960 . S
H994 C1008 0.960 . S
H995 C1008 0.960 . S
C996 H988 0.929 . S
C996 C997 1.377 . S
C996 C998 1.384 . S
C997 C996 1.377 . S
C997 C1003 1.390 . S
C998 H989 0.930 . S
C998 C996 1.384 . S
C998 C999 1.372 . S
C999 C998 1.372 . S
C999 C1000 1.400 . S
C999 C1004 1.490 . S
C1000 H990 0.930 . S
C1000 C999 1.400 . S
C1000 C1003 1.386 . S
H1001 C1017 0.930 . S
H1002 C1018 0.931 . S
C1003 H991 0.929 . S
C1003 C997 1.390 . S
C1003 C1000 1.386 . S
C1004 C999 1.490 . S
C1004 C1006 1.395 . S
C1004 C1007 1.403 . S
H1005 C1011 0.930 . S
C1006 H992 0.930 . S
C1006 C1004 1.395 . S
C1006 C1009 1.403 . S
C1007 C1004 1.403 . S
C1007 C1008 1.524 . S
C1007 C1011 1.400 . S
C1008 H993 0.960 . S
C1008 H994 0.960 . S
C1008 H995 0.960 . S
C1008 C1007 1.524 . S
C1009 C1006 1.403 . S
C1009 C1010 1.392 . S
C1009 C1013 1.495 . S
C1010 C1009 1.392 . S
C1010 C1011 1.385 . S
C1010 C1012 1.478 . S
C1011 H1005 0.930 . S
C1011 C1007 1.400 . S
C1011 C1010 1.385 . S
C1012 C1010 1.478 . S
C1012 C1014 1.381 . S
C1012 C1018 1.383 . S
C1013 C1009 1.495 . S
C1013 H1019 0.959 . S
C1013 H1020 0.961 . S
C1013 H1021 0.960 . S
C1014 C1012 1.381 . S
C1014 C1015 1.394 . S
C1014 H1022 0.930 . S
C1015 C1014 1.394 . S
C1015 C1016 1.383 . S
C1015 H1023 0.929 . S
C1016 C1015 1.383 . S
C1016 C1017 1.377 . S
C1017 H1001 0.930 . S
C1017 C1016 1.377 . S
C1017 C1018 1.379 . S
C1018 H1002 0.931 . S
C1018 C1012 1.383 . S
C1018 C1017 1.379 . S
H1019 C1013 0.959 . S
H1020 C1013 0.961 . S
H1021 C1013 0.960 . S
H1022 C1014 0.930 . S
H1023 C1015 0.929 . S
H1024 C1032 0.929 . S
H1025 C1034 0.930 . S
H1026 C1036 0.930 . S
H1027 C1039 0.929 . S
H1028 C1042 0.930 . S
H1029 C1044 0.960 . S
H1030 C1044 0.960 . S
H1031 C1044 0.960 . S
C1032 H1024 0.929 . S
C1032 C1033 1.377 . S
C1032 C1034 1.384 . S
C1033 C1032 1.377 . S
C1033 C1039 1.390 . S
C1034 H1025 0.930 . S
C1034 C1032 1.384 . S
C1034 C1035 1.372 . S
C1035 C1034 1.372 . S
C1035 C1036 1.400 . S
C1035 C1040 1.490 . S
C1036 H1026 0.930 . S
C1036 C1035 1.400 . S
C1036 C1039 1.386 . S
H1037 C1053 0.930 . S
H1038 C1054 0.931 . S
C1039 H1027 0.929 . S
C1039 C1033 1.390 . S
C1039 C1036 1.386 . S
C1040 C1035 1.490 . S
C1040 C1042 1.395 . S
C1040 C1043 1.403 . S
H1041 C1047 0.930 . S
C1042 H1028 0.930 . S
C1042 C1040 1.395 . S
C1042 C1045 1.403 . S
C1043 C1040 1.403 . S
C1043 C1044 1.524 . S
C1043 C1047 1.400 . S
C1044 H1029 0.960 . S
C1044 H1030 0.960 . S
C1044 H1031 0.960 . S
C1044 C1043 1.524 . S
C1045 C1042 1.403 . S
C1045 C1046 1.392 . S
C1045 C1049 1.495 . S
C1046 C1045 1.392 . S
C1046 C1047 1.385 . S
C1046 C1048 1.478 . S
C1047 H1041 0.930 . S
C1047 C1043 1.400 . S
C1047 C1046 1.385 . S
C1048 C1046 1.478 . S
C1048 C1050 1.381 . S
C1048 C1054 1.383 . S
C1049 C1045 1.495 . S
C1049 H1055 0.959 . S
C1049 H1056 0.961 . S
C1049 H1057 0.960 . S
C1050 C1048 1.381 . S
C1050 C1051 1.394 . S
C1050 H1058 0.930 . S
C1051 C1050 1.394 . S
C1051 C1052 1.383 . S
C1051 H1059 0.929 . S
C1052 C1051 1.383 . S
C1052 C1053 1.377 . S
C1053 H1037 0.930 . S
C1053 C1052 1.377 . S
C1053 C1054 1.379 . S
C1054 H1038 0.931 . S
C1054 C1048 1.383 . S
C1054 C1053 1.379 . S
H1055 C1049 0.959 . S
H1056 C1049 0.961 . S
H1057 C1049 0.960 . S
H1058 C1050 0.930 . S
H1059 C1051 0.929 . S
H1060 C1068 0.929 . S
H1061 C1070 0.930 . S
H1062 C1072 0.930 . S
H1063 C1075 0.929 . S
H1064 C1078 0.930 . S
H1065 C1080 0.960 . S
H1066 C1080 0.960 . S
H1067 C1080 0.960 . S
C1068 H1060 0.929 . S
C1068 C1069 1.377 . S
C1068 C1070 1.384 1_455 S
C1069 C1068 1.377 . S
C1069 C1075 1.390 1_455 S
C1070 H1061 0.930 . S
C1070 C1068 1.384 1_655 S
C1070 C1071 1.372 . S
C1071 C1070 1.372 . S
C1071 C1072 1.400 . S
C1071 C1076 1.490 . S
C1072 H1062 0.930 . S
C1072 C1071 1.400 . S
C1072 C1075 1.386 . S
H1073 C1089 0.930 . S
H1074 C1090 0.931 . S
C1075 H1063 0.929 . S
C1075 C1069 1.390 1_655 S
C1075 C1072 1.386 . S
C1076 C1071 1.490 . S
C1076 C1078 1.395 . S
C1076 C1079 1.403 . S
H1077 C1083 0.930 . S
C1078 H1064 0.930 . S
C1078 C1076 1.395 . S
C1078 C1081 1.403 . S
C1079 C1076 1.403 . S
C1079 C1080 1.524 . S
C1079 C1083 1.400 . S
C1080 H1065 0.960 . S
C1080 H1066 0.960 . S
C1080 H1067 0.960 . S
C1080 C1079 1.524 . S
C1081 C1078 1.403 . S
C1081 C1082 1.392 . S
C1081 C1085 1.495 . S
C1082 C1081 1.392 . S
C1082 C1083 1.385 . S
C1082 C1084 1.478 . S
C1083 H1077 0.930 . S
C1083 C1079 1.400 . S
C1083 C1082 1.385 . S
C1084 C1082 1.478 . S
C1084 C1086 1.381 . S
C1084 C1090 1.383 . S
C1085 C1081 1.495 . S
C1085 H1091 0.959 . S
C1085 H1092 0.961 . S
C1085 H1093 0.960 . S
C1086 C1084 1.381 . S
C1086 C1087 1.394 . S
C1086 H1094 0.930 . S
C1087 C1086 1.394 . S
C1087 C1088 1.383 . S
C1087 H1095 0.929 . S
C1088 C1087 1.383 . S
C1088 C1089 1.377 . S
C1089 H1073 0.930 . S
C1089 C1088 1.377 . S
C1089 C1090 1.379 . S
C1090 H1074 0.931 . S
C1090 C1084 1.383 . S
C1090 C1089 1.379 . S
H1091 C1085 0.959 . S
H1092 C1085 0.961 . S
H1093 C1085 0.960 . S
H1094 C1086 0.930 . S
H1095 C1087 0.929 . S
H1096 C1104 0.929 . S
H1097 C1106 0.930 . S
H1098 C1108 0.930 . S
H1099 C1111 0.929 . S
H1100 C1114 0.930 . S
H1101 C1116 0.960 . S
H1102 C1116 0.960 . S
H1103 C1116 0.960 . S
C1104 H1096 0.929 . S
C1104 C1105 1.377 . S
C1104 C1106 1.384 . S
C1105 C1104 1.377 . S
C1105 C1111 1.390 . S
C1106 H1097 0.930 . S
C1106 C1104 1.384 . S
C1106 C1107 1.372 . S
C1107 C1106 1.372 . S
C1107 C1108 1.400 . S
C1107 C1112 1.490 . S
C1108 H1098 0.930 . S
C1108 C1107 1.400 . S
C1108 C1111 1.386 . S
H1109 C1125 0.930 . S
H1110 C1126 0.931 . S
C1111 H1099 0.929 . S
C1111 C1105 1.390 . S
C1111 C1108 1.386 . S
C1112 C1107 1.490 . S
C1112 C1114 1.395 . S
C1112 C1115 1.403 . S
H1113 C1119 0.930 . S
C1114 H1100 0.930 . S
C1114 C1112 1.395 . S
C1114 C1117 1.403 . S
C1115 C1112 1.403 . S
C1115 C1116 1.524 . S
C1115 C1119 1.400 . S
C1116 H1101 0.960 . S
C1116 H1102 0.960 . S
C1116 H1103 0.960 . S
C1116 C1115 1.524 . S
C1117 C1114 1.403 . S
C1117 C1118 1.392 . S
C1117 C1121 1.495 . S
C1118 C1117 1.392 . S
C1118 C1119 1.385 . S
C1118 C1120 1.478 . S
C1119 H1113 0.930 . S
C1119 C1115 1.400 . S
C1119 C1118 1.385 . S
C1120 C1118 1.478 . S
C1120 C1122 1.381 . S
C1120 C1126 1.383 . S
C1121 C1117 1.495 . S
C1121 H1127 0.959 . S
C1121 H1128 0.961 . S
C1121 H1129 0.960 . S
C1122 C1120 1.381 . S
C1122 C1123 1.394 . S
C1122 H1130 0.930 . S
C1123 C1122 1.394 . S
C1123 C1124 1.383 . S
C1123 H1131 0.929 . S
C1124 C1123 1.383 . S
C1124 C1125 1.377 . S
C1125 H1109 0.930 . S
C1125 C1124 1.377 . S
C1125 C1126 1.379 . S
C1126 H1110 0.931 . S
C1126 C1120 1.383 . S
C1126 C1125 1.379 . S
H1127 C1121 0.959 . S
H1128 C1121 0.961 . S
H1129 C1121 0.960 . S
H1130 C1122 0.930 . S
H1131 C1123 0.929 . S
H1132 C1140 0.929 . S
H1133 C1142 0.930 . S
H1134 C1144 0.930 . S
H1135 C1147 0.929 . S
H1136 C1150 0.930 . S
H1137 C1152 0.960 . S
H1138 C1152 0.960 . S
H1139 C1152 0.960 . S
C1140 H1132 0.929 . S
C1140 C1141 1.377 . S
C1140 C1142 1.384 . S
C1141 C1140 1.377 . S
C1141 C1147 1.390 . S
C1142 H1133 0.930 . S
C1142 C1140 1.384 . S
C1142 C1143 1.372 . S
C1143 C1142 1.372 . S
C1143 C1144 1.400 . S
C1143 C1148 1.490 . S
C1144 H1134 0.930 . S
C1144 C1143 1.400 . S
C1144 C1147 1.386 . S
H1145 C1161 0.930 1_455 S
H1146 C1162 0.931 . S
C1147 H1135 0.929 . S
C1147 C1141 1.390 . S
C1147 C1144 1.386 . S
C1148 C1143 1.490 . S
C1148 C1150 1.395 . S
C1148 C1151 1.403 . S
H1149 C1155 0.930 . S
C1150 H1136 0.930 . S
C1150 C1148 1.395 . S
C1150 C1153 1.403 . S
C1151 C1148 1.403 . S
C1151 C1152 1.524 . S
C1151 C1155 1.400 . S
C1152 H1137 0.960 . S
C1152 H1138 0.960 . S
C1152 H1139 0.960 . S
C1152 C1151 1.524 . S
C1153 C1150 1.403 . S
C1153 C1154 1.392 . S
C1153 C1157 1.495 . S
C1154 C1153 1.392 . S
C1154 C1155 1.385 . S
C1154 C1156 1.478 . S
C1155 H1149 0.930 . S
C1155 C1151 1.400 . S
C1155 C1154 1.385 . S
C1156 C1154 1.478 . S
C1156 C1158 1.381 . S
C1156 C1162 1.383 . S
C1157 C1153 1.495 . S
C1157 H1163 0.959 . S
C1157 H1164 0.961 . S
C1157 H1165 0.960 . S
C1158 C1156 1.381 . S
C1158 C1159 1.394 . S
C1158 H1166 0.930 . S
C1159 C1158 1.394 . S
C1159 C1160 1.383 1_655 S
C1159 H1167 0.929 1_655 S
C1160 C1159 1.383 1_455 S
C1160 C1161 1.377 1_455 S
C1161 H1145 0.930 1_655 S
C1161 C1160 1.377 1_655 S
C1161 C1162 1.379 . S
C1162 H1146 0.931 . S
C1162 C1156 1.383 . S
C1162 C1161 1.379 . S
H1163 C1157 0.959 . S
H1164 C1157 0.961 . S
H1165 C1157 0.960 . S
H1166 C1158 0.930 . S
H1167 C1159 0.929 1_455 S
H1168 C1176 0.929 . S
H1169 C1178 0.930 . S
H1170 C1180 0.930 . S
H1171 C1183 0.929 . S
H1172 C1186 0.930 . S
H1173 C1188 0.960 . S
H1174 C1188 0.960 . S
H1175 C1188 0.960 . S
C1176 H1168 0.929 . S
C1176 C1177 1.377 . S
C1176 C1178 1.384 . S
C1177 C1176 1.377 . S
C1177 C1183 1.390 . S
C1178 H1169 0.930 . S
C1178 C1176 1.384 . S
C1178 C1179 1.372 . S
C1179 C1178 1.372 . S
C1179 C1180 1.400 . S
C1179 C1184 1.490 . S
C1180 H1170 0.930 . S
C1180 C1179 1.400 . S
C1180 C1183 1.386 . S
H1181 C1197 0.930 . S
H1182 C1198 0.931 . S
C1183 H1171 0.929 . S
C1183 C1177 1.390 . S
C1183 C1180 1.386 . S
C1184 C1179 1.490 . S
C1184 C1186 1.395 . S
C1184 C1187 1.403 . S
H1185 C1191 0.930 . S
C1186 H1172 0.930 . S
C1186 C1184 1.395 . S
C1186 C1189 1.403 . S
C1187 C1184 1.403 . S
C1187 C1188 1.524 . S
C1187 C1191 1.400 . S
C1188 H1173 0.960 . S
C1188 H1174 0.960 . S
C1188 H1175 0.960 . S
C1188 C1187 1.524 . S
C1189 C1186 1.403 . S
C1189 C1190 1.392 . S
C1189 C1193 1.495 . S
C1190 C1189 1.392 . S
C1190 C1191 1.385 . S
C1190 C1192 1.478 . S
C1191 H1185 0.930 . S
C1191 C1187 1.400 . S
C1191 C1190 1.385 . S
C1192 C1190 1.478 . S
C1192 C1194 1.381 . S
C1192 C1198 1.383 . S
C1193 C1189 1.495 . S
C1193 H1199 0.959 . S
C1193 H1200 0.961 . S
C1193 H1201 0.960 . S
C1194 C1192 1.381 . S
C1194 C1195 1.394 . S
C1194 H1202 0.930 . S
C1195 C1194 1.394 . S
C1195 C1196 1.383 . S
C1195 H1203 0.929 . S
C1196 C1195 1.383 . S
C1196 C1197 1.377 . S
C1197 H1181 0.930 . S
C1197 C1196 1.377 . S
C1197 C1198 1.379 . S
C1198 H1182 0.931 . S
C1198 C1192 1.383 . S
C1198 C1197 1.379 . S
H1199 C1193 0.959 . S
H1200 C1193 0.961 . S
H1201 C1193 0.960 . S
H1202 C1194 0.930 . S
H1203 C1195 0.929 . S
H1204 C1212 0.929 1_655 S
H1205 C1214 0.930 . S
H1206 C1216 0.930 . S
H1207 C1219 0.929 1_655 S
H1208 C1222 0.930 . S
H1209 C1224 0.960 . S
H1210 C1224 0.960 . S
H1211 C1224 0.960 . S
C1212 H1204 0.929 1_455 S
C1212 C1213 1.377 1_455 S
C1212 C1214 1.384 . S
C1213 C1212 1.377 1_655 S
C1213 C1219 1.390 1_655 S
C1214 H1205 0.930 . S
C1214 C1212 1.384 . S
C1214 C1215 1.372 . S
C1215 C1214 1.372 . S
C1215 C1216 1.400 . S
C1215 C1220 1.490 . S
C1216 H1206 0.930 . S
C1216 C1215 1.400 . S
C1216 C1219 1.386 . S
H1217 C1233 0.930 . S
H1218 C1234 0.931 . S
C1219 H1207 0.929 1_455 S
C1219 C1213 1.390 1_455 S
C1219 C1216 1.386 . S
C1220 C1215 1.490 . S
C1220 C1222 1.395 . S
C1220 C1223 1.403 . S
H1221 C1227 0.930 . S
C1222 H1208 0.930 . S
C1222 C1220 1.395 . S
C1222 C1225 1.403 . S
C1223 C1220 1.403 . S
C1223 C1224 1.524 . S
C1223 C1227 1.400 . S
C1224 H1209 0.960 . S
C1224 H1210 0.960 . S
C1224 H1211 0.960 . S
C1224 C1223 1.524 . S
C1225 C1222 1.403 . S
C1225 C1226 1.392 . S
C1225 C1229 1.495 . S
C1226 C1225 1.392 . S
C1226 C1227 1.385 . S
C1226 C1228 1.478 . S
C1227 H1221 0.930 . S
C1227 C1223 1.400 . S
C1227 C1226 1.385 . S
C1228 C1226 1.478 . S
C1228 C1230 1.381 . S
C1228 C1234 1.383 . S
C1229 C1225 1.495 . S
C1229 H1235 0.959 . S
C1229 H1236 0.961 . S
C1229 H1237 0.960 . S
C1230 C1228 1.381 . S
C1230 C1231 1.394 . S
C1230 H1238 0.930 . S
C1231 C1230 1.394 . S
C1231 C1232 1.383 . S
C1231 H1239 0.929 . S
C1232 C1231 1.383 . S
C1232 C1233 1.377 . S
C1233 H1217 0.930 . S
C1233 C1232 1.377 . S
C1233 C1234 1.379 . S
C1234 H1218 0.931 . S
C1234 C1228 1.383 . S
C1234 C1233 1.379 . S
H1235 C1229 0.959 . S
H1236 C1229 0.961 . S
H1237 C1229 0.960 . S
H1238 C1230 0.930 . S
H1239 C1231 0.929 . S
H1240 C1248 0.929 . S
H1241 C1250 0.930 . S
H1242 C1252 0.930 . S
H1243 C1255 0.929 . S
H1244 C1258 0.930 . S
H1245 C1260 0.960 . S
H1246 C1260 0.960 . S
H1247 C1260 0.960 . S
C1248 H1240 0.929 . S
C1248 C1249 1.377 . S
C1248 C1250 1.384 . S
C1249 C1248 1.377 . S
C1249 C1255 1.390 . S
C1250 H1241 0.930 . S
C1250 C1248 1.384 . S
C1250 C1251 1.372 . S
C1251 C1250 1.372 . S
C1251 C1252 1.400 . S
C1251 C1256 1.490 . S
C1252 H1242 0.930 . S
C1252 C1251 1.400 . S
C1252 C1255 1.386 . S
H1253 C1269 0.930 . S
H1254 C1270 0.931 . S
C1255 H1243 0.929 . S
C1255 C1249 1.390 . S
C1255 C1252 1.386 . S
C1256 C1251 1.490 . S
C1256 C1258 1.395 . S
C1256 C1259 1.403 . S
H1257 C1263 0.930 . S
C1258 H1244 0.930 . S
C1258 C1256 1.395 . S
C1258 C1261 1.403 . S
C1259 C1256 1.403 . S
C1259 C1260 1.524 . S
C1259 C1263 1.400 . S
C1260 H1245 0.960 . S
C1260 H1246 0.960 . S
C1260 H1247 0.960 . S
C1260 C1259 1.524 . S
C1261 C1258 1.403 . S
C1261 C1262 1.392 . S
C1261 C1265 1.495 . S
C1262 C1261 1.392 . S
C1262 C1263 1.385 . S
C1262 C1264 1.478 . S
C1263 H1257 0.930 . S
C1263 C1259 1.400 . S
C1263 C1262 1.385 . S
C1264 C1262 1.478 . S
C1264 C1266 1.381 . S
C1264 C1270 1.383 . S
C1265 C1261 1.495 . S
C1265 H1271 0.959 . S
C1265 H1272 0.961 . S
C1265 H1273 0.960 . S
C1266 C1264 1.381 . S
C1266 C1267 1.394 . S
C1266 H1274 0.930 . S
C1267 C1266 1.394 . S
C1267 C1268 1.383 . S
C1267 H1275 0.929 . S
C1268 C1267 1.383 . S
C1268 C1269 1.377 . S
C1269 H1253 0.930 . S
C1269 C1268 1.377 . S
C1269 C1270 1.379 . S
C1270 H1254 0.931 . S
C1270 C1264 1.383 . S
C1270 C1269 1.379 . S
H1271 C1265 0.959 . S
H1272 C1265 0.961 . S
H1273 C1265 0.960 . S
H1274 C1266 0.930 . S
H1275 C1267 0.929 . S
H1276 C1284 0.929 1_655 S
H1277 C1286 0.930 . S
H1278 C1288 0.930 . S
H1279 C1291 0.913 1_655 S
H1280 C1294 0.930 . S
H1281 C1296 0.960 . S
H1282 C1296 0.960 . S
H1283 C1296 0.960 . S
C1284 H1276 0.929 1_455 S
C1284 C1285 1.377 1_455 S
C1284 C1286 1.384 . S
C1285 C1284 1.377 1_655 S
C1285 C1291 1.377 1_655 S
C1286 H1277 0.930 . S
C1286 C1284 1.384 . S
C1286 C1287 1.372 . S
C1287 C1286 1.372 . S
C1287 C1288 1.400 . S
C1287 C1292 1.490 . S
C1288 H1278 0.930 . S
C1288 C1287 1.400 . S
C1288 C1291 1.416 . S
H1289 C1305 0.930 . S
H1290 C1306 0.931 . S
C1291 H1279 0.913 1_455 S
C1291 C1285 1.377 1_455 S
C1291 C1288 1.416 . S
C1292 C1287 1.490 . S
C1292 C1294 1.395 . S
C1292 C1295 1.403 . S
H1293 C1299 0.930 . S
C1294 H1280 0.930 . S
C1294 C1292 1.395 . S
C1294 C1297 1.403 . S
C1295 C1292 1.403 . S
C1295 C1296 1.524 . S
C1295 C1299 1.400 . S
C1296 H1281 0.960 . S
C1296 H1282 0.960 . S
C1296 H1283 0.960 . S
C1296 C1295 1.524 . S
C1297 C1294 1.403 . S
C1297 C1298 1.392 . S
C1297 C1301 1.495 . S
C1298 C1297 1.392 . S
C1298 C1299 1.385 . S
C1298 C1300 1.478 . S
C1299 H1293 0.930 . S
C1299 C1295 1.400 . S
C1299 C1298 1.385 . S
C1300 C1298 1.478 . S
C1300 C1302 1.381 . S
C1300 C1306 1.383 . S
C1301 C1297 1.495 . S
C1301 H1307 0.959 . S
C1301 H1308 0.961 . S
C1301 H1309 0.960 . S
C1302 C1300 1.381 . S
C1302 C1303 1.394 . S
C1302 H1310 0.930 . S
C1303 C1302 1.394 . S
C1303 C1304 1.383 . S
C1303 H1311 0.929 . S
C1304 C1303 1.383 . S
C1304 C1305 1.377 . S
C1305 H1289 0.930 . S
C1305 C1304 1.377 . S
C1305 C1306 1.379 . S
C1306 H1290 0.931 . S
C1306 C1300 1.383 . S
C1306 C1305 1.379 . S
H1307 C1301 0.959 . S
H1308 C1301 0.961 . S
H1309 C1301 0.960 . S
H1310 C1302 0.930 . S
H1311 C1303 0.929 . S
H1312 C1320 0.929 . S
H1313 C1322 0.930 . S
H1314 C1324 0.930 . S
H1315 C1327 0.929 . S
H1316 C1330 0.930 . S
H1317 C1332 0.960 . S
H1318 C1332 0.960 . S
H1319 C1332 0.960 . S
C1320 H1312 0.929 . S
C1320 C1321 1.377 . S
C1320 C1322 1.384 . S
C1321 C1320 1.377 . S
C1321 C1327 1.390 . S
C1322 H1313 0.930 . S
C1322 C1320 1.384 . S
C1322 C1323 1.372 . S
C1323 C1322 1.372 . S
C1323 C1324 1.400 . S
C1323 C1328 1.490 . S
C1324 H1314 0.930 . S
C1324 C1323 1.400 . S
C1324 C1327 1.386 . S
H1325 C1341 0.930 . S
H1326 C1342 0.931 . S
C1327 H1315 0.929 . S
C1327 C1321 1.390 . S
C1327 C1324 1.386 . S
C1328 C1323 1.490 . S
C1328 C1330 1.395 . S
C1328 C1331 1.403 . S
H1329 C1335 0.930 . S
C1330 H1316 0.930 . S
C1330 C1328 1.395 . S
C1330 C1333 1.403 . S
C1331 C1328 1.403 . S
C1331 C1332 1.524 . S
C1331 C1335 1.400 . S
C1332 H1317 0.960 . S
C1332 H1318 0.960 . S
C1332 H1319 0.960 . S
C1332 C1331 1.524 . S
C1333 C1330 1.403 . S
C1333 C1334 1.392 . S
C1333 C1337 1.495 . S
C1334 C1333 1.392 . S
C1334 C1335 1.385 . S
C1334 C1336 1.478 . S
C1335 H1329 0.930 . S
C1335 C1331 1.400 . S
C1335 C1334 1.385 . S
C1336 C1334 1.478 . S
C1336 C1338 1.381 . S
C1336 C1342 1.383 . S
C1337 C1333 1.495 . S
C1337 H1343 0.959 . S
C1337 H1344 0.961 . S
C1337 H1345 0.960 . S
C1338 C1336 1.381 . S
C1338 C1339 1.394 . S
C1338 H1346 0.930 . S
C1339 C1338 1.394 . S
C1339 C1340 1.383 . S
C1339 H1347 0.929 . S
C1340 C1339 1.383 . S
C1340 C1341 1.377 . S
C1341 H1325 0.930 . S
C1341 C1340 1.377 . S
C1341 C1342 1.379 . S
C1342 H1326 0.931 . S
C1342 C1336 1.383 . S
C1342 C1341 1.379 . S
H1343 C1337 0.959 . S
H1344 C1337 0.961 . S
H1345 C1337 0.960 . S
H1346 C1338 0.930 . S
H1347 C1339 0.929 . S
H1348 C1356 0.929 . S
H1349 C1358 0.930 . S
H1350 C1360 0.930 . S
H1351 C1363 0.929 . S
H1352 C1366 0.930 . S
H1353 C1368 0.960 . S
H1354 C1368 0.960 . S
H1355 C1368 0.960 . S
C1356 H1348 0.929 . S
C1356 C1357 1.377 . S
C1356 C1358 1.384 . S
C1357 C1356 1.377 . S
C1357 C1363 1.390 . S
C1358 H1349 0.930 . S
C1358 C1356 1.384 . S
C1358 C1359 1.372 . S
C1359 C1358 1.372 . S
C1359 C1360 1.400 . S
C1359 C1364 1.490 . S
C1360 H1350 0.930 . S
C1360 C1359 1.400 . S
C1360 C1363 1.386 . S
H1361 C1377 0.930 . S
H1362 C1378 0.931 . S
C1363 H1351 0.929 . S
C1363 C1357 1.390 . S
C1363 C1360 1.386 . S
C1364 C1359 1.490 . S
C1364 C1366 1.395 . S
C1364 C1367 1.403 . S
H1365 C1371 0.930 . S
C1366 H1352 0.930 . S
C1366 C1364 1.395 . S
C1366 C1369 1.403 . S
C1367 C1364 1.403 . S
C1367 C1368 1.524 . S
C1367 C1371 1.400 . S
C1368 H1353 0.960 . S
C1368 H1354 0.960 . S
C1368 H1355 0.960 . S
C1368 C1367 1.524 . S
C1369 C1366 1.403 . S
C1369 C1370 1.392 . S
C1369 C1373 1.495 . S
C1370 C1369 1.392 . S
C1370 C1371 1.385 . S
C1370 C1372 1.478 . S
C1371 H1365 0.930 . S
C1371 C1367 1.400 . S
C1371 C1370 1.385 . S
C1372 C1370 1.478 . S
C1372 C1374 1.381 . S
C1372 C1378 1.383 . S
C1373 C1369 1.495 . S
C1373 H1379 0.959 . S
C1373 H1380 0.961 . S
C1373 H1381 0.960 . S
C1374 C1372 1.381 . S
C1374 C1375 1.394 1_655 S
C1374 H1382 0.930 . S
C1375 C1374 1.394 1_455 S
C1375 C1376 1.383 . S
C1375 H1383 0.929 . S
C1376 C1375 1.383 . S
C1376 C1377 1.377 1_455 S
C1377 H1361 0.930 . S
C1377 C1376 1.377 1_655 S
C1377 C1378 1.379 . S
C1378 H1362 0.931 . S
C1378 C1372 1.383 . S
C1378 C1377 1.379 . S
H1379 C1373 0.959 . S
H1380 C1373 0.961 . S
H1381 C1373 0.960 . S
H1382 C1374 0.930 . S
H1383 C1375 0.929 . S
H1384 C1392 0.929 . S
H1385 C1394 0.930 . S
H1386 C1396 0.930 . S
H1387 C1399 0.929 . S
H1388 C1402 0.930 . S
H1389 C1404 0.960 . S
H1390 C1404 0.960 . S
H1391 C1404 0.960 . S
C1392 H1384 0.929 . S
C1392 C1393 1.377 . S
C1392 C1394 1.384 . S
C1393 C1392 1.377 . S
C1393 C1399 1.390 . S
C1394 H1385 0.930 . S
C1394 C1392 1.384 . S
C1394 C1395 1.372 . S
C1395 C1394 1.372 . S
C1395 C1396 1.400 . S
C1395 C1400 1.490 . S
C1396 H1386 0.930 . S
C1396 C1395 1.400 . S
C1396 C1399 1.386 . S
H1397 C1413 0.930 . S
H1398 C1414 0.931 . S
C1399 H1387 0.929 . S
C1399 C1393 1.390 . S
C1399 C1396 1.386 . S
C1400 C1395 1.490 . S
C1400 C1402 1.395 . S
C1400 C1403 1.403 . S
H1401 C1407 0.930 . S
C1402 H1388 0.930 . S
C1402 C1400 1.395 . S
C1402 C1405 1.403 . S
C1403 C1400 1.403 . S
C1403 C1404 1.524 . S
C1403 C1407 1.400 . S
C1404 H1389 0.960 . S
C1404 H1390 0.960 . S
C1404 H1391 0.960 . S
C1404 C1403 1.524 . S
C1405 C1402 1.403 . S
C1405 C1406 1.392 . S
C1405 C1409 1.495 . S
C1406 C1405 1.392 . S
C1406 C1407 1.385 . S
C1406 C1408 1.478 . S
C1407 H1401 0.930 . S
C1407 C1403 1.400 . S
C1407 C1406 1.385 . S
C1408 C1406 1.478 . S
C1408 C1410 1.381 . S
C1408 C1414 1.383 . S
C1409 C1405 1.495 . S
C1409 H1415 0.959 . S
C1409 H1416 0.961 . S
C1409 H1417 0.960 . S
C1410 C1408 1.381 . S
C1410 C1411 1.394 . S
C1410 H1418 0.930 . S
C1411 C1410 1.394 . S
C1411 C1412 1.383 . S
C1411 H1419 0.929 . S
C1412 C1411 1.383 . S
C1412 C1413 1.377 . S
C1413 H1397 0.930 . S
C1413 C1412 1.377 . S
C1413 C1414 1.379 . S
C1414 H1398 0.931 . S
C1414 C1408 1.383 . S
C1414 C1413 1.379 . S
H1415 C1409 0.959 . S
H1416 C1409 0.961 . S
H1417 C1409 0.960 . S
H1418 C1410 0.930 . S
H1419 C1411 0.929 . S
H1420 C1428 0.929 . S
H1421 C1430 0.930 . S
H1422 C1432 0.930 . S
H1423 C1435 0.929 . S
H1424 C1438 0.930 . S
H1425 C1440 0.960 . S
H1426 C1440 0.960 . S
H1427 C1440 0.960 . S
C1428 H1420 0.929 . S
C1428 C1429 1.377 . S
C1428 C1430 1.384 . S
C1429 C1428 1.377 . S
C1429 C1435 1.390 . S
C1430 H1421 0.930 . S
C1430 C1428 1.384 . S
C1430 C1431 1.372 . S
C1431 C1430 1.372 . S
C1431 C1432 1.400 . S
C1431 C1436 1.490 . S
C1432 H1422 0.930 . S
C1432 C1431 1.400 . S
C1432 C1435 1.386 . S
H1433 C1449 0.930 . S
H1434 C1450 0.931 . S
C1435 H1423 0.929 . S
C1435 C1429 1.390 . S
C1435 C1432 1.386 . S
C1436 C1431 1.490 . S
C1436 C1438 1.395 . S
C1436 C1439 1.403 . S
H1437 C1443 0.930 . S
C1438 H1424 0.930 . S
C1438 C1436 1.395 . S
C1438 C1441 1.403 . S
C1439 C1436 1.403 . S
C1439 C1440 1.524 . S
C1439 C1443 1.400 . S
C1440 H1425 0.960 . S
C1440 H1426 0.960 . S
C1440 H1427 0.960 . S
C1440 C1439 1.524 . S
C1441 C1438 1.403 . S
C1441 C1442 1.392 . S
C1441 C1445 1.495 . S
C1442 C1441 1.392 . S
C1442 C1443 1.385 . S
C1442 C1444 1.478 . S
C1443 H1437 0.930 . S
C1443 C1439 1.400 . S
C1443 C1442 1.385 . S
C1444 C1442 1.478 . S
C1444 C1446 1.381 . S
C1444 C1450 1.383 . S
C1445 C1441 1.495 . S
C1445 H1451 0.959 . S
C1445 H1452 0.961 . S
C1445 H1453 0.960 . S
C1446 C1444 1.381 . S
C1446 C1447 1.394 . S
C1446 H1454 0.930 . S
C1447 C1446 1.394 . S
C1447 C1448 1.383 1_655 S
C1447 H1455 0.929 . S
C1448 C1447 1.383 1_455 S
C1448 C1449 1.377 . S
C1449 H1433 0.930 . S
C1449 C1448 1.377 . S
C1449 C1450 1.379 1_455 S
C1450 H1434 0.931 . S
C1450 C1444 1.383 . S
C1450 C1449 1.379 1_655 S
H1451 C1445 0.959 . S
H1452 C1445 0.961 . S
H1453 C1445 0.960 . S
H1454 C1446 0.930 . S
H1455 C1447 0.929 . S
H1456 C1464 0.929 . S
H1457 C1466 0.930 . S
H1458 C1468 0.930 . S
H1459 C1471 0.929 . S
H1460 C1474 0.930 . S
H1461 C1476 0.960 . S
H1462 C1476 0.960 . S
H1463 C1476 0.960 . S
C1464 H1456 0.929 . S
C1464 C1465 1.377 . S
C1464 C1466 1.384 . S
C1465 C1464 1.377 . S
C1465 C1471 1.390 . S
C1466 H1457 0.930 . S
C1466 C1464 1.384 . S
C1466 C1467 1.372 . S
C1467 C1466 1.372 . S
C1467 C1468 1.400 . S
C1467 C1472 1.490 . S
C1468 H1458 0.930 . S
C1468 C1467 1.400 . S
C1468 C1471 1.386 . S
H1469 C1485 0.930 . S
H1470 C1486 0.931 . S
C1471 H1459 0.929 . S
C1471 C1465 1.390 . S
C1471 C1468 1.386 . S
C1472 C1467 1.490 . S
C1472 C1474 1.395 . S
C1472 C1475 1.403 . S
H1473 C1479 0.930 . S
C1474 H1460 0.930 . S
C1474 C1472 1.395 . S
C1474 C1477 1.403 . S
C1475 C1472 1.403 . S
C1475 C1476 1.524 . S
C1475 C1479 1.400 . S
C1476 H1461 0.960 . S
C1476 H1462 0.960 . S
C1476 H1463 0.960 . S
C1476 C1475 1.524 . S
C1477 C1474 1.403 . S
C1477 C1478 1.392 . S
C1477 C1481 1.495 . S
C1478 C1477 1.392 . S
C1478 C1479 1.385 . S
C1478 C1480 1.478 . S
C1479 H1473 0.930 . S
C1479 C1475 1.400 . S
C1479 C1478 1.385 . S
C1480 C1478 1.478 . S
C1480 C1482 1.381 . S
C1480 C1486 1.383 . S
C1481 C1477 1.495 . S
C1481 H1487 0.959 . S
C1481 H1488 0.961 . S
C1481 H1489 0.960 . S
C1482 C1480 1.381 . S
C1482 C1483 1.394 . S
C1482 H1490 0.930 . S
C1483 C1482 1.394 . S
C1483 C1484 1.383 . S
C1483 H1491 0.929 . S
C1484 C1483 1.383 . S
C1484 C1485 1.377 . S
C1485 H1469 0.930 . S
C1485 C1484 1.377 . S
C1485 C1486 1.379 . S
C1486 H1470 0.931 . S
C1486 C1480 1.383 . S
C1486 C1485 1.379 . S
H1487 C1481 0.959 . S
H1488 C1481 0.961 . S
H1489 C1481 0.960 . S
H1490 C1482 0.930 . S
H1491 C1483 0.929 . S
H1492 C1500 0.929 . S
H1493 C1502 0.930 . S
H1494 C1504 0.930 . S
H1495 C1507 0.929 . S
H1496 C1510 0.930 . S
H1497 C1512 0.960 . S
H1498 C1512 0.960 . S
H1499 C1512 0.960 . S
C1500 H1492 0.929 . S
C1500 C1501 1.377 . S
C1500 C1502 1.384 . S
C1501 C1500 1.377 . S
C1501 C1507 1.390 . S
C1502 H1493 0.930 . S
C1502 C1500 1.384 . S
C1502 C1503 1.372 . S
C1503 C1502 1.372 . S
C1503 C1504 1.400 . S
C1503 C1508 1.490 . S
C1504 H1494 0.930 . S
C1504 C1503 1.400 . S
C1504 C1507 1.386 . S
H1505 C1521 0.930 1_655 S
H1506 C1522 0.931 . S
C1507 H1495 0.929 . S
C1507 C1501 1.390 . S
C1507 C1504 1.386 . S
C1508 C1503 1.490 . S
C1508 C1510 1.395 . S
C1508 C1511 1.403 . S
H1509 C1515 0.930 . S
C1510 H1496 0.930 . S
C1510 C1508 1.395 . S
C1510 C1513 1.403 . S
C1511 C1508 1.403 . S
C1511 C1512 1.524 . S
C1511 C1515 1.400 . S
C1512 H1497 0.960 . S
C1512 H1498 0.960 . S
C1512 H1499 0.960 . S
C1512 C1511 1.524 . S
C1513 C1510 1.403 . S
C1513 C1514 1.392 . S
C1513 C1517 1.495 . S
C1514 C1513 1.392 . S
C1514 C1515 1.385 . S
C1514 C1516 1.478 . S
C1515 H1509 0.930 . S
C1515 C1511 1.400 . S
C1515 C1514 1.385 . S
C1516 C1514 1.478 . S
C1516 C1518 1.381 . S
C1516 C1522 1.383 . S
C1517 C1513 1.495 . S
C1517 H1523 0.959 . S
C1517 H1524 0.961 . S
C1517 H1525 0.960 . S
C1518 C1516 1.381 . S
C1518 C1519 1.394 . S
C1518 H1526 0.930 . S
C1519 C1518 1.394 . S
C1519 C1520 1.383 1_455 S
C1519 H1527 0.929 1_455 S
C1520 C1519 1.383 1_655 S
C1520 C1521 1.377 1_655 S
C1521 H1505 0.930 1_455 S
C1521 C1520 1.377 1_455 S
C1521 C1522 1.379 . S
C1522 H1506 0.931 . S
C1522 C1516 1.383 . S
C1522 C1521 1.379 . S
H1523 C1517 0.959 . S
H1524 C1517 0.961 . S
H1525 C1517 0.960 . S
H1526 C1518 0.930 . S
H1527 C1519 0.929 1_655 S
H1528 C1536 0.929 . S
H1529 C1538 0.930 . S
H1530 C1540 0.930 . S
H1531 C1543 0.929 . S
H1532 C1546 0.930 . S
H1533 C1548 0.960 . S
H1534 C1548 0.960 . S
H1535 C1548 0.960 . S
C1536 H1528 0.929 . S
C1536 C1537 1.377 . S
C1536 C1538 1.384 . S
C1537 C1536 1.377 . S
C1537 C1543 1.390 . S
C1538 H1529 0.930 . S
C1538 C1536 1.384 . S
C1538 C1539 1.372 . S
C1539 C1538 1.372 . S
C1539 C1540 1.400 . S
C1539 C1544 1.490 . S
C1540 H1530 0.930 . S
C1540 C1539 1.400 . S
C1540 C1543 1.386 . S
H1541 C1557 0.930 . S
H1542 C1558 0.931 . S
C1543 H1531 0.929 . S
C1543 C1537 1.390 . S
C1543 C1540 1.386 . S
C1544 C1539 1.490 . S
C1544 C1546 1.395 . S
C1544 C1547 1.403 . S
H1545 C1551 0.930 . S
C1546 H1532 0.930 . S
C1546 C1544 1.395 . S
C1546 C1549 1.403 . S
C1547 C1544 1.403 . S
C1547 C1548 1.524 . S
C1547 C1551 1.400 . S
C1548 H1533 0.960 . S
C1548 H1534 0.960 . S
C1548 H1535 0.960 . S
C1548 C1547 1.524 . S
C1549 C1546 1.403 . S
C1549 C1550 1.392 . S
C1549 C1553 1.495 . S
C1550 C1549 1.392 . S
C1550 C1551 1.385 . S
C1550 C1552 1.478 . S
C1551 H1545 0.930 . S
C1551 C1547 1.400 . S
C1551 C1550 1.385 . S
C1552 C1550 1.478 . S
C1552 C1554 1.381 . S
C1552 C1558 1.383 . S
C1553 C1549 1.495 . S
C1553 H1559 0.959 . S
C1553 H1560 0.961 . S
C1553 H1561 0.960 . S
C1554 C1552 1.381 . S
C1554 C1555 1.394 . S
C1554 H1562 0.930 . S
C1555 C1554 1.394 . S
C1555 C1556 1.383 . S
C1555 H1563 0.929 . S
C1556 C1555 1.383 . S
C1556 C1557 1.377 . S
C1557 H1541 0.930 . S
C1557 C1556 1.377 . S
C1557 C1558 1.379 . S
C1558 H1542 0.931 . S
C1558 C1552 1.383 . S
C1558 C1557 1.379 . S
H1559 C1553 0.959 . S
H1560 C1553 0.961 . S
H1561 C1553 0.960 . S
H1562 C1554 0.930 . S
H1563 C1555 0.929 . S
H1564 C1572 0.929 1_655 S
H1565 C1574 0.930 . S
H1566 C1576 0.930 . S
H1567 C1579 0.929 1_655 S
H1568 C1582 0.930 . S
H1569 C1584 0.960 . S
H1570 C1584 0.960 . S
H1571 C1584 0.960 . S
C1572 H1564 0.929 1_455 S
C1572 C1573 1.377 1_455 S
C1572 C1574 1.384 . S
C1573 C1572 1.377 1_655 S
C1573 C1579 1.390 1_655 S
C1574 H1565 0.930 . S
C1574 C1572 1.384 . S
C1574 C1575 1.372 . S
C1575 C1574 1.372 . S
C1575 C1576 1.400 . S
C1575 C1580 1.490 . S
C1576 H1566 0.930 . S
C1576 C1575 1.400 . S
C1576 C1579 1.386 . S
H1577 C1593 0.930 . S
H1578 C1594 0.931 . S
C1579 H1567 0.929 1_455 S
C1579 C1573 1.390 1_455 S
C1579 C1576 1.386 . S
C1580 C1575 1.490 . S
C1580 C1582 1.395 . S
C1580 C1583 1.403 . S
H1581 C1587 0.930 . S
C1582 H1568 0.930 . S
C1582 C1580 1.395 . S
C1582 C1585 1.403 . S
C1583 C1580 1.403 . S
C1583 C1584 1.524 . S
C1583 C1587 1.400 . S
C1584 H1569 0.960 . S
C1584 H1570 0.960 . S
C1584 H1571 0.960 . S
C1584 C1583 1.524 . S
C1585 C1582 1.403 . S
C1585 C1586 1.392 . S
C1585 C1589 1.495 . S
C1586 C1585 1.392 . S
C1586 C1587 1.385 . S
C1586 C1588 1.478 . S
C1587 H1581 0.930 . S
C1587 C1583 1.400 . S
C1587 C1586 1.385 . S
C1588 C1586 1.478 . S
C1588 C1590 1.381 . S
C1588 C1594 1.383 . S
C1589 C1585 1.495 . S
C1589 H1595 0.959 . S
C1589 H1596 0.961 . S
C1589 H1597 0.960 . S
C1590 C1588 1.381 . S
C1590 C1591 1.394 . S
C1590 H1598 0.930 . S
C1591 C1590 1.394 . S
C1591 C1592 1.383 . S
C1591 H1599 0.929 . S
C1592 C1591 1.383 . S
C1592 C1593 1.377 . S
C1593 H1577 0.930 . S
C1593 C1592 1.377 . S
C1593 C1594 1.379 . S
C1594 H1578 0.931 . S
C1594 C1588 1.383 . S
C1594 C1593 1.379 . S
H1595 C1589 0.959 . S
H1596 C1589 0.961 . S
H1597 C1589 0.960 . S
H1598 C1590 0.930 . S
H1599 C1591 0.929 . S
H1600 C1608 0.929 . S
H1601 C1610 0.930 . S
H1602 C1612 0.930 . S
H1603 C1615 0.929 . S
H1604 C1618 0.930 . S
H1605 C1620 0.960 . S
H1606 C1620 0.960 . S
H1607 C1620 0.960 . S
C1608 H1600 0.929 . S
C1608 C1609 1.377 . S
C1608 C1610 1.384 . S
C1609 C1608 1.377 . S
C1609 C1615 1.390 . S
C1610 H1601 0.930 . S
C1610 C1608 1.384 . S
C1610 C1611 1.372 . S
C1611 C1610 1.372 . S
C1611 C1612 1.400 . S
C1611 C1616 1.490 . S
C1612 H1602 0.930 . S
C1612 C1611 1.400 . S
C1612 C1615 1.386 . S
H1613 C1629 0.930 . S
H1614 C1630 0.931 . S
C1615 H1603 0.929 . S
C1615 C1609 1.390 . S
C1615 C1612 1.386 . S
C1616 C1611 1.490 . S
C1616 C1618 1.395 1_655 S
C1616 C1619 1.403 . S
H1617 C1623 0.930 . S
C1618 H1604 0.930 . S
C1618 C1616 1.395 1_455 S
C1618 C1621 1.403 . S
C1619 C1616 1.403 . S
C1619 C1620 1.524 . S
C1619 C1623 1.400 . S
C1620 H1605 0.960 . S
C1620 H1606 0.960 . S
C1620 H1607 0.960 . S
C1620 C1619 1.524 . S
C1621 C1618 1.403 . S
C1621 C1622 1.392 . S
C1621 C1625 1.495 . S
C1622 C1621 1.392 . S
C1622 C1623 1.385 1_455 S
C1622 C1624 1.478 . S
C1623 H1617 0.930 . S
C1623 C1619 1.400 . S
C1623 C1622 1.385 1_655 S
C1624 C1622 1.478 . S
C1624 C1626 1.381 . S
C1624 C1630 1.383 . S
C1625 C1621 1.495 . S
C1625 H1631 0.959 . S
C1625 H1632 0.961 . S
C1625 H1633 0.960 . S
C1626 C1624 1.381 . S
C1626 C1627 1.394 . S
C1626 H1634 0.930 . S
C1627 C1626 1.394 . S
C1627 C1628 1.383 . S
C1627 H1635 0.929 . S
C1628 C1627 1.383 . S
C1628 C1629 1.377 . S
C1629 H1613 0.930 . S
C1629 C1628 1.377 . S
C1629 C1630 1.379 . S
C1630 H1614 0.931 . S
C1630 C1624 1.383 . S
C1630 C1629 1.379 . S
H1631 C1625 0.959 . S
H1632 C1625 0.961 . S
H1633 C1625 0.960 . S
H1634 C1626 0.930 . S
H1635 C1627 0.929 . S
H1636 C1644 0.929 . S
H1637 C1646 0.930 . S
H1638 C1648 0.930 . S
H1639 C1651 0.929 . S
H1640 C1654 0.930 . S
H1641 C1656 0.960 . S
H1642 C1656 0.960 . S
H1643 C1656 0.960 . S
C1644 H1636 0.929 . S
C1644 C1645 1.377 . S
C1644 C1646 1.384 . S
C1645 C1644 1.377 . S
C1645 C1651 1.390 . S
C1646 H1637 0.930 . S
C1646 C1644 1.384 . S
C1646 C1647 1.372 . S
C1647 C1646 1.372 . S
C1647 C1648 1.400 . S
C1647 C1652 1.490 . S
C1648 H1638 0.930 . S
C1648 C1647 1.400 . S
C1648 C1651 1.386 . S
H1649 C1665 0.930 . S
H1650 C1666 0.931 . S
C1651 H1639 0.929 . S
C1651 C1645 1.390 . S
C1651 C1648 1.386 . S
C1652 C1647 1.490 . S
C1652 C1654 1.395 1_565 S
C1652 C1655 1.403 . S
H1653 C1659 0.930 . S
C1654 H1640 0.930 . S
C1654 C1652 1.395 1_545 S
C1654 C1657 1.403 . S
C1655 C1652 1.403 . S
C1655 C1656 1.524 . S
C1655 C1659 1.344 1_565 S
C1656 H1641 0.960 . S
C1656 H1642 0.960 . S
C1656 H1643 0.960 . S
C1656 C1655 1.524 . S
C1657 C1654 1.403 . S
C1657 C1658 1.392 . S
C1657 C1661 1.495 . S
C1658 C1657 1.392 . S
C1658 C1659 1.444 . S
C1658 C1660 1.478 . S
C1659 H1653 0.930 . S
C1659 C1655 1.344 1_545 S
C1659 C1658 1.444 . S
C1660 C1658 1.478 . S
C1660 C1662 1.381 . S
C1660 C1666 1.383 . S
C1661 C1657 1.495 . S
C1661 H1667 0.959 . S
C1661 H1668 0.961 . S
C1661 H1669 0.960 . S
C1662 C1660 1.381 . S
C1662 C1663 1.394 . S
C1662 H1670 0.930 . S
C1663 C1662 1.394 . S
C1663 C1664 1.383 . S
C1663 H1671 0.929 . S
C1664 C1663 1.383 . S
C1664 C1665 1.377 . S
C1665 H1649 0.930 . S
C1665 C1664 1.377 . S
C1665 C1666 1.379 . S
C1666 H1650 0.931 . S
C1666 C1660 1.383 . S
C1666 C1665 1.379 . S
H1667 C1661 0.959 . S
H1668 C1661 0.961 . S
H1669 C1661 0.960 . S
H1670 C1662 0.930 . S
H1671 C1663 0.929 . S
H1672 C1680 0.929 . S
H1673 C1682 0.930 . S
H1674 C1684 0.930 . S
H1675 C1687 0.929 . S
H1676 C1690 0.930 . S
H1677 C1692 0.960 1_565 S
H1678 C1692 0.960 . S
H1679 C1692 0.960 . S
C1680 H1672 0.929 . S
C1680 C1681 1.377 . S
C1680 C1682 1.384 . S
C1681 C1680 1.377 . S
C1681 C1687 1.390 . S
C1682 H1673 0.930 . S
C1682 C1680 1.384 . S
C1682 C1683 1.372 . S
C1683 C1682 1.372 . S
C1683 C1684 1.400 . S
C1683 C1688 1.490 . S
C1684 H1674 0.930 . S
C1684 C1683 1.400 . S
C1684 C1687 1.386 . S
H1685 C1701 0.930 . S
H1686 C1702 0.931 . S
C1687 H1675 0.929 . S
C1687 C1681 1.390 . S
C1687 C1684 1.386 . S
C1688 C1683 1.490 . S
C1688 C1690 1.395 1_655 S
C1688 C1691 1.403 1_554 S
H1689 C1695 0.930 . S
C1690 H1676 0.930 . S
C1690 C1688 1.395 1_455 S
C1690 C1693 1.403 1_545 S
C1691 C1688 1.403 1_556 S
C1691 C1692 1.524 . S
C1691 C1695 1.400 1_545 S
C1692 H1677 0.960 1_545 S
C1692 H1678 0.960 . S
C1692 H1679 0.960 . S
C1692 C1691 1.524 . S
C1693 C1690 1.403 1_565 S
C1693 C1694 1.392 1_554 S
C1693 C1697 1.495 . S
C1694 C1693 1.392 1_556 S
C1694 C1695 1.385 1_455 S
C1694 C1696 1.478 . S
C1695 H1689 0.930 . S
C1695 C1691 1.400 1_565 S
C1695 C1694 1.385 1_655 S
C1696 C1694 1.478 . S
C1696 C1698 1.381 . S
C1696 C1702 1.383 . S
C1697 C1693 1.495 . S
C1697 H1703 0.959 1_565 S
C1697 H1704 0.961 . S
C1697 H1705 0.960 . S
C1698 C1696 1.381 . S
C1698 C1699 1.394 . S
C1698 H1706 0.930 . S
C1699 C1698 1.394 . S
C1699 C1700 1.383 . S
C1699 H1707 0.929 . S
C1700 C1699 1.383 . S
C1700 C1701 1.377 . S
C1701 H1685 0.930 . S
C1701 C1700 1.377 . S
C1701 C1702 1.379 . S
C1702 H1686 0.931 . S
C1702 C1696 1.383 . S
C1702 C1701 1.379 . S
H1703 C1697 0.959 1_545 S
H1704 C1697 0.961 . S
H1705 C1697 0.960 . S
H1706 C1698 0.930 . S
H1707 C1699 0.929 . S
H1708 C1716 0.929 . S
H1709 C1718 0.930 . S
H1710 C1720 0.930 . S
H1711 C1723 0.929 . S
H1712 C1726 0.930 . S
H1713 C1728 0.960 . S
H1714 C1728 0.960 . S
H1715 C1728 0.960 . S
C1716 H1708 0.929 . S
C1716 C1717 1.377 . S
C1716 C1718 1.384 . S
C1717 C1716 1.377 . S
C1717 C1723 1.390 . S
C1718 H1709 0.930 . S
C1718 C1716 1.384 . S
C1718 C1719 1.372 . S
C1719 C1718 1.372 . S
C1719 C1720 1.400 . S
C1719 C1724 1.490 . S
C1720 H1710 0.930 . S
C1720 C1719 1.400 . S
C1720 C1723 1.386 . S
H1721 C1737 0.930 . S
H1722 C1738 0.931 . S
C1723 H1711 0.929 . S
C1723 C1717 1.390 . S
C1723 C1720 1.386 . S
C1724 C1719 1.490 . S
C1724 C1726 1.395 . S
C1724 C1727 1.403 1_554 S
H1725 C1731 0.930 . S
C1726 H1712 0.930 . S
C1726 C1724 1.395 . S
C1726 C1729 1.403 . S
C1727 C1724 1.403 1_556 S
C1727 C1728 1.524 . S
C1727 C1731 1.400 . S
C1728 H1713 0.960 . S
C1728 H1714 0.960 . S
C1728 H1715 0.960 . S
C1728 C1727 1.524 . S
C1729 C1726 1.403 . S
C1729 C1730 1.392 1_554 S
C1729 C1733 1.495 . S
C1730 C1729 1.392 1_556 S
C1730 C1731 1.385 . S
C1730 C1732 1.478 . S
C1731 H1725 0.930 . S
C1731 C1727 1.400 . S
C1731 C1730 1.385 . S
C1732 C1730 1.478 . S
C1732 C1734 1.381 . S
C1732 C1738 1.383 . S
C1733 C1729 1.495 . S
C1733 H1739 0.959 . S
C1733 H1740 0.961 . S
C1733 H1741 0.960 . S
C1734 C1732 1.381 . S
C1734 C1735 1.394 . S
C1734 H1742 0.930 . S
C1735 C1734 1.394 . S
C1735 C1736 1.383 . S
C1735 H1743 0.929 . S
C1736 C1735 1.383 . S
C1736 C1737 1.377 . S
C1737 H1721 0.930 . S
C1737 C1736 1.377 . S
C1737 C1738 1.379 . S
C1738 H1722 0.931 . S
C1738 C1732 1.383 . S
C1738 C1737 1.379 . S
H1739 C1733 0.959 . S
H1740 C1733 0.961 . S
H1741 C1733 0.960 . S
H1742 C1734 0.930 . S
H1743 C1735 0.929 . S
H1744 C1752 0.929 . S
H1745 C1754 0.930 . S
H1746 C1756 0.930 . S
H1747 C1759 0.929 . S
H1748 C1762 0.930 . S
H1749 C1764 0.960 . S
H1750 C1764 0.960 . S
H1751 C1764 0.960 . S
C1752 H1744 0.929 . S
C1752 C1753 1.377 . S
C1752 C1754 1.384 . S
C1753 C1752 1.377 . S
C1753 C1759 1.390 . S
C1754 H1745 0.930 . S
C1754 C1752 1.384 . S
C1754 C1755 1.372 . S
C1755 C1754 1.372 . S
C1755 C1756 1.400 . S
C1755 C1760 1.490 . S
C1756 H1746 0.930 . S
C1756 C1755 1.400 . S
C1756 C1759 1.386 . S
H1757 C1773 0.930 . S
H1758 C1774 0.931 . S
C1759 H1747 0.929 . S
C1759 C1753 1.390 . S
C1759 C1756 1.386 . S
C1760 C1755 1.490 . S
C1760 C1762 1.395 1_655 S
C1760 C1763 1.403 . S
H1761 C1767 0.930 . S
C1762 H1748 0.930 . S
C1762 C1760 1.395 1_455 S
C1762 C1765 1.403 . S
C1763 C1760 1.403 . S
C1763 C1764 1.524 . S
C1763 C1767 1.400 . S
C1764 H1749 0.960 . S
C1764 H1750 0.960 . S
C1764 H1751 0.960 . S
C1764 C1763 1.524 . S
C1765 C1762 1.403 . S
C1765 C1766 1.392 . S
C1765 C1769 1.495 . S
C1766 C1765 1.392 . S
C1766 C1767 1.385 1_455 S
C1766 C1768 1.478 . S
C1767 H1761 0.930 . S
C1767 C1763 1.400 . S
C1767 C1766 1.385 1_655 S
C1768 C1766 1.478 . S
C1768 C1770 1.381 . S
C1768 C1774 1.383 . S
C1769 C1765 1.495 . S
C1769 H1775 0.959 . S
C1769 H1776 0.961 . S
C1769 H1777 0.960 . S
C1770 C1768 1.381 . S
C1770 C1771 1.394 . S
C1770 H1778 0.930 . S
C1771 C1770 1.394 . S
C1771 C1772 1.383 . S
C1771 H1779 0.929 . S
C1772 C1771 1.383 . S
C1772 C1773 1.377 . S
C1773 H1757 0.930 . S
C1773 C1772 1.377 . S
C1773 C1774 1.379 . S
C1774 H1758 0.931 . S
C1774 C1768 1.383 . S
C1774 C1773 1.379 . S
H1775 C1769 0.959 . S
H1776 C1769 0.961 . S
H1777 C1769 0.960 . S
H1778 C1770 0.930 . S
H1779 C1771 0.929 . S
H1780 C1788 0.929 . S
H1781 C1790 0.930 . S
H1782 C1792 0.930 . S
H1783 C1795 0.929 . S
H1784 C1798 0.930 . S
H1785 C1800 0.960 . S
H1786 C1800 0.980 . S
H1787 C1800 0.960 . S
C1788 H1780 0.929 . S
C1788 C1789 1.377 . S
C1788 C1790 1.384 . S
C1789 C1788 1.377 . S
C1789 C1795 1.390 . S
C1790 H1781 0.930 . S
C1790 C1788 1.384 . S
C1790 C1791 1.372 . S
C1791 C1790 1.372 . S
C1791 C1792 1.400 . S
C1791 C1796 1.490 . S
C1792 H1782 0.930 . S
C1792 C1791 1.400 . S
C1792 C1795 1.386 . S
H1793 C1809 0.930 . S
H1794 C1810 0.931 . S
C1795 H1783 0.929 . S
C1795 C1789 1.390 . S
C1795 C1792 1.386 . S
C1796 C1791 1.490 . S
C1796 C1798 1.395 . S
C1796 C1799 1.403 1_565 S
H1797 C1803 0.930 . S
C1798 H1784 0.930 . S
C1798 C1796 1.395 . S
C1798 C1801 1.403 . S
C1799 C1796 1.403 1_545 S
C1799 C1800 1.524 . S
C1799 C1803 1.400 . S
C1800 H1785 0.960 . S
C1800 H1786 0.980 . S
C1800 H1787 0.960 . S
C1800 C1799 1.524 . S
C1801 C1798 1.403 . S
C1801 C1802 1.392 1_565 S
C1801 C1805 1.495 . S
C1802 C1801 1.392 1_545 S
C1802 C1803 1.385 . S
C1802 C1804 1.478 . S
C1803 H1797 0.930 . S
C1803 C1799 1.400 . S
C1803 C1802 1.385 . S
C1804 C1802 1.478 . S
C1804 C1806 1.381 . S
C1804 C1810 1.383 . S
C1805 C1801 1.495 . S
C1805 H1811 0.959 . S
C1805 H1812 0.961 . S
C1805 H1813 0.960 . S
C1806 C1804 1.381 . S
C1806 C1807 1.394 . S
C1806 H1814 0.930 . S
C1807 C1806 1.394 . S
C1807 C1808 1.383 . S
C1807 H1815 0.929 . S
C1808 C1807 1.383 . S
C1808 C1809 1.377 . S
C1809 H1793 0.930 . S
C1809 C1808 1.377 . S
C1809 C1810 1.379 . S
C1810 H1794 0.931 . S
C1810 C1804 1.383 . S
C1810 C1809 1.379 . S
H1811 C1805 0.959 . S
H1812 C1805 0.961 . S
H1813 C1805 0.960 . S
H1814 C1806 0.930 . S
H1815 C1807 0.929 . S
H1816 C1824 0.929 . S
H1817 C1826 0.930 . S
H1818 C1828 0.930 . S
H1819 C1831 0.929 . S
H1820 C1834 0.930 . S
H1821 C1836 0.960 . S
H1822 C1836 0.960 . S
H1823 C1836 0.960 . S
C1824 H1816 0.929 . S
C1824 C1825 1.377 . S
C1824 C1826 1.384 . S
C1825 C1824 1.377 . S
C1825 C1831 1.390 . S
C1826 H1817 0.930 . S
C1826 C1824 1.384 . S
C1826 C1827 1.372 . S
C1827 C1826 1.372 . S
C1827 C1828 1.400 . S
C1827 C1832 1.490 . S
C1828 H1818 0.930 . S
C1828 C1827 1.400 . S
C1828 C1831 1.386 . S
H1829 C1845 0.930 . S
H1830 C1846 0.931 . S
C1831 H1819 0.929 . S
C1831 C1825 1.390 . S
C1831 C1828 1.386 . S
C1832 C1827 1.490 . S
C1832 C1834 1.395 . S
C1832 C1835 1.403 1_556 S
H1833 C1839 0.930 . S
C1834 H1820 0.930 . S
C1834 C1832 1.395 . S
C1834 C1837 1.403 . S
C1835 C1832 1.403 1_554 S
C1835 C1836 1.524 . S
C1835 C1839 1.400 . S
C1836 H1821 0.960 . S
C1836 H1822 0.960 . S
C1836 H1823 0.960 . S
C1836 C1835 1.524 . S
C1837 C1834 1.403 . S
C1837 C1838 1.392 1_556 S
C1837 C1841 1.495 . S
C1838 C1837 1.392 1_554 S
C1838 C1839 1.385 . S
C1838 C1840 1.478 . S
C1839 H1833 0.930 . S
C1839 C1835 1.400 . S
C1839 C1838 1.385 . S
C1840 C1838 1.478 . S
C1840 C1842 1.381 . S
C1840 C1846 1.383 . S
C1841 C1837 1.495 . S
C1841 H1847 0.959 . S
C1841 H1848 0.961 . S
C1841 H1849 0.960 . S
C1842 C1840 1.381 . S
C1842 C1843 1.394 . S
C1842 H1850 0.930 . S
C1843 C1842 1.394 . S
C1843 C1844 1.383 . S
C1843 H1851 0.929 . S
C1844 C1843 1.383 . S
C1844 C1845 1.377 . S
C1845 H1829 0.930 . S
C1845 C1844 1.377 . S
C1845 C1846 1.379 . S
C1846 H1830 0.931 . S
C1846 C1840 1.383 . S
C1846 C1845 1.379 . S
H1847 C1841 0.959 . S
H1848 C1841 0.961 . S
H1849 C1841 0.960 . S
H1850 C1842 0.930 . S
H1851 C1843 0.929 . S
H1852 C1860 0.929 . S
H1853 C1862 0.930 . S
H1854 C1864 0.930 . S
H1855 C1867 0.929 . S
H1856 C1870 0.930 . S
H1857 C1872 0.960 . S
H1858 C1872 0.960 . S
H1859 C1872 0.960 . S
C1860 H1852 0.929 . S
C1860 C1861 1.377 . S
C1860 C1862 1.384 . S
C1861 C1860 1.377 . S
C1861 C1867 1.390 . S
C1862 H1853 0.930 . S
C1862 C1860 1.384 . S
C1862 C1863 1.372 . S
C1863 C1862 1.372 . S
C1863 C1864 1.400 . S
C1863 C1868 1.490 . S
C1864 H1854 0.930 . S
C1864 C1863 1.400 . S
C1864 C1867 1.386 . S
H1865 C1881 0.930 . S
H1866 C1882 0.931 . S
C1867 H1855 0.929 . S
C1867 C1861 1.390 . S
C1867 C1864 1.386 . S
C1868 C1863 1.490 . S
C1868 C1870 1.395 . S
C1868 C1871 1.403 . S
H1869 C1875 0.930 . S
C1870 H1856 0.930 . S
C1870 C1868 1.395 . S
C1870 C1873 1.403 . S
C1871 C1868 1.403 . S
C1871 C1872 1.524 . S
C1871 C1875 1.400 . S
C1872 H1857 0.960 . S
C1872 H1858 0.960 . S
C1872 H1859 0.960 . S
C1872 C1871 1.524 . S
C1873 C1870 1.403 . S
C1873 C1874 1.392 . S
C1873 C1877 1.495 . S
C1874 C1873 1.392 . S
C1874 C1875 1.385 . S
C1874 C1876 1.478 . S
C1875 H1869 0.930 . S
C1875 C1871 1.400 . S
C1875 C1874 1.385 . S
C1876 C1874 1.478 . S
C1876 C1878 1.381 . S
C1876 C1882 1.383 . S
C1877 C1873 1.495 . S
C1877 H1883 0.959 . S
C1877 H1884 0.961 . S
C1877 H1885 0.960 . S
C1878 C1876 1.381 . S
C1878 C1879 1.394 . S
C1878 H1886 0.930 . S
C1879 C1878 1.394 . S
C1879 C1880 1.383 . S
C1879 H1887 0.929 . S
C1880 C1879 1.383 . S
C1880 C1881 1.377 . S
C1881 H1865 0.930 . S
C1881 C1880 1.377 . S
C1881 C1882 1.379 . S
C1882 H1866 0.931 . S
C1882 C1876 1.383 . S
C1882 C1881 1.379 . S
H1883 C1877 0.959 . S
H1884 C1877 0.961 . S
H1885 C1877 0.960 . S
H1886 C1878 0.930 . S
H1887 C1879 0.929 . S
H1888 C1896 0.929 . S
H1889 C1898 0.930 . S
H1890 C1900 0.930 . S
H1891 C1903 0.929 . S
H1892 C1906 0.930 . S
H1893 C1908 0.960 . S
H1894 C1908 0.960 . S
H1895 C1908 0.960 . S
C1896 H1888 0.929 . S
C1896 C1897 1.377 . S
C1896 C1898 1.384 . S
C1897 C1896 1.377 . S
C1897 C1903 1.390 . S
C1898 H1889 0.930 . S
C1898 C1896 1.384 . S
C1898 C1899 1.372 . S
C1899 C1898 1.372 . S
C1899 C1900 1.400 . S
C1899 C1904 1.490 . S
C1900 H1890 0.930 . S
C1900 C1899 1.400 . S
C1900 C1903 1.386 . S
H1901 C1917 0.930 . S
H1902 C1918 0.931 . S
C1903 H1891 0.929 . S
C1903 C1897 1.390 . S
C1903 C1900 1.386 . S
C1904 C1899 1.490 . S
C1904 C1906 1.395 . S
C1904 C1907 1.403 1_455 S
H1905 C1911 0.930 . S
C1906 H1892 0.930 . S
C1906 C1904 1.395 . S
C1906 C1909 1.403 . S
C1907 C1904 1.403 1_655 S
C1907 C1908 1.524 . S
C1907 C1911 1.400 . S
C1908 H1893 0.960 . S
C1908 H1894 0.960 . S
C1908 H1895 0.960 . S
C1908 C1907 1.524 . S
C1909 C1906 1.403 . S
C1909 C1910 1.392 1_455 S
C1909 C1913 1.495 . S
C1910 C1909 1.392 1_655 S
C1910 C1911 1.385 . S
C1910 C1912 1.478 . S
C1911 H1905 0.930 . S
C1911 C1907 1.400 . S
C1911 C1910 1.385 . S
C1912 C1910 1.478 . S
C1912 C1914 1.381 . S
C1912 C1918 1.383 . S
C1913 C1909 1.495 . S
C1913 H1919 0.959 . S
C1913 H1920 0.961 . S
C1913 H1921 0.960 . S
C1914 C1912 1.381 . S
C1914 C1915 1.394 . S
C1914 H1922 0.930 . S
C1915 C1914 1.394 . S
C1915 C1916 1.383 . S
C1915 H1923 0.929 . S
C1916 C1915 1.383 . S
C1916 C1917 1.377 . S
C1917 H1901 0.930 . S
C1917 C1916 1.377 . S
C1917 C1918 1.379 . S
C1918 H1902 0.931 . S
C1918 C1912 1.383 . S
C1918 C1917 1.379 . S
H1919 C1913 0.959 . S
H1920 C1913 0.961 . S
H1921 C1913 0.960 . S
H1922 C1914 0.930 . S
H1923 C1915 0.929 . S
H1924 C1932 0.929 . S
H1925 C1934 0.930 . S
H1926 C1936 0.930 . S
H1927 C1939 0.929 . S
H1928 C1942 0.930 . S
H1929 C1944 0.960 . S
H1930 C1944 0.960 . S
H1931 C1944 0.960 . S
C1932 H1924 0.929 . S
C1932 C1933 1.377 . S
C1932 C1934 1.384 . S
C1933 C1932 1.377 . S
C1933 C1939 1.390 . S
C1934 H1925 0.930 . S
C1934 C1932 1.384 . S
C1934 C1935 1.372 . S
C1935 C1934 1.372 . S
C1935 C1936 1.400 . S
C1935 C1940 1.490 . S
C1936 H1926 0.930 . S
C1936 C1935 1.400 . S
C1936 C1939 1.386 . S
H1937 C1953 0.930 . S
H1938 C1954 0.931 . S
C1939 H1927 0.929 . S
C1939 C1933 1.390 . S
C1939 C1936 1.386 . S
C1940 C1935 1.490 . S
C1940 C1942 1.395 . S
C1940 C1943 1.403 . S
H1941 C1947 0.930 . S
C1942 H1928 0.930 . S
C1942 C1940 1.395 . S
C1942 C1945 1.403 . S
C1943 C1940 1.403 . S
C1943 C1944 1.524 . S
C1943 C1947 1.400 . S
C1944 H1929 0.960 . S
C1944 H1930 0.960 . S
C1944 H1931 0.960 . S
C1944 C1943 1.524 . S
C1945 C1942 1.403 . S
C1945 C1946 1.392 . S
C1945 C1949 1.495 . S
C1946 C1945 1.392 . S
C1946 C1947 1.385 . S
C1946 C1948 1.478 . S
C1947 H1941 0.930 . S
C1947 C1943 1.400 . S
C1947 C1946 1.385 . S
C1948 C1946 1.478 . S
C1948 C1950 1.381 . S
C1948 C1954 1.383 . S
C1949 C1945 1.495 . S
C1949 H1955 0.959 . S
C1949 H1956 0.961 . S
C1949 H1957 0.960 . S
C1950 C1948 1.381 . S
C1950 C1951 1.394 . S
C1950 H1958 0.930 . S
C1951 C1950 1.394 . S
C1951 C1952 1.383 . S
C1951 H1959 0.929 . S
C1952 C1951 1.383 . S
C1952 C1953 1.377 . S
C1953 H1937 0.930 . S
C1953 C1952 1.377 . S
C1953 C1954 1.379 . S
C1954 H1938 0.931 . S
C1954 C1948 1.383 . S
C1954 C1953 1.379 . S
H1955 C1949 0.959 . S
H1956 C1949 0.961 . S
H1957 C1949 0.960 . S
H1958 C1950 0.930 . S
H1959 C1951 0.929 . S
H1960 C1968 0.929 . S
H1961 C1970 0.930 . S
H1962 C1972 0.930 . S
H1963 C1975 0.929 . S
H1964 C1978 0.930 . S
H1965 C1980 0.960 . S
H1966 C1980 0.960 . S
H1967 C1980 0.960 . S
C1968 H1960 0.929 . S
C1968 C1969 1.377 . S
C1968 C1970 1.384 . S
C1969 C1968 1.377 . S
C1969 C1975 1.390 . S
C1970 H1961 0.930 . S
C1970 C1968 1.384 . S
C1970 C1971 1.372 . S
C1971 C1970 1.372 . S
C1971 C1972 1.400 . S
C1971 C1976 1.490 . S
C1972 H1962 0.930 . S
C1972 C1971 1.400 . S
C1972 C1975 1.386 . S
H1973 C1989 0.930 . S
H1974 C1990 0.931 . S
C1975 H1963 0.929 . S
C1975 C1969 1.390 . S
C1975 C1972 1.386 . S
C1976 C1971 1.490 . S
C1976 C1978 1.395 . S
C1976 C1979 1.403 . S
H1977 C1983 0.930 . S
C1978 H1964 0.930 . S
C1978 C1976 1.395 . S
C1978 C1981 1.403 . S
C1979 C1976 1.403 . S
C1979 C1980 1.524 . S
C1979 C1983 1.400 . S
C1980 H1965 0.960 . S
C1980 H1966 0.960 . S
C1980 H1967 0.960 . S
C1980 C1979 1.524 . S
C1981 C1978 1.403 . S
C1981 C1982 1.392 . S
C1981 C1985 1.495 . S
C1982 C1981 1.392 . S
C1982 C1983 1.385 . S
C1982 C1984 1.478 . S
C1983 H1977 0.930 . S
C1983 C1979 1.400 . S
C1983 C1982 1.385 . S
C1984 C1982 1.478 . S
C1984 C1986 1.381 . S
C1984 C1990 1.383 . S
C1985 C1981 1.495 . S
C1985 H1991 0.959 . S
C1985 H1992 0.961 . S
C1985 H1993 0.960 . S
C1986 C1984 1.381 . S
C1986 C1987 1.394 . S
C1986 H1994 0.930 . S
C1987 C1986 1.394 . S
C1987 C1988 1.383 . S
C1987 H1995 0.929 . S
C1988 C1987 1.383 . S
C1988 C1989 1.377 . S
C1989 H1973 0.930 . S
C1989 C1988 1.377 . S
C1989 C1990 1.379 . S
C1990 H1974 0.931 . S
C1990 C1984 1.383 . S
C1990 C1989 1.379 . S
H1991 C1985 0.959 . S
H1992 C1985 0.961 . S
H1993 C1985 0.960 . S
H1994 C1986 0.930 . S
H1995 C1987 0.929 . S
H1996 C2004 0.929 . S
H1997 C2006 0.930 . S
H1998 C2008 0.930 . S
H1999 C2011 0.929 . S
H2000 C2014 0.930 . S
H2001 C2016 0.960 . S
H2002 C2016 0.960 . S
H2003 C2016 0.960 . S
C2004 H1996 0.929 . S
C2004 C2005 1.377 . S
C2004 C2006 1.384 . S
C2005 C2004 1.377 . S
C2005 C2011 1.390 . S
C2006 H1997 0.930 . S
C2006 C2004 1.384 . S
C2006 C2007 1.372 . S
C2007 C2006 1.372 . S
C2007 C2008 1.400 . S
C2007 C2012 1.490 . S
C2008 H1998 0.930 . S
C2008 C2007 1.400 . S
C2008 C2011 1.386 . S
H2009 C2025 0.930 . S
H2010 C2026 0.931 . S
C2011 H1999 0.929 . S
C2011 C2005 1.390 . S
C2011 C2008 1.386 . S
C2012 C2007 1.490 . S
C2012 C2014 1.395 . S
C2012 C2015 1.403 . S
H2013 C2019 0.930 . S
C2014 H2000 0.930 . S
C2014 C2012 1.395 . S
C2014 C2017 1.403 . S
C2015 C2012 1.403 . S
C2015 C2016 1.524 . S
C2015 C2019 1.400 . S
C2016 H2001 0.960 . S
C2016 H2002 0.960 . S
C2016 H2003 0.960 . S
C2016 C2015 1.524 . S
C2017 C2014 1.403 . S
C2017 C2018 1.392 . S
C2017 C2021 1.495 . S
C2018 C2017 1.392 . S
C2018 C2019 1.385 . S
C2018 C2020 1.478 . S
C2019 H2013 0.930 . S
C2019 C2015 1.400 . S
C2019 C2018 1.385 . S
C2020 C2018 1.478 . S
C2020 C2022 1.381 . S
C2020 C2026 1.383 . S
C2021 C2017 1.495 . S
C2021 H2027 0.959 . S
C2021 H2028 0.961 . S
C2021 H2029 0.960 . S
C2022 C2020 1.381 . S
C2022 C2023 1.394 . S
C2022 H2030 0.930 . S
C2023 C2022 1.394 . S
C2023 C2024 1.383 . S
C2023 H2031 0.929 . S
C2024 C2023 1.383 . S
C2024 C2025 1.377 . S
C2025 H2009 0.930 . S
C2025 C2024 1.377 . S
C2025 C2026 1.379 . S
C2026 H2010 0.931 . S
C2026 C2020 1.383 . S
C2026 C2025 1.379 . S
H2027 C2021 0.959 . S
H2028 C2021 0.961 . S
H2029 C2021 0.960 . S
H2030 C2022 0.930 . S
H2031 C2023 0.929 . S
H2032 C2040 0.929 . S
H2033 C2042 0.930 . S
H2034 C2044 0.930 . S
H2035 C2047 0.929 . S
H2036 C2050 0.930 . S
H2037 C2052 0.960 . S
H2038 C2052 0.960 . S
H2039 C2052 0.960 . S
C2040 H2032 0.929 . S
C2040 C2041 1.377 . S
C2040 C2042 1.384 . S
C2041 C2040 1.377 . S
C2041 C2047 1.390 . S
C2042 H2033 0.930 . S
C2042 C2040 1.384 . S
C2042 C2043 1.372 . S
C2043 C2042 1.372 . S
C2043 C2044 1.400 . S
C2043 C2048 1.490 . S
C2044 H2034 0.930 . S
C2044 C2043 1.400 . S
C2044 C2047 1.386 . S
H2045 C2061 0.930 . S
H2046 C2062 0.931 . S
C2047 H2035 0.929 . S
C2047 C2041 1.390 . S
C2047 C2044 1.386 . S
C2048 C2043 1.490 . S
C2048 C2050 1.395 . S
C2048 C2051 1.403 . S
H2049 C2055 0.930 . S
C2050 H2036 0.930 . S
C2050 C2048 1.395 . S
C2050 C2053 1.403 . S
C2051 C2048 1.403 . S
C2051 C2052 1.524 . S
C2051 C2055 1.400 . S
C2052 H2037 0.960 . S
C2052 H2038 0.960 . S
C2052 H2039 0.960 . S
C2052 C2051 1.524 . S
C2053 C2050 1.403 . S
C2053 C2054 1.392 . S
C2053 C2057 1.495 . S
C2054 C2053 1.392 . S
C2054 C2055 1.385 . S
C2054 C2056 1.478 . S
C2055 H2049 0.930 . S
C2055 C2051 1.400 . S
C2055 C2054 1.385 . S
C2056 C2054 1.478 . S
C2056 C2058 1.381 . S
C2056 C2062 1.383 . S
C2057 C2053 1.495 . S
C2057 H2063 0.959 . S
C2057 H2064 0.961 . S
C2057 H2065 0.960 . S
C2058 C2056 1.381 . S
C2058 C2059 1.394 . S
C2058 H2066 0.930 . S
C2059 C2058 1.394 . S
C2059 C2060 1.383 . S
C2059 H2067 0.929 . S
C2060 C2059 1.383 . S
C2060 C2061 1.377 . S
C2061 H2045 0.930 . S
C2061 C2060 1.377 . S
C2061 C2062 1.379 . S
C2062 H2046 0.931 . S
C2062 C2056 1.383 . S
C2062 C2061 1.379 . S
H2063 C2057 0.959 . S
H2064 C2057 0.961 . S
H2065 C2057 0.960 . S
H2066 C2058 0.930 . S
H2067 C2059 0.929 . S
H2068 C2076 0.929 . S
H2069 C2078 0.930 . S
H2070 C2080 0.930 . S
H2071 C2083 0.929 . S
H2072 C2086 0.930 . S
H2073 C2088 0.960 . S
H2074 C2088 1.012 . S
H2075 C2088 0.960 . S
C2076 H2068 0.929 . S
C2076 C2077 1.377 . S
C2076 C2078 1.384 . S
C2077 C2076 1.377 . S
C2077 C2083 1.390 . S
C2078 H2069 0.930 . S
C2078 C2076 1.384 . S
C2078 C2079 1.372 . S
C2079 C2078 1.372 . S
C2079 C2080 1.400 . S
C2079 C2084 1.490 . S
C2080 H2070 0.930 . S
C2080 C2079 1.400 . S
C2080 C2083 1.386 . S
H2081 C2097 0.930 . S
H2082 C2098 0.931 . S
C2083 H2071 0.929 . S
C2083 C2077 1.390 . S
C2083 C2080 1.386 . S
C2084 C2079 1.490 . S
C2084 C2086 1.395 . S
C2084 C2087 1.403 1_545 S
H2085 C2091 0.930 . S
C2086 H2072 0.930 . S
C2086 C2084 1.395 . S
C2086 C2089 1.403 . S
C2087 C2084 1.403 1_565 S
C2087 C2088 1.524 . S
C2087 C2091 1.400 . S
C2088 H2073 0.960 . S
C2088 H2074 1.012 . S
C2088 H2075 0.960 . S
C2088 C2087 1.524 . S
C2089 C2086 1.403 . S
C2089 C2090 1.392 1_545 S
C2089 C2093 1.495 . S
C2090 C2089 1.392 1_565 S
C2090 C2091 1.385 . S
C2090 C2092 1.478 . S
C2091 H2085 0.930 . S
C2091 C2087 1.400 . S
C2091 C2090 1.385 . S
C2092 C2090 1.478 . S
C2092 C2094 1.381 . S
C2092 C2098 1.383 . S
C2093 C2089 1.495 . S
C2093 H2099 0.959 . S
C2093 H2100 0.961 . S
C2093 H2101 0.960 . S
C2094 C2092 1.381 . S
C2094 C2095 1.394 . S
C2094 H2102 0.930 . S
C2095 C2094 1.394 . S
C2095 C2096 1.383 . S
C2095 H2103 0.929 . S
C2096 C2095 1.383 . S
C2096 C2097 1.377 . S
C2097 H2081 0.930 . S
C2097 C2096 1.377 . S
C2097 C2098 1.379 . S
C2098 H2082 0.931 . S
C2098 C2092 1.383 . S
C2098 C2097 1.379 . S
H2099 C2093 0.959 . S
H2100 C2093 0.961 . S
H2101 C2093 0.960 . S
H2102 C2094 0.930 . S
H2103 C2095 0.929 . S
H2104 C2112 0.929 . S
H2105 C2114 0.930 . S
H2106 C2116 0.930 . S
H2107 C2119 0.929 . S
H2108 C2122 0.930 . S
H2109 C2124 0.960 . S
H2110 C2124 0.960 . S
H2111 C2124 0.960 . S
C2112 H2104 0.929 . S
C2112 C2113 1.377 . S
C2112 C2114 1.384 . S
C2113 C2112 1.377 . S
C2113 C2119 1.390 . S
C2114 H2105 0.930 . S
C2114 C2112 1.384 . S
C2114 C2115 1.372 . S
C2115 C2114 1.372 . S
C2115 C2116 1.400 . S
C2115 C2120 1.490 . S
C2116 H2106 0.930 . S
C2116 C2115 1.400 . S
C2116 C2119 1.386 . S
H2117 C2133 0.930 . S
H2118 C2134 0.931 . S
C2119 H2107 0.929 . S
C2119 C2113 1.390 . S
C2119 C2116 1.386 . S
C2120 C2115 1.490 . S
C2120 C2122 1.395 . S
C2120 C2123 1.403 . S
H2121 C2127 0.930 . S
C2122 H2108 0.930 . S
C2122 C2120 1.395 . S
C2122 C2125 1.403 . S
C2123 C2120 1.403 . S
C2123 C2124 1.524 . S
C2123 C2127 1.400 . S
C2124 H2109 0.960 . S
C2124 H2110 0.960 . S
C2124 H2111 0.960 . S
C2124 C2123 1.524 . S
C2125 C2122 1.403 . S
C2125 C2126 1.392 . S
C2125 C2129 1.495 . S
C2126 C2125 1.392 . S
C2126 C2127 1.385 . S
C2126 C2128 1.478 . S
C2127 H2121 0.930 . S
C2127 C2123 1.400 . S
C2127 C2126 1.385 . S
C2128 C2126 1.478 . S
C2128 C2130 1.381 . S
C2128 C2134 1.383 . S
C2129 C2125 1.495 . S
C2129 H2135 0.959 . S
C2129 H2136 0.961 . S
C2129 H2137 0.960 . S
C2130 C2128 1.381 . S
C2130 C2131 1.394 . S
C2130 H2138 0.930 . S
C2131 C2130 1.394 . S
C2131 C2132 1.383 . S
C2131 H2139 0.929 . S
C2132 C2131 1.383 . S
C2132 C2133 1.377 . S
C2133 H2117 0.930 . S
C2133 C2132 1.377 . S
C2133 C2134 1.379 . S
C2134 H2118 0.931 . S
C2134 C2128 1.383 . S
C2134 C2133 1.379 . S
H2135 C2129 0.959 . S
H2136 C2129 0.961 . S
H2137 C2129 0.960 . S
H2138 C2130 0.930 . S
H2139 C2131 0.929 . S
H2140 C2148 0.929 . S
H2141 C2150 0.930 . S
H2142 C2152 0.930 . S
H2143 C2155 0.929 . S
H2144 C2158 0.930 . S
H2145 C2160 0.960 . S
H2146 C2160 0.960 . S
H2147 C2160 0.960 . S
C2148 H2140 0.929 . S
C2148 C2149 1.377 . S
C2148 C2150 1.384 . S
C2149 C2148 1.377 . S
C2149 C2155 1.390 . S
C2150 H2141 0.930 . S
C2150 C2148 1.384 . S
C2150 C2151 1.372 . S
C2151 C2150 1.372 . S
C2151 C2152 1.400 . S
C2151 C2156 1.490 . S
C2152 H2142 0.930 . S
C2152 C2151 1.400 . S
C2152 C2155 1.386 . S
H2153 C2169 0.930 . S
H2154 C2170 0.931 . S
C2155 H2143 0.929 . S
C2155 C2149 1.390 . S
C2155 C2152 1.386 . S
C2156 C2151 1.490 . S
C2156 C2158 1.395 . S
C2156 C2159 1.403 1_556 S
H2157 C2163 0.930 . S
C2158 H2144 0.930 . S
C2158 C2156 1.395 . S
C2158 C2161 1.403 . S
C2159 C2156 1.403 1_554 S
C2159 C2160 1.524 . S
C2159 C2163 1.400 . S
C2160 H2145 0.960 . S
C2160 H2146 0.960 . S
C2160 H2147 0.960 . S
C2160 C2159 1.524 . S
C2161 C2158 1.403 . S
C2161 C2162 1.392 1_556 S
C2161 C2165 1.495 . S
C2162 C2161 1.392 1_554 S
C2162 C2163 1.385 . S
C2162 C2164 1.478 . S
C2163 H2157 0.930 . S
C2163 C2159 1.400 . S
C2163 C2162 1.385 . S
C2164 C2162 1.478 . S
C2164 C2166 1.381 . S
C2164 C2170 1.383 . S
C2165 C2161 1.495 . S
C2165 H2171 0.959 . S
C2165 H2172 0.961 . S
C2165 H2173 0.960 . S
C2166 C2164 1.381 . S
C2166 C2167 1.394 . S
C2166 H2174 0.930 . S
C2167 C2166 1.394 . S
C2167 C2168 1.383 . S
C2167 H2175 0.929 . S
C2168 C2167 1.383 . S
C2168 C2169 1.377 . S
C2169 H2153 0.930 . S
C2169 C2168 1.377 . S
C2169 C2170 1.379 . S
C2170 H2154 0.931 . S
C2170 C2164 1.383 . S
C2170 C2169 1.379 . S
H2171 C2165 0.959 . S
H2172 C2165 0.961 . S
H2173 C2165 0.960 . S
H2174 C2166 0.930 . S
H2175 C2167 0.929 . S
H2176 C2184 0.929 . S
H2177 C2186 0.930 . S
H2178 C2188 0.930 . S
H2179 C2191 0.929 . S
H2180 C2194 0.930 . S
H2181 C2196 0.960 . S
H2182 C2196 0.960 . S
H2183 C2196 0.960 . S
C2184 H2176 0.929 . S
C2184 C2185 1.377 . S
C2184 C2186 1.384 . S
C2185 C2184 1.377 . S
C2185 C2191 1.390 . S
C2186 H2177 0.930 . S
C2186 C2184 1.384 . S
C2186 C2187 1.372 . S
C2187 C2186 1.372 . S
C2187 C2188 1.400 . S
C2187 C2192 1.490 . S
C2188 H2178 0.930 . S
C2188 C2187 1.400 . S
C2188 C2191 1.386 . S
H2189 C2205 0.930 . S
H2190 C2206 0.931 . S
C2191 H2179 0.929 . S
C2191 C2185 1.390 . S
C2191 C2188 1.386 . S
C2192 C2187 1.490 . S
C2192 C2194 1.395 . S
C2192 C2195 1.403 . S
H2193 C2199 0.930 . S
C2194 H2180 0.930 . S
C2194 C2192 1.395 . S
C2194 C2197 1.403 . S
C2195 C2192 1.403 . S
C2195 C2196 1.524 . S
C2195 C2199 1.400 . S
C2196 H2181 0.960 . S
C2196 H2182 0.960 . S
C2196 H2183 0.960 . S
C2196 C2195 1.524 . S
C2197 C2194 1.403 . S
C2197 C2198 1.392 . S
C2197 C2201 1.495 . S
C2198 C2197 1.392 . S
C2198 C2199 1.385 . S
C2198 C2200 1.478 . S
C2199 H2193 0.930 . S
C2199 C2195 1.400 . S
C2199 C2198 1.385 . S
C2200 C2198 1.478 . S
C2200 C2202 1.381 . S
C2200 C2206 1.383 . S
C2201 C2197 1.495 . S
C2201 H2207 0.959 . S
C2201 H2208 0.961 . S
C2201 H2209 0.960 . S
C2202 C2200 1.381 . S
C2202 C2203 1.394 . S
C2202 H2210 0.930 . S
C2203 C2202 1.394 . S
C2203 C2204 1.383 . S
C2203 H2211 0.929 . S
C2204 C2203 1.383 . S
C2204 C2205 1.377 . S
C2205 H2189 0.930 . S
C2205 C2204 1.377 . S
C2205 C2206 1.379 . S
C2206 H2190 0.931 . S
C2206 C2200 1.383 . S
C2206 C2205 1.379 . S
H2207 C2201 0.959 . S
H2208 C2201 0.961 . S
H2209 C2201 0.960 . S
H2210 C2202 0.930 . S
H2211 C2203 0.929 . S
H2212 C2220 0.929 . S
H2213 C2222 0.930 . S
H2214 C2224 0.930 . S
H2215 C2227 0.929 . S
H2216 C2230 0.930 . S
H2217 C2232 0.960 . S
H2218 C2232 0.960 . S
H2219 C2232 0.960 . S
C2220 H2212 0.929 . S
C2220 C2221 1.377 . S
C2220 C2222 1.384 . S
C2221 C2220 1.377 . S
C2221 C2227 1.390 . S
C2222 H2213 0.930 . S
C2222 C2220 1.384 . S
C2222 C2223 1.372 . S
C2223 C2222 1.372 . S
C2223 C2224 1.400 . S
C2223 C2228 1.490 . S
C2224 H2214 0.930 . S
C2224 C2223 1.400 . S
C2224 C2227 1.386 . S
H2225 C2241 0.930 . S
H2226 C2242 0.931 . S
C2227 H2215 0.929 . S
C2227 C2221 1.390 . S
C2227 C2224 1.386 . S
C2228 C2223 1.490 . S
C2228 C2230 1.395 . S
C2228 C2231 1.403 . S
H2229 C2235 0.930 . S
C2230 H2216 0.930 . S
C2230 C2228 1.395 . S
C2230 C2233 1.403 . S
C2231 C2228 1.403 . S
C2231 C2232 1.524 . S
C2231 C2235 1.400 . S
C2232 H2217 0.960 . S
C2232 H2218 0.960 . S
C2232 H2219 0.960 . S
C2232 C2231 1.524 . S
C2233 C2230 1.403 . S
C2233 C2234 1.392 . S
C2233 C2237 1.495 . S
C2234 C2233 1.392 . S
C2234 C2235 1.385 . S
C2234 C2236 1.478 . S
C2235 H2229 0.930 . S
C2235 C2231 1.400 . S
C2235 C2234 1.385 . S
C2236 C2234 1.478 . S
C2236 C2238 1.381 . S
C2236 C2242 1.383 . S
C2237 C2233 1.495 . S
C2237 H2243 0.959 . S
C2237 H2244 0.961 . S
C2237 H2245 0.960 . S
C2238 C2236 1.381 . S
C2238 C2239 1.394 . S
C2238 H2246 0.930 . S
C2239 C2238 1.394 . S
C2239 C2240 1.383 . S
C2239 H2247 0.929 . S
C2240 C2239 1.383 . S
C2240 C2241 1.377 . S
C2241 H2225 0.930 . S
C2241 C2240 1.377 . S
C2241 C2242 1.379 . S
C2242 H2226 0.931 . S
C2242 C2236 1.383 . S
C2242 C2241 1.379 . S
H2243 C2237 0.959 . S
H2244 C2237 0.961 . S
H2245 C2237 0.960 . S
H2246 C2238 0.930 . S
H2247 C2239 0.929 . S
H2248 C2256 0.929 . S
H2249 C2258 0.930 . S
H2250 C2260 0.930 . S
H2251 C2263 0.929 . S
H2252 C2266 0.930 . S
H2253 C2268 0.960 . S
H2254 C2268 0.960 . S
H2255 C2268 0.960 . S
C2256 H2248 0.929 . S
C2256 C2257 1.377 . S
C2256 C2258 1.384 . S
C2257 C2256 1.377 . S
C2257 C2263 1.390 . S
C2258 H2249 0.930 . S
C2258 C2256 1.384 . S
C2258 C2259 1.372 . S
C2259 C2258 1.372 . S
C2259 C2260 1.400 . S
C2259 C2264 1.490 . S
C2260 H2250 0.930 . S
C2260 C2259 1.400 . S
C2260 C2263 1.386 . S
H2261 C2277 0.930 . S
H2262 C2278 0.931 . S
C2263 H2251 0.929 . S
C2263 C2257 1.390 . S
C2263 C2260 1.386 . S
C2264 C2259 1.490 . S
C2264 C2266 1.395 . S
C2264 C2267 1.403 . S
H2265 C2271 0.930 . S
C2266 H2252 0.930 . S
C2266 C2264 1.395 . S
C2266 C2269 1.403 . S
C2267 C2264 1.403 . S
C2267 C2268 1.524 . S
C2267 C2271 1.400 . S
C2268 H2253 0.960 . S
C2268 H2254 0.960 . S
C2268 H2255 0.960 . S
C2268 C2267 1.524 . S
C2269 C2266 1.403 . S
C2269 C2270 1.392 . S
C2269 C2273 1.495 . S
C2270 C2269 1.392 . S
C2270 C2271 1.385 . S
C2270 C2272 1.478 . S
C2271 H2265 0.930 . S
C2271 C2267 1.400 . S
C2271 C2270 1.385 . S
C2272 C2270 1.478 . S
C2272 C2274 1.381 . S
C2272 C2278 1.383 . S
C2273 C2269 1.495 . S
C2273 H2279 0.959 . S
C2273 H2280 0.961 . S
C2273 H2281 0.960 . S
C2274 C2272 1.381 . S
C2274 C2275 1.394 . S
C2274 H2282 0.930 . S
C2275 C2274 1.394 . S
C2275 C2276 1.383 . S
C2275 H2283 0.929 . S
C2276 C2275 1.383 . S
C2276 C2277 1.377 . S
C2277 H2261 0.930 . S
C2277 C2276 1.377 . S
C2277 C2278 1.379 . S
C2278 H2262 0.931 . S
C2278 C2272 1.383 . S
C2278 C2277 1.379 . S
H2279 C2273 0.959 . S
H2280 C2273 0.961 . S
H2281 C2273 0.960 . S
H2282 C2274 0.930 . S
H2283 C2275 0.929 . S
H2284 C2292 0.929 . S
H2285 C2294 0.930 . S
H2286 C2296 0.930 . S
H2287 C2299 0.929 . S
H2288 C2302 0.930 . S
H2289 C2304 0.960 . S
H2290 C2304 0.960 . S
H2291 C2304 0.960 . S
C2292 H2284 0.929 . S
C2292 C2293 1.377 . S
C2292 C2294 1.384 . S
C2293 C2292 1.377 . S
C2293 C2299 1.390 . S
C2294 H2285 0.930 . S
C2294 C2292 1.384 . S
C2294 C2295 1.372 . S
C2295 C2294 1.372 . S
C2295 C2296 1.400 . S
C2295 C2300 1.490 . S
C2296 H2286 0.930 . S
C2296 C2295 1.400 . S
C2296 C2299 1.386 . S
H2297 C2313 0.930 . S
H2298 C2314 0.931 . S
C2299 H2287 0.929 . S
C2299 C2293 1.390 . S
C2299 C2296 1.386 . S
C2300 C2295 1.490 . S
C2300 C2302 1.395 . S
C2300 C2303 1.403 . S
H2301 C2307 0.930 . S
C2302 H2288 0.930 . S
C2302 C2300 1.395 . S
C2302 C2305 1.403 . S
C2303 C2300 1.403 . S
C2303 C2304 1.524 . S
C2303 C2307 1.400 . S
C2304 H2289 0.960 . S
C2304 H2290 0.960 . S
C2304 H2291 0.960 . S
C2304 C2303 1.524 . S
C2305 C2302 1.403 . S
C2305 C2306 1.392 . S
C2305 C2309 1.495 . S
C2306 C2305 1.392 . S
C2306 C2307 1.385 . S
C2306 C2308 1.478 . S
C2307 H2301 0.930 . S
C2307 C2303 1.400 . S
C2307 C2306 1.385 . S
C2308 C2306 1.478 . S
C2308 C2310 1.381 . S
C2308 C2314 1.383 . S
C2309 C2305 1.495 . S
C2309 H2315 0.959 . S
C2309 H2316 0.961 . S
C2309 H2317 0.960 . S
C2310 C2308 1.381 . S
C2310 C2311 1.394 . S
C2310 H2318 0.930 . S
C2311 C2310 1.394 . S
C2311 C2312 1.383 . S
C2311 H2319 0.929 . S
C2312 C2311 1.383 . S
C2312 C2313 1.377 . S
C2313 H2297 0.930 . S
C2313 C2312 1.377 . S
C2313 C2314 1.379 . S
C2314 H2298 0.931 . S
C2314 C2308 1.383 . S
C2314 C2313 1.379 . S
H2315 C2309 0.959 . S
H2316 C2309 0.961 . S
H2317 C2309 0.960 . S
H2318 C2310 0.930 . S
H2319 C2311 0.929 . S
H2320 C2328 0.929 . S
H2321 C2330 0.930 . S
H2322 C2332 0.930 . S
H2323 C2335 0.929 . S
H2324 C2338 0.930 . S
H2325 C2340 0.960 . S
H2326 C2340 0.960 . S
H2327 C2340 0.960 . S
C2328 H2320 0.929 . S
C2328 C2329 1.377 . S
C2328 C2330 1.384 . S
C2329 C2328 1.377 . S
C2329 C2335 1.390 . S
C2330 H2321 0.930 . S
C2330 C2328 1.384 . S
C2330 C2331 1.372 . S
C2331 C2330 1.372 . S
C2331 C2332 1.400 . S
C2331 C2336 1.490 . S
C2332 H2322 0.930 . S
C2332 C2331 1.400 . S
C2332 C2335 1.386 . S
H2333 C2349 0.930 . S
H2334 C2350 0.931 . S
C2335 H2323 0.929 . S
C2335 C2329 1.390 . S
C2335 C2332 1.386 . S
C2336 C2331 1.490 . S
C2336 C2338 1.395 . S
C2336 C2339 1.403 . S
H2337 C2343 0.930 . S
C2338 H2324 0.930 . S
C2338 C2336 1.395 . S
C2338 C2341 1.403 . S
C2339 C2336 1.403 . S
C2339 C2340 1.524 . S
C2339 C2343 1.400 . S
C2340 H2325 0.960 . S
C2340 H2326 0.960 . S
C2340 H2327 0.960 . S
C2340 C2339 1.524 . S
C2341 C2338 1.403 . S
C2341 C2342 1.392 . S
C2341 C2345 1.495 . S
C2342 C2341 1.392 . S
C2342 C2343 1.385 . S
C2342 C2344 1.478 . S
C2343 H2337 0.930 . S
C2343 C2339 1.400 . S
C2343 C2342 1.385 . S
C2344 C2342 1.478 . S
C2344 C2346 1.381 . S
C2344 C2350 1.383 . S
C2345 C2341 1.495 . S
C2345 H2351 0.959 . S
C2345 H2352 0.961 . S
C2345 H2353 0.960 . S
C2346 C2344 1.381 . S
C2346 C2347 1.394 . S
C2346 H2354 0.930 . S
C2347 C2346 1.394 . S
C2347 C2348 1.383 . S
C2347 H2355 0.929 . S
C2348 C2347 1.383 . S
C2348 C2349 1.377 . S
C2349 H2333 0.930 . S
C2349 C2348 1.377 . S
C2349 C2350 1.379 . S
C2350 H2334 0.931 . S
C2350 C2344 1.383 . S
C2350 C2349 1.379 . S
H2351 C2345 0.959 . S
H2352 C2345 0.961 . S
H2353 C2345 0.960 . S
H2354 C2346 0.930 . S
H2355 C2347 0.929 . S
H2356 C2364 0.929 . S
H2357 C2366 0.930 . S
H2358 C2368 0.930 . S
H2359 C2371 0.929 . S
H2360 C2374 0.930 . S
H2361 C2376 0.960 . S
H2362 C2376 0.960 . S
H2363 C2376 0.960 . S
C2364 H2356 0.929 . S
C2364 C2365 1.377 . S
C2364 C2366 1.384 . S
C2365 C2364 1.377 . S
C2365 C2371 1.390 . S
C2366 H2357 0.930 . S
C2366 C2364 1.384 . S
C2366 C2367 1.372 . S
C2367 C2366 1.372 . S
C2367 C2368 1.400 . S
C2367 C2372 1.490 . S
C2368 H2358 0.930 . S
C2368 C2367 1.400 . S
C2368 C2371 1.386 . S
H2369 C2385 0.930 . S
H2370 C2386 0.931 . S
C2371 H2359 0.929 . S
C2371 C2365 1.390 . S
C2371 C2368 1.386 . S
C2372 C2367 1.490 . S
C2372 C2374 1.395 . S
C2372 C2375 1.403 . S
H2373 C2379 0.930 . S
C2374 H2360 0.930 . S
C2374 C2372 1.395 . S
C2374 C2377 1.403 . S
C2375 C2372 1.403 . S
C2375 C2376 1.524 . S
C2375 C2379 1.400 . S
C2376 H2361 0.960 . S
C2376 H2362 0.960 . S
C2376 H2363 0.960 . S
C2376 C2375 1.524 . S
C2377 C2374 1.403 . S
C2377 C2378 1.392 . S
C2377 C2381 1.495 . S
C2378 C2377 1.392 . S
C2378 C2379 1.385 . S
C2378 C2380 1.478 . S
C2379 H2373 0.930 . S
C2379 C2375 1.400 . S
C2379 C2378 1.385 . S
C2380 C2378 1.478 . S
C2380 C2382 1.381 . S
C2380 C2386 1.383 . S
C2381 C2377 1.495 . S
C2381 H2387 0.959 . S
C2381 H2388 0.961 . S
C2381 H2389 0.960 . S
C2382 C2380 1.381 . S
C2382 C2383 1.394 . S
C2382 H2390 0.930 . S
C2383 C2382 1.394 . S
C2383 C2384 1.383 . S
C2383 H2391 0.929 . S
C2384 C2383 1.383 . S
C2384 C2385 1.377 . S
C2385 H2369 0.930 . S
C2385 C2384 1.377 . S
C2385 C2386 1.379 . S
C2386 H2370 0.931 . S
C2386 C2380 1.383 . S
C2386 C2385 1.379 . S
H2387 C2381 0.959 . S
H2388 C2381 0.961 . S
H2389 C2381 0.960 . S
H2390 C2382 0.930 . S
H2391 C2383 0.929 . S
H2392 C2400 0.929 . S
H2393 C2402 0.930 . S
H2394 C2404 0.930 . S
H2395 C2407 0.929 . S
H2396 C2410 0.930 . S
H2397 C2412 0.960 . S
H2398 C2412 0.960 . S
H2399 C2412 0.960 . S
C2400 H2392 0.929 . S
C2400 C2401 1.377 . S
C2400 C2402 1.384 . S
C2401 C2400 1.377 . S
C2401 C2407 1.390 . S
C2402 H2393 0.930 . S
C2402 C2400 1.384 . S
C2402 C2403 1.372 . S
C2403 C2402 1.372 . S
C2403 C2404 1.400 . S
C2403 C2408 1.490 . S
C2404 H2394 0.930 . S
C2404 C2403 1.400 . S
C2404 C2407 1.386 . S
H2405 C2421 0.930 . S
H2406 C2422 0.931 . S
C2407 H2395 0.929 . S
C2407 C2401 1.390 . S
C2407 C2404 1.386 . S
C2408 C2403 1.490 . S
C2408 C2410 1.395 . S
C2408 C2411 1.403 . S
H2409 C2415 0.930 . S
C2410 H2396 0.930 . S
C2410 C2408 1.395 . S
C2410 C2413 1.403 . S
C2411 C2408 1.403 . S
C2411 C2412 1.524 . S
C2411 C2415 1.400 . S
C2412 H2397 0.960 . S
C2412 H2398 0.960 . S
C2412 H2399 0.960 . S
C2412 C2411 1.524 . S
C2413 C2410 1.403 . S
C2413 C2414 1.392 . S
C2413 C2417 1.495 . S
C2414 C2413 1.392 . S
C2414 C2415 1.385 . S
C2414 C2416 1.478 . S
C2415 H2409 0.930 . S
C2415 C2411 1.400 . S
C2415 C2414 1.385 . S
C2416 C2414 1.478 . S
C2416 C2418 1.381 . S
C2416 C2422 1.383 . S
C2417 C2413 1.495 . S
C2417 H2423 0.959 . S
C2417 H2424 0.961 . S
C2417 H2425 0.960 . S
C2418 C2416 1.381 . S
C2418 C2419 1.394 . S
C2418 H2426 0.930 . S
C2419 C2418 1.394 . S
C2419 C2420 1.383 . S
C2419 H2427 0.929 . S
C2420 C2419 1.383 . S
C2420 C2421 1.377 . S
C2421 H2405 0.930 . S
C2421 C2420 1.377 . S
C2421 C2422 1.379 . S
C2422 H2406 0.931 . S
C2422 C2416 1.383 . S
C2422 C2421 1.379 . S
H2423 C2417 0.959 . S
H2424 C2417 0.961 . S
H2425 C2417 0.960 . S
H2426 C2418 0.930 . S
H2427 C2419 0.929 . S
H2428 C2436 0.929 . S
H2429 C2438 0.930 . S
H2430 C2440 0.930 . S
H2431 C2443 0.929 . S
H2432 C2446 0.930 . S
H2433 C2448 0.960 . S
H2434 C2448 0.960 . S
H2435 C2448 0.960 . S
C2436 H2428 0.929 . S
C2436 C2437 1.377 . S
C2436 C2438 1.384 . S
C2437 C2436 1.377 . S
C2437 C2443 1.390 . S
C2438 H2429 0.930 . S
C2438 C2436 1.384 . S
C2438 C2439 1.372 . S
C2439 C2438 1.372 . S
C2439 C2440 1.400 . S
C2439 C2444 1.490 . S
C2440 H2430 0.930 . S
C2440 C2439 1.400 . S
C2440 C2443 1.386 . S
H2441 C2457 0.930 . S
H2442 C2458 0.931 . S
C2443 H2431 0.929 . S
C2443 C2437 1.390 . S
C2443 C2440 1.386 . S
C2444 C2439 1.490 . S
C2444 C2446 1.395 . S
C2444 C2447 1.403 . S
H2445 C2451 0.930 . S
C2446 H2432 0.930 . S
C2446 C2444 1.395 . S
C2446 C2449 1.403 . S
C2447 C2444 1.403 . S
C2447 C2448 1.524 . S
C2447 C2451 1.400 . S
C2448 H2433 0.960 . S
C2448 H2434 0.960 . S
C2448 H2435 0.960 . S
C2448 C2447 1.524 . S
C2449 C2446 1.403 . S
C2449 C2450 1.392 . S
C2449 C2453 1.495 . S
C2450 C2449 1.392 . S
C2450 C2451 1.385 . S
C2450 C2452 1.478 . S
C2451 H2445 0.930 . S
C2451 C2447 1.400 . S
C2451 C2450 1.385 . S
C2452 C2450 1.478 . S
C2452 C2454 1.381 . S
C2452 C2458 1.383 . S
C2453 C2449 1.495 . S
C2453 H2459 0.959 . S
C2453 H2460 0.961 . S
C2453 H2461 0.960 . S
C2454 C2452 1.381 . S
C2454 C2455 1.394 . S
C2454 H2462 0.930 . S
C2455 C2454 1.394 . S
C2455 C2456 1.383 . S
C2455 H2463 0.929 . S
C2456 C2455 1.383 . S
C2456 C2457 1.377 . S
C2457 H2441 0.930 . S
C2457 C2456 1.377 . S
C2457 C2458 1.379 . S
C2458 H2442 0.931 . S
C2458 C2452 1.383 . S
C2458 C2457 1.379 . S
H2459 C2453 0.959 . S
H2460 C2453 0.961 . S
H2461 C2453 0.960 . S
H2462 C2454 0.930 . S
H2463 C2455 0.929 . S
H2464 C2472 0.929 . S
H2465 C2474 0.930 . S
H2466 C2476 0.930 . S
H2467 C2479 0.929 . S
H2468 C2482 0.930 . S
H2469 C2484 0.960 . S
H2470 C2484 0.960 . S
H2471 C2484 0.960 . S
C2472 H2464 0.929 . S
C2472 C2473 1.377 . S
C2472 C2474 1.384 . S
C2473 C2472 1.377 . S
C2473 C2479 1.390 . S
C2474 H2465 0.930 . S
C2474 C2472 1.384 . S
C2474 C2475 1.372 . S
C2475 C2474 1.372 . S
C2475 C2476 1.400 . S
C2475 C2480 1.490 . S
C2476 H2466 0.930 . S
C2476 C2475 1.400 . S
C2476 C2479 1.386 . S
H2477 C2493 0.930 . S
H2478 C2494 0.931 . S
C2479 H2467 0.929 . S
C2479 C2473 1.390 . S
C2479 C2476 1.386 . S
C2480 C2475 1.490 . S
C2480 C2482 1.395 . S
C2480 C2483 1.403 . S
H2481 C2487 0.930 . S
C2482 H2468 0.930 . S
C2482 C2480 1.395 . S
C2482 C2485 1.403 . S
C2483 C2480 1.403 . S
C2483 C2484 1.524 . S
C2483 C2487 1.400 . S
C2484 H2469 0.960 . S
C2484 H2470 0.960 . S
C2484 H2471 0.960 . S
C2484 C2483 1.524 . S
C2485 C2482 1.403 . S
C2485 C2486 1.392 . S
C2485 C2489 1.495 . S
C2486 C2485 1.392 . S
C2486 C2487 1.385 . S
C2486 C2488 1.478 . S
C2487 H2481 0.930 . S
C2487 C2483 1.400 . S
C2487 C2486 1.385 . S
C2488 C2486 1.478 . S
C2488 C2490 1.381 . S
C2488 C2494 1.383 . S
C2489 C2485 1.495 . S
C2489 H2495 0.959 . S
C2489 H2496 0.961 . S
C2489 H2497 0.960 . S
C2490 C2488 1.381 . S
C2490 C2491 1.394 . S
C2490 H2498 0.930 . S
C2491 C2490 1.394 . S
C2491 C2492 1.383 . S
C2491 H2499 0.929 . S
C2492 C2491 1.383 . S
C2492 C2493 1.377 . S
C2493 H2477 0.930 . S
C2493 C2492 1.377 . S
C2493 C2494 1.379 . S
C2494 H2478 0.931 . S
C2494 C2488 1.383 . S
C2494 C2493 1.379 . S
H2495 C2489 0.959 . S
H2496 C2489 0.961 . S
H2497 C2489 0.960 . S
H2498 C2490 0.930 . S
H2499 C2491 0.929 . S
H2500 C2508 0.929 . S
H2501 C2510 0.930 . S
H2502 C2512 0.930 . S
H2503 C2515 0.929 . S
H2504 C2518 0.930 . S
H2505 C2520 0.960 . S
H2506 C2520 0.960 . S
H2507 C2520 0.960 . S
C2508 H2500 0.929 . S
C2508 C2509 1.377 . S
C2508 C2510 1.384 . S
C2509 C2508 1.377 . S
C2509 C2515 1.390 . S
C2510 H2501 0.930 . S
C2510 C2508 1.384 . S
C2510 C2511 1.372 . S
C2511 C2510 1.372 . S
C2511 C2512 1.400 . S
C2511 C2516 1.490 . S
C2512 H2502 0.930 . S
C2512 C2511 1.400 . S
C2512 C2515 1.386 . S
H2513 C2529 0.930 . S
H2514 C2530 0.931 . S
C2515 H2503 0.929 . S
C2515 C2509 1.390 . S
C2515 C2512 1.386 . S
C2516 C2511 1.490 . S
C2516 C2518 1.395 . S
C2516 C2519 1.403 . S
H2517 C2523 0.930 . S
C2518 H2504 0.930 . S
C2518 C2516 1.395 . S
C2518 C2521 1.403 . S
C2519 C2516 1.403 . S
C2519 C2520 1.524 . S
C2519 C2523 1.400 . S
C2520 H2505 0.960 . S
C2520 H2506 0.960 . S
C2520 H2507 0.960 . S
C2520 C2519 1.524 . S
C2521 C2518 1.403 . S
C2521 C2522 1.392 . S
C2521 C2525 1.495 . S
C2522 C2521 1.392 . S
C2522 C2523 1.385 . S
C2522 C2524 1.478 . S
C2523 H2517 0.930 . S
C2523 C2519 1.400 . S
C2523 C2522 1.385 . S
C2524 C2522 1.478 . S
C2524 C2526 1.381 . S
C2524 C2530 1.383 . S
C2525 C2521 1.495 . S
C2525 H2531 0.959 . S
C2525 H2532 0.961 . S
C2525 H2533 0.960 . S
C2526 C2524 1.381 . S
C2526 C2527 1.394 . S
C2526 H2534 0.930 . S
C2527 C2526 1.394 . S
C2527 C2528 1.383 . S
C2527 H2535 0.929 . S
C2528 C2527 1.383 . S
C2528 C2529 1.377 . S
C2529 H2513 0.930 . S
C2529 C2528 1.377 . S
C2529 C2530 1.379 . S
C2530 H2514 0.931 . S
C2530 C2524 1.383 . S
C2530 C2529 1.379 . S
H2531 C2525 0.959 . S
H2532 C2525 0.961 . S
H2533 C2525 0.960 . S
H2534 C2526 0.930 . S
H2535 C2527 0.929 . S
H2536 C2544 0.929 . S
H2537 C2546 0.930 . S
H2538 C2548 0.930 . S
H2539 C2551 0.929 . S
H2540 C2554 0.930 . S
H2541 C2556 0.960 . S
H2542 C2556 0.960 . S
H2543 C2556 0.960 . S
C2544 H2536 0.929 . S
C2544 C2545 1.377 . S
C2544 C2546 1.384 . S
C2545 C2544 1.377 . S
C2545 C2551 1.390 . S
C2546 H2537 0.930 . S
C2546 C2544 1.384 . S
C2546 C2547 1.372 . S
C2547 C2546 1.372 . S
C2547 C2548 1.400 . S
C2547 C2552 1.490 . S
C2548 H2538 0.930 . S
C2548 C2547 1.400 . S
C2548 C2551 1.386 . S
H2549 C2565 0.930 . S
H2550 C2566 0.931 . S
C2551 H2539 0.929 . S
C2551 C2545 1.390 . S
C2551 C2548 1.386 . S
C2552 C2547 1.490 . S
C2552 C2554 1.395 . S
C2552 C2555 1.403 . S
H2553 C2559 0.930 . S
C2554 H2540 0.930 . S
C2554 C2552 1.395 . S
C2554 C2557 1.403 . S
C2555 C2552 1.403 . S
C2555 C2556 1.524 . S
C2555 C2559 1.400 . S
C2556 H2541 0.960 . S
C2556 H2542 0.960 . S
C2556 H2543 0.960 . S
C2556 C2555 1.524 . S
C2557 C2554 1.403 . S
C2557 C2558 1.392 . S
C2557 C2561 1.495 . S
C2558 C2557 1.392 . S
C2558 C2559 1.385 . S
C2558 C2560 1.478 . S
C2559 H2553 0.930 . S
C2559 C2555 1.400 . S
C2559 C2558 1.385 . S
C2560 C2558 1.478 . S
C2560 C2562 1.381 . S
C2560 C2566 1.383 . S
C2561 C2557 1.495 . S
C2561 H2567 0.959 . S
C2561 H2568 0.961 . S
C2561 H2569 0.960 . S
C2562 C2560 1.381 . S
C2562 C2563 1.394 . S
C2562 H2570 0.930 . S
C2563 C2562 1.394 . S
C2563 C2564 1.383 . S
C2563 H2571 0.929 . S
C2564 C2563 1.383 . S
C2564 C2565 1.377 . S
C2565 H2549 0.930 . S
C2565 C2564 1.377 . S
C2565 C2566 1.379 . S
C2566 H2550 0.931 . S
C2566 C2560 1.383 . S
C2566 C2565 1.379 . S
H2567 C2561 0.959 . S
H2568 C2561 0.961 . S
H2569 C2561 0.960 . S
H2570 C2562 0.930 . S
H2571 C2563 0.929 . S
H2572 C2580 0.929 . S
H2573 C2582 0.930 . S
H2574 C2584 0.930 . S
H2575 C2587 0.929 . S
H2576 C2590 0.930 . S
H2577 C2592 0.960 . S
H2578 C2592 0.960 . S
H2579 C2592 0.960 . S
C2580 H2572 0.929 . S
C2580 C2581 1.377 . S
C2580 C2582 1.384 . S
C2581 C2580 1.377 . S
C2581 C2587 1.390 . S
C2582 H2573 0.930 . S
C2582 C2580 1.384 . S
C2582 C2583 1.372 . S
C2583 C2582 1.372 . S
C2583 C2584 1.400 . S
C2583 C2588 1.490 . S
C2584 H2574 0.930 . S
C2584 C2583 1.400 . S
C2584 C2587 1.386 . S
H2585 C2601 0.930 . S
H2586 C2602 0.931 . S
C2587 H2575 0.929 . S
C2587 C2581 1.390 . S
C2587 C2584 1.386 . S
C2588 C2583 1.490 . S
C2588 C2590 1.395 . S
C2588 C2591 1.403 . S
H2589 C2595 0.930 . S
C2590 H2576 0.930 . S
C2590 C2588 1.395 . S
C2590 C2593 1.403 . S
C2591 C2588 1.403 . S
C2591 C2592 1.524 . S
C2591 C2595 1.400 . S
C2592 H2577 0.960 . S
C2592 H2578 0.960 . S
C2592 H2579 0.960 . S
C2592 C2591 1.524 . S
C2593 C2590 1.403 . S
C2593 C2594 1.392 . S
C2593 C2597 1.495 . S
C2594 C2593 1.392 . S
C2594 C2595 1.385 . S
C2594 C2596 1.478 . S
C2595 H2589 0.930 . S
C2595 C2591 1.400 . S
C2595 C2594 1.385 . S
C2596 C2594 1.478 . S
C2596 C2598 1.381 . S
C2596 C2602 1.383 . S
C2597 C2593 1.495 . S
C2597 H2603 0.959 . S
C2597 H2604 0.961 . S
C2597 H2605 0.960 . S
C2598 C2596 1.381 . S
C2598 C2599 1.394 . S
C2598 H2606 0.930 . S
C2599 C2598 1.394 . S
C2599 C2600 1.383 . S
C2599 H2607 0.929 . S
C2600 C2599 1.383 . S
C2600 C2601 1.377 . S
C2601 H2585 0.930 . S
C2601 C2600 1.377 . S
C2601 C2602 1.379 . S
C2602 H2586 0.931 . S
C2602 C2596 1.383 . S
C2602 C2601 1.379 . S
H2603 C2597 0.959 . S
H2604 C2597 0.961 . S
H2605 C2597 0.960 . S
H2606 C2598 0.930 . S
H2607 C2599 0.929 . S
H2608 C2616 0.929 . S
H2609 C2618 0.930 . S
H2610 C2620 0.930 . S
H2611 C2623 0.929 . S
H2612 C2626 0.930 . S
H2613 C2628 0.960 . S
H2614 C2628 0.960 . S
H2615 C2628 0.960 . S
C2616 H2608 0.929 . S
C2616 C2617 1.377 . S
C2616 C2618 1.384 . S
C2617 C2616 1.377 . S
C2617 C2623 1.390 . S
C2618 H2609 0.930 . S
C2618 C2616 1.384 . S
C2618 C2619 1.372 . S
C2619 C2618 1.372 . S
C2619 C2620 1.400 . S
C2619 C2624 1.490 . S
C2620 H2610 0.930 . S
C2620 C2619 1.400 . S
C2620 C2623 1.386 . S
H2621 C2637 0.930 . S
H2622 C2638 0.931 . S
C2623 H2611 0.929 . S
C2623 C2617 1.390 . S
C2623 C2620 1.386 . S
C2624 C2619 1.490 . S
C2624 C2626 1.395 . S
C2624 C2627 1.403 . S
H2625 C2631 0.930 . S
C2626 H2612 0.930 . S
C2626 C2624 1.395 . S
C2626 C2629 1.403 . S
C2627 C2624 1.403 . S
C2627 C2628 1.524 . S
C2627 C2631 1.400 . S
C2628 H2613 0.960 . S
C2628 H2614 0.960 . S
C2628 H2615 0.960 . S
C2628 C2627 1.524 . S
C2629 C2626 1.403 . S
C2629 C2630 1.392 . S
C2629 C2633 1.495 . S
C2630 C2629 1.392 . S
C2630 C2631 1.385 . S
C2630 C2632 1.478 . S
C2631 H2625 0.930 . S
C2631 C2627 1.400 . S
C2631 C2630 1.385 . S
C2632 C2630 1.478 . S
C2632 C2634 1.381 . S
C2632 C2638 1.383 . S
C2633 C2629 1.495 . S
C2633 H2639 0.959 . S
C2633 H2640 0.961 . S
C2633 H2641 0.960 . S
C2634 C2632 1.381 . S
C2634 C2635 1.394 . S
C2634 H2642 0.930 . S
C2635 C2634 1.394 . S
C2635 C2636 1.383 . S
C2635 H2643 0.929 . S
C2636 C2635 1.383 . S
C2636 C2637 1.377 . S
C2637 H2621 0.930 . S
C2637 C2636 1.377 . S
C2637 C2638 1.379 . S
C2638 H2622 0.931 . S
C2638 C2632 1.383 . S
C2638 C2637 1.379 . S
H2639 C2633 0.959 . S
H2640 C2633 0.961 . S
H2641 C2633 0.960 . S
H2642 C2634 0.930 . S
H2643 C2635 0.929 . S
H2644 C2652 0.929 . S
H2645 C2654 0.930 . S
H2646 C2656 0.930 . S
H2647 C2659 0.929 . S
H2648 C2662 0.930 . S
H2649 C2664 0.960 . S
H2650 C2664 0.960 . S
H2651 C2664 0.960 . S
C2652 H2644 0.929 . S
C2652 C2653 1.377 . S
C2652 C2654 1.384 . S
C2653 C2652 1.377 . S
C2653 C2659 1.390 . S
C2654 H2645 0.930 . S
C2654 C2652 1.384 . S
C2654 C2655 1.372 . S
C2655 C2654 1.372 . S
C2655 C2656 1.400 . S
C2655 C2660 1.490 . S
C2656 H2646 0.930 . S
C2656 C2655 1.400 . S
C2656 C2659 1.386 . S
H2657 C2673 0.930 . S
H2658 C2674 0.931 . S
C2659 H2647 0.929 . S
C2659 C2653 1.390 . S
C2659 C2656 1.386 . S
C2660 C2655 1.490 . S
C2660 C2662 1.395 . S
C2660 C2663 1.403 . S
H2661 C2667 0.930 . S
C2662 H2648 0.930 . S
C2662 C2660 1.395 . S
C2662 C2665 1.403 . S
C2663 C2660 1.403 . S
C2663 C2664 1.524 . S
C2663 C2667 1.400 . S
C2664 H2649 0.960 . S
C2664 H2650 0.960 . S
C2664 H2651 0.960 . S
C2664 C2663 1.524 . S
C2665 C2662 1.403 . S
C2665 C2666 1.392 . S
C2665 C2669 1.495 . S
C2666 C2665 1.392 . S
C2666 C2667 1.385 . S
C2666 C2668 1.478 . S
C2667 H2661 0.930 . S
C2667 C2663 1.400 . S
C2667 C2666 1.385 . S
C2668 C2666 1.478 . S
C2668 C2670 1.381 . S
C2668 C2674 1.383 . S
C2669 C2665 1.495 . S
C2669 H2675 0.959 . S
C2669 H2676 0.961 . S
C2669 H2677 0.960 . S
C2670 C2668 1.381 . S
C2670 C2671 1.394 . S
C2670 H2678 0.930 . S
C2671 C2670 1.394 . S
C2671 C2672 1.383 . S
C2671 H2679 0.929 . S
C2672 C2671 1.383 . S
C2672 C2673 1.377 . S
C2673 H2657 0.930 . S
C2673 C2672 1.377 . S
C2673 C2674 1.379 . S
C2674 H2658 0.931 . S
C2674 C2668 1.383 . S
C2674 C2673 1.379 . S
H2675 C2669 0.959 . S
H2676 C2669 0.961 . S
H2677 C2669 0.960 . S
H2678 C2670 0.930 . S
H2679 C2671 0.929 . S
H2680 C2688 0.929 . S
H2681 C2690 0.930 . S
H2682 C2692 0.930 . S
H2683 C2695 0.929 . S
H2684 C2698 0.930 . S
H2685 C2700 0.960 . S
H2686 C2700 0.960 . S
H2687 C2700 0.960 . S
C2688 H2680 0.929 . S
C2688 C2689 1.377 . S
C2688 C2690 1.384 . S
C2689 C2688 1.377 . S
C2689 C2695 1.390 . S
C2690 H2681 0.930 . S
C2690 C2688 1.384 . S
C2690 C2691 1.372 . S
C2691 C2690 1.372 . S
C2691 C2692 1.400 . S
C2691 C2696 1.490 . S
C2692 H2682 0.930 . S
C2692 C2691 1.400 . S
C2692 C2695 1.386 . S
H2693 C2709 0.930 . S
H2694 C2710 0.931 . S
C2695 H2683 0.929 . S
C2695 C2689 1.390 . S
C2695 C2692 1.386 . S
C2696 C2691 1.490 . S
C2696 C2698 1.395 . S
C2696 C2699 1.403 . S
H2697 C2703 0.930 . S
C2698 H2684 0.930 . S
C2698 C2696 1.395 . S
C2698 C2701 1.403 . S
C2699 C2696 1.403 . S
C2699 C2700 1.524 . S
C2699 C2703 1.400 . S
C2700 H2685 0.960 . S
C2700 H2686 0.960 . S
C2700 H2687 0.960 . S
C2700 C2699 1.524 . S
C2701 C2698 1.403 . S
C2701 C2702 1.392 . S
C2701 C2705 1.495 . S
C2702 C2701 1.392 . S
C2702 C2703 1.385 . S
C2702 C2704 1.478 . S
C2703 H2697 0.930 . S
C2703 C2699 1.400 . S
C2703 C2702 1.385 . S
C2704 C2702 1.478 . S
C2704 C2706 1.381 . S
C2704 C2710 1.383 . S
C2705 C2701 1.495 . S
C2705 H2711 0.959 . S
C2705 H2712 0.961 . S
C2705 H2713 0.960 . S
C2706 C2704 1.381 . S
C2706 C2707 1.394 . S
C2706 H2714 0.930 . S
C2707 C2706 1.394 . S
C2707 C2708 1.383 . S
C2707 H2715 0.929 . S
C2708 C2707 1.383 . S
C2708 C2709 1.377 . S
C2709 H2693 0.930 . S
C2709 C2708 1.377 . S
C2709 C2710 1.379 . S
C2710 H2694 0.931 . S
C2710 C2704 1.383 . S
C2710 C2709 1.379 . S
H2711 C2705 0.959 . S
H2712 C2705 0.961 . S
H2713 C2705 0.960 . S
H2714 C2706 0.930 . S
H2715 C2707 0.929 . S
H2716 C2724 0.929 . S
H2717 C2726 0.930 . S
H2718 C2728 0.930 . S
H2719 C2731 0.929 . S
H2720 C2734 0.930 . S
H2721 C2736 0.960 . S
H2722 C2736 0.960 . S
H2723 C2736 0.960 . S
C2724 H2716 0.929 . S
C2724 C2725 1.377 . S
C2724 C2726 1.384 . S
C2725 C2724 1.377 . S
C2725 C2731 1.390 . S
C2726 H2717 0.930 . S
C2726 C2724 1.384 . S
C2726 C2727 1.372 . S
C2727 C2726 1.372 . S
C2727 C2728 1.400 . S
C2727 C2732 1.490 . S
C2728 H2718 0.930 . S
C2728 C2727 1.400 . S
C2728 C2731 1.386 . S
H2729 C2745 0.930 . S
H2730 C2746 0.931 . S
C2731 H2719 0.929 . S
C2731 C2725 1.390 . S
C2731 C2728 1.386 . S
C2732 C2727 1.490 . S
C2732 C2734 1.395 . S
C2732 C2735 1.403 . S
H2733 C2739 0.930 . S
C2734 H2720 0.930 . S
C2734 C2732 1.395 . S
C2734 C2737 1.403 . S
C2735 C2732 1.403 . S
C2735 C2736 1.524 . S
C2735 C2739 1.400 . S
C2736 H2721 0.960 . S
C2736 H2722 0.960 . S
C2736 H2723 0.960 . S
C2736 C2735 1.524 . S
C2737 C2734 1.403 . S
C2737 C2738 1.392 . S
C2737 C2741 1.495 . S
C2738 C2737 1.392 . S
C2738 C2739 1.385 . S
C2738 C2740 1.478 . S
C2739 H2733 0.930 . S
C2739 C2735 1.400 . S
C2739 C2738 1.385 . S
C2740 C2738 1.478 . S
C2740 C2742 1.381 . S
C2740 C2746 1.383 . S
C2741 C2737 1.495 . S
C2741 H2747 0.959 . S
C2741 H2748 0.961 . S
C2741 H2749 0.960 . S
C2742 C2740 1.381 . S
C2742 C2743 1.394 . S
C2742 H2750 0.930 . S
C2743 C2742 1.394 . S
C2743 C2744 1.383 . S
C2743 H2751 0.929 . S
C2744 C2743 1.383 . S
C2744 C2745 1.377 . S
C2745 H2729 0.930 . S
C2745 C2744 1.377 . S
C2745 C2746 1.379 . S
C2746 H2730 0.931 . S
C2746 C2740 1.383 . S
C2746 C2745 1.379 . S
H2747 C2741 0.959 . S
H2748 C2741 0.961 . S
H2749 C2741 0.960 . S
H2750 C2742 0.930 . S
H2751 C2743 0.929 . S
C457 C148 1.331 . S
C476 C8 1.332 . S
C493 C22 1.322 . S
C512 C162 1.300 . S
C529 C36 1.330 . S
C548 C120 1.338 . S
C565 C134 1.322 . S
C584 C50 1.298 . S
C601 C205 1.324 . S
C620 C65 1.311 . S
C637 C79 1.329 . S
C656 C219 1.324 . S
C673 C177 1.324 . S
C692 C93 1.343 . S
C709 C191 1.329 . S
C728 C107 1.326 . S
C745 C372 1.319 . S
C764 C232 1.307 . S
C781 C386 1.324 . S
C800 C246 1.351 . S
C817 C344 1.324 . S
C836 C260 1.292 . S
C853 C274 1.324 . S
C872 C358 1.351 . S
C889 C429 1.323 . S
C908 C289 1.346 . S
C925 C443 1.321 . S
C944 C303 1.332 . S
C961 C317 1.320 . S
C980 C401 1.332 . S
C997 C331 1.322 . S
C1016 C415 1.325 . S
C1033 C272 1.223 . S
C1052 C6 1.246 . S
C1069 C20 1.210 . S
C1088 C258 1.184 . S
C1105 C244 1.221 . S
C1124 C34 1.243 . S
C1141 C230 1.208 . S
C1160 C48 1.177 . S
C1177 C63 1.212 . S
C1196 C329 1.188 . S
C1213 C77 1.221 . S
C1232 C315 1.232 . S
C1249 C301 1.216 . S
C1268 C91 1.177 . S
C1285 C105 1.209 . S
C1304 C287 1.204 . S
C1321 C384 1.219 . S
C1340 C118 1.235 . S
C1357 C370 1.213 . S
C1376 C132 1.206 . S
C1393 C356 1.215 . S
C1412 C146 1.208 . S
C1429 C342 1.214 . S
C1448 C160 1.200 . S
C1465 C175 1.207 . S
C1484 C441 1.231 . S
C1501 C427 1.215 . S
C1520 C189 1.180 . S
C1537 C203 1.213 . S
C1556 C413 1.253 . S
C1573 C217 1.210 . S
C1592 C399 1.201 . S
C1609 C174 1.393 . S
C1628 C7 1.413 . S
C1645 C21 1.389 . S
C1664 C300 1.363 . S
C1681 C90 1.386 . S
C1700 C35 1.391 . S
C1717 C440 1.385 . S
C1736 C49 1.374 . S
C1753 C62 1.389 . S
C1772 C119 1.407 . S
C1789 C245 1.392 . S
C1808 C76 1.413 . S
C1825 C385 1.389 . S
C1844 C104 1.362 . S
C1861 C412 1.392 . S
C1880 C133 1.369 . S
C1897 C147 1.385 . S
C1916 C202 1.374 . S
C1933 C328 1.385 . S
C1952 C161 1.382 . S
C1969 C357 1.389 . S
C1988 C188 1.405 . S
C2005 C216 1.394 . S
C2024 C273 1.411 . S
C2041 C231 1.390 . S
C2060 C398 1.410 . S
C2077 C314 1.391 . S
C2096 C259 1.411 . S
C2113 C343 1.385 . S
C2132 C286 1.385 . S
C2149 C371 1.392 . S
C2168 C426 1.370 . S
C2185 C9 0.886 . S
C2204 C51 0.906 1_554 S
C2221 C37 0.893 1_554 S
C2240 C23 0.865 . S
C2257 C64 0.894 . S
C2276 C106 0.917 1_556 S
C2293 C78 0.886 . S
C2312 C92 0.907 1_556 S
C2329 C121 0.888 . S
C2348 C163 0.888 . S
C2365 C135 0.886 . S
C2384 C149 0.900 . S
C2401 C176 0.896 . S
C2420 C218 0.866 . S
C2437 C204 0.891 . S
C2456 C190 0.921 . S
C2473 C275 0.890 . S
C2492 C233 0.878 . S
C2509 C261 0.887 . S
C2528 C247 0.894 . S
C2545 C330 0.897 . S
C2564 C288 0.875 . S
C2581 C316 0.896 . S
C2600 C302 0.865 . S
C2617 C387 0.894 1_554 S
C2636 C345 0.863 . S
C2653 C373 0.897 1_554 S
C2672 C359 0.861 . S
C2689 C400 0.891 . S
C2708 C442 0.921 1_556 S
C2725 C428 0.887 1_556 S
C2744 C414 0.914 . S
