# Generated by pormake.
# Topology oof, (8)-cn, num edge types: 1
# Building blocks:
#     Node 0, Type 0, BuildingBlock: TAGTUT_clean_sbu_3, # of connection points: 8
#     Node 1, Type 0, BuildingBlock: TAGTUT_clean_sbu_3, # of connection points: 8
#     Node 2, Type 0, BuildingBlock: TAGTUT_clean_sbu_3, # of connection points: 8
#     Node 3, Type 0, BuildingBlock: TAGTUT_clean_sbu_3, # of connection points: 8
#     Edge 4, Type (0, 0), BuildingBlock: XUDNAN_clean_linker_2, # of connection points: 2
#     Edge 5, Type (0, 0), BuildingBlock: XUDNAN_clean_linker_2, # of connection points: 2
#     Edge 6, Type (0, 0), BuildingBlock: XUDNAN_clean_linker_2, # of connection points: 2
#     Edge 7, Type (0, 0), BuildingBlock: XUDNAN_clean_linker_2, # of connection points: 2
#     Edge 8, Type (0, 0), BuildingBlock: XUDNAN_clean_linker_2, # of connection points: 2
#     Edge 9, Type (0, 0), BuildingBlock: XUDNAN_clean_linker_2, # of connection points: 2
#     Edge 10, Type (0, 0), BuildingBlock: XUDNAN_clean_linker_2, # of connection points: 2
#     Edge 11, Type (0, 0), BuildingBlock: XUDNAN_clean_linker_2, # of connection points: 2
#     Edge 12, Type (0, 0), BuildingBlock: XUDNAN_clean_linker_2, # of connection points: 2
#     Edge 13, Type (0, 0), BuildingBlock: XUDNAN_clean_linker_2, # of connection points: 2
#     Edge 14, Type (0, 0), BuildingBlock: XUDNAN_clean_linker_2, # of connection points: 2
#     Edge 15, Type (0, 0), BuildingBlock: XUDNAN_clean_linker_2, # of connection points: 2
#     Edge 16, Type (0, 0), BuildingBlock: XUDNAN_clean_linker_2, # of connection points: 2
#     Edge 17, Type (0, 0), BuildingBlock: XUDNAN_clean_linker_2, # of connection points: 2
#     Edge 18, Type (0, 0), BuildingBlock: XUDNAN_clean_linker_2, # of connection points: 2
#     Edge 19, Type (0, 0), BuildingBlock: XUDNAN_clean_linker_2, # of connection points: 2
# Relax obj value: 0.060
# Max RMSD: 0.153
# Mean RMSD: 0.153
data_MOF--net-oof--node1-TAGTUT_clean_sbu_3--edge1-XUDNAN_clean_linker_2
_symmetry_space_group_name_H-M    P1
_symmetry_Int_Tables_number       1
_symmetry_cell_setting            triclinic
loop_
_symmetry_equiv_pos_as_xyz
'x, y, z'
_cell_length_a     15.658951
_cell_length_b     63.712322
_cell_length_c     15.369321
_cell_angle_alpha  89.739276
_cell_angle_beta   86.121963
_cell_angle_gamma 90.023067
loop_
_atom_site_label
_atom_site_type_symbol
_atom_site_fract_x
_atom_site_fract_y
_atom_site_fract_z
_atom_type_partial_charge
C0 C 0.18938 0.16072 0.22068 0.0
C1 C 0.0062 0.22956 0.27764 0.0
C2 C 0.83071 0.19815 0.11426 0.0
Mg3 Mg 0.12494 0.11252 0.18506 0.0
Mg4 Mg 0.93871 0.09735 0.276 0.0
O5 O -0.00292 0.11618 0.20112 0.0
Mg6 Mg -0.00783 0.14675 0.23343 0.0
O7 O -0.00815 0.17776 0.25744 0.0
Mg8 Mg 0.03975 0.18841 0.14139 0.0
Mg9 Mg 0.88739 0.19011 0.2979 0.0
C10 C 0.79285 0.13084 0.25644 0.0
O11 O 0.96342 0.14218 0.3787 0.0
O12 O 0.10077 0.07822 0.13881 0.0
O13 O 0.86879 0.16847 0.40915 0.0
O14 O 0.13543 0.09732 0.32275 0.0
O15 O 0.974 0.06902 0.20692 0.0
O16 O 0.0057 0.0959 0.39174 0.0
O17 O 0.01937 0.15415 0.09345 0.0
O18 O 0.10196 0.12722 0.04894 0.0
C19 C 0.05721 0.1435 0.0322 0.0
C20 C 0.04148 0.06465 0.1583 0.0
O21 O 0.84795 0.14475 0.22939 0.0
O22 O 0.04885 0.2211 0.21202 0.0
O23 O 0.81337 0.1123 0.28074 0.0
O24 O 0.91053 0.19744 0.09212 0.0
O25 O 0.94252 0.22039 0.31863 0.0
O26 O 0.80232 0.19404 0.19226 0.0
O27 O 0.1348 0.14624 0.2398 0.0
O28 O 0.16715 0.17824 0.18837 0.0
C29 C 0.08612 0.09266 0.39019 0.0
C30 C 0.90988 0.15194 0.43112 0.0
C31 C 0.07109 0.87555 0.54225 0.0
C32 C 0.06171 0.95513 0.64508 0.0
C33 C 0.07991 0.93016 0.88991 0.0
Mg34 Mg 0.02857 0.8324 0.64692 0.0
Mg35 Mg 0.87982 0.83018 0.80459 0.0
O36 O 0.98408 0.84269 0.76376 0.0
Mg37 Mg -0.00853 0.8738 0.74218 0.0
O38 O 0.00454 0.90434 0.70919 0.0
Mg39 Mg 0.13242 0.9068 0.69523 0.0
Mg40 Mg 0.94097 0.92589 0.76278 0.0
C41 C 0.90715 0.86573 0.94329 0.0
O42 O 0.84932 0.87804 0.72624 0.0
O43 O 0.03222 0.79912 0.71219 0.0
O44 O 0.81372 0.91184 0.75493 0.0
O45 O 0.89514 0.82574 0.59897 0.0
O46 O 0.93302 0.7995 0.82511 0.0
O47 O 0.79063 0.82824 0.70356 0.0
O48 O 0.13562 0.87266 0.75155 0.0
O49 O 0.15926 0.84109 0.69136 0.0
C50 C 0.18691 0.85808 0.72391 0.0
C51 C -0.00652 0.79034 0.77949 0.0
O52 O 0.95997 0.87653 0.89253 0.0
O53 O 0.11811 0.94048 0.64095 0.0
O54 O 0.86139 0.8507 0.91567 0.0
O55 O 0.1351 0.92348 0.83081 0.0
O56 O -0.01245 0.95263 0.68474 0.0
O57 O -0.00069 0.92913 0.88236 0.0
O58 O 0.02118 0.8669 0.60098 0.0
O59 O 0.1177 0.8914 0.55955 0.0
C60 C 0.8158 0.82535 0.62394 0.0
C61 C 0.7942 0.89292 0.73511 0.0
C62 C 0.56434 0.6482 0.05325 0.0
C63 C 0.55274 0.56875 0.16378 0.0
C64 C 0.57249 0.59446 0.40541 0.0
Mg65 Mg 0.52299 0.69157 0.15442 0.0
Mg66 Mg 0.3746 0.69445 0.31218 0.0
O67 O 0.47835 0.68165 0.27215 0.0
Mg68 Mg 0.48503 0.65047 0.25306 0.0
O69 O 0.49727 0.61984 0.22242 0.0
Mg70 Mg 0.62505 0.61718 0.20848 0.0
Mg71 Mg 0.43342 0.5986 0.27872 0.0
C72 C 0.40163 0.65915 0.45376 0.0
O73 O 0.34288 0.64633 0.23768 0.0
O74 O 0.52777 0.72499 0.2164 0.0
O75 O 0.30658 0.61267 0.26976 0.0
O76 O 0.38992 0.69821 0.10608 0.0
O77 O 0.42904 0.72512 0.32974 0.0
O78 O 0.28529 0.69624 0.21085 0.0
O79 O 0.62918 0.65148 0.26204 0.0
O80 O 0.65322 0.68292 0.19953 0.0
C81 C 0.68064 0.66599 0.23326 0.0
C82 C 0.48964 0.73404 0.283 0.0
O83 O 0.45363 0.64811 0.40355 0.0
O84 O 0.60962 0.58331 0.15743 0.0
O85 O 0.35661 0.67429 0.42539 0.0
O86 O 0.6277 0.6008 0.34537 0.0
O87 O 0.47891 0.57153 0.20363 0.0
O88 O 0.49189 0.5958 0.39838 0.0
O89 O 0.51475 0.65699 0.11147 0.0
O90 O 0.61047 0.6323 0.07147 0.0
C91 C 0.31061 0.69881 0.13093 0.0
C92 C 0.28747 0.63152 0.24807 0.0
C93 C 0.55186 0.38304 0.54648 0.0
C94 C 0.52843 0.45974 0.67385 0.0
C95 C 0.56587 0.4324 0.91029 0.0
Mg96 Mg 0.52524 0.33684 0.64488 0.0
Mg97 Mg 0.38173 0.33139 0.81196 0.0
O98 O 0.47744 0.34601 0.76274 0.0
Mg99 Mg 0.47674 0.37713 0.74475 0.0
O100 O 0.48394 0.40811 0.71977 0.0
Mg101 Mg 0.612 0.41182 0.70945 0.0
Mg102 Mg 0.42135 0.42743 0.78767 0.0
C103 C 0.39909 0.36859 0.94761 0.0
O104 O 0.3331 0.37948 0.7389 0.0
O105 O 0.5408 0.30362 0.70918 0.0
O106 O 0.29746 0.4117 0.79148 0.0
O107 O 0.39404 0.32694 0.59982 0.0
O108 O 0.44692 0.30203 0.82663 0.0
O109 O 0.29346 0.32773 0.70972 0.0
O110 O 0.61941 0.37748 0.75685 0.0
O111 O 0.65271 0.34704 0.69181 0.0
C112 C 0.67422 0.3636 0.73151 0.0
C113 C 0.5079 0.29408 0.77766 0.0
O114 O 0.44522 0.37959 0.89178 0.0
O115 O 0.59014 0.44644 0.66373 0.0
O116 O 0.3638 0.35109 0.92862 0.0
O117 O 0.61841 0.42597 0.84852 0.0
O118 O 0.45645 0.45523 0.71451 0.0
O119 O 0.48518 0.43162 0.90403 0.0
O120 O 0.50423 0.37172 0.59926 0.0
O121 O 0.59675 0.39821 0.57398 0.0
C122 C 0.31619 0.32488 0.62918 0.0
C123 C 0.27768 0.3932 0.76647 0.0
H124 H 0.12762 0.12992 0.87185 0.0
H125 H 0.90429 0.16041 -0.00167 0.0
H126 H 0.83441 0.16041 0.86109 0.0
H127 H 0.12535 0.15912 0.67356 0.0
H128 H 0.15874 0.13747 0.60424 0.0
H129 H 0.18951 0.1383 0.71482 0.0
H130 H 0.12055 0.10148 0.74417 0.0
H131 H 0.0914 0.10101 0.6329 0.0
H132 H 0.0105 0.09735 0.72081 0.0
H133 H 0.78978 0.1592 0.71277 0.0
H134 H 0.78118 0.16082 0.55353 0.0
H135 H 0.03085 0.13118 0.51848 0.0
C136 C 0.06432 0.13669 0.87021 0.0
C137 C 0.02232 0.14544 0.94574 0.0
C138 C 0.93917 0.15408 0.94116 0.0
C139 C 0.8979 0.15384 0.86374 0.0
C140 C 0.94035 0.14496 0.79092 0.0
C141 C 0.02206 0.13681 0.79259 0.0
C142 C 0.05516 0.12982 0.70246 0.0
C143 C 0.13699 0.14191 0.67198 0.0
C144 C 0.0702 0.10599 0.70004 0.0
C145 C 0.9801 0.13595 0.65022 0.0
C146 C 0.91394 0.14422 0.70326 0.0
C147 C 0.84051 0.15254 0.67022 0.0
C148 C 0.83615 0.15339 0.57982 0.0
C149 C 0.9051 0.14608 0.52394 0.0
C150 C 0.97635 0.13647 0.55971 0.0
H151 H 0.09834 0.89924 0.39299 0.0
H152 H 0.02081 0.83731 0.48691 0.0
H153 H 0.96425 0.82948 0.34538 0.0
H154 H 0.92539 0.909 0.28638 0.0
H155 H 0.96708 0.92121 0.18789 0.0
H156 H 0.02432 0.92349 0.28516 0.0
H157 H 0.16234 0.9071 0.22525 0.0
H158 H 0.12304 0.90551 0.11809 0.0
H159 H 0.16198 0.88236 0.16888 0.0
H160 H 0.89094 0.83114 0.20917 0.0
H161 H 0.84723 0.83634 0.06129 0.0
H162 H -0.01344 0.89538 0.04253 0.0
C163 C 0.0725 0.88374 0.38266 0.0
C164 C 0.06233 0.86901 0.45152 0.0
C165 C 0.02728 0.849 0.43578 0.0
C166 C -0.00524 0.84442 0.3557 0.0
C167 C -0.00066 0.85989 0.29162 0.0
C168 C 0.04064 0.87874 0.30233 0.0
C169 C 0.03561 0.8926 0.22248 0.0
C170 C -0.01446 0.91278 0.24674 0.0
C171 C 0.12595 0.89721 0.18125 0.0
C172 C -0.01463 0.87849 0.16506 0.0
C173 C 0.96283 0.86005 0.20823 0.0
C174 C 0.91052 0.84518 0.17321 0.0
C175 C 0.88522 0.8485 0.08901 0.0
C176 C 0.91463 0.86624 0.03901 0.0
C177 C 0.96347 0.88172 0.07881 0.0
H178 H 0.58918 0.62443 0.90491 0.0
H179 H 0.51801 0.68675 -0.00357 0.0
H180 H 0.46227 0.69498 0.8547 0.0
H181 H 0.65509 0.64113 0.68139 0.0
H182 H 0.61391 0.61849 0.62978 0.0
H183 H 0.65237 0.61617 0.73718 0.0
H184 H 0.51314 0.60063 0.79741 0.0
H185 H 0.45542 0.60341 0.70057 0.0
H186 H 0.41578 0.61572 0.79902 0.0
H187 H 0.38946 0.69388 0.71804 0.0
H188 H 0.34548 0.68899 0.5702 0.0
H189 H 0.47793 0.62906 0.55437 0.0
C190 C 0.56495 0.64007 0.89399 0.0
C191 C 0.55628 0.65482 0.96227 0.0
C192 C 0.52329 0.67504 0.94578 0.0
C193 C 0.49128 0.67986 0.86552 0.0
C194 C 0.49436 0.6644 0.80199 0.0
C195 C 0.53365 0.64531 0.81346 0.0
C196 C 0.52736 0.63153 0.7341 0.0
C197 C 0.61734 0.62648 0.69322 0.0
C198 C 0.47527 0.61163 0.75905 0.0
C199 C 0.47863 0.64596 0.6761 0.0
C200 C 0.45801 0.66452 0.71851 0.0
C201 C 0.40749 0.67973 0.68271 0.0
C202 C 0.38199 0.67659 0.59858 0.0
C203 C 0.40932 0.65866 0.54946 0.0
C204 C 0.45641 0.64287 0.58999 0.0
H205 H 0.38422 0.34371 0.09487 0.0
H206 H 0.40902 0.40833 0.00805 0.0
H207 H 0.4506 0.41876 0.15334 0.0
H208 H 0.29729 0.35911 0.32787 0.0
H209 H 0.34827 0.33638 0.37135 0.0
H210 H 0.30858 0.33558 0.26387 0.0
H211 H 0.46088 0.32361 0.20553 0.0
H212 H 0.50083 0.32611 0.312 0.0
H213 H 0.55108 0.34049 0.22105 0.0
H214 H 0.51724 0.42072 0.29254 0.0
H215 H 0.56997 0.41673 0.43802 0.0
H216 H 0.48685 0.35156 0.44639 0.0
C217 C 0.39519 0.36017 0.10751 0.0
C218 C 0.39677 0.37523 0.03948 0.0
C219 C 0.41141 0.39655 0.05835 0.0
C220 C 0.43424 0.40261 0.14075 0.0
C221 C 0.43884 0.38718 0.20444 0.0
C222 C 0.41605 0.36658 0.19059 0.0
C223 C 0.42743 0.35327 0.2712 0.0
C224 C 0.34021 0.34562 0.31101 0.0
C225 C 0.48874 0.33478 0.25116 0.0
C226 C 0.46619 0.36931 0.32953 0.0
C227 C 0.47194 0.38873 0.28918 0.0
C228 C 0.51096 0.40577 0.32614 0.0
C229 C 0.54189 0.4032 0.40848 0.0
C230 C 0.53245 0.3838 0.45389 0.0
C231 C 0.49469 0.36656 0.41337 0.0
H232 H 0.64764 0.10755 0.23491 0.0
H233 H 0.73712 0.16902 0.30814 0.0
H234 H 0.58953 0.18202 0.32058 0.0
H235 H 0.48974 0.12492 0.10318 0.0
H236 H 0.41115 0.10519 0.13531 0.0
H237 H 0.52321 0.09964 0.14156 0.0
H238 H 0.49653 0.09017 0.30535 0.0
H239 H 0.38411 0.09568 0.29951 0.0
H240 H 0.44441 0.10889 0.37877 0.0
H241 H 0.43975 0.18971 0.30854 0.0
H242 H 0.28845 0.19172 0.27658 0.0
H243 H 0.28873 0.12515 0.21716 0.0
C244 C 0.6355 0.12361 0.25494 0.0
C245 C 0.70342 0.13751 0.26856 0.0
C246 C 0.68594 0.15841 0.2945 0.0
C247 C 0.6023 0.16583 0.30317 0.0
C248 C 0.53679 0.15201 0.28698 0.0
C249 C 0.55168 0.1313 0.26416 0.0
C250 C 0.46914 0.12036 0.24465 0.0
C251 C 0.47362 0.11205 0.15058 0.0
C252 C 0.44727 0.10273 0.31105 0.0
C253 C 0.4068 0.13847 0.25658 0.0
C254 C 0.4476 0.15645 0.28203 0.0
C255 C 0.40634 0.17569 0.29031 0.0
C256 C 0.32079 0.1767 0.27131 0.0
C257 C 0.27764 0.15856 0.2447 0.0
C258 C 0.32045 0.13911 0.23878 0.0
H259 H 0.64269 0.90818 0.81346 0.0
H260 H 0.74793 0.86647 0.61112 0.0
H261 H 0.60328 0.85417 0.58471 0.0
H262 H 0.48156 0.87417 0.90113 0.0
H263 H 0.40019 0.89392 0.92058 0.0
H264 H 0.51155 0.90098 0.92067 0.0
H265 H 0.49112 0.92916 0.80183 0.0
H266 H 0.3794 0.9223 0.80196 0.0
H267 H 0.44597 0.9217 0.70164 0.0
H268 H 0.4543 0.84397 0.58854 0.0
H269 H 0.30038 0.83782 0.6129 0.0
H270 H 0.28352 0.88707 0.80846 0.0
C271 C 0.63464 0.89675 0.76274 0.0
C272 C 0.70612 0.88785 0.71547 0.0
C273 C 0.69384 0.87291 0.64969 0.0
C274 C 0.61206 0.866 0.63363 0.0
C275 C 0.54308 0.87445 0.68314 0.0
C276 C 0.55267 0.88968 0.74546 0.0
C277 C 0.46669 0.89547 0.79067 0.0
C278 C 0.46494 0.89085 0.8891 0.0
C279 C 0.44449 0.91853 0.77294 0.0
C280 C 0.40827 0.88069 0.74528 0.0
C281 C 0.45438 0.8688 0.68358 0.0
C282 C 0.41691 0.8533 0.63582 0.0
C283 C 0.32936 0.84986 0.65081 0.0
C284 C 0.27978 0.86197 0.71278 0.0
C285 C 0.31978 0.87769 0.76038 0.0
H286 H 0.77688 0.63708 0.31941 0.0
H287 H 0.79422 0.6862 0.12142 0.0
H288 H 0.94817 0.68018 0.09799 0.0
H289 H 0.97305 0.65029 0.41211 0.0
H290 H 0.00341 0.62358 0.43365 0.0
H291 H 0.89197 0.63041 0.43182 0.0
H292 H 0.87239 0.602 0.31481 0.0
H293 H 0.98399 0.59512 0.31596 0.0
H294 H 0.93975 0.60248 0.21494 0.0
H295 H 0.09706 0.67004 0.09501 0.0
H296 H 0.24161 0.65785 0.12253 0.0
H297 H 0.13589 0.61626 0.32681 0.0
C298 C 0.81325 0.64643 0.27092 0.0
C299 C 0.77342 0.66209 0.22242 0.0
C300 C 0.8231 0.67419 0.15997 0.0
C301 C 0.91067 0.67081 0.14546 0.0
C302 C 0.94799 0.65536 0.19409 0.0
C303 C 0.90173 0.64345 0.25615 0.0
C304 C 0.96014 0.62879 0.3027 0.0
C305 C 0.95695 0.63357 0.40088 0.0
C306 C 0.93772 0.60573 0.28608 0.0
C307 C 0.04615 0.63468 0.25767 0.0
C308 C 0.03669 0.64983 0.19442 0.0
C309 C 0.10574 0.65828 0.14466 0.0
C310 C 0.18745 0.65143 0.16135 0.0
C311 C 0.19954 0.63656 0.22799 0.0
C312 C 0.12799 0.62766 0.2755 0.0
H313 H 0.77309 0.3991 0.73374 0.0
H314 H 0.774 0.33183 0.77978 0.0
H315 H 0.92591 0.33344 0.81061 0.0
H316 H 0.97092 0.4007 0.61729 0.0
H317 H 0.00524 0.42549 0.65905 0.0
H318 H 0.89289 0.42003 0.65464 0.0
H319 H 0.86864 0.42739 0.82016 0.0
H320 H 0.98108 0.43301 0.82506 0.0
H321 H 0.9308 0.41332 0.89589 0.0
H322 H 0.07595 0.34113 0.82427 0.0
H323 H 0.2234 0.35447 0.81344 0.0
H324 H 0.13178 0.41656 0.74986 0.0
C325 C 0.80519 0.38488 0.75236 0.0
C326 C 0.76268 0.36537 0.75493 0.0
C327 C 0.80626 0.3469 0.77734 0.0
C328 C 0.89206 0.34767 0.79568 0.0
C329 C 0.93304 0.36702 0.79083 0.0
C330 C 0.89169 0.38532 0.76949 0.0
C331 C 0.95381 0.40355 0.75964 0.0
C332 C 0.95582 0.41299 0.66715 0.0
C333 C 0.93229 0.42031 0.82936 0.0
C334 C 0.03669 0.39238 0.77568 0.0
C335 C 0.02235 0.37142 0.79531 0.0
C336 C 0.08829 0.3575 0.80906 0.0
C337 C 0.17176 0.36511 0.8012 0.0
C338 C 0.18853 0.38629 0.77817 0.0
C339 C 0.1202 0.40026 0.76725 0.0
H340 H 0.35039 0.30173 0.4821 0.0
H341 H 0.14086 0.32846 0.64438 0.0
H342 H 0.03743 0.31103 0.55353 0.0
H343 H 0.244 0.30126 0.26866 0.0
H344 H 0.29352 0.27649 0.24075 0.0
H345 H 0.34741 0.2949 0.30698 0.0
H346 H 0.35774 0.26529 0.42356 0.0
H347 H 0.30055 0.24754 0.35793 0.0
H348 H 0.26085 0.2529 0.4684 0.0
H349 H 0.95804 0.28745 0.45748 0.0
H350 H 0.90817 0.25804 0.37047 0.0
H351 H 0.16959 0.24562 0.27284 0.0
C352 C 0.28273 0.3045 0.49686 0.0
C353 C 0.25356 0.31673 0.56959 0.0
C354 C 0.16454 0.31933 0.58858 0.0
C355 C 0.10545 0.30957 0.537 0.0
C356 C 0.13644 0.29723 0.46691 0.0
C357 C 0.22311 0.29466 0.44679 0.0
C358 C 0.24001 0.27841 0.37574 0.0
C359 C 0.2839 0.28838 0.29317 0.0
C360 C 0.29286 0.25995 0.40841 0.0
C361 C 0.14932 0.27178 0.36062 0.0
C362 C 0.09056 0.28312 0.41271 0.0
C363 C 0.00334 0.27873 0.41543 0.0
C364 C 0.97566 0.26196 0.36576 0.0
C365 C 0.03491 0.24965 0.3142 0.0
C366 C 0.1226 0.25507 0.30979 0.0
H367 H 0.48742 0.27553 0.93904 0.0
H368 H 0.62057 0.2684 0.68383 0.0
H369 H 0.70038 0.23833 0.73935 0.0
H370 H 0.66168 0.26814 0.05632 0.0
H371 H 0.60808 0.25399 0.14605 0.0
H372 H 0.54885 0.27198 0.0829 0.0
H373 H 0.4424 0.24238 0.05022 0.0
H374 H 0.50136 0.22423 0.11361 0.0
H375 H 0.48213 0.21823 0.00212 0.0
H376 H 0.7812 0.21341 0.82628 0.0
H377 H 0.86034 0.19596 0.93846 0.0
H378 H 0.67522 0.21838 0.13934 0.0
C379 C 0.53122 0.26722 0.89385 0.0
C380 C 0.54705 0.27424 0.80659 0.0
C381 C 0.60687 0.26327 0.7506 0.0
C382 C 0.6522 0.2461 0.78152 0.0
C383 C 0.63681 0.24 0.8685 0.0
C384 C 0.57743 0.25015 0.9239 0.0
C385 C 0.58058 0.24221 0.01698 0.0
C386 C 0.60106 0.26014 0.07915 0.0
C387 C 0.49662 0.2311 0.04751 0.0
C388 C 0.65387 0.22669 0.00603 0.0
C389 C 0.68405 0.22539 0.91945 0.0
C390 C 0.75678 0.21387 0.89382 0.0
C391 C 0.80128 0.20393 0.95827 0.0
C392 C 0.77306 0.20539 0.04766 0.0
C393 C 0.69688 0.21645 0.07143 0.0
H394 H 0.46922 0.75066 0.44685 0.0
H395 H 0.59179 0.76235 0.18956 0.0
H396 H 0.66818 0.79258 0.24758 0.0
H397 H 0.45942 0.80728 0.52218 0.0
H398 H 0.48454 0.80003 0.63103 0.0
H399 H 0.42379 0.7824 0.5675 0.0
H400 H 0.53337 0.75275 0.58747 0.0
H401 H 0.59411 0.76989 0.65213 0.0
H402 H 0.64507 0.75741 0.55722 0.0
H403 H 0.74915 0.8171 0.33636 0.0
H404 H 0.83313 0.83276 0.44943 0.0
H405 H 0.66186 0.80482 0.65088 0.0
C406 C 0.50945 0.76008 0.40188 0.0
C407 C 0.52371 0.75427 0.31329 0.0
C408 C 0.57929 0.76659 0.25739 0.0
C409 C 0.6226 0.78387 0.28974 0.0
C410 C 0.60955 0.78869 0.37812 0.0
C411 C 0.55393 0.77721 0.43344 0.0
C412 C 0.56063 0.78363 0.52774 0.0
C413 C 0.47713 0.79395 0.56428 0.0
C414 C 0.58478 0.76481 0.58438 0.0
C415 C 0.63257 0.79955 0.51743 0.0
C416 C 0.65803 0.80269 0.43032 0.0
C417 C 0.72872 0.81505 0.40456 0.0
C418 C 0.77643 0.82378 0.46925 0.0
C419 C 0.75413 0.81993 0.55873 0.0
C420 C 0.67936 0.80833 0.58301 0.0
H421 H 0.15756 0.71978 0.15503 0.0
H422 H 0.32825 0.69069 0.95735 0.0
H423 H 0.2465 0.7064 0.8422 0.0
H424 H 0.95606 0.71768 0.02387 0.0
H425 H 0.92163 0.74277 0.06697 0.0
H426 H 0.98031 0.72503 0.13258 0.0
H427 H 0.09137 0.75452 0.1537 0.0
H428 H 0.03405 0.77203 0.08684 0.0
H429 H 0.14555 0.76663 0.05906 0.0
H430 H 0.16878 0.73115 0.75063 0.0
H431 H 0.09529 0.76157 0.68944 0.0
H432 H 0.97062 0.77414 0.94462 0.0
C433 C 0.17519 0.716 0.08758 0.0
C434 C 0.24938 0.7041 0.06493 0.0
C435 C 0.272 0.69991 0.97594 0.0
C436 C 0.22552 0.70865 0.91006 0.0
C437 C 0.15555 0.72134 0.93414 0.0
C438 C 0.12925 0.72469 0.02081 0.0
C439 C 0.05868 0.741 0.02901 0.0
C440 C 0.97416 0.73102 0.06526 0.0
C441 C 0.08401 0.75964 0.08543 0.0
C442 C 0.05401 0.74735 0.93418 0.0
C443 C 0.10908 0.7355 0.88031 0.0
C444 C 0.12349 0.74013 0.79167 0.0
C445 C 0.0818 0.75751 0.75749 0.0
C446 C 0.02637 0.77011 0.81184 0.0
C447 C 0.01079 0.76452 0.90077 0.0
H448 H 0.13115 0.04774 0.01318 0.0
H449 H -0.01413 0.03116 0.2544 0.0
H450 H 0.01012 0.9938 0.22392 0.0
H451 H 0.04519 1.00792 0.88854 0.0
H452 H 0.14227 1.00267 0.82251 0.0
H453 H 0.12459 0.02821 0.86944 0.0
H454 H 0.26868 0.02523 0.94235 0.0
H455 H 0.28561 0.99939 0.89697 0.0
H456 H 0.28689 1.00324 0.01301 0.0
H457 H 0.02855 0.9592 0.16054 0.0
H458 H 0.03067 0.92929 0.05958 0.0
H459 H 0.17232 0.96583 0.86246 0.0
C460 C 0.10562 0.03618 0.05985 0.0
C461 C 0.05636 0.04235 0.13598 0.0
C462 C 0.02285 0.02682 0.19508 0.0
C463 C 0.03731 1.00553 0.17903 0.0
C464 C 0.08546 0.99988 0.10345 0.0
C465 C 0.11853 0.01465 0.04413 0.0
C466 C 0.15902 1.00406 0.96315 0.0
C467 C 0.11513 1.01112 0.88112 0.0
C468 C 0.25582 1.00823 0.95333 0.0
C469 C 0.14042 0.98115 0.98525 0.0
C470 C 0.0994 0.97919 0.06744 0.0
C471 C 0.06397 0.96027 0.09775 0.0
C472 C 0.06672 0.94317 0.04112 0.0
C473 C 0.10657 0.94476 0.95653 0.0
C474 C 0.14663 0.9638 0.92921 0.0
H475 H -0.00633 0.07512 0.52953 0.0
H476 H 0.244 0.07376 0.38992 0.0
H477 H 0.27143 0.03921 0.45484 0.0
H478 H 0.05537 0.0432 0.72808 0.0
H479 H 0.95267 0.0303 0.7349 0.0
H480 H 0.96176 0.05714 0.69765 0.0
H481 H 0.89091 0.04705 0.55674 0.0
H482 H 0.88296 0.02011 0.59114 0.0
H483 H 0.93814 0.02671 0.48788 0.0
H484 H 0.25731 1.00178 0.50474 0.0
H485 H 0.21195 0.9664 0.55439 0.0
H486 H 0.96932 0.99187 0.65922 0.0
C487 C 0.05602 0.06808 0.51576 0.0
C488 C 0.11629 0.07717 0.45383 0.0
C489 C 0.19675 0.06726 0.43728 0.0
C490 C 0.21277 0.0475 0.47355 0.0
C491 C 0.14852 0.03809 0.52769 0.0
C492 C 0.07271 0.04835 0.55103 0.0
C493 C 0.01006 0.03397 0.60178 0.0
C494 C -0.00597 0.0416 0.69623 0.0
C495 C 0.9256 0.03185 0.55663 0.0
C496 C 0.06006 0.01364 0.59808 0.0
C497 C 0.14033 0.01641 0.55647 0.0
C498 C 0.19545 0.99955 0.53937 0.0
C499 C 0.16861 0.97944 0.56705 0.0
C500 C 0.08683 0.97624 0.61067 0.0
C501 C 0.03218 0.99369 0.62613 0.0
H502 H 0.45646 0.53259 0.17808 0.0
H503 H 0.70417 0.55642 0.0786 0.0
H504 H 0.74678 0.52072 0.03229 0.0
H505 H 0.53431 0.48051 0.25149 0.0
H506 H 0.44017 0.46725 0.21853 0.0
H507 H 0.43319 0.49409 0.25522 0.0
H508 H 0.36906 0.5053 0.11042 0.0
H509 H 0.3739 0.47848 0.07513 0.0
H510 H 0.42562 0.4987 0.00809 0.0
H511 H 0.75753 0.4833 0.98365 0.0
H512 H 0.72656 0.44941 0.91627 0.0
H513 H 0.47303 0.44965 0.04909 0.0
C514 C 0.51997 0.53033 0.14714 0.0
C515 C 0.57674 0.54742 0.13194 0.0
C516 C 0.65919 0.54367 0.09095 0.0
C517 C 0.68449 0.52336 0.06533 0.0
C518 C 0.62718 0.50686 0.08192 0.0
C519 C 0.54637 0.51016 0.12138 0.0
C520 C 0.49363 0.49022 0.12354 0.0
C521 C 0.47418 0.48257 0.21781 0.0
C522 C 0.41074 0.49337 0.07644 0.0
C523 C 0.5554 0.47554 0.0741 0.0
C524 C 0.6332 0.4852 0.05331 0.0
C525 C 0.69733 0.47546 0.00058 0.0
C526 C 0.6793 0.45604 0.963 0.0
C527 C 0.59702 0.44684 0.97677 0.0
C528 C 0.53682 0.4561 0.03787 0.0
H529 H 0.62287 0.4768 0.53136 0.0
H530 H 0.4711 0.49294 0.76839 0.0
H531 H 0.49678 0.53038 0.7387 0.0
H532 H 0.77851 0.52147 0.53474 0.0
H533 H 0.77999 0.52549 0.41847 0.0
H534 H 0.76228 0.49957 0.46381 0.0
H535 H 0.62025 0.49657 0.38713 0.0
H536 H 0.63873 0.5222 0.34035 0.0
H537 H 0.54032 0.51676 0.40411 0.0
H538 H 0.51661 0.56501 0.6756 0.0
H539 H 0.51979 0.59497 0.57399 0.0
H540 H 0.66676 0.559 0.38049 0.0
C541 C 0.59636 0.4883 0.57731 0.0
C542 C 0.54482 0.48202 0.65201 0.0
C543 C 0.50989 0.49742 0.7102 0.0
C544 C 0.52514 0.51874 0.6946 0.0
C545 C 0.5754 0.52452 0.6203 0.0
C546 C 0.60987 0.50986 0.56185 0.0
C547 C 0.6521 0.52061 0.48162 0.0
C548 C 0.749 0.51654 0.47427 0.0
C549 C 0.61034 0.51364 0.39846 0.0
C550 C 0.63278 0.54348 0.50303 0.0
C551 C 0.59001 0.54527 0.58438 0.0
C552 C 0.55346 0.56408 0.6136 0.0
C553 C 0.55686 0.58124 0.55664 0.0
C554 C 0.59849 0.57984 0.47284 0.0
C555 C 0.63971 0.56091 0.44673 0.0
loop_
_geom_bond_atom_site_label_1
_geom_bond_atom_site_label_2
_geom_bond_distance
_geom_bond_site_symmetry_2
_ccdc_geom_bond_type
C0 O27 1.312 . S
C0 O28 1.208 . S
C1 O22 1.331 . S
C1 O25 1.244 . S
C2 O24 1.264 . S
C2 O26 1.273 . S
Mg3 O5 1.936 1_455 S
Mg3 O12 2.081 . S
Mg3 O14 2.023 . S
Mg3 O18 2.031 . S
Mg3 O27 2.291 . S
Mg4 O5 1.963 . S
Mg4 O15 1.942 . S
Mg4 O16 1.955 . S
Mg4 O23 1.986 . S
O5 Mg3 1.936 1_655 S
O5 Mg4 1.963 . S
O5 Mg6 1.915 . S
Mg6 O5 1.915 . S
Mg6 O7 1.915 1_655 S
Mg6 O11 2.013 . S
Mg6 O17 2.114 1_655 S
Mg6 O21 2.013 . S
Mg6 O27 2.114 1_655 S
O7 Mg6 1.915 1_455 S
O7 Mg8 1.936 . S
O7 Mg9 1.963 1_455 S
Mg8 O7 1.936 . S
Mg8 O17 2.291 . S
Mg8 O22 2.081 . S
Mg8 O24 2.023 1_455 S
Mg8 O28 2.031 . S
Mg9 O7 1.963 1_655 S
Mg9 O13 1.986 . S
Mg9 O25 1.942 1_655 S
Mg9 O26 1.955 . S
C10 O21 1.191 . S
C10 O23 1.307 . S
O11 Mg6 2.013 . S
O11 C30 1.191 . S
O12 Mg3 2.081 . S
O12 C20 1.331 1_455 S
O13 Mg9 1.986 . S
O13 C30 1.307 . S
O14 Mg3 2.023 . S
O14 C29 1.264 . S
O15 Mg4 1.942 . S
O15 C20 1.244 . S
O16 Mg4 1.955 . S
O16 C29 1.273 1_655 S
O17 Mg6 2.114 1_455 S
O17 Mg8 2.291 . S
O17 C19 1.312 . S
O18 Mg3 2.031 . S
O18 C19 1.208 . S
C19 O17 1.312 . S
C19 O18 1.208 . S
C20 O12 1.331 1_655 S
C20 O15 1.244 . S
O21 Mg6 2.013 . S
O21 C10 1.191 . S
O22 C1 1.331 . S
O22 Mg8 2.081 . S
O23 Mg4 1.986 . S
O23 C10 1.307 . S
O24 C2 1.264 . S
O24 Mg8 2.023 1_655 S
O25 C1 1.244 . S
O25 Mg9 1.942 1_455 S
O26 C2 1.273 . S
O26 Mg9 1.955 . S
O27 C0 1.312 . S
O27 Mg3 2.291 . S
O27 Mg6 2.114 1_455 S
O28 C0 1.208 . S
O28 Mg8 2.031 . S
C29 O14 1.264 . S
C29 O16 1.273 1_455 S
C30 O11 1.191 . S
C30 O13 1.307 . S
C31 O58 1.312 . S
C31 O59 1.208 . S
C32 O53 1.331 1_655 S
C32 O56 1.244 . S
C33 O55 1.264 . S
C33 O57 1.273 1_455 S
Mg34 O36 1.936 . S
Mg34 O43 2.081 . S
Mg34 O45 2.023 1_455 S
Mg34 O49 2.031 . S
Mg34 O58 2.291 . S
Mg35 O36 1.963 1_655 S
Mg35 O46 1.942 1_655 S
Mg35 O47 1.955 . S
Mg35 O54 1.986 . S
O36 Mg34 1.936 . S
O36 Mg35 1.963 1_455 S
O36 Mg37 1.915 1_455 S
Mg37 O36 1.915 1_655 S
Mg37 O38 1.915 . S
Mg37 O42 2.013 . S
Mg37 O48 2.114 1_655 S
Mg37 O52 2.013 . S
Mg37 O58 2.114 1_655 S
O38 Mg37 1.915 . S
O38 Mg39 1.936 1_655 S
O38 Mg40 1.963 . S
Mg39 O38 1.936 1_455 S
Mg39 O48 2.291 . S
Mg39 O53 2.081 . S
Mg39 O55 2.023 . S
Mg39 O59 2.031 . S
Mg40 O38 1.963 . S
Mg40 O44 1.986 . S
Mg40 O56 1.942 . S
Mg40 O57 1.955 . S
C41 O52 1.191 . S
C41 O54 1.307 . S
O42 Mg37 2.013 . S
O42 C61 1.191 . S
O43 Mg34 2.081 . S
O43 C51 1.331 . S
O44 Mg40 1.986 . S
O44 C61 1.307 . S
O45 Mg34 2.023 1_655 S
O45 C60 1.264 . S
O46 Mg35 1.942 1_455 S
O46 C51 1.244 . S
O47 Mg35 1.955 . S
O47 C60 1.273 . S
O48 Mg37 2.114 1_455 S
O48 Mg39 2.291 . S
O48 C50 1.312 . S
O49 Mg34 2.031 . S
O49 C50 1.208 . S
C50 O48 1.312 . S
C50 O49 1.208 . S
C51 O43 1.331 . S
C51 O46 1.244 . S
O52 Mg37 2.013 . S
O52 C41 1.191 . S
O53 C32 1.331 1_455 S
O53 Mg39 2.081 . S
O54 Mg35 1.986 . S
O54 C41 1.307 . S
O55 C33 1.264 . S
O55 Mg39 2.023 . S
O56 C32 1.244 . S
O56 Mg40 1.942 . S
O57 C33 1.273 1_655 S
O57 Mg40 1.955 . S
O58 C31 1.312 . S
O58 Mg34 2.291 . S
O58 Mg37 2.114 1_455 S
O59 C31 1.208 . S
O59 Mg39 2.031 . S
C60 O45 1.264 . S
C60 O47 1.273 . S
C61 O42 1.191 . S
C61 O44 1.307 . S
C62 O89 1.312 . S
C62 O90 1.208 . S
C63 O84 1.331 . S
C63 O87 1.244 . S
C64 O86 1.264 . S
C64 O88 1.273 . S
Mg65 O67 1.936 . S
Mg65 O74 2.081 . S
Mg65 O76 2.023 . S
Mg65 O80 2.031 . S
Mg65 O89 2.291 . S
Mg66 O67 1.963 . S
Mg66 O77 1.942 . S
Mg66 O78 1.955 . S
Mg66 O85 1.986 . S
O67 Mg65 1.936 . S
O67 Mg66 1.963 . S
O67 Mg68 1.915 . S
Mg68 O67 1.915 . S
Mg68 O69 1.915 . S
Mg68 O73 2.013 . S
Mg68 O79 2.114 . S
Mg68 O83 2.013 . S
Mg68 O89 2.114 . S
O69 Mg68 1.915 . S
O69 Mg70 1.936 . S
O69 Mg71 1.963 . S
Mg70 O69 1.936 . S
Mg70 O79 2.291 . S
Mg70 O84 2.081 . S
Mg70 O86 2.023 . S
Mg70 O90 2.031 . S
Mg71 O69 1.963 . S
Mg71 O75 1.986 . S
Mg71 O87 1.942 . S
Mg71 O88 1.955 . S
C72 O83 1.191 . S
C72 O85 1.307 . S
O73 Mg68 2.013 . S
O73 C92 1.191 . S
O74 Mg65 2.081 . S
O74 C82 1.331 . S
O75 Mg71 1.986 . S
O75 C92 1.307 . S
O76 Mg65 2.023 . S
O76 C91 1.264 . S
O77 Mg66 1.942 . S
O77 C82 1.244 . S
O78 Mg66 1.955 . S
O78 C91 1.273 . S
O79 Mg68 2.114 . S
O79 Mg70 2.291 . S
O79 C81 1.312 . S
O80 Mg65 2.031 . S
O80 C81 1.208 . S
C81 O79 1.312 . S
C81 O80 1.208 . S
C82 O74 1.331 . S
C82 O77 1.244 . S
O83 Mg68 2.013 . S
O83 C72 1.191 . S
O84 C63 1.331 . S
O84 Mg70 2.081 . S
O85 Mg66 1.986 . S
O85 C72 1.307 . S
O86 C64 1.264 . S
O86 Mg70 2.023 . S
O87 C63 1.244 . S
O87 Mg71 1.942 . S
O88 C64 1.273 . S
O88 Mg71 1.955 . S
O89 C62 1.312 . S
O89 Mg65 2.291 . S
O89 Mg68 2.114 . S
O90 C62 1.208 . S
O90 Mg70 2.031 . S
C91 O76 1.264 . S
C91 O78 1.273 . S
C92 O73 1.191 . S
C92 O75 1.307 . S
C93 O120 1.312 . S
C93 O121 1.208 . S
C94 O115 1.331 . S
C94 O118 1.244 . S
C95 O117 1.264 . S
C95 O119 1.273 . S
Mg96 O98 1.936 . S
Mg96 O105 2.081 . S
Mg96 O107 2.023 . S
Mg96 O111 2.031 . S
Mg96 O120 2.291 . S
Mg97 O98 1.963 . S
Mg97 O108 1.942 . S
Mg97 O109 1.955 . S
Mg97 O116 1.986 . S
O98 Mg96 1.936 . S
O98 Mg97 1.963 . S
O98 Mg99 1.915 . S
Mg99 O98 1.915 . S
Mg99 O100 1.915 . S
Mg99 O104 2.013 . S
Mg99 O110 2.114 . S
Mg99 O114 2.013 . S
Mg99 O120 2.114 . S
O100 Mg99 1.915 . S
O100 Mg101 1.936 . S
O100 Mg102 1.963 . S
Mg101 O100 1.936 . S
Mg101 O110 2.291 . S
Mg101 O115 2.081 . S
Mg101 O117 2.023 . S
Mg101 O121 2.031 . S
Mg102 O100 1.963 . S
Mg102 O106 1.986 . S
Mg102 O118 1.942 . S
Mg102 O119 1.955 . S
C103 O114 1.191 . S
C103 O116 1.307 . S
O104 Mg99 2.013 . S
O104 C123 1.191 . S
O105 Mg96 2.081 . S
O105 C113 1.331 . S
O106 Mg102 1.986 . S
O106 C123 1.307 . S
O107 Mg96 2.023 . S
O107 C122 1.264 . S
O108 Mg97 1.942 . S
O108 C113 1.244 . S
O109 Mg97 1.955 . S
O109 C122 1.273 . S
O110 Mg99 2.114 . S
O110 Mg101 2.291 . S
O110 C112 1.312 . S
O111 Mg96 2.031 . S
O111 C112 1.208 . S
C112 O110 1.312 . S
C112 O111 1.208 . S
C113 O105 1.331 . S
C113 O108 1.244 . S
O114 Mg99 2.013 . S
O114 C103 1.191 . S
O115 C94 1.331 . S
O115 Mg101 2.081 . S
O116 Mg97 1.986 . S
O116 C103 1.307 . S
O117 C95 1.264 . S
O117 Mg101 2.023 . S
O118 C94 1.244 . S
O118 Mg102 1.942 . S
O119 C95 1.273 . S
O119 Mg102 1.955 . S
O120 C93 1.312 . S
O120 Mg96 2.291 . S
O120 Mg99 2.114 . S
O121 C93 1.208 . S
O121 Mg101 2.031 . S
C122 O107 1.264 . S
C122 O109 1.273 . S
C123 O104 1.191 . S
C123 O106 1.307 . S
H124 C136 0.930 . S
H125 C138 0.930 1_554 S
H126 C139 0.930 . S
H127 C143 0.959 . S
H128 C143 0.959 . S
H129 C143 0.961 . S
H130 C144 0.960 . S
H131 C144 0.961 . S
H132 C144 0.959 1_655 S
H133 C147 0.929 . S
H134 C148 0.931 . S
H135 C150 0.930 . S
C136 H124 0.930 . S
C136 C137 1.399 . S
C136 C141 1.399 . S
C137 C136 1.399 . S
C137 C138 1.376 1_455 S
C138 H125 0.930 1_556 S
C138 C137 1.376 1_655 S
C138 C139 1.388 . S
C139 H126 0.930 . S
C139 C138 1.388 . S
C139 C140 1.390 . S
C140 C139 1.390 . S
C140 C141 1.394 1_655 S
C140 C146 1.465 . S
C141 C136 1.399 . S
C141 C140 1.394 1_455 S
C141 C142 1.516 . S
C142 C141 1.516 . S
C142 C143 1.502 . S
C142 C144 1.561 . S
C142 C145 1.526 . S
C143 H127 0.959 . S
C143 H128 0.959 . S
C143 H129 0.961 . S
C143 C142 1.502 . S
C144 H130 0.960 . S
C144 H131 0.961 . S
C144 H132 0.959 1_455 S
C144 C142 1.561 . S
C145 C142 1.526 . S
C145 C146 1.396 1_455 S
C145 C150 1.390 . S
C146 C140 1.465 . S
C146 C145 1.396 1_655 S
C146 C147 1.399 . S
C147 H133 0.929 . S
C147 C146 1.399 . S
C147 C148 1.385 . S
C148 H134 0.931 . S
C148 C147 1.385 . S
C148 C149 1.389 . S
C149 C148 1.389 . S
C149 C150 1.387 1_655 S
C150 H135 0.930 . S
C150 C145 1.390 . S
C150 C149 1.387 1_455 S
H151 C163 0.930 1_655 S
H152 C165 0.930 . S
H153 C166 0.930 . S
H154 C170 0.959 . S
H155 C170 0.959 . S
H156 C170 0.961 . S
H157 C171 0.960 . S
H158 C171 0.961 . S
H159 C171 0.959 . S
H160 C174 0.929 . S
H161 C175 0.931 . S
H162 C177 0.930 . S
C163 H151 0.930 1_455 S
C163 C164 1.399 . S
C163 C168 1.399 . S
C164 C163 1.399 . S
C164 C165 1.376 . S
C165 H152 0.930 . S
C165 C164 1.376 . S
C165 C166 1.388 . S
C166 H153 0.930 . S
C166 C165 1.388 . S
C166 C167 1.390 . S
C167 C166 1.390 . S
C167 C168 1.394 . S
C167 C173 1.465 . S
C168 C163 1.399 . S
C168 C167 1.394 . S
C168 C169 1.516 1_455 S
C169 C168 1.516 1_655 S
C169 C170 1.502 . S
C169 C171 1.561 1_655 S
C169 C172 1.526 . S
C170 H154 0.959 . S
C170 H155 0.959 . S
C170 H156 0.961 . S
C170 C169 1.502 . S
C171 H157 0.960 . S
C171 H158 0.961 . S
C171 H159 0.959 . S
C171 C169 1.561 1_455 S
C172 C169 1.526 . S
C172 C173 1.396 1_655 S
C172 C177 1.390 . S
C173 C167 1.465 . S
C173 C172 1.396 1_455 S
C173 C174 1.399 . S
C174 H160 0.929 . S
C174 C173 1.399 . S
C174 C175 1.385 . S
C175 H161 0.931 . S
C175 C174 1.385 . S
C175 C176 1.389 1_455 S
C176 C175 1.389 1_655 S
C176 C177 1.387 . S
C177 H162 0.930 . S
C177 C172 1.390 . S
C177 C176 1.387 . S
H178 C190 0.930 . S
H179 C192 0.930 . S
H180 C193 0.930 . S
H181 C197 0.959 . S
H182 C197 0.959 . S
H183 C197 0.961 . S
H184 C198 0.960 . S
H185 C198 0.961 . S
H186 C198 0.959 . S
H187 C201 0.929 . S
H188 C202 0.931 . S
H189 C204 0.930 . S
C190 H178 0.930 . S
C190 C191 1.399 . S
C190 C195 1.399 . S
C191 C190 1.399 . S
C191 C192 1.376 . S
C192 H179 0.930 . S
C192 C191 1.376 . S
C192 C193 1.388 . S
C193 H180 0.930 . S
C193 C192 1.388 . S
C193 C194 1.390 . S
C194 C193 1.390 . S
C194 C195 1.394 . S
C194 C200 1.465 . S
C195 C190 1.399 . S
C195 C194 1.394 . S
C195 C196 1.516 . S
C196 C195 1.516 . S
C196 C197 1.502 . S
C196 C198 1.561 . S
C196 C199 1.526 . S
C197 H181 0.959 . S
C197 H182 0.959 . S
C197 H183 0.961 . S
C197 C196 1.502 . S
C198 H184 0.960 . S
C198 H185 0.961 . S
C198 H186 0.959 . S
C198 C196 1.561 . S
C199 C196 1.526 . S
C199 C200 1.396 . S
C199 C204 1.390 . S
C200 C194 1.465 . S
C200 C199 1.396 . S
C200 C201 1.399 . S
C201 H187 0.929 . S
C201 C200 1.399 . S
C201 C202 1.385 . S
C202 H188 0.931 . S
C202 C201 1.385 . S
C202 C203 1.389 . S
C203 C202 1.389 . S
C203 C204 1.387 . S
C204 H189 0.930 . S
C204 C199 1.390 . S
C204 C203 1.387 . S
H205 C217 0.930 . S
H206 C219 0.930 . S
H207 C220 0.930 . S
H208 C224 0.959 . S
H209 C224 0.959 . S
H210 C224 0.961 . S
H211 C225 0.960 . S
H212 C225 0.961 . S
H213 C225 0.959 . S
H214 C228 0.929 . S
H215 C229 0.931 . S
H216 C231 0.930 . S
C217 H205 0.930 . S
C217 C218 1.399 . S
C217 C222 1.399 . S
C218 C217 1.399 . S
C218 C219 1.376 . S
C219 H206 0.930 . S
C219 C218 1.376 . S
C219 C220 1.388 . S
C220 H207 0.930 . S
C220 C219 1.388 . S
C220 C221 1.390 . S
C221 C220 1.390 . S
C221 C222 1.394 . S
C221 C227 1.465 . S
C222 C217 1.399 . S
C222 C221 1.394 . S
C222 C223 1.516 . S
C223 C222 1.516 . S
C223 C224 1.502 . S
C223 C225 1.561 . S
C223 C226 1.526 . S
C224 H208 0.959 . S
C224 H209 0.959 . S
C224 H210 0.961 . S
C224 C223 1.502 . S
C225 H211 0.960 . S
C225 H212 0.961 . S
C225 H213 0.959 . S
C225 C223 1.561 . S
C226 C223 1.526 . S
C226 C227 1.396 . S
C226 C231 1.390 . S
C227 C221 1.465 . S
C227 C226 1.396 . S
C227 C228 1.399 . S
C228 H214 0.929 . S
C228 C227 1.399 . S
C228 C229 1.385 . S
C229 H215 0.931 . S
C229 C228 1.385 . S
C229 C230 1.389 . S
C230 C229 1.389 . S
C230 C231 1.387 . S
C231 H216 0.930 . S
C231 C226 1.390 . S
C231 C230 1.387 . S
H232 C244 0.930 . S
H233 C246 0.930 . S
H234 C247 0.930 . S
H235 C251 0.959 . S
H236 C251 0.959 . S
H237 C251 0.961 . S
H238 C252 0.960 . S
H239 C252 0.961 . S
H240 C252 0.959 . S
H241 C255 0.929 . S
H242 C256 0.931 . S
H243 C258 0.930 . S
C244 H232 0.930 . S
C244 C245 1.399 . S
C244 C249 1.399 . S
C245 C244 1.399 . S
C245 C246 1.376 . S
C246 H233 0.930 . S
C246 C245 1.376 . S
C246 C247 1.388 . S
C247 H234 0.930 . S
C247 C246 1.388 . S
C247 C248 1.390 . S
C248 C247 1.390 . S
C248 C249 1.394 . S
C248 C254 1.465 . S
C249 C244 1.399 . S
C249 C248 1.394 . S
C249 C250 1.516 . S
C250 C249 1.516 . S
C250 C251 1.502 . S
C250 C252 1.561 . S
C250 C253 1.526 . S
C251 H235 0.959 . S
C251 H236 0.959 . S
C251 H237 0.961 . S
C251 C250 1.502 . S
C252 H238 0.960 . S
C252 H239 0.961 . S
C252 H240 0.959 . S
C252 C250 1.561 . S
C253 C250 1.526 . S
C253 C254 1.396 . S
C253 C258 1.390 . S
C254 C248 1.465 . S
C254 C253 1.396 . S
C254 C255 1.399 . S
C255 H241 0.929 . S
C255 C254 1.399 . S
C255 C256 1.385 . S
C256 H242 0.931 . S
C256 C255 1.385 . S
C256 C257 1.389 . S
C257 C256 1.389 . S
C257 C258 1.387 . S
C258 H243 0.930 . S
C258 C253 1.390 . S
C258 C257 1.387 . S
H259 C271 0.930 . S
H260 C273 0.930 . S
H261 C274 0.930 . S
H262 C278 0.959 . S
H263 C278 0.959 . S
H264 C278 0.961 . S
H265 C279 0.960 . S
H266 C279 0.961 . S
H267 C279 0.959 . S
H268 C282 0.929 . S
H269 C283 0.931 . S
H270 C285 0.930 . S
C271 H259 0.930 . S
C271 C272 1.399 . S
C271 C276 1.399 . S
C272 C271 1.399 . S
C272 C273 1.376 . S
C273 H260 0.930 . S
C273 C272 1.376 . S
C273 C274 1.388 . S
C274 H261 0.930 . S
C274 C273 1.388 . S
C274 C275 1.390 . S
C275 C274 1.390 . S
C275 C276 1.394 . S
C275 C281 1.465 . S
C276 C271 1.399 . S
C276 C275 1.394 . S
C276 C277 1.516 . S
C277 C276 1.516 . S
C277 C278 1.502 . S
C277 C279 1.561 . S
C277 C280 1.526 . S
C278 H262 0.959 . S
C278 H263 0.959 . S
C278 H264 0.961 . S
C278 C277 1.502 . S
C279 H265 0.960 . S
C279 H266 0.961 . S
C279 H267 0.959 . S
C279 C277 1.561 . S
C280 C277 1.526 . S
C280 C281 1.396 . S
C280 C285 1.390 . S
C281 C275 1.465 . S
C281 C280 1.396 . S
C281 C282 1.399 . S
C282 H268 0.929 . S
C282 C281 1.399 . S
C282 C283 1.385 . S
C283 H269 0.931 . S
C283 C282 1.385 . S
C283 C284 1.389 . S
C284 C283 1.389 . S
C284 C285 1.387 . S
C285 H270 0.930 . S
C285 C280 1.390 . S
C285 C284 1.387 . S
H286 C298 0.930 . S
H287 C300 0.930 . S
H288 C301 0.930 . S
H289 C305 0.959 . S
H290 C305 0.959 1_455 S
H291 C305 0.961 . S
H292 C306 0.960 . S
H293 C306 0.961 1_455 S
H294 C306 0.959 1_455 S
H295 C309 0.929 . S
H296 C310 0.931 . S
H297 C312 0.930 . S
C298 H286 0.930 . S
C298 C299 1.399 . S
C298 C303 1.399 . S
C299 C298 1.399 . S
C299 C300 1.376 . S
C300 H287 0.930 . S
C300 C299 1.376 . S
C300 C301 1.388 . S
C301 H288 0.930 . S
C301 C300 1.388 . S
C301 C302 1.390 . S
C302 C301 1.390 . S
C302 C303 1.394 . S
C302 C308 1.465 1_655 S
C303 C298 1.399 . S
C303 C302 1.394 . S
C303 C304 1.516 . S
C304 C303 1.516 . S
C304 C305 1.502 . S
C304 C306 1.561 . S
C304 C307 1.526 1_655 S
C305 H289 0.959 . S
C305 H290 0.959 1_655 S
C305 H291 0.961 . S
C305 C304 1.502 . S
C306 H292 0.960 . S
C306 H293 0.961 1_655 S
C306 H294 0.959 1_655 S
C306 C304 1.561 . S
C307 C304 1.526 1_455 S
C307 C308 1.396 . S
C307 C312 1.390 . S
C308 C302 1.465 1_455 S
C308 C307 1.396 . S
C308 C309 1.399 . S
C309 H295 0.929 . S
C309 C308 1.399 . S
C309 C310 1.385 . S
C310 H296 0.931 . S
C310 C309 1.385 . S
C310 C311 1.389 . S
C311 C310 1.389 . S
C311 C312 1.387 . S
C312 H297 0.930 . S
C312 C307 1.390 . S
C312 C311 1.387 . S
H313 C325 0.930 . S
H314 C327 0.930 . S
H315 C328 0.930 . S
H316 C332 0.959 . S
H317 C332 0.959 . S
H318 C332 0.961 1_655 S
H319 C333 0.960 . S
H320 C333 0.961 1_455 S
H321 C333 0.958 1_455 S
H322 C336 0.929 . S
H323 C337 0.931 . S
H324 C339 0.930 . S
C325 H313 0.930 . S
C325 C326 1.399 . S
C325 C330 1.399 . S
C326 C325 1.399 . S
C326 C327 1.376 . S
C327 H314 0.930 . S
C327 C326 1.376 . S
C327 C328 1.388 . S
C328 H315 0.930 . S
C328 C327 1.388 . S
C328 C329 1.390 . S
C329 C328 1.390 . S
C329 C330 1.394 . S
C329 C335 1.465 1_655 S
C330 C325 1.399 . S
C330 C329 1.394 . S
C330 C331 1.523 . S
C331 C330 1.523 . S
C331 C332 1.502 1_655 S
C331 C333 1.561 . S
C331 C334 1.519 1_655 S
C332 H316 0.959 . S
C332 H317 0.959 . S
C332 H318 0.961 1_455 S
C332 C331 1.502 1_455 S
C333 H319 0.960 . S
C333 H320 0.961 1_655 S
C333 H321 0.958 1_655 S
C333 C331 1.561 . S
C334 C331 1.519 1_455 S
C334 C335 1.396 . S
C334 C339 1.390 . S
C335 C329 1.465 1_455 S
C335 C334 1.396 . S
C335 C336 1.399 . S
C336 H322 0.929 . S
C336 C335 1.399 . S
C336 C337 1.385 . S
C337 H323 0.931 . S
C337 C336 1.385 . S
C337 C338 1.389 . S
C338 C337 1.389 . S
C338 C339 1.387 . S
C339 H324 0.930 . S
C339 C334 1.390 . S
C339 C338 1.387 . S
H340 C352 0.930 . S
H341 C354 0.930 . S
H342 C355 0.930 . S
H343 C359 0.959 . S
H344 C359 0.959 . S
H345 C359 0.961 . S
H346 C360 0.960 . S
H347 C360 0.961 . S
H348 C360 0.959 . S
H349 C363 0.929 . S
H350 C364 0.931 . S
H351 C366 0.930 . S
C352 H340 0.930 . S
C352 C353 1.399 . S
C352 C357 1.399 . S
C353 C352 1.399 . S
C353 C354 1.376 . S
C354 H341 0.930 . S
C354 C353 1.376 . S
C354 C355 1.388 . S
C355 H342 0.930 . S
C355 C354 1.388 . S
C355 C356 1.390 . S
C356 C355 1.390 . S
C356 C357 1.394 . S
C356 C362 1.465 . S
C357 C352 1.399 . S
C357 C356 1.394 . S
C357 C358 1.516 . S
C358 C357 1.516 . S
C358 C359 1.502 . S
C358 C360 1.561 . S
C358 C361 1.526 . S
C359 H343 0.959 . S
C359 H344 0.959 . S
C359 H345 0.961 . S
C359 C358 1.502 . S
C360 H346 0.960 . S
C360 H347 0.961 . S
C360 H348 0.959 . S
C360 C358 1.561 . S
C361 C358 1.526 . S
C361 C362 1.396 . S
C361 C366 1.390 . S
C362 C356 1.465 . S
C362 C361 1.396 . S
C362 C363 1.399 . S
C363 H349 0.929 . S
C363 C362 1.399 . S
C363 C364 1.385 . S
C364 H350 0.931 . S
C364 C363 1.385 . S
C364 C365 1.389 . S
C365 C364 1.389 . S
C365 C366 1.387 . S
C366 H351 0.930 . S
C366 C361 1.390 . S
C366 C365 1.387 . S
H367 C379 0.930 1_554 S
H368 C381 0.930 . S
H369 C382 0.930 . S
H370 C386 0.959 . S
H371 C386 0.959 . S
H372 C386 0.961 . S
H373 C387 0.960 . S
H374 C387 0.961 . S
H375 C387 0.959 . S
H376 C390 0.929 . S
H377 C391 0.931 1_556 S
H378 C393 0.930 . S
C379 H367 0.930 1_556 S
C379 C380 1.399 . S
C379 C384 1.399 1_556 S
C380 C379 1.399 . S
C380 C381 1.376 . S
C381 H368 0.930 . S
C381 C380 1.376 . S
C381 C382 1.388 . S
C382 H369 0.930 . S
C382 C381 1.388 . S
C382 C383 1.390 . S
C383 C382 1.390 . S
C383 C384 1.394 1_556 S
C383 C389 1.465 . S
C384 C379 1.399 1_554 S
C384 C383 1.394 1_554 S
C384 C385 1.516 . S
C385 C384 1.516 . S
C385 C386 1.502 . S
C385 C387 1.561 . S
C385 C388 1.526 . S
C386 H370 0.959 . S
C386 H371 0.959 . S
C386 H372 0.961 . S
C386 C385 1.502 . S
C387 H373 0.960 . S
C387 H374 0.961 . S
C387 H375 0.959 . S
C387 C385 1.561 . S
C388 C385 1.526 . S
C388 C389 1.396 1_554 S
C388 C393 1.390 . S
C389 C383 1.465 . S
C389 C388 1.396 1_556 S
C389 C390 1.399 . S
C390 H376 0.929 . S
C390 C389 1.399 . S
C390 C391 1.385 1_556 S
C391 H377 0.931 1_554 S
C391 C390 1.385 1_554 S
C391 C392 1.389 . S
C392 C391 1.389 . S
C392 C393 1.387 . S
C393 H378 0.930 . S
C393 C388 1.390 . S
C393 C392 1.387 . S
H394 C406 0.930 . S
H395 C408 0.930 . S
H396 C409 0.930 . S
H397 C413 0.959 . S
H398 C413 0.959 . S
H399 C413 0.961 . S
H400 C414 0.960 . S
H401 C414 0.961 . S
H402 C414 0.959 . S
H403 C417 0.929 . S
H404 C418 0.931 . S
H405 C420 0.930 . S
C406 H394 0.930 . S
C406 C407 1.399 . S
C406 C411 1.399 . S
C407 C406 1.399 . S
C407 C408 1.376 . S
C408 H395 0.930 . S
C408 C407 1.376 . S
C408 C409 1.388 . S
C409 H396 0.930 . S
C409 C408 1.388 . S
C409 C410 1.390 . S
C410 C409 1.390 . S
C410 C411 1.394 . S
C410 C416 1.465 . S
C411 C406 1.399 . S
C411 C410 1.394 . S
C411 C412 1.516 . S
C412 C411 1.516 . S
C412 C413 1.502 . S
C412 C414 1.561 . S
C412 C415 1.526 . S
C413 H397 0.959 . S
C413 H398 0.959 . S
C413 H399 0.961 . S
C413 C412 1.502 . S
C414 H400 0.960 . S
C414 H401 0.961 . S
C414 H402 0.959 . S
C414 C412 1.561 . S
C415 C412 1.526 . S
C415 C416 1.396 . S
C415 C420 1.390 . S
C416 C410 1.465 . S
C416 C415 1.396 . S
C416 C417 1.399 . S
C417 H403 0.929 . S
C417 C416 1.399 . S
C417 C418 1.385 . S
C418 H404 0.931 . S
C418 C417 1.385 . S
C418 C419 1.389 . S
C419 C418 1.389 . S
C419 C420 1.387 . S
C420 H405 0.930 . S
C420 C415 1.390 . S
C420 C419 1.387 . S
H421 C433 0.930 . S
H422 C435 0.930 1_556 S
H423 C436 0.930 . S
H424 C440 0.959 . S
H425 C440 0.959 . S
H426 C440 0.961 . S
H427 C441 0.960 . S
H428 C441 0.961 . S
H429 C441 0.959 . S
H430 C444 0.929 . S
H431 C445 0.931 . S
H432 C447 0.930 1_554 S
C433 H421 0.930 . S
C433 C434 1.399 . S
C433 C438 1.399 . S
C434 C433 1.399 . S
C434 C435 1.376 . S
C435 H422 0.930 1_554 S
C435 C434 1.376 . S
C435 C436 1.388 1_554 S
C436 H423 0.930 . S
C436 C435 1.388 1_556 S
C436 C437 1.390 . S
C437 C436 1.390 . S
C437 C438 1.394 1_556 S
C437 C443 1.465 . S
C438 C433 1.399 . S
C438 C437 1.394 1_554 S
C438 C439 1.516 . S
C439 C438 1.516 . S
C439 C440 1.502 . S
C439 C441 1.561 . S
C439 C442 1.526 . S
C440 H424 0.959 . S
C440 H425 0.959 . S
C440 H426 0.961 . S
C440 C439 1.502 . S
C441 H427 0.960 . S
C441 H428 0.961 . S
C441 H429 0.959 . S
C441 C439 1.561 . S
C442 C439 1.526 . S
C442 C443 1.396 1_554 S
C442 C447 1.390 1_554 S
C443 C437 1.465 . S
C443 C442 1.396 1_556 S
C443 C444 1.399 . S
C444 H430 0.929 . S
C444 C443 1.399 . S
C444 C445 1.385 . S
C445 H431 0.931 . S
C445 C444 1.385 . S
C445 C446 1.389 . S
C446 C445 1.389 . S
C446 C447 1.387 . S
C447 H432 0.930 1_556 S
C447 C442 1.390 1_556 S
C447 C446 1.387 . S
H448 C460 0.935 . S
H449 C462 0.930 . S
H450 C463 0.930 1_455 S
H451 C467 0.959 1_565 S
H452 C467 0.959 1_565 S
H453 C467 0.961 . S
H454 C468 0.960 . S
H455 C468 0.961 . S
H456 C468 0.959 . S
H457 C471 0.929 . S
H458 C472 0.931 . S
H459 C474 0.930 . S
C460 H448 0.935 . S
C460 C461 1.393 1_556 S
C460 C465 1.400 . S
C461 C460 1.393 1_554 S
C461 C462 1.376 . S
C462 H449 0.930 . S
C462 C461 1.376 . S
C462 C463 1.388 . S
C463 H450 0.930 1_655 S
C463 C462 1.388 . S
C463 C464 1.390 1_655 S
C464 C463 1.390 1_455 S
C464 C465 1.391 1_454 S
C464 C470 1.467 1_545 S
C465 C460 1.400 . S
C465 C464 1.391 1_656 S
C465 C466 1.516 . S
C466 C465 1.516 . S
C466 C467 1.502 . S
C466 C468 1.561 1_655 S
C466 C469 1.526 1_645 S
C467 H451 0.959 1_545 S
C467 H452 0.959 1_545 S
C467 H453 0.961 . S
C467 C466 1.502 . S
C468 H454 0.960 . S
C468 H455 0.961 . S
C468 H456 0.959 . S
C468 C466 1.561 1_455 S
C469 C466 1.526 1_465 S
C469 C470 1.396 1_556 S
C469 C474 1.390 . S
C470 C464 1.467 1_565 S
C470 C469 1.396 1_554 S
C470 C471 1.399 . S
C471 H457 0.929 . S
C471 C470 1.399 . S
C471 C472 1.385 . S
C472 H458 0.931 . S
C472 C471 1.385 . S
C472 C473 1.389 1_554 S
C473 C472 1.389 1_556 S
C473 C474 1.387 . S
C474 H459 0.930 . S
C474 C469 1.390 . S
C474 C473 1.387 . S
H475 C487 0.930 . S
H476 C489 0.930 . S
H477 C490 0.930 . S
H478 C494 0.959 . S
H479 C494 0.959 . S
H480 C494 0.961 . S
H481 C495 0.960 . S
H482 C495 0.961 . S
H483 C495 0.959 . S
H484 C498 0.929 . S
H485 C499 0.931 . S
H486 C501 0.930 . S
C487 H475 0.930 . S
C487 C488 1.399 . S
C487 C492 1.399 . S
C488 C487 1.399 . S
C488 C489 1.376 . S
C489 H476 0.930 . S
C489 C488 1.376 . S
C489 C490 1.388 . S
C490 H477 0.930 . S
C490 C489 1.388 . S
C490 C491 1.390 . S
C491 C490 1.390 . S
C491 C492 1.394 . S
C491 C497 1.465 1_445 S
C492 C487 1.399 . S
C492 C491 1.394 . S
C492 C493 1.516 1_455 S
C493 C492 1.516 1_655 S
C493 C494 1.502 1_655 S
C493 C495 1.561 . S
C493 C496 1.526 1_545 S
C494 H478 0.959 . S
C494 H479 0.959 . S
C494 H480 0.961 . S
C494 C493 1.502 1_455 S
C495 H481 0.960 . S
C495 H482 0.961 . S
C495 H483 0.959 . S
C495 C493 1.561 . S
C496 C493 1.526 1_565 S
C496 C497 1.396 . S
C496 C501 1.390 . S
C497 C491 1.465 1_665 S
C497 C496 1.396 . S
C497 C498 1.399 . S
C498 H484 0.929 . S
C498 C497 1.399 . S
C498 C499 1.385 . S
C499 H485 0.931 . S
C499 C498 1.385 . S
C499 C500 1.389 . S
C500 C499 1.389 . S
C500 C501 1.387 . S
C501 H486 0.930 . S
C501 C496 1.390 . S
C501 C500 1.387 . S
H502 C514 0.930 . S
H503 C516 0.930 . S
H504 C517 0.930 . S
H505 C521 0.959 . S
H506 C521 0.959 . S
H507 C521 0.961 . S
H508 C522 0.960 . S
H509 C522 0.961 . S
H510 C522 0.959 . S
H511 C525 0.929 . S
H512 C526 0.931 . S
H513 C528 0.930 1_554 S
C514 H502 0.930 . S
C514 C515 1.399 . S
C514 C519 1.399 . S
C515 C514 1.399 . S
C515 C516 1.376 1_554 S
C516 H503 0.930 . S
C516 C515 1.376 1_556 S
C516 C517 1.388 . S
C517 H504 0.930 . S
C517 C516 1.388 . S
C517 C518 1.390 . S
C518 C517 1.390 . S
C518 C519 1.394 1_556 S
C518 C524 1.465 . S
C519 C514 1.399 . S
C519 C518 1.394 1_554 S
C519 C520 1.516 . S
C520 C519 1.516 . S
C520 C521 1.502 . S
C520 C522 1.561 . S
C520 C523 1.526 1_554 S
C521 H505 0.959 . S
C521 H506 0.959 . S
C521 H507 0.961 . S
C521 C520 1.502 . S
C522 H508 0.960 . S
C522 H509 0.961 . S
C522 H510 0.959 . S
C522 C520 1.561 . S
C523 C520 1.526 1_556 S
C523 C524 1.396 . S
C523 C528 1.390 . S
C524 C518 1.465 . S
C524 C523 1.396 . S
C524 C525 1.399 . S
C525 H511 0.929 . S
C525 C524 1.399 . S
C525 C526 1.385 . S
C526 H512 0.931 . S
C526 C525 1.385 . S
C526 C527 1.389 . S
C527 C526 1.389 . S
C527 C528 1.387 . S
C528 H513 0.930 1_556 S
C528 C523 1.390 . S
C528 C527 1.387 . S
H529 C541 0.930 . S
H530 C543 0.930 . S
H531 C544 0.930 . S
H532 C548 0.959 . S
H533 C548 0.959 . S
H534 C548 0.961 . S
H535 C549 0.960 . S
H536 C549 0.961 . S
H537 C549 0.959 . S
H538 C552 0.929 . S
H539 C553 0.931 . S
H540 C555 0.930 . S
C541 H529 0.930 . S
C541 C542 1.399 . S
C541 C546 1.399 . S
C542 C541 1.399 . S
C542 C543 1.376 . S
C543 H530 0.930 . S
C543 C542 1.376 . S
C543 C544 1.388 . S
C544 H531 0.930 . S
C544 C543 1.388 . S
C544 C545 1.390 . S
C545 C544 1.390 . S
C545 C546 1.394 . S
C545 C551 1.465 . S
C546 C541 1.399 . S
C546 C545 1.394 . S
C546 C547 1.516 . S
C547 C546 1.516 . S
C547 C548 1.502 . S
C547 C549 1.561 . S
C547 C550 1.526 . S
C548 H532 0.959 . S
C548 H533 0.959 . S
C548 H534 0.961 . S
C548 C547 1.502 . S
C549 H535 0.960 . S
C549 H536 0.961 . S
C549 H537 0.959 . S
C549 C547 1.561 . S
C550 C547 1.526 . S
C550 C551 1.396 . S
C550 C555 1.390 . S
C551 C545 1.465 . S
C551 C550 1.396 . S
C551 C552 1.399 . S
C552 H538 0.929 . S
C552 C551 1.399 . S
C552 C553 1.385 . S
C553 H539 0.931 . S
C553 C552 1.385 . S
C553 C554 1.389 . S
C554 C553 1.389 . S
C554 C555 1.387 . S
C555 H540 0.930 . S
C555 C550 1.390 . S
C555 C554 1.387 . S
C137 C19 1.326 1_556 S
C149 C30 1.287 . S
C164 C31 1.312 . S
C176 C41 1.283 1_554 S
C191 C62 1.331 1_556 S
C203 C72 1.280 . S
C218 C103 1.324 1_554 S
C230 C93 1.270 . S
C245 C10 1.273 . S
C257 C0 1.234 . S
C272 C61 1.295 . S
C284 C50 1.203 . S
C299 C81 1.202 . S
C311 C92 1.300 . S
C326 C112 1.271 . S
C338 C123 1.265 . S
C353 C122 1.822 . S
C365 C1 1.783 . S
C380 C113 1.793 . S
C392 C2 1.814 . S
C407 C82 1.823 . S
C419 C60 1.790 . S
C434 C91 1.804 . S
C446 C51 1.802 . S
C461 C20 1.402 . S
C473 C33 1.492 . S
C488 C29 1.391 . S
C500 C32 1.498 . S
C515 C63 1.522 . S
C527 C95 1.385 . S
C542 C94 1.490 . S
C554 C64 1.427 . S
