# Generated by pormake.
# Topology whw, (6)-cn, num edge types: 1
# Building blocks:
#     Node 0, Type 0, BuildingBlock: VOLQOD_clean_sbu_1, # of connection points: 6
#     Node 1, Type 0, BuildingBlock: VOLQOD_clean_sbu_1, # of connection points: 6
#     Node 2, Type 0, BuildingBlock: VOLQOD_clean_sbu_1, # of connection points: 6
#     Node 3, Type 0, BuildingBlock: VOLQOD_clean_sbu_1, # of connection points: 6
#     Node 4, Type 0, BuildingBlock: VOLQOD_clean_sbu_1, # of connection points: 6
#     Node 5, Type 0, BuildingBlock: VOLQOD_clean_sbu_1, # of connection points: 6
#     Node 6, Type 0, BuildingBlock: VOLQOD_clean_sbu_1, # of connection points: 6
#     Node 7, Type 0, BuildingBlock: VOLQOD_clean_sbu_1, # of connection points: 6
#     Node 8, Type 0, BuildingBlock: VOLQOD_clean_sbu_1, # of connection points: 6
#     Node 9, Type 0, BuildingBlock: VOLQOD_clean_sbu_1, # of connection points: 6
#     Node 10, Type 0, BuildingBlock: VOLQOD_clean_sbu_1, # of connection points: 6
#     Node 11, Type 0, BuildingBlock: VOLQOD_clean_sbu_1, # of connection points: 6
#     Node 12, Type 0, BuildingBlock: VOLQOD_clean_sbu_1, # of connection points: 6
#     Node 13, Type 0, BuildingBlock: VOLQOD_clean_sbu_1, # of connection points: 6
#     Node 14, Type 0, BuildingBlock: VOLQOD_clean_sbu_1, # of connection points: 6
#     Node 15, Type 0, BuildingBlock: VOLQOD_clean_sbu_1, # of connection points: 6
#     Edge 16, Type (0, 0), BuildingBlock: UVAHIK_clean_linker_0, # of connection points: 2
#     Edge 17, Type (0, 0), BuildingBlock: UVAHIK_clean_linker_0, # of connection points: 2
#     Edge 18, Type (0, 0), BuildingBlock: UVAHIK_clean_linker_0, # of connection points: 2
#     Edge 19, Type (0, 0), BuildingBlock: UVAHIK_clean_linker_0, # of connection points: 2
#     Edge 20, Type (0, 0), BuildingBlock: UVAHIK_clean_linker_0, # of connection points: 2
#     Edge 21, Type (0, 0), BuildingBlock: UVAHIK_clean_linker_0, # of connection points: 2
#     Edge 22, Type (0, 0), BuildingBlock: UVAHIK_clean_linker_0, # of connection points: 2
#     Edge 23, Type (0, 0), BuildingBlock: UVAHIK_clean_linker_0, # of connection points: 2
#     Edge 24, Type (0, 0), BuildingBlock: UVAHIK_clean_linker_0, # of connection points: 2
#     Edge 25, Type (0, 0), BuildingBlock: UVAHIK_clean_linker_0, # of connection points: 2
#     Edge 26, Type (0, 0), BuildingBlock: UVAHIK_clean_linker_0, # of connection points: 2
#     Edge 27, Type (0, 0), BuildingBlock: UVAHIK_clean_linker_0, # of connection points: 2
#     Edge 28, Type (0, 0), BuildingBlock: UVAHIK_clean_linker_0, # of connection points: 2
#     Edge 29, Type (0, 0), BuildingBlock: UVAHIK_clean_linker_0, # of connection points: 2
#     Edge 30, Type (0, 0), BuildingBlock: UVAHIK_clean_linker_0, # of connection points: 2
#     Edge 31, Type (0, 0), BuildingBlock: UVAHIK_clean_linker_0, # of connection points: 2
#     Edge 32, Type (0, 0), BuildingBlock: UVAHIK_clean_linker_0, # of connection points: 2
#     Edge 33, Type (0, 0), BuildingBlock: UVAHIK_clean_linker_0, # of connection points: 2
#     Edge 34, Type (0, 0), BuildingBlock: UVAHIK_clean_linker_0, # of connection points: 2
#     Edge 35, Type (0, 0), BuildingBlock: UVAHIK_clean_linker_0, # of connection points: 2
#     Edge 36, Type (0, 0), BuildingBlock: UVAHIK_clean_linker_0, # of connection points: 2
#     Edge 37, Type (0, 0), BuildingBlock: UVAHIK_clean_linker_0, # of connection points: 2
#     Edge 38, Type (0, 0), BuildingBlock: UVAHIK_clean_linker_0, # of connection points: 2
#     Edge 39, Type (0, 0), BuildingBlock: UVAHIK_clean_linker_0, # of connection points: 2
#     Edge 40, Type (0, 0), BuildingBlock: UVAHIK_clean_linker_0, # of connection points: 2
#     Edge 41, Type (0, 0), BuildingBlock: UVAHIK_clean_linker_0, # of connection points: 2
#     Edge 42, Type (0, 0), BuildingBlock: UVAHIK_clean_linker_0, # of connection points: 2
#     Edge 43, Type (0, 0), BuildingBlock: UVAHIK_clean_linker_0, # of connection points: 2
#     Edge 44, Type (0, 0), BuildingBlock: UVAHIK_clean_linker_0, # of connection points: 2
#     Edge 45, Type (0, 0), BuildingBlock: UVAHIK_clean_linker_0, # of connection points: 2
#     Edge 46, Type (0, 0), BuildingBlock: UVAHIK_clean_linker_0, # of connection points: 2
#     Edge 47, Type (0, 0), BuildingBlock: UVAHIK_clean_linker_0, # of connection points: 2
#     Edge 48, Type (0, 0), BuildingBlock: UVAHIK_clean_linker_0, # of connection points: 2
#     Edge 49, Type (0, 0), BuildingBlock: UVAHIK_clean_linker_0, # of connection points: 2
#     Edge 50, Type (0, 0), BuildingBlock: UVAHIK_clean_linker_0, # of connection points: 2
#     Edge 51, Type (0, 0), BuildingBlock: UVAHIK_clean_linker_0, # of connection points: 2
#     Edge 52, Type (0, 0), BuildingBlock: UVAHIK_clean_linker_0, # of connection points: 2
#     Edge 53, Type (0, 0), BuildingBlock: UVAHIK_clean_linker_0, # of connection points: 2
#     Edge 54, Type (0, 0), BuildingBlock: UVAHIK_clean_linker_0, # of connection points: 2
#     Edge 55, Type (0, 0), BuildingBlock: UVAHIK_clean_linker_0, # of connection points: 2
#     Edge 56, Type (0, 0), BuildingBlock: UVAHIK_clean_linker_0, # of connection points: 2
#     Edge 57, Type (0, 0), BuildingBlock: UVAHIK_clean_linker_0, # of connection points: 2
#     Edge 58, Type (0, 0), BuildingBlock: UVAHIK_clean_linker_0, # of connection points: 2
#     Edge 59, Type (0, 0), BuildingBlock: UVAHIK_clean_linker_0, # of connection points: 2
#     Edge 60, Type (0, 0), BuildingBlock: UVAHIK_clean_linker_0, # of connection points: 2
#     Edge 61, Type (0, 0), BuildingBlock: UVAHIK_clean_linker_0, # of connection points: 2
#     Edge 62, Type (0, 0), BuildingBlock: UVAHIK_clean_linker_0, # of connection points: 2
#     Edge 63, Type (0, 0), BuildingBlock: UVAHIK_clean_linker_0, # of connection points: 2
# Relax obj value: 0.800
# Max RMSD: 0.285
# Mean RMSD: 0.285
data_MOF--net-whw--node1-VOLQOD_clean_sbu_1--edge1-UVAHIK_clean_linker_0
_symmetry_space_group_name_H-M    P1
_symmetry_Int_Tables_number       1
_symmetry_cell_setting            triclinic
loop_
_symmetry_equiv_pos_as_xyz
'x, y, z'
_cell_length_a     70.343766
_cell_length_b     70.360338
_cell_length_c     30.349206
_cell_angle_alpha  89.981924
_cell_angle_beta   89.969268
_cell_angle_gamma 89.98109
loop_
_atom_site_label
_atom_site_type_symbol
_atom_site_fract_x
_atom_site_fract_y
_atom_site_fract_z
_atom_type_partial_charge
O0 O 0.99073 0.15705 0.10946 0.0
Zn1 Zn 0.01372 0.15069 0.07228 0.0
O2 O 0.01853 0.12344 0.07349 0.0
Zn3 Zn 0.04459 0.11794 0.09198 0.0
Zn4 Zn 0.00145 0.11102 0.11491 0.0
Zn5 Zn 0.01506 0.11344 0.01547 0.0
O6 O 0.06126 0.10933 0.04132 0.0
O7 O 0.03963 0.10505 0.98922 0.0
O8 O 0.0359 0.16448 0.09904 0.0
O9 O 0.05601 0.14144 0.11788 0.0
O10 O 0.04544 0.0997 0.14282 0.0
O11 O 0.01681 0.1055 0.16988 0.0
O12 O 0.98875 0.08784 0.08712 0.0
O13 O 0.00808 0.16023 0.01071 0.0
O14 O -0.00274 0.09174 0.0171 0.0
O15 O 0.00504 0.13311 0.97409 0.0
C16 C 0.97891 0.14706 0.13131 0.0
C17 C 0.05681 0.10457 0.00215 0.0
C18 C 0.03415 0.10077 0.17553 0.0
C19 C 0.05122 0.15885 0.11728 0.0
C20 C 0.98808 0.08281 0.04668 0.0
C21 C 0.00403 0.15115 0.97561 0.0
O22 O 0.98087 0.12911 0.13461 0.0
O23 O 0.12576 0.76194 0.4472 0.0
Zn24 Zn 0.11987 0.77671 0.39347 0.0
O25 O 0.13422 0.80009 0.39206 0.0
Zn26 Zn 0.1174 0.82196 0.39656 0.0
Zn27 Zn 0.15254 0.80053 0.44151 0.0
Zn28 Zn 0.14568 0.80148 0.33407 0.0
O29 O 0.11934 0.84004 0.34612 0.0
O30 O 0.13412 0.82239 0.29642 0.0
O31 O 0.09224 0.78218 0.39182 0.0
O32 O 0.09031 0.81361 0.39473 0.0
O33 O 0.12097 0.83583 0.45264 0.0
O34 O 0.14465 0.82086 0.48644 0.0
O35 O 0.17928 0.80593 0.41576 0.0
O36 O 0.12499 0.75973 0.34196 0.0
O37 O 0.17294 0.80624 0.34348 0.0
O38 O 0.14346 0.77718 0.29912 0.0
C39 C 0.13863 0.76231 0.47656 0.0
C40 C 0.12474 0.83724 0.30671 0.0
C41 C 0.13186 0.83374 0.48564 0.0
C42 C 0.08249 0.79738 0.3922 0.0
C43 C 0.18454 0.80759 0.37548 0.0
C44 C 0.13455 0.76181 0.30676 0.0
O45 O 0.15107 0.77558 0.4775 0.0
O46 O 0.61948 0.84339 0.67567 0.0
Zn47 Zn 0.59791 0.8374 0.63611 0.0
O48 O 0.58121 0.85879 0.62994 0.0
Zn49 Zn 0.55501 0.85043 0.63292 0.0
Zn50 Zn 0.58607 0.8768 0.67779 0.0
Zn51 Zn 0.58637 0.86881 0.57204 0.0
O52 O 0.54224 0.85076 0.5734 0.0
O53 O 0.56296 0.86746 0.53405 0.0
O54 O 0.58428 0.81645 0.66642 0.0
O55 O 0.55388 0.82461 0.66143 0.0
O56 O 0.53989 0.86716 0.67294 0.0
O57 O 0.562 0.88029 0.71551 0.0
O58 O 0.59232 0.90259 0.64956 0.0
O59 O 0.60786 0.82785 0.57832 0.0
O60 O 0.59411 0.89571 0.57784 0.0
O61 O 0.6057 0.85382 0.53748 0.0
C62 C 0.62029 0.85382 0.70984 0.0
C63 C 0.547 0.85908 0.53776 0.0
C64 C 0.54458 0.87684 0.70658 0.0
C65 C 0.56683 0.81323 0.67425 0.0
C66 C 0.59535 0.90749 0.60953 0.0
C67 C 0.61118 0.83673 0.54262 0.0
O68 O 0.60772 0.86659 0.71728 0.0
O69 O 0.38093 0.27706 0.97811 0.0
Zn70 Zn 0.3935 0.25689 0.9435 0.0
O71 O 0.37513 0.23781 0.93039 0.0
Zn72 Zn 0.38643 0.21299 0.93589 0.0
Zn73 Zn 0.35358 0.23909 0.97105 0.0
Zn74 Zn 0.36839 0.24232 0.87066 0.0
O75 O 0.39204 0.20111 0.87706 0.0
O76 O 0.37829 0.22154 0.83125 0.0
O77 O 0.41318 0.2458 0.98281 0.0
O78 O 0.40986 0.21457 0.97421 0.0
O79 O 0.36901 0.19568 0.96839 0.0
O80 O 0.35559 0.21641 0.01392 0.0
O81 O 0.32905 0.23746 0.93432 0.0
O82 O 0.40463 0.26954 0.8891 0.0
O83 O 0.34055 0.24274 0.86672 0.0
O84 O 0.37897 0.26669 0.84726 0.0
C85 C 0.36608 0.27832 0.00183 0.0
C86 C 0.38745 0.20623 0.83825 0.0
C87 C 0.36069 0.19942 0.00455 0.0
C88 C 0.41799 0.22882 0.99197 0.0
C89 C 0.32671 0.24017 0.89299 0.0
C90 C 0.39503 0.27423 0.8552 0.0
O91 O 0.35429 0.26453 0.00493 0.0
O92 O 0.94646 0.83192 0.83088 0.0
Zn93 Zn 0.95627 0.83754 0.89187 0.0
O94 O 0.96372 0.86366 0.89782 0.0
Zn95 Zn 0.99042 0.86549 0.90871 0.0
Zn96 Zn 0.95773 0.87705 0.84393 0.0
Zn97 Zn 0.95287 0.87418 0.95078 0.0
O98 O -0.00303 0.88554 0.95235 0.0
O99 O 0.97328 0.87903 0.99762 0.0
O100 O 0.97758 0.82051 0.91166 0.0
O101 O -0.00103 0.84124 0.93646 0.0
O102 O 0.00459 0.87061 0.85355 0.0
O103 O 0.98213 0.8802 0.80694 0.0
O104 O 0.94602 0.9026 0.86126 0.0
O105 O 0.93439 0.83189 0.93292 0.0
O106 O 0.94129 0.89883 0.9336 0.0
O107 O 0.9325 0.85727 0.97606 0.0
C108 C 0.93799 0.84299 0.80396 0.0
C109 C 0.98995 0.88556 0.99091 0.0
C110 C -0.00044 0.8767 0.81586 0.0
C111 C 0.99283 0.82435 0.93254 0.0
C112 C 0.93974 0.90858 0.89837 0.0
C113 C 0.92671 0.84083 0.9648 0.0
O114 O 0.93917 0.86106 0.8076 0.0
O115 O 0.36423 0.77186 0.06073 0.0
Zn116 Zn 0.38694 0.78159 0.09241 0.0
O117 O 0.38749 0.80888 0.0938 0.0
Zn118 Zn 0.41289 0.81773 0.08161 0.0
Zn119 Zn 0.36971 0.81788 0.04897 0.0
Zn120 Zn 0.38116 0.81664 0.15262 0.0
O121 O 0.42675 0.8262 0.13657 0.0
O122 O 0.40245 0.83077 0.18196 0.0
O123 O 0.40858 0.77219 0.05626 0.0
O124 O 0.42733 0.7974 0.04931 0.0
O125 O 0.41187 0.83943 0.03965 0.0
O126 O 0.38359 0.83649 0.00732 0.0
O127 O 0.34721 0.83042 0.08134 0.0
O128 O 0.38723 0.7699 0.15252 0.0
O129 O 0.3576 0.83197 0.15081 0.0
O130 O 0.3768 0.79409 0.19259 0.0
C131 C 0.3576 0.77787 0.02436 0.0
C132 C 0.42012 0.83196 0.17332 0.0
C133 C 0.40001 0.84423 0.01007 0.0
C134 C 0.4234 0.78011 0.04084 0.0
C135 C 0.34515 0.83559 0.12155 0.0
C136 C 0.38131 0.77664 0.18892 0.0
O137 O 0.36012 0.79511 0.01239 0.0
O138 O 0.53758 0.13109 0.33273 0.0
Zn139 Zn 0.51513 0.13491 0.37123 0.0
O140 O 0.50117 0.11161 0.37446 0.0
Zn141 Zn 0.47436 0.1168 0.3691 0.0
Zn142 Zn 0.50858 0.09428 0.32717 0.0
Zn143 Zn 0.50555 0.10156 0.43169 0.0
O144 O 0.46119 0.11819 0.42809 0.0
O145 O 0.48321 0.10567 0.47154 0.0
O146 O 0.49934 0.15471 0.34146 0.0
O147 O 0.47072 0.14151 0.33693 0.0
O148 O 0.46216 0.09725 0.3311 0.0
O149 O 0.48594 0.09301 0.28404 0.0
O150 O 0.51534 0.06839 0.35471 0.0
O151 O 0.52554 0.14326 0.43018 0.0
O152 O 0.5116 0.07432 0.42643 0.0
O153 O 0.5272 0.11482 0.46153 0.0
C154 C 0.54255 0.11906 0.30366 0.0
C155 C 0.46679 0.11287 0.46603 0.0
C156 C 0.46811 0.09322 0.29262 0.0
C157 C 0.48213 0.15507 0.32844 0.0
C158 C 0.51553 0.06302 0.39502 0.0
C159 C 0.53174 0.13232 0.46043 0.0
O160 O 0.5324 0.10441 0.29544 0.0
O161 O 0.14813 0.28199 0.55354 0.0
Zn162 Zn 0.14125 0.26553 0.60418 0.0
O163 O 0.14446 0.23879 0.59277 0.0
Zn164 Zn 0.12067 0.22474 0.59775 0.0
Zn165 Zn 0.15605 0.23639 0.53414 0.0
Zn166 Zn 0.16062 0.22991 0.63926 0.0
O167 O 0.12195 0.20434 0.64511 0.0
O168 O 0.15247 0.20488 0.66304 0.0
O169 O 0.114 0.27025 0.6128 0.0
O170 O 0.09857 0.24277 0.60949 0.0
O171 O 0.11662 0.21019 0.54171 0.0
O172 O 0.14203 0.21572 0.49954 0.0
O173 O 0.18448 0.23047 0.5416 0.0
O174 O 0.15277 0.27492 0.6601 0.0
O175 O 0.18629 0.22715 0.61478 0.0
O176 O 0.16059 0.24772 0.69158 0.0
C177 C 0.15088 0.27838 0.51303 0.0
C178 C 0.13613 0.19727 0.66549 0.0
C179 C 0.12625 0.20724 0.50678 0.0
C180 C 0.09869 0.26078 0.61466 0.0
C181 C 0.19393 0.22729 0.5768 0.0
C182 C 0.15787 0.26557 0.6939 0.0
O183 O 0.15321 0.26132 0.49972 0.0
O184 O 0.89835 0.25452 0.49197 0.0
Zn185 Zn 0.90024 0.26887 0.54829 0.0
O186 O 0.87546 0.2773 0.56656 0.0
Zn187 Zn 0.8768 0.30365 0.58557 0.0
Zn188 Zn 0.85756 0.27479 0.51817 0.0
Zn189 Zn 0.86767 0.26165 0.61507 0.0
O190 O 0.8685 0.30734 0.64869 0.0
O191 O 0.86561 0.27736 0.67016 0.0
O192 O 0.91811 0.29078 0.54227 0.0
O193 O 0.90391 0.31226 0.58462 0.0
O194 O 0.86388 0.32085 0.54193 0.0
O195 O 0.85475 0.30068 0.48966 0.0
O196 O 0.83225 0.26524 0.54265 0.0
O197 O 0.91188 0.25121 0.59331 0.0
O198 O 0.84229 0.2506 0.60348 0.0
O199 O 0.88659 0.24154 0.63052 0.0
C200 C 0.88495 0.2503 0.46554 0.0
C201 C 0.86584 0.29504 0.67892 0.0
C202 C 0.85738 0.31763 0.50343 0.0
C203 C 0.91827 0.30654 0.56287 0.0
C204 C 0.82925 0.25449 0.5759 0.0
C205 C 0.90429 0.24055 0.62228 0.0
O206 O 0.86807 0.25655 0.47138 0.0
O207 O 0.62841 0.7189 0.04074 0.0
Zn208 Zn 0.61041 0.70507 0.07927 0.0
O209 O 0.61889 0.67938 0.08447 0.0
Zn210 Zn 0.59805 0.66215 0.0759 0.0
Zn211 Zn 0.63845 0.67317 0.041 0.0
Zn212 Zn 0.62701 0.67658 0.14357 0.0
O213 O 0.58594 0.65365 0.13296 0.0
O214 O 0.60694 0.66444 0.18128 0.0
O215 O 0.58556 0.70579 0.0473 0.0
O216 O 0.5785 0.67521 0.03886 0.0
O217 O 0.60646 0.63976 0.0409 0.0
O218 O 0.62627 0.65489 0.99602 0.0
O219 O 0.66045 0.6599 0.07366 0.0
O220 O 0.61054 0.71919 0.13747 0.0
O221 O 0.64999 0.66063 0.1432 0.0
O222 O 0.63254 0.70185 0.17112 0.0
C223 C 0.64199 0.71487 0.01474 0.0
C224 C 0.59142 0.65594 0.17258 0.0
C225 C 0.61479 0.64118 0.00383 0.0
C226 C 0.57522 0.69268 0.03104 0.0
C227 C 0.66204 0.65541 0.11438 0.0
C228 C 0.62268 0.71698 0.16826 0.0
O229 O 0.64762 0.69769 0.00971 0.0
O230 O 0.64182 0.21019 0.96091 0.0
Zn231 Zn 0.62548 0.22645 0.92299 0.0
O232 O 0.6366 0.25116 0.91536 0.0
Zn233 Zn 0.61714 0.27014 0.92096 0.0
Zn234 Zn 0.6563 0.25474 0.9601 0.0
Zn235 Zn 0.64591 0.25269 0.85634 0.0
O236 O 0.60832 0.28021 0.86183 0.0
O237 O 0.6344 0.27435 0.82305 0.0
O238 O 0.60132 0.22875 0.957 0.0
O239 O 0.5957 0.25982 0.95744 0.0
O240 O 0.62716 0.29186 0.95546 0.0
O241 O 0.65141 0.27985 0.99349 0.0
O242 O 0.6823 0.25578 0.92916 0.0
O243 O 0.62041 0.21331 0.8656 0.0
O244 O 0.67365 0.25566 0.85827 0.0
O245 O 0.63897 0.22966 0.82037 0.0
C246 C 0.65034 0.21492 0.99623 0.0
C247 C 0.61824 0.28228 0.82697 0.0
C248 C 0.63985 0.29343 0.98507 0.0
C249 C 0.59153 0.24298 0.96932 0.0
C250 C 0.6863 0.25646 0.88808 0.0
C251 C 0.6277 0.21587 0.82769 0.0
O252 O 0.65536 0.23215 0.00305 0.0
O253 O 0.84582 0.74707 0.43606 0.0
Zn254 Zn 0.85454 0.73449 0.38108 0.0
O255 O 0.85365 0.70701 0.3855 0.0
Zn256 Zn 0.87904 0.6963 0.39063 0.0
Zn257 Zn 0.83851 0.70045 0.43812 0.0
Zn258 Zn 0.84296 0.6978 0.33056 0.0
O259 O 0.88484 0.67749 0.3431 0.0
O260 O 0.86011 0.67933 0.2982 0.0
O261 O 0.8813 0.74271 0.37497 0.0
O262 O 0.89871 0.71678 0.38573 0.0
O263 O 0.88199 0.68181 0.44654 0.0
O264 O 0.8532 0.68204 0.47706 0.0
O265 O 0.81384 0.68747 0.41832 0.0
O266 O 0.84166 0.74511 0.32761 0.0
O267 O 0.81928 0.68419 0.34601 0.0
O268 O 0.83737 0.71912 0.28772 0.0
C269 C 0.83896 0.74127 0.4724 0.0
C270 C 0.87625 0.67242 0.30825 0.0
C271 C 0.8705 0.67665 0.47659 0.0
C272 C 0.89732 0.73454 0.37823 0.0
C273 C 0.8092 0.68128 0.38018 0.0
C274 C 0.83701 0.73715 0.29157 0.0
O275 O 0.83478 0.72377 0.47802 0.0
O276 O 0.41243 0.65491 0.69119 0.0
Zn277 Zn 0.4338 0.65307 0.64891 0.0
O278 O 0.43916 0.62702 0.63919 0.0
Zn279 Zn 0.46604 0.62226 0.63979 0.0
Zn280 Zn 0.42897 0.61146 0.68617 0.0
Zn281 Zn 0.42929 0.62117 0.58229 0.0
O282 O 0.47684 0.61993 0.57886 0.0
O283 O 0.45074 0.62016 0.53773 0.0
O284 O 0.45623 0.66553 0.6771 0.0
O285 O 0.4788 0.64353 0.67194 0.0
O286 O 0.47221 0.59919 0.6752 0.0
O287 O 0.45113 0.60492 0.72756 0.0
O288 O 0.4198 0.58711 0.6565 0.0
O289 O 0.4253 0.66607 0.59312 0.0
O290 O 0.41763 0.59542 0.58561 0.0
O291 O 0.41161 0.64149 0.55994 0.0
C292 C 0.40364 0.64377 0.71719 0.0
C293 C 0.46879 0.61956 0.54133 0.0
C294 C 0.46729 0.59842 0.71548 0.0
C295 C 0.47303 0.6597 0.68508 0.0
C296 C 0.41582 0.58317 0.61634 0.0
C297 C 0.41441 0.65934 0.56336 0.0
O298 O 0.40812 0.62617 0.72008 0.0
O299 O 0.05395 0.36119 0.15987 0.0
Zn300 Zn 0.03555 0.34331 0.13317 0.0
O301 O 0.01178 0.35518 0.12105 0.0
Zn302 Zn 0.99108 0.3385 0.1384 0.0
Zn303 Zn 0.01199 0.37883 0.1552 0.0
Zn304 Zn 0.01078 0.35922 0.05854 0.0
O305 O 0.97529 0.32993 0.08558 0.0
O306 O 0.98606 0.34983 0.03439 0.0
O307 O 0.03153 0.32343 0.17807 0.0
O308 O 0.00063 0.31676 0.17723 0.0
O309 O 0.97319 0.35385 0.17489 0.0
O310 O 0.98672 0.38187 0.18809 0.0
O311 O 0.01599 0.40081 0.11234 0.0
O312 O 0.04806 0.332 0.08025 0.0
O313 O 0.0134 0.38679 0.04674 0.0
O314 O 0.03218 0.34587 0.02609 0.0
C315 C 0.0508 0.37206 0.19245 0.0
C316 C 0.97405 0.33749 0.04741 0.0
C317 C 0.97277 0.37036 0.19207 0.0
C318 C 0.01739 0.31396 0.19204 0.0
C319 C 0.01582 0.40157 0.07024 0.0
C320 C 0.04561 0.33518 0.03944 0.0
O321 O 0.03413 0.3786 0.1995 0.0
O322 O 0.44961 0.38398 0.33924 0.0
Zn323 Zn 0.46788 0.36695 0.37037 0.0
O324 O 0.49301 0.37736 0.36837 0.0
Zn325 Zn 0.51086 0.35771 0.35575 0.0
Zn326 Zn 0.49293 0.39695 0.32343 0.0
Zn327 Zn 0.49955 0.38693 0.42515 0.0
O328 O 0.52504 0.34978 0.41083 0.0
O329 O 0.52501 0.37758 0.44539 0.0
O330 O 0.4673 0.34291 0.33553 0.0
O331 O 0.49776 0.33581 0.32565 0.0
O332 O 0.52976 0.36813 0.31372 0.0
O333 O 0.51753 0.39485 0.28628 0.0
O334 O 0.49052 0.42255 0.35492 0.0
O335 O 0.45948 0.36155 0.43247 0.0
O336 O 0.49765 0.41501 0.42434 0.0
O337 O 0.48125 0.37719 0.47092 0.0
C338 C 0.45224 0.38965 0.29985 0.0
C339 C 0.53122 0.36066 0.44126 0.0
C340 C 0.53082 0.38241 0.28805 0.0
C341 C 0.48019 0.33228 0.31949 0.0
C342 C 0.49317 0.42723 0.39517 0.0
C343 C 0.46635 0.36696 0.4692 0.0
O344 O 0.46902 0.39318 0.28574 0.0
O345 O 0.04387 0.65882 0.83585 0.0
Zn346 Zn 0.0326 0.6514 0.89446 0.0
O347 O 0.02693 0.62476 0.89656 0.0
Zn348 Zn 0.00017 0.62049 0.90656 0.0
Zn349 Zn 0.03431 0.61336 0.84158 0.0
Zn350 Zn 0.03902 0.61345 0.94665 0.0
O351 O 0.9949 0.60075 0.95266 0.0
O352 O 0.01928 0.60902 0.99429 0.0
O353 O 0.0096 0.66659 0.91194 0.0
O354 O 0.98931 0.64407 0.93303 0.0
O355 O 0.98678 0.61482 0.84991 0.0
O356 O 0.01082 0.6111 0.80297 0.0
O357 O 0.04532 0.5872 0.85471 0.0
O358 O 0.05271 0.6576 0.93948 0.0
O359 O 0.04963 0.58861 0.9275 0.0
O360 O 0.05939 0.63018 0.97213 0.0
C361 C 0.05329 0.64891 0.80818 0.0
C362 C 0.00254 0.60227 0.99048 0.0
C363 C 0.99302 0.61185 0.81111 0.0
C364 C 0.99416 0.66141 0.93043 0.0
C365 C 0.0509 0.57978 0.89094 0.0
C366 C 0.06235 0.6479 0.96698 0.0
O367 O 0.05288 0.63074 0.80918 0.0
C368 C 0.09093 0.10585 0.97791 0.0
C369 C 0.07181 0.10173 0.96852 0.0
C370 C 0.10396 0.10852 0.94358 0.0
C371 C 0.11985 0.1327 0.87092 0.0
H372 H 0.11243 0.11525 0.75095 0.0
C373 C 0.11644 0.17033 0.6949 0.0
C374 C 0.13359 0.18056 0.69453 0.0
C375 C 0.11366 0.15557 0.72509 0.0
C376 C 0.11478 0.12013 0.78436 0.0
H377 H 0.05204 0.09455 0.91619 0.0
H378 H 0.07424 0.09988 0.85702 0.0
H379 H 0.10062 0.09608 0.81228 0.0
H380 H 0.16161 0.1827 0.72429 0.0
H381 H 0.15652 0.15724 0.77739 0.0
H382 H 0.13367 0.15689 0.84288 0.0
C383 C 0.07948 0.10098 0.89045 0.0
C384 C 0.10799 0.10922 0.81952 0.0
C385 C 0.06658 0.09809 0.92464 0.0
C386 C 0.14817 0.1752 0.72377 0.0
C387 C 0.14531 0.16061 0.75421 0.0
C388 C 0.12692 0.14339 0.83587 0.0
C389 C 0.09804 0.10733 0.89932 0.0
C390 C 0.1096 0.11584 0.86318 0.0
C391 C 0.12791 0.15091 0.75572 0.0
C392 C 0.12374 0.13762 0.79225 0.0
H393 H 0.09553 0.10841 0.01143 0.0
H394 H 0.11833 0.11276 0.95173 0.0
H395 H 0.12121 0.13851 0.90379 0.0
H396 H 0.10499 0.17402 0.67263 0.0
H397 H 0.10003 0.14843 0.7259 0.0
C398 C 0.11574 0.84319 0.22802 0.0
C399 C 0.11681 0.84965 0.27177 0.0
C400 C 0.10411 0.8525 0.19748 0.0
C401 C 0.0813 0.87707 0.1344 0.0
H402 H 0.03194 0.88992 0.18311 0.0
C403 C 0.02018 0.89909 0.02057 0.0
C404 C 0.0029 0.8896 0.02821 0.0
C405 C 0.0345 0.89909 0.05243 0.0
C406 C 0.04564 0.88643 0.16896 0.0
H407 H 0.10803 0.87206 0.31648 0.0
H408 H 0.08817 0.88851 0.26296 0.0
H409 H 0.05769 0.88069 0.2322 0.0
H410 H 0.9866 0.87382 0.07657 0.0
H411 H 0.01164 0.8736 0.13199 0.0
H412 H 0.06894 0.88172 0.07102 0.0
C413 C 0.09582 0.87592 0.2526 0.0
C414 C 0.06052 0.88137 0.19715 0.0
C415 C 0.10735 0.86657 0.28318 0.0
C416 C -0.0003 0.88136 0.06973 0.0
C417 C 0.01411 0.88123 0.10154 0.0
C418 C 0.06641 0.88208 0.1062 0.0
C419 C 0.09341 0.86854 0.20994 0.0
C420 C 0.07844 0.87625 0.18018 0.0
C421 C 0.03194 0.88948 0.0926 0.0
C422 C 0.04827 0.88645 0.12306 0.0
H423 H 0.12279 0.83019 0.21811 0.0
H424 H 0.10256 0.84634 0.16499 0.0
H425 H 0.09495 0.87341 0.12022 0.0
H426 H 0.02302 0.90575 0.98905 0.0
H427 H 0.04787 0.906 0.04487 0.0
C428 C 0.42671 0.84052 0.25181 0.0
C429 C 0.43323 0.83867 0.20822 0.0
C430 C 0.43927 0.84504 0.28579 0.0
C431 C 0.49053 0.84351 0.31329 0.0
H432 H 0.47402 0.87205 0.41573 0.0
C433 C 0.5408 0.86312 0.45703 0.0
C434 C 0.534 0.85868 0.4994 0.0
C435 C 0.52875 0.86223 0.42051 0.0
C436 C 0.47877 0.86401 0.38736 0.0
H437 H 0.45797 0.84095 0.16591 0.0
H438 H 0.47984 0.84947 0.22507 0.0
H439 H 0.45277 0.86877 0.35269 0.0
H440 H 0.5091 0.85018 0.53671 0.0
H441 H 0.48797 0.84889 0.47283 0.0
H442 H 0.51665 0.83899 0.34804 0.0
C443 C 0.46507 0.84689 0.23318 0.0
C444 C 0.4666 0.86206 0.35126 0.0
C445 C 0.45251 0.84214 0.19917 0.0
C446 C 0.51479 0.85363 0.50452 0.0
C447 C 0.50267 0.853 0.46804 0.0
C448 C 0.50279 0.84568 0.34917 0.0
C449 C 0.45867 0.84807 0.27708 0.0
C450 C 0.4722 0.85153 0.31399 0.0
C451 C 0.50958 0.85715 0.42565 0.0
C452 C 0.49693 0.85572 0.38677 0.0
H453 H 0.41197 0.83783 0.26009 0.0
H454 H 0.43382 0.84549 0.31914 0.0
H455 H 0.49526 0.83502 0.28562 0.0
H456 H 0.55553 0.86702 0.4519 0.0
H457 H 0.5344 0.8656 0.38823 0.0
C458 C 0.39501 0.17443 0.80583 0.0
C459 C 0.39272 0.19412 0.80048 0.0
C460 C 0.3998 0.16297 0.76989 0.0
C461 C 0.42121 0.14336 0.69672 0.0
H462 H 0.40791 0.15863 0.57801 0.0
C463 C 0.4635 0.11764 0.54709 0.0
C464 C 0.45501 0.11702 0.50525 0.0
C465 C 0.45332 0.12408 0.58356 0.0
C466 C 0.41148 0.15383 0.61086 0.0
H467 H 0.39381 0.21732 0.75363 0.0
H468 H 0.40324 0.19765 0.6916 0.0
H469 H 0.39423 0.17537 0.64009 0.0
H470 H 0.42876 0.1215 0.46935 0.0
H471 H 0.41062 0.13192 0.53351 0.0
H472 H 0.43779 0.12129 0.66756 0.0
C473 C 0.40058 0.19078 0.72292 0.0
C474 C 0.4039 0.16374 0.64666 0.0
C475 C 0.39536 0.20215 0.75862 0.0
C476 C 0.43574 0.12198 0.50113 0.0
C477 C 0.42541 0.12811 0.5379 0.0
C478 C 0.42845 0.13318 0.66096 0.0
C479 C 0.40286 0.17101 0.72797 0.0
C480 C 0.40913 0.15905 0.69007 0.0
C481 C 0.43422 0.12974 0.57941 0.0
C482 C 0.4242 0.13866 0.61747 0.0
H483 H 0.39281 0.16784 0.83769 0.0
H484 H 0.40101 0.1478 0.77508 0.0
H485 H 0.42572 0.13929 0.72948 0.0
H486 H 0.47837 0.11406 0.55142 0.0
H487 H 0.4608 0.12543 0.61454 0.0
C488 C 0.83774 0.76888 0.25421 0.0
C489 C 0.835 0.7491 0.25154 0.0
C490 C 0.84129 0.77955 0.21626 0.0
C491 C 0.86404 0.77172 0.10989 0.0
H492 H 0.85426 0.82547 0.09324 0.0
C493 C 0.90375 0.81402 0.97665 0.0
C494 C 0.91128 0.83157 0.99028 0.0
C495 C 0.89022 0.8046 0.00233 0.0
C496 C 0.85715 0.81046 0.09749 0.0
H497 H 0.83151 0.72549 0.20628 0.0
H498 H 0.83739 0.74419 0.14007 0.0
H499 H 0.83639 0.80779 0.1489 0.0
H500 H 0.9099 0.85329 0.04094 0.0
H501 H 0.88663 0.83668 0.08613 0.0
H502 H 0.88529 0.77443 0.06006 0.0
C503 C 0.83734 0.75133 0.17168 0.0
C504 C 0.84687 0.80033 0.12927 0.0
C505 C 0.83382 0.74064 0.20966 0.0
C506 C 0.90444 0.83979 0.02943 0.0
C507 C 0.89096 0.83032 0.05522 0.0
C508 C 0.87431 0.78182 0.07826 0.0
C509 C 0.84209 0.7707 0.17478 0.0
C510 C 0.85051 0.78092 0.13651 0.0
C511 C 0.88393 0.81244 0.04239 0.0
C512 C 0.87131 0.80141 0.07232 0.0
H513 H 0.83858 0.77594 0.28586 0.0
H514 H 0.84489 0.79443 0.21995 0.0
H515 H 0.86753 0.75689 0.11509 0.0
H516 H 0.90854 0.80736 0.94644 0.0
H517 H 0.88487 0.791 0.99108 0.0
C518 C 0.90811 0.21763 0.68455 0.0
C519 C 0.91643 0.22866 0.65108 0.0
C520 C 0.91937 0.20902 0.71664 0.0
C521 C 0.96778 0.19391 0.74546 0.0
H522 H 0.94986 0.20174 0.86504 0.0
C523 C 0.9953 0.15187 0.89575 0.0
C524 C -0.00258 0.16152 0.93604 0.0
C525 C 0.98769 0.16109 0.85908 0.0
C526 C 0.95519 0.19963 0.83191 0.0
H527 H 0.94325 0.23825 0.62351 0.0
H528 H 0.96294 0.22304 0.67969 0.0
H529 H 0.93186 0.21476 0.80352 0.0
H530 H 0.99389 0.18869 0.96883 0.0
H531 H 0.98049 0.2048 0.90462 0.0
H532 H 0.9911 0.17865 0.7741 0.0
C533 C 0.94767 0.22117 0.68101 0.0
C534 C 0.94474 0.20686 0.79665 0.0
C535 C 0.93637 0.22988 0.64886 0.0
C536 C 0.99237 0.18082 0.93837 0.0
C537 C 0.98463 0.19002 0.90168 0.0
C538 C 0.97819 0.18653 0.78083 0.0
C539 C 0.93921 0.21117 0.71596 0.0
C540 C 0.95079 0.20388 0.75305 0.0
C541 C 0.98193 0.18015 0.86189 0.0
C542 C 0.97189 0.18919 0.82439 0.0
H543 H 0.89281 0.21623 0.68709 0.0
H544 H 0.9125 0.20103 0.74269 0.0
H545 H 0.97277 0.19142 0.71218 0.0
H546 H -0.00084 0.13702 0.89268 0.0
H547 H 0.98563 0.15306 0.82902 0.0
C548 C 0.63072 0.20501 0.74936 0.0
C549 C 0.62154 0.20381 0.79042 0.0
C550 C 0.62344 0.19541 0.71278 0.0
C551 C 0.58841 0.15842 0.67911 0.0
H552 H 0.58808 0.18674 0.56948 0.0
C553 C 0.55477 0.12745 0.52205 0.0
C554 C 0.54423 0.13993 0.49538 0.0
C555 C 0.56608 0.13442 0.55615 0.0
C556 C 0.58792 0.17869 0.5999 0.0
H557 H 0.59792 0.19102 0.82561 0.0
H558 H 0.58499 0.17475 0.76182 0.0
H559 H 0.60435 0.19973 0.63335 0.0
H560 H 0.53742 0.16952 0.48327 0.0
H561 H 0.55668 0.1817 0.54373 0.0
H562 H 0.57108 0.13789 0.64644 0.0
C563 C 0.59801 0.18277 0.75786 0.0
C564 C 0.59754 0.186 0.6364 0.0
C565 C 0.60539 0.1922 0.79451 0.0
C566 C 0.54544 0.15956 0.50315 0.0
C567 C 0.55659 0.16653 0.53766 0.0
C568 C 0.57864 0.1512 0.64276 0.0
C569 C 0.60672 0.18455 0.71633 0.0
C570 C 0.59774 0.17605 0.67661 0.0
C571 C 0.56695 0.15403 0.5648 0.0
C572 C 0.57812 0.16133 0.60279 0.0
H573 H 0.64329 0.21371 0.7452 0.0
H574 H 0.63076 0.19676 0.68153 0.0
H575 H 0.58848 0.15023 0.70933 0.0
H576 H 0.55432 0.11225 0.51659 0.0
H577 H 0.57416 0.1244 0.57572 0.0
C578 C 0.62369 0.83587 0.46521 0.0
C579 C 0.61924 0.82631 0.50457 0.0
C580 C 0.62833 0.82566 0.42718 0.0
C581 C 0.63982 0.77689 0.38604 0.0
H582 H 0.61561 0.79508 0.27933 0.0
C583 C 0.6107 0.74508 0.21073 0.0
C584 C 0.62519 0.73189 0.20204 0.0
C585 C 0.61264 0.75821 0.245 0.0
C586 C 0.62236 0.78972 0.30888 0.0
H587 H 0.61714 0.79855 0.53537 0.0
H588 H 0.62466 0.78083 0.4692 0.0
H589 H 0.61482 0.81455 0.3454 0.0
H590 H 0.65352 0.72278 0.22069 0.0
H591 H 0.65724 0.74609 0.27916 0.0
H592 H 0.6462 0.75151 0.35056 0.0
C593 C 0.62496 0.79619 0.4676 0.0
C594 C 0.62221 0.80106 0.34667 0.0
C595 C 0.62053 0.80639 0.50567 0.0
C596 C 0.64198 0.73259 0.22705 0.0
C597 C 0.64406 0.74591 0.26076 0.0
C598 C 0.63975 0.76546 0.34845 0.0
C599 C 0.62844 0.80566 0.42756 0.0
C600 C 0.63063 0.79463 0.38601 0.0
C601 C 0.62927 0.75865 0.27084 0.0
C602 C 0.63074 0.77157 0.30956 0.0
H603 H 0.62299 0.85123 0.46335 0.0
H604 H 0.63136 0.83344 0.3972 0.0
H605 H 0.64674 0.7716 0.41545 0.0
H606 H 0.59757 0.74483 0.19209 0.0
H607 H 0.60082 0.76757 0.2521 0.0
C608 C 0.56498 0.63576 0.20272 0.0
C609 C 0.57927 0.6494 0.20939 0.0
C610 C 0.5533 0.63003 0.23765 0.0
C611 C 0.54952 0.6321 0.36052 0.0
H612 H 0.49643 0.62127 0.33777 0.0
C613 C 0.47398 0.62725 0.4617 0.0
C614 C 0.48071 0.61936 0.50121 0.0
C615 C 0.48589 0.62866 0.42494 0.0
C616 C 0.51117 0.62443 0.34487 0.0
H617 H 0.59234 0.66793 0.25777 0.0
H618 H 0.57163 0.65863 0.31787 0.0
H619 H 0.51744 0.62883 0.27671 0.0
H620 H 0.50481 0.60577 0.53258 0.0
H621 H 0.52528 0.60729 0.46802 0.0
H622 H 0.54308 0.629 0.42877 0.0
C623 C 0.56977 0.65174 0.28627 0.0
C624 C 0.52334 0.62846 0.30962 0.0
C625 C 0.58161 0.65721 0.25162 0.0
C626 C 0.49931 0.61215 0.50269 0.0
C627 C 0.51109 0.61317 0.46569 0.0
C628 C 0.5373 0.6284 0.39576 0.0
C629 C 0.55545 0.63804 0.27988 0.0
C630 C 0.54266 0.63257 0.31701 0.0
C631 C 0.50472 0.62185 0.42656 0.0
C632 C 0.5179 0.62466 0.38854 0.0
H633 H 0.56289 0.62941 0.17057 0.0
H634 H 0.54266 0.61923 0.23152 0.0
H635 H 0.56436 0.63476 0.36761 0.0
H636 H 0.45974 0.63305 0.45968 0.0
H637 H 0.48049 0.6357 0.39582 0.0
C638 C 0.59112 0.29749 0.78637 0.0
C639 C 0.61053 0.29287 0.78882 0.0
C640 C 0.58363 0.30569 0.74814 0.0
C641 C 0.57067 0.30923 0.65263 0.0
H642 H 0.59647 0.34989 0.59032 0.0
C643 C 0.54677 0.33335 0.4802 0.0
C644 C 0.54408 0.35305 0.47557 0.0
C645 C 0.55652 0.32607 0.51662 0.0
C646 C 0.58912 0.33854 0.60739 0.0
H647 H 0.63743 0.294 0.75375 0.0
H648 H 0.62437 0.30836 0.68742 0.0
H649 H 0.60946 0.33813 0.6599 0.0
H650 H 0.55055 0.38059 0.5041 0.0
H651 H 0.56762 0.36787 0.56733 0.0
H652 H 0.55024 0.30973 0.60042 0.0
C653 C 0.61494 0.30563 0.71495 0.0
C654 C 0.59659 0.33176 0.64706 0.0
C655 C 0.62239 0.29731 0.75293 0.0
C656 C 0.55228 0.36533 0.50677 0.0
C657 C 0.56214 0.35806 0.54294 0.0
C658 C 0.56329 0.3159 0.61283 0.0
C659 C 0.59544 0.3096 0.71184 0.0
C660 C 0.58738 0.3171 0.67018 0.0
C661 C 0.56392 0.33835 0.54885 0.0
C662 C 0.5724 0.33067 0.58987 0.0
H663 H 0.5816 0.29426 0.81341 0.0
H664 H 0.56857 0.30883 0.74681 0.0
H665 H 0.5634 0.29775 0.66944 0.0
H666 H 0.54066 0.3235 0.45674 0.0
H667 H 0.55792 0.31081 0.52005 0.0
C668 C 0.94646 0.31666 0.02528 0.0
C669 C 0.95799 0.33267 0.01781 0.0
C670 C 0.93143 0.3124 0.99654 0.0
C671 C 0.90035 0.33385 0.91159 0.0
H672 H 0.89966 0.28361 0.8594 0.0
C673 C 0.87322 0.31922 0.737 0.0
C674 C 0.86672 0.30097 0.72579 0.0
C675 C 0.87895 0.32327 0.78007 0.0
C676 C 0.89923 0.29759 0.87429 0.0
H677 H 0.96245 0.35698 0.9749 0.0
H678 H 0.93642 0.34961 0.92541 0.0
H679 H 0.92038 0.28995 0.92188 0.0
H680 H 0.85912 0.27332 0.75221 0.0
H681 H 0.8687 0.28055 0.82749 0.0
H682 H 0.87961 0.34168 0.8633 0.0
C683 C 0.93888 0.34037 0.9534 0.0
C684 C 0.91119 0.30121 0.91009 0.0
C685 C 0.95396 0.34446 0.98158 0.0
C686 C 0.86431 0.28746 0.75955 0.0
C687 C 0.86995 0.29155 0.8027 0.0
C688 C 0.88828 0.3302 0.87601 0.0
C689 C 0.92749 0.32427 0.96035 0.0
C690 C 0.91237 0.31955 0.92808 0.0
C691 C 0.87817 0.3092 0.81303 0.0
C692 C 0.88807 0.3122 0.85588 0.0
H693 H 0.94917 0.30731 0.05294 0.0
H694 H 0.92287 0.29987 0.00263 0.0
H695 H 0.90074 0.34805 0.92533 0.0
H696 H 0.87525 0.32999 0.71191 0.0
H697 H 0.88529 0.337 0.78662 0.0
C698 C 0.88395 0.66083 0.2324 0.0
C699 C 0.88584 0.65899 0.2782 0.0
C700 C 0.89506 0.64974 0.20406 0.0
C701 C 0.94002 0.62166 0.20504 0.0
H702 H 0.92544 0.61195 0.08411 0.0
C703 C 0.97225 0.59208 0.02727 0.0
C704 C 0.9903 0.60058 0.03003 0.0
C705 C 0.95904 0.59428 0.06141 0.0
C706 C 0.92971 0.61411 0.11799 0.0
H707 H 0.89967 0.64324 0.33043 0.0
H708 H 0.91816 0.6231 0.28131 0.0
H709 H 0.90206 0.62419 0.13549 0.0
H710 H 0.00899 0.61708 0.07203 0.0
H711 H 0.986 0.62146 0.13036 0.0
H712 H 0.96746 0.61097 0.18801 0.0
C713 C 0.90888 0.63368 0.2669 0.0
C714 C 0.91632 0.62154 0.14741 0.0
C715 C 0.89815 0.64511 0.29517 0.0
C716 C 0.99527 0.61023 0.06886 0.0
C717 C 0.98199 0.6127 0.10259 0.0
C718 C 0.95328 0.61388 0.1759 0.0
C719 C 0.90799 0.63625 0.22092 0.0
C720 C 0.92143 0.62599 0.19103 0.0
C721 C 0.96347 0.60528 0.09878 0.0
C722 C 0.94853 0.61059 0.13155 0.0
H723 H 0.87464 0.67152 0.21848 0.0
H724 H 0.89408 0.65244 0.16903 0.0
H725 H 0.94472 0.62499 0.23809 0.0
H726 H 0.96803 0.58444 0.99789 0.0
H727 H 0.94513 0.5879 0.05772 0.0
C728 C 0.44529 0.34461 0.51078 0.0
C729 C 0.45762 0.3603 0.51078 0.0
C730 C 0.43822 0.33734 0.55034 0.0
C731 C 0.41769 0.32955 0.63543 0.0
H732 H 0.45031 0.32875 0.73835 0.0
C733 C 0.39016 0.29913 0.79813 0.0
C734 C 0.4027 0.28787 0.82287 0.0
C735 C 0.39689 0.31038 0.76366 0.0
C736 C 0.44105 0.32871 0.70987 0.0
H737 H 0.47172 0.38106 0.55223 0.0
H738 H 0.45882 0.36884 0.62115 0.0
H739 H 0.46175 0.34299 0.67026 0.0
H740 H 0.43218 0.28 0.83215 0.0
H741 H 0.44396 0.29902 0.77058 0.0
H742 H 0.39745 0.31428 0.67385 0.0
C743 C 0.45504 0.36176 0.59072 0.0
C744 C 0.44751 0.33716 0.6709 0.0
C745 C 0.46233 0.36888 0.55115 0.0
C746 C 0.42224 0.28864 0.81367 0.0
C747 C 0.42896 0.29961 0.77844 0.0
C748 C 0.41135 0.32089 0.67408 0.0
C749 C 0.44307 0.34575 0.59089 0.0
C750 C 0.43595 0.33757 0.63306 0.0
C751 C 0.41628 0.31028 0.75231 0.0
C752 C 0.42294 0.32029 0.71185 0.0
H753 H 0.44153 0.33755 0.48029 0.0
H754 H 0.42934 0.32478 0.54908 0.0
H755 H 0.40823 0.32984 0.6073 0.0
H756 H 0.37504 0.29899 0.80498 0.0
H757 H 0.38676 0.31885 0.74533 0.0
C758 C 0.41322 0.69076 0.52496 0.0
C759 C 0.40608 0.67226 0.53013 0.0
C760 C 0.40685 0.7023 0.49056 0.0
C761 C 0.38685 0.72721 0.42427 0.0
H762 H 0.37951 0.7022 0.31178 0.0
C763 C 0.37088 0.77005 0.26646 0.0
C764 C 0.38037 0.76414 0.22806 0.0
C765 C 0.37082 0.75858 0.30407 0.0
C766 C 0.3816 0.70944 0.34288 0.0
H767 H 0.38584 0.65173 0.50484 0.0
H768 H 0.37428 0.67207 0.44566 0.0
H769 H 0.38546 0.68323 0.37713 0.0
H770 H 0.39706 0.74146 0.1989 0.0
H771 H 0.3975 0.72181 0.26463 0.0
H772 H 0.38423 0.75347 0.38947 0.0
C773 C 0.38524 0.67749 0.46733 0.0
C774 C 0.38472 0.69852 0.3806 0.0
C775 C 0.39178 0.66585 0.50143 0.0
C776 C 0.38952 0.7464 0.22785 0.0
C777 C 0.38965 0.73504 0.26555 0.0
C778 C 0.38396 0.73814 0.38644 0.0
C779 C 0.39301 0.69569 0.46084 0.0
C780 C 0.38772 0.70727 0.42168 0.0
C781 C 0.38042 0.74104 0.30427 0.0
C782 C 0.38165 0.7294 0.34511 0.0
H783 H 0.4243 0.69611 0.54639 0.0
H784 H 0.4134 0.7161 0.4863 0.0
H785 H 0.38876 0.73444 0.45545 0.0
H786 H 0.36355 0.78358 0.26757 0.0
H787 H 0.3633 0.76351 0.33303 0.0
C788 C 0.1452 0.74784 0.23466 0.0
C789 C 0.13387 0.74674 0.27275 0.0
C790 C 0.14287 0.73471 0.20046 0.0
C791 C 0.11842 0.68914 0.17101 0.0
H792 H 0.11714 0.71151 0.05435 0.0
C793 C 0.08847 0.64738 0.02336 0.0
C794 C 0.07618 0.65773 0.99581 0.0
C795 C 0.10011 0.65676 0.05374 0.0
C796 C 0.11738 0.70502 0.0867 0.0
H797 H 0.1118 0.73045 0.30553 0.0
H798 H 0.10733 0.70812 0.24579 0.0
H799 H 0.12888 0.73009 0.11595 0.0
H800 H 0.06696 0.6861 0.97761 0.0
H801 H 0.08665 0.70233 0.03115 0.0
H802 H 0.10555 0.6646 0.14236 0.0
C803 C 0.11833 0.71878 0.24241 0.0
C804 C 0.12442 0.7156 0.12204 0.0
C805 C 0.12079 0.73174 0.27669 0.0
C806 C 0.0763 0.67767 0.99818 0.0
C807 C 0.08775 0.68701 0.0288 0.0
C808 C 0.11115 0.67865 0.13577 0.0
C809 C 0.12905 0.72031 0.20342 0.0
C810 C 0.1245 0.708 0.16492 0.0
C811 C 0.09957 0.67669 0.05753 0.0
C812 C 0.11 0.68667 0.09339 0.0
H813 H 0.15555 0.75911 0.23077 0.0
H814 H 0.15164 0.73612 0.1713 0.0
H815 H 0.11866 0.68265 0.20336 0.0
H816 H 0.08884 0.632 0.0221 0.0
H817 H 0.10927 0.64836 0.07478 0.0
C818 C 0.14995 0.2938 0.74024 0.0
C819 C 0.15622 0.27486 0.73759 0.0
C820 C 0.1427 0.30102 0.77961 0.0
C821 C 0.11842 0.28251 0.87809 0.0
H822 H 0.11438 0.33611 0.90627 0.0
C823 C 0.07161 0.31236 0.01981 0.0
C824 C 0.0595 0.32738 0.00758 0.0
C825 C 0.0857 0.30589 0.99099 0.0
C826 C 0.1154 0.3211 0.89872 0.0
H827 H 0.16212 0.24947 0.77581 0.0
H828 H 0.15012 0.26233 0.84502 0.0
H829 H 0.13773 0.32556 0.85202 0.0
H830 H 0.05263 0.34732 0.95543 0.0
H831 H 0.07742 0.33612 0.90528 0.0
H832 H 0.09605 0.27816 0.92497 0.0
C833 C 0.15006 0.27135 0.81611 0.0
C834 C 0.12876 0.31503 0.86764 0.0
C835 C 0.15717 0.26404 0.7765 0.0
C836 C 0.06166 0.33566 0.96574 0.0
C837 C 0.07596 0.32939 0.93722 0.0
C838 C 0.10527 0.28857 0.90963 0.0
C839 C 0.14177 0.28956 0.81754 0.0
C840 C 0.13008 0.29571 0.85597 0.0
C841 C 0.08817 0.31453 0.94969 0.0
C842 C 0.1033 0.30796 0.91936 0.0
H843 H 0.14917 0.30264 0.71106 0.0
H844 H 0.13646 0.31509 0.77913 0.0
H845 H 0.11871 0.26758 0.86957 0.0
H846 H 0.07029 0.30567 0.05183 0.0
H847 H 0.09493 0.29441 0.00136 0.0
C848 C 0.03717 0.30044 0.25198 0.0
C849 C 0.02139 0.29868 0.22386 0.0
C850 C 0.04488 0.28447 0.27245 0.0
C851 C 0.06753 0.24961 0.25122 0.0
H852 H 0.04176 0.20163 0.26925 0.0
C853 C 0.06313 0.19135 0.13211 0.0
C854 C 0.06152 0.17235 0.14527 0.0
C855 C 0.06738 0.20533 0.16302 0.0
C856 C 0.04953 0.21484 0.26574 0.0
H857 H -0.00038 0.27956 0.20005 0.0
H858 H 0.0133 0.25148 0.23474 0.0
H859 H 0.02678 0.23097 0.29411 0.0
H860 H 0.06482 0.15263 0.19972 0.0
H861 H 0.07153 0.17742 0.25431 0.0
H862 H 0.08908 0.23368 0.21783 0.0
C863 C 0.0197 0.26517 0.24151 0.0
C864 C 0.04085 0.23166 0.27967 0.0
C865 C 0.01189 0.28123 0.22128 0.0
C866 C 0.06611 0.16725 0.1888 0.0
C867 C 0.06989 0.18134 0.22005 0.0
C868 C 0.07607 0.23284 0.23686 0.0
C869 C 0.03704 0.26646 0.26464 0.0
C870 C 0.04905 0.24927 0.26912 0.0
C871 C 0.06957 0.20053 0.20772 0.0
C872 C 0.06633 0.21556 0.2407 0.0
H873 H 0.0445 0.31392 0.25532 0.0
H874 H 0.05802 0.28594 0.29073 0.0
H875 H 0.07434 0.26292 0.24274 0.0
H876 H 0.05964 0.19555 0.09872 0.0
H877 H 0.06685 0.22007 0.15272 0.0
C878 C 0.9319 0.73697 0.36202 0.0
C879 C 0.91458 0.74592 0.37164 0.0
C880 C 0.94813 0.74778 0.35462 0.0
C881 C 0.97053 0.79112 0.38677 0.0
H882 H 0.00638 0.77662 0.29562 0.0
C883 C 0.05024 0.81239 0.38801 0.0
C884 C 0.06182 0.79612 0.38554 0.0
C885 C 0.03085 0.81115 0.37853 0.0
C886 C 0.9964 0.78104 0.32081 0.0
H887 H 0.90057 0.77315 0.38114 0.0
H888 H 0.92929 0.79204 0.36922 0.0
H889 H 0.97367 0.76518 0.29199 0.0
H890 H 0.06219 0.76583 0.37158 0.0
H891 H 0.02855 0.76373 0.35539 0.0
H892 H 0.99367 0.80585 0.41726 0.0
C893 C 0.93011 0.7767 0.36688 0.0
C894 C 0.97777 0.77451 0.31875 0.0
C895 C 0.91377 0.76589 0.37374 0.0
C896 C 0.05368 0.77863 0.37384 0.0
C897 C 0.03447 0.77746 0.36399 0.0
C898 C 0.98923 0.79763 0.3889 0.0
C899 C 0.94737 0.7677 0.35714 0.0
C900 C 0.96503 0.77867 0.35295 0.0
C901 C 0.02294 0.7937 0.36588 0.0
C902 C 0.00249 0.79173 0.35719 0.0
H903 H 0.93291 0.72163 0.35996 0.0
H904 H 0.96142 0.74053 0.34799 0.0
H905 H 0.96089 0.79447 0.41351 0.0
H906 H 0.05615 0.82607 0.39693 0.0
H907 H 0.0221 0.8238 0.38059 0.0
C908 C 0.50414 0.66535 0.72309 0.0
C909 C 0.48593 0.67181 0.71109 0.0
C910 C 0.51668 0.67737 0.74529 0.0
C911 C 0.52042 0.72576 0.79563 0.0
H912 H 0.56473 0.72927 0.7202 0.0
C913 C 0.54273 0.79301 0.71244 0.0
C914 C 0.56172 0.79634 0.70051 0.0
C915 C 0.53787 0.77678 0.7362 0.0
C916 C 0.55285 0.72835 0.74282 0.0
H917 H 0.46608 0.69535 0.71604 0.0
H918 H 0.48801 0.71638 0.75308 0.0
H919 H 0.54714 0.69984 0.7235 0.0
H920 H 0.59068 0.78586 0.7066 0.0
H921 H 0.58201 0.75731 0.74746 0.0
H922 H 0.52523 0.755 0.81147 0.0
C923 C 0.49261 0.702 0.74624 0.0
C924 C 0.54272 0.71138 0.74478 0.0
C925 C 0.4801 0.69002 0.72421 0.0
C926 C 0.57585 0.78356 0.71465 0.0
C927 C 0.57096 0.76728 0.73835 0.0
C928 C 0.53054 0.74278 0.79356 0.0
C929 C 0.51125 0.69604 0.75579 0.0
C930 C 0.52556 0.71045 0.7684 0.0
C931 C 0.55186 0.76353 0.74848 0.0
C932 C 0.54594 0.74459 0.76441 0.0
H933 H 0.5089 0.65121 0.7143 0.0
H934 H 0.5309 0.67234 0.75257 0.0
H935 H 0.5075 0.72523 0.815 0.0
H936 H 0.53155 0.80269 0.70257 0.0
H937 H 0.52295 0.77412 0.74275 0.0
C938 C 0.57021 0.25428 0.02956 0.0
C939 C 0.57567 0.2399 1.00011 0.0
C940 C 0.55499 0.25144 0.05833 0.0
C941 C 0.51837 0.21523 0.09225 0.0
H942 H 0.48496 0.25848 0.07743 0.0
C943 C 0.4458 0.2105 0.02033 0.0
C944 C 0.43328 0.22589 0.02425 0.0
C945 C 0.46232 0.20994 0.04577 0.0
C946 C 0.49402 0.24631 0.08347 0.0
H947 H 0.57033 0.21097 0.97916 0.0
H948 H 0.54303 0.20641 0.02681 0.0
H949 H 0.51851 0.26265 0.06844 0.0
H950 H 0.42637 0.25105 0.06228 0.0
H951 H 0.45498 0.24984 0.10739 0.0
H952 H 0.49327 0.19862 0.103 0.0
C953 C 0.55078 0.21966 0.02925 0.0
C954 C 0.5135 0.24874 0.07823 0.0
C955 C 0.56625 0.22236 0.00123 0.0
C956 C 0.43621 0.23937 0.05767 0.0
C957 C 0.4525 0.2386 0.08372 0.0
C958 C 0.49877 0.21277 0.09709 0.0
C959 C 0.54462 0.23435 0.05738 0.0
C960 C 0.52574 0.23295 0.07906 0.0
C961 C 0.46638 0.22465 0.07583 0.0
C962 C 0.48635 0.22804 0.08922 0.0
H963 H 0.57764 0.26776 0.03023 0.0
H964 H 0.55094 0.26291 0.08018 0.0
H965 H 0.52753 0.20292 0.09499 0.0
H966 H 0.44364 0.19977 0.99523 0.0
H967 H 0.4727 0.19899 0.03867 0.0
C968 C -0.00151 0.81192 0.00728 0.0
C969 C 0.00045 0.80962 0.96148 0.0
C970 C -0.00087 0.7961 0.03504 0.0
C971 C 0.00965 0.74598 0.04629 0.0
H972 H 0.95565 0.73554 0.03688 0.0
C973 C 0.97917 0.69287 0.9413 0.0
C974 C 0.98458 0.67526 0.95856 0.0
C975 C 0.97604 0.70815 0.96954 0.0
C976 C 0.97064 0.73826 0.04213 0.0
H977 H 0.00658 0.78983 0.90896 0.0
H978 H 0.00888 0.76228 0.95771 0.0
H979 H 0.96677 0.76835 0.03891 0.0
H980 H 0.9896 0.6591 0.01824 0.0
H981 H 0.98544 0.68636 0.0676 0.0
H982 H 0.01363 0.71591 0.0447 0.0
C983 C 0.00664 0.7762 0.97214 0.0
C984 C 0.97704 0.75701 0.04326 0.0
C985 C 0.00529 0.79185 0.94423 0.0
C986 C 0.98516 0.67261 0.00446 0.0
C987 C 0.98275 0.6881 0.03268 0.0
C988 C 0.00322 0.72724 0.04653 0.0
C989 C 0.00246 0.77805 0.01725 0.0
C990 C 0.99662 0.76086 0.04101 0.0
C991 C 0.97905 0.70613 0.01512 0.0
C992 C 0.98382 0.72336 0.04003 0.0
H993 H 0.99442 0.82556 0.02098 0.0
H994 H 0.99554 0.79771 0.06956 0.0
H995 H 0.02479 0.7487 0.04431 0.0
H996 H 0.97887 0.69517 0.906 0.0
H997 H 0.97351 0.72205 0.95528 0.0
C998 C 0.556 0.71705 0.99143 0.0
C999 C 0.55943 0.69788 0.00142 0.0
C1000 C 0.54038 0.72219 0.966 0.0
C1001 C 0.49267 0.7058 0.95374 0.0
H1002 H 0.4886 0.75515 0.89775 0.0
C1003 C 0.42952 0.75177 0.99328 0.0
C1004 C 0.43572 0.76921 0.01076 0.0
C1005 C 0.44147 0.74102 0.96634 0.0
C1006 C 0.4894 0.74119 0.91268 0.0
H1007 H 0.55022 0.66891 0.98904 0.0
H1008 H 0.52265 0.67801 0.945 0.0
H1009 H 0.51862 0.73786 0.89478 0.0
H1010 H 0.45875 0.78969 0.01121 0.0
H1011 H 0.47988 0.77066 0.96605 0.0
H1012 H 0.46424 0.70985 0.97568 0.0
C1013 C 0.53201 0.68902 0.95722 0.0
C1014 C 0.50655 0.73126 0.91083 0.0
C1015 C 0.54769 0.68385 0.98277 0.0
C1016 C 0.45365 0.7762 0.99872 0.0
C1017 C 0.46565 0.7654 0.97211 0.0
C1018 C 0.47558 0.71574 0.95577 0.0
C1019 C 0.52781 0.7083 0.94996 0.0
C1020 C 0.50876 0.71427 0.93465 0.0
C1021 C 0.45991 0.74742 0.9567 0.0
C1022 C 0.47435 0.73425 0.93856 0.0
H1023 H 0.56496 0.7282 0.00459 0.0
H1024 H 0.53747 0.7372 0.96171 0.0
H1025 H 0.49381 0.69268 0.9722 0.0
H1026 H 0.41555 0.74621 0.00105 0.0
H1027 H 0.43656 0.72734 0.95459 0.0
C1028 C 0.48905 0.18391 0.28372 0.0
C1029 C 0.47565 0.17122 0.3013 0.0
C1030 C 0.48319 0.19978 0.26004 0.0
C1031 C 0.44489 0.23292 0.26448 0.0
H1032 H 0.47853 0.25938 0.18393 0.0
C1033 C 0.4552 0.3119 0.2845 0.0
C1034 C 0.47452 0.3156 0.29298 0.0
C1035 C 0.44974 0.29532 0.26265 0.0
C1036 C 0.46872 0.25218 0.20582 0.0
H1037 H 0.44559 0.16446 0.30504 0.0
H1038 H 0.43526 0.1927 0.2644 0.0
H1039 H 0.47847 0.2247 0.18578 0.0
H1040 H 0.5033 0.3056 0.28191 0.0
H1041 H 0.49382 0.27651 0.24508 0.0
H1042 H 0.43638 0.26021 0.28756 0.0
C1043 C 0.45033 0.19023 0.26898 0.0
C1044 C 0.46865 0.23235 0.20679 0.0
C1045 C 0.45624 0.17417 0.29248 0.0
C1046 C 0.4883 0.30305 0.27648 0.0
C1047 C 0.48285 0.28649 0.25467 0.0
C1048 C 0.44492 0.25272 0.26347 0.0
C1049 C 0.46375 0.20346 0.25356 0.0
C1050 C 0.45793 0.22265 0.23879 0.0
C1051 C 0.46349 0.28212 0.24886 0.0
C1052 C 0.458 0.26249 0.23674 0.0
H1053 H 0.50414 0.18187 0.28917 0.0
H1054 H 0.49392 0.20981 0.24935 0.0
H1055 H 0.43636 0.2259 0.28935 0.0
H1056 H 0.44421 0.32149 0.29597 0.0
H1057 H 0.43474 0.2924 0.25833 0.0
C1058 C 0.06324 0.26225 0.62437 0.0
C1059 C 0.08087 0.27149 0.6215 0.0
C1060 C 0.04651 0.27288 0.62764 0.0
C1061 C 0.02743 0.31755 0.59095 0.0
H1062 H 0.98433 0.30348 0.66353 0.0
C1063 C 0.94089 0.3251 0.60865 0.0
C1064 C 0.93658 0.31628 0.56832 0.0
C1065 C 0.95979 0.3285 0.62012 0.0
C1066 C 0.99636 0.30801 0.64386 0.0
H1067 H 0.09482 0.29913 0.62197 0.0
H1068 H 0.06566 0.31742 0.62687 0.0
H1069 H 0.01545 0.28962 0.6786 0.0
H1070 H 0.94802 0.3069 0.50573 0.0
H1071 H 0.98094 0.31317 0.52535 0.0
H1072 H 0.008 0.33478 0.55403 0.0
C1073 C 0.06481 0.30204 0.62656 0.0
C1074 C 0.01406 0.29988 0.65216 0.0
C1075 C 0.08148 0.29149 0.62369 0.0
C1076 C 0.95105 0.31348 0.53723 0.0
C1077 C 0.96988 0.31721 0.54838 0.0
C1078 C 0.00966 0.32549 0.58226 0.0
C1079 C 0.04719 0.29286 0.62778 0.0
C1080 C 0.02953 0.30403 0.6247 0.0
C1081 C 0.97445 0.32349 0.591 0.0
C1082 C 0.99385 0.32018 0.60757 0.0
H1083 H 0.06232 0.24689 0.623 0.0
H1084 H 0.03299 0.2655 0.62811 0.0
H1085 H 0.03919 0.32094 0.56926 0.0
H1086 H 0.92994 0.32749 0.63316 0.0
H1087 H 0.96303 0.33346 0.65307 0.0
C1088 C 0.97705 0.06054 0.98837 0.0
C1089 C 0.97611 0.06666 0.03243 0.0
C1090 C 0.96573 0.04569 0.97355 0.0
C1091 C 0.94155 0.0032 0.01265 0.0
H1092 H 0.92495 0.0013 0.89074 0.0
C1093 C 0.92078 0.93262 0.93913 0.0
C1094 C 0.9325 0.92814 0.90306 0.0
C1095 C 0.91827 0.95144 0.95206 0.0
C1096 C 0.92931 0.00169 0.92496 0.0
H1097 H 0.96224 0.06208 0.09537 0.0
H1098 H 0.9423 0.03585 0.06924 0.0
H1099 H 0.93556 0.03142 0.92232 0.0
H1100 H 0.94895 0.93984 0.84916 0.0
H1101 H 0.94477 0.97283 0.87202 0.0
H1102 H 0.93606 0.9734 0.01491 0.0
C1103 C 0.95196 0.04264 0.04634 0.0
C1104 C 0.93545 0.01888 0.94303 0.0
C1105 C 0.9634 0.0576 0.06133 0.0
C1106 C 0.93987 0.9429 0.87711 0.0
C1107 C 0.93744 0.9618 0.89023 0.0
C1108 C 0.93527 0.98608 0.99472 0.0
C1109 C 0.95306 0.03652 0.00223 0.0
C1110 C 0.94246 0.01961 0.98646 0.0
C1111 C 0.92752 0.96612 0.92927 0.0
C1112 C 0.92982 0.98499 0.95018 0.0
H1113 H 0.98671 0.0671 0.9651 0.0
H1114 H 0.96737 0.04104 0.93974 0.0
H1115 H 0.94699 0.0032 0.04603 0.0
H1116 H 0.91464 0.92148 0.95928 0.0
H1117 H 0.91023 0.95441 0.98174 0.0
C1118 C 0.212 0.80041 0.32835 0.0
C1119 C 0.20444 0.81112 0.36322 0.0
C1120 C 0.2277 0.80693 0.30499 0.0
C1121 C 0.26894 0.83651 0.2999 0.0
H1122 H 0.25555 0.84177 0.17635 0.0
C1123 C 0.32645 0.85485 0.17459 0.0
C1124 C 0.32675 0.84271 0.13784 0.0
C1125 C 0.31015 0.85638 0.2006 0.0
C1126 C 0.25958 0.84037 0.21063 0.0
H1127 H 0.20815 0.83623 0.40346 0.0
H1128 H 0.23638 0.84752 0.36287 0.0
H1129 H 0.23143 0.83217 0.22964 0.0
H1130 H 0.30981 0.82406 0.09702 0.0
H1131 H 0.28146 0.82637 0.14259 0.0
H1132 H 0.29733 0.84345 0.28086 0.0
C1133 C 0.22989 0.83414 0.35367 0.0
C1134 C 0.24574 0.83496 0.24113 0.0
C1135 C 0.21395 0.8276 0.37712 0.0
C1136 C 0.30989 0.83369 0.12487 0.0
C1137 C 0.29364 0.83499 0.15128 0.0
C1138 C 0.28289 0.84168 0.26926 0.0
C1139 C 0.23623 0.82427 0.31614 0.0
C1140 C 0.25043 0.83251 0.28577 0.0
C1141 C 0.29391 0.84555 0.19078 0.0
C1142 C 0.27848 0.84319 0.22401 0.0
H1143 H 0.20484 0.78768 0.31697 0.0
H1144 H 0.23257 0.79893 0.27663 0.0
H1145 H 0.27284 0.83464 0.33416 0.0
H1146 H 0.33929 0.86203 0.18514 0.0
H1147 H 0.31069 0.86511 0.22995 0.0
C1148 C 0.53867 0.03624 0.38611 0.0
C1149 C 0.52292 0.04421 0.40781 0.0
C1150 C 0.54922 0.02177 0.40642 0.0
C1151 C 0.56086 0.00632 0.51822 0.0
H1152 H 0.57923 0.95983 0.4649 0.0
C1153 C 0.58411 0.94081 0.61711 0.0
C1154 C 0.59643 0.92771 0.59715 0.0
C1155 C 0.57928 0.95762 0.5952 0.0
C1156 C 0.57463 0.97297 0.48009 0.0
H1157 H 0.50467 0.04207 0.46518 0.0
H1158 H 0.52279 0.01673 0.49999 0.0
H1159 H 0.56105 0.98233 0.42063 0.0
H1160 H 0.61541 0.92295 0.54201 0.0
H1161 H 0.60767 0.95264 0.50475 0.0
H1162 H 0.57422 -0.00299 0.57774 0.0
C1163 C 0.52735 0.02195 0.46809 0.0
C1164 C 0.56409 0.98576 0.4547 0.0
C1165 C 0.51686 0.03629 0.44792 0.0
C1166 C 0.60573 0.93279 0.5579 0.0
C1167 C 0.60109 0.94966 0.53628 0.0
C1168 C 0.57152 0.99363 0.5435 0.0
C1169 C 0.54411 0.01518 0.44857 0.0
C1170 C 0.55668 0.0023 0.47387 0.0
C1171 C 0.5869 0.96165 0.55327 0.0
C1172 C 0.57816 0.97657 0.52506 0.0
H1173 H 0.54373 0.04221 0.35536 0.0
H1174 H 0.56203 0.01666 0.39055 0.0
H1175 H 0.55567 0.01922 0.53355 0.0
H1176 H 0.57662 0.93717 0.64715 0.0
H1177 H 0.5683 0.96651 0.60936 0.0
C1178 C 0.30064 0.22071 0.86322 0.0
C1179 C 0.30803 0.2388 0.87222 0.0
C1180 C 0.28865 0.218 0.82698 0.0
C1181 C 0.28179 0.23974 0.7183 0.0
H1182 H 0.23924 0.20514 0.70815 0.0
C1183 C 0.22536 0.24157 0.58308 0.0
C1184 C 0.21457 0.22507 0.57647 0.0
C1185 C 0.24125 0.24106 0.61068 0.0
C1186 C 0.25143 0.2145 0.7101 0.0
H1187 H 0.30747 0.26847 0.85371 0.0
H1188 H 0.28584 0.26398 0.7918 0.0
H1189 H 0.2544 0.20965 0.77943 0.0
H1190 H 0.2136 0.19467 0.58625 0.0
H1191 H 0.24186 0.19353 0.63261 0.0
H1192 H 0.27857 0.24489 0.64912 0.0
C1193 C 0.28964 0.25179 0.81173 0.0
C1194 C 0.25996 0.21722 0.75114 0.0
C1195 C 0.30165 0.25444 0.84771 0.0
C1196 C 0.22181 0.20755 0.59076 0.0
C1197 C 0.23775 0.20699 0.6181 0.0
C1198 C 0.27327 0.23701 0.67723 0.0
C1199 C 0.28397 0.2334 0.79942 0.0
C1200 C 0.27499 0.23014 0.75586 0.0
C1201 C 0.24653 0.22397 0.63146 0.0
C1202 C 0.2578 0.22458 0.67277 0.0
H1203 H 0.30579 0.20839 0.88104 0.0
H1204 H 0.28448 0.20366 0.8184 0.0
H1205 H 0.29372 0.24941 0.72064 0.0
H1206 H 0.21989 0.25527 0.5728 0.0
H1207 H 0.24776 0.25441 0.61997 0.0
C1208 C 0.711 0.27372 0.84768 0.0
C1209 C 0.70591 0.25768 0.87241 0.0
C1210 C 0.72521 0.27246 0.8158 0.0
C1211 C 0.73891 0.25909 0.72686 0.0
H1212 H 0.78783 0.23399 0.73258 0.0
C1213 C 0.80678 0.23278 0.61317 0.0
C1214 C 0.80981 0.24973 0.58975 0.0
C1215 C 0.79167 0.23131 0.64272 0.0
C1216 C 0.774 0.24066 0.73016 0.0
H1217 H 0.71247 0.22825 0.88622 0.0
H1218 H 0.73774 0.22607 0.83093 0.0
H1219 H 0.76909 0.23778 0.79959 0.0
H1220 H 0.7983 0.27749 0.5746 0.0
H1221 H 0.77201 0.27509 0.62643 0.0
H1222 H 0.74368 0.26193 0.65753 0.0
C1223 C 0.73081 0.23963 0.83622 0.0
C1224 C 0.76339 0.243 0.76871 0.0
C1225 C 0.71654 0.24092 0.86821 0.0
C1226 C 0.79615 0.26421 0.59199 0.0
C1227 C 0.78115 0.26285 0.62204 0.0
C1228 C 0.74942 0.25663 0.68827 0.0
C1229 C 0.73444 0.25508 0.80803 0.0
C1230 C 0.74589 0.2525 0.76752 0.0
C1231 C 0.77951 0.24686 0.64973 0.0
C1232 C 0.7672 0.24758 0.6895 0.0
H1233 H 0.70271 0.28667 0.84993 0.0
H1234 H 0.72802 0.28469 0.79511 0.0
H1235 H 0.72519 0.26605 0.72481 0.0
H1236 H 0.81713 0.22139 0.61178 0.0
H1237 H 0.79041 0.21855 0.66249 0.0
C1238 C 0.77424 0.67814 0.37252 0.0
C1239 C 0.79222 0.66961 0.37375 0.0
C1240 C 0.75934 0.66922 0.35004 0.0
C1241 C 0.7291 0.64541 0.30294 0.0
H1242 H 0.74782 0.63368 0.1856 0.0
C1243 C 0.67657 0.6324 0.16557 0.0
C1244 C 0.67897 0.6456 0.13128 0.0
C1245 C 0.69153 0.62833 0.1941 0.0
C1246 C 0.74242 0.63666 0.21831 0.0
H1247 H 0.80854 0.64462 0.35654 0.0
H1248 H 0.78247 0.62885 0.31817 0.0
H1249 H 0.77032 0.6399 0.24508 0.0
H1250 H 0.69923 0.66324 0.09661 0.0
H1251 H 0.72557 0.65611 0.14656 0.0
H1252 H 0.70121 0.64314 0.27568 0.0
C1253 C 0.77984 0.64241 0.33393 0.0
C1254 C 0.75526 0.64008 0.25248 0.0
C1255 C 0.79466 0.65131 0.35627 0.0
C1256 C 0.69713 0.65287 0.12258 0.0
C1257 C 0.71215 0.64885 0.15136 0.0
C1258 C 0.71627 0.64181 0.26889 0.0
C1259 C 0.76238 0.65176 0.32845 0.0
C1260 C 0.74872 0.64499 0.29484 0.0
C1261 C 0.7091 0.63748 0.18891 0.0
C1262 C 0.7228 0.6379 0.22596 0.0
H1263 H 0.77222 0.69242 0.38503 0.0
H1264 H 0.74604 0.6768 0.34615 0.0
H1265 H 0.72369 0.64914 0.33523 0.0
H1266 H 0.66265 0.62657 0.17273 0.0
H1267 H 0.68892 0.61921 0.22223 0.0
C1268 C 0.40764 0.55893 0.55976 0.0
C1269 C 0.41425 0.56312 0.60242 0.0
C1270 C 0.4134 0.54229 0.53849 0.0
C1271 C 0.42771 0.50396 0.50216 0.0
H1272 H 0.48266 0.50327 0.51322 0.0
C1273 C 0.49368 0.45218 0.4531 0.0
C1274 C 0.48773 0.44632 0.41105 0.0
C1275 C 0.48474 0.46729 0.47428 0.0
C1276 C 0.46733 0.50309 0.51 0.0
H1277 H 0.42962 0.55187 0.65862 0.0
H1278 H 0.43954 0.52278 0.62152 0.0
H1279 H 0.46401 0.52441 0.55951 0.0
H1280 H 0.46889 0.45282 0.35658 0.0
H1281 H 0.45359 0.47975 0.39318 0.0
H1282 H 0.43104 0.48241 0.45297 0.0
C1283 C 0.43026 0.53256 0.60427 0.0
C1284 C 0.45663 0.51513 0.53675 0.0
C1285 C 0.42436 0.54912 0.62569 0.0
C1286 C 0.47381 0.45701 0.38896 0.0
C1287 C 0.46484 0.47224 0.41023 0.0
C1288 C 0.43843 0.4917 0.47566 0.0
C1289 C 0.42586 0.52966 0.55959 0.0
C1290 C 0.43672 0.51564 0.53328 0.0
C1291 C 0.46971 0.47705 0.45382 0.0
C1292 C 0.45838 0.49108 0.47938 0.0
H1293 H 0.39968 0.56939 0.54116 0.0
H1294 H 0.40967 0.54034 0.50416 0.0
H1295 H 0.41239 0.50419 0.49864 0.0
H1296 H 0.50443 0.44428 0.47093 0.0
H1297 H 0.48886 0.47049 0.50784 0.0
C1298 C 0.04858 0.54656 0.86222 0.0
C1299 C 0.05608 0.55948 0.89286 0.0
C1300 C 0.04835 0.52711 0.87179 0.0
C1301 C 0.0635 0.49091 0.95525 0.0
H1302 H 0.01169 0.47307 0.94111 0.0
C1303 C 0.03002 0.43421 0.06826 0.0
C1304 C 0.02 0.41955 0.04719 0.0
C1305 C 0.03607 0.45008 0.0443 0.0
C1306 C 0.02628 0.47774 0.94486 0.0
H1307 H 0.07154 0.5621 0.95437 0.0
H1308 H 0.07093 0.52851 0.97128 0.0
H1309 H 0.02187 0.50175 0.90319 0.0
H1310 H 0.00775 0.41035 0.98508 0.0
H1311 H 0.01805 0.43813 0.94369 0.0
H1312 H 0.06749 0.46725 0.99875 0.0
C1313 C 0.06516 0.53313 0.93999 0.0
C1314 C 0.0322 0.49408 0.92278 0.0
C1315 C 0.06539 0.55248 0.93044 0.0
C1316 C 0.01551 0.4214 0.00224 0.0
C1317 C 0.02137 0.4373 0.9785 0.0
C1318 C 0.0575 0.47464 0.97766 0.0
C1319 C 0.05566 0.52037 0.91204 0.0
C1320 C 0.05075 0.50112 0.92851 0.0
C1321 C 0.03198 0.45163 0.99909 0.0
C1322 C 0.03872 0.46816 0.97337 0.0
H1323 H 0.04142 0.55154 0.83281 0.0
H1324 H 0.04133 0.51754 0.84909 0.0
H1325 H 0.07795 0.49581 0.95989 0.0
H1326 H 0.03377 0.43314 0.10278 0.0
H1327 H 0.04399 0.46111 0.06108 0.0
C1328 C 0.03213 0.11207 0.25355 0.0
C1329 C 0.0426 0.10297 0.22011 0.0
C1330 C 0.04139 0.12024 0.2896 0.0
C1331 C 0.08606 0.1239 0.35226 0.0
H1332 H 0.07372 0.17764 0.3581 0.0
C1333 C 0.10853 0.17744 0.48975 0.0
C1334 C 0.11879 0.19332 0.47466 0.0
C1335 C 0.1004 0.1647 0.45993 0.0
C1336 C 0.0773 0.16267 0.35673 0.0
H1337 H 0.07078 0.09329 0.20145 0.0
H1338 H 0.08681 0.10717 0.26506 0.0
H1339 H 0.05588 0.15682 0.30852 0.0
H1340 H 0.1287 0.20827 0.41665 0.0
H1341 H 0.11366 0.18627 0.36417 0.0
H1342 H 0.10711 0.12979 0.40176 0.0
C1343 C 0.07148 0.10827 0.2628 0.0
C1344 C 0.06703 0.15074 0.32871 0.0
C1345 C 0.06226 0.10027 0.22639 0.0
C1346 C 0.12095 0.1961 0.4291 0.0
C1347 C 0.11234 0.1836 0.3992 0.0
C1348 C 0.09601 0.13577 0.38128 0.0
C1349 C 0.06125 0.11917 0.29346 0.0
C1350 C 0.0714 0.13127 0.32587 0.0
C1351 C 0.10195 0.16785 0.41447 0.0
C1352 C 0.09182 0.15527 0.38334 0.0
H1353 H 0.01697 0.11437 0.2501 0.0
H1354 H 0.03312 0.1283 0.31323 0.0
H1355 H 0.08971 0.10895 0.35068 0.0
H1356 H 0.10672 0.17491 0.52472 0.0
H1357 H 0.09236 0.15271 0.47238 0.0
C1358 C 0.11871 0.86246 0.52238 0.0
C1359 C 0.12671 0.84425 0.52599 0.0
C1360 C 0.10825 0.87021 0.55715 0.0
C1361 C 0.09264 0.86187 0.67379 0.0
H1362 H 0.04624 0.8855 0.63179 0.0
C1363 C 0.03333 0.88247 0.79497 0.0
C1364 C 0.01453 0.87876 0.78194 0.0
C1365 C 0.04818 0.88182 0.76448 0.0
C1366 C 0.05904 0.87882 0.64416 0.0
H1367 H 0.1313 0.82042 0.56983 0.0
H1368 H 0.11267 0.83359 0.63016 0.0
H1369 H 0.07129 0.87775 0.5799 0.0
H1370 H 0.99641 0.87214 0.72643 0.0
H1371 H 0.02239 0.87036 0.67315 0.0
H1372 H 0.07983 0.86174 0.73757 0.0
C1373 C 0.1147 0.84219 0.60095 0.0
C1374 C 0.07364 0.87467 0.61441 0.0
C1375 C 0.12549 0.8346 0.56637 0.0
C1376 C 0.01075 0.87519 0.73732 0.0
C1377 C 0.02569 0.87422 0.7068 0.0
C1378 C 0.07794 0.86581 0.70345 0.0
C1379 C 0.10519 0.85971 0.59598 0.0
C1380 C 0.09058 0.86592 0.62868 0.0
C1381 C 0.04468 0.8771 0.72022 0.0
C1382 C 0.06082 0.87414 0.68898 0.0
H1383 H 0.11951 0.87022 0.49158 0.0
H1384 H 0.10172 0.884 0.5526 0.0
H1385 H 0.10551 0.85534 0.6862 0.0
H1386 H 0.03665 0.88549 0.82912 0.0
H1387 H 0.06247 0.88468 0.77592 0.0
C1388 C 0.40771 0.84911 0.931 0.0
C1389 C 0.40744 0.85623 0.97413 0.0
C1390 C 0.42024 0.85669 0.8997 0.0
C1391 C 0.46599 0.88373 0.89735 0.0
H1392 H 0.4608 0.87513 0.77202 0.0
C1393 C 0.53149 0.87912 0.78305 0.0
C1394 C 0.5293 0.88218 0.73768 0.0
C1395 C 0.51576 0.88022 0.81131 0.0
C1396 C 0.46254 0.87809 0.80676 0.0
H1397 H 0.41864 0.8779 0.01743 0.0
H1398 H 0.43924 0.89224 0.9621 0.0
H1399 H 0.43354 0.87093 0.8195 0.0
H1400 H 0.50939 0.89018 0.68662 0.0
H1401 H 0.48231 0.89353 0.73596 0.0
H1402 H 0.49473 0.89174 0.8844 0.0
C1403 C 0.43065 0.88016 0.95265 0.0
C1404 C 0.44683 0.87528 0.83435 0.0
C1405 C 0.41853 0.87222 0.98425 0.0
C1406 C 0.51143 0.88766 0.72152 0.0
C1407 C 0.49583 0.88929 0.74987 0.0
C1408 C 0.48156 0.88699 0.86964 0.0
C1409 C 0.43251 0.87185 0.9106 0.0
C1410 C 0.44841 0.87751 0.88029 0.0
C1411 C 0.49754 0.88486 0.79498 0.0
C1412 C 0.48029 0.88369 0.82401 0.0
H1413 H 0.3996 0.83653 0.92263 0.0
H1414 H 0.4212 0.84964 0.8681 0.0
H1415 H 0.4681 0.88542 0.93243 0.0
H1416 H 0.54506 0.87459 0.79625 0.0
H1417 H 0.51782 0.87642 0.84551 0.0
C1418 C 0.43448 0.09212 0.26653 0.0
C1419 C 0.45392 0.09411 0.25656 0.0
C1420 C 0.4206 0.09883 0.23751 0.0
C1421 C 0.41225 0.11849 0.12517 0.0
H1422 H 0.37544 0.1503 0.18554 0.0
C1423 C 0.36631 0.18899 0.08222 0.0
C1424 C 0.36137 0.18442 0.03867 0.0
C1425 C 0.37339 0.17494 0.11055 0.0
C1426 C 0.38557 0.14145 0.16815 0.0
H1427 H 0.47392 0.1031 0.20635 0.0
H1428 H 0.44972 0.11476 0.15566 0.0
H1429 H 0.39686 0.13022 0.22817 0.0
H1430 H 0.35789 0.1613 0.99222 0.0
H1431 H 0.36955 0.13675 0.04198 0.0
H1432 H 0.40166 0.13044 0.06529 0.0
C1433 C 0.44517 0.108 0.18593 0.0
C1434 C 0.39773 0.12974 0.19256 0.0
C1435 C 0.45909 0.10121 0.21496 0.0
C1436 C 0.36171 0.16526 0.02557 0.0
C1437 C 0.36862 0.15122 0.0539 0.0
C1438 C 0.40008 0.13017 0.10078 0.0
C1439 C 0.42581 0.1077 0.19783 0.0
C1440 C 0.41146 0.11836 0.17142 0.0
C1441 C 0.3755 0.15605 0.0959 0.0
C1442 C 0.38679 0.14206 0.12197 0.0
H1443 H 0.43001 0.08656 0.29818 0.0
H1444 H 0.4058 0.09792 0.24719 0.0
H1445 H 0.42255 0.10983 0.10781 0.0
H1446 H 0.36641 0.20366 0.09309 0.0
H1447 H 0.37857 0.1792 0.14265 0.0
C1448 C 0.83811 0.74781 0.55411 0.0
C1449 C 0.83995 0.75449 0.51065 0.0
C1450 C 0.8442 0.759 0.58971 0.0
C1451 C 0.8642 0.80737 0.61848 0.0
H1452 H 0.89108 0.77834 0.70716 0.0
C1453 C 0.90944 0.84411 0.75427 0.0
C1454 C 0.92558 0.83444 0.76982 0.0
C1455 C 0.89671 0.83516 0.72543 0.0
C1456 C 0.88389 0.78675 0.68237 0.0
H1457 H 0.84791 0.77897 0.47114 0.0
H1458 H 0.85902 0.79789 0.53202 0.0
H1459 H 0.87183 0.76194 0.6533 0.0
H1460 H 0.94146 0.80812 0.76586 0.0
H1461 H 0.92008 0.79296 0.71385 0.0
H1462 H 0.87748 0.83205 0.64552 0.0
C1463 C 0.85272 0.78422 0.53939 0.0
C1464 C 0.87239 0.77729 0.65184 0.0
C1465 C 0.84639 0.77322 0.50407 0.0
C1466 C 0.92905 0.8159 0.75477 0.0
C1467 C 0.91659 0.80711 0.72526 0.0
C1468 C 0.87603 0.8168 0.64847 0.0
C1469 C 0.85248 0.77702 0.58264 0.0
C1470 C 0.86262 0.78739 0.61883 0.0
C1471 C 0.9 0.81643 0.71073 0.0
C1472 C 0.88636 0.8066 0.6804 0.0
H1473 H 0.83309 0.73353 0.56053 0.0
H1474 H 0.84315 0.75313 0.62259 0.0
H1475 H 0.85662 0.8158 0.59439 0.0
H1476 H 0.90626 0.85835 0.76567 0.0
H1477 H 0.88405 0.84282 0.71563 0.0
C1478 C 0.90617 0.22664 0.42933 0.0
C1479 C 0.88954 0.23772 0.42783 0.0
C1480 C 0.91146 0.21539 0.39365 0.0
C1481 C 0.90772 0.21163 0.27451 0.0
H1482 H 0.92985 0.16198 0.29597 0.0
C1483 C 0.96284 0.17658 0.15931 0.0
C1484 C 0.96347 0.15663 0.15625 0.0
C1485 C 0.94978 0.18551 0.18724 0.0
C1486 C 0.92343 0.17565 0.28903 0.0
H1487 H 0.86529 0.24547 0.38763 0.0
H1488 H 0.87477 0.22576 0.32439 0.0
H1489 H 0.91395 0.17868 0.35562 0.0
H1490 H 0.94995 0.13054 0.17803 0.0
H1491 H 0.92705 0.14615 0.22619 0.0
H1492 H 0.91761 0.20872 0.20798 0.0
C1493 C 0.88361 0.22587 0.3536 0.0
C1494 C 0.91447 0.18531 0.32341 0.0
C1495 C 0.87814 0.23704 0.3898 0.0
C1496 C 0.95003 0.14592 0.17992 0.0
C1497 C 0.93693 0.15486 0.20771 0.0
C1498 C 0.91676 0.20196 0.23999 0.0
C1499 C 0.90036 0.21495 0.35524 0.0
C1500 C 0.90699 0.20361 0.3169 0.0
C1501 C 0.93699 0.17474 0.21265 0.0
C1502 C 0.92513 0.18404 0.24715 0.0
H1503 H 0.91527 0.22673 0.45812 0.0
H1504 H 0.92459 0.20738 0.39575 0.0
H1505 H 0.90215 0.22575 0.26854 0.0
H1506 H 0.97294 0.1853 0.14153 0.0
H1507 H 0.95037 0.20083 0.19051 0.0
C1508 C 0.64438 0.1821 0.02442 0.0
C1509 C 0.6504 0.20084 0.03269 0.0
C1510 C 0.63868 0.17027 0.0589 0.0
C1511 C 0.61781 0.17613 0.16901 0.0
H1512 H 0.61478 0.1211 0.16506 0.0
C1513 C 0.5734 0.13605 0.2956 0.0
C1514 C 0.56003 0.12324 0.27816 0.0
C1515 C 0.5884 0.14273 0.26992 0.0
C1516 C 0.61553 0.13646 0.16653 0.0
H1517 H 0.65751 0.22093 0.08425 0.0
H1518 H 0.64827 0.2 0.14468 0.0
H1519 H 0.63596 0.13789 0.11423 0.0
H1520 H 0.55271 0.10637 0.22092 0.0
H1521 H 0.57904 0.11827 0.1755 0.0
H1522 H 0.59724 0.17478 0.22065 0.0
C1523 C 0.64719 0.19473 0.11127 0.0
C1524 C 0.62765 0.14611 0.13746 0.0
C1525 C 0.65274 0.20667 0.07662 0.0
C1526 C 0.56277 0.11625 0.23525 0.0
C1527 C 0.57786 0.12303 0.20931 0.0
C1528 C 0.6059 0.1665 0.1982 0.0
C1529 C 0.63907 0.17679 0.10266 0.0
C1530 C 0.62867 0.16613 0.13773 0.0
C1531 C 0.59043 0.13685 0.226 0.0
C1532 C 0.60436 0.14659 0.19688 0.0
H1533 H 0.64262 0.17701 0.99098 0.0
H1534 H 0.63256 0.15661 0.0507 0.0
H1535 H 0.61774 0.19151 0.16969 0.0
H1536 H 0.57192 0.14148 0.32884 0.0
H1537 H 0.59808 0.15303 0.28405 0.0
C1538 C 0.62845 0.84918 0.78956 0.0
C1539 C 0.63355 0.84752 0.74493 0.0
C1540 C 0.63703 0.8375 0.82133 0.0
C1541 C 0.65495 0.78934 0.8245 0.0
H1542 H 0.66554 0.7997 0.94736 0.0
C1543 C 0.66001 0.7276 0.94883 0.0
C1544 C 0.64996 0.73074 0.98819 0.0
C1545 C 0.66438 0.7429 0.92078 0.0
C1546 C 0.66255 0.7965 0.91317 0.0
H1547 H 0.65334 0.8342 0.69962 0.0
H1548 H 0.66825 0.81401 0.7549 0.0
H1549 H 0.6614 0.8261 0.89594 0.0
H1550 H 0.63801 0.7526 0.03049 0.0
H1551 H 0.64498 0.77872 0.98183 0.0
H1552 H 0.65468 0.75992 0.84172 0.0
C1553 C 0.6574 0.82398 0.76525 0.0
C1554 C 0.66028 0.81168 0.88374 0.0
C1555 C 0.64892 0.83566 0.73366 0.0
C1556 C 0.64557 0.74955 1.00019 0.0
C1557 C 0.6498 0.7647 0.97229 0.0
C1558 C 0.6569 0.77419 0.85398 0.0
C1559 C 0.65082 0.82402 0.80891 0.0
C1560 C 0.65605 0.80825 0.83926 0.0
C1561 C 0.65876 0.7616 0.93153 0.0
C1562 C 0.66019 0.77754 0.89903 0.0
H1563 H 0.61662 0.85809 0.79934 0.0
H1564 H 0.63167 0.83787 0.85478 0.0
H1565 H 0.65144 0.78621 0.79052 0.0
H1566 H 0.66369 0.71331 0.9387 0.0
H1567 H 0.67163 0.73997 0.89005 0.0
C1568 C 0.48112 0.60149 0.79135 0.0
C1569 C 0.4823 0.59418 0.74835 0.0
C1570 C 0.49713 0.6016 0.81875 0.0
C1571 C 0.53205 0.59548 0.87626 0.0
H1572 H 0.57836 0.61125 0.81715 0.0
C1573 C 0.59846 0.61194 0.97736 0.0
C1574 C 0.60708 0.62946 0.96755 0.0
C1575 C 0.58591 0.60349 0.94759 0.0
C1576 C 0.56558 0.60681 0.83418 0.0
H1577 H 0.50077 0.57973 0.70189 0.0
H1578 H 0.52847 0.57951 0.74998 0.0
H1579 H 0.55009 0.60407 0.7739 0.0
H1580 H 0.61057 0.65103 0.91728 0.0
H1581 H 0.58854 0.63643 0.86538 0.0
H1582 H 0.54718 0.59919 0.93664 0.0
C1583 C 0.51536 0.58567 0.76212 0.0
C1584 C 0.54939 0.60247 0.80935 0.0
C1585 C 0.49941 0.58563 0.73471 0.0
C1586 C 0.6043 0.63744 0.92562 0.0
C1587 C 0.59157 0.62907 0.89592 0.0
C1588 C 0.54821 0.59984 0.90107 0.0
C1589 C 0.51464 0.59429 0.80384 0.0
C1590 C 0.53232 0.59704 0.83012 0.0
C1591 C 0.58153 0.61247 0.90747 0.0
C1592 C 0.56512 0.60584 0.88042 0.0
H1593 H 0.46822 0.60831 0.80281 0.0
H1594 H 0.49605 0.60845 0.85059 0.0
H1595 H 0.51923 0.59119 0.89333 0.0
H1596 H 0.60044 0.60539 0.00936 0.0
H1597 H 0.57886 0.59043 0.95705 0.0
C1598 C 0.54658 0.39201 0.21671 0.0
C1599 C 0.5475 0.38324 0.25822 0.0
C1600 C 0.56115 0.38915 0.18575 0.0
C1601 C 0.60971 0.36734 0.17122 0.0
H1602 H 0.58942 0.35244 0.05778 0.0
C1603 C 0.63083 0.32726 0.99647 0.0
C1604 C 0.63873 0.31045 0.01359 0.0
C1605 C 0.62433 0.34155 0.02456 0.0
C1606 C 0.5955 0.3569 0.08888 0.0
H1607 H 0.56521 0.36609 0.30124 0.0
H1608 H 0.59012 0.3609 0.24778 0.0
H1609 H 0.56905 0.36862 0.1101 0.0
H1610 H 0.64766 0.29621 0.07336 0.0
H1611 H 0.63616 0.32118 0.12271 0.0
H1612 H 0.6359 0.35446 0.15053 0.0
C1613 C 0.57839 0.37006 0.23865 0.0
C1614 C 0.58377 0.36629 0.11899 0.0
C1615 C 0.56392 0.37288 0.26933 0.0
C1616 C 0.64173 0.30905 0.05922 0.0
C1617 C 0.63509 0.32337 0.08748 0.0
C1618 C 0.62142 0.35778 0.14116 0.0
C1619 C 0.57692 0.37754 0.19587 0.0
C1620 C 0.59051 0.37112 0.16111 0.0
C1621 C 0.62545 0.33932 0.07047 0.0
C1622 C 0.6143 0.35201 0.10006 0.0
H1623 H 0.53414 0.40011 0.20723 0.0
H1624 H 0.5597 0.39541 0.15333 0.0
H1625 H 0.61552 0.37117 0.20303 0.0
H1626 H 0.62853 0.32883 0.96136 0.0
H1627 H 0.61739 0.35386 0.01037 0.0
C1628 C 0.95645 0.38943 0.25143 0.0
C1629 C 0.95574 0.37556 0.21816 0.0
C1630 C 0.94094 0.39197 0.27994 0.0
C1631 C 0.89022 0.37741 0.29868 0.0
H1632 H 0.90624 0.37322 0.42037 0.0
C1633 C 0.8641 0.35155 0.48368 0.0
C1634 C 0.85744 0.33348 0.47109 0.0
C1635 C 0.8706 0.36443 0.45198 0.0
C1636 C 0.90131 0.37491 0.38679 0.0
H1637 H 0.93769 0.35465 0.18638 0.0
H1638 H 0.91105 0.35886 0.2358 0.0
H1639 H 0.92918 0.38221 0.36456 0.0
H1640 H 0.84973 0.31601 0.41498 0.0
H1641 H 0.86108 0.33832 0.35999 0.0
H1642 H 0.8626 0.36872 0.32083 0.0
C1643 C 0.92337 0.3679 0.24015 0.0
C1644 C 0.91455 0.3801 0.35464 0.0
C1645 C 0.93881 0.36529 0.21203 0.0
C1646 C 0.85499 0.32967 0.42596 0.0
C1647 C 0.86147 0.34256 0.39428 0.0
C1648 C 0.87698 0.37213 0.33086 0.0
C1649 C 0.92442 0.38082 0.27534 0.0
C1650 C 0.90939 0.38049 0.30992 0.0
C1651 C 0.87046 0.35955 0.40709 0.0
C1652 C 0.88261 0.36996 0.375 0.0
H1653 H 0.96927 0.39762 0.25682 0.0
H1654 H 0.94213 0.40217 0.3065 0.0
H1655 H 0.88567 0.378 0.26462 0.0
H1656 H 0.8659 0.35514 0.51813 0.0
H1657 H 0.87703 0.37761 0.46282 0.0
C1658 C 0.98468 0.6178 0.73236 0.0
C1659 C 0.97926 0.61146 0.77435 0.0
C1660 C 0.97107 0.62051 0.69947 0.0
C1661 C 0.94125 0.62063 0.62868 0.0
H1662 H 0.89236 0.63999 0.66683 0.0
C1663 C 0.88822 0.64802 0.50068 0.0
C1664 C 0.87787 0.66435 0.51174 0.0
C1665 C 0.89779 0.63774 0.53313 0.0
C1666 C 0.90598 0.63478 0.65546 0.0
H1667 H 0.95557 0.60169 0.81402 0.0
H1668 H 0.93194 0.60538 0.75597 0.0
H1669 H 0.91521 0.6294 0.72126 0.0
H1670 H 0.86884 0.68263 0.565 0.0
H1671 H 0.88647 0.6655 0.62162 0.0
H1672 H 0.9328 0.62755 0.56331 0.0
C1673 C 0.94656 0.60908 0.7488 0.0
C1674 C 0.91904 0.62832 0.6868 0.0
C1675 C 0.96013 0.60676 0.782 0.0
C1676 C 0.87661 0.66992 0.55594 0.0
C1677 C 0.88669 0.65998 0.58835 0.0
C1678 C 0.92839 0.62749 0.59747 0.0
C1679 C 0.95173 0.61655 0.70746 0.0
C1680 C 0.93702 0.62147 0.67391 0.0
C1681 C 0.89784 0.644 0.57721 0.0
C1682 C 0.91066 0.63495 0.61038 0.0
H1683 H -0.00071 0.62173 0.72561 0.0
H1684 H 0.97569 0.62659 0.66852 0.0
H1685 H 0.95471 0.61506 0.61719 0.0
H1686 H 0.88923 0.64343 0.46666 0.0
H1687 H 0.90561 0.62519 0.52327 0.0
C1688 C 0.41793 0.38307 0.28468 0.0
C1689 C 0.43605 0.38808 0.2687 0.0
C1690 C 0.40383 0.37663 0.256 0.0
C1691 C 0.38947 0.37099 0.1397 0.0
H1692 H 0.37565 0.31993 0.17561 0.0
C1693 C 0.37423 0.3121 0.01643 0.0
C1694 C 0.36405 0.29575 0.0288 0.0
C1695 C 0.37653 0.32716 0.04567 0.0
C1696 C 0.37876 0.33433 0.16531 0.0
H1697 H 0.45281 0.39215 0.20943 0.0
H1698 H 0.42802 0.38109 0.15925 0.0
H1699 H 0.39205 0.3406 0.22694 0.0
H1700 H 0.34661 0.28324 0.07995 0.0
H1701 H 0.35016 0.30994 0.13107 0.0
H1702 H 0.37644 0.36464 0.07776 0.0
C1703 C 0.42485 0.38203 0.19411 0.0
C1704 C 0.3883 0.34618 0.19482 0.0
C1705 C 0.43906 0.38835 0.22289 0.0
C1706 C 0.35463 0.29559 0.06959 0.0
C1707 C 0.35687 0.31082 0.09902 0.0
C1708 C 0.37961 0.35924 0.11035 0.0
C1709 C 0.40743 0.37527 0.21065 0.0
C1710 C 0.39435 0.36437 0.18181 0.0
C1711 C 0.36859 0.32642 0.08813 0.0
C1712 C 0.37484 0.34044 0.12211 0.0
H1713 H 0.41498 0.38291 0.31972 0.0
H1714 H 0.39043 0.37177 0.26955 0.0
H1715 H 0.39377 0.38504 0.12904 0.0
H1716 H 0.38147 0.31279 0.98495 0.0
H1717 H 0.38576 0.33872 0.03586 0.0
C1718 C 0.34654 0.74487 0.00812 0.0
C1719 C 0.3505 0.76336 0.99288 0.0
C1720 C 0.34516 0.72968 0.9787 0.0
C1721 C 0.36286 0.70141 0.91529 0.0
H1722 H 0.34004 0.70142 0.79917 0.0
C1723 C 0.38142 0.67022 0.73486 0.0
C1724 C 0.38916 0.65248 0.74646 0.0
C1725 C 0.37104 0.68086 0.7652 0.0
C1726 C 0.34658 0.70118 0.83145 0.0
H1727 H 0.35419 0.7806 0.93429 0.0
H1728 H 0.35155 0.75402 0.88277 0.0
H1729 H 0.33204 0.72662 0.85139 0.0
H1730 H 0.39063 0.63126 0.79804 0.0
H1731 H 0.37197 0.64971 0.8512 0.0
H1732 H 0.37836 0.67684 0.89491 0.0
C1733 C 0.34964 0.75132 0.91763 0.0
C1734 C 0.34192 0.71561 0.86137 0.0
C1735 C 0.35111 0.76658 0.94717 0.0
C1736 C 0.38491 0.6449 0.78814 0.0
C1737 C 0.37439 0.6556 0.81872 0.0
C1738 C 0.36772 0.68716 0.88525 0.0
C1739 C 0.34755 0.7326 0.93329 0.0
C1740 C 0.35033 0.71611 0.90329 0.0
C1741 C 0.36793 0.67405 0.80813 0.0
C1742 C 0.36006 0.68711 0.84245 0.0
H1743 H 0.34574 0.74188 0.04309 0.0
H1744 H 0.34318 0.71547 0.99169 0.0
H1745 H 0.36978 0.70151 0.94717 0.0
H1746 H 0.38425 0.67643 0.70283 0.0
H1747 H 0.36655 0.69499 0.75562 0.0
C1748 C 0.14492 0.75079 0.55406 0.0
C1749 C 0.13764 0.7476 0.51158 0.0
C1750 C 0.14048 0.73826 0.58866 0.0
C1751 C 0.11781 0.69093 0.61279 0.0
H1752 H 0.10207 0.71568 0.72078 0.0
C1753 C 0.08002 0.64936 0.75292 0.0
C1754 C 0.06539 0.65891 0.77543 0.0
C1755 C 0.09192 0.65917 0.72366 0.0
C1756 C 0.10626 0.70852 0.69074 0.0
H1757 H 0.12125 0.72802 0.47149 0.0
H1758 H 0.11336 0.70668 0.53103 0.0
H1759 H 0.11828 0.73398 0.66422 0.0
H1760 H 0.05158 0.68623 0.78406 0.0
H1761 H 0.07168 0.70308 0.73211 0.0
H1762 H 0.10465 0.66578 0.63794 0.0
C1763 C 0.12258 0.71861 0.53817 0.0
C1764 C 0.11592 0.71898 0.65852 0.0
C1765 C 0.12699 0.73102 0.50388 0.0
C1766 C 0.06279 0.67843 0.76755 0.0
C1767 C 0.0745 0.68817 0.73799 0.0
C1768 C 0.10795 0.68052 0.64477 0.0
C1769 C 0.12877 0.72229 0.58136 0.0
C1770 C 0.12138 0.71046 0.61855 0.0
C1771 C 0.08934 0.67875 0.7158 0.0
C1772 C 0.1016 0.68928 0.68375 0.0
H1773 H 0.15315 0.76343 0.56109 0.0
H1774 H 0.14576 0.7414 0.62136 0.0
H1775 H 0.12212 0.68374 0.58287 0.0
H1776 H 0.08252 0.63436 0.75851 0.0
H1777 H 0.10329 0.65143 0.70767 0.0
C1778 C 0.08413 0.36613 0.2164 0.0
C1779 C 0.06601 0.37349 0.22612 0.0
C1780 C 0.09701 0.36204 0.24994 0.0
C1781 C 0.09549 0.34989 0.36849 0.0
H1782 H 0.14913 0.34029 0.34841 0.0
C1783 C 0.14208 0.31205 0.49626 0.0
C1784 C 0.14816 0.29412 0.481 0.0
C1785 C 0.13555 0.32582 0.46688 0.0
C1786 C 0.1342 0.34302 0.35444 0.0
H1787 H 0.0482 0.38465 0.27831 0.0
H1788 H 0.07115 0.3785 0.33696 0.0
H1789 H 0.13129 0.35977 0.29611 0.0
H1790 H 0.15365 0.27735 0.4224 0.0
H1791 H 0.14263 0.30183 0.3708 0.0
H1792 H 0.09864 0.33334 0.42727 0.0
C1793 C 0.07504 0.37495 0.30345 0.0
C1794 C 0.12389 0.35408 0.32444 0.0
C1795 C 0.06195 0.37877 0.26973 0.0
C1796 C 0.14903 0.29095 0.43528 0.0
C1797 C 0.14276 0.30494 0.40576 0.0
C1798 C 0.10591 0.33927 0.39894 0.0
C1799 C 0.09232 0.36554 0.29425 0.0
C1800 C 0.1042 0.35712 0.3302 0.0
C1801 C 0.13532 0.32219 0.42153 0.0
C1802 C 0.12519 0.3353 0.39155 0.0
H1803 H 0.0879 0.36212 0.18305 0.0
H1804 H 0.11001 0.35478 0.241 0.0
H1805 H 0.08038 0.35148 0.37404 0.0
H1806 H 0.14128 0.31512 0.53118 0.0
H1807 H 0.12995 0.33906 0.47972 0.0
loop_
_geom_bond_atom_site_label_1
_geom_bond_atom_site_label_2
_geom_bond_distance
_geom_bond_site_symmetry_2
_ccdc_geom_bond_type
O0 Zn1 1.953 . S
O0 C16 1.225 . S
Zn1 O0 1.953 . S
Zn1 O2 1.949 1_655 S
Zn1 O8 1.919 . S
Zn1 O13 1.924 . S
O2 Zn1 1.949 1_455 S
O2 Zn3 1.923 . S
O2 Zn4 1.950 . S
O2 Zn5 1.945 . S
Zn3 O2 1.923 . S
Zn3 O6 1.933 . S
Zn3 O9 1.941 . S
Zn3 O10 1.965 . S
Zn4 O2 1.950 . S
Zn4 O11 1.938 . S
Zn4 O12 1.906 . S
Zn4 O22 1.953 1_455 S
Zn5 O2 1.945 . S
Zn5 O7 1.932 . S
Zn5 O14 1.977 . S
Zn5 O15 1.910 1_455 S
O6 Zn3 1.933 . S
O6 C17 1.226 . S
O7 Zn5 1.932 . S
O7 C17 1.307 . S
O8 Zn1 1.919 . S
O8 C19 1.253 1_655 S
O9 Zn3 1.941 . S
O9 C19 1.283 . S
O10 Zn3 1.965 . S
O10 C18 1.303 . S
O11 Zn4 1.938 . S
O11 C18 1.247 . S
O12 Zn4 1.906 . S
O12 C20 1.304 . S
O13 Zn1 1.924 . S
O13 C21 1.311 . S
O14 Zn5 1.977 . S
O14 C20 1.272 . S
O15 Zn5 1.910 1_655 S
O15 C21 1.231 . S
C16 O0 1.225 . S
C16 O22 1.298 . S
C17 O6 1.226 . S
C17 O7 1.307 . S
C18 O10 1.303 . S
C18 O11 1.247 . S
C19 O8 1.253 1_455 S
C19 O9 1.283 . S
C20 O12 1.304 . S
C20 O14 1.272 . S
C21 O13 1.311 . S
C21 O15 1.231 . S
O22 Zn4 1.953 1_655 S
O22 C16 1.298 . S
O23 Zn24 1.953 . S
O23 C39 1.225 . S
Zn24 O23 1.953 . S
Zn24 O25 1.949 . S
Zn24 O31 1.919 . S
Zn24 O36 1.924 . S
O25 Zn24 1.949 . S
O25 Zn26 1.923 . S
O25 Zn27 1.950 . S
O25 Zn28 1.945 . S
Zn26 O25 1.923 . S
Zn26 O29 1.933 . S
Zn26 O32 1.941 . S
Zn26 O33 1.965 . S
Zn27 O25 1.950 . S
Zn27 O34 1.938 . S
Zn27 O35 1.906 . S
Zn27 O45 1.953 . S
Zn28 O25 1.945 . S
Zn28 O30 1.932 . S
Zn28 O37 1.977 . S
Zn28 O38 1.910 . S
O29 Zn26 1.933 . S
O29 C40 1.226 . S
O30 Zn28 1.932 . S
O30 C40 1.307 . S
O31 Zn24 1.919 . S
O31 C42 1.253 . S
O32 Zn26 1.941 . S
O32 C42 1.283 . S
O33 Zn26 1.965 . S
O33 C41 1.303 . S
O34 Zn27 1.938 . S
O34 C41 1.247 . S
O35 Zn27 1.906 . S
O35 C43 1.304 . S
O36 Zn24 1.924 . S
O36 C44 1.311 . S
O37 Zn28 1.977 . S
O37 C43 1.272 . S
O38 Zn28 1.910 . S
O38 C44 1.231 . S
C39 O23 1.225 . S
C39 O45 1.298 . S
C40 O29 1.226 . S
C40 O30 1.307 . S
C41 O33 1.303 . S
C41 O34 1.247 . S
C42 O31 1.253 . S
C42 O32 1.283 . S
C43 O35 1.304 . S
C43 O37 1.272 . S
C44 O36 1.311 . S
C44 O38 1.231 . S
O45 Zn27 1.953 . S
O45 C39 1.298 . S
O46 Zn47 1.953 . S
O46 C62 1.225 . S
Zn47 O46 1.953 . S
Zn47 O48 1.949 . S
Zn47 O54 1.919 . S
Zn47 O59 1.924 . S
O48 Zn47 1.949 . S
O48 Zn49 1.923 . S
O48 Zn50 1.950 . S
O48 Zn51 1.945 . S
Zn49 O48 1.923 . S
Zn49 O52 1.933 . S
Zn49 O55 1.941 . S
Zn49 O56 1.965 . S
Zn50 O48 1.950 . S
Zn50 O57 1.938 . S
Zn50 O58 1.906 . S
Zn50 O68 1.953 . S
Zn51 O48 1.945 . S
Zn51 O53 1.932 . S
Zn51 O60 1.977 . S
Zn51 O61 1.910 . S
O52 Zn49 1.933 . S
O52 C63 1.226 . S
O53 Zn51 1.932 . S
O53 C63 1.307 . S
O54 Zn47 1.919 . S
O54 C65 1.253 . S
O55 Zn49 1.941 . S
O55 C65 1.283 . S
O56 Zn49 1.965 . S
O56 C64 1.303 . S
O57 Zn50 1.938 . S
O57 C64 1.247 . S
O58 Zn50 1.906 . S
O58 C66 1.304 . S
O59 Zn47 1.924 . S
O59 C67 1.311 . S
O60 Zn51 1.977 . S
O60 C66 1.272 . S
O61 Zn51 1.910 . S
O61 C67 1.231 . S
C62 O46 1.225 . S
C62 O68 1.298 . S
C63 O52 1.226 . S
C63 O53 1.307 . S
C64 O56 1.303 . S
C64 O57 1.247 . S
C65 O54 1.253 . S
C65 O55 1.283 . S
C66 O58 1.304 . S
C66 O60 1.272 . S
C67 O59 1.311 . S
C67 O61 1.231 . S
O68 Zn50 1.953 . S
O68 C62 1.298 . S
O69 Zn70 1.953 . S
O69 C85 1.225 . S
Zn70 O69 1.953 . S
Zn70 O71 1.949 . S
Zn70 O77 1.919 . S
Zn70 O82 1.924 . S
O71 Zn70 1.949 . S
O71 Zn72 1.923 . S
O71 Zn73 1.950 . S
O71 Zn74 1.945 . S
Zn72 O71 1.923 . S
Zn72 O75 1.933 . S
Zn72 O78 1.941 . S
Zn72 O79 1.965 . S
Zn73 O71 1.950 . S
Zn73 O80 1.938 . S
Zn73 O81 1.906 . S
Zn73 O91 1.953 . S
Zn74 O71 1.945 . S
Zn74 O76 1.932 . S
Zn74 O83 1.977 . S
Zn74 O84 1.910 . S
O75 Zn72 1.933 . S
O75 C86 1.226 . S
O76 Zn74 1.932 . S
O76 C86 1.307 . S
O77 Zn70 1.919 . S
O77 C88 1.253 . S
O78 Zn72 1.941 . S
O78 C88 1.283 . S
O79 Zn72 1.965 . S
O79 C87 1.303 . S
O80 Zn73 1.938 . S
O80 C87 1.247 . S
O81 Zn73 1.906 . S
O81 C89 1.304 . S
O82 Zn70 1.924 . S
O82 C90 1.311 . S
O83 Zn74 1.977 . S
O83 C89 1.272 . S
O84 Zn74 1.910 . S
O84 C90 1.231 . S
C85 O69 1.225 . S
C85 O91 1.298 . S
C86 O75 1.226 . S
C86 O76 1.307 . S
C87 O79 1.303 . S
C87 O80 1.247 . S
C88 O77 1.253 . S
C88 O78 1.283 . S
C89 O81 1.304 . S
C89 O83 1.272 . S
C90 O82 1.311 . S
C90 O84 1.231 . S
O91 Zn73 1.953 . S
O91 C85 1.298 . S
O92 Zn93 1.953 . S
O92 C108 1.225 . S
Zn93 O92 1.953 . S
Zn93 O94 1.949 1_655 S
Zn93 O100 1.919 . S
Zn93 O105 1.924 . S
O94 Zn93 1.949 1_455 S
O94 Zn95 1.923 . S
O94 Zn96 1.950 . S
O94 Zn97 1.945 . S
Zn95 O94 1.923 . S
Zn95 O98 1.933 . S
Zn95 O101 1.941 . S
Zn95 O102 1.965 . S
Zn96 O94 1.950 . S
Zn96 O103 1.938 . S
Zn96 O104 1.906 . S
Zn96 O114 1.953 1_455 S
Zn97 O94 1.945 . S
Zn97 O99 1.932 . S
Zn97 O106 1.977 . S
Zn97 O107 1.910 1_455 S
O98 Zn95 1.933 . S
O98 C109 1.226 . S
O99 Zn97 1.932 . S
O99 C109 1.307 . S
O100 Zn93 1.919 . S
O100 C111 1.253 1_655 S
O101 Zn95 1.941 . S
O101 C111 1.283 . S
O102 Zn95 1.965 . S
O102 C110 1.303 . S
O103 Zn96 1.938 . S
O103 C110 1.247 . S
O104 Zn96 1.906 . S
O104 C112 1.304 . S
O105 Zn93 1.924 . S
O105 C113 1.311 . S
O106 Zn97 1.977 . S
O106 C112 1.272 . S
O107 Zn97 1.910 1_655 S
O107 C113 1.231 . S
C108 O92 1.225 . S
C108 O114 1.298 . S
C109 O98 1.226 . S
C109 O99 1.307 . S
C110 O102 1.303 . S
C110 O103 1.247 . S
C111 O100 1.253 1_455 S
C111 O101 1.283 . S
C112 O104 1.304 . S
C112 O106 1.272 . S
C113 O105 1.311 . S
C113 O107 1.231 . S
O114 Zn96 1.953 1_655 S
O114 C108 1.298 . S
O115 Zn116 1.953 . S
O115 C131 1.225 . S
Zn116 O115 1.953 . S
Zn116 O117 1.949 . S
Zn116 O123 1.919 . S
Zn116 O128 1.924 . S
O117 Zn116 1.949 . S
O117 Zn118 1.923 . S
O117 Zn119 1.950 . S
O117 Zn120 1.945 . S
Zn118 O117 1.923 . S
Zn118 O121 1.933 . S
Zn118 O124 1.941 . S
Zn118 O125 1.965 . S
Zn119 O117 1.950 . S
Zn119 O126 1.938 . S
Zn119 O127 1.906 . S
Zn119 O137 1.953 . S
Zn120 O117 1.945 . S
Zn120 O122 1.932 . S
Zn120 O129 1.977 . S
Zn120 O130 1.910 . S
O121 Zn118 1.933 . S
O121 C132 1.226 . S
O122 Zn120 1.932 . S
O122 C132 1.307 . S
O123 Zn116 1.919 . S
O123 C134 1.253 . S
O124 Zn118 1.941 . S
O124 C134 1.283 . S
O125 Zn118 1.965 . S
O125 C133 1.303 . S
O126 Zn119 1.938 . S
O126 C133 1.247 . S
O127 Zn119 1.906 . S
O127 C135 1.304 . S
O128 Zn116 1.924 . S
O128 C136 1.311 . S
O129 Zn120 1.977 . S
O129 C135 1.272 . S
O130 Zn120 1.910 . S
O130 C136 1.231 . S
C131 O115 1.225 . S
C131 O137 1.298 . S
C132 O121 1.226 . S
C132 O122 1.307 . S
C133 O125 1.303 . S
C133 O126 1.247 . S
C134 O123 1.253 . S
C134 O124 1.283 . S
C135 O127 1.304 . S
C135 O129 1.272 . S
C136 O128 1.311 . S
C136 O130 1.231 . S
O137 Zn119 1.953 . S
O137 C131 1.298 . S
O138 Zn139 1.953 . S
O138 C154 1.225 . S
Zn139 O138 1.953 . S
Zn139 O140 1.949 . S
Zn139 O146 1.919 . S
Zn139 O151 1.924 . S
O140 Zn139 1.949 . S
O140 Zn141 1.923 . S
O140 Zn142 1.950 . S
O140 Zn143 1.945 . S
Zn141 O140 1.923 . S
Zn141 O144 1.933 . S
Zn141 O147 1.941 . S
Zn141 O148 1.965 . S
Zn142 O140 1.950 . S
Zn142 O149 1.938 . S
Zn142 O150 1.906 . S
Zn142 O160 1.953 . S
Zn143 O140 1.945 . S
Zn143 O145 1.932 . S
Zn143 O152 1.977 . S
Zn143 O153 1.910 . S
O144 Zn141 1.933 . S
O144 C155 1.226 . S
O145 Zn143 1.932 . S
O145 C155 1.307 . S
O146 Zn139 1.919 . S
O146 C157 1.253 . S
O147 Zn141 1.941 . S
O147 C157 1.283 . S
O148 Zn141 1.965 . S
O148 C156 1.303 . S
O149 Zn142 1.938 . S
O149 C156 1.247 . S
O150 Zn142 1.906 . S
O150 C158 1.304 . S
O151 Zn139 1.924 . S
O151 C159 1.311 . S
O152 Zn143 1.977 . S
O152 C158 1.272 . S
O153 Zn143 1.910 . S
O153 C159 1.231 . S
C154 O138 1.225 . S
C154 O160 1.298 . S
C155 O144 1.226 . S
C155 O145 1.307 . S
C156 O148 1.303 . S
C156 O149 1.247 . S
C157 O146 1.253 . S
C157 O147 1.283 . S
C158 O150 1.304 . S
C158 O152 1.272 . S
C159 O151 1.311 . S
C159 O153 1.231 . S
O160 Zn142 1.953 . S
O160 C154 1.298 . S
O161 Zn162 1.953 . S
O161 C177 1.225 . S
Zn162 O161 1.953 . S
Zn162 O163 1.949 . S
Zn162 O169 1.919 . S
Zn162 O174 1.924 . S
O163 Zn162 1.949 . S
O163 Zn164 1.923 . S
O163 Zn165 1.950 . S
O163 Zn166 1.945 . S
Zn164 O163 1.923 . S
Zn164 O167 1.933 . S
Zn164 O170 1.941 . S
Zn164 O171 1.965 . S
Zn165 O163 1.950 . S
Zn165 O172 1.938 . S
Zn165 O173 1.906 . S
Zn165 O183 1.953 . S
Zn166 O163 1.945 . S
Zn166 O168 1.932 . S
Zn166 O175 1.977 . S
Zn166 O176 1.910 . S
O167 Zn164 1.933 . S
O167 C178 1.226 . S
O168 Zn166 1.932 . S
O168 C178 1.307 . S
O169 Zn162 1.919 . S
O169 C180 1.253 . S
O170 Zn164 1.941 . S
O170 C180 1.283 . S
O171 Zn164 1.965 . S
O171 C179 1.303 . S
O172 Zn165 1.938 . S
O172 C179 1.247 . S
O173 Zn165 1.906 . S
O173 C181 1.304 . S
O174 Zn162 1.924 . S
O174 C182 1.311 . S
O175 Zn166 1.977 . S
O175 C181 1.272 . S
O176 Zn166 1.910 . S
O176 C182 1.231 . S
C177 O161 1.225 . S
C177 O183 1.298 . S
C178 O167 1.226 . S
C178 O168 1.307 . S
C179 O171 1.303 . S
C179 O172 1.247 . S
C180 O169 1.253 . S
C180 O170 1.283 . S
C181 O173 1.304 . S
C181 O175 1.272 . S
C182 O174 1.311 . S
C182 O176 1.231 . S
O183 Zn165 1.953 . S
O183 C177 1.298 . S
O184 Zn185 1.953 . S
O184 C200 1.225 . S
Zn185 O184 1.953 . S
Zn185 O186 1.949 . S
Zn185 O192 1.919 . S
Zn185 O197 1.924 . S
O186 Zn185 1.949 . S
O186 Zn187 1.923 . S
O186 Zn188 1.950 . S
O186 Zn189 1.945 . S
Zn187 O186 1.923 . S
Zn187 O190 1.933 . S
Zn187 O193 1.941 . S
Zn187 O194 1.965 . S
Zn188 O186 1.950 . S
Zn188 O195 1.938 . S
Zn188 O196 1.906 . S
Zn188 O206 1.953 . S
Zn189 O186 1.945 . S
Zn189 O191 1.932 . S
Zn189 O198 1.977 . S
Zn189 O199 1.910 . S
O190 Zn187 1.933 . S
O190 C201 1.226 . S
O191 Zn189 1.932 . S
O191 C201 1.307 . S
O192 Zn185 1.919 . S
O192 C203 1.253 . S
O193 Zn187 1.941 . S
O193 C203 1.283 . S
O194 Zn187 1.965 . S
O194 C202 1.303 . S
O195 Zn188 1.938 . S
O195 C202 1.247 . S
O196 Zn188 1.906 . S
O196 C204 1.304 . S
O197 Zn185 1.924 . S
O197 C205 1.311 . S
O198 Zn189 1.977 . S
O198 C204 1.272 . S
O199 Zn189 1.910 . S
O199 C205 1.231 . S
C200 O184 1.225 . S
C200 O206 1.298 . S
C201 O190 1.226 . S
C201 O191 1.307 . S
C202 O194 1.303 . S
C202 O195 1.247 . S
C203 O192 1.253 . S
C203 O193 1.283 . S
C204 O196 1.304 . S
C204 O198 1.272 . S
C205 O197 1.311 . S
C205 O199 1.231 . S
O206 Zn188 1.953 . S
O206 C200 1.298 . S
O207 Zn208 1.953 . S
O207 C223 1.225 . S
Zn208 O207 1.953 . S
Zn208 O209 1.949 . S
Zn208 O215 1.919 . S
Zn208 O220 1.924 . S
O209 Zn208 1.949 . S
O209 Zn210 1.923 . S
O209 Zn211 1.950 . S
O209 Zn212 1.945 . S
Zn210 O209 1.923 . S
Zn210 O213 1.933 . S
Zn210 O216 1.941 . S
Zn210 O217 1.965 . S
Zn211 O209 1.950 . S
Zn211 O218 1.938 . S
Zn211 O219 1.906 . S
Zn211 O229 1.953 . S
Zn212 O209 1.945 . S
Zn212 O214 1.932 . S
Zn212 O221 1.977 . S
Zn212 O222 1.910 . S
O213 Zn210 1.933 . S
O213 C224 1.226 . S
O214 Zn212 1.932 . S
O214 C224 1.307 . S
O215 Zn208 1.919 . S
O215 C226 1.253 . S
O216 Zn210 1.941 . S
O216 C226 1.283 . S
O217 Zn210 1.965 . S
O217 C225 1.303 . S
O218 Zn211 1.938 . S
O218 C225 1.247 . S
O219 Zn211 1.906 . S
O219 C227 1.304 . S
O220 Zn208 1.924 . S
O220 C228 1.311 . S
O221 Zn212 1.977 . S
O221 C227 1.272 . S
O222 Zn212 1.910 . S
O222 C228 1.231 . S
C223 O207 1.225 . S
C223 O229 1.298 . S
C224 O213 1.226 . S
C224 O214 1.307 . S
C225 O217 1.303 . S
C225 O218 1.247 . S
C226 O215 1.253 . S
C226 O216 1.283 . S
C227 O219 1.304 . S
C227 O221 1.272 . S
C228 O220 1.311 . S
C228 O222 1.231 . S
O229 Zn211 1.953 . S
O229 C223 1.298 . S
O230 Zn231 1.953 . S
O230 C246 1.225 . S
Zn231 O230 1.953 . S
Zn231 O232 1.949 . S
Zn231 O238 1.919 . S
Zn231 O243 1.924 . S
O232 Zn231 1.949 . S
O232 Zn233 1.923 . S
O232 Zn234 1.950 . S
O232 Zn235 1.945 . S
Zn233 O232 1.923 . S
Zn233 O236 1.933 . S
Zn233 O239 1.941 . S
Zn233 O240 1.965 . S
Zn234 O232 1.950 . S
Zn234 O241 1.938 . S
Zn234 O242 1.906 . S
Zn234 O252 1.953 . S
Zn235 O232 1.945 . S
Zn235 O237 1.932 . S
Zn235 O244 1.977 . S
Zn235 O245 1.910 . S
O236 Zn233 1.933 . S
O236 C247 1.226 . S
O237 Zn235 1.932 . S
O237 C247 1.307 . S
O238 Zn231 1.919 . S
O238 C249 1.253 . S
O239 Zn233 1.941 . S
O239 C249 1.283 . S
O240 Zn233 1.965 . S
O240 C248 1.303 . S
O241 Zn234 1.938 . S
O241 C248 1.247 . S
O242 Zn234 1.906 . S
O242 C250 1.304 . S
O243 Zn231 1.924 . S
O243 C251 1.311 . S
O244 Zn235 1.977 . S
O244 C250 1.272 . S
O245 Zn235 1.910 . S
O245 C251 1.231 . S
C246 O230 1.225 . S
C246 O252 1.298 . S
C247 O236 1.226 . S
C247 O237 1.307 . S
C248 O240 1.303 . S
C248 O241 1.247 . S
C249 O238 1.253 . S
C249 O239 1.283 . S
C250 O242 1.304 . S
C250 O244 1.272 . S
C251 O243 1.311 . S
C251 O245 1.231 . S
O252 Zn234 1.953 . S
O252 C246 1.298 . S
O253 Zn254 1.953 . S
O253 C269 1.225 . S
Zn254 O253 1.953 . S
Zn254 O255 1.949 . S
Zn254 O261 1.919 . S
Zn254 O266 1.924 . S
O255 Zn254 1.949 . S
O255 Zn256 1.923 . S
O255 Zn257 1.950 . S
O255 Zn258 1.945 . S
Zn256 O255 1.923 . S
Zn256 O259 1.933 . S
Zn256 O262 1.941 . S
Zn256 O263 1.965 . S
Zn257 O255 1.950 . S
Zn257 O264 1.938 . S
Zn257 O265 1.906 . S
Zn257 O275 1.953 . S
Zn258 O255 1.945 . S
Zn258 O260 1.932 . S
Zn258 O267 1.977 . S
Zn258 O268 1.910 . S
O259 Zn256 1.933 . S
O259 C270 1.226 . S
O260 Zn258 1.932 . S
O260 C270 1.307 . S
O261 Zn254 1.919 . S
O261 C272 1.253 . S
O262 Zn256 1.941 . S
O262 C272 1.283 . S
O263 Zn256 1.965 . S
O263 C271 1.303 . S
O264 Zn257 1.938 . S
O264 C271 1.247 . S
O265 Zn257 1.906 . S
O265 C273 1.304 . S
O266 Zn254 1.924 . S
O266 C274 1.311 . S
O267 Zn258 1.977 . S
O267 C273 1.272 . S
O268 Zn258 1.910 . S
O268 C274 1.231 . S
C269 O253 1.225 . S
C269 O275 1.298 . S
C270 O259 1.226 . S
C270 O260 1.307 . S
C271 O263 1.303 . S
C271 O264 1.247 . S
C272 O261 1.253 . S
C272 O262 1.283 . S
C273 O265 1.304 . S
C273 O267 1.272 . S
C274 O266 1.311 . S
C274 O268 1.231 . S
O275 Zn257 1.953 . S
O275 C269 1.298 . S
O276 Zn277 1.953 . S
O276 C292 1.225 . S
Zn277 O276 1.953 . S
Zn277 O278 1.949 . S
Zn277 O284 1.919 . S
Zn277 O289 1.924 . S
O278 Zn277 1.949 . S
O278 Zn279 1.923 . S
O278 Zn280 1.950 . S
O278 Zn281 1.945 . S
Zn279 O278 1.923 . S
Zn279 O282 1.933 . S
Zn279 O285 1.941 . S
Zn279 O286 1.965 . S
Zn280 O278 1.950 . S
Zn280 O287 1.938 . S
Zn280 O288 1.906 . S
Zn280 O298 1.953 . S
Zn281 O278 1.945 . S
Zn281 O283 1.932 . S
Zn281 O290 1.977 . S
Zn281 O291 1.910 . S
O282 Zn279 1.933 . S
O282 C293 1.226 . S
O283 Zn281 1.932 . S
O283 C293 1.307 . S
O284 Zn277 1.919 . S
O284 C295 1.253 . S
O285 Zn279 1.941 . S
O285 C295 1.283 . S
O286 Zn279 1.965 . S
O286 C294 1.303 . S
O287 Zn280 1.938 . S
O287 C294 1.247 . S
O288 Zn280 1.906 . S
O288 C296 1.304 . S
O289 Zn277 1.924 . S
O289 C297 1.311 . S
O290 Zn281 1.977 . S
O290 C296 1.272 . S
O291 Zn281 1.910 . S
O291 C297 1.231 . S
C292 O276 1.225 . S
C292 O298 1.298 . S
C293 O282 1.226 . S
C293 O283 1.307 . S
C294 O286 1.303 . S
C294 O287 1.247 . S
C295 O284 1.253 . S
C295 O285 1.283 . S
C296 O288 1.304 . S
C296 O290 1.272 . S
C297 O289 1.311 . S
C297 O291 1.231 . S
O298 Zn280 1.953 . S
O298 C292 1.298 . S
O299 Zn300 1.953 . S
O299 C315 1.225 . S
Zn300 O299 1.953 . S
Zn300 O301 1.949 . S
Zn300 O307 1.919 . S
Zn300 O312 1.924 . S
O301 Zn300 1.949 . S
O301 Zn302 1.923 1_455 S
O301 Zn303 1.950 . S
O301 Zn304 1.945 . S
Zn302 O301 1.923 1_655 S
Zn302 O305 1.933 . S
Zn302 O308 1.941 . S
Zn302 O309 1.965 . S
Zn303 O301 1.950 . S
Zn303 O310 1.938 1_455 S
Zn303 O311 1.906 . S
Zn303 O321 1.953 . S
Zn304 O301 1.945 . S
Zn304 O306 1.932 1_455 S
Zn304 O313 1.977 . S
Zn304 O314 1.910 . S
O305 Zn302 1.933 . S
O305 C316 1.226 . S
O306 Zn304 1.932 1_655 S
O306 C316 1.307 . S
O307 Zn300 1.919 . S
O307 C318 1.253 1_455 S
O308 Zn302 1.941 . S
O308 C318 1.283 . S
O309 Zn302 1.965 . S
O309 C317 1.303 . S
O310 Zn303 1.938 1_655 S
O310 C317 1.247 . S
O311 Zn303 1.906 . S
O311 C319 1.304 . S
O312 Zn300 1.924 . S
O312 C320 1.311 . S
O313 Zn304 1.977 . S
O313 C319 1.272 . S
O314 Zn304 1.910 . S
O314 C320 1.231 . S
C315 O299 1.225 . S
C315 O321 1.298 . S
C316 O305 1.226 . S
C316 O306 1.307 . S
C317 O309 1.303 . S
C317 O310 1.247 . S
C318 O307 1.253 1_655 S
C318 O308 1.283 . S
C319 O311 1.304 . S
C319 O313 1.272 . S
C320 O312 1.311 . S
C320 O314 1.231 . S
O321 Zn303 1.953 . S
O321 C315 1.298 . S
O322 Zn323 1.953 . S
O322 C338 1.225 . S
Zn323 O322 1.953 . S
Zn323 O324 1.949 . S
Zn323 O330 1.919 . S
Zn323 O335 1.924 . S
O324 Zn323 1.949 . S
O324 Zn325 1.923 . S
O324 Zn326 1.950 . S
O324 Zn327 1.945 . S
Zn325 O324 1.923 . S
Zn325 O328 1.933 . S
Zn325 O331 1.941 . S
Zn325 O332 1.965 . S
Zn326 O324 1.950 . S
Zn326 O333 1.938 . S
Zn326 O334 1.906 . S
Zn326 O344 1.953 . S
Zn327 O324 1.945 . S
Zn327 O329 1.932 . S
Zn327 O336 1.977 . S
Zn327 O337 1.910 . S
O328 Zn325 1.933 . S
O328 C339 1.226 . S
O329 Zn327 1.932 . S
O329 C339 1.307 . S
O330 Zn323 1.919 . S
O330 C341 1.253 . S
O331 Zn325 1.941 . S
O331 C341 1.283 . S
O332 Zn325 1.965 . S
O332 C340 1.303 . S
O333 Zn326 1.938 . S
O333 C340 1.247 . S
O334 Zn326 1.906 . S
O334 C342 1.304 . S
O335 Zn323 1.924 . S
O335 C343 1.311 . S
O336 Zn327 1.977 . S
O336 C342 1.272 . S
O337 Zn327 1.910 . S
O337 C343 1.231 . S
C338 O322 1.225 . S
C338 O344 1.298 . S
C339 O328 1.226 . S
C339 O329 1.307 . S
C340 O332 1.303 . S
C340 O333 1.247 . S
C341 O330 1.253 . S
C341 O331 1.283 . S
C342 O334 1.304 . S
C342 O336 1.272 . S
C343 O335 1.311 . S
C343 O337 1.231 . S
O344 Zn326 1.953 . S
O344 C338 1.298 . S
O345 Zn346 1.953 . S
O345 C361 1.225 . S
Zn346 O345 1.953 . S
Zn346 O347 1.949 . S
Zn346 O353 1.919 . S
Zn346 O358 1.924 . S
O347 Zn346 1.949 . S
O347 Zn348 1.923 1_455 S
O347 Zn349 1.950 . S
O347 Zn350 1.945 . S
Zn348 O347 1.923 1_655 S
Zn348 O351 1.933 . S
Zn348 O354 1.941 . S
Zn348 O355 1.965 . S
Zn349 O347 1.950 . S
Zn349 O356 1.938 1_455 S
Zn349 O357 1.906 . S
Zn349 O367 1.953 . S
Zn350 O347 1.945 . S
Zn350 O352 1.932 1_455 S
Zn350 O359 1.977 . S
Zn350 O360 1.910 . S
O351 Zn348 1.933 . S
O351 C362 1.226 . S
O352 Zn350 1.932 1_655 S
O352 C362 1.307 . S
O353 Zn346 1.919 . S
O353 C364 1.253 1_455 S
O354 Zn348 1.941 . S
O354 C364 1.283 . S
O355 Zn348 1.965 . S
O355 C363 1.303 . S
O356 Zn349 1.938 1_655 S
O356 C363 1.247 . S
O357 Zn349 1.906 . S
O357 C365 1.304 . S
O358 Zn346 1.924 . S
O358 C366 1.311 . S
O359 Zn350 1.977 . S
O359 C365 1.272 . S
O360 Zn350 1.910 . S
O360 C366 1.231 . S
C361 O345 1.225 . S
C361 O367 1.298 . S
C362 O351 1.226 . S
C362 O352 1.307 . S
C363 O355 1.303 . S
C363 O356 1.247 . S
C364 O353 1.253 1_655 S
C364 O354 1.283 . S
C365 O357 1.304 . S
C365 O359 1.272 . S
C366 O358 1.311 . S
C366 O360 1.231 . S
O367 Zn349 1.953 . S
O367 C361 1.298 . S
C368 C369 1.349 . S
C368 C370 1.327 1_554 S
C368 H393 0.950 . S
C369 C368 1.349 . S
C369 C385 1.349 1_554 S
C370 C368 1.327 1_556 S
C370 C389 1.429 . S
C370 H394 0.950 . S
C371 C388 1.574 . S
C371 C390 1.368 . S
C371 H395 0.949 . S
H372 C376 0.949 . S
C373 C374 1.349 . S
C373 C375 1.327 . S
C373 H396 0.950 . S
C374 C373 1.349 . S
C374 C386 1.349 . S
C375 C373 1.327 . S
C375 C391 1.429 . S
C375 H397 0.950 . S
C376 H372 0.949 . S
C376 C384 1.574 . S
C376 C392 1.368 . S
H377 C385 0.950 . S
H378 C383 0.950 . S
H379 C384 0.949 . S
H380 C386 0.950 . S
H381 C387 0.950 . S
H382 C388 0.949 . S
C383 H378 0.950 . S
C383 C385 1.327 . S
C383 C389 1.429 . S
C384 C376 1.574 . S
C384 H379 0.949 . S
C384 C390 1.368 . S
C385 C369 1.349 1_556 S
C385 H377 0.950 . S
C385 C383 1.327 . S
C386 C374 1.349 . S
C386 H380 0.950 . S
C386 C387 1.327 . S
C387 H381 0.950 . S
C387 C386 1.327 . S
C387 C391 1.429 . S
C388 C371 1.574 . S
C388 H382 0.949 . S
C388 C392 1.368 . S
C389 C370 1.429 . S
C389 C383 1.429 . S
C389 C390 1.523 . S
C390 C371 1.368 . S
C390 C384 1.368 . S
C390 C389 1.523 . S
C391 C375 1.429 . S
C391 C387 1.429 . S
C391 C392 1.523 . S
C392 C376 1.368 . S
C392 C388 1.368 . S
C392 C391 1.523 . S
H393 C368 0.950 . S
H394 C370 0.950 . S
H395 C371 0.949 . S
H396 C373 0.950 . S
H397 C375 0.950 . S
C398 C399 1.349 . S
C398 C400 1.327 . S
C398 H423 0.950 . S
C399 C398 1.349 . S
C399 C415 1.349 . S
C400 C398 1.327 . S
C400 C419 1.429 . S
C400 H424 0.950 . S
C401 C418 1.574 . S
C401 C420 1.368 . S
C401 H425 0.949 . S
H402 C406 0.949 . S
C403 C404 1.349 . S
C403 C405 1.327 1_556 S
C403 H426 0.950 . S
C404 C403 1.349 . S
C404 C416 1.349 1_556 S
C405 C403 1.327 1_554 S
C405 C421 1.429 . S
C405 H427 0.950 . S
C406 H402 0.949 . S
C406 C414 1.574 . S
C406 C422 1.368 . S
H407 C415 0.950 . S
H408 C413 0.950 . S
H409 C414 0.949 . S
H410 C416 0.950 1_556 S
H411 C417 0.950 . S
H412 C418 0.949 . S
C413 H408 0.950 . S
C413 C415 1.327 . S
C413 C419 1.429 . S
C414 C406 1.574 . S
C414 H409 0.949 . S
C414 C420 1.368 . S
C415 C399 1.349 . S
C415 H407 0.950 . S
C415 C413 1.327 . S
C416 C404 1.349 1_554 S
C416 H410 0.950 1_554 S
C416 C417 1.327 . S
C417 H411 0.950 . S
C417 C416 1.327 . S
C417 C421 1.429 . S
C418 C401 1.574 . S
C418 H412 0.949 . S
C418 C422 1.368 . S
C419 C400 1.429 . S
C419 C413 1.429 . S
C419 C420 1.523 . S
C420 C401 1.368 . S
C420 C414 1.368 . S
C420 C419 1.523 . S
C421 C405 1.429 . S
C421 C417 1.429 . S
C421 C422 1.523 . S
C422 C406 1.368 . S
C422 C418 1.368 . S
C422 C421 1.523 . S
H423 C398 0.950 . S
H424 C400 0.950 . S
H425 C401 0.949 . S
H426 C403 0.950 . S
H427 C405 0.950 . S
C428 C429 1.349 . S
C428 C430 1.327 . S
C428 H453 0.950 . S
C429 C428 1.349 . S
C429 C445 1.349 . S
C430 C428 1.327 . S
C430 C449 1.429 . S
C430 H454 0.950 . S
C431 C448 1.574 . S
C431 C450 1.368 . S
C431 H455 0.949 . S
H432 C436 0.949 . S
C433 C434 1.349 . S
C433 C435 1.327 . S
C433 H456 0.950 . S
C434 C433 1.349 . S
C434 C446 1.349 . S
C435 C433 1.327 . S
C435 C451 1.429 . S
C435 H457 0.950 . S
C436 H432 0.949 . S
C436 C444 1.574 . S
C436 C452 1.368 . S
H437 C445 0.950 . S
H438 C443 0.950 . S
H439 C444 0.949 . S
H440 C446 0.950 . S
H441 C447 0.950 . S
H442 C448 0.949 . S
C443 H438 0.950 . S
C443 C445 1.327 . S
C443 C449 1.429 . S
C444 C436 1.574 . S
C444 H439 0.949 . S
C444 C450 1.368 . S
C445 C429 1.349 . S
C445 H437 0.950 . S
C445 C443 1.327 . S
C446 C434 1.349 . S
C446 H440 0.950 . S
C446 C447 1.327 . S
C447 H441 0.950 . S
C447 C446 1.327 . S
C447 C451 1.429 . S
C448 C431 1.574 . S
C448 H442 0.949 . S
C448 C452 1.368 . S
C449 C430 1.429 . S
C449 C443 1.429 . S
C449 C450 1.523 . S
C450 C431 1.368 . S
C450 C444 1.368 . S
C450 C449 1.523 . S
C451 C435 1.429 . S
C451 C447 1.429 . S
C451 C452 1.523 . S
C452 C436 1.368 . S
C452 C448 1.368 . S
C452 C451 1.523 . S
H453 C428 0.950 . S
H454 C430 0.950 . S
H455 C431 0.949 . S
H456 C433 0.950 . S
H457 C435 0.950 . S
C458 C459 1.349 . S
C458 C460 1.327 . S
C458 H483 0.950 . S
C459 C458 1.349 . S
C459 C475 1.349 . S
C460 C458 1.327 . S
C460 C479 1.429 . S
C460 H484 0.950 . S
C461 C478 1.574 . S
C461 C480 1.368 . S
C461 H485 0.949 . S
H462 C466 0.949 . S
C463 C464 1.349 . S
C463 C465 1.327 . S
C463 H486 0.950 . S
C464 C463 1.349 . S
C464 C476 1.349 . S
C465 C463 1.327 . S
C465 C481 1.429 . S
C465 H487 0.950 . S
C466 H462 0.949 . S
C466 C474 1.574 . S
C466 C482 1.368 . S
H467 C475 0.950 . S
H468 C473 0.950 . S
H469 C474 0.949 . S
H470 C476 0.950 . S
H471 C477 0.950 . S
H472 C478 0.949 . S
C473 H468 0.950 . S
C473 C475 1.327 . S
C473 C479 1.429 . S
C474 C466 1.574 . S
C474 H469 0.949 . S
C474 C480 1.368 . S
C475 C459 1.349 . S
C475 H467 0.950 . S
C475 C473 1.327 . S
C476 C464 1.349 . S
C476 H470 0.950 . S
C476 C477 1.327 . S
C477 H471 0.950 . S
C477 C476 1.327 . S
C477 C481 1.429 . S
C478 C461 1.574 . S
C478 H472 0.949 . S
C478 C482 1.368 . S
C479 C460 1.429 . S
C479 C473 1.429 . S
C479 C480 1.523 . S
C480 C461 1.368 . S
C480 C474 1.368 . S
C480 C479 1.523 . S
C481 C465 1.429 . S
C481 C477 1.429 . S
C481 C482 1.523 . S
C482 C466 1.368 . S
C482 C478 1.368 . S
C482 C481 1.523 . S
H483 C458 0.950 . S
H484 C460 0.950 . S
H485 C461 0.949 . S
H486 C463 0.950 . S
H487 C465 0.950 . S
C488 C489 1.349 . S
C488 C490 1.327 . S
C488 H513 0.950 . S
C489 C488 1.349 . S
C489 C505 1.349 . S
C490 C488 1.327 . S
C490 C509 1.429 . S
C490 H514 0.950 . S
C491 C508 1.574 . S
C491 C510 1.368 . S
C491 H515 0.949 . S
H492 C496 0.949 . S
C493 C494 1.349 . S
C493 C495 1.327 1_556 S
C493 H516 0.950 . S
C494 C493 1.349 . S
C494 C506 1.349 1_556 S
C495 C493 1.327 1_554 S
C495 C511 1.429 . S
C495 H517 0.950 . S
C496 H492 0.949 . S
C496 C504 1.574 . S
C496 C512 1.368 . S
H497 C505 0.950 . S
H498 C503 0.950 . S
H499 C504 0.949 . S
H500 C506 0.950 . S
H501 C507 0.950 . S
H502 C508 0.949 . S
C503 H498 0.950 . S
C503 C505 1.327 . S
C503 C509 1.429 . S
C504 C496 1.574 . S
C504 H499 0.949 . S
C504 C510 1.368 . S
C505 C489 1.349 . S
C505 H497 0.950 . S
C505 C503 1.327 . S
C506 C494 1.349 1_554 S
C506 H500 0.950 . S
C506 C507 1.327 . S
C507 H501 0.950 . S
C507 C506 1.327 . S
C507 C511 1.429 . S
C508 C491 1.574 . S
C508 H502 0.949 . S
C508 C512 1.368 . S
C509 C490 1.429 . S
C509 C503 1.429 . S
C509 C510 1.523 . S
C510 C491 1.368 . S
C510 C504 1.368 . S
C510 C509 1.523 . S
C511 C495 1.429 . S
C511 C507 1.429 . S
C511 C512 1.523 . S
C512 C496 1.368 . S
C512 C508 1.368 . S
C512 C511 1.523 . S
H513 C488 0.950 . S
H514 C490 0.950 . S
H515 C491 0.949 . S
H516 C493 0.950 . S
H517 C495 0.950 . S
C518 C519 1.349 . S
C518 C520 1.327 . S
C518 H543 0.950 . S
C519 C518 1.349 . S
C519 C535 1.349 . S
C520 C518 1.327 . S
C520 C539 1.429 . S
C520 H544 0.950 . S
C521 C538 1.574 . S
C521 C540 1.368 . S
C521 H545 0.949 . S
H522 C526 0.949 . S
C523 C524 1.349 1_556 S
C523 C525 1.327 . S
C523 H546 0.950 . S
C524 C523 1.349 1_554 S
C524 C536 1.349 . S
C525 C523 1.327 . S
C525 C541 1.429 . S
C525 H547 0.950 . S
C526 H522 0.949 . S
C526 C534 1.574 . S
C526 C542 1.368 . S
H527 C535 0.950 . S
H528 C533 0.950 . S
H529 C534 0.949 . S
H530 C536 0.950 . S
H531 C537 0.950 . S
H532 C538 0.949 . S
C533 H528 0.950 . S
C533 C535 1.327 . S
C533 C539 1.429 . S
C534 C526 1.574 . S
C534 H529 0.949 . S
C534 C540 1.368 . S
C535 C519 1.349 . S
C535 H527 0.950 . S
C535 C533 1.327 . S
C536 C524 1.349 . S
C536 H530 0.950 . S
C536 C537 1.327 1_554 S
C537 H531 0.950 . S
C537 C536 1.327 1_556 S
C537 C541 1.429 . S
C538 C521 1.574 . S
C538 H532 0.949 . S
C538 C542 1.368 . S
C539 C520 1.429 . S
C539 C533 1.429 . S
C539 C540 1.523 . S
C540 C521 1.368 . S
C540 C534 1.368 . S
C540 C539 1.523 . S
C541 C525 1.429 . S
C541 C537 1.429 . S
C541 C542 1.523 . S
C542 C526 1.368 . S
C542 C538 1.368 . S
C542 C541 1.523 . S
H543 C518 0.950 . S
H544 C520 0.950 . S
H545 C521 0.949 . S
H546 C523 0.950 . S
H547 C525 0.950 . S
C548 C549 1.349 . S
C548 C550 1.327 . S
C548 H573 0.950 . S
C549 C548 1.349 . S
C549 C565 1.349 . S
C550 C548 1.327 . S
C550 C569 1.429 . S
C550 H574 0.950 . S
C551 C568 1.574 . S
C551 C570 1.368 . S
C551 H575 0.949 . S
H552 C556 0.949 . S
C553 C554 1.349 . S
C553 C555 1.327 . S
C553 H576 0.950 . S
C554 C553 1.349 . S
C554 C566 1.349 . S
C555 C553 1.327 . S
C555 C571 1.429 . S
C555 H577 0.950 . S
C556 H552 0.949 . S
C556 C564 1.574 . S
C556 C572 1.368 . S
H557 C565 0.950 . S
H558 C563 0.950 . S
H559 C564 0.949 . S
H560 C566 0.950 . S
H561 C567 0.950 . S
H562 C568 0.949 . S
C563 H558 0.950 . S
C563 C565 1.327 . S
C563 C569 1.429 . S
C564 C556 1.574 . S
C564 H559 0.949 . S
C564 C570 1.368 . S
C565 C549 1.349 . S
C565 H557 0.950 . S
C565 C563 1.327 . S
C566 C554 1.349 . S
C566 H560 0.950 . S
C566 C567 1.327 . S
C567 H561 0.950 . S
C567 C566 1.327 . S
C567 C571 1.429 . S
C568 C551 1.574 . S
C568 H562 0.949 . S
C568 C572 1.368 . S
C569 C550 1.429 . S
C569 C563 1.429 . S
C569 C570 1.523 . S
C570 C551 1.368 . S
C570 C564 1.368 . S
C570 C569 1.523 . S
C571 C555 1.429 . S
C571 C567 1.429 . S
C571 C572 1.523 . S
C572 C556 1.368 . S
C572 C568 1.368 . S
C572 C571 1.523 . S
H573 C548 0.950 . S
H574 C550 0.950 . S
H575 C551 0.949 . S
H576 C553 0.950 . S
H577 C555 0.950 . S
C578 C579 1.349 . S
C578 C580 1.327 . S
C578 H603 0.950 . S
C579 C578 1.349 . S
C579 C595 1.349 . S
C580 C578 1.327 . S
C580 C599 1.429 . S
C580 H604 0.950 . S
C581 C598 1.574 . S
C581 C600 1.368 . S
C581 H605 0.949 . S
H582 C586 0.949 . S
C583 C584 1.349 . S
C583 C585 1.327 . S
C583 H606 0.950 . S
C584 C583 1.349 . S
C584 C596 1.349 . S
C585 C583 1.327 . S
C585 C601 1.429 . S
C585 H607 0.950 . S
C586 H582 0.949 . S
C586 C594 1.574 . S
C586 C602 1.368 . S
H587 C595 0.950 . S
H588 C593 0.950 . S
H589 C594 0.949 . S
H590 C596 0.950 . S
H591 C597 0.950 . S
H592 C598 0.949 . S
C593 H588 0.950 . S
C593 C595 1.327 . S
C593 C599 1.429 . S
C594 C586 1.574 . S
C594 H589 0.949 . S
C594 C600 1.368 . S
C595 C579 1.349 . S
C595 H587 0.950 . S
C595 C593 1.327 . S
C596 C584 1.349 . S
C596 H590 0.950 . S
C596 C597 1.327 . S
C597 H591 0.950 . S
C597 C596 1.327 . S
C597 C601 1.429 . S
C598 C581 1.574 . S
C598 H592 0.949 . S
C598 C602 1.368 . S
C599 C580 1.429 . S
C599 C593 1.429 . S
C599 C600 1.523 . S
C600 C581 1.368 . S
C600 C594 1.368 . S
C600 C599 1.523 . S
C601 C585 1.429 . S
C601 C597 1.429 . S
C601 C602 1.523 . S
C602 C586 1.368 . S
C602 C598 1.368 . S
C602 C601 1.523 . S
H603 C578 0.950 . S
H604 C580 0.950 . S
H605 C581 0.949 . S
H606 C583 0.950 . S
H607 C585 0.950 . S
C608 C609 1.349 . S
C608 C610 1.327 . S
C608 H633 0.950 . S
C609 C608 1.349 . S
C609 C625 1.349 . S
C610 C608 1.327 . S
C610 C629 1.429 . S
C610 H634 0.950 . S
C611 C628 1.574 . S
C611 C630 1.368 . S
C611 H635 0.949 . S
H612 C616 0.949 . S
C613 C614 1.349 . S
C613 C615 1.327 . S
C613 H636 0.950 . S
C614 C613 1.349 . S
C614 C626 1.349 . S
C615 C613 1.327 . S
C615 C631 1.429 . S
C615 H637 0.950 . S
C616 H612 0.949 . S
C616 C624 1.574 . S
C616 C632 1.368 . S
H617 C625 0.950 . S
H618 C623 0.950 . S
H619 C624 0.949 . S
H620 C626 0.950 . S
H621 C627 0.950 . S
H622 C628 0.949 . S
C623 H618 0.950 . S
C623 C625 1.327 . S
C623 C629 1.429 . S
C624 C616 1.574 . S
C624 H619 0.949 . S
C624 C630 1.368 . S
C625 C609 1.349 . S
C625 H617 0.950 . S
C625 C623 1.327 . S
C626 C614 1.349 . S
C626 H620 0.950 . S
C626 C627 1.327 . S
C627 H621 0.950 . S
C627 C626 1.327 . S
C627 C631 1.429 . S
C628 C611 1.574 . S
C628 H622 0.949 . S
C628 C632 1.368 . S
C629 C610 1.429 . S
C629 C623 1.429 . S
C629 C630 1.523 . S
C630 C611 1.368 . S
C630 C624 1.368 . S
C630 C629 1.523 . S
C631 C615 1.429 . S
C631 C627 1.429 . S
C631 C632 1.523 . S
C632 C616 1.368 . S
C632 C628 1.368 . S
C632 C631 1.523 . S
H633 C608 0.950 . S
H634 C610 0.950 . S
H635 C611 0.949 . S
H636 C613 0.950 . S
H637 C615 0.950 . S
C638 C639 1.349 . S
C638 C640 1.327 . S
C638 H663 0.950 . S
C639 C638 1.349 . S
C639 C655 1.349 . S
C640 C638 1.327 . S
C640 C659 1.429 . S
C640 H664 0.950 . S
C641 C658 1.574 . S
C641 C660 1.368 . S
C641 H665 0.949 . S
H642 C646 0.949 . S
C643 C644 1.349 . S
C643 C645 1.327 . S
C643 H666 0.950 . S
C644 C643 1.349 . S
C644 C656 1.349 . S
C645 C643 1.327 . S
C645 C661 1.429 . S
C645 H667 0.950 . S
C646 H642 0.949 . S
C646 C654 1.574 . S
C646 C662 1.368 . S
H647 C655 0.950 . S
H648 C653 0.950 . S
H649 C654 0.949 . S
H650 C656 0.950 . S
H651 C657 0.950 . S
H652 C658 0.949 . S
C653 H648 0.950 . S
C653 C655 1.327 . S
C653 C659 1.429 . S
C654 C646 1.574 . S
C654 H649 0.949 . S
C654 C660 1.368 . S
C655 C639 1.349 . S
C655 H647 0.950 . S
C655 C653 1.327 . S
C656 C644 1.349 . S
C656 H650 0.950 . S
C656 C657 1.327 . S
C657 H651 0.950 . S
C657 C656 1.327 . S
C657 C661 1.429 . S
C658 C641 1.574 . S
C658 H652 0.949 . S
C658 C662 1.368 . S
C659 C640 1.429 . S
C659 C653 1.429 . S
C659 C660 1.523 . S
C660 C641 1.368 . S
C660 C654 1.368 . S
C660 C659 1.523 . S
C661 C645 1.429 . S
C661 C657 1.429 . S
C661 C662 1.523 . S
C662 C646 1.368 . S
C662 C658 1.368 . S
C662 C661 1.523 . S
H663 C638 0.950 . S
H664 C640 0.950 . S
H665 C641 0.949 . S
H666 C643 0.950 . S
H667 C645 0.950 . S
C668 C669 1.349 . S
C668 C670 1.327 1_554 S
C668 H693 0.950 . S
C669 C668 1.349 . S
C669 C685 1.349 1_554 S
C670 C668 1.327 1_556 S
C670 C689 1.429 . S
C670 H694 0.950 . S
C671 C688 1.574 . S
C671 C690 1.368 . S
C671 H695 0.949 . S
H672 C676 0.949 . S
C673 C674 1.349 . S
C673 C675 1.327 . S
C673 H696 0.950 . S
C674 C673 1.349 . S
C674 C686 1.349 . S
C675 C673 1.327 . S
C675 C691 1.429 . S
C675 H697 0.950 . S
C676 H672 0.949 . S
C676 C684 1.574 . S
C676 C692 1.368 . S
H677 C685 0.950 . S
H678 C683 0.950 . S
H679 C684 0.949 . S
H680 C686 0.950 . S
H681 C687 0.950 . S
H682 C688 0.949 . S
C683 H678 0.950 . S
C683 C685 1.327 . S
C683 C689 1.429 . S
C684 C676 1.574 . S
C684 H679 0.949 . S
C684 C690 1.368 . S
C685 C669 1.349 1_556 S
C685 H677 0.950 . S
C685 C683 1.327 . S
C686 C674 1.349 . S
C686 H680 0.950 . S
C686 C687 1.327 . S
C687 H681 0.950 . S
C687 C686 1.327 . S
C687 C691 1.429 . S
C688 C671 1.574 . S
C688 H682 0.949 . S
C688 C692 1.368 . S
C689 C670 1.429 . S
C689 C683 1.429 . S
C689 C690 1.523 . S
C690 C671 1.368 . S
C690 C684 1.368 . S
C690 C689 1.523 . S
C691 C675 1.429 . S
C691 C687 1.429 . S
C691 C692 1.523 . S
C692 C676 1.368 . S
C692 C688 1.368 . S
C692 C691 1.523 . S
H693 C668 0.950 . S
H694 C670 0.950 . S
H695 C671 0.949 . S
H696 C673 0.950 . S
H697 C675 0.950 . S
C698 C699 1.349 . S
C698 C700 1.327 . S
C698 H723 0.950 . S
C699 C698 1.349 . S
C699 C715 1.349 . S
C700 C698 1.327 . S
C700 C719 1.429 . S
C700 H724 0.950 . S
C701 C718 1.574 . S
C701 C720 1.368 . S
C701 H725 0.949 . S
H702 C706 0.949 . S
C703 C704 1.349 . S
C703 C705 1.327 1_556 S
C703 H726 0.950 . S
C704 C703 1.349 . S
C704 C716 1.349 1_556 S
C705 C703 1.327 1_554 S
C705 C721 1.429 . S
C705 H727 0.950 . S
C706 H702 0.949 . S
C706 C714 1.574 . S
C706 C722 1.368 . S
H707 C715 0.950 . S
H708 C713 0.950 . S
H709 C714 0.949 . S
H710 C716 0.950 1_556 S
H711 C717 0.950 . S
H712 C718 0.949 . S
C713 H708 0.950 . S
C713 C715 1.327 . S
C713 C719 1.429 . S
C714 C706 1.574 . S
C714 H709 0.949 . S
C714 C720 1.368 . S
C715 C699 1.349 . S
C715 H707 0.950 . S
C715 C713 1.327 . S
C716 C704 1.349 1_554 S
C716 H710 0.950 1_554 S
C716 C717 1.327 . S
C717 H711 0.950 . S
C717 C716 1.327 . S
C717 C721 1.429 . S
C718 C701 1.574 . S
C718 H712 0.949 . S
C718 C722 1.368 . S
C719 C700 1.429 . S
C719 C713 1.429 . S
C719 C720 1.523 . S
C720 C701 1.368 . S
C720 C714 1.368 . S
C720 C719 1.523 . S
C721 C705 1.429 . S
C721 C717 1.429 . S
C721 C722 1.523 . S
C722 C706 1.368 . S
C722 C718 1.368 . S
C722 C721 1.523 . S
H723 C698 0.950 . S
H724 C700 0.950 . S
H725 C701 0.949 . S
H726 C703 0.950 . S
H727 C705 0.950 . S
C728 C729 1.349 . S
C728 C730 1.327 . S
C728 H753 0.950 . S
C729 C728 1.349 . S
C729 C745 1.349 . S
C730 C728 1.327 . S
C730 C749 1.429 . S
C730 H754 0.950 . S
C731 C748 1.574 . S
C731 C750 1.368 . S
C731 H755 0.949 . S
H732 C736 0.949 . S
C733 C734 1.349 . S
C733 C735 1.327 . S
C733 H756 0.950 . S
C734 C733 1.349 . S
C734 C746 1.349 . S
C735 C733 1.327 . S
C735 C751 1.429 . S
C735 H757 0.950 . S
C736 H732 0.949 . S
C736 C744 1.574 . S
C736 C752 1.368 . S
H737 C745 0.950 . S
H738 C743 0.950 . S
H739 C744 0.949 . S
H740 C746 0.950 . S
H741 C747 0.950 . S
H742 C748 0.949 . S
C743 H738 0.950 . S
C743 C745 1.327 . S
C743 C749 1.429 . S
C744 C736 1.574 . S
C744 H739 0.949 . S
C744 C750 1.368 . S
C745 C729 1.349 . S
C745 H737 0.950 . S
C745 C743 1.327 . S
C746 C734 1.349 . S
C746 H740 0.950 . S
C746 C747 1.327 . S
C747 H741 0.950 . S
C747 C746 1.327 . S
C747 C751 1.429 . S
C748 C731 1.574 . S
C748 H742 0.949 . S
C748 C752 1.368 . S
C749 C730 1.429 . S
C749 C743 1.429 . S
C749 C750 1.523 . S
C750 C731 1.368 . S
C750 C744 1.368 . S
C750 C749 1.523 . S
C751 C735 1.429 . S
C751 C747 1.429 . S
C751 C752 1.523 . S
C752 C736 1.368 . S
C752 C748 1.368 . S
C752 C751 1.523 . S
H753 C728 0.950 . S
H754 C730 0.950 . S
H755 C731 0.949 . S
H756 C733 0.950 . S
H757 C735 0.950 . S
C758 C759 1.349 . S
C758 C760 1.327 . S
C758 H783 0.950 . S
C759 C758 1.349 . S
C759 C775 1.349 . S
C760 C758 1.327 . S
C760 C779 1.429 . S
C760 H784 0.950 . S
C761 C778 1.574 . S
C761 C780 1.368 . S
C761 H785 0.949 . S
H762 C766 0.949 . S
C763 C764 1.349 . S
C763 C765 1.327 . S
C763 H786 0.950 . S
C764 C763 1.349 . S
C764 C776 1.349 . S
C765 C763 1.327 . S
C765 C781 1.429 . S
C765 H787 0.950 . S
C766 H762 0.949 . S
C766 C774 1.574 . S
C766 C782 1.368 . S
H767 C775 0.950 . S
H768 C773 0.950 . S
H769 C774 0.949 . S
H770 C776 0.950 . S
H771 C777 0.950 . S
H772 C778 0.949 . S
C773 H768 0.950 . S
C773 C775 1.327 . S
C773 C779 1.429 . S
C774 C766 1.574 . S
C774 H769 0.949 . S
C774 C780 1.368 . S
C775 C759 1.349 . S
C775 H767 0.950 . S
C775 C773 1.327 . S
C776 C764 1.349 . S
C776 H770 0.950 . S
C776 C777 1.327 . S
C777 H771 0.950 . S
C777 C776 1.327 . S
C777 C781 1.429 . S
C778 C761 1.574 . S
C778 H772 0.949 . S
C778 C782 1.368 . S
C779 C760 1.429 . S
C779 C773 1.429 . S
C779 C780 1.523 . S
C780 C761 1.368 . S
C780 C774 1.368 . S
C780 C779 1.523 . S
C781 C765 1.429 . S
C781 C777 1.429 . S
C781 C782 1.523 . S
C782 C766 1.368 . S
C782 C778 1.368 . S
C782 C781 1.523 . S
H783 C758 0.950 . S
H784 C760 0.950 . S
H785 C761 0.949 . S
H786 C763 0.950 . S
H787 C765 0.950 . S
C788 C789 1.349 . S
C788 C790 1.327 . S
C788 H813 0.950 . S
C789 C788 1.349 . S
C789 C805 1.349 . S
C790 C788 1.327 . S
C790 C809 1.429 . S
C790 H814 0.950 . S
C791 C808 1.574 . S
C791 C810 1.368 . S
C791 H815 0.949 . S
H792 C796 0.949 . S
C793 C794 1.349 1_554 S
C793 C795 1.327 . S
C793 H816 0.950 . S
C794 C793 1.349 1_556 S
C794 C806 1.349 . S
C795 C793 1.327 . S
C795 C811 1.429 . S
C795 H817 0.950 . S
C796 H792 0.949 . S
C796 C804 1.574 . S
C796 C812 1.368 . S
H797 C805 0.950 . S
H798 C803 0.950 . S
H799 C804 0.949 . S
H800 C806 0.950 . S
H801 C807 0.950 . S
H802 C808 0.949 . S
C803 H798 0.950 . S
C803 C805 1.327 . S
C803 C809 1.429 . S
C804 C796 1.574 . S
C804 H799 0.949 . S
C804 C810 1.368 . S
C805 C789 1.349 . S
C805 H797 0.950 . S
C805 C803 1.327 . S
C806 C794 1.349 . S
C806 H800 0.950 . S
C806 C807 1.327 1_556 S
C807 H801 0.950 . S
C807 C806 1.327 1_554 S
C807 C811 1.429 . S
C808 C791 1.574 . S
C808 H802 0.949 . S
C808 C812 1.368 . S
C809 C790 1.429 . S
C809 C803 1.429 . S
C809 C810 1.523 . S
C810 C791 1.368 . S
C810 C804 1.368 . S
C810 C809 1.523 . S
C811 C795 1.429 . S
C811 C807 1.429 . S
C811 C812 1.523 . S
C812 C796 1.368 . S
C812 C808 1.368 . S
C812 C811 1.523 . S
H813 C788 0.950 . S
H814 C790 0.950 . S
H815 C791 0.949 . S
H816 C793 0.950 . S
H817 C795 0.950 . S
C818 C819 1.349 . S
C818 C820 1.327 . S
C818 H843 0.950 . S
C819 C818 1.349 . S
C819 C835 1.349 . S
C820 C818 1.327 . S
C820 C839 1.429 . S
C820 H844 0.950 . S
C821 C838 1.574 . S
C821 C840 1.368 . S
C821 H845 0.949 . S
H822 C826 0.949 . S
C823 C824 1.349 . S
C823 C825 1.327 1_554 S
C823 H846 0.950 . S
C824 C823 1.349 . S
C824 C836 1.349 1_554 S
C825 C823 1.327 1_556 S
C825 C841 1.429 . S
C825 H847 0.950 . S
C826 H822 0.949 . S
C826 C834 1.574 . S
C826 C842 1.368 . S
H827 C835 0.950 . S
H828 C833 0.950 . S
H829 C834 0.949 . S
H830 C836 0.950 . S
H831 C837 0.950 . S
H832 C838 0.949 . S
C833 H828 0.950 . S
C833 C835 1.327 . S
C833 C839 1.429 . S
C834 C826 1.574 . S
C834 H829 0.949 . S
C834 C840 1.368 . S
C835 C819 1.349 . S
C835 H827 0.950 . S
C835 C833 1.327 . S
C836 C824 1.349 1_556 S
C836 H830 0.950 . S
C836 C837 1.327 . S
C837 H831 0.950 . S
C837 C836 1.327 . S
C837 C841 1.429 . S
C838 C821 1.574 . S
C838 H832 0.949 . S
C838 C842 1.368 . S
C839 C820 1.429 . S
C839 C833 1.429 . S
C839 C840 1.523 . S
C840 C821 1.368 . S
C840 C834 1.368 . S
C840 C839 1.523 . S
C841 C825 1.429 . S
C841 C837 1.429 . S
C841 C842 1.523 . S
C842 C826 1.368 . S
C842 C838 1.368 . S
C842 C841 1.523 . S
H843 C818 0.950 . S
H844 C820 0.950 . S
H845 C821 0.949 . S
H846 C823 0.950 . S
H847 C825 0.950 . S
C848 C849 1.349 . S
C848 C850 1.327 . S
C848 H873 0.950 . S
C849 C848 1.349 . S
C849 C865 1.349 1_655 S
C850 C848 1.327 . S
C850 C869 1.426 1_655 S
C850 H874 0.950 . S
C851 C868 1.574 . S
C851 C870 1.368 . S
C851 H875 0.949 . S
H852 C856 0.949 . S
C853 C854 1.349 . S
C853 C855 1.327 . S
C853 H876 0.950 . S
C854 C853 1.349 . S
C854 C866 1.349 . S
C855 C853 1.327 . S
C855 C871 1.429 . S
C855 H877 0.950 . S
C856 H852 0.949 . S
C856 C864 1.574 . S
C856 C872 1.368 1_655 S
H857 C865 0.950 . S
H858 C863 0.950 . S
H859 C864 0.949 . S
H860 C866 0.950 . S
H861 C867 0.950 1_655 S
H862 C868 0.949 . S
C863 H858 0.950 . S
C863 C865 1.327 . S
C863 C869 1.430 . S
C864 C856 1.574 . S
C864 H859 0.949 . S
C864 C870 1.368 1_655 S
C865 C849 1.349 1_455 S
C865 H857 0.950 . S
C865 C863 1.327 . S
C866 C854 1.349 . S
C866 H860 0.950 . S
C866 C867 1.327 . S
C867 H861 0.950 1_455 S
C867 C866 1.327 . S
C867 C871 1.429 . S
C868 C851 1.574 . S
C868 H862 0.949 . S
C868 C872 1.368 . S
C869 C850 1.426 1_455 S
C869 C863 1.430 . S
C869 C870 1.524 . S
C870 C851 1.368 . S
C870 C864 1.368 1_455 S
C870 C869 1.524 . S
C871 C855 1.429 . S
C871 C867 1.429 . S
C871 C872 1.523 . S
C872 C856 1.368 1_455 S
C872 C868 1.368 . S
C872 C871 1.523 . S
H873 C848 0.950 . S
H874 C850 0.950 . S
H875 C851 0.949 . S
H876 C853 0.950 . S
H877 C855 0.950 . S
C878 C879 1.349 . S
C878 C880 1.327 . S
C878 H903 0.950 . S
C879 C878 1.349 . S
C879 C895 1.349 . S
C880 C878 1.327 . S
C880 C899 1.429 . S
C880 H904 0.950 . S
C881 C898 1.574 1_655 S
C881 C900 1.368 . S
C881 H905 0.949 . S
H882 C886 0.949 . S
C883 C884 1.349 . S
C883 C885 1.327 . S
C883 H906 0.950 . S
C884 C883 1.349 . S
C884 C896 1.349 . S
C885 C883 1.327 . S
C885 C901 1.429 . S
C885 H907 0.950 . S
C886 H882 0.949 . S
C886 C894 1.574 1_455 S
C886 C902 1.368 . S
H887 C895 0.950 . S
H888 C893 0.950 . S
H889 C894 0.949 . S
H890 C896 0.950 . S
H891 C897 0.950 . S
H892 C898 0.949 . S
C893 H888 0.950 . S
C893 C895 1.327 . S
C893 C899 1.429 . S
C894 C886 1.574 1_655 S
C894 H889 0.949 . S
C894 C900 1.368 . S
C895 C879 1.349 . S
C895 H887 0.950 . S
C895 C893 1.327 . S
C896 C884 1.349 . S
C896 H890 0.950 . S
C896 C897 1.327 . S
C897 H891 0.950 . S
C897 C896 1.327 . S
C897 C901 1.429 . S
C898 C881 1.574 1_455 S
C898 H892 0.949 . S
C898 C902 1.368 . S
C899 C880 1.429 . S
C899 C893 1.429 . S
C899 C900 1.523 . S
C900 C881 1.368 . S
C900 C894 1.368 . S
C900 C899 1.523 . S
C901 C885 1.429 . S
C901 C897 1.429 . S
C901 C902 1.523 . S
C902 C886 1.368 . S
C902 C898 1.368 . S
C902 C901 1.523 . S
H903 C878 0.950 . S
H904 C880 0.950 . S
H905 C881 0.949 . S
H906 C883 0.950 . S
H907 C885 0.950 . S
C908 C909 1.349 . S
C908 C910 1.327 . S
C908 H933 0.950 . S
C909 C908 1.349 . S
C909 C925 1.349 . S
C910 C908 1.327 . S
C910 C929 1.429 . S
C910 H934 0.950 . S
C911 C928 1.574 . S
C911 C930 1.368 . S
C911 H935 0.949 . S
H912 C916 0.949 . S
C913 C914 1.349 . S
C913 C915 1.327 . S
C913 H936 0.950 . S
C914 C913 1.349 . S
C914 C926 1.349 . S
C915 C913 1.327 . S
C915 C931 1.429 . S
C915 H937 0.950 . S
C916 H912 0.949 . S
C916 C924 1.574 . S
C916 C932 1.368 . S
H917 C925 0.950 . S
H918 C923 0.950 . S
H919 C924 0.949 . S
H920 C926 0.950 . S
H921 C927 0.950 . S
H922 C928 0.949 . S
C923 H918 0.950 . S
C923 C925 1.327 . S
C923 C929 1.429 . S
C924 C916 1.574 . S
C924 H919 0.949 . S
C924 C930 1.368 . S
C925 C909 1.349 . S
C925 H917 0.950 . S
C925 C923 1.327 . S
C926 C914 1.349 . S
C926 H920 0.950 . S
C926 C927 1.327 . S
C927 H921 0.950 . S
C927 C926 1.327 . S
C927 C931 1.429 . S
C928 C911 1.574 . S
C928 H922 0.949 . S
C928 C932 1.368 . S
C929 C910 1.429 . S
C929 C923 1.429 . S
C929 C930 1.523 . S
C930 C911 1.368 . S
C930 C924 1.368 . S
C930 C929 1.523 . S
C931 C915 1.429 . S
C931 C927 1.429 . S
C931 C932 1.523 . S
C932 C916 1.368 . S
C932 C928 1.368 . S
C932 C931 1.523 . S
H933 C908 0.950 . S
H934 C910 0.950 . S
H935 C911 0.949 . S
H936 C913 0.950 . S
H937 C915 0.950 . S
C938 C939 1.349 . S
C938 C940 1.327 . S
C938 H963 0.950 . S
C939 C938 1.349 . S
C939 C955 1.349 . S
C940 C938 1.327 . S
C940 C959 1.429 . S
C940 H964 0.950 . S
C941 C958 1.574 . S
C941 C960 1.368 . S
C941 H965 0.949 . S
H942 C946 0.949 . S
C943 C944 1.349 . S
C943 C945 1.327 . S
C943 H966 0.950 . S
C944 C943 1.349 . S
C944 C956 1.349 . S
C945 C943 1.327 . S
C945 C961 1.429 . S
C945 H967 0.950 . S
C946 H942 0.949 . S
C946 C954 1.574 . S
C946 C962 1.368 . S
H947 C955 0.950 . S
H948 C953 0.950 . S
H949 C954 0.949 . S
H950 C956 0.950 . S
H951 C957 0.950 . S
H952 C958 0.949 . S
C953 H948 0.950 . S
C953 C955 1.327 . S
C953 C959 1.429 . S
C954 C946 1.574 . S
C954 H949 0.949 . S
C954 C960 1.368 . S
C955 C939 1.349 . S
C955 H947 0.950 . S
C955 C953 1.327 . S
C956 C944 1.349 . S
C956 H950 0.950 . S
C956 C957 1.327 . S
C957 H951 0.950 . S
C957 C956 1.327 . S
C957 C961 1.429 . S
C958 C941 1.574 . S
C958 H952 0.949 . S
C958 C962 1.368 . S
C959 C940 1.429 . S
C959 C953 1.429 . S
C959 C960 1.523 . S
C960 C941 1.368 . S
C960 C954 1.368 . S
C960 C959 1.523 . S
C961 C945 1.429 . S
C961 C957 1.429 . S
C961 C962 1.523 . S
C962 C946 1.368 . S
C962 C958 1.368 . S
C962 C961 1.523 . S
H963 C938 0.950 . S
H964 C940 0.950 . S
H965 C941 0.949 . S
H966 C943 0.950 . S
H967 C945 0.950 . S
C968 C969 1.349 . S
C968 C970 1.327 . S
C968 H993 0.950 . S
C969 C968 1.349 . S
C969 C985 1.349 . S
C970 C968 1.327 . S
C970 C989 1.429 . S
C970 H994 0.950 1_455 S
C971 C988 1.574 . S
C971 C990 1.368 . S
C971 H995 0.949 . S
H972 C976 0.949 . S
C973 C974 1.349 1_455 S
C973 C975 1.327 . S
C973 H996 0.950 . S
C974 C973 1.349 1_655 S
C974 C986 1.349 . S
C975 C973 1.327 . S
C975 C991 1.430 . S
C975 H997 0.950 . S
C976 H972 0.949 . S
C976 C984 1.574 . S
C976 C992 1.368 1_655 S
H977 C985 0.950 . S
H978 C983 0.950 . S
H979 C984 0.949 . S
H980 C986 0.950 . S
H981 C987 0.950 . S
H982 C988 0.949 . S
C983 H978 0.950 . S
C983 C985 1.327 . S
C983 C989 1.429 . S
C984 C976 1.574 . S
C984 H979 0.949 . S
C984 C990 1.368 1_655 S
C985 C969 1.349 . S
C985 H977 0.950 . S
C985 C983 1.327 . S
C986 C974 1.349 . S
C986 H980 0.950 . S
C986 C987 1.327 . S
C987 H981 0.950 . S
C987 C986 1.327 . S
C987 C991 1.426 1_655 S
C988 C971 1.574 . S
C988 H982 0.949 . S
C988 C992 1.368 . S
C989 C970 1.429 . S
C989 C983 1.429 . S
C989 C990 1.523 . S
C990 C971 1.368 . S
C990 C984 1.368 1_455 S
C990 C989 1.523 . S
C991 C975 1.430 . S
C991 C987 1.426 1_455 S
C991 C992 1.524 . S
C992 C976 1.368 1_455 S
C992 C988 1.368 . S
C992 C991 1.524 . S
H993 C968 0.950 . S
H994 C970 0.950 1_655 S
H995 C971 0.949 . S
H996 C973 0.950 . S
H997 C975 0.950 . S
C998 C999 1.349 . S
C998 C1000 1.327 . S
C998 H1023 0.950 . S
C999 C998 1.349 . S
C999 C1015 1.349 . S
C1000 C998 1.327 . S
C1000 C1019 1.429 . S
C1000 H1024 0.950 . S
C1001 C1018 1.574 . S
C1001 C1020 1.368 . S
C1001 H1025 0.949 . S
H1002 C1006 0.949 . S
C1003 C1004 1.349 . S
C1003 C1005 1.327 . S
C1003 H1026 0.950 . S
C1004 C1003 1.349 . S
C1004 C1016 1.349 . S
C1005 C1003 1.327 . S
C1005 C1021 1.429 . S
C1005 H1027 0.950 . S
C1006 H1002 0.949 . S
C1006 C1014 1.574 . S
C1006 C1022 1.368 . S
H1007 C1015 0.950 . S
H1008 C1013 0.950 . S
H1009 C1014 0.949 . S
H1010 C1016 0.950 . S
H1011 C1017 0.950 . S
H1012 C1018 0.949 . S
C1013 H1008 0.950 . S
C1013 C1015 1.327 . S
C1013 C1019 1.429 . S
C1014 C1006 1.574 . S
C1014 H1009 0.949 . S
C1014 C1020 1.368 . S
C1015 C999 1.349 . S
C1015 H1007 0.950 . S
C1015 C1013 1.327 . S
C1016 C1004 1.349 . S
C1016 H1010 0.950 . S
C1016 C1017 1.327 . S
C1017 H1011 0.950 . S
C1017 C1016 1.327 . S
C1017 C1021 1.429 . S
C1018 C1001 1.574 . S
C1018 H1012 0.949 . S
C1018 C1022 1.368 . S
C1019 C1000 1.429 . S
C1019 C1013 1.429 . S
C1019 C1020 1.523 . S
C1020 C1001 1.368 . S
C1020 C1014 1.368 . S
C1020 C1019 1.523 . S
C1021 C1005 1.429 . S
C1021 C1017 1.429 . S
C1021 C1022 1.523 . S
C1022 C1006 1.368 . S
C1022 C1018 1.368 . S
C1022 C1021 1.523 . S
H1023 C998 0.950 . S
H1024 C1000 0.950 . S
H1025 C1001 0.949 . S
H1026 C1003 0.950 . S
H1027 C1005 0.950 . S
C1028 C1029 1.349 . S
C1028 C1030 1.327 . S
C1028 H1053 0.950 . S
C1029 C1028 1.349 . S
C1029 C1045 1.349 . S
C1030 C1028 1.327 . S
C1030 C1049 1.429 . S
C1030 H1054 0.950 . S
C1031 C1048 1.574 . S
C1031 C1050 1.368 . S
C1031 H1055 0.949 . S
H1032 C1036 0.949 . S
C1033 C1034 1.349 . S
C1033 C1035 1.327 . S
C1033 H1056 0.950 . S
C1034 C1033 1.349 . S
C1034 C1046 1.349 . S
C1035 C1033 1.327 . S
C1035 C1051 1.429 . S
C1035 H1057 0.950 . S
C1036 H1032 0.949 . S
C1036 C1044 1.574 . S
C1036 C1052 1.368 . S
H1037 C1045 0.950 . S
H1038 C1043 0.950 . S
H1039 C1044 0.949 . S
H1040 C1046 0.950 . S
H1041 C1047 0.950 . S
H1042 C1048 0.949 . S
C1043 H1038 0.950 . S
C1043 C1045 1.327 . S
C1043 C1049 1.429 . S
C1044 C1036 1.574 . S
C1044 H1039 0.949 . S
C1044 C1050 1.368 . S
C1045 C1029 1.349 . S
C1045 H1037 0.950 . S
C1045 C1043 1.327 . S
C1046 C1034 1.349 . S
C1046 H1040 0.950 . S
C1046 C1047 1.327 . S
C1047 H1041 0.950 . S
C1047 C1046 1.327 . S
C1047 C1051 1.429 . S
C1048 C1031 1.574 . S
C1048 H1042 0.949 . S
C1048 C1052 1.368 . S
C1049 C1030 1.429 . S
C1049 C1043 1.429 . S
C1049 C1050 1.523 . S
C1050 C1031 1.368 . S
C1050 C1044 1.368 . S
C1050 C1049 1.523 . S
C1051 C1035 1.429 . S
C1051 C1047 1.429 . S
C1051 C1052 1.523 . S
C1052 C1036 1.368 . S
C1052 C1048 1.368 . S
C1052 C1051 1.523 . S
H1053 C1028 0.950 . S
H1054 C1030 0.950 . S
H1055 C1031 0.949 . S
H1056 C1033 0.950 . S
H1057 C1035 0.950 . S
C1058 C1059 1.349 . S
C1058 C1060 1.327 . S
C1058 H1083 0.950 . S
C1059 C1058 1.349 . S
C1059 C1075 1.349 . S
C1060 C1058 1.327 . S
C1060 C1079 1.429 . S
C1060 H1084 0.950 . S
C1061 C1078 1.574 1_455 S
C1061 C1080 1.368 . S
C1061 H1085 0.949 . S
H1062 C1066 0.949 . S
C1063 C1064 1.349 . S
C1063 C1065 1.327 . S
C1063 H1086 0.950 . S
C1064 C1063 1.349 . S
C1064 C1076 1.349 . S
C1065 C1063 1.327 . S
C1065 C1081 1.429 . S
C1065 H1087 0.950 . S
C1066 H1062 0.949 . S
C1066 C1074 1.574 1_655 S
C1066 C1082 1.368 . S
H1067 C1075 0.950 . S
H1068 C1073 0.950 . S
H1069 C1074 0.949 . S
H1070 C1076 0.950 . S
H1071 C1077 0.950 . S
H1072 C1078 0.949 . S
C1073 H1068 0.950 . S
C1073 C1075 1.327 . S
C1073 C1079 1.429 . S
C1074 C1066 1.574 1_455 S
C1074 H1069 0.949 . S
C1074 C1080 1.368 . S
C1075 C1059 1.349 . S
C1075 H1067 0.950 . S
C1075 C1073 1.327 . S
C1076 C1064 1.349 . S
C1076 H1070 0.950 . S
C1076 C1077 1.327 . S
C1077 H1071 0.950 . S
C1077 C1076 1.327 . S
C1077 C1081 1.429 . S
C1078 C1061 1.574 1_655 S
C1078 H1072 0.949 . S
C1078 C1082 1.368 . S
C1079 C1060 1.429 . S
C1079 C1073 1.429 . S
C1079 C1080 1.523 . S
C1080 C1061 1.368 . S
C1080 C1074 1.368 . S
C1080 C1079 1.523 . S
C1081 C1065 1.429 . S
C1081 C1077 1.429 . S
C1081 C1082 1.523 . S
C1082 C1066 1.368 . S
C1082 C1078 1.368 . S
C1082 C1081 1.523 . S
H1083 C1058 0.950 . S
H1084 C1060 0.950 . S
H1085 C1061 0.949 . S
H1086 C1063 0.950 . S
H1087 C1065 0.950 . S
C1088 C1089 1.349 . S
C1088 C1090 1.327 . S
C1088 H1113 0.950 . S
C1089 C1088 1.349 . S
C1089 C1105 1.349 . S
C1090 C1088 1.327 . S
C1090 C1109 1.429 . S
C1090 H1114 0.950 . S
C1091 C1108 1.574 1_545 S
C1091 C1110 1.368 . S
C1091 H1115 0.949 1_455 S
H1092 C1096 0.949 . S
C1093 C1094 1.349 . S
C1093 C1095 1.327 . S
C1093 H1116 0.950 1_455 S
C1094 C1093 1.349 . S
C1094 C1106 1.349 . S
C1095 C1093 1.327 . S
C1095 C1111 1.429 . S
C1095 H1117 0.950 1_455 S
C1096 H1092 0.949 . S
C1096 C1104 1.574 1_565 S
C1096 C1112 1.368 . S
H1097 C1105 0.950 1_655 S
H1098 C1103 0.950 1_655 S
H1099 C1104 0.949 . S
H1100 C1106 0.950 . S
H1101 C1107 0.950 . S
H1102 C1108 0.949 1_655 S
C1103 H1098 0.950 1_455 S
C1103 C1105 1.327 . S
C1103 C1109 1.429 . S
C1104 C1096 1.574 1_545 S
C1104 H1099 0.949 . S
C1104 C1110 1.368 1_556 S
C1105 C1089 1.349 . S
C1105 H1097 0.950 1_455 S
C1105 C1103 1.327 . S
C1106 C1094 1.349 . S
C1106 H1100 0.950 . S
C1106 C1107 1.327 . S
C1107 H1101 0.950 . S
C1107 C1106 1.327 . S
C1107 C1111 1.429 . S
C1108 C1091 1.574 1_565 S
C1108 H1102 0.949 1_455 S
C1108 C1112 1.368 1_554 S
C1109 C1090 1.429 . S
C1109 C1103 1.429 . S
C1109 C1110 1.523 . S
C1110 C1091 1.368 . S
C1110 C1104 1.368 1_554 S
C1110 C1109 1.523 . S
C1111 C1095 1.429 . S
C1111 C1107 1.429 . S
C1111 C1112 1.523 . S
C1112 C1096 1.368 . S
C1112 C1108 1.368 1_556 S
C1112 C1111 1.523 . S
H1113 C1088 0.950 . S
H1114 C1090 0.950 . S
H1115 C1091 0.949 1_655 S
H1116 C1093 0.950 1_655 S
H1117 C1095 0.950 1_655 S
C1118 C1119 1.349 . S
C1118 C1120 1.327 . S
C1118 H1143 0.950 . S
C1119 C1118 1.349 . S
C1119 C1135 1.349 . S
C1120 C1118 1.327 . S
C1120 C1139 1.429 . S
C1120 H1144 0.950 . S
C1121 C1138 1.574 . S
C1121 C1140 1.368 . S
C1121 H1145 0.949 . S
H1122 C1126 0.949 . S
C1123 C1124 1.349 . S
C1123 C1125 1.327 . S
C1123 H1146 0.950 . S
C1124 C1123 1.349 . S
C1124 C1136 1.349 . S
C1125 C1123 1.327 . S
C1125 C1141 1.429 . S
C1125 H1147 0.950 . S
C1126 H1122 0.949 . S
C1126 C1134 1.574 . S
C1126 C1142 1.368 . S
H1127 C1135 0.950 . S
H1128 C1133 0.950 . S
H1129 C1134 0.949 . S
H1130 C1136 0.950 . S
H1131 C1137 0.950 . S
H1132 C1138 0.949 . S
C1133 H1128 0.950 . S
C1133 C1135 1.327 . S
C1133 C1139 1.429 . S
C1134 C1126 1.574 . S
C1134 H1129 0.949 . S
C1134 C1140 1.368 . S
C1135 C1119 1.349 . S
C1135 H1127 0.950 . S
C1135 C1133 1.327 . S
C1136 C1124 1.349 . S
C1136 H1130 0.950 . S
C1136 C1137 1.327 . S
C1137 H1131 0.950 . S
C1137 C1136 1.327 . S
C1137 C1141 1.429 . S
C1138 C1121 1.574 . S
C1138 H1132 0.949 . S
C1138 C1142 1.368 . S
C1139 C1120 1.429 . S
C1139 C1133 1.429 . S
C1139 C1140 1.523 . S
C1140 C1121 1.368 . S
C1140 C1134 1.368 . S
C1140 C1139 1.523 . S
C1141 C1125 1.429 . S
C1141 C1137 1.429 . S
C1141 C1142 1.523 . S
C1142 C1126 1.368 . S
C1142 C1138 1.368 . S
C1142 C1141 1.523 . S
H1143 C1118 0.950 . S
H1144 C1120 0.950 . S
H1145 C1121 0.949 . S
H1146 C1123 0.950 . S
H1147 C1125 0.950 . S
C1148 C1149 1.349 . S
C1148 C1150 1.327 . S
C1148 H1173 0.950 . S
C1149 C1148 1.349 . S
C1149 C1165 1.349 . S
C1150 C1148 1.327 . S
C1150 C1169 1.429 . S
C1150 H1174 0.950 . S
C1151 C1168 1.574 1_545 S
C1151 C1170 1.368 . S
C1151 H1175 0.949 . S
H1152 C1156 0.949 . S
C1153 C1154 1.349 . S
C1153 C1155 1.327 . S
C1153 H1176 0.950 . S
C1154 C1153 1.349 . S
C1154 C1166 1.349 . S
C1155 C1153 1.327 . S
C1155 C1171 1.429 . S
C1155 H1177 0.950 . S
C1156 H1152 0.949 . S
C1156 C1164 1.574 1_565 S
C1156 C1172 1.368 . S
H1157 C1165 0.950 . S
H1158 C1163 0.950 . S
H1159 C1164 0.949 . S
H1160 C1166 0.950 . S
H1161 C1167 0.950 . S
H1162 C1168 0.949 . S
C1163 H1158 0.950 . S
C1163 C1165 1.327 . S
C1163 C1169 1.429 . S
C1164 C1156 1.574 1_545 S
C1164 H1159 0.949 . S
C1164 C1170 1.368 . S
C1165 C1149 1.349 . S
C1165 H1157 0.950 . S
C1165 C1163 1.327 . S
C1166 C1154 1.349 . S
C1166 H1160 0.950 . S
C1166 C1167 1.327 . S
C1167 H1161 0.950 . S
C1167 C1166 1.327 . S
C1167 C1171 1.429 . S
C1168 C1151 1.574 1_565 S
C1168 H1162 0.949 . S
C1168 C1172 1.368 . S
C1169 C1150 1.429 . S
C1169 C1163 1.429 . S
C1169 C1170 1.523 . S
C1170 C1151 1.368 . S
C1170 C1164 1.368 . S
C1170 C1169 1.523 . S
C1171 C1155 1.429 . S
C1171 C1167 1.429 . S
C1171 C1172 1.523 . S
C1172 C1156 1.368 . S
C1172 C1168 1.368 . S
C1172 C1171 1.523 . S
H1173 C1148 0.950 . S
H1174 C1150 0.950 . S
H1175 C1151 0.949 . S
H1176 C1153 0.950 . S
H1177 C1155 0.950 . S
C1178 C1179 1.349 . S
C1178 C1180 1.327 . S
C1178 H1203 0.950 . S
C1179 C1178 1.349 . S
C1179 C1195 1.349 . S
C1180 C1178 1.327 . S
C1180 C1199 1.429 . S
C1180 H1204 0.950 . S
C1181 C1198 1.574 . S
C1181 C1200 1.368 . S
C1181 H1205 0.949 . S
H1182 C1186 0.949 . S
C1183 C1184 1.349 . S
C1183 C1185 1.327 . S
C1183 H1206 0.950 . S
C1184 C1183 1.349 . S
C1184 C1196 1.349 . S
C1185 C1183 1.327 . S
C1185 C1201 1.429 . S
C1185 H1207 0.950 . S
C1186 H1182 0.949 . S
C1186 C1194 1.574 . S
C1186 C1202 1.368 . S
H1187 C1195 0.950 . S
H1188 C1193 0.950 . S
H1189 C1194 0.949 . S
H1190 C1196 0.950 . S
H1191 C1197 0.950 . S
H1192 C1198 0.949 . S
C1193 H1188 0.950 . S
C1193 C1195 1.327 . S
C1193 C1199 1.429 . S
C1194 C1186 1.574 . S
C1194 H1189 0.949 . S
C1194 C1200 1.368 . S
C1195 C1179 1.349 . S
C1195 H1187 0.950 . S
C1195 C1193 1.327 . S
C1196 C1184 1.349 . S
C1196 H1190 0.950 . S
C1196 C1197 1.327 . S
C1197 H1191 0.950 . S
C1197 C1196 1.327 . S
C1197 C1201 1.429 . S
C1198 C1181 1.574 . S
C1198 H1192 0.949 . S
C1198 C1202 1.368 . S
C1199 C1180 1.429 . S
C1199 C1193 1.429 . S
C1199 C1200 1.523 . S
C1200 C1181 1.368 . S
C1200 C1194 1.368 . S
C1200 C1199 1.523 . S
C1201 C1185 1.429 . S
C1201 C1197 1.429 . S
C1201 C1202 1.523 . S
C1202 C1186 1.368 . S
C1202 C1198 1.368 . S
C1202 C1201 1.523 . S
H1203 C1178 0.950 . S
H1204 C1180 0.950 . S
H1205 C1181 0.949 . S
H1206 C1183 0.950 . S
H1207 C1185 0.950 . S
C1208 C1209 1.349 . S
C1208 C1210 1.327 . S
C1208 H1233 0.950 . S
C1209 C1208 1.349 . S
C1209 C1225 1.349 . S
C1210 C1208 1.327 . S
C1210 C1229 1.429 . S
C1210 H1234 0.950 . S
C1211 C1228 1.574 . S
C1211 C1230 1.368 . S
C1211 H1235 0.949 . S
H1212 C1216 0.949 . S
C1213 C1214 1.349 . S
C1213 C1215 1.327 . S
C1213 H1236 0.950 . S
C1214 C1213 1.349 . S
C1214 C1226 1.349 . S
C1215 C1213 1.327 . S
C1215 C1231 1.429 . S
C1215 H1237 0.950 . S
C1216 H1212 0.949 . S
C1216 C1224 1.574 . S
C1216 C1232 1.368 . S
H1217 C1225 0.950 . S
H1218 C1223 0.950 . S
H1219 C1224 0.949 . S
H1220 C1226 0.950 . S
H1221 C1227 0.950 . S
H1222 C1228 0.949 . S
C1223 H1218 0.950 . S
C1223 C1225 1.327 . S
C1223 C1229 1.429 . S
C1224 C1216 1.574 . S
C1224 H1219 0.949 . S
C1224 C1230 1.368 . S
C1225 C1209 1.349 . S
C1225 H1217 0.950 . S
C1225 C1223 1.327 . S
C1226 C1214 1.349 . S
C1226 H1220 0.950 . S
C1226 C1227 1.327 . S
C1227 H1221 0.950 . S
C1227 C1226 1.327 . S
C1227 C1231 1.429 . S
C1228 C1211 1.574 . S
C1228 H1222 0.949 . S
C1228 C1232 1.368 . S
C1229 C1210 1.429 . S
C1229 C1223 1.429 . S
C1229 C1230 1.523 . S
C1230 C1211 1.368 . S
C1230 C1224 1.368 . S
C1230 C1229 1.523 . S
C1231 C1215 1.429 . S
C1231 C1227 1.429 . S
C1231 C1232 1.523 . S
C1232 C1216 1.368 . S
C1232 C1228 1.368 . S
C1232 C1231 1.523 . S
H1233 C1208 0.950 . S
H1234 C1210 0.950 . S
H1235 C1211 0.949 . S
H1236 C1213 0.950 . S
H1237 C1215 0.950 . S
C1238 C1239 1.349 . S
C1238 C1240 1.327 . S
C1238 H1263 0.950 . S
C1239 C1238 1.349 . S
C1239 C1255 1.349 . S
C1240 C1238 1.327 . S
C1240 C1259 1.429 . S
C1240 H1264 0.950 . S
C1241 C1258 1.574 . S
C1241 C1260 1.368 . S
C1241 H1265 0.949 . S
H1242 C1246 0.949 . S
C1243 C1244 1.349 . S
C1243 C1245 1.327 . S
C1243 H1266 0.950 . S
C1244 C1243 1.349 . S
C1244 C1256 1.349 . S
C1245 C1243 1.327 . S
C1245 C1261 1.429 . S
C1245 H1267 0.950 . S
C1246 H1242 0.949 . S
C1246 C1254 1.574 . S
C1246 C1262 1.368 . S
H1247 C1255 0.950 . S
H1248 C1253 0.950 . S
H1249 C1254 0.949 . S
H1250 C1256 0.950 . S
H1251 C1257 0.950 . S
H1252 C1258 0.949 . S
C1253 H1248 0.950 . S
C1253 C1255 1.327 . S
C1253 C1259 1.429 . S
C1254 C1246 1.574 . S
C1254 H1249 0.949 . S
C1254 C1260 1.368 . S
C1255 C1239 1.349 . S
C1255 H1247 0.950 . S
C1255 C1253 1.327 . S
C1256 C1244 1.349 . S
C1256 H1250 0.950 . S
C1256 C1257 1.327 . S
C1257 H1251 0.950 . S
C1257 C1256 1.327 . S
C1257 C1261 1.429 . S
C1258 C1241 1.574 . S
C1258 H1252 0.949 . S
C1258 C1262 1.368 . S
C1259 C1240 1.429 . S
C1259 C1253 1.429 . S
C1259 C1260 1.523 . S
C1260 C1241 1.368 . S
C1260 C1254 1.368 . S
C1260 C1259 1.523 . S
C1261 C1245 1.429 . S
C1261 C1257 1.429 . S
C1261 C1262 1.523 . S
C1262 C1246 1.368 . S
C1262 C1258 1.368 . S
C1262 C1261 1.523 . S
H1263 C1238 0.950 . S
H1264 C1240 0.950 . S
H1265 C1241 0.949 . S
H1266 C1243 0.950 . S
H1267 C1245 0.950 . S
C1268 C1269 1.349 . S
C1268 C1270 1.327 . S
C1268 H1293 0.950 . S
C1269 C1268 1.349 . S
C1269 C1285 1.349 . S
C1270 C1268 1.327 . S
C1270 C1289 1.429 . S
C1270 H1294 0.950 . S
C1271 C1288 1.574 . S
C1271 C1290 1.368 . S
C1271 H1295 0.949 . S
H1272 C1276 0.949 . S
C1273 C1274 1.349 . S
C1273 C1275 1.327 . S
C1273 H1296 0.950 . S
C1274 C1273 1.349 . S
C1274 C1286 1.349 . S
C1275 C1273 1.327 . S
C1275 C1291 1.429 . S
C1275 H1297 0.950 . S
C1276 H1272 0.949 . S
C1276 C1284 1.574 . S
C1276 C1292 1.368 . S
H1277 C1285 0.950 . S
H1278 C1283 0.950 . S
H1279 C1284 0.949 . S
H1280 C1286 0.950 . S
H1281 C1287 0.950 . S
H1282 C1288 0.949 . S
C1283 H1278 0.950 . S
C1283 C1285 1.327 . S
C1283 C1289 1.429 . S
C1284 C1276 1.574 . S
C1284 H1279 0.949 . S
C1284 C1290 1.368 . S
C1285 C1269 1.349 . S
C1285 H1277 0.950 . S
C1285 C1283 1.327 . S
C1286 C1274 1.349 . S
C1286 H1280 0.950 . S
C1286 C1287 1.327 . S
C1287 H1281 0.950 . S
C1287 C1286 1.327 . S
C1287 C1291 1.429 . S
C1288 C1271 1.574 . S
C1288 H1282 0.949 . S
C1288 C1292 1.368 . S
C1289 C1270 1.429 . S
C1289 C1283 1.429 . S
C1289 C1290 1.523 . S
C1290 C1271 1.368 . S
C1290 C1284 1.368 . S
C1290 C1289 1.523 . S
C1291 C1275 1.429 . S
C1291 C1287 1.429 . S
C1291 C1292 1.523 . S
C1292 C1276 1.368 . S
C1292 C1288 1.368 . S
C1292 C1291 1.523 . S
H1293 C1268 0.950 . S
H1294 C1270 0.950 . S
H1295 C1271 0.949 . S
H1296 C1273 0.950 . S
H1297 C1275 0.950 . S
C1298 C1299 1.349 . S
C1298 C1300 1.327 . S
C1298 H1323 0.950 . S
C1299 C1298 1.349 . S
C1299 C1315 1.349 1_655 S
C1300 C1298 1.327 . S
C1300 C1319 1.429 . S
C1300 H1324 0.950 . S
C1301 C1318 1.574 . S
C1301 C1320 1.368 1_455 S
C1301 H1325 0.949 . S
H1302 C1306 0.949 . S
C1303 C1304 1.349 1_455 S
C1303 C1305 1.327 . S
C1303 H1326 0.950 . S
C1304 C1303 1.349 1_655 S
C1304 C1316 1.349 . S
C1305 C1303 1.327 . S
C1305 C1321 1.429 1_455 S
C1305 H1327 0.950 . S
C1306 H1302 0.949 . S
C1306 C1314 1.574 . S
C1306 C1322 1.368 . S
H1307 C1315 0.950 . S
H1308 C1313 0.950 . S
H1309 C1314 0.949 . S
H1310 C1316 0.950 . S
H1311 C1317 0.950 . S
H1312 C1318 0.949 . S
C1313 H1308 0.950 . S
C1313 C1315 1.327 . S
C1313 C1319 1.429 1_455 S
C1314 C1306 1.574 . S
C1314 H1309 0.949 . S
C1314 C1320 1.368 1_554 S
C1315 C1299 1.349 1_455 S
C1315 H1307 0.950 . S
C1315 C1313 1.327 . S
C1316 C1304 1.349 . S
C1316 H1310 0.950 . S
C1316 C1317 1.327 . S
C1317 H1311 0.950 . S
C1317 C1316 1.327 . S
C1317 C1321 1.429 . S
C1318 C1301 1.574 . S
C1318 H1312 0.949 . S
C1318 C1322 1.368 1_456 S
C1319 C1300 1.429 . S
C1319 C1313 1.429 1_655 S
C1319 C1320 1.523 . S
C1320 C1301 1.368 1_655 S
C1320 C1314 1.368 1_556 S
C1320 C1319 1.523 . S
C1321 C1305 1.429 1_655 S
C1321 C1317 1.429 . S
C1321 C1322 1.523 . S
C1322 C1306 1.368 . S
C1322 C1318 1.368 1_654 S
C1322 C1321 1.523 . S
H1323 C1298 0.950 . S
H1324 C1300 0.950 . S
H1325 C1301 0.949 . S
H1326 C1303 0.950 . S
H1327 C1305 0.950 . S
C1328 C1329 1.349 . S
C1328 C1330 1.327 . S
C1328 H1353 0.950 . S
C1329 C1328 1.349 . S
C1329 C1345 1.349 . S
C1330 C1328 1.327 . S
C1330 C1349 1.429 . S
C1330 H1354 0.950 . S
C1331 C1348 1.574 . S
C1331 C1350 1.368 . S
C1331 H1355 0.949 . S
H1332 C1336 0.949 . S
C1333 C1334 1.349 . S
C1333 C1335 1.327 . S
C1333 H1356 0.950 . S
C1334 C1333 1.349 . S
C1334 C1346 1.349 . S
C1335 C1333 1.327 . S
C1335 C1351 1.429 . S
C1335 H1357 0.950 . S
C1336 H1332 0.949 . S
C1336 C1344 1.574 . S
C1336 C1352 1.368 . S
H1337 C1345 0.950 . S
H1338 C1343 0.950 . S
H1339 C1344 0.949 . S
H1340 C1346 0.950 . S
H1341 C1347 0.950 . S
H1342 C1348 0.949 . S
C1343 H1338 0.950 . S
C1343 C1345 1.327 . S
C1343 C1349 1.429 . S
C1344 C1336 1.574 . S
C1344 H1339 0.949 . S
C1344 C1350 1.368 . S
C1345 C1329 1.349 . S
C1345 H1337 0.950 . S
C1345 C1343 1.327 . S
C1346 C1334 1.349 . S
C1346 H1340 0.950 . S
C1346 C1347 1.327 . S
C1347 H1341 0.950 . S
C1347 C1346 1.327 . S
C1347 C1351 1.429 . S
C1348 C1331 1.574 . S
C1348 H1342 0.949 . S
C1348 C1352 1.368 . S
C1349 C1330 1.429 . S
C1349 C1343 1.429 . S
C1349 C1350 1.523 . S
C1350 C1331 1.368 . S
C1350 C1344 1.368 . S
C1350 C1349 1.523 . S
C1351 C1335 1.429 . S
C1351 C1347 1.429 . S
C1351 C1352 1.523 . S
C1352 C1336 1.368 . S
C1352 C1348 1.368 . S
C1352 C1351 1.523 . S
H1353 C1328 0.950 . S
H1354 C1330 0.950 . S
H1355 C1331 0.949 . S
H1356 C1333 0.950 . S
H1357 C1335 0.950 . S
C1358 C1359 1.349 . S
C1358 C1360 1.327 . S
C1358 H1383 0.950 . S
C1359 C1358 1.349 . S
C1359 C1375 1.349 . S
C1360 C1358 1.327 . S
C1360 C1379 1.429 . S
C1360 H1384 0.950 . S
C1361 C1378 1.574 . S
C1361 C1380 1.368 . S
C1361 H1385 0.949 . S
H1362 C1366 0.949 . S
C1363 C1364 1.349 . S
C1363 C1365 1.327 . S
C1363 H1386 0.950 . S
C1364 C1363 1.349 . S
C1364 C1376 1.349 . S
C1365 C1363 1.327 . S
C1365 C1381 1.429 . S
C1365 H1387 0.950 . S
C1366 H1362 0.949 . S
C1366 C1374 1.574 . S
C1366 C1382 1.368 . S
H1367 C1375 0.950 . S
H1368 C1373 0.950 . S
H1369 C1374 0.949 . S
H1370 C1376 0.950 . S
H1371 C1377 0.950 . S
H1372 C1378 0.949 . S
C1373 H1368 0.950 . S
C1373 C1375 1.327 . S
C1373 C1379 1.429 . S
C1374 C1366 1.574 . S
C1374 H1369 0.949 . S
C1374 C1380 1.368 . S
C1375 C1359 1.349 . S
C1375 H1367 0.950 . S
C1375 C1373 1.327 . S
C1376 C1364 1.349 . S
C1376 H1370 0.950 . S
C1376 C1377 1.327 . S
C1377 H1371 0.950 . S
C1377 C1376 1.327 . S
C1377 C1381 1.429 . S
C1378 C1361 1.574 . S
C1378 H1372 0.949 . S
C1378 C1382 1.368 . S
C1379 C1360 1.429 . S
C1379 C1373 1.429 . S
C1379 C1380 1.523 . S
C1380 C1361 1.368 . S
C1380 C1374 1.368 . S
C1380 C1379 1.523 . S
C1381 C1365 1.429 . S
C1381 C1377 1.429 . S
C1381 C1382 1.523 . S
C1382 C1366 1.368 . S
C1382 C1378 1.368 . S
C1382 C1381 1.523 . S
H1383 C1358 0.950 . S
H1384 C1360 0.950 . S
H1385 C1361 0.949 . S
H1386 C1363 0.950 . S
H1387 C1365 0.950 . S
C1388 C1389 1.349 1_556 S
C1388 C1390 1.327 . S
C1388 H1413 0.950 . S
C1389 C1388 1.349 1_554 S
C1389 C1405 1.349 . S
C1390 C1388 1.327 . S
C1390 C1409 1.429 . S
C1390 H1414 0.950 . S
C1391 C1408 1.574 . S
C1391 C1410 1.368 . S
C1391 H1415 0.949 . S
H1392 C1396 0.949 . S
C1393 C1394 1.349 . S
C1393 C1395 1.327 . S
C1393 H1416 0.950 . S
C1394 C1393 1.349 . S
C1394 C1406 1.349 . S
C1395 C1393 1.327 . S
C1395 C1411 1.429 . S
C1395 H1417 0.950 . S
C1396 H1392 0.949 . S
C1396 C1404 1.574 . S
C1396 C1412 1.368 . S
H1397 C1405 0.950 . S
H1398 C1403 0.950 . S
H1399 C1404 0.949 . S
H1400 C1406 0.950 . S
H1401 C1407 0.950 . S
H1402 C1408 0.949 . S
C1403 H1398 0.950 . S
C1403 C1405 1.327 1_556 S
C1403 C1409 1.429 . S
C1404 C1396 1.574 . S
C1404 H1399 0.949 . S
C1404 C1410 1.368 . S
C1405 C1389 1.349 . S
C1405 H1397 0.950 . S
C1405 C1403 1.327 1_554 S
C1406 C1394 1.349 . S
C1406 H1400 0.950 . S
C1406 C1407 1.327 . S
C1407 H1401 0.950 . S
C1407 C1406 1.327 . S
C1407 C1411 1.429 . S
C1408 C1391 1.574 . S
C1408 H1402 0.949 . S
C1408 C1412 1.368 . S
C1409 C1390 1.429 . S
C1409 C1403 1.429 . S
C1409 C1410 1.523 . S
C1410 C1391 1.368 . S
C1410 C1404 1.368 . S
C1410 C1409 1.523 . S
C1411 C1395 1.429 . S
C1411 C1407 1.429 . S
C1411 C1412 1.523 . S
C1412 C1396 1.368 . S
C1412 C1408 1.368 . S
C1412 C1411 1.523 . S
H1413 C1388 0.950 . S
H1414 C1390 0.950 . S
H1415 C1391 0.949 . S
H1416 C1393 0.950 . S
H1417 C1395 0.950 . S
C1418 C1419 1.349 . S
C1418 C1420 1.327 . S
C1418 H1443 0.950 . S
C1419 C1418 1.349 . S
C1419 C1435 1.349 . S
C1420 C1418 1.327 . S
C1420 C1439 1.429 . S
C1420 H1444 0.950 . S
C1421 C1438 1.574 . S
C1421 C1440 1.368 . S
C1421 H1445 0.949 . S
H1422 C1426 0.949 . S
C1423 C1424 1.349 1_554 S
C1423 C1425 1.327 . S
C1423 H1446 0.950 1_554 S
C1424 C1423 1.349 1_556 S
C1424 C1436 1.349 1_556 S
C1425 C1423 1.327 . S
C1425 C1441 1.429 . S
C1425 H1447 0.950 . S
C1426 H1422 0.949 . S
C1426 C1434 1.574 . S
C1426 C1442 1.368 . S
H1427 C1435 0.950 . S
H1428 C1433 0.950 . S
H1429 C1434 0.949 . S
H1430 C1436 0.950 . S
H1431 C1437 0.950 . S
H1432 C1438 0.949 . S
C1433 H1428 0.950 . S
C1433 C1435 1.327 . S
C1433 C1439 1.429 . S
C1434 C1426 1.574 . S
C1434 H1429 0.949 . S
C1434 C1440 1.368 . S
C1435 C1419 1.349 . S
C1435 H1427 0.950 . S
C1435 C1433 1.327 . S
C1436 C1424 1.349 1_554 S
C1436 H1430 0.950 . S
C1436 C1437 1.327 . S
C1437 H1431 0.950 . S
C1437 C1436 1.327 . S
C1437 C1441 1.429 . S
C1438 C1421 1.574 . S
C1438 H1432 0.949 . S
C1438 C1442 1.368 . S
C1439 C1420 1.429 . S
C1439 C1433 1.429 . S
C1439 C1440 1.523 . S
C1440 C1421 1.368 . S
C1440 C1434 1.368 . S
C1440 C1439 1.523 . S
C1441 C1425 1.429 . S
C1441 C1437 1.429 . S
C1441 C1442 1.523 . S
C1442 C1426 1.368 . S
C1442 C1438 1.368 . S
C1442 C1441 1.523 . S
H1443 C1418 0.950 . S
H1444 C1420 0.950 . S
H1445 C1421 0.949 . S
H1446 C1423 0.950 1_556 S
H1447 C1425 0.950 . S
C1448 C1449 1.349 . S
C1448 C1450 1.327 . S
C1448 H1473 0.950 . S
C1449 C1448 1.349 . S
C1449 C1465 1.349 . S
C1450 C1448 1.327 . S
C1450 C1469 1.429 . S
C1450 H1474 0.950 . S
C1451 C1468 1.574 . S
C1451 C1470 1.368 . S
C1451 H1475 0.949 . S
H1452 C1456 0.949 . S
C1453 C1454 1.349 . S
C1453 C1455 1.327 . S
C1453 H1476 0.950 . S
C1454 C1453 1.349 . S
C1454 C1466 1.349 . S
C1455 C1453 1.327 . S
C1455 C1471 1.429 . S
C1455 H1477 0.950 . S
C1456 H1452 0.949 . S
C1456 C1464 1.574 . S
C1456 C1472 1.368 . S
H1457 C1465 0.950 . S
H1458 C1463 0.950 . S
H1459 C1464 0.949 . S
H1460 C1466 0.950 . S
H1461 C1467 0.950 . S
H1462 C1468 0.949 . S
C1463 H1458 0.950 . S
C1463 C1465 1.327 . S
C1463 C1469 1.429 . S
C1464 C1456 1.574 . S
C1464 H1459 0.949 . S
C1464 C1470 1.368 . S
C1465 C1449 1.349 . S
C1465 H1457 0.950 . S
C1465 C1463 1.327 . S
C1466 C1454 1.349 . S
C1466 H1460 0.950 . S
C1466 C1467 1.327 . S
C1467 H1461 0.950 . S
C1467 C1466 1.327 . S
C1467 C1471 1.429 . S
C1468 C1451 1.574 . S
C1468 H1462 0.949 . S
C1468 C1472 1.368 . S
C1469 C1450 1.429 . S
C1469 C1463 1.429 . S
C1469 C1470 1.523 . S
C1470 C1451 1.368 . S
C1470 C1464 1.368 . S
C1470 C1469 1.523 . S
C1471 C1455 1.429 . S
C1471 C1467 1.429 . S
C1471 C1472 1.523 . S
C1472 C1456 1.368 . S
C1472 C1468 1.368 . S
C1472 C1471 1.523 . S
H1473 C1448 0.950 . S
H1474 C1450 0.950 . S
H1475 C1451 0.949 . S
H1476 C1453 0.950 . S
H1477 C1455 0.950 . S
C1478 C1479 1.349 . S
C1478 C1480 1.327 . S
C1478 H1503 0.950 . S
C1479 C1478 1.349 . S
C1479 C1495 1.349 . S
C1480 C1478 1.327 . S
C1480 C1499 1.429 . S
C1480 H1504 0.950 . S
C1481 C1498 1.574 . S
C1481 C1500 1.368 . S
C1481 H1505 0.949 . S
H1482 C1486 0.949 . S
C1483 C1484 1.349 . S
C1483 C1485 1.327 . S
C1483 H1506 0.950 . S
C1484 C1483 1.349 . S
C1484 C1496 1.349 . S
C1485 C1483 1.327 . S
C1485 C1501 1.429 . S
C1485 H1507 0.950 . S
C1486 H1482 0.949 . S
C1486 C1494 1.574 . S
C1486 C1502 1.368 . S
H1487 C1495 0.950 . S
H1488 C1493 0.950 . S
H1489 C1494 0.949 . S
H1490 C1496 0.950 . S
H1491 C1497 0.950 . S
H1492 C1498 0.949 . S
C1493 H1488 0.950 . S
C1493 C1495 1.327 . S
C1493 C1499 1.429 . S
C1494 C1486 1.574 . S
C1494 H1489 0.949 . S
C1494 C1500 1.368 . S
C1495 C1479 1.349 . S
C1495 H1487 0.950 . S
C1495 C1493 1.327 . S
C1496 C1484 1.349 . S
C1496 H1490 0.950 . S
C1496 C1497 1.327 . S
C1497 H1491 0.950 . S
C1497 C1496 1.327 . S
C1497 C1501 1.429 . S
C1498 C1481 1.574 . S
C1498 H1492 0.949 . S
C1498 C1502 1.368 . S
C1499 C1480 1.429 . S
C1499 C1493 1.429 . S
C1499 C1500 1.523 . S
C1500 C1481 1.368 . S
C1500 C1494 1.368 . S
C1500 C1499 1.523 . S
C1501 C1485 1.429 . S
C1501 C1497 1.429 . S
C1501 C1502 1.523 . S
C1502 C1486 1.368 . S
C1502 C1498 1.368 . S
C1502 C1501 1.523 . S
H1503 C1478 0.950 . S
H1504 C1480 0.950 . S
H1505 C1481 0.949 . S
H1506 C1483 0.950 . S
H1507 C1485 0.950 . S
C1508 C1509 1.349 . S
C1508 C1510 1.327 1_556 S
C1508 H1533 0.950 . S
C1509 C1508 1.349 . S
C1509 C1525 1.349 1_556 S
C1510 C1508 1.327 1_554 S
C1510 C1529 1.429 . S
C1510 H1534 0.950 . S
C1511 C1528 1.574 . S
C1511 C1530 1.368 . S
C1511 H1535 0.949 . S
H1512 C1516 0.949 . S
C1513 C1514 1.349 . S
C1513 C1515 1.327 . S
C1513 H1536 0.950 . S
C1514 C1513 1.349 . S
C1514 C1526 1.349 . S
C1515 C1513 1.327 . S
C1515 C1531 1.429 . S
C1515 H1537 0.950 . S
C1516 H1512 0.949 . S
C1516 C1524 1.574 . S
C1516 C1532 1.368 . S
H1517 C1525 0.950 . S
H1518 C1523 0.950 . S
H1519 C1524 0.949 . S
H1520 C1526 0.950 . S
H1521 C1527 0.950 . S
H1522 C1528 0.949 . S
C1523 H1518 0.950 . S
C1523 C1525 1.327 . S
C1523 C1529 1.429 . S
C1524 C1516 1.574 . S
C1524 H1519 0.949 . S
C1524 C1530 1.368 . S
C1525 C1509 1.349 1_554 S
C1525 H1517 0.950 . S
C1525 C1523 1.327 . S
C1526 C1514 1.349 . S
C1526 H1520 0.950 . S
C1526 C1527 1.327 . S
C1527 H1521 0.950 . S
C1527 C1526 1.327 . S
C1527 C1531 1.429 . S
C1528 C1511 1.574 . S
C1528 H1522 0.949 . S
C1528 C1532 1.368 . S
C1529 C1510 1.429 . S
C1529 C1523 1.429 . S
C1529 C1530 1.523 . S
C1530 C1511 1.368 . S
C1530 C1524 1.368 . S
C1530 C1529 1.523 . S
C1531 C1515 1.429 . S
C1531 C1527 1.429 . S
C1531 C1532 1.523 . S
C1532 C1516 1.368 . S
C1532 C1528 1.368 . S
C1532 C1531 1.523 . S
H1533 C1508 0.950 . S
H1534 C1510 0.950 . S
H1535 C1511 0.949 . S
H1536 C1513 0.950 . S
H1537 C1515 0.950 . S
C1538 C1539 1.349 . S
C1538 C1540 1.327 . S
C1538 H1563 0.950 . S
C1539 C1538 1.349 . S
C1539 C1555 1.349 . S
C1540 C1538 1.327 . S
C1540 C1559 1.429 . S
C1540 H1564 0.950 . S
C1541 C1558 1.574 . S
C1541 C1560 1.368 . S
C1541 H1565 0.949 . S
H1542 C1546 0.949 . S
C1543 C1544 1.349 1_556 S
C1543 C1545 1.327 . S
C1543 H1566 0.950 . S
C1544 C1543 1.349 1_554 S
C1544 C1556 1.349 . S
C1545 C1543 1.327 . S
C1545 C1561 1.429 . S
C1545 H1567 0.950 . S
C1546 H1542 0.949 . S
C1546 C1554 1.574 . S
C1546 C1562 1.368 . S
H1547 C1555 0.950 . S
H1548 C1553 0.950 . S
H1549 C1554 0.949 . S
H1550 C1556 0.950 . S
H1551 C1557 0.950 . S
H1552 C1558 0.949 . S
C1553 H1548 0.950 . S
C1553 C1555 1.327 . S
C1553 C1559 1.429 . S
C1554 C1546 1.574 . S
C1554 H1549 0.949 . S
C1554 C1560 1.368 . S
C1555 C1539 1.349 . S
C1555 H1547 0.950 . S
C1555 C1553 1.327 . S
C1556 C1544 1.349 . S
C1556 H1550 0.950 . S
C1556 C1557 1.327 1_554 S
C1557 H1551 0.950 . S
C1557 C1556 1.327 1_556 S
C1557 C1561 1.429 . S
C1558 C1541 1.574 . S
C1558 H1552 0.949 . S
C1558 C1562 1.368 . S
C1559 C1540 1.429 . S
C1559 C1553 1.429 . S
C1559 C1560 1.523 . S
C1560 C1541 1.368 . S
C1560 C1554 1.368 . S
C1560 C1559 1.523 . S
C1561 C1545 1.429 . S
C1561 C1557 1.429 . S
C1561 C1562 1.523 . S
C1562 C1546 1.368 . S
C1562 C1558 1.368 . S
C1562 C1561 1.523 . S
H1563 C1538 0.950 . S
H1564 C1540 0.950 . S
H1565 C1541 0.949 . S
H1566 C1543 0.950 . S
H1567 C1545 0.950 . S
C1568 C1569 1.349 . S
C1568 C1570 1.327 . S
C1568 H1593 0.950 . S
C1569 C1568 1.349 . S
C1569 C1585 1.349 . S
C1570 C1568 1.327 . S
C1570 C1589 1.429 . S
C1570 H1594 0.950 . S
C1571 C1588 1.574 . S
C1571 C1590 1.368 . S
C1571 H1595 0.949 . S
H1572 C1576 0.949 . S
C1573 C1574 1.349 1_556 S
C1573 C1575 1.327 . S
C1573 H1596 0.950 1_556 S
C1574 C1573 1.349 1_554 S
C1574 C1586 1.349 1_554 S
C1575 C1573 1.327 . S
C1575 C1591 1.429 . S
C1575 H1597 0.950 . S
C1576 H1572 0.949 . S
C1576 C1584 1.574 . S
C1576 C1592 1.368 . S
H1577 C1585 0.950 . S
H1578 C1583 0.950 . S
H1579 C1584 0.949 . S
H1580 C1586 0.950 . S
H1581 C1587 0.950 . S
H1582 C1588 0.949 . S
C1583 H1578 0.950 . S
C1583 C1585 1.327 . S
C1583 C1589 1.429 . S
C1584 C1576 1.574 . S
C1584 H1579 0.949 . S
C1584 C1590 1.368 . S
C1585 C1569 1.349 . S
C1585 H1577 0.950 . S
C1585 C1583 1.327 . S
C1586 C1574 1.349 1_556 S
C1586 H1580 0.950 . S
C1586 C1587 1.327 . S
C1587 H1581 0.950 . S
C1587 C1586 1.327 . S
C1587 C1591 1.429 . S
C1588 C1571 1.574 . S
C1588 H1582 0.949 . S
C1588 C1592 1.368 . S
C1589 C1570 1.429 . S
C1589 C1583 1.429 . S
C1589 C1590 1.523 . S
C1590 C1571 1.368 . S
C1590 C1584 1.368 . S
C1590 C1589 1.523 . S
C1591 C1575 1.429 . S
C1591 C1587 1.429 . S
C1591 C1592 1.523 . S
C1592 C1576 1.368 . S
C1592 C1588 1.368 . S
C1592 C1591 1.523 . S
H1593 C1568 0.950 . S
H1594 C1570 0.950 . S
H1595 C1571 0.949 . S
H1596 C1573 0.950 1_554 S
H1597 C1575 0.950 . S
C1598 C1599 1.349 . S
C1598 C1600 1.327 . S
C1598 H1623 0.950 . S
C1599 C1598 1.349 . S
C1599 C1615 1.349 . S
C1600 C1598 1.327 . S
C1600 C1619 1.429 . S
C1600 H1624 0.950 . S
C1601 C1618 1.574 . S
C1601 C1620 1.368 . S
C1601 H1625 0.949 . S
H1602 C1606 0.949 . S
C1603 C1604 1.349 1_554 S
C1603 C1605 1.327 . S
C1603 H1626 0.950 1_554 S
C1604 C1603 1.349 1_556 S
C1604 C1616 1.349 1_556 S
C1605 C1603 1.327 . S
C1605 C1621 1.429 . S
C1605 H1627 0.950 . S
C1606 H1602 0.949 . S
C1606 C1614 1.574 . S
C1606 C1622 1.368 . S
H1607 C1615 0.950 . S
H1608 C1613 0.950 . S
H1609 C1614 0.949 . S
H1610 C1616 0.950 . S
H1611 C1617 0.950 . S
H1612 C1618 0.949 . S
C1613 H1608 0.950 . S
C1613 C1615 1.327 . S
C1613 C1619 1.429 . S
C1614 C1606 1.574 . S
C1614 H1609 0.949 . S
C1614 C1620 1.368 . S
C1615 C1599 1.349 . S
C1615 H1607 0.950 . S
C1615 C1613 1.327 . S
C1616 C1604 1.349 1_554 S
C1616 H1610 0.950 . S
C1616 C1617 1.327 . S
C1617 H1611 0.950 . S
C1617 C1616 1.327 . S
C1617 C1621 1.429 . S
C1618 C1601 1.574 . S
C1618 H1612 0.949 . S
C1618 C1622 1.368 . S
C1619 C1600 1.429 . S
C1619 C1613 1.429 . S
C1619 C1620 1.523 . S
C1620 C1601 1.368 . S
C1620 C1614 1.368 . S
C1620 C1619 1.523 . S
C1621 C1605 1.429 . S
C1621 C1617 1.429 . S
C1621 C1622 1.523 . S
C1622 C1606 1.368 . S
C1622 C1618 1.368 . S
C1622 C1621 1.523 . S
H1623 C1598 0.950 . S
H1624 C1600 0.950 . S
H1625 C1601 0.949 . S
H1626 C1603 0.950 1_556 S
H1627 C1605 0.950 . S
C1628 C1629 1.349 . S
C1628 C1630 1.327 . S
C1628 H1653 0.950 . S
C1629 C1628 1.349 . S
C1629 C1645 1.349 . S
C1630 C1628 1.327 . S
C1630 C1649 1.429 . S
C1630 H1654 0.950 . S
C1631 C1648 1.574 . S
C1631 C1650 1.368 . S
C1631 H1655 0.949 . S
H1632 C1636 0.949 . S
C1633 C1634 1.349 . S
C1633 C1635 1.327 . S
C1633 H1656 0.950 . S
C1634 C1633 1.349 . S
C1634 C1646 1.349 . S
C1635 C1633 1.327 . S
C1635 C1651 1.429 . S
C1635 H1657 0.950 . S
C1636 H1632 0.949 . S
C1636 C1644 1.574 . S
C1636 C1652 1.368 . S
H1637 C1645 0.950 . S
H1638 C1643 0.950 . S
H1639 C1644 0.949 . S
H1640 C1646 0.950 . S
H1641 C1647 0.950 . S
H1642 C1648 0.949 . S
C1643 H1638 0.950 . S
C1643 C1645 1.327 . S
C1643 C1649 1.429 . S
C1644 C1636 1.574 . S
C1644 H1639 0.949 . S
C1644 C1650 1.368 . S
C1645 C1629 1.349 . S
C1645 H1637 0.950 . S
C1645 C1643 1.327 . S
C1646 C1634 1.349 . S
C1646 H1640 0.950 . S
C1646 C1647 1.327 . S
C1647 H1641 0.950 . S
C1647 C1646 1.327 . S
C1647 C1651 1.429 . S
C1648 C1631 1.574 . S
C1648 H1642 0.949 . S
C1648 C1652 1.368 . S
C1649 C1630 1.429 . S
C1649 C1643 1.429 . S
C1649 C1650 1.523 . S
C1650 C1631 1.368 . S
C1650 C1644 1.368 . S
C1650 C1649 1.523 . S
C1651 C1635 1.429 . S
C1651 C1647 1.429 . S
C1651 C1652 1.523 . S
C1652 C1636 1.368 . S
C1652 C1648 1.368 . S
C1652 C1651 1.523 . S
H1653 C1628 0.950 . S
H1654 C1630 0.950 . S
H1655 C1631 0.949 . S
H1656 C1633 0.950 . S
H1657 C1635 0.950 . S
C1658 C1659 1.349 . S
C1658 C1660 1.327 . S
C1658 H1683 0.950 . S
C1659 C1658 1.349 . S
C1659 C1675 1.349 . S
C1660 C1658 1.327 . S
C1660 C1679 1.429 . S
C1660 H1684 0.950 . S
C1661 C1678 1.574 . S
C1661 C1680 1.368 . S
C1661 H1685 0.949 . S
H1662 C1666 0.949 . S
C1663 C1664 1.349 . S
C1663 C1665 1.327 . S
C1663 H1686 0.950 . S
C1664 C1663 1.349 . S
C1664 C1676 1.349 . S
C1665 C1663 1.327 . S
C1665 C1681 1.429 . S
C1665 H1687 0.950 . S
C1666 H1662 0.949 . S
C1666 C1674 1.574 . S
C1666 C1682 1.368 . S
H1667 C1675 0.950 . S
H1668 C1673 0.950 . S
H1669 C1674 0.949 . S
H1670 C1676 0.950 . S
H1671 C1677 0.950 . S
H1672 C1678 0.949 . S
C1673 H1668 0.950 . S
C1673 C1675 1.327 . S
C1673 C1679 1.429 . S
C1674 C1666 1.574 . S
C1674 H1669 0.949 . S
C1674 C1680 1.368 . S
C1675 C1659 1.349 . S
C1675 H1667 0.950 . S
C1675 C1673 1.327 . S
C1676 C1664 1.349 . S
C1676 H1670 0.950 . S
C1676 C1677 1.327 . S
C1677 H1671 0.950 . S
C1677 C1676 1.327 . S
C1677 C1681 1.429 . S
C1678 C1661 1.574 . S
C1678 H1672 0.949 . S
C1678 C1682 1.368 . S
C1679 C1660 1.429 . S
C1679 C1673 1.429 . S
C1679 C1680 1.523 . S
C1680 C1661 1.368 . S
C1680 C1674 1.368 . S
C1680 C1679 1.523 . S
C1681 C1665 1.429 . S
C1681 C1677 1.429 . S
C1681 C1682 1.523 . S
C1682 C1666 1.368 . S
C1682 C1678 1.368 . S
C1682 C1681 1.523 . S
H1683 C1658 0.950 . S
H1684 C1660 0.950 . S
H1685 C1661 0.949 . S
H1686 C1663 0.950 . S
H1687 C1665 0.950 . S
C1688 C1689 1.349 . S
C1688 C1690 1.327 . S
C1688 H1713 0.950 . S
C1689 C1688 1.349 . S
C1689 C1705 1.349 . S
C1690 C1688 1.327 . S
C1690 C1709 1.429 . S
C1690 H1714 0.950 . S
C1691 C1708 1.574 . S
C1691 C1710 1.368 . S
C1691 H1715 0.949 . S
H1692 C1696 0.949 . S
C1693 C1694 1.349 . S
C1693 C1695 1.327 1_556 S
C1693 H1716 0.950 . S
C1694 C1693 1.349 . S
C1694 C1706 1.349 1_556 S
C1695 C1693 1.327 1_554 S
C1695 C1711 1.429 . S
C1695 H1717 0.950 . S
C1696 H1692 0.949 . S
C1696 C1704 1.574 . S
C1696 C1712 1.368 . S
H1697 C1705 0.950 . S
H1698 C1703 0.950 . S
H1699 C1704 0.949 . S
H1700 C1706 0.950 . S
H1701 C1707 0.950 . S
H1702 C1708 0.949 . S
C1703 H1698 0.950 . S
C1703 C1705 1.327 . S
C1703 C1709 1.429 . S
C1704 C1696 1.574 . S
C1704 H1699 0.949 . S
C1704 C1710 1.368 . S
C1705 C1689 1.349 . S
C1705 H1697 0.950 . S
C1705 C1703 1.327 . S
C1706 C1694 1.349 1_554 S
C1706 H1700 0.950 . S
C1706 C1707 1.327 . S
C1707 H1701 0.950 . S
C1707 C1706 1.327 . S
C1707 C1711 1.429 . S
C1708 C1691 1.574 . S
C1708 H1702 0.949 . S
C1708 C1712 1.368 . S
C1709 C1690 1.429 . S
C1709 C1703 1.429 . S
C1709 C1710 1.523 . S
C1710 C1691 1.368 . S
C1710 C1704 1.368 . S
C1710 C1709 1.523 . S
C1711 C1695 1.429 . S
C1711 C1707 1.429 . S
C1711 C1712 1.523 . S
C1712 C1696 1.368 . S
C1712 C1708 1.368 . S
C1712 C1711 1.523 . S
H1713 C1688 0.950 . S
H1714 C1690 0.950 . S
H1715 C1691 0.949 . S
H1716 C1693 0.950 . S
H1717 C1695 0.950 . S
C1718 C1719 1.349 . S
C1718 C1720 1.327 1_554 S
C1718 H1743 0.950 . S
C1719 C1718 1.349 . S
C1719 C1735 1.349 1_554 S
C1720 C1718 1.327 1_556 S
C1720 C1739 1.429 . S
C1720 H1744 0.950 . S
C1721 C1738 1.574 . S
C1721 C1740 1.368 . S
C1721 H1745 0.949 . S
H1722 C1726 0.949 . S
C1723 C1724 1.349 . S
C1723 C1725 1.327 . S
C1723 H1746 0.950 . S
C1724 C1723 1.349 . S
C1724 C1736 1.349 . S
C1725 C1723 1.327 . S
C1725 C1741 1.429 . S
C1725 H1747 0.950 . S
C1726 H1722 0.949 . S
C1726 C1734 1.574 . S
C1726 C1742 1.368 . S
H1727 C1735 0.950 . S
H1728 C1733 0.950 . S
H1729 C1734 0.949 . S
H1730 C1736 0.950 . S
H1731 C1737 0.950 . S
H1732 C1738 0.949 . S
C1733 H1728 0.950 . S
C1733 C1735 1.327 . S
C1733 C1739 1.429 . S
C1734 C1726 1.574 . S
C1734 H1729 0.949 . S
C1734 C1740 1.368 . S
C1735 C1719 1.349 1_556 S
C1735 H1727 0.950 . S
C1735 C1733 1.327 . S
C1736 C1724 1.349 . S
C1736 H1730 0.950 . S
C1736 C1737 1.327 . S
C1737 H1731 0.950 . S
C1737 C1736 1.327 . S
C1737 C1741 1.429 . S
C1738 C1721 1.574 . S
C1738 H1732 0.949 . S
C1738 C1742 1.368 . S
C1739 C1720 1.429 . S
C1739 C1733 1.429 . S
C1739 C1740 1.523 . S
C1740 C1721 1.368 . S
C1740 C1734 1.368 . S
C1740 C1739 1.523 . S
C1741 C1725 1.429 . S
C1741 C1737 1.429 . S
C1741 C1742 1.523 . S
C1742 C1726 1.368 . S
C1742 C1738 1.368 . S
C1742 C1741 1.523 . S
H1743 C1718 0.950 . S
H1744 C1720 0.950 . S
H1745 C1721 0.949 . S
H1746 C1723 0.950 . S
H1747 C1725 0.950 . S
C1748 C1749 1.349 . S
C1748 C1750 1.327 . S
C1748 H1773 0.950 . S
C1749 C1748 1.349 . S
C1749 C1765 1.349 . S
C1750 C1748 1.327 . S
C1750 C1769 1.429 . S
C1750 H1774 0.950 . S
C1751 C1768 1.574 . S
C1751 C1770 1.368 . S
C1751 H1775 0.949 . S
H1752 C1756 0.949 . S
C1753 C1754 1.349 . S
C1753 C1755 1.327 . S
C1753 H1776 0.950 . S
C1754 C1753 1.349 . S
C1754 C1766 1.349 . S
C1755 C1753 1.327 . S
C1755 C1771 1.429 . S
C1755 H1777 0.950 . S
C1756 H1752 0.949 . S
C1756 C1764 1.574 . S
C1756 C1772 1.368 . S
H1757 C1765 0.950 . S
H1758 C1763 0.950 . S
H1759 C1764 0.949 . S
H1760 C1766 0.950 . S
H1761 C1767 0.950 . S
H1762 C1768 0.949 . S
C1763 H1758 0.950 . S
C1763 C1765 1.327 . S
C1763 C1769 1.429 . S
C1764 C1756 1.574 . S
C1764 H1759 0.949 . S
C1764 C1770 1.368 . S
C1765 C1749 1.349 . S
C1765 H1757 0.950 . S
C1765 C1763 1.327 . S
C1766 C1754 1.349 . S
C1766 H1760 0.950 . S
C1766 C1767 1.327 . S
C1767 H1761 0.950 . S
C1767 C1766 1.327 . S
C1767 C1771 1.429 . S
C1768 C1751 1.574 . S
C1768 H1762 0.949 . S
C1768 C1772 1.368 . S
C1769 C1750 1.429 . S
C1769 C1763 1.429 . S
C1769 C1770 1.523 . S
C1770 C1751 1.368 . S
C1770 C1764 1.368 . S
C1770 C1769 1.523 . S
C1771 C1755 1.429 . S
C1771 C1767 1.429 . S
C1771 C1772 1.523 . S
C1772 C1756 1.368 . S
C1772 C1768 1.368 . S
C1772 C1771 1.523 . S
H1773 C1748 0.950 . S
H1774 C1750 0.950 . S
H1775 C1751 0.949 . S
H1776 C1753 0.950 . S
H1777 C1755 0.950 . S
C1778 C1779 1.349 . S
C1778 C1780 1.327 . S
C1778 H1803 0.950 . S
C1779 C1778 1.349 . S
C1779 C1795 1.349 . S
C1780 C1778 1.327 . S
C1780 C1799 1.429 . S
C1780 H1804 0.950 . S
C1781 C1798 1.574 . S
C1781 C1800 1.368 . S
C1781 H1805 0.949 . S
H1782 C1786 0.949 . S
C1783 C1784 1.349 . S
C1783 C1785 1.327 . S
C1783 H1806 0.950 . S
C1784 C1783 1.349 . S
C1784 C1796 1.349 . S
C1785 C1783 1.327 . S
C1785 C1801 1.429 . S
C1785 H1807 0.950 . S
C1786 H1782 0.949 . S
C1786 C1794 1.574 . S
C1786 C1802 1.368 . S
H1787 C1795 0.950 . S
H1788 C1793 0.950 . S
H1789 C1794 0.949 . S
H1790 C1796 0.950 . S
H1791 C1797 0.950 . S
H1792 C1798 0.949 . S
C1793 H1788 0.950 . S
C1793 C1795 1.327 . S
C1793 C1799 1.429 . S
C1794 C1786 1.574 . S
C1794 H1789 0.949 . S
C1794 C1800 1.368 . S
C1795 C1779 1.349 . S
C1795 H1787 0.950 . S
C1795 C1793 1.327 . S
C1796 C1784 1.349 . S
C1796 H1790 0.950 . S
C1796 C1797 1.327 . S
C1797 H1791 0.950 . S
C1797 C1796 1.327 . S
C1797 C1801 1.429 . S
C1798 C1781 1.574 . S
C1798 H1792 0.949 . S
C1798 C1802 1.368 . S
C1799 C1780 1.429 . S
C1799 C1793 1.429 . S
C1799 C1800 1.523 . S
C1800 C1781 1.368 . S
C1800 C1794 1.368 . S
C1800 C1799 1.523 . S
C1801 C1785 1.429 . S
C1801 C1797 1.429 . S
C1801 C1802 1.523 . S
C1802 C1786 1.368 . S
C1802 C1798 1.368 . S
C1802 C1801 1.523 . S
H1803 C1778 0.950 . S
H1804 C1780 0.950 . S
H1805 C1781 0.949 . S
H1806 C1783 0.950 . S
H1807 C1785 0.950 . S
C369 C17 0.686 . S
C374 C178 0.686 . S
C399 C40 0.686 . S
C404 C109 0.686 . S
C429 C132 0.686 . S
C434 C63 0.686 . S
C459 C86 0.686 . S
C464 C155 0.686 . S
C489 C274 1.072 . S
C494 C113 1.072 . S
C519 C205 1.072 . S
C524 C21 1.072 . S
C549 C251 1.072 . S
C554 C159 1.072 . S
C579 C67 1.072 . S
C584 C228 1.072 . S
C609 C224 0.686 . S
C614 C293 0.686 . S
C639 C247 0.686 . S
C644 C339 0.686 . S
C669 C316 0.686 . S
C674 C201 0.686 . S
C699 C270 0.686 . S
C704 C362 0.686 . S
C729 C343 1.072 . S
C734 C90 1.072 . S
C759 C297 1.072 . S
C764 C136 1.072 . S
C789 C44 1.072 . S
C794 C366 1.072 . S
C819 C182 1.072 . S
C824 C320 1.072 . S
C849 C318 0.649 . S
C854 C19 0.649 . S
C879 C272 0.649 . S
C884 C42 0.649 . S
C909 C295 0.648 . S
C914 C65 0.648 . S
C939 C249 0.648 . S
C944 C88 0.648 . S
C969 C111 0.649 . S
C974 C364 0.649 . S
C999 C226 0.648 . S
C1004 C134 0.648 . S
C1029 C157 0.648 . S
C1034 C341 0.648 . S
C1059 C180 0.649 . S
C1064 C203 0.649 . S
C1089 C20 0.653 . S
C1094 C112 0.653 . S
C1119 C43 0.652 . S
C1124 C135 0.652 . S
C1149 C158 0.652 . S
C1154 C66 0.652 . S
C1179 C89 0.652 . S
C1184 C181 0.652 . S
C1209 C250 0.652 . S
C1214 C204 0.652 . S
C1239 C273 0.652 . S
C1244 C227 0.652 . S
C1269 C296 0.652 . S
C1274 C342 0.652 . S
C1299 C365 0.653 1_655 S
C1304 C319 0.653 1_655 S
C1329 C18 1.336 . S
C1334 C179 1.336 . S
C1359 C41 1.336 . S
C1364 C110 1.336 . S
C1389 C133 1.336 . S
C1394 C64 1.336 . S
C1419 C156 1.336 . S
C1424 C87 1.336 . S
C1449 C269 1.373 . S
C1454 C108 1.373 . S
C1479 C200 1.373 . S
C1484 C16 1.373 . S
C1509 C246 1.373 . S
C1514 C154 1.373 . S
C1539 C62 1.373 . S
C1544 C223 1.373 . S
C1569 C294 1.336 . S
C1574 C225 1.336 . S
C1599 C340 1.336 . S
C1604 C248 1.336 . S
C1629 C317 1.336 . S
C1634 C202 1.336 . S
C1659 C363 1.336 . S
C1664 C271 1.336 . S
C1689 C338 1.373 . S
C1694 C85 1.373 . S
C1719 C131 1.373 . S
C1724 C292 1.373 . S
C1749 C39 1.373 . S
C1754 C361 1.373 . S
C1779 C315 1.373 . S
C1784 C177 1.373 . S
