# Generated by pormake.
# Topology wiu, (6)-cn, num edge types: 1
# Building blocks:
#     Node 0, Type 0, BuildingBlock: BETDEL_clean_sbu_0, # of connection points: 6
#     Node 1, Type 0, BuildingBlock: BETDEL_clean_sbu_0, # of connection points: 6
#     Node 2, Type 0, BuildingBlock: BETDEL_clean_sbu_0, # of connection points: 6
#     Node 3, Type 0, BuildingBlock: BETDEL_clean_sbu_0, # of connection points: 6
#     Node 4, Type 0, BuildingBlock: BETDEL_clean_sbu_0, # of connection points: 6
#     Node 5, Type 0, BuildingBlock: BETDEL_clean_sbu_0, # of connection points: 6
#     Node 6, Type 0, BuildingBlock: BETDEL_clean_sbu_0, # of connection points: 6
#     Node 7, Type 0, BuildingBlock: BETDEL_clean_sbu_0, # of connection points: 6
#     Node 8, Type 0, BuildingBlock: BETDEL_clean_sbu_0, # of connection points: 6
#     Node 9, Type 0, BuildingBlock: BETDEL_clean_sbu_0, # of connection points: 6
#     Node 10, Type 0, BuildingBlock: BETDEL_clean_sbu_0, # of connection points: 6
#     Node 11, Type 0, BuildingBlock: BETDEL_clean_sbu_0, # of connection points: 6
#     Node 12, Type 0, BuildingBlock: BETDEL_clean_sbu_0, # of connection points: 6
#     Node 13, Type 0, BuildingBlock: BETDEL_clean_sbu_0, # of connection points: 6
#     Node 14, Type 0, BuildingBlock: BETDEL_clean_sbu_0, # of connection points: 6
#     Node 15, Type 0, BuildingBlock: BETDEL_clean_sbu_0, # of connection points: 6
#     Edge 16, Type (0, 0), BuildingBlock: ZUJKAS_clean_linker_0, # of connection points: 2
#     Edge 17, Type (0, 0), BuildingBlock: ZUJKAS_clean_linker_0, # of connection points: 2
#     Edge 18, Type (0, 0), BuildingBlock: ZUJKAS_clean_linker_0, # of connection points: 2
#     Edge 19, Type (0, 0), BuildingBlock: ZUJKAS_clean_linker_0, # of connection points: 2
#     Edge 20, Type (0, 0), BuildingBlock: ZUJKAS_clean_linker_0, # of connection points: 2
#     Edge 21, Type (0, 0), BuildingBlock: ZUJKAS_clean_linker_0, # of connection points: 2
#     Edge 22, Type (0, 0), BuildingBlock: ZUJKAS_clean_linker_0, # of connection points: 2
#     Edge 23, Type (0, 0), BuildingBlock: ZUJKAS_clean_linker_0, # of connection points: 2
#     Edge 24, Type (0, 0), BuildingBlock: ZUJKAS_clean_linker_0, # of connection points: 2
#     Edge 25, Type (0, 0), BuildingBlock: ZUJKAS_clean_linker_0, # of connection points: 2
#     Edge 26, Type (0, 0), BuildingBlock: ZUJKAS_clean_linker_0, # of connection points: 2
#     Edge 27, Type (0, 0), BuildingBlock: ZUJKAS_clean_linker_0, # of connection points: 2
#     Edge 28, Type (0, 0), BuildingBlock: ZUJKAS_clean_linker_0, # of connection points: 2
#     Edge 29, Type (0, 0), BuildingBlock: ZUJKAS_clean_linker_0, # of connection points: 2
#     Edge 30, Type (0, 0), BuildingBlock: ZUJKAS_clean_linker_0, # of connection points: 2
#     Edge 31, Type (0, 0), BuildingBlock: ZUJKAS_clean_linker_0, # of connection points: 2
#     Edge 32, Type (0, 0), BuildingBlock: ZUJKAS_clean_linker_0, # of connection points: 2
#     Edge 33, Type (0, 0), BuildingBlock: ZUJKAS_clean_linker_0, # of connection points: 2
#     Edge 34, Type (0, 0), BuildingBlock: ZUJKAS_clean_linker_0, # of connection points: 2
#     Edge 35, Type (0, 0), BuildingBlock: ZUJKAS_clean_linker_0, # of connection points: 2
#     Edge 36, Type (0, 0), BuildingBlock: ZUJKAS_clean_linker_0, # of connection points: 2
#     Edge 37, Type (0, 0), BuildingBlock: ZUJKAS_clean_linker_0, # of connection points: 2
#     Edge 38, Type (0, 0), BuildingBlock: ZUJKAS_clean_linker_0, # of connection points: 2
#     Edge 39, Type (0, 0), BuildingBlock: ZUJKAS_clean_linker_0, # of connection points: 2
#     Edge 40, Type (0, 0), BuildingBlock: ZUJKAS_clean_linker_0, # of connection points: 2
#     Edge 41, Type (0, 0), BuildingBlock: ZUJKAS_clean_linker_0, # of connection points: 2
#     Edge 42, Type (0, 0), BuildingBlock: ZUJKAS_clean_linker_0, # of connection points: 2
#     Edge 43, Type (0, 0), BuildingBlock: ZUJKAS_clean_linker_0, # of connection points: 2
#     Edge 44, Type (0, 0), BuildingBlock: ZUJKAS_clean_linker_0, # of connection points: 2
#     Edge 45, Type (0, 0), BuildingBlock: ZUJKAS_clean_linker_0, # of connection points: 2
#     Edge 46, Type (0, 0), BuildingBlock: ZUJKAS_clean_linker_0, # of connection points: 2
#     Edge 47, Type (0, 0), BuildingBlock: ZUJKAS_clean_linker_0, # of connection points: 2
#     Edge 48, Type (0, 0), BuildingBlock: ZUJKAS_clean_linker_0, # of connection points: 2
#     Edge 49, Type (0, 0), BuildingBlock: ZUJKAS_clean_linker_0, # of connection points: 2
#     Edge 50, Type (0, 0), BuildingBlock: ZUJKAS_clean_linker_0, # of connection points: 2
#     Edge 51, Type (0, 0), BuildingBlock: ZUJKAS_clean_linker_0, # of connection points: 2
#     Edge 52, Type (0, 0), BuildingBlock: ZUJKAS_clean_linker_0, # of connection points: 2
#     Edge 53, Type (0, 0), BuildingBlock: ZUJKAS_clean_linker_0, # of connection points: 2
#     Edge 54, Type (0, 0), BuildingBlock: ZUJKAS_clean_linker_0, # of connection points: 2
#     Edge 55, Type (0, 0), BuildingBlock: ZUJKAS_clean_linker_0, # of connection points: 2
#     Edge 56, Type (0, 0), BuildingBlock: ZUJKAS_clean_linker_0, # of connection points: 2
#     Edge 57, Type (0, 0), BuildingBlock: ZUJKAS_clean_linker_0, # of connection points: 2
#     Edge 58, Type (0, 0), BuildingBlock: ZUJKAS_clean_linker_0, # of connection points: 2
#     Edge 59, Type (0, 0), BuildingBlock: ZUJKAS_clean_linker_0, # of connection points: 2
#     Edge 60, Type (0, 0), BuildingBlock: ZUJKAS_clean_linker_0, # of connection points: 2
#     Edge 61, Type (0, 0), BuildingBlock: ZUJKAS_clean_linker_0, # of connection points: 2
#     Edge 62, Type (0, 0), BuildingBlock: ZUJKAS_clean_linker_0, # of connection points: 2
#     Edge 63, Type (0, 0), BuildingBlock: ZUJKAS_clean_linker_0, # of connection points: 2
# Relax obj value: 0.291
# Max RMSD: 0.277
# Mean RMSD: 0.277
data_MOF--net-wiu--node1-BETDEL_clean_sbu_0--edge1-ZUJKAS_clean_linker_0
_symmetry_space_group_name_H-M    P1
_symmetry_Int_Tables_number       1
_symmetry_cell_setting            triclinic
loop_
_symmetry_equiv_pos_as_xyz
'x, y, z'
_cell_length_a     39.994204
_cell_length_b     40.011421
_cell_length_c     75.047871
_cell_angle_alpha  89.922841
_cell_angle_beta   89.83791
_cell_angle_gamma 89.925118
loop_
_atom_site_label
_atom_site_type_symbol
_atom_site_fract_x
_atom_site_fract_y
_atom_site_fract_z
_atom_type_partial_charge
Dy0 Dy 0.27257 0.12834 0.12447 0.0
C1 C 0.37126 0.03614 0.10165 0.0
C2 C 0.22604 0.17709 0.1299 0.0
Dy3 Dy 0.31779 0.07323 0.11207 0.0
O4 O 0.23183 0.15254 0.14083 0.0
O5 O 0.24522 0.17446 0.11606 0.0
O6 O 0.31652 0.15796 0.13309 0.0
O7 O 0.32102 0.12784 0.11033 0.0
C8 C 0.33657 0.14687 0.12091 0.0
C9 C 0.25404 0.05493 0.11723 0.0
O10 O 0.32896 0.07278 0.14151 0.0
O11 O 0.28447 0.10549 0.1512 0.0
O12 O 0.34032 0.02666 0.1007 0.0
O13 O 0.37305 0.06561 0.10877 0.0
O14 O 0.27303 0.0409 0.10533 0.0
O15 O 0.27085 0.07482 0.12643 0.0
O16 O 0.25286 0.11644 0.09691 0.0
O17 O 0.30165 0.09377 0.08587 0.0
C18 C 0.3106 0.08585 0.15456 0.0
C19 C 0.27122 0.10571 0.0833 0.0
Dy20 Dy 0.59761 0.52064 0.37144 0.0
C21 C 0.68727 0.62142 0.34885 0.0
C22 C 0.55295 0.47374 0.38291 0.0
Dy23 Dy 0.65321 0.56864 0.36247 0.0
O24 O 0.55578 0.48463 0.36674 0.0
O25 O 0.57528 0.48793 0.39288 0.0
O26 O 0.56023 0.55352 0.358 0.0
O27 O 0.60098 0.57545 0.37057 0.0
C28 C 0.57601 0.58112 0.36081 0.0
C29 C 0.67297 0.50843 0.3738 0.0
O30 O 0.64991 0.58002 0.39143 0.0
O31 O 0.61802 0.53355 0.39888 0.0
O32 O 0.69904 0.59121 0.35 0.0
O33 O 0.65723 0.62273 0.35534 0.0
O34 O 0.69004 0.53542 0.37711 0.0
O35 O 0.64896 0.51495 0.36371 0.0
O36 O 0.61277 0.50151 0.34444 0.0
O37 O 0.63665 0.55101 0.3352 0.0
C38 C 0.63671 0.5597 0.40348 0.0
C39 C 0.62424 0.52106 0.3315 0.0
Dy40 Dy 0.19517 0.85043 0.62168 0.0
C41 C 0.10768 0.95224 0.59861 0.0
C42 C 0.22966 0.79867 0.63629 0.0
Dy43 Dy 0.1557 0.912 0.6125 0.0
O44 O 0.19931 0.80712 0.64028 0.0
O45 O 0.24175 0.81885 0.62431 0.0
O46 O 0.16082 0.81998 0.605 0.0
O47 O 0.14141 0.86058 0.61924 0.0
C48 C 0.13439 0.83763 0.60829 0.0
C49 C 0.21769 0.92402 0.62406 0.0
O50 O 0.14384 0.91082 0.64138 0.0
O51 O 0.18777 0.87562 0.64857 0.0
O52 O 0.1395 0.95874 0.59829 0.0
O53 O 0.10227 0.92417 0.60676 0.0
O54 O 0.19315 0.94486 0.62684 0.0
O55 O 0.20828 0.9006 0.61422 0.0
O56 O 0.21479 0.85791 0.59389 0.0
O57 O 0.17216 0.89376 0.58538 0.0
C58 C 0.16346 0.89657 0.65333 0.0
C59 C 0.19859 0.87501 0.58141 0.0
Dy60 Dy 0.87928 0.45396 0.8703 0.0
C61 C 0.78889 0.35426 0.84752 0.0
C62 C 0.92516 0.4995 0.88187 0.0
Dy63 Dy 0.82279 0.40684 0.86136 0.0
O64 O 0.92122 0.49002 0.86553 0.0
O65 O 0.90327 0.48472 0.89195 0.0
O66 O 0.91586 0.4197 0.85698 0.0
O67 O 0.87451 0.39938 0.8699 0.0
C68 C 0.89924 0.39271 0.86014 0.0
C69 C 0.80388 0.46765 0.87208 0.0
O70 O 0.82581 0.39556 0.89034 0.0
O71 O 0.85672 0.44274 0.89757 0.0
O72 O 0.77668 0.38419 0.84935 0.0
O73 O 0.81923 0.3531 0.85352 0.0
O74 O 0.78606 0.4411 0.87542 0.0
O75 O 0.82819 0.46046 0.86226 0.0
O76 O 0.86533 0.47307 0.84315 0.0
O77 O 0.84022 0.42412 0.83409 0.0
C78 C 0.83825 0.41643 0.90228 0.0
C79 C 0.85356 0.45367 0.83028 0.0
Dy80 Dy 0.66213 0.90303 0.95472 0.0
C81 C 0.75149 0.80066 0.93122 0.0
C82 C 0.612 0.93122 0.97366 0.0
Dy83 Dy 0.70779 0.84686 0.94455 0.0
O84 O 0.62874 0.94691 0.96131 0.0
O85 O 0.62211 0.90061 0.97515 0.0
O86 O 0.69616 0.94176 0.9421 0.0
O87 O 0.71565 0.89755 0.95298 0.0
C88 C 0.72254 0.92291 0.94391 0.0
C89 C 0.6464 0.82718 0.95522 0.0
O90 O 0.72933 0.85789 0.97162 0.0
O91 O 0.68431 0.88884 0.98147 0.0
O92 O 0.74752 0.80777 0.9479 0.0
O93 O 0.73212 0.81954 0.92169 0.0
O94 O 0.67354 0.81071 0.95833 0.0
O95 O 0.65308 0.85196 0.94552 0.0
O96 O 0.6473 0.8981 0.92623 0.0
O97 O 0.697 0.87248 0.91813 0.0
C98 C 0.71251 0.87248 0.98474 0.0
C99 C 0.66909 0.88878 0.91384 0.0
Dy100 Dy 0.32944 0.40949 0.70396 0.0
C101 C 0.42875 0.50033 0.67703 0.0
C102 C 0.29767 0.35723 0.71961 0.0
Dy103 Dy 0.38596 0.45627 0.69297 0.0
O104 O 0.28421 0.38639 0.71689 0.0
O105 O 0.32807 0.35667 0.71359 0.0
O106 O 0.29171 0.44336 0.69046 0.0
O107 O 0.33545 0.46286 0.70188 0.0
C108 C 0.31045 0.46972 0.69254 0.0
C109 C 0.40611 0.39531 0.70351 0.0
O110 O 0.37427 0.47705 0.72028 0.0
O111 O 0.34754 0.42941 0.73045 0.0
O112 O 0.40111 0.48957 0.67011 0.0
O113 O 0.43236 0.48778 0.69285 0.0
O114 O 0.42339 0.42227 0.70572 0.0
O115 O 0.38057 0.40191 0.69436 0.0
O116 O 0.33008 0.3964 0.67517 0.0
O117 O 0.36287 0.44153 0.66644 0.0
C118 C 0.36168 0.45887 0.73357 0.0
C119 C 0.34304 0.41579 0.66262 0.0
Dy120 Dy 0.81906 0.07324 0.45332 0.0
C121 C 0.72641 0.17619 0.43281 0.0
C122 C 0.87262 0.03982 0.4665 0.0
Dy123 Dy 0.77158 0.13003 0.44462 0.0
O124 O 0.84224 0.0283 0.46638 0.0
O125 O 0.87359 0.06919 0.45921 0.0
O126 O 0.78547 0.03631 0.43895 0.0
O127 O 0.76562 0.07856 0.45171 0.0
C128 C 0.75887 0.05449 0.44172 0.0
C129 C 0.83204 0.1503 0.45598 0.0
O130 O 0.75207 0.11508 0.47168 0.0
O131 O 0.80061 0.08871 0.48066 0.0
O132 O 0.73077 0.16762 0.44928 0.0
O133 O 0.7461 0.1587 0.42269 0.0
O134 O 0.80447 0.16629 0.45879 0.0
O135 O 0.82625 0.12585 0.44588 0.0
O136 O 0.83007 0.07696 0.42432 0.0
O137 O 0.78251 0.1076 0.4173 0.0
C138 C 0.77095 0.10195 0.48445 0.0
C139 C 0.80905 0.08952 0.41245 0.0
Dy140 Dy 0.16061 0.56634 0.20501 0.0
C141 C 0.05136 0.48869 0.1787 0.0
C142 C 0.19641 0.61725 0.21913 0.0
Dy143 Dy 0.10112 0.52411 0.19458 0.0
O144 O 0.2053 0.586 0.21972 0.0
O145 O 0.16838 0.6205 0.21068 0.0
O146 O 0.19639 0.53095 0.19112 0.0
O147 O 0.15164 0.51352 0.20254 0.0
C148 C 0.17632 0.50555 0.19312 0.0
C149 C 0.08555 0.58464 0.20767 0.0
O150 O 0.10909 0.50356 0.22216 0.0
O151 O 0.1416 0.54796 0.23175 0.0
O152 O 0.0618 0.51791 0.17383 0.0
O153 O 0.06858 0.47814 0.19228 0.0
O154 O 0.0682 0.55792 0.21062 0.0
O155 O 0.10927 0.57794 0.19716 0.0
O156 O 0.16078 0.57772 0.17599 0.0
O157 O 0.12797 0.53238 0.16817 0.0
C158 C 0.12435 0.52023 0.23511 0.0
C159 C 0.14817 0.55753 0.16379 0.0
Dy160 Dy 0.76819 0.62876 0.62266 0.0
C161 C 0.87147 0.542 0.59961 0.0
C162 C 0.72118 0.67699 0.62831 0.0
Dy163 Dy 0.81496 0.57491 0.60958 0.0
O164 O 0.7399 0.67432 0.61428 0.0
O165 O 0.72759 0.65263 0.63927 0.0
O166 O 0.81152 0.65894 0.63161 0.0
O167 O 0.81669 0.62967 0.60861 0.0
C168 C 0.83186 0.64862 0.61938 0.0
C169 C 0.75162 0.55507 0.61446 0.0
O170 O 0.8247 0.57269 0.6392 0.0
O171 O 0.7801 0.60505 0.64915 0.0
O172 O 0.84149 0.52962 0.59893 0.0
O173 O 0.87051 0.57203 0.60606 0.0
O174 O 0.77097 0.54172 0.60245 0.0
O175 O 0.768 0.5751 0.6238 0.0
O176 O 0.74833 0.61678 0.59517 0.0
O177 O 0.79718 0.59507 0.58352 0.0
C178 C 0.80609 0.58512 0.65234 0.0
C179 C 0.76644 0.6066 0.58134 0.0
Dy180 Dy 0.10242 0.02457 0.87266 0.0
C181 C 0.19497 0.12319 0.85059 0.0
C182 C 0.05507 0.98007 0.88381 0.0
Dy183 Dy 0.16017 0.07071 0.8641 0.0
O184 O 0.06078 0.98852 0.86744 0.0
O185 O 0.07603 -0.00472 0.89418 0.0
O186 O 0.06714 0.05905 0.85861 0.0
O187 O 0.10807 0.07904 0.87188 0.0
C188 C 0.08399 0.08587 0.86176 0.0
C189 C 0.1775 0.00977 0.87545 0.0
O190 O 0.15576 0.0823 0.89301 0.0
O191 O 0.12377 0.03567 0.90011 0.0
O192 O 0.2068 0.09306 0.85227 0.0
O193 O 0.16453 0.12455 0.85652 0.0
O194 O 0.19585 0.036 0.87864 0.0
O195 O 0.15379 0.01727 0.86535 0.0
O196 O 0.11764 0.00473 0.84586 0.0
O197 O 0.14396 0.0531 0.83672 0.0
C198 C 0.14229 0.06182 0.9049 0.0
C199 C 0.13034 0.02366 0.83299 0.0
Dy200 Dy 0.69726 0.3505 0.12026 0.0
C201 C 0.6077 0.44969 0.09623 0.0
C202 C 0.73144 0.2992 0.13557 0.0
Dy203 Dy 0.65693 0.41147 0.11045 0.0
O204 O 0.70187 0.30925 0.14013 0.0
O205 O 0.74292 0.3175 0.12261 0.0
O206 O 0.66376 0.31929 0.10341 0.0
O207 O 0.6435 0.35986 0.11723 0.0
C208 C 0.63703 0.33671 0.10634 0.0
C209 C 0.71783 0.42498 0.12297 0.0
O210 O 0.64466 0.41054 0.13933 0.0
O211 O 0.68881 0.37592 0.147 0.0
O212 O 0.63936 0.45689 0.09552 0.0
O213 O 0.60314 0.42206 0.10493 0.0
O214 O 0.69294 0.44579 0.12483 0.0
O215 O 0.70951 0.40106 0.11317 0.0
O216 O 0.71847 0.35897 0.09284 0.0
O217 O 0.67523 0.39344 0.08361 0.0
C218 C 0.66412 0.39664 0.15149 0.0
C219 C 0.70248 0.37554 0.08008 0.0
Dy220 Dy 0.37834 0.95133 0.37272 0.0
C221 C 0.28323 0.85732 0.34845 0.0
C222 C 0.42661 -0.01071 0.38814 0.0
Dy223 Dy 0.31965 0.908 0.36241 0.0
O224 O 0.41755 0.95978 0.3933 0.0
O225 O 0.40877 -0.00131 0.37456 0.0
O226 O 0.41277 0.91792 0.35758 0.0
O227 O 0.37115 0.89721 0.37039 0.0
C228 C 0.39562 0.89097 0.36025 0.0
C229 C 0.30343 0.9694 0.37345 0.0
O230 O 0.32063 0.89612 0.39132 0.0
O231 O 0.35121 0.94301 0.39902 0.0
O232 O 0.27433 0.88857 0.34815 0.0
O233 O 0.31165 0.85394 0.3565 0.0
O234 O 0.28377 0.94388 0.37603 0.0
O235 O 0.32805 0.96103 0.36413 0.0
O236 O 0.37174 0.96976 0.34466 0.0
O237 O 0.339 0.92513 0.33558 0.0
C238 C 0.33238 0.91687 0.40347 0.0
C239 C 0.35662 0.95246 0.33191 0.0
Dy240 Dy 0.15978 0.40698 0.45533 0.0
C241 C 0.24723 0.30101 0.43381 0.0
C242 C 0.10983 0.44368 0.47018 0.0
Dy243 Dy 0.20346 0.34837 0.44575 0.0
O244 O 0.14057 0.45369 0.46848 0.0
O245 O 0.10641 0.41407 0.46343 0.0
O246 O 0.19557 0.44207 0.44115 0.0
O247 O 0.2131 0.39874 0.45389 0.0
C248 C 0.22125 0.42277 0.4441 0.0
C249 C 0.14181 0.33087 0.45668 0.0
O250 O 0.22395 0.36081 0.47286 0.0
O251 O 0.1768 0.38879 0.4824 0.0
O252 O 0.2365 0.30389 0.45001 0.0
O253 O 0.23455 0.3246 0.42404 0.0
O254 O 0.16839 0.31321 0.45928 0.0
O255 O 0.14902 0.35557 0.44694 0.0
O256 O 0.14779 0.406 0.42644 0.0
O257 O 0.19133 0.37048 0.4185 0.0
C258 C 0.20565 0.37379 0.48591 0.0
C259 C 0.16671 0.39147 0.41417 0.0
Dy260 Dy 0.82601 0.90855 0.2043 0.0
C261 C 0.92882 -0.00323 0.17958 0.0
C262 C 0.79155 0.85723 0.21913 0.0
Dy263 Dy 0.8839 0.95353 0.1944 0.0
O264 O 0.77985 0.88732 0.21712 0.0
O265 O 0.82172 0.85525 0.21285 0.0
O266 O 0.78977 0.94272 0.19002 0.0
O267 O 0.83301 0.96188 0.20219 0.0
C268 C 0.80875 0.96882 0.19231 0.0
C269 C 0.90196 0.89245 0.20578 0.0
O270 O 0.87071 0.97503 0.22133 0.0
O271 O 0.84297 0.9278 0.23114 0.0
O272 O 0.90133 0.98705 0.17209 0.0
O273 O 0.93123 0.98351 0.19529 0.0
O274 O 0.91916 0.91924 0.2086 0.0
O275 O 0.87759 0.89923 0.1958 0.0
O276 O 0.82719 0.89574 0.17553 0.0
O277 O 0.86329 0.93854 0.1673 0.0
C278 C 0.85726 0.9571 0.23446 0.0
C279 C 0.8422 0.914 0.16316 0.0
Dy280 Dy 0.31922 0.56991 0.95196 0.0
C281 C 0.23013 0.67676 0.93426 0.0
C282 C 0.37115 0.53298 0.96434 0.0
Dy283 Dy 0.27452 0.62852 0.94434 0.0
O284 O 0.34013 0.52334 0.96451 0.0
O285 O 0.37361 0.5624 0.95722 0.0
O286 O 0.28379 0.53541 0.93732 0.0
O287 O 0.26565 0.57722 0.95123 0.0
C288 C 0.2578 0.55393 0.94092 0.0
C289 C 0.33662 0.64548 0.95479 0.0
O290 O 0.25492 0.61271 0.97117 0.0
O291 O 0.3036 0.58642 0.97965 0.0
O292 O 0.24148 0.67237 0.95022 0.0
O293 O 0.24252 0.6542 0.92372 0.0
O294 O 0.3101 0.66256 0.95847 0.0
O295 O 0.32896 0.62193 0.9445 0.0
O296 O 0.33056 0.57434 0.92308 0.0
O297 O 0.28548 0.60874 0.91642 0.0
C298 C 0.27422 0.59984 0.98379 0.0
C299 C 0.31085 0.58924 0.91137 0.0
Dy300 Dy 0.65299 0.06546 0.70386 0.0
C301 C 0.55126 0.97231 0.68267 0.0
C302 C 0.68606 0.11852 0.71774 0.0
Dy303 Dy 0.59652 0.018 0.69478 0.0
O304 O 0.69887 0.08887 0.71574 0.0
O305 O 0.65559 0.11912 0.71191 0.0
O306 O 0.68999 0.03146 0.68986 0.0
O307 O 0.64763 0.01185 0.70272 0.0
C308 C 0.67207 0.00485 0.69292 0.0
C309 C 0.57614 0.07929 0.70487 0.0
O310 O 0.61 -0.00096 0.72214 0.0
O311 O 0.6365 0.04741 0.73111 0.0
O312 O 0.55511 0.98109 0.69913 0.0
O313 O 0.57291 0.98786 0.67279 0.0
O314 O 0.55943 0.05221 0.70773 0.0
O315 O 0.60117 0.07259 0.69532 0.0
O316 O 0.65026 0.07656 0.67483 0.0
O317 O 0.61953 0.02924 0.66759 0.0
C318 C 0.62268 0.01809 0.73494 0.0
C319 C 0.63805 0.05554 0.66288 0.0
H320 H 0.37839 0.14014 0.09174 0.0
H321 H 0.43111 0.17053 0.08632 0.0
H322 H 0.42031 0.22002 0.13704 0.0
H323 H 0.3687 0.18971 0.14259 0.0
H324 H 0.44108 0.24017 0.08455 0.0
H325 H 0.51558 0.18572 0.13938 0.0
H326 H 0.47717 0.16705 0.1317 0.0
H327 H 0.47616 0.20147 0.14713 0.0
C328 C 0.38764 0.15719 0.10177 0.0
C329 C 0.36949 0.16253 0.11759 0.0
C330 C 0.4176 0.17461 0.09865 0.0
C331 C 0.42988 0.19724 0.11139 0.0
C332 C 0.41178 0.20222 0.12719 0.0
H333 H 0.57921 0.34993 0.1248 0.0
H334 H 0.52735 0.31705 0.12402 0.0
C335 C 0.38211 0.18495 0.13029 0.0
C336 C 0.46081 0.21694 0.10821 0.0
H337 H 0.53502 0.23811 0.12759 0.0
C338 C 0.46187 0.23937 0.09379 0.0
C339 C 0.48796 0.21589 0.12027 0.0
C340 C 0.48937 0.19098 0.13538 0.0
C341 C 0.48875 0.26169 0.09158 0.0
C342 C 0.51501 0.26156 0.10411 0.0
C343 C 0.51447 0.23851 0.11819 0.0
C344 C 0.54389 0.28455 0.10272 0.0
C345 C 0.48868 0.28592 0.07619 0.0
C346 C 0.56991 0.27753 0.09076 0.0
C347 C 0.59951 0.29603 0.09128 0.0
C348 C 0.60356 0.32193 0.10374 0.0
C349 C 0.57671 0.33022 0.11502 0.0
C350 C 0.54718 0.31142 0.11462 0.0
H351 H 0.46506 0.28485 0.06845 0.0
H352 H 0.49231 0.31179 0.08116 0.0
H353 H 0.50987 0.28011 0.06712 0.0
H354 H 0.5679 0.25676 0.08158 0.0
H355 H 0.61982 0.28913 0.08243 0.0
H356 H 0.59664 0.64229 0.3733 0.0
H357 H 0.56581 0.69537 0.37156 0.0
H358 H 0.48729 0.64647 0.34219 0.0
H359 H 0.51824 0.59398 0.34343 0.0
H360 H 0.50135 0.70691 0.32833 0.0
H361 H 0.48388 0.7168 0.40154 0.0
H362 H 0.52684 0.71444 0.39464 0.0
H363 H 0.49957 0.67942 0.39099 0.0
C364 C 0.57299 0.64306 0.36631 0.0
C365 C 0.55968 0.61399 0.35863 0.0
C366 C 0.55524 0.67326 0.36548 0.0
C367 C 0.52386 0.6747 0.35709 0.0
C368 C 0.5113 0.64594 0.34884 0.0
H369 H 0.37355 0.83064 0.37321 0.0
H370 H 0.40265 0.77662 0.37127 0.0
C371 C 0.52902 0.61593 0.34958 0.0
C372 C 0.50361 0.70585 0.35699 0.0
H373 H 0.46511 0.76261 0.38415 0.0
C374 C 0.49341 0.71908 0.34054 0.0
C375 C 0.49263 0.72129 0.37293 0.0
C376 C 0.50098 0.70714 0.39104 0.0
C377 C 0.47299 0.74759 0.33957 0.0
C378 C 0.46307 0.76376 0.35549 0.0
C379 C 0.47283 0.75026 0.37195 0.0
C380 C 0.4438 0.7955 0.35538 0.0
C381 C 0.4618 0.75977 0.3215 0.0
C382 C 0.45707 0.82387 0.34697 0.0
C383 C 0.44043 0.85447 0.34795 0.0
C384 C 0.41037 0.8575 0.35756 0.0
C385 C 0.39659 0.82897 0.36564 0.0
C386 C 0.41327 0.7982 0.36461 0.0
H387 H 0.46235 0.73934 0.31148 0.0
H388 H 0.43611 0.77027 0.32206 0.0
H389 H 0.47904 0.77967 0.31684 0.0
H390 H 0.48089 0.82262 0.3401 0.0
H391 H 0.45172 0.87606 0.34162 0.0
H392 H 0.07683 0.85138 0.62695 0.0
H393 H 0.02446 0.81929 0.62605 0.0
H394 H 0.06394 0.7592 0.58324 0.0
H395 H 0.11627 0.79085 0.58416 0.0
H396 H -0.00986 0.78206 0.58135 0.0
H397 H 0.02999 0.71651 0.64323 0.0
H398 H 0.03227 0.76145 0.64321 0.0
H399 H 0.05924 0.73785 0.62881 0.0
C400 C 0.07401 0.83184 0.61709 0.0
C401 C 0.10067 0.82337 0.60573 0.0
C402 C 0.0442 0.81347 0.61664 0.0
C403 C 0.04057 0.78669 0.6047 0.0
C404 C 0.06631 0.77971 0.59256 0.0
H405 H 0.87532 0.64178 0.59085 0.0
H406 H 0.92767 0.67297 0.58592 0.0
C407 C 0.09615 0.7978 0.59312 0.0
C408 C 0.01129 0.7641 0.60587 0.0
H409 H 0.97668 0.7034 0.63201 0.0
C410 C 0.98711 0.76477 0.59237 0.0
C411 C 0.00778 0.74133 0.62016 0.0
C412 C 0.03373 0.73887 0.63467 0.0
C413 C 0.95865 0.74411 0.59318 0.0
C414 C 0.95484 0.72167 0.60767 0.0
C415 C 0.97961 0.72051 0.6209 0.0
C416 C 0.92402 0.70147 0.61038 0.0
C417 C 0.93235 0.74742 0.57892 0.0
C418 C 0.9053 0.70619 0.62599 0.0
C419 C 0.87597 0.68823 0.6289 0.0
C420 C 0.86446 0.6651 0.61626 0.0
C421 C 0.88353 0.65959 0.60077 0.0
C422 C 0.91322 0.67761 0.59788 0.0
H423 H 0.93563 0.77057 0.57092 0.0
H424 H 0.93412 0.72574 0.56976 0.0
H425 H 0.9069 0.74757 0.58487 0.0
H426 H 0.91312 0.72426 0.63588 0.0
H427 H 0.86199 0.69294 0.64103 0.0
H428 H 0.04006 0.10491 0.83645 0.0
H429 H 0.01008 0.15802 0.83428 0.0
H430 H 0.06273 0.19424 0.88053 0.0
H431 H 0.09408 0.14165 0.8821 0.0
H432 H 0.96753 0.18257 0.85659 0.0
H433 H 0.07024 0.27414 0.84948 0.0
H434 H 0.0771 0.22976 0.84747 0.0
H435 H 0.07494 0.24907 0.86912 0.0
C436 C 0.04574 0.12456 0.8459 0.0
C437 C 0.06939 0.11936 0.85939 0.0
C438 C 0.0285 0.15482 0.84471 0.0
C439 C 0.03423 0.18035 0.85715 0.0
C440 C 0.05842 0.17536 0.87048 0.0
H441 H 0.88824 0.33695 0.88047 0.0
H442 H 0.91987 0.28449 0.87947 0.0
C443 C 0.07623 0.14526 0.87144 0.0
C444 C 0.01325 0.21106 0.85679 0.0
H445 H 0.01651 0.29626 0.8569 0.0
C446 C 0.97828 0.20744 0.8565 0.0
C447 C 0.02717 0.24355 0.85647 0.0
C448 C 0.06441 0.24939 0.85546 0.0
C449 C 0.9569 0.23528 0.85597 0.0
C450 C 0.9708 0.26776 0.85647 0.0
C451 C 0.00577 0.27138 0.85667 0.0
C452 C 0.94979 0.29847 0.85651 0.0
C453 C 0.91974 0.22943 0.85442 0.0
C454 C 0.95626 0.32403 0.84413 0.0
C455 C 0.93885 0.35423 0.84501 0.0
C456 C 0.9143 0.35933 0.85812 0.0
C457 C 0.90681 0.33342 0.8701 0.0
C458 C 0.92477 0.30338 0.86947 0.0
H459 H 0.91429 0.2047 0.84838 0.0
H460 H 0.90838 0.2297 0.86793 0.0
H461 H 0.90755 0.24908 0.84624 0.0
H462 H 0.97533 0.32088 0.83399 0.0
H463 H 0.94503 0.37388 0.83562 0.0
H464 H 0.5906 0.83888 0.93506 0.0
H465 H 0.53802 0.80751 0.93579 0.0
H466 H 0.57441 0.74974 0.98034 0.0
H467 H 0.62753 0.77984 0.97898 0.0
H468 H 0.54844 0.70974 0.95732 0.0
H469 H 0.4587 0.81338 0.96734 0.0
H470 H 0.48352 0.81934 0.94768 0.0
H471 H 0.50322 0.81922 0.96925 0.0
C472 C 0.58709 0.81982 0.94516 0.0
C473 C 0.61303 0.81176 0.95699 0.0
C474 C 0.55696 0.80198 0.94564 0.0
C475 C 0.55191 0.77645 0.95828 0.0
C476 C 0.5776 0.76922 0.97043 0.0
H477 H 0.35729 0.68929 0.9798 0.0
H478 H 0.41083 0.71853 0.98129 0.0
C479 C 0.60789 0.78654 0.96972 0.0
C480 C 0.52078 0.75598 0.95833 0.0
H481 H 0.43555 0.76082 0.95898 0.0
C482 C 0.52376 0.72095 0.95783 0.0
C483 C 0.48848 0.77043 0.95919 0.0
C484 C 0.48325 0.80762 0.96109 0.0
C485 C 0.49552 0.70007 0.95811 0.0
C486 C 0.46321 0.71457 0.9582 0.0
C487 C 0.46024 0.74959 0.95876 0.0
C488 C 0.43204 0.69415 0.95811 0.0
C489 C 0.50077 0.66273 0.95881 0.0
C490 C 0.42618 0.67009 0.94481 0.0
C491 C 0.39579 0.65271 0.94423 0.0
C492 C 0.37043 0.65979 0.95665 0.0
C493 C 0.37647 0.68338 0.97008 0.0
C494 C 0.407 0.70022 0.97087 0.0
H495 H 0.52563 0.6563 0.96444 0.0
H496 H 0.48121 0.65027 0.96697 0.0
H497 H 0.49978 0.65249 0.94509 0.0
H498 H 0.44463 0.6655 0.93452 0.0
H499 H 0.39158 0.63492 0.93361 0.0
H500 H 0.5187 0.09465 0.7222 0.0
H501 H 0.48962 0.14829 0.72298 0.0
H502 H 0.56987 0.19342 0.69292 0.0
H503 H 0.59882 0.13926 0.69169 0.0
H504 H 0.50642 0.20901 0.73618 0.0
H505 H 0.48829 0.21645 0.66297 0.0
H506 H 0.50244 0.17889 0.67395 0.0
H507 H 0.53119 0.21248 0.66964 0.0
C508 C 0.53026 0.11602 0.7158 0.0
C509 C 0.56088 0.11275 0.70674 0.0
C510 C 0.51361 0.14668 0.71628 0.0
C511 C 0.52721 0.17472 0.70771 0.0
C512 C 0.55853 0.1719 0.69927 0.0
H513 H 0.46338 0.3796 0.72076 0.0
H514 H 0.49099 0.32528 0.72248 0.0
C515 C 0.5752 0.14108 0.69872 0.0
C516 C 0.50815 0.2066 0.70752 0.0
H517 H 0.47165 0.26374 0.67984 0.0
C518 C 0.4988 0.22097 0.72386 0.0
C519 C 0.49758 0.22179 0.69145 0.0
C520 C 0.50507 0.2065 0.6735 0.0
C521 C 0.47969 0.25042 0.72456 0.0
C522 C 0.47022 0.26628 0.70848 0.0
C523 C 0.47906 0.25162 0.69215 0.0
C524 C 0.45221 0.29874 0.70829 0.0
C525 C 0.46939 0.26395 0.74252 0.0
C526 C 0.42133 0.30204 0.69955 0.0
C527 C 0.40554 0.33325 0.69843 0.0
C528 C 0.42057 0.36164 0.70593 0.0
C529 C 0.45115 0.35812 0.71492 0.0
C530 C 0.46688 0.32704 0.71601 0.0
H531 H 0.46964 0.24413 0.7529 0.0
H532 H 0.4873 0.28363 0.74661 0.0
H533 H 0.444 0.27516 0.74202 0.0
H534 H 0.40966 0.28052 0.69342 0.0
H535 H 0.38209 0.33531 0.69132 0.0
H536 H 0.08201 0.35362 0.44314 0.0
H537 H 0.02762 0.325 0.44465 0.0
H538 H 0.07218 0.24609 0.47583 0.0
H539 H 0.12582 0.2747 0.47475 0.0
H540 H 0.01256 0.26268 0.43179 0.0
H541 H 0.98906 0.26592 0.50442 0.0
H542 H 0.02038 0.29166 0.49384 0.0
H543 H 0.02931 0.24869 0.4992 0.0
C544 C 0.07991 0.33051 0.45059 0.0
C545 C 0.10809 0.31639 0.45884 0.0
C546 C 0.04895 0.31411 0.45138 0.0
C547 C 0.04573 0.28357 0.46054 0.0
C548 C 0.07379 0.26993 0.46903 0.0
H549 H 0.89321 0.13055 0.44272 0.0
H550 H 0.94593 0.16194 0.44411 0.0
C551 C 0.10453 0.28625 0.4683 0.0
C552 C 0.01376 0.26471 0.46044 0.0
H553 H 0.95718 0.22624 0.48774 0.0
C554 C 0.00024 0.25496 0.44401 0.0
C555 C -0.00241 0.25482 0.47639 0.0
C556 C 0.00964 0.26611 0.49445 0.0
C557 C 0.97136 0.23506 0.4431 0.0
C558 C 0.95605 0.22393 0.45907 0.0
C559 C 0.96924 0.23425 0.47549 0.0
C560 C 0.92513 0.20333 0.4591 0.0
C561 C 0.95719 0.22672 0.42502 0.0
C562 C 0.89644 0.2153 0.46779 0.0
C563 C 0.86668 0.1972 0.46729 0.0
C564 C 0.86487 0.16674 0.45803 0.0
C565 C 0.89388 0.15401 0.4499 0.0
C566 C 0.92386 0.17211 0.45051 0.0
H567 H 0.96645 0.24412 0.41457 0.0
H568 H 0.96499 0.20106 0.42126 0.0
H569 H 0.92945 0.22767 0.4252 0.0
H570 H 0.89682 0.23915 0.47461 0.0
H571 H 0.84479 0.20758 0.47378 0.0
H572 H 0.09676 0.64086 0.18773 0.0
H573 H 0.0653 0.69335 0.18902 0.0
H574 H 0.01027 0.6566 0.23455 0.0
H575 H 0.04048 0.60354 0.23267 0.0
H576 H 0.96877 0.68159 0.21184 0.0
H577 H 0.07107 0.77303 0.22013 0.0
H578 H 0.07695 0.74812 0.20055 0.0
H579 H 0.07783 0.72864 0.22221 0.0
C580 C 0.07839 0.64431 0.1982 0.0
C581 C 0.07102 0.61824 0.21012 0.0
C582 C 0.06049 0.67438 0.19899 0.0
C583 C 0.03558 0.67923 0.21202 0.0
C584 C 0.02926 0.65354 0.22435 0.0
H585 H 0.94591 0.87372 0.23115 0.0
H586 H 0.97558 0.8205 0.23369 0.0
C587 C 0.04665 0.6233 0.22334 0.0
C588 C 0.01455 0.70998 0.21214 0.0
H589 H 0.01792 0.7952 0.2117 0.0
C590 C 0.97956 0.70644 0.21198 0.0
C591 C 0.02845 0.74248 0.21253 0.0
C592 C 0.06561 0.74832 0.21406 0.0
C593 C 0.95818 0.73434 0.21206 0.0
C594 C 0.97212 0.76683 0.21159 0.0
C595 C 0.0071 0.77036 0.21189 0.0
C596 C 0.95118 0.79764 0.21105 0.0
C597 C 0.92093 0.72856 0.21309 0.0
C598 C 0.92689 0.80243 0.19774 0.0
C599 C 0.90924 0.83263 0.19658 0.0
C600 C 0.91631 0.85885 0.20839 0.0
C601 C 0.94004 0.85385 0.22188 0.0
C602 C 0.95711 0.82351 0.22327 0.0
H603 H 0.91508 0.70395 0.21922 0.0
H604 H 0.90825 0.74837 0.22095 0.0
H605 H 0.91043 0.72858 0.19942 0.0
H606 H 0.9224 0.78331 0.18785 0.0
H607 H 0.89133 0.83605 0.18592 0.0
H608 H 0.43752 0.05142 0.10293 0.0
H609 H 0.48054 0.03324 0.08172 0.0
H610 H 0.40826 0.97008 0.05562 0.0
H611 H 0.36593 0.98668 0.0773 0.0
H612 H 0.46536 0.94055 0.05618 0.0
H613 H 0.48471 0.07021 1.03233 0.0
H614 H 0.49406 0.06567 0.05555 0.0
H615 H 0.45196 0.05927 0.04781 0.0
C616 C 0.43118 0.03303 0.09291 0.0
C617 C 0.39852 0.02056 0.09159 0.0
C618 C 0.45555 0.02309 0.08066 0.0
C619 C 0.4472 0.00131 0.06672 0.0
C620 C 0.41511 0.98723 0.06615 0.0
H621 H 0.56192 0.9769 0.96795 0.0
H622 H 0.5204 -0.00449 0.99022 0.0
C623 C 0.391 -0.00339 0.07859 0.0
C624 C 0.47144 -0.00641 0.05242 0.0
H625 H 0.52266 0.02909 1.02126 0.0
C626 C 0.47775 0.95993 0.0485 0.0
C627 C 0.48683 0.01893 0.04206 0.0
C628 C 0.47877 0.05551 0.0445 0.0
C629 C 0.49953 0.95083 0.03474 0.0
C630 C 0.51669 0.97614 1.02521 0.0
C631 C 0.50982 0.00981 1.02879 0.0
C632 C 0.54277 0.96784 1.01201 0.0
C633 C 0.50342 0.91417 1.0304 0.0
C634 C 0.56957 0.94747 1.01712 0.0
C635 C 0.59237 0.93633 1.00449 0.0
C636 C 0.5895 0.9464 0.98667 0.0
C637 C 0.56429 0.96884 0.98167 0.0
C638 C 0.54074 0.97936 0.99433 0.0
H639 H 0.4808 0.89979 0.03429 0.0
H640 H 0.50809 0.91022 1.01596 0.0
H641 H 0.52484 0.9038 0.03798 0.0
H642 H 0.57232 0.93938 1.03082 0.0
H643 H 0.61214 0.9195 1.00864 0.0
H644 H 0.66339 0.68431 0.34464 0.0
H645 H 0.68193 0.72545 0.32261 0.0
H646 H 0.76308 0.66038 0.30722 0.0
H647 H 0.74451 0.6189 0.32919 0.0
H648 H 0.74539 0.75795 0.31587 0.0
H649 H 0.70475 0.67266 0.2616 0.0
H650 H 0.69233 0.66682 0.28454 0.0
H651 H 0.7336 0.65511 0.27739 0.0
C652 C 0.6856 0.6791 0.33681 0.0
C653 C 0.70239 0.64842 0.3384 0.0
C654 C 0.69609 0.70255 0.32426 0.0
C655 C 0.72336 0.69547 0.31315 0.0
C656 C 0.74161 0.66586 0.31556 0.0
H657 H 0.81451 0.7943 0.22429 0.0
H658 H 0.7949 0.75427 0.24661 0.0
C659 C 0.73115 0.64239 0.32814 0.0
C660 C 0.73118 0.71807 0.29825 0.0
H661 H 0.73087 0.72313 0.25289 0.0
C662 C 0.74219 0.75047 0.30209 0.0
C663 C 0.7266 0.70805 0.28037 0.0
C664 C 0.71341 0.67387 0.27564 0.0
C665 C 0.74957 0.77308 0.28839 0.0
C666 C 0.74516 0.763 0.2705 0.0
C667 C 0.73398 0.73065 0.26666 0.0
C668 C 0.7538 0.78523 0.25558 0.0
C669 C 0.7628 0.80725 0.2931 0.0
C670 C 0.73614 0.81509 0.25282 0.0
C671 C 0.74721 0.83795 0.24005 0.0
C672 C 0.776 0.83104 0.22997 0.0
C673 C 0.79229 0.80019 0.23197 0.0
C674 C 0.78119 0.77737 0.24469 0.0
H675 H 0.77096 0.80864 0.30722 0.0
H676 H 0.78425 0.81401 0.28439 0.0
H677 H 0.74281 0.82611 0.29105 0.0
H678 H 0.71458 0.82119 0.26096 0.0
H679 H 0.73424 0.8616 0.23868 0.0
H680 H 0.04166 0.93799 0.5969 0.0
H681 H 0.0027 0.95649 0.57391 0.0
H682 H 0.07791 0.02266 0.55252 0.0
H683 H 0.11734 0.0038 0.5754 0.0
H684 H 0.9778 0.01882 0.56237 0.0
H685 H 0.05824 0.95678 0.51155 0.0
H686 H 0.06374 0.9503 0.53516 0.0
H687 H 0.07844 0.98809 0.52485 0.0
C688 C 0.04963 0.95705 0.58755 0.0
C689 C 0.08252 0.96921 0.5877 0.0
C690 C 0.02741 0.96753 0.57444 0.0
C691 C 0.03784 -0.00975 0.56134 0.0
C692 C 0.06978 0.00455 0.56235 0.0
H693 H 0.93638 0.06235 0.46771 0.0
H694 H 0.97844 0.04791 0.49004 0.0
C695 C 0.0921 -0.006 0.57548 0.0
C696 C 0.01606 -0.00328 0.54595 0.0
H697 H 0.00931 0.98341 0.50118 0.0
C698 C 0.98467 0.01121 0.54898 0.0
C699 C 0.02518 0.98637 0.52857 0.0
C700 C 0.0581 0.96925 0.52477 0.0
C701 C 0.96206 0.01586 0.535 0.0
C702 C 0.97109 0.00529 0.51768 0.0
C703 C 0.00261 -0.00881 0.51457 0.0
C704 C 0.94822 0.0097 0.50257 0.0
C705 C 0.92879 0.03229 0.53878 0.0
C706 C 0.91821 -0.0083 0.50182 0.0
C707 C 0.89424 -0.00026 0.48904 0.0
C708 C 0.90016 0.02591 0.47699 0.0
C709 C 0.93127 0.04212 0.47693 0.0
C710 C 0.95524 0.03398 0.48965 0.0
H711 H 0.92831 0.04461 0.55204 0.0
H712 H 0.9229 0.05122 0.52841 0.0
H713 H 0.90881 0.01308 0.53855 0.0
H714 H 0.91273 0.97256 0.51163 0.0
H715 H 0.8704 0.98691 0.48931 0.0
H716 H 0.81366 0.29211 0.84194 0.0
H717 H 0.79464 0.25174 0.81976 0.0
H718 H 0.71154 0.31604 0.80671 0.0
H719 H 0.73065 0.3568 0.82883 0.0
H720 H 0.73223 0.21818 0.81412 0.0
H721 H 0.76574 0.30655 0.75961 0.0
H722 H 0.77963 0.31218 0.78228 0.0
H723 H 0.73746 0.32253 0.77621 0.0
C724 C 0.79097 0.29732 0.83458 0.0
C725 C 0.77373 0.3276 0.8369 0.0
C726 C 0.7802 0.27432 0.82193 0.0
C727 C 0.75217 0.28139 0.81142 0.0
C728 C 0.7336 0.31057 0.81454 0.0
H729 H 0.6604 0.18031 0.72328 0.0
H730 H 0.67882 0.221 0.74546 0.0
C731 C 0.74436 0.33363 0.82722 0.0
C732 C 0.74374 0.2591 0.79652 0.0
H733 H 0.74124 0.25529 0.75113 0.0
C734 C 0.73418 0.22619 0.80034 0.0
C735 C 0.74663 0.26981 0.77861 0.0
C736 C 0.75819 0.3046 0.77384 0.0
C737 C 0.72682 0.20368 0.78663 0.0
C738 C 0.72977 0.21437 0.76873 0.0
C739 C 0.73926 0.24729 0.76491 0.0
C740 C 0.72166 0.19196 0.75383 0.0
C741 C 0.7153 0.16887 0.7914 0.0
C742 C 0.74064 0.16302 0.75075 0.0
C743 C 0.73025 0.1398 0.73806 0.0
C744 C 0.70082 0.1454 0.72837 0.0
C745 C 0.68315 0.17543 0.73066 0.0
C746 C 0.69357 0.19862 0.7433 0.0
H747 H 0.7077 0.16691 0.80561 0.0
H748 H 0.6939 0.16126 0.78293 0.0
H749 H 0.73606 0.15097 0.78904 0.0
H750 H 0.76274 0.15787 0.7586 0.0
H751 H 0.74429 0.11681 0.73648 0.0
H752 H 0.3239 0.29589 0.72567 0.0
H753 H 0.30561 0.25531 0.74798 0.0
H754 H 0.22159 0.31835 0.76128 0.0
H755 H 0.23995 0.35933 0.73896 0.0
H756 H 0.26346 0.3 0.79044 0.0
H757 H 0.22611 0.18996 0.7501 0.0
H758 H 0.26621 0.20719 0.74441 0.0
H759 H 0.22905 0.23157 0.74086 0.0
C760 C 0.3011 0.30073 0.73306 0.0
C761 C 0.28329 0.33065 0.73068 0.0
C762 C 0.29065 0.27751 0.74574 0.0
C763 C 0.26219 0.28385 0.75614 0.0
C764 C 0.24356 0.31309 0.75327 0.0
H765 H 0.17122 0.18591 0.84572 0.0
H766 H 0.19091 0.22689 0.82398 0.0
C767 C 0.25395 0.33632 0.74052 0.0
C768 C 0.25389 0.26147 0.77109 0.0
H769 H 0.23251 0.18127 0.78123 0.0
C770 C 0.25645 0.27409 0.78847 0.0
C771 C 0.24517 0.22769 0.76837 0.0
C772 C 0.24117 0.21328 0.74993 0.0
C773 C 0.25088 0.25355 0.80331 0.0
C774 C 0.24211 0.21978 0.80059 0.0
C775 C 0.23958 0.20717 0.78321 0.0
C776 C 0.23348 0.1974 0.81551 0.0
C777 C 0.25495 0.26799 0.82174 0.0
C778 C 0.25121 0.1675 0.81806 0.0
C779 C 0.23996 0.14399 0.83046 0.0
C780 C 0.21068 0.15008 0.84027 0.0
C781 C 0.19396 0.18074 0.83834 0.0
C782 C 0.20523 0.2042 0.82599 0.0
H783 H 0.27061 0.2909 0.82157 0.0
H784 H 0.22998 0.27483 0.82711 0.0
H785 H 0.26642 0.24949 0.83093 0.0
H786 H 0.27301 0.16186 0.81 0.0
H787 H 0.25314 0.12044 0.83168 0.0
H788 H 0.23148 0.86305 0.32515 0.0
H789 H 0.21394 0.82095 0.3034 0.0
H790 H 0.28356 0.75039 0.32609 0.0
H791 H 0.3009 0.79207 0.34788 0.0
H792 H 0.26142 0.79466 0.27929 0.0
H793 H 0.19933 0.69404 0.31811 0.0
H794 H 0.20445 0.73594 0.32661 0.0
H795 H 0.23887 0.70701 0.32702 0.0
C796 C 0.24223 0.83822 0.32581 0.0
C797 C 0.26758 0.83069 0.33806 0.0
C798 C 0.23232 0.81432 0.31338 0.0
C799 C 0.24742 0.78266 0.31325 0.0
C800 C 0.27127 0.77453 0.32619 0.0
H801 H 0.24747 0.61209 0.2429 0.0
H802 H 0.26401 0.65447 0.26473 0.0
C803 C 0.28122 0.79837 0.33857 0.0
C804 C 0.24149 0.75958 0.29836 0.0
H805 H 0.21596 0.68063 0.28847 0.0
C806 C 0.25119 0.76981 0.28122 0.0
C807 C 0.22858 0.72716 0.30109 0.0
C808 C 0.21692 0.71541 0.31918 0.0
C809 C 0.24877 0.74814 0.26666 0.0
C810 C 0.23593 0.71569 0.26939 0.0
C811 C 0.22615 0.70549 0.28653 0.0
C812 C 0.23048 0.69241 0.25454 0.0
C813 C 0.26047 0.75988 0.24858 0.0
C814 C 0.20693 0.70026 0.24139 0.0
C815 C 0.19759 0.67626 0.22896 0.0
C816 C 0.21151 0.64407 0.22963 0.0
C817 C 0.23652 0.63682 0.24212 0.0
C818 C 0.24585 0.66088 0.25459 0.0
H819 H 0.27791 0.78138 0.24964 0.0
H820 H 0.27314 0.7394 0.2412 0.0
H821 H 0.23853 0.76809 0.24068 0.0
H822 H 0.19443 0.72429 0.24135 0.0
H823 H 0.17814 0.68235 0.21947 0.0
H824 H 0.11703 0.49949 0.4906 0.0
H825 H 0.07806 0.51941 0.51357 0.0
H826 H 0.00759 0.44295 0.49861 0.0
H827 H 0.04611 0.42321 0.47558 0.0
H828 H 0.97865 0.50622 0.50576 0.0
H829 H 0.0644 0.46351 0.55952 0.0
H830 H 0.08192 0.49209 0.54353 0.0
H831 H 0.06956 0.45101 0.53657 0.0
C832 C 0.09292 0.48745 0.49199 0.0
C833 C 0.08455 0.45972 0.48148 0.0
C834 C 0.07089 0.49862 0.50518 0.0
C835 C 0.04041 0.4821 0.50797 0.0
C836 C 0.03117 0.45579 0.49671 0.0
H837 H 0.87438 0.48408 0.58077 0.0
H838 H 0.9183 0.46797 0.55964 0.0
C839 C 0.05313 0.44462 0.48356 0.0
C840 C 0.01862 0.49093 0.5231 0.0
H841 H 0.01367 0.48871 0.56852 0.0
C842 C 0.98629 0.50252 0.51949 0.0
C843 C 0.02882 0.48584 0.54095 0.0
C844 C 0.06296 0.47218 0.54547 0.0
C845 C 0.96371 0.50923 0.5333 0.0
C846 C 0.97372 0.50367 0.55111 0.0
C847 C 0.00622 0.49265 0.55479 0.0
C848 C 0.95052 0.50963 0.56602 0.0
C849 C 0.92936 0.52236 0.52878 0.0
C850 C 0.95525 0.53724 0.57718 0.0
C851 C 0.93033 0.54641 0.58927 0.0
C852 C 0.90054 0.52795 0.5903 0.0
C853 C 0.89711 0.49873 0.58015 0.0
C854 C 0.92202 0.48962 0.56806 0.0
H855 H 0.928 0.53167 0.51485 0.0
H856 H 0.91081 0.50196 0.53036 0.0
H857 H 0.92212 0.54295 0.53794 0.0
H858 H 0.97727 0.55279 0.57579 0.0
H859 H 0.93354 0.56903 0.59699 0.0
H860 H 0.5419 0.43418 0.0956 0.0
H861 H 0.50183 0.44987 0.07256 0.0
H862 H 0.5751 0.51529 0.04872 0.0
H863 H 0.61562 0.4993 0.07168 0.0
H864 H 0.47573 0.5112 0.05964 0.0
H865 H 0.55482 0.44484 1.00982 0.0
H866 H 0.56103 0.44057 0.03353 0.0
H867 H 0.57542 0.47735 1.02211 0.0
C868 C 0.5492 0.45251 0.08569 0.0
C869 C 0.58186 0.46527 0.0852 0.0
C870 C 0.52635 0.46137 0.07255 0.0
C871 C 0.53594 0.48303 0.05879 0.0
C872 C 0.56763 0.49798 0.0591 0.0
H873 H 0.43619 0.55145 0.96479 0.0
H874 H 0.4777 0.5354 0.98707 0.0
C875 C 0.59057 0.48908 0.07226 0.0
C876 C 0.51357 0.48778 0.04347 0.0
H877 H 0.50601 0.47134 0.99906 0.0
C878 C 0.48227 0.50253 0.04639 0.0
C879 C 0.52228 0.47601 1.0263 0.0
C880 C 0.55508 0.45854 1.0227 0.0
C881 C 0.45947 0.5064 1.03243 0.0
C882 C 0.4682 0.49467 1.01527 0.0
C883 C 0.49951 0.47999 1.01232 0.0
C884 C 0.44563 0.49927 1.00005 0.0
C885 C 0.42649 0.52354 0.03603 0.0
C886 C 0.41471 0.48281 0.99953 0.0
C887 C 0.39101 0.49182 0.98679 0.0
C888 C 0.39813 0.51738 0.97455 0.0
C889 C 0.43013 0.53175 0.97418 0.0
C890 C 0.4538 0.52268 0.98687 0.0
H891 H 0.42629 0.53656 0.0491 0.0
H892 H 0.42082 0.54202 1.0254 0.0
H893 H 0.40621 0.50464 0.03613 0.0
H894 H 0.40833 0.46433 1.00954 0.0
H895 H 0.36648 0.4804 0.98728 0.0
H896 H 0.21282 0.22908 0.1079 0.0
H897 H 0.19806 0.28586 0.11699 0.0
H898 H 0.18535 0.25215 0.1712 0.0
H899 H 0.20038 0.19516 0.1622 0.0
H900 H 0.14388 0.31764 0.13675 0.0
H901 H 0.26676 0.3182 0.17129 0.0
H902 H 0.25535 0.28655 0.15532 0.0
H903 H 0.23897 0.28493 0.17762 0.0
C904 C 0.2059 0.23359 0.12166 0.0
C905 C 0.20816 0.208 0.13443 0.0
C906 C 0.19751 0.26599 0.12681 0.0
C907 C 0.19139 0.27312 0.14479 0.0
C908 C 0.19051 0.24701 0.15729 0.0
H909 H 0.13481 0.45308 0.19733 0.0
H910 H 0.13875 0.39818 0.18358 0.0
C911 C 0.19884 0.21452 0.15213 0.0
C912 C 0.18993 0.30821 0.15068 0.0
H913 H 0.23285 0.36622 0.17474 0.0
C914 C 0.16326 0.32834 0.14505 0.0
C915 C 0.21585 0.32216 0.16106 0.0
C916 C 0.24605 0.30201 0.16658 0.0
C917 C 0.16125 0.36201 0.15012 0.0
C918 C 0.18641 0.37552 0.16118 0.0
C919 C 0.2136 0.35565 0.1663 0.0
C920 C 0.18375 0.40942 0.16869 0.0
C921 C 0.13229 0.38287 0.14361 0.0
C922 C 0.20831 0.43365 0.16517 0.0
C923 C 0.20621 0.46522 0.17312 0.0
C924 C 0.17972 0.47257 0.18477 0.0
C925 C 0.15541 0.44812 0.18832 0.0
C926 C 0.15746 0.41682 0.18038 0.0
H927 H 0.12089 0.37205 0.13143 0.0
H928 H 0.11273 0.38379 0.15412 0.0
H929 H 0.14029 0.40888 0.14068 0.0
H930 H 0.22899 0.42812 0.1563 0.0
H931 H 0.22516 0.48375 0.17017 0.0
H932 H 0.53544 0.46178 0.41748 0.0
H933 H 0.47958 0.44634 0.42819 0.0
H934 H 0.44676 0.43364 0.37389 0.0
H935 H 0.50247 0.44829 0.3632 0.0
H936 H 0.4255 0.48522 0.4198 0.0
H937 H 0.4031 0.35471 0.39837 0.0
H938 H 0.44443 0.37272 0.39926 0.0
H939 H 0.41754 0.38106 0.38059 0.0
C940 C 0.5166 0.45449 0.4079 0.0
C941 C 0.52308 0.45635 0.38954 0.0
C942 C 0.48471 0.4459 0.414 0.0
C943 C 0.45909 0.43885 0.40182 0.0
C944 C 0.46628 0.43844 0.38353 0.0
H945 H 0.24512 0.47075 0.4211 0.0
H946 H 0.30284 0.47576 0.40986 0.0
C947 C 0.49811 0.44692 0.37744 0.0
C948 C 0.42407 0.43619 0.40798 0.0
H949 H 0.35487 0.38663 0.40653 0.0
C950 C 0.41009 0.46355 0.41705 0.0
C951 C 0.40409 0.40796 0.40428 0.0
C952 C 0.41813 0.37732 0.39524 0.0
C953 C 0.37654 0.4635 0.42249 0.0
C954 C 0.35635 0.43562 0.4184 0.0
C955 C 0.37036 0.40819 0.4094 0.0
C956 C 0.32139 0.43308 0.42465 0.0
C957 C 0.36323 0.49291 0.4329 0.0
C958 C 0.31278 0.40717 0.43633 0.0
C959 C 0.28018 0.4042 0.44256 0.0
C960 C 0.25546 0.42712 0.43728 0.0
C961 C 0.26386 0.45301 0.42547 0.0
C962 C 0.29672 0.45591 0.41913 0.0
H963 H 0.38369 0.50873 0.43825 0.0
H964 H 0.34762 0.50867 0.42403 0.0
H965 H 0.34736 0.4844 0.44419 0.0
H966 H 0.33141 0.38931 0.44073 0.0
H967 H 0.27443 0.38383 0.45157 0.0
H968 H 0.20716 0.75896 0.66275 0.0
H969 H 0.22812 0.70403 0.67122 0.0
H970 H 0.30819 0.71332 0.63289 0.0
H971 H 0.28692 0.76871 0.62415 0.0
H972 H 0.27119 0.65309 0.63043 0.0
H973 H 0.31095 0.67768 0.6998 0.0
H974 H 0.26936 0.69233 0.69538 0.0
H975 H 0.30424 0.71074 0.68379 0.0
C976 C 0.22958 0.74959 0.65633 0.0
C977 C 0.24552 0.76795 0.64283 0.0
C978 C 0.24157 0.71827 0.66123 0.0
C979 C 0.26984 0.70486 0.65279 0.0
C980 C 0.28641 0.72347 0.63958 0.0
H981 H 0.35413 0.5209 0.69267 0.0
H982 H 0.34648 0.57685 0.68076 0.0
C983 C 0.27441 0.75503 0.63469 0.0
C984 C 0.28035 0.67048 0.65713 0.0
H985 H 0.30072 0.62045 0.6922 0.0
C986 C 0.27818 0.64591 0.64386 0.0
C987 C 0.28958 0.66137 0.67462 0.0
C988 C 0.29401 0.68699 0.68917 0.0
C989 C 0.28388 0.61209 0.64781 0.0
C990 C 0.29129 0.60281 0.66554 0.0
C991 C 0.29457 0.62759 0.67865 0.0
C992 C 0.29652 0.56768 0.67093 0.0
C993 C 0.282 0.5867 0.63301 0.0
C994 C 0.27102 0.54375 0.66917 0.0
C995 C 0.2755 0.51133 0.67583 0.0
C996 C 0.30529 0.50285 0.68456 0.0
C997 C 0.33082 0.52676 0.68605 0.0
C998 C 0.32653 0.55877 0.67924 0.0
H999 H 0.28524 0.59855 0.61972 0.0
H1000 H 0.30134 0.56701 0.63465 0.0
H1001 H 0.25708 0.57454 0.63331 0.0
H1002 H 0.24738 0.55037 0.66311 0.0
H1003 H 0.25549 0.49329 0.67457 0.0
H1004 H 0.94385 0.50992 0.91633 0.0
H1005 H -0.00017 0.52551 0.92659 0.0
H1006 H 0.0312 0.54022 0.87209 0.0
H1007 H 0.97534 0.52536 0.86183 0.0
H1008 H 0.05468 0.488 0.91748 0.0
H1009 H 0.07351 0.61965 0.89675 0.0
H1010 H 0.03263 0.60066 0.89796 0.0
H1011 H 0.05924 0.59336 0.87898 0.0
C1012 C 0.9624 0.5176 0.90661 0.0
C1013 C 0.95543 0.51636 0.88831 0.0
C1014 C -0.00564 0.52629 0.91247 0.0
C1015 C 0.01961 0.53406 0.9001 0.0
C1016 C 0.01198 0.53487 0.88188 0.0
H1017 H 0.23448 0.50673 0.91748 0.0
H1018 H 0.17671 0.50101 0.90663 0.0
C1019 C 0.98006 0.52627 0.87603 0.0
C1020 C 0.0547 0.53738 0.90599 0.0
H1021 H 0.12254 0.58885 0.90456 0.0
C1022 C 0.06949 0.51015 0.91479 0.0
C1023 C 0.07388 0.56625 0.9024 0.0
C1024 C 0.05894 0.59677 0.89365 0.0
C1025 C 0.10308 0.51094 0.92005 0.0
C1026 C 0.1225 0.53948 0.91606 0.0
C1027 C 0.10766 0.5668 0.90735 0.0
C1028 C 0.15753 0.54263 0.92204 0.0
C1029 C 0.11727 0.48157 0.93017 0.0
C1030 C 0.16583 0.56823 0.93391 0.0
C1031 C 0.19848 0.5716 0.93995 0.0
C1032 C 0.22357 0.5494 0.93424 0.0
C1033 C 0.21548 0.52391 0.92219 0.0
C1034 C 0.18258 0.5206 0.91606 0.0
H1035 H 0.09729 0.46509 0.93554 0.0
H1036 H 0.13315 0.46648 0.92108 0.0
H1037 H 0.13307 0.49016 0.9414 0.0
H1038 H 0.14691 0.58551 0.93865 0.0
H1039 H 0.204 0.59166 0.94915 0.0
H1040 H 0.83741 0.52337 0.86274 0.0
H1041 H 0.83129 0.57932 0.87483 0.0
H1042 H 0.75331 0.54455 0.9101 0.0
H1043 H 0.75899 0.48784 0.89767 0.0
H1044 H 0.73762 0.60352 0.89278 0.0
H1045 H 0.86338 0.61242 0.92288 0.0
H1046 H 0.86532 0.60063 0.89986 0.0
H1047 H 0.8456 0.57321 0.91575 0.0
C1048 C 0.81894 0.5275 0.87309 0.0
C1049 C 0.79866 0.50133 0.87933 0.0
C1050 C 0.81571 0.55946 0.88009 0.0
C1051 C 0.79246 0.56583 0.89364 0.0
C1052 C 0.77168 0.53991 0.89975 0.0
H1053 H 0.78194 0.7531 0.95122 0.0
H1054 H 0.79419 0.69579 0.94209 0.0
C1055 C 0.77482 0.5077 0.89265 0.0
C1056 C 0.78921 0.6001 0.90067 0.0
H1057 H 0.83461 0.66443 0.91799 0.0
C1058 C 0.75866 0.61677 0.89849 0.0
C1059 C 0.81666 0.61711 0.90829 0.0
C1060 C 0.84947 0.5998 0.91201 0.0
C1061 C 0.75514 0.65048 0.90314 0.0
C1062 C 0.78321 0.66808 0.90972 0.0
C1063 C 0.8134 0.65105 0.91254 0.0
C1064 C 0.78113 0.70383 0.91445 0.0
C1065 C 0.7213 0.66681 0.90113 0.0
C1066 C 0.77168 0.72771 0.90169 0.0
C1067 C 0.7645 0.76044 0.90689 0.0
C1068 C 0.7671 0.76965 0.92486 0.0
C1069 C 0.77961 0.74655 0.93728 0.0
C1070 C 0.78651 0.7138 0.9321 0.0
H1071 H 0.70091 0.64801 0.90056 0.0
H1072 H 0.71612 0.68419 0.91233 0.0
H1073 H 0.72079 0.68133 0.88852 0.0
H1074 H 0.76834 0.72064 0.88788 0.0
H1075 H 0.75509 0.77791 0.89706 0.0
H1076 H 0.43059 0.51439 0.64143 0.0
H1077 H 0.48068 0.52816 0.62386 0.0
H1078 H 0.53842 0.53432 0.67215 0.0
H1079 H 0.48874 0.5206 0.68975 0.0
H1080 H 0.53806 0.58657 0.63106 0.0
H1081 H 0.57158 0.45183 0.63602 0.0
H1082 H 0.52883 0.46649 0.63691 0.0
H1083 H 0.55552 0.47137 0.6559 0.0
C1084 C 0.45377 0.51968 0.6483 0.0
C1085 C 0.45598 0.51624 0.66691 0.0
C1086 C 0.48227 0.52742 0.63826 0.0
C1087 C 0.51308 0.53185 0.64678 0.0
C1088 C 0.51475 0.53083 0.66542 0.0
H1089 H 0.71135 0.58458 0.63863 0.0
H1090 H 0.65102 0.5797 0.64161 0.0
C1091 C 0.48639 0.52309 0.67543 0.0
C1092 C 0.54434 0.5341 0.63642 0.0
H1093 H 0.61478 0.48914 0.6273 0.0
C1094 C 0.55463 0.56521 0.62985 0.0
C1095 C 0.5655 0.50599 0.63466 0.0
C1096 C 0.55487 0.47189 0.64111 0.0
C1097 C 0.58677 0.56938 0.62264 0.0
C1098 C 0.60903 0.54185 0.6223 0.0
C1099 C 0.59771 0.51022 0.62763 0.0
C1100 C 0.64526 0.54627 0.61918 0.0
C1101 C 0.59708 0.60349 0.61605 0.0
C1102 C 0.66222 0.52833 0.60584 0.0
C1103 C 0.69703 0.531 0.60412 0.0
C1104 C 0.71513 0.55125 0.61592 0.0
C1105 C 0.69801 0.56894 0.62928 0.0
C1106 C 0.66347 0.56644 0.6309 0.0
H1107 H 0.57509 0.61809 0.61143 0.0
H1108 H 0.60881 0.61751 0.62715 0.0
H1109 H 0.61545 0.60162 0.60497 0.0
H1110 H 0.64856 0.51223 0.59684 0.0
H1111 H 0.70973 0.51721 0.5937 0.0
H1112 H 0.72106 0.20098 0.39916 0.0
H1113 H 0.70743 0.25874 0.39114 0.0
H1114 H 0.68358 0.28013 0.44605 0.0
H1115 H 0.69641 0.22226 0.45408 0.0
H1116 H 0.64206 0.31313 0.42223 0.0
H1117 H 0.7759 0.33027 0.405 0.0
H1118 H 0.75628 0.29726 0.3927 0.0
H1119 H 0.76056 0.2937 0.41648 0.0
C1120 C 0.71199 0.21777 0.40941 0.0
C1121 C 0.71018 0.20743 0.42726 0.0
C1122 C 0.70455 0.25078 0.40486 0.0
C1123 C 0.69558 0.27382 0.41813 0.0
C1124 C 0.69088 0.26275 0.43568 0.0
H1125 H 0.7173 0.48991 0.39991 0.0
H1126 H 0.72275 0.43403 0.41345 0.0
C1127 C 0.6981 0.2297 0.44023 0.0
C1128 C 0.69355 0.30982 0.41395 0.0
H1129 H 0.73905 0.37467 0.39706 0.0
C1130 C 0.66328 0.32668 0.41684 0.0
C1131 C 0.72164 0.32762 0.40746 0.0
C1132 C 0.75554 0.31141 0.4054 0.0
C1133 C 0.65988 0.36062 0.41254 0.0
C1134 C 0.68731 0.37778 0.40487 0.0
C1135 C 0.71801 0.36133 0.4028 0.0
C1136 C 0.68379 0.41174 0.3974 0.0
C1137 C 0.6269 0.37773 0.41616 0.0
C1138 C 0.66071 0.41728 0.38373 0.0
C1139 C 0.65766 0.44875 0.37607 0.0
C1140 C 0.67793 0.47528 0.38178 0.0
C1141 C 0.7015 0.46977 0.39528 0.0
C1142 C 0.70449 0.43804 0.40304 0.0
H1143 H 0.61312 0.36529 0.4272 0.0
H1144 H 0.63048 0.40447 0.41961 0.0
H1145 H 0.61108 0.37632 0.40406 0.0
H1146 H 0.64522 0.39711 0.37882 0.0
H1147 H 0.63936 0.45223 0.36562 0.0
H1148 H 0.7451 0.47941 0.1397 0.0
H1149 H 0.80321 0.48522 0.14995 0.0
H1150 H 0.82361 0.38376 0.13377 0.0
H1151 H 0.7666 0.37847 0.1229 0.0
H1152 H 0.84113 0.45084 0.17444 0.0
H1153 H 0.89401 0.43492 0.10659 0.0
H1154 H 0.84999 0.44142 0.11052 0.0
H1155 H 0.86815 0.40058 0.11337 0.0
C1156 C 0.7621 0.45847 0.13837 0.0
C1157 C 0.75163 0.42865 0.13034 0.0
C1158 C 0.79514 0.46173 0.14424 0.0
C1159 C 0.81784 0.43513 0.14222 0.0
C1160 C 0.80678 0.40487 0.13499 0.0
H1161 H 0.017 0.43466 0.19179 0.0
H1162 H 0.96066 0.41681 0.18287 0.0
C1163 C 0.77412 0.40182 0.12891 0.0
C1164 C 0.85335 0.43904 0.14721 0.0
H1165 H 0.93264 0.43473 0.13048 0.0
C1166 C 0.86119 0.44736 0.16486 0.0
C1167 C 0.87938 0.43469 0.1346 0.0
C1168 C 0.87251 0.42774 0.11518 0.0
C1169 C 0.89448 0.45164 0.17024 0.0
C1170 C 0.92052 0.44659 0.15771 0.0
C1171 C 0.91262 0.438 0.14011 0.0
C1172 C 0.95582 0.4539 0.16198 0.0
C1173 C 0.90139 0.46273 0.18909 0.0
C1174 C 0.97231 0.47924 0.15253 0.0
C1175 C 0.00437 0.48901 0.15738 0.0
C1176 C 0.02053 0.47365 0.17181 0.0
C1177 C 0.00494 0.4469 0.18064 0.0
C1178 C 0.97271 0.43698 0.1757 0.0
H1179 H 0.87851 0.47228 0.19581 0.0
H1180 H 0.91088 0.44117 0.19691 0.0
H1181 H 0.9207 0.48264 0.18932 0.0
H1182 H 0.95982 0.49244 0.14182 0.0
H1183 H 0.01592 0.50962 0.1503 0.0
H1184 H 0.70676 0.72866 0.60628 0.0
H1185 H 0.69274 0.78565 0.61535 0.0
H1186 H 0.68311 0.75287 0.66988 0.0
H1187 H 0.69738 0.69568 0.66091 0.0
H1188 H 0.63969 0.81779 0.6358 0.0
H1189 H 0.76433 0.81915 0.66844 0.0
H1190 H 0.75214 0.78725 0.65277 0.0
H1191 H 0.73707 0.78583 0.67533 0.0
C1192 C 0.70066 0.73341 0.62013 0.0
C1193 C 0.70355 0.708 0.63297 0.0
C1194 C 0.69271 0.76595 0.62527 0.0
C1195 C 0.68768 0.77342 0.6433 0.0
C1196 C 0.68745 0.7475 0.65592 0.0
H1197 H 0.63163 0.95151 0.69707 0.0
H1198 H 0.63595 0.89715 0.68282 0.0
C1199 C 0.69532 0.71487 0.65078 0.0
C1200 C 0.68647 0.80862 0.64905 0.0
H1201 H 0.73016 0.86688 0.67256 0.0
C1202 C 0.65943 0.82861 0.64381 0.0
C1203 C 0.71284 0.82276 0.65905 0.0
C1204 C 0.74344 0.8028 0.66412 0.0
C1205 C 0.65741 0.86224 0.64895 0.0
C1206 C 0.68298 0.87589 0.6597 0.0
C1207 C 0.7106 0.85622 0.66436 0.0
C1208 C 0.68015 0.90956 0.66753 0.0
C1209 C 0.62794 0.88289 0.64291 0.0
C1210 C 0.70416 0.93432 0.66394 0.0
C1211 C 0.70187 0.96562 0.67219 0.0
C1212 C 0.6758 0.97216 0.68424 0.0
C1213 C 0.65204 0.94718 0.68784 0.0
C1214 C 0.65425 0.91618 0.67959 0.0
H1215 H 0.61624 0.87221 0.63077 0.0
H1216 H 0.60876 0.88327 0.65362 0.0
H1217 H 0.63548 0.90907 0.64009 0.0
H1218 H 0.72454 0.9294 0.65478 0.0
H1219 H 0.72038 0.98456 0.66919 0.0
H1220 H 0.7427 0.97213 0.92069 0.0
H1221 H 0.79926 0.97946 0.90815 0.0
H1222 H 0.83398 0.89509 0.93886 0.0
H1223 H 0.77819 0.88736 0.95101 0.0
H1224 H 0.85921 -0.00899 0.92567 0.0
H1225 H 0.86504 0.87138 0.88889 0.0
H1226 H 0.82634 0.8885 0.89734 0.0
H1227 H 0.85383 0.86549 0.91184 0.0
C1228 C 0.76252 0.95527 0.9247 0.0
C1229 C 0.75616 0.92917 0.93674 0.0
C1230 C 0.79464 0.95937 0.91753 0.0
C1231 C 0.82051 0.93729 0.9223 0.0
C1232 C 0.81417 0.91178 0.93462 0.0
H1233 H 0.03354 0.97057 0.91796 0.0
H1234 H 0.97627 0.95722 0.92723 0.0
C1235 C 0.7823 0.90761 0.94167 0.0
C1236 C 0.85464 0.94127 0.91508 0.0
H1237 H 0.91761 0.89828 0.89456 0.0
C1238 C 0.87191 0.97092 0.91869 0.0
C1239 C 0.87094 0.9151 0.90581 0.0
C1240 C 0.85296 0.88347 0.90058 0.0
C1241 C 0.90554 0.97471 0.91381 0.0
C1242 C 0.92242 0.94775 0.90551 0.0
C1243 C 0.90479 0.91856 0.9013 0.0
C1244 C 0.95802 0.95012 0.90037 0.0
C1245 C 0.92255 0.00766 0.91744 0.0
C1246 C 0.96711 0.94805 0.88235 0.0
C1247 C -0.00019 0.95508 0.87708 0.0
C1248 C 0.02381 0.96434 0.88977 0.0
C1249 C 0.01541 0.96366 0.90793 0.0
C1250 C 0.98268 0.95642 0.91321 0.0
H1251 H 0.90414 0.02814 0.91947 0.0
H1252 H 0.9377 0.00544 0.92975 0.0
H1253 H 0.93948 0.01469 0.9063 0.0
H1254 H 0.9485 0.94283 0.87227 0.0
H1255 H 0.00572 0.95531 0.86299 0.0
H1256 H 0.8528 0.01976 0.19251 0.0
H1257 H 0.84477 0.07631 0.18134 0.0
H1258 H 0.74513 0.05064 0.16428 0.0
H1259 H 0.75359 -0.00697 0.17491 0.0
H1260 H 0.77967 0.09032 0.13985 0.0
H1261 H 0.78734 0.14332 0.20801 0.0
H1262 H 0.82333 0.11909 0.20187 0.0
H1263 H 0.78324 0.0991 0.20395 0.0
C1264 C 0.82923 0.02603 0.18626 0.0
C1265 C 0.80361 0.00224 0.18472 0.0
C1266 C 0.82466 0.05839 0.17998 0.0
C1267 C 0.79412 0.06778 0.1724 0.0
C1268 C 0.76881 0.0438 0.17024 0.0
H1269 H 0.70827 0.26096 0.16249 0.0
H1270 H 0.72736 0.20541 0.17105 0.0
C1271 C 0.77357 0.01107 0.17634 0.0
C1272 C 0.78844 0.10295 0.16731 0.0
H1273 H 0.78635 0.18205 0.18414 0.0
C1274 C 0.7811 0.11045 0.14949 0.0
C1275 C 0.79015 0.12899 0.18001 0.0
C1276 C 0.79612 0.12226 0.19956 0.0
C1277 C 0.77523 0.14346 0.14401 0.0
C1278 C 0.77754 0.16953 0.15667 0.0
C1279 C 0.78515 0.162 0.17445 0.0
C1280 C 0.76848 0.20431 0.15223 0.0
C1281 C 0.76546 0.15 0.12491 0.0
C1282 C 0.78603 0.22252 0.13922 0.0
C1283 C 0.77505 0.2544 0.13424 0.0
C1284 C 0.74657 0.26829 0.14233 0.0
C1285 C 0.73023 0.25072 0.156 0.0
C1286 C 0.74109 0.219 0.1609 0.0
H1287 H 0.7582 0.12669 0.1179 0.0
H1288 H 0.74427 0.16792 0.12423 0.0
H1289 H 0.78699 0.16114 0.1177 0.0
H1290 H 0.80768 0.2118 0.13267 0.0
H1291 H 0.78805 0.2676 0.1237 0.0
H1292 H 0.73217 -0.00068 0.42518 0.0
H1293 H 0.67473 -0.00602 0.41378 0.0
H1294 H 0.65567 0.09719 0.42712 0.0
H1295 H 0.7117 0.10203 0.43911 0.0
H1296 H 0.60934 0.05796 0.4407 0.0
H1297 H 0.62781 0.02708 0.36933 0.0
H1298 H 0.64954 -0.00066 0.38414 0.0
H1299 H 0.66114 0.04272 0.38318 0.0
C1300 C 0.71569 0.02082 0.42543 0.0
C1301 C 0.72612 0.05095 0.43312 0.0
C1302 C 0.68308 0.01789 0.41881 0.0
C1303 C 0.66104 0.04532 0.41949 0.0
C1304 C 0.67218 0.07572 0.42649 0.0
H1305 H 0.46017 0.04179 0.37308 0.0
H1306 H 0.51655 0.06104 0.38103 0.0
C1307 C 0.70425 0.07843 0.43334 0.0
C1308 C 0.62542 0.04198 0.4146 0.0
H1309 H 0.57259 0.01982 0.38106 0.0
C1310 C 0.60134 0.04993 0.42759 0.0
C1311 C 0.61502 0.03207 0.39742 0.0
C1312 C 0.63971 0.02513 0.38265 0.0
C1313 C 0.56714 0.0474 0.42403 0.0
C1314 C 0.55675 0.03571 0.40719 0.0
C1315 C 0.58071 0.02871 0.39399 0.0
C1316 C 0.52143 0.02761 0.40359 0.0
C1317 C 0.54247 0.05716 0.43837 0.0
C1318 C 0.50548 0.00305 0.41386 0.0
C1319 C 0.47352 -0.00772 0.40943 0.0
C1320 C 0.45706 0.00568 0.39456 0.0
C1321 C 0.47232 0.03133 0.3847 0.0
C1322 C 0.5045 0.04212 0.38914 0.0
H1323 H 0.55343 0.07568 0.44769 0.0
H1324 H 0.5193 0.0679 0.43257 0.0
H1325 H 0.53564 0.03467 0.44623 0.0
H1326 H 0.51835 -0.00891 0.42484 0.0
H1327 H 0.46233 0.97233 0.41719 0.0
H1328 H 0.27177 0.24961 0.45328 0.0
H1329 H 0.28687 0.19422 0.44236 0.0
H1330 H 0.2742 0.2282 0.3882 0.0
H1331 H 0.25843 0.28379 0.39914 0.0
H1332 H 0.23626 0.17284 0.39644 0.0
H1333 H 0.36748 0.15331 0.41762 0.0
H1334 H 0.34075 0.16706 0.43541 0.0
H1335 H 0.34841 0.19421 0.41671 0.0
C1336 C 0.27314 0.24555 0.43903 0.0
C1337 C 0.26383 0.27082 0.42703 0.0
C1338 C 0.28189 0.21391 0.43281 0.0
C1339 C 0.28178 0.20719 0.41448 0.0
C1340 C 0.27447 0.23301 0.40241 0.0
H1341 H 0.34086 0.0231 0.36498 0.0
H1342 H 0.33423 0.08035 0.37525 0.0
C1343 C 0.26567 0.26472 0.40864 0.0
C1344 C 0.28538 0.17242 0.40817 0.0
H1345 H 0.33685 0.10448 0.4094 0.0
C1346 C 0.25837 0.15793 0.39912 0.0
C1347 C 0.3142 0.15312 0.41175 0.0
C1348 C 0.34449 0.16779 0.42076 0.0
C1349 C 0.25929 0.12446 0.39365 0.0
C1350 C 0.28772 0.1049 0.39768 0.0
C1351 C 0.31487 0.11948 0.40658 0.0
C1352 C 0.29091 0.06992 0.39166 0.0
C1353 C 0.23013 0.11053 0.38334 0.0
C1354 C 0.26873 0.04498 0.39756 0.0
C1355 C 0.27233 0.01202 0.39158 0.0
C1356 C 0.29832 0.00376 0.37978 0.0
C1357 C 0.32055 0.02876 0.37407 0.0
C1358 C 0.31687 0.06149 0.37994 0.0
H1359 H 0.21387 0.13065 0.37793 0.0
H1360 H 0.23896 0.09473 0.37211 0.0
H1361 H 0.21472 0.09471 0.39231 0.0
H1362 H 0.24887 0.05097 0.40686 0.0
H1363 H 0.25512 -0.00695 0.39628 0.0
H1364 H 0.98775 0.01632 0.19382 0.0
H1365 H 0.03876 0.03062 0.17752 0.0
H1366 H 0.98496 0.02598 0.12788 0.0
H1367 H 0.93354 0.01174 0.14416 0.0
H1368 H 0.06117 0.98147 0.14925 0.0
H1369 H 0.04756 0.11343 0.12634 0.0
H1370 H 0.02637 0.09838 0.14607 0.0
H1371 H 0.01268 0.08509 0.12451 0.0
C1372 C 0.98656 0.01927 0.17948 0.0
C1373 C 0.95687 0.01277 0.17021 0.0
C1374 C 0.01568 0.02733 0.1702 0.0
C1375 C 0.01549 0.02916 0.15155 0.0
C1376 C 0.98541 0.02486 0.1423 0.0
H1377 H 0.21214 0.01507 0.09771 0.0
H1378 H 0.15151 0.00796 0.10217 0.0
C1379 C 0.95614 0.01681 0.1516 0.0
C1380 C 0.04759 0.03171 0.14196 0.0
H1381 H 0.09927 0.08692 0.12098 0.0
C1382 C 0.06941 0.00428 0.14277 0.0
C1383 C 0.0579 0.0615 0.13354 0.0
C1384 C 0.03509 0.09146 0.1325 0.0
C1385 C 0.1021 0.00642 0.13614 0.0
C1386 C 0.11297 0.03671 0.12837 0.0
C1387 C 0.09062 0.06367 0.12682 0.0
C1388 C 0.14864 0.0424 0.12434 0.0
C1389 C 0.12542 0.97705 0.13849 0.0
C1390 C 0.16669 0.06435 0.13518 0.0
C1391 C 0.20095 0.06821 0.13276 0.0
C1392 C 0.2178 0.05035 0.11937 0.0
C1393 C 0.19968 0.02887 0.10822 0.0
C1394 C 0.16519 0.02489 0.11071 0.0
H1395 H 0.11406 0.95682 0.14665 0.0
H1396 H 0.13195 0.96662 0.12524 0.0
H1397 H 0.14897 0.98519 0.14497 0.0
H1398 H 0.15436 0.0779 0.14583 0.0
H1399 H 0.21431 0.08497 0.14153 0.0
H1400 H 0.22552 0.9872 0.89872 0.0
H1401 H 0.23131 0.92985 0.91033 0.0
H1402 H 0.14527 0.89953 0.87982 0.0
H1403 H 0.13908 0.95609 0.86856 0.0
H1404 H 0.14357 0.87671 0.91453 0.0
H1405 H 0.26517 0.84922 0.8814 0.0
H1406 H 0.26453 0.88555 0.89546 0.0
H1407 H 0.23985 0.88491 0.87551 0.0
C1408 C 0.20801 0.96816 0.89452 0.0
C1409 C 0.1821 0.97591 0.88264 0.0
C1410 C 0.21135 0.93553 0.90109 0.0
C1411 C 0.18889 0.91049 0.89575 0.0
C1412 C 0.16285 0.91848 0.88408 0.0
H1413 H 0.21703 0.69667 0.90023 0.0
H1414 H 0.20196 0.75335 0.89072 0.0
C1415 C 0.15948 0.95083 0.8776 0.0
C1416 C 0.19213 0.87567 0.90203 0.0
H1417 H 0.24215 0.80681 0.89949 0.0
C1418 C 0.16516 0.86139 0.91132 0.0
C1419 C 0.22005 0.85574 0.89748 0.0
C1420 C 0.24898 0.86943 0.88679 0.0
C1421 C 0.16538 0.82758 0.91622 0.0
C1422 C 0.19356 0.80781 0.91195 0.0
C1423 C 0.22052 0.8221 0.90267 0.0
C1424 C 0.19642 0.77253 0.91753 0.0
C1425 C 0.13521 0.81319 0.92558 0.0
C1426 C 0.1971 0.76442 0.9357 0.0
C1427 C 0.20543 0.73214 0.94112 0.0
C1428 C 0.21354 0.70764 0.92845 0.0
C1429 C 0.21075 0.71514 0.91024 0.0
C1430 C 0.20235 0.74748 0.90482 0.0
H1431 H 0.11247 0.82853 0.92319 0.0
H1432 H 0.13026 0.7872 0.92113 0.0
H1433 H 0.13986 0.81273 0.94015 0.0
H1434 H 0.19314 0.7835 0.94572 0.0
H1435 H 0.20753 0.72698 0.95525 0.0
H1436 H 0.50067 0.94592 0.70225 0.0
H1437 H 0.44502 0.93136 0.69155 0.0
H1438 H 0.4776 0.94718 0.63734 0.0
H1439 H 0.53335 0.96248 0.64805 0.0
H1440 H 0.42301 0.98471 0.64619 0.0
H1441 H 0.40227 0.85305 0.66625 0.0
H1442 H 0.41636 0.87876 0.68429 0.0
H1443 H 0.44337 0.87164 0.66546 0.0
C1444 C 0.49627 0.94529 0.68802 0.0
C1445 C 0.52117 0.95548 0.67596 0.0
C1446 C 0.46447 0.93685 0.68192 0.0
C1447 C 0.45722 0.93809 0.66366 0.0
C1448 C 0.48275 0.94607 0.6515 0.0
H1449 H 0.2699 0.8845 0.61524 0.0
H1450 H 0.32765 0.88884 0.62514 0.0
C1451 C 0.51459 0.95461 0.6576 0.0
C1452 C 0.42221 0.93521 0.65754 0.0
H1453 H 0.35354 0.88479 0.65873 0.0
C1454 C 0.40788 0.96274 0.64878 0.0
C1455 C 0.40257 0.90656 0.66096 0.0
C1456 C 0.417 0.8757 0.6696 0.0
C1457 C 0.3743 0.96254 0.64349 0.0
C1458 C 0.35437 0.93431 0.64742 0.0
C1459 C 0.36879 0.90661 0.65598 0.0
C1460 C 0.31904 0.93214 0.64178 0.0
C1461 C 0.36064 -0.00773 0.63346 0.0
C1462 C 0.29492 0.95497 0.64798 0.0
C1463 C 0.26172 0.95268 0.64222 0.0
C1464 C 0.25233 0.92736 0.63033 0.0
C1465 C 0.27645 0.90434 0.62439 0.0
C1466 C 0.30946 0.90672 0.63005 0.0
H1467 H 0.38095 0.00806 0.62784 0.0
H1468 H 0.34413 0.98416 0.62242 0.0
H1469 H 0.34566 0.00795 0.6427 0.0
H1470 H 0.30174 0.97441 0.65731 0.0
H1471 H 0.24346 0.97049 0.6471 0.0
H1472 H 0.2973 0.07467 0.05393 0.0
H1473 H 0.27249 0.06883 1.02451 0.0
H1474 H 0.18729 0.12691 0.04145 0.0
H1475 H 0.21159 0.13195 0.07132 0.0
H1476 H 0.16734 0.07407 1.02257 0.0
H1477 H 0.26923 0.13596 0.98522 0.0
H1478 H 0.2845 0.10147 0.99811 0.0
H1479 H 0.26667 0.13725 1.0092 0.0
C1480 C 0.27343 0.08657 0.05143 0.0
C1481 C 0.25666 0.10413 0.06504 0.0
C1482 C 0.25929 0.0833 0.03448 0.0
C1483 C 0.22828 0.09803 1.0305 0.0
C1484 C 0.21135 0.11548 0.04408 0.0
H1485 H 0.16244 0.12001 0.92044 0.0
H1486 H 0.17999 0.12911 0.95116 0.0
C1487 C 0.22535 0.11848 0.06116 0.0
C1488 C 0.21336 0.09444 1.01233 0.0
H1489 H 0.23056 0.10423 0.96798 0.0
C1490 C 0.18107 0.08093 1.01064 0.0
C1491 C 0.23092 0.10378 0.99667 0.0
C1492 C 0.26458 0.12075 0.99737 0.0
C1493 C 0.16626 0.07588 0.99382 0.0
C1494 C 0.18452 0.0837 0.97814 0.0
C1495 C 0.21654 0.0978 0.97989 0.0
C1496 C 0.17096 0.07825 0.95978 0.0
C1497 C 0.13091 0.06286 0.99311 0.0
C1498 C 0.15954 0.04666 0.95421 0.0
C1499 C 0.14889 0.04151 0.93659 0.0
C1500 C 0.15011 0.06766 0.92405 0.0
C1501 C 0.16122 0.09926 0.9297 0.0
C1502 C 0.17136 0.1045 0.94731 0.0
H1503 H 0.11713 0.06819 1.00567 0.0
H1504 H 0.11687 0.07404 0.98183 0.0
H1505 H 0.1315 0.03534 0.99133 0.0
H1506 H 0.15977 0.02568 0.96332 0.0
H1507 H 0.14093 0.01675 0.93263 0.0
H1508 H 0.61897 0.44151 0.16494 0.0
H1509 H 0.6129 0.46078 0.19555 0.0
H1510 H 0.69181 0.39413 0.21201 0.0
H1511 H 0.69867 0.37514 0.18115 0.0
H1512 H 0.59622 0.42894 0.22574 0.0
H1513 H 0.72369 0.48175 0.23264 0.0
H1514 H 0.70695 0.4688 0.21145 0.0
H1515 H 0.72319 0.43828 0.22678 0.0
C1516 C 0.63514 0.43082 0.175 0.0
C1517 C 0.65948 0.4068 0.17046 0.0
C1518 C 0.63157 0.44192 0.19258 0.0
C1519 C 0.65223 0.42941 0.20613 0.0
C1520 C 0.67607 0.40482 0.20176 0.0
H1521 H 0.6096 0.45789 0.31975 0.0
H1522 H 0.61623 0.43533 0.28971 0.0
C1523 C 0.67978 0.39376 0.18411 0.0
C1524 C 0.64836 0.44213 0.22475 0.0
H1525 H 0.68988 0.48122 0.25863 0.0
C1526 C 0.61674 0.44033 0.23292 0.0
C1527 C 0.67494 0.45753 0.23409 0.0
C1528 C 0.70903 0.46206 0.22577 0.0
C1529 C 0.611 0.45328 0.2501 0.0
C1530 C 0.63779 0.46787 0.25963 0.0
C1531 C 0.66937 0.46983 0.25143 0.0
C1532 C 0.63349 0.48168 0.27799 0.0
C1533 C 0.57599 0.45204 0.25763 0.0
C1534 C 0.64168 0.51513 0.28165 0.0
C1535 C 0.63821 0.52809 0.29892 0.0
C1536 C 0.62652 0.50786 0.31297 0.0
C1537 C 0.61833 0.47436 0.30927 0.0
C1538 C 0.62197 0.4614 0.29202 0.0
H1539 H 0.557 0.44922 0.24696 0.0
H1540 H 0.57376 0.43019 0.26667 0.0
H1541 H 0.57014 0.47496 0.26536 0.0
H1542 H 0.65072 0.53131 0.27111 0.0
H1543 H 0.64489 0.55394 0.30125 0.0
H1544 H 0.25177 0.84019 0.56717 0.0
H1545 H 0.27592 0.84591 0.53728 0.0
H1546 H 0.20108 0.91949 0.52409 0.0
H1547 H 0.17629 0.91327 0.55361 0.0
H1548 H 0.20963 0.87766 0.49721 0.0
H1549 H 0.33414 0.92102 0.51962 0.0
H1550 H 0.32277 0.88101 0.52858 0.0
H1551 H 0.29893 0.9175 0.53458 0.0
C1552 C 0.24032 0.85744 0.55787 0.0
C1553 C 0.2121 0.87631 0.5629 0.0
C1554 C 0.25439 0.86096 0.54082 0.0
C1555 C 0.24086 0.88374 0.52849 0.0
C1556 C 0.21219 0.90191 0.53334 0.0
H1557 H 0.33581 0.96105 0.43152 0.0
H1558 H 0.31413 0.95307 0.46187 0.0
C1559 C 0.19798 0.89825 0.55029 0.0
C1560 C 0.25604 0.88853 0.51045 0.0
H1561 H 0.32848 0.90934 0.48871 0.0
C1562 C 0.23562 0.88462 0.49539 0.0
C1563 C 0.28983 0.89825 0.50798 0.0
C1564 C 0.31263 0.90504 0.52354 0.0
C1565 C 0.248 0.88975 0.47804 0.0
C1566 C 0.28211 0.89815 0.47553 0.0
C1567 C 0.30246 0.90253 0.49058 0.0
C1568 C 0.29696 0.90249 0.4574 0.0
C1569 C 0.22408 0.88688 0.4626 0.0
C1570 C 0.29545 0.87648 0.44489 0.0
C1571 C 0.30755 0.88106 0.42756 0.0
C1572 C 0.32201 0.91162 0.42233 0.0
C1573 C 0.32484 0.93721 0.43508 0.0
C1574 C 0.31241 0.93269 0.45244 0.0
H1575 H 0.19772 0.89045 0.46693 0.0
H1576 H 0.22985 0.90555 0.45207 0.0
H1577 H 0.22619 0.86154 0.45671 0.0
H1578 H 0.28459 0.85262 0.44849 0.0
H1579 H 0.30533 0.86061 0.4182 0.0
H1580 H 0.85255 0.53932 0.66356 0.0
H1581 H 0.86126 0.51783 0.69364 0.0
H1582 H 0.78447 0.58377 0.71355 0.0
H1583 H 0.77498 0.60492 0.68335 0.0
H1584 H 0.88042 0.54691 0.72427 0.0
H1585 H 0.75298 0.49484 0.73275 0.0
H1586 H 0.76848 0.50936 0.71152 0.0
H1587 H 0.75322 0.53871 0.72777 0.0
C1588 C 0.83746 0.54937 0.6743 0.0
C1589 C 0.81283 0.57374 0.67092 0.0
C1590 C 0.84253 0.53701 0.69155 0.0
C1591 C 0.82312 0.54863 0.70588 0.0
C1592 C 0.7992 0.57371 0.70267 0.0
H1593 H 0.86991 0.51635 0.81832 0.0
H1594 H 0.86339 0.53908 0.78831 0.0
C1595 C 0.79398 0.586 0.68538 0.0
C1596 C 0.82808 0.53442 0.72411 0.0
H1597 H 0.7878 0.49452 0.75831 0.0
C1598 C 0.86015 0.53543 0.73169 0.0
C1599 C 0.80182 0.51887 0.73374 0.0
C1600 C 0.76727 0.51502 0.72599 0.0
C1601 C 0.8666 0.52176 0.74864 0.0
C1602 C 0.84008 0.50725 0.75852 0.0
C1603 C 0.8081 0.50588 0.75085 0.0
C1604 C 0.84493 0.49313 0.77678 0.0
C1605 C 0.90196 0.52233 0.75559 0.0
C1606 C 0.83612 0.45985 0.78052 0.0
C1607 C 0.83952 0.44681 0.79777 0.0
C1608 C 0.85174 0.4668 0.81172 0.0
C1609 C 0.86073 0.50008 0.80791 0.0
C1610 C 0.85717 0.51312 0.79068 0.0
H1611 H 0.92046 0.52498 0.7446 0.0
H1612 H 0.90499 0.54403 0.76463 0.0
H1613 H 0.9078 0.49922 0.76318 0.0
H1614 H 0.82651 0.44391 0.77006 0.0
H1615 H 0.83225 0.42113 0.80019 0.0
H1616 H 0.86636 0.94544 0.13301 0.0
H1617 H 0.84809 0.93746 0.10214 0.0
H1618 H 0.77845 0.86187 0.11948 0.0
H1619 H 0.79705 0.86896 0.15011 0.0
H1620 H 0.80923 0.84289 0.08947 0.0
H1621 H 0.76209 0.97242 0.08119 0.0
H1622 H 0.80557 0.97007 0.08691 0.0
H1623 H 0.77448 0.95585 0.10254 0.0
C1624 C 0.84732 0.92695 0.13024 0.0
C1625 C 0.83315 0.90798 0.14416 0.0
C1626 C 0.83666 0.92261 0.11257 0.0
C1627 C 0.81133 0.89951 0.10844 0.0
C1628 C 0.79788 0.87996 0.12225 0.0
H1629 H 0.68323 0.89598 1.01531 0.0
H1630 H 0.70816 0.90133 0.04487 0.0
C1631 C 0.80861 0.88411 0.13984 0.0
C1632 C 0.79844 0.89561 0.08988 0.0
H1633 H 0.7605 0.93769 0.05573 0.0
C1634 C 0.79866 0.86366 0.08208 0.0
C1635 C 0.78409 0.92254 0.08027 0.0
C1636 C 0.78118 0.95709 0.08818 0.0
C1637 C 0.78499 0.8579 0.06509 0.0
C1638 C 0.77134 0.88498 0.05532 0.0
C1639 C 0.77116 0.91693 0.0631 0.0
C1640 C 0.75615 0.88063 0.03729 0.0
C1641 C 0.78434 0.8226 0.05804 0.0
C1642 C 0.77469 0.86721 1.02304 0.0
C1643 C 0.76035 0.86379 1.0061 0.0
C1644 C 0.72724 0.87417 1.00293 0.0
C1645 C 0.70876 0.88766 1.01722 0.0
C1646 C 0.72304 0.89084 0.03416 0.0
H1647 H 0.78686 0.80392 0.06893 0.0
H1648 H 0.7608 0.81753 0.05073 0.0
H1649 H 0.80562 0.81899 0.04872 0.0
H1650 H 0.80051 0.85987 1.02492 0.0
H1651 H 0.77547 0.85365 0.9954 0.0
H1652 H 0.36915 0.5692 0.8959 0.0
H1653 H 0.37861 0.55129 0.86527 0.0
H1654 H 0.27553 0.57251 0.85278 0.0
H1655 H 0.2662 0.59163 0.88347 0.0
H1656 H 0.35283 0.50031 0.84887 0.0
H1657 H 0.31991 0.61357 0.81023 0.0
H1658 H 0.32543 0.61433 0.83407 0.0
H1659 H 0.28671 0.59999 0.82462 0.0
C1660 C 0.34855 0.5706 0.88659 0.0
C1661 C 0.3169 0.58197 0.89217 0.0
C1662 C 0.354 0.56024 0.86902 0.0
C1663 C 0.32795 0.56069 0.85651 0.0
C1664 C 0.29636 0.57261 0.86195 0.0
H1665 H 0.32792 0.43342 0.76232 0.0
H1666 H 0.32021 0.45841 0.79162 0.0
C1667 C 0.29098 0.58346 0.87956 0.0
C1668 C 0.33366 0.54655 0.83826 0.0
H1669 H 0.32689 0.5632 0.79365 0.0
C1670 C 0.34727 0.51423 0.83682 0.0
C1671 C 0.32692 0.56466 0.82242 0.0
C1672 C 0.31426 0.60018 0.82286 0.0
C1673 C 0.354 0.49948 0.82018 0.0
C1674 C 0.34598 0.51701 0.80434 0.0
C1675 C 0.33279 0.54952 0.80573 0.0
C1676 C 0.35079 0.50189 0.78627 0.0
C1677 C 0.37037 0.46547 0.81983 0.0
C1678 C 0.36983 0.51829 0.77311 0.0
C1679 C 0.37398 0.50416 0.75611 0.0
C1680 C 0.35918 0.47327 0.75187 0.0
C1681 C 0.34014 0.45698 0.76508 0.0
C1682 C 0.33578 0.47123 0.78197 0.0
H1683 H 0.38446 0.4605 0.8323 0.0
H1684 H 0.35079 0.44599 0.81864 0.0
H1685 H 0.38782 0.46302 0.80837 0.0
H1686 H 0.38157 0.54204 0.776 0.0
H1687 H 0.38861 0.51756 0.74627 0.0
H1688 H 0.6364 0.01017 0.63529 0.0
H1689 H 0.65812 0.01762 0.6049 0.0
H1690 H 0.68291 0.11993 0.61698 0.0
H1691 H 0.66219 0.11245 0.64733 0.0
H1692 H 0.6429 0.05793 0.57727 0.0
H1693 H 0.77158 0.08669 0.5992 0.0
H1694 H 0.74012 0.07098 0.61428 0.0
H1695 H 0.74145 0.11476 0.60869 0.0
C1696 C 0.64625 0.03433 0.63142 0.0
C1697 C 0.64777 0.06061 0.64385 0.0
C1698 C 0.65877 0.03855 0.61403 0.0
C1699 C 0.67304 0.06912 0.60868 0.0
C1700 C 0.6731 0.09578 0.62085 0.0
H1701 H 0.71378 0.12998 0.49838 0.0
H1702 H 0.69005 0.12211 0.52818 0.0
C1703 C 0.66094 0.0915 0.63823 0.0
C1704 C 0.68803 0.07324 0.59049 0.0
H1705 H 0.75928 0.0976 0.5687 0.0
C1706 C 0.6684 0.06646 0.57541 0.0
C1707 C 0.72156 0.08378 0.58792 0.0
C1708 C 0.74501 0.08913 0.60338 0.0
C1709 C 0.68103 0.0706 0.55798 0.0
C1710 C 0.71404 0.08271 0.55543 0.0
C1711 C 0.73386 0.0888 0.57052 0.0
C1712 C 0.72887 0.08846 0.53731 0.0
C1713 C 0.65904 0.06114 0.54248 0.0
C1714 C 0.75946 0.07349 0.53258 0.0
C1715 C 0.77346 0.07849 0.51563 0.0
C1716 C 0.75719 0.09858 0.50289 0.0
C1717 C 0.72691 0.11414 0.50775 0.0
C1718 C 0.71309 0.10936 0.52479 0.0
H1719 H 0.63931 0.04313 0.54656 0.0
H1720 H 0.64642 0.08388 0.53733 0.0
H1721 H 0.67387 0.04988 0.5315 0.0
H1722 H 0.77237 0.05744 0.54195 0.0
H1723 H 0.79676 0.06604 0.51242 0.0
H1724 H 0.12127 0.43623 0.40094 0.0
H1725 H 0.11341 0.45411 0.37024 0.0
H1726 H 0.19073 0.38614 0.35308 0.0
H1727 H 0.19943 0.36851 0.38408 0.0
H1728 H 0.19826 0.44623 0.33758 0.0
H1729 H 0.0663 0.40823 0.33005 0.0
H1730 H 0.07185 0.43526 0.34884 0.0
H1731 H 0.09158 0.39475 0.3486 0.0
C1732 C 0.13649 0.4247 0.39069 0.0
C1733 C 0.1609 0.40065 0.39511 0.0
C1734 C 0.13175 0.43488 0.37302 0.0
C1735 C 0.15093 0.42107 0.35916 0.0
C1736 C 0.17537 0.39705 0.36347 0.0
H1737 H 0.10411 0.45794 0.24634 0.0
H1738 H 0.11108 0.43288 0.2759 0.0
C1739 C 0.18027 0.38689 0.38123 0.0
C1740 C 0.14636 0.43296 0.34038 0.0
H1741 H 0.0872 0.44701 0.30833 0.0
C1742 C 0.17401 0.4461 0.33115 0.0
C1743 C 0.11487 0.43243 0.33174 0.0
C1744 C 0.08456 0.41658 0.34025 0.0
C1745 C 0.17086 0.4596 0.31388 0.0
C1746 C 0.13898 0.46085 0.30566 0.0
C1747 C 0.11156 0.44667 0.31465 0.0
C1748 C 0.13361 0.47664 0.28777 0.0
C1749 C 0.20194 0.47198 0.30454 0.0
C1750 C 0.14297 0.50998 0.28459 0.0
C1751 C 0.13915 0.52435 0.26766 0.0
C1752 C 0.12539 0.50592 0.25349 0.0
C1753 C 0.11476 0.47296 0.25689 0.0
C1754 C 0.11883 0.45852 0.27382 0.0
H1755 H 0.22482 0.45996 0.30997 0.0
H1756 H 0.20086 0.46708 0.28999 0.0
H1757 H 0.20429 0.49932 0.30661 0.0
H1758 H 0.15345 0.52495 0.2952 0.0
H1759 H 0.14737 0.54986 0.26565 0.0
H1760 H 0.61861 0.52247 0.43298 0.0
H1761 H 0.63558 0.53124 0.46403 0.0
H1762 H 0.69206 0.61808 0.44818 0.0
H1763 H 0.67478 0.61004 0.41742 0.0
H1764 H 0.69737 0.53071 0.47855 0.0
H1765 H 0.64105 0.65508 0.49001 0.0
H1766 H 0.63039 0.62962 0.47102 0.0
H1767 H 0.66768 0.65482 0.47074 0.0
C1768 C 0.63424 0.54372 0.43614 0.0
C1769 C 0.64505 0.56564 0.42261 0.0
C1770 C 0.64404 0.54866 0.45392 0.0
C1771 C 0.66468 0.57571 0.4586 0.0
C1772 C 0.67542 0.59756 0.4451 0.0
H1773 H 0.79701 0.59182 0.54956 0.0
H1774 H 0.77105 0.58425 0.52043 0.0
C1775 C 0.66563 0.59273 0.4274 0.0
C1776 C 0.67651 0.58028 0.47733 0.0
H1777 H 0.68331 0.63801 0.51076 0.0
C1778 C 0.69399 0.55408 0.48563 0.0
C1779 C 0.6718 0.61058 0.4868 0.0
C1780 C 0.6514 0.63899 0.47926 0.0
C1781 C 0.70779 0.55771 0.50277 0.0
C1782 C 0.70473 0.58867 0.51181 0.0
C1783 C 0.68621 0.61445 0.50379 0.0
C1784 C 0.72072 0.5948 0.5295 0.0
C1785 C 0.72526 0.52812 0.51109 0.0
C1786 C 0.70144 0.60476 0.54427 0.0
C1787 C 0.71635 0.60956 0.56099 0.0
C1788 C 0.75094 0.60463 0.56331 0.0
C1789 C 0.7703 0.59564 0.54836 0.0
C1790 C 0.75541 0.59099 0.53167 0.0
H1791 H 0.71674 0.50419 0.50514 0.0
H1792 H 0.75257 0.53025 0.50869 0.0
H1793 H 0.72088 0.52716 0.52569 0.0
H1794 H 0.67468 0.60813 0.54296 0.0
H1795 H 0.70059 0.61637 0.57218 0.0
H1796 H 0.19875 0.87459 0.68264 0.0
H1797 H 0.19273 0.89322 0.71364 0.0
H1798 H 0.11415 0.96085 0.69789 0.0
H1799 H 0.11938 0.942 0.66719 0.0
H1800 H 0.20109 0.95473 0.72824 0.0
H1801 H 0.07056 0.91415 0.73941 0.0
H1802 H 0.09479 0.90054 0.72044 0.0
H1803 H 0.07447 0.94073 0.72026 0.0
C1804 C 0.17992 0.89315 0.68581 0.0
C1805 C 0.15939 0.90652 0.67236 0.0
C1806 C 0.17658 0.90387 0.70355 0.0
C1807 C 0.15255 0.92806 0.70823 0.0
C1808 C 0.13225 0.94154 0.69479 0.0
H1809 H 0.1521 0.05545 0.80259 0.0
H1810 H 0.15779 0.03196 0.77263 0.0
C1811 C 0.13545 0.9308 0.67714 0.0
C1812 C 0.14935 0.94019 0.72697 0.0
H1813 H 0.09276 0.95282 0.76055 0.0
C1814 C 0.17746 0.95407 0.73535 0.0
C1815 C 0.11865 0.93899 0.73642 0.0
C1816 C 0.088 0.92248 0.72875 0.0
C1817 C 0.17551 0.9675 0.75267 0.0
C1818 C 0.1444 0.96781 0.76176 0.0
C1819 C 0.11652 0.95312 0.75355 0.0
C1820 C 0.14029 0.98259 0.77992 0.0
C1821 C 0.20701 0.98072 0.76113 0.0
C1822 C 0.1273 0.9632 0.79393 0.0
C1823 C 0.12353 0.97673 0.81103 0.0
C1824 C 0.13265 0.01004 0.81456 0.0
C1825 C 0.14505 0.02965 0.80043 0.0
C1826 C 0.14861 0.01613 0.78328 0.0
H1827 H 0.22975 0.96983 0.75487 0.0
H1828 H 0.20807 0.00822 0.7593 0.0
H1829 H 0.20755 0.97523 0.77563 0.0
H1830 H 0.12047 0.93735 0.79171 0.0
H1831 H 0.1139 0.96083 0.82154 0.0
H1832 H 0.81338 0.35962 0.91755 0.0
H1833 H 0.79295 0.35184 0.94793 0.0
H1834 H 0.82029 0.45322 0.96064 0.0
H1835 H 0.84161 0.46101 0.93019 0.0
H1836 H 0.83489 0.41041 0.98803 0.0
H1837 H 0.70498 0.38863 0.96561 0.0
H1838 H 0.73421 0.36002 0.95576 0.0
H1839 H 0.73714 0.40397 0.95084 0.0
C1840 C 0.81528 0.38029 0.9268 0.0
C1841 C 0.82894 0.41107 0.92132 0.0
C1842 C 0.80333 0.37584 0.94419 0.0
C1843 C 0.8042 0.40217 0.95652 0.0
C1844 C 0.81905 0.43256 0.95135 0.0
H1845 H 0.68059 0.41295 0.05183 0.0
H1846 H 0.70627 0.41915 1.02253 0.0
C1847 C 0.83132 0.43697 0.93393 0.0
C1848 C 0.78905 0.39805 0.97464 0.0
H1849 H 0.71641 0.37701 0.99605 0.0
C1850 C 0.80895 0.40321 0.98979 0.0
C1851 C 0.75502 0.38916 0.97702 0.0
C1852 C 0.73149 0.38546 0.96146 0.0
C1853 C 0.79599 0.3992 1.00716 0.0
C1854 C 0.7623 0.38901 1.00951 0.0
C1855 C 0.74232 0.38435 0.99434 0.0
C1856 C 0.74674 0.38446 1.02752 0.0
C1857 C 0.81833 0.4068 1.0228 0.0
C1858 C 0.76038 0.36232 0.04015 0.0
C1859 C 0.74576 0.35882 0.0571 0.0
C1860 C 0.71688 0.37706 0.06172 0.0
C1861 C 0.70276 0.39842 0.04884 0.0
C1862 C 0.71749 0.40207 1.032 0.0
H1863 H 0.83962 0.42307 1.01888 0.0
H1864 H 0.80418 0.41929 0.03366 0.0
H1865 H 0.8288 0.38309 1.02807 0.0
H1866 H 0.78235 0.34768 0.03693 0.0
H1867 H 0.75726 0.34202 0.06661 0.0
H1868 H 0.31969 0.92995 0.30371 0.0
H1869 H 0.31532 0.95412 0.274 0.0
H1870 H 0.3881 0.02903 0.28789 0.0
H1871 H 0.39187 0.00553 0.318 0.0
H1872 H 0.3368 0.05695 0.27094 0.0
H1873 H 0.37704 0.94646 0.23229 0.0
H1874 H 0.34229 0.93694 0.24654 0.0
H1875 H 0.38177 0.94882 0.25615 0.0
C1876 C 0.33516 0.95133 0.30045 0.0
C1877 C 0.35634 0.96561 0.31331 0.0
C1878 C 0.33271 0.96506 0.28334 0.0
C1879 C 0.35181 -0.00691 0.27847 0.0
C1880 C 0.37319 0.0073 0.29123 0.0
H1881 H 0.36756 0.05643 0.16725 0.0
H1882 H 0.37883 0.03665 0.19744 0.0
C1883 C 0.37544 -0.00626 0.30845 0.0
C1884 C 0.34836 0.00828 0.26035 0.0
H1885 H 0.34943 -0.01031 0.2159 0.0
C1886 C 0.33986 0.04228 0.25891 0.0
C1887 C 0.35281 -0.01057 0.24454 0.0
C1888 C 0.36433 0.9535 0.24493 0.0
C1889 C 0.33489 0.05766 0.24222 0.0
C1890 C 0.33759 0.03834 0.22646 0.0
C1891 C 0.34689 0.00454 0.2279 0.0
C1892 C 0.3312 0.05251 0.20832 0.0
C1893 C 0.32739 0.09461 0.2417 0.0
C1894 C 0.30069 0.06826 0.20421 0.0
C1895 C 0.29434 0.08004 0.18692 0.0
C1896 C 0.3181 0.07577 0.17324 0.0
C1897 C 0.34864 0.06012 0.1774 0.0
C1898 C 0.35511 0.04872 0.19471 0.0
H1899 H 0.33669 0.10743 0.25383 0.0
H1900 H 0.33883 0.10667 0.22983 0.0
H1901 H 0.29992 0.09835 0.24113 0.0
H1902 H 0.28138 0.07073 0.21425 0.0
H1903 H 0.27039 0.09161 0.18417 0.0
H1904 H 0.31566 0.35903 0.6486 0.0
H1905 H 0.29511 0.35011 0.61837 0.0
H1906 H 0.32521 0.45008 0.60399 0.0
H1907 H 0.34686 0.45876 0.63411 0.0
H1908 H 0.24629 0.37995 0.60152 0.0
H1909 H 0.36196 0.39994 0.56233 0.0
H1910 H 0.36233 0.39544 0.58625 0.0
H1911 H 0.35202 0.43503 0.57621 0.0
C1912 C 0.31838 0.379 0.63895 0.0
C1913 C 0.33314 0.40956 0.6438 0.0
C1914 C 0.30651 0.37388 0.62163 0.0
C1915 C 0.30888 0.39921 0.6087 0.0
C1916 C 0.32382 0.42973 0.61348 0.0
H1917 H 0.18206 0.40983 0.51435 0.0
H1918 H 0.20687 0.41531 0.54389 0.0
C1919 C 0.3361 0.43474 0.63078 0.0
C1920 C 0.29409 0.39414 0.59061 0.0
H1921 H 0.31092 0.3987 0.54595 0.0
C1922 C 0.26056 0.38388 0.58939 0.0
C1923 C 0.31265 0.39875 0.57468 0.0
C1924 C 0.34932 0.40755 0.57489 0.0
C1925 C 0.24502 0.37857 0.57283 0.0
C1926 C 0.26312 0.38462 0.55689 0.0
C1927 C 0.29681 0.39437 0.5581 0.0
C1928 C 0.24768 0.38094 0.53887 0.0
C1929 C 0.20953 0.36578 0.57266 0.0
C1930 C 0.26268 0.36048 0.52588 0.0
C1931 C 0.24876 0.35768 0.50881 0.0
C1932 C 0.21944 0.37522 0.50432 0.0
C1933 C 0.20439 0.39558 0.51737 0.0
C1934 C 0.2185 0.39862 0.53436 0.0
H1935 H 0.20324 0.35248 0.58524 0.0
H1936 H 0.1921 0.38723 0.57137 0.0
H1937 H 0.20528 0.34851 0.56133 0.0
H1938 H 0.28525 0.34665 0.52895 0.0
H1939 H 0.26113 0.34188 0.49911 0.0
H1940 H 0.76386 0.0911 0.38477 0.0
H1941 H 0.77214 0.0703 0.35428 0.0
H1942 H 0.87498 0.04754 0.36644 0.0
H1943 H 0.8667 0.06732 0.39686 0.0
H1944 H 0.81289 0.08665 0.3266 0.0
H1945 H 0.84325 0.95829 0.34884 0.0
H1946 H 0.82666 -0.01054 0.36379 0.0
H1947 H 0.87058 0.98883 0.35842 0.0
C1948 C 0.7883 0.08191 0.38089 0.0
C1949 C 0.8145 0.0806 0.39337 0.0
C1950 C 0.79301 0.06994 0.36345 0.0
C1951 C 0.82399 0.05647 0.3581 0.0
C1952 C 0.85055 0.05675 0.37031 0.0
H1953 H 0.88531 0.01488 0.24761 0.0
H1954 H 0.87769 0.03943 0.27725 0.0
C1955 C 0.8458 0.06834 0.38773 0.0
C1956 C 0.82859 0.04166 0.33994 0.0
H1957 H 0.85414 0.97074 0.31837 0.0
C1958 C 0.82178 0.06126 0.32481 0.0
C1959 C 0.83965 0.00829 0.33747 0.0
C1960 C 0.84512 0.98488 0.35299 0.0
C1961 C 0.8263 0.04869 0.3074 0.0
C1962 C 0.83879 0.0158 0.30496 0.0
C1963 C 0.84504 -0.00392 0.32011 0.0
C1964 C 0.84437 0.00076 0.28691 0.0
C1965 C 0.81678 0.07058 0.29183 0.0
C1966 C 0.82946 0.97006 0.28254 0.0
C1967 C 0.83433 0.95564 0.26573 0.0
C1968 C 0.85422 0.97155 0.25273 0.0
C1969 C 0.86968 0.00199 0.2572 0.0
C1970 C 0.86502 0.01627 0.27413 0.0
H1971 H 0.7988 0.0904 0.29584 0.0
H1972 H 0.83952 0.08305 0.28656 0.0
H1973 H 0.80545 0.05567 0.28095 0.0
H1974 H 0.81357 0.95737 0.2921 0.0
H1975 H 0.82192 0.93223 0.26284 0.0
H1976 H 0.12818 0.52268 0.13395 0.0
H1977 H 0.14795 0.52979 0.10322 0.0
H1978 H 0.21344 0.60903 0.12021 0.0
H1979 H 0.19332 0.60274 0.1507 0.0
H1980 H 0.18266 0.62599 0.09013 0.0
H1981 H 0.23563 0.4987 0.08241 0.0
H1982 H 0.19201 0.49892 0.08807 0.0
H1983 H 0.22208 0.51485 0.10367 0.0
C1984 C 0.14674 0.54167 0.13115 0.0
C1985 C 0.15913 0.56205 0.14491 0.0
C1986 C 0.15827 0.54553 0.11356 0.0
C1987 C 0.18273 0.56957 0.10935 0.0
C1988 C 0.19469 0.59022 0.12304 0.0
H1989 H 0.30715 0.57757 1.01366 0.0
H1990 H 0.28479 0.57122 0.04389 0.0
C1991 C 0.18309 0.58653 0.14054 0.0
C1992 C 0.19574 0.57379 0.09077 0.0
H1993 H 0.23486 0.53283 0.05654 0.0
C1994 C 0.19406 0.60558 0.0828 0.0
C1995 C 0.21118 0.54737 0.08123 0.0
C1996 C 0.21569 0.51312 0.08931 0.0
C1997 C 0.20712 0.61163 0.06565 0.0
C1998 C 0.22163 0.58499 0.05589 0.0
C1999 C 0.22352 0.55324 0.06389 0.0
C2000 C 0.23533 0.58957 0.03747 0.0
C2001 C 0.20603 0.64682 0.05841 0.0
C2002 C 0.21507 0.60187 1.02366 0.0
C2003 C 0.2279 0.60584 1.00638 0.0
C2004 C 0.26122 0.59717 1.00239 0.0
C2005 C 0.28143 0.58464 1.01621 0.0
C2006 C 0.26862 0.58088 0.03353 0.0
H2007 H 0.2036 0.66555 0.06925 0.0
H2008 H 0.22885 0.65263 0.05054 0.0
H2009 H 0.18399 0.64954 0.04958 0.0
H2010 H 0.1891 0.60797 1.02616 0.0
H2011 H 0.21143 0.61519 0.99608 0.0
H2012 H 0.71338 0.88824 0.88576 0.0
H2013 H 0.70445 0.9095 0.8555 0.0
H2014 H 0.60215 0.93298 0.86881 0.0
H2015 H 0.61113 0.9127 0.89914 0.0
H2016 H 0.66384 0.89263 0.8287 0.0
H2017 H 0.63276 0.02152 0.84977 0.0
H2018 H 0.64945 -0.00913 0.86499 0.0
H2019 H 0.60559 -0.009 0.85962 0.0
C2020 C 0.68892 0.89779 0.88223 0.0
C2021 C 0.66307 0.89897 0.89499 0.0
C2022 C 0.68385 0.91001 0.8649 0.0
C2023 C 0.65282 0.92366 0.85988 0.0
C2024 C 0.62663 0.9236 0.87241 0.0
H2025 H 0.59364 0.96155 0.74893 0.0
H2026 H 0.60006 0.93859 0.77898 0.0
C2027 C 0.63174 0.9117 0.88977 0.0
C2028 C 0.6479 0.93796 0.84162 0.0
H2029 H 0.62292 0.00837 0.81935 0.0
C2030 C 0.65497 0.91798 0.82668 0.0
C2031 C 0.63687 0.97126 0.83884 0.0
C2032 C 0.63106 -0.00497 0.85415 0.0
C2033 C 0.65092 0.93011 0.80917 0.0
C2034 C 0.63858 0.96297 0.80641 0.0
C2035 C 0.63194 0.98307 0.82136 0.0
C2036 C 0.63345 0.97743 0.78819 0.0
C2037 C 0.66084 0.90782 0.79383 0.0
C2038 C 0.64878 0.00777 0.78343 0.0
C2039 C 0.64463 0.02131 0.76633 0.0
C2040 C 0.62508 0.00482 0.75349 0.0
C2041 C 0.60911 0.97482 0.75839 0.0
C2042 C 0.61303 0.96146 0.77557 0.0
H2043 H 0.67869 0.88809 0.79809 0.0
H2044 H 0.63823 0.89523 0.78856 0.0
H2045 H 0.67247 0.92244 0.78287 0.0
H2046 H 0.6645 0.02079 0.79287 0.0
H2047 H 0.65736 0.04443 0.7631 0.0
loop_
_geom_bond_atom_site_label_1
_geom_bond_atom_site_label_2
_geom_bond_distance
_geom_bond_site_symmetry_2
_ccdc_geom_bond_type
Dy0 O4 2.398 . S
Dy0 O5 2.491 . S
Dy0 O6 2.403 . S
Dy0 O7 2.664 . S
Dy0 O11 2.326 . S
Dy0 O15 2.310 . S
Dy0 O16 2.351 . S
C1 O12 1.185 . S
C1 O13 1.355 . S
C2 O4 1.185 . S
C2 O5 1.355 . S
Dy3 O7 2.310 . S
Dy3 O10 2.351 . S
Dy3 O12 2.398 . S
Dy3 O13 2.491 . S
Dy3 O14 2.403 . S
Dy3 O15 2.664 . S
Dy3 O17 2.326 . S
O4 Dy0 2.398 . S
O4 C2 1.185 . S
O5 Dy0 2.491 . S
O5 C2 1.355 . S
O6 Dy0 2.403 . S
O6 C8 1.254 . S
O7 Dy0 2.664 . S
O7 Dy3 2.310 . S
O7 C8 1.268 . S
C8 O6 1.254 . S
C8 O7 1.268 . S
C9 O14 1.254 . S
C9 O15 1.268 . S
O10 Dy3 2.351 . S
O10 C18 1.249 . S
O11 Dy0 2.326 . S
O11 C18 1.267 . S
O12 C1 1.185 . S
O12 Dy3 2.398 . S
O13 C1 1.355 . S
O13 Dy3 2.491 . S
O14 Dy3 2.403 . S
O14 C9 1.254 . S
O15 Dy0 2.310 . S
O15 Dy3 2.664 . S
O15 C9 1.268 . S
O16 Dy0 2.351 . S
O16 C19 1.249 . S
O17 Dy3 2.326 . S
O17 C19 1.267 . S
C18 O10 1.249 . S
C18 O11 1.267 . S
C19 O16 1.249 . S
C19 O17 1.267 . S
Dy20 O24 2.398 . S
Dy20 O25 2.491 . S
Dy20 O26 2.403 . S
Dy20 O27 2.664 . S
Dy20 O31 2.326 . S
Dy20 O35 2.310 . S
Dy20 O36 2.351 . S
C21 O32 1.185 . S
C21 O33 1.355 . S
C22 O24 1.185 . S
C22 O25 1.355 . S
Dy23 O27 2.310 . S
Dy23 O30 2.351 . S
Dy23 O32 2.398 . S
Dy23 O33 2.491 . S
Dy23 O34 2.403 . S
Dy23 O35 2.664 . S
Dy23 O37 2.326 . S
O24 Dy20 2.398 . S
O24 C22 1.185 . S
O25 Dy20 2.491 . S
O25 C22 1.355 . S
O26 Dy20 2.403 . S
O26 C28 1.254 . S
O27 Dy20 2.664 . S
O27 Dy23 2.310 . S
O27 C28 1.268 . S
C28 O26 1.254 . S
C28 O27 1.268 . S
C29 O34 1.254 . S
C29 O35 1.268 . S
O30 Dy23 2.351 . S
O30 C38 1.249 . S
O31 Dy20 2.326 . S
O31 C38 1.267 . S
O32 C21 1.185 . S
O32 Dy23 2.398 . S
O33 C21 1.355 . S
O33 Dy23 2.491 . S
O34 Dy23 2.403 . S
O34 C29 1.254 . S
O35 Dy20 2.310 . S
O35 Dy23 2.664 . S
O35 C29 1.268 . S
O36 Dy20 2.351 . S
O36 C39 1.249 . S
O37 Dy23 2.326 . S
O37 C39 1.267 . S
C38 O30 1.249 . S
C38 O31 1.267 . S
C39 O36 1.249 . S
C39 O37 1.267 . S
Dy40 O44 2.398 . S
Dy40 O45 2.491 . S
Dy40 O46 2.403 . S
Dy40 O47 2.664 . S
Dy40 O51 2.326 . S
Dy40 O55 2.310 . S
Dy40 O56 2.351 . S
C41 O52 1.185 . S
C41 O53 1.355 . S
C42 O44 1.185 . S
C42 O45 1.355 . S
Dy43 O47 2.310 . S
Dy43 O50 2.351 . S
Dy43 O52 2.398 . S
Dy43 O53 2.491 . S
Dy43 O54 2.403 . S
Dy43 O55 2.664 . S
Dy43 O57 2.326 . S
O44 Dy40 2.398 . S
O44 C42 1.185 . S
O45 Dy40 2.491 . S
O45 C42 1.355 . S
O46 Dy40 2.403 . S
O46 C48 1.254 . S
O47 Dy40 2.664 . S
O47 Dy43 2.310 . S
O47 C48 1.268 . S
C48 O46 1.254 . S
C48 O47 1.268 . S
C49 O54 1.254 . S
C49 O55 1.268 . S
O50 Dy43 2.351 . S
O50 C58 1.249 . S
O51 Dy40 2.326 . S
O51 C58 1.267 . S
O52 C41 1.185 . S
O52 Dy43 2.398 . S
O53 C41 1.355 . S
O53 Dy43 2.491 . S
O54 Dy43 2.403 . S
O54 C49 1.254 . S
O55 Dy40 2.310 . S
O55 Dy43 2.664 . S
O55 C49 1.268 . S
O56 Dy40 2.351 . S
O56 C59 1.249 . S
O57 Dy43 2.326 . S
O57 C59 1.267 . S
C58 O50 1.249 . S
C58 O51 1.267 . S
C59 O56 1.249 . S
C59 O57 1.267 . S
Dy60 O64 2.398 . S
Dy60 O65 2.491 . S
Dy60 O66 2.403 . S
Dy60 O67 2.664 . S
Dy60 O71 2.326 . S
Dy60 O75 2.310 . S
Dy60 O76 2.351 . S
C61 O72 1.185 . S
C61 O73 1.355 . S
C62 O64 1.185 . S
C62 O65 1.355 . S
Dy63 O67 2.310 . S
Dy63 O70 2.351 . S
Dy63 O72 2.398 . S
Dy63 O73 2.491 . S
Dy63 O74 2.403 . S
Dy63 O75 2.664 . S
Dy63 O77 2.326 . S
O64 Dy60 2.398 . S
O64 C62 1.185 . S
O65 Dy60 2.491 . S
O65 C62 1.355 . S
O66 Dy60 2.403 . S
O66 C68 1.254 . S
O67 Dy60 2.664 . S
O67 Dy63 2.310 . S
O67 C68 1.268 . S
C68 O66 1.254 . S
C68 O67 1.268 . S
C69 O74 1.254 . S
C69 O75 1.268 . S
O70 Dy63 2.351 . S
O70 C78 1.249 . S
O71 Dy60 2.326 . S
O71 C78 1.267 . S
O72 C61 1.185 . S
O72 Dy63 2.398 . S
O73 C61 1.355 . S
O73 Dy63 2.491 . S
O74 Dy63 2.403 . S
O74 C69 1.254 . S
O75 Dy60 2.310 . S
O75 Dy63 2.664 . S
O75 C69 1.268 . S
O76 Dy60 2.351 . S
O76 C79 1.249 . S
O77 Dy63 2.326 . S
O77 C79 1.267 . S
C78 O70 1.249 . S
C78 O71 1.267 . S
C79 O76 1.249 . S
C79 O77 1.267 . S
Dy80 O84 2.398 . S
Dy80 O85 2.491 . S
Dy80 O86 2.403 . S
Dy80 O87 2.664 . S
Dy80 O91 2.326 . S
Dy80 O95 2.310 . S
Dy80 O96 2.351 . S
C81 O92 1.185 . S
C81 O93 1.355 . S
C82 O84 1.185 . S
C82 O85 1.355 . S
Dy83 O87 2.310 . S
Dy83 O90 2.351 . S
Dy83 O92 2.398 . S
Dy83 O93 2.491 . S
Dy83 O94 2.403 . S
Dy83 O95 2.664 . S
Dy83 O97 2.326 . S
O84 Dy80 2.398 . S
O84 C82 1.185 . S
O85 Dy80 2.491 . S
O85 C82 1.355 . S
O86 Dy80 2.403 . S
O86 C88 1.254 . S
O87 Dy80 2.664 . S
O87 Dy83 2.310 . S
O87 C88 1.268 . S
C88 O86 1.254 . S
C88 O87 1.268 . S
C89 O94 1.254 . S
C89 O95 1.268 . S
O90 Dy83 2.351 . S
O90 C98 1.249 . S
O91 Dy80 2.326 . S
O91 C98 1.267 . S
O92 C81 1.185 . S
O92 Dy83 2.398 . S
O93 C81 1.355 . S
O93 Dy83 2.491 . S
O94 Dy83 2.403 . S
O94 C89 1.254 . S
O95 Dy80 2.310 . S
O95 Dy83 2.664 . S
O95 C89 1.268 . S
O96 Dy80 2.351 . S
O96 C99 1.249 . S
O97 Dy83 2.326 . S
O97 C99 1.267 . S
C98 O90 1.249 . S
C98 O91 1.267 . S
C99 O96 1.249 . S
C99 O97 1.267 . S
Dy100 O104 2.398 . S
Dy100 O105 2.491 . S
Dy100 O106 2.403 . S
Dy100 O107 2.664 . S
Dy100 O111 2.326 . S
Dy100 O115 2.310 . S
Dy100 O116 2.351 . S
C101 O112 1.185 . S
C101 O113 1.355 . S
C102 O104 1.185 . S
C102 O105 1.355 . S
Dy103 O107 2.310 . S
Dy103 O110 2.351 . S
Dy103 O112 2.398 . S
Dy103 O113 2.491 . S
Dy103 O114 2.403 . S
Dy103 O115 2.664 . S
Dy103 O117 2.326 . S
O104 Dy100 2.398 . S
O104 C102 1.185 . S
O105 Dy100 2.491 . S
O105 C102 1.355 . S
O106 Dy100 2.403 . S
O106 C108 1.254 . S
O107 Dy100 2.664 . S
O107 Dy103 2.310 . S
O107 C108 1.268 . S
C108 O106 1.254 . S
C108 O107 1.268 . S
C109 O114 1.254 . S
C109 O115 1.268 . S
O110 Dy103 2.351 . S
O110 C118 1.249 . S
O111 Dy100 2.326 . S
O111 C118 1.267 . S
O112 C101 1.185 . S
O112 Dy103 2.398 . S
O113 C101 1.355 . S
O113 Dy103 2.491 . S
O114 Dy103 2.403 . S
O114 C109 1.254 . S
O115 Dy100 2.310 . S
O115 Dy103 2.664 . S
O115 C109 1.268 . S
O116 Dy100 2.351 . S
O116 C119 1.249 . S
O117 Dy103 2.326 . S
O117 C119 1.267 . S
C118 O110 1.249 . S
C118 O111 1.267 . S
C119 O116 1.249 . S
C119 O117 1.267 . S
Dy120 O124 2.398 . S
Dy120 O125 2.491 . S
Dy120 O126 2.403 . S
Dy120 O127 2.664 . S
Dy120 O131 2.326 . S
Dy120 O135 2.310 . S
Dy120 O136 2.351 . S
C121 O132 1.185 . S
C121 O133 1.355 . S
C122 O124 1.185 . S
C122 O125 1.355 . S
Dy123 O127 2.310 . S
Dy123 O130 2.351 . S
Dy123 O132 2.398 . S
Dy123 O133 2.491 . S
Dy123 O134 2.403 . S
Dy123 O135 2.664 . S
Dy123 O137 2.326 . S
O124 Dy120 2.398 . S
O124 C122 1.185 . S
O125 Dy120 2.491 . S
O125 C122 1.355 . S
O126 Dy120 2.403 . S
O126 C128 1.254 . S
O127 Dy120 2.664 . S
O127 Dy123 2.310 . S
O127 C128 1.268 . S
C128 O126 1.254 . S
C128 O127 1.268 . S
C129 O134 1.254 . S
C129 O135 1.268 . S
O130 Dy123 2.351 . S
O130 C138 1.249 . S
O131 Dy120 2.326 . S
O131 C138 1.267 . S
O132 C121 1.185 . S
O132 Dy123 2.398 . S
O133 C121 1.355 . S
O133 Dy123 2.491 . S
O134 Dy123 2.403 . S
O134 C129 1.254 . S
O135 Dy120 2.310 . S
O135 Dy123 2.664 . S
O135 C129 1.268 . S
O136 Dy120 2.351 . S
O136 C139 1.249 . S
O137 Dy123 2.326 . S
O137 C139 1.267 . S
C138 O130 1.249 . S
C138 O131 1.267 . S
C139 O136 1.249 . S
C139 O137 1.267 . S
Dy140 O144 2.398 . S
Dy140 O145 2.491 . S
Dy140 O146 2.403 . S
Dy140 O147 2.664 . S
Dy140 O151 2.326 . S
Dy140 O155 2.310 . S
Dy140 O156 2.351 . S
C141 O152 1.185 . S
C141 O153 1.355 . S
C142 O144 1.185 . S
C142 O145 1.355 . S
Dy143 O147 2.310 . S
Dy143 O150 2.351 . S
Dy143 O152 2.398 . S
Dy143 O153 2.491 . S
Dy143 O154 2.403 . S
Dy143 O155 2.664 . S
Dy143 O157 2.326 . S
O144 Dy140 2.398 . S
O144 C142 1.185 . S
O145 Dy140 2.491 . S
O145 C142 1.355 . S
O146 Dy140 2.403 . S
O146 C148 1.254 . S
O147 Dy140 2.664 . S
O147 Dy143 2.310 . S
O147 C148 1.268 . S
C148 O146 1.254 . S
C148 O147 1.268 . S
C149 O154 1.254 . S
C149 O155 1.268 . S
O150 Dy143 2.351 . S
O150 C158 1.249 . S
O151 Dy140 2.326 . S
O151 C158 1.267 . S
O152 C141 1.185 . S
O152 Dy143 2.398 . S
O153 C141 1.355 . S
O153 Dy143 2.491 . S
O154 Dy143 2.403 . S
O154 C149 1.254 . S
O155 Dy140 2.310 . S
O155 Dy143 2.664 . S
O155 C149 1.268 . S
O156 Dy140 2.351 . S
O156 C159 1.249 . S
O157 Dy143 2.326 . S
O157 C159 1.267 . S
C158 O150 1.249 . S
C158 O151 1.267 . S
C159 O156 1.249 . S
C159 O157 1.267 . S
Dy160 O164 2.398 . S
Dy160 O165 2.491 . S
Dy160 O166 2.403 . S
Dy160 O167 2.664 . S
Dy160 O171 2.326 . S
Dy160 O175 2.310 . S
Dy160 O176 2.351 . S
C161 O172 1.185 . S
C161 O173 1.355 . S
C162 O164 1.185 . S
C162 O165 1.355 . S
Dy163 O167 2.310 . S
Dy163 O170 2.351 . S
Dy163 O172 2.398 . S
Dy163 O173 2.491 . S
Dy163 O174 2.403 . S
Dy163 O175 2.664 . S
Dy163 O177 2.326 . S
O164 Dy160 2.398 . S
O164 C162 1.185 . S
O165 Dy160 2.491 . S
O165 C162 1.355 . S
O166 Dy160 2.403 . S
O166 C168 1.254 . S
O167 Dy160 2.664 . S
O167 Dy163 2.310 . S
O167 C168 1.268 . S
C168 O166 1.254 . S
C168 O167 1.268 . S
C169 O174 1.254 . S
C169 O175 1.268 . S
O170 Dy163 2.351 . S
O170 C178 1.249 . S
O171 Dy160 2.326 . S
O171 C178 1.267 . S
O172 C161 1.185 . S
O172 Dy163 2.398 . S
O173 C161 1.355 . S
O173 Dy163 2.491 . S
O174 Dy163 2.403 . S
O174 C169 1.254 . S
O175 Dy160 2.310 . S
O175 Dy163 2.664 . S
O175 C169 1.268 . S
O176 Dy160 2.351 . S
O176 C179 1.249 . S
O177 Dy163 2.326 . S
O177 C179 1.267 . S
C178 O170 1.249 . S
C178 O171 1.267 . S
C179 O176 1.249 . S
C179 O177 1.267 . S
Dy180 O184 2.398 . S
Dy180 O185 2.488 1_545 S
Dy180 O186 2.403 . S
Dy180 O187 2.664 . S
Dy180 O191 2.326 . S
Dy180 O195 2.310 . S
Dy180 O196 2.351 . S
C181 O192 1.185 . S
C181 O193 1.355 . S
C182 O184 1.185 . S
C182 O185 1.354 1_545 S
Dy183 O187 2.310 . S
Dy183 O190 2.351 . S
Dy183 O192 2.398 . S
Dy183 O193 2.491 . S
Dy183 O194 2.403 . S
Dy183 O195 2.664 . S
Dy183 O197 2.326 . S
O184 Dy180 2.398 . S
O184 C182 1.185 . S
O185 Dy180 2.488 1_565 S
O185 C182 1.354 1_565 S
O186 Dy180 2.403 . S
O186 C188 1.254 . S
O187 Dy180 2.664 . S
O187 Dy183 2.310 . S
O187 C188 1.268 . S
C188 O186 1.254 . S
C188 O187 1.268 . S
C189 O194 1.254 . S
C189 O195 1.268 . S
O190 Dy183 2.351 . S
O190 C198 1.249 . S
O191 Dy180 2.326 . S
O191 C198 1.267 . S
O192 C181 1.185 . S
O192 Dy183 2.398 . S
O193 C181 1.355 . S
O193 Dy183 2.491 . S
O194 Dy183 2.403 . S
O194 C189 1.254 . S
O195 Dy180 2.310 . S
O195 Dy183 2.664 . S
O195 C189 1.268 . S
O196 Dy180 2.351 . S
O196 C199 1.249 . S
O197 Dy183 2.326 . S
O197 C199 1.267 . S
C198 O190 1.249 . S
C198 O191 1.267 . S
C199 O196 1.249 . S
C199 O197 1.267 . S
Dy200 O204 2.398 . S
Dy200 O205 2.491 . S
Dy200 O206 2.403 . S
Dy200 O207 2.664 . S
Dy200 O211 2.326 . S
Dy200 O215 2.310 . S
Dy200 O216 2.351 . S
C201 O212 1.185 . S
C201 O213 1.355 . S
C202 O204 1.185 . S
C202 O205 1.355 . S
Dy203 O207 2.310 . S
Dy203 O210 2.351 . S
Dy203 O212 2.398 . S
Dy203 O213 2.491 . S
Dy203 O214 2.403 . S
Dy203 O215 2.664 . S
Dy203 O217 2.326 . S
O204 Dy200 2.398 . S
O204 C202 1.185 . S
O205 Dy200 2.491 . S
O205 C202 1.355 . S
O206 Dy200 2.403 . S
O206 C208 1.254 . S
O207 Dy200 2.664 . S
O207 Dy203 2.310 . S
O207 C208 1.268 . S
C208 O206 1.254 . S
C208 O207 1.268 . S
C209 O214 1.254 . S
C209 O215 1.268 . S
O210 Dy203 2.351 . S
O210 C218 1.249 . S
O211 Dy200 2.326 . S
O211 C218 1.267 . S
O212 C201 1.185 . S
O212 Dy203 2.398 . S
O213 C201 1.355 . S
O213 Dy203 2.491 . S
O214 Dy203 2.403 . S
O214 C209 1.254 . S
O215 Dy200 2.310 . S
O215 Dy203 2.664 . S
O215 C209 1.268 . S
O216 Dy200 2.351 . S
O216 C219 1.249 . S
O217 Dy203 2.326 . S
O217 C219 1.267 . S
C218 O210 1.249 . S
C218 O211 1.267 . S
C219 O216 1.249 . S
C219 O217 1.267 . S
Dy220 O224 2.398 . S
Dy220 O225 2.488 1_565 S
Dy220 O226 2.403 . S
Dy220 O227 2.664 . S
Dy220 O231 2.326 . S
Dy220 O235 2.310 . S
Dy220 O236 2.351 . S
C221 O232 1.185 . S
C221 O233 1.355 . S
C222 O224 1.185 . S
C222 O225 1.353 1_565 S
Dy223 O227 2.310 . S
Dy223 O230 2.351 . S
Dy223 O232 2.398 . S
Dy223 O233 2.491 . S
Dy223 O234 2.403 . S
Dy223 O235 2.664 . S
Dy223 O237 2.326 . S
O224 Dy220 2.398 . S
O224 C222 1.185 . S
O225 Dy220 2.488 1_545 S
O225 C222 1.353 1_545 S
O226 Dy220 2.403 . S
O226 C228 1.254 . S
O227 Dy220 2.664 . S
O227 Dy223 2.310 . S
O227 C228 1.268 . S
C228 O226 1.254 . S
C228 O227 1.268 . S
C229 O234 1.254 . S
C229 O235 1.268 . S
O230 Dy223 2.351 . S
O230 C238 1.249 . S
O231 Dy220 2.326 . S
O231 C238 1.267 . S
O232 C221 1.185 . S
O232 Dy223 2.398 . S
O233 C221 1.355 . S
O233 Dy223 2.491 . S
O234 Dy223 2.403 . S
O234 C229 1.254 . S
O235 Dy220 2.310 . S
O235 Dy223 2.664 . S
O235 C229 1.268 . S
O236 Dy220 2.351 . S
O236 C239 1.249 . S
O237 Dy223 2.326 . S
O237 C239 1.267 . S
C238 O230 1.249 . S
C238 O231 1.267 . S
C239 O236 1.249 . S
C239 O237 1.267 . S
Dy240 O244 2.398 . S
Dy240 O245 2.491 . S
Dy240 O246 2.403 . S
Dy240 O247 2.664 . S
Dy240 O251 2.326 . S
Dy240 O255 2.310 . S
Dy240 O256 2.351 . S
C241 O252 1.185 . S
C241 O253 1.355 . S
C242 O244 1.185 . S
C242 O245 1.355 . S
Dy243 O247 2.310 . S
Dy243 O250 2.351 . S
Dy243 O252 2.398 . S
Dy243 O253 2.491 . S
Dy243 O254 2.403 . S
Dy243 O255 2.664 . S
Dy243 O257 2.326 . S
O244 Dy240 2.398 . S
O244 C242 1.185 . S
O245 Dy240 2.491 . S
O245 C242 1.355 . S
O246 Dy240 2.403 . S
O246 C248 1.254 . S
O247 Dy240 2.664 . S
O247 Dy243 2.310 . S
O247 C248 1.268 . S
C248 O246 1.254 . S
C248 O247 1.268 . S
C249 O254 1.254 . S
C249 O255 1.268 . S
O250 Dy243 2.351 . S
O250 C258 1.249 . S
O251 Dy240 2.326 . S
O251 C258 1.267 . S
O252 C241 1.185 . S
O252 Dy243 2.398 . S
O253 C241 1.355 . S
O253 Dy243 2.491 . S
O254 Dy243 2.403 . S
O254 C249 1.254 . S
O255 Dy240 2.310 . S
O255 Dy243 2.664 . S
O255 C249 1.268 . S
O256 Dy240 2.351 . S
O256 C259 1.249 . S
O257 Dy243 2.326 . S
O257 C259 1.267 . S
C258 O250 1.249 . S
C258 O251 1.267 . S
C259 O256 1.249 . S
C259 O257 1.267 . S
Dy260 O264 2.398 . S
Dy260 O265 2.491 . S
Dy260 O266 2.403 . S
Dy260 O267 2.664 . S
Dy260 O271 2.326 . S
Dy260 O275 2.310 . S
Dy260 O276 2.351 . S
C261 O272 1.185 . S
C261 O273 1.354 1_565 S
C262 O264 1.185 . S
C262 O265 1.355 . S
Dy263 O267 2.310 . S
Dy263 O270 2.351 . S
Dy263 O272 2.398 . S
Dy263 O273 2.488 1_565 S
Dy263 O274 2.403 . S
Dy263 O275 2.664 . S
Dy263 O277 2.326 . S
O264 Dy260 2.398 . S
O264 C262 1.185 . S
O265 Dy260 2.491 . S
O265 C262 1.355 . S
O266 Dy260 2.403 . S
O266 C268 1.254 . S
O267 Dy260 2.664 . S
O267 Dy263 2.310 . S
O267 C268 1.268 . S
C268 O266 1.254 . S
C268 O267 1.268 . S
C269 O274 1.254 . S
C269 O275 1.268 . S
O270 Dy263 2.351 . S
O270 C278 1.249 . S
O271 Dy260 2.326 . S
O271 C278 1.267 . S
O272 C261 1.185 . S
O272 Dy263 2.398 . S
O273 C261 1.354 1_545 S
O273 Dy263 2.488 1_545 S
O274 Dy263 2.403 . S
O274 C269 1.254 . S
O275 Dy260 2.310 . S
O275 Dy263 2.664 . S
O275 C269 1.268 . S
O276 Dy260 2.351 . S
O276 C279 1.249 . S
O277 Dy263 2.326 . S
O277 C279 1.267 . S
C278 O270 1.249 . S
C278 O271 1.267 . S
C279 O276 1.249 . S
C279 O277 1.267 . S
Dy280 O284 2.398 . S
Dy280 O285 2.491 . S
Dy280 O286 2.403 . S
Dy280 O287 2.664 . S
Dy280 O291 2.326 . S
Dy280 O295 2.310 . S
Dy280 O296 2.351 . S
C281 O292 1.185 . S
C281 O293 1.355 . S
C282 O284 1.185 . S
C282 O285 1.355 . S
Dy283 O287 2.310 . S
Dy283 O290 2.351 . S
Dy283 O292 2.398 . S
Dy283 O293 2.491 . S
Dy283 O294 2.403 . S
Dy283 O295 2.664 . S
Dy283 O297 2.326 . S
O284 Dy280 2.398 . S
O284 C282 1.185 . S
O285 Dy280 2.491 . S
O285 C282 1.355 . S
O286 Dy280 2.403 . S
O286 C288 1.254 . S
O287 Dy280 2.664 . S
O287 Dy283 2.310 . S
O287 C288 1.268 . S
C288 O286 1.254 . S
C288 O287 1.268 . S
C289 O294 1.254 . S
C289 O295 1.268 . S
O290 Dy283 2.351 . S
O290 C298 1.249 . S
O291 Dy280 2.326 . S
O291 C298 1.267 . S
O292 C281 1.185 . S
O292 Dy283 2.398 . S
O293 C281 1.355 . S
O293 Dy283 2.491 . S
O294 Dy283 2.403 . S
O294 C289 1.254 . S
O295 Dy280 2.310 . S
O295 Dy283 2.664 . S
O295 C289 1.268 . S
O296 Dy280 2.351 . S
O296 C299 1.249 . S
O297 Dy283 2.326 . S
O297 C299 1.267 . S
C298 O290 1.249 . S
C298 O291 1.267 . S
C299 O296 1.249 . S
C299 O297 1.267 . S
Dy300 O304 2.398 . S
Dy300 O305 2.491 . S
Dy300 O306 2.403 . S
Dy300 O307 2.664 . S
Dy300 O311 2.326 . S
Dy300 O315 2.310 . S
Dy300 O316 2.351 . S
C301 O312 1.185 . S
C301 O313 1.353 1_545 S
C302 O304 1.185 . S
C302 O305 1.355 . S
Dy303 O307 2.310 . S
Dy303 O310 2.351 . S
Dy303 O312 2.398 . S
Dy303 O313 2.488 1_545 S
Dy303 O314 2.403 . S
Dy303 O315 2.664 . S
Dy303 O317 2.326 . S
O304 Dy300 2.398 . S
O304 C302 1.185 . S
O305 Dy300 2.491 . S
O305 C302 1.355 . S
O306 Dy300 2.403 . S
O306 C308 1.254 . S
O307 Dy300 2.664 . S
O307 Dy303 2.310 . S
O307 C308 1.268 . S
C308 O306 1.254 . S
C308 O307 1.268 . S
C309 O314 1.254 . S
C309 O315 1.268 . S
O310 Dy303 2.351 . S
O310 C318 1.249 . S
O311 Dy300 2.326 . S
O311 C318 1.267 . S
O312 C301 1.185 . S
O312 Dy303 2.398 . S
O313 C301 1.353 1_565 S
O313 Dy303 2.488 1_565 S
O314 Dy303 2.403 . S
O314 C309 1.254 . S
O315 Dy300 2.310 . S
O315 Dy303 2.664 . S
O315 C309 1.268 . S
O316 Dy300 2.351 . S
O316 C319 1.249 . S
O317 Dy303 2.326 . S
O317 C319 1.267 . S
C318 O310 1.249 . S
C318 O311 1.267 . S
C319 O316 1.249 . S
C319 O317 1.267 . S
H320 C328 0.929 . S
H321 C330 0.930 . S
H322 C332 0.930 . S
H323 C335 0.929 . S
H324 C338 0.930 . S
H325 C340 0.960 . S
H326 C340 0.960 . S
H327 C340 0.960 . S
C328 H320 0.929 . S
C328 C329 1.377 . S
C328 C330 1.384 . S
C329 C328 1.377 . S
C329 C335 1.390 . S
C330 H321 0.930 . S
C330 C328 1.384 . S
C330 C331 1.372 . S
C331 C330 1.372 . S
C331 C332 1.400 . S
C331 C336 1.490 . S
C332 H322 0.930 . S
C332 C331 1.400 . S
C332 C335 1.386 . S
H333 C349 0.930 . S
H334 C350 0.931 . S
C335 H323 0.929 . S
C335 C329 1.390 . S
C335 C332 1.386 . S
C336 C331 1.490 . S
C336 C338 1.395 . S
C336 C339 1.403 . S
H337 C343 0.930 . S
C338 H324 0.930 . S
C338 C336 1.395 . S
C338 C341 1.403 . S
C339 C336 1.403 . S
C339 C340 1.524 . S
C339 C343 1.400 . S
C340 H325 0.960 . S
C340 H326 0.960 . S
C340 H327 0.960 . S
C340 C339 1.524 . S
C341 C338 1.403 . S
C341 C342 1.392 . S
C341 C345 1.495 . S
C342 C341 1.392 . S
C342 C343 1.385 . S
C342 C344 1.478 . S
C343 H337 0.930 . S
C343 C339 1.400 . S
C343 C342 1.385 . S
C344 C342 1.478 . S
C344 C346 1.381 . S
C344 C350 1.383 . S
C345 C341 1.495 . S
C345 H351 0.959 . S
C345 H352 0.961 . S
C345 H353 0.960 . S
C346 C344 1.381 . S
C346 C347 1.394 . S
C346 H354 0.930 . S
C347 C346 1.394 . S
C347 C348 1.383 . S
C347 H355 0.929 . S
C348 C347 1.383 . S
C348 C349 1.377 . S
C349 H333 0.930 . S
C349 C348 1.377 . S
C349 C350 1.379 . S
C350 H334 0.931 . S
C350 C344 1.383 . S
C350 C349 1.379 . S
H351 C345 0.959 . S
H352 C345 0.961 . S
H353 C345 0.960 . S
H354 C346 0.930 . S
H355 C347 0.929 . S
H356 C364 0.929 . S
H357 C366 0.930 . S
H358 C368 0.930 . S
H359 C371 0.929 . S
H360 C374 0.930 . S
H361 C376 0.960 . S
H362 C376 0.960 . S
H363 C376 0.960 . S
C364 H356 0.929 . S
C364 C365 1.377 . S
C364 C366 1.384 . S
C365 C364 1.377 . S
C365 C371 1.390 . S
C366 H357 0.930 . S
C366 C364 1.384 . S
C366 C367 1.372 . S
C367 C366 1.372 . S
C367 C368 1.400 . S
C367 C372 1.490 . S
C368 H358 0.930 . S
C368 C367 1.400 . S
C368 C371 1.386 . S
H369 C385 0.930 . S
H370 C386 0.931 . S
C371 H359 0.929 . S
C371 C365 1.390 . S
C371 C368 1.386 . S
C372 C367 1.490 . S
C372 C374 1.395 . S
C372 C375 1.403 . S
H373 C379 0.930 . S
C374 H360 0.930 . S
C374 C372 1.395 . S
C374 C377 1.403 . S
C375 C372 1.403 . S
C375 C376 1.524 . S
C375 C379 1.400 . S
C376 H361 0.960 . S
C376 H362 0.960 . S
C376 H363 0.960 . S
C376 C375 1.524 . S
C377 C374 1.403 . S
C377 C378 1.392 . S
C377 C381 1.495 . S
C378 C377 1.392 . S
C378 C379 1.385 . S
C378 C380 1.478 . S
C379 H373 0.930 . S
C379 C375 1.400 . S
C379 C378 1.385 . S
C380 C378 1.478 . S
C380 C382 1.381 . S
C380 C386 1.383 . S
C381 C377 1.495 . S
C381 H387 0.959 . S
C381 H388 0.961 . S
C381 H389 0.960 . S
C382 C380 1.381 . S
C382 C383 1.394 . S
C382 H390 0.930 . S
C383 C382 1.394 . S
C383 C384 1.383 . S
C383 H391 0.929 . S
C384 C383 1.383 . S
C384 C385 1.377 . S
C385 H369 0.930 . S
C385 C384 1.377 . S
C385 C386 1.379 . S
C386 H370 0.931 . S
C386 C380 1.383 . S
C386 C385 1.379 . S
H387 C381 0.959 . S
H388 C381 0.961 . S
H389 C381 0.960 . S
H390 C382 0.930 . S
H391 C383 0.929 . S
H392 C400 0.929 . S
H393 C402 0.930 . S
H394 C404 0.930 . S
H395 C407 0.929 . S
H396 C410 0.930 . S
H397 C412 0.960 . S
H398 C412 0.960 . S
H399 C412 0.960 . S
C400 H392 0.929 . S
C400 C401 1.377 . S
C400 C402 1.384 . S
C401 C400 1.377 . S
C401 C407 1.390 . S
C402 H393 0.930 . S
C402 C400 1.384 . S
C402 C403 1.372 . S
C403 C402 1.372 . S
C403 C404 1.400 . S
C403 C408 1.490 . S
C404 H394 0.930 . S
C404 C403 1.400 . S
C404 C407 1.386 . S
H405 C421 0.930 . S
H406 C422 0.931 . S
C407 H395 0.929 . S
C407 C401 1.390 . S
C407 C404 1.386 . S
C408 C403 1.490 . S
C408 C410 1.395 . S
C408 C411 1.403 . S
H409 C415 0.930 . S
C410 H396 0.930 . S
C410 C408 1.395 . S
C410 C413 1.403 1_455 S
C411 C408 1.403 . S
C411 C412 1.524 . S
C411 C415 1.400 1_455 S
C412 H397 0.960 . S
C412 H398 0.960 . S
C412 H399 0.960 . S
C412 C411 1.524 . S
C413 C410 1.403 1_655 S
C413 C414 1.392 . S
C413 C417 1.495 . S
C414 C413 1.392 . S
C414 C415 1.385 . S
C414 C416 1.478 . S
C415 H409 0.930 . S
C415 C411 1.400 1_655 S
C415 C414 1.385 . S
C416 C414 1.478 . S
C416 C418 1.381 . S
C416 C422 1.383 . S
C417 C413 1.495 . S
C417 H423 0.959 . S
C417 H424 0.961 . S
C417 H425 0.960 . S
C418 C416 1.381 . S
C418 C419 1.394 . S
C418 H426 0.930 . S
C419 C418 1.394 . S
C419 C420 1.383 . S
C419 H427 0.929 . S
C420 C419 1.383 . S
C420 C421 1.377 . S
C421 H405 0.930 . S
C421 C420 1.377 . S
C421 C422 1.379 . S
C422 H406 0.931 . S
C422 C416 1.383 . S
C422 C421 1.379 . S
H423 C417 0.959 . S
H424 C417 0.961 . S
H425 C417 0.960 . S
H426 C418 0.930 . S
H427 C419 0.929 . S
H428 C436 0.929 . S
H429 C438 0.930 . S
H430 C440 0.930 . S
H431 C443 0.929 . S
H432 C446 0.930 . S
H433 C448 0.960 . S
H434 C448 0.960 . S
H435 C448 0.960 . S
C436 H428 0.929 . S
C436 C437 1.377 . S
C436 C438 1.384 . S
C437 C436 1.377 . S
C437 C443 1.390 . S
C438 H429 0.930 . S
C438 C436 1.384 . S
C438 C439 1.372 . S
C439 C438 1.372 . S
C439 C440 1.400 . S
C439 C444 1.490 . S
C440 H430 0.930 . S
C440 C439 1.400 . S
C440 C443 1.386 . S
H441 C457 0.930 . S
H442 C458 0.931 . S
C443 H431 0.929 . S
C443 C437 1.390 . S
C443 C440 1.386 . S
C444 C439 1.490 . S
C444 C446 1.395 1_455 S
C444 C447 1.403 . S
H445 C451 0.930 . S
C446 H432 0.930 . S
C446 C444 1.395 1_655 S
C446 C449 1.403 . S
C447 C444 1.403 . S
C447 C448 1.524 . S
C447 C451 1.400 . S
C448 H433 0.960 . S
C448 H434 0.960 . S
C448 H435 0.960 . S
C448 C447 1.524 . S
C449 C446 1.403 . S
C449 C450 1.392 . S
C449 C453 1.495 . S
C450 C449 1.392 . S
C450 C451 1.385 1_655 S
C450 C452 1.478 . S
C451 H445 0.930 . S
C451 C447 1.400 . S
C451 C450 1.385 1_455 S
C452 C450 1.478 . S
C452 C454 1.381 . S
C452 C458 1.383 . S
C453 C449 1.495 . S
C453 H459 0.959 . S
C453 H460 0.961 . S
C453 H461 0.960 . S
C454 C452 1.381 . S
C454 C455 1.394 . S
C454 H462 0.930 . S
C455 C454 1.394 . S
C455 C456 1.383 . S
C455 H463 0.929 . S
C456 C455 1.383 . S
C456 C457 1.377 . S
C457 H441 0.930 . S
C457 C456 1.377 . S
C457 C458 1.379 . S
C458 H442 0.931 . S
C458 C452 1.383 . S
C458 C457 1.379 . S
H459 C453 0.959 . S
H460 C453 0.961 . S
H461 C453 0.960 . S
H462 C454 0.930 . S
H463 C455 0.929 . S
H464 C472 0.929 . S
H465 C474 0.930 . S
H466 C476 0.930 . S
H467 C479 0.929 . S
H468 C482 0.930 . S
H469 C484 0.960 . S
H470 C484 0.960 . S
H471 C484 0.960 . S
C472 H464 0.929 . S
C472 C473 1.377 . S
C472 C474 1.384 . S
C473 C472 1.377 . S
C473 C479 1.390 . S
C474 H465 0.930 . S
C474 C472 1.384 . S
C474 C475 1.372 . S
C475 C474 1.372 . S
C475 C476 1.400 . S
C475 C480 1.490 . S
C476 H466 0.930 . S
C476 C475 1.400 . S
C476 C479 1.386 . S
H477 C493 0.930 . S
H478 C494 0.931 . S
C479 H467 0.929 . S
C479 C473 1.390 . S
C479 C476 1.386 . S
C480 C475 1.490 . S
C480 C482 1.395 . S
C480 C483 1.403 . S
H481 C487 0.930 . S
C482 H468 0.930 . S
C482 C480 1.395 . S
C482 C485 1.403 . S
C483 C480 1.403 . S
C483 C484 1.524 . S
C483 C487 1.400 . S
C484 H469 0.960 . S
C484 H470 0.960 . S
C484 H471 0.960 . S
C484 C483 1.524 . S
C485 C482 1.403 . S
C485 C486 1.392 . S
C485 C489 1.495 . S
C486 C485 1.392 . S
C486 C487 1.385 . S
C486 C488 1.478 . S
C487 H481 0.930 . S
C487 C483 1.400 . S
C487 C486 1.385 . S
C488 C486 1.478 . S
C488 C490 1.381 . S
C488 C494 1.383 . S
C489 C485 1.495 . S
C489 H495 0.959 . S
C489 H496 0.961 . S
C489 H497 0.960 . S
C490 C488 1.381 . S
C490 C491 1.394 . S
C490 H498 0.930 . S
C491 C490 1.394 . S
C491 C492 1.383 . S
C491 H499 0.929 . S
C492 C491 1.383 . S
C492 C493 1.377 . S
C493 H477 0.930 . S
C493 C492 1.377 . S
C493 C494 1.379 . S
C494 H478 0.931 . S
C494 C488 1.383 . S
C494 C493 1.379 . S
H495 C489 0.959 . S
H496 C489 0.961 . S
H497 C489 0.960 . S
H498 C490 0.930 . S
H499 C491 0.929 . S
H500 C508 0.929 . S
H501 C510 0.930 . S
H502 C512 0.930 . S
H503 C515 0.929 . S
H504 C518 0.930 . S
H505 C520 0.960 . S
H506 C520 0.960 . S
H507 C520 0.960 . S
C508 H500 0.929 . S
C508 C509 1.377 . S
C508 C510 1.384 . S
C509 C508 1.377 . S
C509 C515 1.390 . S
C510 H501 0.930 . S
C510 C508 1.384 . S
C510 C511 1.372 . S
C511 C510 1.372 . S
C511 C512 1.400 . S
C511 C516 1.490 . S
C512 H502 0.930 . S
C512 C511 1.400 . S
C512 C515 1.386 . S
H513 C529 0.930 . S
H514 C530 0.931 . S
C515 H503 0.929 . S
C515 C509 1.390 . S
C515 C512 1.386 . S
C516 C511 1.490 . S
C516 C518 1.395 . S
C516 C519 1.403 . S
H517 C523 0.930 . S
C518 H504 0.930 . S
C518 C516 1.395 . S
C518 C521 1.403 . S
C519 C516 1.403 . S
C519 C520 1.524 . S
C519 C523 1.400 . S
C520 H505 0.960 . S
C520 H506 0.960 . S
C520 H507 0.960 . S
C520 C519 1.524 . S
C521 C518 1.403 . S
C521 C522 1.392 . S
C521 C525 1.495 . S
C522 C521 1.392 . S
C522 C523 1.385 . S
C522 C524 1.478 . S
C523 H517 0.930 . S
C523 C519 1.400 . S
C523 C522 1.385 . S
C524 C522 1.478 . S
C524 C526 1.381 . S
C524 C530 1.383 . S
C525 C521 1.495 . S
C525 H531 0.959 . S
C525 H532 0.961 . S
C525 H533 0.960 . S
C526 C524 1.381 . S
C526 C527 1.394 . S
C526 H534 0.930 . S
C527 C526 1.394 . S
C527 C528 1.383 . S
C527 H535 0.929 . S
C528 C527 1.383 . S
C528 C529 1.377 . S
C529 H513 0.930 . S
C529 C528 1.377 . S
C529 C530 1.379 . S
C530 H514 0.931 . S
C530 C524 1.383 . S
C530 C529 1.379 . S
H531 C525 0.959 . S
H532 C525 0.961 . S
H533 C525 0.960 . S
H534 C526 0.930 . S
H535 C527 0.929 . S
H536 C544 0.929 . S
H537 C546 0.930 . S
H538 C548 0.930 . S
H539 C551 0.929 . S
H540 C554 0.931 . S
H541 C556 0.960 . S
H542 C556 0.960 . S
H543 C556 0.960 . S
C544 H536 0.929 . S
C544 C545 1.377 . S
C544 C546 1.384 . S
C545 C544 1.377 . S
C545 C551 1.390 . S
C546 H537 0.930 . S
C546 C544 1.384 . S
C546 C547 1.372 . S
C547 C546 1.372 . S
C547 C548 1.400 . S
C547 C552 1.490 . S
C548 H538 0.930 . S
C548 C547 1.400 . S
C548 C551 1.386 . S
H549 C565 0.930 . S
H550 C566 0.931 . S
C551 H539 0.929 . S
C551 C545 1.390 . S
C551 C548 1.386 . S
C552 C547 1.490 . S
C552 C554 1.395 1_455 S
C552 C555 1.403 . S
H553 C559 0.930 . S
C554 H540 0.931 . S
C554 C552 1.395 1_655 S
C554 C557 1.403 . S
C555 C552 1.403 . S
C555 C556 1.524 . S
C555 C559 1.400 1_455 S
C556 H541 0.960 . S
C556 H542 0.960 . S
C556 H543 0.960 . S
C556 C555 1.524 . S
C557 C554 1.403 . S
C557 C558 1.392 . S
C557 C561 1.495 . S
C558 C557 1.392 . S
C558 C559 1.385 . S
C558 C560 1.478 . S
C559 H553 0.930 . S
C559 C555 1.400 1_655 S
C559 C558 1.385 . S
C560 C558 1.478 . S
C560 C562 1.381 . S
C560 C566 1.383 . S
C561 C557 1.495 . S
C561 H567 0.959 . S
C561 H568 0.961 . S
C561 H569 0.960 . S
C562 C560 1.381 . S
C562 C563 1.394 . S
C562 H570 0.930 . S
C563 C562 1.394 . S
C563 C564 1.383 . S
C563 H571 0.929 . S
C564 C563 1.383 . S
C564 C565 1.377 . S
C565 H549 0.930 . S
C565 C564 1.377 . S
C565 C566 1.379 . S
C566 H550 0.931 . S
C566 C560 1.383 . S
C566 C565 1.379 . S
H567 C561 0.959 . S
H568 C561 0.961 . S
H569 C561 0.960 . S
H570 C562 0.930 . S
H571 C563 0.929 . S
H572 C580 0.929 . S
H573 C582 0.930 . S
H574 C584 0.930 . S
H575 C587 0.929 . S
H576 C590 0.930 . S
H577 C592 0.960 . S
H578 C592 0.960 . S
H579 C592 0.960 . S
C580 H572 0.929 . S
C580 C581 1.377 . S
C580 C582 1.384 . S
C581 C580 1.377 . S
C581 C587 1.390 . S
C582 H573 0.930 . S
C582 C580 1.384 . S
C582 C583 1.372 . S
C583 C582 1.372 . S
C583 C584 1.400 . S
C583 C588 1.490 . S
C584 H574 0.930 . S
C584 C583 1.400 . S
C584 C587 1.386 . S
H585 C601 0.930 . S
H586 C602 0.931 . S
C587 H575 0.929 . S
C587 C581 1.390 . S
C587 C584 1.386 . S
C588 C583 1.490 . S
C588 C590 1.395 1_455 S
C588 C591 1.403 . S
H589 C595 0.930 . S
C590 H576 0.930 . S
C590 C588 1.395 1_655 S
C590 C593 1.403 . S
C591 C588 1.403 . S
C591 C592 1.524 . S
C591 C595 1.400 . S
C592 H577 0.960 . S
C592 H578 0.960 . S
C592 H579 0.960 . S
C592 C591 1.524 . S
C593 C590 1.403 . S
C593 C594 1.392 . S
C593 C597 1.495 . S
C594 C593 1.392 . S
C594 C595 1.385 1_655 S
C594 C596 1.478 . S
C595 H589 0.930 . S
C595 C591 1.400 . S
C595 C594 1.385 1_455 S
C596 C594 1.478 . S
C596 C598 1.381 . S
C596 C602 1.383 . S
C597 C593 1.495 . S
C597 H603 0.959 . S
C597 H604 0.961 . S
C597 H605 0.960 . S
C598 C596 1.381 . S
C598 C599 1.394 . S
C598 H606 0.930 . S
C599 C598 1.394 . S
C599 C600 1.383 . S
C599 H607 0.929 . S
C600 C599 1.383 . S
C600 C601 1.377 . S
C601 H585 0.930 . S
C601 C600 1.377 . S
C601 C602 1.379 . S
C602 H586 0.931 . S
C602 C596 1.383 . S
C602 C601 1.379 . S
H603 C597 0.959 . S
H604 C597 0.961 . S
H605 C597 0.960 . S
H606 C598 0.930 . S
H607 C599 0.929 . S
H608 C616 0.929 . S
H609 C618 0.930 1_565 S
H610 C620 0.930 . S
H611 C623 0.929 . S
H612 C626 0.930 . S
H613 C628 0.988 . S
H614 C628 0.960 . S
H615 C628 0.960 . S
C616 H608 0.929 . S
C616 C617 1.377 . S
C616 C618 1.384 . S
C617 C616 1.377 . S
C617 C623 1.390 . S
C618 H609 0.930 1_545 S
C618 C616 1.384 . S
C618 C619 1.372 . S
C619 C618 1.372 . S
C619 C620 1.400 . S
C619 C624 1.490 . S
C620 H610 0.930 . S
C620 C619 1.400 . S
C620 C623 1.386 . S
H621 C637 0.930 . S
H622 C638 0.931 . S
C623 H611 0.929 . S
C623 C617 1.390 . S
C623 C620 1.386 . S
C624 C619 1.490 . S
C624 C626 1.395 1_545 S
C624 C627 1.403 . S
H625 C631 0.930 . S
C626 H612 0.930 . S
C626 C624 1.395 1_565 S
C626 C629 1.403 1_554 S
C627 C624 1.403 . S
C627 C628 1.524 . S
C627 C631 1.400 1_554 S
C628 H613 0.988 . S
C628 H614 0.960 . S
C628 H615 0.960 . S
C628 C627 1.524 . S
C629 C626 1.403 1_556 S
C629 C630 1.392 . S
C629 C633 1.495 . S
C630 C629 1.392 . S
C630 C631 1.385 1_565 S
C630 C632 1.478 . S
C631 H625 0.930 . S
C631 C627 1.400 1_556 S
C631 C630 1.385 1_545 S
C632 C630 1.478 . S
C632 C634 1.381 . S
C632 C638 1.383 . S
C633 C629 1.495 . S
C633 H639 0.959 1_556 S
C633 H640 0.961 . S
C633 H641 0.956 1_556 S
C634 C632 1.381 . S
C634 C635 1.394 . S
C634 H642 0.923 . S
C635 C634 1.394 . S
C635 C636 1.383 . S
C635 H643 0.929 . S
C636 C635 1.383 . S
C636 C637 1.377 . S
C637 H621 0.930 . S
C637 C636 1.377 . S
C637 C638 1.379 . S
C638 H622 0.931 . S
C638 C632 1.383 . S
C638 C637 1.379 . S
H639 C633 0.959 1_554 S
H640 C633 0.961 . S
H641 C633 0.956 1_554 S
H642 C634 0.923 . S
H643 C635 0.929 . S
H644 C652 0.929 . S
H645 C654 0.930 . S
H646 C656 0.930 . S
H647 C659 0.929 . S
H648 C662 0.930 . S
H649 C664 0.960 . S
H650 C664 0.960 . S
H651 C664 0.960 . S
C652 H644 0.929 . S
C652 C653 1.377 . S
C652 C654 1.384 . S
C653 C652 1.377 . S
C653 C659 1.390 . S
C654 H645 0.930 . S
C654 C652 1.384 . S
C654 C655 1.372 . S
C655 C654 1.372 . S
C655 C656 1.400 . S
C655 C660 1.490 . S
C656 H646 0.930 . S
C656 C655 1.400 . S
C656 C659 1.386 . S
H657 C673 0.930 . S
H658 C674 0.931 . S
C659 H647 0.929 . S
C659 C653 1.390 . S
C659 C656 1.386 . S
C660 C655 1.490 . S
C660 C662 1.395 . S
C660 C663 1.403 . S
H661 C667 0.930 . S
C662 H648 0.930 . S
C662 C660 1.395 . S
C662 C665 1.403 . S
C663 C660 1.403 . S
C663 C664 1.524 . S
C663 C667 1.400 . S
C664 H649 0.960 . S
C664 H650 0.960 . S
C664 H651 0.960 . S
C664 C663 1.524 . S
C665 C662 1.403 . S
C665 C666 1.392 . S
C665 C669 1.495 . S
C666 C665 1.392 . S
C666 C667 1.385 . S
C666 C668 1.478 . S
C667 H661 0.930 . S
C667 C663 1.400 . S
C667 C666 1.385 . S
C668 C666 1.478 . S
C668 C670 1.381 . S
C668 C674 1.383 . S
C669 C665 1.495 . S
C669 H675 0.959 . S
C669 H676 0.961 . S
C669 H677 0.960 . S
C670 C668 1.381 . S
C670 C671 1.394 . S
C670 H678 0.930 . S
C671 C670 1.394 . S
C671 C672 1.383 . S
C671 H679 0.929 . S
C672 C671 1.383 . S
C672 C673 1.377 . S
C673 H657 0.930 . S
C673 C672 1.377 . S
C673 C674 1.379 . S
C674 H658 0.931 . S
C674 C668 1.383 . S
C674 C673 1.379 . S
H675 C669 0.959 . S
H676 C669 0.961 . S
H677 C669 0.960 . S
H678 C670 0.930 . S
H679 C671 0.929 . S
H680 C688 0.929 . S
H681 C690 0.930 . S
H682 C692 0.930 1_545 S
H683 C695 0.929 . S
H684 C698 0.930 . S
H685 C700 0.960 . S
H686 C700 0.960 . S
H687 C700 0.960 . S
C688 H680 0.929 . S
C688 C689 1.377 . S
C688 C690 1.384 . S
C689 C688 1.377 . S
C689 C695 1.390 . S
C690 H681 0.930 . S
C690 C688 1.384 . S
C690 C691 1.372 . S
C691 C690 1.372 . S
C691 C692 1.400 . S
C691 C696 1.490 . S
C692 H682 0.930 1_565 S
C692 C691 1.400 . S
C692 C695 1.386 . S
H693 C709 0.930 . S
H694 C710 0.931 . S
C695 H683 0.929 . S
C695 C689 1.390 . S
C695 C692 1.386 . S
C696 C691 1.490 . S
C696 C698 1.395 . S
C696 C699 1.403 1_565 S
H697 C703 0.930 . S
C698 H684 0.930 . S
C698 C696 1.395 . S
C698 C701 1.403 1_455 S
C699 C696 1.403 1_545 S
C699 C700 1.524 . S
C699 C703 1.400 1_455 S
C700 H685 0.960 . S
C700 H686 0.960 . S
C700 H687 0.960 . S
C700 C699 1.524 . S
C701 C698 1.403 1_655 S
C701 C702 1.392 1_565 S
C701 C705 1.495 . S
C702 C701 1.392 1_545 S
C702 C703 1.385 . S
C702 C704 1.478 . S
C703 H697 0.930 . S
C703 C699 1.400 1_655 S
C703 C702 1.385 . S
C704 C702 1.478 . S
C704 C706 1.383 . S
C704 C710 1.383 . S
C705 C701 1.495 . S
C705 H711 0.959 . S
C705 H712 0.961 . S
C705 H713 0.960 . S
C706 C704 1.383 . S
C706 C707 1.396 . S
C706 H714 0.927 1_545 S
C707 C706 1.396 . S
C707 C708 1.383 . S
C707 H715 0.929 . S
C708 C707 1.383 . S
C708 C709 1.377 . S
C709 H693 0.930 . S
C709 C708 1.377 . S
C709 C710 1.379 . S
C710 H694 0.931 . S
C710 C704 1.383 . S
C710 C709 1.379 . S
H711 C705 0.959 . S
H712 C705 0.961 . S
H713 C705 0.960 . S
H714 C706 0.927 1_565 S
H715 C707 0.929 . S
H716 C724 0.929 . S
H717 C726 0.930 . S
H718 C728 0.930 . S
H719 C731 0.929 . S
H720 C734 0.930 . S
H721 C736 0.960 . S
H722 C736 0.960 . S
H723 C736 0.960 . S
C724 H716 0.929 . S
C724 C725 1.377 . S
C724 C726 1.384 . S
C725 C724 1.377 . S
C725 C731 1.390 . S
C726 H717 0.930 . S
C726 C724 1.384 . S
C726 C727 1.372 . S
C727 C726 1.372 . S
C727 C728 1.400 . S
C727 C732 1.490 . S
C728 H718 0.930 . S
C728 C727 1.400 . S
C728 C731 1.386 . S
H729 C745 0.930 . S
H730 C746 0.931 . S
C731 H719 0.929 . S
C731 C725 1.390 . S
C731 C728 1.386 . S
C732 C727 1.490 . S
C732 C734 1.395 . S
C732 C735 1.403 . S
H733 C739 0.930 . S
C734 H720 0.930 . S
C734 C732 1.395 . S
C734 C737 1.403 . S
C735 C732 1.403 . S
C735 C736 1.524 . S
C735 C739 1.400 . S
C736 H721 0.960 . S
C736 H722 0.960 . S
C736 H723 0.960 . S
C736 C735 1.524 . S
C737 C734 1.403 . S
C737 C738 1.392 . S
C737 C741 1.495 . S
C738 C737 1.392 . S
C738 C739 1.385 . S
C738 C740 1.478 . S
C739 H733 0.930 . S
C739 C735 1.400 . S
C739 C738 1.385 . S
C740 C738 1.478 . S
C740 C742 1.381 . S
C740 C746 1.383 . S
C741 C737 1.495 . S
C741 H747 0.959 . S
C741 H748 0.961 . S
C741 H749 0.960 . S
C742 C740 1.381 . S
C742 C743 1.394 . S
C742 H750 0.930 . S
C743 C742 1.394 . S
C743 C744 1.383 . S
C743 H751 0.929 . S
C744 C743 1.383 . S
C744 C745 1.377 . S
C745 H729 0.930 . S
C745 C744 1.377 . S
C745 C746 1.379 . S
C746 H730 0.931 . S
C746 C740 1.383 . S
C746 C745 1.379 . S
H747 C741 0.959 . S
H748 C741 0.961 . S
H749 C741 0.960 . S
H750 C742 0.930 . S
H751 C743 0.929 . S
H752 C760 0.929 . S
H753 C762 0.930 . S
H754 C764 0.930 . S
H755 C767 0.929 . S
H756 C770 0.930 . S
H757 C772 0.960 . S
H758 C772 0.960 . S
H759 C772 0.960 . S
C760 H752 0.929 . S
C760 C761 1.377 . S
C760 C762 1.384 . S
C761 C760 1.377 . S
C761 C767 1.390 . S
C762 H753 0.930 . S
C762 C760 1.384 . S
C762 C763 1.372 . S
C763 C762 1.372 . S
C763 C764 1.400 . S
C763 C768 1.490 . S
C764 H754 0.930 . S
C764 C763 1.400 . S
C764 C767 1.386 . S
H765 C781 0.930 . S
H766 C782 0.931 . S
C767 H755 0.929 . S
C767 C761 1.390 . S
C767 C764 1.386 . S
C768 C763 1.490 . S
C768 C770 1.395 . S
C768 C771 1.403 . S
H769 C775 0.930 . S
C770 H756 0.930 . S
C770 C768 1.395 . S
C770 C773 1.403 . S
C771 C768 1.403 . S
C771 C772 1.524 . S
C771 C775 1.400 . S
C772 H757 0.960 . S
C772 H758 0.960 . S
C772 H759 0.960 . S
C772 C771 1.524 . S
C773 C770 1.403 . S
C773 C774 1.392 . S
C773 C777 1.495 . S
C774 C773 1.392 . S
C774 C775 1.385 . S
C774 C776 1.478 . S
C775 H769 0.930 . S
C775 C771 1.400 . S
C775 C774 1.385 . S
C776 C774 1.478 . S
C776 C778 1.381 . S
C776 C782 1.383 . S
C777 C773 1.495 . S
C777 H783 0.959 . S
C777 H784 0.961 . S
C777 H785 0.960 . S
C778 C776 1.381 . S
C778 C779 1.394 . S
C778 H786 0.930 . S
C779 C778 1.394 . S
C779 C780 1.383 . S
C779 H787 0.929 . S
C780 C779 1.383 . S
C780 C781 1.377 . S
C781 H765 0.930 . S
C781 C780 1.377 . S
C781 C782 1.379 . S
C782 H766 0.931 . S
C782 C776 1.383 . S
C782 C781 1.379 . S
H783 C777 0.959 . S
H784 C777 0.961 . S
H785 C777 0.960 . S
H786 C778 0.930 . S
H787 C779 0.929 . S
H788 C796 0.929 . S
H789 C798 0.930 . S
H790 C800 0.930 . S
H791 C803 0.929 . S
H792 C806 0.930 . S
H793 C808 0.960 . S
H794 C808 0.960 . S
H795 C808 0.960 . S
C796 H788 0.929 . S
C796 C797 1.377 . S
C796 C798 1.384 . S
C797 C796 1.377 . S
C797 C803 1.390 . S
C798 H789 0.930 . S
C798 C796 1.384 . S
C798 C799 1.372 . S
C799 C798 1.372 . S
C799 C800 1.400 . S
C799 C804 1.490 . S
C800 H790 0.930 . S
C800 C799 1.400 . S
C800 C803 1.386 . S
H801 C817 0.930 . S
H802 C818 0.931 . S
C803 H791 0.929 . S
C803 C797 1.390 . S
C803 C800 1.386 . S
C804 C799 1.490 . S
C804 C806 1.395 . S
C804 C807 1.403 . S
H805 C811 0.930 . S
C806 H792 0.930 . S
C806 C804 1.395 . S
C806 C809 1.403 . S
C807 C804 1.403 . S
C807 C808 1.524 . S
C807 C811 1.400 . S
C808 H793 0.960 . S
C808 H794 0.960 . S
C808 H795 0.960 . S
C808 C807 1.524 . S
C809 C806 1.403 . S
C809 C810 1.392 . S
C809 C813 1.495 . S
C810 C809 1.392 . S
C810 C811 1.385 . S
C810 C812 1.478 . S
C811 H805 0.930 . S
C811 C807 1.400 . S
C811 C810 1.385 . S
C812 C810 1.478 . S
C812 C814 1.381 . S
C812 C818 1.383 . S
C813 C809 1.495 . S
C813 H819 0.959 . S
C813 H820 0.961 . S
C813 H821 0.960 . S
C814 C812 1.381 . S
C814 C815 1.394 . S
C814 H822 0.930 . S
C815 C814 1.394 . S
C815 C816 1.383 . S
C815 H823 0.929 . S
C816 C815 1.383 . S
C816 C817 1.377 . S
C817 H801 0.930 . S
C817 C816 1.377 . S
C817 C818 1.379 . S
C818 H802 0.931 . S
C818 C812 1.383 . S
C818 C817 1.379 . S
H819 C813 0.959 . S
H820 C813 0.961 . S
H821 C813 0.960 . S
H822 C814 0.930 . S
H823 C815 0.929 . S
H824 C832 0.929 . S
H825 C834 0.930 . S
H826 C836 0.930 . S
H827 C839 0.929 . S
H828 C842 0.930 . S
H829 C844 0.960 . S
H830 C844 0.960 . S
H831 C844 0.960 . S
C832 H824 0.929 . S
C832 C833 1.377 . S
C832 C834 1.384 . S
C833 C832 1.377 . S
C833 C839 1.390 . S
C834 H825 0.930 . S
C834 C832 1.384 . S
C834 C835 1.372 . S
C835 C834 1.372 . S
C835 C836 1.400 . S
C835 C840 1.490 . S
C836 H826 0.930 . S
C836 C835 1.400 . S
C836 C839 1.386 . S
H837 C853 0.930 . S
H838 C854 0.931 . S
C839 H827 0.929 . S
C839 C833 1.390 . S
C839 C836 1.386 . S
C840 C835 1.490 . S
C840 C842 1.396 . S
C840 C843 1.403 . S
H841 C847 0.930 . S
C842 H828 0.930 . S
C842 C840 1.396 . S
C842 C845 1.402 1_455 S
C843 C840 1.403 . S
C843 C844 1.524 . S
C843 C847 1.400 1_455 S
C844 H829 0.960 . S
C844 H830 0.960 . S
C844 H831 0.960 . S
C844 C843 1.524 . S
C845 C842 1.402 1_655 S
C845 C846 1.392 . S
C845 C849 1.495 . S
C846 C845 1.392 . S
C846 C847 1.385 . S
C846 C848 1.478 . S
C847 H841 0.930 . S
C847 C843 1.400 1_655 S
C847 C846 1.385 . S
C848 C846 1.478 . S
C848 C850 1.381 . S
C848 C854 1.383 . S
C849 C845 1.495 . S
C849 H855 0.959 . S
C849 H856 0.961 . S
C849 H857 0.960 . S
C850 C848 1.381 . S
C850 C851 1.394 . S
C850 H858 0.930 . S
C851 C850 1.394 . S
C851 C852 1.383 . S
C851 H859 0.929 . S
C852 C851 1.383 . S
C852 C853 1.377 . S
C853 H837 0.930 . S
C853 C852 1.377 . S
C853 C854 1.379 . S
C854 H838 0.931 . S
C854 C848 1.383 . S
C854 C853 1.379 . S
H855 C849 0.959 . S
H856 C849 0.961 . S
H857 C849 0.960 . S
H858 C850 0.930 . S
H859 C851 0.929 . S
H860 C868 0.929 . S
H861 C870 0.930 . S
H862 C872 0.930 . S
H863 C875 0.929 . S
H864 C878 0.930 . S
H865 C880 0.960 . S
H866 C880 0.960 . S
H867 C880 0.960 . S
C868 H860 0.929 . S
C868 C869 1.377 . S
C868 C870 1.384 . S
C869 C868 1.377 . S
C869 C875 1.390 . S
C870 H861 0.930 . S
C870 C868 1.384 . S
C870 C871 1.372 . S
C871 C870 1.372 . S
C871 C872 1.400 . S
C871 C876 1.490 . S
C872 H862 0.930 . S
C872 C871 1.400 . S
C872 C875 1.386 . S
H873 C889 0.930 . S
H874 C890 0.951 . S
C875 H863 0.929 . S
C875 C869 1.390 . S
C875 C872 1.386 . S
C876 C871 1.490 . S
C876 C878 1.395 . S
C876 C879 1.403 . S
H877 C883 0.930 . S
C878 H864 0.930 . S
C878 C876 1.395 . S
C878 C881 1.403 1_554 S
C879 C876 1.403 . S
C879 C880 1.524 . S
C879 C883 1.400 1_554 S
C880 H865 0.960 . S
C880 H866 0.960 . S
C880 H867 0.960 . S
C880 C879 1.524 . S
C881 C878 1.403 1_556 S
C881 C882 1.392 . S
C881 C885 1.495 . S
C882 C881 1.392 . S
C882 C883 1.385 . S
C882 C884 1.478 . S
C883 H877 0.930 . S
C883 C879 1.400 1_556 S
C883 C882 1.385 . S
C884 C882 1.478 . S
C884 C886 1.381 . S
C884 C890 1.383 . S
C885 C881 1.495 . S
C885 H891 0.959 . S
C885 H892 0.961 . S
C885 H893 0.960 . S
C886 C884 1.381 . S
C886 C887 1.394 . S
C886 H894 0.930 . S
C887 C886 1.394 . S
C887 C888 1.383 . S
C887 H895 0.929 . S
C888 C887 1.383 . S
C888 C889 1.377 . S
C889 H873 0.930 . S
C889 C888 1.377 . S
C889 C890 1.379 . S
C890 H874 0.951 . S
C890 C884 1.383 . S
C890 C889 1.379 . S
H891 C885 0.959 . S
H892 C885 0.961 . S
H893 C885 0.960 . S
H894 C886 0.930 . S
H895 C887 0.929 . S
H896 C904 0.929 . S
H897 C906 0.930 . S
H898 C908 0.930 . S
H899 C911 0.929 . S
H900 C914 0.930 . S
H901 C916 0.960 . S
H902 C916 0.960 . S
H903 C916 0.960 . S
C904 H896 0.929 . S
C904 C905 1.377 . S
C904 C906 1.384 . S
C905 C904 1.377 . S
C905 C911 1.390 . S
C906 H897 0.930 . S
C906 C904 1.384 . S
C906 C907 1.372 . S
C907 C906 1.372 . S
C907 C908 1.400 . S
C907 C912 1.490 . S
C908 H898 0.930 . S
C908 C907 1.400 . S
C908 C911 1.386 . S
H909 C925 0.930 . S
H910 C926 0.931 . S
C911 H899 0.929 . S
C911 C905 1.390 . S
C911 C908 1.386 . S
C912 C907 1.490 . S
C912 C914 1.395 . S
C912 C915 1.403 . S
H913 C919 0.930 . S
C914 H900 0.930 . S
C914 C912 1.395 . S
C914 C917 1.403 . S
C915 C912 1.403 . S
C915 C916 1.524 . S
C915 C919 1.400 . S
C916 H901 0.960 . S
C916 H902 0.960 . S
C916 H903 0.960 . S
C916 C915 1.524 . S
C917 C914 1.403 . S
C917 C918 1.392 . S
C917 C921 1.495 . S
C918 C917 1.392 . S
C918 C919 1.385 . S
C918 C920 1.478 . S
C919 H913 0.930 . S
C919 C915 1.400 . S
C919 C918 1.385 . S
C920 C918 1.478 . S
C920 C922 1.381 . S
C920 C926 1.383 . S
C921 C917 1.495 . S
C921 H927 0.959 . S
C921 H928 0.961 . S
C921 H929 0.960 . S
C922 C920 1.381 . S
C922 C923 1.394 . S
C922 H930 0.930 . S
C923 C922 1.394 . S
C923 C924 1.383 . S
C923 H931 0.929 . S
C924 C923 1.383 . S
C924 C925 1.377 . S
C925 H909 0.930 . S
C925 C924 1.377 . S
C925 C926 1.379 . S
C926 H910 0.931 . S
C926 C920 1.383 . S
C926 C925 1.379 . S
H927 C921 0.959 . S
H928 C921 0.961 . S
H929 C921 0.960 . S
H930 C922 0.930 . S
H931 C923 0.929 . S
H932 C940 0.929 . S
H933 C942 0.930 . S
H934 C944 0.930 . S
H935 C947 0.929 . S
H936 C950 0.930 . S
H937 C952 0.960 . S
H938 C952 0.960 . S
H939 C952 0.960 . S
C940 H932 0.929 . S
C940 C941 1.377 . S
C940 C942 1.384 . S
C941 C940 1.377 . S
C941 C947 1.390 . S
C942 H933 0.930 . S
C942 C940 1.384 . S
C942 C943 1.372 . S
C943 C942 1.372 . S
C943 C944 1.400 . S
C943 C948 1.490 . S
C944 H934 0.930 . S
C944 C943 1.400 . S
C944 C947 1.386 . S
H945 C961 0.930 . S
H946 C962 0.931 . S
C947 H935 0.929 . S
C947 C941 1.390 . S
C947 C944 1.386 . S
C948 C943 1.490 . S
C948 C950 1.395 . S
C948 C951 1.403 . S
H949 C955 0.930 . S
C950 H936 0.930 . S
C950 C948 1.395 . S
C950 C953 1.403 . S
C951 C948 1.403 . S
C951 C952 1.524 . S
C951 C955 1.400 . S
C952 H937 0.960 . S
C952 H938 0.960 . S
C952 H939 0.960 . S
C952 C951 1.524 . S
C953 C950 1.403 . S
C953 C954 1.392 . S
C953 C957 1.495 . S
C954 C953 1.392 . S
C954 C955 1.385 . S
C954 C956 1.478 . S
C955 H949 0.930 . S
C955 C951 1.400 . S
C955 C954 1.385 . S
C956 C954 1.478 . S
C956 C958 1.381 . S
C956 C962 1.383 . S
C957 C953 1.495 . S
C957 H963 0.959 . S
C957 H964 0.961 . S
C957 H965 0.960 . S
C958 C956 1.381 . S
C958 C959 1.394 . S
C958 H966 0.930 . S
C959 C958 1.394 . S
C959 C960 1.383 . S
C959 H967 0.929 . S
C960 C959 1.383 . S
C960 C961 1.377 . S
C961 H945 0.930 . S
C961 C960 1.377 . S
C961 C962 1.379 . S
C962 H946 0.931 . S
C962 C956 1.383 . S
C962 C961 1.379 . S
H963 C957 0.959 . S
H964 C957 0.961 . S
H965 C957 0.960 . S
H966 C958 0.930 . S
H967 C959 0.929 . S
H968 C976 0.929 . S
H969 C978 0.930 . S
H970 C980 0.930 . S
H971 C983 0.929 . S
H972 C986 0.930 . S
H973 C988 0.960 . S
H974 C988 0.960 . S
H975 C988 0.960 . S
C976 H968 0.929 . S
C976 C977 1.377 . S
C976 C978 1.384 . S
C977 C976 1.377 . S
C977 C983 1.390 . S
C978 H969 0.930 . S
C978 C976 1.384 . S
C978 C979 1.372 . S
C979 C978 1.372 . S
C979 C980 1.400 . S
C979 C984 1.490 . S
C980 H970 0.930 . S
C980 C979 1.400 . S
C980 C983 1.386 . S
H981 C997 0.930 . S
H982 C998 0.931 . S
C983 H971 0.929 . S
C983 C977 1.390 . S
C983 C980 1.386 . S
C984 C979 1.490 . S
C984 C986 1.395 . S
C984 C987 1.403 . S
H985 C991 0.930 . S
C986 H972 0.930 . S
C986 C984 1.395 . S
C986 C989 1.403 . S
C987 C984 1.403 . S
C987 C988 1.524 . S
C987 C991 1.400 . S
C988 H973 0.960 . S
C988 H974 0.960 . S
C988 H975 0.960 . S
C988 C987 1.524 . S
C989 C986 1.403 . S
C989 C990 1.392 . S
C989 C993 1.495 . S
C990 C989 1.392 . S
C990 C991 1.385 . S
C990 C992 1.478 . S
C991 H985 0.930 . S
C991 C987 1.400 . S
C991 C990 1.385 . S
C992 C990 1.478 . S
C992 C994 1.381 . S
C992 C998 1.383 . S
C993 C989 1.495 . S
C993 H999 0.959 . S
C993 H1000 0.961 . S
C993 H1001 0.960 . S
C994 C992 1.381 . S
C994 C995 1.394 . S
C994 H1002 0.930 . S
C995 C994 1.394 . S
C995 C996 1.383 . S
C995 H1003 0.929 . S
C996 C995 1.383 . S
C996 C997 1.377 . S
C997 H981 0.930 . S
C997 C996 1.377 . S
C997 C998 1.379 . S
C998 H982 0.931 . S
C998 C992 1.383 . S
C998 C997 1.379 . S
H999 C993 0.959 . S
H1000 C993 0.961 . S
H1001 C993 0.960 . S
H1002 C994 0.930 . S
H1003 C995 0.929 . S
H1004 C1012 0.929 . S
H1005 C1014 0.930 . S
H1006 C1016 0.930 . S
H1007 C1019 0.929 . S
H1008 C1022 0.930 . S
H1009 C1024 0.960 . S
H1010 C1024 0.960 . S
H1011 C1024 0.960 . S
C1012 H1004 0.929 . S
C1012 C1013 1.377 . S
C1012 C1014 1.384 1_655 S
C1013 C1012 1.377 . S
C1013 C1019 1.390 1_655 S
C1014 H1005 0.930 . S
C1014 C1012 1.384 1_455 S
C1014 C1015 1.372 . S
C1015 C1014 1.372 . S
C1015 C1016 1.400 . S
C1015 C1020 1.490 . S
C1016 H1006 0.930 . S
C1016 C1015 1.400 . S
C1016 C1019 1.386 . S
H1017 C1033 0.930 . S
H1018 C1034 0.931 . S
C1019 H1007 0.929 . S
C1019 C1013 1.390 1_455 S
C1019 C1016 1.386 . S
C1020 C1015 1.490 . S
C1020 C1022 1.395 . S
C1020 C1023 1.403 . S
H1021 C1027 0.930 . S
C1022 H1008 0.930 . S
C1022 C1020 1.395 . S
C1022 C1025 1.403 . S
C1023 C1020 1.403 . S
C1023 C1024 1.524 . S
C1023 C1027 1.400 . S
C1024 H1009 0.960 . S
C1024 H1010 0.960 . S
C1024 H1011 0.960 . S
C1024 C1023 1.524 . S
C1025 C1022 1.403 . S
C1025 C1026 1.392 . S
C1025 C1029 1.495 . S
C1026 C1025 1.392 . S
C1026 C1027 1.385 . S
C1026 C1028 1.478 . S
C1027 H1021 0.930 . S
C1027 C1023 1.400 . S
C1027 C1026 1.385 . S
C1028 C1026 1.478 . S
C1028 C1030 1.381 . S
C1028 C1034 1.383 . S
C1029 C1025 1.495 . S
C1029 H1035 0.959 . S
C1029 H1036 0.961 . S
C1029 H1037 0.960 . S
C1030 C1028 1.381 . S
C1030 C1031 1.394 . S
C1030 H1038 0.930 . S
C1031 C1030 1.394 . S
C1031 C1032 1.383 . S
C1031 H1039 0.929 . S
C1032 C1031 1.383 . S
C1032 C1033 1.377 . S
C1033 H1017 0.930 . S
C1033 C1032 1.377 . S
C1033 C1034 1.379 . S
C1034 H1018 0.931 . S
C1034 C1028 1.383 . S
C1034 C1033 1.379 . S
H1035 C1029 0.959 . S
H1036 C1029 0.961 . S
H1037 C1029 0.960 . S
H1038 C1030 0.930 . S
H1039 C1031 0.929 . S
H1040 C1048 0.929 . S
H1041 C1050 0.930 . S
H1042 C1052 0.930 . S
H1043 C1055 0.929 . S
H1044 C1058 0.930 . S
H1045 C1060 0.960 . S
H1046 C1060 0.960 . S
H1047 C1060 0.960 . S
C1048 H1040 0.929 . S
C1048 C1049 1.377 . S
C1048 C1050 1.384 . S
C1049 C1048 1.377 . S
C1049 C1055 1.390 . S
C1050 H1041 0.930 . S
C1050 C1048 1.384 . S
C1050 C1051 1.372 . S
C1051 C1050 1.372 . S
C1051 C1052 1.400 . S
C1051 C1056 1.490 . S
C1052 H1042 0.930 . S
C1052 C1051 1.400 . S
C1052 C1055 1.386 . S
H1053 C1069 0.930 . S
H1054 C1070 0.931 . S
C1055 H1043 0.929 . S
C1055 C1049 1.390 . S
C1055 C1052 1.386 . S
C1056 C1051 1.490 . S
C1056 C1058 1.395 . S
C1056 C1059 1.403 . S
H1057 C1063 0.930 . S
C1058 H1044 0.930 . S
C1058 C1056 1.395 . S
C1058 C1061 1.403 . S
C1059 C1056 1.403 . S
C1059 C1060 1.524 . S
C1059 C1063 1.400 . S
C1060 H1045 0.960 . S
C1060 H1046 0.960 . S
C1060 H1047 0.960 . S
C1060 C1059 1.524 . S
C1061 C1058 1.403 . S
C1061 C1062 1.392 . S
C1061 C1065 1.495 . S
C1062 C1061 1.392 . S
C1062 C1063 1.385 . S
C1062 C1064 1.478 . S
C1063 H1057 0.930 . S
C1063 C1059 1.400 . S
C1063 C1062 1.385 . S
C1064 C1062 1.478 . S
C1064 C1066 1.381 . S
C1064 C1070 1.383 . S
C1065 C1061 1.495 . S
C1065 H1071 0.959 . S
C1065 H1072 0.961 . S
C1065 H1073 0.960 . S
C1066 C1064 1.381 . S
C1066 C1067 1.394 . S
C1066 H1074 0.930 . S
C1067 C1066 1.394 . S
C1067 C1068 1.383 . S
C1067 H1075 0.929 . S
C1068 C1067 1.383 . S
C1068 C1069 1.377 . S
C1069 H1053 0.930 . S
C1069 C1068 1.377 . S
C1069 C1070 1.379 . S
C1070 H1054 0.931 . S
C1070 C1064 1.383 . S
C1070 C1069 1.379 . S
H1071 C1065 0.959 . S
H1072 C1065 0.961 . S
H1073 C1065 0.960 . S
H1074 C1066 0.930 . S
H1075 C1067 0.929 . S
H1076 C1084 0.929 . S
H1077 C1086 0.930 . S
H1078 C1088 0.930 . S
H1079 C1091 0.929 . S
H1080 C1094 0.930 . S
H1081 C1096 0.960 . S
H1082 C1096 0.960 . S
H1083 C1096 0.960 . S
C1084 H1076 0.929 . S
C1084 C1085 1.377 . S
C1084 C1086 1.384 . S
C1085 C1084 1.377 . S
C1085 C1091 1.390 . S
C1086 H1077 0.930 . S
C1086 C1084 1.384 . S
C1086 C1087 1.372 . S
C1087 C1086 1.372 . S
C1087 C1088 1.400 . S
C1087 C1092 1.490 . S
C1088 H1078 0.930 . S
C1088 C1087 1.400 . S
C1088 C1091 1.386 . S
H1089 C1105 0.930 . S
H1090 C1106 0.931 . S
C1091 H1079 0.929 . S
C1091 C1085 1.390 . S
C1091 C1088 1.386 . S
C1092 C1087 1.490 . S
C1092 C1094 1.395 . S
C1092 C1095 1.403 . S
H1093 C1099 0.930 . S
C1094 H1080 0.930 . S
C1094 C1092 1.395 . S
C1094 C1097 1.403 . S
C1095 C1092 1.403 . S
C1095 C1096 1.524 . S
C1095 C1099 1.400 . S
C1096 H1081 0.960 . S
C1096 H1082 0.960 . S
C1096 H1083 0.960 . S
C1096 C1095 1.524 . S
C1097 C1094 1.403 . S
C1097 C1098 1.392 . S
C1097 C1101 1.495 . S
C1098 C1097 1.392 . S
C1098 C1099 1.385 . S
C1098 C1100 1.478 . S
C1099 H1093 0.930 . S
C1099 C1095 1.400 . S
C1099 C1098 1.385 . S
C1100 C1098 1.478 . S
C1100 C1102 1.381 . S
C1100 C1106 1.383 . S
C1101 C1097 1.495 . S
C1101 H1107 0.959 . S
C1101 H1108 0.961 . S
C1101 H1109 0.960 . S
C1102 C1100 1.381 . S
C1102 C1103 1.394 . S
C1102 H1110 0.930 . S
C1103 C1102 1.394 . S
C1103 C1104 1.383 . S
C1103 H1111 0.929 . S
C1104 C1103 1.383 . S
C1104 C1105 1.377 . S
C1105 H1089 0.930 . S
C1105 C1104 1.377 . S
C1105 C1106 1.379 . S
C1106 H1090 0.931 . S
C1106 C1100 1.383 . S
C1106 C1105 1.379 . S
H1107 C1101 0.959 . S
H1108 C1101 0.961 . S
H1109 C1101 0.960 . S
H1110 C1102 0.930 . S
H1111 C1103 0.929 . S
H1112 C1120 0.929 . S
H1113 C1122 0.930 . S
H1114 C1124 0.930 . S
H1115 C1127 0.929 . S
H1116 C1130 0.930 . S
H1117 C1132 0.960 . S
H1118 C1132 0.960 . S
H1119 C1132 0.960 . S
C1120 H1112 0.929 . S
C1120 C1121 1.377 . S
C1120 C1122 1.384 . S
C1121 C1120 1.377 . S
C1121 C1127 1.390 . S
C1122 H1113 0.930 . S
C1122 C1120 1.384 . S
C1122 C1123 1.372 . S
C1123 C1122 1.372 . S
C1123 C1124 1.400 . S
C1123 C1128 1.490 . S
C1124 H1114 0.930 . S
C1124 C1123 1.400 . S
C1124 C1127 1.386 . S
H1125 C1141 0.930 . S
H1126 C1142 0.931 . S
C1127 H1115 0.929 . S
C1127 C1121 1.390 . S
C1127 C1124 1.386 . S
C1128 C1123 1.490 . S
C1128 C1130 1.395 . S
C1128 C1131 1.403 . S
H1129 C1135 0.930 . S
C1130 H1116 0.930 . S
C1130 C1128 1.395 . S
C1130 C1133 1.403 . S
C1131 C1128 1.403 . S
C1131 C1132 1.524 . S
C1131 C1135 1.400 . S
C1132 H1117 0.960 . S
C1132 H1118 0.960 . S
C1132 H1119 0.960 . S
C1132 C1131 1.524 . S
C1133 C1130 1.403 . S
C1133 C1134 1.392 . S
C1133 C1137 1.495 . S
C1134 C1133 1.392 . S
C1134 C1135 1.385 . S
C1134 C1136 1.478 . S
C1135 H1129 0.930 . S
C1135 C1131 1.400 . S
C1135 C1134 1.385 . S
C1136 C1134 1.478 . S
C1136 C1138 1.381 . S
C1136 C1142 1.383 . S
C1137 C1133 1.495 . S
C1137 H1143 0.959 . S
C1137 H1144 0.961 . S
C1137 H1145 0.960 . S
C1138 C1136 1.381 . S
C1138 C1139 1.394 . S
C1138 H1146 0.930 . S
C1139 C1138 1.394 . S
C1139 C1140 1.383 . S
C1139 H1147 0.929 . S
C1140 C1139 1.383 . S
C1140 C1141 1.377 . S
C1141 H1125 0.930 . S
C1141 C1140 1.377 . S
C1141 C1142 1.379 . S
C1142 H1126 0.931 . S
C1142 C1136 1.383 . S
C1142 C1141 1.379 . S
H1143 C1137 0.959 . S
H1144 C1137 0.961 . S
H1145 C1137 0.960 . S
H1146 C1138 0.930 . S
H1147 C1139 0.929 . S
H1148 C1156 0.929 . S
H1149 C1158 0.930 . S
H1150 C1160 0.930 . S
H1151 C1163 0.929 . S
H1152 C1166 0.930 . S
H1153 C1168 0.960 . S
H1154 C1168 0.960 . S
H1155 C1168 0.960 . S
C1156 H1148 0.929 . S
C1156 C1157 1.377 . S
C1156 C1158 1.384 . S
C1157 C1156 1.377 . S
C1157 C1163 1.390 . S
C1158 H1149 0.930 . S
C1158 C1156 1.384 . S
C1158 C1159 1.372 . S
C1159 C1158 1.372 . S
C1159 C1160 1.400 . S
C1159 C1164 1.490 . S
C1160 H1150 0.930 . S
C1160 C1159 1.400 . S
C1160 C1163 1.386 . S
H1161 C1177 0.930 . S
H1162 C1178 0.931 . S
C1163 H1151 0.929 . S
C1163 C1157 1.390 . S
C1163 C1160 1.386 . S
C1164 C1159 1.490 . S
C1164 C1166 1.395 . S
C1164 C1167 1.403 . S
H1165 C1171 0.930 . S
C1166 H1152 0.930 . S
C1166 C1164 1.395 . S
C1166 C1169 1.403 . S
C1167 C1164 1.403 . S
C1167 C1168 1.524 . S
C1167 C1171 1.400 . S
C1168 H1153 0.960 . S
C1168 H1154 0.960 . S
C1168 H1155 0.960 . S
C1168 C1167 1.524 . S
C1169 C1166 1.403 . S
C1169 C1170 1.392 . S
C1169 C1173 1.495 . S
C1170 C1169 1.392 . S
C1170 C1171 1.385 . S
C1170 C1172 1.478 . S
C1171 H1165 0.930 . S
C1171 C1167 1.400 . S
C1171 C1170 1.385 . S
C1172 C1170 1.478 . S
C1172 C1174 1.381 . S
C1172 C1178 1.383 . S
C1173 C1169 1.495 . S
C1173 H1179 0.959 . S
C1173 H1180 0.961 . S
C1173 H1181 0.960 . S
C1174 C1172 1.381 . S
C1174 C1175 1.394 1_655 S
C1174 H1182 0.930 . S
C1175 C1174 1.394 1_455 S
C1175 C1176 1.383 . S
C1175 H1183 0.929 . S
C1176 C1175 1.383 . S
C1176 C1177 1.377 . S
C1177 H1161 0.930 . S
C1177 C1176 1.377 . S
C1177 C1178 1.379 1_455 S
C1178 H1162 0.931 . S
C1178 C1172 1.383 . S
C1178 C1177 1.379 1_655 S
H1179 C1173 0.959 . S
H1180 C1173 0.961 . S
H1181 C1173 0.960 . S
H1182 C1174 0.930 . S
H1183 C1175 0.929 . S
H1184 C1192 0.929 . S
H1185 C1194 0.930 . S
H1186 C1196 0.930 . S
H1187 C1199 0.929 . S
H1188 C1202 0.930 . S
H1189 C1204 0.960 . S
H1190 C1204 0.960 . S
H1191 C1204 0.960 . S
C1192 H1184 0.929 . S
C1192 C1193 1.377 . S
C1192 C1194 1.384 . S
C1193 C1192 1.377 . S
C1193 C1199 1.390 . S
C1194 H1185 0.930 . S
C1194 C1192 1.384 . S
C1194 C1195 1.372 . S
C1195 C1194 1.372 . S
C1195 C1196 1.400 . S
C1195 C1200 1.490 . S
C1196 H1186 0.930 . S
C1196 C1195 1.400 . S
C1196 C1199 1.386 . S
H1197 C1213 0.930 . S
H1198 C1214 0.931 . S
C1199 H1187 0.929 . S
C1199 C1193 1.390 . S
C1199 C1196 1.386 . S
C1200 C1195 1.490 . S
C1200 C1202 1.395 . S
C1200 C1203 1.403 . S
H1201 C1207 0.930 . S
C1202 H1188 0.930 . S
C1202 C1200 1.395 . S
C1202 C1205 1.403 . S
C1203 C1200 1.403 . S
C1203 C1204 1.524 . S
C1203 C1207 1.400 . S
C1204 H1189 0.960 . S
C1204 H1190 0.960 . S
C1204 H1191 0.960 . S
C1204 C1203 1.524 . S
C1205 C1202 1.403 . S
C1205 C1206 1.392 . S
C1205 C1209 1.495 . S
C1206 C1205 1.392 . S
C1206 C1207 1.385 . S
C1206 C1208 1.478 . S
C1207 H1201 0.930 . S
C1207 C1203 1.400 . S
C1207 C1206 1.385 . S
C1208 C1206 1.478 . S
C1208 C1210 1.381 . S
C1208 C1214 1.383 . S
C1209 C1205 1.495 . S
C1209 H1215 0.959 . S
C1209 H1216 0.961 . S
C1209 H1217 0.960 . S
C1210 C1208 1.381 . S
C1210 C1211 1.394 . S
C1210 H1218 0.930 . S
C1211 C1210 1.394 . S
C1211 C1212 1.383 . S
C1211 H1219 0.955 . S
C1212 C1211 1.383 . S
C1212 C1213 1.377 . S
C1213 H1197 0.930 . S
C1213 C1212 1.377 . S
C1213 C1214 1.379 . S
C1214 H1198 0.931 . S
C1214 C1208 1.383 . S
C1214 C1213 1.379 . S
H1215 C1209 0.959 . S
H1216 C1209 0.961 . S
H1217 C1209 0.960 . S
H1218 C1210 0.930 . S
H1219 C1211 0.955 . S
H1220 C1228 0.929 . S
H1221 C1230 0.930 . S
H1222 C1232 0.930 . S
H1223 C1235 0.929 . S
H1224 C1238 0.930 . S
H1225 C1240 0.960 . S
H1226 C1240 0.960 . S
H1227 C1240 0.960 . S
C1228 H1220 0.929 . S
C1228 C1229 1.377 . S
C1228 C1230 1.384 . S
C1229 C1228 1.377 . S
C1229 C1235 1.390 . S
C1230 H1221 0.930 . S
C1230 C1228 1.384 . S
C1230 C1231 1.372 . S
C1231 C1230 1.372 . S
C1231 C1232 1.400 . S
C1231 C1236 1.490 . S
C1232 H1222 0.930 . S
C1232 C1231 1.400 . S
C1232 C1235 1.386 . S
H1233 C1249 0.930 . S
H1234 C1250 0.931 . S
C1235 H1223 0.929 . S
C1235 C1229 1.390 . S
C1235 C1232 1.386 . S
C1236 C1231 1.490 . S
C1236 C1238 1.395 . S
C1236 C1239 1.403 . S
H1237 C1243 0.930 . S
C1238 H1224 0.930 . S
C1238 C1236 1.395 . S
C1238 C1241 1.403 . S
C1239 C1236 1.403 . S
C1239 C1240 1.524 . S
C1239 C1243 1.400 . S
C1240 H1225 0.960 . S
C1240 H1226 0.960 . S
C1240 H1227 0.960 . S
C1240 C1239 1.524 . S
C1241 C1238 1.403 . S
C1241 C1242 1.392 . S
C1241 C1245 1.495 1_565 S
C1242 C1241 1.392 . S
C1242 C1243 1.385 . S
C1242 C1244 1.478 . S
C1243 H1237 0.930 . S
C1243 C1239 1.400 . S
C1243 C1242 1.385 . S
C1244 C1242 1.478 . S
C1244 C1246 1.381 . S
C1244 C1250 1.383 . S
C1245 C1241 1.495 1_545 S
C1245 H1251 0.959 . S
C1245 H1252 0.961 . S
C1245 H1253 0.960 . S
C1246 C1244 1.381 . S
C1246 C1247 1.394 . S
C1246 H1254 0.930 . S
C1247 C1246 1.394 . S
C1247 C1248 1.383 1_665 S
C1247 H1255 0.929 1_655 S
C1248 C1247 1.383 1_445 S
C1248 C1249 1.377 . S
C1249 H1233 0.930 . S
C1249 C1248 1.377 . S
C1249 C1250 1.379 1_445 S
C1250 H1234 0.931 . S
C1250 C1244 1.383 . S
C1250 C1249 1.379 1_665 S
H1251 C1245 0.959 . S
H1252 C1245 0.961 . S
H1253 C1245 0.960 . S
H1254 C1246 0.930 . S
H1255 C1247 0.929 1_455 S
H1256 C1264 0.929 . S
H1257 C1266 0.930 . S
H1258 C1268 0.930 . S
H1259 C1271 0.929 . S
H1260 C1274 0.930 . S
H1261 C1276 0.960 . S
H1262 C1276 0.960 . S
H1263 C1276 0.960 . S
C1264 H1256 0.929 . S
C1264 C1265 1.377 . S
C1264 C1266 1.384 . S
C1265 C1264 1.377 . S
C1265 C1271 1.390 . S
C1266 H1257 0.930 . S
C1266 C1264 1.384 . S
C1266 C1267 1.372 . S
C1267 C1266 1.372 . S
C1267 C1268 1.400 . S
C1267 C1272 1.490 . S
C1268 H1258 0.930 . S
C1268 C1267 1.400 . S
C1268 C1271 1.386 . S
H1269 C1285 0.930 . S
H1270 C1286 0.931 . S
C1271 H1259 0.929 . S
C1271 C1265 1.390 . S
C1271 C1268 1.386 . S
C1272 C1267 1.490 . S
C1272 C1274 1.395 . S
C1272 C1275 1.403 . S
H1273 C1279 0.930 . S
C1274 H1260 0.930 . S
C1274 C1272 1.395 . S
C1274 C1277 1.403 . S
C1275 C1272 1.403 . S
C1275 C1276 1.524 . S
C1275 C1279 1.400 . S
C1276 H1261 0.960 . S
C1276 H1262 0.960 . S
C1276 H1263 0.960 . S
C1276 C1275 1.524 . S
C1277 C1274 1.403 . S
C1277 C1278 1.392 . S
C1277 C1281 1.495 . S
C1278 C1277 1.392 . S
C1278 C1279 1.385 . S
C1278 C1280 1.478 . S
C1279 H1273 0.930 . S
C1279 C1275 1.400 . S
C1279 C1278 1.385 . S
C1280 C1278 1.478 . S
C1280 C1282 1.381 . S
C1280 C1286 1.383 . S
C1281 C1277 1.495 . S
C1281 H1287 0.959 . S
C1281 H1288 0.961 . S
C1281 H1289 0.960 . S
C1282 C1280 1.381 . S
C1282 C1283 1.394 . S
C1282 H1290 0.930 . S
C1283 C1282 1.394 . S
C1283 C1284 1.383 . S
C1283 H1291 0.929 . S
C1284 C1283 1.383 . S
C1284 C1285 1.377 . S
C1285 H1269 0.930 . S
C1285 C1284 1.377 . S
C1285 C1286 1.379 . S
C1286 H1270 0.931 . S
C1286 C1280 1.383 . S
C1286 C1285 1.379 . S
H1287 C1281 0.959 . S
H1288 C1281 0.961 . S
H1289 C1281 0.960 . S
H1290 C1282 0.930 . S
H1291 C1283 0.929 . S
H1292 C1300 0.929 . S
H1293 C1302 0.930 . S
H1294 C1304 0.930 . S
H1295 C1307 0.929 . S
H1296 C1310 0.930 . S
H1297 C1312 0.960 . S
H1298 C1312 0.960 . S
H1299 C1312 0.960 . S
C1300 H1292 0.929 . S
C1300 C1301 1.377 . S
C1300 C1302 1.384 . S
C1301 C1300 1.377 . S
C1301 C1307 1.390 . S
C1302 H1293 0.930 . S
C1302 C1300 1.384 . S
C1302 C1303 1.372 . S
C1303 C1302 1.372 . S
C1303 C1304 1.400 . S
C1303 C1308 1.490 . S
C1304 H1294 0.930 . S
C1304 C1303 1.400 . S
C1304 C1307 1.386 . S
H1305 C1321 0.930 . S
H1306 C1322 0.931 . S
C1307 H1295 0.929 . S
C1307 C1301 1.390 . S
C1307 C1304 1.386 . S
C1308 C1303 1.490 . S
C1308 C1310 1.395 . S
C1308 C1311 1.403 . S
H1309 C1315 0.930 . S
C1310 H1296 0.930 . S
C1310 C1308 1.395 . S
C1310 C1313 1.403 . S
C1311 C1308 1.403 . S
C1311 C1312 1.524 . S
C1311 C1315 1.400 . S
C1312 H1297 0.960 . S
C1312 H1298 0.960 . S
C1312 H1299 0.960 . S
C1312 C1311 1.524 . S
C1313 C1310 1.403 . S
C1313 C1314 1.392 . S
C1313 C1317 1.495 . S
C1314 C1313 1.392 . S
C1314 C1315 1.385 . S
C1314 C1316 1.478 . S
C1315 H1309 0.930 . S
C1315 C1311 1.400 . S
C1315 C1314 1.385 . S
C1316 C1314 1.478 . S
C1316 C1318 1.381 1_545 S
C1316 C1322 1.383 . S
C1317 C1313 1.495 . S
C1317 H1323 0.959 . S
C1317 H1324 0.961 . S
C1317 H1325 0.960 . S
C1318 C1316 1.381 1_565 S
C1318 C1319 1.394 . S
C1318 H1326 0.930 . S
C1319 C1318 1.394 . S
C1319 C1320 1.383 . S
C1319 H1327 0.929 . S
C1320 C1319 1.383 . S
C1320 C1321 1.377 1_565 S
C1321 H1305 0.930 . S
C1321 C1320 1.377 1_545 S
C1321 C1322 1.379 . S
C1322 H1306 0.931 . S
C1322 C1316 1.383 . S
C1322 C1321 1.379 . S
H1323 C1317 0.959 . S
H1324 C1317 0.961 . S
H1325 C1317 0.960 . S
H1326 C1318 0.930 . S
H1327 C1319 0.929 . S
H1328 C1336 0.929 . S
H1329 C1338 0.930 . S
H1330 C1340 0.930 . S
H1331 C1343 0.929 . S
H1332 C1346 0.930 . S
H1333 C1348 0.960 . S
H1334 C1348 0.960 . S
H1335 C1348 0.960 . S
C1336 H1328 0.929 . S
C1336 C1337 1.377 . S
C1336 C1338 1.384 . S
C1337 C1336 1.377 . S
C1337 C1343 1.390 . S
C1338 H1329 0.930 . S
C1338 C1336 1.384 . S
C1338 C1339 1.372 . S
C1339 C1338 1.372 . S
C1339 C1340 1.400 . S
C1339 C1344 1.490 . S
C1340 H1330 0.930 . S
C1340 C1339 1.400 . S
C1340 C1343 1.386 . S
H1341 C1357 0.930 . S
H1342 C1358 0.931 . S
C1343 H1331 0.929 . S
C1343 C1337 1.390 . S
C1343 C1340 1.386 . S
C1344 C1339 1.490 . S
C1344 C1346 1.395 . S
C1344 C1347 1.403 . S
H1345 C1351 0.930 . S
C1346 H1332 0.930 . S
C1346 C1344 1.395 . S
C1346 C1349 1.403 . S
C1347 C1344 1.403 . S
C1347 C1348 1.524 . S
C1347 C1351 1.400 . S
C1348 H1333 0.960 . S
C1348 H1334 0.960 . S
C1348 H1335 0.960 . S
C1348 C1347 1.524 . S
C1349 C1346 1.403 . S
C1349 C1350 1.392 . S
C1349 C1353 1.495 . S
C1350 C1349 1.392 . S
C1350 C1351 1.385 . S
C1350 C1352 1.478 . S
C1351 H1345 0.930 . S
C1351 C1347 1.400 . S
C1351 C1350 1.385 . S
C1352 C1350 1.478 . S
C1352 C1354 1.381 . S
C1352 C1358 1.383 . S
C1353 C1349 1.495 . S
C1353 H1359 0.959 . S
C1353 H1360 0.961 . S
C1353 H1361 0.960 . S
C1354 C1352 1.381 . S
C1354 C1355 1.394 . S
C1354 H1362 0.930 . S
C1355 C1354 1.394 . S
C1355 C1356 1.383 . S
C1355 H1363 0.929 1_545 S
C1356 C1355 1.383 . S
C1356 C1357 1.377 . S
C1357 H1341 0.930 . S
C1357 C1356 1.377 . S
C1357 C1358 1.379 . S
C1358 H1342 0.931 . S
C1358 C1352 1.383 . S
C1358 C1357 1.379 . S
H1359 C1353 0.959 . S
H1360 C1353 0.961 . S
H1361 C1353 0.960 . S
H1362 C1354 0.930 . S
H1363 C1355 0.929 1_565 S
H1364 C1372 0.929 . S
H1365 C1374 0.930 . S
H1366 C1376 0.930 . S
H1367 C1379 0.929 . S
H1368 C1382 0.930 . S
H1369 C1384 0.960 . S
H1370 C1384 0.960 . S
H1371 C1384 0.960 . S
C1372 H1364 0.929 . S
C1372 C1373 1.377 1_545 S
C1372 C1374 1.384 1_655 S
C1373 C1372 1.377 1_565 S
C1373 C1379 1.390 . S
C1374 H1365 0.930 . S
C1374 C1372 1.384 1_455 S
C1374 C1375 1.372 . S
C1375 C1374 1.372 . S
C1375 C1376 1.400 1_545 S
C1375 C1380 1.490 . S
C1376 H1366 0.930 . S
C1376 C1375 1.400 1_565 S
C1376 C1379 1.386 1_455 S
H1377 C1393 0.930 . S
H1378 C1394 0.931 . S
C1379 H1367 0.929 . S
C1379 C1373 1.390 . S
C1379 C1376 1.386 1_655 S
C1380 C1375 1.490 . S
C1380 C1382 1.395 . S
C1380 C1383 1.403 . S
H1381 C1387 0.930 . S
C1382 H1368 0.930 . S
C1382 C1380 1.395 . S
C1382 C1385 1.403 . S
C1383 C1380 1.403 . S
C1383 C1384 1.524 . S
C1383 C1387 1.400 . S
C1384 H1369 0.960 . S
C1384 H1370 0.960 . S
C1384 H1371 0.960 . S
C1384 C1383 1.524 . S
C1385 C1382 1.403 . S
C1385 C1386 1.392 . S
C1385 C1389 1.495 . S
C1386 C1385 1.392 . S
C1386 C1387 1.385 . S
C1386 C1388 1.478 . S
C1387 H1381 0.930 . S
C1387 C1383 1.400 . S
C1387 C1386 1.385 . S
C1388 C1386 1.478 . S
C1388 C1390 1.381 . S
C1388 C1394 1.383 . S
C1389 C1385 1.495 . S
C1389 H1395 0.959 . S
C1389 H1396 0.961 . S
C1389 H1397 0.960 . S
C1390 C1388 1.381 . S
C1390 C1391 1.394 . S
C1390 H1398 0.930 . S
C1391 C1390 1.394 . S
C1391 C1392 1.383 . S
C1391 H1399 0.929 . S
C1392 C1391 1.383 . S
C1392 C1393 1.377 . S
C1393 H1377 0.930 . S
C1393 C1392 1.377 . S
C1393 C1394 1.379 . S
C1394 H1378 0.931 . S
C1394 C1388 1.383 . S
C1394 C1393 1.379 . S
H1395 C1389 0.959 . S
H1396 C1389 0.961 . S
H1397 C1389 0.960 . S
H1398 C1390 0.930 . S
H1399 C1391 0.929 . S
H1400 C1408 0.929 . S
H1401 C1410 0.930 . S
H1402 C1412 0.930 . S
H1403 C1415 0.929 . S
H1404 C1418 0.930 . S
H1405 C1420 0.960 . S
H1406 C1420 0.960 . S
H1407 C1420 0.960 . S
C1408 H1400 0.929 . S
C1408 C1409 1.377 . S
C1408 C1410 1.384 . S
C1409 C1408 1.377 . S
C1409 C1415 1.390 . S
C1410 H1401 0.930 . S
C1410 C1408 1.384 . S
C1410 C1411 1.372 . S
C1411 C1410 1.372 . S
C1411 C1412 1.400 . S
C1411 C1416 1.490 . S
C1412 H1402 0.930 . S
C1412 C1411 1.400 . S
C1412 C1415 1.386 . S
H1413 C1429 0.930 . S
H1414 C1430 0.931 . S
C1415 H1403 0.929 . S
C1415 C1409 1.390 . S
C1415 C1412 1.386 . S
C1416 C1411 1.490 . S
C1416 C1418 1.395 . S
C1416 C1419 1.403 . S
H1417 C1423 0.930 . S
C1418 H1404 0.930 . S
C1418 C1416 1.395 . S
C1418 C1421 1.403 . S
C1419 C1416 1.403 . S
C1419 C1420 1.524 . S
C1419 C1423 1.400 . S
C1420 H1405 0.960 . S
C1420 H1406 0.960 . S
C1420 H1407 0.960 . S
C1420 C1419 1.524 . S
C1421 C1418 1.403 . S
C1421 C1422 1.392 . S
C1421 C1425 1.495 . S
C1422 C1421 1.392 . S
C1422 C1423 1.385 . S
C1422 C1424 1.478 . S
C1423 H1417 0.930 . S
C1423 C1419 1.400 . S
C1423 C1422 1.385 . S
C1424 C1422 1.478 . S
C1424 C1426 1.381 . S
C1424 C1430 1.383 . S
C1425 C1421 1.495 . S
C1425 H1431 0.959 . S
C1425 H1432 0.961 . S
C1425 H1433 0.960 . S
C1426 C1424 1.381 . S
C1426 C1427 1.394 . S
C1426 H1434 0.930 . S
C1427 C1426 1.394 . S
C1427 C1428 1.383 . S
C1427 H1435 0.929 . S
C1428 C1427 1.383 . S
C1428 C1429 1.377 . S
C1429 H1413 0.930 . S
C1429 C1428 1.377 . S
C1429 C1430 1.379 . S
C1430 H1414 0.931 . S
C1430 C1424 1.383 . S
C1430 C1429 1.379 . S
H1431 C1425 0.959 . S
H1432 C1425 0.961 . S
H1433 C1425 0.960 . S
H1434 C1426 0.930 . S
H1435 C1427 0.929 . S
H1436 C1444 0.929 . S
H1437 C1446 0.930 . S
H1438 C1448 0.930 . S
H1439 C1451 0.936 . S
H1440 C1454 0.930 1_545 S
H1441 C1456 0.960 . S
H1442 C1456 0.960 . S
H1443 C1456 0.960 . S
C1444 H1436 0.929 . S
C1444 C1445 1.377 1_565 S
C1444 C1446 1.384 . S
C1445 C1444 1.377 1_545 S
C1445 C1451 1.391 . S
C1446 H1437 0.930 . S
C1446 C1444 1.384 . S
C1446 C1447 1.372 . S
C1447 C1446 1.372 . S
C1447 C1448 1.400 . S
C1447 C1452 1.490 . S
C1448 H1438 0.930 . S
C1448 C1447 1.400 . S
C1448 C1451 1.378 1_565 S
H1449 C1465 0.930 . S
H1450 C1466 0.931 . S
C1451 H1439 0.936 . S
C1451 C1445 1.391 . S
C1451 C1448 1.378 1_545 S
C1452 C1447 1.490 . S
C1452 C1454 1.395 . S
C1452 C1455 1.403 . S
H1453 C1459 0.930 . S
C1454 H1440 0.930 1_565 S
C1454 C1452 1.395 . S
C1454 C1457 1.403 . S
C1455 C1452 1.403 . S
C1455 C1456 1.524 . S
C1455 C1459 1.400 . S
C1456 H1441 0.960 . S
C1456 H1442 0.960 . S
C1456 H1443 0.960 . S
C1456 C1455 1.524 . S
C1457 C1454 1.403 . S
C1457 C1458 1.392 . S
C1457 C1461 1.495 1_565 S
C1458 C1457 1.392 . S
C1458 C1459 1.385 . S
C1458 C1460 1.478 . S
C1459 H1453 0.930 . S
C1459 C1455 1.400 . S
C1459 C1458 1.385 . S
C1460 C1458 1.478 . S
C1460 C1462 1.381 . S
C1460 C1466 1.383 . S
C1461 C1457 1.495 1_545 S
C1461 H1467 0.959 . S
C1461 H1468 0.961 . S
C1461 H1469 0.960 1_545 S
C1462 C1460 1.381 . S
C1462 C1463 1.394 . S
C1462 H1470 0.930 . S
C1463 C1462 1.394 . S
C1463 C1464 1.383 . S
C1463 H1471 0.929 . S
C1464 C1463 1.383 . S
C1464 C1465 1.377 . S
C1465 H1449 0.930 . S
C1465 C1464 1.377 . S
C1465 C1466 1.379 . S
C1466 H1450 0.931 . S
C1466 C1460 1.383 . S
C1466 C1465 1.379 . S
H1467 C1461 0.959 . S
H1468 C1461 0.961 . S
H1469 C1461 0.960 1_565 S
H1470 C1462 0.930 . S
H1471 C1463 0.929 . S
H1472 C1480 0.929 . S
H1473 C1482 0.930 . S
H1474 C1484 0.930 . S
H1475 C1487 0.929 . S
H1476 C1490 0.930 . S
H1477 C1492 0.960 . S
H1478 C1492 0.960 . S
H1479 C1492 0.960 . S
C1480 H1472 0.929 . S
C1480 C1481 1.377 . S
C1480 C1482 1.384 1_554 S
C1481 C1480 1.377 . S
C1481 C1487 1.390 . S
C1482 H1473 0.930 . S
C1482 C1480 1.384 1_556 S
C1482 C1483 1.372 . S
C1483 C1482 1.372 . S
C1483 C1484 1.400 . S
C1483 C1488 1.490 . S
C1484 H1474 0.930 . S
C1484 C1483 1.400 . S
C1484 C1487 1.386 1_556 S
H1485 C1501 0.930 . S
H1486 C1502 0.931 . S
C1487 H1475 0.929 . S
C1487 C1481 1.390 . S
C1487 C1484 1.386 1_554 S
C1488 C1483 1.490 . S
C1488 C1490 1.395 . S
C1488 C1491 1.403 . S
H1489 C1495 0.930 . S
C1490 H1476 0.930 . S
C1490 C1488 1.395 . S
C1490 C1493 1.403 . S
C1491 C1488 1.403 . S
C1491 C1492 1.524 . S
C1491 C1495 1.400 . S
C1492 H1477 0.960 . S
C1492 H1478 0.960 . S
C1492 H1479 0.960 . S
C1492 C1491 1.524 . S
C1493 C1490 1.403 . S
C1493 C1494 1.392 . S
C1493 C1497 1.495 . S
C1494 C1493 1.392 . S
C1494 C1495 1.385 . S
C1494 C1496 1.478 . S
C1495 H1489 0.930 . S
C1495 C1491 1.400 . S
C1495 C1494 1.385 . S
C1496 C1494 1.478 . S
C1496 C1498 1.381 . S
C1496 C1502 1.383 . S
C1497 C1493 1.495 . S
C1497 H1503 0.959 . S
C1497 H1504 0.961 . S
C1497 H1505 0.960 . S
C1498 C1496 1.381 . S
C1498 C1499 1.394 . S
C1498 H1506 0.930 . S
C1499 C1498 1.394 . S
C1499 C1500 1.383 . S
C1499 H1507 0.929 . S
C1500 C1499 1.383 . S
C1500 C1501 1.377 . S
C1501 H1485 0.930 . S
C1501 C1500 1.377 . S
C1501 C1502 1.379 . S
C1502 H1486 0.931 . S
C1502 C1496 1.383 . S
C1502 C1501 1.379 . S
H1503 C1497 0.959 . S
H1504 C1497 0.961 . S
H1505 C1497 0.960 . S
H1506 C1498 0.930 . S
H1507 C1499 0.929 . S
H1508 C1516 0.929 . S
H1509 C1518 0.930 . S
H1510 C1520 0.930 . S
H1511 C1523 0.929 . S
H1512 C1526 0.930 . S
H1513 C1528 0.960 . S
H1514 C1528 0.960 . S
H1515 C1528 0.960 . S
C1516 H1508 0.929 . S
C1516 C1517 1.377 . S
C1516 C1518 1.384 . S
C1517 C1516 1.377 . S
C1517 C1523 1.390 . S
C1518 H1509 0.930 . S
C1518 C1516 1.384 . S
C1518 C1519 1.372 . S
C1519 C1518 1.372 . S
C1519 C1520 1.400 . S
C1519 C1524 1.490 . S
C1520 H1510 0.930 . S
C1520 C1519 1.400 . S
C1520 C1523 1.386 . S
H1521 C1537 0.930 . S
H1522 C1538 0.931 . S
C1523 H1511 0.929 . S
C1523 C1517 1.390 . S
C1523 C1520 1.386 . S
C1524 C1519 1.490 . S
C1524 C1526 1.395 . S
C1524 C1527 1.403 . S
H1525 C1531 0.930 . S
C1526 H1512 0.930 . S
C1526 C1524 1.395 . S
C1526 C1529 1.403 . S
C1527 C1524 1.403 . S
C1527 C1528 1.524 . S
C1527 C1531 1.400 . S
C1528 H1513 0.960 . S
C1528 H1514 0.960 . S
C1528 H1515 0.960 . S
C1528 C1527 1.524 . S
C1529 C1526 1.403 . S
C1529 C1530 1.392 . S
C1529 C1533 1.495 . S
C1530 C1529 1.392 . S
C1530 C1531 1.385 . S
C1530 C1532 1.478 . S
C1531 H1525 0.930 . S
C1531 C1527 1.400 . S
C1531 C1530 1.385 . S
C1532 C1530 1.478 . S
C1532 C1534 1.381 . S
C1532 C1538 1.383 . S
C1533 C1529 1.495 . S
C1533 H1539 0.959 . S
C1533 H1540 0.961 . S
C1533 H1541 0.960 . S
C1534 C1532 1.381 . S
C1534 C1535 1.394 . S
C1534 H1542 0.930 . S
C1535 C1534 1.394 . S
C1535 C1536 1.383 . S
C1535 H1543 0.929 . S
C1536 C1535 1.383 . S
C1536 C1537 1.377 . S
C1537 H1521 0.930 . S
C1537 C1536 1.377 . S
C1537 C1538 1.379 . S
C1538 H1522 0.931 . S
C1538 C1532 1.383 . S
C1538 C1537 1.379 . S
H1539 C1533 0.959 . S
H1540 C1533 0.961 . S
H1541 C1533 0.960 . S
H1542 C1534 0.930 . S
H1543 C1535 0.929 . S
H1544 C1552 0.929 . S
H1545 C1554 0.930 . S
H1546 C1556 0.930 . S
H1547 C1559 0.929 . S
H1548 C1562 0.930 . S
H1549 C1564 0.960 . S
H1550 C1564 0.960 . S
H1551 C1564 0.960 . S
C1552 H1544 0.929 . S
C1552 C1553 1.377 . S
C1552 C1554 1.384 . S
C1553 C1552 1.377 . S
C1553 C1559 1.390 . S
C1554 H1545 0.930 . S
C1554 C1552 1.384 . S
C1554 C1555 1.372 . S
C1555 C1554 1.372 . S
C1555 C1556 1.400 . S
C1555 C1560 1.490 . S
C1556 H1546 0.930 . S
C1556 C1555 1.400 . S
C1556 C1559 1.386 . S
H1557 C1573 0.930 . S
H1558 C1574 0.931 . S
C1559 H1547 0.929 . S
C1559 C1553 1.390 . S
C1559 C1556 1.386 . S
C1560 C1555 1.490 . S
C1560 C1562 1.395 . S
C1560 C1563 1.403 . S
H1561 C1567 0.930 . S
C1562 H1548 0.930 . S
C1562 C1560 1.395 . S
C1562 C1565 1.403 . S
C1563 C1560 1.403 . S
C1563 C1564 1.524 . S
C1563 C1567 1.400 . S
C1564 H1549 0.960 . S
C1564 H1550 0.960 . S
C1564 H1551 0.960 . S
C1564 C1563 1.524 . S
C1565 C1562 1.403 . S
C1565 C1566 1.392 . S
C1565 C1569 1.495 . S
C1566 C1565 1.392 . S
C1566 C1567 1.385 . S
C1566 C1568 1.478 . S
C1567 H1561 0.930 . S
C1567 C1563 1.400 . S
C1567 C1566 1.385 . S
C1568 C1566 1.478 . S
C1568 C1570 1.381 . S
C1568 C1574 1.383 . S
C1569 C1565 1.495 . S
C1569 H1575 0.959 . S
C1569 H1576 0.961 . S
C1569 H1577 0.960 . S
C1570 C1568 1.381 . S
C1570 C1571 1.394 . S
C1570 H1578 0.930 . S
C1571 C1570 1.394 . S
C1571 C1572 1.383 . S
C1571 H1579 0.929 . S
C1572 C1571 1.383 . S
C1572 C1573 1.377 . S
C1573 H1557 0.930 . S
C1573 C1572 1.377 . S
C1573 C1574 1.379 . S
C1574 H1558 0.931 . S
C1574 C1568 1.383 . S
C1574 C1573 1.379 . S
H1575 C1569 0.959 . S
H1576 C1569 0.961 . S
H1577 C1569 0.960 . S
H1578 C1570 0.930 . S
H1579 C1571 0.929 . S
H1580 C1588 0.929 . S
H1581 C1590 0.930 . S
H1582 C1592 0.930 . S
H1583 C1595 0.929 . S
H1584 C1598 0.930 . S
H1585 C1600 0.960 . S
H1586 C1600 0.960 . S
H1587 C1600 0.960 . S
C1588 H1580 0.929 . S
C1588 C1589 1.377 . S
C1588 C1590 1.384 . S
C1589 C1588 1.377 . S
C1589 C1595 1.390 . S
C1590 H1581 0.930 . S
C1590 C1588 1.384 . S
C1590 C1591 1.372 . S
C1591 C1590 1.372 . S
C1591 C1592 1.400 . S
C1591 C1596 1.490 . S
C1592 H1582 0.930 . S
C1592 C1591 1.400 . S
C1592 C1595 1.386 . S
H1593 C1609 0.930 . S
H1594 C1610 0.931 . S
C1595 H1583 0.929 . S
C1595 C1589 1.390 . S
C1595 C1592 1.386 . S
C1596 C1591 1.490 . S
C1596 C1598 1.395 . S
C1596 C1599 1.403 . S
H1597 C1603 0.930 . S
C1598 H1584 0.930 . S
C1598 C1596 1.395 . S
C1598 C1601 1.403 . S
C1599 C1596 1.403 . S
C1599 C1600 1.524 . S
C1599 C1603 1.400 . S
C1600 H1585 0.960 . S
C1600 H1586 0.960 . S
C1600 H1587 0.960 . S
C1600 C1599 1.524 . S
C1601 C1598 1.403 . S
C1601 C1602 1.392 . S
C1601 C1605 1.495 . S
C1602 C1601 1.392 . S
C1602 C1603 1.385 . S
C1602 C1604 1.478 . S
C1603 H1597 0.930 . S
C1603 C1599 1.400 . S
C1603 C1602 1.385 . S
C1604 C1602 1.478 . S
C1604 C1606 1.381 . S
C1604 C1610 1.383 . S
C1605 C1601 1.495 . S
C1605 H1611 0.959 . S
C1605 H1612 0.961 . S
C1605 H1613 0.960 . S
C1606 C1604 1.381 . S
C1606 C1607 1.394 . S
C1606 H1614 0.930 . S
C1607 C1606 1.394 . S
C1607 C1608 1.383 . S
C1607 H1615 0.929 . S
C1608 C1607 1.383 . S
C1608 C1609 1.377 . S
C1609 H1593 0.930 . S
C1609 C1608 1.377 . S
C1609 C1610 1.379 . S
C1610 H1594 0.931 . S
C1610 C1604 1.383 . S
C1610 C1609 1.379 . S
H1611 C1605 0.959 . S
H1612 C1605 0.961 . S
H1613 C1605 0.960 . S
H1614 C1606 0.930 . S
H1615 C1607 0.929 . S
H1616 C1624 0.929 . S
H1617 C1626 0.930 . S
H1618 C1628 0.930 . S
H1619 C1631 0.929 . S
H1620 C1634 0.930 . S
H1621 C1636 0.960 . S
H1622 C1636 0.960 . S
H1623 C1636 0.960 . S
C1624 H1616 0.929 . S
C1624 C1625 1.377 . S
C1624 C1626 1.384 . S
C1625 C1624 1.377 . S
C1625 C1631 1.390 . S
C1626 H1617 0.930 . S
C1626 C1624 1.384 . S
C1626 C1627 1.372 . S
C1627 C1626 1.372 . S
C1627 C1628 1.400 . S
C1627 C1632 1.490 . S
C1628 H1618 0.930 . S
C1628 C1627 1.400 . S
C1628 C1631 1.386 . S
H1629 C1645 0.930 . S
H1630 C1646 0.931 . S
C1631 H1619 0.929 . S
C1631 C1625 1.390 . S
C1631 C1628 1.386 . S
C1632 C1627 1.490 . S
C1632 C1634 1.395 . S
C1632 C1635 1.403 . S
H1633 C1639 0.930 . S
C1634 H1620 0.930 . S
C1634 C1632 1.395 . S
C1634 C1637 1.403 . S
C1635 C1632 1.403 . S
C1635 C1636 1.524 . S
C1635 C1639 1.400 . S
C1636 H1621 0.960 . S
C1636 H1622 0.960 . S
C1636 H1623 0.960 . S
C1636 C1635 1.524 . S
C1637 C1634 1.403 . S
C1637 C1638 1.392 . S
C1637 C1641 1.495 . S
C1638 C1637 1.392 . S
C1638 C1639 1.385 . S
C1638 C1640 1.478 . S
C1639 H1633 0.930 . S
C1639 C1635 1.400 . S
C1639 C1638 1.385 . S
C1640 C1638 1.478 . S
C1640 C1642 1.418 . S
C1640 C1646 1.383 . S
C1641 C1637 1.495 . S
C1641 H1647 0.959 . S
C1641 H1648 0.961 . S
C1641 H1649 0.960 . S
C1642 C1640 1.418 . S
C1642 C1643 1.352 1_554 S
C1642 H1650 0.937 . S
C1643 C1642 1.352 1_556 S
C1643 C1644 1.383 . S
C1643 H1651 0.929 . S
C1644 C1643 1.383 . S
C1644 C1645 1.377 . S
C1645 H1629 0.930 . S
C1645 C1644 1.377 . S
C1645 C1646 1.379 1_556 S
C1646 H1630 0.931 . S
C1646 C1640 1.383 . S
C1646 C1645 1.379 1_554 S
H1647 C1641 0.959 . S
H1648 C1641 0.961 . S
H1649 C1641 0.960 . S
H1650 C1642 0.937 . S
H1651 C1643 0.929 . S
H1652 C1660 0.929 . S
H1653 C1662 0.930 . S
H1654 C1664 0.930 . S
H1655 C1667 0.929 . S
H1656 C1670 0.930 . S
H1657 C1672 0.960 . S
H1658 C1672 0.960 . S
H1659 C1672 0.960 . S
C1660 H1652 0.929 . S
C1660 C1661 1.377 . S
C1660 C1662 1.384 . S
C1661 C1660 1.377 . S
C1661 C1667 1.390 . S
C1662 H1653 0.930 . S
C1662 C1660 1.384 . S
C1662 C1663 1.372 . S
C1663 C1662 1.372 . S
C1663 C1664 1.400 . S
C1663 C1668 1.490 . S
C1664 H1654 0.930 . S
C1664 C1663 1.400 . S
C1664 C1667 1.386 . S
H1665 C1681 0.930 . S
H1666 C1682 0.931 . S
C1667 H1655 0.929 . S
C1667 C1661 1.390 . S
C1667 C1664 1.386 . S
C1668 C1663 1.490 . S
C1668 C1670 1.395 . S
C1668 C1671 1.403 . S
H1669 C1675 0.930 . S
C1670 H1656 0.930 . S
C1670 C1668 1.395 . S
C1670 C1673 1.403 . S
C1671 C1668 1.403 . S
C1671 C1672 1.524 . S
C1671 C1675 1.400 . S
C1672 H1657 0.960 . S
C1672 H1658 0.960 . S
C1672 H1659 0.960 . S
C1672 C1671 1.524 . S
C1673 C1670 1.403 . S
C1673 C1674 1.392 . S
C1673 C1677 1.495 . S
C1674 C1673 1.392 . S
C1674 C1675 1.385 . S
C1674 C1676 1.478 . S
C1675 H1669 0.930 . S
C1675 C1671 1.400 . S
C1675 C1674 1.385 . S
C1676 C1674 1.478 . S
C1676 C1678 1.381 . S
C1676 C1682 1.383 . S
C1677 C1673 1.495 . S
C1677 H1683 0.959 . S
C1677 H1684 0.961 . S
C1677 H1685 0.960 . S
C1678 C1676 1.381 . S
C1678 C1679 1.394 . S
C1678 H1686 0.930 . S
C1679 C1678 1.394 . S
C1679 C1680 1.383 . S
C1679 H1687 0.929 . S
C1680 C1679 1.383 . S
C1680 C1681 1.377 . S
C1681 H1665 0.930 . S
C1681 C1680 1.377 . S
C1681 C1682 1.379 . S
C1682 H1666 0.931 . S
C1682 C1676 1.383 . S
C1682 C1681 1.379 . S
H1683 C1677 0.959 . S
H1684 C1677 0.961 . S
H1685 C1677 0.960 . S
H1686 C1678 0.930 . S
H1687 C1679 0.929 . S
H1688 C1696 0.929 . S
H1689 C1698 0.930 . S
H1690 C1700 0.930 . S
H1691 C1703 0.929 . S
H1692 C1706 0.930 . S
H1693 C1708 0.960 . S
H1694 C1708 0.960 . S
H1695 C1708 0.960 . S
C1696 H1688 0.929 . S
C1696 C1697 1.377 . S
C1696 C1698 1.384 . S
C1697 C1696 1.377 . S
C1697 C1703 1.390 . S
C1698 H1689 0.930 . S
C1698 C1696 1.384 . S
C1698 C1699 1.372 . S
C1699 C1698 1.372 . S
C1699 C1700 1.400 . S
C1699 C1704 1.490 . S
C1700 H1690 0.930 . S
C1700 C1699 1.400 . S
C1700 C1703 1.386 . S
H1701 C1717 0.930 . S
H1702 C1718 0.931 . S
C1703 H1691 0.929 . S
C1703 C1697 1.390 . S
C1703 C1700 1.386 . S
C1704 C1699 1.490 . S
C1704 C1706 1.395 . S
C1704 C1707 1.403 . S
H1705 C1711 0.930 . S
C1706 H1692 0.930 . S
C1706 C1704 1.395 . S
C1706 C1709 1.403 . S
C1707 C1704 1.403 . S
C1707 C1708 1.524 . S
C1707 C1711 1.400 . S
C1708 H1693 0.960 . S
C1708 H1694 0.960 . S
C1708 H1695 0.960 . S
C1708 C1707 1.524 . S
C1709 C1706 1.403 . S
C1709 C1710 1.392 . S
C1709 C1713 1.495 . S
C1710 C1709 1.392 . S
C1710 C1711 1.385 . S
C1710 C1712 1.478 . S
C1711 H1705 0.930 . S
C1711 C1707 1.400 . S
C1711 C1710 1.385 . S
C1712 C1710 1.478 . S
C1712 C1714 1.381 . S
C1712 C1718 1.383 . S
C1713 C1709 1.495 . S
C1713 H1719 0.959 . S
C1713 H1720 0.961 . S
C1713 H1721 0.960 . S
C1714 C1712 1.381 . S
C1714 C1715 1.394 . S
C1714 H1722 0.930 . S
C1715 C1714 1.394 . S
C1715 C1716 1.383 . S
C1715 H1723 0.929 . S
C1716 C1715 1.383 . S
C1716 C1717 1.377 . S
C1717 H1701 0.930 . S
C1717 C1716 1.377 . S
C1717 C1718 1.379 . S
C1718 H1702 0.931 . S
C1718 C1712 1.383 . S
C1718 C1717 1.379 . S
H1719 C1713 0.959 . S
H1720 C1713 0.961 . S
H1721 C1713 0.960 . S
H1722 C1714 0.930 . S
H1723 C1715 0.929 . S
H1724 C1732 0.929 . S
H1725 C1734 0.930 . S
H1726 C1736 0.930 . S
H1727 C1739 0.929 . S
H1728 C1742 0.930 . S
H1729 C1744 0.960 . S
H1730 C1744 0.960 . S
H1731 C1744 0.960 . S
C1732 H1724 0.929 . S
C1732 C1733 1.377 . S
C1732 C1734 1.384 . S
C1733 C1732 1.377 . S
C1733 C1739 1.390 . S
C1734 H1725 0.930 . S
C1734 C1732 1.384 . S
C1734 C1735 1.372 . S
C1735 C1734 1.372 . S
C1735 C1736 1.400 . S
C1735 C1740 1.490 . S
C1736 H1726 0.930 . S
C1736 C1735 1.400 . S
C1736 C1739 1.386 . S
H1737 C1753 0.930 . S
H1738 C1754 0.931 . S
C1739 H1727 0.929 . S
C1739 C1733 1.390 . S
C1739 C1736 1.386 . S
C1740 C1735 1.490 . S
C1740 C1742 1.395 . S
C1740 C1743 1.403 . S
H1741 C1747 0.930 . S
C1742 H1728 0.930 . S
C1742 C1740 1.395 . S
C1742 C1745 1.403 . S
C1743 C1740 1.403 . S
C1743 C1744 1.524 . S
C1743 C1747 1.400 . S
C1744 H1729 0.960 . S
C1744 H1730 0.960 . S
C1744 H1731 0.960 . S
C1744 C1743 1.524 . S
C1745 C1742 1.403 . S
C1745 C1746 1.392 . S
C1745 C1749 1.495 . S
C1746 C1745 1.392 . S
C1746 C1747 1.385 . S
C1746 C1748 1.478 . S
C1747 H1741 0.930 . S
C1747 C1743 1.400 . S
C1747 C1746 1.385 . S
C1748 C1746 1.478 . S
C1748 C1750 1.381 . S
C1748 C1754 1.383 . S
C1749 C1745 1.495 . S
C1749 H1755 0.959 . S
C1749 H1756 0.961 . S
C1749 H1757 0.960 . S
C1750 C1748 1.381 . S
C1750 C1751 1.394 . S
C1750 H1758 0.930 . S
C1751 C1750 1.394 . S
C1751 C1752 1.383 . S
C1751 H1759 0.929 . S
C1752 C1751 1.383 . S
C1752 C1753 1.377 . S
C1753 H1737 0.930 . S
C1753 C1752 1.377 . S
C1753 C1754 1.379 . S
C1754 H1738 0.931 . S
C1754 C1748 1.383 . S
C1754 C1753 1.379 . S
H1755 C1749 0.959 . S
H1756 C1749 0.961 . S
H1757 C1749 0.960 . S
H1758 C1750 0.930 . S
H1759 C1751 0.929 . S
H1760 C1768 0.929 . S
H1761 C1770 0.930 . S
H1762 C1772 0.930 . S
H1763 C1775 0.929 . S
H1764 C1778 0.930 . S
H1765 C1780 0.960 . S
H1766 C1780 0.960 . S
H1767 C1780 0.960 . S
C1768 H1760 0.929 . S
C1768 C1769 1.377 . S
C1768 C1770 1.384 . S
C1769 C1768 1.377 . S
C1769 C1775 1.390 . S
C1770 H1761 0.930 . S
C1770 C1768 1.384 . S
C1770 C1771 1.372 . S
C1771 C1770 1.372 . S
C1771 C1772 1.400 . S
C1771 C1776 1.490 . S
C1772 H1762 0.930 . S
C1772 C1771 1.400 . S
C1772 C1775 1.386 . S
H1773 C1789 0.930 . S
H1774 C1790 0.931 . S
C1775 H1763 0.929 . S
C1775 C1769 1.390 . S
C1775 C1772 1.386 . S
C1776 C1771 1.490 . S
C1776 C1778 1.395 . S
C1776 C1779 1.403 . S
H1777 C1783 0.930 . S
C1778 H1764 0.930 . S
C1778 C1776 1.395 . S
C1778 C1781 1.403 . S
C1779 C1776 1.403 . S
C1779 C1780 1.524 . S
C1779 C1783 1.400 . S
C1780 H1765 0.960 . S
C1780 H1766 0.960 . S
C1780 H1767 0.960 . S
C1780 C1779 1.524 . S
C1781 C1778 1.403 . S
C1781 C1782 1.392 . S
C1781 C1785 1.495 . S
C1782 C1781 1.392 . S
C1782 C1783 1.385 . S
C1782 C1784 1.478 . S
C1783 H1777 0.930 . S
C1783 C1779 1.400 . S
C1783 C1782 1.385 . S
C1784 C1782 1.478 . S
C1784 C1786 1.381 . S
C1784 C1790 1.383 . S
C1785 C1781 1.495 . S
C1785 H1791 0.959 . S
C1785 H1792 0.961 . S
C1785 H1793 0.960 . S
C1786 C1784 1.381 . S
C1786 C1787 1.394 . S
C1786 H1794 0.930 . S
C1787 C1786 1.394 . S
C1787 C1788 1.383 . S
C1787 H1795 0.929 . S
C1788 C1787 1.383 . S
C1788 C1789 1.377 . S
C1789 H1773 0.930 . S
C1789 C1788 1.377 . S
C1789 C1790 1.379 . S
C1790 H1774 0.931 . S
C1790 C1784 1.383 . S
C1790 C1789 1.379 . S
H1791 C1785 0.959 . S
H1792 C1785 0.961 . S
H1793 C1785 0.960 . S
H1794 C1786 0.930 . S
H1795 C1787 0.929 . S
H1796 C1804 0.929 . S
H1797 C1806 0.930 . S
H1798 C1808 0.930 . S
H1799 C1811 0.929 . S
H1800 C1814 0.930 . S
H1801 C1816 0.960 . S
H1802 C1816 0.960 . S
H1803 C1816 0.960 . S
C1804 H1796 0.929 . S
C1804 C1805 1.377 . S
C1804 C1806 1.384 . S
C1805 C1804 1.377 . S
C1805 C1811 1.390 . S
C1806 H1797 0.930 . S
C1806 C1804 1.384 . S
C1806 C1807 1.372 . S
C1807 C1806 1.372 . S
C1807 C1808 1.400 . S
C1807 C1812 1.490 . S
C1808 H1798 0.930 . S
C1808 C1807 1.400 . S
C1808 C1811 1.386 . S
H1809 C1825 0.930 . S
H1810 C1826 0.931 . S
C1811 H1799 0.929 . S
C1811 C1805 1.390 . S
C1811 C1808 1.386 . S
C1812 C1807 1.490 . S
C1812 C1814 1.395 . S
C1812 C1815 1.403 . S
H1813 C1819 0.930 . S
C1814 H1800 0.930 . S
C1814 C1812 1.395 . S
C1814 C1817 1.403 . S
C1815 C1812 1.403 . S
C1815 C1816 1.524 . S
C1815 C1819 1.400 . S
C1816 H1801 0.960 . S
C1816 H1802 0.960 . S
C1816 H1803 0.960 . S
C1816 C1815 1.524 . S
C1817 C1814 1.403 . S
C1817 C1818 1.392 . S
C1817 C1821 1.495 . S
C1818 C1817 1.392 . S
C1818 C1819 1.385 . S
C1818 C1820 1.478 . S
C1819 H1813 0.930 . S
C1819 C1815 1.400 . S
C1819 C1818 1.385 . S
C1820 C1818 1.478 . S
C1820 C1822 1.381 . S
C1820 C1826 1.383 1_565 S
C1821 C1817 1.495 . S
C1821 H1827 0.959 . S
C1821 H1828 0.961 . S
C1821 H1829 0.960 . S
C1822 C1820 1.381 . S
C1822 C1823 1.394 . S
C1822 H1830 0.930 . S
C1823 C1822 1.394 . S
C1823 C1824 1.383 1_565 S
C1823 H1831 0.929 . S
C1824 C1823 1.383 1_545 S
C1824 C1825 1.377 . S
C1825 H1809 0.930 . S
C1825 C1824 1.377 . S
C1825 C1826 1.379 . S
C1826 H1810 0.931 . S
C1826 C1820 1.383 1_545 S
C1826 C1825 1.379 . S
H1827 C1821 0.959 . S
H1828 C1821 0.961 . S
H1829 C1821 0.960 . S
H1830 C1822 0.930 . S
H1831 C1823 0.929 . S
H1832 C1840 0.929 . S
H1833 C1842 0.930 . S
H1834 C1844 0.930 . S
H1835 C1847 0.929 . S
H1836 C1850 0.930 . S
H1837 C1852 0.960 . S
H1838 C1852 0.960 . S
H1839 C1852 0.960 . S
C1840 H1832 0.929 . S
C1840 C1841 1.377 . S
C1840 C1842 1.384 . S
C1841 C1840 1.377 . S
C1841 C1847 1.390 . S
C1842 H1833 0.930 . S
C1842 C1840 1.384 . S
C1842 C1843 1.372 . S
C1843 C1842 1.372 . S
C1843 C1844 1.400 . S
C1843 C1848 1.490 . S
C1844 H1834 0.930 . S
C1844 C1843 1.400 . S
C1844 C1847 1.386 . S
H1845 C1861 0.930 . S
H1846 C1862 0.927 1_556 S
C1847 H1835 0.929 . S
C1847 C1841 1.390 . S
C1847 C1844 1.386 . S
C1848 C1843 1.490 . S
C1848 C1850 1.395 . S
C1848 C1851 1.403 . S
H1849 C1855 0.930 . S
C1850 H1836 0.930 . S
C1850 C1848 1.395 . S
C1850 C1853 1.403 . S
C1851 C1848 1.403 . S
C1851 C1852 1.524 . S
C1851 C1855 1.400 . S
C1852 H1837 0.960 . S
C1852 H1838 0.960 . S
C1852 H1839 0.960 . S
C1852 C1851 1.524 . S
C1853 C1850 1.403 . S
C1853 C1854 1.392 . S
C1853 C1857 1.495 . S
C1854 C1853 1.392 . S
C1854 C1855 1.385 . S
C1854 C1856 1.478 . S
C1855 H1849 0.930 . S
C1855 C1851 1.400 . S
C1855 C1854 1.385 . S
C1856 C1854 1.478 . S
C1856 C1858 1.381 . S
C1856 C1862 1.379 1_556 S
C1857 C1853 1.495 . S
C1857 H1863 0.959 . S
C1857 H1864 0.961 . S
C1857 H1865 0.960 . S
C1858 C1856 1.381 . S
C1858 C1859 1.394 1_556 S
C1858 H1866 0.930 . S
C1859 C1858 1.394 1_554 S
C1859 C1860 1.383 . S
C1859 H1867 0.929 . S
C1860 C1859 1.383 . S
C1860 C1861 1.377 . S
C1861 H1845 0.930 . S
C1861 C1860 1.377 . S
C1861 C1862 1.384 . S
C1862 H1846 0.927 1_554 S
C1862 C1856 1.379 1_554 S
C1862 C1861 1.384 . S
H1863 C1857 0.959 . S
H1864 C1857 0.961 . S
H1865 C1857 0.960 . S
H1866 C1858 0.930 . S
H1867 C1859 0.929 . S
H1868 C1876 0.929 . S
H1869 C1878 0.930 . S
H1870 C1880 0.930 . S
H1871 C1883 0.929 1_545 S
H1872 C1886 0.930 . S
H1873 C1888 0.960 1_545 S
H1874 C1888 0.960 . S
H1875 C1888 0.960 1_545 S
C1876 H1868 0.929 . S
C1876 C1877 1.377 . S
C1876 C1878 1.384 . S
C1877 C1876 1.377 . S
C1877 C1883 1.390 . S
C1878 H1869 0.930 . S
C1878 C1876 1.384 . S
C1878 C1879 1.372 1_565 S
C1879 C1878 1.372 1_545 S
C1879 C1880 1.400 . S
C1879 C1884 1.490 . S
C1880 H1870 0.930 . S
C1880 C1879 1.400 . S
C1880 C1883 1.386 1_545 S
H1881 C1897 0.930 . S
H1882 C1898 0.931 . S
C1883 H1871 0.929 1_565 S
C1883 C1877 1.390 . S
C1883 C1880 1.386 1_565 S
C1884 C1879 1.490 . S
C1884 C1886 1.395 . S
C1884 C1887 1.403 . S
H1885 C1891 0.930 . S
C1886 H1872 0.930 . S
C1886 C1884 1.395 . S
C1886 C1889 1.403 . S
C1887 C1884 1.403 . S
C1887 C1888 1.524 1_545 S
C1887 C1891 1.400 . S
C1888 H1873 0.960 1_565 S
C1888 H1874 0.960 . S
C1888 H1875 0.960 1_565 S
C1888 C1887 1.524 1_565 S
C1889 C1886 1.403 . S
C1889 C1890 1.392 . S
C1889 C1893 1.495 . S
C1890 C1889 1.392 . S
C1890 C1891 1.385 . S
C1890 C1892 1.478 . S
C1891 H1885 0.930 . S
C1891 C1887 1.400 . S
C1891 C1890 1.385 . S
C1892 C1890 1.478 . S
C1892 C1894 1.381 . S
C1892 C1898 1.383 . S
C1893 C1889 1.495 . S
C1893 H1899 0.959 . S
C1893 H1900 0.961 . S
C1893 H1901 0.960 . S
C1894 C1892 1.381 . S
C1894 C1895 1.394 . S
C1894 H1902 0.930 . S
C1895 C1894 1.394 . S
C1895 C1896 1.383 . S
C1895 H1903 0.929 . S
C1896 C1895 1.383 . S
C1896 C1897 1.377 . S
C1897 H1881 0.930 . S
C1897 C1896 1.377 . S
C1897 C1898 1.379 . S
C1898 H1882 0.931 . S
C1898 C1892 1.383 . S
C1898 C1897 1.379 . S
H1899 C1893 0.959 . S
H1900 C1893 0.961 . S
H1901 C1893 0.960 . S
H1902 C1894 0.930 . S
H1903 C1895 0.929 . S
H1904 C1912 0.929 . S
H1905 C1914 0.930 . S
H1906 C1916 0.930 . S
H1907 C1919 0.929 . S
H1908 C1922 0.930 . S
H1909 C1924 0.960 . S
H1910 C1924 0.960 . S
H1911 C1924 0.960 . S
C1912 H1904 0.929 . S
C1912 C1913 1.377 . S
C1912 C1914 1.384 . S
C1913 C1912 1.377 . S
C1913 C1919 1.390 . S
C1914 H1905 0.930 . S
C1914 C1912 1.384 . S
C1914 C1915 1.372 . S
C1915 C1914 1.372 . S
C1915 C1916 1.400 . S
C1915 C1920 1.490 . S
C1916 H1906 0.930 . S
C1916 C1915 1.400 . S
C1916 C1919 1.386 . S
H1917 C1933 0.930 . S
H1918 C1934 0.931 . S
C1919 H1907 0.929 . S
C1919 C1913 1.390 . S
C1919 C1916 1.386 . S
C1920 C1915 1.490 . S
C1920 C1922 1.395 . S
C1920 C1923 1.403 . S
H1921 C1927 0.930 . S
C1922 H1908 0.930 . S
C1922 C1920 1.395 . S
C1922 C1925 1.403 . S
C1923 C1920 1.403 . S
C1923 C1924 1.524 . S
C1923 C1927 1.400 . S
C1924 H1909 0.960 . S
C1924 H1910 0.960 . S
C1924 H1911 0.960 . S
C1924 C1923 1.524 . S
C1925 C1922 1.403 . S
C1925 C1926 1.392 . S
C1925 C1929 1.495 . S
C1926 C1925 1.392 . S
C1926 C1927 1.385 . S
C1926 C1928 1.478 . S
C1927 H1921 0.930 . S
C1927 C1923 1.400 . S
C1927 C1926 1.385 . S
C1928 C1926 1.478 . S
C1928 C1930 1.381 . S
C1928 C1934 1.383 . S
C1929 C1925 1.495 . S
C1929 H1935 0.959 . S
C1929 H1936 0.961 . S
C1929 H1937 0.960 . S
C1930 C1928 1.381 . S
C1930 C1931 1.394 . S
C1930 H1938 0.930 . S
C1931 C1930 1.394 . S
C1931 C1932 1.383 . S
C1931 H1939 0.929 . S
C1932 C1931 1.383 . S
C1932 C1933 1.377 . S
C1933 H1917 0.930 . S
C1933 C1932 1.377 . S
C1933 C1934 1.379 . S
C1934 H1918 0.931 . S
C1934 C1928 1.383 . S
C1934 C1933 1.379 . S
H1935 C1929 0.959 . S
H1936 C1929 0.961 . S
H1937 C1929 0.960 . S
H1938 C1930 0.930 . S
H1939 C1931 0.929 . S
H1940 C1948 0.929 . S
H1941 C1950 0.930 . S
H1942 C1952 0.930 . S
H1943 C1955 0.929 . S
H1944 C1958 0.930 . S
H1945 C1960 0.960 1_565 S
H1946 C1960 0.964 . S
H1947 C1960 0.960 . S
C1948 H1940 0.929 . S
C1948 C1949 1.377 . S
C1948 C1950 1.384 . S
C1949 C1948 1.377 . S
C1949 C1955 1.390 . S
C1950 H1941 0.930 . S
C1950 C1948 1.384 . S
C1950 C1951 1.372 . S
C1951 C1950 1.372 . S
C1951 C1952 1.400 . S
C1951 C1956 1.490 . S
C1952 H1942 0.930 . S
C1952 C1951 1.400 . S
C1952 C1955 1.386 . S
H1953 C1969 0.930 . S
H1954 C1970 0.931 . S
C1955 H1943 0.929 . S
C1955 C1949 1.390 . S
C1955 C1952 1.386 . S
C1956 C1951 1.490 . S
C1956 C1958 1.395 . S
C1956 C1959 1.403 . S
H1957 C1963 0.930 1_565 S
C1958 H1944 0.930 . S
C1958 C1956 1.395 . S
C1958 C1961 1.403 . S
C1959 C1956 1.403 . S
C1959 C1960 1.524 . S
C1959 C1963 1.400 . S
C1960 H1945 0.960 1_545 S
C1960 H1946 0.964 . S
C1960 H1947 0.960 . S
C1960 C1959 1.524 . S
C1961 C1958 1.403 . S
C1961 C1962 1.392 . S
C1961 C1965 1.495 . S
C1962 C1961 1.392 . S
C1962 C1963 1.385 . S
C1962 C1964 1.478 . S
C1963 H1957 0.930 1_545 S
C1963 C1959 1.400 . S
C1963 C1962 1.385 . S
C1964 C1962 1.478 . S
C1964 C1966 1.381 1_545 S
C1964 C1970 1.383 . S
C1965 C1961 1.495 . S
C1965 H1971 0.959 . S
C1965 H1972 0.961 . S
C1965 H1973 0.960 . S
C1966 C1964 1.381 1_565 S
C1966 C1967 1.394 . S
C1966 H1974 0.930 . S
C1967 C1966 1.394 . S
C1967 C1968 1.383 . S
C1967 H1975 0.929 . S
C1968 C1967 1.383 . S
C1968 C1969 1.377 . S
C1969 H1953 0.930 . S
C1969 C1968 1.377 . S
C1969 C1970 1.379 1_565 S
C1970 H1954 0.931 . S
C1970 C1964 1.383 . S
C1970 C1969 1.379 1_545 S
H1971 C1965 0.959 . S
H1972 C1965 0.961 . S
H1973 C1965 0.960 . S
H1974 C1966 0.930 . S
H1975 C1967 0.929 . S
H1976 C1984 0.929 . S
H1977 C1986 0.930 . S
H1978 C1988 0.930 . S
H1979 C1991 0.929 . S
H1980 C1994 0.930 . S
H1981 C1996 0.960 . S
H1982 C1996 0.960 . S
H1983 C1996 0.960 . S
C1984 H1976 0.929 . S
C1984 C1985 1.377 . S
C1984 C1986 1.384 . S
C1985 C1984 1.377 . S
C1985 C1991 1.390 . S
C1986 H1977 0.930 . S
C1986 C1984 1.384 . S
C1986 C1987 1.372 . S
C1987 C1986 1.372 . S
C1987 C1988 1.400 . S
C1987 C1992 1.490 . S
C1988 H1978 0.930 . S
C1988 C1987 1.400 . S
C1988 C1991 1.386 . S
H1989 C2005 0.930 . S
H1990 C2006 0.931 . S
C1991 H1979 0.929 . S
C1991 C1985 1.390 . S
C1991 C1988 1.386 . S
C1992 C1987 1.490 . S
C1992 C1994 1.395 . S
C1992 C1995 1.403 . S
H1993 C1999 0.930 . S
C1994 H1980 0.930 . S
C1994 C1992 1.395 . S
C1994 C1997 1.403 . S
C1995 C1992 1.403 . S
C1995 C1996 1.524 . S
C1995 C1999 1.400 . S
C1996 H1981 0.960 . S
C1996 H1982 0.960 . S
C1996 H1983 0.960 . S
C1996 C1995 1.524 . S
C1997 C1994 1.403 . S
C1997 C1998 1.392 . S
C1997 C2001 1.495 . S
C1998 C1997 1.392 . S
C1998 C1999 1.385 . S
C1998 C2000 1.478 . S
C1999 H1993 0.930 . S
C1999 C1995 1.400 . S
C1999 C1998 1.385 . S
C2000 C1998 1.478 . S
C2000 C2002 1.381 1_554 S
C2000 C2006 1.383 . S
C2001 C1997 1.495 . S
C2001 H2007 0.959 . S
C2001 H2008 0.961 . S
C2001 H2009 0.960 . S
C2002 C2000 1.381 1_556 S
C2002 C2003 1.394 . S
C2002 H2010 0.930 . S
C2003 C2002 1.394 . S
C2003 C2004 1.383 . S
C2003 H2011 0.929 . S
C2004 C2003 1.383 . S
C2004 C2005 1.377 . S
C2005 H1989 0.930 . S
C2005 C2004 1.377 . S
C2005 C2006 1.379 1_556 S
C2006 H1990 0.931 . S
C2006 C2000 1.383 . S
C2006 C2005 1.379 1_554 S
H2007 C2001 0.959 . S
H2008 C2001 0.961 . S
H2009 C2001 0.960 . S
H2010 C2002 0.930 . S
H2011 C2003 0.929 . S
H2012 C2020 0.929 . S
H2013 C2022 0.930 . S
H2014 C2024 0.930 . S
H2015 C2027 0.929 . S
H2016 C2030 0.930 . S
H2017 C2032 0.960 . S
H2018 C2032 0.960 . S
H2019 C2032 0.960 1_565 S
C2020 H2012 0.929 . S
C2020 C2021 1.377 . S
C2020 C2022 1.384 . S
C2021 C2020 1.377 . S
C2021 C2027 1.390 . S
C2022 H2013 0.930 . S
C2022 C2020 1.384 . S
C2022 C2023 1.372 . S
C2023 C2022 1.372 . S
C2023 C2024 1.400 . S
C2023 C2028 1.490 . S
C2024 H2014 0.930 . S
C2024 C2023 1.400 . S
C2024 C2027 1.386 . S
H2025 C2041 0.930 . S
H2026 C2042 0.936 . S
C2027 H2015 0.929 . S
C2027 C2021 1.390 . S
C2027 C2024 1.386 . S
C2028 C2023 1.490 . S
C2028 C2030 1.395 . S
C2028 C2031 1.403 . S
H2029 C2035 0.930 1_545 S
C2030 H2016 0.930 . S
C2030 C2028 1.395 . S
C2030 C2033 1.403 . S
C2031 C2028 1.403 . S
C2031 C2032 1.524 1_565 S
C2031 C2035 1.400 . S
C2032 H2017 0.960 . S
C2032 H2018 0.960 . S
C2032 H2019 0.960 1_545 S
C2032 C2031 1.524 1_545 S
C2033 C2030 1.403 . S
C2033 C2034 1.392 . S
C2033 C2037 1.495 . S
C2034 C2033 1.392 . S
C2034 C2035 1.385 . S
C2034 C2036 1.478 . S
C2035 H2029 0.930 1_565 S
C2035 C2031 1.400 . S
C2035 C2034 1.385 . S
C2036 C2034 1.478 . S
C2036 C2038 1.381 . S
C2036 C2042 1.391 . S
C2037 C2033 1.495 . S
C2037 H2043 0.959 . S
C2037 H2044 0.961 . S
C2037 H2045 0.960 . S
C2038 C2036 1.381 . S
C2038 C2039 1.394 1_565 S
C2038 H2046 0.930 . S
C2039 C2038 1.394 1_545 S
C2039 C2040 1.383 . S
C2039 H2047 0.929 . S
C2040 C2039 1.383 . S
C2040 C2041 1.377 . S
C2041 H2025 0.930 . S
C2041 C2040 1.377 . S
C2041 C2042 1.367 1_545 S
C2042 H2026 0.936 . S
C2042 C2036 1.391 . S
C2042 C2041 1.367 1_565 S
H2043 C2037 0.959 . S
H2044 C2037 0.961 . S
H2045 C2037 0.960 . S
H2046 C2038 0.930 . S
H2047 C2039 0.929 . S
C329 C8 0.712 . S
C348 C208 0.687 . S
C365 C28 0.709 . S
C384 C228 0.676 . S
C401 C48 0.720 . S
C420 C168 0.731 . S
C437 C188 0.724 . S
C456 C68 0.761 . S
C473 C89 0.719 . S
C492 C289 0.752 . S
C509 C309 0.710 . S
C528 C109 0.763 . S
C545 C249 0.715 . S
C564 C129 0.662 . S
C581 C149 0.715 . S
C600 C269 0.761 . S
C617 C1 1.375 . S
C636 C82 1.359 . S
C653 C21 1.377 . S
C672 C262 1.390 . S
C689 C41 1.388 . S
C708 C122 1.402 . S
C725 C61 1.384 . S
C744 C302 1.410 . S
C761 C102 1.379 . S
C780 C181 1.347 . S
C797 C221 1.377 . S
C816 C142 1.348 . S
C833 C242 1.388 . S
C852 C161 1.404 . S
C869 C201 1.388 . S
C888 C282 1.401 . S
C905 C2 0.933 . S
C924 C148 0.991 . S
C941 C22 0.943 . S
C960 C248 0.981 . S
C977 C42 0.953 . S
C996 C108 0.952 . S
C1013 C62 0.944 . S
C1032 C288 0.980 . S
C1049 C69 0.978 . S
C1068 C81 0.982 . S
C1085 C101 0.947 . S
C1104 C169 0.994 . S
C1121 C121 0.948 . S
C1140 C29 0.994 . S
C1157 C209 0.976 . S
C1176 C141 0.897 . S
C1193 C162 0.935 . S
C1212 C308 0.986 1_565 S
C1229 C88 0.976 . S
C1248 C182 0.913 . S
C1265 C268 0.979 1_545 S
C1284 C202 0.893 . S
C1301 C128 0.971 . S
C1320 C222 0.989 . S
C1337 C241 0.934 . S
C1356 C229 0.975 1_545 S
C1373 C261 0.946 . S
C1392 C9 0.955 . S
C1409 C189 0.971 1_565 S
C1428 C281 0.944 . S
C1445 C301 0.940 . S
C1464 C49 0.952 . S
C1481 C19 2.539 . S
C1500 C198 2.578 . S
C1517 C218 2.572 . S
C1536 C39 2.542 . S
C1553 C59 2.536 . S
C1572 C238 2.558 . S
C1589 C178 2.572 . S
C1608 C79 2.543 . S
C1625 C279 2.575 . S
C1644 C98 2.539 . S
C1661 C299 2.573 . S
C1680 C118 2.548 . S
C1697 C319 2.570 . S
C1716 C138 2.517 . S
C1733 C259 2.570 . S
C1752 C158 2.537 . S
C1769 C38 2.571 . S
C1788 C179 2.515 . S
C1805 C58 2.573 . S
C1824 C199 2.522 . S
C1841 C78 2.570 . S
C1860 C219 2.529 . S
C1877 C239 2.539 . S
C1896 C18 2.579 . S
C1913 C119 2.574 . S
C1932 C258 2.547 . S
C1949 C139 2.571 . S
C1968 C278 2.515 . S
C1985 C159 2.575 . S
C2004 C298 2.529 . S
C2021 C99 2.572 . S
C2040 C318 2.515 . S
