# Generated by pormake.
# Topology fnw, (5)-cn, num edge types: 1
# Building blocks:
#     Node 0, Type 0, BuildingBlock: XOMCOT_clean_sbu_1, # of connection points: 5
#     Node 1, Type 0, BuildingBlock: XOMCOT_clean_sbu_1, # of connection points: 5
#     Node 2, Type 0, BuildingBlock: XOMCOT_clean_sbu_1, # of connection points: 5
#     Node 3, Type 0, BuildingBlock: XOMCOT_clean_sbu_1, # of connection points: 5
#     Node 4, Type 0, BuildingBlock: XOMCOT_clean_sbu_1, # of connection points: 5
#     Node 5, Type 0, BuildingBlock: XOMCOT_clean_sbu_1, # of connection points: 5
#     Node 6, Type 0, BuildingBlock: XOMCOT_clean_sbu_1, # of connection points: 5
#     Node 7, Type 0, BuildingBlock: XOMCOT_clean_sbu_1, # of connection points: 5
#     Node 8, Type 0, BuildingBlock: XOMCOT_clean_sbu_1, # of connection points: 5
#     Node 9, Type 0, BuildingBlock: XOMCOT_clean_sbu_1, # of connection points: 5
#     Node 10, Type 0, BuildingBlock: XOMCOT_clean_sbu_1, # of connection points: 5
#     Node 11, Type 0, BuildingBlock: XOMCOT_clean_sbu_1, # of connection points: 5
#     Edge 12, Type (0, 0), BuildingBlock: ZUJKAS_clean_linker_0, # of connection points: 2
#     Edge 13, Type (0, 0), BuildingBlock: ZUJKAS_clean_linker_0, # of connection points: 2
#     Edge 14, Type (0, 0), BuildingBlock: ZUJKAS_clean_linker_0, # of connection points: 2
#     Edge 15, Type (0, 0), BuildingBlock: ZUJKAS_clean_linker_0, # of connection points: 2
#     Edge 16, Type (0, 0), BuildingBlock: ZUJKAS_clean_linker_0, # of connection points: 2
#     Edge 17, Type (0, 0), BuildingBlock: ZUJKAS_clean_linker_0, # of connection points: 2
#     Edge 18, Type (0, 0), BuildingBlock: ZUJKAS_clean_linker_0, # of connection points: 2
#     Edge 19, Type (0, 0), BuildingBlock: ZUJKAS_clean_linker_0, # of connection points: 2
#     Edge 20, Type (0, 0), BuildingBlock: ZUJKAS_clean_linker_0, # of connection points: 2
#     Edge 21, Type (0, 0), BuildingBlock: ZUJKAS_clean_linker_0, # of connection points: 2
#     Edge 22, Type (0, 0), BuildingBlock: ZUJKAS_clean_linker_0, # of connection points: 2
#     Edge 23, Type (0, 0), BuildingBlock: ZUJKAS_clean_linker_0, # of connection points: 2
#     Edge 24, Type (0, 0), BuildingBlock: ZUJKAS_clean_linker_0, # of connection points: 2
#     Edge 25, Type (0, 0), BuildingBlock: ZUJKAS_clean_linker_0, # of connection points: 2
#     Edge 26, Type (0, 0), BuildingBlock: ZUJKAS_clean_linker_0, # of connection points: 2
#     Edge 27, Type (0, 0), BuildingBlock: ZUJKAS_clean_linker_0, # of connection points: 2
#     Edge 28, Type (0, 0), BuildingBlock: ZUJKAS_clean_linker_0, # of connection points: 2
#     Edge 29, Type (0, 0), BuildingBlock: ZUJKAS_clean_linker_0, # of connection points: 2
#     Edge 30, Type (0, 0), BuildingBlock: ZUJKAS_clean_linker_0, # of connection points: 2
#     Edge 31, Type (0, 0), BuildingBlock: ZUJKAS_clean_linker_0, # of connection points: 2
#     Edge 32, Type (0, 0), BuildingBlock: ZUJKAS_clean_linker_0, # of connection points: 2
#     Edge 33, Type (0, 0), BuildingBlock: ZUJKAS_clean_linker_0, # of connection points: 2
#     Edge 34, Type (0, 0), BuildingBlock: ZUJKAS_clean_linker_0, # of connection points: 2
#     Edge 35, Type (0, 0), BuildingBlock: ZUJKAS_clean_linker_0, # of connection points: 2
#     Edge 36, Type (0, 0), BuildingBlock: ZUJKAS_clean_linker_0, # of connection points: 2
#     Edge 37, Type (0, 0), BuildingBlock: ZUJKAS_clean_linker_0, # of connection points: 2
#     Edge 38, Type (0, 0), BuildingBlock: ZUJKAS_clean_linker_0, # of connection points: 2
#     Edge 39, Type (0, 0), BuildingBlock: ZUJKAS_clean_linker_0, # of connection points: 2
#     Edge 40, Type (0, 0), BuildingBlock: ZUJKAS_clean_linker_0, # of connection points: 2
#     Edge 41, Type (0, 0), BuildingBlock: ZUJKAS_clean_linker_0, # of connection points: 2
# Relax obj value: 0.361
# Max RMSD: 0.165
# Mean RMSD: 0.165
data_MOF--net-fnw--node1-XOMCOT_clean_sbu_1--edge1-ZUJKAS_clean_linker_0
_symmetry_space_group_name_H-M    P1
_symmetry_Int_Tables_number       1
_symmetry_cell_setting            triclinic
loop_
_symmetry_equiv_pos_as_xyz
'x, y, z'
_cell_length_a     66.333597
_cell_length_b     66.410762
_cell_length_c     35.82754
_cell_angle_alpha  90.115514
_cell_angle_beta   90.158657
_cell_angle_gamma 120.0149
loop_
_atom_site_label
_atom_site_type_symbol
_atom_site_fract_x
_atom_site_fract_y
_atom_site_fract_z
_atom_type_partial_charge
C0 C 0.24883 0.4727 0.20864 0.0
C1 C 0.23591 0.48323 0.20128 0.0
N2 N 0.22011 0.47764 0.22872 0.0
N3 N 0.24132 0.46069 0.2407 0.0
C4 C 0.22339 0.46342 0.25165 0.0
H5 H 0.26369 0.47483 0.19299 0.0
Co6 Co 0.25541 0.44635 0.26532 0.0
C7 C 0.23842 0.4519 0.3422 0.0
O8 O 0.25652 0.47251 0.34795 0.0
N9 N 0.26905 0.43111 0.29038 0.0
C10 C 0.28559 0.42096 0.335 0.0
C11 C 0.27678 0.43509 0.32605 0.0
C12 C 0.27352 0.41443 0.27824 0.0
N13 N 0.28364 0.40799 0.30486 0.0
O14 O 0.2318 0.41754 0.24363 0.0
H15 H 0.27673 0.44795 0.34439 0.0
H16 H 0.27002 0.40752 0.2502 0.0
O17 O 0.23625 0.4409 0.31152 0.0
C18 C 0.23963 0.41627 0.21161 0.0
O19 O 0.26148 0.43129 0.20396 0.0
N20 N 0.28048 0.47618 0.28039 0.0
C21 C 0.31935 0.52122 0.28078 0.0
C22 C 0.29699 0.51762 0.28738 0.0
C23 C 0.27785 0.49514 0.28626 0.0
C24 C 0.30229 0.47958 0.27392 0.0
C25 C 0.32192 0.5018 0.27476 0.0
H26 H 0.26081 0.49325 0.28916 0.0
H27 H 0.30461 0.46526 0.26545 0.0
H28 H 0.21388 0.45632 0.27721 0.0
H29 H 0.23921 0.49554 0.17912 0.0
H30 H 0.29296 0.42046 0.36171 0.0
H31 H 0.29415 0.53213 0.29198 0.0
H32 H 0.33876 0.50381 0.26818 0.0
C33 C 0.76915 0.24943 0.71156 0.0
C34 C 0.7453 0.23741 0.70745 0.0
N35 N 0.73606 0.22254 0.73626 0.0
N36 N 0.77486 0.24225 0.74292 0.0
C37 C 0.75443 0.22543 0.75674 0.0
H38 H 0.78144 0.2635 0.69415 0.0
Co39 Co 0.80447 0.25567 0.76413 0.0
C40 C 0.78649 0.24364 0.84388 0.0
O41 O 0.78885 0.26413 0.8503 0.0
N42 N 0.83451 0.26867 0.78554 0.0
C43 C 0.86412 0.28531 0.82574 0.0
C44 C 0.84108 0.27815 0.81999 0.0
C45 C 0.85417 0.27066 0.77074 0.0
N46 N 0.87233 0.28058 0.79474 0.0
O47 O 0.80676 0.23002 0.74446 0.0
H48 H 0.83026 0.28068 0.83951 0.0
H49 H 0.85537 0.26508 0.74293 0.0
O50 O 0.79187 0.23877 0.81206 0.0
C51 C 0.81414 0.23531 0.71103 0.0
O52 O 0.82096 0.25651 0.69938 0.0
N53 N 0.80227 0.28225 0.77796 0.0
C54 C 0.79829 0.3223 0.77862 0.0
C55 C 0.77953 0.30073 0.78899 0.0
C56 C 0.78169 0.28093 0.78765 0.0
C57 C 0.82073 0.30323 0.76783 0.0
C58 C 0.81925 0.32349 0.7686 0.0
H59 H 0.76651 0.26443 0.79394 0.0
H60 H 0.83636 0.30424 0.75685 0.0
H61 H 0.75291 0.2164 0.78255 0.0
H62 H 0.73551 0.24066 0.68646 0.0
H63 H 0.8743 0.29422 0.85025 0.0
H64 H 0.76298 0.29897 0.79697 0.0
H65 H 0.83396 0.33965 0.7592 0.0
C66 C 0.51746 0.79031 0.19025 0.0
C67 C 0.50068 0.76771 0.18238 0.0
N68 N 0.50068 0.75404 0.21015 0.0
N69 N 0.52792 0.79085 0.22281 0.0
C70 C 0.51746 0.7685 0.2341 0.0
H71 H 0.52128 0.80549 0.17394 0.0
Co72 Co 0.54978 0.81761 0.24723 0.0
C73 C 0.56963 0.80064 0.30375 0.0
O74 O 0.58997 0.81261 0.28746 0.0
N75 N 0.57164 0.84464 0.27249 0.0
C76 C 0.58932 0.86951 0.31927 0.0
C77 C 0.57087 0.84829 0.30948 0.0
C78 C 0.5906 0.86417 0.26032 0.0
N79 N 0.60169 0.87947 0.28831 0.0
O80 O 0.5736 0.81589 0.21954 0.0
H81 H 0.55756 0.83628 0.32827 0.0
H82 H 0.59626 0.86728 0.23163 0.0
O83 O 0.55171 0.79969 0.28866 0.0
C84 C 0.57761 0.82711 0.18901 0.0
O85 O 0.56775 0.83977 0.18345 0.0
N86 N 0.52566 0.81964 0.27008 0.0
C87 C 0.48491 0.8205 0.28467 0.0
C88 C 0.48867 0.80332 0.30054 0.0
C89 C 0.50922 0.80313 0.29274 0.0
C90 C 0.52295 0.83723 0.25635 0.0
C91 C 0.50277 0.83811 0.26353 0.0
H92 H 0.51105 0.7888 0.3027 0.0
H93 H 0.53597 0.84989 0.23786 0.0
H94 H 0.52113 0.76302 0.26041 0.0
H95 H 0.48909 0.76191 0.15849 0.0
H96 H 0.59288 0.87736 0.34677 0.0
H97 H 0.47522 0.78923 0.3166 0.0
H98 H 0.50071 0.85183 0.25112 0.0
C99 C 0.72164 0.51516 0.69012 0.0
C100 C 0.72763 0.49852 0.68244 0.0
N101 N 0.74383 0.50077 0.7075 0.0
N102 N 0.73394 0.52774 0.71993 0.0
C103 C 0.74749 0.51875 0.72962 0.0
H104 H 0.70842 0.51731 0.67596 0.0
Co105 Co 0.72956 0.54997 0.74404 0.0
C106 C 0.76637 0.56863 0.80173 0.0
O107 O 0.77566 0.58924 0.78615 0.0
N108 N 0.72493 0.57223 0.76876 0.0
C109 C 0.7172 0.59025 0.81409 0.0
C110 C 0.72077 0.57214 0.80569 0.0
C111 C 0.72355 0.59048 0.75529 0.0
N112 N 0.71889 0.60176 0.78233 0.0
O113 O 0.75521 0.57351 0.71591 0.0
H114 H 0.71976 0.55926 0.82522 0.0
H115 H 0.72549 0.59526 0.72619 0.0
O116 O 0.74909 0.55136 0.78589 0.0
C117 C 0.74651 0.57555 0.68524 0.0
O118 O 0.72371 0.56439 0.6818 0.0
N119 N 0.70319 0.52622 0.76697 0.0
C120 C 0.66128 0.48529 0.77897 0.0
C121 C 0.6822 0.48816 0.79376 0.0
C122 C 0.70307 0.50881 0.78734 0.0
C123 C 0.6829 0.52441 0.75471 0.0
C124 C 0.6617 0.50418 0.76074 0.0
H125 H 0.71919 0.50989 0.79585 0.0
H126 H 0.68335 0.53813 0.73786 0.0
H127 H 0.75872 0.52423 0.75392 0.0
H128 H 0.72008 0.48535 0.66085 0.0
H129 H 0.71256 0.59394 0.84117 0.0
H130 H 0.68278 0.47396 0.80751 0.0
H131 H 0.64595 0.50286 0.74931 0.0
C132 C 0.2119 0.72905 0.21837 0.0
C133 C 0.23542 0.73814 0.21305 0.0
N134 N 0.24688 0.75356 0.24065 0.0
N135 N 0.20857 0.73866 0.24922 0.0
C136 C 0.2302 0.75383 0.26175 0.0
H137 H 0.19806 0.71558 0.20178 0.0
Co138 Co 0.17983 0.73062 0.27021 0.0
C139 C 0.19961 0.74298 0.34905 0.0
O140 O 0.19404 0.72151 0.35634 0.0
N141 N 0.1508 0.72322 0.29132 0.0
C142 C 0.12131 0.71215 0.33092 0.0
C143 C 0.14389 0.71714 0.32701 0.0
C144 C 0.13188 0.72167 0.27414 0.0
N145 N 0.11372 0.71495 0.29757 0.0
O146 O 0.18216 0.75782 0.24701 0.0
H147 H 0.15396 0.71515 0.34874 0.0
H148 H 0.13111 0.72488 0.24482 0.0
O149 O 0.19492 0.74839 0.31707 0.0
C150 C 0.17369 0.75086 0.2143 0.0
O151 O 0.16446 0.72862 0.20638 0.0
N152 N 0.17666 0.70187 0.28702 0.0
C153 C 0.17113 0.65734 0.29354 0.0
C154 C 0.19274 0.67719 0.30043 0.0
C155 C 0.19526 0.69919 0.29617 0.0
C156 C 0.15558 0.68255 0.27968 0.0
C157 C 0.15234 0.66021 0.28342 0.0
H158 H 0.2124 0.7141 0.30006 0.0
H159 H 0.1413 0.68419 0.26873 0.0
H160 H 0.23372 0.76432 0.28664 0.0
H161 H 0.2434 0.73286 0.19177 0.0
H162 H 0.11091 0.70568 0.35592 0.0
H163 H 0.20793 0.6758 0.30714 0.0
H164 H 0.13545 0.64534 0.27708 0.0
C165 C 0.49081 0.20974 0.73787 0.0
C166 C 0.50549 0.23208 0.72606 0.0
N167 N 0.49597 0.24523 0.73505 0.0
N168 N 0.47229 0.20883 0.75497 0.0
C169 C 0.47546 0.23045 0.75134 0.0
H170 H 0.49394 0.19531 0.73542 0.0
Co171 Co 0.4481 0.18304 0.7785 0.0
C172 C 0.45981 0.22057 0.8401 0.0
O173 O 0.48016 0.23688 0.82806 0.0
N174 N 0.42387 0.15702 0.80171 0.0
C175 C 0.40329 0.13153 0.84577 0.0
C176 C 0.42119 0.15354 0.83891 0.0
C177 C 0.40757 0.13665 0.78653 0.0
N178 N 0.39483 0.12077 0.8128 0.0
O179 O 0.42641 0.18911 0.75254 0.0
H180 H 0.43248 0.16562 0.85994 0.0
H181 H 0.40615 0.13294 0.75696 0.0
O182 O 0.44846 0.20145 0.82199 0.0
C183 C 0.42208 0.1791 0.72072 0.0
O184 O 0.43118 0.16602 0.71283 0.0
N185 N 0.46949 0.17593 0.80032 0.0
C186 C 0.5057 0.16665 0.81081 0.0
C187 C 0.5057 0.18522 0.8296 0.0
C188 C 0.48739 0.1896 0.82394 0.0
C189 C 0.46833 0.15676 0.78423 0.0
C190 C 0.48615 0.1517 0.78929 0.0
H191 H 0.48873 0.20493 0.83635 0.0
H192 H 0.45429 0.14629 0.76506 0.0
H193 H 0.46332 0.23546 0.76187 0.0
H194 H 0.52253 0.23839 0.71394 0.0
H195 H 0.39766 0.12378 0.87304 0.0
H196 H 0.52052 0.19736 0.84622 0.0
H197 H 0.48525 0.13697 0.7747 0.0
C198 C 0.50883 0.73039 0.81624 0.0
C199 C 0.49355 0.73855 0.82049 0.0
N200 N 0.49792 0.75445 0.79367 0.0
N201 N 0.5226 0.74093 0.78668 0.0
C202 C 0.51597 0.75589 0.77416 0.0
H203 H 0.50912 0.71679 0.83237 0.0
Co204 Co 0.54426 0.73408 0.76624 0.0
C205 C 0.53521 0.74345 0.68653 0.0
O206 O 0.52124 0.72133 0.67948 0.0
N207 N 0.56686 0.7279 0.74609 0.0
C208 C 0.58794 0.71948 0.70767 0.0
C209 C 0.56926 0.72286 0.71037 0.0
C210 C 0.58429 0.72717 0.7646 0.0
N211 N 0.5974 0.72219 0.74182 0.0
O212 O 0.56826 0.76267 0.78749 0.0
H213 H 0.55784 0.72078 0.68755 0.0
H214 H 0.58719 0.72985 0.7943 0.0
O215 O 0.54515 0.75016 0.71856 0.0
C216 C 0.57086 0.75827 0.82128 0.0
O217 O 0.55915 0.73663 0.83278 0.0
N218 N 0.51958 0.70435 0.7506 0.0
C219 C 0.4812 0.65917 0.74703 0.0
C220 C 0.47885 0.67842 0.73821 0.0
C221 C 0.49803 0.70075 0.74083 0.0
C222 C 0.52212 0.68566 0.75907 0.0
C223 C 0.50328 0.66297 0.75695 0.0
H224 H 0.49532 0.71523 0.73561 0.0
H225 H 0.53844 0.68818 0.76982 0.0
H226 H 0.52371 0.76706 0.75032 0.0
H227 H 0.47948 0.73223 0.84042 0.0
H228 H 0.59342 0.71428 0.6828 0.0
H229 H 0.46201 0.67642 0.73148 0.0
H230 H 0.50581 0.64861 0.76455 0.0
C231 C 0.78065 0.50106 0.29377 0.0
C232 C 0.75826 0.48685 0.30584 0.0
N233 N 0.74598 0.49772 0.29984 0.0
N234 N 0.78243 0.52061 0.27932 0.0
C235 C 0.76139 0.51855 0.28515 0.0
H236 H 0.79448 0.49691 0.29403 0.0
Co237 Co 0.80867 0.54477 0.2565 0.0
C238 C 0.77102 0.53687 0.19688 0.0
O239 O 0.75384 0.51718 0.20934 0.0
N240 N 0.83509 0.56898 0.2342 0.0
C241 C 0.86084 0.59062 0.19115 0.0
C242 C 0.83869 0.57267 0.19717 0.0
C243 C 0.85545 0.58473 0.25011 0.0
N244 N 0.87149 0.59811 0.22448 0.0
O245 O 0.80467 0.56656 0.2867 0.0
H246 H 0.82647 0.56219 0.17563 0.0
H247 H 0.85893 0.58541 0.27971 0.0
O248 O 0.79052 0.547 0.21433 0.0
C249 C 0.81435 0.56722 0.31797 0.0
O250 O 0.8253 0.55537 0.32088 0.0
N251 N 0.81392 0.52309 0.23089 0.0
C252 C 0.81957 0.4848 0.21775 0.0
C253 C 0.8006 0.48581 0.20233 0.0
C254 C 0.79812 0.50519 0.20915 0.0
C255 C 0.83352 0.52334 0.2431 0.0
C256 C 0.83686 0.50453 0.2364 0.0
H257 H 0.78236 0.50445 0.2001 0.0
H258 H 0.84572 0.53733 0.26092 0.0
H259 H 0.7572 0.53172 0.27708 0.0
H260 H 0.75126 0.46924 0.31583 0.0
H261 H 0.86869 0.59704 0.16416 0.0
H262 H 0.78667 0.47097 0.18802 0.0
H263 H 0.85205 0.5048 0.24813 0.0
C264 C 0.27055 0.78475 0.83282 0.0
C265 C 0.26591 0.7622 0.83645 0.0
N266 N 0.249 0.74876 0.81189 0.0
N267 N 0.25661 0.78557 0.80621 0.0
C268 C 0.24348 0.76336 0.79431 0.0
H269 H 0.28421 0.7998 0.84703 0.0
Co270 Co 0.25975 0.81291 0.78635 0.0
C271 C 0.22071 0.79636 0.73315 0.0
O272 O 0.21272 0.80812 0.75127 0.0
N273 N 0.26325 0.84046 0.7659 0.0
C274 C 0.26942 0.86775 0.72433 0.0
C275 C 0.26529 0.84553 0.72911 0.0
C276 C 0.26652 0.86004 0.78293 0.0
N277 N 0.27028 0.87692 0.75823 0.0
O278 O 0.23539 0.80993 0.81904 0.0
H279 H 0.26472 0.83409 0.7071 0.0
H280 H 0.26681 0.86219 0.81285 0.0
O281 O 0.23839 0.79579 0.7459 0.0
C282 C 0.24525 0.81955 0.84991 0.0
O283 O 0.26811 0.83019 0.85152 0.0
N284 N 0.28499 0.81646 0.75844 0.0
C285 C 0.3266 0.81885 0.73802 0.0
C286 C 0.30515 0.8006 0.72505 0.0
C287 C 0.28445 0.79979 0.73545 0.0
C288 C 0.30563 0.83515 0.76896 0.0
C289 C 0.32664 0.83693 0.75845 0.0
H290 H 0.26809 0.78474 0.72776 0.0
H291 H 0.30578 0.848 0.78773 0.0
H292 H 0.23087 0.75813 0.77193 0.0
H293 H 0.27535 0.75649 0.85407 0.0
H294 H 0.27286 0.87687 0.69804 0.0
H295 H 0.30413 0.78612 0.70953 0.0
H296 H 0.34273 0.85166 0.76831 0.0
C297 C 0.47759 0.25823 0.34657 0.0
C298 C 0.49504 0.25279 0.34932 0.0
N299 N 0.4978 0.24556 0.31555 0.0
N300 N 0.46923 0.25419 0.31135 0.0
C301 C 0.48191 0.24649 0.29318 0.0
H302 H 0.47186 0.26531 0.36862 0.0
Co303 Co 0.44695 0.26044 0.29166 0.0
C304 C 0.42501 0.22489 0.2329 0.0
O305 O 0.40473 0.2171 0.24919 0.0
N306 N 0.42486 0.2671 0.27106 0.0
C307 C 0.40654 0.27694 0.22908 0.0
C308 C 0.42355 0.27125 0.23445 0.0
C309 C 0.40866 0.27082 0.28743 0.0
N310 N 0.39723 0.27674 0.26246 0.0
O311 O 0.42347 0.23445 0.31903 0.0
H312 H 0.4348 0.27092 0.21298 0.0
H313 H 0.40554 0.26979 0.31709 0.0
O314 O 0.44325 0.24134 0.24814 0.0
C315 C 0.42045 0.24119 0.35085 0.0
O316 O 0.43163 0.26354 0.35848 0.0
N317 N 0.47055 0.2869 0.26918 0.0
C318 C 0.51053 0.32882 0.25313 0.0
C319 C 0.50415 0.30898 0.23105 0.0
C320 C 0.48399 0.28805 0.23957 0.0
C321 C 0.47578 0.3062 0.28959 0.0
C322 C 0.49564 0.32736 0.28202 0.0
H323 H 0.47995 0.2727 0.22354 0.0
H324 H 0.46506 0.30478 0.31327 0.0
H325 H 0.47988 0.24201 0.26387 0.0
H326 H 0.5055 0.25489 0.37383 0.0
H327 H 0.40226 0.28206 0.20292 0.0
H328 H 0.51506 0.3094 0.20828 0.0
H329 H 0.5 0.34203 0.30023 0.0
C330 C 0.21572 0.47527 0.84015 0.0
C331 C 0.23923 0.48859 0.84702 0.0
N332 N 0.25065 0.48421 0.82001 0.0
N333 N 0.21234 0.46252 0.80905 0.0
C334 C 0.2339 0.46816 0.79761 0.0
H335 H 0.202 0.47564 0.85581 0.0
Co336 Co 0.18379 0.44417 0.786 0.0
C337 C 0.1933 0.41795 0.72925 0.0
O338 O 0.17831 0.39864 0.74606 0.0
N339 N 0.15493 0.42592 0.76222 0.0
C340 C 0.12842 0.41204 0.71691 0.0
C341 C 0.1514 0.42662 0.72522 0.0
C342 C 0.13362 0.41098 0.77592 0.0
N343 N 0.11711 0.40226 0.74885 0.0
O344 O 0.18034 0.41816 0.81506 0.0
H345 H 0.16472 0.43738 0.70538 0.0
H346 H 0.13009 0.40715 0.80523 0.0
O347 O 0.19845 0.43748 0.74402 0.0
C348 C 0.17098 0.4182 0.84621 0.0
O349 O 0.16308 0.43271 0.85025 0.0
N350 N 0.18693 0.47053 0.76218 0.0
C351 C 0.19365 0.51437 0.74507 0.0
C352 C 0.20862 0.50703 0.73067 0.0
C353 C 0.20492 0.48491 0.73953 0.0
C354 C 0.1717 0.47699 0.77509 0.0
C355 C 0.17459 0.49872 0.76657 0.0
H356 H 0.21733 0.48001 0.73013 0.0
H357 H 0.15797 0.46566 0.79392 0.0
H358 H 0.23734 0.46129 0.77259 0.0
H359 H 0.24728 0.50148 0.86892 0.0
H360 H 0.12072 0.40908 0.68937 0.0
H361 H 0.22355 0.51861 0.71398 0.0
H362 H 0.16287 0.50378 0.77886 0.0
C363 C 0.74216 0.22034 0.33403 0.0
C364 C 0.7504 0.2439 0.33614 0.0
N365 N 0.76311 0.25397 0.30534 0.0
N366 N 0.74972 0.2156 0.30218 0.0
C367 C 0.7626 0.23641 0.28551 0.0
H368 H 0.73039 0.20736 0.35345 0.0
Co369 Co 0.73995 0.18609 0.28325 0.0
C370 C 0.77459 0.19438 0.22555 0.0
O371 O 0.78035 0.18086 0.24386 0.0
N372 N 0.72981 0.1564 0.26336 0.0
C373 C 0.7178 0.12814 0.22114 0.0
C374 C 0.72388 0.15083 0.22716 0.0
C375 C 0.72685 0.13659 0.27893 0.0
N376 N 0.71957 0.11907 0.25375 0.0
O377 O 0.76424 0.18539 0.31149 0.0
H378 H 0.72423 0.16267 0.20614 0.0
H379 H 0.72969 0.13489 0.30815 0.0
O380 O 0.75966 0.19898 0.23954 0.0
C381 C 0.75676 0.17689 0.34377 0.0
O382 O 0.73458 0.16842 0.3511 0.0
N383 N 0.71519 0.18676 0.25987 0.0
C384 C 0.67668 0.1914 0.24304 0.0
C385 C 0.69761 0.20408 0.22325 0.0
C386 C 0.71679 0.20163 0.23229 0.0
C387 C 0.69474 0.17341 0.27794 0.0
C388 C 0.67525 0.17539 0.26993 0.0
H389 H 0.73316 0.21265 0.21866 0.0
H390 H 0.69402 0.16218 0.30035 0.0
H391 H 0.77068 0.2386 0.25856 0.0
H392 H 0.74616 0.25266 0.35758 0.0
H393 H 0.71276 0.1192 0.19454 0.0
H394 H 0.69947 0.21651 0.20209 0.0
H395 H 0.65972 0.16555 0.2865 0.0
H396 H 0.36284 0.27272 0.21694 0.0
H397 H 0.3392 0.29128 0.22548 0.0
H398 H 0.37115 0.31708 0.33306 0.0
H399 H 0.39506 0.29889 0.32457 0.0
H400 H 0.30842 0.2898 0.29233 0.0
H401 H 0.38719 0.37478 0.26045 0.0
H402 H 0.38444 0.34732 0.24678 0.0
H403 H 0.3905 0.35674 0.29451 0.0
C404 C 0.36463 0.28214 0.24257 0.0
C405 C 0.38098 0.28458 0.2699 0.0
C406 C 0.35102 0.29255 0.24749 0.0
C407 C 0.35365 0.30561 0.27973 0.0
C408 C 0.36898 0.30704 0.30797 0.0
H409 H 0.31732 0.40689 0.34636 0.0
H410 H 0.33191 0.38002 0.34015 0.0
C411 C 0.38253 0.29656 0.30315 0.0
C412 C 0.34213 0.31962 0.28229 0.0
H413 H 0.35347 0.37559 0.27828 0.0
C414 C 0.31814 0.30855 0.2892 0.0
C415 C 0.35498 0.34399 0.27785 0.0
C416 C 0.38069 0.35652 0.26922 0.0
C417 C 0.30674 0.32146 0.29299 0.0
C418 C 0.31971 0.34592 0.28903 0.0
C419 C 0.34362 0.35684 0.28142 0.0
C420 C 0.30922 0.36083 0.29403 0.0
C421 C 0.28116 0.30895 0.30228 0.0
C422 C 0.29154 0.35891 0.27015 0.0
C423 C 0.28289 0.37417 0.27391 0.0
C424 C 0.29193 0.39172 0.30142 0.0
C425 C 0.3096 0.39342 0.3253 0.0
C426 C 0.31811 0.37814 0.32164 0.0
H427 H 0.2751 0.29112 0.31291 0.0
H428 H 0.27731 0.31875 0.32352 0.0
H429 H 0.27102 0.30745 0.27671 0.0
H430 H 0.28475 0.34593 0.24818 0.0
H431 H 0.26916 0.37221 0.25526 0.0
H432 H 0.89551 0.29483 0.7294 0.0
H433 H 0.93743 0.311 0.72035 0.0
H434 H 0.94497 0.29762 0.83578 0.0
H435 H 0.90308 0.28137 0.84496 0.0
H436 H 0.96994 0.35096 0.7709 0.0
H437 H 0.98464 0.27539 0.77145 0.0
H438 H 0.95728 0.27277 0.75699 0.0
H439 H 0.96499 0.27596 0.80551 0.0
C440 C 0.90601 0.29478 0.75254 0.0
C441 C 0.89614 0.28702 0.78795 0.0
C442 C 0.9299 0.30405 0.74738 0.0
C443 C 0.94412 0.30531 0.77737 0.0
C444 C 0.93416 0.29653 0.81225 0.0
H445 H 0.09454 0.37299 0.80663 0.0
H446 H 0.05238 0.34893 0.81465 0.0
C447 C 0.91033 0.28747 0.81752 0.0
C448 C 0.96964 0.31845 0.77352 0.0
H449 H 0.01805 0.31292 0.77065 0.0
C450 C 0.9805 0.34268 0.77065 0.0
C451 C 0.9832 0.3075 0.77397 0.0
C452 C 0.97206 0.28145 0.77696 0.0
C453 C 0.00473 0.35641 0.76823 0.0
C454 C 0.01836 0.34547 0.76761 0.0
C455 C 0.00751 0.3212 0.77099 0.0
C456 C 0.04383 0.35905 0.76224 0.0
C457 C 0.01552 0.38252 0.76704 0.0
C458 C 0.05289 0.37228 0.72985 0.0
C459 C 0.07684 0.38629 0.72545 0.0
C460 C 0.09235 0.3871 0.75312 0.0
C461 C 0.08318 0.37316 0.78508 0.0
C462 C 0.0591 0.35922 0.78957 0.0
H463 H 0.0037 0.3882 0.77889 0.0
H464 H 0.03225 0.3913 0.78268 0.0
H465 H 0.01901 0.38838 0.73759 0.0
H466 H 0.04138 0.37203 0.70812 0.0
H467 H 0.08305 0.39683 0.70061 0.0
H468 H 0.73396 0.10263 0.31167 0.0
H469 H 0.72341 0.06213 0.32261 0.0
H470 H 0.68298 0.04157 0.221 0.0
H471 H 0.69259 0.08142 0.21039 0.0
H472 H 0.6757 0.02428 0.32804 0.0
H473 H 0.72359 0.01007 0.21428 0.0
H474 H 0.73166 0.03867 0.23197 0.0
H475 H 0.70807 0.02433 0.1991 0.0
C476 C 0.7228 0.08953 0.29166 0.0
C477 C 0.71422 0.09546 0.26003 0.0
C478 C 0.71701 0.06645 0.29781 0.0
C479 C 0.70288 0.04906 0.27215 0.0
C480 C 0.69445 0.0549 0.24056 0.0
H481 H 0.61209 0.90906 0.23049 0.0
H482 H 0.64167 0.95029 0.22991 0.0
C483 C 0.70001 0.07779 0.23458 0.0
C484 C 0.69478 0.02434 0.27959 0.0
H485 H 0.68999 0.97584 0.23824 0.0
C486 C 0.67924 0.01366 0.30911 0.0
C487 C 0.69949 0.01071 0.25466 0.0
C488 C 0.7168 0.02155 0.2234 0.0
C489 C 0.66675 0.9894 0.31259 0.0
C490 C 0.67044 0.97562 0.2863 0.0
C491 C 0.68716 0.98645 0.25825 0.0
C492 C 0.6552 0.95009 0.2849 0.0
C493 C 0.6485 0.97872 0.34267 0.0
C494 C 0.65365 0.9362 0.31539 0.0
C495 C 0.63662 0.91269 0.31586 0.0
C496 C 0.62115 0.90269 0.28562 0.0
C497 C 0.62383 0.91629 0.25406 0.0
C498 C 0.64069 0.93983 0.25376 0.0
H499 H 0.64485 0.99169 0.35598 0.0
H500 H 0.63195 0.9644 0.33108 0.0
H501 H 0.65467 0.97136 0.36471 0.0
H502 H 0.66506 0.94369 0.33931 0.0
H503 H 0.63518 0.90243 0.34021 0.0
H504 H 0.70058 0.61065 0.72113 0.0
H505 H 0.68644 0.63816 0.71685 0.0
H506 H 0.70978 0.66127 0.82945 0.0
H507 H 0.72453 0.63415 0.83368 0.0
H508 H 0.65163 0.63386 0.76811 0.0
H509 H 0.72974 0.72246 0.77006 0.0
H510 H 0.73098 0.69692 0.75618 0.0
H511 H 0.72881 0.70239 0.80464 0.0
C512 C 0.70337 0.62204 0.74459 0.0
C513 C 0.71352 0.6201 0.77787 0.0
C514 C 0.69518 0.63768 0.74215 0.0
C515 C 0.69719 0.65176 0.77277 0.0
C516 C 0.70835 0.65074 0.80537 0.0
H517 H 0.60229 0.70457 0.80718 0.0
H518 H 0.62948 0.69056 0.81966 0.0
C519 C 0.71651 0.63506 0.80788 0.0
C520 C 0.68497 0.66518 0.77214 0.0
H521 H 0.6929 0.72008 0.7739 0.0
C522 C 0.66063 0.65271 0.76943 0.0
C523 C 0.69687 0.68972 0.77395 0.0
C524 C 0.72306 0.70377 0.77611 0.0
C525 C 0.64776 0.66414 0.76813 0.0
C526 C 0.65959 0.68869 0.77011 0.0
C527 C 0.68396 0.70123 0.77292 0.0
C528 C 0.64674 0.70137 0.76628 0.0
C529 C 0.62164 0.6499 0.76362 0.0
C530 C 0.6483 0.71299 0.73291 0.0
C531 C 0.63287 0.72102 0.72576 0.0
C532 C 0.61569 0.71759 0.75193 0.0
C533 C 0.61536 0.70751 0.78655 0.0
C534 C 0.63079 0.69942 0.79365 0.0
H535 H 0.61572 0.63153 0.75609 0.0
H536 H 0.61323 0.65002 0.79029 0.0
H537 H 0.61555 0.65748 0.74175 0.0
H538 H 0.66057 0.71466 0.71153 0.0
H539 H 0.63378 0.72913 0.69916 0.0
H540 H 0.08163 0.71529 0.34377 0.0
H541 H 0.04022 0.6995 0.33037 0.0
H542 H 0.05106 0.68551 0.21687 0.0
H543 H 0.09224 0.7005 0.23024 0.0
H544 H 0.01498 0.70966 0.27438 0.0
H545 H 0.00381 0.62125 0.26092 0.0
H546 H 0.02948 0.64534 0.28134 0.0
H547 H 0.02591 0.64283 0.23149 0.0
C548 C 0.07522 0.70892 0.31592 0.0
C549 C 0.09019 0.7088 0.28827 0.0
C550 C 0.05162 0.70011 0.30826 0.0
C551 C 0.04263 0.69103 0.27285 0.0
C552 C 0.05771 0.69219 0.24453 0.0
H553 H 0.90705 0.60992 0.17612 0.0
H554 H 0.94836 0.63507 0.1884 0.0
C555 C 0.08129 0.70095 0.25217 0.0
C556 C 0.01725 0.67873 0.2663 0.0
H557 H 0.97126 0.62518 0.24576 0.0
C558 C 0.00533 0.69119 0.2682 0.0
C559 C 0.00481 0.65459 0.2587 0.0
C560 C 0.01656 0.64012 0.2583 0.0
C561 C 0.98125 0.68017 0.2615 0.0
C562 C 0.96894 0.65613 0.25321 0.0
C563 C 0.98085 0.64366 0.2519 0.0
C564 C 0.94374 0.64338 0.24497 0.0
C565 C 0.96922 0.69434 0.26247 0.0
C566 C 0.92744 0.63995 0.27269 0.0
C567 C 0.90364 0.62561 0.26568 0.0
C568 C 0.89581 0.61441 0.23091 0.0
C569 C 0.91229 0.61846 0.203 0.0
C570 C 0.93599 0.63276 0.21001 0.0
H571 H 0.98184 0.71332 0.26174 0.0
H572 H 0.95697 0.68973 0.23857 0.0
H573 H 0.95898 0.69048 0.28857 0.0
H574 H 0.93316 0.64774 0.30006 0.0
H575 H 0.89141 0.62305 0.28762 0.0
H576 H 0.29311 0.90198 0.81967 0.0
H577 H 0.30943 0.94372 0.82882 0.0
H578 H 0.28086 0.94821 0.72296 0.0
H579 H 0.26385 0.90628 0.71408 0.0
H580 H 0.34211 0.9756 0.778 0.0
H581 H 0.26581 0.98843 0.79282 0.0
H582 H 0.26389 0.9606 0.80008 0.0
H583 H 0.265 0.97111 0.75357 0.0
C584 C 0.28968 0.91166 0.79883 0.0
C585 C 0.27729 0.90082 0.76602 0.0
C586 C 0.29914 0.93555 0.80401 0.0
C587 C 0.29622 0.94897 0.77666 0.0
C588 C 0.28302 0.93809 0.74463 0.0
H589 H 0.36757 0.10045 0.75184 0.0
H590 H 0.34225 0.05856 0.74075 0.0
C591 C 0.27356 0.91419 0.73942 0.0
C592 C 0.30916 0.97458 0.77982 0.0
H593 H 0.30295 0.02243 0.78826 0.0
C594 C 0.33354 0.98583 0.78031 0.0
C595 C 0.29788 0.98782 0.78226 0.0
C596 C 0.2717 0.97644 0.78245 0.0
C597 C 0.34703 0.01003 0.78359 0.0
C598 C 0.33579 0.02324 0.78702 0.0
C599 C 0.31141 0.01213 0.78564 0.0
C600 C 0.34929 0.04846 0.7944 0.0
C601 C 0.37323 0.02132 0.78347 0.0
C602 C 0.36111 0.05644 0.82843 0.0
C603 C 0.3756 0.08015 0.83472 0.0
C604 C 0.37849 0.09641 0.80711 0.0
C605 C 0.36595 0.08836 0.77343 0.0
C606 C 0.35138 0.06451 0.76716 0.0
H607 H 0.37905 0.00957 0.77174 0.0
H608 H 0.3812 0.03766 0.76706 0.0
H609 H 0.37983 0.02574 0.81256 0.0
H610 H 0.35956 0.04423 0.84982 0.0
H611 H 0.38514 0.08558 0.86078 0.0
H612 H 0.20297 0.40458 0.86324 0.0
H613 H 0.21002 0.39343 0.92526 0.0
H614 H 0.15021 0.39516 0.96807 0.0
H615 H 0.14291 0.40572 0.90659 0.0
H616 H 0.22094 0.42145 0.98518 0.0
H617 H 0.14232 0.33834 0.02017 0.0
H618 H 0.14874 0.3493 0.97304 0.0
H619 H 0.13503 0.35965 1.00512 0.0
C620 C 0.19083 0.40166 0.88556 0.0
C621 C 0.17235 0.40597 0.87996 0.0
C622 C 0.19496 0.39547 0.92111 0.0
C623 C 0.18053 0.3932 0.95151 0.0
C624 C 0.16131 0.3962 0.94519 0.0
H625 H 0.19752 0.4112 0.1908 0.0
H626 H 0.18096 0.40153 0.12737 0.0
C627 C 0.15724 0.40242 0.9099 0.0
C628 C 0.18713 0.39092 0.99056 0.0
H629 H 0.16583 0.36121 0.07245 0.0
C630 C 0.20901 0.408 1.004 0.0
C631 C 0.17151 0.37357 1.01549 0.0
C632 C 0.14818 0.35406 1.0026 0.0
C633 C 0.21539 0.40871 0.04163 0.0
C634 C 0.19962 0.39166 0.0667 0.0
C635 C 0.17787 0.37432 0.0533 0.0
C636 C 0.20575 0.39205 0.10686 0.0
C637 C 0.23875 0.42821 0.05461 0.0
C638 C 0.22425 0.3886 0.11696 0.0
C639 C 0.23362 0.39403 0.15303 0.0
C640 C 0.22451 0.40273 0.17992 0.0
C641 C 0.20455 0.40403 0.17093 0.0
C642 C 0.19524 0.39874 0.13456 0.0
H643 H 0.24675 0.44249 0.03388 0.0
H644 H 0.23707 0.43552 0.08157 0.0
H645 H 0.25077 0.42134 0.05898 0.0
H646 H 0.23249 0.38324 0.09621 0.0
H647 H 0.24914 0.39309 0.15909 0.0
H648 H 0.76761 0.14673 0.37734 0.0
H649 H 0.78396 0.15101 0.44043 0.0
H650 H 0.79378 0.22028 0.44723 0.0
H651 H 0.77903 0.21647 0.38356 0.0
H652 H 0.8265 0.21972 0.48416 0.0
H653 H 0.74398 0.14196 0.52734 0.0
H654 H 0.7601 0.13581 0.49362 0.0
H655 H 0.74807 0.15393 0.48114 0.0
C656 C 0.77426 0.16317 0.39189 0.0
C657 C 0.77253 0.18144 0.37556 0.0
C658 C 0.78311 0.16546 0.42823 0.0
C659 C 0.78938 0.18568 0.44933 0.0
C660 C 0.78901 0.20445 0.43185 0.0
H661 H 0.77335 0.2084 0.67616 0.0
H662 H 0.76905 0.19262 0.61321 0.0
C663 C 0.78074 0.20236 0.3953 0.0
C664 C 0.79472 0.18705 0.49015 0.0
H665 H 0.77171 0.1617 0.57423 0.0
C666 C 0.81459 0.20693 0.50384 0.0
C667 C 0.77907 0.17049 0.51605 0.0
C668 C 0.75651 0.14947 0.50392 0.0
C669 C 0.81866 0.21136 0.54233 0.0
C670 C 0.80304 0.19477 0.56826 0.0
C671 C 0.7838 0.17432 0.55453 0.0
C672 C 0.80461 0.19967 0.60925 0.0
C673 C 0.83878 0.23456 0.55449 0.0
C674 C 0.8255 0.20746 0.62932 0.0
C675 C 0.82806 0.21693 0.66522 0.0
C676 C 0.80943 0.21769 0.68225 0.0
C677 C 0.78781 0.20748 0.66396 0.0
C678 C 0.78543 0.19864 0.62775 0.0
H679 H 0.84527 0.24735 0.53132 0.0
H680 H 0.83369 0.24207 0.57787 0.0
H681 H 0.85342 0.23222 0.56389 0.0
H682 H 0.84032 0.20766 0.61637 0.0
H683 H 0.84503 0.22513 0.67854 0.0
H684 H 0.61384 0.85793 0.14693 0.0
H685 H 0.62279 0.8514 0.08323 0.0
H686 H 0.57035 0.77889 0.09161 0.0
H687 H 0.56268 0.78519 0.15616 0.0
H688 H 0.60314 0.78244 0.04864 0.0
H689 H 0.581 0.84866 1.00227 0.0
H690 H 0.60616 0.86052 0.03195 0.0
H691 H 0.57812 0.83938 0.05007 0.0
C692 C 0.60498 0.84044 0.13556 0.0
C693 C 0.5878 0.822 0.15643 0.0
C694 C 0.60974 0.83679 0.09891 0.0
C695 C 0.5966 0.81485 0.08189 0.0
C696 C 0.58063 0.79605 0.10383 0.0
H697 H 0.55043 0.77889 0.85699 0.0
H698 H 0.56062 0.79587 0.91952 0.0
C699 C 0.57637 0.79957 0.14087 0.0
C700 C 0.59804 0.81169 0.04085 0.0
H701 H 0.59208 0.83126 0.95554 0.0
C702 C 0.60083 0.79319 0.02828 0.0
C703 C 0.59464 0.82547 1.0141 0.0
C704 C 0.58957 0.84445 0.02521 0.0
C705 C 0.59969 0.78767 0.9901 0.0
C706 C 0.59676 0.80175 0.96331 0.0
C707 C 0.59465 0.82066 0.97586 0.0
C708 C 0.59313 0.79562 0.92274 0.0
C709 C 0.60028 0.76599 0.97925 0.0
C710 C 0.60863 0.79114 0.90248 0.0
C711 C 0.60259 0.78113 0.86676 0.0
C712 C 0.58147 0.77638 0.85016 0.0
C713 C 0.56713 0.78301 0.86881 0.0
C714 C 0.57287 0.7925 0.90477 0.0
H715 H 0.59642 0.7541 1.00333 0.0
H716 H 0.58748 0.75629 0.95675 0.0
H717 H 0.61792 0.77091 0.96904 0.0
H718 H 0.62474 0.7941 0.91507 0.0
H719 H 0.61365 0.77566 0.85321 0.0
H720 H 0.8402 0.57801 0.38108 0.0
H721 H 0.83143 0.58776 0.44199 0.0
H722 H 0.77328 0.59104 0.3947 0.0
H723 H 0.78154 0.58026 0.33319 0.0
H724 H 0.82803 0.62212 0.47394 0.0
H725 H 0.74121 0.54177 0.47281 0.0
H726 H 0.76265 0.54768 0.43735 0.0
H727 H 0.74547 0.56173 0.43591 0.0
C728 C 0.82565 0.58104 0.38337 0.0
C729 C 0.81133 0.57797 0.35232 0.0
C730 C 0.82072 0.58673 0.41836 0.0
C731 C 0.80134 0.58958 0.42335 0.0
C732 C 0.78797 0.58831 0.39182 0.0
H733 H 0.73555 0.59531 0.6289 0.0
H734 H 0.75137 0.60293 0.56582 0.0
C735 C 0.79286 0.58243 0.35655 0.0
C736 C 0.79455 0.59212 0.46202 0.0
H737 H 0.75131 0.56519 0.52654 0.0
C738 C 0.81118 0.60975 0.48534 0.0
C739 C 0.77269 0.57581 0.47723 0.0
C740 C 0.75453 0.55554 0.45472 0.0
C741 C 0.80655 0.61144 0.52324 0.0
C742 C 0.78477 0.59509 0.53826 0.0
C743 C 0.76801 0.57777 0.51489 0.0
C744 C 0.77871 0.59524 0.5782 0.0
C745 C 0.82492 0.63066 0.54698 0.0
C746 C 0.78942 0.58926 0.60667 0.0
C747 C 0.78041 0.58495 0.6431 0.0
C748 C 0.76047 0.58641 0.65134 0.0
C749 C 0.75094 0.59404 0.6234 0.0
C750 C 0.75991 0.59835 0.58725 0.0
H751 H 0.83896 0.64441 0.52981 0.0
H752 H 0.81706 0.63868 0.56463 0.0
H753 H 0.83288 0.62329 0.56584 0.0
H754 H 0.80378 0.58646 0.60019 0.0
H755 H 0.78788 0.57874 0.66388 0.0
H756 H 0.26278 0.84398 0.91392 0.0
H757 H 0.24475 0.83609 0.97503 0.0
H758 H 0.18024 0.78241 0.92738 0.0
H759 H 0.19868 0.78973 0.86558 0.0
H760 H 0.20885 0.83631 1.00799 0.0
H761 H 0.19358 0.74603 1.0034 0.0
H762 H 0.21036 0.76727 0.96838 0.0
H763 H 0.17906 0.75267 0.96726 0.0
C764 C 0.24466 0.83059 0.91617 0.0
C765 C 0.23229 0.81717 0.88489 0.0
C766 C 0.23432 0.82618 0.95129 0.0
C767 C 0.2113 0.80828 0.95618 0.0
C768 C 0.19826 0.79593 0.92453 0.0
H769 H 0.1412 0.74356 0.16269 0.0
H770 H 0.14831 0.76073 0.10052 0.0
C771 C 0.20871 0.80026 0.88913 0.0
C772 C 0.202 0.80174 0.99484 0.0
H773 H 0.18296 0.75763 0.05823 0.0
C774 C 0.20299 0.81903 1.01888 0.0
C775 C 0.19464 0.77929 1.00934 0.0
C776 C 0.19451 0.76028 0.98595 0.0
C777 C 0.19701 0.81451 0.05687 0.0
C778 C 0.18987 0.79215 0.07122 0.0
C779 C 0.18836 0.77476 0.04709 0.0
C780 C 0.18435 0.7862 0.11131 0.0
C781 C 0.1984 0.83361 0.08144 0.0
C782 C 0.20196 0.79558 0.13875 0.0
C783 C 0.19784 0.78585 0.17468 0.0
C784 C 0.17611 0.76655 0.18334 0.0
C785 C 0.15806 0.75856 0.1568 0.0
C786 C 0.16213 0.76827 0.12118 0.0
H787 H 0.19949 0.84823 0.06484 0.0
H788 H 0.18302 0.82681 0.10005 0.0
H789 H 0.21418 0.84049 0.09933 0.0
H790 H 0.21935 0.80918 0.13159 0.0
H791 H 0.21219 0.79197 0.19431 0.0
H792 H 0.38128 0.15219 0.68429 0.0
H793 H 0.37141 0.15924 0.62145 0.0
H794 H 0.43356 0.22685 0.62136 0.0
H795 H 0.44238 0.22036 0.68503 0.0
H796 H 0.40227 0.22928 0.58273 0.0
H797 H 0.4032 0.15017 0.53563 0.0
H798 H 0.38047 0.14396 0.56836 0.0
H799 H 0.41049 0.16099 0.58271 0.0
C800 C 0.39218 0.16893 0.67133 0.0
C801 C 0.41234 0.18591 0.68956 0.0
C802 C 0.38685 0.17277 0.63512 0.0
C803 C 0.4022 0.19321 0.6159 0.0
C804 C 0.42147 0.21084 0.6353 0.0
H805 H 0.43593 0.21484 0.38375 0.0
H806 H 0.4277 0.20057 0.44796 0.0
C807 C 0.42643 0.20725 0.67186 0.0
C808 C 0.39935 0.19578 0.5751 0.0
H809 H 0.39519 0.17059 0.48986 0.0
C810 C 0.40062 0.21638 0.56245 0.0
C811 C 0.39761 0.17915 0.54839 0.0
C812 C 0.39811 0.15746 0.55937 0.0
C813 C 0.40086 0.22115 0.52417 0.0
C814 C 0.39854 0.20427 0.49748 0.0
C815 C 0.39664 0.1834 0.51016 0.0
C816 C 0.40032 0.20887 0.45647 0.0
C817 C 0.405 0.24484 0.513 0.0
C818 C 0.38673 0.21692 0.43882 0.0
C819 C 0.3918 0.22551 0.40234 0.0
C820 C 0.40976 0.22515 0.38229 0.0
C821 C 0.42165 0.21481 0.39839 0.0
C822 C 0.41706 0.20686 0.43526 0.0
H823 H 0.41286 0.25767 0.53612 0.0
H824 H 0.41671 0.25165 0.4885 0.0
H825 H 0.38812 0.24353 0.50567 0.0
H826 H 0.37311 0.21784 0.45394 0.0
H827 H 0.38263 0.23371 0.39059 0.0
H828 H 0.80057 0.57823 0.16207 0.0
H829 H 0.80153 0.58715 0.0955 0.0
H830 H 0.74025 0.5203 0.07692 0.0
H831 H 0.73904 0.51138 0.14303 0.0
H832 H 0.80724 0.56435 0.03716 0.0
H833 H 0.72314 0.56182 0.02048 0.0
H834 H 0.73581 0.56316 0.06571 0.0
H835 H 0.71946 0.53576 0.04165 0.0
C836 C 0.78714 0.56554 0.14387 0.0
C837 C 0.76983 0.54402 0.15797 0.0
C838 C 0.78771 0.57068 0.10579 0.0
C839 C 0.77084 0.5545 0.08111 0.0
C840 C 0.75317 0.53332 0.09539 0.0
H841 H 0.74636 0.52971 0.84569 0.0
H842 H 0.74964 0.52778 0.91329 0.0
C843 C 0.75254 0.52821 0.13336 0.0
C844 C 0.77244 0.55895 0.04015 0.0
H845 H 0.74062 0.558 0.96424 0.0
C846 C 0.79279 0.56329 0.02129 0.0
C847 C 0.75363 0.55764 1.01933 0.0
C848 C 0.73189 0.55459 0.0379 0.0
C849 C 0.79445 0.5654 0.98217 0.0
C850 C 0.77529 0.56317 0.96138 0.0
C851 C 0.7552 0.55945 0.98024 0.0
C852 C 0.77543 0.56412 0.91993 0.0
C853 C 0.81632 0.56922 0.96312 0.0
C854 C 0.78922 0.58512 0.90105 0.0
C855 C 0.78731 0.58634 0.86222 0.0
C856 C 0.77156 0.56656 0.84154 0.0
C857 C 0.75862 0.54532 0.86051 0.0
C858 C 0.76042 0.54417 0.89927 0.0
H859 H 0.82826 0.56724 0.98262 0.0
H860 H 0.81192 0.55676 0.93961 0.0
H861 H 0.82566 0.58704 0.95138 0.0
H862 H 0.80079 0.60077 0.9165 0.0
H863 H 0.79749 0.603 0.84867 0.0
H864 H 0.19382 0.80701 0.68812 0.0
H865 H 0.18775 0.80062 0.62065 0.0
H866 H 0.22673 0.76462 0.62113 0.0
H867 H 0.2325 0.7705 0.68838 0.0
H868 H 0.22225 0.81687 0.56631 0.0
H869 H 0.16946 0.72086 0.56056 0.0
H870 H 0.17349 0.73709 0.6031 0.0
H871 H 0.19552 0.73073 0.58768 0.0
C872 C 0.20063 0.79724 0.67404 0.0
C873 C 0.21364 0.78924 0.69376 0.0
C874 C 0.19729 0.79377 0.63539 0.0
C875 C 0.20665 0.78203 0.61582 0.0
C876 C 0.219 0.7734 0.63565 0.0
H877 H 0.23277 0.75044 0.39942 0.0
H878 H 0.23502 0.76427 0.46338 0.0
C879 C 0.22237 0.77687 0.67418 0.0
C880 C 0.20471 0.77977 0.57446 0.0
H881 H 0.18869 0.73997 0.50391 0.0
C882 C 0.21457 0.80005 0.5526 0.0
C883 C 0.19457 0.75783 0.55655 0.0
C884 C 0.18245 0.73539 0.57817 0.0
C885 C 0.21558 0.79893 0.51343 0.0
C886 C 0.20652 0.77704 0.49586 0.0
C887 C 0.19584 0.75678 0.51756 0.0
C888 C 0.20905 0.77445 0.45528 0.0
C889 C 0.22717 0.82106 0.49107 0.0
C890 C 0.19453 0.77672 0.42901 0.0
C891 C 0.19344 0.76905 0.39209 0.0
C892 C 0.20671 0.75888 0.38135 0.0
C893 C 0.22258 0.75848 0.40693 0.0
C894 C 0.22375 0.76621 0.44353 0.0
H895 H 0.23451 0.83681 0.50909 0.0
H896 H 0.24137 0.82162 0.47395 0.0
H897 H 0.21431 0.82142 0.4716 0.0
H898 H 0.18287 0.78281 0.43768 0.0
H899 H 0.18066 0.76901 0.37314 0.0
H900 H 0.41791 0.19194 0.87387 0.0
H901 H 0.40881 0.1905 0.94039 0.0
H902 H 0.47576 0.25125 0.96039 0.0
H903 H 0.48537 0.25249 0.89424 0.0
H904 H 0.4466 0.19209 1.00167 0.0
H905 H 0.41754 0.25747 1.01143 0.0
H906 H 0.41325 0.2405 0.96957 0.0
H907 H 0.44183 0.26342 0.98175 0.0
C908 C 0.43071 0.20502 0.89235 0.0
C909 C 0.45259 0.22201 0.87877 0.0
C910 C 0.42542 0.20422 0.9303 0.0
C911 C 0.4417 0.22066 0.95519 0.0
C912 C 0.463 0.2384 0.94152 0.0
H913 H 0.46348 0.2332 0.19288 0.0
H914 H 0.46608 0.22965 0.12528 0.0
C915 C 0.4684 0.2391 0.90365 0.0
C916 C 0.43713 0.21854 0.99581 0.0
H917 H 0.42146 0.24145 0.06794 0.0
C918 C 0.44097 0.20275 1.01622 0.0
C919 C 0.42973 0.23244 1.01447 0.0
C920 C 0.42521 0.24942 0.9934 0.0
C921 C 0.43804 0.20084 0.05514 0.0
C922 C 0.43116 0.21514 0.07399 0.0
C923 C 0.42677 0.23053 0.05339 0.0
C924 C 0.42917 0.21499 0.11523 0.0
C925 C 0.44232 0.18359 0.07588 0.0
C926 C 0.40752 0.20763 0.13203 0.0
C927 C 0.40595 0.20948 0.17071 0.0
C928 C 0.42609 0.21911 0.19321 0.0
C929 C 0.44765 0.22574 0.17637 0.0
C930 C 0.44917 0.22368 0.13775 0.0
H931 H 0.44266 0.17056 0.05677 0.0
H932 H 0.45939 0.193 0.09043 0.0
H933 H 0.4287 0.17434 0.0973 0.0
H934 H 0.39191 0.20093 0.11509 0.0
H935 H 0.38909 0.20438 0.18268 0.0
H936 H 0.2279 0.40959 0.37059 0.0
H937 H 0.2161 0.39682 0.43529 0.0
H938 H 0.20751 0.45617 0.4546 0.0
H939 H 0.21959 0.46908 0.39049 0.0
H940 H 0.24332 0.42787 0.49676 0.0
H941 H 0.14968 0.40104 0.50559 0.0
H942 H 0.16356 0.40113 0.46217 0.0
H943 H 0.16742 0.42787 0.48126 0.0
C944 C 0.22246 0.41928 0.38819 0.0
C945 C 0.22427 0.44012 0.37541 0.0
C946 C 0.21601 0.41215 0.42526 0.0
C947 C 0.21083 0.4255 0.44978 0.0
C948 C 0.21108 0.44541 0.43613 0.0
H949 H 0.22453 0.45392 0.68542 0.0
H950 H 0.22937 0.45357 0.61769 0.0
C951 C 0.21788 0.45272 0.39942 0.0
C952 C 0.20797 0.42051 0.49054 0.0
H953 H 0.1706 0.40944 0.56323 0.0
C954 C 0.22731 0.42351 0.51125 0.0
C955 C 0.18712 0.41486 0.50946 0.0
C956 C 0.16566 0.41083 0.48853 0.0
C957 C 0.22661 0.42186 0.55044 0.0
C958 C 0.20606 0.41713 0.56947 0.0
C959 C 0.18642 0.41323 0.54866 0.0
C960 C 0.20476 0.41686 0.61097 0.0
C961 C 0.24792 0.42541 0.57132 0.0
C962 C 0.18954 0.3963 0.62984 0.0
C963 C 0.18689 0.3964 0.66862 0.0
C964 C 0.19914 0.41716 0.68935 0.0
C965 C 0.21488 0.43761 0.67045 0.0
C966 C 0.21768 0.43744 0.63169 0.0
H967 H 0.26039 0.4238 0.55264 0.0
H968 H 0.25691 0.44309 0.58385 0.0
H969 H 0.24301 0.41262 0.59431 0.0
H970 H 0.17936 0.38024 0.61443 0.0
H971 H 0.17448 0.38035 0.68207 0.0
H972 H 0.80683 0.21805 0.86399 0.0
H973 H 0.80523 0.2018 0.92636 0.0
H974 H 0.75416 0.2203 0.95993 0.0
H975 H 0.75564 0.23625 0.89821 0.0
H976 H 0.81804 0.22932 0.9897 0.0
H977 H 0.7281 0.15671 1.00633 0.0
H978 H 0.7405 0.1681 0.96111 0.0
H979 H 0.72829 0.18206 0.98877 0.0
C980 C 0.79457 0.21768 0.88428 0.0
C981 C 0.78122 0.22822 0.87634 0.0
C982 C 0.79383 0.20863 0.91996 0.0
C983 C 0.77942 0.20964 0.94778 0.0
C984 C 0.76503 0.21883 0.93885 0.0
H985 H 0.7652 0.22121 0.17869 0.0
H986 H 0.76873 0.22347 0.11076 0.0
C987 C 0.76593 0.22801 0.90355 0.0
C988 C 0.78139 0.20416 0.98736 0.0
H989 H 0.74819 0.1765 0.06348 0.0
C990 C 0.80291 0.21731 1.00569 0.0
C991 C 0.76164 0.18853 1.00827 0.0
C992 C 0.7384 0.17288 0.98997 0.0
C993 C 0.80481 0.21634 0.04467 0.0
C994 C 0.78473 0.20189 0.06568 0.0
C995 C 0.76351 0.1878 0.04723 0.0
C996 C 0.78494 0.20226 0.107 0.0
C997 C 0.82792 0.23163 0.06353 0.0
C998 C 0.79341 0.19003 0.12737 0.0
C999 C 0.79132 0.18859 0.16631 0.0
C1000 C 0.78064 0.19931 0.18546 0.0
C1001 C 0.77326 0.21252 0.16493 0.0
C1002 C 0.77527 0.21385 0.12607 0.0
H1003 H 0.84183 0.24241 0.04329 0.0
H1004 H 0.82622 0.24329 0.08395 0.0
H1005 H 0.83328 0.22068 0.07926 0.0
H1006 H 0.80091 0.18095 0.11305 0.0
H1007 H 0.79715 0.17823 0.18116 0.0
H1008 H 0.50708 0.74426 0.63309 0.0
H1009 H 0.51855 0.76066 0.57067 0.0
H1010 H 0.59086 0.79317 0.60293 0.0
H1011 H 0.5793 0.77655 0.66589 0.0
H1012 H 0.54677 0.80546 0.53925 0.0
H1013 H 0.58361 0.74702 0.51886 0.0
H1014 H 0.56541 0.74415 0.55815 0.0
H1015 H 0.5951 0.76738 0.55703 0.0
C1016 C 0.52541 0.75557 0.62725 0.0
C1017 C 0.54231 0.75919 0.6542 0.0
C1018 C 0.53195 0.76485 0.59153 0.0
C1019 C 0.55555 0.77771 0.58191 0.0
C1020 C 0.57254 0.78298 0.60967 0.0
H1021 H 0.60597 0.81002 0.35088 0.0
H1022 H 0.60455 0.80578 0.41881 0.0
C1023 C 0.56595 0.7738 0.64573 0.0
C1024 C 0.56181 0.78333 0.542 0.0
H1025 H 0.58166 0.76699 0.46632 0.0
C1026 C 0.55469 0.79731 0.52338 0.0
C1027 C 0.57205 0.77258 0.52128 0.0
C1028 C 0.57939 0.7568 0.53962 0.0
C1029 C 0.55706 0.80043 0.48454 0.0
C1030 C 0.56635 0.78886 0.46364 0.0
C1031 C 0.57437 0.77567 0.48239 0.0
C1032 C 0.56709 0.78964 0.4222 0.0
C1033 C 0.54944 0.81597 0.46617 0.0
C1034 C 0.54642 0.78099 0.40139 0.0
C1035 C 0.54713 0.78324 0.36254 0.0
C1036 C 0.56856 0.79417 0.34366 0.0
C1037 C 0.58916 0.80155 0.36443 0.0
C1038 C 0.58841 0.79926 0.40333 0.0
H1039 H 0.54902 0.82845 0.48642 0.0
H1040 H 0.56119 0.8259 0.44284 0.0
H1041 H 0.5316 0.80511 0.45468 0.0
H1042 H 0.52972 0.77291 0.4153 0.0
H1043 H 0.53091 0.77711 0.3475 0.0
H1044 H 0.20404 0.49709 0.17903 0.0
H1045 H 0.18861 0.52287 0.19379 0.0
H1046 H 0.19132 0.5103 0.31111 0.0
H1047 H 0.20718 0.48509 0.29697 0.0
H1048 H 0.14686 0.51411 0.2633 0.0
H1049 H 0.23979 0.58504 0.26849 0.0
H1050 H 0.23037 0.56157 0.23517 0.0
H1051 H 0.23146 0.55604 0.28383 0.0
C1052 C 0.20101 0.49952 0.20792 0.0
C1053 C 0.20707 0.48916 0.23674 0.0
C1054 C 0.19203 0.51407 0.21625 0.0
C1055 C 0.18888 0.51835 0.25348 0.0
C1056 C 0.19348 0.50696 0.28221 0.0
H1057 H 0.18886 0.63933 0.34395 0.0
H1058 H 0.19005 0.60319 0.33806 0.0
C1059 C 0.20249 0.49247 0.27396 0.0
C1060 C 0.18396 0.53708 0.26265 0.0
H1061 H 0.21134 0.59539 0.27935 0.0
C1062 C 0.16086 0.5319 0.26688 0.0
C1063 C 0.20238 0.5601 0.26766 0.0
C1064 C 0.22746 0.56624 0.26364 0.0
C1065 C 0.15569 0.54945 0.27578 0.0
C1066 C 0.17415 0.57263 0.27999 0.0
C1067 C 0.19724 0.5776 0.27624 0.0
C1068 C 0.17016 0.59236 0.28662 0.0
C1069 C 0.13062 0.54302 0.28096 0.0
C1070 C 0.15829 0.59802 0.25997 0.0
C1071 C 0.15761 0.61862 0.26326 0.0
C1072 C 0.169 0.63403 0.29309 0.0
C1073 C 0.18011 0.62787 0.32052 0.0
C1074 C 0.1807 0.60722 0.31728 0.0
H1075 H 0.11948 0.52429 0.28772 0.0
H1076 H 0.12889 0.55355 0.30351 0.0
H1077 H 0.124 0.54643 0.25464 0.0
H1078 H 0.15056 0.58711 0.2356 0.0
H1079 H 0.14926 0.62307 0.24133 0.0
H1080 H 0.6982 0.20558 0.69097 0.0
H1081 H 0.65765 0.18978 0.71039 0.0
H1082 H 0.67862 0.19597 0.82575 0.0
H1083 H 0.71907 0.21226 0.80684 0.0
H1084 H 0.62717 0.1503 0.76006 0.0
H1085 H 0.64793 0.23739 0.81384 0.0
H1086 H 0.66694 0.23353 0.78235 0.0
H1087 H 0.66583 0.22606 0.83071 0.0
C1088 C 0.69414 0.20341 0.72044 0.0
C1089 C 0.71194 0.21034 0.74727 0.0
C1090 C 0.67099 0.19426 0.73147 0.0
C1091 C 0.66528 0.19199 0.76948 0.0
C1092 C 0.68277 0.19778 0.79628 0.0
H1093 H 0.53631 0.17306 0.86774 0.0
H1094 H 0.57431 0.17549 0.86217 0.0
C1095 C 0.70589 0.2069 0.78532 0.0
C1096 C 0.64135 0.1852 0.78109 0.0
H1097 H 0.60928 0.20713 0.81935 0.0
C1098 C 0.62321 0.16262 0.77327 0.0
C1099 C 0.63636 0.20133 0.79851 0.0
C1100 C 0.6552 0.226 0.8067 0.0
C1101 C 0.60004 0.1558 0.78205 0.0
C1102 C 0.59494 0.17219 0.79829 0.0
C1103 C 0.61322 0.19455 0.80709 0.0
C1104 C 0.57076 0.16743 0.80311 0.0
C1105 C 0.58127 0.13115 0.7738 0.0
C1106 C 0.55613 0.16194 0.77188 0.0
C1107 C 0.53454 0.16059 0.77496 0.0
C1108 C 0.52715 0.16489 0.80933 0.0
C1109 C 0.54154 0.16974 0.84088 0.0
C1110 C 0.56319 0.17104 0.83777 0.0
H1111 H 0.58836 0.11912 0.77407 0.0
H1112 H 0.56687 0.12494 0.79431 0.0
H1113 H 0.57403 0.13037 0.74554 0.0
H1114 H 0.56187 0.15982 0.74463 0.0
H1115 H 0.52421 0.1574 0.74987 0.0
H1116 H 0.45627 0.72948 0.18452 0.0
H1117 H 0.42797 0.68887 0.1977 0.0
H1118 H 0.47965 0.68258 0.26182 0.0
H1119 H 0.50813 0.72324 0.24866 0.0
H1120 H 0.42929 0.64819 0.18258 0.0
H1121 H 0.4255 0.66129 0.33525 0.0
H1122 H 0.43867 0.68523 0.30288 0.0
H1123 H 0.45404 0.67062 0.31704 0.0
C1124 C 0.46174 0.71942 0.20102 0.0
C1125 C 0.48444 0.72967 0.21574 0.0
C1126 C 0.4455 0.69624 0.2087 0.0
C1127 C 0.45161 0.68286 0.23128 0.0
C1128 C 0.47443 0.69277 0.24507 0.0
H1129 H 0.36415 0.53886 0.30641 0.0
H1130 H 0.39762 0.57766 0.29468 0.0
C1131 C 0.49068 0.71599 0.23748 0.0
C1132 C 0.43393 0.65859 0.24036 0.0
H1133 H 0.40282 0.62295 0.31232 0.0
C1134 C 0.42356 0.64264 0.21095 0.0
C1135 C 0.42658 0.65141 0.27745 0.0
C1136 C 0.4366 0.66803 0.31001 0.0
C1137 C 0.40583 0.61974 0.21757 0.0
C1138 C 0.39808 0.61274 0.2545 0.0
C1139 C 0.40885 0.62845 0.28406 0.0
C1140 C 0.37792 0.58956 0.26263 0.0
C1141 C 0.39547 0.6032 0.18498 0.0
C1142 C 0.35579 0.5837 0.24915 0.0
C1143 C 0.33674 0.56169 0.25578 0.0
C1144 C 0.33943 0.54511 0.2762 0.0
C1145 C 0.36158 0.55121 0.29036 0.0
C1146 C 0.38066 0.57334 0.2838 0.0
H1147 H 0.40719 0.60921 0.16039 0.0
H1148 H 0.39179 0.58548 0.19262 0.0
H1149 H 0.37879 0.60206 0.17672 0.0
H1150 H 0.35329 0.59612 0.23318 0.0
H1151 H 0.32001 0.55747 0.24402 0.0
H1152 H 0.76086 0.3235 0.74976 0.0
H1153 H 0.75586 0.35717 0.74182 0.0
H1154 H 0.82379 0.40149 0.78986 0.0
H1155 H 0.82893 0.36764 0.79828 0.0
H1156 H 0.75718 0.38826 0.79725 0.0
H1157 H 0.82558 0.43285 0.68921 0.0
H1158 H 0.81424 0.40269 0.70118 0.0
H1159 H 0.83436 0.42521 0.73194 0.0
C1160 C 0.77465 0.34033 0.75915 0.0
C1161 C 0.79525 0.34287 0.7749 0.0
C1162 C 0.77182 0.35958 0.75434 0.0
C1163 C 0.78954 0.3818 0.76493 0.0
C1164 C 0.81007 0.3845 0.78096 0.0
H1165 H 0.78527 0.51105 0.73833 0.0
H1166 H 0.79828 0.48347 0.75442 0.0
C1167 C 0.81296 0.36518 0.78579 0.0
C1168 C 0.78607 0.40191 0.75919 0.0
H1169 H 0.80374 0.45054 0.70614 0.0
C1170 C 0.76748 0.40199 0.77758 0.0
C1171 C 0.79964 0.41981 0.73362 0.0
C1172 C 0.8195 0.42021 0.71257 0.0
C1173 C 0.76168 0.41921 0.77038 0.0
C1174 C 0.77463 0.43656 0.74372 0.0
C1175 C 0.79382 0.43708 0.72641 0.0
C1176 C 0.7676 0.45349 0.73211 0.0
C1177 C 0.74158 0.41857 0.79105 0.0
C1178 C 0.74637 0.44577 0.71341 0.0
C1179 C 0.73892 0.46141 0.70422 0.0
C1180 C 0.75258 0.48508 0.71359 0.0
C1181 C 0.77424 0.49288 0.7312 0.0
C1182 C 0.78174 0.47721 0.74026 0.0
H1183 H 0.73734 0.40801 0.81688 0.0
H1184 H 0.74548 0.4364 0.7986 0.0
H1185 H 0.72592 0.41066 0.77278 0.0
H1186 H 0.73537 0.42754 0.7065 0.0
H1187 H 0.72207 0.45478 0.69101 0.0
H1188 H 0.28213 0.76739 0.19128 0.0
H1189 H 0.32347 0.78299 0.20591 0.0
H1190 H 0.30849 0.78007 0.3234 0.0
H1191 H 0.26718 0.76427 0.3091 0.0
H1192 H 0.35522 0.82513 0.25579 0.0
H1193 H 0.34069 0.73906 0.30368 0.0
H1194 H 0.32045 0.74165 0.273 0.0
H1195 H 0.32185 0.74908 0.32144 0.0
C1196 C 0.28768 0.77017 0.22019 0.0
C1197 C 0.27139 0.76457 0.24899 0.0
C1198 C 0.31126 0.77917 0.22849 0.0
C1199 C 0.31889 0.7825 0.2657 0.0
C1200 C 0.30285 0.77753 0.29451 0.0
H1201 H 0.45525 0.80864 0.34454 0.0
H1202 H 0.41541 0.8021 0.3445 0.0
C1203 C 0.27929 0.76868 0.28625 0.0
C1204 C 0.3435 0.79021 0.27431 0.0
H1205 H 0.37918 0.77014 0.30375 0.0
C1206 C 0.36052 0.81321 0.26654 0.0
C1207 C 0.35021 0.77462 0.28869 0.0
C1208 C 0.33245 0.74966 0.29712 0.0
C1209 C 0.38425 0.82099 0.27222 0.0
C1210 C 0.39108 0.80511 0.28503 0.0
C1211 C 0.37394 0.7823 0.29396 0.0
C1212 C 0.41583 0.81114 0.28637 0.0
C1213 C 0.40175 0.84612 0.26444 0.0
C1214 C 0.42923 0.8183 0.25375 0.0
C1215 C 0.45188 0.82206 0.25373 0.0
C1216 C 0.4616 0.81851 0.28626 0.0
C1217 C 0.44824 0.81151 0.31906 0.0
C1218 C 0.42553 0.80784 0.31909 0.0
H1219 H 0.39387 0.85735 0.26783 0.0
H1220 H 0.41712 0.85264 0.28321 0.0
H1221 H 0.40776 0.84778 0.23515 0.0
H1222 H 0.42189 0.8202 0.22786 0.0
H1223 H 0.46142 0.82683 0.22773 0.0
H1224 H 0.6438 0.45206 0.83402 0.0
H1225 H 0.61176 0.41181 0.82815 0.0
H1226 H 0.59904 0.42537 0.71544 0.0
H1227 H 0.63092 0.46532 0.72083 0.0
H1228 H 0.55793 0.39773 0.75629 0.0
H1229 H 0.62033 0.365 0.76427 0.0
H1230 H 0.62117 0.38252 0.8032 0.0
H1231 H 0.62966 0.39535 0.75772 0.0
C1232 C 0.63404 0.4465 0.80811 0.0
C1233 C 0.63999 0.46192 0.77789 0.0
C1234 C 0.61576 0.42353 0.80481 0.0
C1235 C 0.60328 0.41557 0.77116 0.0
C1236 C 0.60844 0.43119 0.74165 0.0
H1237 H 0.53038 0.27444 0.68858 0.0
H1238 H 0.55476 0.31658 0.6956 0.0
C1239 C 0.62663 0.4541 0.74491 0.0
C1240 C 0.5859 0.39068 0.76552 0.0
H1241 H 0.58052 0.33694 0.75917 0.0
C1242 C 0.56279 0.38438 0.75705 0.0
C1243 C 0.59245 0.37343 0.76585 0.0
C1244 C 0.61727 0.37934 0.77292 0.0
C1245 C 0.54599 0.36119 0.74909 0.0
C1246 C 0.55248 0.3439 0.75005 0.0
C1247 C 0.5756 0.35025 0.75846 0.0
C1248 C 0.53571 0.31901 0.74267 0.0
C1249 C 0.52161 0.35547 0.73891 0.0
C1250 C 0.51659 0.30649 0.76621 0.0
C1251 C 0.50262 0.28241 0.76225 0.0
C1252 C 0.5077 0.27032 0.73495 0.0
C1253 C 0.5262 0.28313 0.71024 0.0
C1254 C 0.54011 0.30721 0.71415 0.0
H1255 H 0.52103 0.37116 0.72978 0.0
H1256 H 0.51434 0.34224 0.71627 0.0
H1257 H 0.51025 0.34826 0.76371 0.0
H1258 H 0.51311 0.31517 0.78882 0.0
H1259 H 0.48868 0.27321 0.782 0.0
H1260 H 0.36105 0.83191 0.79028 0.0
H1261 H 0.39394 0.82546 0.78941 0.0
H1262 H 0.37367 0.79435 0.6801 0.0
H1263 H 0.3408 0.80151 0.67994 0.0
H1264 H 0.37885 0.76647 0.73636 0.0
H1265 H 0.45594 0.85514 0.73074 0.0
H1266 H 0.43459 0.85205 0.76447 0.0
H1267 H 0.42729 0.84872 0.71563 0.0
C1268 C 0.36392 0.8245 0.76532 0.0
C1269 C 0.34823 0.8174 0.73501 0.0
C1270 C 0.38277 0.82073 0.76501 0.0
C1271 C 0.38639 0.80971 0.73454 0.0
C1272 C 0.37122 0.80306 0.70378 0.0
H1273 H 0.49431 0.77092 0.72589 0.0
H1274 H 0.46841 0.78563 0.70901 0.0
C1275 C 0.35238 0.80703 0.70387 0.0
C1276 C 0.40445 0.80295 0.7371 0.0
H1277 H 0.46252 0.82484 0.75323 0.0
C1278 C 0.39719 0.7792 0.73939 0.0
C1279 C 0.42834 0.81964 0.74111 0.0
C1280 C 0.43709 0.84532 0.73753 0.0
C1281 C 0.41311 0.77172 0.74731 0.0
C1282 C 0.43677 0.78843 0.75309 0.0
C1283 C 0.44426 0.81214 0.74917 0.0
C1284 C 0.45378 0.78141 0.76415 0.0
C1285 C 0.40454 0.74604 0.75038 0.0
C1286 C 0.45438 0.77466 0.80098 0.0
C1287 C 0.46938 0.76651 0.81099 0.0
C1288 C 0.48397 0.76483 0.78423 0.0
C1289 C 0.48367 0.77224 0.74748 0.0
C1290 C 0.46876 0.78053 0.73761 0.0
H1291 H 0.38631 0.73527 0.74034 0.0
H1292 H 0.4159 0.74145 0.73406 0.0
H1293 H 0.40536 0.74163 0.78001 0.0
H1294 H 0.44295 0.77538 0.82184 0.0
H1295 H 0.46937 0.76129 0.83958 0.0
H1296 H 0.5213 0.37437 0.25884 0.0
H1297 H 0.5602 0.40873 0.26335 0.0
H1298 H 0.59097 0.3658 0.24414 0.0
H1299 H 0.55232 0.33141 0.24023 0.0
H1300 H 0.59313 0.41371 0.31758 0.0
H1301 H 0.6281 0.4215 0.17479 0.0
H1302 H 0.59735 0.40487 0.18491 0.0
H1303 H 0.61579 0.39268 0.19351 0.0
C1304 C 0.53635 0.3723 0.25509 0.0
C1305 C 0.53369 0.35012 0.24925 0.0
C1306 C 0.55853 0.39195 0.25758 0.0
C1307 C 0.57842 0.38981 0.25382 0.0
C1308 C 0.57583 0.36789 0.2464 0.0
H1309 H 0.71556 0.46108 0.34173 0.0
H1310 H 0.67352 0.43795 0.33235 0.0
C1311 C 0.55369 0.34823 0.24403 0.0
C1312 C 0.60185 0.40997 0.26107 0.0
H1313 H 0.65609 0.44114 0.22358 0.0
C1314 C 0.60684 0.41999 0.29688 0.0
C1315 C 0.6196 0.41827 0.23392 0.0
C1316 C 0.61493 0.40894 0.1945 0.0
C1317 C 0.62945 0.43734 0.3068 0.0
C1318 C 0.64749 0.44461 0.28032 0.0
C1319 C 0.64224 0.43541 0.24396 0.0
C1320 C 0.67221 0.46055 0.29015 0.0
C1321 C 0.63388 0.44751 0.34565 0.0
C1322 C 0.68539 0.48112 0.27 0.0
C1323 C 0.70948 0.49429 0.27508 0.0
C1324 C 0.72092 0.48694 0.30007 0.0
C1325 C 0.70741 0.46706 0.32185 0.0
C1326 C 0.68331 0.45393 0.3168 0.0
H1327 H 0.61772 0.44555 0.3583 0.0
H1328 H 0.64016 0.43817 0.36362 0.0
H1329 H 0.64735 0.46623 0.34555 0.0
H1330 H 0.67714 0.4865 0.24925 0.0
H1331 H 0.71914 0.50942 0.25774 0.0
H1332 H 0.23591 0.55369 0.75428 0.0
H1333 H 0.24377 0.59369 0.7597 0.0
H1334 H 0.17179 0.57064 0.73478 0.0
H1335 H 0.16374 0.53049 0.72961 0.0
H1336 H 0.23851 0.62413 0.71354 0.0
H1337 H 0.18089 0.60097 0.83724 0.0
H1338 H 0.18963 0.5815 0.81757 0.0
H1339 H 0.16681 0.58454 0.7959 0.0
C1340 C 0.22186 0.55719 0.74908 0.0
C1341 C 0.19915 0.5389 0.7418 0.0
C1342 C 0.22635 0.58005 0.75241 0.0
C1343 C 0.20826 0.58506 0.74851 0.0
C1344 C 0.18589 0.56707 0.73885 0.0
H1345 H 0.23112 0.72678 0.74556 0.0
H1346 H 0.21998 0.68687 0.72918 0.0
C1347 C 0.18134 0.54418 0.73574 0.0
C1348 C 0.21263 0.60885 0.75656 0.0
H1349 H 0.19771 0.63962 0.81575 0.0
C1350 C 0.22953 0.62754 0.73577 0.0
C1351 C 0.20116 0.61327 0.78602 0.0
C1352 C 0.18376 0.59407 0.81074 0.0
C1353 C 0.23529 0.65056 0.7436 0.0
C1354 C 0.22348 0.65492 0.77259 0.0
C1355 C 0.20657 0.63621 0.79334 0.0
C1356 C 0.22911 0.67884 0.78293 0.0
C1357 C 0.25445 0.67003 0.72156 0.0
C1358 C 0.23705 0.68732 0.81909 0.0
C1359 C 0.24305 0.71004 0.82883 0.0
C1360 C 0.24119 0.72478 0.80261 0.0
C1361 C 0.23261 0.71597 0.76666 0.0
C1362 C 0.22653 0.6932 0.75701 0.0
H1363 H 0.26559 0.66433 0.70721 0.0
H1364 H 0.24661 0.67598 0.69993 0.0
H1365 H 0.26565 0.68507 0.73988 0.0
H1366 H 0.23896 0.67645 0.83967 0.0
H1367 H 0.24925 0.71609 0.85687 0.0
H1368 H 0.51685 0.22595 0.35864 0.0
H1369 H 0.54691 0.21675 0.3404 0.0
H1370 H 0.54833 0.24305 0.22988 0.0
H1371 H 0.5182 0.25207 0.24783 0.0
H1372 H 0.54868 0.20216 0.22797 0.0
H1373 H 0.61538 0.26367 0.32736 0.0
H1374 H 0.58876 0.24323 0.34975 0.0
H1375 H 0.58889 0.26405 0.31755 0.0
C1376 C 0.52368 0.22988 0.33055 0.0
C1377 C 0.5152 0.23978 0.30474 0.0
C1378 C 0.54086 0.22466 0.32016 0.0
C1379 C 0.55014 0.22958 0.28396 0.0
C1380 C 0.54145 0.23914 0.25797 0.0
H1381 H 0.68015 0.2339 0.2332 0.0
H1382 H 0.64904 0.24324 0.23667 0.0
C1383 C 0.52416 0.2442 0.26824 0.0
C1384 C 0.56891 0.2248 0.27316 0.0
H1385 H 0.62357 0.23664 0.29715 0.0
C1386 C 0.56513 0.2098 0.24291 0.0
C1387 C 0.59052 0.23514 0.29221 0.0
C1388 C 0.59628 0.25261 0.32327 0.0
C1389 C 0.58217 0.20438 0.23185 0.0
C1390 C 0.60334 0.21384 0.2521 0.0
C1391 C 0.60729 0.22927 0.28175 0.0
C1392 C 0.62149 0.20763 0.24396 0.0
C1393 C 0.57742 0.1888 0.19836 0.0
C1394 C 0.61631 0.18441 0.24585 0.0
C1395 C 0.63404 0.17894 0.24315 0.0
C1396 C 0.6574 0.19662 0.23915 0.0
C1397 C 0.66238 0.21977 0.2357 0.0
C1398 C 0.64461 0.22519 0.23806 0.0
H1399 H 0.56445 0.18932 0.17928 0.0
H1400 H 0.59359 0.19384 0.18245 0.0
H1401 H 0.57017 0.17059 0.20789 0.0
H1402 H 0.59869 0.17058 0.25108 0.0
H1403 H 0.62953 0.16091 0.24551 0.0
H1404 H 0.44368 0.63876 0.69969 0.0
H1405 H 0.4061 0.60384 0.71163 0.0
H1406 H 0.43334 0.59202 0.81338 0.0
H1407 H 0.47082 0.6271 0.8022 0.0
H1408 H 0.39761 0.54976 0.75011 0.0
H1409 H 0.37277 0.60932 0.82004 0.0
H1410 H 0.38989 0.61853 0.77796 0.0
H1411 H 0.4025 0.61532 0.8202 0.0
C1412 C 0.4418 0.62851 0.72428 0.0
C1413 C 0.46016 0.6358 0.75015 0.0
C1414 C 0.42041 0.60853 0.73089 0.0
C1415 C 0.41711 0.59552 0.76334 0.0
C1416 C 0.43575 0.60184 0.78804 0.0
H1417 H 0.28504 0.50546 0.87148 0.0
H1418 H 0.32667 0.53027 0.85926 0.0
C1419 C 0.45715 0.62184 0.78149 0.0
C1420 C 0.39349 0.57726 0.77383 0.0
H1421 H 0.34414 0.56992 0.8155 0.0
C1422 C 0.38588 0.55403 0.76453 0.0
C1423 C 0.37848 0.58306 0.79289 0.0
C1424 C 0.38617 0.60787 0.80357 0.0
C1425 C 0.36325 0.53633 0.77344 0.0
C1426 C 0.348 0.54223 0.79171 0.0
C1427 C 0.3559 0.56546 0.80159 0.0
C1428 C 0.32341 0.5249 0.79946 0.0
C1429 C 0.35587 0.51151 0.76346 0.0
C1430 C 0.30786 0.51358 0.76992 0.0
C1431 C 0.28409 0.49954 0.77678 0.0
C1432 C 0.27538 0.49668 0.81335 0.0
C1433 C 0.29114 0.50751 0.843 0.0
C1434 C 0.31493 0.52156 0.8361 0.0
H1435 H 0.37114 0.50912 0.75925 0.0
H1436 H 0.34464 0.49938 0.7855 0.0
H1437 H 0.34574 0.50678 0.73703 0.0
H1438 H 0.31397 0.51639 0.74136 0.0
H1439 H 0.27247 0.49186 0.75318 0.0
H1440 H 0.7714 0.27046 0.2342 0.0
H1441 H 0.78495 0.31027 0.21437 0.0
H1442 H 0.78862 0.33146 0.32914 0.0
H1443 H 0.77556 0.29167 0.34951 0.0
H1444 H 0.76218 0.34378 0.27843 0.0
H1445 H 0.85075 0.36976 0.22573 0.0
H1446 H 0.82732 0.34219 0.20978 0.0
H1447 H 0.83546 0.34613 0.25819 0.0
C1448 C 0.77559 0.28359 0.25542 0.0
C1449 C 0.77243 0.27777 0.2936 0.0
C1450 C 0.78329 0.30637 0.24393 0.0
C1451 C 0.78798 0.32379 0.27031 0.0
C1452 C 0.78514 0.31821 0.30838 0.0
H1453 H 0.83295 0.46797 0.27648 0.0
H1454 H 0.82703 0.42901 0.28428 0.0
C1455 C 0.77755 0.29544 0.31995 0.0
C1456 C 0.79438 0.3475 0.25813 0.0
H1457 H 0.83748 0.39657 0.21705 0.0
C1458 C 0.77859 0.3553 0.2649 0.0
C1459 C 0.81578 0.36237 0.24037 0.0
C1460 C 0.83345 0.35486 0.23322 0.0
C1461 C 0.78373 0.37771 0.25458 0.0
C1462 C 0.80522 0.39266 0.23727 0.0
C1463 C 0.82094 0.38487 0.23006 0.0
C1464 C 0.81212 0.41706 0.22947 0.0
C1465 C 0.76641 0.38554 0.26276 0.0
C1466 C 0.80624 0.42332 0.19552 0.0
C1467 C 0.80986 0.44581 0.19064 0.0
C1468 C 0.81931 0.46228 0.21977 0.0
C1469 C 0.82611 0.45605 0.25308 0.0
C1470 C 0.8226 0.43369 0.25779 0.0
H1471 H 0.74991 0.37136 0.27449 0.0
H1472 H 0.7741 0.4002 0.28302 0.0
H1473 H 0.76239 0.39198 0.2368 0.0
H1474 H 0.79806 0.41057 0.17342 0.0
H1475 H 0.80461 0.45006 0.16455 0.0
loop_
_geom_bond_atom_site_label_1
_geom_bond_atom_site_label_2
_geom_bond_distance
_geom_bond_site_symmetry_2
_ccdc_geom_bond_type
C0 C1 1.351 . S
C0 N3 1.368 . S
C0 H5 0.931 . S
C1 C0 1.351 . S
C1 N2 1.373 . S
C1 H29 0.930 . S
N2 C1 1.373 . S
N2 C4 1.340 . S
N3 C0 1.368 . S
N3 C4 1.321 . S
N3 Co6 2.135 . S
C4 N2 1.340 . S
C4 N3 1.321 . S
C4 H28 0.930 . S
H5 C0 0.931 . S
Co6 N3 2.135 . S
Co6 N9 2.121 . S
Co6 O14 2.055 . S
Co6 O17 2.039 . S
Co6 N20 2.140 . S
C7 O8 1.227 . S
C7 O17 1.265 . S
O8 C7 1.227 . S
N9 Co6 2.121 . S
N9 C11 1.375 . S
N9 C12 1.313 . S
C10 C11 1.338 . S
C10 N13 1.377 . S
C10 H30 0.930 . S
C11 N9 1.375 . S
C11 C10 1.338 . S
C11 H15 0.931 . S
C12 N9 1.313 . S
C12 N13 1.344 . S
C12 H16 0.930 . S
N13 C10 1.377 . S
N13 C12 1.344 . S
O14 Co6 2.055 . S
O14 C18 1.253 . S
H15 C11 0.931 . S
H16 C12 0.930 . S
O17 Co6 2.039 . S
O17 C7 1.265 . S
C18 O14 1.253 . S
C18 O19 1.227 . S
O19 C18 1.227 . S
N20 Co6 2.140 . S
N20 C23 1.346 . S
N20 C24 1.345 . S
C21 C22 1.387 . S
C21 C25 1.391 . S
C22 C21 1.387 . S
C22 C23 1.369 . S
C22 H31 0.929 . S
C23 N20 1.346 . S
C23 C22 1.369 . S
C23 H26 0.928 . S
C24 N20 1.345 . S
C24 C25 1.371 . S
C24 H27 0.931 . S
C25 C21 1.391 . S
C25 C24 1.371 . S
C25 H32 0.930 . S
H26 C23 0.928 . S
H27 C24 0.931 . S
H28 C4 0.930 . S
H29 C1 0.930 . S
H30 C10 0.930 . S
H31 C22 0.929 . S
H32 C25 0.930 . S
C33 C34 1.351 . S
C33 N36 1.368 . S
C33 H38 0.931 . S
C34 C33 1.351 . S
C34 N35 1.373 . S
C34 H62 0.930 . S
N35 C34 1.373 . S
N35 C37 1.340 . S
N36 C33 1.368 . S
N36 C37 1.321 . S
N36 Co39 2.135 . S
C37 N35 1.340 . S
C37 N36 1.321 . S
C37 H61 0.930 . S
H38 C33 0.931 . S
Co39 N36 2.135 . S
Co39 N42 2.121 . S
Co39 O47 2.055 . S
Co39 O50 2.039 . S
Co39 N53 2.140 . S
C40 O41 1.227 . S
C40 O50 1.265 . S
O41 C40 1.227 . S
N42 Co39 2.121 . S
N42 C44 1.375 . S
N42 C45 1.313 . S
C43 C44 1.338 . S
C43 N46 1.377 . S
C43 H63 0.930 . S
C44 N42 1.375 . S
C44 C43 1.338 . S
C44 H48 0.931 . S
C45 N42 1.313 . S
C45 N46 1.344 . S
C45 H49 0.930 . S
N46 C43 1.377 . S
N46 C45 1.344 . S
O47 Co39 2.055 . S
O47 C51 1.253 . S
H48 C44 0.931 . S
H49 C45 0.930 . S
O50 Co39 2.039 . S
O50 C40 1.265 . S
C51 O47 1.253 . S
C51 O52 1.227 . S
O52 C51 1.227 . S
N53 Co39 2.140 . S
N53 C56 1.346 . S
N53 C57 1.345 . S
C54 C55 1.387 . S
C54 C58 1.391 . S
C55 C54 1.387 . S
C55 C56 1.369 . S
C55 H64 0.929 . S
C56 N53 1.346 . S
C56 C55 1.369 . S
C56 H59 0.928 . S
C57 N53 1.345 . S
C57 C58 1.371 . S
C57 H60 0.931 . S
C58 C54 1.391 . S
C58 C57 1.371 . S
C58 H65 0.930 . S
H59 C56 0.928 . S
H60 C57 0.931 . S
H61 C37 0.930 . S
H62 C34 0.930 . S
H63 C43 0.930 . S
H64 C55 0.929 . S
H65 C58 0.930 . S
C66 C67 1.351 . S
C66 N69 1.368 . S
C66 H71 0.931 . S
C67 C66 1.351 . S
C67 N68 1.373 . S
C67 H95 0.930 . S
N68 C67 1.373 . S
N68 C70 1.340 . S
N69 C66 1.368 . S
N69 C70 1.321 . S
N69 Co72 2.135 . S
C70 N68 1.340 . S
C70 N69 1.321 . S
C70 H94 0.930 . S
H71 C66 0.931 . S
Co72 N69 2.135 . S
Co72 N75 2.121 . S
Co72 O80 2.055 . S
Co72 O83 2.039 . S
Co72 N86 2.140 . S
C73 O74 1.227 . S
C73 O83 1.265 . S
O74 C73 1.227 . S
N75 Co72 2.121 . S
N75 C77 1.375 . S
N75 C78 1.313 . S
C76 C77 1.338 . S
C76 N79 1.377 . S
C76 H96 0.930 . S
C77 N75 1.375 . S
C77 C76 1.338 . S
C77 H81 0.931 . S
C78 N75 1.313 . S
C78 N79 1.344 . S
C78 H82 0.930 . S
N79 C76 1.377 . S
N79 C78 1.344 . S
O80 Co72 2.055 . S
O80 C84 1.253 . S
H81 C77 0.931 . S
H82 C78 0.930 . S
O83 Co72 2.039 . S
O83 C73 1.265 . S
C84 O80 1.253 . S
C84 O85 1.227 . S
O85 C84 1.227 . S
N86 Co72 2.140 . S
N86 C89 1.346 . S
N86 C90 1.345 . S
C87 C88 1.387 . S
C87 C91 1.391 . S
C88 C87 1.387 . S
C88 C89 1.369 . S
C88 H97 0.929 . S
C89 N86 1.346 . S
C89 C88 1.369 . S
C89 H92 0.928 . S
C90 N86 1.345 . S
C90 C91 1.371 . S
C90 H93 0.931 . S
C91 C87 1.391 . S
C91 C90 1.371 . S
C91 H98 0.930 . S
H92 C89 0.928 . S
H93 C90 0.931 . S
H94 C70 0.930 . S
H95 C67 0.930 . S
H96 C76 0.930 . S
H97 C88 0.929 . S
H98 C91 0.930 . S
C99 C100 1.351 . S
C99 N102 1.368 . S
C99 H104 0.931 . S
C100 C99 1.351 . S
C100 N101 1.373 . S
C100 H128 0.930 . S
N101 C100 1.373 . S
N101 C103 1.340 . S
N102 C99 1.368 . S
N102 C103 1.321 . S
N102 Co105 2.135 . S
C103 N101 1.340 . S
C103 N102 1.321 . S
C103 H127 0.930 . S
H104 C99 0.931 . S
Co105 N102 2.135 . S
Co105 N108 2.121 . S
Co105 O113 2.055 . S
Co105 O116 2.039 . S
Co105 N119 2.140 . S
C106 O107 1.227 . S
C106 O116 1.265 . S
O107 C106 1.227 . S
N108 Co105 2.121 . S
N108 C110 1.375 . S
N108 C111 1.313 . S
C109 C110 1.338 . S
C109 N112 1.377 . S
C109 H129 0.930 . S
C110 N108 1.375 . S
C110 C109 1.338 . S
C110 H114 0.931 . S
C111 N108 1.313 . S
C111 N112 1.344 . S
C111 H115 0.930 . S
N112 C109 1.377 . S
N112 C111 1.344 . S
O113 Co105 2.055 . S
O113 C117 1.253 . S
H114 C110 0.931 . S
H115 C111 0.930 . S
O116 Co105 2.039 . S
O116 C106 1.265 . S
C117 O113 1.253 . S
C117 O118 1.227 . S
O118 C117 1.227 . S
N119 Co105 2.140 . S
N119 C122 1.346 . S
N119 C123 1.345 . S
C120 C121 1.387 . S
C120 C124 1.391 . S
C121 C120 1.387 . S
C121 C122 1.369 . S
C121 H130 0.929 . S
C122 N119 1.346 . S
C122 C121 1.369 . S
C122 H125 0.928 . S
C123 N119 1.345 . S
C123 C124 1.371 . S
C123 H126 0.931 . S
C124 C120 1.391 . S
C124 C123 1.371 . S
C124 H131 0.930 . S
H125 C122 0.928 . S
H126 C123 0.931 . S
H127 C103 0.930 . S
H128 C100 0.930 . S
H129 C109 0.930 . S
H130 C121 0.929 . S
H131 C124 0.930 . S
C132 C133 1.351 . S
C132 N135 1.368 . S
C132 H137 0.931 . S
C133 C132 1.351 . S
C133 N134 1.373 . S
C133 H161 0.930 . S
N134 C133 1.373 . S
N134 C136 1.340 . S
N135 C132 1.368 . S
N135 C136 1.321 . S
N135 Co138 2.135 . S
C136 N134 1.340 . S
C136 N135 1.321 . S
C136 H160 0.930 . S
H137 C132 0.931 . S
Co138 N135 2.135 . S
Co138 N141 2.121 . S
Co138 O146 2.055 . S
Co138 O149 2.039 . S
Co138 N152 2.140 . S
C139 O140 1.227 . S
C139 O149 1.265 . S
O140 C139 1.227 . S
N141 Co138 2.121 . S
N141 C143 1.375 . S
N141 C144 1.313 . S
C142 C143 1.338 . S
C142 N145 1.377 . S
C142 H162 0.930 . S
C143 N141 1.375 . S
C143 C142 1.338 . S
C143 H147 0.931 . S
C144 N141 1.313 . S
C144 N145 1.344 . S
C144 H148 0.930 . S
N145 C142 1.377 . S
N145 C144 1.344 . S
O146 Co138 2.055 . S
O146 C150 1.253 . S
H147 C143 0.931 . S
H148 C144 0.930 . S
O149 Co138 2.039 . S
O149 C139 1.265 . S
C150 O146 1.253 . S
C150 O151 1.227 . S
O151 C150 1.227 . S
N152 Co138 2.140 . S
N152 C155 1.346 . S
N152 C156 1.345 . S
C153 C154 1.387 . S
C153 C157 1.391 . S
C154 C153 1.387 . S
C154 C155 1.369 . S
C154 H163 0.929 . S
C155 N152 1.346 . S
C155 C154 1.369 . S
C155 H158 0.928 . S
C156 N152 1.345 . S
C156 C157 1.371 . S
C156 H159 0.931 . S
C157 C153 1.391 . S
C157 C156 1.371 . S
C157 H164 0.930 . S
H158 C155 0.928 . S
H159 C156 0.931 . S
H160 C136 0.930 . S
H161 C133 0.930 . S
H162 C142 0.930 . S
H163 C154 0.929 . S
H164 C157 0.930 . S
C165 C166 1.351 . S
C165 N168 1.368 . S
C165 H170 0.931 . S
C166 C165 1.351 . S
C166 N167 1.373 . S
C166 H194 0.930 . S
N167 C166 1.373 . S
N167 C169 1.340 . S
N168 C165 1.368 . S
N168 C169 1.321 . S
N168 Co171 2.135 . S
C169 N167 1.340 . S
C169 N168 1.321 . S
C169 H193 0.930 . S
H170 C165 0.931 . S
Co171 N168 2.135 . S
Co171 N174 2.121 . S
Co171 O179 2.055 . S
Co171 O182 2.039 . S
Co171 N185 2.140 . S
C172 O173 1.227 . S
C172 O182 1.265 . S
O173 C172 1.227 . S
N174 Co171 2.121 . S
N174 C176 1.375 . S
N174 C177 1.313 . S
C175 C176 1.338 . S
C175 N178 1.377 . S
C175 H195 0.930 . S
C176 N174 1.375 . S
C176 C175 1.338 . S
C176 H180 0.931 . S
C177 N174 1.313 . S
C177 N178 1.344 . S
C177 H181 0.930 . S
N178 C175 1.377 . S
N178 C177 1.344 . S
O179 Co171 2.055 . S
O179 C183 1.253 . S
H180 C176 0.931 . S
H181 C177 0.930 . S
O182 Co171 2.039 . S
O182 C172 1.265 . S
C183 O179 1.253 . S
C183 O184 1.227 . S
O184 C183 1.227 . S
N185 Co171 2.140 . S
N185 C188 1.346 . S
N185 C189 1.345 . S
C186 C187 1.387 . S
C186 C190 1.391 . S
C187 C186 1.387 . S
C187 C188 1.369 . S
C187 H196 0.929 . S
C188 N185 1.346 . S
C188 C187 1.369 . S
C188 H191 0.928 . S
C189 N185 1.345 . S
C189 C190 1.371 . S
C189 H192 0.931 . S
C190 C186 1.391 . S
C190 C189 1.371 . S
C190 H197 0.930 . S
H191 C188 0.928 . S
H192 C189 0.931 . S
H193 C169 0.930 . S
H194 C166 0.930 . S
H195 C175 0.930 . S
H196 C187 0.929 . S
H197 C190 0.930 . S
C198 C199 1.351 . S
C198 N201 1.368 . S
C198 H203 0.931 . S
C199 C198 1.351 . S
C199 N200 1.373 . S
C199 H227 0.930 . S
N200 C199 1.373 . S
N200 C202 1.340 . S
N201 C198 1.368 . S
N201 C202 1.321 . S
N201 Co204 2.135 . S
C202 N200 1.340 . S
C202 N201 1.321 . S
C202 H226 0.930 . S
H203 C198 0.931 . S
Co204 N201 2.135 . S
Co204 N207 2.121 . S
Co204 O212 2.055 . S
Co204 O215 2.039 . S
Co204 N218 2.140 . S
C205 O206 1.227 . S
C205 O215 1.265 . S
O206 C205 1.227 . S
N207 Co204 2.121 . S
N207 C209 1.375 . S
N207 C210 1.313 . S
C208 C209 1.338 . S
C208 N211 1.377 . S
C208 H228 0.930 . S
C209 N207 1.375 . S
C209 C208 1.338 . S
C209 H213 0.931 . S
C210 N207 1.313 . S
C210 N211 1.344 . S
C210 H214 0.930 . S
N211 C208 1.377 . S
N211 C210 1.344 . S
O212 Co204 2.055 . S
O212 C216 1.253 . S
H213 C209 0.931 . S
H214 C210 0.930 . S
O215 Co204 2.039 . S
O215 C205 1.265 . S
C216 O212 1.253 . S
C216 O217 1.227 . S
O217 C216 1.227 . S
N218 Co204 2.140 . S
N218 C221 1.346 . S
N218 C222 1.345 . S
C219 C220 1.387 . S
C219 C223 1.391 . S
C220 C219 1.387 . S
C220 C221 1.369 . S
C220 H229 0.929 . S
C221 N218 1.346 . S
C221 C220 1.369 . S
C221 H224 0.928 . S
C222 N218 1.345 . S
C222 C223 1.371 . S
C222 H225 0.931 . S
C223 C219 1.391 . S
C223 C222 1.371 . S
C223 H230 0.930 . S
H224 C221 0.928 . S
H225 C222 0.931 . S
H226 C202 0.930 . S
H227 C199 0.930 . S
H228 C208 0.930 . S
H229 C220 0.929 . S
H230 C223 0.930 . S
C231 C232 1.351 . S
C231 N234 1.368 . S
C231 H236 0.931 . S
C232 C231 1.351 . S
C232 N233 1.373 . S
C232 H260 0.930 . S
N233 C232 1.373 . S
N233 C235 1.340 . S
N234 C231 1.368 . S
N234 C235 1.321 . S
N234 Co237 2.135 . S
C235 N233 1.340 . S
C235 N234 1.321 . S
C235 H259 0.930 . S
H236 C231 0.931 . S
Co237 N234 2.135 . S
Co237 N240 2.121 . S
Co237 O245 2.055 . S
Co237 O248 2.039 . S
Co237 N251 2.140 . S
C238 O239 1.227 . S
C238 O248 1.265 . S
O239 C238 1.227 . S
N240 Co237 2.121 . S
N240 C242 1.375 . S
N240 C243 1.313 . S
C241 C242 1.338 . S
C241 N244 1.377 . S
C241 H261 0.930 . S
C242 N240 1.375 . S
C242 C241 1.338 . S
C242 H246 0.931 . S
C243 N240 1.313 . S
C243 N244 1.344 . S
C243 H247 0.930 . S
N244 C241 1.377 . S
N244 C243 1.344 . S
O245 Co237 2.055 . S
O245 C249 1.253 . S
H246 C242 0.931 . S
H247 C243 0.930 . S
O248 Co237 2.039 . S
O248 C238 1.265 . S
C249 O245 1.253 . S
C249 O250 1.227 . S
O250 C249 1.227 . S
N251 Co237 2.140 . S
N251 C254 1.346 . S
N251 C255 1.345 . S
C252 C253 1.387 . S
C252 C256 1.391 . S
C253 C252 1.387 . S
C253 C254 1.369 . S
C253 H262 0.929 . S
C254 N251 1.346 . S
C254 C253 1.369 . S
C254 H257 0.928 . S
C255 N251 1.345 . S
C255 C256 1.371 . S
C255 H258 0.931 . S
C256 C252 1.391 . S
C256 C255 1.371 . S
C256 H263 0.930 . S
H257 C254 0.928 . S
H258 C255 0.931 . S
H259 C235 0.930 . S
H260 C232 0.930 . S
H261 C241 0.930 . S
H262 C253 0.929 . S
H263 C256 0.930 . S
C264 C265 1.351 . S
C264 N267 1.368 . S
C264 H269 0.931 . S
C265 C264 1.351 . S
C265 N266 1.373 . S
C265 H293 0.930 . S
N266 C265 1.373 . S
N266 C268 1.340 . S
N267 C264 1.368 . S
N267 C268 1.321 . S
N267 Co270 2.135 . S
C268 N266 1.340 . S
C268 N267 1.321 . S
C268 H292 0.930 . S
H269 C264 0.931 . S
Co270 N267 2.135 . S
Co270 N273 2.121 . S
Co270 O278 2.055 . S
Co270 O281 2.039 . S
Co270 N284 2.140 . S
C271 O272 1.227 . S
C271 O281 1.265 . S
O272 C271 1.227 . S
N273 Co270 2.121 . S
N273 C275 1.375 . S
N273 C276 1.313 . S
C274 C275 1.338 . S
C274 N277 1.377 . S
C274 H294 0.930 . S
C275 N273 1.375 . S
C275 C274 1.338 . S
C275 H279 0.931 . S
C276 N273 1.313 . S
C276 N277 1.344 . S
C276 H280 0.930 . S
N277 C274 1.377 . S
N277 C276 1.344 . S
O278 Co270 2.055 . S
O278 C282 1.253 . S
H279 C275 0.931 . S
H280 C276 0.930 . S
O281 Co270 2.039 . S
O281 C271 1.265 . S
C282 O278 1.253 . S
C282 O283 1.227 . S
O283 C282 1.227 . S
N284 Co270 2.140 . S
N284 C287 1.346 . S
N284 C288 1.345 . S
C285 C286 1.387 . S
C285 C289 1.391 . S
C286 C285 1.387 . S
C286 C287 1.369 . S
C286 H295 0.929 . S
C287 N284 1.346 . S
C287 C286 1.369 . S
C287 H290 0.928 . S
C288 N284 1.345 . S
C288 C289 1.371 . S
C288 H291 0.931 . S
C289 C285 1.391 . S
C289 C288 1.371 . S
C289 H296 0.930 . S
H290 C287 0.928 . S
H291 C288 0.931 . S
H292 C268 0.930 . S
H293 C265 0.930 . S
H294 C274 0.930 . S
H295 C286 0.929 . S
H296 C289 0.930 . S
C297 C298 1.351 . S
C297 N300 1.368 . S
C297 H302 0.931 . S
C298 C297 1.351 . S
C298 N299 1.373 . S
C298 H326 0.930 . S
N299 C298 1.373 . S
N299 C301 1.340 . S
N300 C297 1.368 . S
N300 C301 1.321 . S
N300 Co303 2.135 . S
C301 N299 1.340 . S
C301 N300 1.321 . S
C301 H325 0.930 . S
H302 C297 0.931 . S
Co303 N300 2.135 . S
Co303 N306 2.121 . S
Co303 O311 2.055 . S
Co303 O314 2.039 . S
Co303 N317 2.140 . S
C304 O305 1.227 . S
C304 O314 1.265 . S
O305 C304 1.227 . S
N306 Co303 2.121 . S
N306 C308 1.375 . S
N306 C309 1.313 . S
C307 C308 1.338 . S
C307 N310 1.377 . S
C307 H327 0.930 . S
C308 N306 1.375 . S
C308 C307 1.338 . S
C308 H312 0.931 . S
C309 N306 1.313 . S
C309 N310 1.344 . S
C309 H313 0.930 . S
N310 C307 1.377 . S
N310 C309 1.344 . S
O311 Co303 2.055 . S
O311 C315 1.253 . S
H312 C308 0.931 . S
H313 C309 0.930 . S
O314 Co303 2.039 . S
O314 C304 1.265 . S
C315 O311 1.253 . S
C315 O316 1.227 . S
O316 C315 1.227 . S
N317 Co303 2.140 . S
N317 C320 1.346 . S
N317 C321 1.345 . S
C318 C319 1.387 . S
C318 C322 1.391 . S
C319 C318 1.387 . S
C319 C320 1.369 . S
C319 H328 0.929 . S
C320 N317 1.346 . S
C320 C319 1.369 . S
C320 H323 0.928 . S
C321 N317 1.345 . S
C321 C322 1.371 . S
C321 H324 0.931 . S
C322 C318 1.391 . S
C322 C321 1.371 . S
C322 H329 0.930 . S
H323 C320 0.928 . S
H324 C321 0.931 . S
H325 C301 0.930 . S
H326 C298 0.930 . S
H327 C307 0.930 . S
H328 C319 0.929 . S
H329 C322 0.930 . S
C330 C331 1.351 . S
C330 N333 1.368 . S
C330 H335 0.931 . S
C331 C330 1.351 . S
C331 N332 1.373 . S
C331 H359 0.930 . S
N332 C331 1.373 . S
N332 C334 1.340 . S
N333 C330 1.368 . S
N333 C334 1.321 . S
N333 Co336 2.135 . S
C334 N332 1.340 . S
C334 N333 1.321 . S
C334 H358 0.930 . S
H335 C330 0.931 . S
Co336 N333 2.135 . S
Co336 N339 2.121 . S
Co336 O344 2.055 . S
Co336 O347 2.039 . S
Co336 N350 2.140 . S
C337 O338 1.227 . S
C337 O347 1.265 . S
O338 C337 1.227 . S
N339 Co336 2.121 . S
N339 C341 1.375 . S
N339 C342 1.313 . S
C340 C341 1.338 . S
C340 N343 1.377 . S
C340 H360 0.930 . S
C341 N339 1.375 . S
C341 C340 1.338 . S
C341 H345 0.931 . S
C342 N339 1.313 . S
C342 N343 1.344 . S
C342 H346 0.930 . S
N343 C340 1.377 . S
N343 C342 1.344 . S
O344 Co336 2.055 . S
O344 C348 1.253 . S
H345 C341 0.931 . S
H346 C342 0.930 . S
O347 Co336 2.039 . S
O347 C337 1.265 . S
C348 O344 1.253 . S
C348 O349 1.227 . S
O349 C348 1.227 . S
N350 Co336 2.140 . S
N350 C353 1.346 . S
N350 C354 1.345 . S
C351 C352 1.387 . S
C351 C355 1.391 . S
C352 C351 1.387 . S
C352 C353 1.369 . S
C352 H361 0.929 . S
C353 N350 1.346 . S
C353 C352 1.369 . S
C353 H356 0.928 . S
C354 N350 1.345 . S
C354 C355 1.371 . S
C354 H357 0.931 . S
C355 C351 1.391 . S
C355 C354 1.371 . S
C355 H362 0.930 . S
H356 C353 0.928 . S
H357 C354 0.931 . S
H358 C334 0.930 . S
H359 C331 0.930 . S
H360 C340 0.930 . S
H361 C352 0.929 . S
H362 C355 0.930 . S
C363 C364 1.351 . S
C363 N366 1.368 . S
C363 H368 0.931 . S
C364 C363 1.351 . S
C364 N365 1.373 . S
C364 H392 0.930 . S
N365 C364 1.373 . S
N365 C367 1.340 . S
N366 C363 1.368 . S
N366 C367 1.321 . S
N366 Co369 2.135 . S
C367 N365 1.340 . S
C367 N366 1.321 . S
C367 H391 0.930 . S
H368 C363 0.931 . S
Co369 N366 2.135 . S
Co369 N372 2.121 . S
Co369 O377 2.055 . S
Co369 O380 2.039 . S
Co369 N383 2.140 . S
C370 O371 1.227 . S
C370 O380 1.265 . S
O371 C370 1.227 . S
N372 Co369 2.121 . S
N372 C374 1.375 . S
N372 C375 1.313 . S
C373 C374 1.338 . S
C373 N376 1.377 . S
C373 H393 0.930 . S
C374 N372 1.375 . S
C374 C373 1.338 . S
C374 H378 0.931 . S
C375 N372 1.313 . S
C375 N376 1.344 . S
C375 H379 0.930 . S
N376 C373 1.377 . S
N376 C375 1.344 . S
O377 Co369 2.055 . S
O377 C381 1.253 . S
H378 C374 0.931 . S
H379 C375 0.930 . S
O380 Co369 2.039 . S
O380 C370 1.265 . S
C381 O377 1.253 . S
C381 O382 1.227 . S
O382 C381 1.227 . S
N383 Co369 2.140 . S
N383 C386 1.346 . S
N383 C387 1.345 . S
C384 C385 1.387 . S
C384 C388 1.391 . S
C385 C384 1.387 . S
C385 C386 1.369 . S
C385 H394 0.929 . S
C386 N383 1.346 . S
C386 C385 1.369 . S
C386 H389 0.928 . S
C387 N383 1.345 . S
C387 C388 1.371 . S
C387 H390 0.931 . S
C388 C384 1.391 . S
C388 C387 1.371 . S
C388 H395 0.930 . S
H389 C386 0.928 . S
H390 C387 0.931 . S
H391 C367 0.930 . S
H392 C364 0.930 . S
H393 C373 0.930 . S
H394 C385 0.929 . S
H395 C388 0.930 . S
H396 C404 0.929 . S
H397 C406 0.930 . S
H398 C408 0.930 . S
H399 C411 0.929 . S
H400 C414 0.930 . S
H401 C416 0.960 . S
H402 C416 0.960 . S
H403 C416 0.960 . S
C404 H396 0.929 . S
C404 C405 1.377 . S
C404 C406 1.384 . S
C405 C404 1.377 . S
C405 C411 1.390 . S
C406 H397 0.930 . S
C406 C404 1.384 . S
C406 C407 1.372 . S
C407 C406 1.372 . S
C407 C408 1.400 . S
C407 C412 1.490 . S
C408 H398 0.930 . S
C408 C407 1.400 . S
C408 C411 1.386 . S
H409 C425 0.930 . S
H410 C426 0.931 . S
C411 H399 0.929 . S
C411 C405 1.390 . S
C411 C408 1.386 . S
C412 C407 1.490 . S
C412 C414 1.395 . S
C412 C415 1.403 . S
H413 C419 0.930 . S
C414 H400 0.930 . S
C414 C412 1.395 . S
C414 C417 1.403 . S
C415 C412 1.403 . S
C415 C416 1.524 . S
C415 C419 1.400 . S
C416 H401 0.960 . S
C416 H402 0.960 . S
C416 H403 0.960 . S
C416 C415 1.524 . S
C417 C414 1.403 . S
C417 C418 1.392 . S
C417 C421 1.495 . S
C418 C417 1.392 . S
C418 C419 1.385 . S
C418 C420 1.478 . S
C419 H413 0.930 . S
C419 C415 1.400 . S
C419 C418 1.385 . S
C420 C418 1.478 . S
C420 C422 1.381 . S
C420 C426 1.383 . S
C421 C417 1.495 . S
C421 H427 0.959 . S
C421 H428 0.961 . S
C421 H429 0.960 . S
C422 C420 1.381 . S
C422 C423 1.394 . S
C422 H430 0.930 . S
C423 C422 1.394 . S
C423 C424 1.383 . S
C423 H431 0.929 . S
C424 C423 1.383 . S
C424 C425 1.377 . S
C425 H409 0.930 . S
C425 C424 1.377 . S
C425 C426 1.379 . S
C426 H410 0.931 . S
C426 C420 1.383 . S
C426 C425 1.379 . S
H427 C421 0.959 . S
H428 C421 0.961 . S
H429 C421 0.960 . S
H430 C422 0.930 . S
H431 C423 0.929 . S
H432 C440 0.929 . S
H433 C442 0.930 . S
H434 C444 0.930 . S
H435 C447 0.929 . S
H436 C450 0.930 . S
H437 C452 0.960 . S
H438 C452 0.960 . S
H439 C452 0.960 . S
C440 H432 0.929 . S
C440 C441 1.377 . S
C440 C442 1.384 . S
C441 C440 1.377 . S
C441 C447 1.390 . S
C442 H433 0.930 . S
C442 C440 1.384 . S
C442 C443 1.372 . S
C443 C442 1.372 . S
C443 C444 1.400 . S
C443 C448 1.490 . S
C444 H434 0.930 . S
C444 C443 1.400 . S
C444 C447 1.386 . S
H445 C461 0.930 . S
H446 C462 0.931 . S
C447 H435 0.929 . S
C447 C441 1.390 . S
C447 C444 1.386 . S
C448 C443 1.490 . S
C448 C450 1.395 . S
C448 C451 1.403 . S
H449 C455 0.930 . S
C450 H436 0.930 . S
C450 C448 1.395 . S
C450 C453 1.403 1_655 S
C451 C448 1.403 . S
C451 C452 1.524 . S
C451 C455 1.400 1_655 S
C452 H437 0.960 . S
C452 H438 0.960 . S
C452 H439 0.960 . S
C452 C451 1.524 . S
C453 C450 1.403 1_455 S
C453 C454 1.392 . S
C453 C457 1.495 . S
C454 C453 1.392 . S
C454 C455 1.385 . S
C454 C456 1.478 . S
C455 H449 0.930 . S
C455 C451 1.400 1_455 S
C455 C454 1.385 . S
C456 C454 1.478 . S
C456 C458 1.381 . S
C456 C462 1.383 . S
C457 C453 1.495 . S
C457 H463 0.959 . S
C457 H464 0.961 . S
C457 H465 0.960 . S
C458 C456 1.381 . S
C458 C459 1.394 . S
C458 H466 0.930 . S
C459 C458 1.394 . S
C459 C460 1.383 . S
C459 H467 0.929 . S
C460 C459 1.383 . S
C460 C461 1.377 . S
C461 H445 0.930 . S
C461 C460 1.377 . S
C461 C462 1.379 . S
C462 H446 0.931 . S
C462 C456 1.383 . S
C462 C461 1.379 . S
H463 C457 0.959 . S
H464 C457 0.961 . S
H465 C457 0.960 . S
H466 C458 0.930 . S
H467 C459 0.929 . S
H468 C476 0.929 . S
H469 C478 0.930 . S
H470 C480 0.930 . S
H471 C483 0.929 . S
H472 C486 0.930 . S
H473 C488 0.960 . S
H474 C488 0.960 . S
H475 C488 0.960 . S
C476 H468 0.929 . S
C476 C477 1.377 . S
C476 C478 1.384 . S
C477 C476 1.377 . S
C477 C483 1.390 . S
C478 H469 0.930 . S
C478 C476 1.384 . S
C478 C479 1.372 . S
C479 C478 1.372 . S
C479 C480 1.400 . S
C479 C484 1.490 . S
C480 H470 0.930 . S
C480 C479 1.400 . S
C480 C483 1.386 . S
H481 C497 0.930 . S
H482 C498 0.931 . S
C483 H471 0.929 . S
C483 C477 1.390 . S
C483 C480 1.386 . S
C484 C479 1.490 . S
C484 C486 1.395 . S
C484 C487 1.403 . S
H485 C491 0.930 . S
C486 H472 0.930 . S
C486 C484 1.395 . S
C486 C489 1.403 1_545 S
C487 C484 1.403 . S
C487 C488 1.524 . S
C487 C491 1.400 1_545 S
C488 H473 0.960 . S
C488 H474 0.960 . S
C488 H475 0.960 . S
C488 C487 1.524 . S
C489 C486 1.403 1_565 S
C489 C490 1.392 . S
C489 C493 1.495 . S
C490 C489 1.392 . S
C490 C491 1.385 . S
C490 C492 1.478 . S
C491 H485 0.930 . S
C491 C487 1.400 1_565 S
C491 C490 1.385 . S
C492 C490 1.478 . S
C492 C494 1.381 . S
C492 C498 1.383 . S
C493 C489 1.495 . S
C493 H499 0.959 . S
C493 H500 0.961 . S
C493 H501 0.960 . S
C494 C492 1.381 . S
C494 C495 1.394 . S
C494 H502 0.930 . S
C495 C494 1.394 . S
C495 C496 1.383 . S
C495 H503 0.929 . S
C496 C495 1.383 . S
C496 C497 1.377 . S
C497 H481 0.930 . S
C497 C496 1.377 . S
C497 C498 1.379 . S
C498 H482 0.931 . S
C498 C492 1.383 . S
C498 C497 1.379 . S
H499 C493 0.959 . S
H500 C493 0.961 . S
H501 C493 0.960 . S
H502 C494 0.930 . S
H503 C495 0.929 . S
H504 C512 0.929 . S
H505 C514 0.930 . S
H506 C516 0.930 . S
H507 C519 0.929 . S
H508 C522 0.930 . S
H509 C524 0.960 . S
H510 C524 0.960 . S
H511 C524 0.960 . S
C512 H504 0.929 . S
C512 C513 1.377 . S
C512 C514 1.384 . S
C513 C512 1.377 . S
C513 C519 1.390 . S
C514 H505 0.930 . S
C514 C512 1.384 . S
C514 C515 1.372 . S
C515 C514 1.372 . S
C515 C516 1.400 . S
C515 C520 1.490 . S
C516 H506 0.930 . S
C516 C515 1.400 . S
C516 C519 1.386 . S
H517 C533 0.930 . S
H518 C534 0.931 . S
C519 H507 0.929 . S
C519 C513 1.390 . S
C519 C516 1.386 . S
C520 C515 1.490 . S
C520 C522 1.395 . S
C520 C523 1.403 . S
H521 C527 0.930 . S
C522 H508 0.930 . S
C522 C520 1.395 . S
C522 C525 1.403 . S
C523 C520 1.403 . S
C523 C524 1.524 . S
C523 C527 1.400 . S
C524 H509 0.960 . S
C524 H510 0.960 . S
C524 H511 0.960 . S
C524 C523 1.524 . S
C525 C522 1.403 . S
C525 C526 1.392 . S
C525 C529 1.495 . S
C526 C525 1.392 . S
C526 C527 1.385 . S
C526 C528 1.478 . S
C527 H521 0.930 . S
C527 C523 1.400 . S
C527 C526 1.385 . S
C528 C526 1.478 . S
C528 C530 1.381 . S
C528 C534 1.383 . S
C529 C525 1.495 . S
C529 H535 0.959 . S
C529 H536 0.961 . S
C529 H537 0.960 . S
C530 C528 1.381 . S
C530 C531 1.394 . S
C530 H538 0.930 . S
C531 C530 1.394 . S
C531 C532 1.383 . S
C531 H539 0.929 . S
C532 C531 1.383 . S
C532 C533 1.377 . S
C533 H517 0.930 . S
C533 C532 1.377 . S
C533 C534 1.379 . S
C534 H518 0.931 . S
C534 C528 1.383 . S
C534 C533 1.379 . S
H535 C529 0.959 . S
H536 C529 0.961 . S
H537 C529 0.960 . S
H538 C530 0.930 . S
H539 C531 0.929 . S
H540 C548 0.929 . S
H541 C550 0.930 . S
H542 C552 0.930 . S
H543 C555 0.929 . S
H544 C558 0.930 . S
H545 C560 0.960 . S
H546 C560 0.960 . S
H547 C560 0.960 . S
C548 H540 0.929 . S
C548 C549 1.377 . S
C548 C550 1.384 . S
C549 C548 1.377 . S
C549 C555 1.390 . S
C550 H541 0.930 . S
C550 C548 1.384 . S
C550 C551 1.372 . S
C551 C550 1.372 . S
C551 C552 1.400 . S
C551 C556 1.490 . S
C552 H542 0.930 . S
C552 C551 1.400 . S
C552 C555 1.386 . S
H553 C569 0.930 . S
H554 C570 0.931 . S
C555 H543 0.929 . S
C555 C549 1.390 . S
C555 C552 1.386 . S
C556 C551 1.490 . S
C556 C558 1.395 . S
C556 C559 1.403 . S
H557 C563 0.930 . S
C558 H544 0.930 . S
C558 C556 1.395 . S
C558 C561 1.403 1_455 S
C559 C556 1.403 . S
C559 C560 1.524 . S
C559 C563 1.400 1_455 S
C560 H545 0.960 . S
C560 H546 0.960 . S
C560 H547 0.960 . S
C560 C559 1.524 . S
C561 C558 1.403 1_655 S
C561 C562 1.392 . S
C561 C565 1.495 . S
C562 C561 1.392 . S
C562 C563 1.385 . S
C562 C564 1.478 . S
C563 H557 0.930 . S
C563 C559 1.400 1_655 S
C563 C562 1.385 . S
C564 C562 1.478 . S
C564 C566 1.381 . S
C564 C570 1.383 . S
C565 C561 1.495 . S
C565 H571 0.959 . S
C565 H572 0.961 . S
C565 H573 0.960 . S
C566 C564 1.381 . S
C566 C567 1.394 . S
C566 H574 0.930 . S
C567 C566 1.394 . S
C567 C568 1.383 . S
C567 H575 0.929 . S
C568 C567 1.383 . S
C568 C569 1.377 . S
C569 H553 0.930 . S
C569 C568 1.377 . S
C569 C570 1.379 . S
C570 H554 0.931 . S
C570 C564 1.383 . S
C570 C569 1.379 . S
H571 C565 0.959 . S
H572 C565 0.961 . S
H573 C565 0.960 . S
H574 C566 0.930 . S
H575 C567 0.929 . S
H576 C584 0.929 . S
H577 C586 0.930 . S
H578 C588 0.930 . S
H579 C591 0.929 . S
H580 C594 0.930 . S
H581 C596 0.960 . S
H582 C596 0.960 . S
H583 C596 0.960 . S
C584 H576 0.929 . S
C584 C585 1.377 . S
C584 C586 1.384 . S
C585 C584 1.377 . S
C585 C591 1.390 . S
C586 H577 0.930 . S
C586 C584 1.384 . S
C586 C587 1.372 . S
C587 C586 1.372 . S
C587 C588 1.400 . S
C587 C592 1.490 . S
C588 H578 0.930 . S
C588 C587 1.400 . S
C588 C591 1.386 . S
H589 C605 0.930 . S
H590 C606 0.931 . S
C591 H579 0.929 . S
C591 C585 1.390 . S
C591 C588 1.386 . S
C592 C587 1.490 . S
C592 C594 1.395 . S
C592 C595 1.403 . S
H593 C599 0.930 . S
C594 H580 0.930 . S
C594 C592 1.395 . S
C594 C597 1.403 1_565 S
C595 C592 1.403 . S
C595 C596 1.524 . S
C595 C599 1.400 1_565 S
C596 H581 0.960 . S
C596 H582 0.960 . S
C596 H583 0.960 . S
C596 C595 1.524 . S
C597 C594 1.403 1_545 S
C597 C598 1.392 . S
C597 C601 1.495 . S
C598 C597 1.392 . S
C598 C599 1.385 . S
C598 C600 1.478 . S
C599 H593 0.930 . S
C599 C595 1.400 1_545 S
C599 C598 1.385 . S
C600 C598 1.478 . S
C600 C602 1.381 . S
C600 C606 1.383 . S
C601 C597 1.495 . S
C601 H607 0.959 . S
C601 H608 0.961 . S
C601 H609 0.960 . S
C602 C600 1.381 . S
C602 C603 1.394 . S
C602 H610 0.930 . S
C603 C602 1.394 . S
C603 C604 1.383 . S
C603 H611 0.929 . S
C604 C603 1.383 . S
C604 C605 1.377 . S
C605 H589 0.930 . S
C605 C604 1.377 . S
C605 C606 1.379 . S
C606 H590 0.931 . S
C606 C600 1.383 . S
C606 C605 1.379 . S
H607 C601 0.959 . S
H608 C601 0.961 . S
H609 C601 0.960 . S
H610 C602 0.930 . S
H611 C603 0.929 . S
H612 C620 0.929 . S
H613 C622 0.930 . S
H614 C624 0.930 . S
H615 C627 0.929 . S
H616 C630 0.930 . S
H617 C632 0.960 . S
H618 C632 0.960 . S
H619 C632 0.960 . S
C620 H612 0.929 . S
C620 C621 1.377 . S
C620 C622 1.384 . S
C621 C620 1.377 . S
C621 C627 1.390 . S
C622 H613 0.930 . S
C622 C620 1.384 . S
C622 C623 1.372 . S
C623 C622 1.372 . S
C623 C624 1.400 . S
C623 C628 1.490 . S
C624 H614 0.930 . S
C624 C623 1.400 . S
C624 C627 1.386 . S
H625 C641 0.930 . S
H626 C642 0.931 . S
C627 H615 0.929 . S
C627 C621 1.390 . S
C627 C624 1.386 . S
C628 C623 1.490 . S
C628 C630 1.395 . S
C628 C631 1.403 . S
H629 C635 0.930 . S
C630 H616 0.930 . S
C630 C628 1.395 . S
C630 C633 1.403 1_556 S
C631 C628 1.403 . S
C631 C632 1.524 . S
C631 C635 1.400 1_556 S
C632 H617 0.960 . S
C632 H618 0.960 . S
C632 H619 0.960 . S
C632 C631 1.524 . S
C633 C630 1.403 1_554 S
C633 C634 1.392 . S
C633 C637 1.495 . S
C634 C633 1.392 . S
C634 C635 1.385 . S
C634 C636 1.478 . S
C635 H629 0.930 . S
C635 C631 1.400 1_554 S
C635 C634 1.385 . S
C636 C634 1.478 . S
C636 C638 1.381 . S
C636 C642 1.383 . S
C637 C633 1.495 . S
C637 H643 0.959 . S
C637 H644 0.961 . S
C637 H645 0.960 . S
C638 C636 1.381 . S
C638 C639 1.394 . S
C638 H646 0.930 . S
C639 C638 1.394 . S
C639 C640 1.383 . S
C639 H647 0.929 . S
C640 C639 1.383 . S
C640 C641 1.377 . S
C641 H625 0.930 . S
C641 C640 1.377 . S
C641 C642 1.379 . S
C642 H626 0.931 . S
C642 C636 1.383 . S
C642 C641 1.379 . S
H643 C637 0.959 . S
H644 C637 0.961 . S
H645 C637 0.960 . S
H646 C638 0.930 . S
H647 C639 0.929 . S
H648 C656 0.929 . S
H649 C658 0.930 . S
H650 C660 0.930 . S
H651 C663 0.929 . S
H652 C666 0.930 . S
H653 C668 0.960 . S
H654 C668 0.960 . S
H655 C668 0.960 . S
C656 H648 0.929 . S
C656 C657 1.377 . S
C656 C658 1.384 . S
C657 C656 1.377 . S
C657 C663 1.390 . S
C658 H649 0.930 . S
C658 C656 1.384 . S
C658 C659 1.372 . S
C659 C658 1.372 . S
C659 C660 1.400 . S
C659 C664 1.490 . S
C660 H650 0.930 . S
C660 C659 1.400 . S
C660 C663 1.386 . S
H661 C677 0.930 . S
H662 C678 0.931 . S
C663 H651 0.929 . S
C663 C657 1.390 . S
C663 C660 1.386 . S
C664 C659 1.490 . S
C664 C666 1.395 . S
C664 C667 1.403 . S
H665 C671 0.930 . S
C666 H652 0.930 . S
C666 C664 1.395 . S
C666 C669 1.403 . S
C667 C664 1.403 . S
C667 C668 1.524 . S
C667 C671 1.400 . S
C668 H653 0.960 . S
C668 H654 0.960 . S
C668 H655 0.960 . S
C668 C667 1.524 . S
C669 C666 1.403 . S
C669 C670 1.392 . S
C669 C673 1.495 . S
C670 C669 1.392 . S
C670 C671 1.385 . S
C670 C672 1.478 . S
C671 H665 0.930 . S
C671 C667 1.400 . S
C671 C670 1.385 . S
C672 C670 1.478 . S
C672 C674 1.381 . S
C672 C678 1.383 . S
C673 C669 1.495 . S
C673 H679 0.959 . S
C673 H680 0.961 . S
C673 H681 0.960 . S
C674 C672 1.381 . S
C674 C675 1.394 . S
C674 H682 0.930 . S
C675 C674 1.394 . S
C675 C676 1.383 . S
C675 H683 0.929 . S
C676 C675 1.383 . S
C676 C677 1.377 . S
C677 H661 0.930 . S
C677 C676 1.377 . S
C677 C678 1.379 . S
C678 H662 0.931 . S
C678 C672 1.383 . S
C678 C677 1.379 . S
H679 C673 0.959 . S
H680 C673 0.961 . S
H681 C673 0.960 . S
H682 C674 0.930 . S
H683 C675 0.929 . S
H684 C692 0.929 . S
H685 C694 0.930 . S
H686 C696 0.930 . S
H687 C699 0.929 . S
H688 C702 0.930 . S
H689 C704 0.960 . S
H690 C704 0.960 . S
H691 C704 0.960 . S
C692 H684 0.929 . S
C692 C693 1.377 . S
C692 C694 1.384 . S
C693 C692 1.377 . S
C693 C699 1.390 . S
C694 H685 0.930 . S
C694 C692 1.384 . S
C694 C695 1.372 . S
C695 C694 1.372 . S
C695 C696 1.400 . S
C695 C700 1.490 . S
C696 H686 0.930 . S
C696 C695 1.400 . S
C696 C699 1.386 . S
H697 C713 0.930 . S
H698 C714 0.931 . S
C699 H687 0.929 . S
C699 C693 1.390 . S
C699 C696 1.386 . S
C700 C695 1.490 . S
C700 C702 1.395 . S
C700 C703 1.403 . S
H701 C707 0.930 . S
C702 H688 0.930 . S
C702 C700 1.395 . S
C702 C705 1.403 1_554 S
C703 C700 1.403 . S
C703 C704 1.524 . S
C703 C707 1.400 1_554 S
C704 H689 0.960 . S
C704 H690 0.960 . S
C704 H691 0.960 . S
C704 C703 1.524 . S
C705 C702 1.403 1_556 S
C705 C706 1.392 . S
C705 C709 1.495 . S
C706 C705 1.392 . S
C706 C707 1.385 . S
C706 C708 1.478 . S
C707 H701 0.930 . S
C707 C703 1.400 1_556 S
C707 C706 1.385 . S
C708 C706 1.478 . S
C708 C710 1.381 . S
C708 C714 1.383 . S
C709 C705 1.495 . S
C709 H715 0.959 . S
C709 H716 0.961 . S
C709 H717 0.960 . S
C710 C708 1.381 . S
C710 C711 1.394 . S
C710 H718 0.930 . S
C711 C710 1.394 . S
C711 C712 1.383 . S
C711 H719 0.929 . S
C712 C711 1.383 . S
C712 C713 1.377 . S
C713 H697 0.930 . S
C713 C712 1.377 . S
C713 C714 1.379 . S
C714 H698 0.931 . S
C714 C708 1.383 . S
C714 C713 1.379 . S
H715 C709 0.959 . S
H716 C709 0.961 . S
H717 C709 0.960 . S
H718 C710 0.930 . S
H719 C711 0.929 . S
H720 C728 0.929 . S
H721 C730 0.930 . S
H722 C732 0.930 . S
H723 C735 0.929 . S
H724 C738 0.930 . S
H725 C740 0.960 . S
H726 C740 0.960 . S
H727 C740 0.960 . S
C728 H720 0.929 . S
C728 C729 1.377 . S
C728 C730 1.384 . S
C729 C728 1.377 . S
C729 C735 1.390 . S
C730 H721 0.930 . S
C730 C728 1.384 . S
C730 C731 1.372 . S
C731 C730 1.372 . S
C731 C732 1.400 . S
C731 C736 1.490 . S
C732 H722 0.930 . S
C732 C731 1.400 . S
C732 C735 1.386 . S
H733 C749 0.930 . S
H734 C750 0.931 . S
C735 H723 0.929 . S
C735 C729 1.390 . S
C735 C732 1.386 . S
C736 C731 1.490 . S
C736 C738 1.395 . S
C736 C739 1.403 . S
H737 C743 0.930 . S
C738 H724 0.930 . S
C738 C736 1.395 . S
C738 C741 1.403 . S
C739 C736 1.403 . S
C739 C740 1.524 . S
C739 C743 1.400 . S
C740 H725 0.960 . S
C740 H726 0.960 . S
C740 H727 0.960 . S
C740 C739 1.524 . S
C741 C738 1.403 . S
C741 C742 1.392 . S
C741 C745 1.495 . S
C742 C741 1.392 . S
C742 C743 1.385 . S
C742 C744 1.478 . S
C743 H737 0.930 . S
C743 C739 1.400 . S
C743 C742 1.385 . S
C744 C742 1.478 . S
C744 C746 1.381 . S
C744 C750 1.383 . S
C745 C741 1.495 . S
C745 H751 0.959 . S
C745 H752 0.961 . S
C745 H753 0.960 . S
C746 C744 1.381 . S
C746 C747 1.394 . S
C746 H754 0.930 . S
C747 C746 1.394 . S
C747 C748 1.383 . S
C747 H755 0.929 . S
C748 C747 1.383 . S
C748 C749 1.377 . S
C749 H733 0.930 . S
C749 C748 1.377 . S
C749 C750 1.379 . S
C750 H734 0.931 . S
C750 C744 1.383 . S
C750 C749 1.379 . S
H751 C745 0.959 . S
H752 C745 0.961 . S
H753 C745 0.960 . S
H754 C746 0.930 . S
H755 C747 0.929 . S
H756 C764 0.929 . S
H757 C766 0.930 . S
H758 C768 0.930 . S
H759 C771 0.929 . S
H760 C774 0.930 . S
H761 C776 0.960 . S
H762 C776 0.960 . S
H763 C776 0.960 . S
C764 H756 0.929 . S
C764 C765 1.377 . S
C764 C766 1.384 . S
C765 C764 1.377 . S
C765 C771 1.390 . S
C766 H757 0.930 . S
C766 C764 1.384 . S
C766 C767 1.372 . S
C767 C766 1.372 . S
C767 C768 1.400 . S
C767 C772 1.490 . S
C768 H758 0.930 . S
C768 C767 1.400 . S
C768 C771 1.386 . S
H769 C785 0.930 . S
H770 C786 0.931 . S
C771 H759 0.929 . S
C771 C765 1.390 . S
C771 C768 1.386 . S
C772 C767 1.490 . S
C772 C774 1.395 . S
C772 C775 1.403 . S
H773 C779 0.930 . S
C774 H760 0.930 . S
C774 C772 1.395 . S
C774 C777 1.403 1_556 S
C775 C772 1.403 . S
C775 C776 1.524 . S
C775 C779 1.400 1_556 S
C776 H761 0.960 . S
C776 H762 0.960 . S
C776 H763 0.960 . S
C776 C775 1.524 . S
C777 C774 1.403 1_554 S
C777 C778 1.392 . S
C777 C781 1.495 . S
C778 C777 1.392 . S
C778 C779 1.385 . S
C778 C780 1.478 . S
C779 H773 0.930 . S
C779 C775 1.400 1_554 S
C779 C778 1.385 . S
C780 C778 1.478 . S
C780 C782 1.381 . S
C780 C786 1.383 . S
C781 C777 1.495 . S
C781 H787 0.959 . S
C781 H788 0.961 . S
C781 H789 0.960 . S
C782 C780 1.381 . S
C782 C783 1.394 . S
C782 H790 0.930 . S
C783 C782 1.394 . S
C783 C784 1.383 . S
C783 H791 0.929 . S
C784 C783 1.383 . S
C784 C785 1.377 . S
C785 H769 0.930 . S
C785 C784 1.377 . S
C785 C786 1.379 . S
C786 H770 0.931 . S
C786 C780 1.383 . S
C786 C785 1.379 . S
H787 C781 0.959 . S
H788 C781 0.961 . S
H789 C781 0.960 . S
H790 C782 0.930 . S
H791 C783 0.929 . S
H792 C800 0.929 . S
H793 C802 0.930 . S
H794 C804 0.930 . S
H795 C807 0.929 . S
H796 C810 0.930 . S
H797 C812 0.960 . S
H798 C812 0.960 . S
H799 C812 0.960 . S
C800 H792 0.929 . S
C800 C801 1.377 . S
C800 C802 1.384 . S
C801 C800 1.377 . S
C801 C807 1.390 . S
C802 H793 0.930 . S
C802 C800 1.384 . S
C802 C803 1.372 . S
C803 C802 1.372 . S
C803 C804 1.400 . S
C803 C808 1.490 . S
C804 H794 0.930 . S
C804 C803 1.400 . S
C804 C807 1.386 . S
H805 C821 0.930 . S
H806 C822 0.931 . S
C807 H795 0.929 . S
C807 C801 1.390 . S
C807 C804 1.386 . S
C808 C803 1.490 . S
C808 C810 1.395 . S
C808 C811 1.403 . S
H809 C815 0.930 . S
C810 H796 0.930 . S
C810 C808 1.395 . S
C810 C813 1.403 . S
C811 C808 1.403 . S
C811 C812 1.524 . S
C811 C815 1.400 . S
C812 H797 0.960 . S
C812 H798 0.960 . S
C812 H799 0.960 . S
C812 C811 1.524 . S
C813 C810 1.403 . S
C813 C814 1.392 . S
C813 C817 1.495 . S
C814 C813 1.392 . S
C814 C815 1.385 . S
C814 C816 1.478 . S
C815 H809 0.930 . S
C815 C811 1.400 . S
C815 C814 1.385 . S
C816 C814 1.478 . S
C816 C818 1.381 . S
C816 C822 1.383 . S
C817 C813 1.495 . S
C817 H823 0.959 . S
C817 H824 0.961 . S
C817 H825 0.960 . S
C818 C816 1.381 . S
C818 C819 1.394 . S
C818 H826 0.930 . S
C819 C818 1.394 . S
C819 C820 1.383 . S
C819 H827 0.929 . S
C820 C819 1.383 . S
C820 C821 1.377 . S
C821 H805 0.930 . S
C821 C820 1.377 . S
C821 C822 1.379 . S
C822 H806 0.931 . S
C822 C816 1.383 . S
C822 C821 1.379 . S
H823 C817 0.959 . S
H824 C817 0.961 . S
H825 C817 0.960 . S
H826 C818 0.930 . S
H827 C819 0.929 . S
H828 C836 0.929 . S
H829 C838 0.930 . S
H830 C840 0.930 . S
H831 C843 0.929 . S
H832 C846 0.930 . S
H833 C848 0.960 . S
H834 C848 0.960 . S
H835 C848 0.960 . S
C836 H828 0.929 . S
C836 C837 1.377 . S
C836 C838 1.384 . S
C837 C836 1.377 . S
C837 C843 1.390 . S
C838 H829 0.930 . S
C838 C836 1.384 . S
C838 C839 1.372 . S
C839 C838 1.372 . S
C839 C840 1.400 . S
C839 C844 1.490 . S
C840 H830 0.930 . S
C840 C839 1.400 . S
C840 C843 1.386 . S
H841 C857 0.930 . S
H842 C858 0.931 . S
C843 H831 0.929 . S
C843 C837 1.390 . S
C843 C840 1.386 . S
C844 C839 1.490 . S
C844 C846 1.395 . S
C844 C847 1.403 . S
H845 C851 0.930 . S
C846 H832 0.930 . S
C846 C844 1.395 . S
C846 C849 1.403 1_554 S
C847 C844 1.403 . S
C847 C848 1.524 . S
C847 C851 1.400 1_554 S
C848 H833 0.960 . S
C848 H834 0.960 . S
C848 H835 0.960 . S
C848 C847 1.524 . S
C849 C846 1.403 1_556 S
C849 C850 1.392 . S
C849 C853 1.495 . S
C850 C849 1.392 . S
C850 C851 1.385 . S
C850 C852 1.478 . S
C851 H845 0.930 . S
C851 C847 1.400 1_556 S
C851 C850 1.385 . S
C852 C850 1.478 . S
C852 C854 1.381 . S
C852 C858 1.383 . S
C853 C849 1.495 . S
C853 H859 0.959 . S
C853 H860 0.961 . S
C853 H861 0.960 . S
C854 C852 1.381 . S
C854 C855 1.394 . S
C854 H862 0.930 . S
C855 C854 1.394 . S
C855 C856 1.383 . S
C855 H863 0.929 . S
C856 C855 1.383 . S
C856 C857 1.377 . S
C857 H841 0.930 . S
C857 C856 1.377 . S
C857 C858 1.379 . S
C858 H842 0.931 . S
C858 C852 1.383 . S
C858 C857 1.379 . S
H859 C853 0.959 . S
H860 C853 0.961 . S
H861 C853 0.960 . S
H862 C854 0.930 . S
H863 C855 0.929 . S
H864 C872 0.929 . S
H865 C874 0.930 . S
H866 C876 0.930 . S
H867 C879 0.929 . S
H868 C882 0.930 . S
H869 C884 0.960 . S
H870 C884 0.960 . S
H871 C884 0.960 . S
C872 H864 0.929 . S
C872 C873 1.377 . S
C872 C874 1.384 . S
C873 C872 1.377 . S
C873 C879 1.390 . S
C874 H865 0.930 . S
C874 C872 1.384 . S
C874 C875 1.372 . S
C875 C874 1.372 . S
C875 C876 1.400 . S
C875 C880 1.490 . S
C876 H866 0.930 . S
C876 C875 1.400 . S
C876 C879 1.386 . S
H877 C893 0.930 . S
H878 C894 0.931 . S
C879 H867 0.929 . S
C879 C873 1.390 . S
C879 C876 1.386 . S
C880 C875 1.490 . S
C880 C882 1.395 . S
C880 C883 1.403 . S
H881 C887 0.930 . S
C882 H868 0.930 . S
C882 C880 1.395 . S
C882 C885 1.403 . S
C883 C880 1.403 . S
C883 C884 1.524 . S
C883 C887 1.400 . S
C884 H869 0.960 . S
C884 H870 0.960 . S
C884 H871 0.960 . S
C884 C883 1.524 . S
C885 C882 1.403 . S
C885 C886 1.392 . S
C885 C889 1.495 . S
C886 C885 1.392 . S
C886 C887 1.385 . S
C886 C888 1.478 . S
C887 H881 0.930 . S
C887 C883 1.400 . S
C887 C886 1.385 . S
C888 C886 1.478 . S
C888 C890 1.381 . S
C888 C894 1.383 . S
C889 C885 1.495 . S
C889 H895 0.959 . S
C889 H896 0.961 . S
C889 H897 0.960 . S
C890 C888 1.381 . S
C890 C891 1.394 . S
C890 H898 0.930 . S
C891 C890 1.394 . S
C891 C892 1.383 . S
C891 H899 0.929 . S
C892 C891 1.383 . S
C892 C893 1.377 . S
C893 H877 0.930 . S
C893 C892 1.377 . S
C893 C894 1.379 . S
C894 H878 0.931 . S
C894 C888 1.383 . S
C894 C893 1.379 . S
H895 C889 0.959 . S
H896 C889 0.961 . S
H897 C889 0.960 . S
H898 C890 0.930 . S
H899 C891 0.929 . S
H900 C908 0.929 . S
H901 C910 0.930 . S
H902 C912 0.930 . S
H903 C915 0.929 . S
H904 C918 0.930 . S
H905 C920 0.960 . S
H906 C920 0.960 . S
H907 C920 0.960 . S
C908 H900 0.929 . S
C908 C909 1.377 . S
C908 C910 1.384 . S
C909 C908 1.377 . S
C909 C915 1.390 . S
C910 H901 0.930 . S
C910 C908 1.384 . S
C910 C911 1.372 . S
C911 C910 1.372 . S
C911 C912 1.400 . S
C911 C916 1.490 . S
C912 H902 0.930 . S
C912 C911 1.400 . S
C912 C915 1.386 . S
H913 C929 0.930 . S
H914 C930 0.931 . S
C915 H903 0.929 . S
C915 C909 1.390 . S
C915 C912 1.386 . S
C916 C911 1.490 . S
C916 C918 1.395 . S
C916 C919 1.403 . S
H917 C923 0.930 . S
C918 H904 0.930 . S
C918 C916 1.395 . S
C918 C921 1.403 1_556 S
C919 C916 1.403 . S
C919 C920 1.524 . S
C919 C923 1.400 1_556 S
C920 H905 0.960 . S
C920 H906 0.960 . S
C920 H907 0.960 . S
C920 C919 1.524 . S
C921 C918 1.403 1_554 S
C921 C922 1.392 . S
C921 C925 1.495 . S
C922 C921 1.392 . S
C922 C923 1.385 . S
C922 C924 1.478 . S
C923 H917 0.930 . S
C923 C919 1.400 1_554 S
C923 C922 1.385 . S
C924 C922 1.478 . S
C924 C926 1.381 . S
C924 C930 1.383 . S
C925 C921 1.495 . S
C925 H931 0.959 . S
C925 H932 0.961 . S
C925 H933 0.960 . S
C926 C924 1.381 . S
C926 C927 1.394 . S
C926 H934 0.930 . S
C927 C926 1.394 . S
C927 C928 1.383 . S
C927 H935 0.929 . S
C928 C927 1.383 . S
C928 C929 1.377 . S
C929 H913 0.930 . S
C929 C928 1.377 . S
C929 C930 1.379 . S
C930 H914 0.931 . S
C930 C924 1.383 . S
C930 C929 1.379 . S
H931 C925 0.959 . S
H932 C925 0.961 . S
H933 C925 0.960 . S
H934 C926 0.930 . S
H935 C927 0.929 . S
H936 C944 0.929 . S
H937 C946 0.930 . S
H938 C948 0.930 . S
H939 C951 0.929 . S
H940 C954 0.930 . S
H941 C956 0.960 . S
H942 C956 0.960 . S
H943 C956 0.960 . S
C944 H936 0.929 . S
C944 C945 1.377 . S
C944 C946 1.384 . S
C945 C944 1.377 . S
C945 C951 1.390 . S
C946 H937 0.930 . S
C946 C944 1.384 . S
C946 C947 1.372 . S
C947 C946 1.372 . S
C947 C948 1.400 . S
C947 C952 1.490 . S
C948 H938 0.930 . S
C948 C947 1.400 . S
C948 C951 1.386 . S
H949 C965 0.930 . S
H950 C966 0.931 . S
C951 H939 0.929 . S
C951 C945 1.390 . S
C951 C948 1.386 . S
C952 C947 1.490 . S
C952 C954 1.395 . S
C952 C955 1.403 . S
H953 C959 0.930 . S
C954 H940 0.930 . S
C954 C952 1.395 . S
C954 C957 1.403 . S
C955 C952 1.403 . S
C955 C956 1.524 . S
C955 C959 1.400 . S
C956 H941 0.960 . S
C956 H942 0.960 . S
C956 H943 0.960 . S
C956 C955 1.524 . S
C957 C954 1.403 . S
C957 C958 1.392 . S
C957 C961 1.495 . S
C958 C957 1.392 . S
C958 C959 1.385 . S
C958 C960 1.478 . S
C959 H953 0.930 . S
C959 C955 1.400 . S
C959 C958 1.385 . S
C960 C958 1.478 . S
C960 C962 1.381 . S
C960 C966 1.383 . S
C961 C957 1.495 . S
C961 H967 0.959 . S
C961 H968 0.961 . S
C961 H969 0.960 . S
C962 C960 1.381 . S
C962 C963 1.394 . S
C962 H970 0.930 . S
C963 C962 1.394 . S
C963 C964 1.383 . S
C963 H971 0.929 . S
C964 C963 1.383 . S
C964 C965 1.377 . S
C965 H949 0.930 . S
C965 C964 1.377 . S
C965 C966 1.379 . S
C966 H950 0.931 . S
C966 C960 1.383 . S
C966 C965 1.379 . S
H967 C961 0.959 . S
H968 C961 0.961 . S
H969 C961 0.960 . S
H970 C962 0.930 . S
H971 C963 0.929 . S
H972 C980 0.929 . S
H973 C982 0.930 . S
H974 C984 0.930 . S
H975 C987 0.929 . S
H976 C990 0.930 . S
H977 C992 0.960 . S
H978 C992 0.960 . S
H979 C992 0.960 . S
C980 H972 0.929 . S
C980 C981 1.377 . S
C980 C982 1.384 . S
C981 C980 1.377 . S
C981 C987 1.390 . S
C982 H973 0.930 . S
C982 C980 1.384 . S
C982 C983 1.372 . S
C983 C982 1.372 . S
C983 C984 1.400 . S
C983 C988 1.490 . S
C984 H974 0.930 . S
C984 C983 1.400 . S
C984 C987 1.386 . S
H985 C1001 0.930 . S
H986 C1002 0.931 . S
C987 H975 0.929 . S
C987 C981 1.390 . S
C987 C984 1.386 . S
C988 C983 1.490 . S
C988 C990 1.395 . S
C988 C991 1.403 . S
H989 C995 0.930 . S
C990 H976 0.930 . S
C990 C988 1.395 . S
C990 C993 1.403 1_556 S
C991 C988 1.403 . S
C991 C992 1.524 . S
C991 C995 1.400 1_556 S
C992 H977 0.960 . S
C992 H978 0.960 . S
C992 H979 0.960 . S
C992 C991 1.524 . S
C993 C990 1.403 1_554 S
C993 C994 1.392 . S
C993 C997 1.495 . S
C994 C993 1.392 . S
C994 C995 1.385 . S
C994 C996 1.478 . S
C995 H989 0.930 . S
C995 C991 1.400 1_554 S
C995 C994 1.385 . S
C996 C994 1.478 . S
C996 C998 1.381 . S
C996 C1002 1.383 . S
C997 C993 1.495 . S
C997 H1003 0.959 . S
C997 H1004 0.961 . S
C997 H1005 0.960 . S
C998 C996 1.381 . S
C998 C999 1.394 . S
C998 H1006 0.930 . S
C999 C998 1.394 . S
C999 C1000 1.383 . S
C999 H1007 0.929 . S
C1000 C999 1.383 . S
C1000 C1001 1.377 . S
C1001 H985 0.930 . S
C1001 C1000 1.377 . S
C1001 C1002 1.379 . S
C1002 H986 0.931 . S
C1002 C996 1.383 . S
C1002 C1001 1.379 . S
H1003 C997 0.959 . S
H1004 C997 0.961 . S
H1005 C997 0.960 . S
H1006 C998 0.930 . S
H1007 C999 0.929 . S
H1008 C1016 0.929 . S
H1009 C1018 0.930 . S
H1010 C1020 0.930 . S
H1011 C1023 0.929 . S
H1012 C1026 0.930 . S
H1013 C1028 0.960 . S
H1014 C1028 0.960 . S
H1015 C1028 0.960 . S
C1016 H1008 0.929 . S
C1016 C1017 1.377 . S
C1016 C1018 1.384 . S
C1017 C1016 1.377 . S
C1017 C1023 1.390 . S
C1018 H1009 0.930 . S
C1018 C1016 1.384 . S
C1018 C1019 1.372 . S
C1019 C1018 1.372 . S
C1019 C1020 1.400 . S
C1019 C1024 1.490 . S
C1020 H1010 0.930 . S
C1020 C1019 1.400 . S
C1020 C1023 1.386 . S
H1021 C1037 0.930 . S
H1022 C1038 0.931 . S
C1023 H1011 0.929 . S
C1023 C1017 1.390 . S
C1023 C1020 1.386 . S
C1024 C1019 1.490 . S
C1024 C1026 1.395 . S
C1024 C1027 1.403 . S
H1025 C1031 0.930 . S
C1026 H1012 0.930 . S
C1026 C1024 1.395 . S
C1026 C1029 1.403 . S
C1027 C1024 1.403 . S
C1027 C1028 1.524 . S
C1027 C1031 1.400 . S
C1028 H1013 0.960 . S
C1028 H1014 0.960 . S
C1028 H1015 0.960 . S
C1028 C1027 1.524 . S
C1029 C1026 1.403 . S
C1029 C1030 1.392 . S
C1029 C1033 1.495 . S
C1030 C1029 1.392 . S
C1030 C1031 1.385 . S
C1030 C1032 1.478 . S
C1031 H1025 0.930 . S
C1031 C1027 1.400 . S
C1031 C1030 1.385 . S
C1032 C1030 1.478 . S
C1032 C1034 1.381 . S
C1032 C1038 1.383 . S
C1033 C1029 1.495 . S
C1033 H1039 0.959 . S
C1033 H1040 0.961 . S
C1033 H1041 0.960 . S
C1034 C1032 1.381 . S
C1034 C1035 1.394 . S
C1034 H1042 0.930 . S
C1035 C1034 1.394 . S
C1035 C1036 1.383 . S
C1035 H1043 0.929 . S
C1036 C1035 1.383 . S
C1036 C1037 1.377 . S
C1037 H1021 0.930 . S
C1037 C1036 1.377 . S
C1037 C1038 1.379 . S
C1038 H1022 0.931 . S
C1038 C1032 1.383 . S
C1038 C1037 1.379 . S
H1039 C1033 0.959 . S
H1040 C1033 0.961 . S
H1041 C1033 0.960 . S
H1042 C1034 0.930 . S
H1043 C1035 0.929 . S
H1044 C1052 0.929 . S
H1045 C1054 0.930 . S
H1046 C1056 0.930 . S
H1047 C1059 0.929 . S
H1048 C1062 0.930 . S
H1049 C1064 0.960 . S
H1050 C1064 0.960 . S
H1051 C1064 0.960 . S
C1052 H1044 0.929 . S
C1052 C1053 1.377 . S
C1052 C1054 1.384 . S
C1053 C1052 1.377 . S
C1053 C1059 1.390 . S
C1054 H1045 0.930 . S
C1054 C1052 1.384 . S
C1054 C1055 1.372 . S
C1055 C1054 1.372 . S
C1055 C1056 1.400 . S
C1055 C1060 1.490 . S
C1056 H1046 0.930 . S
C1056 C1055 1.400 . S
C1056 C1059 1.386 . S
H1057 C1073 0.930 . S
H1058 C1074 0.931 . S
C1059 H1047 0.929 . S
C1059 C1053 1.390 . S
C1059 C1056 1.386 . S
C1060 C1055 1.490 . S
C1060 C1062 1.395 . S
C1060 C1063 1.403 . S
H1061 C1067 0.930 . S
C1062 H1048 0.930 . S
C1062 C1060 1.395 . S
C1062 C1065 1.403 . S
C1063 C1060 1.403 . S
C1063 C1064 1.524 . S
C1063 C1067 1.400 . S
C1064 H1049 0.960 . S
C1064 H1050 0.960 . S
C1064 H1051 0.960 . S
C1064 C1063 1.524 . S
C1065 C1062 1.403 . S
C1065 C1066 1.392 . S
C1065 C1069 1.495 . S
C1066 C1065 1.392 . S
C1066 C1067 1.385 . S
C1066 C1068 1.478 . S
C1067 H1061 0.930 . S
C1067 C1063 1.400 . S
C1067 C1066 1.385 . S
C1068 C1066 1.478 . S
C1068 C1070 1.381 . S
C1068 C1074 1.383 . S
C1069 C1065 1.495 . S
C1069 H1075 0.959 . S
C1069 H1076 0.961 . S
C1069 H1077 0.960 . S
C1070 C1068 1.381 . S
C1070 C1071 1.394 . S
C1070 H1078 0.930 . S
C1071 C1070 1.394 . S
C1071 C1072 1.383 . S
C1071 H1079 0.929 . S
C1072 C1071 1.383 . S
C1072 C1073 1.377 . S
C1073 H1057 0.930 . S
C1073 C1072 1.377 . S
C1073 C1074 1.379 . S
C1074 H1058 0.931 . S
C1074 C1068 1.383 . S
C1074 C1073 1.379 . S
H1075 C1069 0.959 . S
H1076 C1069 0.961 . S
H1077 C1069 0.960 . S
H1078 C1070 0.930 . S
H1079 C1071 0.929 . S
H1080 C1088 0.929 . S
H1081 C1090 0.930 . S
H1082 C1092 0.930 . S
H1083 C1095 0.929 . S
H1084 C1098 0.930 . S
H1085 C1100 0.960 . S
H1086 C1100 0.960 . S
H1087 C1100 0.960 . S
C1088 H1080 0.929 . S
C1088 C1089 1.377 . S
C1088 C1090 1.384 . S
C1089 C1088 1.377 . S
C1089 C1095 1.390 . S
C1090 H1081 0.930 . S
C1090 C1088 1.384 . S
C1090 C1091 1.372 . S
C1091 C1090 1.372 . S
C1091 C1092 1.400 . S
C1091 C1096 1.490 . S
C1092 H1082 0.930 . S
C1092 C1091 1.400 . S
C1092 C1095 1.386 . S
H1093 C1109 0.930 . S
H1094 C1110 0.931 . S
C1095 H1083 0.929 . S
C1095 C1089 1.390 . S
C1095 C1092 1.386 . S
C1096 C1091 1.490 . S
C1096 C1098 1.395 . S
C1096 C1099 1.403 . S
H1097 C1103 0.930 . S
C1098 H1084 0.930 . S
C1098 C1096 1.395 . S
C1098 C1101 1.403 . S
C1099 C1096 1.403 . S
C1099 C1100 1.524 . S
C1099 C1103 1.400 . S
C1100 H1085 0.960 . S
C1100 H1086 0.960 . S
C1100 H1087 0.960 . S
C1100 C1099 1.524 . S
C1101 C1098 1.403 . S
C1101 C1102 1.392 . S
C1101 C1105 1.495 . S
C1102 C1101 1.392 . S
C1102 C1103 1.385 . S
C1102 C1104 1.478 . S
C1103 H1097 0.930 . S
C1103 C1099 1.400 . S
C1103 C1102 1.385 . S
C1104 C1102 1.478 . S
C1104 C1106 1.381 . S
C1104 C1110 1.383 . S
C1105 C1101 1.495 . S
C1105 H1111 0.959 . S
C1105 H1112 0.961 . S
C1105 H1113 0.960 . S
C1106 C1104 1.381 . S
C1106 C1107 1.394 . S
C1106 H1114 0.930 . S
C1107 C1106 1.394 . S
C1107 C1108 1.383 . S
C1107 H1115 0.929 . S
C1108 C1107 1.383 . S
C1108 C1109 1.377 . S
C1109 H1093 0.930 . S
C1109 C1108 1.377 . S
C1109 C1110 1.379 . S
C1110 H1094 0.931 . S
C1110 C1104 1.383 . S
C1110 C1109 1.379 . S
H1111 C1105 0.959 . S
H1112 C1105 0.961 . S
H1113 C1105 0.960 . S
H1114 C1106 0.930 . S
H1115 C1107 0.929 . S
H1116 C1124 0.929 . S
H1117 C1126 0.930 . S
H1118 C1128 0.930 . S
H1119 C1131 0.929 . S
H1120 C1134 0.930 . S
H1121 C1136 0.960 . S
H1122 C1136 0.960 . S
H1123 C1136 0.960 . S
C1124 H1116 0.929 . S
C1124 C1125 1.377 . S
C1124 C1126 1.384 . S
C1125 C1124 1.377 . S
C1125 C1131 1.390 . S
C1126 H1117 0.930 . S
C1126 C1124 1.384 . S
C1126 C1127 1.372 . S
C1127 C1126 1.372 . S
C1127 C1128 1.400 . S
C1127 C1132 1.490 . S
C1128 H1118 0.930 . S
C1128 C1127 1.400 . S
C1128 C1131 1.386 . S
H1129 C1145 0.930 . S
H1130 C1146 0.931 . S
C1131 H1119 0.929 . S
C1131 C1125 1.390 . S
C1131 C1128 1.386 . S
C1132 C1127 1.490 . S
C1132 C1134 1.395 . S
C1132 C1135 1.403 . S
H1133 C1139 0.930 . S
C1134 H1120 0.930 . S
C1134 C1132 1.395 . S
C1134 C1137 1.403 . S
C1135 C1132 1.403 . S
C1135 C1136 1.524 . S
C1135 C1139 1.400 . S
C1136 H1121 0.960 . S
C1136 H1122 0.960 . S
C1136 H1123 0.960 . S
C1136 C1135 1.524 . S
C1137 C1134 1.403 . S
C1137 C1138 1.392 . S
C1137 C1141 1.495 . S
C1138 C1137 1.392 . S
C1138 C1139 1.385 . S
C1138 C1140 1.478 . S
C1139 H1133 0.930 . S
C1139 C1135 1.400 . S
C1139 C1138 1.385 . S
C1140 C1138 1.478 . S
C1140 C1142 1.381 . S
C1140 C1146 1.383 . S
C1141 C1137 1.495 . S
C1141 H1147 0.959 . S
C1141 H1148 0.961 . S
C1141 H1149 0.960 . S
C1142 C1140 1.381 . S
C1142 C1143 1.394 . S
C1142 H1150 0.930 . S
C1143 C1142 1.394 . S
C1143 C1144 1.383 . S
C1143 H1151 0.929 . S
C1144 C1143 1.383 . S
C1144 C1145 1.377 . S
C1145 H1129 0.930 . S
C1145 C1144 1.377 . S
C1145 C1146 1.379 . S
C1146 H1130 0.931 . S
C1146 C1140 1.383 . S
C1146 C1145 1.379 . S
H1147 C1141 0.959 . S
H1148 C1141 0.961 . S
H1149 C1141 0.960 . S
H1150 C1142 0.930 . S
H1151 C1143 0.929 . S
H1152 C1160 0.929 . S
H1153 C1162 0.930 . S
H1154 C1164 0.930 . S
H1155 C1167 0.929 . S
H1156 C1170 0.930 . S
H1157 C1172 0.960 . S
H1158 C1172 0.960 . S
H1159 C1172 0.960 . S
C1160 H1152 0.929 . S
C1160 C1161 1.377 . S
C1160 C1162 1.384 . S
C1161 C1160 1.377 . S
C1161 C1167 1.390 . S
C1162 H1153 0.930 . S
C1162 C1160 1.384 . S
C1162 C1163 1.372 . S
C1163 C1162 1.372 . S
C1163 C1164 1.400 . S
C1163 C1168 1.490 . S
C1164 H1154 0.930 . S
C1164 C1163 1.400 . S
C1164 C1167 1.386 . S
H1165 C1181 0.930 . S
H1166 C1182 0.931 . S
C1167 H1155 0.929 . S
C1167 C1161 1.390 . S
C1167 C1164 1.386 . S
C1168 C1163 1.490 . S
C1168 C1170 1.395 . S
C1168 C1171 1.403 . S
H1169 C1175 0.930 . S
C1170 H1156 0.930 . S
C1170 C1168 1.395 . S
C1170 C1173 1.403 . S
C1171 C1168 1.403 . S
C1171 C1172 1.524 . S
C1171 C1175 1.400 . S
C1172 H1157 0.960 . S
C1172 H1158 0.960 . S
C1172 H1159 0.960 . S
C1172 C1171 1.524 . S
C1173 C1170 1.403 . S
C1173 C1174 1.392 . S
C1173 C1177 1.495 . S
C1174 C1173 1.392 . S
C1174 C1175 1.385 . S
C1174 C1176 1.478 . S
C1175 H1169 0.930 . S
C1175 C1171 1.400 . S
C1175 C1174 1.385 . S
C1176 C1174 1.478 . S
C1176 C1178 1.381 . S
C1176 C1182 1.383 . S
C1177 C1173 1.495 . S
C1177 H1183 0.959 . S
C1177 H1184 0.961 . S
C1177 H1185 0.960 . S
C1178 C1176 1.381 . S
C1178 C1179 1.394 . S
C1178 H1186 0.930 . S
C1179 C1178 1.394 . S
C1179 C1180 1.383 . S
C1179 H1187 0.929 . S
C1180 C1179 1.383 . S
C1180 C1181 1.377 . S
C1181 H1165 0.930 . S
C1181 C1180 1.377 . S
C1181 C1182 1.379 . S
C1182 H1166 0.931 . S
C1182 C1176 1.383 . S
C1182 C1181 1.379 . S
H1183 C1177 0.959 . S
H1184 C1177 0.961 . S
H1185 C1177 0.960 . S
H1186 C1178 0.930 . S
H1187 C1179 0.929 . S
H1188 C1196 0.929 . S
H1189 C1198 0.930 . S
H1190 C1200 0.930 . S
H1191 C1203 0.929 . S
H1192 C1206 0.930 . S
H1193 C1208 0.960 . S
H1194 C1208 0.960 . S
H1195 C1208 0.960 . S
C1196 H1188 0.929 . S
C1196 C1197 1.377 . S
C1196 C1198 1.384 . S
C1197 C1196 1.377 . S
C1197 C1203 1.390 . S
C1198 H1189 0.930 . S
C1198 C1196 1.384 . S
C1198 C1199 1.372 . S
C1199 C1198 1.372 . S
C1199 C1200 1.400 . S
C1199 C1204 1.490 . S
C1200 H1190 0.930 . S
C1200 C1199 1.400 . S
C1200 C1203 1.386 . S
H1201 C1217 0.930 . S
H1202 C1218 0.931 . S
C1203 H1191 0.929 . S
C1203 C1197 1.390 . S
C1203 C1200 1.386 . S
C1204 C1199 1.490 . S
C1204 C1206 1.395 . S
C1204 C1207 1.403 . S
H1205 C1211 0.930 . S
C1206 H1192 0.930 . S
C1206 C1204 1.395 . S
C1206 C1209 1.403 . S
C1207 C1204 1.403 . S
C1207 C1208 1.524 . S
C1207 C1211 1.400 . S
C1208 H1193 0.960 . S
C1208 H1194 0.960 . S
C1208 H1195 0.960 . S
C1208 C1207 1.524 . S
C1209 C1206 1.403 . S
C1209 C1210 1.392 . S
C1209 C1213 1.495 . S
C1210 C1209 1.392 . S
C1210 C1211 1.385 . S
C1210 C1212 1.478 . S
C1211 H1205 0.930 . S
C1211 C1207 1.400 . S
C1211 C1210 1.385 . S
C1212 C1210 1.478 . S
C1212 C1214 1.381 . S
C1212 C1218 1.383 . S
C1213 C1209 1.495 . S
C1213 H1219 0.959 . S
C1213 H1220 0.961 . S
C1213 H1221 0.960 . S
C1214 C1212 1.381 . S
C1214 C1215 1.394 . S
C1214 H1222 0.930 . S
C1215 C1214 1.394 . S
C1215 C1216 1.383 . S
C1215 H1223 0.929 . S
C1216 C1215 1.383 . S
C1216 C1217 1.377 . S
C1217 H1201 0.930 . S
C1217 C1216 1.377 . S
C1217 C1218 1.379 . S
C1218 H1202 0.931 . S
C1218 C1212 1.383 . S
C1218 C1217 1.379 . S
H1219 C1213 0.959 . S
H1220 C1213 0.961 . S
H1221 C1213 0.960 . S
H1222 C1214 0.930 . S
H1223 C1215 0.929 . S
H1224 C1232 0.929 . S
H1225 C1234 0.930 . S
H1226 C1236 0.930 . S
H1227 C1239 0.929 . S
H1228 C1242 0.930 . S
H1229 C1244 0.960 . S
H1230 C1244 0.960 . S
H1231 C1244 0.960 . S
C1232 H1224 0.929 . S
C1232 C1233 1.377 . S
C1232 C1234 1.384 . S
C1233 C1232 1.377 . S
C1233 C1239 1.390 . S
C1234 H1225 0.930 . S
C1234 C1232 1.384 . S
C1234 C1235 1.372 . S
C1235 C1234 1.372 . S
C1235 C1236 1.400 . S
C1235 C1240 1.490 . S
C1236 H1226 0.930 . S
C1236 C1235 1.400 . S
C1236 C1239 1.386 . S
H1237 C1253 0.930 . S
H1238 C1254 0.931 . S
C1239 H1227 0.929 . S
C1239 C1233 1.390 . S
C1239 C1236 1.386 . S
C1240 C1235 1.490 . S
C1240 C1242 1.395 . S
C1240 C1243 1.403 . S
H1241 C1247 0.930 . S
C1242 H1228 0.930 . S
C1242 C1240 1.395 . S
C1242 C1245 1.403 . S
C1243 C1240 1.403 . S
C1243 C1244 1.524 . S
C1243 C1247 1.400 . S
C1244 H1229 0.960 . S
C1244 H1230 0.960 . S
C1244 H1231 0.960 . S
C1244 C1243 1.524 . S
C1245 C1242 1.403 . S
C1245 C1246 1.392 . S
C1245 C1249 1.495 . S
C1246 C1245 1.392 . S
C1246 C1247 1.385 . S
C1246 C1248 1.478 . S
C1247 H1241 0.930 . S
C1247 C1243 1.400 . S
C1247 C1246 1.385 . S
C1248 C1246 1.478 . S
C1248 C1250 1.381 . S
C1248 C1254 1.383 . S
C1249 C1245 1.495 . S
C1249 H1255 0.959 . S
C1249 H1256 0.961 . S
C1249 H1257 0.960 . S
C1250 C1248 1.381 . S
C1250 C1251 1.394 . S
C1250 H1258 0.930 . S
C1251 C1250 1.394 . S
C1251 C1252 1.383 . S
C1251 H1259 0.929 . S
C1252 C1251 1.383 . S
C1252 C1253 1.377 . S
C1253 H1237 0.930 . S
C1253 C1252 1.377 . S
C1253 C1254 1.379 . S
C1254 H1238 0.931 . S
C1254 C1248 1.383 . S
C1254 C1253 1.379 . S
H1255 C1249 0.959 . S
H1256 C1249 0.961 . S
H1257 C1249 0.960 . S
H1258 C1250 0.930 . S
H1259 C1251 0.929 . S
H1260 C1268 0.929 . S
H1261 C1270 0.930 . S
H1262 C1272 0.930 . S
H1263 C1275 0.929 . S
H1264 C1278 0.930 . S
H1265 C1280 0.960 . S
H1266 C1280 0.960 . S
H1267 C1280 0.960 . S
C1268 H1260 0.929 . S
C1268 C1269 1.377 . S
C1268 C1270 1.384 . S
C1269 C1268 1.377 . S
C1269 C1275 1.390 . S
C1270 H1261 0.930 . S
C1270 C1268 1.384 . S
C1270 C1271 1.372 . S
C1271 C1270 1.372 . S
C1271 C1272 1.400 . S
C1271 C1276 1.490 . S
C1272 H1262 0.930 . S
C1272 C1271 1.400 . S
C1272 C1275 1.386 . S
H1273 C1289 0.930 . S
H1274 C1290 0.931 . S
C1275 H1263 0.929 . S
C1275 C1269 1.390 . S
C1275 C1272 1.386 . S
C1276 C1271 1.490 . S
C1276 C1278 1.395 . S
C1276 C1279 1.403 . S
H1277 C1283 0.930 . S
C1278 H1264 0.930 . S
C1278 C1276 1.395 . S
C1278 C1281 1.403 . S
C1279 C1276 1.403 . S
C1279 C1280 1.524 . S
C1279 C1283 1.400 . S
C1280 H1265 0.960 . S
C1280 H1266 0.960 . S
C1280 H1267 0.960 . S
C1280 C1279 1.524 . S
C1281 C1278 1.403 . S
C1281 C1282 1.392 . S
C1281 C1285 1.495 . S
C1282 C1281 1.392 . S
C1282 C1283 1.385 . S
C1282 C1284 1.478 . S
C1283 H1277 0.930 . S
C1283 C1279 1.400 . S
C1283 C1282 1.385 . S
C1284 C1282 1.478 . S
C1284 C1286 1.381 . S
C1284 C1290 1.383 . S
C1285 C1281 1.495 . S
C1285 H1291 0.959 . S
C1285 H1292 0.961 . S
C1285 H1293 0.960 . S
C1286 C1284 1.381 . S
C1286 C1287 1.394 . S
C1286 H1294 0.930 . S
C1287 C1286 1.394 . S
C1287 C1288 1.383 . S
C1287 H1295 0.929 . S
C1288 C1287 1.383 . S
C1288 C1289 1.377 . S
C1289 H1273 0.930 . S
C1289 C1288 1.377 . S
C1289 C1290 1.379 . S
C1290 H1274 0.931 . S
C1290 C1284 1.383 . S
C1290 C1289 1.379 . S
H1291 C1285 0.959 . S
H1292 C1285 0.961 . S
H1293 C1285 0.960 . S
H1294 C1286 0.930 . S
H1295 C1287 0.929 . S
H1296 C1304 0.929 . S
H1297 C1306 0.930 . S
H1298 C1308 0.930 . S
H1299 C1311 0.929 . S
H1300 C1314 0.930 . S
H1301 C1316 0.960 . S
H1302 C1316 0.960 . S
H1303 C1316 0.960 . S
C1304 H1296 0.929 . S
C1304 C1305 1.377 . S
C1304 C1306 1.384 . S
C1305 C1304 1.377 . S
C1305 C1311 1.390 . S
C1306 H1297 0.930 . S
C1306 C1304 1.384 . S
C1306 C1307 1.372 . S
C1307 C1306 1.372 . S
C1307 C1308 1.400 . S
C1307 C1312 1.490 . S
C1308 H1298 0.930 . S
C1308 C1307 1.400 . S
C1308 C1311 1.386 . S
H1309 C1325 0.930 . S
H1310 C1326 0.931 . S
C1311 H1299 0.929 . S
C1311 C1305 1.390 . S
C1311 C1308 1.386 . S
C1312 C1307 1.490 . S
C1312 C1314 1.395 . S
C1312 C1315 1.403 . S
H1313 C1319 0.930 . S
C1314 H1300 0.930 . S
C1314 C1312 1.395 . S
C1314 C1317 1.403 . S
C1315 C1312 1.403 . S
C1315 C1316 1.524 . S
C1315 C1319 1.400 . S
C1316 H1301 0.960 . S
C1316 H1302 0.960 . S
C1316 H1303 0.960 . S
C1316 C1315 1.524 . S
C1317 C1314 1.403 . S
C1317 C1318 1.392 . S
C1317 C1321 1.495 . S
C1318 C1317 1.392 . S
C1318 C1319 1.385 . S
C1318 C1320 1.478 . S
C1319 H1313 0.930 . S
C1319 C1315 1.400 . S
C1319 C1318 1.385 . S
C1320 C1318 1.478 . S
C1320 C1322 1.381 . S
C1320 C1326 1.383 . S
C1321 C1317 1.495 . S
C1321 H1327 0.959 . S
C1321 H1328 0.961 . S
C1321 H1329 0.960 . S
C1322 C1320 1.381 . S
C1322 C1323 1.394 . S
C1322 H1330 0.930 . S
C1323 C1322 1.394 . S
C1323 C1324 1.383 . S
C1323 H1331 0.929 . S
C1324 C1323 1.383 . S
C1324 C1325 1.377 . S
C1325 H1309 0.930 . S
C1325 C1324 1.377 . S
C1325 C1326 1.379 . S
C1326 H1310 0.931 . S
C1326 C1320 1.383 . S
C1326 C1325 1.379 . S
H1327 C1321 0.959 . S
H1328 C1321 0.961 . S
H1329 C1321 0.960 . S
H1330 C1322 0.930 . S
H1331 C1323 0.929 . S
H1332 C1340 0.929 . S
H1333 C1342 0.930 . S
H1334 C1344 0.930 . S
H1335 C1347 0.929 . S
H1336 C1350 0.930 . S
H1337 C1352 0.960 . S
H1338 C1352 0.960 . S
H1339 C1352 0.960 . S
C1340 H1332 0.929 . S
C1340 C1341 1.377 . S
C1340 C1342 1.384 . S
C1341 C1340 1.377 . S
C1341 C1347 1.390 . S
C1342 H1333 0.930 . S
C1342 C1340 1.384 . S
C1342 C1343 1.372 . S
C1343 C1342 1.372 . S
C1343 C1344 1.400 . S
C1343 C1348 1.490 . S
C1344 H1334 0.930 . S
C1344 C1343 1.400 . S
C1344 C1347 1.386 . S
H1345 C1361 0.930 . S
H1346 C1362 0.931 . S
C1347 H1335 0.929 . S
C1347 C1341 1.390 . S
C1347 C1344 1.386 . S
C1348 C1343 1.490 . S
C1348 C1350 1.395 . S
C1348 C1351 1.403 . S
H1349 C1355 0.930 . S
C1350 H1336 0.930 . S
C1350 C1348 1.395 . S
C1350 C1353 1.403 . S
C1351 C1348 1.403 . S
C1351 C1352 1.524 . S
C1351 C1355 1.400 . S
C1352 H1337 0.960 . S
C1352 H1338 0.960 . S
C1352 H1339 0.960 . S
C1352 C1351 1.524 . S
C1353 C1350 1.403 . S
C1353 C1354 1.392 . S
C1353 C1357 1.495 . S
C1354 C1353 1.392 . S
C1354 C1355 1.385 . S
C1354 C1356 1.478 . S
C1355 H1349 0.930 . S
C1355 C1351 1.400 . S
C1355 C1354 1.385 . S
C1356 C1354 1.478 . S
C1356 C1358 1.381 . S
C1356 C1362 1.383 . S
C1357 C1353 1.495 . S
C1357 H1363 0.959 . S
C1357 H1364 0.961 . S
C1357 H1365 0.960 . S
C1358 C1356 1.381 . S
C1358 C1359 1.394 . S
C1358 H1366 0.930 . S
C1359 C1358 1.394 . S
C1359 C1360 1.383 . S
C1359 H1367 0.929 . S
C1360 C1359 1.383 . S
C1360 C1361 1.377 . S
C1361 H1345 0.930 . S
C1361 C1360 1.377 . S
C1361 C1362 1.379 . S
C1362 H1346 0.931 . S
C1362 C1356 1.383 . S
C1362 C1361 1.379 . S
H1363 C1357 0.959 . S
H1364 C1357 0.961 . S
H1365 C1357 0.960 . S
H1366 C1358 0.930 . S
H1367 C1359 0.929 . S
H1368 C1376 0.929 . S
H1369 C1378 0.930 . S
H1370 C1380 0.930 . S
H1371 C1383 0.929 . S
H1372 C1386 0.930 . S
H1373 C1388 0.960 . S
H1374 C1388 0.960 . S
H1375 C1388 0.960 . S
C1376 H1368 0.929 . S
C1376 C1377 1.377 . S
C1376 C1378 1.384 . S
C1377 C1376 1.377 . S
C1377 C1383 1.390 . S
C1378 H1369 0.930 . S
C1378 C1376 1.384 . S
C1378 C1379 1.372 . S
C1379 C1378 1.372 . S
C1379 C1380 1.400 . S
C1379 C1384 1.490 . S
C1380 H1370 0.930 . S
C1380 C1379 1.400 . S
C1380 C1383 1.386 . S
H1381 C1397 0.930 . S
H1382 C1398 0.931 . S
C1383 H1371 0.929 . S
C1383 C1377 1.390 . S
C1383 C1380 1.386 . S
C1384 C1379 1.490 . S
C1384 C1386 1.395 . S
C1384 C1387 1.403 . S
H1385 C1391 0.930 . S
C1386 H1372 0.930 . S
C1386 C1384 1.395 . S
C1386 C1389 1.403 . S
C1387 C1384 1.403 . S
C1387 C1388 1.524 . S
C1387 C1391 1.400 . S
C1388 H1373 0.960 . S
C1388 H1374 0.960 . S
C1388 H1375 0.960 . S
C1388 C1387 1.524 . S
C1389 C1386 1.403 . S
C1389 C1390 1.392 . S
C1389 C1393 1.495 . S
C1390 C1389 1.392 . S
C1390 C1391 1.385 . S
C1390 C1392 1.478 . S
C1391 H1385 0.930 . S
C1391 C1387 1.400 . S
C1391 C1390 1.385 . S
C1392 C1390 1.478 . S
C1392 C1394 1.381 . S
C1392 C1398 1.383 . S
C1393 C1389 1.495 . S
C1393 H1399 0.959 . S
C1393 H1400 0.961 . S
C1393 H1401 0.960 . S
C1394 C1392 1.381 . S
C1394 C1395 1.394 . S
C1394 H1402 0.930 . S
C1395 C1394 1.394 . S
C1395 C1396 1.383 . S
C1395 H1403 0.929 . S
C1396 C1395 1.383 . S
C1396 C1397 1.377 . S
C1397 H1381 0.930 . S
C1397 C1396 1.377 . S
C1397 C1398 1.379 . S
C1398 H1382 0.931 . S
C1398 C1392 1.383 . S
C1398 C1397 1.379 . S
H1399 C1393 0.959 . S
H1400 C1393 0.961 . S
H1401 C1393 0.960 . S
H1402 C1394 0.930 . S
H1403 C1395 0.929 . S
H1404 C1412 0.929 . S
H1405 C1414 0.930 . S
H1406 C1416 0.930 . S
H1407 C1419 0.929 . S
H1408 C1422 0.930 . S
H1409 C1424 0.960 . S
H1410 C1424 0.960 . S
H1411 C1424 0.960 . S
C1412 H1404 0.929 . S
C1412 C1413 1.377 . S
C1412 C1414 1.384 . S
C1413 C1412 1.377 . S
C1413 C1419 1.390 . S
C1414 H1405 0.930 . S
C1414 C1412 1.384 . S
C1414 C1415 1.372 . S
C1415 C1414 1.372 . S
C1415 C1416 1.400 . S
C1415 C1420 1.490 . S
C1416 H1406 0.930 . S
C1416 C1415 1.400 . S
C1416 C1419 1.386 . S
H1417 C1433 0.930 . S
H1418 C1434 0.931 . S
C1419 H1407 0.929 . S
C1419 C1413 1.390 . S
C1419 C1416 1.386 . S
C1420 C1415 1.490 . S
C1420 C1422 1.395 . S
C1420 C1423 1.403 . S
H1421 C1427 0.930 . S
C1422 H1408 0.930 . S
C1422 C1420 1.395 . S
C1422 C1425 1.403 . S
C1423 C1420 1.403 . S
C1423 C1424 1.524 . S
C1423 C1427 1.400 . S
C1424 H1409 0.960 . S
C1424 H1410 0.960 . S
C1424 H1411 0.960 . S
C1424 C1423 1.524 . S
C1425 C1422 1.403 . S
C1425 C1426 1.392 . S
C1425 C1429 1.495 . S
C1426 C1425 1.392 . S
C1426 C1427 1.385 . S
C1426 C1428 1.478 . S
C1427 H1421 0.930 . S
C1427 C1423 1.400 . S
C1427 C1426 1.385 . S
C1428 C1426 1.478 . S
C1428 C1430 1.381 . S
C1428 C1434 1.383 . S
C1429 C1425 1.495 . S
C1429 H1435 0.959 . S
C1429 H1436 0.961 . S
C1429 H1437 0.960 . S
C1430 C1428 1.381 . S
C1430 C1431 1.394 . S
C1430 H1438 0.930 . S
C1431 C1430 1.394 . S
C1431 C1432 1.383 . S
C1431 H1439 0.929 . S
C1432 C1431 1.383 . S
C1432 C1433 1.377 . S
C1433 H1417 0.930 . S
C1433 C1432 1.377 . S
C1433 C1434 1.379 . S
C1434 H1418 0.931 . S
C1434 C1428 1.383 . S
C1434 C1433 1.379 . S
H1435 C1429 0.959 . S
H1436 C1429 0.961 . S
H1437 C1429 0.960 . S
H1438 C1430 0.930 . S
H1439 C1431 0.929 . S
H1440 C1448 0.929 . S
H1441 C1450 0.930 . S
H1442 C1452 0.930 . S
H1443 C1455 0.929 . S
H1444 C1458 0.930 . S
H1445 C1460 0.960 . S
H1446 C1460 0.960 . S
H1447 C1460 0.960 . S
C1448 H1440 0.929 . S
C1448 C1449 1.377 . S
C1448 C1450 1.384 . S
C1449 C1448 1.377 . S
C1449 C1455 1.390 . S
C1450 H1441 0.930 . S
C1450 C1448 1.384 . S
C1450 C1451 1.372 . S
C1451 C1450 1.372 . S
C1451 C1452 1.400 . S
C1451 C1456 1.490 . S
C1452 H1442 0.930 . S
C1452 C1451 1.400 . S
C1452 C1455 1.386 . S
H1453 C1469 0.930 . S
H1454 C1470 0.931 . S
C1455 H1443 0.929 . S
C1455 C1449 1.390 . S
C1455 C1452 1.386 . S
C1456 C1451 1.490 . S
C1456 C1458 1.395 . S
C1456 C1459 1.403 . S
H1457 C1463 0.930 . S
C1458 H1444 0.930 . S
C1458 C1456 1.395 . S
C1458 C1461 1.403 . S
C1459 C1456 1.403 . S
C1459 C1460 1.524 . S
C1459 C1463 1.400 . S
C1460 H1445 0.960 . S
C1460 H1446 0.960 . S
C1460 H1447 0.960 . S
C1460 C1459 1.524 . S
C1461 C1458 1.403 . S
C1461 C1462 1.392 . S
C1461 C1465 1.495 . S
C1462 C1461 1.392 . S
C1462 C1463 1.385 . S
C1462 C1464 1.478 . S
C1463 H1457 0.930 . S
C1463 C1459 1.400 . S
C1463 C1462 1.385 . S
C1464 C1462 1.478 . S
C1464 C1466 1.381 . S
C1464 C1470 1.383 . S
C1465 C1461 1.495 . S
C1465 H1471 0.959 . S
C1465 H1472 0.961 . S
C1465 H1473 0.960 . S
C1466 C1464 1.381 . S
C1466 C1467 1.394 . S
C1466 H1474 0.930 . S
C1467 C1466 1.394 . S
C1467 C1468 1.383 . S
C1467 H1475 0.929 . S
C1468 C1467 1.383 . S
C1468 C1469 1.377 . S
C1469 H1453 0.930 . S
C1469 C1468 1.377 . S
C1469 C1470 1.379 . S
C1470 H1454 0.931 . S
C1470 C1464 1.383 . S
C1470 C1469 1.379 . S
H1471 C1465 0.959 . S
H1472 C1465 0.961 . S
H1473 C1465 0.960 . S
H1474 C1466 0.930 . S
H1475 C1467 0.929 . S
C405 N310 1.706 . S
C424 N13 1.698 . S
C441 N46 1.715 . S
C460 N343 1.710 . S
C477 N376 1.710 . S
C496 N79 1.685 . S
C513 N112 1.715 . S
C532 N211 1.696 . S
C549 N145 1.706 . S
C568 N244 1.712 . S
C585 N277 1.714 . S
C604 N178 1.720 . S
C621 C348 1.674 . S
C640 C18 1.655 . S
C657 C381 1.673 . S
C676 C51 1.658 . S
C693 C84 1.671 . S
C712 C216 1.670 . S
C729 C249 1.666 . S
C748 C117 1.681 . S
C765 C282 1.666 . S
C784 C150 1.682 . S
C801 C183 1.671 . S
C820 C315 1.668 . S
C837 C238 0.594 . S
C856 C106 0.577 . S
C873 C271 0.582 . S
C892 C139 0.649 . S
C909 C172 0.591 . S
C928 C304 0.549 . S
C945 C7 0.592 . S
C964 C337 0.564 . S
C981 C40 0.592 . S
C1000 C370 0.562 . S
C1017 C205 0.570 . S
C1036 C73 0.621 . S
C1053 N2 1.128 . S
C1072 C153 1.188 . S
C1089 N35 1.128 . S
C1108 C186 1.188 . S
C1125 N68 1.135 . S
C1144 C21 1.178 . S
C1161 C54 1.181 . S
C1180 N101 1.147 . S
C1197 N134 1.128 . S
C1216 C87 1.188 . S
C1233 C120 1.180 . S
C1252 N167 1.163 . S
C1269 C285 1.184 . S
C1288 N200 1.096 . S
C1305 C318 1.181 . S
C1324 N233 1.145 . S
C1341 C351 1.181 . S
C1360 N266 1.134 . S
C1377 N299 1.131 . S
C1396 C384 1.186 . S
C1413 C219 1.180 . S
C1432 N332 1.165 . S
C1449 N365 1.142 . S
C1468 C252 1.171 . S
