# Generated by pormake.
# Topology bcs, (6)-cn, num edge types: 1
# Building blocks:
#     Node 0, Type 0, BuildingBlock: VOLQOD_clean_sbu_1, # of connection points: 6
#     Node 1, Type 0, BuildingBlock: VOLQOD_clean_sbu_1, # of connection points: 6
#     Node 2, Type 0, BuildingBlock: VOLQOD_clean_sbu_1, # of connection points: 6
#     Node 3, Type 0, BuildingBlock: VOLQOD_clean_sbu_1, # of connection points: 6
#     Node 4, Type 0, BuildingBlock: VOLQOD_clean_sbu_1, # of connection points: 6
#     Node 5, Type 0, BuildingBlock: VOLQOD_clean_sbu_1, # of connection points: 6
#     Node 6, Type 0, BuildingBlock: VOLQOD_clean_sbu_1, # of connection points: 6
#     Node 7, Type 0, BuildingBlock: VOLQOD_clean_sbu_1, # of connection points: 6
#     Node 8, Type 0, BuildingBlock: VOLQOD_clean_sbu_1, # of connection points: 6
#     Node 9, Type 0, BuildingBlock: VOLQOD_clean_sbu_1, # of connection points: 6
#     Node 10, Type 0, BuildingBlock: VOLQOD_clean_sbu_1, # of connection points: 6
#     Node 11, Type 0, BuildingBlock: VOLQOD_clean_sbu_1, # of connection points: 6
#     Node 12, Type 0, BuildingBlock: VOLQOD_clean_sbu_1, # of connection points: 6
#     Node 13, Type 0, BuildingBlock: VOLQOD_clean_sbu_1, # of connection points: 6
#     Node 14, Type 0, BuildingBlock: VOLQOD_clean_sbu_1, # of connection points: 6
#     Node 15, Type 0, BuildingBlock: VOLQOD_clean_sbu_1, # of connection points: 6
#     Edge 16, Type (0, 0), BuildingBlock: KIFKEQ_clean_linker_1, # of connection points: 2
#     Edge 17, Type (0, 0), BuildingBlock: KIFKEQ_clean_linker_1, # of connection points: 2
#     Edge 18, Type (0, 0), BuildingBlock: KIFKEQ_clean_linker_1, # of connection points: 2
#     Edge 19, Type (0, 0), BuildingBlock: KIFKEQ_clean_linker_1, # of connection points: 2
#     Edge 20, Type (0, 0), BuildingBlock: KIFKEQ_clean_linker_1, # of connection points: 2
#     Edge 21, Type (0, 0), BuildingBlock: KIFKEQ_clean_linker_1, # of connection points: 2
#     Edge 22, Type (0, 0), BuildingBlock: KIFKEQ_clean_linker_1, # of connection points: 2
#     Edge 23, Type (0, 0), BuildingBlock: KIFKEQ_clean_linker_1, # of connection points: 2
#     Edge 24, Type (0, 0), BuildingBlock: KIFKEQ_clean_linker_1, # of connection points: 2
#     Edge 25, Type (0, 0), BuildingBlock: KIFKEQ_clean_linker_1, # of connection points: 2
#     Edge 26, Type (0, 0), BuildingBlock: KIFKEQ_clean_linker_1, # of connection points: 2
#     Edge 27, Type (0, 0), BuildingBlock: KIFKEQ_clean_linker_1, # of connection points: 2
#     Edge 28, Type (0, 0), BuildingBlock: KIFKEQ_clean_linker_1, # of connection points: 2
#     Edge 29, Type (0, 0), BuildingBlock: KIFKEQ_clean_linker_1, # of connection points: 2
#     Edge 30, Type (0, 0), BuildingBlock: KIFKEQ_clean_linker_1, # of connection points: 2
#     Edge 31, Type (0, 0), BuildingBlock: KIFKEQ_clean_linker_1, # of connection points: 2
#     Edge 32, Type (0, 0), BuildingBlock: KIFKEQ_clean_linker_1, # of connection points: 2
#     Edge 33, Type (0, 0), BuildingBlock: KIFKEQ_clean_linker_1, # of connection points: 2
#     Edge 34, Type (0, 0), BuildingBlock: KIFKEQ_clean_linker_1, # of connection points: 2
#     Edge 35, Type (0, 0), BuildingBlock: KIFKEQ_clean_linker_1, # of connection points: 2
#     Edge 36, Type (0, 0), BuildingBlock: KIFKEQ_clean_linker_1, # of connection points: 2
#     Edge 37, Type (0, 0), BuildingBlock: KIFKEQ_clean_linker_1, # of connection points: 2
#     Edge 38, Type (0, 0), BuildingBlock: KIFKEQ_clean_linker_1, # of connection points: 2
#     Edge 39, Type (0, 0), BuildingBlock: KIFKEQ_clean_linker_1, # of connection points: 2
#     Edge 40, Type (0, 0), BuildingBlock: KIFKEQ_clean_linker_1, # of connection points: 2
#     Edge 41, Type (0, 0), BuildingBlock: KIFKEQ_clean_linker_1, # of connection points: 2
#     Edge 42, Type (0, 0), BuildingBlock: KIFKEQ_clean_linker_1, # of connection points: 2
#     Edge 43, Type (0, 0), BuildingBlock: KIFKEQ_clean_linker_1, # of connection points: 2
#     Edge 44, Type (0, 0), BuildingBlock: KIFKEQ_clean_linker_1, # of connection points: 2
#     Edge 45, Type (0, 0), BuildingBlock: KIFKEQ_clean_linker_1, # of connection points: 2
#     Edge 46, Type (0, 0), BuildingBlock: KIFKEQ_clean_linker_1, # of connection points: 2
#     Edge 47, Type (0, 0), BuildingBlock: KIFKEQ_clean_linker_1, # of connection points: 2
#     Edge 48, Type (0, 0), BuildingBlock: KIFKEQ_clean_linker_1, # of connection points: 2
#     Edge 49, Type (0, 0), BuildingBlock: KIFKEQ_clean_linker_1, # of connection points: 2
#     Edge 50, Type (0, 0), BuildingBlock: KIFKEQ_clean_linker_1, # of connection points: 2
#     Edge 51, Type (0, 0), BuildingBlock: KIFKEQ_clean_linker_1, # of connection points: 2
#     Edge 52, Type (0, 0), BuildingBlock: KIFKEQ_clean_linker_1, # of connection points: 2
#     Edge 53, Type (0, 0), BuildingBlock: KIFKEQ_clean_linker_1, # of connection points: 2
#     Edge 54, Type (0, 0), BuildingBlock: KIFKEQ_clean_linker_1, # of connection points: 2
#     Edge 55, Type (0, 0), BuildingBlock: KIFKEQ_clean_linker_1, # of connection points: 2
#     Edge 56, Type (0, 0), BuildingBlock: KIFKEQ_clean_linker_1, # of connection points: 2
#     Edge 57, Type (0, 0), BuildingBlock: KIFKEQ_clean_linker_1, # of connection points: 2
#     Edge 58, Type (0, 0), BuildingBlock: KIFKEQ_clean_linker_1, # of connection points: 2
#     Edge 59, Type (0, 0), BuildingBlock: KIFKEQ_clean_linker_1, # of connection points: 2
#     Edge 60, Type (0, 0), BuildingBlock: KIFKEQ_clean_linker_1, # of connection points: 2
#     Edge 61, Type (0, 0), BuildingBlock: KIFKEQ_clean_linker_1, # of connection points: 2
#     Edge 62, Type (0, 0), BuildingBlock: KIFKEQ_clean_linker_1, # of connection points: 2
#     Edge 63, Type (0, 0), BuildingBlock: KIFKEQ_clean_linker_1, # of connection points: 2
# Relax obj value: 0.390
# Max RMSD: 0.283
# Mean RMSD: 0.278
data_MOF--net-bcs--node1-VOLQOD_clean_sbu_1--edge1-KIFKEQ_clean_linker_1
_symmetry_space_group_name_H-M    P1
_symmetry_Int_Tables_number       1
_symmetry_cell_setting            triclinic
loop_
_symmetry_equiv_pos_as_xyz
'x, y, z'
_cell_length_a     37.114583
_cell_length_b     37.392449
_cell_length_c     37.433177
_cell_angle_alpha  89.975947
_cell_angle_beta   89.707078
_cell_angle_gamma 89.469393
loop_
_atom_site_label
_atom_site_type_symbol
_atom_site_fract_x
_atom_site_fract_y
_atom_site_fract_z
_atom_type_partial_charge
O0 O 0.05923 0.03168 0.99052 0.0
Zn1 Zn 0.02095 0.00473 0.01403 0.0
O2 O 0.99025 0.98122 0.9801 0.0
Zn3 Zn 0.9411 -0.00344 0.98968 0.0
Zn4 Zn 0.00486 -0.00504 0.93182 0.0
Zn5 Zn -0.0055 0.92964 0.98638 0.0
O6 O 0.90985 0.95542 0.00229 0.0
O7 O 0.9465 0.90839 -0.00247 0.0
O8 O -0.00483 0.03894 0.04531 0.0
O9 O 0.93817 0.03242 0.02985 0.0
O10 O 0.92083 0.02175 0.94773 0.0
O11 O 0.9663 0.02575 0.90912 0.0
O12 O 0.01501 0.95119 0.90199 0.0
O13 O 0.04513 0.97038 0.04541 0.0
O14 O 0.01331 0.90691 0.94161 0.0
O15 O 0.0275 0.91675 0.02772 0.0
C16 C 0.0687 0.03675 0.9584 0.0
C17 C 0.91549 0.92186 0.00376 0.0
C18 C 0.93398 0.03306 0.91847 0.0
C19 C 0.96215 0.04704 0.04897 0.0
C20 C 0.01892 0.91824 0.91 0.0
C21 C 0.04571 0.93664 0.04839 0.0
O22 O 0.051 0.02374 0.93247 0.0
O23 O 0.27891 0.74257 0.26394 0.0
Zn24 Zn 0.29367 0.78129 0.29785 0.0
O25 O 0.25174 0.80467 0.31746 0.0
Zn26 Zn 0.25055 0.85449 0.30626 0.0
Zn27 Zn 0.21042 0.7823 0.29904 0.0
Zn28 Zn 0.25026 0.79764 0.36766 0.0
O29 O 0.26184 0.88301 0.35087 0.0
O30 O 0.27329 0.83981 0.39057 0.0
O31 O 0.3247 0.81501 0.27008 0.0
O32 O 0.29101 0.86434 0.27236 0.0
O33 O 0.20522 0.86746 0.27817 0.0
O34 O 0.19187 0.81241 0.26036 0.0
O35 O 0.17087 0.78197 0.33506 0.0
O36 O 0.3204 0.75541 0.33624 0.0
O37 O 0.19899 0.79568 0.38528 0.0
O38 O 0.27654 0.75112 0.37679 0.0
C39 C 0.25017 0.72441 0.2619 0.0
C40 C 0.27354 0.87266 0.3813 0.0
C41 C 0.18847 0.84612 0.25747 0.0
C42 C 0.31857 0.84727 0.26094 0.0
C43 C 0.17017 0.78936 0.36819 0.0
C44 C 0.3059 0.7397 0.36279 0.0
O45 O 0.22151 0.73394 0.27833 0.0
O46 O 0.48909 0.9795 0.5323 0.0
Zn47 Zn 0.53204 -0.00518 0.56125 0.0
O48 O 0.55889 0.03224 0.53638 0.0
Zn49 Zn 0.60988 0.02086 0.53492 0.0
Zn50 Zn 0.54106 0.03846 0.48842 0.0
Zn51 Zn 0.55274 0.07692 0.56095 0.0
O52 O 0.64166 0.05944 0.55498 0.0
O53 O 0.59968 0.09994 0.56808 0.0
O54 O 0.5646 0.95319 0.57357 0.0
O55 O 0.61858 0.97583 0.56168 0.0
O56 O 0.62549 0.01171 0.48503 0.0
O57 O 0.57649 0.01895 0.45191 0.0
O58 O 0.53177 0.09041 0.47849 0.0
O59 O 0.51391 0.01252 0.60905 0.0
O60 O 0.52504 0.11318 0.5329 0.0
O61 O 0.53199 0.06907 0.60944 0.0
C62 C 0.47681 0.9907 0.50253 0.0
C63 C 0.63248 0.09051 0.56553 0.0
C64 C 0.60977 0.01085 0.45497 0.0
C65 C 0.59889 0.951 0.57405 0.0
C66 C 0.52331 0.11628 0.49911 0.0
C67 C 0.51757 0.0424 0.62479 0.0
O68 O 0.49369 0.0135 0.48366 0.0
O69 O 0.37829 0.23539 0.87882 0.0
Zn70 Zn 0.34047 0.20726 0.85229 0.0
O71 O 0.31751 0.23746 0.81654 0.0
Zn72 Zn 0.26598 0.24057 0.82044 0.0
Zn73 Zn 0.33589 0.28489 0.81778 0.0
Zn74 Zn 0.32878 0.21757 0.77141 0.0
O75 O 0.24136 0.21691 0.77836 0.0
O76 O 0.28824 0.18892 0.75372 0.0
O77 O 0.30243 0.18684 0.88454 0.0
O78 O 0.25224 0.21256 0.8636 0.0
O79 O 0.24886 0.29161 0.82716 0.0
O80 O 0.30022 0.31851 0.84069 0.0
O81 O 0.34291 0.30414 0.76814 0.0
O82 O 0.36899 0.1665 0.82978 0.0
O83 O 0.3353 0.25552 0.73532 0.0
O84 O 0.37227 0.18676 0.77402 0.0
C85 C 0.39426 0.26398 0.86936 0.0
C86 C 0.25448 0.19438 0.75615 0.0
C87 C 0.26599 0.3188 0.83826 0.0
C88 C 0.26847 0.19223 0.88574 0.0
C89 C 0.34043 0.28893 0.73787 0.0
C90 C 0.38263 0.16558 0.79854 0.0
O91 O 0.38196 0.28417 0.84474 0.0
O92 O 0.05499 0.95237 0.43851 0.0
Zn93 Zn 0.08968 0.98533 0.46404 0.0
O94 O 0.06629 0.0062 0.50625 0.0
Zn95 Zn 0.06886 0.05749 0.50581 0.0
Zn96 Zn 0.01647 0.99285 0.50845 0.0
Zn97 Zn 0.08893 0.98842 0.54871 0.0
O98 O 0.09101 0.07675 0.55103 0.0
O99 O 0.11617 0.0271 0.5724 0.0
O100 O 0.11208 0.02361 0.4328 0.0
O101 O 0.09997 0.07237 0.4651 0.0
O102 O 0.02053 0.0794 0.49621 0.0
O103 O 0.98457 0.03264 0.49007 0.0
O104 O 0.00091 0.98245 0.5588 0.0
O105 O 0.13037 0.95254 0.47838 0.0
O106 O 0.05314 0.97412 0.58607 0.0
O107 O 0.1223 0.94796 0.5372 0.0
C108 C 0.02678 0.93745 0.45101 0.0
C109 C 0.11154 0.06084 0.57328 0.0
C110 C 0.99002 0.06621 0.48857 0.0
C111 C 0.11445 0.05717 0.43817 0.0
C112 C 0.01891 0.97489 0.58668 0.0
C113 C 0.13786 0.93841 0.50833 0.0
O114 O 0.01076 0.94885 0.479 0.0
O115 O 0.24089 0.69213 0.75438 0.0
Zn116 Zn 0.26559 0.73271 0.7783 0.0
O117 O 0.29838 0.75623 0.74539 0.0
Zn118 Zn 0.34711 0.7554 0.76447 0.0
Zn119 Zn 0.29752 0.7317 0.70004 0.0
Zn120 Zn 0.28274 0.80511 0.738 0.0
O121 O 0.36047 0.80453 0.78267 0.0
O122 O 0.31574 0.83882 0.76258 0.0
O123 O 0.29164 0.71143 0.82014 0.0
O124 O 0.349 0.72006 0.80493 0.0
O125 O 0.38372 0.73972 0.7271 0.0
O126 O 0.34695 0.71865 0.68546 0.0
O127 O 0.28132 0.76375 0.66061 0.0
O128 O 0.22522 0.76521 0.79327 0.0
O129 O 0.28097 0.81741 0.68581 0.0
O130 O 0.23333 0.81302 0.75895 0.0
C131 C 0.24367 0.67728 0.72396 0.0
C132 C 0.34525 0.83509 0.77937 0.0
C133 C 0.37838 0.72474 0.69709 0.0
C134 C 0.32517 0.70622 0.82518 0.0
C135 C 0.27874 0.79757 0.65829 0.0
C136 C 0.21464 0.7954 0.78138 0.0
O137 O 0.26549 0.68883 0.7004 0.0
O138 O 0.53821 0.04104 0.08843 0.0
Zn139 Zn 0.51265 0.01917 0.04727 0.0
O140 O 0.48548 0.05484 0.02074 0.0
Zn141 Zn 0.43495 0.04139 0.01821 0.0
Zn142 Zn 0.4896 0.1003 0.04445 0.0
Zn143 Zn 0.50582 0.05881 0.97311 0.0
O144 O 0.42259 0.02644 0.96809 0.0
O145 O 0.47373 0.03425 0.93795 0.0
O146 O 0.4811 0.9809 0.06712 0.0
O147 O 0.42679 -0.00121 0.04959 0.0
O148 O 0.40134 0.08044 0.03692 0.0
O149 O 0.44178 0.11753 0.05965 0.0
O150 O 0.5071 0.13786 0.01141 0.0
O151 O 0.5529 -0.00114 0.01831 0.0
O152 O 0.5118 0.11048 0.95902 0.0
O153 O 0.55479 0.03474 0.97106 0.0
C154 C 0.54003 0.07259 0.10075 0.0
C155 C 0.44122 0.02367 0.93948 0.0
C156 C 0.40937 0.10874 0.05393 0.0
C157 C 0.44707 0.97718 0.06666 0.0
C158 C 0.51294 0.13875 0.97798 0.0
C159 C 0.56866 0.01013 0.9903 0.0
O160 O 0.52254 0.09835 0.08669 0.0
O161 O 0.37849 0.39817 0.32419 0.0
Zn162 Zn 0.34744 0.36328 0.35137 0.0
O163 O 0.32332 0.33027 0.319 0.0
Zn164 Zn 0.27251 0.32859 0.32843 0.0
Zn165 Zn 0.3299 0.34663 0.27091 0.0
Zn166 Zn 0.34305 0.28245 0.32265 0.0
O167 O 0.25757 0.28091 0.34673 0.0
O168 O 0.30789 0.24841 0.34571 0.0
O169 O 0.31101 0.39153 0.38049 0.0
O170 O 0.25989 0.36493 0.36507 0.0
O171 O 0.24405 0.33946 0.28415 0.0
O172 O 0.2848 0.36793 0.25153 0.0
O173 O 0.33943 0.30574 0.23806 0.0
O174 O 0.3821 0.33565 0.38266 0.0
O175 O 0.3521 0.26064 0.27437 0.0
O176 O 0.38788 0.28474 0.35175 0.0
C177 C 0.38584 0.40041 0.29105 0.0
C178 C 0.27436 0.2517 0.35243 0.0
C179 C 0.25253 0.35795 0.25688 0.0
C180 C 0.27697 0.38811 0.38298 0.0
C181 C 0.34769 0.2731 0.24305 0.0
C182 C 0.3983 0.30615 0.37602 0.0
O183 O 0.37026 0.38127 0.26781 0.0
O184 O 0.55353 0.45943 0.96715 0.0
Zn185 Zn 0.57927 0.50433 0.98084 0.0
O186 O 0.55094 0.53207 0.01524 0.0
Zn187 Zn 0.53805 0.57849 -0.0035 0.0
Zn188 Zn 0.50691 0.50731 0.02645 0.0
Zn189 Zn 0.57925 0.53935 0.05767 0.0
O190 O 0.55405 0.61911 0.02725 0.0
O191 O 0.59362 0.59021 0.06128 0.0
O192 O 0.59393 0.53503 0.93891 0.0
O193 O 0.56382 0.58544 0.95034 0.0
O194 O 0.48553 0.58353 0.9889 0.0
O195 O 0.46322 0.53051 0.00344 0.0
O196 O 0.49906 0.5077 0.07945 0.0
O197 O 0.62473 0.48546 0.00292 0.0
O198 O 0.55072 0.5272 0.10184 0.0
O199 O 0.62425 0.50984 0.05695 0.0
C200 C 0.52914 0.4423 0.98388 0.0
C201 C 0.57957 0.61903 0.04966 0.0
C202 C 0.45921 0.56224 -0.0083 0.0
C203 C 0.58542 0.56717 0.93096 0.0
C204 C 0.51875 0.5158 0.10597 0.0
C205 C 0.63897 0.49005 0.03334 0.0
O206 O 0.51078 0.45675 0.00896 0.0
O207 O 0.74049 0.18903 0.26445 0.0
Zn208 Zn 0.76107 0.22834 0.29383 0.0
O209 O 0.78732 0.26213 0.26383 0.0
Zn210 Zn 0.83755 0.26454 0.27844 0.0
Zn211 Zn 0.78374 0.24824 0.21404 0.0
Zn212 Zn 0.76584 0.3088 0.26859 0.0
O213 O 0.85216 0.31559 0.2883 0.0
O214 O 0.79896 0.34316 0.29146 0.0
O215 O 0.79281 0.20746 0.33216 0.0
O216 O 0.84423 0.23662 0.32376 0.0
O217 O 0.87045 0.24227 0.24092 0.0
O218 O 0.83159 0.23279 0.19694 0.0
O219 O 0.76837 0.28843 0.18148 0.0
O220 O 0.7169 0.25124 0.31577 0.0
O221 O 0.75608 0.33047 0.22135 0.0
O222 O 0.71907 0.30654 0.29445 0.0
C223 C 0.73642 0.18516 0.23098 0.0
C224 C 0.83305 0.34341 0.29461 0.0
C225 C 0.86333 0.23165 0.20941 0.0
C226 C 0.82497 0.21462 0.34125 0.0
C227 C 0.75841 0.32013 0.18914 0.0
C228 C 0.703 0.28224 0.31196 0.0
O229 O 0.7502 0.2068 0.20857 0.0
O230 O 0.03968 0.54559 0.58046 0.0
Zn231 Zn 0.01549 0.52617 0.5374 0.0
O232 O 0.98641 0.56211 0.51379 0.0
Zn233 Zn 0.93682 0.54647 0.51085 0.0
Zn234 Zn 0.98844 0.60566 0.54106 0.0
Zn235 Zn 0.00515 0.57034 0.46618 0.0
O236 O 0.92177 0.54037 0.46007 0.0
O237 O 0.97307 0.54711 0.42996 0.0
O238 O 0.98707 0.48385 0.55283 0.0
O239 O 0.93246 0.49858 0.53379 0.0
O240 O 0.90245 0.5776 0.53935 0.0
O241 O 0.94198 0.61329 0.56564 0.0
O242 O -0.00365 0.64794 0.50953 0.0
O243 O 0.05653 0.51165 0.50681 0.0
O244 O 0.00586 0.62319 0.45633 0.0
O245 O 0.05567 0.54946 0.46101 0.0
C246 C 0.04325 0.57704 0.59263 0.0
C247 C 0.9399 0.53863 0.43111 0.0
C248 C 0.91014 0.60191 0.56171 0.0
C249 C 0.95378 0.47699 0.54953 0.0
C250 C 0.00205 0.65073 0.47612 0.0
C251 C 0.07118 0.52489 0.4791 0.0
O252 O 0.02655 0.60353 0.57891 0.0
O253 O 0.84347 0.7455 0.34786 0.0
Zn254 Zn 0.80762 0.71645 0.31923 0.0
O255 O 0.78479 0.74659 0.28377 0.0
Zn256 Zn 0.73431 0.75208 0.29295 0.0
Zn257 Zn 0.8052 0.79317 0.28254 0.0
Zn258 Zn 0.79194 0.72535 0.23761 0.0
O259 O 0.70594 0.75003 0.24784 0.0
O260 O 0.74622 0.72677 0.21015 0.0
O261 O 0.76922 0.68966 0.34743 0.0
O262 O 0.71891 0.71275 0.32439 0.0
O263 O 0.72269 0.79902 0.31506 0.0
O264 O 0.77214 0.83023 0.3046 0.0
O265 O 0.81418 0.80769 0.23179 0.0
O266 O 0.83722 0.67813 0.29469 0.0
O267 O 0.82435 0.75458 0.20709 0.0
O268 O 0.81382 0.67645 0.24026 0.0
C269 C 0.86115 0.77257 0.33685 0.0
C270 C 0.71486 0.73904 0.21692 0.0
C271 C 0.73998 0.82817 0.31638 0.0
C272 C 0.73491 0.69037 0.34457 0.0
C273 C 0.82456 0.78847 0.20561 0.0
C274 C 0.83447 0.66349 0.26413 0.0
O275 O 0.85116 0.79118 0.31006 0.0
O276 O 0.76069 0.2712 0.74035 0.0
Zn277 Zn 0.78414 0.30075 0.77759 0.0
O278 O 0.74943 0.3285 0.80486 0.0
Zn279 Zn 0.75839 0.37916 0.79701 0.0
Zn280 Zn 0.70196 0.31709 0.78846 0.0
Zn281 Zn 0.75319 0.31582 0.85522 0.0
O282 O 0.77608 0.40137 0.84227 0.0
O283 O 0.77697 0.35627 0.88116 0.0
O284 O 0.81947 0.33058 0.75182 0.0
O285 O 0.79743 0.38526 0.76015 0.0
O286 O 0.71501 0.40543 0.77727 0.0
O287 O 0.67854 0.35968 0.76812 0.0
O288 O 0.67016 0.30305 0.82826 0.0
O289 O 0.80969 0.26618 0.80789 0.0
O290 O 0.7038 0.30704 0.8769 0.0
O291 O 0.78389 0.27079 0.8613 0.0
C292 C 0.72805 0.26469 0.73311 0.0
C293 C 0.78346 0.38873 0.87304 0.0
C294 C 0.68539 0.39278 0.76614 0.0
C295 C 0.82005 0.36392 0.74563 0.0
C296 C 0.67349 0.30185 0.86196 0.0
C297 C 0.80587 0.25542 0.8398 0.0
O298 O 0.70235 0.27954 0.75033 0.0
O299 O 0.87351 0.89127 0.82422 0.0
Zn300 Zn 0.84568 0.85656 0.85541 0.0
O301 O 0.81952 0.82112 0.82672 0.0
Zn302 Zn 0.7681 0.82568 0.83359 0.0
Zn303 Zn 0.82943 0.8292 0.77688 0.0
Zn304 Zn 0.83328 0.77227 0.8395 0.0
O305 O 0.74589 0.77853 0.84383 0.0
O306 O 0.79178 0.74283 0.85741 0.0
O307 O 0.81067 0.88415 0.88737 0.0
O308 O 0.75848 0.85824 0.87417 0.0
O309 O 0.74179 0.84339 0.79026 0.0
O310 O 0.78486 0.83906 0.74933 0.0
O311 O 0.85042 0.78637 0.75374 0.0
O312 O 0.88292 0.83131 0.8858 0.0
O313 O 0.84976 0.74485 0.79603 0.0
O314 O 0.87284 0.77343 0.87551 0.0
C315 C 0.87724 0.89236 0.79042 0.0
C316 C 0.75812 0.74837 0.85389 0.0
C317 C 0.75219 0.84475 0.7579 0.0
C318 C 0.7769 0.88018 0.89231 0.0
C319 C 0.8554 0.75433 0.76387 0.0
C320 C 0.88997 0.79832 0.89101 0.0
O321 O 0.86219 0.87003 0.76993 0.0
O322 O 0.55811 0.51287 0.46151 0.0
Zn323 Zn 0.52064 0.5036 0.49727 0.0
O324 O 0.48352 0.47357 0.47866 0.0
Zn325 Zn 0.43766 0.4931 0.4938 0.0
Zn326 Zn 0.4877 0.47207 0.42663 0.0
Zn327 Zn 0.48933 0.4264 0.49909 0.0
O328 O 0.40874 0.45855 0.52276 0.0
O329 O 0.44294 0.40971 0.51935 0.0
O330 O 0.50212 0.54992 0.51588 0.0
O331 O 0.44379 0.53867 0.52157 0.0
O332 O 0.40945 0.50629 0.45127 0.0
O333 O 0.44444 0.49661 0.40383 0.0
O334 O 0.49259 0.42056 0.41066 0.0
O335 O 0.54404 0.48179 0.53863 0.0
O336 O 0.50374 0.39152 0.4614 0.0
O337 O 0.52449 0.42609 0.54051 0.0
C338 C 0.55953 0.51031 0.42776 0.0
C339 C 0.41395 0.42545 0.52879 0.0
C340 C 0.41496 0.50776 0.41777 0.0
C341 C 0.47078 0.55885 0.52643 0.0
C342 C 0.50123 0.39205 0.42748 0.0
C343 C 0.5435 0.45125 0.55319 0.0
O344 O 0.53352 0.4973 0.40993 0.0
O345 O -0.00063 0.49189 0.02488 0.0
Zn346 Zn 0.04037 0.50379 0.05668 0.0
O347 O 0.07311 0.53733 0.03354 0.0
Zn348 Zn 0.12168 0.51757 0.0334 0.0
Zn349 Zn 0.05799 0.5459 0.98432 0.0
Zn350 Zn 0.07275 0.58187 0.06016 0.0
O351 O 0.15637 0.54726 0.06166 0.0
O352 O 0.12185 0.59338 0.07786 0.0
O353 O 0.06543 0.45906 0.07288 0.0
O354 O 0.12183 0.4694 0.05617 0.0
O355 O 0.14025 0.51074 0.98379 0.0
O356 O 0.0932 0.52322 0.94923 0.0
O357 O 0.05228 0.59908 0.97494 0.0
O358 O 0.0179 0.52491 0.10032 0.0
O359 O 0.05691 0.6224 0.0293 0.0
O360 O 0.03968 0.5798 0.10303 0.0
C361 C 0.9899 0.50259 -0.00595 0.0
C362 C 0.15213 0.57726 0.07713 0.0
C363 C 0.12548 0.51206 0.95324 0.0
C364 C 0.0983 0.44948 0.07062 0.0
C365 C 0.05104 0.62588 -0.00397 0.0
C366 C 0.01986 0.55514 0.11559 0.0
O367 O 0.00949 0.52366 0.97576 0.0
H368 H 0.2782 0.12194 0.90092 0.0
H369 H 0.20721 0.21215 0.92019 0.0
H370 H 0.23169 0.08148 0.9233 0.0
H371 H 0.16124 0.17184 0.94337 0.0
H372 H 0.09738 0.08559 0.00321 0.0
H373 H 0.15082 0.12181 -0.00636 0.0
H374 H 0.16674 0.07289 0.89028 0.0
H375 H 0.11271 0.03668 0.89948 0.0
C376 C 0.25327 0.13317 0.91136 0.0
C377 C 0.24602 0.17 0.90887 0.0
C378 C 0.22667 0.11007 0.92372 0.0
C379 C 0.19303 0.12375 0.93451 0.0
C380 C 0.18709 0.16083 0.93516 0.0
C381 C 0.21332 0.18382 0.92206 0.0
C382 C 0.11235 0.08237 0.97848 0.0
C383 C 0.10089 0.05846 0.95194 0.0
C384 C 0.14288 0.10302 0.97316 0.0
C385 C 0.16281 0.09966 0.94151 0.0
C386 C 0.15187 0.07539 0.91515 0.0
C387 C 0.12087 0.05508 0.9202 0.0
H388 H 0.03554 0.87325 0.08341 0.0
H389 H 0.10387 0.96613 0.07961 0.0
H390 H 0.0677 0.85205 0.13627 0.0
H391 H 0.13671 0.94452 0.1313 0.0
H392 H 0.1662 0.91532 0.24461 0.0
H393 H 0.1299 0.9365 0.1944 0.0
H394 H 0.12466 0.82852 0.15359 0.0
H395 H 0.15932 0.80736 0.20383 0.0
C396 C 0.05781 0.88874 0.09352 0.0
C397 C 0.06719 0.92129 0.07758 0.0
C398 C 0.07618 0.87673 0.12378 0.0
C399 C 0.10452 0.89686 0.13821 0.0
C400 C 0.11443 0.92888 0.12148 0.0
C401 C 0.09586 0.94104 0.09162 0.0
C402 C 0.15701 0.89619 0.22502 0.0
C403 C 0.16566 0.85975 0.22824 0.0
C404 C 0.13641 0.90827 0.19618 0.0
C405 C 0.12447 0.88414 0.16997 0.0
C406 C 0.13284 0.84772 0.17356 0.0
C407 C 0.15301 0.83566 0.20238 0.0
H408 H 0.42899 0.02594 0.46015 0.0
H409 H 0.44549 0.92639 0.51643 0.0
H410 H 0.37225 0.00405 0.43686 0.0
H411 H 0.38992 0.90339 0.49144 0.0
H412 H 0.28372 0.86947 0.45346 0.0
H413 H 0.32724 0.90339 0.48795 0.0
H414 H 0.35362 0.96472 0.39343 0.0
H415 H 0.30884 0.93234 0.35996 0.0
C416 C 0.42051 -0.00078 0.46734 0.0
C417 C 0.44181 0.97764 0.4897 0.0
C418 C 0.38801 0.9866 0.45392 0.0
C419 C 0.37647 0.95174 0.46184 0.0
C420 C 0.39744 0.93058 0.48513 0.0
C421 C 0.42957 0.94356 0.49921 0.0
C422 C 0.29819 0.89093 0.44046 0.0
C423 C 0.29321 0.89805 0.40397 0.0
C424 C 0.32343 0.91013 0.46009 0.0
C425 C 0.34473 0.93629 0.44338 0.0
C426 C 0.33768 0.94507 0.40748 0.0
C427 C 0.31194 0.92639 0.38811 0.0
H428 H 0.38253 0.09289 0.80657 0.0
H429 H 0.44629 0.1813 0.76917 0.0
H430 H 0.42357 0.05091 0.77583 0.0
H431 H 0.48679 0.14037 0.73876 0.0
H432 H 0.55397 0.07335 0.67851 0.0
H433 H 0.52959 0.09244 0.73608 0.0
H434 H 0.42849 0.04199 0.71086 0.0
H435 H 0.45391 0.02115 0.65414 0.0
C436 C 0.40611 0.1031 0.79294 0.0
C437 C 0.41137 0.14006 0.78968 0.0
C438 C 0.4294 0.07923 0.77522 0.0
C439 C 0.45824 0.09227 0.75456 0.0
C440 C 0.46521 0.12919 0.75468 0.0
C441 C 0.44186 0.1528 0.77186 0.0
C442 C 0.52692 0.06546 0.68591 0.0
C443 C 0.50532 0.04674 0.66182 0.0
C444 C 0.513 0.07625 0.71883 0.0
C445 C 0.47681 0.06961 0.72758 0.0
C446 C 0.45649 0.04751 0.705 0.0
C447 C 0.47083 0.03588 0.67236 0.0
H448 H 0.20952 0.94544 0.49597 0.0
H449 H 0.12809 0.86994 0.52726 0.0
H450 H 0.25647 0.9049 0.51872 0.0
H451 H 0.17447 0.82927 0.54921 0.0
H452 H 0.2835 0.86793 0.63989 0.0
H453 H 0.25951 0.89615 0.58649 0.0
H454 H 0.23228 0.79257 0.54395 0.0
H455 H 0.25643 0.76408 0.59751 0.0
C456 C 0.20195 0.91942 0.50616 0.0
C457 C 0.16557 0.91062 0.51049 0.0
C458 C 0.22867 0.89633 0.51911 0.0
C459 C 0.21901 0.86421 0.53603 0.0
C460 C 0.18276 0.8537 0.53608 0.0
C461 C 0.15615 0.87701 0.5238 0.0
C462 C 0.27322 0.85108 0.6188 0.0
C463 C 0.27082 0.81392 0.62334 0.0
C464 C 0.26001 0.86721 0.58792 0.0
C465 C 0.24382 0.84648 0.56124 0.0
C466 C 0.24455 0.80907 0.56424 0.0
C467 C 0.25814 0.79287 0.595 0.0
H468 H 0.315 0.90159 0.78627 0.0
H469 H 0.41098 0.84048 0.81187 0.0
H470 H 0.3385 0.95254 0.81898 0.0
H471 H 0.43433 0.89164 0.84463 0.0
H472 H 0.37139 0.00365 0.92926 0.0
H473 H 0.34917 0.96175 0.88489 0.0
H474 H 0.45496 0.95588 0.83662 0.0
H475 H 0.4774 -0.00217 0.88098 0.0
C476 C 0.34128 0.8991 0.79852 0.0
C477 C 0.36101 0.86681 0.79672 0.0
C478 C 0.35464 0.9283 0.8173 0.0
C479 C 0.38813 0.92597 0.83434 0.0
C480 C 0.40855 0.89425 0.8314 0.0
C481 C 0.39505 0.86488 0.81288 0.0
C482 C 0.38978 -0.006 0.9088 0.0
C483 C 0.42625 0.00374 0.90894 0.0
C484 C 0.377 0.97011 0.88329 0.0
C485 C 0.40049 0.95531 0.85762 0.0
C486 C 0.43644 0.96659 0.85644 0.0
C487 C 0.44916 0.99078 0.88173 0.0
H488 H 0.40109 0.17944 0.04461 0.0
H489 H 0.35823 0.08928 0.10211 0.0
H490 H 0.37569 0.21998 0.08882 0.0
H491 H 0.33206 0.12999 0.14669 0.0
H492 H 0.36748 0.20247 0.24202 0.0
H493 H 0.36778 0.16207 0.1911 0.0
H494 H 0.32803 0.24733 0.12355 0.0
H495 H 0.3286 0.28805 0.17425 0.0
C496 C 0.38446 0.16855 0.0658 0.0
C497 C 0.38162 0.13147 0.07026 0.0
C498 C 0.36996 0.19173 0.09125 0.0
C499 C 0.35264 0.17808 0.12172 0.0
C500 C 0.34594 0.14113 0.12378 0.0
C501 C 0.36035 0.11788 0.09805 0.0
C502 C 0.3588 0.21261 0.21633 0.0
C503 C 0.34866 0.24863 0.21209 0.0
C504 C 0.35836 0.1893 0.18725 0.0
C505 C 0.3476 0.20144 0.15334 0.0
C506 C 0.3366 0.23724 0.1493 0.0
C507 C 0.33722 0.2606 0.17833 0.0
H508 H 0.09464 0.1179 0.40448 0.0
H509 H 0.18527 0.04731 0.42226 0.0
H510 H 0.13469 0.16278 0.37952 0.0
H511 H 0.22608 0.09305 0.39949 0.0
H512 H 0.28866 0.18081 0.34012 0.0
H513 H 0.24953 0.13027 0.35372 0.0
H514 H 0.17453 0.20233 0.40647 0.0
H515 H 0.21258 0.25251 0.39133 0.0
C516 C 0.12318 0.11184 0.40225 0.0
C517 C 0.13704 0.07935 0.41503 0.0
C518 C 0.14625 0.13769 0.38857 0.0
C519 C 0.1838 0.13205 0.38856 0.0
C520 C 0.19737 0.09836 0.39903 0.0
C521 C 0.17406 0.07208 0.41196 0.0
C522 C 0.2639 0.18562 0.35488 0.0
C523 C 0.2535 0.22055 0.36452 0.0
C524 C 0.24145 0.15671 0.36261 0.0
C525 C 0.20843 0.16222 0.38053 0.0
C526 C 0.19904 0.1971 0.39148 0.0
C527 C 0.22109 0.22591 0.38325 0.0
H528 H 0.8718 0.23827 0.13828 0.0
H529 H 0.91499 0.1839 0.23062 0.0
H530 H 0.90191 0.19526 0.09919 0.0
H531 H 0.94491 0.14026 0.1913 0.0
H532 H 0.00452 0.07761 0.09986 0.0
H533 H 0.989 0.12776 0.13904 0.0
H534 H 0.88185 0.13085 0.09464 0.0
H535 H 0.89714 0.08102 0.05546 0.0
C536 C 0.88878 0.21775 0.15009 0.0
C537 C 0.89082 0.21392 0.1873 0.0
C538 C 0.90571 0.19303 0.12779 0.0
C539 C 0.92473 0.16399 0.14239 0.0
C540 C 0.93018 0.1624 0.1795 0.0
C541 C 0.91329 0.1874 0.20194 0.0
C542 C 0.9776 0.08895 0.09854 0.0
C543 C 0.95204 0.07549 0.07445 0.0
C544 C 0.96883 0.11758 0.12097 0.0
C545 C 0.93454 0.13345 0.11932 0.0
C546 C 0.9088 0.11953 0.09581 0.0
C547 C 0.91741 0.09077 0.07366 0.0
H548 H 0.00648 0.66834 0.40565 0.0
H549 H 0.01156 0.71407 0.51152 0.0
H550 H 0.03434 0.72112 0.3812 0.0
H551 H 0.03912 0.76766 0.48677 0.0
H552 H 0.1033 0.79757 0.33943 0.0
H553 H 0.0461 0.7828 0.36788 0.0
H554 H 0.10159 0.76503 0.46771 0.0
H555 H 0.1582 0.78111 0.43967 0.0
C556 C 0.0125 0.69021 0.42357 0.0
C557 C 0.00844 0.6864 0.46064 0.0
C558 C 0.02805 0.72088 0.40948 0.0
C559 C 0.04005 0.74817 0.43228 0.0
C560 C 0.03099 0.74662 0.46872 0.0
C561 C 0.01531 0.71586 0.48286 0.0
C562 C 0.10301 0.79142 0.36771 0.0
C563 C 0.13529 0.78885 0.38708 0.0
C564 C 0.07025 0.78326 0.38402 0.0
C565 C 0.06948 0.77155 0.41966 0.0
C566 C 0.10111 0.77378 0.44014 0.0
C567 C 0.13379 0.78249 0.42395 0.0
H568 H 0.66853 0.92933 0.56788 0.0
H569 H 0.56994 0.90774 0.62558 0.0
H570 H 0.70227 0.89458 0.61095 0.0
H571 H 0.60384 0.87171 0.66855 0.0
H572 H 0.68578 0.87658 0.7636 0.0
H573 H 0.6445 0.89106 0.71511 0.0
H574 H 0.71704 0.83988 0.63976 0.0
H575 H 0.75883 0.8268 0.68792 0.0
C576 C 0.65391 0.91615 0.5892 0.0
C577 C 0.61675 0.92185 0.59382 0.0
C578 C 0.67324 0.89596 0.61384 0.0
C579 C 0.6558 0.88089 0.64357 0.0
C580 C 0.61807 0.88365 0.64627 0.0
C581 C 0.59863 0.90394 0.62148 0.0
C582 C 0.6927 0.86825 0.73669 0.0
C583 C 0.72584 0.8514 0.72936 0.0
C584 C 0.66888 0.87611 0.70896 0.0
C585 C 0.67763 0.86679 0.67352 0.0
C586 C 0.70985 0.848 0.66665 0.0
C587 C 0.73383 0.84065 0.69423 0.0
H588 H 0.56495 0.40046 0.93489 0.0
H589 H 0.4761 0.39946 0.01007 0.0
H590 H 0.54612 0.34264 0.91182 0.0
H591 H 0.45694 0.34249 0.98654 0.0
H592 H 0.41573 0.24836 0.93775 0.0
H593 H 0.46282 0.27922 0.97109 0.0
H594 H 0.49367 0.33545 0.87488 0.0
H595 H 0.44754 0.30459 0.84201 0.0
C596 C 0.54172 0.38772 0.94683 0.0
C597 C 0.52123 0.40512 0.97342 0.0
C598 C 0.53115 0.35446 0.93381 0.0
C599 C 0.49975 0.33822 0.94695 0.0
C600 C 0.48142 0.35405 0.97593 0.0
C601 C 0.49206 0.38714 0.98904 0.0
C602 C 0.43339 0.26653 0.92367 0.0
C603 C 0.42721 0.27527 0.88773 0.0
C604 C 0.46031 0.28413 0.94269 0.0
C605 C 0.48131 0.31044 0.92584 0.0
C606 C 0.47799 0.31548 0.88882 0.0
C607 C 0.45109 0.29819 0.87001 0.0
H608 H 0.92571 0.78767 0.30728 0.0
H609 H 0.86919 0.78387 0.40808 0.0
H610 H 0.97587 0.81806 0.33561 0.0
H611 H 0.9178 0.81659 0.43622 0.0
H612 H 0.00581 0.87664 0.48366 0.0
H613 H 0.97552 0.82574 0.45694 0.0
H614 H 0.98358 0.87661 0.35329 0.0
H615 H 0.01628 0.92592 0.38001 0.0
C616 C 0.9244 0.79303 0.33571 0.0
C617 C 0.89368 0.78396 0.35559 0.0
C618 C 0.95291 0.81072 0.3519 0.0
C619 C 0.95063 0.82081 0.38803 0.0
C620 C 0.92087 0.80917 0.40843 0.0
C621 C 0.89279 0.79055 0.39236 0.0
C622 C 0.00157 0.8764 0.45504 0.0
C623 C 0.01262 0.90527 0.43382 0.0
C624 C 0.98408 0.84738 0.43974 0.0
C625 C 0.9762 0.84725 0.40305 0.0
C626 C 0.98935 0.87536 0.38157 0.0
C627 C 0.00781 0.9039 0.39681 0.0
H628 H 0.52085 0.59226 0.56735 0.0
H629 H 0.41013 0.59951 0.53269 0.0
H630 H 0.51061 0.64282 0.60795 0.0
H631 H 0.40021 0.65013 0.57255 0.0
H632 H 0.38877 0.74744 0.63003 0.0
H633 H 0.42225 0.71491 0.58399 0.0
H634 H 0.4666 0.64485 0.66462 0.0
H635 H 0.43317 0.67787 0.71088 0.0
C636 C 0.49462 0.60522 0.5678 0.0
C637 C 0.46613 0.59198 0.54711 0.0
C638 C 0.48886 0.63398 0.591 0.0
C639 C 0.45481 0.65039 0.59306 0.0
C640 C 0.42692 0.63826 0.57101 0.0
C641 C 0.43245 0.60914 0.54844 0.0
C642 C 0.40712 0.7262 0.63801 0.0
C643 C 0.40839 0.71473 0.67366 0.0
C644 C 0.4261 0.70758 0.61174 0.0
C645 C 0.4463 0.6771 0.62083 0.0
C646 C 0.45123 0.66841 0.65706 0.0
C647 C 0.43223 0.68724 0.6835 0.0
H648 H 0.52367 0.15302 0.90716 0.0
H649 H 0.52707 0.20181 0.01185 0.0
H650 H 0.55303 0.20511 0.8819 0.0
H651 H 0.55647 0.25403 0.98631 0.0
H652 H 0.60371 0.29988 0.8399 0.0
H653 H 0.5535 0.27139 0.87035 0.0
H654 H 0.62062 0.25306 0.96259 0.0
H655 H 0.67096 0.2817 0.93229 0.0
C656 C 0.52994 0.17516 0.92464 0.0
C657 C 0.52405 0.17283 0.96161 0.0
C658 C 0.5464 0.20521 0.91011 0.0
C659 C 0.55742 0.23332 0.93234 0.0
C660 C 0.54861 0.23245 0.96877 0.0
C661 C 0.53187 0.2025 0.98329 0.0
C662 C 0.60761 0.29043 0.86698 0.0
C663 C 0.64164 0.29192 0.88335 0.0
C664 C 0.57877 0.2743 0.88438 0.0
C665 C 0.58343 0.25953 0.91845 0.0
C666 C 0.61628 0.26439 0.93631 0.0
C667 C 0.64522 0.2805 0.91886 0.0
H668 H 0.15584 0.40653 0.05582 0.0
H669 H 0.07088 0.42448 0.1332 0.0
H670 H 0.19018 0.37325 0.10029 0.0
H671 H 0.1058 0.39247 0.17807 0.0
H672 H 0.1831 0.33348 0.25318 0.0
H673 H 0.14069 0.34186 0.20392 0.0
H674 H 0.21918 0.40638 0.14848 0.0
H675 H 0.26128 0.39782 0.19683 0.0
C676 C 0.14396 0.40217 0.08196 0.0
C677 C 0.11126 0.41875 0.09147 0.0
C678 C 0.16368 0.38339 0.10746 0.0
C679 C 0.15122 0.38159 0.14293 0.0
C680 C 0.11619 0.39371 0.15102 0.0
C681 C 0.09616 0.41203 0.12526 0.0
C682 C 0.19117 0.34952 0.23046 0.0
C683 C 0.22555 0.36503 0.22891 0.0
C684 C 0.167 0.35407 0.20223 0.0
C685 C 0.17695 0.37401 0.17202 0.0
C686 C 0.21112 0.38984 0.17085 0.0
C687 C 0.23511 0.38539 0.19889 0.0
H688 H 0.65034 0.54795 0.90105 0.0
H689 H 0.56894 0.63136 0.90084 0.0
H690 H 0.69301 0.58895 0.87349 0.0
H691 H 0.6116 0.67244 0.87496 0.0
H692 H 0.76775 0.6864 0.8918 0.0
H693 H 0.72492 0.63782 0.89908 0.0
H694 H 0.64987 0.69332 0.83002 0.0
H695 H 0.69183 0.74245 0.82436 0.0
C696 C 0.64118 0.57463 0.89409 0.0
C697 C 0.60652 0.58669 0.90384 0.0
C698 C 0.66581 0.5983 0.8788 0.0
C699 C 0.65612 0.63429 0.87301 0.0
C700 C 0.62018 0.645 0.87901 0.0
C701 C 0.59561 0.62138 0.89404 0.0
C702 C 0.74206 0.68812 0.87827 0.0
C703 C 0.73279 0.71852 0.85822 0.0
C704 C 0.71768 0.66008 0.88196 0.0
C705 C 0.68383 0.66164 0.86515 0.0
C706 C 0.67535 0.69149 0.84389 0.0
C707 C 0.69938 0.71973 0.84076 0.0
H708 H 0.73384 0.38812 0.19761 0.0
H709 H 0.76374 0.3111 0.11627 0.0
H710 H 0.71689 0.43047 0.15219 0.0
H711 H 0.74749 0.35462 0.07001 0.0
H712 H 0.65262 0.42091 0.01545 0.0
H713 H 0.6921 0.38 0.04775 0.0
H714 H 0.73605 0.4692 0.10614 0.0
H715 H 0.69476 0.50967 0.07534 0.0
C716 C 0.7373 0.38034 0.16992 0.0
C717 C 0.74978 0.34603 0.1606 0.0
C718 C 0.72805 0.40498 0.14371 0.0
C719 C 0.73124 0.39618 0.10733 0.0
C720 C 0.74464 0.36216 0.09782 0.0
C721 C 0.75385 0.33725 0.12427 0.0
C722 C 0.67159 0.43182 0.03437 0.0
C723 C 0.67018 0.46815 0.04372 0.0
C724 C 0.69436 0.4084 0.05281 0.0
C725 C 0.71637 0.42124 0.08036 0.0
C726 C 0.71844 0.45837 0.08594 0.0
C727 C 0.69504 0.48158 0.06821 0.0
H728 H 0.86882 0.52478 0.42077 0.0
H729 H 0.97385 0.51156 0.37176 0.0
H730 H 0.844 0.48223 0.37898 0.0
H731 H 0.94865 0.46923 0.32926 0.0
H732 H 0.9024 0.35296 0.31712 0.0
H733 H 0.92857 0.40772 0.34041 0.0
H734 H 0.82933 0.46485 0.31863 0.0
H735 H 0.80287 0.41006 0.29622 0.0
C736 C 0.88641 0.51358 0.40038 0.0
C737 C 0.92345 0.52092 0.40008 0.0
C738 C 0.87211 0.4893 0.37623 0.0
C739 C 0.89455 0.47189 0.35124 0.0
C740 C 0.93091 0.48176 0.34872 0.0
C741 C 0.94524 0.50621 0.37288 0.0
C742 C 0.88634 0.3773 0.31694 0.0
C743 C 0.85036 0.37701 0.30558 0.0
C744 C 0.90143 0.40877 0.32992 0.0
C745 C 0.88088 0.44055 0.33153 0.0
C746 C 0.84561 0.44065 0.31821 0.0
C747 C 0.83047 0.40921 0.30549 0.0
H748 H 0.62696 0.51674 0.45417 0.0
H749 H 0.56218 0.54138 0.36166 0.0
H750 H 0.67339 0.55726 0.43302 0.0
H751 H 0.60905 0.5818 0.3402 0.0
H752 H 0.75716 0.62491 0.37016 0.0
H753 H 0.71845 0.5743 0.38543 0.0
H754 H 0.62424 0.6407 0.36855 0.0
H755 H 0.66237 0.69086 0.35355 0.0
C756 C 0.62316 0.53008 0.42875 0.0
C757 C 0.59074 0.52652 0.40982 0.0
C758 C 0.64982 0.55314 0.41661 0.0
C759 C 0.6444 0.57318 0.38545 0.0
C760 C 0.61349 0.56707 0.36474 0.0
C761 C 0.58685 0.54373 0.37678 0.0
C762 C 0.7282 0.6288 0.3704 0.0
C763 C 0.71282 0.66181 0.36048 0.0
C764 C 0.70611 0.59978 0.37874 0.0
C765 C 0.66841 0.60339 0.37707 0.0
C766 C 0.65321 0.63684 0.36885 0.0
C767 C 0.67512 0.66571 0.36075 0.0
H768 H 0.81649 0.36726 0.93454 0.0
H769 H 0.79923 0.45982 0.86724 0.0
H770 H 0.86236 0.39928 0.96716 0.0
H771 H 0.84451 0.49229 0.90073 0.0
H772 H 0.96518 0.50944 0.92571 0.0
H773 H 0.90921 0.48669 0.90145 0.0
H774 H 0.87928 0.4471 0.00589 0.0
H775 H 0.93579 0.46884 0.02993 0.0
C776 C 0.82172 0.3948 0.92734 0.0
C777 C 0.80473 0.41074 0.89782 0.0
C778 C 0.84799 0.41325 0.94618 0.0
C779 C 0.85756 0.44813 0.93609 0.0
C780 C 0.83835 0.46512 0.90854 0.0
C781 C 0.81224 0.44659 0.88953 0.0
C782 C 0.94657 0.49607 0.94353 0.0
C783 C 0.95514 0.49052 0.9796 0.0
C784 C 0.91429 0.48334 0.92972 0.0
C785 C 0.88977 0.46507 0.95177 0.0
C786 C 0.89783 0.46062 0.98812 0.0
C787 C 0.93022 0.47309 0.00186 0.0
H788 H 0.8794 0.77367 0.15969 0.0
H789 H 0.78412 0.83917 0.17349 0.0
H790 H 0.89079 0.80167 0.1021 0.0
H791 H 0.79328 0.8652 0.11456 0.0
H792 H 0.85957 0.94321 0.04571 0.0
H793 H 0.82988 0.90682 0.08968 0.0
H794 H 0.8778 0.81172 0.04268 0.0
H795 H 0.90986 0.84903 -9e-05 0.0
C796 C 0.86076 0.7939 0.15 0.0
C797 C 0.83168 0.80529 0.17113 0.0
C798 C 0.86674 0.80948 0.1167 0.0
C799 C 0.84298 0.83593 0.10346 0.0
C800 C 0.8127 0.84571 0.12414 0.0
C801 C 0.80747 0.83097 0.15792 0.0
C802 C 0.86296 0.91445 0.044 0.0
C803 C 0.88803 0.89903 0.0203 0.0
C804 C 0.8457 0.89334 0.0693 0.0
C805 C 0.85249 0.85629 0.07074 0.0
C806 C 0.87328 0.84036 0.04339 0.0
C807 C 0.89132 0.86164 0.0186 0.0
H808 H 0.85245 0.21632 0.7989 0.0
H809 H 0.80328 0.2197 0.90393 0.0
H810 H 0.88091 0.15965 0.81317 0.0
H811 H 0.83302 0.16305 0.91861 0.0
H812 H 0.86188 0.04658 0.92321 0.0
H813 H 0.83032 0.09993 0.90238 0.0
H814 H 0.92782 0.13556 0.8503 0.0
H815 H 0.95916 0.08184 0.87041 0.0
C816 C 0.84799 0.20519 0.82526 0.0
C817 C 0.82549 0.22258 0.85033 0.0
C818 C 0.86445 0.17266 0.83339 0.0
C819 C 0.85905 0.15678 0.86687 0.0
C820 C 0.83712 0.17438 0.89229 0.0
C821 C 0.82043 0.20699 0.88407 0.0
C822 C 0.87635 0.06543 0.90662 0.0
C823 C 0.9131 0.06024 0.89874 0.0
C824 C 0.85838 0.09616 0.89508 0.0
C825 C 0.87682 0.1223 0.87548 0.0
C826 C 0.91286 0.11587 0.86538 0.0
C827 C 0.93081 0.085 0.87678 0.0
H828 H 0.7746 0.21933 0.69816 0.0
H829 H 0.66319 0.25426 0.70148 0.0
H830 H 0.76055 0.17832 0.64931 0.0
H831 H 0.6494 0.21348 0.65311 0.0
H832 H 0.63315 0.16127 0.55263 0.0
H833 H 0.66422 0.20599 0.58799 0.0
H834 H 0.7215 0.12206 0.64389 0.0
H835 H 0.69081 0.07716 0.60768 0.0
C836 C 0.74721 0.21839 0.68837 0.0
C837 C 0.71993 0.23996 0.70367 0.0
C838 C 0.73928 0.19496 0.6605 0.0
C839 C 0.7041 0.19319 0.64721 0.0
C840 C 0.67697 0.21491 0.66236 0.0
C841 C 0.68477 0.23798 0.69034 0.0
C842 C 0.65342 0.1525 0.57154 0.0
C843 C 0.65933 0.11599 0.57802 0.0
C844 C 0.67101 0.17801 0.59183 0.0
C845 C 0.6944 0.16731 0.61922 0.0
C846 C 0.70347 0.13091 0.62293 0.0
C847 C 0.68603 0.10526 0.60225 0.0
H848 H 0.58291 0.98348 0.39279 0.0
H849 H 0.68244 0.00364 0.44847 0.0
H850 H 0.61554 0.94525 0.35052 0.0
H851 H 0.71465 0.96499 0.40699 0.0
H852 H 0.67074 0.83349 0.34022 0.0
H853 H 0.63999 0.88569 0.36409 0.0
H854 H 0.7356 0.94868 0.34707 0.0
H855 H 0.76694 0.8959 0.32348 0.0
C856 C 0.61184 0.98057 0.39543 0.0
C857 C 0.62999 -0.00422 0.42442 0.0
C858 C 0.63047 0.95853 0.37139 0.0
C859 C 0.66747 0.95153 0.37598 0.0
C860 C 0.68618 0.96982 0.40272 0.0
C861 C 0.66761 0.99175 0.4267 0.0
C862 C 0.68529 0.85844 0.34135 0.0
C863 C 0.72147 0.8604 0.33035 0.0
C864 C 0.66742 0.88855 0.35456 0.0
C865 C 0.68526 0.92138 0.35713 0.0
C866 C 0.72122 0.92366 0.34542 0.0
C867 C 0.73917 0.89343 0.33208 0.0
H868 H 0.81695 0.14456 0.35861 0.0
H869 H 0.87082 0.24103 0.39061 0.0
H870 H 0.85324 0.11009 0.40055 0.0
H871 H 0.90529 0.20736 0.43462 0.0
H872 H -0.00127 0.13246 0.4605 0.0
H873 H 0.95423 0.16954 0.43129 0.0
H874 H 0.87173 0.09254 0.45723 0.0
H875 H 0.91734 0.05415 0.48484 0.0
C876 C 0.8358 0.15848 0.37555 0.0
C877 C 0.84162 0.19522 0.37114 0.0
C878 C 0.85652 0.13881 0.3998 0.0
C879 C 0.88284 0.15574 0.42066 0.0
C880 C 0.88625 0.19314 0.41819 0.0
C881 C 0.86631 0.21256 0.39324 0.0
C882 C 0.97102 0.12359 0.46041 0.0
C883 C 0.96159 0.09027 0.47476 0.0
C884 C 0.94526 0.1451 0.44385 0.0
C885 C 0.90912 0.13424 0.44182 0.0
C886 C 0.89937 0.10154 0.45767 0.0
C887 C 0.92542 0.07961 0.47369 0.0
H888 H 0.73548 0.15323 0.16555 0.0
H889 H 0.67973 0.15685 0.26719 0.0
H890 H 0.68703 0.11698 0.14096 0.0
H891 H 0.63092 0.12143 0.24212 0.0
H892 H 0.53949 0.1283 0.14776 0.0
H893 H 0.58905 0.14667 0.18625 0.0
H894 H 0.65076 0.05379 0.15372 0.0
H895 H 0.60097 0.03473 0.11593 0.0
C896 C 0.7133 0.14561 0.18279 0.0
C897 C 0.7112 0.15797 0.21813 0.0
C898 C 0.68576 0.12479 0.16882 0.0
C899 C 0.65546 0.11668 0.18979 0.0
C900 C 0.65418 0.1274 0.22563 0.0
C901 C 0.68212 0.14752 0.23987 0.0
C902 C 0.56323 0.11132 0.1496 0.0
C903 C 0.56653 0.08027 0.12875 0.0
C904 C 0.59141 0.12171 0.1717 0.0
C905 C 0.62349 0.10155 0.17267 0.0
C906 C 0.62613 0.06957 0.15332 0.0
C907 C 0.59764 0.05874 0.13185 0.0
H908 H 0.72852 0.85749 0.94056 0.0
H909 H 0.77935 0.95266 0.90007 0.0
H910 H 0.68308 0.89382 0.97062 0.0
H911 H 0.73342 0.98962 0.93034 0.0
H912 H 0.60989 0.96521 0.0307 0.0
H913 H 0.66825 0.93915 0.01571 0.0
H914 H 0.66764 -0.00446 0.91497 0.0
H915 H 0.60932 0.02234 0.93019 0.0
C916 C 0.73058 0.88636 0.93924 0.0
C917 C 0.75713 0.90243 0.91807 0.0
C918 C 0.70463 0.9072 0.95648 0.0
C919 C 0.7045 0.94454 0.95247 0.0
C920 C 0.73278 0.96084 0.93352 0.0
C921 C 0.7592 0.93983 0.9166 0.0
C922 C 0.62219 0.97226 0.00539 0.0
C923 C 0.6046 -0.00468 0.98128 0.0
C924 C 0.65574 0.95747 -0.00304 0.0
C925 C 0.67242 0.96525 0.96419 0.0
C926 C 0.65562 0.98945 0.94067 0.0
C927 C 0.62201 0.0044 0.94916 0.0
H928 H 0.04753 0.97258 0.65387 0.0
H929 H 0.94707 0.96379 0.59676 0.0
H930 H 0.01568 0.96352 0.71025 0.0
H931 H 0.91555 0.95353 0.65269 0.0
H932 H 0.94977 0.8889 0.78778 0.0
H933 H 0.98681 0.91583 0.7412 0.0
H934 H 0.89528 0.97941 0.70707 0.0
H935 H 0.85809 0.95083 0.75264 0.0
C936 C 0.01867 0.96852 0.65333 0.0
C937 C -0.00018 0.96866 0.62081 0.0
C938 C 0.00044 0.96342 0.68566 0.0
C939 C 0.96301 0.95811 0.68612 0.0
C940 C 0.94423 0.95848 0.65354 0.0
C941 C 0.96238 0.96388 0.62132 0.0
C942 C 0.93818 0.9098 0.77125 0.0
C943 C 0.90135 0.91805 0.77358 0.0
C944 C 0.95929 0.92518 0.74444 0.0
C945 C 0.94373 0.9491 0.71975 0.0
C946 C 0.90779 0.96029 0.72499 0.0
C947 C 0.88662 0.94448 0.7514 0.0
H948 H 0.15849 0.75887 0.81068 0.0
H949 H 0.19161 0.86477 0.77901 0.0
H950 H 0.10174 0.78333 0.83323 0.0
H951 H 0.13584 0.88951 0.80299 0.0
H952 H 0.03234 0.93079 0.83906 0.0
H953 H 0.07261 0.89632 0.80041 0.0
H954 H 0.08443 0.81668 0.88348 0.0
H955 H 0.04312 0.85005 0.92114 0.0
C956 C 0.15365 0.78741 0.80863 0.0
C957 C 0.17967 0.81002 0.79359 0.0
C958 C 0.12112 0.80143 0.82151 0.0
C959 C 0.1142 0.83843 0.82017 0.0
C960 C 0.13982 0.86081 0.80393 0.0
C961 C 0.17207 0.84671 0.79054 0.0
C962 C 0.04282 0.90544 0.84865 0.0
C963 C 0.03546 0.89371 0.88357 0.0
C964 C 0.06611 0.8858 0.8266 0.0
C965 C 0.08274 0.85433 0.83924 0.0
C966 C 0.0723 0.8408 0.87275 0.0
C967 C 0.04869 0.86017 0.89458 0.0
H968 H 0.88469 0.45314 0.54737 0.0
H969 H 0.98697 0.43486 0.59962 0.0
H970 H 0.85443 0.4201 0.59458 0.0
H971 H 0.95632 0.40165 0.64679 0.0
H972 H 0.87778 0.32911 0.71548 0.0
H973 H 0.91244 0.34795 0.66303 0.0
H974 H 0.85126 0.44663 0.65956 0.0
H975 H 0.81682 0.42825 0.71178 0.0
C976 C 0.90088 0.44116 0.56828 0.0
C977 C 0.93806 0.44753 0.57038 0.0
C978 C 0.8835 0.4224 0.59532 0.0
C979 C 0.90308 0.40943 0.62459 0.0
C980 C 0.94075 0.41178 0.6245 0.0
C981 C 0.95821 0.43075 0.59747 0.0
C982 C 0.87204 0.35501 0.70373 0.0
C983 C 0.84445 0.37716 0.71759 0.0
C984 C 0.89177 0.36561 0.67376 0.0
C985 C 0.88376 0.39821 0.65702 0.0
C986 C 0.85723 0.42092 0.67165 0.0
C987 C 0.83787 0.4106 0.70178 0.0
H988 H 0.5101 0.13061 0.42914 0.0
H989 H 0.5123 0.18027 0.53342 0.0
H990 H 0.49037 0.18651 0.40305 0.0
H991 H 0.49336 0.23706 0.50688 0.0
H992 H 0.46421 0.28447 0.35396 0.0
H993 H 0.50535 0.24628 0.38768 0.0
H994 H 0.43827 0.25995 0.48163 0.0
H995 H 0.39847 0.29977 0.44813 0.0
C996 C 0.50681 0.15362 0.44646 0.0
C997 C 0.51232 0.15085 0.4834 0.0
C998 C 0.496 0.18595 0.43141 0.0
C999 C 0.49066 0.21646 0.45284 0.0
C1000 C 0.4971 0.214 0.48971 0.0
C1001 C 0.5078 0.18146 0.50487 0.0
C1002 C 0.45928 0.28038 0.38222 0.0
C1003 C 0.4281 0.2942 0.39852 0.0
C1004 C 0.48255 0.25835 0.40145 0.0
C1005 C 0.47423 0.24895 0.43689 0.0
C1006 C 0.4454 0.26649 0.45433 0.0
C1007 C 0.42252 0.28925 0.4352 0.0
H1008 H 0.5434 0.67575 0.07904 0.0
H1009 H 0.64906 0.63699 0.04891 0.0
H1010 H 0.57102 0.72416 0.11352 0.0
H1011 H 0.67658 0.68461 0.0825 0.0
H1012 H 0.72792 0.75643 0.14804 0.0
H1013 H 0.68814 0.74635 0.09747 0.0
H1014 H 0.60366 0.71394 0.17023 0.0
H1015 H 0.64298 0.72583 0.22075 0.0
C1016 C 0.57243 0.67853 0.07876 0.0
C1017 C 0.5944 0.65271 0.06215 0.0
C1018 C 0.58818 0.70605 0.09839 0.0
C1019 C 0.62592 0.70803 0.10096 0.0
C1020 C 0.64745 0.68424 0.08085 0.0
C1021 C 0.6318 0.65664 0.0619 0.0
C1022 C 0.70044 0.74817 0.1531 0.0
C1023 C 0.68866 0.74054 0.18789 0.0
C1024 C 0.67763 0.74273 0.12427 0.0
C1025 C 0.64322 0.72839 0.12987 0.0
C1026 C 0.63004 0.72501 0.16502 0.0
C1027 C 0.65265 0.73131 0.19396 0.0
H1028 H 0.18252 0.20609 0.74258 0.0
H1029 H 0.2733 0.13855 0.71354 0.0
H1030 H 0.14515 0.17441 0.69917 0.0
H1031 H 0.23644 0.10775 0.67045 0.0
H1032 H 0.15365 0.03418 0.62638 0.0
H1033 H 0.18471 0.06684 0.67263 0.0
H1034 H 0.14235 0.16641 0.63119 0.0
H1035 H 0.1104 0.13353 0.58464 0.0
C1036 C 0.19441 0.18446 0.72716 0.0
C1037 C 0.23082 0.17478 0.73155 0.0
C1038 C 0.17315 0.16659 0.7022 0.0
C1039 C 0.18794 0.1386 0.68164 0.0
C1040 C 0.2242 0.12889 0.68629 0.0
C1041 C 0.24536 0.14672 0.71091 0.0
C1042 C 0.15078 0.06303 0.62697 0.0
C1043 C 0.12984 0.08129 0.60151 0.0
C1044 C 0.16863 0.08171 0.65353 0.0
C1045 C 0.16612 0.11911 0.65527 0.0
C1046 C 0.1445 0.1375 0.6305 0.0
C1047 C 0.1265 0.11872 0.60375 0.0
H1048 H 0.66306 0.34248 0.30154 0.0
H1049 H 0.65958 0.23874 0.35257 0.0
H1050 H 0.6034 0.35604 0.32382 0.0
H1051 H 0.59881 0.25244 0.37483 0.0
H1052 H 0.53508 0.33243 0.4536 0.0
H1053 H 0.57663 0.29477 0.4202 0.0
H1054 H 0.53932 0.34206 0.32161 0.0
H1055 H 0.49851 0.38095 0.3552 0.0
C1056 C 0.64945 0.32238 0.31734 0.0
C1057 C 0.66636 0.28974 0.32574 0.0
C1058 C 0.61482 0.32992 0.32959 0.0
C1059 C 0.59611 0.30508 0.35067 0.0
C1060 C 0.61258 0.27201 0.35851 0.0
C1061 C 0.6474 0.26432 0.346 0.0
C1062 C 0.53485 0.33412 0.42472 0.0
C1063 C 0.51499 0.36099 0.4071 0.0
C1064 C 0.55855 0.31221 0.40551 0.0
C1065 C 0.56226 0.31662 0.36844 0.0
C1066 C 0.53783 0.33908 0.35037 0.0
C1067 C 0.51445 0.36133 0.3696 0.0
H1068 H 0.3758 0.96089 0.07191 0.0
H1069 H 0.48033 0.9328 0.11484 0.0
H1070 H 0.34697 0.92587 0.11853 0.0
H1071 H 0.45113 0.89789 0.16172 0.0
H1072 H 0.37689 0.81834 0.22548 0.0
H1073 H 0.40957 0.84469 0.1751 0.0
H1074 H 0.34454 0.9406 0.18445 0.0
H1075 H 0.31199 0.91472 0.23434 0.0
C1076 C 0.39268 0.94678 0.09088 0.0
C1077 C 0.43033 0.95021 0.09008 0.0
C1078 C 0.37614 0.92688 0.11766 0.0
C1079 C 0.39689 0.90995 0.14406 0.0
C1080 C 0.4346 0.91086 0.14168 0.0
C1081 C 0.45123 0.93089 0.11487 0.0
C1082 C 0.36987 0.8452 0.21701 0.0
C1083 C 0.34162 0.86432 0.23372 0.0
C1084 C 0.38852 0.86017 0.18819 0.0
C1085 C 0.37895 0.89427 0.17555 0.0
C1086 C 0.35179 0.91386 0.19316 0.0
C1087 C 0.33338 0.89911 0.22196 0.0
H1088 H 0.03132 0.68443 0.03533 0.0
H1089 H 0.04262 0.64706 0.92646 0.0
H1090 H 5e-05 0.73788 0.0141 0.0
H1091 H 0.01168 0.7009 0.90543 0.0
H1092 H 0.96072 0.80469 0.87499 0.0
H1093 H 0.01023 0.77161 0.90362 0.0
H1094 H 0.93636 0.73444 0.9848 0.0
H1095 H 0.88706 0.76668 0.95566 0.0
C1096 C 0.02803 0.688 0.00681 0.0
C1097 C 0.03881 0.66112 0.98257 0.0
C1098 C 0.01021 0.71868 -0.00524 0.0
C1099 C 0.0034 0.72333 0.95825 0.0
C1100 C 0.01692 0.69805 0.93374 0.0
C1101 C 0.03431 0.66708 0.94581 0.0
C1102 C 0.95559 0.79047 0.89971 0.0
C1103 C 0.92045 0.78796 0.91338 0.0
C1104 C 0.98373 0.7715 0.9159 0.0
C1105 C 0.97695 0.75042 0.94622 0.0
C1106 C 0.94234 0.75078 0.96164 0.0
C1107 C 0.91415 0.76909 0.94504 0.0
H1108 H 0.5559 0.49735 0.16612 0.0
H1109 H 0.44906 0.52164 0.12727 0.0
H1110 H 0.53002 0.47798 0.22329 0.0
H1111 H 0.42345 0.5031 0.1843 0.0
H1112 H 0.3825 0.47297 0.28973 0.0
H1113 H 0.42135 0.51192 0.25368 0.0
H1114 H 0.48944 0.42113 0.22787 0.0
H1115 H 0.45027 0.38246 0.26306 0.0
C1116 C 0.52705 0.49955 0.17021 0.0
C1117 C 0.50433 0.51034 0.14223 0.0
C1118 C 0.51233 0.48859 0.20285 0.0
C1119 C 0.47482 0.48917 0.20811 0.0
C1120 C 0.45249 0.50283 0.1811 0.0
C1121 C 0.46708 0.51301 0.14833 0.0
C1122 C 0.40657 0.46184 0.27736 0.0
C1123 C 0.41359 0.42499 0.27866 0.0
C1124 C 0.42868 0.48398 0.25683 0.0
C1125 C 0.45822 0.4694 0.23798 0.0
C1126 C 0.4671 0.4331 0.24245 0.0
C1127 C 0.44465 0.41095 0.26233 0.0
H1128 H 0.41863 0.52959 0.94157 0.0
H1129 H 0.424 0.62351 0.00816 0.0
H1130 H 0.37497 0.56025 0.90298 0.0
H1131 H 0.37964 0.65366 0.97038 0.0
H1132 H 0.29212 0.69228 0.88921 0.0
H1133 H 0.31259 0.65002 0.93546 0.0
H1134 H 0.40313 0.61998 0.86882 0.0
H1135 H 0.38366 0.66263 0.82348 0.0
C1136 C 0.40892 0.55599 0.94901 0.0
C1137 C 0.42457 0.57445 0.97748 0.0
C1138 C 0.38414 0.5735 0.92696 0.0
C1139 C 0.37432 0.60924 0.9338 0.0
C1140 C 0.38665 0.62601 0.96484 0.0
C1141 C 0.41201 0.60884 0.98634 0.0
C1142 C 0.3163 0.67649 0.88456 0.0
C1143 C 0.33665 0.68097 0.85311 0.0
C1144 C 0.32775 0.65227 0.91076 0.0
C1145 C 0.35892 0.63147 0.90517 0.0
C1146 C 0.37858 0.63528 0.87331 0.0
C1147 C 0.36776 0.66004 0.84769 0.0
H1148 H 0.04767 0.63465 0.637 0.0
H1149 H 0.09928 0.53357 0.61174 0.0
H1150 H 0.09689 0.64872 0.67741 0.0
H1151 H 0.14872 0.54804 0.65189 0.0
H1152 H 0.18144 0.66046 0.75897 0.0
H1153 H 0.13093 0.62731 0.73464 0.0
H1154 H 0.19488 0.59962 0.6419 0.0
H1155 H 0.24541 0.63307 0.66584 0.0
C1156 C 0.06916 0.6152 0.64058 0.0
C1157 C 0.06985 0.58324 0.62097 0.0
C1158 C 0.09714 0.62309 0.66392 0.0
C1159 C 0.12648 0.59939 0.66762 0.0
C1160 C 0.12632 0.56665 0.64941 0.0
C1161 C 0.09803 0.55845 0.62652 0.0
C1162 C 0.18517 0.64644 0.73388 0.0
C1163 C 0.21716 0.64996 0.71391 0.0
C1164 C 0.1562 0.62757 0.72001 0.0
C1165 C 0.15903 0.6114 0.68633 0.0
C1166 C 0.19214 0.61182 0.66804 0.0
C1167 C 0.22097 0.63113 0.68164 0.0
H1168 H 0.32236 0.26776 0.67079 0.0
H1169 H 0.36048 0.35873 0.73061 0.0
H1170 H 0.32657 0.3021 0.61579 0.0
H1171 H 0.36558 0.39274 0.67535 0.0
H1172 H 0.40759 0.35345 0.53426 0.0
H1173 H 0.37936 0.32125 0.58293 0.0
H1174 H 0.33481 0.42037 0.62392 0.0
H1175 H 0.36387 0.45292 0.57525 0.0
C1176 C 0.33164 0.29511 0.67222 0.0
C1177 C 0.34182 0.31037 0.70493 0.0
C1178 C 0.33382 0.31478 0.64073 0.0
C1179 C 0.34647 0.35 0.64128 0.0
C1180 C 0.35518 0.3658 0.67417 0.0
C1181 C 0.35276 0.34618 0.70576 0.0
C1182 C 0.39098 0.36828 0.5531 0.0
C1183 C 0.38864 0.40572 0.55158 0.0
C1184 C 0.37455 0.34979 0.58088 0.0
C1185 C 0.35548 0.36846 0.60759 0.0
C1186 C 0.34997 0.4055 0.60398 0.0
C1187 C 0.36635 0.42404 0.57601 0.0
H1188 H 0.2908 0.71445 0.20193 0.0
H1189 H 0.2057 0.66688 0.26466 0.0
H1190 H 0.27952 0.67179 0.15383 0.0
H1191 H 0.19528 0.62368 0.21692 0.0
H1192 H 0.17544 0.64545 0.07581 0.0
H1193 H 0.21265 0.67424 0.12092 0.0
H1194 H 0.22887 0.5725 0.17322 0.0
H1195 H 0.1927 0.54334 0.12701 0.0
C1196 C 0.27058 0.69411 0.20595 0.0
C1197 C 0.24871 0.69421 0.23674 0.0
C1198 C 0.26426 0.66975 0.17849 0.0
C1199 C 0.23669 0.6446 0.18192 0.0
C1200 C 0.21699 0.64265 0.21396 0.0
C1201 C 0.22272 0.66751 0.24106 0.0
C1202 C 0.18826 0.6291 0.0961 0.0
C1203 C 0.18145 0.59236 0.09815 0.0
C1204 C 0.20957 0.64546 0.12176 0.0
C1205 C 0.22346 0.62544 0.15035 0.0
C1206 C 0.21858 0.58827 0.15117 0.0
C1207 C 0.19807 0.57169 0.12481 0.0
H1208 H 0.70257 0.44574 0.71949 0.0
H1209 H 0.61286 0.38745 0.76364 0.0
H1210 H 0.66521 0.46461 0.6694 0.0
H1211 H 0.57514 0.40701 0.71413 0.0
H1212 H 0.58322 0.50116 0.58785 0.0
H1213 H 0.61294 0.49558 0.64517 0.0
H1214 H 0.57881 0.38561 0.65245 0.0
H1215 H 0.54805 0.39138 0.59531 0.0
C1216 C 0.67438 0.43845 0.71934 0.0
C1217 C 0.66062 0.41478 0.74493 0.0
C1218 C 0.65301 0.44903 0.69057 0.0
C1219 C 0.61761 0.43629 0.68739 0.0
C1220 C 0.60269 0.41626 0.71539 0.0
C1221 C 0.62408 0.40547 0.74391 0.0
C1222 C 0.58202 0.47569 0.60158 0.0
C1223 C 0.56332 0.44658 0.58693 0.0
C1224 C 0.59906 0.47262 0.63447 0.0
C1225 C 0.5979 0.44036 0.65343 0.0
C1226 C 0.57945 0.41113 0.63876 0.0
C1227 C 0.56225 0.41422 0.60583 0.0
H1228 H 0.89984 0.64789 0.29368 0.0
H1229 H 0.82706 0.61523 0.2103 0.0
H1230 H 0.94808 0.6125 0.266 0.0
H1231 H 0.87511 0.57983 0.18293 0.0
H1232 H 0.96565 0.51361 0.14189 0.0
H1233 H 0.92155 0.5297 0.18778 0.0
H1234 H 0.97716 0.62889 0.20606 0.0
H1235 H 0.02129 0.61302 0.16019 0.0
C1236 C 0.89378 0.63217 0.27021 0.0
C1237 C 0.8599 0.6348 0.25372 0.0
C1238 C 0.92144 0.61209 0.25432 0.0
C1239 C 0.91539 0.5939 0.22213 0.0
C1240 C 0.88049 0.59351 0.20782 0.0
C1241 C 0.85302 0.61394 0.22337 0.0
C1242 C 0.96894 0.53855 0.15617 0.0
C1243 C -0.00339 0.56239 0.14696 0.0
C1244 C 0.94369 0.54766 0.18245 0.0
C1245 C 0.94592 0.58052 0.2003 0.0
C1246 C 0.97503 0.60318 0.19294 0.0
C1247 C 8e-05 0.59427 0.1664 0.0
H1248 H 0.89629 0.5734 0.62579 0.0
H1249 H 0.86824 0.6611 0.55627 0.0
H1250 H 0.87741 0.60837 0.67752 0.0
H1251 H 0.84749 0.69584 0.60777 0.0
H1252 H 0.88695 0.7642 0.69926 0.0
H1253 H 0.88803 0.72291 0.64929 0.0
H1254 H 0.83674 0.64258 0.71475 0.0
H1255 H 0.83672 0.68387 0.76537 0.0
C1256 C 0.88385 0.59939 0.62154 0.0
C1257 C 0.88349 0.61477 0.58739 0.0
C1258 C 0.87326 0.61955 0.65116 0.0
C1259 C 0.86209 0.65527 0.64676 0.0
C1260 C 0.85707 0.66872 0.61198 0.0
C1261 C 0.86819 0.6487 0.58244 0.0
C1262 C 0.87635 0.73755 0.70311 0.0
C1263 C 0.86187 0.72718 0.73615 0.0
C1264 C 0.87631 0.7141 0.67431 0.0
C1265 C 0.86139 0.67984 0.67775 0.0
C1266 C 0.84817 0.66889 0.71122 0.0
C1267 C 0.84852 0.69236 0.74027 0.0
H1268 H 0.42756 0.54279 0.35461 0.0
H1269 H 0.34573 0.52461 0.43492 0.0
H1270 H 0.39596 0.59703 0.33597 0.0
H1271 H 0.31564 0.57951 0.41817 0.0
H1272 H 0.26563 0.68248 0.38143 0.0
H1273 H 0.28509 0.62022 0.38331 0.0
H1274 H 0.39509 0.653 0.36425 0.0
H1275 H 0.37494 0.71496 0.3601 0.0
C1276 C 0.40224 0.54971 0.3675 0.0
C1277 C 0.3898 0.53026 0.39708 0.0
C1278 C 0.38447 0.58118 0.35732 0.0
C1279 C 0.35426 0.59365 0.37676 0.0
C1280 C 0.33904 0.57124 0.4028 0.0
C1281 C 0.35644 0.53962 0.41254 0.0
C1282 C 0.29406 0.67631 0.37829 0.0
C1283 C 0.31894 0.70348 0.3712 0.0
C1284 C 0.3052 0.64058 0.37902 0.0
C1285 C 0.34164 0.63134 0.37346 0.0
C1286 C 0.36663 0.65884 0.3675 0.0
C1287 C 0.35532 0.69447 0.36595 0.0
H1288 H 0.20177 0.3429 0.81189 0.0
H1289 H 0.2851 0.36835 0.88747 0.0
H1290 H 0.16851 0.39673 0.82926 0.0
H1291 H 0.25109 0.42051 0.9068 0.0
H1292 H 0.19554 0.51914 0.93354 0.0
H1293 H 0.2304 0.47734 0.89697 0.0
H1294 H 0.13292 0.4189 0.87446 0.0
H1295 H 0.09821 0.46258 0.90847 0.0
C1296 C 0.21278 0.35994 0.83245 0.0
C1297 C 0.24586 0.35142 0.84852 0.0
C1298 C 0.1937 0.39078 0.84252 0.0
C1299 C 0.20687 0.41329 0.86955 0.0
C1300 C 0.24029 0.40466 0.88525 0.0
C1301 C 0.25972 0.37439 0.87453 0.0
C1302 C 0.1816 0.49811 0.91946 0.0
C1303 C 0.14435 0.4939 0.92373 0.0
C1304 C 0.20156 0.47373 0.89901 0.0
C1305 C 0.18483 0.44381 0.88364 0.0
C1306 C 0.14698 0.44149 0.8856 0.0
C1307 C 0.12691 0.46659 0.90513 0.0
H1308 H 0.28092 0.46085 0.38693 0.0
H1309 H 0.22394 0.36941 0.42807 0.0
H1310 H 0.23561 0.50087 0.41443 0.0
H1311 H 0.1795 0.40886 0.45582 0.0
H1312 H 0.10846 0.53539 0.41623 0.0
H1313 H 0.16608 0.50758 0.39895 0.0
H1314 H 0.17346 0.45787 0.50279 0.0
H1315 H 0.11639 0.48505 0.52001 0.0
C1316 C 0.2594 0.4495 0.40285 0.0
C1317 C 0.25566 0.41227 0.40562 0.0
C1318 C 0.23345 0.47224 0.41819 0.0
C1319 C 0.20417 0.45784 0.43708 0.0
C1320 C 0.202 0.42066 0.44168 0.0
C1321 C 0.22734 0.39809 0.42583 0.0
C1322 C 0.12268 0.51893 0.43546 0.0
C1323 C 0.10743 0.51164 0.46908 0.0
C1324 C 0.15575 0.50337 0.42573 0.0
C1325 C 0.17389 0.48046 0.44955 0.0
C1326 C 0.15976 0.47516 0.48388 0.0
C1327 C 0.12691 0.49054 0.49355 0.0
loop_
_geom_bond_atom_site_label_1
_geom_bond_atom_site_label_2
_geom_bond_distance
_geom_bond_site_symmetry_2
_ccdc_geom_bond_type
O0 Zn1 1.954 . S
O0 C16 1.224 1_554 S
Zn1 O0 1.954 . S
Zn1 O2 1.949 1_545 S
Zn1 O8 1.919 1_455 S
Zn1 O13 1.924 . S
O2 Zn1 1.949 1_565 S
O2 Zn3 1.894 1_465 S
O2 Zn4 1.954 1_564 S
O2 Zn5 1.970 . S
Zn3 O2 1.894 1_645 S
Zn3 O6 1.933 1_545 S
Zn3 O9 1.941 . S
Zn3 O10 1.965 1_554 S
Zn4 O2 1.954 1_546 S
Zn4 O11 1.938 1_455 S
Zn4 O12 1.906 1_545 S
Zn4 O22 1.953 . S
Zn5 O2 1.970 . S
Zn5 O7 1.932 1_455 S
Zn5 O14 1.977 1_554 S
Zn5 O15 1.910 . S
O6 Zn3 1.933 1_565 S
O6 C17 1.226 . S
O7 Zn5 1.932 1_655 S
O7 C17 1.307 . S
O8 Zn1 1.919 1_655 S
O8 C19 1.253 . S
O9 Zn3 1.941 . S
O9 C19 1.283 . S
O10 Zn3 1.965 1_556 S
O10 C18 1.303 . S
O11 Zn4 1.938 1_655 S
O11 C18 1.247 . S
O12 Zn4 1.906 1_565 S
O12 C20 1.304 . S
O13 Zn1 1.924 . S
O13 C21 1.311 1_545 S
O14 Zn5 1.977 1_556 S
O14 C20 1.272 . S
O15 Zn5 1.910 . S
O15 C21 1.231 . S
C16 O0 1.224 1_556 S
C16 O22 1.298 . S
C17 O6 1.226 . S
C17 O7 1.307 . S
C18 O10 1.303 . S
C18 O11 1.247 . S
C19 O8 1.253 . S
C19 O9 1.283 . S
C20 O12 1.304 . S
C20 O14 1.272 . S
C21 O13 1.311 1_565 S
C21 O15 1.231 . S
O22 Zn4 1.953 . S
O22 C16 1.298 . S
O23 Zn24 1.953 . S
O23 C39 1.225 . S
Zn24 O23 1.953 . S
Zn24 O25 1.949 . S
Zn24 O31 1.919 . S
Zn24 O36 1.924 . S
O25 Zn24 1.949 . S
O25 Zn26 1.923 . S
O25 Zn27 1.950 . S
O25 Zn28 1.945 . S
Zn26 O25 1.923 . S
Zn26 O29 1.933 . S
Zn26 O32 1.941 . S
Zn26 O33 1.965 . S
Zn27 O25 1.950 . S
Zn27 O34 1.938 . S
Zn27 O35 1.906 . S
Zn27 O45 1.953 . S
Zn28 O25 1.945 . S
Zn28 O30 1.932 . S
Zn28 O37 1.977 . S
Zn28 O38 1.910 . S
O29 Zn26 1.933 . S
O29 C40 1.226 . S
O30 Zn28 1.932 . S
O30 C40 1.307 . S
O31 Zn24 1.919 . S
O31 C42 1.253 . S
O32 Zn26 1.941 . S
O32 C42 1.283 . S
O33 Zn26 1.965 . S
O33 C41 1.303 . S
O34 Zn27 1.938 . S
O34 C41 1.247 . S
O35 Zn27 1.906 . S
O35 C43 1.304 . S
O36 Zn24 1.924 . S
O36 C44 1.311 . S
O37 Zn28 1.977 . S
O37 C43 1.272 . S
O38 Zn28 1.910 . S
O38 C44 1.231 . S
C39 O23 1.225 . S
C39 O45 1.298 . S
C40 O29 1.226 . S
C40 O30 1.307 . S
C41 O33 1.303 . S
C41 O34 1.247 . S
C42 O31 1.253 . S
C42 O32 1.283 . S
C43 O35 1.304 . S
C43 O37 1.272 . S
C44 O36 1.311 . S
C44 O38 1.231 . S
O45 Zn27 1.953 . S
O45 C39 1.298 . S
O46 Zn47 1.953 1_565 S
O46 C62 1.225 . S
Zn47 O46 1.953 1_545 S
Zn47 O48 1.949 . S
Zn47 O54 1.919 1_545 S
Zn47 O59 1.924 . S
O48 Zn47 1.949 . S
O48 Zn49 1.923 . S
O48 Zn50 1.950 . S
O48 Zn51 1.945 . S
Zn49 O48 1.923 . S
Zn49 O52 1.933 . S
Zn49 O55 1.941 . S
Zn49 O56 1.965 . S
Zn50 O48 1.950 . S
Zn50 O57 1.938 . S
Zn50 O58 1.906 . S
Zn50 O68 1.953 . S
Zn51 O48 1.945 . S
Zn51 O53 1.932 . S
Zn51 O60 1.977 . S
Zn51 O61 1.910 . S
O52 Zn49 1.933 . S
O52 C63 1.226 . S
O53 Zn51 1.932 . S
O53 C63 1.307 . S
O54 Zn47 1.919 1_565 S
O54 C65 1.253 . S
O55 Zn49 1.941 . S
O55 C65 1.283 1_545 S
O56 Zn49 1.965 . S
O56 C64 1.303 . S
O57 Zn50 1.938 . S
O57 C64 1.247 . S
O58 Zn50 1.906 . S
O58 C66 1.304 . S
O59 Zn47 1.924 . S
O59 C67 1.311 . S
O60 Zn51 1.977 . S
O60 C66 1.272 . S
O61 Zn51 1.910 . S
O61 C67 1.231 . S
C62 O46 1.225 . S
C62 O68 1.298 1_565 S
C63 O52 1.226 . S
C63 O53 1.307 . S
C64 O56 1.303 . S
C64 O57 1.247 . S
C65 O54 1.253 . S
C65 O55 1.283 1_565 S
C66 O58 1.304 . S
C66 O60 1.272 . S
C67 O59 1.311 . S
C67 O61 1.231 . S
O68 Zn50 1.953 . S
O68 C62 1.298 1_545 S
O69 Zn70 1.953 . S
O69 C85 1.225 . S
Zn70 O69 1.953 . S
Zn70 O71 1.949 . S
Zn70 O77 1.919 . S
Zn70 O82 1.924 . S
O71 Zn70 1.949 . S
O71 Zn72 1.923 . S
O71 Zn73 1.950 . S
O71 Zn74 1.945 . S
Zn72 O71 1.923 . S
Zn72 O75 1.933 . S
Zn72 O78 1.941 . S
Zn72 O79 1.965 . S
Zn73 O71 1.950 . S
Zn73 O80 1.938 . S
Zn73 O81 1.906 . S
Zn73 O91 1.953 . S
Zn74 O71 1.945 . S
Zn74 O76 1.932 . S
Zn74 O83 1.977 . S
Zn74 O84 1.910 . S
O75 Zn72 1.933 . S
O75 C86 1.226 . S
O76 Zn74 1.932 . S
O76 C86 1.307 . S
O77 Zn70 1.919 . S
O77 C88 1.253 . S
O78 Zn72 1.941 . S
O78 C88 1.283 . S
O79 Zn72 1.965 . S
O79 C87 1.303 . S
O80 Zn73 1.938 . S
O80 C87 1.247 . S
O81 Zn73 1.906 . S
O81 C89 1.304 . S
O82 Zn70 1.924 . S
O82 C90 1.311 . S
O83 Zn74 1.977 . S
O83 C89 1.272 . S
O84 Zn74 1.910 . S
O84 C90 1.231 . S
C85 O69 1.225 . S
C85 O91 1.298 . S
C86 O75 1.226 . S
C86 O76 1.307 . S
C87 O79 1.303 . S
C87 O80 1.247 . S
C88 O77 1.253 . S
C88 O78 1.283 . S
C89 O81 1.304 . S
C89 O83 1.272 . S
C90 O82 1.311 . S
C90 O84 1.231 . S
O91 Zn73 1.953 . S
O91 C85 1.298 . S
O92 Zn93 1.953 1_565 S
O92 C108 1.225 . S
Zn93 O92 1.953 1_545 S
Zn93 O94 1.949 . S
Zn93 O100 1.919 . S
Zn93 O105 1.924 1_545 S
O94 Zn93 1.949 . S
O94 Zn95 1.923 . S
O94 Zn96 1.950 1_455 S
O94 Zn97 1.945 . S
Zn95 O94 1.923 . S
Zn95 O98 1.933 . S
Zn95 O101 1.941 . S
Zn95 O102 1.965 . S
Zn96 O94 1.950 1_655 S
Zn96 O103 1.938 . S
Zn96 O104 1.906 . S
Zn96 O114 1.953 1_545 S
Zn97 O94 1.945 . S
Zn97 O99 1.932 . S
Zn97 O106 1.977 . S
Zn97 O107 1.910 1_545 S
O98 Zn95 1.933 . S
O98 C109 1.226 . S
O99 Zn97 1.932 . S
O99 C109 1.307 . S
O100 Zn93 1.919 . S
O100 C111 1.253 . S
O101 Zn95 1.941 . S
O101 C111 1.283 . S
O102 Zn95 1.965 . S
O102 C110 1.303 1_455 S
O103 Zn96 1.938 . S
O103 C110 1.247 . S
O104 Zn96 1.906 . S
O104 C112 1.304 . S
O105 Zn93 1.924 1_565 S
O105 C113 1.311 . S
O106 Zn97 1.977 . S
O106 C112 1.272 1_455 S
O107 Zn97 1.910 1_565 S
O107 C113 1.231 . S
C108 O92 1.225 . S
C108 O114 1.298 1_455 S
C109 O98 1.226 . S
C109 O99 1.307 . S
C110 O102 1.303 1_655 S
C110 O103 1.247 . S
C111 O100 1.253 . S
C111 O101 1.283 . S
C112 O104 1.304 . S
C112 O106 1.272 1_655 S
C113 O105 1.311 . S
C113 O107 1.231 . S
O114 Zn96 1.953 1_565 S
O114 C108 1.298 1_655 S
O115 Zn116 1.953 . S
O115 C131 1.225 . S
Zn116 O115 1.953 . S
Zn116 O117 1.949 . S
Zn116 O123 1.919 . S
Zn116 O128 1.924 . S
O117 Zn116 1.949 . S
O117 Zn118 1.923 . S
O117 Zn119 1.950 . S
O117 Zn120 1.945 . S
Zn118 O117 1.923 . S
Zn118 O121 1.933 . S
Zn118 O124 1.941 . S
Zn118 O125 1.965 . S
Zn119 O117 1.950 . S
Zn119 O126 1.938 . S
Zn119 O127 1.906 . S
Zn119 O137 1.953 . S
Zn120 O117 1.945 . S
Zn120 O122 1.932 . S
Zn120 O129 1.977 . S
Zn120 O130 1.910 . S
O121 Zn118 1.933 . S
O121 C132 1.226 . S
O122 Zn120 1.932 . S
O122 C132 1.307 . S
O123 Zn116 1.919 . S
O123 C134 1.253 . S
O124 Zn118 1.941 . S
O124 C134 1.283 . S
O125 Zn118 1.965 . S
O125 C133 1.303 . S
O126 Zn119 1.938 . S
O126 C133 1.247 . S
O127 Zn119 1.906 . S
O127 C135 1.304 . S
O128 Zn116 1.924 . S
O128 C136 1.311 . S
O129 Zn120 1.977 . S
O129 C135 1.272 . S
O130 Zn120 1.910 . S
O130 C136 1.231 . S
C131 O115 1.225 . S
C131 O137 1.298 . S
C132 O121 1.226 . S
C132 O122 1.307 . S
C133 O125 1.303 . S
C133 O126 1.247 . S
C134 O123 1.253 . S
C134 O124 1.283 . S
C135 O127 1.304 . S
C135 O129 1.272 . S
C136 O128 1.311 . S
C136 O130 1.231 . S
O137 Zn119 1.953 . S
O137 C131 1.298 . S
O138 Zn139 1.953 . S
O138 C154 1.225 . S
Zn139 O138 1.953 . S
Zn139 O140 1.949 . S
Zn139 O146 1.919 1_545 S
Zn139 O151 1.924 1_545 S
O140 Zn139 1.949 . S
O140 Zn141 1.923 . S
O140 Zn142 1.950 . S
O140 Zn143 1.947 1_554 S
Zn141 O140 1.923 . S
Zn141 O144 1.933 . S
Zn141 O147 1.941 . S
Zn141 O148 1.965 . S
Zn142 O140 1.950 . S
Zn142 O149 1.938 . S
Zn142 O150 1.906 . S
Zn142 O160 1.953 . S
Zn143 O140 1.947 1_556 S
Zn143 O145 1.931 . S
Zn143 O152 1.975 . S
Zn143 O153 1.910 1_545 S
O144 Zn141 1.933 . S
O144 C155 1.226 1_554 S
O145 Zn143 1.931 . S
O145 C155 1.307 . S
O146 Zn139 1.919 1_565 S
O146 C157 1.253 . S
O147 Zn141 1.941 . S
O147 C157 1.283 1_545 S
O148 Zn141 1.965 . S
O148 C156 1.303 . S
O149 Zn142 1.938 . S
O149 C156 1.247 . S
O150 Zn142 1.906 . S
O150 C158 1.304 1_554 S
O151 Zn139 1.924 1_565 S
O151 C159 1.311 . S
O152 Zn143 1.975 . S
O152 C158 1.272 . S
O153 Zn143 1.910 1_565 S
O153 C159 1.209 1_556 S
C154 O138 1.225 . S
C154 O160 1.298 . S
C155 O144 1.226 1_556 S
C155 O145 1.307 . S
C156 O148 1.303 . S
C156 O149 1.247 . S
C157 O146 1.253 . S
C157 O147 1.283 1_565 S
C158 O150 1.304 1_556 S
C158 O152 1.272 . S
C159 O151 1.311 . S
C159 O153 1.209 1_554 S
O160 Zn142 1.953 . S
O160 C154 1.298 . S
O161 Zn162 1.953 . S
O161 C177 1.225 . S
Zn162 O161 1.953 . S
Zn162 O163 1.949 . S
Zn162 O169 1.919 . S
Zn162 O174 1.924 . S
O163 Zn162 1.949 . S
O163 Zn164 1.923 . S
O163 Zn165 1.950 . S
O163 Zn166 1.945 . S
Zn164 O163 1.923 . S
Zn164 O167 1.933 . S
Zn164 O170 1.941 . S
Zn164 O171 1.965 . S
Zn165 O163 1.950 . S
Zn165 O172 1.938 . S
Zn165 O173 1.906 . S
Zn165 O183 1.953 . S
Zn166 O163 1.945 . S
Zn166 O168 1.932 . S
Zn166 O175 1.977 . S
Zn166 O176 1.910 . S
O167 Zn164 1.933 . S
O167 C178 1.226 . S
O168 Zn166 1.932 . S
O168 C178 1.307 . S
O169 Zn162 1.919 . S
O169 C180 1.253 . S
O170 Zn164 1.941 . S
O170 C180 1.283 . S
O171 Zn164 1.965 . S
O171 C179 1.303 . S
O172 Zn165 1.938 . S
O172 C179 1.247 . S
O173 Zn165 1.906 . S
O173 C181 1.304 . S
O174 Zn162 1.924 . S
O174 C182 1.311 . S
O175 Zn166 1.977 . S
O175 C181 1.272 . S
O176 Zn166 1.910 . S
O176 C182 1.231 . S
C177 O161 1.225 . S
C177 O183 1.298 . S
C178 O167 1.226 . S
C178 O168 1.307 . S
C179 O171 1.303 . S
C179 O172 1.247 . S
C180 O169 1.253 . S
C180 O170 1.283 . S
C181 O173 1.304 . S
C181 O175 1.272 . S
C182 O174 1.311 . S
C182 O176 1.231 . S
O183 Zn165 1.953 . S
O183 C177 1.298 . S
O184 Zn185 1.953 1_556 S
O184 C200 1.225 . S
Zn185 O184 1.953 1_554 S
Zn185 O186 1.949 . S
Zn185 O192 1.919 1_554 S
Zn185 O197 1.924 . S
O186 Zn185 1.949 . S
O186 Zn187 1.923 . S
O186 Zn188 1.950 . S
O186 Zn189 1.945 . S
Zn187 O186 1.923 . S
Zn187 O190 1.933 . S
Zn187 O193 1.941 1_554 S
Zn187 O194 1.965 . S
Zn188 O186 1.950 . S
Zn188 O195 1.938 . S
Zn188 O196 1.906 . S
Zn188 O206 1.953 . S
Zn189 O186 1.945 . S
Zn189 O191 1.932 . S
Zn189 O198 1.977 . S
Zn189 O199 1.910 . S
O190 Zn187 1.933 . S
O190 C201 1.226 . S
O191 Zn189 1.932 . S
O191 C201 1.307 . S
O192 Zn185 1.919 1_556 S
O192 C203 1.253 . S
O193 Zn187 1.941 1_556 S
O193 C203 1.283 . S
O194 Zn187 1.965 . S
O194 C202 1.303 . S
O195 Zn188 1.938 . S
O195 C202 1.247 . S
O196 Zn188 1.906 . S
O196 C204 1.304 . S
O197 Zn185 1.924 . S
O197 C205 1.311 . S
O198 Zn189 1.977 . S
O198 C204 1.272 . S
O199 Zn189 1.910 . S
O199 C205 1.231 . S
C200 O184 1.225 . S
C200 O206 1.298 1_556 S
C201 O190 1.226 . S
C201 O191 1.307 . S
C202 O194 1.303 . S
C202 O195 1.247 . S
C203 O192 1.253 . S
C203 O193 1.283 . S
C204 O196 1.304 . S
C204 O198 1.272 . S
C205 O197 1.311 . S
C205 O199 1.231 . S
O206 Zn188 1.953 . S
O206 C200 1.298 1_554 S
O207 Zn208 1.953 . S
O207 C223 1.225 . S
Zn208 O207 1.953 . S
Zn208 O209 1.949 . S
Zn208 O215 1.919 . S
Zn208 O220 1.924 . S
O209 Zn208 1.949 . S
O209 Zn210 1.923 . S
O209 Zn211 1.950 . S
O209 Zn212 1.945 . S
Zn210 O209 1.923 . S
Zn210 O213 1.933 . S
Zn210 O216 1.941 . S
Zn210 O217 1.965 . S
Zn211 O209 1.950 . S
Zn211 O218 1.938 . S
Zn211 O219 1.906 . S
Zn211 O229 1.953 . S
Zn212 O209 1.945 . S
Zn212 O214 1.932 . S
Zn212 O221 1.977 . S
Zn212 O222 1.910 . S
O213 Zn210 1.933 . S
O213 C224 1.226 . S
O214 Zn212 1.932 . S
O214 C224 1.307 . S
O215 Zn208 1.919 . S
O215 C226 1.253 . S
O216 Zn210 1.941 . S
O216 C226 1.283 . S
O217 Zn210 1.965 . S
O217 C225 1.303 . S
O218 Zn211 1.938 . S
O218 C225 1.247 . S
O219 Zn211 1.906 . S
O219 C227 1.304 . S
O220 Zn208 1.924 . S
O220 C228 1.311 . S
O221 Zn212 1.977 . S
O221 C227 1.272 . S
O222 Zn212 1.910 . S
O222 C228 1.231 . S
C223 O207 1.225 . S
C223 O229 1.298 . S
C224 O213 1.226 . S
C224 O214 1.307 . S
C225 O217 1.303 . S
C225 O218 1.247 . S
C226 O215 1.253 . S
C226 O216 1.283 . S
C227 O219 1.304 . S
C227 O221 1.272 . S
C228 O220 1.311 . S
C228 O222 1.231 . S
O229 Zn211 1.953 . S
O229 C223 1.298 . S
O230 Zn231 1.953 . S
O230 C246 1.225 . S
Zn231 O230 1.953 . S
Zn231 O232 1.949 . S
Zn231 O238 1.919 . S
Zn231 O243 1.924 . S
O232 Zn231 1.949 . S
O232 Zn233 1.923 1_455 S
O232 Zn234 1.950 . S
O232 Zn235 1.945 . S
Zn233 O232 1.923 1_655 S
Zn233 O236 1.933 . S
Zn233 O239 1.941 . S
Zn233 O240 1.965 . S
Zn234 O232 1.950 . S
Zn234 O241 1.938 . S
Zn234 O242 1.906 . S
Zn234 O252 1.953 . S
Zn235 O232 1.945 . S
Zn235 O237 1.932 . S
Zn235 O244 1.977 . S
Zn235 O245 1.910 . S
O236 Zn233 1.933 . S
O236 C247 1.226 . S
O237 Zn235 1.932 . S
O237 C247 1.307 1_455 S
O238 Zn231 1.919 . S
O238 C249 1.253 1_455 S
O239 Zn233 1.941 . S
O239 C249 1.283 . S
O240 Zn233 1.965 . S
O240 C248 1.303 . S
O241 Zn234 1.938 . S
O241 C248 1.247 1_455 S
O242 Zn234 1.906 . S
O242 C250 1.304 . S
O243 Zn231 1.924 . S
O243 C251 1.311 . S
O244 Zn235 1.977 . S
O244 C250 1.272 . S
O245 Zn235 1.910 . S
O245 C251 1.231 . S
C246 O230 1.225 . S
C246 O252 1.298 . S
C247 O236 1.226 . S
C247 O237 1.307 1_655 S
C248 O240 1.303 . S
C248 O241 1.247 1_655 S
C249 O238 1.253 1_655 S
C249 O239 1.283 . S
C250 O242 1.304 . S
C250 O244 1.272 . S
C251 O243 1.311 . S
C251 O245 1.231 . S
O252 Zn234 1.953 . S
O252 C246 1.298 . S
O253 Zn254 1.953 . S
O253 C269 1.225 . S
Zn254 O253 1.953 . S
Zn254 O255 1.949 . S
Zn254 O261 1.919 . S
Zn254 O266 1.924 . S
O255 Zn254 1.949 . S
O255 Zn256 1.923 . S
O255 Zn257 1.950 . S
O255 Zn258 1.945 . S
Zn256 O255 1.923 . S
Zn256 O259 1.933 . S
Zn256 O262 1.941 . S
Zn256 O263 1.965 . S
Zn257 O255 1.950 . S
Zn257 O264 1.938 . S
Zn257 O265 1.906 . S
Zn257 O275 1.953 . S
Zn258 O255 1.945 . S
Zn258 O260 1.932 . S
Zn258 O267 1.977 . S
Zn258 O268 1.910 . S
O259 Zn256 1.933 . S
O259 C270 1.226 . S
O260 Zn258 1.932 . S
O260 C270 1.307 . S
O261 Zn254 1.919 . S
O261 C272 1.253 . S
O262 Zn256 1.941 . S
O262 C272 1.283 . S
O263 Zn256 1.965 . S
O263 C271 1.303 . S
O264 Zn257 1.938 . S
O264 C271 1.247 . S
O265 Zn257 1.906 . S
O265 C273 1.304 . S
O266 Zn254 1.924 . S
O266 C274 1.311 . S
O267 Zn258 1.977 . S
O267 C273 1.272 . S
O268 Zn258 1.910 . S
O268 C274 1.231 . S
C269 O253 1.225 . S
C269 O275 1.298 . S
C270 O259 1.226 . S
C270 O260 1.307 . S
C271 O263 1.303 . S
C271 O264 1.247 . S
C272 O261 1.253 . S
C272 O262 1.283 . S
C273 O265 1.304 . S
C273 O267 1.272 . S
C274 O266 1.311 . S
C274 O268 1.231 . S
O275 Zn257 1.953 . S
O275 C269 1.298 . S
O276 Zn277 1.953 . S
O276 C292 1.225 . S
Zn277 O276 1.953 . S
Zn277 O278 1.949 . S
Zn277 O284 1.919 . S
Zn277 O289 1.924 . S
O278 Zn277 1.949 . S
O278 Zn279 1.923 . S
O278 Zn280 1.950 . S
O278 Zn281 1.945 . S
Zn279 O278 1.923 . S
Zn279 O282 1.933 . S
Zn279 O285 1.941 . S
Zn279 O286 1.965 . S
Zn280 O278 1.950 . S
Zn280 O287 1.938 . S
Zn280 O288 1.906 . S
Zn280 O298 1.953 . S
Zn281 O278 1.945 . S
Zn281 O283 1.932 . S
Zn281 O290 1.977 . S
Zn281 O291 1.910 . S
O282 Zn279 1.933 . S
O282 C293 1.226 . S
O283 Zn281 1.932 . S
O283 C293 1.307 . S
O284 Zn277 1.919 . S
O284 C295 1.253 . S
O285 Zn279 1.941 . S
O285 C295 1.283 . S
O286 Zn279 1.965 . S
O286 C294 1.303 . S
O287 Zn280 1.938 . S
O287 C294 1.247 . S
O288 Zn280 1.906 . S
O288 C296 1.304 . S
O289 Zn277 1.924 . S
O289 C297 1.311 . S
O290 Zn281 1.977 . S
O290 C296 1.272 . S
O291 Zn281 1.910 . S
O291 C297 1.231 . S
C292 O276 1.225 . S
C292 O298 1.298 . S
C293 O282 1.226 . S
C293 O283 1.307 . S
C294 O286 1.303 . S
C294 O287 1.247 . S
C295 O284 1.253 . S
C295 O285 1.283 . S
C296 O288 1.304 . S
C296 O290 1.272 . S
C297 O289 1.311 . S
C297 O291 1.231 . S
O298 Zn280 1.953 . S
O298 C292 1.298 . S
O299 Zn300 1.953 . S
O299 C315 1.225 . S
Zn300 O299 1.953 . S
Zn300 O301 1.949 . S
Zn300 O307 1.919 . S
Zn300 O312 1.924 . S
O301 Zn300 1.949 . S
O301 Zn302 1.923 . S
O301 Zn303 1.950 . S
O301 Zn304 1.945 . S
Zn302 O301 1.923 . S
Zn302 O305 1.933 . S
Zn302 O308 1.941 . S
Zn302 O309 1.965 . S
Zn303 O301 1.950 . S
Zn303 O310 1.938 . S
Zn303 O311 1.906 . S
Zn303 O321 1.953 . S
Zn304 O301 1.945 . S
Zn304 O306 1.932 . S
Zn304 O313 1.977 . S
Zn304 O314 1.910 . S
O305 Zn302 1.933 . S
O305 C316 1.226 . S
O306 Zn304 1.932 . S
O306 C316 1.307 . S
O307 Zn300 1.919 . S
O307 C318 1.253 . S
O308 Zn302 1.941 . S
O308 C318 1.283 . S
O309 Zn302 1.965 . S
O309 C317 1.303 . S
O310 Zn303 1.938 . S
O310 C317 1.247 . S
O311 Zn303 1.906 . S
O311 C319 1.304 . S
O312 Zn300 1.924 . S
O312 C320 1.311 . S
O313 Zn304 1.977 . S
O313 C319 1.272 . S
O314 Zn304 1.910 . S
O314 C320 1.231 . S
C315 O299 1.225 . S
C315 O321 1.298 . S
C316 O305 1.226 . S
C316 O306 1.307 . S
C317 O309 1.303 . S
C317 O310 1.247 . S
C318 O307 1.253 . S
C318 O308 1.283 . S
C319 O311 1.304 . S
C319 O313 1.272 . S
C320 O312 1.311 . S
C320 O314 1.231 . S
O321 Zn303 1.953 . S
O321 C315 1.298 . S
O322 Zn323 1.953 . S
O322 C338 1.225 . S
Zn323 O322 1.953 . S
Zn323 O324 1.949 . S
Zn323 O330 1.919 . S
Zn323 O335 1.924 . S
O324 Zn323 1.949 . S
O324 Zn325 1.923 . S
O324 Zn326 1.950 . S
O324 Zn327 1.945 . S
Zn325 O324 1.923 . S
Zn325 O328 1.933 . S
Zn325 O331 1.941 . S
Zn325 O332 1.965 . S
Zn326 O324 1.950 . S
Zn326 O333 1.938 . S
Zn326 O334 1.906 . S
Zn326 O344 1.953 . S
Zn327 O324 1.945 . S
Zn327 O329 1.932 . S
Zn327 O336 1.977 . S
Zn327 O337 1.910 . S
O328 Zn325 1.933 . S
O328 C339 1.226 . S
O329 Zn327 1.932 . S
O329 C339 1.307 . S
O330 Zn323 1.919 . S
O330 C341 1.253 . S
O331 Zn325 1.941 . S
O331 C341 1.283 . S
O332 Zn325 1.965 . S
O332 C340 1.303 . S
O333 Zn326 1.938 . S
O333 C340 1.247 . S
O334 Zn326 1.906 . S
O334 C342 1.304 . S
O335 Zn323 1.924 . S
O335 C343 1.311 . S
O336 Zn327 1.977 . S
O336 C342 1.272 . S
O337 Zn327 1.910 . S
O337 C343 1.231 . S
C338 O322 1.225 . S
C338 O344 1.298 . S
C339 O328 1.226 . S
C339 O329 1.307 . S
C340 O332 1.303 . S
C340 O333 1.247 . S
C341 O330 1.253 . S
C341 O331 1.283 . S
C342 O334 1.304 . S
C342 O336 1.272 . S
C343 O335 1.311 . S
C343 O337 1.231 . S
O344 Zn326 1.953 . S
O344 C338 1.298 . S
O345 Zn346 1.953 . S
O345 C361 1.217 1_455 S
Zn346 O345 1.953 . S
Zn346 O347 1.949 . S
Zn346 O353 1.919 . S
Zn346 O358 1.924 . S
O347 Zn346 1.949 . S
O347 Zn348 1.923 . S
O347 Zn349 1.950 1_554 S
O347 Zn350 1.945 . S
Zn348 O347 1.923 . S
Zn348 O351 1.933 . S
Zn348 O354 1.941 . S
Zn348 O355 1.965 1_554 S
Zn349 O347 1.950 1_556 S
Zn349 O356 1.938 . S
Zn349 O357 1.906 . S
Zn349 O367 1.953 . S
Zn350 O347 1.945 . S
Zn350 O352 1.932 . S
Zn350 O359 1.977 . S
Zn350 O360 1.910 . S
O351 Zn348 1.933 . S
O351 C362 1.226 . S
O352 Zn350 1.932 . S
O352 C362 1.307 . S
O353 Zn346 1.919 . S
O353 C364 1.253 . S
O354 Zn348 1.941 . S
O354 C364 1.283 . S
O355 Zn348 1.965 1_556 S
O355 C363 1.303 . S
O356 Zn349 1.938 . S
O356 C363 1.247 . S
O357 Zn349 1.906 . S
O357 C365 1.304 . S
O358 Zn346 1.924 . S
O358 C366 1.311 1_455 S
O359 Zn350 1.977 . S
O359 C365 1.272 1_554 S
O360 Zn350 1.910 . S
O360 C366 1.231 1_455 S
C361 O345 1.217 1_655 S
C361 O367 1.292 1_654 S
C362 O351 1.226 . S
C362 O352 1.307 . S
C363 O355 1.303 . S
C363 O356 1.247 . S
C364 O353 1.253 . S
C364 O354 1.283 . S
C365 O357 1.304 . S
C365 O359 1.272 1_556 S
C366 O358 1.311 1_655 S
C366 O360 1.231 1_655 S
O367 Zn349 1.953 . S
O367 C361 1.292 1_456 S
H368 C376 0.950 . S
H369 C381 0.950 . S
H370 C378 0.950 . S
H371 C380 0.950 . S
H372 C382 0.950 . S
H373 C384 0.950 . S
H374 C386 0.950 . S
H375 C387 0.950 . S
C376 H368 0.950 . S
C376 C377 1.386 . S
C376 C378 1.391 . S
C377 C376 1.386 . S
C377 C381 1.393 . S
C378 H370 0.950 . S
C378 C376 1.391 . S
C378 C379 1.400 . S
C379 C378 1.400 . S
C379 C380 1.398 . S
C379 C385 1.491 . S
C380 H371 0.950 . S
C380 C379 1.398 . S
C380 C381 1.391 . S
C381 H369 0.950 . S
C381 C377 1.393 . S
C381 C380 1.391 . S
C382 H372 0.950 . S
C382 C383 1.386 . S
C382 C384 1.391 . S
C383 C382 1.386 . S
C383 C387 1.393 . S
C384 H373 0.950 . S
C384 C382 1.391 . S
C384 C385 1.400 . S
C385 C379 1.491 . S
C385 C384 1.400 . S
C385 C386 1.398 . S
C386 H374 0.950 . S
C386 C385 1.398 . S
C386 C387 1.391 . S
C387 H375 0.950 . S
C387 C383 1.393 . S
C387 C386 1.391 . S
H388 C396 0.950 . S
H389 C401 0.950 . S
H390 C398 0.950 . S
H391 C400 0.950 . S
H392 C402 0.950 . S
H393 C404 0.950 . S
H394 C406 0.950 . S
H395 C407 0.950 . S
C396 H388 0.950 . S
C396 C397 1.386 . S
C396 C398 1.391 . S
C397 C396 1.386 . S
C397 C401 1.393 . S
C398 H390 0.950 . S
C398 C396 1.391 . S
C398 C399 1.400 . S
C399 C398 1.400 . S
C399 C400 1.398 . S
C399 C405 1.491 . S
C400 H391 0.950 . S
C400 C399 1.398 . S
C400 C401 1.391 . S
C401 H389 0.950 . S
C401 C397 1.393 . S
C401 C400 1.391 . S
C402 H392 0.950 . S
C402 C403 1.386 . S
C402 C404 1.391 . S
C403 C402 1.386 . S
C403 C407 1.393 . S
C404 H393 0.950 . S
C404 C402 1.391 . S
C404 C405 1.400 . S
C405 C399 1.491 . S
C405 C404 1.400 . S
C405 C406 1.398 . S
C406 H394 0.950 . S
C406 C405 1.398 . S
C406 C407 1.391 . S
C407 H395 0.950 . S
C407 C403 1.393 . S
C407 C406 1.391 . S
H408 C416 0.950 1_545 S
H409 C421 0.950 . S
H410 C418 0.950 . S
H411 C420 0.950 . S
H412 C422 0.950 . S
H413 C424 0.950 . S
H414 C426 0.950 . S
H415 C427 0.950 . S
C416 H408 0.950 1_565 S
C416 C417 1.386 . S
C416 C418 1.391 . S
C417 C416 1.386 . S
C417 C421 1.393 . S
C418 H410 0.950 . S
C418 C416 1.391 . S
C418 C419 1.400 . S
C419 C418 1.400 . S
C419 C420 1.398 . S
C419 C425 1.491 . S
C420 H411 0.950 . S
C420 C419 1.398 . S
C420 C421 1.391 . S
C421 H409 0.950 . S
C421 C417 1.393 . S
C421 C420 1.391 . S
C422 H412 0.950 . S
C422 C423 1.386 . S
C422 C424 1.391 . S
C423 C422 1.386 . S
C423 C427 1.393 . S
C424 H413 0.950 . S
C424 C422 1.391 . S
C424 C425 1.400 . S
C425 C419 1.491 . S
C425 C424 1.400 . S
C425 C426 1.398 . S
C426 H414 0.950 . S
C426 C425 1.398 . S
C426 C427 1.391 . S
C427 H415 0.950 . S
C427 C423 1.393 . S
C427 C426 1.391 . S
H428 C436 0.950 . S
H429 C441 0.950 . S
H430 C438 0.950 . S
H431 C440 0.950 . S
H432 C442 0.950 . S
H433 C444 0.950 . S
H434 C446 0.950 . S
H435 C447 0.950 . S
C436 H428 0.950 . S
C436 C437 1.386 . S
C436 C438 1.391 . S
C437 C436 1.386 . S
C437 C441 1.393 . S
C438 H430 0.950 . S
C438 C436 1.391 . S
C438 C439 1.400 . S
C439 C438 1.400 . S
C439 C440 1.398 . S
C439 C445 1.491 . S
C440 H431 0.950 . S
C440 C439 1.398 . S
C440 C441 1.391 . S
C441 H429 0.950 . S
C441 C437 1.393 . S
C441 C440 1.391 . S
C442 H432 0.950 . S
C442 C443 1.386 . S
C442 C444 1.391 . S
C443 C442 1.386 . S
C443 C447 1.393 . S
C444 H433 0.950 . S
C444 C442 1.391 . S
C444 C445 1.400 . S
C445 C439 1.491 . S
C445 C444 1.400 . S
C445 C446 1.398 . S
C446 H434 0.950 . S
C446 C445 1.398 . S
C446 C447 1.391 . S
C447 H435 0.950 . S
C447 C443 1.393 . S
C447 C446 1.391 . S
H448 C456 0.950 . S
H449 C461 0.950 . S
H450 C458 0.950 . S
H451 C460 0.950 . S
H452 C462 0.950 . S
H453 C464 0.950 . S
H454 C466 0.950 . S
H455 C467 0.950 . S
C456 H448 0.950 . S
C456 C457 1.386 . S
C456 C458 1.391 . S
C457 C456 1.386 . S
C457 C461 1.393 . S
C458 H450 0.950 . S
C458 C456 1.391 . S
C458 C459 1.400 . S
C459 C458 1.400 . S
C459 C460 1.398 . S
C459 C465 1.491 . S
C460 H451 0.950 . S
C460 C459 1.398 . S
C460 C461 1.391 . S
C461 H449 0.950 . S
C461 C457 1.393 . S
C461 C460 1.391 . S
C462 H452 0.950 . S
C462 C463 1.386 . S
C462 C464 1.391 . S
C463 C462 1.386 . S
C463 C467 1.393 . S
C464 H453 0.950 . S
C464 C462 1.391 . S
C464 C465 1.400 . S
C465 C459 1.491 . S
C465 C464 1.400 . S
C465 C466 1.398 . S
C466 H454 0.950 . S
C466 C465 1.398 . S
C466 C467 1.391 . S
C467 H455 0.950 . S
C467 C463 1.393 . S
C467 C466 1.391 . S
H468 C476 0.950 . S
H469 C481 0.950 . S
H470 C478 0.950 . S
H471 C480 0.950 . S
H472 C482 0.950 . S
H473 C484 0.950 . S
H474 C486 0.950 . S
H475 C487 0.950 1_545 S
C476 H468 0.950 . S
C476 C477 1.386 . S
C476 C478 1.391 . S
C477 C476 1.386 . S
C477 C481 1.393 . S
C478 H470 0.950 . S
C478 C476 1.391 . S
C478 C479 1.400 . S
C479 C478 1.400 . S
C479 C480 1.398 . S
C479 C485 1.491 . S
C480 H471 0.950 . S
C480 C479 1.398 . S
C480 C481 1.391 . S
C481 H469 0.950 . S
C481 C477 1.393 . S
C481 C480 1.391 . S
C482 H472 0.950 . S
C482 C483 1.386 . S
C482 C484 1.391 . S
C483 C482 1.386 . S
C483 C487 1.393 . S
C484 H473 0.950 . S
C484 C482 1.391 . S
C484 C485 1.400 . S
C485 C479 1.491 . S
C485 C484 1.400 . S
C485 C486 1.398 . S
C486 H474 0.950 . S
C486 C485 1.398 . S
C486 C487 1.391 . S
C487 H475 0.950 1_565 S
C487 C483 1.393 . S
C487 C486 1.391 . S
H488 C496 0.950 . S
H489 C501 0.950 . S
H490 C498 0.950 . S
H491 C500 0.950 . S
H492 C502 0.950 . S
H493 C504 0.950 . S
H494 C506 0.950 . S
H495 C507 0.950 . S
C496 H488 0.950 . S
C496 C497 1.386 . S
C496 C498 1.391 . S
C497 C496 1.386 . S
C497 C501 1.393 . S
C498 H490 0.950 . S
C498 C496 1.391 . S
C498 C499 1.400 . S
C499 C498 1.400 . S
C499 C500 1.398 . S
C499 C505 1.491 . S
C500 H491 0.950 . S
C500 C499 1.398 . S
C500 C501 1.391 . S
C501 H489 0.950 . S
C501 C497 1.393 . S
C501 C500 1.391 . S
C502 H492 0.950 . S
C502 C503 1.386 . S
C502 C504 1.391 . S
C503 C502 1.386 . S
C503 C507 1.393 . S
C504 H493 0.950 . S
C504 C502 1.391 . S
C504 C505 1.400 . S
C505 C499 1.491 . S
C505 C504 1.400 . S
C505 C506 1.398 . S
C506 H494 0.950 . S
C506 C505 1.398 . S
C506 C507 1.391 . S
C507 H495 0.950 . S
C507 C503 1.393 . S
C507 C506 1.391 . S
H508 C516 0.950 . S
H509 C521 0.950 . S
H510 C518 0.950 . S
H511 C520 0.950 . S
H512 C522 0.950 . S
H513 C524 0.950 . S
H514 C526 0.950 . S
H515 C527 0.950 . S
C516 H508 0.950 . S
C516 C517 1.386 . S
C516 C518 1.391 . S
C517 C516 1.386 . S
C517 C521 1.393 . S
C518 H510 0.950 . S
C518 C516 1.391 . S
C518 C519 1.400 . S
C519 C518 1.400 . S
C519 C520 1.398 . S
C519 C525 1.491 . S
C520 H511 0.950 . S
C520 C519 1.398 . S
C520 C521 1.391 . S
C521 H509 0.950 . S
C521 C517 1.393 . S
C521 C520 1.391 . S
C522 H512 0.950 . S
C522 C523 1.386 . S
C522 C524 1.391 . S
C523 C522 1.386 . S
C523 C527 1.393 . S
C524 H513 0.950 . S
C524 C522 1.391 . S
C524 C525 1.400 . S
C525 C519 1.491 . S
C525 C524 1.400 . S
C525 C526 1.398 . S
C526 H514 0.950 . S
C526 C525 1.398 . S
C526 C527 1.391 . S
C527 H515 0.950 . S
C527 C523 1.393 . S
C527 C526 1.391 . S
H528 C536 0.950 . S
H529 C541 0.950 . S
H530 C538 0.950 . S
H531 C540 0.950 . S
H532 C542 0.950 . S
H533 C544 0.950 . S
H534 C546 0.950 . S
H535 C547 0.950 . S
C536 H528 0.950 . S
C536 C537 1.386 . S
C536 C538 1.391 . S
C537 C536 1.386 . S
C537 C541 1.393 . S
C538 H530 0.950 . S
C538 C536 1.391 . S
C538 C539 1.400 . S
C539 C538 1.400 . S
C539 C540 1.398 . S
C539 C545 1.491 . S
C540 H531 0.950 . S
C540 C539 1.398 . S
C540 C541 1.391 . S
C541 H529 0.950 . S
C541 C537 1.393 . S
C541 C540 1.391 . S
C542 H532 0.950 . S
C542 C543 1.386 . S
C542 C544 1.391 . S
C543 C542 1.386 . S
C543 C547 1.393 . S
C544 H533 0.950 . S
C544 C542 1.391 . S
C544 C545 1.400 . S
C545 C539 1.491 . S
C545 C544 1.400 . S
C545 C546 1.398 . S
C546 H534 0.950 . S
C546 C545 1.398 . S
C546 C547 1.391 . S
C547 H535 0.950 . S
C547 C543 1.393 . S
C547 C546 1.391 . S
H548 C556 0.950 . S
H549 C561 0.950 . S
H550 C558 0.950 . S
H551 C560 0.950 . S
H552 C562 0.950 . S
H553 C564 0.950 . S
H554 C566 0.950 . S
H555 C567 0.950 . S
C556 H548 0.950 . S
C556 C557 1.386 . S
C556 C558 1.391 . S
C557 C556 1.386 . S
C557 C561 1.393 . S
C558 H550 0.950 . S
C558 C556 1.391 . S
C558 C559 1.400 . S
C559 C558 1.400 . S
C559 C560 1.398 . S
C559 C565 1.491 . S
C560 H551 0.950 . S
C560 C559 1.398 . S
C560 C561 1.391 . S
C561 H549 0.950 . S
C561 C557 1.393 . S
C561 C560 1.391 . S
C562 H552 0.950 . S
C562 C563 1.386 . S
C562 C564 1.391 . S
C563 C562 1.386 . S
C563 C567 1.393 . S
C564 H553 0.950 . S
C564 C562 1.391 . S
C564 C565 1.400 . S
C565 C559 1.491 . S
C565 C564 1.400 . S
C565 C566 1.398 . S
C566 H554 0.950 . S
C566 C565 1.398 . S
C566 C567 1.391 . S
C567 H555 0.950 . S
C567 C563 1.393 . S
C567 C566 1.391 . S
H568 C576 0.950 . S
H569 C581 0.950 . S
H570 C578 0.950 . S
H571 C580 0.950 . S
H572 C582 0.950 . S
H573 C584 0.950 . S
H574 C586 0.950 . S
H575 C587 0.950 . S
C576 H568 0.950 . S
C576 C577 1.386 . S
C576 C578 1.391 . S
C577 C576 1.386 . S
C577 C581 1.393 . S
C578 H570 0.950 . S
C578 C576 1.391 . S
C578 C579 1.400 . S
C579 C578 1.400 . S
C579 C580 1.398 . S
C579 C585 1.491 . S
C580 H571 0.950 . S
C580 C579 1.398 . S
C580 C581 1.391 . S
C581 H569 0.950 . S
C581 C577 1.393 . S
C581 C580 1.391 . S
C582 H572 0.950 . S
C582 C583 1.386 . S
C582 C584 1.391 . S
C583 C582 1.386 . S
C583 C587 1.393 . S
C584 H573 0.950 . S
C584 C582 1.391 . S
C584 C585 1.400 . S
C585 C579 1.491 . S
C585 C584 1.400 . S
C585 C586 1.398 . S
C586 H574 0.950 . S
C586 C585 1.398 . S
C586 C587 1.391 . S
C587 H575 0.950 . S
C587 C583 1.393 . S
C587 C586 1.391 . S
H588 C596 0.950 . S
H589 C601 0.950 . S
H590 C598 0.950 . S
H591 C600 0.950 . S
H592 C602 0.950 . S
H593 C604 0.950 . S
H594 C606 0.950 . S
H595 C607 0.950 . S
C596 H588 0.950 . S
C596 C597 1.386 . S
C596 C598 1.391 . S
C597 C596 1.386 . S
C597 C601 1.393 . S
C598 H590 0.950 . S
C598 C596 1.391 . S
C598 C599 1.400 . S
C599 C598 1.400 . S
C599 C600 1.398 . S
C599 C605 1.491 . S
C600 H591 0.950 . S
C600 C599 1.398 . S
C600 C601 1.391 . S
C601 H589 0.950 . S
C601 C597 1.393 . S
C601 C600 1.391 . S
C602 H592 0.950 . S
C602 C603 1.386 . S
C602 C604 1.391 . S
C603 C602 1.386 . S
C603 C607 1.393 . S
C604 H593 0.950 . S
C604 C602 1.391 . S
C604 C605 1.400 . S
C605 C599 1.491 . S
C605 C604 1.400 . S
C605 C606 1.398 . S
C606 H594 0.950 . S
C606 C605 1.398 . S
C606 C607 1.391 . S
C607 H595 0.950 . S
C607 C603 1.393 . S
C607 C606 1.391 . S
H608 C616 0.950 . S
H609 C621 0.950 . S
H610 C618 0.950 . S
H611 C620 0.950 . S
H612 C622 0.950 . S
H613 C624 0.950 . S
H614 C626 0.950 . S
H615 C627 0.950 1_455 S
C616 H608 0.950 . S
C616 C617 1.386 . S
C616 C618 1.391 . S
C617 C616 1.386 . S
C617 C621 1.393 . S
C618 H610 0.950 . S
C618 C616 1.391 . S
C618 C619 1.400 . S
C619 C618 1.400 . S
C619 C620 1.398 . S
C619 C625 1.491 . S
C620 H611 0.950 . S
C620 C619 1.398 . S
C620 C621 1.391 . S
C621 H609 0.950 . S
C621 C617 1.393 . S
C621 C620 1.391 . S
C622 H612 0.950 . S
C622 C623 1.386 . S
C622 C624 1.391 . S
C623 C622 1.386 . S
C623 C627 1.393 . S
C624 H613 0.950 . S
C624 C622 1.391 . S
C624 C625 1.400 . S
C625 C619 1.491 . S
C625 C624 1.400 . S
C625 C626 1.398 . S
C626 H614 0.950 . S
C626 C625 1.398 . S
C626 C627 1.391 . S
C627 H615 0.950 1_655 S
C627 C623 1.393 . S
C627 C626 1.391 . S
H628 C636 0.950 . S
H629 C641 0.950 . S
H630 C638 0.950 . S
H631 C640 0.950 . S
H632 C642 0.950 . S
H633 C644 0.950 . S
H634 C646 0.950 . S
H635 C647 0.950 . S
C636 H628 0.950 . S
C636 C637 1.386 . S
C636 C638 1.391 . S
C637 C636 1.386 . S
C637 C641 1.393 . S
C638 H630 0.950 . S
C638 C636 1.391 . S
C638 C639 1.400 . S
C639 C638 1.400 . S
C639 C640 1.398 . S
C639 C645 1.491 . S
C640 H631 0.950 . S
C640 C639 1.398 . S
C640 C641 1.391 . S
C641 H629 0.950 . S
C641 C637 1.393 . S
C641 C640 1.391 . S
C642 H632 0.950 . S
C642 C643 1.386 . S
C642 C644 1.391 . S
C643 C642 1.386 . S
C643 C647 1.393 . S
C644 H633 0.950 . S
C644 C642 1.391 . S
C644 C645 1.400 . S
C645 C639 1.491 . S
C645 C644 1.400 . S
C645 C646 1.398 . S
C646 H634 0.950 . S
C646 C645 1.398 . S
C646 C647 1.391 . S
C647 H635 0.950 . S
C647 C643 1.393 . S
C647 C646 1.391 . S
H648 C656 0.950 . S
H649 C661 0.950 . S
H650 C658 0.950 . S
H651 C660 0.950 . S
H652 C662 0.950 . S
H653 C664 0.950 . S
H654 C666 0.950 . S
H655 C667 0.950 . S
C656 H648 0.950 . S
C656 C657 1.386 . S
C656 C658 1.391 . S
C657 C656 1.386 . S
C657 C661 1.393 . S
C658 H650 0.950 . S
C658 C656 1.391 . S
C658 C659 1.400 . S
C659 C658 1.400 . S
C659 C660 1.398 . S
C659 C665 1.491 . S
C660 H651 0.950 . S
C660 C659 1.398 . S
C660 C661 1.391 . S
C661 H649 0.950 . S
C661 C657 1.393 . S
C661 C660 1.391 . S
C662 H652 0.950 . S
C662 C663 1.386 . S
C662 C664 1.391 . S
C663 C662 1.386 . S
C663 C667 1.393 . S
C664 H653 0.950 . S
C664 C662 1.391 . S
C664 C665 1.400 . S
C665 C659 1.491 . S
C665 C664 1.400 . S
C665 C666 1.398 . S
C666 H654 0.950 . S
C666 C665 1.398 . S
C666 C667 1.391 . S
C667 H655 0.950 . S
C667 C663 1.393 . S
C667 C666 1.391 . S
H668 C676 0.950 . S
H669 C681 0.950 . S
H670 C678 0.950 . S
H671 C680 0.950 . S
H672 C682 0.950 . S
H673 C684 0.950 . S
H674 C686 0.950 . S
H675 C687 0.950 . S
C676 H668 0.950 . S
C676 C677 1.386 . S
C676 C678 1.391 . S
C677 C676 1.386 . S
C677 C681 1.393 . S
C678 H670 0.950 . S
C678 C676 1.391 . S
C678 C679 1.400 . S
C679 C678 1.400 . S
C679 C680 1.398 . S
C679 C685 1.491 . S
C680 H671 0.950 . S
C680 C679 1.398 . S
C680 C681 1.391 . S
C681 H669 0.950 . S
C681 C677 1.393 . S
C681 C680 1.391 . S
C682 H672 0.950 . S
C682 C683 1.386 . S
C682 C684 1.391 . S
C683 C682 1.386 . S
C683 C687 1.393 . S
C684 H673 0.950 . S
C684 C682 1.391 . S
C684 C685 1.400 . S
C685 C679 1.491 . S
C685 C684 1.400 . S
C685 C686 1.398 . S
C686 H674 0.950 . S
C686 C685 1.398 . S
C686 C687 1.391 . S
C687 H675 0.950 . S
C687 C683 1.393 . S
C687 C686 1.391 . S
H688 C696 0.950 . S
H689 C701 0.950 . S
H690 C698 0.950 . S
H691 C700 0.950 . S
H692 C702 0.950 . S
H693 C704 0.950 . S
H694 C706 0.950 . S
H695 C707 0.950 . S
C696 H688 0.950 . S
C696 C697 1.386 . S
C696 C698 1.391 . S
C697 C696 1.386 . S
C697 C701 1.393 . S
C698 H690 0.950 . S
C698 C696 1.391 . S
C698 C699 1.400 . S
C699 C698 1.400 . S
C699 C700 1.398 . S
C699 C705 1.491 . S
C700 H691 0.950 . S
C700 C699 1.398 . S
C700 C701 1.391 . S
C701 H689 0.950 . S
C701 C697 1.393 . S
C701 C700 1.391 . S
C702 H692 0.950 . S
C702 C703 1.386 . S
C702 C704 1.391 . S
C703 C702 1.386 . S
C703 C707 1.393 . S
C704 H693 0.950 . S
C704 C702 1.391 . S
C704 C705 1.400 . S
C705 C699 1.491 . S
C705 C704 1.400 . S
C705 C706 1.398 . S
C706 H694 0.950 . S
C706 C705 1.398 . S
C706 C707 1.391 . S
C707 H695 0.950 . S
C707 C703 1.393 . S
C707 C706 1.391 . S
H708 C716 0.950 . S
H709 C721 0.950 . S
H710 C718 0.950 . S
H711 C720 0.950 . S
H712 C722 0.950 . S
H713 C724 0.950 . S
H714 C726 0.950 . S
H715 C727 0.950 . S
C716 H708 0.950 . S
C716 C717 1.386 . S
C716 C718 1.391 . S
C717 C716 1.386 . S
C717 C721 1.393 . S
C718 H710 0.950 . S
C718 C716 1.391 . S
C718 C719 1.400 . S
C719 C718 1.400 . S
C719 C720 1.398 . S
C719 C725 1.491 . S
C720 H711 0.950 . S
C720 C719 1.398 . S
C720 C721 1.391 . S
C721 H709 0.950 . S
C721 C717 1.393 . S
C721 C720 1.391 . S
C722 H712 0.950 . S
C722 C723 1.386 . S
C722 C724 1.391 . S
C723 C722 1.386 . S
C723 C727 1.393 . S
C724 H713 0.950 . S
C724 C722 1.391 . S
C724 C725 1.400 . S
C725 C719 1.491 . S
C725 C724 1.400 . S
C725 C726 1.398 . S
C726 H714 0.950 . S
C726 C725 1.398 . S
C726 C727 1.391 . S
C727 H715 0.950 . S
C727 C723 1.393 . S
C727 C726 1.391 . S
H728 C736 0.950 . S
H729 C741 0.950 . S
H730 C738 0.950 . S
H731 C740 0.950 . S
H732 C742 0.950 . S
H733 C744 0.950 . S
H734 C746 0.950 . S
H735 C747 0.950 . S
C736 H728 0.950 . S
C736 C737 1.386 . S
C736 C738 1.391 . S
C737 C736 1.386 . S
C737 C741 1.393 . S
C738 H730 0.950 . S
C738 C736 1.391 . S
C738 C739 1.400 . S
C739 C738 1.400 . S
C739 C740 1.398 . S
C739 C745 1.491 . S
C740 H731 0.950 . S
C740 C739 1.398 . S
C740 C741 1.391 . S
C741 H729 0.950 . S
C741 C737 1.393 . S
C741 C740 1.391 . S
C742 H732 0.950 . S
C742 C743 1.386 . S
C742 C744 1.391 . S
C743 C742 1.386 . S
C743 C747 1.393 . S
C744 H733 0.950 . S
C744 C742 1.391 . S
C744 C745 1.400 . S
C745 C739 1.491 . S
C745 C744 1.400 . S
C745 C746 1.398 . S
C746 H734 0.950 . S
C746 C745 1.398 . S
C746 C747 1.391 . S
C747 H735 0.950 . S
C747 C743 1.393 . S
C747 C746 1.391 . S
H748 C756 0.950 . S
H749 C761 0.950 . S
H750 C758 0.950 . S
H751 C760 0.950 . S
H752 C762 0.950 . S
H753 C764 0.950 . S
H754 C766 0.950 . S
H755 C767 0.950 . S
C756 H748 0.950 . S
C756 C757 1.386 . S
C756 C758 1.391 . S
C757 C756 1.386 . S
C757 C761 1.393 . S
C758 H750 0.950 . S
C758 C756 1.391 . S
C758 C759 1.400 . S
C759 C758 1.400 . S
C759 C760 1.398 . S
C759 C765 1.491 . S
C760 H751 0.950 . S
C760 C759 1.398 . S
C760 C761 1.391 . S
C761 H749 0.950 . S
C761 C757 1.393 . S
C761 C760 1.391 . S
C762 H752 0.950 . S
C762 C763 1.386 . S
C762 C764 1.391 . S
C763 C762 1.386 . S
C763 C767 1.393 . S
C764 H753 0.950 . S
C764 C762 1.391 . S
C764 C765 1.400 . S
C765 C759 1.491 . S
C765 C764 1.400 . S
C765 C766 1.398 . S
C766 H754 0.950 . S
C766 C765 1.398 . S
C766 C767 1.391 . S
C767 H755 0.950 . S
C767 C763 1.393 . S
C767 C766 1.391 . S
H768 C776 0.950 . S
H769 C781 0.950 . S
H770 C778 0.950 . S
H771 C780 0.950 . S
H772 C782 0.950 . S
H773 C784 0.950 . S
H774 C786 0.950 . S
H775 C787 0.950 1_554 S
C776 H768 0.950 . S
C776 C777 1.386 . S
C776 C778 1.391 . S
C777 C776 1.386 . S
C777 C781 1.393 . S
C778 H770 0.950 . S
C778 C776 1.391 . S
C778 C779 1.400 . S
C779 C778 1.400 . S
C779 C780 1.398 . S
C779 C785 1.491 . S
C780 H771 0.950 . S
C780 C779 1.398 . S
C780 C781 1.391 . S
C781 H769 0.950 . S
C781 C777 1.393 . S
C781 C780 1.391 . S
C782 H772 0.950 . S
C782 C783 1.386 . S
C782 C784 1.391 . S
C783 C782 1.386 . S
C783 C787 1.393 . S
C784 H773 0.950 . S
C784 C782 1.391 . S
C784 C785 1.400 . S
C785 C779 1.491 . S
C785 C784 1.400 . S
C785 C786 1.398 . S
C786 H774 0.950 . S
C786 C785 1.398 . S
C786 C787 1.391 . S
C787 H775 0.950 1_556 S
C787 C783 1.393 . S
C787 C786 1.391 . S
H788 C796 0.950 . S
H789 C801 0.950 . S
H790 C798 0.950 . S
H791 C800 0.950 . S
H792 C802 0.950 . S
H793 C804 0.950 . S
H794 C806 0.950 . S
H795 C807 0.950 . S
C796 H788 0.950 . S
C796 C797 1.386 . S
C796 C798 1.391 . S
C797 C796 1.386 . S
C797 C801 1.393 . S
C798 H790 0.950 . S
C798 C796 1.391 . S
C798 C799 1.400 . S
C799 C798 1.400 . S
C799 C800 1.398 . S
C799 C805 1.491 . S
C800 H791 0.950 . S
C800 C799 1.398 . S
C800 C801 1.391 . S
C801 H789 0.950 . S
C801 C797 1.393 . S
C801 C800 1.391 . S
C802 H792 0.950 . S
C802 C803 1.386 . S
C802 C804 1.391 . S
C803 C802 1.386 . S
C803 C807 1.393 . S
C804 H793 0.950 . S
C804 C802 1.391 . S
C804 C805 1.400 . S
C805 C799 1.491 . S
C805 C804 1.400 . S
C805 C806 1.398 . S
C806 H794 0.950 . S
C806 C805 1.398 . S
C806 C807 1.391 . S
C807 H795 0.950 . S
C807 C803 1.393 . S
C807 C806 1.391 . S
H808 C816 0.950 . S
H809 C821 0.950 . S
H810 C818 0.950 . S
H811 C820 0.950 . S
H812 C822 0.950 . S
H813 C824 0.950 . S
H814 C826 0.950 . S
H815 C827 0.950 . S
C816 H808 0.950 . S
C816 C817 1.386 . S
C816 C818 1.391 . S
C817 C816 1.386 . S
C817 C821 1.393 . S
C818 H810 0.950 . S
C818 C816 1.391 . S
C818 C819 1.400 . S
C819 C818 1.400 . S
C819 C820 1.398 . S
C819 C825 1.491 . S
C820 H811 0.950 . S
C820 C819 1.398 . S
C820 C821 1.391 . S
C821 H809 0.950 . S
C821 C817 1.393 . S
C821 C820 1.391 . S
C822 H812 0.950 . S
C822 C823 1.386 . S
C822 C824 1.391 . S
C823 C822 1.386 . S
C823 C827 1.393 . S
C824 H813 0.950 . S
C824 C822 1.391 . S
C824 C825 1.400 . S
C825 C819 1.491 . S
C825 C824 1.400 . S
C825 C826 1.398 . S
C826 H814 0.950 . S
C826 C825 1.398 . S
C826 C827 1.391 . S
C827 H815 0.950 . S
C827 C823 1.393 . S
C827 C826 1.391 . S
H828 C836 0.950 . S
H829 C841 0.950 . S
H830 C838 0.950 . S
H831 C840 0.950 . S
H832 C842 0.950 . S
H833 C844 0.950 . S
H834 C846 0.950 . S
H835 C847 0.950 . S
C836 H828 0.950 . S
C836 C837 1.386 . S
C836 C838 1.391 . S
C837 C836 1.386 . S
C837 C841 1.393 . S
C838 H830 0.950 . S
C838 C836 1.391 . S
C838 C839 1.400 . S
C839 C838 1.400 . S
C839 C840 1.398 . S
C839 C845 1.491 . S
C840 H831 0.950 . S
C840 C839 1.398 . S
C840 C841 1.391 . S
C841 H829 0.950 . S
C841 C837 1.393 . S
C841 C840 1.391 . S
C842 H832 0.950 . S
C842 C843 1.386 . S
C842 C844 1.391 . S
C843 C842 1.386 . S
C843 C847 1.393 . S
C844 H833 0.950 . S
C844 C842 1.391 . S
C844 C845 1.400 . S
C845 C839 1.491 . S
C845 C844 1.400 . S
C845 C846 1.398 . S
C846 H834 0.950 . S
C846 C845 1.398 . S
C846 C847 1.391 . S
C847 H835 0.950 . S
C847 C843 1.393 . S
C847 C846 1.391 . S
H848 C856 0.950 . S
H849 C861 0.950 . S
H850 C858 0.950 . S
H851 C860 0.950 . S
H852 C862 0.950 . S
H853 C864 0.950 . S
H854 C866 0.950 . S
H855 C867 0.950 . S
C856 H848 0.950 . S
C856 C857 1.386 1_545 S
C856 C858 1.391 1_545 S
C857 C856 1.386 1_565 S
C857 C861 1.393 . S
C858 H850 0.950 . S
C858 C856 1.391 1_565 S
C858 C859 1.400 . S
C859 C858 1.400 . S
C859 C860 1.398 . S
C859 C865 1.491 . S
C860 H851 0.950 . S
C860 C859 1.398 . S
C860 C861 1.391 . S
C861 H849 0.950 . S
C861 C857 1.393 . S
C861 C860 1.391 . S
C862 H852 0.950 . S
C862 C863 1.386 . S
C862 C864 1.391 . S
C863 C862 1.386 . S
C863 C867 1.393 . S
C864 H853 0.950 . S
C864 C862 1.391 . S
C864 C865 1.400 . S
C865 C859 1.491 . S
C865 C864 1.400 . S
C865 C866 1.398 . S
C866 H854 0.950 . S
C866 C865 1.398 . S
C866 C867 1.391 . S
C867 H855 0.950 . S
C867 C863 1.393 . S
C867 C866 1.391 . S
H868 C876 0.950 . S
H869 C881 0.950 . S
H870 C878 0.950 . S
H871 C880 0.950 . S
H872 C882 0.950 . S
H873 C884 0.950 . S
H874 C886 0.950 . S
H875 C887 0.950 . S
C876 H868 0.950 . S
C876 C877 1.386 . S
C876 C878 1.391 . S
C877 C876 1.386 . S
C877 C881 1.393 . S
C878 H870 0.950 . S
C878 C876 1.391 . S
C878 C879 1.400 . S
C879 C878 1.400 . S
C879 C880 1.398 . S
C879 C885 1.491 . S
C880 H871 0.950 . S
C880 C879 1.398 . S
C880 C881 1.391 . S
C881 H869 0.950 . S
C881 C877 1.393 . S
C881 C880 1.391 . S
C882 H872 0.950 . S
C882 C883 1.386 . S
C882 C884 1.391 . S
C883 C882 1.386 . S
C883 C887 1.393 . S
C884 H873 0.950 . S
C884 C882 1.391 . S
C884 C885 1.400 . S
C885 C879 1.491 . S
C885 C884 1.400 . S
C885 C886 1.398 . S
C886 H874 0.950 . S
C886 C885 1.398 . S
C886 C887 1.391 . S
C887 H875 0.950 . S
C887 C883 1.393 . S
C887 C886 1.391 . S
H888 C896 0.950 . S
H889 C901 0.950 . S
H890 C898 0.950 . S
H891 C900 0.950 . S
H892 C902 0.950 . S
H893 C904 0.950 . S
H894 C906 0.950 . S
H895 C907 0.950 . S
C896 H888 0.950 . S
C896 C897 1.386 . S
C896 C898 1.391 . S
C897 C896 1.386 . S
C897 C901 1.393 . S
C898 H890 0.950 . S
C898 C896 1.391 . S
C898 C899 1.400 . S
C899 C898 1.400 . S
C899 C900 1.398 . S
C899 C905 1.491 . S
C900 H891 0.950 . S
C900 C899 1.398 . S
C900 C901 1.391 . S
C901 H889 0.950 . S
C901 C897 1.393 . S
C901 C900 1.391 . S
C902 H892 0.950 . S
C902 C903 1.386 . S
C902 C904 1.391 . S
C903 C902 1.386 . S
C903 C907 1.393 . S
C904 H893 0.950 . S
C904 C902 1.391 . S
C904 C905 1.400 . S
C905 C899 1.491 . S
C905 C904 1.400 . S
C905 C906 1.398 . S
C906 H894 0.950 . S
C906 C905 1.398 . S
C906 C907 1.391 . S
C907 H895 0.950 . S
C907 C903 1.393 . S
C907 C906 1.391 . S
H908 C916 0.950 . S
H909 C921 0.950 . S
H910 C918 0.950 . S
H911 C920 0.950 . S
H912 C922 0.950 1_545 S
H913 C924 0.950 . S
H914 C926 0.950 . S
H915 C927 0.950 . S
C916 H908 0.950 . S
C916 C917 1.386 . S
C916 C918 1.391 . S
C917 C916 1.386 . S
C917 C921 1.393 . S
C918 H910 0.950 . S
C918 C916 1.391 . S
C918 C919 1.400 . S
C919 C918 1.400 . S
C919 C920 1.398 . S
C919 C925 1.491 . S
C920 H911 0.950 . S
C920 C919 1.398 . S
C920 C921 1.391 . S
C921 H909 0.950 . S
C921 C917 1.393 . S
C921 C920 1.391 . S
C922 H912 0.950 1_565 S
C922 C923 1.386 . S
C922 C924 1.391 1_554 S
C923 C922 1.386 . S
C923 C927 1.393 . S
C924 H913 0.950 . S
C924 C922 1.391 1_556 S
C924 C925 1.400 . S
C925 C919 1.491 . S
C925 C924 1.400 . S
C925 C926 1.398 . S
C926 H914 0.950 . S
C926 C925 1.398 . S
C926 C927 1.391 1_556 S
C927 H915 0.950 . S
C927 C923 1.393 . S
C927 C926 1.391 1_554 S
H928 C936 0.950 . S
H929 C941 0.950 . S
H930 C938 0.950 . S
H931 C940 0.950 . S
H932 C942 0.950 . S
H933 C944 0.950 . S
H934 C946 0.950 . S
H935 C947 0.950 . S
C936 H928 0.950 . S
C936 C937 1.386 . S
C936 C938 1.391 . S
C937 C936 1.386 . S
C937 C941 1.393 1_545 S
C938 H930 0.950 . S
C938 C936 1.391 . S
C938 C939 1.400 1_545 S
C939 C938 1.400 1_565 S
C939 C940 1.398 . S
C939 C945 1.491 . S
C940 H931 0.950 . S
C940 C939 1.398 . S
C940 C941 1.391 . S
C941 H929 0.950 . S
C941 C937 1.393 1_565 S
C941 C940 1.391 . S
C942 H932 0.950 . S
C942 C943 1.386 . S
C942 C944 1.391 . S
C943 C942 1.386 . S
C943 C947 1.393 . S
C944 H933 0.950 . S
C944 C942 1.391 . S
C944 C945 1.400 . S
C945 C939 1.491 . S
C945 C944 1.400 . S
C945 C946 1.398 . S
C946 H934 0.950 . S
C946 C945 1.398 . S
C946 C947 1.391 . S
C947 H935 0.950 . S
C947 C943 1.393 . S
C947 C946 1.391 . S
H948 C956 0.950 . S
H949 C961 0.950 . S
H950 C958 0.950 . S
H951 C960 0.950 . S
H952 C962 0.950 . S
H953 C964 0.950 . S
H954 C966 0.950 . S
H955 C967 0.950 . S
C956 H948 0.950 . S
C956 C957 1.386 . S
C956 C958 1.391 . S
C957 C956 1.386 . S
C957 C961 1.393 . S
C958 H950 0.950 . S
C958 C956 1.391 . S
C958 C959 1.400 . S
C959 C958 1.400 . S
C959 C960 1.398 . S
C959 C965 1.491 . S
C960 H951 0.950 . S
C960 C959 1.398 . S
C960 C961 1.391 . S
C961 H949 0.950 . S
C961 C957 1.393 . S
C961 C960 1.391 . S
C962 H952 0.950 . S
C962 C963 1.386 . S
C962 C964 1.391 . S
C963 C962 1.386 . S
C963 C967 1.393 . S
C964 H953 0.950 . S
C964 C962 1.391 . S
C964 C965 1.400 . S
C965 C959 1.491 . S
C965 C964 1.400 . S
C965 C966 1.398 . S
C966 H954 0.950 . S
C966 C965 1.398 . S
C966 C967 1.391 . S
C967 H955 0.950 . S
C967 C963 1.393 . S
C967 C966 1.391 . S
H968 C976 0.950 . S
H969 C981 0.950 1_455 S
H970 C978 0.950 . S
H971 C980 0.950 . S
H972 C982 0.950 . S
H973 C984 0.950 . S
H974 C986 0.950 . S
H975 C987 0.950 . S
C976 H968 0.950 . S
C976 C977 1.386 . S
C976 C978 1.391 . S
C977 C976 1.386 . S
C977 C981 1.393 . S
C978 H970 0.950 . S
C978 C976 1.391 . S
C978 C979 1.400 . S
C979 C978 1.400 . S
C979 C980 1.398 . S
C979 C985 1.491 . S
C980 H971 0.950 . S
C980 C979 1.398 . S
C980 C981 1.391 . S
C981 H969 0.950 1_655 S
C981 C977 1.393 . S
C981 C980 1.391 . S
C982 H972 0.950 . S
C982 C983 1.386 . S
C982 C984 1.391 . S
C983 C982 1.386 . S
C983 C987 1.393 . S
C984 H973 0.950 . S
C984 C982 1.391 . S
C984 C985 1.400 . S
C985 C979 1.491 . S
C985 C984 1.400 . S
C985 C986 1.398 . S
C986 H974 0.950 . S
C986 C985 1.398 . S
C986 C987 1.391 . S
C987 H975 0.950 . S
C987 C983 1.393 . S
C987 C986 1.391 . S
H988 C996 0.950 . S
H989 C1001 0.950 . S
H990 C998 0.950 . S
H991 C1000 0.950 . S
H992 C1002 0.950 . S
H993 C1004 0.950 . S
H994 C1006 0.950 . S
H995 C1007 0.950 . S
C996 H988 0.950 . S
C996 C997 1.386 . S
C996 C998 1.391 . S
C997 C996 1.386 . S
C997 C1001 1.393 . S
C998 H990 0.950 . S
C998 C996 1.391 . S
C998 C999 1.400 . S
C999 C998 1.400 . S
C999 C1000 1.398 . S
C999 C1005 1.491 . S
C1000 H991 0.950 . S
C1000 C999 1.398 . S
C1000 C1001 1.391 . S
C1001 H989 0.950 . S
C1001 C997 1.393 . S
C1001 C1000 1.391 . S
C1002 H992 0.950 . S
C1002 C1003 1.386 . S
C1002 C1004 1.391 . S
C1003 C1002 1.386 . S
C1003 C1007 1.393 . S
C1004 H993 0.950 . S
C1004 C1002 1.391 . S
C1004 C1005 1.400 . S
C1005 C999 1.491 . S
C1005 C1004 1.400 . S
C1005 C1006 1.398 . S
C1006 H994 0.950 . S
C1006 C1005 1.398 . S
C1006 C1007 1.391 . S
C1007 H995 0.950 . S
C1007 C1003 1.393 . S
C1007 C1006 1.391 . S
H1008 C1016 0.950 . S
H1009 C1021 0.950 . S
H1010 C1018 0.950 . S
H1011 C1020 0.950 . S
H1012 C1022 0.950 . S
H1013 C1024 0.950 . S
H1014 C1026 0.950 . S
H1015 C1027 0.950 . S
C1016 H1008 0.950 . S
C1016 C1017 1.386 . S
C1016 C1018 1.391 . S
C1017 C1016 1.386 . S
C1017 C1021 1.393 . S
C1018 H1010 0.950 . S
C1018 C1016 1.391 . S
C1018 C1019 1.400 . S
C1019 C1018 1.400 . S
C1019 C1020 1.398 . S
C1019 C1025 1.491 . S
C1020 H1011 0.950 . S
C1020 C1019 1.398 . S
C1020 C1021 1.391 . S
C1021 H1009 0.950 . S
C1021 C1017 1.393 . S
C1021 C1020 1.391 . S
C1022 H1012 0.950 . S
C1022 C1023 1.386 . S
C1022 C1024 1.391 . S
C1023 C1022 1.386 . S
C1023 C1027 1.393 . S
C1024 H1013 0.950 . S
C1024 C1022 1.391 . S
C1024 C1025 1.400 . S
C1025 C1019 1.491 . S
C1025 C1024 1.400 . S
C1025 C1026 1.398 . S
C1026 H1014 0.950 . S
C1026 C1025 1.398 . S
C1026 C1027 1.391 . S
C1027 H1015 0.950 . S
C1027 C1023 1.393 . S
C1027 C1026 1.391 . S
H1028 C1036 0.950 . S
H1029 C1041 0.950 . S
H1030 C1038 0.950 . S
H1031 C1040 0.950 . S
H1032 C1042 0.950 . S
H1033 C1044 0.950 . S
H1034 C1046 0.950 . S
H1035 C1047 0.950 . S
C1036 H1028 0.950 . S
C1036 C1037 1.386 . S
C1036 C1038 1.391 . S
C1037 C1036 1.386 . S
C1037 C1041 1.393 . S
C1038 H1030 0.950 . S
C1038 C1036 1.391 . S
C1038 C1039 1.400 . S
C1039 C1038 1.400 . S
C1039 C1040 1.398 . S
C1039 C1045 1.491 . S
C1040 H1031 0.950 . S
C1040 C1039 1.398 . S
C1040 C1041 1.391 . S
C1041 H1029 0.950 . S
C1041 C1037 1.393 . S
C1041 C1040 1.391 . S
C1042 H1032 0.950 . S
C1042 C1043 1.386 . S
C1042 C1044 1.391 . S
C1043 C1042 1.386 . S
C1043 C1047 1.393 . S
C1044 H1033 0.950 . S
C1044 C1042 1.391 . S
C1044 C1045 1.400 . S
C1045 C1039 1.491 . S
C1045 C1044 1.400 . S
C1045 C1046 1.398 . S
C1046 H1034 0.950 . S
C1046 C1045 1.398 . S
C1046 C1047 1.391 . S
C1047 H1035 0.950 . S
C1047 C1043 1.393 . S
C1047 C1046 1.391 . S
H1048 C1056 0.950 . S
H1049 C1061 0.950 . S
H1050 C1058 0.950 . S
H1051 C1060 0.950 . S
H1052 C1062 0.950 . S
H1053 C1064 0.950 . S
H1054 C1066 0.950 . S
H1055 C1067 0.950 . S
C1056 H1048 0.950 . S
C1056 C1057 1.386 . S
C1056 C1058 1.391 . S
C1057 C1056 1.386 . S
C1057 C1061 1.393 . S
C1058 H1050 0.950 . S
C1058 C1056 1.391 . S
C1058 C1059 1.400 . S
C1059 C1058 1.400 . S
C1059 C1060 1.398 . S
C1059 C1065 1.491 . S
C1060 H1051 0.950 . S
C1060 C1059 1.398 . S
C1060 C1061 1.391 . S
C1061 H1049 0.950 . S
C1061 C1057 1.393 . S
C1061 C1060 1.391 . S
C1062 H1052 0.950 . S
C1062 C1063 1.386 . S
C1062 C1064 1.391 . S
C1063 C1062 1.386 . S
C1063 C1067 1.393 . S
C1064 H1053 0.950 . S
C1064 C1062 1.391 . S
C1064 C1065 1.400 . S
C1065 C1059 1.491 . S
C1065 C1064 1.400 . S
C1065 C1066 1.398 . S
C1066 H1054 0.950 . S
C1066 C1065 1.398 . S
C1066 C1067 1.391 . S
C1067 H1055 0.950 . S
C1067 C1063 1.393 . S
C1067 C1066 1.391 . S
H1068 C1076 0.950 1_545 S
H1069 C1081 0.950 . S
H1070 C1078 0.950 . S
H1071 C1080 0.950 . S
H1072 C1082 0.950 . S
H1073 C1084 0.950 . S
H1074 C1086 0.950 . S
H1075 C1087 0.950 . S
C1076 H1068 0.950 1_565 S
C1076 C1077 1.386 . S
C1076 C1078 1.391 . S
C1077 C1076 1.386 . S
C1077 C1081 1.393 . S
C1078 H1070 0.950 . S
C1078 C1076 1.391 . S
C1078 C1079 1.400 . S
C1079 C1078 1.400 . S
C1079 C1080 1.398 . S
C1079 C1085 1.491 . S
C1080 H1071 0.950 . S
C1080 C1079 1.398 . S
C1080 C1081 1.391 . S
C1081 H1069 0.950 . S
C1081 C1077 1.393 . S
C1081 C1080 1.391 . S
C1082 H1072 0.950 . S
C1082 C1083 1.386 . S
C1082 C1084 1.391 . S
C1083 C1082 1.386 . S
C1083 C1087 1.393 . S
C1084 H1073 0.950 . S
C1084 C1082 1.391 . S
C1084 C1085 1.400 . S
C1085 C1079 1.491 . S
C1085 C1084 1.400 . S
C1085 C1086 1.398 . S
C1086 H1074 0.950 . S
C1086 C1085 1.398 . S
C1086 C1087 1.391 . S
C1087 H1075 0.950 . S
C1087 C1083 1.393 . S
C1087 C1086 1.391 . S
H1088 C1096 0.950 1_554 S
H1089 C1101 0.950 . S
H1090 C1098 0.950 1_655 S
H1091 C1100 0.950 . S
H1092 C1102 0.950 . S
H1093 C1104 0.950 . S
H1094 C1106 0.950 . S
H1095 C1107 0.950 . S
C1096 H1088 0.950 1_556 S
C1096 C1097 1.386 . S
C1096 C1098 1.391 . S
C1097 C1096 1.386 . S
C1097 C1101 1.393 . S
C1098 H1090 0.950 1_455 S
C1098 C1096 1.391 . S
C1098 C1099 1.400 1_455 S
C1099 C1098 1.400 1_655 S
C1099 C1100 1.398 . S
C1099 C1105 1.491 . S
C1100 H1091 0.950 . S
C1100 C1099 1.398 . S
C1100 C1101 1.391 1_655 S
C1101 H1089 0.950 . S
C1101 C1097 1.393 . S
C1101 C1100 1.391 1_455 S
C1102 H1092 0.950 . S
C1102 C1103 1.386 . S
C1102 C1104 1.391 . S
C1103 C1102 1.386 . S
C1103 C1107 1.393 . S
C1104 H1093 0.950 . S
C1104 C1102 1.391 . S
C1104 C1105 1.400 . S
C1105 C1099 1.491 . S
C1105 C1104 1.400 . S
C1105 C1106 1.398 . S
C1106 H1094 0.950 . S
C1106 C1105 1.398 . S
C1106 C1107 1.391 . S
C1107 H1095 0.950 . S
C1107 C1103 1.393 . S
C1107 C1106 1.391 . S
H1108 C1116 0.950 . S
H1109 C1121 0.950 . S
H1110 C1118 0.950 . S
H1111 C1120 0.950 . S
H1112 C1122 0.950 . S
H1113 C1124 0.950 . S
H1114 C1126 0.950 . S
H1115 C1127 0.950 . S
C1116 H1108 0.950 . S
C1116 C1117 1.386 . S
C1116 C1118 1.391 . S
C1117 C1116 1.386 . S
C1117 C1121 1.393 . S
C1118 H1110 0.950 . S
C1118 C1116 1.391 . S
C1118 C1119 1.400 . S
C1119 C1118 1.400 . S
C1119 C1120 1.398 . S
C1119 C1125 1.491 . S
C1120 H1111 0.950 . S
C1120 C1119 1.398 . S
C1120 C1121 1.391 . S
C1121 H1109 0.950 . S
C1121 C1117 1.393 . S
C1121 C1120 1.391 . S
C1122 H1112 0.950 . S
C1122 C1123 1.386 . S
C1122 C1124 1.391 . S
C1123 C1122 1.386 . S
C1123 C1127 1.393 . S
C1124 H1113 0.950 . S
C1124 C1122 1.391 . S
C1124 C1125 1.400 . S
C1125 C1119 1.491 . S
C1125 C1124 1.400 . S
C1125 C1126 1.398 . S
C1126 H1114 0.950 . S
C1126 C1125 1.398 . S
C1126 C1127 1.391 . S
C1127 H1115 0.950 . S
C1127 C1123 1.393 . S
C1127 C1126 1.391 . S
H1128 C1136 0.950 . S
H1129 C1141 0.950 1_554 S
H1130 C1138 0.950 . S
H1131 C1140 0.950 . S
H1132 C1142 0.950 . S
H1133 C1144 0.950 . S
H1134 C1146 0.950 . S
H1135 C1147 0.950 . S
C1136 H1128 0.950 . S
C1136 C1137 1.386 . S
C1136 C1138 1.391 . S
C1137 C1136 1.386 . S
C1137 C1141 1.393 . S
C1138 H1130 0.950 . S
C1138 C1136 1.391 . S
C1138 C1139 1.400 . S
C1139 C1138 1.400 . S
C1139 C1140 1.398 . S
C1139 C1145 1.491 . S
C1140 H1131 0.950 . S
C1140 C1139 1.398 . S
C1140 C1141 1.391 . S
C1141 H1129 0.950 1_556 S
C1141 C1137 1.393 . S
C1141 C1140 1.391 . S
C1142 H1132 0.950 . S
C1142 C1143 1.386 . S
C1142 C1144 1.391 . S
C1143 C1142 1.386 . S
C1143 C1147 1.393 . S
C1144 H1133 0.950 . S
C1144 C1142 1.391 . S
C1144 C1145 1.400 . S
C1145 C1139 1.491 . S
C1145 C1144 1.400 . S
C1145 C1146 1.398 . S
C1146 H1134 0.950 . S
C1146 C1145 1.398 . S
C1146 C1147 1.391 . S
C1147 H1135 0.950 . S
C1147 C1143 1.393 . S
C1147 C1146 1.391 . S
H1148 C1156 0.950 . S
H1149 C1161 0.950 . S
H1150 C1158 0.950 . S
H1151 C1160 0.950 . S
H1152 C1162 0.950 . S
H1153 C1164 0.950 . S
H1154 C1166 0.950 . S
H1155 C1167 0.950 . S
C1156 H1148 0.950 . S
C1156 C1157 1.386 . S
C1156 C1158 1.391 . S
C1157 C1156 1.386 . S
C1157 C1161 1.393 . S
C1158 H1150 0.950 . S
C1158 C1156 1.391 . S
C1158 C1159 1.400 . S
C1159 C1158 1.400 . S
C1159 C1160 1.398 . S
C1159 C1165 1.491 . S
C1160 H1151 0.950 . S
C1160 C1159 1.398 . S
C1160 C1161 1.391 . S
C1161 H1149 0.950 . S
C1161 C1157 1.393 . S
C1161 C1160 1.391 . S
C1162 H1152 0.950 . S
C1162 C1163 1.386 . S
C1162 C1164 1.391 . S
C1163 C1162 1.386 . S
C1163 C1167 1.393 . S
C1164 H1153 0.950 . S
C1164 C1162 1.391 . S
C1164 C1165 1.400 . S
C1165 C1159 1.491 . S
C1165 C1164 1.400 . S
C1165 C1166 1.398 . S
C1166 H1154 0.950 . S
C1166 C1165 1.398 . S
C1166 C1167 1.391 . S
C1167 H1155 0.950 . S
C1167 C1163 1.393 . S
C1167 C1166 1.391 . S
H1168 C1176 0.950 . S
H1169 C1181 0.950 . S
H1170 C1178 0.950 . S
H1171 C1180 0.950 . S
H1172 C1182 0.950 . S
H1173 C1184 0.950 . S
H1174 C1186 0.950 . S
H1175 C1187 0.950 . S
C1176 H1168 0.950 . S
C1176 C1177 1.386 . S
C1176 C1178 1.391 . S
C1177 C1176 1.386 . S
C1177 C1181 1.393 . S
C1178 H1170 0.950 . S
C1178 C1176 1.391 . S
C1178 C1179 1.400 . S
C1179 C1178 1.400 . S
C1179 C1180 1.398 . S
C1179 C1185 1.491 . S
C1180 H1171 0.950 . S
C1180 C1179 1.398 . S
C1180 C1181 1.391 . S
C1181 H1169 0.950 . S
C1181 C1177 1.393 . S
C1181 C1180 1.391 . S
C1182 H1172 0.950 . S
C1182 C1183 1.386 . S
C1182 C1184 1.391 . S
C1183 C1182 1.386 . S
C1183 C1187 1.393 . S
C1184 H1173 0.950 . S
C1184 C1182 1.391 . S
C1184 C1185 1.400 . S
C1185 C1179 1.491 . S
C1185 C1184 1.400 . S
C1185 C1186 1.398 . S
C1186 H1174 0.950 . S
C1186 C1185 1.398 . S
C1186 C1187 1.391 . S
C1187 H1175 0.950 . S
C1187 C1183 1.393 . S
C1187 C1186 1.391 . S
H1188 C1196 0.950 . S
H1189 C1201 0.950 . S
H1190 C1198 0.950 . S
H1191 C1200 0.950 . S
H1192 C1202 0.950 . S
H1193 C1204 0.950 . S
H1194 C1206 0.950 . S
H1195 C1207 0.950 . S
C1196 H1188 0.950 . S
C1196 C1197 1.386 . S
C1196 C1198 1.391 . S
C1197 C1196 1.386 . S
C1197 C1201 1.393 . S
C1198 H1190 0.950 . S
C1198 C1196 1.391 . S
C1198 C1199 1.400 . S
C1199 C1198 1.400 . S
C1199 C1200 1.398 . S
C1199 C1205 1.491 . S
C1200 H1191 0.950 . S
C1200 C1199 1.398 . S
C1200 C1201 1.391 . S
C1201 H1189 0.950 . S
C1201 C1197 1.393 . S
C1201 C1200 1.391 . S
C1202 H1192 0.950 . S
C1202 C1203 1.386 . S
C1202 C1204 1.391 . S
C1203 C1202 1.386 . S
C1203 C1207 1.393 . S
C1204 H1193 0.950 . S
C1204 C1202 1.391 . S
C1204 C1205 1.400 . S
C1205 C1199 1.491 . S
C1205 C1204 1.400 . S
C1205 C1206 1.398 . S
C1206 H1194 0.950 . S
C1206 C1205 1.398 . S
C1206 C1207 1.391 . S
C1207 H1195 0.950 . S
C1207 C1203 1.393 . S
C1207 C1206 1.391 . S
H1208 C1216 0.950 . S
H1209 C1221 0.950 . S
H1210 C1218 0.950 . S
H1211 C1220 0.950 . S
H1212 C1222 0.950 . S
H1213 C1224 0.950 . S
H1214 C1226 0.950 . S
H1215 C1227 0.950 . S
C1216 H1208 0.950 . S
C1216 C1217 1.386 . S
C1216 C1218 1.391 . S
C1217 C1216 1.386 . S
C1217 C1221 1.393 . S
C1218 H1210 0.950 . S
C1218 C1216 1.391 . S
C1218 C1219 1.400 . S
C1219 C1218 1.400 . S
C1219 C1220 1.398 . S
C1219 C1225 1.491 . S
C1220 H1211 0.950 . S
C1220 C1219 1.398 . S
C1220 C1221 1.391 . S
C1221 H1209 0.950 . S
C1221 C1217 1.393 . S
C1221 C1220 1.391 . S
C1222 H1212 0.950 . S
C1222 C1223 1.386 . S
C1222 C1224 1.391 . S
C1223 C1222 1.386 . S
C1223 C1227 1.393 . S
C1224 H1213 0.950 . S
C1224 C1222 1.391 . S
C1224 C1225 1.400 . S
C1225 C1219 1.491 . S
C1225 C1224 1.400 . S
C1225 C1226 1.398 . S
C1226 H1214 0.950 . S
C1226 C1225 1.398 . S
C1226 C1227 1.391 . S
C1227 H1215 0.950 . S
C1227 C1223 1.393 . S
C1227 C1226 1.391 . S
H1228 C1236 0.950 . S
H1229 C1241 0.950 . S
H1230 C1238 0.950 . S
H1231 C1240 0.950 . S
H1232 C1242 0.950 . S
H1233 C1244 0.950 . S
H1234 C1246 0.950 . S
H1235 C1247 0.950 . S
C1236 H1228 0.950 . S
C1236 C1237 1.386 . S
C1236 C1238 1.391 . S
C1237 C1236 1.386 . S
C1237 C1241 1.393 . S
C1238 H1230 0.950 . S
C1238 C1236 1.391 . S
C1238 C1239 1.400 . S
C1239 C1238 1.400 . S
C1239 C1240 1.398 . S
C1239 C1245 1.491 . S
C1240 H1231 0.950 . S
C1240 C1239 1.398 . S
C1240 C1241 1.391 . S
C1241 H1229 0.950 . S
C1241 C1237 1.393 . S
C1241 C1240 1.391 . S
C1242 H1232 0.950 . S
C1242 C1243 1.386 . S
C1242 C1244 1.391 . S
C1243 C1242 1.386 . S
C1243 C1247 1.393 . S
C1244 H1233 0.950 . S
C1244 C1242 1.391 . S
C1244 C1245 1.400 . S
C1245 C1239 1.491 . S
C1245 C1244 1.400 . S
C1245 C1246 1.398 . S
C1246 H1234 0.950 . S
C1246 C1245 1.398 . S
C1246 C1247 1.391 . S
C1247 H1235 0.950 . S
C1247 C1243 1.393 . S
C1247 C1246 1.391 . S
H1248 C1256 0.950 . S
H1249 C1261 0.950 . S
H1250 C1258 0.950 . S
H1251 C1260 0.950 . S
H1252 C1262 0.950 . S
H1253 C1264 0.950 . S
H1254 C1266 0.950 . S
H1255 C1267 0.950 . S
C1256 H1248 0.950 . S
C1256 C1257 1.386 . S
C1256 C1258 1.391 . S
C1257 C1256 1.386 . S
C1257 C1261 1.393 . S
C1258 H1250 0.950 . S
C1258 C1256 1.391 . S
C1258 C1259 1.400 . S
C1259 C1258 1.400 . S
C1259 C1260 1.398 . S
C1259 C1265 1.491 . S
C1260 H1251 0.950 . S
C1260 C1259 1.398 . S
C1260 C1261 1.391 . S
C1261 H1249 0.950 . S
C1261 C1257 1.393 . S
C1261 C1260 1.391 . S
C1262 H1252 0.950 . S
C1262 C1263 1.386 . S
C1262 C1264 1.391 . S
C1263 C1262 1.386 . S
C1263 C1267 1.393 . S
C1264 H1253 0.950 . S
C1264 C1262 1.391 . S
C1264 C1265 1.400 . S
C1265 C1259 1.491 . S
C1265 C1264 1.400 . S
C1265 C1266 1.398 . S
C1266 H1254 0.950 . S
C1266 C1265 1.398 . S
C1266 C1267 1.391 . S
C1267 H1255 0.950 . S
C1267 C1263 1.393 . S
C1267 C1266 1.391 . S
H1268 C1276 0.950 . S
H1269 C1281 0.950 . S
H1270 C1278 0.950 . S
H1271 C1280 0.950 . S
H1272 C1282 0.950 . S
H1273 C1284 0.950 . S
H1274 C1286 0.950 . S
H1275 C1287 0.950 . S
C1276 H1268 0.950 . S
C1276 C1277 1.386 . S
C1276 C1278 1.391 . S
C1277 C1276 1.386 . S
C1277 C1281 1.393 . S
C1278 H1270 0.950 . S
C1278 C1276 1.391 . S
C1278 C1279 1.400 . S
C1279 C1278 1.400 . S
C1279 C1280 1.398 . S
C1279 C1285 1.491 . S
C1280 H1271 0.950 . S
C1280 C1279 1.398 . S
C1280 C1281 1.391 . S
C1281 H1269 0.950 . S
C1281 C1277 1.393 . S
C1281 C1280 1.391 . S
C1282 H1272 0.950 . S
C1282 C1283 1.386 . S
C1282 C1284 1.391 . S
C1283 C1282 1.386 . S
C1283 C1287 1.393 . S
C1284 H1273 0.950 . S
C1284 C1282 1.391 . S
C1284 C1285 1.400 . S
C1285 C1279 1.491 . S
C1285 C1284 1.400 . S
C1285 C1286 1.398 . S
C1286 H1274 0.950 . S
C1286 C1285 1.398 . S
C1286 C1287 1.391 . S
C1287 H1275 0.950 . S
C1287 C1283 1.393 . S
C1287 C1286 1.391 . S
H1288 C1296 0.950 . S
H1289 C1301 0.950 . S
H1290 C1298 0.950 . S
H1291 C1300 0.950 . S
H1292 C1302 0.950 . S
H1293 C1304 0.950 . S
H1294 C1306 0.950 . S
H1295 C1307 0.950 . S
C1296 H1288 0.950 . S
C1296 C1297 1.386 . S
C1296 C1298 1.391 . S
C1297 C1296 1.386 . S
C1297 C1301 1.393 . S
C1298 H1290 0.950 . S
C1298 C1296 1.391 . S
C1298 C1299 1.400 . S
C1299 C1298 1.400 . S
C1299 C1300 1.398 . S
C1299 C1305 1.491 . S
C1300 H1291 0.950 . S
C1300 C1299 1.398 . S
C1300 C1301 1.391 . S
C1301 H1289 0.950 . S
C1301 C1297 1.393 . S
C1301 C1300 1.391 . S
C1302 H1292 0.950 . S
C1302 C1303 1.386 . S
C1302 C1304 1.391 . S
C1303 C1302 1.386 . S
C1303 C1307 1.393 . S
C1304 H1293 0.950 . S
C1304 C1302 1.391 . S
C1304 C1305 1.400 . S
C1305 C1299 1.491 . S
C1305 C1304 1.400 . S
C1305 C1306 1.398 . S
C1306 H1294 0.950 . S
C1306 C1305 1.398 . S
C1306 C1307 1.391 . S
C1307 H1295 0.950 . S
C1307 C1303 1.393 . S
C1307 C1306 1.391 . S
H1308 C1316 0.950 . S
H1309 C1321 0.950 . S
H1310 C1318 0.950 . S
H1311 C1320 0.950 . S
H1312 C1322 0.950 . S
H1313 C1324 0.950 . S
H1314 C1326 0.950 . S
H1315 C1327 0.950 . S
C1316 H1308 0.950 . S
C1316 C1317 1.386 . S
C1316 C1318 1.391 . S
C1317 C1316 1.386 . S
C1317 C1321 1.393 . S
C1318 H1310 0.950 . S
C1318 C1316 1.391 . S
C1318 C1319 1.400 . S
C1319 C1318 1.400 . S
C1319 C1320 1.398 . S
C1319 C1325 1.491 . S
C1320 H1311 0.950 . S
C1320 C1319 1.398 . S
C1320 C1321 1.391 . S
C1321 H1309 0.950 . S
C1321 C1317 1.393 . S
C1321 C1320 1.391 . S
C1322 H1312 0.950 . S
C1322 C1323 1.386 . S
C1322 C1324 1.391 . S
C1323 C1322 1.386 . S
C1323 C1327 1.393 . S
C1324 H1313 0.950 . S
C1324 C1322 1.391 . S
C1324 C1325 1.400 . S
C1325 C1319 1.491 . S
C1325 C1324 1.400 . S
C1325 C1326 1.398 . S
C1326 H1314 0.950 . S
C1326 C1325 1.398 . S
C1326 C1327 1.391 . S
C1327 H1315 0.950 . S
C1327 C1323 1.393 . S
C1327 C1326 1.391 . S
C377 C88 1.315 . S
C383 C16 1.334 . S
C397 C21 1.285 . S
C403 C41 1.349 . S
C417 C62 1.595 . S
C423 C40 1.599 . S
C437 C90 1.164 . S
C443 C67 1.185 . S
C457 C113 1.110 . S
C463 C135 1.130 . S
C477 C132 1.574 . S
C483 C155 1.570 1_565 S
C497 C156 1.308 . S
C503 C181 1.222 . S
C517 C111 1.283 . S
C523 C178 1.315 . S
C537 C225 1.328 . S
C543 C19 1.301 . S
C557 C250 1.440 . S
C563 C43 1.453 . S
C577 C65 1.317 . S
C583 C317 1.307 . S
C597 C200 1.488 . S
C603 C85 1.480 . S
C617 C269 1.477 . S
C623 C108 1.487 1_655 S
C637 C341 1.283 . S
C643 C133 1.334 . S
C657 C158 1.453 . S
C663 C296 1.446 . S
C677 C364 1.317 . S
C683 C179 1.316 . S
C697 C203 1.290 . S
C703 C316 1.317 . S
C717 C227 1.145 . S
C723 C205 1.114 . S
C737 C247 1.578 . S
C743 C224 1.577 . S
C757 C338 1.334 . S
C763 C272 1.311 . S
C777 C293 1.585 . S
C783 C361 1.609 1_556 S
C797 C273 0.902 . S
C803 C17 0.890 . S
C817 C297 0.972 . S
C823 C18 1.005 . S
C837 C292 0.543 . S
C843 C63 0.569 . S
C857 C64 1.086 1_565 S
C863 C271 1.080 . S
C877 C226 1.064 . S
C883 C110 1.079 . S
C897 C223 0.597 . S
C903 C154 0.589 . S
C917 C318 1.008 . S
C923 C159 0.964 . S
C937 C112 0.924 . S
C943 C315 0.944 . S
C957 C136 1.007 . S
C963 C20 0.991 . S
C977 C249 0.793 . S
C983 C295 0.799 . S
C997 C66 0.973 . S
C1003 C182 0.977 . S
C1017 C201 0.640 . S
C1023 C270 0.658 . S
C1037 C86 0.658 . S
C1043 C109 0.659 . S
C1057 C228 1.021 . S
C1063 C342 0.937 . S
C1077 C157 0.790 . S
C1083 C42 0.801 . S
C1097 C365 1.009 . S
C1103 C320 0.964 . S
C1117 C204 0.925 . S
C1123 C177 0.912 . S
C1137 C202 1.079 1_556 S
C1143 C134 1.070 . S
C1157 C246 0.555 . S
C1163 C131 0.575 . S
C1177 C89 0.896 . S
C1183 C339 0.924 . S
C1197 C39 0.551 . S
C1203 C362 0.574 . S
C1217 C294 1.350 . S
C1223 C343 1.281 . S
C1237 C274 1.190 . S
C1243 C366 1.192 . S
C1257 C248 1.310 . S
C1263 C319 1.257 . S
C1277 C340 1.002 . S
C1283 C44 0.965 . S
C1297 C87 1.083 . S
C1303 C363 1.085 . S
C1317 C180 1.001 . S
C1323 C251 0.968 . S
