# Generated by pormake.
# Topology snz, (6)-cn, num edge types: 1
# Building blocks:
#     Node 0, Type 0, BuildingBlock: BETDAH_clean_sbu_0, # of connection points: 6
#     Node 1, Type 0, BuildingBlock: BETDAH_clean_sbu_0, # of connection points: 6
#     Node 2, Type 0, BuildingBlock: BETDAH_clean_sbu_0, # of connection points: 6
#     Node 3, Type 0, BuildingBlock: BETDAH_clean_sbu_0, # of connection points: 6
#     Node 4, Type 0, BuildingBlock: BETDAH_clean_sbu_0, # of connection points: 6
#     Node 5, Type 0, BuildingBlock: BETDAH_clean_sbu_0, # of connection points: 6
#     Node 6, Type 0, BuildingBlock: BETDAH_clean_sbu_0, # of connection points: 6
#     Node 7, Type 0, BuildingBlock: BETDAH_clean_sbu_0, # of connection points: 6
#     Node 8, Type 0, BuildingBlock: BETDAH_clean_sbu_0, # of connection points: 6
#     Edge 9, Type (0, 0), BuildingBlock: MIFKUJ_clean_linker_0, # of connection points: 2
#     Edge 10, Type (0, 0), BuildingBlock: MIFKUJ_clean_linker_0, # of connection points: 2
#     Edge 11, Type (0, 0), BuildingBlock: MIFKUJ_clean_linker_0, # of connection points: 2
#     Edge 12, Type (0, 0), BuildingBlock: MIFKUJ_clean_linker_0, # of connection points: 2
#     Edge 13, Type (0, 0), BuildingBlock: MIFKUJ_clean_linker_0, # of connection points: 2
#     Edge 14, Type (0, 0), BuildingBlock: MIFKUJ_clean_linker_0, # of connection points: 2
#     Edge 15, Type (0, 0), BuildingBlock: MIFKUJ_clean_linker_0, # of connection points: 2
#     Edge 16, Type (0, 0), BuildingBlock: MIFKUJ_clean_linker_0, # of connection points: 2
#     Edge 17, Type (0, 0), BuildingBlock: MIFKUJ_clean_linker_0, # of connection points: 2
#     Edge 18, Type (0, 0), BuildingBlock: MIFKUJ_clean_linker_0, # of connection points: 2
#     Edge 19, Type (0, 0), BuildingBlock: MIFKUJ_clean_linker_0, # of connection points: 2
#     Edge 20, Type (0, 0), BuildingBlock: MIFKUJ_clean_linker_0, # of connection points: 2
#     Edge 21, Type (0, 0), BuildingBlock: MIFKUJ_clean_linker_0, # of connection points: 2
#     Edge 22, Type (0, 0), BuildingBlock: MIFKUJ_clean_linker_0, # of connection points: 2
#     Edge 23, Type (0, 0), BuildingBlock: MIFKUJ_clean_linker_0, # of connection points: 2
#     Edge 24, Type (0, 0), BuildingBlock: MIFKUJ_clean_linker_0, # of connection points: 2
#     Edge 25, Type (0, 0), BuildingBlock: MIFKUJ_clean_linker_0, # of connection points: 2
#     Edge 26, Type (0, 0), BuildingBlock: MIFKUJ_clean_linker_0, # of connection points: 2
#     Edge 27, Type (0, 0), BuildingBlock: MIFKUJ_clean_linker_0, # of connection points: 2
#     Edge 28, Type (0, 0), BuildingBlock: MIFKUJ_clean_linker_0, # of connection points: 2
#     Edge 29, Type (0, 0), BuildingBlock: MIFKUJ_clean_linker_0, # of connection points: 2
#     Edge 30, Type (0, 0), BuildingBlock: MIFKUJ_clean_linker_0, # of connection points: 2
#     Edge 31, Type (0, 0), BuildingBlock: MIFKUJ_clean_linker_0, # of connection points: 2
#     Edge 32, Type (0, 0), BuildingBlock: MIFKUJ_clean_linker_0, # of connection points: 2
#     Edge 33, Type (0, 0), BuildingBlock: MIFKUJ_clean_linker_0, # of connection points: 2
#     Edge 34, Type (0, 0), BuildingBlock: MIFKUJ_clean_linker_0, # of connection points: 2
#     Edge 35, Type (0, 0), BuildingBlock: MIFKUJ_clean_linker_0, # of connection points: 2
# Relax obj value: 0.321
# Max RMSD: 0.263
# Mean RMSD: 0.172
data_MOF--net-snz--node1-BETDAH_clean_sbu_0--edge1-MIFKUJ_clean_linker_0
_symmetry_space_group_name_H-M    P1
_symmetry_Int_Tables_number       1
_symmetry_cell_setting            triclinic
loop_
_symmetry_equiv_pos_as_xyz
'x, y, z'
_cell_length_a     82.336074
_cell_length_b     69.336587
_cell_length_c     20.683072
_cell_angle_alpha  96.232881
_cell_angle_beta   97.058529
_cell_angle_gamma 120.46829
loop_
_atom_site_label
_atom_site_type_symbol
_atom_site_fract_x
_atom_site_fract_y
_atom_site_fract_z
_atom_type_partial_charge
Ho0 Ho 0.10996 0.49224 0.162 0.0
Ho1 Ho 0.07825 0.49381 0.15621 0.0
C2 C 0.0699 0.44434 0.1269 0.0
C3 C 0.13806 0.48471 0.18192 0.0
C4 C 0.14355 0.46945 0.20899 0.0
C5 C 0.13384 0.45568 0.25305 0.0
C6 C 0.14016 0.44224 0.27981 0.0
C7 C 0.15633 0.44239 0.26316 0.0
C8 C 0.16568 0.45591 0.21793 0.0
C9 C 0.15937 0.46925 0.19133 0.0
C10 C 0.10076 0.49898 1.03377 0.0
C11 C 0.11793 0.54182 0.18537 0.0
C12 C 0.0503 0.50167 0.13981 0.0
C13 C 0.04505 0.51738 0.11431 0.0
C14 C 0.02663 0.5082 0.07517 0.0
C15 C 0.02045 0.5225 0.05533 0.0
C16 C 0.03257 0.54641 0.07415 0.0
C17 C 0.05125 0.55562 0.11193 0.0
C18 C 0.05739 0.54125 0.13207 0.0
C19 C 0.08767 0.48683 0.28389 0.0
O20 O 0.08789 0.45499 0.15967 0.0
O21 O 0.06258 0.45657 0.11141 0.0
O22 O 0.12492 0.47606 0.12755 0.0
O23 O 0.13601 0.49831 0.22394 0.0
O24 O 0.11755 0.50974 0.07323 0.0
O25 O 0.08891 0.4856 0.06671 0.0
O26 O 0.09977 0.53069 0.15447 0.0
O27 O 0.12563 0.53002 0.20187 0.0
O28 O 0.06358 0.50981 0.19367 0.0
O29 O 0.05179 0.48782 0.09665 0.0
O30 O 0.07092 0.47572 0.24411 0.0
O31 O 0.09934 0.50051 0.25118 0.0
H32 H 0.12156 0.45556 0.26733 0.0
H33 H 0.13266 0.43216 0.31471 0.0
H34 H 0.1779 0.45616 0.20276 0.0
H35 H 0.16701 0.47965 0.15717 0.0
H36 H 1.01682 0.48986 0.06099 0.0
H37 H 1.0061 0.51479 1.0254 0.0
H38 H 0.06091 0.57392 0.12777 0.0
H39 H 0.0716 0.54882 0.1628 0.0
Ho40 Ho 0.62841 0.50419 1.03426 0.0
Ho41 Ho 0.59666 0.50447 1.01155 0.0
C42 C 0.6329 0.55305 0.05418 0.0
C43 C 0.66295 0.51108 0.04295 0.0
C44 C 0.68202 0.52739 1.02897 0.0
C45 C 0.68486 0.52954 0.96378 0.0
C46 C 0.70338 0.54371 0.95211 0.0
C47 C 0.71949 0.55603 1.00528 0.0
C48 C 0.71647 0.55422 0.07043 0.0
C49 C 0.69802 0.54004 0.08203 0.0
C50 C 0.61397 0.49814 0.15219 0.0
C51 C 0.5913 0.45564 0.99952 0.0
C52 C 0.56203 0.49706 1.00138 0.0
C53 C 0.54578 0.4846 1.03389 0.0
C54 C 0.54805 0.4764 0.09135 0.0
C55 C 0.53228 0.46412 0.12067 0.0
C56 C 0.51396 0.45971 0.09271 0.0
C57 C 0.51185 0.46805 1.03515 0.0
C58 C 0.52761 0.48037 1.00609 0.0
C59 C 0.61107 0.51007 0.89328 0.0
O60 O 0.64036 0.54164 1.03013 0.0
O61 O 0.61504 0.54135 0.0613 0.0
O62 O 0.65744 0.51859 0.09073 0.0
O63 O 0.64869 0.49788 0.99286 0.0
O64 O 0.62042 0.48668 0.12302 0.0
O65 O 0.6144 0.51188 0.11436 0.0
O66 O 0.58465 0.46791 1.02368 0.0
O67 O 0.60902 0.46652 0.99004 0.0
O68 O 0.56634 0.48453 0.96476 0.0
O69 O 0.57734 0.51514 1.03817 0.0
O70 O 0.60467 0.52161 0.92208 0.0
O71 O 0.61048 0.49642 0.93156 0.0
H72 H 0.67288 0.51995 0.92164 0.0
H73 H 0.70512 0.54446 0.90121 0.0
H74 H 0.72842 0.56369 0.11272 0.0
H75 H 0.6963 0.53868 0.13276 0.0
H76 H 0.56198 0.47939 0.11325 0.0
H77 H 0.53438 0.45778 0.16458 0.0
H78 H 0.49804 0.46529 1.01291 0.0
H79 H 0.52561 0.48656 0.96172 0.0
Ho80 Ho 0.58811 0.04029 0.92404 0.0
Ho81 Ho 0.62878 0.08304 0.95956 0.0
C82 C 0.59304 0.08953 0.9428 0.0
C83 C 0.55377 1.00755 0.92722 0.0
C84 C 0.53913 1.0013 0.96863 0.0
C85 C 0.53648 0.01772 1.00364 0.0
C86 C 0.52122 0.01094 1.03722 0.0
C87 C 0.50832 0.98765 1.03616 0.0
C88 C 0.5114 0.97141 1.00248 0.0
C89 C 0.52662 0.97818 0.96909 0.0
C90 C 0.59951 0.05114 0.80237 0.0
C91 C 0.62383 0.03354 0.96147 0.0
C92 C 0.66298 0.11167 0.94158 0.0
C93 C 0.68249 0.11505 0.95315 0.0
C94 C 0.68505 0.09647 0.95369 0.0
C95 C 0.70316 0.0993 0.95273 0.0
C96 C 0.71913 0.12078 0.95094 0.0
C97 C 0.71665 0.13952 0.95378 0.0
C98 C 0.69856 0.13666 0.95468 0.0
C99 C 0.61769 0.07325 0.08153 0.0
O100 O 0.58328 0.06877 0.95517 0.0
O101 O 0.61094 0.09847 0.93401 0.0
O102 O 0.55731 0.02461 0.89768 0.0
O103 O 0.56936 1.00769 0.95047 0.0
O104 O 0.5834 0.03418 0.80976 0.0
O105 O 0.60887 0.06126 0.8626 0.0
O106 O 0.63551 0.05578 0.96824 0.0
O107 O 0.60492 0.02338 0.94362 0.0
O108 O 0.65634 0.11547 0.99274 0.0
O109 O 0.64986 0.09345 0.89802 0.0
O110 O 0.63348 0.09067 0.0729 0.0
O111 O 0.60778 0.06212 1.02207 0.0
H112 H 0.54592 0.03569 1.0038 0.0
H113 H 0.51919 0.02387 0.0623 0.0
H114 H 0.50197 0.95339 1.00162 0.0
H115 H 0.52839 0.96525 0.94238 0.0
H116 H 0.67288 0.07954 0.95194 0.0
H117 H 0.70439 0.08443 0.95023 0.0
H118 H 0.72865 0.15641 0.9539 0.0
H119 H 0.69698 0.15123 0.954 0.0
Ho120 Ho 0.78001 0.8492 0.29017 0.0
Ho121 Ho 0.74873 0.8512 0.28589 0.0
C122 C 0.74047 0.80153 0.25908 0.0
C123 C 0.80741 0.84043 0.3023 0.0
C124 C 0.81175 0.82308 0.31887 0.0
C125 C 0.80626 0.81238 0.37308 0.0
C126 C 0.8121 0.79741 0.38998 0.0
C127 C 0.82355 0.79294 0.35312 0.0
C128 C 0.8283 0.80305 0.29742 0.0
C129 C 0.8225 0.81794 0.28067 0.0
C130 C 0.77071 0.85677 0.16325 0.0
C131 C 0.78918 0.89895 0.32249 0.0
C132 C 0.72088 0.85924 0.26724 0.0
C133 C 0.71519 0.87369 0.23579 0.0
C134 C 0.72873 0.89475 0.22195 0.0
C135 C 0.72269 0.90831 0.19435 0.0
C136 C 0.703 0.90104 0.1799 0.0
C137 C 0.68958 0.87985 0.19375 0.0
C138 C 0.69561 0.86639 0.22123 0.0
C139 C 0.75785 0.84405 0.41348 0.0
O140 O 0.75836 0.8124 0.29218 0.0
O141 O 0.73317 0.81363 0.24154 0.0
O142 O 0.79524 0.83482 0.24706 0.0
O143 O 0.80511 0.85221 0.34981 0.0
O144 O 0.78741 0.86787 0.20331 0.0
O145 O 0.75896 0.84302 0.19561 0.0
O146 O 0.77111 0.88863 0.29062 0.0
O147 O 0.79638 0.88642 0.33561 0.0
O148 O 0.7351 0.86925 0.31857 0.0
O149 O 0.72161 0.84385 0.22799 0.0
O150 O 0.74106 0.83341 0.37409 0.0
O151 O 0.76971 0.85748 0.38068 0.0
H152 H 0.79786 0.81595 0.40316 0.0
H153 H 0.80824 0.79 0.43332 0.0
H154 H 0.83675 0.79967 0.2671 0.0
H155 H 0.82678 0.82587 0.23839 0.0
H156 H 0.74393 0.90074 0.23275 0.0
H157 H 0.73344 0.9244 0.18388 0.0
H158 H 0.67437 0.87381 0.18463 0.0
H159 H 0.68493 0.85029 0.23193 0.0
Ho160 Ho 0.26269 0.83818 0.43022 0.0
Ho161 Ho 0.23101 0.83876 0.40605 0.0
C162 C 0.26806 0.88712 0.44334 0.0
C163 C 0.29736 0.84596 0.43876 0.0
C164 C 0.31354 0.8595 0.40692 0.0
C165 C 0.31036 0.86456 0.34436 0.0
C166 C 0.3259 0.87737 0.31469 0.0
C167 C 0.34489 0.88555 0.34738 0.0
C168 C 0.34797 0.8807 0.41045 0.0
C169 C 0.33243 0.86775 0.43983 0.0
C170 C 0.24815 0.83274 0.54805 0.0
C171 C 0.2263 0.78954 0.39069 0.0
C172 C 0.19665 0.83256 0.39537 0.0
C173 C 0.17768 0.81653 0.40965 0.0
C174 C 0.17581 0.80389 0.45991 0.0
C175 C 0.15763 0.78956 0.47393 0.0
C176 C 0.14097 0.78751 0.43769 0.0
C177 C 0.14297 0.7999 0.38653 0.0
C178 C 0.16111 0.81424 0.37279 0.0
C179 C 0.24608 0.84472 0.28941 0.0
O180 O 0.27486 0.87494 0.41983 0.0
O181 O 0.25022 0.87622 0.45132 0.0
O182 O 0.29293 0.85757 0.47871 0.0
O183 O 0.28212 0.82823 0.40035 0.0
O184 O 0.25464 0.82122 0.5198 0.0
O185 O 0.24873 0.84635 0.50952 0.0
O186 O 0.21839 0.80116 0.40827 0.0
O187 O 0.24455 0.80078 0.38801 0.0
O188 O 0.20212 0.82464 0.34846 0.0
O189 O 0.21079 0.84545 0.44601 0.0
O190 O 0.23998 0.85664 0.3184 0.0
O191 O 0.24503 0.8307 0.32709 0.0
H192 H 0.29588 0.85859 0.31845 0.0
H193 H 0.32307 0.88105 0.26644 0.0
H194 H 0.3624 0.88657 0.43662 0.0
H195 H 0.33516 0.8641 0.48823 0.0
H196 H 0.18839 0.80525 0.48868 0.0
H197 H 0.15662 0.78009 0.51313 0.0
H198 H 0.13057 0.79902 0.35817 0.0
H199 H 0.16223 0.82384 0.33381 0.0
Ho200 Ho 0.23508 0.26623 0.49402 0.0
Ho201 Ho 0.27463 0.30909 0.53074 0.0
C202 C 0.23844 0.31476 0.49776 0.0
C203 C 0.20059 0.23409 0.50027 0.0
C204 C 0.18288 0.23263 0.51643 0.0
C205 C 0.18103 0.23668 0.58252 0.0
C206 C 0.16398 0.23457 0.59641 0.0
C207 C 0.14836 0.22837 0.54463 0.0
C208 C 0.1503 0.22442 0.47865 0.0
C209 C 0.16726 0.22641 0.46481 0.0
C210 C 0.24665 0.27569 0.37228 0.0
C211 C 0.27148 0.26061 0.51357 0.0
C212 C 0.30849 0.34313 0.52899 0.0
C213 C 0.3226 0.35003 0.48577 0.0
C214 C 0.32106 0.33432 0.43273 0.0
C215 C 0.33562 0.34089 0.39605 0.0
C216 C 0.35196 0.36325 0.41203 0.0
C217 C 0.35303 0.37901 0.46397 0.0
C218 C 0.33852 0.37244 0.50048 0.0
C219 C 0.26307 0.29956 0.65268 0.0
O220 O 0.22748 0.29322 0.50236 0.0
O221 O 0.25716 0.32443 0.50259 0.0
O222 O 0.20542 0.24131 0.44605 0.0
O223 O 0.21562 0.2423 0.54841 0.0
O224 O 0.23128 0.25798 0.38129 0.0
O225 O 0.25629 0.28722 0.43151 0.0
O226 O 0.28153 0.28196 0.50609 0.0
O227 O 0.25306 0.25075 0.51643 0.0
O228 O 0.30555 0.32571 0.5558 0.0
O229 O 0.29255 0.34249 0.50787 0.0
O230 O 0.2787 0.31688 0.64389 0.0
O231 O 0.25364 0.28827 0.59322 0.0
H232 H 0.1927 0.24141 0.62363 0.0
H233 H 0.16311 0.23796 0.64782 0.0
H234 H 0.13852 0.21928 0.43751 0.0
H235 H 0.16808 0.22289 0.41338 0.0
H236 H 0.30884 0.3169 0.42072 0.0
H237 H 0.33435 0.32829 0.35656 0.0
H238 H 0.36517 0.39648 0.47671 0.0
H239 H 0.3399 0.38479 0.54113 0.0
Ho240 Ho 0.43261 0.1706 0.66344 0.0
Ho241 Ho 0.42671 0.17051 0.7981 0.0
C242 C 0.40121 0.18209 0.69403 0.0
C243 C 0.43411 0.16543 0.54013 0.0
C244 C 0.42999 0.17763 0.49291 0.0
C245 C 0.41608 0.16554 0.43368 0.0
C246 C 0.40995 0.17688 0.39455 0.0
C247 C 0.41739 0.20036 0.41495 0.0
C248 C 0.43144 0.21236 0.47376 0.0
C249 C 0.43771 0.20119 0.51204 0.0
C250 C 0.45222 0.21366 0.74112 0.0
C251 C 0.45859 0.16079 0.76582 0.0
C252 C 0.42606 0.18143 0.92073 0.0
C253 C 0.44094 0.19956 0.97514 0.0
C254 C 0.45921 0.21505 0.96381 0.0
C255 C 0.47182 0.23534 1.01004 0.0
C256 C 0.46664 0.23968 0.06947 0.0
C257 C 0.449 0.22311 0.08297 0.0
C258 C 0.43614 0.20329 1.03575 0.0
C259 C 0.4056 0.12761 0.72101 0.0
O260 O 0.40796 0.17595 0.64676 0.0
O261 O 0.40714 0.18256 0.75698 0.0
O262 O 0.44957 0.17794 0.58728 0.0
O263 O 0.41925 0.15118 0.56268 0.0
O264 O 0.44376 0.20827 0.67944 0.0
O265 O 0.45069 0.19594 0.75847 0.0
O266 O 0.45472 0.17172 0.81164 0.0
O267 O 0.44931 0.15511 0.70346 0.0
O268 O 0.42897 0.16527 0.89933 0.0
O269 O 0.42046 0.18873 0.87233 0.0
O270 O 0.41274 0.13238 0.78387 0.0
O271 O 0.40832 0.14572 0.70327 0.0
H272 H 0.40967 0.14729 0.41854 0.0
H273 H 0.39927 0.1673 0.3489 0.0
H274 H 0.43793 0.2306 0.48972 0.0
H275 H 0.4484 0.21108 0.5574 0.0
H276 H 0.46315 0.21212 0.91729 0.0
H277 H 0.4851 0.24801 0.99801 0.0
H278 H 0.4445 0.22629 0.12797 0.0
H279 H 0.42208 0.19154 0.0451 0.0
Ho280 Ho 0.93497 0.15459 0.78053 0.0
Ho281 Ho 0.93002 0.18476 0.71825 0.0
C282 C 0.89635 0.15569 0.78682 0.0
C283 C 0.93684 0.12795 0.8555 0.0
C284 C 0.92303 0.1122 0.89089 0.0
C285 C 0.90316 0.10215 0.86794 0.0
C286 C 0.89064 0.094 0.9117 0.0
C287 C 0.89804 0.09695 0.97962 0.0
C288 C 0.91751 0.10347 0.99869 0.0
C289 C 0.92988 0.11111 0.95461 0.0
C290 C 0.91685 0.13493 0.65123 0.0
C291 C 0.96792 0.18294 0.70786 0.0
C292 C 0.92812 0.21377 0.65359 0.0
C293 C 0.9397 0.23044 0.61542 0.0
C294 C 0.95234 0.2275 0.58225 0.0
C295 C 0.95794 0.23812 0.52872 0.0
C296 C 0.9505 0.25128 0.50741 0.0
C297 C 0.9418 0.25837 0.55086 0.0
C298 C 0.9359 0.24742 0.6038 0.0
C299 C 0.94822 0.20361 0.84797 0.0
O300 O 0.90906 0.15181 0.81837 0.0
O301 O 0.90021 0.16592 0.73612 0.0
O302 O 0.93234 0.12244 0.79087 0.0
O303 O 0.94314 0.14942 0.87743 0.0
O304 O 0.9322 0.13606 0.68043 0.0
O305 O 0.91296 0.1467 0.69044 0.0
O306 O 0.955 0.18648 0.67618 0.0
O307 O 0.96448 0.17332 0.75991 0.0
O308 O 0.93507 0.21855 0.71695 0.0
O309 O 0.9208 0.19232 0.62736 0.0
O310 O 0.93237 0.20168 0.8208 0.0
O311 O 0.95209 0.19241 0.80694 0.0
H312 H 0.89753 0.1025 0.81818 0.0
H313 H 0.87559 0.08784 0.89374 0.0
H314 H 0.92408 0.10568 0.04964 0.0
H315 H 0.94517 0.11853 0.97272 0.0
H316 H 0.95601 0.21504 0.5925 0.0
H317 H 0.96534 0.23283 0.49829 0.0
H318 H 0.93673 0.26939 0.53764 0.0
H319 H 0.92675 0.25053 0.63104 0.0
Ho320 Ho 0.91935 0.64821 0.68415 0.0
Ho321 Ho 0.93967 0.69506 0.75488 0.0
C322 C 0.96144 0.68342 0.65868 0.0
C323 C 0.90286 0.60886 0.60429 0.0
C324 C 0.90652 0.60044 0.54322 0.0
C325 C 0.92487 0.61231 0.52851 0.0
C326 C 0.92716 0.60901 0.46349 0.0
C327 C 0.91107 0.59378 0.41214 0.0
C328 C 0.89339 0.57928 0.42961 0.0
C329 C 0.89106 0.58288 0.49471 0.0
C330 C 0.93906 0.65447 0.8077 0.0
C331 C 0.89791 0.65963 0.78277 0.0
C332 C 0.95612 0.73466 0.83348 0.0
C333 C 0.95249 0.7432 0.89444 0.0
C334 C 0.93414 0.73139 0.90915 0.0
C335 C 0.93188 0.73455 0.97428 0.0
C336 C 0.94801 0.74957 1.02572 0.0
C337 C 0.9657 0.7641 1.00832 0.0
C338 C 0.968 0.76063 0.9431 0.0
C339 C 0.91982 0.68844 0.63104 0.0
O340 O 0.94418 0.66549 0.63058 0.0
O341 O 0.964 0.69636 0.71501 0.0
O342 O 0.9157 0.61497 0.65833 0.0
O343 O 0.89772 0.62371 0.59892 0.0
O344 O 0.92145 0.63817 0.78291 0.0
O345 O 0.94509 0.66743 0.76656 0.0
O346 O 0.9151 0.67794 0.80937 0.0
O347 O 0.89523 0.64652 0.72656 0.0
O348 O 0.94321 0.72831 0.77946 0.0
O349 O 0.96136 0.71993 0.83939 0.0
O350 O 0.93753 0.70461 0.65521 0.0
O351 O 0.91384 0.67578 0.67284 0.0
H352 H 0.93708 0.62569 0.5657 0.0
H353 H 0.94108 0.62054 0.45294 0.0
H354 H 0.88086 0.56683 0.39183 0.0
H355 H 0.87684 0.57326 0.50577 0.0
H356 H 0.9219 0.71811 0.87184 0.0
H357 H 0.91794 0.72303 0.98475 0.0
H358 H 0.97826 0.77642 0.04619 0.0
H359 H 0.98222 0.7702 0.93207 0.0
H360 H 0.12805 0.52378 0.96104 0.0
H361 H 0.12623 0.5217 0.84152 0.0
H362 H 0.06645 0.46834 0.80445 0.0
H363 H 0.06846 0.47011 0.9255 0.0
H364 H 0.07854 0.45765 0.70487 0.0
H365 H 0.08805 0.53089 0.7832 0.0
H366 H 0.10401 0.56945 0.8528 0.0
H367 H 0.15618 0.5882 0.78365 0.0
H368 H 0.14059 0.54964 0.71422 0.0
H369 H 0.06041 0.46174 0.3564 0.0
H370 H 0.06221 0.46376 0.47589 0.0
H371 H 0.12188 0.5175 0.51321 0.0
H372 H 0.11987 0.51582 0.39221 0.0
H373 H 0.10985 0.52796 0.61266 0.0
H374 H 0.10049 0.45489 0.53426 0.0
H375 H 0.08462 0.41639 0.46432 0.0
H376 H 0.0324 0.39731 0.53348 0.0
H377 H 0.04788 0.4358 0.60322 0.0
C378 C 0.11433 0.51156 0.92816 0.0
C379 C 0.09843 0.49729 0.95621 0.0
C380 C 0.11322 0.51048 0.85795 0.0
C381 C 0.09604 0.49517 0.80972 0.0
C382 C 0.0801 0.48061 0.83761 0.0
C383 C 0.08122 0.4817 0.90837 0.0
C384 C 0.09492 0.49431 0.73213 0.0
C385 C 0.08524 0.47324 0.68558 0.0
C386 C 0.10382 0.51412 0.70266 0.0
C387 C 0.11321 0.53731 0.74405 0.0
C388 C 0.10296 0.5432 0.78315 0.0
C389 C 0.11193 0.56506 0.82253 0.0
C390 C 0.13111 0.58124 0.82279 0.0
C391 C 0.14133 0.57563 0.78348 0.0
C392 C 0.13243 0.55378 0.74407 0.0
C393 C 0.0741 0.47404 0.38933 0.0
C394 C 0.08997 0.48845 0.3614 0.0
C395 C 0.0752 0.47508 0.45953 0.0
C396 C 0.09235 0.49047 0.50781 0.0
C397 C 0.10826 0.50516 0.48001 0.0
C398 C 0.10714 0.50413 0.40928 0.0
C399 C 0.09347 0.4913 0.58538 0.0
C400 C 0.10316 0.51237 0.63194 0.0
C401 C 0.0846 0.47148 0.61485 0.0
C402 C 0.07529 0.4483 0.57344 0.0
C403 C 0.08559 0.44252 0.53426 0.0
C404 C 0.07667 0.4207 0.49468 0.0
C405 C 0.0575 0.40444 0.49431 0.0
C406 C 0.04724 0.40994 0.53372 0.0
C407 C 0.05608 0.43175 0.57333 0.0
H408 H 0.05062 0.38756 0.46361 0.0
H409 H 0.13804 0.59815 0.85333 0.0
H410 H 0.61918 0.48236 0.80657 0.0
H411 H 0.6194 0.47996 0.6868 0.0
H412 H 0.60441 0.53097 0.68334 0.0
H413 H 0.60407 0.5332 0.8022 0.0
H414 H 0.5863 0.50439 0.56963 0.0
H415 H 0.65278 0.53771 0.67091 0.0
H416 H 0.68047 0.54002 0.7408 0.0
H417 H 0.66742 0.47711 0.62262 0.0
H418 H 0.63947 0.47427 0.55257 0.0
H419 H 0.6051 0.52501 0.23879 0.0
H420 H 0.6046 0.52698 0.35829 0.0
H421 H 0.62057 0.47682 0.36147 0.0
H422 H 0.62119 0.47502 0.24286 0.0
H423 H 0.63807 0.5027 0.47524 0.0
H424 H 0.57181 0.46885 0.3744 0.0
H425 H 0.54358 0.46549 0.30479 0.0
H426 H 0.55561 0.52812 0.4215 0.0
H427 H 0.58406 0.53199 0.49134 0.0
C428 C 0.61598 0.49321 0.78086 0.0
C429 C 0.61166 0.50809 0.81714 0.0
C430 C 0.61622 0.49195 0.71086 0.0
C431 C 0.61217 0.50548 0.67218 0.0
C432 C 0.60766 0.52008 0.70869 0.0
C433 C 0.60753 0.52144 0.77839 0.0
C434 C 0.61252 0.50458 0.59541 0.0
C435 C 0.59791 0.50436 0.55007 0.0
C436 C 0.62708 0.50393 0.56533 0.0
C437 C 0.64392 0.50566 0.60695 0.0
C438 C 0.65575 0.5243 0.66009 0.0
C439 C 0.67149 0.52571 0.69971 0.0
C440 C 0.67567 0.50869 0.68627 0.0
C441 C 0.66415 0.49026 0.63304 0.0
C442 C 0.64835 0.48875 0.59335 0.0
C443 C 0.60846 0.51425 0.26439 0.0
C444 C 0.61315 0.49977 0.22811 0.0
C445 C 0.60806 0.51526 0.33422 0.0
C446 C 0.6123 0.50185 0.37276 0.0
C447 C 0.61716 0.4876 0.33625 0.0
C448 C 0.61745 0.4865 0.26668 0.0
C449 C 0.61188 0.50259 0.44946 0.0
C450 C 0.62647 0.50276 0.49477 0.0
C451 C 0.59724 0.50307 0.47945 0.0
C452 C 0.58019 0.50084 0.43763 0.0
C453 C 0.56852 0.48199 0.38491 0.0
C454 C 0.55246 0.47998 0.34546 0.0
C455 C 0.54784 0.49662 0.35859 0.0
C456 C 0.55924 0.51527 0.41131 0.0
C457 C 0.57532 0.51737 0.45087 0.0
H458 H 0.53541 0.49504 0.32805 0.0
H459 H 0.68787 0.50981 0.717 0.0
H460 H 0.57459 0.04933 0.69632 0.0
H461 H 0.57738 0.05347 0.58218 0.0
H462 H 0.63508 0.06691 0.62576 0.0
H463 H 0.63266 0.06456 0.74293 0.0
H464 H 0.63753 0.08565 0.53261 0.0
H465 H 0.58431 0.01015 0.51725 0.0
H466 H 0.55301 0.97993 0.53505 0.0
H467 H 0.525 0.01056 0.43999 0.0
H468 H 0.55611 0.04094 0.42187 0.0
H469 H 0.63397 0.10517 0.19861 0.0
H470 H 0.63095 0.10202 0.31297 0.0
H471 H 0.5904 0.02974 0.24955 0.0
H472 H 0.59264 0.0333 0.13264 0.0
H473 H 0.58011 0.03742 0.35106 0.0
H474 H 0.65174 0.12189 0.47576 0.0
H475 H 0.68448 0.14596 0.45562 0.0
H476 H 0.67818 0.0882 0.32913 0.0
H477 H 0.6455 0.06374 0.34911 0.0
C478 C 0.58812 0.05352 0.6826 0.0
C479 C 0.60338 0.05684 0.73215 0.0
C480 C 0.58961 0.05539 0.61491 0.0
C481 C 0.60621 0.0596 0.58977 0.0
C482 C 0.62177 0.06345 0.6399 0.0
C483 C 0.62045 0.0622 0.7087 0.0
C484 C 0.60727 0.06018 0.51339 0.0
C485 C 0.62474 0.07503 0.49382 0.0
C486 C 0.59125 0.04616 0.45818 0.0
C487 C 0.57255 0.02792 0.46884 0.0
C488 C 0.57147 0.01045 0.50039 0.0
C489 C 0.55376 0.99328 0.51045 0.0
C490 C 0.53702 0.99333 0.48879 0.0
C491 C 0.53795 0.0105 0.45675 0.0
C492 C 0.55561 0.02768 0.44647 0.0
C493 C 0.62421 0.08841 0.20794 0.0
C494 C 0.61361 0.06963 0.15314 0.0
C495 C 0.62271 0.0865 0.27552 0.0
C496 C 0.61096 0.0654 0.29485 0.0
C497 C 0.59989 0.0465 0.23977 0.0
C498 C 0.60113 0.04853 0.17125 0.0
C499 C 0.6102 0.06344 0.37065 0.0
C500 C 0.59283 0.04824 0.39001 0.0
C501 C 0.62648 0.07651 0.42546 0.0
C502 C 0.6461 0.09107 0.41336 0.0
C503 C 0.65737 0.11432 0.4438 0.0
C504 C 0.67591 0.12803 0.43238 0.0
C505 C 0.68338 0.11863 0.39094 0.0
C506 C 0.67235 0.09548 0.36102 0.0
C507 C 0.65382 0.08169 0.37233 0.0
H508 H 0.69773 0.12928 0.38213 0.0
H509 H 0.52333 0.98004 0.49673 0.0
H510 H 0.73085 0.81838 0.48594 0.0
H511 H 0.73278 0.8201 0.60543 0.0
H512 H 0.79188 0.87545 0.64285 0.0
H513 H 0.79 0.87331 0.52176 0.0
H514 H 0.79117 0.85392 0.73756 0.0
H515 H 0.7475 0.87799 0.67386 0.0
H516 H 0.71893 0.87556 0.61021 0.0
H517 H 0.68199 0.81332 0.67302 0.0
H518 H 0.71037 0.81524 0.73643 0.0
H519 H 0.79773 0.88272 0.09105 0.0
H520 H 0.79584 0.88103 0.97153 0.0
H521 H 0.73689 0.82529 0.93378 0.0
H522 H 0.73873 0.82735 0.05481 0.0
H523 H 0.73754 0.84708 0.83933 0.0
H524 H 0.78127 0.82307 0.90316 0.0
H525 H 0.80986 0.82562 0.96708 0.0
H526 H 0.84673 0.88788 0.9042 0.0
H527 H 0.81833 0.88584 0.84053 0.0
C528 C 0.7444 0.83109 0.51894 0.0
C529 C 0.76017 0.84571 0.491 0.0
C530 C 0.74547 0.83225 0.58916 0.0
C531 C 0.76238 0.84836 0.63751 0.0
C532 C 0.77837 0.86276 0.60962 0.0
C533 C 0.7773 0.86156 0.53887 0.0
C534 C 0.76328 0.84986 0.71518 0.0
C535 C 0.77941 0.85274 0.75901 0.0
C536 C 0.74813 0.84787 0.74733 0.0
C537 C 0.73106 0.84664 0.70931 0.0
C538 C 0.73329 0.86371 0.67373 0.0
C539 C 0.71713 0.86243 0.63776 0.0
C540 C 0.69866 0.84426 0.63742 0.0
C541 C 0.69631 0.82736 0.67323 0.0
C542 C 0.71242 0.82854 0.70924 0.0
C543 C 0.78423 0.86993 0.05797 0.0
C544 C 0.76847 0.85517 0.08577 0.0
C545 C 0.78318 0.86879 0.98775 0.0
C546 C 0.76632 0.8526 0.93932 0.0
C547 C 0.75035 0.83806 0.96708 0.0
C548 C 0.75141 0.83922 1.0378 0.0
C549 C 0.76543 0.85113 0.86168 0.0
C550 C 0.7493 0.84825 0.81786 0.0
C551 C 0.78059 0.85314 0.82955 0.0
C552 C 0.79767 0.85442 0.86765 0.0
C553 C 0.79547 0.83738 0.90332 0.0
C554 C 0.81164 0.83873 0.93945 0.0
C555 C 0.8301 0.85694 0.93985 0.0
C556 C 0.83242 0.87381 0.90394 0.0
C557 C 0.8163 0.87256 0.86778 0.0
H558 H 0.8426 0.85795 0.96785 0.0
H559 H 0.68617 0.84331 0.60955 0.0
H560 H 0.24796 0.80405 0.63246 0.0
H561 H 0.2479 0.80607 0.75128 0.0
H562 H 0.2469 0.86771 0.76138 0.0
H563 H 0.24701 0.86567 0.6412 0.0
H564 H 0.26924 0.87331 0.8764 0.0
H565 H 0.20602 0.81039 0.77233 0.0
H566 H 0.18204 0.77359 0.6976 0.0
H567 H 0.20602 0.74021 0.80023 0.0
H568 H 0.23032 0.77688 0.87505 0.0
H569 H 0.24781 0.87451 0.20651 0.0
H570 H 0.24833 0.87286 0.08798 0.0
H571 H 0.24699 0.80976 0.07573 0.0
H572 H 0.24648 0.81146 0.1955 0.0
H573 H 0.22596 0.8049 0.96173 0.0
H574 H 0.28916 0.86626 0.0635 0.0
H575 H 0.31476 0.90267 0.13636 0.0
H576 H 0.2924 0.93843 1.03851 0.0
H577 H 0.26657 0.90219 0.96532 0.0
C578 C 0.24758 0.8181 0.65914 0.0
C579 C 0.24734 0.83454 0.62401 0.0
C580 C 0.24745 0.81921 0.72874 0.0
C581 C 0.2471 0.8369 0.76909 0.0
C582 C 0.2471 0.8536 0.73426 0.0
C583 C 0.24705 0.85237 0.66402 0.0
C584 C 0.24685 0.83786 0.84591 0.0
C585 C 0.25943 0.85827 0.89406 0.0
C586 C 0.23476 0.81851 0.87335 0.0
C587 C 0.2201 0.79643 0.82887 0.0
C588 C 0.20625 0.79523 0.7787 0.0
C589 C 0.1926 0.77439 0.73636 0.0
C590 C 0.19254 0.75458 0.74405 0.0
C591 C 0.2061 0.75557 0.79426 0.0
C592 C 0.21981 0.77637 0.83669 0.0
C593 C 0.24777 0.86022 0.17939 0.0
C594 C 0.24721 0.84325 0.21375 0.0
C595 C 0.24819 0.85933 0.10997 0.0
C596 C 0.24799 0.84131 0.06908 0.0
C597 C 0.24723 0.82413 0.10323 0.0
C598 C 0.24703 0.82516 0.17326 0.0
C599 C 0.24828 0.84039 0.9923 0.0
C600 C 0.23573 0.81998 0.94414 0.0
C601 C 0.26053 0.85969 0.96492 0.0
C602 C 0.27579 0.88146 1.00944 0.0
C603 C 0.2896 0.88186 0.05792 0.0
C604 C 0.30417 0.90247 0.09918 0.0
C605 C 0.30515 0.92284 0.09223 0.0
C606 C 0.29159 0.92263 0.04391 0.0
C607 C 0.27699 0.90206 1.00247 0.0
H608 H 0.31647 0.93878 0.12413 0.0
H609 H 0.18196 0.73847 0.71119 0.0
H610 H 0.23184 0.26363 0.70055 0.0
H611 H 0.22905 0.25944 0.81671 0.0
H612 H 0.28375 0.3223 0.88732 0.0
H613 H 0.28661 0.32618 0.77306 0.0
H614 H 0.28477 0.29989 0.9713 0.0
H615 H 0.23264 0.31002 0.89639 0.0
H616 H 0.20256 0.30144 0.82494 0.0
H617 H 0.17256 0.23462 0.87141 0.0
H618 H 0.20253 0.24271 0.94255 0.0
H619 H 0.27769 0.31167 0.32403 0.0
H620 H 0.28035 0.31589 0.20782 0.0
H621 H 0.22572 0.25293 0.13754 0.0
H622 H 0.22299 0.249 0.25192 0.0
H623 H 0.2246 0.27536 0.05324 0.0
H624 H 0.27696 0.26575 0.12977 0.0
H625 H 0.30727 0.27448 0.1999 0.0
H626 H 0.33709 0.34068 0.14928 0.0
H627 H 0.30687 0.33252 0.07992 0.0
C628 C 0.2433 0.27669 0.74048 0.0
C629 C 0.2595 0.29542 0.72435 0.0
C630 C 0.24167 0.27438 0.80855 0.0
C631 C 0.25607 0.29065 0.86495 0.0
C632 C 0.27217 0.3091 0.84797 0.0
C633 C 0.27376 0.3114 0.78074 0.0
C634 C 0.25492 0.28886 0.94035 0.0
C635 C 0.2715 0.29478 0.98842 0.0
C636 C 0.2379 0.28182 0.96685 0.0
C637 C 0.21988 0.27688 0.92417 0.0
C638 C 0.21966 0.29344 0.89099 0.0
C639 C 0.20262 0.28867 0.85061 0.0
C640 C 0.18567 0.26747 0.84347 0.0
C641 C 0.18571 0.25101 0.87687 0.0
C642 C 0.20272 0.25569 0.91725 0.0
C643 C 0.26622 0.2986 0.28417 0.0
C644 C 0.2501 0.27981 0.30044 0.0
C645 C 0.26777 0.30093 0.21606 0.0
C646 C 0.25335 0.28464 0.15972 0.0
C647 C 0.23732 0.26614 0.17684 0.0
C648 C 0.23581 0.2638 0.24413 0.0
C649 C 0.25447 0.28642 0.08427 0.0
C650 C 0.23788 0.2805 1.03617 0.0
C651 C 0.27151 0.29351 0.05776 0.0
C652 C 0.2896 0.29862 0.10031 0.0
C653 C 0.28994 0.28226 0.13415 0.0
C654 C 0.30711 0.2871 0.17372 0.0
C655 C 0.32408 0.30814 0.17921 0.0
C656 C 0.32392 0.32441 0.14517 0.0
C657 C 0.30677 0.3197 0.10579 0.0
H658 H 0.33736 0.31181 0.20967 0.0
H659 H 0.1725 0.26381 0.8122 0.0
H660 H 0.40855 0.23251 0.45237 0.0
H661 H 0.41282 0.2629 0.39294 0.0
H662 H 0.42054 0.22827 0.22406 0.0
H663 H 0.41613 0.19815 0.28251 0.0
H664 H 0.44665 0.28833 0.37587 0.0
H665 H 0.41915 0.24303 0.09307 0.0
H666 H 0.38815 0.215 1.01795 0.0
H667 H 0.35812 0.23002 0.15098 0.0
H668 H 0.38901 0.25849 0.22681 0.0
H669 H 0.48254 0.25107 0.20124 0.0
H670 H 0.48034 0.27854 0.27526 0.0
H671 H 0.47187 0.30777 0.10984 0.0
H672 H 0.4737 0.27956 1.03514 0.0
H673 H 0.43945 0.28319 0.13292 0.0
H674 H 0.49079 0.34171 0.28177 0.0
H675 H 0.52274 0.36667 0.35559 0.0
H676 H 0.50784 0.31911 0.48681 0.0
H677 H 0.47617 0.29347 0.4132 0.0
C678 C 0.41028 0.23096 0.40133 0.0
C679 C 0.41254 0.21333 0.37249 0.0
C680 C 0.41259 0.24826 0.36734 0.0
C681 C 0.41715 0.24811 0.30419 0.0
C682 C 0.41669 0.22879 0.27217 0.0
C683 C 0.41431 0.21149 0.30594 0.0
C684 C 0.42786 0.26979 0.28029 0.0
C685 C 0.44515 0.28731 0.32266 0.0
C686 C 0.42514 0.27009 0.21176 0.0
C687 C 0.4065 0.25323 0.16544 0.0
C688 C 0.406 0.24071 0.106 0.0
C689 C 0.38841 0.22461 0.06338 0.0
C690 C 0.37118 0.22079 0.07953 0.0
C691 C 0.37149 0.23303 0.13847 0.0
C692 C 0.38904 0.24915 0.18137 0.0
C693 C 0.48154 0.26435 0.18136 0.0
C694 C 0.47728 0.26257 0.11256 0.0
C695 C 0.48041 0.28042 0.22402 0.0
C696 C 0.47457 0.2944 0.19763 0.0
C697 C 0.47559 0.29657 0.13115 0.0
C698 C 0.47659 0.28033 0.0882 0.0
C699 C 0.45977 0.2966 0.22688 0.0
C700 C 0.44115 0.28459 0.1863 0.0
C701 C 0.46153 0.30052 0.29667 0.0
C702 C 0.48075 0.31577 0.34203 0.0
C703 C 0.49428 0.3365 0.32629 0.0
C704 C 0.51241 0.35077 0.36814 0.0
C705 C 0.51724 0.34458 0.42614 0.0
C706 C 0.50401 0.324 0.44216 0.0
C707 C 0.48591 0.30959 0.40037 0.0
H708 H 0.53127 0.35568 0.4585 0.0
H709 H 0.35758 0.20831 0.04648 0.0
H710 H 0.91596 0.24222 0.43975 0.0
H711 H 0.90003 0.21572 0.3347 0.0
H712 H 0.95421 0.22577 0.30185 0.0
H713 H 0.97066 0.25262 0.40854 0.0
H714 H 0.91792 0.21146 0.18049 0.0
H715 H 0.94388 0.18915 0.3593 0.0
H716 H 0.95227 0.185 0.47341 0.0
H717 H 0.89335 0.15569 0.49188 0.0
H718 H 0.88465 0.15986 0.37768 0.0
H719 H 0.90215 0.09297 0.11216 0.0
H720 H 0.9042 0.12136 0.19687 0.0
H721 H 0.86984 0.13452 0.05465 0.0
H722 H 0.87011 0.10847 0.96783 0.0
H723 H 0.89258 0.13902 0.26348 0.0
H724 H 0.88415 0.18913 0.07388 0.0
H725 H 0.88776 0.19634 0.9607 0.0
H726 H 0.92659 0.17222 0.9607 0.0
H727 H 0.92313 0.16478 0.07391 0.0
C728 C 0.92492 0.24008 0.40916 0.0
C729 C 0.94453 0.24857 0.43461 0.0
C730 C 0.91559 0.22461 0.34894 0.0
C731 C 0.92589 0.21822 0.31262 0.0
C732 C 0.94605 0.23029 0.33056 0.0
C733 C 0.95542 0.2457 0.39138 0.0
C734 C 0.91538 0.19612 0.26615 0.0
C735 C 0.91223 0.19551 0.19809 0.0
C736 C 0.90839 0.17557 0.28988 0.0
C737 C 0.91371 0.17526 0.36064 0.0
C738 C 0.9328 0.18231 0.38825 0.0
C739 C 0.93758 0.17975 0.45263 0.0
C740 C 0.92335 0.17005 0.48976 0.0
C741 C 0.90436 0.16322 0.46299 0.0
C742 C 0.8995 0.1657 0.39847 0.0
C743 C 0.89497 0.10183 0.09855 0.0
C744 C 0.88813 0.1005 1.03149 0.0
C745 C 0.89591 0.118 0.14767 0.0
C746 C 0.8886 0.13168 0.13094 0.0
C747 C 0.877 0.12557 0.06768 0.0
C748 C 0.8769 0.11019 1.0179 0.0
C749 C 0.89568 0.15386 0.17581 0.0
C750 C 0.89789 0.15471 0.24466 0.0
C751 C 0.903 0.17473 0.15243 0.0
C752 C 0.90323 0.17622 0.0818 0.0
C753 C 0.89325 0.1851 0.04928 0.0
C754 C 0.89535 0.18934 0.98546 0.0
C755 C 0.90756 0.18499 0.9541 0.0
C756 C 0.91722 0.17569 0.98542 0.0
C757 C 0.91513 0.17134 0.04926 0.0
H758 H 0.90951 0.18888 0.90549 0.0
H759 H 0.92703 0.16768 0.53908 0.0
H760 H 0.94097 0.60715 0.34487 0.0
H761 H 0.94717 0.63411 0.27069 0.0
H762 H 0.88841 0.61723 0.24655 0.0
H763 H 0.88234 0.59157 0.32301 0.0
H764 H 0.93297 0.6425 0.14968 0.0
H765 H 0.89009 0.665 0.30569 0.0
H766 H 0.87739 0.6565 0.40793 0.0
H767 H 0.92553 0.65212 0.49087 0.0
H768 H 0.93857 0.66065 0.38935 0.0
H769 H 0.91814 0.736 0.09318 0.0
H770 H 0.91193 0.70888 0.16682 0.0
H771 H 0.97063 0.72558 0.18999 0.0
H772 H 0.9767 0.75139 0.11398 0.0
H773 H 0.92607 0.70039 0.28729 0.0
H774 H 0.96883 0.67783 0.1303 0.0
H775 H 0.98147 0.68667 1.0281 0.0
H776 H 0.93324 0.69112 0.94668 0.0
H777 H 0.92026 0.68223 0.0481 0.0
C778 C 0.92915 0.60853 0.32192 0.0
C779 C 0.91156 0.59831 0.34351 0.0
C780 C 0.93271 0.62386 0.27915 0.0
C781 C 0.91847 0.62836 0.25625 0.0
C782 C 0.89972 0.61438 0.26567 0.0
C783 C 0.89626 0.59944 0.30931 0.0
C784 C 0.92409 0.65044 0.23717 0.0
C785 C 0.9316 0.6552 0.17988 0.0
C786 C 0.9222 0.66696 0.27679 0.0
C787 C 0.91513 0.66314 0.33959 0.0
C788 C 0.898 0.66232 0.3459 0.0
C789 C 0.8907 0.65738 0.40355 0.0
C790 C 0.90049 0.65336 0.45528 0.0
C791 C 0.91783 0.65486 0.45026 0.0
C792 C 0.92518 0.65974 0.39271 0.0
C793 C 0.92995 0.73453 0.11578 0.0
C794 C 0.94752 0.74479 0.09409 0.0
C795 C 0.92639 0.71912 0.15827 0.0
C796 C 0.94061 0.71454 0.1808 0.0
C797 C 0.95934 0.72849 0.17118 0.0
C798 C 0.9628 0.74352 0.12781 0.0
C799 C 0.93496 0.69245 0.19984 0.0
C800 C 0.92744 0.68768 0.2571 0.0
C801 C 0.93681 0.67591 0.16015 0.0
C802 C 0.94376 0.67971 0.09714 0.0
C803 C 0.96088 0.68058 0.0904 0.0
C804 C 0.96814 0.68571 1.03278 0.0
C805 C 0.95833 0.68987 0.98153 0.0
C806 C 0.94096 0.68827 0.9869 0.0
C807 C 0.93365 0.68318 0.0444 0.0
H808 H 0.96413 0.69426 0.93751 0.0
H809 H 0.89467 0.64918 0.49939 0.0
H810 H 0.19996 0.30019 0.47624 0.0
H811 H 0.1849 0.32123 0.44289 0.0
H812 H 0.24086 0.38031 0.45011 0.0
H813 H 0.25607 0.35953 0.48418 0.0
H814 H 0.21854 0.39284 0.50218 0.0
H815 H 0.21161 0.34454 0.30214 0.0
H816 H 0.20182 0.308 0.23054 0.0
H817 H 0.14281 0.28197 0.24284 0.0
H818 H 0.15229 0.31827 0.31532 0.0
H819 H 0.19395 0.45522 0.30597 0.0
H820 H 0.20629 0.43295 0.35067 0.0
H821 H 0.14821 0.37688 0.33543 0.0
H822 H 0.13567 0.3989 0.28836 0.0
H823 H 0.16983 0.36159 0.29146 0.0
H824 H 0.17672 0.41101 0.48679 0.0
H825 H 0.18675 0.44773 0.55783 0.0
H826 H 0.24598 0.47182 0.55426 0.0
H827 H 0.23629 0.43536 0.4824 0.0
C828 C 0.20912 0.31773 0.47135 0.0
C829 C 0.22928 0.32808 0.48279 0.0
C830 C 0.20045 0.32972 0.45184 0.0
C831 C 0.21169 0.35231 0.44295 0.0
C832 C 0.23183 0.36291 0.4564 0.0
C833 C 0.24052 0.35094 0.47586 0.0
C834 C 0.20253 0.36478 0.41838 0.0
C835 C 0.20803 0.38609 0.45577 0.0
C836 C 0.18843 0.35581 0.3586 0.0
C837 C 0.18269 0.33403 0.31473 0.0
C838 C 0.19656 0.33096 0.28999 0.0
C839 C 0.19107 0.31031 0.24918 0.0
C840 C 0.17171 0.29266 0.2323 0.0
C841 C 0.1578 0.29565 0.25605 0.0
C842 C 0.16323 0.31626 0.29696 0.0
C843 C 0.18373 0.4381 0.31159 0.0
C844 C 0.16376 0.42889 0.29316 0.0
C845 C 0.19085 0.42543 0.33795 0.0
C846 C 0.17823 0.40326 0.34731 0.0
C847 C 0.15827 0.39396 0.32899 0.0
C848 C 0.15112 0.40666 0.30257 0.0
C849 C 0.18597 0.38977 0.37501 0.0
C850 C 0.18022 0.36828 0.33815 0.0
C851 C 0.19987 0.39859 0.43527 0.0
C852 C 0.20576 0.42051 0.47874 0.0
C853 C 0.19188 0.4242 0.50075 0.0
C854 C 0.1975 0.44496 0.54123 0.0
C855 C 0.21699 0.46211 0.56043 0.0
C856 C 0.23089 0.45852 0.53931 0.0
C857 C 0.22535 0.4378 0.49876 0.0
H858 H 0.22131 0.47818 0.59177 0.0
H859 H 0.16748 0.27668 0.2007 0.0
H860 H 0.6254 0.58021 0.13518 0.0
H861 H 0.64416 0.6217 0.17006 0.0
H862 H 0.68506 0.62572 0.05191 0.0
H863 H 0.66676 0.58389 1.01978 0.0
H864 H 0.70448 0.6561 0.15545 0.0
H865 H 0.64841 0.63932 1.00475 0.0
H866 H 0.61369 0.62049 0.95738 0.0
H867 H 0.60557 0.6483 0.13771 0.0
H868 H 0.6402 0.66708 0.18648 0.0
H869 H 0.71079 0.77442 0.15209 0.0
H870 H 0.69393 0.73299 0.11525 0.0
H871 H 0.72676 0.72921 0.28763 0.0
H872 H 0.74461 0.77083 0.32148 0.0
H873 H 0.67102 0.69869 0.14974 0.0
H874 H 0.72926 0.68173 0.26792 0.0
H875 H 0.76468 0.70122 0.29813 0.0
H876 H 0.77017 0.74248 0.15195 0.0
H877 H 0.7348 0.72298 0.12005 0.0
C878 C 0.63836 0.58989 0.11635 0.0
C879 C 0.6444 0.57859 0.07398 0.0
C880 C 0.6491 0.61378 0.13614 0.0
C881 C 0.66595 0.6273 0.11265 0.0
C882 C 0.67215 0.61597 0.07091 0.0
C883 C 0.66159 0.59196 0.05216 0.0
C884 C 0.67697 0.65307 0.13161 0.0
C885 C 0.69712 0.66537 0.15403 0.0
C886 C 0.6677 0.66562 0.12862 0.0
C887 C 0.64687 0.65443 0.09946 0.0
C888 C 0.63919 0.6413 1.03444 0.0
C889 C 0.61954 0.63065 1.00733 0.0
C890 C 0.60743 0.63315 0.04457 0.0
C891 C 0.61496 0.64636 0.10895 0.0
C892 C 0.63461 0.65703 0.13633 0.0
C893 C 0.71442 0.76474 0.18209 0.0
C894 C 0.72913 0.77603 0.23964 0.0
C895 C 0.70473 0.74091 0.16101 0.0
C896 C 0.70913 0.72751 0.19753 0.0
C897 C 0.72336 0.73882 0.25664 0.0
C898 C 0.73347 0.76274 0.27661 0.0
C899 C 0.6986 0.70187 0.1742 0.0
C900 C 0.67848 0.68954 0.15107 0.0
C901 C 0.70805 0.68945 0.17411 0.0
C902 C 0.72936 0.70105 0.19215 0.0
C903 C 0.73802 0.69489 0.24201 0.0
C904 C 0.75809 0.70595 0.25945 0.0
C905 C 0.76967 0.72315 0.22719 0.0
C906 C 0.76119 0.72922 0.17709 0.0
C907 C 0.74113 0.71817 0.15931 0.0
H908 H 0.7852 0.73173 0.24094 0.0
H909 H 0.59221 0.62489 1.0235 0.0
H910 H 0.50691 1.00642 0.15796 0.0
H911 H 0.47924 0.99271 0.21217 0.0
H912 H 0.44401 0.93797 1.04227 0.0
H913 H 0.4714 0.95185 0.98736 0.0
H914 H 0.42451 0.95669 0.08752 0.0
H915 H 0.46472 0.93038 0.18151 0.0
H916 H 0.49447 0.93446 0.24116 0.0
H917 H 0.49325 0.9736 0.41422 0.0
H918 H 0.46392 0.97044 0.3549 0.0
H919 H 0.34761 0.87634 0.21853 0.0
H920 H 0.37531 0.89696 0.16749 0.0
H921 H 0.40722 0.9453 0.35273 0.0
H922 H 0.37964 0.92443 0.40434 0.0
H923 H 0.42904 0.9332 0.30384 0.0
H924 H 0.38862 0.95868 0.21518 0.0
H925 H 0.35836 0.95423 0.15915 0.0
H926 H 0.3595 0.91741 0.98073 0.0
H927 H 0.3896 0.92126 1.03602 0.0
C928 C 0.49321 0.99162 0.13186 0.0
C929 C 0.49144 0.98009 0.06859 0.0
C930 C 0.47744 0.98372 0.16307 0.0
C931 C 0.45958 0.96413 0.13162 0.0
C932 C 0.45764 0.95306 0.06765 0.0
C933 C 0.47338 0.96089 1.03658 0.0
C934 C 0.44303 0.95458 0.16581 0.0
C935 C 0.42546 0.95142 0.13464 0.0
C936 C 0.44438 0.94825 0.2282 0.0
C937 C 0.46226 0.95047 0.26335 0.0
C938 C 0.47097 0.94017 0.23193 0.0
C939 C 0.48777 0.94232 0.26571 0.0
C940 C 0.49586 0.95445 0.33129 0.0
C941 C 0.48713 0.96441 0.36323 0.0
C942 C 0.47043 0.96249 0.3295 0.0
C943 C 0.36045 0.89152 0.24815 0.0
C944 C 0.36142 0.89876 0.31548 0.0
C945 C 0.37629 0.90335 0.21888 0.0
C946 C 0.39334 0.92292 0.25592 0.0
C947 C 0.39427 0.93027 0.32305 0.0
C948 C 0.3785 0.91831 0.35254 0.0
C949 C 0.41044 0.93512 0.22542 0.0
C950 C 0.42812 0.93873 0.25716 0.0
C951 C 0.40922 0.94204 0.16392 0.0
C952 C 0.39132 0.94011 0.12998 0.0
C953 C 0.38237 0.94952 0.16411 0.0
C954 C 0.36524 0.9471 0.13248 0.0
C955 C 0.35699 0.93551 0.06647 0.0
C956 C 0.3659 0.92637 1.03189 0.0
C957 C 0.38301 0.92868 0.06333 0.0
H958 H 0.34372 0.93364 1.04209 0.0
H959 H 0.50883 0.95603 0.35745 0.0
H960 H 0.56761 0.09062 1.01363 0.0
H961 H 0.54682 0.10557 0.98866 0.0
H962 H 0.57255 0.12877 0.82121 0.0
H963 H 0.59441 0.11526 0.84951 0.0
H964 H 0.56391 0.15703 0.86634 0.0
H965 H 0.52707 0.07527 0.8115 0.0
H966 H 0.51535 0.03664 0.83406 0.0
H967 H 0.48881 0.04926 0.98589 0.0
H968 H 0.50062 0.08812 0.96496 0.0
H969 H 0.47942 0.15163 0.68694 0.0
H970 H 0.50363 0.1418 0.72005 0.0
H971 H 0.49466 0.14548 0.92074 0.0
H972 H 0.47097 0.15603 0.88865 0.0
H973 H 0.49431 0.10355 0.85626 0.0
H974 H 0.53201 0.18616 0.90669 0.0
H975 H 0.54398 0.22425 0.87952 0.0
H976 H 0.56807 0.20799 0.72515 0.0
H977 H 0.55595 0.16964 0.75074 0.0
C978 C 0.56912 0.09936 0.97236 0.0
C979 C 0.58268 0.10178 0.93361 0.0
C980 C 0.55701 0.10767 0.95742 0.0
C981 C 0.55745 0.11763 0.90131 0.0
C982 C 0.57167 0.12103 0.86442 0.0
C983 C 0.58424 0.11335 0.88072 0.0
C984 C 0.54267 0.12364 0.87985 0.0
C985 C 0.54869 0.14513 0.86343 0.0
C986 C 0.52265 0.10836 0.87613 0.0
C987 C 0.51487 0.08468 0.88702 0.0
C988 C 0.51876 0.06982 0.84978 0.0
C989 C 0.51212 0.04789 0.86234 0.0
C990 C 0.50139 0.04052 0.9115 0.0
C991 C 0.49715 0.05501 0.94789 0.0
C992 C 0.50379 0.07698 0.93566 0.0
C993 C 0.48263 0.15039 0.73815 0.0
C994 C 0.47326 0.1547 0.78513 0.0
C995 C 0.49649 0.14479 0.75703 0.0
C996 C 0.50098 0.14287 0.82293 0.0
C997 C 0.49145 0.14682 0.86964 0.0
C998 C 0.47795 0.15295 0.8512 0.0
C999 C 0.51566 0.13682 0.84329 0.0
C1000 C 0.50955 0.11531 0.85918 0.0
C1001 C 0.5355 0.15187 0.84531 0.0
C1002 C 0.54287 0.17494 0.83009 0.0
C1003 C 0.53968 0.19062 0.86649 0.0
C1004 C 0.54654 0.21228 0.85148 0.0
C1005 C 0.55673 0.21851 0.80049 0.0
C1006 C 0.56014 0.20312 0.76454 0.0
C1007 C 0.55329 0.18143 0.7793 0.0
H1008 H 0.56203 0.23529 0.78896 0.0
H1009 H 0.49633 0.02358 0.92135 0.0
H1010 H 0.9431 0.22801 0.94694 0.0
H1011 H 0.96565 0.26778 1.00395 0.0
H1012 H 1.00933 0.26956 0.90478 0.0
H1013 H 0.9869 0.22958 0.84857 0.0
H1014 H 1.00355 0.294 0.08642 0.0
H1015 H 0.02854 0.3204 0.84579 0.0
H1016 H 1.0171 0.306 0.72451 0.0
H1017 H 0.95844 0.2726 0.74862 0.0
H1018 H 0.96953 0.28711 0.86972 0.0
H1019 H 0.07928 0.41292 0.15704 0.0
H1020 H 0.06027 0.37135 0.11745 0.0
H1021 H 1.01509 0.37648 1.00751 0.0
H1022 H 0.03393 0.41789 0.04676 0.0
H1023 H 0.02199 0.34816 0.93194 0.0
H1024 H 1.01062 0.35729 0.15281 0.0
H1025 H 0.02011 0.37092 0.27444 0.0
H1026 H 0.04804 0.33303 0.29098 0.0
H1027 H 0.03894 0.31943 0.16927 0.0
C1028 C 0.9577 0.23662 0.93896 0.0
C1029 C 0.96319 0.22553 0.89347 0.0
C1030 C 0.9706 0.25942 0.97152 0.0
C1031 C 0.98918 0.27184 0.95833 0.0
C1032 C 0.99507 0.26042 0.91569 0.0
C1033 C 0.98226 0.23747 0.8839 0.0
C1034 C 1.00155 0.29713 0.98378 0.0
C1035 C 1.00774 0.30583 0.05265 0.0
C1036 C 1.00672 0.3127 0.93998 0.0
C1037 C 0.9999 0.30464 0.86689 0.0
C1038 C 1.01321 0.3101 0.82512 0.0
C1039 C 1.00678 0.30189 0.75641 0.0
C1040 C 0.98705 0.28831 0.72888 0.0
C1041 C 0.97371 0.28304 0.76996 0.0
C1042 C 0.98007 0.29125 0.83864 0.0
C1043 C 0.06525 0.4052 0.12474 0.0
C1044 C 0.05815 0.41887 0.1055 0.0
C1045 C 0.05436 0.38136 0.1021 0.0
C1046 C 0.03613 0.37059 0.05945 0.0
C1047 C 0.02908 0.38425 1.04011 0.0
C1048 C 0.03987 0.40801 0.06305 0.0
C1049 C 0.02433 0.34516 1.03486 0.0
C1050 C 0.01811 0.33639 0.96592 0.0
C1051 C 0.01895 0.32956 0.07868 0.0
C1052 C 0.02427 0.33754 0.15188 0.0
C1053 C 0.0189 0.352 0.18234 0.0
C1054 C 0.02419 0.3597 0.25129 0.0
C1055 C 0.03472 0.3529 0.29039 0.0
C1056 C 0.03991 0.33832 0.26062 0.0
C1057 C 0.03468 0.33059 0.19166 0.0
H1058 H 0.03881 0.35888 0.34376 0.0
H1059 H 0.9821 0.28191 0.67573 0.0
H1060 H 0.89714 0.67875 0.90636 0.0
H1061 H 0.86921 0.66568 0.95999 0.0
H1062 H 0.83328 0.61282 0.78667 0.0
H1063 H 0.86069 0.62553 0.73326 0.0
H1064 H 0.83091 0.65877 0.9192 0.0
H1065 H 0.8083 0.5647 0.83705 0.0
H1066 H 0.824 0.54288 0.81782 0.0
H1067 H 0.87479 0.59454 0.95972 0.0
H1068 H 0.85935 0.61654 0.98011 0.0
H1069 H 0.73155 0.58328 0.91243 0.0
H1070 H 0.76399 0.60483 0.89011 0.0
H1071 H 0.78518 0.58263 0.04877 0.0
H1072 H 0.75273 0.5604 0.06973 0.0
H1073 H 0.79886 0.57804 0.9459 0.0
H1074 H 0.79649 0.63867 0.06498 0.0
H1075 H 0.78324 0.66255 0.09434 0.0
H1076 H 0.78573 0.68071 0.90225 0.0
H1077 H 0.79882 0.65673 0.87144 0.0
C1078 C 0.88325 0.66447 0.87958 0.0
C1079 C 0.88125 0.65308 0.81566 0.0
C1080 C 0.8673 0.65708 0.91019 0.0
C1081 C 0.84919 0.63814 0.87748 0.0
C1082 C 0.84713 0.62731 0.81312 0.0
C1083 C 0.86291 0.63462 0.78268 0.0
C1084 C 0.83239 0.62853 0.91046 0.0
C1085 C 0.82393 0.64119 0.92559 0.0
C1086 C 0.82357 0.6058 0.92046 0.0
C1087 C 0.83268 0.59227 0.90988 0.0
C1088 C 0.82276 0.5713 0.86446 0.0
C1089 C 0.83164 0.55894 0.85322 0.0
C1090 C 0.85039 0.56733 0.88746 0.0
C1091 C 0.86029 0.58808 0.93313 0.0
C1092 C 0.85149 0.60051 0.94446 0.0
C1093 C 0.74308 0.5829 0.94249 0.0
C1094 C 0.73943 0.57005 0.993 0.0
C1095 C 0.76172 0.5955 0.93019 0.0
C1096 C 0.77718 0.59565 0.96825 0.0
C1097 C 0.77358 0.58293 1.01886 0.0
C1098 C 0.75498 0.57034 1.03115 0.0
C1099 C 0.79684 0.60799 0.95292 0.0
C1100 C 0.80585 0.59574 0.94065 0.0
C1101 C 0.80637 0.6313 0.94754 0.0
C1102 C 0.7985 0.64575 0.96572 0.0
C1103 C 0.79409 0.64762 1.02881 0.0
C1104 C 0.78663 0.66121 0.04577 0.0
C1105 C 0.7836 0.6731 1.00014 0.0
C1106 C 0.78807 0.67147 0.93752 0.0
C1107 C 0.79555 0.65792 0.92033 0.0
H1108 H 0.77782 0.6836 1.01335 0.0
H1109 H 0.85724 0.55775 0.87863 0.0
H1110 H 0.97843 0.67583 0.83019 0.0
H1111 H 0.99828 0.66396 0.89097 0.0
H1112 H 0.9481 0.61187 0.94934 0.0
H1113 H 0.92835 0.624 0.89004 0.0
H1114 H 0.97939 0.62902 0.04684 0.0
H1115 H 0.96291 0.60052 0.80861 0.0
H1116 H 0.96205 0.60542 0.69211 0.0
H1117 H 0.02385 0.64618 0.73215 0.0
H1118 H 0.02506 0.64179 0.8492 0.0
H1119 H 0.99711 0.54033 0.07692 0.0
H1120 H 0.98505 0.56436 0.04464 0.0
H1121 H 0.03979 0.61103 0.99904 0.0
H1122 H 0.05187 0.58673 1.03007 0.0
H1123 H 1.01042 0.60181 0.90179 0.0
H1124 H 0.02662 0.62449 0.13712 0.0
H1125 H 0.02707 0.61977 0.25355 0.0
H1126 H 0.96593 0.59062 0.22118 0.0
H1127 H 0.96499 0.59446 0.10388 0.0
C1128 C 0.97173 0.66219 0.85725 0.0
C1129 C 0.95177 0.65057 0.85441 0.0
C1130 C 0.98307 0.65534 0.89171 0.0
C1131 C 0.97461 0.63661 0.92338 0.0
C1132 C 0.95496 0.62622 0.92491 0.0
C1133 C 0.94366 0.63311 0.89073 0.0
C1134 C 0.98559 0.62635 0.94936 0.0
C1135 C 0.98609 0.62295 1.01511 0.0
C1136 C 0.99477 0.6189 0.90848 0.0
C1137 C 0.99407 0.62101 0.83774 0.0
C1138 C 0.97631 0.6106 0.7926 0.0
C1139 C 0.97576 0.61329 0.7265 0.0
C1140 C 0.99288 0.62616 0.70479 0.0
C1141 C 1.0106 0.63626 0.74907 0.0
C1142 C 1.01123 0.63366 0.81528 0.0
C1143 C 1.00659 0.55564 0.05971 0.0
C1144 C 0.02546 0.56151 0.05587 0.0
C1145 C 0.99972 0.56952 1.04193 0.0
C1146 C 1.01155 0.58969 1.02005 0.0
C1147 C 0.03041 0.59563 1.01606 0.0
C1148 C 0.03733 0.58178 1.03419 0.0
C1149 C 1.00391 0.60401 0.9991 0.0
C1150 C 1.00398 0.60813 0.93408 0.0
C1151 C 0.99522 0.61203 1.04072 0.0
C1152 C 0.99571 0.60957 0.11132 0.0
C1153 C 1.01322 0.61681 0.15451 0.0
C1154 C 1.01357 0.61431 0.22073 0.0
C1155 C 0.99655 0.6049 0.24475 0.0
C1156 C 0.97912 0.59789 0.2025 0.0
C1157 C 0.97866 0.60019 0.13607 0.0
H1158 H 0.99687 0.60307 0.29612 0.0
H1159 H 0.99243 0.62826 0.65363 0.0
H1160 H 0.59418 0.42603 0.90863 0.0
H1161 H 0.57128 0.38479 0.86922 0.0
H1162 H 0.53648 0.38608 1.007 0.0
H1163 H 0.55894 0.42742 0.04498 0.0
H1164 H 0.54453 0.34723 0.997 0.0
H1165 H 0.52 0.38439 0.86665 0.0
H1166 H 0.52247 0.41107 0.79319 0.0
H1167 H 0.53643 0.37626 0.6464 0.0
H1168 H 0.5344 0.34962 0.71963 0.0
H1169 H 0.4574 0.23775 0.86429 0.0
H1170 H 0.48218 0.27775 0.91436 0.0
H1171 H 0.50567 0.28441 0.73704 0.0
H1172 H 0.48109 0.24444 0.68802 0.0
H1173 H 0.50408 0.31978 0.76979 0.0
H1174 H 0.52807 0.28213 0.89059 0.0
H1175 H 0.52986 0.25697 0.9628 0.0
H1176 H 0.52113 0.29264 0.12459 0.0
H1177 H 0.51865 0.31757 0.05275 0.0
C1178 C 0.58178 0.41752 0.93112 0.0
C1179 C 0.57849 0.43015 0.98021 0.0
C1180 C 0.56863 0.3939 0.90833 0.0
C1181 C 0.55208 0.38219 0.93501 0.0
C1182 C 0.54912 0.39461 0.98565 0.0
C1183 C 0.562 0.41831 1.0073 0.0
C1184 C 0.5375 0.35725 0.90825 0.0
C1185 C 0.53544 0.34118 0.94771 0.0
C1186 C 0.52609 0.34922 0.84307 0.0
C1187 C 0.5273 0.3652 0.79901 0.0
C1188 C 0.52382 0.38259 0.81906 0.0
C1189 C 0.5251 0.39767 0.77739 0.0
C1190 C 0.52967 0.39542 0.71527 0.0
C1191 C 0.53293 0.37803 0.69462 0.0
C1192 C 0.53172 0.36293 0.73619 0.0
C1193 C 0.46832 0.24754 0.83728 0.0
C1194 C 0.46771 0.23764 0.77332 0.0
C1195 C 0.4824 0.27057 0.86554 0.0
C1196 C 0.4962 0.28438 0.83024 0.0
C1197 C 0.49538 0.2744 0.76589 0.0
C1198 C 0.48133 0.25144 0.73783 0.0
C1199 C 0.51088 0.30935 0.85853 0.0
C1200 C 0.51301 0.32557 0.81928 0.0
C1201 C 0.52261 0.31742 0.92357 0.0
C1202 C 0.52293 0.30157 0.96588 0.0
C1203 C 0.52618 0.28437 0.94119 0.0
C1204 C 0.52739 0.27019 0.98216 0.0
C1205 C 0.52562 0.27321 0.04826 0.0
C1206 C 0.5225 0.29032 0.07337 0.0
C1207 C 0.52112 0.30442 1.03246 0.0
H1208 H 0.52661 0.26225 0.07996 0.0
H1209 H 0.53064 0.4071 0.68305 0.0
H1210 H 0.88048 0.13042 0.8811 0.0
H1211 H 0.85131 0.12335 0.92134 0.0
H1212 H 0.84251 0.16153 0.78492 0.0
H1213 H 0.87133 0.16872 0.74526 0.0
H1214 H 0.83849 0.17391 0.90876 0.0
H1215 H 0.81564 0.1029 0.75333 0.0
H1216 H 0.81665 0.06873 0.71356 0.0
H1217 H 0.80671 0.0476 0.89983 0.0
H1218 H 0.80587 0.08181 0.94094 0.0
H1219 H 0.74328 0.14662 0.87372 0.0
H1220 H 0.77376 0.15114 0.85811 0.0
H1221 H 0.76828 0.10518 0.9905 0.0
H1222 H 0.73751 0.10049 1.00636 0.0
H1223 H 0.78139 0.09624 0.88792 0.0
H1224 H 0.80041 0.16368 1.04045 0.0
H1225 H 0.80083 0.19826 0.08684 0.0
H1226 H 0.81982 0.22694 0.9171 0.0
H1227 H 0.81924 0.19238 0.86918 0.0
C1228 C 0.8722 0.1371 0.85946 0.0
C1229 C 0.87824 0.15003 0.80975 0.0
C1230 C 0.85557 0.13308 0.88248 0.0
C1231 C 0.84464 0.14184 0.85605 0.0
C1232 C 0.85067 0.15464 0.80634 0.0
C1233 C 0.86715 0.15859 0.78332 0.0
C1234 C 0.82691 0.1379 0.87939 0.0
C1235 C 0.82595 0.15693 0.90372 0.0
C1236 C 0.81079 0.11576 0.87564 0.0
C1237 C 0.81085 0.09497 0.85037 0.0
C1238 C 0.81376 0.09101 0.78588 0.0
C1239 C 0.81429 0.07164 0.7631 0.0
C1240 C 0.81179 0.05604 0.8042 0.0
C1241 C 0.80867 0.05972 0.86807 0.0
C1242 C 0.80814 0.07907 0.89111 0.0
C1243 C 0.74862 0.1377 0.90049 0.0
C1244 C 0.73796 0.12347 0.94224 0.0
C1245 C 0.76612 0.14027 0.89134 0.0
C1246 C 0.77367 0.12891 0.92414 0.0
C1247 C 0.76291 0.11428 0.96484 0.0
C1248 C 0.74527 0.1116 0.97385 0.0
C1249 C 0.79269 0.13234 0.91499 0.0
C1250 C 0.79394 0.11325 0.89365 0.0
C1251 C 0.80924 0.15447 0.92239 0.0
C1252 C 0.80964 0.17534 0.95098 0.0
C1253 C 0.80454 0.17728 1.01276 0.0
C1254 C 0.80483 0.1969 1.03937 0.0
C1255 C 0.81031 0.21477 1.00488 0.0
C1256 C 0.81556 0.21308 0.94375 0.0
C1257 C 0.81527 0.19349 0.91687 0.0
H1258 H 0.81053 0.22994 1.02557 0.0
H1259 H 0.81223 0.04107 0.78651 0.0
H1260 H 0.65978 0.0493 1.03337 0.0
H1261 H 0.67376 0.02739 0.06682 0.0
H1262 H 0.62199 0.96503 0.96102 0.0
H1263 H 0.60749 0.98694 0.92981 0.0
H1264 H 0.63305 0.95839 0.07388 0.0
H1265 H 0.66706 0.99228 0.90388 0.0
H1266 H 0.68648 0.0244 0.85062 0.0
H1267 H 0.73213 0.05549 1.02406 0.0
H1268 H 0.71288 0.02367 0.07873 0.0
H1269 H 0.67068 0.88695 0.08513 0.0
H1270 H 0.65836 0.90987 0.04507 0.0
H1271 H 0.70771 0.97074 0.16886 0.0
H1272 H 0.72008 0.94783 0.21 0.0
H1273 H 0.69853 0.97849 0.04678 0.0
H1274 H 0.66517 0.94603 0.21722 0.0
H1275 H 0.64589 0.91527 0.27496 0.0
H1276 H 0.59937 0.88276 0.10402 0.0
H1277 H 0.61849 0.91317 0.04485 0.0
C1278 C 0.65137 0.03093 1.01656 0.0
C1279 C 0.63251 0.01992 0.97831 0.0
C1280 C 0.65947 0.01837 1.03556 0.0
C1281 C 0.64918 0.99448 1.0154 0.0
C1282 C 0.63033 0.98343 0.9771 0.0
C1283 C 0.62205 0.99598 0.95903 0.0
C1284 C 0.65781 0.98103 1.03618 0.0
C1285 C 0.64722 0.96257 0.06668 0.0
C1286 C 0.67664 0.98686 1.02919 0.0
C1287 C 0.68846 1.00565 0.99557 0.0
C1288 C 0.68122 1.00599 0.93074 0.0
C1289 C 0.69219 0.02415 0.90032 0.0
C1290 C 0.71051 0.04199 0.93399 0.0
C1291 C 0.71793 0.04165 0.99805 0.0
C1292 C 0.70701 0.02354 1.02874 0.0
C1293 C 0.67892 0.90519 0.10425 0.0
C1294 C 0.6963 0.91542 0.1516 0.0
C1295 C 0.67186 0.91832 0.08103 0.0
C1296 C 0.68192 0.94204 0.10461 0.0
C1297 C 0.69964 0.95248 0.14993 0.0
C1298 C 0.70673 0.93932 0.1733 0.0
C1299 C 0.6736 0.95571 0.08339 0.0
C1300 C 0.68429 0.97424 0.05328 0.0
C1301 C 0.6549 0.95005 0.09089 0.0
C1302 C 0.64334 0.93175 0.12636 0.0
C1303 C 0.65089 0.93222 0.19173 0.0
C1304 C 0.63998 0.91487 0.22475 0.0
C1305 C 0.62143 0.89704 0.19311 0.0
C1306 C 0.61375 0.89656 0.12842 0.0
C1307 C 0.62461 0.91386 0.09513 0.0
H1308 H 0.61301 0.88362 0.21877 0.0
H1309 H 0.71896 0.05607 0.91044 0.0
H1310 H 0.18715 0.76114 0.3477 0.0
H1311 H 0.16857 0.7196 0.31098 0.0
H1312 H 0.22058 0.71851 0.35898 0.0
H1313 H 0.23928 0.76017 0.39157 0.0
H1314 H 0.20179 0.69062 0.25196 0.0
H1315 H 0.18168 0.70046 0.45646 0.0
H1316 H 0.16844 0.71581 0.53343 0.0
H1317 H 0.11563 0.68521 0.38867 0.0
H1318 H 0.1286 0.66985 0.3107 0.0
H1319 H 0.15604 0.57067 0.24775 0.0
H1320 H 0.17398 0.61238 0.28153 0.0
H1321 H 0.12354 0.61277 0.19837 0.0
H1322 H 0.10561 0.57117 0.16396 0.0
H1323 H 0.14074 0.64046 0.32166 0.0
H1324 H 0.16068 0.63 0.11928 0.0
H1325 H 0.17383 0.6146 1.04221 0.0
H1326 H 0.22714 0.64632 0.18499 0.0
H1327 H 0.21421 0.66166 0.26333 0.0
C1328 C 0.1946 0.75202 0.35085 0.0
C1329 C 0.21473 0.76405 0.37292 0.0
C1330 C 0.18391 0.72812 0.33017 0.0
C1331 C 0.19295 0.71547 0.33313 0.0
C1332 C 0.21308 0.72758 0.35586 0.0
C1333 C 0.22381 0.75149 0.37491 0.0
C1334 C 0.18169 0.68982 0.31098 0.0
C1335 C 0.18862 0.67974 0.26839 0.0
C1336 C 0.1641 0.67525 0.33022 0.0
C1337 C 0.15618 0.68417 0.37756 0.0
C1338 C 0.16727 0.69709 0.44099 0.0
C1339 C 0.15981 0.70578 0.48481 0.0
C1340 C 0.14122 0.70153 0.46593 0.0
C1341 C 0.13002 0.6885 0.40329 0.0
C1342 C 0.13741 0.67976 0.3593 0.0
C1343 C 0.14877 0.5796 0.23616 0.0
C1344 C 0.12929 0.56739 0.20305 0.0
C1345 C 0.15908 0.60354 0.25554 0.0
C1346 C 0.1502 0.61592 0.24251 0.0
C1347 C 0.13077 0.60375 0.20937 0.0
C1348 C 0.12052 0.57986 0.18949 0.0
C1349 C 0.16107 0.64146 0.26381 0.0
C1350 C 0.154 0.65144 0.30586 0.0
C1351 C 0.17858 0.65594 0.24448 0.0
C1352 C 0.18641 0.64678 0.19743 0.0
C1353 C 0.17515 0.63353 0.13447 0.0
C1354 C 0.18258 0.62484 0.09051 0.0
C1355 C 0.20129 0.62942 0.10876 0.0
C1356 C 0.21264 0.64276 0.17095 0.0
C1357 C 0.20528 0.65147 0.21513 0.0
H1358 H 0.20702 0.62269 0.07465 0.0
H1359 H 0.13547 0.7083 0.49985 0.0
H1360 H 0.51265 0.46305 0.22506 0.0
H1361 H 0.48456 0.44288 0.2747 0.0
H1362 H 0.44893 0.40669 0.07961 0.0
H1363 H 0.47697 0.42683 1.02968 0.0
H1364 H 0.432 0.42279 0.14927 0.0
H1365 H 0.46136 0.3795 0.18878 0.0
H1366 H 0.48807 0.37411 0.22753 0.0
H1367 H 0.49384 0.40514 0.42702 0.0
H1368 H 0.4673 0.41096 0.38937 0.0
H1369 H 0.34983 0.35212 0.27853 0.0
H1370 H 0.37646 0.36405 0.21984 0.0
H1371 H 0.41713 0.40272 0.40529 0.0
H1372 H 0.39069 0.38984 0.46435 0.0
H1373 H 0.4303 0.38199 0.33347 0.0
H1374 H 0.40296 0.42813 0.29184 0.0
H1375 H 0.37658 0.43411 0.25327 0.0
H1376 H 0.36714 0.39761 0.0573 0.0
H1377 H 0.39335 0.39121 0.09495 0.0
C1378 C 0.4989 0.45057 0.19279 0.0
C1379 C 0.49708 0.44663 0.12337 0.0
C1380 C 0.48283 0.43902 0.22123 0.0
C1381 C 0.46461 0.42309 0.18096 0.0
C1382 C 0.4628 0.41893 0.11172 0.0
C1383 C 0.47885 0.43053 0.08324 0.0
C1384 C 0.44732 0.41152 0.21082 0.0
C1385 C 0.43151 0.41352 0.18875 0.0
C1386 C 0.44674 0.39973 0.26311 0.0
C1387 C 0.46246 0.39586 0.28612 0.0
C1388 C 0.46839 0.38528 0.24085 0.0
C1389 C 0.48348 0.38213 0.26263 0.0
C1390 C 0.49269 0.38938 0.32963 0.0
C1391 C 0.48671 0.39959 0.37511 0.0
C1392 C 0.47162 0.40278 0.3536 0.0
C1393 C 0.36446 0.36283 0.30683 0.0
C1394 C 0.36808 0.37011 0.37603 0.0
C1395 C 0.37968 0.36986 0.27318 0.0
C1396 C 0.39884 0.3846 0.30797 0.0
C1397 C 0.4025 0.39143 0.37724 0.0
C1398 C 0.38732 0.38426 0.41088 0.0
C1399 C 0.41513 0.39356 0.27252 0.0
C1400 C 0.43073 0.39106 0.29352 0.0
C1401 C 0.41554 0.4049 0.21922 0.0
C1402 C 0.39998 0.40902 0.19635 0.0
C1403 C 0.39519 0.42128 0.24062 0.0
C1404 C 0.38028 0.42476 0.21892 0.0
C1405 C 0.37016 0.41619 0.15292 0.0
C1406 C 0.37498 0.40421 0.10842 0.0
C1407 C 0.38987 0.40068 0.12989 0.0
H1408 H 0.35861 0.41888 0.13623 0.0
H1409 H 0.50448 0.38713 0.34635 0.0
H1410 H 0.93042 0.7169 0.5431 0.0
H1411 H 0.91126 0.72977 0.48375 0.0
H1412 H 0.86161 0.68251 0.55527 0.0
H1413 H 0.88072 0.66935 0.61434 0.0
H1414 H 0.85195 0.68858 0.42493 0.0
H1415 H 0.88816 0.73401 0.64198 0.0
H1416 H 0.9175 0.75627 0.73039 0.0
H1417 H 0.94502 0.8038 0.60507 0.0
H1418 H 0.91595 0.78156 0.51541 0.0
H1419 H 0.80545 0.75289 0.40001 0.0
H1420 H 0.81939 0.73108 0.4382 0.0
H1421 H 0.87343 0.77937 0.39142 0.0
H1422 H 0.85988 0.8015 0.35539 0.0
H1423 H 0.87924 0.77095 0.51105 0.0
H1424 H 0.84268 0.72546 0.29348 0.0
H1425 H 0.81323 0.70305 0.20551 0.0
H1426 H 0.78592 0.65591 0.332 0.0
H1427 H 0.81514 0.6782 0.42106 0.0
C1428 C 0.91531 0.70889 0.54499 0.0
C1429 C 0.90717 0.69243 0.58434 0.0
C1430 C 0.90436 0.71625 0.51104 0.0
C1431 C 0.8851 0.70746 0.51621 0.0
C1432 C 0.87646 0.68962 0.55082 0.0
C1433 C 0.88742 0.68215 0.5847 0.0
C1434 C 0.87493 0.71888 0.4927 0.0
C1435 C 0.85777 0.70652 0.44416 0.0
C1436 C 0.88257 0.74234 0.51749 0.0
C1437 C 0.89994 0.756 0.57177 0.0
C1438 C 0.90051 0.74912 0.63312 0.0
C1439 C 0.91709 0.76174 0.68346 0.0
C1440 C 0.93312 0.78141 0.6733 0.0
C1441 C 0.93259 0.78854 0.61283 0.0
C1442 C 0.91607 0.77594 0.56224 0.0
C1443 C 0.82032 0.75888 0.3981 0.0
C1444 C 0.83151 0.77894 0.3744 0.0
C1445 C 0.82822 0.74627 0.41933 0.0
C1446 C 0.84745 0.75344 0.41721 0.0
C1447 C 0.85857 0.77341 0.39342 0.0
C1448 C 0.85071 0.78597 0.37225 0.0
C1449 C 0.85641 0.74085 0.44205 0.0
C1450 C 0.87335 0.75301 0.49147 0.0
C1451 C 0.8485 0.71725 0.41807 0.0
C1452 C 0.83103 0.70363 0.3642 0.0
C1453 C 0.83035 0.7104 0.3027 0.0
C1454 C 0.81371 0.69771 0.25261 0.0
C1455 C 0.79769 0.67812 0.26325 0.0
C1456 C 0.79833 0.67111 0.32388 0.0
C1457 C 0.81493 0.68375 0.37415 0.0
H1458 H 0.78481 0.66834 0.22449 0.0
H1459 H 0.94595 0.79116 0.71233 0.0
H1460 H 0.37636 0.09585 0.7702 0.0
H1461 H 0.35209 0.05633 0.71751 0.0
H1462 H 0.37646 0.06562 0.54181 0.0
H1463 H 0.39991 0.10595 0.5933 0.0
H1464 H 0.34127 0.03832 0.50039 0.0
H1465 H 0.38433 0.03674 0.67217 0.0
H1466 H 0.40326 0.04538 0.78492 0.0
H1467 H 0.35117 0.01272 0.85949 0.0
H1468 H 0.33193 1.00415 0.74732 0.0
H1469 H 0.30164 0.91563 0.40448 0.0
H1470 H 0.3238 0.95693 0.44491 0.0
H1471 H 0.28621 0.95737 0.57193 0.0
H1472 H 0.26369 0.91621 0.53024 0.0
H1473 H 0.32839 0.97883 0.63448 0.0
H1474 H 0.28621 0.98007 0.45137 0.0
H1475 H 0.26982 0.96978 0.33382 0.0
H1476 H 0.32451 1.00129 0.27544 0.0
H1477 H 0.34121 0.01149 0.39265 0.0
C1478 C 0.37642 0.08952 0.72004 0.0
C1479 C 0.39012 0.10402 0.68604 0.0
C1480 C 0.36262 0.06672 0.69 0.0
C1481 C 0.36263 0.05732 0.62606 0.0
C1482 C 0.37603 0.07209 0.59122 0.0
C1483 C 0.3895 0.09521 0.62066 0.0
C1484 C 0.34884 0.03222 0.59641 0.0
C1485 C 0.33874 0.02542 0.52986 0.0
C1486 C 0.3452 0.01491 0.63388 0.0
C1487 C 0.35671 0.02 0.70144 0.0
C1488 C 0.37692 0.03153 0.7127 0.0
C1489 C 0.3877 0.0364 0.77649 0.0
C1490 C 0.37842 0.02965 0.82936 0.0
C1491 C 0.35834 0.01797 0.81851 0.0
C1492 C 0.34749 0.01308 0.75482 0.0
C1493 C 0.29794 0.92456 0.44036 0.0
C1494 C 0.28079 0.91254 0.4638 0.0
C1495 C 0.31065 0.9482 0.46347 0.0
C1496 C 0.30673 0.96035 0.51159 0.0
C1497 C 0.28958 0.94843 0.5348 0.0
C1498 C 0.27665 0.92489 0.51061 0.0
C1499 C 0.32085 0.98526 0.53955 0.0
C1500 C 0.33102 0.9919 0.60554 0.0
C1501 C 0.32497 1.00226 0.50102 0.0
C1502 C 0.31494 0.99633 0.4307 0.0
C1503 C 0.29473 0.98463 0.41341 0.0
C1504 C 0.28539 0.97885 0.34686 0.0
C1505 C 0.29612 0.98482 0.29717 0.0
C1506 C 0.31622 0.99665 0.31397 0.0
C1507 C 0.32563 1.00246 0.38046 0.0
H1508 H 0.28886 0.98033 0.24567 0.0
H1509 H 0.3868 0.03344 0.87871 0.0
H1510 H 0.98228 0.20556 0.60666 0.0
H1511 H 1.01319 0.21653 0.57489 0.0
H1512 H 0.02603 0.18599 0.72854 0.0
H1513 H 0.99573 0.17558 0.76122 0.0
H1514 H 0.05686 0.22536 0.72986 0.0
H1515 H 1.00965 0.15971 0.55815 0.0
H1516 H 0.98072 0.13876 0.46772 0.0
H1517 H 1.00678 0.19196 0.35726 0.0
H1518 H 0.03577 0.21336 0.44747 0.0
H1519 H 0.12941 0.20861 0.64164 0.0
H1520 H 0.09923 0.20358 0.66439 0.0
H1521 H 0.09524 0.23659 0.50327 0.0
H1522 H 0.12544 0.24154 0.4799 0.0
H1523 H 0.06075 0.2005 0.50122 0.0
H1524 H 0.10909 0.26451 0.66748 0.0
H1525 H 0.13814 0.28567 0.75728 0.0
H1526 H 0.11015 0.23659 0.87802 0.0
H1527 H 0.08102 0.21493 0.78853 0.0
C1528 C 0.99171 0.20123 0.63365 0.0
C1529 C 0.98643 0.18967 0.68654 0.0
C1530 C 1.00938 0.20743 0.61529 0.0
C1531 C 0.02201 0.20197 0.64899 0.0
C1532 C 1.01669 0.19053 0.70181 0.0
C1533 C 0.99922 0.18448 0.7203 0.0
C1534 C 0.04074 0.2079 0.63007 0.0
C1535 C 0.05764 0.21975 0.67991 0.0
C1536 C 0.04204 0.20129 0.56451 0.0
C1537 C 0.02478 0.18823 0.5098 0.0
C1538 C 1.00916 0.16699 0.51471 0.0
C1539 C 0.99276 0.15503 0.4635 0.0
C1540 C 0.99189 0.16406 0.40688 0.0
C1541 C 1.00746 0.18501 0.40121 0.0
C1542 C 0.02388 0.19705 0.45232 0.0
C1543 C 0.12226 0.21503 0.61141 0.0
C1544 C 0.13 0.22562 0.55916 0.0
C1545 C 0.10492 0.21211 0.62442 0.0
C1546 C 0.09498 0.21998 0.5862 0.0
C1547 C 0.10256 0.23034 0.53354 0.0
C1548 C 0.11986 0.23315 0.52021 0.0
C1549 C 0.07674 0.21738 0.60151 0.0
C1550 C 0.06 0.20627 0.55102 0.0
C1551 C 0.07557 0.22474 0.66649 0.0
C1552 C 0.09291 0.238 0.72107 0.0
C1553 C 0.10915 0.25817 0.71306 0.0
C1554 C 0.12564 0.27025 0.7639 0.0
C1555 C 0.12601 0.26245 0.82325 0.0
C1556 C 0.10985 0.2426 0.83199 0.0
C1557 C 0.09334 0.23043 0.78125 0.0
H1558 H 0.1388 0.2718 0.8625 0.0
H1559 H 0.97917 0.15479 0.36733 0.0
H1560 H 0.39121 0.19069 0.57401 0.0
H1561 H 0.36823 0.20212 0.54245 0.0
H1562 H 0.35549 0.20026 0.73845 0.0
H1563 H 0.37868 0.18889 0.77084 0.0
H1564 H 0.322 0.17928 0.63344 0.0
H1565 H 0.38417 0.25013 0.6991 0.0
H1566 H 0.41816 0.27562 0.69326 0.0
H1567 H 0.40107 0.27349 0.48669 0.0
H1568 H 0.36703 0.24754 0.49084 0.0
H1569 H 0.2692 0.23477 0.60684 0.0
H1570 H 0.29016 0.22042 0.63727 0.0
H1571 H 0.31814 0.24426 0.47429 0.0
H1572 H 0.2983 0.26042 0.44813 0.0
H1573 H 0.34415 0.25339 0.56363 0.0
H1574 H 0.28402 0.18281 0.48734 0.0
H1575 H 0.24968 0.15428 0.47984 0.0
H1576 H 0.26155 0.152 0.68598 0.0
H1577 H 0.29593 0.18072 0.69492 0.0
C1578 C 0.38352 0.19262 0.61063 0.0
C1579 C 0.3869 0.18883 0.67522 0.0
C1580 C 0.37037 0.19925 0.5924 0.0
C1581 C 0.36011 0.20221 0.63803 0.0
C1582 C 0.36319 0.1981 0.70224 0.0
C1583 C 0.37653 0.19168 0.72081 0.0
C1584 C 0.34648 0.20995 0.61887 0.0
C1585 C 0.32684 0.19561 0.61895 0.0
C1586 C 0.35258 0.23084 0.59733 0.0
C1587 C 0.37305 0.24673 0.59518 0.0
C1588 C 0.38768 0.25495 0.65229 0.0
C1589 C 0.40696 0.26946 0.64925 0.0
C1590 C 0.41178 0.27607 0.58953 0.0
C1591 C 0.39733 0.26825 0.53279 0.0
C1592 C 0.37804 0.25365 0.53547 0.0
C1593 C 0.2796 0.23655 0.57683 0.0
C1594 C 0.2819 0.24847 0.52451 0.0
C1595 C 0.29162 0.22821 0.59406 0.0
C1596 C 0.30576 0.23069 0.55765 0.0
C1597 C 0.30756 0.24205 0.5039 0.0
C1598 C 0.29604 0.25112 0.48831 0.0
C1599 C 0.31931 0.22263 0.57729 0.0
C1600 C 0.33906 0.23696 0.57764 0.0
C1601 C 0.31317 0.20135 0.5971 0.0
C1602 C 0.29251 0.18409 0.59194 0.0
C1603 C 0.27928 0.17634 0.53118 0.0
C1604 C 0.25982 0.16011 0.52666 0.0
C1605 C 0.25343 0.15138 0.58245 0.0
C1606 C 0.26651 0.1588 0.64284 0.0
C1607 C 0.28599 0.17503 0.64765 0.0
H1608 H 0.23835 0.13883 0.57884 0.0
H1609 H 0.42672 0.28732 0.58727 0.0
H1610 H 0.77739 0.92982 0.33023 0.0
H1611 H 0.79678 0.97075 0.37907 0.0
H1612 H 0.84754 0.96667 0.41741 0.0
H1613 H 0.82813 0.92575 0.371 0.0
H1614 H 0.84827 0.99078 0.52091 0.0
H1615 H 0.8367 0.99265 0.28797 0.0
H1616 H 0.81677 0.98363 0.17688 0.0
H1617 H 0.78898 0.01621 0.25697 0.0
H1618 H 0.8086 0.02519 0.36873 0.0
H1619 H 0.92281 0.10546 0.57564 0.0
H1620 H 0.89889 0.06702 0.51311 0.0
H1621 H 0.85325 0.07711 0.55235 0.0
H1622 H 0.87734 0.11581 0.61673 0.0
H1623 H 0.84768 0.05099 0.41298 0.0
H1624 H 0.85994 0.0497 0.64533 0.0
H1625 H 0.88089 0.05983 0.755 0.0
H1626 H 0.90802 0.02663 0.67335 0.0
H1627 H 0.88733 0.01649 0.5629 0.0
C1628 C 0.79273 0.93769 0.3484 0.0
C1629 C 0.80114 0.92435 0.34634 0.0
C1630 C 0.80388 0.96123 0.37628 0.0
C1631 C 0.82384 0.97221 0.4018 0.0
C1632 C 0.83224 0.95888 0.3986 0.0
C1633 C 0.82109 0.93536 0.37157 0.0
C1634 C 0.83596 0.99724 0.43391 0.0
C1635 C 0.84816 1.00382 0.49656 0.0
C1636 C 0.83568 0.01463 0.40398 0.0
C1637 C 0.82397 0.00937 0.3368 0.0
C1638 C 0.82625 0.99775 0.28196 0.0
C1639 C 0.81502 0.99267 0.21887 0.0
C1640 C 0.80158 0.99928 0.20991 0.0
C1641 C 0.79938 0.01106 0.264 0.0
C1642 C 0.81056 0.01617 0.32721 0.0
C1643 C 0.9077 0.09977 0.57004 0.0
C1644 C 0.90205 0.11377 0.60178 0.0
C1645 C 0.894 0.07769 0.5342 0.0
C1646 C 0.87422 0.06897 0.52834 0.0
C1647 C 0.86842 0.08341 0.55603 0.0
C1648 C 0.88222 0.10558 0.59273 0.0
C1649 C 0.86001 0.0442 0.49873 0.0
C1650 C 0.84753 0.03777 0.43699 0.0
C1651 C 0.86001 0.02688 0.52921 0.0
C1652 C 0.87221 0.03251 0.59576 0.0
C1653 C 0.87047 0.04469 0.65067 0.0
C1654 C 0.88228 0.05043 0.71298 0.0
C1655 C 0.89584 0.04397 0.7211 0.0
C1656 C 0.89753 0.03165 0.66696 0.0
C1657 C 0.88574 0.02586 0.60451 0.0
H1658 H 0.905 0.04847 0.76937 0.0
H1659 H 0.79289 0.99533 0.16104 0.0
H1660 H 0.99878 0.70687 0.72268 0.0
H1661 H 0.02737 0.72083 0.67515 0.0
H1662 H 0.9917 0.68865 0.47839 0.0
H1663 H 0.96267 0.67383 0.52657 0.0
H1664 H 0.02375 0.68599 0.48886 0.0
H1665 H 1.01164 0.74553 0.53392 0.0
H1666 H 1.00402 0.77071 0.5993 0.0
H1667 H 0.0564 0.79777 0.74355 0.0
H1668 H 0.0642 0.77249 0.67955 0.0
H1669 H 0.10577 0.75936 0.35248 0.0
H1670 H 0.07401 0.73872 0.38089 0.0
H1671 H 0.10066 0.76271 0.58938 0.0
H1672 H 0.13238 0.78379 0.56141 0.0
H1673 H 0.07103 0.76933 0.55943 0.0
H1674 H 0.081 0.70615 0.51244 0.0
H1675 H 0.08777 0.6812 0.44149 0.0
H1676 H 0.03871 0.66272 0.29095 0.0
H1677 H 0.03161 0.68746 0.3612 0.0
C1678 C 0.99694 0.7026 0.66925 0.0
C1679 C 0.97843 0.68959 0.62828 0.0
C1680 C 1.01335 0.71065 0.64206 0.0
C1681 C 1.01178 0.70641 0.57297 0.0
C1682 C 0.99331 0.69237 0.53183 0.0
C1683 C 0.97673 0.68394 0.55934 0.0
C1684 C 0.02954 0.71764 0.54495 0.0
C1685 C 0.03394 0.70426 0.50344 0.0
C1686 C 0.04294 0.74152 0.56377 0.0
C1687 C 0.03844 0.75699 0.60212 0.0
C1688 C 0.02148 0.75675 0.57979 0.0
C1689 C 1.01713 0.77105 0.61659 0.0
C1690 C 0.0297 0.7858 0.6756 0.0
C1691 C 0.04667 0.78633 0.69784 0.0
C1692 C 0.05108 0.77203 0.66127 0.0
C1693 C 0.10489 0.76022 0.40442 0.0
C1694 C 0.1217 0.77333 0.45465 0.0
C1695 C 0.0867 0.74822 0.42058 0.0
C1696 C 0.08489 0.74901 0.48733 0.0
C1697 C 0.10166 0.76177 0.53751 0.0
C1698 C 0.11983 0.77369 0.52142 0.0
C1699 C 0.06557 0.7376 0.50534 0.0
C1700 C 0.06081 0.75106 0.54465 0.0
C1701 C 0.05178 0.71393 0.48346 0.0
C1702 C 0.05587 0.69877 0.44181 0.0
C1703 C 0.0717 0.6968 0.46411 0.0
C1704 C 0.07556 0.68265 0.42408 0.0
C1705 C 0.06368 0.67037 0.36169 0.0
C1706 C 0.04786 0.67214 0.33936 0.0
C1707 C 0.04387 0.68618 0.37933 0.0
H1708 H 0.06673 0.65947 0.33068 0.0
H1709 H 0.0263 0.79686 0.70404 0.0
loop_
_geom_bond_atom_site_label_1
_geom_bond_atom_site_label_2
_geom_bond_distance
_geom_bond_site_symmetry_2
_ccdc_geom_bond_type
Ho0 C3 2.811 . S
Ho0 O20 2.322 . S
Ho0 O22 2.378 . S
Ho0 O23 2.524 . S
Ho0 O24 2.381 1_554 S
Ho0 O25 2.669 1_554 S
Ho0 O27 2.346 . S
Ho0 O31 2.305 . S
Ho1 C12 2.811 . S
Ho1 O21 2.346 . S
Ho1 O25 2.305 1_554 S
Ho1 O26 2.322 . S
Ho1 O28 2.436 . S
Ho1 O29 2.524 1_554 S
Ho1 O30 2.381 . S
Ho1 O31 2.669 . S
C2 O20 1.259 . S
C2 O21 1.268 . S
C3 Ho0 2.811 . S
C3 C4 1.488 . S
C3 O22 1.215 . S
C3 O23 1.289 . S
C4 C3 1.488 . S
C4 C5 1.348 . S
C4 C9 1.413 . S
C5 C4 1.348 . S
C5 C6 1.442 . S
C5 H32 0.930 . S
C6 C5 1.442 . S
C6 C7 1.381 . S
C6 H33 0.931 . S
C7 C6 1.381 . S
C7 C8 1.321 . S
C8 C7 1.321 . S
C8 C9 1.403 . S
C8 H34 0.934 . S
C9 C4 1.413 . S
C9 C8 1.403 . S
C9 H35 0.930 . S
C10 O24 1.275 . S
C10 O25 1.256 . S
C11 O26 1.259 . S
C11 O27 1.268 . S
C12 Ho1 2.811 . S
C12 C13 1.494 . S
C12 O28 1.223 . S
C12 O29 1.289 1_554 S
C13 C12 1.494 . S
C13 C14 1.349 1_554 S
C13 C18 1.407 1_455 S
C14 C13 1.349 1_556 S
C14 C15 1.463 . S
C14 H36 0.930 . S
C15 C14 1.463 . S
C15 C16 1.357 1_456 S
C15 H37 0.934 . S
C16 C15 1.357 1_654 S
C16 C17 1.321 . S
C17 C16 1.321 . S
C17 C18 1.403 . S
C17 H38 0.934 . S
C18 C13 1.407 1_655 S
C18 C17 1.403 . S
C18 H39 0.930 . S
C19 O30 1.275 . S
C19 O31 1.256 . S
O20 Ho0 2.322 . S
O20 C2 1.259 . S
O21 Ho1 2.346 . S
O21 C2 1.268 . S
O22 Ho0 2.378 . S
O22 C3 1.215 . S
O23 Ho0 2.524 . S
O23 C3 1.289 . S
O24 Ho0 2.381 1_556 S
O24 C10 1.275 . S
O25 Ho0 2.669 1_556 S
O25 Ho1 2.305 1_556 S
O25 C10 1.256 . S
O26 Ho1 2.322 . S
O26 C11 1.259 . S
O27 Ho0 2.346 . S
O27 C11 1.268 . S
O28 Ho1 2.436 . S
O28 C12 1.223 . S
O29 Ho1 2.524 1_556 S
O29 C12 1.289 1_556 S
O30 Ho1 2.381 . S
O30 C19 1.275 . S
O31 Ho0 2.305 . S
O31 Ho1 2.669 . S
O31 C19 1.256 . S
H32 C5 0.930 . S
H33 C6 0.931 . S
H34 C8 0.934 . S
H35 C9 0.930 . S
H36 C14 0.930 . S
H37 C15 0.934 . S
H38 C17 0.934 . S
H39 C18 0.930 . S
Ho40 C43 2.811 . S
Ho40 O60 2.322 . S
Ho40 O62 2.378 . S
Ho40 O63 2.524 . S
Ho40 O64 2.381 . S
Ho40 O65 2.669 . S
Ho40 O67 2.346 . S
Ho40 O71 2.305 . S
Ho41 C52 2.811 . S
Ho41 O61 2.346 . S
Ho41 O65 2.305 . S
Ho41 O66 2.322 . S
Ho41 O68 2.378 . S
Ho41 O69 2.524 . S
Ho41 O70 2.381 . S
Ho41 O71 2.669 . S
C42 O60 1.259 . S
C42 O61 1.268 . S
C43 Ho40 2.811 . S
C43 C44 1.488 . S
C43 O62 1.215 . S
C43 O63 1.289 . S
C44 C43 1.488 . S
C44 C45 1.348 . S
C44 C49 1.413 . S
C45 C44 1.348 . S
C45 C46 1.442 . S
C45 H72 0.930 . S
C46 C45 1.442 . S
C46 C47 1.381 . S
C46 H73 0.931 . S
C47 C46 1.381 . S
C47 C48 1.321 . S
C48 C47 1.321 . S
C48 C49 1.403 . S
C48 H74 0.934 . S
C49 C44 1.413 . S
C49 C48 1.403 . S
C49 H75 0.930 . S
C50 O64 1.275 . S
C50 O65 1.256 . S
C51 O66 1.259 . S
C51 O67 1.268 . S
C52 Ho41 2.811 . S
C52 C53 1.488 . S
C52 O68 1.215 . S
C52 O69 1.289 . S
C53 C52 1.488 . S
C53 C54 1.348 . S
C53 C58 1.413 . S
C54 C53 1.348 . S
C54 C55 1.442 . S
C54 H76 0.930 . S
C55 C54 1.442 . S
C55 C56 1.381 . S
C55 H77 0.931 . S
C56 C55 1.381 . S
C56 C57 1.321 . S
C57 C56 1.321 . S
C57 C58 1.403 . S
C57 H78 0.934 . S
C58 C53 1.413 . S
C58 C57 1.403 . S
C58 H79 0.930 . S
C59 O70 1.275 . S
C59 O71 1.256 . S
O60 Ho40 2.322 . S
O60 C42 1.259 . S
O61 Ho41 2.346 . S
O61 C42 1.268 . S
O62 Ho40 2.378 . S
O62 C43 1.215 . S
O63 Ho40 2.524 . S
O63 C43 1.289 . S
O64 Ho40 2.381 . S
O64 C50 1.275 . S
O65 Ho40 2.669 . S
O65 Ho41 2.305 . S
O65 C50 1.256 . S
O66 Ho41 2.322 . S
O66 C51 1.259 . S
O67 Ho40 2.346 . S
O67 C51 1.268 . S
O68 Ho41 2.378 . S
O68 C52 1.215 . S
O69 Ho41 2.524 . S
O69 C52 1.289 . S
O70 Ho41 2.381 . S
O70 C59 1.275 . S
O71 Ho40 2.305 . S
O71 Ho41 2.669 . S
O71 C59 1.256 . S
H72 C45 0.930 . S
H73 C46 0.931 . S
H74 C48 0.934 . S
H75 C49 0.930 . S
H76 C54 0.930 . S
H77 C55 0.931 . S
H78 C57 0.934 . S
H79 C58 0.930 . S
Ho80 C83 2.811 . S
Ho80 O100 2.322 . S
Ho80 O102 2.378 . S
Ho80 O103 2.524 . S
Ho80 O104 2.381 . S
Ho80 O105 2.669 . S
Ho80 O107 2.346 . S
Ho80 O111 2.305 . S
Ho81 C92 2.811 . S
Ho81 O101 2.346 . S
Ho81 O105 2.305 . S
Ho81 O106 2.322 . S
Ho81 O108 2.378 . S
Ho81 O109 2.524 . S
Ho81 O110 2.381 . S
Ho81 O111 2.669 . S
C82 O100 1.259 . S
C82 O101 1.268 . S
C83 Ho80 2.811 . S
C83 C84 1.488 . S
C83 O102 1.215 . S
C83 O103 1.289 . S
C84 C83 1.488 . S
C84 C85 1.348 . S
C84 C89 1.413 . S
C85 C84 1.348 . S
C85 C86 1.442 . S
C85 H112 0.930 . S
C86 C85 1.442 . S
C86 C87 1.381 . S
C86 H113 0.931 . S
C87 C86 1.381 . S
C87 C88 1.321 . S
C88 C87 1.321 . S
C88 C89 1.403 . S
C88 H114 0.934 . S
C89 C84 1.413 . S
C89 C88 1.403 . S
C89 H115 0.930 . S
C90 O104 1.275 . S
C90 O105 1.256 . S
C91 O106 1.259 . S
C91 O107 1.268 . S
C92 Ho81 2.811 . S
C92 C93 1.488 . S
C92 O108 1.215 . S
C92 O109 1.289 . S
C93 C92 1.488 . S
C93 C94 1.348 . S
C93 C98 1.413 . S
C94 C93 1.348 . S
C94 C95 1.442 . S
C94 H116 0.930 . S
C95 C94 1.442 . S
C95 C96 1.381 . S
C95 H117 0.931 . S
C96 C95 1.381 . S
C96 C97 1.321 . S
C97 C96 1.321 . S
C97 C98 1.403 . S
C97 H118 0.934 . S
C98 C93 1.413 . S
C98 C97 1.403 . S
C98 H119 0.930 . S
C99 O110 1.275 . S
C99 O111 1.256 . S
O100 Ho80 2.322 . S
O100 C82 1.259 . S
O101 Ho81 2.346 . S
O101 C82 1.268 . S
O102 Ho80 2.378 . S
O102 C83 1.215 . S
O103 Ho80 2.524 . S
O103 C83 1.289 . S
O104 Ho80 2.381 . S
O104 C90 1.275 . S
O105 Ho80 2.669 . S
O105 Ho81 2.305 . S
O105 C90 1.256 . S
O106 Ho81 2.322 . S
O106 C91 1.259 . S
O107 Ho80 2.346 . S
O107 C91 1.268 . S
O108 Ho81 2.378 . S
O108 C92 1.215 . S
O109 Ho81 2.524 . S
O109 C92 1.289 . S
O110 Ho81 2.381 . S
O110 C99 1.275 . S
O111 Ho80 2.305 . S
O111 Ho81 2.669 . S
O111 C99 1.256 . S
H112 C85 0.930 . S
H113 C86 0.931 . S
H114 C88 0.934 . S
H115 C89 0.930 . S
H116 C94 0.930 . S
H117 C95 0.931 . S
H118 C97 0.934 . S
H119 C98 0.930 . S
Ho120 C123 2.811 . S
Ho120 O140 2.322 . S
Ho120 O142 2.378 . S
Ho120 O143 2.524 . S
Ho120 O144 2.381 . S
Ho120 O145 2.669 . S
Ho120 O147 2.346 . S
Ho120 O151 2.305 . S
Ho121 C132 2.811 . S
Ho121 O141 2.346 . S
Ho121 O145 2.305 . S
Ho121 O146 2.322 . S
Ho121 O148 2.378 . S
Ho121 O149 2.524 . S
Ho121 O150 2.381 . S
Ho121 O151 2.669 . S
C122 O140 1.259 . S
C122 O141 1.268 . S
C123 Ho120 2.811 . S
C123 C124 1.488 . S
C123 O142 1.215 . S
C123 O143 1.289 . S
C124 C123 1.488 . S
C124 C125 1.348 . S
C124 C129 1.413 . S
C125 C124 1.348 . S
C125 C126 1.442 . S
C125 H152 0.930 . S
C126 C125 1.442 . S
C126 C127 1.381 . S
C126 H153 0.931 . S
C127 C126 1.381 . S
C127 C128 1.321 . S
C128 C127 1.321 . S
C128 C129 1.403 . S
C128 H154 0.934 . S
C129 C124 1.413 . S
C129 C128 1.403 . S
C129 H155 0.930 . S
C130 O144 1.275 . S
C130 O145 1.256 . S
C131 O146 1.259 . S
C131 O147 1.268 . S
C132 Ho121 2.811 . S
C132 C133 1.488 . S
C132 O148 1.215 . S
C132 O149 1.289 . S
C133 C132 1.488 . S
C133 C134 1.348 . S
C133 C138 1.413 . S
C134 C133 1.348 . S
C134 C135 1.442 . S
C134 H156 0.930 . S
C135 C134 1.442 . S
C135 C136 1.381 . S
C135 H157 0.931 . S
C136 C135 1.381 . S
C136 C137 1.321 . S
C137 C136 1.321 . S
C137 C138 1.403 . S
C137 H158 0.934 . S
C138 C133 1.413 . S
C138 C137 1.403 . S
C138 H159 0.930 . S
C139 O150 1.275 . S
C139 O151 1.256 . S
O140 Ho120 2.322 . S
O140 C122 1.259 . S
O141 Ho121 2.346 . S
O141 C122 1.268 . S
O142 Ho120 2.378 . S
O142 C123 1.215 . S
O143 Ho120 2.524 . S
O143 C123 1.289 . S
O144 Ho120 2.381 . S
O144 C130 1.275 . S
O145 Ho120 2.669 . S
O145 Ho121 2.305 . S
O145 C130 1.256 . S
O146 Ho121 2.322 . S
O146 C131 1.259 . S
O147 Ho120 2.346 . S
O147 C131 1.268 . S
O148 Ho121 2.378 . S
O148 C132 1.215 . S
O149 Ho121 2.524 . S
O149 C132 1.289 . S
O150 Ho121 2.381 . S
O150 C139 1.275 . S
O151 Ho120 2.305 . S
O151 Ho121 2.669 . S
O151 C139 1.256 . S
H152 C125 0.930 . S
H153 C126 0.931 . S
H154 C128 0.934 . S
H155 C129 0.930 . S
H156 C134 0.930 . S
H157 C135 0.931 . S
H158 C137 0.934 . S
H159 C138 0.930 . S
Ho160 C163 2.811 . S
Ho160 O180 2.322 . S
Ho160 O182 2.378 . S
Ho160 O183 2.524 . S
Ho160 O184 2.381 . S
Ho160 O185 2.669 . S
Ho160 O187 2.346 . S
Ho160 O191 2.305 . S
Ho161 C172 2.811 . S
Ho161 O181 2.346 . S
Ho161 O185 2.305 . S
Ho161 O186 2.322 . S
Ho161 O188 2.378 . S
Ho161 O189 2.524 . S
Ho161 O190 2.381 . S
Ho161 O191 2.669 . S
C162 O180 1.259 . S
C162 O181 1.268 . S
C163 Ho160 2.811 . S
C163 C164 1.488 . S
C163 O182 1.215 . S
C163 O183 1.289 . S
C164 C163 1.488 . S
C164 C165 1.348 . S
C164 C169 1.413 . S
C165 C164 1.348 . S
C165 C166 1.442 . S
C165 H192 0.930 . S
C166 C165 1.442 . S
C166 C167 1.381 . S
C166 H193 0.931 . S
C167 C166 1.381 . S
C167 C168 1.321 . S
C168 C167 1.321 . S
C168 C169 1.403 . S
C168 H194 0.934 . S
C169 C164 1.413 . S
C169 C168 1.403 . S
C169 H195 0.930 . S
C170 O184 1.275 . S
C170 O185 1.256 . S
C171 O186 1.259 . S
C171 O187 1.268 . S
C172 Ho161 2.811 . S
C172 C173 1.488 . S
C172 O188 1.215 . S
C172 O189 1.289 . S
C173 C172 1.488 . S
C173 C174 1.348 . S
C173 C178 1.413 . S
C174 C173 1.348 . S
C174 C175 1.442 . S
C174 H196 0.930 . S
C175 C174 1.442 . S
C175 C176 1.381 . S
C175 H197 0.931 . S
C176 C175 1.381 . S
C176 C177 1.321 . S
C177 C176 1.321 . S
C177 C178 1.403 . S
C177 H198 0.934 . S
C178 C173 1.413 . S
C178 C177 1.403 . S
C178 H199 0.930 . S
C179 O190 1.275 . S
C179 O191 1.256 . S
O180 Ho160 2.322 . S
O180 C162 1.259 . S
O181 Ho161 2.346 . S
O181 C162 1.268 . S
O182 Ho160 2.378 . S
O182 C163 1.215 . S
O183 Ho160 2.524 . S
O183 C163 1.289 . S
O184 Ho160 2.381 . S
O184 C170 1.275 . S
O185 Ho160 2.669 . S
O185 Ho161 2.305 . S
O185 C170 1.256 . S
O186 Ho161 2.322 . S
O186 C171 1.259 . S
O187 Ho160 2.346 . S
O187 C171 1.268 . S
O188 Ho161 2.378 . S
O188 C172 1.215 . S
O189 Ho161 2.524 . S
O189 C172 1.289 . S
O190 Ho161 2.381 . S
O190 C179 1.275 . S
O191 Ho160 2.305 . S
O191 Ho161 2.669 . S
O191 C179 1.256 . S
H192 C165 0.930 . S
H193 C166 0.931 . S
H194 C168 0.934 . S
H195 C169 0.930 . S
H196 C174 0.930 . S
H197 C175 0.931 . S
H198 C177 0.934 . S
H199 C178 0.930 . S
Ho200 C203 2.811 . S
Ho200 O220 2.322 . S
Ho200 O222 2.378 . S
Ho200 O223 2.524 . S
Ho200 O224 2.381 . S
Ho200 O225 2.669 . S
Ho200 O227 2.346 . S
Ho200 O231 2.305 . S
Ho201 C212 2.811 . S
Ho201 O221 2.346 . S
Ho201 O225 2.305 . S
Ho201 O226 2.322 . S
Ho201 O228 2.378 . S
Ho201 O229 2.524 . S
Ho201 O230 2.381 . S
Ho201 O231 2.669 . S
C202 O220 1.259 . S
C202 O221 1.268 . S
C203 Ho200 2.811 . S
C203 C204 1.488 . S
C203 O222 1.215 . S
C203 O223 1.289 . S
C204 C203 1.488 . S
C204 C205 1.348 . S
C204 C209 1.413 . S
C205 C204 1.348 . S
C205 C206 1.442 . S
C205 H232 0.930 . S
C206 C205 1.442 . S
C206 C207 1.381 . S
C206 H233 0.931 . S
C207 C206 1.381 . S
C207 C208 1.321 . S
C208 C207 1.321 . S
C208 C209 1.403 . S
C208 H234 0.934 . S
C209 C204 1.413 . S
C209 C208 1.403 . S
C209 H235 0.930 . S
C210 O224 1.275 . S
C210 O225 1.256 . S
C211 O226 1.259 . S
C211 O227 1.268 . S
C212 Ho201 2.811 . S
C212 C213 1.488 . S
C212 O228 1.215 . S
C212 O229 1.289 . S
C213 C212 1.488 . S
C213 C214 1.348 . S
C213 C218 1.413 . S
C214 C213 1.348 . S
C214 C215 1.442 . S
C214 H236 0.930 . S
C215 C214 1.442 . S
C215 C216 1.381 . S
C215 H237 0.931 . S
C216 C215 1.381 . S
C216 C217 1.321 . S
C217 C216 1.321 . S
C217 C218 1.403 . S
C217 H238 0.934 . S
C218 C213 1.413 . S
C218 C217 1.403 . S
C218 H239 0.930 . S
C219 O230 1.275 . S
C219 O231 1.256 . S
O220 Ho200 2.322 . S
O220 C202 1.259 . S
O221 Ho201 2.346 . S
O221 C202 1.268 . S
O222 Ho200 2.378 . S
O222 C203 1.215 . S
O223 Ho200 2.524 . S
O223 C203 1.289 . S
O224 Ho200 2.381 . S
O224 C210 1.275 . S
O225 Ho200 2.669 . S
O225 Ho201 2.305 . S
O225 C210 1.256 . S
O226 Ho201 2.322 . S
O226 C211 1.259 . S
O227 Ho200 2.346 . S
O227 C211 1.268 . S
O228 Ho201 2.378 . S
O228 C212 1.215 . S
O229 Ho201 2.524 . S
O229 C212 1.289 . S
O230 Ho201 2.381 . S
O230 C219 1.275 . S
O231 Ho200 2.305 . S
O231 Ho201 2.669 . S
O231 C219 1.256 . S
H232 C205 0.930 . S
H233 C206 0.931 . S
H234 C208 0.934 . S
H235 C209 0.930 . S
H236 C214 0.930 . S
H237 C215 0.931 . S
H238 C217 0.934 . S
H239 C218 0.930 . S
Ho240 C243 2.811 . S
Ho240 O260 2.322 . S
Ho240 O262 2.378 . S
Ho240 O263 2.524 . S
Ho240 O264 2.381 . S
Ho240 O265 2.669 . S
Ho240 O267 2.346 . S
Ho240 O271 2.305 . S
Ho241 C252 2.811 . S
Ho241 O261 2.346 . S
Ho241 O265 2.305 . S
Ho241 O266 2.322 . S
Ho241 O268 2.378 . S
Ho241 O269 2.524 . S
Ho241 O270 2.381 . S
Ho241 O271 2.669 . S
C242 O260 1.259 . S
C242 O261 1.268 . S
C243 Ho240 2.811 . S
C243 C244 1.488 . S
C243 O262 1.215 . S
C243 O263 1.289 . S
C244 C243 1.488 . S
C244 C245 1.348 . S
C244 C249 1.413 . S
C245 C244 1.348 . S
C245 C246 1.442 . S
C245 H272 0.930 . S
C246 C245 1.442 . S
C246 C247 1.381 . S
C246 H273 0.931 . S
C247 C246 1.381 . S
C247 C248 1.321 . S
C248 C247 1.321 . S
C248 C249 1.403 . S
C248 H274 0.934 . S
C249 C244 1.413 . S
C249 C248 1.403 . S
C249 H275 0.930 . S
C250 O264 1.275 . S
C250 O265 1.256 . S
C251 O266 1.259 . S
C251 O267 1.268 . S
C252 Ho241 2.811 . S
C252 C253 1.488 . S
C252 O268 1.215 . S
C252 O269 1.289 . S
C253 C252 1.488 . S
C253 C254 1.348 . S
C253 C258 1.413 . S
C254 C253 1.348 . S
C254 C255 1.442 1_556 S
C254 H276 0.930 . S
C255 C254 1.442 1_554 S
C255 C256 1.381 . S
C255 H277 0.931 . S
C256 C255 1.381 . S
C256 C257 1.321 . S
C257 C256 1.321 . S
C257 C258 1.403 1_554 S
C257 H278 0.934 . S
C258 C253 1.413 . S
C258 C257 1.403 1_556 S
C258 H279 0.930 . S
C259 O270 1.275 . S
C259 O271 1.256 . S
O260 Ho240 2.322 . S
O260 C242 1.259 . S
O261 Ho241 2.346 . S
O261 C242 1.268 . S
O262 Ho240 2.378 . S
O262 C243 1.215 . S
O263 Ho240 2.524 . S
O263 C243 1.289 . S
O264 Ho240 2.381 . S
O264 C250 1.275 . S
O265 Ho240 2.669 . S
O265 Ho241 2.305 . S
O265 C250 1.256 . S
O266 Ho241 2.322 . S
O266 C251 1.259 . S
O267 Ho240 2.346 . S
O267 C251 1.268 . S
O268 Ho241 2.378 . S
O268 C252 1.215 . S
O269 Ho241 2.524 . S
O269 C252 1.289 . S
O270 Ho241 2.381 . S
O270 C259 1.275 . S
O271 Ho240 2.305 . S
O271 Ho241 2.669 . S
O271 C259 1.256 . S
H272 C245 0.930 . S
H273 C246 0.931 . S
H274 C248 0.934 . S
H275 C249 0.930 . S
H276 C254 0.930 . S
H277 C255 0.931 . S
H278 C257 0.934 . S
H279 C258 0.930 . S
Ho280 C283 2.811 . S
Ho280 O300 2.322 . S
Ho280 O302 2.378 . S
Ho280 O303 2.524 . S
Ho280 O304 2.381 . S
Ho280 O305 2.669 . S
Ho280 O307 2.346 . S
Ho280 O311 2.305 . S
Ho281 C292 2.811 . S
Ho281 O301 2.346 . S
Ho281 O305 2.305 . S
Ho281 O306 2.322 . S
Ho281 O308 2.378 . S
Ho281 O309 2.524 . S
Ho281 O310 2.381 . S
Ho281 O311 2.669 . S
C282 O300 1.259 . S
C282 O301 1.268 . S
C283 Ho280 2.811 . S
C283 C284 1.488 . S
C283 O302 1.215 . S
C283 O303 1.289 . S
C284 C283 1.488 . S
C284 C285 1.348 . S
C284 C289 1.413 . S
C285 C284 1.348 . S
C285 C286 1.442 1_556 S
C285 H312 0.930 . S
C286 C285 1.442 1_554 S
C286 C287 1.381 . S
C286 H313 0.931 . S
C287 C286 1.381 . S
C287 C288 1.321 . S
C288 C287 1.321 . S
C288 C289 1.403 1_554 S
C288 H314 0.934 . S
C289 C284 1.413 . S
C289 C288 1.403 1_556 S
C289 H315 0.930 . S
C290 O304 1.275 . S
C290 O305 1.256 . S
C291 O306 1.259 . S
C291 O307 1.268 . S
C292 Ho281 2.811 . S
C292 C293 1.488 . S
C292 O308 1.215 . S
C292 O309 1.289 . S
C293 C292 1.488 . S
C293 C294 1.348 . S
C293 C298 1.413 . S
C294 C293 1.348 . S
C294 C295 1.442 . S
C294 H316 0.930 . S
C295 C294 1.442 . S
C295 C296 1.381 . S
C295 H317 0.931 . S
C296 C295 1.381 . S
C296 C297 1.321 . S
C297 C296 1.321 . S
C297 C298 1.403 . S
C297 H318 0.934 . S
C298 C293 1.413 . S
C298 C297 1.403 . S
C298 H319 0.930 . S
C299 O310 1.275 . S
C299 O311 1.256 . S
O300 Ho280 2.322 . S
O300 C282 1.259 . S
O301 Ho281 2.346 . S
O301 C282 1.268 . S
O302 Ho280 2.378 . S
O302 C283 1.215 . S
O303 Ho280 2.524 . S
O303 C283 1.289 . S
O304 Ho280 2.381 . S
O304 C290 1.275 . S
O305 Ho280 2.669 . S
O305 Ho281 2.305 . S
O305 C290 1.256 . S
O306 Ho281 2.322 . S
O306 C291 1.259 . S
O307 Ho280 2.346 . S
O307 C291 1.268 . S
O308 Ho281 2.378 . S
O308 C292 1.215 . S
O309 Ho281 2.524 . S
O309 C292 1.289 . S
O310 Ho281 2.381 . S
O310 C299 1.275 . S
O311 Ho280 2.305 . S
O311 Ho281 2.669 . S
O311 C299 1.256 . S
H312 C285 0.930 . S
H313 C286 0.931 . S
H314 C288 0.934 . S
H315 C289 0.930 . S
H316 C294 0.930 . S
H317 C295 0.931 . S
H318 C297 0.934 . S
H319 C298 0.930 . S
Ho320 C323 2.811 . S
Ho320 O340 2.322 . S
Ho320 O342 2.378 . S
Ho320 O343 2.524 . S
Ho320 O344 2.381 . S
Ho320 O345 2.669 . S
Ho320 O347 2.346 . S
Ho320 O351 2.305 . S
Ho321 C332 2.811 . S
Ho321 O341 2.346 . S
Ho321 O345 2.305 . S
Ho321 O346 2.322 . S
Ho321 O348 2.378 . S
Ho321 O349 2.524 . S
Ho321 O350 2.381 . S
Ho321 O351 2.669 . S
C322 O340 1.259 . S
C322 O341 1.268 . S
C323 Ho320 2.811 . S
C323 C324 1.488 . S
C323 O342 1.215 . S
C323 O343 1.289 . S
C324 C323 1.488 . S
C324 C325 1.348 . S
C324 C329 1.413 . S
C325 C324 1.348 . S
C325 C326 1.442 . S
C325 H352 0.930 . S
C326 C325 1.442 . S
C326 C327 1.381 . S
C326 H353 0.931 . S
C327 C326 1.381 . S
C327 C328 1.321 . S
C328 C327 1.321 . S
C328 C329 1.403 . S
C328 H354 0.934 . S
C329 C324 1.413 . S
C329 C328 1.403 . S
C329 H355 0.930 . S
C330 O344 1.275 . S
C330 O345 1.256 . S
C331 O346 1.259 . S
C331 O347 1.268 . S
C332 Ho321 2.811 . S
C332 C333 1.488 . S
C332 O348 1.215 . S
C332 O349 1.289 . S
C333 C332 1.488 . S
C333 C334 1.348 . S
C333 C338 1.413 . S
C334 C333 1.348 . S
C334 C335 1.442 1_556 S
C334 H356 0.930 . S
C335 C334 1.442 1_554 S
C335 C336 1.381 . S
C335 H357 0.931 . S
C336 C335 1.381 . S
C336 C337 1.321 . S
C337 C336 1.321 . S
C337 C338 1.403 1_554 S
C337 H358 0.934 . S
C338 C333 1.413 . S
C338 C337 1.403 1_556 S
C338 H359 0.930 . S
C339 O350 1.275 . S
C339 O351 1.256 . S
O340 Ho320 2.322 . S
O340 C322 1.259 . S
O341 Ho321 2.346 . S
O341 C322 1.268 . S
O342 Ho320 2.378 . S
O342 C323 1.215 . S
O343 Ho320 2.524 . S
O343 C323 1.289 . S
O344 Ho320 2.381 . S
O344 C330 1.275 . S
O345 Ho320 2.669 . S
O345 Ho321 2.305 . S
O345 C330 1.256 . S
O346 Ho321 2.322 . S
O346 C331 1.259 . S
O347 Ho320 2.346 . S
O347 C331 1.268 . S
O348 Ho321 2.378 . S
O348 C332 1.215 . S
O349 Ho321 2.524 . S
O349 C332 1.289 . S
O350 Ho321 2.381 . S
O350 C339 1.275 . S
O351 Ho320 2.305 . S
O351 Ho321 2.669 . S
O351 C339 1.256 . S
H352 C325 0.930 . S
H353 C326 0.931 . S
H354 C328 0.934 . S
H355 C329 0.930 . S
H356 C334 0.930 . S
H357 C335 0.931 . S
H358 C337 0.934 . S
H359 C338 0.930 . S
H360 C378 0.951 . S
H361 C380 0.951 . S
H362 C382 0.950 . S
H363 C383 0.950 . S
H364 C385 0.950 . S
H365 C388 0.950 . S
H366 C389 0.950 . S
H367 C391 0.950 . S
H368 C392 0.950 . S
H369 C393 0.951 . S
H370 C395 0.951 . S
H371 C397 0.950 . S
H372 C398 0.950 . S
H373 C400 0.950 . S
H374 C403 0.950 . S
H375 C404 0.950 . S
H376 C406 0.950 . S
H377 C407 0.950 . S
C378 H360 0.951 . S
C378 C379 1.366 . S
C378 C380 1.388 . S
C379 C378 1.366 . S
C379 C383 1.385 . S
C380 H361 0.951 . S
C380 C378 1.388 . S
C380 C381 1.366 . S
C381 C380 1.366 . S
C381 C382 1.414 . S
C381 C384 1.499 . S
C382 H362 0.950 . S
C382 C381 1.414 . S
C382 C383 1.374 . S
C383 H363 0.950 . S
C383 C379 1.385 . S
C383 C382 1.374 . S
C384 C381 1.499 . S
C384 C385 1.373 . S
C384 C386 1.389 . S
C385 H364 0.950 . S
C385 C384 1.373 . S
C385 C401 1.377 . S
C386 C384 1.389 . S
C386 C387 1.524 . S
C386 C400 1.377 . S
C387 C386 1.524 . S
C387 C388 1.397 . S
C387 C392 1.363 . S
C388 H365 0.950 . S
C388 C387 1.397 . S
C388 C389 1.334 . S
C389 H366 0.950 . S
C389 C388 1.334 . S
C389 C390 1.287 . S
C390 C389 1.287 . S
C390 C391 1.524 . S
C390 H409 0.913 . S
C391 H367 0.950 . S
C391 C390 1.524 . S
C391 C392 1.415 . S
C392 H368 0.950 . S
C392 C387 1.363 . S
C392 C391 1.415 . S
C393 H369 0.951 . S
C393 C394 1.366 . S
C393 C395 1.388 . S
C394 C393 1.366 . S
C394 C398 1.385 . S
C395 H370 0.951 . S
C395 C393 1.388 . S
C395 C396 1.366 . S
C396 C395 1.366 . S
C396 C397 1.414 . S
C396 C399 1.499 . S
C397 H371 0.950 . S
C397 C396 1.414 . S
C397 C398 1.374 . S
C398 H372 0.950 . S
C398 C394 1.385 . S
C398 C397 1.374 . S
C399 C396 1.499 . S
C399 C400 1.373 . S
C399 C401 1.389 . S
C400 H373 0.950 . S
C400 C386 1.377 . S
C400 C399 1.373 . S
C401 C385 1.377 . S
C401 C399 1.389 . S
C401 C402 1.524 . S
C402 C401 1.524 . S
C402 C403 1.397 . S
C402 C407 1.363 1_455 S
C403 H374 0.950 . S
C403 C402 1.397 . S
C403 C404 1.334 1_455 S
C404 H375 0.950 . S
C404 C403 1.334 1_655 S
C404 C405 1.287 . S
C405 C404 1.287 . S
C405 C406 1.524 . S
C405 H408 0.999 . S
C406 H376 0.950 . S
C406 C405 1.524 . S
C406 C407 1.415 . S
C407 H377 0.950 . S
C407 C402 1.363 1_655 S
C407 C406 1.415 . S
H408 C405 0.999 . S
H409 C390 0.913 . S
H410 C428 0.951 . S
H411 C430 0.951 . S
H412 C432 0.950 . S
H413 C433 0.950 . S
H414 C435 0.950 . S
H415 C438 0.950 . S
H416 C439 0.950 . S
H417 C441 0.950 . S
H418 C442 0.950 . S
H419 C443 0.951 . S
H420 C445 0.951 . S
H421 C447 0.950 . S
H422 C448 0.950 . S
H423 C450 0.950 . S
H424 C453 0.950 . S
H425 C454 0.950 . S
H426 C456 0.950 . S
H427 C457 0.950 . S
C428 H410 0.951 . S
C428 C429 1.366 . S
C428 C430 1.388 . S
C429 C428 1.366 . S
C429 C433 1.385 . S
C430 H411 0.951 . S
C430 C428 1.388 . S
C430 C431 1.366 . S
C431 C430 1.366 . S
C431 C432 1.414 . S
C431 C434 1.499 . S
C432 H412 0.950 . S
C432 C431 1.414 . S
C432 C433 1.374 . S
C433 H413 0.950 . S
C433 C429 1.385 . S
C433 C432 1.374 . S
C434 C431 1.499 . S
C434 C435 1.373 . S
C434 C436 1.389 . S
C435 H414 0.950 . S
C435 C434 1.373 . S
C435 C451 1.377 . S
C436 C434 1.389 . S
C436 C437 1.524 . S
C436 C450 1.377 . S
C437 C436 1.524 . S
C437 C438 1.397 . S
C437 C442 1.363 . S
C438 H415 0.950 . S
C438 C437 1.397 . S
C438 C439 1.334 . S
C439 H416 0.950 . S
C439 C438 1.334 . S
C439 C440 1.287 . S
C440 C439 1.287 . S
C440 C441 1.524 . S
C440 H459 0.913 . S
C441 H417 0.950 . S
C441 C440 1.524 . S
C441 C442 1.415 . S
C442 H418 0.950 . S
C442 C437 1.363 . S
C442 C441 1.415 . S
C443 H419 0.951 . S
C443 C444 1.366 . S
C443 C445 1.388 . S
C444 C443 1.366 . S
C444 C448 1.385 . S
C445 H420 0.951 . S
C445 C443 1.388 . S
C445 C446 1.366 . S
C446 C445 1.366 . S
C446 C447 1.414 . S
C446 C449 1.499 . S
C447 H421 0.950 . S
C447 C446 1.414 . S
C447 C448 1.374 . S
C448 H422 0.950 . S
C448 C444 1.385 . S
C448 C447 1.374 . S
C449 C446 1.499 . S
C449 C450 1.373 . S
C449 C451 1.389 . S
C450 H423 0.950 . S
C450 C436 1.377 . S
C450 C449 1.373 . S
C451 C435 1.377 . S
C451 C449 1.389 . S
C451 C452 1.524 . S
C452 C451 1.524 . S
C452 C453 1.397 . S
C452 C457 1.363 . S
C453 H424 0.950 . S
C453 C452 1.397 . S
C453 C454 1.334 . S
C454 H425 0.950 . S
C454 C453 1.334 . S
C454 C455 1.287 . S
C455 C454 1.287 . S
C455 C456 1.524 . S
C455 H458 0.999 . S
C456 H426 0.950 . S
C456 C455 1.524 . S
C456 C457 1.415 . S
C457 H427 0.950 . S
C457 C452 1.363 . S
C457 C456 1.415 . S
H458 C455 0.999 . S
H459 C440 0.913 . S
H460 C478 0.951 . S
H461 C480 0.951 . S
H462 C482 0.950 . S
H463 C483 0.950 . S
H464 C485 0.950 . S
H465 C488 0.950 . S
H466 C489 0.950 . S
H467 C491 0.950 . S
H468 C492 0.950 . S
H469 C493 0.951 . S
H470 C495 0.951 . S
H471 C497 0.950 . S
H472 C498 0.950 . S
H473 C500 0.950 . S
H474 C503 0.950 . S
H475 C504 0.950 . S
H476 C506 0.950 . S
H477 C507 0.950 . S
C478 H460 0.951 . S
C478 C479 1.366 . S
C478 C480 1.388 . S
C479 C478 1.366 . S
C479 C483 1.385 . S
C480 H461 0.951 . S
C480 C478 1.388 . S
C480 C481 1.366 . S
C481 C480 1.366 . S
C481 C482 1.414 . S
C481 C484 1.499 . S
C482 H462 0.950 . S
C482 C481 1.414 . S
C482 C483 1.374 . S
C483 H463 0.950 . S
C483 C479 1.385 . S
C483 C482 1.374 . S
C484 C481 1.499 . S
C484 C485 1.373 . S
C484 C486 1.389 . S
C485 H464 0.950 . S
C485 C484 1.373 . S
C485 C501 1.377 . S
C486 C484 1.389 . S
C486 C487 1.524 . S
C486 C500 1.377 . S
C487 C486 1.524 . S
C487 C488 1.397 . S
C487 C492 1.363 . S
C488 H465 0.950 . S
C488 C487 1.397 . S
C488 C489 1.334 . S
C489 H466 0.950 . S
C489 C488 1.334 . S
C489 C490 1.287 . S
C490 C489 1.287 . S
C490 C491 1.524 . S
C490 H509 0.913 . S
C491 H467 0.950 . S
C491 C490 1.524 . S
C491 C492 1.415 . S
C492 H468 0.950 . S
C492 C487 1.363 . S
C492 C491 1.415 . S
C493 H469 0.951 . S
C493 C494 1.366 . S
C493 C495 1.388 . S
C494 C493 1.366 . S
C494 C498 1.385 . S
C495 H470 0.951 . S
C495 C493 1.388 . S
C495 C496 1.366 . S
C496 C495 1.366 . S
C496 C497 1.414 . S
C496 C499 1.499 . S
C497 H471 0.950 . S
C497 C496 1.414 . S
C497 C498 1.374 . S
C498 H472 0.950 . S
C498 C494 1.385 . S
C498 C497 1.374 . S
C499 C496 1.499 . S
C499 C500 1.373 . S
C499 C501 1.389 . S
C500 H473 0.950 . S
C500 C486 1.377 . S
C500 C499 1.373 . S
C501 C485 1.377 . S
C501 C499 1.389 . S
C501 C502 1.524 . S
C502 C501 1.524 . S
C502 C503 1.397 . S
C502 C507 1.363 . S
C503 H474 0.950 . S
C503 C502 1.397 . S
C503 C504 1.334 . S
C504 H475 0.950 . S
C504 C503 1.334 . S
C504 C505 1.287 . S
C505 C504 1.287 . S
C505 C506 1.524 . S
C505 H508 0.999 . S
C506 H476 0.950 . S
C506 C505 1.524 . S
C506 C507 1.415 . S
C507 H477 0.950 . S
C507 C502 1.363 . S
C507 C506 1.415 . S
H508 C505 0.999 . S
H509 C490 0.913 . S
H510 C528 0.951 . S
H511 C530 0.951 . S
H512 C532 0.950 . S
H513 C533 0.950 . S
H514 C535 0.950 . S
H515 C538 0.950 . S
H516 C539 0.950 . S
H517 C541 0.950 . S
H518 C542 0.950 . S
H519 C543 0.951 . S
H520 C545 0.951 . S
H521 C547 0.950 . S
H522 C548 0.950 . S
H523 C550 0.950 . S
H524 C553 0.950 . S
H525 C554 0.950 . S
H526 C556 0.950 . S
H527 C557 0.950 . S
C528 H510 0.951 . S
C528 C529 1.366 . S
C528 C530 1.388 . S
C529 C528 1.366 . S
C529 C533 1.385 . S
C530 H511 0.951 . S
C530 C528 1.388 . S
C530 C531 1.366 . S
C531 C530 1.366 . S
C531 C532 1.414 . S
C531 C534 1.499 . S
C532 H512 0.950 . S
C532 C531 1.414 . S
C532 C533 1.374 . S
C533 H513 0.950 . S
C533 C529 1.385 . S
C533 C532 1.374 . S
C534 C531 1.499 . S
C534 C535 1.373 . S
C534 C536 1.389 . S
C535 H514 0.950 . S
C535 C534 1.373 . S
C535 C551 1.377 . S
C536 C534 1.389 . S
C536 C537 1.524 . S
C536 C550 1.377 . S
C537 C536 1.524 . S
C537 C538 1.397 . S
C537 C542 1.363 . S
C538 H515 0.950 . S
C538 C537 1.397 . S
C538 C539 1.334 . S
C539 H516 0.950 . S
C539 C538 1.334 . S
C539 C540 1.287 . S
C540 C539 1.287 . S
C540 C541 1.524 . S
C540 H559 0.913 . S
C541 H517 0.950 . S
C541 C540 1.524 . S
C541 C542 1.415 . S
C542 H518 0.950 . S
C542 C537 1.363 . S
C542 C541 1.415 . S
C543 H519 0.951 . S
C543 C544 1.366 . S
C543 C545 1.388 1_554 S
C544 C543 1.366 . S
C544 C548 1.385 . S
C545 H520 0.951 . S
C545 C543 1.388 1_556 S
C545 C546 1.366 . S
C546 C545 1.366 . S
C546 C547 1.414 . S
C546 C549 1.499 . S
C547 H521 0.950 . S
C547 C546 1.414 . S
C547 C548 1.374 1_556 S
C548 H522 0.950 . S
C548 C544 1.385 . S
C548 C547 1.374 1_554 S
C549 C546 1.499 . S
C549 C550 1.373 . S
C549 C551 1.389 . S
C550 H523 0.950 . S
C550 C536 1.377 . S
C550 C549 1.373 . S
C551 C535 1.377 . S
C551 C549 1.389 . S
C551 C552 1.524 . S
C552 C551 1.524 . S
C552 C553 1.397 . S
C552 C557 1.363 . S
C553 H524 0.950 . S
C553 C552 1.397 . S
C553 C554 1.334 . S
C554 H525 0.950 . S
C554 C553 1.334 . S
C554 C555 1.287 . S
C555 C554 1.287 . S
C555 C556 1.524 . S
C555 H558 0.999 . S
C556 H526 0.950 . S
C556 C555 1.524 . S
C556 C557 1.415 . S
C557 H527 0.950 . S
C557 C552 1.363 . S
C557 C556 1.415 . S
H558 C555 0.999 . S
H559 C540 0.913 . S
H560 C578 0.951 . S
H561 C580 0.951 . S
H562 C582 0.950 . S
H563 C583 0.950 . S
H564 C585 0.950 . S
H565 C588 0.950 . S
H566 C589 0.950 . S
H567 C591 0.950 . S
H568 C592 0.950 . S
H569 C593 0.951 . S
H570 C595 0.951 . S
H571 C597 0.950 . S
H572 C598 0.950 1_554 S
H573 C600 0.950 . S
H574 C603 0.950 . S
H575 C604 0.950 . S
H576 C606 0.950 . S
H577 C607 0.950 . S
C578 H560 0.951 . S
C578 C579 1.366 . S
C578 C580 1.388 . S
C579 C578 1.366 . S
C579 C583 1.385 . S
C580 H561 0.951 . S
C580 C578 1.388 . S
C580 C581 1.366 . S
C581 C580 1.366 . S
C581 C582 1.414 . S
C581 C584 1.499 . S
C582 H562 0.950 . S
C582 C581 1.414 . S
C582 C583 1.374 . S
C583 H563 0.950 . S
C583 C579 1.385 . S
C583 C582 1.374 . S
C584 C581 1.499 . S
C584 C585 1.373 . S
C584 C586 1.389 . S
C585 H564 0.950 . S
C585 C584 1.373 . S
C585 C601 1.377 . S
C586 C584 1.389 . S
C586 C587 1.524 . S
C586 C600 1.377 . S
C587 C586 1.524 . S
C587 C588 1.397 . S
C587 C592 1.363 . S
C588 H565 0.950 . S
C588 C587 1.397 . S
C588 C589 1.334 . S
C589 H566 0.950 . S
C589 C588 1.334 . S
C589 C590 1.287 . S
C590 C589 1.287 . S
C590 C591 1.524 . S
C590 H609 0.913 . S
C591 H567 0.950 . S
C591 C590 1.524 . S
C591 C592 1.415 . S
C592 H568 0.950 . S
C592 C587 1.363 . S
C592 C591 1.415 . S
C593 H569 0.951 . S
C593 C594 1.366 . S
C593 C595 1.388 . S
C594 C593 1.366 . S
C594 C598 1.385 . S
C595 H570 0.951 . S
C595 C593 1.388 . S
C595 C596 1.366 . S
C596 C595 1.366 . S
C596 C597 1.414 . S
C596 C599 1.499 . S
C597 H571 0.950 . S
C597 C596 1.414 . S
C597 C598 1.374 . S
C598 H572 0.950 1_556 S
C598 C594 1.385 . S
C598 C597 1.374 . S
C599 C596 1.499 . S
C599 C600 1.373 . S
C599 C601 1.389 . S
C600 H573 0.950 . S
C600 C586 1.377 . S
C600 C599 1.373 . S
C601 C585 1.377 . S
C601 C599 1.389 . S
C601 C602 1.524 . S
C602 C601 1.524 . S
C602 C603 1.397 . S
C602 C607 1.363 . S
C603 H574 0.950 . S
C603 C602 1.397 . S
C603 C604 1.334 . S
C604 H575 0.950 . S
C604 C603 1.334 . S
C604 C605 1.287 . S
C605 C604 1.287 . S
C605 C606 1.524 . S
C605 H608 0.999 . S
C606 H576 0.950 . S
C606 C605 1.524 . S
C606 C607 1.415 . S
C607 H577 0.950 . S
C607 C602 1.363 . S
C607 C606 1.415 . S
H608 C605 0.999 . S
H609 C590 0.913 . S
H610 C628 0.951 . S
H611 C630 0.951 . S
H612 C632 0.950 . S
H613 C633 0.950 . S
H614 C635 0.950 . S
H615 C638 0.950 . S
H616 C639 0.950 . S
H617 C641 0.950 . S
H618 C642 0.950 . S
H619 C643 0.951 . S
H620 C645 0.951 . S
H621 C647 0.950 . S
H622 C648 0.950 . S
H623 C650 0.950 . S
H624 C653 0.950 . S
H625 C654 0.950 . S
H626 C656 0.950 . S
H627 C657 0.950 . S
C628 H610 0.951 . S
C628 C629 1.366 . S
C628 C630 1.388 . S
C629 C628 1.366 . S
C629 C633 1.385 . S
C630 H611 0.951 . S
C630 C628 1.388 . S
C630 C631 1.366 . S
C631 C630 1.366 . S
C631 C632 1.414 . S
C631 C634 1.499 . S
C632 H612 0.950 . S
C632 C631 1.414 . S
C632 C633 1.374 . S
C633 H613 0.950 . S
C633 C629 1.385 . S
C633 C632 1.374 . S
C634 C631 1.499 . S
C634 C635 1.373 . S
C634 C636 1.389 . S
C635 H614 0.950 . S
C635 C634 1.373 . S
C635 C651 1.377 . S
C636 C634 1.389 . S
C636 C637 1.524 . S
C636 C650 1.377 . S
C637 C636 1.524 . S
C637 C638 1.397 . S
C637 C642 1.363 . S
C638 H615 0.950 . S
C638 C637 1.397 . S
C638 C639 1.334 . S
C639 H616 0.950 . S
C639 C638 1.334 . S
C639 C640 1.287 . S
C640 C639 1.287 . S
C640 C641 1.524 . S
C640 H659 0.913 . S
C641 H617 0.950 . S
C641 C640 1.524 . S
C641 C642 1.415 . S
C642 H618 0.950 . S
C642 C637 1.363 . S
C642 C641 1.415 . S
C643 H619 0.951 . S
C643 C644 1.366 . S
C643 C645 1.388 . S
C644 C643 1.366 . S
C644 C648 1.385 . S
C645 H620 0.951 . S
C645 C643 1.388 . S
C645 C646 1.366 . S
C646 C645 1.366 . S
C646 C647 1.414 . S
C646 C649 1.499 . S
C647 H621 0.950 . S
C647 C646 1.414 . S
C647 C648 1.374 . S
C648 H622 0.950 . S
C648 C644 1.385 . S
C648 C647 1.374 . S
C649 C646 1.499 . S
C649 C650 1.373 . S
C649 C651 1.389 . S
C650 H623 0.950 . S
C650 C636 1.377 . S
C650 C649 1.373 . S
C651 C635 1.377 . S
C651 C649 1.389 . S
C651 C652 1.524 . S
C652 C651 1.524 . S
C652 C653 1.397 . S
C652 C657 1.363 . S
C653 H624 0.950 . S
C653 C652 1.397 . S
C653 C654 1.334 . S
C654 H625 0.950 . S
C654 C653 1.334 . S
C654 C655 1.287 . S
C655 C654 1.287 . S
C655 C656 1.524 . S
C655 H658 0.999 . S
C656 H626 0.950 . S
C656 C655 1.524 . S
C656 C657 1.415 . S
C657 H627 0.950 . S
C657 C652 1.363 . S
C657 C656 1.415 . S
H658 C655 0.999 . S
H659 C640 0.913 . S
H660 C678 0.951 . S
H661 C680 0.951 . S
H662 C682 0.950 . S
H663 C683 0.950 . S
H664 C685 0.950 . S
H665 C688 0.950 . S
H666 C689 0.950 . S
H667 C691 0.950 . S
H668 C692 0.950 . S
H669 C693 0.951 . S
H670 C695 0.951 . S
H671 C697 0.950 . S
H672 C698 0.950 . S
H673 C700 0.950 . S
H674 C703 0.950 . S
H675 C704 0.950 . S
H676 C706 0.950 . S
H677 C707 0.950 . S
C678 H660 0.951 . S
C678 C679 1.366 . S
C678 C680 1.388 . S
C679 C678 1.366 . S
C679 C683 1.385 . S
C680 H661 0.951 . S
C680 C678 1.388 . S
C680 C681 1.366 . S
C681 C680 1.366 . S
C681 C682 1.414 . S
C681 C684 1.499 . S
C682 H662 0.950 . S
C682 C681 1.414 . S
C682 C683 1.374 . S
C683 H663 0.950 . S
C683 C679 1.385 . S
C683 C682 1.374 . S
C684 C681 1.499 . S
C684 C685 1.373 . S
C684 C686 1.389 . S
C685 H664 0.950 . S
C685 C684 1.373 . S
C685 C701 1.377 . S
C686 C684 1.389 . S
C686 C687 1.524 . S
C686 C700 1.377 . S
C687 C686 1.524 . S
C687 C688 1.397 . S
C687 C692 1.363 . S
C688 H665 0.950 . S
C688 C687 1.397 . S
C688 C689 1.334 . S
C689 H666 0.950 . S
C689 C688 1.334 . S
C689 C690 1.287 . S
C690 C689 1.287 . S
C690 C691 1.524 . S
C690 H709 0.913 . S
C691 H667 0.950 . S
C691 C690 1.524 . S
C691 C692 1.415 . S
C692 H668 0.950 . S
C692 C687 1.363 . S
C692 C691 1.415 . S
C693 H669 0.951 . S
C693 C694 1.366 . S
C693 C695 1.388 1_556 S
C694 C693 1.366 . S
C694 C698 1.385 . S
C695 H670 0.951 . S
C695 C693 1.388 1_554 S
C695 C696 1.366 . S
C696 C695 1.366 . S
C696 C697 1.414 . S
C696 C699 1.499 . S
C697 H671 0.950 . S
C697 C696 1.414 . S
C697 C698 1.374 1_554 S
C698 H672 0.950 . S
C698 C694 1.385 . S
C698 C697 1.374 1_556 S
C699 C696 1.499 . S
C699 C700 1.373 . S
C699 C701 1.389 . S
C700 H673 0.950 . S
C700 C686 1.377 . S
C700 C699 1.373 . S
C701 C685 1.377 . S
C701 C699 1.389 . S
C701 C702 1.524 . S
C702 C701 1.524 . S
C702 C703 1.397 . S
C702 C707 1.363 . S
C703 H674 0.950 . S
C703 C702 1.397 . S
C703 C704 1.334 . S
C704 H675 0.950 . S
C704 C703 1.334 . S
C704 C705 1.287 . S
C705 C704 1.287 . S
C705 C706 1.524 . S
C705 H708 0.999 . S
C706 H676 0.950 . S
C706 C705 1.524 . S
C706 C707 1.415 . S
C707 H677 0.950 . S
C707 C702 1.363 . S
C707 C706 1.415 . S
H708 C705 0.999 . S
H709 C690 0.913 . S
H710 C728 0.951 . S
H711 C730 0.951 . S
H712 C732 0.950 . S
H713 C733 0.950 . S
H714 C735 0.950 . S
H715 C738 0.950 . S
H716 C739 0.950 . S
H717 C741 0.950 . S
H718 C742 0.950 . S
H719 C743 0.951 . S
H720 C745 0.951 . S
H721 C747 0.950 . S
H722 C748 0.950 . S
H723 C750 0.950 . S
H724 C753 0.950 . S
H725 C754 0.950 1_556 S
H726 C756 0.950 . S
H727 C757 0.950 . S
C728 H710 0.951 . S
C728 C729 1.366 . S
C728 C730 1.388 . S
C729 C728 1.366 . S
C729 C733 1.385 . S
C730 H711 0.951 . S
C730 C728 1.388 . S
C730 C731 1.366 . S
C731 C730 1.366 . S
C731 C732 1.414 . S
C731 C734 1.499 . S
C732 H712 0.950 . S
C732 C731 1.414 . S
C732 C733 1.374 . S
C733 H713 0.950 . S
C733 C729 1.385 . S
C733 C732 1.374 . S
C734 C731 1.499 . S
C734 C735 1.373 . S
C734 C736 1.389 . S
C735 H714 0.950 . S
C735 C734 1.373 . S
C735 C751 1.377 . S
C736 C734 1.389 . S
C736 C737 1.524 . S
C736 C750 1.377 . S
C737 C736 1.524 . S
C737 C738 1.397 . S
C737 C742 1.363 . S
C738 H715 0.950 . S
C738 C737 1.397 . S
C738 C739 1.334 . S
C739 H716 0.950 . S
C739 C738 1.334 . S
C739 C740 1.287 . S
C740 C739 1.287 . S
C740 C741 1.524 . S
C740 H759 0.913 . S
C741 H717 0.950 . S
C741 C740 1.524 . S
C741 C742 1.415 . S
C742 H718 0.950 . S
C742 C737 1.363 . S
C742 C741 1.415 . S
C743 H719 0.951 . S
C743 C744 1.366 . S
C743 C745 1.388 1_556 S
C744 C743 1.366 . S
C744 C748 1.385 . S
C745 H720 0.951 . S
C745 C743 1.388 1_554 S
C745 C746 1.366 . S
C746 C745 1.366 . S
C746 C747 1.414 . S
C746 C749 1.499 . S
C747 H721 0.950 . S
C747 C746 1.414 . S
C747 C748 1.374 1_554 S
C748 H722 0.950 . S
C748 C744 1.385 . S
C748 C747 1.374 1_556 S
C749 C746 1.499 . S
C749 C750 1.373 . S
C749 C751 1.389 . S
C750 H723 0.950 . S
C750 C736 1.377 . S
C750 C749 1.373 . S
C751 C735 1.377 . S
C751 C749 1.389 . S
C751 C752 1.524 . S
C752 C751 1.524 . S
C752 C753 1.397 . S
C752 C757 1.363 . S
C753 H724 0.950 . S
C753 C752 1.397 . S
C753 C754 1.334 . S
C754 H725 0.950 1_554 S
C754 C753 1.334 . S
C754 C755 1.287 . S
C755 C754 1.287 . S
C755 C756 1.524 . S
C755 H758 0.999 . S
C756 H726 0.950 . S
C756 C755 1.524 . S
C756 C757 1.415 . S
C757 H727 0.950 . S
C757 C752 1.363 . S
C757 C756 1.415 . S
H758 C755 0.999 . S
H759 C740 0.913 . S
H760 C778 0.951 . S
H761 C780 0.951 . S
H762 C782 0.950 . S
H763 C783 0.950 . S
H764 C785 0.950 . S
H765 C788 0.950 . S
H766 C789 0.950 . S
H767 C791 0.950 . S
H768 C792 0.950 . S
H769 C793 0.951 . S
H770 C795 0.951 . S
H771 C797 0.950 . S
H772 C798 0.950 . S
H773 C800 0.950 . S
H774 C803 0.950 . S
H775 C804 0.950 . S
H776 C806 0.950 . S
H777 C807 0.950 . S
C778 H760 0.951 . S
C778 C779 1.366 . S
C778 C780 1.388 . S
C779 C778 1.366 . S
C779 C783 1.385 . S
C780 H761 0.951 . S
C780 C778 1.388 . S
C780 C781 1.366 . S
C781 C780 1.366 . S
C781 C782 1.414 . S
C781 C784 1.499 . S
C782 H762 0.950 . S
C782 C781 1.414 . S
C782 C783 1.374 . S
C783 H763 0.950 . S
C783 C779 1.385 . S
C783 C782 1.374 . S
C784 C781 1.499 . S
C784 C785 1.373 . S
C784 C786 1.389 . S
C785 H764 0.950 . S
C785 C784 1.373 . S
C785 C801 1.377 . S
C786 C784 1.389 . S
C786 C787 1.524 . S
C786 C800 1.377 . S
C787 C786 1.524 . S
C787 C788 1.397 . S
C787 C792 1.363 . S
C788 H765 0.950 . S
C788 C787 1.397 . S
C788 C789 1.334 . S
C789 H766 0.950 . S
C789 C788 1.334 . S
C789 C790 1.287 . S
C790 C789 1.287 . S
C790 C791 1.524 . S
C790 H809 0.913 . S
C791 H767 0.950 . S
C791 C790 1.524 . S
C791 C792 1.415 . S
C792 H768 0.950 . S
C792 C787 1.363 . S
C792 C791 1.415 . S
C793 H769 0.951 . S
C793 C794 1.366 1_556 S
C793 C795 1.388 1_556 S
C794 C793 1.366 1_554 S
C794 C798 1.385 . S
C795 H770 0.951 . S
C795 C793 1.388 1_554 S
C795 C796 1.366 . S
C796 C795 1.366 . S
C796 C797 1.414 . S
C796 C799 1.499 . S
C797 H771 0.950 . S
C797 C796 1.414 . S
C797 C798 1.374 . S
C798 H772 0.950 . S
C798 C794 1.385 . S
C798 C797 1.374 . S
C799 C796 1.499 . S
C799 C800 1.373 . S
C799 C801 1.389 . S
C800 H773 0.950 . S
C800 C786 1.377 . S
C800 C799 1.373 . S
C801 C785 1.377 . S
C801 C799 1.389 . S
C801 C802 1.524 . S
C802 C801 1.524 . S
C802 C803 1.397 . S
C802 C807 1.363 . S
C803 H774 0.950 . S
C803 C802 1.397 . S
C803 C804 1.334 . S
C804 H775 0.950 . S
C804 C803 1.334 . S
C804 C805 1.287 . S
C805 C804 1.287 . S
C805 C806 1.524 . S
C805 H808 0.999 . S
C806 H776 0.950 . S
C806 C805 1.524 . S
C806 C807 1.415 . S
C807 H777 0.950 . S
C807 C802 1.363 . S
C807 C806 1.415 . S
H808 C805 0.999 . S
H809 C790 0.913 . S
H810 C828 0.951 . S
H811 C830 0.951 . S
H812 C832 0.950 . S
H813 C833 0.950 . S
H814 C835 0.950 . S
H815 C838 0.950 . S
H816 C839 0.950 1_556 S
H817 C841 0.950 . S
H818 C842 0.950 . S
H819 C843 0.951 . S
H820 C845 0.951 . S
H821 C847 0.950 . S
H822 C848 0.950 . S
H823 C850 0.950 . S
H824 C853 0.950 . S
H825 C854 0.950 . S
H826 C856 0.950 . S
H827 C857 0.950 . S
C828 H810 0.951 . S
C828 C829 1.366 . S
C828 C830 1.388 . S
C829 C828 1.366 . S
C829 C833 1.385 . S
C830 H811 0.951 . S
C830 C828 1.388 . S
C830 C831 1.366 . S
C831 C830 1.366 . S
C831 C832 1.414 . S
C831 C834 1.499 . S
C832 H812 0.950 . S
C832 C831 1.414 . S
C832 C833 1.374 . S
C833 H813 0.950 . S
C833 C829 1.385 . S
C833 C832 1.374 . S
C834 C831 1.499 . S
C834 C835 1.373 . S
C834 C836 1.389 . S
C835 H814 0.950 . S
C835 C834 1.373 . S
C835 C851 1.377 . S
C836 C834 1.389 . S
C836 C837 1.524 . S
C836 C850 1.377 . S
C837 C836 1.524 . S
C837 C838 1.397 . S
C837 C842 1.363 . S
C838 H815 0.950 . S
C838 C837 1.397 . S
C838 C839 1.334 . S
C839 H816 0.950 1_554 S
C839 C838 1.334 . S
C839 C840 1.290 1_554 S
C840 C839 1.290 1_556 S
C840 C841 1.512 1_556 S
C840 H859 0.922 . S
C841 H817 0.950 . S
C841 C840 1.512 1_554 S
C841 C842 1.415 . S
C842 H818 0.950 . S
C842 C837 1.363 . S
C842 C841 1.415 . S
C843 H819 0.951 . S
C843 C844 1.366 . S
C843 C845 1.388 . S
C844 C843 1.366 . S
C844 C848 1.385 . S
C845 H820 0.951 . S
C845 C843 1.388 . S
C845 C846 1.366 . S
C846 C845 1.366 . S
C846 C847 1.414 . S
C846 C849 1.499 . S
C847 H821 0.950 . S
C847 C846 1.414 . S
C847 C848 1.374 . S
C848 H822 0.950 . S
C848 C844 1.385 . S
C848 C847 1.374 . S
C849 C846 1.499 . S
C849 C850 1.373 . S
C849 C851 1.389 . S
C850 H823 0.950 . S
C850 C836 1.377 . S
C850 C849 1.373 . S
C851 C835 1.377 . S
C851 C849 1.389 . S
C851 C852 1.524 . S
C852 C851 1.524 . S
C852 C853 1.397 . S
C852 C857 1.363 . S
C853 H824 0.950 . S
C853 C852 1.397 . S
C853 C854 1.334 . S
C854 H825 0.950 . S
C854 C853 1.334 . S
C854 C855 1.287 . S
C855 C854 1.287 . S
C855 C856 1.524 . S
C855 H858 0.999 . S
C856 H826 0.950 . S
C856 C855 1.524 . S
C856 C857 1.415 . S
C857 H827 0.950 . S
C857 C852 1.363 . S
C857 C856 1.415 . S
H858 C855 0.999 . S
H859 C840 0.922 . S
H860 C878 0.951 . S
H861 C880 0.951 . S
H862 C882 0.950 . S
H863 C883 0.950 . S
H864 C885 0.950 . S
H865 C888 0.950 . S
H866 C889 0.950 . S
H867 C891 0.950 . S
H868 C892 0.950 . S
H869 C893 0.951 . S
H870 C895 0.951 . S
H871 C897 0.950 . S
H872 C898 0.950 . S
H873 C900 0.950 . S
H874 C903 0.950 . S
H875 C904 0.950 . S
H876 C906 0.950 . S
H877 C907 0.950 . S
C878 H860 0.951 . S
C878 C879 1.366 . S
C878 C880 1.388 . S
C879 C878 1.366 . S
C879 C883 1.385 . S
C880 H861 0.951 . S
C880 C878 1.388 . S
C880 C881 1.366 . S
C881 C880 1.366 . S
C881 C882 1.414 . S
C881 C884 1.499 . S
C882 H862 0.950 . S
C882 C881 1.414 . S
C882 C883 1.374 . S
C883 H863 0.950 . S
C883 C879 1.385 . S
C883 C882 1.374 . S
C884 C881 1.499 . S
C884 C885 1.373 . S
C884 C886 1.389 . S
C885 H864 0.950 . S
C885 C884 1.373 . S
C885 C901 1.377 . S
C886 C884 1.389 . S
C886 C887 1.524 . S
C886 C900 1.377 . S
C887 C886 1.524 . S
C887 C888 1.397 . S
C887 C892 1.363 . S
C888 H865 0.950 . S
C888 C887 1.397 . S
C888 C889 1.334 . S
C889 H866 0.950 . S
C889 C888 1.334 . S
C889 C890 1.287 . S
C890 C889 1.287 . S
C890 C891 1.524 . S
C890 H909 0.913 . S
C891 H867 0.950 . S
C891 C890 1.524 . S
C891 C892 1.415 . S
C892 H868 0.950 . S
C892 C887 1.363 . S
C892 C891 1.415 . S
C893 H869 0.951 . S
C893 C894 1.366 . S
C893 C895 1.388 . S
C894 C893 1.366 . S
C894 C898 1.385 . S
C895 H870 0.951 . S
C895 C893 1.388 . S
C895 C896 1.366 . S
C896 C895 1.366 . S
C896 C897 1.414 . S
C896 C899 1.499 . S
C897 H871 0.950 . S
C897 C896 1.414 . S
C897 C898 1.374 . S
C898 H872 0.950 . S
C898 C894 1.385 . S
C898 C897 1.374 . S
C899 C896 1.499 . S
C899 C900 1.373 . S
C899 C901 1.389 . S
C900 H873 0.950 . S
C900 C886 1.377 . S
C900 C899 1.373 . S
C901 C885 1.377 . S
C901 C899 1.389 . S
C901 C902 1.524 . S
C902 C901 1.524 . S
C902 C903 1.397 . S
C902 C907 1.363 . S
C903 H874 0.950 . S
C903 C902 1.397 . S
C903 C904 1.334 . S
C904 H875 0.950 . S
C904 C903 1.334 . S
C904 C905 1.287 . S
C905 C904 1.287 . S
C905 C906 1.524 . S
C905 H908 0.999 . S
C906 H876 0.950 . S
C906 C905 1.524 . S
C906 C907 1.415 . S
C907 H877 0.950 . S
C907 C902 1.363 . S
C907 C906 1.415 . S
H908 C905 0.999 . S
H909 C890 0.913 . S
H910 C928 0.951 . S
H911 C930 0.951 . S
H912 C932 0.950 . S
H913 C933 0.950 . S
H914 C935 0.950 . S
H915 C938 0.950 . S
H916 C939 0.950 . S
H917 C941 0.950 . S
H918 C942 0.950 . S
H919 C943 0.951 . S
H920 C945 0.951 . S
H921 C947 0.950 . S
H922 C948 0.950 . S
H923 C950 0.950 . S
H924 C953 0.950 . S
H925 C954 0.950 . S
H926 C956 0.950 1_556 S
H927 C957 0.950 . S
C928 H910 0.951 . S
C928 C929 1.366 . S
C928 C930 1.388 . S
C929 C928 1.366 . S
C929 C933 1.385 . S
C930 H911 0.951 . S
C930 C928 1.388 . S
C930 C931 1.365 1_545 S
C931 C930 1.365 1_565 S
C931 C932 1.414 . S
C931 C934 1.499 . S
C932 H912 0.950 . S
C932 C931 1.414 . S
C932 C933 1.374 1_565 S
C933 H913 0.950 . S
C933 C929 1.385 . S
C933 C932 1.374 1_545 S
C934 C931 1.499 . S
C934 C935 1.373 . S
C934 C936 1.389 . S
C935 H914 0.950 . S
C935 C934 1.373 . S
C935 C951 1.377 . S
C936 C934 1.389 . S
C936 C937 1.524 . S
C936 C950 1.377 . S
C937 C936 1.524 . S
C937 C938 1.397 . S
C937 C942 1.363 . S
C938 H915 0.950 . S
C938 C937 1.397 . S
C938 C939 1.334 . S
C939 H916 0.950 . S
C939 C938 1.334 . S
C939 C940 1.287 . S
C940 C939 1.287 . S
C940 C941 1.524 . S
C940 H959 0.913 . S
C941 H917 0.950 . S
C941 C940 1.524 . S
C941 C942 1.415 . S
C942 H918 0.950 . S
C942 C937 1.363 . S
C942 C941 1.415 . S
C943 H919 0.951 . S
C943 C944 1.366 . S
C943 C945 1.388 . S
C944 C943 1.366 . S
C944 C948 1.385 . S
C945 H920 0.951 . S
C945 C943 1.388 . S
C945 C946 1.366 . S
C946 C945 1.366 . S
C946 C947 1.414 . S
C946 C949 1.499 . S
C947 H921 0.950 . S
C947 C946 1.414 . S
C947 C948 1.374 . S
C948 H922 0.950 . S
C948 C944 1.385 . S
C948 C947 1.374 . S
C949 C946 1.499 . S
C949 C950 1.373 . S
C949 C951 1.389 . S
C950 H923 0.950 . S
C950 C936 1.377 . S
C950 C949 1.373 . S
C951 C935 1.377 . S
C951 C949 1.389 . S
C951 C952 1.524 . S
C952 C951 1.524 . S
C952 C953 1.397 . S
C952 C957 1.363 . S
C953 H924 0.950 . S
C953 C952 1.397 . S
C953 C954 1.334 . S
C954 H925 0.950 . S
C954 C953 1.334 . S
C954 C955 1.287 . S
C955 C954 1.287 . S
C955 C956 1.524 . S
C955 H958 0.999 . S
C956 H926 0.950 1_554 S
C956 C955 1.524 . S
C956 C957 1.415 . S
C957 H927 0.950 . S
C957 C952 1.363 . S
C957 C956 1.415 . S
H958 C955 0.999 . S
H959 C940 0.913 . S
H960 C978 0.951 . S
H961 C980 0.951 . S
H962 C982 0.950 1_556 S
H963 C983 0.950 . S
H964 C985 0.950 . S
H965 C988 0.950 1_556 S
H966 C989 0.950 . S
H967 C991 0.950 . S
H968 C992 0.950 . S
H969 C993 0.951 . S
H970 C995 0.951 . S
H971 C997 0.950 . S
H972 C998 0.950 . S
H973 C1000 0.950 . S
H974 C1003 0.950 . S
H975 C1004 0.950 . S
H976 C1006 0.950 . S
H977 C1007 0.950 . S
C978 H960 0.951 . S
C978 C979 1.366 . S
C978 C980 1.388 . S
C979 C978 1.366 . S
C979 C983 1.385 . S
C980 H961 0.951 . S
C980 C978 1.388 . S
C980 C981 1.366 . S
C981 C980 1.366 . S
C981 C982 1.414 . S
C981 C984 1.499 1_554 S
C982 H962 0.950 1_554 S
C982 C981 1.414 . S
C982 C983 1.374 . S
C983 H963 0.950 . S
C983 C979 1.385 . S
C983 C982 1.374 . S
C984 C981 1.499 1_556 S
C984 C985 1.373 . S
C984 C986 1.389 . S
C985 H964 0.950 . S
C985 C984 1.373 . S
C985 C1001 1.377 . S
C986 C984 1.389 . S
C986 C987 1.524 1_556 S
C986 C1000 1.377 . S
C987 C986 1.524 1_554 S
C987 C988 1.397 . S
C987 C992 1.363 . S
C988 H965 0.950 1_554 S
C988 C987 1.397 . S
C988 C989 1.334 . S
C989 H966 0.950 . S
C989 C988 1.334 . S
C989 C990 1.287 . S
C990 C989 1.287 . S
C990 C991 1.524 . S
C990 H1009 0.913 . S
C991 H967 0.950 . S
C991 C990 1.524 . S
C991 C992 1.415 . S
C992 H968 0.950 . S
C992 C987 1.363 . S
C992 C991 1.415 . S
C993 H969 0.951 . S
C993 C994 1.366 . S
C993 C995 1.388 . S
C994 C993 1.366 . S
C994 C998 1.385 . S
C995 H970 0.951 . S
C995 C993 1.388 . S
C995 C996 1.366 . S
C996 C995 1.366 . S
C996 C997 1.414 . S
C996 C999 1.499 . S
C997 H971 0.950 . S
C997 C996 1.414 . S
C997 C998 1.374 . S
C998 H972 0.950 . S
C998 C994 1.385 . S
C998 C997 1.374 . S
C999 C996 1.499 . S
C999 C1000 1.373 . S
C999 C1001 1.389 . S
C1000 H973 0.950 . S
C1000 C986 1.377 . S
C1000 C999 1.373 . S
C1001 C985 1.377 . S
C1001 C999 1.389 . S
C1001 C1002 1.524 . S
C1002 C1001 1.524 . S
C1002 C1003 1.397 . S
C1002 C1007 1.363 . S
C1003 H974 0.950 . S
C1003 C1002 1.397 . S
C1003 C1004 1.334 . S
C1004 H975 0.950 . S
C1004 C1003 1.334 . S
C1004 C1005 1.287 . S
C1005 C1004 1.287 . S
C1005 C1006 1.524 . S
C1005 H1008 0.999 . S
C1006 H976 0.950 . S
C1006 C1005 1.524 . S
C1006 C1007 1.415 . S
C1007 H977 0.950 . S
C1007 C1002 1.363 . S
C1007 C1006 1.415 . S
H1008 C1005 0.999 . S
H1009 C990 0.913 . S
H1010 C1028 0.951 . S
H1011 C1030 0.951 . S
H1012 C1032 0.950 . S
H1013 C1033 0.950 . S
H1014 C1035 0.950 . S
H1015 C1038 0.950 . S
H1016 C1039 0.950 . S
H1017 C1041 0.950 . S
H1018 C1042 0.950 . S
H1019 C1043 0.951 . S
H1020 C1045 0.951 . S
H1021 C1047 0.950 . S
H1022 C1048 0.950 . S
H1023 C1050 0.950 . S
H1024 C1053 0.950 1_556 S
H1025 C1054 0.950 . S
H1026 C1056 0.950 . S
H1027 C1057 0.950 . S
C1028 H1010 0.951 . S
C1028 C1029 1.366 . S
C1028 C1030 1.388 . S
C1029 C1028 1.366 . S
C1029 C1033 1.385 . S
C1030 H1011 0.951 . S
C1030 C1028 1.388 . S
C1030 C1031 1.366 . S
C1031 C1030 1.366 . S
C1031 C1032 1.414 . S
C1031 C1034 1.499 . S
C1032 H1012 0.950 . S
C1032 C1031 1.414 . S
C1032 C1033 1.374 . S
C1033 H1013 0.950 . S
C1033 C1029 1.385 . S
C1033 C1032 1.374 . S
C1034 C1031 1.499 . S
C1034 C1035 1.373 . S
C1034 C1036 1.389 . S
C1035 H1014 0.950 . S
C1035 C1034 1.373 . S
C1035 C1051 1.377 . S
C1036 C1034 1.389 . S
C1036 C1037 1.524 . S
C1036 C1050 1.377 . S
C1037 C1036 1.524 . S
C1037 C1038 1.397 . S
C1037 C1042 1.363 . S
C1038 H1015 0.950 . S
C1038 C1037 1.397 . S
C1038 C1039 1.334 . S
C1039 H1016 0.950 . S
C1039 C1038 1.334 . S
C1039 C1040 1.287 . S
C1040 C1039 1.287 . S
C1040 C1041 1.524 . S
C1040 H1059 0.913 . S
C1041 H1017 0.950 . S
C1041 C1040 1.524 . S
C1041 C1042 1.415 . S
C1042 H1018 0.950 . S
C1042 C1037 1.363 . S
C1042 C1041 1.415 . S
C1043 H1019 0.951 . S
C1043 C1044 1.366 . S
C1043 C1045 1.388 . S
C1044 C1043 1.366 . S
C1044 C1048 1.385 1_554 S
C1045 H1020 0.951 . S
C1045 C1043 1.388 . S
C1045 C1046 1.366 1_454 S
C1046 C1045 1.366 1_656 S
C1046 C1047 1.414 . S
C1046 C1049 1.499 . S
C1047 H1021 0.950 . S
C1047 C1046 1.414 . S
C1047 C1048 1.374 1_655 S
C1048 H1022 0.950 . S
C1048 C1044 1.385 1_556 S
C1048 C1047 1.374 1_455 S
C1049 C1046 1.499 . S
C1049 C1050 1.373 . S
C1049 C1051 1.389 . S
C1050 H1023 0.950 . S
C1050 C1036 1.377 . S
C1050 C1049 1.373 . S
C1051 C1035 1.377 . S
C1051 C1049 1.389 . S
C1051 C1052 1.524 1_556 S
C1052 C1051 1.524 1_554 S
C1052 C1053 1.397 . S
C1052 C1057 1.363 . S
C1053 H1024 0.950 1_554 S
C1053 C1052 1.397 . S
C1053 C1054 1.334 . S
C1054 H1025 0.950 . S
C1054 C1053 1.334 . S
C1054 C1055 1.287 . S
C1055 C1054 1.287 . S
C1055 C1056 1.524 . S
C1055 H1058 0.999 . S
C1056 H1026 0.950 . S
C1056 C1055 1.524 . S
C1056 C1057 1.415 . S
C1057 H1027 0.950 . S
C1057 C1052 1.363 . S
C1057 C1056 1.415 . S
H1058 C1055 0.999 . S
H1059 C1040 0.913 . S
H1060 C1078 0.951 . S
H1061 C1080 0.951 . S
H1062 C1082 0.950 . S
H1063 C1083 0.950 . S
H1064 C1085 0.950 . S
H1065 C1088 0.950 . S
H1066 C1089 0.950 . S
H1067 C1091 0.950 . S
H1068 C1092 0.950 . S
H1069 C1093 0.951 . S
H1070 C1095 0.951 1_556 S
H1071 C1097 0.950 . S
H1072 C1098 0.950 . S
H1073 C1100 0.950 . S
H1074 C1103 0.950 . S
H1075 C1104 0.950 . S
H1076 C1106 0.950 . S
H1077 C1107 0.950 . S
C1078 H1060 0.951 . S
C1078 C1079 1.366 . S
C1078 C1080 1.388 . S
C1079 C1078 1.366 . S
C1079 C1083 1.385 . S
C1080 H1061 0.951 . S
C1080 C1078 1.388 . S
C1080 C1081 1.366 . S
C1081 C1080 1.366 . S
C1081 C1082 1.414 . S
C1081 C1084 1.499 . S
C1082 H1062 0.950 . S
C1082 C1081 1.414 . S
C1082 C1083 1.374 . S
C1083 H1063 0.950 . S
C1083 C1079 1.385 . S
C1083 C1082 1.374 . S
C1084 C1081 1.499 . S
C1084 C1085 1.373 . S
C1084 C1086 1.389 . S
C1085 H1064 0.950 . S
C1085 C1084 1.373 . S
C1085 C1101 1.377 . S
C1086 C1084 1.389 . S
C1086 C1087 1.524 . S
C1086 C1100 1.377 . S
C1087 C1086 1.524 . S
C1087 C1088 1.397 . S
C1087 C1092 1.363 . S
C1088 H1065 0.950 . S
C1088 C1087 1.397 . S
C1088 C1089 1.334 . S
C1089 H1066 0.950 . S
C1089 C1088 1.334 . S
C1089 C1090 1.287 . S
C1090 C1089 1.287 . S
C1090 C1091 1.524 . S
C1090 H1109 0.913 . S
C1091 H1067 0.950 . S
C1091 C1090 1.524 . S
C1091 C1092 1.415 . S
C1092 H1068 0.950 . S
C1092 C1087 1.363 . S
C1092 C1091 1.415 . S
C1093 H1069 0.951 . S
C1093 C1094 1.366 . S
C1093 C1095 1.388 . S
C1094 C1093 1.366 . S
C1094 C1098 1.385 . S
C1095 H1070 0.951 1_554 S
C1095 C1093 1.388 . S
C1095 C1096 1.366 . S
C1096 C1095 1.366 . S
C1096 C1097 1.414 . S
C1096 C1099 1.499 1_554 S
C1097 H1071 0.950 . S
C1097 C1096 1.414 . S
C1097 C1098 1.374 . S
C1098 H1072 0.950 . S
C1098 C1094 1.385 . S
C1098 C1097 1.374 . S
C1099 C1096 1.499 1_556 S
C1099 C1100 1.373 . S
C1099 C1101 1.389 . S
C1100 H1073 0.950 . S
C1100 C1086 1.377 . S
C1100 C1099 1.373 . S
C1101 C1085 1.377 . S
C1101 C1099 1.389 . S
C1101 C1102 1.524 . S
C1102 C1101 1.524 . S
C1102 C1103 1.397 1_556 S
C1102 C1107 1.363 . S
C1103 H1074 0.950 . S
C1103 C1102 1.397 1_554 S
C1103 C1104 1.334 . S
C1104 H1075 0.950 . S
C1104 C1103 1.334 . S
C1104 C1105 1.287 . S
C1105 C1104 1.287 . S
C1105 C1106 1.524 1_554 S
C1105 H1108 0.999 . S
C1106 H1076 0.950 . S
C1106 C1105 1.524 1_556 S
C1106 C1107 1.415 . S
C1107 H1077 0.950 . S
C1107 C1102 1.363 . S
C1107 C1106 1.415 . S
H1108 C1105 0.999 . S
H1109 C1090 0.913 . S
H1110 C1128 0.951 . S
H1111 C1130 0.951 . S
H1112 C1132 0.950 . S
H1113 C1133 0.950 . S
H1114 C1135 0.950 . S
H1115 C1138 0.950 . S
H1116 C1139 0.950 . S
H1117 C1141 0.950 . S
H1118 C1142 0.950 . S
H1119 C1143 0.951 . S
H1120 C1145 0.951 . S
H1121 C1147 0.950 1_554 S
H1122 C1148 0.950 1_455 S
H1123 C1150 0.950 . S
H1124 C1153 0.950 . S
H1125 C1154 0.950 1_554 S
H1126 C1156 0.950 . S
H1127 C1157 0.950 . S
C1128 H1110 0.951 . S
C1128 C1129 1.366 . S
C1128 C1130 1.388 . S
C1129 C1128 1.366 . S
C1129 C1133 1.385 . S
C1130 H1111 0.951 . S
C1130 C1128 1.388 . S
C1130 C1131 1.366 . S
C1131 C1130 1.366 . S
C1131 C1132 1.414 . S
C1131 C1134 1.499 . S
C1132 H1112 0.950 . S
C1132 C1131 1.414 . S
C1132 C1133 1.374 . S
C1133 H1113 0.950 . S
C1133 C1129 1.385 . S
C1133 C1132 1.374 . S
C1134 C1131 1.499 . S
C1134 C1135 1.373 . S
C1134 C1136 1.389 . S
C1135 H1114 0.950 . S
C1135 C1134 1.373 . S
C1135 C1151 1.377 . S
C1136 C1134 1.389 . S
C1136 C1137 1.524 . S
C1136 C1150 1.377 . S
C1137 C1136 1.524 . S
C1137 C1138 1.397 . S
C1137 C1142 1.363 . S
C1138 H1115 0.950 . S
C1138 C1137 1.397 . S
C1138 C1139 1.334 . S
C1139 H1116 0.950 . S
C1139 C1138 1.334 . S
C1139 C1140 1.287 1_655 S
C1140 C1139 1.287 1_455 S
C1140 C1141 1.524 . S
C1140 H1159 0.913 . S
C1141 H1117 0.950 . S
C1141 C1140 1.524 . S
C1141 C1142 1.415 1_455 S
C1142 H1118 0.950 . S
C1142 C1137 1.363 . S
C1142 C1141 1.415 1_655 S
C1143 H1119 0.951 . S
C1143 C1144 1.366 1_556 S
C1143 C1145 1.388 . S
C1144 C1143 1.366 1_554 S
C1144 C1148 1.385 . S
C1145 H1120 0.951 . S
C1145 C1143 1.388 . S
C1145 C1146 1.366 . S
C1146 C1145 1.366 . S
C1146 C1147 1.414 . S
C1146 C1149 1.499 . S
C1147 H1121 0.950 1_556 S
C1147 C1146 1.414 . S
C1147 C1148 1.374 1_556 S
C1148 H1122 0.950 1_655 S
C1148 C1144 1.385 . S
C1148 C1147 1.374 1_554 S
C1149 C1146 1.499 . S
C1149 C1150 1.373 . S
C1149 C1151 1.389 . S
C1150 H1123 0.950 . S
C1150 C1136 1.377 . S
C1150 C1149 1.373 . S
C1151 C1135 1.377 . S
C1151 C1149 1.389 . S
C1151 C1152 1.524 . S
C1152 C1151 1.524 . S
C1152 C1153 1.397 . S
C1152 C1157 1.363 . S
C1153 H1124 0.950 . S
C1153 C1152 1.397 . S
C1153 C1154 1.334 . S
C1154 H1125 0.950 1_556 S
C1154 C1153 1.334 . S
C1154 C1155 1.287 . S
C1155 C1154 1.287 . S
C1155 C1156 1.524 . S
C1155 H1158 0.999 . S
C1156 H1126 0.950 . S
C1156 C1155 1.524 . S
C1156 C1157 1.415 . S
C1157 H1127 0.950 . S
C1157 C1152 1.363 . S
C1157 C1156 1.415 . S
H1158 C1155 0.999 . S
H1159 C1140 0.913 . S
H1160 C1178 0.951 1_556 S
H1161 C1180 0.951 . S
H1162 C1182 0.950 . S
H1163 C1183 0.950 . S
H1164 C1185 0.950 1_554 S
H1165 C1188 0.950 . S
H1166 C1189 0.950 . S
H1167 C1191 0.950 . S
H1168 C1192 0.950 . S
H1169 C1193 0.951 . S
H1170 C1195 0.951 . S
H1171 C1197 0.950 . S
H1172 C1198 0.950 . S
H1173 C1200 0.950 . S
H1174 C1203 0.950 . S
H1175 C1204 0.950 . S
H1176 C1206 0.950 . S
H1177 C1207 0.950 . S
C1178 H1160 0.951 1_554 S
C1178 C1179 1.366 . S
C1178 C1180 1.388 1_554 S
C1179 C1178 1.366 . S
C1179 C1183 1.385 . S
C1180 H1161 0.951 . S
C1180 C1178 1.388 1_556 S
C1180 C1181 1.366 . S
C1181 C1180 1.366 . S
C1181 C1182 1.414 1_556 S
C1181 C1184 1.499 . S
C1182 H1162 0.950 . S
C1182 C1181 1.414 1_554 S
C1182 C1183 1.374 . S
C1183 H1163 0.950 . S
C1183 C1179 1.385 . S
C1183 C1182 1.374 . S
C1184 C1181 1.499 . S
C1184 C1185 1.373 . S
C1184 C1186 1.389 . S
C1185 H1164 0.950 1_556 S
C1185 C1184 1.373 . S
C1185 C1201 1.377 . S
C1186 C1184 1.389 . S
C1186 C1187 1.524 . S
C1186 C1200 1.377 . S
C1187 C1186 1.524 . S
C1187 C1188 1.397 . S
C1187 C1192 1.363 . S
C1188 H1165 0.950 . S
C1188 C1187 1.397 . S
C1188 C1189 1.334 . S
C1189 H1166 0.950 . S
C1189 C1188 1.334 . S
C1189 C1190 1.287 . S
C1190 C1189 1.287 . S
C1190 C1191 1.524 . S
C1190 H1209 0.913 . S
C1191 H1167 0.950 . S
C1191 C1190 1.524 . S
C1191 C1192 1.415 . S
C1192 H1168 0.950 . S
C1192 C1187 1.363 . S
C1192 C1191 1.415 . S
C1193 H1169 0.951 . S
C1193 C1194 1.366 . S
C1193 C1195 1.388 . S
C1194 C1193 1.366 . S
C1194 C1198 1.385 . S
C1195 H1170 0.951 . S
C1195 C1193 1.388 . S
C1195 C1196 1.366 . S
C1196 C1195 1.366 . S
C1196 C1197 1.414 . S
C1196 C1199 1.499 . S
C1197 H1171 0.950 . S
C1197 C1196 1.414 . S
C1197 C1198 1.374 . S
C1198 H1172 0.950 . S
C1198 C1194 1.385 . S
C1198 C1197 1.374 . S
C1199 C1196 1.499 . S
C1199 C1200 1.373 . S
C1199 C1201 1.389 . S
C1200 H1173 0.950 . S
C1200 C1186 1.377 . S
C1200 C1199 1.373 . S
C1201 C1185 1.377 . S
C1201 C1199 1.389 . S
C1201 C1202 1.524 . S
C1202 C1201 1.524 . S
C1202 C1203 1.397 . S
C1202 C1207 1.363 1_556 S
C1203 H1174 0.950 . S
C1203 C1202 1.397 . S
C1203 C1204 1.334 . S
C1204 H1175 0.950 . S
C1204 C1203 1.334 . S
C1204 C1205 1.287 1_556 S
C1205 C1204 1.287 1_554 S
C1205 C1206 1.524 . S
C1205 H1208 0.999 . S
C1206 H1176 0.950 . S
C1206 C1205 1.524 . S
C1206 C1207 1.415 . S
C1207 H1177 0.950 . S
C1207 C1202 1.363 1_554 S
C1207 C1206 1.415 . S
H1208 C1205 0.999 . S
H1209 C1190 0.913 . S
H1210 C1228 0.951 . S
H1211 C1230 0.951 . S
H1212 C1232 0.950 . S
H1213 C1233 0.950 . S
H1214 C1235 0.950 . S
H1215 C1238 0.950 . S
H1216 C1239 0.950 . S
H1217 C1241 0.950 . S
H1218 C1242 0.950 1_554 S
H1219 C1243 0.951 . S
H1220 C1245 0.951 1_556 S
H1221 C1247 0.950 . S
H1222 C1248 0.950 . S
H1223 C1250 0.950 1_554 S
H1224 C1253 0.950 . S
H1225 C1254 0.950 . S
H1226 C1256 0.950 . S
H1227 C1257 0.950 . S
C1228 H1210 0.951 . S
C1228 C1229 1.366 . S
C1228 C1230 1.388 . S
C1229 C1228 1.366 . S
C1229 C1233 1.385 . S
C1230 H1211 0.951 . S
C1230 C1228 1.388 . S
C1230 C1231 1.366 . S
C1231 C1230 1.366 . S
C1231 C1232 1.414 . S
C1231 C1234 1.499 . S
C1232 H1212 0.950 . S
C1232 C1231 1.414 . S
C1232 C1233 1.374 . S
C1233 H1213 0.950 . S
C1233 C1229 1.385 . S
C1233 C1232 1.374 . S
C1234 C1231 1.499 . S
C1234 C1235 1.373 . S
C1234 C1236 1.389 . S
C1235 H1214 0.950 . S
C1235 C1234 1.373 . S
C1235 C1251 1.377 . S
C1236 C1234 1.389 . S
C1236 C1237 1.524 . S
C1236 C1250 1.377 . S
C1237 C1236 1.524 . S
C1237 C1238 1.397 . S
C1237 C1242 1.363 . S
C1238 H1215 0.950 . S
C1238 C1237 1.397 . S
C1238 C1239 1.334 . S
C1239 H1216 0.950 . S
C1239 C1238 1.334 . S
C1239 C1240 1.287 . S
C1240 C1239 1.287 . S
C1240 C1241 1.524 . S
C1240 H1259 0.913 . S
C1241 H1217 0.950 . S
C1241 C1240 1.524 . S
C1241 C1242 1.415 . S
C1242 H1218 0.950 1_556 S
C1242 C1237 1.363 . S
C1242 C1241 1.415 . S
C1243 H1219 0.951 . S
C1243 C1244 1.366 . S
C1243 C1245 1.388 . S
C1244 C1243 1.366 . S
C1244 C1248 1.385 . S
C1245 H1220 0.951 1_554 S
C1245 C1243 1.388 . S
C1245 C1246 1.366 . S
C1246 C1245 1.366 . S
C1246 C1247 1.414 . S
C1246 C1249 1.499 . S
C1247 H1221 0.950 . S
C1247 C1246 1.414 . S
C1247 C1248 1.374 . S
C1248 H1222 0.950 . S
C1248 C1244 1.385 . S
C1248 C1247 1.374 . S
C1249 C1246 1.499 . S
C1249 C1250 1.373 1_554 S
C1249 C1251 1.389 1_554 S
C1250 H1223 0.950 1_556 S
C1250 C1236 1.377 . S
C1250 C1249 1.373 1_556 S
C1251 C1235 1.377 . S
C1251 C1249 1.389 1_556 S
C1251 C1252 1.524 . S
C1252 C1251 1.524 . S
C1252 C1253 1.397 1_556 S
C1252 C1257 1.363 . S
C1253 H1224 0.950 . S
C1253 C1252 1.397 1_554 S
C1253 C1254 1.334 . S
C1254 H1225 0.950 . S
C1254 C1253 1.334 . S
C1254 C1255 1.287 . S
C1255 C1254 1.287 . S
C1255 C1256 1.524 1_554 S
C1255 H1258 0.999 . S
C1256 H1226 0.950 . S
C1256 C1255 1.524 1_556 S
C1256 C1257 1.415 . S
C1257 H1227 0.950 . S
C1257 C1252 1.363 . S
C1257 C1256 1.415 . S
H1258 C1255 0.999 . S
H1259 C1240 0.913 . S
H1260 C1278 0.951 . S
H1261 C1280 0.951 . S
H1262 C1282 0.950 . S
H1263 C1283 0.950 . S
H1264 C1285 0.950 . S
H1265 C1288 0.950 . S
H1266 C1289 0.950 . S
H1267 C1291 0.950 . S
H1268 C1292 0.950 . S
H1269 C1293 0.951 . S
H1270 C1295 0.951 . S
H1271 C1297 0.950 1_545 S
H1272 C1298 0.950 . S
H1273 C1300 0.950 . S
H1274 C1303 0.950 . S
H1275 C1304 0.950 . S
H1276 C1306 0.950 . S
H1277 C1307 0.950 . S
C1278 H1260 0.951 . S
C1278 C1279 1.366 . S
C1278 C1280 1.388 . S
C1279 C1278 1.366 . S
C1279 C1283 1.385 . S
C1280 H1261 0.951 . S
C1280 C1278 1.388 . S
C1280 C1281 1.366 . S
C1281 C1280 1.366 . S
C1281 C1282 1.414 . S
C1281 C1284 1.499 . S
C1282 H1262 0.950 . S
C1282 C1281 1.414 . S
C1282 C1283 1.374 . S
C1283 H1263 0.950 . S
C1283 C1279 1.385 . S
C1283 C1282 1.374 . S
C1284 C1281 1.499 . S
C1284 C1285 1.373 . S
C1284 C1286 1.389 . S
C1285 H1264 0.950 . S
C1285 C1284 1.373 . S
C1285 C1301 1.377 1_545 S
C1286 C1284 1.389 . S
C1286 C1287 1.524 . S
C1286 C1300 1.377 . S
C1287 C1286 1.524 . S
C1287 C1288 1.397 . S
C1287 C1292 1.363 . S
C1288 H1265 0.950 . S
C1288 C1287 1.397 . S
C1288 C1289 1.334 . S
C1289 H1266 0.950 . S
C1289 C1288 1.334 . S
C1289 C1290 1.287 . S
C1290 C1289 1.287 . S
C1290 C1291 1.524 . S
C1290 H1309 0.913 . S
C1291 H1267 0.950 . S
C1291 C1290 1.524 . S
C1291 C1292 1.415 . S
C1292 H1268 0.950 . S
C1292 C1287 1.363 . S
C1292 C1291 1.415 . S
C1293 H1269 0.951 . S
C1293 C1294 1.366 . S
C1293 C1295 1.388 . S
C1294 C1293 1.366 . S
C1294 C1298 1.385 . S
C1295 H1270 0.951 . S
C1295 C1293 1.388 . S
C1295 C1296 1.366 . S
C1296 C1295 1.366 . S
C1296 C1297 1.414 . S
C1296 C1299 1.505 1_565 S
C1297 H1271 0.950 1_565 S
C1297 C1296 1.414 . S
C1297 C1298 1.374 . S
C1298 H1272 0.950 . S
C1298 C1294 1.385 . S
C1298 C1297 1.374 . S
C1299 C1296 1.505 1_545 S
C1299 C1300 1.368 . S
C1299 C1301 1.388 1_545 S
C1300 H1273 0.950 . S
C1300 C1286 1.377 . S
C1300 C1299 1.368 . S
C1301 C1285 1.377 1_565 S
C1301 C1299 1.388 1_565 S
C1301 C1302 1.524 . S
C1302 C1301 1.524 . S
C1302 C1303 1.397 . S
C1302 C1307 1.363 . S
C1303 H1274 0.950 . S
C1303 C1302 1.397 . S
C1303 C1304 1.334 . S
C1304 H1275 0.950 . S
C1304 C1303 1.334 . S
C1304 C1305 1.287 . S
C1305 C1304 1.287 . S
C1305 C1306 1.524 . S
C1305 H1308 0.999 . S
C1306 H1276 0.950 . S
C1306 C1305 1.524 . S
C1306 C1307 1.415 . S
C1307 H1277 0.950 . S
C1307 C1302 1.363 . S
C1307 C1306 1.415 . S
H1308 C1305 0.999 . S
H1309 C1290 0.913 . S
H1310 C1328 0.951 . S
H1311 C1330 0.951 . S
H1312 C1332 0.950 . S
H1313 C1333 0.950 . S
H1314 C1335 0.950 . S
H1315 C1338 0.950 . S
H1316 C1339 0.950 . S
H1317 C1341 0.950 1_556 S
H1318 C1342 0.950 . S
H1319 C1343 0.951 . S
H1320 C1345 0.951 . S
H1321 C1347 0.950 . S
H1322 C1348 0.950 . S
H1323 C1350 0.950 . S
H1324 C1353 0.950 . S
H1325 C1354 0.950 . S
H1326 C1356 0.950 . S
H1327 C1357 0.950 . S
C1328 H1310 0.951 . S
C1328 C1329 1.366 . S
C1328 C1330 1.388 . S
C1329 C1328 1.366 . S
C1329 C1333 1.385 . S
C1330 H1311 0.951 . S
C1330 C1328 1.388 . S
C1330 C1331 1.366 . S
C1331 C1330 1.366 . S
C1331 C1332 1.414 . S
C1331 C1334 1.499 . S
C1332 H1312 0.950 . S
C1332 C1331 1.414 . S
C1332 C1333 1.374 . S
C1333 H1313 0.950 . S
C1333 C1329 1.385 . S
C1333 C1332 1.374 . S
C1334 C1331 1.499 . S
C1334 C1335 1.373 . S
C1334 C1336 1.389 . S
C1335 H1314 0.950 . S
C1335 C1334 1.373 . S
C1335 C1351 1.377 . S
C1336 C1334 1.389 . S
C1336 C1337 1.524 . S
C1336 C1350 1.377 . S
C1337 C1336 1.524 . S
C1337 C1338 1.397 . S
C1337 C1342 1.363 . S
C1338 H1315 0.950 . S
C1338 C1337 1.397 . S
C1338 C1339 1.334 . S
C1339 H1316 0.950 . S
C1339 C1338 1.334 . S
C1339 C1340 1.287 . S
C1340 C1339 1.287 . S
C1340 C1341 1.524 . S
C1340 H1359 0.913 . S
C1341 H1317 0.950 1_554 S
C1341 C1340 1.524 . S
C1341 C1342 1.415 . S
C1342 H1318 0.950 . S
C1342 C1337 1.363 . S
C1342 C1341 1.415 . S
C1343 H1319 0.951 . S
C1343 C1344 1.366 . S
C1343 C1345 1.388 . S
C1344 C1343 1.366 . S
C1344 C1348 1.385 . S
C1345 H1320 0.951 . S
C1345 C1343 1.388 . S
C1345 C1346 1.366 . S
C1346 C1345 1.366 . S
C1346 C1347 1.414 . S
C1346 C1349 1.499 . S
C1347 H1321 0.950 . S
C1347 C1346 1.414 . S
C1347 C1348 1.374 . S
C1348 H1322 0.950 . S
C1348 C1344 1.385 . S
C1348 C1347 1.374 . S
C1349 C1346 1.499 . S
C1349 C1350 1.373 . S
C1349 C1351 1.389 . S
C1350 H1323 0.950 . S
C1350 C1336 1.377 . S
C1350 C1349 1.373 . S
C1351 C1335 1.377 . S
C1351 C1349 1.389 . S
C1351 C1352 1.524 . S
C1352 C1351 1.524 . S
C1352 C1353 1.397 . S
C1352 C1357 1.363 . S
C1353 H1324 0.950 . S
C1353 C1352 1.397 . S
C1353 C1354 1.334 . S
C1354 H1325 0.950 . S
C1354 C1353 1.334 . S
C1354 C1355 1.287 . S
C1355 C1354 1.287 . S
C1355 C1356 1.524 . S
C1355 H1358 0.999 . S
C1356 H1326 0.950 . S
C1356 C1355 1.524 . S
C1356 C1357 1.415 . S
C1357 H1327 0.950 . S
C1357 C1352 1.363 . S
C1357 C1356 1.415 . S
H1358 C1355 0.999 . S
H1359 C1340 0.913 . S
H1360 C1378 0.951 . S
H1361 C1380 0.951 . S
H1362 C1382 0.950 . S
H1363 C1383 0.950 . S
H1364 C1385 0.950 . S
H1365 C1388 0.950 . S
H1366 C1389 0.950 . S
H1367 C1391 0.950 . S
H1368 C1392 0.950 . S
H1369 C1393 0.951 . S
H1370 C1395 0.951 . S
H1371 C1397 0.950 . S
H1372 C1398 0.950 . S
H1373 C1400 0.950 . S
H1374 C1403 0.950 . S
H1375 C1404 0.950 . S
H1376 C1406 0.950 . S
H1377 C1407 0.950 . S
C1378 H1360 0.951 . S
C1378 C1379 1.366 . S
C1378 C1380 1.388 . S
C1379 C1378 1.366 . S
C1379 C1383 1.385 . S
C1380 H1361 0.951 . S
C1380 C1378 1.388 . S
C1380 C1381 1.366 . S
C1381 C1380 1.366 . S
C1381 C1382 1.414 . S
C1381 C1384 1.499 . S
C1382 H1362 0.950 . S
C1382 C1381 1.414 . S
C1382 C1383 1.374 . S
C1383 H1363 0.950 . S
C1383 C1379 1.385 . S
C1383 C1382 1.374 . S
C1384 C1381 1.499 . S
C1384 C1385 1.373 . S
C1384 C1386 1.389 . S
C1385 H1364 0.950 . S
C1385 C1384 1.373 . S
C1385 C1401 1.377 . S
C1386 C1384 1.389 . S
C1386 C1387 1.524 . S
C1386 C1400 1.377 . S
C1387 C1386 1.524 . S
C1387 C1388 1.397 . S
C1387 C1392 1.363 . S
C1388 H1365 0.950 . S
C1388 C1387 1.397 . S
C1388 C1389 1.334 . S
C1389 H1366 0.950 . S
C1389 C1388 1.334 . S
C1389 C1390 1.287 . S
C1390 C1389 1.287 . S
C1390 C1391 1.524 . S
C1390 H1409 0.913 . S
C1391 H1367 0.950 . S
C1391 C1390 1.524 . S
C1391 C1392 1.415 . S
C1392 H1368 0.950 . S
C1392 C1387 1.363 . S
C1392 C1391 1.415 . S
C1393 H1369 0.951 . S
C1393 C1394 1.366 . S
C1393 C1395 1.388 . S
C1394 C1393 1.366 . S
C1394 C1398 1.385 . S
C1395 H1370 0.951 . S
C1395 C1393 1.388 . S
C1395 C1396 1.366 . S
C1396 C1395 1.366 . S
C1396 C1397 1.414 . S
C1396 C1399 1.499 . S
C1397 H1371 0.950 . S
C1397 C1396 1.414 . S
C1397 C1398 1.374 . S
C1398 H1372 0.950 . S
C1398 C1394 1.385 . S
C1398 C1397 1.374 . S
C1399 C1396 1.499 . S
C1399 C1400 1.373 . S
C1399 C1401 1.389 . S
C1400 H1373 0.950 . S
C1400 C1386 1.377 . S
C1400 C1399 1.373 . S
C1401 C1385 1.377 . S
C1401 C1399 1.389 . S
C1401 C1402 1.524 . S
C1402 C1401 1.524 . S
C1402 C1403 1.397 . S
C1402 C1407 1.363 . S
C1403 H1374 0.950 . S
C1403 C1402 1.397 . S
C1403 C1404 1.334 . S
C1404 H1375 0.950 . S
C1404 C1403 1.334 . S
C1404 C1405 1.287 . S
C1405 C1404 1.287 . S
C1405 C1406 1.524 . S
C1405 H1408 0.999 . S
C1406 H1376 0.950 . S
C1406 C1405 1.524 . S
C1406 C1407 1.415 . S
C1407 H1377 0.950 . S
C1407 C1402 1.363 . S
C1407 C1406 1.415 . S
H1408 C1405 0.999 . S
H1409 C1390 0.913 . S
H1410 C1428 0.951 . S
H1411 C1430 0.951 . S
H1412 C1432 0.950 . S
H1413 C1433 0.950 . S
H1414 C1435 0.950 . S
H1415 C1438 0.950 . S
H1416 C1439 0.950 . S
H1417 C1441 0.950 . S
H1418 C1442 0.950 . S
H1419 C1443 0.951 . S
H1420 C1445 0.951 . S
H1421 C1447 0.950 . S
H1422 C1448 0.950 . S
H1423 C1450 0.950 . S
H1424 C1453 0.950 . S
H1425 C1454 0.950 . S
H1426 C1456 0.950 . S
H1427 C1457 0.950 . S
C1428 H1410 0.951 . S
C1428 C1429 1.366 . S
C1428 C1430 1.388 . S
C1429 C1428 1.366 . S
C1429 C1433 1.385 . S
C1430 H1411 0.951 . S
C1430 C1428 1.388 . S
C1430 C1431 1.366 . S
C1431 C1430 1.366 . S
C1431 C1432 1.414 . S
C1431 C1434 1.499 . S
C1432 H1412 0.950 . S
C1432 C1431 1.414 . S
C1432 C1433 1.374 . S
C1433 H1413 0.950 . S
C1433 C1429 1.385 . S
C1433 C1432 1.374 . S
C1434 C1431 1.499 . S
C1434 C1435 1.373 . S
C1434 C1436 1.389 . S
C1435 H1414 0.950 . S
C1435 C1434 1.373 . S
C1435 C1451 1.377 . S
C1436 C1434 1.389 . S
C1436 C1437 1.524 . S
C1436 C1450 1.377 . S
C1437 C1436 1.524 . S
C1437 C1438 1.397 . S
C1437 C1442 1.363 . S
C1438 H1415 0.950 . S
C1438 C1437 1.397 . S
C1438 C1439 1.334 . S
C1439 H1416 0.950 . S
C1439 C1438 1.334 . S
C1439 C1440 1.287 . S
C1440 C1439 1.287 . S
C1440 C1441 1.524 . S
C1440 H1459 0.913 . S
C1441 H1417 0.950 . S
C1441 C1440 1.524 . S
C1441 C1442 1.415 . S
C1442 H1418 0.950 . S
C1442 C1437 1.363 . S
C1442 C1441 1.415 . S
C1443 H1419 0.951 . S
C1443 C1444 1.366 . S
C1443 C1445 1.388 . S
C1444 C1443 1.366 . S
C1444 C1448 1.385 . S
C1445 H1420 0.951 . S
C1445 C1443 1.388 . S
C1445 C1446 1.366 . S
C1446 C1445 1.366 . S
C1446 C1447 1.414 . S
C1446 C1449 1.499 . S
C1447 H1421 0.950 . S
C1447 C1446 1.414 . S
C1447 C1448 1.374 . S
C1448 H1422 0.950 . S
C1448 C1444 1.385 . S
C1448 C1447 1.374 . S
C1449 C1446 1.499 . S
C1449 C1450 1.373 . S
C1449 C1451 1.389 . S
C1450 H1423 0.950 . S
C1450 C1436 1.377 . S
C1450 C1449 1.373 . S
C1451 C1435 1.377 . S
C1451 C1449 1.389 . S
C1451 C1452 1.524 . S
C1452 C1451 1.524 . S
C1452 C1453 1.397 . S
C1452 C1457 1.363 . S
C1453 H1424 0.950 . S
C1453 C1452 1.397 . S
C1453 C1454 1.334 . S
C1454 H1425 0.950 . S
C1454 C1453 1.334 . S
C1454 C1455 1.287 . S
C1455 C1454 1.287 . S
C1455 C1456 1.524 . S
C1455 H1458 0.999 . S
C1456 H1426 0.950 . S
C1456 C1455 1.524 . S
C1456 C1457 1.415 . S
C1457 H1427 0.950 . S
C1457 C1452 1.363 . S
C1457 C1456 1.415 . S
H1458 C1455 0.999 . S
H1459 C1440 0.913 . S
H1460 C1478 0.951 . S
H1461 C1480 0.951 . S
H1462 C1482 0.950 . S
H1463 C1483 0.950 . S
H1464 C1485 0.950 . S
H1465 C1488 0.950 . S
H1466 C1489 0.950 . S
H1467 C1491 0.949 . S
H1468 C1492 0.936 . S
H1469 C1493 0.951 . S
H1470 C1495 0.951 . S
H1471 C1497 0.950 . S
H1472 C1498 0.950 . S
H1473 C1500 0.950 . S
H1474 C1503 0.950 1_565 S
H1475 C1504 0.950 1_565 S
H1476 C1506 0.950 . S
H1477 C1507 0.950 . S
C1478 H1460 0.951 . S
C1478 C1479 1.366 . S
C1478 C1480 1.388 . S
C1479 C1478 1.366 . S
C1479 C1483 1.385 . S
C1480 H1461 0.951 . S
C1480 C1478 1.388 . S
C1480 C1481 1.366 . S
C1481 C1480 1.366 . S
C1481 C1482 1.414 . S
C1481 C1484 1.499 . S
C1482 H1462 0.950 . S
C1482 C1481 1.414 . S
C1482 C1483 1.374 . S
C1483 H1463 0.950 . S
C1483 C1479 1.385 . S
C1483 C1482 1.374 . S
C1484 C1481 1.499 . S
C1484 C1485 1.373 . S
C1484 C1486 1.389 . S
C1485 H1464 0.950 . S
C1485 C1484 1.373 . S
C1485 C1501 1.377 . S
C1486 C1484 1.389 . S
C1486 C1487 1.524 . S
C1486 C1500 1.377 1_545 S
C1487 C1486 1.524 . S
C1487 C1488 1.397 . S
C1487 C1492 1.363 . S
C1488 H1465 0.950 . S
C1488 C1487 1.397 . S
C1488 C1489 1.334 . S
C1489 H1466 0.950 . S
C1489 C1488 1.334 . S
C1489 C1490 1.287 . S
C1490 C1489 1.287 . S
C1490 C1491 1.524 . S
C1490 H1509 0.913 . S
C1491 H1467 0.949 . S
C1491 C1490 1.524 . S
C1491 C1492 1.415 . S
C1492 H1468 0.936 . S
C1492 C1487 1.363 . S
C1492 C1491 1.415 . S
C1493 H1469 0.951 . S
C1493 C1494 1.366 . S
C1493 C1495 1.388 . S
C1494 C1493 1.366 . S
C1494 C1498 1.385 . S
C1495 H1470 0.951 . S
C1495 C1493 1.388 . S
C1495 C1496 1.366 . S
C1496 C1495 1.366 . S
C1496 C1497 1.414 . S
C1496 C1499 1.499 . S
C1497 H1471 0.950 . S
C1497 C1496 1.414 . S
C1497 C1498 1.374 . S
C1498 H1472 0.950 . S
C1498 C1494 1.385 . S
C1498 C1497 1.374 . S
C1499 C1496 1.499 . S
C1499 C1500 1.373 . S
C1499 C1501 1.389 1_565 S
C1500 H1473 0.950 . S
C1500 C1486 1.377 1_565 S
C1500 C1499 1.373 . S
C1501 C1485 1.377 . S
C1501 C1499 1.389 1_545 S
C1501 C1502 1.524 . S
C1502 C1501 1.524 . S
C1502 C1503 1.397 . S
C1502 C1507 1.363 . S
C1503 H1474 0.950 1_545 S
C1503 C1502 1.397 . S
C1503 C1504 1.334 . S
C1504 H1475 0.950 1_545 S
C1504 C1503 1.334 . S
C1504 C1505 1.287 . S
C1505 C1504 1.287 . S
C1505 C1506 1.524 . S
C1505 H1508 0.999 . S
C1506 H1476 0.950 . S
C1506 C1505 1.524 . S
C1506 C1507 1.415 . S
C1507 H1477 0.950 . S
C1507 C1502 1.363 . S
C1507 C1506 1.415 . S
H1508 C1505 0.999 . S
H1509 C1490 0.913 . S
H1510 C1528 0.951 . S
H1511 C1530 0.951 . S
H1512 C1532 0.900 1_455 S
H1513 C1533 0.950 . S
H1514 C1535 0.950 . S
H1515 C1538 0.950 . S
H1516 C1539 0.950 . S
H1517 C1541 0.950 . S
H1518 C1542 0.950 . S
H1519 C1543 0.951 . S
H1520 C1545 0.951 . S
H1521 C1547 0.950 . S
H1522 C1548 0.950 . S
H1523 C1550 0.950 1_655 S
H1524 C1553 0.950 . S
H1525 C1554 0.950 . S
H1526 C1556 0.950 . S
H1527 C1557 0.950 . S
C1528 H1510 0.951 . S
C1528 C1529 1.366 . S
C1528 C1530 1.388 . S
C1529 C1528 1.366 . S
C1529 C1533 1.385 . S
C1530 H1511 0.951 . S
C1530 C1528 1.388 . S
C1530 C1531 1.366 . S
C1531 C1530 1.366 . S
C1531 C1532 1.414 . S
C1531 C1534 1.467 1_655 S
C1532 H1512 0.900 1_655 S
C1532 C1531 1.414 . S
C1532 C1533 1.374 . S
C1533 H1513 0.950 . S
C1533 C1529 1.385 . S
C1533 C1532 1.374 . S
C1534 C1531 1.467 1_455 S
C1534 C1535 1.404 . S
C1534 C1536 1.391 1_455 S
C1535 H1514 0.950 . S
C1535 C1534 1.404 . S
C1535 C1551 1.377 . S
C1536 C1534 1.391 1_655 S
C1536 C1537 1.524 . S
C1536 C1550 1.377 1_655 S
C1537 C1536 1.524 . S
C1537 C1538 1.397 . S
C1537 C1542 1.363 . S
C1538 H1515 0.950 . S
C1538 C1537 1.397 . S
C1538 C1539 1.334 . S
C1539 H1516 0.950 . S
C1539 C1538 1.334 . S
C1539 C1540 1.287 . S
C1540 C1539 1.287 . S
C1540 C1541 1.524 . S
C1540 H1559 0.913 . S
C1541 H1517 0.950 . S
C1541 C1540 1.524 . S
C1541 C1542 1.415 . S
C1542 H1518 0.950 . S
C1542 C1537 1.363 . S
C1542 C1541 1.415 . S
C1543 H1519 0.951 . S
C1543 C1544 1.366 . S
C1543 C1545 1.388 . S
C1544 C1543 1.366 . S
C1544 C1548 1.385 . S
C1545 H1520 0.951 . S
C1545 C1543 1.388 . S
C1545 C1546 1.366 . S
C1546 C1545 1.366 . S
C1546 C1547 1.414 . S
C1546 C1549 1.499 . S
C1547 H1521 0.950 . S
C1547 C1546 1.414 . S
C1547 C1548 1.374 . S
C1548 H1522 0.950 . S
C1548 C1544 1.385 . S
C1548 C1547 1.374 . S
C1549 C1546 1.499 . S
C1549 C1550 1.373 . S
C1549 C1551 1.389 . S
C1550 H1523 0.950 1_455 S
C1550 C1536 1.377 1_455 S
C1550 C1549 1.373 . S
C1551 C1535 1.377 . S
C1551 C1549 1.389 . S
C1551 C1552 1.524 . S
C1552 C1551 1.524 . S
C1552 C1553 1.397 . S
C1552 C1557 1.363 . S
C1553 H1524 0.950 . S
C1553 C1552 1.397 . S
C1553 C1554 1.334 . S
C1554 H1525 0.950 . S
C1554 C1553 1.334 . S
C1554 C1555 1.287 . S
C1555 C1554 1.287 . S
C1555 C1556 1.524 . S
C1555 H1558 0.999 . S
C1556 H1526 0.950 . S
C1556 C1555 1.524 . S
C1556 C1557 1.415 . S
C1557 H1527 0.950 . S
C1557 C1552 1.363 . S
C1557 C1556 1.415 . S
H1558 C1555 0.999 . S
H1559 C1540 0.913 . S
H1560 C1578 0.951 . S
H1561 C1580 0.951 . S
H1562 C1582 0.950 . S
H1563 C1583 0.950 . S
H1564 C1585 0.950 . S
H1565 C1588 0.950 . S
H1566 C1589 0.950 . S
H1567 C1591 0.950 . S
H1568 C1592 0.950 . S
H1569 C1593 0.951 . S
H1570 C1595 0.951 . S
H1571 C1597 0.950 . S
H1572 C1598 0.950 . S
H1573 C1600 0.950 . S
H1574 C1603 0.950 . S
H1575 C1604 0.950 . S
H1576 C1606 0.950 . S
H1577 C1607 0.950 . S
C1578 H1560 0.951 . S
C1578 C1579 1.366 . S
C1578 C1580 1.388 . S
C1579 C1578 1.366 . S
C1579 C1583 1.385 . S
C1580 H1561 0.951 . S
C1580 C1578 1.388 . S
C1580 C1581 1.366 . S
C1581 C1580 1.366 . S
C1581 C1582 1.414 . S
C1581 C1584 1.499 . S
C1582 H1562 0.950 . S
C1582 C1581 1.414 . S
C1582 C1583 1.374 . S
C1583 H1563 0.950 . S
C1583 C1579 1.385 . S
C1583 C1582 1.374 . S
C1584 C1581 1.499 . S
C1584 C1585 1.373 . S
C1584 C1586 1.389 . S
C1585 H1564 0.950 . S
C1585 C1584 1.373 . S
C1585 C1601 1.377 . S
C1586 C1584 1.389 . S
C1586 C1587 1.524 . S
C1586 C1600 1.377 . S
C1587 C1586 1.524 . S
C1587 C1588 1.397 . S
C1587 C1592 1.363 . S
C1588 H1565 0.950 . S
C1588 C1587 1.397 . S
C1588 C1589 1.334 . S
C1589 H1566 0.950 . S
C1589 C1588 1.334 . S
C1589 C1590 1.287 . S
C1590 C1589 1.287 . S
C1590 C1591 1.524 . S
C1590 H1609 0.913 . S
C1591 H1567 0.950 . S
C1591 C1590 1.524 . S
C1591 C1592 1.415 . S
C1592 H1568 0.950 . S
C1592 C1587 1.363 . S
C1592 C1591 1.415 . S
C1593 H1569 0.951 . S
C1593 C1594 1.366 . S
C1593 C1595 1.388 . S
C1594 C1593 1.366 . S
C1594 C1598 1.385 . S
C1595 H1570 0.951 . S
C1595 C1593 1.388 . S
C1595 C1596 1.366 . S
C1596 C1595 1.366 . S
C1596 C1597 1.414 . S
C1596 C1599 1.499 . S
C1597 H1571 0.950 . S
C1597 C1596 1.414 . S
C1597 C1598 1.374 . S
C1598 H1572 0.950 . S
C1598 C1594 1.385 . S
C1598 C1597 1.374 . S
C1599 C1596 1.499 . S
C1599 C1600 1.373 . S
C1599 C1601 1.389 . S
C1600 H1573 0.950 . S
C1600 C1586 1.377 . S
C1600 C1599 1.373 . S
C1601 C1585 1.377 . S
C1601 C1599 1.389 . S
C1601 C1602 1.524 . S
C1602 C1601 1.524 . S
C1602 C1603 1.397 . S
C1602 C1607 1.363 . S
C1603 H1574 0.950 . S
C1603 C1602 1.397 . S
C1603 C1604 1.334 . S
C1604 H1575 0.950 . S
C1604 C1603 1.334 . S
C1604 C1605 1.287 . S
C1605 C1604 1.287 . S
C1605 C1606 1.524 . S
C1605 H1608 0.999 . S
C1606 H1576 0.950 . S
C1606 C1605 1.524 . S
C1606 C1607 1.415 . S
C1607 H1577 0.950 . S
C1607 C1602 1.363 . S
C1607 C1606 1.415 . S
H1608 C1605 0.999 . S
H1609 C1590 0.913 . S
H1610 C1628 0.951 . S
H1611 C1630 0.951 . S
H1612 C1632 0.950 . S
H1613 C1633 0.950 . S
H1614 C1635 0.950 1_565 S
H1615 C1638 0.950 . S
H1616 C1639 0.950 . S
H1617 C1641 0.977 . S
H1618 C1642 0.950 . S
H1619 C1643 0.951 . S
H1620 C1645 0.951 . S
H1621 C1647 0.950 . S
H1622 C1648 0.950 . S
H1623 C1650 0.950 . S
H1624 C1653 0.950 . S
H1625 C1654 0.950 . S
H1626 C1656 0.950 . S
H1627 C1657 0.950 . S
C1628 H1610 0.951 . S
C1628 C1629 1.366 . S
C1628 C1630 1.388 . S
C1629 C1628 1.366 . S
C1629 C1633 1.385 . S
C1630 H1611 0.951 . S
C1630 C1628 1.388 . S
C1630 C1631 1.366 . S
C1631 C1630 1.366 . S
C1631 C1632 1.414 . S
C1631 C1634 1.499 . S
C1632 H1612 0.950 . S
C1632 C1631 1.414 . S
C1632 C1633 1.374 . S
C1633 H1613 0.950 . S
C1633 C1629 1.385 . S
C1633 C1632 1.374 . S
C1634 C1631 1.499 . S
C1634 C1635 1.373 1_565 S
C1634 C1636 1.389 1_565 S
C1635 H1614 0.950 1_545 S
C1635 C1634 1.373 1_545 S
C1635 C1651 1.377 . S
C1636 C1634 1.389 1_545 S
C1636 C1637 1.524 . S
C1636 C1650 1.377 . S
C1637 C1636 1.524 . S
C1637 C1638 1.397 1_545 S
C1637 C1642 1.363 . S
C1638 H1615 0.950 . S
C1638 C1637 1.397 1_565 S
C1638 C1639 1.334 . S
C1639 H1616 0.950 . S
C1639 C1638 1.334 . S
C1639 C1640 1.287 . S
C1640 C1639 1.287 . S
C1640 C1641 1.511 1_565 S
C1640 H1659 0.913 . S
C1641 H1617 0.977 . S
C1641 C1640 1.511 1_545 S
C1641 C1642 1.400 . S
C1642 H1618 0.950 . S
C1642 C1637 1.363 . S
C1642 C1641 1.400 . S
C1643 H1619 0.951 . S
C1643 C1644 1.366 . S
C1643 C1645 1.388 . S
C1644 C1643 1.366 . S
C1644 C1648 1.385 . S
C1645 H1620 0.951 . S
C1645 C1643 1.388 . S
C1645 C1646 1.366 . S
C1646 C1645 1.366 . S
C1646 C1647 1.414 . S
C1646 C1649 1.499 . S
C1647 H1621 0.950 . S
C1647 C1646 1.414 . S
C1647 C1648 1.374 . S
C1648 H1622 0.950 . S
C1648 C1644 1.385 . S
C1648 C1647 1.374 . S
C1649 C1646 1.499 . S
C1649 C1650 1.373 . S
C1649 C1651 1.389 . S
C1650 H1623 0.950 . S
C1650 C1636 1.377 . S
C1650 C1649 1.373 . S
C1651 C1635 1.377 . S
C1651 C1649 1.389 . S
C1651 C1652 1.524 . S
C1652 C1651 1.524 . S
C1652 C1653 1.397 . S
C1652 C1657 1.363 . S
C1653 H1624 0.950 . S
C1653 C1652 1.397 . S
C1653 C1654 1.334 . S
C1654 H1625 0.950 . S
C1654 C1653 1.334 . S
C1654 C1655 1.287 . S
C1655 C1654 1.287 . S
C1655 C1656 1.524 . S
C1655 H1658 0.999 . S
C1656 H1626 0.950 . S
C1656 C1655 1.524 . S
C1656 C1657 1.415 . S
C1657 H1627 0.950 . S
C1657 C1652 1.363 . S
C1657 C1656 1.415 . S
H1658 C1655 0.999 . S
H1659 C1640 0.913 . S
H1660 C1678 0.951 . S
H1661 C1680 0.951 1_455 S
H1662 C1682 0.950 . S
H1663 C1683 0.950 . S
H1664 C1685 0.952 . S
H1665 C1688 0.950 . S
H1666 C1689 0.950 . S
H1667 C1691 0.950 . S
H1668 C1692 0.950 . S
H1669 C1693 0.951 . S
H1670 C1695 0.951 . S
H1671 C1697 0.950 . S
H1672 C1698 0.950 . S
H1673 C1700 0.950 . S
H1674 C1703 0.950 . S
H1675 C1704 0.950 . S
H1676 C1706 0.950 1_655 S
H1677 C1707 0.921 1_655 S
C1678 H1660 0.951 . S
C1678 C1679 1.366 . S
C1678 C1680 1.388 . S
C1679 C1678 1.366 . S
C1679 C1683 1.385 . S
C1680 H1661 0.951 1_655 S
C1680 C1678 1.388 . S
C1680 C1681 1.366 . S
C1681 C1680 1.366 . S
C1681 C1682 1.414 . S
C1681 C1684 1.499 . S
C1682 H1662 0.950 . S
C1682 C1681 1.414 . S
C1682 C1683 1.374 . S
C1683 H1663 0.950 . S
C1683 C1679 1.385 . S
C1683 C1682 1.374 . S
C1684 C1681 1.499 . S
C1684 C1685 1.389 . S
C1684 C1686 1.389 1_655 S
C1685 H1664 0.952 . S
C1685 C1684 1.389 . S
C1685 C1701 1.360 1_655 S
C1686 C1684 1.389 1_455 S
C1686 C1687 1.524 . S
C1686 C1700 1.377 . S
C1687 C1686 1.524 . S
C1687 C1688 1.397 1_455 S
C1687 C1692 1.363 . S
C1688 H1665 0.950 . S
C1688 C1687 1.397 1_655 S
C1688 C1689 1.334 . S
C1689 H1666 0.950 . S
C1689 C1688 1.334 . S
C1689 C1690 1.287 . S
C1690 C1689 1.287 . S
C1690 C1691 1.524 1_655 S
C1690 H1709 0.913 . S
C1691 H1667 0.950 . S
C1691 C1690 1.524 1_455 S
C1691 C1692 1.415 . S
C1692 H1668 0.950 . S
C1692 C1687 1.363 . S
C1692 C1691 1.415 . S
C1693 H1669 0.951 . S
C1693 C1694 1.366 . S
C1693 C1695 1.388 . S
C1694 C1693 1.366 . S
C1694 C1698 1.385 . S
C1695 H1670 0.951 . S
C1695 C1693 1.388 . S
C1695 C1696 1.366 . S
C1696 C1695 1.366 . S
C1696 C1697 1.414 . S
C1696 C1699 1.499 . S
C1697 H1671 0.950 . S
C1697 C1696 1.414 . S
C1697 C1698 1.374 . S
C1698 H1672 0.950 . S
C1698 C1694 1.385 . S
C1698 C1697 1.374 . S
C1699 C1696 1.499 . S
C1699 C1700 1.373 . S
C1699 C1701 1.389 . S
C1700 H1673 0.950 . S
C1700 C1686 1.377 . S
C1700 C1699 1.373 . S
C1701 C1685 1.360 1_455 S
C1701 C1699 1.389 . S
C1701 C1702 1.524 . S
C1702 C1701 1.524 . S
C1702 C1703 1.397 . S
C1702 C1707 1.373 . S
C1703 H1674 0.950 . S
C1703 C1702 1.397 . S
C1703 C1704 1.334 . S
C1704 H1675 0.950 . S
C1704 C1703 1.334 . S
C1704 C1705 1.287 . S
C1705 C1704 1.287 . S
C1705 C1706 1.524 . S
C1705 H1708 0.999 . S
C1706 H1676 0.950 1_455 S
C1706 C1705 1.524 . S
C1706 C1707 1.435 . S
C1707 H1677 0.921 1_455 S
C1707 C1702 1.373 . S
C1707 C1706 1.435 . S
H1708 C1705 0.999 . S
H1709 C1690 0.913 . S
C379 C10 3.135 . S
C394 C19 3.135 . S
C429 C59 3.197 1_556 S
C444 C50 3.197 . S
C479 C90 3.232 1_556 S
C494 C99 3.232 . S
C529 C139 3.135 . S
C544 C130 3.135 . S
C579 C170 3.197 . S
C594 C179 3.197 1_556 S
C629 C219 3.232 . S
C644 C210 3.232 1_556 S
C679 C247 2.806 . S
C694 C256 2.806 1_556 S
C729 C296 2.884 . S
C744 C287 2.884 1_556 S
C779 C327 2.518 . S
C794 C336 2.518 . S
C829 C202 1.930 . S
C844 C7 1.957 . S
C879 C42 2.874 . S
C894 C122 2.893 . S
C929 C87 1.373 . S
C944 C167 1.379 . S
C979 C82 2.854 . S
C994 C251 2.986 . S
C1029 C299 1.013 . S
C1044 C2 0.988 . S
C1079 C331 1.794 . S
C1094 C47 1.721 . S
C1129 C330 0.659 . S
C1144 C16 0.668 . S
C1179 C51 2.015 . S
C1194 C250 2.071 . S
C1229 C282 2.762 . S
C1244 C96 2.641 . S
C1279 C91 1.930 . S
C1294 C136 1.957 . S
C1329 C171 2.873 . S
C1344 C11 2.892 . S
C1379 C56 1.379 . S
C1394 C216 1.373 . S
C1429 C339 0.660 . S
C1444 C127 0.668 . S
C1479 C259 2.070 . S
C1494 C162 2.014 . S
C1529 C291 2.762 . S
C1544 C207 2.642 . S
C1579 C242 2.986 . S
C1594 C211 2.855 . S
C1629 C131 0.987 . S
C1644 C290 1.012 . S
C1679 C322 1.794 . S
C1694 C176 1.722 . S
