# Generated by pormake.
# Topology qtz-e, (6)-cn, num edge types: 1
# Building blocks:
#     Node 0, Type 0, BuildingBlock: BETFAJ_clean_sbu_0, # of connection points: 6
#     Node 1, Type 0, BuildingBlock: BETFAJ_clean_sbu_0, # of connection points: 6
#     Node 2, Type 0, BuildingBlock: BETFAJ_clean_sbu_0, # of connection points: 6
#     Node 3, Type 0, BuildingBlock: BETFAJ_clean_sbu_0, # of connection points: 6
#     Node 4, Type 0, BuildingBlock: BETFAJ_clean_sbu_0, # of connection points: 6
#     Node 5, Type 0, BuildingBlock: BETFAJ_clean_sbu_0, # of connection points: 6
#     Edge 6, Type (0, 0), BuildingBlock: UVAHIK_clean_linker_0, # of connection points: 2
#     Edge 7, Type (0, 0), BuildingBlock: UVAHIK_clean_linker_0, # of connection points: 2
#     Edge 8, Type (0, 0), BuildingBlock: UVAHIK_clean_linker_0, # of connection points: 2
#     Edge 9, Type (0, 0), BuildingBlock: UVAHIK_clean_linker_0, # of connection points: 2
#     Edge 10, Type (0, 0), BuildingBlock: UVAHIK_clean_linker_0, # of connection points: 2
#     Edge 11, Type (0, 0), BuildingBlock: UVAHIK_clean_linker_0, # of connection points: 2
#     Edge 12, Type (0, 0), BuildingBlock: UVAHIK_clean_linker_0, # of connection points: 2
#     Edge 13, Type (0, 0), BuildingBlock: UVAHIK_clean_linker_0, # of connection points: 2
#     Edge 14, Type (0, 0), BuildingBlock: UVAHIK_clean_linker_0, # of connection points: 2
#     Edge 15, Type (0, 0), BuildingBlock: UVAHIK_clean_linker_0, # of connection points: 2
#     Edge 16, Type (0, 0), BuildingBlock: UVAHIK_clean_linker_0, # of connection points: 2
#     Edge 17, Type (0, 0), BuildingBlock: UVAHIK_clean_linker_0, # of connection points: 2
#     Edge 18, Type (0, 0), BuildingBlock: UVAHIK_clean_linker_0, # of connection points: 2
#     Edge 19, Type (0, 0), BuildingBlock: UVAHIK_clean_linker_0, # of connection points: 2
#     Edge 20, Type (0, 0), BuildingBlock: UVAHIK_clean_linker_0, # of connection points: 2
#     Edge 21, Type (0, 0), BuildingBlock: UVAHIK_clean_linker_0, # of connection points: 2
#     Edge 22, Type (0, 0), BuildingBlock: UVAHIK_clean_linker_0, # of connection points: 2
#     Edge 23, Type (0, 0), BuildingBlock: UVAHIK_clean_linker_0, # of connection points: 2
# Relax obj value: 0.115
# Max RMSD: 0.182
# Mean RMSD: 0.182
data_MOF--net-qtz-e--node1-BETFAJ_clean_sbu_0--edge1-UVAHIK_clean_linker_0
_symmetry_space_group_name_H-M    P1
_symmetry_Int_Tables_number       1
_symmetry_cell_setting            triclinic
loop_
_symmetry_equiv_pos_as_xyz
'x, y, z'
_cell_length_a     32.755578
_cell_length_b     32.831476
_cell_length_c     62.911533
_cell_angle_alpha  90.061408
_cell_angle_beta   89.997584
_cell_angle_gamma 119.93566
loop_
_atom_site_label
_atom_site_type_symbol
_atom_site_fract_x
_atom_site_fract_y
_atom_site_fract_z
_atom_type_partial_charge
Sm0 Sm 0.16786 0.44606 0.04727 0.0
Sm1 Sm 0.17275 0.3562 0.03979 0.0
C2 C 0.14346 0.50743 0.06066 0.0
C3 C 0.14479 0.52593 0.08212 0.0
C4 C 0.12651 0.55577 0.08611 0.0
C5 C 0.12883 0.57365 0.10661 0.0
C6 C 0.14986 0.56223 0.12337 0.0
C7 C 0.16755 0.53179 0.11925 0.0
C8 C 0.16496 0.5138 0.09887 0.0
C9 C 0.25378 0.45523 0.05594 0.0
C10 C 0.1398 0.36662 0.08605 0.0
C11 C 0.195 0.29345 0.02603 0.0
C12 C 0.20564 0.28297 1.00463 0.0
C13 C 0.22688 0.25534 1.002 0.0
C14 C 0.23846 0.24699 0.98162 0.0
C15 C 0.22941 0.2666 0.96357 0.0
C16 C 0.20776 0.29398 0.96634 0.0
C17 C 0.19579 0.30187 0.98665 0.0
C18 C 0.08701 0.34969 0.03244 0.0
C19 C 0.20237 0.43589 1.00139 0.0
O20 O 0.11317 0.46277 0.05796 0.0
O21 O 0.1846 0.51977 0.05231 0.0
O22 O 0.21477 0.41977 0.06042 0.0
O23 O 0.24854 0.48864 0.04787 0.0
O24 O 0.13453 0.40047 0.07737 0.0
O25 O 0.16079 0.34706 0.07572 0.0
O26 O 0.22599 0.33426 0.03392 0.0
O27 O 0.15158 0.28385 0.02909 0.0
O28 O 0.1266 0.38259 0.02683 0.0
O29 O 0.09137 0.31751 0.04245 0.0
O30 O 0.2094 0.40364 1.01056 0.0
O31 O 0.17909 0.45359 1.01124 0.0
H32 H 0.11081 0.56549 0.07336 0.0
H33 H 0.11511 0.59718 0.10925 0.0
H34 H 0.18324 0.52167 0.13185 0.0
H35 H 0.17906 0.4906 0.09612 0.0
H36 H 0.23486 0.24057 1.0157 0.0
H37 H 0.25544 0.22606 0.98002 0.0
H38 H 0.19976 0.3091 0.95278 0.0
H39 H 0.17905 0.323 0.98831 0.0
Sm40 Sm 0.71807 0.18873 0.38176 0.0
Sm41 Sm 0.81167 0.19261 0.37461 0.0
C42 C 0.63112 0.16399 0.39348 0.0
C43 C 0.60911 0.16159 0.4144 0.0
C44 C 0.60615 0.12994 0.43022 0.0
C45 C 0.58997 0.13159 0.45063 0.0
C46 C 0.57639 0.1649 0.45569 0.0
C47 C 0.57776 0.19533 0.43963 0.0
C48 C 0.5938 0.19358 0.41922 0.0
C49 C 0.79357 0.27128 0.39499 0.0
C50 C 0.76313 0.15056 0.41911 0.0
C51 C 0.89686 0.21312 0.36186 0.0
C52 C 0.9176 0.22205 0.34044 0.0
C53 C 0.96587 0.23894 0.33758 0.0
C54 C -0.01467 0.2488 0.3171 0.0
C55 C 0.9568 0.24233 0.29923 0.0
C56 C 0.90835 0.22494 0.30225 0.0
C57 C 0.88895 0.2147 0.32262 0.0
C58 C 0.73195 0.11106 0.36233 0.0
C59 C 0.7683 0.2323 0.33745 0.0
O60 O 0.64511 0.13357 0.38989 0.0
O61 O 0.66129 0.20616 0.38668 0.0
O62 O 0.78988 0.23148 0.39748 0.0
O63 O 0.75607 0.26804 0.38648 0.0
O64 O 0.72501 0.14685 0.40995 0.0
O65 O 0.80487 0.17406 0.40995 0.0
O66 O 0.88714 0.24476 0.36902 0.0
O67 O 0.8629 0.17016 0.36536 0.0
O68 O 0.74135 0.15239 0.35898 0.0
O69 O 0.76607 0.11106 0.3728 0.0
O70 O 0.8063 0.23665 0.34697 0.0
O71 O 0.72634 0.20789 0.34635 0.0
H72 H 0.61746 0.10467 0.42706 0.0
H73 H 0.58965 0.10782 0.46263 0.0
H74 H 0.56677 0.22083 0.44288 0.0
H75 H 0.59534 0.21814 0.40731 0.0
H76 H -0.0115 0.24487 0.35116 0.0
H77 H 0.02282 0.26242 0.31528 0.0
H78 H 0.8853 0.21894 0.28882 0.0
H79 H 0.8515 0.20123 0.32449 0.0
Sm80 Sm 0.51337 0.72131 0.71505 0.0
Sm81 Sm 0.60693 0.81086 0.70617 0.0
C82 C 0.4476 0.63694 0.72781 0.0
C83 C 0.4287 0.61894 0.74908 0.0
C84 C 0.44433 0.64962 0.76655 0.0
C85 C 0.42606 0.63334 0.78681 0.0
C86 C 0.3918 0.58593 0.79005 0.0
C87 C 0.37653 0.55518 0.77246 0.0
C88 C 0.3949 0.57159 0.75213 0.0
C89 C 0.51506 0.8018 0.72771 0.0
C90 C 0.59972 0.76344 0.75118 0.0
C91 C 0.67385 0.89367 0.6924 0.0
C92 C 0.68415 0.91476 0.67105 0.0
C93 C 0.71673 0.96257 0.66824 0.0
C94 C 0.72514 0.98259 0.64791 0.0
C95 C 0.70076 0.95509 0.63011 0.0
C96 C 0.66835 0.90706 0.63308 0.0
C97 C 0.66028 0.8871 0.65332 0.0
C98 C 0.60119 0.72712 0.69484 0.0
C99 C 0.52119 0.76982 0.67021 0.0
O100 O 0.49151 0.64819 0.72478 0.0
O101 O 0.43814 0.66852 0.72036 0.0
O102 O 0.54876 0.794 0.72974 0.0
O103 O 0.47803 0.76566 0.71996 0.0
O104 O 0.56269 0.72632 0.7428 0.0
O105 O 0.62032 0.80448 0.74137 0.0
O106 O 0.63462 0.88717 0.70098 0.0
O107 O 0.68002 0.85754 0.69485 0.0
O108 O 0.5711 0.73931 0.69172 0.0
O109 O 0.63775 0.76059 0.70437 0.0
O110 O 0.55678 0.80724 0.67913 0.0
O111 O 0.50202 0.72836 0.67961 0.0
H112 H 0.47043 0.68637 0.76446 0.0
H113 H 0.43818 0.65817 0.79986 0.0
H114 H 0.35068 0.51835 0.77443 0.0
H115 H 0.38265 0.54739 0.73882 0.0
H116 H 0.73535 0.98447 0.68176 0.0
H117 H 0.75 0.01976 0.64618 0.0
H118 H 0.64946 0.88475 0.6197 0.0
H119 H 0.63522 0.85001 0.65514 0.0
Sm120 Sm 0.79527 0.52764 0.04715 0.0
Sm121 Sm 0.79343 0.61793 0.03899 0.0
C122 C 0.81754 0.4648 0.06067 0.0
C123 C 0.81531 0.44582 0.0821 0.0
C124 C 0.83835 0.42061 0.08679 0.0
C125 C 0.83598 0.40297 0.10734 0.0
C126 C 0.81043 0.41024 0.12348 0.0
C127 C 0.78807 0.43621 0.11867 0.0
C128 C 0.79059 0.45389 0.09823 0.0
C129 C 0.7106 0.52046 0.05655 0.0
C130 C 0.82796 0.60955 0.08509 0.0
C131 C 0.77517 0.68302 0.02456 0.0
C132 C 0.76404 0.69268 1.00313 0.0
C133 C 0.7477 0.72441 1.00017 0.0
C134 C 0.73563 0.73214 0.97979 0.0
C135 C 0.73927 0.70781 0.96211 0.0
C136 C 0.75606 0.67631 0.96519 0.0
C137 C 0.76857 0.66906 0.98547 0.0
C138 C 0.87701 0.62022 0.03032 0.0
C139 C 0.75807 0.5357 1.00164 0.0
O140 O 0.84843 0.50929 0.05827 0.0
O141 O 0.7769 0.45336 0.05201 0.0
O142 O 0.74997 0.55617 0.06055 0.0
O143 O 0.71516 0.48644 0.04874 0.0
O144 O 0.8317 0.57459 0.07664 0.0
O145 O 0.80732 0.62933 0.07472 0.0
O146 O 0.74318 0.64366 0.03317 0.0
O147 O 0.81787 0.69022 0.02718 0.0
O148 O 0.83634 0.58844 0.02541 0.0
O149 O 0.87507 0.65325 0.04082 0.0
O150 O 0.75209 0.56854 1.0109 0.0
O151 O 0.78207 0.51847 1.0112 0.0
H152 H 0.85798 0.41446 0.07457 0.0
H153 H 0.85347 0.383 0.1105 0.0
H154 H 0.76892 0.44329 0.13078 0.0
H155 H 0.77318 0.47394 0.09499 0.0
H156 H 0.74391 0.74289 1.01362 0.0
H157 H 0.7225 0.75636 0.97793 0.0
H158 H 0.75987 0.65751 0.95188 0.0
H159 H 0.78164 0.64481 0.98738 0.0
Sm160 Sm 0.24859 0.78699 0.38103 0.0
Sm161 Sm 0.15811 0.79031 0.37352 0.0
C162 C 0.33405 0.80642 0.39276 0.0
C163 C 0.35636 0.80945 0.41364 0.0
C164 C 0.36121 0.84278 0.429 0.0
C165 C 0.37789 0.84201 0.44939 0.0
C166 C 0.39002 0.80787 0.45489 0.0
C167 C 0.38671 0.77565 0.43927 0.0
C168 C 0.3702 0.77654 0.41887 0.0
C169 C 0.16887 0.70748 0.39364 0.0
C170 C 0.2072 0.82931 0.41841 0.0
C171 C 0.07464 0.77423 0.36034 0.0
C172 C 0.05412 0.76489 0.33885 0.0
C173 C 0.00583 0.74764 0.33583 0.0
C174 C -0.01351 0.73692 0.31532 0.0
C175 C 0.01515 0.74283 0.29757 0.0
C176 C 0.06362 0.76059 0.30074 0.0
C177 C 0.0829 0.77169 0.32114 0.0
C178 C 0.2411 0.8687 0.3618 0.0
C179 C 0.19773 0.74612 0.33653 0.0
O180 O 0.32317 0.83885 0.38842 0.0
O181 O 0.30127 0.7644 0.3869 0.0
O182 O 0.17631 0.74866 0.39627 0.0
O183 O 0.20489 0.70733 0.38519 0.0
O184 O 0.24424 0.83004 0.4095 0.0
O185 O 0.16566 0.80887 0.40891 0.0
O186 O 0.08169 0.74136 0.36823 0.0
O187 O 0.11037 0.8165 0.36346 0.0
O188 O 0.22908 0.82664 0.35839 0.0
O189 O 0.20791 0.87129 0.37191 0.0
O190 O 0.16081 0.74476 0.34581 0.0
O191 O 0.23967 0.7678 0.34564 0.0
H192 H 0.35099 0.86875 0.4255 0.0
H193 H 0.37974 0.86715 0.46107 0.0
H194 H 0.39651 0.74942 0.44289 0.0
H195 H 0.36715 0.75068 0.40731 0.0
H196 H 0.98306 0.74202 0.34932 0.0
H197 H 0.94897 0.72301 0.31339 0.0
H198 H 0.08676 0.76614 0.2874 0.0
H199 H 0.12035 0.78528 0.32312 0.0
Sm200 Sm 0.45052 0.25578 0.71532 0.0
Sm201 Sm 0.36277 0.16096 0.7078 0.0
C202 C 0.51116 0.34278 0.7273 0.0
C203 C 0.53202 0.36453 0.74811 0.0
C204 C 0.5041 0.36629 0.7647 0.0
C205 C 0.52347 0.38269 0.78487 0.0
C206 C 0.57113 0.39757 0.78894 0.0
C207 C 0.59931 0.39719 0.77216 0.0
C208 C 0.58001 0.38104 0.75197 0.0
C209 C 0.46041 0.18175 0.72826 0.0
C210 C 0.36697 0.20831 0.75247 0.0
C211 C 0.30065 0.07544 0.69449 0.0
C212 C 0.29033 0.05462 0.67304 0.0
C213 C 0.25905 0.0065 0.67009 0.0
C214 C 0.25038 0.98696 0.64962 0.0
C215 C 0.27328 0.01524 0.63183 0.0
C216 C 0.30437 0.06354 0.63493 0.0
C217 C 0.31258 0.08303 0.6553 0.0
C218 C 0.35765 0.23915 0.69605 0.0
C219 C 0.44598 0.20723 0.67087 0.0
O220 O 0.46616 0.32746 0.72461 0.0
O221 O 0.52416 0.314 0.71956 0.0
O222 O 0.42352 0.1842 0.73074 0.0
O223 O 0.49399 0.21975 0.71989 0.0
O224 O 0.4007 0.24695 0.74344 0.0
O225 O 0.35004 0.16684 0.74318 0.0
O226 O 0.34195 0.08617 0.70218 0.0
O227 O 0.29019 0.10854 0.69768 0.0
O228 O 0.39066 0.23124 0.69255 0.0
O229 O 0.32418 0.20421 0.70634 0.0
O230 O 0.4138 0.16859 0.68043 0.0
O231 O 0.46142 0.24884 0.67977 0.0
H232 H 0.46698 0.35391 0.7623 0.0
H233 H 0.50071 0.38225 0.79746 0.0
H234 H 0.63631 0.40913 0.77467 0.0
H235 H 0.60244 0.38041 0.73947 0.0
H236 H 0.24157 0.98403 0.68359 0.0
H237 H 0.22648 0.94959 0.64775 0.0
H238 H 0.32206 0.08641 0.62157 0.0
H239 H 0.33641 0.12038 0.65721 0.0
C240 C 0.23028 0.72638 0.3044 0.0
C241 C 0.19202 0.72547 0.31496 0.0
C242 C 0.22499 0.7083 0.28377 0.0
C243 C 0.15045 0.67982 0.23579 0.0
H244 H 0.20703 0.60449 0.2207 0.0
C245 C 0.11634 0.58432 0.15448 0.0
C246 C 0.1542 0.58233 0.14503 0.0
C247 C 0.12027 0.60178 0.17517 0.0
C248 C 0.19151 0.62599 0.22452 0.0
H249 H 0.11793 0.70417 0.31211 0.0
H250 H 0.10892 0.67301 0.27622 0.0
H251 H 0.21548 0.63475 0.25675 0.0
H252 H 0.22645 0.59878 0.14962 0.0
H253 H 0.23359 0.62978 0.18542 0.0
H254 H 0.12687 0.67151 0.2035 0.0
C255 C 0.14312 0.68803 0.2838 0.0
C256 C 0.19631 0.64328 0.24524 0.0
C257 C 0.14829 0.70575 0.30445 0.0
C258 C 0.19631 0.59901 0.15658 0.0
C259 C 0.20034 0.61668 0.17716 0.0
C260 C 0.14585 0.66274 0.215 0.0
C261 C 0.18141 0.68914 0.27318 0.0
C262 C 0.17595 0.67049 0.25113 0.0
C263 C 0.16227 0.61793 0.18685 0.0
C264 C 0.16646 0.6357 0.20906 0.0
H265 H 0.26447 0.74137 0.31197 0.0
H266 H 0.25533 0.71012 0.27597 0.0
H267 H 0.13476 0.70113 0.23973 0.0
H268 H 0.08328 0.57134 0.14607 0.0
H269 H 0.09 0.60166 0.18216 0.0
C270 C 0.49302 0.24372 0.63766 0.0
C271 C 0.46203 0.20338 0.64926 0.0
C272 C 0.50619 0.23979 0.6169 0.0
C273 C 0.51186 0.15553 0.57939 0.0
H274 H 0.51582 0.24181 0.53633 0.0
C275 C 0.53383 0.12883 0.48999 0.0
C276 C 0.56251 0.16906 0.47781 0.0
C277 C 0.52166 0.13301 0.51089 0.0
C278 C 0.51548 0.21776 0.54819 0.0
H279 H 0.42106 0.12716 0.64809 0.0
H280 H 0.44364 0.12046 0.61199 0.0
H281 H 0.49573 0.2496 0.57284 0.0
H282 H 0.6016 0.24527 0.4783 0.0
H283 H 0.5807 0.25257 0.51469 0.0
H284 H 0.53177 0.12377 0.55479 0.0
C285 C 0.45822 0.15513 0.61898 0.0
C286 C 0.50394 0.22225 0.56915 0.0
C287 C 0.44504 0.15904 0.63969 0.0
C288 C 0.57873 0.21354 0.48707 0.0
C289 C 0.56671 0.21773 0.50797 0.0
C290 C 0.52353 0.15112 0.55844 0.0
C291 C 0.48879 0.19544 0.60727 0.0
C292 C 0.5019 0.19116 0.58502 0.0
C293 C 0.53802 0.17754 0.52019 0.0
C294 C 0.52545 0.18213 0.54253 0.0
H295 H 0.5068 0.27841 0.64452 0.0
H296 H 0.53025 0.27154 0.60843 0.0
H297 H 0.51126 0.13137 0.59126 0.0
H298 H 0.5203 0.09405 0.48327 0.0
H299 H 0.4989 0.10128 0.51968 0.0
C300 C 0.21482 0.48584 0.96898 0.0
C301 C 0.22067 0.45137 0.97954 0.0
C302 C 0.23263 0.50024 0.9484 0.0
C303 C 0.32032 0.50109 0.91073 0.0
H304 H 0.24994 0.52701 0.8686 0.0
C305 C 0.40097 0.58548 0.82974 0.0
C306 C 0.37188 0.56907 0.81166 0.0
C307 C 0.38216 0.57099 0.8501 0.0
C308 C 0.26989 0.51954 0.88012 0.0
H309 H 0.24972 0.40488 0.97657 0.0
H310 H 0.27947 0.42899 0.94078 0.0
H311 H 0.21726 0.50158 0.90415 0.0
H312 H 0.29997 0.52438 0.80094 0.0
H313 H 0.26734 0.49819 0.83642 0.0
H314 H 0.3724 0.5179 0.88664 0.0
C315 C 0.26198 0.44567 0.94846 0.0
C316 C 0.25141 0.50553 0.9006 0.0
C317 C 0.24446 0.4315 0.96899 0.0
C318 C 0.32351 0.53738 0.81447 0.0
C319 C 0.30468 0.52284 0.83486 0.0
C320 C 0.33874 0.51501 0.89028 0.0
C321 C 0.2566 0.48043 0.93791 0.0
C322 C 0.27635 0.49603 0.91616 0.0
C323 C 0.33375 0.53958 0.85294 0.0
C324 C 0.3138 0.52443 0.8747 0.0
H325 H 0.19678 0.50195 0.97663 0.0
H326 H 0.22826 0.52745 0.94085 0.0
H327 H 0.34084 0.49467 0.92235 0.0
H328 H 0.43847 0.60948 0.82819 0.0
H329 H 0.40557 0.58501 0.86364 0.0
C330 C 0.73369 0.24824 0.30494 0.0
C331 C 0.77308 0.25247 0.31585 0.0
C332 C 0.73825 0.26577 0.28425 0.0
C333 C 0.81537 0.29926 0.23686 0.0
H334 H 0.74929 0.36466 0.22031 0.0
C335 C 0.84601 0.39316 0.15541 0.0
C336 C 0.80663 0.39077 0.14525 0.0
C337 C 0.84247 0.3763 0.17618 0.0
C338 C 0.76754 0.34595 0.22455 0.0
H339 H 0.84839 0.27912 0.31354 0.0
H340 H 0.85619 0.30944 0.2776 0.0
H341 H 0.74178 0.33553 0.25652 0.0
H342 H 0.73225 0.36717 0.14873 0.0
H343 H 0.72593 0.33745 0.18471 0.0
H344 H 0.84087 0.30936 0.20486 0.0
C345 C 0.82167 0.29221 0.28493 0.0
C346 C 0.76325 0.32928 0.24536 0.0
C347 C 0.81718 0.27499 0.30563 0.0
C348 C 0.7635 0.37038 0.15622 0.0
C349 C 0.75991 0.3534 0.1769 0.0
C350 C 0.81953 0.31578 0.21601 0.0
C351 C 0.78226 0.28771 0.27394 0.0
C352 C 0.78703 0.30565 0.25178 0.0
C353 C 0.7994 0.35645 0.18726 0.0
C354 C 0.79556 0.33925 0.20955 0.0
H355 H 0.69919 0.23101 0.31229 0.0
H356 H 0.70707 0.26129 0.27618 0.0
H357 H 0.83371 0.28068 0.24119 0.0
H358 H 0.87988 0.40909 0.1475 0.0
H359 H 0.87378 0.37977 0.18371 0.0
C360 C 0.47155 0.73441 0.63759 0.0
C361 C 0.50545 0.77425 0.64865 0.0
C362 C 0.45872 0.73844 0.6168 0.0
C363 C 0.45958 0.82373 0.57819 0.0
H364 H 0.44767 0.73157 0.53638 0.0
C365 C 0.43512 0.84534 0.4885 0.0
C366 C 0.40431 0.80467 0.47701 0.0
C367 C 0.44778 0.84207 0.50943 0.0
C368 C 0.45023 0.75731 0.54789 0.0
H369 H 0.55193 0.84977 0.64654 0.0
H370 H 0.52968 0.85664 0.61035 0.0
H371 H 0.46783 0.72473 0.57297 0.0
H372 H 0.36189 0.72874 0.47871 0.0
H373 H 0.38349 0.72301 0.51514 0.0
H374 H 0.44159 0.85611 0.55318 0.0
C375 C 0.51272 0.82233 0.6178 0.0
C376 C 0.46184 0.75337 0.56889 0.0
C377 C 0.52565 0.8183 0.63854 0.0
C378 C 0.38639 0.7607 0.48696 0.0
C379 C 0.39883 0.75743 0.50789 0.0
C380 C 0.44773 0.82755 0.5572 0.0
C381 C 0.47935 0.7824 0.60661 0.0
C382 C 0.46664 0.78651 0.5843 0.0
C383 C 0.42974 0.79804 0.51941 0.0
C384 C 0.44286 0.79436 0.54176 0.0
H385 H 0.45527 0.69995 0.64487 0.0
H386 H 0.43248 0.70707 0.60872 0.0
H387 H 0.46246 0.84954 0.58973 0.0
H388 H 0.44992 0.87972 0.48123 0.0
H389 H 0.47222 0.87405 0.51767 0.0
C390 C 0.71102 0.5366 0.97042 0.0
C391 C 0.73844 0.51962 0.98 0.0
C392 C 0.69295 0.52248 0.94993 0.0
C393 C 0.71039 0.47356 0.9002 0.0
H394 H 0.58261 0.44461 0.88802 0.0
C395 C 0.62071 0.3966 0.81924 0.0
C396 C 0.59101 0.41198 0.81074 0.0
C397 C 0.63866 0.40916 0.83987 0.0
C398 C 0.61857 0.45315 0.89104 0.0
H399 H 0.76823 0.47426 0.97541 0.0
H400 H 0.73634 0.44932 0.93957 0.0
H401 H 0.61373 0.46693 0.92395 0.0
H402 H 0.55755 0.45334 0.81723 0.0
H403 H 0.58935 0.47587 0.8531 0.0
H404 H 0.71549 0.46034 0.86725 0.0
C405 C 0.72922 0.47395 0.94795 0.0
C406 C 0.63639 0.46584 0.91168 0.0
C407 C 0.74725 0.48801 0.96854 0.0
C408 C 0.57988 0.44045 0.82337 0.0
C409 C 0.59804 0.45324 0.84398 0.0
C410 C 0.69265 0.46107 0.87951 0.0
C411 C 0.70179 0.49099 0.93841 0.0
C412 C 0.68256 0.47634 0.91652 0.0
C413 C 0.62757 0.43764 0.85255 0.0
C414 C 0.64651 0.4508 0.87463 0.0
H415 H 0.70347 0.56101 0.97871 0.0
H416 H 0.67258 0.53684 0.94298 0.0
H417 H 0.74631 0.48203 0.90331 0.0
H418 H 0.62935 0.37397 0.81007 0.0
H419 H 0.66056 0.39577 0.84601 0.0
C420 C 0.34047 0.50486 0.06005 0.0
C421 C 0.29946 0.46094 0.06215 0.0
C422 C 0.3842 0.51014 0.06524 0.0
C423 C 0.44406 0.44389 0.06464 0.0
H424 H 0.54281 0.54972 0.09542 0.0
C425 C 0.62802 0.468 0.06751 0.0
C426 C 0.6653 0.51371 0.06401 0.0
C427 C 0.58349 0.46037 0.0727 0.0
C428 C 0.51567 0.52013 0.08669 0.0
H429 H 0.27131 0.38846 0.07186 0.0
H430 H 0.34828 0.39747 0.08046 0.0
H431 H 0.46317 0.53854 0.09451 0.0
H432 H 0.68658 0.58757 0.06434 0.0
H433 H 0.60775 0.57431 0.07206 0.0
H434 H 0.49623 0.42675 0.05559 0.0
C435 C 0.34641 0.42775 0.07493 0.0
C436 C 0.47016 0.51364 0.08629 0.0
C437 C 0.30258 0.42259 0.06998 0.0
C438 C 0.65806 0.55199 0.06675 0.0
C439 C 0.61304 0.54431 0.07141 0.0
C440 C 0.48949 0.45068 0.06477 0.0
C441 C 0.38757 0.47145 0.07237 0.0
C442 C 0.43423 0.47577 0.07503 0.0
C443 C 0.57499 0.49824 0.07386 0.0
C444 C 0.52602 0.48918 0.07558 0.0
H445 H 0.33886 0.53499 0.05412 0.0
H446 H 0.41555 0.54402 0.06287 0.0
H447 H 0.4171 0.4149 0.05553 0.0
H448 H 0.63308 0.43793 0.06594 0.0
H449 H 0.5554 0.42459 0.07517 0.0
C450 C 0.13 0.62329 0.4036 0.0
C451 C 0.12993 0.66595 0.40363 0.0
C452 C 0.09256 0.58324 0.41245 0.0
C453 C 0.96794 0.53179 0.41844 0.0
H454 H 0.97914 0.43161 0.44543 0.0
C455 C 0.8152 0.34618 0.41324 0.0
C456 C 0.8281 0.31363 0.40622 0.0
C457 C 0.84871 0.38874 0.42209 0.0
C458 C 0.97539 0.45929 0.43798 0.0
H459 H 0.09206 0.70116 0.41362 0.0
H460 H 0.02566 0.63043 0.42881 0.0
H461 H 0.04714 0.5111 0.44442 0.0
H462 H 0.88466 0.29785 0.40413 0.0
H463 H 0.94441 0.37378 0.41825 0.0
H464 H 0.89789 0.48017 0.41039 0.0
C465 C 0.05488 0.62819 0.42203 0.0
C466 C 0.01416 0.50473 0.43752 0.0
C467 C 0.09261 0.66845 0.41327 0.0
C468 C 0.87427 0.32287 0.40928 0.0
C469 C 0.90822 0.3661 0.41763 0.0
C470 C 0.92942 0.48646 0.41873 0.0
C471 C 0.05423 0.58509 0.42137 0.0
C472 C 0.01125 0.54083 0.42691 0.0
C473 C 0.89605 0.40015 0.42344 0.0
C474 C 0.9333 0.44927 0.42768 0.0
H475 H 0.15856 0.62057 0.39635 0.0
H476 H 0.09257 0.55031 0.41133 0.0
H477 H 0.96481 0.55881 0.40996 0.0
H478 H 0.77935 0.33916 0.41152 0.0
H479 H 0.83788 0.41358 0.42697 0.0
C480 C 0.43223 0.10177 0.74296 0.0
C481 C 0.46915 0.14739 0.73906 0.0
C482 C 0.44187 0.06798 0.75118 0.0
C483 C 0.46878 0.00158 0.77157 0.0
H484 H 0.57473 0.00712 0.74143 0.0
C485 C 0.55505 0.8792 0.74625 0.0
C486 C 0.51401 0.84171 0.73755 0.0
C487 C 0.55407 0.91796 0.75477 0.0
C488 C 0.5458 0.00545 0.75049 0.0
H489 H 0.54413 0.19536 0.74258 0.0
H490 H 0.56078 0.13711 0.75775 0.0
H491 H 0.56436 0.07493 0.74149 0.0
H492 H 0.43947 0.81385 0.73175 0.0
H493 H 0.43787 0.88167 0.74633 0.0
H494 H 0.44849 0.93027 0.779 0.0
C495 C 0.52471 0.12659 0.75368 0.0
C496 C 0.53978 0.04447 0.75057 0.0
C497 C 0.51522 0.15993 0.74499 0.0
C498 C 0.47165 0.84252 0.73825 0.0
C499 C 0.4706 0.88102 0.74688 0.0
C500 C 0.47462 0.96228 0.77132 0.0
C501 C 0.48851 0.07975 0.756 0.0
C502 C 0.5001 0.04232 0.76031 0.0
C503 C 0.51197 0.91951 0.7548 0.0
C504 C 0.51208 0.96336 0.75998 0.0
H505 H 0.39637 0.09164 0.73866 0.0
H506 H 0.41314 0.03215 0.75254 0.0
H507 H 0.43846 -0.00079 0.77964 0.0
H508 H 0.58806 0.87908 0.74601 0.0
H509 H 0.58642 0.94728 0.76078 0.0
C510 C 0.5992 0.65923 0.71364 0.0
C511 C 0.58626 0.67717 0.69626 0.0
C512 C 0.57361 0.61107 0.71817 0.0
C513 C 0.52282 0.5012 0.7123 0.0
H514 H 0.38716 0.44996 0.7109 0.0
C515 C 0.39948 0.31969 0.68251 0.0
C516 C 0.36746 0.28768 0.69722 0.0
C517 C 0.42238 0.36754 0.68674 0.0
C518 C 0.42487 0.46393 0.71181 0.0
H519 H 0.53964 0.65956 0.66916 0.0
H520 H 0.49568 0.5758 0.67685 0.0
H521 H 0.4401 0.53536 0.7107 0.0
H522 H 0.33109 0.28008 0.72702 0.0
H523 H 0.37077 0.36515 0.73417 0.0
H524 H 0.50763 0.42979 0.71187 0.0
C525 C 0.52464 0.59868 0.68718 0.0
C526 C 0.45504 0.51248 0.71159 0.0
C527 C 0.55018 0.64633 0.68261 0.0
C528 C 0.35519 0.30434 0.71531 0.0
C529 C 0.37819 0.35268 0.71953 0.0
C530 C 0.49266 0.45268 0.7123 0.0
C531 C 0.53491 0.58101 0.70542 0.0
C532 C 0.50414 0.53125 0.71086 0.0
C533 C 0.41345 0.38412 0.7057 0.0
C534 C 0.44364 0.43391 0.71113 0.0
H535 H 0.62649 0.68263 0.72454 0.0
H536 H 0.58229 0.59778 0.73218 0.0
H537 H 0.56054 0.51504 0.71176 0.0
H538 H 0.40952 0.30745 0.66852 0.0
H539 H 0.44892 0.39152 0.67571 0.0
C540 C 0.02918 0.35655 0.05551 0.0
C541 C 0.04738 0.35782 0.03514 0.0
C542 C 0.00356 0.3795 0.05927 0.0
C543 C 0.9377 0.42913 0.0352 0.0
H544 H 0.02004 0.5471 0.06391 0.0
C545 C 0.92085 0.5852 1.01498 0.0
C546 C 0.91498 0.60924 0.032 0.0
C547 C 0.93996 0.55634 0.01842 0.0
C548 C -0.0037 0.51409 0.05618 0.0
H549 H 0.04999 0.37947 1.00249 0.0
H550 H 0.00268 0.41678 1.00873 0.0
H551 H 0.03586 0.48161 0.06633 0.0
H552 H 0.9297 0.62735 0.06532 0.0
H553 H 0.96307 0.57609 0.07148 0.0
H554 H 0.89847 0.46113 0.02467 0.0
C555 C 0.00891 0.39913 0.02182 0.0
C556 C 0.00512 0.47666 0.0577 0.0
C557 C 0.03569 0.3777 0.01822 0.0
C558 C 0.93425 0.60919 0.05194 0.0
C559 C 0.95297 0.5796 0.05549 0.0
C560 C 0.92853 0.4661 0.03391 0.0
C561 C -0.00537 0.40213 0.04251 0.0
C562 C 0.97705 0.43479 0.04642 0.0
C563 C 0.9526 0.55038 0.03903 0.0
C564 C 0.95919 0.50975 0.04342 0.0
H565 H 0.03846 0.34187 0.06882 0.0
H566 H -0.00702 0.38178 0.07535 0.0
H567 H 0.91564 0.39705 0.02645 0.0
H568 H 0.90635 0.58503 0.99947 0.0
H569 H 0.94113 0.53564 1.00525 0.0
C570 C 0.32147 0.89981 0.34843 0.0
C571 C 0.2911 0.90411 0.36277 0.0
C572 C 0.36954 0.92238 0.35242 0.0
C573 C 0.45672 0.93823 0.37627 0.0
H574 H 0.54022 0.07315 0.37658 0.0
C575 C 0.66489 0.04346 0.38071 0.0
C576 C 0.68277 0.07342 0.36304 0.0
C577 C 0.61627 0.0188 0.38452 0.0
C578 C 0.5171 0.03539 0.37694 0.0
H579 H 0.28683 0.9377 0.39171 0.0
H580 H 0.37231 0.97899 0.39836 0.0
H581 H 0.45475 0.04122 0.37665 0.0
H582 H 0.66481 0.09833 0.33464 0.0
H583 H 0.58025 0.05491 0.34112 0.0
H584 H 0.51914 0.93249 0.37548 0.0
C585 C 0.35838 0.95751 0.38423 0.0
C586 C 0.46849 0.01728 0.37705 0.0
C587 C 0.30983 0.93454 0.38028 0.0
C588 C 0.65163 0.07527 0.34832 0.0
C589 C 0.60349 0.05102 0.35215 0.0
C590 C 0.50535 0.95634 0.37639 0.0
C591 C 0.38805 0.94979 0.37076 0.0
C592 C 0.43814 0.96867 0.37571 0.0
C593 C 0.58574 0.02435 0.3707 0.0
C594 C 0.53567 0.00501 0.37575 0.0
H595 H 0.30762 0.87637 0.33488 0.0
H596 H 0.39211 0.91691 0.34159 0.0
H597 H 0.43359 0.90049 0.37545 0.0
H598 H 0.68846 0.04218 0.39243 0.0
H599 H 0.60289 -0.00202 0.39884 0.0
C600 C 0.32265 0.17228 0.78634 0.0
C601 C 0.34973 0.21223 0.77375 0.0
C602 C 0.3087 0.17682 0.80687 0.0
C603 C 0.33894 0.26523 0.84996 0.0
H604 H 0.2168 0.17407 0.8725 0.0
C605 C 0.26468 0.29685 0.92757 0.0
C606 C 0.24297 0.25917 0.94194 0.0
C607 C 0.27741 0.29009 0.90721 0.0
C608 C 0.25121 0.19958 0.86649 0.0
H609 H 0.3819 0.28817 0.7726 0.0
H610 H 0.35685 0.29596 0.80796 0.0
H611 H 0.23867 0.16416 0.83655 0.0
H612 H 0.21715 0.1847 0.94607 0.0
H613 H 0.23943 0.17287 0.91044 0.0
H614 H 0.35113 0.301 0.87978 0.0
C615 C 0.34741 0.26116 0.80234 0.0
C616 C 0.26382 0.19387 0.84589 0.0
C617 C 0.36159 0.25666 0.78195 0.0
C618 C 0.23416 0.2145 0.93543 0.0
C619 C 0.24651 0.20764 0.91497 0.0
C620 C 0.32619 0.2711 0.87046 0.0
C621 C 0.32126 0.2214 0.81521 0.0
C622 C 0.30781 0.22676 0.8373 0.0
C623 C 0.26843 0.24541 0.90065 0.0
C624 C 0.28213 0.23846 0.87895 0.0
H625 H 0.31306 0.13756 0.78054 0.0
H626 H 0.289 0.14543 0.81636 0.0
H627 H 0.37352 0.29073 0.84414 0.0
H628 H 0.27232 0.33178 0.93215 0.0
H629 H 0.29386 0.31982 0.89651 0.0
C630 C 0.96372 0.27831 0.26332 0.0
C631 C 0.97723 0.25409 0.27748 0.0
C632 C 0.98181 0.28849 0.24268 0.0
C633 C 0.07907 0.29766 0.20882 0.0
H634 H -0.00342 0.29165 0.16322 0.0
C635 C 0.13236 0.32095 0.11939 0.0
C636 C 0.12166 0.35114 0.10788 0.0
C637 C 0.11508 0.30699 0.14007 0.0
C638 C 0.02012 0.29372 0.17581 0.0
H639 H 0.02034 0.22154 0.28107 0.0
H640 H 0.05149 0.23867 0.24488 0.0
H641 H 0.96591 0.27113 0.19924 0.0
H642 H 0.08423 0.3902 0.10912 0.0
H643 H 0.05412 0.36567 0.14493 0.0
H644 H 0.13316 0.31993 0.18513 0.0
C645 C 0.02752 0.25056 0.24984 0.0
C646 C 0.00262 0.28214 0.1965 0.0
C647 C 0.00963 0.24066 0.27059 0.0
C648 C 0.09322 0.36689 0.11747 0.0
C649 C 0.07566 0.35261 0.13798 0.0
C650 C 0.09649 0.30891 0.18804 0.0
C651 C 0.01364 0.27441 0.23558 0.0
C652 C 0.032 0.2846 0.21336 0.0
C653 C 0.08631 0.3225 0.14952 0.0
C654 C 0.06735 0.30768 0.17136 0.0
H655 H 0.93942 0.28984 0.26826 0.0
H656 H 0.97111 0.30787 0.23236 0.0
H657 H 0.10289 0.30045 0.22141 0.0
H658 H 0.15424 0.30827 0.11248 0.0
H659 H 0.12367 0.28356 0.14856 0.0
C660 C 0.67024 0.96439 0.59489 0.0
C661 C 0.70858 0.97628 0.60854 0.0
C662 C 0.67739 0.98386 0.57454 0.0
C663 C 0.7671 0.03989 0.53257 0.0
H664 H 0.68315 0.08216 0.51166 0.0
C665 C 0.79841 0.13974 0.45268 0.0
C666 C 0.75849 0.12942 0.44043 0.0
C667 C 0.79345 0.12127 0.47319 0.0
C668 C 0.70659 0.07 0.51711 0.0
H669 H 0.78458 0.01772 0.61141 0.0
H670 H 0.79706 0.05202 0.57587 0.0
H671 H 0.67236 0.0499 0.54738 0.0
H672 H 0.68206 0.09024 0.43989 0.0
H673 H 0.67348 0.05766 0.47534 0.0
H674 H 0.80104 0.05955 0.5022 0.0
C675 C 0.76146 0.02742 0.58092 0.0
C676 C 0.70043 0.05157 0.53764 0.0
C677 C 0.75428 0.00815 0.60135 0.0
C678 C 0.71359 0.09946 0.44897 0.0
C679 C 0.70865 0.08091 0.46939 0.0
C680 C 0.77315 0.05815 0.51197 0.0
C681 C 0.72307 0.01556 0.56729 0.0
C682 C 0.73045 0.03609 0.54559 0.0
C683 C 0.74846 0.09193 0.48188 0.0
C684 C 0.74281 0.07323 0.50394 0.0
H685 H 0.63454 0.94029 0.6 0.0
H686 H 0.64709 0.97362 0.56438 0.0
H687 H 0.79051 0.02778 0.53814 0.0
H688 H 0.83351 0.16279 0.4466 0.0
H689 H 0.8249 0.13086 0.48241 0.0
C690 C 0.59894 0.71426 0.78176 0.0
C691 C 0.61643 0.75883 0.77246 0.0
C692 C 0.6131 0.70967 0.80214 0.0
C693 C 0.70499 0.77378 0.84332 0.0
H694 H 0.61244 0.678 0.88047 0.0
C695 C 0.73889 0.75998 0.93292 0.0
C696 C 0.72517 0.71468 0.94052 0.0
C697 C 0.72614 0.76626 0.91246 0.0
C698 C 0.63879 0.70467 0.87023 0.0
H699 H 0.66275 0.83359 0.77734 0.0
H700 H 0.68673 0.82571 0.8131 0.0
H701 H 0.58956 0.68758 0.84481 0.0
H702 H 0.68666 0.64043 0.93274 0.0
H703 H 0.66431 0.65138 0.8971 0.0
H704 H 0.75396 0.7912 0.86903 0.0
C705 C 0.66272 0.79414 0.80447 0.0
C706 C 0.62575 0.71011 0.84972 0.0
C707 C 0.6488 0.79871 0.78398 0.0
C708 C 0.6981 0.6758 0.92729 0.0
C709 C 0.68495 0.68204 0.90694 0.0
C710 C 0.71791 0.76859 0.86392 0.0
C711 C 0.64484 0.74955 0.81389 0.0
C712 C 0.65873 0.74451 0.83591 0.0
C713 C 0.69891 0.72733 0.89926 0.0
C714 C 0.68502 0.73377 0.87755 0.0
H715 H 0.5742 0.68273 0.77329 0.0
H716 H 0.59929 0.6747 0.80863 0.0
H717 H 0.73155 0.8002 0.83308 0.0
H718 H 0.76006 0.79063 0.94268 0.0
H719 H 0.73714 0.80156 0.90704 0.0
C720 C 0.96219 0.74297 0.2686 0.0
C721 C -0.0052 0.73012 0.27581 0.0
C722 C 0.94421 0.73203 0.24788 0.0
C723 C 0.96842 0.69753 0.19496 0.0
H724 H 0.83793 0.66004 0.18366 0.0
C725 C 0.87591 0.61045 0.11624 0.0
C726 C 0.84728 0.62601 0.10671 0.0
C727 C 0.89422 0.62543 0.13663 0.0
C728 C 0.87458 0.67095 0.18654 0.0
H729 H 0.033 0.69441 0.26714 0.0
H730 H 0.0011 0.67451 0.23129 0.0
H731 H 0.86871 0.68093 0.21979 0.0
H732 H 0.81532 0.66947 0.11125 0.0
H733 H 0.84712 0.69538 0.14707 0.0
H734 H 0.97389 0.68646 0.16177 0.0
C735 C -0.00971 0.69423 0.24134 0.0
C736 C 0.89231 0.68302 0.20725 0.0
C737 C 0.0085 0.70549 0.26195 0.0
C738 C 0.8373 0.65688 0.11811 0.0
C739 C 0.85529 0.67152 0.13866 0.0
C740 C 0.95059 0.68509 0.17432 0.0
C741 C 0.95815 0.70763 0.23394 0.0
C742 C 0.93941 0.69614 0.21178 0.0
C743 C 0.88408 0.65605 0.1481 0.0
C744 C 0.90339 0.67133 0.16989 0.0
H745 H 0.95134 0.76242 0.27882 0.0
H746 H 0.92006 0.74351 0.2427 0.0
H747 H 0.00513 0.70848 0.19767 0.0
H748 H 0.8844 0.58669 0.10794 0.0
H749 H 0.91582 0.61244 0.14355 0.0
C750 C 0.21948 0.96251 0.60299 0.0
C751 C 0.2652 -0.00532 0.61009 0.0
C752 C 0.21202 0.94415 0.58234 0.0
C753 C 0.27226 0.92252 0.53794 0.0
H754 H 0.17171 0.91726 0.50338 0.0
C755 C 0.25763 0.87812 0.44867 0.0
C756 C 0.21253 0.84978 0.43996 0.0
C757 C 0.26306 0.89575 0.46934 0.0
C758 C 0.19956 0.91784 0.51288 0.0
H759 H 0.33898 0.03207 0.60118 0.0
H760 H 0.32597 5e-05 0.56522 0.0
H761 H 0.18262 0.94684 0.53977 0.0
H762 H 0.13767 0.81819 0.44612 0.0
H763 H 0.14707 0.84826 0.48235 0.0
H764 H 0.28899 0.89306 0.51131 0.0
C765 C 0.29588 -0.011 0.5756 0.0
C766 C 0.20583 0.93489 0.53374 0.0
C767 C 0.30329 0.00767 0.59615 0.0
C768 C 0.17293 0.84009 0.45231 0.0
C769 C 0.17836 0.85751 0.47308 0.0
C770 C 0.2658 0.90517 0.51717 0.0
C771 C 0.25016 0.95714 0.56842 0.0
C772 C 0.24248 0.93774 0.54646 0.0
C773 C 0.22353 0.88529 0.48194 0.0
C774 C 0.22959 0.90291 0.50427 0.0
H775 H 0.18938 0.9521 0.61329 0.0
H776 H 0.17641 0.91941 0.57734 0.0
H777 H 0.30034 0.92355 0.54743 0.0
H778 H 0.28894 0.88677 0.43953 0.0
H779 H 0.29841 0.91784 0.47539 0.0
loop_
_geom_bond_atom_site_label_1
_geom_bond_atom_site_label_2
_geom_bond_distance
_geom_bond_site_symmetry_2
_ccdc_geom_bond_type
Sm0 C2 2.846 . S
Sm0 O20 2.543 . S
Sm0 O21 2.450 . S
Sm0 O22 2.681 . S
Sm0 O23 2.464 . S
Sm0 O24 2.396 . S
Sm0 O28 2.386 . S
Sm0 O31 2.408 . S
Sm1 C11 2.846 1_554 S
Sm1 O22 2.386 . S
Sm1 O25 2.408 . S
Sm1 O26 2.543 1_554 S
Sm1 O27 2.450 1_554 S
Sm1 O28 2.681 . S
Sm1 O29 2.464 . S
Sm1 O30 2.396 1_554 S
C2 Sm0 2.846 . S
C2 C3 1.506 . S
C2 O20 1.261 . S
C2 O21 1.242 . S
C3 C2 1.506 . S
C3 C4 1.358 . S
C3 C8 1.382 . S
C4 C3 1.358 . S
C4 C5 1.385 . S
C4 H32 0.930 . S
C5 C4 1.385 . S
C5 C6 1.395 . S
C5 H33 0.929 . S
C6 C5 1.395 . S
C6 C7 1.335 . S
C7 C6 1.335 . S
C7 C8 1.398 . S
C7 H34 0.930 . S
C8 C3 1.382 . S
C8 C7 1.398 . S
C8 H35 0.929 . S
C9 O22 1.271 . S
C9 O23 1.251 . S
C10 O24 1.252 . S
C10 O25 1.272 . S
C11 Sm1 2.846 1_556 S
C11 C12 1.506 . S
C11 O26 1.261 . S
C11 O27 1.242 . S
C12 C11 1.506 . S
C12 C13 1.358 . S
C12 C17 1.382 . S
C13 C12 1.358 . S
C13 C14 1.385 . S
C13 H36 0.930 . S
C14 C13 1.385 . S
C14 C15 1.395 . S
C14 H37 0.929 . S
C15 C14 1.395 . S
C15 C16 1.335 . S
C16 C15 1.335 . S
C16 C17 1.398 . S
C16 H38 0.930 . S
C17 C12 1.382 . S
C17 C16 1.398 . S
C17 H39 0.929 . S
C18 O28 1.271 . S
C18 O29 1.251 . S
C19 O30 1.252 . S
C19 O31 1.272 1_556 S
O20 Sm0 2.543 . S
O20 C2 1.261 . S
O21 Sm0 2.450 . S
O21 C2 1.242 . S
O22 Sm0 2.681 . S
O22 Sm1 2.386 . S
O22 C9 1.271 . S
O23 Sm0 2.464 . S
O23 C9 1.251 . S
O24 Sm0 2.396 . S
O24 C10 1.252 . S
O25 Sm1 2.408 . S
O25 C10 1.272 . S
O26 Sm1 2.543 1_556 S
O26 C11 1.261 . S
O27 Sm1 2.450 1_556 S
O27 C11 1.242 . S
O28 Sm0 2.386 . S
O28 Sm1 2.681 . S
O28 C18 1.271 . S
O29 Sm1 2.464 . S
O29 C18 1.251 . S
O30 Sm1 2.396 1_556 S
O30 C19 1.252 . S
O31 Sm0 2.408 . S
O31 C19 1.272 1_554 S
H32 C4 0.930 . S
H33 C5 0.929 . S
H34 C7 0.930 . S
H35 C8 0.929 . S
H36 C13 0.930 . S
H37 C14 0.929 . S
H38 C16 0.930 . S
H39 C17 0.929 . S
Sm40 C42 2.846 . S
Sm40 O60 2.543 . S
Sm40 O61 2.450 . S
Sm40 O62 2.681 . S
Sm40 O63 2.464 . S
Sm40 O64 2.396 . S
Sm40 O68 2.386 . S
Sm40 O71 2.408 . S
Sm41 C51 2.846 . S
Sm41 O62 2.386 . S
Sm41 O65 2.408 . S
Sm41 O66 2.543 . S
Sm41 O67 2.450 . S
Sm41 O68 2.681 . S
Sm41 O69 2.464 . S
Sm41 O70 2.396 . S
C42 Sm40 2.846 . S
C42 C43 1.506 . S
C42 O60 1.261 . S
C42 O61 1.242 . S
C43 C42 1.506 . S
C43 C44 1.358 . S
C43 C48 1.382 . S
C44 C43 1.358 . S
C44 C45 1.385 . S
C44 H72 0.930 . S
C45 C44 1.385 . S
C45 C46 1.395 . S
C45 H73 0.929 . S
C46 C45 1.395 . S
C46 C47 1.335 . S
C47 C46 1.335 . S
C47 C48 1.398 . S
C47 H74 0.930 . S
C48 C43 1.382 . S
C48 C47 1.398 . S
C48 H75 0.929 . S
C49 O62 1.271 . S
C49 O63 1.251 . S
C50 O64 1.252 . S
C50 O65 1.272 . S
C51 Sm41 2.846 . S
C51 C52 1.506 . S
C51 O66 1.261 . S
C51 O67 1.242 . S
C52 C51 1.506 . S
C52 C53 1.358 . S
C52 C57 1.382 . S
C53 C52 1.358 . S
C53 C54 1.385 . S
C53 H76 0.930 . S
C54 C53 1.385 . S
C54 C55 1.395 . S
C54 H77 0.929 . S
C55 C54 1.395 . S
C55 C56 1.335 . S
C56 C55 1.335 . S
C56 C57 1.398 . S
C56 H78 0.930 . S
C57 C52 1.382 . S
C57 C56 1.398 . S
C57 H79 0.929 . S
C58 O68 1.271 . S
C58 O69 1.251 . S
C59 O70 1.252 . S
C59 O71 1.272 . S
O60 Sm40 2.543 . S
O60 C42 1.261 . S
O61 Sm40 2.450 . S
O61 C42 1.242 . S
O62 Sm40 2.681 . S
O62 Sm41 2.386 . S
O62 C49 1.271 . S
O63 Sm40 2.464 . S
O63 C49 1.251 . S
O64 Sm40 2.396 . S
O64 C50 1.252 . S
O65 Sm41 2.408 . S
O65 C50 1.272 . S
O66 Sm41 2.543 . S
O66 C51 1.261 . S
O67 Sm41 2.450 . S
O67 C51 1.242 . S
O68 Sm40 2.386 . S
O68 Sm41 2.681 . S
O68 C58 1.271 . S
O69 Sm41 2.464 . S
O69 C58 1.251 . S
O70 Sm41 2.396 . S
O70 C59 1.252 . S
O71 Sm40 2.408 . S
O71 C59 1.272 . S
H72 C44 0.930 . S
H73 C45 0.929 . S
H74 C47 0.930 . S
H75 C48 0.929 . S
H76 C53 0.930 . S
H77 C54 0.929 . S
H78 C56 0.930 . S
H79 C57 0.929 . S
Sm80 C82 2.846 . S
Sm80 O100 2.543 . S
Sm80 O101 2.450 . S
Sm80 O102 2.681 . S
Sm80 O103 2.464 . S
Sm80 O104 2.396 . S
Sm80 O108 2.386 . S
Sm80 O111 2.408 . S
Sm81 C91 2.846 . S
Sm81 O102 2.386 . S
Sm81 O105 2.408 . S
Sm81 O106 2.543 . S
Sm81 O107 2.450 . S
Sm81 O108 2.681 . S
Sm81 O109 2.464 . S
Sm81 O110 2.396 . S
C82 Sm80 2.846 . S
C82 C83 1.506 . S
C82 O100 1.261 . S
C82 O101 1.242 . S
C83 C82 1.506 . S
C83 C84 1.358 . S
C83 C88 1.382 . S
C84 C83 1.358 . S
C84 C85 1.385 . S
C84 H112 0.930 . S
C85 C84 1.385 . S
C85 C86 1.395 . S
C85 H113 0.929 . S
C86 C85 1.395 . S
C86 C87 1.335 . S
C87 C86 1.335 . S
C87 C88 1.398 . S
C87 H114 0.930 . S
C88 C83 1.382 . S
C88 C87 1.398 . S
C88 H115 0.929 . S
C89 O102 1.271 . S
C89 O103 1.251 . S
C90 O104 1.252 . S
C90 O105 1.272 . S
C91 Sm81 2.846 . S
C91 C92 1.506 . S
C91 O106 1.261 . S
C91 O107 1.242 . S
C92 C91 1.506 . S
C92 C93 1.358 . S
C92 C97 1.382 . S
C93 C92 1.358 . S
C93 C94 1.385 . S
C93 H116 0.930 . S
C94 C93 1.385 . S
C94 C95 1.395 . S
C94 H117 0.929 . S
C95 C94 1.395 . S
C95 C96 1.335 . S
C96 C95 1.335 . S
C96 C97 1.398 . S
C96 H118 0.930 . S
C97 C92 1.382 . S
C97 C96 1.398 . S
C97 H119 0.929 . S
C98 O108 1.271 . S
C98 O109 1.251 . S
C99 O110 1.252 . S
C99 O111 1.272 . S
O100 Sm80 2.543 . S
O100 C82 1.261 . S
O101 Sm80 2.450 . S
O101 C82 1.242 . S
O102 Sm80 2.681 . S
O102 Sm81 2.386 . S
O102 C89 1.271 . S
O103 Sm80 2.464 . S
O103 C89 1.251 . S
O104 Sm80 2.396 . S
O104 C90 1.252 . S
O105 Sm81 2.408 . S
O105 C90 1.272 . S
O106 Sm81 2.543 . S
O106 C91 1.261 . S
O107 Sm81 2.450 . S
O107 C91 1.242 . S
O108 Sm80 2.386 . S
O108 Sm81 2.681 . S
O108 C98 1.271 . S
O109 Sm81 2.464 . S
O109 C98 1.251 . S
O110 Sm81 2.396 . S
O110 C99 1.252 . S
O111 Sm80 2.408 . S
O111 C99 1.272 . S
H112 C84 0.930 . S
H113 C85 0.929 . S
H114 C87 0.930 . S
H115 C88 0.929 . S
H116 C93 0.930 . S
H117 C94 0.929 . S
H118 C96 0.930 . S
H119 C97 0.929 . S
Sm120 C122 2.846 . S
Sm120 O140 2.543 . S
Sm120 O141 2.450 . S
Sm120 O142 2.681 . S
Sm120 O143 2.464 . S
Sm120 O144 2.396 . S
Sm120 O148 2.386 . S
Sm120 O151 2.408 . S
Sm121 C131 2.846 1_554 S
Sm121 O142 2.386 . S
Sm121 O145 2.408 . S
Sm121 O146 2.543 1_554 S
Sm121 O147 2.450 1_554 S
Sm121 O148 2.681 . S
Sm121 O149 2.464 . S
Sm121 O150 2.396 1_554 S
C122 Sm120 2.846 . S
C122 C123 1.506 . S
C122 O140 1.261 . S
C122 O141 1.242 . S
C123 C122 1.506 . S
C123 C124 1.358 . S
C123 C128 1.382 . S
C124 C123 1.358 . S
C124 C125 1.385 . S
C124 H152 0.930 . S
C125 C124 1.385 . S
C125 C126 1.395 . S
C125 H153 0.929 . S
C126 C125 1.395 . S
C126 C127 1.335 . S
C127 C126 1.335 . S
C127 C128 1.398 . S
C127 H154 0.930 . S
C128 C123 1.382 . S
C128 C127 1.398 . S
C128 H155 0.929 . S
C129 O142 1.271 . S
C129 O143 1.251 . S
C130 O144 1.252 . S
C130 O145 1.272 . S
C131 Sm121 2.846 1_556 S
C131 C132 1.506 . S
C131 O146 1.261 . S
C131 O147 1.242 . S
C132 C131 1.506 . S
C132 C133 1.358 . S
C132 C137 1.382 . S
C133 C132 1.358 . S
C133 C134 1.385 . S
C133 H156 0.930 . S
C134 C133 1.385 . S
C134 C135 1.395 . S
C134 H157 0.929 . S
C135 C134 1.395 . S
C135 C136 1.335 . S
C136 C135 1.335 . S
C136 C137 1.398 . S
C136 H158 0.930 . S
C137 C132 1.382 . S
C137 C136 1.398 . S
C137 H159 0.929 . S
C138 O148 1.271 . S
C138 O149 1.251 . S
C139 O150 1.252 . S
C139 O151 1.272 1_556 S
O140 Sm120 2.543 . S
O140 C122 1.261 . S
O141 Sm120 2.450 . S
O141 C122 1.242 . S
O142 Sm120 2.681 . S
O142 Sm121 2.386 . S
O142 C129 1.271 . S
O143 Sm120 2.464 . S
O143 C129 1.251 . S
O144 Sm120 2.396 . S
O144 C130 1.252 . S
O145 Sm121 2.408 . S
O145 C130 1.272 . S
O146 Sm121 2.543 1_556 S
O146 C131 1.261 . S
O147 Sm121 2.450 1_556 S
O147 C131 1.242 . S
O148 Sm120 2.386 . S
O148 Sm121 2.681 . S
O148 C138 1.271 . S
O149 Sm121 2.464 . S
O149 C138 1.251 . S
O150 Sm121 2.396 1_556 S
O150 C139 1.252 . S
O151 Sm120 2.408 . S
O151 C139 1.272 1_554 S
H152 C124 0.930 . S
H153 C125 0.929 . S
H154 C127 0.930 . S
H155 C128 0.929 . S
H156 C133 0.930 . S
H157 C134 0.929 . S
H158 C136 0.930 . S
H159 C137 0.929 . S
Sm160 C162 2.846 . S
Sm160 O180 2.543 . S
Sm160 O181 2.450 . S
Sm160 O182 2.681 . S
Sm160 O183 2.464 . S
Sm160 O184 2.396 . S
Sm160 O188 2.386 . S
Sm160 O191 2.408 . S
Sm161 C171 2.846 . S
Sm161 O182 2.386 . S
Sm161 O185 2.408 . S
Sm161 O186 2.543 . S
Sm161 O187 2.450 . S
Sm161 O188 2.681 . S
Sm161 O189 2.464 . S
Sm161 O190 2.396 . S
C162 Sm160 2.846 . S
C162 C163 1.506 . S
C162 O180 1.261 . S
C162 O181 1.242 . S
C163 C162 1.506 . S
C163 C164 1.358 . S
C163 C168 1.382 . S
C164 C163 1.358 . S
C164 C165 1.385 . S
C164 H192 0.930 . S
C165 C164 1.385 . S
C165 C166 1.395 . S
C165 H193 0.929 . S
C166 C165 1.395 . S
C166 C167 1.335 . S
C167 C166 1.335 . S
C167 C168 1.398 . S
C167 H194 0.930 . S
C168 C163 1.382 . S
C168 C167 1.398 . S
C168 H195 0.929 . S
C169 O182 1.271 . S
C169 O183 1.251 . S
C170 O184 1.252 . S
C170 O185 1.272 . S
C171 Sm161 2.846 . S
C171 C172 1.506 . S
C171 O186 1.261 . S
C171 O187 1.242 . S
C172 C171 1.506 . S
C172 C173 1.358 . S
C172 C177 1.382 . S
C173 C172 1.358 . S
C173 C174 1.385 . S
C173 H196 0.930 . S
C174 C173 1.385 . S
C174 C175 1.395 . S
C174 H197 0.929 . S
C175 C174 1.395 . S
C175 C176 1.335 . S
C176 C175 1.335 . S
C176 C177 1.398 . S
C176 H198 0.930 . S
C177 C172 1.382 . S
C177 C176 1.398 . S
C177 H199 0.929 . S
C178 O188 1.271 . S
C178 O189 1.251 . S
C179 O190 1.252 . S
C179 O191 1.272 . S
O180 Sm160 2.543 . S
O180 C162 1.261 . S
O181 Sm160 2.450 . S
O181 C162 1.242 . S
O182 Sm160 2.681 . S
O182 Sm161 2.386 . S
O182 C169 1.271 . S
O183 Sm160 2.464 . S
O183 C169 1.251 . S
O184 Sm160 2.396 . S
O184 C170 1.252 . S
O185 Sm161 2.408 . S
O185 C170 1.272 . S
O186 Sm161 2.543 . S
O186 C171 1.261 . S
O187 Sm161 2.450 . S
O187 C171 1.242 . S
O188 Sm160 2.386 . S
O188 Sm161 2.681 . S
O188 C178 1.271 . S
O189 Sm161 2.464 . S
O189 C178 1.251 . S
O190 Sm161 2.396 . S
O190 C179 1.252 . S
O191 Sm160 2.408 . S
O191 C179 1.272 . S
H192 C164 0.930 . S
H193 C165 0.929 . S
H194 C167 0.930 . S
H195 C168 0.929 . S
H196 C173 0.930 . S
H197 C174 0.929 . S
H198 C176 0.930 . S
H199 C177 0.929 . S
Sm200 C202 2.846 . S
Sm200 O220 2.543 . S
Sm200 O221 2.450 . S
Sm200 O222 2.681 . S
Sm200 O223 2.464 . S
Sm200 O224 2.396 . S
Sm200 O228 2.386 . S
Sm200 O231 2.408 . S
Sm201 C211 2.846 . S
Sm201 O222 2.386 . S
Sm201 O225 2.408 . S
Sm201 O226 2.543 . S
Sm201 O227 2.450 . S
Sm201 O228 2.681 . S
Sm201 O229 2.464 . S
Sm201 O230 2.396 . S
C202 Sm200 2.846 . S
C202 C203 1.506 . S
C202 O220 1.261 . S
C202 O221 1.242 . S
C203 C202 1.506 . S
C203 C204 1.358 . S
C203 C208 1.382 . S
C204 C203 1.358 . S
C204 C205 1.385 . S
C204 H232 0.930 . S
C205 C204 1.385 . S
C205 C206 1.395 . S
C205 H233 0.929 . S
C206 C205 1.395 . S
C206 C207 1.335 . S
C207 C206 1.335 . S
C207 C208 1.398 . S
C207 H234 0.930 . S
C208 C203 1.382 . S
C208 C207 1.398 . S
C208 H235 0.929 . S
C209 O222 1.271 . S
C209 O223 1.251 . S
C210 O224 1.252 . S
C210 O225 1.272 . S
C211 Sm201 2.846 . S
C211 C212 1.506 . S
C211 O226 1.261 . S
C211 O227 1.242 . S
C212 C211 1.506 . S
C212 C213 1.358 . S
C212 C217 1.382 . S
C213 C212 1.358 . S
C213 C214 1.385 . S
C213 H236 0.930 . S
C214 C213 1.385 . S
C214 C215 1.395 . S
C214 H237 0.929 . S
C215 C214 1.395 . S
C215 C216 1.335 . S
C216 C215 1.335 . S
C216 C217 1.398 . S
C216 H238 0.930 . S
C217 C212 1.382 . S
C217 C216 1.398 . S
C217 H239 0.929 . S
C218 O228 1.271 . S
C218 O229 1.251 . S
C219 O230 1.252 . S
C219 O231 1.272 . S
O220 Sm200 2.543 . S
O220 C202 1.261 . S
O221 Sm200 2.450 . S
O221 C202 1.242 . S
O222 Sm200 2.681 . S
O222 Sm201 2.386 . S
O222 C209 1.271 . S
O223 Sm200 2.464 . S
O223 C209 1.251 . S
O224 Sm200 2.396 . S
O224 C210 1.252 . S
O225 Sm201 2.408 . S
O225 C210 1.272 . S
O226 Sm201 2.543 . S
O226 C211 1.261 . S
O227 Sm201 2.450 . S
O227 C211 1.242 . S
O228 Sm200 2.386 . S
O228 Sm201 2.681 . S
O228 C218 1.271 . S
O229 Sm201 2.464 . S
O229 C218 1.251 . S
O230 Sm201 2.396 . S
O230 C219 1.252 . S
O231 Sm200 2.408 . S
O231 C219 1.272 . S
H232 C204 0.930 . S
H233 C205 0.929 . S
H234 C207 0.930 . S
H235 C208 0.929 . S
H236 C213 0.930 . S
H237 C214 0.929 . S
H238 C216 0.930 . S
H239 C217 0.929 . S
C240 C241 1.349 . S
C240 C242 1.327 . S
C240 H265 0.950 . S
C241 C240 1.349 . S
C241 C257 1.349 . S
C242 C240 1.327 . S
C242 C261 1.429 . S
C242 H266 0.950 . S
C243 C260 1.574 . S
C243 C262 1.368 . S
C243 H267 0.949 . S
H244 C248 0.949 . S
C245 C246 1.349 . S
C245 C247 1.327 . S
C245 H268 0.950 . S
C246 C245 1.349 . S
C246 C258 1.349 . S
C247 C245 1.327 . S
C247 C263 1.429 . S
C247 H269 0.950 . S
C248 H244 0.949 . S
C248 C256 1.574 . S
C248 C264 1.368 . S
H249 C257 0.950 . S
H250 C255 0.950 . S
H251 C256 0.949 . S
H252 C258 0.950 . S
H253 C259 0.950 . S
H254 C260 0.949 . S
C255 H250 0.950 . S
C255 C257 1.327 . S
C255 C261 1.429 . S
C256 C248 1.574 . S
C256 H251 0.949 . S
C256 C262 1.368 . S
C257 C241 1.349 . S
C257 H249 0.950 . S
C257 C255 1.327 . S
C258 C246 1.349 . S
C258 H252 0.950 . S
C258 C259 1.327 . S
C259 H253 0.950 . S
C259 C258 1.327 . S
C259 C263 1.429 . S
C260 C243 1.574 . S
C260 H254 0.949 . S
C260 C264 1.368 . S
C261 C242 1.429 . S
C261 C255 1.429 . S
C261 C262 1.523 . S
C262 C243 1.368 . S
C262 C256 1.368 . S
C262 C261 1.523 . S
C263 C247 1.429 . S
C263 C259 1.429 . S
C263 C264 1.523 . S
C264 C248 1.368 . S
C264 C260 1.368 . S
C264 C263 1.523 . S
H265 C240 0.950 . S
H266 C242 0.950 . S
H267 C243 0.949 . S
H268 C245 0.950 . S
H269 C247 0.950 . S
C270 C271 1.349 . S
C270 C272 1.327 . S
C270 H295 0.950 . S
C271 C270 1.349 . S
C271 C287 1.349 . S
C272 C270 1.327 . S
C272 C291 1.429 . S
C272 H296 0.950 . S
C273 C290 1.574 . S
C273 C292 1.368 . S
C273 H297 0.949 . S
H274 C278 0.949 . S
C275 C276 1.349 . S
C275 C277 1.327 . S
C275 H298 0.950 . S
C276 C275 1.349 . S
C276 C288 1.349 . S
C277 C275 1.327 . S
C277 C293 1.429 . S
C277 H299 0.950 . S
C278 H274 0.949 . S
C278 C286 1.574 . S
C278 C294 1.368 . S
H279 C287 0.950 . S
H280 C285 0.950 . S
H281 C286 0.949 . S
H282 C288 0.950 . S
H283 C289 0.950 . S
H284 C290 0.949 . S
C285 H280 0.950 . S
C285 C287 1.327 . S
C285 C291 1.429 . S
C286 C278 1.574 . S
C286 H281 0.949 . S
C286 C292 1.368 . S
C287 C271 1.349 . S
C287 H279 0.950 . S
C287 C285 1.327 . S
C288 C276 1.349 . S
C288 H282 0.950 . S
C288 C289 1.327 . S
C289 H283 0.950 . S
C289 C288 1.327 . S
C289 C293 1.429 . S
C290 C273 1.574 . S
C290 H284 0.949 . S
C290 C294 1.368 . S
C291 C272 1.429 . S
C291 C285 1.429 . S
C291 C292 1.523 . S
C292 C273 1.368 . S
C292 C286 1.368 . S
C292 C291 1.523 . S
C293 C277 1.429 . S
C293 C289 1.429 . S
C293 C294 1.523 . S
C294 C278 1.368 . S
C294 C290 1.368 . S
C294 C293 1.523 . S
H295 C270 0.950 . S
H296 C272 0.950 . S
H297 C273 0.949 . S
H298 C275 0.950 . S
H299 C277 0.950 . S
C300 C301 1.349 . S
C300 C302 1.327 . S
C300 H325 0.950 . S
C301 C300 1.349 . S
C301 C317 1.349 . S
C302 C300 1.327 . S
C302 C321 1.429 . S
C302 H326 0.950 . S
C303 C320 1.574 . S
C303 C322 1.368 . S
C303 H327 0.949 . S
H304 C308 0.949 . S
C305 C306 1.349 . S
C305 C307 1.327 . S
C305 H328 0.950 . S
C306 C305 1.349 . S
C306 C318 1.349 . S
C307 C305 1.327 . S
C307 C323 1.429 . S
C307 H329 0.950 . S
C308 H304 0.949 . S
C308 C316 1.574 . S
C308 C324 1.368 . S
H309 C317 0.950 . S
H310 C315 0.950 . S
H311 C316 0.949 . S
H312 C318 0.950 . S
H313 C319 0.950 . S
H314 C320 0.949 . S
C315 H310 0.950 . S
C315 C317 1.327 . S
C315 C321 1.429 . S
C316 C308 1.574 . S
C316 H311 0.949 . S
C316 C322 1.368 . S
C317 C301 1.349 . S
C317 H309 0.950 . S
C317 C315 1.327 . S
C318 C306 1.349 . S
C318 H312 0.950 . S
C318 C319 1.327 . S
C319 H313 0.950 . S
C319 C318 1.327 . S
C319 C323 1.429 . S
C320 C303 1.574 . S
C320 H314 0.949 . S
C320 C324 1.368 . S
C321 C302 1.429 . S
C321 C315 1.429 . S
C321 C322 1.523 . S
C322 C303 1.368 . S
C322 C316 1.368 . S
C322 C321 1.523 . S
C323 C307 1.429 . S
C323 C319 1.429 . S
C323 C324 1.523 . S
C324 C308 1.368 . S
C324 C320 1.368 . S
C324 C323 1.523 . S
H325 C300 0.950 . S
H326 C302 0.950 . S
H327 C303 0.949 . S
H328 C305 0.950 . S
H329 C307 0.950 . S
C330 C331 1.349 . S
C330 C332 1.327 . S
C330 H355 0.950 . S
C331 C330 1.349 . S
C331 C347 1.349 . S
C332 C330 1.327 . S
C332 C351 1.429 . S
C332 H356 0.950 . S
C333 C350 1.574 . S
C333 C352 1.368 . S
C333 H357 0.949 . S
H334 C338 0.949 . S
C335 C336 1.349 . S
C335 C337 1.327 . S
C335 H358 0.950 . S
C336 C335 1.349 . S
C336 C348 1.349 . S
C337 C335 1.327 . S
C337 C353 1.429 . S
C337 H359 0.950 . S
C338 H334 0.949 . S
C338 C346 1.574 . S
C338 C354 1.368 . S
H339 C347 0.950 . S
H340 C345 0.950 . S
H341 C346 0.949 . S
H342 C348 0.950 . S
H343 C349 0.950 . S
H344 C350 0.949 . S
C345 H340 0.950 . S
C345 C347 1.327 . S
C345 C351 1.429 . S
C346 C338 1.574 . S
C346 H341 0.949 . S
C346 C352 1.368 . S
C347 C331 1.349 . S
C347 H339 0.950 . S
C347 C345 1.327 . S
C348 C336 1.349 . S
C348 H342 0.950 . S
C348 C349 1.327 . S
C349 H343 0.950 . S
C349 C348 1.327 . S
C349 C353 1.429 . S
C350 C333 1.574 . S
C350 H344 0.949 . S
C350 C354 1.368 . S
C351 C332 1.429 . S
C351 C345 1.429 . S
C351 C352 1.523 . S
C352 C333 1.368 . S
C352 C346 1.368 . S
C352 C351 1.523 . S
C353 C337 1.429 . S
C353 C349 1.429 . S
C353 C354 1.523 . S
C354 C338 1.368 . S
C354 C350 1.368 . S
C354 C353 1.523 . S
H355 C330 0.950 . S
H356 C332 0.950 . S
H357 C333 0.949 . S
H358 C335 0.950 . S
H359 C337 0.950 . S
C360 C361 1.349 . S
C360 C362 1.327 . S
C360 H385 0.950 . S
C361 C360 1.349 . S
C361 C377 1.349 . S
C362 C360 1.327 . S
C362 C381 1.429 . S
C362 H386 0.950 . S
C363 C380 1.574 . S
C363 C382 1.368 . S
C363 H387 0.949 . S
H364 C368 0.949 . S
C365 C366 1.349 . S
C365 C367 1.327 . S
C365 H388 0.950 . S
C366 C365 1.349 . S
C366 C378 1.349 . S
C367 C365 1.327 . S
C367 C383 1.429 . S
C367 H389 0.950 . S
C368 H364 0.949 . S
C368 C376 1.574 . S
C368 C384 1.368 . S
H369 C377 0.950 . S
H370 C375 0.950 . S
H371 C376 0.949 . S
H372 C378 0.950 . S
H373 C379 0.950 . S
H374 C380 0.949 . S
C375 H370 0.950 . S
C375 C377 1.327 . S
C375 C381 1.429 . S
C376 C368 1.574 . S
C376 H371 0.949 . S
C376 C382 1.368 . S
C377 C361 1.349 . S
C377 H369 0.950 . S
C377 C375 1.327 . S
C378 C366 1.349 . S
C378 H372 0.950 . S
C378 C379 1.327 . S
C379 H373 0.950 . S
C379 C378 1.327 . S
C379 C383 1.429 . S
C380 C363 1.574 . S
C380 H374 0.949 . S
C380 C384 1.368 . S
C381 C362 1.429 . S
C381 C375 1.429 . S
C381 C382 1.523 . S
C382 C363 1.368 . S
C382 C376 1.368 . S
C382 C381 1.523 . S
C383 C367 1.429 . S
C383 C379 1.429 . S
C383 C384 1.523 . S
C384 C368 1.368 . S
C384 C380 1.368 . S
C384 C383 1.523 . S
H385 C360 0.950 . S
H386 C362 0.950 . S
H387 C363 0.949 . S
H388 C365 0.950 . S
H389 C367 0.950 . S
C390 C391 1.349 . S
C390 C392 1.327 . S
C390 H415 0.950 . S
C391 C390 1.349 . S
C391 C407 1.349 . S
C392 C390 1.327 . S
C392 C411 1.429 . S
C392 H416 0.950 . S
C393 C410 1.574 . S
C393 C412 1.368 . S
C393 H417 0.949 . S
H394 C398 0.949 . S
C395 C396 1.349 . S
C395 C397 1.327 . S
C395 H418 0.950 . S
C396 C395 1.349 . S
C396 C408 1.349 . S
C397 C395 1.327 . S
C397 C413 1.429 . S
C397 H419 0.950 . S
C398 H394 0.949 . S
C398 C406 1.574 . S
C398 C414 1.368 . S
H399 C407 0.950 . S
H400 C405 0.950 . S
H401 C406 0.949 . S
H402 C408 0.950 . S
H403 C409 0.950 . S
H404 C410 0.949 . S
C405 H400 0.950 . S
C405 C407 1.327 . S
C405 C411 1.429 . S
C406 C398 1.574 . S
C406 H401 0.949 . S
C406 C412 1.368 . S
C407 C391 1.349 . S
C407 H399 0.950 . S
C407 C405 1.327 . S
C408 C396 1.349 . S
C408 H402 0.950 . S
C408 C409 1.327 . S
C409 H403 0.950 . S
C409 C408 1.327 . S
C409 C413 1.429 . S
C410 C393 1.574 . S
C410 H404 0.949 . S
C410 C414 1.368 . S
C411 C392 1.429 . S
C411 C405 1.429 . S
C411 C412 1.523 . S
C412 C393 1.368 . S
C412 C406 1.368 . S
C412 C411 1.523 . S
C413 C397 1.429 . S
C413 C409 1.429 . S
C413 C414 1.523 . S
C414 C398 1.368 . S
C414 C410 1.368 . S
C414 C413 1.523 . S
H415 C390 0.950 . S
H416 C392 0.950 . S
H417 C393 0.949 . S
H418 C395 0.950 . S
H419 C397 0.950 . S
C420 C421 1.349 . S
C420 C422 1.327 . S
C420 H445 0.950 . S
C421 C420 1.349 . S
C421 C437 1.349 . S
C422 C420 1.327 . S
C422 C441 1.429 . S
C422 H446 0.950 . S
C423 C440 1.574 . S
C423 C442 1.368 . S
C423 H447 0.949 . S
H424 C428 0.949 . S
C425 C426 1.349 . S
C425 C427 1.327 . S
C425 H448 0.950 . S
C426 C425 1.349 . S
C426 C438 1.349 . S
C427 C425 1.327 . S
C427 C443 1.429 . S
C427 H449 0.950 . S
C428 H424 0.949 . S
C428 C436 1.574 . S
C428 C444 1.368 . S
H429 C437 0.950 . S
H430 C435 0.950 . S
H431 C436 0.949 . S
H432 C438 0.950 . S
H433 C439 0.950 . S
H434 C440 0.949 . S
C435 H430 0.950 . S
C435 C437 1.327 . S
C435 C441 1.429 . S
C436 C428 1.574 . S
C436 H431 0.949 . S
C436 C442 1.368 . S
C437 C421 1.349 . S
C437 H429 0.950 . S
C437 C435 1.327 . S
C438 C426 1.349 . S
C438 H432 0.950 . S
C438 C439 1.327 . S
C439 H433 0.950 . S
C439 C438 1.327 . S
C439 C443 1.429 . S
C440 C423 1.574 . S
C440 H434 0.949 . S
C440 C444 1.368 . S
C441 C422 1.429 . S
C441 C435 1.429 . S
C441 C442 1.523 . S
C442 C423 1.368 . S
C442 C436 1.368 . S
C442 C441 1.523 . S
C443 C427 1.429 . S
C443 C439 1.429 . S
C443 C444 1.523 . S
C444 C428 1.368 . S
C444 C440 1.368 . S
C444 C443 1.523 . S
H445 C420 0.950 . S
H446 C422 0.950 . S
H447 C423 0.949 . S
H448 C425 0.950 . S
H449 C427 0.950 . S
C450 C451 1.349 . S
C450 C452 1.327 . S
C450 H475 0.950 . S
C451 C450 1.349 . S
C451 C467 1.349 . S
C452 C450 1.327 . S
C452 C471 1.429 . S
C452 H476 0.950 . S
C453 C470 1.574 . S
C453 C472 1.368 1_655 S
C453 H477 0.949 . S
H454 C458 0.949 . S
C455 C456 1.349 . S
C455 C457 1.327 . S
C455 H478 0.950 . S
C456 C455 1.349 . S
C456 C468 1.349 . S
C457 C455 1.327 . S
C457 C473 1.429 . S
C457 H479 0.950 . S
C458 H454 0.949 . S
C458 C466 1.574 . S
C458 C474 1.368 1_455 S
H459 C467 0.950 . S
H460 C465 0.950 . S
H461 C466 0.949 . S
H462 C468 0.950 . S
H463 C469 0.950 . S
H464 C470 0.949 . S
C465 H460 0.950 . S
C465 C467 1.327 . S
C465 C471 1.429 . S
C466 C458 1.574 . S
C466 H461 0.949 . S
C466 C472 1.368 . S
C467 C451 1.349 . S
C467 H459 0.950 . S
C467 C465 1.327 . S
C468 C456 1.349 . S
C468 H462 0.950 . S
C468 C469 1.327 . S
C469 H463 0.950 . S
C469 C468 1.327 . S
C469 C473 1.429 . S
C470 C453 1.574 . S
C470 H464 0.949 . S
C470 C474 1.368 . S
C471 C452 1.429 . S
C471 C465 1.429 . S
C471 C472 1.523 . S
C472 C453 1.368 1_455 S
C472 C466 1.368 . S
C472 C471 1.523 . S
C473 C457 1.429 . S
C473 C469 1.429 . S
C473 C474 1.523 . S
C474 C458 1.368 1_655 S
C474 C470 1.368 . S
C474 C473 1.523 . S
H475 C450 0.950 . S
H476 C452 0.950 . S
H477 C453 0.949 . S
H478 C455 0.950 . S
H479 C457 0.950 . S
C480 C481 1.349 . S
C480 C482 1.327 . S
C480 H505 0.950 . S
C481 C480 1.349 . S
C481 C497 1.349 . S
C482 C480 1.327 . S
C482 C501 1.429 . S
C482 H506 0.950 . S
C483 C500 1.574 . S
C483 C502 1.368 1_565 S
C483 H507 0.949 . S
H484 C488 0.949 . S
C485 C486 1.349 . S
C485 C487 1.327 . S
C485 H508 0.950 . S
C486 C485 1.349 . S
C486 C498 1.349 . S
C487 C485 1.327 . S
C487 C503 1.429 . S
C487 H509 0.950 . S
C488 H484 0.949 . S
C488 C496 1.574 . S
C488 C504 1.368 1_545 S
H489 C497 0.950 . S
H490 C495 0.950 . S
H491 C496 0.949 . S
H492 C498 0.950 . S
H493 C499 0.950 . S
H494 C500 0.949 . S
C495 H490 0.950 . S
C495 C497 1.327 . S
C495 C501 1.429 . S
C496 C488 1.574 . S
C496 H491 0.949 . S
C496 C502 1.368 . S
C497 C481 1.349 . S
C497 H489 0.950 . S
C497 C495 1.327 . S
C498 C486 1.349 . S
C498 H492 0.950 . S
C498 C499 1.327 . S
C499 H493 0.950 . S
C499 C498 1.327 . S
C499 C503 1.429 . S
C500 C483 1.574 . S
C500 H494 0.949 . S
C500 C504 1.368 . S
C501 C482 1.429 . S
C501 C495 1.429 . S
C501 C502 1.523 . S
C502 C483 1.368 1_545 S
C502 C496 1.368 . S
C502 C501 1.523 . S
C503 C487 1.429 . S
C503 C499 1.429 . S
C503 C504 1.523 . S
C504 C488 1.368 1_565 S
C504 C500 1.368 . S
C504 C503 1.523 . S
H505 C480 0.950 . S
H506 C482 0.950 . S
H507 C483 0.949 . S
H508 C485 0.950 . S
H509 C487 0.950 . S
C510 C511 1.349 . S
C510 C512 1.327 . S
C510 H535 0.950 . S
C511 C510 1.349 . S
C511 C527 1.349 . S
C512 C510 1.327 . S
C512 C531 1.429 . S
C512 H536 0.950 . S
C513 C530 1.574 . S
C513 C532 1.368 . S
C513 H537 0.949 . S
H514 C518 0.949 . S
C515 C516 1.349 . S
C515 C517 1.327 . S
C515 H538 0.950 . S
C516 C515 1.349 . S
C516 C528 1.349 . S
C517 C515 1.327 . S
C517 C533 1.429 . S
C517 H539 0.950 . S
C518 H514 0.949 . S
C518 C526 1.574 . S
C518 C534 1.368 . S
H519 C527 0.950 . S
H520 C525 0.950 . S
H521 C526 0.949 . S
H522 C528 0.950 . S
H523 C529 0.950 . S
H524 C530 0.949 . S
C525 H520 0.950 . S
C525 C527 1.327 . S
C525 C531 1.429 . S
C526 C518 1.574 . S
C526 H521 0.949 . S
C526 C532 1.368 . S
C527 C511 1.349 . S
C527 H519 0.950 . S
C527 C525 1.327 . S
C528 C516 1.349 . S
C528 H522 0.950 . S
C528 C529 1.327 . S
C529 H523 0.950 . S
C529 C528 1.327 . S
C529 C533 1.429 . S
C530 C513 1.574 . S
C530 H524 0.949 . S
C530 C534 1.368 . S
C531 C512 1.429 . S
C531 C525 1.429 . S
C531 C532 1.523 . S
C532 C513 1.368 . S
C532 C526 1.368 . S
C532 C531 1.523 . S
C533 C517 1.429 . S
C533 C529 1.429 . S
C533 C534 1.523 . S
C534 C518 1.368 . S
C534 C530 1.368 . S
C534 C533 1.523 . S
H535 C510 0.950 . S
H536 C512 0.950 . S
H537 C513 0.949 . S
H538 C515 0.950 . S
H539 C517 0.950 . S
C540 C541 1.349 . S
C540 C542 1.327 . S
C540 H565 0.950 . S
C541 C540 1.349 . S
C541 C557 1.349 . S
C542 C540 1.327 . S
C542 C561 1.429 . S
C542 H566 0.950 . S
C543 C560 1.574 . S
C543 C562 1.368 1_655 S
C543 H567 0.949 1_554 S
H544 C548 0.949 . S
C545 C546 1.349 . S
C545 C547 1.327 . S
C545 H568 0.950 1_554 S
C546 C545 1.349 . S
C546 C558 1.349 . S
C547 C545 1.327 . S
C547 C563 1.429 . S
C547 H569 0.950 1_554 S
C548 H544 0.949 . S
C548 C556 1.574 . S
C548 C564 1.368 1_455 S
H549 C557 0.950 1_556 S
H550 C555 0.950 1_556 S
H551 C556 0.949 . S
H552 C558 0.950 . S
H553 C559 0.950 . S
H554 C560 0.949 1_556 S
C555 H550 0.950 1_554 S
C555 C557 1.327 . S
C555 C561 1.429 . S
C556 C548 1.574 . S
C556 H551 0.949 . S
C556 C562 1.368 . S
C557 C541 1.349 . S
C557 H549 0.950 1_554 S
C557 C555 1.327 . S
C558 C546 1.349 . S
C558 H552 0.950 . S
C558 C559 1.327 . S
C559 H553 0.950 . S
C559 C558 1.327 . S
C559 C563 1.429 . S
C560 C543 1.574 . S
C560 H554 0.949 1_554 S
C560 C564 1.368 . S
C561 C542 1.429 . S
C561 C555 1.429 . S
C561 C562 1.523 . S
C562 C543 1.368 1_455 S
C562 C556 1.368 . S
C562 C561 1.523 . S
C563 C547 1.429 . S
C563 C559 1.429 . S
C563 C564 1.523 . S
C564 C548 1.368 1_655 S
C564 C560 1.368 . S
C564 C563 1.523 . S
H565 C540 0.950 . S
H566 C542 0.950 . S
H567 C543 0.949 1_556 S
H568 C545 0.950 1_556 S
H569 C547 0.950 1_556 S
C570 C571 1.349 . S
C570 C572 1.327 . S
C570 H595 0.950 . S
C571 C570 1.349 . S
C571 C587 1.349 . S
C572 C570 1.327 . S
C572 C591 1.429 . S
C572 H596 0.950 . S
C573 C590 1.574 . S
C573 C592 1.368 . S
C573 H597 0.949 . S
H574 C578 0.949 . S
C575 C576 1.349 . S
C575 C577 1.327 . S
C575 H598 0.950 . S
C576 C575 1.349 . S
C576 C588 1.349 . S
C577 C575 1.327 . S
C577 C593 1.429 . S
C577 H599 0.950 . S
C578 H574 0.949 . S
C578 C586 1.574 . S
C578 C594 1.368 . S
H579 C587 0.950 . S
H580 C585 0.950 . S
H581 C586 0.949 . S
H582 C588 0.950 . S
H583 C589 0.950 . S
H584 C590 0.949 . S
C585 H580 0.950 . S
C585 C587 1.327 . S
C585 C591 1.429 . S
C586 C578 1.574 . S
C586 H581 0.949 . S
C586 C592 1.368 1_545 S
C587 C571 1.349 . S
C587 H579 0.950 . S
C587 C585 1.327 . S
C588 C576 1.349 . S
C588 H582 0.950 . S
C588 C589 1.327 . S
C589 H583 0.950 . S
C589 C588 1.327 . S
C589 C593 1.429 . S
C590 C573 1.574 . S
C590 H584 0.949 . S
C590 C594 1.368 1_565 S
C591 C572 1.429 . S
C591 C585 1.429 . S
C591 C592 1.523 . S
C592 C573 1.368 . S
C592 C586 1.368 1_565 S
C592 C591 1.523 . S
C593 C577 1.429 . S
C593 C589 1.429 . S
C593 C594 1.523 . S
C594 C578 1.368 . S
C594 C590 1.368 1_545 S
C594 C593 1.523 . S
H595 C570 0.950 . S
H596 C572 0.950 . S
H597 C573 0.949 . S
H598 C575 0.950 . S
H599 C577 0.950 . S
C600 C601 1.349 . S
C600 C602 1.327 . S
C600 H625 0.950 . S
C601 C600 1.349 . S
C601 C617 1.349 . S
C602 C600 1.327 . S
C602 C621 1.429 . S
C602 H626 0.950 . S
C603 C620 1.574 . S
C603 C622 1.368 . S
C603 H627 0.949 . S
H604 C608 0.949 . S
C605 C606 1.349 . S
C605 C607 1.327 . S
C605 H628 0.950 . S
C606 C605 1.349 . S
C606 C618 1.349 . S
C607 C605 1.327 . S
C607 C623 1.429 . S
C607 H629 0.950 . S
C608 H604 0.949 . S
C608 C616 1.574 . S
C608 C624 1.368 . S
H609 C617 0.950 . S
H610 C615 0.950 . S
H611 C616 0.949 . S
H612 C618 0.950 . S
H613 C619 0.950 . S
H614 C620 0.949 . S
C615 H610 0.950 . S
C615 C617 1.327 . S
C615 C621 1.429 . S
C616 C608 1.574 . S
C616 H611 0.949 . S
C616 C622 1.368 . S
C617 C601 1.349 . S
C617 H609 0.950 . S
C617 C615 1.327 . S
C618 C606 1.349 . S
C618 H612 0.950 . S
C618 C619 1.327 . S
C619 H613 0.950 . S
C619 C618 1.327 . S
C619 C623 1.429 . S
C620 C603 1.574 . S
C620 H614 0.949 . S
C620 C624 1.368 . S
C621 C602 1.429 . S
C621 C615 1.429 . S
C621 C622 1.523 . S
C622 C603 1.368 . S
C622 C616 1.368 . S
C622 C621 1.523 . S
C623 C607 1.429 . S
C623 C619 1.429 . S
C623 C624 1.523 . S
C624 C608 1.368 . S
C624 C620 1.368 . S
C624 C623 1.523 . S
H625 C600 0.950 . S
H626 C602 0.950 . S
H627 C603 0.949 . S
H628 C605 0.950 . S
H629 C607 0.950 . S
C630 C631 1.349 . S
C630 C632 1.327 . S
C630 H655 0.950 . S
C631 C630 1.349 . S
C631 C647 1.349 . S
C632 C630 1.327 . S
C632 C651 1.429 . S
C632 H656 0.950 . S
C633 C650 1.574 . S
C633 C652 1.368 . S
C633 H657 0.949 . S
H634 C638 0.949 . S
C635 C636 1.349 . S
C635 C637 1.327 . S
C635 H658 0.950 . S
C636 C635 1.349 . S
C636 C648 1.349 . S
C637 C635 1.327 . S
C637 C653 1.429 . S
C637 H659 0.950 . S
C638 H634 0.949 . S
C638 C646 1.574 1_455 S
C638 C654 1.368 . S
H639 C647 0.950 1_455 S
H640 C645 0.950 . S
H641 C646 0.949 . S
H642 C648 0.950 . S
H643 C649 0.950 . S
H644 C650 0.949 . S
C645 H640 0.950 . S
C645 C647 1.327 1_455 S
C645 C651 1.429 1_455 S
C646 C638 1.574 1_655 S
C646 H641 0.949 . S
C646 C652 1.368 1_655 S
C647 C631 1.349 . S
C647 H639 0.950 1_655 S
C647 C645 1.327 1_655 S
C648 C636 1.349 . S
C648 H642 0.950 . S
C648 C649 1.327 . S
C649 H643 0.950 . S
C649 C648 1.327 . S
C649 C653 1.429 . S
C650 C633 1.574 . S
C650 H644 0.949 . S
C650 C654 1.368 . S
C651 C632 1.429 . S
C651 C645 1.429 1_655 S
C651 C652 1.523 1_655 S
C652 C633 1.368 . S
C652 C646 1.368 1_455 S
C652 C651 1.523 1_455 S
C653 C637 1.429 . S
C653 C649 1.429 . S
C653 C654 1.523 . S
C654 C638 1.368 . S
C654 C650 1.368 . S
C654 C653 1.523 . S
H655 C630 0.950 . S
H656 C632 0.950 . S
H657 C633 0.949 . S
H658 C635 0.950 . S
H659 C637 0.950 . S
C660 C661 1.349 . S
C660 C662 1.327 . S
C660 H685 0.950 . S
C661 C660 1.349 . S
C661 C677 1.349 . S
C662 C660 1.327 . S
C662 C681 1.429 . S
C662 H686 0.950 . S
C663 C680 1.574 . S
C663 C682 1.368 . S
C663 H687 0.949 . S
H664 C668 0.949 . S
C665 C666 1.349 . S
C665 C667 1.327 . S
C665 H688 0.950 . S
C666 C665 1.349 . S
C666 C678 1.349 . S
C667 C665 1.327 . S
C667 C683 1.429 . S
C667 H689 0.950 . S
C668 H664 0.949 . S
C668 C676 1.569 1_545 S
C668 C684 1.368 . S
H669 C677 0.950 1_545 S
H670 C675 0.950 . S
H671 C676 0.954 . S
H672 C678 0.950 . S
H673 C679 0.950 . S
H674 C680 0.949 . S
C675 H670 0.950 . S
C675 C677 1.327 1_545 S
C675 C681 1.429 1_545 S
C676 C668 1.569 1_565 S
C676 H671 0.954 . S
C676 C682 1.367 1_565 S
C677 C661 1.349 . S
C677 H669 0.950 1_565 S
C677 C675 1.327 1_565 S
C678 C666 1.349 . S
C678 H672 0.950 . S
C678 C679 1.327 . S
C679 H673 0.950 . S
C679 C678 1.327 . S
C679 C683 1.429 . S
C680 C663 1.574 . S
C680 H674 0.949 . S
C680 C684 1.368 . S
C681 C662 1.429 . S
C681 C675 1.429 1_565 S
C681 C682 1.523 1_565 S
C682 C663 1.368 . S
C682 C676 1.367 1_545 S
C682 C681 1.523 1_545 S
C683 C667 1.429 . S
C683 C679 1.429 . S
C683 C684 1.523 . S
C684 C668 1.368 . S
C684 C680 1.368 . S
C684 C683 1.523 . S
H685 C660 0.950 . S
H686 C662 0.950 . S
H687 C663 0.949 . S
H688 C665 0.950 . S
H689 C667 0.950 . S
C690 C691 1.349 . S
C690 C692 1.327 . S
C690 H715 0.950 . S
C691 C690 1.349 . S
C691 C707 1.349 . S
C692 C690 1.327 . S
C692 C711 1.429 . S
C692 H716 0.950 . S
C693 C710 1.574 . S
C693 C712 1.368 . S
C693 H717 0.949 . S
H694 C698 0.949 . S
C695 C696 1.349 . S
C695 C697 1.327 . S
C695 H718 0.950 . S
C696 C695 1.349 . S
C696 C708 1.349 . S
C697 C695 1.327 . S
C697 C713 1.429 . S
C697 H719 0.950 . S
C698 H694 0.949 . S
C698 C706 1.574 . S
C698 C714 1.368 . S
H699 C707 0.950 . S
H700 C705 0.950 . S
H701 C706 0.949 . S
H702 C708 0.950 . S
H703 C709 0.950 . S
H704 C710 0.949 . S
C705 H700 0.950 . S
C705 C707 1.327 . S
C705 C711 1.429 . S
C706 C698 1.574 . S
C706 H701 0.949 . S
C706 C712 1.368 . S
C707 C691 1.349 . S
C707 H699 0.950 . S
C707 C705 1.327 . S
C708 C696 1.349 . S
C708 H702 0.950 . S
C708 C709 1.327 . S
C709 H703 0.950 . S
C709 C708 1.327 . S
C709 C713 1.429 . S
C710 C693 1.574 . S
C710 H704 0.949 . S
C710 C714 1.368 . S
C711 C692 1.429 . S
C711 C705 1.429 . S
C711 C712 1.523 . S
C712 C693 1.368 . S
C712 C706 1.368 . S
C712 C711 1.523 . S
C713 C697 1.429 . S
C713 C709 1.429 . S
C713 C714 1.523 . S
C714 C698 1.368 . S
C714 C710 1.368 . S
C714 C713 1.523 . S
H715 C690 0.950 . S
H716 C692 0.950 . S
H717 C693 0.949 . S
H718 C695 0.950 . S
H719 C697 0.950 . S
C720 C721 1.349 . S
C720 C722 1.327 1_455 S
C720 H745 0.950 1_455 S
C721 C720 1.349 . S
C721 C737 1.349 . S
C722 C720 1.327 1_655 S
C722 C741 1.429 1_655 S
C722 H746 0.950 . S
C723 C740 1.574 1_455 S
C723 C742 1.368 1_455 S
C723 H747 0.949 . S
H724 C728 0.949 . S
C725 C726 1.349 . S
C725 C727 1.327 . S
C725 H748 0.950 . S
C726 C725 1.349 . S
C726 C738 1.349 . S
C727 C725 1.327 . S
C727 C743 1.429 . S
C727 H749 0.950 . S
C728 H724 0.949 . S
C728 C736 1.574 . S
C728 C744 1.368 . S
H729 C737 0.950 . S
H730 C735 0.950 . S
H731 C736 0.949 . S
H732 C738 0.950 . S
H733 C739 0.950 . S
H734 C740 0.949 . S
C735 H730 0.950 . S
C735 C737 1.327 . S
C735 C741 1.429 . S
C736 C728 1.574 . S
C736 H731 0.949 . S
C736 C742 1.368 . S
C737 C721 1.349 . S
C737 H729 0.950 . S
C737 C735 1.327 . S
C738 C726 1.349 . S
C738 H732 0.950 . S
C738 C739 1.327 . S
C739 H733 0.950 . S
C739 C738 1.327 . S
C739 C743 1.429 . S
C740 C723 1.574 1_655 S
C740 H734 0.949 . S
C740 C744 1.368 . S
C741 C722 1.429 1_455 S
C741 C735 1.429 . S
C741 C742 1.523 1_455 S
C742 C723 1.368 1_655 S
C742 C736 1.368 . S
C742 C741 1.523 1_655 S
C743 C727 1.429 . S
C743 C739 1.429 . S
C743 C744 1.523 . S
C744 C728 1.368 . S
C744 C740 1.368 . S
C744 C743 1.523 . S
H745 C720 0.950 1_655 S
H746 C722 0.950 . S
H747 C723 0.949 . S
H748 C725 0.950 . S
H749 C727 0.950 . S
C750 C751 1.349 . S
C750 C752 1.327 1_545 S
C750 H775 0.950 1_545 S
C751 C750 1.349 . S
C751 C767 1.349 . S
C752 C750 1.327 1_565 S
C752 C771 1.429 1_565 S
C752 H776 0.950 . S
C753 C770 1.574 1_545 S
C753 C772 1.368 1_545 S
C753 H777 0.949 . S
H754 C758 0.949 . S
C755 C756 1.349 . S
C755 C757 1.327 . S
C755 H778 0.950 . S
C756 C755 1.349 . S
C756 C768 1.349 . S
C757 C755 1.327 . S
C757 C773 1.429 . S
C757 H779 0.950 . S
C758 H754 0.949 . S
C758 C766 1.574 . S
C758 C774 1.368 . S
H759 C767 0.950 . S
H760 C765 0.950 . S
H761 C766 0.949 . S
H762 C768 0.950 . S
H763 C769 0.950 . S
H764 C770 0.949 . S
C765 H760 0.950 . S
C765 C767 1.327 . S
C765 C771 1.429 . S
C766 C758 1.574 . S
C766 H761 0.949 . S
C766 C772 1.368 . S
C767 C751 1.349 . S
C767 H759 0.950 . S
C767 C765 1.327 . S
C768 C756 1.349 . S
C768 H762 0.950 . S
C768 C769 1.327 . S
C769 H763 0.950 . S
C769 C768 1.327 . S
C769 C773 1.429 . S
C770 C753 1.574 1_565 S
C770 H764 0.949 . S
C770 C774 1.368 . S
C771 C752 1.429 1_545 S
C771 C765 1.429 . S
C771 C772 1.523 1_545 S
C772 C753 1.368 1_565 S
C772 C766 1.368 . S
C772 C771 1.523 1_565 S
C773 C757 1.429 . S
C773 C769 1.429 . S
C773 C774 1.523 . S
C774 C758 1.368 . S
C774 C770 1.368 . S
C774 C773 1.523 . S
H775 C750 0.950 1_565 S
H776 C752 0.950 . S
H777 C753 0.949 . S
H778 C755 0.950 . S
H779 C757 0.950 . S
C241 C179 1.147 . S
C246 C6 1.153 . S
C271 C219 1.147 . S
C276 C46 1.153 . S
C301 C19 1.147 . S
C306 C86 1.153 . S
C331 C59 1.147 . S
C336 C126 1.153 . S
C361 C99 1.148 . S
C366 C166 1.153 . S
C391 C139 1.147 . S
C396 C206 1.153 . S
C421 C9 0.646 . S
C426 C129 0.646 . S
C451 C169 0.646 . S
C456 C49 0.646 . S
C481 C209 0.646 . S
C486 C89 0.646 . S
C511 C98 0.567 . S
C516 C218 0.567 . S
C541 C18 0.568 . S
C546 C138 0.568 . S
C571 C178 0.568 . S
C576 C58 0.568 . S
C601 C210 1.232 . S
C606 C15 1.216 . S
C631 C55 1.216 . S
C636 C10 1.232 . S
C661 C95 1.216 . S
C666 C50 1.232 . S
C691 C90 1.232 . S
C696 C135 1.216 . S
C721 C175 1.216 . S
C726 C130 1.232 . S
C751 C215 1.216 . S
C756 C170 1.232 . S
