# Generated by pormake.
# Topology sra, (4)-cn, num edge types: 1
# Building blocks:
#     Node 0, Type 0, BuildingBlock: QUQFOY_clean_sbu_3, # of connection points: 4
#     Node 1, Type 0, BuildingBlock: QUQFOY_clean_sbu_3, # of connection points: 4
#     Node 2, Type 0, BuildingBlock: QUQFOY_clean_sbu_3, # of connection points: 4
#     Node 3, Type 0, BuildingBlock: QUQFOY_clean_sbu_3, # of connection points: 4
#     Node 4, Type 0, BuildingBlock: QUQFOY_clean_sbu_3, # of connection points: 4
#     Node 5, Type 0, BuildingBlock: QUQFOY_clean_sbu_3, # of connection points: 4
#     Node 6, Type 0, BuildingBlock: QUQFOY_clean_sbu_3, # of connection points: 4
#     Node 7, Type 0, BuildingBlock: QUQFOY_clean_sbu_3, # of connection points: 4
#     Edge 8, Type (0, 0), BuildingBlock: AJUNOK_clean_linker_0, # of connection points: 2
#     Edge 9, Type (0, 0), BuildingBlock: AJUNOK_clean_linker_0, # of connection points: 2
#     Edge 10, Type (0, 0), BuildingBlock: AJUNOK_clean_linker_0, # of connection points: 2
#     Edge 11, Type (0, 0), BuildingBlock: AJUNOK_clean_linker_0, # of connection points: 2
#     Edge 12, Type (0, 0), BuildingBlock: AJUNOK_clean_linker_0, # of connection points: 2
#     Edge 13, Type (0, 0), BuildingBlock: AJUNOK_clean_linker_0, # of connection points: 2
#     Edge 14, Type (0, 0), BuildingBlock: AJUNOK_clean_linker_0, # of connection points: 2
#     Edge 15, Type (0, 0), BuildingBlock: AJUNOK_clean_linker_0, # of connection points: 2
#     Edge 16, Type (0, 0), BuildingBlock: AJUNOK_clean_linker_0, # of connection points: 2
#     Edge 17, Type (0, 0), BuildingBlock: AJUNOK_clean_linker_0, # of connection points: 2
#     Edge 18, Type (0, 0), BuildingBlock: AJUNOK_clean_linker_0, # of connection points: 2
#     Edge 19, Type (0, 0), BuildingBlock: AJUNOK_clean_linker_0, # of connection points: 2
#     Edge 20, Type (0, 0), BuildingBlock: AJUNOK_clean_linker_0, # of connection points: 2
#     Edge 21, Type (0, 0), BuildingBlock: AJUNOK_clean_linker_0, # of connection points: 2
#     Edge 22, Type (0, 0), BuildingBlock: AJUNOK_clean_linker_0, # of connection points: 2
#     Edge 23, Type (0, 0), BuildingBlock: AJUNOK_clean_linker_0, # of connection points: 2
# Relax obj value: 0.027
# Max RMSD: 0.061
# Mean RMSD: 0.061
data_MOF--net-sra--node1-QUQFOY_clean_sbu_3--edge1-AJUNOK_clean_linker_0
_symmetry_space_group_name_H-M    P1
_symmetry_Int_Tables_number       1
_symmetry_cell_setting            triclinic
loop_
_symmetry_equiv_pos_as_xyz
'x, y, z'
_cell_length_a     21.375007
_cell_length_b     41.473901
_cell_length_c     25.820851
_cell_angle_alpha  90.26502
_cell_angle_beta   90.004241
_cell_angle_gamma 90.075644
loop_
_atom_site_label
_atom_site_type_symbol
_atom_site_fract_x
_atom_site_fract_y
_atom_site_fract_z
_atom_type_partial_charge
C0 C 0.10458 0.08429 0.22314 0.0
O1 O 0.07103 0.0919 0.2619 0.0
Cd2 Cd 0.95979 0.10141 0.25431 0.0
O3 O 0.07919 0.07876 0.17948 0.0
Cd4 Cd -0.02395 0.07531 0.13823 0.0
C5 C 0.96129 0.15557 0.15224 0.0
O6 O 0.91004 0.05793 0.21032 0.0
O7 O 0.86316 0.07595 0.14205 0.0
O8 O 0.0039 0.02134 0.11188 0.0
C9 C 0.85904 0.06346 0.18666 0.0
O10 O 0.95059 0.14859 0.19942 0.0
C11 C -0.00465 0.02547 0.06379 0.0
O12 O -0.02228 0.1339 0.1197 0.0
O13 O -0.02028 0.05369 0.04949 0.0
C14 C 0.87656 0.37368 0.21694 0.0
O15 O 0.91119 0.36645 0.25509 0.0
Cd16 Cd 0.01612 0.34794 0.24184 0.0
O17 O 0.89935 0.37507 0.17144 0.0
Cd18 Cd -0.00093 0.37171 0.12359 0.0
C19 C -0.01421 0.2921 0.14349 0.0
O20 O 0.07044 0.38714 0.19225 0.0
O21 O 0.11262 0.36555 0.12448 0.0
O22 O -0.02246 0.42591 0.09478 0.0
C23 C 0.11975 0.37854 0.16866 0.0
O24 O -0.00167 0.29949 0.19028 0.0
C25 C -0.01809 0.41997 0.04669 0.0
O26 O -0.01857 0.31357 0.10849 0.0
O27 O -0.00665 0.39091 0.03377 0.0
C28 C 0.09514 0.86689 0.74653 0.0
O29 O 0.05955 0.86021 0.70858 0.0
Cd30 Cd 0.94881 0.851 0.71704 0.0
O31 O 0.0723 0.87118 0.79156 0.0
Cd32 Cd 0.96989 0.87349 0.83556 0.0
C33 C 0.9512 0.79381 0.81496 0.0
O34 O 0.90459 0.89371 0.76574 0.0
O35 O 0.85594 0.87465 0.83217 0.0
O36 O -6e-05 0.9262 0.86662 0.0
C37 C 0.85293 0.88799 0.78813 0.0
O38 O 0.93957 0.80236 0.76861 0.0
C39 C -0.00744 0.92025 0.91436 0.0
O40 O 0.96934 0.81429 0.84888 0.0
O41 O -0.02383 0.89168 0.92613 0.0
C42 C 0.85987 0.57669 0.7382 0.0
O43 O 0.89226 0.58497 0.69922 0.0
Cd44 Cd -0.00234 0.60384 0.70975 0.0
O45 O 0.88533 0.57433 0.78255 0.0
Cd46 Cd -0.01278 0.57702 0.82696 0.0
C47 C 0.97163 0.65696 0.81285 0.0
O48 O 0.0559 0.56401 0.75481 0.0
O49 O 0.09972 0.58406 0.82335 0.0
O50 O 0.96764 0.5219 0.85178 0.0
C51 C 0.10569 0.57224 0.77823 0.0
O52 O -0.01826 0.65074 0.76524 0.0
C53 C -0.02469 0.52608 0.90002 0.0
O54 O 0.96962 0.63466 0.84665 0.0
O55 O -0.0129 0.55474 0.91511 0.0
C56 C 0.58976 0.57688 0.71574 0.0
O57 O 0.55629 0.58403 0.75474 0.0
Cd58 Cd 0.45173 0.60335 0.74466 0.0
O59 O 0.56587 0.57591 0.67055 0.0
Cd60 Cd 0.46443 0.57975 0.6248 0.0
C61 C 0.48052 0.65918 0.64642 0.0
O62 O 0.39658 0.56432 0.69513 0.0
O63 O 0.35034 0.58547 0.62929 0.0
O64 O 0.48542 0.52567 0.5947 0.0
C65 C 0.3459 0.57283 0.6738 0.0
O66 O 0.46979 0.65163 0.69334 0.0
C67 C 0.47892 0.53152 0.54684 0.0
O68 O 0.48232 0.63788 0.61066 0.0
O69 O 0.4665 0.56051 0.53457 0.0
C70 C 0.36641 0.86803 0.7228 0.0
O71 O 0.40001 0.86122 0.76182 0.0
Cd72 Cd 0.51118 0.85153 0.75433 0.0
O73 O 0.39179 0.87283 0.679 0.0
Cd74 Cd 0.49474 0.87599 0.63739 0.0
C75 C 0.50834 0.79591 0.65329 0.0
O76 O 0.56108 0.89413 0.70898 0.0
O77 O 0.60763 0.87515 0.64094 0.0
O78 O 0.46646 0.92972 0.61116 0.0
C79 C 0.61197 0.88814 0.68536 0.0
O80 O 0.51904 0.80363 0.70028 0.0
C81 C 0.47514 0.92544 0.56306 0.0
O82 O 0.49242 0.81711 0.6201 0.0
O83 O 0.49094 0.89718 0.54861 0.0
C84 C 0.60646 0.37288 0.24008 0.0
O85 O 0.57497 0.36402 0.2008 0.0
Cd86 Cd 0.46968 0.34521 0.20954 0.0
O87 O 0.58004 0.37592 0.284 0.0
Cd88 Cd 0.4763 0.37367 0.3259 0.0
C89 C 0.49267 0.29357 0.31409 0.0
O90 O 0.41089 0.38612 0.25193 0.0
O91 O 0.36319 0.3669 0.31879 0.0
O92 O 0.49473 0.42902 0.35114 0.0
C93 C 0.35979 0.37815 0.27326 0.0
O94 O 0.48406 0.29903 0.26613 0.0
C95 C 0.48527 0.42509 0.39915 0.0
O96 O 0.49343 0.31639 0.34734 0.0
O97 O 0.47304 0.39651 0.41393 0.0
C98 C 0.37573 0.08412 0.24751 0.0
O99 O 0.4115 0.09083 0.2098 0.0
Cd100 Cd 0.52208 0.10014 0.21909 0.0
O101 O 0.39835 0.07974 0.29252 0.0
Cd102 Cd 0.50053 0.07738 0.33671 0.0
C103 C 0.5177 0.15718 0.31777 0.0
O104 O 0.56657 0.05737 0.26701 0.0
O105 O 0.61478 0.07682 0.33357 0.0
O106 O 0.4709 0.02452 0.36693 0.0
C107 C 0.61811 0.06334 0.28946 0.0
O108 O 0.53017 0.14879 0.27138 0.0
C109 C 0.47814 0.03048 0.41476 0.0
O110 O 0.49961 0.13655 0.35115 0.0
O111 O 0.49427 0.05909 0.42698 0.0
C112 C 0.01244 0.23805 0.10608 0.0
C113 C 0.97022 0.2582 0.13256 0.0
C114 C 0.00631 0.20425 0.10835 0.0
C115 C 0.95816 0.18994 0.1376 0.0
H116 H 0.05279 0.24833 0.08683 0.0
H117 H 0.04213 0.18937 0.0907 0.0
S118 S 0.83035 0.23272 0.20649 0.0
N119 N 0.87491 0.26179 0.18317 0.0
N120 N 0.86316 0.19863 0.1875 0.0
C121 C 0.91292 0.21007 0.16036 0.0
C122 C 0.91909 0.24417 0.15791 0.0
C123 C -0.00508 0.74352 0.85482 0.0
C124 C 0.94713 0.75903 0.82687 0.0
C125 C -1e-05 0.70964 0.85446 0.0
C126 C 0.9571 0.6906 0.82652 0.0
H127 H 0.03126 0.75759 0.87351 0.0
H128 H 0.04008 0.69852 0.87277 0.0
S129 S 0.81756 0.71924 0.75536 0.0
N130 N 0.85153 0.75249 0.77683 0.0
N131 N 0.86138 0.68919 0.77613 0.0
C132 C 0.90628 0.70573 0.80251 0.0
C133 C 0.90113 0.73991 0.80277 0.0
C134 C 0.45635 0.71308 0.60774 0.0
C135 C 0.4968 0.69301 0.63593 0.0
C136 C 0.46336 0.74686 0.60947 0.0
C137 C 0.51075 0.76125 0.6397 0.0
H138 H 0.41664 0.70281 0.58744 0.0
H139 H 0.42878 0.76175 0.59041 0.0
S140 S 0.63465 0.7185 0.71283 0.0
N141 N 0.59004 0.68945 0.68911 0.0
N142 N 0.60358 0.75255 0.69223 0.0
C143 C 0.55444 0.7411 0.66417 0.0
C144 C 0.54728 0.70703 0.66239 0.0
C145 C 0.46395 0.24103 0.35513 0.0
C146 C 0.50775 0.26026 0.32883 0.0
C147 C 0.4703 0.20722 0.35601 0.0
C148 C 0.52029 0.19197 0.33018 0.0
H149 H 0.42235 0.25188 0.37159 0.0
H150 H 0.43335 0.19292 0.37319 0.0
S151 S 0.65234 0.23245 0.26361 0.0
N152 N 0.6063 0.26222 0.2824 0.0
N153 N 0.61839 0.19903 0.28397 0.0
C154 C 0.56695 0.21134 0.30786 0.0
C155 C 0.56055 0.24546 0.30712 0.0
C156 C 0.26689 0.08396 0.28324 0.0
C157 C 0.30694 0.08258 0.23997 0.0
C158 C 0.20173 0.08418 0.27746 0.0
C159 C 0.17376 0.08272 0.22818 0.0
H160 H 0.28591 0.08551 0.32206 0.0
H161 H 0.17315 0.0857 0.31203 0.0
S162 S 0.2577 0.07726 0.10228 0.0
N163 N 0.31383 0.07867 0.14611 0.0
N164 N 0.19154 0.0789 0.1351 0.0
C165 C 0.21327 0.08061 0.18453 0.0
C166 C 0.27971 0.08062 0.19045 0.0
C167 C 0.70335 0.37625 0.18622 0.0
C168 C 0.67513 0.3773 0.23541 0.0
C169 C 0.76844 0.37657 0.18071 0.0
C170 C 0.80819 0.37771 0.22416 0.0
H171 H 0.67507 0.37429 0.15153 0.0
H172 H 0.78756 0.37467 0.14196 0.0
S173 S 0.75816 0.38419 0.36151 0.0
N174 N 0.69218 0.38217 0.32846 0.0
N175 N 0.81459 0.38258 0.31795 0.0
C176 C 0.78072 0.38033 0.27352 0.0
C177 C 0.71425 0.38021 0.27917 0.0
C178 C 0.20388 0.86761 0.78252 0.0
C179 C 0.16394 0.8687 0.73917 0.0
C180 C 0.26907 0.86778 0.7769 0.0
C181 C 0.29718 0.86935 0.72771 0.0
H182 H 0.18476 0.86598 0.82127 0.0
H183 H 0.29755 0.86644 0.81152 0.0
S184 S 0.21354 0.87429 0.60167 0.0
N185 N 0.1573 0.87254 0.64534 0.0
N186 N 0.27961 0.87305 0.63463 0.0
C187 C 0.25776 0.8712 0.68398 0.0
C188 C 0.1913 0.8708 0.68974 0.0
C189 C 0.69763 0.57582 0.67867 0.0
C190 C 0.65811 0.57244 0.72191 0.0
C191 C 0.76278 0.57587 0.68405 0.0
C192 C 0.7912 0.57232 0.73285 0.0
H193 H 0.67825 0.57979 0.64046 0.0
H194 H 0.79092 0.57973 0.64973 0.0
S195 S 0.70852 0.55835 0.85749 0.0
N196 N 0.65198 0.56242 0.8145 0.0
N197 N 0.7744 0.56224 0.82477 0.0
C198 C 0.7522 0.56702 0.77606 0.0
C199 C 0.68574 0.56719 0.77057 0.0
C200 C 0.67783 0.89073 0.76515 0.0
C201 C 0.67342 0.89184 0.71088 0.0
C202 C 0.73619 0.89039 0.78987 0.0
C203 C 0.79221 0.89171 0.76128 0.0
H204 H 0.63602 0.8888 0.78866 0.0
H205 H 0.73738 0.88847 0.83169 0.0
S206 S 0.80563 0.89801 0.61832 0.0
N207 N 0.72963 0.89634 0.62937 0.0
N208 N 0.83929 0.8963 0.67578 0.0
C209 C 0.7883 0.89443 0.70708 0.0
C210 C 0.72889 0.8943 0.6819 0.0
C211 C 0.22915 0.57244 0.67306 0.0
C212 C 0.28537 0.57107 0.70127 0.0
C213 C 0.1711 0.57195 0.69821 0.0
C214 C 0.16726 0.57072 0.75253 0.0
H215 H 0.22993 0.57395 0.63118 0.0
H216 H 0.12899 0.57335 0.67497 0.0
S217 S 0.30049 0.56595 0.84425 0.0
N218 N 0.33348 0.56746 0.78651 0.0
N219 N 0.22435 0.56721 0.83375 0.0
C220 C 0.22303 0.56901 0.7812 0.0
C221 C 0.28211 0.56897 0.75557 0.0
C222 C 0.73488 0.06164 0.29119 0.0
C223 C 0.67889 0.05977 0.26262 0.0
C224 C 0.79324 0.06137 0.26648 0.0
C225 C 0.79766 0.05977 0.21222 0.0
H226 H 0.73366 0.06393 0.333 0.0
H227 H 0.83501 0.06372 0.28996 0.0
S228 S 0.66556 0.0521 0.11971 0.0
N229 N 0.63188 0.05418 0.17715 0.0
N230 N 0.74153 0.05424 0.13075 0.0
C231 C 0.74223 0.05678 0.18326 0.0
C232 C 0.68284 0.0566 0.20844 0.0
C233 C 0.18536 0.3808 0.24839 0.0
C234 C 0.18155 0.38005 0.19403 0.0
C235 C 0.24331 0.38031 0.27362 0.0
C236 C 0.29955 0.37971 0.24542 0.0
H237 H 0.14324 0.38096 0.27174 0.0
H238 H 0.24397 0.38041 0.31558 0.0
S239 S 0.31505 0.37896 0.10224 0.0
N240 N 0.23884 0.37941 0.11268 0.0
N241 N 0.34794 0.37917 0.1601 0.0
C242 C 0.29647 0.37976 0.191 0.0
C243 C 0.2374 0.37972 0.16531 0.0
C244 C -0.00112 0.00412 0.97314 0.0
C245 C 0.0 -0.0018 0.02667 0.0
C246 C -0.0014 -0.0213 0.93727 0.0
C247 C -0.00138 0.9463 0.95347 0.0
H248 H -0.00267 0.02859 0.95872 0.0
H249 H -0.00347 -0.01541 0.89648 0.0
S250 S 0.00486 0.91768 0.08923 0.0
N251 N 0.00412 0.95737 0.09418 0.0
N252 N 0.00272 0.90968 0.02657 0.0
C253 C 0.00133 0.93999 0.00681 0.0
C254 C 0.00231 0.9659 0.04343 0.0
C255 C -0.02343 0.50421 -0.00987 0.0
C256 C 0.97316 0.49857 0.9365 0.0
C257 C -0.02203 0.47861 0.0253 0.0
C258 C -0.02339 0.44629 0.0083 0.0
H259 H -0.02118 0.5286 0.0052 0.0
H260 H -0.01855 0.48431 0.06619 0.0
S261 S 0.965 0.41834 0.87194 0.0
N262 N 0.96615 0.45805 0.86806 0.0
N263 N 0.9694 0.41004 0.93429 0.0
C264 C 0.97204 0.44025 0.95485 0.0
C265 C 0.97011 0.46634 0.91895 0.0
C266 C 0.48477 0.4472 0.4894 0.0
C267 C 0.48651 0.45274 0.43577 0.0
C268 C 0.48352 0.47288 0.5248 0.0
C269 C 0.48328 0.50516 0.50805 0.0
H270 H 0.48407 0.42283 0.50429 0.0
H271 H 0.48163 0.46725 0.5657 0.0
S272 S 0.48894 0.53283 0.3717 0.0
N273 N 0.48936 0.4931 0.36751 0.0
N274 N 0.48636 0.54126 0.4342 0.0
C275 C 0.48571 0.5111 0.45456 0.0
C276 C 0.48754 0.48493 0.41842 0.0
C277 C 0.47223 0.94663 0.47257 0.0
C278 C 0.47054 0.95262 0.52615 0.0
C279 C 0.4726 0.97202 0.43697 0.0
C280 C 0.4721 0.00444 0.45352 0.0
H281 H 0.47418 0.92214 0.45789 0.0
H282 H 0.47511 0.96608 0.39613 0.0
S283 S 0.46429 0.03324 0.58956 0.0
N284 N 0.46539 -0.00644 0.59407 0.0
N285 N 0.46695 0.04115 0.52701 0.0
C286 C 0.46883 0.01081 0.50692 0.0
C287 C 0.46777 -0.01505 0.54324 0.0
loop_
_geom_bond_atom_site_label_1
_geom_bond_atom_site_label_2
_geom_bond_distance
_geom_bond_site_symmetry_2
_ccdc_geom_bond_type
C0 O1 1.306 . S
C0 O3 1.160 . S
O1 C0 1.306 . S
O1 Cd2 2.219 1_455 S
Cd2 O1 2.219 1_655 S
Cd2 O6 2.278 . S
Cd2 O10 2.276 1_655 S
O3 C0 1.160 . S
O3 Cd4 2.203 . S
Cd4 O3 2.203 . S
Cd4 O6 2.411 1_455 S
Cd4 O7 2.333 1_455 S
Cd4 O8 2.352 . S
Cd4 O12 2.277 . S
Cd4 O13 2.356 1_455 S
C5 O10 1.209 . S
C5 O12 1.226 . S
O6 Cd2 2.278 . S
O6 Cd4 2.411 1_655 S
O6 C9 1.320 . S
O7 Cd4 2.333 1_655 S
O7 C9 1.214 . S
O8 Cd4 2.352 . S
O8 C11 1.258 . S
C9 O6 1.320 . S
C9 O7 1.214 . S
O10 Cd2 2.276 1_455 S
O10 C5 1.209 . S
C11 O8 1.258 . S
C11 O13 1.282 1_455 S
O12 Cd4 2.277 . S
O12 C5 1.226 . S
O13 Cd4 2.356 1_655 S
O13 C11 1.282 1_655 S
C14 O15 1.306 . S
C14 O17 1.160 . S
O15 C14 1.306 . S
O15 Cd16 2.228 1_655 S
Cd16 O15 2.228 1_455 S
Cd16 O20 2.273 . S
Cd16 O24 2.277 . S
O17 C14 1.160 . S
O17 Cd18 2.203 1_655 S
Cd18 O17 2.203 1_455 S
Cd18 O20 2.411 . S
Cd18 O21 2.333 . S
Cd18 O22 2.352 . S
Cd18 O26 2.277 . S
Cd18 O27 2.356 . S
C19 O24 1.209 . S
C19 O26 1.226 . S
O20 Cd16 2.273 . S
O20 Cd18 2.411 . S
O20 C23 1.320 . S
O21 Cd18 2.333 . S
O21 C23 1.214 . S
O22 Cd18 2.352 . S
O22 C25 1.258 . S
C23 O20 1.320 . S
C23 O21 1.214 . S
O24 Cd16 2.277 . S
O24 C19 1.209 . S
C25 O22 1.258 . S
C25 O27 1.282 . S
O26 Cd18 2.277 . S
O26 C19 1.226 . S
O27 Cd18 2.356 . S
O27 C25 1.282 . S
C28 O29 1.306 . S
C28 O31 1.160 . S
O29 C28 1.306 . S
O29 Cd30 2.219 1_455 S
Cd30 O29 2.219 1_655 S
Cd30 O34 2.278 . S
Cd30 O38 2.276 1_655 S
O31 C28 1.160 . S
O31 Cd32 2.203 . S
Cd32 O31 2.203 . S
Cd32 O34 2.411 1_455 S
Cd32 O35 2.333 1_455 S
Cd32 O36 2.352 . S
Cd32 O40 2.277 . S
Cd32 O41 2.356 1_455 S
C33 O38 1.209 . S
C33 O40 1.226 . S
O34 Cd30 2.278 . S
O34 Cd32 2.411 1_655 S
O34 C37 1.320 . S
O35 Cd32 2.333 1_655 S
O35 C37 1.214 . S
O36 Cd32 2.352 . S
O36 C39 1.258 . S
C37 O34 1.320 . S
C37 O35 1.214 . S
O38 Cd30 2.276 1_455 S
O38 C33 1.209 . S
C39 O36 1.258 . S
C39 O41 1.282 1_455 S
O40 Cd32 2.277 . S
O40 C33 1.226 . S
O41 Cd32 2.356 1_655 S
O41 C39 1.282 1_655 S
C42 O43 1.306 . S
C42 O45 1.160 . S
O43 C42 1.306 . S
O43 Cd44 2.228 1_655 S
Cd44 O43 2.228 1_455 S
Cd44 O48 2.273 . S
Cd44 O52 2.277 . S
O45 C42 1.160 . S
O45 Cd46 2.203 1_655 S
Cd46 O45 2.203 1_455 S
Cd46 O48 2.411 . S
Cd46 O49 2.333 . S
Cd46 O50 2.352 . S
Cd46 O54 2.277 . S
Cd46 O55 2.356 . S
C47 O52 1.209 . S
C47 O54 1.226 . S
O48 Cd44 2.273 . S
O48 Cd46 2.411 . S
O48 C51 1.320 . S
O49 Cd46 2.333 . S
O49 C51 1.214 . S
O50 Cd46 2.352 . S
O50 C53 1.258 . S
C51 O48 1.320 . S
C51 O49 1.214 . S
O52 Cd44 2.277 . S
O52 C47 1.209 . S
C53 O50 1.258 . S
C53 O55 1.282 . S
O54 Cd46 2.277 . S
O54 C47 1.226 . S
O55 Cd46 2.356 . S
O55 C53 1.282 . S
C56 O57 1.306 . S
C56 O59 1.160 . S
O57 C56 1.306 . S
O57 Cd58 2.228 . S
Cd58 O57 2.228 . S
Cd58 O62 2.273 . S
Cd58 O66 2.277 . S
O59 C56 1.160 . S
O59 Cd60 2.203 . S
Cd60 O59 2.203 . S
Cd60 O62 2.411 . S
Cd60 O63 2.333 . S
Cd60 O64 2.352 . S
Cd60 O68 2.277 . S
Cd60 O69 2.356 . S
C61 O66 1.209 . S
C61 O68 1.226 . S
O62 Cd58 2.273 . S
O62 Cd60 2.411 . S
O62 C65 1.320 . S
O63 Cd60 2.333 . S
O63 C65 1.214 . S
O64 Cd60 2.352 . S
O64 C67 1.258 . S
C65 O62 1.320 . S
C65 O63 1.214 . S
O66 Cd58 2.277 . S
O66 C61 1.209 . S
C67 O64 1.258 . S
C67 O69 1.282 . S
O68 Cd60 2.277 . S
O68 C61 1.226 . S
O69 Cd60 2.356 . S
O69 C67 1.282 . S
C70 O71 1.306 . S
C70 O73 1.160 . S
O71 C70 1.306 . S
O71 Cd72 2.228 . S
Cd72 O71 2.228 . S
Cd72 O76 2.273 . S
Cd72 O80 2.277 . S
O73 C70 1.160 . S
O73 Cd74 2.203 . S
Cd74 O73 2.203 . S
Cd74 O76 2.411 . S
Cd74 O77 2.333 . S
Cd74 O78 2.352 . S
Cd74 O82 2.277 . S
Cd74 O83 2.356 . S
C75 O80 1.209 . S
C75 O82 1.226 . S
O76 Cd72 2.273 . S
O76 Cd74 2.411 . S
O76 C79 1.320 . S
O77 Cd74 2.333 . S
O77 C79 1.214 . S
O78 Cd74 2.352 . S
O78 C81 1.258 . S
C79 O76 1.320 . S
C79 O77 1.214 . S
O80 Cd72 2.277 . S
O80 C75 1.209 . S
C81 O78 1.258 . S
C81 O83 1.282 . S
O82 Cd74 2.277 . S
O82 C75 1.226 . S
O83 Cd74 2.356 . S
O83 C81 1.282 . S
C84 O85 1.306 . S
C84 O87 1.160 . S
O85 C84 1.306 . S
O85 Cd86 2.228 . S
Cd86 O85 2.228 . S
Cd86 O90 2.273 . S
Cd86 O94 2.277 . S
O87 C84 1.160 . S
O87 Cd88 2.203 . S
Cd88 O87 2.203 . S
Cd88 O90 2.411 . S
Cd88 O91 2.333 . S
Cd88 O92 2.352 . S
Cd88 O96 2.277 . S
Cd88 O97 2.356 . S
C89 O94 1.209 . S
C89 O96 1.226 . S
O90 Cd86 2.273 . S
O90 Cd88 2.411 . S
O90 C93 1.320 . S
O91 Cd88 2.333 . S
O91 C93 1.214 . S
O92 Cd88 2.352 . S
O92 C95 1.258 . S
C93 O90 1.320 . S
C93 O91 1.214 . S
O94 Cd86 2.277 . S
O94 C89 1.209 . S
C95 O92 1.258 . S
C95 O97 1.282 . S
O96 Cd88 2.277 . S
O96 C89 1.226 . S
O97 Cd88 2.356 . S
O97 C95 1.282 . S
C98 O99 1.306 . S
C98 O101 1.160 . S
O99 C98 1.306 . S
O99 Cd100 2.228 . S
Cd100 O99 2.228 . S
Cd100 O104 2.273 . S
Cd100 O108 2.277 . S
O101 C98 1.160 . S
O101 Cd102 2.203 . S
Cd102 O101 2.203 . S
Cd102 O104 2.411 . S
Cd102 O105 2.333 . S
Cd102 O106 2.352 . S
Cd102 O110 2.277 . S
Cd102 O111 2.356 . S
C103 O108 1.209 . S
C103 O110 1.226 . S
O104 Cd100 2.273 . S
O104 Cd102 2.411 . S
O104 C107 1.320 . S
O105 Cd102 2.333 . S
O105 C107 1.214 . S
O106 Cd102 2.352 . S
O106 C109 1.258 . S
C107 O104 1.320 . S
C107 O105 1.214 . S
O108 Cd100 2.277 . S
O108 C103 1.209 . S
C109 O106 1.258 . S
C109 O111 1.282 . S
O110 Cd102 2.277 . S
O110 C103 1.226 . S
O111 Cd102 2.356 . S
O111 C109 1.282 . S
C112 C113 1.369 . S
C112 C114 1.419 . S
C112 H116 0.930 . S
C113 C112 1.369 . S
C113 C122 1.429 1_455 S
C114 C112 1.419 . S
C114 C115 1.363 . S
C114 H117 0.929 . S
C115 C114 1.363 . S
C115 C121 1.428 1_455 S
H116 C112 0.930 . S
H117 C114 0.929 . S
S118 N119 1.613 . S
S118 N120 1.610 . S
N119 S118 1.613 . S
N119 C122 1.350 . S
N120 S118 1.610 . S
N120 C121 1.351 . S
C121 C115 1.428 1_655 S
C121 N120 1.351 . S
C121 C122 1.434 . S
C122 C113 1.429 1_655 S
C122 N119 1.350 . S
C122 C121 1.434 . S
C123 C124 1.369 . S
C123 C125 1.419 . S
C123 H127 0.930 . S
C124 C123 1.369 . S
C124 C133 1.429 1_455 S
C125 C123 1.419 . S
C125 C126 1.363 . S
C125 H128 0.929 . S
C126 C125 1.363 . S
C126 C132 1.428 1_455 S
H127 C123 0.930 . S
H128 C125 0.929 . S
S129 N130 1.613 . S
S129 N131 1.610 . S
N130 S129 1.613 . S
N130 C133 1.350 . S
N131 S129 1.610 . S
N131 C132 1.351 . S
C132 C126 1.428 1_655 S
C132 N131 1.351 . S
C132 C133 1.434 . S
C133 C124 1.429 1_655 S
C133 N130 1.350 . S
C133 C132 1.434 . S
C134 C135 1.369 . S
C134 C136 1.419 . S
C134 H138 0.930 . S
C135 C134 1.369 . S
C135 C144 1.429 . S
C136 C134 1.419 . S
C136 C137 1.363 . S
C136 H139 0.929 . S
C137 C136 1.363 . S
C137 C143 1.428 . S
H138 C134 0.930 . S
H139 C136 0.929 . S
S140 N141 1.613 . S
S140 N142 1.610 . S
N141 S140 1.613 . S
N141 C144 1.350 . S
N142 S140 1.610 . S
N142 C143 1.351 . S
C143 C137 1.428 . S
C143 N142 1.351 . S
C143 C144 1.434 . S
C144 C135 1.429 . S
C144 N141 1.350 . S
C144 C143 1.434 . S
C145 C146 1.369 . S
C145 C147 1.419 . S
C145 H149 0.930 . S
C146 C145 1.369 . S
C146 C155 1.429 . S
C147 C145 1.419 . S
C147 C148 1.363 . S
C147 H150 0.929 . S
C148 C147 1.363 . S
C148 C154 1.428 . S
H149 C145 0.930 . S
H150 C147 0.929 . S
S151 N152 1.613 . S
S151 N153 1.610 . S
N152 S151 1.613 . S
N152 C155 1.350 . S
N153 S151 1.610 . S
N153 C154 1.351 . S
C154 C148 1.428 . S
C154 N153 1.351 . S
C154 C155 1.434 . S
C155 C146 1.429 . S
C155 N152 1.350 . S
C155 C154 1.434 . S
C156 C157 1.369 . S
C156 C158 1.419 . S
C156 H160 0.930 . S
C157 C156 1.369 . S
C157 C166 1.429 . S
C158 C156 1.419 . S
C158 C159 1.363 . S
C158 H161 0.929 . S
C159 C158 1.363 . S
C159 C165 1.428 . S
H160 C156 0.930 . S
H161 C158 0.929 . S
S162 N163 1.613 . S
S162 N164 1.610 . S
N163 S162 1.613 . S
N163 C166 1.350 . S
N164 S162 1.610 . S
N164 C165 1.351 . S
C165 C159 1.428 . S
C165 N164 1.351 . S
C165 C166 1.434 . S
C166 C157 1.429 . S
C166 N163 1.350 . S
C166 C165 1.434 . S
C167 C168 1.369 . S
C167 C169 1.419 . S
C167 H171 0.930 . S
C168 C167 1.369 . S
C168 C177 1.429 . S
C169 C167 1.419 . S
C169 C170 1.363 . S
C169 H172 0.929 . S
C170 C169 1.363 . S
C170 C176 1.428 . S
H171 C167 0.930 . S
H172 C169 0.929 . S
S173 N174 1.613 . S
S173 N175 1.610 . S
N174 S173 1.613 . S
N174 C177 1.350 . S
N175 S173 1.610 . S
N175 C176 1.351 . S
C176 C170 1.428 . S
C176 N175 1.351 . S
C176 C177 1.434 . S
C177 C168 1.429 . S
C177 N174 1.350 . S
C177 C176 1.434 . S
C178 C179 1.369 . S
C178 C180 1.419 . S
C178 H182 0.930 . S
C179 C178 1.369 . S
C179 C188 1.429 . S
C180 C178 1.419 . S
C180 C181 1.363 . S
C180 H183 0.929 . S
C181 C180 1.363 . S
C181 C187 1.428 . S
H182 C178 0.930 . S
H183 C180 0.929 . S
S184 N185 1.613 . S
S184 N186 1.610 . S
N185 S184 1.613 . S
N185 C188 1.350 . S
N186 S184 1.610 . S
N186 C187 1.351 . S
C187 C181 1.428 . S
C187 N186 1.351 . S
C187 C188 1.434 . S
C188 C179 1.429 . S
C188 N185 1.350 . S
C188 C187 1.434 . S
C189 C190 1.369 . S
C189 C191 1.419 . S
C189 H193 0.930 . S
C190 C189 1.369 . S
C190 C199 1.429 . S
C191 C189 1.419 . S
C191 C192 1.363 . S
C191 H194 0.929 . S
C192 C191 1.363 . S
C192 C198 1.428 . S
H193 C189 0.930 . S
H194 C191 0.929 . S
S195 N196 1.613 . S
S195 N197 1.610 . S
N196 S195 1.613 . S
N196 C199 1.350 . S
N197 S195 1.610 . S
N197 C198 1.351 . S
C198 C192 1.428 . S
C198 N197 1.351 . S
C198 C199 1.434 . S
C199 C190 1.429 . S
C199 N196 1.350 . S
C199 C198 1.434 . S
C200 C201 1.369 . S
C200 C202 1.419 . S
C200 H204 0.930 . S
C201 C200 1.369 . S
C201 C210 1.429 . S
C202 C200 1.419 . S
C202 C203 1.363 . S
C202 H205 0.929 . S
C203 C202 1.363 . S
C203 C209 1.428 . S
H204 C200 0.930 . S
H205 C202 0.929 . S
S206 N207 1.613 . S
S206 N208 1.610 . S
N207 S206 1.613 . S
N207 C210 1.350 . S
N208 S206 1.610 . S
N208 C209 1.351 . S
C209 C203 1.428 . S
C209 N208 1.351 . S
C209 C210 1.434 . S
C210 C201 1.429 . S
C210 N207 1.350 . S
C210 C209 1.434 . S
C211 C212 1.369 . S
C211 C213 1.419 . S
C211 H215 0.930 . S
C212 C211 1.369 . S
C212 C221 1.429 . S
C213 C211 1.419 . S
C213 C214 1.363 . S
C213 H216 0.929 . S
C214 C213 1.363 . S
C214 C220 1.428 . S
H215 C211 0.930 . S
H216 C213 0.929 . S
S217 N218 1.613 . S
S217 N219 1.610 . S
N218 S217 1.613 . S
N218 C221 1.350 . S
N219 S217 1.610 . S
N219 C220 1.351 . S
C220 C214 1.428 . S
C220 N219 1.351 . S
C220 C221 1.434 . S
C221 C212 1.429 . S
C221 N218 1.350 . S
C221 C220 1.434 . S
C222 C223 1.369 . S
C222 C224 1.419 . S
C222 H226 0.930 . S
C223 C222 1.369 . S
C223 C232 1.429 . S
C224 C222 1.419 . S
C224 C225 1.363 . S
C224 H227 0.929 . S
C225 C224 1.363 . S
C225 C231 1.428 . S
H226 C222 0.930 . S
H227 C224 0.929 . S
S228 N229 1.613 . S
S228 N230 1.610 . S
N229 S228 1.613 . S
N229 C232 1.350 . S
N230 S228 1.610 . S
N230 C231 1.351 . S
C231 C225 1.428 . S
C231 N230 1.351 . S
C231 C232 1.434 . S
C232 C223 1.429 . S
C232 N229 1.350 . S
C232 C231 1.434 . S
C233 C234 1.369 . S
C233 C235 1.419 . S
C233 H237 0.930 . S
C234 C233 1.369 . S
C234 C243 1.429 . S
C235 C233 1.419 . S
C235 C236 1.363 . S
C235 H238 0.929 . S
C236 C235 1.363 . S
C236 C242 1.428 . S
H237 C233 0.930 . S
H238 C235 0.929 . S
S239 N240 1.613 . S
S239 N241 1.610 . S
N240 S239 1.613 . S
N240 C243 1.350 . S
N241 S239 1.610 . S
N241 C242 1.351 . S
C242 C236 1.428 . S
C242 N241 1.351 . S
C242 C243 1.434 . S
C243 C234 1.429 . S
C243 N240 1.350 . S
C243 C242 1.434 . S
C244 C245 1.369 1_556 S
C244 C246 1.419 . S
C244 H248 0.930 . S
C245 C244 1.369 1_554 S
C245 C254 1.429 1_445 S
C246 C244 1.419 . S
C246 C247 1.363 1_545 S
C246 H249 0.929 . S
C247 C246 1.363 1_565 S
C247 C253 1.428 1_456 S
H248 C244 0.930 . S
H249 C246 0.929 . S
S250 N251 1.613 . S
S250 N252 1.610 . S
N251 S250 1.613 . S
N251 C254 1.350 . S
N252 S250 1.610 . S
N252 C253 1.351 . S
C253 C247 1.428 1_654 S
C253 N252 1.351 . S
C253 C254 1.434 . S
C254 C245 1.429 1_665 S
C254 N251 1.350 . S
C254 C253 1.434 . S
C255 C256 1.369 . S
C255 C257 1.419 1_556 S
C255 H259 0.930 . S
C256 C255 1.369 . S
C256 C265 1.429 1_455 S
C257 C255 1.419 1_554 S
C257 C258 1.363 . S
C257 H260 0.929 . S
C258 C257 1.363 . S
C258 C264 1.428 1_455 S
H259 C255 0.930 . S
H260 C257 0.929 . S
S261 N262 1.613 . S
S261 N263 1.610 1_556 S
N262 S261 1.613 . S
N262 C265 1.350 . S
N263 S261 1.610 1_554 S
N263 C264 1.351 . S
C264 C258 1.428 1_655 S
C264 N263 1.351 . S
C264 C265 1.434 1_554 S
C265 C256 1.429 1_655 S
C265 N262 1.350 . S
C265 C264 1.434 1_556 S
C266 C267 1.369 . S
C266 C268 1.419 . S
C266 H270 0.930 . S
C267 C266 1.369 . S
C267 C276 1.429 . S
C268 C266 1.419 . S
C268 C269 1.363 . S
C268 H271 0.929 . S
C269 C268 1.363 . S
C269 C275 1.428 . S
H270 C266 0.930 . S
H271 C268 0.929 . S
S272 N273 1.613 . S
S272 N274 1.610 . S
N273 S272 1.613 . S
N273 C276 1.350 . S
N274 S272 1.610 . S
N274 C275 1.351 . S
C275 C269 1.428 . S
C275 N274 1.351 . S
C275 C276 1.434 . S
C276 C267 1.429 . S
C276 N273 1.350 . S
C276 C275 1.434 . S
C277 C278 1.369 . S
C277 C279 1.419 . S
C277 H281 0.930 . S
C278 C277 1.369 . S
C278 C287 1.429 1_565 S
C279 C277 1.419 . S
C279 C280 1.363 1_565 S
C279 H282 0.929 . S
C280 C279 1.363 1_545 S
C280 C286 1.428 . S
H281 C277 0.930 . S
H282 C279 0.929 . S
S283 N284 1.613 . S
S283 N285 1.610 . S
N284 S283 1.613 . S
N284 C287 1.350 . S
N285 S283 1.610 . S
N285 C286 1.351 . S
C286 C280 1.428 . S
C286 N285 1.351 . S
C286 C287 1.434 . S
C287 C278 1.429 1_545 S
C287 N284 1.350 . S
C287 C286 1.434 . S
C113 C19 1.459 . S
C115 C5 1.459 . S
C124 C33 1.460 . S
C126 C47 1.460 . S
C135 C61 1.458 . S
C137 C75 1.459 . S
C146 C89 1.459 . S
C148 C103 1.459 . S
C157 C98 1.441 . S
C159 C0 1.442 . S
C168 C84 1.442 . S
C170 C14 1.442 . S
C179 C28 1.441 . S
C181 C70 1.441 . S
C190 C56 1.441 . S
C192 C42 1.441 . S
C201 C79 1.441 . S
C203 C37 1.443 . S
C212 C65 1.443 . S
C214 C51 1.444 . S
C223 C107 1.443 . S
C225 C9 1.444 . S
C234 C23 1.441 . S
C236 C93 1.443 . S
C245 C11 1.419 . S
C247 C39 1.417 . S
C256 C53 1.418 . S
C258 C25 1.418 . S
C267 C95 1.418 . S
C269 C67 1.417 . S
C278 C81 1.418 . S
C280 C109 1.417 . S
