# Generated by pormake.
# Topology reo-e, (6)-cn, num edge types: 1
# Building blocks:
#     Node 0, Type 0, BuildingBlock: OJICUG_clean_sbu_0, # of connection points: 6
#     Node 1, Type 0, BuildingBlock: OJICUG_clean_sbu_0, # of connection points: 6
#     Node 2, Type 0, BuildingBlock: OJICUG_clean_sbu_0, # of connection points: 6
#     Node 3, Type 0, BuildingBlock: OJICUG_clean_sbu_0, # of connection points: 6
#     Node 4, Type 0, BuildingBlock: OJICUG_clean_sbu_0, # of connection points: 6
#     Node 5, Type 0, BuildingBlock: OJICUG_clean_sbu_0, # of connection points: 6
#     Node 6, Type 0, BuildingBlock: OJICUG_clean_sbu_0, # of connection points: 6
#     Node 7, Type 0, BuildingBlock: OJICUG_clean_sbu_0, # of connection points: 6
#     Node 8, Type 0, BuildingBlock: OJICUG_clean_sbu_0, # of connection points: 6
#     Node 9, Type 0, BuildingBlock: OJICUG_clean_sbu_0, # of connection points: 6
#     Node 10, Type 0, BuildingBlock: OJICUG_clean_sbu_0, # of connection points: 6
#     Node 11, Type 0, BuildingBlock: OJICUG_clean_sbu_0, # of connection points: 6
#     Edge 12, Type (0, 0), BuildingBlock: XIVTED_clean_linker_0, # of connection points: 2
#     Edge 13, Type (0, 0), BuildingBlock: XIVTED_clean_linker_0, # of connection points: 2
#     Edge 14, Type (0, 0), BuildingBlock: XIVTED_clean_linker_0, # of connection points: 2
#     Edge 15, Type (0, 0), BuildingBlock: XIVTED_clean_linker_0, # of connection points: 2
#     Edge 16, Type (0, 0), BuildingBlock: XIVTED_clean_linker_0, # of connection points: 2
#     Edge 17, Type (0, 0), BuildingBlock: XIVTED_clean_linker_0, # of connection points: 2
#     Edge 18, Type (0, 0), BuildingBlock: XIVTED_clean_linker_0, # of connection points: 2
#     Edge 19, Type (0, 0), BuildingBlock: XIVTED_clean_linker_0, # of connection points: 2
#     Edge 20, Type (0, 0), BuildingBlock: XIVTED_clean_linker_0, # of connection points: 2
#     Edge 21, Type (0, 0), BuildingBlock: XIVTED_clean_linker_0, # of connection points: 2
#     Edge 22, Type (0, 0), BuildingBlock: XIVTED_clean_linker_0, # of connection points: 2
#     Edge 23, Type (0, 0), BuildingBlock: XIVTED_clean_linker_0, # of connection points: 2
#     Edge 24, Type (0, 0), BuildingBlock: XIVTED_clean_linker_0, # of connection points: 2
#     Edge 25, Type (0, 0), BuildingBlock: XIVTED_clean_linker_0, # of connection points: 2
#     Edge 26, Type (0, 0), BuildingBlock: XIVTED_clean_linker_0, # of connection points: 2
#     Edge 27, Type (0, 0), BuildingBlock: XIVTED_clean_linker_0, # of connection points: 2
#     Edge 28, Type (0, 0), BuildingBlock: XIVTED_clean_linker_0, # of connection points: 2
#     Edge 29, Type (0, 0), BuildingBlock: XIVTED_clean_linker_0, # of connection points: 2
#     Edge 30, Type (0, 0), BuildingBlock: XIVTED_clean_linker_0, # of connection points: 2
#     Edge 31, Type (0, 0), BuildingBlock: XIVTED_clean_linker_0, # of connection points: 2
#     Edge 32, Type (0, 0), BuildingBlock: XIVTED_clean_linker_0, # of connection points: 2
#     Edge 33, Type (0, 0), BuildingBlock: XIVTED_clean_linker_0, # of connection points: 2
#     Edge 34, Type (0, 0), BuildingBlock: XIVTED_clean_linker_0, # of connection points: 2
#     Edge 35, Type (0, 0), BuildingBlock: XIVTED_clean_linker_0, # of connection points: 2
#     Edge 36, Type (0, 0), BuildingBlock: XIVTED_clean_linker_0, # of connection points: 2
#     Edge 37, Type (0, 0), BuildingBlock: XIVTED_clean_linker_0, # of connection points: 2
#     Edge 38, Type (0, 0), BuildingBlock: XIVTED_clean_linker_0, # of connection points: 2
#     Edge 39, Type (0, 0), BuildingBlock: XIVTED_clean_linker_0, # of connection points: 2
#     Edge 40, Type (0, 0), BuildingBlock: XIVTED_clean_linker_0, # of connection points: 2
#     Edge 41, Type (0, 0), BuildingBlock: XIVTED_clean_linker_0, # of connection points: 2
#     Edge 42, Type (0, 0), BuildingBlock: XIVTED_clean_linker_0, # of connection points: 2
#     Edge 43, Type (0, 0), BuildingBlock: XIVTED_clean_linker_0, # of connection points: 2
#     Edge 44, Type (0, 0), BuildingBlock: XIVTED_clean_linker_0, # of connection points: 2
#     Edge 45, Type (0, 0), BuildingBlock: XIVTED_clean_linker_0, # of connection points: 2
#     Edge 46, Type (0, 0), BuildingBlock: XIVTED_clean_linker_0, # of connection points: 2
#     Edge 47, Type (0, 0), BuildingBlock: XIVTED_clean_linker_0, # of connection points: 2
# Relax obj value: 0.131
# Max RMSD: 0.142
# Mean RMSD: 0.142
data_MOF--net-reo-e--node1-OJICUG_clean_sbu_0--edge1-XIVTED_clean_linker_0
_symmetry_space_group_name_H-M    P1
_symmetry_Int_Tables_number       1
_symmetry_cell_setting            triclinic
loop_
_symmetry_equiv_pos_as_xyz
'x, y, z'
_cell_length_a     40.443401
_cell_length_b     40.375249
_cell_length_c     40.274426
_cell_angle_alpha  90.02888
_cell_angle_beta   90.09902
_cell_angle_gamma 89.967151
loop_
_atom_site_label
_atom_site_type_symbol
_atom_site_fract_x
_atom_site_fract_y
_atom_site_fract_z
_atom_type_partial_charge
Sc0 Sc 0.1776 0.17786 0.44444 0.0
Sc1 Sc 0.23077 0.23141 0.48808 0.0
Sc2 Sc 0.17779 0.17844 0.53234 0.0
O3 O 0.19536 0.19587 0.48829 0.0
C4 C 0.11211 0.1824 0.4883 0.0
C5 C 0.18433 0.25499 0.42851 0.0
C6 C 0.18486 0.25544 0.54793 0.0
C7 C 0.25435 0.18507 0.42826 0.0
C8 C 0.18237 0.11252 0.4889 0.0
C9 C 0.2549 0.18571 0.54796 0.0
O10 O 0.12709 0.18149 0.4606 0.0
O11 O 0.2053 0.26037 0.45141 0.0
O12 O 0.17208 0.2272 0.55329 0.0
O13 O 0.22611 0.17225 0.42306 0.0
O14 O 0.1816 0.12776 0.5165 0.0
O15 O 0.26011 0.20639 0.52478 0.0
O16 O 0.18097 0.12727 0.46104 0.0
O17 O 0.25948 0.20659 0.45072 0.0
O18 O 0.22648 0.17364 0.55393 0.0
O19 O 0.1723 0.22646 0.42272 0.0
O20 O 0.12712 0.18135 0.51605 0.0
O21 O 0.20626 0.26043 0.52543 0.0
Sc22 Sc 0.79836 0.17856 0.53342 0.0
Sc23 Sc 0.7456 0.23211 0.48931 0.0
Sc24 Sc 0.7987 0.17873 0.44552 0.0
O25 O 0.78092 0.19644 0.48941 0.0
C26 C 0.86412 0.18268 0.48993 0.0
C27 C 0.79164 0.25573 0.54919 0.0
C28 C 0.792 0.25577 0.42973 0.0
C29 C 0.72148 0.18609 0.54905 0.0
C30 C 0.79364 0.11303 0.48921 0.0
C31 C 0.72174 0.18616 0.42945 0.0
O32 O 0.84901 0.18191 0.51756 0.0
O33 O 0.77079 0.26112 0.52618 0.0
O34 O 0.80462 0.22742 0.42439 0.0
O35 O 0.74967 0.17324 0.55448 0.0
O36 O 0.79469 0.12809 0.46152 0.0
O37 O 0.71647 0.20705 0.45244 0.0
O38 O 0.7949 0.12796 0.51699 0.0
O39 O 0.71651 0.20752 0.52648 0.0
O40 O 0.75014 0.17393 0.4237 0.0
O41 O 0.80366 0.2272 0.55501 0.0
O42 O 0.84925 0.18159 0.46211 0.0
O43 O 0.77053 0.26092 0.45215 0.0
Sc44 Sc 0.79738 0.79915 0.53536 0.0
Sc45 Sc 0.74512 0.74544 0.49085 0.0
Sc46 Sc 0.79804 0.79925 0.44748 0.0
O47 O 0.7802 0.78131 0.49123 0.0
C48 C 0.79261 0.86481 0.49158 0.0
C49 C 0.7204 0.79108 0.55059 0.0
C50 C 0.72131 0.79153 0.43094 0.0
C51 C 0.79113 0.722 0.55093 0.0
C52 C 0.86331 0.79536 0.49198 0.0
C53 C 0.79176 0.72214 0.4314 0.0
O54 O 0.79336 0.84977 0.51929 0.0
O55 O 0.71555 0.77001 0.52765 0.0
O56 O 0.74954 0.80436 0.42577 0.0
O57 O 0.80329 0.75049 0.55657 0.0
O58 O 0.84851 0.79605 0.46412 0.0
O59 O 0.77067 0.71669 0.45409 0.0
O60 O 0.84813 0.79646 0.51957 0.0
O61 O 0.77006 0.71664 0.52811 0.0
O62 O 0.80381 0.75068 0.42586 0.0
O63 O 0.74858 0.80376 0.55642 0.0
O64 O 0.79422 0.84985 0.46384 0.0
O65 O 0.71619 0.77015 0.4535 0.0
Sc66 Sc 0.17656 0.79826 0.44577 0.0
Sc67 Sc 0.22988 0.74532 0.48988 0.0
Sc68 Sc 0.1771 0.79908 0.53366 0.0
O69 O 0.19448 0.78091 0.48978 0.0
C70 C 0.18159 0.86428 0.48919 0.0
C71 C 0.25338 0.79108 0.42972 0.0
C72 C 0.25412 0.79154 0.54942 0.0
C73 C 0.1835 0.72106 0.43048 0.0
C74 C 0.11126 0.79458 0.48991 0.0
C75 C 0.18388 0.72212 0.54993 0.0
O76 O 0.17996 0.84899 0.46164 0.0
O77 O 0.25868 0.76992 0.45246 0.0
O78 O 0.2258 0.80399 0.55514 0.0
O79 O 0.1712 0.74946 0.42464 0.0
O80 O 0.12637 0.79615 0.51758 0.0
O81 O 0.20511 0.71676 0.52732 0.0
O82 O 0.12612 0.79489 0.46214 0.0
O83 O 0.20464 0.71598 0.45327 0.0
O84 O 0.17138 0.75054 0.55522 0.0
O85 O 0.22503 0.80358 0.42428 0.0
O86 O 0.181 0.84959 0.5171 0.0
O87 O 0.25919 0.77049 0.52654 0.0
Sc88 Sc 0.44425 0.17974 0.17932 0.0
Sc89 Sc 0.48846 0.23139 0.2339 0.0
Sc90 Sc 0.53181 0.17932 0.17905 0.0
O91 O 0.48818 0.19679 0.19738 0.0
C92 C 0.48773 0.11371 0.18229 0.0
C93 C 0.42884 0.1851 0.25683 0.0
C94 C 0.54821 0.18472 0.25634 0.0
C95 C 0.4287 0.25663 0.18849 0.0
C96 C 0.48778 0.18523 0.11343 0.0
C97 C 0.54779 0.25623 0.18808 0.0
O98 O 0.46019 0.12892 0.18174 0.0
O99 O 0.45183 0.20575 0.26257 0.0
O100 O 0.55347 0.17281 0.22761 0.0
O101 O 0.42317 0.22867 0.17503 0.0
O102 O 0.51546 0.18388 0.12838 0.0
O103 O 0.52514 0.26094 0.20939 0.0
O104 O 0.46023 0.184 0.12855 0.0
O105 O 0.45135 0.2611 0.20993 0.0
O106 O 0.5533 0.22814 0.17488 0.0
O107 O 0.42293 0.17359 0.22803 0.0
O108 O 0.51544 0.12857 0.18138 0.0
O109 O 0.5256 0.20579 0.26214 0.0
Sc110 Sc 0.79752 0.53341 0.18001 0.0
Sc111 Sc 0.74564 0.48978 0.2347 0.0
Sc112 Sc 0.79825 0.44576 0.18097 0.0
O113 O 0.78049 0.48965 0.19853 0.0
C114 C 0.79204 0.48882 0.11476 0.0
C115 C 0.72062 0.54903 0.18859 0.0
C116 C 0.72155 0.42938 0.18953 0.0
C117 C 0.79189 0.54987 0.25724 0.0
C118 C 0.86356 0.49009 0.18354 0.0
C119 C 0.79253 0.43066 0.25845 0.0
O120 O 0.79301 0.51668 0.12947 0.0
O121 O 0.71592 0.52638 0.20994 0.0
O122 O 0.74974 0.42399 0.17667 0.0
O123 O 0.80382 0.55518 0.22854 0.0
O124 O 0.84878 0.46231 0.18332 0.0
O125 O 0.77131 0.45327 0.26373 0.0
O126 O 0.84831 0.51761 0.18241 0.0
O127 O 0.7709 0.52717 0.26298 0.0
O128 O 0.80459 0.42493 0.22989 0.0
O129 O 0.7487 0.55455 0.17555 0.0
O130 O 0.79377 0.46136 0.1301 0.0
O131 O 0.71646 0.45231 0.21054 0.0
Sc132 Sc 0.44362 0.79977 0.1812 0.0
Sc133 Sc 0.48693 0.74649 0.23495 0.0
Sc134 Sc 0.53118 0.79869 0.18109 0.0
O135 O 0.48724 0.78168 0.19905 0.0
C136 C 0.48717 0.79393 0.11534 0.0
C137 C 0.42683 0.72295 0.1892 0.0
C138 C 0.54627 0.7215 0.18919 0.0
C139 C 0.42799 0.79353 0.25852 0.0
C140 C 0.48817 0.86502 0.18461 0.0
C141 C 0.54697 0.79223 0.25843 0.0
O142 O 0.45963 0.79555 0.13044 0.0
O143 O 0.4496 0.71767 0.21032 0.0
O144 O 0.55211 0.74971 0.17646 0.0
O145 O 0.42246 0.80586 0.22999 0.0
O146 O 0.5156 0.84964 0.18373 0.0
O147 O 0.52414 0.7713 0.26375 0.0
O148 O 0.46038 0.85032 0.18397 0.0
O149 O 0.45045 0.77217 0.26382 0.0
O150 O 0.55261 0.80444 0.22989 0.0
O151 O 0.42161 0.75128 0.17643 0.0
O152 O 0.51487 0.79474 0.13032 0.0
O153 O 0.52343 0.71674 0.21028 0.0
Sc154 Sc 0.17755 0.44515 0.17884 0.0
Sc155 Sc 0.22928 0.48871 0.23388 0.0
Sc156 Sc 0.17728 0.53281 0.17944 0.0
O157 O 0.19468 0.4889 0.19736 0.0
C158 C 0.18338 0.48943 0.11346 0.0
C159 C 0.25428 0.42924 0.18798 0.0
C160 C 0.25405 0.54874 0.18876 0.0
C161 C 0.18286 0.42882 0.25615 0.0
C162 C 0.11173 0.48876 0.18194 0.0
C163 C 0.18259 0.54825 0.25691 0.0
O164 O 0.18198 0.46169 0.1283 0.0
O165 O 0.25888 0.45175 0.20956 0.0
O166 O 0.22596 0.55439 0.17567 0.0
O167 O 0.17125 0.42338 0.2273 0.0
O168 O 0.12663 0.51648 0.18135 0.0
O169 O 0.20372 0.52561 0.26248 0.0
O170 O 0.12685 0.46116 0.18122 0.0
O171 O 0.20366 0.45165 0.26213 0.0
O172 O 0.17066 0.55382 0.22823 0.0
O173 O 0.22632 0.42394 0.17451 0.0
O174 O 0.18204 0.51701 0.12864 0.0
O175 O 0.25884 0.52577 0.20978 0.0
Sc176 Sc 0.44371 0.79835 0.80089 0.0
Sc177 Sc 0.4862 0.74445 0.74714 0.0
Sc178 Sc 0.53124 0.79719 0.80003 0.0
O179 O 0.48705 0.78002 0.78271 0.0
C180 C 0.48823 0.8635 0.79608 0.0
C181 C 0.42678 0.79119 0.72384 0.0
C182 C 0.54591 0.7899 0.72256 0.0
C183 C 0.42689 0.72144 0.79398 0.0
C184 C 0.48823 0.79324 0.86631 0.0
C185 C 0.5463 0.71995 0.79242 0.0
O186 O 0.46045 0.84884 0.79727 0.0
O187 O 0.44913 0.76973 0.71848 0.0
O188 O 0.55191 0.80233 0.75096 0.0
O189 O 0.4218 0.74994 0.80644 0.0
O190 O 0.5157 0.79383 0.85101 0.0
O191 O 0.5232 0.715 0.77158 0.0
O192 O 0.46047 0.79475 0.85152 0.0
O193 O 0.44935 0.7159 0.77265 0.0
O194 O 0.55223 0.74825 0.80494 0.0
O195 O 0.42181 0.8039 0.7523 0.0
O196 O 0.51566 0.84811 0.79693 0.0
O197 O 0.52296 0.76899 0.71758 0.0
Sc198 Sc 0.17839 0.4438 0.79858 0.0
Sc199 Sc 0.23099 0.48848 0.74555 0.0
Sc200 Sc 0.17748 0.53152 0.79914 0.0
O201 O 0.19558 0.48793 0.78112 0.0
C202 C 0.11227 0.48704 0.79496 0.0
C203 C 0.18522 0.42884 0.72115 0.0
C204 C 0.18424 0.54781 0.72203 0.0
C205 C 0.25547 0.42855 0.791 0.0
C206 C 0.18302 0.48729 0.86464 0.0
C207 C 0.25432 0.54805 0.7921 0.0
O208 O 0.12757 0.45953 0.79575 0.0
O209 O 0.20626 0.45165 0.71619 0.0
O210 O 0.17165 0.55307 0.75046 0.0
O211 O 0.22721 0.42262 0.80343 0.0
O212 O 0.18145 0.51502 0.84977 0.0
O213 O 0.25972 0.52536 0.77092 0.0
O214 O 0.18219 0.45968 0.84946 0.0
O215 O 0.2604 0.45158 0.77012 0.0
O216 O 0.2259 0.55347 0.80442 0.0
O217 O 0.17286 0.42292 0.74955 0.0
O218 O 0.127 0.51484 0.79592 0.0
O219 O 0.2057 0.52543 0.7168 0.0
Sc220 Sc 0.44457 0.1781 0.79904 0.0
Sc221 Sc 0.48797 0.23118 0.74534 0.0
Sc222 Sc 0.53208 0.17757 0.7982 0.0
O223 O 0.48821 0.1956 0.78088 0.0
C224 C 0.48905 0.18274 0.86446 0.0
C225 C 0.42877 0.25524 0.7918 0.0
C226 C 0.5484 0.25457 0.7908 0.0
C227 C 0.42798 0.18522 0.72195 0.0
C228 C 0.48794 0.11209 0.79452 0.0
C229 C 0.54701 0.18471 0.72079 0.0
O230 O 0.46127 0.18186 0.84965 0.0
O231 O 0.45144 0.26046 0.77065 0.0
O232 O 0.55383 0.22612 0.80321 0.0
O233 O 0.42285 0.17259 0.7504 0.0
O234 O 0.51566 0.12692 0.79509 0.0
O235 O 0.52441 0.20603 0.71588 0.0
O236 O 0.46046 0.12732 0.79582 0.0
O237 O 0.45055 0.20645 0.71661 0.0
O238 O 0.55278 0.17209 0.74914 0.0
O239 O 0.42329 0.22683 0.80425 0.0
O240 O 0.51651 0.18129 0.84918 0.0
O241 O 0.52541 0.26 0.76995 0.0
Sc242 Sc 0.79827 0.53212 0.79992 0.0
Sc243 Sc 0.74582 0.48799 0.74608 0.0
Sc244 Sc 0.7983 0.44443 0.8005 0.0
O245 O 0.78082 0.48817 0.7822 0.0
C246 C 0.86398 0.48833 0.79684 0.0
C247 C 0.79216 0.54738 0.72246 0.0
C248 C 0.7923 0.42817 0.72328 0.0
C249 C 0.72145 0.5481 0.7915 0.0
C250 C 0.79275 0.48869 0.86594 0.0
C251 C 0.72138 0.42848 0.79201 0.0
O252 O 0.84891 0.51597 0.79721 0.0
O253 O 0.77123 0.52455 0.71706 0.0
O254 O 0.80459 0.42293 0.75188 0.0
O255 O 0.74959 0.55352 0.80454 0.0
O256 O 0.79383 0.46088 0.85114 0.0
O257 O 0.71643 0.45136 0.77093 0.0
O258 O 0.79426 0.51621 0.85071 0.0
O259 O 0.71655 0.52533 0.77026 0.0
O260 O 0.74961 0.42284 0.80482 0.0
O261 O 0.8041 0.55324 0.75109 0.0
O262 O 0.84902 0.46066 0.79807 0.0
O263 O 0.77103 0.45068 0.71772 0.0
H264 H 0.19639 0.32091 0.43823 0.0
H265 H 0.14837 0.37025 0.25266 0.0
H266 H 0.15195 0.25285 0.36846 0.0
H267 H 0.19704 0.43553 0.32228 0.0
H268 H 0.14091 0.32983 0.29719 0.0
H269 H 0.18814 0.36571 0.39868 0.0
C270 C 0.18463 0.31539 0.41468 0.0
C271 C 0.17538 0.2829 0.40645 0.0
C272 C 0.15287 0.35318 0.30276 0.0
C273 C 0.16604 0.33424 0.36083 0.0
C274 C 0.15709 0.37632 0.27736 0.0
C275 C 0.17389 0.40614 0.28356 0.0
C276 C 0.16552 0.35992 0.33455 0.0
C277 C 0.18443 0.41268 0.31614 0.0
C278 C 0.17989 0.34105 0.39208 0.0
C279 C 0.15975 0.27744 0.37576 0.0
N280 N 0.18037 0.38963 0.34028 0.0
N281 N 0.15598 0.30279 0.35386 0.0
H282 H 0.60676 0.15018 0.25318 0.0
H283 H 0.65601 0.19918 0.4386 0.0
H284 H 0.5415 0.19921 0.32236 0.0
H285 H 0.72375 0.15348 0.36957 0.0
H286 H 0.61134 0.19113 0.39886 0.0
H287 H 0.64713 0.14295 0.29786 0.0
C288 C 0.60068 0.15902 0.27782 0.0
C289 C 0.57087 0.17584 0.28385 0.0
C290 C 0.6359 0.18256 0.39247 0.0
C291 C 0.61705 0.16777 0.33501 0.0
C292 C 0.66148 0.18719 0.41518 0.0
C293 C 0.69386 0.1775 0.40723 0.0
C294 C 0.64266 0.16837 0.36138 0.0
C295 C 0.69926 0.16162 0.37667 0.0
C296 C 0.6238 0.15494 0.30331 0.0
C297 C 0.56434 0.18657 0.31636 0.0
N298 N 0.67399 0.15794 0.35466 0.0
N299 N 0.58736 0.18265 0.34057 0.0
H300 H 0.77962 0.65615 0.44052 0.0
H301 H 0.8264 0.60847 0.25427 0.0
H302 H 0.82405 0.7247 0.37145 0.0
H303 H 0.7778 0.54274 0.32326 0.0
H304 H 0.83425 0.64843 0.29923 0.0
H305 H 0.78748 0.61171 0.40044 0.0
C306 C 0.79131 0.66184 0.41702 0.0
C307 C 0.80066 0.69438 0.40914 0.0
C308 C 0.82221 0.62509 0.30456 0.0
C309 C 0.80951 0.64347 0.36291 0.0
C310 C 0.81776 0.60221 0.27892 0.0
C311 C 0.80089 0.57239 0.28483 0.0
C312 C 0.80972 0.61808 0.33631 0.0
C313 C 0.79045 0.5656 0.31735 0.0
C314 C 0.79581 0.63639 0.39412 0.0
C315 C 0.81618 0.70007 0.37849 0.0
N316 N 0.79474 0.58839 0.34173 0.0
N317 N 0.81971 0.67493 0.35629 0.0
H318 H 0.25129 0.82736 0.37199 0.0
H319 H 0.43685 0.7803 0.32452 0.0
H320 H 0.31879 0.77496 0.43656 0.0
H321 H 0.36842 0.8263 0.25619 0.0
H322 H 0.39664 0.78719 0.36888 0.0
H323 H 0.29639 0.8358 0.33257 0.0
C324 C 0.27563 0.81795 0.3781 0.0
C325 C 0.28108 0.79993 0.40744 0.0
C326 C 0.3905 0.79609 0.34427 0.0
C327 C 0.33275 0.8095 0.36237 0.0
C328 C 0.41348 0.79216 0.31887 0.0
C329 C 0.4058 0.8022 0.28639 0.0
C330 C 0.35943 0.80993 0.3372 0.0
C331 C 0.3753 0.81791 0.28077 0.0
C332 C 0.30136 0.82277 0.35554 0.0
C333 C 0.31324 0.78856 0.41406 0.0
N334 N 0.35302 0.82088 0.30584 0.0
N335 N 0.33773 0.79327 0.39158 0.0
H336 H 0.14845 0.72437 0.60811 0.0
H337 H 0.19772 0.53918 0.65609 0.0
H338 H 0.1996 0.65657 0.54296 0.0
H339 H 0.151 0.60719 0.72429 0.0
H340 H 0.19007 0.57923 0.61161 0.0
H341 H 0.14086 0.67932 0.64792 0.0
C342 C 0.15772 0.69996 0.60195 0.0
C343 C 0.17519 0.69442 0.57235 0.0
C344 C 0.18119 0.58533 0.63622 0.0
C345 C 0.16665 0.64284 0.61786 0.0
C346 C 0.18557 0.56244 0.66169 0.0
C347 C 0.17551 0.57003 0.69416 0.0
C348 C 0.16687 0.61623 0.64319 0.0
C349 C 0.15942 0.60038 0.69972 0.0
C350 C 0.15341 0.67426 0.62474 0.0
C351 C 0.18644 0.6622 0.56566 0.0
N352 N 0.156 0.62258 0.67457 0.0
N353 N 0.18225 0.63776 0.58837 0.0
H354 H 0.32051 0.19956 0.53908 0.0
H355 H 0.37005 0.14966 0.72429 0.0
H356 H 0.25315 0.15285 0.60773 0.0
H357 H 0.43417 0.20166 0.65632 0.0
H358 H 0.32991 0.14245 0.6794 0.0
H359 H 0.3651 0.19217 0.57906 0.0
C360 C 0.3151 0.18747 0.56246 0.0
C361 C 0.28284 0.17731 0.57024 0.0
C362 C 0.35293 0.15512 0.67427 0.0
C363 C 0.33395 0.16896 0.61635 0.0
C364 C 0.37592 0.1592 0.69988 0.0
C365 C 0.40536 0.17677 0.69426 0.0
C366 C 0.35944 0.16867 0.64284 0.0
C367 C 0.41163 0.18839 0.66202 0.0
C368 C 0.34065 0.18325 0.58531 0.0
C369 C 0.27754 0.16135 0.60076 0.0
N370 N 0.38875 0.1844 0.63767 0.0
N371 N 0.30276 0.15805 0.62289 0.0
H372 H 0.82744 0.36989 0.72594 0.0
H373 H 0.77864 0.32161 0.5402 0.0
H374 H 0.77723 0.43513 0.6574 0.0
H375 H 0.82445 0.25348 0.60899 0.0
H376 H 0.7865 0.36614 0.58019 0.0
H377 H 0.83499 0.32992 0.68095 0.0
C378 C 0.81839 0.37605 0.70138 0.0
C379 C 0.80116 0.40572 0.69562 0.0
C380 C 0.79514 0.34153 0.58646 0.0
C381 C 0.80963 0.36002 0.64411 0.0
C382 C 0.79062 0.31602 0.56361 0.0
C383 C 0.80037 0.28358 0.57144 0.0
C384 C 0.80927 0.33459 0.61756 0.0
C385 C 0.81625 0.27803 0.60199 0.0
C386 C 0.82266 0.35316 0.67572 0.0
C387 C 0.79018 0.41238 0.6632 0.0
N388 N 0.81981 0.30321 0.62414 0.0
N389 N 0.79432 0.38958 0.63881 0.0
H390 H 0.7213 0.82776 0.60814 0.0
H391 H 0.53802 0.77376 0.65699 0.0
H392 H 0.65552 0.77287 0.54388 0.0
H393 H 0.6043 0.82471 0.72394 0.0
H394 H 0.57793 0.78113 0.61243 0.0
H395 H 0.67608 0.83464 0.64772 0.0
C396 C 0.6973 0.81749 0.60212 0.0
C397 C 0.69241 0.79924 0.57282 0.0
C398 C 0.58365 0.79099 0.63678 0.0
C399 C 0.6406 0.80694 0.61812 0.0
C400 C 0.56084 0.78678 0.6623 0.0
C401 C 0.568 0.79815 0.69447 0.0
C402 C 0.61402 0.80649 0.64341 0.0
C403 C 0.59782 0.81525 0.69963 0.0
C404 C 0.67149 0.8214 0.62479 0.0
C405 C 0.66066 0.78672 0.56632 0.0
N406 N 0.61992 0.81853 0.67446 0.0
N407 N 0.6361 0.79053 0.58892 0.0
H408 H 0.43769 0.19741 0.32305 0.0
H409 H 0.25228 0.14938 0.37013 0.0
H410 H 0.3691 0.15272 0.254 0.0
H411 H 0.31974 0.20102 0.43532 0.0
H412 H 0.29733 0.14162 0.33046 0.0
H413 H 0.39754 0.18982 0.36735 0.0
C414 C 0.4143 0.1857 0.31722 0.0
C415 C 0.40657 0.17622 0.28457 0.0
C416 C 0.30231 0.15433 0.35362 0.0
C417 C 0.36027 0.16767 0.33532 0.0
C418 C 0.27662 0.15872 0.37633 0.0
C419 C 0.28206 0.17637 0.40591 0.0
C420 C 0.33366 0.16761 0.36057 0.0
C421 C 0.31419 0.18772 0.41264 0.0
C422 C 0.39135 0.18137 0.34258 0.0
C423 C 0.37603 0.1607 0.27871 0.0
N424 N 0.33864 0.18341 0.39003 0.0
N425 N 0.3538 0.15731 0.30377 0.0
H426 H 0.77915 0.43937 0.32445 0.0
H427 H 0.82821 0.254 0.37202 0.0
H428 H 0.82597 0.37141 0.25627 0.0
H429 H 0.77595 0.32124 0.43686 0.0
H430 H 0.83622 0.29931 0.3326 0.0
H431 H 0.7867 0.39923 0.36891 0.0
C432 C 0.79132 0.41613 0.31885 0.0
C433 C 0.8014 0.40855 0.28639 0.0
C434 C 0.82332 0.30419 0.35563 0.0
C435 C 0.8099 0.36226 0.3373 0.0
C436 C 0.81877 0.27834 0.3782 0.0
C437 C 0.80087 0.28364 0.40759 0.0
C438 C 0.8099 0.33554 0.36252 0.0
C439 C 0.78944 0.31579 0.41431 0.0
C440 C 0.79563 0.39318 0.34431 0.0
C441 C 0.81751 0.37821 0.28083 0.0
N442 N 0.79387 0.34039 0.39182 0.0
N443 N 0.82085 0.35597 0.30595 0.0
H444 H 0.53832 0.77864 0.32437 0.0
H445 H 0.72325 0.82763 0.37309 0.0
H446 H 0.60655 0.82495 0.25632 0.0
H447 H 0.65606 0.77481 0.43733 0.0
H448 H 0.67827 0.8353 0.33319 0.0
H449 H 0.57842 0.78577 0.36891 0.0
C450 C 0.56164 0.79059 0.3188 0.0
C451 C 0.56927 0.80069 0.28636 0.0
C452 C 0.67333 0.82234 0.35619 0.0
C453 C 0.61552 0.80874 0.33741 0.0
C454 C 0.69899 0.81799 0.37904 0.0
C455 C 0.69361 0.80007 0.40843 0.0
C456 C 0.64209 0.80872 0.3628 0.0
C457 C 0.66156 0.78835 0.41481 0.0
C458 C 0.58456 0.79467 0.34432 0.0
C459 C 0.5997 0.8165 0.28087 0.0
N460 N 0.63715 0.79262 0.39207 0.0
N461 N 0.62191 0.81966 0.30606 0.0
H462 H 0.19722 0.65532 0.43953 0.0
H463 H 0.14704 0.60629 0.25443 0.0
H464 H 0.14986 0.72278 0.37114 0.0
H465 H 0.19776 0.54126 0.32279 0.0
H466 H 0.13951 0.64623 0.29942 0.0
H467 H 0.18918 0.61056 0.39982 0.0
C468 C 0.18485 0.66071 0.41627 0.0
C469 C 0.17472 0.69304 0.40846 0.0
C470 C 0.15194 0.62304 0.30462 0.0
C471 C 0.16562 0.64177 0.36266 0.0
C472 C 0.1562 0.60016 0.27896 0.0
C473 C 0.17359 0.57057 0.28465 0.0
C474 C 0.16515 0.61626 0.33618 0.0
C475 C 0.18469 0.56395 0.31703 0.0
C476 C 0.18024 0.63507 0.39358 0.0
C477 C 0.15837 0.69832 0.37811 0.0
N478 N 0.18058 0.58675 0.34144 0.0
N479 N 0.15472 0.67303 0.35611 0.0
H480 H 0.31967 0.7772 0.5408 0.0
H481 H 0.36884 0.82685 0.72621 0.0
H482 H 0.25237 0.8247 0.60907 0.0
H483 H 0.43311 0.77499 0.65818 0.0
H484 H 0.32881 0.83427 0.68124 0.0
H485 H 0.36415 0.78437 0.58093 0.0
C486 C 0.31426 0.78942 0.56412 0.0
C487 C 0.28204 0.79988 0.57175 0.0
C488 C 0.35185 0.82159 0.67611 0.0
C489 C 0.33303 0.80797 0.61805 0.0
C490 C 0.37477 0.8174 0.70177 0.0
C491 C 0.40421 0.7998 0.69615 0.0
C492 C 0.35843 0.80813 0.64464 0.0
C493 C 0.41056 0.78828 0.66388 0.0
C494 C 0.33974 0.79352 0.58707 0.0
C495 C 0.27674 0.81599 0.60221 0.0
N496 N 0.38775 0.79238 0.63948 0.0
N497 N 0.30189 0.81916 0.62444 0.0
H498 H 0.14793 0.25389 0.60515 0.0
H499 H 0.19988 0.43773 0.65547 0.0
H500 H 0.20241 0.32062 0.54176 0.0
H501 H 0.15127 0.36987 0.72237 0.0
H502 H 0.19237 0.39811 0.61053 0.0
H503 H 0.1405 0.2989 0.64504 0.0
C504 C 0.15798 0.27807 0.59938 0.0
C505 C 0.17632 0.28329 0.57026 0.0
C506 C 0.18305 0.39197 0.63495 0.0
C507 C 0.16795 0.33483 0.61589 0.0
C508 C 0.18735 0.41461 0.6607 0.0
C509 C 0.17671 0.40691 0.69295 0.0
C510 C 0.1682 0.36124 0.64145 0.0
C511 C 0.16016 0.37675 0.698 0.0
C512 C 0.15376 0.30374 0.62223 0.0
C513 C 0.18854 0.31524 0.56407 0.0
N514 N 0.1568 0.35482 0.6726 0.0
N515 N 0.18441 0.33966 0.58684 0.0
H516 H 0.53862 0.20005 0.65513 0.0
H517 H 0.72281 0.14898 0.60628 0.0
H518 H 0.60583 0.15055 0.72222 0.0
H519 H 0.6564 0.2037 0.54253 0.0
H520 H 0.67763 0.14117 0.64573 0.0
H521 H 0.57862 0.19315 0.61056 0.0
C522 C 0.56167 0.18743 0.66047 0.0
C523 C 0.56907 0.17637 0.69269 0.0
C524 C 0.6729 0.15458 0.62294 0.0
C525 C 0.6152 0.1686 0.64162 0.0
C526 C 0.69868 0.15902 0.60034 0.0
C527 C 0.6936 0.17751 0.57123 0.0
C528 C 0.64183 0.1687 0.61637 0.0
C529 C 0.66169 0.18971 0.56484 0.0
C530 C 0.58453 0.1835 0.63494 0.0
C531 C 0.59917 0.15976 0.69788 0.0
N532 N 0.63716 0.18536 0.58735 0.0
N533 N 0.62133 0.15676 0.67271 0.0
H534 H 0.77892 0.53855 0.65641 0.0
H535 H 0.82698 0.72407 0.60896 0.0
H536 H 0.82518 0.60682 0.72478 0.0
H537 H 0.77561 0.65641 0.54371 0.0
H538 H 0.8351 0.67887 0.6485 0.0
H539 H 0.78635 0.57865 0.61195 0.0
C540 C 0.79093 0.56186 0.66205 0.0
C541 C 0.8009 0.56953 0.69457 0.0
C542 C 0.82237 0.67388 0.62535 0.0
C543 C 0.80927 0.61577 0.64364 0.0
C544 C 0.81776 0.69966 0.60271 0.0
C545 C 0.80007 0.69421 0.57317 0.0
C546 C 0.80922 0.64244 0.61838 0.0
C547 C 0.78892 0.66198 0.56637 0.0
C548 C 0.79518 0.58478 0.63659 0.0
C549 C 0.81681 0.59995 0.70018 0.0
N550 N 0.7934 0.63744 0.58894 0.0
N551 N 0.8201 0.62216 0.67505 0.0
H552 H 0.43616 0.3216 0.20643 0.0
H553 H 0.25361 0.37229 0.15047 0.0
H554 H 0.37047 0.25603 0.15311 0.0
H555 H 0.31887 0.435 0.20767 0.0
H556 H 0.2987 0.3325 0.14387 0.0
H557 H 0.39623 0.36622 0.19965 0.0
C558 C 0.41345 0.3166 0.19303 0.0
C559 C 0.40649 0.2848 0.18077 0.0
C560 C 0.30321 0.35514 0.15757 0.0
C561 C 0.36043 0.33595 0.17308 0.0
C562 C 0.27748 0.37793 0.16131 0.0
C563 C 0.28225 0.40687 0.18009 0.0
C564 C 0.3339 0.36132 0.1727 0.0
C565 C 0.31382 0.41286 0.19337 0.0
C566 C 0.39063 0.34217 0.18916 0.0
C567 C 0.3768 0.28005 0.16323 0.0
N568 N 0.33829 0.39016 0.18967 0.0
N569 N 0.35468 0.30525 0.16026 0.0
H570 H 0.32012 0.53913 0.77937 0.0
H571 H 0.36844 0.72428 0.8287 0.0
H572 H 0.2519 0.60782 0.8248 0.0
H573 H 0.43369 0.65572 0.77885 0.0
H574 H 0.32829 0.67957 0.83581 0.0
H575 H 0.36452 0.57899 0.78745 0.0
C576 C 0.31448 0.56251 0.79131 0.0
C577 C 0.28205 0.57032 0.80091 0.0
C578 C 0.35157 0.67428 0.82366 0.0
C579 C 0.33295 0.61631 0.81005 0.0
C580 C 0.37456 0.69977 0.81964 0.0
C581 C 0.4043 0.69393 0.80265 0.0
C582 C 0.3584 0.64274 0.81061 0.0
C583 C 0.4109 0.66159 0.79163 0.0
C584 C 0.33992 0.58529 0.79594 0.0
C585 C 0.27645 0.60083 0.81674 0.0
N586 N 0.38801 0.63735 0.79553 0.0
N587 N 0.30157 0.62291 0.82042 0.0
H588 H 0.32087 0.43723 0.77601 0.0
H589 H 0.37119 0.25328 0.828 0.0
H590 H 0.25422 0.3693 0.82466 0.0
H591 H 0.43485 0.32057 0.77463 0.0
H592 H 0.33109 0.29804 0.83497 0.0
H593 H 0.36559 0.39753 0.78338 0.0
C594 C 0.31565 0.41407 0.78851 0.0
C595 C 0.28354 0.40642 0.79925 0.0
C596 C 0.354 0.30306 0.82205 0.0
C597 C 0.33481 0.36062 0.8076 0.0
C598 C 0.37698 0.27753 0.81811 0.0
C599 C 0.40628 0.28297 0.80023 0.0
C600 C 0.36036 0.33426 0.80803 0.0
C601 C 0.41244 0.31501 0.78817 0.0
C602 C 0.34127 0.39138 0.79273 0.0
C603 C 0.27849 0.37617 0.81571 0.0
N604 N 0.38955 0.3393 0.79202 0.0
N605 N 0.30378 0.3542 0.81902 0.0
H606 H 0.65598 0.43696 0.77675 0.0
H607 H 0.60642 0.2522 0.82649 0.0
H608 H 0.72295 0.36887 0.82506 0.0
H609 H 0.54245 0.31998 0.77381 0.0
H610 H 0.64656 0.29689 0.83374 0.0
H611 H 0.61155 0.39687 0.78325 0.0
C612 C 0.66133 0.41368 0.78901 0.0
C613 C 0.69345 0.40612 0.79992 0.0
C614 C 0.62358 0.30202 0.8209 0.0
C615 C 0.6425 0.35986 0.80724 0.0
C616 C 0.60059 0.27653 0.81679 0.0
C617 C 0.57115 0.28215 0.79908 0.0
C618 C 0.6171 0.33337 0.80723 0.0
C619 C 0.56495 0.31428 0.78724 0.0
C620 C 0.63587 0.39076 0.79271 0.0
C621 C 0.69866 0.3757 0.81603 0.0
N622 N 0.58783 0.33853 0.79128 0.0
N623 N 0.67354 0.3535 0.81884 0.0
H624 H 0.72271 0.6056 0.82815 0.0
H625 H 0.53844 0.65453 0.77632 0.0
H626 H 0.65649 0.5419 0.77321 0.0
H627 H 0.6054 0.72141 0.82629 0.0
H628 H 0.57874 0.61019 0.78285 0.0
H629 H 0.67758 0.64526 0.83532 0.0
C630 C 0.69863 0.59972 0.81792 0.0
C631 C 0.69358 0.57053 0.79961 0.0
C632 C 0.58454 0.63447 0.79267 0.0
C633 C 0.64187 0.61591 0.80768 0.0
C634 C 0.56149 0.65987 0.78895 0.0
C635 C 0.56869 0.69196 0.80031 0.0
C636 C 0.61519 0.64114 0.80766 0.0
C637 C 0.59885 0.69716 0.81688 0.0
C638 C 0.67288 0.62244 0.82199 0.0
C639 C 0.66175 0.56425 0.78711 0.0
N640 N 0.62116 0.67211 0.8197 0.0
N641 N 0.63725 0.58687 0.79113 0.0
H642 H 0.53846 0.65625 0.2059 0.0
H643 H 0.72145 0.6062 0.15147 0.0
H644 H 0.6047 0.72246 0.15438 0.0
H645 H 0.65588 0.54299 0.20746 0.0
H646 H 0.67635 0.64596 0.14468 0.0
H647 H 0.57838 0.61166 0.19891 0.0
C648 C 0.56127 0.6614 0.19283 0.0
C649 C 0.5684 0.69337 0.18116 0.0
C650 C 0.67178 0.62322 0.15815 0.0
C651 C 0.61445 0.64225 0.17325 0.0
C652 C 0.69751 0.60044 0.162 0.0
C653 C 0.69266 0.57137 0.18051 0.0
C654 C 0.64098 0.61689 0.1729 0.0
C655 C 0.66099 0.56523 0.19338 0.0
C656 C 0.5841 0.63585 0.18884 0.0
C657 C 0.59823 0.69831 0.16404 0.0
N658 N 0.63651 0.58792 0.18959 0.0
N659 N 0.62034 0.67311 0.16096 0.0
H660 H 0.36884 0.72499 0.15342 0.0
H661 H 0.31925 0.54083 0.20526 0.0
H662 H 0.43288 0.65771 0.20664 0.0
H663 H 0.2527 0.60793 0.15499 0.0
H664 H 0.36365 0.58094 0.19865 0.0
H665 H 0.32874 0.68018 0.14655 0.0
C666 C 0.3747 0.70075 0.16331 0.0
C667 C 0.40413 0.6953 0.18108 0.0
C668 C 0.33942 0.58682 0.18879 0.0
C669 C 0.35826 0.64397 0.17338 0.0
C670 C 0.31398 0.56389 0.19257 0.0
C671 C 0.28199 0.57117 0.18111 0.0
C672 C 0.33289 0.61745 0.17363 0.0
C673 C 0.27689 0.60133 0.16446 0.0
C674 C 0.35174 0.67518 0.15942 0.0
C675 C 0.41037 0.66328 0.19317 0.0
N676 N 0.30198 0.62354 0.16157 0.0
N677 N 0.38752 0.63897 0.18936 0.0
H678 H 0.53959 0.32147 0.20451 0.0
H679 H 0.7232 0.37195 0.15279 0.0
H680 H 0.60684 0.25518 0.15427 0.0
H681 H 0.65664 0.4349 0.20804 0.0
H682 H 0.67845 0.33191 0.14559 0.0
H683 H 0.57955 0.36606 0.19824 0.0
C684 C 0.56265 0.31631 0.19188 0.0
C685 C 0.57003 0.28432 0.18036 0.0
C686 C 0.6736 0.35465 0.159 0.0
C687 C 0.61613 0.33544 0.17328 0.0
C688 C 0.69913 0.37758 0.16309 0.0
C689 C 0.69387 0.40669 0.18148 0.0
C690 C 0.64259 0.36086 0.17336 0.0
C691 C 0.66205 0.41265 0.19406 0.0
C692 C 0.5855 0.34185 0.1883 0.0
C693 C 0.60017 0.27936 0.16378 0.0
N694 N 0.63776 0.38982 0.19001 0.0
N695 N 0.6223 0.30456 0.1611 0.0
H696 H 0.18369 0.90528 0.43496 0.0
H697 H 0.18601 0.07146 0.543 0.0
H698 H 0.18461 0.90683 0.54226 0.0
H699 H 0.1835 0.07 0.43572 0.0
H700 H 0.18775 0.01114 0.54311 0.0
H701 H 0.18584 0.9656 0.43476 0.0
C702 C 0.1844 0.91825 0.45851 0.0
C703 C 0.18381 0.90086 0.4887 0.0
C704 C 0.18689 0.02402 0.51955 0.0
C705 C 0.18626 0.97006 0.48856 0.0
C706 C 0.18589 0.05852 0.51943 0.0
C707 C 0.18444 0.07594 0.48929 0.0
C708 C 0.18642 0.00672 0.48932 0.0
C709 C 0.18448 0.0577 0.45958 0.0
C710 C 0.18564 0.95274 0.45834 0.0
C711 C 0.18491 0.91911 0.51837 0.0
N712 N 0.18535 0.02409 0.46036 0.0
N713 N 0.18599 0.95271 0.51754 0.0
H714 H 0.07053 0.18522 0.43451 0.0
H715 H 0.90561 0.18504 0.54386 0.0
H716 H 0.07017 0.18404 0.5418 0.0
H717 H 0.90616 0.18452 0.43656 0.0
H718 H 0.96588 0.18667 0.5436 0.0
H719 H 0.0103 0.18696 0.43487 0.0
C720 C 0.05785 0.18538 0.45817 0.0
C721 C 0.07556 0.18433 0.48818 0.0
C722 C 0.9528 0.18625 0.52012 0.0
C723 C 0.00642 0.18632 0.48871 0.0
C724 C 0.91834 0.18533 0.52022 0.0
C725 C 0.90068 0.1845 0.49017 0.0
C726 C 0.96982 0.18635 0.48976 0.0
C727 C 0.91864 0.18502 0.46035 0.0
C728 C 0.0234 0.18638 0.45833 0.0
C729 C 0.05764 0.18471 0.51803 0.0
N730 N 0.9522 0.18583 0.46092 0.0
N731 N 0.02408 0.1856 0.51752 0.0
H732 H 0.79074 0.0714 0.43543 0.0
H733 H 0.789 0.90646 0.54529 0.0
H734 H 0.79106 0.0711 0.54273 0.0
H735 H 0.79104 0.90673 0.43801 0.0
H736 H 0.78718 0.96681 0.54476 0.0
H737 H 0.78834 0.01108 0.4359 0.0
C738 C 0.79025 0.05872 0.45911 0.0
C739 C 0.79128 0.07646 0.4891 0.0
C740 C 0.78795 0.95365 0.52134 0.0
C741 C 0.78853 0.00726 0.48975 0.0
C742 C 0.78899 0.91914 0.5216 0.0
C743 C 0.79036 0.90139 0.49163 0.0
C744 C 0.7883 0.97061 0.49092 0.0
C745 C 0.79015 0.91929 0.46174 0.0
C746 C 0.78887 0.02422 0.45934 0.0
C747 C 0.79044 0.05855 0.51898 0.0
N748 N 0.78925 0.9529 0.46216 0.0
N749 N 0.78921 0.02495 0.51853 0.0
H750 H 0.06951 0.79061 0.43635 0.0
H751 H 0.90482 0.7943 0.54597 0.0
H752 H 0.06948 0.79453 0.54358 0.0
H753 H 0.90531 0.79223 0.43869 0.0
H754 H 0.9651 0.79249 0.5457 0.0
H755 H 0.0093 0.78923 0.43692 0.0
C756 C 0.05691 0.79112 0.46005 0.0
C757 C 0.0747 0.79283 0.48997 0.0
C758 C 0.952 0.79238 0.52223 0.0
C759 C 0.00558 0.79127 0.49074 0.0
C760 C 0.91753 0.79341 0.52234 0.0
C761 C 0.89986 0.79355 0.49229 0.0
C762 C 0.96898 0.79147 0.49187 0.0
C763 C 0.9178 0.79228 0.46248 0.0
C764 C 0.02246 0.79033 0.46033 0.0
C765 C 0.05688 0.79331 0.51988 0.0
N766 N 0.95134 0.79136 0.46305 0.0
N767 N 0.02331 0.79262 0.51949 0.0
H768 H 0.54287 0.18517 0.90601 0.0
H769 H 0.43416 0.18893 0.07175 0.0
H770 H 0.43603 0.18615 0.90672 0.0
H771 H 0.54099 0.18671 0.07126 0.0
H772 H 0.43448 0.19037 0.01124 0.0
H773 H 0.54271 0.18804 0.96651 0.0
C774 C 0.51936 0.18604 0.91882 0.0
C775 C 0.4894 0.18525 0.90114 0.0
C776 C 0.45785 0.18966 0.02438 0.0
C777 C 0.48911 0.18855 0.97053 0.0
C778 C 0.45771 0.18884 0.05898 0.0
C779 C 0.48761 0.18751 0.07674 0.0
C780 C 0.48808 0.18911 0.00729 0.0
C781 C 0.51732 0.18759 0.05871 0.0
C782 C 0.51931 0.18769 0.95341 0.0
C783 C 0.45975 0.18657 0.9192 0.0
N784 N 0.51678 0.18825 0.025 0.0
N785 N 0.46037 0.18806 0.95288 0.0
H786 H 0.78902 0.54265 0.90716 0.0
H787 H 0.78911 0.43474 0.0736 0.0
H788 H 0.79039 0.43563 0.90845 0.0
H789 H 0.78902 0.54176 0.07218 0.0
H790 H 0.78694 0.43458 0.0131 0.0
H791 H 0.78643 0.54272 0.96761 0.0
C792 C 0.78871 0.51913 0.92009 0.0
C793 C 0.79012 0.48907 0.90259 0.0
C794 C 0.78731 0.45809 0.02604 0.0
C795 C 0.78716 0.48904 0.97195 0.0
C796 C 0.78855 0.45823 0.06063 0.0
C797 C 0.78945 0.48833 0.07811 0.0
C798 C 0.787 0.48825 0.00871 0.0
C799 C 0.78852 0.51794 0.05984 0.0
C800 C 0.78722 0.51922 0.95466 0.0
C801 C 0.78948 0.45942 0.92081 0.0
N802 N 0.78746 0.51714 0.02616 0.0
N803 N 0.78816 0.46017 0.95449 0.0
H804 H 0.43349 0.79115 0.07371 0.0
H805 H 0.54204 0.79017 0.90784 0.0
H806 H 0.54033 0.7913 0.07313 0.0
H807 H 0.4352 0.79157 0.90867 0.0
H808 H 0.54191 0.78834 0.96837 0.0
H809 H 0.43372 0.78903 0.01323 0.0
C810 C 0.45703 0.79067 0.06093 0.0
C811 C 0.48695 0.79157 0.07865 0.0
C812 C 0.5185 0.78898 0.95529 0.0
C813 C 0.48733 0.78917 0.00923 0.0
C814 C 0.51853 0.79002 0.92068 0.0
C815 C 0.48857 0.79118 0.90302 0.0
C816 C 0.48831 0.7891 0.97246 0.0
C817 C 0.45892 0.79083 0.92114 0.0
C818 C 0.45712 0.78946 0.02633 0.0
C819 C 0.51664 0.79076 0.0606 0.0
N820 N 0.45956 0.78991 0.95483 0.0
N821 N 0.51606 0.7897 0.0269 0.0
H822 H 0.18672 0.43364 0.90628 0.0
H823 H 0.18652 0.54313 0.07185 0.0
H824 H 0.18503 0.54066 0.90677 0.0
H825 H 0.18622 0.43609 0.07135 0.0
H826 H 0.18868 0.54269 0.01135 0.0
H827 H 0.18917 0.43411 0.96677 0.0
C828 C 0.18692 0.45726 0.91904 0.0
C829 C 0.18548 0.48716 0.90131 0.0
C830 C 0.18823 0.51931 0.02449 0.0
C831 C 0.18829 0.48782 0.97069 0.0
C832 C 0.187 0.51952 0.05908 0.0
C833 C 0.18599 0.48959 0.07681 0.0
C834 C 0.18843 0.48897 0.00743 0.0
C835 C 0.18681 0.45979 0.05881 0.0
C836 C 0.18834 0.45749 0.95363 0.0
C837 C 0.18597 0.51697 0.91931 0.0
N838 N 0.18787 0.46026 0.02512 0.0
N839 N 0.18723 0.51652 0.95299 0.0
H840 H 0.07027 0.43504 0.184 0.0
H841 H 0.90493 0.54396 0.18433 0.0
H842 H 0.06956 0.54206 0.18306 0.0
H843 H 0.90584 0.43694 0.18534 0.0
H844 H 0.96523 0.54377 0.18496 0.0
H845 H 0.01003 0.43535 0.18552 0.0
C846 C 0.05751 0.45863 0.18414 0.0
C847 C 0.07513 0.48859 0.18332 0.0
C848 C 0.95223 0.52033 0.18509 0.0
C849 C 0.00597 0.48905 0.18506 0.0
C850 C 0.91774 0.5204 0.18474 0.0
C851 C 0.90016 0.4904 0.18469 0.0
C852 C 0.96935 0.49008 0.18538 0.0
C853 C 0.91825 0.46069 0.1853 0.0
C854 C 0.02305 0.45876 0.18502 0.0
C855 C 0.05711 0.51835 0.18361 0.0
N856 N 0.95182 0.46129 0.18555 0.0
N857 N 0.02354 0.5178 0.18441 0.0
H858 H 0.90548 0.54198 0.79382 0.0
H859 H 0.07092 0.43313 0.7935 0.0
H860 H 0.90617 0.43498 0.79593 0.0
H861 H 0.0699 0.54014 0.79308 0.0
H862 H 0.0106 0.43326 0.79265 0.0
H863 H 0.96571 0.54164 0.79189 0.0
C864 C 0.91823 0.51838 0.79385 0.0
C865 C 0.90059 0.48844 0.79515 0.0
C866 C 0.02359 0.4567 0.79268 0.0
C867 C 0.96978 0.48795 0.79293 0.0
C868 C 0.05809 0.45667 0.79315 0.0
C869 C 0.07565 0.48668 0.79348 0.0
C870 C 0.00643 0.48694 0.79254 0.0
C871 C 0.05752 0.51638 0.79294 0.0
C872 C 0.95269 0.51823 0.79274 0.0
C873 C 0.91862 0.45868 0.79503 0.0
N874 N 0.02395 0.51574 0.79257 0.0
N875 N 0.9522 0.45921 0.79401 0.0
H876 H 0.43413 0.07077 0.79252 0.0
H877 H 0.54216 0.90467 0.7932 0.0
H878 H 0.54097 0.06962 0.79258 0.0
H879 H 0.43533 0.90606 0.79423 0.0
H880 H 0.54221 0.96504 0.79112 0.0
H881 H 0.43417 0.01041 0.79126 0.0
C882 C 0.45763 0.05789 0.79221 0.0
C883 C 0.48761 0.07543 0.7928 0.0
C884 C 0.51876 0.95213 0.79174 0.0
C885 C 0.48777 0.00612 0.79138 0.0
C886 C 0.51869 0.9176 0.79294 0.0
C887 C 0.48868 0.90013 0.79403 0.0
C888 C 0.48863 0.96941 0.79166 0.0
C889 C 0.45909 0.91837 0.79352 0.0
C890 C 0.45761 0.02336 0.79149 0.0
C891 C 0.51724 0.05724 0.79224 0.0
N892 N 0.45983 0.95198 0.79245 0.0
N893 N 0.51655 0.02361 0.79165 0.0
H894 H 0.5421 0.90628 0.18593 0.0
H895 H 0.43398 0.07234 0.18457 0.0
H896 H 0.43527 0.90761 0.18607 0.0
H897 H 0.54081 0.07126 0.18362 0.0
H898 H 0.43408 0.012 0.18641 0.0
H899 H 0.54214 0.96669 0.18647 0.0
C900 C 0.51863 0.91921 0.18614 0.0
C901 C 0.48862 0.9017 0.18585 0.0
C902 C 0.4575 0.02496 0.18584 0.0
C903 C 0.48856 0.97103 0.18644 0.0
C904 C 0.45749 0.05948 0.18478 0.0
C905 C 0.48745 0.07704 0.18385 0.0
C906 C 0.48767 0.00774 0.18597 0.0
C907 C 0.5171 0.05887 0.18424 0.0
C908 C 0.5187 0.95376 0.18644 0.0
C909 C 0.45902 0.91994 0.18621 0.0
N910 N 0.51644 0.02524 0.18522 0.0
N911 N 0.45976 0.95357 0.18642 0.0
loop_
_geom_bond_atom_site_label_1
_geom_bond_atom_site_label_2
_geom_bond_distance
_geom_bond_site_symmetry_2
_ccdc_geom_bond_type
Sc0 O3 2.025 . S
Sc0 O10 2.105 . S
Sc0 O13 2.105 . S
Sc0 O16 2.105 . S
Sc0 O19 2.105 . S
Sc1 O3 2.025 . S
Sc1 O11 2.105 . S
Sc1 O15 2.105 . S
Sc1 O17 2.105 . S
Sc1 O21 2.105 . S
Sc2 O3 2.025 . S
Sc2 O12 2.105 . S
Sc2 O14 2.105 . S
Sc2 O18 2.105 . S
Sc2 O20 2.105 . S
O3 Sc0 2.025 . S
O3 Sc1 2.025 . S
O3 Sc2 2.025 . S
C4 O10 1.268 . S
C4 O20 1.268 . S
C5 O11 1.268 . S
C5 O19 1.268 . S
C6 O12 1.268 . S
C6 O21 1.268 . S
C7 O13 1.268 . S
C7 O17 1.268 . S
C8 O14 1.268 . S
C8 O16 1.268 . S
C9 O15 1.268 . S
C9 O18 1.268 . S
O10 Sc0 2.105 . S
O10 C4 1.268 . S
O11 Sc1 2.105 . S
O11 C5 1.268 . S
O12 Sc2 2.105 . S
O12 C6 1.268 . S
O13 Sc0 2.105 . S
O13 C7 1.268 . S
O14 Sc2 2.105 . S
O14 C8 1.268 . S
O15 Sc1 2.105 . S
O15 C9 1.268 . S
O16 Sc0 2.105 . S
O16 C8 1.268 . S
O17 Sc1 2.105 . S
O17 C7 1.268 . S
O18 Sc2 2.105 . S
O18 C9 1.268 . S
O19 Sc0 2.105 . S
O19 C5 1.268 . S
O20 Sc2 2.105 . S
O20 C4 1.268 . S
O21 Sc1 2.105 . S
O21 C6 1.268 . S
Sc22 O25 2.025 . S
Sc22 O32 2.105 . S
Sc22 O35 2.105 . S
Sc22 O38 2.105 . S
Sc22 O41 2.105 . S
Sc23 O25 2.025 . S
Sc23 O33 2.105 . S
Sc23 O37 2.105 . S
Sc23 O39 2.105 . S
Sc23 O43 2.105 . S
Sc24 O25 2.025 . S
Sc24 O34 2.105 . S
Sc24 O36 2.105 . S
Sc24 O40 2.105 . S
Sc24 O42 2.105 . S
O25 Sc22 2.025 . S
O25 Sc23 2.025 . S
O25 Sc24 2.025 . S
C26 O32 1.268 . S
C26 O42 1.268 . S
C27 O33 1.268 . S
C27 O41 1.268 . S
C28 O34 1.268 . S
C28 O43 1.268 . S
C29 O35 1.268 . S
C29 O39 1.268 . S
C30 O36 1.268 . S
C30 O38 1.268 . S
C31 O37 1.268 . S
C31 O40 1.268 . S
O32 Sc22 2.105 . S
O32 C26 1.268 . S
O33 Sc23 2.105 . S
O33 C27 1.268 . S
O34 Sc24 2.105 . S
O34 C28 1.268 . S
O35 Sc22 2.105 . S
O35 C29 1.268 . S
O36 Sc24 2.105 . S
O36 C30 1.268 . S
O37 Sc23 2.105 . S
O37 C31 1.268 . S
O38 Sc22 2.105 . S
O38 C30 1.268 . S
O39 Sc23 2.105 . S
O39 C29 1.268 . S
O40 Sc24 2.105 . S
O40 C31 1.268 . S
O41 Sc22 2.105 . S
O41 C27 1.268 . S
O42 Sc24 2.105 . S
O42 C26 1.268 . S
O43 Sc23 2.105 . S
O43 C28 1.268 . S
Sc44 O47 2.025 . S
Sc44 O54 2.105 . S
Sc44 O57 2.105 . S
Sc44 O60 2.105 . S
Sc44 O63 2.105 . S
Sc45 O47 2.025 . S
Sc45 O55 2.105 . S
Sc45 O59 2.105 . S
Sc45 O61 2.105 . S
Sc45 O65 2.105 . S
Sc46 O47 2.025 . S
Sc46 O56 2.105 . S
Sc46 O58 2.105 . S
Sc46 O62 2.105 . S
Sc46 O64 2.105 . S
O47 Sc44 2.025 . S
O47 Sc45 2.025 . S
O47 Sc46 2.025 . S
C48 O54 1.268 . S
C48 O64 1.268 . S
C49 O55 1.268 . S
C49 O63 1.268 . S
C50 O56 1.268 . S
C50 O65 1.268 . S
C51 O57 1.268 . S
C51 O61 1.268 . S
C52 O58 1.268 . S
C52 O60 1.268 . S
C53 O59 1.268 . S
C53 O62 1.268 . S
O54 Sc44 2.105 . S
O54 C48 1.268 . S
O55 Sc45 2.105 . S
O55 C49 1.268 . S
O56 Sc46 2.105 . S
O56 C50 1.268 . S
O57 Sc44 2.105 . S
O57 C51 1.268 . S
O58 Sc46 2.105 . S
O58 C52 1.268 . S
O59 Sc45 2.105 . S
O59 C53 1.268 . S
O60 Sc44 2.105 . S
O60 C52 1.268 . S
O61 Sc45 2.105 . S
O61 C51 1.268 . S
O62 Sc46 2.105 . S
O62 C53 1.268 . S
O63 Sc44 2.105 . S
O63 C49 1.268 . S
O64 Sc46 2.105 . S
O64 C48 1.268 . S
O65 Sc45 2.105 . S
O65 C50 1.268 . S
Sc66 O69 2.025 . S
Sc66 O76 2.105 . S
Sc66 O79 2.105 . S
Sc66 O82 2.105 . S
Sc66 O85 2.105 . S
Sc67 O69 2.025 . S
Sc67 O77 2.105 . S
Sc67 O81 2.105 . S
Sc67 O83 2.105 . S
Sc67 O87 2.105 . S
Sc68 O69 2.025 . S
Sc68 O78 2.105 . S
Sc68 O80 2.105 . S
Sc68 O84 2.105 . S
Sc68 O86 2.105 . S
O69 Sc66 2.025 . S
O69 Sc67 2.025 . S
O69 Sc68 2.025 . S
C70 O76 1.268 . S
C70 O86 1.268 . S
C71 O77 1.268 . S
C71 O85 1.268 . S
C72 O78 1.268 . S
C72 O87 1.268 . S
C73 O79 1.268 . S
C73 O83 1.268 . S
C74 O80 1.268 . S
C74 O82 1.268 . S
C75 O81 1.268 . S
C75 O84 1.268 . S
O76 Sc66 2.105 . S
O76 C70 1.268 . S
O77 Sc67 2.105 . S
O77 C71 1.268 . S
O78 Sc68 2.105 . S
O78 C72 1.268 . S
O79 Sc66 2.105 . S
O79 C73 1.268 . S
O80 Sc68 2.105 . S
O80 C74 1.268 . S
O81 Sc67 2.105 . S
O81 C75 1.268 . S
O82 Sc66 2.105 . S
O82 C74 1.268 . S
O83 Sc67 2.105 . S
O83 C73 1.268 . S
O84 Sc68 2.105 . S
O84 C75 1.268 . S
O85 Sc66 2.105 . S
O85 C71 1.268 . S
O86 Sc68 2.105 . S
O86 C70 1.268 . S
O87 Sc67 2.105 . S
O87 C72 1.268 . S
Sc88 O91 2.025 . S
Sc88 O98 2.105 . S
Sc88 O101 2.105 . S
Sc88 O104 2.105 . S
Sc88 O107 2.105 . S
Sc89 O91 2.025 . S
Sc89 O99 2.105 . S
Sc89 O103 2.105 . S
Sc89 O105 2.105 . S
Sc89 O109 2.105 . S
Sc90 O91 2.025 . S
Sc90 O100 2.105 . S
Sc90 O102 2.105 . S
Sc90 O106 2.105 . S
Sc90 O108 2.105 . S
O91 Sc88 2.025 . S
O91 Sc89 2.025 . S
O91 Sc90 2.025 . S
C92 O98 1.268 . S
C92 O108 1.268 . S
C93 O99 1.268 . S
C93 O107 1.268 . S
C94 O100 1.268 . S
C94 O109 1.268 . S
C95 O101 1.268 . S
C95 O105 1.268 . S
C96 O102 1.268 . S
C96 O104 1.268 . S
C97 O103 1.268 . S
C97 O106 1.268 . S
O98 Sc88 2.105 . S
O98 C92 1.268 . S
O99 Sc89 2.105 . S
O99 C93 1.268 . S
O100 Sc90 2.105 . S
O100 C94 1.268 . S
O101 Sc88 2.105 . S
O101 C95 1.268 . S
O102 Sc90 2.105 . S
O102 C96 1.268 . S
O103 Sc89 2.105 . S
O103 C97 1.268 . S
O104 Sc88 2.105 . S
O104 C96 1.268 . S
O105 Sc89 2.105 . S
O105 C95 1.268 . S
O106 Sc90 2.105 . S
O106 C97 1.268 . S
O107 Sc88 2.105 . S
O107 C93 1.268 . S
O108 Sc90 2.105 . S
O108 C92 1.268 . S
O109 Sc89 2.105 . S
O109 C94 1.268 . S
Sc110 O113 2.025 . S
Sc110 O120 2.105 . S
Sc110 O123 2.105 . S
Sc110 O126 2.105 . S
Sc110 O129 2.105 . S
Sc111 O113 2.025 . S
Sc111 O121 2.105 . S
Sc111 O125 2.105 . S
Sc111 O127 2.105 . S
Sc111 O131 2.105 . S
Sc112 O113 2.025 . S
Sc112 O122 2.105 . S
Sc112 O124 2.105 . S
Sc112 O128 2.105 . S
Sc112 O130 2.105 . S
O113 Sc110 2.025 . S
O113 Sc111 2.025 . S
O113 Sc112 2.025 . S
C114 O120 1.268 . S
C114 O130 1.268 . S
C115 O121 1.268 . S
C115 O129 1.268 . S
C116 O122 1.268 . S
C116 O131 1.268 . S
C117 O123 1.268 . S
C117 O127 1.268 . S
C118 O124 1.268 . S
C118 O126 1.268 . S
C119 O125 1.268 . S
C119 O128 1.268 . S
O120 Sc110 2.105 . S
O120 C114 1.268 . S
O121 Sc111 2.105 . S
O121 C115 1.268 . S
O122 Sc112 2.105 . S
O122 C116 1.268 . S
O123 Sc110 2.105 . S
O123 C117 1.268 . S
O124 Sc112 2.105 . S
O124 C118 1.268 . S
O125 Sc111 2.105 . S
O125 C119 1.268 . S
O126 Sc110 2.105 . S
O126 C118 1.268 . S
O127 Sc111 2.105 . S
O127 C117 1.268 . S
O128 Sc112 2.105 . S
O128 C119 1.268 . S
O129 Sc110 2.105 . S
O129 C115 1.268 . S
O130 Sc112 2.105 . S
O130 C114 1.268 . S
O131 Sc111 2.105 . S
O131 C116 1.268 . S
Sc132 O135 2.025 . S
Sc132 O142 2.105 . S
Sc132 O145 2.105 . S
Sc132 O148 2.105 . S
Sc132 O151 2.105 . S
Sc133 O135 2.025 . S
Sc133 O143 2.105 . S
Sc133 O147 2.105 . S
Sc133 O149 2.105 . S
Sc133 O153 2.105 . S
Sc134 O135 2.025 . S
Sc134 O144 2.105 . S
Sc134 O146 2.105 . S
Sc134 O150 2.105 . S
Sc134 O152 2.105 . S
O135 Sc132 2.025 . S
O135 Sc133 2.025 . S
O135 Sc134 2.025 . S
C136 O142 1.268 . S
C136 O152 1.268 . S
C137 O143 1.268 . S
C137 O151 1.268 . S
C138 O144 1.268 . S
C138 O153 1.268 . S
C139 O145 1.268 . S
C139 O149 1.268 . S
C140 O146 1.268 . S
C140 O148 1.268 . S
C141 O147 1.268 . S
C141 O150 1.268 . S
O142 Sc132 2.105 . S
O142 C136 1.268 . S
O143 Sc133 2.105 . S
O143 C137 1.268 . S
O144 Sc134 2.105 . S
O144 C138 1.268 . S
O145 Sc132 2.105 . S
O145 C139 1.268 . S
O146 Sc134 2.105 . S
O146 C140 1.268 . S
O147 Sc133 2.105 . S
O147 C141 1.268 . S
O148 Sc132 2.105 . S
O148 C140 1.268 . S
O149 Sc133 2.105 . S
O149 C139 1.268 . S
O150 Sc134 2.105 . S
O150 C141 1.268 . S
O151 Sc132 2.105 . S
O151 C137 1.268 . S
O152 Sc134 2.105 . S
O152 C136 1.268 . S
O153 Sc133 2.105 . S
O153 C138 1.268 . S
Sc154 O157 2.025 . S
Sc154 O164 2.105 . S
Sc154 O167 2.105 . S
Sc154 O170 2.105 . S
Sc154 O173 2.105 . S
Sc155 O157 2.025 . S
Sc155 O165 2.105 . S
Sc155 O169 2.105 . S
Sc155 O171 2.105 . S
Sc155 O175 2.105 . S
Sc156 O157 2.025 . S
Sc156 O166 2.105 . S
Sc156 O168 2.105 . S
Sc156 O172 2.105 . S
Sc156 O174 2.105 . S
O157 Sc154 2.025 . S
O157 Sc155 2.025 . S
O157 Sc156 2.025 . S
C158 O164 1.268 . S
C158 O174 1.268 . S
C159 O165 1.268 . S
C159 O173 1.268 . S
C160 O166 1.268 . S
C160 O175 1.268 . S
C161 O167 1.268 . S
C161 O171 1.268 . S
C162 O168 1.268 . S
C162 O170 1.268 . S
C163 O169 1.268 . S
C163 O172 1.268 . S
O164 Sc154 2.105 . S
O164 C158 1.268 . S
O165 Sc155 2.105 . S
O165 C159 1.268 . S
O166 Sc156 2.105 . S
O166 C160 1.268 . S
O167 Sc154 2.105 . S
O167 C161 1.268 . S
O168 Sc156 2.105 . S
O168 C162 1.268 . S
O169 Sc155 2.105 . S
O169 C163 1.268 . S
O170 Sc154 2.105 . S
O170 C162 1.268 . S
O171 Sc155 2.105 . S
O171 C161 1.268 . S
O172 Sc156 2.105 . S
O172 C163 1.268 . S
O173 Sc154 2.105 . S
O173 C159 1.268 . S
O174 Sc156 2.105 . S
O174 C158 1.268 . S
O175 Sc155 2.105 . S
O175 C160 1.268 . S
Sc176 O179 2.025 . S
Sc176 O186 2.105 . S
Sc176 O189 2.105 . S
Sc176 O192 2.105 . S
Sc176 O195 2.105 . S
Sc177 O179 2.025 . S
Sc177 O187 2.105 . S
Sc177 O191 2.105 . S
Sc177 O193 2.105 . S
Sc177 O197 2.105 . S
Sc178 O179 2.025 . S
Sc178 O188 2.105 . S
Sc178 O190 2.105 . S
Sc178 O194 2.105 . S
Sc178 O196 2.105 . S
O179 Sc176 2.025 . S
O179 Sc177 2.025 . S
O179 Sc178 2.025 . S
C180 O186 1.268 . S
C180 O196 1.268 . S
C181 O187 1.268 . S
C181 O195 1.268 . S
C182 O188 1.268 . S
C182 O197 1.268 . S
C183 O189 1.268 . S
C183 O193 1.268 . S
C184 O190 1.268 . S
C184 O192 1.268 . S
C185 O191 1.268 . S
C185 O194 1.268 . S
O186 Sc176 2.105 . S
O186 C180 1.268 . S
O187 Sc177 2.105 . S
O187 C181 1.268 . S
O188 Sc178 2.105 . S
O188 C182 1.268 . S
O189 Sc176 2.105 . S
O189 C183 1.268 . S
O190 Sc178 2.105 . S
O190 C184 1.268 . S
O191 Sc177 2.105 . S
O191 C185 1.268 . S
O192 Sc176 2.105 . S
O192 C184 1.268 . S
O193 Sc177 2.105 . S
O193 C183 1.268 . S
O194 Sc178 2.105 . S
O194 C185 1.268 . S
O195 Sc176 2.105 . S
O195 C181 1.268 . S
O196 Sc178 2.105 . S
O196 C180 1.268 . S
O197 Sc177 2.105 . S
O197 C182 1.268 . S
Sc198 O201 2.025 . S
Sc198 O208 2.105 . S
Sc198 O211 2.105 . S
Sc198 O214 2.105 . S
Sc198 O217 2.105 . S
Sc199 O201 2.025 . S
Sc199 O209 2.105 . S
Sc199 O213 2.105 . S
Sc199 O215 2.105 . S
Sc199 O219 2.105 . S
Sc200 O201 2.025 . S
Sc200 O210 2.105 . S
Sc200 O212 2.105 . S
Sc200 O216 2.105 . S
Sc200 O218 2.105 . S
O201 Sc198 2.025 . S
O201 Sc199 2.025 . S
O201 Sc200 2.025 . S
C202 O208 1.268 . S
C202 O218 1.268 . S
C203 O209 1.268 . S
C203 O217 1.268 . S
C204 O210 1.268 . S
C204 O219 1.268 . S
C205 O211 1.268 . S
C205 O215 1.268 . S
C206 O212 1.268 . S
C206 O214 1.268 . S
C207 O213 1.268 . S
C207 O216 1.268 . S
O208 Sc198 2.105 . S
O208 C202 1.268 . S
O209 Sc199 2.105 . S
O209 C203 1.268 . S
O210 Sc200 2.105 . S
O210 C204 1.268 . S
O211 Sc198 2.105 . S
O211 C205 1.268 . S
O212 Sc200 2.105 . S
O212 C206 1.268 . S
O213 Sc199 2.105 . S
O213 C207 1.268 . S
O214 Sc198 2.105 . S
O214 C206 1.268 . S
O215 Sc199 2.105 . S
O215 C205 1.268 . S
O216 Sc200 2.105 . S
O216 C207 1.268 . S
O217 Sc198 2.105 . S
O217 C203 1.268 . S
O218 Sc200 2.105 . S
O218 C202 1.268 . S
O219 Sc199 2.105 . S
O219 C204 1.268 . S
Sc220 O223 2.025 . S
Sc220 O230 2.105 . S
Sc220 O233 2.105 . S
Sc220 O236 2.105 . S
Sc220 O239 2.105 . S
Sc221 O223 2.025 . S
Sc221 O231 2.105 . S
Sc221 O235 2.105 . S
Sc221 O237 2.105 . S
Sc221 O241 2.105 . S
Sc222 O223 2.025 . S
Sc222 O232 2.105 . S
Sc222 O234 2.105 . S
Sc222 O238 2.105 . S
Sc222 O240 2.105 . S
O223 Sc220 2.025 . S
O223 Sc221 2.025 . S
O223 Sc222 2.025 . S
C224 O230 1.268 . S
C224 O240 1.268 . S
C225 O231 1.268 . S
C225 O239 1.268 . S
C226 O232 1.268 . S
C226 O241 1.268 . S
C227 O233 1.268 . S
C227 O237 1.268 . S
C228 O234 1.268 . S
C228 O236 1.268 . S
C229 O235 1.268 . S
C229 O238 1.268 . S
O230 Sc220 2.105 . S
O230 C224 1.268 . S
O231 Sc221 2.105 . S
O231 C225 1.268 . S
O232 Sc222 2.105 . S
O232 C226 1.268 . S
O233 Sc220 2.105 . S
O233 C227 1.268 . S
O234 Sc222 2.105 . S
O234 C228 1.268 . S
O235 Sc221 2.105 . S
O235 C229 1.268 . S
O236 Sc220 2.105 . S
O236 C228 1.268 . S
O237 Sc221 2.105 . S
O237 C227 1.268 . S
O238 Sc222 2.105 . S
O238 C229 1.268 . S
O239 Sc220 2.105 . S
O239 C225 1.268 . S
O240 Sc222 2.105 . S
O240 C224 1.268 . S
O241 Sc221 2.105 . S
O241 C226 1.268 . S
Sc242 O245 2.025 . S
Sc242 O252 2.105 . S
Sc242 O255 2.105 . S
Sc242 O258 2.105 . S
Sc242 O261 2.105 . S
Sc243 O245 2.025 . S
Sc243 O253 2.105 . S
Sc243 O257 2.105 . S
Sc243 O259 2.105 . S
Sc243 O263 2.105 . S
Sc244 O245 2.025 . S
Sc244 O254 2.105 . S
Sc244 O256 2.105 . S
Sc244 O260 2.105 . S
Sc244 O262 2.105 . S
O245 Sc242 2.025 . S
O245 Sc243 2.025 . S
O245 Sc244 2.025 . S
C246 O252 1.268 . S
C246 O262 1.268 . S
C247 O253 1.268 . S
C247 O261 1.268 . S
C248 O254 1.268 . S
C248 O263 1.268 . S
C249 O255 1.268 . S
C249 O259 1.268 . S
C250 O256 1.268 . S
C250 O258 1.268 . S
C251 O257 1.268 . S
C251 O260 1.268 . S
O252 Sc242 2.105 . S
O252 C246 1.268 . S
O253 Sc243 2.105 . S
O253 C247 1.268 . S
O254 Sc244 2.105 . S
O254 C248 1.268 . S
O255 Sc242 2.105 . S
O255 C249 1.268 . S
O256 Sc244 2.105 . S
O256 C250 1.268 . S
O257 Sc243 2.105 . S
O257 C251 1.268 . S
O258 Sc242 2.105 . S
O258 C250 1.268 . S
O259 Sc243 2.105 . S
O259 C249 1.268 . S
O260 Sc244 2.105 . S
O260 C251 1.268 . S
O261 Sc242 2.105 . S
O261 C247 1.268 . S
O262 Sc244 2.105 . S
O262 C246 1.268 . S
O263 Sc243 2.105 . S
O263 C248 1.268 . S
H264 C270 0.930 . S
H265 C274 0.930 . S
H266 C279 0.929 . S
H267 C277 0.929 . S
H268 C272 0.929 . S
H269 C278 0.929 . S
C270 H264 0.930 . S
C270 C271 1.367 . S
C270 C278 1.378 . S
C271 C270 1.367 . S
C271 C279 1.433 . S
C272 H268 0.929 . S
C272 C274 1.378 . S
C272 C276 1.350 . S
C273 C276 1.463 . S
C273 C278 1.350 . S
C273 N281 1.427 . S
C274 H265 0.930 . S
C274 C272 1.378 . S
C274 C275 1.367 . S
C275 C274 1.367 . S
C275 C277 1.433 . S
C276 C272 1.350 . S
C276 C273 1.463 . S
C276 N280 1.427 . S
C277 H267 0.929 . S
C277 C275 1.433 . S
C277 N280 1.384 . S
C278 H269 0.929 . S
C278 C270 1.378 . S
C278 C273 1.350 . S
C279 H266 0.929 . S
C279 C271 1.433 . S
C279 N281 1.384 . S
N280 C276 1.427 . S
N280 C277 1.384 . S
N281 C273 1.427 . S
N281 C279 1.384 . S
H282 C288 0.930 . S
H283 C292 0.930 . S
H284 C297 0.929 . S
H285 C295 0.929 . S
H286 C290 0.929 . S
H287 C296 0.929 . S
C288 H282 0.930 . S
C288 C289 1.367 . S
C288 C296 1.378 . S
C289 C288 1.367 . S
C289 C297 1.433 . S
C290 H286 0.929 . S
C290 C292 1.378 . S
C290 C294 1.350 . S
C291 C294 1.463 . S
C291 C296 1.350 . S
C291 N299 1.427 . S
C292 H283 0.930 . S
C292 C290 1.378 . S
C292 C293 1.367 . S
C293 C292 1.367 . S
C293 C295 1.433 . S
C294 C290 1.350 . S
C294 C291 1.463 . S
C294 N298 1.427 . S
C295 H285 0.929 . S
C295 C293 1.433 . S
C295 N298 1.384 . S
C296 H287 0.929 . S
C296 C288 1.378 . S
C296 C291 1.350 . S
C297 H284 0.929 . S
C297 C289 1.433 . S
C297 N299 1.384 . S
N298 C294 1.427 . S
N298 C295 1.384 . S
N299 C291 1.427 . S
N299 C297 1.384 . S
H300 C306 0.930 . S
H301 C310 0.930 . S
H302 C315 0.929 . S
H303 C313 0.929 . S
H304 C308 0.929 . S
H305 C314 0.929 . S
C306 H300 0.930 . S
C306 C307 1.367 . S
C306 C314 1.378 . S
C307 C306 1.367 . S
C307 C315 1.433 . S
C308 H304 0.929 . S
C308 C310 1.378 . S
C308 C312 1.350 . S
C309 C312 1.463 . S
C309 C314 1.350 . S
C309 N317 1.427 . S
C310 H301 0.930 . S
C310 C308 1.378 . S
C310 C311 1.367 . S
C311 C310 1.367 . S
C311 C313 1.433 . S
C312 C308 1.350 . S
C312 C309 1.463 . S
C312 N316 1.427 . S
C313 H303 0.929 . S
C313 C311 1.433 . S
C313 N316 1.384 . S
C314 H305 0.929 . S
C314 C306 1.378 . S
C314 C309 1.350 . S
C315 H302 0.929 . S
C315 C307 1.433 . S
C315 N317 1.384 . S
N316 C312 1.427 . S
N316 C313 1.384 . S
N317 C309 1.427 . S
N317 C315 1.384 . S
H318 C324 0.930 . S
H319 C328 0.930 . S
H320 C333 0.929 . S
H321 C331 0.929 . S
H322 C326 0.929 . S
H323 C332 0.929 . S
C324 H318 0.930 . S
C324 C325 1.367 . S
C324 C332 1.378 . S
C325 C324 1.367 . S
C325 C333 1.433 . S
C326 H322 0.929 . S
C326 C328 1.378 . S
C326 C330 1.350 . S
C327 C330 1.463 . S
C327 C332 1.350 . S
C327 N335 1.427 . S
C328 H319 0.930 . S
C328 C326 1.378 . S
C328 C329 1.367 . S
C329 C328 1.367 . S
C329 C331 1.433 . S
C330 C326 1.350 . S
C330 C327 1.463 . S
C330 N334 1.427 . S
C331 H321 0.929 . S
C331 C329 1.433 . S
C331 N334 1.384 . S
C332 H323 0.929 . S
C332 C324 1.378 . S
C332 C327 1.350 . S
C333 H320 0.929 . S
C333 C325 1.433 . S
C333 N335 1.384 . S
N334 C330 1.427 . S
N334 C331 1.384 . S
N335 C327 1.427 . S
N335 C333 1.384 . S
H336 C342 0.930 . S
H337 C346 0.930 . S
H338 C351 0.929 . S
H339 C349 0.929 . S
H340 C344 0.929 . S
H341 C350 0.929 . S
C342 H336 0.930 . S
C342 C343 1.367 . S
C342 C350 1.378 . S
C343 C342 1.367 . S
C343 C351 1.433 . S
C344 H340 0.929 . S
C344 C346 1.378 . S
C344 C348 1.350 . S
C345 C348 1.463 . S
C345 C350 1.350 . S
C345 N353 1.427 . S
C346 H337 0.930 . S
C346 C344 1.378 . S
C346 C347 1.367 . S
C347 C346 1.367 . S
C347 C349 1.433 . S
C348 C344 1.350 . S
C348 C345 1.463 . S
C348 N352 1.427 . S
C349 H339 0.929 . S
C349 C347 1.433 . S
C349 N352 1.384 . S
C350 H341 0.929 . S
C350 C342 1.378 . S
C350 C345 1.350 . S
C351 H338 0.929 . S
C351 C343 1.433 . S
C351 N353 1.384 . S
N352 C348 1.427 . S
N352 C349 1.384 . S
N353 C345 1.427 . S
N353 C351 1.384 . S
H354 C360 0.930 . S
H355 C364 0.930 . S
H356 C369 0.929 . S
H357 C367 0.929 . S
H358 C362 0.929 . S
H359 C368 0.929 . S
C360 H354 0.930 . S
C360 C361 1.367 . S
C360 C368 1.378 . S
C361 C360 1.367 . S
C361 C369 1.433 . S
C362 H358 0.929 . S
C362 C364 1.378 . S
C362 C366 1.350 . S
C363 C366 1.463 . S
C363 C368 1.350 . S
C363 N371 1.427 . S
C364 H355 0.930 . S
C364 C362 1.378 . S
C364 C365 1.367 . S
C365 C364 1.367 . S
C365 C367 1.433 . S
C366 C362 1.350 . S
C366 C363 1.463 . S
C366 N370 1.427 . S
C367 H357 0.929 . S
C367 C365 1.433 . S
C367 N370 1.384 . S
C368 H359 0.929 . S
C368 C360 1.378 . S
C368 C363 1.350 . S
C369 H356 0.929 . S
C369 C361 1.433 . S
C369 N371 1.384 . S
N370 C366 1.427 . S
N370 C367 1.384 . S
N371 C363 1.427 . S
N371 C369 1.384 . S
H372 C378 0.930 . S
H373 C382 0.930 . S
H374 C387 0.929 . S
H375 C385 0.929 . S
H376 C380 0.929 . S
H377 C386 0.929 . S
C378 H372 0.930 . S
C378 C379 1.367 . S
C378 C386 1.378 . S
C379 C378 1.367 . S
C379 C387 1.433 . S
C380 H376 0.929 . S
C380 C382 1.378 . S
C380 C384 1.350 . S
C381 C384 1.463 . S
C381 C386 1.350 . S
C381 N389 1.427 . S
C382 H373 0.930 . S
C382 C380 1.378 . S
C382 C383 1.367 . S
C383 C382 1.367 . S
C383 C385 1.433 . S
C384 C380 1.350 . S
C384 C381 1.463 . S
C384 N388 1.427 . S
C385 H375 0.929 . S
C385 C383 1.433 . S
C385 N388 1.384 . S
C386 H377 0.929 . S
C386 C378 1.378 . S
C386 C381 1.350 . S
C387 H374 0.929 . S
C387 C379 1.433 . S
C387 N389 1.384 . S
N388 C384 1.427 . S
N388 C385 1.384 . S
N389 C381 1.427 . S
N389 C387 1.384 . S
H390 C396 0.930 . S
H391 C400 0.930 . S
H392 C405 0.929 . S
H393 C403 0.929 . S
H394 C398 0.929 . S
H395 C404 0.929 . S
C396 H390 0.930 . S
C396 C397 1.367 . S
C396 C404 1.378 . S
C397 C396 1.367 . S
C397 C405 1.433 . S
C398 H394 0.929 . S
C398 C400 1.378 . S
C398 C402 1.350 . S
C399 C402 1.463 . S
C399 C404 1.350 . S
C399 N407 1.427 . S
C400 H391 0.930 . S
C400 C398 1.378 . S
C400 C401 1.367 . S
C401 C400 1.367 . S
C401 C403 1.433 . S
C402 C398 1.350 . S
C402 C399 1.463 . S
C402 N406 1.427 . S
C403 H393 0.929 . S
C403 C401 1.433 . S
C403 N406 1.384 . S
C404 H395 0.929 . S
C404 C396 1.378 . S
C404 C399 1.350 . S
C405 H392 0.929 . S
C405 C397 1.433 . S
C405 N407 1.384 . S
N406 C402 1.427 . S
N406 C403 1.384 . S
N407 C399 1.427 . S
N407 C405 1.384 . S
H408 C414 0.930 . S
H409 C418 0.930 . S
H410 C423 0.929 . S
H411 C421 0.929 . S
H412 C416 0.929 . S
H413 C422 0.929 . S
C414 H408 0.930 . S
C414 C415 1.367 . S
C414 C422 1.378 . S
C415 C414 1.367 . S
C415 C423 1.433 . S
C416 H412 0.929 . S
C416 C418 1.378 . S
C416 C420 1.350 . S
C417 C420 1.463 . S
C417 C422 1.350 . S
C417 N425 1.427 . S
C418 H409 0.930 . S
C418 C416 1.378 . S
C418 C419 1.367 . S
C419 C418 1.367 . S
C419 C421 1.433 . S
C420 C416 1.350 . S
C420 C417 1.463 . S
C420 N424 1.427 . S
C421 H411 0.929 . S
C421 C419 1.433 . S
C421 N424 1.384 . S
C422 H413 0.929 . S
C422 C414 1.378 . S
C422 C417 1.350 . S
C423 H410 0.929 . S
C423 C415 1.433 . S
C423 N425 1.384 . S
N424 C420 1.427 . S
N424 C421 1.384 . S
N425 C417 1.427 . S
N425 C423 1.384 . S
H426 C432 0.930 . S
H427 C436 0.930 . S
H428 C441 0.929 . S
H429 C439 0.929 . S
H430 C434 0.929 . S
H431 C440 0.929 . S
C432 H426 0.930 . S
C432 C433 1.367 . S
C432 C440 1.378 . S
C433 C432 1.367 . S
C433 C441 1.433 . S
C434 H430 0.929 . S
C434 C436 1.378 . S
C434 C438 1.350 . S
C435 C438 1.463 . S
C435 C440 1.350 . S
C435 N443 1.427 . S
C436 H427 0.930 . S
C436 C434 1.378 . S
C436 C437 1.367 . S
C437 C436 1.367 . S
C437 C439 1.433 . S
C438 C434 1.350 . S
C438 C435 1.463 . S
C438 N442 1.427 . S
C439 H429 0.929 . S
C439 C437 1.433 . S
C439 N442 1.384 . S
C440 H431 0.929 . S
C440 C432 1.378 . S
C440 C435 1.350 . S
C441 H428 0.929 . S
C441 C433 1.433 . S
C441 N443 1.384 . S
N442 C438 1.427 . S
N442 C439 1.384 . S
N443 C435 1.427 . S
N443 C441 1.384 . S
H444 C450 0.930 . S
H445 C454 0.930 . S
H446 C459 0.929 . S
H447 C457 0.929 . S
H448 C452 0.929 . S
H449 C458 0.929 . S
C450 H444 0.930 . S
C450 C451 1.367 . S
C450 C458 1.378 . S
C451 C450 1.367 . S
C451 C459 1.433 . S
C452 H448 0.929 . S
C452 C454 1.378 . S
C452 C456 1.350 . S
C453 C456 1.463 . S
C453 C458 1.350 . S
C453 N461 1.427 . S
C454 H445 0.930 . S
C454 C452 1.378 . S
C454 C455 1.367 . S
C455 C454 1.367 . S
C455 C457 1.433 . S
C456 C452 1.350 . S
C456 C453 1.463 . S
C456 N460 1.427 . S
C457 H447 0.929 . S
C457 C455 1.433 . S
C457 N460 1.384 . S
C458 H449 0.929 . S
C458 C450 1.378 . S
C458 C453 1.350 . S
C459 H446 0.929 . S
C459 C451 1.433 . S
C459 N461 1.384 . S
N460 C456 1.427 . S
N460 C457 1.384 . S
N461 C453 1.427 . S
N461 C459 1.384 . S
H462 C468 0.930 . S
H463 C472 0.930 . S
H464 C477 0.929 . S
H465 C475 0.929 . S
H466 C470 0.929 . S
H467 C476 0.929 . S
C468 H462 0.930 . S
C468 C469 1.367 . S
C468 C476 1.378 . S
C469 C468 1.367 . S
C469 C477 1.433 . S
C470 H466 0.929 . S
C470 C472 1.378 . S
C470 C474 1.350 . S
C471 C474 1.463 . S
C471 C476 1.350 . S
C471 N479 1.427 . S
C472 H463 0.930 . S
C472 C470 1.378 . S
C472 C473 1.367 . S
C473 C472 1.367 . S
C473 C475 1.433 . S
C474 C470 1.350 . S
C474 C471 1.463 . S
C474 N478 1.427 . S
C475 H465 0.929 . S
C475 C473 1.433 . S
C475 N478 1.384 . S
C476 H467 0.929 . S
C476 C468 1.378 . S
C476 C471 1.350 . S
C477 H464 0.929 . S
C477 C469 1.433 . S
C477 N479 1.384 . S
N478 C474 1.427 . S
N478 C475 1.384 . S
N479 C471 1.427 . S
N479 C477 1.384 . S
H480 C486 0.930 . S
H481 C490 0.930 . S
H482 C495 0.929 . S
H483 C493 0.929 . S
H484 C488 0.929 . S
H485 C494 0.929 . S
C486 H480 0.930 . S
C486 C487 1.367 . S
C486 C494 1.378 . S
C487 C486 1.367 . S
C487 C495 1.433 . S
C488 H484 0.929 . S
C488 C490 1.378 . S
C488 C492 1.350 . S
C489 C492 1.463 . S
C489 C494 1.350 . S
C489 N497 1.427 . S
C490 H481 0.930 . S
C490 C488 1.378 . S
C490 C491 1.367 . S
C491 C490 1.367 . S
C491 C493 1.433 . S
C492 C488 1.350 . S
C492 C489 1.463 . S
C492 N496 1.427 . S
C493 H483 0.929 . S
C493 C491 1.433 . S
C493 N496 1.384 . S
C494 H485 0.929 . S
C494 C486 1.378 . S
C494 C489 1.350 . S
C495 H482 0.929 . S
C495 C487 1.433 . S
C495 N497 1.384 . S
N496 C492 1.427 . S
N496 C493 1.384 . S
N497 C489 1.427 . S
N497 C495 1.384 . S
H498 C504 0.930 . S
H499 C508 0.930 . S
H500 C513 0.929 . S
H501 C511 0.929 . S
H502 C506 0.929 . S
H503 C512 0.929 . S
C504 H498 0.930 . S
C504 C505 1.367 . S
C504 C512 1.378 . S
C505 C504 1.367 . S
C505 C513 1.433 . S
C506 H502 0.929 . S
C506 C508 1.378 . S
C506 C510 1.350 . S
C507 C510 1.463 . S
C507 C512 1.350 . S
C507 N515 1.427 . S
C508 H499 0.930 . S
C508 C506 1.378 . S
C508 C509 1.367 . S
C509 C508 1.367 . S
C509 C511 1.433 . S
C510 C506 1.350 . S
C510 C507 1.463 . S
C510 N514 1.427 . S
C511 H501 0.929 . S
C511 C509 1.433 . S
C511 N514 1.384 . S
C512 H503 0.929 . S
C512 C504 1.378 . S
C512 C507 1.350 . S
C513 H500 0.929 . S
C513 C505 1.433 . S
C513 N515 1.384 . S
N514 C510 1.427 . S
N514 C511 1.384 . S
N515 C507 1.427 . S
N515 C513 1.384 . S
H516 C522 0.930 . S
H517 C526 0.930 . S
H518 C531 0.929 . S
H519 C529 0.929 . S
H520 C524 0.929 . S
H521 C530 0.929 . S
C522 H516 0.930 . S
C522 C523 1.367 . S
C522 C530 1.378 . S
C523 C522 1.367 . S
C523 C531 1.433 . S
C524 H520 0.929 . S
C524 C526 1.378 . S
C524 C528 1.350 . S
C525 C528 1.463 . S
C525 C530 1.350 . S
C525 N533 1.427 . S
C526 H517 0.930 . S
C526 C524 1.378 . S
C526 C527 1.367 . S
C527 C526 1.367 . S
C527 C529 1.433 . S
C528 C524 1.350 . S
C528 C525 1.463 . S
C528 N532 1.427 . S
C529 H519 0.929 . S
C529 C527 1.433 . S
C529 N532 1.384 . S
C530 H521 0.929 . S
C530 C522 1.378 . S
C530 C525 1.350 . S
C531 H518 0.929 . S
C531 C523 1.433 . S
C531 N533 1.384 . S
N532 C528 1.427 . S
N532 C529 1.384 . S
N533 C525 1.427 . S
N533 C531 1.384 . S
H534 C540 0.930 . S
H535 C544 0.930 . S
H536 C549 0.929 . S
H537 C547 0.929 . S
H538 C542 0.929 . S
H539 C548 0.929 . S
C540 H534 0.930 . S
C540 C541 1.367 . S
C540 C548 1.378 . S
C541 C540 1.367 . S
C541 C549 1.433 . S
C542 H538 0.929 . S
C542 C544 1.378 . S
C542 C546 1.350 . S
C543 C546 1.463 . S
C543 C548 1.350 . S
C543 N551 1.427 . S
C544 H535 0.930 . S
C544 C542 1.378 . S
C544 C545 1.367 . S
C545 C544 1.367 . S
C545 C547 1.433 . S
C546 C542 1.350 . S
C546 C543 1.463 . S
C546 N550 1.427 . S
C547 H537 0.929 . S
C547 C545 1.433 . S
C547 N550 1.384 . S
C548 H539 0.929 . S
C548 C540 1.378 . S
C548 C543 1.350 . S
C549 H536 0.929 . S
C549 C541 1.433 . S
C549 N551 1.384 . S
N550 C546 1.427 . S
N550 C547 1.384 . S
N551 C543 1.427 . S
N551 C549 1.384 . S
H552 C558 0.930 . S
H553 C562 0.930 . S
H554 C567 0.929 . S
H555 C565 0.929 . S
H556 C560 0.929 . S
H557 C566 0.929 . S
C558 H552 0.930 . S
C558 C559 1.367 . S
C558 C566 1.378 . S
C559 C558 1.367 . S
C559 C567 1.433 . S
C560 H556 0.929 . S
C560 C562 1.378 . S
C560 C564 1.350 . S
C561 C564 1.463 . S
C561 C566 1.350 . S
C561 N569 1.427 . S
C562 H553 0.930 . S
C562 C560 1.378 . S
C562 C563 1.367 . S
C563 C562 1.367 . S
C563 C565 1.433 . S
C564 C560 1.350 . S
C564 C561 1.463 . S
C564 N568 1.427 . S
C565 H555 0.929 . S
C565 C563 1.433 . S
C565 N568 1.384 . S
C566 H557 0.929 . S
C566 C558 1.378 . S
C566 C561 1.350 . S
C567 H554 0.929 . S
C567 C559 1.433 . S
C567 N569 1.384 . S
N568 C564 1.427 . S
N568 C565 1.384 . S
N569 C561 1.427 . S
N569 C567 1.384 . S
H570 C576 0.930 . S
H571 C580 0.930 . S
H572 C585 0.929 . S
H573 C583 0.929 . S
H574 C578 0.929 . S
H575 C584 0.929 . S
C576 H570 0.930 . S
C576 C577 1.367 . S
C576 C584 1.378 . S
C577 C576 1.367 . S
C577 C585 1.433 . S
C578 H574 0.929 . S
C578 C580 1.378 . S
C578 C582 1.350 . S
C579 C582 1.463 . S
C579 C584 1.350 . S
C579 N587 1.427 . S
C580 H571 0.930 . S
C580 C578 1.378 . S
C580 C581 1.367 . S
C581 C580 1.367 . S
C581 C583 1.433 . S
C582 C578 1.350 . S
C582 C579 1.463 . S
C582 N586 1.427 . S
C583 H573 0.929 . S
C583 C581 1.433 . S
C583 N586 1.384 . S
C584 H575 0.929 . S
C584 C576 1.378 . S
C584 C579 1.350 . S
C585 H572 0.929 . S
C585 C577 1.433 . S
C585 N587 1.384 . S
N586 C582 1.427 . S
N586 C583 1.384 . S
N587 C579 1.427 . S
N587 C585 1.384 . S
H588 C594 0.930 . S
H589 C598 0.930 . S
H590 C603 0.929 . S
H591 C601 0.929 . S
H592 C596 0.929 . S
H593 C602 0.929 . S
C594 H588 0.930 . S
C594 C595 1.367 . S
C594 C602 1.378 . S
C595 C594 1.367 . S
C595 C603 1.433 . S
C596 H592 0.929 . S
C596 C598 1.378 . S
C596 C600 1.350 . S
C597 C600 1.463 . S
C597 C602 1.350 . S
C597 N605 1.427 . S
C598 H589 0.930 . S
C598 C596 1.378 . S
C598 C599 1.367 . S
C599 C598 1.367 . S
C599 C601 1.433 . S
C600 C596 1.350 . S
C600 C597 1.463 . S
C600 N604 1.427 . S
C601 H591 0.929 . S
C601 C599 1.433 . S
C601 N604 1.384 . S
C602 H593 0.929 . S
C602 C594 1.378 . S
C602 C597 1.350 . S
C603 H590 0.929 . S
C603 C595 1.433 . S
C603 N605 1.384 . S
N604 C600 1.427 . S
N604 C601 1.384 . S
N605 C597 1.427 . S
N605 C603 1.384 . S
H606 C612 0.930 . S
H607 C616 0.930 . S
H608 C621 0.929 . S
H609 C619 0.929 . S
H610 C614 0.929 . S
H611 C620 0.929 . S
C612 H606 0.930 . S
C612 C613 1.367 . S
C612 C620 1.378 . S
C613 C612 1.367 . S
C613 C621 1.433 . S
C614 H610 0.929 . S
C614 C616 1.378 . S
C614 C618 1.350 . S
C615 C618 1.463 . S
C615 C620 1.350 . S
C615 N623 1.427 . S
C616 H607 0.930 . S
C616 C614 1.378 . S
C616 C617 1.367 . S
C617 C616 1.367 . S
C617 C619 1.433 . S
C618 C614 1.350 . S
C618 C615 1.463 . S
C618 N622 1.427 . S
C619 H609 0.929 . S
C619 C617 1.433 . S
C619 N622 1.384 . S
C620 H611 0.929 . S
C620 C612 1.378 . S
C620 C615 1.350 . S
C621 H608 0.929 . S
C621 C613 1.433 . S
C621 N623 1.384 . S
N622 C618 1.427 . S
N622 C619 1.384 . S
N623 C615 1.427 . S
N623 C621 1.384 . S
H624 C630 0.930 . S
H625 C634 0.930 . S
H626 C639 0.929 . S
H627 C637 0.929 . S
H628 C632 0.929 . S
H629 C638 0.929 . S
C630 H624 0.930 . S
C630 C631 1.367 . S
C630 C638 1.378 . S
C631 C630 1.367 . S
C631 C639 1.433 . S
C632 H628 0.929 . S
C632 C634 1.378 . S
C632 C636 1.350 . S
C633 C636 1.463 . S
C633 C638 1.350 . S
C633 N641 1.427 . S
C634 H625 0.930 . S
C634 C632 1.378 . S
C634 C635 1.367 . S
C635 C634 1.367 . S
C635 C637 1.433 . S
C636 C632 1.350 . S
C636 C633 1.463 . S
C636 N640 1.427 . S
C637 H627 0.929 . S
C637 C635 1.433 . S
C637 N640 1.384 . S
C638 H629 0.929 . S
C638 C630 1.378 . S
C638 C633 1.350 . S
C639 H626 0.929 . S
C639 C631 1.433 . S
C639 N641 1.384 . S
N640 C636 1.427 . S
N640 C637 1.384 . S
N641 C633 1.427 . S
N641 C639 1.384 . S
H642 C648 0.930 . S
H643 C652 0.930 . S
H644 C657 0.929 . S
H645 C655 0.929 . S
H646 C650 0.929 . S
H647 C656 0.929 . S
C648 H642 0.930 . S
C648 C649 1.367 . S
C648 C656 1.378 . S
C649 C648 1.367 . S
C649 C657 1.433 . S
C650 H646 0.929 . S
C650 C652 1.378 . S
C650 C654 1.350 . S
C651 C654 1.463 . S
C651 C656 1.350 . S
C651 N659 1.427 . S
C652 H643 0.930 . S
C652 C650 1.378 . S
C652 C653 1.367 . S
C653 C652 1.367 . S
C653 C655 1.433 . S
C654 C650 1.350 . S
C654 C651 1.463 . S
C654 N658 1.427 . S
C655 H645 0.929 . S
C655 C653 1.433 . S
C655 N658 1.384 . S
C656 H647 0.929 . S
C656 C648 1.378 . S
C656 C651 1.350 . S
C657 H644 0.929 . S
C657 C649 1.433 . S
C657 N659 1.384 . S
N658 C654 1.427 . S
N658 C655 1.384 . S
N659 C651 1.427 . S
N659 C657 1.384 . S
H660 C666 0.930 . S
H661 C670 0.930 . S
H662 C675 0.929 . S
H663 C673 0.929 . S
H664 C668 0.929 . S
H665 C674 0.929 . S
C666 H660 0.930 . S
C666 C667 1.367 . S
C666 C674 1.378 . S
C667 C666 1.367 . S
C667 C675 1.433 . S
C668 H664 0.929 . S
C668 C670 1.378 . S
C668 C672 1.350 . S
C669 C672 1.463 . S
C669 C674 1.350 . S
C669 N677 1.427 . S
C670 H661 0.930 . S
C670 C668 1.378 . S
C670 C671 1.367 . S
C671 C670 1.367 . S
C671 C673 1.433 . S
C672 C668 1.350 . S
C672 C669 1.463 . S
C672 N676 1.427 . S
C673 H663 0.929 . S
C673 C671 1.433 . S
C673 N676 1.384 . S
C674 H665 0.929 . S
C674 C666 1.378 . S
C674 C669 1.350 . S
C675 H662 0.929 . S
C675 C667 1.433 . S
C675 N677 1.384 . S
N676 C672 1.427 . S
N676 C673 1.384 . S
N677 C669 1.427 . S
N677 C675 1.384 . S
H678 C684 0.930 . S
H679 C688 0.930 . S
H680 C693 0.929 . S
H681 C691 0.929 . S
H682 C686 0.929 . S
H683 C692 0.929 . S
C684 H678 0.930 . S
C684 C685 1.367 . S
C684 C692 1.378 . S
C685 C684 1.367 . S
C685 C693 1.433 . S
C686 H682 0.929 . S
C686 C688 1.378 . S
C686 C690 1.350 . S
C687 C690 1.463 . S
C687 C692 1.350 . S
C687 N695 1.427 . S
C688 H679 0.930 . S
C688 C686 1.378 . S
C688 C689 1.367 . S
C689 C688 1.367 . S
C689 C691 1.433 . S
C690 C686 1.350 . S
C690 C687 1.463 . S
C690 N694 1.427 . S
C691 H681 0.929 . S
C691 C689 1.433 . S
C691 N694 1.384 . S
C692 H683 0.929 . S
C692 C684 1.378 . S
C692 C687 1.350 . S
C693 H680 0.929 . S
C693 C685 1.433 . S
C693 N695 1.384 . S
N694 C690 1.427 . S
N694 C691 1.384 . S
N695 C687 1.427 . S
N695 C693 1.384 . S
H696 C702 0.930 . S
H697 C706 0.930 . S
H698 C711 0.929 . S
H699 C709 0.929 . S
H700 C704 0.929 . S
H701 C710 0.929 . S
C702 H696 0.930 . S
C702 C703 1.367 . S
C702 C710 1.378 . S
C703 C702 1.367 . S
C703 C711 1.433 . S
C704 H700 0.929 . S
C704 C706 1.378 . S
C704 C708 1.350 . S
C705 C708 1.463 1_565 S
C705 C710 1.350 . S
C705 N713 1.427 . S
C706 H697 0.930 . S
C706 C704 1.378 . S
C706 C707 1.367 . S
C707 C706 1.367 . S
C707 C709 1.433 . S
C708 C704 1.350 . S
C708 C705 1.463 1_545 S
C708 N712 1.427 . S
C709 H699 0.929 . S
C709 C707 1.433 . S
C709 N712 1.384 . S
C710 H701 0.929 . S
C710 C702 1.378 . S
C710 C705 1.350 . S
C711 H698 0.929 . S
C711 C703 1.433 . S
C711 N713 1.384 . S
N712 C708 1.427 . S
N712 C709 1.384 . S
N713 C705 1.427 . S
N713 C711 1.384 . S
H714 C720 0.930 . S
H715 C724 0.930 . S
H716 C729 0.929 . S
H717 C727 0.929 . S
H718 C722 0.929 . S
H719 C728 0.929 . S
C720 H714 0.930 . S
C720 C721 1.367 . S
C720 C728 1.378 . S
C721 C720 1.367 . S
C721 C729 1.433 . S
C722 H718 0.929 . S
C722 C724 1.378 . S
C722 C726 1.350 . S
C723 C726 1.463 1_455 S
C723 C728 1.350 . S
C723 N731 1.427 . S
C724 H715 0.930 . S
C724 C722 1.378 . S
C724 C725 1.367 . S
C725 C724 1.367 . S
C725 C727 1.433 . S
C726 C722 1.350 . S
C726 C723 1.463 1_655 S
C726 N730 1.427 . S
C727 H717 0.929 . S
C727 C725 1.433 . S
C727 N730 1.384 . S
C728 H719 0.929 . S
C728 C720 1.378 . S
C728 C723 1.350 . S
C729 H716 0.929 . S
C729 C721 1.433 . S
C729 N731 1.384 . S
N730 C726 1.427 . S
N730 C727 1.384 . S
N731 C723 1.427 . S
N731 C729 1.384 . S
H732 C738 0.930 . S
H733 C742 0.930 . S
H734 C747 0.929 . S
H735 C745 0.929 . S
H736 C740 0.929 . S
H737 C746 0.929 . S
C738 H732 0.930 . S
C738 C739 1.367 . S
C738 C746 1.378 . S
C739 C738 1.367 . S
C739 C747 1.433 . S
C740 H736 0.929 . S
C740 C742 1.378 . S
C740 C744 1.350 . S
C741 C744 1.463 1_545 S
C741 C746 1.350 . S
C741 N749 1.427 . S
C742 H733 0.930 . S
C742 C740 1.378 . S
C742 C743 1.367 . S
C743 C742 1.367 . S
C743 C745 1.433 . S
C744 C740 1.350 . S
C744 C741 1.463 1_565 S
C744 N748 1.427 . S
C745 H735 0.929 . S
C745 C743 1.433 . S
C745 N748 1.384 . S
C746 H737 0.929 . S
C746 C738 1.378 . S
C746 C741 1.350 . S
C747 H734 0.929 . S
C747 C739 1.433 . S
C747 N749 1.384 . S
N748 C744 1.427 . S
N748 C745 1.384 . S
N749 C741 1.427 . S
N749 C747 1.384 . S
H750 C756 0.930 . S
H751 C760 0.930 . S
H752 C765 0.929 . S
H753 C763 0.929 . S
H754 C758 0.929 . S
H755 C764 0.929 . S
C756 H750 0.930 . S
C756 C757 1.367 . S
C756 C764 1.378 . S
C757 C756 1.367 . S
C757 C765 1.433 . S
C758 H754 0.929 . S
C758 C760 1.378 . S
C758 C762 1.350 . S
C759 C762 1.463 1_455 S
C759 C764 1.350 . S
C759 N767 1.427 . S
C760 H751 0.930 . S
C760 C758 1.378 . S
C760 C761 1.367 . S
C761 C760 1.367 . S
C761 C763 1.433 . S
C762 C758 1.350 . S
C762 C759 1.463 1_655 S
C762 N766 1.427 . S
C763 H753 0.929 . S
C763 C761 1.433 . S
C763 N766 1.384 . S
C764 H755 0.929 . S
C764 C756 1.378 . S
C764 C759 1.350 . S
C765 H752 0.929 . S
C765 C757 1.433 . S
C765 N767 1.384 . S
N766 C762 1.427 . S
N766 C763 1.384 . S
N767 C759 1.427 . S
N767 C765 1.384 . S
H768 C774 0.930 . S
H769 C778 0.930 . S
H770 C783 0.929 . S
H771 C781 0.929 . S
H772 C776 0.929 . S
H773 C782 0.929 . S
C774 H768 0.930 . S
C774 C775 1.367 . S
C774 C782 1.378 . S
C775 C774 1.367 . S
C775 C783 1.433 . S
C776 H772 0.929 . S
C776 C778 1.378 . S
C776 C780 1.350 . S
C777 C780 1.463 1_556 S
C777 C782 1.350 . S
C777 N785 1.427 . S
C778 H769 0.930 . S
C778 C776 1.378 . S
C778 C779 1.367 . S
C779 C778 1.367 . S
C779 C781 1.433 . S
C780 C776 1.350 . S
C780 C777 1.463 1_554 S
C780 N784 1.427 . S
C781 H771 0.929 . S
C781 C779 1.433 . S
C781 N784 1.384 . S
C782 H773 0.929 . S
C782 C774 1.378 . S
C782 C777 1.350 . S
C783 H770 0.929 . S
C783 C775 1.433 . S
C783 N785 1.384 . S
N784 C780 1.427 . S
N784 C781 1.384 . S
N785 C777 1.427 . S
N785 C783 1.384 . S
H786 C792 0.930 . S
H787 C796 0.930 . S
H788 C801 0.929 . S
H789 C799 0.929 . S
H790 C794 0.929 . S
H791 C800 0.929 . S
C792 H786 0.930 . S
C792 C793 1.367 . S
C792 C800 1.378 . S
C793 C792 1.367 . S
C793 C801 1.433 . S
C794 H790 0.929 . S
C794 C796 1.378 . S
C794 C798 1.350 . S
C795 C798 1.463 1_556 S
C795 C800 1.350 . S
C795 N803 1.427 . S
C796 H787 0.930 . S
C796 C794 1.378 . S
C796 C797 1.367 . S
C797 C796 1.367 . S
C797 C799 1.433 . S
C798 C794 1.350 . S
C798 C795 1.463 1_554 S
C798 N802 1.427 . S
C799 H789 0.929 . S
C799 C797 1.433 . S
C799 N802 1.384 . S
C800 H791 0.929 . S
C800 C792 1.378 . S
C800 C795 1.350 . S
C801 H788 0.929 . S
C801 C793 1.433 . S
C801 N803 1.384 . S
N802 C798 1.427 . S
N802 C799 1.384 . S
N803 C795 1.427 . S
N803 C801 1.384 . S
H804 C810 0.930 . S
H805 C814 0.930 . S
H806 C819 0.929 . S
H807 C817 0.929 . S
H808 C812 0.929 . S
H809 C818 0.929 . S
C810 H804 0.930 . S
C810 C811 1.367 . S
C810 C818 1.378 . S
C811 C810 1.367 . S
C811 C819 1.433 . S
C812 H808 0.929 . S
C812 C814 1.378 . S
C812 C816 1.350 . S
C813 C816 1.463 1_554 S
C813 C818 1.350 . S
C813 N821 1.427 . S
C814 H805 0.930 . S
C814 C812 1.378 . S
C814 C815 1.367 . S
C815 C814 1.367 . S
C815 C817 1.433 . S
C816 C812 1.350 . S
C816 C813 1.463 1_556 S
C816 N820 1.427 . S
C817 H807 0.929 . S
C817 C815 1.433 . S
C817 N820 1.384 . S
C818 H809 0.929 . S
C818 C810 1.378 . S
C818 C813 1.350 . S
C819 H806 0.929 . S
C819 C811 1.433 . S
C819 N821 1.384 . S
N820 C816 1.427 . S
N820 C817 1.384 . S
N821 C813 1.427 . S
N821 C819 1.384 . S
H822 C828 0.930 . S
H823 C832 0.930 . S
H824 C837 0.929 . S
H825 C835 0.929 . S
H826 C830 0.929 . S
H827 C836 0.929 . S
C828 H822 0.930 . S
C828 C829 1.367 . S
C828 C836 1.378 . S
C829 C828 1.367 . S
C829 C837 1.433 . S
C830 H826 0.929 . S
C830 C832 1.378 . S
C830 C834 1.350 . S
C831 C834 1.463 1_556 S
C831 C836 1.350 . S
C831 N839 1.427 . S
C832 H823 0.930 . S
C832 C830 1.378 . S
C832 C833 1.367 . S
C833 C832 1.367 . S
C833 C835 1.433 . S
C834 C830 1.350 . S
C834 C831 1.463 1_554 S
C834 N838 1.427 . S
C835 H825 0.929 . S
C835 C833 1.433 . S
C835 N838 1.384 . S
C836 H827 0.929 . S
C836 C828 1.378 . S
C836 C831 1.350 . S
C837 H824 0.929 . S
C837 C829 1.433 . S
C837 N839 1.384 . S
N838 C834 1.427 . S
N838 C835 1.384 . S
N839 C831 1.427 . S
N839 C837 1.384 . S
H840 C846 0.930 . S
H841 C850 0.930 . S
H842 C855 0.929 . S
H843 C853 0.929 . S
H844 C848 0.929 . S
H845 C854 0.929 . S
C846 H840 0.930 . S
C846 C847 1.367 . S
C846 C854 1.378 . S
C847 C846 1.367 . S
C847 C855 1.433 . S
C848 H844 0.929 . S
C848 C850 1.378 . S
C848 C852 1.350 . S
C849 C852 1.463 1_455 S
C849 C854 1.350 . S
C849 N857 1.427 . S
C850 H841 0.930 . S
C850 C848 1.378 . S
C850 C851 1.367 . S
C851 C850 1.367 . S
C851 C853 1.433 . S
C852 C848 1.350 . S
C852 C849 1.463 1_655 S
C852 N856 1.427 . S
C853 H843 0.929 . S
C853 C851 1.433 . S
C853 N856 1.384 . S
C854 H845 0.929 . S
C854 C846 1.378 . S
C854 C849 1.350 . S
C855 H842 0.929 . S
C855 C847 1.433 . S
C855 N857 1.384 . S
N856 C852 1.427 . S
N856 C853 1.384 . S
N857 C849 1.427 . S
N857 C855 1.384 . S
H858 C864 0.930 . S
H859 C868 0.930 . S
H860 C873 0.929 . S
H861 C871 0.929 . S
H862 C866 0.929 . S
H863 C872 0.929 . S
C864 H858 0.930 . S
C864 C865 1.367 . S
C864 C872 1.378 . S
C865 C864 1.367 . S
C865 C873 1.433 . S
C866 H862 0.929 . S
C866 C868 1.378 . S
C866 C870 1.350 . S
C867 C870 1.463 1_655 S
C867 C872 1.350 . S
C867 N875 1.427 . S
C868 H859 0.930 . S
C868 C866 1.378 . S
C868 C869 1.367 . S
C869 C868 1.367 . S
C869 C871 1.433 . S
C870 C866 1.350 . S
C870 C867 1.463 1_455 S
C870 N874 1.427 . S
C871 H861 0.929 . S
C871 C869 1.433 . S
C871 N874 1.384 . S
C872 H863 0.929 . S
C872 C864 1.378 . S
C872 C867 1.350 . S
C873 H860 0.929 . S
C873 C865 1.433 . S
C873 N875 1.384 . S
N874 C870 1.427 . S
N874 C871 1.384 . S
N875 C867 1.427 . S
N875 C873 1.384 . S
H876 C882 0.930 . S
H877 C886 0.930 . S
H878 C891 0.929 . S
H879 C889 0.929 . S
H880 C884 0.929 . S
H881 C890 0.929 . S
C882 H876 0.930 . S
C882 C883 1.367 . S
C882 C890 1.378 . S
C883 C882 1.367 . S
C883 C891 1.433 . S
C884 H880 0.929 . S
C884 C886 1.378 . S
C884 C888 1.350 . S
C885 C888 1.463 1_545 S
C885 C890 1.350 . S
C885 N893 1.427 . S
C886 H877 0.930 . S
C886 C884 1.378 . S
C886 C887 1.367 . S
C887 C886 1.367 . S
C887 C889 1.433 . S
C888 C884 1.350 . S
C888 C885 1.463 1_565 S
C888 N892 1.427 . S
C889 H879 0.929 . S
C889 C887 1.433 . S
C889 N892 1.384 . S
C890 H881 0.929 . S
C890 C882 1.378 . S
C890 C885 1.350 . S
C891 H878 0.929 . S
C891 C883 1.433 . S
C891 N893 1.384 . S
N892 C888 1.427 . S
N892 C889 1.384 . S
N893 C885 1.427 . S
N893 C891 1.384 . S
H894 C900 0.930 . S
H895 C904 0.930 . S
H896 C909 0.929 . S
H897 C907 0.929 . S
H898 C902 0.929 . S
H899 C908 0.929 . S
C900 H894 0.930 . S
C900 C901 1.367 . S
C900 C908 1.378 . S
C901 C900 1.367 . S
C901 C909 1.433 . S
C902 H898 0.929 . S
C902 C904 1.378 . S
C902 C906 1.350 . S
C903 C906 1.463 1_565 S
C903 C908 1.350 . S
C903 N911 1.427 . S
C904 H895 0.930 . S
C904 C902 1.378 . S
C904 C905 1.367 . S
C905 C904 1.367 . S
C905 C907 1.433 . S
C906 C902 1.350 . S
C906 C903 1.463 1_545 S
C906 N910 1.427 . S
C907 H897 0.929 . S
C907 C905 1.433 . S
C907 N910 1.384 . S
C908 H899 0.929 . S
C908 C900 1.378 . S
C908 C903 1.350 . S
C909 H896 0.929 . S
C909 C901 1.433 . S
C909 N911 1.384 . S
N910 C906 1.427 . S
N910 C907 1.384 . S
N911 C903 1.427 . S
N911 C909 1.384 . S
C271 C5 1.429 . S
C275 C161 1.430 . S
C289 C94 1.436 . S
C293 C31 1.423 . S
C307 C53 1.427 . S
C311 C117 1.432 . S
C325 C71 1.426 . S
C329 C139 1.433 . S
C343 C75 1.432 . S
C347 C204 1.427 . S
C361 C9 1.435 . S
C365 C227 1.424 . S
C379 C248 1.423 . S
C383 C27 1.436 . S
C397 C49 1.434 . S
C401 C182 1.425 . S
C415 C93 1.434 . S
C419 C7 1.425 . S
C433 C119 1.429 . S
C437 C28 1.430 . S
C451 C141 1.423 . S
C455 C50 1.436 . S
C469 C73 1.435 . S
C473 C163 1.423 . S
C487 C72 1.422 . S
C491 C181 1.437 . S
C505 C6 1.424 . S
C509 C203 1.435 . S
C523 C229 1.433 . S
C527 C29 1.425 . S
C541 C247 1.425 . S
C545 C51 1.434 . S
C559 C95 1.423 . S
C563 C159 1.436 . S
C577 C207 1.435 . S
C581 C183 1.424 . S
C595 C205 1.423 . S
C599 C225 1.435 . S
C613 C251 1.423 . S
C617 C226 1.436 . S
C631 C249 1.432 . S
C635 C185 1.426 . S
C649 C138 1.423 . S
C653 C115 1.435 . S
C667 C137 1.436 . S
C671 C160 1.423 . S
C685 C97 1.436 . S
C689 C116 1.423 . S
C703 C70 1.540 . S
C707 C8 1.547 . S
C721 C4 1.545 . S
C725 C26 1.542 . S
C739 C30 1.541 . S
C743 C48 1.545 . S
C757 C74 1.546 . S
C761 C52 1.541 . S
C775 C224 1.540 . S
C779 C96 1.546 . S
C793 C250 1.546 . S
C797 C114 1.540 . S
C811 C136 1.545 . S
C815 C184 1.541 . S
C829 C206 1.544 . S
C833 C158 1.542 . S
C847 C162 1.540 . S
C851 C118 1.546 . S
C865 C246 1.547 . S
C869 C202 1.540 . S
C883 C228 1.540 . S
C887 C180 1.546 . S
C901 C140 1.546 . S
C905 C92 1.541 . S
