# Generated by pormake.
# Topology qtz-f, (3)-cn, num edge types: 1
# Building blocks:
#     Node 0, Type 0, BuildingBlock: WUSLED_clean_sbu_0, # of connection points: 3
#     Node 1, Type 0, BuildingBlock: WUSLED_clean_sbu_0, # of connection points: 3
#     Node 2, Type 0, BuildingBlock: WUSLED_clean_sbu_0, # of connection points: 3
#     Node 3, Type 0, BuildingBlock: WUSLED_clean_sbu_0, # of connection points: 3
#     Node 4, Type 0, BuildingBlock: WUSLED_clean_sbu_0, # of connection points: 3
#     Node 5, Type 0, BuildingBlock: WUSLED_clean_sbu_0, # of connection points: 3
#     Node 6, Type 0, BuildingBlock: WUSLED_clean_sbu_0, # of connection points: 3
#     Node 7, Type 0, BuildingBlock: WUSLED_clean_sbu_0, # of connection points: 3
#     Node 8, Type 0, BuildingBlock: WUSLED_clean_sbu_0, # of connection points: 3
#     Node 9, Type 0, BuildingBlock: WUSLED_clean_sbu_0, # of connection points: 3
#     Node 10, Type 0, BuildingBlock: WUSLED_clean_sbu_0, # of connection points: 3
#     Node 11, Type 0, BuildingBlock: WUSLED_clean_sbu_0, # of connection points: 3
#     Edge 12, Type (0, 0), BuildingBlock: AJUNOK_clean_linker_0, # of connection points: 2
#     Edge 13, Type (0, 0), BuildingBlock: AJUNOK_clean_linker_0, # of connection points: 2
#     Edge 14, Type (0, 0), BuildingBlock: AJUNOK_clean_linker_0, # of connection points: 2
#     Edge 15, Type (0, 0), BuildingBlock: AJUNOK_clean_linker_0, # of connection points: 2
#     Edge 16, Type (0, 0), BuildingBlock: AJUNOK_clean_linker_0, # of connection points: 2
#     Edge 17, Type (0, 0), BuildingBlock: AJUNOK_clean_linker_0, # of connection points: 2
#     Edge 18, Type (0, 0), BuildingBlock: AJUNOK_clean_linker_0, # of connection points: 2
#     Edge 19, Type (0, 0), BuildingBlock: AJUNOK_clean_linker_0, # of connection points: 2
#     Edge 20, Type (0, 0), BuildingBlock: AJUNOK_clean_linker_0, # of connection points: 2
#     Edge 21, Type (0, 0), BuildingBlock: AJUNOK_clean_linker_0, # of connection points: 2
#     Edge 22, Type (0, 0), BuildingBlock: AJUNOK_clean_linker_0, # of connection points: 2
#     Edge 23, Type (0, 0), BuildingBlock: AJUNOK_clean_linker_0, # of connection points: 2
#     Edge 24, Type (0, 0), BuildingBlock: AJUNOK_clean_linker_0, # of connection points: 2
#     Edge 25, Type (0, 0), BuildingBlock: AJUNOK_clean_linker_0, # of connection points: 2
#     Edge 26, Type (0, 0), BuildingBlock: AJUNOK_clean_linker_0, # of connection points: 2
#     Edge 27, Type (0, 0), BuildingBlock: AJUNOK_clean_linker_0, # of connection points: 2
#     Edge 28, Type (0, 0), BuildingBlock: AJUNOK_clean_linker_0, # of connection points: 2
#     Edge 29, Type (0, 0), BuildingBlock: AJUNOK_clean_linker_0, # of connection points: 2
# Relax obj value: 0.120
# Max RMSD: 0.088
# Mean RMSD: 0.088
data_MOF--net-qtz-f--node1-WUSLED_clean_sbu_0--edge1-AJUNOK_clean_linker_0
_symmetry_space_group_name_H-M    P1
_symmetry_Int_Tables_number       1
_symmetry_cell_setting            triclinic
loop_
_symmetry_equiv_pos_as_xyz
'x, y, z'
_cell_length_a     79.006973
_cell_length_b     79.040569
_cell_length_c     47.138756
_cell_angle_alpha  90.050941
_cell_angle_beta   90.007727
_cell_angle_gamma 120.02339
loop_
_atom_site_label
_atom_site_type_symbol
_atom_site_fract_x
_atom_site_fract_y
_atom_site_fract_z
_atom_type_partial_charge
C0 C 0.09369 0.4072 0.13576 0.0
C1 C 0.08859 0.41419 0.1598 0.0
C2 C 0.05562 0.386 0.15888 0.0
C3 C 0.06979 0.40367 0.17128 0.0
C4 C 0.0608 0.37902 0.13482 0.0
C5 C 0.07969 0.38951 0.12342 0.0
U6 U 0.13772 0.4567 0.12343 0.0
O7 O 0.16932 0.46744 0.12263 0.0
O8 O 0.15492 0.47094 0.08503 0.0
C9 C 0.17116 0.47301 0.09598 0.0
C10 C 0.1131 0.41896 0.12253 0.0
C11 C 0.18313 0.46807 0.07733 0.0
C12 C 0.19887 0.4491 0.06599 0.0
C13 C 0.18599 0.45219 0.08281 0.0
C14 C 0.20571 0.47734 0.03763 0.0
C15 C 0.20909 0.46184 0.04345 0.0
C16 C 0.19293 0.48043 0.05442 0.0
C17 C 0.13351 0.49855 0.15986 0.0
C18 C 0.15491 0.53351 0.15338 0.0
C19 C 0.1268 0.52153 0.18443 0.0
C20 C 0.12209 0.50236 0.17861 0.0
C21 C 0.14307 0.53735 0.17158 0.0
C22 C 0.15012 0.51421 0.14748 0.0
C23 C 0.127 0.47811 0.15262 0.0
O24 O 0.11388 0.43082 0.10241 0.0
O25 O 0.12796 0.42725 0.14021 0.0
O26 O 0.13696 0.47051 0.16369 0.0
O27 O 0.12218 0.4732 0.12597 0.0
H28 H 0.09908 0.42794 0.16947 0.0
H29 H 0.06628 0.40944 0.18982 0.0
H30 H 0.05012 0.36573 0.12432 0.0
H31 H 0.08324 0.38403 0.10462 0.0
H32 H 0.20091 0.43683 0.0707 0.0
H33 H 0.17854 0.44236 0.1003 0.0
H34 H 0.21343 0.48747 0.02055 0.0
H35 H 0.19103 0.49282 0.04987 0.0
H36 H 0.16773 0.5454 0.14353 0.0
H37 H 0.1173 0.52396 0.19833 0.0
H38 H 0.10918 0.49043 0.18828 0.0
H39 H 0.15913 0.5115 0.13297 0.0
C40 C 0.69694 0.08746 0.46722 0.0
C41 C 0.67705 0.0772 0.4745 0.0
C42 C 0.67997 0.04942 0.49034 0.0
C43 C 0.66865 0.05838 0.48585 0.0
C44 C 0.69995 0.0598 0.48317 0.0
C45 C 0.70835 0.07866 0.47165 0.0
U46 U 0.69319 0.13256 0.4572 0.0
O47 O 0.7147 0.16405 0.46053 0.0
O48 O 0.69856 0.15193 0.42078 0.0
C49 C 0.71235 0.1674 0.4339 0.0
C50 C 0.70576 0.1075 0.45591 0.0
C51 C 0.73028 0.18004 0.41753 0.0
C52 C 0.7527 0.18547 0.37857 0.0
C53 C 0.73693 0.17268 0.39572 0.0
C54 C 0.75581 0.21299 0.40547 0.0
C55 C 0.76204 0.20582 0.38289 0.0
C56 C 0.74008 0.20025 0.42253 0.0
C57 C 0.6458 0.12763 0.49006 0.0
C58 C 0.63307 0.1498 0.4845 0.0
C59 C 0.61572 0.1208 0.51355 0.0
C60 C 0.63002 0.11585 0.50777 0.0
C61 C 0.61691 0.13767 0.50171 0.0
C62 C 0.64743 0.14478 0.47865 0.0
C63 C 0.65972 0.12106 0.48312 0.0
O64 O 0.69614 0.10973 0.43483 0.0
O65 O 0.71138 0.1213 0.47521 0.0
O66 O 0.67669 0.13002 0.49617 0.0
O67 O 0.6611 0.11766 0.45617 0.0
H68 H 0.66801 0.08378 0.47148 0.0
H69 H 0.65322 0.05077 0.49102 0.0
H70 H 0.70916 0.0535 0.48692 0.0
H71 H 0.72377 0.08644 0.46645 0.0
H72 H 0.75741 0.17947 0.3617 0.0
H73 H 0.72968 0.15713 0.39153 0.0
H74 H 0.76264 0.22857 0.40929 0.0
H75 H 0.73517 0.20625 0.43918 0.0
H76 H 0.63455 0.16306 0.47545 0.0
H77 H 0.60339 0.11106 0.52666 0.0
H78 H 0.62853 0.10254 0.5167 0.0
H79 H 0.6596 0.15409 0.46499 0.0
C80 C 0.61946 0.69191 0.80105 0.0
C81 C 0.61185 0.67783 0.82269 0.0
C82 C 0.64124 0.67514 0.82209 0.0
C83 C 0.62268 0.66962 0.83322 0.0
C84 C 0.6489 0.68937 0.80057 0.0
C85 C 0.63808 0.69768 0.79013 0.0
U86 U 0.56988 0.68673 0.79148 0.0
O87 O 0.55919 0.70763 0.79376 0.0
O88 O 0.55523 0.69093 0.75463 0.0
C89 C 0.55289 0.70441 0.76741 0.0
C90 C 0.6076 0.69985 0.78913 0.0
C91 C 0.55695 0.72171 0.75051 0.0
C92 C 0.57867 0.75116 0.72398 0.0
C93 C 0.57563 0.73484 0.73992 0.0
C94 C 0.54445 0.74126 0.72926 0.0
C95 C 0.56306 0.75453 0.71854 0.0
C96 C 0.54145 0.72505 0.74503 0.0
C97 C 0.52803 0.64052 0.82705 0.0
C98 C 0.4932 0.6243 0.81679 0.0
C99 C 0.50496 0.61382 0.85675 0.0
C100 C 0.52411 0.62819 0.85043 0.0
C101 C 0.48929 0.61156 0.83986 0.0
C102 C 0.51244 0.63874 0.81047 0.0
C103 C 0.54855 0.65407 0.81951 0.0
O104 O 0.59544 0.6892 0.76893 0.0
O105 O 0.59957 0.70601 0.80789 0.0
O106 O 0.5568 0.67138 0.83158 0.0
O107 O 0.55308 0.65467 0.79257 0.0
H108 H 0.59741 0.67302 0.83123 0.0
H109 H 0.61636 0.65861 0.84966 0.0
H110 H 0.66327 0.6941 0.79186 0.0
H111 H 0.64417 0.70847 0.77337 0.0
H112 H 0.59321 0.76125 0.71626 0.0
H113 H 0.5878 0.73251 0.74404 0.0
H114 H 0.5321 0.74333 0.72522 0.0
H115 H 0.52692 0.71506 0.75297 0.0
H116 H 0.48142 0.62284 0.80336 0.0
H117 H 0.50253 0.60394 0.87418 0.0
H118 H 0.53597 0.62926 0.86333 0.0
H119 H 0.51519 0.64814 0.7923 0.0
C120 C 0.93983 0.61465 0.13415 0.0
C121 C 0.95002 0.60502 0.14179 0.0
C122 C 0.97786 0.63578 0.15748 0.0
C123 C 0.96883 0.61547 0.15325 0.0
C124 C 0.96754 0.64538 0.14995 0.0
C125 C 0.94869 0.63489 0.13833 0.0
U126 U 0.89499 0.56568 0.12337 0.0
O127 O 0.86343 0.55531 0.12679 0.0
O128 O 0.87564 0.55184 0.08678 0.0
C129 C 0.86007 0.54974 0.1001 0.0
C130 C 0.91981 0.60338 0.12267 0.0
C131 C 0.84721 0.55486 0.08405 0.0
C132 C 0.84186 0.57426 0.04887 0.0
C133 C 0.85463 0.57096 0.06561 0.0
C134 C 0.81421 0.54579 0.06944 0.0
C135 C 0.8215 0.56149 0.05026 0.0
C136 C 0.82693 0.54251 0.08609 0.0
C137 C 0.90034 0.52333 0.15558 0.0
C138 C 0.8784 0.4884 0.14969 0.0
C139 C 0.90723 0.5002 0.17927 0.0
C140 C 0.91209 0.51942 0.17351 0.0
C141 C 0.89048 0.48445 0.16718 0.0
C142 C 0.88332 0.50774 0.14388 0.0
C143 C 0.90677 0.54381 0.14884 0.0
O144 O 0.91771 0.59172 0.10138 0.0
O145 O 0.90598 0.59498 0.14185 0.0
O146 O 0.89774 0.55166 0.16209 0.0
O147 O 0.91008 0.5487 0.12193 0.0
H148 H 0.94339 0.58937 0.13894 0.0
H149 H 0.97639 0.60765 0.15869 0.0
H150 H 0.9739 0.66093 0.15348 0.0
H151 H 0.94098 0.64254 0.13284 0.0
H152 H 0.84791 0.58671 0.03471 0.0
H153 H 0.87025 0.58075 0.0638 0.0
H154 H 0.79865 0.53563 0.07094 0.0
H155 H 0.82091 0.52998 0.10012 0.0
H156 H 0.86524 0.47656 0.14044 0.0
H157 H 0.91692 0.49767 0.1926 0.0
H158 H 0.92529 0.53129 0.18268 0.0
H159 H 0.87404 0.51054 0.13006 0.0
C160 C 0.33578 0.93377 0.46707 0.0
C161 C 0.34957 0.94006 0.48914 0.0
C162 C 0.35249 0.97222 0.48854 0.0
C163 C 0.35775 0.95905 0.49988 0.0
C164 C 0.33848 0.96581 0.46668 0.0
C165 C 0.33021 0.94673 0.45602 0.0
U166 U 0.34172 0.88994 0.45644 0.0
O167 O 0.32111 0.85827 0.45685 0.0
O168 O 0.33873 0.87208 0.41878 0.0
C169 C 0.32493 0.85593 0.43043 0.0
C170 C 0.32813 0.91414 0.45461 0.0
C171 C 0.30814 0.84304 0.41222 0.0
C172 C 0.27396 0.82834 0.3981 0.0
C173 C 0.28991 0.84204 0.41429 0.0
C174 C 0.29445 0.8169 0.37731 0.0
C175 C 0.27604 0.81544 0.3797 0.0
C176 C 0.3103 0.83053 0.39336 0.0
C177 C 0.38823 0.89511 0.4923 0.0
C178 C 0.40101 0.87295 0.48713 0.0
C179 C 0.41851 0.9023 0.51554 0.0
C180 C 0.40414 0.90714 0.50971 0.0
C181 C 0.41729 0.88531 0.50404 0.0
C182 C 0.38658 0.87785 0.48123 0.0
C183 C 0.37423 0.90153 0.48513 0.0
O184 O 0.33906 0.91308 0.43448 0.0
O185 O 0.32195 0.8997 0.47293 0.0
O186 O 0.35678 0.89168 0.49661 0.0
O187 O 0.37381 0.90589 0.45836 0.0
H188 H 0.35423 0.93035 0.49778 0.0
H189 H 0.36858 0.96362 0.5166 0.0
H190 H 0.33395 0.97555 0.45781 0.0
H191 H 0.31966 0.94218 0.43891 0.0
H192 H 0.2599 0.82742 0.40061 0.0
H193 H 0.28791 0.85154 0.42879 0.0
H194 H 0.29657 0.80731 0.36315 0.0
H195 H 0.32421 0.83104 0.39145 0.0
H196 H 0.3995 0.85959 0.47836 0.0
H197 H 0.43093 0.91221 0.52841 0.0
H198 H 0.40566 0.92054 0.51835 0.0
H199 H 0.37433 0.86837 0.46777 0.0
C200 C 0.41438 0.33007 0.805 0.0
C201 C 0.42219 0.34335 0.82765 0.0
C202 C 0.39433 0.34861 0.82641 0.0
C203 C 0.4122 0.3524 0.83838 0.0
C204 C 0.38635 0.33502 0.80406 0.0
C205 C 0.39633 0.32586 0.7934 0.0
U206 U 0.46303 0.33334 0.79418 0.0
O207 O 0.47261 0.3115 0.79595 0.0
O208 O 0.4769 0.32847 0.75703 0.0
C209 C 0.47841 0.31436 0.76937 0.0
C210 C 0.42553 0.32145 0.79268 0.0
C211 C 0.47307 0.29673 0.75222 0.0
C212 C 0.45513 0.27425 0.7137 0.0
C213 C 0.45843 0.28995 0.73129 0.0
C214 C 0.48058 0.27156 0.73833 0.0
C215 C 0.46643 0.26511 0.7167 0.0
C216 C 0.48386 0.28721 0.75582 0.0
C217 C 0.506 0.37932 0.82928 0.0
C218 C 0.54069 0.39607 0.81796 0.0
C219 C 0.52929 0.40583 0.85914 0.0
C220 C 0.51013 0.39133 0.85314 0.0
C221 C 0.54478 0.40855 0.84146 0.0
C222 C 0.52143 0.38151 0.81194 0.0
C223 C 0.48539 0.36592 0.82192 0.0
O224 O 0.43764 0.33176 0.77226 0.0
O225 O 0.43336 0.31489 0.81114 0.0
O226 O 0.47693 0.34864 0.83405 0.0
O227 O 0.48067 0.36536 0.79507 0.0
H228 H 0.43614 0.34688 0.83688 0.0
H229 H 0.41852 0.36243 0.85604 0.0
H230 H 0.37262 0.33181 0.7944 0.0
H231 H 0.39011 0.31574 0.77582 0.0
H232 H 0.44386 0.26937 0.6976 0.0
H233 H 0.44982 0.297 0.72821 0.0
H234 H 0.48959 0.26492 0.74112 0.0
H235 H 0.49525 0.29222 0.77177 0.0
H236 H 0.55232 0.39787 0.80392 0.0
H237 H 0.53182 0.41551 0.87692 0.0
H238 H 0.49839 0.38997 0.86661 0.0
H239 H 0.51852 0.37238 0.79337 0.0
C240 C 0.61839 0.93294 0.56189 0.0
C241 C 0.60902 0.94329 0.55376 0.0
C242 C 0.64009 0.97087 0.53872 0.0
C243 C 0.61977 0.9621 0.54245 0.0
C244 C 0.64945 0.96042 0.54667 0.0
C245 C 0.63867 0.94159 0.55821 0.0
U246 U 0.56924 0.88811 0.57162 0.0
O247 O 0.55911 0.85662 0.57075 0.0
O248 O 0.5544 0.8698 0.60881 0.0
C249 C 0.5526 0.85392 0.59698 0.0
C250 C 0.60689 0.91308 0.57379 0.0
C251 C 0.55685 0.84136 0.61524 0.0
C252 C 0.57864 0.8307 0.63437 0.0
C253 C 0.57555 0.84342 0.61717 0.0
C254 C 0.54449 0.81398 0.64791 0.0
C255 C 0.56308 0.81579 0.64988 0.0
C256 C 0.54144 0.8266 0.63079 0.0
C257 C 0.52716 0.89205 0.53564 0.0
C258 C 0.49241 0.87407 0.54646 0.0
C259 C 0.50413 0.8957 0.50584 0.0
C260 C 0.52324 0.90025 0.51199 0.0
C261 C 0.4885 0.88273 0.52315 0.0
C262 C 0.51161 0.87866 0.55263 0.0
C263 C 0.54769 0.89896 0.54308 0.0
O264 O 0.5947 0.91128 0.59412 0.0
O265 O 0.59899 0.89893 0.55495 0.0
O266 O 0.55581 0.88966 0.53139 0.0
O267 O 0.5524 0.90331 0.56991 0.0
H268 H 0.59335 0.93681 0.55617 0.0
H269 H 0.61215 0.96974 0.53634 0.0
H270 H 0.66512 0.96691 0.54432 0.0
H271 H 0.64615 0.93382 0.56429 0.0
H272 H 0.59318 0.83261 0.63575 0.0
H273 H 0.58767 0.85479 0.60538 0.0
H274 H 0.53218 0.80256 0.65935 0.0
H275 H 0.5269 0.82473 0.62952 0.0
H276 H 0.48066 0.86408 0.56021 0.0
H277 H 0.50173 0.90303 0.48821 0.0
H278 H 0.53507 0.91074 0.49879 0.0
H279 H 0.51436 0.87218 0.57103 0.0
C280 C 0.6973 0.61365 0.88972 0.0
C281 C 0.6823 0.60508 0.86943 0.0
C282 C 0.68079 0.63506 0.86641 0.0
C283 C 0.67416 0.61569 0.85786 0.0
C284 C 0.69568 0.64354 0.88695 0.0
C285 C 0.70392 0.63293 0.89844 0.0
U286 U 0.69233 0.56445 0.90283 0.0
O287 O 0.71329 0.55378 0.9005 0.0
O288 O 0.69774 0.55128 0.94031 0.0
C289 C 0.7112 0.54892 0.92747 0.0
C290 C 0.7055 0.60221 0.90231 0.0
C291 C 0.72934 0.5544 0.94349 0.0
C292 C 0.75236 0.57178 0.98175 0.0
C293 C 0.73607 0.56833 0.96544 0.0
C294 C 0.75566 0.54781 0.95397 0.0
C295 C 0.76228 0.56148 0.97627 0.0
C296 C 0.73941 0.54436 0.93778 0.0
C297 C 0.6447 0.52175 0.87077 0.0
C298 C 0.63228 0.4869 0.87628 0.0
C299 C 0.61418 0.49829 0.84843 0.0
C300 C 0.6285 0.51759 0.85388 0.0
C301 C 0.61575 0.4827 0.85979 0.0
C302 C 0.64667 0.50633 0.88179 0.0
C303 C 0.6588 0.54231 0.8771 0.0
O304 O 0.69539 0.59086 0.92352 0.0
O305 O 0.7111 0.59344 0.88399 0.0
O306 O 0.67576 0.54992 0.86413 0.0
O307 O 0.66022 0.54756 0.90384 0.0
H308 H 0.67678 0.59011 0.8627 0.0
H309 H 0.6624 0.60861 0.84258 0.0
H310 H 0.70102 0.65842 0.894 0.0
H311 H 0.71537 0.63973 0.91423 0.0
H312 H 0.75711 0.58236 0.99883 0.0
H313 H 0.72854 0.57627 0.97033 0.0
H314 H 0.76263 0.53928 0.94963 0.0
H315 H 0.73437 0.5334 0.92117 0.0
H316 H 0.63405 0.47519 0.88496 0.0
H317 H 0.60156 0.49557 0.8359 0.0
H318 H 0.62674 0.52933 0.84526 0.0
H319 H 0.65916 0.50932 0.89482 0.0
C320 C 0.09464 0.69093 0.22855 0.0
C321 C 0.08404 0.67106 0.22116 0.0
C322 C 0.05651 0.67457 0.20588 0.0
C323 C 0.06514 0.66295 0.2101 0.0
C324 C 0.06718 0.6945 0.2132 0.0
C325 C 0.0861 0.70261 0.22447 0.0
U326 U 0.13928 0.68626 0.2379 0.0
O327 O 0.17087 0.70725 0.23449 0.0
O328 O 0.15868 0.69119 0.27423 0.0
C329 C 0.17431 0.7045 0.26088 0.0
C330 C 0.11469 0.6994 0.23981 0.0
C331 C 0.18785 0.72202 0.27726 0.0
C332 C 0.19485 0.74866 0.30993 0.0
C333 C 0.18151 0.73289 0.2931 0.0
C334 C 0.22086 0.74293 0.29479 0.0
C335 C 0.21465 0.75368 0.31117 0.0
C336 C 0.20762 0.72732 0.27803 0.0
C337 C 0.13417 0.6392 0.20393 0.0
C338 C 0.15325 0.62341 0.21354 0.0
C339 C 0.12989 0.61196 0.17489 0.0
C340 C 0.12514 0.62634 0.18122 0.0
C341 C 0.14389 0.61021 0.19107 0.0
C342 C 0.14848 0.63787 0.21988 0.0
C343 C 0.12745 0.65297 0.21129 0.0
O344 O 0.11677 0.68952 0.26064 0.0
O345 O 0.12845 0.70496 0.22047 0.0
O346 O 0.13632 0.66999 0.19847 0.0
O347 O 0.12403 0.65417 0.23829 0.0
H348 H 0.09042 0.66181 0.22387 0.0
H349 H 0.05733 0.64759 0.20447 0.0
H350 H 0.0608 0.70375 0.21049 0.0
H351 H 0.09407 0.71798 0.22996 0.0
H352 H 0.18961 0.75655 0.32254 0.0
H353 H 0.16627 0.72897 0.29285 0.0
H354 H 0.23602 0.74654 0.2951 0.0
H355 H 0.21279 0.71911 0.26597 0.0
H356 H 0.16403 0.62235 0.22642 0.0
H357 H 0.12201 0.60171 0.15798 0.0
H358 H 0.11396 0.62706 0.16883 0.0
H359 H 0.15561 0.64769 0.23753 0.0
C360 C 0.41501 0.08989 0.55596 0.0
C361 C 0.42351 0.08321 0.53597 0.0
C362 C 0.39329 0.0519 0.53287 0.0
C363 C 0.41275 0.06441 0.52452 0.0
C364 C 0.38488 0.05855 0.55315 0.0
C365 C 0.39564 0.07743 0.56453 0.0
U366 U 0.46426 0.13453 0.56723 0.0
O367 O 0.47457 0.16607 0.56469 0.0
O368 O 0.47806 0.15346 0.60427 0.0
C369 C 0.48009 0.16914 0.5914 0.0
C370 C 0.42656 0.10962 0.56826 0.0
C371 C 0.47487 0.18181 0.60775 0.0
C372 C 0.45573 0.187 0.64364 0.0
C373 C 0.45928 0.17429 0.62716 0.0
C374 C 0.48302 0.21476 0.62111 0.0
C375 C 0.4676 0.20739 0.64082 0.0
C376 C 0.48656 0.20211 0.60475 0.0
C377 C 0.50683 0.13044 0.53306 0.0
C378 C 0.5416 0.14875 0.54383 0.0
C379 C 0.52995 0.12671 0.50359 0.0
C380 C 0.51081 0.12206 0.50967 0.0
C381 C 0.54557 0.13997 0.52072 0.0
C382 C 0.52236 0.14406 0.54993 0.0
C383 C 0.48627 0.12354 0.54027 0.0
O384 O 0.43843 0.11113 0.58889 0.0
O385 O 0.43482 0.12388 0.54968 0.0
O386 O 0.47805 0.13245 0.52772 0.0
O387 O 0.48149 0.1197 0.56716 0.0
H388 H 0.43853 0.09251 0.52934 0.0
H389 H 0.41977 0.05955 0.50945 0.0
H390 H 0.36993 0.04918 0.56004 0.0
H391 H 0.38889 0.08228 0.58008 0.0
H392 H 0.44379 0.1809 0.65872 0.0
H393 H 0.45007 0.15865 0.62987 0.0
H394 H 0.49275 0.23036 0.61892 0.0
H395 H 0.49876 0.20822 0.5901 0.0
H396 H 0.55334 0.15895 0.55745 0.0
H397 H 0.5324 0.11927 0.48614 0.0
H398 H 0.499 0.1114 0.49657 0.0
H399 H 0.51956 0.15068 0.56813 0.0
C400 C 0.33508 0.4084 0.88988 0.0
C401 C 0.34694 0.41527 0.8656 0.0
C402 C 0.35371 0.38844 0.86838 0.0
C403 C 0.356 0.4053 0.85483 0.0
C404 C 0.3415 0.38134 0.89234 0.0
C405 C 0.3323 0.39127 0.90303 0.0
U406 U 0.34011 0.45753 0.90262 0.0
O407 O 0.31953 0.46864 0.89987 0.0
O408 O 0.33488 0.47108 0.93987 0.0
C409 C 0.32172 0.47377 0.92674 0.0
C410 C 0.32674 0.41977 0.90241 0.0
C411 C 0.30371 0.46886 0.94259 0.0
C412 C 0.27861 0.4498 0.97757 0.0
C413 C 0.29496 0.45306 0.96155 0.0
C414 C 0.27938 0.47779 0.95536 0.0
C415 C 0.27079 0.4623 0.97488 0.0
C416 C 0.29566 0.48103 0.93946 0.0
C417 C 0.38804 0.49959 0.87033 0.0
C418 C 0.40136 0.53457 0.87619 0.0
C419 C 0.41842 0.52251 0.84724 0.0
C420 C 0.40384 0.50335 0.85282 0.0
C421 C 0.41751 0.53836 0.8591 0.0
C422 C 0.38671 0.51528 0.88183 0.0
C423 C 0.37372 0.47915 0.87689 0.0
O424 O 0.33678 0.43114 0.92369 0.0
O425 O 0.32101 0.42847 0.88415 0.0
O426 O 0.35678 0.47164 0.86385 0.0
O427 O 0.37223 0.47409 0.90371 0.0
H428 H 0.34944 0.42852 0.85513 0.0
H429 H 0.36491 0.41089 0.83594 0.0
H430 H 0.33947 0.3684 0.90324 0.0
H431 H 0.32333 0.3858 0.92189 0.0
H432 H 0.27211 0.43755 0.99208 0.0
H433 H 0.30088 0.44341 0.96421 0.0
H434 H 0.27382 0.48775 0.95291 0.0
H435 H 0.30222 0.49334 0.92503 0.0
H436 H 0.40011 0.54649 0.88527 0.0
H437 H 0.43073 0.52492 0.83422 0.0
H438 H 0.40511 0.4914 0.84383 0.0
H439 H 0.37453 0.5126 0.89535 0.0
C440 C 0.93728 0.33007 0.22476 0.0
C441 C 0.94327 0.34336 0.2021 0.0
C442 C 0.9757 0.34681 0.20299 0.0
C443 C 0.96224 0.35159 0.19129 0.0
C444 C 0.96966 0.33353 0.22578 0.0
C445 C 0.95059 0.3252 0.23651 0.0
U446 U 0.89278 0.33503 0.23513 0.0
O447 O 0.86118 0.31398 0.23254 0.0
O448 O 0.87384 0.3303 0.27199 0.0
C449 C 0.85811 0.31667 0.25914 0.0
C450 C 0.91751 0.32206 0.23687 0.0
C451 C 0.84531 0.29892 0.27563 0.0
C452 C 0.83996 0.27387 0.31028 0.0
C453 C 0.85274 0.29016 0.29392 0.0
C454 C 0.81231 0.27483 0.28991 0.0
C455 C 0.81959 0.26601 0.3084 0.0
C456 C 0.82503 0.29105 0.27369 0.0
C457 C 0.89734 0.38159 0.20003 0.0
C458 C 0.87901 0.39811 0.21002 0.0
C459 C 0.90148 0.40847 0.17033 0.0
C460 C 0.906 0.39395 0.17675 0.0
C461 C 0.88807 0.41086 0.18702 0.0
C462 C 0.88357 0.38352 0.21644 0.0
C463 C 0.90408 0.36787 0.20763 0.0
O464 O 0.91604 0.33259 0.25728 0.0
O465 O 0.90323 0.31593 0.21824 0.0
O466 O 0.89506 0.35065 0.19531 0.0
O467 O 0.90785 0.3671 0.2346 0.0
H468 H 0.9333 0.3475 0.1929 0.0
H469 H 0.9664 0.36173 0.17372 0.0
H470 H 0.97979 0.32991 0.23574 0.0
H471 H 0.94633 0.31518 0.25424 0.0
H472 H 0.84598 0.26742 0.32442 0.0
H473 H 0.86836 0.29602 0.29577 0.0
H474 H 0.79676 0.26947 0.2885 0.0
H475 H 0.81901 0.29769 0.2599 0.0
H476 H 0.86868 0.39967 0.2233 0.0
H477 H 0.90913 0.41836 0.153 0.0
H478 H 0.91678 0.39277 0.16399 0.0
H479 H 0.87674 0.37411 0.23456 0.0
C480 C 0.23846 0.46087 0.98009 0.0
C481 C 0.25407 0.4598 0.99267 0.0
C482 C 0.22363 0.46078 0.99658 0.0
C483 C 0.22374 0.45959 0.02637 0.0
H484 H 0.23789 0.46214 0.95727 0.0
H485 H 0.21213 0.46199 0.98592 0.0
S486 S 0.26131 0.45659 0.06984 0.0
N487 N 0.26865 0.45742 0.03681 0.0
N488 N 0.24077 0.45721 0.06778 0.0
C489 C 0.23895 0.45796 0.03921 0.0
C490 C 0.25409 0.45807 0.02239 0.0
C491 C 0.7949 0.23555 0.37409 0.0
C492 C 0.77755 0.21977 0.36322 0.0
C493 C 0.80883 0.24999 0.35612 0.0
C494 C 0.80586 0.24932 0.3266 0.0
H495 H 0.79757 0.23695 0.39674 0.0
H496 H 0.82166 0.26216 0.36554 0.0
S497 S 0.76342 0.21058 0.28726 0.0
N498 N 0.75855 0.20404 0.32086 0.0
N499 N 0.78482 0.23095 0.28717 0.0
C500 C 0.7889 0.23328 0.31538 0.0
C501 C 0.77476 0.21856 0.33364 0.0
C502 C 0.55789 0.79782 0.69572 0.0
C503 C 0.56577 0.8019 0.66814 0.0
C504 C 0.55788 0.78308 0.71223 0.0
C505 C 0.56574 0.77175 0.70191 0.0
H506 H 0.55126 0.80583 0.70441 0.0
H507 H 0.55124 0.78022 0.73307 0.0
S508 S 0.58867 0.77686 0.6314 0.0
N509 N 0.58217 0.79374 0.63153 0.0
N510 N 0.58217 0.766 0.66263 0.0
C511 C 0.57438 0.77616 0.67482 0.0
C512 C 0.57439 0.79123 0.65794 0.0
C513 C 0.77627 0.56248 0.0245 0.0
C514 C 0.77864 0.56387 0.99484 0.0
C515 C 0.79048 0.56238 0.0423 0.0
C516 C 0.80772 0.56383 0.03121 0.0
H517 H 0.76299 0.5607 0.03398 0.0
H518 H 0.78778 0.56078 0.06494 0.0
S519 S 0.82159 0.56918 0.95514 0.0
N520 N 0.80011 0.56798 0.95531 0.0
N521 N 0.82663 0.56746 0.98865 0.0
C522 C 0.8106 0.56598 1.00167 0.0
C523 C 0.79611 0.56604 0.98354 0.0
C524 C 0.24094 0.76573 0.34805 0.0
C525 C 0.2289 0.76947 0.3302 0.0
C526 C 0.25569 0.78056 0.36447 0.0
C527 C 0.25909 0.79981 0.36379 0.0
H528 H 0.23908 0.7512 0.34909 0.0
H529 H 0.26468 0.77694 0.37763 0.0
S530 S 0.23161 0.81735 0.32078 0.0
N531 N 0.2212 0.79384 0.3131 0.0
N532 N 0.24901 0.82179 0.34402 0.0
C533 C 0.24684 0.8037 0.34665 0.0
C534 C 0.23174 0.78852 0.32986 0.0
C535 C 0.46347 0.2324 0.70738 0.0
C536 C 0.46433 0.24948 0.6968 0.0
C537 C 0.46364 0.21844 0.68909 0.0
C538 C 0.46485 0.22107 0.65948 0.0
H539 H 0.46306 0.22999 0.73005 0.0
H540 H 0.46362 0.20587 0.69829 0.0
S541 S 0.46617 0.2626 0.62083 0.0
N542 N 0.46563 0.26779 0.65464 0.0
N543 N 0.4656 0.24143 0.62034 0.0
C544 C 0.46496 0.2377 0.64857 0.0
C545 C 0.46474 0.2519 0.66718 0.0
C546 C 0.14578 0.58133 0.20869 0.0
C547 C 0.1472 0.59351 0.18598 0.0
C548 C 0.14552 0.56368 0.20396 0.0
C549 C 0.14673 0.55753 0.17635 0.0
H550 H 0.14383 0.58494 0.23016 0.0
H551 H 0.14367 0.55443 0.22201 0.0
S552 S 0.15287 0.58523 0.10995 0.0
N553 N 0.15177 0.59916 0.13517 0.0
N554 N 0.15079 0.56577 0.12617 0.0
C555 C 0.14931 0.57013 0.15362 0.0
C556 C 0.14961 0.58813 0.15846 0.0
C557 C 0.57568 0.14054 0.53864 0.0
C558 C 0.5655 0.14295 0.51597 0.0
C559 C 0.59289 0.1399 0.53402 0.0
C560 C 0.60065 0.14173 0.50656 0.0
H561 H 0.56977 0.13808 0.55994 0.0
H562 H 0.59981 0.13728 0.55199 0.0
S563 S 0.58075 0.15055 0.44044 0.0
N564 N 0.56546 0.14912 0.46546 0.0
N565 N 0.59753 0.14745 0.45665 0.0
C566 C 0.59125 0.14531 0.48394 0.0
C567 C 0.57373 0.14598 0.48866 0.0
C568 C 0.45901 0.58213 0.82209 0.0
C569 C 0.46932 0.5947 0.84474 0.0
C570 C 0.4417 0.5644 0.82677 0.0
C571 C 0.43396 0.55856 0.85425 0.0
H572 H 0.46488 0.58551 0.80077 0.0
H573 H 0.43465 0.55486 0.80881 0.0
S574 S 0.45425 0.58727 0.92033 0.0
N575 N 0.46958 0.601 0.89527 0.0
N576 N 0.43727 0.56747 0.90417 0.0
C577 C 0.44352 0.57152 0.87686 0.0
C578 C 0.46116 0.5896 0.87209 0.0
C579 C 0.88739 0.44043 0.20454 0.0
C580 C 0.88519 0.42784 0.18195 0.0
C581 C 0.88806 0.45826 0.19972 0.0
C582 C 0.88647 0.46417 0.17214 0.0
H583 H 0.88964 0.43698 0.22595 0.0
H584 H 0.8905 0.4678 0.21764 0.0
S585 S 0.87832 0.43547 0.10612 0.0
N586 N 0.87952 0.42163 0.13135 0.0
N587 N 0.88123 0.45534 0.12218 0.0
C588 C 0.88313 0.45121 0.14957 0.0
C589 C 0.88243 0.43303 0.1545 0.0
C590 C 0.45866 0.88271 0.541 0.0
C591 C 0.46864 0.87993 0.51839 0.0
C592 C 0.44149 0.88342 0.53636 0.0
C593 C 0.43358 0.88131 0.50895 0.0
H594 H 0.46468 0.88536 0.56226 0.0
H595 H 0.43471 0.8863 0.55427 0.0
S596 S 0.45299 0.87159 0.44302 0.0
N597 N 0.46837 0.8732 0.46802 0.0
N598 N 0.43637 0.875 0.45916 0.0
C599 C 0.44281 0.87742 0.4864 0.0
C600 C 0.46028 0.87667 0.49115 0.0
C601 C 0.5915 0.45641 0.82773 0.0
C602 C 0.5996 0.46231 0.85503 0.0
C603 C 0.5744 0.43844 0.82327 0.0
C604 C 0.56466 0.42568 0.84596 0.0
H605 H 0.59808 0.46607 0.80977 0.0
H606 H 0.56821 0.43502 0.80211 0.0
S607 S 0.58094 0.43321 0.92105 0.0
N608 N 0.5973 0.45328 0.90477 0.0
N609 N 0.56541 0.41931 0.89625 0.0
C610 C 0.57323 0.43086 0.87307 0.0
C611 C 0.59066 0.44919 0.87763 0.0
C612 C 0.02571 0.38601 0.17675 0.0
C613 C 0.0353 0.37551 0.17035 0.0
C614 C 1.00654 0.37662 0.18728 0.0
C615 C 0.99612 0.3563 0.19197 0.0
H616 H 0.033 0.40165 0.17327 0.0
H617 H 0.99988 0.3854 0.19199 0.0
S618 S 1.01456 0.32205 0.17886 0.0
N619 N 0.03299 0.34366 0.16996 0.0
N620 N 0.99679 0.32593 0.18911 0.0
C621 C 1.00552 0.3456 0.18574 0.0
C622 C 0.02509 0.35519 0.17501 0.0
C623 C 0.65842 0.02488 0.5267 0.0
C624 C 0.67082 0.02947 0.50302 0.0
C625 C 0.64882 1.00602 0.53831 0.0
C626 C 0.65131 0.99097 0.52684 0.0
H627 H 0.65606 0.03597 0.53637 0.0
H628 H 0.63935 1.00318 0.55644 0.0
S629 S 0.68159 0.99502 0.4643 0.0
N630 N 0.68467 0.01716 0.46809 0.0
N631 N 0.66679 0.98177 0.49017 0.0
C632 C 0.66381 0.99535 0.50338 0.0
C633 C 0.67353 0.01457 0.49143 0.0
C634 C 0.65487 0.66465 0.86214 0.0
C635 C 0.65231 0.66576 0.83278 0.0
C636 C 0.66451 0.65513 0.8728 0.0
C637 C 0.67174 0.64613 0.85452 0.0
H638 H 0.64931 0.67115 0.87702 0.0
H639 H 0.6659 0.65441 0.89557 0.0
S640 S 0.66912 0.64514 0.7759 0.0
N641 N 0.658 0.65721 0.78559 0.0
N642 N 0.67619 0.63943 0.80559 0.0
C643 C 0.66949 0.64734 0.82511 0.0
C644 C 0.65981 0.65715 0.81425 0.0
C645 C 1.00237 0.63899 0.1941 0.0
C646 C 0.99782 0.64663 0.17018 0.0
C647 C 0.02126 0.64829 0.20572 0.0
C648 C 0.03638 0.66568 0.19401 0.0
H649 H 0.99124 0.62565 0.20394 0.0
H650 H 0.02406 0.64178 0.22404 0.0
S651 S 0.03243 0.69141 0.13079 0.0
N652 N 1.01023 0.67246 0.13479 0.0
N653 N 0.04566 0.69002 0.15685 0.0
C654 C 0.03203 0.67363 0.1703 0.0
C655 C 1.01279 0.6641 0.15836 0.0
C656 C 0.37269 0.01558 0.53925 0.0
C657 C 0.38202 0.03178 0.52099 0.0
C658 C 0.36299 0.9964 0.52859 0.0
C659 C 0.36202 0.99269 0.49924 0.0
H660 H 0.3733 0.01773 0.56201 0.0
H661 H 0.35624 0.98437 0.54345 0.0
S662 S 0.38348 0.03002 0.44241 0.0
N663 N 0.38916 0.04284 0.47208 0.0
N664 N 0.37106 1.00686 0.45209 0.0
C665 C 0.37095 1.00877 0.48073 0.0
C666 C 0.38094 0.02827 0.49159 0.0
C667 C 0.36411 0.34858 0.84344 0.0
C668 C 0.3842 0.35903 0.83697 0.0
C669 C 0.35439 0.35812 0.85379 0.0
C670 C 0.36433 0.37852 0.8578 0.0
H671 H 0.35587 0.33286 0.84078 0.0
H672 H 0.33891 0.34949 0.85839 0.0
S673 S 0.41699 0.41263 0.8439 0.0
N674 N 0.41361 0.39097 0.83489 0.0
N675 N 0.39552 0.40878 0.85494 0.0
C676 C 0.38442 0.38912 0.85142 0.0
C677 C 0.3943 0.37942 0.8409 0.0
loop_
_geom_bond_atom_site_label_1
_geom_bond_atom_site_label_2
_geom_bond_distance
_geom_bond_site_symmetry_2
_ccdc_geom_bond_type
C0 C1 1.264 . S
C0 C5 1.479 . S
C0 C10 1.465 . S
C1 C0 1.264 . S
C1 C3 1.339 . S
C1 H28 0.931 . S
C2 C3 1.395 . S
C2 C4 1.320 . S
C3 C1 1.339 . S
C3 C2 1.395 . S
C3 H29 0.929 . S
C4 C2 1.320 . S
C4 C5 1.405 . S
C4 H30 0.930 . S
C5 C0 1.479 . S
C5 C4 1.405 . S
C5 H31 0.931 . S
U6 O7 2.454 . S
U6 O8 2.458 . S
U6 C9 2.984 . S
U6 C10 2.847 . S
U6 C23 2.882 . S
U6 O24 2.441 . S
U6 O25 2.420 . S
U6 O26 2.455 . S
U6 O27 2.449 . S
O7 U6 2.454 . S
O7 C9 1.353 . S
O8 U6 2.458 . S
O8 C9 1.286 . S
C9 U6 2.984 . S
C9 O7 1.353 . S
C9 O8 1.286 . S
C9 C11 1.363 . S
C10 C0 1.465 . S
C10 U6 2.847 . S
C10 O24 1.249 . S
C10 O25 1.202 . S
C11 C9 1.363 . S
C11 C13 1.408 . S
C11 C16 1.342 . S
C12 C13 1.310 . S
C12 C15 1.461 . S
C12 H32 0.932 . S
C13 C11 1.408 . S
C13 C12 1.310 . S
C13 H33 0.930 . S
C14 C15 1.474 . S
C14 C16 1.285 . S
C14 H34 0.929 . S
C15 C12 1.461 . S
C15 C14 1.474 . S
C16 C11 1.342 . S
C16 C14 1.285 . S
C16 H35 0.930 . S
C17 C20 1.424 . S
C17 C22 1.245 . S
C17 C23 1.428 . S
C18 C21 1.260 . S
C18 C22 1.477 . S
C18 H36 0.932 . S
C19 C20 1.384 . S
C19 C21 1.479 . S
C19 H37 0.929 . S
C20 C17 1.424 . S
C20 C19 1.384 . S
C20 H38 0.928 . S
C21 C18 1.260 . S
C21 C19 1.479 . S
C22 C17 1.245 . S
C22 C18 1.477 . S
C22 H39 0.932 . S
C23 U6 2.882 . S
C23 C17 1.428 . S
C23 O26 1.301 . S
C23 O27 1.282 . S
O24 U6 2.441 . S
O24 C10 1.249 . S
O25 U6 2.420 . S
O25 C10 1.202 . S
O26 U6 2.455 . S
O26 C23 1.301 . S
O27 U6 2.449 . S
O27 C23 1.282 . S
H28 C1 0.931 . S
H29 C3 0.929 . S
H30 C4 0.930 . S
H31 C5 0.931 . S
H32 C12 0.932 . S
H33 C13 0.930 . S
H34 C14 0.929 . S
H35 C16 0.930 . S
H36 C18 0.932 . S
H37 C19 0.929 . S
H38 C20 0.928 . S
H39 C22 0.932 . S
C40 C41 1.264 . S
C40 C45 1.479 . S
C40 C50 1.465 . S
C41 C40 1.264 . S
C41 C43 1.339 . S
C41 H68 0.931 . S
C42 C43 1.395 . S
C42 C44 1.320 . S
C43 C41 1.339 . S
C43 C42 1.395 . S
C43 H69 0.929 . S
C44 C42 1.320 . S
C44 C45 1.405 . S
C44 H70 0.930 . S
C45 C40 1.479 . S
C45 C44 1.405 . S
C45 H71 0.931 . S
U46 O47 2.454 . S
U46 O48 2.458 . S
U46 C49 2.984 . S
U46 C50 2.847 . S
U46 C63 2.882 . S
U46 O64 2.441 . S
U46 O65 2.420 . S
U46 O66 2.455 . S
U46 O67 2.449 . S
O47 U46 2.454 . S
O47 C49 1.353 . S
O48 U46 2.458 . S
O48 C49 1.286 . S
C49 U46 2.984 . S
C49 O47 1.353 . S
C49 O48 1.286 . S
C49 C51 1.363 . S
C50 C40 1.465 . S
C50 U46 2.847 . S
C50 O64 1.249 . S
C50 O65 1.202 . S
C51 C49 1.363 . S
C51 C53 1.408 . S
C51 C56 1.342 . S
C52 C53 1.310 . S
C52 C55 1.461 . S
C52 H72 0.932 . S
C53 C51 1.408 . S
C53 C52 1.310 . S
C53 H73 0.930 . S
C54 C55 1.474 . S
C54 C56 1.285 . S
C54 H74 0.929 . S
C55 C52 1.461 . S
C55 C54 1.474 . S
C56 C51 1.342 . S
C56 C54 1.285 . S
C56 H75 0.930 . S
C57 C60 1.424 . S
C57 C62 1.245 . S
C57 C63 1.428 . S
C58 C61 1.260 . S
C58 C62 1.477 . S
C58 H76 0.932 . S
C59 C60 1.384 . S
C59 C61 1.479 . S
C59 H77 0.929 . S
C60 C57 1.424 . S
C60 C59 1.384 . S
C60 H78 0.928 . S
C61 C58 1.260 . S
C61 C59 1.479 . S
C62 C57 1.245 . S
C62 C58 1.477 . S
C62 H79 0.932 . S
C63 U46 2.882 . S
C63 C57 1.428 . S
C63 O66 1.301 . S
C63 O67 1.282 . S
O64 U46 2.441 . S
O64 C50 1.249 . S
O65 U46 2.420 . S
O65 C50 1.202 . S
O66 U46 2.455 . S
O66 C63 1.301 . S
O67 U46 2.449 . S
O67 C63 1.282 . S
H68 C41 0.931 . S
H69 C43 0.929 . S
H70 C44 0.930 . S
H71 C45 0.931 . S
H72 C52 0.932 . S
H73 C53 0.930 . S
H74 C54 0.929 . S
H75 C56 0.930 . S
H76 C58 0.932 . S
H77 C59 0.929 . S
H78 C60 0.928 . S
H79 C62 0.932 . S
C80 C81 1.264 . S
C80 C85 1.479 . S
C80 C90 1.465 . S
C81 C80 1.264 . S
C81 C83 1.339 . S
C81 H108 0.931 . S
C82 C83 1.395 . S
C82 C84 1.320 . S
C83 C81 1.339 . S
C83 C82 1.395 . S
C83 H109 0.929 . S
C84 C82 1.320 . S
C84 C85 1.405 . S
C84 H110 0.930 . S
C85 C80 1.479 . S
C85 C84 1.405 . S
C85 H111 0.931 . S
U86 O87 2.454 . S
U86 O88 2.458 . S
U86 C89 2.984 . S
U86 C90 2.847 . S
U86 C103 2.882 . S
U86 O104 2.441 . S
U86 O105 2.420 . S
U86 O106 2.455 . S
U86 O107 2.449 . S
O87 U86 2.454 . S
O87 C89 1.353 . S
O88 U86 2.458 . S
O88 C89 1.286 . S
C89 U86 2.984 . S
C89 O87 1.353 . S
C89 O88 1.286 . S
C89 C91 1.363 . S
C90 C80 1.465 . S
C90 U86 2.847 . S
C90 O104 1.249 . S
C90 O105 1.202 . S
C91 C89 1.363 . S
C91 C93 1.408 . S
C91 C96 1.342 . S
C92 C93 1.310 . S
C92 C95 1.461 . S
C92 H112 0.932 . S
C93 C91 1.408 . S
C93 C92 1.310 . S
C93 H113 0.930 . S
C94 C95 1.474 . S
C94 C96 1.285 . S
C94 H114 0.929 . S
C95 C92 1.461 . S
C95 C94 1.474 . S
C96 C91 1.342 . S
C96 C94 1.285 . S
C96 H115 0.930 . S
C97 C100 1.424 . S
C97 C102 1.245 . S
C97 C103 1.428 . S
C98 C101 1.260 . S
C98 C102 1.477 . S
C98 H116 0.932 . S
C99 C100 1.384 . S
C99 C101 1.479 . S
C99 H117 0.929 . S
C100 C97 1.424 . S
C100 C99 1.384 . S
C100 H118 0.928 . S
C101 C98 1.260 . S
C101 C99 1.479 . S
C102 C97 1.245 . S
C102 C98 1.477 . S
C102 H119 0.932 . S
C103 U86 2.882 . S
C103 C97 1.428 . S
C103 O106 1.301 . S
C103 O107 1.282 . S
O104 U86 2.441 . S
O104 C90 1.249 . S
O105 U86 2.420 . S
O105 C90 1.202 . S
O106 U86 2.455 . S
O106 C103 1.301 . S
O107 U86 2.449 . S
O107 C103 1.282 . S
H108 C81 0.931 . S
H109 C83 0.929 . S
H110 C84 0.930 . S
H111 C85 0.931 . S
H112 C92 0.932 . S
H113 C93 0.930 . S
H114 C94 0.929 . S
H115 C96 0.930 . S
H116 C98 0.932 . S
H117 C99 0.929 . S
H118 C100 0.928 . S
H119 C102 0.932 . S
C120 C121 1.264 . S
C120 C125 1.479 . S
C120 C130 1.465 . S
C121 C120 1.264 . S
C121 C123 1.339 . S
C121 H148 0.931 . S
C122 C123 1.395 . S
C122 C124 1.320 . S
C123 C121 1.339 . S
C123 C122 1.395 . S
C123 H149 0.929 . S
C124 C122 1.320 . S
C124 C125 1.405 . S
C124 H150 0.930 . S
C125 C120 1.479 . S
C125 C124 1.405 . S
C125 H151 0.931 . S
U126 O127 2.454 . S
U126 O128 2.458 . S
U126 C129 2.984 . S
U126 C130 2.847 . S
U126 C143 2.882 . S
U126 O144 2.441 . S
U126 O145 2.420 . S
U126 O146 2.455 . S
U126 O147 2.449 . S
O127 U126 2.454 . S
O127 C129 1.353 . S
O128 U126 2.458 . S
O128 C129 1.286 . S
C129 U126 2.984 . S
C129 O127 1.353 . S
C129 O128 1.286 . S
C129 C131 1.363 . S
C130 C120 1.465 . S
C130 U126 2.847 . S
C130 O144 1.249 . S
C130 O145 1.202 . S
C131 C129 1.363 . S
C131 C133 1.408 . S
C131 C136 1.342 . S
C132 C133 1.310 . S
C132 C135 1.461 . S
C132 H152 0.932 . S
C133 C131 1.408 . S
C133 C132 1.310 . S
C133 H153 0.930 . S
C134 C135 1.474 . S
C134 C136 1.285 . S
C134 H154 0.929 . S
C135 C132 1.461 . S
C135 C134 1.474 . S
C136 C131 1.342 . S
C136 C134 1.285 . S
C136 H155 0.930 . S
C137 C140 1.424 . S
C137 C142 1.245 . S
C137 C143 1.428 . S
C138 C141 1.260 . S
C138 C142 1.477 . S
C138 H156 0.932 . S
C139 C140 1.384 . S
C139 C141 1.479 . S
C139 H157 0.929 . S
C140 C137 1.424 . S
C140 C139 1.384 . S
C140 H158 0.928 . S
C141 C138 1.260 . S
C141 C139 1.479 . S
C142 C137 1.245 . S
C142 C138 1.477 . S
C142 H159 0.932 . S
C143 U126 2.882 . S
C143 C137 1.428 . S
C143 O146 1.301 . S
C143 O147 1.282 . S
O144 U126 2.441 . S
O144 C130 1.249 . S
O145 U126 2.420 . S
O145 C130 1.202 . S
O146 U126 2.455 . S
O146 C143 1.301 . S
O147 U126 2.449 . S
O147 C143 1.282 . S
H148 C121 0.931 . S
H149 C123 0.929 . S
H150 C124 0.930 . S
H151 C125 0.931 . S
H152 C132 0.932 . S
H153 C133 0.930 . S
H154 C134 0.929 . S
H155 C136 0.930 . S
H156 C138 0.932 . S
H157 C139 0.929 . S
H158 C140 0.928 . S
H159 C142 0.932 . S
C160 C161 1.264 . S
C160 C165 1.479 . S
C160 C170 1.465 . S
C161 C160 1.264 . S
C161 C163 1.339 . S
C161 H188 0.931 . S
C162 C163 1.395 . S
C162 C164 1.320 . S
C163 C161 1.339 . S
C163 C162 1.395 . S
C163 H189 0.929 . S
C164 C162 1.320 . S
C164 C165 1.405 . S
C164 H190 0.930 . S
C165 C160 1.479 . S
C165 C164 1.405 . S
C165 H191 0.931 . S
U166 O167 2.454 . S
U166 O168 2.458 . S
U166 C169 2.984 . S
U166 C170 2.847 . S
U166 C183 2.882 . S
U166 O184 2.441 . S
U166 O185 2.420 . S
U166 O186 2.455 . S
U166 O187 2.449 . S
O167 U166 2.454 . S
O167 C169 1.353 . S
O168 U166 2.458 . S
O168 C169 1.286 . S
C169 U166 2.984 . S
C169 O167 1.353 . S
C169 O168 1.286 . S
C169 C171 1.363 . S
C170 C160 1.465 . S
C170 U166 2.847 . S
C170 O184 1.249 . S
C170 O185 1.202 . S
C171 C169 1.363 . S
C171 C173 1.408 . S
C171 C176 1.342 . S
C172 C173 1.310 . S
C172 C175 1.461 . S
C172 H192 0.932 . S
C173 C171 1.408 . S
C173 C172 1.310 . S
C173 H193 0.930 . S
C174 C175 1.474 . S
C174 C176 1.285 . S
C174 H194 0.929 . S
C175 C172 1.461 . S
C175 C174 1.474 . S
C176 C171 1.342 . S
C176 C174 1.285 . S
C176 H195 0.930 . S
C177 C180 1.424 . S
C177 C182 1.245 . S
C177 C183 1.428 . S
C178 C181 1.260 . S
C178 C182 1.477 . S
C178 H196 0.932 . S
C179 C180 1.384 . S
C179 C181 1.479 . S
C179 H197 0.929 . S
C180 C177 1.424 . S
C180 C179 1.384 . S
C180 H198 0.928 . S
C181 C178 1.260 . S
C181 C179 1.479 . S
C182 C177 1.245 . S
C182 C178 1.477 . S
C182 H199 0.932 . S
C183 U166 2.882 . S
C183 C177 1.428 . S
C183 O186 1.301 . S
C183 O187 1.282 . S
O184 U166 2.441 . S
O184 C170 1.249 . S
O185 U166 2.420 . S
O185 C170 1.202 . S
O186 U166 2.455 . S
O186 C183 1.301 . S
O187 U166 2.449 . S
O187 C183 1.282 . S
H188 C161 0.931 . S
H189 C163 0.929 . S
H190 C164 0.930 . S
H191 C165 0.931 . S
H192 C172 0.932 . S
H193 C173 0.930 . S
H194 C174 0.929 . S
H195 C176 0.930 . S
H196 C178 0.932 . S
H197 C179 0.929 . S
H198 C180 0.928 . S
H199 C182 0.932 . S
C200 C201 1.264 . S
C200 C205 1.479 . S
C200 C210 1.465 . S
C201 C200 1.264 . S
C201 C203 1.339 . S
C201 H228 0.931 . S
C202 C203 1.395 . S
C202 C204 1.320 . S
C203 C201 1.339 . S
C203 C202 1.395 . S
C203 H229 0.929 . S
C204 C202 1.320 . S
C204 C205 1.405 . S
C204 H230 0.930 . S
C205 C200 1.479 . S
C205 C204 1.405 . S
C205 H231 0.931 . S
U206 O207 2.454 . S
U206 O208 2.458 . S
U206 C209 2.984 . S
U206 C210 2.847 . S
U206 C223 2.882 . S
U206 O224 2.441 . S
U206 O225 2.420 . S
U206 O226 2.455 . S
U206 O227 2.449 . S
O207 U206 2.454 . S
O207 C209 1.353 . S
O208 U206 2.458 . S
O208 C209 1.286 . S
C209 U206 2.984 . S
C209 O207 1.353 . S
C209 O208 1.286 . S
C209 C211 1.363 . S
C210 C200 1.465 . S
C210 U206 2.847 . S
C210 O224 1.249 . S
C210 O225 1.202 . S
C211 C209 1.363 . S
C211 C213 1.408 . S
C211 C216 1.342 . S
C212 C213 1.310 . S
C212 C215 1.461 . S
C212 H232 0.932 . S
C213 C211 1.408 . S
C213 C212 1.310 . S
C213 H233 0.930 . S
C214 C215 1.474 . S
C214 C216 1.285 . S
C214 H234 0.929 . S
C215 C212 1.461 . S
C215 C214 1.474 . S
C216 C211 1.342 . S
C216 C214 1.285 . S
C216 H235 0.930 . S
C217 C220 1.424 . S
C217 C222 1.245 . S
C217 C223 1.428 . S
C218 C221 1.260 . S
C218 C222 1.477 . S
C218 H236 0.932 . S
C219 C220 1.384 . S
C219 C221 1.479 . S
C219 H237 0.929 . S
C220 C217 1.424 . S
C220 C219 1.384 . S
C220 H238 0.928 . S
C221 C218 1.260 . S
C221 C219 1.479 . S
C222 C217 1.245 . S
C222 C218 1.477 . S
C222 H239 0.932 . S
C223 U206 2.882 . S
C223 C217 1.428 . S
C223 O226 1.301 . S
C223 O227 1.282 . S
O224 U206 2.441 . S
O224 C210 1.249 . S
O225 U206 2.420 . S
O225 C210 1.202 . S
O226 U206 2.455 . S
O226 C223 1.301 . S
O227 U206 2.449 . S
O227 C223 1.282 . S
H228 C201 0.931 . S
H229 C203 0.929 . S
H230 C204 0.930 . S
H231 C205 0.931 . S
H232 C212 0.932 . S
H233 C213 0.930 . S
H234 C214 0.929 . S
H235 C216 0.930 . S
H236 C218 0.932 . S
H237 C219 0.929 . S
H238 C220 0.928 . S
H239 C222 0.932 . S
C240 C241 1.264 . S
C240 C245 1.479 . S
C240 C250 1.465 . S
C241 C240 1.264 . S
C241 C243 1.339 . S
C241 H268 0.931 . S
C242 C243 1.395 . S
C242 C244 1.320 . S
C243 C241 1.339 . S
C243 C242 1.395 . S
C243 H269 0.929 . S
C244 C242 1.320 . S
C244 C245 1.405 . S
C244 H270 0.930 . S
C245 C240 1.479 . S
C245 C244 1.405 . S
C245 H271 0.931 . S
U246 O247 2.454 . S
U246 O248 2.458 . S
U246 C249 2.984 . S
U246 C250 2.847 . S
U246 C263 2.882 . S
U246 O264 2.441 . S
U246 O265 2.420 . S
U246 O266 2.455 . S
U246 O267 2.449 . S
O247 U246 2.454 . S
O247 C249 1.353 . S
O248 U246 2.458 . S
O248 C249 1.286 . S
C249 U246 2.984 . S
C249 O247 1.353 . S
C249 O248 1.286 . S
C249 C251 1.363 . S
C250 C240 1.465 . S
C250 U246 2.847 . S
C250 O264 1.249 . S
C250 O265 1.202 . S
C251 C249 1.363 . S
C251 C253 1.408 . S
C251 C256 1.342 . S
C252 C253 1.310 . S
C252 C255 1.461 . S
C252 H272 0.932 . S
C253 C251 1.408 . S
C253 C252 1.310 . S
C253 H273 0.930 . S
C254 C255 1.474 . S
C254 C256 1.285 . S
C254 H274 0.929 . S
C255 C252 1.461 . S
C255 C254 1.474 . S
C256 C251 1.342 . S
C256 C254 1.285 . S
C256 H275 0.930 . S
C257 C260 1.424 . S
C257 C262 1.245 . S
C257 C263 1.428 . S
C258 C261 1.260 . S
C258 C262 1.477 . S
C258 H276 0.932 . S
C259 C260 1.384 . S
C259 C261 1.479 . S
C259 H277 0.929 . S
C260 C257 1.424 . S
C260 C259 1.384 . S
C260 H278 0.928 . S
C261 C258 1.260 . S
C261 C259 1.479 . S
C262 C257 1.245 . S
C262 C258 1.477 . S
C262 H279 0.932 . S
C263 U246 2.882 . S
C263 C257 1.428 . S
C263 O266 1.301 . S
C263 O267 1.282 . S
O264 U246 2.441 . S
O264 C250 1.249 . S
O265 U246 2.420 . S
O265 C250 1.202 . S
O266 U246 2.455 . S
O266 C263 1.301 . S
O267 U246 2.449 . S
O267 C263 1.282 . S
H268 C241 0.931 . S
H269 C243 0.929 . S
H270 C244 0.930 . S
H271 C245 0.931 . S
H272 C252 0.932 . S
H273 C253 0.930 . S
H274 C254 0.929 . S
H275 C256 0.930 . S
H276 C258 0.932 . S
H277 C259 0.929 . S
H278 C260 0.928 . S
H279 C262 0.932 . S
C280 C281 1.264 . S
C280 C285 1.479 . S
C280 C290 1.465 . S
C281 C280 1.264 . S
C281 C283 1.339 . S
C281 H308 0.931 . S
C282 C283 1.395 . S
C282 C284 1.320 . S
C283 C281 1.339 . S
C283 C282 1.395 . S
C283 H309 0.929 . S
C284 C282 1.320 . S
C284 C285 1.405 . S
C284 H310 0.930 . S
C285 C280 1.479 . S
C285 C284 1.405 . S
C285 H311 0.931 . S
U286 O287 2.454 . S
U286 O288 2.458 . S
U286 C289 2.984 . S
U286 C290 2.847 . S
U286 C303 2.882 . S
U286 O304 2.441 . S
U286 O305 2.420 . S
U286 O306 2.455 . S
U286 O307 2.449 . S
O287 U286 2.454 . S
O287 C289 1.353 . S
O288 U286 2.458 . S
O288 C289 1.286 . S
C289 U286 2.984 . S
C289 O287 1.353 . S
C289 O288 1.286 . S
C289 C291 1.363 . S
C290 C280 1.465 . S
C290 U286 2.847 . S
C290 O304 1.249 . S
C290 O305 1.202 . S
C291 C289 1.363 . S
C291 C293 1.408 . S
C291 C296 1.342 . S
C292 C293 1.310 . S
C292 C295 1.461 . S
C292 H312 0.932 . S
C293 C291 1.408 . S
C293 C292 1.310 . S
C293 H313 0.930 . S
C294 C295 1.474 . S
C294 C296 1.285 . S
C294 H314 0.929 . S
C295 C292 1.461 . S
C295 C294 1.474 . S
C296 C291 1.342 . S
C296 C294 1.285 . S
C296 H315 0.930 . S
C297 C300 1.424 . S
C297 C302 1.245 . S
C297 C303 1.428 . S
C298 C301 1.260 . S
C298 C302 1.477 . S
C298 H316 0.932 . S
C299 C300 1.384 . S
C299 C301 1.479 . S
C299 H317 0.929 . S
C300 C297 1.424 . S
C300 C299 1.384 . S
C300 H318 0.928 . S
C301 C298 1.260 . S
C301 C299 1.479 . S
C302 C297 1.245 . S
C302 C298 1.477 . S
C302 H319 0.932 . S
C303 U286 2.882 . S
C303 C297 1.428 . S
C303 O306 1.301 . S
C303 O307 1.282 . S
O304 U286 2.441 . S
O304 C290 1.249 . S
O305 U286 2.420 . S
O305 C290 1.202 . S
O306 U286 2.455 . S
O306 C303 1.301 . S
O307 U286 2.449 . S
O307 C303 1.282 . S
H308 C281 0.931 . S
H309 C283 0.929 . S
H310 C284 0.930 . S
H311 C285 0.931 . S
H312 C292 0.932 . S
H313 C293 0.930 . S
H314 C294 0.929 . S
H315 C296 0.930 . S
H316 C298 0.932 . S
H317 C299 0.929 . S
H318 C300 0.928 . S
H319 C302 0.932 . S
C320 C321 1.264 . S
C320 C325 1.479 . S
C320 C330 1.465 . S
C321 C320 1.264 . S
C321 C323 1.339 . S
C321 H348 0.931 . S
C322 C323 1.395 . S
C322 C324 1.320 . S
C323 C321 1.339 . S
C323 C322 1.395 . S
C323 H349 0.929 . S
C324 C322 1.320 . S
C324 C325 1.405 . S
C324 H350 0.930 . S
C325 C320 1.479 . S
C325 C324 1.405 . S
C325 H351 0.931 . S
U326 O327 2.454 . S
U326 O328 2.458 . S
U326 C329 2.984 . S
U326 C330 2.847 . S
U326 C343 2.882 . S
U326 O344 2.441 . S
U326 O345 2.420 . S
U326 O346 2.455 . S
U326 O347 2.449 . S
O327 U326 2.454 . S
O327 C329 1.353 . S
O328 U326 2.458 . S
O328 C329 1.286 . S
C329 U326 2.984 . S
C329 O327 1.353 . S
C329 O328 1.286 . S
C329 C331 1.363 . S
C330 C320 1.465 . S
C330 U326 2.847 . S
C330 O344 1.249 . S
C330 O345 1.202 . S
C331 C329 1.363 . S
C331 C333 1.408 . S
C331 C336 1.342 . S
C332 C333 1.310 . S
C332 C335 1.461 . S
C332 H352 0.932 . S
C333 C331 1.408 . S
C333 C332 1.310 . S
C333 H353 0.930 . S
C334 C335 1.474 . S
C334 C336 1.285 . S
C334 H354 0.929 . S
C335 C332 1.461 . S
C335 C334 1.474 . S
C336 C331 1.342 . S
C336 C334 1.285 . S
C336 H355 0.930 . S
C337 C340 1.424 . S
C337 C342 1.245 . S
C337 C343 1.428 . S
C338 C341 1.260 . S
C338 C342 1.477 . S
C338 H356 0.932 . S
C339 C340 1.384 . S
C339 C341 1.479 . S
C339 H357 0.929 . S
C340 C337 1.424 . S
C340 C339 1.384 . S
C340 H358 0.928 . S
C341 C338 1.260 . S
C341 C339 1.479 . S
C342 C337 1.245 . S
C342 C338 1.477 . S
C342 H359 0.932 . S
C343 U326 2.882 . S
C343 C337 1.428 . S
C343 O346 1.301 . S
C343 O347 1.282 . S
O344 U326 2.441 . S
O344 C330 1.249 . S
O345 U326 2.420 . S
O345 C330 1.202 . S
O346 U326 2.455 . S
O346 C343 1.301 . S
O347 U326 2.449 . S
O347 C343 1.282 . S
H348 C321 0.931 . S
H349 C323 0.929 . S
H350 C324 0.930 . S
H351 C325 0.931 . S
H352 C332 0.932 . S
H353 C333 0.930 . S
H354 C334 0.929 . S
H355 C336 0.930 . S
H356 C338 0.932 . S
H357 C339 0.929 . S
H358 C340 0.928 . S
H359 C342 0.932 . S
C360 C361 1.264 . S
C360 C365 1.479 . S
C360 C370 1.465 . S
C361 C360 1.264 . S
C361 C363 1.339 . S
C361 H388 0.931 . S
C362 C363 1.395 . S
C362 C364 1.320 . S
C363 C361 1.339 . S
C363 C362 1.395 . S
C363 H389 0.929 . S
C364 C362 1.320 . S
C364 C365 1.405 . S
C364 H390 0.930 . S
C365 C360 1.479 . S
C365 C364 1.405 . S
C365 H391 0.931 . S
U366 O367 2.454 . S
U366 O368 2.458 . S
U366 C369 2.984 . S
U366 C370 2.847 . S
U366 C383 2.882 . S
U366 O384 2.441 . S
U366 O385 2.420 . S
U366 O386 2.455 . S
U366 O387 2.449 . S
O367 U366 2.454 . S
O367 C369 1.353 . S
O368 U366 2.458 . S
O368 C369 1.286 . S
C369 U366 2.984 . S
C369 O367 1.353 . S
C369 O368 1.286 . S
C369 C371 1.363 . S
C370 C360 1.465 . S
C370 U366 2.847 . S
C370 O384 1.249 . S
C370 O385 1.202 . S
C371 C369 1.363 . S
C371 C373 1.408 . S
C371 C376 1.342 . S
C372 C373 1.310 . S
C372 C375 1.461 . S
C372 H392 0.932 . S
C373 C371 1.408 . S
C373 C372 1.310 . S
C373 H393 0.930 . S
C374 C375 1.474 . S
C374 C376 1.285 . S
C374 H394 0.929 . S
C375 C372 1.461 . S
C375 C374 1.474 . S
C376 C371 1.342 . S
C376 C374 1.285 . S
C376 H395 0.930 . S
C377 C380 1.424 . S
C377 C382 1.245 . S
C377 C383 1.428 . S
C378 C381 1.260 . S
C378 C382 1.477 . S
C378 H396 0.932 . S
C379 C380 1.384 . S
C379 C381 1.479 . S
C379 H397 0.929 . S
C380 C377 1.424 . S
C380 C379 1.384 . S
C380 H398 0.928 . S
C381 C378 1.260 . S
C381 C379 1.479 . S
C382 C377 1.245 . S
C382 C378 1.477 . S
C382 H399 0.932 . S
C383 U366 2.882 . S
C383 C377 1.428 . S
C383 O386 1.301 . S
C383 O387 1.282 . S
O384 U366 2.441 . S
O384 C370 1.249 . S
O385 U366 2.420 . S
O385 C370 1.202 . S
O386 U366 2.455 . S
O386 C383 1.301 . S
O387 U366 2.449 . S
O387 C383 1.282 . S
H388 C361 0.931 . S
H389 C363 0.929 . S
H390 C364 0.930 . S
H391 C365 0.931 . S
H392 C372 0.932 . S
H393 C373 0.930 . S
H394 C374 0.929 . S
H395 C376 0.930 . S
H396 C378 0.932 . S
H397 C379 0.929 . S
H398 C380 0.928 . S
H399 C382 0.932 . S
C400 C401 1.264 . S
C400 C405 1.479 . S
C400 C410 1.465 . S
C401 C400 1.264 . S
C401 C403 1.339 . S
C401 H428 0.931 . S
C402 C403 1.395 . S
C402 C404 1.320 . S
C403 C401 1.339 . S
C403 C402 1.395 . S
C403 H429 0.929 . S
C404 C402 1.320 . S
C404 C405 1.405 . S
C404 H430 0.930 . S
C405 C400 1.479 . S
C405 C404 1.405 . S
C405 H431 0.931 . S
U406 O407 2.454 . S
U406 O408 2.458 . S
U406 C409 2.984 . S
U406 C410 2.847 . S
U406 C423 2.882 . S
U406 O424 2.441 . S
U406 O425 2.420 . S
U406 O426 2.455 . S
U406 O427 2.449 . S
O407 U406 2.454 . S
O407 C409 1.353 . S
O408 U406 2.458 . S
O408 C409 1.286 . S
C409 U406 2.984 . S
C409 O407 1.353 . S
C409 O408 1.286 . S
C409 C411 1.363 . S
C410 C400 1.465 . S
C410 U406 2.847 . S
C410 O424 1.249 . S
C410 O425 1.202 . S
C411 C409 1.363 . S
C411 C413 1.408 . S
C411 C416 1.342 . S
C412 C413 1.310 . S
C412 C415 1.461 . S
C412 H432 0.932 . S
C413 C411 1.408 . S
C413 C412 1.310 . S
C413 H433 0.930 . S
C414 C415 1.474 . S
C414 C416 1.285 . S
C414 H434 0.929 . S
C415 C412 1.461 . S
C415 C414 1.474 . S
C416 C411 1.342 . S
C416 C414 1.285 . S
C416 H435 0.930 . S
C417 C420 1.424 . S
C417 C422 1.245 . S
C417 C423 1.428 . S
C418 C421 1.260 . S
C418 C422 1.477 . S
C418 H436 0.932 . S
C419 C420 1.384 . S
C419 C421 1.479 . S
C419 H437 0.929 . S
C420 C417 1.424 . S
C420 C419 1.384 . S
C420 H438 0.928 . S
C421 C418 1.260 . S
C421 C419 1.479 . S
C422 C417 1.245 . S
C422 C418 1.477 . S
C422 H439 0.932 . S
C423 U406 2.882 . S
C423 C417 1.428 . S
C423 O426 1.301 . S
C423 O427 1.282 . S
O424 U406 2.441 . S
O424 C410 1.249 . S
O425 U406 2.420 . S
O425 C410 1.202 . S
O426 U406 2.455 . S
O426 C423 1.301 . S
O427 U406 2.449 . S
O427 C423 1.282 . S
H428 C401 0.931 . S
H429 C403 0.929 . S
H430 C404 0.930 . S
H431 C405 0.931 . S
H432 C412 0.932 . S
H433 C413 0.930 . S
H434 C414 0.929 . S
H435 C416 0.930 . S
H436 C418 0.932 . S
H437 C419 0.929 . S
H438 C420 0.928 . S
H439 C422 0.932 . S
C440 C441 1.264 . S
C440 C445 1.479 . S
C440 C450 1.465 . S
C441 C440 1.264 . S
C441 C443 1.339 . S
C441 H468 0.931 . S
C442 C443 1.395 . S
C442 C444 1.320 . S
C443 C441 1.339 . S
C443 C442 1.395 . S
C443 H469 0.929 . S
C444 C442 1.320 . S
C444 C445 1.405 . S
C444 H470 0.930 . S
C445 C440 1.479 . S
C445 C444 1.405 . S
C445 H471 0.931 . S
U446 O447 2.454 . S
U446 O448 2.458 . S
U446 C449 2.984 . S
U446 C450 2.847 . S
U446 C463 2.882 . S
U446 O464 2.441 . S
U446 O465 2.420 . S
U446 O466 2.455 . S
U446 O467 2.449 . S
O447 U446 2.454 . S
O447 C449 1.353 . S
O448 U446 2.458 . S
O448 C449 1.286 . S
C449 U446 2.984 . S
C449 O447 1.353 . S
C449 O448 1.286 . S
C449 C451 1.363 . S
C450 C440 1.465 . S
C450 U446 2.847 . S
C450 O464 1.249 . S
C450 O465 1.202 . S
C451 C449 1.363 . S
C451 C453 1.408 . S
C451 C456 1.342 . S
C452 C453 1.310 . S
C452 C455 1.461 . S
C452 H472 0.932 . S
C453 C451 1.408 . S
C453 C452 1.310 . S
C453 H473 0.930 . S
C454 C455 1.474 . S
C454 C456 1.285 . S
C454 H474 0.929 . S
C455 C452 1.461 . S
C455 C454 1.474 . S
C456 C451 1.342 . S
C456 C454 1.285 . S
C456 H475 0.930 . S
C457 C460 1.424 . S
C457 C462 1.245 . S
C457 C463 1.428 . S
C458 C461 1.260 . S
C458 C462 1.477 . S
C458 H476 0.932 . S
C459 C460 1.384 . S
C459 C461 1.479 . S
C459 H477 0.929 . S
C460 C457 1.424 . S
C460 C459 1.384 . S
C460 H478 0.928 . S
C461 C458 1.260 . S
C461 C459 1.479 . S
C462 C457 1.245 . S
C462 C458 1.477 . S
C462 H479 0.932 . S
C463 U446 2.882 . S
C463 C457 1.428 . S
C463 O466 1.301 . S
C463 O467 1.282 . S
O464 U446 2.441 . S
O464 C450 1.249 . S
O465 U446 2.420 . S
O465 C450 1.202 . S
O466 U446 2.455 . S
O466 C463 1.301 . S
O467 U446 2.449 . S
O467 C463 1.282 . S
H468 C441 0.931 . S
H469 C443 0.929 . S
H470 C444 0.930 . S
H471 C445 0.931 . S
H472 C452 0.932 . S
H473 C453 0.930 . S
H474 C454 0.929 . S
H475 C456 0.930 . S
H476 C458 0.932 . S
H477 C459 0.929 . S
H478 C460 0.928 . S
H479 C462 0.932 . S
C480 C481 1.369 . S
C480 C482 1.419 1_556 S
C480 H484 0.930 . S
C481 C480 1.369 . S
C481 C490 1.429 . S
C482 C480 1.419 1_554 S
C482 C483 1.363 . S
C482 H485 0.929 . S
C483 C482 1.363 . S
C483 C489 1.428 . S
H484 C480 0.930 . S
H485 C482 0.929 . S
S486 N487 1.613 . S
S486 N488 1.611 1_556 S
N487 S486 1.613 . S
N487 C490 1.350 . S
N488 S486 1.611 1_554 S
N488 C489 1.351 . S
C489 C483 1.428 . S
C489 N488 1.351 . S
C489 C490 1.434 1_554 S
C490 C481 1.429 . S
C490 N487 1.350 . S
C490 C489 1.434 1_556 S
C491 C492 1.369 . S
C491 C493 1.419 . S
C491 H495 0.930 . S
C492 C491 1.369 . S
C492 C501 1.429 . S
C493 C491 1.419 . S
C493 C494 1.363 . S
C493 H496 0.929 . S
C494 C493 1.363 . S
C494 C500 1.428 . S
H495 C491 0.930 . S
H496 C493 0.929 . S
S497 N498 1.613 . S
S497 N499 1.610 . S
N498 S497 1.613 . S
N498 C501 1.350 . S
N499 S497 1.610 . S
N499 C500 1.351 . S
C500 C494 1.428 . S
C500 N499 1.351 . S
C500 C501 1.434 . S
C501 C492 1.429 . S
C501 N498 1.350 . S
C501 C500 1.434 . S
C502 C503 1.369 . S
C502 C504 1.419 . S
C502 H506 0.930 . S
C503 C502 1.369 . S
C503 C512 1.429 . S
C504 C502 1.419 . S
C504 C505 1.363 . S
C504 H507 0.929 . S
C505 C504 1.363 . S
C505 C511 1.428 . S
H506 C502 0.930 . S
H507 C504 0.929 . S
S508 N509 1.613 . S
S508 N510 1.610 . S
N509 S508 1.613 . S
N509 C512 1.350 . S
N510 S508 1.610 . S
N510 C511 1.351 . S
C511 C505 1.428 . S
C511 N510 1.351 . S
C511 C512 1.434 . S
C512 C503 1.429 . S
C512 N509 1.350 . S
C512 C511 1.434 . S
C513 C514 1.369 . S
C513 C515 1.419 1_556 S
C513 H517 0.930 . S
C514 C513 1.369 . S
C514 C523 1.429 . S
C515 C513 1.419 1_554 S
C515 C516 1.363 . S
C515 H518 0.929 . S
C516 C515 1.363 . S
C516 C522 1.428 . S
H517 C513 0.930 . S
H518 C515 0.929 . S
S519 N520 1.611 1_554 S
S519 N521 1.612 . S
N520 S519 1.611 1_556 S
N520 C523 1.350 . S
N521 S519 1.612 . S
N521 C522 1.351 . S
C522 C516 1.428 . S
C522 N521 1.351 . S
C522 C523 1.434 1_554 S
C523 C514 1.429 . S
C523 N520 1.350 . S
C523 C522 1.434 1_556 S
C524 C525 1.369 . S
C524 C526 1.419 . S
C524 H528 0.930 . S
C525 C524 1.369 . S
C525 C534 1.429 . S
C526 C524 1.419 . S
C526 C527 1.363 . S
C526 H529 0.929 . S
C527 C526 1.363 . S
C527 C533 1.428 . S
H528 C524 0.930 . S
H529 C526 0.929 . S
S530 N531 1.613 . S
S530 N532 1.610 . S
N531 S530 1.613 . S
N531 C534 1.350 . S
N532 S530 1.610 . S
N532 C533 1.351 . S
C533 C527 1.428 . S
C533 N532 1.351 . S
C533 C534 1.434 . S
C534 C525 1.429 . S
C534 N531 1.350 . S
C534 C533 1.434 . S
C535 C536 1.369 . S
C535 C537 1.419 . S
C535 H539 0.930 . S
C536 C535 1.369 . S
C536 C545 1.429 . S
C537 C535 1.419 . S
C537 C538 1.363 . S
C537 H540 0.929 . S
C538 C537 1.363 . S
C538 C544 1.428 . S
H539 C535 0.930 . S
H540 C537 0.929 . S
S541 N542 1.613 . S
S541 N543 1.610 . S
N542 S541 1.613 . S
N542 C545 1.350 . S
N543 S541 1.610 . S
N543 C544 1.351 . S
C544 C538 1.428 . S
C544 N543 1.351 . S
C544 C545 1.434 . S
C545 C536 1.429 . S
C545 N542 1.350 . S
C545 C544 1.434 . S
C546 C547 1.369 . S
C546 C548 1.419 . S
C546 H550 0.930 . S
C547 C546 1.369 . S
C547 C556 1.429 . S
C548 C546 1.419 . S
C548 C549 1.363 . S
C548 H551 0.929 . S
C549 C548 1.363 . S
C549 C555 1.428 . S
H550 C546 0.930 . S
H551 C548 0.929 . S
S552 N553 1.613 . S
S552 N554 1.610 . S
N553 S552 1.613 . S
N553 C556 1.350 . S
N554 S552 1.610 . S
N554 C555 1.351 . S
C555 C549 1.428 . S
C555 N554 1.351 . S
C555 C556 1.434 . S
C556 C547 1.429 . S
C556 N553 1.350 . S
C556 C555 1.434 . S
C557 C558 1.369 . S
C557 C559 1.419 . S
C557 H561 0.930 . S
C558 C557 1.369 . S
C558 C567 1.429 . S
C559 C557 1.419 . S
C559 C560 1.363 . S
C559 H562 0.929 . S
C560 C559 1.363 . S
C560 C566 1.428 . S
H561 C557 0.930 . S
H562 C559 0.929 . S
S563 N564 1.613 . S
S563 N565 1.610 . S
N564 S563 1.613 . S
N564 C567 1.350 . S
N565 S563 1.610 . S
N565 C566 1.351 . S
C566 C560 1.428 . S
C566 N565 1.351 . S
C566 C567 1.434 . S
C567 C558 1.429 . S
C567 N564 1.350 . S
C567 C566 1.434 . S
C568 C569 1.369 . S
C568 C570 1.419 . S
C568 H572 0.930 . S
C569 C568 1.369 . S
C569 C578 1.429 . S
C570 C568 1.419 . S
C570 C571 1.363 . S
C570 H573 0.929 . S
C571 C570 1.363 . S
C571 C577 1.428 . S
H572 C568 0.930 . S
H573 C570 0.929 . S
S574 N575 1.613 . S
S574 N576 1.610 . S
N575 S574 1.613 . S
N575 C578 1.350 . S
N576 S574 1.610 . S
N576 C577 1.351 . S
C577 C571 1.428 . S
C577 N576 1.351 . S
C577 C578 1.434 . S
C578 C569 1.429 . S
C578 N575 1.350 . S
C578 C577 1.434 . S
C579 C580 1.369 . S
C579 C581 1.419 . S
C579 H583 0.930 . S
C580 C579 1.369 . S
C580 C589 1.429 . S
C581 C579 1.419 . S
C581 C582 1.363 . S
C581 H584 0.929 . S
C582 C581 1.363 . S
C582 C588 1.428 . S
H583 C579 0.930 . S
H584 C581 0.929 . S
S585 N586 1.613 . S
S585 N587 1.610 . S
N586 S585 1.613 . S
N586 C589 1.350 . S
N587 S585 1.610 . S
N587 C588 1.351 . S
C588 C582 1.428 . S
C588 N587 1.351 . S
C588 C589 1.434 . S
C589 C580 1.429 . S
C589 N586 1.350 . S
C589 C588 1.434 . S
C590 C591 1.369 . S
C590 C592 1.419 . S
C590 H594 0.930 . S
C591 C590 1.369 . S
C591 C600 1.429 . S
C592 C590 1.419 . S
C592 C593 1.363 . S
C592 H595 0.929 . S
C593 C592 1.363 . S
C593 C599 1.428 . S
H594 C590 0.930 . S
H595 C592 0.929 . S
S596 N597 1.613 . S
S596 N598 1.610 . S
N597 S596 1.613 . S
N597 C600 1.350 . S
N598 S596 1.610 . S
N598 C599 1.351 . S
C599 C593 1.428 . S
C599 N598 1.351 . S
C599 C600 1.434 . S
C600 C591 1.429 . S
C600 N597 1.350 . S
C600 C599 1.434 . S
C601 C602 1.369 . S
C601 C603 1.419 . S
C601 H605 0.930 . S
C602 C601 1.369 . S
C602 C611 1.429 . S
C603 C601 1.419 . S
C603 C604 1.363 . S
C603 H606 0.929 . S
C604 C603 1.363 . S
C604 C610 1.428 . S
H605 C601 0.930 . S
H606 C603 0.929 . S
S607 N608 1.613 . S
S607 N609 1.610 . S
N608 S607 1.613 . S
N608 C611 1.350 . S
N609 S607 1.610 . S
N609 C610 1.351 . S
C610 C604 1.428 . S
C610 N609 1.351 . S
C610 C611 1.434 . S
C611 C602 1.429 . S
C611 N608 1.350 . S
C611 C610 1.434 . S
C612 C613 1.369 . S
C612 C614 1.419 1_455 S
C612 H616 0.930 . S
C613 C612 1.369 . S
C613 C622 1.429 . S
C614 C612 1.419 1_655 S
C614 C615 1.363 . S
C614 H617 0.929 . S
C615 C614 1.363 . S
C615 C621 1.428 . S
H616 C612 0.930 . S
H617 C614 0.929 . S
S618 N619 1.613 . S
S618 N620 1.610 1_455 S
N619 S618 1.613 . S
N619 C622 1.350 . S
N620 S618 1.610 1_655 S
N620 C621 1.351 . S
C621 C615 1.428 . S
C621 N620 1.351 . S
C621 C622 1.434 1_655 S
C622 C613 1.429 . S
C622 N619 1.350 . S
C622 C621 1.434 1_455 S
C623 C624 1.369 . S
C623 C625 1.419 1_545 S
C623 H627 0.930 . S
C624 C623 1.369 . S
C624 C633 1.429 . S
C625 C623 1.419 1_565 S
C625 C626 1.363 . S
C625 H628 0.929 . S
C626 C625 1.363 . S
C626 C632 1.428 . S
H627 C623 0.930 . S
H628 C625 0.929 . S
S629 N630 1.613 . S
S629 N631 1.610 1_545 S
N630 S629 1.613 . S
N630 C633 1.350 . S
N631 S629 1.610 1_565 S
N631 C632 1.351 . S
C632 C626 1.428 . S
C632 N631 1.351 . S
C632 C633 1.434 1_565 S
C633 C624 1.429 . S
C633 N630 1.350 . S
C633 C632 1.434 1_545 S
C634 C635 1.369 . S
C634 C636 1.419 . S
C634 H638 0.930 . S
C635 C634 1.369 . S
C635 C644 1.429 . S
C636 C634 1.419 . S
C636 C637 1.363 . S
C636 H639 0.929 . S
C637 C636 1.363 . S
C637 C643 1.428 . S
H638 C634 0.930 . S
H639 C636 0.929 . S
S640 N641 1.613 . S
S640 N642 1.610 . S
N641 S640 1.613 . S
N641 C644 1.350 . S
N642 S640 1.610 . S
N642 C643 1.351 . S
C643 C637 1.428 . S
C643 N642 1.351 . S
C643 C644 1.434 . S
C644 C635 1.429 . S
C644 N641 1.350 . S
C644 C643 1.434 . S
C645 C646 1.369 . S
C645 C647 1.419 1_655 S
C645 H649 0.930 . S
C646 C645 1.369 . S
C646 C655 1.429 . S
C647 C645 1.419 1_455 S
C647 C648 1.363 . S
C647 H650 0.929 . S
C648 C647 1.363 . S
C648 C654 1.428 . S
H649 C645 0.930 . S
H650 C647 0.929 . S
S651 N652 1.613 . S
S651 N653 1.610 1_655 S
N652 S651 1.613 . S
N652 C655 1.350 . S
N653 S651 1.610 1_455 S
N653 C654 1.351 . S
C654 C648 1.428 . S
C654 N653 1.351 . S
C654 C655 1.434 1_455 S
C655 C646 1.429 . S
C655 N652 1.350 . S
C655 C654 1.434 1_655 S
C656 C657 1.369 . S
C656 C658 1.419 1_545 S
C656 H660 0.930 . S
C657 C656 1.369 . S
C657 C666 1.429 . S
C658 C656 1.419 1_565 S
C658 C659 1.363 . S
C658 H661 0.929 . S
C659 C658 1.363 . S
C659 C665 1.428 . S
H660 C656 0.930 . S
H661 C658 0.929 . S
S662 N663 1.586 1_565 S
S662 N664 1.610 . S
N663 S662 1.586 1_545 S
N663 C666 1.354 . S
N664 S662 1.610 . S
N664 C665 1.351 . S
C665 C659 1.428 . S
C665 N664 1.351 . S
C665 C666 1.434 1_565 S
C666 C657 1.429 . S
C666 N663 1.354 . S
C666 C665 1.434 1_545 S
C667 C668 1.369 . S
C667 C669 1.419 . S
C667 H671 0.930 . S
C668 C667 1.369 . S
C668 C677 1.429 . S
C669 C667 1.419 . S
C669 C670 1.363 . S
C669 H672 0.929 . S
C670 C669 1.363 . S
C670 C676 1.428 . S
H671 C667 0.930 . S
H672 C669 0.929 . S
S673 N674 1.613 . S
S673 N675 1.610 . S
N674 S673 1.613 . S
N674 C677 1.350 . S
N675 S673 1.610 . S
N675 C676 1.351 . S
C676 C670 1.428 . S
C676 N675 1.351 . S
C676 C677 1.434 . S
C677 C668 1.429 . S
C677 N674 1.350 . S
C677 C676 1.434 . S
C481 C415 2.568 . S
C483 C15 2.573 . S
C492 C55 2.566 . S
C494 C455 2.572 . S
C503 C255 2.574 . S
C505 C95 2.567 . S
C514 C295 2.573 . S
C516 C135 2.567 . S
C525 C335 2.574 . S
C527 C175 2.568 . S
C536 C215 2.566 . S
C538 C375 2.573 . S
C547 C341 2.543 . S
C549 C21 2.538 . S
C558 C381 2.543 . S
C560 C61 2.538 . S
C569 C101 2.543 . S
C571 C421 2.538 . S
C580 C461 2.542 . S
C582 C141 2.538 . S
C591 C261 2.543 . S
C593 C181 2.538 . S
C602 C301 2.538 . S
C604 C221 2.543 . S
C613 C2 2.348 . S
C615 C442 2.350 . S
C624 C42 2.347 . S
C626 C242 2.351 . S
C635 C82 2.346 . S
C637 C282 2.351 . S
C646 C122 2.347 . S
C648 C322 2.352 . S
C657 C362 2.352 . S
C659 C162 2.347 . S
C668 C202 2.348 . S
C670 C402 2.349 . S
