# Generated by pormake.
# Topology crs, (6)-cn, num edge types: 1
# Building blocks:
#     Node 0, Type 0, BuildingBlock: BETDAH_clean_sbu_0, # of connection points: 6
#     Node 1, Type 0, BuildingBlock: BETDAH_clean_sbu_0, # of connection points: 6
#     Node 2, Type 0, BuildingBlock: BETDAH_clean_sbu_0, # of connection points: 6
#     Node 3, Type 0, BuildingBlock: BETDAH_clean_sbu_0, # of connection points: 6
#     Node 4, Type 0, BuildingBlock: BETDAH_clean_sbu_0, # of connection points: 6
#     Node 5, Type 0, BuildingBlock: BETDAH_clean_sbu_0, # of connection points: 6
#     Node 6, Type 0, BuildingBlock: BETDAH_clean_sbu_0, # of connection points: 6
#     Node 7, Type 0, BuildingBlock: BETDAH_clean_sbu_0, # of connection points: 6
#     Node 8, Type 0, BuildingBlock: BETDAH_clean_sbu_0, # of connection points: 6
#     Node 9, Type 0, BuildingBlock: BETDAH_clean_sbu_0, # of connection points: 6
#     Node 10, Type 0, BuildingBlock: BETDAH_clean_sbu_0, # of connection points: 6
#     Node 11, Type 0, BuildingBlock: BETDAH_clean_sbu_0, # of connection points: 6
#     Node 12, Type 0, BuildingBlock: BETDAH_clean_sbu_0, # of connection points: 6
#     Node 13, Type 0, BuildingBlock: BETDAH_clean_sbu_0, # of connection points: 6
#     Node 14, Type 0, BuildingBlock: BETDAH_clean_sbu_0, # of connection points: 6
#     Node 15, Type 0, BuildingBlock: BETDAH_clean_sbu_0, # of connection points: 6
#     Edge 16, Type (0, 0), BuildingBlock: MIFKUJ_clean_linker_0, # of connection points: 2
#     Edge 17, Type (0, 0), BuildingBlock: MIFKUJ_clean_linker_0, # of connection points: 2
#     Edge 18, Type (0, 0), BuildingBlock: MIFKUJ_clean_linker_0, # of connection points: 2
#     Edge 19, Type (0, 0), BuildingBlock: MIFKUJ_clean_linker_0, # of connection points: 2
#     Edge 20, Type (0, 0), BuildingBlock: MIFKUJ_clean_linker_0, # of connection points: 2
#     Edge 21, Type (0, 0), BuildingBlock: MIFKUJ_clean_linker_0, # of connection points: 2
#     Edge 22, Type (0, 0), BuildingBlock: MIFKUJ_clean_linker_0, # of connection points: 2
#     Edge 23, Type (0, 0), BuildingBlock: MIFKUJ_clean_linker_0, # of connection points: 2
#     Edge 24, Type (0, 0), BuildingBlock: MIFKUJ_clean_linker_0, # of connection points: 2
#     Edge 25, Type (0, 0), BuildingBlock: MIFKUJ_clean_linker_0, # of connection points: 2
#     Edge 26, Type (0, 0), BuildingBlock: MIFKUJ_clean_linker_0, # of connection points: 2
#     Edge 27, Type (0, 0), BuildingBlock: MIFKUJ_clean_linker_0, # of connection points: 2
#     Edge 28, Type (0, 0), BuildingBlock: MIFKUJ_clean_linker_0, # of connection points: 2
#     Edge 29, Type (0, 0), BuildingBlock: MIFKUJ_clean_linker_0, # of connection points: 2
#     Edge 30, Type (0, 0), BuildingBlock: MIFKUJ_clean_linker_0, # of connection points: 2
#     Edge 31, Type (0, 0), BuildingBlock: MIFKUJ_clean_linker_0, # of connection points: 2
#     Edge 32, Type (0, 0), BuildingBlock: MIFKUJ_clean_linker_0, # of connection points: 2
#     Edge 33, Type (0, 0), BuildingBlock: MIFKUJ_clean_linker_0, # of connection points: 2
#     Edge 34, Type (0, 0), BuildingBlock: MIFKUJ_clean_linker_0, # of connection points: 2
#     Edge 35, Type (0, 0), BuildingBlock: MIFKUJ_clean_linker_0, # of connection points: 2
#     Edge 36, Type (0, 0), BuildingBlock: MIFKUJ_clean_linker_0, # of connection points: 2
#     Edge 37, Type (0, 0), BuildingBlock: MIFKUJ_clean_linker_0, # of connection points: 2
#     Edge 38, Type (0, 0), BuildingBlock: MIFKUJ_clean_linker_0, # of connection points: 2
#     Edge 39, Type (0, 0), BuildingBlock: MIFKUJ_clean_linker_0, # of connection points: 2
#     Edge 40, Type (0, 0), BuildingBlock: MIFKUJ_clean_linker_0, # of connection points: 2
#     Edge 41, Type (0, 0), BuildingBlock: MIFKUJ_clean_linker_0, # of connection points: 2
#     Edge 42, Type (0, 0), BuildingBlock: MIFKUJ_clean_linker_0, # of connection points: 2
#     Edge 43, Type (0, 0), BuildingBlock: MIFKUJ_clean_linker_0, # of connection points: 2
#     Edge 44, Type (0, 0), BuildingBlock: MIFKUJ_clean_linker_0, # of connection points: 2
#     Edge 45, Type (0, 0), BuildingBlock: MIFKUJ_clean_linker_0, # of connection points: 2
#     Edge 46, Type (0, 0), BuildingBlock: MIFKUJ_clean_linker_0, # of connection points: 2
#     Edge 47, Type (0, 0), BuildingBlock: MIFKUJ_clean_linker_0, # of connection points: 2
#     Edge 48, Type (0, 0), BuildingBlock: MIFKUJ_clean_linker_0, # of connection points: 2
#     Edge 49, Type (0, 0), BuildingBlock: MIFKUJ_clean_linker_0, # of connection points: 2
#     Edge 50, Type (0, 0), BuildingBlock: MIFKUJ_clean_linker_0, # of connection points: 2
#     Edge 51, Type (0, 0), BuildingBlock: MIFKUJ_clean_linker_0, # of connection points: 2
#     Edge 52, Type (0, 0), BuildingBlock: MIFKUJ_clean_linker_0, # of connection points: 2
#     Edge 53, Type (0, 0), BuildingBlock: MIFKUJ_clean_linker_0, # of connection points: 2
#     Edge 54, Type (0, 0), BuildingBlock: MIFKUJ_clean_linker_0, # of connection points: 2
#     Edge 55, Type (0, 0), BuildingBlock: MIFKUJ_clean_linker_0, # of connection points: 2
#     Edge 56, Type (0, 0), BuildingBlock: MIFKUJ_clean_linker_0, # of connection points: 2
#     Edge 57, Type (0, 0), BuildingBlock: MIFKUJ_clean_linker_0, # of connection points: 2
#     Edge 58, Type (0, 0), BuildingBlock: MIFKUJ_clean_linker_0, # of connection points: 2
#     Edge 59, Type (0, 0), BuildingBlock: MIFKUJ_clean_linker_0, # of connection points: 2
#     Edge 60, Type (0, 0), BuildingBlock: MIFKUJ_clean_linker_0, # of connection points: 2
#     Edge 61, Type (0, 0), BuildingBlock: MIFKUJ_clean_linker_0, # of connection points: 2
#     Edge 62, Type (0, 0), BuildingBlock: MIFKUJ_clean_linker_0, # of connection points: 2
#     Edge 63, Type (0, 0), BuildingBlock: MIFKUJ_clean_linker_0, # of connection points: 2
# Relax obj value: 0.397
# Max RMSD: 0.337
# Mean RMSD: 0.282
data_MOF--net-crs--node1-BETDAH_clean_sbu_0--edge1-MIFKUJ_clean_linker_0
_symmetry_space_group_name_H-M    P1
_symmetry_Int_Tables_number       1
_symmetry_cell_setting            triclinic
loop_
_symmetry_equiv_pos_as_xyz
'x, y, z'
_cell_length_a     65.662328
_cell_length_b     66.75555
_cell_length_c     58.288854
_cell_angle_alpha  77.901898
_cell_angle_beta   79.333565
_cell_angle_gamma 69.014505
loop_
_atom_site_label
_atom_site_type_symbol
_atom_site_fract_x
_atom_site_fract_y
_atom_site_fract_z
_atom_type_partial_charge
Ho0 Ho 0.97298 0.99096 0.03648 0.0
Ho1 Ho 0.00561 1.00246 0.99462 0.0
C2 C 0.00557 0.95481 1.00319 0.0
C3 C 0.94403 0.9755 0.06202 0.0
C4 C 0.93896 0.95643 0.05958 0.0
C5 C 0.94249 0.95039 0.03716 0.0
C6 C 0.94228 0.93018 0.03489 0.0
C7 C 0.93828 0.9157 0.05497 0.0
C8 C 0.93357 0.9221 0.07736 0.0
C9 C 0.93418 0.94234 0.07968 0.0
C10 C 0.0095 0.99237 0.04935 0.0
C11 C 0.97568 0.03797 0.02875 0.0
C12 C 0.03258 0.01979 0.96797 0.0
C13 C 0.0398 0.03705 0.97249 0.0
C14 C 0.05743 0.03159 0.98566 0.0
C15 C 0.06132 0.04756 0.99448 0.0
C16 C 0.04808 0.06937 0.98968 0.0
C17 C 0.03151 0.07518 0.97507 0.0
C18 C 0.02731 0.05912 0.96661 0.0
C19 C 0.96877 1.00046 0.98293 0.0
O20 O 0.9873 0.96155 0.01775 0.0
O21 O 0.01813 0.96691 0.99442 0.0
O22 O 0.96372 0.97082 0.0678 0.0
O23 O 0.93913 0.9921 0.04496 0.0
O24 O 0.99063 0.99663 0.06235 0.0
O25 O 0.00863 0.9854 0.03106 0.0
O26 O -0.0061 0.03039 0.01465 0.0
O27 O 0.96218 0.02673 0.0373 0.0
O28 O 0.01186 0.02573 0.96484 0.0
O29 O 0.03909 1.00099 0.98173 0.0
O30 O 0.98763 0.99528 0.96999 0.0
O31 O 0.97002 0.00819 1.00039 0.0
H32 H 0.94627 0.96093 0.02141 0.0
H33 H 0.94526 0.92584 0.01737 0.0
H34 H 0.9301 0.91124 0.09299 0.0
H35 H 0.93168 0.94666 0.09714 0.0
H36 H 0.06767 0.01484 0.99 0.0
H37 H 0.07458 0.04286 1.00526 0.0
H38 H 0.02133 0.092 0.97095 0.0
H39 H 0.01372 0.06391 0.9563 0.0
Ho40 Ho -0.00138 0.26716 0.26662 0.0
Ho41 Ho 0.98774 0.23482 0.24691 0.0
C42 C 0.96645 0.24182 0.29893 0.0
C43 C -0.00284 0.29968 0.28517 0.0
C44 C -0.00316 0.30456 0.30874 0.0
C45 C 0.98224 0.32427 0.3152 0.0
C46 C 0.98297 0.33022 0.33655 0.0
C47 C -0.00154 0.31659 0.35171 0.0
C48 C 0.01253 0.29646 0.34561 0.0
C49 C 0.01167 0.29043 0.32435 0.0
C50 C 0.02781 0.22636 0.27402 0.0
C51 C 0.02143 0.25836 0.21499 0.0
C52 C 0.98704 0.20345 0.22781 0.0
C53 C 0.98646 0.19903 0.2042 0.0
C54 C 0.00488 0.19601 0.18689 0.0
C55 C 0.00433 0.19009 0.16542 0.0
C56 C 0.98535 0.18721 0.16086 0.0
C57 C 0.96681 0.19081 0.17794 0.0
C58 C 0.96741 0.19656 0.1994 0.0
C59 C 0.95838 0.27583 0.24096 0.0
O60 O 0.97207 0.25956 0.29433 0.0
O61 O 0.97443 0.22705 0.28473 0.0
O62 O 0.01534 0.286 0.27649 0.0
O63 O 0.97962 0.2967 0.28112 0.0
O64 O 0.03266 0.24391 0.27134 0.0
O65 O 0.00726 0.23117 0.2752 0.0
O66 O 0.01431 0.24163 0.21897 0.0
O67 O 0.01461 0.27294 0.22943 0.0
O68 O 0.96939 0.21765 0.23669 0.0
O69 O 0.00513 0.20527 0.23205 0.0
O70 O 0.95331 0.25831 0.24483 0.0
O71 O 0.97903 0.27082 0.23851 0.0
H72 H 0.97069 0.33537 0.30341 0.0
H73 H 0.97208 0.34593 0.34067 0.0
H74 H 0.02448 0.28557 0.35709 0.0
H75 H 0.02297 0.27499 0.31988 0.0
H76 H 0.01985 0.19777 0.19008 0.0
H77 H 0.01885 0.1874 0.15254 0.0
H78 H 0.95211 0.18825 0.17518 0.0
H79 H 0.95308 0.19855 0.21252 0.0
Ho80 Ho 0.7335 0.24374 0.48631 0.0
Ho81 Ho 0.74672 0.26976 0.51572 0.0
C82 C 0.69841 0.26769 0.52821 0.0
C83 C 0.71568 0.22146 0.47074 0.0
C84 C 0.69587 0.21546 0.47927 0.0
C85 C 0.68928 0.21067 0.50356 0.0
C86 C 0.66915 0.20723 0.51129 0.0
C87 C 0.65525 0.2089 0.49483 0.0
C88 C 0.662 0.2136 0.47057 0.0
C89 C 0.68214 0.21682 0.46288 0.0
C90 C 0.73586 0.28299 0.46395 0.0
C91 C 0.78321 0.24131 0.47779 0.0
C92 C 0.7596 0.29848 0.52599 0.0
C93 C 0.78151 0.29718 0.52986 0.0
C94 C 0.78993 0.31356 0.5179 0.0
C95 C 0.81174 0.3113 0.5186 0.0
C96 C 0.82548 0.29267 0.53146 0.0
C97 C 0.81694 0.27643 0.54383 0.0
C98 C 0.79515 0.27856 0.54284 0.0
C99 C 0.75398 0.22807 0.53929 0.0
O100 O 0.70464 0.25242 0.51463 0.0
O101 O 0.71091 0.27919 0.52906 0.0
O102 O 0.71176 0.24228 0.4637 0.0
O103 O 0.73217 0.21246 0.48341 0.0
O104 O 0.74213 0.2657 0.45414 0.0
O105 O 0.72784 0.27886 0.48526 0.0
O106 O 0.77707 0.25745 0.49023 0.0
O107 O 0.76996 0.23064 0.47663 0.0
O108 O 0.74971 0.28687 0.5419 0.0
O109 O 0.75812 0.29719 0.50431 0.0
O110 O 0.75853 0.24294 0.54642 0.0
O111 O 0.74691 0.23626 0.51955 0.0
H112 H 0.69946 0.20997 0.51655 0.0
H113 H 0.66432 0.20359 0.53007 0.0
H114 H 0.65181 0.21451 0.45748 0.0
H115 H 0.68686 0.22073 0.4441 0.0
H116 H 0.77976 0.32788 0.50753 0.0
H117 H 0.8178 0.32425 0.50923 0.0
H118 H 0.8272 0.26198 0.55391 0.0
H119 H 0.78914 0.26546 0.55182 0.0
Ho120 Ho 0.72755 0.00596 0.75044 0.0
Ho121 Ho 0.76313 0.01454 0.7675 0.0
C122 C 0.75117 0.0393 0.71625 0.0
C123 C 0.69211 0.0078 0.73553 0.0
C124 C 0.68245 0.00966 0.714 0.0
C125 C 0.66299 0.02679 0.7095 0.0
C126 C 0.65143 0.02724 0.6915 0.0
C127 C 0.65896 0.01035 0.67786 0.0
C128 C 0.67908 0.99377 0.68157 0.0
C129 C 0.69075 0.99342 0.6995 0.0
C130 C 0.76782 0.97599 0.74276 0.0
C131 C 0.73991 0.98109 0.8011 0.0
C132 C 0.79693 0.01273 0.78561 0.0
C133 C 0.80486 0.00494 0.809 0.0
C134 C 0.80931 0.98316 0.81993 0.0
C135 C 0.81678 0.97646 0.84219 0.0
C136 C 0.81957 0.99148 0.85395 0.0
C137 C 0.81487 0.01323 0.84306 0.0
C138 C 0.80768 0.01985 0.82078 0.0
C139 C 0.72281 0.04456 0.77459 0.0
O140 O 0.7342 0.03211 0.72093 0.0
O141 O 0.76676 0.03221 0.73041 0.0
O142 O 0.70764 0.98968 0.74178 0.0
O143 O 0.69563 0.02492 0.73907 0.0
O144 O 0.74962 0.97178 0.74766 0.0
O145 O 0.76375 0.99628 0.74011 0.0
O146 O 0.75783 0.98666 0.79514 0.0
O147 O 0.72331 0.99025 0.78836 0.0
O148 O 0.77903 0.02959 0.78462 0.0
O149 O 0.79718 0.99822 0.77347 0.0
O150 O 0.74093 0.04889 0.76881 0.0
O151 O 0.72694 0.02422 0.77778 0.0
H152 H 0.65624 0.03939 0.72056 0.0
H153 H 0.63621 0.04049 0.68876 0.0
H154 H 0.68526 0.98047 0.67146 0.0
H155 H 0.70574 0.97996 0.70262 0.0
H156 H 0.80715 0.97132 0.81128 0.0
H157 H 0.82042 0.95957 0.8502 0.0
H158 H 0.81739 0.02504 0.85147 0.0
H159 H 0.80443 0.03669 0.81268 0.0
Ho160 Ho 0.50401 0.77456 0.26253 0.0
Ho161 Ho 0.49439 0.73873 0.24771 0.0
C162 C 0.47253 0.75078 0.29792 0.0
C163 C 0.50351 0.80799 0.27872 0.0
C164 C 0.50423 0.81318 0.30193 0.0
C165 C 0.48627 0.81553 0.31978 0.0
C166 C 0.48711 0.82138 0.34119 0.0
C167 C 0.50592 0.82501 0.34515 0.0
C168 C 0.52403 0.82208 0.3275 0.0
C169 C 0.52314 0.81637 0.30611 0.0
C170 C 0.53427 0.73437 0.27181 0.0
C171 C 0.52561 0.76332 0.21203 0.0
C172 C 0.49565 0.70371 0.23406 0.0
C173 C 0.49318 0.69641 0.21301 0.0
C174 C 0.49827 0.67415 0.21322 0.0
C175 C 0.49412 0.66677 0.19446 0.0
C176 C 0.48472 0.68156 0.17514 0.0
C177 C 0.48036 0.70388 0.17459 0.0
C178 C 0.48452 0.71127 0.19345 0.0
C179 C 0.46372 0.77869 0.23878 0.0
O180 O 0.47676 0.76913 0.29038 0.0
O181 O 0.482 0.73406 0.28641 0.0
O182 O 0.5214 0.7941 0.26982 0.0
O183 O 0.48572 0.80495 0.27545 0.0
O184 O 0.53881 0.7522 0.26603 0.0
O185 O 0.51375 0.73879 0.27434 0.0
O186 O 0.521 0.74505 0.21912 0.0
O187 O 0.51668 0.77969 0.22411 0.0
O188 O 0.4779 0.71712 0.24382 0.0
O189 O 0.51307 0.70909 0.23325 0.0
O190 O 0.45952 0.76066 0.24396 0.0
O191 O 0.48424 0.77452 0.23613 0.0
H192 H 0.47142 0.8132 0.31712 0.0
H193 H 0.47278 0.82375 0.35431 0.0
H194 H 0.53889 0.82443 0.33011 0.0
H195 H 0.53722 0.81467 0.29269 0.0
H196 H 0.50507 0.66248 0.22816 0.0
H197 H 0.49807 0.64946 0.19518 0.0
H198 H 0.47305 0.71566 0.15999 0.0
H199 H 0.48047 0.72855 0.19307 0.0
Ho200 Ho 0.2401 0.74277 0.48769 0.0
Ho201 Ho 0.25387 0.76752 0.51883 0.0
C202 C 0.20404 0.76885 0.52731 0.0
C203 C 0.22876 0.71398 0.47507 0.0
C204 C 0.20807 0.70924 0.48051 0.0
C205 C 0.19729 0.70793 0.50372 0.0
C206 C 0.17693 0.70481 0.5083 0.0
C207 C 0.16692 0.70336 0.48972 0.0
C208 C 0.17757 0.70497 0.46652 0.0
C209 C 0.19804 0.70782 0.46197 0.0
C210 C 0.23494 0.78462 0.46533 0.0
C211 C 0.28837 0.74534 0.47505 0.0
C212 C 0.27079 0.79095 0.53367 0.0
C213 C 0.28848 0.79966 0.52286 0.0
C214 C 0.29569 0.80033 0.49854 0.0
C215 C 0.31317 0.80781 0.48849 0.0
C216 C 0.32357 0.81484 0.50264 0.0
C217 C 0.31648 0.81384 0.52705 0.0
C218 C 0.29907 0.80628 0.53707 0.0
C219 C 0.25063 0.72846 0.54043 0.0
O220 O 0.21 0.75345 0.51389 0.0
O221 O 0.21732 0.7793 0.5292 0.0
O222 O 0.22745 0.73274 0.46199 0.0
O223 O 0.24032 0.7097 0.49261 0.0
O224 O 0.23026 0.77041 0.45709 0.0
O225 O 0.24124 0.77558 0.48527 0.0
O226 O 0.28331 0.75811 0.49131 0.0
O227 O 0.27505 0.73569 0.47157 0.0
O228 O 0.2771 0.76975 0.53909 0.0
O229 O 0.25271 0.79917 0.52347 0.0
O230 O 0.24591 0.74519 0.55087 0.0
O231 O 0.25836 0.73287 0.519 0.0
H232 H 0.20451 0.70942 0.51829 0.0
H233 H 0.16899 0.70352 0.52632 0.0
H234 H 0.17032 0.70347 0.45198 0.0
H235 H 0.20599 0.70906 0.44395 0.0
H236 H 0.28782 0.79514 0.48728 0.0
H237 H 0.31819 0.80857 0.46964 0.0
H238 H 0.32442 0.81891 0.53841 0.0
H239 H 0.29392 0.80555 0.55591 0.0
Ho240 Ho 0.22667 0.50171 0.74453 0.0
Ho241 Ho 0.26245 0.50906 0.76357 0.0
C242 C 0.24923 0.53682 0.71326 0.0
C243 C 0.19197 0.50453 0.72741 0.0
C244 C 0.18588 0.5045 0.70428 0.0
C245 C 0.18017 0.52356 0.6876 0.0
C246 C 0.17276 0.5235 0.66662 0.0
C247 C 0.17099 0.5044 0.66196 0.0
C248 C 0.17733 0.48526 0.67833 0.0
C249 C 0.18458 0.48534 0.69929 0.0
C250 C 0.26719 0.47294 0.73455 0.0
C251 C 0.23888 0.47481 0.79511 0.0
C252 C 0.29797 0.50491 0.78003 0.0
C253 C 0.30522 0.50191 0.8032 0.0
C254 C 0.32773 0.49409 0.80515 0.0
C255 C 0.33514 0.49321 0.82641 0.0
C256 C 0.3201 0.50025 0.84604 0.0
C257 C 0.29746 0.50711 0.84433 0.0
C258 C 0.29006 0.50792 0.82303 0.0
C259 C 0.22178 0.53734 0.77436 0.0
O260 O 0.2323 0.52968 0.7174 0.0
O261 O 0.26514 0.52874 0.7271 0.0
O262 O 0.20547 0.48628 0.73697 0.0
O263 O 0.19626 0.52149 0.73022 0.0
O264 O 0.24911 0.46865 0.7376 0.0
O265 O 0.26278 0.49302 0.73431 0.0
O266 O 0.2563 0.48125 0.79089 0.0
O267 O 0.2229 0.48361 0.78145 0.0
O268 O 0.28324 0.52361 0.77369 0.0
O269 O 0.29396 0.48859 0.77504 0.0
O270 O 0.23974 0.5419 0.77135 0.0
O271 O 0.22642 0.51734 0.77407 0.0
H272 H 0.18091 0.53862 0.69097 0.0
H273 H 0.16795 0.53849 0.65429 0.0
H274 H 0.17565 0.47042 0.67551 0.0
H275 H 0.1886 0.47047 0.71191 0.0
H276 H 0.33962 0.48922 0.79005 0.0
H277 H 0.35267 0.48742 0.82732 0.0
H278 H 0.28549 0.51272 0.8591 0.0
H279 H 0.27256 0.51389 0.82181 0.0
Ho280 Ho 0.97223 0.49429 0.52699 0.0
Ho281 Ho 0.01127 0.49884 0.48994 0.0
C282 C 0.00509 0.45301 0.50119 0.0
C283 C 0.93892 0.48412 0.54947 0.0
C284 C 0.93357 0.46428 0.55093 0.0
C285 C 0.93356 0.45646 0.53035 0.0
C286 C 0.9323 0.43581 0.53184 0.0
C287 C 0.93122 0.42255 0.55389 0.0
C288 C 0.93052 0.43068 0.57449 0.0
C289 C 0.93163 0.4514 0.57301 0.0
C290 C 0.00873 0.49041 0.54438 0.0
C291 C 0.97973 0.53906 0.51839 0.0
C292 C 0.04475 0.50893 0.46771 0.0
C293 C 0.05193 0.52667 0.47023 0.0
C294 C 0.04579 0.53514 0.49152 0.0
C295 C 0.04963 0.55393 0.49317 0.0
C296 C 0.06046 0.56414 0.47388 0.0
C297 C 0.06712 0.55536 0.45269 0.0
C298 C 0.06263 0.53684 0.4508 0.0
C299 C 0.97569 0.50031 0.47234 0.0
O300 O 0.98567 0.46263 0.51256 0.0
O301 O 0.01977 0.46296 0.49315 0.0
O302 O 0.95637 0.48108 0.55929 0.0
O303 O 0.93818 0.49688 0.52897 0.0
O304 O 0.98904 0.49914 0.55452 0.0
O305 O 0.00809 0.48301 0.5265 0.0
O306 O -0.00116 0.52943 0.50655 0.0
O307 O 0.96448 0.52977 0.52545 0.0
O308 O 0.02598 0.51536 0.45915 0.0
O309 O 0.04612 0.49347 0.48601 0.0
O310 O -0.00429 0.49242 0.46254 0.0
O311 O 0.97554 0.50883 0.48984 0.0
H312 H 0.93527 0.46593 0.51302 0.0
H313 H 0.93235 0.43017 0.51569 0.0
H314 H 0.92969 0.42082 0.59172 0.0
H315 H 0.93186 0.45703 0.58906 0.0
H316 H 0.03776 0.52742 0.50686 0.0
H317 H 0.04432 0.56028 0.50965 0.0
H318 H 0.07544 0.56303 0.43753 0.0
H319 H 0.06722 0.53066 0.43415 0.0
Ho320 Ho 0.23401 0.24242 0.98701 0.0
Ho321 Ho 0.24895 0.26913 0.01883 0.0
C322 C 0.2002 0.26532 0.03035 0.0
C323 C 0.22542 0.21169 0.97482 0.0
C324 C 0.21239 0.19787 0.98687 0.0
C325 C 0.19943 0.20216 0.00839 0.0
C326 C 0.18589 0.19004 0.01922 0.0
C327 C 0.18421 0.17399 0.00815 0.0
C328 C 0.19762 0.16948 0.98667 0.0
C329 C 0.21174 0.18121 0.97626 0.0
C330 C 0.22905 0.28448 0.96577 0.0
C331 C 0.2827 0.24734 0.9748 0.0
C332 C 0.25911 0.29709 0.03463 0.0
C333 C 0.2802 0.30075 0.03236 0.0
C334 C 0.29333 0.30183 0.01042 0.0
C335 C 0.31461 0.30232 0.00922 0.0
C336 C 0.32314 0.30133 0.02996 0.0
C337 C 0.30982 0.30067 0.05176 0.0
C338 C 0.28852 0.30047 0.05292 0.0
C339 C 0.25554 0.22628 0.03844 0.0
O340 O 0.20575 0.2508 0.01583 0.0
O341 O 0.21296 0.27638 0.0322 0.0
O342 O 0.21394 0.23231 0.96968 0.0
O343 O 0.24351 0.2085 0.98371 0.0
O344 O 0.22459 0.27051 0.95672 0.0
O345 O 0.23509 0.27488 0.98575 0.0
O346 O 0.27794 0.26057 0.9907 0.0
O347 O 0.26951 0.23703 0.972 0.0
O348 O 0.25874 0.27852 0.04718 0.0
O349 O 0.24955 0.30181 0.01547 0.0
O350 O 0.26191 0.23936 0.04669 0.0
O351 O 0.2472 0.23707 0.02001 0.0
H352 H 0.19927 0.2153 0.01658 0.0
H353 H 0.17631 0.19373 0.03597 0.0
H354 H 0.1966 0.15758 0.97727 0.0
H355 H 0.22151 0.17783 0.95949 0.0
H356 H 0.28738 0.3018 0.9943 0.0
H357 H 0.32454 0.30301 0.9922 0.0
H358 H 0.31587 0.3004 0.06794 0.0
H359 H 0.27873 0.29948 0.07 0.0
Ho360 Ho 0.2301 0.99749 0.23822 0.0
Ho361 Ho 0.26232 0.00883 0.25703 0.0
C362 C 0.25167 0.03233 0.20567 0.0
C363 C 0.19899 0.99552 0.21829 0.0
C364 C 0.18758 0.00621 0.19715 0.0
C365 C 0.1696 0.0256 0.19735 0.0
C366 C 0.15746 0.03403 0.17811 0.0
C367 C 0.16306 0.02319 0.15842 0.0
C368 C 0.18164 0.00439 0.15784 0.0
C369 C 0.19369 0.99595 0.17703 0.0
C370 C 0.27119 0.96821 0.23489 0.0
C371 C 0.24046 0.97365 0.29027 0.0
C372 C 0.29531 0.00959 0.27467 0.0
C373 C 0.30129 0.00979 0.29776 0.0
C374 C 0.31573 0.99091 0.30937 0.0
C375 C 0.3237 0.99156 0.32967 0.0
C376 C 0.31755 0.01116 0.33862 0.0
C377 C 0.30233 0.02982 0.32766 0.0
C378 C 0.29431 0.02916 0.30737 0.0
C379 C 0.22117 0.03809 0.26207 0.0
O380 O 0.23402 0.02632 0.21125 0.0
O381 O 0.26784 0.02371 0.21901 0.0
O382 O 0.21956 0.98357 0.21439 0.0
O383 O 0.19538 0.00673 0.23543 0.0
O384 O 0.25336 0.96332 0.24056 0.0
O385 O 0.2665 0.98864 0.23034 0.0
O386 O 0.25597 0.98273 0.28687 0.0
O387 O 0.22623 0.97894 0.27481 0.0
O388 O 0.28037 0.02698 0.2657 0.0
O389 O 0.29321 0.99169 0.27138 0.0
O390 O 0.23908 0.04277 0.25823 0.0
O391 O 0.22583 0.01767 0.26529 0.0
H392 H 0.16446 0.03388 0.21262 0.0
H393 H 0.14326 0.04862 0.17896 0.0
H394 H 0.18615 0.99542 0.14315 0.0
H395 H 0.20733 0.98087 0.17643 0.0
H396 H 0.32142 0.97578 0.30234 0.0
H397 H 0.3352 0.97686 0.338 0.0
H398 H 0.29746 0.04518 0.33404 0.0
H399 H 0.28328 0.04404 0.29877 0.0
Ho400 Ho 0.49879 0.27453 0.76485 0.0
Ho401 Ho 0.48877 0.24036 0.74711 0.0
C402 C 0.46887 0.24799 0.79934 0.0
C403 C 0.49745 0.30768 0.78232 0.0
C404 C 0.49754 0.31371 0.80532 0.0
C405 C 0.47847 0.32826 0.81572 0.0
C406 C 0.47889 0.33592 0.83614 0.0
C407 C 0.49846 0.32934 0.84643 0.0
C408 C 0.51738 0.3143 0.83642 0.0
C409 C 0.51694 0.30656 0.81609 0.0
C410 C 0.52986 0.23456 0.77065 0.0
C411 C 0.519 0.26654 0.71256 0.0
C412 C 0.48937 0.20717 0.73031 0.0
C413 C 0.48719 0.20118 0.70822 0.0
C414 C 0.49761 0.20797 0.68617 0.0
C415 C 0.4952 0.20156 0.66568 0.0
C416 C 0.48217 0.1885 0.66698 0.0
C417 C 0.47183 0.18183 0.68913 0.0
C418 C 0.47433 0.1881 0.70948 0.0
C419 C 0.45781 0.28051 0.74143 0.0
O420 O 0.47354 0.26625 0.7938 0.0
O421 O 0.47713 0.23287 0.78556 0.0
O422 O 0.51556 0.29397 0.77351 0.0
O423 O 0.47988 0.30423 0.77906 0.0
O424 O 0.53384 0.25267 0.76677 0.0
O425 O 0.50935 0.23842 0.77365 0.0
O426 O 0.51369 0.24863 0.71777 0.0
O427 O 0.5115 0.28144 0.72664 0.0
O428 O 0.47163 0.22035 0.74035 0.0
O429 O 0.50708 0.21149 0.7313 0.0
O430 O 0.45366 0.26248 0.74559 0.0
O431 O 0.47834 0.2764 0.73827 0.0
H432 H 0.46336 0.33422 0.80767 0.0
H433 H 0.46411 0.34768 0.8433 0.0
H434 H 0.53264 0.30877 0.84411 0.0
H435 H 0.53196 0.2954 0.80854 0.0
H436 H 0.50758 0.21815 0.68478 0.0
H437 H 0.50333 0.20696 0.64885 0.0
H438 H 0.46206 0.17141 0.69082 0.0
H439 H 0.46627 0.18261 0.72633 0.0
Ho440 Ho 0.00414 0.77108 0.76079 0.0
Ho441 Ho 0.98789 0.74356 0.74034 0.0
C442 C 0.97184 0.74686 0.79435 0.0
C443 C 0.0091 0.79946 0.78134 0.0
C444 C 0.00022 0.81004 0.80253 0.0
C445 C 0.99295 0.83276 0.79974 0.0
C446 C 0.98782 0.84327 0.81938 0.0
C447 C 0.98998 0.83126 0.84222 0.0
C448 C -0.00427 0.80855 0.84517 0.0
C449 C 0.00084 0.79799 0.82545 0.0
C450 C 0.03356 0.73082 0.75778 0.0
C451 C 0.02134 0.76699 0.70713 0.0
C452 C 0.98009 0.71649 0.72002 0.0
C453 C 0.98435 0.7074 0.69786 0.0
C454 C 0.00097 0.68743 0.69529 0.0
C455 C 0.00235 0.67681 0.6765 0.0
C456 C 0.98703 0.68584 0.66002 0.0
C457 C 0.97115 0.70635 0.66188 0.0
C458 C 0.96977 0.71698 0.68065 0.0
C459 C 0.95881 0.78394 0.74388 0.0
O460 O 0.9792 0.76344 0.79047 0.0
O461 O 0.97605 0.73418 0.77826 0.0
O462 O 0.02079 0.77884 0.78452 0.0
O463 O -0.00387 0.80464 0.76495 0.0
O464 O 0.03851 0.74844 0.75399 0.0
O465 O 0.01311 0.73512 0.76414 0.0
O466 O 0.01297 0.75111 0.71046 0.0
O467 O 0.0175 0.77941 0.72337 0.0
O468 O 0.96779 0.73681 0.71966 0.0
O469 O -0.00387 0.71085 0.73297 0.0
O470 O 0.95376 0.76638 0.74851 0.0
O471 O 0.97912 0.77942 0.73688 0.0
H472 H 0.99217 0.84238 0.78225 0.0
H473 H 0.9831 0.86081 0.81663 0.0
H474 H -0.00242 0.79886 0.86254 0.0
H475 H 0.0062 0.78041 0.82812 0.0
H476 H 0.01233 0.67952 0.70833 0.0
H477 H 0.01499 0.66115 0.67532 0.0
H478 H 0.95898 0.71365 0.64962 0.0
H479 H 0.95657 0.73222 0.68227 0.0
Ho480 Ho 0.72994 0.50102 0.2432 0.0
Ho481 Ho 0.76274 0.5098 0.26455 0.0
C482 C 0.75417 0.53549 0.21277 0.0
C483 C 0.69745 0.50232 0.22299 0.0
C484 C 0.69157 0.50445 0.19911 0.0
C485 C 0.68684 0.52432 0.18362 0.0
C486 C 0.67891 0.52637 0.16224 0.0
C487 C 0.67566 0.5086 0.15597 0.0
C488 C 0.68126 0.48856 0.17107 0.0
C489 C 0.68904 0.48655 0.19242 0.0
C490 C 0.77051 0.47076 0.23889 0.0
C491 C 0.73854 0.47601 0.29473 0.0
C492 C 0.79448 0.50815 0.2861 0.0
C493 C 0.80481 0.49615 0.30757 0.0
C494 C 0.82776 0.48729 0.30595 0.0
C495 C 0.83818 0.47852 0.32637 0.0
C496 C 0.82581 0.47861 0.34882 0.0
C497 C 0.80276 0.48638 0.35036 0.0
C498 C 0.79232 0.49498 0.32989 0.0
C499 C 0.72223 0.54019 0.26772 0.0
O500 O 0.73808 0.52733 0.21501 0.0
O501 O 0.76806 0.52907 0.22876 0.0
O502 O 0.7127 0.48437 0.23024 0.0
O503 O 0.69903 0.51935 0.22927 0.0
O504 O 0.75228 0.46675 0.24198 0.0
O505 O 0.76651 0.49106 0.23638 0.0
O506 O 0.75656 0.48138 0.29037 0.0
O507 O 0.72299 0.48523 0.2806 0.0
O508 O 0.7745 0.52173 0.28925 0.0
O509 O 0.79743 0.49725 0.26888 0.0
O510 O 0.7405 0.54431 0.2635 0.0
O511 O 0.72614 0.51984 0.27126 0.0
H512 H 0.68863 0.53843 0.18827 0.0
H513 H 0.67476 0.54201 0.15091 0.0
H514 H 0.67851 0.47469 0.16701 0.0
H515 H 0.69235 0.47111 0.20413 0.0
H516 H 0.83769 0.488 0.28893 0.0
H517 H 0.85597 0.47288 0.3246 0.0
H518 H 0.79283 0.48645 0.36742 0.0
H519 H 0.77454 0.50146 0.33163 0.0
Ho520 Ho 0.744 0.74724 0.99046 0.0
Ho521 Ho 0.76037 0.76876 0.02203 0.0
C522 C 0.71076 0.76657 0.03426 0.0
C523 C 0.73716 0.7214 0.96777 0.0
C524 C 0.7191 0.71329 0.9687 0.0
C525 C 0.72 0.70045 0.95219 0.0
C526 C 0.70247 0.69326 0.95242 0.0
C527 C 0.6838 0.6989 0.96917 0.0
C528 C 0.68306 0.7117 0.98581 0.0
C529 C 0.70062 0.71887 0.98556 0.0
C530 C 0.73803 0.79016 0.97594 0.0
C531 C 0.79555 0.74462 0.98157 0.0
C532 C 0.76985 0.79922 0.03344 0.0
C533 C 0.78542 0.81001 0.02053 0.0
C534 C 0.79729 0.80348 0.99921 0.0
C535 C 0.81521 0.81004 0.98893 0.0
C536 C 0.82122 0.82375 0.99952 0.0
C537 C 0.80831 0.83161 0.01998 0.0
C538 C 0.79059 0.8246 0.03056 0.0
C539 C 0.76138 0.72847 0.0453 0.0
O540 O 0.71534 0.75312 0.01883 0.0
O541 O 0.72443 0.77646 0.03653 0.0
O542 O 0.73267 0.74221 0.96038 0.0
O543 O 0.74778 0.71464 0.98634 0.0
O544 O 0.7237 0.78104 0.97532 0.0
O545 O 0.75468 0.77589 0.98445 0.0
O546 O 0.79208 0.75538 0.9993 0.0
O547 O 0.77983 0.73943 0.97548 0.0
O548 O 0.77915 0.7786 0.04141 0.0
O549 O 0.75237 0.80294 0.0232 0.0
O550 O 0.76767 0.74177 0.05335 0.0
O551 O 0.75549 0.73745 0.0251 0.0
H552 H 0.73422 0.69605 0.93909 0.0
H553 H 0.70361 0.68312 0.93963 0.0
H554 H 0.66881 0.71644 0.99878 0.0
H555 H 0.69969 0.72892 0.99835 0.0
H556 H 0.79348 0.79232 0.99117 0.0
H557 H 0.82497 0.80356 0.97338 0.0
H558 H 0.81283 0.84197 0.02869 0.0
H559 H 0.78167 0.8297 0.0471 0.0
Ho560 Ho 0.46593 0.00512 0.52586 0.0
Ho561 Ho 0.50798 0.00708 0.49247 0.0
C562 C 0.49645 0.9644 0.49809 0.0
C563 C 0.43011 0.99724 0.54246 0.0
C564 C 0.42256 0.98108 0.53574 0.0
C565 C 0.41167 0.98626 0.51556 0.0
C566 C 0.40943 0.96989 0.50576 0.0
C567 C 0.41779 0.94804 0.51609 0.0
C568 C 0.42709 0.94306 0.53732 0.0
C569 C 0.42939 0.9594 0.54707 0.0
C570 C 0.50061 0.99898 0.54787 0.0
C571 C 0.47685 0.04815 0.5198 0.0
C572 C 0.54389 0.01369 0.47238 0.0
C573 C 0.55309 0.0298 0.47542 0.0
C574 C 0.54829 0.03738 0.49714 0.0
C575 C 0.55235 0.05601 0.49887 0.0
C576 C 0.56132 0.06735 0.47899 0.0
C577 C 0.56748 0.05901 0.45758 0.0
C578 C 0.56322 0.04035 0.45577 0.0
C579 C 0.47211 0.01503 0.47152 0.0
O580 O 0.47695 0.97539 0.50811 0.0
O581 O 0.51294 0.97214 0.49305 0.0
O582 O 0.44762 0.98918 0.55357 0.0
O583 O 0.43085 0.01383 0.52608 0.0
O584 O 0.48032 0.0076 0.55654 0.0
O585 O 0.50145 0.99197 0.52901 0.0
O586 O 0.49657 0.03731 0.50981 0.0
O587 O 0.46052 0.04013 0.52494 0.0
O588 O 0.52547 0.02212 0.46297 0.0
O589 O 0.5432 0.99854 0.49058 0.0
O590 O 0.49187 0.00483 0.46264 0.0
O591 O 0.47266 0.0213 0.49019 0.0
H592 H 0.40576 1.00285 0.50671 0.0
H593 H 0.4015 0.97432 0.48986 0.0
H594 H 0.43371 0.92639 0.54576 0.0
H595 H 0.4377 0.95483 0.56275 0.0
H596 H 0.54019 0.0297 0.51247 0.0
H597 H 0.54761 0.06204 0.51553 0.0
H598 H 0.57446 0.06753 0.44202 0.0
H599 H 0.56675 0.03485 0.4388 0.0
Ho600 Ho 0.46707 0.49993 0.03937 0.0
Ho601 Ho 0.4959 0.51287 0.99561 0.0
C602 C 0.49725 0.46445 1.00501 0.0
C603 C 0.44061 0.48358 0.0689 0.0
C604 C 0.43495 0.46417 0.06929 0.0
C605 C 0.43702 0.45637 0.04811 0.0
C606 C 0.43476 0.43633 0.04857 0.0
C607 C 0.42979 0.42415 0.07013 0.0
C608 C 0.42689 0.43223 0.09129 0.0
C609 C 0.42974 0.45209 0.09088 0.0
C610 C 0.50478 0.50258 0.04784 0.0
C611 C 0.46546 0.54847 0.02983 0.0
C612 C 0.52272 0.52756 0.96446 0.0
C613 C 0.53036 0.54613 0.96099 0.0
C614 C 0.52296 0.56056 0.9774 0.0
C615 C 0.53072 0.57789 0.97446 0.0
C616 C 0.54641 0.5808 0.95528 0.0
C617 C 0.55333 0.5666 0.93848 0.0
C618 C 0.54531 0.54937 0.94132 0.0
C619 C 0.45807 0.51014 0.98749 0.0
O620 O 0.47949 0.47085 0.02026 0.0
O621 O 0.50901 0.47717 0.99545 0.0
O622 O 0.46098 0.47956 0.07207 0.0
O623 O 0.43405 0.49954 0.05163 0.0
O624 O 0.48652 0.50783 0.06179 0.0
O625 O 0.50262 0.49478 0.03086 0.0
O626 O 0.48303 0.54235 0.01423 0.0
O627 O 0.4541 0.53549 0.04002 0.0
O628 O 0.50198 0.53238 0.96228 0.0
O629 O 0.52895 0.51283 0.98284 0.0
O630 O 0.47632 0.50452 0.97361 0.0
O631 O 0.46043 0.51809 1.00419 0.0
H632 H 0.44086 0.46554 0.03123 0.0
H633 H 0.43677 0.43038 0.03209 0.0
H634 H 0.42277 0.42303 0.10804 0.0
H635 H 0.42822 0.45784 0.10738 0.0
H636 H 0.51158 0.55819 0.99278 0.0
H637 H 0.52515 0.58837 0.98781 0.0
H638 H 0.56522 0.56857 0.92337 0.0
H639 H 0.55106 0.53838 0.92842 0.0
H640 H 0.94094 0.06131 0.05783 0.0
H641 H 0.93922 0.09265 0.07495 0.0
H642 H 0.00317 0.09007 0.03786 0.0
H643 H 0.00471 0.0599 0.02025 0.0
H644 H 0.96616 0.09321 0.10381 0.0
H645 H 0.01223 0.13327 0.02721 0.0
H646 H 0.01679 0.14022 0.98358 0.0
H647 H 0.95077 0.14203 0.98351 0.0
H648 H 0.94566 0.13578 0.02716 0.0
H649 H 0.01726 0.1534 0.14241 0.0
H650 H 0.01368 0.13387 0.11306 0.0
H651 H 0.94967 0.18058 0.10265 0.0
H652 H 0.95313 0.20056 0.13174 0.0
H653 H 0.98236 0.15894 0.05924 0.0
H654 H 0.94369 0.1457 0.1392 0.0
H655 H 0.94359 0.13743 0.18249 0.0
H656 H -0.00197 0.07861 0.17542 0.0
H657 H -0.00135 0.08675 0.13204 0.0
C658 C 0.95435 0.06781 0.05295 0.0
C659 C 0.97281 0.05819 0.0375 0.0
C660 C 0.95339 0.08563 0.06276 0.0
C661 C 0.97088 0.09398 0.05729 0.0
C662 C 0.98915 0.08446 0.04174 0.0
C663 C 0.99001 0.067 0.03177 0.0
C664 C 0.97118 0.11136 0.06927 0.0
C665 C 0.96925 0.10777 0.09402 0.0
C666 C 0.97586 0.13007 0.05653 0.0
C667 C 0.97849 0.1344 0.03036 0.0
C668 C -0.00141 0.13557 0.01784 0.0
C669 C 0.00131 0.13923 0.99314 0.0
C670 C 0.98409 0.14155 0.98078 0.0
C671 C 0.96409 0.14027 0.99311 0.0
C672 C 0.96125 0.13673 0.01782 0.0
C673 C 0.00275 0.15998 0.13329 0.0
C674 C 0.98532 0.17834 0.1396 0.0
C675 C 0.00073 0.14873 0.11665 0.0
C676 C 0.98135 0.15565 0.1061 0.0
C677 C 0.96475 0.17504 0.11069 0.0
C678 C 0.96668 0.18629 0.12743 0.0
C679 C 0.97703 0.14081 0.0936 0.0
C680 C 0.9786 0.14469 0.0689 0.0
C681 C 0.97226 0.12219 0.10632 0.0
C682 C 0.97136 0.11696 0.13241 0.0
C683 C 0.95573 0.1311 0.14688 0.0
C684 C 0.95556 0.12641 0.17143 0.0
C685 C 0.97083 0.10753 0.1817 0.0
C686 C 0.98623 0.09324 0.16744 0.0
C687 C 0.98648 0.09787 0.14289 0.0
H688 H 0.97069 0.10394 0.20071 0.0
H689 H 0.98625 0.1443 0.96165 0.0
H690 H 0.8084 0.26758 0.46586 0.0
H691 H 0.84047 0.26437 0.43636 0.0
H692 H 0.83861 0.20367 0.42399 0.0
H693 H 0.80585 0.20698 0.45333 0.0
H694 H 0.88298 0.20543 0.42759 0.0
H695 H 0.82087 0.2407 0.38563 0.0
H696 H 0.7853 0.26708 0.375 0.0
H697 H 0.81078 0.31942 0.36677 0.0
H698 H 0.84643 0.29337 0.37785 0.0
H699 H 0.95351 0.20613 0.31666 0.0
H700 H 0.92423 0.20306 0.3486 0.0
H701 H 0.91272 0.26824 0.35982 0.0
H702 H 0.94193 0.27146 0.32802 0.0
H703 H 0.87471 0.26174 0.35604 0.0
H704 H 0.9372 0.22532 0.39905 0.0
H705 H 0.97317 0.19799 0.40685 0.0
H706 H 0.94689 0.14676 0.4112 0.0
H707 H 0.91081 0.17381 0.40308 0.0
C708 C 0.81487 0.25333 0.45719 0.0
C709 C 0.80444 0.23751 0.46206 0.0
C710 C 0.83322 0.25161 0.4402 0.0
C711 C 0.84185 0.23388 0.42785 0.0
C712 C 0.83218 0.2175 0.43332 0.0
C713 C 0.81347 0.21942 0.45009 0.0
C714 C 0.8604 0.23319 0.40865 0.0
C715 C 0.88112 0.21751 0.41175 0.0
C716 C 0.85806 0.24918 0.38817 0.0
C717 C 0.83628 0.26506 0.38283 0.0
C718 C 0.8188 0.25785 0.38198 0.0
C719 C 0.79865 0.27274 0.37576 0.0
C720 C 0.79584 0.29488 0.37014 0.0
C721 C 0.81303 0.30224 0.37108 0.0
C722 C 0.83321 0.28742 0.37735 0.0
C723 C 0.94494 0.21974 0.3261 0.0
C724 C 0.95014 0.23905 0.31972 0.0
C725 C 0.92821 0.21793 0.34442 0.0
C726 C 0.91627 0.2354 0.3567 0.0
C727 C 0.92168 0.25454 0.35061 0.0
C728 C 0.93849 0.25631 0.33246 0.0
C729 C 0.89745 0.23421 0.37509 0.0
C730 C 0.87661 0.2496 0.37184 0.0
C731 C 0.89971 0.21787 0.3953 0.0
C732 C 0.92137 0.20159 0.4002 0.0
C733 C 0.93914 0.20823 0.40145 0.0
C734 C 0.95954 0.19279 0.40598 0.0
C735 C 0.96233 0.17065 0.40945 0.0
C736 C 0.94471 0.16392 0.40846 0.0
C737 C 0.92428 0.1793 0.40392 0.0
H738 H 0.97814 0.15872 0.41295 0.0
H739 H 0.78036 0.3063 0.36491 0.0
H740 H 0.7768 0.06548 0.70706 0.0
H741 H 0.77584 0.09612 0.67521 0.0
H742 H 0.72643 0.08388 0.64624 0.0
H743 H 0.72694 0.05337 0.67842 0.0
H744 H 0.76091 0.09396 0.61085 0.0
H745 H 0.70912 0.12294 0.67462 0.0
H746 H 0.69636 0.12845 0.71607 0.0
H747 H 0.74492 0.15821 0.71414 0.0
H748 H 0.75828 0.15248 0.67278 0.0
H749 H 0.7356 0.1981 0.53342 0.0
H750 H 0.73356 0.16531 0.5612 0.0
H751 H 0.77072 0.17764 0.60722 0.0
H752 H 0.77223 0.21034 0.58 0.0
H753 H 0.73884 0.16716 0.6333 0.0
H754 H 0.7923 0.13574 0.57032 0.0
H755 H 0.80564 0.12927 0.5292 0.0
H756 H 0.75392 0.10398 0.52959 0.0
H757 H 0.74013 0.11055 0.57064 0.0
C758 C 0.76587 0.06906 0.69381 0.0
C759 C 0.75199 0.05676 0.69544 0.0
C760 C 0.76529 0.08672 0.67558 0.0
C761 C 0.75103 0.09248 0.65821 0.0
C762 C 0.73765 0.07982 0.65929 0.0
C763 C 0.73794 0.06234 0.6778 0.0
C764 C 0.74951 0.11228 0.63971 0.0
C765 C 0.75579 0.11001 0.61572 0.0
C766 C 0.74304 0.1333 0.64589 0.0
C767 C 0.73485 0.13708 0.67065 0.0
C768 C 0.71721 0.1305 0.68308 0.0
C769 C 0.70985 0.13368 0.70656 0.0
C770 C 0.71985 0.14363 0.71775 0.0
C771 C 0.7372 0.15048 0.70545 0.0
C772 C 0.74468 0.14727 0.68199 0.0
C773 C 0.74352 0.19363 0.54933 0.0
C774 C 0.75417 0.20686 0.55435 0.0
C775 C 0.74238 0.17481 0.56529 0.0
C776 C 0.75209 0.16865 0.58654 0.0
C777 C 0.76295 0.18183 0.59121 0.0
C778 C 0.76394 0.20056 0.57545 0.0
C779 C 0.75081 0.14891 0.60427 0.0
C780 C 0.74391 0.15117 0.62826 0.0
C781 C 0.75672 0.12791 0.59804 0.0
C782 C 0.76505 0.12385 0.57344 0.0
C783 C 0.78369 0.12894 0.56157 0.0
C784 C 0.79135 0.12523 0.53829 0.0
C785 C 0.7806 0.11628 0.52676 0.0
C786 C 0.76221 0.11095 0.53852 0.0
C787 C 0.75448 0.11465 0.5618 0.0
H788 H 0.78654 0.11343 0.50874 0.0
H789 H 0.71414 0.14608 0.73592 0.0
H790 H 0.92474 0.01788 0.99757 0.0
H791 H 0.89491 0.00941 0.98588 0.0
H792 H 0.94295 0.95813 0.95093 0.0
H793 H 0.97242 0.96695 0.96178 0.0
H794 H 0.91711 0.99111 0.92125 0.0
H795 H 0.90511 0.94445 0.99697 0.0
H796 H 0.89615 0.93721 0.04033 0.0
H797 H 0.83783 0.99315 0.03718 0.0
H798 H 0.846 1.00042 0.99377 0.0
H799 H 0.85636 0.95744 0.86438 0.0
H800 H 0.87769 0.95229 0.89665 0.0
H801 H 0.82642 0.00505 0.92617 0.0
H802 H 0.80496 0.01025 0.89391 0.0
H803 H 0.85131 0.9722 0.96108 0.0
H804 H 0.8593 0.01904 0.88913 0.0
H805 H 0.86461 0.03015 0.84603 0.0
H806 H 0.9291 0.98243 0.84225 0.0
H807 H 0.9238 0.97041 0.88536 0.0
C808 C 0.92877 0.00453 0.98785 0.0
C809 C 0.95073 0.99343 0.98 0.0
C810 C 0.9118 0.99955 0.9814 0.0
C811 C 0.91677 0.9832 0.96745 0.0
C812 C 0.93877 0.97085 0.96161 0.0
C813 C 0.95559 0.97604 0.96764 0.0
C814 C 0.89991 0.98186 0.95473 0.0
C815 C 0.90298 0.9865 0.92999 0.0
C816 C 0.88082 0.9772 0.96617 0.0
C817 C 0.87626 0.97307 0.99222 0.0
C818 C 0.89047 0.95528 1.00556 0.0
C819 C 0.88551 0.95113 0.03011 0.0
C820 C 0.86664 0.96483 0.04151 0.0
C821 C 0.85249 0.98259 0.02835 0.0
C822 C 0.85718 0.98665 1.00377 0.0
C823 C 0.84924 0.96733 0.87827 0.0
C824 C 0.82925 0.98451 0.87648 0.0
C825 C 0.86142 0.96438 0.89669 0.0
C826 C 0.85372 0.97854 0.9135 0.0
C827 C 0.8326 0.994 0.91333 0.0
C828 C 0.82048 0.99708 0.8948 0.0
C829 C 0.8693 0.98028 0.92768 0.0
C830 C 0.86573 0.97631 0.95245 0.0
C831 C 0.88771 0.98628 0.91635 0.0
C832 C 0.89092 0.99339 0.8904 0.0
C833 C 0.87443 0.01057 0.87908 0.0
C834 C 0.87746 0.01707 0.85465 0.0
C835 C 0.89711 0.00684 0.84138 0.0
C836 C 0.9138 0.99014 0.85254 0.0
C837 C 0.91076 0.98342 0.87695 0.0
H838 H 0.89947 0.01196 0.82248 0.0
H839 H 0.86291 0.96159 0.06052 0.0
H840 H 0.05007 0.98819 0.02352 0.0
H841 H 0.07809 1.0016 0.03115 0.0
H842 H 0.03699 0.02383 0.094 0.0
H843 H 0.00877 0.01196 0.08554 0.0
H844 H 0.05442 0.05184 0.07551 0.0
H845 H 0.08333 0.97244 0.09194 0.0
H846 H 0.0959 0.9357 0.08119 0.0
H847 H 0.14386 0.95228 0.02709 0.0
H848 H 0.13141 0.9892 0.03742 0.0
H849 H 0.11855 0.0346 0.16509 0.0
H850 H 0.09468 0.0373 0.13653 0.0
H851 H 0.14974 0.02772 0.0817 0.0
H852 H 0.17393 0.02488 0.11045 0.0
H853 H 0.12957 0.99981 0.0838 0.0
H854 H 0.10626 0.0757 0.0828 0.0
H855 H 0.09284 0.11028 0.09845 0.0
H856 H 0.03351 0.09765 0.13086 0.0
H857 H 0.04621 0.06339 0.11482 0.0
C858 C 0.04699 0.99629 0.03866 0.0
C859 C 0.02724 0.99916 0.0538 0.0
C860 C 0.06304 0.00379 0.04316 0.0
C861 C 0.05975 0.01371 0.06322 0.0
C862 C 0.03993 0.01652 0.07824 0.0
C863 C 0.02386 0.00944 0.07353 0.0
C864 C 0.07706 0.0202 0.0698 0.0
C865 C 0.0709 0.04051 0.07723 0.0
C866 C 0.0988 0.00573 0.07141 0.0
C867 C 0.10627 0.9836 0.06522 0.0
C868 C 0.09647 0.96826 0.07766 0.0
C869 C 0.10358 0.94742 0.07166 0.0
C870 C 0.12061 0.94169 0.05341 0.0
C871 C 0.13063 0.95677 0.04117 0.0
C872 C 0.12356 0.97764 0.04709 0.0
C873 C 0.12548 0.03388 0.14679 0.0
C874 C 0.14813 0.0295 0.14002 0.0
C875 C 0.11179 0.03543 0.13043 0.0
C876 C 0.12039 0.03296 0.10688 0.0
C877 C 0.14278 0.02979 0.09975 0.0
C878 C 0.15655 0.02813 0.11618 0.0
C879 C 0.10647 0.03091 0.09079 0.0
C880 C 0.11335 0.01151 0.08136 0.0
C881 C 0.08518 0.04599 0.08802 0.0
C882 C 0.07715 0.06701 0.09725 0.0
C883 C 0.09023 0.08042 0.09299 0.0
C884 C 0.08272 0.10001 0.10192 0.0
C885 C 0.06223 0.10628 0.11546 0.0
C886 C 0.04921 0.09298 0.12004 0.0
C887 C 0.0565 0.07353 0.11086 0.0
H888 H 0.0565 0.12138 0.12251 0.0
H889 H 0.1261 0.92554 0.04879 0.0
H890 H 0.0426 0.42662 0.47872 0.0
H891 H 0.04532 0.39628 0.45964 0.0
H892 H 0.97805 0.40235 0.48728 0.0
H893 H 0.97565 0.43164 0.50732 0.0
H894 H -0.00093 0.3622 0.48386 0.0
H895 H 0.99159 0.42958 0.43346 0.0
H896 H 0.00097 0.4625 0.4154 0.0
H897 H 0.06264 0.42336 0.3831 0.0
H898 H 0.05397 0.39011 0.40173 0.0
H899 H 0.96633 0.3362 0.38499 0.0
H900 H 0.97077 0.35297 0.41655 0.0
H901 H 0.04093 0.33151 0.39684 0.0
H902 H 0.03662 0.31483 0.36528 0.0
H903 H 0.02056 0.37686 0.39742 0.0
H904 H 0.02084 0.30861 0.44735 0.0
H905 H 0.00497 0.27964 0.46466 0.0
H906 H 0.94764 0.3261 0.49526 0.0
H907 H 0.96303 0.3554 0.47787 0.0
C908 C 0.02862 0.42105 0.48132 0.0
C909 C 0.00876 0.43185 0.49416 0.0
C910 C 0.03016 0.40378 0.47031 0.0
C911 C 0.01168 0.39746 0.47149 0.0
C912 C 0.99251 0.40695 0.48602 0.0
C913 C 0.99113 0.42385 0.49741 0.0
C914 C 0.01131 0.383 0.45553 0.0
C915 C 0.00378 0.3654 0.46496 0.0
C916 C 0.01708 0.38739 0.4308 0.0
C917 C 0.02227 0.40734 0.41928 0.0
C918 C 0.00725 0.42798 0.42271 0.0
C919 C 0.01244 0.44669 0.4124 0.0
C920 C 0.03238 0.44502 0.39812 0.0
C921 C 0.04721 0.42462 0.3942 0.0
C922 C 0.04221 0.40582 0.40472 0.0
C923 C 0.9827 0.33482 0.38765 0.0
C924 C 0.00113 0.32425 0.37269 0.0
C925 C 0.98523 0.34425 0.40574 0.0
C926 C 0.00619 0.34336 0.40903 0.0
C927 C 0.02465 0.33223 0.39462 0.0
C928 C 0.02216 0.32263 0.37671 0.0
C929 C 0.0087 0.35589 0.42579 0.0
C930 C 0.01635 0.37338 0.41639 0.0
C931 C 0.00208 0.35195 0.45034 0.0
C932 C 0.99301 0.33424 0.46109 0.0
C933 C 0.00478 0.31268 0.45761 0.0
C934 C -0.00412 0.29619 0.46746 0.0
C935 C 0.97526 0.30104 0.48093 0.0
C936 C 0.96356 0.32237 0.48473 0.0
C937 C 0.9724 0.33891 0.47493 0.0
H938 H 0.96839 0.28825 0.4885 0.0
H939 H 0.03632 0.45954 0.39004 0.0
H940 H 0.68179 0.29362 0.56282 0.0
H941 H 0.64957 0.29513 0.59208 0.0
H942 H 0.6358 0.24932 0.56023 0.0
H943 H 0.66771 0.24801 0.53068 0.0
H944 H 0.59839 0.27938 0.57327 0.0
H945 H 0.66096 0.23256 0.60979 0.0
H946 H 0.69786 0.22078 0.62237 0.0
H947 H 0.67613 0.2719 0.66451 0.0
H948 H 0.63915 0.2842 0.65188 0.0
H949 H 0.53266 0.24329 0.67566 0.0
H950 H 0.56109 0.24557 0.64247 0.0
H951 H 0.56991 0.29763 0.6681 0.0
H952 H 0.54138 0.2956 0.70124 0.0
H953 H 0.60948 0.26397 0.65796 0.0
H954 H 0.54486 0.30897 0.62002 0.0
H955 H 0.50848 0.31658 0.60777 0.0
H956 H 0.53519 0.26296 0.56894 0.0
H957 H 0.57168 0.25488 0.58118 0.0
C958 C 0.67178 0.28407 0.56181 0.0
C959 C 0.67753 0.27056 0.54443 0.0
C960 C 0.6534 0.28484 0.57869 0.0
C961 C 0.64041 0.27206 0.57867 0.0
C962 C 0.64556 0.25928 0.56073 0.0
C963 C 0.66392 0.2585 0.54385 0.0
C964 C 0.62198 0.27143 0.59782 0.0
C965 C 0.60089 0.27582 0.59177 0.0
C966 C 0.62513 0.26674 0.62204 0.0
C967 C 0.64734 0.25947 0.62967 0.0
C968 C 0.6641 0.24142 0.62157 0.0
C969 C 0.68502 0.23462 0.62874 0.0
C970 C 0.68935 0.24563 0.64418 0.0
C971 C 0.67275 0.26342 0.65251 0.0
C972 C 0.6518 0.27031 0.64536 0.0
C973 C 0.54044 0.25542 0.6741 0.0
C974 C 0.53466 0.26931 0.69114 0.0
C975 C 0.55669 0.25671 0.65507 0.0
C976 C 0.56763 0.2718 0.65275 0.0
C977 C 0.5617 0.28587 0.66952 0.0
C978 C 0.54527 0.28477 0.6884 0.0
C979 C 0.58586 0.27233 0.63339 0.0
C980 C 0.60698 0.26772 0.63944 0.0
C981 C 0.58283 0.27626 0.60922 0.0
C982 C 0.56095 0.28122 0.60168 0.0
C983 C 0.54294 0.29871 0.60901 0.0
C984 C 0.52231 0.30313 0.60203 0.0
C985 C 0.51952 0.29023 0.58762 0.0
C986 C 0.53737 0.27293 0.5801 0.0
C987 C 0.55803 0.26845 0.58703 0.0
H988 H 0.50353 0.29368 0.58225 0.0
H989 H 0.70555 0.24033 0.64973 0.0
H990 H 0.70514 0.96658 0.82081 0.0
H991 H 0.70495 0.93556 0.85187 0.0
H992 H 0.77287 0.92337 0.8582 0.0
H993 H 0.77319 0.95435 0.82719 0.0
H994 H 0.76614 0.88599 0.8567 0.0
H995 H 0.73164 0.94506 0.90078 0.0
H996 H 0.7044 0.97999 0.90967 0.0
H997 H 0.65216 0.95419 0.91506 0.0
H998 H 0.67908 0.91918 0.90588 0.0
H999 H 0.77299 0.80512 0.95961 0.0
H1000 H 0.77347 0.83832 0.93224 0.0
H1001 H 0.70429 0.85514 0.92814 0.0
H1002 H 0.70366 0.82238 0.95624 0.0
H1003 H 0.71218 0.89062 0.92884 0.0
H1004 H 0.74623 0.83132 0.88579 0.0
H1005 H 0.77285 0.79677 0.87515 0.0
H1006 H 0.82531 0.823 0.86522 0.0
H1007 H 0.79916 0.85744 0.87673 0.0
C1008 C 0.72 0.95748 0.82895 0.0
C1009 C 0.73915 0.9632 0.82141 0.0
C1010 C 0.71987 0.93968 0.84683 0.0
C1011 C 0.73887 0.92699 0.85767 0.0
C1012 C 0.75796 0.93276 0.85025 0.0
C1013 C 0.75807 0.95065 0.83252 0.0
C1014 C 0.73905 0.90745 0.87622 0.0
C1015 C 0.75458 0.88707 0.87269 0.0
C1016 C 0.72359 0.90856 0.89684 0.0
C1017 C 0.70737 0.92957 0.90241 0.0
C1018 C 0.71433 0.94689 0.90367 0.0
C1019 C 0.69895 0.96669 0.9088 0.0
C1020 C 0.67656 0.96932 0.91287 0.0
C1021 C 0.6695 0.95214 0.91188 0.0
C1022 C 0.68482 0.9323 0.90673 0.0
C1023 C 0.75778 0.81613 0.95336 0.0
C1024 C 0.73823 0.81112 0.96048 0.0
C1025 C 0.75813 0.83502 0.93731 0.0
C1026 C 0.73898 0.84932 0.92761 0.0
C1027 C 0.71935 0.84454 0.93517 0.0
C1028 C 0.719 0.82571 0.95128 0.0
C1029 C 0.73937 0.86901 0.90943 0.0
C1030 C 0.72388 0.88945 0.91297 0.0
C1031 C 0.75483 0.8679 0.88872 0.0
C1032 C 0.77072 0.84691 0.8825 0.0
C1033 C 0.76349 0.82963 0.88174 0.0
C1034 C 0.7785 0.81005 0.87553 0.0
C1035 C 0.80077 0.80766 0.8696 0.0
C1036 C 0.80806 0.82486 0.86985 0.0
C1037 C 0.79316 0.84437 0.87637 0.0
H1038 H 0.81236 0.79251 0.86475 0.0
H1039 H 0.66467 0.98467 0.91684 0.0
H1040 H 0.16665 0.25091 0.02766 0.0
H1041 H 0.1341 0.25192 0.05605 0.0
H1042 H 0.15411 0.28548 0.0988 0.0
H1043 H 0.18645 0.28506 0.07008 0.0
H1044 H 0.1306 0.23339 0.09889 0.0
H1045 H 0.11079 0.31515 0.13268 0.0
H1046 H 0.11229 0.352 0.11719 0.0
H1047 H 0.10814 0.34402 0.04718 0.0
H1048 H 0.10632 0.30725 0.06228 0.0
H1049 H 0.05253 0.27791 0.20983 0.0
H1050 H 0.08137 0.27899 0.17682 0.0
H1051 H 0.05602 0.2452 0.1397 0.0
H1052 H 0.02828 0.24265 0.17339 0.0
H1053 H 0.08026 0.29774 0.13394 0.0
H1054 H 0.08183 0.2246 0.1066 0.0
H1055 H 0.0824 0.18667 0.11886 0.0
H1056 H 0.12467 0.17718 0.17109 0.0
H1057 H 0.1238 0.21528 0.15946 0.0
C1058 C 0.16402 0.25881 0.04292 0.0
C1059 C 0.17926 0.26795 0.04648 0.0
C1060 C 0.14536 0.2593 0.05924 0.0
C1061 C 0.14141 0.26889 0.07963 0.0
C1062 C 0.15641 0.27836 0.08304 0.0
C1063 C 0.17501 0.27806 0.06658 0.0
C1064 C 0.12236 0.26781 0.09789 0.0
C1065 C 0.11942 0.24759 0.10626 0.0
C1066 C 0.10774 0.28617 0.10783 0.0
C1067 C 0.10864 0.30835 0.0986 0.0
C1068 C 0.11012 0.32129 0.11399 0.0
C1069 C 0.11104 0.34216 0.10528 0.0
C1070 C 0.11038 0.35032 0.0812 0.0
C1071 C 0.10874 0.33765 0.06581 0.0
C1072 C 0.10779 0.31678 0.07443 0.0
C1073 C 0.0532 0.2706 0.19465 0.0
C1074 C 0.03808 0.26021 0.19426 0.0
C1075 C 0.06978 0.27115 0.17576 0.0
C1076 C 0.0715 0.26162 0.15577 0.0
C1077 C 0.05599 0.25172 0.15517 0.0
C1078 C 0.03976 0.25066 0.17434 0.0
C1079 C 0.08879 0.26321 0.13531 0.0
C1080 C 0.0914 0.28358 0.12649 0.0
C1081 C 0.10291 0.24508 0.12461 0.0
C1082 C 0.10204 0.22289 0.13285 0.0
C1083 C 0.09086 0.2145 0.12102 0.0
C1084 C 0.09125 0.19301 0.12783 0.0
C1085 C 0.10329 0.17962 0.146 0.0
C1086 C 0.11503 0.18769 0.15731 0.0
C1087 C 0.11439 0.20929 0.15081 0.0
H1088 H 0.10372 0.16294 0.15115 0.0
H1089 H 0.11111 0.36647 0.07449 0.0
H1090 H 0.70497 0.45871 0.30862 0.0
H1091 H 0.70315 0.42838 0.34003 0.0
H1092 H 0.7663 0.42224 0.35759 0.0
H1093 H 0.7681 0.45263 0.32649 0.0
H1094 H 0.72692 0.38744 0.34555 0.0
H1095 H 0.77192 0.39955 0.415 0.0
H1096 H 0.77784 0.42943 0.42861 0.0
H1097 H 0.71676 0.47361 0.40565 0.0
H1098 H 0.71035 0.44396 0.39217 0.0
H1099 H 0.76157 0.28988 0.42315 0.0
H1100 H 0.76114 0.32422 0.39809 0.0
H1101 H 0.71134 0.35934 0.44808 0.0
H1102 H 0.71221 0.32468 0.47395 0.0
H1103 H 0.74041 0.38132 0.42814 0.0
H1104 H 0.69753 0.34952 0.39815 0.0
H1105 H 0.69088 0.31994 0.38478 0.0
H1106 H 0.74462 0.31675 0.32943 0.0
H1107 H 0.75173 0.34615 0.34264 0.0
C1108 C 0.71838 0.45109 0.31931 0.0
C1109 C 0.73661 0.45837 0.31493 0.0
C1110 C 0.71738 0.4336 0.33729 0.0
C1111 C 0.73449 0.42288 0.35155 0.0
C1112 C 0.75264 0.43025 0.34729 0.0
C1113 C 0.75367 0.44772 0.32933 0.0
C1114 C 0.73372 0.40355 0.37012 0.0
C1115 C 0.72982 0.38624 0.36359 0.0
C1116 C 0.73732 0.40171 0.3939 0.0
C1117 C 0.74075 0.41956 0.40242 0.0
C1118 C 0.7597 0.41562 0.41298 0.0
C1119 C 0.76315 0.43252 0.42064 0.0
C1120 C 0.74772 0.45342 0.41793 0.0
C1121 C 0.72874 0.45744 0.40766 0.0
C1122 C 0.7252 0.44059 0.39999 0.0
C1123 C 0.7506 0.30489 0.42901 0.0
C1124 C 0.73669 0.30445 0.45049 0.0
C1125 C 0.75032 0.32456 0.41451 0.0
C1126 C 0.7358 0.3445 0.42065 0.0
C1127 C 0.72259 0.34425 0.4427 0.0
C1128 C 0.72307 0.32442 0.45751 0.0
C1129 C 0.73393 0.36519 0.40338 0.0
C1130 C 0.7374 0.38265 0.41012 0.0
C1131 C 0.7298 0.36728 0.37977 0.0
C1132 C 0.72523 0.34995 0.37147 0.0
C1133 C 0.70796 0.34246 0.38317 0.0
C1134 C 0.70412 0.32572 0.37562 0.0
C1135 C 0.71734 0.31645 0.35628 0.0
C1136 C 0.73438 0.32396 0.34439 0.0
C1137 C 0.73829 0.34069 0.35187 0.0
H1138 H 0.71436 0.30347 0.35049 0.0
H1139 H 0.75044 0.46648 0.42383 0.0
H1140 H 0.49781 0.02133 0.58236 0.0
H1141 H 0.5273 0.02503 0.59891 0.0
H1142 H 0.57486 0.98717 0.54898 0.0
H1143 H 0.54501 0.98169 0.53402 0.0
H1144 H 0.58939 0.97363 0.58693 0.0
H1145 H 0.56821 0.05056 0.54994 0.0
H1146 H 0.5459 0.08909 0.53938 0.0
H1147 H 0.51655 0.0912 0.61132 0.0
H1148 H 0.5391 0.05288 0.62243 0.0
H1149 H 0.67149 0.99836 0.63361 0.0
H1150 H 0.6477 0.99625 0.60693 0.0
H1151 H 0.59122 0.01738 0.65824 0.0
H1152 H 0.6147 0.01914 0.68499 0.0
H1153 H 0.58564 0.04066 0.61387 0.0
H1154 H 0.61222 0.96534 0.65062 0.0
H1155 H 0.64102 0.9303 0.66107 0.0
H1156 H 0.66319 0.9267 0.5875 0.0
H1157 H 0.63469 0.9619 0.57661 0.0
C1158 C 0.51456 0.01381 0.57491 0.0
C1159 C 0.51911 1.00137 0.55679 0.0
C1160 C 0.53149 0.01636 0.58403 0.0
C1161 C 0.55349 0.00703 0.57479 0.0
C1162 C 0.55807 0.99477 0.55635 0.0
C1163 C 0.54103 0.99175 0.54763 0.0
C1164 C 0.57153 0.00793 0.58635 0.0
C1165 C 0.58877 0.9885 0.59221 0.0
C1166 C 0.57078 0.02705 0.59394 0.0
C1167 C 0.55491 0.04878 0.58683 0.0
C1168 C 0.55657 0.05911 0.56334 0.0
C1169 C 0.5441 0.08095 0.55733 0.0
C1170 C 0.5297 0.09249 0.57459 0.0
C1171 C 0.52768 0.08222 0.59795 0.0
C1172 C 0.54033 0.06048 0.60412 0.0
C1173 C 0.65402 1.00239 0.63923 0.0
C1174 C 0.64494 0.00919 0.66129 0.0
C1175 C 0.64049 1.00115 0.624 0.0
C1176 C 0.61775 0.00663 0.63069 0.0
C1177 C 0.60873 0.01321 0.65273 0.0
C1178 C 0.62217 0.01439 0.66791 0.0
C1179 C 0.60289 0.00649 0.61457 0.0
C1180 C 0.58633 0.02599 0.60802 0.0
C1181 C 0.60443 0.98754 0.60624 0.0
C1182 C 0.6215 0.96637 0.61281 0.0
C1183 C 0.62336 0.95718 0.63667 0.0
C1184 C 0.63961 0.93726 0.64268 0.0
C1185 C 0.65398 0.92631 0.62496 0.0
C1186 C 0.65208 0.93522 0.6012 0.0
C1187 C 0.63588 0.95514 0.59511 0.0
H1188 H 0.66654 0.9109 0.62964 0.0
H1189 H 0.52033 0.10945 0.5699 0.0
H1190 H 0.98851 0.92201 0.02014 0.0
H1191 H 0.98442 0.89749 0.99658 0.0
H1192 H 0.02462 0.92054 0.93759 0.0
H1193 H 0.02859 0.9453 0.96058 0.0
H1194 H 0.98055 0.92479 0.92955 0.0
H1195 H 0.04401 0.8726 0.96536 0.0
H1196 H 0.06377 0.8505 0.99903 0.0
H1197 H 0.01536 0.81866 0.02062 0.0
H1198 H -0.00477 0.8407 0.98714 0.0
H1199 H 0.00794 0.86207 0.84184 0.0
H1200 H 0.0077 0.8797 0.87437 0.0
H1201 H 0.9703 0.8426 0.92097 0.0
H1202 H 0.97034 0.82471 0.88802 0.0
H1203 H 0.00645 0.8442 0.94044 0.0
H1204 H 0.94305 0.89353 0.90786 0.0
H1205 H 0.92132 0.91389 0.87497 0.0
H1206 H 0.96621 0.94946 0.84967 0.0
H1207 H 0.98809 0.92941 0.88253 0.0
C1208 C -0.00307 0.92146 1.00235 0.0
C1209 C 0.00867 0.93576 0.99214 0.0
C1210 C -0.0054 0.90743 0.98905 0.0
C1211 C 0.00409 0.90736 0.96551 0.0
C1212 C 0.01712 0.92046 0.95579 0.0
C1213 C 0.01957 0.93442 0.96907 0.0
C1214 C -0.00117 0.89518 0.95032 0.0
C1215 C 0.98634 0.90717 0.93185 0.0
C1216 C 0.00532 0.87222 0.95422 0.0
C1217 C 0.01777 0.85873 0.97407 0.0
C1218 C 0.03739 0.86112 0.97746 0.0
C1219 C 0.04874 0.84851 0.99645 0.0
C1220 C 0.04075 0.83329 0.01206 0.0
C1221 C 0.02148 0.83053 0.0086 0.0
C1222 C 0.0101 0.84308 0.98961 0.0
C1223 C -0.0007 0.85787 0.85886 0.0
C1224 C 0.98885 0.84224 0.86226 0.0
C1225 C -0.00069 0.86787 0.87748 0.0
C1226 C 0.9888 0.8626 0.89997 0.0
C1227 C 0.9785 0.84685 0.90369 0.0
C1228 C 0.97851 0.83672 0.88491 0.0
C1229 C 0.98902 0.87383 0.91919 0.0
C1230 C 0.00036 0.8618 0.93847 0.0
C1231 C 0.98102 0.89675 0.9165 0.0
C1232 C 0.96722 0.90992 0.89759 0.0
C1233 C 0.9482 0.90577 0.89532 0.0
C1234 C 0.93589 0.91721 0.87669 0.0
C1235 C 0.94249 0.93281 0.86013 0.0
C1236 C 0.96118 0.93729 0.86245 0.0
C1237 C 0.97345 0.926 0.88119 0.0
H1238 H 0.93305 0.94151 0.84559 0.0
H1239 H 0.04955 0.82356 0.02676 0.0
H1240 H 0.04747 0.07055 0.03596 0.0
H1241 H 0.06092 0.09387 0.05226 0.0
H1242 H 0.07196 0.12771 0.98185 0.0
H1243 H 0.05793 0.10487 0.96587 0.0
H1244 H 0.10148 0.0915 0.04268 0.0
H1245 H 0.07498 0.17326 0.97929 0.0
H1246 H 0.04128 0.19946 0.96368 0.0
H1247 H 0.00201 0.17862 0.02498 0.0
H1248 H 0.03547 0.15214 0.04087 0.0
H1249 H 0.18595 0.1327 1.00556 0.0
H1250 H 0.15588 0.11829 0.01496 0.0
H1251 H 0.11412 0.17603 0.0438 0.0
H1252 H 0.14338 0.19159 0.03219 0.0
H1253 H 0.09278 0.16943 0.01738 0.0
H1254 H 0.1298 0.12281 0.07975 0.0
H1255 H 0.16059 0.09783 0.1012 0.0
H1256 H 0.17313 0.05122 0.05512 0.0
H1257 H 0.14242 0.07589 0.03337 0.0
C1258 C 0.0523 0.08338 0.02421 0.0
C1259 C 0.05206 0.08587 0.99975 0.0
C1260 C 0.05986 0.0967 0.03347 0.0
C1261 C 0.06748 0.11253 0.01831 0.0
C1262 C 0.06578 0.11594 0.994 0.0
C1263 C 0.05797 0.10278 0.9848 0.0
C1264 C 0.08088 0.12256 0.02682 0.0
C1265 C 0.09923 0.10868 0.03794 0.0
C1266 C 0.07784 0.14496 0.02079 0.0
C1267 C 0.0577 0.16066 0.01118 0.0
C1268 C 0.05915 0.17429 0.98944 0.0
C1269 C 0.04009 0.18912 0.98051 0.0
C1270 C 0.01951 0.19063 0.9933 0.0
C1271 C 0.01795 0.17733 0.01505 0.0
C1272 C 0.03695 0.16232 0.02395 0.0
C1273 C 0.17042 0.14242 0.0139 0.0
C1274 C 0.1672 0.16349 0.01776 0.0
C1275 C 0.15327 0.1339 0.01978 0.0
C1276 C 0.1327 0.14593 0.0304 0.0
C1277 C 0.12982 0.1664 0.03563 0.0
C1278 C 0.14679 0.17518 0.0292 0.0
C1279 C 0.11365 0.13826 0.03307 0.0
C1280 C 0.09446 0.15249 0.02359 0.0
C1281 C 0.11536 0.11637 0.04182 0.0
C1282 C 0.13385 0.10129 0.05483 0.0
C1283 C 0.13919 0.10728 0.07411 0.0
C1284 C 0.15659 0.09314 0.08637 0.0
C1285 C 0.16883 0.07298 0.07949 0.0
C1286 C 0.16362 0.06686 0.06042 0.0
C1287 C 0.14614 0.08086 0.04819 0.0
H1288 H 0.18233 0.06208 0.08898 0.0
H1289 H 0.00478 0.20215 0.98638 0.0
H1290 H 0.71437 0.58344 0.26122 0.0
H1291 H 0.67935 0.61271 0.26429 0.0
H1292 H 0.64508 0.5662 0.28045 0.0
H1293 H 0.68063 0.53637 0.27729 0.0
H1294 H 0.62478 0.60451 0.24816 0.0
H1295 H 0.64894 0.58722 0.3244 0.0
H1296 H 0.67539 0.57888 0.35293 0.0
H1297 H 0.68303 0.64145 0.32907 0.0
H1298 H 0.65687 0.65005 0.30014 0.0
H1299 H 0.52818 0.69456 0.28005 0.0
H1300 H 0.5568 0.65849 0.28179 0.0
H1301 H 0.60678 0.68868 0.26951 0.0
H1302 H 0.57846 0.72444 0.26775 0.0
H1303 H 0.61522 0.65439 0.30459 0.0
H1304 H 0.59462 0.66985 0.22561 0.0
H1305 H 0.56806 0.67892 0.19702 0.0
H1306 H 0.55333 0.62033 0.22617 0.0
H1307 H 0.57957 0.61108 0.25523 0.0
C1308 C 0.69944 0.5793 0.26544 0.0
C1309 C 0.70034 0.5575 0.26928 0.0
C1310 C 0.67936 0.59613 0.26718 0.0
C1311 C 0.65951 0.59174 0.2729 0.0
C1312 C 0.66018 0.57001 0.2761 0.0
C1313 C 0.68047 0.55298 0.27441 0.0
C1314 C 0.63844 0.61011 0.27613 0.0
C1315 C 0.62243 0.61515 0.26086 0.0
C1316 C 0.63541 0.62424 0.29248 0.0
C1317 C 0.65102 0.61922 0.31 0.0
C1318 C 0.65637 0.59915 0.32513 0.0
C1319 C 0.6713 0.59438 0.34139 0.0
C1320 C 0.68091 0.60961 0.34279 0.0
C1321 C 0.67557 0.62966 0.32797 0.0
C1322 C 0.66067 0.63451 0.31166 0.0
C1323 C 0.54529 0.69342 0.27779 0.0
C1324 C 0.55107 0.71234 0.27377 0.0
C1325 C 0.56163 0.67282 0.27871 0.0
C1326 C 0.58403 0.67079 0.27568 0.0
C1327 C 0.58968 0.68972 0.27198 0.0
C1328 C 0.57344 0.71021 0.27093 0.0
C1329 C 0.60183 0.64917 0.27621 0.0
C1330 C 0.6173 0.64354 0.2922 0.0
C1331 C 0.60428 0.6346 0.26054 0.0
C1332 C 0.58889 0.63988 0.24275 0.0
C1333 C 0.58562 0.65896 0.22602 0.0
C1334 C 0.57063 0.66413 0.20973 0.0
C1335 C 0.55899 0.65022 0.20981 0.0
C1336 C 0.56235 0.63109 0.22615 0.0
C1337 C 0.57729 0.62587 0.24253 0.0
H1338 H 0.54743 0.65423 0.19715 0.0
H1339 H 0.69246 0.60589 0.35539 0.0
H1340 H 0.32661 0.85189 0.51091 0.0
H1341 H 0.35557 0.86743 0.49536 0.0
H1342 H 0.38863 0.81563 0.45414 0.0
H1343 H 0.35935 0.79958 0.47009 0.0
H1344 H 0.41486 0.82739 0.48621 0.0
H1345 H 0.38151 0.85927 0.41528 0.0
H1346 H 0.34976 0.87279 0.39245 0.0
H1347 H 0.31599 0.9209 0.4376 0.0
H1348 H 0.3476 0.90771 0.46056 0.0
H1349 H 0.42615 0.94477 0.4688 0.0
H1350 H 0.42468 0.91568 0.45019 0.0
H1351 H 0.40721 0.88255 0.51884 0.0
H1352 H 0.40845 0.91138 0.53738 0.0
H1353 H 0.38996 0.90496 0.45016 0.0
H1354 H 0.42481 0.82954 0.52295 0.0
H1355 H 0.4564 0.81487 0.5458 0.0
H1356 H 0.49099 0.85136 0.49459 0.0
H1357 H 0.45971 0.8662 0.47138 0.0
C1358 C 0.34005 0.84369 0.49864 0.0
C1359 C 0.34093 0.82439 0.49198 0.0
C1360 C 0.35649 0.85266 0.48962 0.0
C1361 C 0.37413 0.84265 0.47362 0.0
C1362 C 0.37508 0.82351 0.46649 0.0
C1363 C 0.35838 0.81448 0.47552 0.0
C1364 C 0.39146 0.85261 0.4657 0.0
C1365 C 0.41014 0.84416 0.4776 0.0
C1366 C 0.38575 0.87403 0.45346 0.0
C1367 C 0.36697 0.88268 0.43939 0.0
C1368 C 0.36733 0.87281 0.4202 0.0
C1369 C 0.3494 0.88042 0.40725 0.0
C1370 C 0.33091 0.89775 0.41352 0.0
C1371 C 0.33035 0.90753 0.43272 0.0
C1372 C 0.34832 0.90007 0.44563 0.0
C1373 C 0.42197 0.93127 0.47989 0.0
C1374 C 0.41732 0.9304 0.5046 0.0
C1375 C 0.42142 0.91456 0.46924 0.0
C1376 C 0.41635 0.89669 0.48315 0.0
C1377 C 0.41193 0.89578 0.50778 0.0
C1378 C 0.41247 0.91238 0.51839 0.0
C1379 C 0.41254 0.88037 0.4723 0.0
C1380 C 0.39618 0.88786 0.45713 0.0
C1381 C 0.42096 0.85787 0.48103 0.0
C1382 C 0.43989 0.84887 0.49514 0.0
C1383 C 0.43923 0.83428 0.51634 0.0
C1384 C 0.45707 0.82601 0.52948 0.0
C1385 C 0.47572 0.83215 0.52164 0.0
C1386 C 0.47655 0.84663 0.50067 0.0
C1387 C 0.45875 0.85499 0.48751 0.0
H1388 H 0.48952 0.82573 0.53183 0.0
H1389 H 0.31699 0.90354 0.40355 0.0
H1390 H 0.02797 0.69068 0.76543 0.0
H1391 H 0.05682 0.65484 0.7677 0.0
H1392 H 0.10623 0.68574 0.75618 0.0
H1393 H 0.07776 0.7212 0.75264 0.0
H1394 H 0.12183 0.65447 0.73374 0.0
H1395 H 0.08575 0.66023 0.81352 0.0
H1396 H 0.05429 0.66515 0.84491 0.0
H1397 H 0.04338 0.60924 0.83129 0.0
H1398 H 0.07464 0.60415 0.79963 0.0
H1399 H 0.2118 0.57852 0.78202 0.0
H1400 H 0.17637 0.60752 0.78176 0.0
H1401 H 0.14577 0.56303 0.77202 0.0
H1402 H 0.18144 0.53339 0.77332 0.0
H1403 H 0.11866 0.5972 0.80276 0.0
H1404 H 0.15871 0.59117 0.72382 0.0
H1405 H 0.1956 0.58326 0.70117 0.0
H1406 H 0.20191 0.63989 0.71884 0.0
H1407 H 0.1651 0.64802 0.74181 0.0
C1408 C 0.04501 0.68974 0.76326 0.0
C1409 C 0.05052 0.70881 0.75904 0.0
C1410 C 0.06155 0.66922 0.76472 0.0
C1411 C 0.08391 0.66732 0.76256 0.0
C1412 C 0.08927 0.68649 0.75793 0.0
C1413 C 0.07286 0.70688 0.75606 0.0
C1414 C 0.10189 0.64566 0.76545 0.0
C1415 C 0.12091 0.64206 0.74885 0.0
C1416 C 0.10103 0.629 0.78496 0.0
C1417 C 0.08234 0.63197 0.80404 0.0
C1418 C 0.07655 0.64908 0.81713 0.0
C1419 C 0.05877 0.65188 0.83498 0.0
C1420 C 0.0468 0.63757 0.84003 0.0
C1421 C 0.05264 0.62035 0.82731 0.0
C1422 C 0.07038 0.61749 0.80943 0.0
C1423 C 0.1975 0.57473 0.78028 0.0
C1424 C 0.19951 0.55375 0.77722 0.0
C1425 C 0.1772 0.59135 0.78019 0.0
C1426 C 0.15843 0.58759 0.77651 0.0
C1427 C 0.16002 0.56633 0.77487 0.0
C1428 C 0.18043 0.54947 0.77537 0.0
C1429 C 0.13826 0.60652 0.77137 0.0
C1430 C 0.11906 0.60954 0.78742 0.0
C1431 C 0.13897 0.62281 0.7516 0.0
C1432 C 0.15917 0.62021 0.73449 0.0
C1433 C 0.16786 0.6021 0.72258 0.0
C1434 C 0.18885 0.59743 0.70993 0.0
C1435 C 0.20123 0.61087 0.7089 0.0
C1436 C 0.19237 0.62938 0.71989 0.0
C1437 C 0.17138 0.63411 0.73259 0.0
H1438 H 0.21753 0.60716 0.69926 0.0
H1439 H 0.03303 0.63977 0.85384 0.0
H1440 H 0.84595 0.28192 0.57113 0.0
H1441 H 0.87755 0.29154 0.57511 0.0
H1442 H 0.88732 0.31053 0.49963 0.0
H1443 H 0.85587 0.30077 0.49546 0.0
H1444 H 0.92487 0.29144 0.55094 0.0
H1445 H 0.87151 0.3641 0.49605 0.0
H1446 H 0.83404 0.37972 0.4842 0.0
H1447 H 0.80848 0.35175 0.55155 0.0
H1448 H 0.84573 0.33631 0.56386 0.0
H1449 H 0.95481 0.39186 0.52556 0.0
H1450 H 0.94794 0.35837 0.52417 0.0
H1451 H 0.89831 0.3703 0.58421 0.0
H1452 H 0.90463 0.40384 0.58544 0.0
H1453 H 0.88465 0.37085 0.53952 0.0
H1454 H 0.93922 0.32981 0.59169 0.0
H1455 H 0.97645 0.31515 0.60376 0.0
H1456 H -1e-05 0.28044 0.54467 0.0
H1457 H 0.96293 0.29504 0.53213 0.0
C1458 C 0.85553 0.28705 0.55528 0.0
C1459 C 0.84815 0.29129 0.53306 0.0
C1460 C 0.87371 0.29236 0.55757 0.0
C1461 C 0.88446 0.30199 0.53769 0.0
C1462 C 0.87915 0.30311 0.51514 0.0
C1463 C 0.861 0.29784 0.51283 0.0
C1464 C 0.89527 0.31686 0.54102 0.0
C1465 C 0.9163 0.30882 0.54832 0.0
C1466 C 0.88382 0.33945 0.53781 0.0
C1467 C 0.86136 0.34885 0.53071 0.0
C1468 C 0.85785 0.36135 0.5083 0.0
C1469 C 0.83667 0.37018 0.50153 0.0
C1470 C 0.8189 0.36669 0.5171 0.0
C1471 C 0.82226 0.35443 0.5395 0.0
C1472 C 0.84339 0.3456 0.54636 0.0
C1473 C 0.94267 0.38713 0.53867 0.0
C1474 C 0.92995 0.40064 0.55535 0.0
C1475 C 0.93904 0.36788 0.53805 0.0
C1476 C 0.9227 0.36197 0.55414 0.0
C1477 C 0.91114 0.3746 0.57182 0.0
C1478 C 0.91475 0.39376 0.57247 0.0
C1479 C 0.91433 0.34562 0.54972 0.0
C1480 C 0.89355 0.35351 0.54199 0.0
C1481 C 0.92611 0.32306 0.55272 0.0
C1482 C 0.94835 0.31402 0.56056 0.0
C1483 C 0.95237 0.31935 0.58102 0.0
C1484 C 0.97345 0.31093 0.58805 0.0
C1485 C 0.99062 0.297 0.5749 0.0
C1486 C 0.98671 0.29133 0.55478 0.0
C1487 C 0.96567 0.29968 0.5477 0.0
H1488 H 0.00692 0.29051 0.58037 0.0
H1489 H 0.80253 0.37348 0.5118 0.0
H1490 H 0.28072 0.92487 0.24772 0.0
H1491 H 0.3165 0.8967 0.24945 0.0
H1492 H 0.34825 0.94509 0.22521 0.0
H1493 H 0.31194 0.97376 0.2233 0.0
H1494 H 0.36832 0.90878 0.20273 0.0
H1495 H 0.34733 0.92228 0.28165 0.0
H1496 H 0.32259 0.92857 0.31871 0.0
H1497 H 0.319 0.86436 0.32801 0.0
H1498 H 0.34336 0.8578 0.29072 0.0
H1499 H 0.46855 0.81919 0.22666 0.0
H1500 H 0.43929 0.85479 0.22714 0.0
H1501 H 0.39101 0.82265 0.25155 0.0
H1502 H 0.41992 0.78741 0.2511 0.0
H1503 H 0.38348 0.85537 0.27606 0.0
H1504 H 0.3991 0.84532 0.19359 0.0
H1505 H 0.42299 0.83959 0.15588 0.0
H1506 H 0.43688 0.89811 0.15402 0.0
H1507 H 0.41327 0.90403 0.1919 0.0
C1508 C 0.29526 0.92964 0.24272 0.0
C1509 C 0.29346 0.9516 0.23539 0.0
C1510 C 0.31578 0.91345 0.24385 0.0
C1511 C 0.33517 0.91869 0.2378 0.0
C1512 C 0.33354 0.94062 0.23008 0.0
C1513 C 0.31282 0.95698 0.22902 0.0
C1514 C 0.35687 0.90094 0.23944 0.0
C1515 C 0.37188 0.8974 0.21892 0.0
C1516 C 0.36152 0.8859 0.26051 0.0
C1517 C 0.34712 0.88959 0.28324 0.0
C1518 C 0.34117 0.90953 0.29149 0.0
C1519 C 0.3272 0.91315 0.31256 0.0
C1520 C 0.31921 0.89688 0.32569 0.0
C1521 C 0.32521 0.87694 0.31781 0.0
C1522 C 0.33912 0.87326 0.2967 0.0
C1523 C 0.45168 0.8198 0.23207 0.0
C1524 C 0.44654 0.80049 0.23867 0.0
C1525 C 0.43495 0.84013 0.23234 0.0
C1526 C 0.41283 0.84149 0.2393 0.0
C1527 C 0.40787 0.82214 0.24617 0.0
C1528 C 0.42445 0.80195 0.24576 0.0
C1529 C 0.39456 0.86283 0.23915 0.0
C1530 C 0.38016 0.86702 0.26001 0.0
C1531 C 0.39054 0.87849 0.21846 0.0
C1532 C 0.40466 0.87496 0.1957 0.0
C1533 C 0.4074 0.85686 0.18523 0.0
C1534 C 0.42086 0.8536 0.16382 0.0
C1535 C 0.43151 0.86844 0.1526 0.0
C1536 C 0.42866 0.8866 0.16275 0.0
C1537 C 0.41524 0.88992 0.18419 0.0
H1538 H 0.44192 0.86589 0.13602 0.0
H1539 H 0.30839 0.89972 0.34199 0.0
H1540 H 0.27569 0.42968 0.73952 0.0
H1541 H 0.31086 0.40055 0.74135 0.0
H1542 H 0.34407 0.44756 0.73097 0.0
H1543 H 0.30842 0.47723 0.7289 0.0
H1544 H 0.36606 0.41304 0.70451 0.0
H1545 H 0.33706 0.42131 0.78427 0.0
H1546 H 0.30847 0.42567 0.8186 0.0
H1547 H 0.30514 0.36277 0.81773 0.0
H1548 H 0.33332 0.35823 0.783 0.0
H1549 H 0.46289 0.32089 0.73242 0.0
H1550 H 0.43365 0.3565 0.73225 0.0
H1551 H 0.38476 0.32471 0.74876 0.0
H1552 H 0.4137 0.28943 0.74929 0.0
H1553 H 0.37412 0.35557 0.77499 0.0
H1554 H 0.39774 0.35037 0.69193 0.0
H1555 H 0.42471 0.3463 0.65616 0.0
H1556 H 0.43761 0.40325 0.6633 0.0
H1557 H 0.41088 0.40749 0.6993 0.0
C1558 C 0.29043 0.43396 0.73749 0.0
C1559 C 0.28921 0.45582 0.73423 0.0
C1560 C 0.31059 0.4172 0.73865 0.0
C1561 C 0.33016 0.42175 0.73668 0.0
C1562 C 0.32918 0.44362 0.73267 0.0
C1563 C 0.30883 0.46054 0.73156 0.0
C1564 C 0.35131 0.40338 0.73927 0.0
C1565 C 0.36806 0.40071 0.72014 0.0
C1566 C 0.35385 0.38708 0.75954 0.0
C1567 C 0.33726 0.38949 0.78086 0.0
C1568 C 0.33015 0.40845 0.79128 0.0
C1569 C 0.31399 0.41096 0.81081 0.0
C1570 C 0.30497 0.39452 0.8203 0.0
C1571 C 0.31214 0.3755 0.81033 0.0
C1572 C 0.32821 0.37295 0.79071 0.0
C1573 C 0.44589 0.32157 0.73598 0.0
C1574 C 0.44062 0.30234 0.74077 0.0
C1575 C 0.42916 0.34193 0.73582 0.0
C1576 C 0.40686 0.34343 0.74036 0.0
C1577 C 0.40174 0.32413 0.74528 0.0
C1578 C 0.41835 0.30391 0.74545 0.0
C1579 C 0.38862 0.36484 0.73992 0.0
C1580 C 0.37237 0.36808 0.75952 0.0
C1581 C 0.38653 0.3816 0.72009 0.0
C1582 C 0.40253 0.37909 0.69845 0.0
C1583 C 0.40646 0.36192 0.68597 0.0
C1584 C 0.42168 0.3596 0.66564 0.0
C1585 C 0.43292 0.37446 0.65751 0.0
C1586 C 0.42892 0.39172 0.66965 0.0
C1587 C 0.41374 0.39409 0.69001 0.0
H1588 H 0.4447 0.37264 0.64176 0.0
H1589 H 0.29245 0.39652 0.8354 0.0
H1590 H 0.17117 0.75306 0.52586 0.0
H1591 H 0.13859 0.75453 0.55434 0.0
H1592 H 0.15586 0.79334 0.59304 0.0
H1593 H 0.18875 0.7918 0.56464 0.0
H1594 H 0.14577 0.75974 0.62224 0.0
H1595 H 0.11252 0.81569 0.56033 0.0
H1596 H 0.10411 0.83109 0.51949 0.0
H1597 H 0.07427 0.78323 0.52031 0.0
H1598 H 0.08274 0.76736 0.56107 0.0
H1599 H 0.04768 0.79213 0.69894 0.0
H1600 H 0.07671 0.79352 0.66646 0.0
H1601 H 0.06078 0.74917 0.63453 0.0
H1602 H 0.03166 0.74741 0.66733 0.0
H1603 H 0.06968 0.78469 0.60146 0.0
H1604 H 0.10229 0.72862 0.66225 0.0
H1605 H 0.11032 0.71224 0.703 0.0
H1606 H 0.1417 0.75847 0.70391 0.0
H1607 H 0.13348 0.77541 0.66328 0.0
C1608 C 0.16795 0.76222 0.5402 0.0
C1609 C 0.18267 0.77239 0.54282 0.0
C1610 C 0.14921 0.76306 0.55651 0.0
C1611 C 0.14462 0.77412 0.57586 0.0
C1612 C 0.15901 0.78469 0.57828 0.0
C1613 C 0.17775 0.78394 0.56189 0.0
C1614 C 0.12538 0.77386 0.59406 0.0
C1615 C 0.12911 0.76553 0.61771 0.0
C1616 C 0.10366 0.78064 0.58813 0.0
C1617 C 0.09844 0.79022 0.56368 0.0
C1618 C 0.10431 0.80835 0.55174 0.0
C1619 C 0.0995 0.81718 0.52862 0.0
C1620 C 0.08871 0.80811 0.5173 0.0
C1621 C 0.08264 0.79022 0.5291 0.0
C1622 C 0.08742 0.78132 0.55222 0.0
C1623 C 0.05007 0.78283 0.68492 0.0
C1624 C 0.03728 0.76959 0.68586 0.0
C1625 C 0.06679 0.78361 0.66636 0.0
C1626 C 0.07107 0.77131 0.64815 0.0
C1627 C 0.05778 0.75878 0.64841 0.0
C1628 C 0.04115 0.75777 0.6672 0.0
C1629 C 0.09011 0.7709 0.62957 0.0
C1630 C 0.08636 0.77898 0.60593 0.0
C1631 C 0.11186 0.76369 0.63543 0.0
C1632 C 0.11705 0.75344 0.6598 0.0
C1633 C 0.11073 0.73543 0.67121 0.0
C1634 C 0.11534 0.72602 0.69428 0.0
C1635 C 0.12647 0.73435 0.70606 0.0
C1636 C 0.13305 0.75206 0.69477 0.0
C1637 C 0.12842 0.76157 0.67171 0.0
H1638 H 0.13002 0.72704 0.72392 0.0
H1639 H 0.08501 0.81497 0.49939 0.0
H1640 H 0.21712 0.9455 0.29805 0.0
H1641 H 0.21773 0.91538 0.33007 0.0
H1642 H 0.26328 0.93092 0.36206 0.0
H1643 H 0.26351 0.96067 0.32917 0.0
H1644 H 0.2747 0.88953 0.36925 0.0
H1645 H 0.20539 0.94292 0.3839 0.0
H1646 H 0.16959 0.97032 0.37553 0.0
H1647 H 0.14877 0.92133 0.35932 0.0
H1648 H 0.18457 0.89367 0.36728 0.0
H1649 H 0.25242 0.81428 0.47434 0.0
H1650 H 0.25484 0.84789 0.44826 0.0
H1651 H 0.22064 0.83676 0.39833 0.0
H1652 H 0.21853 0.80348 0.42389 0.0
H1653 H 0.20412 0.87875 0.4055 0.0
H1654 H 0.27754 0.82599 0.38964 0.0
H1655 H 0.31258 0.80005 0.40255 0.0
H1656 H 0.32424 0.85058 0.42759 0.0
H1657 H 0.2893 0.87685 0.41478 0.0
C1658 C 0.22714 0.94275 0.31196 0.0
C1659 C 0.23995 0.95597 0.31102 0.0
C1660 C 0.22743 0.9254 0.3305 0.0
C1661 C 0.24009 0.9209 0.34921 0.0
C1662 C 0.25318 0.93391 0.34816 0.0
C1663 C 0.25316 0.95112 0.32933 0.0
C1664 C 0.23945 0.90271 0.3696 0.0
C1665 C 0.25918 0.88746 0.37734 0.0
C1666 C 0.21936 0.8997 0.38075 0.0
C1667 C 0.19774 0.91625 0.37602 0.0
C1668 C 0.19323 0.93801 0.37841 0.0
C1669 C 0.17293 0.95359 0.37376 0.0
C1670 C 0.15693 0.94758 0.36685 0.0
C1671 C 0.16119 0.92596 0.36465 0.0
C1672 C 0.18147 0.91032 0.36926 0.0
C1673 C 0.24545 0.81906 0.45782 0.0
C1674 C 0.23537 0.80605 0.45124 0.0
C1675 C 0.24689 0.83827 0.44282 0.0
C1676 C 0.23808 0.84497 0.42103 0.0
C1677 C 0.22762 0.83215 0.41489 0.0
C1678 C 0.22641 0.81301 0.42963 0.0
C1679 C 0.23926 0.86528 0.40441 0.0
C1680 C 0.21959 0.88098 0.39746 0.0
C1681 C 0.25933 0.86893 0.39457 0.0
C1682 C 0.28072 0.85334 0.40141 0.0
C1683 C 0.28758 0.83157 0.3979 0.0
C1684 C 0.30745 0.81683 0.40514 0.0
C1685 C 0.32064 0.8237 0.41582 0.0
C1686 C 0.31406 0.84534 0.41917 0.0
C1687 C 0.29425 0.86017 0.41188 0.0
H1688 H 0.33594 0.81225 0.42154 0.0
H1689 H 0.14123 0.95966 0.36325 0.0
H1690 H 0.98018 0.69993 0.61332 0.0
H1691 H 0.97766 0.67859 0.58507 0.0
H1692 H 0.98916 0.62183 0.63889 0.0
H1693 H 0.99162 0.64292 0.66705 0.0
H1694 H 0.01444 0.61296 0.59899 0.0
H1695 H 0.93801 0.65013 0.62221 0.0
H1696 H 0.905 0.6822 0.62747 0.0
H1697 H 0.91124 0.70471 0.55273 0.0
H1698 H 0.94449 0.6729 0.54708 0.0
H1699 H 0.95587 0.55242 0.55922 0.0
H1700 H 0.95801 0.58069 0.57853 0.0
H1701 H 0.00061 0.59857 0.51838 0.0
H1702 H -0.00064 0.56966 0.49927 0.0
H1703 H 0.9497 0.62926 0.55733 0.0
H1704 H 0.03106 0.59593 0.53584 0.0
H1705 H 0.06734 0.56721 0.53338 0.0
H1706 H 0.05416 0.54105 0.60606 0.0
H1707 H 0.01731 0.56882 0.60849 0.0
C1708 C 0.9821 0.68292 0.6191 0.0
C1709 C 0.98631 0.67306 0.64236 0.0
C1710 C 0.98057 0.67079 0.60299 0.0
C1711 C 0.98304 0.64868 0.60995 0.0
C1712 C 0.98726 0.63886 0.63312 0.0
C1713 C 0.98884 0.6509 0.64915 0.0
C1714 C 0.98222 0.63527 0.59307 0.0
C1715 C 0.00037 0.61668 0.58966 0.0
C1716 C 0.96387 0.6402 0.58086 0.0
C1717 C 0.94388 0.65928 0.58426 0.0
C1718 C 0.93246 0.66202 0.60693 0.0
C1719 C 0.91368 0.68013 0.60997 0.0
C1720 C 0.90607 0.69552 0.59045 0.0
C1721 C 0.91718 0.6928 0.56784 0.0
C1722 C 0.93598 0.67473 0.5647 0.0
C1723 C 0.96544 0.56257 0.54991 0.0
C1724 C 0.97751 0.55878 0.52776 0.0
C1725 C 0.96683 0.57856 0.56107 0.0
C1726 C 0.98011 0.59117 0.5502 0.0
C1727 C 0.99105 0.58839 0.52745 0.0
C1728 C 0.99002 0.57211 0.51643 0.0
C1729 C 0.98223 0.60719 0.56291 0.0
C1730 C 0.96409 0.62603 0.56596 0.0
C1731 C 0.0008 0.60275 0.57457 0.0
C1732 C 0.02099 0.58379 0.57191 0.0
C1733 C 0.03539 0.58329 0.55083 0.0
C1734 C 0.05612 0.56727 0.54953 0.0
C1735 C 0.06284 0.552 0.56941 0.0
C1736 C 0.04879 0.55264 0.59057 0.0
C1737 C 0.02785 0.5683 0.59181 0.0
H1738 H 0.0791 0.53998 0.56857 0.0
H1739 H 0.89152 0.70953 0.59285 0.0
H1740 H 0.29811 0.73548 0.43022 0.0
H1741 H 0.33068 0.73589 0.40232 0.0
H1742 H 0.35832 0.75103 0.45552 0.0
H1743 H 0.32516 0.75188 0.48301 0.0
H1744 H 0.36677 0.77353 0.41781 0.0
H1745 H 0.37644 0.69805 0.43664 0.0
H1746 H 0.36641 0.66497 0.44204 0.0
H1747 H 0.35849 0.67647 0.36841 0.0
H1748 H 0.36821 0.70977 0.36262 0.0
H1749 H 0.47101 0.71553 0.33133 0.0
H1750 H 0.44241 0.71393 0.36457 0.0
H1751 H 0.40646 0.78156 0.34251 0.0
H1752 H 0.43584 0.7835 0.31062 0.0
H1753 H 0.40439 0.71595 0.3679 0.0
H1754 H 0.36961 0.80571 0.38517 0.0
H1755 H 0.3826 0.83608 0.38509 0.0
H1756 H 0.44733 0.79123 0.39505 0.0
H1757 H 0.43467 0.76052 0.39546 0.0
C1758 C 0.31126 0.7386 0.43609 0.0
C1759 C 0.30914 0.74335 0.45897 0.0
C1760 C 0.32997 0.73878 0.4201 0.0
C1761 C 0.34736 0.74303 0.42681 0.0
C1762 C 0.34528 0.74764 0.44977 0.0
C1763 C 0.32634 0.74796 0.46559 0.0
C1764 C 0.36738 0.74327 0.40974 0.0
C1765 C 0.37506 0.76087 0.40698 0.0
C1766 C 0.37866 0.72657 0.39588 0.0
C1767 C 0.37289 0.7065 0.39925 0.0
C1768 C 0.37243 0.69359 0.42163 0.0
C1769 C 0.36682 0.67479 0.42476 0.0
C1770 C 0.36177 0.66865 0.4056 0.0
C1771 C 0.36239 0.68126 0.38325 0.0
C1772 C 0.36797 0.70008 0.38002 0.0
C1773 C 0.45715 0.73011 0.33391 0.0
C1774 C 0.45578 0.74968 0.31858 0.0
C1775 C 0.44071 0.72921 0.35286 0.0
C1776 C 0.42219 0.74772 0.35654 0.0
C1777 C 0.42077 0.7672 0.34087 0.0
C1778 C 0.43755 0.76826 0.32244 0.0
C1779 C 0.40389 0.74629 0.37581 0.0
C1780 C 0.39636 0.72853 0.37888 0.0
C1781 C 0.39332 0.76245 0.3906 0.0
C1782 C 0.40122 0.7808 0.39011 0.0
C1783 C 0.38661 0.8023 0.38741 0.0
C1784 C 0.39391 0.81959 0.38733 0.0
C1785 C 0.41578 0.8156 0.39007 0.0
C1786 C 0.4304 0.7943 0.39288 0.0
C1787 C 0.42318 0.77694 0.39298 0.0
H1788 H 0.42139 0.82901 0.39004 0.0
H1789 H 0.35742 0.65409 0.40806 0.0
H1790 H 0.28218 0.05341 0.19299 0.0
H1791 H 0.28162 0.08481 0.16237 0.0
H1792 H 0.22226 0.084 0.1417 0.0
H1793 H 0.22268 0.0525 0.17241 0.0
H1794 H 0.24959 0.09387 0.10245 0.0
H1795 H 0.2187 0.12017 0.17464 0.0
H1796 H 0.21584 0.12238 0.21686 0.0
H1797 H 0.27449 0.13956 0.20384 0.0
H1798 H 0.27793 0.13707 0.16156 0.0
H1799 H 0.22928 0.20279 0.03594 0.0
H1800 H 0.22659 0.16949 0.06201 0.0
H1801 H 0.28094 0.16663 0.09588 0.0
H1802 H 0.28256 0.20034 0.07069 0.0
H1803 H 0.25191 0.15908 0.12841 0.0
H1804 H 0.28193 0.13031 0.05389 0.0
H1805 H 0.28018 0.13076 0.01184 0.0
H1806 H 0.2176 0.12105 0.02981 0.0
H1807 H 0.21886 0.12079 0.0719 0.0
C1808 C 0.2691 0.05968 0.18181 0.0
C1809 C 0.25245 0.05027 0.18538 0.0
C1810 C 0.26874 0.0778 0.16428 0.0
C1811 C 0.25177 0.08712 0.14969 0.0
C1812 C 0.23556 0.07727 0.1526 0.0
C1813 C 0.23581 0.05921 0.17029 0.0
C1814 C 0.25054 0.10765 0.13234 0.0
C1815 C 0.24994 0.10817 0.10819 0.0
C1816 C 0.2507 0.12659 0.13956 0.0
C1817 C 0.24871 0.12821 0.16496 0.0
C1818 C 0.2311 0.12424 0.1808 0.0
C1819 C 0.22936 0.12556 0.20474 0.0
C1820 C 0.245 0.13106 0.21303 0.0
C1821 C 0.2624 0.13527 0.19739 0.0
C1822 C 0.26426 0.13391 0.17342 0.0
C1823 C 0.24082 0.19473 0.04861 0.0
C1824 C 0.25618 0.20412 0.05098 0.0
C1825 C 0.23937 0.17561 0.06363 0.0
C1826 C 0.25373 0.16504 0.08108 0.0
C1827 C 0.26953 0.17422 0.08283 0.0
C1828 C 0.27061 0.19348 0.06819 0.0
C1829 C 0.25204 0.14509 0.09823 0.0
C1830 C 0.25181 0.14475 0.12253 0.0
C1831 C 0.25068 0.12654 0.09113 0.0
C1832 C 0.25045 0.12565 0.066 0.0
C1833 C 0.26781 0.12827 0.04885 0.0
C1834 C 0.26688 0.12853 0.02501 0.0
C1835 C 0.24874 0.12602 0.01814 0.0
C1836 C 0.23159 0.12305 0.03513 0.0
C1837 C 0.23244 0.12279 0.05898 0.0
H1838 H 0.24799 0.12634 0.99967 0.0
H1839 H 0.24362 0.13209 0.23158 0.0
H1840 H 0.83119 0.75527 0.98626 0.0
H1841 H 0.86414 0.75334 0.95804 0.0
H1842 H 0.84101 0.72455 0.91293 0.0
H1843 H 0.80825 0.72602 0.94121 0.0
H1844 H 0.88437 0.70535 0.91443 0.0
H1845 H 0.83386 0.77967 0.9069 0.0
H1846 H 0.81236 0.81434 0.92114 0.0
H1847 H 0.87155 0.82193 0.93316 0.0
H1848 H 0.89337 0.78677 0.92008 0.0
H1849 H 0.94282 0.72453 0.80259 0.0
H1850 H 0.91587 0.7223 0.83711 0.0
H1851 H 0.9402 0.75958 0.87071 0.0
H1852 H 0.96652 0.76276 0.8356 0.0
H1853 H 0.89887 0.77386 0.87841 0.0
H1854 H 0.94979 0.70222 0.88808 0.0
H1855 H 0.97383 0.66686 0.87693 0.0
H1856 H 0.91776 0.65379 0.86428 0.0
H1857 H 0.89339 0.68922 0.87503 0.0
C1858 C 0.83322 0.7482 0.97053 0.0
C1859 C 0.81692 0.74086 0.96605 0.0
C1860 C 0.85207 0.74726 0.95429 0.0
C1861 C 0.85494 0.73916 0.93308 0.0
C1862 C 0.83917 0.73096 0.92908 0.0
C1863 C 0.82039 0.73181 0.94533 0.0
C1864 C 0.87389 0.73978 0.9146 0.0
C1865 C 0.88743 0.72037 0.90642 0.0
C1866 C 0.87854 0.75924 0.90478 0.0
C1867 C 0.86527 0.78041 0.91269 0.0
C1868 C 0.8423 0.78858 0.91282 0.0
C1869 C 0.83005 0.80835 0.92067 0.0
C1870 C 0.84059 0.82043 0.92783 0.0
C1871 C 0.8634 0.81261 0.92749 0.0
C1872 C 0.87571 0.79269 0.92 0.0
C1873 C 0.94265 0.73203 0.81744 0.0
C1874 C 0.95696 0.7437 0.81635 0.0
C1875 C 0.92723 0.73067 0.8373 0.0
C1876 C 0.92609 0.74043 0.8569 0.0
C1877 C 0.94063 0.75186 0.85594 0.0
C1878 C 0.95579 0.75358 0.83587 0.0
C1879 C 0.90919 0.73944 0.87788 0.0
C1880 C 0.89601 0.75877 0.88654 0.0
C1881 C 0.90521 0.71985 0.88859 0.0
C1882 C 0.91978 0.69847 0.88218 0.0
C1883 C 0.94259 0.69188 0.88277 0.0
C1884 C 0.95628 0.67181 0.87654 0.0
C1885 C 0.94733 0.65811 0.86986 0.0
C1886 C 0.92467 0.66443 0.86944 0.0
C1887 C 0.91091 0.68449 0.87563 0.0
H1888 H 0.95796 0.64258 0.86504 0.0
H1889 H 0.83106 0.83576 0.93382 0.0
H1890 H 0.27165 0.56593 0.70656 0.0
H1891 H 0.27071 0.59643 0.67444 0.0
H1892 H 0.2286 0.57789 0.64058 0.0
H1893 H 0.22822 0.54849 0.67338 0.0
H1894 H 0.284 0.59979 0.62966 0.0
H1895 H 0.20428 0.60542 0.61459 0.0
H1896 H 0.16624 0.6073 0.63086 0.0
H1897 H 0.16482 0.64917 0.67831 0.0
H1898 H 0.20324 0.64663 0.66303 0.0
H1899 H 0.27146 0.68668 0.52882 0.0
H1900 H 0.27134 0.65204 0.55416 0.0
H1901 H 0.22774 0.68749 0.60805 0.0
H1902 H 0.22769 0.7216 0.58302 0.0
H1903 H 0.21481 0.65551 0.60535 0.0
H1904 H 0.28487 0.66238 0.61003 0.0
H1905 H 0.32116 0.66569 0.59363 0.0
H1906 H 0.3401 0.60544 0.56705 0.0
H1907 H 0.3038 0.60192 0.58306 0.0
C1908 C 0.26205 0.56843 0.69233 0.0
C1909 C 0.2499 0.55469 0.6928 0.0
C1910 C 0.26147 0.58601 0.67387 0.0
C1911 C 0.24888 0.59036 0.6551 0.0
C1912 C 0.2374 0.57609 0.6552 0.0
C1913 C 0.23759 0.55881 0.67389 0.0
C1914 C 0.24865 0.6092 0.63527 0.0
C1915 C 0.26878 0.61181 0.62428 0.0
C1916 C 0.22902 0.62525 0.62776 0.0
C1917 C 0.2069 0.62496 0.63851 0.0
C1918 C 0.19605 0.61446 0.62901 0.0
C1919 C 0.17443 0.61569 0.638 0.0
C1920 C 0.16324 0.62807 0.65589 0.0
C1921 C 0.17363 0.6393 0.66472 0.0
C1922 C 0.19541 0.63773 0.65613 0.0
C1923 C 0.26168 0.68701 0.54595 0.0
C1924 C 0.24966 0.70699 0.55386 0.0
C1925 C 0.26174 0.66717 0.56057 0.0
C1926 C 0.2497 0.66691 0.58336 0.0
C1927 C 0.2372 0.68696 0.59072 0.0
C1928 C 0.23725 0.70658 0.57631 0.0
C1929 C 0.25008 0.64615 0.60001 0.0
C1930 C 0.23003 0.64326 0.61045 0.0
C1931 C 0.26975 0.62996 0.607 0.0
C1932 C 0.29156 0.63202 0.59749 0.0
C1933 C 0.29673 0.64993 0.60054 0.0
C1934 C 0.3173 0.65182 0.59134 0.0
C1935 C 0.3329 0.63582 0.57924 0.0
C1936 C 0.32798 0.61785 0.57638 0.0
C1937 C 0.30742 0.61589 0.58552 0.0
H1938 H 0.34882 0.63732 0.57214 0.0
H1939 H 0.14646 0.62915 0.66273 0.0
H1940 H 0.36108 0.99411 0.34295 0.0
H1941 H 0.37995 0.99703 0.37365 0.0
H1942 H 0.31832 0.03507 0.40803 0.0
H1943 H 0.29909 0.03216 0.37709 0.0
H1944 H 0.35423 0.05151 0.40358 0.0
H1945 H 0.33858 0.98531 0.43092 0.0
H1946 H 0.33673 0.95149 0.42222 0.0
H1947 H 0.40694 0.92716 0.40769 0.0
H1948 H 0.4093 0.96107 0.41497 0.0
H1949 H 0.43006 0.04029 0.48394 0.0
H1950 H 0.3966 0.04093 0.47034 0.0
H1951 H 0.43598 0.99295 0.4261 0.0
H1952 H 0.46915 0.99176 0.44025 0.0
H1953 H 0.40128 0.98338 0.44692 0.0
H1954 H 0.41577 0.04943 0.40517 0.0
H1955 H 0.42049 0.08484 0.40308 0.0
H1956 H 0.35592 0.10882 0.44036 0.0
H1957 H 0.35094 0.07343 0.44286 0.0
C1958 C 0.35144 1.00283 0.3572 0.0
C1959 C 0.32857 0.0126 0.35786 0.0
C1960 C 0.36227 0.00462 0.37463 0.0
C1961 C 0.35044 0.016 0.39322 0.0
C1962 C 0.32765 0.02616 0.39382 0.0
C1963 C 0.31674 0.02444 0.37622 0.0
C1964 C 0.36235 0.01679 0.41195 0.0
C1965 C 0.36404 0.03673 0.41369 0.0
C1966 C 0.37521 0.99741 0.4249 0.0
C1967 C 0.37406 0.97595 0.42323 0.0
C1968 C 0.35365 0.97275 0.4258 0.0
C1969 C 0.35252 0.95359 0.42088 0.0
C1970 C 0.37172 0.93736 0.41383 0.0
C1971 C 0.39209 0.93993 0.4125 0.0
C1972 C 0.39334 0.95911 0.41708 0.0
C1973 C 0.43143 0.02978 0.47147 0.0
C1974 C 0.45205 0.01595 0.46312 0.0
C1975 C 0.41239 0.03026 0.46361 0.0
C1976 C 0.41381 0.01706 0.44714 0.0
C1977 C 0.43447 1.00318 0.43894 0.0
C1978 C 0.45342 1.00264 0.44684 0.0
C1979 C 0.39413 0.01797 0.43751 0.0
C1980 C 0.39081 0.99831 0.43771 0.0
C1981 C 0.3801 0.03754 0.42599 0.0
C1982 C 0.38311 0.05875 0.42448 0.0
C1983 C 0.40266 0.06222 0.41306 0.0
C1984 C 0.40537 0.08228 0.41178 0.0
C1985 C 0.38855 0.09904 0.42166 0.0
C1986 C 0.36896 0.0958 0.43277 0.0
C1987 C 0.36618 0.07576 0.43413 0.0
H1988 H 0.39067 0.11457 0.42064 0.0
H1989 H 0.37089 0.92272 0.4095 0.0
H1990 H 0.82938 0.86208 0.99087 0.0
H1991 H 0.86517 0.86624 0.98871 0.0
H1992 H 0.89688 0.79732 0.98907 0.0
H1993 H 0.86106 0.79312 0.99104 0.0
H1994 H 0.9015 0.81083 0.028 0.0
H1995 H 0.91707 0.82928 0.94632 0.0
H1996 H 0.91092 0.84638 0.90527 0.0
H1997 H 0.89427 0.90949 0.92453 0.0
H1998 H 0.90012 0.89284 0.96574 0.0
H1999 H 0.97076 0.88496 0.03308 0.0
H2000 H 0.96591 0.85623 0.01656 0.0
H2001 H 0.90054 0.86973 0.054 0.0
H2002 H 0.90494 0.89915 0.0694 0.0
H2003 H 0.93131 0.86937 0.9875 0.0
H2004 H 0.89014 0.8224 0.06768 0.0
H2005 H 0.89648 0.80579 0.1088 0.0
H2006 H 0.96482 0.79922 0.09185 0.0
H2007 H 0.959 0.81548 0.05052 0.0
C2008 C 0.84407 0.84798 0.98958 0.0
C2009 C 0.84252 0.82728 0.99154 0.0
C2010 C 0.86454 0.85037 0.98808 0.0
C2011 C 0.88367 0.83204 0.9888 0.0
C2012 C 0.88232 0.81164 0.98837 0.0
C2013 C 0.86185 0.80929 0.98956 0.0
C2014 C 0.90326 0.83372 0.99615 0.0
C2015 C 0.90849 0.82325 0.01891 0.0
C2016 C 0.91283 0.84946 0.98398 0.0
C2017 C 0.90906 0.85975 0.95921 0.0
C2018 C 0.91198 0.84682 0.94187 0.0
C2019 C 0.90858 0.85644 0.91854 0.0
C2020 C 0.90219 0.87901 0.91231 0.0
C2021 C 0.89922 0.89201 0.92939 0.0
C2022 C 0.90268 0.88247 0.95273 0.0
C2023 C 0.95551 0.88151 0.03788 0.0
C2024 C 0.93795 0.89456 0.05174 0.0
C2025 C 0.95287 0.86504 0.02869 0.0
C2026 C 0.93288 0.86105 0.03393 0.0
C2027 C 0.91618 0.87253 0.0499 0.0
C2028 C 0.91868 0.88926 0.05874 0.0
C2029 C 0.92766 0.84788 0.01998 0.0
C2030 C 0.92515 0.85625 0.9961 0.0
C2031 C 0.92049 0.83029 0.03112 0.0
C2032 C 0.92412 0.82018 0.05594 0.0
C2033 C 0.90657 0.81724 0.07263 0.0
C2034 C 0.91006 0.80793 0.09602 0.0
C2035 C 0.93103 0.80146 0.10294 0.0
C2036 C 0.94857 0.80427 0.08648 0.0
C2037 C 0.94518 0.81356 0.06308 0.0
H2038 H 0.93369 0.79427 0.12105 0.0
H2039 H 0.89956 0.88642 0.89425 0.0
H2040 H 0.6151 0.2325 0.48029 0.0
H2041 H 0.58401 0.21954 0.48413 0.0
H2042 H 0.61771 0.16168 0.52973 0.0
H2043 H 0.6486 0.17466 0.52609 0.0
H2044 H 0.59161 0.18635 0.46458 0.0
H2045 H 0.58394 0.1351 0.56021 0.0
H2046 H 0.57646 0.14122 0.60163 0.0
H2047 H 0.55001 0.21002 0.5792 0.0
H2048 H 0.55693 0.20434 0.53765 0.0
H2049 H 0.59698 0.08063 0.46468 0.0
H2050 H 0.6005 0.11456 0.47023 0.0
H2051 H 0.53316 0.1352 0.50244 0.0
H2052 H 0.52953 0.10137 0.49668 0.0
H2053 H 0.56127 0.13957 0.52897 0.0
H2054 H 0.5437 0.16163 0.451 0.0
H2055 H 0.54491 0.1589 0.40921 0.0
H2056 H 0.61257 0.15532 0.39639 0.0
H2057 H 0.61188 0.15769 0.43819 0.0
C2058 C 0.61548 0.21735 0.49176 0.0
C2059 C 0.6344 0.20429 0.50244 0.0
C2060 C 0.59767 0.21005 0.49407 0.0
C2061 C 0.59861 0.18955 0.50699 0.0
C2062 C 0.61645 0.17767 0.51986 0.0
C2063 C 0.63422 0.18503 0.51766 0.0
C2064 C 0.58444 0.17822 0.50237 0.0
C2065 C 0.58456 0.17649 0.47872 0.0
C2066 C 0.57466 0.16579 0.5207 0.0
C2067 C 0.57116 0.16928 0.5457 0.0
C2068 C 0.57649 0.15154 0.56406 0.0
C2069 C 0.57232 0.15493 0.5876 0.0
C2070 C 0.5628 0.17599 0.59304 0.0
C2071 C 0.55746 0.19372 0.57496 0.0
C2072 C 0.56157 0.19042 0.55139 0.0
C2073 C 0.58289 0.09256 0.47263 0.0
C2074 C 0.56311 0.08838 0.48056 0.0
C2075 C 0.58488 0.11188 0.47581 0.0
C2076 C 0.56706 0.1273 0.48679 0.0
C2077 C 0.5471 0.1234 0.49414 0.0
C2078 C 0.54509 0.10413 0.49087 0.0
C2079 C 0.5699 0.14694 0.49147 0.0
C2080 C 0.56779 0.14998 0.51499 0.0
C2081 C 0.57716 0.16114 0.47303 0.0
C2082 C 0.57774 0.15977 0.44779 0.0
C2083 C 0.55888 0.16012 0.43931 0.0
C2084 C 0.55947 0.15865 0.41561 0.0
C2085 C 0.57881 0.15692 0.40016 0.0
C2086 C 0.59759 0.15668 0.40838 0.0
C2087 C 0.5971 0.15812 0.43208 0.0
H2088 H 0.57923 0.15579 0.38182 0.0
H2089 H 0.55953 0.17857 0.61128 0.0
H2090 H 0.77826 0.4275 0.24656 0.0
H2091 H 0.81318 0.39801 0.24774 0.0
H2092 H 0.84764 0.44434 0.23261 0.0
H2093 H 0.81221 0.47436 0.23096 0.0
H2094 H 0.86823 0.41002 0.20739 0.0
H2095 H 0.84219 0.41759 0.28784 0.0
H2096 H 0.81514 0.42167 0.32352 0.0
H2097 H 0.81018 0.35938 0.32294 0.0
H2098 H 0.83682 0.3551 0.28694 0.0
H2099 H 0.96488 0.31567 0.23244 0.0
H2100 H 0.93647 0.35177 0.2331 0.0
H2101 H 0.88614 0.3218 0.24992 0.0
H2102 H 0.91417 0.28611 0.24944 0.0
H2103 H 0.87764 0.35188 0.27723 0.0
H2104 H 0.89847 0.34768 0.19353 0.0
H2105 H 0.92448 0.34382 0.15702 0.0
H2106 H 0.93913 0.3998 0.16416 0.0
H2107 H 0.91338 0.40383 0.20091 0.0
C2108 C 0.79321 0.43155 0.24341 0.0
C2109 C 0.79239 0.45335 0.23883 0.0
C2110 C 0.81325 0.41458 0.24422 0.0
C2111 C 0.83315 0.41881 0.2407 0.0
C2112 C 0.83253 0.4406 0.23556 0.0
C2113 C 0.81229 0.45775 0.23472 0.0
C2114 C 0.85428 0.4002 0.24252 0.0
C2115 C 0.87052 0.39755 0.22288 0.0
C2116 C 0.8573 0.38371 0.26263 0.0
C2117 C 0.84147 0.38607 0.28456 0.0
C2118 C 0.83524 0.40481 0.29521 0.0
C2119 C 0.81996 0.40716 0.3155 0.0
C2120 C 0.81094 0.39079 0.32548 0.0
C2121 C 0.81718 0.37204 0.31519 0.0
C2122 C 0.83239 0.36964 0.29484 0.0
C2123 C 0.94774 0.31687 0.23621 0.0
C2124 C 0.9418 0.29801 0.24079 0.0
C2125 C 0.93149 0.33751 0.23655 0.0
C2126 C 0.90902 0.33965 0.24148 0.0
C2127 C 0.90325 0.32073 0.24616 0.0
C2128 C 0.91937 0.30026 0.24576 0.0
C2129 C 0.89122 0.36132 0.24179 0.0
C2130 C 0.87559 0.36455 0.26191 0.0
C2131 C 0.8888 0.37829 0.22217 0.0
C2132 C 0.90423 0.37588 0.20011 0.0
C2133 C 0.90738 0.35905 0.18742 0.0
C2134 C 0.92204 0.35686 0.16666 0.0
C2135 C 0.93351 0.37151 0.15832 0.0
C2136 C 0.93028 0.38844 0.17068 0.0
C2137 C 0.91565 0.39069 0.19146 0.0
H2138 H 0.94485 0.36979 0.14224 0.0
H2139 H 0.79917 0.3926 0.34121 0.0
H2140 H 0.09972 0.57093 0.46172 0.0
H2141 H 0.10883 0.6018 0.46756 0.0
H2142 H 0.04214 0.63108 0.49823 0.0
H2143 H 0.03287 0.60031 0.49187 0.0
H2144 H 0.09295 0.6437 0.4494 0.0
H2145 H 0.04417 0.65869 0.54009 0.0
H2146 H 0.03364 0.63982 0.57914 0.0
H2147 H 0.0886 0.58245 0.56732 0.0
H2148 H 0.09921 0.60094 0.52805 0.0
H2149 H 0.12939 0.72398 0.46866 0.0
H2150 H 0.09961 0.70953 0.47013 0.0
H2151 H 0.12997 0.65532 0.52189 0.0
H2152 H 0.15902 0.67016 0.52114 0.0
H2153 H 0.08783 0.66294 0.52848 0.0
H2154 H 0.14503 0.65556 0.46062 0.0
H2155 H 0.16558 0.67051 0.42552 0.0
H2156 H 0.10569 0.70441 0.3943 0.0
H2157 H 0.08477 0.68986 0.42942 0.0
C2158 C 0.08696 0.58409 0.46942 0.0
C2159 C 0.06561 0.58331 0.47639 0.0
C2160 C 0.09218 0.60162 0.47289 0.0
C2161 C 0.07617 0.61865 0.48344 0.0
C2162 C 0.05477 0.61798 0.49032 0.0
C2163 C 0.04952 0.60046 0.48671 0.0
C2164 C 0.08206 0.6372 0.48656 0.0
C2165 C 0.09151 0.64814 0.46665 0.0
C2166 C 0.08012 0.64306 0.509 0.0
C2167 C 0.07221 0.63104 0.53105 0.0
C2168 C 0.05373 0.64191 0.54568 0.0
C2169 C 0.04778 0.63129 0.56785 0.0
C2170 C 0.06035 0.60987 0.57565 0.0
C2171 C 0.07878 0.59898 0.56119 0.0
C2172 C 0.08463 0.60944 0.53887 0.0
C2173 C 0.12919 0.70937 0.48088 0.0
C2174 C 0.14655 0.69792 0.49451 0.0
C2175 C 0.11223 0.70115 0.48172 0.0
C2176 C 0.11292 0.68107 0.49564 0.0
C2177 C 0.12911 0.67082 0.51097 0.0
C2178 C 0.14577 0.67925 0.51049 0.0
C2179 C 0.09957 0.6687 0.49152 0.0
C2180 C 0.08846 0.65911 0.5111 0.0
C2181 C 0.10077 0.6634 0.46891 0.0
C2182 C 0.11334 0.67185 0.44769 0.0
C2183 C 0.13627 0.66626 0.44629 0.0
C2184 C 0.14797 0.67467 0.42641 0.0
C2185 C 0.13694 0.68845 0.40771 0.0
C2186 C 0.11419 0.69378 0.40882 0.0
C2187 C 0.10241 0.68548 0.4287 0.0
H2188 H 0.14602 0.69495 0.39234 0.0
H2189 H 0.05587 0.60171 0.59291 0.0
H2190 H 0.68161 0.04034 0.78082 0.0
H2191 H 0.64583 0.06986 0.78158 0.0
H2192 H 0.67889 0.11662 0.77415 0.0
H2193 H 0.71435 0.0876 0.77259 0.0
H2194 H 0.6425 0.12167 0.81056 0.0
H2195 H 0.66177 0.11418 0.72844 0.0
H2196 H 0.67213 0.09465 0.6943 0.0
H2197 H 0.61206 0.07988 0.71049 0.0
H2198 H 0.60149 0.09907 0.74502 0.0
H2199 H 0.57347 0.22603 0.7702 0.0
H2200 H 0.60276 0.19091 0.77315 0.0
H2201 H 0.55545 0.15858 0.77824 0.0
H2202 H 0.52571 0.19406 0.77555 0.0
H2203 H 0.59529 0.14265 0.74621 0.0
H2204 H 0.57452 0.15528 0.82642 0.0
H2205 H 0.56524 0.1766 0.85897 0.0
H2206 H 0.62942 0.18282 0.84522 0.0
H2207 H 0.63899 0.16181 0.81235 0.0
C2208 C 0.68119 0.05692 0.77929 0.0
C2209 C 0.70082 0.06162 0.77653 0.0
C2210 C 0.66076 0.07376 0.77974 0.0
C2211 C 0.65967 0.09548 0.77793 0.0
C2212 C 0.67927 0.10003 0.77567 0.0
C2213 C 0.69957 0.08337 0.77476 0.0
C2214 C 0.63831 0.11371 0.77822 0.0
C2215 C 0.63217 0.12623 0.79651 0.0
C2216 C 0.62463 0.11951 0.76008 0.0
C2217 C 0.63098 0.10781 0.73949 0.0
C2218 C 0.65088 0.10656 0.72489 0.0
C2219 C 0.65676 0.09561 0.70542 0.0
C2220 C 0.64275 0.08604 0.70022 0.0
C2221 C 0.62287 0.08734 0.71453 0.0
C2222 C 0.61693 0.09823 0.73406 0.0
C2223 C 0.5692 0.21148 0.77203 0.0
C2224 C 0.54722 0.21284 0.77278 0.0
C2225 C 0.58601 0.19137 0.77371 0.0
C2226 C 0.58136 0.17203 0.77608 0.0
C2227 C 0.55945 0.17327 0.77645 0.0
C2228 C 0.54247 0.19352 0.77502 0.0
C2229 C 0.59962 0.15076 0.77846 0.0
C2230 C 0.60528 0.13776 0.76061 0.0
C2231 C 0.61303 0.14457 0.79692 0.0
C2232 C 0.60742 0.15707 0.81681 0.0
C2233 C 0.58661 0.16132 0.83022 0.0
C2234 C 0.5813 0.17333 0.84875 0.0
C2235 C 0.59672 0.18109 0.85414 0.0
C2236 C 0.61749 0.1768 0.84103 0.0
C2237 C 0.62288 0.16482 0.82247 0.0
H2238 H 0.59258 0.19039 0.86848 0.0
H2239 H 0.6473 0.07762 0.68511 0.0
H2240 H 0.73206 0.55034 0.17326 0.0
H2241 H 0.73216 0.58177 0.14262 0.0
H2242 H 0.7786 0.59377 0.17676 0.0
H2243 H 0.77879 0.56233 0.20723 0.0
H2244 H 0.74346 0.63126 0.16549 0.0
H2245 H 0.79458 0.57253 0.1257 0.0
H2246 H 0.80556 0.53813 0.10998 0.0
H2247 H 0.7536 0.56584 0.06577 0.0
H2248 H 0.74212 0.60033 0.08147 0.0
H2249 H 0.7803 0.70747 0.0849 0.0
H2250 H 0.77767 0.6743 0.1102 0.0
H2251 H 0.7374 0.66772 0.06351 0.0
H2252 H 0.74042 0.70118 0.03754 0.0
H2253 H 0.76508 0.62801 0.07981 0.0
H2254 H 0.71427 0.68624 0.11604 0.0
H2255 H 0.70051 0.72114 0.13113 0.0
H2256 H 0.74696 0.69529 0.18183 0.0
H2257 H 0.76126 0.66031 0.16678 0.0
C2258 C 0.74253 0.55948 0.17414 0.0
C2259 C 0.75553 0.55354 0.19282 0.0
C2260 C 0.74257 0.57752 0.15652 0.0
C2261 C 0.75543 0.5903 0.15718 0.0
C2262 C 0.7685 0.58431 0.17571 0.0
C2263 C 0.76869 0.56614 0.19314 0.0
C2264 C 0.7549 0.61023 0.13909 0.0
C2265 C 0.74845 0.63044 0.14681 0.0
C2266 C 0.76037 0.60959 0.11446 0.0
C2267 C 0.76735 0.58892 0.10494 0.0
C2268 C 0.78538 0.57123 0.11277 0.0
C2269 C 0.79172 0.55173 0.10383 0.0
C2270 C 0.78025 0.54978 0.08694 0.0
C2271 C 0.76245 0.56736 0.07889 0.0
C2272 C 0.75604 0.58689 0.08778 0.0
C2273 C 0.77096 0.69897 0.07982 0.0
C2274 C 0.76053 0.70712 0.05914 0.0
C2275 C 0.76936 0.67994 0.09447 0.0
C2276 C 0.75695 0.66849 0.08925 0.0
C2277 C 0.74702 0.67618 0.06814 0.0
C2278 C 0.74875 0.69533 0.05325 0.0
C2279 C 0.75424 0.64895 0.10632 0.0
C2280 C 0.75998 0.62886 0.09847 0.0
C2281 C 0.74761 0.64974 0.13084 0.0
C2282 C 0.73896 0.67068 0.14015 0.0
C2283 C 0.72166 0.68803 0.13031 0.0
C2284 C 0.71375 0.70783 0.13886 0.0
C2285 C 0.72288 0.71044 0.1574 0.0
C2286 C 0.73991 0.69324 0.16746 0.0
C2287 C 0.74792 0.67341 0.15893 0.0
H2288 H 0.71674 0.72578 0.164 0.0
H2289 H 0.78518 0.53467 0.08004 0.0
H2290 H 0.98044 0.46283 0.45819 0.0
H2291 H 0.95237 0.45222 0.44683 0.0
H2292 H 0.90302 0.51178 0.46447 0.0
H2293 H 0.93123 0.5219 0.47738 0.0
H2294 H 0.88638 0.47776 0.47301 0.0
H2295 H 0.92907 0.50958 0.40835 0.0
H2296 H 0.96314 0.51269 0.38409 0.0
H2297 H 0.98082 0.44753 0.37018 0.0
H2298 H 0.94697 0.44395 0.39461 0.0
H2299 H 0.8152 0.50155 0.38536 0.0
H2300 H 0.83828 0.49769 0.41539 0.0
H2301 H 0.88527 0.44001 0.39052 0.0
H2302 H 0.86228 0.44399 0.36016 0.0
H2303 H 0.90378 0.46892 0.38841 0.0
H2304 H 0.8587 0.43859 0.44806 0.0
H2305 H 0.82445 0.43525 0.47157 0.0
H2306 H 0.81087 0.49624 0.49468 0.0
H2307 H 0.84492 0.50008 0.47107 0.0
C2308 C 0.96355 0.47349 0.46009 0.0
C2309 C 0.95797 0.49337 0.46821 0.0
C2310 C 0.94753 0.46739 0.45361 0.0
C2311 C 0.92574 0.48149 0.45415 0.0
C2312 C 0.9198 0.50074 0.46376 0.0
C2313 C 0.93586 0.50659 0.47095 0.0
C2314 C 0.91006 0.4773 0.44201 0.0
C2315 C 0.89001 0.47599 0.45447 0.0
C2316 C 0.91516 0.47435 0.418 0.0
C2317 C 0.93557 0.47646 0.40341 0.0
C2318 C 0.94029 0.49588 0.40022 0.0
C2319 C 0.95954 0.49774 0.3864 0.0
C2320 C 0.97409 0.48035 0.37552 0.0
C2321 C 0.96947 0.46103 0.37851 0.0
C2322 C 0.95027 0.45907 0.39235 0.0
C2323 C 0.83005 0.48759 0.38683 0.0
C2324 C 0.83708 0.4732 0.37024 0.0
C2325 C 0.84324 0.48537 0.40409 0.0
C2326 C 0.86356 0.46858 0.40523 0.0
C2327 C 0.8697 0.45315 0.38991 0.0
C2328 C 0.8566 0.45546 0.37254 0.0
C2329 C 0.87986 0.4694 0.41928 0.0
C2330 C 0.90011 0.47028 0.40708 0.0
C2331 C 0.87487 0.47188 0.44344 0.0
C2332 C 0.85431 0.4697 0.45762 0.0
C2333 C 0.84833 0.45139 0.45799 0.0
C2334 C 0.82896 0.44938 0.47137 0.0
C2335 C 0.81546 0.46555 0.48456 0.0
C2336 C 0.82133 0.48373 0.48444 0.0
C2337 C 0.84069 0.48581 0.47109 0.0
H2338 H 0.80048 0.46397 0.49491 0.0
H2339 H 0.989 0.48181 0.36487 0.0
H2340 H 0.13338 0.5346 0.64721 0.0
H2341 H 0.11082 0.53079 0.6206 0.0
H2342 H 0.16064 0.47077 0.60521 0.0
H2343 H 0.18357 0.47461 0.63168 0.0
H2344 H 0.13605 0.497 0.56576 0.0
H2345 H 0.12631 0.46395 0.64582 0.0
H2346 H 0.12146 0.46222 0.68905 0.0
H2347 H 0.05985 0.51429 0.68515 0.0
H2348 H 0.06453 0.51659 0.64184 0.0
H2349 H 0.05155 0.46665 0.53153 0.0
H2350 H 0.08417 0.46664 0.54633 0.0
H2351 H 0.0427 0.51578 0.58828 0.0
H2352 H 0.01056 0.51558 0.57389 0.0
H2353 H 0.06826 0.48816 0.61393 0.0
H2354 H 0.08488 0.52435 0.53032 0.0
H2355 H 0.09447 0.52483 0.48722 0.0
H2356 H 0.14395 0.46229 0.49871 0.0
H2357 H 0.13545 0.4618 0.54185 0.0
C2358 C 0.13994 0.52103 0.63749 0.0
C2359 C 0.16009 0.50474 0.64175 0.0
C2360 C 0.12699 0.51883 0.62238 0.0
C2361 C 0.134 0.50034 0.61132 0.0
C2362 C 0.155 0.48511 0.61369 0.0
C2363 C 0.16796 0.48724 0.62892 0.0
C2364 C 0.11805 0.49546 0.60051 0.0
C2365 C 0.12123 0.49495 0.5762 0.0
C2366 C 0.09909 0.49226 0.61435 0.0
C2367 C 0.09593 0.49065 0.6405 0.0
C2368 C 0.11182 0.47518 0.65414 0.0
C2369 C 0.10909 0.47406 0.67868 0.0
C2370 C 0.09039 0.48819 0.68984 0.0
C2371 C 0.07435 0.50339 0.67648 0.0
C2372 C 0.07704 0.50461 0.65192 0.0
C2373 C 0.04963 0.47767 0.54363 0.0
C2374 C 0.02865 0.49107 0.5517 0.0
C2375 C 0.06828 0.47783 0.55192 0.0
C2376 C 0.06613 0.49169 0.56802 0.0
C2377 C 0.04504 0.50527 0.57557 0.0
C2378 C 0.02655 0.505 0.56751 0.0
C2379 C 0.08521 0.49137 0.57858 0.0
C2380 C 0.08289 0.4904 0.60322 0.0
C2381 C 0.10505 0.49287 0.56503 0.0
C2382 C 0.10938 0.49294 0.53923 0.0
C2383 C 0.09771 0.51067 0.52365 0.0
C2384 C 0.10297 0.51098 0.49924 0.0
C2385 C 0.11949 0.49351 0.49025 0.0
C2386 C 0.13107 0.47577 0.50567 0.0
C2387 C 0.12618 0.47554 0.53008 0.0
H2388 H 0.12343 0.49381 0.47134 0.0
H2389 H 0.0883 0.4873 0.70884 0.0
H2390 H 0.55567 0.73008 0.19059 0.0
H2391 H 0.58583 0.7319 0.15954 0.0
H2392 H 0.56346 0.80164 0.15485 0.0
H2393 H 0.5338 0.79979 0.18664 0.0
H2394 H 0.59105 0.74761 0.11613 0.0
H2395 H 0.60549 0.82117 0.14013 0.0
H2396 H 0.601 0.83831 0.17521 0.0
H2397 H 0.60582 0.77741 0.22031 0.0
H2398 H 0.61064 0.75987 0.1855 0.0
H2399 H 0.66916 0.77412 0.02481 0.0
H2400 H 0.63625 0.77591 0.05327 0.0
H2401 H 0.67472 0.76342 0.11055 0.0
H2402 H 0.70698 0.76366 0.08192 0.0
H2403 H 0.63886 0.78852 0.12324 0.0
H2404 H 0.6573 0.72324 0.08979 0.0
H2405 H 0.66485 0.70139 0.05795 0.0
H2406 H 0.60034 0.73684 0.03771 0.0
H2407 H 0.59252 0.75912 0.06917 0.0
C2408 C 0.55703 0.74585 0.18283 0.0
C2409 C 0.54234 0.76479 0.19125 0.0
C2410 C 0.57435 0.74687 0.165 0.0
C2411 C 0.57733 0.76687 0.15499 0.0
C2412 C 0.562 0.78592 0.16261 0.0
C2413 C 0.54489 0.78487 0.18072 0.0
C2414 C 0.59675 0.76765 0.13709 0.0
C2415 C 0.60149 0.75658 0.11771 0.0
C2416 C 0.6108 0.77893 0.1392 0.0
C2417 C 0.60817 0.78929 0.16022 0.0
C2418 C 0.60567 0.81143 0.15753 0.0
C2419 C 0.60306 0.82122 0.17737 0.0
C2420 C 0.60305 0.80897 0.19998 0.0
C2421 C 0.60575 0.7869 0.20279 0.0
C2422 C 0.6084 0.77703 0.18302 0.0
C2423 C 0.6704 0.77209 0.04349 0.0
C2424 C 0.69052 0.76894 0.05118 0.0
C2425 C 0.65165 0.77282 0.05985 0.0
C2426 C 0.65286 0.76924 0.08435 0.0
C2427 C 0.67306 0.76631 0.09189 0.0
C2428 C 0.69157 0.76643 0.0755 0.0
C2429 C 0.63333 0.7684 0.10216 0.0
C2430 C 0.62848 0.77953 0.12156 0.0
C2431 C 0.61971 0.75645 0.10053 0.0
C2432 C 0.6244 0.74297 0.0817 0.0
C2433 C 0.64477 0.72645 0.07846 0.0
C2434 C 0.6491 0.71399 0.06049 0.0
C2435 C 0.63309 0.71776 0.04582 0.0
C2436 C 0.61272 0.73397 0.04908 0.0
C2437 C 0.60833 0.74651 0.06697 0.0
H2438 H 0.63639 0.70811 0.03197 0.0
H2439 H 0.601 0.81658 0.21531 0.0
H2440 H 0.63892 0.54164 0.14318 0.0
H2441 H 0.61459 0.54185 0.11611 0.0
H2442 H 0.66059 0.48169 0.09615 0.0
H2443 H 0.68528 0.48142 0.12317 0.0
H2444 H 0.63313 0.51527 0.05806 0.0
H2445 H 0.62864 0.47234 0.13599 0.0
H2446 H 0.62707 0.46685 0.17937 0.0
H2447 H 0.56757 0.52156 0.18289 0.0
H2448 H 0.56906 0.52762 0.13944 0.0
H2449 H 0.54727 0.4832 0.02889 0.0
H2450 H 0.58072 0.48537 0.03996 0.0
H2451 H 0.54068 0.53121 0.08632 0.0
H2452 H 0.50763 0.52855 0.0759 0.0
H2453 H 0.56909 0.50071 0.10935 0.0
H2454 H 0.57213 0.54459 0.0331 0.0
H2455 H 0.57401 0.55422 0.98984 0.0
H2456 H 0.63486 0.50172 0.98216 0.0
H2457 H 0.63318 0.4917 0.02555 0.0
C2458 C 0.64432 0.5289 0.13236 0.0
C2459 C 0.66388 0.51136 0.13552 0.0
C2460 C 0.63037 0.52903 0.11692 0.0
C2461 C 0.63577 0.51169 0.10436 0.0
C2462 C 0.65623 0.49523 0.10569 0.0
C2463 C 0.67018 0.495 0.12127 0.0
C2464 C 0.61843 0.50886 0.09373 0.0
C2465 C 0.61918 0.51185 0.0691 0.0
C2466 C 0.60031 0.5045 0.10832 0.0
C2467 C 0.59908 0.50054 0.13447 0.0
C2468 C 0.61532 0.48329 0.146 0.0
C2469 C 0.61444 0.48007 0.1706 0.0
C2470 C 0.59725 0.49388 0.18388 0.0
C2471 C 0.58088 0.51089 0.17258 0.0
C2472 C 0.58173 0.51422 0.14797 0.0
C2473 C 0.54575 0.49389 0.04122 0.0
C2474 C 0.52498 0.50541 0.05189 0.0
C2475 C 0.56482 0.49522 0.04744 0.0
C2476 C 0.56325 0.50839 0.06408 0.0
C2477 C 0.54237 0.52071 0.0737 0.0
C2478 C 0.52347 0.51919 0.06774 0.0
C2479 C 0.583 0.5081 0.07334 0.0
C2480 C 0.58291 0.50414 0.09798 0.0
C2481 C 0.60151 0.51179 0.05864 0.0
C2482 C 0.60226 0.51719 0.03256 0.0
C2483 C 0.58567 0.53489 0.02218 0.0
C2484 C 0.58677 0.54049 0.99763 0.0
C2485 C 0.60444 0.52852 0.9832 0.0
C2486 C 0.62111 0.51094 0.99335 0.0
C2487 C 0.6201 0.50532 0.01794 0.0
H2488 H 0.60527 0.53292 0.96417 0.0
H2489 H 0.5966 0.49136 0.20292 0.0
H2490 H 0.46089 0.38533 0.06295 0.0
H2491 H 0.4545 0.35217 0.05891 0.0
H2492 H 0.38445 0.38519 0.0708 0.0
H2493 H 0.39103 0.41747 0.07636 0.0
H2494 H 0.39254 0.3463 0.09157 0.0
H2495 H 0.41989 0.37931 0.01213 0.0
H2496 H 0.44972 0.38953 0.98533 0.0
H2497 H 0.49243 0.32327 0.99619 0.0
H2498 H 0.46314 0.31299 0.02385 0.0
H2499 H 0.34106 0.33013 1.00148 0.0
H2500 H 0.37293 0.33795 0.00807 0.0
H2501 H 0.38722 0.28242 0.0633 0.0
H2502 H 0.3551 0.27472 0.057 0.0
H2503 H 0.41795 0.3205 0.01394 0.0
H2504 H 0.38973 0.30115 0.11091 0.0
H2505 H 0.35833 0.2936 0.13722 0.0
H2506 H 0.31425 0.33631 0.08807 0.0
H2507 H 0.34536 0.34424 0.06167 0.0
C2508 C 0.44422 0.38511 0.0652 0.0
C2509 C 0.42638 0.40363 0.07011 0.0
C2510 C 0.44056 0.36633 0.06268 0.0
C2511 C 0.41899 0.36623 0.06421 0.0
C2512 C 0.40126 0.38473 0.06972 0.0
C2513 C 0.40495 0.40319 0.07286 0.0
C2514 C 0.41418 0.34766 0.05902 0.0
C2515 C 0.39848 0.34034 0.07478 0.0
C2516 C 0.42222 0.33942 0.03735 0.0
C2517 C 0.4395 0.34555 0.02029 0.0
C2518 C 0.43573 0.36707 0.00893 0.0
C2519 C 0.45251 0.37283 0.9936 0.0
C2520 C 0.47292 0.35704 0.98903 0.0
C2521 C 0.47662 0.33548 0.9998 0.0
C2522 C 0.45998 0.32972 0.01538 0.0
C2523 C 0.35151 0.3191 0.01436 0.0
C2524 C 0.3454 0.30219 0.02918 0.0
C2525 C 0.3698 0.32349 0.01802 0.0
C2526 C 0.38213 0.31098 0.03648 0.0
C2527 C 0.37774 0.29236 0.04915 0.0
C2528 C 0.35933 0.2881 0.04567 0.0
C2529 C 0.39541 0.32049 0.04586 0.0
C2530 C 0.41274 0.32583 0.03108 0.0
C2531 C 0.38868 0.32729 0.06829 0.0
C2532 C 0.36984 0.32306 0.08429 0.0
C2533 C 0.37331 0.30895 0.10581 0.0
C2534 C 0.35558 0.30461 0.12071 0.0
C2535 C 0.33432 0.31441 0.11428 0.0
C2536 C 0.33072 0.32869 0.09301 0.0
C2537 C 0.34838 0.33311 0.07809 0.0
H2538 H 0.32062 0.31098 0.1258 0.0
H2539 H 0.48589 0.36144 0.97716 0.0
H2540 H 0.07008 0.21564 0.28161 0.0
H2541 H 0.09897 0.18038 0.28206 0.0
H2542 H 0.05247 0.15152 0.27277 0.0
H2543 H 0.02297 0.18701 0.27332 0.0
H2544 H 0.08643 0.12346 0.3034 0.0
H2545 H 0.08078 0.16661 0.22568 0.0
H2546 H 0.07471 0.20332 0.20267 0.0
H2547 H 0.1358 0.20326 0.21916 0.0
H2548 H 0.14191 0.16683 0.24292 0.0
H2549 H 0.18011 0.03327 0.26854 0.0
H2550 H 0.14412 0.06225 0.27013 0.0
H2551 H 0.17643 0.10972 0.2627 0.0
H2552 H 0.21198 0.08123 0.25996 0.0
H2553 H 0.14551 0.12639 0.23726 0.0
H2554 H 0.14951 0.08855 0.3177 0.0
H2555 H 0.15321 0.05678 0.34916 0.0
H2556 H 0.0961 0.04896 0.33156 0.0
H2557 H 0.09221 0.08057 0.2998 0.0
C2558 C 0.06584 0.20176 0.28007 0.0
C2559 C 0.0443 0.2042 0.277 0.0
C2560 C 0.0824 0.18155 0.28038 0.0
C2561 C 0.07804 0.16332 0.27703 0.0
C2562 C 0.05627 0.16535 0.27532 0.0
C2563 C 0.03947 0.18566 0.27542 0.0
C2564 C 0.0968 0.14317 0.27259 0.0
C2565 C 0.09915 0.12387 0.28867 0.0
C2566 C 0.11357 0.14382 0.25355 0.0
C2567 C 0.11174 0.16402 0.23622 0.0
C2568 C 0.09301 0.17436 0.22426 0.0
C2569 C 0.08942 0.19522 0.21132 0.0
C2570 C 0.1047 0.20573 0.20976 0.0
C2571 C 0.12389 0.19516 0.22058 0.0
C2572 C 0.12743 0.17439 0.23378 0.0
C2573 C 0.17945 0.0499 0.26716 0.0
C2574 C 0.19895 0.05488 0.26414 0.0
C2575 C 0.15884 0.06651 0.26822 0.0
C2576 C 0.15732 0.08838 0.26676 0.0
C2577 C 0.1769 0.09316 0.26376 0.0
C2578 C 0.19734 0.07673 0.26237 0.0
C2579 C 0.13565 0.10647 0.2685 0.0
C2580 C 0.13268 0.12557 0.25175 0.0
C2581 C 0.11846 0.10566 0.28711 0.0
C2582 C 0.12074 0.08673 0.3062 0.0
C2583 C 0.13784 0.07996 0.32044 0.0
C2584 C 0.13995 0.062 0.33834 0.0
C2585 C 0.12495 0.05081 0.3423 0.0
C2586 C 0.10774 0.05761 0.32843 0.0
C2587 C 0.10557 0.07555 0.31048 0.0
H2588 H 0.12661 0.03691 0.35616 0.0
H2589 H 0.10177 0.22198 0.19998 0.0
H2590 H 0.20933 0.30573 0.92669 0.0
H2591 H 0.2108 0.33957 0.90196 0.0
H2592 H 0.24915 0.34749 0.9499 0.0
H2593 H 0.24919 0.31247 0.97358 0.0
H2594 H 0.19708 0.38031 0.90662 0.0
H2595 H 0.28274 0.37924 0.91599 0.0
H2596 H 0.31666 0.35355 0.93153 0.0
H2597 H 0.30302 0.30041 0.91463 0.0
H2598 H 0.26977 0.3258 0.89788 0.0
H2599 H 0.26128 0.45981 0.83442 0.0
H2600 H 0.25899 0.43019 0.8667 0.0
H2601 H 0.21283 0.41808 0.83209 0.0
H2602 H 0.21403 0.4484 0.80085 0.0
H2603 H 0.26869 0.39004 0.87345 0.0
H2604 H 0.1791 0.39541 0.86717 0.0
H2605 H 0.14379 0.4234 0.85806 0.0
H2606 H 0.16401 0.47177 0.87669 0.0
H2607 H 0.19931 0.44403 0.8862 0.0
C2608 C 0.21806 0.31466 0.93211 0.0
C2609 C 0.22881 0.3064 0.95258 0.0
C2610 C 0.21878 0.33421 0.91792 0.0
C2611 C 0.23024 0.34633 0.92368 0.0
C2612 C 0.24037 0.33853 0.94467 0.0
C2613 C 0.24001 0.31861 0.95865 0.0
C2614 C 0.23208 0.36641 0.90699 0.0
C2615 C 0.2128 0.38227 0.89922 0.0
C2616 C 0.25245 0.3698 0.89798 0.0
C2617 C 0.27353 0.35444 0.90598 0.0
C2618 C 0.28717 0.3621 0.91525 0.0
C2619 C 0.30634 0.34757 0.92424 0.0
C2620 C 0.31201 0.32533 0.92414 0.0
C2621 C 0.29868 0.31761 0.91475 0.0
C2622 C 0.27976 0.33209 0.90529 0.0
C2623 C 0.25038 0.45103 0.8339 0.0
C2624 C 0.23747 0.45692 0.81518 0.0
C2625 C 0.24916 0.43391 0.85238 0.0
C2626 C 0.23527 0.42191 0.85253 0.0
C2627 C 0.22302 0.42737 0.83329 0.0
C2628 C 0.22381 0.44478 0.81519 0.0
C2629 C 0.23367 0.40364 0.87243 0.0
C2630 C 0.25294 0.38817 0.88083 0.0
C2631 C 0.21324 0.4009 0.88264 0.0
C2632 C 0.19194 0.41765 0.87719 0.0
C2633 C 0.17597 0.41199 0.86943 0.0
C2634 C 0.15597 0.42782 0.86417 0.0
C2635 C 0.15169 0.44936 0.86673 0.0
C2636 C 0.16737 0.4551 0.87463 0.0
C2637 C 0.18739 0.43933 0.87994 0.0
H2638 H 0.1362 0.46159 0.86262 0.0
H2639 H 0.32673 0.31409 0.93132 0.0
H2640 H 0.30669 0.27498 0.96359 0.0
H2641 H 0.33893 0.27297 0.93417 0.0
H2642 H 0.33781 0.21314 0.91857 0.0
H2643 H 0.3052 0.21514 0.94773 0.0
H2644 H 0.38122 0.21447 0.92623 0.0
H2645 H 0.32103 0.25046 0.88227 0.0
H2646 H 0.28732 0.27685 0.86722 0.0
H2647 H 0.31612 0.32728 0.85368 0.0
H2648 H 0.34965 0.30145 0.86977 0.0
H2649 H 0.4559 0.21235 0.81758 0.0
H2650 H 0.42609 0.20987 0.84908 0.0
H2651 H 0.41507 0.2751 0.85975 0.0
H2652 H 0.44477 0.27773 0.82843 0.0
H2653 H 0.37748 0.26911 0.85355 0.0
H2654 H 0.43732 0.23214 0.90044 0.0
H2655 H 0.47233 0.20399 0.91017 0.0
H2656 H 0.44443 0.15416 0.9134 0.0
H2657 H 0.40932 0.18201 0.90336 0.0
C2658 C 0.31334 0.26126 0.95408 0.0
C2659 C 0.30329 0.24518 0.95812 0.0
C2660 C 0.33169 0.26026 0.9371 0.0
C2661 C 0.34059 0.24309 0.92394 0.0
C2662 C 0.33109 0.22664 0.9284 0.0
C2663 C 0.31246 0.22782 0.94508 0.0
C2664 C 0.36001 0.24227 0.90581 0.0
C2665 C 0.38033 0.22631 0.91021 0.0
C2666 C 0.35893 0.25786 0.88498 0.0
C2667 C 0.33783 0.27398 0.87771 0.0
C2668 C 0.32001 0.26728 0.8768 0.0
C2669 C 0.30095 0.28214 0.86789 0.0
C2670 C 0.29962 0.3037 0.8594 0.0
C2671 C 0.31722 0.31053 0.86012 0.0
C2672 C 0.33619 0.29582 0.86935 0.0
C2673 C 0.44738 0.22605 0.82688 0.0
C2674 C 0.45277 0.24526 0.82037 0.0
C2675 C 0.43035 0.22458 0.84495 0.0
C2676 C 0.41831 0.2423 0.85684 0.0
C2677 C 0.42409 0.26122 0.85084 0.0
C2678 C 0.44118 0.26266 0.83293 0.0
C2679 C 0.3987 0.24182 0.87432 0.0
C2680 C 0.37832 0.25746 0.86972 0.0
C2681 C 0.39969 0.22591 0.89479 0.0
C2682 C 0.42076 0.20916 0.9009 0.0
C2683 C 0.4387 0.21517 0.90302 0.0
C2684 C 0.45856 0.19927 0.90864 0.0
C2685 C 0.46062 0.1773 0.91234 0.0
C2686 C 0.44281 0.17118 0.9105 0.0
C2687 C 0.42293 0.18702 0.90486 0.0
H2688 H 0.47601 0.16501 0.91669 0.0
H2689 H 0.28491 0.31514 0.85237 0.0
H2690 H 0.41577 0.53213 1.00418 0.0
H2691 H 0.3821 0.53064 0.9928 0.0
H2692 H 0.42147 0.48044 0.95134 0.0
H2693 H 0.4548 0.4821 0.96234 0.0
H2694 H 0.37273 0.5408 0.9476 0.0
H2695 H 0.39563 0.44671 0.9503 0.0
H2696 H 0.41016 0.4132 0.97815 0.0
H2697 H 0.38878 0.44958 0.03589 0.0
H2698 H 0.37384 0.48326 0.0085 0.0
H2699 H 0.35314 0.51516 0.84797 0.0
H2700 H 0.36684 0.51785 0.88279 0.0
H2701 H 0.3186 0.4927 0.92777 0.0
H2702 H 0.30512 0.48927 0.89265 0.0
H2703 H 0.35821 0.47373 0.94328 0.0
H2704 H 0.31202 0.54559 0.92441 0.0
H2705 H 0.29469 0.58012 0.89927 0.0
H2706 H 0.35702 0.5902 0.87946 0.0
H2707 H 0.37481 0.55557 0.90417 0.0
C2708 C 0.41707 0.52054 0.99301 0.0
C2709 C 0.43774 0.50747 0.98378 0.0
C2710 C 0.39791 0.51968 0.98656 0.0
C2711 C 0.39929 0.50535 0.97134 0.0
C2712 C 0.41997 0.49141 0.96335 0.0
C2713 C 0.43902 0.49252 0.96944 0.0
C2714 C 0.37985 0.50669 0.9609 0.0
C2715 C 0.36919 0.52626 0.94698 0.0
C2716 C 0.37467 0.4879 0.9608 0.0
C2717 C 0.38365 0.46756 0.97729 0.0
C2718 C 0.39391 0.44756 0.96894 0.0
C2719 C 0.4023 0.42853 0.98466 0.0
C2720 C 0.40052 0.42929 0.00875 0.0
C2721 C 0.39026 0.44904 0.01721 0.0
C2722 C 0.38187 0.46811 1.00159 0.0
C2723 C 0.34553 0.50999 0.86523 0.0
C2724 C 0.32814 0.50185 0.86754 0.0
C2725 C 0.35318 0.51184 0.88515 0.0
C2726 C 0.34348 0.50586 0.90788 0.0
C2727 C 0.32617 0.4976 0.91037 0.0
C2728 C 0.31845 0.49573 0.89033 0.0
C2729 C 0.35242 0.50746 0.92871 0.0
C2730 C 0.36112 0.48845 0.9445 0.0
C2731 C 0.35535 0.52694 0.93097 0.0
C2732 C 0.34476 0.54793 0.91617 0.0
C2733 C 0.32206 0.55511 0.9146 0.0
C2734 C 0.31215 0.57471 0.90043 0.0
C2735 C 0.32474 0.58734 0.88778 0.0
C2736 C 0.34728 0.58041 0.8893 0.0
C2737 C 0.35728 0.56081 0.90343 0.0
H2738 H 0.31704 0.60251 0.87681 0.0
H2739 H 0.40708 0.41463 0.0209 0.0
H2740 H 0.66538 0.69789 0.93131 0.0
H2741 H 0.63685 0.68243 0.9315 0.0
H2742 H 0.63118 0.66803 0.0077 0.0
H2743 H 0.66082 0.68213 0.00745 0.0
H2744 H 0.63444 0.63437 0.99122 0.0
H2745 H 0.58961 0.70812 0.97791 0.0
H2746 H 0.57878 0.74661 0.95949 0.0
H2747 H 0.57889 0.72849 0.893 0.0
H2748 H 0.59003 0.68986 0.91092 0.0
H2749 H 0.52749 0.6222 0.96582 0.0
H2750 H 0.54654 0.64629 0.97059 0.0
H2751 H 0.60854 0.60033 0.94704 0.0
H2752 H 0.58989 0.57577 0.94345 0.0
H2753 H 0.5717 0.66712 0.94378 0.0
H2754 H 0.64691 0.59581 0.97594 0.0
H2755 H 0.65548 0.55864 0.99838 0.0
H2756 H 0.59005 0.57513 0.03498 0.0
H2757 H 0.58104 0.61233 0.01258 0.0
C2758 C 0.65804 0.69142 0.94809 0.0
C2759 C 0.66528 0.69121 0.96939 0.0
C2760 C 0.64149 0.68291 0.94821 0.0
C2761 C 0.63165 0.67437 0.96964 0.0
C2762 C 0.63846 0.67467 0.99098 0.0
C2763 C 0.65522 0.68292 0.99084 0.0
C2764 C 0.6159 0.66319 0.96954 0.0
C2765 C 0.62059 0.64166 0.98104 0.0
C2766 C 0.59757 0.67281 0.95665 0.0
C2767 C 0.59079 0.69605 0.94575 0.0
C2768 C 0.58748 0.71232 0.95932 0.0
C2769 C 0.58126 0.73417 0.94897 0.0
C2770 C 0.57818 0.73999 0.92508 0.0
C2771 C 0.58128 0.72396 0.9115 0.0
C2772 C 0.58751 0.70208 0.92176 0.0
C2773 C 0.54518 0.61728 0.96161 0.0
C2774 C 0.5572 0.59699 0.95447 0.0
C2775 C 0.55601 0.6311 0.96421 0.0
C2776 C 0.57897 0.6248 0.95978 0.0
C2777 C 0.59083 0.60522 0.95118 0.0
C2778 C 0.58009 0.59135 0.94875 0.0
C2779 C 0.59076 0.63822 0.96481 0.0
C2780 C 0.58535 0.66007 0.95424 0.0
C2781 C 0.60805 0.62916 0.97915 0.0
C2782 C 0.61327 0.60677 0.9925 0.0
C2783 C 0.63435 0.59148 0.98877 0.0
C2784 C 0.63926 0.5704 1.0014 0.0
C2785 C 0.62328 0.56452 0.01799 0.0
C2786 C 0.60234 0.57967 0.02196 0.0
C2787 C 0.59728 0.60071 0.00922 0.0
H2788 H 0.62717 0.54825 0.02783 0.0
H2789 H 0.57337 0.75692 0.9171 0.0
H2790 H 0.96391 0.82418 0.72758 0.0
H2791 H 0.93465 0.85996 0.72546 0.0
H2792 H 0.88682 0.82876 0.75789 0.0
H2793 H 0.91562 0.79344 0.7598 0.0
H2794 H 0.87342 0.85646 0.71923 0.0
H2795 H 0.90577 0.85757 0.7874 0.0
H2796 H 0.93563 0.85719 0.80789 0.0
H2797 H 0.94137 0.91407 0.7605 0.0
H2798 H 0.91183 0.91457 0.73947 0.0
H2799 H 0.77648 0.93298 0.75752 0.0
H2800 H 0.8117 0.90384 0.75595 0.0
H2801 H 0.84452 0.95043 0.72472 0.0
H2802 H 0.80885 0.9801 0.72692 0.0
H2803 H 0.86881 0.91861 0.75633 0.0
H2804 H 0.83533 0.91967 0.69013 0.0
H2805 H 0.80556 0.92093 0.66896 0.0
H2806 H 0.80289 0.86057 0.71075 0.0
H2807 H 0.83243 0.85908 0.7324 0.0
C2808 C 0.94716 0.82507 0.73439 0.0
C2809 C 0.94205 0.80597 0.74368 0.0
C2810 C 0.93045 0.84551 0.73323 0.0
C2811 C 0.90841 0.84714 0.74147 0.0
C2812 C 0.90357 0.82804 0.75124 0.0
C2813 C 0.92012 0.80779 0.75235 0.0
C2814 C 0.88995 0.86834 0.73921 0.0
C2815 C 0.87242 0.86997 0.72749 0.0
C2816 C 0.8889 0.88643 0.74908 0.0
C2817 C 0.90676 0.88596 0.76168 0.0
C2818 C 0.91356 0.86986 0.78119 0.0
C2819 C 0.9304 0.86965 0.79293 0.0
C2820 C 0.9404 0.88558 0.78547 0.0
C2821 C 0.93362 0.90173 0.76624 0.0
C2822 C 0.91685 0.90198 0.7544 0.0
C2823 C 0.79115 0.93712 0.75029 0.0
C2824 C 0.78981 0.95885 0.74201 0.0
C2825 C 0.81135 0.92037 0.74936 0.0
C2826 C 0.83084 0.92475 0.73969 0.0
C2827 C 0.82973 0.94656 0.73209 0.0
C2828 C 0.80936 0.96349 0.73325 0.0
C2829 C 0.85198 0.90627 0.73719 0.0
C2830 C 0.86998 0.90519 0.74783 0.0
C2831 C 0.85365 0.88865 0.72615 0.0
C2832 C 0.83604 0.88933 0.71297 0.0
C2833 C 0.82832 0.90672 0.69489 0.0
C2834 C 0.81149 0.90747 0.6828 0.0
C2835 C 0.80232 0.89086 0.68853 0.0
C2836 C 0.81001 0.87342 0.70633 0.0
C2837 C 0.82682 0.8726 0.71849 0.0
H2838 H 0.78928 0.89147 0.67916 0.0
H2839 H 0.95333 0.8855 0.79462 0.0
H2840 H 0.514 0.17257 0.63132 0.0
H2841 H 0.5103 0.15503 0.60001 0.0
H2842 H 0.44101 0.1699 0.62369 0.0
H2843 H 0.4445 0.18762 0.65467 0.0
H2844 H 0.46292 0.12647 0.62316 0.0
H2845 H 0.45701 0.19381 0.57193 0.0
H2846 H 0.46846 0.22522 0.55237 0.0
H2847 H 0.52701 0.18294 0.51859 0.0
H2848 H 0.51648 0.15102 0.53885 0.0
H2849 H 0.44029 0.07384 0.54422 0.0
H2850 H 0.43799 0.10397 0.5633 0.0
H2851 H 0.50466 0.09857 0.53389 0.0
H2852 H 0.50684 0.069 0.51416 0.0
H2853 H 0.48256 0.13918 0.53627 0.0
H2854 H 0.49099 0.07191 0.59135 0.0
H2855 H 0.48159 0.04025 0.61433 0.0
H2856 H 0.4189 0.08233 0.64079 0.0
H2857 H 0.42818 0.11434 0.61864 0.0
C2858 C 0.49789 0.1726 0.62943 0.0
C2859 C 0.47959 0.18114 0.64568 0.0
C2860 C 0.4958 0.16257 0.61156 0.0
C2861 C 0.47539 0.16108 0.60967 0.0
C2862 C 0.45692 0.17077 0.62497 0.0
C2863 C 0.45897 0.18078 0.64272 0.0
C2864 C 0.47362 0.14733 0.59372 0.0
C2865 C 0.46684 0.12948 0.6041 0.0
C2866 C 0.47938 0.15094 0.56898 0.0
C2867 C 0.48601 0.16999 0.55705 0.0
C2868 C 0.47251 0.19113 0.56062 0.0
C2869 C 0.47888 0.20901 0.54946 0.0
C2870 C 0.49858 0.20601 0.53442 0.0
C2871 C 0.51193 0.18512 0.53048 0.0
C2872 C 0.50578 0.16714 0.54181 0.0
C2873 C 0.45436 0.07928 0.54147 0.0
C2874 C 0.47398 0.06861 0.52811 0.0
C2875 C 0.45306 0.09645 0.55252 0.0
C2876 C 0.47146 0.10301 0.55074 0.0
C2877 C 0.49042 0.09353 0.53591 0.0
C2878 C 0.49167 0.07652 0.5247 0.0
C2879 C 0.47167 0.11836 0.56576 0.0
C2880 C 0.47834 0.13637 0.55528 0.0
C2881 C 0.46603 0.11483 0.59057 0.0
C2882 C 0.46024 0.09552 0.60324 0.0
C2883 C 0.47521 0.07443 0.60204 0.0
C2884 C 0.46991 0.05642 0.61491 0.0
C2885 C 0.4496 0.05926 0.62878 0.0
C2886 C 0.4346 0.08014 0.62999 0.0
C2887 C 0.43992 0.09823 0.61741 0.0
H2888 H 0.44553 0.04527 0.63867 0.0
H2889 H 0.50345 0.21987 0.52571 0.0
H2890 H 0.46895 0.33657 0.88631 0.0
H2891 H 0.46996 0.35488 0.91819 0.0
H2892 H 0.53107 0.36318 0.88343 0.0
H2893 H 0.53029 0.34468 0.85183 0.0
H2894 H 0.53284 0.35237 0.92923 0.0
H2895 H 0.48086 0.40449 0.8791 0.0
H2896 H 0.44793 0.41902 0.85817 0.0
H2897 H 0.40697 0.41393 0.92422 0.0
H2898 H 0.4397 0.39902 0.94544 0.0
H2899 H 0.52951 0.44758 0.97018 0.0
H2900 H 0.53133 0.4191 0.94871 0.0
H2901 H 0.47603 0.40788 0.99544 0.0
H2902 H 0.47442 0.43593 0.01728 0.0
H2903 H 0.47003 0.41776 0.94737 0.0
H2904 H 0.52251 0.36878 0.99748 0.0
H2905 H 0.55571 0.35604 0.01779 0.0
H2906 H 0.59603 0.35699 0.95083 0.0
H2907 H 0.56304 0.37004 0.93011 0.0
C2908 C 0.48261 0.34226 0.88555 0.0
C2909 C 0.49952 0.33922 0.86656 0.0
C2910 C 0.48317 0.35273 0.90374 0.0
C2911 C 0.50045 0.36066 0.90305 0.0
C2912 C 0.5176 0.35715 0.8844 0.0
C2913 C 0.51716 0.34653 0.86636 0.0
C2914 C 0.50047 0.37324 0.92125 0.0
C2915 C 0.51917 0.36677 0.93304 0.0
C2916 C 0.48243 0.39175 0.92667 0.0
C2917 C 0.46276 0.4004 0.91386 0.0
C2918 C 0.46486 0.40626 0.88913 0.0
C2919 C 0.44622 0.4146 0.87721 0.0
C2920 C 0.42538 0.41735 0.88984 0.0
C2921 C 0.42313 0.41177 0.91443 0.0
C2922 C 0.44171 0.40337 0.92642 0.0
C2923 C 0.51809 0.43869 0.97631 0.0
C2924 C 0.50154 0.44433 0.99526 0.0
C2925 C 0.51915 0.42241 0.96399 0.0
C2926 C 0.50368 0.41155 0.97038 0.0
C2927 C 0.48802 0.4162 0.99014 0.0
C2928 C 0.48712 0.43226 1.0026 0.0
C2929 C 0.5025 0.39705 0.95501 0.0
C2930 C 0.48359 0.40322 0.94371 0.0
C2931 C 0.5204 0.37843 0.94989 0.0
C2932 C 0.54028 0.37059 0.96225 0.0
C2933 C 0.53844 0.36647 0.98709 0.0
C2934 C 0.55723 0.35914 0.99868 0.0
C2935 C 0.57796 0.35576 0.98561 0.0
C2936 C 0.57996 0.35964 0.96093 0.0
C2937 C 0.56122 0.36698 0.94925 0.0
H2938 H 0.59248 0.35009 0.99462 0.0
H2939 H 0.41097 0.42385 0.88059 0.0
H2940 H 0.48989 0.81257 0.39101 0.0
H2941 H 0.48827 0.82854 0.42597 0.0
H2942 H 0.52068 0.87192 0.38314 0.0
H2943 H 0.52214 0.85647 0.34829 0.0
H2944 H 0.53219 0.84343 0.43888 0.0
H2945 H 0.47279 0.91386 0.39132 0.0
H2946 H 0.44524 0.92018 0.36455 0.0
H2947 H 0.42463 0.86844 0.40722 0.0
H2948 H 0.45226 0.86165 0.4339 0.0
H2949 H 0.53048 0.94066 0.4692 0.0
H2950 H 0.53138 0.91028 0.45139 0.0
H2951 H 0.46827 0.91188 0.49013 0.0
H2952 H 0.46701 0.94259 0.50756 0.0
H2953 H 0.46829 0.91108 0.4447 0.0
H2954 H 0.51452 0.87026 0.50379 0.0
H2955 H 0.54492 0.86012 0.52777 0.0
H2956 H 0.59171 0.84901 0.46577 0.0
H2957 H 0.56158 0.85934 0.44131 0.0
C2958 C 0.49682 0.8254 0.38911 0.0
C2959 C 0.50619 0.83322 0.36685 0.0
C2960 C 0.49606 0.83431 0.4091 0.0
C2961 C 0.50455 0.8512 0.40702 0.0
C2962 C 0.51435 0.85865 0.38505 0.0
C2963 C 0.51518 0.84977 0.36517 0.0
C2964 C 0.50112 0.86316 0.42678 0.0
C2965 C 0.51812 0.85804 0.44062 0.0
C2966 C 0.48256 0.88189 0.4291 0.0
C2967 C 0.46441 0.88741 0.41467 0.0
C2968 C 0.46217 0.90405 0.3951 0.0
C2969 C 0.44674 0.90752 0.37979 0.0
C2970 C 0.43334 0.89458 0.38405 0.0
C2971 C 0.43511 0.87835 0.40383 0.0
C2972 C 0.45065 0.8747 0.41905 0.0
C2973 C 0.51695 0.93434 0.47425 0.0
C2974 C 0.49865 0.94411 0.4898 0.0
C2975 C 0.51749 0.91693 0.46408 0.0
C2976 C 0.49988 0.90877 0.46946 0.0
C2977 C 0.48195 0.918 0.4856 0.0
C2978 C 0.48134 0.93548 0.49565 0.0
C2979 C 0.49962 0.89163 0.45701 0.0
C2980 C 0.48204 0.89607 0.44401 0.0
C2981 C 0.51749 0.87193 0.45601 0.0
C2982 C 0.53573 0.86565 0.47067 0.0
C2983 C 0.53127 0.86576 0.49521 0.0
C2984 C 0.54847 0.85996 0.50891 0.0
C2985 C 0.57023 0.85394 0.4983 0.0
C2986 C 0.57484 0.85366 0.47397 0.0
C2987 C 0.5577 0.85945 0.46018 0.0
H2988 H 0.58352 0.84946 0.50894 0.0
H2989 H 0.4214 0.8973 0.37219 0.0
H2990 H 0.47526 0.58491 0.00731 0.0
H2991 H 0.47282 0.61595 0.02516 0.0
H2992 H 0.44398 0.58828 0.0912 0.0
H2993 H 0.44532 0.55805 0.07317 0.0
H2994 H 0.42675 0.62976 0.08683 0.0
H2995 H 0.50197 0.57996 0.072 0.0
H2996 H 0.53495 0.5624 0.04609 0.0
H2997 H 0.54003 0.62468 0.01384 0.0
H2998 H 0.50638 0.64272 0.03859 0.0
H2999 H 0.46471 0.65121 0.18042 0.0
H3000 H 0.45646 0.63662 0.1496 0.0
H3001 H 0.48236 0.6796 0.09616 0.0
H3002 H 0.49119 0.69399 0.12711 0.0
H3003 H 0.4985 0.63878 0.08685 0.0
H3004 H 0.42747 0.68828 0.10511 0.0
H3005 H 0.39448 0.70695 0.13041 0.0
H3006 H 0.38232 0.64667 0.15663 0.0
H3007 H 0.41543 0.62755 0.13175 0.0
C3008 C 0.46797 0.58575 0.02548 0.0
C3009 C 0.46065 0.56896 0.0389 0.0
C3010 C 0.46668 0.60343 0.03571 0.0
C3011 C 0.45877 0.6042 0.05976 0.0
C3012 C 0.45023 0.58809 0.07267 0.0
C3013 C 0.45101 0.57076 0.06231 0.0
C3014 C 0.46087 0.6205 0.07232 0.0
C3015 C 0.44246 0.63169 0.08685 0.0
C3016 C 0.48118 0.62377 0.07172 0.0
C3017 C 0.50145 0.61272 0.05692 0.0
C3018 C 0.50999 0.58993 0.05921 0.0
C3019 C 0.52884 0.57988 0.04471 0.0
C3020 C 0.5397 0.59238 0.02839 0.0
C3021 C 0.53162 0.61498 0.02641 0.0
C3022 C 0.51257 0.62515 0.04055 0.0
C3023 C 0.4687 0.65756 0.16211 0.0
C3024 C 0.47877 0.67363 0.15619 0.0
C3025 C 0.4637 0.6494 0.1445 0.0
C3026 C 0.46852 0.65722 0.12056 0.0
C3027 C 0.47836 0.67345 0.11453 0.0
C3028 C 0.48331 0.6817 0.13221 0.0
C3029 C 0.46465 0.64716 0.10207 0.0
C3030 C 0.48269 0.63721 0.08645 0.0
C3031 C 0.44405 0.64503 0.10166 0.0
C3032 C 0.42403 0.65646 0.11662 0.0
C3033 C 0.41786 0.67897 0.11638 0.0
C3034 C 0.39911 0.68964 0.13064 0.0
C3035 C 0.38633 0.678 0.14514 0.0
C3036 C 0.39224 0.65567 0.14538 0.0
C3037 C 0.41098 0.64491 0.13118 0.0
H3038 H 0.37182 0.68629 0.15617 0.0
H3039 H 0.55425 0.58459 0.01711 0.0
loop_
_geom_bond_atom_site_label_1
_geom_bond_atom_site_label_2
_geom_bond_distance
_geom_bond_site_symmetry_2
_ccdc_geom_bond_type
Ho0 C3 2.811 . S
Ho0 O20 2.291 1_654 S
Ho0 O22 2.378 . S
Ho0 O23 2.524 . S
Ho0 O24 2.381 1_655 S
Ho0 O25 2.669 1_655 S
Ho0 O27 2.346 1_565 S
Ho0 O31 2.305 1_564 S
Ho1 C12 2.811 . S
Ho1 O21 2.346 1_545 S
Ho1 O25 2.305 1_546 S
Ho1 O26 2.322 1_456 S
Ho1 O28 2.378 . S
Ho1 O29 2.524 . S
Ho1 O30 2.381 1_455 S
Ho1 O31 2.669 1_455 S
C2 O20 1.304 . S
C2 O21 1.268 . S
C3 Ho0 2.811 . S
C3 C4 1.488 . S
C3 O22 1.215 . S
C3 O23 1.289 . S
C4 C3 1.488 . S
C4 C5 1.348 . S
C4 C9 1.413 . S
C5 C4 1.348 . S
C5 C6 1.442 . S
C5 H32 0.930 1_554 S
C6 C5 1.442 . S
C6 C7 1.381 . S
C6 H33 0.931 1_554 S
C7 C6 1.381 . S
C7 C8 1.321 . S
C8 C7 1.321 . S
C8 C9 1.403 . S
C8 H34 0.934 . S
C9 C4 1.413 . S
C9 C8 1.403 . S
C9 H35 0.930 . S
C10 O24 1.275 . S
C10 O25 1.256 . S
C11 O26 1.259 . S
C11 O27 1.268 . S
C12 Ho1 2.811 . S
C12 C13 1.488 . S
C12 O28 1.215 . S
C12 O29 1.289 . S
C13 C12 1.488 . S
C13 C14 1.348 . S
C13 C18 1.413 . S
C14 C13 1.348 . S
C14 C15 1.442 . S
C14 H36 0.930 1_556 S
C15 C14 1.442 . S
C15 C16 1.381 . S
C15 H37 0.931 1_556 S
C16 C15 1.381 . S
C16 C17 1.321 . S
C17 C16 1.321 . S
C17 C18 1.403 . S
C17 H38 0.934 . S
C18 C13 1.413 . S
C18 C17 1.403 . S
C18 H39 0.930 . S
C19 O30 1.275 . S
C19 O31 1.256 . S
O20 Ho0 2.291 1_456 S
O20 C2 1.304 . S
O21 Ho1 2.346 1_565 S
O21 C2 1.268 . S
O22 Ho0 2.378 . S
O22 C3 1.215 . S
O23 Ho0 2.524 . S
O23 C3 1.289 . S
O24 Ho0 2.381 1_455 S
O24 C10 1.275 . S
O25 Ho0 2.669 1_455 S
O25 Ho1 2.305 1_564 S
O25 C10 1.256 . S
O26 Ho1 2.322 1_654 S
O26 C11 1.259 . S
O27 Ho0 2.346 1_545 S
O27 C11 1.268 . S
O28 Ho1 2.378 . S
O28 C12 1.215 . S
O29 Ho1 2.524 . S
O29 C12 1.289 . S
O30 Ho1 2.381 1_655 S
O30 C19 1.275 . S
O31 Ho0 2.305 1_546 S
O31 Ho1 2.669 1_655 S
O31 C19 1.256 . S
H32 C5 0.930 1_556 S
H33 C6 0.931 1_556 S
H34 C8 0.934 . S
H35 C9 0.930 . S
H36 C14 0.930 1_554 S
H37 C15 0.931 1_554 S
H38 C17 0.934 . S
H39 C18 0.930 . S
Ho40 C43 2.811 . S
Ho40 O60 2.322 1_455 S
Ho40 O62 2.378 . S
Ho40 O63 2.524 1_455 S
Ho40 O64 2.381 . S
Ho40 O65 2.669 . S
Ho40 O67 2.346 . S
Ho40 O71 2.305 1_455 S
Ho41 C52 2.811 . S
Ho41 O61 2.346 . S
Ho41 O65 2.305 1_655 S
Ho41 O66 2.322 1_655 S
Ho41 O68 2.378 . S
Ho41 O69 2.524 1_655 S
Ho41 O70 2.381 . S
Ho41 O71 2.669 . S
C42 O60 1.259 . S
C42 O61 1.268 . S
C43 Ho40 2.811 . S
C43 C44 1.488 . S
C43 O62 1.215 . S
C43 O63 1.289 1_455 S
C44 C43 1.488 . S
C44 C45 1.348 1_455 S
C44 C49 1.413 . S
C45 C44 1.348 1_655 S
C45 C46 1.442 . S
C45 H72 0.930 . S
C46 C45 1.442 . S
C46 C47 1.381 . S
C46 H73 0.931 . S
C47 C46 1.381 . S
C47 C48 1.321 1_655 S
C48 C47 1.321 1_455 S
C48 C49 1.403 . S
C48 H74 0.934 . S
C49 C44 1.413 . S
C49 C48 1.403 . S
C49 H75 0.930 . S
C50 O64 1.275 . S
C50 O65 1.256 . S
C51 O66 1.259 . S
C51 O67 1.268 . S
C52 Ho41 2.811 . S
C52 C53 1.488 . S
C52 O68 1.215 . S
C52 O69 1.289 1_655 S
C53 C52 1.488 . S
C53 C54 1.348 1_655 S
C53 C58 1.413 . S
C54 C53 1.348 1_455 S
C54 C55 1.442 . S
C54 H76 0.930 . S
C55 C54 1.442 . S
C55 C56 1.381 . S
C55 H77 0.931 . S
C56 C55 1.381 . S
C56 C57 1.321 1_455 S
C57 C56 1.321 1_655 S
C57 C58 1.403 . S
C57 H78 0.934 . S
C58 C53 1.413 . S
C58 C57 1.403 . S
C58 H79 0.930 . S
C59 O70 1.275 . S
C59 O71 1.256 . S
O60 Ho40 2.322 1_655 S
O60 C42 1.259 . S
O61 Ho41 2.346 . S
O61 C42 1.268 . S
O62 Ho40 2.378 . S
O62 C43 1.215 . S
O63 Ho40 2.524 1_655 S
O63 C43 1.289 1_655 S
O64 Ho40 2.381 . S
O64 C50 1.275 . S
O65 Ho40 2.669 . S
O65 Ho41 2.305 1_455 S
O65 C50 1.256 . S
O66 Ho41 2.322 1_455 S
O66 C51 1.259 . S
O67 Ho40 2.346 . S
O67 C51 1.268 . S
O68 Ho41 2.378 . S
O68 C52 1.215 . S
O69 Ho41 2.524 1_455 S
O69 C52 1.289 1_455 S
O70 Ho41 2.381 . S
O70 C59 1.275 . S
O71 Ho40 2.305 1_655 S
O71 Ho41 2.669 . S
O71 C59 1.256 . S
H72 C45 0.930 . S
H73 C46 0.931 . S
H74 C48 0.934 . S
H75 C49 0.930 . S
H76 C54 0.930 . S
H77 C55 0.931 . S
H78 C57 0.934 . S
H79 C58 0.930 . S
Ho80 C83 2.811 . S
Ho80 O100 2.322 . S
Ho80 O102 2.378 . S
Ho80 O103 2.524 . S
Ho80 O104 2.381 . S
Ho80 O105 2.669 . S
Ho80 O107 2.346 . S
Ho80 O111 2.305 . S
Ho81 C92 2.811 . S
Ho81 O101 2.346 . S
Ho81 O105 2.305 . S
Ho81 O106 2.322 . S
Ho81 O108 2.378 . S
Ho81 O109 2.524 . S
Ho81 O110 2.381 . S
Ho81 O111 2.669 . S
C82 O100 1.259 . S
C82 O101 1.268 . S
C83 Ho80 2.811 . S
C83 C84 1.488 . S
C83 O102 1.215 . S
C83 O103 1.289 . S
C84 C83 1.488 . S
C84 C85 1.348 . S
C84 C89 1.413 . S
C85 C84 1.348 . S
C85 C86 1.442 . S
C85 H112 0.930 . S
C86 C85 1.442 . S
C86 C87 1.381 . S
C86 H113 0.931 . S
C87 C86 1.381 . S
C87 C88 1.321 . S
C88 C87 1.321 . S
C88 C89 1.403 . S
C88 H114 0.934 . S
C89 C84 1.413 . S
C89 C88 1.403 . S
C89 H115 0.930 . S
C90 O104 1.275 . S
C90 O105 1.256 . S
C91 O106 1.259 . S
C91 O107 1.268 . S
C92 Ho81 2.811 . S
C92 C93 1.488 . S
C92 O108 1.215 . S
C92 O109 1.289 . S
C93 C92 1.488 . S
C93 C94 1.348 . S
C93 C98 1.413 . S
C94 C93 1.348 . S
C94 C95 1.442 . S
C94 H116 0.930 . S
C95 C94 1.442 . S
C95 C96 1.381 . S
C95 H117 0.931 . S
C96 C95 1.381 . S
C96 C97 1.321 . S
C97 C96 1.321 . S
C97 C98 1.403 . S
C97 H118 0.934 . S
C98 C93 1.413 . S
C98 C97 1.403 . S
C98 H119 0.930 . S
C99 O110 1.275 . S
C99 O111 1.256 . S
O100 Ho80 2.322 . S
O100 C82 1.259 . S
O101 Ho81 2.346 . S
O101 C82 1.268 . S
O102 Ho80 2.378 . S
O102 C83 1.215 . S
O103 Ho80 2.524 . S
O103 C83 1.289 . S
O104 Ho80 2.381 . S
O104 C90 1.275 . S
O105 Ho80 2.669 . S
O105 Ho81 2.305 . S
O105 C90 1.256 . S
O106 Ho81 2.322 . S
O106 C91 1.259 . S
O107 Ho80 2.346 . S
O107 C91 1.268 . S
O108 Ho81 2.378 . S
O108 C92 1.215 . S
O109 Ho81 2.524 . S
O109 C92 1.289 . S
O110 Ho81 2.381 . S
O110 C99 1.275 . S
O111 Ho80 2.305 . S
O111 Ho81 2.669 . S
O111 C99 1.256 . S
H112 C85 0.930 . S
H113 C86 0.931 . S
H114 C88 0.934 . S
H115 C89 0.930 . S
H116 C94 0.930 . S
H117 C95 0.931 . S
H118 C97 0.934 . S
H119 C98 0.930 . S
Ho120 C123 2.811 . S
Ho120 O140 2.322 1_565 S
Ho120 O142 2.378 . S
Ho120 O143 2.524 1_565 S
Ho120 O144 2.381 . S
Ho120 O145 2.669 . S
Ho120 O147 2.346 . S
Ho120 O151 2.305 1_565 S
Ho121 C132 2.811 . S
Ho121 O141 2.346 . S
Ho121 O145 2.305 1_545 S
Ho121 O146 2.322 1_545 S
Ho121 O148 2.378 . S
Ho121 O149 2.524 1_545 S
Ho121 O150 2.381 . S
Ho121 O151 2.669 . S
C122 O140 1.259 . S
C122 O141 1.268 . S
C123 Ho120 2.811 . S
C123 C124 1.492 1_565 S
C123 O142 1.215 . S
C123 O143 1.289 1_565 S
C124 C123 1.492 1_545 S
C124 C125 1.371 . S
C124 C129 1.388 1_545 S
C125 C124 1.371 . S
C125 C126 1.442 . S
C125 H152 0.930 . S
C126 C125 1.442 . S
C126 C127 1.381 . S
C126 H153 0.931 . S
C127 C126 1.381 . S
C127 C128 1.321 1_545 S
C128 C127 1.321 1_565 S
C128 C129 1.403 . S
C128 H154 0.934 . S
C129 C124 1.388 1_565 S
C129 C128 1.403 . S
C129 H155 0.930 . S
C130 O144 1.275 . S
C130 O145 1.256 . S
C131 O146 1.259 . S
C131 O147 1.268 . S
C132 Ho121 2.811 . S
C132 C133 1.490 1_545 S
C132 O148 1.215 . S
C132 O149 1.289 1_545 S
C133 C132 1.490 1_565 S
C133 C134 1.361 . S
C133 C138 1.398 1_565 S
C134 C133 1.361 . S
C134 C135 1.442 . S
C134 H156 0.930 . S
C135 C134 1.442 . S
C135 C136 1.381 . S
C135 H157 0.931 . S
C136 C135 1.381 . S
C136 C137 1.321 1_565 S
C137 C136 1.321 1_545 S
C137 C138 1.403 . S
C137 H158 0.934 . S
C138 C133 1.398 1_545 S
C138 C137 1.403 . S
C138 H159 0.930 . S
C139 O150 1.275 . S
C139 O151 1.256 . S
O140 Ho120 2.322 1_545 S
O140 C122 1.259 . S
O141 Ho121 2.346 . S
O141 C122 1.268 . S
O142 Ho120 2.378 . S
O142 C123 1.215 . S
O143 Ho120 2.524 1_545 S
O143 C123 1.289 1_545 S
O144 Ho120 2.381 . S
O144 C130 1.275 . S
O145 Ho120 2.669 . S
O145 Ho121 2.305 1_565 S
O145 C130 1.256 . S
O146 Ho121 2.322 1_565 S
O146 C131 1.259 . S
O147 Ho120 2.346 . S
O147 C131 1.268 . S
O148 Ho121 2.378 . S
O148 C132 1.215 . S
O149 Ho121 2.524 1_565 S
O149 C132 1.289 1_565 S
O150 Ho121 2.381 . S
O150 C139 1.275 . S
O151 Ho120 2.305 1_545 S
O151 Ho121 2.669 . S
O151 C139 1.256 . S
H152 C125 0.930 . S
H153 C126 0.931 . S
H154 C128 0.934 . S
H155 C129 0.930 . S
H156 C134 0.930 . S
H157 C135 0.931 . S
H158 C137 0.934 . S
H159 C138 0.930 . S
Ho160 C163 2.811 . S
Ho160 O180 2.322 . S
Ho160 O182 2.378 . S
Ho160 O183 2.524 . S
Ho160 O184 2.381 . S
Ho160 O185 2.669 . S
Ho160 O187 2.346 . S
Ho160 O191 2.305 . S
Ho161 C172 2.811 . S
Ho161 O181 2.346 . S
Ho161 O185 2.305 . S
Ho161 O186 2.322 . S
Ho161 O188 2.378 . S
Ho161 O189 2.524 . S
Ho161 O190 2.381 . S
Ho161 O191 2.669 . S
C162 O180 1.259 . S
C162 O181 1.268 . S
C163 Ho160 2.811 . S
C163 C164 1.488 . S
C163 O182 1.215 . S
C163 O183 1.289 . S
C164 C163 1.488 . S
C164 C165 1.348 . S
C164 C169 1.413 . S
C165 C164 1.348 . S
C165 C166 1.442 . S
C165 H192 0.930 . S
C166 C165 1.442 . S
C166 C167 1.381 . S
C166 H193 0.931 . S
C167 C166 1.381 . S
C167 C168 1.321 . S
C168 C167 1.321 . S
C168 C169 1.403 . S
C168 H194 0.934 . S
C169 C164 1.413 . S
C169 C168 1.403 . S
C169 H195 0.930 . S
C170 O184 1.275 . S
C170 O185 1.256 . S
C171 O186 1.259 . S
C171 O187 1.268 . S
C172 Ho161 2.811 . S
C172 C173 1.488 . S
C172 O188 1.215 . S
C172 O189 1.289 . S
C173 C172 1.488 . S
C173 C174 1.348 . S
C173 C178 1.413 . S
C174 C173 1.348 . S
C174 C175 1.442 . S
C174 H196 0.930 . S
C175 C174 1.442 . S
C175 C176 1.381 . S
C175 H197 0.931 . S
C176 C175 1.381 . S
C176 C177 1.321 . S
C177 C176 1.321 . S
C177 C178 1.403 . S
C177 H198 0.934 . S
C178 C173 1.413 . S
C178 C177 1.403 . S
C178 H199 0.930 . S
C179 O190 1.275 . S
C179 O191 1.256 . S
O180 Ho160 2.322 . S
O180 C162 1.259 . S
O181 Ho161 2.346 . S
O181 C162 1.268 . S
O182 Ho160 2.378 . S
O182 C163 1.215 . S
O183 Ho160 2.524 . S
O183 C163 1.289 . S
O184 Ho160 2.381 . S
O184 C170 1.275 . S
O185 Ho160 2.669 . S
O185 Ho161 2.305 . S
O185 C170 1.256 . S
O186 Ho161 2.322 . S
O186 C171 1.259 . S
O187 Ho160 2.346 . S
O187 C171 1.268 . S
O188 Ho161 2.378 . S
O188 C172 1.215 . S
O189 Ho161 2.524 . S
O189 C172 1.289 . S
O190 Ho161 2.381 . S
O190 C179 1.275 . S
O191 Ho160 2.305 . S
O191 Ho161 2.669 . S
O191 C179 1.256 . S
H192 C165 0.930 . S
H193 C166 0.931 . S
H194 C168 0.934 . S
H195 C169 0.930 . S
H196 C174 0.930 . S
H197 C175 0.931 . S
H198 C177 0.934 . S
H199 C178 0.930 . S
Ho200 C203 2.811 . S
Ho200 O220 2.322 . S
Ho200 O222 2.378 . S
Ho200 O223 2.524 . S
Ho200 O224 2.381 . S
Ho200 O225 2.669 . S
Ho200 O227 2.346 . S
Ho200 O231 2.305 . S
Ho201 C212 2.811 . S
Ho201 O221 2.346 . S
Ho201 O225 2.305 . S
Ho201 O226 2.322 . S
Ho201 O228 2.378 . S
Ho201 O229 2.524 . S
Ho201 O230 2.381 . S
Ho201 O231 2.669 . S
C202 O220 1.259 . S
C202 O221 1.268 . S
C203 Ho200 2.811 . S
C203 C204 1.488 . S
C203 O222 1.215 . S
C203 O223 1.289 . S
C204 C203 1.488 . S
C204 C205 1.348 . S
C204 C209 1.413 . S
C205 C204 1.348 . S
C205 C206 1.442 . S
C205 H232 0.930 . S
C206 C205 1.442 . S
C206 C207 1.381 . S
C206 H233 0.931 . S
C207 C206 1.381 . S
C207 C208 1.321 . S
C208 C207 1.321 . S
C208 C209 1.403 . S
C208 H234 0.934 . S
C209 C204 1.413 . S
C209 C208 1.403 . S
C209 H235 0.930 . S
C210 O224 1.275 . S
C210 O225 1.256 . S
C211 O226 1.259 . S
C211 O227 1.268 . S
C212 Ho201 2.811 . S
C212 C213 1.488 . S
C212 O228 1.215 . S
C212 O229 1.289 . S
C213 C212 1.488 . S
C213 C214 1.348 . S
C213 C218 1.413 . S
C214 C213 1.348 . S
C214 C215 1.442 . S
C214 H236 0.930 . S
C215 C214 1.442 . S
C215 C216 1.381 . S
C215 H237 0.931 . S
C216 C215 1.381 . S
C216 C217 1.321 . S
C217 C216 1.321 . S
C217 C218 1.403 . S
C217 H238 0.934 . S
C218 C213 1.413 . S
C218 C217 1.403 . S
C218 H239 0.930 . S
C219 O230 1.275 . S
C219 O231 1.256 . S
O220 Ho200 2.322 . S
O220 C202 1.259 . S
O221 Ho201 2.346 . S
O221 C202 1.268 . S
O222 Ho200 2.378 . S
O222 C203 1.215 . S
O223 Ho200 2.524 . S
O223 C203 1.289 . S
O224 Ho200 2.381 . S
O224 C210 1.275 . S
O225 Ho200 2.669 . S
O225 Ho201 2.305 . S
O225 C210 1.256 . S
O226 Ho201 2.322 . S
O226 C211 1.259 . S
O227 Ho200 2.346 . S
O227 C211 1.268 . S
O228 Ho201 2.378 . S
O228 C212 1.215 . S
O229 Ho201 2.524 . S
O229 C212 1.289 . S
O230 Ho201 2.381 . S
O230 C219 1.275 . S
O231 Ho200 2.305 . S
O231 Ho201 2.669 . S
O231 C219 1.256 . S
H232 C205 0.930 . S
H233 C206 0.931 . S
H234 C208 0.934 . S
H235 C209 0.930 . S
H236 C214 0.930 . S
H237 C215 0.931 . S
H238 C217 0.934 . S
H239 C218 0.930 . S
Ho240 C243 2.811 . S
Ho240 O260 2.322 . S
Ho240 O262 2.378 . S
Ho240 O263 2.524 . S
Ho240 O264 2.381 . S
Ho240 O265 2.669 . S
Ho240 O267 2.346 . S
Ho240 O271 2.305 . S
Ho241 C252 2.811 . S
Ho241 O261 2.346 . S
Ho241 O265 2.305 . S
Ho241 O266 2.322 . S
Ho241 O268 2.378 . S
Ho241 O269 2.524 . S
Ho241 O270 2.381 . S
Ho241 O271 2.669 . S
C242 O260 1.259 . S
C242 O261 1.268 . S
C243 Ho240 2.811 . S
C243 C244 1.488 . S
C243 O262 1.215 . S
C243 O263 1.289 . S
C244 C243 1.488 . S
C244 C245 1.348 . S
C244 C249 1.413 . S
C245 C244 1.348 . S
C245 C246 1.442 . S
C245 H272 0.930 . S
C246 C245 1.442 . S
C246 C247 1.381 . S
C246 H273 0.931 . S
C247 C246 1.381 . S
C247 C248 1.321 . S
C248 C247 1.321 . S
C248 C249 1.403 . S
C248 H274 0.934 . S
C249 C244 1.413 . S
C249 C248 1.403 . S
C249 H275 0.930 . S
C250 O264 1.275 . S
C250 O265 1.256 . S
C251 O266 1.259 . S
C251 O267 1.268 . S
C252 Ho241 2.811 . S
C252 C253 1.488 . S
C252 O268 1.215 . S
C252 O269 1.289 . S
C253 C252 1.488 . S
C253 C254 1.348 . S
C253 C258 1.413 . S
C254 C253 1.348 . S
C254 C255 1.442 . S
C254 H276 0.930 . S
C255 C254 1.442 . S
C255 C256 1.381 . S
C255 H277 0.931 . S
C256 C255 1.381 . S
C256 C257 1.321 . S
C257 C256 1.321 . S
C257 C258 1.403 . S
C257 H278 0.934 . S
C258 C253 1.413 . S
C258 C257 1.403 . S
C258 H279 0.930 . S
C259 O270 1.275 . S
C259 O271 1.256 . S
O260 Ho240 2.322 . S
O260 C242 1.259 . S
O261 Ho241 2.346 . S
O261 C242 1.268 . S
O262 Ho240 2.378 . S
O262 C243 1.215 . S
O263 Ho240 2.524 . S
O263 C243 1.289 . S
O264 Ho240 2.381 . S
O264 C250 1.275 . S
O265 Ho240 2.669 . S
O265 Ho241 2.305 . S
O265 C250 1.256 . S
O266 Ho241 2.322 . S
O266 C251 1.259 . S
O267 Ho240 2.346 . S
O267 C251 1.268 . S
O268 Ho241 2.378 . S
O268 C252 1.215 . S
O269 Ho241 2.524 . S
O269 C252 1.289 . S
O270 Ho241 2.381 . S
O270 C259 1.275 . S
O271 Ho240 2.305 . S
O271 Ho241 2.669 . S
O271 C259 1.256 . S
H272 C245 0.930 . S
H273 C246 0.931 . S
H274 C248 0.934 . S
H275 C249 0.930 . S
H276 C254 0.930 . S
H277 C255 0.931 . S
H278 C257 0.934 . S
H279 C258 0.930 . S
Ho280 C283 2.811 . S
Ho280 O300 2.322 1_655 S
Ho280 O302 2.378 . S
Ho280 O303 2.524 . S
Ho280 O304 2.381 1_655 S
Ho280 O305 2.669 1_655 S
Ho280 O307 2.346 . S
Ho280 O311 2.305 . S
Ho281 C292 2.811 . S
Ho281 O301 2.346 . S
Ho281 O305 2.305 . S
Ho281 O306 2.322 1_455 S
Ho281 O308 2.378 . S
Ho281 O309 2.524 . S
Ho281 O310 2.381 1_455 S
Ho281 O311 2.669 1_455 S
C282 O300 1.259 . S
C282 O301 1.268 . S
C283 Ho280 2.811 . S
C283 C284 1.488 . S
C283 O302 1.215 . S
C283 O303 1.289 . S
C284 C283 1.488 . S
C284 C285 1.348 . S
C284 C289 1.413 . S
C285 C284 1.348 . S
C285 C286 1.442 . S
C285 H312 0.930 . S
C286 C285 1.442 . S
C286 C287 1.381 . S
C286 H313 0.931 . S
C287 C286 1.381 . S
C287 C288 1.321 . S
C288 C287 1.321 . S
C288 C289 1.403 . S
C288 H314 0.934 . S
C289 C284 1.413 . S
C289 C288 1.403 . S
C289 H315 0.930 . S
C290 O304 1.275 . S
C290 O305 1.256 . S
C291 O306 1.259 . S
C291 O307 1.268 . S
C292 Ho281 2.811 . S
C292 C293 1.488 . S
C292 O308 1.215 . S
C292 O309 1.289 . S
C293 C292 1.488 . S
C293 C294 1.348 . S
C293 C298 1.413 . S
C294 C293 1.348 . S
C294 C295 1.442 . S
C294 H316 0.930 . S
C295 C294 1.442 . S
C295 C296 1.381 . S
C295 H317 0.931 . S
C296 C295 1.381 . S
C296 C297 1.321 . S
C297 C296 1.321 . S
C297 C298 1.403 . S
C297 H318 0.934 . S
C298 C293 1.413 . S
C298 C297 1.403 . S
C298 H319 0.930 . S
C299 O310 1.275 . S
C299 O311 1.256 . S
O300 Ho280 2.322 1_455 S
O300 C282 1.259 . S
O301 Ho281 2.346 . S
O301 C282 1.268 . S
O302 Ho280 2.378 . S
O302 C283 1.215 . S
O303 Ho280 2.524 . S
O303 C283 1.289 . S
O304 Ho280 2.381 1_455 S
O304 C290 1.275 . S
O305 Ho280 2.669 1_455 S
O305 Ho281 2.305 . S
O305 C290 1.256 . S
O306 Ho281 2.322 1_655 S
O306 C291 1.259 . S
O307 Ho280 2.346 . S
O307 C291 1.268 . S
O308 Ho281 2.378 . S
O308 C292 1.215 . S
O309 Ho281 2.524 . S
O309 C292 1.289 . S
O310 Ho281 2.381 1_655 S
O310 C299 1.275 . S
O311 Ho280 2.305 . S
O311 Ho281 2.669 1_655 S
O311 C299 1.256 . S
H312 C285 0.930 . S
H313 C286 0.931 . S
H314 C288 0.934 . S
H315 C289 0.930 . S
H316 C294 0.930 . S
H317 C295 0.931 . S
H318 C297 0.934 . S
H319 C298 0.930 . S
Ho320 C323 2.811 . S
Ho320 O340 2.322 1_556 S
Ho320 O342 2.378 . S
Ho320 O343 2.524 1_556 S
Ho320 O344 2.381 . S
Ho320 O345 2.669 . S
Ho320 O347 2.346 . S
Ho320 O351 2.305 1_556 S
Ho321 C332 2.811 . S
Ho321 O341 2.346 . S
Ho321 O345 2.305 1_554 S
Ho321 O346 2.322 1_554 S
Ho321 O348 2.378 . S
Ho321 O349 2.524 1_554 S
Ho321 O350 2.381 . S
Ho321 O351 2.669 . S
C322 O340 1.259 . S
C322 O341 1.268 . S
C323 Ho320 2.811 . S
C323 C324 1.488 . S
C323 O342 1.215 . S
C323 O343 1.289 1_556 S
C324 C323 1.488 . S
C324 C325 1.348 1_556 S
C324 C329 1.413 . S
C325 C324 1.348 1_554 S
C325 C326 1.442 . S
C325 H352 0.930 . S
C326 C325 1.442 . S
C326 C327 1.381 1_554 S
C326 H353 0.931 . S
C327 C326 1.381 1_556 S
C327 C328 1.321 . S
C328 C327 1.321 . S
C328 C329 1.403 . S
C328 H354 0.934 . S
C329 C324 1.413 . S
C329 C328 1.403 . S
C329 H355 0.930 . S
C330 O344 1.275 . S
C330 O345 1.256 . S
C331 O346 1.259 . S
C331 O347 1.268 . S
C332 Ho321 2.811 . S
C332 C333 1.488 . S
C332 O348 1.215 . S
C332 O349 1.289 1_554 S
C333 C332 1.488 . S
C333 C334 1.348 1_554 S
C333 C338 1.413 . S
C334 C333 1.348 1_556 S
C334 C335 1.442 . S
C334 H356 0.930 . S
C335 C334 1.442 . S
C335 C336 1.381 1_556 S
C335 H357 0.931 . S
C336 C335 1.381 1_554 S
C336 C337 1.321 . S
C337 C336 1.321 . S
C337 C338 1.403 . S
C337 H358 0.934 . S
C338 C333 1.413 . S
C338 C337 1.403 . S
C338 H359 0.930 . S
C339 O350 1.275 . S
C339 O351 1.256 . S
O340 Ho320 2.322 1_554 S
O340 C322 1.259 . S
O341 Ho321 2.346 . S
O341 C322 1.268 . S
O342 Ho320 2.378 . S
O342 C323 1.215 . S
O343 Ho320 2.524 1_554 S
O343 C323 1.289 1_554 S
O344 Ho320 2.381 . S
O344 C330 1.275 . S
O345 Ho320 2.669 . S
O345 Ho321 2.305 1_556 S
O345 C330 1.256 . S
O346 Ho321 2.322 1_556 S
O346 C331 1.259 . S
O347 Ho320 2.346 . S
O347 C331 1.268 . S
O348 Ho321 2.378 . S
O348 C332 1.215 . S
O349 Ho321 2.524 1_556 S
O349 C332 1.289 1_556 S
O350 Ho321 2.381 . S
O350 C339 1.275 . S
O351 Ho320 2.305 1_554 S
O351 Ho321 2.669 . S
O351 C339 1.256 . S
H352 C325 0.930 . S
H353 C326 0.931 . S
H354 C328 0.934 . S
H355 C329 0.930 . S
H356 C334 0.930 . S
H357 C335 0.931 . S
H358 C337 0.934 . S
H359 C338 0.930 . S
Ho360 C363 2.811 . S
Ho360 O380 2.322 1_565 S
Ho360 O382 2.378 . S
Ho360 O383 2.524 1_565 S
Ho360 O384 2.381 . S
Ho360 O385 2.669 . S
Ho360 O387 2.346 . S
Ho360 O391 2.305 1_565 S
Ho361 C372 2.811 . S
Ho361 O381 2.346 . S
Ho361 O385 2.305 1_545 S
Ho361 O386 2.322 1_545 S
Ho361 O388 2.378 . S
Ho361 O389 2.524 1_545 S
Ho361 O390 2.381 . S
Ho361 O391 2.669 . S
C362 O380 1.259 . S
C362 O381 1.268 . S
C363 Ho360 2.811 . S
C363 C364 1.492 1_565 S
C363 O382 1.215 . S
C363 O383 1.289 1_565 S
C364 C363 1.492 1_545 S
C364 C365 1.371 . S
C364 C369 1.388 1_545 S
C365 C364 1.371 . S
C365 C366 1.442 . S
C365 H392 0.930 . S
C366 C365 1.442 . S
C366 C367 1.381 . S
C366 H393 0.931 . S
C367 C366 1.381 . S
C367 C368 1.321 1_545 S
C368 C367 1.321 1_565 S
C368 C369 1.403 . S
C368 H394 0.934 . S
C369 C364 1.388 1_565 S
C369 C368 1.403 . S
C369 H395 0.930 . S
C370 O384 1.275 . S
C370 O385 1.256 . S
C371 O386 1.259 . S
C371 O387 1.268 . S
C372 Ho361 2.811 . S
C372 C373 1.490 1_545 S
C372 O388 1.215 . S
C372 O389 1.289 1_545 S
C373 C372 1.490 1_565 S
C373 C374 1.362 . S
C373 C378 1.398 1_565 S
C374 C373 1.362 . S
C374 C375 1.442 . S
C374 H396 0.930 . S
C375 C374 1.442 . S
C375 C376 1.381 . S
C375 H397 0.931 . S
C376 C375 1.381 . S
C376 C377 1.321 1_565 S
C377 C376 1.321 1_545 S
C377 C378 1.403 . S
C377 H398 0.934 . S
C378 C373 1.398 1_545 S
C378 C377 1.403 . S
C378 H399 0.930 . S
C379 O390 1.275 . S
C379 O391 1.256 . S
O380 Ho360 2.322 1_545 S
O380 C362 1.259 . S
O381 Ho361 2.346 . S
O381 C362 1.268 . S
O382 Ho360 2.378 . S
O382 C363 1.215 . S
O383 Ho360 2.524 1_545 S
O383 C363 1.289 1_545 S
O384 Ho360 2.381 . S
O384 C370 1.275 . S
O385 Ho360 2.669 . S
O385 Ho361 2.305 1_565 S
O385 C370 1.256 . S
O386 Ho361 2.322 1_565 S
O386 C371 1.259 . S
O387 Ho360 2.346 . S
O387 C371 1.268 . S
O388 Ho361 2.378 . S
O388 C372 1.215 . S
O389 Ho361 2.524 1_565 S
O389 C372 1.289 1_565 S
O390 Ho361 2.381 . S
O390 C379 1.275 . S
O391 Ho360 2.305 1_545 S
O391 Ho361 2.669 . S
O391 C379 1.256 . S
H392 C365 0.930 . S
H393 C366 0.931 . S
H394 C368 0.934 . S
H395 C369 0.930 . S
H396 C374 0.930 . S
H397 C375 0.931 . S
H398 C377 0.934 . S
H399 C378 0.930 . S
Ho400 C403 2.811 . S
Ho400 O420 2.322 . S
Ho400 O422 2.378 . S
Ho400 O423 2.524 . S
Ho400 O424 2.381 . S
Ho400 O425 2.669 . S
Ho400 O427 2.346 . S
Ho400 O431 2.305 . S
Ho401 C412 2.811 . S
Ho401 O421 2.346 . S
Ho401 O425 2.305 . S
Ho401 O426 2.322 . S
Ho401 O428 2.378 . S
Ho401 O429 2.524 . S
Ho401 O430 2.381 . S
Ho401 O431 2.669 . S
C402 O420 1.259 . S
C402 O421 1.268 . S
C403 Ho400 2.811 . S
C403 C404 1.488 . S
C403 O422 1.215 . S
C403 O423 1.289 . S
C404 C403 1.488 . S
C404 C405 1.348 . S
C404 C409 1.413 . S
C405 C404 1.348 . S
C405 C406 1.442 . S
C405 H432 0.930 . S
C406 C405 1.442 . S
C406 C407 1.381 . S
C406 H433 0.931 . S
C407 C406 1.381 . S
C407 C408 1.321 . S
C408 C407 1.321 . S
C408 C409 1.403 . S
C408 H434 0.934 . S
C409 C404 1.413 . S
C409 C408 1.403 . S
C409 H435 0.930 . S
C410 O424 1.275 . S
C410 O425 1.256 . S
C411 O426 1.259 . S
C411 O427 1.268 . S
C412 Ho401 2.811 . S
C412 C413 1.488 . S
C412 O428 1.215 . S
C412 O429 1.289 . S
C413 C412 1.488 . S
C413 C414 1.348 . S
C413 C418 1.413 . S
C414 C413 1.348 . S
C414 C415 1.442 . S
C414 H436 0.930 . S
C415 C414 1.442 . S
C415 C416 1.381 . S
C415 H437 0.931 . S
C416 C415 1.381 . S
C416 C417 1.321 . S
C417 C416 1.321 . S
C417 C418 1.403 . S
C417 H438 0.934 . S
C418 C413 1.413 . S
C418 C417 1.403 . S
C418 H439 0.930 . S
C419 O430 1.275 . S
C419 O431 1.256 . S
O420 Ho400 2.322 . S
O420 C402 1.259 . S
O421 Ho401 2.346 . S
O421 C402 1.268 . S
O422 Ho400 2.378 . S
O422 C403 1.215 . S
O423 Ho400 2.524 . S
O423 C403 1.289 . S
O424 Ho400 2.381 . S
O424 C410 1.275 . S
O425 Ho400 2.669 . S
O425 Ho401 2.305 . S
O425 C410 1.256 . S
O426 Ho401 2.322 . S
O426 C411 1.259 . S
O427 Ho400 2.346 . S
O427 C411 1.268 . S
O428 Ho401 2.378 . S
O428 C412 1.215 . S
O429 Ho401 2.524 . S
O429 C412 1.289 . S
O430 Ho401 2.381 . S
O430 C419 1.275 . S
O431 Ho400 2.305 . S
O431 Ho401 2.669 . S
O431 C419 1.256 . S
H432 C405 0.930 . S
H433 C406 0.931 . S
H434 C408 0.934 . S
H435 C409 0.930 . S
H436 C414 0.930 . S
H437 C415 0.931 . S
H438 C417 0.934 . S
H439 C418 0.930 . S
Ho440 C443 2.811 . S
Ho440 O460 2.322 1_455 S
Ho440 O462 2.378 . S
Ho440 O463 2.524 1_455 S
Ho440 O464 2.381 . S
Ho440 O465 2.669 . S
Ho440 O467 2.346 . S
Ho440 O471 2.305 1_455 S
Ho441 C452 2.811 . S
Ho441 O461 2.346 . S
Ho441 O465 2.305 1_655 S
Ho441 O466 2.322 1_655 S
Ho441 O468 2.378 . S
Ho441 O469 2.524 1_655 S
Ho441 O470 2.381 . S
Ho441 O471 2.669 . S
C442 O460 1.259 . S
C442 O461 1.268 . S
C443 Ho440 2.811 . S
C443 C444 1.488 . S
C443 O462 1.215 . S
C443 O463 1.289 1_455 S
C444 C443 1.488 . S
C444 C445 1.348 1_455 S
C444 C449 1.413 . S
C445 C444 1.348 1_655 S
C445 C446 1.442 . S
C445 H472 0.930 . S
C446 C445 1.442 . S
C446 C447 1.381 . S
C446 H473 0.931 . S
C447 C446 1.381 . S
C447 C448 1.321 1_655 S
C448 C447 1.321 1_455 S
C448 C449 1.403 . S
C448 H474 0.934 . S
C449 C444 1.413 . S
C449 C448 1.403 . S
C449 H475 0.930 . S
C450 O464 1.275 . S
C450 O465 1.256 . S
C451 O466 1.259 . S
C451 O467 1.268 . S
C452 Ho441 2.811 . S
C452 C453 1.488 . S
C452 O468 1.215 . S
C452 O469 1.289 1_655 S
C453 C452 1.488 . S
C453 C454 1.348 1_655 S
C453 C458 1.413 . S
C454 C453 1.348 1_455 S
C454 C455 1.442 . S
C454 H476 0.930 . S
C455 C454 1.442 . S
C455 C456 1.381 . S
C455 H477 0.931 . S
C456 C455 1.381 . S
C456 C457 1.321 1_455 S
C457 C456 1.321 1_655 S
C457 C458 1.403 . S
C457 H478 0.934 . S
C458 C453 1.413 . S
C458 C457 1.403 . S
C458 H479 0.930 . S
C459 O470 1.275 . S
C459 O471 1.256 . S
O460 Ho440 2.322 1_655 S
O460 C442 1.259 . S
O461 Ho441 2.346 . S
O461 C442 1.268 . S
O462 Ho440 2.378 . S
O462 C443 1.215 . S
O463 Ho440 2.524 1_655 S
O463 C443 1.289 1_655 S
O464 Ho440 2.381 . S
O464 C450 1.275 . S
O465 Ho440 2.669 . S
O465 Ho441 2.305 1_455 S
O465 C450 1.256 . S
O466 Ho441 2.322 1_455 S
O466 C451 1.259 . S
O467 Ho440 2.346 . S
O467 C451 1.268 . S
O468 Ho441 2.378 . S
O468 C452 1.215 . S
O469 Ho441 2.524 1_455 S
O469 C452 1.289 1_455 S
O470 Ho441 2.381 . S
O470 C459 1.275 . S
O471 Ho440 2.305 1_655 S
O471 Ho441 2.669 . S
O471 C459 1.256 . S
H472 C445 0.930 . S
H473 C446 0.931 . S
H474 C448 0.934 . S
H475 C449 0.930 . S
H476 C454 0.930 . S
H477 C455 0.931 . S
H478 C457 0.934 . S
H479 C458 0.930 . S
Ho480 C483 2.811 . S
Ho480 O500 2.322 . S
Ho480 O502 2.378 . S
Ho480 O503 2.524 . S
Ho480 O504 2.381 . S
Ho480 O505 2.669 . S
Ho480 O507 2.346 . S
Ho480 O511 2.305 . S
Ho481 C492 2.811 . S
Ho481 O501 2.346 . S
Ho481 O505 2.305 . S
Ho481 O506 2.322 . S
Ho481 O508 2.378 . S
Ho481 O509 2.524 . S
Ho481 O510 2.381 . S
Ho481 O511 2.669 . S
C482 O500 1.259 . S
C482 O501 1.268 . S
C483 Ho480 2.811 . S
C483 C484 1.488 . S
C483 O502 1.215 . S
C483 O503 1.289 . S
C484 C483 1.488 . S
C484 C485 1.348 . S
C484 C489 1.413 . S
C485 C484 1.348 . S
C485 C486 1.442 . S
C485 H512 0.930 . S
C486 C485 1.442 . S
C486 C487 1.381 . S
C486 H513 0.931 . S
C487 C486 1.381 . S
C487 C488 1.321 . S
C488 C487 1.321 . S
C488 C489 1.403 . S
C488 H514 0.934 . S
C489 C484 1.413 . S
C489 C488 1.403 . S
C489 H515 0.930 . S
C490 O504 1.275 . S
C490 O505 1.256 . S
C491 O506 1.259 . S
C491 O507 1.268 . S
C492 Ho481 2.811 . S
C492 C493 1.488 . S
C492 O508 1.215 . S
C492 O509 1.289 . S
C493 C492 1.488 . S
C493 C494 1.348 . S
C493 C498 1.413 . S
C494 C493 1.348 . S
C494 C495 1.442 . S
C494 H516 0.930 . S
C495 C494 1.442 . S
C495 C496 1.381 . S
C495 H517 0.931 . S
C496 C495 1.381 . S
C496 C497 1.321 . S
C497 C496 1.321 . S
C497 C498 1.403 . S
C497 H518 0.934 . S
C498 C493 1.413 . S
C498 C497 1.403 . S
C498 H519 0.930 . S
C499 O510 1.275 . S
C499 O511 1.256 . S
O500 Ho480 2.322 . S
O500 C482 1.259 . S
O501 Ho481 2.346 . S
O501 C482 1.268 . S
O502 Ho480 2.378 . S
O502 C483 1.215 . S
O503 Ho480 2.524 . S
O503 C483 1.289 . S
O504 Ho480 2.381 . S
O504 C490 1.275 . S
O505 Ho480 2.669 . S
O505 Ho481 2.305 . S
O505 C490 1.256 . S
O506 Ho481 2.322 . S
O506 C491 1.259 . S
O507 Ho480 2.346 . S
O507 C491 1.268 . S
O508 Ho481 2.378 . S
O508 C492 1.215 . S
O509 Ho481 2.524 . S
O509 C492 1.289 . S
O510 Ho481 2.381 . S
O510 C499 1.275 . S
O511 Ho480 2.305 . S
O511 Ho481 2.669 . S
O511 C499 1.256 . S
H512 C485 0.930 . S
H513 C486 0.931 . S
H514 C488 0.934 . S
H515 C489 0.930 . S
H516 C494 0.930 . S
H517 C495 0.931 . S
H518 C497 0.934 . S
H519 C498 0.930 . S
Ho520 C523 2.811 . S
Ho520 O540 2.322 1_556 S
Ho520 O542 2.378 . S
Ho520 O543 2.524 1_556 S
Ho520 O544 2.381 . S
Ho520 O545 2.669 . S
Ho520 O547 2.346 . S
Ho520 O551 2.305 1_556 S
Ho521 C532 2.811 . S
Ho521 O541 2.346 . S
Ho521 O545 2.305 1_554 S
Ho521 O546 2.322 1_554 S
Ho521 O548 2.378 . S
Ho521 O549 2.524 1_554 S
Ho521 O550 2.381 . S
Ho521 O551 2.669 . S
C522 O540 1.259 . S
C522 O541 1.268 . S
C523 Ho520 2.811 . S
C523 C524 1.488 . S
C523 O542 1.215 . S
C523 O543 1.289 1_556 S
C524 C523 1.488 . S
C524 C525 1.348 1_556 S
C524 C529 1.413 . S
C525 C524 1.348 1_554 S
C525 C526 1.442 . S
C525 H552 0.930 . S
C526 C525 1.442 . S
C526 C527 1.381 1_554 S
C526 H553 0.931 . S
C527 C526 1.381 1_556 S
C527 C528 1.321 . S
C528 C527 1.321 . S
C528 C529 1.403 . S
C528 H554 0.934 . S
C529 C524 1.413 . S
C529 C528 1.403 . S
C529 H555 0.930 . S
C530 O544 1.275 . S
C530 O545 1.256 . S
C531 O546 1.259 . S
C531 O547 1.268 . S
C532 Ho521 2.811 . S
C532 C533 1.488 . S
C532 O548 1.215 . S
C532 O549 1.289 1_554 S
C533 C532 1.488 . S
C533 C534 1.348 1_554 S
C533 C538 1.413 . S
C534 C533 1.348 1_556 S
C534 C535 1.442 . S
C534 H556 0.930 . S
C535 C534 1.442 . S
C535 C536 1.381 1_556 S
C535 H557 0.931 . S
C536 C535 1.381 1_554 S
C536 C537 1.321 . S
C537 C536 1.321 . S
C537 C538 1.403 . S
C537 H558 0.934 . S
C538 C533 1.413 . S
C538 C537 1.403 . S
C538 H559 0.930 . S
C539 O550 1.275 . S
C539 O551 1.256 . S
O540 Ho520 2.322 1_554 S
O540 C522 1.259 . S
O541 Ho521 2.346 . S
O541 C522 1.268 . S
O542 Ho520 2.378 . S
O542 C523 1.215 . S
O543 Ho520 2.524 1_554 S
O543 C523 1.289 1_554 S
O544 Ho520 2.381 . S
O544 C530 1.275 . S
O545 Ho520 2.669 . S
O545 Ho521 2.305 1_556 S
O545 C530 1.256 . S
O546 Ho521 2.322 1_556 S
O546 C531 1.259 . S
O547 Ho520 2.346 . S
O547 C531 1.268 . S
O548 Ho521 2.378 . S
O548 C532 1.215 . S
O549 Ho521 2.524 1_556 S
O549 C532 1.289 1_556 S
O550 Ho521 2.381 . S
O550 C539 1.275 . S
O551 Ho520 2.305 1_554 S
O551 Ho521 2.669 . S
O551 C539 1.256 . S
H552 C525 0.930 . S
H553 C526 0.931 . S
H554 C528 0.934 . S
H555 C529 0.930 . S
H556 C534 0.930 . S
H557 C535 0.931 . S
H558 C537 0.934 . S
H559 C538 0.930 . S
Ho560 C563 2.811 . S
Ho560 O580 2.322 . S
Ho560 O582 2.378 . S
Ho560 O583 2.524 . S
Ho560 O584 2.381 . S
Ho560 O585 2.669 . S
Ho560 O587 2.346 1_565 S
Ho560 O591 2.305 1_565 S
Ho561 C572 2.811 . S
Ho561 O581 2.346 1_545 S
Ho561 O585 2.305 1_545 S
Ho561 O586 2.322 . S
Ho561 O588 2.378 . S
Ho561 O589 2.524 . S
Ho561 O590 2.381 . S
Ho561 O591 2.669 . S
C562 O580 1.259 . S
C562 O581 1.268 . S
C563 Ho560 2.811 . S
C563 C564 1.488 . S
C563 O582 1.215 . S
C563 O583 1.289 . S
C564 C563 1.488 . S
C564 C565 1.348 . S
C564 C569 1.413 . S
C565 C564 1.348 . S
C565 C566 1.442 . S
C565 H592 0.930 . S
C566 C565 1.442 . S
C566 C567 1.381 . S
C566 H593 0.931 . S
C567 C566 1.381 . S
C567 C568 1.321 . S
C568 C567 1.321 . S
C568 C569 1.403 . S
C568 H594 0.934 . S
C569 C564 1.413 . S
C569 C568 1.403 . S
C569 H595 0.930 . S
C570 O584 1.275 . S
C570 O585 1.256 . S
C571 O586 1.259 . S
C571 O587 1.268 . S
C572 Ho561 2.811 . S
C572 C573 1.488 . S
C572 O588 1.215 . S
C572 O589 1.289 . S
C573 C572 1.488 . S
C573 C574 1.348 . S
C573 C578 1.413 . S
C574 C573 1.348 . S
C574 C575 1.442 . S
C574 H596 0.930 . S
C575 C574 1.442 . S
C575 C576 1.381 . S
C575 H597 0.931 . S
C576 C575 1.381 . S
C576 C577 1.321 . S
C577 C576 1.321 . S
C577 C578 1.403 . S
C577 H598 0.934 . S
C578 C573 1.413 . S
C578 C577 1.403 . S
C578 H599 0.930 . S
C579 O590 1.275 . S
C579 O591 1.256 . S
O580 Ho560 2.322 . S
O580 C562 1.259 . S
O581 Ho561 2.346 1_565 S
O581 C562 1.268 . S
O582 Ho560 2.378 . S
O582 C563 1.215 . S
O583 Ho560 2.524 . S
O583 C563 1.289 . S
O584 Ho560 2.381 . S
O584 C570 1.275 . S
O585 Ho560 2.669 . S
O585 Ho561 2.305 1_565 S
O585 C570 1.256 . S
O586 Ho561 2.322 . S
O586 C571 1.259 . S
O587 Ho560 2.346 1_545 S
O587 C571 1.268 . S
O588 Ho561 2.378 . S
O588 C572 1.215 . S
O589 Ho561 2.524 . S
O589 C572 1.289 . S
O590 Ho561 2.381 . S
O590 C579 1.275 . S
O591 Ho560 2.305 1_545 S
O591 Ho561 2.669 . S
O591 C579 1.256 . S
H592 C565 0.930 . S
H593 C566 0.931 . S
H594 C568 0.934 . S
H595 C569 0.930 . S
H596 C574 0.930 . S
H597 C575 0.931 . S
H598 C577 0.934 . S
H599 C578 0.930 . S
Ho600 C603 2.811 . S
Ho600 O620 2.291 1_554 S
Ho600 O622 2.378 . S
Ho600 O623 2.524 . S
Ho600 O624 2.381 . S
Ho600 O625 2.669 . S
Ho600 O627 2.346 . S
Ho600 O631 2.305 1_554 S
Ho601 C612 2.811 . S
Ho601 O621 2.346 . S
Ho601 O625 2.305 1_556 S
Ho601 O626 2.322 1_556 S
Ho601 O628 2.378 . S
Ho601 O629 2.524 . S
Ho601 O630 2.381 . S
Ho601 O631 2.669 . S
C602 O620 1.304 . S
C602 O621 1.268 . S
C603 Ho600 2.811 . S
C603 C604 1.488 . S
C603 O622 1.215 . S
C603 O623 1.289 . S
C604 C603 1.488 . S
C604 C605 1.348 . S
C604 C609 1.413 . S
C605 C604 1.348 . S
C605 C606 1.442 . S
C605 H632 0.930 1_554 S
C606 C605 1.442 . S
C606 C607 1.381 . S
C606 H633 0.931 1_554 S
C607 C606 1.381 . S
C607 C608 1.321 . S
C608 C607 1.321 . S
C608 C609 1.403 . S
C608 H634 0.934 . S
C609 C604 1.413 . S
C609 C608 1.403 . S
C609 H635 0.930 . S
C610 O624 1.275 . S
C610 O625 1.256 . S
C611 O626 1.259 . S
C611 O627 1.268 . S
C612 Ho601 2.811 . S
C612 C613 1.488 . S
C612 O628 1.215 . S
C612 O629 1.289 . S
C613 C612 1.488 . S
C613 C614 1.348 . S
C613 C618 1.413 . S
C614 C613 1.348 . S
C614 C615 1.442 . S
C614 H636 0.930 1_556 S
C615 C614 1.442 . S
C615 C616 1.381 . S
C615 H637 0.931 1_556 S
C616 C615 1.381 . S
C616 C617 1.321 . S
C617 C616 1.321 . S
C617 C618 1.403 . S
C617 H638 0.934 . S
C618 C613 1.413 . S
C618 C617 1.403 . S
C618 H639 0.930 . S
C619 O630 1.275 . S
C619 O631 1.256 . S
O620 Ho600 2.291 1_556 S
O620 C602 1.304 . S
O621 Ho601 2.346 . S
O621 C602 1.268 . S
O622 Ho600 2.378 . S
O622 C603 1.215 . S
O623 Ho600 2.524 . S
O623 C603 1.289 . S
O624 Ho600 2.381 . S
O624 C610 1.275 . S
O625 Ho600 2.669 . S
O625 Ho601 2.305 1_554 S
O625 C610 1.256 . S
O626 Ho601 2.322 1_554 S
O626 C611 1.259 . S
O627 Ho600 2.346 . S
O627 C611 1.268 . S
O628 Ho601 2.378 . S
O628 C612 1.215 . S
O629 Ho601 2.524 . S
O629 C612 1.289 . S
O630 Ho601 2.381 . S
O630 C619 1.275 . S
O631 Ho600 2.305 1_556 S
O631 Ho601 2.669 . S
O631 C619 1.256 . S
H632 C605 0.930 1_556 S
H633 C606 0.931 1_556 S
H634 C608 0.934 . S
H635 C609 0.930 . S
H636 C614 0.930 1_554 S
H637 C615 0.931 1_554 S
H638 C617 0.934 . S
H639 C618 0.930 . S
H640 C658 0.951 . S
H641 C660 0.951 . S
H642 C662 0.950 . S
H643 C663 0.950 . S
H644 C665 0.950 . S
H645 C668 0.950 . S
H646 C669 0.950 . S
H647 C671 0.950 . S
H648 C672 0.950 . S
H649 C673 0.951 . S
H650 C675 0.951 . S
H651 C677 0.950 . S
H652 C678 0.950 . S
H653 C680 0.965 . S
H654 C683 0.950 . S
H655 C684 0.950 . S
H656 C686 0.950 . S
H657 C687 0.950 . S
C658 H640 0.951 . S
C658 C659 1.366 . S
C658 C660 1.388 . S
C659 C658 1.366 . S
C659 C663 1.385 1_655 S
C660 H641 0.951 . S
C660 C658 1.388 . S
C660 C661 1.366 . S
C661 C660 1.366 . S
C661 C662 1.414 1_655 S
C661 C664 1.499 . S
C662 H642 0.950 . S
C662 C661 1.414 1_455 S
C662 C663 1.374 . S
C663 H643 0.950 . S
C663 C659 1.385 1_455 S
C663 C662 1.374 . S
C664 C661 1.499 . S
C664 C665 1.373 . S
C664 C666 1.389 . S
C665 H644 0.950 . S
C665 C664 1.373 . S
C665 C681 1.377 . S
C666 C664 1.389 . S
C666 C667 1.524 1_655 S
C666 C680 1.377 . S
C667 C666 1.524 1_455 S
C667 C668 1.405 . S
C667 C672 1.357 1_455 S
C668 H645 0.950 . S
C668 C667 1.405 . S
C668 C669 1.334 1_554 S
C669 H646 0.950 . S
C669 C668 1.334 1_556 S
C669 C670 1.287 . S
C670 C669 1.287 . S
C670 C671 1.524 1_455 S
C670 H689 0.913 . S
C671 H647 0.950 . S
C671 C670 1.524 1_655 S
C671 C672 1.415 1_556 S
C672 H648 0.950 . S
C672 C667 1.357 1_655 S
C672 C671 1.415 1_554 S
C673 H649 0.951 . S
C673 C674 1.366 . S
C673 C675 1.388 . S
C674 C673 1.366 . S
C674 C678 1.385 1_455 S
C675 H650 0.951 . S
C675 C673 1.388 . S
C675 C676 1.394 . S
C676 C675 1.394 . S
C676 C677 1.404 1_455 S
C676 C679 1.482 1_455 S
C677 H651 0.950 . S
C677 C676 1.404 1_655 S
C677 C678 1.374 . S
C678 H652 0.950 . S
C678 C674 1.385 1_655 S
C678 C677 1.374 . S
C679 C676 1.482 1_655 S
C679 C680 1.373 . S
C679 C681 1.389 . S
C680 H653 0.965 . S
C680 C666 1.377 . S
C680 C679 1.373 . S
C681 C665 1.377 . S
C681 C679 1.389 . S
C681 C682 1.524 . S
C682 C681 1.524 . S
C682 C683 1.397 . S
C682 C687 1.363 1_655 S
C683 H654 0.950 . S
C683 C682 1.397 . S
C683 C684 1.334 . S
C684 H655 0.950 . S
C684 C683 1.334 . S
C684 C685 1.287 . S
C685 C684 1.287 . S
C685 C686 1.524 1_655 S
C685 H688 0.999 . S
C686 H656 0.950 . S
C686 C685 1.524 1_455 S
C686 C687 1.415 . S
C687 H657 0.950 . S
C687 C682 1.363 1_455 S
C687 C686 1.415 . S
H688 C685 0.999 . S
H689 C670 0.913 . S
H690 C708 0.951 . S
H691 C710 0.951 . S
H692 C712 0.950 . S
H693 C713 0.950 . S
H694 C715 0.950 . S
H695 C718 0.950 . S
H696 C719 0.950 . S
H697 C721 0.950 . S
H698 C722 0.950 . S
H699 C723 0.951 . S
H700 C725 0.951 . S
H701 C727 0.950 . S
H702 C728 0.950 . S
H703 C730 0.950 . S
H704 C733 0.950 . S
H705 C734 0.950 . S
H706 C736 0.950 . S
H707 C737 0.950 . S
C708 H690 0.951 . S
C708 C709 1.366 . S
C708 C710 1.388 . S
C709 C708 1.366 . S
C709 C713 1.385 . S
C710 H691 0.951 . S
C710 C708 1.388 . S
C710 C711 1.366 . S
C711 C710 1.366 . S
C711 C712 1.414 . S
C711 C714 1.499 . S
C712 H692 0.950 . S
C712 C711 1.414 . S
C712 C713 1.374 . S
C713 H693 0.950 . S
C713 C709 1.385 . S
C713 C712 1.374 . S
C714 C711 1.499 . S
C714 C715 1.373 . S
C714 C716 1.389 . S
C715 H694 0.950 . S
C715 C714 1.373 . S
C715 C731 1.377 . S
C716 C714 1.389 . S
C716 C717 1.524 . S
C716 C730 1.377 . S
C717 C716 1.524 . S
C717 C718 1.397 . S
C717 C722 1.363 . S
C718 H695 0.950 . S
C718 C717 1.397 . S
C718 C719 1.334 . S
C719 H696 0.950 . S
C719 C718 1.334 . S
C719 C720 1.287 . S
C720 C719 1.287 . S
C720 C721 1.524 . S
C720 H739 0.913 . S
C721 H697 0.950 . S
C721 C720 1.524 . S
C721 C722 1.415 . S
C722 H698 0.950 . S
C722 C717 1.363 . S
C722 C721 1.415 . S
C723 H699 0.951 . S
C723 C724 1.366 . S
C723 C725 1.388 . S
C724 C723 1.366 . S
C724 C728 1.385 . S
C725 H700 0.951 . S
C725 C723 1.388 . S
C725 C726 1.366 . S
C726 C725 1.366 . S
C726 C727 1.414 . S
C726 C729 1.499 . S
C727 H701 0.950 . S
C727 C726 1.414 . S
C727 C728 1.374 . S
C728 H702 0.950 . S
C728 C724 1.385 . S
C728 C727 1.374 . S
C729 C726 1.499 . S
C729 C730 1.373 . S
C729 C731 1.389 . S
C730 H703 0.950 . S
C730 C716 1.377 . S
C730 C729 1.373 . S
C731 C715 1.377 . S
C731 C729 1.389 . S
C731 C732 1.524 . S
C732 C731 1.524 . S
C732 C733 1.397 . S
C732 C737 1.363 . S
C733 H704 0.950 . S
C733 C732 1.397 . S
C733 C734 1.334 . S
C734 H705 0.950 . S
C734 C733 1.334 . S
C734 C735 1.287 . S
C735 C734 1.287 . S
C735 C736 1.524 . S
C735 H738 0.999 . S
C736 H706 0.950 . S
C736 C735 1.524 . S
C736 C737 1.415 . S
C737 H707 0.950 . S
C737 C732 1.363 . S
C737 C736 1.415 . S
H738 C735 0.999 . S
H739 C720 0.913 . S
H740 C758 0.951 . S
H741 C760 0.951 . S
H742 C762 0.950 . S
H743 C763 0.950 . S
H744 C765 0.950 . S
H745 C768 0.950 . S
H746 C769 0.950 . S
H747 C771 0.950 . S
H748 C772 0.950 . S
H749 C773 0.951 . S
H750 C775 0.951 . S
H751 C777 0.950 . S
H752 C778 0.950 . S
H753 C780 0.950 . S
H754 C783 0.950 . S
H755 C784 0.950 . S
H756 C786 0.950 . S
H757 C787 0.950 . S
C758 H740 0.951 . S
C758 C759 1.366 . S
C758 C760 1.388 . S
C759 C758 1.366 . S
C759 C763 1.385 . S
C760 H741 0.951 . S
C760 C758 1.388 . S
C760 C761 1.366 . S
C761 C760 1.366 . S
C761 C762 1.414 . S
C761 C764 1.499 . S
C762 H742 0.950 . S
C762 C761 1.414 . S
C762 C763 1.374 . S
C763 H743 0.950 . S
C763 C759 1.385 . S
C763 C762 1.374 . S
C764 C761 1.499 . S
C764 C765 1.373 . S
C764 C766 1.389 . S
C765 H744 0.950 . S
C765 C764 1.373 . S
C765 C781 1.377 . S
C766 C764 1.389 . S
C766 C767 1.524 . S
C766 C780 1.377 . S
C767 C766 1.524 . S
C767 C768 1.397 . S
C767 C772 1.363 . S
C768 H745 0.950 . S
C768 C767 1.397 . S
C768 C769 1.334 . S
C769 H746 0.950 . S
C769 C768 1.334 . S
C769 C770 1.287 . S
C770 C769 1.287 . S
C770 C771 1.524 . S
C770 H789 0.913 . S
C771 H747 0.950 . S
C771 C770 1.524 . S
C771 C772 1.415 . S
C772 H748 0.950 . S
C772 C767 1.363 . S
C772 C771 1.415 . S
C773 H749 0.951 . S
C773 C774 1.366 . S
C773 C775 1.388 . S
C774 C773 1.366 . S
C774 C778 1.385 . S
C775 H750 0.951 . S
C775 C773 1.388 . S
C775 C776 1.366 . S
C776 C775 1.366 . S
C776 C777 1.414 . S
C776 C779 1.499 . S
C777 H751 0.950 . S
C777 C776 1.414 . S
C777 C778 1.374 . S
C778 H752 0.950 . S
C778 C774 1.385 . S
C778 C777 1.374 . S
C779 C776 1.499 . S
C779 C780 1.373 . S
C779 C781 1.389 . S
C780 H753 0.950 . S
C780 C766 1.377 . S
C780 C779 1.373 . S
C781 C765 1.377 . S
C781 C779 1.389 . S
C781 C782 1.524 . S
C782 C781 1.524 . S
C782 C783 1.397 . S
C782 C787 1.363 . S
C783 H754 0.950 . S
C783 C782 1.397 . S
C783 C784 1.334 . S
C784 H755 0.950 . S
C784 C783 1.334 . S
C784 C785 1.287 . S
C785 C784 1.287 . S
C785 C786 1.524 . S
C785 H788 0.999 . S
C786 H756 0.950 . S
C786 C785 1.524 . S
C786 C787 1.415 . S
C787 H757 0.950 . S
C787 C782 1.363 . S
C787 C786 1.415 . S
H788 C785 0.999 . S
H789 C770 0.913 . S
H790 C808 0.951 . S
H791 C810 0.951 . S
H792 C812 0.950 1_565 S
H793 C813 0.950 . S
H794 C815 0.950 . S
H795 C818 0.950 . S
H796 C819 0.950 . S
H797 C821 0.950 . S
H798 C822 0.950 . S
H799 C823 0.951 . S
H800 C825 0.951 . S
H801 C827 0.950 . S
H802 C828 0.950 . S
H803 C830 0.930 1_565 S
H804 C833 0.950 . S
H805 C834 0.950 . S
H806 C836 0.950 . S
H807 C837 0.950 1_565 S
C808 H790 0.951 . S
C808 C809 1.366 . S
C808 C810 1.388 . S
C809 C808 1.366 . S
C809 C813 1.385 . S
C810 H791 0.951 . S
C810 C808 1.388 . S
C810 C811 1.366 . S
C811 C810 1.366 . S
C811 C812 1.414 . S
C811 C814 1.499 . S
C812 H792 0.950 1_545 S
C812 C811 1.414 . S
C812 C813 1.374 . S
C813 H793 0.950 . S
C813 C809 1.385 . S
C813 C812 1.374 . S
C814 C811 1.499 . S
C814 C815 1.373 . S
C814 C816 1.389 . S
C815 H794 0.950 . S
C815 C814 1.373 . S
C815 C831 1.377 . S
C816 C814 1.389 . S
C816 C817 1.522 1_545 S
C816 C830 1.377 . S
C817 C816 1.522 1_565 S
C817 C818 1.409 . S
C817 C822 1.356 1_565 S
C818 H795 0.950 . S
C818 C817 1.409 . S
C818 C819 1.334 1_556 S
C819 H796 0.950 . S
C819 C818 1.334 1_554 S
C819 C820 1.287 . S
C820 C819 1.287 . S
C820 C821 1.524 1_565 S
C820 H839 0.913 . S
C821 H797 0.950 . S
C821 C820 1.524 1_545 S
C821 C822 1.415 1_554 S
C822 H798 0.950 . S
C822 C817 1.356 1_545 S
C822 C821 1.415 1_556 S
C823 H799 0.951 . S
C823 C824 1.366 . S
C823 C825 1.388 . S
C824 C823 1.366 . S
C824 C828 1.385 1_565 S
C825 H800 0.951 . S
C825 C823 1.388 . S
C825 C826 1.343 1_565 S
C826 C825 1.343 1_545 S
C826 C827 1.419 . S
C826 C829 1.516 . S
C827 H801 0.950 . S
C827 C826 1.419 . S
C827 C828 1.374 . S
C828 H802 0.950 . S
C828 C824 1.385 1_545 S
C828 C827 1.374 . S
C829 C826 1.516 . S
C829 C830 1.373 . S
C829 C831 1.389 . S
C830 H803 0.930 1_545 S
C830 C816 1.377 . S
C830 C829 1.373 . S
C831 C815 1.377 . S
C831 C829 1.389 . S
C831 C832 1.524 . S
C832 C831 1.524 . S
C832 C833 1.397 . S
C832 C837 1.363 . S
C833 H804 0.950 . S
C833 C832 1.397 . S
C833 C834 1.334 . S
C834 H805 0.950 . S
C834 C833 1.334 . S
C834 C835 1.287 . S
C835 C834 1.287 . S
C835 C836 1.524 . S
C835 H838 0.999 . S
C836 H806 0.950 . S
C836 C835 1.524 . S
C836 C837 1.415 . S
C837 H807 0.950 1_545 S
C837 C832 1.363 . S
C837 C836 1.415 . S
H838 C835 0.999 . S
H839 C820 0.913 . S
H840 C858 0.951 . S
H841 C860 0.951 . S
H842 C862 0.950 . S
H843 C863 0.950 . S
H844 C865 0.950 . S
H845 C868 0.950 . S
H846 C869 0.950 . S
H847 C871 0.950 . S
H848 C872 0.950 . S
H849 C873 0.951 . S
H850 C875 0.951 . S
H851 C877 0.950 . S
H852 C878 0.946 . S
H853 C880 0.950 . S
H854 C883 0.950 . S
H855 C884 0.950 . S
H856 C886 0.950 . S
H857 C887 0.950 . S
C858 H840 0.951 . S
C858 C859 1.366 . S
C858 C860 1.388 . S
C859 C858 1.366 . S
C859 C863 1.385 . S
C860 H841 0.951 . S
C860 C858 1.388 . S
C860 C861 1.366 . S
C861 C860 1.366 . S
C861 C862 1.414 . S
C861 C864 1.499 . S
C862 H842 0.950 . S
C862 C861 1.414 . S
C862 C863 1.374 . S
C863 H843 0.950 . S
C863 C859 1.385 . S
C863 C862 1.374 . S
C864 C861 1.499 . S
C864 C865 1.373 1_565 S
C864 C866 1.389 . S
C865 H844 0.950 . S
C865 C864 1.373 1_545 S
C865 C881 1.377 . S
C866 C864 1.389 . S
C866 C867 1.524 . S
C866 C880 1.377 . S
C867 C866 1.524 . S
C867 C868 1.397 . S
C867 C872 1.363 . S
C868 H845 0.950 . S
C868 C867 1.397 . S
C868 C869 1.334 . S
C869 H846 0.950 . S
C869 C868 1.334 . S
C869 C870 1.287 . S
C870 C869 1.287 . S
C870 C871 1.524 . S
C870 H889 0.913 . S
C871 H847 0.950 . S
C871 C870 1.524 . S
C871 C872 1.415 . S
C872 H848 0.950 . S
C872 C867 1.363 . S
C872 C871 1.415 . S
C873 H849 0.951 . S
C873 C874 1.366 . S
C873 C875 1.388 . S
C874 C873 1.366 . S
C874 C878 1.385 . S
C875 H850 0.951 . S
C875 C873 1.388 . S
C875 C876 1.366 . S
C876 C875 1.366 . S
C876 C877 1.414 1_545 S
C876 C879 1.499 1_545 S
C877 H851 0.950 . S
C877 C876 1.414 1_565 S
C877 C878 1.374 1_565 S
C878 H852 0.946 . S
C878 C874 1.385 . S
C878 C877 1.374 1_545 S
C879 C876 1.499 1_565 S
C879 C880 1.373 . S
C879 C881 1.389 1_565 S
C880 H853 0.950 . S
C880 C866 1.377 . S
C880 C879 1.373 . S
C881 C865 1.377 . S
C881 C879 1.389 1_545 S
C881 C882 1.524 . S
C882 C881 1.524 . S
C882 C883 1.397 . S
C882 C887 1.363 . S
C883 H854 0.950 . S
C883 C882 1.397 . S
C883 C884 1.334 . S
C884 H855 0.950 . S
C884 C883 1.334 . S
C884 C885 1.287 . S
C885 C884 1.287 . S
C885 C886 1.524 . S
C885 H888 0.999 . S
C886 H856 0.950 . S
C886 C885 1.524 . S
C886 C887 1.415 . S
C887 H857 0.950 . S
C887 C882 1.363 . S
C887 C886 1.415 . S
H888 C885 0.999 . S
H889 C870 0.913 . S
H890 C908 0.951 . S
H891 C910 0.951 . S
H892 C912 0.950 . S
H893 C913 0.950 . S
H894 C915 0.950 . S
H895 C918 0.950 . S
H896 C919 0.952 1_655 S
H897 C921 0.950 . S
H898 C922 0.950 . S
H899 C923 0.951 . S
H900 C925 0.951 . S
H901 C927 0.950 . S
H902 C928 0.950 . S
H903 C930 0.950 . S
H904 C933 0.950 . S
H905 C934 0.950 . S
H906 C936 0.950 . S
H907 C937 0.950 . S
C908 H890 0.951 . S
C908 C909 1.366 . S
C908 C910 1.388 . S
C909 C908 1.366 . S
C909 C913 1.385 1_455 S
C910 H891 0.951 . S
C910 C908 1.388 . S
C910 C911 1.366 . S
C911 C910 1.366 . S
C911 C912 1.414 1_455 S
C911 C914 1.499 . S
C912 H892 0.950 . S
C912 C911 1.414 1_655 S
C912 C913 1.374 . S
C913 H893 0.950 . S
C913 C909 1.385 1_655 S
C913 C912 1.374 . S
C914 C911 1.499 . S
C914 C915 1.373 1_455 S
C914 C916 1.389 . S
C915 H894 0.950 . S
C915 C914 1.373 1_655 S
C915 C931 1.377 . S
C916 C914 1.389 . S
C916 C917 1.524 . S
C916 C930 1.377 . S
C917 C916 1.524 . S
C917 C918 1.397 1_455 S
C917 C922 1.363 . S
C918 H895 0.950 . S
C918 C917 1.397 1_655 S
C918 C919 1.336 1_655 S
C919 H896 0.952 1_455 S
C919 C918 1.336 1_455 S
C919 C920 1.283 . S
C920 C919 1.283 . S
C920 C921 1.524 . S
C920 H939 0.913 . S
C921 H897 0.950 . S
C921 C920 1.524 . S
C921 C922 1.415 . S
C922 H898 0.950 . S
C922 C917 1.363 . S
C922 C921 1.415 . S
C923 H899 0.951 . S
C923 C924 1.366 . S
C923 C925 1.388 . S
C924 C923 1.366 . S
C924 C928 1.385 1_655 S
C925 H900 0.951 . S
C925 C923 1.388 . S
C925 C926 1.408 . S
C926 C925 1.408 . S
C926 C927 1.392 1_655 S
C926 C929 1.479 1_655 S
C927 H901 0.950 . S
C927 C926 1.392 1_455 S
C927 C928 1.374 . S
C928 H902 0.950 . S
C928 C924 1.385 1_455 S
C928 C927 1.374 . S
C929 C926 1.479 1_455 S
C929 C930 1.373 . S
C929 C931 1.389 1_455 S
C930 H903 0.950 . S
C930 C916 1.377 . S
C930 C929 1.373 . S
C931 C915 1.377 . S
C931 C929 1.389 1_655 S
C931 C932 1.524 . S
C932 C931 1.524 . S
C932 C933 1.397 1_655 S
C932 C937 1.363 . S
C933 H904 0.950 . S
C933 C932 1.397 1_455 S
C933 C934 1.334 . S
C934 H905 0.950 . S
C934 C933 1.334 . S
C934 C935 1.287 1_455 S
C935 C934 1.287 1_655 S
C935 C936 1.524 . S
C935 H938 0.999 . S
C936 H906 0.950 . S
C936 C935 1.524 . S
C936 C937 1.415 . S
C937 H907 0.950 . S
C937 C932 1.363 . S
C937 C936 1.415 . S
H938 C935 0.999 . S
H939 C920 0.913 . S
H940 C958 0.951 . S
H941 C960 0.951 . S
H942 C962 0.950 . S
H943 C963 0.950 . S
H944 C965 0.950 . S
H945 C968 0.950 . S
H946 C969 0.950 . S
H947 C971 0.950 . S
H948 C972 0.950 . S
H949 C973 0.951 . S
H950 C975 0.951 . S
H951 C977 0.950 . S
H952 C978 0.950 . S
H953 C980 0.950 . S
H954 C983 0.950 . S
H955 C984 0.950 . S
H956 C986 0.950 . S
H957 C987 0.950 . S
C958 H940 0.951 . S
C958 C959 1.366 . S
C958 C960 1.388 . S
C959 C958 1.366 . S
C959 C963 1.385 . S
C960 H941 0.951 . S
C960 C958 1.388 . S
C960 C961 1.366 . S
C961 C960 1.366 . S
C961 C962 1.414 . S
C961 C964 1.499 . S
C962 H942 0.950 . S
C962 C961 1.414 . S
C962 C963 1.374 . S
C963 H943 0.950 . S
C963 C959 1.385 . S
C963 C962 1.374 . S
C964 C961 1.499 . S
C964 C965 1.373 . S
C964 C966 1.389 . S
C965 H944 0.950 . S
C965 C964 1.373 . S
C965 C981 1.377 . S
C966 C964 1.389 . S
C966 C967 1.524 . S
C966 C980 1.377 . S
C967 C966 1.524 . S
C967 C968 1.397 . S
C967 C972 1.363 . S
C968 H945 0.950 . S
C968 C967 1.397 . S
C968 C969 1.334 . S
C969 H946 0.950 . S
C969 C968 1.334 . S
C969 C970 1.287 . S
C970 C969 1.287 . S
C970 C971 1.524 . S
C970 H989 0.913 . S
C971 H947 0.950 . S
C971 C970 1.524 . S
C971 C972 1.415 . S
C972 H948 0.950 . S
C972 C967 1.363 . S
C972 C971 1.415 . S
C973 H949 0.951 . S
C973 C974 1.366 . S
C973 C975 1.388 . S
C974 C973 1.366 . S
C974 C978 1.385 . S
C975 H950 0.951 . S
C975 C973 1.388 . S
C975 C976 1.366 . S
C976 C975 1.366 . S
C976 C977 1.414 . S
C976 C979 1.499 . S
C977 H951 0.950 . S
C977 C976 1.414 . S
C977 C978 1.374 . S
C978 H952 0.950 . S
C978 C974 1.385 . S
C978 C977 1.374 . S
C979 C976 1.499 . S
C979 C980 1.373 . S
C979 C981 1.389 . S
C980 H953 0.950 . S
C980 C966 1.377 . S
C980 C979 1.373 . S
C981 C965 1.377 . S
C981 C979 1.389 . S
C981 C982 1.524 . S
C982 C981 1.524 . S
C982 C983 1.397 . S
C982 C987 1.363 . S
C983 H954 0.950 . S
C983 C982 1.397 . S
C983 C984 1.334 . S
C984 H955 0.950 . S
C984 C983 1.334 . S
C984 C985 1.287 . S
C985 C984 1.287 . S
C985 C986 1.524 . S
C985 H988 0.999 . S
C986 H956 0.950 . S
C986 C985 1.524 . S
C986 C987 1.415 . S
C987 H957 0.950 . S
C987 C982 1.363 . S
C987 C986 1.415 . S
H988 C985 0.999 . S
H989 C970 0.913 . S
H990 C1008 0.951 . S
H991 C1010 0.951 . S
H992 C1012 0.950 . S
H993 C1013 0.950 . S
H994 C1015 0.950 . S
H995 C1018 0.950 . S
H996 C1019 0.950 . S
H997 C1021 0.950 . S
H998 C1022 0.950 . S
H999 C1023 0.951 . S
H1000 C1025 0.951 . S
H1001 C1027 0.950 . S
H1002 C1028 0.950 . S
H1003 C1030 0.950 . S
H1004 C1033 0.950 . S
H1005 C1034 0.950 . S
H1006 C1036 0.950 . S
H1007 C1037 0.950 . S
C1008 H990 0.951 . S
C1008 C1009 1.366 . S
C1008 C1010 1.388 . S
C1009 C1008 1.366 . S
C1009 C1013 1.385 . S
C1010 H991 0.951 . S
C1010 C1008 1.388 . S
C1010 C1011 1.366 . S
C1011 C1010 1.366 . S
C1011 C1012 1.414 . S
C1011 C1014 1.499 . S
C1012 H992 0.950 . S
C1012 C1011 1.414 . S
C1012 C1013 1.374 . S
C1013 H993 0.950 . S
C1013 C1009 1.385 . S
C1013 C1012 1.374 . S
C1014 C1011 1.499 . S
C1014 C1015 1.373 . S
C1014 C1016 1.389 . S
C1015 H994 0.950 . S
C1015 C1014 1.373 . S
C1015 C1031 1.377 . S
C1016 C1014 1.389 . S
C1016 C1017 1.524 . S
C1016 C1030 1.377 . S
C1017 C1016 1.524 . S
C1017 C1018 1.397 . S
C1017 C1022 1.363 . S
C1018 H995 0.950 . S
C1018 C1017 1.397 . S
C1018 C1019 1.334 . S
C1019 H996 0.950 . S
C1019 C1018 1.334 . S
C1019 C1020 1.287 . S
C1020 C1019 1.287 . S
C1020 C1021 1.524 . S
C1020 H1039 0.913 . S
C1021 H997 0.950 . S
C1021 C1020 1.524 . S
C1021 C1022 1.415 . S
C1022 H998 0.950 . S
C1022 C1017 1.363 . S
C1022 C1021 1.415 . S
C1023 H999 0.951 . S
C1023 C1024 1.366 . S
C1023 C1025 1.388 . S
C1024 C1023 1.366 . S
C1024 C1028 1.385 . S
C1025 H1000 0.951 . S
C1025 C1023 1.388 . S
C1025 C1026 1.366 . S
C1026 C1025 1.366 . S
C1026 C1027 1.414 . S
C1026 C1029 1.499 . S
C1027 H1001 0.950 . S
C1027 C1026 1.414 . S
C1027 C1028 1.374 . S
C1028 H1002 0.950 . S
C1028 C1024 1.385 . S
C1028 C1027 1.374 . S
C1029 C1026 1.499 . S
C1029 C1030 1.373 . S
C1029 C1031 1.389 . S
C1030 H1003 0.950 . S
C1030 C1016 1.377 . S
C1030 C1029 1.373 . S
C1031 C1015 1.377 . S
C1031 C1029 1.389 . S
C1031 C1032 1.524 . S
C1032 C1031 1.524 . S
C1032 C1033 1.397 . S
C1032 C1037 1.363 . S
C1033 H1004 0.950 . S
C1033 C1032 1.397 . S
C1033 C1034 1.334 . S
C1034 H1005 0.950 . S
C1034 C1033 1.334 . S
C1034 C1035 1.287 . S
C1035 C1034 1.287 . S
C1035 C1036 1.524 . S
C1035 H1038 0.999 . S
C1036 H1006 0.950 . S
C1036 C1035 1.524 . S
C1036 C1037 1.415 . S
C1037 H1007 0.950 . S
C1037 C1032 1.363 . S
C1037 C1036 1.415 . S
H1038 C1035 0.999 . S
H1039 C1020 0.913 . S
H1040 C1058 0.951 . S
H1041 C1060 0.951 . S
H1042 C1062 0.950 . S
H1043 C1063 0.950 . S
H1044 C1065 0.950 . S
H1045 C1068 0.950 . S
H1046 C1069 0.950 . S
H1047 C1071 0.950 . S
H1048 C1072 0.950 . S
H1049 C1073 0.951 . S
H1050 C1075 0.951 . S
H1051 C1077 0.950 . S
H1052 C1078 0.950 . S
H1053 C1080 0.950 . S
H1054 C1083 0.950 . S
H1055 C1084 0.950 . S
H1056 C1086 0.950 . S
H1057 C1087 0.950 . S
C1058 H1040 0.951 . S
C1058 C1059 1.366 . S
C1058 C1060 1.388 . S
C1059 C1058 1.366 . S
C1059 C1063 1.385 . S
C1060 H1041 0.951 . S
C1060 C1058 1.388 . S
C1060 C1061 1.366 . S
C1061 C1060 1.366 . S
C1061 C1062 1.414 . S
C1061 C1064 1.499 . S
C1062 H1042 0.950 . S
C1062 C1061 1.414 . S
C1062 C1063 1.374 . S
C1063 H1043 0.950 . S
C1063 C1059 1.385 . S
C1063 C1062 1.374 . S
C1064 C1061 1.499 . S
C1064 C1065 1.373 . S
C1064 C1066 1.389 . S
C1065 H1044 0.950 . S
C1065 C1064 1.373 . S
C1065 C1081 1.377 . S
C1066 C1064 1.389 . S
C1066 C1067 1.524 . S
C1066 C1080 1.377 . S
C1067 C1066 1.524 . S
C1067 C1068 1.397 . S
C1067 C1072 1.363 . S
C1068 H1045 0.950 . S
C1068 C1067 1.397 . S
C1068 C1069 1.334 . S
C1069 H1046 0.950 . S
C1069 C1068 1.334 . S
C1069 C1070 1.287 . S
C1070 C1069 1.287 . S
C1070 C1071 1.524 . S
C1070 H1089 0.913 . S
C1071 H1047 0.950 . S
C1071 C1070 1.524 . S
C1071 C1072 1.415 . S
C1072 H1048 0.950 . S
C1072 C1067 1.363 . S
C1072 C1071 1.415 . S
C1073 H1049 0.951 . S
C1073 C1074 1.366 . S
C1073 C1075 1.388 . S
C1074 C1073 1.366 . S
C1074 C1078 1.385 . S
C1075 H1050 0.951 . S
C1075 C1073 1.388 . S
C1075 C1076 1.366 . S
C1076 C1075 1.366 . S
C1076 C1077 1.414 . S
C1076 C1079 1.499 . S
C1077 H1051 0.950 . S
C1077 C1076 1.414 . S
C1077 C1078 1.374 . S
C1078 H1052 0.950 . S
C1078 C1074 1.385 . S
C1078 C1077 1.374 . S
C1079 C1076 1.499 . S
C1079 C1080 1.373 . S
C1079 C1081 1.389 . S
C1080 H1053 0.950 . S
C1080 C1066 1.377 . S
C1080 C1079 1.373 . S
C1081 C1065 1.377 . S
C1081 C1079 1.389 . S
C1081 C1082 1.524 . S
C1082 C1081 1.524 . S
C1082 C1083 1.397 . S
C1082 C1087 1.363 . S
C1083 H1054 0.950 . S
C1083 C1082 1.397 . S
C1083 C1084 1.334 . S
C1084 H1055 0.950 . S
C1084 C1083 1.334 . S
C1084 C1085 1.287 . S
C1085 C1084 1.287 . S
C1085 C1086 1.524 . S
C1085 H1088 0.999 . S
C1086 H1056 0.950 . S
C1086 C1085 1.524 . S
C1086 C1087 1.415 . S
C1087 H1057 0.950 . S
C1087 C1082 1.363 . S
C1087 C1086 1.415 . S
H1088 C1085 0.999 . S
H1089 C1070 0.913 . S
H1090 C1108 0.951 . S
H1091 C1110 0.951 . S
H1092 C1112 0.950 . S
H1093 C1113 0.950 . S
H1094 C1115 0.950 . S
H1095 C1118 0.950 . S
H1096 C1119 0.950 . S
H1097 C1121 0.950 . S
H1098 C1122 0.950 . S
H1099 C1123 0.951 . S
H1100 C1125 0.951 . S
H1101 C1127 0.950 . S
H1102 C1128 0.950 . S
H1103 C1130 0.950 . S
H1104 C1133 0.950 . S
H1105 C1134 0.950 . S
H1106 C1136 0.950 . S
H1107 C1137 0.950 . S
C1108 H1090 0.951 . S
C1108 C1109 1.366 . S
C1108 C1110 1.388 . S
C1109 C1108 1.366 . S
C1109 C1113 1.385 . S
C1110 H1091 0.951 . S
C1110 C1108 1.388 . S
C1110 C1111 1.366 . S
C1111 C1110 1.366 . S
C1111 C1112 1.414 . S
C1111 C1114 1.499 . S
C1112 H1092 0.950 . S
C1112 C1111 1.414 . S
C1112 C1113 1.374 . S
C1113 H1093 0.950 . S
C1113 C1109 1.385 . S
C1113 C1112 1.374 . S
C1114 C1111 1.499 . S
C1114 C1115 1.373 . S
C1114 C1116 1.389 . S
C1115 H1094 0.950 . S
C1115 C1114 1.373 . S
C1115 C1131 1.377 . S
C1116 C1114 1.389 . S
C1116 C1117 1.524 . S
C1116 C1130 1.377 . S
C1117 C1116 1.524 . S
C1117 C1118 1.397 . S
C1117 C1122 1.363 . S
C1118 H1095 0.950 . S
C1118 C1117 1.397 . S
C1118 C1119 1.334 . S
C1119 H1096 0.950 . S
C1119 C1118 1.334 . S
C1119 C1120 1.287 . S
C1120 C1119 1.287 . S
C1120 C1121 1.524 . S
C1120 H1139 0.913 . S
C1121 H1097 0.950 . S
C1121 C1120 1.524 . S
C1121 C1122 1.415 . S
C1122 H1098 0.950 . S
C1122 C1117 1.363 . S
C1122 C1121 1.415 . S
C1123 H1099 0.951 . S
C1123 C1124 1.366 . S
C1123 C1125 1.388 . S
C1124 C1123 1.366 . S
C1124 C1128 1.385 . S
C1125 H1100 0.951 . S
C1125 C1123 1.388 . S
C1125 C1126 1.366 . S
C1126 C1125 1.366 . S
C1126 C1127 1.414 . S
C1126 C1129 1.499 . S
C1127 H1101 0.950 . S
C1127 C1126 1.414 . S
C1127 C1128 1.374 . S
C1128 H1102 0.950 . S
C1128 C1124 1.385 . S
C1128 C1127 1.374 . S
C1129 C1126 1.499 . S
C1129 C1130 1.373 . S
C1129 C1131 1.389 . S
C1130 H1103 0.950 . S
C1130 C1116 1.377 . S
C1130 C1129 1.373 . S
C1131 C1115 1.377 . S
C1131 C1129 1.389 . S
C1131 C1132 1.524 . S
C1132 C1131 1.524 . S
C1132 C1133 1.397 . S
C1132 C1137 1.363 . S
C1133 H1104 0.950 . S
C1133 C1132 1.397 . S
C1133 C1134 1.334 . S
C1134 H1105 0.950 . S
C1134 C1133 1.334 . S
C1134 C1135 1.287 . S
C1135 C1134 1.287 . S
C1135 C1136 1.524 . S
C1135 H1138 0.999 . S
C1136 H1106 0.950 . S
C1136 C1135 1.524 . S
C1136 C1137 1.415 . S
C1137 H1107 0.950 . S
C1137 C1132 1.363 . S
C1137 C1136 1.415 . S
H1138 C1135 0.999 . S
H1139 C1120 0.913 . S
H1140 C1158 0.951 . S
H1141 C1160 0.951 . S
H1142 C1162 0.950 . S
H1143 C1163 0.950 . S
H1144 C1165 0.950 . S
H1145 C1168 0.950 . S
H1146 C1169 0.950 . S
H1147 C1171 0.950 . S
H1148 C1172 0.950 . S
H1149 C1173 0.951 . S
H1150 C1175 0.951 . S
H1151 C1177 0.950 . S
H1152 C1178 0.950 1_565 S
H1153 C1180 0.950 . S
H1154 C1183 0.950 . S
H1155 C1184 0.950 . S
H1156 C1186 0.950 . S
H1157 C1187 0.950 . S
C1158 H1140 0.951 . S
C1158 C1159 1.366 . S
C1158 C1160 1.388 . S
C1159 C1158 1.366 . S
C1159 C1163 1.385 . S
C1160 H1141 0.951 . S
C1160 C1158 1.388 . S
C1160 C1161 1.366 . S
C1161 C1160 1.366 . S
C1161 C1162 1.414 . S
C1161 C1164 1.499 . S
C1162 H1142 0.950 . S
C1162 C1161 1.414 . S
C1162 C1163 1.374 . S
C1163 H1143 0.950 . S
C1163 C1159 1.385 . S
C1163 C1162 1.374 . S
C1164 C1161 1.499 . S
C1164 C1165 1.373 . S
C1164 C1166 1.389 1_565 S
C1165 H1144 0.950 . S
C1165 C1164 1.373 . S
C1165 C1181 1.377 . S
C1166 C1164 1.389 1_545 S
C1166 C1167 1.524 . S
C1166 C1180 1.377 . S
C1167 C1166 1.524 . S
C1167 C1168 1.397 . S
C1167 C1172 1.363 . S
C1168 H1145 0.950 . S
C1168 C1167 1.397 . S
C1168 C1169 1.334 . S
C1169 H1146 0.950 . S
C1169 C1168 1.334 . S
C1169 C1170 1.287 . S
C1170 C1169 1.287 . S
C1170 C1171 1.524 . S
C1170 H1189 0.913 . S
C1171 H1147 0.950 . S
C1171 C1170 1.524 . S
C1171 C1172 1.415 . S
C1172 H1148 0.950 . S
C1172 C1167 1.363 . S
C1172 C1171 1.415 . S
C1173 H1149 0.951 . S
C1173 C1174 1.366 . S
C1173 C1175 1.388 . S
C1174 C1173 1.366 . S
C1174 C1178 1.387 . S
C1175 H1150 0.951 . S
C1175 C1173 1.388 . S
C1175 C1176 1.350 1_545 S
C1176 C1175 1.350 1_565 S
C1176 C1177 1.414 . S
C1176 C1179 1.514 . S
C1177 H1151 0.950 . S
C1177 C1176 1.414 . S
C1177 C1178 1.371 1_565 S
C1178 H1152 0.950 1_545 S
C1178 C1174 1.387 . S
C1178 C1177 1.371 1_545 S
C1179 C1176 1.514 . S
C1179 C1180 1.373 1_565 S
C1179 C1181 1.389 . S
C1180 H1153 0.950 . S
C1180 C1166 1.377 . S
C1180 C1179 1.373 1_545 S
C1181 C1165 1.377 . S
C1181 C1179 1.389 . S
C1181 C1182 1.524 . S
C1182 C1181 1.524 . S
C1182 C1183 1.397 . S
C1182 C1187 1.363 . S
C1183 H1154 0.950 . S
C1183 C1182 1.397 . S
C1183 C1184 1.334 . S
C1184 H1155 0.950 . S
C1184 C1183 1.334 . S
C1184 C1185 1.287 . S
C1185 C1184 1.287 . S
C1185 C1186 1.524 . S
C1185 H1188 0.999 . S
C1186 H1156 0.950 . S
C1186 C1185 1.524 . S
C1186 C1187 1.415 . S
C1187 H1157 0.950 . S
C1187 C1182 1.363 . S
C1187 C1186 1.415 . S
H1188 C1185 0.999 . S
H1189 C1170 0.913 . S
H1190 C1208 0.951 1_655 S
H1191 C1210 0.930 1_655 S
H1192 C1212 0.950 . S
H1193 C1213 0.950 . S
H1194 C1215 0.950 . S
H1195 C1218 0.950 . S
H1196 C1219 0.950 . S
H1197 C1221 0.950 . S
H1198 C1222 0.950 . S
H1199 C1223 0.951 . S
H1200 C1225 0.951 . S
H1201 C1227 0.950 . S
H1202 C1228 0.950 . S
H1203 C1230 0.950 . S
H1204 C1233 0.950 . S
H1205 C1234 0.950 . S
H1206 C1236 0.950 . S
H1207 C1237 0.950 1_455 S
C1208 H1190 0.951 1_455 S
C1208 C1209 1.366 . S
C1208 C1210 1.402 . S
C1209 C1208 1.366 . S
C1209 C1213 1.385 . S
C1210 H1191 0.930 1_455 S
C1210 C1208 1.402 . S
C1210 C1211 1.373 . S
C1211 C1210 1.373 . S
C1211 C1212 1.414 . S
C1211 C1214 1.499 . S
C1212 H1192 0.950 . S
C1212 C1211 1.414 . S
C1212 C1213 1.374 . S
C1213 H1193 0.950 . S
C1213 C1209 1.385 . S
C1213 C1212 1.374 . S
C1214 C1211 1.499 . S
C1214 C1215 1.373 1_455 S
C1214 C1216 1.389 . S
C1215 H1194 0.950 . S
C1215 C1214 1.373 1_655 S
C1215 C1231 1.377 . S
C1216 C1214 1.389 . S
C1216 C1217 1.524 . S
C1216 C1230 1.377 . S
C1217 C1216 1.524 . S
C1217 C1218 1.397 . S
C1217 C1222 1.363 . S
C1218 H1195 0.950 . S
C1218 C1217 1.397 . S
C1218 C1219 1.334 . S
C1219 H1196 0.950 . S
C1219 C1218 1.334 . S
C1219 C1220 1.270 1_556 S
C1220 C1219 1.270 1_554 S
C1220 C1221 1.522 . S
C1220 H1239 0.937 . S
C1221 H1197 0.950 . S
C1221 C1220 1.522 . S
C1221 C1222 1.415 1_554 S
C1222 H1198 0.950 . S
C1222 C1217 1.363 . S
C1222 C1221 1.415 1_556 S
C1223 H1199 0.951 . S
C1223 C1224 1.366 1_455 S
C1223 C1225 1.388 . S
C1224 C1223 1.366 1_655 S
C1224 C1228 1.385 . S
C1225 H1200 0.951 . S
C1225 C1223 1.388 . S
C1225 C1226 1.366 1_455 S
C1226 C1225 1.366 1_655 S
C1226 C1227 1.414 . S
C1226 C1229 1.508 . S
C1227 H1201 0.950 . S
C1227 C1226 1.414 . S
C1227 C1228 1.374 . S
C1228 H1202 0.950 . S
C1228 C1224 1.385 . S
C1228 C1227 1.374 . S
C1229 C1226 1.508 . S
C1229 C1230 1.363 1_655 S
C1229 C1231 1.389 . S
C1230 H1203 0.950 . S
C1230 C1216 1.377 . S
C1230 C1229 1.363 1_455 S
C1231 C1215 1.377 . S
C1231 C1229 1.389 . S
C1231 C1232 1.524 . S
C1232 C1231 1.524 . S
C1232 C1233 1.397 . S
C1232 C1237 1.363 . S
C1233 H1204 0.950 . S
C1233 C1232 1.397 . S
C1233 C1234 1.334 . S
C1234 H1205 0.950 . S
C1234 C1233 1.334 . S
C1234 C1235 1.287 . S
C1235 C1234 1.287 . S
C1235 C1236 1.524 . S
C1235 H1238 0.999 . S
C1236 H1206 0.950 . S
C1236 C1235 1.524 . S
C1236 C1237 1.415 . S
C1237 H1207 0.950 1_655 S
C1237 C1232 1.363 . S
C1237 C1236 1.415 . S
H1238 C1235 0.999 . S
H1239 C1220 0.937 . S
H1240 C1258 0.951 . S
H1241 C1260 0.951 . S
H1242 C1262 0.950 . S
H1243 C1263 0.950 . S
H1244 C1265 0.950 . S
H1245 C1268 0.950 . S
H1246 C1269 0.950 . S
H1247 C1271 0.950 . S
H1248 C1272 0.950 . S
H1249 C1273 0.951 . S
H1250 C1275 0.951 . S
H1251 C1277 0.950 1_554 S
H1252 C1278 0.948 . S
H1253 C1280 0.950 . S
H1254 C1283 0.950 . S
H1255 C1284 0.950 . S
H1256 C1286 0.950 . S
H1257 C1287 0.950 . S
C1258 H1240 0.951 . S
C1258 C1259 1.366 . S
C1258 C1260 1.388 . S
C1259 C1258 1.366 . S
C1259 C1263 1.385 . S
C1260 H1241 0.951 . S
C1260 C1258 1.388 . S
C1260 C1261 1.366 . S
C1261 C1260 1.366 . S
C1261 C1262 1.414 . S
C1261 C1264 1.499 . S
C1262 H1242 0.950 . S
C1262 C1261 1.414 . S
C1262 C1263 1.374 . S
C1263 H1243 0.950 . S
C1263 C1259 1.385 . S
C1263 C1262 1.374 . S
C1264 C1261 1.499 . S
C1264 C1265 1.373 . S
C1264 C1266 1.389 . S
C1265 H1244 0.950 . S
C1265 C1264 1.373 . S
C1265 C1281 1.377 . S
C1266 C1264 1.389 . S
C1266 C1267 1.524 . S
C1266 C1280 1.377 . S
C1267 C1266 1.524 . S
C1267 C1268 1.397 . S
C1267 C1272 1.363 . S
C1268 H1245 0.950 . S
C1268 C1267 1.397 . S
C1268 C1269 1.334 . S
C1269 H1246 0.950 . S
C1269 C1268 1.334 . S
C1269 C1270 1.287 . S
C1270 C1269 1.287 . S
C1270 C1271 1.524 . S
C1270 H1289 0.913 . S
C1271 H1247 0.950 . S
C1271 C1270 1.524 . S
C1271 C1272 1.415 . S
C1272 H1248 0.950 . S
C1272 C1267 1.363 . S
C1272 C1271 1.415 . S
C1273 H1249 0.951 . S
C1273 C1274 1.366 . S
C1273 C1275 1.388 . S
C1274 C1273 1.366 . S
C1274 C1278 1.385 1_556 S
C1275 H1250 0.951 . S
C1275 C1273 1.388 . S
C1275 C1276 1.366 . S
C1276 C1275 1.366 . S
C1276 C1277 1.414 . S
C1276 C1279 1.499 . S
C1277 H1251 0.950 1_556 S
C1277 C1276 1.414 . S
C1277 C1278 1.375 1_556 S
C1278 H1252 0.948 . S
C1278 C1274 1.385 1_554 S
C1278 C1277 1.375 1_554 S
C1279 C1276 1.499 . S
C1279 C1280 1.373 . S
C1279 C1281 1.389 . S
C1280 H1253 0.950 . S
C1280 C1266 1.377 . S
C1280 C1279 1.373 . S
C1281 C1265 1.377 . S
C1281 C1279 1.389 . S
C1281 C1282 1.524 1_556 S
C1282 C1281 1.524 1_554 S
C1282 C1283 1.397 . S
C1282 C1287 1.363 1_554 S
C1283 H1254 0.950 . S
C1283 C1282 1.397 . S
C1283 C1284 1.334 . S
C1284 H1255 0.950 . S
C1284 C1283 1.334 . S
C1284 C1285 1.287 . S
C1285 C1284 1.287 . S
C1285 C1286 1.524 . S
C1285 H1288 0.999 . S
C1286 H1256 0.950 . S
C1286 C1285 1.524 . S
C1286 C1287 1.415 1_554 S
C1287 H1257 0.950 . S
C1287 C1282 1.363 1_556 S
C1287 C1286 1.415 1_556 S
H1288 C1285 0.999 . S
H1289 C1270 0.913 . S
H1290 C1308 0.951 . S
H1291 C1310 0.951 . S
H1292 C1312 0.950 . S
H1293 C1313 0.950 . S
H1294 C1315 0.950 . S
H1295 C1318 0.950 . S
H1296 C1319 0.950 . S
H1297 C1321 0.950 . S
H1298 C1322 0.950 . S
H1299 C1323 0.951 . S
H1300 C1325 0.951 . S
H1301 C1327 0.950 . S
H1302 C1328 0.950 . S
H1303 C1330 0.950 . S
H1304 C1333 0.950 . S
H1305 C1334 0.950 . S
H1306 C1336 0.950 . S
H1307 C1337 0.950 . S
C1308 H1290 0.951 . S
C1308 C1309 1.366 . S
C1308 C1310 1.388 . S
C1309 C1308 1.366 . S
C1309 C1313 1.385 . S
C1310 H1291 0.951 . S
C1310 C1308 1.388 . S
C1310 C1311 1.366 . S
C1311 C1310 1.366 . S
C1311 C1312 1.414 . S
C1311 C1314 1.499 . S
C1312 H1292 0.950 . S
C1312 C1311 1.414 . S
C1312 C1313 1.374 . S
C1313 H1293 0.950 . S
C1313 C1309 1.385 . S
C1313 C1312 1.374 . S
C1314 C1311 1.499 . S
C1314 C1315 1.373 . S
C1314 C1316 1.389 . S
C1315 H1294 0.950 . S
C1315 C1314 1.373 . S
C1315 C1331 1.377 . S
C1316 C1314 1.389 . S
C1316 C1317 1.524 . S
C1316 C1330 1.377 . S
C1317 C1316 1.524 . S
C1317 C1318 1.397 . S
C1317 C1322 1.363 . S
C1318 H1295 0.950 . S
C1318 C1317 1.397 . S
C1318 C1319 1.334 . S
C1319 H1296 0.950 . S
C1319 C1318 1.334 . S
C1319 C1320 1.287 . S
C1320 C1319 1.287 . S
C1320 C1321 1.524 . S
C1320 H1339 0.913 . S
C1321 H1297 0.950 . S
C1321 C1320 1.524 . S
C1321 C1322 1.415 . S
C1322 H1298 0.950 . S
C1322 C1317 1.363 . S
C1322 C1321 1.415 . S
C1323 H1299 0.951 . S
C1323 C1324 1.366 . S
C1323 C1325 1.388 . S
C1324 C1323 1.366 . S
C1324 C1328 1.385 . S
C1325 H1300 0.951 . S
C1325 C1323 1.388 . S
C1325 C1326 1.366 . S
C1326 C1325 1.366 . S
C1326 C1327 1.414 . S
C1326 C1329 1.499 . S
C1327 H1301 0.950 . S
C1327 C1326 1.414 . S
C1327 C1328 1.374 . S
C1328 H1302 0.950 . S
C1328 C1324 1.385 . S
C1328 C1327 1.374 . S
C1329 C1326 1.499 . S
C1329 C1330 1.373 . S
C1329 C1331 1.389 . S
C1330 H1303 0.950 . S
C1330 C1316 1.377 . S
C1330 C1329 1.373 . S
C1331 C1315 1.377 . S
C1331 C1329 1.389 . S
C1331 C1332 1.524 . S
C1332 C1331 1.524 . S
C1332 C1333 1.397 . S
C1332 C1337 1.363 . S
C1333 H1304 0.950 . S
C1333 C1332 1.397 . S
C1333 C1334 1.334 . S
C1334 H1305 0.950 . S
C1334 C1333 1.334 . S
C1334 C1335 1.287 . S
C1335 C1334 1.287 . S
C1335 C1336 1.524 . S
C1335 H1338 0.999 . S
C1336 H1306 0.950 . S
C1336 C1335 1.524 . S
C1336 C1337 1.415 . S
C1337 H1307 0.950 . S
C1337 C1332 1.363 . S
C1337 C1336 1.415 . S
H1338 C1335 0.999 . S
H1339 C1320 0.913 . S
H1340 C1358 0.951 . S
H1341 C1360 0.951 . S
H1342 C1362 0.950 . S
H1343 C1363 0.950 . S
H1344 C1365 0.950 . S
H1345 C1368 0.950 . S
H1346 C1369 0.950 . S
H1347 C1371 0.950 . S
H1348 C1372 0.950 . S
H1349 C1373 0.951 . S
H1350 C1375 0.951 . S
H1351 C1377 0.950 . S
H1352 C1378 0.950 . S
H1353 C1380 0.950 . S
H1354 C1383 0.950 . S
H1355 C1384 0.950 . S
H1356 C1386 0.950 . S
H1357 C1387 0.950 . S
C1358 H1340 0.951 . S
C1358 C1359 1.366 . S
C1358 C1360 1.388 . S
C1359 C1358 1.366 . S
C1359 C1363 1.385 . S
C1360 H1341 0.951 . S
C1360 C1358 1.388 . S
C1360 C1361 1.366 . S
C1361 C1360 1.366 . S
C1361 C1362 1.414 . S
C1361 C1364 1.499 . S
C1362 H1342 0.950 . S
C1362 C1361 1.414 . S
C1362 C1363 1.374 . S
C1363 H1343 0.950 . S
C1363 C1359 1.385 . S
C1363 C1362 1.374 . S
C1364 C1361 1.499 . S
C1364 C1365 1.373 . S
C1364 C1366 1.389 . S
C1365 H1344 0.950 . S
C1365 C1364 1.373 . S
C1365 C1381 1.377 . S
C1366 C1364 1.389 . S
C1366 C1367 1.524 . S
C1366 C1380 1.377 . S
C1367 C1366 1.524 . S
C1367 C1368 1.397 . S
C1367 C1372 1.363 . S
C1368 H1345 0.950 . S
C1368 C1367 1.397 . S
C1368 C1369 1.334 . S
C1369 H1346 0.950 . S
C1369 C1368 1.334 . S
C1369 C1370 1.287 . S
C1370 C1369 1.287 . S
C1370 C1371 1.524 . S
C1370 H1389 0.913 . S
C1371 H1347 0.950 . S
C1371 C1370 1.524 . S
C1371 C1372 1.415 . S
C1372 H1348 0.950 . S
C1372 C1367 1.363 . S
C1372 C1371 1.415 . S
C1373 H1349 0.951 . S
C1373 C1374 1.366 . S
C1373 C1375 1.388 . S
C1374 C1373 1.366 . S
C1374 C1378 1.385 . S
C1375 H1350 0.951 . S
C1375 C1373 1.388 . S
C1375 C1376 1.366 . S
C1376 C1375 1.366 . S
C1376 C1377 1.414 . S
C1376 C1379 1.499 . S
C1377 H1351 0.950 . S
C1377 C1376 1.414 . S
C1377 C1378 1.374 . S
C1378 H1352 0.950 . S
C1378 C1374 1.385 . S
C1378 C1377 1.374 . S
C1379 C1376 1.499 . S
C1379 C1380 1.373 . S
C1379 C1381 1.389 . S
C1380 H1353 0.950 . S
C1380 C1366 1.377 . S
C1380 C1379 1.373 . S
C1381 C1365 1.377 . S
C1381 C1379 1.389 . S
C1381 C1382 1.524 . S
C1382 C1381 1.524 . S
C1382 C1383 1.397 . S
C1382 C1387 1.363 . S
C1383 H1354 0.950 . S
C1383 C1382 1.397 . S
C1383 C1384 1.334 . S
C1384 H1355 0.950 . S
C1384 C1383 1.334 . S
C1384 C1385 1.287 . S
C1385 C1384 1.287 . S
C1385 C1386 1.524 . S
C1385 H1388 0.999 . S
C1386 H1356 0.950 . S
C1386 C1385 1.524 . S
C1386 C1387 1.415 . S
C1387 H1357 0.950 . S
C1387 C1382 1.363 . S
C1387 C1386 1.415 . S
H1388 C1385 0.999 . S
H1389 C1370 0.913 . S
H1390 C1408 0.951 . S
H1391 C1410 0.951 . S
H1392 C1412 0.950 . S
H1393 C1413 0.950 . S
H1394 C1415 0.950 . S
H1395 C1418 0.950 . S
H1396 C1419 0.950 . S
H1397 C1421 0.950 . S
H1398 C1422 0.950 . S
H1399 C1423 0.951 . S
H1400 C1425 0.951 . S
H1401 C1427 0.950 . S
H1402 C1428 0.950 . S
H1403 C1430 0.950 . S
H1404 C1433 0.950 . S
H1405 C1434 0.950 . S
H1406 C1436 0.950 . S
H1407 C1437 0.950 . S
C1408 H1390 0.951 . S
C1408 C1409 1.366 . S
C1408 C1410 1.388 . S
C1409 C1408 1.366 . S
C1409 C1413 1.385 . S
C1410 H1391 0.951 . S
C1410 C1408 1.388 . S
C1410 C1411 1.366 . S
C1411 C1410 1.366 . S
C1411 C1412 1.414 . S
C1411 C1414 1.499 . S
C1412 H1392 0.950 . S
C1412 C1411 1.414 . S
C1412 C1413 1.374 . S
C1413 H1393 0.950 . S
C1413 C1409 1.385 . S
C1413 C1412 1.374 . S
C1414 C1411 1.499 . S
C1414 C1415 1.373 . S
C1414 C1416 1.389 . S
C1415 H1394 0.950 . S
C1415 C1414 1.373 . S
C1415 C1431 1.377 . S
C1416 C1414 1.389 . S
C1416 C1417 1.524 . S
C1416 C1430 1.377 . S
C1417 C1416 1.524 . S
C1417 C1418 1.397 . S
C1417 C1422 1.363 . S
C1418 H1395 0.950 . S
C1418 C1417 1.397 . S
C1418 C1419 1.334 . S
C1419 H1396 0.950 . S
C1419 C1418 1.334 . S
C1419 C1420 1.287 . S
C1420 C1419 1.287 . S
C1420 C1421 1.524 . S
C1420 H1439 0.913 . S
C1421 H1397 0.950 . S
C1421 C1420 1.524 . S
C1421 C1422 1.415 . S
C1422 H1398 0.950 . S
C1422 C1417 1.363 . S
C1422 C1421 1.415 . S
C1423 H1399 0.951 . S
C1423 C1424 1.366 . S
C1423 C1425 1.388 . S
C1424 C1423 1.366 . S
C1424 C1428 1.385 . S
C1425 H1400 0.951 . S
C1425 C1423 1.388 . S
C1425 C1426 1.366 . S
C1426 C1425 1.366 . S
C1426 C1427 1.414 . S
C1426 C1429 1.499 . S
C1427 H1401 0.950 . S
C1427 C1426 1.414 . S
C1427 C1428 1.374 . S
C1428 H1402 0.950 . S
C1428 C1424 1.385 . S
C1428 C1427 1.374 . S
C1429 C1426 1.499 . S
C1429 C1430 1.373 . S
C1429 C1431 1.389 . S
C1430 H1403 0.950 . S
C1430 C1416 1.377 . S
C1430 C1429 1.373 . S
C1431 C1415 1.377 . S
C1431 C1429 1.389 . S
C1431 C1432 1.524 . S
C1432 C1431 1.524 . S
C1432 C1433 1.397 . S
C1432 C1437 1.363 . S
C1433 H1404 0.950 . S
C1433 C1432 1.397 . S
C1433 C1434 1.334 . S
C1434 H1405 0.950 . S
C1434 C1433 1.334 . S
C1434 C1435 1.287 . S
C1435 C1434 1.287 . S
C1435 C1436 1.524 . S
C1435 H1438 0.999 . S
C1436 H1406 0.950 . S
C1436 C1435 1.524 . S
C1436 C1437 1.415 . S
C1437 H1407 0.950 . S
C1437 C1432 1.363 . S
C1437 C1436 1.415 . S
H1438 C1435 0.999 . S
H1439 C1420 0.913 . S
H1440 C1458 0.951 . S
H1441 C1460 0.951 . S
H1442 C1462 0.950 . S
H1443 C1463 0.950 . S
H1444 C1465 0.950 . S
H1445 C1468 0.950 . S
H1446 C1469 0.950 . S
H1447 C1471 0.950 . S
H1448 C1472 0.950 . S
H1449 C1473 0.951 . S
H1450 C1475 0.951 . S
H1451 C1477 0.950 . S
H1452 C1478 0.950 . S
H1453 C1480 0.950 . S
H1454 C1483 0.950 . S
H1455 C1484 0.950 . S
H1456 C1486 0.950 . S
H1457 C1487 0.950 . S
C1458 H1440 0.951 . S
C1458 C1459 1.366 . S
C1458 C1460 1.388 . S
C1459 C1458 1.366 . S
C1459 C1463 1.385 . S
C1460 H1441 0.951 . S
C1460 C1458 1.388 . S
C1460 C1461 1.366 . S
C1461 C1460 1.366 . S
C1461 C1462 1.414 . S
C1461 C1464 1.499 . S
C1462 H1442 0.950 . S
C1462 C1461 1.414 . S
C1462 C1463 1.374 . S
C1463 H1443 0.950 . S
C1463 C1459 1.385 . S
C1463 C1462 1.374 . S
C1464 C1461 1.499 . S
C1464 C1465 1.373 . S
C1464 C1466 1.389 . S
C1465 H1444 0.950 . S
C1465 C1464 1.373 . S
C1465 C1481 1.377 . S
C1466 C1464 1.389 . S
C1466 C1467 1.524 . S
C1466 C1480 1.377 . S
C1467 C1466 1.524 . S
C1467 C1468 1.397 . S
C1467 C1472 1.363 . S
C1468 H1445 0.950 . S
C1468 C1467 1.397 . S
C1468 C1469 1.334 . S
C1469 H1446 0.950 . S
C1469 C1468 1.334 . S
C1469 C1470 1.287 . S
C1470 C1469 1.287 . S
C1470 C1471 1.524 . S
C1470 H1489 0.913 . S
C1471 H1447 0.950 . S
C1471 C1470 1.524 . S
C1471 C1472 1.415 . S
C1472 H1448 0.950 . S
C1472 C1467 1.363 . S
C1472 C1471 1.415 . S
C1473 H1449 0.951 . S
C1473 C1474 1.366 . S
C1473 C1475 1.388 . S
C1474 C1473 1.366 . S
C1474 C1478 1.385 . S
C1475 H1450 0.951 . S
C1475 C1473 1.388 . S
C1475 C1476 1.366 . S
C1476 C1475 1.366 . S
C1476 C1477 1.414 . S
C1476 C1479 1.499 . S
C1477 H1451 0.950 . S
C1477 C1476 1.414 . S
C1477 C1478 1.374 . S
C1478 H1452 0.950 . S
C1478 C1474 1.385 . S
C1478 C1477 1.374 . S
C1479 C1476 1.499 . S
C1479 C1480 1.373 . S
C1479 C1481 1.389 . S
C1480 H1453 0.950 . S
C1480 C1466 1.377 . S
C1480 C1479 1.373 . S
C1481 C1465 1.377 . S
C1481 C1479 1.389 . S
C1481 C1482 1.524 . S
C1482 C1481 1.524 . S
C1482 C1483 1.397 . S
C1482 C1487 1.363 . S
C1483 H1454 0.950 . S
C1483 C1482 1.397 . S
C1483 C1484 1.334 . S
C1484 H1455 0.950 . S
C1484 C1483 1.334 . S
C1484 C1485 1.287 . S
C1485 C1484 1.287 . S
C1485 C1486 1.524 . S
C1485 H1488 0.998 1_655 S
C1486 H1456 0.950 . S
C1486 C1485 1.524 . S
C1486 C1487 1.415 . S
C1487 H1457 0.950 . S
C1487 C1482 1.363 . S
C1487 C1486 1.415 . S
H1488 C1485 0.998 1_455 S
H1489 C1470 0.913 . S
H1490 C1508 0.951 . S
H1491 C1510 0.951 . S
H1492 C1512 0.950 . S
H1493 C1513 0.950 . S
H1494 C1515 0.950 . S
H1495 C1518 0.950 . S
H1496 C1519 0.950 . S
H1497 C1521 0.950 . S
H1498 C1522 0.950 . S
H1499 C1523 0.951 . S
H1500 C1525 0.951 . S
H1501 C1527 0.950 . S
H1502 C1528 0.950 . S
H1503 C1530 0.950 . S
H1504 C1533 0.950 . S
H1505 C1534 0.950 . S
H1506 C1536 0.950 . S
H1507 C1537 0.950 . S
C1508 H1490 0.951 . S
C1508 C1509 1.366 . S
C1508 C1510 1.388 . S
C1509 C1508 1.366 . S
C1509 C1513 1.385 . S
C1510 H1491 0.951 . S
C1510 C1508 1.388 . S
C1510 C1511 1.366 . S
C1511 C1510 1.366 . S
C1511 C1512 1.414 . S
C1511 C1514 1.499 . S
C1512 H1492 0.950 . S
C1512 C1511 1.414 . S
C1512 C1513 1.374 . S
C1513 H1493 0.950 . S
C1513 C1509 1.385 . S
C1513 C1512 1.374 . S
C1514 C1511 1.499 . S
C1514 C1515 1.373 . S
C1514 C1516 1.389 . S
C1515 H1494 0.950 . S
C1515 C1514 1.373 . S
C1515 C1531 1.377 . S
C1516 C1514 1.389 . S
C1516 C1517 1.524 . S
C1516 C1530 1.377 . S
C1517 C1516 1.524 . S
C1517 C1518 1.397 . S
C1517 C1522 1.363 . S
C1518 H1495 0.950 . S
C1518 C1517 1.397 . S
C1518 C1519 1.334 . S
C1519 H1496 0.950 . S
C1519 C1518 1.334 . S
C1519 C1520 1.287 . S
C1520 C1519 1.287 . S
C1520 C1521 1.524 . S
C1520 H1539 0.913 . S
C1521 H1497 0.950 . S
C1521 C1520 1.524 . S
C1521 C1522 1.415 . S
C1522 H1498 0.950 . S
C1522 C1517 1.363 . S
C1522 C1521 1.415 . S
C1523 H1499 0.951 . S
C1523 C1524 1.366 . S
C1523 C1525 1.388 . S
C1524 C1523 1.366 . S
C1524 C1528 1.385 . S
C1525 H1500 0.951 . S
C1525 C1523 1.388 . S
C1525 C1526 1.366 . S
C1526 C1525 1.366 . S
C1526 C1527 1.414 . S
C1526 C1529 1.499 . S
C1527 H1501 0.950 . S
C1527 C1526 1.414 . S
C1527 C1528 1.374 . S
C1528 H1502 0.950 . S
C1528 C1524 1.385 . S
C1528 C1527 1.374 . S
C1529 C1526 1.499 . S
C1529 C1530 1.373 . S
C1529 C1531 1.389 . S
C1530 H1503 0.950 . S
C1530 C1516 1.377 . S
C1530 C1529 1.373 . S
C1531 C1515 1.377 . S
C1531 C1529 1.389 . S
C1531 C1532 1.524 . S
C1532 C1531 1.524 . S
C1532 C1533 1.397 . S
C1532 C1537 1.363 . S
C1533 H1504 0.950 . S
C1533 C1532 1.397 . S
C1533 C1534 1.334 . S
C1534 H1505 0.950 . S
C1534 C1533 1.334 . S
C1534 C1535 1.287 . S
C1535 C1534 1.287 . S
C1535 C1536 1.524 . S
C1535 H1538 0.999 . S
C1536 H1506 0.950 . S
C1536 C1535 1.524 . S
C1536 C1537 1.415 . S
C1537 H1507 0.950 . S
C1537 C1532 1.363 . S
C1537 C1536 1.415 . S
H1538 C1535 0.999 . S
H1539 C1520 0.913 . S
H1540 C1558 0.951 . S
H1541 C1560 0.951 . S
H1542 C1562 0.950 . S
H1543 C1563 0.950 . S
H1544 C1565 0.950 . S
H1545 C1568 0.950 . S
H1546 C1569 0.950 . S
H1547 C1571 0.950 . S
H1548 C1572 0.950 . S
H1549 C1573 0.951 . S
H1550 C1575 0.951 . S
H1551 C1577 0.950 . S
H1552 C1578 0.950 . S
H1553 C1580 0.950 . S
H1554 C1583 0.950 . S
H1555 C1584 0.950 . S
H1556 C1586 0.950 . S
H1557 C1587 0.950 . S
C1558 H1540 0.951 . S
C1558 C1559 1.366 . S
C1558 C1560 1.388 . S
C1559 C1558 1.366 . S
C1559 C1563 1.385 . S
C1560 H1541 0.951 . S
C1560 C1558 1.388 . S
C1560 C1561 1.366 . S
C1561 C1560 1.366 . S
C1561 C1562 1.414 . S
C1561 C1564 1.499 . S
C1562 H1542 0.950 . S
C1562 C1561 1.414 . S
C1562 C1563 1.374 . S
C1563 H1543 0.950 . S
C1563 C1559 1.385 . S
C1563 C1562 1.374 . S
C1564 C1561 1.499 . S
C1564 C1565 1.373 . S
C1564 C1566 1.389 . S
C1565 H1544 0.950 . S
C1565 C1564 1.373 . S
C1565 C1581 1.377 . S
C1566 C1564 1.389 . S
C1566 C1567 1.524 . S
C1566 C1580 1.377 . S
C1567 C1566 1.524 . S
C1567 C1568 1.397 . S
C1567 C1572 1.363 . S
C1568 H1545 0.950 . S
C1568 C1567 1.397 . S
C1568 C1569 1.334 . S
C1569 H1546 0.950 . S
C1569 C1568 1.334 . S
C1569 C1570 1.287 . S
C1570 C1569 1.287 . S
C1570 C1571 1.524 . S
C1570 H1589 0.913 . S
C1571 H1547 0.950 . S
C1571 C1570 1.524 . S
C1571 C1572 1.415 . S
C1572 H1548 0.950 . S
C1572 C1567 1.363 . S
C1572 C1571 1.415 . S
C1573 H1549 0.951 . S
C1573 C1574 1.366 . S
C1573 C1575 1.388 . S
C1574 C1573 1.366 . S
C1574 C1578 1.385 . S
C1575 H1550 0.951 . S
C1575 C1573 1.388 . S
C1575 C1576 1.366 . S
C1576 C1575 1.366 . S
C1576 C1577 1.414 . S
C1576 C1579 1.499 . S
C1577 H1551 0.950 . S
C1577 C1576 1.414 . S
C1577 C1578 1.374 . S
C1578 H1552 0.950 . S
C1578 C1574 1.385 . S
C1578 C1577 1.374 . S
C1579 C1576 1.499 . S
C1579 C1580 1.373 . S
C1579 C1581 1.389 . S
C1580 H1553 0.950 . S
C1580 C1566 1.377 . S
C1580 C1579 1.373 . S
C1581 C1565 1.377 . S
C1581 C1579 1.389 . S
C1581 C1582 1.524 . S
C1582 C1581 1.524 . S
C1582 C1583 1.397 . S
C1582 C1587 1.363 . S
C1583 H1554 0.950 . S
C1583 C1582 1.397 . S
C1583 C1584 1.334 . S
C1584 H1555 0.950 . S
C1584 C1583 1.334 . S
C1584 C1585 1.287 . S
C1585 C1584 1.287 . S
C1585 C1586 1.524 . S
C1585 H1588 0.999 . S
C1586 H1556 0.950 . S
C1586 C1585 1.524 . S
C1586 C1587 1.415 . S
C1587 H1557 0.950 . S
C1587 C1582 1.363 . S
C1587 C1586 1.415 . S
H1588 C1585 0.999 . S
H1589 C1570 0.913 . S
H1590 C1608 0.951 . S
H1591 C1610 0.951 . S
H1592 C1612 0.950 . S
H1593 C1613 0.950 . S
H1594 C1615 0.950 . S
H1595 C1618 0.950 . S
H1596 C1619 0.950 . S
H1597 C1621 0.950 . S
H1598 C1622 0.950 . S
H1599 C1623 0.951 . S
H1600 C1625 0.951 . S
H1601 C1627 0.950 . S
H1602 C1628 0.950 . S
H1603 C1630 0.950 . S
H1604 C1633 0.950 . S
H1605 C1634 0.950 . S
H1606 C1636 0.950 . S
H1607 C1637 0.950 . S
C1608 H1590 0.951 . S
C1608 C1609 1.366 . S
C1608 C1610 1.388 . S
C1609 C1608 1.366 . S
C1609 C1613 1.385 . S
C1610 H1591 0.951 . S
C1610 C1608 1.388 . S
C1610 C1611 1.366 . S
C1611 C1610 1.366 . S
C1611 C1612 1.414 . S
C1611 C1614 1.499 . S
C1612 H1592 0.950 . S
C1612 C1611 1.414 . S
C1612 C1613 1.374 . S
C1613 H1593 0.950 . S
C1613 C1609 1.385 . S
C1613 C1612 1.374 . S
C1614 C1611 1.499 . S
C1614 C1615 1.373 . S
C1614 C1616 1.389 . S
C1615 H1594 0.950 . S
C1615 C1614 1.373 . S
C1615 C1631 1.377 . S
C1616 C1614 1.389 . S
C1616 C1617 1.524 . S
C1616 C1630 1.377 . S
C1617 C1616 1.524 . S
C1617 C1618 1.397 . S
C1617 C1622 1.363 . S
C1618 H1595 0.950 . S
C1618 C1617 1.397 . S
C1618 C1619 1.334 . S
C1619 H1596 0.950 . S
C1619 C1618 1.334 . S
C1619 C1620 1.287 . S
C1620 C1619 1.287 . S
C1620 C1621 1.524 . S
C1620 H1639 0.913 . S
C1621 H1597 0.950 . S
C1621 C1620 1.524 . S
C1621 C1622 1.415 . S
C1622 H1598 0.950 . S
C1622 C1617 1.363 . S
C1622 C1621 1.415 . S
C1623 H1599 0.951 . S
C1623 C1624 1.366 . S
C1623 C1625 1.388 . S
C1624 C1623 1.366 . S
C1624 C1628 1.385 . S
C1625 H1600 0.951 . S
C1625 C1623 1.388 . S
C1625 C1626 1.366 . S
C1626 C1625 1.366 . S
C1626 C1627 1.414 . S
C1626 C1629 1.499 . S
C1627 H1601 0.950 . S
C1627 C1626 1.414 . S
C1627 C1628 1.374 . S
C1628 H1602 0.950 . S
C1628 C1624 1.385 . S
C1628 C1627 1.374 . S
C1629 C1626 1.499 . S
C1629 C1630 1.373 . S
C1629 C1631 1.389 . S
C1630 H1603 0.950 . S
C1630 C1616 1.377 . S
C1630 C1629 1.373 . S
C1631 C1615 1.377 . S
C1631 C1629 1.389 . S
C1631 C1632 1.524 . S
C1632 C1631 1.524 . S
C1632 C1633 1.397 . S
C1632 C1637 1.363 . S
C1633 H1604 0.950 . S
C1633 C1632 1.397 . S
C1633 C1634 1.334 . S
C1634 H1605 0.950 . S
C1634 C1633 1.334 . S
C1634 C1635 1.287 . S
C1635 C1634 1.287 . S
C1635 C1636 1.524 . S
C1635 H1638 0.999 . S
C1636 H1606 0.950 . S
C1636 C1635 1.524 . S
C1636 C1637 1.415 . S
C1637 H1607 0.950 . S
C1637 C1632 1.363 . S
C1637 C1636 1.415 . S
H1638 C1635 0.999 . S
H1639 C1620 0.913 . S
H1640 C1658 0.951 . S
H1641 C1660 0.951 . S
H1642 C1662 0.950 . S
H1643 C1663 0.950 . S
H1644 C1665 0.950 . S
H1645 C1668 0.950 . S
H1646 C1669 0.950 . S
H1647 C1671 0.950 . S
H1648 C1672 0.950 . S
H1649 C1673 0.951 . S
H1650 C1675 0.951 . S
H1651 C1677 0.950 . S
H1652 C1678 0.950 . S
H1653 C1680 0.950 . S
H1654 C1683 0.950 . S
H1655 C1684 0.950 . S
H1656 C1686 0.950 . S
H1657 C1687 0.950 . S
C1658 H1640 0.951 . S
C1658 C1659 1.366 . S
C1658 C1660 1.388 . S
C1659 C1658 1.366 . S
C1659 C1663 1.385 . S
C1660 H1641 0.951 . S
C1660 C1658 1.388 . S
C1660 C1661 1.366 . S
C1661 C1660 1.366 . S
C1661 C1662 1.414 . S
C1661 C1664 1.499 . S
C1662 H1642 0.950 . S
C1662 C1661 1.414 . S
C1662 C1663 1.374 . S
C1663 H1643 0.950 . S
C1663 C1659 1.385 . S
C1663 C1662 1.374 . S
C1664 C1661 1.499 . S
C1664 C1665 1.373 . S
C1664 C1666 1.389 . S
C1665 H1644 0.950 . S
C1665 C1664 1.373 . S
C1665 C1681 1.377 . S
C1666 C1664 1.389 . S
C1666 C1667 1.524 . S
C1666 C1680 1.377 . S
C1667 C1666 1.524 . S
C1667 C1668 1.397 . S
C1667 C1672 1.363 . S
C1668 H1645 0.950 . S
C1668 C1667 1.397 . S
C1668 C1669 1.334 . S
C1669 H1646 0.950 . S
C1669 C1668 1.334 . S
C1669 C1670 1.287 . S
C1670 C1669 1.287 . S
C1670 C1671 1.524 . S
C1670 H1689 0.913 . S
C1671 H1647 0.950 . S
C1671 C1670 1.524 . S
C1671 C1672 1.415 . S
C1672 H1648 0.950 . S
C1672 C1667 1.363 . S
C1672 C1671 1.415 . S
C1673 H1649 0.951 . S
C1673 C1674 1.366 . S
C1673 C1675 1.388 . S
C1674 C1673 1.366 . S
C1674 C1678 1.385 . S
C1675 H1650 0.951 . S
C1675 C1673 1.388 . S
C1675 C1676 1.366 . S
C1676 C1675 1.366 . S
C1676 C1677 1.414 . S
C1676 C1679 1.499 . S
C1677 H1651 0.950 . S
C1677 C1676 1.414 . S
C1677 C1678 1.374 . S
C1678 H1652 0.950 . S
C1678 C1674 1.385 . S
C1678 C1677 1.374 . S
C1679 C1676 1.499 . S
C1679 C1680 1.373 . S
C1679 C1681 1.389 . S
C1680 H1653 0.950 . S
C1680 C1666 1.377 . S
C1680 C1679 1.373 . S
C1681 C1665 1.377 . S
C1681 C1679 1.389 . S
C1681 C1682 1.524 . S
C1682 C1681 1.524 . S
C1682 C1683 1.397 . S
C1682 C1687 1.363 . S
C1683 H1654 0.950 . S
C1683 C1682 1.397 . S
C1683 C1684 1.334 . S
C1684 H1655 0.950 . S
C1684 C1683 1.334 . S
C1684 C1685 1.287 . S
C1685 C1684 1.287 . S
C1685 C1686 1.524 . S
C1685 H1688 0.999 . S
C1686 H1656 0.950 . S
C1686 C1685 1.524 . S
C1686 C1687 1.415 . S
C1687 H1657 0.950 . S
C1687 C1682 1.363 . S
C1687 C1686 1.415 . S
H1688 C1685 0.999 . S
H1689 C1670 0.913 . S
H1690 C1708 0.951 . S
H1691 C1710 0.951 . S
H1692 C1712 0.950 . S
H1693 C1713 0.950 . S
H1694 C1715 0.950 . S
H1695 C1718 0.950 . S
H1696 C1719 0.950 . S
H1697 C1721 0.950 . S
H1698 C1722 0.950 . S
H1699 C1723 0.951 . S
H1700 C1725 0.951 . S
H1701 C1727 0.950 . S
H1702 C1728 0.950 . S
H1703 C1730 0.950 . S
H1704 C1733 0.950 . S
H1705 C1734 0.950 . S
H1706 C1736 0.950 . S
H1707 C1737 0.950 . S
C1708 H1690 0.951 . S
C1708 C1709 1.366 1_655 S
C1708 C1710 1.388 . S
C1709 C1708 1.366 1_455 S
C1709 C1713 1.385 . S
C1710 H1691 0.951 . S
C1710 C1708 1.388 . S
C1710 C1711 1.356 1_655 S
C1711 C1710 1.356 1_455 S
C1711 C1712 1.443 . S
C1711 C1714 1.482 1_455 S
C1712 H1692 0.950 . S
C1712 C1711 1.443 . S
C1712 C1713 1.374 . S
C1713 H1693 0.950 . S
C1713 C1709 1.385 . S
C1713 C1712 1.374 . S
C1714 C1711 1.482 1_655 S
C1714 C1715 1.373 1_655 S
C1714 C1716 1.389 . S
C1715 H1694 0.950 . S
C1715 C1714 1.373 1_455 S
C1715 C1731 1.377 . S
C1716 C1714 1.389 . S
C1716 C1717 1.524 . S
C1716 C1730 1.377 . S
C1717 C1716 1.524 . S
C1717 C1718 1.397 . S
C1717 C1722 1.363 . S
C1718 H1695 0.950 . S
C1718 C1717 1.397 . S
C1718 C1719 1.334 . S
C1719 H1696 0.950 . S
C1719 C1718 1.334 . S
C1719 C1720 1.287 . S
C1720 C1719 1.287 . S
C1720 C1721 1.524 . S
C1720 H1739 0.913 . S
C1721 H1697 0.950 . S
C1721 C1720 1.524 . S
C1721 C1722 1.415 . S
C1722 H1698 0.950 . S
C1722 C1717 1.363 . S
C1722 C1721 1.415 . S
C1723 H1699 0.951 . S
C1723 C1724 1.366 1_455 S
C1723 C1725 1.388 . S
C1724 C1723 1.366 1_655 S
C1724 C1728 1.385 . S
C1725 H1700 0.951 . S
C1725 C1723 1.388 . S
C1725 C1726 1.366 1_455 S
C1726 C1725 1.366 1_655 S
C1726 C1727 1.414 . S
C1726 C1729 1.499 . S
C1727 H1701 0.950 . S
C1727 C1726 1.414 . S
C1727 C1728 1.374 . S
C1728 H1702 0.950 . S
C1728 C1724 1.385 . S
C1728 C1727 1.374 . S
C1729 C1726 1.499 . S
C1729 C1730 1.373 . S
C1729 C1731 1.389 1_655 S
C1730 H1703 0.950 . S
C1730 C1716 1.377 . S
C1730 C1729 1.373 . S
C1731 C1715 1.377 . S
C1731 C1729 1.389 1_455 S
C1731 C1732 1.524 . S
C1732 C1731 1.524 . S
C1732 C1733 1.397 . S
C1732 C1737 1.363 . S
C1733 H1704 0.950 . S
C1733 C1732 1.397 . S
C1733 C1734 1.334 . S
C1734 H1705 0.950 . S
C1734 C1733 1.334 . S
C1734 C1735 1.287 . S
C1735 C1734 1.287 . S
C1735 C1736 1.524 . S
C1735 H1738 0.999 . S
C1736 H1706 0.950 . S
C1736 C1735 1.524 . S
C1736 C1737 1.415 . S
C1737 H1707 0.950 . S
C1737 C1732 1.363 . S
C1737 C1736 1.415 . S
H1738 C1735 0.999 . S
H1739 C1720 0.913 . S
H1740 C1758 0.951 . S
H1741 C1760 0.951 . S
H1742 C1762 0.950 . S
H1743 C1763 0.950 . S
H1744 C1765 0.950 . S
H1745 C1768 0.950 . S
H1746 C1769 0.950 . S
H1747 C1771 0.950 . S
H1748 C1772 0.950 . S
H1749 C1773 0.951 . S
H1750 C1775 0.951 . S
H1751 C1777 0.950 . S
H1752 C1778 0.950 . S
H1753 C1780 0.950 . S
H1754 C1783 0.950 . S
H1755 C1784 0.950 . S
H1756 C1786 0.950 . S
H1757 C1787 0.950 . S
C1758 H1740 0.951 . S
C1758 C1759 1.366 . S
C1758 C1760 1.388 . S
C1759 C1758 1.366 . S
C1759 C1763 1.385 . S
C1760 H1741 0.951 . S
C1760 C1758 1.388 . S
C1760 C1761 1.366 . S
C1761 C1760 1.366 . S
C1761 C1762 1.414 . S
C1761 C1764 1.499 . S
C1762 H1742 0.950 . S
C1762 C1761 1.414 . S
C1762 C1763 1.374 . S
C1763 H1743 0.950 . S
C1763 C1759 1.385 . S
C1763 C1762 1.374 . S
C1764 C1761 1.499 . S
C1764 C1765 1.373 . S
C1764 C1766 1.389 . S
C1765 H1744 0.950 . S
C1765 C1764 1.373 . S
C1765 C1781 1.377 . S
C1766 C1764 1.389 . S
C1766 C1767 1.524 . S
C1766 C1780 1.377 . S
C1767 C1766 1.524 . S
C1767 C1768 1.397 . S
C1767 C1772 1.363 . S
C1768 H1745 0.950 . S
C1768 C1767 1.397 . S
C1768 C1769 1.334 . S
C1769 H1746 0.950 . S
C1769 C1768 1.334 . S
C1769 C1770 1.287 . S
C1770 C1769 1.287 . S
C1770 C1771 1.524 . S
C1770 H1789 0.913 . S
C1771 H1747 0.950 . S
C1771 C1770 1.524 . S
C1771 C1772 1.415 . S
C1772 H1748 0.950 . S
C1772 C1767 1.363 . S
C1772 C1771 1.415 . S
C1773 H1749 0.951 . S
C1773 C1774 1.366 . S
C1773 C1775 1.388 . S
C1774 C1773 1.366 . S
C1774 C1778 1.385 . S
C1775 H1750 0.951 . S
C1775 C1773 1.388 . S
C1775 C1776 1.366 . S
C1776 C1775 1.366 . S
C1776 C1777 1.414 . S
C1776 C1779 1.499 . S
C1777 H1751 0.950 . S
C1777 C1776 1.414 . S
C1777 C1778 1.374 . S
C1778 H1752 0.950 . S
C1778 C1774 1.385 . S
C1778 C1777 1.374 . S
C1779 C1776 1.499 . S
C1779 C1780 1.373 . S
C1779 C1781 1.389 . S
C1780 H1753 0.950 . S
C1780 C1766 1.377 . S
C1780 C1779 1.373 . S
C1781 C1765 1.377 . S
C1781 C1779 1.389 . S
C1781 C1782 1.524 . S
C1782 C1781 1.524 . S
C1782 C1783 1.397 . S
C1782 C1787 1.363 . S
C1783 H1754 0.950 . S
C1783 C1782 1.397 . S
C1783 C1784 1.334 . S
C1784 H1755 0.950 . S
C1784 C1783 1.334 . S
C1784 C1785 1.287 . S
C1785 C1784 1.287 . S
C1785 C1786 1.524 . S
C1785 H1788 0.999 . S
C1786 H1756 0.950 . S
C1786 C1785 1.524 . S
C1786 C1787 1.415 . S
C1787 H1757 0.950 . S
C1787 C1782 1.363 . S
C1787 C1786 1.415 . S
H1788 C1785 0.999 . S
H1789 C1770 0.913 . S
H1790 C1808 0.951 . S
H1791 C1810 0.951 . S
H1792 C1812 0.950 . S
H1793 C1813 0.950 . S
H1794 C1815 0.950 . S
H1795 C1818 0.950 . S
H1796 C1819 0.950 . S
H1797 C1821 0.950 . S
H1798 C1822 0.950 . S
H1799 C1823 0.951 . S
H1800 C1825 0.951 . S
H1801 C1827 0.950 . S
H1802 C1828 0.950 . S
H1803 C1830 0.950 . S
H1804 C1833 0.950 . S
H1805 C1834 0.950 . S
H1806 C1836 0.950 . S
H1807 C1837 0.950 . S
C1808 H1790 0.951 . S
C1808 C1809 1.366 . S
C1808 C1810 1.388 . S
C1809 C1808 1.366 . S
C1809 C1813 1.385 . S
C1810 H1791 0.951 . S
C1810 C1808 1.388 . S
C1810 C1811 1.366 . S
C1811 C1810 1.366 . S
C1811 C1812 1.414 . S
C1811 C1814 1.499 . S
C1812 H1792 0.950 . S
C1812 C1811 1.414 . S
C1812 C1813 1.374 . S
C1813 H1793 0.950 . S
C1813 C1809 1.385 . S
C1813 C1812 1.374 . S
C1814 C1811 1.499 . S
C1814 C1815 1.373 . S
C1814 C1816 1.389 . S
C1815 H1794 0.950 . S
C1815 C1814 1.373 . S
C1815 C1831 1.377 . S
C1816 C1814 1.389 . S
C1816 C1817 1.524 . S
C1816 C1830 1.377 . S
C1817 C1816 1.524 . S
C1817 C1818 1.397 . S
C1817 C1822 1.363 . S
C1818 H1795 0.950 . S
C1818 C1817 1.397 . S
C1818 C1819 1.334 . S
C1819 H1796 0.950 . S
C1819 C1818 1.334 . S
C1819 C1820 1.287 . S
C1820 C1819 1.287 . S
C1820 C1821 1.524 . S
C1820 H1839 0.913 . S
C1821 H1797 0.950 . S
C1821 C1820 1.524 . S
C1821 C1822 1.415 . S
C1822 H1798 0.950 . S
C1822 C1817 1.363 . S
C1822 C1821 1.415 . S
C1823 H1799 0.951 . S
C1823 C1824 1.366 . S
C1823 C1825 1.388 . S
C1824 C1823 1.366 . S
C1824 C1828 1.385 . S
C1825 H1800 0.951 . S
C1825 C1823 1.388 . S
C1825 C1826 1.366 . S
C1826 C1825 1.366 . S
C1826 C1827 1.414 . S
C1826 C1829 1.499 . S
C1827 H1801 0.950 . S
C1827 C1826 1.414 . S
C1827 C1828 1.374 . S
C1828 H1802 0.950 . S
C1828 C1824 1.385 . S
C1828 C1827 1.374 . S
C1829 C1826 1.499 . S
C1829 C1830 1.373 . S
C1829 C1831 1.389 . S
C1830 H1803 0.950 . S
C1830 C1816 1.377 . S
C1830 C1829 1.373 . S
C1831 C1815 1.377 . S
C1831 C1829 1.389 . S
C1831 C1832 1.524 . S
C1832 C1831 1.524 . S
C1832 C1833 1.397 . S
C1832 C1837 1.363 . S
C1833 H1804 0.950 . S
C1833 C1832 1.397 . S
C1833 C1834 1.334 . S
C1834 H1805 0.950 . S
C1834 C1833 1.334 . S
C1834 C1835 1.287 . S
C1835 C1834 1.287 . S
C1835 C1836 1.524 . S
C1835 H1838 0.999 . S
C1836 H1806 0.950 . S
C1836 C1835 1.524 . S
C1836 C1837 1.415 . S
C1837 H1807 0.950 . S
C1837 C1832 1.363 . S
C1837 C1836 1.415 . S
H1838 C1835 0.999 . S
H1839 C1820 0.913 . S
H1840 C1858 0.951 . S
H1841 C1860 0.951 . S
H1842 C1862 0.950 . S
H1843 C1863 0.950 . S
H1844 C1865 0.950 . S
H1845 C1868 0.950 . S
H1846 C1869 0.950 . S
H1847 C1871 0.950 . S
H1848 C1872 0.950 . S
H1849 C1873 0.951 . S
H1850 C1875 0.951 . S
H1851 C1877 0.950 . S
H1852 C1878 0.950 . S
H1853 C1880 0.950 . S
H1854 C1883 0.950 . S
H1855 C1884 0.950 . S
H1856 C1886 0.950 . S
H1857 C1887 0.950 . S
C1858 H1840 0.951 . S
C1858 C1859 1.366 . S
C1858 C1860 1.388 . S
C1859 C1858 1.366 . S
C1859 C1863 1.385 . S
C1860 H1841 0.951 . S
C1860 C1858 1.388 . S
C1860 C1861 1.366 . S
C1861 C1860 1.366 . S
C1861 C1862 1.414 . S
C1861 C1864 1.499 . S
C1862 H1842 0.950 . S
C1862 C1861 1.414 . S
C1862 C1863 1.374 . S
C1863 H1843 0.950 . S
C1863 C1859 1.385 . S
C1863 C1862 1.374 . S
C1864 C1861 1.499 . S
C1864 C1865 1.373 . S
C1864 C1866 1.389 . S
C1865 H1844 0.950 . S
C1865 C1864 1.373 . S
C1865 C1881 1.377 . S
C1866 C1864 1.389 . S
C1866 C1867 1.524 . S
C1866 C1880 1.377 . S
C1867 C1866 1.524 . S
C1867 C1868 1.397 . S
C1867 C1872 1.363 . S
C1868 H1845 0.950 . S
C1868 C1867 1.397 . S
C1868 C1869 1.334 . S
C1869 H1846 0.950 . S
C1869 C1868 1.334 . S
C1869 C1870 1.287 . S
C1870 C1869 1.287 . S
C1870 C1871 1.524 . S
C1870 H1889 0.913 . S
C1871 H1847 0.950 . S
C1871 C1870 1.524 . S
C1871 C1872 1.415 . S
C1872 H1848 0.950 . S
C1872 C1867 1.363 . S
C1872 C1871 1.415 . S
C1873 H1849 0.951 . S
C1873 C1874 1.366 . S
C1873 C1875 1.388 . S
C1874 C1873 1.366 . S
C1874 C1878 1.385 . S
C1875 H1850 0.951 . S
C1875 C1873 1.388 . S
C1875 C1876 1.366 . S
C1876 C1875 1.366 . S
C1876 C1877 1.414 . S
C1876 C1879 1.499 . S
C1877 H1851 0.950 . S
C1877 C1876 1.414 . S
C1877 C1878 1.374 . S
C1878 H1852 0.950 . S
C1878 C1874 1.385 . S
C1878 C1877 1.374 . S
C1879 C1876 1.499 . S
C1879 C1880 1.373 . S
C1879 C1881 1.389 . S
C1880 H1853 0.950 . S
C1880 C1866 1.377 . S
C1880 C1879 1.373 . S
C1881 C1865 1.377 . S
C1881 C1879 1.389 . S
C1881 C1882 1.524 . S
C1882 C1881 1.524 . S
C1882 C1883 1.397 . S
C1882 C1887 1.363 . S
C1883 H1854 0.950 . S
C1883 C1882 1.397 . S
C1883 C1884 1.334 . S
C1884 H1855 0.950 . S
C1884 C1883 1.334 . S
C1884 C1885 1.287 . S
C1885 C1884 1.287 . S
C1885 C1886 1.524 . S
C1885 H1888 0.999 . S
C1886 H1856 0.950 . S
C1886 C1885 1.524 . S
C1886 C1887 1.415 . S
C1887 H1857 0.950 . S
C1887 C1882 1.363 . S
C1887 C1886 1.415 . S
H1888 C1885 0.999 . S
H1889 C1870 0.913 . S
H1890 C1908 0.951 . S
H1891 C1910 0.951 . S
H1892 C1912 0.950 . S
H1893 C1913 0.950 . S
H1894 C1915 0.950 . S
H1895 C1918 0.950 . S
H1896 C1919 0.950 . S
H1897 C1921 0.950 . S
H1898 C1922 0.950 . S
H1899 C1923 0.951 . S
H1900 C1925 0.951 . S
H1901 C1927 0.950 . S
H1902 C1928 0.950 . S
H1903 C1930 0.950 . S
H1904 C1933 0.950 . S
H1905 C1934 0.950 . S
H1906 C1936 0.950 . S
H1907 C1937 0.950 . S
C1908 H1890 0.951 . S
C1908 C1909 1.366 . S
C1908 C1910 1.388 . S
C1909 C1908 1.366 . S
C1909 C1913 1.385 . S
C1910 H1891 0.951 . S
C1910 C1908 1.388 . S
C1910 C1911 1.366 . S
C1911 C1910 1.366 . S
C1911 C1912 1.414 . S
C1911 C1914 1.499 . S
C1912 H1892 0.950 . S
C1912 C1911 1.414 . S
C1912 C1913 1.374 . S
C1913 H1893 0.950 . S
C1913 C1909 1.385 . S
C1913 C1912 1.374 . S
C1914 C1911 1.499 . S
C1914 C1915 1.373 . S
C1914 C1916 1.389 . S
C1915 H1894 0.950 . S
C1915 C1914 1.373 . S
C1915 C1931 1.377 . S
C1916 C1914 1.389 . S
C1916 C1917 1.524 . S
C1916 C1930 1.377 . S
C1917 C1916 1.524 . S
C1917 C1918 1.397 . S
C1917 C1922 1.363 . S
C1918 H1895 0.950 . S
C1918 C1917 1.397 . S
C1918 C1919 1.334 . S
C1919 H1896 0.950 . S
C1919 C1918 1.334 . S
C1919 C1920 1.287 . S
C1920 C1919 1.287 . S
C1920 C1921 1.524 . S
C1920 H1939 0.913 . S
C1921 H1897 0.950 . S
C1921 C1920 1.524 . S
C1921 C1922 1.415 . S
C1922 H1898 0.950 . S
C1922 C1917 1.363 . S
C1922 C1921 1.415 . S
C1923 H1899 0.951 . S
C1923 C1924 1.366 . S
C1923 C1925 1.388 . S
C1924 C1923 1.366 . S
C1924 C1928 1.385 . S
C1925 H1900 0.951 . S
C1925 C1923 1.388 . S
C1925 C1926 1.366 . S
C1926 C1925 1.366 . S
C1926 C1927 1.414 . S
C1926 C1929 1.499 . S
C1927 H1901 0.950 . S
C1927 C1926 1.414 . S
C1927 C1928 1.374 . S
C1928 H1902 0.950 . S
C1928 C1924 1.385 . S
C1928 C1927 1.374 . S
C1929 C1926 1.499 . S
C1929 C1930 1.373 . S
C1929 C1931 1.389 . S
C1930 H1903 0.950 . S
C1930 C1916 1.377 . S
C1930 C1929 1.373 . S
C1931 C1915 1.377 . S
C1931 C1929 1.389 . S
C1931 C1932 1.524 . S
C1932 C1931 1.524 . S
C1932 C1933 1.397 . S
C1932 C1937 1.363 . S
C1933 H1904 0.950 . S
C1933 C1932 1.397 . S
C1933 C1934 1.334 . S
C1934 H1905 0.950 . S
C1934 C1933 1.334 . S
C1934 C1935 1.287 . S
C1935 C1934 1.287 . S
C1935 C1936 1.524 . S
C1935 H1938 0.999 . S
C1936 H1906 0.950 . S
C1936 C1935 1.524 . S
C1936 C1937 1.415 . S
C1937 H1907 0.950 . S
C1937 C1932 1.363 . S
C1937 C1936 1.415 . S
H1938 C1935 0.999 . S
H1939 C1920 0.913 . S
H1940 C1958 0.951 . S
H1941 C1960 0.951 . S
H1942 C1962 0.950 . S
H1943 C1963 0.946 . S
H1944 C1965 0.950 . S
H1945 C1968 0.950 . S
H1946 C1969 0.950 . S
H1947 C1971 0.950 . S
H1948 C1972 0.950 . S
H1949 C1973 0.951 . S
H1950 C1975 0.951 . S
H1951 C1977 0.950 . S
H1952 C1978 0.950 . S
H1953 C1980 0.950 . S
H1954 C1983 0.950 . S
H1955 C1984 0.950 . S
H1956 C1986 0.950 . S
H1957 C1987 0.950 . S
C1958 H1940 0.951 . S
C1958 C1959 1.366 . S
C1958 C1960 1.388 . S
C1959 C1958 1.366 . S
C1959 C1963 1.385 . S
C1960 H1941 0.951 . S
C1960 C1958 1.388 . S
C1960 C1961 1.366 . S
C1961 C1960 1.366 . S
C1961 C1962 1.414 1_565 S
C1961 C1964 1.499 1_565 S
C1962 H1942 0.950 . S
C1962 C1961 1.414 1_545 S
C1962 C1963 1.374 1_545 S
C1963 H1943 0.946 . S
C1963 C1959 1.385 . S
C1963 C1962 1.374 1_565 S
C1964 C1961 1.499 1_545 S
C1964 C1965 1.373 . S
C1964 C1966 1.389 1_545 S
C1965 H1944 0.950 . S
C1965 C1964 1.373 . S
C1965 C1981 1.377 . S
C1966 C1964 1.389 1_565 S
C1966 C1967 1.524 . S
C1966 C1980 1.377 . S
C1967 C1966 1.524 . S
C1967 C1968 1.397 . S
C1967 C1972 1.363 . S
C1968 H1945 0.950 . S
C1968 C1967 1.397 . S
C1968 C1969 1.334 . S
C1969 H1946 0.950 . S
C1969 C1968 1.334 . S
C1969 C1970 1.287 . S
C1970 C1969 1.287 . S
C1970 C1971 1.524 . S
C1970 H1989 0.913 . S
C1971 H1947 0.950 . S
C1971 C1970 1.524 . S
C1971 C1972 1.415 . S
C1972 H1948 0.950 . S
C1972 C1967 1.363 . S
C1972 C1971 1.415 . S
C1973 H1949 0.951 . S
C1973 C1974 1.366 . S
C1973 C1975 1.388 . S
C1974 C1973 1.366 . S
C1974 C1978 1.385 . S
C1975 H1950 0.951 . S
C1975 C1973 1.388 . S
C1975 C1976 1.366 . S
C1976 C1975 1.366 . S
C1976 C1977 1.414 . S
C1976 C1979 1.499 . S
C1977 H1951 0.950 . S
C1977 C1976 1.414 . S
C1977 C1978 1.374 . S
C1978 H1952 0.950 . S
C1978 C1974 1.385 . S
C1978 C1977 1.374 . S
C1979 C1976 1.499 . S
C1979 C1980 1.373 1_545 S
C1979 C1981 1.389 . S
C1980 H1953 0.950 . S
C1980 C1966 1.377 . S
C1980 C1979 1.373 1_565 S
C1981 C1965 1.377 . S
C1981 C1979 1.389 . S
C1981 C1982 1.524 . S
C1982 C1981 1.524 . S
C1982 C1983 1.397 . S
C1982 C1987 1.363 . S
C1983 H1954 0.950 . S
C1983 C1982 1.397 . S
C1983 C1984 1.334 . S
C1984 H1955 0.950 . S
C1984 C1983 1.334 . S
C1984 C1985 1.287 . S
C1985 C1984 1.287 . S
C1985 C1986 1.524 . S
C1985 H1988 0.999 . S
C1986 H1956 0.950 . S
C1986 C1985 1.524 . S
C1986 C1987 1.415 . S
C1987 H1957 0.950 . S
C1987 C1982 1.363 . S
C1987 C1986 1.415 . S
H1988 C1985 0.999 . S
H1989 C1970 0.913 . S
H1990 C2008 0.951 . S
H1991 C2010 0.951 . S
H1992 C2012 0.950 1_556 S
H1993 C2013 0.947 . S
H1994 C2015 0.950 . S
H1995 C2018 0.950 . S
H1996 C2019 0.950 . S
H1997 C2021 0.956 . S
H1998 C2022 0.950 . S
H1999 C2023 0.951 . S
H2000 C2025 0.951 . S
H2001 C2027 0.950 . S
H2002 C2028 0.950 . S
H2003 C2030 0.950 . S
H2004 C2033 0.950 . S
H2005 C2034 0.950 . S
H2006 C2036 0.950 . S
H2007 C2037 0.950 . S
C2008 H1990 0.951 . S
C2008 C2009 1.366 . S
C2008 C2010 1.388 . S
C2009 C2008 1.366 . S
C2009 C2013 1.386 1_554 S
C2010 H1991 0.951 . S
C2010 C2008 1.388 . S
C2010 C2011 1.366 . S
C2011 C2010 1.366 . S
C2011 C2012 1.414 . S
C2011 C2014 1.499 . S
C2012 H1992 0.950 1_554 S
C2012 C2011 1.414 . S
C2012 C2013 1.375 1_554 S
C2013 H1993 0.947 . S
C2013 C2009 1.386 1_556 S
C2013 C2012 1.375 1_556 S
C2014 C2011 1.499 . S
C2014 C2015 1.373 . S
C2014 C2016 1.389 . S
C2015 H1994 0.950 . S
C2015 C2014 1.373 . S
C2015 C2031 1.377 . S
C2016 C2014 1.389 . S
C2016 C2017 1.524 1_554 S
C2016 C2030 1.377 . S
C2017 C2016 1.524 1_556 S
C2017 C2018 1.397 . S
C2017 C2022 1.363 1_556 S
C2018 H1995 0.950 . S
C2018 C2017 1.397 . S
C2018 C2019 1.334 . S
C2019 H1996 0.950 . S
C2019 C2018 1.334 . S
C2019 C2020 1.287 . S
C2020 C2019 1.287 . S
C2020 C2021 1.524 . S
C2020 H2039 0.913 . S
C2021 H1997 0.956 . S
C2021 C2020 1.524 . S
C2021 C2022 1.415 1_556 S
C2022 H1998 0.950 . S
C2022 C2017 1.363 1_554 S
C2022 C2021 1.415 1_554 S
C2023 H1999 0.951 . S
C2023 C2024 1.366 . S
C2023 C2025 1.388 . S
C2024 C2023 1.366 . S
C2024 C2028 1.385 . S
C2025 H2000 0.951 . S
C2025 C2023 1.388 . S
C2025 C2026 1.366 . S
C2026 C2025 1.366 . S
C2026 C2027 1.414 . S
C2026 C2029 1.499 . S
C2027 H2001 0.950 . S
C2027 C2026 1.414 . S
C2027 C2028 1.374 . S
C2028 H2002 0.950 . S
C2028 C2024 1.385 . S
C2028 C2027 1.374 . S
C2029 C2026 1.499 . S
C2029 C2030 1.373 . S
C2029 C2031 1.389 . S
C2030 H2003 0.950 . S
C2030 C2016 1.377 . S
C2030 C2029 1.373 . S
C2031 C2015 1.377 . S
C2031 C2029 1.389 . S
C2031 C2032 1.524 . S
C2032 C2031 1.524 . S
C2032 C2033 1.397 . S
C2032 C2037 1.363 . S
C2033 H2004 0.950 . S
C2033 C2032 1.397 . S
C2033 C2034 1.334 . S
C2034 H2005 0.950 . S
C2034 C2033 1.334 . S
C2034 C2035 1.287 . S
C2035 C2034 1.287 . S
C2035 C2036 1.524 . S
C2035 H2038 0.999 . S
C2036 H2006 0.950 . S
C2036 C2035 1.524 . S
C2036 C2037 1.415 . S
C2037 H2007 0.950 . S
C2037 C2032 1.363 . S
C2037 C2036 1.415 . S
H2038 C2035 0.999 . S
H2039 C2020 0.913 . S
H2040 C2058 0.951 . S
H2041 C2060 0.951 . S
H2042 C2062 0.950 . S
H2043 C2063 0.950 . S
H2044 C2065 0.950 . S
H2045 C2068 0.950 . S
H2046 C2069 0.950 . S
H2047 C2071 0.950 . S
H2048 C2072 0.950 . S
H2049 C2073 0.951 . S
H2050 C2075 0.951 . S
H2051 C2077 0.950 . S
H2052 C2078 0.950 . S
H2053 C2080 0.950 . S
H2054 C2083 0.950 . S
H2055 C2084 0.950 . S
H2056 C2086 0.950 . S
H2057 C2087 0.950 . S
C2058 H2040 0.951 . S
C2058 C2059 1.366 . S
C2058 C2060 1.388 . S
C2059 C2058 1.366 . S
C2059 C2063 1.385 . S
C2060 H2041 0.951 . S
C2060 C2058 1.388 . S
C2060 C2061 1.366 . S
C2061 C2060 1.366 . S
C2061 C2062 1.414 . S
C2061 C2064 1.499 . S
C2062 H2042 0.950 . S
C2062 C2061 1.414 . S
C2062 C2063 1.374 . S
C2063 H2043 0.950 . S
C2063 C2059 1.385 . S
C2063 C2062 1.374 . S
C2064 C2061 1.499 . S
C2064 C2065 1.373 . S
C2064 C2066 1.389 . S
C2065 H2044 0.950 . S
C2065 C2064 1.373 . S
C2065 C2081 1.377 . S
C2066 C2064 1.389 . S
C2066 C2067 1.524 . S
C2066 C2080 1.377 . S
C2067 C2066 1.524 . S
C2067 C2068 1.397 . S
C2067 C2072 1.363 . S
C2068 H2045 0.950 . S
C2068 C2067 1.397 . S
C2068 C2069 1.334 . S
C2069 H2046 0.950 . S
C2069 C2068 1.334 . S
C2069 C2070 1.287 . S
C2070 C2069 1.287 . S
C2070 C2071 1.524 . S
C2070 H2089 0.913 . S
C2071 H2047 0.950 . S
C2071 C2070 1.524 . S
C2071 C2072 1.415 . S
C2072 H2048 0.950 . S
C2072 C2067 1.363 . S
C2072 C2071 1.415 . S
C2073 H2049 0.951 . S
C2073 C2074 1.366 . S
C2073 C2075 1.388 . S
C2074 C2073 1.366 . S
C2074 C2078 1.385 . S
C2075 H2050 0.951 . S
C2075 C2073 1.388 . S
C2075 C2076 1.366 . S
C2076 C2075 1.366 . S
C2076 C2077 1.414 . S
C2076 C2079 1.499 . S
C2077 H2051 0.950 . S
C2077 C2076 1.414 . S
C2077 C2078 1.374 . S
C2078 H2052 0.950 . S
C2078 C2074 1.385 . S
C2078 C2077 1.374 . S
C2079 C2076 1.499 . S
C2079 C2080 1.373 . S
C2079 C2081 1.389 . S
C2080 H2053 0.950 . S
C2080 C2066 1.377 . S
C2080 C2079 1.373 . S
C2081 C2065 1.377 . S
C2081 C2079 1.389 . S
C2081 C2082 1.524 . S
C2082 C2081 1.524 . S
C2082 C2083 1.397 . S
C2082 C2087 1.363 . S
C2083 H2054 0.950 . S
C2083 C2082 1.397 . S
C2083 C2084 1.334 . S
C2084 H2055 0.950 . S
C2084 C2083 1.334 . S
C2084 C2085 1.287 . S
C2085 C2084 1.287 . S
C2085 C2086 1.524 . S
C2085 H2088 0.999 . S
C2086 H2056 0.950 . S
C2086 C2085 1.524 . S
C2086 C2087 1.415 . S
C2087 H2057 0.950 . S
C2087 C2082 1.363 . S
C2087 C2086 1.415 . S
H2088 C2085 0.999 . S
H2089 C2070 0.913 . S
H2090 C2108 0.951 . S
H2091 C2110 0.951 . S
H2092 C2112 0.950 . S
H2093 C2113 0.950 . S
H2094 C2115 0.950 . S
H2095 C2118 0.950 . S
H2096 C2119 0.950 . S
H2097 C2121 0.950 . S
H2098 C2122 0.950 . S
H2099 C2123 0.951 . S
H2100 C2125 0.951 . S
H2101 C2127 0.950 . S
H2102 C2128 0.950 . S
H2103 C2130 0.950 . S
H2104 C2133 0.950 . S
H2105 C2134 0.950 . S
H2106 C2136 0.950 . S
H2107 C2137 0.950 . S
C2108 H2090 0.951 . S
C2108 C2109 1.366 . S
C2108 C2110 1.388 . S
C2109 C2108 1.366 . S
C2109 C2113 1.385 . S
C2110 H2091 0.951 . S
C2110 C2108 1.388 . S
C2110 C2111 1.366 . S
C2111 C2110 1.366 . S
C2111 C2112 1.414 . S
C2111 C2114 1.499 . S
C2112 H2092 0.950 . S
C2112 C2111 1.414 . S
C2112 C2113 1.374 . S
C2113 H2093 0.950 . S
C2113 C2109 1.385 . S
C2113 C2112 1.374 . S
C2114 C2111 1.499 . S
C2114 C2115 1.373 . S
C2114 C2116 1.389 . S
C2115 H2094 0.950 . S
C2115 C2114 1.373 . S
C2115 C2131 1.377 . S
C2116 C2114 1.389 . S
C2116 C2117 1.524 . S
C2116 C2130 1.377 . S
C2117 C2116 1.524 . S
C2117 C2118 1.397 . S
C2117 C2122 1.363 . S
C2118 H2095 0.950 . S
C2118 C2117 1.397 . S
C2118 C2119 1.334 . S
C2119 H2096 0.950 . S
C2119 C2118 1.334 . S
C2119 C2120 1.287 . S
C2120 C2119 1.287 . S
C2120 C2121 1.524 . S
C2120 H2139 0.913 . S
C2121 H2097 0.950 . S
C2121 C2120 1.524 . S
C2121 C2122 1.415 . S
C2122 H2098 0.950 . S
C2122 C2117 1.363 . S
C2122 C2121 1.415 . S
C2123 H2099 0.951 . S
C2123 C2124 1.366 . S
C2123 C2125 1.388 . S
C2124 C2123 1.366 . S
C2124 C2128 1.385 . S
C2125 H2100 0.951 . S
C2125 C2123 1.388 . S
C2125 C2126 1.366 . S
C2126 C2125 1.366 . S
C2126 C2127 1.414 . S
C2126 C2129 1.499 . S
C2127 H2101 0.950 . S
C2127 C2126 1.414 . S
C2127 C2128 1.374 . S
C2128 H2102 0.950 . S
C2128 C2124 1.385 . S
C2128 C2127 1.374 . S
C2129 C2126 1.499 . S
C2129 C2130 1.373 . S
C2129 C2131 1.389 . S
C2130 H2103 0.950 . S
C2130 C2116 1.377 . S
C2130 C2129 1.373 . S
C2131 C2115 1.377 . S
C2131 C2129 1.389 . S
C2131 C2132 1.524 . S
C2132 C2131 1.524 . S
C2132 C2133 1.397 . S
C2132 C2137 1.363 . S
C2133 H2104 0.950 . S
C2133 C2132 1.397 . S
C2133 C2134 1.334 . S
C2134 H2105 0.950 . S
C2134 C2133 1.334 . S
C2134 C2135 1.287 . S
C2135 C2134 1.287 . S
C2135 C2136 1.524 . S
C2135 H2138 0.999 . S
C2136 H2106 0.950 . S
C2136 C2135 1.524 . S
C2136 C2137 1.415 . S
C2137 H2107 0.950 . S
C2137 C2132 1.363 . S
C2137 C2136 1.415 . S
H2138 C2135 0.999 . S
H2139 C2120 0.913 . S
H2140 C2158 0.951 . S
H2141 C2160 0.951 . S
H2142 C2162 0.950 . S
H2143 C2163 0.950 . S
H2144 C2165 0.950 . S
H2145 C2168 0.950 . S
H2146 C2169 0.950 . S
H2147 C2171 0.950 . S
H2148 C2172 0.950 . S
H2149 C2173 0.951 . S
H2150 C2175 0.951 . S
H2151 C2177 0.950 . S
H2152 C2178 0.950 . S
H2153 C2180 0.950 . S
H2154 C2183 0.950 . S
H2155 C2184 0.950 . S
H2156 C2186 0.950 . S
H2157 C2187 0.950 . S
C2158 H2140 0.951 . S
C2158 C2159 1.366 . S
C2158 C2160 1.388 . S
C2159 C2158 1.366 . S
C2159 C2163 1.385 . S
C2160 H2141 0.951 . S
C2160 C2158 1.388 . S
C2160 C2161 1.366 . S
C2161 C2160 1.366 . S
C2161 C2162 1.414 . S
C2161 C2164 1.499 . S
C2162 H2142 0.950 . S
C2162 C2161 1.414 . S
C2162 C2163 1.374 . S
C2163 H2143 0.950 . S
C2163 C2159 1.385 . S
C2163 C2162 1.374 . S
C2164 C2161 1.499 . S
C2164 C2165 1.373 . S
C2164 C2166 1.389 . S
C2165 H2144 0.950 . S
C2165 C2164 1.373 . S
C2165 C2181 1.377 . S
C2166 C2164 1.389 . S
C2166 C2167 1.524 . S
C2166 C2180 1.377 . S
C2167 C2166 1.524 . S
C2167 C2168 1.397 . S
C2167 C2172 1.363 . S
C2168 H2145 0.950 . S
C2168 C2167 1.397 . S
C2168 C2169 1.334 . S
C2169 H2146 0.950 . S
C2169 C2168 1.334 . S
C2169 C2170 1.287 . S
C2170 C2169 1.287 . S
C2170 C2171 1.524 . S
C2170 H2189 0.913 . S
C2171 H2147 0.950 . S
C2171 C2170 1.524 . S
C2171 C2172 1.415 . S
C2172 H2148 0.950 . S
C2172 C2167 1.363 . S
C2172 C2171 1.415 . S
C2173 H2149 0.951 . S
C2173 C2174 1.366 . S
C2173 C2175 1.388 . S
C2174 C2173 1.366 . S
C2174 C2178 1.385 . S
C2175 H2150 0.951 . S
C2175 C2173 1.388 . S
C2175 C2176 1.366 . S
C2176 C2175 1.366 . S
C2176 C2177 1.414 . S
C2176 C2179 1.499 . S
C2177 H2151 0.950 . S
C2177 C2176 1.414 . S
C2177 C2178 1.374 . S
C2178 H2152 0.950 . S
C2178 C2174 1.385 . S
C2178 C2177 1.374 . S
C2179 C2176 1.499 . S
C2179 C2180 1.373 . S
C2179 C2181 1.389 . S
C2180 H2153 0.950 . S
C2180 C2166 1.377 . S
C2180 C2179 1.373 . S
C2181 C2165 1.377 . S
C2181 C2179 1.389 . S
C2181 C2182 1.524 . S
C2182 C2181 1.524 . S
C2182 C2183 1.397 . S
C2182 C2187 1.363 . S
C2183 H2154 0.950 . S
C2183 C2182 1.397 . S
C2183 C2184 1.334 . S
C2184 H2155 0.950 . S
C2184 C2183 1.334 . S
C2184 C2185 1.287 . S
C2185 C2184 1.287 . S
C2185 C2186 1.524 . S
C2185 H2188 0.999 . S
C2186 H2156 0.950 . S
C2186 C2185 1.524 . S
C2186 C2187 1.415 . S
C2187 H2157 0.950 . S
C2187 C2182 1.363 . S
C2187 C2186 1.415 . S
H2188 C2185 0.999 . S
H2189 C2170 0.913 . S
H2190 C2208 0.951 . S
H2191 C2210 0.951 . S
H2192 C2212 0.950 . S
H2193 C2213 0.950 . S
H2194 C2215 0.950 . S
H2195 C2218 0.950 . S
H2196 C2219 0.950 . S
H2197 C2221 0.950 . S
H2198 C2222 0.950 . S
H2199 C2223 0.951 . S
H2200 C2225 0.951 . S
H2201 C2227 0.950 . S
H2202 C2228 0.950 . S
H2203 C2230 0.950 . S
H2204 C2233 0.950 . S
H2205 C2234 0.950 . S
H2206 C2236 0.950 . S
H2207 C2237 0.950 . S
C2208 H2190 0.951 . S
C2208 C2209 1.366 . S
C2208 C2210 1.388 . S
C2209 C2208 1.366 . S
C2209 C2213 1.385 . S
C2210 H2191 0.951 . S
C2210 C2208 1.388 . S
C2210 C2211 1.366 . S
C2211 C2210 1.366 . S
C2211 C2212 1.414 . S
C2211 C2214 1.499 . S
C2212 H2192 0.950 . S
C2212 C2211 1.414 . S
C2212 C2213 1.374 . S
C2213 H2193 0.950 . S
C2213 C2209 1.385 . S
C2213 C2212 1.374 . S
C2214 C2211 1.499 . S
C2214 C2215 1.373 . S
C2214 C2216 1.389 . S
C2215 H2194 0.950 . S
C2215 C2214 1.373 . S
C2215 C2231 1.377 . S
C2216 C2214 1.389 . S
C2216 C2217 1.524 . S
C2216 C2230 1.377 . S
C2217 C2216 1.524 . S
C2217 C2218 1.397 . S
C2217 C2222 1.363 . S
C2218 H2195 0.950 . S
C2218 C2217 1.397 . S
C2218 C2219 1.334 . S
C2219 H2196 0.950 . S
C2219 C2218 1.334 . S
C2219 C2220 1.287 . S
C2220 C2219 1.287 . S
C2220 C2221 1.524 . S
C2220 H2239 0.913 . S
C2221 H2197 0.950 . S
C2221 C2220 1.524 . S
C2221 C2222 1.415 . S
C2222 H2198 0.950 . S
C2222 C2217 1.363 . S
C2222 C2221 1.415 . S
C2223 H2199 0.951 . S
C2223 C2224 1.366 . S
C2223 C2225 1.388 . S
C2224 C2223 1.366 . S
C2224 C2228 1.385 . S
C2225 H2200 0.951 . S
C2225 C2223 1.388 . S
C2225 C2226 1.366 . S
C2226 C2225 1.366 . S
C2226 C2227 1.414 . S
C2226 C2229 1.499 . S
C2227 H2201 0.950 . S
C2227 C2226 1.414 . S
C2227 C2228 1.374 . S
C2228 H2202 0.950 . S
C2228 C2224 1.385 . S
C2228 C2227 1.374 . S
C2229 C2226 1.499 . S
C2229 C2230 1.373 . S
C2229 C2231 1.389 . S
C2230 H2203 0.950 . S
C2230 C2216 1.377 . S
C2230 C2229 1.373 . S
C2231 C2215 1.377 . S
C2231 C2229 1.389 . S
C2231 C2232 1.524 . S
C2232 C2231 1.524 . S
C2232 C2233 1.397 . S
C2232 C2237 1.363 . S
C2233 H2204 0.950 . S
C2233 C2232 1.397 . S
C2233 C2234 1.334 . S
C2234 H2205 0.950 . S
C2234 C2233 1.334 . S
C2234 C2235 1.287 . S
C2235 C2234 1.287 . S
C2235 C2236 1.524 . S
C2235 H2238 0.999 . S
C2236 H2206 0.950 . S
C2236 C2235 1.524 . S
C2236 C2237 1.415 . S
C2237 H2207 0.950 . S
C2237 C2232 1.363 . S
C2237 C2236 1.415 . S
H2238 C2235 0.999 . S
H2239 C2220 0.913 . S
H2240 C2258 0.951 . S
H2241 C2260 0.951 . S
H2242 C2262 0.950 . S
H2243 C2263 0.950 . S
H2244 C2265 0.950 . S
H2245 C2268 0.950 . S
H2246 C2269 0.950 . S
H2247 C2271 0.950 . S
H2248 C2272 0.950 . S
H2249 C2273 0.951 . S
H2250 C2275 0.951 . S
H2251 C2277 0.950 . S
H2252 C2278 0.950 . S
H2253 C2280 0.950 . S
H2254 C2283 0.950 . S
H2255 C2284 0.950 . S
H2256 C2286 0.950 . S
H2257 C2287 0.950 . S
C2258 H2240 0.951 . S
C2258 C2259 1.366 . S
C2258 C2260 1.388 . S
C2259 C2258 1.366 . S
C2259 C2263 1.385 . S
C2260 H2241 0.951 . S
C2260 C2258 1.388 . S
C2260 C2261 1.366 . S
C2261 C2260 1.366 . S
C2261 C2262 1.414 . S
C2261 C2264 1.499 . S
C2262 H2242 0.950 . S
C2262 C2261 1.414 . S
C2262 C2263 1.374 . S
C2263 H2243 0.950 . S
C2263 C2259 1.385 . S
C2263 C2262 1.374 . S
C2264 C2261 1.499 . S
C2264 C2265 1.373 . S
C2264 C2266 1.389 . S
C2265 H2244 0.950 . S
C2265 C2264 1.373 . S
C2265 C2281 1.377 . S
C2266 C2264 1.389 . S
C2266 C2267 1.524 . S
C2266 C2280 1.377 . S
C2267 C2266 1.524 . S
C2267 C2268 1.397 . S
C2267 C2272 1.363 . S
C2268 H2245 0.950 . S
C2268 C2267 1.397 . S
C2268 C2269 1.334 . S
C2269 H2246 0.950 . S
C2269 C2268 1.334 . S
C2269 C2270 1.287 . S
C2270 C2269 1.287 . S
C2270 C2271 1.524 . S
C2270 H2289 0.913 . S
C2271 H2247 0.950 . S
C2271 C2270 1.524 . S
C2271 C2272 1.415 . S
C2272 H2248 0.950 . S
C2272 C2267 1.363 . S
C2272 C2271 1.415 . S
C2273 H2249 0.951 . S
C2273 C2274 1.366 . S
C2273 C2275 1.388 . S
C2274 C2273 1.366 . S
C2274 C2278 1.385 . S
C2275 H2250 0.951 . S
C2275 C2273 1.388 . S
C2275 C2276 1.366 . S
C2276 C2275 1.366 . S
C2276 C2277 1.414 . S
C2276 C2279 1.499 . S
C2277 H2251 0.950 . S
C2277 C2276 1.414 . S
C2277 C2278 1.374 . S
C2278 H2252 0.950 . S
C2278 C2274 1.385 . S
C2278 C2277 1.374 . S
C2279 C2276 1.499 . S
C2279 C2280 1.373 . S
C2279 C2281 1.389 . S
C2280 H2253 0.950 . S
C2280 C2266 1.377 . S
C2280 C2279 1.373 . S
C2281 C2265 1.377 . S
C2281 C2279 1.389 . S
C2281 C2282 1.524 . S
C2282 C2281 1.524 . S
C2282 C2283 1.397 . S
C2282 C2287 1.363 . S
C2283 H2254 0.950 . S
C2283 C2282 1.397 . S
C2283 C2284 1.334 . S
C2284 H2255 0.950 . S
C2284 C2283 1.334 . S
C2284 C2285 1.287 . S
C2285 C2284 1.287 . S
C2285 C2286 1.524 . S
C2285 H2288 0.999 . S
C2286 H2256 0.950 . S
C2286 C2285 1.524 . S
C2286 C2287 1.415 . S
C2287 H2257 0.950 . S
C2287 C2282 1.363 . S
C2287 C2286 1.415 . S
H2288 C2285 0.999 . S
H2289 C2270 0.913 . S
H2290 C2308 0.951 . S
H2291 C2310 0.951 . S
H2292 C2312 0.950 . S
H2293 C2313 0.950 . S
H2294 C2315 0.950 . S
H2295 C2318 0.950 . S
H2296 C2319 0.950 . S
H2297 C2321 0.950 . S
H2298 C2322 0.950 . S
H2299 C2323 0.951 . S
H2300 C2325 0.951 . S
H2301 C2327 0.950 . S
H2302 C2328 0.950 . S
H2303 C2330 0.950 . S
H2304 C2333 0.950 . S
H2305 C2334 0.950 . S
H2306 C2336 0.950 . S
H2307 C2337 0.950 . S
C2308 H2290 0.951 . S
C2308 C2309 1.366 . S
C2308 C2310 1.388 . S
C2309 C2308 1.366 . S
C2309 C2313 1.385 . S
C2310 H2291 0.951 . S
C2310 C2308 1.388 . S
C2310 C2311 1.366 . S
C2311 C2310 1.366 . S
C2311 C2312 1.414 . S
C2311 C2314 1.499 . S
C2312 H2292 0.950 . S
C2312 C2311 1.414 . S
C2312 C2313 1.374 . S
C2313 H2293 0.950 . S
C2313 C2309 1.385 . S
C2313 C2312 1.374 . S
C2314 C2311 1.499 . S
C2314 C2315 1.373 . S
C2314 C2316 1.389 . S
C2315 H2294 0.950 . S
C2315 C2314 1.373 . S
C2315 C2331 1.377 . S
C2316 C2314 1.389 . S
C2316 C2317 1.524 . S
C2316 C2330 1.377 . S
C2317 C2316 1.524 . S
C2317 C2318 1.397 . S
C2317 C2322 1.363 . S
C2318 H2295 0.950 . S
C2318 C2317 1.397 . S
C2318 C2319 1.334 . S
C2319 H2296 0.950 . S
C2319 C2318 1.334 . S
C2319 C2320 1.287 . S
C2320 C2319 1.287 . S
C2320 C2321 1.524 . S
C2320 H2339 0.913 . S
C2321 H2297 0.950 . S
C2321 C2320 1.524 . S
C2321 C2322 1.415 . S
C2322 H2298 0.950 . S
C2322 C2317 1.363 . S
C2322 C2321 1.415 . S
C2323 H2299 0.951 . S
C2323 C2324 1.366 . S
C2323 C2325 1.388 . S
C2324 C2323 1.366 . S
C2324 C2328 1.385 . S
C2325 H2300 0.951 . S
C2325 C2323 1.388 . S
C2325 C2326 1.366 . S
C2326 C2325 1.366 . S
C2326 C2327 1.414 . S
C2326 C2329 1.499 . S
C2327 H2301 0.950 . S
C2327 C2326 1.414 . S
C2327 C2328 1.374 . S
C2328 H2302 0.950 . S
C2328 C2324 1.385 . S
C2328 C2327 1.374 . S
C2329 C2326 1.499 . S
C2329 C2330 1.373 . S
C2329 C2331 1.389 . S
C2330 H2303 0.950 . S
C2330 C2316 1.377 . S
C2330 C2329 1.373 . S
C2331 C2315 1.377 . S
C2331 C2329 1.389 . S
C2331 C2332 1.524 . S
C2332 C2331 1.524 . S
C2332 C2333 1.397 . S
C2332 C2337 1.363 . S
C2333 H2304 0.950 . S
C2333 C2332 1.397 . S
C2333 C2334 1.334 . S
C2334 H2305 0.950 . S
C2334 C2333 1.334 . S
C2334 C2335 1.287 . S
C2335 C2334 1.287 . S
C2335 C2336 1.524 . S
C2335 H2338 0.999 . S
C2336 H2306 0.950 . S
C2336 C2335 1.524 . S
C2336 C2337 1.415 . S
C2337 H2307 0.950 . S
C2337 C2332 1.363 . S
C2337 C2336 1.415 . S
H2338 C2335 0.999 . S
H2339 C2320 0.913 . S
H2340 C2358 0.951 . S
H2341 C2360 0.951 . S
H2342 C2362 0.950 . S
H2343 C2363 0.950 . S
H2344 C2365 0.950 . S
H2345 C2368 0.950 . S
H2346 C2369 0.950 . S
H2347 C2371 0.950 . S
H2348 C2372 0.950 . S
H2349 C2373 0.951 . S
H2350 C2375 0.951 . S
H2351 C2377 0.950 . S
H2352 C2378 0.950 . S
H2353 C2380 0.950 . S
H2354 C2383 0.950 . S
H2355 C2384 0.950 . S
H2356 C2386 0.950 . S
H2357 C2387 0.950 . S
C2358 H2340 0.951 . S
C2358 C2359 1.366 . S
C2358 C2360 1.388 . S
C2359 C2358 1.366 . S
C2359 C2363 1.385 . S
C2360 H2341 0.951 . S
C2360 C2358 1.388 . S
C2360 C2361 1.366 . S
C2361 C2360 1.366 . S
C2361 C2362 1.414 . S
C2361 C2364 1.499 . S
C2362 H2342 0.950 . S
C2362 C2361 1.414 . S
C2362 C2363 1.374 . S
C2363 H2343 0.950 . S
C2363 C2359 1.385 . S
C2363 C2362 1.374 . S
C2364 C2361 1.499 . S
C2364 C2365 1.373 . S
C2364 C2366 1.389 . S
C2365 H2344 0.950 . S
C2365 C2364 1.373 . S
C2365 C2381 1.377 . S
C2366 C2364 1.389 . S
C2366 C2367 1.524 . S
C2366 C2380 1.377 . S
C2367 C2366 1.524 . S
C2367 C2368 1.397 . S
C2367 C2372 1.363 . S
C2368 H2345 0.950 . S
C2368 C2367 1.397 . S
C2368 C2369 1.334 . S
C2369 H2346 0.950 . S
C2369 C2368 1.334 . S
C2369 C2370 1.287 . S
C2370 C2369 1.287 . S
C2370 C2371 1.524 . S
C2370 H2389 0.913 . S
C2371 H2347 0.950 . S
C2371 C2370 1.524 . S
C2371 C2372 1.415 . S
C2372 H2348 0.950 . S
C2372 C2367 1.363 . S
C2372 C2371 1.415 . S
C2373 H2349 0.951 . S
C2373 C2374 1.366 . S
C2373 C2375 1.388 . S
C2374 C2373 1.366 . S
C2374 C2378 1.385 . S
C2375 H2350 0.951 . S
C2375 C2373 1.388 . S
C2375 C2376 1.366 . S
C2376 C2375 1.366 . S
C2376 C2377 1.414 . S
C2376 C2379 1.499 . S
C2377 H2351 0.950 . S
C2377 C2376 1.414 . S
C2377 C2378 1.374 . S
C2378 H2352 0.950 . S
C2378 C2374 1.385 . S
C2378 C2377 1.374 . S
C2379 C2376 1.499 . S
C2379 C2380 1.373 . S
C2379 C2381 1.389 . S
C2380 H2353 0.950 . S
C2380 C2366 1.377 . S
C2380 C2379 1.373 . S
C2381 C2365 1.377 . S
C2381 C2379 1.389 . S
C2381 C2382 1.524 . S
C2382 C2381 1.524 . S
C2382 C2383 1.397 . S
C2382 C2387 1.363 . S
C2383 H2354 0.950 . S
C2383 C2382 1.397 . S
C2383 C2384 1.334 . S
C2384 H2355 0.950 . S
C2384 C2383 1.334 . S
C2384 C2385 1.287 . S
C2385 C2384 1.287 . S
C2385 C2386 1.524 . S
C2385 H2388 0.999 . S
C2386 H2356 0.950 . S
C2386 C2385 1.524 . S
C2386 C2387 1.415 . S
C2387 H2357 0.950 . S
C2387 C2382 1.363 . S
C2387 C2386 1.415 . S
H2388 C2385 0.999 . S
H2389 C2370 0.913 . S
H2390 C2408 0.951 . S
H2391 C2410 0.951 . S
H2392 C2412 0.950 . S
H2393 C2413 0.950 . S
H2394 C2415 0.950 . S
H2395 C2418 0.950 . S
H2396 C2419 0.950 . S
H2397 C2421 0.950 . S
H2398 C2422 0.950 . S
H2399 C2423 0.951 . S
H2400 C2425 0.951 . S
H2401 C2427 0.950 . S
H2402 C2428 0.950 . S
H2403 C2430 0.950 . S
H2404 C2433 0.950 . S
H2405 C2434 0.950 . S
H2406 C2436 0.950 . S
H2407 C2437 0.950 . S
C2408 H2390 0.951 . S
C2408 C2409 1.366 . S
C2408 C2410 1.388 . S
C2409 C2408 1.366 . S
C2409 C2413 1.385 . S
C2410 H2391 0.951 . S
C2410 C2408 1.388 . S
C2410 C2411 1.366 . S
C2411 C2410 1.366 . S
C2411 C2412 1.414 . S
C2411 C2414 1.499 . S
C2412 H2392 0.950 . S
C2412 C2411 1.414 . S
C2412 C2413 1.374 . S
C2413 H2393 0.950 . S
C2413 C2409 1.385 . S
C2413 C2412 1.374 . S
C2414 C2411 1.499 . S
C2414 C2415 1.373 . S
C2414 C2416 1.389 . S
C2415 H2394 0.950 . S
C2415 C2414 1.373 . S
C2415 C2431 1.377 . S
C2416 C2414 1.389 . S
C2416 C2417 1.524 . S
C2416 C2430 1.377 . S
C2417 C2416 1.524 . S
C2417 C2418 1.397 . S
C2417 C2422 1.363 . S
C2418 H2395 0.950 . S
C2418 C2417 1.397 . S
C2418 C2419 1.334 . S
C2419 H2396 0.950 . S
C2419 C2418 1.334 . S
C2419 C2420 1.287 . S
C2420 C2419 1.287 . S
C2420 C2421 1.524 . S
C2420 H2439 0.913 . S
C2421 H2397 0.950 . S
C2421 C2420 1.524 . S
C2421 C2422 1.415 . S
C2422 H2398 0.950 . S
C2422 C2417 1.363 . S
C2422 C2421 1.415 . S
C2423 H2399 0.951 . S
C2423 C2424 1.366 . S
C2423 C2425 1.388 . S
C2424 C2423 1.366 . S
C2424 C2428 1.385 . S
C2425 H2400 0.951 . S
C2425 C2423 1.388 . S
C2425 C2426 1.366 . S
C2426 C2425 1.366 . S
C2426 C2427 1.414 . S
C2426 C2429 1.499 . S
C2427 H2401 0.950 . S
C2427 C2426 1.414 . S
C2427 C2428 1.374 . S
C2428 H2402 0.950 . S
C2428 C2424 1.385 . S
C2428 C2427 1.374 . S
C2429 C2426 1.499 . S
C2429 C2430 1.373 . S
C2429 C2431 1.389 . S
C2430 H2403 0.950 . S
C2430 C2416 1.377 . S
C2430 C2429 1.373 . S
C2431 C2415 1.377 . S
C2431 C2429 1.389 . S
C2431 C2432 1.524 . S
C2432 C2431 1.524 . S
C2432 C2433 1.397 . S
C2432 C2437 1.363 . S
C2433 H2404 0.950 . S
C2433 C2432 1.397 . S
C2433 C2434 1.334 . S
C2434 H2405 0.950 . S
C2434 C2433 1.334 . S
C2434 C2435 1.287 . S
C2435 C2434 1.287 . S
C2435 C2436 1.524 . S
C2435 H2438 0.999 . S
C2436 H2406 0.950 . S
C2436 C2435 1.524 . S
C2436 C2437 1.415 . S
C2437 H2407 0.950 . S
C2437 C2432 1.363 . S
C2437 C2436 1.415 . S
H2438 C2435 0.999 . S
H2439 C2420 0.913 . S
H2440 C2458 0.951 . S
H2441 C2460 0.951 . S
H2442 C2462 0.950 . S
H2443 C2463 0.950 . S
H2444 C2465 0.950 . S
H2445 C2468 0.950 . S
H2446 C2469 0.950 . S
H2447 C2471 0.950 . S
H2448 C2472 0.950 . S
H2449 C2473 0.951 . S
H2450 C2475 0.951 . S
H2451 C2477 0.950 . S
H2452 C2478 0.950 . S
H2453 C2480 0.950 . S
H2454 C2483 0.950 . S
H2455 C2484 0.950 . S
H2456 C2486 0.950 1_556 S
H2457 C2487 0.950 . S
C2458 H2440 0.951 . S
C2458 C2459 1.366 . S
C2458 C2460 1.388 . S
C2459 C2458 1.366 . S
C2459 C2463 1.385 . S
C2460 H2441 0.951 . S
C2460 C2458 1.388 . S
C2460 C2461 1.366 . S
C2461 C2460 1.366 . S
C2461 C2462 1.414 . S
C2461 C2464 1.499 . S
C2462 H2442 0.950 . S
C2462 C2461 1.414 . S
C2462 C2463 1.374 . S
C2463 H2443 0.950 . S
C2463 C2459 1.385 . S
C2463 C2462 1.374 . S
C2464 C2461 1.499 . S
C2464 C2465 1.373 . S
C2464 C2466 1.389 . S
C2465 H2444 0.950 . S
C2465 C2464 1.373 . S
C2465 C2481 1.377 . S
C2466 C2464 1.389 . S
C2466 C2467 1.524 . S
C2466 C2480 1.377 . S
C2467 C2466 1.524 . S
C2467 C2468 1.397 . S
C2467 C2472 1.363 . S
C2468 H2445 0.950 . S
C2468 C2467 1.397 . S
C2468 C2469 1.334 . S
C2469 H2446 0.950 . S
C2469 C2468 1.334 . S
C2469 C2470 1.287 . S
C2470 C2469 1.287 . S
C2470 C2471 1.524 . S
C2470 H2489 0.913 . S
C2471 H2447 0.950 . S
C2471 C2470 1.524 . S
C2471 C2472 1.415 . S
C2472 H2448 0.950 . S
C2472 C2467 1.363 . S
C2472 C2471 1.415 . S
C2473 H2449 0.951 . S
C2473 C2474 1.366 . S
C2473 C2475 1.388 . S
C2474 C2473 1.366 . S
C2474 C2478 1.385 . S
C2475 H2450 0.951 . S
C2475 C2473 1.388 . S
C2475 C2476 1.366 . S
C2476 C2475 1.366 . S
C2476 C2477 1.414 . S
C2476 C2479 1.499 . S
C2477 H2451 0.950 . S
C2477 C2476 1.414 . S
C2477 C2478 1.374 . S
C2478 H2452 0.950 . S
C2478 C2474 1.385 . S
C2478 C2477 1.374 . S
C2479 C2476 1.499 . S
C2479 C2480 1.373 . S
C2479 C2481 1.389 . S
C2480 H2453 0.950 . S
C2480 C2466 1.377 . S
C2480 C2479 1.373 . S
C2481 C2465 1.377 . S
C2481 C2479 1.389 . S
C2481 C2482 1.524 . S
C2482 C2481 1.524 . S
C2482 C2483 1.397 . S
C2482 C2487 1.363 . S
C2483 H2454 0.950 . S
C2483 C2482 1.397 . S
C2483 C2484 1.334 . S
C2484 H2455 0.950 . S
C2484 C2483 1.334 . S
C2484 C2485 1.287 . S
C2485 C2484 1.287 . S
C2485 C2486 1.524 . S
C2485 H2488 0.999 1_554 S
C2486 H2456 0.950 1_554 S
C2486 C2485 1.524 . S
C2486 C2487 1.415 . S
C2487 H2457 0.950 . S
C2487 C2482 1.363 . S
C2487 C2486 1.415 . S
H2488 C2485 0.999 1_556 S
H2489 C2470 0.913 . S
H2490 C2508 0.951 . S
H2491 C2510 0.951 . S
H2492 C2512 0.950 . S
H2493 C2513 0.950 . S
H2494 C2515 0.950 . S
H2495 C2518 0.950 . S
H2496 C2519 0.950 . S
H2497 C2521 0.950 1_554 S
H2498 C2522 0.950 . S
H2499 C2523 0.924 1_556 S
H2500 C2525 0.946 1_556 S
H2501 C2527 0.950 . S
H2502 C2528 0.950 . S
H2503 C2530 0.950 . S
H2504 C2533 0.950 . S
H2505 C2534 0.950 . S
H2506 C2536 0.950 . S
H2507 C2537 0.950 . S
C2508 H2490 0.951 . S
C2508 C2509 1.366 . S
C2508 C2510 1.388 . S
C2509 C2508 1.366 . S
C2509 C2513 1.385 . S
C2510 H2491 0.951 . S
C2510 C2508 1.388 . S
C2510 C2511 1.366 . S
C2511 C2510 1.366 . S
C2511 C2512 1.414 . S
C2511 C2514 1.499 . S
C2512 H2492 0.950 . S
C2512 C2511 1.414 . S
C2512 C2513 1.374 . S
C2513 H2493 0.950 . S
C2513 C2509 1.385 . S
C2513 C2512 1.374 . S
C2514 C2511 1.499 . S
C2514 C2515 1.373 . S
C2514 C2516 1.389 . S
C2515 H2494 0.950 . S
C2515 C2514 1.373 . S
C2515 C2531 1.377 . S
C2516 C2514 1.389 . S
C2516 C2517 1.524 . S
C2516 C2530 1.377 . S
C2517 C2516 1.524 . S
C2517 C2518 1.397 1_554 S
C2517 C2522 1.363 . S
C2518 H2495 0.950 . S
C2518 C2517 1.397 1_556 S
C2518 C2519 1.334 . S
C2519 H2496 0.950 . S
C2519 C2518 1.334 . S
C2519 C2520 1.287 . S
C2520 C2519 1.287 . S
C2520 C2521 1.524 . S
C2520 H2539 0.913 . S
C2521 H2497 0.950 1_556 S
C2521 C2520 1.524 . S
C2521 C2522 1.415 1_556 S
C2522 H2498 0.950 . S
C2522 C2517 1.363 . S
C2522 C2521 1.415 1_554 S
C2523 H2499 0.924 1_554 S
C2523 C2524 1.376 . S
C2523 C2525 1.406 . S
C2524 C2523 1.376 . S
C2524 C2528 1.385 . S
C2525 H2500 0.946 1_554 S
C2525 C2523 1.406 . S
C2525 C2526 1.366 . S
C2526 C2525 1.366 . S
C2526 C2527 1.414 . S
C2526 C2529 1.499 . S
C2527 H2501 0.950 . S
C2527 C2526 1.414 . S
C2527 C2528 1.374 . S
C2528 H2502 0.950 . S
C2528 C2524 1.385 . S
C2528 C2527 1.374 . S
C2529 C2526 1.499 . S
C2529 C2530 1.373 . S
C2529 C2531 1.389 . S
C2530 H2503 0.950 . S
C2530 C2516 1.377 . S
C2530 C2529 1.373 . S
C2531 C2515 1.377 . S
C2531 C2529 1.389 . S
C2531 C2532 1.524 . S
C2532 C2531 1.524 . S
C2532 C2533 1.397 . S
C2532 C2537 1.363 . S
C2533 H2504 0.950 . S
C2533 C2532 1.397 . S
C2533 C2534 1.334 . S
C2534 H2505 0.950 . S
C2534 C2533 1.334 . S
C2534 C2535 1.287 . S
C2535 C2534 1.287 . S
C2535 C2536 1.524 . S
C2535 H2538 0.999 . S
C2536 H2506 0.950 . S
C2536 C2535 1.524 . S
C2536 C2537 1.415 . S
C2537 H2507 0.950 . S
C2537 C2532 1.363 . S
C2537 C2536 1.415 . S
H2538 C2535 0.999 . S
H2539 C2520 0.913 . S
H2540 C2558 0.951 . S
H2541 C2560 0.951 . S
H2542 C2562 0.950 . S
H2543 C2563 0.950 . S
H2544 C2565 0.950 . S
H2545 C2568 0.950 . S
H2546 C2569 0.950 . S
H2547 C2571 0.950 . S
H2548 C2572 0.950 . S
H2549 C2573 0.951 . S
H2550 C2575 0.951 . S
H2551 C2577 0.950 . S
H2552 C2578 0.950 . S
H2553 C2580 0.950 . S
H2554 C2583 0.950 . S
H2555 C2584 0.950 . S
H2556 C2586 0.950 . S
H2557 C2587 0.950 . S
C2558 H2540 0.951 . S
C2558 C2559 1.366 . S
C2558 C2560 1.388 . S
C2559 C2558 1.366 . S
C2559 C2563 1.385 . S
C2560 H2541 0.951 . S
C2560 C2558 1.388 . S
C2560 C2561 1.366 . S
C2561 C2560 1.366 . S
C2561 C2562 1.414 . S
C2561 C2564 1.499 . S
C2562 H2542 0.950 . S
C2562 C2561 1.414 . S
C2562 C2563 1.374 . S
C2563 H2543 0.950 . S
C2563 C2559 1.385 . S
C2563 C2562 1.374 . S
C2564 C2561 1.499 . S
C2564 C2565 1.373 . S
C2564 C2566 1.389 . S
C2565 H2544 0.950 . S
C2565 C2564 1.373 . S
C2565 C2581 1.377 . S
C2566 C2564 1.389 . S
C2566 C2567 1.524 . S
C2566 C2580 1.377 . S
C2567 C2566 1.524 . S
C2567 C2568 1.397 . S
C2567 C2572 1.363 . S
C2568 H2545 0.950 . S
C2568 C2567 1.397 . S
C2568 C2569 1.334 . S
C2569 H2546 0.950 . S
C2569 C2568 1.334 . S
C2569 C2570 1.287 . S
C2570 C2569 1.287 . S
C2570 C2571 1.524 . S
C2570 H2589 0.913 . S
C2571 H2547 0.950 . S
C2571 C2570 1.524 . S
C2571 C2572 1.415 . S
C2572 H2548 0.950 . S
C2572 C2567 1.363 . S
C2572 C2571 1.415 . S
C2573 H2549 0.951 . S
C2573 C2574 1.366 . S
C2573 C2575 1.388 . S
C2574 C2573 1.366 . S
C2574 C2578 1.385 . S
C2575 H2550 0.951 . S
C2575 C2573 1.388 . S
C2575 C2576 1.366 . S
C2576 C2575 1.366 . S
C2576 C2577 1.414 . S
C2576 C2579 1.499 . S
C2577 H2551 0.950 . S
C2577 C2576 1.414 . S
C2577 C2578 1.374 . S
C2578 H2552 0.950 . S
C2578 C2574 1.385 . S
C2578 C2577 1.374 . S
C2579 C2576 1.499 . S
C2579 C2580 1.373 . S
C2579 C2581 1.389 . S
C2580 H2553 0.950 . S
C2580 C2566 1.377 . S
C2580 C2579 1.373 . S
C2581 C2565 1.377 . S
C2581 C2579 1.389 . S
C2581 C2582 1.524 . S
C2582 C2581 1.524 . S
C2582 C2583 1.397 . S
C2582 C2587 1.363 . S
C2583 H2554 0.950 . S
C2583 C2582 1.397 . S
C2583 C2584 1.334 . S
C2584 H2555 0.950 . S
C2584 C2583 1.334 . S
C2584 C2585 1.287 . S
C2585 C2584 1.287 . S
C2585 C2586 1.524 . S
C2585 H2588 0.999 . S
C2586 H2556 0.950 . S
C2586 C2585 1.524 . S
C2586 C2587 1.415 . S
C2587 H2557 0.950 . S
C2587 C2582 1.363 . S
C2587 C2586 1.415 . S
H2588 C2585 0.999 . S
H2589 C2570 0.913 . S
H2590 C2608 0.951 . S
H2591 C2610 0.951 . S
H2592 C2612 0.950 . S
H2593 C2613 0.950 . S
H2594 C2615 0.950 . S
H2595 C2618 0.950 . S
H2596 C2619 0.950 . S
H2597 C2621 0.950 . S
H2598 C2622 0.950 . S
H2599 C2623 0.951 . S
H2600 C2625 0.951 . S
H2601 C2627 0.950 . S
H2602 C2628 0.950 . S
H2603 C2630 0.950 . S
H2604 C2633 0.950 . S
H2605 C2634 0.950 . S
H2606 C2636 0.950 . S
H2607 C2637 0.950 . S
C2608 H2590 0.951 . S
C2608 C2609 1.366 . S
C2608 C2610 1.388 . S
C2609 C2608 1.366 . S
C2609 C2613 1.385 . S
C2610 H2591 0.951 . S
C2610 C2608 1.388 . S
C2610 C2611 1.366 . S
C2611 C2610 1.366 . S
C2611 C2612 1.414 . S
C2611 C2614 1.499 . S
C2612 H2592 0.950 . S
C2612 C2611 1.414 . S
C2612 C2613 1.374 . S
C2613 H2593 0.950 . S
C2613 C2609 1.385 . S
C2613 C2612 1.374 . S
C2614 C2611 1.499 . S
C2614 C2615 1.373 . S
C2614 C2616 1.389 . S
C2615 H2594 0.950 . S
C2615 C2614 1.373 . S
C2615 C2631 1.377 . S
C2616 C2614 1.389 . S
C2616 C2617 1.524 . S
C2616 C2630 1.377 . S
C2617 C2616 1.524 . S
C2617 C2618 1.397 . S
C2617 C2622 1.363 . S
C2618 H2595 0.950 . S
C2618 C2617 1.397 . S
C2618 C2619 1.334 . S
C2619 H2596 0.950 . S
C2619 C2618 1.334 . S
C2619 C2620 1.287 . S
C2620 C2619 1.287 . S
C2620 C2621 1.524 . S
C2620 H2639 0.913 . S
C2621 H2597 0.950 . S
C2621 C2620 1.524 . S
C2621 C2622 1.415 . S
C2622 H2598 0.950 . S
C2622 C2617 1.363 . S
C2622 C2621 1.415 . S
C2623 H2599 0.951 . S
C2623 C2624 1.366 . S
C2623 C2625 1.388 . S
C2624 C2623 1.366 . S
C2624 C2628 1.385 . S
C2625 H2600 0.951 . S
C2625 C2623 1.388 . S
C2625 C2626 1.366 . S
C2626 C2625 1.366 . S
C2626 C2627 1.414 . S
C2626 C2629 1.499 . S
C2627 H2601 0.950 . S
C2627 C2626 1.414 . S
C2627 C2628 1.374 . S
C2628 H2602 0.950 . S
C2628 C2624 1.385 . S
C2628 C2627 1.374 . S
C2629 C2626 1.499 . S
C2629 C2630 1.373 . S
C2629 C2631 1.389 . S
C2630 H2603 0.950 . S
C2630 C2616 1.377 . S
C2630 C2629 1.373 . S
C2631 C2615 1.377 . S
C2631 C2629 1.389 . S
C2631 C2632 1.524 . S
C2632 C2631 1.524 . S
C2632 C2633 1.397 . S
C2632 C2637 1.363 . S
C2633 H2604 0.950 . S
C2633 C2632 1.397 . S
C2633 C2634 1.334 . S
C2634 H2605 0.950 . S
C2634 C2633 1.334 . S
C2634 C2635 1.287 . S
C2635 C2634 1.287 . S
C2635 C2636 1.524 . S
C2635 H2638 0.999 . S
C2636 H2606 0.950 . S
C2636 C2635 1.524 . S
C2636 C2637 1.415 . S
C2637 H2607 0.950 . S
C2637 C2632 1.363 . S
C2637 C2636 1.415 . S
H2638 C2635 0.999 . S
H2639 C2620 0.913 . S
H2640 C2658 0.951 . S
H2641 C2660 0.951 . S
H2642 C2662 0.950 . S
H2643 C2663 0.950 . S
H2644 C2665 0.950 . S
H2645 C2668 0.950 . S
H2646 C2669 0.950 . S
H2647 C2671 0.950 . S
H2648 C2672 0.950 . S
H2649 C2673 0.951 . S
H2650 C2675 0.951 . S
H2651 C2677 0.950 . S
H2652 C2678 0.950 . S
H2653 C2680 0.950 . S
H2654 C2683 0.950 . S
H2655 C2684 0.950 . S
H2656 C2686 0.950 . S
H2657 C2687 0.950 . S
C2658 H2640 0.951 . S
C2658 C2659 1.366 . S
C2658 C2660 1.388 . S
C2659 C2658 1.366 . S
C2659 C2663 1.385 . S
C2660 H2641 0.951 . S
C2660 C2658 1.388 . S
C2660 C2661 1.366 . S
C2661 C2660 1.366 . S
C2661 C2662 1.414 . S
C2661 C2664 1.499 . S
C2662 H2642 0.950 . S
C2662 C2661 1.414 . S
C2662 C2663 1.374 . S
C2663 H2643 0.950 . S
C2663 C2659 1.385 . S
C2663 C2662 1.374 . S
C2664 C2661 1.499 . S
C2664 C2665 1.373 . S
C2664 C2666 1.389 . S
C2665 H2644 0.950 . S
C2665 C2664 1.373 . S
C2665 C2681 1.377 . S
C2666 C2664 1.389 . S
C2666 C2667 1.524 . S
C2666 C2680 1.377 . S
C2667 C2666 1.524 . S
C2667 C2668 1.397 . S
C2667 C2672 1.363 . S
C2668 H2645 0.950 . S
C2668 C2667 1.397 . S
C2668 C2669 1.334 . S
C2669 H2646 0.950 . S
C2669 C2668 1.334 . S
C2669 C2670 1.287 . S
C2670 C2669 1.287 . S
C2670 C2671 1.524 . S
C2670 H2689 0.913 . S
C2671 H2647 0.950 . S
C2671 C2670 1.524 . S
C2671 C2672 1.415 . S
C2672 H2648 0.950 . S
C2672 C2667 1.363 . S
C2672 C2671 1.415 . S
C2673 H2649 0.951 . S
C2673 C2674 1.366 . S
C2673 C2675 1.388 . S
C2674 C2673 1.366 . S
C2674 C2678 1.385 . S
C2675 H2650 0.951 . S
C2675 C2673 1.388 . S
C2675 C2676 1.366 . S
C2676 C2675 1.366 . S
C2676 C2677 1.414 . S
C2676 C2679 1.499 . S
C2677 H2651 0.950 . S
C2677 C2676 1.414 . S
C2677 C2678 1.374 . S
C2678 H2652 0.950 . S
C2678 C2674 1.385 . S
C2678 C2677 1.374 . S
C2679 C2676 1.499 . S
C2679 C2680 1.373 . S
C2679 C2681 1.389 . S
C2680 H2653 0.950 . S
C2680 C2666 1.377 . S
C2680 C2679 1.373 . S
C2681 C2665 1.377 . S
C2681 C2679 1.389 . S
C2681 C2682 1.524 . S
C2682 C2681 1.524 . S
C2682 C2683 1.397 . S
C2682 C2687 1.363 . S
C2683 H2654 0.950 . S
C2683 C2682 1.397 . S
C2683 C2684 1.334 . S
C2684 H2655 0.950 . S
C2684 C2683 1.334 . S
C2684 C2685 1.287 . S
C2685 C2684 1.287 . S
C2685 C2686 1.524 . S
C2685 H2688 0.999 . S
C2686 H2656 0.950 . S
C2686 C2685 1.524 . S
C2686 C2687 1.415 . S
C2687 H2657 0.950 . S
C2687 C2682 1.363 . S
C2687 C2686 1.415 . S
H2688 C2685 0.999 . S
H2689 C2670 0.913 . S
H2690 C2708 0.951 . S
H2691 C2710 0.951 . S
H2692 C2712 0.950 . S
H2693 C2713 0.950 . S
H2694 C2715 0.950 . S
H2695 C2718 0.950 . S
H2696 C2719 0.950 . S
H2697 C2721 0.950 1_554 S
H2698 C2722 0.950 . S
H2699 C2723 0.951 . S
H2700 C2725 0.951 . S
H2701 C2727 0.950 . S
H2702 C2728 0.950 . S
H2703 C2730 0.950 . S
H2704 C2733 0.950 . S
H2705 C2734 0.950 . S
H2706 C2736 0.950 . S
H2707 C2737 0.950 . S
C2708 H2690 0.951 . S
C2708 C2709 1.366 . S
C2708 C2710 1.388 . S
C2709 C2708 1.366 . S
C2709 C2713 1.385 . S
C2710 H2691 0.951 . S
C2710 C2708 1.388 . S
C2710 C2711 1.366 . S
C2711 C2710 1.366 . S
C2711 C2712 1.414 . S
C2711 C2714 1.499 . S
C2712 H2692 0.950 . S
C2712 C2711 1.414 . S
C2712 C2713 1.374 . S
C2713 H2693 0.950 . S
C2713 C2709 1.385 . S
C2713 C2712 1.374 . S
C2714 C2711 1.499 . S
C2714 C2715 1.373 . S
C2714 C2716 1.389 . S
C2715 H2694 0.950 . S
C2715 C2714 1.373 . S
C2715 C2731 1.377 . S
C2716 C2714 1.389 . S
C2716 C2717 1.524 . S
C2716 C2730 1.377 . S
C2717 C2716 1.524 . S
C2717 C2718 1.397 . S
C2717 C2722 1.363 . S
C2718 H2695 0.950 . S
C2718 C2717 1.397 . S
C2718 C2719 1.334 . S
C2719 H2696 0.950 . S
C2719 C2718 1.334 . S
C2719 C2720 1.287 . S
C2720 C2719 1.287 . S
C2720 C2721 1.524 . S
C2720 H2739 0.902 1_556 S
C2721 H2697 0.950 1_556 S
C2721 C2720 1.524 . S
C2721 C2722 1.415 . S
C2722 H2698 0.950 . S
C2722 C2717 1.363 . S
C2722 C2721 1.415 . S
C2723 H2699 0.951 . S
C2723 C2724 1.366 . S
C2723 C2725 1.388 . S
C2724 C2723 1.366 . S
C2724 C2728 1.385 . S
C2725 H2700 0.951 . S
C2725 C2723 1.388 . S
C2725 C2726 1.366 . S
C2726 C2725 1.366 . S
C2726 C2727 1.414 . S
C2726 C2729 1.499 . S
C2727 H2701 0.950 . S
C2727 C2726 1.414 . S
C2727 C2728 1.374 . S
C2728 H2702 0.950 . S
C2728 C2724 1.385 . S
C2728 C2727 1.374 . S
C2729 C2726 1.499 . S
C2729 C2730 1.373 . S
C2729 C2731 1.389 . S
C2730 H2703 0.950 . S
C2730 C2716 1.377 . S
C2730 C2729 1.373 . S
C2731 C2715 1.377 . S
C2731 C2729 1.389 . S
C2731 C2732 1.524 . S
C2732 C2731 1.524 . S
C2732 C2733 1.397 . S
C2732 C2737 1.363 . S
C2733 H2704 0.950 . S
C2733 C2732 1.397 . S
C2733 C2734 1.334 . S
C2734 H2705 0.950 . S
C2734 C2733 1.334 . S
C2734 C2735 1.287 . S
C2735 C2734 1.287 . S
C2735 C2736 1.524 . S
C2735 H2738 0.999 . S
C2736 H2706 0.950 . S
C2736 C2735 1.524 . S
C2736 C2737 1.415 . S
C2737 H2707 0.950 . S
C2737 C2732 1.363 . S
C2737 C2736 1.415 . S
H2738 C2735 0.999 . S
H2739 C2720 0.902 1_554 S
H2740 C2758 0.951 . S
H2741 C2760 0.951 . S
H2742 C2762 0.950 . S
H2743 C2763 0.950 . S
H2744 C2765 0.950 1_554 S
H2745 C2768 0.950 . S
H2746 C2769 0.950 . S
H2747 C2771 0.950 . S
H2748 C2772 0.950 . S
H2749 C2773 0.951 . S
H2750 C2775 0.951 1_554 S
H2751 C2777 0.950 . S
H2752 C2778 0.950 . S
H2753 C2780 0.950 . S
H2754 C2783 0.950 1_556 S
H2755 C2784 0.950 . S
H2756 C2786 0.950 . S
H2757 C2787 0.950 . S
C2758 H2740 0.951 . S
C2758 C2759 1.366 . S
C2758 C2760 1.388 . S
C2759 C2758 1.366 . S
C2759 C2763 1.385 1_556 S
C2760 H2741 0.951 . S
C2760 C2758 1.388 . S
C2760 C2761 1.366 . S
C2761 C2760 1.366 . S
C2761 C2762 1.414 1_556 S
C2761 C2764 1.499 . S
C2762 H2742 0.950 . S
C2762 C2761 1.414 1_554 S
C2762 C2763 1.374 . S
C2763 H2743 0.950 . S
C2763 C2759 1.385 1_554 S
C2763 C2762 1.374 . S
C2764 C2761 1.499 . S
C2764 C2765 1.373 . S
C2764 C2766 1.389 . S
C2765 H2744 0.950 1_556 S
C2765 C2764 1.373 . S
C2765 C2781 1.377 . S
C2766 C2764 1.389 . S
C2766 C2767 1.524 . S
C2766 C2780 1.377 . S
C2767 C2766 1.524 . S
C2767 C2768 1.397 . S
C2767 C2772 1.363 . S
C2768 H2745 0.950 . S
C2768 C2767 1.397 . S
C2768 C2769 1.334 . S
C2769 H2746 0.950 . S
C2769 C2768 1.334 . S
C2769 C2770 1.287 . S
C2770 C2769 1.287 . S
C2770 C2771 1.524 . S
C2770 H2789 0.913 . S
C2771 H2747 0.950 . S
C2771 C2770 1.524 . S
C2771 C2772 1.415 . S
C2772 H2748 0.950 . S
C2772 C2767 1.363 . S
C2772 C2771 1.415 . S
C2773 H2749 0.951 . S
C2773 C2774 1.366 . S
C2773 C2775 1.388 . S
C2774 C2773 1.366 . S
C2774 C2778 1.385 . S
C2775 H2750 0.951 1_556 S
C2775 C2773 1.388 . S
C2775 C2776 1.366 . S
C2776 C2775 1.366 . S
C2776 C2777 1.414 . S
C2776 C2779 1.499 . S
C2777 H2751 0.950 . S
C2777 C2776 1.414 . S
C2777 C2778 1.374 . S
C2778 H2752 0.950 . S
C2778 C2774 1.385 . S
C2778 C2777 1.374 . S
C2779 C2776 1.499 . S
C2779 C2780 1.373 . S
C2779 C2781 1.389 . S
C2780 H2753 0.950 . S
C2780 C2766 1.377 . S
C2780 C2779 1.373 . S
C2781 C2765 1.377 . S
C2781 C2779 1.389 . S
C2781 C2782 1.524 1_556 S
C2782 C2781 1.524 1_554 S
C2782 C2783 1.397 . S
C2782 C2787 1.363 . S
C2783 H2754 0.950 1_554 S
C2783 C2782 1.397 . S
C2783 C2784 1.334 . S
C2784 H2755 0.950 . S
C2784 C2783 1.334 . S
C2784 C2785 1.287 . S
C2785 C2784 1.287 . S
C2785 C2786 1.524 . S
C2785 H2788 0.999 . S
C2786 H2756 0.950 . S
C2786 C2785 1.524 . S
C2786 C2787 1.415 . S
C2787 H2757 0.950 . S
C2787 C2782 1.363 . S
C2787 C2786 1.415 . S
H2788 C2785 0.999 . S
H2789 C2770 0.913 . S
H2790 C2808 0.951 . S
H2791 C2810 0.951 . S
H2792 C2812 0.950 . S
H2793 C2813 0.950 . S
H2794 C2815 0.950 . S
H2795 C2818 0.950 . S
H2796 C2819 0.950 . S
H2797 C2821 0.950 . S
H2798 C2822 0.950 . S
H2799 C2823 0.951 . S
H2800 C2825 0.951 . S
H2801 C2827 0.950 . S
H2802 C2828 0.950 . S
H2803 C2830 0.950 . S
H2804 C2833 0.950 . S
H2805 C2834 0.950 . S
H2806 C2836 0.950 . S
H2807 C2837 0.950 . S
C2808 H2790 0.951 . S
C2808 C2809 1.366 . S
C2808 C2810 1.388 . S
C2809 C2808 1.366 . S
C2809 C2813 1.385 . S
C2810 H2791 0.951 . S
C2810 C2808 1.388 . S
C2810 C2811 1.366 . S
C2811 C2810 1.366 . S
C2811 C2812 1.414 . S
C2811 C2814 1.499 . S
C2812 H2792 0.950 . S
C2812 C2811 1.414 . S
C2812 C2813 1.374 . S
C2813 H2793 0.950 . S
C2813 C2809 1.385 . S
C2813 C2812 1.374 . S
C2814 C2811 1.499 . S
C2814 C2815 1.373 . S
C2814 C2816 1.389 . S
C2815 H2794 0.950 . S
C2815 C2814 1.373 . S
C2815 C2831 1.377 . S
C2816 C2814 1.389 . S
C2816 C2817 1.524 . S
C2816 C2830 1.377 . S
C2817 C2816 1.524 . S
C2817 C2818 1.397 . S
C2817 C2822 1.363 . S
C2818 H2795 0.950 . S
C2818 C2817 1.397 . S
C2818 C2819 1.334 . S
C2819 H2796 0.950 . S
C2819 C2818 1.334 . S
C2819 C2820 1.287 . S
C2820 C2819 1.287 . S
C2820 C2821 1.524 . S
C2820 H2839 0.913 . S
C2821 H2797 0.950 . S
C2821 C2820 1.524 . S
C2821 C2822 1.415 . S
C2822 H2798 0.950 . S
C2822 C2817 1.363 . S
C2822 C2821 1.415 . S
C2823 H2799 0.951 . S
C2823 C2824 1.366 . S
C2823 C2825 1.388 . S
C2824 C2823 1.366 . S
C2824 C2828 1.385 . S
C2825 H2800 0.951 . S
C2825 C2823 1.388 . S
C2825 C2826 1.366 . S
C2826 C2825 1.366 . S
C2826 C2827 1.414 . S
C2826 C2829 1.499 . S
C2827 H2801 0.950 . S
C2827 C2826 1.414 . S
C2827 C2828 1.374 . S
C2828 H2802 0.950 . S
C2828 C2824 1.385 . S
C2828 C2827 1.374 . S
C2829 C2826 1.499 . S
C2829 C2830 1.373 . S
C2829 C2831 1.389 . S
C2830 H2803 0.950 . S
C2830 C2816 1.377 . S
C2830 C2829 1.373 . S
C2831 C2815 1.377 . S
C2831 C2829 1.389 . S
C2831 C2832 1.524 . S
C2832 C2831 1.524 . S
C2832 C2833 1.397 . S
C2832 C2837 1.363 . S
C2833 H2804 0.950 . S
C2833 C2832 1.397 . S
C2833 C2834 1.334 . S
C2834 H2805 0.950 . S
C2834 C2833 1.334 . S
C2834 C2835 1.287 . S
C2835 C2834 1.287 . S
C2835 C2836 1.524 . S
C2835 H2838 0.999 . S
C2836 H2806 0.950 . S
C2836 C2835 1.524 . S
C2836 C2837 1.415 . S
C2837 H2807 0.950 . S
C2837 C2832 1.363 . S
C2837 C2836 1.415 . S
H2838 C2835 0.999 . S
H2839 C2820 0.913 . S
H2840 C2858 0.951 . S
H2841 C2860 0.951 . S
H2842 C2862 0.950 . S
H2843 C2863 0.950 . S
H2844 C2865 0.950 . S
H2845 C2868 0.950 . S
H2846 C2869 0.950 . S
H2847 C2871 0.950 . S
H2848 C2872 0.950 . S
H2849 C2873 0.951 . S
H2850 C2875 0.951 . S
H2851 C2877 0.950 . S
H2852 C2878 0.950 . S
H2853 C2880 0.950 . S
H2854 C2883 0.950 . S
H2855 C2884 0.950 . S
H2856 C2886 0.950 . S
H2857 C2887 0.950 . S
C2858 H2840 0.951 . S
C2858 C2859 1.366 . S
C2858 C2860 1.388 . S
C2859 C2858 1.366 . S
C2859 C2863 1.385 . S
C2860 H2841 0.951 . S
C2860 C2858 1.388 . S
C2860 C2861 1.366 . S
C2861 C2860 1.366 . S
C2861 C2862 1.414 . S
C2861 C2864 1.499 . S
C2862 H2842 0.950 . S
C2862 C2861 1.414 . S
C2862 C2863 1.374 . S
C2863 H2843 0.950 . S
C2863 C2859 1.385 . S
C2863 C2862 1.374 . S
C2864 C2861 1.499 . S
C2864 C2865 1.373 . S
C2864 C2866 1.389 . S
C2865 H2844 0.950 . S
C2865 C2864 1.373 . S
C2865 C2881 1.377 . S
C2866 C2864 1.389 . S
C2866 C2867 1.524 . S
C2866 C2880 1.377 . S
C2867 C2866 1.524 . S
C2867 C2868 1.397 . S
C2867 C2872 1.363 . S
C2868 H2845 0.950 . S
C2868 C2867 1.397 . S
C2868 C2869 1.334 . S
C2869 H2846 0.950 . S
C2869 C2868 1.334 . S
C2869 C2870 1.287 . S
C2870 C2869 1.287 . S
C2870 C2871 1.524 . S
C2870 H2889 0.913 . S
C2871 H2847 0.950 . S
C2871 C2870 1.524 . S
C2871 C2872 1.415 . S
C2872 H2848 0.950 . S
C2872 C2867 1.363 . S
C2872 C2871 1.415 . S
C2873 H2849 0.951 . S
C2873 C2874 1.366 . S
C2873 C2875 1.388 . S
C2874 C2873 1.366 . S
C2874 C2878 1.385 . S
C2875 H2850 0.951 . S
C2875 C2873 1.388 . S
C2875 C2876 1.366 . S
C2876 C2875 1.366 . S
C2876 C2877 1.414 . S
C2876 C2879 1.499 . S
C2877 H2851 0.950 . S
C2877 C2876 1.414 . S
C2877 C2878 1.374 . S
C2878 H2852 0.950 . S
C2878 C2874 1.385 . S
C2878 C2877 1.374 . S
C2879 C2876 1.499 . S
C2879 C2880 1.373 . S
C2879 C2881 1.389 . S
C2880 H2853 0.950 . S
C2880 C2866 1.377 . S
C2880 C2879 1.373 . S
C2881 C2865 1.377 . S
C2881 C2879 1.389 . S
C2881 C2882 1.524 . S
C2882 C2881 1.524 . S
C2882 C2883 1.397 . S
C2882 C2887 1.363 . S
C2883 H2854 0.950 . S
C2883 C2882 1.397 . S
C2883 C2884 1.334 . S
C2884 H2855 0.950 . S
C2884 C2883 1.334 . S
C2884 C2885 1.287 . S
C2885 C2884 1.287 . S
C2885 C2886 1.524 . S
C2885 H2888 0.999 . S
C2886 H2856 0.950 . S
C2886 C2885 1.524 . S
C2886 C2887 1.415 . S
C2887 H2857 0.950 . S
C2887 C2882 1.363 . S
C2887 C2886 1.415 . S
H2888 C2885 0.999 . S
H2889 C2870 0.913 . S
H2890 C2908 0.951 . S
H2891 C2910 0.951 . S
H2892 C2912 0.950 . S
H2893 C2913 0.950 . S
H2894 C2915 0.950 . S
H2895 C2918 0.950 . S
H2896 C2919 0.950 . S
H2897 C2921 0.950 . S
H2898 C2922 0.950 . S
H2899 C2923 0.951 . S
H2900 C2925 0.951 . S
H2901 C2927 0.950 . S
H2902 C2928 0.950 . S
H2903 C2930 0.950 . S
H2904 C2933 0.950 . S
H2905 C2934 0.950 . S
H2906 C2936 0.950 . S
H2907 C2937 0.950 . S
C2908 H2890 0.951 . S
C2908 C2909 1.366 . S
C2908 C2910 1.388 . S
C2909 C2908 1.366 . S
C2909 C2913 1.385 . S
C2910 H2891 0.951 . S
C2910 C2908 1.388 . S
C2910 C2911 1.366 . S
C2911 C2910 1.366 . S
C2911 C2912 1.414 . S
C2911 C2914 1.499 . S
C2912 H2892 0.950 . S
C2912 C2911 1.414 . S
C2912 C2913 1.374 . S
C2913 H2893 0.950 . S
C2913 C2909 1.385 . S
C2913 C2912 1.374 . S
C2914 C2911 1.499 . S
C2914 C2915 1.373 . S
C2914 C2916 1.389 . S
C2915 H2894 0.950 . S
C2915 C2914 1.373 . S
C2915 C2931 1.377 . S
C2916 C2914 1.389 . S
C2916 C2917 1.524 . S
C2916 C2930 1.377 . S
C2917 C2916 1.524 . S
C2917 C2918 1.397 . S
C2917 C2922 1.363 . S
C2918 H2895 0.950 . S
C2918 C2917 1.397 . S
C2918 C2919 1.334 . S
C2919 H2896 0.950 . S
C2919 C2918 1.334 . S
C2919 C2920 1.287 . S
C2920 C2919 1.287 . S
C2920 C2921 1.524 . S
C2920 H2939 0.913 . S
C2921 H2897 0.950 . S
C2921 C2920 1.524 . S
C2921 C2922 1.415 . S
C2922 H2898 0.950 . S
C2922 C2917 1.363 . S
C2922 C2921 1.415 . S
C2923 H2899 0.951 . S
C2923 C2924 1.366 . S
C2923 C2925 1.388 . S
C2924 C2923 1.366 . S
C2924 C2928 1.385 . S
C2925 H2900 0.951 . S
C2925 C2923 1.388 . S
C2925 C2926 1.366 . S
C2926 C2925 1.366 . S
C2926 C2927 1.414 . S
C2926 C2929 1.499 . S
C2927 H2901 0.950 . S
C2927 C2926 1.414 . S
C2927 C2928 1.374 . S
C2928 H2902 0.950 . S
C2928 C2924 1.385 . S
C2928 C2927 1.374 . S
C2929 C2926 1.499 . S
C2929 C2930 1.373 . S
C2929 C2931 1.389 . S
C2930 H2903 0.950 . S
C2930 C2916 1.377 . S
C2930 C2929 1.373 . S
C2931 C2915 1.377 . S
C2931 C2929 1.389 . S
C2931 C2932 1.524 . S
C2932 C2931 1.524 . S
C2932 C2933 1.397 . S
C2932 C2937 1.363 . S
C2933 H2904 0.950 . S
C2933 C2932 1.397 . S
C2933 C2934 1.334 . S
C2934 H2905 0.950 . S
C2934 C2933 1.334 . S
C2934 C2935 1.287 . S
C2935 C2934 1.287 . S
C2935 C2936 1.524 . S
C2935 H2938 0.999 . S
C2936 H2906 0.950 . S
C2936 C2935 1.524 . S
C2936 C2937 1.415 . S
C2937 H2907 0.950 . S
C2937 C2932 1.363 . S
C2937 C2936 1.415 . S
H2938 C2935 0.999 . S
H2939 C2920 0.913 . S
H2940 C2958 0.951 . S
H2941 C2960 0.951 . S
H2942 C2962 0.950 . S
H2943 C2963 0.950 . S
H2944 C2965 0.950 . S
H2945 C2968 0.950 . S
H2946 C2969 0.950 . S
H2947 C2971 0.950 . S
H2948 C2972 0.950 . S
H2949 C2973 0.951 . S
H2950 C2975 0.951 . S
H2951 C2977 0.950 . S
H2952 C2978 0.950 . S
H2953 C2980 0.950 . S
H2954 C2983 0.950 . S
H2955 C2984 0.950 . S
H2956 C2986 0.950 . S
H2957 C2987 0.950 . S
C2958 H2940 0.951 . S
C2958 C2959 1.366 . S
C2958 C2960 1.388 . S
C2959 C2958 1.366 . S
C2959 C2963 1.385 . S
C2960 H2941 0.951 . S
C2960 C2958 1.388 . S
C2960 C2961 1.366 . S
C2961 C2960 1.366 . S
C2961 C2962 1.414 . S
C2961 C2964 1.499 . S
C2962 H2942 0.950 . S
C2962 C2961 1.414 . S
C2962 C2963 1.374 . S
C2963 H2943 0.950 . S
C2963 C2959 1.385 . S
C2963 C2962 1.374 . S
C2964 C2961 1.499 . S
C2964 C2965 1.373 . S
C2964 C2966 1.389 . S
C2965 H2944 0.950 . S
C2965 C2964 1.373 . S
C2965 C2981 1.377 . S
C2966 C2964 1.389 . S
C2966 C2967 1.524 . S
C2966 C2980 1.377 . S
C2967 C2966 1.524 . S
C2967 C2968 1.397 . S
C2967 C2972 1.363 . S
C2968 H2945 0.950 . S
C2968 C2967 1.397 . S
C2968 C2969 1.334 . S
C2969 H2946 0.950 . S
C2969 C2968 1.334 . S
C2969 C2970 1.287 . S
C2970 C2969 1.287 . S
C2970 C2971 1.524 . S
C2970 H2989 0.913 . S
C2971 H2947 0.950 . S
C2971 C2970 1.524 . S
C2971 C2972 1.415 . S
C2972 H2948 0.950 . S
C2972 C2967 1.363 . S
C2972 C2971 1.415 . S
C2973 H2949 0.951 . S
C2973 C2974 1.366 . S
C2973 C2975 1.388 . S
C2974 C2973 1.366 . S
C2974 C2978 1.385 . S
C2975 H2950 0.951 . S
C2975 C2973 1.388 . S
C2975 C2976 1.366 . S
C2976 C2975 1.366 . S
C2976 C2977 1.414 . S
C2976 C2979 1.499 . S
C2977 H2951 0.950 . S
C2977 C2976 1.414 . S
C2977 C2978 1.374 . S
C2978 H2952 0.950 . S
C2978 C2974 1.385 . S
C2978 C2977 1.374 . S
C2979 C2976 1.499 . S
C2979 C2980 1.373 . S
C2979 C2981 1.389 . S
C2980 H2953 0.950 . S
C2980 C2966 1.377 . S
C2980 C2979 1.373 . S
C2981 C2965 1.377 . S
C2981 C2979 1.389 . S
C2981 C2982 1.524 . S
C2982 C2981 1.524 . S
C2982 C2983 1.397 . S
C2982 C2987 1.363 . S
C2983 H2954 0.950 . S
C2983 C2982 1.397 . S
C2983 C2984 1.334 . S
C2984 H2955 0.950 . S
C2984 C2983 1.334 . S
C2984 C2985 1.287 . S
C2985 C2984 1.287 . S
C2985 C2986 1.524 . S
C2985 H2988 0.999 . S
C2986 H2956 0.950 . S
C2986 C2985 1.524 . S
C2986 C2987 1.415 . S
C2987 H2957 0.950 . S
C2987 C2982 1.363 . S
C2987 C2986 1.415 . S
H2988 C2985 0.999 . S
H2989 C2970 0.913 . S
H2990 C3008 0.951 . S
H2991 C3010 0.951 . S
H2992 C3012 0.950 . S
H2993 C3013 0.950 . S
H2994 C3015 0.950 . S
H2995 C3018 0.950 . S
H2996 C3019 0.950 . S
H2997 C3021 0.941 1_556 S
H2998 C3022 0.950 . S
H2999 C3023 0.951 . S
H3000 C3025 0.951 . S
H3001 C3027 0.950 . S
H3002 C3028 0.950 . S
H3003 C3030 0.950 . S
H3004 C3033 0.950 . S
H3005 C3034 0.950 . S
H3006 C3036 0.950 . S
H3007 C3037 0.950 . S
C3008 H2990 0.951 . S
C3008 C3009 1.366 . S
C3008 C3010 1.388 . S
C3009 C3008 1.366 . S
C3009 C3013 1.385 . S
C3010 H2991 0.951 . S
C3010 C3008 1.388 . S
C3010 C3011 1.366 . S
C3011 C3010 1.366 . S
C3011 C3012 1.414 . S
C3011 C3014 1.499 . S
C3012 H2992 0.950 . S
C3012 C3011 1.414 . S
C3012 C3013 1.374 . S
C3013 H2993 0.950 . S
C3013 C3009 1.385 . S
C3013 C3012 1.374 . S
C3014 C3011 1.499 . S
C3014 C3015 1.373 . S
C3014 C3016 1.389 . S
C3015 H2994 0.950 . S
C3015 C3014 1.373 . S
C3015 C3031 1.377 . S
C3016 C3014 1.389 . S
C3016 C3017 1.524 . S
C3016 C3030 1.377 . S
C3017 C3016 1.524 . S
C3017 C3018 1.397 . S
C3017 C3022 1.363 . S
C3018 H2995 0.950 . S
C3018 C3017 1.397 . S
C3018 C3019 1.334 . S
C3019 H2996 0.950 . S
C3019 C3018 1.334 . S
C3019 C3020 1.287 . S
C3020 C3019 1.287 . S
C3020 C3021 1.525 . S
C3020 H3039 0.913 1_554 S
C3021 H2997 0.941 1_554 S
C3021 C3020 1.525 . S
C3021 C3022 1.424 . S
C3022 H2998 0.950 . S
C3022 C3017 1.363 . S
C3022 C3021 1.424 . S
C3023 H2999 0.951 . S
C3023 C3024 1.366 . S
C3023 C3025 1.388 . S
C3024 C3023 1.366 . S
C3024 C3028 1.385 . S
C3025 H3000 0.951 . S
C3025 C3023 1.388 . S
C3025 C3026 1.366 . S
C3026 C3025 1.366 . S
C3026 C3027 1.414 . S
C3026 C3029 1.499 . S
C3027 H3001 0.950 . S
C3027 C3026 1.414 . S
C3027 C3028 1.374 . S
C3028 H3002 0.950 . S
C3028 C3024 1.385 . S
C3028 C3027 1.374 . S
C3029 C3026 1.499 . S
C3029 C3030 1.373 . S
C3029 C3031 1.389 . S
C3030 H3003 0.950 . S
C3030 C3016 1.377 . S
C3030 C3029 1.373 . S
C3031 C3015 1.377 . S
C3031 C3029 1.389 . S
C3031 C3032 1.524 . S
C3032 C3031 1.524 . S
C3032 C3033 1.397 . S
C3032 C3037 1.363 . S
C3033 H3004 0.950 . S
C3033 C3032 1.397 . S
C3033 C3034 1.334 . S
C3034 H3005 0.950 . S
C3034 C3033 1.334 . S
C3034 C3035 1.287 . S
C3035 C3034 1.287 . S
C3035 C3036 1.524 . S
C3035 H3038 0.999 . S
C3036 H3006 0.950 . S
C3036 C3035 1.524 . S
C3036 C3037 1.415 . S
C3037 H3007 0.950 . S
C3037 C3032 1.363 . S
C3037 C3036 1.415 . S
H3038 C3035 0.999 . S
H3039 C3020 0.913 1_556 S
C659 C11 0.963 . S
C674 C56 0.948 . S
C709 C91 1.794 . S
C724 C42 1.776 . S
C759 C122 2.061 . S
C774 C99 2.060 . S
C809 C19 1.037 . S
C824 C136 1.032 . S
C859 C10 1.036 . S
C874 C367 1.028 . S
C909 C282 0.963 . S
C924 C47 0.947 . S
C959 C82 1.794 . S
C974 C411 1.775 . S
C1009 C131 2.061 . S
C1024 C530 2.061 . S
C1059 C322 1.794 . S
C1074 C51 1.773 . S
C1109 C491 2.060 . S
C1124 C90 2.061 . S
C1159 C570 1.037 . S
C1174 C127 1.030 . S
C1209 C2 0.963 . S
C1224 C447 0.949 . S
C1259 C16 0.610 . S
C1274 C327 0.583 . S
C1309 C499 1.458 . S
C1324 C170 1.461 . S
C1359 C216 0.581 . S
C1374 C567 0.609 . S
C1409 C450 1.461 . S
C1424 C259 1.457 . S
C1459 C96 0.581 . S
C1474 C287 0.609 . S
C1509 C370 1.458 . S
C1524 C179 1.461 . S
C1559 C250 1.458 . S
C1574 C419 1.461 . S
C1609 C202 1.794 . S
C1624 C451 1.774 . S
C1659 C371 2.061 . S
C1674 C210 2.061 . S
C1709 C456 0.949 . S
C1724 C291 0.964 . S
C1759 C211 1.794 . S
C1774 C162 1.775 . S
C1809 C362 2.061 . S
C1824 C339 2.060 . S
C1859 C531 1.794 . S
C1874 C442 1.776 . S
C1909 C242 2.061 . S
C1924 C219 2.060 . S
C1959 C376 1.030 . S
C1974 C579 1.036 . S
C2009 C536 0.581 . S
C2024 C7 0.608 . S
C2059 C87 0.581 . S
C2074 C576 0.609 . S
C2109 C490 1.458 . S
C2124 C59 1.462 . S
C2159 C296 0.611 . S
C2174 C207 0.582 . S
C2209 C139 1.458 . S
C2224 C410 1.461 . S
C2259 C482 2.060 . S
C2274 C539 2.061 . S
C2309 C299 1.037 . S
C2324 C496 1.030 . S
C2359 C247 1.031 . S
C2374 C290 1.036 . S
C2409 C171 1.775 . S
C2424 C522 1.794 . S
C2459 C487 1.031 . S
C2474 C610 1.037 . S
C2509 C607 0.611 . S
C2524 C336 0.582 . S
C2559 C50 1.462 . S
C2574 C379 1.456 . S
C2609 C330 2.061 . S
C2624 C251 2.061 . S
C2659 C331 1.794 . S
C2674 C402 1.775 . S
C2709 C619 1.037 . S
C2724 C256 1.030 . S
C2759 C527 0.581 . S
C2774 C616 0.611 . S
C2809 C459 1.461 . S
C2824 C130 1.459 . S
C2859 C416 0.947 . S
C2874 C571 0.963 . S
C2909 C407 0.948 . S
C2924 C602 0.963 . S
C2959 C167 0.948 . S
C2974 C562 0.963 . S
C3009 C611 0.964 . S
C3024 C176 0.949 . S
