# Generated by pormake.
# Topology umm, (4)-cn, num edge types: 1
# Building blocks:
#     Node 0, Type 0, BuildingBlock: KOZSID_clean_sbu_0, # of connection points: 4
#     Node 1, Type 0, BuildingBlock: KOZSID_clean_sbu_0, # of connection points: 4
#     Node 2, Type 0, BuildingBlock: KOZSID_clean_sbu_0, # of connection points: 4
#     Node 3, Type 0, BuildingBlock: KOZSID_clean_sbu_0, # of connection points: 4
#     Node 4, Type 0, BuildingBlock: KOZSID_clean_sbu_0, # of connection points: 4
#     Node 5, Type 0, BuildingBlock: KOZSID_clean_sbu_0, # of connection points: 4
#     Node 6, Type 0, BuildingBlock: KOZSID_clean_sbu_0, # of connection points: 4
#     Node 7, Type 0, BuildingBlock: KOZSID_clean_sbu_0, # of connection points: 4
#     Node 8, Type 0, BuildingBlock: KOZSID_clean_sbu_0, # of connection points: 4
#     Node 9, Type 0, BuildingBlock: KOZSID_clean_sbu_0, # of connection points: 4
#     Node 10, Type 0, BuildingBlock: KOZSID_clean_sbu_0, # of connection points: 4
#     Node 11, Type 0, BuildingBlock: KOZSID_clean_sbu_0, # of connection points: 4
#     Edge 12, Type (0, 0), BuildingBlock: CIFDUS_clean_linker_0, # of connection points: 2
#     Edge 13, Type (0, 0), BuildingBlock: CIFDUS_clean_linker_0, # of connection points: 2
#     Edge 14, Type (0, 0), BuildingBlock: CIFDUS_clean_linker_0, # of connection points: 2
#     Edge 15, Type (0, 0), BuildingBlock: CIFDUS_clean_linker_0, # of connection points: 2
#     Edge 16, Type (0, 0), BuildingBlock: CIFDUS_clean_linker_0, # of connection points: 2
#     Edge 17, Type (0, 0), BuildingBlock: CIFDUS_clean_linker_0, # of connection points: 2
#     Edge 18, Type (0, 0), BuildingBlock: CIFDUS_clean_linker_0, # of connection points: 2
#     Edge 19, Type (0, 0), BuildingBlock: CIFDUS_clean_linker_0, # of connection points: 2
#     Edge 20, Type (0, 0), BuildingBlock: CIFDUS_clean_linker_0, # of connection points: 2
#     Edge 21, Type (0, 0), BuildingBlock: CIFDUS_clean_linker_0, # of connection points: 2
#     Edge 22, Type (0, 0), BuildingBlock: CIFDUS_clean_linker_0, # of connection points: 2
#     Edge 23, Type (0, 0), BuildingBlock: CIFDUS_clean_linker_0, # of connection points: 2
#     Edge 24, Type (0, 0), BuildingBlock: CIFDUS_clean_linker_0, # of connection points: 2
#     Edge 25, Type (0, 0), BuildingBlock: CIFDUS_clean_linker_0, # of connection points: 2
#     Edge 26, Type (0, 0), BuildingBlock: CIFDUS_clean_linker_0, # of connection points: 2
#     Edge 27, Type (0, 0), BuildingBlock: CIFDUS_clean_linker_0, # of connection points: 2
#     Edge 28, Type (0, 0), BuildingBlock: CIFDUS_clean_linker_0, # of connection points: 2
#     Edge 29, Type (0, 0), BuildingBlock: CIFDUS_clean_linker_0, # of connection points: 2
#     Edge 30, Type (0, 0), BuildingBlock: CIFDUS_clean_linker_0, # of connection points: 2
#     Edge 31, Type (0, 0), BuildingBlock: CIFDUS_clean_linker_0, # of connection points: 2
#     Edge 32, Type (0, 0), BuildingBlock: CIFDUS_clean_linker_0, # of connection points: 2
#     Edge 33, Type (0, 0), BuildingBlock: CIFDUS_clean_linker_0, # of connection points: 2
#     Edge 34, Type (0, 0), BuildingBlock: CIFDUS_clean_linker_0, # of connection points: 2
#     Edge 35, Type (0, 0), BuildingBlock: CIFDUS_clean_linker_0, # of connection points: 2
# Relax obj value: 0.061
# Max RMSD: 0.164
# Mean RMSD: 0.164
data_MOF--net-umm--node1-KOZSID_clean_sbu_0--edge1-CIFDUS_clean_linker_0
_symmetry_space_group_name_H-M    P1
_symmetry_Int_Tables_number       1
_symmetry_cell_setting            triclinic
loop_
_symmetry_equiv_pos_as_xyz
'x, y, z'
_cell_length_a     54.954
_cell_length_b     55.007569
_cell_length_c     34.513948
_cell_angle_alpha  90.110967
_cell_angle_beta   89.937948
_cell_angle_gamma 120.07717
loop_
_atom_site_label
_atom_site_type_symbol
_atom_site_fract_x
_atom_site_fract_y
_atom_site_fract_z
_atom_type_partial_charge
C0 C 0.34933 0.54913 0.09005 0.0
C1 C 0.32125 0.52843 0.09321 0.0
C2 C 0.32086 0.50511 0.10794 0.0
C3 C 0.34859 0.51279 0.11283 0.0
N4 N 0.36638 0.53946 0.10215 0.0
Co5 Co 0.40805 0.55863 0.10356 0.0
N6 N 0.40762 0.52226 0.10496 0.0
C7 C 0.38524 0.49725 0.11441 0.0
C8 C 0.391 0.47572 0.1143 0.0
C9 C 0.41884 0.48793 0.10471 0.0
C10 C 0.42864 0.51642 0.09943 0.0
N11 N 0.44975 0.57785 0.10559 0.0
C12 C 0.46743 0.56751 0.10059 0.0
C13 C 0.4952 0.58867 0.10531 0.0
C14 C 0.49472 0.61269 0.11462 0.0
C15 C 0.46681 0.60508 0.11484 0.0
N16 N 0.40791 0.59465 0.10153 0.0
C17 C 0.42937 0.61999 0.11157 0.0
C18 C 0.42326 0.64112 0.10612 0.0
C19 C 0.39627 0.62816 0.09175 0.0
C20 C 0.38743 0.59978 0.08916 0.0
N21 N 0.4075 0.5595 0.16088 0.0
C22 C 0.41321 0.56698 0.2421 0.0
C23 C 0.39578 0.57407 0.22102 0.0
C24 C 0.39293 0.56983 0.18058 0.0
C25 C 0.42706 0.55547 0.22158 0.0
C26 C 0.42406 0.55204 0.18141 0.0
N27 N 0.40945 0.55859 0.0467 0.0
C28 C 0.43064 0.58385 0.98775 0.0
C29 C 0.4122 0.56067 0.9653 0.0
C30 C 0.39217 0.53629 0.98458 0.0
C31 C 0.3913 0.5356 0.02532 0.0
C32 C 0.42884 0.58244 0.02805 0.0
H33 H 0.37592 0.51658 0.03953 0.0
H34 H 0.44312 0.60094 0.04408 0.0
H35 H 0.37941 0.57549 0.16515 0.0
H36 H 0.43596 0.54405 0.16698 0.0
C37 C 0.35861 0.49428 0.1191 0.0
C38 C 0.35906 0.57796 0.07699 0.0
C39 C 0.45865 0.53754 0.0951 0.0
C40 C 0.45611 0.62346 0.11843 0.0
H41 H 0.30296 0.52987 0.08534 0.0
H42 H 0.30258 0.48458 0.11239 0.0
H43 H 0.37663 0.45372 0.12014 0.0
H44 H 0.43071 0.47712 0.10322 0.0
H45 H 0.51386 0.58685 0.10292 0.0
H46 H 0.51265 0.63336 0.11973 0.0
H47 H 0.43718 0.66345 0.11025 0.0
H48 H 0.3845 0.63836 0.08393 0.0
H49 H 0.38434 0.5827 0.23564 0.0
H50 H 0.44093 0.54986 0.23633 0.0
H51 H 0.44611 0.6033 0.97426 0.0
H52 H 0.37752 0.51782 0.96837 0.0
C53 C 0.80471 0.34784 0.41816 0.0
C54 C 0.79729 0.31974 0.41702 0.0
C55 C 0.82024 0.31844 0.42982 0.0
C56 C 0.84034 0.34572 0.4379 0.0
N57 N 0.8314 0.36402 0.43105 0.0
Co58 Co 0.85366 0.4053 0.43798 0.0
N59 N 0.88966 0.40507 0.43655 0.0
C60 C 0.89256 0.38241 0.44197 0.0
C61 C 0.91988 0.38838 0.43858 0.0
C62 C 0.93516 0.4166 0.43102 0.0
C63 C 0.91626 0.42642 0.43062 0.0
N64 N 0.87589 0.44656 0.44501 0.0
C65 C 0.90375 0.46462 0.43917 0.0
C66 C 0.91063 0.4918 0.44898 0.0
C67 C 0.88625 0.49052 0.46156 0.0
C68 C 0.86582 0.46269 0.45886 0.0
N69 N 0.81738 0.40495 0.43938 0.0
C70 C 0.81332 0.42528 0.45412 0.0
C71 C 0.78602 0.41941 0.4495 0.0
C72 C 0.77224 0.39383 0.43078 0.0
C73 C 0.79196 0.38554 0.42492 0.0
N74 N 0.85225 0.40089 0.49471 0.0
C75 C 0.85003 0.4033 0.57593 0.0
C76 C 0.82558 0.38666 0.5543 0.0
C77 C 0.82722 0.38532 0.51376 0.0
C78 C 0.87565 0.41763 0.55619 0.0
C79 C 0.87629 0.41634 0.51585 0.0
N80 N 0.85532 0.41088 0.38182 0.0
C81 C 0.84954 0.43521 0.328 0.0
C82 C 0.86096 0.42383 0.30225 0.0
C83 C 0.86863 0.40484 0.3175 0.0
C84 C 0.86516 0.39828 0.35719 0.0
C85 C 0.84767 0.42915 0.36727 0.0
H86 H 0.871 0.38354 0.36808 0.0
H87 H 0.84025 0.43973 0.3859 0.0
H88 H 0.80809 0.37251 0.49772 0.0
H89 H 0.89627 0.42893 0.50181 0.0
C90 C 0.86894 0.35544 0.4438 0.0
C91 C 0.78591 0.35854 0.40788 0.0
C92 C 0.9245 0.45628 0.42807 0.0
C93 C 0.83665 0.45154 0.46373 0.0
H94 H 0.77755 0.30208 0.40758 0.0
H95 H 0.8225 0.3 0.43094 0.0
H96 H 0.92767 0.37381 0.43999 0.0
H97 H 0.95766 0.4285 0.42664 0.0
H98 H 0.93119 0.5105 0.44776 0.0
H99 H 0.88366 0.50793 0.47066 0.0
H100 H 0.77746 0.43277 0.45692 0.0
H101 H 0.75033 0.38261 0.42231 0.0
H102 H 0.80538 0.37491 0.56856 0.0
H103 H 0.89504 0.43078 0.57174 0.0
H104 H 0.84201 0.44895 0.31833 0.0
H105 H 0.87771 0.3954 0.29937 0.0
C106 C 0.46202 0.80148 0.75671 0.0
C107 C 0.48384 0.79563 0.75502 0.0
C108 C 0.50796 0.82004 0.76323 0.0
C109 C 0.49965 0.83944 0.76898 0.0
N110 N 0.47164 0.8289 0.76577 0.0
Co111 Co 0.45166 0.85103 0.76645 0.0
N112 N 0.48777 0.88761 0.77314 0.0
C113 C 0.51346 0.89068 0.77911 0.0
C114 C 0.53455 0.91804 0.78235 0.0
C115 C 0.52162 0.9335 0.77823 0.0
C116 C 0.49313 0.91457 0.77296 0.0
N117 N 0.43192 0.87339 0.76401 0.0
C118 C 0.44246 0.90169 0.76276 0.0
C119 C 0.42115 0.90806 0.75867 0.0
C120 C 0.39644 0.88303 0.75663 0.0
C121 C 0.40395 0.86279 0.75954 0.0
N122 N 0.41547 0.8142 0.76215 0.0
C123 C 0.38925 0.81055 0.76354 0.0
C124 C 0.3685 0.78304 0.75894 0.0
C125 C 0.3823 0.76836 0.75383 0.0
C126 C 0.41081 0.78781 0.75533 0.0
N127 N 0.44773 0.84817 0.82407 0.0
C128 C 0.44303 0.84889 0.90545 0.0
C129 C 0.42253 0.84845 0.88145 0.0
C130 C 0.42512 0.84784 0.84145 0.0
C131 C 0.4655 0.84776 0.88837 0.0
C132 C 0.46751 0.8475 0.84772 0.0
N133 N 0.45504 0.85413 0.7093 0.0
C134 C 0.43208 0.84626 0.64733 0.0
C135 C 0.45757 0.86395 0.62891 0.0
C136 C 0.48218 0.87522 0.65123 0.0
C137 C 0.48049 0.86969 0.69114 0.0
C138 C 0.43124 0.84212 0.68699 0.0
H139 H 0.49987 0.87863 0.7069 0.0
H140 H 0.41077 0.82948 0.69878 0.0
H141 H 0.40858 0.84761 0.82546 0.0
H142 H 0.4854 0.84724 0.8362 0.0
C143 C 0.51771 0.86787 0.77593 0.0
C144 C 0.43267 0.7805 0.74837 0.0
C145 C 0.4723 0.92329 0.76605 0.0
C146 C 0.38524 0.83372 0.76069 0.0
H147 H 0.48271 0.77597 0.74771 0.0
H148 H 0.52914 0.82345 0.76374 0.0
H149 H 0.55687 0.92588 0.78545 0.0
H150 H 0.53231 0.95619 0.7779 0.0
H151 H 0.42323 0.92868 0.75754 0.0
H152 H 0.37548 0.87997 0.75374 0.0
H153 H 0.34606 0.77489 0.75692 0.0
H154 H 0.37256 0.74606 0.74809 0.0
H155 H 0.4046 0.84898 0.8936 0.0
H156 H 0.48185 0.84801 0.90617 0.0
H157 H 0.41249 0.83571 0.6314 0.0
H158 H 0.50259 0.88873 0.63837 0.0
C159 C 0.66556 0.45551 0.08568 0.0
C160 C 0.69385 0.47595 0.08641 0.0
C161 C 0.6953 0.49998 0.1004 0.0
C162 C 0.66794 0.49297 0.10735 0.0
N163 N 0.64941 0.46604 0.09858 0.0
Co164 Co 0.60795 0.44756 0.10339 0.0
N165 N 0.60911 0.4842 0.10417 0.0
C166 C 0.63199 0.50935 0.11143 0.0
C167 C 0.62672 0.53118 0.10927 0.0
C168 C 0.59871 0.51901 0.1005 0.0
C169 C 0.5883 0.49023 0.09821 0.0
N170 N 0.5665 0.42915 0.10863 0.0
C171 C 0.54908 0.43968 0.10298 0.0
C172 C 0.52149 0.41957 0.11139 0.0
C173 C 0.52184 0.39581 0.12285 0.0
C174 C 0.54955 0.40266 0.12094 0.0
N175 N 0.60719 0.41112 0.10227 0.0
C176 C 0.58597 0.38647 0.11497 0.0
C177 C 0.59141 0.3648 0.11014 0.0
C178 C 0.61769 0.37672 0.09348 0.0
C179 C 0.62686 0.40506 0.08901 0.0
N180 N 0.61094 0.44826 0.1604 0.0
C181 C 0.60469 0.43668 0.24055 0.0
C182 C 0.62339 0.43213 0.21808 0.0
C183 C 0.6264 0.43829 0.1783 0.0
C184 C 0.59089 0.4492 0.22233 0.0
C185 C 0.59436 0.45488 0.1825 0.0
N186 N 0.60411 0.44567 0.04685 0.0
C187 C 0.5813 0.41719 0.99088 0.0
C188 C 0.59992 0.43851 0.96607 0.0
C189 C 0.62007 0.46418 0.98263 0.0
C190 C 0.62181 0.46734 0.02321 0.0
C191 C 0.58381 0.4211 0.03075 0.0
H192 H 0.63778 0.48698 0.03549 0.0
H193 H 0.56955 0.40374 0.04856 0.0
H194 H 0.64019 0.4336 0.16166 0.0
H195 H 0.58227 0.46315 0.16928 0.0
C196 C 0.65864 0.51205 0.11403 0.0
C197 C 0.65488 0.42608 0.07453 0.0
C198 C 0.55835 0.46918 0.09342 0.0
C199 C 0.55987 0.38392 0.12445 0.0
H200 H 0.71159 0.47383 0.07753 0.0
H201 H 0.71395 0.52047 0.10315 0.0
H202 H 0.64165 0.5534 0.11226 0.0
H203 H 0.58736 0.53017 0.09651 0.0
H204 H 0.50314 0.42197 0.10995 0.0
H205 H 0.50392 0.37574 0.13057 0.0
H206 H 0.5775 0.34278 0.11642 0.0
H207 H 0.62885 0.36588 0.0856 0.0
H208 H 0.63514 0.42321 0.23089 0.0
H209 H 0.57625 0.45321 0.23818 0.0
H210 H 0.56489 0.39727 0.97961 0.0
H211 H 0.63486 0.48133 0.96455 0.0
C212 C 0.21144 0.66601 0.41983 0.0
C213 C 0.21862 0.69404 0.42146 0.0
C214 C 0.19624 0.69467 0.4381 0.0
C215 C 0.17672 0.66709 0.44556 0.0
N216 N 0.18545 0.64924 0.43468 0.0
Co217 Co 0.16381 0.60778 0.43942 0.0
N218 N 0.12766 0.60755 0.44378 0.0
C219 C 0.12497 0.62983 0.4535 0.0
C220 C 0.0975 0.62349 0.4558 0.0
C221 C 0.08189 0.59541 0.44744 0.0
C222 C 0.1008 0.58609 0.44034 0.0
N223 N 0.14217 0.56629 0.44422 0.0
C224 C 0.11409 0.54811 0.44072 0.0
C225 C 0.10814 0.52067 0.44637 0.0
C226 C 0.1332 0.52195 0.45467 0.0
C227 C 0.15315 0.54996 0.45336 0.0
N228 N 0.20024 0.60858 0.43515 0.0
C229 C 0.20516 0.58801 0.44611 0.0
C230 C 0.23228 0.59438 0.43818 0.0
C231 C 0.24504 0.62055 0.42124 0.0
C232 C 0.22491 0.62866 0.41969 0.0
N233 N 0.16796 0.61068 0.49625 0.0
C234 C 0.17498 0.60701 0.57662 0.0
C235 C 0.19771 0.62536 0.55302 0.0
C236 C 0.19372 0.62703 0.5131 0.0
C237 C 0.14843 0.59189 0.55915 0.0
C238 C 0.14541 0.59394 0.51928 0.0
N239 N 0.15968 0.60397 0.38296 0.0
C240 C 0.16499 0.58324 0.32441 0.0
C241 C 0.1542 0.59686 0.30185 0.0
C242 C 0.14641 0.6145 0.32138 0.0
C243 C 0.14973 0.61809 0.36174 0.0
C244 C 0.16684 0.58647 0.36447 0.0
H245 H 0.14409 0.63211 0.37583 0.0
H246 H 0.17434 0.57476 0.3804 0.0
H247 H 0.21173 0.64075 0.49561 0.0
H248 H 0.12481 0.58108 0.50699 0.0
C249 C 0.14851 0.65687 0.45515 0.0
C250 C 0.22995 0.65596 0.40545 0.0
C251 C 0.09244 0.55631 0.43544 0.0
C252 C 0.18248 0.5613 0.45519 0.0
H253 H 0.23785 0.71209 0.41147 0.0
H254 H 0.19394 0.71291 0.44233 0.0
H255 H 0.08971 0.63765 0.4621 0.0
H256 H 0.05917 0.58314 0.44765 0.0
H257 H 0.0878 0.50172 0.44512 0.0
H258 H 0.13652 0.50444 0.45997 0.0
H259 H 0.24129 0.581 0.44219 0.0
H260 H 0.26652 0.63225 0.41099 0.0
H261 H 0.21867 0.63762 0.56489 0.0
H262 H 0.12996 0.57814 0.57601 0.0
H263 H 0.17242 0.5702 0.31161 0.0
H264 H 0.13757 0.62536 0.30597 0.0
C265 C 0.55643 0.21323 0.75193 0.0
C266 C 0.53591 0.22095 0.75228 0.0
C267 C 0.51219 0.19886 0.76778 0.0
C268 C 0.51937 0.17884 0.77581 0.0
N269 N 0.5461 0.1869 0.76622 0.0
Co270 Co 0.56446 0.16387 0.77198 0.0
N271 N 0.52763 0.12844 0.77567 0.0
C272 C 0.50283 0.12669 0.7838 0.0
C273 C 0.48088 0.09958 0.78552 0.0
C274 C 0.4926 0.08314 0.77845 0.0
C275 C 0.52121 0.10123 0.77274 0.0
N276 N 0.58278 0.14082 0.77839 0.0
C277 C 0.57186 0.11254 0.77583 0.0
C278 C 0.59245 0.10556 0.78313 0.0
C279 C 0.61675 0.13018 0.79137 0.0
C280 C 0.60984 0.15088 0.78848 0.0
N281 N 0.60106 0.19946 0.76767 0.0
C282 C 0.62611 0.20319 0.77897 0.0
C283 C 0.64779 0.23002 0.77216 0.0
C284 C 0.63551 0.24399 0.75568 0.0
C285 C 0.60695 0.22485 0.75326 0.0
N286 N 0.56531 0.16845 0.82864 0.0
C287 C 0.57613 0.17593 0.90871 0.0
C288 C 0.58203 0.1988 0.88471 0.0
C289 C 0.57611 0.19457 0.84492 0.0
C290 C 0.56326 0.1491 0.892 0.0
C291 C 0.5581 0.14583 0.85216 0.0
N292 N 0.5645 0.15948 0.71578 0.0
C293 C 0.5902 0.16141 0.65831 0.0
C294 C 0.56775 0.15747 0.635 0.0
C295 C 0.54327 0.15395 0.653 0.0
C296 C 0.54196 0.15474 0.69353 0.0
C297 C 0.58823 0.1625 0.69838 0.0
H298 H 0.523 0.15204 0.70686 0.0
H299 H 0.60633 0.16652 0.71517 0.0
H300 H 0.58133 0.21263 0.82709 0.0
H301 H 0.54942 0.12501 0.84026 0.0
C302 C 0.50042 0.15079 0.78476 0.0
C303 C 0.58576 0.23191 0.73991 0.0
C304 C 0.54183 0.09168 0.76979 0.0
C305 C 0.62879 0.17997 0.78937 0.0
H306 H 0.53775 0.24041 0.74219 0.0
H307 H 0.49176 0.19709 0.77091 0.0
H308 H 0.4589 0.09257 0.79062 0.0
H309 H 0.4814 0.06041 0.77858 0.0
H310 H 0.5901 0.08482 0.78297 0.0
H311 H 0.63719 0.13271 0.79763 0.0
H312 H 0.66999 0.23819 0.77715 0.0
H313 H 0.64626 0.26575 0.74663 0.0
H314 H 0.59152 0.21987 0.89647 0.0
H315 H 0.55838 0.13078 0.90926 0.0
H316 H 0.60966 0.16465 0.64565 0.0
H317 H 0.52537 0.15072 0.63591 0.0
C318 C 0.46049 0.66747 0.62486 0.0
C319 C 0.47908 0.69623 0.62644 0.0
C320 C 0.50461 0.70039 0.61427 0.0
C321 C 0.50021 0.67409 0.60585 0.0
N322 N 0.47348 0.65365 0.6118 0.0
Co323 Co 0.45823 0.61287 0.60285 0.0
N324 N 0.49629 0.61707 0.60401 0.0
C325 C 0.52078 0.64163 0.60546 0.0
C326 C 0.5425 0.63869 0.61928 0.0
C327 C 0.53115 0.61057 0.62591 0.0
C328 C 0.50338 0.59743 0.6133 0.0
N329 N 0.44313 0.57223 0.59227 0.0
C330 C 0.45659 0.55708 0.59039 0.0
C331 C 0.4399 0.53199 0.57059 0.0
C332 C 0.41503 0.53086 0.56195 0.0
C333 C 0.41796 0.55559 0.57547 0.0
N334 N 0.42024 0.60886 0.6034 0.0
C335 C 0.39686 0.58727 0.58837 0.0
C336 C 0.37355 0.59006 0.59352 0.0
C337 C 0.38303 0.6151 0.61295 0.0
C338 C 0.41166 0.6262 0.61848 0.0
N339 N 0.46076 0.61915 0.54621 0.0
C340 C 0.45185 0.61568 0.46526 0.0
C341 C 0.44328 0.6308 0.48906 0.0
C342 C 0.44814 0.63249 0.52922 0.0
C343 C 0.4671 0.60444 0.48278 0.0
C344 C 0.47151 0.6066 0.52295 0.0
N345 N 0.45487 0.60586 0.65893 0.0
C346 C 0.42855 0.57688 0.71315 0.0
C347 C 0.44917 0.59525 0.73929 0.0
C348 C 0.47263 0.61922 0.72397 0.0
C349 C 0.47515 0.62402 0.68395 0.0
C350 C 0.4317 0.58264 0.67337 0.0
H351 H 0.49351 0.64252 0.67335 0.0
H352 H 0.41528 0.56819 0.65425 0.0
H353 H 0.44035 0.64339 0.54675 0.0
H354 H 0.48246 0.59681 0.53528 0.0
C355 C 0.52137 0.66726 0.60312 0.0
C356 C 0.43064 0.65412 0.63515 0.0
C357 C 0.48579 0.56692 0.60427 0.0
C358 C 0.39738 0.56362 0.57421 0.0
H359 H 0.47484 0.71246 0.63618 0.0
H360 H 0.52441 0.72002 0.61435 0.0
H361 H 0.56355 0.6552 0.62652 0.0
H362 H 0.54236 0.60107 0.63859 0.0
H363 H 0.44527 0.51649 0.56137 0.0
H364 H 0.39721 0.51424 0.54676 0.0
H365 H 0.35211 0.57536 0.58511 0.0
H366 H 0.37047 0.6243 0.6216 0.0
H367 H 0.43172 0.64021 0.47716 0.0
H368 H 0.47516 0.59348 0.46571 0.0
H369 H 0.41019 0.5579 0.7231 0.0
H370 H 0.48895 0.63447 0.74272 0.0
C371 C 0.80333 0.45865 0.95669 0.0
C372 C 0.79654 0.47978 0.95902 0.0
C373 C 0.81969 0.50399 0.94663 0.0
C374 C 0.83931 0.49642 0.93761 0.0
N375 N 0.83 0.46898 0.94366 0.0
Co376 Co 0.85179 0.44963 0.93503 0.0
N377 N 0.88807 0.4857 0.93548 0.0
C378 C 0.8912 0.51138 0.93039 0.0
C379 C 0.91867 0.53256 0.93286 0.0
C380 C 0.93381 0.51939 0.93958 0.0
C381 C 0.91466 0.49072 0.94046 0.0
N382 N 0.87369 0.43036 0.92669 0.0
C383 C 0.90154 0.4399 0.93216 0.0
C384 C 0.90811 0.41947 0.92189 0.0
C385 C 0.88351 0.39652 0.90946 0.0
C386 C 0.8633 0.40415 0.91272 0.0
N387 N 0.81528 0.41379 0.93415 0.0
C388 C 0.811 0.38945 0.91878 0.0
C389 C 0.7835 0.36823 0.92219 0.0
C390 C 0.76974 0.38009 0.94062 0.0
C391 C 0.78965 0.40796 0.94757 0.0
N392 N 0.84926 0.45261 0.87852 0.0
C393 C 0.84357 0.44433 0.79775 0.0
C394 C 0.82056 0.43968 0.82088 0.0
C395 C 0.82391 0.4442 0.86104 0.0
C396 C 0.86989 0.45545 0.81581 0.0
C397 C 0.87227 0.4594 0.85594 0.0
N398 N 0.8544 0.44562 0.99098 0.0
C399 C 0.8488 0.41528 0.04444 0.0
C400 C 0.8608 0.43805 0.07023 0.0
C401 C 0.86888 0.46487 0.05514 0.0
C402 C 0.86503 0.46809 1.01564 0.0
C403 C 0.84652 0.41957 1.0053 0.0
H404 H 0.87113 0.48879 1.00492 0.0
H405 H 0.83853 0.40155 0.9866 0.0
H406 H 0.80561 0.4394 0.87819 0.0
H407 H 0.89261 0.46662 0.86884 0.0
C408 C 0.86779 0.51502 0.9304 0.0
C409 C 0.78337 0.42883 0.96449 0.0
C410 C 0.92253 0.46887 0.94339 0.0
C411 C 0.83408 0.38635 0.9084 0.0
H412 H 0.77694 0.47795 0.96861 0.0
H413 H 0.82229 0.52484 0.94597 0.0
H414 H 0.92665 0.55497 0.93166 0.0
H415 H 0.95636 0.52984 0.94336 0.0
H416 H 0.92858 0.42115 0.92276 0.0
H417 H 0.88064 0.37644 0.90015 0.0
H418 H 0.77472 0.34645 0.91379 0.0
H419 H 0.74763 0.36951 0.94805 0.0
H420 H 0.79979 0.43132 0.80848 0.0
H421 H 0.88856 0.46042 0.79925 0.0
H422 H 0.84101 0.39392 0.05398 0.0
H423 H 0.87851 0.48341 0.07325 0.0
C424 C 0.35115 0.80492 0.28763 0.0
C425 C 0.32329 0.79833 0.28514 0.0
C426 C 0.32344 0.82094 0.26813 0.0
C427 C 0.35127 0.84005 0.26135 0.0
N428 N 0.36856 0.83085 0.27304 0.0
Co429 Co 0.41017 0.85192 0.26974 0.0
N430 N 0.41121 0.88836 0.26461 0.0
C431 C 0.38941 0.89155 0.25385 0.0
C432 C 0.3963 0.91916 0.25161 0.0
C433 C 0.42423 0.93431 0.26115 0.0
C434 C 0.43292 0.91501 0.26884 0.0
N435 N 0.4518 0.87292 0.26651 0.0
C436 C 0.47028 0.90085 0.27062 0.0
C437 C 0.4977 0.90637 0.26603 0.0
C438 C 0.49613 0.88117 0.25786 0.0
C439 C 0.46796 0.86158 0.25815 0.0
N440 N 0.40864 0.81523 0.27466 0.0
C441 C 0.42912 0.80989 0.26454 0.0
C442 C 0.42215 0.78264 0.27247 0.0
C443 C 0.39565 0.77023 0.28849 0.0
C444 C 0.38798 0.79068 0.28955 0.0
N445 N 0.40838 0.84787 0.21317 0.0
C446 C 0.41345 0.8412 0.13342 0.0
C447 C 0.39407 0.81854 0.15615 0.0
C448 C 0.39174 0.82236 0.19591 0.0
C449 C 0.42922 0.86743 0.15136 0.0
C450 C 0.42626 0.87033 0.19088 0.0
N451 N 0.4129 0.85617 0.32591 0.0
C452 C 0.43392 0.85283 0.3851 0.0
C453 C 0.42086 0.86499 0.40603 0.0
C454 C 0.40301 0.87198 0.38576 0.0
C455 C 0.399 0.86701 0.34581 0.0
C456 C 0.43015 0.84918 0.34534 0.0
H457 H 0.38507 0.87235 0.33092 0.0
H458 H 0.4415 0.84082 0.33034 0.0
H459 H 0.37718 0.80448 0.21294 0.0
H460 H 0.43948 0.89068 0.2036 0.0
C461 C 0.36216 0.86832 0.25162 0.0
C462 C 0.36049 0.78597 0.30258 0.0
C463 C 0.46244 0.92279 0.27528 0.0
C464 C 0.4562 0.83224 0.2562 0.0
H465 H 0.30482 0.77935 0.29481 0.0
H466 H 0.3055 0.82367 0.26322 0.0
H467 H 0.38254 0.92733 0.24474 0.0
H468 H 0.43686 0.95699 0.26147 0.0
H469 H 0.51684 0.92652 0.26787 0.0
H470 H 0.51352 0.87751 0.25332 0.0
H471 H 0.43529 0.7733 0.26902 0.0
H472 H 0.38343 0.74874 0.29842 0.0
H473 H 0.38101 0.79796 0.14346 0.0
H474 H 0.44469 0.88555 0.13537 0.0
H475 H 0.44702 0.84593 0.39909 0.0
H476 H 0.39245 0.88155 0.40031 0.0
C477 C 0.55549 0.34511 0.62268 0.0
C478 C 0.5363 0.31663 0.62666 0.0
C479 C 0.51034 0.31319 0.61898 0.0
C480 C 0.51507 0.3396 0.61071 0.0
N481 N 0.54243 0.35947 0.61242 0.0
Co482 Co 0.55822 0.4002 0.60218 0.0
N483 N 0.52104 0.39746 0.60942 0.0
C484 C 0.49643 0.37357 0.61521 0.0
C485 C 0.47664 0.37813 0.63255 0.0
C486 C 0.48931 0.40662 0.63688 0.0
C487 C 0.51565 0.41817 0.61955 0.0
N488 N 0.57364 0.44068 0.58983 0.0
C489 C 0.56061 0.45628 0.58885 0.0
C490 C 0.57631 0.48028 0.56654 0.0
C491 C 0.60028 0.48041 0.55531 0.0
C492 C 0.59771 0.45612 0.56989 0.0
N493 N 0.59555 0.40283 0.59738 0.0
C494 C 0.61826 0.42367 0.57996 0.0
C495 C 0.64128 0.42009 0.58172 0.0
C496 C 0.63234 0.39532 0.60151 0.0
C497 C 0.6043 0.38517 0.61061 0.0
N498 N 0.55141 0.39254 0.54601 0.0
C499 C 0.55934 0.40123 0.46538 0.0
C500 C 0.56959 0.38598 0.48545 0.0
C501 C 0.5649 0.38137 0.52556 0.0
C502 C 0.5418 0.40846 0.48593 0.0
C503 C 0.53811 0.40395 0.52589 0.0
N504 N 0.56595 0.40899 0.65748 0.0
C505 C 0.59614 0.44048 0.7072 0.0
C506 C 0.57763 0.42333 0.73602 0.0
C507 C 0.55327 0.39862 0.72478 0.0
C508 C 0.5477 0.39196 0.68539 0.0
C509 C 0.5901 0.4328 0.66829 0.0
H510 H 0.52858 0.37309 0.67764 0.0
H511 H 0.60511 0.44622 0.64693 0.0
H512 H 0.57411 0.37067 0.54038 0.0
H513 H 0.5263 0.41192 0.54069 0.0
C514 C 0.49456 0.34739 0.61235 0.0
C515 C 0.58584 0.35768 0.62875 0.0
C516 C 0.53263 0.44783 0.60636 0.0
C517 C 0.61757 0.44726 0.56616 0.0
H518 H 0.54046 0.30016 0.6353 0.0
H519 H 0.49026 0.29408 0.62211 0.0
H520 H 0.45611 0.36254 0.6431 0.0
H521 H 0.47979 0.41748 0.65063 0.0
H522 H 0.57077 0.49561 0.55726 0.0
H523 H 0.61716 0.49597 0.53761 0.0
H524 H 0.6622 0.43406 0.57073 0.0
H525 H 0.64481 0.38563 0.60796 0.0
H526 H 0.58266 0.37918 0.47102 0.0
H527 H 0.53202 0.41891 0.47167 0.0
H528 H 0.61541 0.45954 0.7147 0.0
H529 H 0.53837 0.38481 0.74623 0.0
C530 C 0.21048 0.54572 0.95474 0.0
C531 C 0.21716 0.52449 0.95353 0.0
C532 C 0.19401 0.50109 0.93922 0.0
C533 C 0.17448 0.50921 0.93271 0.0
N534 N 0.18385 0.53623 0.94206 0.0
Co535 Co 0.16209 0.55602 0.93803 0.0
N536 N 0.12566 0.51997 0.93617 0.0
C537 C 0.12261 0.49469 0.92755 0.0
C538 C 0.09511 0.4735 0.92688 0.0
C539 C 0.07977 0.48622 0.93507 0.0
C540 C 0.09886 0.51466 0.94044 0.0
N541 N 0.14033 0.57582 0.934 0.0
C542 C 0.1123 0.56599 0.9383 0.0
C543 C 0.10631 0.58746 0.93274 0.0
C544 C 0.13123 0.61114 0.92361 0.0
C545 C 0.15113 0.60303 0.92438 0.0
N546 N 0.19878 0.59174 0.93979 0.0
C547 C 0.20326 0.61702 0.92838 0.0
C548 C 0.23073 0.63793 0.93344 0.0
C549 C 0.24429 0.62491 0.94891 0.0
C550 C 0.22428 0.59671 0.95255 0.0
N551 N 0.16437 0.55591 0.88095 0.0
C552 C 0.16754 0.56189 0.79977 0.0
C553 C 0.19164 0.56884 0.82176 0.0
C554 C 0.18952 0.56527 0.86224 0.0
C555 C 0.14186 0.55127 0.8192 0.0
C556 C 0.14076 0.54868 0.85947 0.0
N557 N 0.15965 0.55687 0.99466 0.0
C558 C 0.16591 0.58369 0.05279 0.0
C559 C 0.15475 0.55941 0.07578 0.0
C560 C 0.14646 0.53373 0.05667 0.0
C561 C 0.14958 0.53301 1.01638 0.0
C562 C 0.16751 0.58187 1.0127 0.0
H563 H 0.14349 0.51311 1.00275 0.0
H564 H 0.17516 0.60095 0.99637 0.0
H565 H 0.20835 0.57068 0.87847 0.0
H566 H 0.12072 0.54149 0.87314 0.0
C567 C 0.146 0.49109 0.92513 0.0
C568 C 0.23036 0.57491 0.96599 0.0
C569 C 0.09054 0.53619 0.94395 0.0
C570 C 0.18034 0.62089 0.92083 0.0
H571 H 0.23664 0.52567 0.9622 0.0
H572 H 0.1913 0.48031 0.93582 0.0
H573 H 0.08715 0.45138 0.92161 0.0
H574 H 0.05706 0.47576 0.93573 0.0
H575 H 0.08599 0.58606 0.93444 0.0
H576 H 0.13449 0.6319 0.9179 0.0
H577 H 0.23957 0.6602 0.92831 0.0
H578 H 0.2663 0.63496 0.95674 0.0
H579 H 0.21188 0.57681 0.80779 0.0
H580 H 0.12273 0.54572 0.80341 0.0
H581 H 0.17368 0.60431 0.06527 0.0
H582 H 0.13729 0.51409 0.07231 0.0
C583 C 0.66844 0.21283 0.28767 0.0
C584 C 0.6969 0.22179 0.28504 0.0
C585 C 0.69887 0.19975 0.26985 0.0
C586 C 0.67161 0.17863 0.26419 0.0
N587 N 0.65271 0.18611 0.27475 0.0
Co588 Co 0.61129 0.16199 0.27248 0.0
N589 N 0.61374 0.12722 0.27122 0.0
C590 C 0.63689 0.12578 0.26257 0.0
C591 C 0.63256 0.09901 0.26501 0.0
C592 C 0.60489 0.08254 0.27536 0.0
C593 C 0.59369 0.10021 0.27825 0.0
N594 N 0.56986 0.13796 0.26929 0.0
C595 C 0.55326 0.10992 0.27514 0.0
C596 C 0.52529 0.10159 0.26803 0.0
C597 C 0.52457 0.12527 0.25723 0.0
C598 C 0.55204 0.14674 0.25817 0.0
N599 N 0.60929 0.19695 0.27474 0.0
C600 C 0.58733 0.1997 0.26385 0.0
C601 C 0.59187 0.22632 0.27078 0.0
C602 C 0.61831 0.24102 0.28703 0.0
C603 C 0.6284 0.2225 0.28915 0.0
N604 N 0.61244 0.16364 0.21545 0.0
C605 C 0.6025 0.16529 0.1357 0.0
C606 C 0.62006 0.19007 0.15638 0.0
C607 C 0.62501 0.18875 0.19613 0.0
C608 C 0.59227 0.1397 0.1553 0.0
C609 C 0.59721 0.13933 0.19483 0.0
N610 N 0.60904 0.16014 0.32902 0.0
C611 C 0.58463 0.16049 0.38665 0.0
C612 C 0.60332 0.15674 0.40998 0.0
C613 C 0.62511 0.15471 0.39157 0.0
C614 C 0.62748 0.15627 0.35102 0.0
C615 C 0.58808 0.16252 0.34671 0.0
H616 H 0.64415 0.15437 0.33745 0.0
H617 H 0.57344 0.16582 0.33012 0.0
H618 H 0.63777 0.20816 0.21165 0.0
H619 H 0.58724 0.1192 0.20895 0.0
C620 C 0.66301 0.15029 0.25806 0.0
C621 C 0.6568 0.22996 0.30223 0.0
C622 C 0.56358 0.09041 0.2839 0.0
C623 C 0.5614 0.17566 0.25508 0.0
H624 H 0.7144 0.24185 0.29379 0.0
H625 H 0.71785 0.19869 0.26587 0.0
H626 H 0.64788 0.09235 0.261 0.0
H627 H 0.59423 0.06007 0.27979 0.0
H628 H 0.50736 0.08056 0.26995 0.0
H629 H 0.5061 0.12674 0.25062 0.0
H630 H 0.57723 0.23379 0.26641 0.0
H631 H 0.62894 0.26277 0.29622 0.0
H632 H 0.62881 0.21041 0.1426 0.0
H633 H 0.57955 0.11986 0.14055 0.0
H634 H 0.56699 0.16143 0.3989 0.0
H635 H 0.64032 0.1521 0.40821 0.0
H636 H 0.42394 0.61356 0.28525 0.0
H637 H 0.41213 0.5302 0.29583 0.0
H638 H 0.42277 0.53777 0.36489 0.0
H639 H 0.43651 0.5682 0.4223 0.0
H640 H 0.4496 0.65211 0.4124 0.0
H641 H 0.43704 0.64403 0.34375 0.0
C642 C 0.42336 0.59694 0.30279 0.0
C643 C 0.41732 0.57134 0.28507 0.0
C644 C 0.42987 0.60156 0.3428 0.0
C645 C 0.41698 0.5502 0.30838 0.0
C646 C 0.42305 0.5545 0.34801 0.0
C647 C 0.43696 0.58492 0.40516 0.0
C648 C 0.44428 0.61086 0.42292 0.0
C649 C 0.42989 0.58021 0.36548 0.0
C650 C 0.44393 0.63186 0.39999 0.0
C651 C 0.43684 0.62728 0.36051 0.0
H652 H 0.81811 0.41947 0.61749 0.0
H653 H 0.88122 0.3954 0.6301 0.0
H654 H 0.88419 0.4052 0.69958 0.0
H655 H 0.87009 0.42196 0.75631 0.0
H656 H 0.80899 0.44885 0.74386 0.0
H657 H 0.80368 0.4362 0.6752 0.0
C658 C 0.83218 0.41601 0.63565 0.0
C659 C 0.84934 0.40658 0.61871 0.0
C660 C 0.83426 0.42235 0.67561 0.0
C661 C 0.86782 0.40262 0.64245 0.0
C662 C 0.86956 0.40829 0.68217 0.0
C663 C 0.85584 0.42546 0.73862 0.0
C664 C 0.84017 0.43665 0.75557 0.0
C665 C 0.85321 0.41855 0.69897 0.0
C666 C 0.82123 0.44014 0.732 0.0
C667 C 0.81826 0.43301 0.69256 0.0
H668 H 0.43606 0.81214 0.96344 0.0
H669 H 0.44444 0.89307 0.94131 0.0
H670 H 0.43535 0.89755 1.00949 0.0
H671 H 0.423 0.87775 0.07449 0.0
H672 H 0.41468 0.79694 0.09818 0.0
H673 H 0.42485 0.79269 0.03025 0.0
C674 C 0.43633 0.83089 0.97389 0.0
C675 C 0.44114 0.85239 0.94768 0.0
C676 C 0.4305 0.83307 1.01315 0.0
C677 C 0.44096 0.87639 0.96118 0.0
C678 C 0.4356 0.87887 1.00004 0.0
C679 C 0.42369 0.8593 0.06502 0.0
C680 C 0.4181 0.83774 0.09162 0.0
C681 C 0.42999 0.85721 0.02617 0.0
C682 C 0.41849 0.81372 0.07835 0.0
C683 C 0.42461 0.8114 0.03954 0.0
H684 H 0.59612 0.463 0.30235 0.0
H685 H 0.59823 0.38798 0.27198 0.0
H686 H 0.58481 0.37042 0.33805 0.0
H687 H 0.57049 0.37538 0.40431 0.0
H688 H 0.56969 0.45127 0.43426 0.0
H689 H 0.58368 0.46877 0.36875 0.0
C690 C 0.59358 0.44276 0.31006 0.0
C691 C 0.59824 0.42694 0.28186 0.0
C692 C 0.58561 0.4326 0.34819 0.0
C693 C 0.59522 0.40092 0.29293 0.0
C694 C 0.58727 0.39069 0.33077 0.0
C695 C 0.57353 0.39582 0.3967 0.0
C696 C 0.5683 0.41152 0.42457 0.0
C697 C 0.58217 0.40623 0.35868 0.0
C698 C 0.57249 0.43805 0.41358 0.0
C699 C 0.58087 0.44835 0.376 0.0
H700 H 0.14815 0.55852 0.61899 0.0
H701 H 0.2106 0.64635 0.62981 0.0
H702 H 0.21575 0.63971 0.6987 0.0
H703 H 0.20055 0.60934 0.75726 0.0
H704 H 0.13599 0.52245 0.74612 0.0
H705 H 0.13345 0.52844 0.67638 0.0
C706 C 0.1627 0.57639 0.63633 0.0
C707 C 0.17875 0.603 0.61882 0.0
C708 C 0.16518 0.57257 0.67617 0.0
C709 C 0.19806 0.62556 0.64203 0.0
C710 C 0.20092 0.62182 0.68165 0.0
C711 C 0.18624 0.59168 0.73938 0.0
C712 C 0.16853 0.56544 0.75685 0.0
C713 C 0.18441 0.59546 0.69918 0.0
C714 C 0.14979 0.54284 0.7334 0.0
C715 C 0.1483 0.54627 0.69352 0.0
H716 H 0.63271 0.20062 0.07525 0.0
H717 H 0.55073 0.131 0.10412 0.0
H718 H 0.53543 0.1286 0.03759 0.0
H719 H 0.54523 0.14501 0.97041 0.0
H720 H 0.62612 0.21553 0.94076 0.0
H721 H 0.64147 0.21928 1.00819 0.0
C722 C 0.61141 0.18511 0.06714 0.0
C723 C 0.59326 0.16559 0.09489 0.0
C724 C 0.60237 0.18405 0.02851 0.0
C725 C 0.56566 0.14573 0.08346 0.0
C726 C 0.55668 0.14446 0.04532 0.0
C727 C 0.56621 0.16125 0.9787 0.0
C728 C 0.5845 0.17985 0.95044 0.0
C729 C 0.57492 0.16324 1.01748 0.0
C730 C 0.61148 0.20105 0.96191 0.0
C731 C 0.62036 0.20308 1.00047 0.0
H732 H 0.34667 0.58195 1.00158 0.0
H733 H 0.32308 0.58834 0.11846 0.0
H734 H 0.28214 0.59041 0.09456 0.0
H735 H 0.25008 0.58512 0.04037 0.0
H736 H 0.27433 0.57991 0.92341 0.0
H737 H 0.31791 0.58302 0.9469 0.0
C738 C 0.33292 0.58455 0.02163 0.0
C739 C 0.33789 0.58509 0.06172 0.0
C740 C 0.30932 0.58564 1.00756 0.0
C741 C 0.31978 0.58814 0.0875 0.0
C742 C 0.29625 0.5891 0.07381 0.0
C743 C 0.26528 0.58534 1.0201 0.0
C744 C 0.25901 0.5822 0.98023 0.0
C745 C 0.29036 0.58713 0.03394 0.0
C746 C 0.27879 0.58238 0.95419 0.0
C747 C 0.30361 0.58399 0.96767 0.0
H748 H 0.73538 0.31452 0.43119 0.0
H749 H 0.78002 0.36208 0.33051 0.0
H750 H 0.74218 0.32814 0.28846 0.0
H751 H 0.69886 0.28189 0.27993 0.0
H752 H 0.65523 0.23332 0.38046 0.0
H753 H 0.68961 0.27049 0.42293 0.0
C754 C 0.73636 0.31772 0.4001 0.0
C755 C 0.76032 0.34083 0.38388 0.0
C756 C 0.71473 0.29771 0.37607 0.0
C757 C 0.76165 0.3446 0.34358 0.0
C758 C 0.7401 0.32507 0.31955 0.0
C759 C 0.69659 0.27988 0.31117 0.0
C760 C 0.67449 0.25501 0.32715 0.0
C761 C 0.71688 0.30113 0.33535 0.0
C762 C 0.67192 0.25238 0.3676 0.0
C763 C 0.69171 0.27356 0.39184 0.0
H764 H 0.41489 0.7568 0.67671 0.0
H765 H 0.43494 0.73981 0.79037 0.0
H766 H 0.43239 0.69662 0.76646 0.0
H767 H 0.43083 0.66719 0.71107 0.0
H768 H 0.41003 0.68349 0.59756 0.0
H769 H 0.40601 0.72295 0.62326 0.0
C770 C 0.41801 0.74323 0.69632 0.0
C771 C 0.4255 0.75164 0.73513 0.0
C772 C 0.41652 0.71834 0.68224 0.0
C773 C 0.42938 0.73384 0.76035 0.0
C774 C 0.42803 0.70921 0.74662 0.0
C775 C 0.42441 0.6788 0.69236 0.0
C776 C 0.42032 0.67223 0.6526 0.0
C777 C 0.42249 0.70169 0.70736 0.0
C778 C 0.41269 0.68781 0.62838 0.0
C779 C 0.41074 0.7106 0.64303 0.0
H780 H 0.66706 0.42161 0.99918 0.0
H781 H 0.68979 0.41442 0.1161 0.0
H782 H 0.73057 0.41192 0.09237 0.0
H783 H 0.763 0.41757 0.03846 0.0
H784 H 0.73963 0.42365 0.92144 0.0
H785 H 0.6959 0.42041 0.94461 0.0
C786 C 0.68052 0.41864 1.01925 0.0
C787 C 0.67537 0.41799 0.0593 0.0
C788 C 0.70404 0.41733 1.00528 0.0
C789 C 0.69318 0.41459 0.08515 0.0
C790 C 0.71664 0.41342 0.07156 0.0
C791 C 0.7479 0.41739 1.01809 0.0
C792 C 0.75443 0.42078 0.9783 0.0
C793 C 0.72275 0.41556 0.03175 0.0
C794 C 0.73489 0.42083 0.95214 0.0
C795 C 0.71 0.41919 0.96544 0.0
H796 H 0.2812 0.69861 0.42888 0.0
H797 H 0.23349 0.65602 0.32715 0.0
H798 H 0.27079 0.69115 0.28562 0.0
H799 H 0.31522 0.7366 0.27853 0.0
H800 H 0.36223 0.77999 0.38033 0.0
H801 H 0.32748 0.74213 0.42154 0.0
C802 C 0.27937 0.69681 0.39759 0.0
C803 C 0.25479 0.67473 0.38095 0.0
C804 C 0.30073 0.71745 0.37397 0.0
C805 C 0.25236 0.67272 0.34046 0.0
C806 C 0.2736 0.69291 0.31678 0.0
C807 C 0.31795 0.73744 0.30972 0.0
C808 C 0.34113 0.76103 0.32652 0.0
C809 C 0.29761 0.71574 0.3332 0.0
C810 C 0.34455 0.762 0.36688 0.0
C811 C 0.32461 0.74042 0.39039 0.0
H812 H 0.59718 0.25182 0.66549 0.0
H813 H 0.59181 0.27628 0.78231 0.0
H814 H 0.59513 0.31981 0.75866 0.0
H815 H 0.5929 0.34769 0.70388 0.0
H816 H 0.59959 0.32418 0.58709 0.0
H817 H 0.60295 0.28403 0.61119 0.0
C818 C 0.59754 0.2671 0.68571 0.0
C819 C 0.59407 0.2608 0.72558 0.0
C820 C 0.59952 0.29224 0.67178 0.0
C821 C 0.59447 0.28072 0.75153 0.0
C822 C 0.59619 0.30553 0.73796 0.0
C823 C 0.59619 0.33435 0.68389 0.0
C824 C 0.59638 0.33909 0.64378 0.0
C825 C 0.59785 0.31113 0.69806 0.0
C826 C 0.59996 0.32127 0.61808 0.0
C827 C 0.60151 0.2981 0.63189 0.0
H828 H 0.47203 0.50841 0.04292 0.0
H829 H 0.49088 0.54345 0.15804 0.0
H830 H 0.52227 0.52453 0.16839 0.0
H831 H 0.54413 0.4975 0.14506 0.0
H832 H 0.52566 0.46218 0.03021 0.0
H833 H 0.49392 0.48092 1.01958 0.0
C834 C 0.48336 0.51215 0.07001 0.0
C835 C 0.47969 0.52791 0.09935 0.0
C836 C 0.50107 0.50072 0.076 0.0
C837 C 0.49392 0.53204 0.1347 0.0
C838 C 0.51164 0.52096 0.14076 0.0
C839 C 0.53307 0.49391 0.11776 0.0
C840 C 0.53733 0.47869 0.08828 0.0
C841 C 0.51531 0.50518 0.11172 0.0
C842 C 0.52271 0.47389 0.0532 0.0
C843 C 0.50472 0.48475 0.0471 0.0
H844 H 0.96608 0.46945 0.48068 0.0
H845 H 0.95106 0.49091 0.36682 0.0
H846 H 1.00178 0.52299 0.358 0.0
H847 H 0.05082 0.54417 0.38256 0.0
H848 H 0.0652 0.5223 0.49664 0.0
H849 H 0.01465 0.49068 0.50527 0.0
C850 C 0.97401 0.48131 0.45405 0.0
C851 C 0.955 0.47782 0.42432 0.0
C852 C 1.00317 0.49917 0.44899 0.0
C853 C 0.96537 0.49333 0.39003 0.0
C854 C 0.99435 0.51148 0.38494 0.0
C855 C 0.04279 0.5321 0.409 0.0
C856 C 0.06177 0.53493 0.4385 0.0
C857 C 0.01352 0.51432 0.41404 0.0
C858 C 0.0511 0.51982 0.4731 0.0
C859 C 0.02217 0.50201 0.47821 0.0
H860 H 0.51472 0.04973 0.71624 0.0
H861 H 0.54402 0.06451 0.83429 0.0
H862 H 0.52368 0.01394 0.84446 0.0
H863 H 0.49732 0.96521 0.81987 0.0
H864 H 0.46911 0.95009 0.70137 0.0
H865 H 0.48841 1.00066 0.69142 0.0
C866 C 0.5169 0.04178 0.74397 0.0
C867 C 0.53142 0.06086 0.77423 0.0
C868 C 0.50488 0.01252 0.74968 0.0
C869 C 0.53355 0.0503 0.81033 0.0
C870 C 0.52168 0.02136 0.81624 0.0
C871 C 0.49534 0.97306 0.79195 0.0
C872 C 0.48183 0.95395 0.76136 0.0
C873 C 0.50722 1.00224 0.7862 0.0
C874 C 0.4793 0.96436 0.72536 0.0
C875 C 0.49054 0.9933 0.71962 0.0
H876 H 0.4605 0.50919 0.61841 0.0
H877 H 0.53995 0.57932 0.58159 0.0
H878 H 0.56267 0.55194 0.5933 0.0
H879 H 0.55877 0.50637 0.61383 0.0
H880 H 0.47713 0.43414 0.59037 0.0
H881 H 0.4553 0.46238 0.60202 0.0
C882 C 0.48253 0.51871 0.61093 0.0
C883 C 0.49864 0.54785 0.60317 0.0
C884 C 0.49462 0.50138 0.60778 0.0
C885 C 0.52722 0.55844 0.59321 0.0
C886 C 0.54024 0.54234 0.59827 0.0
C887 C 0.53634 0.49645 0.6091 0.0
C888 C 0.51981 0.46691 0.60506 0.0
C889 C 0.52402 0.51357 0.60589 0.0
C890 C 0.49063 0.45577 0.59886 0.0
C891 C 0.47798 0.47222 0.60397 0.0
H892 H 0.04759 0.50721 0.99549 0.0
H893 H 0.0648 0.54262 0.88073 0.0
H894 H 0.01451 0.52368 0.86952 0.0
H895 H 0.96533 0.49659 0.89205 0.0
H896 H 0.94751 0.46091 1.00653 0.0
H897 H 0.99796 0.47951 1.01792 0.0
C898 C 0.04023 0.51106 0.96831 0.0
C899 C 0.05995 0.52694 0.93933 0.0
C900 C 0.0111 0.49952 0.96177 0.0
C901 C 0.05013 0.53117 0.90383 0.0
C902 C 0.02135 0.52004 0.89725 0.0
C903 C 0.97259 0.49277 0.91936 0.0
C904 C 0.95285 0.47747 0.9485 0.0
C905 C 1.00162 0.50407 0.92589 0.0
C906 C 0.96237 0.47256 0.98372 0.0
C907 C 0.99121 0.4834 0.99029 0.0
H908 H 0.47528 0.96412 0.32895 0.0
H909 H 0.497 0.94982 0.21455 0.0
H910 H 0.5296 1.00021 0.20669 0.0
H911 H 0.55121 0.04865 0.23169 0.0
H912 H 0.52992 0.0636 0.3459 0.0
H913 H 0.49751 0.01298 0.35439 0.0
C914 C 0.48755 0.97212 0.30263 0.0
C915 C 0.48434 0.95325 0.27274 0.0
C916 C 0.50598 1.00129 0.29811 0.0
C917 C 0.49972 0.96387 0.23831 0.0
C918 C 0.51813 0.9927 0.23368 0.0
C919 C 0.53954 0.04071 0.25849 0.0
C920 C 0.54315 0.05968 0.28839 0.0
C921 C 0.52133 0.01163 0.26325 0.0
C922 C 0.52758 0.04931 0.32268 0.0
C923 C 0.50916 0.02039 0.32753 0.0
H924 H 0.40109 0.57018 0.78396 0.0
H925 H 0.49125 0.60663 0.79149 0.0
H926 H 0.48761 0.59876 0.8611 0.0
H927 H 0.45918 0.58211 0.92035 0.0
H928 H 0.36902 0.54391 0.91325 0.0
H929 H 0.3723 0.55094 0.84294 0.0
C930 C 0.41997 0.57607 0.80057 0.0
C931 C 0.44648 0.58937 0.78201 0.0
C932 C 0.41774 0.57095 0.84083 0.0
C933 C 0.4706 0.59707 0.80465 0.0
C934 C 0.46855 0.59232 0.84461 0.0
C935 C 0.44022 0.57528 0.90341 0.0
C936 C 0.41389 0.56262 0.92214 0.0
C937 C 0.44228 0.57946 0.86305 0.0
C938 C 0.38953 0.5535 0.89961 0.0
C939 C 0.39142 0.55772 0.85941 0.0
H940 H 0.86232 0.39379 0.23877 0.0
H941 H 0.86891 0.47319 0.26958 0.0
H942 H 0.86828 0.48388 0.20182 0.0
H943 H 0.86335 0.4699 0.13376 0.0
H944 H 0.86743 0.39574 0.10278 0.0
H945 H 0.86665 0.38433 0.17056 0.0
C946 C 0.86423 0.41375 0.23111 0.0
C947 C 0.8644 0.43189 0.26018 0.0
C948 C 0.86551 0.42079 0.19168 0.0
C949 C 0.86706 0.45774 0.24858 0.0
C950 C 0.86716 0.46425 0.20951 0.0
C951 C 0.86471 0.45154 0.14135 0.0
C952 C 0.86423 0.43328 0.11225 0.0
C953 C 0.86589 0.4457 0.18076 0.0
C954 C 0.86612 0.40964 0.12381 0.0
C955 C 0.86612 0.40316 0.1629 0.0
H956 H 0.41781 0.86907 0.58838 0.0
H957 H 0.4978 0.87287 0.57414 0.0
H958 H 0.4951 0.87782 0.50427 0.0
H959 H 0.46822 0.87678 0.44725 0.0
H960 H 0.3842 0.86354 0.46171 0.0
H961 H 0.39053 0.86683 0.53158 0.0
C962 C 0.43456 0.87051 0.57015 0.0
C963 C 0.45772 0.86995 0.58678 0.0
C964 C 0.43213 0.87166 0.52992 0.0
C965 C 0.47974 0.87329 0.56248 0.0
C966 C 0.47809 0.87586 0.52239 0.0
C967 C 0.45097 0.8741 0.46545 0.0
C968 C 0.42554 0.86946 0.44868 0.0
C969 C 0.45401 0.87427 0.50579 0.0
C970 C 0.40413 0.86741 0.47325 0.0
C971 C 0.4076 0.86898 0.51341 0.0
H972 H 0.57785 0.39091 0.79496 0.0
H973 H 0.59176 0.47361 0.7699 0.0
H974 H 0.60136 0.48647 0.8385 0.0
H975 H 0.60397 0.47337 0.90637 0.0
H976 H 0.59201 0.39104 0.92995 0.0
H977 H 0.58357 0.37897 0.86152 0.0
C978 C 0.58291 0.4117 0.80462 0.0
C979 C 0.58384 0.43118 0.77756 0.0
C980 C 0.58877 0.41905 0.84394 0.0
C981 C 0.59092 0.45825 0.79027 0.0
C982 C 0.59638 0.4656 0.82948 0.0
C983 C 0.59992 0.45296 0.89643 0.0
C984 C 0.59813 0.43301 0.92352 0.0
C985 C 0.59522 0.44611 0.85669 0.0
C986 C 0.59284 0.40661 0.90999 0.0
C987 C 0.58809 0.39967 0.87077 0.0
H988 H 0.14996 0.59957 0.11834 0.0
H989 H 0.15373 0.52331 0.13253 0.0
H990 H 0.15025 0.52656 0.20213 0.0
H991 H 0.14794 0.55153 0.25907 0.0
H992 H 0.15457 0.63286 0.24539 0.0
H993 H 0.15205 0.62675 0.17554 0.0
C994 C 0.15076 0.58384 0.1362 0.0
C995 C 0.15222 0.56119 0.11905 0.0
C996 C 0.1505 0.58664 0.17671 0.0
C997 C 0.15201 0.54072 0.14383 0.0
C998 C 0.15035 0.54271 0.18406 0.0
C999 C 0.14961 0.56848 0.24129 0.0
C1000 C 0.1517 0.59283 0.25855 0.0
C1001 C 0.14994 0.56575 0.20081 0.0
C1002 C 0.15246 0.6136 0.23388 0.0
C1003 C 0.15135 0.6103 0.19357 0.0
H1004 H 0.58797 0.1308 0.59014 0.0
H1005 H 0.55529 0.18749 0.58418 0.0
H1006 H 0.56478 0.19333 0.51456 0.0
H1007 H 0.58391 0.18378 0.45633 0.0
H1008 H 0.61368 0.12452 0.46095 0.0
H1009 H 0.60503 0.11934 0.53062 0.0
C1010 C 0.58283 0.14434 0.57349 0.0
C1011 C 0.57091 0.15868 0.59222 0.0
C1012 C 0.58835 0.14759 0.5335 0.0
C1013 C 0.56413 0.17596 0.57033 0.0
C1014 C 0.56981 0.17951 0.53063 0.0
C1015 C 0.5881 0.1693 0.47222 0.0
C1016 C 0.59937 0.15449 0.45295 0.0
C1017 C 0.58209 0.16558 0.512 0.0
C1018 C 0.60544 0.13658 0.47476 0.0
C1019 C 0.60018 0.13333 0.51464 0.0
loop_
_geom_bond_atom_site_label_1
_geom_bond_atom_site_label_2
_geom_bond_distance
_geom_bond_site_symmetry_2
_ccdc_geom_bond_type
C0 C1 1.443 . S
C0 N4 1.376 . S
C0 C38 1.389 . S
C1 C0 1.443 . S
C1 C2 1.340 . S
C1 H41 0.951 . S
C2 C1 1.340 . S
C2 C3 1.439 . S
C2 H42 0.950 . S
C3 C2 1.439 . S
C3 N4 1.374 . S
C3 C37 1.395 . S
N4 C0 1.376 . S
N4 C3 1.374 . S
N4 Co5 2.008 . S
Co5 N4 2.008 . S
Co5 N6 1.995 . S
Co5 N11 2.008 . S
Co5 N16 1.995 . S
Co5 N21 2.282 . S
Co5 N27 2.282 . S
N6 Co5 1.995 . S
N6 C7 1.376 . S
N6 C10 1.383 . S
C7 N6 1.376 . S
C7 C8 1.446 . S
C7 C37 1.391 . S
C8 C7 1.446 . S
C8 C9 1.339 . S
C8 H43 0.949 . S
C9 C8 1.339 . S
C9 C10 1.439 . S
C9 H44 0.950 . S
C10 N6 1.383 . S
C10 C9 1.439 . S
C10 C39 1.392 . S
N11 Co5 2.008 . S
N11 C12 1.376 . S
N11 C15 1.374 . S
C12 N11 1.376 . S
C12 C13 1.443 . S
C12 C39 1.389 . S
C13 C12 1.443 . S
C13 C14 1.340 . S
C13 H45 0.951 . S
C14 C13 1.340 . S
C14 C15 1.439 . S
C14 H46 0.950 . S
C15 N11 1.374 . S
C15 C14 1.439 . S
C15 C40 1.395 . S
N16 Co5 1.995 . S
N16 C17 1.376 . S
N16 C20 1.383 . S
C17 N16 1.376 . S
C17 C18 1.446 . S
C17 C40 1.391 . S
C18 C17 1.446 . S
C18 C19 1.339 . S
C18 H47 0.949 . S
C19 C18 1.339 . S
C19 C20 1.439 . S
C19 H48 0.950 . S
C20 N16 1.383 . S
C20 C19 1.439 . S
C20 C38 1.392 . S
N21 Co5 2.282 . S
N21 C24 1.332 . S
N21 C26 1.332 . S
C22 C23 1.386 . S
C22 C25 1.388 . S
C23 C22 1.386 . S
C23 C24 1.382 . S
C23 H49 0.950 . S
C24 N21 1.332 . S
C24 C23 1.382 . S
C24 H35 0.952 . S
C25 C22 1.388 . S
C25 C26 1.382 . S
C25 H50 0.950 . S
C26 N21 1.332 . S
C26 C25 1.382 . S
C26 H36 0.948 . S
N27 Co5 2.282 . S
N27 C31 1.332 1_554 S
N27 C32 1.332 1_554 S
C28 C29 1.388 . S
C28 C32 1.382 . S
C28 H51 0.950 . S
C29 C28 1.388 . S
C29 C30 1.386 . S
C30 C29 1.386 . S
C30 C31 1.382 . S
C30 H52 0.950 . S
C31 N27 1.332 1_556 S
C31 C30 1.382 . S
C31 H33 0.952 1_556 S
C32 N27 1.332 1_556 S
C32 C28 1.382 . S
C32 H34 0.948 1_556 S
H33 C31 0.952 1_554 S
H34 C32 0.948 1_554 S
H35 C24 0.952 . S
H36 C26 0.948 . S
C37 C3 1.395 . S
C37 C7 1.391 . S
C38 C0 1.389 . S
C38 C20 1.392 . S
C39 C10 1.392 . S
C39 C12 1.389 . S
C40 C15 1.395 . S
C40 C17 1.391 . S
H41 C1 0.951 . S
H42 C2 0.950 . S
H43 C8 0.949 . S
H44 C9 0.950 . S
H45 C13 0.951 . S
H46 C14 0.950 . S
H47 C18 0.949 . S
H48 C19 0.950 . S
H49 C23 0.950 . S
H50 C25 0.950 . S
H51 C28 0.950 . S
H52 C30 0.950 . S
C53 C54 1.443 . S
C53 N57 1.376 . S
C53 C91 1.389 . S
C54 C53 1.443 . S
C54 C55 1.340 . S
C54 H94 0.951 . S
C55 C54 1.340 . S
C55 C56 1.439 . S
C55 H95 0.950 . S
C56 C55 1.439 . S
C56 N57 1.374 . S
C56 C90 1.395 . S
N57 C53 1.376 . S
N57 C56 1.374 . S
N57 Co58 2.008 . S
Co58 N57 2.008 . S
Co58 N59 1.995 . S
Co58 N64 2.008 . S
Co58 N69 1.995 . S
Co58 N74 2.282 . S
Co58 N80 2.282 . S
N59 Co58 1.995 . S
N59 C60 1.376 . S
N59 C63 1.383 . S
C60 N59 1.376 . S
C60 C61 1.446 . S
C60 C90 1.391 . S
C61 C60 1.446 . S
C61 C62 1.339 . S
C61 H96 0.949 . S
C62 C61 1.339 . S
C62 C63 1.439 . S
C62 H97 0.950 . S
C63 N59 1.383 . S
C63 C62 1.439 . S
C63 C92 1.392 . S
N64 Co58 2.008 . S
N64 C65 1.376 . S
N64 C68 1.374 . S
C65 N64 1.376 . S
C65 C66 1.443 . S
C65 C92 1.389 . S
C66 C65 1.443 . S
C66 C67 1.340 . S
C66 H98 0.951 . S
C67 C66 1.340 . S
C67 C68 1.439 . S
C67 H99 0.950 . S
C68 N64 1.374 . S
C68 C67 1.439 . S
C68 C93 1.395 . S
N69 Co58 1.995 . S
N69 C70 1.376 . S
N69 C73 1.383 . S
C70 N69 1.376 . S
C70 C71 1.446 . S
C70 C93 1.391 . S
C71 C70 1.446 . S
C71 C72 1.339 . S
C71 H100 0.949 . S
C72 C71 1.339 . S
C72 C73 1.439 . S
C72 H101 0.950 . S
C73 N69 1.383 . S
C73 C72 1.439 . S
C73 C91 1.392 . S
N74 Co58 2.282 . S
N74 C77 1.332 . S
N74 C79 1.332 . S
C75 C76 1.386 . S
C75 C78 1.388 . S
C76 C75 1.386 . S
C76 C77 1.382 . S
C76 H102 0.950 . S
C77 N74 1.332 . S
C77 C76 1.382 . S
C77 H88 0.952 . S
C78 C75 1.388 . S
C78 C79 1.382 . S
C78 H103 0.950 . S
C79 N74 1.332 . S
C79 C78 1.382 . S
C79 H89 0.948 . S
N80 Co58 2.282 . S
N80 C84 1.332 . S
N80 C85 1.332 . S
C81 C82 1.388 . S
C81 C85 1.382 . S
C81 H104 0.950 . S
C82 C81 1.388 . S
C82 C83 1.386 . S
C83 C82 1.386 . S
C83 C84 1.382 . S
C83 H105 0.950 . S
C84 N80 1.332 . S
C84 C83 1.382 . S
C84 H86 0.952 . S
C85 N80 1.332 . S
C85 C81 1.382 . S
C85 H87 0.948 . S
H86 C84 0.952 . S
H87 C85 0.948 . S
H88 C77 0.952 . S
H89 C79 0.948 . S
C90 C56 1.395 . S
C90 C60 1.391 . S
C91 C53 1.389 . S
C91 C73 1.392 . S
C92 C63 1.392 . S
C92 C65 1.389 . S
C93 C68 1.395 . S
C93 C70 1.391 . S
H94 C54 0.951 . S
H95 C55 0.950 . S
H96 C61 0.949 . S
H97 C62 0.950 . S
H98 C66 0.951 . S
H99 C67 0.950 . S
H100 C71 0.949 . S
H101 C72 0.950 . S
H102 C76 0.950 . S
H103 C78 0.950 . S
H104 C81 0.950 . S
H105 C83 0.950 . S
C106 C107 1.443 . S
C106 N110 1.376 . S
C106 C144 1.389 . S
C107 C106 1.443 . S
C107 C108 1.340 . S
C107 H147 0.951 . S
C108 C107 1.340 . S
C108 C109 1.439 . S
C108 H148 0.950 . S
C109 C108 1.439 . S
C109 N110 1.374 . S
C109 C143 1.395 . S
N110 C106 1.376 . S
N110 C109 1.374 . S
N110 Co111 2.008 . S
Co111 N110 2.008 . S
Co111 N112 1.995 . S
Co111 N117 2.008 . S
Co111 N122 1.995 . S
Co111 N127 2.282 . S
Co111 N133 2.282 . S
N112 Co111 1.995 . S
N112 C113 1.376 . S
N112 C116 1.383 . S
C113 N112 1.376 . S
C113 C114 1.446 . S
C113 C143 1.391 . S
C114 C113 1.446 . S
C114 C115 1.339 . S
C114 H149 0.949 . S
C115 C114 1.339 . S
C115 C116 1.439 . S
C115 H150 0.950 . S
C116 N112 1.383 . S
C116 C115 1.439 . S
C116 C145 1.392 . S
N117 Co111 2.008 . S
N117 C118 1.376 . S
N117 C121 1.374 . S
C118 N117 1.376 . S
C118 C119 1.443 . S
C118 C145 1.389 . S
C119 C118 1.443 . S
C119 C120 1.340 . S
C119 H151 0.951 . S
C120 C119 1.340 . S
C120 C121 1.439 . S
C120 H152 0.950 . S
C121 N117 1.374 . S
C121 C120 1.439 . S
C121 C146 1.395 . S
N122 Co111 1.995 . S
N122 C123 1.376 . S
N122 C126 1.383 . S
C123 N122 1.376 . S
C123 C124 1.446 . S
C123 C146 1.391 . S
C124 C123 1.446 . S
C124 C125 1.339 . S
C124 H153 0.949 . S
C125 C124 1.339 . S
C125 C126 1.439 . S
C125 H154 0.950 . S
C126 N122 1.383 . S
C126 C125 1.439 . S
C126 C144 1.392 . S
N127 Co111 2.282 . S
N127 C130 1.332 . S
N127 C132 1.332 . S
C128 C129 1.386 . S
C128 C131 1.388 . S
C129 C128 1.386 . S
C129 C130 1.382 . S
C129 H155 0.950 . S
C130 N127 1.332 . S
C130 C129 1.382 . S
C130 H141 0.952 . S
C131 C128 1.388 . S
C131 C132 1.382 . S
C131 H156 0.950 . S
C132 N127 1.332 . S
C132 C131 1.382 . S
C132 H142 0.948 . S
N133 Co111 2.282 . S
N133 C137 1.332 . S
N133 C138 1.332 . S
C134 C135 1.388 . S
C134 C138 1.382 . S
C134 H157 0.950 . S
C135 C134 1.388 . S
C135 C136 1.386 . S
C136 C135 1.386 . S
C136 C137 1.382 . S
C136 H158 0.950 . S
C137 N133 1.332 . S
C137 C136 1.382 . S
C137 H139 0.952 . S
C138 N133 1.332 . S
C138 C134 1.382 . S
C138 H140 0.948 . S
H139 C137 0.952 . S
H140 C138 0.948 . S
H141 C130 0.952 . S
H142 C132 0.948 . S
C143 C109 1.395 . S
C143 C113 1.391 . S
C144 C106 1.389 . S
C144 C126 1.392 . S
C145 C116 1.392 . S
C145 C118 1.389 . S
C146 C121 1.395 . S
C146 C123 1.391 . S
H147 C107 0.951 . S
H148 C108 0.950 . S
H149 C114 0.949 . S
H150 C115 0.950 . S
H151 C119 0.951 . S
H152 C120 0.950 . S
H153 C124 0.949 . S
H154 C125 0.950 . S
H155 C129 0.950 . S
H156 C131 0.950 . S
H157 C134 0.950 . S
H158 C136 0.950 . S
C159 C160 1.443 . S
C159 N163 1.376 . S
C159 C197 1.389 . S
C160 C159 1.443 . S
C160 C161 1.340 . S
C160 H200 0.951 . S
C161 C160 1.340 . S
C161 C162 1.439 . S
C161 H201 0.950 . S
C162 C161 1.439 . S
C162 N163 1.374 . S
C162 C196 1.395 . S
N163 C159 1.376 . S
N163 C162 1.374 . S
N163 Co164 2.008 . S
Co164 N163 2.008 . S
Co164 N165 1.995 . S
Co164 N170 2.008 . S
Co164 N175 1.995 . S
Co164 N180 2.282 . S
Co164 N186 2.282 . S
N165 Co164 1.995 . S
N165 C166 1.376 . S
N165 C169 1.383 . S
C166 N165 1.376 . S
C166 C167 1.446 . S
C166 C196 1.391 . S
C167 C166 1.446 . S
C167 C168 1.339 . S
C167 H202 0.949 . S
C168 C167 1.339 . S
C168 C169 1.439 . S
C168 H203 0.950 . S
C169 N165 1.383 . S
C169 C168 1.439 . S
C169 C198 1.392 . S
N170 Co164 2.008 . S
N170 C171 1.376 . S
N170 C174 1.374 . S
C171 N170 1.376 . S
C171 C172 1.443 . S
C171 C198 1.389 . S
C172 C171 1.443 . S
C172 C173 1.340 . S
C172 H204 0.951 . S
C173 C172 1.340 . S
C173 C174 1.439 . S
C173 H205 0.950 . S
C174 N170 1.374 . S
C174 C173 1.439 . S
C174 C199 1.395 . S
N175 Co164 1.995 . S
N175 C176 1.376 . S
N175 C179 1.383 . S
C176 N175 1.376 . S
C176 C177 1.446 . S
C176 C199 1.391 . S
C177 C176 1.446 . S
C177 C178 1.339 . S
C177 H206 0.949 . S
C178 C177 1.339 . S
C178 C179 1.439 . S
C178 H207 0.950 . S
C179 N175 1.383 . S
C179 C178 1.439 . S
C179 C197 1.392 . S
N180 Co164 2.282 . S
N180 C183 1.332 . S
N180 C185 1.332 . S
C181 C182 1.386 . S
C181 C184 1.388 . S
C182 C181 1.386 . S
C182 C183 1.382 . S
C182 H208 0.950 . S
C183 N180 1.332 . S
C183 C182 1.382 . S
C183 H194 0.952 . S
C184 C181 1.388 . S
C184 C185 1.382 . S
C184 H209 0.950 . S
C185 N180 1.332 . S
C185 C184 1.382 . S
C185 H195 0.948 . S
N186 Co164 2.282 . S
N186 C190 1.332 1_554 S
N186 C191 1.332 1_554 S
C187 C188 1.388 . S
C187 C191 1.382 . S
C187 H210 0.950 . S
C188 C187 1.388 . S
C188 C189 1.386 . S
C189 C188 1.386 . S
C189 C190 1.382 . S
C189 H211 0.950 . S
C190 N186 1.332 1_556 S
C190 C189 1.382 . S
C190 H192 0.952 1_556 S
C191 N186 1.332 1_556 S
C191 C187 1.382 . S
C191 H193 0.948 1_556 S
H192 C190 0.952 1_554 S
H193 C191 0.948 1_554 S
H194 C183 0.952 . S
H195 C185 0.948 . S
C196 C162 1.395 . S
C196 C166 1.391 . S
C197 C159 1.389 . S
C197 C179 1.392 . S
C198 C169 1.392 . S
C198 C171 1.389 . S
C199 C174 1.395 . S
C199 C176 1.391 . S
H200 C160 0.951 . S
H201 C161 0.950 . S
H202 C167 0.949 . S
H203 C168 0.950 . S
H204 C172 0.951 . S
H205 C173 0.950 . S
H206 C177 0.949 . S
H207 C178 0.950 . S
H208 C182 0.950 . S
H209 C184 0.950 . S
H210 C187 0.950 . S
H211 C189 0.950 . S
C212 C213 1.443 . S
C212 N216 1.376 . S
C212 C250 1.389 . S
C213 C212 1.443 . S
C213 C214 1.340 . S
C213 H253 0.951 . S
C214 C213 1.340 . S
C214 C215 1.439 . S
C214 H254 0.950 . S
C215 C214 1.439 . S
C215 N216 1.374 . S
C215 C249 1.395 . S
N216 C212 1.376 . S
N216 C215 1.374 . S
N216 Co217 2.008 . S
Co217 N216 2.008 . S
Co217 N218 1.995 . S
Co217 N223 2.008 . S
Co217 N228 1.995 . S
Co217 N233 2.282 . S
Co217 N239 2.282 . S
N218 Co217 1.995 . S
N218 C219 1.376 . S
N218 C222 1.383 . S
C219 N218 1.376 . S
C219 C220 1.446 . S
C219 C249 1.391 . S
C220 C219 1.446 . S
C220 C221 1.339 . S
C220 H255 0.949 . S
C221 C220 1.339 . S
C221 C222 1.439 . S
C221 H256 0.950 . S
C222 N218 1.383 . S
C222 C221 1.439 . S
C222 C251 1.392 . S
N223 Co217 2.008 . S
N223 C224 1.376 . S
N223 C227 1.374 . S
C224 N223 1.376 . S
C224 C225 1.443 . S
C224 C251 1.389 . S
C225 C224 1.443 . S
C225 C226 1.340 . S
C225 H257 0.951 . S
C226 C225 1.340 . S
C226 C227 1.439 . S
C226 H258 0.950 . S
C227 N223 1.374 . S
C227 C226 1.439 . S
C227 C252 1.395 . S
N228 Co217 1.995 . S
N228 C229 1.376 . S
N228 C232 1.383 . S
C229 N228 1.376 . S
C229 C230 1.446 . S
C229 C252 1.391 . S
C230 C229 1.446 . S
C230 C231 1.339 . S
C230 H259 0.949 . S
C231 C230 1.339 . S
C231 C232 1.439 . S
C231 H260 0.950 . S
C232 N228 1.383 . S
C232 C231 1.439 . S
C232 C250 1.392 . S
N233 Co217 2.282 . S
N233 C236 1.332 . S
N233 C238 1.332 . S
C234 C235 1.386 . S
C234 C237 1.388 . S
C235 C234 1.386 . S
C235 C236 1.382 . S
C235 H261 0.950 . S
C236 N233 1.332 . S
C236 C235 1.382 . S
C236 H247 0.952 . S
C237 C234 1.388 . S
C237 C238 1.382 . S
C237 H262 0.950 . S
C238 N233 1.332 . S
C238 C237 1.382 . S
C238 H248 0.948 . S
N239 Co217 2.282 . S
N239 C243 1.332 . S
N239 C244 1.332 . S
C240 C241 1.388 . S
C240 C244 1.382 . S
C240 H263 0.950 . S
C241 C240 1.388 . S
C241 C242 1.386 . S
C242 C241 1.386 . S
C242 C243 1.382 . S
C242 H264 0.950 . S
C243 N239 1.332 . S
C243 C242 1.382 . S
C243 H245 0.952 . S
C244 N239 1.332 . S
C244 C240 1.382 . S
C244 H246 0.948 . S
H245 C243 0.952 . S
H246 C244 0.948 . S
H247 C236 0.952 . S
H248 C238 0.948 . S
C249 C215 1.395 . S
C249 C219 1.391 . S
C250 C212 1.389 . S
C250 C232 1.392 . S
C251 C222 1.392 . S
C251 C224 1.389 . S
C252 C227 1.395 . S
C252 C229 1.391 . S
H253 C213 0.951 . S
H254 C214 0.950 . S
H255 C220 0.949 . S
H256 C221 0.950 . S
H257 C225 0.951 . S
H258 C226 0.950 . S
H259 C230 0.949 . S
H260 C231 0.950 . S
H261 C235 0.950 . S
H262 C237 0.950 . S
H263 C240 0.950 . S
H264 C242 0.950 . S
C265 C266 1.443 . S
C265 N269 1.376 . S
C265 C303 1.389 . S
C266 C265 1.443 . S
C266 C267 1.340 . S
C266 H306 0.951 . S
C267 C266 1.340 . S
C267 C268 1.439 . S
C267 H307 0.950 . S
C268 C267 1.439 . S
C268 N269 1.374 . S
C268 C302 1.395 . S
N269 C265 1.376 . S
N269 C268 1.374 . S
N269 Co270 2.008 . S
Co270 N269 2.008 . S
Co270 N271 1.995 . S
Co270 N276 2.008 . S
Co270 N281 1.995 . S
Co270 N286 2.282 . S
Co270 N292 2.282 . S
N271 Co270 1.995 . S
N271 C272 1.376 . S
N271 C275 1.383 . S
C272 N271 1.376 . S
C272 C273 1.446 . S
C272 C302 1.391 . S
C273 C272 1.446 . S
C273 C274 1.339 . S
C273 H308 0.949 . S
C274 C273 1.339 . S
C274 C275 1.439 . S
C274 H309 0.950 . S
C275 N271 1.383 . S
C275 C274 1.439 . S
C275 C304 1.392 . S
N276 Co270 2.008 . S
N276 C277 1.376 . S
N276 C280 1.374 . S
C277 N276 1.376 . S
C277 C278 1.443 . S
C277 C304 1.389 . S
C278 C277 1.443 . S
C278 C279 1.340 . S
C278 H310 0.951 . S
C279 C278 1.340 . S
C279 C280 1.439 . S
C279 H311 0.950 . S
C280 N276 1.374 . S
C280 C279 1.439 . S
C280 C305 1.395 . S
N281 Co270 1.995 . S
N281 C282 1.376 . S
N281 C285 1.383 . S
C282 N281 1.376 . S
C282 C283 1.446 . S
C282 C305 1.391 . S
C283 C282 1.446 . S
C283 C284 1.339 . S
C283 H312 0.949 . S
C284 C283 1.339 . S
C284 C285 1.439 . S
C284 H313 0.950 . S
C285 N281 1.383 . S
C285 C284 1.439 . S
C285 C303 1.392 . S
N286 Co270 2.282 . S
N286 C289 1.332 . S
N286 C291 1.332 . S
C287 C288 1.386 . S
C287 C290 1.388 . S
C288 C287 1.386 . S
C288 C289 1.382 . S
C288 H314 0.950 . S
C289 N286 1.332 . S
C289 C288 1.382 . S
C289 H300 0.952 . S
C290 C287 1.388 . S
C290 C291 1.382 . S
C290 H315 0.950 . S
C291 N286 1.332 . S
C291 C290 1.382 . S
C291 H301 0.948 . S
N292 Co270 2.282 . S
N292 C296 1.332 . S
N292 C297 1.332 . S
C293 C294 1.388 . S
C293 C297 1.382 . S
C293 H316 0.950 . S
C294 C293 1.388 . S
C294 C295 1.386 . S
C295 C294 1.386 . S
C295 C296 1.382 . S
C295 H317 0.950 . S
C296 N292 1.332 . S
C296 C295 1.382 . S
C296 H298 0.952 . S
C297 N292 1.332 . S
C297 C293 1.382 . S
C297 H299 0.948 . S
H298 C296 0.952 . S
H299 C297 0.948 . S
H300 C289 0.952 . S
H301 C291 0.948 . S
C302 C268 1.395 . S
C302 C272 1.391 . S
C303 C265 1.389 . S
C303 C285 1.392 . S
C304 C275 1.392 . S
C304 C277 1.389 . S
C305 C280 1.395 . S
C305 C282 1.391 . S
H306 C266 0.951 . S
H307 C267 0.950 . S
H308 C273 0.949 . S
H309 C274 0.950 . S
H310 C278 0.951 . S
H311 C279 0.950 . S
H312 C283 0.949 . S
H313 C284 0.950 . S
H314 C288 0.950 . S
H315 C290 0.950 . S
H316 C293 0.950 . S
H317 C295 0.950 . S
C318 C319 1.443 . S
C318 N322 1.376 . S
C318 C356 1.389 . S
C319 C318 1.443 . S
C319 C320 1.340 . S
C319 H359 0.951 . S
C320 C319 1.340 . S
C320 C321 1.439 . S
C320 H360 0.950 . S
C321 C320 1.439 . S
C321 N322 1.374 . S
C321 C355 1.395 . S
N322 C318 1.376 . S
N322 C321 1.374 . S
N322 Co323 2.008 . S
Co323 N322 2.008 . S
Co323 N324 1.995 . S
Co323 N329 2.008 . S
Co323 N334 1.995 . S
Co323 N339 2.282 . S
Co323 N345 2.282 . S
N324 Co323 1.995 . S
N324 C325 1.376 . S
N324 C328 1.383 . S
C325 N324 1.376 . S
C325 C326 1.446 . S
C325 C355 1.391 . S
C326 C325 1.446 . S
C326 C327 1.339 . S
C326 H361 0.949 . S
C327 C326 1.339 . S
C327 C328 1.439 . S
C327 H362 0.950 . S
C328 N324 1.383 . S
C328 C327 1.439 . S
C328 C357 1.392 . S
N329 Co323 2.008 . S
N329 C330 1.376 . S
N329 C333 1.374 . S
C330 N329 1.376 . S
C330 C331 1.443 . S
C330 C357 1.389 . S
C331 C330 1.443 . S
C331 C332 1.340 . S
C331 H363 0.951 . S
C332 C331 1.340 . S
C332 C333 1.439 . S
C332 H364 0.950 . S
C333 N329 1.374 . S
C333 C332 1.439 . S
C333 C358 1.395 . S
N334 Co323 1.995 . S
N334 C335 1.376 . S
N334 C338 1.383 . S
C335 N334 1.376 . S
C335 C336 1.446 . S
C335 C358 1.391 . S
C336 C335 1.446 . S
C336 C337 1.339 . S
C336 H365 0.949 . S
C337 C336 1.339 . S
C337 C338 1.439 . S
C337 H366 0.950 . S
C338 N334 1.383 . S
C338 C337 1.439 . S
C338 C356 1.392 . S
N339 Co323 2.282 . S
N339 C342 1.332 . S
N339 C344 1.332 . S
C340 C341 1.386 . S
C340 C343 1.388 . S
C341 C340 1.386 . S
C341 C342 1.382 . S
C341 H367 0.950 . S
C342 N339 1.332 . S
C342 C341 1.382 . S
C342 H353 0.952 . S
C343 C340 1.388 . S
C343 C344 1.382 . S
C343 H368 0.950 . S
C344 N339 1.332 . S
C344 C343 1.382 . S
C344 H354 0.948 . S
N345 Co323 2.282 . S
N345 C349 1.332 . S
N345 C350 1.332 . S
C346 C347 1.388 . S
C346 C350 1.382 . S
C346 H369 0.950 . S
C347 C346 1.388 . S
C347 C348 1.386 . S
C348 C347 1.386 . S
C348 C349 1.382 . S
C348 H370 0.950 . S
C349 N345 1.332 . S
C349 C348 1.382 . S
C349 H351 0.952 . S
C350 N345 1.332 . S
C350 C346 1.382 . S
C350 H352 0.948 . S
H351 C349 0.952 . S
H352 C350 0.948 . S
H353 C342 0.952 . S
H354 C344 0.948 . S
C355 C321 1.395 . S
C355 C325 1.391 . S
C356 C318 1.389 . S
C356 C338 1.392 . S
C357 C328 1.392 . S
C357 C330 1.389 . S
C358 C333 1.395 . S
C358 C335 1.391 . S
H359 C319 0.951 . S
H360 C320 0.950 . S
H361 C326 0.949 . S
H362 C327 0.950 . S
H363 C331 0.951 . S
H364 C332 0.950 . S
H365 C336 0.949 . S
H366 C337 0.950 . S
H367 C341 0.950 . S
H368 C343 0.950 . S
H369 C346 0.950 . S
H370 C348 0.950 . S
C371 C372 1.443 . S
C371 N375 1.376 . S
C371 C409 1.389 . S
C372 C371 1.443 . S
C372 C373 1.340 . S
C372 H412 0.951 . S
C373 C372 1.340 . S
C373 C374 1.439 . S
C373 H413 0.950 . S
C374 C373 1.439 . S
C374 N375 1.374 . S
C374 C408 1.395 . S
N375 C371 1.376 . S
N375 C374 1.374 . S
N375 Co376 2.008 . S
Co376 N375 2.008 . S
Co376 N377 1.995 . S
Co376 N382 2.008 . S
Co376 N387 1.995 . S
Co376 N392 2.282 . S
Co376 N398 2.282 . S
N377 Co376 1.995 . S
N377 C378 1.376 . S
N377 C381 1.383 . S
C378 N377 1.376 . S
C378 C379 1.446 . S
C378 C408 1.391 . S
C379 C378 1.446 . S
C379 C380 1.339 . S
C379 H414 0.949 . S
C380 C379 1.339 . S
C380 C381 1.439 . S
C380 H415 0.950 . S
C381 N377 1.383 . S
C381 C380 1.439 . S
C381 C410 1.392 . S
N382 Co376 2.008 . S
N382 C383 1.376 . S
N382 C386 1.374 . S
C383 N382 1.376 . S
C383 C384 1.443 . S
C383 C410 1.389 . S
C384 C383 1.443 . S
C384 C385 1.340 . S
C384 H416 0.951 . S
C385 C384 1.340 . S
C385 C386 1.439 . S
C385 H417 0.950 . S
C386 N382 1.374 . S
C386 C385 1.439 . S
C386 C411 1.395 . S
N387 Co376 1.995 . S
N387 C388 1.376 . S
N387 C391 1.383 . S
C388 N387 1.376 . S
C388 C389 1.446 . S
C388 C411 1.391 . S
C389 C388 1.446 . S
C389 C390 1.339 . S
C389 H418 0.949 . S
C390 C389 1.339 . S
C390 C391 1.439 . S
C390 H419 0.950 . S
C391 N387 1.383 . S
C391 C390 1.439 . S
C391 C409 1.392 . S
N392 Co376 2.282 . S
N392 C395 1.332 . S
N392 C397 1.332 . S
C393 C394 1.386 . S
C393 C396 1.388 . S
C394 C393 1.386 . S
C394 C395 1.382 . S
C394 H420 0.950 . S
C395 N392 1.332 . S
C395 C394 1.382 . S
C395 H406 0.952 . S
C396 C393 1.388 . S
C396 C397 1.382 . S
C396 H421 0.950 . S
C397 N392 1.332 . S
C397 C396 1.382 . S
C397 H407 0.948 . S
N398 Co376 2.282 . S
N398 C402 1.332 1_556 S
N398 C403 1.332 1_556 S
C399 C400 1.388 . S
C399 C403 1.382 . S
C399 H422 0.950 . S
C400 C399 1.388 . S
C400 C401 1.386 . S
C401 C400 1.386 . S
C401 C402 1.382 . S
C401 H423 0.950 . S
C402 N398 1.332 1_554 S
C402 C401 1.382 . S
C402 H404 0.952 1_554 S
C403 N398 1.332 1_554 S
C403 C399 1.382 . S
C403 H405 0.948 1_554 S
H404 C402 0.952 1_556 S
H405 C403 0.948 1_556 S
H406 C395 0.952 . S
H407 C397 0.948 . S
C408 C374 1.395 . S
C408 C378 1.391 . S
C409 C371 1.389 . S
C409 C391 1.392 . S
C410 C381 1.392 . S
C410 C383 1.389 . S
C411 C386 1.395 . S
C411 C388 1.391 . S
H412 C372 0.951 . S
H413 C373 0.950 . S
H414 C379 0.949 . S
H415 C380 0.950 . S
H416 C384 0.951 . S
H417 C385 0.950 . S
H418 C389 0.949 . S
H419 C390 0.950 . S
H420 C394 0.950 . S
H421 C396 0.950 . S
H422 C399 0.950 . S
H423 C401 0.950 . S
C424 C425 1.443 . S
C424 N428 1.376 . S
C424 C462 1.389 . S
C425 C424 1.443 . S
C425 C426 1.340 . S
C425 H465 0.951 . S
C426 C425 1.340 . S
C426 C427 1.439 . S
C426 H466 0.950 . S
C427 C426 1.439 . S
C427 N428 1.374 . S
C427 C461 1.395 . S
N428 C424 1.376 . S
N428 C427 1.374 . S
N428 Co429 2.008 . S
Co429 N428 2.008 . S
Co429 N430 1.995 . S
Co429 N435 2.008 . S
Co429 N440 1.995 . S
Co429 N445 2.282 . S
Co429 N451 2.282 . S
N430 Co429 1.995 . S
N430 C431 1.376 . S
N430 C434 1.383 . S
C431 N430 1.376 . S
C431 C432 1.446 . S
C431 C461 1.391 . S
C432 C431 1.446 . S
C432 C433 1.339 . S
C432 H467 0.949 . S
C433 C432 1.339 . S
C433 C434 1.439 . S
C433 H468 0.950 . S
C434 N430 1.383 . S
C434 C433 1.439 . S
C434 C463 1.392 . S
N435 Co429 2.008 . S
N435 C436 1.376 . S
N435 C439 1.374 . S
C436 N435 1.376 . S
C436 C437 1.443 . S
C436 C463 1.389 . S
C437 C436 1.443 . S
C437 C438 1.340 . S
C437 H469 0.951 . S
C438 C437 1.340 . S
C438 C439 1.439 . S
C438 H470 0.950 . S
C439 N435 1.374 . S
C439 C438 1.439 . S
C439 C464 1.395 . S
N440 Co429 1.995 . S
N440 C441 1.376 . S
N440 C444 1.383 . S
C441 N440 1.376 . S
C441 C442 1.446 . S
C441 C464 1.391 . S
C442 C441 1.446 . S
C442 C443 1.339 . S
C442 H471 0.949 . S
C443 C442 1.339 . S
C443 C444 1.439 . S
C443 H472 0.950 . S
C444 N440 1.383 . S
C444 C443 1.439 . S
C444 C462 1.392 . S
N445 Co429 2.282 . S
N445 C448 1.332 . S
N445 C450 1.332 . S
C446 C447 1.386 . S
C446 C449 1.388 . S
C447 C446 1.386 . S
C447 C448 1.382 . S
C447 H473 0.950 . S
C448 N445 1.332 . S
C448 C447 1.382 . S
C448 H459 0.952 . S
C449 C446 1.388 . S
C449 C450 1.382 . S
C449 H474 0.950 . S
C450 N445 1.332 . S
C450 C449 1.382 . S
C450 H460 0.948 . S
N451 Co429 2.282 . S
N451 C455 1.332 . S
N451 C456 1.332 . S
C452 C453 1.388 . S
C452 C456 1.382 . S
C452 H475 0.950 . S
C453 C452 1.388 . S
C453 C454 1.386 . S
C454 C453 1.386 . S
C454 C455 1.382 . S
C454 H476 0.950 . S
C455 N451 1.332 . S
C455 C454 1.382 . S
C455 H457 0.952 . S
C456 N451 1.332 . S
C456 C452 1.382 . S
C456 H458 0.948 . S
H457 C455 0.952 . S
H458 C456 0.948 . S
H459 C448 0.952 . S
H460 C450 0.948 . S
C461 C427 1.395 . S
C461 C431 1.391 . S
C462 C424 1.389 . S
C462 C444 1.392 . S
C463 C434 1.392 . S
C463 C436 1.389 . S
C464 C439 1.395 . S
C464 C441 1.391 . S
H465 C425 0.951 . S
H466 C426 0.950 . S
H467 C432 0.949 . S
H468 C433 0.950 . S
H469 C437 0.951 . S
H470 C438 0.950 . S
H471 C442 0.949 . S
H472 C443 0.950 . S
H473 C447 0.950 . S
H474 C449 0.950 . S
H475 C452 0.950 . S
H476 C454 0.950 . S
C477 C478 1.443 . S
C477 N481 1.376 . S
C477 C515 1.389 . S
C478 C477 1.443 . S
C478 C479 1.340 . S
C478 H518 0.951 . S
C479 C478 1.340 . S
C479 C480 1.439 . S
C479 H519 0.950 . S
C480 C479 1.439 . S
C480 N481 1.374 . S
C480 C514 1.395 . S
N481 C477 1.376 . S
N481 C480 1.374 . S
N481 Co482 2.008 . S
Co482 N481 2.008 . S
Co482 N483 1.995 . S
Co482 N488 2.008 . S
Co482 N493 1.995 . S
Co482 N498 2.282 . S
Co482 N504 2.282 . S
N483 Co482 1.995 . S
N483 C484 1.376 . S
N483 C487 1.383 . S
C484 N483 1.376 . S
C484 C485 1.446 . S
C484 C514 1.391 . S
C485 C484 1.446 . S
C485 C486 1.339 . S
C485 H520 0.949 . S
C486 C485 1.339 . S
C486 C487 1.439 . S
C486 H521 0.950 . S
C487 N483 1.383 . S
C487 C486 1.439 . S
C487 C516 1.392 . S
N488 Co482 2.008 . S
N488 C489 1.376 . S
N488 C492 1.374 . S
C489 N488 1.376 . S
C489 C490 1.443 . S
C489 C516 1.389 . S
C490 C489 1.443 . S
C490 C491 1.340 . S
C490 H522 0.951 . S
C491 C490 1.340 . S
C491 C492 1.439 . S
C491 H523 0.950 . S
C492 N488 1.374 . S
C492 C491 1.439 . S
C492 C517 1.395 . S
N493 Co482 1.995 . S
N493 C494 1.376 . S
N493 C497 1.383 . S
C494 N493 1.376 . S
C494 C495 1.446 . S
C494 C517 1.391 . S
C495 C494 1.446 . S
C495 C496 1.339 . S
C495 H524 0.949 . S
C496 C495 1.339 . S
C496 C497 1.439 . S
C496 H525 0.950 . S
C497 N493 1.383 . S
C497 C496 1.439 . S
C497 C515 1.392 . S
N498 Co482 2.282 . S
N498 C501 1.332 . S
N498 C503 1.332 . S
C499 C500 1.386 . S
C499 C502 1.388 . S
C500 C499 1.386 . S
C500 C501 1.382 . S
C500 H526 0.950 . S
C501 N498 1.332 . S
C501 C500 1.382 . S
C501 H512 0.952 . S
C502 C499 1.388 . S
C502 C503 1.382 . S
C502 H527 0.950 . S
C503 N498 1.332 . S
C503 C502 1.382 . S
C503 H513 0.948 . S
N504 Co482 2.282 . S
N504 C508 1.332 . S
N504 C509 1.332 . S
C505 C506 1.388 . S
C505 C509 1.382 . S
C505 H528 0.950 . S
C506 C505 1.388 . S
C506 C507 1.386 . S
C507 C506 1.386 . S
C507 C508 1.382 . S
C507 H529 0.950 . S
C508 N504 1.332 . S
C508 C507 1.382 . S
C508 H510 0.952 . S
C509 N504 1.332 . S
C509 C505 1.382 . S
C509 H511 0.948 . S
H510 C508 0.952 . S
H511 C509 0.948 . S
H512 C501 0.952 . S
H513 C503 0.948 . S
C514 C480 1.395 . S
C514 C484 1.391 . S
C515 C477 1.389 . S
C515 C497 1.392 . S
C516 C487 1.392 . S
C516 C489 1.389 . S
C517 C492 1.395 . S
C517 C494 1.391 . S
H518 C478 0.951 . S
H519 C479 0.950 . S
H520 C485 0.949 . S
H521 C486 0.950 . S
H522 C490 0.951 . S
H523 C491 0.950 . S
H524 C495 0.949 . S
H525 C496 0.950 . S
H526 C500 0.950 . S
H527 C502 0.950 . S
H528 C505 0.950 . S
H529 C507 0.950 . S
C530 C531 1.443 . S
C530 N534 1.376 . S
C530 C568 1.389 . S
C531 C530 1.443 . S
C531 C532 1.340 . S
C531 H571 0.951 . S
C532 C531 1.340 . S
C532 C533 1.439 . S
C532 H572 0.950 . S
C533 C532 1.439 . S
C533 N534 1.374 . S
C533 C567 1.395 . S
N534 C530 1.376 . S
N534 C533 1.374 . S
N534 Co535 2.008 . S
Co535 N534 2.008 . S
Co535 N536 1.995 . S
Co535 N541 2.008 . S
Co535 N546 1.995 . S
Co535 N551 2.282 . S
Co535 N557 2.282 . S
N536 Co535 1.995 . S
N536 C537 1.376 . S
N536 C540 1.383 . S
C537 N536 1.376 . S
C537 C538 1.446 . S
C537 C567 1.391 . S
C538 C537 1.446 . S
C538 C539 1.339 . S
C538 H573 0.949 . S
C539 C538 1.339 . S
C539 C540 1.439 . S
C539 H574 0.950 . S
C540 N536 1.383 . S
C540 C539 1.439 . S
C540 C569 1.392 . S
N541 Co535 2.008 . S
N541 C542 1.376 . S
N541 C545 1.374 . S
C542 N541 1.376 . S
C542 C543 1.443 . S
C542 C569 1.389 . S
C543 C542 1.443 . S
C543 C544 1.340 . S
C543 H575 0.951 . S
C544 C543 1.340 . S
C544 C545 1.439 . S
C544 H576 0.950 . S
C545 N541 1.374 . S
C545 C544 1.439 . S
C545 C570 1.395 . S
N546 Co535 1.995 . S
N546 C547 1.376 . S
N546 C550 1.383 . S
C547 N546 1.376 . S
C547 C548 1.446 . S
C547 C570 1.391 . S
C548 C547 1.446 . S
C548 C549 1.339 . S
C548 H577 0.949 . S
C549 C548 1.339 . S
C549 C550 1.439 . S
C549 H578 0.950 . S
C550 N546 1.383 . S
C550 C549 1.439 . S
C550 C568 1.392 . S
N551 Co535 2.282 . S
N551 C554 1.332 . S
N551 C556 1.332 . S
C552 C553 1.386 . S
C552 C555 1.388 . S
C553 C552 1.386 . S
C553 C554 1.382 . S
C553 H579 0.950 . S
C554 N551 1.332 . S
C554 C553 1.382 . S
C554 H565 0.952 . S
C555 C552 1.388 . S
C555 C556 1.382 . S
C555 H580 0.950 . S
C556 N551 1.332 . S
C556 C555 1.382 . S
C556 H566 0.948 . S
N557 Co535 2.282 . S
N557 C561 1.332 1_556 S
N557 C562 1.332 1_556 S
C558 C559 1.388 . S
C558 C562 1.382 . S
C558 H581 0.950 . S
C559 C558 1.388 . S
C559 C560 1.386 . S
C560 C559 1.386 . S
C560 C561 1.382 . S
C560 H582 0.950 . S
C561 N557 1.332 1_554 S
C561 C560 1.382 . S
C561 H563 0.952 1_554 S
C562 N557 1.332 1_554 S
C562 C558 1.382 . S
C562 H564 0.948 1_554 S
H563 C561 0.952 1_556 S
H564 C562 0.948 1_556 S
H565 C554 0.952 . S
H566 C556 0.948 . S
C567 C533 1.395 . S
C567 C537 1.391 . S
C568 C530 1.389 . S
C568 C550 1.392 . S
C569 C540 1.392 . S
C569 C542 1.389 . S
C570 C545 1.395 . S
C570 C547 1.391 . S
H571 C531 0.951 . S
H572 C532 0.950 . S
H573 C538 0.949 . S
H574 C539 0.950 . S
H575 C543 0.951 . S
H576 C544 0.950 . S
H577 C548 0.949 . S
H578 C549 0.950 . S
H579 C553 0.950 . S
H580 C555 0.950 . S
H581 C558 0.950 . S
H582 C560 0.950 . S
C583 C584 1.443 . S
C583 N587 1.376 . S
C583 C621 1.389 . S
C584 C583 1.443 . S
C584 C585 1.340 . S
C584 H624 0.951 . S
C585 C584 1.340 . S
C585 C586 1.439 . S
C585 H625 0.950 . S
C586 C585 1.439 . S
C586 N587 1.374 . S
C586 C620 1.395 . S
N587 C583 1.376 . S
N587 C586 1.374 . S
N587 Co588 2.008 . S
Co588 N587 2.008 . S
Co588 N589 1.995 . S
Co588 N594 2.008 . S
Co588 N599 1.995 . S
Co588 N604 2.282 . S
Co588 N610 2.282 . S
N589 Co588 1.995 . S
N589 C590 1.376 . S
N589 C593 1.383 . S
C590 N589 1.376 . S
C590 C591 1.446 . S
C590 C620 1.391 . S
C591 C590 1.446 . S
C591 C592 1.339 . S
C591 H626 0.949 . S
C592 C591 1.339 . S
C592 C593 1.439 . S
C592 H627 0.950 . S
C593 N589 1.383 . S
C593 C592 1.439 . S
C593 C622 1.392 . S
N594 Co588 2.008 . S
N594 C595 1.376 . S
N594 C598 1.374 . S
C595 N594 1.376 . S
C595 C596 1.443 . S
C595 C622 1.389 . S
C596 C595 1.443 . S
C596 C597 1.340 . S
C596 H628 0.951 . S
C597 C596 1.340 . S
C597 C598 1.439 . S
C597 H629 0.950 . S
C598 N594 1.374 . S
C598 C597 1.439 . S
C598 C623 1.395 . S
N599 Co588 1.995 . S
N599 C600 1.376 . S
N599 C603 1.383 . S
C600 N599 1.376 . S
C600 C601 1.446 . S
C600 C623 1.391 . S
C601 C600 1.446 . S
C601 C602 1.339 . S
C601 H630 0.949 . S
C602 C601 1.339 . S
C602 C603 1.439 . S
C602 H631 0.950 . S
C603 N599 1.383 . S
C603 C602 1.439 . S
C603 C621 1.392 . S
N604 Co588 2.282 . S
N604 C607 1.332 . S
N604 C609 1.332 . S
C605 C606 1.386 . S
C605 C608 1.388 . S
C606 C605 1.386 . S
C606 C607 1.382 . S
C606 H632 0.950 . S
C607 N604 1.332 . S
C607 C606 1.382 . S
C607 H618 0.952 . S
C608 C605 1.388 . S
C608 C609 1.382 . S
C608 H633 0.950 . S
C609 N604 1.332 . S
C609 C608 1.382 . S
C609 H619 0.948 . S
N610 Co588 2.282 . S
N610 C614 1.332 . S
N610 C615 1.332 . S
C611 C612 1.388 . S
C611 C615 1.382 . S
C611 H634 0.950 . S
C612 C611 1.388 . S
C612 C613 1.386 . S
C613 C612 1.386 . S
C613 C614 1.382 . S
C613 H635 0.950 . S
C614 N610 1.332 . S
C614 C613 1.382 . S
C614 H616 0.952 . S
C615 N610 1.332 . S
C615 C611 1.382 . S
C615 H617 0.948 . S
H616 C614 0.952 . S
H617 C615 0.948 . S
H618 C607 0.952 . S
H619 C609 0.948 . S
C620 C586 1.395 . S
C620 C590 1.391 . S
C621 C583 1.389 . S
C621 C603 1.392 . S
C622 C593 1.392 . S
C622 C595 1.389 . S
C623 C598 1.395 . S
C623 C600 1.391 . S
H624 C584 0.951 . S
H625 C585 0.950 . S
H626 C591 0.949 . S
H627 C592 0.950 . S
H628 C596 0.951 . S
H629 C597 0.950 . S
H630 C601 0.949 . S
H631 C602 0.950 . S
H632 C606 0.950 . S
H633 C608 0.950 . S
H634 C611 0.950 . S
H635 C613 0.950 . S
H636 C642 0.930 . S
H637 C645 0.930 . S
H638 C646 0.930 . S
H639 C647 0.930 . S
H640 C650 0.930 . S
H641 C651 0.930 . S
C642 H636 0.930 . S
C642 C643 1.355 . S
C642 C644 1.415 . S
C643 C642 1.355 . S
C643 C645 1.419 . S
C644 C642 1.415 . S
C644 C649 1.425 . S
C644 C651 1.409 . S
C645 H637 0.930 . S
C645 C643 1.419 . S
C645 C646 1.362 . S
C646 H638 0.930 . S
C646 C645 1.362 . S
C646 C649 1.409 . S
C647 H639 0.930 . S
C647 C648 1.355 . S
C647 C649 1.415 . S
C648 C647 1.355 . S
C648 C650 1.419 . S
C649 C644 1.425 . S
C649 C646 1.409 . S
C649 C647 1.415 . S
C650 H640 0.930 . S
C650 C648 1.419 . S
C650 C651 1.362 . S
C651 H641 0.930 . S
C651 C644 1.409 . S
C651 C650 1.362 . S
H652 C658 0.930 . S
H653 C661 0.930 . S
H654 C662 0.930 . S
H655 C663 0.930 . S
H656 C666 0.930 . S
H657 C667 0.930 . S
C658 H652 0.930 . S
C658 C659 1.355 . S
C658 C660 1.415 . S
C659 C658 1.355 . S
C659 C661 1.419 . S
C660 C658 1.415 . S
C660 C665 1.425 . S
C660 C667 1.409 . S
C661 H653 0.930 . S
C661 C659 1.419 . S
C661 C662 1.362 . S
C662 H654 0.930 . S
C662 C661 1.362 . S
C662 C665 1.409 . S
C663 H655 0.930 . S
C663 C664 1.355 . S
C663 C665 1.415 . S
C664 C663 1.355 . S
C664 C666 1.419 . S
C665 C660 1.425 . S
C665 C662 1.409 . S
C665 C663 1.415 . S
C666 H656 0.930 . S
C666 C664 1.419 . S
C666 C667 1.362 . S
C667 H657 0.930 . S
C667 C660 1.409 . S
C667 C666 1.362 . S
H668 C674 0.930 . S
H669 C677 0.930 . S
H670 C678 0.930 . S
H671 C679 0.930 . S
H672 C682 0.930 . S
H673 C683 0.930 . S
C674 H668 0.930 . S
C674 C675 1.355 . S
C674 C676 1.415 . S
C675 C674 1.355 . S
C675 C677 1.419 . S
C676 C674 1.415 . S
C676 C681 1.425 1_556 S
C676 C683 1.409 1_556 S
C677 H669 0.930 . S
C677 C675 1.419 . S
C677 C678 1.362 . S
C678 H670 0.930 . S
C678 C677 1.362 . S
C678 C681 1.409 1_556 S
C679 H671 0.930 . S
C679 C680 1.355 . S
C679 C681 1.415 . S
C680 C679 1.355 . S
C680 C682 1.419 . S
C681 C676 1.425 1_554 S
C681 C678 1.409 1_554 S
C681 C679 1.415 . S
C682 H672 0.930 . S
C682 C680 1.419 . S
C682 C683 1.362 . S
C683 H673 0.930 . S
C683 C676 1.409 1_554 S
C683 C682 1.362 . S
H684 C690 0.930 . S
H685 C693 0.930 . S
H686 C694 0.930 . S
H687 C695 0.930 . S
H688 C698 0.930 . S
H689 C699 0.930 . S
C690 H684 0.930 . S
C690 C691 1.355 . S
C690 C692 1.415 . S
C691 C690 1.355 . S
C691 C693 1.419 . S
C692 C690 1.415 . S
C692 C697 1.425 . S
C692 C699 1.409 . S
C693 H685 0.930 . S
C693 C691 1.419 . S
C693 C694 1.362 . S
C694 H686 0.930 . S
C694 C693 1.362 . S
C694 C697 1.409 . S
C695 H687 0.930 . S
C695 C696 1.355 . S
C695 C697 1.415 . S
C696 C695 1.355 . S
C696 C698 1.419 . S
C697 C692 1.425 . S
C697 C694 1.409 . S
C697 C695 1.415 . S
C698 H688 0.930 . S
C698 C696 1.419 . S
C698 C699 1.362 . S
C699 H689 0.930 . S
C699 C692 1.409 . S
C699 C698 1.362 . S
H700 C706 0.930 . S
H701 C709 0.930 . S
H702 C710 0.930 . S
H703 C711 0.930 . S
H704 C714 0.930 . S
H705 C715 0.930 . S
C706 H700 0.930 . S
C706 C707 1.355 . S
C706 C708 1.415 . S
C707 C706 1.355 . S
C707 C709 1.419 . S
C708 C706 1.415 . S
C708 C713 1.425 . S
C708 C715 1.409 . S
C709 H701 0.930 . S
C709 C707 1.419 . S
C709 C710 1.362 . S
C710 H702 0.930 . S
C710 C709 1.362 . S
C710 C713 1.409 . S
C711 H703 0.930 . S
C711 C712 1.355 . S
C711 C713 1.415 . S
C712 C711 1.355 . S
C712 C714 1.419 . S
C713 C708 1.425 . S
C713 C710 1.409 . S
C713 C711 1.415 . S
C714 H704 0.930 . S
C714 C712 1.419 . S
C714 C715 1.362 . S
C715 H705 0.930 . S
C715 C708 1.409 . S
C715 C714 1.362 . S
H716 C722 0.930 . S
H717 C725 0.930 . S
H718 C726 0.930 . S
H719 C727 0.930 . S
H720 C730 0.930 . S
H721 C731 0.930 . S
C722 H716 0.930 . S
C722 C723 1.355 . S
C722 C724 1.415 . S
C723 C722 1.355 . S
C723 C725 1.419 . S
C724 C722 1.415 . S
C724 C729 1.425 1_554 S
C724 C731 1.409 1_554 S
C725 H717 0.930 . S
C725 C723 1.419 . S
C725 C726 1.362 . S
C726 H718 0.930 . S
C726 C725 1.362 . S
C726 C729 1.409 1_554 S
C727 H719 0.930 . S
C727 C728 1.355 . S
C727 C729 1.415 . S
C728 C727 1.355 . S
C728 C730 1.419 . S
C729 C724 1.425 1_556 S
C729 C726 1.409 1_556 S
C729 C727 1.415 . S
C730 H720 0.930 . S
C730 C728 1.419 . S
C730 C731 1.362 . S
C731 H721 0.930 . S
C731 C724 1.409 1_556 S
C731 C730 1.362 . S
H732 C738 0.930 1_556 S
H733 C741 0.930 . S
H734 C742 0.930 . S
H735 C743 0.930 1_554 S
H736 C746 0.930 . S
H737 C747 0.930 . S
C738 H732 0.930 1_554 S
C738 C739 1.355 . S
C738 C740 1.415 1_554 S
C739 C738 1.355 . S
C739 C741 1.419 . S
C740 C738 1.415 1_556 S
C740 C745 1.425 1_556 S
C740 C747 1.409 . S
C741 H733 0.930 . S
C741 C739 1.419 . S
C741 C742 1.362 . S
C742 H734 0.930 . S
C742 C741 1.362 . S
C742 C745 1.409 . S
C743 H735 0.930 1_556 S
C743 C744 1.355 . S
C743 C745 1.415 1_556 S
C744 C743 1.355 . S
C744 C746 1.419 . S
C745 C740 1.425 1_554 S
C745 C742 1.409 . S
C745 C743 1.415 1_554 S
C746 H736 0.930 . S
C746 C744 1.419 . S
C746 C747 1.362 . S
C747 H737 0.930 . S
C747 C740 1.409 . S
C747 C746 1.362 . S
H748 C754 0.930 . S
H749 C757 0.930 . S
H750 C758 0.930 . S
H751 C759 0.930 . S
H752 C762 0.930 . S
H753 C763 0.930 . S
C754 H748 0.930 . S
C754 C755 1.355 . S
C754 C756 1.415 . S
C755 C754 1.355 . S
C755 C757 1.419 . S
C756 C754 1.415 . S
C756 C761 1.425 . S
C756 C763 1.409 . S
C757 H749 0.930 . S
C757 C755 1.419 . S
C757 C758 1.362 . S
C758 H750 0.930 . S
C758 C757 1.362 . S
C758 C761 1.409 . S
C759 H751 0.930 . S
C759 C760 1.355 . S
C759 C761 1.415 . S
C760 C759 1.355 . S
C760 C762 1.419 . S
C761 C756 1.425 . S
C761 C758 1.409 . S
C761 C759 1.415 . S
C762 H752 0.930 . S
C762 C760 1.419 . S
C762 C763 1.362 . S
C763 H753 0.930 . S
C763 C756 1.409 . S
C763 C762 1.362 . S
H764 C770 0.930 . S
H765 C773 0.930 . S
H766 C774 0.930 . S
H767 C775 0.930 . S
H768 C778 0.930 . S
H769 C779 0.930 . S
C770 H764 0.930 . S
C770 C771 1.355 . S
C770 C772 1.415 . S
C771 C770 1.355 . S
C771 C773 1.419 . S
C772 C770 1.415 . S
C772 C777 1.425 . S
C772 C779 1.409 . S
C773 H765 0.930 . S
C773 C771 1.419 . S
C773 C774 1.362 . S
C774 H766 0.930 . S
C774 C773 1.362 . S
C774 C777 1.409 . S
C775 H767 0.930 . S
C775 C776 1.355 . S
C775 C777 1.415 . S
C776 C775 1.355 . S
C776 C778 1.419 . S
C777 C772 1.425 . S
C777 C774 1.409 . S
C777 C775 1.415 . S
C778 H768 0.930 . S
C778 C776 1.419 . S
C778 C779 1.362 . S
C779 H769 0.930 . S
C779 C772 1.409 . S
C779 C778 1.362 . S
H780 C786 0.930 1_556 S
H781 C789 0.930 . S
H782 C790 0.930 . S
H783 C791 0.930 1_554 S
H784 C794 0.930 . S
H785 C795 0.930 . S
C786 H780 0.930 1_554 S
C786 C787 1.355 . S
C786 C788 1.415 1_554 S
C787 C786 1.355 . S
C787 C789 1.419 . S
C788 C786 1.415 1_556 S
C788 C793 1.425 1_556 S
C788 C795 1.409 . S
C789 H781 0.930 . S
C789 C787 1.419 . S
C789 C790 1.362 . S
C790 H782 0.930 . S
C790 C789 1.362 . S
C790 C793 1.409 . S
C791 H783 0.930 1_556 S
C791 C792 1.355 . S
C791 C793 1.415 1_556 S
C792 C791 1.355 . S
C792 C794 1.419 . S
C793 C788 1.425 1_554 S
C793 C790 1.409 . S
C793 C791 1.415 1_554 S
C794 H784 0.930 . S
C794 C792 1.419 . S
C794 C795 1.362 . S
C795 H785 0.930 . S
C795 C788 1.409 . S
C795 C794 1.362 . S
H796 C802 0.930 . S
H797 C805 0.930 . S
H798 C806 0.930 . S
H799 C807 0.930 . S
H800 C810 0.930 . S
H801 C811 0.930 . S
C802 H796 0.930 . S
C802 C803 1.355 . S
C802 C804 1.415 . S
C803 C802 1.355 . S
C803 C805 1.419 . S
C804 C802 1.415 . S
C804 C809 1.425 . S
C804 C811 1.409 . S
C805 H797 0.930 . S
C805 C803 1.419 . S
C805 C806 1.362 . S
C806 H798 0.930 . S
C806 C805 1.362 . S
C806 C809 1.409 . S
C807 H799 0.930 . S
C807 C808 1.355 . S
C807 C809 1.415 . S
C808 C807 1.355 . S
C808 C810 1.419 . S
C809 C804 1.425 . S
C809 C806 1.409 . S
C809 C807 1.415 . S
C810 H800 0.930 . S
C810 C808 1.419 . S
C810 C811 1.362 . S
C811 H801 0.930 . S
C811 C804 1.409 . S
C811 C810 1.362 . S
H812 C818 0.930 . S
H813 C821 0.930 . S
H814 C822 0.930 . S
H815 C823 0.930 . S
H816 C826 0.930 . S
H817 C827 0.930 . S
C818 H812 0.930 . S
C818 C819 1.355 . S
C818 C820 1.415 . S
C819 C818 1.355 . S
C819 C821 1.419 . S
C820 C818 1.415 . S
C820 C825 1.425 . S
C820 C827 1.409 . S
C821 H813 0.930 . S
C821 C819 1.419 . S
C821 C822 1.362 . S
C822 H814 0.930 . S
C822 C821 1.362 . S
C822 C825 1.409 . S
C823 H815 0.930 . S
C823 C824 1.355 . S
C823 C825 1.415 . S
C824 C823 1.355 . S
C824 C826 1.419 . S
C825 C820 1.425 . S
C825 C822 1.409 . S
C825 C823 1.415 . S
C826 H816 0.930 . S
C826 C824 1.419 . S
C826 C827 1.362 . S
C827 H817 0.930 . S
C827 C820 1.409 . S
C827 C826 1.362 . S
H828 C834 0.930 . S
H829 C837 0.930 . S
H830 C838 0.930 . S
H831 C839 0.930 . S
H832 C842 0.930 . S
H833 C843 0.930 . S
C834 H828 0.930 . S
C834 C835 1.355 . S
C834 C836 1.415 . S
C835 C834 1.355 . S
C835 C837 1.419 . S
C836 C834 1.415 . S
C836 C841 1.425 . S
C836 C843 1.409 . S
C837 H829 0.930 . S
C837 C835 1.419 . S
C837 C838 1.362 . S
C838 H830 0.930 . S
C838 C837 1.362 . S
C838 C841 1.409 . S
C839 H831 0.930 . S
C839 C840 1.355 . S
C839 C841 1.415 . S
C840 C839 1.355 . S
C840 C842 1.419 . S
C841 C836 1.425 . S
C841 C838 1.409 . S
C841 C839 1.415 . S
C842 H832 0.930 . S
C842 C840 1.419 . S
C842 C843 1.362 . S
C843 H833 0.930 . S
C843 C836 1.409 . S
C843 C842 1.362 . S
H844 C850 0.930 . S
H845 C853 0.930 . S
H846 C854 0.930 . S
H847 C855 0.930 . S
H848 C858 0.930 . S
H849 C859 0.930 . S
C850 H844 0.930 . S
C850 C851 1.355 . S
C850 C852 1.415 . S
C851 C850 1.355 . S
C851 C853 1.419 . S
C852 C850 1.415 . S
C852 C857 1.425 1_655 S
C852 C859 1.409 1_655 S
C853 H845 0.930 . S
C853 C851 1.419 . S
C853 C854 1.362 . S
C854 H846 0.930 . S
C854 C853 1.362 . S
C854 C857 1.409 1_655 S
C855 H847 0.930 . S
C855 C856 1.355 . S
C855 C857 1.415 . S
C856 C855 1.355 . S
C856 C858 1.419 . S
C857 C852 1.425 1_455 S
C857 C854 1.409 1_455 S
C857 C855 1.415 . S
C858 H848 0.930 . S
C858 C856 1.419 . S
C858 C859 1.362 . S
C859 H849 0.930 . S
C859 C852 1.409 1_455 S
C859 C858 1.362 . S
H860 C866 0.930 . S
H861 C869 0.930 . S
H862 C870 0.930 . S
H863 C871 0.930 . S
H864 C874 0.930 . S
H865 C875 0.930 . S
C866 H860 0.930 . S
C866 C867 1.355 . S
C866 C868 1.415 . S
C867 C866 1.355 . S
C867 C869 1.419 . S
C868 C866 1.415 . S
C868 C873 1.425 1_545 S
C868 C875 1.409 1_545 S
C869 H861 0.930 . S
C869 C867 1.419 . S
C869 C870 1.362 . S
C870 H862 0.930 . S
C870 C869 1.362 . S
C870 C873 1.409 1_545 S
C871 H863 0.930 . S
C871 C872 1.355 . S
C871 C873 1.415 . S
C872 C871 1.355 . S
C872 C874 1.419 . S
C873 C868 1.425 1_565 S
C873 C870 1.409 1_565 S
C873 C871 1.415 . S
C874 H864 0.930 . S
C874 C872 1.419 . S
C874 C875 1.362 . S
C875 H865 0.930 . S
C875 C868 1.409 1_565 S
C875 C874 1.362 . S
H876 C882 0.930 . S
H877 C885 0.930 . S
H878 C886 0.930 . S
H879 C887 0.930 . S
H880 C890 0.930 . S
H881 C891 0.930 . S
C882 H876 0.930 . S
C882 C883 1.355 . S
C882 C884 1.415 . S
C883 C882 1.355 . S
C883 C885 1.419 . S
C884 C882 1.415 . S
C884 C889 1.425 . S
C884 C891 1.409 . S
C885 H877 0.930 . S
C885 C883 1.419 . S
C885 C886 1.362 . S
C886 H878 0.930 . S
C886 C885 1.362 . S
C886 C889 1.409 . S
C887 H879 0.930 . S
C887 C888 1.355 . S
C887 C889 1.415 . S
C888 C887 1.355 . S
C888 C890 1.419 . S
C889 C884 1.425 . S
C889 C886 1.409 . S
C889 C887 1.415 . S
C890 H880 0.930 . S
C890 C888 1.419 . S
C890 C891 1.362 . S
C891 H881 0.930 . S
C891 C884 1.409 . S
C891 C890 1.362 . S
H892 C898 0.930 . S
H893 C901 0.930 . S
H894 C902 0.930 . S
H895 C903 0.930 . S
H896 C906 0.930 . S
H897 C907 0.930 . S
C898 H892 0.930 . S
C898 C899 1.355 . S
C898 C900 1.415 . S
C899 C898 1.355 . S
C899 C901 1.419 . S
C900 C898 1.415 . S
C900 C905 1.425 1_455 S
C900 C907 1.409 1_455 S
C901 H893 0.930 . S
C901 C899 1.419 . S
C901 C902 1.362 . S
C902 H894 0.930 . S
C902 C901 1.362 . S
C902 C905 1.409 1_455 S
C903 H895 0.930 . S
C903 C904 1.355 . S
C903 C905 1.415 . S
C904 C903 1.355 . S
C904 C906 1.419 . S
C905 C900 1.425 1_655 S
C905 C902 1.409 1_655 S
C905 C903 1.415 . S
C906 H896 0.930 . S
C906 C904 1.419 . S
C906 C907 1.362 . S
C907 H897 0.930 . S
C907 C900 1.409 1_655 S
C907 C906 1.362 . S
H908 C914 0.930 . S
H909 C917 0.930 . S
H910 C918 0.930 . S
H911 C919 0.930 . S
H912 C922 0.930 . S
H913 C923 0.930 . S
C914 H908 0.930 . S
C914 C915 1.355 . S
C914 C916 1.415 . S
C915 C914 1.355 . S
C915 C917 1.419 . S
C916 C914 1.415 . S
C916 C921 1.425 1_565 S
C916 C923 1.409 1_565 S
C917 H909 0.930 . S
C917 C915 1.419 . S
C917 C918 1.362 . S
C918 H910 0.930 . S
C918 C917 1.362 . S
C918 C921 1.409 1_565 S
C919 H911 0.930 . S
C919 C920 1.355 . S
C919 C921 1.415 . S
C920 C919 1.355 . S
C920 C922 1.419 . S
C921 C916 1.425 1_545 S
C921 C918 1.409 1_545 S
C921 C919 1.415 . S
C922 H912 0.930 . S
C922 C920 1.419 . S
C922 C923 1.362 . S
C923 H913 0.930 . S
C923 C916 1.409 1_545 S
C923 C922 1.362 . S
H924 C930 0.930 . S
H925 C933 0.930 . S
H926 C934 0.930 . S
H927 C935 0.930 . S
H928 C938 0.930 . S
H929 C939 0.930 . S
C930 H924 0.930 . S
C930 C931 1.355 . S
C930 C932 1.415 . S
C931 C930 1.355 . S
C931 C933 1.419 . S
C932 C930 1.415 . S
C932 C937 1.425 . S
C932 C939 1.409 . S
C933 H925 0.930 . S
C933 C931 1.419 . S
C933 C934 1.362 . S
C934 H926 0.930 . S
C934 C933 1.362 . S
C934 C937 1.409 . S
C935 H927 0.930 . S
C935 C936 1.355 . S
C935 C937 1.415 . S
C936 C935 1.355 . S
C936 C938 1.419 . S
C937 C932 1.425 . S
C937 C934 1.409 . S
C937 C935 1.415 . S
C938 H928 0.930 . S
C938 C936 1.419 . S
C938 C939 1.362 . S
C939 H929 0.930 . S
C939 C932 1.409 . S
C939 C938 1.362 . S
H940 C946 0.930 . S
H941 C949 0.930 . S
H942 C950 0.930 . S
H943 C951 0.930 . S
H944 C954 0.930 . S
H945 C955 0.930 . S
C946 H940 0.930 . S
C946 C947 1.355 . S
C946 C948 1.415 . S
C947 C946 1.355 . S
C947 C949 1.419 . S
C948 C946 1.415 . S
C948 C953 1.425 . S
C948 C955 1.409 . S
C949 H941 0.930 . S
C949 C947 1.419 . S
C949 C950 1.362 . S
C950 H942 0.930 . S
C950 C949 1.362 . S
C950 C953 1.409 . S
C951 H943 0.930 . S
C951 C952 1.355 . S
C951 C953 1.415 . S
C952 C951 1.355 . S
C952 C954 1.419 . S
C953 C948 1.425 . S
C953 C950 1.409 . S
C953 C951 1.415 . S
C954 H944 0.930 . S
C954 C952 1.419 . S
C954 C955 1.362 . S
C955 H945 0.930 . S
C955 C948 1.409 . S
C955 C954 1.362 . S
H956 C962 0.930 . S
H957 C965 0.930 . S
H958 C966 0.930 . S
H959 C967 0.930 . S
H960 C970 0.930 . S
H961 C971 0.930 . S
C962 H956 0.930 . S
C962 C963 1.355 . S
C962 C964 1.415 . S
C963 C962 1.355 . S
C963 C965 1.419 . S
C964 C962 1.415 . S
C964 C969 1.425 . S
C964 C971 1.409 . S
C965 H957 0.930 . S
C965 C963 1.419 . S
C965 C966 1.362 . S
C966 H958 0.930 . S
C966 C965 1.362 . S
C966 C969 1.409 . S
C967 H959 0.930 . S
C967 C968 1.355 . S
C967 C969 1.415 . S
C968 C967 1.355 . S
C968 C970 1.419 . S
C969 C964 1.425 . S
C969 C966 1.409 . S
C969 C967 1.415 . S
C970 H960 0.930 . S
C970 C968 1.419 . S
C970 C971 1.362 . S
C971 H961 0.930 . S
C971 C964 1.409 . S
C971 C970 1.362 . S
H972 C978 0.930 . S
H973 C981 0.930 . S
H974 C982 0.930 . S
H975 C983 0.930 . S
H976 C986 0.930 . S
H977 C987 0.930 . S
C978 H972 0.930 . S
C978 C979 1.355 . S
C978 C980 1.415 . S
C979 C978 1.355 . S
C979 C981 1.419 . S
C980 C978 1.415 . S
C980 C985 1.425 . S
C980 C987 1.409 . S
C981 H973 0.930 . S
C981 C979 1.419 . S
C981 C982 1.362 . S
C982 H974 0.930 . S
C982 C981 1.362 . S
C982 C985 1.409 . S
C983 H975 0.930 . S
C983 C984 1.355 . S
C983 C985 1.415 . S
C984 C983 1.355 . S
C984 C986 1.419 . S
C985 C980 1.425 . S
C985 C982 1.409 . S
C985 C983 1.415 . S
C986 H976 0.930 . S
C986 C984 1.419 . S
C986 C987 1.362 . S
C987 H977 0.930 . S
C987 C980 1.409 . S
C987 C986 1.362 . S
H988 C994 0.930 . S
H989 C997 0.930 . S
H990 C998 0.930 . S
H991 C999 0.930 . S
H992 C1002 0.930 . S
H993 C1003 0.930 . S
C994 H988 0.930 . S
C994 C995 1.355 . S
C994 C996 1.415 . S
C995 C994 1.355 . S
C995 C997 1.419 . S
C996 C994 1.415 . S
C996 C1001 1.425 . S
C996 C1003 1.409 . S
C997 H989 0.930 . S
C997 C995 1.419 . S
C997 C998 1.362 . S
C998 H990 0.930 . S
C998 C997 1.362 . S
C998 C1001 1.409 . S
C999 H991 0.930 . S
C999 C1000 1.355 . S
C999 C1001 1.415 . S
C1000 C999 1.355 . S
C1000 C1002 1.419 . S
C1001 C996 1.425 . S
C1001 C998 1.409 . S
C1001 C999 1.415 . S
C1002 H992 0.930 . S
C1002 C1000 1.419 . S
C1002 C1003 1.362 . S
C1003 H993 0.930 . S
C1003 C996 1.409 . S
C1003 C1002 1.362 . S
H1004 C1010 0.930 . S
H1005 C1013 0.930 . S
H1006 C1014 0.930 . S
H1007 C1015 0.930 . S
H1008 C1018 0.930 . S
H1009 C1019 0.930 . S
C1010 H1004 0.930 . S
C1010 C1011 1.355 . S
C1010 C1012 1.415 . S
C1011 C1010 1.355 . S
C1011 C1013 1.419 . S
C1012 C1010 1.415 . S
C1012 C1017 1.425 . S
C1012 C1019 1.409 . S
C1013 H1005 0.930 . S
C1013 C1011 1.419 . S
C1013 C1014 1.362 . S
C1014 H1006 0.930 . S
C1014 C1013 1.362 . S
C1014 C1017 1.409 . S
C1015 H1007 0.930 . S
C1015 C1016 1.355 . S
C1015 C1017 1.415 . S
C1016 C1015 1.355 . S
C1016 C1018 1.419 . S
C1017 C1012 1.425 . S
C1017 C1014 1.409 . S
C1017 C1015 1.415 . S
C1018 H1008 0.930 . S
C1018 C1016 1.419 . S
C1018 C1019 1.362 . S
C1019 H1009 0.930 . S
C1019 C1012 1.409 . S
C1019 C1018 1.362 . S
C643 C22 1.631 . S
C648 C340 1.620 . S
C659 C75 1.635 . S
C664 C393 1.636 . S
C675 C128 1.620 . S
C680 C446 1.616 . S
C691 C181 1.617 . S
C696 C499 1.626 . S
C707 C234 1.626 . S
C712 C552 1.636 . S
C723 C605 1.622 . S
C728 C287 1.616 . S
C739 C38 1.860 . S
C744 C568 1.849 . S
C755 C91 1.829 . S
C760 C621 1.838 . S
C771 C144 1.854 . S
C776 C356 1.857 . S
C787 C197 1.854 . S
C792 C409 1.857 . S
C803 C250 1.832 . S
C808 C462 1.859 . S
C819 C303 1.847 . S
C824 C515 1.861 . S
C835 C39 1.942 . S
C840 C198 1.926 . S
C851 C92 1.928 . S
C856 C251 1.941 . S
C867 C304 1.898 . S
C872 C145 1.894 . S
C883 C357 1.891 . S
C888 C516 1.904 . S
C899 C569 1.926 . S
C904 C410 1.896 . S
C915 C463 1.897 . S
C920 C622 1.895 . S
C931 C347 1.338 . S
C936 C29 1.337 . S
C947 C82 1.299 . S
C952 C400 1.303 . S
C963 C135 1.339 . S
C968 C453 1.335 . S
C979 C506 1.315 . S
C984 C188 1.329 . S
C995 C559 1.339 . S
C1000 C241 1.333 . S
C1011 C294 1.332 . S
C1016 C612 1.320 . S
