# Generated by pormake.
# Topology wlm, (5)-cn, num edge types: 1
# Building blocks:
#     Node 0, Type 0, BuildingBlock: BEQFEK_clean_sbu_0, # of connection points: 5
#     Node 1, Type 0, BuildingBlock: BEQFEK_clean_sbu_0, # of connection points: 5
#     Node 2, Type 0, BuildingBlock: BEQFEK_clean_sbu_0, # of connection points: 5
#     Node 3, Type 0, BuildingBlock: BEQFEK_clean_sbu_0, # of connection points: 5
#     Node 4, Type 0, BuildingBlock: BEQFEK_clean_sbu_0, # of connection points: 5
#     Node 5, Type 0, BuildingBlock: BEQFEK_clean_sbu_0, # of connection points: 5
#     Node 6, Type 0, BuildingBlock: BEQFEK_clean_sbu_0, # of connection points: 5
#     Node 7, Type 0, BuildingBlock: BEQFEK_clean_sbu_0, # of connection points: 5
#     Node 8, Type 0, BuildingBlock: BEQFEK_clean_sbu_0, # of connection points: 5
#     Node 9, Type 0, BuildingBlock: BEQFEK_clean_sbu_0, # of connection points: 5
#     Node 10, Type 0, BuildingBlock: BEQFEK_clean_sbu_0, # of connection points: 5
#     Node 11, Type 0, BuildingBlock: BEQFEK_clean_sbu_0, # of connection points: 5
#     Node 12, Type 0, BuildingBlock: BEQFEK_clean_sbu_0, # of connection points: 5
#     Node 13, Type 0, BuildingBlock: BEQFEK_clean_sbu_0, # of connection points: 5
#     Node 14, Type 0, BuildingBlock: BEQFEK_clean_sbu_0, # of connection points: 5
#     Node 15, Type 0, BuildingBlock: BEQFEK_clean_sbu_0, # of connection points: 5
#     Node 16, Type 0, BuildingBlock: BEQFEK_clean_sbu_0, # of connection points: 5
#     Node 17, Type 0, BuildingBlock: BEQFEK_clean_sbu_0, # of connection points: 5
#     Node 18, Type 0, BuildingBlock: BEQFEK_clean_sbu_0, # of connection points: 5
#     Node 19, Type 0, BuildingBlock: BEQFEK_clean_sbu_0, # of connection points: 5
#     Node 20, Type 0, BuildingBlock: BEQFEK_clean_sbu_0, # of connection points: 5
#     Node 21, Type 0, BuildingBlock: BEQFEK_clean_sbu_0, # of connection points: 5
#     Node 22, Type 0, BuildingBlock: BEQFEK_clean_sbu_0, # of connection points: 5
#     Node 23, Type 0, BuildingBlock: BEQFEK_clean_sbu_0, # of connection points: 5
#     Node 24, Type 0, BuildingBlock: BEQFEK_clean_sbu_0, # of connection points: 5
#     Node 25, Type 0, BuildingBlock: BEQFEK_clean_sbu_0, # of connection points: 5
#     Node 26, Type 0, BuildingBlock: BEQFEK_clean_sbu_0, # of connection points: 5
#     Node 27, Type 0, BuildingBlock: BEQFEK_clean_sbu_0, # of connection points: 5
#     Node 28, Type 0, BuildingBlock: BEQFEK_clean_sbu_0, # of connection points: 5
#     Node 29, Type 0, BuildingBlock: BEQFEK_clean_sbu_0, # of connection points: 5
#     Node 30, Type 0, BuildingBlock: BEQFEK_clean_sbu_0, # of connection points: 5
#     Node 31, Type 0, BuildingBlock: BEQFEK_clean_sbu_0, # of connection points: 5
#     Node 32, Type 0, BuildingBlock: BEQFEK_clean_sbu_0, # of connection points: 5
#     Node 33, Type 0, BuildingBlock: BEQFEK_clean_sbu_0, # of connection points: 5
#     Node 34, Type 0, BuildingBlock: BEQFEK_clean_sbu_0, # of connection points: 5
#     Node 35, Type 0, BuildingBlock: BEQFEK_clean_sbu_0, # of connection points: 5
#     Edge 36, Type (0, 0), BuildingBlock: EZIPEK_clean_linker_0, # of connection points: 2
#     Edge 37, Type (0, 0), BuildingBlock: EZIPEK_clean_linker_0, # of connection points: 2
#     Edge 38, Type (0, 0), BuildingBlock: EZIPEK_clean_linker_0, # of connection points: 2
#     Edge 39, Type (0, 0), BuildingBlock: EZIPEK_clean_linker_0, # of connection points: 2
#     Edge 40, Type (0, 0), BuildingBlock: EZIPEK_clean_linker_0, # of connection points: 2
#     Edge 41, Type (0, 0), BuildingBlock: EZIPEK_clean_linker_0, # of connection points: 2
#     Edge 42, Type (0, 0), BuildingBlock: EZIPEK_clean_linker_0, # of connection points: 2
#     Edge 43, Type (0, 0), BuildingBlock: EZIPEK_clean_linker_0, # of connection points: 2
#     Edge 44, Type (0, 0), BuildingBlock: EZIPEK_clean_linker_0, # of connection points: 2
#     Edge 45, Type (0, 0), BuildingBlock: EZIPEK_clean_linker_0, # of connection points: 2
#     Edge 46, Type (0, 0), BuildingBlock: EZIPEK_clean_linker_0, # of connection points: 2
#     Edge 47, Type (0, 0), BuildingBlock: EZIPEK_clean_linker_0, # of connection points: 2
#     Edge 48, Type (0, 0), BuildingBlock: EZIPEK_clean_linker_0, # of connection points: 2
#     Edge 49, Type (0, 0), BuildingBlock: EZIPEK_clean_linker_0, # of connection points: 2
#     Edge 50, Type (0, 0), BuildingBlock: EZIPEK_clean_linker_0, # of connection points: 2
#     Edge 51, Type (0, 0), BuildingBlock: EZIPEK_clean_linker_0, # of connection points: 2
#     Edge 52, Type (0, 0), BuildingBlock: EZIPEK_clean_linker_0, # of connection points: 2
#     Edge 53, Type (0, 0), BuildingBlock: EZIPEK_clean_linker_0, # of connection points: 2
#     Edge 54, Type (0, 0), BuildingBlock: EZIPEK_clean_linker_0, # of connection points: 2
#     Edge 55, Type (0, 0), BuildingBlock: EZIPEK_clean_linker_0, # of connection points: 2
#     Edge 56, Type (0, 0), BuildingBlock: EZIPEK_clean_linker_0, # of connection points: 2
#     Edge 57, Type (0, 0), BuildingBlock: EZIPEK_clean_linker_0, # of connection points: 2
#     Edge 58, Type (0, 0), BuildingBlock: EZIPEK_clean_linker_0, # of connection points: 2
#     Edge 59, Type (0, 0), BuildingBlock: EZIPEK_clean_linker_0, # of connection points: 2
#     Edge 60, Type (0, 0), BuildingBlock: EZIPEK_clean_linker_0, # of connection points: 2
#     Edge 61, Type (0, 0), BuildingBlock: EZIPEK_clean_linker_0, # of connection points: 2
#     Edge 62, Type (0, 0), BuildingBlock: EZIPEK_clean_linker_0, # of connection points: 2
#     Edge 63, Type (0, 0), BuildingBlock: EZIPEK_clean_linker_0, # of connection points: 2
#     Edge 64, Type (0, 0), BuildingBlock: EZIPEK_clean_linker_0, # of connection points: 2
#     Edge 65, Type (0, 0), BuildingBlock: EZIPEK_clean_linker_0, # of connection points: 2
#     Edge 66, Type (0, 0), BuildingBlock: EZIPEK_clean_linker_0, # of connection points: 2
#     Edge 67, Type (0, 0), BuildingBlock: EZIPEK_clean_linker_0, # of connection points: 2
#     Edge 68, Type (0, 0), BuildingBlock: EZIPEK_clean_linker_0, # of connection points: 2
#     Edge 69, Type (0, 0), BuildingBlock: EZIPEK_clean_linker_0, # of connection points: 2
#     Edge 70, Type (0, 0), BuildingBlock: EZIPEK_clean_linker_0, # of connection points: 2
#     Edge 71, Type (0, 0), BuildingBlock: EZIPEK_clean_linker_0, # of connection points: 2
#     Edge 72, Type (0, 0), BuildingBlock: EZIPEK_clean_linker_0, # of connection points: 2
#     Edge 73, Type (0, 0), BuildingBlock: EZIPEK_clean_linker_0, # of connection points: 2
#     Edge 74, Type (0, 0), BuildingBlock: EZIPEK_clean_linker_0, # of connection points: 2
#     Edge 75, Type (0, 0), BuildingBlock: EZIPEK_clean_linker_0, # of connection points: 2
#     Edge 76, Type (0, 0), BuildingBlock: EZIPEK_clean_linker_0, # of connection points: 2
#     Edge 77, Type (0, 0), BuildingBlock: EZIPEK_clean_linker_0, # of connection points: 2
#     Edge 78, Type (0, 0), BuildingBlock: EZIPEK_clean_linker_0, # of connection points: 2
#     Edge 79, Type (0, 0), BuildingBlock: EZIPEK_clean_linker_0, # of connection points: 2
#     Edge 80, Type (0, 0), BuildingBlock: EZIPEK_clean_linker_0, # of connection points: 2
#     Edge 81, Type (0, 0), BuildingBlock: EZIPEK_clean_linker_0, # of connection points: 2
#     Edge 82, Type (0, 0), BuildingBlock: EZIPEK_clean_linker_0, # of connection points: 2
#     Edge 83, Type (0, 0), BuildingBlock: EZIPEK_clean_linker_0, # of connection points: 2
#     Edge 84, Type (0, 0), BuildingBlock: EZIPEK_clean_linker_0, # of connection points: 2
#     Edge 85, Type (0, 0), BuildingBlock: EZIPEK_clean_linker_0, # of connection points: 2
#     Edge 86, Type (0, 0), BuildingBlock: EZIPEK_clean_linker_0, # of connection points: 2
#     Edge 87, Type (0, 0), BuildingBlock: EZIPEK_clean_linker_0, # of connection points: 2
#     Edge 88, Type (0, 0), BuildingBlock: EZIPEK_clean_linker_0, # of connection points: 2
#     Edge 89, Type (0, 0), BuildingBlock: EZIPEK_clean_linker_0, # of connection points: 2
#     Edge 90, Type (0, 0), BuildingBlock: EZIPEK_clean_linker_0, # of connection points: 2
#     Edge 91, Type (0, 0), BuildingBlock: EZIPEK_clean_linker_0, # of connection points: 2
#     Edge 92, Type (0, 0), BuildingBlock: EZIPEK_clean_linker_0, # of connection points: 2
#     Edge 93, Type (0, 0), BuildingBlock: EZIPEK_clean_linker_0, # of connection points: 2
#     Edge 94, Type (0, 0), BuildingBlock: EZIPEK_clean_linker_0, # of connection points: 2
#     Edge 95, Type (0, 0), BuildingBlock: EZIPEK_clean_linker_0, # of connection points: 2
#     Edge 96, Type (0, 0), BuildingBlock: EZIPEK_clean_linker_0, # of connection points: 2
#     Edge 97, Type (0, 0), BuildingBlock: EZIPEK_clean_linker_0, # of connection points: 2
#     Edge 98, Type (0, 0), BuildingBlock: EZIPEK_clean_linker_0, # of connection points: 2
#     Edge 99, Type (0, 0), BuildingBlock: EZIPEK_clean_linker_0, # of connection points: 2
#     Edge 100, Type (0, 0), BuildingBlock: EZIPEK_clean_linker_0, # of connection points: 2
#     Edge 101, Type (0, 0), BuildingBlock: EZIPEK_clean_linker_0, # of connection points: 2
#     Edge 102, Type (0, 0), BuildingBlock: EZIPEK_clean_linker_0, # of connection points: 2
#     Edge 103, Type (0, 0), BuildingBlock: EZIPEK_clean_linker_0, # of connection points: 2
#     Edge 104, Type (0, 0), BuildingBlock: EZIPEK_clean_linker_0, # of connection points: 2
#     Edge 105, Type (0, 0), BuildingBlock: EZIPEK_clean_linker_0, # of connection points: 2
#     Edge 106, Type (0, 0), BuildingBlock: EZIPEK_clean_linker_0, # of connection points: 2
#     Edge 107, Type (0, 0), BuildingBlock: EZIPEK_clean_linker_0, # of connection points: 2
#     Edge 108, Type (0, 0), BuildingBlock: EZIPEK_clean_linker_0, # of connection points: 2
#     Edge 109, Type (0, 0), BuildingBlock: EZIPEK_clean_linker_0, # of connection points: 2
#     Edge 110, Type (0, 0), BuildingBlock: EZIPEK_clean_linker_0, # of connection points: 2
#     Edge 111, Type (0, 0), BuildingBlock: EZIPEK_clean_linker_0, # of connection points: 2
#     Edge 112, Type (0, 0), BuildingBlock: EZIPEK_clean_linker_0, # of connection points: 2
#     Edge 113, Type (0, 0), BuildingBlock: EZIPEK_clean_linker_0, # of connection points: 2
#     Edge 114, Type (0, 0), BuildingBlock: EZIPEK_clean_linker_0, # of connection points: 2
#     Edge 115, Type (0, 0), BuildingBlock: EZIPEK_clean_linker_0, # of connection points: 2
#     Edge 116, Type (0, 0), BuildingBlock: EZIPEK_clean_linker_0, # of connection points: 2
#     Edge 117, Type (0, 0), BuildingBlock: EZIPEK_clean_linker_0, # of connection points: 2
#     Edge 118, Type (0, 0), BuildingBlock: EZIPEK_clean_linker_0, # of connection points: 2
#     Edge 119, Type (0, 0), BuildingBlock: EZIPEK_clean_linker_0, # of connection points: 2
#     Edge 120, Type (0, 0), BuildingBlock: EZIPEK_clean_linker_0, # of connection points: 2
#     Edge 121, Type (0, 0), BuildingBlock: EZIPEK_clean_linker_0, # of connection points: 2
#     Edge 122, Type (0, 0), BuildingBlock: EZIPEK_clean_linker_0, # of connection points: 2
#     Edge 123, Type (0, 0), BuildingBlock: EZIPEK_clean_linker_0, # of connection points: 2
#     Edge 124, Type (0, 0), BuildingBlock: EZIPEK_clean_linker_0, # of connection points: 2
#     Edge 125, Type (0, 0), BuildingBlock: EZIPEK_clean_linker_0, # of connection points: 2
# Relax obj value: 0.060
# Max RMSD: 0.106
# Mean RMSD: 0.106
data_MOF--net-wlm--node1-BEQFEK_clean_sbu_0--edge1-EZIPEK_clean_linker_0
_symmetry_space_group_name_H-M    P1
_symmetry_Int_Tables_number       1
_symmetry_cell_setting            triclinic
loop_
_symmetry_equiv_pos_as_xyz
'x, y, z'
_cell_length_a     95.720832
_cell_length_b     95.727206
_cell_length_c     15.329962
_cell_angle_alpha  89.999961
_cell_angle_beta   89.994901
_cell_angle_gamma 120.01672
loop_
_atom_site_label
_atom_site_type_symbol
_atom_site_fract_x
_atom_site_fract_y
_atom_site_fract_z
_atom_type_partial_charge
Co0 Co 0.14678 0.40283 0.33558 0.0
Co1 Co 0.14016 0.39201 0.139 0.0
C2 C 0.17275 0.40403 0.2224 0.0
O3 O 0.16821 0.40673 0.29548 0.0
O4 O 0.16325 0.39857 0.15716 0.0
C5 C 0.15521 0.40422 0.50975 0.0
O6 O 0.16472 0.39955 0.47458 0.0
C7 C 0.14525 0.3964 0.94964 0.0
C8 C 0.12162 0.37783 0.89784 0.0
C9 C 0.13676 0.39007 0.87285 0.0
N10 N 0.13552 0.38841 0.01711 0.0
N11 N 0.12143 0.37729 0.98566 0.0
C12 C 0.16236 0.40965 0.95925 0.0
H13 H 0.17001 0.40426 0.97416 0.0
H14 H 0.16337 0.41755 0.01477 0.0
H15 H 0.16688 0.41688 0.8986 0.0
C16 C 0.13349 0.42353 0.27668 0.0
N17 N 0.13838 0.41275 0.26179 0.0
N18 N 0.13552 0.4081 0.1797 0.0
C19 C 0.1287 0.41579 0.14004 0.0
C20 C 0.12721 0.42581 0.1998 0.0
C21 C 0.13393 0.43067 0.36403 0.0
H22 H 0.12516 0.42104 0.40785 0.0
H23 H 0.1461 0.43547 0.39317 0.0
H24 H 0.13088 0.44041 0.35919 0.0
O25 O 0.13215 0.37934 0.33863 0.0
O26 O 0.12677 0.37103 0.2012 0.0
H27 H 0.1143 0.40035 0.03649 0.0
H28 H 0.11771 0.42068 0.02926 0.0
C29 C 0.12322 0.41327 0.04725 0.0
H30 H 0.13376 0.41666 0.00471 0.0
H31 H 0.11165 0.36939 0.02422 0.0
O32 O 0.14732 0.40847 0.46027 0.0
C33 C 0.12516 0.36814 0.28286 0.0
Co34 Co 0.60008 0.74437 0.34685 0.0
Co35 Co 0.61046 0.74883 0.14928 0.0
C36 C 0.59839 0.76906 0.235 0.0
O37 O 0.59599 0.76185 0.308 0.0
O38 O 0.6037 0.76508 0.16892 0.0
C39 C 0.59556 0.7501 0.52215 0.0
O40 O 0.59699 0.76338 0.48849 0.0
C41 C 0.60495 0.74858 0.96089 0.0
C42 C 0.62507 0.74631 0.90605 0.0
C43 C 0.61167 0.74742 0.88316 0.0
N44 N 0.61386 0.748 0.02707 0.0
N45 N 0.62588 0.74664 0.99383 0.0
C46 C 0.59052 0.75054 0.97236 0.0
H47 H 0.59457 0.7636 0.97569 0.0
H48 H 0.58426 0.74484 0.03435 0.0
H49 H 0.58209 0.74522 0.91656 0.0
C50 C 0.57957 0.71041 0.28769 0.0
N51 N 0.59017 0.72613 0.27268 0.0
N52 N 0.59471 0.72799 0.19037 0.0
C53 C 0.58715 0.71348 0.15071 0.0
C54 C 0.57731 0.7019 0.21069 0.0
C55 C 0.5726 0.70364 0.37524 0.0
H56 H 0.58236 0.70466 0.41856 0.0
H57 H 0.56766 0.71085 0.40484 0.0
H58 H 0.563 0.69079 0.37054 0.0
O59 O 0.62362 0.7533 0.3483 0.0
O60 O 0.63158 0.75689 0.21001 0.0
H61 H 0.60266 0.71582 0.04437 0.0
H62 H 0.58321 0.69754 0.0414 0.0
C63 C 0.5896 0.71058 0.05765 0.0
H64 H 0.58485 0.71663 0.01545 0.0
H65 H 0.63463 0.74595 0.03111 0.0
O66 O 0.59452 0.73908 0.47169 0.0
C67 C 0.63471 0.75797 0.29135 0.0
Co68 Co 0.25704 0.856 0.34133 0.0
Co69 Co 0.25495 0.86078 0.1434 0.0
C70 C 0.23358 0.82894 0.22813 0.0
O71 O 0.24041 0.8341 0.30171 0.0
O72 O 0.23771 0.83804 0.16126 0.0
C73 C 0.26701 0.85133 0.5207 0.0
O74 O 0.27633 0.84588 0.4922 0.0
C75 C 0.25389 0.8563 0.95342 0.0
C76 C 0.26992 0.88155 0.91166 0.0
C77 C 0.26168 0.86581 0.88135 0.0
N78 N 0.25791 0.866 0.02346 0.0
N79 N 0.2671 0.88108 0.99767 0.0
C80 C 0.24305 0.83839 0.95673 0.0
H81 H 0.23162 0.83554 0.98989 0.0
H82 H 0.24889 0.83299 0.99596 0.0
H83 H 0.24029 0.83301 0.89047 0.0
C84 C 0.2926 0.87119 0.29544 0.0
N85 N 0.27673 0.86473 0.2762 0.0
N86 N 0.27521 0.86499 0.19086 0.0
C87 C 0.28985 0.87064 0.15371 0.0
C88 C 0.30127 0.87491 0.21827 0.0
C89 C 0.29974 0.87547 0.38472 0.0
H90 H 0.29148 0.87677 0.43002 0.0
H91 H 0.30212 0.8659 0.40822 0.0
H92 H 0.31147 0.88693 0.3831 0.0
O93 O 0.24781 0.87029 0.33505 0.0
O94 O 0.24766 0.87524 0.19422 0.0
H95 H 0.29532 0.88418 0.03561 0.0
H96 H 0.30441 0.87182 0.04368 0.0
C97 C 0.2933 0.87231 0.0581 0.0
H98 H 0.28312 0.86247 0.02251 0.0
H99 H 0.27213 0.89098 0.03974 0.0
O100 O 0.25933 0.85504 0.4672 0.0
C101 C 0.24488 0.87721 0.27306 0.0
Co102 Co 0.40055 0.14444 0.65971 0.0
Co103 Co 0.39355 0.14044 0.86141 0.0
C104 C 0.40344 0.1717 0.77094 0.0
O105 O 0.40385 0.16594 0.69656 0.0
O106 O 0.4006 0.16342 0.84034 0.0
C107 C 0.41279 0.15729 0.48649 0.0
O108 O 0.42034 0.17161 0.52315 0.0
C109 C 0.40096 0.14722 0.04748 0.0
C110 C 0.38234 0.12474 0.10976 0.0
C111 C 0.39546 0.13978 0.12748 0.0
N112 N 0.3916 0.13701 0.98471 0.0
N113 N 0.38045 0.12361 0.02242 0.0
C114 C 0.41496 0.16369 0.03084 0.0
H115 H 0.42098 0.16379 0.96877 0.0
H116 H 0.42372 0.16766 0.08554 0.0
H117 H 0.41047 0.17232 0.02453 0.0
C118 C 0.42201 0.13145 0.71179 0.0
N119 N 0.41184 0.13695 0.73066 0.0
N120 N 0.40868 0.13515 0.81488 0.0
C121 C 0.4168 0.12857 0.85198 0.0
C122 C 0.4255 0.12602 0.78821 0.0
C123 C 0.42753 0.1306 0.62186 0.0
H124 H 0.41704 0.1252 0.57689 0.0
H125 H 0.43598 0.14303 0.59912 0.0
H126 H 0.43375 0.12345 0.62034 0.0
O127 O 0.37721 0.12918 0.66596 0.0
O128 O 0.37167 0.12683 0.80783 0.0
H129 H 0.40307 0.11595 0.96452 0.0
H130 H 0.42302 0.11832 0.96125 0.0
C131 C 0.41583 0.1242 0.94629 0.0
H132 H 0.42053 0.13533 0.98578 0.0
H133 H 0.37161 0.11365 0.98848 0.0
O134 O 0.40521 0.14475 0.53336 0.0
C135 C 0.3672 0.12344 0.72849 0.0
Co136 Co 0.85604 0.2575 0.65687 0.0
Co137 Co 0.86051 0.25249 0.8553 0.0
C138 C 0.8289 0.2324 0.7635 0.0
O139 O 0.83432 0.24019 0.6926 0.0
O140 O 0.83762 0.23584 0.83168 0.0
C141 C 0.84502 0.25265 0.48223 0.0
O142 O 0.83227 0.24022 0.51619 0.0
C143 C 0.85485 0.25257 0.04339 0.0
C144 C 0.87713 0.25466 0.09893 0.0
C145 C 0.86266 0.2537 0.12122 0.0
N146 N 0.86435 0.25305 0.97757 0.0
N147 N 0.87764 0.25428 0.01121 0.0
C148 C 0.83857 0.25087 0.03159 0.0
H149 H 0.82931 0.23786 0.03313 0.0
H150 H 0.83785 0.25587 0.96749 0.0
H151 H 0.83593 0.25702 0.08509 0.0
C152 C 0.8692 0.29134 0.71743 0.0
N153 N 0.86389 0.27557 0.73194 0.0
N154 N 0.86568 0.27343 0.81518 0.0
C155 C 0.87225 0.28783 0.85599 0.0
C156 C 0.87466 0.2996 0.79576 0.0
C157 C 0.86995 0.29838 0.62938 0.0
H158 H 0.85796 0.29164 0.59757 0.0
H159 H 0.87371 0.31137 0.63381 0.0
H160 H 0.87867 0.29693 0.58815 0.0
O161 O 0.87051 0.24835 0.65774 0.0
O162 O 0.87436 0.24517 0.79751 0.0
H163 H 0.88314 0.30345 0.96782 0.0
H164 H 0.86547 0.28427 0.98948 0.0
C165 C 0.87668 0.29045 0.95041 0.0
H166 H 0.88439 0.28522 0.96664 0.0
H167 H 0.88709 0.2549 0.97422 0.0
O168 O 0.85599 0.26287 0.5321 0.0
C169 C 0.87684 0.24402 0.71689 0.0
Co170 Co 0.74519 0.60045 0.65627 0.0
Co171 Co 0.74821 0.60798 0.85765 0.0
C172 C 0.76951 0.59778 0.76621 0.0
O173 O 0.76216 0.59557 0.69366 0.0
O174 O 0.76547 0.60264 0.83395 0.0
C175 C 0.73751 0.58541 0.4777 0.0
O176 O 0.73409 0.57136 0.5104 0.0
C177 C 0.74623 0.60087 0.04651 0.0
C178 C 0.73519 0.61488 0.0928 0.0
C179 C 0.73816 0.60268 0.11867 0.0
N180 N 0.74588 0.60995 0.98038 0.0
N181 N 0.73989 0.6188 0.00974 0.0
C182 C 0.75569 0.59229 0.04046 0.0
H183 H 0.76648 0.59936 0.99905 0.0
H184 H 0.74831 0.5804 0.00846 0.0
H185 H 0.75991 0.59086 0.10537 0.0
C186 C 0.71012 0.57929 0.70853 0.0
N187 N 0.72597 0.58933 0.72597 0.0
N188 N 0.72765 0.59204 0.81087 0.0
C189 C 0.71301 0.58351 0.84917 0.0
C190 C 0.70154 0.57535 0.78591 0.0
C191 C 0.70277 0.57477 0.61986 0.0
H192 H 0.71094 0.57352 0.57422 0.0
H193 H 0.69108 0.56326 0.62211 0.0
H194 H 0.7004 0.58433 0.59603 0.0
O195 O 0.75442 0.62394 0.66514 0.0
O196 O 0.75536 0.62962 0.80602 0.0
H197 H 0.71168 0.59547 0.96359 0.0
H198 H 0.6969 0.5744 0.96022 0.0
C199 C 0.70959 0.58344 0.94431 0.0
H200 H 0.71754 0.58038 0.98193 0.0
H201 H 0.73804 0.62674 0.9714 0.0
O202 O 0.74185 0.59737 0.52834 0.0
C203 C 0.75769 0.63401 0.72644 0.0
Co204 Co 0.85662 0.59941 0.66348 0.0
Co205 Co 0.86196 0.60944 0.86139 0.0
C206 C 0.82995 0.59771 0.77149 0.0
O207 O 0.83498 0.59509 0.69992 0.0
O208 O 0.83904 0.60327 0.83821 0.0
C209 C 0.84565 0.59306 0.48815 0.0
O210 O 0.83272 0.59243 0.52164 0.0
C211 C 0.85625 0.60332 0.04925 0.0
C212 C 0.87804 0.6239 0.10616 0.0
C213 C 0.86379 0.61006 0.12761 0.0
N214 N 0.86569 0.61263 0.98398 0.0
N215 N 0.8787 0.62492 0.01845 0.0
C216 C 0.84022 0.58844 0.0365 0.0
H217 H 0.83957 0.58319 0.97103 0.0
H218 H 0.83805 0.57943 0.08804 0.0
H219 H 0.83062 0.59168 0.04117 0.0
C220 C 0.8697 0.57861 0.72415 0.0
N221 N 0.86464 0.58927 0.73858 0.0
N222 N 0.8669 0.59354 0.82136 0.0
C223 C 0.87361 0.58581 0.86177 0.0
C224 C 0.87552 0.57607 0.80195 0.0
C225 C 0.86982 0.57182 0.6366 0.0
H226 H 0.85781 0.56702 0.6055 0.0
H227 H 0.87296 0.56214 0.64173 0.0
H228 H 0.87879 0.58163 0.59438 0.0
O229 O 0.87095 0.62306 0.66378 0.0
O230 O 0.87602 0.63051 0.80268 0.0
H231 H 0.8859 0.58223 0.97079 0.0
H232 H 0.86779 0.58267 0.99662 0.0
C233 C 0.87873 0.58811 0.9552 0.0
H234 H 0.88599 0.60116 0.97021 0.0
H235 H 0.88804 0.63401 0.98208 0.0
O236 O 0.85665 0.59402 0.53851 0.0
C237 C 0.87784 0.6339 0.72162 0.0
Co238 Co 0.40157 0.25698 0.65491 0.0
Co239 Co 0.39274 0.25321 0.85538 0.0
C240 C 0.40402 0.23259 0.76454 0.0
O241 O 0.40583 0.23946 0.69082 0.0
O242 O 0.39944 0.23704 0.83184 0.0
C243 C 0.41393 0.25737 0.48001 0.0
O244 O 0.42225 0.2513 0.51512 0.0
C245 C 0.40042 0.25409 0.0415 0.0
C246 C 0.38101 0.25652 0.10481 0.0
C247 C 0.39473 0.2556 0.12191 0.0
N248 N 0.3906 0.25423 0.97917 0.0
N249 N 0.37897 0.25561 0.01754 0.0
C250 C 0.41509 0.2528 0.02406 0.0
H251 H 0.42018 0.25793 0.95904 0.0
H252 H 0.42431 0.25907 0.07557 0.0
H253 H 0.41163 0.23987 0.02419 0.0
C254 C 0.42248 0.29121 0.71132 0.0
N255 N 0.41205 0.27551 0.728 0.0
N256 N 0.4081 0.27388 0.81125 0.0
C257 C 0.41587 0.28849 0.84974 0.0
C258 C 0.42525 0.29992 0.78809 0.0
C259 C 0.42895 0.29778 0.62285 0.0
H260 H 0.41875 0.29449 0.57736 0.0
H261 H 0.43586 0.29211 0.59847 0.0
H262 H 0.43689 0.31109 0.6242 0.0
O263 O 0.37802 0.24784 0.66 0.0
O264 O 0.3711 0.24518 0.80002 0.0
H265 H 0.40109 0.28614 0.95978 0.0
H266 H 0.42028 0.30471 0.95833 0.0
C267 C 0.41406 0.29162 0.94339 0.0
H268 H 0.4194 0.28597 0.98436 0.0
H269 H 0.36973 0.2561 0.98408 0.0
O270 O 0.40606 0.26178 0.52847 0.0
C271 C 0.36739 0.24364 0.71932 0.0
Co272 Co 0.74342 0.14445 0.65615 0.0
Co273 Co 0.7488 0.14009 0.85498 0.0
C274 C 0.76855 0.17171 0.76015 0.0
O275 O 0.76045 0.16643 0.68997 0.0
O276 O 0.76533 0.16285 0.82771 0.0
C277 C 0.74513 0.15614 0.48126 0.0
O278 O 0.75446 0.17045 0.51551 0.0
C279 C 0.74788 0.1465 0.04173 0.0
C280 C 0.74841 0.12591 0.10326 0.0
C281 C 0.74761 0.13964 0.1216 0.0
N282 N 0.74865 0.13718 0.97849 0.0
N283 N 0.74901 0.1249 0.01577 0.0
C284 C 0.74739 0.16165 0.0258 0.0
H285 H 0.74302 0.16167 0.95876 0.0
H286 H 0.73952 0.16292 0.07457 0.0
H287 H 0.75976 0.17213 0.03286 0.0
C288 C 0.70971 0.13109 0.71814 0.0
N289 N 0.72549 0.13651 0.73226 0.0
N290 N 0.7277 0.13451 0.81517 0.0
C291 C 0.71328 0.12757 0.856 0.0
C292 C 0.70147 0.12527 0.79622 0.0
C293 C 0.70264 0.13063 0.63057 0.0
H294 H 0.70916 0.14282 0.60078 0.0
H295 H 0.68957 0.12654 0.63522 0.0
H296 H 0.70439 0.12233 0.58741 0.0
O297 O 0.75296 0.13028 0.65886 0.0
O298 O 0.7562 0.12623 0.79839 0.0
H299 H 0.69763 0.11455 0.96456 0.0
H300 H 0.71537 0.13332 0.99122 0.0
C301 C 0.71062 0.12244 0.94952 0.0
H302 H 0.71717 0.11593 0.96513 0.0
H303 H 0.74956 0.11577 0.98146 0.0
O304 O 0.73784 0.14391 0.53077 0.0
C305 C 0.75733 0.12389 0.71754 0.0
Co306 Co 0.60172 0.85702 0.3426 0.0
Co307 Co 0.60981 0.86121 0.14141 0.0
C308 C 0.59881 0.82972 0.23394 0.0
O309 O 0.59766 0.83529 0.30743 0.0
O310 O 0.60287 0.83827 0.1649 0.0
C311 C 0.58918 0.8449 0.51655 0.0
O312 O 0.5809 0.83056 0.48066 0.0
C313 C 0.60213 0.85458 0.95529 0.0
C314 C 0.62165 0.87644 0.89266 0.0
C315 C 0.6079 0.86185 0.87515 0.0
N316 N 0.61193 0.86446 0.01789 0.0
N317 N 0.62362 0.87749 0.97995 0.0
C318 C 0.58743 0.83861 0.97221 0.0
H319 H 0.58232 0.83859 0.03726 0.0
H320 H 0.57824 0.83575 0.92065 0.0
H321 H 0.59086 0.82912 0.97166 0.0
C322 C 0.58076 0.87018 0.28735 0.0
N323 N 0.59103 0.86476 0.26992 0.0
N324 N 0.59471 0.86683 0.18631 0.0
C325 C 0.58689 0.87367 0.14827 0.0
C326 C 0.57779 0.87596 0.21074 0.0
C327 C 0.57463 0.87056 0.37636 0.0
H328 H 0.58499 0.87712 0.42143 0.0
H329 H 0.56731 0.85801 0.40054 0.0
H330 H 0.56715 0.87644 0.37596 0.0
O331 O 0.62516 0.87167 0.33631 0.0
O332 O 0.6316 0.87449 0.1956 0.0
H333 H 0.60137 0.88588 0.03692 0.0
H334 H 0.58219 0.88528 0.03989 0.0
C335 C 0.58844 0.87843 0.05441 0.0
H336 H 0.58298 0.86735 0.01406 0.0
H337 H 0.63287 0.88716 0.01373 0.0
O338 O 0.59721 0.85725 0.46888 0.0
C339 C 0.63559 0.8774 0.2757 0.0
Co340 Co 0.14558 0.74471 0.32874 0.0
Co341 Co 0.14069 0.74889 0.1285 0.0
C342 C 0.17262 0.76912 0.21965 0.0
O343 O 0.16739 0.76212 0.29291 0.0
O344 O 0.1637 0.76498 0.15197 0.0
C345 C 0.15736 0.74404 0.50391 0.0
O346 O 0.17178 0.74997 0.4692 0.0
C347 C 0.14729 0.74781 0.94222 0.0
C348 C 0.12565 0.7459 0.87926 0.0
C349 C 0.1401 0.74643 0.86192 0.0
N350 N 0.13751 0.74797 0.00471 0.0
N351 N 0.12461 0.7469 0.96654 0.0
C352 C 0.16308 0.74869 0.95939 0.0
H353 H 0.16306 0.74383 0.02516 0.0
H354 H 0.16559 0.74193 0.90883 0.0
H355 H 0.17283 0.7615 0.95704 0.0
C356 C 0.13226 0.71061 0.27101 0.0
N357 N 0.13751 0.72633 0.25497 0.0
N358 N 0.13521 0.72808 0.17186 0.0
C359 C 0.12834 0.7135 0.13288 0.0
C360 C 0.12632 0.70201 0.19401 0.0
C361 C 0.13221 0.70395 0.35913 0.0
H362 H 0.14474 0.70996 0.38453 0.0
H363 H 0.12727 0.69071 0.35685 0.0
H364 H 0.1249 0.70676 0.40438 0.0
O365 O 0.13129 0.75396 0.32442 0.0
O366 O 0.12717 0.75698 0.18472 0.0
H367 H 0.11611 0.69736 0.02468 0.0
H368 H 0.1343 0.71578 0.99821 0.0
C369 C 0.12332 0.71045 0.03933 0.0
H370 H 0.11614 0.71626 0.02293 0.0
H371 H 0.11502 0.74667 0.00015 0.0
O372 O 0.14516 0.73978 0.45508 0.0
C373 C 0.12495 0.75835 0.2656 0.0
Co374 Co 0.25678 0.40121 0.34492 0.0
Co375 Co 0.25517 0.39451 0.14692 0.0
C376 C 0.23347 0.40472 0.22961 0.0
O377 O 0.24014 0.40636 0.30368 0.0
O378 O 0.23781 0.39987 0.16311 0.0
C379 C 0.26668 0.41574 0.52414 0.0
O380 O 0.27623 0.43043 0.49521 0.0
C381 C 0.25442 0.39812 0.95717 0.0
C382 C 0.27046 0.38892 0.91545 0.0
C383 C 0.26221 0.39641 0.88517 0.0
N384 N 0.25842 0.39244 0.02721 0.0
N385 N 0.26763 0.38657 0.0015 0.0
C386 C 0.24358 0.40519 0.96032 0.0
H387 H 0.23207 0.39653 0.99251 0.0
H388 H 0.24933 0.41635 0.00032 0.0
H389 H 0.24096 0.40797 0.8941 0.0
C390 C 0.29247 0.42135 0.30169 0.0
N391 N 0.27662 0.4122 0.28126 0.0
N392 N 0.27529 0.41061 0.19579 0.0
C393 C 0.29004 0.41957 0.15973 0.0
C394 C 0.30135 0.42642 0.22521 0.0
C395 C 0.29942 0.42367 0.39124 0.0
H396 H 0.29087 0.41412 0.4356 0.0
H397 H 0.30225 0.4357 0.41592 0.0
H398 H 0.3109 0.42344 0.38957 0.0
O399 O 0.24772 0.37778 0.33823 0.0
O400 O 0.24783 0.37269 0.19752 0.0
H401 H 0.29573 0.41173 0.04144 0.0
H402 H 0.30487 0.43317 0.05107 0.0
C403 C 0.29369 0.42155 0.06434 0.0
H404 H 0.28361 0.42133 0.02825 0.0
H405 H 0.27265 0.38169 0.04359 0.0
O406 O 0.25879 0.40435 0.47095 0.0
C407 C 0.24498 0.36796 0.27637 0.0
Co408 Co 0.81379 0.73462 0.67668 0.0
Co409 Co 0.80742 0.72616 0.47914 0.0
C410 C 0.83973 0.73682 0.55862 0.0
O411 O 0.83521 0.73885 0.6334 0.0
O412 O 0.83025 0.73212 0.49333 0.0
C413 C 0.81882 0.74933 0.85859 0.0
O414 O 0.82449 0.76429 0.83279 0.0
C415 C 0.81182 0.72932 0.28922 0.0
C416 C 0.78665 0.71991 0.24598 0.0
C417 C 0.80246 0.72765 0.21653 0.0
N418 N 0.802 0.72346 0.3588 0.0
N419 N 0.78695 0.7174 0.33205 0.0
C420 C 0.82975 0.73654 0.29331 0.0
H421 H 0.83265 0.72795 0.32593 0.0
H422 H 0.83502 0.74771 0.33316 0.0
H423 H 0.83526 0.73934 0.22735 0.0
C424 C 0.79874 0.75497 0.62983 0.0
N425 N 0.8048 0.74523 0.61056 0.0
N426 N 0.8034 0.74246 0.52582 0.0
C427 C 0.79734 0.75111 0.48883 0.0
C428 C 0.79405 0.75911 0.55315 0.0
C429 C 0.79577 0.75898 0.71954 0.0
H430 H 0.79419 0.74948 0.76612 0.0
H431 H 0.80615 0.77074 0.7394 0.0
H432 H 0.78483 0.7602 0.72066 0.0
O433 O 0.79911 0.71128 0.67461 0.0
O434 O 0.79368 0.70459 0.53537 0.0
H435 H 0.78237 0.74134 0.37654 0.0
H436 H 0.79409 0.76293 0.37735 0.0
C437 C 0.7943 0.75174 0.39376 0.0
H438 H 0.80388 0.75146 0.35527 0.0
H439 H 0.77696 0.71238 0.37348 0.0
O440 O 0.8151 0.73824 0.80296 0.0
C441 C 0.792 0.70076 0.61579 0.0
Co442 Co 0.26579 0.07726 0.67404 0.0
Co443 Co 0.27604 0.08214 0.47611 0.0
C444 C 0.26405 0.10222 0.56281 0.0
O445 O 0.26213 0.09511 0.63583 0.0
O446 O 0.26916 0.09831 0.49573 0.0
C447 C 0.25964 0.08215 0.84963 0.0
O448 O 0.25933 0.09463 0.81623 0.0
C449 C 0.27017 0.08159 0.28806 0.0
C450 C 0.2908 0.08041 0.23177 0.0
C451 C 0.27696 0.08079 0.20986 0.0
N452 N 0.27945 0.08149 0.35365 0.0
N453 N 0.29177 0.08078 0.31954 0.0
C454 C 0.25527 0.0827 0.30036 0.0
H455 H 0.25859 0.09559 0.29873 0.0
H456 H 0.24968 0.0776 0.36459 0.0
H457 H 0.24649 0.07631 0.24711 0.0
C458 C 0.24525 0.04341 0.61341 0.0
N459 N 0.25575 0.05917 0.59886 0.0
N460 N 0.26026 0.06118 0.51646 0.0
C461 C 0.25278 0.04671 0.47628 0.0
C462 C 0.24302 0.03502 0.536 0.0
C463 C 0.23847 0.03649 0.70099 0.0
H464 H 0.24835 0.03761 0.74366 0.0
H465 H 0.23341 0.04352 0.73147 0.0
H466 H 0.22898 0.02359 0.69611 0.0
O467 O 0.28921 0.08567 0.67571 0.0
O468 O 0.29719 0.09016 0.5375 0.0
H469 H 0.26837 0.04962 0.36921 0.0
H470 H 0.24931 0.03091 0.367 0.0
C471 C 0.25529 0.04394 0.38308 0.0
H472 H 0.25009 0.0496 0.3411 0.0
H473 H 0.30085 0.08057 0.35619 0.0
O474 O 0.26018 0.07191 0.79904 0.0
C475 C 0.30031 0.09072 0.61873 0.0
Co476 Co 0.92399 0.19058 0.66415 0.0
Co477 Co 0.91925 0.19461 0.46358 0.0
C478 C 0.89929 0.16312 0.55746 0.0
O479 O 0.90642 0.16867 0.63009 0.0
O480 O 0.90328 0.17174 0.4887 0.0
C481 C 0.92473 0.17875 0.83842 0.0
O482 O 0.91898 0.16442 0.80287 0.0
C483 C 0.92012 0.18794 0.27704 0.0
C484 C 0.92205 0.20963 0.21459 0.0
C485 C 0.92152 0.1952 0.19691 0.0
N486 N 0.91995 0.19768 0.33977 0.0
N487 N 0.92102 0.21059 0.30189 0.0
C488 C 0.91932 0.17218 0.29382 0.0
H489 H 0.92396 0.17207 0.36004 0.0
H490 H 0.92631 0.16986 0.24384 0.0
H491 H 0.90655 0.16237 0.28996 0.0
C492 C 0.95796 0.20398 0.6051 0.0
N493 N 0.94219 0.19845 0.5896 0.0
N494 N 0.9402 0.2003 0.50615 0.0
C495 C 0.95469 0.20701 0.46623 0.0
C496 C 0.96637 0.20952 0.52726 0.0
C497 C 0.96485 0.20457 0.69331 0.0
H498 H 0.96166 0.21167 0.73799 0.0
H499 H 0.95933 0.19213 0.71963 0.0
H500 H 0.97816 0.21002 0.69078 0.0
O501 O 0.915 0.20507 0.6593 0.0
O502 O 0.91087 0.20789 0.51941 0.0
H503 H 0.95173 0.2187 0.35456 0.0
H504 H 0.97058 0.21866 0.35634 0.0
C505 C 0.95753 0.21155 0.372 0.0
H506 H 0.95207 0.20037 0.3325 0.0
H507 H 0.92127 0.22018 0.33574 0.0
O508 O 0.92898 0.19104 0.79028 0.0
C509 C 0.91 0.21074 0.59991 0.0
Co510 Co 0.06927 0.47935 0.99472 0.0
Co511 Co 0.0598 0.47336 0.19224 0.0
C512 C 0.07052 0.50546 0.09963 0.0
O513 O 0.07434 0.50115 0.02926 0.0
O514 O 0.06444 0.49587 0.16437 0.0
C515 C 0.08031 0.49079 0.81813 0.0
O516 O 0.08797 0.50537 0.85171 0.0
C517 C 0.06713 0.48041 0.37916 0.0
C518 C 0.04768 0.45847 0.44152 0.0
C519 C 0.06128 0.47316 0.45935 0.0
N520 N 0.05752 0.47043 0.31629 0.0
N521 N 0.04586 0.45736 0.35413 0.0
C522 C 0.08176 0.49644 0.36245 0.0
H523 H 0.08676 0.49658 0.29691 0.0
H524 H 0.09103 0.49923 0.41341 0.0
H525 H 0.07829 0.5059 0.36445 0.0
C526 C 0.09055 0.46638 0.05105 0.0
N527 N 0.07996 0.47147 0.06745 0.0
N528 N 0.07621 0.46939 0.15094 0.0
C529 C 0.08421 0.46285 0.18988 0.0
C530 C 0.09358 0.46076 0.12827 0.0
C531 C 0.09681 0.46603 0.96236 0.0
H532 H 0.08652 0.4588 0.91796 0.0
H533 H 0.10347 0.47851 0.93633 0.0
H534 H 0.10493 0.46086 0.964 0.0
O535 O 0.04549 0.46556 0.00141 0.0
O536 O 0.03895 0.45741 0.1372 0.0
H537 H 0.06934 0.45016 0.29924 0.0
H538 H 0.0887 0.45115 0.29876 0.0
C539 C 0.08231 0.45784 0.28344 0.0
H540 H 0.08743 0.4688 0.32454 0.0
H541 H 0.03675 0.44759 0.32024 0.0
O542 O 0.07332 0.47859 0.86802 0.0
C543 C 0.03492 0.4569 0.05767 0.0
Co544 Co 0.52349 0.59092 0.00253 0.0
Co545 Co 0.52908 0.58638 0.19966 0.0
C546 C 0.49685 0.56631 0.11246 0.0
O547 O 0.50182 0.57403 0.04101 0.0
O548 O 0.50605 0.56971 0.17866 0.0
C549 C 0.51469 0.58394 0.82914 0.0
O550 O 0.50485 0.5699 0.86484 0.0
C551 C 0.52368 0.58549 0.3887 0.0
C552 C 0.54736 0.59078 0.44085 0.0
C553 C 0.53217 0.58773 0.46551 0.0
N554 N 0.53347 0.58733 0.32146 0.0
N555 N 0.54759 0.59044 0.35309 0.0
C556 C 0.50653 0.58149 0.3788 0.0
H557 H 0.49903 0.56855 0.36136 0.0
H558 H 0.50559 0.58868 0.32468 0.0
H559 H 0.5018 0.58375 0.44004 0.0
C560 C 0.53718 0.62494 0.0607 0.0
N561 N 0.53191 0.6092 0.07596 0.0
N562 N 0.53413 0.60725 0.15884 0.0
C563 C 0.5409 0.62174 0.19874 0.0
C564 C 0.54304 0.63338 0.13821 0.0
C565 C 0.53742 0.63176 0.97267 0.0
H566 H 0.54597 0.63029 0.93009 0.0
H567 H 0.52527 0.62488 0.94264 0.0
H568 H 0.54111 0.64474 0.97668 0.0
O569 O 0.53763 0.58142 0.0017 0.0
O570 O 0.5427 0.57889 0.14033 0.0
H571 H 0.55471 0.62074 0.30549 0.0
H572 H 0.55093 0.63742 0.31109 0.0
C573 C 0.54572 0.62456 0.29256 0.0
H574 H 0.53492 0.61717 0.33301 0.0
H575 H 0.55742 0.59243 0.31466 0.0
O576 O 0.52313 0.59602 0.87797 0.0
C577 C 0.54445 0.57735 0.0592 0.0
Co578 Co 0.41292 0.9343 0.0116 0.0
Co579 Co 0.4166 0.94367 0.20804 0.0
C580 C 0.43733 0.93223 0.12127 0.0
O581 O 0.42929 0.92888 0.05066 0.0
O582 O 0.43394 0.93822 0.1867 0.0
C583 C 0.40285 0.9196 0.82894 0.0
O584 O 0.39366 0.90455 0.85344 0.0
C585 C 0.41835 0.9404 0.39848 0.0
C586 C 0.40335 0.95063 0.44264 0.0
C587 C 0.41091 0.94235 0.47166 0.0
N588 N 0.41468 0.94659 0.32924 0.0
N589 N 0.40619 0.95316 0.35667 0.0
C590 C 0.42844 0.93251 0.39334 0.0
H591 H 0.43973 0.94046 0.35726 0.0
H592 H 0.42179 0.92107 0.35623 0.0
H593 H 0.43149 0.93001 0.45916 0.0
C594 C 0.37799 0.91414 0.0646 0.0
N595 N 0.39386 0.92416 0.08094 0.0
N596 N 0.39578 0.92732 0.16526 0.0
C597 C 0.38127 0.91884 0.20482 0.0
C598 C 0.36964 0.91036 0.14275 0.0
C599 C 0.37062 0.90922 0.97611 0.0
H600 H 0.37793 0.91866 0.92763 0.0
H601 H 0.37002 0.89773 0.95789 0.0
H602 H 0.35811 0.90712 0.97614 0.0
O603 O 0.42253 0.95791 0.01422 0.0
O604 O 0.42356 0.96502 0.15258 0.0
H605 H 0.37714 0.9297 0.31586 0.0
H606 H 0.36657 0.90808 0.31918 0.0
C607 C 0.37809 0.91891 0.30011 0.0
H608 H 0.38796 0.91904 0.33769 0.0
H609 H 0.40147 0.95848 0.31563 0.0
O610 O 0.41001 0.93057 0.88551 0.0
C611 C 0.42575 0.96858 0.07195 0.0
Co612 Co 0.52446 0.93412 0.01715 0.0
Co613 Co 0.52964 0.94349 0.21575 0.0
C614 C 0.4977 0.93197 0.12638 0.0
O615 O 0.50283 0.92957 0.05452 0.0
O616 O 0.50672 0.93734 0.19349 0.0
C617 C 0.51319 0.92757 0.84212 0.0
O618 O 0.50021 0.92679 0.8759 0.0
C619 C 0.52381 0.93715 0.40299 0.0
C620 C 0.54587 0.95729 0.46062 0.0
C621 C 0.53138 0.94369 0.48152 0.0
N622 N 0.53345 0.94636 0.33811 0.0
N623 N 0.54663 0.95839 0.37296 0.0
C624 C 0.50756 0.9226 0.38965 0.0
H625 H 0.49833 0.92638 0.38906 0.0
H626 H 0.50713 0.91687 0.32597 0.0
H627 H 0.50465 0.9138 0.44345 0.0
C628 C 0.53771 0.9134 0.07363 0.0
N629 N 0.5325 0.92386 0.09021 0.0
N630 N 0.53469 0.92778 0.17345 0.0
C631 C 0.54146 0.91997 0.21223 0.0
C632 C 0.54355 0.9106 0.15054 0.0
C633 C 0.538 0.9071 0.98487 0.0
H634 H 0.54644 0.91728 0.94273 0.0
H635 H 0.52582 0.90175 0.95521 0.0
H636 H 0.54186 0.89793 0.98755 0.0
O637 O 0.5388 0.95774 0.01937 0.0
O638 O 0.54351 0.96478 0.15901 0.0
H639 H 0.55418 0.93486 0.32142 0.0
H640 H 0.55311 0.91545 0.32111 0.0
C641 C 0.54646 0.92188 0.30583 0.0
H642 H 0.53551 0.91685 0.34714 0.0
H643 H 0.55612 0.96736 0.33688 0.0
O644 O 0.52438 0.92888 0.89205 0.0
C645 C 0.5455 0.96839 0.07828 0.0
Co646 Co 0.06803 0.59061 0.99125 0.0
Co647 Co 0.05953 0.58658 0.19187 0.0
C648 C 0.07025 0.56581 0.0984 0.0
O649 O 0.07234 0.57318 0.02616 0.0
O650 O 0.0654 0.56973 0.16654 0.0
C651 C 0.08007 0.59047 0.81723 0.0
O652 O 0.0879 0.58393 0.85308 0.0
C653 C 0.06702 0.58703 0.37811 0.0
C654 C 0.04808 0.59029 0.44095 0.0
C655 C 0.06147 0.58883 0.45834 0.0
N656 N 0.05743 0.58755 0.3156 0.0
N657 N 0.04607 0.58941 0.35369 0.0
C658 C 0.08136 0.58515 0.3609 0.0
H659 H 0.07743 0.57211 0.35957 0.0
H660 H 0.0867 0.5904 0.29646 0.0
H661 H 0.09052 0.59098 0.41316 0.0
C662 C 0.08909 0.62474 0.04783 0.0
N663 N 0.07875 0.60902 0.06448 0.0
N664 N 0.0752 0.60725 0.14827 0.0
C665 C 0.08319 0.62181 0.18721 0.0
C666 C 0.09225 0.63334 0.12522 0.0
C667 C 0.09508 0.63143 0.95891 0.0
H668 H 0.08468 0.62753 0.91411 0.0
H669 H 0.10255 0.62641 0.9339 0.0
H670 H 0.1024 0.6448 0.95986 0.0
O671 O 0.04449 0.58151 0.99709 0.0
O672 O 0.03803 0.57942 0.13764 0.0
H673 H 0.06893 0.6198 0.29905 0.0
H674 H 0.08852 0.63788 0.29755 0.0
C675 C 0.0818 0.62483 0.28155 0.0
H676 H 0.08684 0.61868 0.32071 0.0
H677 H 0.03707 0.59028 0.32001 0.0
O678 O 0.07256 0.59539 0.86503 0.0
C679 C 0.03409 0.57771 0.05728 0.0
Co680 Co 0.41143 0.47798 0.01021 0.0
Co681 Co 0.41742 0.47368 0.20808 0.0
C682 C 0.43664 0.50541 0.11089 0.0
O683 O 0.428 0.50017 0.04251 0.0
O684 O 0.43391 0.49648 0.17783 0.0
C685 C 0.41241 0.48927 0.83473 0.0
O686 O 0.42112 0.50372 0.86867 0.0
C687 C 0.4162 0.48014 0.39491 0.0
C688 C 0.41794 0.46025 0.45708 0.0
C689 C 0.41627 0.4735 0.47502 0.0
N690 N 0.41761 0.47113 0.33194 0.0
N691 N 0.41869 0.45928 0.36966 0.0
C692 C 0.41474 0.49474 0.37856 0.0
H693 H 0.41081 0.49475 0.31044 0.0
H694 H 0.40606 0.49514 0.42516 0.0
H695 H 0.42667 0.50568 0.38905 0.0
C696 C 0.3779 0.4647 0.07496 0.0
N697 N 0.39369 0.46993 0.08748 0.0
N698 N 0.39611 0.46783 0.16992 0.0
C699 C 0.38179 0.46088 0.21183 0.0
C700 C 0.36987 0.45883 0.15352 0.0
C701 C 0.37064 0.46461 0.98855 0.0
H702 H 0.37764 0.47669 0.95793 0.0
H703 H 0.3578 0.46131 0.9953 0.0
H704 H 0.37148 0.4558 0.94501 0.0
O705 O 0.42147 0.4642 0.01354 0.0
O706 O 0.42464 0.4596 0.1522 0.0
H707 H 0.36637 0.44676 0.3185 0.0
H708 H 0.38311 0.4661 0.34753 0.0
C709 C 0.37926 0.45546 0.30483 0.0
H710 H 0.38656 0.44973 0.32031 0.0
H711 H 0.41979 0.45044 0.33567 0.0
O712 O 0.40565 0.47703 0.88462 0.0
C713 C 0.42582 0.45756 0.07103 0.0
Co714 Co 0.2664 0.18972 0.66788 0.0
Co715 Co 0.27572 0.19427 0.46869 0.0
C716 C 0.26389 0.16251 0.56257 0.0
O717 O 0.26154 0.16776 0.63413 0.0
O718 O 0.26942 0.17146 0.49532 0.0
C719 C 0.25613 0.17796 0.84267 0.0
O720 O 0.2509 0.16362 0.80831 0.0
C721 C 0.26818 0.18773 0.28244 0.0
C722 C 0.28918 0.20837 0.22018 0.0
C723 C 0.27468 0.19454 0.20237 0.0
N724 N 0.2783 0.19716 0.3453 0.0
N725 N 0.29085 0.20947 0.3076 0.0
C726 C 0.25264 0.1725 0.2989 0.0
H727 H 0.24854 0.17218 0.36699 0.0
H728 H 0.24327 0.17141 0.25222 0.0
H729 H 0.25449 0.16206 0.28862 0.0
C730 C 0.2458 0.20304 0.6074 0.0
N731 N 0.2562 0.19767 0.59255 0.0
N732 N 0.26025 0.19971 0.50944 0.0
C733 C 0.25271 0.20663 0.46928 0.0
C734 C 0.24326 0.20887 0.5296 0.0
C735 C 0.23924 0.20342 0.69526 0.0
H736 H 0.23354 0.19119 0.72454 0.0
H737 H 0.2303 0.20756 0.69114 0.0
H738 H 0.24934 0.21165 0.73848 0.0
O739 O 0.29017 0.20376 0.66406 0.0
O740 O 0.29702 0.20842 0.52414 0.0
H741 H 0.25005 0.21983 0.36182 0.0
H742 H 0.24896 0.20107 0.33385 0.0
C743 C 0.25513 0.21189 0.37597 0.0
H744 H 0.26818 0.2184 0.3601 0.0
H745 H 0.30054 0.21866 0.34159 0.0
O746 O 0.26146 0.19026 0.79338 0.0
C747 C 0.30077 0.21041 0.60473 0.0
Co748 Co 0.81158 0.0779 0.66749 0.0
Co749 Co 0.80742 0.08195 0.46637 0.0
C750 C 0.83882 0.10258 0.55971 0.0
O751 O 0.83325 0.09577 0.63301 0.0
O752 O 0.8303 0.09804 0.49052 0.0
C753 C 0.82369 0.07737 0.84133 0.0
O754 O 0.83799 0.08324 0.80525 0.0
C755 C 0.8142 0.0811 0.28015 0.0
C756 C 0.7923 0.07862 0.21736 0.0
C757 C 0.80693 0.07955 0.19994 0.0
N758 N 0.80428 0.08096 0.34269 0.0
N759 N 0.79123 0.07956 0.30463 0.0
C760 C 0.83017 0.08238 0.29721 0.0
H761 H 0.83021 0.07739 0.3625 0.0
H762 H 0.833 0.07597 0.24598 0.0
H763 H 0.83967 0.0953 0.29611 0.0
C764 C 0.79881 0.04384 0.61051 0.0
N765 N 0.80401 0.05953 0.59398 0.0
N766 N 0.80197 0.06122 0.51043 0.0
C767 C 0.79537 0.04665 0.47159 0.0
C768 C 0.79322 0.0352 0.53335 0.0
C769 C 0.79849 0.03722 0.69912 0.0
H770 H 0.81102 0.04276 0.72406 0.0
H771 H 0.79299 0.0239 0.69776 0.0
H772 H 0.79158 0.04059 0.74415 0.0
O773 O 0.79684 0.0866 0.6616 0.0
O774 O 0.79389 0.09015 0.52093 0.0
H775 H 0.78394 0.03047 0.36245 0.0
H776 H 0.80188 0.04924 0.33761 0.0
C777 C 0.79074 0.04356 0.37752 0.0
H778 H 0.78329 0.04901 0.35995 0.0
H779 H 0.78152 0.07906 0.33833 0.0
O780 O 0.81134 0.0731 0.79375 0.0
C781 C 0.79099 0.09119 0.60111 0.0
Co782 Co 0.92437 0.73381 0.65982 0.0
Co783 Co 0.92064 0.72511 0.4596 0.0
C784 C 0.89987 0.73613 0.54983 0.0
O785 O 0.90666 0.73767 0.62349 0.0
O786 O 0.90448 0.73195 0.48166 0.0
C787 C 0.9229 0.74457 0.83446 0.0
O788 O 0.91467 0.75079 0.79986 0.0
C789 C 0.92115 0.73217 0.27289 0.0
C790 C 0.92464 0.71323 0.21178 0.0
C791 C 0.92301 0.7265 0.1932 0.0
N792 N 0.92183 0.7228 0.33624 0.0
N793 N 0.92386 0.71147 0.29921 0.0
C794 C 0.91889 0.74632 0.28876 0.0
H795 H 0.90579 0.74201 0.29366 0.0
H796 H 0.92466 0.75224 0.35129 0.0
H797 H 0.92398 0.75511 0.23429 0.0
C798 C 0.95854 0.75498 0.60395 0.0
N799 N 0.94287 0.74441 0.58714 0.0
N800 N 0.94128 0.74054 0.50382 0.0
C801 C 0.95587 0.74854 0.46531 0.0
C802 C 0.96725 0.75795 0.52706 0.0
C803 C 0.96504 0.76145 0.69257 0.0
H804 H 0.96187 0.75126 0.73796 0.0
H805 H 0.95922 0.7682 0.71723 0.0
H806 H 0.97833 0.76952 0.69128 0.0
O807 O 0.91543 0.71036 0.65558 0.0
O808 O 0.91253 0.70346 0.51555 0.0
H809 H 0.95409 0.73417 0.35445 0.0
H810 H 0.97207 0.75386 0.35553 0.0
C811 C 0.95901 0.74705 0.37129 0.0
H812 H 0.95279 0.75193 0.33151 0.0
H813 H 0.92483 0.70259 0.33368 0.0
O814 O 0.92921 0.7385 0.78562 0.0
C815 C 0.91117 0.69975 0.59623 0.0
Co816 Co 0.4783 0.0681 0.99456 0.0
Co817 Co 0.47318 0.05794 0.79667 0.0
C818 C 0.50516 0.07002 0.8872 0.0
O819 O 0.5 0.07271 0.95812 0.0
O820 O 0.49615 0.06431 0.82023 0.0
C821 C 0.48927 0.0745 0.16978 0.0
O822 O 0.50226 0.07527 0.13613 0.0
C823 C 0.47887 0.06404 0.6087 0.0
C824 C 0.45715 0.04335 0.55192 0.0
C825 C 0.47134 0.05725 0.53037 0.0
N826 N 0.46947 0.05469 0.67404 0.0
N827 N 0.45651 0.04233 0.63963 0.0
C828 C 0.49482 0.07901 0.62138 0.0
H829 H 0.50449 0.07585 0.61814 0.0
H830 H 0.49531 0.08437 0.68634 0.0
H831 H 0.49702 0.0879 0.5691 0.0
C832 C 0.46505 0.08861 0.93354 0.0
N833 N 0.47019 0.07802 0.91928 0.0
N834 N 0.46798 0.07372 0.83655 0.0
C835 C 0.46122 0.08138 0.79593 0.0
C836 C 0.45922 0.09108 0.85566 0.0
C837 C 0.46488 0.09541 0.02101 0.0
H838 H 0.47694 0.10038 0.05181 0.0
H839 H 0.46157 0.10496 0.01588 0.0
H840 H 0.45604 0.08556 0.06354 0.0
O841 O 0.46408 0.04446 0.99422 0.0
O842 O 0.45938 0.03679 0.85547 0.0
H843 H 0.44906 0.08498 0.68635 0.0
H844 H 0.46723 0.0846 0.66135 0.0
C845 C 0.45623 0.07911 0.7023 0.0
H846 H 0.44902 0.06607 0.68704 0.0
H847 H 0.44721 0.03321 0.67606 0.0
O848 O 0.47822 0.07346 0.11954 0.0
C849 C 0.4574 0.03354 0.93665 0.0
Co850 Co 0.93388 0.41158 0.99587 0.0
Co851 Co 0.94331 0.41406 0.79831 0.0
C852 C 0.9325 0.43579 0.8859 0.0
O853 O 0.92895 0.42833 0.95848 0.0
O854 O 0.9384 0.43174 0.82264 0.0
C855 C 0.92311 0.4124 0.17335 0.0
O856 O 0.91585 0.41976 0.14049 0.0
C857 C 0.93594 0.4137 0.61188 0.0
C858 C 0.95479 0.41028 0.54905 0.0
C859 C 0.94152 0.41197 0.53156 0.0
N860 N 0.94538 0.41292 0.67449 0.0
N861 N 0.95667 0.41094 0.6364 0.0
C862 C 0.92179 0.41589 0.62891 0.0
H863 H 0.91679 0.41135 0.69488 0.0
H864 H 0.91234 0.40958 0.57857 0.0
H865 H 0.92581 0.42895 0.62594 0.0
C866 C 0.91232 0.37712 0.94276 0.0
N867 N 0.92311 0.39269 0.92499 0.0
N868 N 0.92695 0.39396 0.84172 0.0
C869 C 0.91882 0.37929 0.80429 0.0
C870 C 0.90926 0.36816 0.86667 0.0
C871 C 0.90579 0.3709 0.03162 0.0
H872 H 0.91595 0.37403 0.07718 0.0
H873 H 0.89919 0.37694 0.05522 0.0
H874 H 0.89756 0.35763 0.03122 0.0
O875 O 0.95766 0.42149 0.98903 0.0
O876 O 0.96422 0.41935 0.85396 0.0
H877 H 0.93366 0.38066 0.69646 0.0
H878 H 0.91397 0.36268 0.69706 0.0
C879 C 0.92071 0.3758 0.71137 0.0
H880 H 0.91602 0.38186 0.66883 0.0
H881 H 0.9656 0.40994 0.67009 0.0
O882 O 0.92984 0.40698 0.12292 0.0
C883 C 0.96823 0.4232 0.93326 0.0
Co884 Co 0.59088 0.52387 0.99543 0.0
Co885 Co 0.58566 0.52799 0.7961 0.0
C886 C 0.56601 0.49639 0.89418 0.0
O887 O 0.57444 0.50167 0.96328 0.0
O888 O 0.56896 0.50525 0.82666 0.0
C889 C 0.59206 0.51263 0.17004 0.0
O890 O 0.58662 0.49832 0.13479 0.0
C891 C 0.58668 0.52109 0.6093 0.0
C892 C 0.58728 0.54213 0.54633 0.0
C893 C 0.58761 0.52812 0.52895 0.0
N894 N 0.58596 0.53057 0.67184 0.0
N895 N 0.58623 0.54309 0.63359 0.0
C896 C 0.58687 0.50582 0.62642 0.0
H897 H 0.59125 0.50589 0.69353 0.0
H898 H 0.59459 0.50425 0.57794 0.0
H899 H 0.57441 0.49548 0.62006 0.0
C900 C 0.6247 0.5372 0.93475 0.0
N901 N 0.60893 0.53189 0.9203 0.0
N902 N 0.60678 0.5337 0.83704 0.0
C903 C 0.62121 0.54043 0.79645 0.0
C904 C 0.63296 0.54275 0.85659 0.0
C905 C 0.63169 0.53755 0.02233 0.0
H906 H 0.62939 0.54534 0.0667 0.0
H907 H 0.62551 0.52518 0.05008 0.0
H908 H 0.64486 0.54214 0.01837 0.0
O909 O 0.58074 0.53749 0.98915 0.0
O910 O 0.57845 0.54228 0.84957 0.0
H911 H 0.61745 0.55155 0.68456 0.0
H912 H 0.63694 0.55283 0.68721 0.0
C913 C 0.62393 0.54507 0.70235 0.0
H914 H 0.61915 0.53394 0.66273 0.0
H915 H 0.58595 0.55243 0.66717 0.0
O916 O 0.59608 0.52483 0.12158 0.0
C917 C 0.57678 0.54421 0.93031 0.0
Co918 Co 0.73514 0.81066 0.34201 0.0
Co919 Co 0.72654 0.80737 0.54252 0.0
C920 C 0.73784 0.83845 0.4432 0.0
O921 O 0.74018 0.83274 0.37323 0.0
O922 O 0.73265 0.83003 0.51255 0.0
C923 C 0.74811 0.82216 0.16861 0.0
O924 O 0.75721 0.83631 0.20504 0.0
C925 C 0.73441 0.81437 0.72908 0.0
C926 C 0.71424 0.79307 0.79212 0.0
C927 C 0.72844 0.80725 0.80941 0.0
N928 N 0.72428 0.80478 0.66663 0.0
N929 N 0.71219 0.79211 0.7049 0.0
C930 C 0.74971 0.8298 0.71179 0.0
H931 H 0.75411 0.82978 0.64482 0.0
H932 H 0.75905 0.83163 0.76053 0.0
H933 H 0.74732 0.83998 0.71744 0.0
C934 C 0.756 0.79778 0.40315 0.0
N935 N 0.7456 0.80315 0.41762 0.0
N936 N 0.74189 0.80165 0.5012 0.0
C937 C 0.74972 0.79508 0.54202 0.0
C938 C 0.75896 0.79253 0.48167 0.0
C939 C 0.76228 0.79697 0.31525 0.0
H940 H 0.75198 0.78931 0.27172 0.0
H941 H 0.76873 0.80927 0.28675 0.0
H942 H 0.77055 0.79201 0.31897 0.0
O943 O 0.71147 0.79646 0.34864 0.0
O944 O 0.70498 0.79325 0.48934 0.0
H945 H 0.73506 0.78402 0.65462 0.0
H946 H 0.75346 0.78313 0.65203 0.0
C947 C 0.74799 0.79067 0.63642 0.0
H948 H 0.75422 0.8019 0.67533 0.0
H949 H 0.70266 0.78266 0.67135 0.0
O950 O 0.73955 0.80989 0.216 0.0
C951 C 0.70105 0.79045 0.40919 0.0
Co952 Co 0.19119 0.92466 0.32043 0.0
Co953 Co 0.19465 0.91923 0.52044 0.0
C954 C 0.1634 0.89961 0.42601 0.0
O955 O 0.16941 0.90666 0.35372 0.0
O956 O 0.17166 0.90348 0.49598 0.0
C957 C 0.1793 0.92508 0.14604 0.0
O958 O 0.16491 0.91896 0.18132 0.0
C959 C 0.1882 0.92 0.70748 0.0
C960 C 0.2099 0.92176 0.76885 0.0
C961 C 0.19555 0.92136 0.78729 0.0
N962 N 0.19783 0.91975 0.64422 0.0
N963 N 0.21074 0.92071 0.68147 0.0
C964 C 0.17249 0.91935 0.69147 0.0
H965 H 0.17236 0.92406 0.6255 0.0
H966 H 0.17028 0.92634 0.74192 0.0
H967 H 0.16261 0.9066 0.69516 0.0
C968 C 0.20392 0.95835 0.38194 0.0
N969 N 0.1986 0.94258 0.39617 0.0
N970 N 0.20049 0.94039 0.47928 0.0
C971 C 0.20714 0.95479 0.52015 0.0
C972 C 0.20947 0.96659 0.46023 0.0
C973 C 0.20449 0.96541 0.29423 0.0
H974 H 0.19215 0.95943 0.26622 0.0
H975 H 0.20931 0.97862 0.2981 0.0
H976 H 0.21217 0.96291 0.25009 0.0
O977 O 0.20627 0.91644 0.32413 0.0
O978 O 0.20767 0.91061 0.46279 0.0
H979 H 0.21876 0.97044 0.63096 0.0
H980 H 0.2004 0.95195 0.6537 0.0
C981 C 0.21162 0.95742 0.61449 0.0
H982 H 0.21868 0.95152 0.63153 0.0
H983 H 0.22025 0.9209 0.64713 0.0
O984 O 0.19162 0.92977 0.19452 0.0
C985 C 0.21126 0.9106 0.38259 0.0
Co986 Co 0.07905 0.2688 0.33292 0.0
Co987 Co 0.08128 0.27511 0.5314 0.0
C988 C 0.10271 0.26516 0.44618 0.0
O989 O 0.09578 0.26383 0.37323 0.0
O990 O 0.09853 0.26959 0.51489 0.0
C991 C 0.06881 0.25406 0.15446 0.0
O992 O 0.05909 0.23944 0.18381 0.0
C993 C 0.08203 0.27163 0.72142 0.0
C994 C 0.06562 0.28046 0.76193 0.0
C995 C 0.07403 0.27319 0.79291 0.0
N996 N 0.07799 0.27719 0.65099 0.0
N997 N 0.06854 0.28283 0.67598 0.0
C998 C 0.09302 0.26473 0.71902 0.0
H999 H 0.10445 0.27336 0.68606 0.0
H1000 H 0.0873 0.25344 0.68005 0.0
H1001 H 0.09574 0.26218 0.78554 0.0
C1002 C 0.04354 0.24871 0.37848 0.0
N1003 N 0.05943 0.25781 0.39772 0.0
N1004 N 0.06106 0.25903 0.48315 0.0
C1005 C 0.04645 0.24976 0.52019 0.0
C1006 C 0.03493 0.24318 0.45557 0.0
C1007 C 0.03632 0.24666 0.2898 0.0
H1008 H 0.04486 0.25618 0.24518 0.0
H1009 H 0.03313 0.23459 0.26412 0.0
H1010 H 0.02501 0.24718 0.29348 0.0
O1011 O 0.08818 0.29213 0.33922 0.0
O1012 O 0.08882 0.29705 0.48059 0.0
H1013 H 0.04079 0.25662 0.64176 0.0
H1014 H 0.03227 0.23531 0.62842 0.0
C1015 C 0.04316 0.24721 0.61575 0.0
H1016 H 0.05356 0.24765 0.64934 0.0
H1017 H 0.06343 0.28754 0.63344 0.0
O1018 O 0.07684 0.26548 0.20723 0.0
C1019 C 0.09139 0.3019 0.4018 0.0
Co1020 Co 0.18995 0.26757 0.32685 0.0
Co1021 Co 0.19505 0.27598 0.5237 0.0
C1022 C 0.16309 0.26491 0.43645 0.0
O1023 O 0.168 0.26184 0.36572 0.0
O1024 O 0.1723 0.27064 0.5027 0.0
C1025 C 0.18541 0.25292 0.14568 0.0
O1026 O 0.17982 0.238 0.17202 0.0
C1027 C 0.19017 0.27256 0.71407 0.0
C1028 C 0.21542 0.28237 0.75709 0.0
C1029 C 0.19962 0.2744 0.78672 0.0
N1030 N 0.19996 0.27856 0.64447 0.0
N1031 N 0.21504 0.28485 0.67115 0.0
C1032 C 0.1722 0.26496 0.70975 0.0
H1033 H 0.16901 0.27305 0.67404 0.0
H1034 H 0.16717 0.2535 0.67261 0.0
H1035 H 0.16675 0.26254 0.77583 0.0
C1036 C 0.20516 0.24764 0.37695 0.0
N1037 N 0.19888 0.25725 0.3944 0.0
N1038 N 0.19951 0.25974 0.47925 0.0
C1039 C 0.2054 0.25108 0.51804 0.0
C1040 C 0.20929 0.24333 0.45489 0.0
C1041 C 0.20866 0.2438 0.28804 0.0
H1042 H 0.21027 0.25326 0.24104 0.0
H1043 H 0.1985 0.23196 0.26716 0.0
H1044 H 0.21972 0.24279 0.28899 0.0
O1045 O 0.20393 0.29116 0.33145 0.0
O1046 O 0.20954 0.29758 0.47077 0.0
H1047 H 0.21941 0.26044 0.63382 0.0
H1048 H 0.20764 0.23885 0.63067 0.0
C1049 C 0.20762 0.25012 0.6138 0.0
H1050 H 0.19774 0.25033 0.64953 0.0
H1051 H 0.22502 0.28998 0.62963 0.0
O1052 O 0.18915 0.26408 0.20085 0.0
C1053 C 0.2112 0.30156 0.39072 0.0
Co1054 Co 0.73638 0.92416 0.3282 0.0
Co1055 Co 0.72714 0.91955 0.52704 0.0
C1056 C 0.73859 0.89931 0.43583 0.0
O1057 O 0.74088 0.90691 0.36428 0.0
O1058 O 0.73339 0.90294 0.50368 0.0
C1059 C 0.7436 0.9199 0.15345 0.0
O1060 O 0.74506 0.9081 0.18741 0.0
C1061 C 0.73347 0.91996 0.71437 0.0
C1062 C 0.71317 0.9216 0.7721 0.0
C1063 C 0.72689 0.92092 0.79292 0.0
N1064 N 0.72417 0.92025 0.64951 0.0
N1065 N 0.71205 0.92122 0.68444 0.0
C1066 C 0.74818 0.91856 0.70102 0.0
H1067 H 0.74467 0.90562 0.70272 0.0
H1068 H 0.75366 0.92355 0.63645 0.0
H1069 H 0.7571 0.92489 0.75377 0.0
C1070 C 0.75699 0.95812 0.38666 0.0
N1071 N 0.74666 0.94237 0.40232 0.0
N1072 N 0.74278 0.94042 0.48564 0.0
C1073 C 0.7505 0.95492 0.52538 0.0
C1074 C 0.75976 0.96657 0.4643 0.0
C1075 C 0.76315 0.96497 0.29812 0.0
H1076 H 0.75288 0.9632 0.2567 0.0
H1077 H 0.76858 0.95832 0.26718 0.0
H1078 H 0.77222 0.97802 0.30152 0.0
O1079 O 0.71273 0.91495 0.33026 0.0
O1080 O 0.70586 0.91207 0.47031 0.0
H1081 H 0.73563 0.95236 0.63538 0.0
H1082 H 0.75494 0.9708 0.6356 0.0
C1083 C 0.74861 0.95776 0.61939 0.0
H1084 H 0.75378 0.95186 0.65968 0.0
H1085 H 0.70301 0.92163 0.64841 0.0
O1086 O 0.74167 0.92944 0.20318 0.0
C1087 C 0.70214 0.91074 0.38978 0.0
Co1088 Co 0.07816 0.81211 0.31611 0.0
Co1089 Co 0.08269 0.80799 0.51666 0.0
C1090 C 0.10279 0.83949 0.42079 0.0
O1091 O 0.09526 0.83412 0.34906 0.0
O1092 O 0.09926 0.8307 0.48873 0.0
C1093 C 0.0767 0.82368 0.14214 0.0
O1094 O 0.08166 0.83784 0.17825 0.0
C1095 C 0.08196 0.81511 0.7029 0.0
C1096 C 0.08004 0.79351 0.76648 0.0
C1097 C 0.08057 0.80796 0.7834 0.0
N1098 N 0.08212 0.80528 0.64072 0.0
N1099 N 0.08108 0.79243 0.6793 0.0
C1100 C 0.08267 0.83081 0.68524 0.0
H1101 H 0.07857 0.83103 0.61776 0.0
H1102 H 0.07515 0.83284 0.73306 0.0
H1103 H 0.09533 0.84073 0.69231 0.0
C1104 C 0.04409 0.79879 0.37537 0.0
N1105 N 0.05987 0.8043 0.39075 0.0
N1106 N 0.06186 0.8026 0.47439 0.0
C1107 C 0.04739 0.79589 0.51436 0.0
C1108 C 0.0357 0.79332 0.45336 0.0
C1109 C 0.03715 0.79796 0.28706 0.0
H1110 H 0.04263 0.81034 0.25989 0.0
H1111 H 0.02384 0.79249 0.28968 0.0
H1112 H 0.04035 0.79077 0.24311 0.0
O1113 O 0.08778 0.79806 0.32247 0.0
O1114 O 0.08986 0.79366 0.46295 0.0
H1115 H 0.03153 0.78424 0.62446 0.0
H1116 H 0.05006 0.8025 0.64816 0.0
C1117 C 0.04457 0.79133 0.60859 0.0
H1118 H 0.05037 0.78417 0.62584 0.0
H1119 H 0.08082 0.78279 0.64598 0.0
O1120 O 0.07316 0.81148 0.18978 0.0
C1121 C 0.09167 0.79151 0.38261 0.0
Co1122 Co 0.93426 0.52219 0.99933 0.0
Co1123 Co 0.94241 0.52814 0.80148 0.0
C1124 C 0.93237 0.49616 0.88237 0.0
O1125 O 0.93054 0.50092 0.95689 0.0
O1126 O 0.93655 0.50531 0.8158 0.0
C1127 C 0.91945 0.51707 0.18078 0.0
O1128 O 0.90451 0.51138 0.15463 0.0
C1129 C 0.93936 0.52379 0.61152 0.0
C1130 C 0.94842 0.54893 0.56877 0.0
C1131 C 0.94089 0.53314 0.53904 0.0
N1132 N 0.94508 0.53358 0.68126 0.0
N1133 N 0.95094 0.54862 0.6548 0.0
C1134 C 0.93238 0.50589 0.6153 0.0
H1135 H 0.94105 0.50314 0.64813 0.0
H1136 H 0.92116 0.50045 0.65482 0.0
H1137 H 0.92971 0.50044 0.54921 0.0
C1138 C 0.91359 0.53688 0.95178 0.0
N1139 N 0.92339 0.53086 0.93282 0.0
N1140 N 0.92601 0.53204 0.84796 0.0
C1141 C 0.91719 0.53788 0.81064 0.0
C1142 C 0.90925 0.54129 0.87478 0.0
C1143 C 0.90976 0.54011 0.04133 0.0
H1144 H 0.91929 0.54171 0.08775 0.0
H1145 H 0.89798 0.52984 0.06197 0.0
H1146 H 0.90863 0.5511 0.0417 0.0
O1147 O 0.95749 0.53704 0.99704 0.0
O1148 O 0.96403 0.54205 0.8574 0.0
H1149 H 0.92648 0.55255 0.69694 0.0
H1150 H 0.90493 0.54042 0.69908 0.0
C1151 C 0.9163 0.54056 0.71533 0.0
H1152 H 0.91677 0.53099 0.67772 0.0
H1153 H 0.9558 0.55858 0.69644 0.0
O1154 O 0.9306 0.52086 0.12545 0.0
C1155 C 0.96792 0.54403 0.93775 0.0
Co1156 Co 0.47857 0.41053 0.99925 0.0
Co1157 Co 0.47393 0.41568 0.80105 0.0
C1158 C 0.50569 0.43556 0.89291 0.0
O1159 O 0.50035 0.42764 0.96352 0.0
O1160 O 0.49686 0.43226 0.8252 0.0
C1161 C 0.4897 0.41503 0.17413 0.0
O1162 O 0.50275 0.42713 0.14022 0.0
C1163 C 0.47971 0.41539 0.61314 0.0
C1164 C 0.45782 0.414 0.55648 0.0
C1165 C 0.4721 0.41451 0.5349 0.0
N1166 N 0.47026 0.41521 0.6785 0.0
N1167 N 0.4572 0.4144 0.64418 0.0
C1168 C 0.49575 0.41658 0.62574 0.0
H1169 H 0.5053 0.42948 0.62349 0.0
H1170 H 0.49626 0.41161 0.69032 0.0
H1171 H 0.49813 0.41011 0.57294 0.0
C1172 C 0.46522 0.37672 0.93839 0.0
N1173 N 0.47055 0.39249 0.92404 0.0
N1174 N 0.4686 0.39465 0.84104 0.0
C1175 C 0.46187 0.38024 0.80026 0.0
C1176 C 0.45956 0.36846 0.86023 0.0
C1177 C 0.4647 0.36968 0.02616 0.0
H1178 H 0.47674 0.37652 0.05746 0.0
H1179 H 0.46107 0.35673 0.0214 0.0
H1180 H 0.45597 0.371 0.06805 0.0
O1181 O 0.46428 0.4199 0.99817 0.0
O1182 O 0.46015 0.42312 0.85884 0.0
H1183 H 0.45032 0.3646 0.68934 0.0
H1184 H 0.46834 0.3834 0.66633 0.0
C1185 C 0.45721 0.37761 0.70615 0.0
H1186 H 0.44984 0.38323 0.69026 0.0
H1187 H 0.44784 0.41408 0.68067 0.0
O1188 O 0.4785 0.40512 0.1242 0.0
C1189 C 0.45785 0.42425 0.93971 0.0
Co1190 Co 0.59045 0.06837 0.00334 0.0
Co1191 Co 0.58587 0.05774 0.80677 0.0
C1192 C 0.56566 0.06997 0.89508 0.0
O1193 O 0.57391 0.07366 0.96509 0.0
O1194 O 0.56884 0.06364 0.83036 0.0
C1195 C 0.58454 0.07213 0.17868 0.0
O1196 O 0.57107 0.0702 0.14503 0.0
C1197 C 0.5856 0.06298 0.61772 0.0
C1198 C 0.58901 0.04348 0.56391 0.0
C1199 C 0.58718 0.05643 0.54031 0.0
N1200 N 0.58663 0.05441 0.68435 0.0
N1201 N 0.58865 0.04275 0.65168 0.0
C1202 C 0.58295 0.077 0.62862 0.0
H1203 H 0.56991 0.07239 0.63977 0.0
H1204 H 0.58964 0.08414 0.68669 0.0
H1205 H 0.58677 0.08477 0.56968 0.0
C1206 C 0.62442 0.08851 0.94498 0.0
N1207 N 0.60869 0.07804 0.92978 0.0
N1208 N 0.60675 0.07371 0.84715 0.0
C1209 C 0.62125 0.08127 0.80742 0.0
C1210 C 0.63289 0.09089 0.86775 0.0
C1211 C 0.63122 0.09528 0.03278 0.0
H1212 H 0.62985 0.08536 0.07593 0.0
H1213 H 0.62426 0.10049 0.06232 0.0
H1214 H 0.64417 0.10463 0.02858 0.0
O1215 O 0.58065 0.04461 0.00327 0.0
O1216 O 0.57894 0.03675 0.8655 0.0
H1217 H 0.61932 0.06603 0.70066 0.0
H1218 H 0.63707 0.08589 0.69664 0.0
C1219 C 0.62408 0.07902 0.71398 0.0
H1220 H 0.6175 0.08331 0.67282 0.0
H1221 H 0.58984 0.03433 0.68939 0.0
O1222 O 0.59577 0.07367 0.12828 0.0
C1223 C 0.5771 0.03363 0.94676 0.0
C1224 C 0.10168 0.42663 0.17879 0.0
C1225 C 0.11875 0.43509 0.18553 0.0
C1226 C 0.11946 0.46061 0.15466 0.0
C1227 C 0.10253 0.45194 0.14128 0.0
N1228 N 0.0778 0.42656 0.12566 0.0
N1229 N 0.14424 0.45966 0.16943 0.0
C1230 C 0.09372 0.43489 0.14893 0.0
C1231 C 0.12776 0.45197 0.17068 0.0
N1232 N 0.09306 0.41078 0.20329 0.0
N1233 N 0.12752 0.4771 0.15439 0.0
H1234 H 0.1507 0.45379 0.18316 0.0
H1235 H 0.15151 0.47155 0.14929 0.0
H1236 H 0.12191 0.48377 0.14017 0.0
H1237 H 0.13951 0.48418 0.17355 0.0
H1238 H 0.08054 0.4044 0.20871 0.0
H1239 H 0.09849 0.40435 0.22589 0.0
H1240 H 0.07113 0.41404 0.12093 0.0
H1241 H 0.07156 0.43221 0.10341 0.0
C1242 C 0.56873 0.65944 0.16211 0.0
C1243 C 0.55171 0.65111 0.15261 0.0
C1244 C 0.55137 0.67619 0.18015 0.0
C1245 C 0.56821 0.68418 0.19655 0.0
N1246 N 0.59257 0.68304 0.21755 0.0
N1247 N 0.5264 0.65072 0.16285 0.0
C1248 C 0.57679 0.67568 0.19173 0.0
C1249 C 0.54289 0.65926 0.16435 0.0
N1250 N 0.57722 0.65194 0.14045 0.0
N1251 N 0.54359 0.68488 0.17731 0.0
H1252 H 0.51983 0.6384 0.14918 0.0
H1253 H 0.51921 0.65556 0.18073 0.0
H1254 H 0.54933 0.6972 0.191 0.0
H1255 H 0.53175 0.68017 0.15592 0.0
H1256 H 0.58976 0.65787 0.13708 0.0
H1257 H 0.57173 0.64006 0.11817 0.0
H1258 H 0.59902 0.677 0.2244 0.0
H1259 H 0.59888 0.69494 0.23965 0.0
C1260 C 0.34446 0.88432 0.17835 0.0
C1261 C 0.35195 0.90099 0.158 0.0
C1262 C 0.32684 0.90092 0.19086 0.0
C1263 C 0.31903 0.88403 0.20511 0.0
N1264 N 0.31955 0.85914 0.20407 0.0
N1265 N 0.35018 0.92493 0.1341 0.0
C1266 C 0.32762 0.87558 0.19678 0.0
C1267 C 0.3431 0.90923 0.16121 0.0
N1268 N 0.35356 0.87697 0.18215 0.0
N1269 N 0.31876 0.90906 0.20765 0.0
H1270 H 0.36214 0.93148 0.11327 0.0
H1271 H 0.34394 0.93116 0.12568 0.0
H1272 H 0.3068 0.90334 0.22874 0.0
H1273 H 0.32419 0.92157 0.2076 0.0
H1274 H 0.34932 0.86538 0.20642 0.0
H1275 H 0.36577 0.88284 0.1657 0.0
H1276 H 0.3246 0.85202 0.18868 0.0
H1277 H 0.30737 0.85243 0.22088 0.0
C1278 C 0.45974 0.11699 0.82067 0.0
C1279 C 0.45075 0.10029 0.84046 0.0
C1280 C 0.42551 0.10014 0.81105 0.0
C1281 C 0.43439 0.1171 0.79914 0.0
N1282 N 0.45968 0.14214 0.80104 0.0
N1283 N 0.42518 0.07627 0.86675 0.0
C1284 C 0.45146 0.12567 0.80596 0.0
C1285 C 0.43364 0.09194 0.83912 0.0
N1286 N 0.47616 0.12445 0.81394 0.0
N1287 N 0.40934 0.09182 0.79332 0.0
H1288 H 0.43072 0.06982 0.88713 0.0
H1289 H 0.41275 0.07004 0.87645 0.0
H1290 H 0.40299 0.09743 0.77224 0.0
H1291 H 0.40247 0.07929 0.79191 0.0
H1292 H 0.48331 0.13611 0.79013 0.0
H1293 H 0.48264 0.11857 0.82683 0.0
H1294 H 0.4719 0.14926 0.8154 0.0
H1295 H 0.45404 0.14883 0.78777 0.0
C1296 C 0.9004 0.32557 0.82068 0.0
C1297 C 0.88339 0.3173 0.81116 0.0
C1298 C 0.88315 0.34241 0.83979 0.0
C1299 C 0.90001 0.35036 0.85529 0.0
N1300 N 0.92432 0.34912 0.87589 0.0
N1301 N 0.85812 0.31698 0.82246 0.0
C1302 C 0.90853 0.3418 0.85037 0.0
C1303 C 0.87461 0.32548 0.8237 0.0
N1304 N 0.90884 0.31801 0.79896 0.0
N1305 N 0.8754 0.35114 0.83799 0.0
H1306 H 0.85152 0.30467 0.80848 0.0
H1307 H 0.85096 0.32183 0.84077 0.0
H1308 H 0.88118 0.36343 0.85236 0.0
H1309 H 0.86354 0.34647 0.81719 0.0
H1310 H 0.92138 0.32389 0.7955 0.0
H1311 H 0.9033 0.30612 0.77683 0.0
H1312 H 0.93075 0.34305 0.88256 0.0
H1313 H 0.93066 0.36102 0.89806 0.0
C1314 C 0.65808 0.54172 0.82142 0.0
C1315 C 0.65063 0.55097 0.84088 0.0
C1316 C 0.67598 0.57594 0.81076 0.0
C1317 C 0.68376 0.56678 0.79842 0.0
N1318 N 0.68301 0.54126 0.80099 0.0
N1319 N 0.65266 0.57677 0.8662 0.0
C1320 C 0.67502 0.54973 0.80602 0.0
C1321 C 0.65964 0.56806 0.839 0.0
N1322 N 0.64887 0.5253 0.8156 0.0
N1323 N 0.68412 0.59212 0.79334 0.0
H1324 H 0.64067 0.57141 0.88641 0.0
H1325 H 0.65904 0.5892 0.87554 0.0
H1326 H 0.69611 0.5983 0.77267 0.0
H1327 H 0.67868 0.5992 0.79207 0.0
H1328 H 0.65317 0.51796 0.79204 0.0
H1329 H 0.63653 0.51901 0.82909 0.0
H1330 H 0.67775 0.52905 0.81593 0.0
H1331 H 0.6953 0.54669 0.78702 0.0
C1332 C 0.90933 0.56691 0.84053 0.0
C1333 C 0.90046 0.55029 0.86245 0.0
C1334 C 0.87509 0.5506 0.84694 0.0
C1335 C 0.88394 0.56681 0.81741 0.0
N1336 N 0.9092 0.58991 0.77507 0.0
N1337 N 0.875 0.52568 0.87811 0.0
C1338 C 0.90099 0.57482 0.81092 0.0
C1339 C 0.88335 0.54196 0.86373 0.0
N1340 N 0.92572 0.57524 0.85076 0.0
N1341 N 0.85884 0.54361 0.86065 0.0
H1342 H 0.88065 0.51907 0.89296 0.0
H1343 H 0.86258 0.51854 0.87003 0.0
H1344 H 0.85233 0.54938 0.84589 0.0
H1345 H 0.85197 0.53254 0.8916 0.0
H1346 H 0.93276 0.58772 0.8446 0.0
H1347 H 0.93222 0.56988 0.87333 0.0
H1348 H 0.92142 0.59569 0.75952 0.0
H1349 H 0.90354 0.59621 0.75414 0.0
C1350 C 0.42571 0.32609 0.80837 0.0
C1351 C 0.43436 0.31768 0.80099 0.0
C1352 C 0.45975 0.34272 0.83011 0.0
C1353 C 0.45091 0.35076 0.84481 0.0
N1354 N 0.42539 0.34978 0.86153 0.0
N1355 N 0.45919 0.3172 0.81414 0.0
C1356 C 0.43385 0.34234 0.83781 0.0
C1357 C 0.45129 0.32579 0.81423 0.0
N1358 N 0.40979 0.31861 0.7852 0.0
N1359 N 0.47624 0.35136 0.82909 0.0
H1360 H 0.45345 0.30489 0.80019 0.0
H1361 H 0.47116 0.32199 0.83321 0.0
H1362 H 0.48281 0.36368 0.84289 0.0
H1363 H 0.48341 0.34662 0.80908 0.0
H1364 H 0.40322 0.32457 0.78031 0.0
H1365 H 0.40344 0.30671 0.76325 0.0
H1366 H 0.41288 0.3438 0.8669 0.0
H1367 H 0.43095 0.3617 0.88329 0.0
C1368 C 0.659 0.09129 0.84516 0.0
C1369 C 0.65063 0.09995 0.85371 0.0
C1370 C 0.67575 0.12541 0.82732 0.0
C1371 C 0.68377 0.11658 0.81152 0.0
N1372 N 0.68275 0.09111 0.79169 0.0
N1373 N 0.65023 0.12486 0.8429 0.0
C1374 C 0.6753 0.0995 0.81646 0.0
C1375 C 0.65879 0.11693 0.8422 0.0
N1376 N 0.65148 0.0753 0.86682 0.0
N1377 N 0.68442 0.14189 0.83032 0.0
H1378 H 0.63788 0.1191 0.8557 0.0
H1379 H 0.6551 0.13691 0.82514 0.0
H1380 H 0.69677 0.14849 0.81737 0.0
H1381 H 0.67966 0.14899 0.85127 0.0
H1382 H 0.65741 0.0687 0.87087 0.0
H1383 H 0.63955 0.06889 0.88841 0.0
H1384 H 0.67674 0.07862 0.78478 0.0
H1385 H 0.69472 0.09672 0.77071 0.0
C1386 C 0.56929 0.91009 0.16817 0.0
C1387 C 0.55221 0.90151 0.16289 0.0
C1388 C 0.55182 0.87598 0.18707 0.0
C1389 C 0.56879 0.88473 0.19904 0.0
N1390 N 0.59349 0.91012 0.21512 0.0
N1391 N 0.52688 0.87672 0.17752 0.0
C1392 C 0.57748 0.90181 0.19368 0.0
C1393 C 0.54336 0.88455 0.17508 0.0
N1394 N 0.5777 0.92609 0.14649 0.0
N1395 N 0.54389 0.85949 0.18478 0.0
H1396 H 0.52029 0.88255 0.16671 0.0
H1397 H 0.51973 0.8647 0.19588 0.0
H1398 H 0.54964 0.85284 0.1957 0.0
H1399 H 0.53186 0.85242 0.16649 0.0
H1400 H 0.5902 0.93262 0.13986 0.0
H1401 H 0.57212 0.93258 0.12769 0.0
H1402 H 0.60011 0.92261 0.22168 0.0
H1403 H 0.59992 0.90445 0.23379 0.0
C1404 C 0.09247 0.65933 0.14892 0.0
C1405 C 0.10124 0.6511 0.13837 0.0
C1406 C 0.12666 0.67637 0.16295 0.0
C1407 C 0.11775 0.68426 0.18049 0.0
N1408 N 0.09223 0.68297 0.20371 0.0
N1409 N 0.12633 0.651 0.1449 0.0
C1410 C 0.10065 0.67564 0.17742 0.0
C1411 C 0.11826 0.65942 0.14786 0.0
N1412 N 0.07638 0.65164 0.12936 0.0
N1413 N 0.14312 0.68519 0.15848 0.0
H1414 H 0.12062 0.63867 0.13153 0.0
H1415 H 0.13846 0.65596 0.16112 0.0
H1416 H 0.14966 0.69752 0.17182 0.0
H1417 H 0.15025 0.68055 0.13622 0.0
H1418 H 0.06965 0.65745 0.12678 0.0
H1419 H 0.06998 0.6397 0.10808 0.0
H1420 H 0.07977 0.67687 0.21199 0.0
H1421 H 0.09783 0.69494 0.22459 0.0
C1422 C 0.34272 0.43376 0.15896 0.0
C1423 C 0.35226 0.45067 0.17108 0.0
C1424 C 0.32849 0.45176 0.22165 0.0
C1425 C 0.31915 0.43474 0.21383 0.0
N1426 N 0.31772 0.40914 0.19141 0.0
N1427 N 0.35514 0.47561 0.22523 0.0
C1428 C 0.32638 0.42562 0.18711 0.0
C1429 C 0.34541 0.45963 0.2059 0.0
N1430 N 0.34922 0.42552 0.1193 0.0
N1431 N 0.32107 0.46042 0.24111 0.0
H1432 H 0.36747 0.48191 0.21144 0.0
H1433 H 0.35127 0.4824 0.25993 0.0
H1434 H 0.30879 0.45502 0.25532 0.0
H1435 H 0.32681 0.47295 0.23791 0.0
H1436 H 0.34245 0.41354 0.09944 0.0
H1437 H 0.36128 0.43097 0.10013 0.0
H1438 H 0.32272 0.40179 0.18149 0.0
H1439 H 0.30578 0.40277 0.21273 0.0
C1440 C 0.76018 0.76707 0.49311 0.0
C1441 C 0.76822 0.78414 0.4977 0.0
C1442 C 0.79329 0.78493 0.54115 0.0
C1443 C 0.78497 0.76782 0.54149 0.0
N1444 N 0.76 0.74249 0.53377 0.0
N1445 N 0.7916 0.80941 0.53701 0.0
C1446 C 0.76825 0.75885 0.52199 0.0
C1447 C 0.78456 0.79311 0.52498 0.0
N1448 N 0.74489 0.75872 0.45974 0.0
N1449 N 0.80963 0.79333 0.55332 0.0
H1450 H 0.78576 0.81586 0.52262 0.0
H1451 H 0.80281 0.8164 0.56633 0.0
H1452 H 0.81632 0.78775 0.5677 0.0
H1453 H 0.81673 0.80573 0.54389 0.0
H1454 H 0.73904 0.74645 0.44545 0.0
H1455 H 0.73845 0.76429 0.43973 0.0
H1456 H 0.74751 0.73542 0.52943 0.0
H1457 H 0.7655 0.73609 0.55572 0.0
C1458 C 0.23498 0.99281 0.48472 0.0
C1459 C 0.21795 0.98427 0.47604 0.0
C1460 C 0.21723 0.00909 0.50616 0.0
C1461 C 0.23411 0.01729 0.52136 0.0
N1462 N 0.25873 0.01654 0.53995 0.0
N1463 N 0.19245 0.98343 0.48898 0.0
C1464 C 0.24289 0.00901 0.51497 0.0
C1465 C 0.20894 0.99218 0.4896 0.0
N1466 N 0.24363 0.98553 0.46187 0.0
N1467 N 0.20922 0.01757 0.5051 0.0
H1468 H 0.18601 0.97113 0.47471 0.0
H1469 H 0.18514 0.98807 0.50816 0.0
H1470 H 0.21482 0.02986 0.51936 0.0
H1471 H 0.19731 0.01272 0.48467 0.0
H1472 H 0.25616 0.99162 0.45777 0.0
H1473 H 0.23824 0.97366 0.43951 0.0
H1474 H 0.26535 0.01066 0.54561 0.0
H1475 H 0.26492 0.02841 0.56261 0.0
C1476 C 0.99275 0.23527 0.51075 0.0
C1477 C 0.98409 0.21815 0.51261 0.0
C1478 C 0.00828 0.2175 0.46565 0.0
C1479 C 0.01717 0.23459 0.4688 0.0
N1480 N 0.0186 0.25998 0.49966 0.0
N1481 N 0.98349 0.19278 0.50147 0.0
C1482 C 0.00959 0.24355 0.49273 0.0
C1483 C 0.99183 0.2092 0.49272 0.0
N1484 N 0.98474 0.24358 0.52416 0.0
N1485 N 0.01555 0.20926 0.4355 0.0
H1486 H 0.97137 0.18633 0.51963 0.0
H1487 H 0.98874 0.18556 0.49675 0.0
H1488 H 0.02766 0.21496 0.41697 0.0
H1489 H 0.00945 0.19693 0.42295 0.0
H1490 H 0.98977 0.2559 0.51306 0.0
H1491 H 0.97263 0.23802 0.54231 0.0
H1492 H 0.01441 0.26711 0.52757 0.0
H1493 H 0.03069 0.26659 0.48106 0.0
C1494 C 0.21811 0.20885 0.48265 0.0
C1495 C 0.23418 0.21748 0.51435 0.0
C1496 C 0.23457 0.24306 0.49369 0.0
C1497 C 0.21808 0.23438 0.4691 0.0
N1498 N 0.19343 0.2091 0.44942 0.0
N1499 N 0.25719 0.24244 0.56096 0.0
C1500 C 0.20964 0.21728 0.46578 0.0
C1501 C 0.24225 0.2345 0.52322 0.0
N1502 N 0.21107 0.19266 0.46704 0.0
N1503 N 0.24303 0.2595 0.48589 0.0
H1504 H 0.26337 0.23662 0.5815 0.0
H1505 H 0.26297 0.25458 0.57825 0.0
H1506 H 0.23785 0.26617 0.46352 0.0
H1507 H 0.25547 0.26644 0.49401 0.0
H1508 H 0.20015 0.186 0.4344 0.0
H1509 H 0.21667 0.18599 0.48201 0.0
H1510 H 0.18619 0.19665 0.4559 0.0
H1511 H 0.18692 0.21487 0.43477 0.0
C1512 C 0.75972 0.99248 0.48587 0.0
C1513 C 0.76859 0.98431 0.47814 0.0
C1514 C 0.79381 0.00961 0.5057 0.0
C1515 C 0.78477 0.01746 0.52012 0.0
N1516 N 0.7591 0.01608 0.53791 0.0
N1517 N 0.79367 0.98428 0.4906 0.0
C1518 C 0.7677 0.00879 0.51428 0.0
C1519 C 0.78555 0.99266 0.49069 0.0
N1520 N 0.74373 0.98474 0.46378 0.0
N1521 N 0.81029 0.01846 0.50402 0.0
H1522 H 0.78807 0.97195 0.47737 0.0
H1523 H 0.80569 0.98927 0.50908 0.0
H1524 H 0.81672 0.0308 0.51735 0.0
H1525 H 0.81758 0.01385 0.48404 0.0
H1526 H 0.73699 0.99051 0.45903 0.0
H1527 H 0.73748 0.97278 0.44268 0.0
H1528 H 0.74659 0.00995 0.54411 0.0
H1529 H 0.76454 0.02805 0.55876 0.0
C1530 C 0.99361 0.75893 0.50431 0.0
C1531 C 0.985 0.76734 0.51377 0.0
C1532 C 0.00975 0.793 0.48467 0.0
C1533 C 0.01798 0.78441 0.46804 0.0
N1534 N 0.01743 0.75915 0.44868 0.0
N1535 N 0.98405 0.79196 0.50368 0.0
C1536 C 0.0098 0.76734 0.47397 0.0
C1537 C 0.99285 0.78429 0.5016 0.0
N1538 N 0.98639 0.74298 0.52649 0.0
N1539 N 0.01818 0.80949 0.48643 0.0
H1540 H 0.97177 0.78603 0.51844 0.0
H1541 H 0.98864 0.80395 0.48552 0.0
H1542 H 0.03044 0.81624 0.47151 0.0
H1543 H 0.01332 0.81648 0.50792 0.0
H1544 H 0.99251 0.73655 0.52981 0.0
H1545 H 0.97455 0.73644 0.54927 0.0
H1546 H 0.01162 0.74666 0.44254 0.0
H1547 H 0.02933 0.76492 0.42646 0.0
C1548 C 0.11584 0.32953 0.40237 0.0
C1549 C 0.09933 0.31935 0.38067 0.0
C1550 C 0.09934 0.34162 0.30036 0.0
C1551 C 0.11618 0.35126 0.31517 0.0
N1552 N 0.14104 0.35381 0.36938 0.0
N1553 N 0.07542 0.31503 0.30471 0.0
C1554 C 0.12456 0.34512 0.364 0.0
C1555 C 0.0911 0.32522 0.32833 0.0
N1556 N 0.1233 0.32428 0.45885 0.0
N1557 N 0.09113 0.34834 0.26275 0.0
H1558 H 0.0686 0.30336 0.32946 0.0
H1559 H 0.06938 0.31783 0.25761 0.0
H1560 H 0.09677 0.3603 0.24158 0.0
H1561 H 0.07861 0.34254 0.25845 0.0
H1562 H 0.13459 0.33183 0.48615 0.0
H1563 H 0.11784 0.3126 0.4838 0.0
H1564 H 0.14805 0.34923 0.39438 0.0
H1565 H 0.14797 0.36525 0.34228 0.0
C1566 C 0.66139 0.75897 0.30696 0.0
C1567 C 0.6517 0.76613 0.32181 0.0
C1568 C 0.67446 0.78921 0.39418 0.0
C1569 C 0.6838 0.78157 0.38421 0.0
N1570 N 0.68598 0.75855 0.3417 0.0
N1571 N 0.64823 0.78714 0.38824 0.0
C1572 C 0.67723 0.76628 0.34321 0.0
C1573 C 0.65799 0.78093 0.36844 0.0
N1574 N 0.65545 0.74519 0.25821 0.0
N1575 N 0.68158 0.80478 0.42376 0.0
H1576 H 0.63649 0.78233 0.3651 0.0
H1577 H 0.65142 0.79655 0.43222 0.0
H1578 H 0.69356 0.81128 0.44432 0.0
H1579 H 0.67606 0.81179 0.4217 0.0
H1580 H 0.66242 0.74034 0.23636 0.0
H1581 H 0.64362 0.73897 0.23513 0.0
H1582 H 0.68144 0.74672 0.32074 0.0
H1583 H 0.69757 0.76359 0.36793 0.0
C1584 C 0.21287 0.88966 0.29083 0.0
C1585 C 0.22011 0.90228 0.35389 0.0
C1586 C 0.24466 0.9001 0.35185 0.0
C1587 C 0.23695 0.88675 0.2941 0.0
N1588 N 0.21317 0.86761 0.21521 0.0
N1589 N 0.24252 0.91912 0.44805 0.0
C1590 C 0.221 0.88134 0.26447 0.0
C1591 C 0.23588 0.90733 0.38578 0.0
N1592 N 0.19813 0.88548 0.25584 0.0
N1593 N 0.26065 0.90628 0.37103 0.0
H1594 H 0.23716 0.9257 0.46905 0.0
H1595 H 0.25299 0.92194 0.48225 0.0
H1596 H 0.26748 0.9015 0.34567 0.0
H1597 H 0.26757 0.91689 0.40583 0.0
H1598 H 0.19354 0.87848 0.19988 0.0
H1599 H 0.19061 0.88953 0.27964 0.0
H1600 H 0.20081 0.86154 0.20321 0.0
H1601 H 0.21873 0.86151 0.19025 0.0
C1602 C 0.32358 0.11304 0.69974 0.0
C1603 C 0.31732 0.09867 0.64925 0.0
C1604 C 0.34319 0.09922 0.66341 0.0
C1605 C 0.34979 0.11434 0.70645 0.0
N1606 N 0.34731 0.13725 0.7493 0.0
N1607 N 0.32127 0.07847 0.57763 0.0
C1608 C 0.34024 0.12163 0.72089 0.0
C1609 C 0.32719 0.0919 0.6292 0.0
N1610 N 0.31369 0.11864 0.72751 0.0
N1611 N 0.35208 0.09168 0.65779 0.0
H1612 H 0.30934 0.07217 0.55622 0.0
H1613 H 0.32835 0.07402 0.55208 0.0
H1614 H 0.36377 0.09671 0.68266 0.0
H1615 H 0.34754 0.07995 0.63502 0.0
H1616 H 0.31715 0.12772 0.77405 0.0
H1617 H 0.30165 0.11357 0.70944 0.0
H1618 H 0.34143 0.14392 0.75091 0.0
H1619 H 0.35957 0.14416 0.76315 0.0
C1620 C 0.90785 0.23592 0.60732 0.0
C1621 C 0.9014 0.21932 0.62734 0.0
C1622 C 0.87872 0.21896 0.70477 0.0
C1623 C 0.88576 0.23578 0.69006 0.0
N1624 N 0.90776 0.26083 0.63707 0.0
N1625 N 0.88148 0.19519 0.70169 0.0
C1626 C 0.9005 0.24441 0.6435 0.0
C1627 C 0.88709 0.21092 0.67823 0.0
N1628 N 0.92103 0.24355 0.55401 0.0
N1629 N 0.86357 0.21045 0.74003 0.0
H1630 H 0.88618 0.18822 0.67768 0.0
H1631 H 0.87263 0.1892 0.74891 0.0
H1632 H 0.85711 0.21583 0.7625 0.0
H1633 H 0.85682 0.19791 0.7413 0.0
H1634 H 0.92526 0.25507 0.52867 0.0
H1635 H 0.9273 0.23803 0.53059 0.0
H1636 H 0.91927 0.26815 0.61182 0.0
H1637 H 0.90274 0.26739 0.66342 0.0
C1638 C 0.76607 0.67421 0.6294 0.0
C1639 C 0.78298 0.68358 0.64282 0.0
C1640 C 0.78268 0.66112 0.72221 0.0
C1641 C 0.76598 0.65137 0.70352 0.0
N1642 N 0.74191 0.64777 0.63273 0.0
N1643 N 0.80791 0.68541 0.69007 0.0
C1644 C 0.75772 0.65767 0.65495 0.0
C1645 C 0.79141 0.67692 0.68656 0.0
N1646 N 0.75792 0.68132 0.59575 0.0
N1647 N 0.79027 0.65525 0.77361 0.0
H1648 H 0.81483 0.69705 0.66542 0.0
H1649 H 0.81492 0.68054 0.71083 0.0
H1650 H 0.78477 0.64337 0.79576 0.0
H1651 H 0.80179 0.66239 0.79925 0.0
H1652 H 0.74539 0.6757 0.593 0.0
H1653 H 0.76365 0.69336 0.57617 0.0
H1654 H 0.73572 0.65096 0.58855 0.0
H1655 H 0.73511 0.63593 0.65518 0.0
C1656 C 0.88029 0.6611 0.70753 0.0
C1657 C 0.88694 0.65096 0.69265 0.0
C1658 C 0.9097 0.67286 0.61307 0.0
C1659 C 0.90253 0.68261 0.62376 0.0
N1660 N 0.87974 0.68529 0.6669 0.0
N1661 N 0.90695 0.64628 0.6245 0.0
C1662 C 0.88749 0.67654 0.66735 0.0
C1663 C 0.90133 0.65657 0.64306 0.0
N1664 N 0.86706 0.656 0.7601 0.0
N1665 N 0.92479 0.6794 0.57759 0.0
H1666 H 0.90183 0.63467 0.65038 0.0
H1667 H 0.91618 0.64891 0.58017 0.0
H1668 H 0.93111 0.69118 0.55384 0.0
H1669 H 0.93153 0.6736 0.57662 0.0
H1670 H 0.86291 0.66354 0.78247 0.0
H1671 H 0.86073 0.64445 0.78673 0.0
H1672 H 0.86793 0.68081 0.68817 0.0
H1673 H 0.88456 0.69663 0.63802 0.0
C1674 C 0.32806 0.21286 0.61186 0.0
C1675 C 0.31799 0.21944 0.63104 0.0
C1676 C 0.34048 0.24227 0.70701 0.0
C1677 C 0.3502 0.23517 0.6922 0.0
N1678 N 0.35278 0.21264 0.64245 0.0
N1679 N 0.31381 0.23946 0.70297 0.0
C1680 C 0.34389 0.22022 0.64739 0.0
C1681 C 0.32397 0.23385 0.68076 0.0
N1682 N 0.32249 0.1995 0.55978 0.0
N1683 N 0.34724 0.25738 0.74257 0.0
H1684 H 0.30202 0.23434 0.67967 0.0
H1685 H 0.31674 0.24868 0.74782 0.0
H1686 H 0.35924 0.26382 0.76289 0.0
H1687 H 0.3414 0.26405 0.74653 0.0
H1688 H 0.32985 0.19543 0.53362 0.0
H1689 H 0.31062 0.19287 0.53785 0.0
H1690 H 0.34821 0.20083 0.62097 0.0
H1691 H 0.3645 0.21765 0.66638 0.0
C1692 C 0.75691 0.09969 0.65125 0.0
C1693 C 0.76575 0.11521 0.68979 0.0
C1694 C 0.79103 0.11498 0.66896 0.0
C1695 C 0.7823 0.09975 0.62676 0.0
N1696 N 0.75741 0.07827 0.56836 0.0
N1697 N 0.79124 0.1389 0.72281 0.0
C1698 C 0.76536 0.09232 0.61476 0.0
C1699 C 0.78282 0.12318 0.69555 0.0
N1700 N 0.74041 0.09182 0.65235 0.0
N1701 N 0.80721 0.12157 0.68432 0.0
H1702 H 0.78571 0.14527 0.74475 0.0
H1703 H 0.80372 0.1461 0.71788 0.0
H1704 H 0.81403 0.11669 0.66026 0.0
H1705 H 0.8138 0.13145 0.72496 0.0
H1706 H 0.7331 0.07987 0.63335 0.0
H1707 H 0.73392 0.09693 0.67843 0.0
H1708 H 0.7454 0.07304 0.5493 0.0
H1709 H 0.76314 0.07226 0.54381 0.0
C1710 C 0.67867 0.91116 0.31941 0.0
C1711 C 0.68495 0.90245 0.36355 0.0
C1712 C 0.65898 0.87739 0.34848 0.0
C1713 C 0.65286 0.88597 0.30116 0.0
N1714 N 0.65701 0.91045 0.23307 0.0
N1715 N 0.68215 0.8771 0.41026 0.0
C1716 C 0.66279 0.9027 0.28371 0.0
C1717 C 0.67536 0.88553 0.37596 0.0
N1718 N 0.68774 0.92762 0.31478 0.0
N1719 N 0.64908 0.86139 0.36741 0.0
H1720 H 0.69391 0.88259 0.43415 0.0
H1721 H 0.67658 0.86458 0.41019 0.0
H1722 H 0.63754 0.85447 0.34143 0.0
H1723 H 0.65197 0.85504 0.41206 0.0
H1724 H 0.68346 0.93497 0.29125 0.0
H1725 H 0.69935 0.93414 0.34071 0.0
H1726 H 0.66408 0.92215 0.20979 0.0
H1727 H 0.6452 0.90483 0.20958 0.0
C1728 C 0.1249 0.78164 0.33929 0.0
C1729 C 0.11624 0.76676 0.29379 0.0
C1730 C 0.09128 0.76796 0.30738 0.0
C1731 C 0.09978 0.78236 0.35713 0.0
N1732 N 0.12428 0.8023 0.42785 0.0
N1733 N 0.09103 0.74455 0.24386 0.0
C1734 C 0.11645 0.78896 0.37569 0.0
C1735 C 0.09938 0.75962 0.27987 0.0
N1736 N 0.14137 0.7892 0.34408 0.0
N1737 N 0.07547 0.76229 0.28621 0.0
H1738 H 0.0966 0.73818 0.22248 0.0
H1739 H 0.0785 0.73783 0.24045 0.0
H1740 H 0.06879 0.76733 0.3106 0.0
H1741 H 0.06911 0.75309 0.24133 0.0
H1742 H 0.14864 0.80096 0.36609 0.0
H1743 H 0.14806 0.7842 0.31966 0.0
H1744 H 0.13575 0.8064 0.45349 0.0
H1745 H 0.11903 0.80888 0.4504 0.0
C1746 C 0.22037 0.34062 0.28067 0.0
C1747 C 0.23708 0.35056 0.29789 0.0
C1748 C 0.23722 0.32809 0.37494 0.0
C1749 C 0.22024 0.3188 0.36489 0.0
N1750 N 0.19526 0.31775 0.32836 0.0
N1751 N 0.26132 0.35455 0.36858 0.0
C1752 C 0.21171 0.32548 0.32303 0.0
C1753 C 0.24549 0.34453 0.34741 0.0
N1754 N 0.21271 0.34562 0.22417 0.0
N1755 N 0.24549 0.32105 0.40792 0.0
H1756 H 0.26801 0.36632 0.34489 0.0
H1757 H 0.26759 0.35151 0.41304 0.0
H1758 H 0.23978 0.30912 0.42954 0.0
H1759 H 0.25802 0.32664 0.40829 0.0
H1760 H 0.20092 0.33815 0.20275 0.0
H1761 H 0.21853 0.35668 0.19205 0.0
H1762 H 0.1884 0.32272 0.30634 0.0
H1763 H 0.18863 0.30721 0.36444 0.0
C1764 C 0.99881 0.43774 0.90532 0.0
C1765 C 0.9854 0.43001 0.96317 0.0
C1766 C 0.00433 0.44064 0.08583 0.0
C1767 C 0.01775 0.44635 0.028 0.0
N1768 N 0.02576 0.44262 0.88313 0.0
N1769 N 0.97742 0.41848 0.10843 0.0
C1770 C 0.01442 0.44246 0.93779 0.0
C1771 C 0.98874 0.42961 0.05349 0.0
N1772 N 0.99722 0.44154 0.82145 0.0
N1773 N 0.00586 0.44611 0.1695 0.0
H1774 H 0.96659 0.40882 0.08619 0.0
H1775 H 0.97994 0.41753 0.17369 0.0
H1776 H 0.01636 0.45569 0.19475 0.0
H1777 H 0.99586 0.44256 0.2099 0.0
H1778 H 0.0072 0.448 0.78095 0.0
H1779 H 0.98667 0.44048 0.7961 0.0
H1780 H 0.02324 0.43906 0.81799 0.0
H1781 H 0.03659 0.44383 0.90557 0.0
C1782 C 0.55252 0.54396 0.9911 0.0
C1783 C 0.56844 0.55298 0.95785 0.0
C1784 C 0.5686 0.57821 0.98898 0.0
C1785 C 0.55328 0.56918 0.02972 0.0
N1786 N 0.53138 0.54363 0.07956 0.0
N1787 N 0.59245 0.57852 0.93187 0.0
C1788 C 0.54548 0.5521 0.03405 0.0
C1789 C 0.5767 0.57008 0.95822 0.0
N1790 N 0.54388 0.52764 0.97814 0.0
N1791 N 0.57529 0.59451 0.97905 0.0
H1792 H 0.59857 0.57292 0.907 0.0
H1793 H 0.59976 0.59093 0.93946 0.0
H1794 H 0.5701 0.60094 0.00485 0.0
H1795 H 0.58549 0.60155 0.94131 0.0
H1796 H 0.53167 0.52052 0.99287 0.0
H1797 H 0.5485 0.52138 0.9444 0.0
H1798 H 0.52606 0.53137 0.09324 0.0
H1799 H 0.52555 0.54906 0.10987 0.0
C1800 C 0.4501 0.99298 0.01532 0.0
C1801 C 0.43384 0.98564 0.04352 0.0
C1802 C 0.43288 0.00992 0.00229 0.0
C1803 C 0.44862 0.01656 0.96646 0.0
N1804 N 0.47136 0.01355 0.92649 0.0
N1805 N 0.409 0.98608 0.05675 0.0
C1806 C 0.45695 0.00779 0.96902 0.0
C1807 C 0.425 0.99384 0.03535 0.0
N1808 N 0.45918 0.98607 0.0361 0.0
N1809 N 0.42559 0.01906 0.00553 0.0
H1810 H 0.40303 0.97449 0.08344 0.0
H1811 H 0.4014 0.99066 0.04341 0.0
H1812 H 0.4307 0.03056 0.97806 0.0
H1813 H 0.41493 0.01567 0.03942 0.0
H1814 H 0.47154 0.99156 0.02488 0.0
H1815 H 0.45466 0.97554 0.07307 0.0
H1816 H 0.47719 0.00691 0.91844 0.0
H1817 H 0.47687 0.02443 0.8924 0.0
C1818 C 0.56982 0.99201 0.01139 0.0
C1819 C 0.55438 0.9855 0.05086 0.0
C1820 C 0.55315 0.00957 0.00972 0.0
C1821 C 0.56913 0.01669 0.97717 0.0
N1822 N 0.59356 0.01577 0.95508 0.0
N1823 N 0.53234 0.98895 0.10034 0.0
C1824 C 0.57773 0.0082 0.97999 0.0
C1825 C 0.54639 0.9946 0.05435 0.0
N1826 N 0.5768 0.98263 0.00313 0.0
N1827 N 0.54414 0.01676 0.99385 0.0
H1828 H 0.52677 0.97786 0.13242 0.0
H1829 H 0.52691 0.99583 0.11299 0.0
H1830 H 0.54848 0.02731 0.95728 0.0
H1831 H 0.53191 0.01145 0.0084 0.0
H1832 H 0.58714 0.98594 0.96633 0.0
H1833 H 0.57173 0.97106 0.02952 0.0
H1834 H 0.60105 0.01091 0.9643 0.0
H1835 H 0.59956 0.02747 0.93002 0.0
C1836 C 0.9917 0.54415 0.00523 0.0
C1837 C 0.9851 0.55289 0.96447 0.0
C1838 C 0.01072 0.57815 0.98515 0.0
C1839 C 0.01686 0.56952 0.0316 0.0
N1840 N 0.0128 0.54463 0.09461 0.0
N1841 N 0.9873 0.57822 0.92408 0.0
C1842 C 0.00718 0.55262 0.04465 0.0
C1843 C 0.99436 0.56991 0.95625 0.0
N1844 N 0.9834 0.52764 0.00268 0.0
N1845 N 0.02058 0.59421 0.96824 0.0
H1846 H 0.97545 0.57253 0.90122 0.0
H1847 H 0.99275 0.59074 0.92516 0.0
H1848 H 0.03226 0.60086 0.99325 0.0
H1849 H 0.01756 0.6008 0.92602 0.0
H1850 H 0.98827 0.52052 0.02162 0.0
H1851 H 0.97203 0.52093 0.97433 0.0
H1852 H 0.00561 0.53277 0.11563 0.0
H1853 H 0.0244 0.55008 0.12062 0.0
C1854 C 0.45736 0.44972 0.9673 0.0
C1855 C 0.44911 0.43259 0.96801 0.0
C1856 C 0.42615 0.43178 0.04474 0.0
C1857 C 0.43415 0.44888 0.04124 0.0
N1858 N 0.45715 0.47439 0.00149 0.0
N1859 N 0.42544 0.40707 0.99867 0.0
C1860 C 0.4497 0.45791 0.00297 0.0
C1861 C 0.43345 0.42354 0.00473 0.0
N1862 N 0.47277 0.45811 0.93541 0.0
N1863 N 0.41166 0.42351 0.08701 0.0
H1864 H 0.43049 0.40078 0.96935 0.0
H1865 H 0.41351 0.3996 0.01724 0.0
H1866 H 0.40583 0.42918 0.11455 0.0
H1867 H 0.40574 0.41118 0.09936 0.0
H1868 H 0.48031 0.4705 0.94154 0.0
H1869 H 0.47845 0.45259 0.90461 0.0
H1870 H 0.46743 0.48182 0.96533 0.0
H1871 H 0.45282 0.48079 0.03621 0.0
C1872 C 0.18859 0.38979 0.22232 0.0
C1873 C 0.18846 0.40454 0.21809 0.0
C1874 C 0.21811 0.41962 0.21325 0.0
C1875 C 0.21815 0.40495 0.22536 0.0
N1876 N 0.2037 0.37647 0.25775 0.0
N1877 N 0.20276 0.43359 0.21659 0.0
C1878 C 0.20346 0.39013 0.2341 0.0
C1879 C 0.20315 0.41952 0.21565 0.0
N1880 N 0.17452 0.37538 0.21468 0.0
N1881 N 0.23234 0.43352 0.19784 0.0
H1882 H 0.19201 0.43388 0.21435 0.0
H1883 H 0.21295 0.44492 0.22423 0.0
H1884 H 0.24344 0.43393 0.19737 0.0
H1885 H 0.2331 0.44436 0.17996 0.0
H1886 H 0.1741 0.36437 0.20674 0.0
H1887 H 0.16322 0.3744 0.20913 0.0
H1888 H 0.19343 0.36571 0.2751 0.0
H1889 H 0.21434 0.37623 0.26814 0.0
C1890 C 0.58333 0.78437 0.24039 0.0
C1891 C 0.59808 0.78436 0.23159 0.0
C1892 C 0.61289 0.81385 0.21725 0.0
C1893 C 0.59828 0.81399 0.23146 0.0
N1894 N 0.56988 0.79989 0.26488 0.0
N1895 N 0.62722 0.79906 0.22685 0.0
C1896 C 0.58357 0.79938 0.24573 0.0
C1897 C 0.61293 0.79908 0.22346 0.0
N1898 N 0.5691 0.77003 0.24066 0.0
N1899 N 0.62683 0.82787 0.19819 0.0
H1900 H 0.62797 0.78859 0.23047 0.0
H1901 H 0.63844 0.80945 0.23343 0.0
H1902 H 0.62793 0.83925 0.20086 0.0
H1903 H 0.6372 0.82821 0.17466 0.0
H1904 H 0.5578 0.76908 0.23826 0.0
H1905 H 0.56859 0.7589 0.23695 0.0
H1906 H 0.55916 0.78993 0.2854 0.0
H1907 H 0.56948 0.81058 0.26489 0.0
C1908 C 0.20359 0.81364 0.22877 0.0
C1909 C 0.21824 0.81337 0.22519 0.0
C1910 C 0.20306 0.78375 0.22139 0.0
C1911 C 0.18846 0.7842 0.21685 0.0
N1912 N 0.17496 0.79971 0.19997 0.0
N1913 N 0.23236 0.79862 0.20947 0.0
C1914 C 0.18878 0.79919 0.2151 0.0
C1915 C 0.21812 0.79853 0.21914 0.0
N1916 N 0.20375 0.82761 0.24991 0.0
N1917 N 0.20248 0.76924 0.2285 0.0
H1918 H 0.24352 0.80926 0.20924 0.0
H1919 H 0.2331 0.78836 0.19607 0.0
H1920 H 0.19169 0.75824 0.22634 0.0
H1921 H 0.21253 0.76809 0.24125 0.0
H1922 H 0.19337 0.82818 0.26294 0.0
H1923 H 0.21434 0.83834 0.26373 0.0
H1924 H 0.17488 0.81038 0.18793 0.0
H1925 H 0.16367 0.78947 0.19189 0.0
C1926 C 0.39087 0.1886 0.80717 0.0
C1927 C 0.40438 0.18768 0.77555 0.0
C1928 C 0.41862 0.2169 0.74622 0.0
C1929 C 0.40449 0.21734 0.76932 0.0
N1930 N 0.376 0.20282 0.80361 0.0
N1931 N 0.43087 0.2007 0.7103 0.0
C1932 C 0.39035 0.20301 0.79545 0.0
C1933 C 0.41817 0.20177 0.7433 0.0
N1934 N 0.37836 0.17574 0.84831 0.0
N1935 N 0.43262 0.23103 0.73051 0.0
H1936 H 0.4316 0.1902 0.71381 0.0
H1937 H 0.44036 0.20997 0.67591 0.0
H1938 H 0.43336 0.24227 0.73299 0.0
H1939 H 0.44377 0.2318 0.72193 0.0
H1940 H 0.36952 0.17665 0.88333 0.0
H1941 H 0.37722 0.16441 0.85402 0.0
H1942 H 0.36492 0.19225 0.81042 0.0
H1943 H 0.37475 0.21292 0.79486 0.0
C1944 C 0.79649 0.18978 0.70365 0.0
C1945 C 0.78362 0.18762 0.75891 0.0
C1946 C 0.80006 0.21542 0.81306 0.0
C1947 C 0.81315 0.21719 0.76148 0.0
N1948 N 0.82494 0.20539 0.66889 0.0
N1949 N 0.7732 0.19761 0.87091 0.0
C1950 C 0.81162 0.20425 0.70915 0.0
C1951 C 0.78545 0.20022 0.81528 0.0
N1952 N 0.79438 0.17791 0.64624 0.0
N1953 N 0.80145 0.22847 0.85732 0.0
H1954 H 0.76196 0.1871 0.86968 0.0
H1955 H 0.77433 0.20545 0.9209 0.0
H1956 H 0.81199 0.2397 0.85694 0.0
H1957 H 0.79195 0.22859 0.8896 0.0
H1958 H 0.80229 0.17972 0.59523 0.0
H1959 H 0.78431 0.16637 0.64596 0.0
H1960 H 0.82517 0.1957 0.63963 0.0
H1961 H 0.8363 0.21571 0.6705 0.0
C1962 C 0.80081 0.5852 0.81654 0.0
C1963 C 0.81434 0.59742 0.77124 0.0
C1964 C 0.79829 0.60936 0.72063 0.0
C1965 C 0.78481 0.5974 0.76791 0.0
N1966 N 0.77337 0.57507 0.86855 0.0
N1967 N 0.82704 0.62261 0.69225 0.0
C1968 C 0.78613 0.58567 0.81846 0.0
C1969 C 0.81334 0.60985 0.72611 0.0
N1970 N 0.80191 0.57292 0.85525 0.0
N1971 N 0.79673 0.62038 0.67078 0.0
H1972 H 0.83831 0.62342 0.69381 0.0
H1973 H 0.82765 0.63307 0.66829 0.0
H1974 H 0.78658 0.62172 0.67182 0.0
H1975 H 0.80523 0.62783 0.62497 0.0
H1976 H 0.79217 0.56274 0.88223 0.0
H1977 H 0.81256 0.57243 0.85586 0.0
H1978 H 0.77399 0.56736 0.91426 0.0
H1979 H 0.76222 0.57453 0.86776 0.0
C1980 C 0.87 0.72253 0.52637 0.0
C1981 C 0.88474 0.73684 0.54617 0.0
C1982 C 0.87011 0.75172 0.56395 0.0
C1983 C 0.85534 0.73714 0.55088 0.0
N1984 N 0.84084 0.70819 0.53214 0.0
N1985 N 0.89903 0.76482 0.5891 0.0
C1986 C 0.85519 0.72246 0.53445 0.0
C1987 C 0.88484 0.75138 0.56669 0.0
N1988 N 0.87003 0.70886 0.50065 0.0
N1989 N 0.87005 0.76593 0.57057 0.0
H1990 H 0.91017 0.76533 0.58589 0.0
H1991 H 0.89977 0.77523 0.61477 0.0
H1992 H 0.85947 0.76653 0.56841 0.0
H1993 H 0.88043 0.77723 0.57161 0.0
H1994 H 0.86012 0.69899 0.47233 0.0
H1995 H 0.88015 0.70748 0.50273 0.0
H1996 H 0.83995 0.6969 0.53333 0.0
H1997 H 0.82961 0.70739 0.53609 0.0
C1998 C 0.27713 0.14634 0.59419 0.0
C1999 C 0.26343 0.14684 0.56284 0.0
C2000 C 0.24955 0.11768 0.53437 0.0
C2001 C 0.26366 0.11748 0.56052 0.0
N2002 N 0.29201 0.13205 0.59632 0.0
N2003 N 0.23742 0.13381 0.49304 0.0
C2004 C 0.27777 0.13194 0.58518 0.0
C2005 C 0.24985 0.13273 0.52983 0.0
N2006 N 0.28949 0.15961 0.63354 0.0
N2007 N 0.23587 0.10348 0.51529 0.0
H2008 H 0.23716 0.14457 0.49099 0.0
H2009 H 0.22789 0.12437 0.45983 0.0
H2010 H 0.23549 0.0924 0.51583 0.0
H2011 H 0.2247 0.10252 0.50405 0.0
H2012 H 0.29883 0.15937 0.66702 0.0
H2013 H 0.28984 0.17065 0.63892 0.0
H2014 H 0.30307 0.14253 0.6053 0.0
H2015 H 0.29308 0.12183 0.58791 0.0
C2016 C 0.8693 0.1474 0.54494 0.0
C2017 C 0.88404 0.14743 0.55652 0.0
C2018 C 0.86912 0.11798 0.57532 0.0
C2019 C 0.85451 0.11788 0.5575 0.0
N2020 N 0.84058 0.13224 0.51823 0.0
N2021 N 0.8985 0.13305 0.57396 0.0
C2022 C 0.85459 0.13251 0.53974 0.0
C2023 C 0.8841 0.13279 0.5698 0.0
N2024 N 0.86925 0.16169 0.54388 0.0
N2025 N 0.86865 0.10392 0.59776 0.0
H2026 H 0.9096 0.14371 0.57043 0.0
H2027 H 0.89955 0.12275 0.57488 0.0
H2028 H 0.85803 0.09277 0.59756 0.0
H2029 H 0.87856 0.10335 0.62098 0.0
H2030 H 0.85882 0.1625 0.54791 0.0
H2031 H 0.87969 0.17296 0.54616 0.0
H2032 H 0.84023 0.14207 0.49172 0.0
H2033 H 0.82919 0.12198 0.52221 0.0
C2034 C 0.08249 0.54921 0.14854 0.0
C2035 C 0.07068 0.55055 0.0991 0.0
C2036 C 0.05938 0.52268 0.04781 0.0
C2037 C 0.0707 0.52104 0.10045 0.0
N2038 N 0.09197 0.53182 0.20744 0.0
N2039 N 0.04599 0.53786 0.01552 0.0
C2040 C 0.08192 0.53404 0.15313 0.0
C2041 C 0.05866 0.53712 0.05205 0.0
N2042 N 0.09456 0.56261 0.18839 0.0
N2043 N 0.04924 0.5104 0.99357 0.0
H2044 H 0.04485 0.54813 0.01732 0.0
H2045 H 0.03581 0.5279 0.98986 0.0
H2046 H 0.04817 0.49901 0.99375 0.0
H2047 H 0.04246 0.51172 0.94457 0.0
H2048 H 0.10447 0.56298 0.21861 0.0
H2049 H 0.09525 0.57383 0.18625 0.0
H2050 H 0.09919 0.5401 0.25468 0.0
H2051 H 0.09248 0.5212 0.20844 0.0
C2052 C 0.45377 0.5337 0.16934 0.0
C2053 C 0.45152 0.52153 0.10843 0.0
C2054 C 0.47929 0.53842 0.05614 0.0
C2055 C 0.48115 0.55104 0.11215 0.0
N2056 N 0.46997 0.56171 0.21535 0.0
N2057 N 0.46137 0.5134 0.98358 0.0
C2058 C 0.46835 0.54895 0.16734 0.0
C2059 C 0.46399 0.52428 0.04835 0.0
N2060 N 0.44194 0.53069 0.22873 0.0
N2061 N 0.49243 0.53948 0.01428 0.0
H2062 H 0.45093 0.50224 0.9777 0.0
H2063 H 0.46919 0.51593 0.93111 0.0
H2064 H 0.50401 0.54946 0.01884 0.0
H2065 H 0.49227 0.52985 0.98181 0.0
H2066 H 0.44349 0.53815 0.2816 0.0
H2067 H 0.43063 0.52026 0.22728 0.0
H2068 H 0.46062 0.56159 0.25059 0.0
H2069 H 0.48049 0.57295 0.21514 0.0
C2070 C 0.48058 0.94306 0.07376 0.0
C2071 C 0.48208 0.93166 0.12616 0.0
C2072 C 0.45437 0.921 0.17976 0.0
C2073 C 0.4525 0.93158 0.12207 0.0
N2074 N 0.46319 0.95145 0.00619 0.0
N2075 N 0.47039 0.90885 0.22322 0.0
C2076 C 0.46539 0.94217 0.06642 0.0
C2077 C 0.46899 0.92042 0.17813 0.0
N2078 N 0.49395 0.9554 0.03481 0.0
N2079 N 0.44213 0.91148 0.23564 0.0
H2080 H 0.48094 0.90819 0.22335 0.0
H2081 H 0.46089 0.89929 0.25583 0.0
H2082 H 0.43087 0.91071 0.23376 0.0
H2083 H 0.44328 0.9049 0.28635 0.0
H2084 H 0.4941 0.96529 0.00547 0.0
H2085 H 0.50541 0.95668 0.03841 0.0
H2086 H 0.47129 0.95753 0.9558 0.0
H2087 H 0.45285 0.95241 0.00226 0.0
C2088 C 0.54849 0.08089 0.83437 0.0
C2089 C 0.55051 0.07069 0.8942 0.0
C2090 C 0.52254 0.05951 0.94397 0.0
C2091 C 0.52086 0.07049 0.88876 0.0
N2092 N 0.53231 0.09267 0.78757 0.0
N2093 N 0.54012 0.0516 0.01382 0.0
C2094 C 0.53384 0.08142 0.83513 0.0
C2095 C 0.53777 0.06048 0.95165 0.0
N2096 N 0.56062 0.09011 0.77723 0.0
N2097 N 0.5093 0.04745 0.98533 0.0
H2098 H 0.55043 0.05061 0.01793 0.0
H2099 H 0.53219 0.04592 0.06544 0.0
H2100 H 0.49783 0.04613 0.98186 0.0
H2101 H 0.50924 0.03779 0.0169 0.0
H2102 H 0.55936 0.09636 0.72516 0.0
H2103 H 0.57191 0.09096 0.77961 0.0
H2104 H 0.54172 0.10203 0.75339 0.0
H2105 H 0.52174 0.0933 0.78686 0.0
C2106 C 0.9172 0.45086 0.88399 0.0
C2107 C 0.93209 0.45102 0.87948 0.0
C2108 C 0.94664 0.48045 0.86316 0.0
C2109 C 0.93194 0.48048 0.87604 0.0
N2110 N 0.90336 0.46608 0.90496 0.0
N2111 N 0.96122 0.46604 0.88133 0.0
C2112 C 0.91724 0.46577 0.88842 0.0
C2113 C 0.94687 0.46582 0.87276 0.0
N2114 N 0.90305 0.43646 0.88125 0.0
N2115 N 0.9605 0.49441 0.84242 0.0
H2116 H 0.96206 0.45568 0.89018 0.0
H2117 H 0.9723 0.47658 0.88806 0.0
H2118 H 0.96138 0.50569 0.84033 0.0
H2119 H 0.97096 0.49469 0.82098 0.0
H2120 H 0.89175 0.43545 0.8756 0.0
H2121 H 0.90266 0.42538 0.87781 0.0
H2122 H 0.89263 0.45602 0.92456 0.0
H2123 H 0.90278 0.47667 0.90346 0.0
C2124 C 0.53428 0.45277 0.83968 0.0
C2125 C 0.52149 0.45073 0.8949 0.0
C2126 C 0.53859 0.47777 0.9564 0.0
C2127 C 0.55104 0.48035 0.89662 0.0
N2128 N 0.56076 0.47087 0.77851 0.0
N2129 N 0.51035 0.46212 0.99496 0.0
C2130 C 0.54885 0.46801 0.83712 0.0
C2131 C 0.5234 0.46338 0.95095 0.0
N2132 N 0.53266 0.43994 0.79233 0.0
N2133 N 0.54113 0.4891 0.01838 0.0
H2134 H 0.49893 0.45189 0.99361 0.0
H2135 H 0.51038 0.47172 0.02704 0.0
H2136 H 0.55122 0.50059 0.02034 0.0
H2137 H 0.53355 0.48679 0.0718 0.0
H2138 H 0.54196 0.44001 0.75691 0.0
H2139 H 0.52218 0.42866 0.79331 0.0
H2140 H 0.5593 0.4633 0.72636 0.0
H2141 H 0.57208 0.48128 0.77993 0.0
C2142 C 0.75059 0.88259 0.48719 0.0
C2143 C 0.73912 0.8841 0.4355 0.0
C2144 C 0.72774 0.85618 0.38454 0.0
C2145 C 0.73869 0.85435 0.43966 0.0
N2146 N 0.75972 0.86507 0.54816 0.0
N2147 N 0.71526 0.87191 0.34502 0.0
C2148 C 0.74986 0.86735 0.49264 0.0
C2149 C 0.7274 0.87084 0.38613 0.0
N2150 N 0.7625 0.89591 0.52847 0.0
N2151 N 0.71747 0.8438 0.33113 0.0
H2152 H 0.71452 0.8824 0.34313 0.0
H2153 H 0.70512 0.8621 0.31808 0.0
H2154 H 0.71566 0.83215 0.33486 0.0
H2155 H 0.71115 0.8452 0.27979 0.0
H2156 H 0.77219 0.89619 0.56074 0.0
H2157 H 0.76331 0.90719 0.52555 0.0
H2158 H 0.76682 0.87329 0.5959 0.0
H2159 H 0.7603 0.85448 0.54926 0.0
C2160 C 0.11854 0.86923 0.4544 0.0
C2161 C 0.118 0.85517 0.42048 0.0
C2162 C 0.14727 0.87004 0.39904 0.0
C2163 C 0.14766 0.88445 0.42513 0.0
N2164 N 0.1339 0.89843 0.47123 0.0
N2165 N 0.13128 0.84243 0.34952 0.0
C2166 C 0.13334 0.88425 0.45116 0.0
C2167 C 0.13219 0.85568 0.38918 0.0
N2168 N 0.105 0.86813 0.49088 0.0
N2169 N 0.16138 0.86989 0.38789 0.0
H2170 H 0.12061 0.83139 0.34414 0.0
H2171 H 0.14087 0.84269 0.31601 0.0
H2172 H 0.1727 0.88007 0.39706 0.0
H2173 H 0.16194 0.85942 0.37807 0.0
H2174 H 0.1049 0.87749 0.52483 0.0
H2175 H 0.09392 0.8574 0.49179 0.0
H2176 H 0.12371 0.89942 0.48252 0.0
H2177 H 0.14464 0.9095 0.4713 0.0
C2178 C 0.1449 0.27494 0.38358 0.0
C2179 C 0.14719 0.26412 0.43728 0.0
C2180 C 0.11965 0.25312 0.49515 0.0
C2181 C 0.118 0.26479 0.44622 0.0
N2182 N 0.13053 0.28946 0.36248 0.0
N2183 N 0.13744 0.24378 0.54967 0.0
C2184 C 0.13102 0.2764 0.39543 0.0
C2185 C 0.13478 0.25351 0.49518 0.0
N2186 N 0.15593 0.28388 0.3207 0.0
N2187 N 0.10662 0.24136 0.5389 0.0
H2188 H 0.14784 0.24287 0.5466 0.0
H2189 H 0.12973 0.23718 0.60047 0.0
H2190 H 0.09548 0.24085 0.54036 0.0
H2191 H 0.10645 0.23152 0.5688 0.0
H2192 H 0.15375 0.2903 0.27288 0.0
H2193 H 0.16673 0.28399 0.31095 0.0
H2194 H 0.14045 0.29931 0.33403 0.0
H2195 H 0.12083 0.29137 0.37175 0.0
C2196 C 0.14366 0.38281 0.72891 0.0
C2197 C 0.14253 0.39436 0.78157 0.0
C2198 C 0.15169 0.41329 0.65839 0.0
C2199 C 0.15096 0.40102 0.6035 0.0
N2200 N 0.14194 0.37266 0.58296 0.0
N2201 N 0.14271 0.4196 0.79274 0.0
C2202 C 0.14581 0.38537 0.6377 0.0
C2203 C 0.14582 0.40937 0.74542 0.0
N2204 N 0.143 0.36951 0.76607 0.0
N2205 N 0.15838 0.42877 0.6283 0.0
H2206 H 0.13824 0.41706 0.85615 0.0
H2207 H 0.14323 0.42989 0.76656 0.0
H2208 H 0.16292 0.4321 0.56518 0.0
H2209 H 0.16073 0.43852 0.66817 0.0
H2210 H 0.14539 0.36157 0.73148 0.0
H2211 H 0.14174 0.36734 0.83309 0.0
H2212 H 0.13664 0.36076 0.60451 0.0
H2213 H 0.14217 0.37364 0.51522 0.0
C2214 C 0.5882 0.73647 0.66881 0.0
C2215 C 0.59904 0.74963 0.616 0.0
C2216 C 0.61643 0.76239 0.74281 0.0
C2217 C 0.60665 0.74841 0.79291 0.0
N2218 N 0.58454 0.72102 0.80062 0.0
N2219 N 0.62555 0.77318 0.59852 0.0
C2220 C 0.59284 0.73513 0.75525 0.0
C2221 C 0.6137 0.76214 0.65181 0.0
N2222 N 0.57335 0.72547 0.63713 0.0
N2223 N 0.62819 0.77603 0.78229 0.0
H2224 H 0.62461 0.77294 0.53077 0.0
H2225 H 0.63706 0.78149 0.62074 0.0
H2226 H 0.63049 0.77674 0.84915 0.0
H2227 H 0.63455 0.78708 0.75022 0.0
H2228 H 0.56431 0.71654 0.67548 0.0
H2229 H 0.56954 0.72614 0.57429 0.0
H2230 H 0.57544 0.71038 0.77327 0.0
H2231 H 0.58768 0.71958 0.86366 0.0
C2232 C 0.26676 0.84933 0.76944 0.0
C2233 C 0.26222 0.861 0.79008 0.0
C2234 C 0.26482 0.86851 0.63702 0.0
C2235 C 0.26638 0.85493 0.61429 0.0
N2236 N 0.26472 0.82999 0.66198 0.0
N2237 N 0.25253 0.87845 0.73772 0.0
C2238 C 0.26617 0.84459 0.68124 0.0
C2239 C 0.25983 0.86955 0.72204 0.0
N2240 N 0.27241 0.84333 0.83229 0.0
N2241 N 0.2689 0.8809 0.57965 0.0
H2242 H 0.2478 0.87878 0.7985 0.0
H2243 H 0.24949 0.88386 0.68782 0.0
H2244 H 0.2743 0.88166 0.51951 0.0
H2245 H 0.26894 0.89146 0.59697 0.0
H2246 H 0.27715 0.83588 0.81791 0.0
H2247 H 0.27404 0.84718 0.8968 0.0
H2248 H 0.26317 0.82162 0.71004 0.0
H2249 H 0.26315 0.82545 0.59881 0.0
C2250 C 0.40051 0.16015 0.34781 0.0
C2251 C 0.41082 0.15557 0.39041 0.0
C2252 C 0.41343 0.14342 0.25473 0.0
C2253 C 0.40176 0.1464 0.21536 0.0
N2254 N 0.38393 0.15731 0.22148 0.0
N2255 N 0.42756 0.14343 0.38643 0.0
C2256 C 0.3954 0.15491 0.2607 0.0
C2257 C 0.41751 0.14748 0.34405 0.0
N2258 N 0.39547 0.16935 0.39101 0.0
N2259 N 0.42069 0.13686 0.20607 0.0
H2260 H 0.43186 0.14748 0.4492 0.0
H2261 H 0.43134 0.13579 0.36109 0.0
H2262 H 0.41764 0.13337 0.14129 0.0
H2263 H 0.43039 0.13573 0.22736 0.0
H2264 H 0.38951 0.17466 0.36127 0.0
H2265 H 0.39804 0.17261 0.45634 0.0
H2266 H 0.37727 0.16163 0.2535 0.0
H2267 H 0.38038 0.15421 0.15673 0.0
C2268 C 0.85189 0.2662 0.33572 0.0
C2269 C 0.84849 0.25266 0.38817 0.0
C2270 C 0.85151 0.2389 0.26093 0.0
C2271 C 0.85678 0.25312 0.21118 0.0
N2272 N 0.86427 0.28119 0.20346 0.0
N2273 N 0.8487 0.22761 0.40495 0.0
C2274 C 0.85755 0.26703 0.249 0.0
C2275 C 0.84917 0.23934 0.35196 0.0
N2276 N 0.8494 0.27808 0.36816 0.0
N2277 N 0.84856 0.22491 0.22107 0.0
H2278 H 0.84791 0.22779 0.47271 0.0
H2279 H 0.85087 0.21859 0.38258 0.0
H2280 H 0.85015 0.22413 0.15427 0.0
H2281 H 0.84307 0.21378 0.25268 0.0
H2282 H 0.8501 0.28743 0.33024 0.0
H2283 H 0.84524 0.27781 0.4314 0.0
H2284 H 0.86675 0.29215 0.23079 0.0
H2285 H 0.86864 0.28225 0.14015 0.0
C2286 C 0.72691 0.59607 0.35893 0.0
C2287 C 0.73462 0.58715 0.3836 0.0
C2288 C 0.73604 0.58156 0.22903 0.0
C2289 C 0.73317 0.59415 0.20593 0.0
N2290 N 0.71422 0.6028 0.24266 0.0
N2291 N 0.74741 0.57193 0.33672 0.0
C2292 C 0.72527 0.59859 0.269 0.0
C2293 C 0.73922 0.57981 0.31733 0.0
N2294 N 0.72097 0.60203 0.42053 0.0
N2295 N 0.73308 0.56975 0.17024 0.0
H2296 H 0.75117 0.5712 0.39943 0.0
H2297 H 0.75189 0.56759 0.28819 0.0
H2298 H 0.72776 0.56931 0.11012 0.0
H2299 H 0.73369 0.55947 0.18629 0.0
H2300 H 0.71798 0.61089 0.40717 0.0
H2301 H 0.71926 0.59845 0.48543 0.0
H2302 H 0.7071 0.60504 0.28522 0.0
H2303 H 0.71012 0.60127 0.17846 0.0
C2304 C 0.84949 0.61035 0.35729 0.0
C2305 C 0.8492 0.59656 0.39404 0.0
C2306 C 0.85888 0.59169 0.25565 0.0
C2307 C 0.85775 0.60458 0.21727 0.0
N2308 N 0.84863 0.62389 0.2258 0.0
N2309 N 0.851 0.57252 0.37488 0.0
C2310 C 0.85195 0.61316 0.2663 0.0
C2311 C 0.85312 0.58673 0.34215 0.0
N2312 N 0.84855 0.62141 0.40978 0.0
N2313 N 0.86605 0.58461 0.21085 0.0
H2314 H 0.84675 0.56853 0.43788 0.0
H2315 H 0.8521 0.56405 0.33735 0.0
H2316 H 0.87048 0.588 0.14768 0.0
H2317 H 0.8688 0.57635 0.23865 0.0
H2318 H 0.85042 0.63247 0.38706 0.0
H2319 H 0.84768 0.62045 0.47752 0.0
H2320 H 0.84277 0.62921 0.25678 0.0
H2321 H 0.85029 0.62628 0.15904 0.0
C2322 C 0.41664 0.27156 0.33804 0.0
C2323 C 0.41146 0.25691 0.38409 0.0
C2324 C 0.39667 0.24134 0.25458 0.0
C2325 C 0.40152 0.25601 0.20956 0.0
N2326 N 0.4179 0.28492 0.20095 0.0
N2327 N 0.39843 0.22779 0.38448 0.0
C2328 C 0.41209 0.27109 0.24912 0.0
C2329 C 0.40218 0.24177 0.34146 0.0
N2330 N 0.4257 0.28593 0.38031 0.0
N2331 N 0.38613 0.22701 0.2154 0.0
H2332 H 0.40105 0.22736 0.44999 0.0
H2333 H 0.39344 0.21656 0.35459 0.0
H2334 H 0.38231 0.22621 0.15096 0.0
H2335 H 0.38047 0.21593 0.24715 0.0
H2336 H 0.42828 0.29707 0.35547 0.0
H2337 H 0.43041 0.28667 0.44254 0.0
H2338 H 0.42685 0.29622 0.22205 0.0
H2339 H 0.4144 0.28501 0.13672 0.0
C2340 C 0.76148 0.15524 0.2558 0.0
C2341 C 0.74693 0.14557 0.20993 0.0
C2342 C 0.73138 0.14575 0.33687 0.0
C2343 C 0.74584 0.15356 0.38627 0.0
N2344 N 0.77447 0.16304 0.39662 0.0
N2345 N 0.71786 0.13027 0.20743 0.0
C2346 C 0.76089 0.15777 0.34668 0.0
C2347 C 0.7318 0.1405 0.25047 0.0
N2348 N 0.77589 0.16202 0.21251 0.0
N2349 N 0.71734 0.14367 0.37197 0.0
H2350 H 0.71772 0.12647 0.14356 0.0
H2351 H 0.70654 0.12468 0.2368 0.0
H2352 H 0.71669 0.14752 0.43473 0.0
H2353 H 0.7067 0.13947 0.33658 0.0
H2354 H 0.78675 0.17061 0.24048 0.0
H2355 H 0.7768 0.16019 0.14614 0.0
H2356 H 0.78531 0.16456 0.37241 0.0
H2357 H 0.77461 0.16436 0.46412 0.0
C2358 C 0.6064 0.84604 0.74169 0.0
C2359 C 0.60122 0.85553 0.78734 0.0
C2360 C 0.58599 0.85583 0.65915 0.0
C2361 C 0.59151 0.8467 0.61251 0.0
N2362 N 0.60505 0.83112 0.61085 0.0
N2363 N 0.58433 0.86748 0.79696 0.0
C2364 C 0.601 0.84106 0.6546 0.0
C2365 C 0.59043 0.85979 0.74824 0.0
N2366 N 0.6171 0.84246 0.78059 0.0
N2367 N 0.57673 0.86093 0.61726 0.0
H2368 H 0.58776 0.871 0.86136 0.0
H2369 H 0.57524 0.86963 0.77611 0.0
H2370 H 0.57213 0.85703 0.55479 0.0
H2371 H 0.57388 0.86927 0.64267 0.0
H2372 H 0.62298 0.83729 0.74849 0.0
H2373 H 0.62083 0.84537 0.84525 0.0
H2374 H 0.61029 0.82506 0.64014 0.0
H2375 H 0.60242 0.82811 0.5453 0.0
C2376 C 0.16139 0.7598 0.6421 0.0
C2377 C 0.15529 0.7446 0.59975 0.0
C2378 C 0.14149 0.73064 0.73474 0.0
C2379 C 0.14634 0.74581 0.77416 0.0
N2380 N 0.16047 0.77481 0.7679 0.0
N2381 N 0.13995 0.7156 0.60384 0.0
C2382 C 0.15638 0.7604 0.72894 0.0
C2383 C 0.14554 0.73003 0.64592 0.0
N2384 N 0.17178 0.77369 0.59881 0.0
N2385 N 0.13316 0.71686 0.78296 0.0
H2386 H 0.14385 0.71471 0.54166 0.0
H2387 H 0.1312 0.70454 0.62876 0.0
H2388 H 0.12954 0.71688 0.84701 0.0
H2389 H 0.13054 0.70547 0.76208 0.0
H2390 H 0.17821 0.78493 0.6285 0.0
H2391 H 0.17474 0.77404 0.53322 0.0
H2392 H 0.16609 0.78589 0.73604 0.0
H2393 H 0.1575 0.77573 0.8323 0.0
C2394 C 0.26721 0.41784 0.77282 0.0
C2395 C 0.26256 0.40162 0.79385 0.0
C2396 C 0.26446 0.39633 0.64054 0.0
C2397 C 0.26618 0.41154 0.61772 0.0
N2398 N 0.26512 0.43514 0.66555 0.0
N2399 N 0.25237 0.37432 0.74274 0.0
C2400 C 0.26639 0.42189 0.6847 0.0
C2401 C 0.25977 0.3905 0.72615 0.0
N2402 N 0.27312 0.42956 0.83528 0.0
N2403 N 0.26811 0.38777 0.5827 0.0
H2404 H 0.24791 0.36942 0.80414 0.0
H2405 H 0.24901 0.36575 0.69324 0.0
H2406 H 0.27327 0.39219 0.52186 0.0
H2407 H 0.26807 0.37721 0.60004 0.0
H2408 H 0.27795 0.44176 0.82061 0.0
H2409 H 0.27483 0.42737 0.89974 0.0
H2410 H 0.26387 0.44214 0.7137 0.0
H2411 H 0.26341 0.43806 0.60252 0.0
C2412 C 0.82469 0.7543 0.02057 0.0
C2413 C 0.81471 0.74453 0.95145 0.0
C2414 C 0.79931 0.72289 0.05588 0.0
C2415 C 0.80755 0.73346 0.12589 0.0
N2416 N 0.82502 0.76114 0.17206 0.0
N2417 N 0.78878 0.72147 0.91207 0.0
C2418 C 0.81939 0.74976 0.10779 0.0
C2419 C 0.8009 0.72937 0.97141 0.0
N2420 N 0.83944 0.76746 0.00429 0.0
N2421 N 0.7902 0.70663 0.06904 0.0
H2422 H 0.78837 0.72648 0.85248 0.0
H2423 H 0.77807 0.71094 0.92735 0.0
H2424 H 0.78946 0.70123 0.12927 0.0
H2425 H 0.78501 0.69846 0.01774 0.0
H2426 H 0.84753 0.77401 0.054 0.0
H2427 H 0.84438 0.77069 0.942 0.0
H2428 H 0.83261 0.77339 0.15941 0.0
H2429 H 0.82071 0.75867 0.23572 0.0
C2430 C 0.27716 0.09547 0.98023 0.0
C2431 C 0.26326 0.08205 0.94367 0.0
C2432 C 0.25853 0.0674 0.08176 0.0
C2433 C 0.27152 0.08137 0.12004 0.0
N2434 N 0.29091 0.10979 0.11151 0.0
N2435 N 0.23915 0.05627 0.96339 0.0
C2436 C 0.28009 0.09576 0.07108 0.0
C2437 C 0.25346 0.06829 0.99563 0.0
N2438 N 0.28822 0.10746 0.92766 0.0
N2439 N 0.25145 0.05313 0.12633 0.0
H2440 H 0.23505 0.0566 0.90078 0.0
H2441 H 0.23071 0.0467 0.00107 0.0
H2442 H 0.25491 0.05203 0.18921 0.0
H2443 H 0.24311 0.04215 0.09852 0.0
H2444 H 0.29936 0.11657 0.95011 0.0
H2445 H 0.28718 0.10741 0.86002 0.0
H2446 H 0.29623 0.12098 0.08065 0.0
H2447 H 0.2934 0.11048 0.17814 0.0
C2448 C 0.93846 0.19048 0.98107 0.0
C2449 C 0.92399 0.1806 0.93432 0.0
C2450 C 0.9079 0.17894 0.0633 0.0
C2451 C 0.92238 0.18913 0.10905 0.0
N2452 N 0.95135 0.20282 0.1187 0.0
N2453 N 0.89495 0.16368 0.93231 0.0
C2454 C 0.93765 0.19434 0.07001 0.0
C2455 C 0.90871 0.17416 0.97623 0.0
N2456 N 0.95297 0.1964 0.93939 0.0
N2457 N 0.89338 0.17452 0.10195 0.0
H2458 H 0.89472 0.16089 0.86652 0.0
H2459 H 0.88369 0.157 0.96159 0.0
H2460 H 0.89232 0.17734 0.16644 0.0
H2461 H 0.88234 0.16874 0.0698 0.0
H2462 H 0.96394 0.20524 0.96482 0.0
H2463 H 0.95403 0.19268 0.87705 0.0
H2464 H 0.96283 0.20568 0.0981 0.0
H2465 H 0.95118 0.20632 0.18282 0.0
C2466 C 0.06753 0.4936 0.68075 0.0
C2467 C 0.07744 0.48841 0.72258 0.0
C2468 C 0.07874 0.47539 0.58691 0.0
C2469 C 0.06783 0.47948 0.54751 0.0
N2470 N 0.05152 0.49208 0.55397 0.0
N2471 N 0.09276 0.47472 0.71772 0.0
C2472 C 0.06233 0.48869 0.59327 0.0
C2473 C 0.08321 0.47949 0.67593 0.0
N2474 N 0.06286 0.50298 0.72524 0.0
N2475 N 0.08492 0.46774 0.5385 0.0
H2476 H 0.09733 0.47866 0.7802 0.0
H2477 H 0.09589 0.46659 0.6923 0.0
H2478 H 0.0814 0.46404 0.47443 0.0
H2479 H 0.09409 0.46572 0.55929 0.0
H2480 H 0.05734 0.50881 0.69644 0.0
H2481 H 0.06506 0.50565 0.79139 0.0
H2482 H 0.04546 0.49709 0.58564 0.0
H2483 H 0.04794 0.48921 0.48909 0.0
C2484 C 0.52338 0.57406 0.70043 0.0
C2485 C 0.51852 0.58475 0.73512 0.0
C2486 C 0.52325 0.59805 0.59295 0.0
C2487 C 0.52641 0.58625 0.55662 0.0
N2488 N 0.52579 0.56086 0.57161 0.0
N2489 N 0.51123 0.60519 0.71153 0.0
C2490 C 0.52531 0.57357 0.60911 0.0
C2491 C 0.51769 0.59626 0.68052 0.0
N2492 N 0.52716 0.5651 0.75476 0.0
N2493 N 0.5262 0.6113 0.54526 0.0
H2494 H 0.50698 0.60413 0.77523 0.0
H2495 H 0.50878 0.61257 0.67208 0.0
H2496 H 0.53039 0.61308 0.48129 0.0
H2497 H 0.5258 0.62113 0.5714 0.0
H2498 H 0.5323 0.55839 0.73274 0.0
H2499 H 0.52694 0.56576 0.82258 0.0
H2500 H 0.52341 0.55052 0.60608 0.0
H2501 H 0.52691 0.55991 0.50448 0.0
C2502 C 0.40484 0.91982 0.57985 0.0
C2503 C 0.40968 0.93624 0.5622 0.0
C2504 C 0.40588 0.93987 0.71583 0.0
C2505 C 0.40419 0.92459 0.736 0.0
N2506 N 0.40633 0.90178 0.68428 0.0
N2507 N 0.41912 0.96294 0.62108 0.0
C2508 C 0.40492 0.91502 0.66733 0.0
C2509 C 0.4116 0.94661 0.63261 0.0
N2510 N 0.39926 0.90855 0.51504 0.0
N2511 N 0.40125 0.94764 0.7737 0.0
H2512 H 0.42446 0.96851 0.56218 0.0
H2513 H 0.42173 0.97093 0.67294 0.0
H2514 H 0.39522 0.94239 0.83174 0.0
H2515 H 0.40137 0.95831 0.75813 0.0
H2516 H 0.3944 0.89627 0.52734 0.0
H2517 H 0.39771 0.91115 0.4512 0.0
H2518 H 0.40819 0.89536 0.63504 0.0
H2519 H 0.4076 0.89836 0.74695 0.0
C2520 C 0.5168 0.94441 0.70969 0.0
C2521 C 0.5165 0.93071 0.74768 0.0
C2522 C 0.52602 0.92536 0.6101 0.0
C2523 C 0.52512 0.93831 0.57084 0.0
N2524 N 0.5162 0.95779 0.57692 0.0
N2525 N 0.51809 0.90651 0.73096 0.0
C2526 C 0.51937 0.94705 0.61866 0.0
C2527 C 0.52029 0.92067 0.69687 0.0
N2528 N 0.51578 0.95556 0.76107 0.0
N2529 N 0.5329 0.91795 0.56572 0.0
H2530 H 0.51384 0.90272 0.79418 0.0
H2531 H 0.51911 0.8979 0.69442 0.0
H2532 H 0.53712 0.921 0.50195 0.0
H2533 H 0.53554 0.90965 0.59409 0.0
H2534 H 0.51769 0.96659 0.73757 0.0
H2535 H 0.51473 0.95468 0.82878 0.0
H2536 H 0.51037 0.96324 0.60689 0.0
H2537 H 0.51797 0.96006 0.51009 0.0
C2538 C 0.07909 0.60411 0.58512 0.0
C2539 C 0.06812 0.5891 0.54617 0.0
C2540 C 0.0679 0.57478 0.67955 0.0
C2541 C 0.07765 0.58991 0.72133 0.0
N2542 N 0.09291 0.61891 0.716 0.0
N2543 N 0.05174 0.56018 0.55345 0.0
C2544 C 0.08346 0.60456 0.67433 0.0
C2545 C 0.06263 0.57441 0.5922 0.0
N2546 N 0.08544 0.61788 0.53614 0.0
N2547 N 0.06346 0.56075 0.72386 0.0
H2548 H 0.04809 0.55941 0.48867 0.0
H2549 H 0.04566 0.54917 0.58571 0.0
H2550 H 0.06586 0.56033 0.78973 0.0
H2551 H 0.05805 0.54941 0.69486 0.0
H2552 H 0.09468 0.62906 0.55682 0.0
H2553 H 0.08205 0.61801 0.47172 0.0
H2554 H 0.096 0.63014 0.6902 0.0
H2555 H 0.09742 0.61959 0.77871 0.0
C2556 C 0.42941 0.48958 0.60917 0.0
C2557 C 0.41508 0.47918 0.56324 0.0
C2558 C 0.39896 0.47815 0.69028 0.0
C2559 C 0.41333 0.48675 0.73974 0.0
N2560 N 0.44225 0.49796 0.75001 0.0
N2561 N 0.38614 0.46225 0.56086 0.0
C2562 C 0.4286 0.49192 0.70009 0.0
C2563 C 0.3998 0.47314 0.60386 0.0
N2564 N 0.44383 0.49719 0.56594 0.0
N2565 N 0.38456 0.47508 0.7253 0.0
H2566 H 0.38629 0.45858 0.49702 0.0
H2567 H 0.37484 0.45601 0.59026 0.0
H2568 H 0.38358 0.47873 0.78805 0.0
H2569 H 0.37387 0.47025 0.68984 0.0
H2570 H 0.45442 0.50626 0.59397 0.0
H2571 H 0.44492 0.49552 0.49956 0.0
H2572 H 0.45336 0.50023 0.72577 0.0
H2573 H 0.44227 0.49915 0.81753 0.0
C2574 C 0.25801 0.19348 0.07318 0.0
C2575 C 0.26806 0.18847 0.11429 0.0
C2576 C 0.26994 0.17618 0.97817 0.0
C2577 C 0.2592 0.18043 0.93784 0.0
N2578 N 0.24057 0.19032 0.9507 0.0
N2579 N 0.28059 0.17204 0.11302 0.0
C2580 C 0.25248 0.18824 0.98662 0.0
C2581 C 0.27298 0.17877 0.06907 0.0
N2582 N 0.25418 0.20365 0.11589 0.0
N2583 N 0.27821 0.17078 0.92889 0.0
H2584 H 0.28328 0.17393 0.17942 0.0
H2585 H 0.28289 0.16344 0.08561 0.0
H2586 H 0.277 0.16932 0.86146 0.0
H2587 H 0.2875 0.16925 0.95353 0.0
H2588 H 0.24845 0.20922 0.08617 0.0
H2589 H 0.25769 0.2074 0.17999 0.0
H2590 H 0.23408 0.19452 0.98551 0.0
H2591 H 0.23617 0.18646 0.88779 0.0
C2592 C 0.82798 0.0931 0.97972 0.0
C2593 C 0.82193 0.07792 0.93736 0.0
C2594 C 0.80854 0.0639 0.0729 0.0
C2595 C 0.8132 0.07903 0.1122 0.0
N2596 N 0.82699 0.10803 0.10576 0.0
N2597 N 0.80699 0.04891 0.9418 0.0
C2598 C 0.82304 0.09365 0.06678 0.0
C2599 C 0.81245 0.06332 0.98383 0.0
N2600 N 0.83824 0.10702 0.93627 0.0
N2601 N 0.80051 0.05011 0.12146 0.0
H2602 H 0.81083 0.04809 0.87939 0.0
H2603 H 0.7984 0.0378 0.96704 0.0
H2604 H 0.79703 0.0501 0.18585 0.0
H2605 H 0.79806 0.03878 0.1005 0.0
H2606 H 0.8446 0.11827 0.96587 0.0
H2607 H 0.84122 0.10736 0.87069 0.0
H2608 H 0.83245 0.11909 0.07376 0.0
H2609 H 0.82408 0.10891 0.17032 0.0
C2610 C 0.93713 0.74927 0.97792 0.0
C2611 C 0.92249 0.74181 0.92989 0.0
C2612 C 0.90792 0.72535 0.05746 0.0
C2613 C 0.92262 0.73261 0.10479 0.0
N2614 N 0.95073 0.75273 0.11681 0.0
N2615 N 0.8936 0.724 0.92411 0.0
C2616 C 0.93708 0.745 0.06699 0.0
C2617 C 0.90774 0.73033 0.97006 0.0
N2618 N 0.95111 0.76018 0.93731 0.0
N2619 N 0.89426 0.71323 0.09537 0.0
H2620 H 0.893 0.72618 0.85806 0.0
H2621 H 0.88223 0.71708 0.9516 0.0
H2622 H 0.89378 0.70981 0.16041 0.0
H2623 H 0.88351 0.70599 0.06246 0.0
H2624 H 0.96256 0.76472 0.96404 0.0
H2625 H 0.95134 0.76443 0.87441 0.0
H2626 H 0.9613 0.76295 0.09718 0.0
H2627 H 0.95127 0.7494 0.18081 0.0
C2628 C 0.47596 0.07558 0.40249 0.0
C2629 C 0.4773 0.06278 0.44065 0.0
C2630 C 0.48566 0.05722 0.30038 0.0
C2631 C 0.48575 0.07093 0.26387 0.0
N2632 N 0.48361 0.09477 0.28353 0.0
N2633 N 0.48674 0.04374 0.43162 0.0
C2634 C 0.48168 0.08061 0.31601 0.0
C2635 C 0.48324 0.05437 0.39137 0.0
N2636 N 0.46863 0.08247 0.44749 0.0
N2637 N 0.48675 0.04627 0.24768 0.0
H2638 H 0.48511 0.04132 0.49836 0.0
H2639 H 0.49271 0.03854 0.40046 0.0
H2640 H 0.48759 0.04725 0.17994 0.0
H2641 H 0.48504 0.03525 0.27022 0.0
H2642 H 0.46574 0.09064 0.41984 0.0
H2643 H 0.46422 0.07902 0.51063 0.0
H2644 H 0.48239 0.10314 0.32126 0.0
H2645 H 0.48782 0.09882 0.22055 0.0
C2646 C 0.94154 0.42718 0.3984 0.0
C2647 C 0.9352 0.4123 0.44357 0.0
C2648 C 0.91931 0.39769 0.31483 0.0
C2649 C 0.92585 0.41253 0.26888 0.0
N2650 N 0.94165 0.44165 0.26808 0.0
N2651 N 0.91659 0.38374 0.45184 0.0
C2652 C 0.93639 0.42737 0.31137 0.0
C2653 C 0.9236 0.39765 0.40381 0.0
N2654 N 0.95304 0.44104 0.43776 0.0
N2655 N 0.90919 0.38361 0.27244 0.0
H2656 H 0.91987 0.38323 0.51602 0.0
H2657 H 0.90692 0.37287 0.43065 0.0
H2658 H 0.90474 0.38336 0.21006 0.0
H2659 H 0.90547 0.37217 0.29728 0.0
H2660 H 0.95969 0.45205 0.40607 0.0
H2661 H 0.9566 0.44146 0.50245 0.0
H2662 H 0.9477 0.45292 0.29774 0.0
H2663 H 0.93934 0.4424 0.20239 0.0
C2664 C 0.60537 0.52452 0.31335 0.0
C2665 C 0.59107 0.51443 0.26579 0.0
C2666 C 0.57456 0.51185 0.39455 0.0
C2667 C 0.58885 0.5223 0.44105 0.0
N2668 N 0.61782 0.53702 0.45152 0.0
N2669 N 0.56208 0.4971 0.26139 0.0
C2670 C 0.60427 0.52813 0.40239 0.0
C2671 C 0.57567 0.50753 0.30686 0.0
N2672 N 0.61999 0.53086 0.27232 0.0
N2673 N 0.55989 0.50672 0.43332 0.0
H2674 H 0.56206 0.49472 0.19512 0.0
H2675 H 0.55075 0.49017 0.28937 0.0
H2676 H 0.55865 0.50918 0.49824 0.0
H2677 H 0.54886 0.50059 0.40129 0.0
H2678 H 0.63083 0.53979 0.29849 0.0
H2679 H 0.62128 0.52741 0.20971 0.0
H2680 H 0.62947 0.54044 0.4313 0.0
H2681 H 0.61741 0.54041 0.51559 0.0
C2682 C 0.74955 0.81037 0.02506 0.0
C2683 C 0.74559 0.82064 0.07264 0.0
C2684 C 0.732 0.82367 0.94366 0.0
C2685 C 0.73558 0.81303 0.89716 0.0
N2686 N 0.74949 0.79799 0.88655 0.0
N2687 N 0.73472 0.83864 0.0765 0.0
C2688 C 0.74493 0.80694 0.93584 0.0
C2689 C 0.73748 0.82792 0.03133 0.0
N2690 N 0.75747 0.80367 0.06623 0.0
N2691 N 0.72264 0.82902 0.90505 0.0
H2692 H 0.73714 0.84105 0.1427 0.0
H2693 H 0.73066 0.84584 0.04812 0.0
H2694 H 0.7189 0.82659 0.84019 0.0
H2695 H 0.71788 0.83526 0.93734 0.0
H2696 H 0.75908 0.79456 0.04002 0.0
H2697 H 0.76219 0.80701 0.12895 0.0
H2698 H 0.75759 0.79441 0.90689 0.0
H2699 H 0.7458 0.79477 0.8222 0.0
C2700 C 0.19498 0.93767 0.91417 0.0
C2701 C 0.18967 0.92234 0.87552 0.0
C2702 C 0.17488 0.90884 0.00915 0.0
C2703 C 0.18126 0.92419 0.0503 0.0
N2704 N 0.19699 0.95317 0.04403 0.0
N2705 N 0.17497 0.89335 0.88339 0.0
C2706 C 0.19111 0.9386 0.00299 0.0
C2707 C 0.17951 0.90793 0.92183 0.0
N2708 N 0.20358 0.95131 0.86522 0.0
N2709 N 0.16465 0.8951 0.05413 0.0
H2710 H 0.17769 0.89223 0.8188 0.0
H2711 H 0.16915 0.88232 0.91557 0.0
H2712 H 0.16215 0.89493 0.12031 0.0
H2713 H 0.15799 0.88378 0.02568 0.0
H2714 H 0.20655 0.96284 0.88533 0.0
H2715 H 0.20717 0.95106 0.80141 0.0
H2716 H 0.20578 0.96411 0.01819 0.0
H2717 H 0.19331 0.95431 0.10631 0.0
C2718 C 0.06953 0.24783 0.99453 0.0
C2719 C 0.06948 0.25817 0.06072 0.0
C2720 C 0.07614 0.27917 0.95166 0.0
C2721 C 0.0736 0.26804 0.88442 0.0
N2722 N 0.06341 0.24012 0.84364 0.0
N2723 N 0.06747 0.28194 0.09418 0.0
C2724 C 0.06901 0.25185 0.90601 0.0
C2725 C 0.07124 0.27336 0.03713 0.0
N2726 N 0.07076 0.2346 0.01494 0.0
N2727 N 0.08351 0.29533 0.93474 0.0
H2728 H 0.06224 0.27755 0.15493 0.0
H2729 H 0.06752 0.29248 0.07627 0.0
H2730 H 0.08811 0.30021 0.87348 0.0
H2731 H 0.08671 0.30393 0.98396 0.0
H2732 H 0.07224 0.22762 0.96759 0.0
H2733 H 0.07219 0.23167 0.07848 0.0
H2734 H 0.05859 0.22793 0.85853 0.0
H2735 H 0.06196 0.24228 0.77876 0.0
C2736 C 0.20336 0.27924 0.94691 0.0
C2737 C 0.1948 0.26861 0.87763 0.0
C2738 C 0.17852 0.24772 0.98469 0.0
C2739 C 0.18892 0.25756 0.05235 0.0
N2740 N 0.21491 0.28083 0.08807 0.0
N2741 N 0.17733 0.24083 0.83277 0.0
C2742 C 0.20245 0.2728 0.03079 0.0
C2743 C 0.18322 0.25226 0.89674 0.0
N2744 N 0.21214 0.29552 0.93358 0.0
N2745 N 0.16394 0.23449 0.00307 0.0
H2746 H 0.18126 0.24328 0.76849 0.0
H2747 H 0.16993 0.22858 0.846 0.0
H2748 H 0.15942 0.23123 0.06614 0.0
H2749 H 0.15556 0.22788 0.95462 0.0
H2750 H 0.21757 0.30371 0.98458 0.0
H2751 H 0.21232 0.30087 0.87397 0.0
H2752 H 0.22543 0.29145 0.07146 0.0
H2753 H 0.21576 0.27586 0.14689 0.0
C2754 C 0.72417 0.90584 0.93039 0.0
C2755 C 0.73244 0.92035 0.88223 0.0
C2756 C 0.74997 0.93375 0.00787 0.0
C2757 C 0.74035 0.91983 0.05902 0.0
N2758 N 0.71613 0.89374 0.07311 0.0
N2759 N 0.752 0.94876 0.87648 0.0
C2760 C 0.72692 0.9061 0.02139 0.0
C2761 C 0.74509 0.9345 0.92114 0.0
N2762 N 0.71375 0.89176 0.88903 0.0
N2763 N 0.76392 0.94609 0.04164 0.0
H2764 H 0.74877 0.94972 0.81281 0.0
H2765 H 0.76002 0.95983 0.90457 0.0
H2766 H 0.76784 0.94587 0.10487 0.0
H2767 H 0.77229 0.95585 0.00485 0.0
H2768 H 0.70868 0.88051 0.91918 0.0
H2769 H 0.71137 0.89112 0.82228 0.0
H2770 H 0.70524 0.88432 0.04994 0.0
H2771 H 0.7171 0.89366 0.14079 0.0
C2772 C 0.09377 0.82469 0.91638 0.0
C2773 C 0.07945 0.81397 0.87092 0.0
C2774 C 0.06312 0.81168 0.99955 0.0
C2775 C 0.07746 0.82205 0.04606 0.0
N2776 N 0.10631 0.84027 0.04714 0.0
N2777 N 0.05045 0.79919 0.86183 0.0
C2778 C 0.09274 0.82926 0.0036 0.0
C2779 C 0.06409 0.80808 0.91037 0.0
N2780 N 0.10841 0.82979 0.87741 0.0
N2781 N 0.04859 0.80508 0.04162 0.0
H2782 H 0.05077 0.79593 0.79734 0.0
H2783 H 0.03885 0.79578 0.88287 0.0
H2784 H 0.04735 0.8086 0.10412 0.0
H2785 H 0.03782 0.79586 0.01635 0.0
H2786 H 0.11945 0.836 0.90941 0.0
H2787 H 0.10961 0.82709 0.81287 0.0
H2788 H 0.11744 0.84742 0.01746 0.0
H2789 H 0.10643 0.84302 0.11291 0.0
C2790 C 0.93926 0.53496 0.29413 0.0
C2791 C 0.92416 0.52109 0.27375 0.0
C2792 C 0.91891 0.51613 0.4299 0.0
C2793 C 0.93515 0.52808 0.44832 0.0
N2794 N 0.96196 0.54573 0.392 0.0
N2795 N 0.90136 0.49616 0.32559 0.0
C2796 C 0.94571 0.5365 0.37858 0.0
C2797 C 0.91443 0.51095 0.34247 0.0
N2798 N 0.9471 0.54716 0.23516 0.0
N2799 N 0.90751 0.51027 0.49407 0.0
H2800 H 0.89818 0.49134 0.26305 0.0
H2801 H 0.89485 0.48796 0.37492 0.0
H2802 H 0.90992 0.51445 0.55796 0.0
H2803 H 0.89528 0.50259 0.48127 0.0
H2804 H 0.95756 0.55791 0.25078 0.0
H2805 H 0.9421 0.54757 0.17554 0.0
H2806 H 0.97014 0.55104 0.34086 0.0
H2807 H 0.96735 0.54644 0.45222 0.0
C2808 C 0.48393 0.42926 0.39579 0.0
C2809 C 0.47803 0.41492 0.44519 0.0
C2810 C 0.48231 0.40142 0.32051 0.0
C2811 C 0.48632 0.41515 0.26829 0.0
N2812 N 0.4874 0.44084 0.25204 0.0
N2813 N 0.46944 0.38658 0.45242 0.0
C2814 C 0.48629 0.4288 0.30478 0.0
C2815 C 0.47669 0.40078 0.40715 0.0
N2816 N 0.48742 0.4434 0.43597 0.0
N2817 N 0.48421 0.38919 0.28791 0.0
H2818 H 0.46511 0.38566 0.51572 0.0
H2819 H 0.46655 0.37551 0.42494 0.0
H2820 H 0.48834 0.38932 0.22475 0.0
H2821 H 0.48305 0.37962 0.32563 0.0
H2822 H 0.49336 0.45456 0.40474 0.0
H2823 H 0.48581 0.4442 0.50273 0.0
H2824 H 0.48571 0.45016 0.27454 0.0
H2825 H 0.48826 0.4407 0.1843 0.0
C2826 C 0.59764 0.07999 0.32637 0.0
C2827 C 0.58507 0.06863 0.27229 0.0
C2828 C 0.57268 0.05078 0.39784 0.0
C2829 C 0.58615 0.06124 0.44963 0.0
N2830 N 0.61282 0.08456 0.46004 0.0
N2831 N 0.56277 0.04145 0.25229 0.0
C2832 C 0.59901 0.07556 0.41319 0.0
C2833 C 0.57311 0.05355 0.3068 0.0
N2834 N 0.60802 0.09512 0.2955 0.0
N2835 N 0.55931 0.03835 0.4358 0.0
H2836 H 0.56314 0.04254 0.18454 0.0
H2837 H 0.55498 0.02972 0.27356 0.0
H2838 H 0.55845 0.03602 0.50266 0.0
H2839 H 0.54851 0.03137 0.40237 0.0
H2840 H 0.61638 0.10445 0.33472 0.0
H2841 H 0.60735 0.09875 0.23222 0.0
H2842 H 0.62324 0.09415 0.43375 0.0
H2843 H 0.61432 0.08157 0.52326 0.0
loop_
_geom_bond_atom_site_label_1
_geom_bond_atom_site_label_2
_geom_bond_distance
_geom_bond_site_symmetry_2
_ccdc_geom_bond_type
Co0 O3 1.970 . S
Co0 N17 1.989 . S
Co0 O25 1.967 . S
Co0 O32 1.920 . S
Co1 O4 1.966 . S
Co1 N10 2.022 . S
Co1 N18 1.993 . S
Co1 O26 1.941 . S
C2 O3 1.258 . S
C2 O4 1.263 . S
O3 Co0 1.970 . S
O3 C2 1.258 . S
O4 Co1 1.966 . S
O4 C2 1.263 . S
C5 O6 1.235 . S
C5 O32 1.289 . S
O6 C5 1.235 . S
C7 C9 1.400 . S
C7 N10 1.351 1_556 S
C7 C12 1.501 . S
C8 C9 1.387 . S
C8 N11 1.341 . S
C9 C7 1.400 . S
C9 C8 1.387 . S
N10 Co1 2.022 . S
N10 C7 1.351 1_554 S
N10 N11 1.365 1_554 S
N11 C8 1.341 . S
N11 N10 1.365 1_556 S
N11 H31 0.862 . S
C12 C7 1.501 . S
C12 H13 0.961 1_556 S
C12 H14 0.961 . S
C12 H15 0.960 . S
H13 C12 0.961 1_554 S
H14 C12 0.961 . S
H15 C12 0.960 . S
C16 N17 1.342 . S
C16 C20 1.401 . S
C16 C21 1.499 . S
N17 Co0 1.989 . S
N17 C16 1.342 . S
N17 N18 1.388 . S
N18 Co1 1.993 . S
N18 N17 1.388 . S
N18 C19 1.346 . S
C19 N18 1.346 . S
C19 C20 1.396 . S
C19 C29 1.510 . S
C20 C16 1.401 . S
C20 C19 1.396 . S
C21 C16 1.499 . S
C21 H22 0.959 . S
C21 H23 0.960 . S
C21 H24 0.961 . S
H22 C21 0.959 . S
H23 C21 0.960 . S
H24 C21 0.961 . S
O25 Co0 1.967 . S
O25 C33 1.258 . S
O26 Co1 1.941 . S
O26 C33 1.266 . S
H27 C29 0.959 . S
H28 C29 0.961 . S
C29 C19 1.510 . S
C29 H27 0.959 . S
C29 H28 0.961 . S
C29 H30 0.960 . S
H30 C29 0.960 . S
H31 N11 0.862 . S
O32 Co0 1.920 . S
O32 C5 1.289 . S
C33 O25 1.258 . S
C33 O26 1.266 . S
Co34 O37 1.970 . S
Co34 N51 1.989 . S
Co34 O59 1.967 . S
Co34 O66 1.920 . S
Co35 O38 1.966 . S
Co35 N44 2.022 . S
Co35 N52 1.993 . S
Co35 O60 1.941 . S
C36 O37 1.258 . S
C36 O38 1.263 . S
O37 Co34 1.970 . S
O37 C36 1.258 . S
O38 Co35 1.966 . S
O38 C36 1.263 . S
C39 O40 1.235 . S
C39 O66 1.289 . S
O40 C39 1.235 . S
C41 C43 1.400 . S
C41 N44 1.351 1_556 S
C41 C46 1.501 . S
C42 C43 1.387 . S
C42 N45 1.341 . S
C43 C41 1.400 . S
C43 C42 1.387 . S
N44 Co35 2.022 . S
N44 C41 1.351 1_554 S
N44 N45 1.365 1_554 S
N45 C42 1.341 . S
N45 N44 1.365 1_556 S
N45 H65 0.862 . S
C46 C41 1.501 . S
C46 H47 0.961 1_556 S
C46 H48 0.961 . S
C46 H49 0.960 . S
H47 C46 0.961 1_554 S
H48 C46 0.961 . S
H49 C46 0.960 . S
C50 N51 1.342 . S
C50 C54 1.401 . S
C50 C55 1.499 . S
N51 Co34 1.989 . S
N51 C50 1.342 . S
N51 N52 1.388 . S
N52 Co35 1.993 . S
N52 N51 1.388 . S
N52 C53 1.346 . S
C53 N52 1.346 . S
C53 C54 1.396 . S
C53 C63 1.510 . S
C54 C50 1.401 . S
C54 C53 1.396 . S
C55 C50 1.499 . S
C55 H56 0.959 . S
C55 H57 0.960 . S
C55 H58 0.961 . S
H56 C55 0.959 . S
H57 C55 0.960 . S
H58 C55 0.961 . S
O59 Co34 1.967 . S
O59 C67 1.258 . S
O60 Co35 1.941 . S
O60 C67 1.266 . S
H61 C63 0.959 . S
H62 C63 0.961 . S
C63 C53 1.510 . S
C63 H61 0.959 . S
C63 H62 0.961 . S
C63 H64 0.960 . S
H64 C63 0.960 . S
H65 N45 0.862 . S
O66 Co34 1.920 . S
O66 C39 1.289 . S
C67 O59 1.258 . S
C67 O60 1.266 . S
Co68 O71 1.970 . S
Co68 N85 1.989 . S
Co68 O93 1.967 . S
Co68 O100 1.920 . S
Co69 O72 1.966 . S
Co69 N78 2.022 . S
Co69 N86 1.993 . S
Co69 O94 1.941 . S
C70 O71 1.258 . S
C70 O72 1.263 . S
O71 Co68 1.970 . S
O71 C70 1.258 . S
O72 Co69 1.966 . S
O72 C70 1.263 . S
C73 O74 1.235 . S
C73 O100 1.289 . S
O74 C73 1.235 . S
C75 C77 1.400 . S
C75 N78 1.351 1_556 S
C75 C80 1.501 . S
C76 C77 1.387 . S
C76 N79 1.341 . S
C77 C75 1.400 . S
C77 C76 1.387 . S
N78 Co69 2.022 . S
N78 C75 1.351 1_554 S
N78 N79 1.365 1_554 S
N79 C76 1.341 . S
N79 N78 1.365 1_556 S
N79 H99 0.862 . S
C80 C75 1.501 . S
C80 H81 0.961 1_556 S
C80 H82 0.961 . S
C80 H83 0.960 . S
H81 C80 0.961 1_554 S
H82 C80 0.961 . S
H83 C80 0.960 . S
C84 N85 1.342 . S
C84 C88 1.401 . S
C84 C89 1.499 . S
N85 Co68 1.989 . S
N85 C84 1.342 . S
N85 N86 1.388 . S
N86 Co69 1.993 . S
N86 N85 1.388 . S
N86 C87 1.346 . S
C87 N86 1.346 . S
C87 C88 1.396 . S
C87 C97 1.510 . S
C88 C84 1.401 . S
C88 C87 1.396 . S
C89 C84 1.499 . S
C89 H90 0.959 . S
C89 H91 0.960 . S
C89 H92 0.961 . S
H90 C89 0.959 . S
H91 C89 0.960 . S
H92 C89 0.961 . S
O93 Co68 1.967 . S
O93 C101 1.258 . S
O94 Co69 1.941 . S
O94 C101 1.266 . S
H95 C97 0.959 . S
H96 C97 0.961 . S
C97 C87 1.510 . S
C97 H95 0.959 . S
C97 H96 0.961 . S
C97 H98 0.960 . S
H98 C97 0.960 . S
H99 N79 0.862 . S
O100 Co68 1.920 . S
O100 C73 1.289 . S
C101 O93 1.258 . S
C101 O94 1.266 . S
Co102 O105 1.970 . S
Co102 N119 1.989 . S
Co102 O127 1.967 . S
Co102 O134 1.920 . S
Co103 O106 1.966 . S
Co103 N112 2.022 . S
Co103 N120 1.993 . S
Co103 O128 1.941 . S
C104 O105 1.258 . S
C104 O106 1.263 . S
O105 Co102 1.970 . S
O105 C104 1.258 . S
O106 Co103 1.966 . S
O106 C104 1.263 . S
C107 O108 1.235 . S
C107 O134 1.289 . S
O108 C107 1.235 . S
C109 C111 1.400 . S
C109 N112 1.351 1_554 S
C109 C114 1.501 . S
C110 C111 1.387 . S
C110 N113 1.341 . S
C111 C109 1.400 . S
C111 C110 1.387 . S
N112 Co103 2.022 . S
N112 C109 1.351 1_556 S
N112 N113 1.365 1_556 S
N113 C110 1.341 . S
N113 N112 1.365 1_554 S
N113 H133 0.862 . S
C114 C109 1.501 . S
C114 H115 0.961 1_554 S
C114 H116 0.961 . S
C114 H117 0.960 . S
H115 C114 0.961 1_556 S
H116 C114 0.961 . S
H117 C114 0.960 . S
C118 N119 1.342 . S
C118 C122 1.401 . S
C118 C123 1.499 . S
N119 Co102 1.989 . S
N119 C118 1.342 . S
N119 N120 1.388 . S
N120 Co103 1.993 . S
N120 N119 1.388 . S
N120 C121 1.346 . S
C121 N120 1.346 . S
C121 C122 1.396 . S
C121 C131 1.510 . S
C122 C118 1.401 . S
C122 C121 1.396 . S
C123 C118 1.499 . S
C123 H124 0.959 . S
C123 H125 0.960 . S
C123 H126 0.961 . S
H124 C123 0.959 . S
H125 C123 0.960 . S
H126 C123 0.961 . S
O127 Co102 1.967 . S
O127 C135 1.258 . S
O128 Co103 1.941 . S
O128 C135 1.266 . S
H129 C131 0.959 . S
H130 C131 0.961 . S
C131 C121 1.510 . S
C131 H129 0.959 . S
C131 H130 0.961 . S
C131 H132 0.960 . S
H132 C131 0.960 . S
H133 N113 0.862 . S
O134 Co102 1.920 . S
O134 C107 1.289 . S
C135 O127 1.258 . S
C135 O128 1.266 . S
Co136 O139 1.970 . S
Co136 N153 1.989 . S
Co136 O161 1.967 . S
Co136 O168 1.920 . S
Co137 O140 1.966 . S
Co137 N146 2.022 . S
Co137 N154 1.993 . S
Co137 O162 1.941 . S
C138 O139 1.258 . S
C138 O140 1.263 . S
O139 Co136 1.970 . S
O139 C138 1.258 . S
O140 Co137 1.966 . S
O140 C138 1.263 . S
C141 O142 1.235 . S
C141 O168 1.289 . S
O142 C141 1.235 . S
C143 C145 1.400 . S
C143 N146 1.351 1_554 S
C143 C148 1.501 . S
C144 C145 1.387 . S
C144 N147 1.341 . S
C145 C143 1.400 . S
C145 C144 1.387 . S
N146 Co137 2.022 . S
N146 C143 1.351 1_556 S
N146 N147 1.365 1_556 S
N147 C144 1.341 . S
N147 N146 1.365 1_554 S
N147 H167 0.862 . S
C148 C143 1.501 . S
C148 H149 0.961 1_554 S
C148 H150 0.961 . S
C148 H151 0.960 . S
H149 C148 0.961 1_556 S
H150 C148 0.961 . S
H151 C148 0.960 . S
C152 N153 1.342 . S
C152 C156 1.401 . S
C152 C157 1.499 . S
N153 Co136 1.989 . S
N153 C152 1.342 . S
N153 N154 1.388 . S
N154 Co137 1.993 . S
N154 N153 1.388 . S
N154 C155 1.346 . S
C155 N154 1.346 . S
C155 C156 1.396 . S
C155 C165 1.510 . S
C156 C152 1.401 . S
C156 C155 1.396 . S
C157 C152 1.499 . S
C157 H158 0.959 . S
C157 H159 0.960 . S
C157 H160 0.961 . S
H158 C157 0.959 . S
H159 C157 0.960 . S
H160 C157 0.961 . S
O161 Co136 1.967 . S
O161 C169 1.258 . S
O162 Co137 1.941 . S
O162 C169 1.266 . S
H163 C165 0.959 . S
H164 C165 0.961 . S
C165 C155 1.510 . S
C165 H163 0.959 . S
C165 H164 0.961 . S
C165 H166 0.960 . S
H166 C165 0.960 . S
H167 N147 0.862 . S
O168 Co136 1.920 . S
O168 C141 1.289 . S
C169 O161 1.258 . S
C169 O162 1.266 . S
Co170 O173 1.970 . S
Co170 N187 1.989 . S
Co170 O195 1.967 . S
Co170 O202 1.920 . S
Co171 O174 1.966 . S
Co171 N180 2.022 . S
Co171 N188 1.993 . S
Co171 O196 1.941 . S
C172 O173 1.258 . S
C172 O174 1.263 . S
O173 Co170 1.970 . S
O173 C172 1.258 . S
O174 Co171 1.966 . S
O174 C172 1.263 . S
C175 O176 1.235 . S
C175 O202 1.289 . S
O176 C175 1.235 . S
C177 C179 1.400 . S
C177 N180 1.351 1_554 S
C177 C182 1.501 . S
C178 C179 1.387 . S
C178 N181 1.341 . S
C179 C177 1.400 . S
C179 C178 1.387 . S
N180 Co171 2.022 . S
N180 C177 1.351 1_556 S
N180 N181 1.365 1_556 S
N181 C178 1.341 . S
N181 N180 1.365 1_554 S
N181 H201 0.862 . S
C182 C177 1.501 . S
C182 H183 0.961 1_554 S
C182 H184 0.961 . S
C182 H185 0.960 . S
H183 C182 0.961 1_556 S
H184 C182 0.961 . S
H185 C182 0.960 . S
C186 N187 1.342 . S
C186 C190 1.401 . S
C186 C191 1.499 . S
N187 Co170 1.989 . S
N187 C186 1.342 . S
N187 N188 1.388 . S
N188 Co171 1.993 . S
N188 N187 1.388 . S
N188 C189 1.346 . S
C189 N188 1.346 . S
C189 C190 1.396 . S
C189 C199 1.510 . S
C190 C186 1.401 . S
C190 C189 1.396 . S
C191 C186 1.499 . S
C191 H192 0.959 . S
C191 H193 0.960 . S
C191 H194 0.961 . S
H192 C191 0.959 . S
H193 C191 0.960 . S
H194 C191 0.961 . S
O195 Co170 1.967 . S
O195 C203 1.258 . S
O196 Co171 1.941 . S
O196 C203 1.266 . S
H197 C199 0.959 . S
H198 C199 0.961 . S
C199 C189 1.510 . S
C199 H197 0.959 . S
C199 H198 0.961 . S
C199 H200 0.960 . S
H200 C199 0.960 . S
H201 N181 0.862 . S
O202 Co170 1.920 . S
O202 C175 1.289 . S
C203 O195 1.258 . S
C203 O196 1.266 . S
Co204 O207 1.970 . S
Co204 N221 1.989 . S
Co204 O229 1.967 . S
Co204 O236 1.920 . S
Co205 O208 1.966 . S
Co205 N214 2.022 . S
Co205 N222 1.993 . S
Co205 O230 1.941 . S
C206 O207 1.258 . S
C206 O208 1.263 . S
O207 Co204 1.970 . S
O207 C206 1.258 . S
O208 Co205 1.966 . S
O208 C206 1.263 . S
C209 O210 1.235 . S
C209 O236 1.289 . S
O210 C209 1.235 . S
C211 C213 1.400 . S
C211 N214 1.351 1_554 S
C211 C216 1.501 . S
C212 C213 1.387 . S
C212 N215 1.341 . S
C213 C211 1.400 . S
C213 C212 1.387 . S
N214 Co205 2.022 . S
N214 C211 1.351 1_556 S
N214 N215 1.365 1_556 S
N215 C212 1.341 . S
N215 N214 1.365 1_554 S
N215 H235 0.862 . S
C216 C211 1.501 . S
C216 H217 0.961 1_554 S
C216 H218 0.961 . S
C216 H219 0.960 . S
H217 C216 0.961 1_556 S
H218 C216 0.961 . S
H219 C216 0.960 . S
C220 N221 1.342 . S
C220 C224 1.401 . S
C220 C225 1.499 . S
N221 Co204 1.989 . S
N221 C220 1.342 . S
N221 N222 1.388 . S
N222 Co205 1.993 . S
N222 N221 1.388 . S
N222 C223 1.346 . S
C223 N222 1.346 . S
C223 C224 1.396 . S
C223 C233 1.510 . S
C224 C220 1.401 . S
C224 C223 1.396 . S
C225 C220 1.499 . S
C225 H226 0.959 . S
C225 H227 0.960 . S
C225 H228 0.961 . S
H226 C225 0.959 . S
H227 C225 0.960 . S
H228 C225 0.961 . S
O229 Co204 1.967 . S
O229 C237 1.258 . S
O230 Co205 1.941 . S
O230 C237 1.266 . S
H231 C233 0.959 . S
H232 C233 0.961 . S
C233 C223 1.510 . S
C233 H231 0.959 . S
C233 H232 0.961 . S
C233 H234 0.960 . S
H234 C233 0.960 . S
H235 N215 0.862 . S
O236 Co204 1.920 . S
O236 C209 1.289 . S
C237 O229 1.258 . S
C237 O230 1.266 . S
Co238 O241 1.970 . S
Co238 N255 1.989 . S
Co238 O263 1.967 . S
Co238 O270 1.920 . S
Co239 O242 1.966 . S
Co239 N248 2.022 . S
Co239 N256 1.993 . S
Co239 O264 1.941 . S
C240 O241 1.258 . S
C240 O242 1.263 . S
O241 Co238 1.970 . S
O241 C240 1.258 . S
O242 Co239 1.966 . S
O242 C240 1.263 . S
C243 O244 1.235 . S
C243 O270 1.289 . S
O244 C243 1.235 . S
C245 C247 1.400 . S
C245 N248 1.351 1_554 S
C245 C250 1.501 . S
C246 C247 1.387 . S
C246 N249 1.341 . S
C247 C245 1.400 . S
C247 C246 1.387 . S
N248 Co239 2.022 . S
N248 C245 1.351 1_556 S
N248 N249 1.365 1_556 S
N249 C246 1.341 . S
N249 N248 1.365 1_554 S
N249 H269 0.862 . S
C250 C245 1.501 . S
C250 H251 0.961 1_554 S
C250 H252 0.961 . S
C250 H253 0.960 . S
H251 C250 0.961 1_556 S
H252 C250 0.961 . S
H253 C250 0.960 . S
C254 N255 1.342 . S
C254 C258 1.401 . S
C254 C259 1.499 . S
N255 Co238 1.989 . S
N255 C254 1.342 . S
N255 N256 1.388 . S
N256 Co239 1.993 . S
N256 N255 1.388 . S
N256 C257 1.346 . S
C257 N256 1.346 . S
C257 C258 1.396 . S
C257 C267 1.510 . S
C258 C254 1.401 . S
C258 C257 1.396 . S
C259 C254 1.499 . S
C259 H260 0.959 . S
C259 H261 0.960 . S
C259 H262 0.961 . S
H260 C259 0.959 . S
H261 C259 0.960 . S
H262 C259 0.961 . S
O263 Co238 1.967 . S
O263 C271 1.258 . S
O264 Co239 1.941 . S
O264 C271 1.266 . S
H265 C267 0.959 . S
H266 C267 0.961 . S
C267 C257 1.510 . S
C267 H265 0.959 . S
C267 H266 0.961 . S
C267 H268 0.960 . S
H268 C267 0.960 . S
H269 N249 0.862 . S
O270 Co238 1.920 . S
O270 C243 1.289 . S
C271 O263 1.258 . S
C271 O264 1.266 . S
Co272 O275 1.970 . S
Co272 N289 1.989 . S
Co272 O297 1.967 . S
Co272 O304 1.920 . S
Co273 O276 1.966 . S
Co273 N282 2.022 . S
Co273 N290 1.993 . S
Co273 O298 1.941 . S
C274 O275 1.258 . S
C274 O276 1.263 . S
O275 Co272 1.970 . S
O275 C274 1.258 . S
O276 Co273 1.966 . S
O276 C274 1.263 . S
C277 O278 1.235 . S
C277 O304 1.289 . S
O278 C277 1.235 . S
C279 C281 1.400 . S
C279 N282 1.351 1_554 S
C279 C284 1.501 . S
C280 C281 1.387 . S
C280 N283 1.341 . S
C281 C279 1.400 . S
C281 C280 1.387 . S
N282 Co273 2.022 . S
N282 C279 1.351 1_556 S
N282 N283 1.365 1_556 S
N283 C280 1.341 . S
N283 N282 1.365 1_554 S
N283 H303 0.862 . S
C284 C279 1.501 . S
C284 H285 0.961 1_554 S
C284 H286 0.961 . S
C284 H287 0.960 . S
H285 C284 0.961 1_556 S
H286 C284 0.961 . S
H287 C284 0.960 . S
C288 N289 1.342 . S
C288 C292 1.401 . S
C288 C293 1.499 . S
N289 Co272 1.989 . S
N289 C288 1.342 . S
N289 N290 1.388 . S
N290 Co273 1.993 . S
N290 N289 1.388 . S
N290 C291 1.346 . S
C291 N290 1.346 . S
C291 C292 1.396 . S
C291 C301 1.510 . S
C292 C288 1.401 . S
C292 C291 1.396 . S
C293 C288 1.499 . S
C293 H294 0.959 . S
C293 H295 0.960 . S
C293 H296 0.961 . S
H294 C293 0.959 . S
H295 C293 0.960 . S
H296 C293 0.961 . S
O297 Co272 1.967 . S
O297 C305 1.258 . S
O298 Co273 1.941 . S
O298 C305 1.266 . S
H299 C301 0.959 . S
H300 C301 0.961 . S
C301 C291 1.510 . S
C301 H299 0.959 . S
C301 H300 0.961 . S
C301 H302 0.960 . S
H302 C301 0.960 . S
H303 N283 0.862 . S
O304 Co272 1.920 . S
O304 C277 1.289 . S
C305 O297 1.258 . S
C305 O298 1.266 . S
Co306 O309 1.970 . S
Co306 N323 1.989 . S
Co306 O331 1.967 . S
Co306 O338 1.920 . S
Co307 O310 1.966 . S
Co307 N316 2.022 . S
Co307 N324 1.993 . S
Co307 O332 1.941 . S
C308 O309 1.258 . S
C308 O310 1.263 . S
O309 Co306 1.970 . S
O309 C308 1.258 . S
O310 Co307 1.966 . S
O310 C308 1.263 . S
C311 O312 1.235 . S
C311 O338 1.289 . S
O312 C311 1.235 . S
C313 C315 1.400 . S
C313 N316 1.351 1_556 S
C313 C318 1.501 . S
C314 C315 1.387 . S
C314 N317 1.341 . S
C315 C313 1.400 . S
C315 C314 1.387 . S
N316 Co307 2.022 . S
N316 C313 1.351 1_554 S
N316 N317 1.365 1_554 S
N317 C314 1.341 . S
N317 N316 1.365 1_556 S
N317 H337 0.862 . S
C318 C313 1.501 . S
C318 H319 0.961 1_556 S
C318 H320 0.961 . S
C318 H321 0.960 . S
H319 C318 0.961 1_554 S
H320 C318 0.961 . S
H321 C318 0.960 . S
C322 N323 1.342 . S
C322 C326 1.401 . S
C322 C327 1.499 . S
N323 Co306 1.989 . S
N323 C322 1.342 . S
N323 N324 1.388 . S
N324 Co307 1.993 . S
N324 N323 1.388 . S
N324 C325 1.346 . S
C325 N324 1.346 . S
C325 C326 1.396 . S
C325 C335 1.510 . S
C326 C322 1.401 . S
C326 C325 1.396 . S
C327 C322 1.499 . S
C327 H328 0.959 . S
C327 H329 0.960 . S
C327 H330 0.961 . S
H328 C327 0.959 . S
H329 C327 0.960 . S
H330 C327 0.961 . S
O331 Co306 1.967 . S
O331 C339 1.258 . S
O332 Co307 1.941 . S
O332 C339 1.266 . S
H333 C335 0.959 . S
H334 C335 0.961 . S
C335 C325 1.510 . S
C335 H333 0.959 . S
C335 H334 0.961 . S
C335 H336 0.960 . S
H336 C335 0.960 . S
H337 N317 0.862 . S
O338 Co306 1.920 . S
O338 C311 1.289 . S
C339 O331 1.258 . S
C339 O332 1.266 . S
Co340 O343 1.970 . S
Co340 N357 1.989 . S
Co340 O365 1.967 . S
Co340 O372 1.920 . S
Co341 O344 1.966 . S
Co341 N350 2.022 . S
Co341 N358 1.993 . S
Co341 O366 1.941 . S
C342 O343 1.258 . S
C342 O344 1.263 . S
O343 Co340 1.970 . S
O343 C342 1.258 . S
O344 Co341 1.966 . S
O344 C342 1.263 . S
C345 O346 1.235 . S
C345 O372 1.289 . S
O346 C345 1.235 . S
C347 C349 1.400 . S
C347 N350 1.351 1_556 S
C347 C352 1.501 . S
C348 C349 1.387 . S
C348 N351 1.341 . S
C349 C347 1.400 . S
C349 C348 1.387 . S
N350 Co341 2.022 . S
N350 C347 1.351 1_554 S
N350 N351 1.365 1_554 S
N351 C348 1.341 . S
N351 N350 1.365 1_556 S
N351 H371 0.862 . S
C352 C347 1.501 . S
C352 H353 0.961 1_556 S
C352 H354 0.961 . S
C352 H355 0.960 . S
H353 C352 0.961 1_554 S
H354 C352 0.961 . S
H355 C352 0.960 . S
C356 N357 1.342 . S
C356 C360 1.401 . S
C356 C361 1.499 . S
N357 Co340 1.989 . S
N357 C356 1.342 . S
N357 N358 1.388 . S
N358 Co341 1.993 . S
N358 N357 1.388 . S
N358 C359 1.346 . S
C359 N358 1.346 . S
C359 C360 1.396 . S
C359 C369 1.510 . S
C360 C356 1.401 . S
C360 C359 1.396 . S
C361 C356 1.499 . S
C361 H362 0.959 . S
C361 H363 0.960 . S
C361 H364 0.961 . S
H362 C361 0.959 . S
H363 C361 0.960 . S
H364 C361 0.961 . S
O365 Co340 1.967 . S
O365 C373 1.258 . S
O366 Co341 1.941 . S
O366 C373 1.266 . S
H367 C369 0.959 . S
H368 C369 0.961 . S
C369 C359 1.510 . S
C369 H367 0.959 . S
C369 H368 0.961 . S
C369 H370 0.960 . S
H370 C369 0.960 . S
H371 N351 0.862 . S
O372 Co340 1.920 . S
O372 C345 1.289 . S
C373 O365 1.258 . S
C373 O366 1.266 . S
Co374 O377 1.970 . S
Co374 N391 1.989 . S
Co374 O399 1.967 . S
Co374 O406 1.920 . S
Co375 O378 1.966 . S
Co375 N384 2.022 . S
Co375 N392 1.993 . S
Co375 O400 1.941 . S
C376 O377 1.258 . S
C376 O378 1.263 . S
O377 Co374 1.970 . S
O377 C376 1.258 . S
O378 Co375 1.966 . S
O378 C376 1.263 . S
C379 O380 1.235 . S
C379 O406 1.289 . S
O380 C379 1.235 . S
C381 C383 1.400 . S
C381 N384 1.351 1_556 S
C381 C386 1.501 . S
C382 C383 1.387 . S
C382 N385 1.341 . S
C383 C381 1.400 . S
C383 C382 1.387 . S
N384 Co375 2.022 . S
N384 C381 1.351 1_554 S
N384 N385 1.365 1_554 S
N385 C382 1.341 . S
N385 N384 1.365 1_556 S
N385 H405 0.862 . S
C386 C381 1.501 . S
C386 H387 0.961 1_556 S
C386 H388 0.961 . S
C386 H389 0.960 . S
H387 C386 0.961 1_554 S
H388 C386 0.961 . S
H389 C386 0.960 . S
C390 N391 1.342 . S
C390 C394 1.401 . S
C390 C395 1.499 . S
N391 Co374 1.989 . S
N391 C390 1.342 . S
N391 N392 1.388 . S
N392 Co375 1.993 . S
N392 N391 1.388 . S
N392 C393 1.346 . S
C393 N392 1.346 . S
C393 C394 1.396 . S
C393 C403 1.510 . S
C394 C390 1.401 . S
C394 C393 1.396 . S
C395 C390 1.499 . S
C395 H396 0.959 . S
C395 H397 0.960 . S
C395 H398 0.961 . S
H396 C395 0.959 . S
H397 C395 0.960 . S
H398 C395 0.961 . S
O399 Co374 1.967 . S
O399 C407 1.258 . S
O400 Co375 1.941 . S
O400 C407 1.266 . S
H401 C403 0.959 . S
H402 C403 0.961 . S
C403 C393 1.510 . S
C403 H401 0.959 . S
C403 H402 0.961 . S
C403 H404 0.960 . S
H404 C403 0.960 . S
H405 N385 0.862 . S
O406 Co374 1.920 . S
O406 C379 1.289 . S
C407 O399 1.258 . S
C407 O400 1.266 . S
Co408 O411 1.970 . S
Co408 N425 1.989 . S
Co408 O433 1.967 . S
Co408 O440 1.920 . S
Co409 O412 1.966 . S
Co409 N418 2.022 . S
Co409 N426 1.993 . S
Co409 O434 1.941 . S
C410 O411 1.258 . S
C410 O412 1.263 . S
O411 Co408 1.970 . S
O411 C410 1.258 . S
O412 Co409 1.966 . S
O412 C410 1.263 . S
C413 O414 1.235 . S
C413 O440 1.289 . S
O414 C413 1.235 . S
C415 C417 1.400 . S
C415 N418 1.351 . S
C415 C420 1.501 . S
C416 C417 1.387 . S
C416 N419 1.341 . S
C417 C415 1.400 . S
C417 C416 1.387 . S
N418 Co409 2.022 . S
N418 C415 1.351 . S
N418 N419 1.365 . S
N419 C416 1.341 . S
N419 N418 1.365 . S
N419 H439 0.862 . S
C420 C415 1.501 . S
C420 H421 0.961 . S
C420 H422 0.961 . S
C420 H423 0.960 . S
H421 C420 0.961 . S
H422 C420 0.961 . S
H423 C420 0.960 . S
C424 N425 1.342 . S
C424 C428 1.401 . S
C424 C429 1.499 . S
N425 Co408 1.989 . S
N425 C424 1.342 . S
N425 N426 1.388 . S
N426 Co409 1.993 . S
N426 N425 1.388 . S
N426 C427 1.346 . S
C427 N426 1.346 . S
C427 C428 1.396 . S
C427 C437 1.510 . S
C428 C424 1.401 . S
C428 C427 1.396 . S
C429 C424 1.499 . S
C429 H430 0.959 . S
C429 H431 0.960 . S
C429 H432 0.961 . S
H430 C429 0.959 . S
H431 C429 0.960 . S
H432 C429 0.961 . S
O433 Co408 1.967 . S
O433 C441 1.258 . S
O434 Co409 1.941 . S
O434 C441 1.266 . S
H435 C437 0.959 . S
H436 C437 0.961 . S
C437 C427 1.510 . S
C437 H435 0.959 . S
C437 H436 0.961 . S
C437 H438 0.960 . S
H438 C437 0.960 . S
H439 N419 0.862 . S
O440 Co408 1.920 . S
O440 C413 1.289 . S
C441 O433 1.258 . S
C441 O434 1.266 . S
Co442 O445 1.970 . S
Co442 N459 1.989 . S
Co442 O467 1.967 . S
Co442 O474 1.920 . S
Co443 O446 1.966 . S
Co443 N452 2.022 . S
Co443 N460 1.993 . S
Co443 O468 1.941 . S
C444 O445 1.258 . S
C444 O446 1.263 . S
O445 Co442 1.970 . S
O445 C444 1.258 . S
O446 Co443 1.966 . S
O446 C444 1.263 . S
C447 O448 1.235 . S
C447 O474 1.289 . S
O448 C447 1.235 . S
C449 C451 1.400 . S
C449 N452 1.351 . S
C449 C454 1.501 . S
C450 C451 1.387 . S
C450 N453 1.341 . S
C451 C449 1.400 . S
C451 C450 1.387 . S
N452 Co443 2.022 . S
N452 C449 1.351 . S
N452 N453 1.365 . S
N453 C450 1.341 . S
N453 N452 1.365 . S
N453 H473 0.862 . S
C454 C449 1.501 . S
C454 H455 0.961 . S
C454 H456 0.961 . S
C454 H457 0.960 . S
H455 C454 0.961 . S
H456 C454 0.961 . S
H457 C454 0.960 . S
C458 N459 1.342 . S
C458 C462 1.401 . S
C458 C463 1.499 . S
N459 Co442 1.989 . S
N459 C458 1.342 . S
N459 N460 1.388 . S
N460 Co443 1.993 . S
N460 N459 1.388 . S
N460 C461 1.346 . S
C461 N460 1.346 . S
C461 C462 1.396 . S
C461 C471 1.510 . S
C462 C458 1.401 . S
C462 C461 1.396 . S
C463 C458 1.499 . S
C463 H464 0.959 . S
C463 H465 0.960 . S
C463 H466 0.961 . S
H464 C463 0.959 . S
H465 C463 0.960 . S
H466 C463 0.961 . S
O467 Co442 1.967 . S
O467 C475 1.258 . S
O468 Co443 1.941 . S
O468 C475 1.266 . S
H469 C471 0.959 . S
H470 C471 0.961 . S
C471 C461 1.510 . S
C471 H469 0.959 . S
C471 H470 0.961 . S
C471 H472 0.960 . S
H472 C471 0.960 . S
H473 N453 0.862 . S
O474 Co442 1.920 . S
O474 C447 1.289 . S
C475 O467 1.258 . S
C475 O468 1.266 . S
Co476 O479 1.970 . S
Co476 N493 1.989 . S
Co476 O501 1.967 . S
Co476 O508 1.920 . S
Co477 O480 1.966 . S
Co477 N486 2.022 . S
Co477 N494 1.993 . S
Co477 O502 1.941 . S
C478 O479 1.258 . S
C478 O480 1.263 . S
O479 Co476 1.970 . S
O479 C478 1.258 . S
O480 Co477 1.966 . S
O480 C478 1.263 . S
C481 O482 1.235 . S
C481 O508 1.289 . S
O482 C481 1.235 . S
C483 C485 1.400 . S
C483 N486 1.351 . S
C483 C488 1.501 . S
C484 C485 1.387 . S
C484 N487 1.341 . S
C485 C483 1.400 . S
C485 C484 1.387 . S
N486 Co477 2.022 . S
N486 C483 1.351 . S
N486 N487 1.365 . S
N487 C484 1.341 . S
N487 N486 1.365 . S
N487 H507 0.862 . S
C488 C483 1.501 . S
C488 H489 0.961 . S
C488 H490 0.961 . S
C488 H491 0.960 . S
H489 C488 0.961 . S
H490 C488 0.961 . S
H491 C488 0.960 . S
C492 N493 1.342 . S
C492 C496 1.401 . S
C492 C497 1.499 . S
N493 Co476 1.989 . S
N493 C492 1.342 . S
N493 N494 1.388 . S
N494 Co477 1.993 . S
N494 N493 1.388 . S
N494 C495 1.346 . S
C495 N494 1.346 . S
C495 C496 1.396 . S
C495 C505 1.510 . S
C496 C492 1.401 . S
C496 C495 1.396 . S
C497 C492 1.499 . S
C497 H498 0.959 . S
C497 H499 0.960 . S
C497 H500 0.961 . S
H498 C497 0.959 . S
H499 C497 0.960 . S
H500 C497 0.961 . S
O501 Co476 1.967 . S
O501 C509 1.258 . S
O502 Co477 1.941 . S
O502 C509 1.266 . S
H503 C505 0.959 . S
H504 C505 0.961 . S
C505 C495 1.510 . S
C505 H503 0.959 . S
C505 H504 0.961 . S
C505 H506 0.960 . S
H506 C505 0.960 . S
H507 N487 0.862 . S
O508 Co476 1.920 . S
O508 C481 1.289 . S
C509 O501 1.258 . S
C509 O502 1.266 . S
Co510 O513 1.970 1_556 S
Co510 N527 1.989 1_556 S
Co510 O535 1.967 1_556 S
Co510 O542 1.920 . S
Co511 O514 1.966 . S
Co511 N520 2.022 . S
Co511 N528 1.993 . S
Co511 O536 1.941 . S
C512 O513 1.258 . S
C512 O514 1.263 . S
O513 Co510 1.970 1_554 S
O513 C512 1.258 . S
O514 Co511 1.966 . S
O514 C512 1.263 . S
C515 O516 1.235 . S
C515 O542 1.289 . S
O516 C515 1.235 . S
C517 C519 1.400 . S
C517 N520 1.351 . S
C517 C522 1.501 . S
C518 C519 1.387 . S
C518 N521 1.341 . S
C519 C517 1.400 . S
C519 C518 1.387 . S
N520 Co511 2.022 . S
N520 C517 1.351 . S
N520 N521 1.365 . S
N521 C518 1.341 . S
N521 N520 1.365 . S
N521 H541 0.862 . S
C522 C517 1.501 . S
C522 H523 0.961 . S
C522 H524 0.961 . S
C522 H525 0.960 . S
H523 C522 0.961 . S
H524 C522 0.961 . S
H525 C522 0.960 . S
C526 N527 1.342 . S
C526 C530 1.401 . S
C526 C531 1.499 1_554 S
N527 Co510 1.989 1_554 S
N527 C526 1.342 . S
N527 N528 1.388 . S
N528 Co511 1.993 . S
N528 N527 1.388 . S
N528 C529 1.346 . S
C529 N528 1.346 . S
C529 C530 1.396 . S
C529 C539 1.510 . S
C530 C526 1.401 . S
C530 C529 1.396 . S
C531 C526 1.499 1_556 S
C531 H532 0.959 . S
C531 H533 0.960 . S
C531 H534 0.961 . S
H532 C531 0.959 . S
H533 C531 0.960 . S
H534 C531 0.961 . S
O535 Co510 1.967 1_554 S
O535 C543 1.258 . S
O536 Co511 1.941 . S
O536 C543 1.266 . S
H537 C539 0.959 . S
H538 C539 0.961 . S
C539 C529 1.510 . S
C539 H537 0.959 . S
C539 H538 0.961 . S
C539 H540 0.960 . S
H540 C539 0.960 . S
H541 N521 0.862 . S
O542 Co510 1.920 . S
O542 C515 1.289 . S
C543 O535 1.258 . S
C543 O536 1.266 . S
Co544 O547 1.970 1_556 S
Co544 N561 1.989 1_556 S
Co544 O569 1.967 1_556 S
Co544 O576 1.920 . S
Co545 O548 1.966 . S
Co545 N554 2.022 . S
Co545 N562 1.993 . S
Co545 O570 1.941 . S
C546 O547 1.258 . S
C546 O548 1.263 . S
O547 Co544 1.970 1_554 S
O547 C546 1.258 . S
O548 Co545 1.966 . S
O548 C546 1.263 . S
C549 O550 1.235 . S
C549 O576 1.289 . S
O550 C549 1.235 . S
C551 C553 1.400 . S
C551 N554 1.351 . S
C551 C556 1.501 . S
C552 C553 1.387 . S
C552 N555 1.341 . S
C553 C551 1.400 . S
C553 C552 1.387 . S
N554 Co545 2.022 . S
N554 C551 1.351 . S
N554 N555 1.365 . S
N555 C552 1.341 . S
N555 N554 1.365 . S
N555 H575 0.862 . S
C556 C551 1.501 . S
C556 H557 0.961 . S
C556 H558 0.961 . S
C556 H559 0.960 . S
H557 C556 0.961 . S
H558 C556 0.961 . S
H559 C556 0.960 . S
C560 N561 1.342 . S
C560 C564 1.401 . S
C560 C565 1.499 1_554 S
N561 Co544 1.989 1_554 S
N561 C560 1.342 . S
N561 N562 1.388 . S
N562 Co545 1.993 . S
N562 N561 1.388 . S
N562 C563 1.346 . S
C563 N562 1.346 . S
C563 C564 1.396 . S
C563 C573 1.510 . S
C564 C560 1.401 . S
C564 C563 1.396 . S
C565 C560 1.499 1_556 S
C565 H566 0.959 . S
C565 H567 0.960 . S
C565 H568 0.961 . S
H566 C565 0.959 . S
H567 C565 0.960 . S
H568 C565 0.961 . S
O569 Co544 1.967 1_554 S
O569 C577 1.258 . S
O570 Co545 1.941 . S
O570 C577 1.266 . S
H571 C573 0.959 . S
H572 C573 0.961 . S
C573 C563 1.510 . S
C573 H571 0.959 . S
C573 H572 0.961 . S
C573 H574 0.960 . S
H574 C573 0.960 . S
H575 N555 0.862 . S
O576 Co544 1.920 . S
O576 C549 1.289 . S
C577 O569 1.258 . S
C577 O570 1.266 . S
Co578 O581 1.970 1_556 S
Co578 N595 1.989 1_556 S
Co578 O603 1.967 1_556 S
Co578 O610 1.920 . S
Co579 O582 1.966 . S
Co579 N588 2.022 . S
Co579 N596 1.993 . S
Co579 O604 1.941 . S
C580 O581 1.258 . S
C580 O582 1.263 . S
O581 Co578 1.970 1_554 S
O581 C580 1.258 . S
O582 Co579 1.966 . S
O582 C580 1.263 . S
C583 O584 1.235 . S
C583 O610 1.289 . S
O584 C583 1.235 . S
C585 C587 1.400 . S
C585 N588 1.351 . S
C585 C590 1.501 . S
C586 C587 1.387 . S
C586 N589 1.341 . S
C587 C585 1.400 . S
C587 C586 1.387 . S
N588 Co579 2.022 . S
N588 C585 1.351 . S
N588 N589 1.365 . S
N589 C586 1.341 . S
N589 N588 1.365 . S
N589 H609 0.862 . S
C590 C585 1.501 . S
C590 H591 0.961 . S
C590 H592 0.961 . S
C590 H593 0.960 . S
H591 C590 0.961 . S
H592 C590 0.961 . S
H593 C590 0.960 . S
C594 N595 1.342 . S
C594 C598 1.401 . S
C594 C599 1.499 1_554 S
N595 Co578 1.989 1_554 S
N595 C594 1.342 . S
N595 N596 1.388 . S
N596 Co579 1.993 . S
N596 N595 1.388 . S
N596 C597 1.346 . S
C597 N596 1.346 . S
C597 C598 1.396 . S
C597 C607 1.510 . S
C598 C594 1.401 . S
C598 C597 1.396 . S
C599 C594 1.499 1_556 S
C599 H600 0.959 . S
C599 H601 0.960 . S
C599 H602 0.961 . S
H600 C599 0.959 . S
H601 C599 0.960 . S
H602 C599 0.961 . S
O603 Co578 1.967 1_554 S
O603 C611 1.258 . S
O604 Co579 1.941 . S
O604 C611 1.266 . S
H605 C607 0.959 . S
H606 C607 0.961 . S
C607 C597 1.510 . S
C607 H605 0.959 . S
C607 H606 0.961 . S
C607 H608 0.960 . S
H608 C607 0.960 . S
H609 N589 0.862 . S
O610 Co578 1.920 . S
O610 C583 1.289 . S
C611 O603 1.258 . S
C611 O604 1.266 . S
Co612 O615 1.970 1_556 S
Co612 N629 1.989 1_556 S
Co612 O637 1.967 1_556 S
Co612 O644 1.920 . S
Co613 O616 1.966 . S
Co613 N622 2.022 . S
Co613 N630 1.993 . S
Co613 O638 1.941 . S
C614 O615 1.258 . S
C614 O616 1.263 . S
O615 Co612 1.970 1_554 S
O615 C614 1.258 . S
O616 Co613 1.966 . S
O616 C614 1.263 . S
C617 O618 1.235 . S
C617 O644 1.289 . S
O618 C617 1.235 . S
C619 C621 1.400 . S
C619 N622 1.351 . S
C619 C624 1.501 . S
C620 C621 1.387 . S
C620 N623 1.341 . S
C621 C619 1.400 . S
C621 C620 1.387 . S
N622 Co613 2.022 . S
N622 C619 1.351 . S
N622 N623 1.365 . S
N623 C620 1.341 . S
N623 N622 1.365 . S
N623 H643 0.862 . S
C624 C619 1.501 . S
C624 H625 0.961 . S
C624 H626 0.961 . S
C624 H627 0.960 . S
H625 C624 0.961 . S
H626 C624 0.961 . S
H627 C624 0.960 . S
C628 N629 1.342 . S
C628 C632 1.401 . S
C628 C633 1.499 1_554 S
N629 Co612 1.989 1_554 S
N629 C628 1.342 . S
N629 N630 1.388 . S
N630 Co613 1.993 . S
N630 N629 1.388 . S
N630 C631 1.346 . S
C631 N630 1.346 . S
C631 C632 1.396 . S
C631 C641 1.510 . S
C632 C628 1.401 . S
C632 C631 1.396 . S
C633 C628 1.499 1_556 S
C633 H634 0.959 . S
C633 H635 0.960 . S
C633 H636 0.961 . S
H634 C633 0.959 . S
H635 C633 0.960 . S
H636 C633 0.961 . S
O637 Co612 1.967 1_554 S
O637 C645 1.258 . S
O638 Co613 1.941 . S
O638 C645 1.266 . S
H639 C641 0.959 . S
H640 C641 0.961 . S
C641 C631 1.510 . S
C641 H639 0.959 . S
C641 H640 0.961 . S
C641 H642 0.960 . S
H642 C641 0.960 . S
H643 N623 0.862 . S
O644 Co612 1.920 . S
O644 C617 1.289 . S
C645 O637 1.258 . S
C645 O638 1.266 . S
Co646 O649 1.970 1_556 S
Co646 N663 1.989 1_556 S
Co646 O671 1.967 1_556 S
Co646 O678 1.920 . S
Co647 O650 1.966 . S
Co647 N656 2.022 . S
Co647 N664 1.993 . S
Co647 O672 1.941 . S
C648 O649 1.258 . S
C648 O650 1.263 . S
O649 Co646 1.970 1_554 S
O649 C648 1.258 . S
O650 Co647 1.966 . S
O650 C648 1.263 . S
C651 O652 1.235 . S
C651 O678 1.289 . S
O652 C651 1.235 . S
C653 C655 1.400 . S
C653 N656 1.351 . S
C653 C658 1.501 . S
C654 C655 1.387 . S
C654 N657 1.341 . S
C655 C653 1.400 . S
C655 C654 1.387 . S
N656 Co647 2.022 . S
N656 C653 1.351 . S
N656 N657 1.365 . S
N657 C654 1.341 . S
N657 N656 1.365 . S
N657 H677 0.862 . S
C658 C653 1.501 . S
C658 H659 0.961 . S
C658 H660 0.961 . S
C658 H661 0.960 . S
H659 C658 0.961 . S
H660 C658 0.961 . S
H661 C658 0.960 . S
C662 N663 1.342 . S
C662 C666 1.401 . S
C662 C667 1.499 1_554 S
N663 Co646 1.989 1_554 S
N663 C662 1.342 . S
N663 N664 1.388 . S
N664 Co647 1.993 . S
N664 N663 1.388 . S
N664 C665 1.346 . S
C665 N664 1.346 . S
C665 C666 1.396 . S
C665 C675 1.510 . S
C666 C662 1.401 . S
C666 C665 1.396 . S
C667 C662 1.499 1_556 S
C667 H668 0.959 . S
C667 H669 0.960 . S
C667 H670 0.961 . S
H668 C667 0.959 . S
H669 C667 0.960 . S
H670 C667 0.961 . S
O671 Co646 1.967 1_554 S
O671 C679 1.258 . S
O672 Co647 1.941 . S
O672 C679 1.266 . S
H673 C675 0.959 . S
H674 C675 0.961 . S
C675 C665 1.510 . S
C675 H673 0.959 . S
C675 H674 0.961 . S
C675 H676 0.960 . S
H676 C675 0.960 . S
H677 N657 0.862 . S
O678 Co646 1.920 . S
O678 C651 1.289 . S
C679 O671 1.258 . S
C679 O672 1.266 . S
Co680 O683 1.970 1_556 S
Co680 N697 1.989 1_556 S
Co680 O705 1.967 1_556 S
Co680 O712 1.920 . S
Co681 O684 1.966 . S
Co681 N690 2.022 . S
Co681 N698 1.993 . S
Co681 O706 1.941 . S
C682 O683 1.258 . S
C682 O684 1.263 . S
O683 Co680 1.970 1_554 S
O683 C682 1.258 . S
O684 Co681 1.966 . S
O684 C682 1.263 . S
C685 O686 1.235 . S
C685 O712 1.289 . S
O686 C685 1.235 . S
C687 C689 1.400 . S
C687 N690 1.351 . S
C687 C692 1.501 . S
C688 C689 1.387 . S
C688 N691 1.341 . S
C689 C687 1.400 . S
C689 C688 1.387 . S
N690 Co681 2.022 . S
N690 C687 1.351 . S
N690 N691 1.365 . S
N691 C688 1.341 . S
N691 N690 1.365 . S
N691 H711 0.862 . S
C692 C687 1.501 . S
C692 H693 0.961 . S
C692 H694 0.961 . S
C692 H695 0.960 . S
H693 C692 0.961 . S
H694 C692 0.961 . S
H695 C692 0.960 . S
C696 N697 1.342 . S
C696 C700 1.401 . S
C696 C701 1.499 1_554 S
N697 Co680 1.989 1_554 S
N697 C696 1.342 . S
N697 N698 1.388 . S
N698 Co681 1.993 . S
N698 N697 1.388 . S
N698 C699 1.346 . S
C699 N698 1.346 . S
C699 C700 1.396 . S
C699 C709 1.510 . S
C700 C696 1.401 . S
C700 C699 1.396 . S
C701 C696 1.499 1_556 S
C701 H702 0.959 . S
C701 H703 0.960 . S
C701 H704 0.961 . S
H702 C701 0.959 . S
H703 C701 0.960 . S
H704 C701 0.961 . S
O705 Co680 1.967 1_554 S
O705 C713 1.258 . S
O706 Co681 1.941 . S
O706 C713 1.266 . S
H707 C709 0.959 . S
H708 C709 0.961 . S
C709 C699 1.510 . S
C709 H707 0.959 . S
C709 H708 0.961 . S
C709 H710 0.960 . S
H710 C709 0.960 . S
H711 N691 0.862 . S
O712 Co680 1.920 . S
O712 C685 1.289 . S
C713 O705 1.258 . S
C713 O706 1.266 . S
Co714 O717 1.970 . S
Co714 N731 1.989 . S
Co714 O739 1.967 . S
Co714 O746 1.920 . S
Co715 O718 1.966 . S
Co715 N724 2.022 . S
Co715 N732 1.993 . S
Co715 O740 1.941 . S
C716 O717 1.258 . S
C716 O718 1.263 . S
O717 Co714 1.970 . S
O717 C716 1.258 . S
O718 Co715 1.966 . S
O718 C716 1.263 . S
C719 O720 1.235 . S
C719 O746 1.289 . S
O720 C719 1.235 . S
C721 C723 1.400 . S
C721 N724 1.351 . S
C721 C726 1.501 . S
C722 C723 1.387 . S
C722 N725 1.341 . S
C723 C721 1.400 . S
C723 C722 1.387 . S
N724 Co715 2.022 . S
N724 C721 1.351 . S
N724 N725 1.365 . S
N725 C722 1.341 . S
N725 N724 1.365 . S
N725 H745 0.862 . S
C726 C721 1.501 . S
C726 H727 0.961 . S
C726 H728 0.961 . S
C726 H729 0.960 . S
H727 C726 0.961 . S
H728 C726 0.961 . S
H729 C726 0.960 . S
C730 N731 1.342 . S
C730 C734 1.401 . S
C730 C735 1.499 . S
N731 Co714 1.989 . S
N731 C730 1.342 . S
N731 N732 1.388 . S
N732 Co715 1.993 . S
N732 N731 1.388 . S
N732 C733 1.346 . S
C733 N732 1.346 . S
C733 C734 1.396 . S
C733 C743 1.510 . S
C734 C730 1.401 . S
C734 C733 1.396 . S
C735 C730 1.499 . S
C735 H736 0.959 . S
C735 H737 0.960 . S
C735 H738 0.961 . S
H736 C735 0.959 . S
H737 C735 0.960 . S
H738 C735 0.961 . S
O739 Co714 1.967 . S
O739 C747 1.258 . S
O740 Co715 1.941 . S
O740 C747 1.266 . S
H741 C743 0.959 . S
H742 C743 0.961 . S
C743 C733 1.510 . S
C743 H741 0.959 . S
C743 H742 0.961 . S
C743 H744 0.960 . S
H744 C743 0.960 . S
H745 N725 0.862 . S
O746 Co714 1.920 . S
O746 C719 1.289 . S
C747 O739 1.258 . S
C747 O740 1.266 . S
Co748 O751 1.970 . S
Co748 N765 1.989 . S
Co748 O773 1.967 . S
Co748 O780 1.920 . S
Co749 O752 1.966 . S
Co749 N758 2.022 . S
Co749 N766 1.993 . S
Co749 O774 1.941 . S
C750 O751 1.258 . S
C750 O752 1.263 . S
O751 Co748 1.970 . S
O751 C750 1.258 . S
O752 Co749 1.966 . S
O752 C750 1.263 . S
C753 O754 1.235 . S
C753 O780 1.289 . S
O754 C753 1.235 . S
C755 C757 1.400 . S
C755 N758 1.351 . S
C755 C760 1.501 . S
C756 C757 1.387 . S
C756 N759 1.341 . S
C757 C755 1.400 . S
C757 C756 1.387 . S
N758 Co749 2.022 . S
N758 C755 1.351 . S
N758 N759 1.365 . S
N759 C756 1.341 . S
N759 N758 1.365 . S
N759 H779 0.862 . S
C760 C755 1.501 . S
C760 H761 0.961 . S
C760 H762 0.961 . S
C760 H763 0.960 . S
H761 C760 0.961 . S
H762 C760 0.961 . S
H763 C760 0.960 . S
C764 N765 1.342 . S
C764 C768 1.401 . S
C764 C769 1.499 . S
N765 Co748 1.989 . S
N765 C764 1.342 . S
N765 N766 1.388 . S
N766 Co749 1.993 . S
N766 N765 1.388 . S
N766 C767 1.346 . S
C767 N766 1.346 . S
C767 C768 1.396 . S
C767 C777 1.510 . S
C768 C764 1.401 . S
C768 C767 1.396 . S
C769 C764 1.499 . S
C769 H770 0.959 . S
C769 H771 0.960 . S
C769 H772 0.961 . S
H770 C769 0.959 . S
H771 C769 0.960 . S
H772 C769 0.961 . S
O773 Co748 1.967 . S
O773 C781 1.258 . S
O774 Co749 1.941 . S
O774 C781 1.266 . S
H775 C777 0.959 . S
H776 C777 0.961 . S
C777 C767 1.510 . S
C777 H775 0.959 . S
C777 H776 0.961 . S
C777 H778 0.960 . S
H778 C777 0.960 . S
H779 N759 0.862 . S
O780 Co748 1.920 . S
O780 C753 1.289 . S
C781 O773 1.258 . S
C781 O774 1.266 . S
Co782 O785 1.970 . S
Co782 N799 1.989 . S
Co782 O807 1.967 . S
Co782 O814 1.920 . S
Co783 O786 1.966 . S
Co783 N792 2.022 . S
Co783 N800 1.993 . S
Co783 O808 1.941 . S
C784 O785 1.258 . S
C784 O786 1.263 . S
O785 Co782 1.970 . S
O785 C784 1.258 . S
O786 Co783 1.966 . S
O786 C784 1.263 . S
C787 O788 1.235 . S
C787 O814 1.289 . S
O788 C787 1.235 . S
C789 C791 1.400 . S
C789 N792 1.351 . S
C789 C794 1.501 . S
C790 C791 1.387 . S
C790 N793 1.341 . S
C791 C789 1.400 . S
C791 C790 1.387 . S
N792 Co783 2.022 . S
N792 C789 1.351 . S
N792 N793 1.365 . S
N793 C790 1.341 . S
N793 N792 1.365 . S
N793 H813 0.862 . S
C794 C789 1.501 . S
C794 H795 0.961 . S
C794 H796 0.961 . S
C794 H797 0.960 . S
H795 C794 0.961 . S
H796 C794 0.961 . S
H797 C794 0.960 . S
C798 N799 1.342 . S
C798 C802 1.401 . S
C798 C803 1.499 . S
N799 Co782 1.989 . S
N799 C798 1.342 . S
N799 N800 1.388 . S
N800 Co783 1.993 . S
N800 N799 1.388 . S
N800 C801 1.346 . S
C801 N800 1.346 . S
C801 C802 1.396 . S
C801 C811 1.510 . S
C802 C798 1.401 . S
C802 C801 1.396 . S
C803 C798 1.499 . S
C803 H804 0.959 . S
C803 H805 0.960 . S
C803 H806 0.961 . S
H804 C803 0.959 . S
H805 C803 0.960 . S
H806 C803 0.961 . S
O807 Co782 1.967 . S
O807 C815 1.258 . S
O808 Co783 1.941 . S
O808 C815 1.266 . S
H809 C811 0.959 . S
H810 C811 0.961 . S
C811 C801 1.510 . S
C811 H809 0.959 . S
C811 H810 0.961 . S
C811 H812 0.960 . S
H812 C811 0.960 . S
H813 N793 0.862 . S
O814 Co782 1.920 . S
O814 C787 1.289 . S
C815 O807 1.258 . S
C815 O808 1.266 . S
Co816 O819 1.970 1_554 S
Co816 N833 1.989 1_554 S
Co816 O841 1.967 1_554 S
Co816 O848 1.920 . S
Co817 O820 1.966 . S
Co817 N826 2.022 . S
Co817 N834 1.993 . S
Co817 O842 1.941 . S
C818 O819 1.258 . S
C818 O820 1.263 . S
O819 Co816 1.970 1_556 S
O819 C818 1.258 . S
O820 Co817 1.966 . S
O820 C818 1.263 . S
C821 O822 1.235 . S
C821 O848 1.289 . S
O822 C821 1.235 . S
C823 C825 1.400 . S
C823 N826 1.351 . S
C823 C828 1.501 . S
C824 C825 1.387 . S
C824 N827 1.341 . S
C825 C823 1.400 . S
C825 C824 1.387 . S
N826 Co817 2.022 . S
N826 C823 1.351 . S
N826 N827 1.365 . S
N827 C824 1.341 . S
N827 N826 1.365 . S
N827 H847 0.862 . S
C828 C823 1.501 . S
C828 H829 0.961 . S
C828 H830 0.961 . S
C828 H831 0.960 . S
H829 C828 0.961 . S
H830 C828 0.961 . S
H831 C828 0.960 . S
C832 N833 1.342 . S
C832 C836 1.401 . S
C832 C837 1.499 1_556 S
N833 Co816 1.989 1_556 S
N833 C832 1.342 . S
N833 N834 1.388 . S
N834 Co817 1.993 . S
N834 N833 1.388 . S
N834 C835 1.346 . S
C835 N834 1.346 . S
C835 C836 1.396 . S
C835 C845 1.510 . S
C836 C832 1.401 . S
C836 C835 1.396 . S
C837 C832 1.499 1_554 S
C837 H838 0.959 . S
C837 H839 0.960 . S
C837 H840 0.961 . S
H838 C837 0.959 . S
H839 C837 0.960 . S
H840 C837 0.961 . S
O841 Co816 1.967 1_556 S
O841 C849 1.258 . S
O842 Co817 1.941 . S
O842 C849 1.266 . S
H843 C845 0.959 . S
H844 C845 0.961 . S
C845 C835 1.510 . S
C845 H843 0.959 . S
C845 H844 0.961 . S
C845 H846 0.960 . S
H846 C845 0.960 . S
H847 N827 0.862 . S
O848 Co816 1.920 . S
O848 C821 1.289 . S
C849 O841 1.258 . S
C849 O842 1.266 . S
Co850 O853 1.970 1_554 S
Co850 N867 1.989 1_554 S
Co850 O875 1.967 1_554 S
Co850 O882 1.920 . S
Co851 O854 1.966 . S
Co851 N860 2.022 . S
Co851 N868 1.993 . S
Co851 O876 1.941 . S
C852 O853 1.258 . S
C852 O854 1.263 . S
O853 Co850 1.970 1_556 S
O853 C852 1.258 . S
O854 Co851 1.966 . S
O854 C852 1.263 . S
C855 O856 1.235 . S
C855 O882 1.289 . S
O856 C855 1.235 . S
C857 C859 1.400 . S
C857 N860 1.351 . S
C857 C862 1.501 . S
C858 C859 1.387 . S
C858 N861 1.341 . S
C859 C857 1.400 . S
C859 C858 1.387 . S
N860 Co851 2.022 . S
N860 C857 1.351 . S
N860 N861 1.365 . S
N861 C858 1.341 . S
N861 N860 1.365 . S
N861 H881 0.862 . S
C862 C857 1.501 . S
C862 H863 0.961 . S
C862 H864 0.961 . S
C862 H865 0.960 . S
H863 C862 0.961 . S
H864 C862 0.961 . S
H865 C862 0.960 . S
C866 N867 1.342 . S
C866 C870 1.401 . S
C866 C871 1.499 1_556 S
N867 Co850 1.989 1_556 S
N867 C866 1.342 . S
N867 N868 1.388 . S
N868 Co851 1.993 . S
N868 N867 1.388 . S
N868 C869 1.346 . S
C869 N868 1.346 . S
C869 C870 1.396 . S
C869 C879 1.510 . S
C870 C866 1.401 . S
C870 C869 1.396 . S
C871 C866 1.499 1_554 S
C871 H872 0.959 . S
C871 H873 0.960 . S
C871 H874 0.961 . S
H872 C871 0.959 . S
H873 C871 0.960 . S
H874 C871 0.961 . S
O875 Co850 1.967 1_556 S
O875 C883 1.258 . S
O876 Co851 1.941 . S
O876 C883 1.266 . S
H877 C879 0.959 . S
H878 C879 0.961 . S
C879 C869 1.510 . S
C879 H877 0.959 . S
C879 H878 0.961 . S
C879 H880 0.960 . S
H880 C879 0.960 . S
H881 N861 0.862 . S
O882 Co850 1.920 . S
O882 C855 1.289 . S
C883 O875 1.258 . S
C883 O876 1.266 . S
Co884 O887 1.970 1_554 S
Co884 N901 1.989 1_554 S
Co884 O909 1.967 1_554 S
Co884 O916 1.920 . S
Co885 O888 1.966 . S
Co885 N894 2.022 . S
Co885 N902 1.993 . S
Co885 O910 1.941 . S
C886 O887 1.258 . S
C886 O888 1.263 . S
O887 Co884 1.970 1_556 S
O887 C886 1.258 . S
O888 Co885 1.966 . S
O888 C886 1.263 . S
C889 O890 1.235 . S
C889 O916 1.289 . S
O890 C889 1.235 . S
C891 C893 1.400 . S
C891 N894 1.351 . S
C891 C896 1.501 . S
C892 C893 1.387 . S
C892 N895 1.341 . S
C893 C891 1.400 . S
C893 C892 1.387 . S
N894 Co885 2.022 . S
N894 C891 1.351 . S
N894 N895 1.365 . S
N895 C892 1.341 . S
N895 N894 1.365 . S
N895 H915 0.862 . S
C896 C891 1.501 . S
C896 H897 0.961 . S
C896 H898 0.961 . S
C896 H899 0.960 . S
H897 C896 0.961 . S
H898 C896 0.961 . S
H899 C896 0.960 . S
C900 N901 1.342 . S
C900 C904 1.401 . S
C900 C905 1.499 1_556 S
N901 Co884 1.989 1_556 S
N901 C900 1.342 . S
N901 N902 1.388 . S
N902 Co885 1.993 . S
N902 N901 1.388 . S
N902 C903 1.346 . S
C903 N902 1.346 . S
C903 C904 1.396 . S
C903 C913 1.510 . S
C904 C900 1.401 . S
C904 C903 1.396 . S
C905 C900 1.499 1_554 S
C905 H906 0.959 . S
C905 H907 0.960 . S
C905 H908 0.961 . S
H906 C905 0.959 . S
H907 C905 0.960 . S
H908 C905 0.961 . S
O909 Co884 1.967 1_556 S
O909 C917 1.258 . S
O910 Co885 1.941 . S
O910 C917 1.266 . S
H911 C913 0.959 . S
H912 C913 0.961 . S
C913 C903 1.510 . S
C913 H911 0.959 . S
C913 H912 0.961 . S
C913 H914 0.960 . S
H914 C913 0.960 . S
H915 N895 0.862 . S
O916 Co884 1.920 . S
O916 C889 1.289 . S
C917 O909 1.258 . S
C917 O910 1.266 . S
Co918 O921 1.970 . S
Co918 N935 1.989 . S
Co918 O943 1.967 . S
Co918 O950 1.920 . S
Co919 O922 1.966 . S
Co919 N928 2.022 . S
Co919 N936 1.993 . S
Co919 O944 1.941 . S
C920 O921 1.258 . S
C920 O922 1.263 . S
O921 Co918 1.970 . S
O921 C920 1.258 . S
O922 Co919 1.966 . S
O922 C920 1.263 . S
C923 O924 1.235 . S
C923 O950 1.289 . S
O924 C923 1.235 . S
C925 C927 1.400 . S
C925 N928 1.351 . S
C925 C930 1.501 . S
C926 C927 1.387 . S
C926 N929 1.341 . S
C927 C925 1.400 . S
C927 C926 1.387 . S
N928 Co919 2.022 . S
N928 C925 1.351 . S
N928 N929 1.365 . S
N929 C926 1.341 . S
N929 N928 1.365 . S
N929 H949 0.862 . S
C930 C925 1.501 . S
C930 H931 0.961 . S
C930 H932 0.961 . S
C930 H933 0.960 . S
H931 C930 0.961 . S
H932 C930 0.961 . S
H933 C930 0.960 . S
C934 N935 1.342 . S
C934 C938 1.401 . S
C934 C939 1.499 . S
N935 Co918 1.989 . S
N935 C934 1.342 . S
N935 N936 1.388 . S
N936 Co919 1.993 . S
N936 N935 1.388 . S
N936 C937 1.346 . S
C937 N936 1.346 . S
C937 C938 1.396 . S
C937 C947 1.510 . S
C938 C934 1.401 . S
C938 C937 1.396 . S
C939 C934 1.499 . S
C939 H940 0.959 . S
C939 H941 0.960 . S
C939 H942 0.961 . S
H940 C939 0.959 . S
H941 C939 0.960 . S
H942 C939 0.961 . S
O943 Co918 1.967 . S
O943 C951 1.258 . S
O944 Co919 1.941 . S
O944 C951 1.266 . S
H945 C947 0.959 . S
H946 C947 0.961 . S
C947 C937 1.510 . S
C947 H945 0.959 . S
C947 H946 0.961 . S
C947 H948 0.960 . S
H948 C947 0.960 . S
H949 N929 0.862 . S
O950 Co918 1.920 . S
O950 C923 1.289 . S
C951 O943 1.258 . S
C951 O944 1.266 . S
Co952 O955 1.970 . S
Co952 N969 1.989 . S
Co952 O977 1.967 . S
Co952 O984 1.920 . S
Co953 O956 1.966 . S
Co953 N962 2.022 . S
Co953 N970 1.993 . S
Co953 O978 1.941 . S
C954 O955 1.258 . S
C954 O956 1.263 . S
O955 Co952 1.970 . S
O955 C954 1.258 . S
O956 Co953 1.966 . S
O956 C954 1.263 . S
C957 O958 1.235 . S
C957 O984 1.289 . S
O958 C957 1.235 . S
C959 C961 1.400 . S
C959 N962 1.351 . S
C959 C964 1.501 . S
C960 C961 1.387 . S
C960 N963 1.341 . S
C961 C959 1.400 . S
C961 C960 1.387 . S
N962 Co953 2.022 . S
N962 C959 1.351 . S
N962 N963 1.365 . S
N963 C960 1.341 . S
N963 N962 1.365 . S
N963 H983 0.862 . S
C964 C959 1.501 . S
C964 H965 0.961 . S
C964 H966 0.961 . S
C964 H967 0.960 . S
H965 C964 0.961 . S
H966 C964 0.961 . S
H967 C964 0.960 . S
C968 N969 1.342 . S
C968 C972 1.401 . S
C968 C973 1.499 . S
N969 Co952 1.989 . S
N969 C968 1.342 . S
N969 N970 1.388 . S
N970 Co953 1.993 . S
N970 N969 1.388 . S
N970 C971 1.346 . S
C971 N970 1.346 . S
C971 C972 1.396 . S
C971 C981 1.510 . S
C972 C968 1.401 . S
C972 C971 1.396 . S
C973 C968 1.499 . S
C973 H974 0.959 . S
C973 H975 0.960 . S
C973 H976 0.961 . S
H974 C973 0.959 . S
H975 C973 0.960 . S
H976 C973 0.961 . S
O977 Co952 1.967 . S
O977 C985 1.258 . S
O978 Co953 1.941 . S
O978 C985 1.266 . S
H979 C981 0.959 . S
H980 C981 0.961 . S
C981 C971 1.510 . S
C981 H979 0.959 . S
C981 H980 0.961 . S
C981 H982 0.960 . S
H982 C981 0.960 . S
H983 N963 0.862 . S
O984 Co952 1.920 . S
O984 C957 1.289 . S
C985 O977 1.258 . S
C985 O978 1.266 . S
Co986 O989 1.970 . S
Co986 N1003 1.989 . S
Co986 O1011 1.967 . S
Co986 O1018 1.920 . S
Co987 O990 1.966 . S
Co987 N996 2.022 . S
Co987 N1004 1.993 . S
Co987 O1012 1.941 . S
C988 O989 1.258 . S
C988 O990 1.263 . S
O989 Co986 1.970 . S
O989 C988 1.258 . S
O990 Co987 1.966 . S
O990 C988 1.263 . S
C991 O992 1.235 . S
C991 O1018 1.289 . S
O992 C991 1.235 . S
C993 C995 1.400 . S
C993 N996 1.351 . S
C993 C998 1.501 . S
C994 C995 1.387 . S
C994 N997 1.341 . S
C995 C993 1.400 . S
C995 C994 1.387 . S
N996 Co987 2.022 . S
N996 C993 1.351 . S
N996 N997 1.365 . S
N997 C994 1.341 . S
N997 N996 1.365 . S
N997 H1017 0.862 . S
C998 C993 1.501 . S
C998 H999 0.961 . S
C998 H1000 0.961 . S
C998 H1001 0.960 . S
H999 C998 0.961 . S
H1000 C998 0.961 . S
H1001 C998 0.960 . S
C1002 N1003 1.342 . S
C1002 C1006 1.401 . S
C1002 C1007 1.499 . S
N1003 Co986 1.989 . S
N1003 C1002 1.342 . S
N1003 N1004 1.388 . S
N1004 Co987 1.993 . S
N1004 N1003 1.388 . S
N1004 C1005 1.346 . S
C1005 N1004 1.346 . S
C1005 C1006 1.396 . S
C1005 C1015 1.510 . S
C1006 C1002 1.401 . S
C1006 C1005 1.396 . S
C1007 C1002 1.499 . S
C1007 H1008 0.959 . S
C1007 H1009 0.960 . S
C1007 H1010 0.961 . S
H1008 C1007 0.959 . S
H1009 C1007 0.960 . S
H1010 C1007 0.961 . S
O1011 Co986 1.967 . S
O1011 C1019 1.258 . S
O1012 Co987 1.941 . S
O1012 C1019 1.266 . S
H1013 C1015 0.959 . S
H1014 C1015 0.961 . S
C1015 C1005 1.510 . S
C1015 H1013 0.959 . S
C1015 H1014 0.961 . S
C1015 H1016 0.960 . S
H1016 C1015 0.960 . S
H1017 N997 0.862 . S
O1018 Co986 1.920 . S
O1018 C991 1.289 . S
C1019 O1011 1.258 . S
C1019 O1012 1.266 . S
Co1020 O1023 1.970 . S
Co1020 N1037 1.989 . S
Co1020 O1045 1.967 . S
Co1020 O1052 1.920 . S
Co1021 O1024 1.966 . S
Co1021 N1030 2.022 . S
Co1021 N1038 1.993 . S
Co1021 O1046 1.941 . S
C1022 O1023 1.258 . S
C1022 O1024 1.263 . S
O1023 Co1020 1.970 . S
O1023 C1022 1.258 . S
O1024 Co1021 1.966 . S
O1024 C1022 1.263 . S
C1025 O1026 1.235 . S
C1025 O1052 1.289 . S
O1026 C1025 1.235 . S
C1027 C1029 1.400 . S
C1027 N1030 1.351 . S
C1027 C1032 1.501 . S
C1028 C1029 1.387 . S
C1028 N1031 1.341 . S
C1029 C1027 1.400 . S
C1029 C1028 1.387 . S
N1030 Co1021 2.022 . S
N1030 C1027 1.351 . S
N1030 N1031 1.365 . S
N1031 C1028 1.341 . S
N1031 N1030 1.365 . S
N1031 H1051 0.862 . S
C1032 C1027 1.501 . S
C1032 H1033 0.961 . S
C1032 H1034 0.961 . S
C1032 H1035 0.960 . S
H1033 C1032 0.961 . S
H1034 C1032 0.961 . S
H1035 C1032 0.960 . S
C1036 N1037 1.342 . S
C1036 C1040 1.401 . S
C1036 C1041 1.499 . S
N1037 Co1020 1.989 . S
N1037 C1036 1.342 . S
N1037 N1038 1.388 . S
N1038 Co1021 1.993 . S
N1038 N1037 1.388 . S
N1038 C1039 1.346 . S
C1039 N1038 1.346 . S
C1039 C1040 1.396 . S
C1039 C1049 1.510 . S
C1040 C1036 1.401 . S
C1040 C1039 1.396 . S
C1041 C1036 1.499 . S
C1041 H1042 0.959 . S
C1041 H1043 0.960 . S
C1041 H1044 0.961 . S
H1042 C1041 0.959 . S
H1043 C1041 0.960 . S
H1044 C1041 0.961 . S
O1045 Co1020 1.967 . S
O1045 C1053 1.258 . S
O1046 Co1021 1.941 . S
O1046 C1053 1.266 . S
H1047 C1049 0.959 . S
H1048 C1049 0.961 . S
C1049 C1039 1.510 . S
C1049 H1047 0.959 . S
C1049 H1048 0.961 . S
C1049 H1050 0.960 . S
H1050 C1049 0.960 . S
H1051 N1031 0.862 . S
O1052 Co1020 1.920 . S
O1052 C1025 1.289 . S
C1053 O1045 1.258 . S
C1053 O1046 1.266 . S
Co1054 O1057 1.970 . S
Co1054 N1071 1.989 . S
Co1054 O1079 1.967 . S
Co1054 O1086 1.920 . S
Co1055 O1058 1.966 . S
Co1055 N1064 2.022 . S
Co1055 N1072 1.993 . S
Co1055 O1080 1.941 . S
C1056 O1057 1.258 . S
C1056 O1058 1.263 . S
O1057 Co1054 1.970 . S
O1057 C1056 1.258 . S
O1058 Co1055 1.966 . S
O1058 C1056 1.263 . S
C1059 O1060 1.235 . S
C1059 O1086 1.289 . S
O1060 C1059 1.235 . S
C1061 C1063 1.400 . S
C1061 N1064 1.351 . S
C1061 C1066 1.501 . S
C1062 C1063 1.387 . S
C1062 N1065 1.341 . S
C1063 C1061 1.400 . S
C1063 C1062 1.387 . S
N1064 Co1055 2.022 . S
N1064 C1061 1.351 . S
N1064 N1065 1.365 . S
N1065 C1062 1.341 . S
N1065 N1064 1.365 . S
N1065 H1085 0.862 . S
C1066 C1061 1.501 . S
C1066 H1067 0.961 . S
C1066 H1068 0.961 . S
C1066 H1069 0.960 . S
H1067 C1066 0.961 . S
H1068 C1066 0.961 . S
H1069 C1066 0.960 . S
C1070 N1071 1.342 . S
C1070 C1074 1.401 . S
C1070 C1075 1.499 . S
N1071 Co1054 1.989 . S
N1071 C1070 1.342 . S
N1071 N1072 1.388 . S
N1072 Co1055 1.993 . S
N1072 N1071 1.388 . S
N1072 C1073 1.346 . S
C1073 N1072 1.346 . S
C1073 C1074 1.396 . S
C1073 C1083 1.510 . S
C1074 C1070 1.401 . S
C1074 C1073 1.396 . S
C1075 C1070 1.499 . S
C1075 H1076 0.959 . S
C1075 H1077 0.960 . S
C1075 H1078 0.961 . S
H1076 C1075 0.959 . S
H1077 C1075 0.960 . S
H1078 C1075 0.961 . S
O1079 Co1054 1.967 . S
O1079 C1087 1.258 . S
O1080 Co1055 1.941 . S
O1080 C1087 1.266 . S
H1081 C1083 0.959 . S
H1082 C1083 0.961 . S
C1083 C1073 1.510 . S
C1083 H1081 0.959 . S
C1083 H1082 0.961 . S
C1083 H1084 0.960 . S
H1084 C1083 0.960 . S
H1085 N1065 0.862 . S
O1086 Co1054 1.920 . S
O1086 C1059 1.289 . S
C1087 O1079 1.258 . S
C1087 O1080 1.266 . S
Co1088 O1091 1.970 . S
Co1088 N1105 1.989 . S
Co1088 O1113 1.967 . S
Co1088 O1120 1.920 . S
Co1089 O1092 1.966 . S
Co1089 N1098 2.022 . S
Co1089 N1106 1.993 . S
Co1089 O1114 1.941 . S
C1090 O1091 1.258 . S
C1090 O1092 1.263 . S
O1091 Co1088 1.970 . S
O1091 C1090 1.258 . S
O1092 Co1089 1.966 . S
O1092 C1090 1.263 . S
C1093 O1094 1.235 . S
C1093 O1120 1.289 . S
O1094 C1093 1.235 . S
C1095 C1097 1.400 . S
C1095 N1098 1.351 . S
C1095 C1100 1.501 . S
C1096 C1097 1.387 . S
C1096 N1099 1.341 . S
C1097 C1095 1.400 . S
C1097 C1096 1.387 . S
N1098 Co1089 2.022 . S
N1098 C1095 1.351 . S
N1098 N1099 1.365 . S
N1099 C1096 1.341 . S
N1099 N1098 1.365 . S
N1099 H1119 0.862 . S
C1100 C1095 1.501 . S
C1100 H1101 0.961 . S
C1100 H1102 0.961 . S
C1100 H1103 0.960 . S
H1101 C1100 0.961 . S
H1102 C1100 0.961 . S
H1103 C1100 0.960 . S
C1104 N1105 1.342 . S
C1104 C1108 1.401 . S
C1104 C1109 1.499 . S
N1105 Co1088 1.989 . S
N1105 C1104 1.342 . S
N1105 N1106 1.388 . S
N1106 Co1089 1.993 . S
N1106 N1105 1.388 . S
N1106 C1107 1.346 . S
C1107 N1106 1.346 . S
C1107 C1108 1.396 . S
C1107 C1117 1.510 . S
C1108 C1104 1.401 . S
C1108 C1107 1.396 . S
C1109 C1104 1.499 . S
C1109 H1110 0.959 . S
C1109 H1111 0.960 . S
C1109 H1112 0.961 . S
H1110 C1109 0.959 . S
H1111 C1109 0.960 . S
H1112 C1109 0.961 . S
O1113 Co1088 1.967 . S
O1113 C1121 1.258 . S
O1114 Co1089 1.941 . S
O1114 C1121 1.266 . S
H1115 C1117 0.959 . S
H1116 C1117 0.961 . S
C1117 C1107 1.510 . S
C1117 H1115 0.959 . S
C1117 H1116 0.961 . S
C1117 H1118 0.960 . S
H1118 C1117 0.960 . S
H1119 N1099 0.862 . S
O1120 Co1088 1.920 . S
O1120 C1093 1.289 . S
C1121 O1113 1.258 . S
C1121 O1114 1.266 . S
Co1122 O1125 1.970 1_554 S
Co1122 N1139 1.989 1_554 S
Co1122 O1147 1.967 1_554 S
Co1122 O1154 1.920 . S
Co1123 O1126 1.966 . S
Co1123 N1132 2.022 . S
Co1123 N1140 1.993 . S
Co1123 O1148 1.941 . S
C1124 O1125 1.258 . S
C1124 O1126 1.263 . S
O1125 Co1122 1.970 1_556 S
O1125 C1124 1.258 . S
O1126 Co1123 1.966 . S
O1126 C1124 1.263 . S
C1127 O1128 1.235 . S
C1127 O1154 1.289 . S
O1128 C1127 1.235 . S
C1129 C1131 1.400 . S
C1129 N1132 1.351 . S
C1129 C1134 1.501 . S
C1130 C1131 1.387 . S
C1130 N1133 1.341 . S
C1131 C1129 1.400 . S
C1131 C1130 1.387 . S
N1132 Co1123 2.022 . S
N1132 C1129 1.351 . S
N1132 N1133 1.365 . S
N1133 C1130 1.341 . S
N1133 N1132 1.365 . S
N1133 H1153 0.862 . S
C1134 C1129 1.501 . S
C1134 H1135 0.961 . S
C1134 H1136 0.961 . S
C1134 H1137 0.960 . S
H1135 C1134 0.961 . S
H1136 C1134 0.961 . S
H1137 C1134 0.960 . S
C1138 N1139 1.342 . S
C1138 C1142 1.401 . S
C1138 C1143 1.499 1_556 S
N1139 Co1122 1.989 1_556 S
N1139 C1138 1.342 . S
N1139 N1140 1.388 . S
N1140 Co1123 1.993 . S
N1140 N1139 1.388 . S
N1140 C1141 1.346 . S
C1141 N1140 1.346 . S
C1141 C1142 1.396 . S
C1141 C1151 1.510 . S
C1142 C1138 1.401 . S
C1142 C1141 1.396 . S
C1143 C1138 1.499 1_554 S
C1143 H1144 0.959 . S
C1143 H1145 0.960 . S
C1143 H1146 0.961 . S
H1144 C1143 0.959 . S
H1145 C1143 0.960 . S
H1146 C1143 0.961 . S
O1147 Co1122 1.967 1_556 S
O1147 C1155 1.258 . S
O1148 Co1123 1.941 . S
O1148 C1155 1.266 . S
H1149 C1151 0.959 . S
H1150 C1151 0.961 . S
C1151 C1141 1.510 . S
C1151 H1149 0.959 . S
C1151 H1150 0.961 . S
C1151 H1152 0.960 . S
H1152 C1151 0.960 . S
H1153 N1133 0.862 . S
O1154 Co1122 1.920 . S
O1154 C1127 1.289 . S
C1155 O1147 1.258 . S
C1155 O1148 1.266 . S
Co1156 O1159 1.970 1_554 S
Co1156 N1173 1.989 1_554 S
Co1156 O1181 1.967 1_554 S
Co1156 O1188 1.920 . S
Co1157 O1160 1.966 . S
Co1157 N1166 2.022 . S
Co1157 N1174 1.993 . S
Co1157 O1182 1.941 . S
C1158 O1159 1.258 . S
C1158 O1160 1.263 . S
O1159 Co1156 1.970 1_556 S
O1159 C1158 1.258 . S
O1160 Co1157 1.966 . S
O1160 C1158 1.263 . S
C1161 O1162 1.235 . S
C1161 O1188 1.289 . S
O1162 C1161 1.235 . S
C1163 C1165 1.400 . S
C1163 N1166 1.351 . S
C1163 C1168 1.501 . S
C1164 C1165 1.387 . S
C1164 N1167 1.341 . S
C1165 C1163 1.400 . S
C1165 C1164 1.387 . S
N1166 Co1157 2.022 . S
N1166 C1163 1.351 . S
N1166 N1167 1.365 . S
N1167 C1164 1.341 . S
N1167 N1166 1.365 . S
N1167 H1187 0.862 . S
C1168 C1163 1.501 . S
C1168 H1169 0.961 . S
C1168 H1170 0.961 . S
C1168 H1171 0.960 . S
H1169 C1168 0.961 . S
H1170 C1168 0.961 . S
H1171 C1168 0.960 . S
C1172 N1173 1.342 . S
C1172 C1176 1.401 . S
C1172 C1177 1.499 1_556 S
N1173 Co1156 1.989 1_556 S
N1173 C1172 1.342 . S
N1173 N1174 1.388 . S
N1174 Co1157 1.993 . S
N1174 N1173 1.388 . S
N1174 C1175 1.346 . S
C1175 N1174 1.346 . S
C1175 C1176 1.396 . S
C1175 C1185 1.510 . S
C1176 C1172 1.401 . S
C1176 C1175 1.396 . S
C1177 C1172 1.499 1_554 S
C1177 H1178 0.959 . S
C1177 H1179 0.960 . S
C1177 H1180 0.961 . S
H1178 C1177 0.959 . S
H1179 C1177 0.960 . S
H1180 C1177 0.961 . S
O1181 Co1156 1.967 1_556 S
O1181 C1189 1.258 . S
O1182 Co1157 1.941 . S
O1182 C1189 1.266 . S
H1183 C1185 0.959 . S
H1184 C1185 0.961 . S
C1185 C1175 1.510 . S
C1185 H1183 0.959 . S
C1185 H1184 0.961 . S
C1185 H1186 0.960 . S
H1186 C1185 0.960 . S
H1187 N1167 0.862 . S
O1188 Co1156 1.920 . S
O1188 C1161 1.289 . S
C1189 O1181 1.258 . S
C1189 O1182 1.266 . S
Co1190 O1193 1.970 1_554 S
Co1190 N1207 1.989 1_554 S
Co1190 O1215 1.967 1_554 S
Co1190 O1222 1.920 . S
Co1191 O1194 1.966 . S
Co1191 N1200 2.022 . S
Co1191 N1208 1.993 . S
Co1191 O1216 1.941 . S
C1192 O1193 1.258 . S
C1192 O1194 1.263 . S
O1193 Co1190 1.970 1_556 S
O1193 C1192 1.258 . S
O1194 Co1191 1.966 . S
O1194 C1192 1.263 . S
C1195 O1196 1.235 . S
C1195 O1222 1.289 . S
O1196 C1195 1.235 . S
C1197 C1199 1.400 . S
C1197 N1200 1.351 . S
C1197 C1202 1.501 . S
C1198 C1199 1.387 . S
C1198 N1201 1.341 . S
C1199 C1197 1.400 . S
C1199 C1198 1.387 . S
N1200 Co1191 2.022 . S
N1200 C1197 1.351 . S
N1200 N1201 1.365 . S
N1201 C1198 1.341 . S
N1201 N1200 1.365 . S
N1201 H1221 0.862 . S
C1202 C1197 1.501 . S
C1202 H1203 0.961 . S
C1202 H1204 0.961 . S
C1202 H1205 0.960 . S
H1203 C1202 0.961 . S
H1204 C1202 0.961 . S
H1205 C1202 0.960 . S
C1206 N1207 1.342 . S
C1206 C1210 1.401 . S
C1206 C1211 1.499 1_556 S
N1207 Co1190 1.989 1_556 S
N1207 C1206 1.342 . S
N1207 N1208 1.388 . S
N1208 Co1191 1.993 . S
N1208 N1207 1.388 . S
N1208 C1209 1.346 . S
C1209 N1208 1.346 . S
C1209 C1210 1.396 . S
C1209 C1219 1.510 . S
C1210 C1206 1.401 . S
C1210 C1209 1.396 . S
C1211 C1206 1.499 1_554 S
C1211 H1212 0.959 . S
C1211 H1213 0.960 . S
C1211 H1214 0.961 . S
H1212 C1211 0.959 . S
H1213 C1211 0.960 . S
H1214 C1211 0.961 . S
O1215 Co1190 1.967 1_556 S
O1215 C1223 1.258 . S
O1216 Co1191 1.941 . S
O1216 C1223 1.266 . S
H1217 C1219 0.959 . S
H1218 C1219 0.961 . S
C1219 C1209 1.510 . S
C1219 H1217 0.959 . S
C1219 H1218 0.961 . S
C1219 H1220 0.960 . S
H1220 C1219 0.960 . S
H1221 N1201 0.862 . S
O1222 Co1190 1.920 . S
O1222 C1195 1.289 . S
C1223 O1215 1.258 . S
C1223 O1216 1.266 . S
C1224 C1225 1.363 . S
C1224 C1230 1.379 . S
C1224 N1232 1.356 . S
C1225 C1224 1.363 . S
C1225 C1231 1.363 . S
C1226 C1227 1.363 . S
C1226 C1231 1.379 . S
C1226 N1233 1.356 . S
C1227 C1226 1.363 . S
C1227 C1230 1.363 . S
N1228 C1230 1.356 . S
N1228 H1240 0.984 . S
N1228 H1241 0.985 . S
N1229 C1231 1.356 . S
N1229 H1234 0.984 . S
N1229 H1235 0.985 . S
C1230 C1224 1.379 . S
C1230 C1227 1.363 . S
C1230 N1228 1.356 . S
C1231 C1225 1.363 . S
C1231 C1226 1.379 . S
C1231 N1229 1.356 . S
N1232 C1224 1.356 . S
N1232 H1238 0.984 . S
N1232 H1239 0.984 . S
N1233 C1226 1.356 . S
N1233 H1236 0.984 . S
N1233 H1237 0.985 . S
H1234 N1229 0.984 . S
H1235 N1229 0.985 . S
H1236 N1233 0.984 . S
H1237 N1233 0.985 . S
H1238 N1232 0.984 . S
H1239 N1232 0.984 . S
H1240 N1228 0.984 . S
H1241 N1228 0.985 . S
C1242 C1243 1.363 . S
C1242 C1248 1.379 . S
C1242 N1250 1.356 . S
C1243 C1242 1.363 . S
C1243 C1249 1.363 . S
C1244 C1245 1.363 . S
C1244 C1249 1.379 . S
C1244 N1251 1.356 . S
C1245 C1244 1.363 . S
C1245 C1248 1.363 . S
N1246 C1248 1.356 . S
N1246 H1258 0.984 . S
N1246 H1259 0.985 . S
N1247 C1249 1.356 . S
N1247 H1252 0.984 . S
N1247 H1253 0.985 . S
C1248 C1242 1.379 . S
C1248 C1245 1.363 . S
C1248 N1246 1.356 . S
C1249 C1243 1.363 . S
C1249 C1244 1.379 . S
C1249 N1247 1.356 . S
N1250 C1242 1.356 . S
N1250 H1256 0.984 . S
N1250 H1257 0.984 . S
N1251 C1244 1.356 . S
N1251 H1254 0.984 . S
N1251 H1255 0.985 . S
H1252 N1247 0.984 . S
H1253 N1247 0.985 . S
H1254 N1251 0.984 . S
H1255 N1251 0.985 . S
H1256 N1250 0.984 . S
H1257 N1250 0.984 . S
H1258 N1246 0.984 . S
H1259 N1246 0.985 . S
C1260 C1261 1.363 . S
C1260 C1266 1.379 . S
C1260 N1268 1.356 . S
C1261 C1260 1.363 . S
C1261 C1267 1.363 . S
C1262 C1263 1.363 . S
C1262 C1267 1.379 . S
C1262 N1269 1.356 . S
C1263 C1262 1.363 . S
C1263 C1266 1.363 . S
N1264 C1266 1.356 . S
N1264 H1276 0.984 . S
N1264 H1277 0.985 . S
N1265 C1267 1.356 . S
N1265 H1270 0.984 . S
N1265 H1271 0.985 . S
C1266 C1260 1.379 . S
C1266 C1263 1.363 . S
C1266 N1264 1.356 . S
C1267 C1261 1.363 . S
C1267 C1262 1.379 . S
C1267 N1265 1.356 . S
N1268 C1260 1.356 . S
N1268 H1274 0.984 . S
N1268 H1275 0.984 . S
N1269 C1262 1.356 . S
N1269 H1272 0.984 . S
N1269 H1273 0.985 . S
H1270 N1265 0.984 . S
H1271 N1265 0.985 . S
H1272 N1269 0.984 . S
H1273 N1269 0.985 . S
H1274 N1268 0.984 . S
H1275 N1268 0.984 . S
H1276 N1264 0.984 . S
H1277 N1264 0.985 . S
C1278 C1279 1.363 . S
C1278 C1284 1.379 . S
C1278 N1286 1.356 . S
C1279 C1278 1.363 . S
C1279 C1285 1.363 . S
C1280 C1281 1.363 . S
C1280 C1285 1.379 . S
C1280 N1287 1.356 . S
C1281 C1280 1.363 . S
C1281 C1284 1.363 . S
N1282 C1284 1.356 . S
N1282 H1294 0.984 . S
N1282 H1295 0.985 . S
N1283 C1285 1.356 . S
N1283 H1288 0.984 . S
N1283 H1289 0.985 1_556 S
C1284 C1278 1.379 . S
C1284 C1281 1.363 . S
C1284 N1282 1.356 . S
C1285 C1279 1.363 . S
C1285 C1280 1.379 . S
C1285 N1283 1.356 . S
N1286 C1278 1.356 . S
N1286 H1292 0.984 . S
N1286 H1293 0.984 . S
N1287 C1280 1.356 . S
N1287 H1290 0.984 . S
N1287 H1291 0.985 . S
H1288 N1283 0.984 . S
H1289 N1283 0.985 1_554 S
H1290 N1287 0.984 . S
H1291 N1287 0.985 . S
H1292 N1286 0.984 . S
H1293 N1286 0.984 . S
H1294 N1282 0.984 . S
H1295 N1282 0.985 . S
C1296 C1297 1.363 . S
C1296 C1302 1.379 . S
C1296 N1304 1.356 . S
C1297 C1296 1.363 . S
C1297 C1303 1.363 . S
C1298 C1299 1.363 . S
C1298 C1303 1.379 . S
C1298 N1305 1.356 . S
C1299 C1298 1.363 . S
C1299 C1302 1.363 . S
N1300 C1302 1.356 . S
N1300 H1312 0.984 . S
N1300 H1313 0.985 . S
N1301 C1303 1.356 . S
N1301 H1306 0.984 . S
N1301 H1307 0.985 . S
C1302 C1296 1.379 . S
C1302 C1299 1.363 . S
C1302 N1300 1.356 . S
C1303 C1297 1.363 . S
C1303 C1298 1.379 . S
C1303 N1301 1.356 . S
N1304 C1296 1.356 . S
N1304 H1310 0.984 . S
N1304 H1311 0.984 . S
N1305 C1298 1.356 . S
N1305 H1308 0.984 . S
N1305 H1309 0.985 1_556 S
H1306 N1301 0.984 . S
H1307 N1301 0.985 . S
H1308 N1305 0.984 . S
H1309 N1305 0.985 1_554 S
H1310 N1304 0.984 . S
H1311 N1304 0.984 . S
H1312 N1300 0.984 . S
H1313 N1300 0.985 . S
C1314 C1315 1.363 . S
C1314 C1320 1.379 . S
C1314 N1322 1.356 . S
C1315 C1314 1.363 . S
C1315 C1321 1.363 . S
C1316 C1317 1.363 . S
C1316 C1321 1.379 . S
C1316 N1323 1.356 . S
C1317 C1316 1.363 . S
C1317 C1320 1.363 . S
N1318 C1320 1.356 . S
N1318 H1330 0.984 . S
N1318 H1331 0.985 . S
N1319 C1321 1.356 . S
N1319 H1324 0.984 . S
N1319 H1325 0.985 . S
C1320 C1314 1.379 . S
C1320 C1317 1.363 . S
C1320 N1318 1.356 . S
C1321 C1315 1.363 . S
C1321 C1316 1.379 . S
C1321 N1319 1.356 . S
N1322 C1314 1.356 . S
N1322 H1328 0.984 . S
N1322 H1329 0.984 . S
N1323 C1316 1.356 . S
N1323 H1326 0.984 . S
N1323 H1327 0.985 . S
H1324 N1319 0.984 . S
H1325 N1319 0.985 . S
H1326 N1323 0.984 . S
H1327 N1323 0.985 . S
H1328 N1322 0.984 . S
H1329 N1322 0.984 . S
H1330 N1318 0.984 . S
H1331 N1318 0.985 . S
C1332 C1333 1.363 . S
C1332 C1338 1.379 . S
C1332 N1340 1.356 . S
C1333 C1332 1.363 . S
C1333 C1339 1.363 . S
C1334 C1335 1.363 . S
C1334 C1339 1.379 . S
C1334 N1341 1.356 . S
C1335 C1334 1.363 . S
C1335 C1338 1.363 . S
N1336 C1338 1.356 . S
N1336 H1348 0.984 . S
N1336 H1349 0.985 . S
N1337 C1339 1.356 . S
N1337 H1342 0.984 . S
N1337 H1343 0.985 1_556 S
C1338 C1332 1.379 . S
C1338 C1335 1.363 . S
C1338 N1336 1.356 . S
C1339 C1333 1.363 . S
C1339 C1334 1.379 . S
C1339 N1337 1.356 . S
N1340 C1332 1.356 . S
N1340 H1346 0.984 . S
N1340 H1347 0.984 . S
N1341 C1334 1.356 . S
N1341 H1344 0.984 . S
N1341 H1345 0.985 . S
H1342 N1337 0.984 . S
H1343 N1337 0.985 1_554 S
H1344 N1341 0.984 . S
H1345 N1341 0.985 . S
H1346 N1340 0.984 . S
H1347 N1340 0.984 . S
H1348 N1336 0.984 . S
H1349 N1336 0.985 . S
C1350 C1351 1.363 . S
C1350 C1356 1.379 . S
C1350 N1358 1.356 . S
C1351 C1350 1.363 . S
C1351 C1357 1.363 . S
C1352 C1353 1.363 . S
C1352 C1357 1.379 . S
C1352 N1359 1.356 . S
C1353 C1352 1.363 . S
C1353 C1356 1.363 . S
N1354 C1356 1.356 . S
N1354 H1366 0.984 1_556 S
N1354 H1367 0.985 . S
N1355 C1357 1.356 . S
N1355 H1360 0.984 . S
N1355 H1361 0.985 . S
C1356 C1350 1.379 . S
C1356 C1353 1.363 . S
C1356 N1354 1.356 . S
C1357 C1351 1.363 . S
C1357 C1352 1.379 . S
C1357 N1355 1.356 . S
N1358 C1350 1.356 . S
N1358 H1364 0.984 . S
N1358 H1365 0.984 . S
N1359 C1352 1.356 . S
N1359 H1362 0.984 . S
N1359 H1363 0.985 . S
H1360 N1355 0.984 . S
H1361 N1355 0.985 . S
H1362 N1359 0.984 . S
H1363 N1359 0.985 . S
H1364 N1358 0.984 . S
H1365 N1358 0.984 . S
H1366 N1354 0.984 1_554 S
H1367 N1354 0.985 . S
C1368 C1369 1.363 . S
C1368 C1374 1.379 . S
C1368 N1376 1.356 . S
C1369 C1368 1.363 . S
C1369 C1375 1.363 . S
C1370 C1371 1.363 . S
C1370 C1375 1.379 . S
C1370 N1377 1.356 . S
C1371 C1370 1.363 . S
C1371 C1374 1.363 . S
N1372 C1374 1.356 . S
N1372 H1384 0.984 . S
N1372 H1385 0.985 . S
N1373 C1375 1.356 . S
N1373 H1378 0.984 . S
N1373 H1379 0.985 1_556 S
C1374 C1368 1.379 . S
C1374 C1371 1.363 . S
C1374 N1372 1.356 . S
C1375 C1369 1.363 . S
C1375 C1370 1.379 . S
C1375 N1373 1.356 . S
N1376 C1368 1.356 . S
N1376 H1382 0.984 . S
N1376 H1383 0.984 . S
N1377 C1370 1.356 . S
N1377 H1380 0.984 . S
N1377 H1381 0.985 . S
H1378 N1373 0.984 . S
H1379 N1373 0.985 1_554 S
H1380 N1377 0.984 . S
H1381 N1377 0.985 . S
H1382 N1376 0.984 . S
H1383 N1376 0.984 . S
H1384 N1372 0.984 . S
H1385 N1372 0.985 . S
C1386 C1387 1.363 . S
C1386 C1392 1.379 . S
C1386 N1394 1.356 . S
C1387 C1386 1.363 . S
C1387 C1393 1.363 . S
C1388 C1389 1.363 . S
C1388 C1393 1.379 . S
C1388 N1395 1.356 . S
C1389 C1388 1.363 . S
C1389 C1392 1.363 . S
N1390 C1392 1.356 . S
N1390 H1402 0.984 . S
N1390 H1403 0.985 . S
N1391 C1393 1.356 . S
N1391 H1396 0.984 . S
N1391 H1397 0.985 . S
C1392 C1386 1.379 . S
C1392 C1389 1.363 . S
C1392 N1390 1.356 . S
C1393 C1387 1.363 . S
C1393 C1388 1.379 . S
C1393 N1391 1.356 . S
N1394 C1386 1.356 . S
N1394 H1400 0.984 . S
N1394 H1401 0.984 . S
N1395 C1388 1.356 . S
N1395 H1398 0.984 . S
N1395 H1399 0.985 . S
H1396 N1391 0.984 . S
H1397 N1391 0.985 . S
H1398 N1395 0.984 . S
H1399 N1395 0.985 . S
H1400 N1394 0.984 . S
H1401 N1394 0.984 . S
H1402 N1390 0.984 . S
H1403 N1390 0.985 . S
C1404 C1405 1.363 . S
C1404 C1410 1.379 . S
C1404 N1412 1.356 . S
C1405 C1404 1.363 . S
C1405 C1411 1.363 . S
C1406 C1407 1.363 . S
C1406 C1411 1.379 . S
C1406 N1413 1.356 . S
C1407 C1406 1.363 . S
C1407 C1410 1.363 . S
N1408 C1410 1.356 . S
N1408 H1420 0.984 . S
N1408 H1421 0.985 . S
N1409 C1411 1.356 . S
N1409 H1414 0.984 . S
N1409 H1415 0.985 1_554 S
C1410 C1404 1.379 . S
C1410 C1407 1.363 . S
C1410 N1408 1.356 . S
C1411 C1405 1.363 . S
C1411 C1406 1.379 . S
C1411 N1409 1.356 . S
N1412 C1404 1.356 . S
N1412 H1418 0.984 . S
N1412 H1419 0.984 . S
N1413 C1406 1.356 . S
N1413 H1416 0.984 . S
N1413 H1417 0.985 . S
H1414 N1409 0.984 . S
H1415 N1409 0.985 1_556 S
H1416 N1413 0.984 . S
H1417 N1413 0.985 . S
H1418 N1412 0.984 . S
H1419 N1412 0.984 . S
H1420 N1408 0.984 . S
H1421 N1408 0.985 . S
C1422 C1423 1.363 . S
C1422 C1428 1.379 . S
C1422 N1430 1.356 . S
C1423 C1422 1.363 . S
C1423 C1429 1.363 . S
C1424 C1425 1.363 . S
C1424 C1429 1.379 . S
C1424 N1431 1.356 . S
C1425 C1424 1.363 . S
C1425 C1428 1.363 . S
N1426 C1428 1.356 . S
N1426 H1438 0.984 . S
N1426 H1439 0.985 . S
N1427 C1429 1.356 . S
N1427 H1432 0.984 . S
N1427 H1433 0.985 . S
C1428 C1422 1.379 . S
C1428 C1425 1.363 . S
C1428 N1426 1.356 . S
C1429 C1423 1.363 . S
C1429 C1424 1.379 . S
C1429 N1427 1.356 . S
N1430 C1422 1.356 . S
N1430 H1436 0.984 1_554 S
N1430 H1437 0.984 . S
N1431 C1424 1.356 . S
N1431 H1434 0.984 . S
N1431 H1435 0.985 . S
H1432 N1427 0.984 . S
H1433 N1427 0.985 . S
H1434 N1431 0.984 . S
H1435 N1431 0.985 . S
H1436 N1430 0.984 1_556 S
H1437 N1430 0.984 . S
H1438 N1426 0.984 . S
H1439 N1426 0.985 . S
C1440 C1441 1.363 . S
C1440 C1446 1.379 . S
C1440 N1448 1.356 . S
C1441 C1440 1.363 . S
C1441 C1447 1.363 . S
C1442 C1443 1.363 . S
C1442 C1447 1.379 . S
C1442 N1449 1.356 . S
C1443 C1442 1.363 . S
C1443 C1446 1.363 . S
N1444 C1446 1.356 . S
N1444 H1456 0.984 . S
N1444 H1457 0.985 . S
N1445 C1447 1.356 . S
N1445 H1450 0.984 . S
N1445 H1451 0.985 . S
C1446 C1440 1.379 . S
C1446 C1443 1.363 . S
C1446 N1444 1.356 . S
C1447 C1441 1.363 . S
C1447 C1442 1.379 . S
C1447 N1445 1.356 . S
N1448 C1440 1.356 . S
N1448 H1454 0.984 . S
N1448 H1455 0.984 . S
N1449 C1442 1.356 . S
N1449 H1452 0.984 . S
N1449 H1453 0.985 . S
H1450 N1445 0.984 . S
H1451 N1445 0.985 . S
H1452 N1449 0.984 . S
H1453 N1449 0.985 . S
H1454 N1448 0.984 . S
H1455 N1448 0.984 . S
H1456 N1444 0.984 . S
H1457 N1444 0.985 . S
C1458 C1459 1.363 . S
C1458 C1464 1.379 1_565 S
C1458 N1466 1.356 . S
C1459 C1458 1.363 . S
C1459 C1465 1.363 . S
C1460 C1461 1.363 . S
C1460 C1465 1.379 1_545 S
C1460 N1467 1.356 . S
C1461 C1460 1.363 . S
C1461 C1464 1.363 . S
N1462 C1464 1.356 . S
N1462 H1474 0.984 . S
N1462 H1475 0.985 . S
N1463 C1465 1.356 . S
N1463 H1468 0.984 . S
N1463 H1469 0.985 . S
C1464 C1458 1.379 1_545 S
C1464 C1461 1.363 . S
C1464 N1462 1.356 . S
C1465 C1459 1.363 . S
C1465 C1460 1.379 1_565 S
C1465 N1463 1.356 . S
N1466 C1458 1.356 . S
N1466 H1472 0.984 . S
N1466 H1473 0.984 . S
N1467 C1460 1.356 . S
N1467 H1470 0.984 . S
N1467 H1471 0.985 . S
H1468 N1463 0.984 . S
H1469 N1463 0.985 . S
H1470 N1467 0.984 . S
H1471 N1467 0.985 . S
H1472 N1466 0.984 . S
H1473 N1466 0.984 . S
H1474 N1462 0.984 . S
H1475 N1462 0.985 . S
C1476 C1477 1.363 . S
C1476 C1482 1.379 1_655 S
C1476 N1484 1.356 . S
C1477 C1476 1.363 . S
C1477 C1483 1.363 . S
C1478 C1479 1.363 . S
C1478 C1483 1.379 1_455 S
C1478 N1485 1.356 . S
C1479 C1478 1.363 . S
C1479 C1482 1.363 . S
N1480 C1482 1.356 . S
N1480 H1492 0.984 . S
N1480 H1493 0.985 . S
N1481 C1483 1.356 . S
N1481 H1486 0.984 . S
N1481 H1487 0.985 . S
C1482 C1476 1.379 1_455 S
C1482 C1479 1.363 . S
C1482 N1480 1.356 . S
C1483 C1477 1.363 . S
C1483 C1478 1.379 1_655 S
C1483 N1481 1.356 . S
N1484 C1476 1.356 . S
N1484 H1490 0.984 . S
N1484 H1491 0.984 . S
N1485 C1478 1.356 . S
N1485 H1488 0.984 . S
N1485 H1489 0.985 . S
H1486 N1481 0.984 . S
H1487 N1481 0.985 . S
H1488 N1485 0.984 . S
H1489 N1485 0.985 . S
H1490 N1484 0.984 . S
H1491 N1484 0.984 . S
H1492 N1480 0.984 . S
H1493 N1480 0.985 . S
C1494 C1495 1.363 . S
C1494 C1500 1.379 . S
C1494 N1502 1.356 . S
C1495 C1494 1.363 . S
C1495 C1501 1.363 . S
C1496 C1497 1.363 . S
C1496 C1501 1.379 . S
C1496 N1503 1.356 . S
C1497 C1496 1.363 . S
C1497 C1500 1.363 . S
N1498 C1500 1.356 . S
N1498 H1510 0.984 . S
N1498 H1511 0.985 . S
N1499 C1501 1.356 . S
N1499 H1504 0.984 . S
N1499 H1505 0.985 . S
C1500 C1494 1.379 . S
C1500 C1497 1.363 . S
C1500 N1498 1.356 . S
C1501 C1495 1.363 . S
C1501 C1496 1.379 . S
C1501 N1499 1.356 . S
N1502 C1494 1.356 . S
N1502 H1508 0.984 . S
N1502 H1509 0.984 . S
N1503 C1496 1.356 . S
N1503 H1506 0.984 . S
N1503 H1507 0.985 . S
H1504 N1499 0.984 . S
H1505 N1499 0.985 . S
H1506 N1503 0.984 . S
H1507 N1503 0.985 . S
H1508 N1502 0.984 . S
H1509 N1502 0.984 . S
H1510 N1498 0.984 . S
H1511 N1498 0.985 . S
C1512 C1513 1.363 . S
C1512 C1518 1.379 1_565 S
C1512 N1520 1.356 . S
C1513 C1512 1.363 . S
C1513 C1519 1.363 . S
C1514 C1515 1.363 . S
C1514 C1519 1.379 1_545 S
C1514 N1521 1.356 . S
C1515 C1514 1.363 . S
C1515 C1518 1.363 . S
N1516 C1518 1.356 . S
N1516 H1528 0.984 . S
N1516 H1529 0.985 . S
N1517 C1519 1.356 . S
N1517 H1522 0.984 . S
N1517 H1523 0.985 . S
C1518 C1512 1.379 1_545 S
C1518 C1515 1.363 . S
C1518 N1516 1.356 . S
C1519 C1513 1.363 . S
C1519 C1514 1.379 1_565 S
C1519 N1517 1.356 . S
N1520 C1512 1.356 . S
N1520 H1526 0.984 . S
N1520 H1527 0.984 . S
N1521 C1514 1.356 . S
N1521 H1524 0.984 . S
N1521 H1525 0.985 . S
H1522 N1517 0.984 . S
H1523 N1517 0.985 . S
H1524 N1521 0.984 . S
H1525 N1521 0.985 . S
H1526 N1520 0.984 . S
H1527 N1520 0.984 . S
H1528 N1516 0.984 . S
H1529 N1516 0.985 . S
C1530 C1531 1.363 . S
C1530 C1536 1.379 1_655 S
C1530 N1538 1.356 . S
C1531 C1530 1.363 . S
C1531 C1537 1.363 . S
C1532 C1533 1.363 . S
C1532 C1537 1.379 1_455 S
C1532 N1539 1.356 . S
C1533 C1532 1.363 . S
C1533 C1536 1.363 . S
N1534 C1536 1.356 . S
N1534 H1546 0.984 . S
N1534 H1547 0.985 . S
N1535 C1537 1.356 . S
N1535 H1540 0.984 . S
N1535 H1541 0.985 . S
C1536 C1530 1.379 1_455 S
C1536 C1533 1.363 . S
C1536 N1534 1.356 . S
C1537 C1531 1.363 . S
C1537 C1532 1.379 1_655 S
C1537 N1535 1.356 . S
N1538 C1530 1.356 . S
N1538 H1544 0.984 . S
N1538 H1545 0.984 . S
N1539 C1532 1.356 . S
N1539 H1542 0.984 . S
N1539 H1543 0.985 . S
H1540 N1535 0.984 . S
H1541 N1535 0.985 . S
H1542 N1539 0.984 . S
H1543 N1539 0.985 . S
H1544 N1538 0.984 . S
H1545 N1538 0.984 . S
H1546 N1534 0.984 . S
H1547 N1534 0.985 . S
C1548 C1549 1.363 . S
C1548 C1554 1.379 . S
C1548 N1556 1.356 . S
C1549 C1548 1.363 . S
C1549 C1555 1.363 . S
C1550 C1551 1.363 . S
C1550 C1555 1.379 . S
C1550 N1557 1.356 . S
C1551 C1550 1.363 . S
C1551 C1554 1.363 . S
N1552 C1554 1.356 . S
N1552 H1564 0.984 . S
N1552 H1565 0.985 . S
N1553 C1555 1.356 . S
N1553 H1558 0.984 . S
N1553 H1559 0.985 . S
C1554 C1548 1.379 . S
C1554 C1551 1.363 . S
C1554 N1552 1.356 . S
C1555 C1549 1.363 . S
C1555 C1550 1.379 . S
C1555 N1553 1.356 . S
N1556 C1548 1.356 . S
N1556 H1562 0.984 . S
N1556 H1563 0.984 . S
N1557 C1550 1.356 . S
N1557 H1560 0.984 . S
N1557 H1561 0.985 . S
H1558 N1553 0.984 . S
H1559 N1553 0.985 . S
H1560 N1557 0.984 . S
H1561 N1557 0.985 . S
H1562 N1556 0.984 . S
H1563 N1556 0.984 . S
H1564 N1552 0.984 . S
H1565 N1552 0.985 . S
C1566 C1567 1.363 . S
C1566 C1572 1.379 . S
C1566 N1574 1.356 . S
C1567 C1566 1.363 . S
C1567 C1573 1.363 . S
C1568 C1569 1.363 . S
C1568 C1573 1.379 . S
C1568 N1575 1.356 . S
C1569 C1568 1.363 . S
C1569 C1572 1.363 . S
N1570 C1572 1.356 . S
N1570 H1582 0.984 . S
N1570 H1583 0.985 . S
N1571 C1573 1.356 . S
N1571 H1576 0.984 . S
N1571 H1577 0.985 . S
C1572 C1566 1.379 . S
C1572 C1569 1.363 . S
C1572 N1570 1.356 . S
C1573 C1567 1.363 . S
C1573 C1568 1.379 . S
C1573 N1571 1.356 . S
N1574 C1566 1.356 . S
N1574 H1580 0.984 . S
N1574 H1581 0.984 . S
N1575 C1568 1.356 . S
N1575 H1578 0.984 . S
N1575 H1579 0.985 . S
H1576 N1571 0.984 . S
H1577 N1571 0.985 . S
H1578 N1575 0.984 . S
H1579 N1575 0.985 . S
H1580 N1574 0.984 . S
H1581 N1574 0.984 . S
H1582 N1570 0.984 . S
H1583 N1570 0.985 . S
C1584 C1585 1.363 . S
C1584 C1590 1.379 . S
C1584 N1592 1.356 . S
C1585 C1584 1.363 . S
C1585 C1591 1.363 . S
C1586 C1587 1.363 . S
C1586 C1591 1.379 . S
C1586 N1593 1.356 . S
C1587 C1586 1.363 . S
C1587 C1590 1.363 . S
N1588 C1590 1.356 . S
N1588 H1600 0.984 . S
N1588 H1601 0.985 . S
N1589 C1591 1.356 . S
N1589 H1594 0.984 . S
N1589 H1595 0.985 . S
C1590 C1584 1.379 . S
C1590 C1587 1.363 . S
C1590 N1588 1.356 . S
C1591 C1585 1.363 . S
C1591 C1586 1.379 . S
C1591 N1589 1.356 . S
N1592 C1584 1.356 . S
N1592 H1598 0.984 . S
N1592 H1599 0.984 . S
N1593 C1586 1.356 . S
N1593 H1596 0.984 . S
N1593 H1597 0.985 . S
H1594 N1589 0.984 . S
H1595 N1589 0.985 . S
H1596 N1593 0.984 . S
H1597 N1593 0.985 . S
H1598 N1592 0.984 . S
H1599 N1592 0.984 . S
H1600 N1588 0.984 . S
H1601 N1588 0.985 . S
C1602 C1603 1.363 . S
C1602 C1608 1.379 . S
C1602 N1610 1.356 . S
C1603 C1602 1.363 . S
C1603 C1609 1.363 . S
C1604 C1605 1.363 . S
C1604 C1609 1.379 . S
C1604 N1611 1.356 . S
C1605 C1604 1.363 . S
C1605 C1608 1.363 . S
N1606 C1608 1.356 . S
N1606 H1618 0.984 . S
N1606 H1619 0.985 . S
N1607 C1609 1.356 . S
N1607 H1612 0.984 . S
N1607 H1613 0.985 . S
C1608 C1602 1.379 . S
C1608 C1605 1.363 . S
C1608 N1606 1.356 . S
C1609 C1603 1.363 . S
C1609 C1604 1.379 . S
C1609 N1607 1.356 . S
N1610 C1602 1.356 . S
N1610 H1616 0.984 . S
N1610 H1617 0.984 . S
N1611 C1604 1.356 . S
N1611 H1614 0.984 . S
N1611 H1615 0.985 . S
H1612 N1607 0.984 . S
H1613 N1607 0.985 . S
H1614 N1611 0.984 . S
H1615 N1611 0.985 . S
H1616 N1610 0.984 . S
H1617 N1610 0.984 . S
H1618 N1606 0.984 . S
H1619 N1606 0.985 . S
C1620 C1621 1.363 . S
C1620 C1626 1.379 . S
C1620 N1628 1.356 . S
C1621 C1620 1.363 . S
C1621 C1627 1.363 . S
C1622 C1623 1.363 . S
C1622 C1627 1.379 . S
C1622 N1629 1.356 . S
C1623 C1622 1.363 . S
C1623 C1626 1.363 . S
N1624 C1626 1.356 . S
N1624 H1636 0.984 . S
N1624 H1637 0.985 . S
N1625 C1627 1.356 . S
N1625 H1630 0.984 . S
N1625 H1631 0.985 . S
C1626 C1620 1.379 . S
C1626 C1623 1.363 . S
C1626 N1624 1.356 . S
C1627 C1621 1.363 . S
C1627 C1622 1.379 . S
C1627 N1625 1.356 . S
N1628 C1620 1.356 . S
N1628 H1634 0.984 . S
N1628 H1635 0.984 . S
N1629 C1622 1.356 . S
N1629 H1632 0.984 . S
N1629 H1633 0.985 . S
H1630 N1625 0.984 . S
H1631 N1625 0.985 . S
H1632 N1629 0.984 . S
H1633 N1629 0.985 . S
H1634 N1628 0.984 . S
H1635 N1628 0.984 . S
H1636 N1624 0.984 . S
H1637 N1624 0.985 . S
C1638 C1639 1.363 . S
C1638 C1644 1.379 . S
C1638 N1646 1.356 . S
C1639 C1638 1.363 . S
C1639 C1645 1.363 . S
C1640 C1641 1.363 . S
C1640 C1645 1.379 . S
C1640 N1647 1.356 . S
C1641 C1640 1.363 . S
C1641 C1644 1.363 . S
N1642 C1644 1.356 . S
N1642 H1654 0.984 . S
N1642 H1655 0.985 . S
N1643 C1645 1.356 . S
N1643 H1648 0.984 . S
N1643 H1649 0.985 . S
C1644 C1638 1.379 . S
C1644 C1641 1.363 . S
C1644 N1642 1.356 . S
C1645 C1639 1.363 . S
C1645 C1640 1.379 . S
C1645 N1643 1.356 . S
N1646 C1638 1.356 . S
N1646 H1652 0.984 . S
N1646 H1653 0.984 . S
N1647 C1640 1.356 . S
N1647 H1650 0.984 . S
N1647 H1651 0.985 . S
H1648 N1643 0.984 . S
H1649 N1643 0.985 . S
H1650 N1647 0.984 . S
H1651 N1647 0.985 . S
H1652 N1646 0.984 . S
H1653 N1646 0.984 . S
H1654 N1642 0.984 . S
H1655 N1642 0.985 . S
C1656 C1657 1.363 . S
C1656 C1662 1.379 . S
C1656 N1664 1.356 . S
C1657 C1656 1.363 . S
C1657 C1663 1.363 . S
C1658 C1659 1.363 . S
C1658 C1663 1.379 . S
C1658 N1665 1.356 . S
C1659 C1658 1.363 . S
C1659 C1662 1.363 . S
N1660 C1662 1.356 . S
N1660 H1672 0.984 . S
N1660 H1673 0.985 . S
N1661 C1663 1.356 . S
N1661 H1666 0.984 . S
N1661 H1667 0.985 . S
C1662 C1656 1.379 . S
C1662 C1659 1.363 . S
C1662 N1660 1.356 . S
C1663 C1657 1.363 . S
C1663 C1658 1.379 . S
C1663 N1661 1.356 . S
N1664 C1656 1.356 . S
N1664 H1670 0.984 . S
N1664 H1671 0.984 . S
N1665 C1658 1.356 . S
N1665 H1668 0.984 . S
N1665 H1669 0.985 . S
H1666 N1661 0.984 . S
H1667 N1661 0.985 . S
H1668 N1665 0.984 . S
H1669 N1665 0.985 . S
H1670 N1664 0.984 . S
H1671 N1664 0.984 . S
H1672 N1660 0.984 . S
H1673 N1660 0.985 . S
C1674 C1675 1.363 . S
C1674 C1680 1.379 . S
C1674 N1682 1.356 . S
C1675 C1674 1.363 . S
C1675 C1681 1.363 . S
C1676 C1677 1.363 . S
C1676 C1681 1.379 . S
C1676 N1683 1.356 . S
C1677 C1676 1.363 . S
C1677 C1680 1.363 . S
N1678 C1680 1.356 . S
N1678 H1690 0.984 . S
N1678 H1691 0.985 . S
N1679 C1681 1.356 . S
N1679 H1684 0.984 . S
N1679 H1685 0.985 . S
C1680 C1674 1.379 . S
C1680 C1677 1.363 . S
C1680 N1678 1.356 . S
C1681 C1675 1.363 . S
C1681 C1676 1.379 . S
C1681 N1679 1.356 . S
N1682 C1674 1.356 . S
N1682 H1688 0.984 . S
N1682 H1689 0.984 . S
N1683 C1676 1.356 . S
N1683 H1686 0.984 . S
N1683 H1687 0.985 . S
H1684 N1679 0.984 . S
H1685 N1679 0.985 . S
H1686 N1683 0.984 . S
H1687 N1683 0.985 . S
H1688 N1682 0.984 . S
H1689 N1682 0.984 . S
H1690 N1678 0.984 . S
H1691 N1678 0.985 . S
C1692 C1693 1.363 . S
C1692 C1698 1.379 . S
C1692 N1700 1.356 . S
C1693 C1692 1.363 . S
C1693 C1699 1.363 . S
C1694 C1695 1.363 . S
C1694 C1699 1.379 . S
C1694 N1701 1.356 . S
C1695 C1694 1.363 . S
C1695 C1698 1.363 . S
N1696 C1698 1.356 . S
N1696 H1708 0.984 . S
N1696 H1709 0.985 . S
N1697 C1699 1.356 . S
N1697 H1702 0.984 . S
N1697 H1703 0.985 . S
C1698 C1692 1.379 . S
C1698 C1695 1.363 . S
C1698 N1696 1.356 . S
C1699 C1693 1.363 . S
C1699 C1694 1.379 . S
C1699 N1697 1.356 . S
N1700 C1692 1.356 . S
N1700 H1706 0.984 . S
N1700 H1707 0.984 . S
N1701 C1694 1.356 . S
N1701 H1704 0.984 . S
N1701 H1705 0.985 . S
H1702 N1697 0.984 . S
H1703 N1697 0.985 . S
H1704 N1701 0.984 . S
H1705 N1701 0.985 . S
H1706 N1700 0.984 . S
H1707 N1700 0.984 . S
H1708 N1696 0.984 . S
H1709 N1696 0.985 . S
C1710 C1711 1.363 . S
C1710 C1716 1.379 . S
C1710 N1718 1.356 . S
C1711 C1710 1.363 . S
C1711 C1717 1.363 . S
C1712 C1713 1.363 . S
C1712 C1717 1.379 . S
C1712 N1719 1.356 . S
C1713 C1712 1.363 . S
C1713 C1716 1.363 . S
N1714 C1716 1.356 . S
N1714 H1726 0.984 . S
N1714 H1727 0.985 . S
N1715 C1717 1.356 . S
N1715 H1720 0.984 . S
N1715 H1721 0.985 . S
C1716 C1710 1.379 . S
C1716 C1713 1.363 . S
C1716 N1714 1.356 . S
C1717 C1711 1.363 . S
C1717 C1712 1.379 . S
C1717 N1715 1.356 . S
N1718 C1710 1.356 . S
N1718 H1724 0.984 . S
N1718 H1725 0.984 . S
N1719 C1712 1.356 . S
N1719 H1722 0.984 . S
N1719 H1723 0.985 . S
H1720 N1715 0.984 . S
H1721 N1715 0.985 . S
H1722 N1719 0.984 . S
H1723 N1719 0.985 . S
H1724 N1718 0.984 . S
H1725 N1718 0.984 . S
H1726 N1714 0.984 . S
H1727 N1714 0.985 . S
C1728 C1729 1.363 . S
C1728 C1734 1.379 . S
C1728 N1736 1.356 . S
C1729 C1728 1.363 . S
C1729 C1735 1.363 . S
C1730 C1731 1.363 . S
C1730 C1735 1.379 . S
C1730 N1737 1.356 . S
C1731 C1730 1.363 . S
C1731 C1734 1.363 . S
N1732 C1734 1.356 . S
N1732 H1744 0.984 . S
N1732 H1745 0.985 . S
N1733 C1735 1.356 . S
N1733 H1738 0.984 . S
N1733 H1739 0.985 . S
C1734 C1728 1.379 . S
C1734 C1731 1.363 . S
C1734 N1732 1.356 . S
C1735 C1729 1.363 . S
C1735 C1730 1.379 . S
C1735 N1733 1.356 . S
N1736 C1728 1.356 . S
N1736 H1742 0.984 . S
N1736 H1743 0.984 . S
N1737 C1730 1.356 . S
N1737 H1740 0.984 . S
N1737 H1741 0.985 . S
H1738 N1733 0.984 . S
H1739 N1733 0.985 . S
H1740 N1737 0.984 . S
H1741 N1737 0.985 . S
H1742 N1736 0.984 . S
H1743 N1736 0.984 . S
H1744 N1732 0.984 . S
H1745 N1732 0.985 . S
C1746 C1747 1.363 . S
C1746 C1752 1.379 . S
C1746 N1754 1.356 . S
C1747 C1746 1.363 . S
C1747 C1753 1.363 . S
C1748 C1749 1.363 . S
C1748 C1753 1.379 . S
C1748 N1755 1.356 . S
C1749 C1748 1.363 . S
C1749 C1752 1.363 . S
N1750 C1752 1.356 . S
N1750 H1762 0.984 . S
N1750 H1763 0.985 . S
N1751 C1753 1.356 . S
N1751 H1756 0.984 . S
N1751 H1757 0.985 . S
C1752 C1746 1.379 . S
C1752 C1749 1.363 . S
C1752 N1750 1.356 . S
C1753 C1747 1.363 . S
C1753 C1748 1.379 . S
C1753 N1751 1.356 . S
N1754 C1746 1.356 . S
N1754 H1760 0.984 . S
N1754 H1761 0.984 . S
N1755 C1748 1.356 . S
N1755 H1758 0.984 . S
N1755 H1759 0.985 . S
H1756 N1751 0.984 . S
H1757 N1751 0.985 . S
H1758 N1755 0.984 . S
H1759 N1755 0.985 . S
H1760 N1754 0.984 . S
H1761 N1754 0.984 . S
H1762 N1750 0.984 . S
H1763 N1750 0.985 . S
C1764 C1765 1.363 . S
C1764 C1770 1.379 1_655 S
C1764 N1772 1.356 . S
C1765 C1764 1.363 . S
C1765 C1771 1.363 1_556 S
C1766 C1767 1.363 . S
C1766 C1771 1.379 1_455 S
C1766 N1773 1.356 . S
C1767 C1766 1.363 . S
C1767 C1770 1.363 1_554 S
N1768 C1770 1.356 . S
N1768 H1780 0.984 . S
N1768 H1781 0.985 . S
N1769 C1771 1.356 . S
N1769 H1774 0.984 . S
N1769 H1775 0.985 . S
C1770 C1764 1.379 1_455 S
C1770 C1767 1.363 1_556 S
C1770 N1768 1.356 . S
C1771 C1765 1.363 1_554 S
C1771 C1766 1.379 1_655 S
C1771 N1769 1.356 . S
N1772 C1764 1.356 . S
N1772 H1778 0.992 . S
N1772 H1779 0.984 . S
N1773 C1766 1.356 . S
N1773 H1776 0.984 . S
N1773 H1777 0.994 . S
H1774 N1769 0.984 . S
H1775 N1769 0.985 . S
H1776 N1773 0.984 . S
H1777 N1773 0.994 . S
H1778 N1772 0.992 . S
H1779 N1772 0.984 . S
H1780 N1768 0.984 . S
H1781 N1768 0.985 . S
C1782 C1783 1.363 1_554 S
C1782 C1788 1.379 . S
C1782 N1790 1.356 . S
C1783 C1782 1.363 1_556 S
C1783 C1789 1.363 . S
C1784 C1785 1.363 1_556 S
C1784 C1789 1.379 . S
C1784 N1791 1.356 . S
C1785 C1784 1.363 1_554 S
C1785 C1788 1.363 . S
N1786 C1788 1.356 . S
N1786 H1798 0.984 . S
N1786 H1799 0.985 . S
N1787 C1789 1.356 . S
N1787 H1792 0.984 . S
N1787 H1793 0.985 . S
C1788 C1782 1.379 . S
C1788 C1785 1.363 . S
C1788 N1786 1.356 . S
C1789 C1783 1.363 . S
C1789 C1784 1.379 . S
C1789 N1787 1.356 . S
N1790 C1782 1.356 . S
N1790 H1796 0.984 . S
N1790 H1797 0.984 1_554 S
N1791 C1784 1.356 . S
N1791 H1794 0.984 1_556 S
N1791 H1795 0.985 . S
H1792 N1787 0.984 . S
H1793 N1787 0.985 . S
H1794 N1791 0.984 1_554 S
H1795 N1791 0.985 . S
H1796 N1790 0.984 . S
H1797 N1790 0.984 1_556 S
H1798 N1786 0.984 . S
H1799 N1786 0.985 . S
C1800 C1801 1.363 1_556 S
C1800 C1806 1.379 1_565 S
C1800 N1808 1.356 . S
C1801 C1800 1.363 1_554 S
C1801 C1807 1.363 . S
C1802 C1803 1.363 1_554 S
C1802 C1807 1.379 1_545 S
C1802 N1809 1.356 . S
C1803 C1802 1.363 1_556 S
C1803 C1806 1.363 . S
N1804 C1806 1.356 . S
N1804 H1816 0.984 . S
N1804 H1817 0.985 . S
N1805 C1807 1.356 . S
N1805 H1810 0.984 . S
N1805 H1811 0.985 . S
C1806 C1800 1.379 1_545 S
C1806 C1803 1.363 . S
C1806 N1804 1.356 . S
C1807 C1801 1.363 . S
C1807 C1802 1.379 1_565 S
C1807 N1805 1.356 . S
N1808 C1800 1.356 . S
N1808 H1814 0.984 . S
N1808 H1815 0.984 1_556 S
N1809 C1802 1.356 . S
N1809 H1812 0.984 1_554 S
N1809 H1813 0.985 . S
H1810 N1805 0.984 . S
H1811 N1805 0.985 . S
H1812 N1809 0.984 1_556 S
H1813 N1809 0.985 . S
H1814 N1808 0.984 . S
H1815 N1808 0.984 1_554 S
H1816 N1804 0.984 . S
H1817 N1804 0.985 . S
C1818 C1819 1.363 1_556 S
C1818 C1824 1.379 1_565 S
C1818 N1826 1.356 1_556 S
C1819 C1818 1.363 1_554 S
C1819 C1825 1.363 . S
C1820 C1821 1.363 1_554 S
C1820 C1825 1.379 1_545 S
C1820 N1827 1.356 1_554 S
C1821 C1820 1.363 1_556 S
C1821 C1824 1.363 . S
N1822 C1824 1.356 . S
N1822 H1834 0.984 . S
N1822 H1835 0.985 . S
N1823 C1825 1.356 . S
N1823 H1828 0.984 . S
N1823 H1829 0.985 . S
C1824 C1818 1.379 1_545 S
C1824 C1821 1.363 . S
C1824 N1822 1.356 . S
C1825 C1819 1.363 . S
C1825 C1820 1.379 1_565 S
C1825 N1823 1.356 . S
N1826 C1818 1.356 1_554 S
N1826 H1832 0.984 1_554 S
N1826 H1833 0.984 . S
N1827 C1820 1.356 1_556 S
N1827 H1830 0.984 . S
N1827 H1831 0.985 1_556 S
H1828 N1823 0.984 . S
H1829 N1823 0.985 . S
H1830 N1827 0.984 . S
H1831 N1827 0.985 1_554 S
H1832 N1826 0.984 1_556 S
H1833 N1826 0.984 . S
H1834 N1822 0.984 . S
H1835 N1822 0.985 . S
C1836 C1837 1.363 1_554 S
C1836 C1842 1.379 1_655 S
C1836 N1844 1.356 . S
C1837 C1836 1.363 1_556 S
C1837 C1843 1.363 . S
C1838 C1839 1.363 1_556 S
C1838 C1843 1.379 1_455 S
C1838 N1845 1.356 . S
C1839 C1838 1.363 1_554 S
C1839 C1842 1.363 . S
N1840 C1842 1.356 . S
N1840 H1852 0.984 . S
N1840 H1853 0.985 . S
N1841 C1843 1.356 . S
N1841 H1846 0.984 . S
N1841 H1847 0.985 . S
C1842 C1836 1.379 1_455 S
C1842 C1839 1.363 . S
C1842 N1840 1.356 . S
C1843 C1837 1.363 . S
C1843 C1838 1.379 1_655 S
C1843 N1841 1.356 . S
N1844 C1836 1.356 . S
N1844 H1850 0.984 . S
N1844 H1851 0.984 . S
N1845 C1838 1.356 . S
N1845 H1848 0.984 . S
N1845 H1849 0.985 . S
H1846 N1841 0.984 . S
H1847 N1841 0.985 . S
H1848 N1845 0.984 . S
H1849 N1845 0.985 . S
H1850 N1844 0.984 . S
H1851 N1844 0.984 . S
H1852 N1840 0.984 . S
H1853 N1840 0.985 . S
C1854 C1855 1.363 . S
C1854 C1860 1.379 . S
C1854 N1862 1.356 . S
C1855 C1854 1.363 . S
C1855 C1861 1.363 1_556 S
C1856 C1857 1.363 . S
C1856 C1861 1.379 . S
C1856 N1863 1.356 . S
C1857 C1856 1.363 . S
C1857 C1860 1.363 1_554 S
N1858 C1860 1.356 . S
N1858 H1870 0.984 . S
N1858 H1871 0.985 . S
N1859 C1861 1.356 . S
N1859 H1864 0.984 . S
N1859 H1865 0.985 . S
C1860 C1854 1.379 . S
C1860 C1857 1.363 1_556 S
C1860 N1858 1.356 . S
C1861 C1855 1.363 1_554 S
C1861 C1856 1.379 . S
C1861 N1859 1.356 . S
N1862 C1854 1.356 . S
N1862 H1868 0.984 . S
N1862 H1869 0.984 . S
N1863 C1856 1.356 . S
N1863 H1866 0.984 . S
N1863 H1867 0.985 . S
H1864 N1859 0.984 . S
H1865 N1859 0.985 . S
H1866 N1863 0.984 . S
H1867 N1863 0.985 . S
H1868 N1862 0.984 . S
H1869 N1862 0.984 . S
H1870 N1858 0.984 . S
H1871 N1858 0.985 . S
C1872 C1873 1.363 . S
C1872 C1878 1.379 . S
C1872 N1880 1.356 . S
C1873 C1872 1.363 . S
C1873 C1879 1.363 . S
C1874 C1875 1.363 . S
C1874 C1879 1.379 . S
C1874 N1881 1.356 . S
C1875 C1874 1.363 . S
C1875 C1878 1.363 . S
N1876 C1878 1.356 . S
N1876 H1888 0.984 . S
N1876 H1889 0.985 . S
N1877 C1879 1.356 . S
N1877 H1882 0.984 . S
N1877 H1883 0.985 . S
C1878 C1872 1.379 . S
C1878 C1875 1.363 . S
C1878 N1876 1.356 . S
C1879 C1873 1.363 . S
C1879 C1874 1.379 . S
C1879 N1877 1.356 . S
N1880 C1872 1.356 . S
N1880 H1886 0.984 . S
N1880 H1887 0.984 . S
N1881 C1874 1.356 . S
N1881 H1884 0.984 . S
N1881 H1885 0.985 . S
H1882 N1877 0.984 . S
H1883 N1877 0.985 . S
H1884 N1881 0.984 . S
H1885 N1881 0.985 . S
H1886 N1880 0.984 . S
H1887 N1880 0.984 . S
H1888 N1876 0.984 . S
H1889 N1876 0.985 . S
C1890 C1891 1.363 . S
C1890 C1896 1.379 . S
C1890 N1898 1.356 . S
C1891 C1890 1.363 . S
C1891 C1897 1.363 . S
C1892 C1893 1.363 . S
C1892 C1897 1.379 . S
C1892 N1899 1.356 . S
C1893 C1892 1.363 . S
C1893 C1896 1.363 . S
N1894 C1896 1.356 . S
N1894 H1906 0.984 . S
N1894 H1907 0.985 . S
N1895 C1897 1.356 . S
N1895 H1900 0.984 . S
N1895 H1901 0.985 . S
C1896 C1890 1.379 . S
C1896 C1893 1.363 . S
C1896 N1894 1.356 . S
C1897 C1891 1.363 . S
C1897 C1892 1.379 . S
C1897 N1895 1.356 . S
N1898 C1890 1.356 . S
N1898 H1904 0.984 . S
N1898 H1905 0.984 . S
N1899 C1892 1.356 . S
N1899 H1902 0.984 . S
N1899 H1903 0.985 . S
H1900 N1895 0.984 . S
H1901 N1895 0.985 . S
H1902 N1899 0.984 . S
H1903 N1899 0.985 . S
H1904 N1898 0.984 . S
H1905 N1898 0.984 . S
H1906 N1894 0.984 . S
H1907 N1894 0.985 . S
C1908 C1909 1.363 . S
C1908 C1914 1.379 . S
C1908 N1916 1.356 . S
C1909 C1908 1.363 . S
C1909 C1915 1.363 . S
C1910 C1911 1.363 . S
C1910 C1915 1.379 . S
C1910 N1917 1.356 . S
C1911 C1910 1.363 . S
C1911 C1914 1.363 . S
N1912 C1914 1.356 . S
N1912 H1924 0.984 . S
N1912 H1925 0.985 . S
N1913 C1915 1.356 . S
N1913 H1918 0.984 . S
N1913 H1919 0.985 . S
C1914 C1908 1.379 . S
C1914 C1911 1.363 . S
C1914 N1912 1.356 . S
C1915 C1909 1.363 . S
C1915 C1910 1.379 . S
C1915 N1913 1.356 . S
N1916 C1908 1.356 . S
N1916 H1922 0.984 . S
N1916 H1923 0.984 . S
N1917 C1910 1.356 . S
N1917 H1920 0.984 . S
N1917 H1921 0.985 . S
H1918 N1913 0.984 . S
H1919 N1913 0.985 . S
H1920 N1917 0.984 . S
H1921 N1917 0.985 . S
H1922 N1916 0.984 . S
H1923 N1916 0.984 . S
H1924 N1912 0.984 . S
H1925 N1912 0.985 . S
C1926 C1927 1.363 . S
C1926 C1932 1.379 . S
C1926 N1934 1.356 . S
C1927 C1926 1.363 . S
C1927 C1933 1.363 . S
C1928 C1929 1.363 . S
C1928 C1933 1.379 . S
C1928 N1935 1.356 . S
C1929 C1928 1.363 . S
C1929 C1932 1.363 . S
N1930 C1932 1.356 . S
N1930 H1942 0.984 . S
N1930 H1943 0.985 . S
N1931 C1933 1.356 . S
N1931 H1936 0.984 . S
N1931 H1937 0.985 . S
C1932 C1926 1.379 . S
C1932 C1929 1.363 . S
C1932 N1930 1.356 . S
C1933 C1927 1.363 . S
C1933 C1928 1.379 . S
C1933 N1931 1.356 . S
N1934 C1926 1.356 . S
N1934 H1940 0.984 . S
N1934 H1941 0.984 . S
N1935 C1928 1.356 . S
N1935 H1938 0.984 . S
N1935 H1939 0.985 . S
H1936 N1931 0.984 . S
H1937 N1931 0.985 . S
H1938 N1935 0.984 . S
H1939 N1935 0.985 . S
H1940 N1934 0.984 . S
H1941 N1934 0.984 . S
H1942 N1930 0.984 . S
H1943 N1930 0.985 . S
C1944 C1945 1.363 . S
C1944 C1950 1.379 . S
C1944 N1952 1.356 . S
C1945 C1944 1.363 . S
C1945 C1951 1.363 . S
C1946 C1947 1.363 . S
C1946 C1951 1.379 . S
C1946 N1953 1.356 . S
C1947 C1946 1.363 . S
C1947 C1950 1.363 . S
N1948 C1950 1.356 . S
N1948 H1960 0.984 . S
N1948 H1961 0.985 . S
N1949 C1951 1.356 . S
N1949 H1954 0.984 . S
N1949 H1955 0.985 . S
C1950 C1944 1.379 . S
C1950 C1947 1.363 . S
C1950 N1948 1.356 . S
C1951 C1945 1.363 . S
C1951 C1946 1.379 . S
C1951 N1949 1.356 . S
N1952 C1944 1.356 . S
N1952 H1958 0.984 . S
N1952 H1959 0.984 . S
N1953 C1946 1.356 . S
N1953 H1956 0.984 . S
N1953 H1957 0.985 . S
H1954 N1949 0.984 . S
H1955 N1949 0.985 . S
H1956 N1953 0.984 . S
H1957 N1953 0.985 . S
H1958 N1952 0.984 . S
H1959 N1952 0.984 . S
H1960 N1948 0.984 . S
H1961 N1948 0.985 . S
C1962 C1963 1.363 . S
C1962 C1968 1.379 . S
C1962 N1970 1.356 . S
C1963 C1962 1.363 . S
C1963 C1969 1.363 . S
C1964 C1965 1.363 . S
C1964 C1969 1.379 . S
C1964 N1971 1.356 . S
C1965 C1964 1.363 . S
C1965 C1968 1.363 . S
N1966 C1968 1.356 . S
N1966 H1978 0.984 . S
N1966 H1979 0.985 . S
N1967 C1969 1.356 . S
N1967 H1972 0.984 . S
N1967 H1973 0.985 . S
C1968 C1962 1.379 . S
C1968 C1965 1.363 . S
C1968 N1966 1.356 . S
C1969 C1963 1.363 . S
C1969 C1964 1.379 . S
C1969 N1967 1.356 . S
N1970 C1962 1.356 . S
N1970 H1976 0.984 . S
N1970 H1977 0.984 . S
N1971 C1964 1.356 . S
N1971 H1974 0.984 . S
N1971 H1975 0.985 . S
H1972 N1967 0.984 . S
H1973 N1967 0.985 . S
H1974 N1971 0.984 . S
H1975 N1971 0.985 . S
H1976 N1970 0.984 . S
H1977 N1970 0.984 . S
H1978 N1966 0.984 . S
H1979 N1966 0.985 . S
C1980 C1981 1.363 . S
C1980 C1986 1.379 . S
C1980 N1988 1.356 . S
C1981 C1980 1.363 . S
C1981 C1987 1.363 . S
C1982 C1983 1.363 . S
C1982 C1987 1.379 . S
C1982 N1989 1.356 . S
C1983 C1982 1.363 . S
C1983 C1986 1.363 . S
N1984 C1986 1.356 . S
N1984 H1996 0.984 . S
N1984 H1997 0.985 . S
N1985 C1987 1.356 . S
N1985 H1990 0.984 . S
N1985 H1991 0.985 . S
C1986 C1980 1.379 . S
C1986 C1983 1.363 . S
C1986 N1984 1.356 . S
C1987 C1981 1.363 . S
C1987 C1982 1.379 . S
C1987 N1985 1.356 . S
N1988 C1980 1.356 . S
N1988 H1994 0.984 . S
N1988 H1995 0.984 . S
N1989 C1982 1.356 . S
N1989 H1992 0.984 . S
N1989 H1993 0.985 . S
H1990 N1985 0.984 . S
H1991 N1985 0.985 . S
H1992 N1989 0.984 . S
H1993 N1989 0.985 . S
H1994 N1988 0.984 . S
H1995 N1988 0.984 . S
H1996 N1984 0.984 . S
H1997 N1984 0.985 . S
C1998 C1999 1.363 . S
C1998 C2004 1.379 . S
C1998 N2006 1.356 . S
C1999 C1998 1.363 . S
C1999 C2005 1.363 . S
C2000 C2001 1.363 . S
C2000 C2005 1.379 . S
C2000 N2007 1.356 . S
C2001 C2000 1.363 . S
C2001 C2004 1.363 . S
N2002 C2004 1.356 . S
N2002 H2014 0.984 . S
N2002 H2015 0.985 . S
N2003 C2005 1.356 . S
N2003 H2008 0.984 . S
N2003 H2009 0.985 . S
C2004 C1998 1.379 . S
C2004 C2001 1.363 . S
C2004 N2002 1.356 . S
C2005 C1999 1.363 . S
C2005 C2000 1.379 . S
C2005 N2003 1.356 . S
N2006 C1998 1.356 . S
N2006 H2012 0.984 . S
N2006 H2013 0.984 . S
N2007 C2000 1.356 . S
N2007 H2010 0.984 . S
N2007 H2011 0.985 . S
H2008 N2003 0.984 . S
H2009 N2003 0.985 . S
H2010 N2007 0.984 . S
H2011 N2007 0.985 . S
H2012 N2006 0.984 . S
H2013 N2006 0.984 . S
H2014 N2002 0.984 . S
H2015 N2002 0.985 . S
C2016 C2017 1.363 . S
C2016 C2022 1.379 . S
C2016 N2024 1.356 . S
C2017 C2016 1.363 . S
C2017 C2023 1.363 . S
C2018 C2019 1.363 . S
C2018 C2023 1.379 . S
C2018 N2025 1.356 . S
C2019 C2018 1.363 . S
C2019 C2022 1.363 . S
N2020 C2022 1.356 . S
N2020 H2032 0.984 . S
N2020 H2033 0.985 . S
N2021 C2023 1.356 . S
N2021 H2026 0.984 . S
N2021 H2027 0.985 . S
C2022 C2016 1.379 . S
C2022 C2019 1.363 . S
C2022 N2020 1.356 . S
C2023 C2017 1.363 . S
C2023 C2018 1.379 . S
C2023 N2021 1.356 . S
N2024 C2016 1.356 . S
N2024 H2030 0.984 . S
N2024 H2031 0.984 . S
N2025 C2018 1.356 . S
N2025 H2028 0.984 . S
N2025 H2029 0.985 . S
H2026 N2021 0.984 . S
H2027 N2021 0.985 . S
H2028 N2025 0.984 . S
H2029 N2025 0.985 . S
H2030 N2024 0.984 . S
H2031 N2024 0.984 . S
H2032 N2020 0.984 . S
H2033 N2020 0.985 . S
C2034 C2035 1.363 . S
C2034 C2040 1.379 . S
C2034 N2042 1.356 . S
C2035 C2034 1.363 . S
C2035 C2041 1.363 . S
C2036 C2037 1.363 . S
C2036 C2041 1.379 . S
C2036 N2043 1.356 1_554 S
C2037 C2036 1.363 . S
C2037 C2040 1.363 . S
N2038 C2040 1.356 . S
N2038 H2050 0.984 . S
N2038 H2051 0.985 . S
N2039 C2041 1.356 1_556 S
N2039 H2044 0.984 1_556 S
N2039 H2045 0.985 . S
C2040 C2034 1.379 . S
C2040 C2037 1.363 . S
C2040 N2038 1.356 . S
C2041 C2035 1.363 . S
C2041 C2036 1.379 . S
C2041 N2039 1.356 1_554 S
N2042 C2034 1.356 . S
N2042 H2048 0.984 . S
N2042 H2049 0.984 . S
N2043 C2036 1.356 1_556 S
N2043 H2046 0.984 1_556 S
N2043 H2047 0.985 . S
H2044 N2039 0.984 1_554 S
H2045 N2039 0.985 . S
H2046 N2043 0.984 1_554 S
H2047 N2043 0.985 . S
H2048 N2042 0.984 . S
H2049 N2042 0.984 . S
H2050 N2038 0.984 . S
H2051 N2038 0.985 . S
C2052 C2053 1.363 . S
C2052 C2058 1.379 . S
C2052 N2060 1.356 . S
C2053 C2052 1.363 . S
C2053 C2059 1.363 . S
C2054 C2055 1.363 . S
C2054 C2059 1.379 . S
C2054 N2061 1.356 1_554 S
C2055 C2054 1.363 . S
C2055 C2058 1.363 . S
N2056 C2058 1.356 . S
N2056 H2068 0.984 . S
N2056 H2069 0.985 . S
N2057 C2059 1.356 1_556 S
N2057 H2062 0.984 1_556 S
N2057 H2063 0.985 . S
C2058 C2052 1.379 . S
C2058 C2055 1.363 . S
C2058 N2056 1.356 . S
C2059 C2053 1.363 . S
C2059 C2054 1.379 . S
C2059 N2057 1.356 1_554 S
N2060 C2052 1.356 . S
N2060 H2066 0.984 . S
N2060 H2067 0.984 . S
N2061 C2054 1.356 1_556 S
N2061 H2064 0.984 1_556 S
N2061 H2065 0.985 . S
H2062 N2057 0.984 1_554 S
H2063 N2057 0.985 . S
H2064 N2061 0.984 1_554 S
H2065 N2061 0.985 . S
H2066 N2060 0.984 . S
H2067 N2060 0.984 . S
H2068 N2056 0.984 . S
H2069 N2056 0.985 . S
C2070 C2071 1.363 . S
C2070 C2076 1.379 . S
C2070 N2078 1.356 1_554 S
C2071 C2070 1.363 . S
C2071 C2077 1.363 . S
C2072 C2073 1.363 . S
C2072 C2077 1.379 . S
C2072 N2079 1.356 . S
C2073 C2072 1.363 . S
C2073 C2076 1.363 . S
N2074 C2076 1.356 1_556 S
N2074 H2086 0.984 . S
N2074 H2087 0.985 . S
N2075 C2077 1.356 . S
N2075 H2080 0.984 . S
N2075 H2081 0.985 . S
C2076 C2070 1.379 . S
C2076 C2073 1.363 . S
C2076 N2074 1.356 1_554 S
C2077 C2071 1.363 . S
C2077 C2072 1.379 . S
C2077 N2075 1.356 . S
N2078 C2070 1.356 1_556 S
N2078 H2084 0.984 . S
N2078 H2085 0.984 . S
N2079 C2072 1.356 . S
N2079 H2082 0.984 . S
N2079 H2083 0.985 . S
H2080 N2075 0.984 . S
H2081 N2075 0.985 . S
H2082 N2079 0.984 . S
H2083 N2079 0.985 . S
H2084 N2078 0.984 . S
H2085 N2078 0.984 . S
H2086 N2074 0.984 . S
H2087 N2074 0.985 . S
C2088 C2089 1.363 . S
C2088 C2094 1.379 . S
C2088 N2096 1.356 . S
C2089 C2088 1.363 . S
C2089 C2095 1.363 . S
C2090 C2091 1.363 . S
C2090 C2095 1.379 . S
C2090 N2097 1.356 1_556 S
C2091 C2090 1.363 . S
C2091 C2094 1.363 . S
N2092 C2094 1.356 . S
N2092 H2104 0.984 . S
N2092 H2105 0.985 . S
N2093 C2095 1.356 1_554 S
N2093 H2098 0.984 . S
N2093 H2099 0.985 . S
C2094 C2088 1.379 . S
C2094 C2091 1.363 . S
C2094 N2092 1.356 . S
C2095 C2089 1.363 . S
C2095 C2090 1.379 . S
C2095 N2093 1.356 1_556 S
N2096 C2088 1.356 . S
N2096 H2102 0.984 . S
N2096 H2103 0.984 . S
N2097 C2090 1.356 1_554 S
N2097 H2100 0.984 . S
N2097 H2101 0.985 . S
H2098 N2093 0.984 . S
H2099 N2093 0.985 . S
H2100 N2097 0.984 . S
H2101 N2097 0.985 . S
H2102 N2096 0.984 . S
H2103 N2096 0.984 . S
H2104 N2092 0.984 . S
H2105 N2092 0.985 . S
C2106 C2107 1.363 . S
C2106 C2112 1.379 . S
C2106 N2114 1.356 1_556 S
C2107 C2106 1.363 . S
C2107 C2113 1.363 . S
C2108 C2109 1.363 . S
C2108 C2113 1.379 . S
C2108 N2115 1.356 . S
C2109 C2108 1.363 . S
C2109 C2112 1.363 . S
N2110 C2112 1.356 1_554 S
N2110 H2122 0.984 . S
N2110 H2123 0.985 1_554 S
N2111 C2113 1.356 . S
N2111 H2116 0.984 . S
N2111 H2117 0.985 . S
C2112 C2106 1.379 . S
C2112 C2109 1.363 . S
C2112 N2110 1.356 1_556 S
C2113 C2107 1.363 . S
C2113 C2108 1.379 . S
C2113 N2111 1.356 . S
N2114 C2106 1.356 1_554 S
N2114 H2120 0.984 . S
N2114 H2121 0.984 1_554 S
N2115 C2108 1.356 . S
N2115 H2118 0.984 . S
N2115 H2119 0.985 . S
H2116 N2111 0.984 . S
H2117 N2111 0.985 . S
H2118 N2115 0.984 . S
H2119 N2115 0.985 . S
H2120 N2114 0.984 . S
H2121 N2114 0.984 1_556 S
H2122 N2110 0.984 . S
H2123 N2110 0.985 1_556 S
C2124 C2125 1.363 . S
C2124 C2130 1.379 . S
C2124 N2132 1.356 . S
C2125 C2124 1.363 . S
C2125 C2131 1.363 . S
C2126 C2127 1.363 . S
C2126 C2131 1.379 . S
C2126 N2133 1.356 1_556 S
C2127 C2126 1.363 . S
C2127 C2130 1.363 . S
N2128 C2130 1.356 . S
N2128 H2140 0.984 . S
N2128 H2141 0.985 . S
N2129 C2131 1.356 1_554 S
N2129 H2134 0.984 1_554 S
N2129 H2135 0.985 . S
C2130 C2124 1.379 . S
C2130 C2127 1.363 . S
C2130 N2128 1.356 . S
C2131 C2125 1.363 . S
C2131 C2126 1.379 . S
C2131 N2129 1.356 1_556 S
N2132 C2124 1.356 . S
N2132 H2138 0.984 . S
N2132 H2139 0.984 . S
N2133 C2126 1.356 1_554 S
N2133 H2136 0.984 1_554 S
N2133 H2137 0.985 . S
H2134 N2129 0.984 1_556 S
H2135 N2129 0.985 . S
H2136 N2133 0.984 1_556 S
H2137 N2133 0.985 . S
H2138 N2132 0.984 . S
H2139 N2132 0.984 . S
H2140 N2128 0.984 . S
H2141 N2128 0.985 . S
C2142 C2143 1.363 . S
C2142 C2148 1.379 . S
C2142 N2150 1.356 . S
C2143 C2142 1.363 . S
C2143 C2149 1.363 . S
C2144 C2145 1.363 . S
C2144 C2149 1.379 . S
C2144 N2151 1.356 . S
C2145 C2144 1.363 . S
C2145 C2148 1.363 . S
N2146 C2148 1.356 . S
N2146 H2158 0.984 . S
N2146 H2159 0.985 . S
N2147 C2149 1.356 . S
N2147 H2152 0.984 . S
N2147 H2153 0.985 . S
C2148 C2142 1.379 . S
C2148 C2145 1.363 . S
C2148 N2146 1.356 . S
C2149 C2143 1.363 . S
C2149 C2144 1.379 . S
C2149 N2147 1.356 . S
N2150 C2142 1.356 . S
N2150 H2156 0.984 . S
N2150 H2157 0.984 . S
N2151 C2144 1.356 . S
N2151 H2154 0.984 . S
N2151 H2155 0.985 . S
H2152 N2147 0.984 . S
H2153 N2147 0.985 . S
H2154 N2151 0.984 . S
H2155 N2151 0.985 . S
H2156 N2150 0.984 . S
H2157 N2150 0.984 . S
H2158 N2146 0.984 . S
H2159 N2146 0.985 . S
C2160 C2161 1.363 . S
C2160 C2166 1.379 . S
C2160 N2168 1.356 . S
C2161 C2160 1.363 . S
C2161 C2167 1.363 . S
C2162 C2163 1.363 . S
C2162 C2167 1.379 . S
C2162 N2169 1.356 . S
C2163 C2162 1.363 . S
C2163 C2166 1.363 . S
N2164 C2166 1.356 . S
N2164 H2176 0.984 . S
N2164 H2177 0.985 . S
N2165 C2167 1.356 . S
N2165 H2170 0.984 . S
N2165 H2171 0.985 . S
C2166 C2160 1.379 . S
C2166 C2163 1.363 . S
C2166 N2164 1.356 . S
C2167 C2161 1.363 . S
C2167 C2162 1.379 . S
C2167 N2165 1.356 . S
N2168 C2160 1.356 . S
N2168 H2174 0.984 . S
N2168 H2175 0.984 . S
N2169 C2162 1.356 . S
N2169 H2172 0.984 . S
N2169 H2173 0.985 . S
H2170 N2165 0.984 . S
H2171 N2165 0.985 . S
H2172 N2169 0.984 . S
H2173 N2169 0.985 . S
H2174 N2168 0.984 . S
H2175 N2168 0.984 . S
H2176 N2164 0.984 . S
H2177 N2164 0.985 . S
C2178 C2179 1.363 . S
C2178 C2184 1.379 . S
C2178 N2186 1.356 . S
C2179 C2178 1.363 . S
C2179 C2185 1.363 . S
C2180 C2181 1.363 . S
C2180 C2185 1.379 . S
C2180 N2187 1.356 . S
C2181 C2180 1.363 . S
C2181 C2184 1.363 . S
N2182 C2184 1.356 . S
N2182 H2194 0.984 . S
N2182 H2195 0.985 . S
N2183 C2185 1.356 . S
N2183 H2188 0.984 . S
N2183 H2189 0.985 . S
C2184 C2178 1.379 . S
C2184 C2181 1.363 . S
C2184 N2182 1.356 . S
C2185 C2179 1.363 . S
C2185 C2180 1.379 . S
C2185 N2183 1.356 . S
N2186 C2178 1.356 . S
N2186 H2192 0.984 . S
N2186 H2193 0.984 . S
N2187 C2180 1.356 . S
N2187 H2190 0.984 . S
N2187 H2191 0.985 . S
H2188 N2183 0.984 . S
H2189 N2183 0.985 . S
H2190 N2187 0.984 . S
H2191 N2187 0.985 . S
H2192 N2186 0.984 . S
H2193 N2186 0.984 . S
H2194 N2182 0.984 . S
H2195 N2182 0.985 . S
C2196 C2197 1.363 . S
C2196 C2202 1.379 . S
C2196 N2204 1.356 . S
C2197 C2196 1.363 . S
C2197 C2203 1.363 . S
C2198 C2199 1.363 . S
C2198 C2203 1.379 . S
C2198 N2205 1.356 . S
C2199 C2198 1.363 . S
C2199 C2202 1.363 . S
N2200 C2202 1.356 . S
N2200 H2212 0.984 . S
N2200 H2213 0.985 . S
N2201 C2203 1.356 . S
N2201 H2206 0.984 . S
N2201 H2207 0.985 . S
C2202 C2196 1.379 . S
C2202 C2199 1.363 . S
C2202 N2200 1.356 . S
C2203 C2197 1.363 . S
C2203 C2198 1.379 . S
C2203 N2201 1.356 . S
N2204 C2196 1.356 . S
N2204 H2210 0.984 . S
N2204 H2211 0.984 . S
N2205 C2198 1.356 . S
N2205 H2208 0.984 . S
N2205 H2209 0.985 . S
H2206 N2201 0.984 . S
H2207 N2201 0.985 . S
H2208 N2205 0.984 . S
H2209 N2205 0.985 . S
H2210 N2204 0.984 . S
H2211 N2204 0.984 . S
H2212 N2200 0.984 . S
H2213 N2200 0.985 . S
C2214 C2215 1.363 . S
C2214 C2220 1.379 . S
C2214 N2222 1.356 . S
C2215 C2214 1.363 . S
C2215 C2221 1.363 . S
C2216 C2217 1.363 . S
C2216 C2221 1.379 . S
C2216 N2223 1.356 . S
C2217 C2216 1.363 . S
C2217 C2220 1.363 . S
N2218 C2220 1.356 . S
N2218 H2230 0.984 . S
N2218 H2231 0.985 . S
N2219 C2221 1.356 . S
N2219 H2224 0.984 . S
N2219 H2225 0.985 . S
C2220 C2214 1.379 . S
C2220 C2217 1.363 . S
C2220 N2218 1.356 . S
C2221 C2215 1.363 . S
C2221 C2216 1.379 . S
C2221 N2219 1.356 . S
N2222 C2214 1.356 . S
N2222 H2228 0.984 . S
N2222 H2229 0.984 . S
N2223 C2216 1.356 . S
N2223 H2226 0.984 . S
N2223 H2227 0.985 . S
H2224 N2219 0.984 . S
H2225 N2219 0.985 . S
H2226 N2223 0.984 . S
H2227 N2223 0.985 . S
H2228 N2222 0.984 . S
H2229 N2222 0.984 . S
H2230 N2218 0.984 . S
H2231 N2218 0.985 . S
C2232 C2233 1.363 . S
C2232 C2238 1.379 . S
C2232 N2240 1.356 . S
C2233 C2232 1.363 . S
C2233 C2239 1.363 . S
C2234 C2235 1.363 . S
C2234 C2239 1.379 . S
C2234 N2241 1.356 . S
C2235 C2234 1.363 . S
C2235 C2238 1.363 . S
N2236 C2238 1.356 . S
N2236 H2248 0.984 . S
N2236 H2249 0.985 . S
N2237 C2239 1.356 . S
N2237 H2242 0.984 . S
N2237 H2243 0.985 . S
C2238 C2232 1.379 . S
C2238 C2235 1.363 . S
C2238 N2236 1.356 . S
C2239 C2233 1.363 . S
C2239 C2234 1.379 . S
C2239 N2237 1.356 . S
N2240 C2232 1.356 . S
N2240 H2246 0.984 . S
N2240 H2247 0.984 . S
N2241 C2234 1.356 . S
N2241 H2244 0.984 . S
N2241 H2245 0.985 . S
H2242 N2237 0.984 . S
H2243 N2237 0.985 . S
H2244 N2241 0.984 . S
H2245 N2241 0.985 . S
H2246 N2240 0.984 . S
H2247 N2240 0.984 . S
H2248 N2236 0.984 . S
H2249 N2236 0.985 . S
C2250 C2251 1.363 . S
C2250 C2256 1.379 . S
C2250 N2258 1.356 . S
C2251 C2250 1.363 . S
C2251 C2257 1.363 . S
C2252 C2253 1.363 . S
C2252 C2257 1.379 . S
C2252 N2259 1.356 . S
C2253 C2252 1.363 . S
C2253 C2256 1.363 . S
N2254 C2256 1.356 . S
N2254 H2266 0.984 . S
N2254 H2267 0.985 . S
N2255 C2257 1.356 . S
N2255 H2260 0.984 . S
N2255 H2261 0.985 . S
C2256 C2250 1.379 . S
C2256 C2253 1.363 . S
C2256 N2254 1.356 . S
C2257 C2251 1.363 . S
C2257 C2252 1.379 . S
C2257 N2255 1.356 . S
N2258 C2250 1.356 . S
N2258 H2264 0.984 . S
N2258 H2265 0.984 . S
N2259 C2252 1.356 . S
N2259 H2262 0.984 . S
N2259 H2263 0.985 . S
H2260 N2255 0.984 . S
H2261 N2255 0.985 . S
H2262 N2259 0.984 . S
H2263 N2259 0.985 . S
H2264 N2258 0.984 . S
H2265 N2258 0.984 . S
H2266 N2254 0.984 . S
H2267 N2254 0.985 . S
C2268 C2269 1.363 . S
C2268 C2274 1.379 . S
C2268 N2276 1.356 . S
C2269 C2268 1.363 . S
C2269 C2275 1.363 . S
C2270 C2271 1.363 . S
C2270 C2275 1.379 . S
C2270 N2277 1.356 . S
C2271 C2270 1.363 . S
C2271 C2274 1.363 . S
N2272 C2274 1.356 . S
N2272 H2284 0.984 . S
N2272 H2285 0.985 . S
N2273 C2275 1.356 . S
N2273 H2278 0.984 . S
N2273 H2279 0.985 . S
C2274 C2268 1.379 . S
C2274 C2271 1.363 . S
C2274 N2272 1.356 . S
C2275 C2269 1.363 . S
C2275 C2270 1.379 . S
C2275 N2273 1.356 . S
N2276 C2268 1.356 . S
N2276 H2282 0.984 . S
N2276 H2283 0.984 . S
N2277 C2270 1.356 . S
N2277 H2280 0.984 . S
N2277 H2281 0.985 . S
H2278 N2273 0.984 . S
H2279 N2273 0.985 . S
H2280 N2277 0.984 . S
H2281 N2277 0.985 . S
H2282 N2276 0.984 . S
H2283 N2276 0.984 . S
H2284 N2272 0.984 . S
H2285 N2272 0.985 . S
C2286 C2287 1.363 . S
C2286 C2292 1.379 . S
C2286 N2294 1.356 . S
C2287 C2286 1.363 . S
C2287 C2293 1.363 . S
C2288 C2289 1.363 . S
C2288 C2293 1.379 . S
C2288 N2295 1.356 . S
C2289 C2288 1.363 . S
C2289 C2292 1.363 . S
N2290 C2292 1.356 . S
N2290 H2302 0.984 . S
N2290 H2303 0.985 . S
N2291 C2293 1.356 . S
N2291 H2296 0.984 . S
N2291 H2297 0.985 . S
C2292 C2286 1.379 . S
C2292 C2289 1.363 . S
C2292 N2290 1.356 . S
C2293 C2287 1.363 . S
C2293 C2288 1.379 . S
C2293 N2291 1.356 . S
N2294 C2286 1.356 . S
N2294 H2300 0.984 . S
N2294 H2301 0.984 . S
N2295 C2288 1.356 . S
N2295 H2298 0.984 . S
N2295 H2299 0.985 . S
H2296 N2291 0.984 . S
H2297 N2291 0.985 . S
H2298 N2295 0.984 . S
H2299 N2295 0.985 . S
H2300 N2294 0.984 . S
H2301 N2294 0.984 . S
H2302 N2290 0.984 . S
H2303 N2290 0.985 . S
C2304 C2305 1.363 . S
C2304 C2310 1.379 . S
C2304 N2312 1.356 . S
C2305 C2304 1.363 . S
C2305 C2311 1.363 . S
C2306 C2307 1.363 . S
C2306 C2311 1.379 . S
C2306 N2313 1.356 . S
C2307 C2306 1.363 . S
C2307 C2310 1.363 . S
N2308 C2310 1.356 . S
N2308 H2320 0.984 . S
N2308 H2321 0.985 . S
N2309 C2311 1.356 . S
N2309 H2314 0.984 . S
N2309 H2315 0.985 . S
C2310 C2304 1.379 . S
C2310 C2307 1.363 . S
C2310 N2308 1.356 . S
C2311 C2305 1.363 . S
C2311 C2306 1.379 . S
C2311 N2309 1.356 . S
N2312 C2304 1.356 . S
N2312 H2318 0.984 . S
N2312 H2319 0.984 . S
N2313 C2306 1.356 . S
N2313 H2316 0.984 . S
N2313 H2317 0.985 . S
H2314 N2309 0.984 . S
H2315 N2309 0.985 . S
H2316 N2313 0.984 . S
H2317 N2313 0.985 . S
H2318 N2312 0.984 . S
H2319 N2312 0.984 . S
H2320 N2308 0.984 . S
H2321 N2308 0.985 . S
C2322 C2323 1.363 . S
C2322 C2328 1.379 . S
C2322 N2330 1.356 . S
C2323 C2322 1.363 . S
C2323 C2329 1.363 . S
C2324 C2325 1.363 . S
C2324 C2329 1.379 . S
C2324 N2331 1.356 . S
C2325 C2324 1.363 . S
C2325 C2328 1.363 . S
N2326 C2328 1.356 . S
N2326 H2338 0.984 . S
N2326 H2339 0.985 . S
N2327 C2329 1.356 . S
N2327 H2332 0.984 . S
N2327 H2333 0.985 . S
C2328 C2322 1.379 . S
C2328 C2325 1.363 . S
C2328 N2326 1.356 . S
C2329 C2323 1.363 . S
C2329 C2324 1.379 . S
C2329 N2327 1.356 . S
N2330 C2322 1.356 . S
N2330 H2336 0.984 . S
N2330 H2337 0.984 . S
N2331 C2324 1.356 . S
N2331 H2334 0.984 . S
N2331 H2335 0.985 . S
H2332 N2327 0.984 . S
H2333 N2327 0.985 . S
H2334 N2331 0.984 . S
H2335 N2331 0.985 . S
H2336 N2330 0.984 . S
H2337 N2330 0.984 . S
H2338 N2326 0.984 . S
H2339 N2326 0.985 . S
C2340 C2341 1.363 . S
C2340 C2346 1.379 . S
C2340 N2348 1.356 . S
C2341 C2340 1.363 . S
C2341 C2347 1.363 . S
C2342 C2343 1.363 . S
C2342 C2347 1.379 . S
C2342 N2349 1.356 . S
C2343 C2342 1.363 . S
C2343 C2346 1.363 . S
N2344 C2346 1.356 . S
N2344 H2356 0.984 . S
N2344 H2357 0.985 . S
N2345 C2347 1.356 . S
N2345 H2350 0.984 . S
N2345 H2351 0.985 . S
C2346 C2340 1.379 . S
C2346 C2343 1.363 . S
C2346 N2344 1.356 . S
C2347 C2341 1.363 . S
C2347 C2342 1.379 . S
C2347 N2345 1.356 . S
N2348 C2340 1.356 . S
N2348 H2354 0.984 . S
N2348 H2355 0.984 . S
N2349 C2342 1.356 . S
N2349 H2352 0.984 . S
N2349 H2353 0.985 . S
H2350 N2345 0.984 . S
H2351 N2345 0.985 . S
H2352 N2349 0.984 . S
H2353 N2349 0.985 . S
H2354 N2348 0.984 . S
H2355 N2348 0.984 . S
H2356 N2344 0.984 . S
H2357 N2344 0.985 . S
C2358 C2359 1.363 . S
C2358 C2364 1.379 . S
C2358 N2366 1.356 . S
C2359 C2358 1.363 . S
C2359 C2365 1.363 . S
C2360 C2361 1.363 . S
C2360 C2365 1.379 . S
C2360 N2367 1.356 . S
C2361 C2360 1.363 . S
C2361 C2364 1.363 . S
N2362 C2364 1.356 . S
N2362 H2374 0.984 . S
N2362 H2375 0.985 . S
N2363 C2365 1.356 . S
N2363 H2368 0.984 . S
N2363 H2369 0.985 . S
C2364 C2358 1.379 . S
C2364 C2361 1.363 . S
C2364 N2362 1.356 . S
C2365 C2359 1.363 . S
C2365 C2360 1.379 . S
C2365 N2363 1.356 . S
N2366 C2358 1.356 . S
N2366 H2372 0.984 . S
N2366 H2373 0.984 . S
N2367 C2360 1.356 . S
N2367 H2370 0.984 . S
N2367 H2371 0.985 . S
H2368 N2363 0.984 . S
H2369 N2363 0.985 . S
H2370 N2367 0.984 . S
H2371 N2367 0.985 . S
H2372 N2366 0.984 . S
H2373 N2366 0.984 . S
H2374 N2362 0.984 . S
H2375 N2362 0.985 . S
C2376 C2377 1.363 . S
C2376 C2382 1.379 . S
C2376 N2384 1.356 . S
C2377 C2376 1.363 . S
C2377 C2383 1.363 . S
C2378 C2379 1.363 . S
C2378 C2383 1.379 . S
C2378 N2385 1.356 . S
C2379 C2378 1.363 . S
C2379 C2382 1.363 . S
N2380 C2382 1.356 . S
N2380 H2392 0.984 . S
N2380 H2393 0.985 . S
N2381 C2383 1.356 . S
N2381 H2386 0.984 . S
N2381 H2387 0.985 . S
C2382 C2376 1.379 . S
C2382 C2379 1.363 . S
C2382 N2380 1.356 . S
C2383 C2377 1.363 . S
C2383 C2378 1.379 . S
C2383 N2381 1.356 . S
N2384 C2376 1.356 . S
N2384 H2390 0.984 . S
N2384 H2391 0.984 . S
N2385 C2378 1.356 . S
N2385 H2388 0.984 . S
N2385 H2389 0.985 . S
H2386 N2381 0.984 . S
H2387 N2381 0.985 . S
H2388 N2385 0.984 . S
H2389 N2385 0.985 . S
H2390 N2384 0.984 . S
H2391 N2384 0.984 . S
H2392 N2380 0.984 . S
H2393 N2380 0.985 . S
C2394 C2395 1.363 . S
C2394 C2400 1.379 . S
C2394 N2402 1.356 . S
C2395 C2394 1.363 . S
C2395 C2401 1.363 . S
C2396 C2397 1.363 . S
C2396 C2401 1.379 . S
C2396 N2403 1.356 . S
C2397 C2396 1.363 . S
C2397 C2400 1.363 . S
N2398 C2400 1.356 . S
N2398 H2410 0.984 . S
N2398 H2411 0.985 . S
N2399 C2401 1.356 . S
N2399 H2404 0.984 . S
N2399 H2405 0.985 . S
C2400 C2394 1.379 . S
C2400 C2397 1.363 . S
C2400 N2398 1.356 . S
C2401 C2395 1.363 . S
C2401 C2396 1.379 . S
C2401 N2399 1.356 . S
N2402 C2394 1.356 . S
N2402 H2408 0.984 . S
N2402 H2409 0.984 . S
N2403 C2396 1.356 . S
N2403 H2406 0.984 . S
N2403 H2407 0.985 . S
H2404 N2399 0.984 . S
H2405 N2399 0.985 . S
H2406 N2403 0.984 . S
H2407 N2403 0.985 . S
H2408 N2402 0.984 . S
H2409 N2402 0.984 . S
H2410 N2398 0.984 . S
H2411 N2398 0.985 . S
C2412 C2413 1.363 . S
C2412 C2418 1.379 1_556 S
C2412 N2420 1.356 . S
C2413 C2412 1.363 . S
C2413 C2419 1.363 . S
C2414 C2415 1.363 . S
C2414 C2419 1.379 1_554 S
C2414 N2421 1.356 . S
C2415 C2414 1.363 . S
C2415 C2418 1.363 . S
N2416 C2418 1.356 . S
N2416 H2428 0.984 . S
N2416 H2429 0.985 . S
N2417 C2419 1.356 . S
N2417 H2422 0.984 . S
N2417 H2423 0.985 . S
C2418 C2412 1.379 1_554 S
C2418 C2415 1.363 . S
C2418 N2416 1.356 . S
C2419 C2413 1.363 . S
C2419 C2414 1.379 1_556 S
C2419 N2417 1.356 . S
N2420 C2412 1.356 . S
N2420 H2426 0.984 . S
N2420 H2427 0.984 . S
N2421 C2414 1.356 . S
N2421 H2424 0.984 . S
N2421 H2425 0.985 . S
H2422 N2417 0.984 . S
H2423 N2417 0.985 . S
H2424 N2421 0.984 . S
H2425 N2421 0.985 . S
H2426 N2420 0.984 . S
H2427 N2420 0.984 . S
H2428 N2416 0.984 . S
H2429 N2416 0.985 . S
C2430 C2431 1.363 . S
C2430 C2436 1.379 1_556 S
C2430 N2438 1.356 . S
C2431 C2430 1.363 . S
C2431 C2437 1.363 . S
C2432 C2433 1.363 . S
C2432 C2437 1.379 1_554 S
C2432 N2439 1.356 . S
C2433 C2432 1.363 . S
C2433 C2436 1.363 . S
N2434 C2436 1.356 . S
N2434 H2446 0.984 . S
N2434 H2447 0.985 . S
N2435 C2437 1.356 . S
N2435 H2440 0.984 . S
N2435 H2441 0.985 . S
C2436 C2430 1.379 1_554 S
C2436 C2433 1.363 . S
C2436 N2434 1.356 . S
C2437 C2431 1.363 . S
C2437 C2432 1.379 1_556 S
C2437 N2435 1.356 . S
N2438 C2430 1.356 . S
N2438 H2444 0.984 . S
N2438 H2445 0.984 . S
N2439 C2432 1.356 . S
N2439 H2442 0.984 . S
N2439 H2443 0.985 . S
H2440 N2435 0.984 . S
H2441 N2435 0.985 . S
H2442 N2439 0.984 . S
H2443 N2439 0.985 . S
H2444 N2438 0.984 . S
H2445 N2438 0.984 . S
H2446 N2434 0.984 . S
H2447 N2434 0.985 . S
C2448 C2449 1.363 . S
C2448 C2454 1.379 1_556 S
C2448 N2456 1.356 . S
C2449 C2448 1.363 . S
C2449 C2455 1.363 . S
C2450 C2451 1.363 . S
C2450 C2455 1.379 1_554 S
C2450 N2457 1.356 . S
C2451 C2450 1.363 . S
C2451 C2454 1.363 . S
N2452 C2454 1.356 . S
N2452 H2464 0.984 . S
N2452 H2465 0.985 . S
N2453 C2455 1.356 . S
N2453 H2458 0.984 . S
N2453 H2459 0.985 . S
C2454 C2448 1.379 1_554 S
C2454 C2451 1.363 . S
C2454 N2452 1.356 . S
C2455 C2449 1.363 . S
C2455 C2450 1.379 1_556 S
C2455 N2453 1.356 . S
N2456 C2448 1.356 . S
N2456 H2462 0.984 . S
N2456 H2463 0.984 . S
N2457 C2450 1.356 . S
N2457 H2460 0.984 . S
N2457 H2461 0.985 . S
H2458 N2453 0.984 . S
H2459 N2453 0.985 . S
H2460 N2457 0.984 . S
H2461 N2457 0.985 . S
H2462 N2456 0.984 . S
H2463 N2456 0.984 . S
H2464 N2452 0.984 . S
H2465 N2452 0.985 . S
C2466 C2467 1.363 . S
C2466 C2472 1.379 . S
C2466 N2474 1.356 . S
C2467 C2466 1.363 . S
C2467 C2473 1.363 . S
C2468 C2469 1.363 . S
C2468 C2473 1.379 . S
C2468 N2475 1.356 . S
C2469 C2468 1.363 . S
C2469 C2472 1.363 . S
N2470 C2472 1.356 . S
N2470 H2482 0.984 . S
N2470 H2483 0.985 . S
N2471 C2473 1.356 . S
N2471 H2476 0.984 . S
N2471 H2477 0.985 . S
C2472 C2466 1.379 . S
C2472 C2469 1.363 . S
C2472 N2470 1.356 . S
C2473 C2467 1.363 . S
C2473 C2468 1.379 . S
C2473 N2471 1.356 . S
N2474 C2466 1.356 . S
N2474 H2480 0.984 . S
N2474 H2481 0.984 . S
N2475 C2468 1.356 . S
N2475 H2478 0.984 . S
N2475 H2479 0.985 . S
H2476 N2471 0.984 . S
H2477 N2471 0.985 . S
H2478 N2475 0.984 . S
H2479 N2475 0.985 . S
H2480 N2474 0.984 . S
H2481 N2474 0.984 . S
H2482 N2470 0.984 . S
H2483 N2470 0.985 . S
C2484 C2485 1.363 . S
C2484 C2490 1.379 . S
C2484 N2492 1.356 . S
C2485 C2484 1.363 . S
C2485 C2491 1.363 . S
C2486 C2487 1.363 . S
C2486 C2491 1.379 . S
C2486 N2493 1.356 . S
C2487 C2486 1.363 . S
C2487 C2490 1.363 . S
N2488 C2490 1.356 . S
N2488 H2500 0.984 . S
N2488 H2501 0.985 . S
N2489 C2491 1.356 . S
N2489 H2494 0.984 . S
N2489 H2495 0.985 . S
C2490 C2484 1.379 . S
C2490 C2487 1.363 . S
C2490 N2488 1.356 . S
C2491 C2485 1.363 . S
C2491 C2486 1.379 . S
C2491 N2489 1.356 . S
N2492 C2484 1.356 . S
N2492 H2498 0.984 . S
N2492 H2499 0.984 . S
N2493 C2486 1.356 . S
N2493 H2496 0.984 . S
N2493 H2497 0.985 . S
H2494 N2489 0.984 . S
H2495 N2489 0.985 . S
H2496 N2493 0.984 . S
H2497 N2493 0.985 . S
H2498 N2492 0.984 . S
H2499 N2492 0.984 . S
H2500 N2488 0.984 . S
H2501 N2488 0.985 . S
C2502 C2503 1.363 . S
C2502 C2508 1.379 . S
C2502 N2510 1.356 . S
C2503 C2502 1.363 . S
C2503 C2509 1.363 . S
C2504 C2505 1.363 . S
C2504 C2509 1.379 . S
C2504 N2511 1.356 . S
C2505 C2504 1.363 . S
C2505 C2508 1.363 . S
N2506 C2508 1.356 . S
N2506 H2518 0.984 . S
N2506 H2519 0.985 . S
N2507 C2509 1.356 . S
N2507 H2512 0.984 . S
N2507 H2513 0.985 . S
C2508 C2502 1.379 . S
C2508 C2505 1.363 . S
C2508 N2506 1.356 . S
C2509 C2503 1.363 . S
C2509 C2504 1.379 . S
C2509 N2507 1.356 . S
N2510 C2502 1.356 . S
N2510 H2516 0.984 . S
N2510 H2517 0.984 . S
N2511 C2504 1.356 . S
N2511 H2514 0.984 . S
N2511 H2515 0.985 . S
H2512 N2507 0.984 . S
H2513 N2507 0.985 . S
H2514 N2511 0.984 . S
H2515 N2511 0.985 . S
H2516 N2510 0.984 . S
H2517 N2510 0.984 . S
H2518 N2506 0.984 . S
H2519 N2506 0.985 . S
C2520 C2521 1.363 . S
C2520 C2526 1.379 . S
C2520 N2528 1.356 . S
C2521 C2520 1.363 . S
C2521 C2527 1.363 . S
C2522 C2523 1.363 . S
C2522 C2527 1.379 . S
C2522 N2529 1.356 . S
C2523 C2522 1.363 . S
C2523 C2526 1.363 . S
N2524 C2526 1.356 . S
N2524 H2536 0.984 . S
N2524 H2537 0.985 . S
N2525 C2527 1.356 . S
N2525 H2530 0.984 . S
N2525 H2531 0.985 . S
C2526 C2520 1.379 . S
C2526 C2523 1.363 . S
C2526 N2524 1.356 . S
C2527 C2521 1.363 . S
C2527 C2522 1.379 . S
C2527 N2525 1.356 . S
N2528 C2520 1.356 . S
N2528 H2534 0.984 . S
N2528 H2535 0.984 . S
N2529 C2522 1.356 . S
N2529 H2532 0.984 . S
N2529 H2533 0.985 . S
H2530 N2525 0.984 . S
H2531 N2525 0.985 . S
H2532 N2529 0.984 . S
H2533 N2529 0.985 . S
H2534 N2528 0.984 . S
H2535 N2528 0.984 . S
H2536 N2524 0.984 . S
H2537 N2524 0.985 . S
C2538 C2539 1.363 . S
C2538 C2544 1.379 . S
C2538 N2546 1.356 . S
C2539 C2538 1.363 . S
C2539 C2545 1.363 . S
C2540 C2541 1.363 . S
C2540 C2545 1.379 . S
C2540 N2547 1.356 . S
C2541 C2540 1.363 . S
C2541 C2544 1.363 . S
N2542 C2544 1.356 . S
N2542 H2554 0.984 . S
N2542 H2555 0.985 . S
N2543 C2545 1.356 . S
N2543 H2548 0.984 . S
N2543 H2549 0.985 . S
C2544 C2538 1.379 . S
C2544 C2541 1.363 . S
C2544 N2542 1.356 . S
C2545 C2539 1.363 . S
C2545 C2540 1.379 . S
C2545 N2543 1.356 . S
N2546 C2538 1.356 . S
N2546 H2552 0.984 . S
N2546 H2553 0.984 . S
N2547 C2540 1.356 . S
N2547 H2550 0.984 . S
N2547 H2551 0.985 . S
H2548 N2543 0.984 . S
H2549 N2543 0.985 . S
H2550 N2547 0.984 . S
H2551 N2547 0.985 . S
H2552 N2546 0.984 . S
H2553 N2546 0.984 . S
H2554 N2542 0.984 . S
H2555 N2542 0.985 . S
C2556 C2557 1.363 . S
C2556 C2562 1.379 . S
C2556 N2564 1.356 . S
C2557 C2556 1.363 . S
C2557 C2563 1.363 . S
C2558 C2559 1.363 . S
C2558 C2563 1.379 . S
C2558 N2565 1.356 . S
C2559 C2558 1.363 . S
C2559 C2562 1.363 . S
N2560 C2562 1.356 . S
N2560 H2572 0.984 . S
N2560 H2573 0.985 . S
N2561 C2563 1.356 . S
N2561 H2566 0.984 . S
N2561 H2567 0.985 . S
C2562 C2556 1.379 . S
C2562 C2559 1.363 . S
C2562 N2560 1.356 . S
C2563 C2557 1.363 . S
C2563 C2558 1.379 . S
C2563 N2561 1.356 . S
N2564 C2556 1.356 . S
N2564 H2570 0.984 . S
N2564 H2571 0.984 . S
N2565 C2558 1.356 . S
N2565 H2568 0.984 . S
N2565 H2569 0.985 . S
H2566 N2561 0.984 . S
H2567 N2561 0.985 . S
H2568 N2565 0.984 . S
H2569 N2565 0.985 . S
H2570 N2564 0.984 . S
H2571 N2564 0.984 . S
H2572 N2560 0.984 . S
H2573 N2560 0.985 . S
C2574 C2575 1.363 . S
C2574 C2580 1.379 1_554 S
C2574 N2582 1.356 . S
C2575 C2574 1.363 . S
C2575 C2581 1.363 . S
C2576 C2577 1.363 . S
C2576 C2581 1.379 1_556 S
C2576 N2583 1.356 . S
C2577 C2576 1.363 . S
C2577 C2580 1.363 . S
N2578 C2580 1.356 . S
N2578 H2590 0.984 . S
N2578 H2591 0.985 . S
N2579 C2581 1.356 . S
N2579 H2584 0.984 . S
N2579 H2585 0.985 . S
C2580 C2574 1.379 1_556 S
C2580 C2577 1.363 . S
C2580 N2578 1.356 . S
C2581 C2575 1.363 . S
C2581 C2576 1.379 1_554 S
C2581 N2579 1.356 . S
N2582 C2574 1.356 . S
N2582 H2588 0.984 . S
N2582 H2589 0.984 . S
N2583 C2576 1.356 . S
N2583 H2586 0.984 . S
N2583 H2587 0.985 . S
H2584 N2579 0.984 . S
H2585 N2579 0.985 . S
H2586 N2583 0.984 . S
H2587 N2583 0.985 . S
H2588 N2582 0.984 . S
H2589 N2582 0.984 . S
H2590 N2578 0.984 . S
H2591 N2578 0.985 . S
C2592 C2593 1.363 . S
C2592 C2598 1.379 1_556 S
C2592 N2600 1.356 . S
C2593 C2592 1.363 . S
C2593 C2599 1.363 . S
C2594 C2595 1.363 . S
C2594 C2599 1.379 1_554 S
C2594 N2601 1.356 . S
C2595 C2594 1.363 . S
C2595 C2598 1.363 . S
N2596 C2598 1.356 . S
N2596 H2608 0.984 . S
N2596 H2609 0.985 . S
N2597 C2599 1.356 . S
N2597 H2602 0.984 . S
N2597 H2603 0.985 . S
C2598 C2592 1.379 1_554 S
C2598 C2595 1.363 . S
C2598 N2596 1.356 . S
C2599 C2593 1.363 . S
C2599 C2594 1.379 1_556 S
C2599 N2597 1.356 . S
N2600 C2592 1.356 . S
N2600 H2606 0.984 . S
N2600 H2607 0.984 . S
N2601 C2594 1.356 . S
N2601 H2604 0.984 . S
N2601 H2605 0.985 . S
H2602 N2597 0.984 . S
H2603 N2597 0.985 . S
H2604 N2601 0.984 . S
H2605 N2601 0.985 . S
H2606 N2600 0.984 . S
H2607 N2600 0.984 . S
H2608 N2596 0.984 . S
H2609 N2596 0.985 . S
C2610 C2611 1.363 . S
C2610 C2616 1.379 1_556 S
C2610 N2618 1.356 . S
C2611 C2610 1.363 . S
C2611 C2617 1.363 . S
C2612 C2613 1.363 . S
C2612 C2617 1.379 1_554 S
C2612 N2619 1.356 . S
C2613 C2612 1.363 . S
C2613 C2616 1.363 . S
N2614 C2616 1.356 . S
N2614 H2626 0.984 . S
N2614 H2627 0.985 . S
N2615 C2617 1.356 . S
N2615 H2620 0.984 . S
N2615 H2621 0.985 . S
C2616 C2610 1.379 1_554 S
C2616 C2613 1.363 . S
C2616 N2614 1.356 . S
C2617 C2611 1.363 . S
C2617 C2612 1.379 1_556 S
C2617 N2615 1.356 . S
N2618 C2610 1.356 . S
N2618 H2624 0.984 . S
N2618 H2625 0.984 . S
N2619 C2612 1.356 . S
N2619 H2622 0.984 . S
N2619 H2623 0.985 . S
H2620 N2615 0.984 . S
H2621 N2615 0.985 . S
H2622 N2619 0.984 . S
H2623 N2619 0.985 . S
H2624 N2618 0.984 . S
H2625 N2618 0.984 . S
H2626 N2614 0.984 . S
H2627 N2614 0.985 . S
C2628 C2629 1.363 . S
C2628 C2634 1.379 . S
C2628 N2636 1.356 . S
C2629 C2628 1.363 . S
C2629 C2635 1.363 . S
C2630 C2631 1.363 . S
C2630 C2635 1.379 . S
C2630 N2637 1.356 . S
C2631 C2630 1.363 . S
C2631 C2634 1.363 . S
N2632 C2634 1.356 . S
N2632 H2644 0.984 . S
N2632 H2645 0.985 . S
N2633 C2635 1.356 . S
N2633 H2638 0.984 . S
N2633 H2639 0.985 . S
C2634 C2628 1.379 . S
C2634 C2631 1.363 . S
C2634 N2632 1.356 . S
C2635 C2629 1.363 . S
C2635 C2630 1.379 . S
C2635 N2633 1.356 . S
N2636 C2628 1.356 . S
N2636 H2642 0.984 . S
N2636 H2643 0.984 . S
N2637 C2630 1.356 . S
N2637 H2640 0.984 . S
N2637 H2641 0.985 . S
H2638 N2633 0.984 . S
H2639 N2633 0.985 . S
H2640 N2637 0.984 . S
H2641 N2637 0.985 . S
H2642 N2636 0.984 . S
H2643 N2636 0.984 . S
H2644 N2632 0.984 . S
H2645 N2632 0.985 . S
C2646 C2647 1.363 . S
C2646 C2652 1.379 . S
C2646 N2654 1.356 . S
C2647 C2646 1.363 . S
C2647 C2653 1.363 . S
C2648 C2649 1.363 . S
C2648 C2653 1.379 . S
C2648 N2655 1.356 . S
C2649 C2648 1.363 . S
C2649 C2652 1.363 . S
N2650 C2652 1.356 . S
N2650 H2662 0.984 . S
N2650 H2663 0.985 . S
N2651 C2653 1.356 . S
N2651 H2656 0.984 . S
N2651 H2657 0.985 . S
C2652 C2646 1.379 . S
C2652 C2649 1.363 . S
C2652 N2650 1.356 . S
C2653 C2647 1.363 . S
C2653 C2648 1.379 . S
C2653 N2651 1.356 . S
N2654 C2646 1.356 . S
N2654 H2660 0.984 . S
N2654 H2661 0.984 . S
N2655 C2648 1.356 . S
N2655 H2658 0.984 . S
N2655 H2659 0.985 . S
H2656 N2651 0.984 . S
H2657 N2651 0.985 . S
H2658 N2655 0.984 . S
H2659 N2655 0.985 . S
H2660 N2654 0.984 . S
H2661 N2654 0.984 . S
H2662 N2650 0.984 . S
H2663 N2650 0.985 . S
C2664 C2665 1.363 . S
C2664 C2670 1.379 . S
C2664 N2672 1.356 . S
C2665 C2664 1.363 . S
C2665 C2671 1.363 . S
C2666 C2667 1.363 . S
C2666 C2671 1.379 . S
C2666 N2673 1.356 . S
C2667 C2666 1.363 . S
C2667 C2670 1.363 . S
N2668 C2670 1.356 . S
N2668 H2680 0.984 . S
N2668 H2681 0.985 . S
N2669 C2671 1.356 . S
N2669 H2674 0.984 . S
N2669 H2675 0.985 . S
C2670 C2664 1.379 . S
C2670 C2667 1.363 . S
C2670 N2668 1.356 . S
C2671 C2665 1.363 . S
C2671 C2666 1.379 . S
C2671 N2669 1.356 . S
N2672 C2664 1.356 . S
N2672 H2678 0.984 . S
N2672 H2679 0.984 . S
N2673 C2666 1.356 . S
N2673 H2676 0.984 . S
N2673 H2677 0.985 . S
H2674 N2669 0.984 . S
H2675 N2669 0.985 . S
H2676 N2673 0.984 . S
H2677 N2673 0.985 . S
H2678 N2672 0.984 . S
H2679 N2672 0.984 . S
H2680 N2668 0.984 . S
H2681 N2668 0.985 . S
C2682 C2683 1.363 . S
C2682 C2688 1.379 1_554 S
C2682 N2690 1.356 . S
C2683 C2682 1.363 . S
C2683 C2689 1.363 . S
C2684 C2685 1.363 . S
C2684 C2689 1.379 1_556 S
C2684 N2691 1.356 . S
C2685 C2684 1.363 . S
C2685 C2688 1.363 . S
N2686 C2688 1.356 . S
N2686 H2698 0.984 . S
N2686 H2699 0.985 . S
N2687 C2689 1.356 . S
N2687 H2692 0.984 . S
N2687 H2693 0.985 . S
C2688 C2682 1.379 1_556 S
C2688 C2685 1.363 . S
C2688 N2686 1.356 . S
C2689 C2683 1.363 . S
C2689 C2684 1.379 1_554 S
C2689 N2687 1.356 . S
N2690 C2682 1.356 . S
N2690 H2696 0.984 . S
N2690 H2697 0.984 . S
N2691 C2684 1.356 . S
N2691 H2694 0.984 . S
N2691 H2695 0.985 . S
H2692 N2687 0.984 . S
H2693 N2687 0.985 . S
H2694 N2691 0.984 . S
H2695 N2691 0.985 . S
H2696 N2690 0.984 . S
H2697 N2690 0.984 . S
H2698 N2686 0.984 . S
H2699 N2686 0.985 . S
C2700 C2701 1.363 . S
C2700 C2706 1.379 1_556 S
C2700 N2708 1.356 . S
C2701 C2700 1.363 . S
C2701 C2707 1.363 . S
C2702 C2703 1.363 . S
C2702 C2707 1.379 1_554 S
C2702 N2709 1.356 . S
C2703 C2702 1.363 . S
C2703 C2706 1.363 . S
N2704 C2706 1.356 . S
N2704 H2716 0.984 . S
N2704 H2717 0.985 . S
N2705 C2707 1.356 . S
N2705 H2710 0.984 . S
N2705 H2711 0.985 . S
C2706 C2700 1.379 1_554 S
C2706 C2703 1.363 . S
C2706 N2704 1.356 . S
C2707 C2701 1.363 . S
C2707 C2702 1.379 1_556 S
C2707 N2705 1.356 . S
N2708 C2700 1.356 . S
N2708 H2714 0.984 . S
N2708 H2715 0.984 . S
N2709 C2702 1.356 . S
N2709 H2712 0.984 . S
N2709 H2713 0.985 . S
H2710 N2705 0.984 . S
H2711 N2705 0.985 . S
H2712 N2709 0.984 . S
H2713 N2709 0.985 . S
H2714 N2708 0.984 . S
H2715 N2708 0.984 . S
H2716 N2704 0.984 . S
H2717 N2704 0.985 . S
C2718 C2719 1.363 . S
C2718 C2724 1.379 1_554 S
C2718 N2726 1.356 . S
C2719 C2718 1.363 . S
C2719 C2725 1.363 . S
C2720 C2721 1.363 . S
C2720 C2725 1.379 1_556 S
C2720 N2727 1.356 . S
C2721 C2720 1.363 . S
C2721 C2724 1.363 . S
N2722 C2724 1.356 . S
N2722 H2734 0.984 . S
N2722 H2735 0.985 . S
N2723 C2725 1.356 . S
N2723 H2728 0.984 . S
N2723 H2729 0.985 . S
C2724 C2718 1.379 1_556 S
C2724 C2721 1.363 . S
C2724 N2722 1.356 . S
C2725 C2719 1.363 . S
C2725 C2720 1.379 1_554 S
C2725 N2723 1.356 . S
N2726 C2718 1.356 . S
N2726 H2732 0.984 . S
N2726 H2733 0.984 . S
N2727 C2720 1.356 . S
N2727 H2730 0.984 . S
N2727 H2731 0.985 . S
H2728 N2723 0.984 . S
H2729 N2723 0.985 . S
H2730 N2727 0.984 . S
H2731 N2727 0.985 . S
H2732 N2726 0.984 . S
H2733 N2726 0.984 . S
H2734 N2722 0.984 . S
H2735 N2722 0.985 . S
C2736 C2737 1.363 . S
C2736 C2742 1.379 1_556 S
C2736 N2744 1.356 . S
C2737 C2736 1.363 . S
C2737 C2743 1.363 . S
C2738 C2739 1.363 . S
C2738 C2743 1.379 1_554 S
C2738 N2745 1.356 . S
C2739 C2738 1.363 . S
C2739 C2742 1.363 . S
N2740 C2742 1.356 . S
N2740 H2752 0.984 . S
N2740 H2753 0.985 . S
N2741 C2743 1.356 . S
N2741 H2746 0.984 . S
N2741 H2747 0.985 . S
C2742 C2736 1.379 1_554 S
C2742 C2739 1.363 . S
C2742 N2740 1.356 . S
C2743 C2737 1.363 . S
C2743 C2738 1.379 1_556 S
C2743 N2741 1.356 . S
N2744 C2736 1.356 . S
N2744 H2750 0.984 . S
N2744 H2751 0.984 . S
N2745 C2738 1.356 . S
N2745 H2748 0.984 . S
N2745 H2749 0.985 . S
H2746 N2741 0.984 . S
H2747 N2741 0.985 . S
H2748 N2745 0.984 . S
H2749 N2745 0.985 . S
H2750 N2744 0.984 . S
H2751 N2744 0.984 . S
H2752 N2740 0.984 . S
H2753 N2740 0.985 . S
C2754 C2755 1.363 . S
C2754 C2760 1.379 1_556 S
C2754 N2762 1.356 . S
C2755 C2754 1.363 . S
C2755 C2761 1.363 . S
C2756 C2757 1.363 . S
C2756 C2761 1.379 1_554 S
C2756 N2763 1.356 . S
C2757 C2756 1.363 . S
C2757 C2760 1.363 . S
N2758 C2760 1.356 . S
N2758 H2770 0.984 . S
N2758 H2771 0.985 . S
N2759 C2761 1.356 . S
N2759 H2764 0.984 . S
N2759 H2765 0.985 . S
C2760 C2754 1.379 1_554 S
C2760 C2757 1.363 . S
C2760 N2758 1.356 . S
C2761 C2755 1.363 . S
C2761 C2756 1.379 1_556 S
C2761 N2759 1.356 . S
N2762 C2754 1.356 . S
N2762 H2768 0.984 . S
N2762 H2769 0.984 . S
N2763 C2756 1.356 . S
N2763 H2766 0.984 . S
N2763 H2767 0.985 . S
H2764 N2759 0.984 . S
H2765 N2759 0.985 . S
H2766 N2763 0.984 . S
H2767 N2763 0.985 . S
H2768 N2762 0.984 . S
H2769 N2762 0.984 . S
H2770 N2758 0.984 . S
H2771 N2758 0.985 . S
C2772 C2773 1.363 . S
C2772 C2778 1.379 1_556 S
C2772 N2780 1.356 . S
C2773 C2772 1.363 . S
C2773 C2779 1.363 . S
C2774 C2775 1.363 . S
C2774 C2779 1.379 1_554 S
C2774 N2781 1.356 . S
C2775 C2774 1.363 . S
C2775 C2778 1.363 . S
N2776 C2778 1.356 . S
N2776 H2788 0.984 . S
N2776 H2789 0.985 . S
N2777 C2779 1.356 . S
N2777 H2782 0.984 . S
N2777 H2783 0.985 . S
C2778 C2772 1.379 1_554 S
C2778 C2775 1.363 . S
C2778 N2776 1.356 . S
C2779 C2773 1.363 . S
C2779 C2774 1.379 1_556 S
C2779 N2777 1.356 . S
N2780 C2772 1.356 . S
N2780 H2786 0.984 . S
N2780 H2787 0.984 . S
N2781 C2774 1.356 . S
N2781 H2784 0.984 . S
N2781 H2785 0.985 . S
H2782 N2777 0.984 . S
H2783 N2777 0.985 . S
H2784 N2781 0.984 . S
H2785 N2781 0.985 . S
H2786 N2780 0.984 . S
H2787 N2780 0.984 . S
H2788 N2776 0.984 . S
H2789 N2776 0.985 . S
C2790 C2791 1.363 . S
C2790 C2796 1.379 . S
C2790 N2798 1.356 . S
C2791 C2790 1.363 . S
C2791 C2797 1.363 . S
C2792 C2793 1.363 . S
C2792 C2797 1.379 . S
C2792 N2799 1.356 . S
C2793 C2792 1.363 . S
C2793 C2796 1.363 . S
N2794 C2796 1.356 . S
N2794 H2806 0.984 . S
N2794 H2807 0.985 . S
N2795 C2797 1.356 . S
N2795 H2800 0.984 . S
N2795 H2801 0.985 . S
C2796 C2790 1.379 . S
C2796 C2793 1.363 . S
C2796 N2794 1.356 . S
C2797 C2791 1.363 . S
C2797 C2792 1.379 . S
C2797 N2795 1.356 . S
N2798 C2790 1.356 . S
N2798 H2804 0.984 . S
N2798 H2805 0.984 . S
N2799 C2792 1.356 . S
N2799 H2802 0.984 . S
N2799 H2803 0.985 . S
H2800 N2795 0.984 . S
H2801 N2795 0.985 . S
H2802 N2799 0.984 . S
H2803 N2799 0.985 . S
H2804 N2798 0.984 . S
H2805 N2798 0.984 . S
H2806 N2794 0.984 . S
H2807 N2794 0.985 . S
C2808 C2809 1.363 . S
C2808 C2814 1.379 . S
C2808 N2816 1.356 . S
C2809 C2808 1.363 . S
C2809 C2815 1.363 . S
C2810 C2811 1.363 . S
C2810 C2815 1.379 . S
C2810 N2817 1.356 . S
C2811 C2810 1.363 . S
C2811 C2814 1.363 . S
N2812 C2814 1.356 . S
N2812 H2824 0.984 . S
N2812 H2825 0.985 . S
N2813 C2815 1.356 . S
N2813 H2818 0.984 . S
N2813 H2819 0.985 . S
C2814 C2808 1.379 . S
C2814 C2811 1.363 . S
C2814 N2812 1.356 . S
C2815 C2809 1.363 . S
C2815 C2810 1.379 . S
C2815 N2813 1.356 . S
N2816 C2808 1.356 . S
N2816 H2822 0.984 . S
N2816 H2823 0.984 . S
N2817 C2810 1.356 . S
N2817 H2820 0.984 . S
N2817 H2821 0.985 . S
H2818 N2813 0.984 . S
H2819 N2813 0.985 . S
H2820 N2817 0.984 . S
H2821 N2817 0.985 . S
H2822 N2816 0.984 . S
H2823 N2816 0.984 . S
H2824 N2812 0.984 . S
H2825 N2812 0.985 . S
C2826 C2827 1.363 . S
C2826 C2832 1.379 . S
C2826 N2834 1.356 . S
C2827 C2826 1.363 . S
C2827 C2833 1.363 . S
C2828 C2829 1.363 . S
C2828 C2833 1.379 . S
C2828 N2835 1.356 . S
C2829 C2828 1.363 . S
C2829 C2832 1.363 . S
N2830 C2832 1.356 . S
N2830 H2842 0.984 . S
N2830 H2843 0.985 . S
N2831 C2833 1.356 . S
N2831 H2836 0.984 . S
N2831 H2837 0.985 . S
C2832 C2826 1.379 . S
C2832 C2829 1.363 . S
C2832 N2830 1.356 . S
C2833 C2827 1.363 . S
C2833 C2828 1.379 . S
C2833 N2831 1.356 . S
N2834 C2826 1.356 . S
N2834 H2840 0.984 . S
N2834 H2841 0.984 . S
N2835 C2828 1.356 . S
N2835 H2838 0.984 . S
N2835 H2839 0.985 . S
H2836 N2831 0.984 . S
H2837 N2831 0.985 . S
H2838 N2835 0.984 . S
H2839 N2835 0.985 . S
H2840 N2834 0.984 . S
H2841 N2834 0.984 . S
H2842 N2830 0.984 . S
H2843 N2830 0.985 . S
C1225 C20 1.526 . S
C1227 C530 1.526 . S
C1243 C564 1.525 . S
C1245 C54 1.525 . S
C1261 C598 1.525 . S
C1263 C88 1.525 . S
C1279 C836 1.526 . S
C1281 C122 1.526 . S
C1297 C156 1.525 . S
C1299 C870 1.525 . S
C1315 C904 1.525 . S
C1317 C190 1.525 . S
C1333 C1142 1.526 . S
C1335 C224 1.526 . S
C1351 C258 1.525 . S
C1353 C1176 1.525 . S
C1369 C1210 1.525 . S
C1371 C292 1.525 . S
C1387 C632 1.526 . S
C1389 C326 1.526 . S
C1405 C666 1.525 . S
C1407 C360 1.525 . S
C1423 C700 1.525 . S
C1425 C394 1.525 . S
C1441 C938 1.526 . S
C1443 C428 1.526 . S
C1459 C972 1.525 . S
C1461 C462 1.525 . S
C1477 C496 1.525 . S
C1479 C1006 1.525 . S
C1495 C734 1.526 . S
C1497 C1040 1.526 . S
C1513 C1074 1.525 . S
C1515 C768 1.525 . S
C1531 C802 1.525 . S
C1533 C1108 1.525 . S
C1549 C1019 1.506 . S
C1551 C33 1.506 . S
C1567 C67 1.506 . S
C1569 C951 1.506 . S
C1585 C985 1.506 . S
C1587 C101 1.506 . S
C1603 C475 1.506 . S
C1605 C135 1.506 . S
C1621 C509 1.506 . S
C1623 C169 1.506 . S
C1639 C441 1.506 . S
C1641 C203 1.506 . S
C1657 C237 1.506 . S
C1659 C815 1.506 . S
C1675 C747 1.506 . S
C1677 C271 1.506 . S
C1693 C305 1.506 . S
C1695 C781 1.506 . S
C1711 C1087 1.506 . S
C1713 C339 1.506 . S
C1729 C373 1.506 . S
C1731 C1121 1.506 . S
C1747 C407 1.506 . S
C1749 C1053 1.506 . S
C1765 C883 1.506 . S
C1767 C543 1.506 . S
C1783 C917 1.506 . S
C1785 C577 1.506 . S
C1801 C611 1.506 . S
C1803 C849 1.506 . S
C1819 C645 1.506 . S
C1821 C1223 1.506 . S
C1837 C1155 1.506 . S
C1839 C679 1.506 . S
C1855 C1189 1.506 . S
C1857 C713 1.506 . S
C1873 C2 1.492 . S
C1875 C376 1.492 . S
C1891 C36 1.492 . S
C1893 C308 1.492 . S
C1909 C70 1.492 . S
C1911 C342 1.492 . S
C1927 C104 1.492 . S
C1929 C240 1.492 . S
C1945 C274 1.492 . S
C1947 C138 1.492 . S
C1963 C206 1.492 . S
C1965 C172 1.492 . S
C1981 C784 1.492 . S
C1983 C410 1.492 . S
C1999 C716 1.492 . S
C2001 C444 1.492 . S
C2017 C478 1.492 . S
C2019 C750 1.492 . S
C2035 C648 1.492 . S
C2037 C512 1.492 . S
C2053 C682 1.492 . S
C2055 C546 1.492 . S
C2071 C614 1.492 . S
C2073 C580 1.492 . S
C2089 C1192 1.492 . S
C2091 C818 1.492 . S
C2107 C852 1.492 . S
C2109 C1124 1.492 . S
C2125 C1158 1.492 . S
C2127 C886 1.492 . S
C2143 C1056 1.492 . S
C2145 C920 1.492 . S
C2161 C1090 1.492 . S
C2163 C954 1.492 . S
C2179 C1022 1.492 . S
C2181 C988 1.492 . S
C2197 C9 1.408 . S
C2199 C5 1.445 . S
C2215 C39 1.445 . S
C2217 C43 1.408 . S
C2233 C77 1.408 . S
C2235 C73 1.445 . S
C2251 C107 1.445 . S
C2253 C111 1.408 . S
C2269 C141 1.445 . S
C2271 C145 1.408 . S
C2287 C175 1.445 . S
C2289 C179 1.408 . S
C2305 C209 1.445 . S
C2307 C213 1.408 . S
C2323 C243 1.445 . S
C2325 C247 1.408 . S
C2341 C281 1.408 . S
C2343 C277 1.445 . S
C2359 C315 1.408 . S
C2361 C311 1.445 . S
C2377 C345 1.445 . S
C2379 C349 1.408 . S
C2395 C383 1.408 . S
C2397 C379 1.445 . S
C2413 C413 1.445 . S
C2415 C417 1.408 . S
C2431 C447 1.445 . S
C2433 C451 1.408 . S
C2449 C481 1.445 . S
C2451 C485 1.408 . S
C2467 C515 1.445 . S
C2469 C519 1.408 . S
C2485 C549 1.445 . S
C2487 C553 1.408 . S
C2503 C587 1.408 . S
C2505 C583 1.445 . S
C2521 C617 1.445 . S
C2523 C621 1.408 . S
C2539 C655 1.408 . S
C2541 C651 1.445 . S
C2557 C689 1.408 . S
C2559 C685 1.445 . S
C2575 C723 1.408 . S
C2577 C719 1.445 . S
C2593 C753 1.445 . S
C2595 C757 1.408 . S
C2611 C787 1.445 . S
C2613 C791 1.408 . S
C2629 C825 1.408 . S
C2631 C821 1.445 . S
C2647 C859 1.408 . S
C2649 C855 1.445 . S
C2665 C889 1.445 . S
C2667 C893 1.408 . S
C2683 C923 1.445 . S
C2685 C927 1.408 . S
C2701 C961 1.408 . S
C2703 C957 1.445 . S
C2719 C991 1.445 . S
C2721 C995 1.408 . S
C2737 C1029 1.408 . S
C2739 C1025 1.445 . S
C2755 C1063 1.408 . S
C2757 C1059 1.445 . S
C2773 C1097 1.408 . S
C2775 C1093 1.445 . S
C2791 C1127 1.445 . S
C2793 C1131 1.408 . S
C2809 C1165 1.408 . S
C2811 C1161 1.445 . S
C2827 C1195 1.445 . S
C2829 C1199 1.408 . S
