# Generated by pormake.
# Topology zfl, (5)-cn, num edge types: 1
# Building blocks:
#     Node 0, Type 0, BuildingBlock: BEQFEK_clean_sbu_0, # of connection points: 5
#     Node 1, Type 0, BuildingBlock: BEQFEK_clean_sbu_0, # of connection points: 5
#     Node 2, Type 0, BuildingBlock: BEQFEK_clean_sbu_0, # of connection points: 5
#     Node 3, Type 0, BuildingBlock: BEQFEK_clean_sbu_0, # of connection points: 5
#     Node 4, Type 0, BuildingBlock: BEQFEK_clean_sbu_0, # of connection points: 5
#     Node 5, Type 0, BuildingBlock: BEQFEK_clean_sbu_0, # of connection points: 5
#     Node 6, Type 0, BuildingBlock: BEQFEK_clean_sbu_0, # of connection points: 5
#     Node 7, Type 0, BuildingBlock: BEQFEK_clean_sbu_0, # of connection points: 5
#     Node 8, Type 0, BuildingBlock: BEQFEK_clean_sbu_0, # of connection points: 5
#     Node 9, Type 0, BuildingBlock: BEQFEK_clean_sbu_0, # of connection points: 5
#     Node 10, Type 0, BuildingBlock: BEQFEK_clean_sbu_0, # of connection points: 5
#     Node 11, Type 0, BuildingBlock: BEQFEK_clean_sbu_0, # of connection points: 5
#     Node 12, Type 0, BuildingBlock: BEQFEK_clean_sbu_0, # of connection points: 5
#     Node 13, Type 0, BuildingBlock: BEQFEK_clean_sbu_0, # of connection points: 5
#     Node 14, Type 0, BuildingBlock: BEQFEK_clean_sbu_0, # of connection points: 5
#     Node 15, Type 0, BuildingBlock: BEQFEK_clean_sbu_0, # of connection points: 5
#     Edge 16, Type (0, 0), BuildingBlock: EZIPEK_clean_linker_0, # of connection points: 2
#     Edge 17, Type (0, 0), BuildingBlock: EZIPEK_clean_linker_0, # of connection points: 2
#     Edge 18, Type (0, 0), BuildingBlock: EZIPEK_clean_linker_0, # of connection points: 2
#     Edge 19, Type (0, 0), BuildingBlock: EZIPEK_clean_linker_0, # of connection points: 2
#     Edge 20, Type (0, 0), BuildingBlock: EZIPEK_clean_linker_0, # of connection points: 2
#     Edge 21, Type (0, 0), BuildingBlock: EZIPEK_clean_linker_0, # of connection points: 2
#     Edge 22, Type (0, 0), BuildingBlock: EZIPEK_clean_linker_0, # of connection points: 2
#     Edge 23, Type (0, 0), BuildingBlock: EZIPEK_clean_linker_0, # of connection points: 2
#     Edge 24, Type (0, 0), BuildingBlock: EZIPEK_clean_linker_0, # of connection points: 2
#     Edge 25, Type (0, 0), BuildingBlock: EZIPEK_clean_linker_0, # of connection points: 2
#     Edge 26, Type (0, 0), BuildingBlock: EZIPEK_clean_linker_0, # of connection points: 2
#     Edge 27, Type (0, 0), BuildingBlock: EZIPEK_clean_linker_0, # of connection points: 2
#     Edge 28, Type (0, 0), BuildingBlock: EZIPEK_clean_linker_0, # of connection points: 2
#     Edge 29, Type (0, 0), BuildingBlock: EZIPEK_clean_linker_0, # of connection points: 2
#     Edge 30, Type (0, 0), BuildingBlock: EZIPEK_clean_linker_0, # of connection points: 2
#     Edge 31, Type (0, 0), BuildingBlock: EZIPEK_clean_linker_0, # of connection points: 2
#     Edge 32, Type (0, 0), BuildingBlock: EZIPEK_clean_linker_0, # of connection points: 2
#     Edge 33, Type (0, 0), BuildingBlock: EZIPEK_clean_linker_0, # of connection points: 2
#     Edge 34, Type (0, 0), BuildingBlock: EZIPEK_clean_linker_0, # of connection points: 2
#     Edge 35, Type (0, 0), BuildingBlock: EZIPEK_clean_linker_0, # of connection points: 2
#     Edge 36, Type (0, 0), BuildingBlock: EZIPEK_clean_linker_0, # of connection points: 2
#     Edge 37, Type (0, 0), BuildingBlock: EZIPEK_clean_linker_0, # of connection points: 2
#     Edge 38, Type (0, 0), BuildingBlock: EZIPEK_clean_linker_0, # of connection points: 2
#     Edge 39, Type (0, 0), BuildingBlock: EZIPEK_clean_linker_0, # of connection points: 2
#     Edge 40, Type (0, 0), BuildingBlock: EZIPEK_clean_linker_0, # of connection points: 2
#     Edge 41, Type (0, 0), BuildingBlock: EZIPEK_clean_linker_0, # of connection points: 2
#     Edge 42, Type (0, 0), BuildingBlock: EZIPEK_clean_linker_0, # of connection points: 2
#     Edge 43, Type (0, 0), BuildingBlock: EZIPEK_clean_linker_0, # of connection points: 2
#     Edge 44, Type (0, 0), BuildingBlock: EZIPEK_clean_linker_0, # of connection points: 2
#     Edge 45, Type (0, 0), BuildingBlock: EZIPEK_clean_linker_0, # of connection points: 2
#     Edge 46, Type (0, 0), BuildingBlock: EZIPEK_clean_linker_0, # of connection points: 2
#     Edge 47, Type (0, 0), BuildingBlock: EZIPEK_clean_linker_0, # of connection points: 2
#     Edge 48, Type (0, 0), BuildingBlock: EZIPEK_clean_linker_0, # of connection points: 2
#     Edge 49, Type (0, 0), BuildingBlock: EZIPEK_clean_linker_0, # of connection points: 2
#     Edge 50, Type (0, 0), BuildingBlock: EZIPEK_clean_linker_0, # of connection points: 2
#     Edge 51, Type (0, 0), BuildingBlock: EZIPEK_clean_linker_0, # of connection points: 2
#     Edge 52, Type (0, 0), BuildingBlock: EZIPEK_clean_linker_0, # of connection points: 2
#     Edge 53, Type (0, 0), BuildingBlock: EZIPEK_clean_linker_0, # of connection points: 2
#     Edge 54, Type (0, 0), BuildingBlock: EZIPEK_clean_linker_0, # of connection points: 2
#     Edge 55, Type (0, 0), BuildingBlock: EZIPEK_clean_linker_0, # of connection points: 2
# Relax obj value: 0.172
# Max RMSD: 0.231
# Mean RMSD: 0.216
data_MOF--net-zfl--node1-BEQFEK_clean_sbu_0--edge1-EZIPEK_clean_linker_0
_symmetry_space_group_name_H-M    P1
_symmetry_Int_Tables_number       1
_symmetry_cell_setting            triclinic
loop_
_symmetry_equiv_pos_as_xyz
'x, y, z'
_cell_length_a     20.342747
_cell_length_b     20.419054
_cell_length_c     59.778003
_cell_angle_alpha  89.9809
_cell_angle_beta   90.100291
_cell_angle_gamma 89.71476
loop_
_atom_site_label
_atom_site_type_symbol
_atom_site_fract_x
_atom_site_fract_y
_atom_site_fract_z
_atom_type_partial_charge
Co0 Co 0.61249 0.03075 0.17562 0.0
Co1 Co 0.62983 0.02425 0.12291 0.0
C2 C 0.52278 0.10179 0.14244 0.0
O3 O 0.54293 0.08929 0.16221 0.0
O4 O 0.54873 0.0751 0.12546 0.0
C5 C 0.53371 0.0186 0.21563 0.0
O6 O 0.48486 0.03097 0.20184 0.0
C7 C 0.59331 0.0033 0.07603 0.0
C8 C 0.68898 0.99721 0.0588 0.0
C9 C 0.62171 0.9964 0.05517 0.0
N10 N 0.64135 0.00814 0.09147 0.0
N11 N 0.69853 0.00404 0.08104 0.0
C12 C 0.52136 0.00783 0.08095 0.0
H13 H 0.5105 0.98584 0.09749 0.0
H14 H 0.49219 0.98292 0.06777 0.0
H15 H 0.50658 0.06021 0.08136 0.0
C16 C 0.62089 0.88778 0.16964 0.0
N17 N 0.62247 0.94871 0.16117 0.0
N18 N 0.62491 0.94516 0.13922 0.0
C19 C 0.62111 0.88177 0.13302 0.0
C20 C 0.61759 0.84323 0.15214 0.0
C21 C 0.61801 0.87248 0.1941 0.0
H22 H 0.65333 0.90376 0.20331 0.0
H23 H 0.56801 0.88327 0.20044 0.0
H24 H 0.62961 0.82011 0.19729 0.0
O25 O 0.6932 0.08156 0.17241 0.0
O26 O 0.70041 0.0842 0.13507 0.0
H27 H 0.6573 0.87564 0.09952 0.0
H28 H 0.60992 0.80533 0.1081 0.0
C29 C 0.6141 0.85933 0.1093 0.0
H30 H 0.56964 0.88201 0.10182 0.0
H31 H 0.74405 0.00713 0.08904 0.0
O32 O 0.59228 0.01701 0.20813 0.0
C33 C 0.71907 0.10322 0.15449 0.0
Co34 Co 0.45673 0.56642 0.68262 0.0
Co35 Co 0.43908 0.59911 0.63091 0.0
C36 C 0.38077 0.47905 0.65474 0.0
O37 O 0.41139 0.48575 0.67317 0.0
O38 O 0.38862 0.51898 0.63862 0.0
C39 C 0.44356 0.53581 0.72994 0.0
O40 O 0.38287 0.52243 0.72414 0.0
C41 C 0.4613 0.55182 0.58508 0.0
C42 C 0.44944 0.64114 0.56465 0.0
C43 C 0.46419 0.57486 0.56322 0.0
N44 N 0.44621 0.60213 0.59876 0.0
N45 N 0.43894 0.65536 0.58639 0.0
C46 C 0.47139 0.48297 0.59296 0.0
H47 H 0.49854 0.48292 0.60908 0.0
H48 H 0.49808 0.4531 0.58038 0.0
H49 H 0.42265 0.46047 0.59592 0.0
C50 C 0.5973 0.57524 0.66815 0.0
N51 N 0.53208 0.58107 0.66446 0.0
N52 N 0.52285 0.60327 0.64407 0.0
C53 C 0.58114 0.61819 0.63495 0.0
C54 C 0.63081 0.59821 0.64939 0.0
C55 C 0.62623 0.54359 0.6885 0.0
H56 H 0.59416 0.50307 0.69416 0.0
H57 H 0.67646 0.52456 0.68517 0.0
H58 H 0.62877 0.58027 0.70216 0.0
O59 O 0.38799 0.63956 0.67891 0.0
O60 O 0.38475 0.66937 0.64286 0.0
H61 H 0.63859 0.67428 0.61142 0.0
H62 H 0.58202 0.61685 0.59916 0.0
C63 C 0.58901 0.65225 0.61294 0.0
H64 H 0.55102 0.6911 0.61123 0.0
H65 H 0.42739 0.70152 0.5928 0.0
O66 O 0.48347 0.55679 0.71517 0.0
C67 C 0.36533 0.67552 0.66301 0.0
Co68 Co 0.96941 0.44189 0.16636 0.0
Co69 Co 0.92313 0.42969 0.11619 0.0
C70 C 0.05883 0.38458 0.13445 0.0
O71 O 0.05321 0.40566 0.15443 0.0
O72 O 0.01217 0.39337 0.12052 0.0
C73 C 0.02023 0.48468 0.21056 0.0
O74 O 0.07155 0.50737 0.19979 0.0
C75 C 0.95483 0.47041 0.07092 0.0
C76 C 0.87672 0.42577 0.05039 0.0
C77 C 0.93371 0.46242 0.04914 0.0
N78 N 0.91257 0.43988 0.08462 0.0
N79 N 0.8657 0.41346 0.07225 0.0
C80 C 0.01445 0.50677 0.07846 0.0
H81 H 0.01851 0.50679 0.09697 0.0
H82 H 0.01168 0.55793 0.07223 0.0
H83 H 0.05894 0.48417 0.07096 0.0
C84 C 0.93756 0.58402 0.15488 0.0
N85 N 0.93933 0.51905 0.15045 0.0
N86 N 0.91039 0.50948 0.13105 0.0
C87 C 0.88457 0.56603 0.12351 0.0
C88 C 0.90251 0.61598 0.13796 0.0
C89 C 0.97498 0.61587 0.17343 0.0
H90 H 0.95054 0.60557 0.18955 0.0
H91 H 0.02541 0.59528 0.17406 0.0
H92 H 0.97803 0.66968 0.17113 0.0
O93 O 0.90589 0.36626 0.16296 0.0
O94 O 0.86625 0.36227 0.12815 0.0
H95 H 0.81092 0.61578 0.10366 0.0
H96 H 0.87505 0.57589 0.08794 0.0
C97 C 0.84311 0.57177 0.10285 0.0
H98 H 0.81265 0.52719 0.10086 0.0
H99 H 0.82702 0.38589 0.07868 0.0
O100 O 0.9744 0.45704 0.1996 0.0
C101 C 0.86948 0.34009 0.14801 0.0
Co102 Co 0.03643 0.9445 0.67308 0.0
Co103 Co 0.05087 0.89006 0.62336 0.0
C104 C 0.09626 0.02673 0.63848 0.0
O105 O 0.07797 0.02245 0.65882 0.0
O106 O 0.08666 0.97922 0.62508 0.0
C107 C 0.00936 0.0171 0.71509 0.0
O108 O 0.00898 0.07 0.70257 0.0
C109 C 0.02081 0.90507 0.57531 0.0
C110 C 0.06403 0.81569 0.56058 0.0
C111 C 0.03159 0.87335 0.55518 0.0
N112 N 0.04566 0.86813 0.59201 0.0
N113 N 0.07124 0.81456 0.58304 0.0
C114 C 0.98605 0.96903 0.57841 0.0
H115 H 0.98543 0.98357 0.59629 0.0
H116 H 0.93483 0.96462 0.57219 0.0
H117 H 0.01018 0.00721 0.56814 0.0
C118 C 0.89414 0.92183 0.65995 0.0
N119 N 0.95962 0.91616 0.65656 0.0
N120 N 0.96875 0.88506 0.63749 0.0
C121 C 0.91056 0.86571 0.62919 0.0
C122 C 0.86098 0.89027 0.64266 0.0
C123 C 0.86345 0.96299 0.67778 0.0
H124 H 0.84294 0.93052 0.69087 0.0
H125 H 0.90019 0.99626 0.68531 0.0
H126 H 0.8221 0.99215 0.67073 0.0
O127 O 0.10732 0.87443 0.67331 0.0
O128 O 0.11517 0.83473 0.63865 0.0
H129 H 0.85544 0.79851 0.60876 0.0
H130 H 0.90082 0.85909 0.59355 0.0
C131 C 0.90224 0.82623 0.60828 0.0
H132 H 0.94411 0.7917 0.60631 0.0
H133 H 0.09469 0.7777 0.5922 0.0
O134 O 0.01725 0.9613 0.70587 0.0
C135 C 0.13416 0.83645 0.65895 0.0
Co136 Co 0.55574 0.46955 0.86751 0.0
Co137 Co 0.60492 0.45447 0.91803 0.0
C138 C 0.47274 0.40325 0.9001 0.0
O139 O 0.47749 0.42538 0.88023 0.0
O140 O 0.51851 0.41331 0.9142 0.0
C141 C 0.49869 0.46987 0.82248 0.0
O142 O 0.46206 0.42191 0.82997 0.0
C143 C 0.57506 0.48995 0.96444 0.0
C144 C 0.657 0.4468 0.98372 0.0
C145 C 0.59832 0.48096 0.98605 0.0
N146 N 0.61757 0.46223 0.94995 0.0
N147 N 0.66669 0.43672 0.96163 0.0
C148 C 0.51366 0.52541 0.95771 0.0
H149 H 0.50896 0.52767 0.93923 0.0
H150 H 0.51455 0.57578 0.96468 0.0
H151 H 0.47027 0.50043 0.9649 0.0
C152 C 0.58035 0.60874 0.87956 0.0
N153 N 0.58071 0.54437 0.88448 0.0
N154 N 0.60907 0.53608 0.90406 0.0
C155 C 0.63195 0.59369 0.91148 0.0
C156 C 0.61287 0.64228 0.89655 0.0
C157 C 0.54652 0.63741 0.85956 0.0
H158 H 0.50133 0.60927 0.85574 0.0
H159 H 0.53365 0.68966 0.86232 0.0
H160 H 0.57974 0.6338 0.8449 0.0
O161 O 0.62715 0.4007 0.86835 0.0
O162 O 0.66589 0.3935 0.9034 0.0
H163 H 0.70246 0.64701 0.93136 0.0
H164 H 0.64081 0.60377 0.94705 0.0
C165 C 0.673 0.60145 0.93213 0.0
H166 H 0.70614 0.55848 0.93411 0.0
H167 H 0.70618 0.41135 0.95457 0.0
O168 O 0.54053 0.49657 0.8354 0.0
C169 C 0.66584 0.37557 0.88296 0.0
Co170 Co 0.01435 0.5645 0.35157 0.0
Co171 Co 0.02583 0.59105 0.40412 0.0
C172 C 0.08332 0.47069 0.3821 0.0
O173 O 0.06173 0.48647 0.36286 0.0
O174 O 0.07086 0.50583 0.39919 0.0
C175 C 0.01024 0.50116 0.30787 0.0
O176 O 0.02854 0.44907 0.31919 0.0
C177 C 0.00601 0.55791 0.45165 0.0
C178 C 0.02534 0.6519 0.46859 0.0
C179 C 0.00963 0.58698 0.47255 0.0
N180 N 0.01877 0.60345 0.43596 0.0
N181 N 0.02999 0.65965 0.44624 0.0
C182 C 0.99302 0.48742 0.44675 0.0
H183 H 0.03943 0.45936 0.44887 0.0
H184 H 0.97512 0.4814 0.42933 0.0
H185 H 0.95647 0.46743 0.45867 0.0
C186 C 0.87287 0.57397 0.36345 0.0
N187 N 0.93702 0.58079 0.3685 0.0
N188 N 0.9425 0.59725 0.38972 0.0
C189 C 0.88195 0.60529 0.39837 0.0
C190 C 0.83562 0.58852 0.38229 0.0
C191 C 0.8488 0.54499 0.34205 0.0
H192 H 0.85627 0.5811 0.32843 0.0
H193 H 0.87822 0.50058 0.33809 0.0
H194 H 0.79591 0.53222 0.34287 0.0
O195 O 0.0781 0.6379 0.35492 0.0
O196 O 0.08715 0.65526 0.39167 0.0
H197 H 0.90104 0.66016 0.42822 0.0
H198 H 0.81626 0.63564 0.42477 0.0
C199 C 0.86826 0.62041 0.42241 0.0
H200 H 0.87783 0.57618 0.43267 0.0
H201 H 0.0419 0.70308 0.43801 0.0
O202 O 0.99779 0.5543 0.3183 0.0
C203 C 0.10422 0.66698 0.37158 0.0
Co204 Co 0.93117 0.05473 0.85681 0.0
Co205 Co 0.88523 0.05466 0.90769 0.0
C206 C 0.01564 0.11319 0.89059 0.0
O207 O 0.00994 0.09639 0.87013 0.0
O208 O 0.97069 0.09901 0.90452 0.0
C209 C 0.99443 0.03923 0.81251 0.0
O210 O 0.05017 0.04098 0.82363 0.0
C211 C 0.91782 0.01563 0.95384 0.0
C212 C 0.82991 0.04678 0.97267 0.0
C213 C 0.89189 0.01928 0.97522 0.0
N214 N 0.87328 0.0396 0.93922 0.0
N215 N 0.82056 0.05761 0.95062 0.0
C216 C 0.98479 0.99141 0.94765 0.0
H217 H 0.99222 0.9934 0.92929 0.0
H218 H 0.991 0.94021 0.95354 0.0
H219 H 0.02254 0.02125 0.95629 0.0
C220 C 0.9208 0.90994 0.86657 0.0
N221 N 0.911 0.97367 0.87167 0.0
N222 N 0.88191 0.97668 0.89129 0.0
C223 C 0.86701 0.91606 0.89827 0.0
C224 C 0.89327 0.8714 0.88329 0.0
C225 C 0.96374 0.88616 0.84798 0.0
H226 H 0.99161 0.92713 0.84053 0.0
H227 H 0.9986 0.84847 0.85434 0.0
H228 H 0.9329 0.8626 0.835 0.0
O229 O 0.85888 0.12212 0.86101 0.0
O230 O 0.82156 0.1172 0.8961 0.0
H231 H 0.79289 0.93954 0.92254 0.0
H232 H 0.80661 0.85249 0.91833 0.0
C233 C 0.83055 0.90115 0.9194 0.0
H234 H 0.86511 0.90057 0.93374 0.0
H235 H 0.77893 0.07908 0.94343 0.0
O236 O 0.94043 0.04304 0.82324 0.0
C237 C 0.82057 0.14195 0.87657 0.0
Co238 Co 0.43747 0.91077 0.35065 0.0
Co239 Co 0.42215 0.90048 0.40349 0.0
C240 C 0.37815 0.01934 0.3791 0.0
O241 O 0.39567 0.99385 0.36059 0.0
O242 O 0.38878 0.98955 0.39746 0.0
C243 C 0.47304 0.97734 0.30971 0.0
O244 O 0.46692 0.02972 0.32229 0.0
C245 C 0.44167 0.93244 0.45104 0.0
C246 C 0.41933 0.83851 0.46765 0.0
C247 C 0.43843 0.90238 0.47176 0.0
N248 N 0.42561 0.88832 0.43525 0.0
N249 N 0.41219 0.83228 0.44532 0.0
C250 C 0.45892 0.00224 0.44643 0.0
H251 H 0.41442 0.03303 0.44882 0.0
H252 H 0.47653 0.00806 0.429 0.0
H253 H 0.49707 0.01949 0.45831 0.0
C254 C 0.57437 0.87802 0.36288 0.0
N255 N 0.51087 0.88651 0.36846 0.0
N256 N 0.50532 0.8836 0.39037 0.0
C257 C 0.56546 0.87383 0.39934 0.0
C258 C 0.61145 0.87141 0.38228 0.0
C259 C 0.60062 0.88647 0.33972 0.0
H260 H 0.571 0.85724 0.3278 0.0
H261 H 0.59656 0.93875 0.33493 0.0
H262 H 0.65294 0.87102 0.33871 0.0
O263 O 0.36692 0.84498 0.3536 0.0
O264 O 0.3546 0.8414 0.39075 0.0
H265 H 0.54798 0.8434 0.43304 0.0
H266 H 0.63245 0.86387 0.42729 0.0
C267 C 0.5805 0.87726 0.42379 0.0
H268 H 0.57154 0.92784 0.4298 0.0
H269 H 0.39834 0.78969 0.43694 0.0
O270 O 0.46325 0.92107 0.31832 0.0
C271 C 0.33766 0.82426 0.37106 0.0
Co272 Co 0.43556 0.95411 0.92794 0.0
Co273 Co 0.45057 0.96075 0.87549 0.0
C274 C 0.55522 0.9025 0.90054 0.0
O275 O 0.51827 0.91263 0.91739 0.0
O276 O 0.53773 0.9225 0.88126 0.0
C277 C 0.50628 0.98833 0.96648 0.0
O278 O 0.54762 0.00575 0.95073 0.0
C279 C 0.47983 0.98392 0.82746 0.0
C280 C 0.38188 0.01548 0.81538 0.0
C281 C 0.44632 0.00621 0.80866 0.0
N282 N 0.43712 0.98102 0.8446 0.0
N283 N 0.37866 -0.00049 0.83718 0.0
C284 C 0.551 0.96603 0.82924 0.0
H285 H 0.57464 0.99692 0.84221 0.0
H286 H 0.57676 0.97231 0.81304 0.0
H287 H 0.55541 0.91429 0.83473 0.0
C288 C 0.40242 0.09353 0.92087 0.0
N289 N 0.42006 0.03406 0.91328 0.0
N290 N 0.43725 0.03866 0.89219 0.0
C291 C 0.43674 0.10221 0.88618 0.0
C292 C 0.41411 0.13953 0.90413 0.0
C293 C 0.37335 0.10516 0.94352 0.0
H294 H 0.33778 0.06573 0.94741 0.0
H295 H 0.41251 0.10289 0.95637 0.0
H296 H 0.34848 0.15359 0.94439 0.0
O297 O 0.36695 0.89032 0.92041 0.0
O298 O 0.38486 0.89073 0.88354 0.0
H299 H 0.42327 0.12339 0.85144 0.0
H300 H 0.47844 0.17843 0.86552 0.0
C301 C 0.4625 0.12669 0.86428 0.0
H302 H 0.50446 0.09578 0.8588 0.0
H303 H 0.33671 0.00243 0.84716 0.0
O304 O 0.44977 0.96686 0.9609 0.0
C305 C 0.35604 0.86795 0.90084 0.0
Co306 Co 0.51348 0.40026 0.43318 0.0
Co307 Co 0.51978 0.35138 0.38277 0.0
C308 C 0.58103 0.47897 0.40082 0.0
O309 O 0.55191 0.479 0.4196 0.0
O310 O 0.57165 0.43359 0.38658 0.0
C311 C 0.52925 0.4628 0.47669 0.0
O312 O 0.58074 0.48951 0.46723 0.0
C313 C 0.49246 0.38493 0.33566 0.0
C314 C 0.47524 0.28818 0.32038 0.0
C315 C 0.47225 0.35486 0.3159 0.0
N316 N 0.50484 0.33837 0.35113 0.0
N317 N 0.4959 0.28059 0.34167 0.0
C318 C 0.5 0.4567 0.33996 0.0
H319 H 0.55185 0.46671 0.34452 0.0
H320 H 0.46883 0.47114 0.35438 0.0
H321 H 0.48705 0.48657 0.32509 0.0
C322 C 0.37005 0.38811 0.42287 0.0
N323 N 0.43417 0.37793 0.41808 0.0
N324 N 0.43842 0.3502 0.39828 0.0
C325 C 0.37743 0.33687 0.39085 0.0
C326 C 0.33196 0.36332 0.40553 0.0
C327 C 0.34627 0.42963 0.44179 0.0
H328 H 0.36951 0.41314 0.45761 0.0
H329 H 0.36085 0.48106 0.43862 0.0
H330 H 0.29202 0.42756 0.44348 0.0
O331 O 0.58483 0.32904 0.42994 0.0
O332 O 0.57915 0.28601 0.39553 0.0
H333 H 0.39317 0.25952 0.36737 0.0
H334 H 0.30943 0.28879 0.36854 0.0
C335 C 0.36183 0.30369 0.3692 0.0
H336 H 0.37144 0.33748 0.35516 0.0
H337 H 0.5012 0.23597 0.35002 0.0
O338 O 0.49479 0.42185 0.46566 0.0
C339 C 0.60505 0.28862 0.41496 0.0
Co340 Co 0.10051 0.55574 0.92159 0.0
Co341 Co 0.09444 0.55491 0.86845 0.0
C342 C 0.98733 0.61568 0.89382 0.0
O343 O 0.01817 0.60163 0.91183 0.0
O344 O 0.0105 0.59867 0.87494 0.0
C345 C 0.03815 0.52414 0.96284 0.0
O346 O 0.98914 0.51434 0.94894 0.0
C347 C 0.05426 0.52325 0.82215 0.0
C348 C 0.15014 0.51921 0.8049 0.0
C349 C 0.08343 0.50935 0.80174 0.0
N350 N 0.10161 0.53944 0.83688 0.0
N351 N 0.1587 0.53779 0.82633 0.0
C352 C 0.98273 0.51835 0.82766 0.0
H353 H 0.97555 0.51161 0.84588 0.0
H354 H 0.95984 0.47727 0.81837 0.0
H355 H 0.95767 0.56433 0.82253 0.0
C356 C 0.11995 0.41394 0.91357 0.0
N357 N 0.1122 0.47558 0.90602 0.0
N358 N 0.10195 0.47403 0.88429 0.0
C359 C 0.09836 0.41089 0.87768 0.0
C360 C 0.10919 0.37057 0.89607 0.0
C361 C 0.13653 0.39685 0.9372 0.0
H362 H 0.17306 0.43225 0.9437 0.0
H363 H 0.09153 0.40021 0.94755 0.0
H364 H 0.15668 0.34635 0.93842 0.0
O365 O 0.17168 0.61726 0.9146 0.0
O366 O 0.16447 0.61959 0.87733 0.0
H367 H 0.11591 0.40721 0.84256 0.0
H368 H 0.07445 0.33579 0.85319 0.0
C369 C 0.07889 0.38963 0.85468 0.0
H370 H 0.03066 0.41139 0.85043 0.0
H371 H 0.20381 0.54739 0.83397 0.0
O372 O 0.09342 0.54209 0.95502 0.0
C373 C 0.18967 0.63958 0.89568 0.0
Co374 Co 0.94657 0.04468 0.42628 0.0
Co375 Co 0.93148 0.08645 0.37584 0.0
C376 C 0.87657 0.96509 0.39165 0.0
O377 O 0.88729 0.9797 0.41201 0.0
O378 O 0.90809 0.99266 0.37606 0.0
C379 C 0.98106 0.95856 0.46387 0.0
O380 O 0.98344 0.91238 0.44859 0.0
C381 C 0.9577 0.0724 0.32816 0.0
C382 C 0.91469 0.16169 0.31322 0.0
C383 C 0.94673 0.10361 0.30793 0.0
N384 N 0.93359 0.10996 0.34473 0.0
N385 N 0.90773 0.16333 0.33569 0.0
C386 C 0.99111 0.0078 0.33164 0.0
H387 H 0.0094 0.00349 0.34906 0.0
H388 H 0.03243 0.00182 0.31969 0.0
H389 H 0.95536 0.96795 0.32854 0.0
C390 C 0.08939 0.0639 0.41198 0.0
N391 N 0.02362 0.06798 0.4088 0.0
N392 N 0.01323 0.09735 0.3895 0.0
C393 C 0.07054 0.11729 0.38076 0.0
C394 C 0.12121 0.09479 0.39426 0.0
C395 C 0.12181 0.02591 0.43033 0.0
H396 H 0.13628 0.0601 0.44385 0.0
H397 H 0.08792 0.98873 0.43712 0.0
H398 H 0.1671 0.00145 0.42412 0.0
O399 O 0.88368 0.12027 0.42837 0.0
O400 O 0.86295 0.13659 0.39209 0.0
H401 H 0.12364 0.18389 0.35948 0.0
H402 H 0.07611 0.12322 0.34497 0.0
C403 C 0.07674 0.1563 0.35964 0.0
H404 H 0.03478 0.19093 0.3581 0.0
H405 H 0.88474 0.20049 0.3448 0.0
O406 O 0.96778 0.01712 0.45796 0.0
C407 C 0.84991 0.14653 0.41267 0.0
Co408 Co 0.40986 0.54312 0.11406 0.0
Co409 Co 0.37455 0.52294 0.166 0.0
C410 C 0.49621 0.59324 0.15079 0.0
O411 O 0.48392 0.58558 0.13005 0.0
O412 O 0.45965 0.56807 0.16563 0.0
C413 C 0.49024 0.5281 0.07426 0.0
O414 O 0.53509 0.51312 0.08929 0.0
C415 C 0.40306 0.48014 0.21245 0.0
C416 C 0.304 0.46505 0.22646 0.0
C417 C 0.37034 0.45939 0.23161 0.0
N418 N 0.35824 0.49652 0.19671 0.0
N419 N 0.2991 0.48799 0.20535 0.0
C420 C 0.47582 0.48434 0.20901 0.0
H421 H 0.48909 0.46221 0.19267 0.0
H422 H 0.50374 0.46005 0.22264 0.0
H423 H 0.49029 0.53656 0.20856 0.0
C424 C 0.39939 0.39701 0.11619 0.0
N425 N 0.39125 0.45703 0.12528 0.0
N426 N 0.3743 0.44975 0.14641 0.0
C427 C 0.3705 0.38534 0.15113 0.0
C428 C 0.38845 0.34977 0.13245 0.0
C429 C 0.42763 0.38441 0.09356 0.0
H430 H 0.40237 0.4158 0.08118 0.0
H431 H 0.48071 0.39636 0.09368 0.0
H432 H 0.42183 0.33226 0.08872 0.0
O433 O 0.33449 0.60405 0.11978 0.0
O434 O 0.31051 0.59112 0.15605 0.0
H435 H 0.31861 0.37985 0.18213 0.0
H436 H 0.3567 0.30396 0.17381 0.0
C437 C 0.36247 0.35796 0.17409 0.0
H438 H 0.40687 0.37015 0.18387 0.0
H439 H 0.25531 0.49637 0.19666 0.0
O440 O 0.43248 0.54273 0.08095 0.0
C441 C 0.3016 0.61946 0.13723 0.0
Co442 Co 0.95335 0.41857 0.60295 0.0
Co443 Co 0.93498 0.39212 0.65492 0.0
C444 C 0.88884 0.51664 0.63267 0.0
O445 O 0.91136 0.49918 0.61381 0.0
O446 O 0.89671 0.48041 0.64978 0.0
C447 C 0.98788 0.49318 0.56374 0.0
O448 O 0.99151 0.54088 0.5784 0.0
C449 C 0.96628 0.42504 0.70093 0.0
C450 C 0.93101 0.33982 0.72013 0.0
C451 C 0.96236 0.39966 0.72232 0.0
N452 N 0.93929 0.38215 0.68662 0.0
N453 N 0.91752 0.33156 0.69821 0.0
C454 C 0.99808 0.4878 0.69408 0.0
H455 H 0.00456 0.48968 0.67569 0.0
H456 H 0.04635 0.49302 0.70258 0.0
H457 H 0.96663 0.52954 0.69935 0.0
C458 C 0.09314 0.39391 0.61643 0.0
N459 N 0.028 0.39463 0.62061 0.0
N460 N 0.01862 0.37752 0.6416 0.0
C461 C 0.07694 0.36122 0.65082 0.0
C462 C 0.12652 0.37416 0.6356 0.0
C463 C 0.12349 0.42254 0.59598 0.0
H464 H 0.12078 0.47666 0.59728 0.0
H465 H 0.17583 0.40769 0.59439 0.0
H466 H 0.096 0.40679 0.58091 0.0
O467 O 0.88221 0.35046 0.60534 0.0
O468 O 0.87087 0.33243 0.64207 0.0
H469 H 0.13341 0.31187 0.67625 0.0
H470 H 0.09065 0.38386 0.68547 0.0
C471 C 0.08691 0.3402 0.67457 0.0
H472 H 0.04529 0.30951 0.68017 0.0
H473 H 0.89457 0.29093 0.69112 0.0
O474 O 0.97503 0.43525 0.57042 0.0
C475 C 0.85412 0.32222 0.62185 0.0
Co476 Co 0.06094 0.93834 0.10385 0.0
Co477 Co 0.04455 0.94772 0.15645 0.0
C478 C 0.9438 0.8824 0.131 0.0
O479 O 0.97992 0.89356 0.11404 0.0
O480 O 0.9595 0.90573 0.14999 0.0
C481 C 0.99253 0.97367 0.06455 0.0
O482 O 0.94798 0.98685 0.07979 0.0
C483 C 0.00659 0.9877 0.20256 0.0
C484 C 0.10324 0.9867 0.21948 0.0
C485 C 0.03734 0.00074 0.22285 0.0
N486 N 0.05242 0.96729 0.18783 0.0
N487 N 0.10992 0.96635 0.19817 0.0
C488 C 0.93535 0.99704 0.19709 0.0
H489 H 0.92813 0.00233 0.17878 0.0
H490 H 0.9154 0.04059 0.20594 0.0
H491 H 0.90764 0.95348 0.20279 0.0
C492 C 0.10077 0.07551 0.11072 0.0
N493 N 0.07623 0.0187 0.11837 0.0
N494 N 0.05939 0.02556 0.13943 0.0
C495 C 0.0674 0.08887 0.14529 0.0
C496 C 0.09441 0.12297 0.12732 0.0
C497 C 0.13484 0.082 0.08864 0.0
H498 H 0.16656 0.03842 0.08578 0.0
H499 H 0.09804 0.08324 0.07499 0.0
H500 H 0.16498 0.12712 0.08797 0.0
O501 O 0.13019 0.87536 0.11192 0.0
O502 O 0.11225 0.87765 0.14886 0.0
H503 H 0.08491 0.10281 0.18014 0.0
H504 H 0.04284 0.17066 0.16686 0.0
C505 C 0.04754 0.11655 0.16744 0.0
H506 H 0.9997 0.09583 0.17251 0.0
H507 H 0.15411 0.95325 0.19051 0.0
O508 O 0.04881 0.9524 0.07072 0.0
C509 C 0.14136 0.85407 0.13164 0.0
Co510 Co 0.53363 0.07256 0.59796 0.0
Co511 Co 0.54098 0.07416 0.6506 0.0
C512 C 0.60048 0.96555 0.62717 0.0
O513 O 0.5846 0.99482 0.60909 0.0
O514 O 0.58224 0.98851 0.64594 0.0
C515 C 0.49217 0.99638 0.56127 0.0
O516 O 0.48775 0.95234 0.5772 0.0
C517 C 0.53164 0.04959 0.6993 0.0
C518 C 0.49919 0.14647 0.71162 0.0
C519 C 0.51211 0.08287 0.71844 0.0
N520 N 0.52934 0.09139 0.68189 0.0
N521 N 0.51064 0.14938 0.68945 0.0
C522 C 0.5506 0.97897 0.69743 0.0
H523 H 0.60108 0.97536 0.69054 0.0
H524 H 0.51689 0.95415 0.68557 0.0
H525 H 0.54908 0.95391 0.71389 0.0
C526 C 0.39557 0.10563 0.60814 0.0
N527 N 0.45713 0.09035 0.61455 0.0
N528 N 0.45815 0.08041 0.63622 0.0
C529 C 0.39611 0.08292 0.64402 0.0
C530 C 0.35395 0.09928 0.62649 0.0
C531 C 0.37791 0.12822 0.58506 0.0
H532 H 0.41621 0.16216 0.57883 0.0
H533 H 0.37675 0.08587 0.57353 0.0
H534 H 0.32923 0.15304 0.58485 0.0
O535 O 0.59458 0.14506 0.6009 0.0
O536 O 0.60545 0.13964 0.63809 0.0
H537 H 0.3818 0.10644 0.6785 0.0
H538 H 0.3259 0.04559 0.66791 0.0
C539 C 0.37727 0.06351 0.66726 0.0
H540 H 0.41093 0.02445 0.67328 0.0
H541 H 0.50375 0.19052 0.67934 0.0
O542 O 0.5106 0.05419 0.56611 0.0
C543 C 0.62196 0.16295 0.61905 0.0
C544 C 0.55379 0.04174 0.25655 0.0
C545 C 0.52021 0.00585 0.23974 0.0
C546 C 0.45247 0.95406 0.26873 0.0
C547 C 0.49078 0.98465 0.28563 0.0
N548 N 0.58795 0.0463 0.29528 0.0
N549 N 0.44746 0.91669 0.23036 0.0
C550 C 0.54443 0.02517 0.27944 0.0
C551 C 0.47246 0.95866 0.24598 0.0
N552 N 0.59206 0.09398 0.25084 0.0
N553 N 0.39489 0.92368 0.27412 0.0
H554 H 0.46128 0.91742 0.21358 0.0
H555 H 0.41801 0.87687 0.23449 0.0
H556 H 0.37658 0.92141 0.29037 0.0
H557 H 0.36179 0.90677 0.26214 0.0
H558 H 0.61178 0.12607 0.26259 0.0
H559 H 0.59853 0.10952 0.23438 0.0
H560 H 0.6316 0.07012 0.29133 0.0
H561 H 0.58414 0.03421 0.31216 0.0
C562 C 0.53082 0.46704 0.78187 0.0
C563 C 0.49025 0.49304 0.79902 0.0
C564 C 0.42976 0.558 0.77106 0.0
C565 C 0.46442 0.5254 0.75366 0.0
N566 N 0.54303 0.4429 0.74236 0.0
N567 N 0.3984 0.56022 0.81025 0.0
C568 C 0.51431 0.47889 0.759 0.0
C569 C 0.43906 0.53789 0.7937 0.0
N570 N 0.58516 0.43089 0.78745 0.0
N571 N 0.38949 0.60972 0.76595 0.0
H572 H 0.40557 0.54899 0.82711 0.0
H573 H 0.35534 0.58653 0.80719 0.0
H574 H 0.38272 0.62663 0.74963 0.0
H575 H 0.36772 0.63974 0.77793 0.0
H576 H 0.62071 0.41647 0.77593 0.0
H577 H 0.59768 0.41987 0.80397 0.0
H578 H 0.57413 0.40318 0.74532 0.0
H579 H 0.53165 0.44901 0.72548 0.0
C580 C 0.07261 0.47164 0.24865 0.0
C581 C 0.01686 0.48922 0.23552 0.0
C582 C 0.95451 0.50963 0.27013 0.0
C583 C 0.01237 0.49953 0.28295 0.0
N584 N 0.13019 0.48498 0.28381 0.0
N585 N 0.90759 0.53683 0.23411 0.0
C586 C 0.07255 0.48472 0.27202 0.0
C587 C 0.95852 0.51151 0.24634 0.0
N588 N 0.12436 0.43901 0.23915 0.0
N589 N 0.89507 0.51461 0.28058 0.0
H590 H 0.90775 0.53969 0.21675 0.0
H591 H 0.86745 0.56061 0.24132 0.0
H592 H 0.8902 0.51211 0.29788 0.0
H593 H 0.85035 0.51467 0.27206 0.0
H594 H 0.16323 0.4196 0.24844 0.0
H595 H 0.12504 0.42449 0.22244 0.0
H596 H 0.17617 0.48116 0.27624 0.0
H597 H 0.13256 0.49593 0.30084 0.0
C598 C 0.04588 0.06685 0.75178 0.0
C599 C 0.00425 0.02288 0.74003 0.0
C600 C 0.95804 0.98646 0.776 0.0
C601 C 0.9951 0.03499 0.78746 0.0
N602 N 0.0614 0.13252 0.78504 0.0
N603 N 0.91121 0.94999 0.74092 0.0
C604 C 0.03531 0.07841 0.77499 0.0
C605 C 0.95769 0.98519 0.75214 0.0
N606 N 0.09781 0.09535 0.74111 0.0
N607 N 0.92516 0.93964 0.78779 0.0
H608 H 0.90873 0.94804 0.72356 0.0
H609 H 0.8714 0.92784 0.74876 0.0
H610 H 0.92346 0.93862 0.80516 0.0
H611 H 0.90424 0.89852 0.78038 0.0
H612 H 0.13347 0.1225 0.74947 0.0
H613 H 0.10957 0.08607 0.72444 0.0
H614 H 0.08542 0.16929 0.7762 0.0
H615 H 0.05266 0.14451 0.80174 0.0
C616 C 0.44408 0.98457 0.76752 0.0
C617 C 0.47136 0.01942 0.78578 0.0
C618 C 0.53681 0.08452 0.7596 0.0
C619 C 0.5015 0.05699 0.74142 0.0
N620 N 0.41245 0.9884 0.7286 0.0
N621 N 0.53692 0.10973 0.79915 0.0
C622 C 0.45296 0.00862 0.74546 0.0
C623 C 0.51639 0.07108 0.78187 0.0
N624 N 0.4103 0.92792 0.77124 0.0
N625 N 0.59058 0.12261 0.75561 0.0
H626 H 0.5223 0.10251 0.81566 0.0
H627 H 0.56389 0.15243 0.79685 0.0
H628 H 0.60765 0.13248 0.73952 0.0
H629 H 0.62192 0.13877 0.76824 0.0
H630 H 0.39475 0.89717 0.75838 0.0
H631 H 0.40396 0.90819 0.78719 0.0
H632 H 0.37187 0.95844 0.73121 0.0
H633 H 0.41529 0.00652 0.71237 0.0
C634 C 0.39711 0.43258 0.29426 0.0
C635 C 0.44848 0.38495 0.29446 0.0
C636 C 0.44177 0.37969 0.25353 0.0
C637 C 0.39839 0.43444 0.25321 0.0
N638 N 0.34617 0.52189 0.27393 0.0
N639 N 0.53016 0.3252 0.27325 0.0
C640 C 0.37955 0.46368 0.27379 0.0
C641 C 0.47404 0.36217 0.27377 0.0
N642 N 0.36219 0.44568 0.31323 0.0
N643 N 0.44967 0.34197 0.2349 0.0
H644 H 0.55741 0.31406 0.28755 0.0
H645 H 0.55347 0.31217 0.25837 0.0
H646 H 0.42343 0.3505 0.22025 0.0
H647 H 0.4762 0.29815 0.23492 0.0
H648 H 0.32073 0.47584 0.31333 0.0
H649 H 0.37014 0.42113 0.32824 0.0
H650 H 0.33674 0.54801 0.28857 0.0
H651 H 0.33427 0.54747 0.25936 0.0
C652 C 0.00363 0.51769 0.76958 0.0
C653 C 0.05181 0.48114 0.78149 0.0
C654 C 0.04521 0.39377 0.75346 0.0
C655 C 0.99213 0.42708 0.74296 0.0
N656 N 0.91223 0.51475 0.74356 0.0
N657 N 0.10775 0.37778 0.78743 0.0
C658 C 0.96881 0.4874 0.75175 0.0
C659 C 0.06961 0.41726 0.7742 0.0
N660 N 0.99289 0.58207 0.7747 0.0
N661 N 0.07435 0.34127 0.74322 0.0
H662 H 0.12578 0.39226 0.80296 0.0
H663 H 0.11601 0.32839 0.784 0.0
H664 H 0.05925 0.32327 0.72774 0.0
H665 H 0.11764 0.31967 0.74903 0.0
H666 H 0.96321 0.61289 0.76509 0.0
H667 H 0.01845 0.60638 0.78732 0.0
H668 H 0.88932 0.55517 0.75084 0.0
H669 H 0.88485 0.49343 0.73074 0.0
C670 C 0.03046 0.0921 0.25094 0.0
C671 C 0.00886 0.02963 0.2436 0.0
C672 C 0.93701 0.0223 0.27645 0.0
C673 C 0.96574 0.08008 0.28526 0.0
N674 N 0.04754 0.16489 0.28236 0.0
N675 N 0.94856 0.93054 0.25104 0.0
C676 C 0.01437 0.11387 0.27286 0.0
C677 C 0.96367 0.9935 0.25674 0.0
N678 N 0.06486 0.13157 0.23673 0.0
N679 N 0.88316 0.99583 0.28659 0.0
H680 H 0.96776 0.9073 0.23695 0.0
H681 H 0.92159 0.89947 0.26132 0.0
H682 H 0.8617 0.01616 0.30084 0.0
H683 H 0.85613 0.95763 0.27969 0.0
H684 H 0.07602 0.18017 0.24034 0.0
H685 H 0.07643 0.11798 0.22039 0.0
H686 H 0.08849 0.1865 0.27503 0.0
H687 H 0.03809 0.1819 0.29848 0.0
C688 C 0.73623 0.22128 0.16483 0.0
C689 C 0.7622 0.16142 0.1561 0.0
C690 C 0.86253 0.21804 0.14456 0.0
C691 C 0.83591 0.2777 0.15295 0.0
N692 N 0.7563 0.33405 0.17567 0.0
N693 N 0.85449 0.09931 0.14242 0.0
C694 C 0.77574 0.27847 0.1647 0.0
C695 C 0.82686 0.15876 0.14738 0.0
N696 N 0.67236 0.22484 0.17192 0.0
N697 N 0.92151 0.21845 0.13361 0.0
H698 H 0.82948 0.05526 0.1446 0.0
H699 H 0.90352 0.09276 0.13798 0.0
H700 H 0.95086 0.26006 0.13244 0.0
H701 H 0.94041 0.17844 0.12494 0.0
H702 H 0.64838 0.26862 0.17566 0.0
H703 H 0.64064 0.18505 0.17233 0.0
H704 H 0.71678 0.3358 0.1867 0.0
H705 H 0.78312 0.37744 0.17526 0.0
C706 C 0.18551 0.72593 0.66074 0.0
C707 C 0.19025 0.79361 0.66541 0.0
C708 C 0.30715 0.77888 0.675 0.0
C709 C 0.30434 0.71415 0.66657 0.0
N710 N 0.24197 0.62772 0.64898 0.0
N711 N 0.25703 0.88693 0.67534 0.0
C712 C 0.24368 0.68788 0.65897 0.0
C713 C 0.25121 0.82077 0.67252 0.0
N714 N 0.12505 0.69792 0.65818 0.0
N715 N 0.36353 0.80053 0.68492 0.0
H716 H 0.21778 0.91948 0.67351 0.0
H717 H 0.30179 0.91028 0.67794 0.0
H718 H 0.40546 0.77117 0.68641 0.0
H719 H 0.36695 0.84517 0.69326 0.0
H720 H 0.11807 0.64759 0.65673 0.0
H721 H 0.08135 0.7245 0.65983 0.0
H722 H 0.20115 0.61041 0.6403 0.0
H723 H 0.28283 0.597 0.64784 0.0
C724 C 0.71136 0.19722 0.87339 0.0
C725 C 0.78073 0.20184 0.87323 0.0
C726 C 0.77298 0.32187 0.87354 0.0
C727 C 0.7044 0.31673 0.87696 0.0
N728 N 0.6075 0.25027 0.88177 0.0
N729 N 0.87915 0.26765 0.87489 0.0
C730 C 0.67312 0.25463 0.87703 0.0
C731 C 0.81212 0.26397 0.87342 0.0
N732 N 0.68228 0.13788 0.86988 0.0
N733 N 0.80044 0.38213 0.87039 0.0
H734 H 0.90988 0.22663 0.8746 0.0
H735 H 0.9044 0.31101 0.87789 0.0
H736 H 0.77277 0.42532 0.87064 0.0
H737 H 0.84915 0.38901 0.86565 0.0
H738 H 0.63187 0.13197 0.86766 0.0
H739 H 0.7094 0.09509 0.86716 0.0
H740 H 0.58393 0.2062 0.88509 0.0
H741 H 0.57718 0.29111 0.88394 0.0
C742 C 0.22203 0.6818 0.36055 0.0
C743 C 0.16165 0.70986 0.368 0.0
C744 C 0.21564 0.81573 0.37342 0.0
C745 C 0.27702 0.78565 0.36845 0.0
N746 N 0.34094 0.69047 0.35864 0.0
N747 N 0.09987 0.80211 0.38199 0.0
C748 C 0.28077 0.71904 0.36202 0.0
C749 C 0.15813 0.77659 0.3745 0.0
N750 N 0.22359 0.61921 0.3524 0.0
N751 N 0.21235 0.8821 0.37652 0.0
H752 H 0.05576 0.7763 0.3814 0.0
H753 H 0.09534 0.84764 0.38966 0.0
H754 H 0.25341 0.91241 0.37562 0.0
H755 H 0.16863 0.90819 0.3783 0.0
H756 H 0.26358 0.59951 0.34385 0.0
H757 H 0.18361 0.58764 0.35283 0.0
H758 H 0.34816 0.6403 0.35667 0.0
H759 H 0.38487 0.71655 0.35925 0.0
C760 C 0.20359 0.76062 0.89993 0.0
C761 C 0.2322 0.69827 0.89542 0.0
C762 C 0.34198 0.74729 0.89462 0.0
C763 C 0.31312 0.80999 0.89831 0.0
N764 N 0.21703 0.87879 0.9009 0.0
N765 N 0.32588 0.63285 0.8849 0.0
C766 C 0.24401 0.81734 0.89997 0.0
C767 C 0.30065 0.69184 0.89161 0.0
N768 N 0.13782 0.76535 0.90452 0.0
N769 N 0.40895 0.74043 0.89494 0.0
H770 H 0.29702 0.59108 0.88308 0.0
H771 H 0.37414 0.62625 0.87955 0.0
H772 H 0.44091 0.77982 0.89691 0.0
H773 H 0.43309 0.69536 0.89487 0.0
H774 H 0.11527 0.80761 0.91057 0.0
H775 H 0.10576 0.72575 0.90345 0.0
H776 H 0.16685 0.8883 0.89971 0.0
H777 H 0.24536 0.92126 0.90116 0.0
C778 C 0.788 0.25139 0.40934 0.0
C779 C 0.79102 0.18692 0.41789 0.0
C780 C 0.675 0.19522 0.42935 0.0
C781 C 0.66986 0.25571 0.41787 0.0
N782 N 0.71988 0.3382 0.39444 0.0
N783 N 0.73549 0.09335 0.43373 0.0
C784 C 0.72607 0.28317 0.4073 0.0
C785 C 0.73428 0.15788 0.42762 0.0
N786 N 0.84474 0.2823 0.40327 0.0
N787 N 0.62296 0.17308 0.44157 0.0
H788 H 0.77747 0.06407 0.43266 0.0
H789 H 0.69368 0.06737 0.43828 0.0
H790 H 0.57851 0.19864 0.44258 0.0
H791 H 0.62559 0.13241 0.45206 0.0
H792 H 0.84682 0.33128 0.39852 0.0
H793 H 0.89099 0.26048 0.40499 0.0
H794 H 0.75692 0.35555 0.38404 0.0
H795 H 0.67606 0.36424 0.39286 0.0
C796 C 0.15136 0.73189 0.13442 0.0
C797 C 0.1823 0.79428 0.13426 0.0
C798 C 0.29085 0.74175 0.13604 0.0
C799 C 0.25994 0.67929 0.13651 0.0
N800 N 0.16218 0.61387 0.13916 0.0
N801 N 0.27913 0.86021 0.13841 0.0
C802 C 0.19048 0.67409 0.13669 0.0
C803 C 0.25147 0.79965 0.13603 0.0
N804 N 0.08463 0.72808 0.1318 0.0
N805 N 0.358 0.74555 0.13545 0.0
H806 H 0.25155 0.90343 0.13818 0.0
H807 H 0.32843 0.86792 0.14218 0.0
H808 H 0.38883 0.70485 0.13703 0.0
H809 H 0.3837 0.78853 0.13236 0.0
H810 H 0.05919 0.6845 0.12966 0.0
H811 H 0.05422 0.76922 0.13063 0.0
H812 H 0.11218 0.60648 0.14165 0.0
H813 H 0.18948 0.57054 0.13997 0.0
C814 C 0.67617 0.27094 0.62594 0.0
C815 C 0.68002 0.20593 0.61776 0.0
C816 C 0.79805 0.21866 0.61027 0.0
C817 C 0.79382 0.28392 0.61808 0.0
N818 N 0.72856 0.37703 0.6294 0.0
N819 N 0.74129 0.11964 0.59936 0.0
C820 C 0.73263 0.31152 0.62473 0.0
C821 C 0.73989 0.1805 0.60891 0.0
N822 N 0.61875 0.29339 0.63511 0.0
N823 N 0.85821 0.19216 0.60535 0.0
H824 H 0.70164 0.08752 0.59963 0.0
H825 H 0.78061 0.10229 0.58992 0.0
H826 H 0.90149 0.21937 0.60561 0.0
H827 H 0.86617 0.14257 0.60229 0.0
H828 H 0.61442 0.33742 0.64375 0.0
H829 H 0.57549 0.26615 0.63514 0.0
H830 H 0.68472 0.40167 0.63262 0.0
H831 H 0.76879 0.40838 0.62835 0.0
C832 C 0.6004 0.65776 0.14529 0.0
C833 C 0.54105 0.64748 0.15726 0.0
C834 C 0.53175 0.76419 0.16446 0.0
C835 C 0.59267 0.77514 0.15372 0.0
N836 N 0.69232 0.73045 0.13794 0.0
N837 N 0.47142 0.68883 0.18718 0.0
C838 C 0.6297 0.72117 0.14545 0.0
C839 C 0.51392 0.69972 0.16994 0.0
N840 N 0.62789 0.60721 0.1336 0.0
N841 N 0.48883 0.81458 0.16841 0.0
H842 H 0.4625 0.64262 0.19376 0.0
H843 H 0.45368 0.72664 0.19727 0.0
H844 H 0.49703 0.86237 0.16298 0.0
H845 H 0.44157 0.80709 0.17462 0.0
H846 H 0.66678 0.613 0.12247 0.0
H847 H 0.60983 0.55953 0.13467 0.0
H848 H 0.72354 0.69219 0.13335 0.0
H849 H 0.71465 0.77635 0.13788 0.0
C850 C 0.81852 0.59702 0.65395 0.0
C851 C 0.83495 0.56632 0.63341 0.0
C852 C 0.72002 0.55998 0.62332 0.0
C853 C 0.70183 0.59055 0.64375 0.0
N854 N 0.73585 0.65666 0.67517 0.0
N855 N 0.80275 0.55737 0.59461 0.0
C856 C 0.75181 0.61534 0.65807 0.0
C857 C 0.78625 0.56172 0.61665 0.0
N858 N 0.86647 0.60711 0.66952 0.0
N859 N 0.67592 0.52478 0.61104 0.0
H860 H 0.8507 0.56499 0.58906 0.0
H861 H 0.76743 0.55607 0.58193 0.0
H862 H 0.6285 0.51468 0.61658 0.0
H863 H 0.68958 0.49851 0.59681 0.0
H864 H 0.85689 0.62224 0.68583 0.0
H865 H 0.91596 0.59823 0.66593 0.0
H866 H 0.77084 0.6798 0.68511 0.0
H867 H 0.68774 0.67242 0.67804 0.0
C868 C 0.86486 0.72819 0.15112 0.0
C869 C 0.89437 0.68801 0.13439 0.0
C870 C 0.90418 0.78455 0.11071 0.0
C871 C 0.89807 0.82507 0.12968 0.0
N872 N 0.85068 0.83851 0.16614 0.0
N873 N 0.9516 0.68275 0.09879 0.0
C874 C 0.87053 0.79782 0.14935 0.0
C875 C 0.9153 0.71709 0.11402 0.0
N876 N 0.83114 0.69988 0.16829 0.0
N877 N 0.903 0.81109 0.08979 0.0
H878 H 0.969 0.63551 0.10179 0.0
H879 H 0.97142 0.70445 0.08454 0.0
H880 H 0.89263 0.86073 0.08732 0.0
H881 H 0.90464 0.78254 0.07533 0.0
H882 H 0.80475 0.72629 0.18018 0.0
H883 H 0.82503 0.6493 0.16952 0.0
H884 H 0.83709 0.8225 0.18199 0.0
H885 H 0.84787 0.88916 0.16382 0.0
C886 C 0.67351 0.88296 0.64672 0.0
C887 C 0.65623 0.91739 0.62691 0.0
C888 C 0.77084 0.92552 0.61636 0.0
C889 C 0.78991 0.89545 0.63682 0.0
N890 N 0.75951 0.82873 0.66841 0.0
N891 N 0.68585 0.93102 0.58819 0.0
C892 C 0.74114 0.86841 0.65107 0.0
C893 C 0.70405 0.92462 0.61005 0.0
N894 N 0.62506 0.86501 0.66119 0.0
N895 N 0.81503 0.95928 0.6037 0.0
H896 H 0.63724 0.92453 0.58305 0.0
H897 H 0.71991 0.93324 0.57519 0.0
H898 H 0.86309 0.96807 0.60889 0.0
H899 H 0.80162 0.9847 0.58926 0.0
H900 H 0.63363 0.84613 0.6771 0.0
H901 H 0.57543 0.86994 0.65695 0.0
H902 H 0.72642 0.8042 0.67863 0.0
H903 H 0.80853 0.81664 0.67161 0.0
C904 C 0.64606 0.75403 0.88237 0.0
C905 C 0.61857 0.71428 0.89954 0.0
C906 C 0.60403 0.8119 0.92216 0.0
C907 C 0.60681 0.85053 0.9027 0.0
N908 N 0.65431 0.86382 0.86635 0.0
N909 N 0.56085 0.70994 0.9351 0.0
C910 C 0.63641 0.82332 0.8834 0.0
C911 C 0.59606 0.74404 0.9196 0.0
N912 N 0.68083 0.72558 0.86542 0.0
N913 N 0.60407 0.84055 0.94273 0.0
H914 H 0.54524 0.662 0.93259 0.0
H915 H 0.54018 0.7323 0.94913 0.0
H916 H 0.61135 0.89087 0.94451 0.0
H917 H 0.60445 0.81334 0.95751 0.0
H918 H 0.70315 0.75168 0.8526 0.0
H919 H 0.69096 0.67545 0.86504 0.0
H920 H 0.6704 0.84766 0.85078 0.0
H921 H 0.65296 0.91468 0.86822 0.0
C922 C 0.69899 0.49419 0.41024 0.0
C923 C 0.64247 0.517 0.39851 0.0
C924 C 0.71191 0.5931 0.37734 0.0
C925 C 0.76851 0.56382 0.38715 0.0
N926 N 0.81535 0.47329 0.40792 0.0
N927 N 0.59445 0.58526 0.36998 0.0
C928 C 0.76193 0.51092 0.40229 0.0
C929 C 0.64871 0.56582 0.38176 0.0
N930 N 0.69329 0.45487 0.42864 0.0
N931 N 0.71865 0.64704 0.36404 0.0
H932 H 0.54732 0.56871 0.37382 0.0
H933 H 0.59638 0.61524 0.35591 0.0
H934 H 0.76435 0.66715 0.36025 0.0
H935 H 0.67909 0.6744 0.35802 0.0
H936 H 0.73274 0.44413 0.43919 0.0
H937 H 0.64897 0.43716 0.43463 0.0
H938 H 0.8122 0.43088 0.41753 0.0
H939 H 0.86179 0.47964 0.40095 0.0
C940 C 0.88176 0.75282 0.87162 0.0
C941 C 0.90412 0.80031 0.88727 0.0
C942 C 0.93715 0.71229 0.91225 0.0
C943 C 0.93513 0.66757 0.89439 0.0
N944 N 0.88745 0.63932 0.85897 0.0
N945 N 0.96697 0.82254 0.92098 0.0
C946 C 0.90115 0.68597 0.87458 0.0
C947 C 0.93499 0.7795 0.90736 0.0
N948 N 0.84187 0.77153 0.85435 0.0
N949 N 0.94103 0.69069 0.93373 0.0
H950 H 0.97386 0.87154 0.91677 0.0
H951 H 0.9934 0.8073 0.93504 0.0
H952 H 0.9358 0.64107 0.93748 0.0
H953 H 0.9396 0.72255 0.94737 0.0
H954 H 0.82153 0.73909 0.84289 0.0
H955 H 0.82541 0.81966 0.85236 0.0
H956 H 0.86937 0.64942 0.84304 0.0
H957 H 0.89439 0.58961 0.86239 0.0
C958 C 0.69536 0.95901 0.38035 0.0
C959 C 0.68065 0.89258 0.38453 0.0
C960 C 0.79689 0.87096 0.39297 0.0
C961 C 0.81203 0.93582 0.38616 0.0
N962 N 0.77512 0.03538 0.36718 0.0
N963 N 0.71646 0.78303 0.39335 0.0
C964 C 0.76138 0.97775 0.37782 0.0
C965 C 0.73125 0.84762 0.39038 0.0
N966 N 0.64649 0.00533 0.37976 0.0
N967 N 0.84506 0.83222 0.40199 0.0
H968 H 0.66857 0.76527 0.39207 0.0
H969 H 0.75169 0.74663 0.39587 0.0
H970 H 0.89407 0.84693 0.40289 0.0
H971 H 0.83623 0.78701 0.40942 0.0
H972 H 0.65592 0.05547 0.37953 0.0
H973 H 0.59693 0.99477 0.3821 0.0
H974 H 0.73928 0.06304 0.35895 0.0
H975 H 0.82194 0.05254 0.36394 0.0
C976 C 0.38794 0.31959 0.88825 0.0
C977 C 0.42552 0.34934 0.90537 0.0
C978 C 0.44244 0.24508 0.92375 0.0
C979 C 0.41087 0.21248 0.90575 0.0
N980 N 0.34056 0.2192 0.87329 0.0
N981 N 0.44709 0.34557 0.94488 0.0
C982 C 0.37851 0.25015 0.88884 0.0
C983 C 0.43729 0.31365 0.92516 0.0
N984 N 0.3597 0.35834 0.87226 0.0
N985 N 0.48366 0.21249 0.938 0.0
H986 H 0.44137 0.39631 0.94604 0.0
H987 H 0.45293 0.32083 0.96003 0.0
H988 H 0.49747 0.16381 0.93566 0.0
H989 H 0.51088 0.23641 0.95031 0.0
H990 H 0.33217 0.3412 0.85885 0.0
H991 H 0.361 0.40935 0.87342 0.0
H992 H 0.32278 0.24134 0.85885 0.0
H993 H 0.32696 0.17023 0.87491 0.0
C994 C 0.1939 0.43225 0.37041 0.0
C995 C 0.13817 0.42237 0.3841 0.0
C996 C 0.20814 0.36077 0.41043 0.0
C997 C 0.26448 0.38452 0.39908 0.0
N998 N 0.30888 0.45823 0.37125 0.0
N999 N 0.08996 0.37082 0.41619 0.0
C1000 C 0.25682 0.42468 0.37991 0.0
C1001 C 0.14463 0.38407 0.40383 0.0
N1002 N 0.18746 0.44783 0.34833 0.0
N1003 N 0.21545 0.31629 0.42731 0.0
H1004 H 0.04287 0.38312 0.41054 0.0
H1005 H 0.09127 0.34934 0.43197 0.0
H1006 H 0.26147 0.29986 0.43271 0.0
H1007 H 0.17623 0.29301 0.43508 0.0
H1008 H 0.22772 0.45207 0.33768 0.0
H1009 H 0.14268 0.44593 0.33996 0.0
H1010 H 0.30367 0.49205 0.3583 0.0
H1011 H 0.35536 0.4583 0.37863 0.0
C1012 C 0.04769 0.20501 0.9156 0.0
C1013 C 0.06403 0.16498 0.89714 0.0
C1014 C 0.13278 0.25452 0.88312 0.0
C1015 C 0.09849 0.29847 0.89753 0.0
N1016 N 0.01049 0.31322 0.9245 0.0
N1017 N 0.13788 0.14518 0.86658 0.0
C1018 C 0.05301 0.27323 0.91324 0.0
C1019 C 0.11203 0.18772 0.88185 0.0
N1020 N 0.02642 0.17827 0.93516 0.0
N1021 N 0.18425 0.2769 0.8707 0.0
H1022 H 0.12917 0.0949 0.86753 0.0
H1023 H 0.1679 0.15892 0.85334 0.0
H1024 H 0.20239 0.32437 0.87231 0.0
H1025 H 0.21061 0.24814 0.85953 0.0
H1026 H 0.01654 0.20655 0.94932 0.0
H1027 H 0.02784 0.12783 0.9379 0.0
H1028 H 0.97377 0.29487 0.9349 0.0
H1029 H 0.00625 0.36324 0.92133 0.0
C1030 C 0.30843 0.10237 0.39928 0.0
C1031 C 0.3263 0.07138 0.37896 0.0
C1032 C 0.21249 0.06503 0.36765 0.0
C1033 C 0.19244 0.09203 0.38847 0.0
N1034 N 0.222 0.15434 0.42124 0.0
N1035 N 0.29829 0.06517 0.33988 0.0
C1036 C 0.24077 0.11702 0.40341 0.0
C1037 C 0.27928 0.06797 0.3617 0.0
N1038 N 0.35626 0.11595 0.41457 0.0
N1039 N 0.16979 0.03111 0.35444 0.0
H1040 H 0.34721 0.07204 0.33526 0.0
H1041 H 0.26458 0.06511 0.32671 0.0
H1042 H 0.12221 0.01976 0.35945 0.0
H1043 H 0.1847 0.00703 0.3399 0.0
H1044 H 0.34699 0.13236 0.43075 0.0
H1045 H 0.40597 0.10942 0.41074 0.0
H1046 H 0.25493 0.17649 0.43217 0.0
H1047 H 0.17301 0.16709 0.42413 0.0
C1048 C 0.52294 0.22121 0.13479 0.0
C1049 C 0.48615 0.16338 0.13854 0.0
C1050 C 0.3841 0.22639 0.13409 0.0
C1051 C 0.42147 0.28492 0.1336 0.0
N1052 N 0.52651 0.3381 0.13925 0.0
N1053 N 0.38177 0.11024 0.14322 0.0
C1054 C 0.49088 0.28245 0.13553 0.0
C1055 C 0.41654 0.16564 0.1386 0.0
N1056 N 0.58855 0.21804 0.13002 0.0
N1057 N 0.31812 0.2289 0.12993 0.0
H1058 H 0.40455 0.06502 0.14597 0.0
H1059 H 0.33111 0.10998 0.14569 0.0
H1060 H 0.29307 0.27284 0.12703 0.0
H1061 H 0.28949 0.18734 0.12758 0.0
H1062 H 0.61541 0.25844 0.12465 0.0
H1063 H 0.61505 0.17444 0.12941 0.0
H1064 H 0.57638 0.33719 0.14328 0.0
H1065 H 0.50571 0.38459 0.14071 0.0
C1066 C 0.2636 0.46554 0.66477 0.0
C1067 C 0.32019 0.43925 0.65412 0.0
C1068 C 0.25023 0.36092 0.63407 0.0
C1069 C 0.19389 0.39503 0.64195 0.0
N1070 N 0.14862 0.49052 0.66042 0.0
N1071 N 0.36869 0.36272 0.62835 0.0
C1072 C 0.20091 0.44987 0.65628 0.0
C1073 C 0.31393 0.38672 0.63874 0.0
N1074 N 0.26922 0.50783 0.68237 0.0
N1075 N 0.24269 0.30423 0.62224 0.0
H1076 H 0.4159 0.37861 0.63246 0.0
H1077 H 0.36724 0.32934 0.6152 0.0
H1078 H 0.19658 0.28491 0.61847 0.0
H1079 H 0.28172 0.27417 0.61749 0.0
H1080 H 0.22935 0.52171 0.69225 0.0
H1081 H 0.31376 0.5251 0.68839 0.0
H1082 H 0.15229 0.53394 0.66945 0.0
H1083 H 0.10303 0.48551 0.65269 0.0
C1084 C 0.13993 0.29585 0.14573 0.0
C1085 C 0.10769 0.33197 0.12869 0.0
C1086 C 0.08513 0.23321 0.10791 0.0
C1087 C 0.10906 0.1947 0.12603 0.0
N1088 N 0.18334 0.18989 0.15756 0.0
N1089 N 0.09391 0.3374 0.08891 0.0
C1090 C 0.14489 0.22624 0.14349 0.0
C1091 C 0.098 0.30095 0.10793 0.0
N1092 N 0.16435 0.32793 0.1639 0.0
N1093 N 0.04368 0.20792 0.09221 0.0
H1094 H 0.10263 0.38775 0.08926 0.0
H1095 H 0.08897 0.31634 0.0731 0.0
H1096 H 0.02398 0.16118 0.09343 0.0
H1097 H 0.02206 0.23658 0.07973 0.0
H1098 H 0.18209 0.3044 0.17815 0.0
H1099 H 0.16679 0.37899 0.16434 0.0
H1100 H 0.21356 0.21015 0.16977 0.0
H1101 H 0.18956 0.13949 0.1555 0.0
C1102 C 0.24535 0.0625 0.61052 0.0
C1103 C 0.28058 0.09906 0.62673 0.0
C1104 C 0.17702 0.11866 0.64689 0.0
C1105 C 0.14497 0.07745 0.63126 0.0
N1106 N 0.14059 0.05269 0.59198 0.0
N1107 N 0.2751 0.18192 0.65552 0.0
C1108 C 0.17645 0.06579 0.61067 0.0
C1109 C 0.24479 0.13407 0.64342 0.0
N1110 N 0.27599 0.01877 0.59675 0.0
N1111 N 0.14305 0.14239 0.6648 0.0
H1112 H 0.32373 0.19543 0.65258 0.0
H1113 H 0.25056 0.21212 0.66682 0.0
H1114 H 0.09205 0.13803 0.6659 0.0
H1115 H 0.16513 0.16632 0.67821 0.0
H1116 H 0.25004 0.98893 0.58569 0.0
H1117 H 0.32526 0.00583 0.59861 0.0
H1118 H 0.16228 0.0452 0.57637 0.0
H1119 H 0.08947 0.05725 0.59212 0.0
C1120 C 0.53819 0.93138 1.00237 0.0
C1121 C 0.52825 0.99067 0.99025 0.0
C1122 C 0.57219 0.05369 0.02198 0.0
C1123 C 0.5877 0.99428 0.03314 0.0
N1124 N 0.58927 0.87649 0.03417 0.0
N1125 N 0.54029 0.10796 0.98756 0.0
C1126 C 0.57126 0.93306 0.02346 0.0
C1127 C 0.54635 0.05175 0.99985 0.0
N1128 N 0.51673 0.87338 0.99361 0.0
N1129 N 0.58104 0.11209 0.03277 0.0
H1130 H 0.51811 0.10944 0.97186 0.0
H1131 H 0.56043 0.15265 0.99227 0.0
H1132 H 0.60179 0.1157 0.04868 0.0
H1133 H 0.56356 0.15674 0.02675 0.0
H1134 H 0.5156 0.82957 1.00248 0.0
H1135 H 0.49639 0.86911 0.97768 0.0
H1136 H 0.58596 0.83008 0.02711 0.0
H1137 H 0.61135 0.87597 0.04994 0.0
C1138 C 0.54226 0.51157 0.5381 0.0
C1139 C 0.47868 0.53833 0.54212 0.0
C1140 C 0.44814 0.51592 0.50313 0.0
C1141 C 0.50967 0.48445 0.49959 0.0
N1142 N 0.60988 0.44023 0.51514 0.0
N1143 N 0.3662 0.55089 0.53 0.0
C1144 C 0.55505 0.47851 0.51756 0.0
C1145 C 0.43004 0.53556 0.52511 0.0
N1146 N 0.5915 0.52048 0.55336 0.0
N1147 N 0.40887 0.53146 0.48534 0.0
H1148 H 0.35089 0.5643 0.54602 0.0
H1149 H 0.32762 0.54369 0.51879 0.0
H1150 H 0.42248 0.52209 0.46886 0.0
H1151 H 0.3665 0.56004 0.48673 0.0
H1152 H 0.64049 0.50867 0.55021 0.0
H1153 H 0.58448 0.54459 0.56851 0.0
H1154 H 0.64139 0.42872 0.52833 0.0
H1155 H 0.62038 0.41475 0.50043 0.0
C1156 C 0.94949 0.54398 0.01822 0.0
C1157 C 0.96765 0.48391 0.02848 0.0
C1158 C 0.05177 0.46602 0.99974 0.0
C1159 C 0.02549 0.51915 0.98736 0.0
N1160 N 0.95872 0.61618 0.98602 0.0
N1161 N 0.03472 0.38615 0.02916 0.0
C1162 C 0.97721 0.5606 0.9971 0.0
C1163 C 0.01893 0.44475 0.01941 0.0
N1164 N 0.9066 0.58523 0.02889 0.0
N1165 N 0.10926 0.43749 0.9931 0.0
H1166 H 0.01265 0.36943 0.04381 0.0
H1167 H 0.06629 0.35193 0.02193 0.0
H1168 H 0.13668 0.45607 0.97989 0.0
H1169 H 0.13385 0.40152 1.00224 0.0
H1170 H 0.89452 0.632 0.02331 0.0
H1171 H 0.88525 0.57399 0.04427 0.0
H1172 H 0.91871 0.64541 0.99033 0.0
H1173 H 0.98512 0.63328 0.97229 0.0
C1174 C 0.04437 0.96811 0.50026 0.0
C1175 C 0.99088 0.94127 0.48797 0.0
C1176 C 0.95923 0.87638 0.52103 0.0
C1177 C 0.01664 0.89786 0.53226 0.0
N1178 N 0.11788 0.95856 0.53217 0.0
N1179 N 0.89725 0.86915 0.48638 0.0
C1180 C 0.06012 0.94248 0.52181 0.0
C1181 C 0.94834 0.89507 0.4983 0.0
N1182 N 0.0799 0.01857 0.49149 0.0
N1183 N 0.91404 0.8398 0.53238 0.0
H1184 H 0.88325 0.8862 0.47063 0.0
H1185 H 0.87 0.82904 0.49168 0.0
H1186 H 0.92086 0.82471 0.5489 0.0
H1187 H 0.86773 0.82828 0.52615 0.0
H1188 H 0.11438 0.04516 0.50057 0.0
H1189 H 0.07136 0.03791 0.47567 0.0
H1190 H 0.15563 0.98413 0.5244 0.0
H1191 H 0.13054 0.94211 0.54813 0.0
C1192 C 0.50792 0.4668 1.01449 0.0
C1193 C 0.56584 0.49946 1.00756 0.0
C1194 C 0.56744 0.56019 0.0431 0.0
C1195 C 0.50897 0.52768 0.04995 0.0
N1196 N 0.41196 0.46855 0.03824 0.0
N1197 N 0.64254 0.58746 1.01289 0.0
C1198 C 0.47535 0.48701 0.03441 0.0
C1199 C 0.5932 0.54929 0.02119 0.0
N1200 N 0.48561 0.41406 1.00267 0.0
N1201 N 0.59825 0.60181 0.05759 0.0
H1202 H 0.66207 0.58099 0.99691 0.0
H1203 H 0.66053 0.62881 0.02097 0.0
H1204 H 0.57703 0.61708 0.0726 0.0
H1205 H 0.6454 0.61992 0.05507 0.0
H1206 H 0.44817 0.38367 1.00834 0.0
H1207 H 0.50853 0.39681 0.98823 0.0
H1208 H 0.38371 0.44362 0.02648 0.0
H1209 H 0.38448 0.48531 0.05172 0.0
C1210 C 0.0621 0.546 0.5079 0.0
C1211 C 0.00443 0.55534 0.49493 0.0
C1212 C 0.93781 0.5105 0.52559 0.0
C1213 C 0.99461 0.50886 0.5395 0.0
N1214 N 0.10983 0.53217 0.54471 0.0
N1215 N 0.88644 0.55229 0.49169 0.0
C1216 C 0.05652 0.52847 0.53085 0.0
C1217 C 0.942 0.53847 0.50375 0.0
N1218 N 0.12244 0.55224 0.49809 0.0
N1219 N 0.87963 0.48622 0.53337 0.0
H1220 H 0.88766 0.57215 0.47562 0.0
H1221 H 0.83905 0.54843 0.49806 0.0
H1222 H 0.87355 0.4687 0.54961 0.0
H1223 H 0.83841 0.47923 0.52332 0.0
H1224 H 0.16633 0.53932 0.50596 0.0
H1225 H 0.1284 0.56445 0.48127 0.0
H1226 H 0.15412 0.55369 0.54013 0.0
H1227 H 0.10842 0.51794 0.5614 0.0
C1228 C 0.96413 0.93064 0.02621 0.0
C1229 C 0.97609 0.98485 0.04055 0.0
C1230 C 0.94619 0.06037 1.01012 0.0
C1231 C 0.92589 0.00652 0.99689 0.0
N1232 N 0.91128 0.89029 0.99241 0.0
N1233 N 0.9721 0.10148 0.04704 0.0
C1234 C 0.93444 0.94147 1.00484 0.0
C1235 C 0.96553 0.04978 0.03271 0.0
N1236 N 0.98024 0.8688 0.03316 0.0
N1237 N 0.94863 0.12159 1.00087 0.0
H1238 H 0.98792 0.0961 0.06351 0.0
H1239 H 0.95744 0.14908 0.04314 0.0
H1240 H 0.93558 0.13107 0.98429 0.0
H1241 H 0.96952 0.16174 1.00887 0.0
H1242 H 0.97922 0.82793 0.02277 0.0
H1243 H 0.99916 0.85871 0.04902 0.0
H1244 H 0.90909 0.84227 0.99818 0.0
H1245 H 0.89008 0.89643 0.97664 0.0
C1246 C 0.39912 0.94365 0.50889 0.0
C1247 C 0.45204 0.93132 0.49407 0.0
C1248 C 0.53016 0.97166 0.5222 0.0
C1249 C 0.47787 0.97733 0.53781 0.0
N1250 N 0.36373 0.96031 0.5471 0.0
N1251 N 0.56869 0.92485 0.48728 0.0
C1252 C 0.41264 0.9609 0.53146 0.0
C1253 C 0.51782 0.94347 0.50082 0.0
N1254 N 0.33585 0.94067 0.50119 0.0
N1255 N 0.59182 0.99231 0.52788 0.0
H1256 H 0.56162 0.90369 0.47161 0.0
H1257 H 0.61779 0.9254 0.49219 0.0
H1258 H 0.60407 0.00914 0.54381 0.0
H1259 H 0.63003 0.9968 0.51643 0.0
H1260 H 0.29532 0.95596 0.51047 0.0
H1261 H 0.32411 0.92851 0.48472 0.0
H1262 H 0.317 0.94161 0.54411 0.0
H1263 H 0.37119 0.97396 0.56368 0.0
loop_
_geom_bond_atom_site_label_1
_geom_bond_atom_site_label_2
_geom_bond_distance
_geom_bond_site_symmetry_2
_ccdc_geom_bond_type
Co0 O3 1.970 . S
Co0 N17 1.989 1_545 S
Co0 O25 1.967 . S
Co0 O32 1.920 . S
Co1 O4 1.966 . S
Co1 N10 2.022 . S
Co1 N18 1.993 1_545 S
Co1 O26 1.941 . S
C2 O3 1.258 . S
C2 O4 1.263 . S
O3 Co0 1.970 . S
O3 C2 1.258 . S
O4 Co1 1.966 . S
O4 C2 1.263 . S
C5 O6 1.235 . S
C5 O32 1.289 . S
O6 C5 1.235 . S
C7 C9 1.400 . S
C7 N10 1.351 . S
C7 C12 1.501 . S
C8 C9 1.380 1_565 S
C8 N11 1.337 1_565 S
C9 C7 1.400 . S
C9 C8 1.380 1_545 S
N10 Co1 2.022 . S
N10 C7 1.351 . S
N10 N11 1.365 . S
N11 C8 1.337 1_545 S
N11 N10 1.365 . S
N11 H31 0.862 1_545 S
C12 C7 1.501 . S
C12 H13 0.961 . S
C12 H14 0.961 . S
C12 H15 0.960 . S
H13 C12 0.961 . S
H14 C12 0.961 . S
H15 C12 0.960 . S
C16 N17 1.342 . S
C16 C20 1.401 . S
C16 C21 1.499 . S
N17 Co0 1.989 1_565 S
N17 C16 1.342 . S
N17 N18 1.388 . S
N18 Co1 1.993 1_565 S
N18 N17 1.388 . S
N18 C19 1.346 . S
C19 N18 1.346 . S
C19 C20 1.396 . S
C19 C29 1.510 . S
C20 C16 1.401 . S
C20 C19 1.396 . S
C21 C16 1.499 . S
C21 H22 0.959 . S
C21 H23 0.960 . S
C21 H24 0.961 . S
H22 C21 0.959 . S
H23 C21 0.960 . S
H24 C21 0.961 . S
O25 Co0 1.967 . S
O25 C33 1.258 . S
O26 Co1 1.941 . S
O26 C33 1.266 . S
H27 C29 0.959 . S
H28 C29 0.961 . S
C29 C19 1.510 . S
C29 H27 0.959 . S
C29 H28 0.961 . S
C29 H30 0.960 . S
H30 C29 0.960 . S
H31 N11 0.862 1_565 S
O32 Co0 1.920 . S
O32 C5 1.289 . S
C33 O25 1.258 . S
C33 O26 1.266 . S
Co34 O37 1.970 . S
Co34 N51 1.989 . S
Co34 O59 1.967 . S
Co34 O66 1.920 . S
Co35 O38 1.966 . S
Co35 N44 2.022 . S
Co35 N52 1.993 . S
Co35 O60 1.941 . S
C36 O37 1.258 . S
C36 O38 1.263 . S
O37 Co34 1.970 . S
O37 C36 1.258 . S
O38 Co35 1.966 . S
O38 C36 1.263 . S
C39 O40 1.235 . S
C39 O66 1.289 . S
O40 C39 1.235 . S
C41 C43 1.400 . S
C41 N44 1.351 . S
C41 C46 1.501 . S
C42 C43 1.387 . S
C42 N45 1.341 . S
C43 C41 1.400 . S
C43 C42 1.387 . S
N44 Co35 2.022 . S
N44 C41 1.351 . S
N44 N45 1.365 . S
N45 C42 1.341 . S
N45 N44 1.365 . S
N45 H65 0.862 . S
C46 C41 1.501 . S
C46 H47 0.961 . S
C46 H48 0.961 . S
C46 H49 0.960 . S
H47 C46 0.961 . S
H48 C46 0.961 . S
H49 C46 0.960 . S
C50 N51 1.342 . S
C50 C54 1.401 . S
C50 C55 1.499 . S
N51 Co34 1.989 . S
N51 C50 1.342 . S
N51 N52 1.388 . S
N52 Co35 1.993 . S
N52 N51 1.388 . S
N52 C53 1.346 . S
C53 N52 1.346 . S
C53 C54 1.396 . S
C53 C63 1.510 . S
C54 C50 1.401 . S
C54 C53 1.396 . S
C55 C50 1.499 . S
C55 H56 0.959 . S
C55 H57 0.960 . S
C55 H58 0.961 . S
H56 C55 0.959 . S
H57 C55 0.960 . S
H58 C55 0.961 . S
O59 Co34 1.967 . S
O59 C67 1.258 . S
O60 Co35 1.941 . S
O60 C67 1.266 . S
H61 C63 0.959 . S
H62 C63 0.961 . S
C63 C53 1.510 . S
C63 H61 0.959 . S
C63 H62 0.961 . S
C63 H64 0.960 . S
H64 C63 0.960 . S
H65 N45 0.862 . S
O66 Co34 1.920 . S
O66 C39 1.289 . S
C67 O59 1.258 . S
C67 O60 1.266 . S
Co68 O71 1.970 1_655 S
Co68 N85 1.989 . S
Co68 O93 1.967 . S
Co68 O100 1.920 . S
Co69 O72 1.966 . S
Co69 N78 2.022 . S
Co69 N86 1.993 . S
Co69 O94 1.941 . S
C70 O71 1.258 . S
C70 O72 1.263 1_455 S
O71 Co68 1.970 1_455 S
O71 C70 1.258 . S
O72 Co69 1.966 . S
O72 C70 1.263 1_655 S
C73 O74 1.220 1_655 S
C73 O100 1.302 . S
O74 C73 1.220 1_455 S
C75 C77 1.400 . S
C75 N78 1.351 . S
C75 C80 1.501 1_655 S
C76 C77 1.387 . S
C76 N79 1.341 . S
C77 C75 1.400 . S
C77 C76 1.387 . S
N78 Co69 2.022 . S
N78 C75 1.351 . S
N78 N79 1.365 . S
N79 C76 1.341 . S
N79 N78 1.365 . S
N79 H99 0.862 . S
C80 C75 1.501 1_455 S
C80 H81 0.961 . S
C80 H82 0.961 . S
C80 H83 0.960 . S
H81 C80 0.961 . S
H82 C80 0.961 . S
H83 C80 0.960 . S
C84 N85 1.342 . S
C84 C88 1.401 . S
C84 C89 1.499 . S
N85 Co68 1.989 . S
N85 C84 1.342 . S
N85 N86 1.388 . S
N86 Co69 1.993 . S
N86 N85 1.388 . S
N86 C87 1.346 . S
C87 N86 1.346 . S
C87 C88 1.396 . S
C87 C97 1.510 . S
C88 C84 1.401 . S
C88 C87 1.396 . S
C89 C84 1.499 . S
C89 H90 0.959 . S
C89 H91 0.960 1_655 S
C89 H92 0.961 . S
H90 C89 0.959 . S
H91 C89 0.960 1_455 S
H92 C89 0.961 . S
O93 Co68 1.967 . S
O93 C101 1.258 . S
O94 Co69 1.941 . S
O94 C101 1.266 . S
H95 C97 0.959 . S
H96 C97 0.961 1_455 S
C97 C87 1.510 . S
C97 H95 0.959 . S
C97 H96 0.961 1_655 S
C97 H98 0.960 . S
H98 C97 0.960 . S
H99 N79 0.862 . S
O100 Co68 1.920 . S
O100 C73 1.302 . S
C101 O93 1.258 . S
C101 O94 1.266 . S
Co102 O105 1.970 1_565 S
Co102 N119 1.989 1_455 S
Co102 O127 1.967 . S
Co102 O134 1.920 . S
Co103 O106 1.966 . S
Co103 N112 2.022 . S
Co103 N120 1.993 1_455 S
Co103 O128 1.941 . S
C104 O105 1.258 . S
C104 O106 1.263 1_545 S
O105 Co102 1.970 1_545 S
O105 C104 1.258 . S
O106 Co103 1.966 . S
O106 C104 1.263 1_565 S
C107 O108 1.220 1_565 S
C107 O134 1.302 . S
O108 C107 1.220 1_545 S
C109 C111 1.400 . S
C109 N112 1.351 . S
C109 C114 1.501 1_565 S
C110 C111 1.379 1_655 S
C110 N113 1.337 1_655 S
C111 C109 1.400 . S
C111 C110 1.379 1_455 S
N112 Co103 2.022 . S
N112 C109 1.351 . S
N112 N113 1.365 . S
N113 C110 1.337 1_455 S
N113 N112 1.365 . S
N113 H133 0.862 1_455 S
C114 C109 1.501 1_545 S
C114 H115 0.961 . S
C114 H116 0.961 . S
C114 H117 0.960 . S
H115 C114 0.961 . S
H116 C114 0.961 . S
H117 C114 0.960 . S
C118 N119 1.342 . S
C118 C122 1.401 . S
C118 C123 1.499 . S
N119 Co102 1.989 1_655 S
N119 C118 1.342 . S
N119 N120 1.388 . S
N120 Co103 1.993 1_655 S
N120 N119 1.388 . S
N120 C121 1.346 . S
C121 N120 1.346 . S
C121 C122 1.396 . S
C121 C131 1.510 . S
C122 C118 1.401 . S
C122 C121 1.396 . S
C123 C118 1.499 . S
C123 H124 0.959 . S
C123 H125 0.960 1_565 S
C123 H126 0.961 . S
H124 C123 0.959 . S
H125 C123 0.960 1_545 S
H126 C123 0.961 . S
O127 Co102 1.967 . S
O127 C135 1.258 . S
O128 Co103 1.941 . S
O128 C135 1.266 . S
H129 C131 0.959 . S
H130 C131 0.961 1_545 S
C131 C121 1.510 . S
C131 H129 0.959 . S
C131 H130 0.961 1_565 S
C131 H132 0.960 . S
H132 C131 0.960 . S
H133 N113 0.862 1_655 S
O134 Co102 1.920 . S
O134 C107 1.302 . S
C135 O127 1.258 . S
C135 O128 1.266 . S
Co136 O139 1.970 . S
Co136 N153 1.989 . S
Co136 O161 1.967 . S
Co136 O168 1.920 . S
Co137 O140 1.966 . S
Co137 N146 2.022 . S
Co137 N154 1.993 . S
Co137 O162 1.941 . S
C138 O139 1.258 . S
C138 O140 1.263 . S
O139 Co136 1.970 . S
O139 C138 1.258 . S
O140 Co137 1.966 . S
O140 C138 1.263 . S
C141 O142 1.235 . S
C141 O168 1.289 . S
O142 C141 1.235 . S
C143 C145 1.400 . S
C143 N146 1.351 . S
C143 C148 1.501 . S
C144 C145 1.387 . S
C144 N147 1.341 . S
C145 C143 1.400 . S
C145 C144 1.387 . S
N146 Co137 2.022 . S
N146 C143 1.351 . S
N146 N147 1.365 . S
N147 C144 1.341 . S
N147 N146 1.365 . S
N147 H167 0.862 . S
C148 C143 1.501 . S
C148 H149 0.961 . S
C148 H150 0.961 . S
C148 H151 0.960 . S
H149 C148 0.961 . S
H150 C148 0.961 . S
H151 C148 0.960 . S
C152 N153 1.342 . S
C152 C156 1.401 . S
C152 C157 1.499 . S
N153 Co136 1.989 . S
N153 C152 1.342 . S
N153 N154 1.388 . S
N154 Co137 1.993 . S
N154 N153 1.388 . S
N154 C155 1.346 . S
C155 N154 1.346 . S
C155 C156 1.396 . S
C155 C165 1.510 . S
C156 C152 1.401 . S
C156 C155 1.396 . S
C157 C152 1.499 . S
C157 H158 0.959 . S
C157 H159 0.960 . S
C157 H160 0.961 . S
H158 C157 0.959 . S
H159 C157 0.960 . S
H160 C157 0.961 . S
O161 Co136 1.967 . S
O161 C169 1.258 . S
O162 Co137 1.941 . S
O162 C169 1.266 . S
H163 C165 0.959 . S
H164 C165 0.961 . S
C165 C155 1.510 . S
C165 H163 0.959 . S
C165 H164 0.961 . S
C165 H166 0.960 . S
H166 C165 0.960 . S
H167 N147 0.862 . S
O168 Co136 1.920 . S
O168 C141 1.289 . S
C169 O161 1.258 . S
C169 O162 1.266 . S
Co170 O173 1.970 . S
Co170 N187 1.989 1_455 S
Co170 O195 1.967 . S
Co170 O202 1.920 . S
Co171 O174 1.966 . S
Co171 N180 2.022 . S
Co171 N188 1.993 1_455 S
Co171 O196 1.941 . S
C172 O173 1.258 . S
C172 O174 1.263 . S
O173 Co170 1.970 . S
O173 C172 1.258 . S
O174 Co171 1.966 . S
O174 C172 1.263 . S
C175 O176 1.235 . S
C175 O202 1.289 . S
O176 C175 1.235 . S
C177 C179 1.400 . S
C177 N180 1.351 . S
C177 C182 1.501 . S
C178 C179 1.380 1_655 S
C178 N181 1.337 1_655 S
C179 C177 1.400 . S
C179 C178 1.380 1_455 S
N180 Co171 2.022 . S
N180 C177 1.351 . S
N180 N181 1.365 . S
N181 C178 1.337 1_455 S
N181 N180 1.365 . S
N181 H201 0.862 1_455 S
C182 C177 1.501 . S
C182 H183 0.961 . S
C182 H184 0.961 . S
C182 H185 0.960 . S
H183 C182 0.961 . S
H184 C182 0.961 . S
H185 C182 0.960 . S
C186 N187 1.342 . S
C186 C190 1.401 . S
C186 C191 1.499 . S
N187 Co170 1.989 1_655 S
N187 C186 1.342 . S
N187 N188 1.388 . S
N188 Co171 1.993 1_655 S
N188 N187 1.388 . S
N188 C189 1.346 . S
C189 N188 1.346 . S
C189 C190 1.396 . S
C189 C199 1.510 . S
C190 C186 1.401 . S
C190 C189 1.396 . S
C191 C186 1.499 . S
C191 H192 0.959 . S
C191 H193 0.960 . S
C191 H194 0.961 . S
H192 C191 0.959 . S
H193 C191 0.960 . S
H194 C191 0.961 . S
O195 Co170 1.967 . S
O195 C203 1.258 . S
O196 Co171 1.941 . S
O196 C203 1.266 . S
H197 C199 0.959 . S
H198 C199 0.961 . S
C199 C189 1.510 . S
C199 H197 0.959 . S
C199 H198 0.961 . S
C199 H200 0.960 . S
H200 C199 0.960 . S
H201 N181 0.862 1_655 S
O202 Co170 1.920 . S
O202 C175 1.289 . S
C203 O195 1.258 . S
C203 O196 1.266 . S
Co204 O207 1.970 1_655 S
Co204 N221 1.989 1_545 S
Co204 O229 1.967 . S
Co204 O236 1.920 . S
Co205 O208 1.966 . S
Co205 N214 2.022 . S
Co205 N222 1.993 1_545 S
Co205 O230 1.941 . S
C206 O207 1.258 . S
C206 O208 1.263 1_455 S
O207 Co204 1.970 1_455 S
O207 C206 1.258 . S
O208 Co205 1.966 . S
O208 C206 1.263 1_655 S
C209 O210 1.220 1_655 S
C209 O236 1.302 . S
O210 C209 1.220 1_455 S
C211 C213 1.400 . S
C211 N214 1.351 . S
C211 C216 1.501 1_655 S
C212 C213 1.379 1_565 S
C212 N215 1.337 1_565 S
C213 C211 1.400 . S
C213 C212 1.379 1_545 S
N214 Co205 2.022 . S
N214 C211 1.351 . S
N214 N215 1.365 . S
N215 C212 1.337 1_545 S
N215 N214 1.365 . S
N215 H235 0.862 1_545 S
C216 C211 1.501 1_455 S
C216 H217 0.961 . S
C216 H218 0.961 . S
C216 H219 0.960 . S
H217 C216 0.961 . S
H218 C216 0.961 . S
H219 C216 0.960 . S
C220 N221 1.342 . S
C220 C224 1.401 . S
C220 C225 1.499 . S
N221 Co204 1.989 1_565 S
N221 C220 1.342 . S
N221 N222 1.388 . S
N222 Co205 1.993 1_565 S
N222 N221 1.388 . S
N222 C223 1.346 . S
C223 N222 1.346 . S
C223 C224 1.396 . S
C223 C233 1.510 . S
C224 C220 1.401 . S
C224 C223 1.396 . S
C225 C220 1.499 . S
C225 H226 0.959 . S
C225 H227 0.960 1_655 S
C225 H228 0.961 . S
H226 C225 0.959 . S
H227 C225 0.960 1_455 S
H228 C225 0.961 . S
O229 Co204 1.967 . S
O229 C237 1.258 . S
O230 Co205 1.941 . S
O230 C237 1.266 . S
H231 C233 0.959 . S
H232 C233 0.961 1_455 S
C233 C223 1.510 . S
C233 H231 0.959 . S
C233 H232 0.961 1_655 S
C233 H234 0.960 . S
H234 C233 0.960 . S
H235 N215 0.862 1_565 S
O236 Co204 1.920 . S
O236 C209 1.302 . S
C237 O229 1.258 . S
C237 O230 1.266 . S
Co238 O241 1.970 1_565 S
Co238 N255 1.989 . S
Co238 O263 1.967 . S
Co238 O270 1.920 . S
Co239 O242 1.966 . S
Co239 N248 2.022 . S
Co239 N256 1.993 . S
Co239 O264 1.941 . S
C240 O241 1.258 . S
C240 O242 1.263 1_545 S
O241 Co238 1.970 1_545 S
O241 C240 1.258 . S
O242 Co239 1.966 . S
O242 C240 1.263 1_565 S
C243 O244 1.220 1_565 S
C243 O270 1.302 . S
O244 C243 1.220 1_545 S
C245 C247 1.400 . S
C245 N248 1.351 . S
C245 C250 1.501 1_565 S
C246 C247 1.387 . S
C246 N249 1.341 . S
C247 C245 1.400 . S
C247 C246 1.387 . S
N248 Co239 2.022 . S
N248 C245 1.351 . S
N248 N249 1.365 . S
N249 C246 1.341 . S
N249 N248 1.365 . S
N249 H269 0.862 . S
C250 C245 1.501 1_545 S
C250 H251 0.961 . S
C250 H252 0.961 . S
C250 H253 0.960 . S
H251 C250 0.961 . S
H252 C250 0.961 . S
H253 C250 0.960 . S
C254 N255 1.342 . S
C254 C258 1.401 . S
C254 C259 1.499 . S
N255 Co238 1.989 . S
N255 C254 1.342 . S
N255 N256 1.388 . S
N256 Co239 1.993 . S
N256 N255 1.388 . S
N256 C257 1.346 . S
C257 N256 1.346 . S
C257 C258 1.396 . S
C257 C267 1.510 . S
C258 C254 1.401 . S
C258 C257 1.396 . S
C259 C254 1.499 . S
C259 H260 0.959 . S
C259 H261 0.960 1_565 S
C259 H262 0.961 . S
H260 C259 0.959 . S
H261 C259 0.960 1_545 S
H262 C259 0.961 . S
O263 Co238 1.967 . S
O263 C271 1.258 . S
O264 Co239 1.941 . S
O264 C271 1.266 . S
H265 C267 0.959 . S
H266 C267 0.961 1_545 S
C267 C257 1.510 . S
C267 H265 0.959 . S
C267 H266 0.961 1_565 S
C267 H268 0.960 . S
H268 C267 0.960 . S
H269 N249 0.862 . S
O270 Co238 1.920 . S
O270 C243 1.302 . S
C271 O263 1.258 . S
C271 O264 1.266 . S
Co272 O275 1.970 . S
Co272 N289 1.989 1_565 S
Co272 O297 1.967 . S
Co272 O304 1.920 . S
Co273 O276 1.966 . S
Co273 N282 2.022 . S
Co273 N290 1.993 1_565 S
Co273 O298 1.941 . S
C274 O275 1.258 . S
C274 O276 1.263 . S
O275 Co272 1.970 . S
O275 C274 1.258 . S
O276 Co273 1.966 . S
O276 C274 1.263 . S
C277 O278 1.235 . S
C277 O304 1.289 . S
O278 C277 1.235 . S
C279 C281 1.400 . S
C279 N282 1.351 . S
C279 C284 1.501 . S
C280 C281 1.387 . S
C280 N283 1.341 . S
C281 C279 1.400 . S
C281 C280 1.387 . S
N282 Co273 2.022 . S
N282 C279 1.351 . S
N282 N283 1.365 . S
N283 C280 1.341 . S
N283 N282 1.365 . S
N283 H303 0.862 . S
C284 C279 1.501 . S
C284 H285 0.961 . S
C284 H286 0.961 . S
C284 H287 0.960 . S
H285 C284 0.961 . S
H286 C284 0.961 . S
H287 C284 0.960 . S
C288 N289 1.342 . S
C288 C292 1.401 . S
C288 C293 1.499 . S
N289 Co272 1.989 1_545 S
N289 C288 1.342 . S
N289 N290 1.388 . S
N290 Co273 1.993 1_545 S
N290 N289 1.388 . S
N290 C291 1.346 . S
C291 N290 1.346 . S
C291 C292 1.396 . S
C291 C301 1.510 . S
C292 C288 1.401 . S
C292 C291 1.396 . S
C293 C288 1.499 . S
C293 H294 0.959 . S
C293 H295 0.960 . S
C293 H296 0.961 . S
H294 C293 0.959 . S
H295 C293 0.960 . S
H296 C293 0.961 . S
O297 Co272 1.967 . S
O297 C305 1.258 . S
O298 Co273 1.941 . S
O298 C305 1.266 . S
H299 C301 0.959 . S
H300 C301 0.961 . S
C301 C291 1.510 . S
C301 H299 0.959 . S
C301 H300 0.961 . S
C301 H302 0.960 . S
H302 C301 0.960 . S
H303 N283 0.862 . S
O304 Co272 1.920 . S
O304 C277 1.289 . S
C305 O297 1.258 . S
C305 O298 1.266 . S
Co306 O309 1.970 . S
Co306 N323 1.989 . S
Co306 O331 1.967 . S
Co306 O338 1.920 . S
Co307 O310 1.966 . S
Co307 N316 2.022 . S
Co307 N324 1.993 . S
Co307 O332 1.941 . S
C308 O309 1.258 . S
C308 O310 1.263 . S
O309 Co306 1.970 . S
O309 C308 1.258 . S
O310 Co307 1.966 . S
O310 C308 1.263 . S
C311 O312 1.235 . S
C311 O338 1.289 . S
O312 C311 1.235 . S
C313 C315 1.400 . S
C313 N316 1.351 . S
C313 C318 1.501 . S
C314 C315 1.387 . S
C314 N317 1.341 . S
C315 C313 1.400 . S
C315 C314 1.387 . S
N316 Co307 2.022 . S
N316 C313 1.351 . S
N316 N317 1.365 . S
N317 C314 1.341 . S
N317 N316 1.365 . S
N317 H337 0.862 . S
C318 C313 1.501 . S
C318 H319 0.961 . S
C318 H320 0.961 . S
C318 H321 0.960 . S
H319 C318 0.961 . S
H320 C318 0.961 . S
H321 C318 0.960 . S
C322 N323 1.342 . S
C322 C326 1.401 . S
C322 C327 1.499 . S
N323 Co306 1.989 . S
N323 C322 1.342 . S
N323 N324 1.388 . S
N324 Co307 1.993 . S
N324 N323 1.388 . S
N324 C325 1.346 . S
C325 N324 1.346 . S
C325 C326 1.396 . S
C325 C335 1.510 . S
C326 C322 1.401 . S
C326 C325 1.396 . S
C327 C322 1.499 . S
C327 H328 0.959 . S
C327 H329 0.960 . S
C327 H330 0.961 . S
H328 C327 0.959 . S
H329 C327 0.960 . S
H330 C327 0.961 . S
O331 Co306 1.967 . S
O331 C339 1.258 . S
O332 Co307 1.941 . S
O332 C339 1.266 . S
H333 C335 0.959 . S
H334 C335 0.961 . S
C335 C325 1.510 . S
C335 H333 0.959 . S
C335 H334 0.961 . S
C335 H336 0.960 . S
H336 C335 0.960 . S
H337 N317 0.862 . S
O338 Co306 1.920 . S
O338 C311 1.289 . S
C339 O331 1.258 . S
C339 O332 1.266 . S
Co340 O343 1.970 . S
Co340 N357 1.989 . S
Co340 O365 1.967 . S
Co340 O372 1.920 . S
Co341 O344 1.966 . S
Co341 N350 2.022 . S
Co341 N358 1.993 . S
Co341 O366 1.941 . S
C342 O343 1.258 . S
C342 O344 1.263 . S
O343 Co340 1.970 . S
O343 C342 1.258 . S
O344 Co341 1.966 . S
O344 C342 1.263 . S
C345 O346 1.235 1_455 S
C345 O372 1.289 . S
O346 C345 1.235 1_655 S
C347 C349 1.400 . S
C347 N350 1.351 . S
C347 C352 1.501 1_455 S
C348 C349 1.387 . S
C348 N351 1.341 . S
C349 C347 1.400 . S
C349 C348 1.387 . S
N350 Co341 2.022 . S
N350 C347 1.351 . S
N350 N351 1.365 . S
N351 C348 1.341 . S
N351 N350 1.365 . S
N351 H371 0.862 . S
C352 C347 1.501 1_655 S
C352 H353 0.961 . S
C352 H354 0.961 . S
C352 H355 0.960 . S
H353 C352 0.961 . S
H354 C352 0.961 . S
H355 C352 0.960 . S
C356 N357 1.342 . S
C356 C360 1.401 . S
C356 C361 1.499 . S
N357 Co340 1.989 . S
N357 C356 1.342 . S
N357 N358 1.388 . S
N358 Co341 1.993 . S
N358 N357 1.388 . S
N358 C359 1.346 . S
C359 N358 1.346 . S
C359 C360 1.396 . S
C359 C369 1.510 . S
C360 C356 1.401 . S
C360 C359 1.396 . S
C361 C356 1.499 . S
C361 H362 0.959 . S
C361 H363 0.960 . S
C361 H364 0.961 . S
H362 C361 0.959 . S
H363 C361 0.960 . S
H364 C361 0.961 . S
O365 Co340 1.967 . S
O365 C373 1.258 . S
O366 Co341 1.941 . S
O366 C373 1.266 . S
H367 C369 0.959 . S
H368 C369 0.961 1_655 S
C369 C359 1.510 . S
C369 H367 0.959 . S
C369 H368 0.961 1_455 S
C369 H370 0.960 . S
H370 C369 0.960 . S
H371 N351 0.862 . S
O372 Co340 1.920 . S
O372 C345 1.289 . S
C373 O365 1.258 . S
C373 O366 1.266 . S
Co374 O377 1.970 . S
Co374 N391 1.989 1_655 S
Co374 O399 1.967 . S
Co374 O406 1.920 . S
Co375 O378 1.966 . S
Co375 N384 2.022 . S
Co375 N392 1.993 1_655 S
Co375 O400 1.941 . S
C376 O377 1.258 . S
C376 O378 1.263 . S
O377 Co374 1.970 . S
O377 C376 1.258 . S
O378 Co375 1.966 . S
O378 C376 1.263 . S
C379 O380 1.235 1_545 S
C379 O406 1.289 . S
O380 C379 1.235 1_565 S
C381 C383 1.400 . S
C381 N384 1.351 . S
C381 C386 1.501 1_545 S
C382 C383 1.387 . S
C382 N385 1.341 . S
C383 C381 1.400 . S
C383 C382 1.387 . S
N384 Co375 2.022 . S
N384 C381 1.351 . S
N384 N385 1.365 . S
N385 C382 1.341 . S
N385 N384 1.365 . S
N385 H405 0.862 . S
C386 C381 1.501 1_565 S
C386 H387 0.961 . S
C386 H388 0.961 . S
C386 H389 0.960 . S
H387 C386 0.961 . S
H388 C386 0.961 . S
H389 C386 0.960 . S
C390 N391 1.342 . S
C390 C394 1.401 . S
C390 C395 1.499 . S
N391 Co374 1.989 1_455 S
N391 C390 1.342 . S
N391 N392 1.388 . S
N392 Co375 1.993 1_455 S
N392 N391 1.388 . S
N392 C393 1.346 . S
C393 N392 1.346 . S
C393 C394 1.396 . S
C393 C403 1.510 . S
C394 C390 1.401 . S
C394 C393 1.396 . S
C395 C390 1.499 . S
C395 H396 0.959 . S
C395 H397 0.960 . S
C395 H398 0.961 . S
H396 C395 0.959 . S
H397 C395 0.960 . S
H398 C395 0.961 . S
O399 Co374 1.967 . S
O399 C407 1.258 . S
O400 Co375 1.941 . S
O400 C407 1.266 . S
H401 C403 0.959 . S
H402 C403 0.961 1_565 S
C403 C393 1.510 . S
C403 H401 0.959 . S
C403 H402 0.961 1_545 S
C403 H404 0.960 . S
H404 C403 0.960 . S
H405 N385 0.862 . S
O406 Co374 1.920 . S
O406 C379 1.289 . S
C407 O399 1.258 . S
C407 O400 1.266 . S
Co408 O411 1.970 . S
Co408 N425 1.989 . S
Co408 O433 1.967 . S
Co408 O440 1.920 . S
Co409 O412 1.966 . S
Co409 N418 2.022 . S
Co409 N426 1.993 . S
Co409 O434 1.941 . S
C410 O411 1.258 . S
C410 O412 1.263 . S
O411 Co408 1.970 . S
O411 C410 1.258 . S
O412 Co409 1.966 . S
O412 C410 1.263 . S
C413 O414 1.235 . S
C413 O440 1.289 . S
O414 C413 1.235 . S
C415 C417 1.400 . S
C415 N418 1.351 . S
C415 C420 1.501 . S
C416 C417 1.387 . S
C416 N419 1.341 . S
C417 C415 1.400 . S
C417 C416 1.387 . S
N418 Co409 2.022 . S
N418 C415 1.351 . S
N418 N419 1.365 . S
N419 C416 1.341 . S
N419 N418 1.365 . S
N419 H439 0.862 . S
C420 C415 1.501 . S
C420 H421 0.961 . S
C420 H422 0.961 . S
C420 H423 0.960 . S
H421 C420 0.961 . S
H422 C420 0.961 . S
H423 C420 0.960 . S
C424 N425 1.342 . S
C424 C428 1.401 . S
C424 C429 1.499 . S
N425 Co408 1.989 . S
N425 C424 1.342 . S
N425 N426 1.388 . S
N426 Co409 1.993 . S
N426 N425 1.388 . S
N426 C427 1.346 . S
C427 N426 1.346 . S
C427 C428 1.396 . S
C427 C437 1.510 . S
C428 C424 1.401 . S
C428 C427 1.396 . S
C429 C424 1.499 . S
C429 H430 0.959 . S
C429 H431 0.960 . S
C429 H432 0.961 . S
H430 C429 0.959 . S
H431 C429 0.960 . S
H432 C429 0.961 . S
O433 Co408 1.967 . S
O433 C441 1.258 . S
O434 Co409 1.941 . S
O434 C441 1.266 . S
H435 C437 0.959 . S
H436 C437 0.961 . S
C437 C427 1.510 . S
C437 H435 0.959 . S
C437 H436 0.961 . S
C437 H438 0.960 . S
H438 C437 0.960 . S
H439 N419 0.862 . S
O440 Co408 1.920 . S
O440 C413 1.289 . S
C441 O433 1.258 . S
C441 O434 1.266 . S
Co442 O445 1.970 . S
Co442 N459 1.989 1_655 S
Co442 O467 1.967 . S
Co442 O474 1.920 . S
Co443 O446 1.966 . S
Co443 N452 2.022 . S
Co443 N460 1.993 1_655 S
Co443 O468 1.941 . S
C444 O445 1.258 . S
C444 O446 1.263 . S
O445 Co442 1.970 . S
O445 C444 1.258 . S
O446 Co443 1.966 . S
O446 C444 1.263 . S
C447 O448 1.235 . S
C447 O474 1.289 . S
O448 C447 1.235 . S
C449 C451 1.400 . S
C449 N452 1.351 . S
C449 C454 1.501 . S
C450 C451 1.387 . S
C450 N453 1.341 . S
C451 C449 1.400 . S
C451 C450 1.387 . S
N452 Co443 2.022 . S
N452 C449 1.351 . S
N452 N453 1.365 . S
N453 C450 1.341 . S
N453 N452 1.365 . S
N453 H473 0.862 . S
C454 C449 1.501 . S
C454 H455 0.961 . S
C454 H456 0.961 . S
C454 H457 0.960 . S
H455 C454 0.961 . S
H456 C454 0.961 . S
H457 C454 0.960 . S
C458 N459 1.342 . S
C458 C462 1.401 . S
C458 C463 1.499 . S
N459 Co442 1.989 1_455 S
N459 C458 1.342 . S
N459 N460 1.388 . S
N460 Co443 1.993 1_455 S
N460 N459 1.388 . S
N460 C461 1.346 . S
C461 N460 1.346 . S
C461 C462 1.396 . S
C461 C471 1.510 . S
C462 C458 1.401 . S
C462 C461 1.396 . S
C463 C458 1.499 . S
C463 H464 0.959 . S
C463 H465 0.960 . S
C463 H466 0.961 . S
H464 C463 0.959 . S
H465 C463 0.960 . S
H466 C463 0.961 . S
O467 Co442 1.967 . S
O467 C475 1.258 . S
O468 Co443 1.941 . S
O468 C475 1.266 . S
H469 C471 0.959 . S
H470 C471 0.961 . S
C471 C461 1.510 . S
C471 H469 0.959 . S
C471 H470 0.961 . S
C471 H472 0.960 . S
H472 C471 0.960 . S
H473 N453 0.862 . S
O474 Co442 1.920 . S
O474 C447 1.289 . S
C475 O467 1.258 . S
C475 O468 1.266 . S
Co476 O479 1.970 . S
Co476 N493 1.989 1_565 S
Co476 O501 1.967 . S
Co476 O508 1.920 . S
Co477 O480 1.966 . S
Co477 N486 2.022 . S
Co477 N494 1.993 1_565 S
Co477 O502 1.941 . S
C478 O479 1.258 . S
C478 O480 1.263 . S
O479 Co476 1.970 . S
O479 C478 1.258 . S
O480 Co477 1.966 . S
O480 C478 1.263 . S
C481 O482 1.235 1_455 S
C481 O508 1.289 . S
O482 C481 1.235 1_655 S
C483 C485 1.400 . S
C483 N486 1.351 . S
C483 C488 1.501 1_455 S
C484 C485 1.387 . S
C484 N487 1.341 . S
C485 C483 1.400 . S
C485 C484 1.387 . S
N486 Co477 2.022 . S
N486 C483 1.351 . S
N486 N487 1.365 . S
N487 C484 1.341 . S
N487 N486 1.365 . S
N487 H507 0.862 . S
C488 C483 1.501 1_655 S
C488 H489 0.961 . S
C488 H490 0.961 . S
C488 H491 0.960 . S
H489 C488 0.961 . S
H490 C488 0.961 . S
H491 C488 0.960 . S
C492 N493 1.342 . S
C492 C496 1.401 . S
C492 C497 1.499 . S
N493 Co476 1.989 1_545 S
N493 C492 1.342 . S
N493 N494 1.388 . S
N494 Co477 1.993 1_545 S
N494 N493 1.388 . S
N494 C495 1.346 . S
C495 N494 1.346 . S
C495 C496 1.396 . S
C495 C505 1.510 . S
C496 C492 1.401 . S
C496 C495 1.396 . S
C497 C492 1.499 . S
C497 H498 0.959 . S
C497 H499 0.960 . S
C497 H500 0.961 . S
H498 C497 0.959 . S
H499 C497 0.960 . S
H500 C497 0.961 . S
O501 Co476 1.967 . S
O501 C509 1.258 . S
O502 Co477 1.941 . S
O502 C509 1.266 . S
H503 C505 0.959 . S
H504 C505 0.961 1_655 S
C505 C495 1.510 . S
C505 H503 0.959 . S
C505 H504 0.961 1_455 S
C505 H506 0.960 . S
H506 C505 0.960 . S
H507 N487 0.862 . S
O508 Co476 1.920 . S
O508 C481 1.289 . S
C509 O501 1.258 . S
C509 O502 1.266 . S
Co510 O513 1.970 . S
Co510 N527 1.989 . S
Co510 O535 1.967 . S
Co510 O542 1.920 . S
Co511 O514 1.966 . S
Co511 N520 2.022 . S
Co511 N528 1.993 . S
Co511 O536 1.941 . S
C512 O513 1.258 . S
C512 O514 1.263 . S
O513 Co510 1.970 . S
O513 C512 1.258 . S
O514 Co511 1.966 . S
O514 C512 1.263 . S
C515 O516 1.235 1_545 S
C515 O542 1.289 . S
O516 C515 1.235 1_565 S
C517 C519 1.400 . S
C517 N520 1.351 . S
C517 C522 1.501 1_545 S
C518 C519 1.387 . S
C518 N521 1.341 . S
C519 C517 1.400 . S
C519 C518 1.387 . S
N520 Co511 2.022 . S
N520 C517 1.351 . S
N520 N521 1.365 . S
N521 C518 1.341 . S
N521 N520 1.365 . S
N521 H541 0.862 . S
C522 C517 1.501 1_565 S
C522 H523 0.961 . S
C522 H524 0.961 . S
C522 H525 0.960 . S
H523 C522 0.961 . S
H524 C522 0.961 . S
H525 C522 0.960 . S
C526 N527 1.342 . S
C526 C530 1.401 . S
C526 C531 1.499 . S
N527 Co510 1.989 . S
N527 C526 1.342 . S
N527 N528 1.388 . S
N528 Co511 1.993 . S
N528 N527 1.388 . S
N528 C529 1.346 . S
C529 N528 1.346 . S
C529 C530 1.396 . S
C529 C539 1.510 . S
C530 C526 1.401 . S
C530 C529 1.396 . S
C531 C526 1.499 . S
C531 H532 0.959 . S
C531 H533 0.960 . S
C531 H534 0.961 . S
H532 C531 0.959 . S
H533 C531 0.960 . S
H534 C531 0.961 . S
O535 Co510 1.967 . S
O535 C543 1.258 . S
O536 Co511 1.941 . S
O536 C543 1.266 . S
H537 C539 0.959 . S
H538 C539 0.961 1_565 S
C539 C529 1.510 . S
C539 H537 0.959 . S
C539 H538 0.961 1_545 S
C539 H540 0.960 . S
H540 C539 0.960 . S
H541 N521 0.862 . S
O542 Co510 1.920 . S
O542 C515 1.289 . S
C543 O535 1.258 . S
C543 O536 1.266 . S
C544 C545 1.363 . S
C544 C550 1.379 . S
C544 N552 1.356 . S
C545 C544 1.363 . S
C545 C551 1.363 1_545 S
C546 C547 1.363 1_565 S
C546 C551 1.379 . S
C546 N553 1.356 . S
C547 C546 1.363 1_545 S
C547 C550 1.363 . S
N548 C550 1.356 . S
N548 H560 0.984 . S
N548 H561 0.985 . S
N549 C551 1.356 . S
N549 H554 0.984 . S
N549 H555 0.985 . S
C550 C544 1.379 . S
C550 C547 1.363 . S
C550 N548 1.356 . S
C551 C545 1.363 1_565 S
C551 C546 1.379 . S
C551 N549 1.356 . S
N552 C544 1.356 . S
N552 H558 0.984 . S
N552 H559 0.984 . S
N553 C546 1.356 . S
N553 H556 0.984 . S
N553 H557 0.985 . S
H554 N549 0.984 . S
H555 N549 0.985 . S
H556 N553 0.984 . S
H557 N553 0.985 . S
H558 N552 0.984 . S
H559 N552 0.984 . S
H560 N548 0.984 . S
H561 N548 0.985 . S
C562 C563 1.363 . S
C562 C568 1.379 . S
C562 N570 1.356 . S
C563 C562 1.363 . S
C563 C569 1.363 . S
C564 C565 1.363 . S
C564 C569 1.379 . S
C564 N571 1.356 . S
C565 C564 1.363 . S
C565 C568 1.363 . S
N566 C568 1.356 . S
N566 H578 0.984 . S
N566 H579 0.985 . S
N567 C569 1.356 . S
N567 H572 0.984 . S
N567 H573 0.985 . S
C568 C562 1.379 . S
C568 C565 1.363 . S
C568 N566 1.356 . S
C569 C563 1.363 . S
C569 C564 1.379 . S
C569 N567 1.356 . S
N570 C562 1.356 . S
N570 H576 0.984 . S
N570 H577 0.984 . S
N571 C564 1.356 . S
N571 H574 0.984 . S
N571 H575 0.985 . S
H572 N567 0.984 . S
H573 N567 0.985 . S
H574 N571 0.984 . S
H575 N571 0.985 . S
H576 N570 0.984 . S
H577 N570 0.984 . S
H578 N566 0.984 . S
H579 N566 0.985 . S
C580 C581 1.363 . S
C580 C586 1.379 . S
C580 N588 1.356 . S
C581 C580 1.363 . S
C581 C587 1.363 1_455 S
C582 C583 1.363 1_655 S
C582 C587 1.379 . S
C582 N589 1.356 . S
C583 C582 1.363 1_455 S
C583 C586 1.363 . S
N584 C586 1.356 . S
N584 H596 0.984 . S
N584 H597 0.985 . S
N585 C587 1.356 . S
N585 H590 0.984 . S
N585 H591 0.985 . S
C586 C580 1.379 . S
C586 C583 1.363 . S
C586 N584 1.356 . S
C587 C581 1.363 1_655 S
C587 C582 1.379 . S
C587 N585 1.356 . S
N588 C580 1.356 . S
N588 H594 0.984 . S
N588 H595 0.984 . S
N589 C582 1.356 . S
N589 H592 0.984 . S
N589 H593 0.985 . S
H590 N585 0.984 . S
H591 N585 0.985 . S
H592 N589 0.984 . S
H593 N589 0.985 . S
H594 N588 0.984 . S
H595 N588 0.984 . S
H596 N584 0.984 . S
H597 N584 0.985 . S
C598 C599 1.363 . S
C598 C604 1.379 . S
C598 N606 1.356 . S
C599 C598 1.363 . S
C599 C605 1.363 1_545 S
C600 C601 1.363 1_665 S
C600 C605 1.379 1_655 S
C600 N607 1.356 . S
C601 C600 1.363 1_445 S
C601 C604 1.363 . S
N602 C604 1.356 . S
N602 H614 0.984 . S
N602 H615 0.985 . S
N603 C605 1.356 1_655 S
N603 H608 0.984 1_655 S
N603 H609 0.985 . S
C604 C598 1.379 . S
C604 C601 1.363 . S
C604 N602 1.356 . S
C605 C599 1.363 1_565 S
C605 C600 1.379 1_455 S
C605 N603 1.356 1_455 S
N606 C598 1.356 . S
N606 H612 0.984 . S
N606 H613 0.984 . S
N607 C600 1.356 . S
N607 H610 0.984 . S
N607 H611 0.985 . S
H608 N603 0.984 1_455 S
H609 N603 0.985 . S
H610 N607 0.984 . S
H611 N607 0.985 . S
H612 N606 0.984 . S
H613 N606 0.984 . S
H614 N602 0.984 . S
H615 N602 0.985 . S
C616 C617 1.363 . S
C616 C622 1.379 . S
C616 N624 1.356 . S
C617 C616 1.363 . S
C617 C623 1.363 1_565 S
C618 C619 1.363 . S
C618 C623 1.379 . S
C618 N625 1.356 . S
C619 C618 1.363 . S
C619 C622 1.363 1_545 S
N620 C622 1.356 . S
N620 H632 0.984 . S
N620 H633 0.985 . S
N621 C623 1.356 . S
N621 H626 0.984 . S
N621 H627 0.985 . S
C622 C616 1.379 . S
C622 C619 1.363 1_565 S
C622 N620 1.356 . S
C623 C617 1.363 1_545 S
C623 C618 1.379 . S
C623 N621 1.356 . S
N624 C616 1.356 . S
N624 H630 0.984 . S
N624 H631 0.984 . S
N625 C618 1.356 . S
N625 H628 0.984 . S
N625 H629 0.985 . S
H626 N621 0.984 . S
H627 N621 0.985 . S
H628 N625 0.984 . S
H629 N625 0.985 . S
H630 N624 0.984 . S
H631 N624 0.984 . S
H632 N620 0.984 . S
H633 N620 0.985 . S
C634 C635 1.363 . S
C634 C640 1.379 . S
C634 N642 1.356 . S
C635 C634 1.363 . S
C635 C641 1.363 . S
C636 C637 1.363 . S
C636 C641 1.379 . S
C636 N643 1.356 . S
C637 C636 1.363 . S
C637 C640 1.363 . S
N638 C640 1.356 . S
N638 H650 0.984 . S
N638 H651 0.985 . S
N639 C641 1.356 . S
N639 H644 0.984 . S
N639 H645 0.985 . S
C640 C634 1.379 . S
C640 C637 1.363 . S
C640 N638 1.356 . S
C641 C635 1.363 . S
C641 C636 1.379 . S
C641 N639 1.356 . S
N642 C634 1.356 . S
N642 H648 0.984 . S
N642 H649 0.984 . S
N643 C636 1.356 . S
N643 H646 0.984 . S
N643 H647 0.985 . S
H644 N639 0.984 . S
H645 N639 0.985 . S
H646 N643 0.984 . S
H647 N643 0.985 . S
H648 N642 0.984 . S
H649 N642 0.984 . S
H650 N638 0.984 . S
H651 N638 0.985 . S
C652 C653 1.363 1_655 S
C652 C658 1.379 . S
C652 N660 1.356 . S
C653 C652 1.363 1_455 S
C653 C659 1.363 . S
C654 C655 1.363 1_455 S
C654 C659 1.379 . S
C654 N661 1.356 . S
C655 C654 1.363 1_655 S
C655 C658 1.363 . S
N656 C658 1.356 . S
N656 H668 0.984 . S
N656 H669 0.985 . S
N657 C659 1.356 . S
N657 H662 0.984 . S
N657 H663 0.985 . S
C658 C652 1.379 . S
C658 C655 1.363 . S
C658 N656 1.356 . S
C659 C653 1.363 . S
C659 C654 1.379 . S
C659 N657 1.356 . S
N660 C652 1.356 . S
N660 H666 0.984 . S
N660 H667 0.984 . S
N661 C654 1.356 . S
N661 H664 0.984 . S
N661 H665 0.985 . S
H662 N657 0.984 . S
H663 N657 0.985 . S
H664 N661 0.984 . S
H665 N661 0.985 . S
H666 N660 0.984 . S
H667 N660 0.984 . S
H668 N656 0.984 . S
H669 N656 0.985 . S
C670 C671 1.363 1_545 S
C670 C676 1.379 . S
C670 N678 1.356 . S
C671 C670 1.363 1_565 S
C671 C677 1.363 1_455 S
C672 C673 1.363 1_565 S
C672 C677 1.379 . S
C672 N679 1.356 . S
C673 C672 1.363 1_545 S
C673 C676 1.363 1_655 S
N674 C676 1.356 . S
N674 H686 0.984 . S
N674 H687 0.985 . S
N675 C677 1.356 . S
N675 H680 0.984 . S
N675 H681 0.985 . S
C676 C670 1.379 . S
C676 C673 1.363 1_455 S
C676 N674 1.356 . S
C677 C671 1.363 1_655 S
C677 C672 1.379 . S
C677 N675 1.356 . S
N678 C670 1.356 . S
N678 H684 0.984 . S
N678 H685 0.984 . S
N679 C672 1.356 . S
N679 H682 0.984 . S
N679 H683 0.985 . S
H680 N675 0.984 . S
H681 N675 0.985 . S
H682 N679 0.984 . S
H683 N679 0.985 . S
H684 N678 0.984 . S
H685 N678 0.984 . S
H686 N674 0.984 . S
H687 N674 0.985 . S
C688 C689 1.363 . S
C688 C694 1.379 . S
C688 N696 1.356 . S
C689 C688 1.363 . S
C689 C695 1.363 . S
C690 C691 1.363 . S
C690 C695 1.379 . S
C690 N697 1.356 . S
C691 C690 1.363 . S
C691 C694 1.363 . S
N692 C694 1.356 . S
N692 H704 0.984 . S
N692 H705 0.985 . S
N693 C695 1.356 . S
N693 H698 0.984 . S
N693 H699 0.985 . S
C694 C688 1.379 . S
C694 C691 1.363 . S
C694 N692 1.356 . S
C695 C689 1.363 . S
C695 C690 1.379 . S
C695 N693 1.356 . S
N696 C688 1.356 . S
N696 H702 0.984 . S
N696 H703 0.984 . S
N697 C690 1.356 . S
N697 H700 0.984 . S
N697 H701 0.985 . S
H698 N693 0.984 . S
H699 N693 0.985 . S
H700 N697 0.984 . S
H701 N697 0.985 . S
H702 N696 0.984 . S
H703 N696 0.984 . S
H704 N692 0.984 . S
H705 N692 0.985 . S
C706 C707 1.363 . S
C706 C712 1.379 . S
C706 N714 1.356 . S
C707 C706 1.363 . S
C707 C713 1.363 . S
C708 C709 1.363 . S
C708 C713 1.379 . S
C708 N715 1.356 . S
C709 C708 1.363 . S
C709 C712 1.363 . S
N710 C712 1.356 . S
N710 H722 0.984 . S
N710 H723 0.985 . S
N711 C713 1.356 . S
N711 H716 0.984 . S
N711 H717 0.985 . S
C712 C706 1.379 . S
C712 C709 1.363 . S
C712 N710 1.356 . S
C713 C707 1.363 . S
C713 C708 1.379 . S
C713 N711 1.356 . S
N714 C706 1.356 . S
N714 H720 0.984 . S
N714 H721 0.984 . S
N715 C708 1.356 . S
N715 H718 0.984 . S
N715 H719 0.985 . S
H716 N711 0.984 . S
H717 N711 0.985 . S
H718 N715 0.984 . S
H719 N715 0.985 . S
H720 N714 0.984 . S
H721 N714 0.984 . S
H722 N710 0.984 . S
H723 N710 0.985 . S
C724 C725 1.363 . S
C724 C730 1.379 . S
C724 N732 1.356 . S
C725 C724 1.363 . S
C725 C731 1.363 . S
C726 C727 1.363 . S
C726 C731 1.379 . S
C726 N733 1.356 . S
C727 C726 1.363 . S
C727 C730 1.363 . S
N728 C730 1.356 . S
N728 H740 0.984 . S
N728 H741 0.985 . S
N729 C731 1.356 . S
N729 H734 0.984 . S
N729 H735 0.985 . S
C730 C724 1.379 . S
C730 C727 1.363 . S
C730 N728 1.356 . S
C731 C725 1.363 . S
C731 C726 1.379 . S
C731 N729 1.356 . S
N732 C724 1.356 . S
N732 H738 0.984 . S
N732 H739 0.984 . S
N733 C726 1.356 . S
N733 H736 0.984 . S
N733 H737 0.985 . S
H734 N729 0.984 . S
H735 N729 0.985 . S
H736 N733 0.984 . S
H737 N733 0.985 . S
H738 N732 0.984 . S
H739 N732 0.984 . S
H740 N728 0.984 . S
H741 N728 0.985 . S
C742 C743 1.363 . S
C742 C748 1.379 . S
C742 N750 1.356 . S
C743 C742 1.363 . S
C743 C749 1.363 . S
C744 C745 1.363 . S
C744 C749 1.379 . S
C744 N751 1.356 . S
C745 C744 1.363 . S
C745 C748 1.363 . S
N746 C748 1.356 . S
N746 H758 0.984 . S
N746 H759 0.985 . S
N747 C749 1.356 . S
N747 H752 0.984 . S
N747 H753 0.985 . S
C748 C742 1.379 . S
C748 C745 1.363 . S
C748 N746 1.356 . S
C749 C743 1.363 . S
C749 C744 1.379 . S
C749 N747 1.356 . S
N750 C742 1.356 . S
N750 H756 0.984 . S
N750 H757 0.984 . S
N751 C744 1.356 . S
N751 H754 0.984 . S
N751 H755 0.985 . S
H752 N747 0.984 . S
H753 N747 0.985 . S
H754 N751 0.984 . S
H755 N751 0.985 . S
H756 N750 0.984 . S
H757 N750 0.984 . S
H758 N746 0.984 . S
H759 N746 0.985 . S
C760 C761 1.363 . S
C760 C766 1.379 . S
C760 N768 1.356 . S
C761 C760 1.363 . S
C761 C767 1.363 . S
C762 C763 1.363 . S
C762 C767 1.379 . S
C762 N769 1.356 . S
C763 C762 1.363 . S
C763 C766 1.363 . S
N764 C766 1.356 . S
N764 H776 0.984 . S
N764 H777 0.985 . S
N765 C767 1.356 . S
N765 H770 0.984 . S
N765 H771 0.985 . S
C766 C760 1.379 . S
C766 C763 1.363 . S
C766 N764 1.356 . S
C767 C761 1.363 . S
C767 C762 1.379 . S
C767 N765 1.356 . S
N768 C760 1.356 . S
N768 H774 0.984 . S
N768 H775 0.984 . S
N769 C762 1.356 . S
N769 H772 0.984 . S
N769 H773 0.985 . S
H770 N765 0.984 . S
H771 N765 0.985 . S
H772 N769 0.984 . S
H773 N769 0.985 . S
H774 N768 0.984 . S
H775 N768 0.984 . S
H776 N764 0.984 . S
H777 N764 0.985 . S
C778 C779 1.363 . S
C778 C784 1.379 . S
C778 N786 1.356 . S
C779 C778 1.363 . S
C779 C785 1.363 . S
C780 C781 1.363 . S
C780 C785 1.379 . S
C780 N787 1.356 . S
C781 C780 1.363 . S
C781 C784 1.363 . S
N782 C784 1.356 . S
N782 H794 0.984 . S
N782 H795 0.985 . S
N783 C785 1.356 . S
N783 H788 0.984 . S
N783 H789 0.985 . S
C784 C778 1.379 . S
C784 C781 1.363 . S
C784 N782 1.356 . S
C785 C779 1.363 . S
C785 C780 1.379 . S
C785 N783 1.356 . S
N786 C778 1.356 . S
N786 H792 0.984 . S
N786 H793 0.984 . S
N787 C780 1.356 . S
N787 H790 0.984 . S
N787 H791 0.985 . S
H788 N783 0.984 . S
H789 N783 0.985 . S
H790 N787 0.984 . S
H791 N787 0.985 . S
H792 N786 0.984 . S
H793 N786 0.984 . S
H794 N782 0.984 . S
H795 N782 0.985 . S
C796 C797 1.363 . S
C796 C802 1.379 . S
C796 N804 1.356 . S
C797 C796 1.363 . S
C797 C803 1.363 . S
C798 C799 1.363 . S
C798 C803 1.379 . S
C798 N805 1.356 . S
C799 C798 1.363 . S
C799 C802 1.363 . S
N800 C802 1.356 . S
N800 H812 0.984 . S
N800 H813 0.985 . S
N801 C803 1.356 . S
N801 H806 0.984 . S
N801 H807 0.985 . S
C802 C796 1.379 . S
C802 C799 1.363 . S
C802 N800 1.356 . S
C803 C797 1.363 . S
C803 C798 1.379 . S
C803 N801 1.356 . S
N804 C796 1.356 . S
N804 H810 0.984 . S
N804 H811 0.984 . S
N805 C798 1.356 . S
N805 H808 0.984 . S
N805 H809 0.985 . S
H806 N801 0.984 . S
H807 N801 0.985 . S
H808 N805 0.984 . S
H809 N805 0.985 . S
H810 N804 0.984 . S
H811 N804 0.984 . S
H812 N800 0.984 . S
H813 N800 0.985 . S
C814 C815 1.363 . S
C814 C820 1.379 . S
C814 N822 1.356 . S
C815 C814 1.363 . S
C815 C821 1.363 . S
C816 C817 1.363 . S
C816 C821 1.379 . S
C816 N823 1.356 . S
C817 C816 1.363 . S
C817 C820 1.363 . S
N818 C820 1.356 . S
N818 H830 0.984 . S
N818 H831 0.985 . S
N819 C821 1.356 . S
N819 H824 0.984 . S
N819 H825 0.985 . S
C820 C814 1.379 . S
C820 C817 1.363 . S
C820 N818 1.356 . S
C821 C815 1.363 . S
C821 C816 1.379 . S
C821 N819 1.356 . S
N822 C814 1.356 . S
N822 H828 0.984 . S
N822 H829 0.984 . S
N823 C816 1.356 . S
N823 H826 0.984 . S
N823 H827 0.985 . S
H824 N819 0.984 . S
H825 N819 0.985 . S
H826 N823 0.984 . S
H827 N823 0.985 . S
H828 N822 0.984 . S
H829 N822 0.984 . S
H830 N818 0.984 . S
H831 N818 0.985 . S
C832 C833 1.363 . S
C832 C838 1.379 . S
C832 N840 1.356 . S
C833 C832 1.363 . S
C833 C839 1.363 . S
C834 C835 1.363 . S
C834 C839 1.379 . S
C834 N841 1.356 . S
C835 C834 1.363 . S
C835 C838 1.363 . S
N836 C838 1.356 . S
N836 H848 0.984 . S
N836 H849 0.985 . S
N837 C839 1.356 . S
N837 H842 0.984 . S
N837 H843 0.985 . S
C838 C832 1.379 . S
C838 C835 1.363 . S
C838 N836 1.356 . S
C839 C833 1.363 . S
C839 C834 1.379 . S
C839 N837 1.356 . S
N840 C832 1.356 . S
N840 H846 0.984 . S
N840 H847 0.984 . S
N841 C834 1.356 . S
N841 H844 0.984 . S
N841 H845 0.985 . S
H842 N837 0.984 . S
H843 N837 0.985 . S
H844 N841 0.984 . S
H845 N841 0.985 . S
H846 N840 0.984 . S
H847 N840 0.984 . S
H848 N836 0.984 . S
H849 N836 0.985 . S
C850 C851 1.363 . S
C850 C856 1.379 . S
C850 N858 1.356 . S
C851 C850 1.363 . S
C851 C857 1.363 . S
C852 C853 1.363 . S
C852 C857 1.379 . S
C852 N859 1.356 . S
C853 C852 1.363 . S
C853 C856 1.363 . S
N854 C856 1.356 . S
N854 H866 0.984 . S
N854 H867 0.985 . S
N855 C857 1.356 . S
N855 H860 0.984 . S
N855 H861 0.985 . S
C856 C850 1.379 . S
C856 C853 1.363 . S
C856 N854 1.356 . S
C857 C851 1.363 . S
C857 C852 1.379 . S
C857 N855 1.356 . S
N858 C850 1.356 . S
N858 H864 0.984 . S
N858 H865 0.984 . S
N859 C852 1.356 . S
N859 H862 0.984 . S
N859 H863 0.985 . S
H860 N855 0.984 . S
H861 N855 0.985 . S
H862 N859 0.984 . S
H863 N859 0.985 . S
H864 N858 0.984 . S
H865 N858 0.984 . S
H866 N854 0.984 . S
H867 N854 0.985 . S
C868 C869 1.363 . S
C868 C874 1.379 . S
C868 N876 1.356 . S
C869 C868 1.363 . S
C869 C875 1.363 1_655 S
C870 C871 1.363 1_455 S
C870 C875 1.379 . S
C870 N877 1.356 . S
C871 C870 1.363 1_655 S
C871 C874 1.363 . S
N872 C874 1.356 . S
N872 H884 0.984 . S
N872 H885 0.985 . S
N873 C875 1.356 . S
N873 H878 0.984 . S
N873 H879 0.985 . S
C874 C868 1.379 . S
C874 C871 1.363 . S
C874 N872 1.356 . S
C875 C869 1.363 1_455 S
C875 C870 1.379 . S
C875 N873 1.356 . S
N876 C868 1.356 . S
N876 H882 0.984 . S
N876 H883 0.984 . S
N877 C870 1.356 . S
N877 H880 0.984 . S
N877 H881 0.985 . S
H878 N873 0.984 . S
H879 N873 0.985 . S
H880 N877 0.984 . S
H881 N877 0.985 . S
H882 N876 0.984 . S
H883 N876 0.984 . S
H884 N872 0.984 . S
H885 N872 0.985 . S
C886 C887 1.363 . S
C886 C892 1.379 . S
C886 N894 1.356 . S
C887 C886 1.363 . S
C887 C893 1.363 1_565 S
C888 C889 1.363 1_545 S
C888 C893 1.379 . S
C888 N895 1.356 . S
C889 C888 1.363 1_565 S
C889 C892 1.363 . S
N890 C892 1.356 . S
N890 H902 0.984 . S
N890 H903 0.985 . S
N891 C893 1.356 . S
N891 H896 0.984 . S
N891 H897 0.985 . S
C892 C886 1.379 . S
C892 C889 1.363 . S
C892 N890 1.356 . S
C893 C887 1.363 1_545 S
C893 C888 1.379 . S
C893 N891 1.356 . S
N894 C886 1.356 . S
N894 H900 0.984 . S
N894 H901 0.984 . S
N895 C888 1.356 . S
N895 H898 0.984 . S
N895 H899 0.985 . S
H896 N891 0.984 . S
H897 N891 0.985 . S
H898 N895 0.984 . S
H899 N895 0.985 . S
H900 N894 0.984 . S
H901 N894 0.984 . S
H902 N890 0.984 . S
H903 N890 0.985 . S
C904 C905 1.363 . S
C904 C910 1.379 . S
C904 N912 1.356 . S
C905 C904 1.363 . S
C905 C911 1.363 . S
C906 C907 1.363 . S
C906 C911 1.379 . S
C906 N913 1.356 . S
C907 C906 1.363 . S
C907 C910 1.363 . S
N908 C910 1.356 . S
N908 H920 0.984 . S
N908 H921 0.985 . S
N909 C911 1.356 . S
N909 H914 0.984 . S
N909 H915 0.985 . S
C910 C904 1.379 . S
C910 C907 1.363 . S
C910 N908 1.356 . S
C911 C905 1.363 . S
C911 C906 1.379 . S
C911 N909 1.356 . S
N912 C904 1.356 . S
N912 H918 0.984 . S
N912 H919 0.984 . S
N913 C906 1.356 . S
N913 H916 0.984 . S
N913 H917 0.985 . S
H914 N909 0.984 . S
H915 N909 0.985 . S
H916 N913 0.984 . S
H917 N913 0.985 . S
H918 N912 0.984 . S
H919 N912 0.984 . S
H920 N908 0.984 . S
H921 N908 0.985 . S
C922 C923 1.363 . S
C922 C928 1.379 . S
C922 N930 1.356 . S
C923 C922 1.363 . S
C923 C929 1.363 . S
C924 C925 1.363 . S
C924 C929 1.379 . S
C924 N931 1.356 . S
C925 C924 1.363 . S
C925 C928 1.363 . S
N926 C928 1.356 . S
N926 H938 0.984 . S
N926 H939 0.985 . S
N927 C929 1.356 . S
N927 H932 0.984 . S
N927 H933 0.985 . S
C928 C922 1.379 . S
C928 C925 1.363 . S
C928 N926 1.356 . S
C929 C923 1.363 . S
C929 C924 1.379 . S
C929 N927 1.356 . S
N930 C922 1.356 . S
N930 H936 0.984 . S
N930 H937 0.984 . S
N931 C924 1.356 . S
N931 H934 0.984 . S
N931 H935 0.985 . S
H932 N927 0.984 . S
H933 N927 0.985 . S
H934 N931 0.984 . S
H935 N931 0.985 . S
H936 N930 0.984 . S
H937 N930 0.984 . S
H938 N926 0.984 . S
H939 N926 0.985 . S
C940 C941 1.363 . S
C940 C946 1.379 . S
C940 N948 1.356 . S
C941 C940 1.363 . S
C941 C947 1.363 1_655 S
C942 C943 1.363 1_455 S
C942 C947 1.379 . S
C942 N949 1.356 . S
C943 C942 1.363 1_655 S
C943 C946 1.363 . S
N944 C946 1.356 . S
N944 H956 0.984 . S
N944 H957 0.985 . S
N945 C947 1.356 . S
N945 H950 0.984 . S
N945 H951 0.985 . S
C946 C940 1.379 . S
C946 C943 1.363 . S
C946 N944 1.356 . S
C947 C941 1.363 1_455 S
C947 C942 1.379 . S
C947 N945 1.356 . S
N948 C940 1.356 . S
N948 H954 0.984 . S
N948 H955 0.984 . S
N949 C942 1.356 . S
N949 H952 0.984 . S
N949 H953 0.985 . S
H950 N945 0.984 . S
H951 N945 0.985 . S
H952 N949 0.984 . S
H953 N949 0.985 . S
H954 N948 0.984 . S
H955 N948 0.984 . S
H956 N944 0.984 . S
H957 N944 0.985 . S
C958 C959 1.363 1_545 S
C958 C964 1.379 . S
C958 N966 1.356 . S
C959 C958 1.363 1_565 S
C959 C965 1.363 . S
C960 C961 1.363 . S
C960 C965 1.379 . S
C960 N967 1.356 . S
C961 C960 1.363 . S
C961 C964 1.363 1_565 S
N962 C964 1.356 . S
N962 H974 0.984 . S
N962 H975 0.985 . S
N963 C965 1.356 . S
N963 H968 0.984 . S
N963 H969 0.985 . S
C964 C958 1.379 . S
C964 C961 1.363 1_545 S
C964 N962 1.356 . S
C965 C959 1.363 . S
C965 C960 1.379 . S
C965 N963 1.356 . S
N966 C958 1.356 . S
N966 H972 0.984 . S
N966 H973 0.984 . S
N967 C960 1.356 . S
N967 H970 0.984 . S
N967 H971 0.985 . S
H968 N963 0.984 . S
H969 N963 0.985 . S
H970 N967 0.984 . S
H971 N967 0.985 . S
H972 N966 0.984 . S
H973 N966 0.984 . S
H974 N962 0.984 . S
H975 N962 0.985 . S
C976 C977 1.363 . S
C976 C982 1.379 . S
C976 N984 1.356 . S
C977 C976 1.363 . S
C977 C983 1.363 . S
C978 C979 1.363 . S
C978 C983 1.379 . S
C978 N985 1.356 . S
C979 C978 1.363 . S
C979 C982 1.363 . S
N980 C982 1.356 . S
N980 H992 0.984 . S
N980 H993 0.985 . S
N981 C983 1.356 . S
N981 H986 0.984 . S
N981 H987 0.985 . S
C982 C976 1.379 . S
C982 C979 1.363 . S
C982 N980 1.356 . S
C983 C977 1.363 . S
C983 C978 1.379 . S
C983 N981 1.356 . S
N984 C976 1.356 . S
N984 H990 0.984 . S
N984 H991 0.984 . S
N985 C978 1.356 . S
N985 H988 0.984 . S
N985 H989 0.985 . S
H986 N981 0.984 . S
H987 N981 0.985 . S
H988 N985 0.984 . S
H989 N985 0.985 . S
H990 N984 0.984 . S
H991 N984 0.984 . S
H992 N980 0.984 . S
H993 N980 0.985 . S
C994 C995 1.363 . S
C994 C1000 1.379 . S
C994 N1002 1.356 . S
C995 C994 1.363 . S
C995 C1001 1.363 . S
C996 C997 1.363 . S
C996 C1001 1.379 . S
C996 N1003 1.356 . S
C997 C996 1.363 . S
C997 C1000 1.363 . S
N998 C1000 1.356 . S
N998 H1010 0.984 . S
N998 H1011 0.985 . S
N999 C1001 1.356 . S
N999 H1004 0.984 . S
N999 H1005 0.985 . S
C1000 C994 1.379 . S
C1000 C997 1.363 . S
C1000 N998 1.356 . S
C1001 C995 1.363 . S
C1001 C996 1.379 . S
C1001 N999 1.356 . S
N1002 C994 1.356 . S
N1002 H1008 0.984 . S
N1002 H1009 0.984 . S
N1003 C996 1.356 . S
N1003 H1006 0.984 . S
N1003 H1007 0.985 . S
H1004 N999 0.984 . S
H1005 N999 0.985 . S
H1006 N1003 0.984 . S
H1007 N1003 0.985 . S
H1008 N1002 0.984 . S
H1009 N1002 0.984 . S
H1010 N998 0.984 . S
H1011 N998 0.985 . S
C1012 C1013 1.363 . S
C1012 C1018 1.379 . S
C1012 N1020 1.356 1_455 S
C1013 C1012 1.363 . S
C1013 C1019 1.363 . S
C1014 C1015 1.363 . S
C1014 C1019 1.379 . S
C1014 N1021 1.356 . S
C1015 C1014 1.363 . S
C1015 C1018 1.363 . S
N1016 C1018 1.356 1_655 S
N1016 H1028 0.984 . S
N1016 H1029 0.985 . S
N1017 C1019 1.356 . S
N1017 H1022 0.984 . S
N1017 H1023 0.985 . S
C1018 C1012 1.379 . S
C1018 C1015 1.363 . S
C1018 N1016 1.356 1_455 S
C1019 C1013 1.363 . S
C1019 C1014 1.379 . S
C1019 N1017 1.356 . S
N1020 C1012 1.356 1_655 S
N1020 H1026 0.984 . S
N1020 H1027 0.984 . S
N1021 C1014 1.356 . S
N1021 H1024 0.984 . S
N1021 H1025 0.985 . S
H1022 N1017 0.984 . S
H1023 N1017 0.985 . S
H1024 N1021 0.984 . S
H1025 N1021 0.985 . S
H1026 N1020 0.984 . S
H1027 N1020 0.984 . S
H1028 N1016 0.984 . S
H1029 N1016 0.985 . S
C1030 C1031 1.363 . S
C1030 C1036 1.379 . S
C1030 N1038 1.356 . S
C1031 C1030 1.363 . S
C1031 C1037 1.363 1_545 S
C1032 C1033 1.363 1_565 S
C1032 C1037 1.379 . S
C1032 N1039 1.356 . S
C1033 C1032 1.363 1_545 S
C1033 C1036 1.363 . S
N1034 C1036 1.356 . S
N1034 H1046 0.984 . S
N1034 H1047 0.985 . S
N1035 C1037 1.356 . S
N1035 H1040 0.984 . S
N1035 H1041 0.985 . S
C1036 C1030 1.379 . S
C1036 C1033 1.363 . S
C1036 N1034 1.356 . S
C1037 C1031 1.363 1_565 S
C1037 C1032 1.379 . S
C1037 N1035 1.356 . S
N1038 C1030 1.356 . S
N1038 H1044 0.984 . S
N1038 H1045 0.984 . S
N1039 C1032 1.356 . S
N1039 H1042 0.984 . S
N1039 H1043 0.985 . S
H1040 N1035 0.984 . S
H1041 N1035 0.985 . S
H1042 N1039 0.984 . S
H1043 N1039 0.985 . S
H1044 N1038 0.984 . S
H1045 N1038 0.984 . S
H1046 N1034 0.984 . S
H1047 N1034 0.985 . S
C1048 C1049 1.363 . S
C1048 C1054 1.379 . S
C1048 N1056 1.356 . S
C1049 C1048 1.363 . S
C1049 C1055 1.363 . S
C1050 C1051 1.363 . S
C1050 C1055 1.379 . S
C1050 N1057 1.356 . S
C1051 C1050 1.363 . S
C1051 C1054 1.363 . S
N1052 C1054 1.356 . S
N1052 H1064 0.984 . S
N1052 H1065 0.985 . S
N1053 C1055 1.356 . S
N1053 H1058 0.984 . S
N1053 H1059 0.985 . S
C1054 C1048 1.379 . S
C1054 C1051 1.363 . S
C1054 N1052 1.356 . S
C1055 C1049 1.363 . S
C1055 C1050 1.379 . S
C1055 N1053 1.356 . S
N1056 C1048 1.356 . S
N1056 H1062 0.984 . S
N1056 H1063 0.984 . S
N1057 C1050 1.356 . S
N1057 H1060 0.984 . S
N1057 H1061 0.985 . S
H1058 N1053 0.984 . S
H1059 N1053 0.985 . S
H1060 N1057 0.984 . S
H1061 N1057 0.985 . S
H1062 N1056 0.984 . S
H1063 N1056 0.984 . S
H1064 N1052 0.984 . S
H1065 N1052 0.985 . S
C1066 C1067 1.363 . S
C1066 C1072 1.379 . S
C1066 N1074 1.356 . S
C1067 C1066 1.363 . S
C1067 C1073 1.363 . S
C1068 C1069 1.363 . S
C1068 C1073 1.379 . S
C1068 N1075 1.356 . S
C1069 C1068 1.363 . S
C1069 C1072 1.363 . S
N1070 C1072 1.356 . S
N1070 H1082 0.984 . S
N1070 H1083 0.985 . S
N1071 C1073 1.356 . S
N1071 H1076 0.984 . S
N1071 H1077 0.985 . S
C1072 C1066 1.379 . S
C1072 C1069 1.363 . S
C1072 N1070 1.356 . S
C1073 C1067 1.363 . S
C1073 C1068 1.379 . S
C1073 N1071 1.356 . S
N1074 C1066 1.356 . S
N1074 H1080 0.984 . S
N1074 H1081 0.984 . S
N1075 C1068 1.356 . S
N1075 H1078 0.984 . S
N1075 H1079 0.985 . S
H1076 N1071 0.984 . S
H1077 N1071 0.985 . S
H1078 N1075 0.984 . S
H1079 N1075 0.985 . S
H1080 N1074 0.984 . S
H1081 N1074 0.984 . S
H1082 N1070 0.984 . S
H1083 N1070 0.985 . S
C1084 C1085 1.363 . S
C1084 C1090 1.379 . S
C1084 N1092 1.356 . S
C1085 C1084 1.363 . S
C1085 C1091 1.363 . S
C1086 C1087 1.363 . S
C1086 C1091 1.379 . S
C1086 N1093 1.356 1_455 S
C1087 C1086 1.363 . S
C1087 C1090 1.363 . S
N1088 C1090 1.356 . S
N1088 H1100 0.984 . S
N1088 H1101 0.985 . S
N1089 C1091 1.356 1_655 S
N1089 H1094 0.984 . S
N1089 H1095 0.985 . S
C1090 C1084 1.379 . S
C1090 C1087 1.363 . S
C1090 N1088 1.356 . S
C1091 C1085 1.363 . S
C1091 C1086 1.379 . S
C1091 N1089 1.356 1_455 S
N1092 C1084 1.356 . S
N1092 H1098 0.984 . S
N1092 H1099 0.984 . S
N1093 C1086 1.356 1_655 S
N1093 H1096 0.984 . S
N1093 H1097 0.985 . S
H1094 N1089 0.984 . S
H1095 N1089 0.985 . S
H1096 N1093 0.984 . S
H1097 N1093 0.985 . S
H1098 N1092 0.984 . S
H1099 N1092 0.984 . S
H1100 N1088 0.984 . S
H1101 N1088 0.985 . S
C1102 C1103 1.364 . S
C1102 C1108 1.379 1_545 S
C1102 N1110 1.356 1_545 S
C1103 C1102 1.364 . S
C1103 C1109 1.363 . S
C1104 C1105 1.363 . S
C1104 C1109 1.379 . S
C1104 N1111 1.356 . S
C1105 C1104 1.363 . S
C1105 C1108 1.352 1_545 S
N1106 C1108 1.365 . S
N1106 H1118 0.984 . S
N1106 H1119 0.985 . S
N1107 C1109 1.356 . S
N1107 H1112 0.984 . S
N1107 H1113 0.985 . S
C1108 C1102 1.379 1_565 S
C1108 C1105 1.352 1_565 S
C1108 N1106 1.365 . S
C1109 C1103 1.363 . S
C1109 C1104 1.379 . S
C1109 N1107 1.356 . S
N1110 C1102 1.356 1_565 S
N1110 H1116 0.984 . S
N1110 H1117 0.984 . S
N1111 C1104 1.356 . S
N1111 H1114 0.984 . S
N1111 H1115 0.985 . S
H1112 N1107 0.984 . S
H1113 N1107 0.985 . S
H1114 N1111 0.984 . S
H1115 N1111 0.985 . S
H1116 N1110 0.984 . S
H1117 N1110 0.984 . S
H1118 N1106 0.984 . S
H1119 N1106 0.985 . S
C1120 C1121 1.363 . S
C1120 C1126 1.379 1_556 S
C1120 N1128 1.356 . S
C1121 C1120 1.363 . S
C1121 C1127 1.363 1_565 S
C1122 C1123 1.363 1_556 S
C1122 C1127 1.379 . S
C1122 N1129 1.356 1_556 S
C1123 C1122 1.363 1_554 S
C1123 C1126 1.363 1_545 S
N1124 C1126 1.356 . S
N1124 H1136 0.984 . S
N1124 H1137 0.985 . S
N1125 C1127 1.356 . S
N1125 H1130 0.984 1_545 S
N1125 H1131 0.985 . S
C1126 C1120 1.379 1_554 S
C1126 C1123 1.363 1_565 S
C1126 N1124 1.356 . S
C1127 C1121 1.363 1_545 S
C1127 C1122 1.379 . S
C1127 N1125 1.356 . S
N1128 C1120 1.356 . S
N1128 H1134 0.984 . S
N1128 H1135 0.984 . S
N1129 C1122 1.356 1_554 S
N1129 H1132 0.984 . S
N1129 H1133 0.985 1_554 S
H1130 N1125 0.984 1_565 S
H1131 N1125 0.985 . S
H1132 N1129 0.984 . S
H1133 N1129 0.985 1_556 S
H1134 N1128 0.984 . S
H1135 N1128 0.984 . S
H1136 N1124 0.984 . S
H1137 N1124 0.985 . S
C1138 C1139 1.363 . S
C1138 C1144 1.379 . S
C1138 N1146 1.356 . S
C1139 C1138 1.363 . S
C1139 C1145 1.363 . S
C1140 C1141 1.363 . S
C1140 C1145 1.379 . S
C1140 N1147 1.356 . S
C1141 C1140 1.363 . S
C1141 C1144 1.363 . S
N1142 C1144 1.356 . S
N1142 H1154 0.984 . S
N1142 H1155 0.985 . S
N1143 C1145 1.356 . S
N1143 H1148 0.984 . S
N1143 H1149 0.985 . S
C1144 C1138 1.379 . S
C1144 C1141 1.363 . S
C1144 N1142 1.356 . S
C1145 C1139 1.363 . S
C1145 C1140 1.379 . S
C1145 N1143 1.356 . S
N1146 C1138 1.356 . S
N1146 H1152 0.984 . S
N1146 H1153 0.984 . S
N1147 C1140 1.356 . S
N1147 H1150 0.984 . S
N1147 H1151 0.985 . S
H1148 N1143 0.984 . S
H1149 N1143 0.985 . S
H1150 N1147 0.984 . S
H1151 N1147 0.985 . S
H1152 N1146 0.984 . S
H1153 N1146 0.984 . S
H1154 N1142 0.984 . S
H1155 N1142 0.985 . S
C1156 C1157 1.363 1_655 S
C1156 C1162 1.379 1_554 S
C1156 N1164 1.356 . S
C1157 C1156 1.363 1_455 S
C1157 C1163 1.363 . S
C1158 C1159 1.363 . S
C1158 C1163 1.379 1_556 S
C1158 N1165 1.356 . S
C1159 C1158 1.363 . S
C1159 C1162 1.363 1_455 S
N1160 C1162 1.356 . S
N1160 H1172 0.984 . S
N1160 H1173 0.985 . S
N1161 C1163 1.356 . S
N1161 H1166 0.984 . S
N1161 H1167 0.985 . S
C1162 C1156 1.379 1_556 S
C1162 C1159 1.363 1_655 S
C1162 N1160 1.356 . S
C1163 C1157 1.363 . S
C1163 C1158 1.379 1_554 S
C1163 N1161 1.356 . S
N1164 C1156 1.356 . S
N1164 H1170 0.984 . S
N1164 H1171 0.984 . S
N1165 C1158 1.356 . S
N1165 H1168 0.984 . S
N1165 H1169 0.985 . S
H1166 N1161 0.984 . S
H1167 N1161 0.985 . S
H1168 N1165 0.984 . S
H1169 N1165 0.985 . S
H1170 N1164 0.984 . S
H1171 N1164 0.984 . S
H1172 N1160 0.984 . S
H1173 N1160 0.985 . S
C1174 C1175 1.363 1_455 S
C1174 C1180 1.379 . S
C1174 N1182 1.356 . S
C1175 C1174 1.363 1_655 S
C1175 C1181 1.363 1_545 S
C1176 C1177 1.363 1_665 S
C1176 C1181 1.379 . S
C1176 N1183 1.356 . S
C1177 C1176 1.363 1_445 S
C1177 C1180 1.363 . S
N1178 C1180 1.356 . S
N1178 H1190 0.984 . S
N1178 H1191 0.985 . S
N1179 C1181 1.356 . S
N1179 H1184 0.984 . S
N1179 H1185 0.985 . S
C1180 C1174 1.379 . S
C1180 C1177 1.363 . S
C1180 N1178 1.356 . S
C1181 C1175 1.363 1_565 S
C1181 C1176 1.379 . S
C1181 N1179 1.356 . S
N1182 C1174 1.356 . S
N1182 H1188 0.984 . S
N1182 H1189 0.984 1_455 S
N1183 C1176 1.356 . S
N1183 H1186 0.984 . S
N1183 H1187 0.985 . S
H1184 N1179 0.984 . S
H1185 N1179 0.985 . S
H1186 N1183 0.984 . S
H1187 N1183 0.985 . S
H1188 N1182 0.984 . S
H1189 N1182 0.984 1_655 S
H1190 N1178 0.984 . S
H1191 N1178 0.985 . S
C1192 C1193 1.363 . S
C1192 C1198 1.379 1_556 S
C1192 N1200 1.356 . S
C1193 C1192 1.363 . S
C1193 C1199 1.363 . S
C1194 C1195 1.363 . S
C1194 C1199 1.379 1_554 S
C1194 N1201 1.356 . S
C1195 C1194 1.363 . S
C1195 C1198 1.363 . S
N1196 C1198 1.356 . S
N1196 H1208 0.984 . S
N1196 H1209 0.985 . S
N1197 C1199 1.356 . S
N1197 H1202 0.984 . S
N1197 H1203 0.985 . S
C1198 C1192 1.379 1_554 S
C1198 C1195 1.363 . S
C1198 N1196 1.356 . S
C1199 C1193 1.363 . S
C1199 C1194 1.379 1_556 S
C1199 N1197 1.356 . S
N1200 C1192 1.356 . S
N1200 H1206 0.984 . S
N1200 H1207 0.984 . S
N1201 C1194 1.356 . S
N1201 H1204 0.984 . S
N1201 H1205 0.985 . S
H1202 N1197 0.984 . S
H1203 N1197 0.985 . S
H1204 N1201 0.984 . S
H1205 N1201 0.985 . S
H1206 N1200 0.984 . S
H1207 N1200 0.984 . S
H1208 N1196 0.984 . S
H1209 N1196 0.985 . S
C1210 C1211 1.363 . S
C1210 C1216 1.379 1_455 S
C1210 N1218 1.356 . S
C1211 C1210 1.363 . S
C1211 C1217 1.363 1_455 S
C1212 C1213 1.363 . S
C1212 C1217 1.379 . S
C1212 N1219 1.356 . S
C1213 C1212 1.363 . S
C1213 C1216 1.363 . S
N1214 C1216 1.356 . S
N1214 H1226 0.984 1_655 S
N1214 H1227 0.985 . S
N1215 C1217 1.356 . S
N1215 H1220 0.984 1_655 S
N1215 H1221 0.985 . S
C1216 C1210 1.379 1_655 S
C1216 C1213 1.363 . S
C1216 N1214 1.356 . S
C1217 C1211 1.363 1_655 S
C1217 C1212 1.379 . S
C1217 N1215 1.356 . S
N1218 C1210 1.356 . S
N1218 H1224 0.984 . S
N1218 H1225 0.984 . S
N1219 C1212 1.356 . S
N1219 H1222 0.984 . S
N1219 H1223 0.985 . S
H1220 N1215 0.984 1_455 S
H1221 N1215 0.985 . S
H1222 N1219 0.984 . S
H1223 N1219 0.985 . S
H1224 N1218 0.984 . S
H1225 N1218 0.984 . S
H1226 N1214 0.984 1_455 S
H1227 N1214 0.985 . S
C1228 C1229 1.363 . S
C1228 C1234 1.379 1_554 S
C1228 N1236 1.356 . S
C1229 C1228 1.363 . S
C1229 C1235 1.364 1_565 S
C1230 C1231 1.363 1_654 S
C1230 C1235 1.378 1_655 S
C1230 N1237 1.356 1_554 S
C1231 C1230 1.363 1_456 S
C1231 C1234 1.363 1_545 S
N1232 C1234 1.356 . S
N1232 H1244 0.984 . S
N1232 H1245 0.985 . S
N1233 C1235 1.356 1_655 S
N1233 H1238 0.984 1_545 S
N1233 H1239 0.985 . S
C1234 C1228 1.379 1_556 S
C1234 C1231 1.363 1_565 S
C1234 N1232 1.356 . S
C1235 C1229 1.364 1_545 S
C1235 C1230 1.378 1_455 S
C1235 N1233 1.356 1_455 S
N1236 C1228 1.356 . S
N1236 H1242 0.984 . S
N1236 H1243 0.984 . S
N1237 C1230 1.356 1_556 S
N1237 H1240 0.984 . S
N1237 H1241 0.985 1_556 S
H1238 N1233 0.984 1_565 S
H1239 N1233 0.985 . S
H1240 N1237 0.984 . S
H1241 N1237 0.985 1_554 S
H1242 N1236 0.984 . S
H1243 N1236 0.984 . S
H1244 N1232 0.984 . S
H1245 N1232 0.985 . S
C1246 C1247 1.363 1_565 S
C1246 C1252 1.379 . S
C1246 N1254 1.356 . S
C1247 C1246 1.363 1_545 S
C1247 C1253 1.363 . S
C1248 C1249 1.363 . S
C1248 C1253 1.379 . S
C1248 N1255 1.356 . S
C1249 C1248 1.363 . S
C1249 C1252 1.363 1_545 S
N1250 C1252 1.356 . S
N1250 H1262 0.984 . S
N1250 H1263 0.985 . S
N1251 C1253 1.356 . S
N1251 H1256 0.984 . S
N1251 H1257 0.985 . S
C1252 C1246 1.379 . S
C1252 C1249 1.363 1_565 S
C1252 N1250 1.356 . S
C1253 C1247 1.363 . S
C1253 C1248 1.379 . S
C1253 N1251 1.356 . S
N1254 C1246 1.356 . S
N1254 H1260 0.984 . S
N1254 H1261 0.984 . S
N1255 C1248 1.356 . S
N1255 H1258 0.984 . S
N1255 H1259 0.985 . S
H1256 N1251 0.984 . S
H1257 N1251 0.985 . S
H1258 N1255 0.984 . S
H1259 N1255 0.985 . S
H1260 N1254 0.984 . S
H1261 N1254 0.984 . S
H1262 N1250 0.984 . S
H1263 N1250 0.985 . S
C545 C5 1.833 . S
C547 C243 1.832 1_545 S
C563 C141 1.833 . S
C565 C39 1.833 . S
C581 C73 1.832 1_455 S
C583 C175 1.833 . S
C599 C107 1.832 1_545 S
C601 C209 1.832 1_455 S
C617 C281 1.358 . S
C619 C519 1.358 . S
C635 C315 1.358 . S
C637 C417 1.358 . S
C653 C349 1.359 . S
C655 C451 1.359 . S
C671 C485 1.358 . S
C673 C383 1.358 . S
C689 C33 1.924 . S
C691 C101 1.924 . S
C707 C135 1.924 . S
C709 C67 1.924 . S
C725 C237 1.924 . S
C727 C169 1.924 . S
C743 C203 1.924 . S
C745 C271 1.924 . S
C761 C373 1.532 . S
C763 C305 1.532 . S
C779 C407 1.532 . S
C781 C339 1.532 . S
C797 C509 1.532 . S
C799 C441 1.532 . S
C815 C543 1.532 . S
C817 C475 1.532 . S
C833 C410 0.840 . S
C835 C20 0.853 . S
C851 C444 0.840 . S
C853 C54 0.853 . S
C869 C88 0.853 . S
C871 C478 0.840 1_655 S
C887 C512 0.840 1_565 S
C889 C122 0.853 . S
C905 C156 0.853 . S
C907 C274 0.840 . S
C923 C308 0.840 . S
C925 C190 0.853 . S
C941 C224 0.853 . S
C943 C342 0.840 1_655 S
C959 C258 0.853 . S
C961 C376 0.840 1_565 S
C977 C138 0.854 . S
C979 C292 0.865 . S
C995 C172 0.853 . S
C997 C326 0.864 . S
C1013 C206 0.853 . S
C1015 C360 0.864 . S
C1031 C240 0.853 . S
C1033 C394 0.864 . S
C1049 C2 0.853 . S
C1051 C428 0.864 . S
C1067 C36 0.854 . S
C1069 C462 0.865 . S
C1085 C70 0.853 . S
C1087 C496 0.864 . S
C1103 C530 0.864 . S
C1105 C104 0.853 . S
C1121 C277 1.645 . S
C1123 C9 1.594 . S
C1139 C43 1.594 . S
C1141 C311 1.645 . S
C1157 C77 1.594 1_455 S
C1159 C345 1.644 . S
C1175 C379 1.644 . S
C1177 C111 1.594 1_545 S
C1193 C145 1.594 . S
C1195 C413 1.645 . S
C1211 C179 1.594 . S
C1213 C447 1.645 . S
C1229 C481 1.644 . S
C1231 C213 1.594 1_455 S
C1247 C247 1.594 1_545 S
C1249 C515 1.644 . S
