# Generated by pormake.
# Topology reo-e, (6)-cn, num edge types: 1
# Building blocks:
#     Node 0, Type 0, BuildingBlock: IZENUY_clean_sbu_0, # of connection points: 6
#     Node 1, Type 0, BuildingBlock: IZENUY_clean_sbu_0, # of connection points: 6
#     Node 2, Type 0, BuildingBlock: IZENUY_clean_sbu_0, # of connection points: 6
#     Node 3, Type 0, BuildingBlock: IZENUY_clean_sbu_0, # of connection points: 6
#     Node 4, Type 0, BuildingBlock: IZENUY_clean_sbu_0, # of connection points: 6
#     Node 5, Type 0, BuildingBlock: IZENUY_clean_sbu_0, # of connection points: 6
#     Node 6, Type 0, BuildingBlock: IZENUY_clean_sbu_0, # of connection points: 6
#     Node 7, Type 0, BuildingBlock: IZENUY_clean_sbu_0, # of connection points: 6
#     Node 8, Type 0, BuildingBlock: IZENUY_clean_sbu_0, # of connection points: 6
#     Node 9, Type 0, BuildingBlock: IZENUY_clean_sbu_0, # of connection points: 6
#     Node 10, Type 0, BuildingBlock: IZENUY_clean_sbu_0, # of connection points: 6
#     Node 11, Type 0, BuildingBlock: IZENUY_clean_sbu_0, # of connection points: 6
#     Edge 12, Type (0, 0), BuildingBlock: EZIPEK_clean_linker_0, # of connection points: 2
#     Edge 13, Type (0, 0), BuildingBlock: EZIPEK_clean_linker_0, # of connection points: 2
#     Edge 14, Type (0, 0), BuildingBlock: EZIPEK_clean_linker_0, # of connection points: 2
#     Edge 15, Type (0, 0), BuildingBlock: EZIPEK_clean_linker_0, # of connection points: 2
#     Edge 16, Type (0, 0), BuildingBlock: EZIPEK_clean_linker_0, # of connection points: 2
#     Edge 17, Type (0, 0), BuildingBlock: EZIPEK_clean_linker_0, # of connection points: 2
#     Edge 18, Type (0, 0), BuildingBlock: EZIPEK_clean_linker_0, # of connection points: 2
#     Edge 19, Type (0, 0), BuildingBlock: EZIPEK_clean_linker_0, # of connection points: 2
#     Edge 20, Type (0, 0), BuildingBlock: EZIPEK_clean_linker_0, # of connection points: 2
#     Edge 21, Type (0, 0), BuildingBlock: EZIPEK_clean_linker_0, # of connection points: 2
#     Edge 22, Type (0, 0), BuildingBlock: EZIPEK_clean_linker_0, # of connection points: 2
#     Edge 23, Type (0, 0), BuildingBlock: EZIPEK_clean_linker_0, # of connection points: 2
#     Edge 24, Type (0, 0), BuildingBlock: EZIPEK_clean_linker_0, # of connection points: 2
#     Edge 25, Type (0, 0), BuildingBlock: EZIPEK_clean_linker_0, # of connection points: 2
#     Edge 26, Type (0, 0), BuildingBlock: EZIPEK_clean_linker_0, # of connection points: 2
#     Edge 27, Type (0, 0), BuildingBlock: EZIPEK_clean_linker_0, # of connection points: 2
#     Edge 28, Type (0, 0), BuildingBlock: EZIPEK_clean_linker_0, # of connection points: 2
#     Edge 29, Type (0, 0), BuildingBlock: EZIPEK_clean_linker_0, # of connection points: 2
#     Edge 30, Type (0, 0), BuildingBlock: EZIPEK_clean_linker_0, # of connection points: 2
#     Edge 31, Type (0, 0), BuildingBlock: EZIPEK_clean_linker_0, # of connection points: 2
#     Edge 32, Type (0, 0), BuildingBlock: EZIPEK_clean_linker_0, # of connection points: 2
#     Edge 33, Type (0, 0), BuildingBlock: EZIPEK_clean_linker_0, # of connection points: 2
#     Edge 34, Type (0, 0), BuildingBlock: EZIPEK_clean_linker_0, # of connection points: 2
#     Edge 35, Type (0, 0), BuildingBlock: EZIPEK_clean_linker_0, # of connection points: 2
#     Edge 36, Type (0, 0), BuildingBlock: EZIPEK_clean_linker_0, # of connection points: 2
#     Edge 37, Type (0, 0), BuildingBlock: EZIPEK_clean_linker_0, # of connection points: 2
#     Edge 38, Type (0, 0), BuildingBlock: EZIPEK_clean_linker_0, # of connection points: 2
#     Edge 39, Type (0, 0), BuildingBlock: EZIPEK_clean_linker_0, # of connection points: 2
#     Edge 40, Type (0, 0), BuildingBlock: EZIPEK_clean_linker_0, # of connection points: 2
#     Edge 41, Type (0, 0), BuildingBlock: EZIPEK_clean_linker_0, # of connection points: 2
#     Edge 42, Type (0, 0), BuildingBlock: EZIPEK_clean_linker_0, # of connection points: 2
#     Edge 43, Type (0, 0), BuildingBlock: EZIPEK_clean_linker_0, # of connection points: 2
#     Edge 44, Type (0, 0), BuildingBlock: EZIPEK_clean_linker_0, # of connection points: 2
#     Edge 45, Type (0, 0), BuildingBlock: EZIPEK_clean_linker_0, # of connection points: 2
#     Edge 46, Type (0, 0), BuildingBlock: EZIPEK_clean_linker_0, # of connection points: 2
#     Edge 47, Type (0, 0), BuildingBlock: EZIPEK_clean_linker_0, # of connection points: 2
# Relax obj value: 0.074
# Max RMSD: 0.096
# Mean RMSD: 0.095
data_MOF--net-reo-e--node1-IZENUY_clean_sbu_0--edge1-EZIPEK_clean_linker_0
_symmetry_space_group_name_H-M    P1
_symmetry_Int_Tables_number       1
_symmetry_cell_setting            triclinic
loop_
_symmetry_equiv_pos_as_xyz
'x, y, z'
_cell_length_a     28.242507
_cell_length_b     28.235966
_cell_length_c     28.322023
_cell_angle_alpha  90.194118
_cell_angle_beta   90.121285
_cell_angle_gamma 90.141257
loop_
_atom_site_label
_atom_site_type_symbol
_atom_site_fract_x
_atom_site_fract_y
_atom_site_fract_z
_atom_type_partial_charge
Fe0 Fe 0.1975 0.20427 0.57037 0.0
Fe1 Fe 0.25838 0.27737 0.5148 0.0
O2 O 0.21918 0.22705 0.51522 0.0
Fe3 Fe 0.2011 0.19915 0.4606 0.0
O4 O 0.14058 0.18674 0.47951 0.0
O5 O 0.13639 0.2122 0.5528 0.0
O6 O 0.19275 0.26052 0.59996 0.0
C7 C 0.20056 0.30306 0.59077 0.0
C8 C 0.21062 0.12009 0.5169 0.0
O9 O 0.22024 0.31443 0.55226 0.0
C10 C 0.29749 0.22378 0.44146 0.0
O11 O 0.25687 0.19488 0.59425 0.0
O12 O 0.29262 0.25815 0.56563 0.0
O13 O 0.22151 0.14091 0.47906 0.0
O14 O 0.19708 0.14276 0.55255 0.0
C15 C 0.19788 0.29384 0.43494 0.0
O16 O 0.30268 0.24775 0.4787 0.0
O17 O 0.25772 0.20683 0.43004 0.0
C18 C 0.29136 0.22359 0.59377 0.0
O19 O 0.23111 0.30488 0.46295 0.0
O20 O 0.17826 0.25376 0.43601 0.0
C21 C 0.11668 0.19893 0.51506 0.0
Fe22 Fe 0.77252 0.27811 0.51194 0.0
Fe23 Fe 0.82841 0.20746 0.57351 0.0
O24 O 0.81024 0.22807 0.51696 0.0
Fe25 Fe 0.82979 0.19937 0.46454 0.0
O26 O 0.83106 0.25341 0.42949 0.0
O27 O 0.81779 0.31128 0.4789 0.0
O28 O 0.79261 0.30787 0.56604 0.0
C29 C 0.82742 0.30226 0.59336 0.0
C30 C 0.73884 0.21796 0.43863 0.0
O31 O 0.85162 0.26494 0.59157 0.0
C32 C 0.81789 0.12191 0.52751 0.0
O33 O 0.72573 0.24801 0.54421 0.0
O34 O 0.77076 0.21946 0.60135 0.0
O35 O 0.76932 0.18612 0.44593 0.0
O36 O 0.74327 0.25836 0.45751 0.0
C37 C 0.91169 0.20278 0.51712 0.0
O38 O 0.80708 0.14762 0.56223 0.0
O39 O 0.83317 0.13973 0.48969 0.0
C40 C 0.73043 0.2309 0.58517 0.0
O41 O 0.88903 0.19285 0.55444 0.0
O42 O 0.89104 0.21116 0.47862 0.0
C43 C 0.83664 0.2963 0.44102 0.0
Fe44 Fe 0.83784 0.83109 0.57157 0.0
Fe45 Fe 0.83381 0.83976 0.46296 0.0
O46 O 0.81527 0.81191 0.51592 0.0
Fe47 Fe 0.77334 0.76512 0.51309 0.0
O48 O 0.73171 0.7984 0.54858 0.0
O49 O 0.78205 0.82061 0.60366 0.0
O50 O 0.8174 0.8912 0.56256 0.0
C51 C 0.82615 0.91674 0.52733 0.0
C52 C 0.83435 0.73615 0.58837 0.0
O53 O 0.8415 0.89901 0.48925 0.0
C54 C 0.82704 0.74198 0.43683 0.0
O55 O 0.89742 0.84465 0.54904 0.0
O56 O 0.89514 0.824 0.47385 0.0
O57 O 0.79608 0.73374 0.56525 0.0
O58 O 0.86015 0.77249 0.58604 0.0
C59 C 0.73949 0.82839 0.44306 0.0
O60 O 0.82984 0.78563 0.42663 0.0
O61 O 0.81198 0.72894 0.47672 0.0
C62 C 0.91801 0.832 0.51134 0.0
O63 O 0.77327 0.85728 0.44835 0.0
O64 O 0.74207 0.78743 0.46084 0.0
C65 C 0.74 0.81375 0.58957 0.0
Fe66 Fe 0.20494 0.83384 0.46026 0.0
Fe67 Fe 0.27855 0.77249 0.51397 0.0
O68 O 0.23003 0.81288 0.51458 0.0
Fe69 Fe 0.20637 0.83302 0.56982 0.0
O70 O 0.14497 0.83964 0.54871 0.0
O71 O 0.14592 0.81378 0.47563 0.0
O72 O 0.21174 0.77786 0.42789 0.0
C73 C 0.22528 0.73695 0.43953 0.0
C74 C 0.21026 0.91533 0.51877 0.0
O75 O 0.24713 0.72987 0.47758 0.0
C76 C 0.30456 0.82545 0.59223 0.0
O77 O 0.26082 0.85594 0.43838 0.0
O78 O 0.30765 0.79867 0.46244 0.0
O79 O 0.22074 0.8936 0.55595 0.0
O80 O 0.19448 0.89397 0.48265 0.0
C81 C 0.22127 0.73901 0.59033 0.0
O82 O 0.31599 0.80984 0.55186 0.0
O83 O 0.26175 0.83162 0.60231 0.0
C84 C 0.29915 0.8336 0.43598 0.0
O85 O 0.25735 0.73897 0.56413 0.0
O86 O 0.19211 0.77314 0.58946 0.0
C87 C 0.12354 0.82498 0.51227 0.0
Fe88 Fe 0.57354 0.20003 0.19848 0.0
Fe89 Fe 0.52077 0.2678 0.26458 0.0
O90 O 0.51936 0.22137 0.22236 0.0
Fe91 Fe 0.46436 0.19685 0.20382 0.0
O92 O 0.48206 0.13722 0.22121 0.0
O93 O 0.55334 0.1393 0.19029 0.0
O94 O 0.59477 0.18201 0.25633 0.0
C95 C 0.59821 0.2096 0.29122 0.0
C96 C 0.51775 0.20245 0.11882 0.0
O97 O 0.577 0.24908 0.2915 0.0
C98 C 0.44016 0.29077 0.20897 0.0
O99 O 0.60505 0.25708 0.20272 0.0
O100 O 0.55028 0.30727 0.22329 0.0
O101 O 0.48311 0.18718 0.14269 0.0
O102 O 0.5557 0.21573 0.13887 0.0
C103 C 0.45005 0.21477 0.30289 0.0
O104 O 0.46496 0.29491 0.24586 0.0
O105 O 0.44199 0.25385 0.184 0.0
C106 C 0.59118 0.29936 0.20767 0.0
O107 O 0.4909 0.23198 0.30874 0.0
O108 O 0.4354 0.20376 0.2619 0.0
C109 C 0.51877 0.11624 0.2065 0.0
Fe110 Fe 0.83647 0.46253 0.19923 0.0
Fe111 Fe 0.77619 0.51263 0.27433 0.0
O112 O 0.8159 0.51558 0.22584 0.0
Fe113 Fe 0.83461 0.57123 0.20319 0.0
O114 O 0.8113 0.55781 0.14488 0.0
O115 O 0.84205 0.48683 0.1395 0.0
O116 O 0.77617 0.4446 0.18364 0.0
C117 C 0.74314 0.43909 0.2132 0.0
C118 C 0.91779 0.51539 0.20223 0.0
O119 O 0.7457 0.45864 0.25355 0.0
C120 C 0.83541 0.59245 0.29719 0.0
O121 O 0.83559 0.42779 0.25359 0.0
O122 O 0.8172 0.478 0.30977 0.0
O123 O 0.89446 0.5508 0.18789 0.0
O124 O 0.89747 0.47724 0.21349 0.0
C125 C 0.7375 0.58632 0.22435 0.0
O126 O 0.7993 0.5665 0.30344 0.0
O127 O 0.85905 0.58991 0.25962 0.0
C128 C 0.83309 0.4382 0.29695 0.0
O129 O 0.73142 0.54642 0.24311 0.0
O130 O 0.77846 0.60146 0.21482 0.0
C131 C 0.82299 0.52241 0.12055 0.0
Fe132 Fe 0.57629 0.82821 0.20501 0.0
Fe133 Fe 0.46708 0.82928 0.20001 0.0
O134 O 0.52037 0.80839 0.22567 0.0
Fe135 Fe 0.51775 0.7682 0.27318 0.0
O136 O 0.54746 0.8103 0.31216 0.0
O137 O 0.60537 0.82563 0.26317 0.0
O138 O 0.56184 0.88922 0.21887 0.0
C139 C 0.52497 0.91077 0.2062 0.0
C140 C 0.59738 0.73545 0.22148 0.0
O141 O 0.49016 0.88894 0.18819 0.0
C142 C 0.44815 0.73103 0.21773 0.0
O143 O 0.55702 0.83507 0.14293 0.0
O144 O 0.48378 0.80806 0.14168 0.0
O145 O 0.57331 0.73835 0.25895 0.0
O146 O 0.5954 0.76791 0.1908 0.0
C147 C 0.44042 0.82865 0.29228 0.0
O148 O 0.43444 0.7729 0.20858 0.0
O149 O 0.48814 0.72436 0.23642 0.0
C150 C 0.52097 0.82043 0.12029 0.0
O151 O 0.44625 0.85303 0.25574 0.0
O152 O 0.46142 0.7896 0.29722 0.0
C153 C 0.58891 0.82528 0.30483 0.0
Fe154 Fe 0.20824 0.56844 0.20131 0.0
Fe155 Fe 0.26512 0.5089 0.27131 0.0
O156 O 0.22437 0.51231 0.224 0.0
Fe157 Fe 0.19948 0.45993 0.19978 0.0
O158 O 0.22254 0.47307 0.14154 0.0
O159 O 0.19898 0.5473 0.14031 0.0
O160 O 0.26916 0.58122 0.18482 0.0
C161 C 0.30224 0.58422 0.21461 0.0
C162 C 0.12235 0.52359 0.20311 0.0
O163 O 0.29917 0.56188 0.2533 0.0
C164 C 0.19828 0.43635 0.29282 0.0
O165 O 0.21496 0.60037 0.25816 0.0
O166 O 0.22673 0.54346 0.30926 0.0
O167 O 0.14197 0.487 0.18627 0.0
O168 O 0.14643 0.5589 0.21651 0.0
C169 C 0.29568 0.43456 0.21753 0.0
O170 O 0.23849 0.45576 0.29785 0.0
O171 O 0.17417 0.44292 0.25606 0.0
C172 C 0.21611 0.58575 0.30045 0.0
O173 O 0.30623 0.47359 0.23673 0.0
O174 O 0.25281 0.42351 0.20948 0.0
C175 C 0.21376 0.51057 0.1192 0.0
Fe176 Fe 0.57807 0.83804 0.83313 0.0
Fe177 Fe 0.46902 0.83881 0.83239 0.0
O178 O 0.52349 0.81476 0.81238 0.0
Fe179 Fe 0.52244 0.76702 0.77198 0.0
O180 O 0.57627 0.73863 0.79468 0.0
O181 O 0.59775 0.78155 0.85573 0.0
O182 O 0.5554 0.84967 0.89339 0.0
C183 C 0.51952 0.83284 0.91481 0.0
C184 C 0.59578 0.81744 0.73528 0.0
O185 O 0.4821 0.82197 0.89277 0.0
C186 C 0.44861 0.82752 0.73932 0.0
O187 O 0.56367 0.897 0.81213 0.0
O188 O 0.49213 0.89938 0.84199 0.0
O189 O 0.55537 0.79984 0.72831 0.0
O190 O 0.60964 0.82871 0.77656 0.0
C191 C 0.44823 0.74 0.82498 0.0
O192 O 0.45311 0.85678 0.77286 0.0
O193 O 0.46817 0.78712 0.74132 0.0
C194 C 0.52753 0.92009 0.82393 0.0
O195 O 0.43485 0.78283 0.82638 0.0
O196 O 0.49001 0.73067 0.81335 0.0
C197 C 0.6006 0.74419 0.83173 0.0
Fe198 Fe 0.20902 0.57584 0.83281 0.0
Fe199 Fe 0.26766 0.51712 0.76307 0.0
O200 O 0.22622 0.52003 0.80973 0.0
Fe201 Fe 0.20145 0.46743 0.83236 0.0
O202 O 0.14345 0.49343 0.84484 0.0
O203 O 0.1476 0.56588 0.81672 0.0
O204 O 0.21554 0.6076 0.77615 0.0
C205 C 0.21614 0.59233 0.73397 0.0
C206 C 0.21407 0.51718 0.91432 0.0
O207 O 0.22842 0.55047 0.72516 0.0
C208 C 0.2984 0.44396 0.81768 0.0
O209 O 0.26951 0.58944 0.85002 0.0
O210 O 0.30021 0.57099 0.7816 0.0
O211 O 0.22328 0.48019 0.89122 0.0
O212 O 0.19952 0.55427 0.89372 0.0
C213 C 0.20254 0.44449 0.73859 0.0
O214 O 0.30898 0.48272 0.79813 0.0
O215 O 0.25544 0.43244 0.82417 0.0
C216 C 0.30257 0.59324 0.82053 0.0
O217 O 0.24317 0.46316 0.73568 0.0
O218 O 0.17761 0.4508 0.77485 0.0
C219 C 0.12376 0.53005 0.82845 0.0
Fe220 Fe 0.51424 0.28036 0.77185 0.0
Fe221 Fe 0.46427 0.20481 0.83133 0.0
O222 O 0.51766 0.23168 0.81104 0.0
Fe223 Fe 0.57408 0.21152 0.83097 0.0
O224 O 0.59123 0.26968 0.85369 0.0
O225 O 0.56722 0.31016 0.7934 0.0
O226 O 0.48048 0.31552 0.81451 0.0
C227 C 0.44253 0.30245 0.83425 0.0
C228 C 0.58855 0.23249 0.73289 0.0
O229 O 0.43027 0.25952 0.83146 0.0
C230 C 0.52681 0.12618 0.82073 0.0
O231 O 0.46098 0.25982 0.74177 0.0
O232 O 0.44376 0.19042 0.77166 0.0
O233 O 0.60395 0.22238 0.77385 0.0
O234 O 0.54764 0.24929 0.72694 0.0
C235 C 0.51662 0.20929 0.91348 0.0
O236 O 0.48893 0.1448 0.83557 0.0
O237 O 0.56261 0.15111 0.81077 0.0
C238 C 0.43816 0.2213 0.73983 0.0
O239 O 0.47862 0.21815 0.89212 0.0
O240 O 0.55399 0.19808 0.89139 0.0
C241 C 0.59045 0.308 0.83124 0.0
Fe242 Fe 0.83601 0.46804 0.83288 0.0
Fe243 Fe 0.76686 0.52417 0.77082 0.0
O244 O 0.81374 0.5232 0.81263 0.0
Fe245 Fe 0.8371 0.57717 0.835 0.0
O246 O 0.89672 0.56267 0.81608 0.0
O247 O 0.8968 0.48892 0.84079 0.0
O248 O 0.85292 0.45059 0.77345 0.0
C249 C 0.82371 0.44633 0.73998 0.0
C250 C 0.8329 0.51914 0.91605 0.0
O251 O 0.78504 0.46909 0.74041 0.0
C252 C 0.74348 0.60065 0.83189 0.0
O253 O 0.77909 0.43612 0.82816 0.0
O254 O 0.72842 0.49204 0.81087 0.0
O255 O 0.84803 0.55501 0.89427 0.0
O256 O 0.82101 0.4819 0.89398 0.0
C257 C 0.82177 0.59664 0.737 0.0
O258 O 0.73953 0.57895 0.79294 0.0
O259 O 0.77974 0.59556 0.85702 0.0
C260 C 0.73688 0.4509 0.82577 0.0
O261 O 0.80208 0.55728 0.72826 0.0
O262 O 0.82982 0.60965 0.7792 0.0
C263 C 0.91872 0.52544 0.82722 0.0
C264 C 0.17115 0.37415 0.40852 0.0
C265 C 0.18542 0.32762 0.39659 0.0
C266 C 0.18716 0.35048 0.3131 0.0
C267 C 0.1842 0.39886 0.32674 0.0
N268 N 0.17073 0.45731 0.38732 0.0
N269 N 0.20975 0.27155 0.33652 0.0
C270 C 0.17513 0.41087 0.37449 0.0
C271 C 0.1932 0.31543 0.34848 0.0
N272 N 0.15197 0.38248 0.45185 0.0
N273 N 0.18549 0.33784 0.2665 0.0
H274 H 0.21445 0.2443 0.36061 0.0
H275 H 0.22225 0.2631 0.30296 0.0
H276 H 0.18269 0.36208 0.23908 0.0
H277 H 0.18252 0.30282 0.25517 0.0
H278 H 0.13773 0.4149 0.46211 0.0
H279 H 0.14515 0.35474 0.47507 0.0
H280 H 0.1696 0.46865 0.42234 0.0
H281 H 0.17005 0.4847 0.36268 0.0
C282 C 0.62879 0.17858 0.36909 0.0
C283 C 0.63682 0.20247 0.32586 0.0
C284 C 0.70829 0.23839 0.35782 0.0
C285 C 0.7034 0.21185 0.40008 0.0
N286 N 0.66043 0.15352 0.44504 0.0
N287 N 0.6926 0.24068 0.27437 0.0
C288 C 0.66431 0.18038 0.40522 0.0
C289 C 0.67924 0.22769 0.31878 0.0
N290 N 0.58672 0.15572 0.37603 0.0
N291 N 0.73881 0.27568 0.35497 0.0
H292 H 0.67427 0.22945 0.24447 0.0
H293 H 0.72513 0.25657 0.26707 0.0
H294 H 0.76138 0.28582 0.38198 0.0
H295 H 0.73693 0.30018 0.32762 0.0
H296 H 0.57628 0.14168 0.40832 0.0
H297 H 0.56113 0.15273 0.34953 0.0
H298 H 0.63568 0.12645 0.44895 0.0
H299 H 0.68353 0.15708 0.47362 0.0
C300 C 0.81545 0.71191 0.35311 0.0
C301 C 0.83493 0.70566 0.39911 0.0
C302 C 0.8607 0.62572 0.37628 0.0
C303 C 0.84312 0.63312 0.33 0.0
N304 N 0.81961 0.68987 0.27078 0.0
N305 N 0.88877 0.6621 0.44874 0.0
C306 C 0.82595 0.67845 0.31718 0.0
C307 C 0.8613 0.66406 0.4091 0.0
N308 N 0.78435 0.74777 0.34406 0.0
N309 N 0.87696 0.58213 0.3888 0.0
H310 H 0.89258 0.69092 0.4715 0.0
H311 H 0.91175 0.63426 0.45608 0.0
H312 H 0.88016 0.55477 0.36433 0.0
H313 H 0.8851 0.57281 0.42345 0.0
H314 H 0.76678 0.75152 0.31193 0.0
H315 H 0.77151 0.77059 0.36982 0.0
H316 H 0.81098 0.72388 0.25955 0.0
H317 H 0.82913 0.66746 0.24323 0.0
C318 C 0.3198 0.83357 0.34955 0.0
C319 C 0.33271 0.84413 0.39705 0.0
C320 C 0.41556 0.85415 0.37333 0.0
C321 C 0.40297 0.8414 0.32645 0.0
N322 N 0.34225 0.83068 0.26713 0.0
N323 N 0.38887 0.87732 0.45155 0.0
C324 C 0.35477 0.8352 0.31363 0.0
C325 C 0.37953 0.85838 0.40811 0.0
N326 N 0.27476 0.8192 0.33897 0.0
N327 N 0.46207 0.86159 0.38456 0.0
H328 H 0.36215 0.88272 0.47627 0.0
H329 H 0.42133 0.89185 0.46139 0.0
H330 H 0.48864 0.86285 0.3591 0.0
H331 H 0.47459 0.86514 0.41898 0.0
H332 H 0.2653 0.80297 0.30725 0.0
H333 H 0.24672 0.82177 0.36244 0.0
H334 H 0.3074 0.83183 0.25516 0.0
H335 H 0.36657 0.82978 0.23962 0.0
C336 C 0.26081 0.68007 0.64479 0.0
C337 C 0.21817 0.70077 0.6269 0.0
C338 C 0.17324 0.65116 0.68242 0.0
C339 C 0.21536 0.6268 0.69468 0.0
N340 N 0.29737 0.60995 0.67524 0.0
N341 N 0.1326 0.69565 0.62185 0.0
C342 C 0.25829 0.63822 0.67161 0.0
C343 C 0.17387 0.68356 0.64386 0.0
N344 N 0.30406 0.70137 0.63949 0.0
N345 N 0.13257 0.64323 0.70717 0.0
H346 H 0.13146 0.71618 0.59146 0.0
H347 H 0.1 0.68066 0.63043 0.0
H348 H 0.1305 0.61868 0.73449 0.0
H349 H 0.10213 0.66355 0.70282 0.0
H350 H 0.3344 0.68963 0.6569 0.0
H351 H 0.30955 0.734 0.62384 0.0
H352 H 0.32745 0.61502 0.65453 0.0
H353 H 0.29867 0.57869 0.69433 0.0
C354 C 0.35567 0.17951 0.63857 0.0
C355 C 0.32853 0.22133 0.63143 0.0
C356 C 0.37038 0.26013 0.69711 0.0
C357 C 0.39784 0.21848 0.70491 0.0
N358 N 0.41445 0.13701 0.68502 0.0
N359 N 0.30831 0.30109 0.65633 0.0
C360 C 0.3895 0.17751 0.67648 0.0
C361 C 0.33597 0.2616 0.66089 0.0
N362 N 0.35123 0.14291 0.60707 0.0
N363 N 0.37715 0.29925 0.72472 0.0
H364 H 0.28514 0.30706 0.62877 0.0
H365 H 0.30552 0.32769 0.68168 0.0
H366 H 0.39056 0.297 0.75854 0.0
H367 H 0.36958 0.33376 0.71433 0.0
H368 H 0.37245 0.11289 0.60686 0.0
H369 H 0.32806 0.14388 0.5784 0.0
H370 H 0.40667 0.10431 0.66985 0.0
H371 H 0.44226 0.13524 0.70904 0.0
C372 C 0.83461 0.36065 0.71575 0.0
C373 C 0.8312 0.4093 0.70294 0.0
C374 C 0.83793 0.38675 0.6193 0.0
C375 C 0.83521 0.33815 0.63159 0.0
N376 N 0.8242 0.2789 0.69219 0.0
N377 N 0.82527 0.46838 0.64178 0.0
C378 C 0.83257 0.32501 0.68001 0.0
C379 C 0.83174 0.42222 0.65449 0.0
N380 N 0.83865 0.34794 0.76213 0.0
N381 N 0.84759 0.39901 0.57378 0.0
H382 H 0.82296 0.49582 0.66616 0.0
H383 H 0.81906 0.47922 0.60722 0.0
H384 H 0.85217 0.37374 0.54748 0.0
H385 H 0.85549 0.43337 0.56304 0.0
H386 H 0.84841 0.31408 0.77283 0.0
H387 H 0.83523 0.3714 0.79027 0.0
H388 H 0.81464 0.2684 0.72608 0.0
H389 H 0.82302 0.25105 0.66817 0.0
C390 C 0.6761 0.77349 0.63616 0.0
C391 C 0.7007 0.81577 0.62436 0.0
C392 C 0.65152 0.86044 0.68075 0.0
C393 C 0.63025 0.81742 0.69558 0.0
N394 N 0.62645 0.73176 0.69102 0.0
N395 N 0.7136 0.89945 0.63601 0.0
C396 C 0.64327 0.77377 0.67393 0.0
C397 C 0.68899 0.85925 0.64698 0.0
N398 N 0.68364 0.73258 0.61125 0.0
N399 N 0.63437 0.90253 0.69746 0.0
H400 H 0.73819 0.90089 0.60868 0.0
H401 H 0.71124 0.93091 0.65509 0.0
H402 H 0.60652 0.90456 0.72152 0.0
H403 H 0.6448 0.9355 0.68486 0.0
H404 H 0.66121 0.7033 0.61292 0.0
H405 H 0.71031 0.72813 0.58648 0.0
H406 H 0.64141 0.69902 0.68306 0.0
H407 H 0.59925 0.72908 0.71528 0.0
C408 C 0.39095 0.17367 0.35604 0.0
C409 C 0.41506 0.21579 0.34258 0.0
C410 C 0.35919 0.26254 0.39021 0.0
C411 C 0.33788 0.22038 0.40731 0.0
N412 N 0.33663 0.13513 0.41015 0.0
N413 N 0.42714 0.30015 0.35521 0.0
C414 C 0.3546 0.1757 0.39111 0.0
C415 C 0.40103 0.26001 0.36251 0.0
N416 N 0.40256 0.13164 0.33502 0.0
N417 N 0.33759 0.30525 0.39735 0.0
H418 H 0.45724 0.30175 0.33435 0.0
H419 H 0.42143 0.33152 0.37381 0.0
H420 H 0.30593 0.30897 0.41564 0.0
H421 H 0.34797 0.33629 0.38044 0.0
H422 H 0.3827 0.10075 0.33853 0.0
H423 H 0.43104 0.12812 0.31195 0.0
H424 H 0.35083 0.10163 0.40433 0.0
H425 H 0.30919 0.13531 0.43455 0.0
C426 C 0.86428 0.41255 0.37725 0.0
C427 C 0.84345 0.40066 0.33285 0.0
C428 C 0.84929 0.31742 0.35524 0.0
C429 C 0.8527 0.33051 0.40344 0.0
N430 N 0.88105 0.38889 0.4581 0.0
N431 N 0.81062 0.33798 0.28287 0.0
C432 C 0.86508 0.37799 0.41403 0.0
C433 C 0.83492 0.35194 0.32232 0.0
N434 N 0.88656 0.45512 0.38274 0.0
N435 N 0.8608 0.27286 0.34052 0.0
H436 H 0.79132 0.361 0.26176 0.0
H437 H 0.80358 0.3025 0.27524 0.0
H438 H 0.87773 0.24872 0.3626 0.0
H439 H 0.86084 0.26309 0.30497 0.0
H440 H 0.90446 0.46537 0.41328 0.0
H441 H 0.89216 0.47763 0.35426 0.0
H442 H 0.88529 0.42339 0.47054 0.0
H443 H 0.89128 0.36225 0.4814 0.0
C444 C 0.62041 0.80791 0.38783 0.0
C445 C 0.62233 0.83438 0.34513 0.0
C446 C 0.70157 0.86275 0.36791 0.0
C447 C 0.6977 0.83902 0.41205 0.0
N448 N 0.643 0.80849 0.46988 0.0
N449 N 0.65778 0.90138 0.30554 0.0
C450 C 0.65353 0.8183 0.42399 0.0
C451 C 0.66058 0.86666 0.33883 0.0
N452 N 0.59041 0.77031 0.39337 0.0
N453 N 0.74411 0.87888 0.35165 0.0
H454 H 0.62712 0.9073 0.28587 0.0
H455 H 0.68349 0.92772 0.30208 0.0
H456 H 0.77597 0.87503 0.36959 0.0
H457 H 0.74831 0.89203 0.31754 0.0
H458 H 0.5915 0.74873 0.42318 0.0
H459 H 0.56933 0.75626 0.36666 0.0
H460 H 0.60991 0.79584 0.48032 0.0
H461 H 0.66487 0.81947 0.49746 0.0
C462 C 0.26332 0.67372 0.39025 0.0
C463 C 0.22151 0.69736 0.40482 0.0
C464 C 0.17505 0.64743 0.35033 0.0
C465 C 0.21645 0.62107 0.33954 0.0
N466 N 0.29802 0.60243 0.35933 0.0
N467 N 0.13627 0.70191 0.40437 0.0
C468 C 0.25982 0.63189 0.36281 0.0
C469 C 0.17689 0.68297 0.38633 0.0
N470 N 0.30685 0.6927 0.39996 0.0
N471 N 0.13401 0.6385 0.32622 0.0
H472 H 0.13637 0.72751 0.43096 0.0
H473 H 0.10254 0.68953 0.39591 0.0
H474 H 0.13065 0.61087 0.30188 0.0
H475 H 0.10415 0.65993 0.32847 0.0
H476 H 0.3381 0.68004 0.38508 0.0
H477 H 0.31155 0.72431 0.41823 0.0
H478 H 0.32839 0.60658 0.37993 0.0
H479 H 0.29814 0.57102 0.34022 0.0
C480 C 0.38737 0.84786 0.62054 0.0
C481 C 0.34083 0.83153 0.63103 0.0
C482 C 0.36335 0.8291 0.71521 0.0
C483 C 0.41146 0.8354 0.70293 0.0
N484 N 0.47033 0.84906 0.6431 0.0
N485 N 0.28811 0.79807 0.69107 0.0
C486 C 0.42384 0.84404 0.65526 0.0
C487 C 0.32949 0.82034 0.67914 0.0
N488 N 0.39609 0.86992 0.57868 0.0
N489 N 0.34951 0.83093 0.76142 0.0
H490 H 0.26206 0.78739 0.66753 0.0
H491 H 0.28197 0.7842 0.72457 0.0
H492 H 0.37274 0.83682 0.78936 0.0
H493 H 0.31407 0.83198 0.77158 0.0
H494 H 0.42841 0.88569 0.57045 0.0
H495 H 0.36905 0.87804 0.55507 0.0
H496 H 0.48181 0.8501 0.60817 0.0
H497 H 0.49758 0.84956 0.66803 0.0
C498 C 0.1816 0.38698 0.61822 0.0
C499 C 0.19179 0.33902 0.62951 0.0
C500 C 0.18535 0.3607 0.71382 0.0
C501 C 0.18824 0.4092 0.70193 0.0
N502 N 0.18638 0.4694 0.64196 0.0
N503 N 0.21129 0.28289 0.69288 0.0
C504 C 0.18567 0.4226 0.65378 0.0
C505 C 0.19493 0.3262 0.67859 0.0
N506 N 0.16518 0.39815 0.57439 0.0
N507 N 0.17509 0.34697 0.75889 0.0
H508 H 0.2248 0.25675 0.671 0.0
H509 H 0.2185 0.27508 0.72811 0.0
H510 H 0.16899 0.37045 0.78654 0.0
H511 H 0.16751 0.31191 0.76763 0.0
H512 H 0.1539 0.43193 0.56497 0.0
H513 H 0.15662 0.37207 0.54986 0.0
H514 H 0.19059 0.48123 0.6074 0.0
H515 H 0.18423 0.49628 0.66718 0.0
C516 C 0.63991 0.18745 0.67557 0.0
C517 C 0.62159 0.2313 0.69192 0.0
C518 C 0.6675 0.2736 0.63138 0.0
C519 C 0.68938 0.23026 0.61807 0.0
N520 N 0.69687 0.14572 0.62655 0.0
N521 N 0.6216 0.3169 0.68877 0.0
C522 C 0.6756 0.18709 0.63993 0.0
C523 C 0.63586 0.27446 0.6703 0.0
N524 N 0.62191 0.14611 0.69311 0.0
N525 N 0.67687 0.3144 0.60713 0.0
H526 H 0.59641 0.32005 0.71512 0.0
H527 H 0.63702 0.34929 0.68025 0.0
H528 H 0.70277 0.3176 0.58137 0.0
H529 H 0.65655 0.34497 0.61026 0.0
H530 H 0.62984 0.11268 0.67981 0.0
H531 H 0.59609 0.14529 0.71932 0.0
H532 H 0.69348 0.11396 0.64475 0.0
H533 H 0.7194 0.14339 0.59752 0.0
C534 C 0.80988 0.67845 0.70434 0.0
C535 C 0.82815 0.63203 0.69833 0.0
C536 C 0.85523 0.65467 0.619 0.0
C537 C 0.84102 0.70206 0.62777 0.0
N538 N 0.82014 0.76099 0.68612 0.0
N539 N 0.87774 0.57924 0.65316 0.0
C540 C 0.82359 0.71462 0.67288 0.0
C541 C 0.85362 0.62092 0.65647 0.0
N542 N 0.77659 0.68759 0.73793 0.0
N543 N 0.87001 0.64189 0.57497 0.0
H544 H 0.87868 0.55479 0.68059 0.0
H545 H 0.90025 0.57107 0.62523 0.0
H546 H 0.87391 0.66652 0.54793 0.0
H547 H 0.87592 0.60688 0.5649 0.0
H548 H 0.75915 0.71999 0.74069 0.0
H549 H 0.76173 0.66096 0.7583 0.0
H550 H 0.81022 0.77137 0.72005 0.0
H551 H 0.83356 0.78848 0.66574 0.0
C552 C 0.40965 0.37009 0.18194 0.0
C553 C 0.40105 0.32495 0.20217 0.0
C554 C 0.32752 0.35388 0.2362 0.0
C555 C 0.33294 0.39763 0.21233 0.0
N556 N 0.37635 0.44525 0.15656 0.0
N557 N 0.34498 0.27047 0.23641 0.0
C558 C 0.37328 0.40522 0.18335 0.0
C559 C 0.35762 0.3157 0.22503 0.0
N560 N 0.4527 0.37953 0.16217 0.0
N561 N 0.29635 0.34974 0.27261 0.0
H562 H 0.36494 0.24122 0.22637 0.0
H563 H 0.3119 0.26182 0.25027 0.0
H564 H 0.27723 0.37841 0.28517 0.0
H565 H 0.29474 0.32005 0.29433 0.0
H566 H 0.46317 0.41322 0.15152 0.0
H567 H 0.47892 0.35376 0.15867 0.0
H568 H 0.4027 0.45075 0.13149 0.0
H569 H 0.35038 0.47147 0.15683 0.0
C570 C 0.38607 0.62082 0.80631 0.0
C571 C 0.34139 0.62892 0.82767 0.0
C572 C 0.37274 0.7045 0.85787 0.0
C573 C 0.41265 0.70068 0.82771 0.0
N574 N 0.44705 0.65836 0.76097 0.0
N575 N 0.28949 0.68748 0.86406 0.0
C576 C 0.41682 0.65964 0.79856 0.0
C577 C 0.33379 0.67312 0.85117 0.0
N578 N 0.3997 0.57625 0.79353 0.0
N579 N 0.37187 0.73739 0.89329 0.0
H580 H 0.25862 0.66928 0.85541 0.0
H581 H 0.28297 0.72114 0.87782 0.0
H582 H 0.40072 0.75912 0.90125 0.0
H583 H 0.34473 0.73875 0.91817 0.0
H584 H 0.43355 0.56893 0.78078 0.0
H585 H 0.37969 0.54625 0.80128 0.0
H586 H 0.44801 0.62982 0.73751 0.0
H587 H 0.46566 0.68772 0.74882 0.0
C588 C 0.38024 0.42201 0.84893 0.0
C589 C 0.33601 0.4085 0.82842 0.0
C590 C 0.35714 0.3261 0.84125 0.0
C591 C 0.40541 0.33861 0.84659 0.0
N592 N 0.46154 0.39966 0.86677 0.0
N593 N 0.28941 0.34465 0.79409 0.0
C594 C 0.41674 0.38718 0.85366 0.0
C595 C 0.32614 0.35964 0.82176 0.0
N596 N 0.38642 0.46681 0.86624 0.0
N597 N 0.34056 0.28276 0.85453 0.0
H598 H 0.26975 0.36768 0.77321 0.0
H599 H 0.28352 0.30888 0.78665 0.0
H600 H 0.36075 0.25954 0.87482 0.0
H601 H 0.3048 0.27369 0.85188 0.0
H602 H 0.41659 0.47765 0.88453 0.0
H603 H 0.35934 0.49181 0.86681 0.0
H604 H 0.47387 0.43446 0.86669 0.0
H605 H 0.48631 0.37454 0.87759 0.0
C606 C 0.69841 0.38308 0.87072 0.0
C607 C 0.69678 0.41715 0.83371 0.0
C608 C 0.61622 0.3914 0.81643 0.0
C609 C 0.62256 0.34933 0.843 0.0
N610 N 0.6703 0.30845 0.90167 0.0
N611 N 0.65575 0.44366 0.76303 0.0
C612 C 0.66371 0.34606 0.87227 0.0
C613 C 0.65603 0.41891 0.80441 0.0
N614 N 0.73152 0.38719 0.90575 0.0
N615 N 0.57215 0.40546 0.80264 0.0
H616 H 0.68572 0.45955 0.7487 0.0
H617 H 0.62715 0.44246 0.73967 0.0
H618 H 0.54162 0.38816 0.81389 0.0
H619 H 0.56615 0.43759 0.78556 0.0
H620 H 0.73132 0.36647 0.93611 0.0
H621 H 0.75613 0.41464 0.90717 0.0
H622 H 0.70304 0.30049 0.91669 0.0
H623 H 0.64343 0.28557 0.91192 0.0
C624 C 0.65936 0.62477 0.84772 0.0
C625 C 0.70791 0.63752 0.84409 0.0
C626 C 0.68632 0.72151 0.8405 0.0
C627 C 0.63767 0.70873 0.84283 0.0
N628 N 0.57828 0.6504 0.86082 0.0
N629 N 0.76796 0.69879 0.85106 0.0
C630 C 0.62433 0.66091 0.85024 0.0
C631 C 0.72149 0.68606 0.84571 0.0
N632 N 0.64683 0.57801 0.84841 0.0
N633 N 0.69931 0.76684 0.82946 0.0
H634 H 0.79599 0.67504 0.85146 0.0
H635 H 0.77865 0.7333 0.85878 0.0
H636 H 0.67558 0.79471 0.82635 0.0
H637 H 0.7336 0.77635 0.81981 0.0
H638 H 0.61219 0.5659 0.84461 0.0
H639 H 0.67166 0.55096 0.85165 0.0
H640 H 0.56654 0.61687 0.87053 0.0
H641 H 0.55232 0.67643 0.86411 0.0
C642 C 0.63835 0.66673 0.18001 0.0
C643 C 0.6344 0.69785 0.21934 0.0
C644 C 0.68815 0.64708 0.26434 0.0
C645 C 0.69783 0.62044 0.22316 0.0
N646 N 0.6858 0.60727 0.13989 0.0
N647 N 0.66673 0.72367 0.29433 0.0
C648 C 0.6742 0.63114 0.18023 0.0
C649 C 0.66249 0.68967 0.26024 0.0
N650 N 0.60638 0.66922 0.1439 0.0
N651 N 0.70312 0.63178 0.30754 0.0
H652 H 0.65363 0.75759 0.28977 0.0
H653 H 0.68842 0.72043 0.3239 0.0
H654 H 0.71995 0.59948 0.3124 0.0
H655 H 0.69342 0.64811 0.33912 0.0
H656 H 0.60509 0.64478 0.11629 0.0
H657 H 0.57813 0.69289 0.14409 0.0
H658 H 0.67338 0.61693 0.10663 0.0
H659 H 0.7101 0.57947 0.13951 0.0
C660 C 0.41544 0.65023 0.24271 0.0
C661 C 0.41407 0.69034 0.21223 0.0
C662 C 0.33746 0.66199 0.1823 0.0
C663 C 0.34224 0.61891 0.20823 0.0
N664 N 0.39808 0.56679 0.24689 0.0
N665 N 0.38092 0.7221 0.14004 0.0
C666 C 0.38533 0.61118 0.23294 0.0
C667 C 0.37751 0.69227 0.1777 0.0
N668 N 0.44204 0.64992 0.28303 0.0
N669 N 0.29485 0.67659 0.16477 0.0
H670 H 0.41131 0.74188 0.13307 0.0
H671 H 0.35619 0.72201 0.11262 0.0
H672 H 0.26281 0.65972 0.17125 0.0
H673 H 0.29055 0.70961 0.14894 0.0
H674 H 0.44082 0.62184 0.30687 0.0
H675 H 0.45934 0.67958 0.29655 0.0
H676 H 0.43071 0.55985 0.26273 0.0
H677 H 0.37916 0.53662 0.23683 0.0
C678 C 0.62511 0.37959 0.23289 0.0
C679 C 0.62659 0.33886 0.20311 0.0
C680 C 0.70619 0.36332 0.17761 0.0
C681 C 0.70193 0.40659 0.20337 0.0
N682 N 0.6463 0.462 0.23729 0.0
N683 N 0.6629 0.30315 0.13435 0.0
C684 C 0.65775 0.41677 0.22493 0.0
C685 C 0.66526 0.33432 0.17123 0.0
N686 N 0.59575 0.38224 0.27107 0.0
N687 N 0.749 0.34772 0.16164 0.0
H688 H 0.63234 0.28389 0.12637 0.0
H689 H 0.68902 0.3013 0.10844 0.0
H690 H 0.7809 0.36503 0.16806 0.0
H691 H 0.75334 0.31428 0.14654 0.0
H692 H 0.59684 0.41071 0.29464 0.0
H693 H 0.5757 0.35403 0.28356 0.0
H694 H 0.61312 0.471 0.25069 0.0
H695 H 0.66717 0.49073 0.22755 0.0
C696 C 0.17343 0.99226 0.54144 0.0
C697 C 0.21111 0.96753 0.51978 0.0
C698 C 0.25249 0.04247 0.50568 0.0
C699 C 0.21141 0.06753 0.51978 0.0
N700 N 0.13059 0.06537 0.54936 0.0
N701 N 0.2865 0.96818 0.47995 0.0
C702 C 0.17138 0.04225 0.53754 0.0
C703 C 0.25054 0.9924 0.50121 0.0
N704 N 0.14016 0.96815 0.56698 0.0
N705 N 0.29437 0.06613 0.50033 0.0
H706 H 0.28811 0.93136 0.4794 0.0
H707 H 0.31329 0.98462 0.46075 0.0
H708 H 0.29785 0.10219 0.50759 0.0
H709 H 0.32659 0.04936 0.49426 0.0
H710 H 0.11535 0.98468 0.58858 0.0
H711 H 0.13975 0.9314 0.57009 0.0
H712 H 0.09863 0.04801 0.55558 0.0
H713 H 0.12686 0.10192 0.54966 0.0
C714 C 0.04016 0.24209 0.52582 0.0
C715 C 0.06403 0.20008 0.51185 0.0
C716 C 0.98726 0.16085 0.49795 0.0
C717 C 0.96403 0.20104 0.51706 0.0
N718 N 0.9673 0.27917 0.55143 0.0
N719 N 0.06051 0.11929 0.48276 0.0
C720 C 0.99023 0.24136 0.53182 0.0
C721 C 0.03766 0.15954 0.49688 0.0
N722 N 0.06495 0.28363 0.53013 0.0
N723 N 0.96091 0.12426 0.47988 0.0
H724 H 0.09669 0.11747 0.47658 0.0
H725 H 0.044 0.08655 0.47873 0.0
H726 H 0.92419 0.12243 0.48287 0.0
H727 H 0.97476 0.09678 0.45967 0.0
H728 H 0.04917 0.31647 0.53555 0.0
H729 H 0.1011 0.2864 0.52317 0.0
H730 H 0.9846 0.30695 0.56857 0.0
H731 H 0.93056 0.28154 0.55311 0.0
C732 C 0.78252 0.04251 0.50665 0.0
C733 C 0.81684 0.06933 0.532 0.0
C734 C 0.85642 0.99569 0.55625 0.0
C735 C 0.8215 0.96904 0.53163 0.0
N736 N 0.74536 0.96596 0.49343 0.0
N737 N 0.88191 0.07178 0.58739 0.0
C738 C 0.78281 0.99216 0.50967 0.0
C739 C 0.85227 0.04596 0.55898 0.0
N740 N 0.7499 0.0652 0.47921 0.0
N741 N 0.89452 0.97305 0.5756 0.0
H742 H 0.88126 0.10858 0.58922 0.0
H743 H 0.9049 0.05681 0.61189 0.0
H744 H 0.8977 0.9363 0.57628 0.0
H745 H 0.92443 0.99045 0.58845 0.0
H746 H 0.72773 0.04792 0.45528 0.0
H747 H 0.7468 0.10191 0.47846 0.0
H748 H 0.71395 0.98065 0.48103 0.0
H749 H 0.74376 0.92924 0.49673 0.0
C750 C 0.04729 0.87038 0.50363 0.0
C751 C 0.07079 0.8264 0.51063 0.0
C752 C 0.99381 0.78573 0.51587 0.0
C753 C 0.97054 0.82994 0.51025 0.0
N754 N 0.97368 0.91473 0.50236 0.0
N755 N 0.06758 0.74134 0.51509 0.0
C756 C 0.99693 0.87236 0.50507 0.0
C757 C 0.04431 0.78376 0.51442 0.0
N758 N 0.07314 0.90976 0.49253 0.0
N759 N 0.96748 0.74598 0.52458 0.0
H760 H 0.1044 0.73876 0.51457 0.0
H761 H 0.05092 0.70851 0.513 0.0
H762 H 0.93057 0.74613 0.52522 0.0
H763 H 0.98167 0.7134 0.53398 0.0
H764 H 0.05864 0.94192 0.48219 0.0
H765 H 0.10978 0.90944 0.48987 0.0
H766 H 0.99017 0.9476 0.50513 0.0
H767 H 0.93696 0.91726 0.49974 0.0
C768 C 0.53562 0.24559 0.99255 0.0
C769 C 0.51565 0.20786 0.96589 0.0
C770 C 0.49364 0.16697 0.03909 0.0
C771 C 0.51367 0.20498 0.06613 0.0
N772 N 0.53897 0.28676 0.06764 0.0
N773 N 0.46552 0.13862 0.9632 0.0
C774 C 0.53082 0.24599 0.04257 0.0
C775 C 0.4916 0.17043 0.98901 0.0
N776 N 0.55824 0.28179 0.97 0.0
N777 N 0.47786 0.12656 0.06044 0.0
H778 H 0.46458 0.13822 0.92645 0.0
H779 H 0.44173 0.11477 0.97811 0.0
H780 H 0.47373 0.12241 0.09654 0.0
H781 H 0.47113 0.0952 0.04211 0.0
H782 H 0.5793 0.30673 0.98734 0.0
H783 H 0.55769 0.28566 0.93349 0.0
H784 H 0.54724 0.31908 0.05211 0.0
H785 H 0.53203 0.28997 0.10366 0.0
C786 C 0.78781 0.50481 0.99165 0.0
C787 C 0.82927 0.52174 0.96862 0.0
C788 C 0.85954 0.54998 0.04521 0.0
C789 C 0.82246 0.52566 0.0684 0.0
N790 N 0.75235 0.47699 0.06434 0.0
N791 N 0.908 0.55631 0.97582 0.0
C792 C 0.78703 0.50194 0.0418 0.0
C793 C 0.86596 0.54346 0.99597 0.0
N794 N 0.74791 0.49481 0.96604 0.0
N795 N 0.88834 0.58017 0.06995 0.0
H796 H 0.91502 0.55422 0.93997 0.0
H797 H 0.93785 0.56561 0.99549 0.0
H798 H 0.88503 0.5861 0.10607 0.0
H799 H 0.91243 0.60297 0.05389 0.0
H800 H 0.71551 0.48639 0.98142 0.0
H801 H 0.74545 0.50033 0.92974 0.0
H802 H 0.72903 0.45432 0.04677 0.0
H803 H 0.74869 0.47691 0.10097 0.0
C804 C 0.54853 0.79223 0.04011 0.0
C805 C 0.52047 0.8236 0.06755 0.0
C806 C 0.4953 0.864 0.99462 0.0
C807 C 0.51975 0.82976 0.96733 0.0
N808 N 0.56023 0.75484 0.96391 0.0
N809 N 0.46176 0.88584 0.07017 0.0
C810 C 0.54388 0.79211 0.99001 0.0
C811 C 0.49216 0.85838 0.04455 0.0
N812 N 0.57989 0.76262 0.06175 0.0
N813 N 0.47613 0.90271 0.97297 0.0
H814 H 0.45929 0.8844 0.10672 0.0
H815 H 0.43629 0.90761 0.05494 0.0
H816 H 0.47667 0.90745 0.93649 0.0
H817 H 0.46306 0.93193 0.99125 0.0
H818 H 0.60483 0.74263 0.04344 0.0
H819 H 0.58373 0.76108 0.09824 0.0
H820 H 0.5741 0.72414 0.97874 0.0
H821 H 0.55503 0.75233 0.92758 0.0
C822 C 0.24938 0.54015 0.99305 0.0
C823 C 0.21448 0.51486 0.96685 0.0
C824 C 0.17913 0.48636 0.04083 0.0
C825 C 0.21521 0.51004 0.06679 0.0
N826 N 0.28987 0.55125 0.06801 0.0
N827 N 0.15029 0.45803 0.96528 0.0
C828 C 0.2517 0.53484 0.043 0.0
C829 C 0.18067 0.48613 0.99061 0.0
N830 N 0.28056 0.5691 0.97019 0.0
N831 N 0.1423 0.46544 0.06415 0.0
H832 H 0.14795 0.45856 0.92863 0.0
H833 H 0.12929 0.43177 0.9803 0.0
H834 H 0.14092 0.4626 0.10073 0.0
H835 H 0.11149 0.45364 0.04762 0.0
H836 H 0.30265 0.59321 0.98735 0.0
H837 H 0.28269 0.57085 0.93361 0.0
H838 H 0.32008 0.56552 0.05256 0.0
H839 H 0.29339 0.54647 0.10432 0.0
C840 C 0.04513 0.52121 0.2468 0.0
C841 C 0.06995 0.52573 0.20351 0.0
C842 C 0.99533 0.51959 0.15944 0.0
C843 C 0.97019 0.51804 0.20272 0.0
N844 N 0.9697 0.52492 0.28762 0.0
N845 N 0.06869 0.53899 0.11954 0.0
C846 C 0.99469 0.52098 0.24648 0.0
C847 C 0.045 0.52779 0.16005 0.0
N848 N 0.06977 0.51542 0.288 0.0
N849 N 0.972 0.51137 0.11786 0.0
H850 H 0.10491 0.5462 0.119 0.0
H851 H 0.05194 0.54555 0.08745 0.0
H852 H 0.93578 0.50435 0.11619 0.0
H853 H 0.98902 0.50724 0.08554 0.0
H854 H 0.05395 0.50637 0.3199 0.0
H855 H 0.10666 0.51657 0.28982 0.0
H856 H 0.98524 0.53242 0.32016 0.0
H857 H 0.9328 0.52424 0.28878 0.0
C858 C 0.99744 0.51474 0.86862 0.0
C859 C 0.97147 0.52518 0.8267 0.0
C860 C 0.04668 0.53605 0.7843 0.0
C861 C 0.07147 0.53202 0.82769 0.0
N862 N 0.06938 0.52932 0.91264 0.0
N863 N 0.9717 0.54765 0.74436 0.0
C864 C 0.04652 0.52482 0.87025 0.0
C865 C 0.99624 0.53696 0.78455 0.0
N866 N 0.97629 0.49395 0.90666 0.0
N867 N 0.07117 0.53609 0.74269 0.0
H868 H 0.93518 0.54341 0.7413 0.0
H869 H 0.98738 0.56251 0.71461 0.0
H870 H 0.10802 0.53433 0.74107 0.0
H871 H 0.05504 0.53383 0.70966 0.0
H872 H 0.99542 0.4812 0.93543 0.0
H873 H 0.94067 0.48497 0.90834 0.0
H874 H 0.0518 0.52919 0.94497 0.0
H875 H 0.10505 0.53858 0.91533 0.0
C876 C 0.52353 0.04755 0.77797 0.0
C877 C 0.53057 0.07341 0.82054 0.0
C878 C 0.54046 0.99869 0.86407 0.0
C879 C 0.52928 0.97284 0.82243 0.0
N880 N 0.50782 0.97151 0.74012 0.0
N881 N 0.54332 0.07421 0.90476 0.0
C882 C 0.52046 0.99699 0.77935 0.0
C883 C 0.53839 0.04907 0.86373 0.0
N884 N 0.5202 0.07148 0.73622 0.0
N885 N 0.55498 0.97504 0.90358 0.0
H886 H 0.54635 0.11089 0.90557 0.0
H887 H 0.54205 0.05914 0.93822 0.0
H888 H 0.55676 0.93829 0.90533 0.0
H889 H 0.56885 0.99152 0.93348 0.0
H890 H 0.51982 0.05523 0.70321 0.0
H891 H 0.52076 0.10835 0.73435 0.0
H892 H 0.49598 0.98658 0.7088 0.0
H893 H 0.50659 0.93458 0.7396 0.0
C894 C 0.5098 0.98778 0.24785 0.0
C895 C 0.52486 0.96314 0.20684 0.0
C896 C 0.53586 0.03824 0.16517 0.0
C897 C 0.52174 0.06342 0.20671 0.0
N898 N 0.50793 0.06215 0.29078 0.0
N899 N 0.56032 0.96389 0.12969 0.0
C900 C 0.51191 0.03817 0.24893 0.0
C901 C 0.5402 0.98811 0.16645 0.0
N902 N 0.49327 0.96297 0.28579 0.0
N903 N 0.54386 0.06173 0.1238 0.0
H904 H 0.56274 0.92709 0.1286 0.0
H905 H 0.57807 0.98012 0.1019 0.0
H906 H 0.54515 0.0983 0.12081 0.0
H907 H 0.54655 0.04493 0.09115 0.0
H908 H 0.47611 0.9787 0.3143 0.0
H909 H 0.49419 0.92612 0.28754 0.0
H910 H 0.50548 0.0456 0.32347 0.0
H911 H 0.51209 0.09874 0.2936 0.0
loop_
_geom_bond_atom_site_label_1
_geom_bond_atom_site_label_2
_geom_bond_distance
_geom_bond_site_symmetry_2
_ccdc_geom_bond_type
Fe0 O2 1.918 . S
Fe0 O5 1.997 . S
Fe0 O6 2.002 . S
Fe0 O11 1.976 . S
Fe0 O14 1.996 . S
Fe1 O2 1.918 . S
Fe1 O9 1.997 . S
Fe1 O12 1.996 . S
Fe1 O16 1.976 . S
Fe1 O19 2.002 . S
O2 Fe0 1.918 . S
O2 Fe1 1.918 . S
O2 Fe3 1.918 . S
Fe3 O2 1.918 . S
Fe3 O4 2.002 . S
Fe3 O13 1.976 . S
Fe3 O17 1.996 . S
Fe3 O20 1.997 . S
O4 Fe3 2.002 . S
O4 C21 1.295 . S
O5 Fe0 1.997 . S
O5 C21 1.235 . S
O6 Fe0 2.002 . S
O6 C7 1.295 . S
C7 O6 1.295 . S
C7 O9 1.235 . S
C8 O13 1.287 . S
C8 O14 1.255 . S
O9 Fe1 1.997 . S
O9 C7 1.235 . S
C10 O16 1.287 . S
C10 O17 1.255 . S
O11 Fe0 1.976 . S
O11 C18 1.287 . S
O12 Fe1 1.996 . S
O12 C18 1.255 . S
O13 Fe3 1.976 . S
O13 C8 1.287 . S
O14 Fe0 1.996 . S
O14 C8 1.255 . S
C15 O19 1.295 . S
C15 O20 1.235 . S
O16 Fe1 1.976 . S
O16 C10 1.287 . S
O17 Fe3 1.996 . S
O17 C10 1.255 . S
C18 O11 1.287 . S
C18 O12 1.255 . S
O19 Fe1 2.002 . S
O19 C15 1.295 . S
O20 Fe3 1.997 . S
O20 C15 1.235 . S
C21 O4 1.295 . S
C21 O5 1.235 . S
Fe22 O24 1.918 . S
Fe22 O27 1.997 . S
Fe22 O28 2.002 . S
Fe22 O33 1.976 . S
Fe22 O36 1.996 . S
Fe23 O24 1.918 . S
Fe23 O31 1.997 . S
Fe23 O34 1.996 . S
Fe23 O38 1.976 . S
Fe23 O41 2.002 . S
O24 Fe22 1.918 . S
O24 Fe23 1.918 . S
O24 Fe25 1.918 . S
Fe25 O24 1.918 . S
Fe25 O26 2.002 . S
Fe25 O35 1.976 . S
Fe25 O39 1.996 . S
Fe25 O42 1.997 . S
O26 Fe25 2.002 . S
O26 C43 1.295 . S
O27 Fe22 1.997 . S
O27 C43 1.235 . S
O28 Fe22 2.002 . S
O28 C29 1.295 . S
C29 O28 1.295 . S
C29 O31 1.235 . S
C30 O35 1.287 . S
C30 O36 1.255 . S
O31 Fe23 1.997 . S
O31 C29 1.235 . S
C32 O38 1.287 . S
C32 O39 1.255 . S
O33 Fe22 1.976 . S
O33 C40 1.287 . S
O34 Fe23 1.996 . S
O34 C40 1.255 . S
O35 Fe25 1.976 . S
O35 C30 1.287 . S
O36 Fe22 1.996 . S
O36 C30 1.255 . S
C37 O41 1.295 . S
C37 O42 1.235 . S
O38 Fe23 1.976 . S
O38 C32 1.287 . S
O39 Fe25 1.996 . S
O39 C32 1.255 . S
C40 O33 1.287 . S
C40 O34 1.255 . S
O41 Fe23 2.002 . S
O41 C37 1.295 . S
O42 Fe25 1.997 . S
O42 C37 1.235 . S
C43 O26 1.295 . S
C43 O27 1.235 . S
Fe44 O46 1.918 . S
Fe44 O49 1.997 . S
Fe44 O50 2.002 . S
Fe44 O55 1.976 . S
Fe44 O58 1.996 . S
Fe45 O46 1.918 . S
Fe45 O53 1.997 . S
Fe45 O56 1.996 . S
Fe45 O60 1.976 . S
Fe45 O63 2.002 . S
O46 Fe44 1.918 . S
O46 Fe45 1.918 . S
O46 Fe47 1.918 . S
Fe47 O46 1.918 . S
Fe47 O48 2.002 . S
Fe47 O57 1.976 . S
Fe47 O61 1.996 . S
Fe47 O64 1.997 . S
O48 Fe47 2.002 . S
O48 C65 1.295 . S
O49 Fe44 1.997 . S
O49 C65 1.235 . S
O50 Fe44 2.002 . S
O50 C51 1.295 . S
C51 O50 1.295 . S
C51 O53 1.235 . S
C52 O57 1.287 . S
C52 O58 1.255 . S
O53 Fe45 1.997 . S
O53 C51 1.235 . S
C54 O60 1.287 . S
C54 O61 1.255 . S
O55 Fe44 1.976 . S
O55 C62 1.287 . S
O56 Fe45 1.996 . S
O56 C62 1.255 . S
O57 Fe47 1.976 . S
O57 C52 1.287 . S
O58 Fe44 1.996 . S
O58 C52 1.255 . S
C59 O63 1.295 . S
C59 O64 1.235 . S
O60 Fe45 1.976 . S
O60 C54 1.287 . S
O61 Fe47 1.996 . S
O61 C54 1.255 . S
C62 O55 1.287 . S
C62 O56 1.255 . S
O63 Fe45 2.002 . S
O63 C59 1.295 . S
O64 Fe47 1.997 . S
O64 C59 1.235 . S
C65 O48 1.295 . S
C65 O49 1.235 . S
Fe66 O68 1.918 . S
Fe66 O71 1.997 . S
Fe66 O72 2.002 . S
Fe66 O77 1.976 . S
Fe66 O80 1.996 . S
Fe67 O68 1.918 . S
Fe67 O75 1.997 . S
Fe67 O78 1.996 . S
Fe67 O82 1.976 . S
Fe67 O85 2.002 . S
O68 Fe66 1.918 . S
O68 Fe67 1.918 . S
O68 Fe69 1.918 . S
Fe69 O68 1.918 . S
Fe69 O70 2.002 . S
Fe69 O79 1.976 . S
Fe69 O83 1.996 . S
Fe69 O86 1.997 . S
O70 Fe69 2.002 . S
O70 C87 1.295 . S
O71 Fe66 1.997 . S
O71 C87 1.235 . S
O72 Fe66 2.002 . S
O72 C73 1.295 . S
C73 O72 1.295 . S
C73 O75 1.235 . S
C74 O79 1.287 . S
C74 O80 1.255 . S
O75 Fe67 1.997 . S
O75 C73 1.235 . S
C76 O82 1.287 . S
C76 O83 1.255 . S
O77 Fe66 1.976 . S
O77 C84 1.287 . S
O78 Fe67 1.996 . S
O78 C84 1.255 . S
O79 Fe69 1.976 . S
O79 C74 1.287 . S
O80 Fe66 1.996 . S
O80 C74 1.255 . S
C81 O85 1.295 . S
C81 O86 1.235 . S
O82 Fe67 1.976 . S
O82 C76 1.287 . S
O83 Fe69 1.996 . S
O83 C76 1.255 . S
C84 O77 1.287 . S
C84 O78 1.255 . S
O85 Fe67 2.002 . S
O85 C81 1.295 . S
O86 Fe69 1.997 . S
O86 C81 1.235 . S
C87 O70 1.295 . S
C87 O71 1.235 . S
Fe88 O90 1.918 . S
Fe88 O93 1.997 . S
Fe88 O94 2.002 . S
Fe88 O99 1.976 . S
Fe88 O102 1.996 . S
Fe89 O90 1.918 . S
Fe89 O97 1.997 . S
Fe89 O100 1.996 . S
Fe89 O104 1.976 . S
Fe89 O107 2.002 . S
O90 Fe88 1.918 . S
O90 Fe89 1.918 . S
O90 Fe91 1.918 . S
Fe91 O90 1.918 . S
Fe91 O92 2.002 . S
Fe91 O101 1.976 . S
Fe91 O105 1.996 . S
Fe91 O108 1.997 . S
O92 Fe91 2.002 . S
O92 C109 1.295 . S
O93 Fe88 1.997 . S
O93 C109 1.235 . S
O94 Fe88 2.002 . S
O94 C95 1.295 . S
C95 O94 1.295 . S
C95 O97 1.235 . S
C96 O101 1.287 . S
C96 O102 1.255 . S
O97 Fe89 1.997 . S
O97 C95 1.235 . S
C98 O104 1.287 . S
C98 O105 1.255 . S
O99 Fe88 1.976 . S
O99 C106 1.287 . S
O100 Fe89 1.996 . S
O100 C106 1.255 . S
O101 Fe91 1.976 . S
O101 C96 1.287 . S
O102 Fe88 1.996 . S
O102 C96 1.255 . S
C103 O107 1.295 . S
C103 O108 1.235 . S
O104 Fe89 1.976 . S
O104 C98 1.287 . S
O105 Fe91 1.996 . S
O105 C98 1.255 . S
C106 O99 1.287 . S
C106 O100 1.255 . S
O107 Fe89 2.002 . S
O107 C103 1.295 . S
O108 Fe91 1.997 . S
O108 C103 1.235 . S
C109 O92 1.295 . S
C109 O93 1.235 . S
Fe110 O112 1.918 . S
Fe110 O115 1.997 . S
Fe110 O116 2.002 . S
Fe110 O121 1.976 . S
Fe110 O124 1.996 . S
Fe111 O112 1.918 . S
Fe111 O119 1.997 . S
Fe111 O122 1.996 . S
Fe111 O126 1.976 . S
Fe111 O129 2.002 . S
O112 Fe110 1.918 . S
O112 Fe111 1.918 . S
O112 Fe113 1.918 . S
Fe113 O112 1.918 . S
Fe113 O114 2.002 . S
Fe113 O123 1.976 . S
Fe113 O127 1.996 . S
Fe113 O130 1.997 . S
O114 Fe113 2.002 . S
O114 C131 1.295 . S
O115 Fe110 1.997 . S
O115 C131 1.235 . S
O116 Fe110 2.002 . S
O116 C117 1.295 . S
C117 O116 1.295 . S
C117 O119 1.235 . S
C118 O123 1.287 . S
C118 O124 1.255 . S
O119 Fe111 1.997 . S
O119 C117 1.235 . S
C120 O126 1.287 . S
C120 O127 1.255 . S
O121 Fe110 1.976 . S
O121 C128 1.287 . S
O122 Fe111 1.996 . S
O122 C128 1.255 . S
O123 Fe113 1.976 . S
O123 C118 1.287 . S
O124 Fe110 1.996 . S
O124 C118 1.255 . S
C125 O129 1.295 . S
C125 O130 1.235 . S
O126 Fe111 1.976 . S
O126 C120 1.287 . S
O127 Fe113 1.996 . S
O127 C120 1.255 . S
C128 O121 1.287 . S
C128 O122 1.255 . S
O129 Fe111 2.002 . S
O129 C125 1.295 . S
O130 Fe113 1.997 . S
O130 C125 1.235 . S
C131 O114 1.295 . S
C131 O115 1.235 . S
Fe132 O134 1.918 . S
Fe132 O137 1.997 . S
Fe132 O138 2.002 . S
Fe132 O143 1.976 . S
Fe132 O146 1.996 . S
Fe133 O134 1.918 . S
Fe133 O141 1.997 . S
Fe133 O144 1.996 . S
Fe133 O148 1.976 . S
Fe133 O151 2.002 . S
O134 Fe132 1.918 . S
O134 Fe133 1.918 . S
O134 Fe135 1.918 . S
Fe135 O134 1.918 . S
Fe135 O136 2.002 . S
Fe135 O145 1.976 . S
Fe135 O149 1.996 . S
Fe135 O152 1.997 . S
O136 Fe135 2.002 . S
O136 C153 1.295 . S
O137 Fe132 1.997 . S
O137 C153 1.235 . S
O138 Fe132 2.002 . S
O138 C139 1.295 . S
C139 O138 1.295 . S
C139 O141 1.235 . S
C140 O145 1.287 . S
C140 O146 1.255 . S
O141 Fe133 1.997 . S
O141 C139 1.235 . S
C142 O148 1.287 . S
C142 O149 1.255 . S
O143 Fe132 1.976 . S
O143 C150 1.287 . S
O144 Fe133 1.996 . S
O144 C150 1.255 . S
O145 Fe135 1.976 . S
O145 C140 1.287 . S
O146 Fe132 1.996 . S
O146 C140 1.255 . S
C147 O151 1.295 . S
C147 O152 1.235 . S
O148 Fe133 1.976 . S
O148 C142 1.287 . S
O149 Fe135 1.996 . S
O149 C142 1.255 . S
C150 O143 1.287 . S
C150 O144 1.255 . S
O151 Fe133 2.002 . S
O151 C147 1.295 . S
O152 Fe135 1.997 . S
O152 C147 1.235 . S
C153 O136 1.295 . S
C153 O137 1.235 . S
Fe154 O156 1.918 . S
Fe154 O159 1.997 . S
Fe154 O160 2.002 . S
Fe154 O165 1.976 . S
Fe154 O168 1.996 . S
Fe155 O156 1.918 . S
Fe155 O163 1.997 . S
Fe155 O166 1.996 . S
Fe155 O170 1.976 . S
Fe155 O173 2.002 . S
O156 Fe154 1.918 . S
O156 Fe155 1.918 . S
O156 Fe157 1.918 . S
Fe157 O156 1.918 . S
Fe157 O158 2.002 . S
Fe157 O167 1.976 . S
Fe157 O171 1.996 . S
Fe157 O174 1.997 . S
O158 Fe157 2.002 . S
O158 C175 1.295 . S
O159 Fe154 1.997 . S
O159 C175 1.235 . S
O160 Fe154 2.002 . S
O160 C161 1.295 . S
C161 O160 1.295 . S
C161 O163 1.235 . S
C162 O167 1.287 . S
C162 O168 1.255 . S
O163 Fe155 1.997 . S
O163 C161 1.235 . S
C164 O170 1.287 . S
C164 O171 1.255 . S
O165 Fe154 1.976 . S
O165 C172 1.287 . S
O166 Fe155 1.996 . S
O166 C172 1.255 . S
O167 Fe157 1.976 . S
O167 C162 1.287 . S
O168 Fe154 1.996 . S
O168 C162 1.255 . S
C169 O173 1.295 . S
C169 O174 1.235 . S
O170 Fe155 1.976 . S
O170 C164 1.287 . S
O171 Fe157 1.996 . S
O171 C164 1.255 . S
C172 O165 1.287 . S
C172 O166 1.255 . S
O173 Fe155 2.002 . S
O173 C169 1.295 . S
O174 Fe157 1.997 . S
O174 C169 1.235 . S
C175 O158 1.295 . S
C175 O159 1.235 . S
Fe176 O178 1.918 . S
Fe176 O181 1.997 . S
Fe176 O182 2.002 . S
Fe176 O187 1.976 . S
Fe176 O190 1.996 . S
Fe177 O178 1.918 . S
Fe177 O185 1.997 . S
Fe177 O188 1.996 . S
Fe177 O192 1.976 . S
Fe177 O195 2.002 . S
O178 Fe176 1.918 . S
O178 Fe177 1.918 . S
O178 Fe179 1.918 . S
Fe179 O178 1.918 . S
Fe179 O180 2.002 . S
Fe179 O189 1.976 . S
Fe179 O193 1.996 . S
Fe179 O196 1.997 . S
O180 Fe179 2.002 . S
O180 C197 1.295 . S
O181 Fe176 1.997 . S
O181 C197 1.235 . S
O182 Fe176 2.002 . S
O182 C183 1.295 . S
C183 O182 1.295 . S
C183 O185 1.235 . S
C184 O189 1.287 . S
C184 O190 1.255 . S
O185 Fe177 1.997 . S
O185 C183 1.235 . S
C186 O192 1.287 . S
C186 O193 1.255 . S
O187 Fe176 1.976 . S
O187 C194 1.287 . S
O188 Fe177 1.996 . S
O188 C194 1.255 . S
O189 Fe179 1.976 . S
O189 C184 1.287 . S
O190 Fe176 1.996 . S
O190 C184 1.255 . S
C191 O195 1.295 . S
C191 O196 1.235 . S
O192 Fe177 1.976 . S
O192 C186 1.287 . S
O193 Fe179 1.996 . S
O193 C186 1.255 . S
C194 O187 1.287 . S
C194 O188 1.255 . S
O195 Fe177 2.002 . S
O195 C191 1.295 . S
O196 Fe179 1.997 . S
O196 C191 1.235 . S
C197 O180 1.295 . S
C197 O181 1.235 . S
Fe198 O200 1.918 . S
Fe198 O203 1.997 . S
Fe198 O204 2.002 . S
Fe198 O209 1.976 . S
Fe198 O212 1.996 . S
Fe199 O200 1.918 . S
Fe199 O207 1.997 . S
Fe199 O210 1.996 . S
Fe199 O214 1.976 . S
Fe199 O217 2.002 . S
O200 Fe198 1.918 . S
O200 Fe199 1.918 . S
O200 Fe201 1.918 . S
Fe201 O200 1.918 . S
Fe201 O202 2.002 . S
Fe201 O211 1.976 . S
Fe201 O215 1.996 . S
Fe201 O218 1.997 . S
O202 Fe201 2.002 . S
O202 C219 1.295 . S
O203 Fe198 1.997 . S
O203 C219 1.235 . S
O204 Fe198 2.002 . S
O204 C205 1.295 . S
C205 O204 1.295 . S
C205 O207 1.235 . S
C206 O211 1.287 . S
C206 O212 1.255 . S
O207 Fe199 1.997 . S
O207 C205 1.235 . S
C208 O214 1.287 . S
C208 O215 1.255 . S
O209 Fe198 1.976 . S
O209 C216 1.287 . S
O210 Fe199 1.996 . S
O210 C216 1.255 . S
O211 Fe201 1.976 . S
O211 C206 1.287 . S
O212 Fe198 1.996 . S
O212 C206 1.255 . S
C213 O217 1.295 . S
C213 O218 1.235 . S
O214 Fe199 1.976 . S
O214 C208 1.287 . S
O215 Fe201 1.996 . S
O215 C208 1.255 . S
C216 O209 1.287 . S
C216 O210 1.255 . S
O217 Fe199 2.002 . S
O217 C213 1.295 . S
O218 Fe201 1.997 . S
O218 C213 1.235 . S
C219 O202 1.295 . S
C219 O203 1.235 . S
Fe220 O222 1.918 . S
Fe220 O225 1.997 . S
Fe220 O226 2.002 . S
Fe220 O231 1.976 . S
Fe220 O234 1.996 . S
Fe221 O222 1.918 . S
Fe221 O229 1.997 . S
Fe221 O232 1.996 . S
Fe221 O236 1.976 . S
Fe221 O239 2.002 . S
O222 Fe220 1.918 . S
O222 Fe221 1.918 . S
O222 Fe223 1.918 . S
Fe223 O222 1.918 . S
Fe223 O224 2.002 . S
Fe223 O233 1.976 . S
Fe223 O237 1.996 . S
Fe223 O240 1.997 . S
O224 Fe223 2.002 . S
O224 C241 1.295 . S
O225 Fe220 1.997 . S
O225 C241 1.235 . S
O226 Fe220 2.002 . S
O226 C227 1.295 . S
C227 O226 1.295 . S
C227 O229 1.235 . S
C228 O233 1.287 . S
C228 O234 1.255 . S
O229 Fe221 1.997 . S
O229 C227 1.235 . S
C230 O236 1.287 . S
C230 O237 1.255 . S
O231 Fe220 1.976 . S
O231 C238 1.287 . S
O232 Fe221 1.996 . S
O232 C238 1.255 . S
O233 Fe223 1.976 . S
O233 C228 1.287 . S
O234 Fe220 1.996 . S
O234 C228 1.255 . S
C235 O239 1.295 . S
C235 O240 1.235 . S
O236 Fe221 1.976 . S
O236 C230 1.287 . S
O237 Fe223 1.996 . S
O237 C230 1.255 . S
C238 O231 1.287 . S
C238 O232 1.255 . S
O239 Fe221 2.002 . S
O239 C235 1.295 . S
O240 Fe223 1.997 . S
O240 C235 1.235 . S
C241 O224 1.295 . S
C241 O225 1.235 . S
Fe242 O244 1.918 . S
Fe242 O247 1.997 . S
Fe242 O248 2.002 . S
Fe242 O253 1.976 . S
Fe242 O256 1.996 . S
Fe243 O244 1.918 . S
Fe243 O251 1.997 . S
Fe243 O254 1.996 . S
Fe243 O258 1.976 . S
Fe243 O261 2.002 . S
O244 Fe242 1.918 . S
O244 Fe243 1.918 . S
O244 Fe245 1.918 . S
Fe245 O244 1.918 . S
Fe245 O246 2.002 . S
Fe245 O255 1.976 . S
Fe245 O259 1.996 . S
Fe245 O262 1.997 . S
O246 Fe245 2.002 . S
O246 C263 1.295 . S
O247 Fe242 1.997 . S
O247 C263 1.235 . S
O248 Fe242 2.002 . S
O248 C249 1.295 . S
C249 O248 1.295 . S
C249 O251 1.235 . S
C250 O255 1.287 . S
C250 O256 1.255 . S
O251 Fe243 1.997 . S
O251 C249 1.235 . S
C252 O258 1.287 . S
C252 O259 1.255 . S
O253 Fe242 1.976 . S
O253 C260 1.287 . S
O254 Fe243 1.996 . S
O254 C260 1.255 . S
O255 Fe245 1.976 . S
O255 C250 1.287 . S
O256 Fe242 1.996 . S
O256 C250 1.255 . S
C257 O261 1.295 . S
C257 O262 1.235 . S
O258 Fe243 1.976 . S
O258 C252 1.287 . S
O259 Fe245 1.996 . S
O259 C252 1.255 . S
C260 O253 1.287 . S
C260 O254 1.255 . S
O261 Fe243 2.002 . S
O261 C257 1.295 . S
O262 Fe245 1.997 . S
O262 C257 1.235 . S
C263 O246 1.295 . S
C263 O247 1.235 . S
C264 C265 1.363 . S
C264 C270 1.379 . S
C264 N272 1.356 . S
C265 C264 1.363 . S
C265 C271 1.363 . S
C266 C267 1.363 . S
C266 C271 1.379 . S
C266 N273 1.356 . S
C267 C266 1.363 . S
C267 C270 1.363 . S
N268 C270 1.356 . S
N268 H280 0.984 . S
N268 H281 0.985 . S
N269 C271 1.356 . S
N269 H274 0.984 . S
N269 H275 0.985 . S
C270 C264 1.379 . S
C270 C267 1.363 . S
C270 N268 1.356 . S
C271 C265 1.363 . S
C271 C266 1.379 . S
C271 N269 1.356 . S
N272 C264 1.356 . S
N272 H278 0.984 . S
N272 H279 0.984 . S
N273 C266 1.356 . S
N273 H276 0.984 . S
N273 H277 0.985 . S
H274 N269 0.984 . S
H275 N269 0.985 . S
H276 N273 0.984 . S
H277 N273 0.985 . S
H278 N272 0.984 . S
H279 N272 0.984 . S
H280 N268 0.984 . S
H281 N268 0.985 . S
C282 C283 1.363 . S
C282 C288 1.379 . S
C282 N290 1.356 . S
C283 C282 1.363 . S
C283 C289 1.363 . S
C284 C285 1.363 . S
C284 C289 1.379 . S
C284 N291 1.356 . S
C285 C284 1.363 . S
C285 C288 1.363 . S
N286 C288 1.356 . S
N286 H298 0.984 . S
N286 H299 0.985 . S
N287 C289 1.356 . S
N287 H292 0.984 . S
N287 H293 0.985 . S
C288 C282 1.379 . S
C288 C285 1.363 . S
C288 N286 1.356 . S
C289 C283 1.363 . S
C289 C284 1.379 . S
C289 N287 1.356 . S
N290 C282 1.356 . S
N290 H296 0.984 . S
N290 H297 0.984 . S
N291 C284 1.356 . S
N291 H294 0.984 . S
N291 H295 0.985 . S
H292 N287 0.984 . S
H293 N287 0.985 . S
H294 N291 0.984 . S
H295 N291 0.985 . S
H296 N290 0.984 . S
H297 N290 0.984 . S
H298 N286 0.984 . S
H299 N286 0.985 . S
C300 C301 1.363 . S
C300 C306 1.379 . S
C300 N308 1.356 . S
C301 C300 1.363 . S
C301 C307 1.363 . S
C302 C303 1.363 . S
C302 C307 1.379 . S
C302 N309 1.356 . S
C303 C302 1.363 . S
C303 C306 1.363 . S
N304 C306 1.356 . S
N304 H316 0.984 . S
N304 H317 0.985 . S
N305 C307 1.356 . S
N305 H310 0.984 . S
N305 H311 0.985 . S
C306 C300 1.379 . S
C306 C303 1.363 . S
C306 N304 1.356 . S
C307 C301 1.363 . S
C307 C302 1.379 . S
C307 N305 1.356 . S
N308 C300 1.356 . S
N308 H314 0.984 . S
N308 H315 0.984 . S
N309 C302 1.356 . S
N309 H312 0.984 . S
N309 H313 0.985 . S
H310 N305 0.984 . S
H311 N305 0.985 . S
H312 N309 0.984 . S
H313 N309 0.985 . S
H314 N308 0.984 . S
H315 N308 0.984 . S
H316 N304 0.984 . S
H317 N304 0.985 . S
C318 C319 1.363 . S
C318 C324 1.379 . S
C318 N326 1.356 . S
C319 C318 1.363 . S
C319 C325 1.363 . S
C320 C321 1.363 . S
C320 C325 1.379 . S
C320 N327 1.356 . S
C321 C320 1.363 . S
C321 C324 1.363 . S
N322 C324 1.356 . S
N322 H334 0.984 . S
N322 H335 0.985 . S
N323 C325 1.356 . S
N323 H328 0.984 . S
N323 H329 0.985 . S
C324 C318 1.379 . S
C324 C321 1.363 . S
C324 N322 1.356 . S
C325 C319 1.363 . S
C325 C320 1.379 . S
C325 N323 1.356 . S
N326 C318 1.356 . S
N326 H332 0.984 . S
N326 H333 0.984 . S
N327 C320 1.356 . S
N327 H330 0.984 . S
N327 H331 0.985 . S
H328 N323 0.984 . S
H329 N323 0.985 . S
H330 N327 0.984 . S
H331 N327 0.985 . S
H332 N326 0.984 . S
H333 N326 0.984 . S
H334 N322 0.984 . S
H335 N322 0.985 . S
C336 C337 1.363 . S
C336 C342 1.379 . S
C336 N344 1.356 . S
C337 C336 1.363 . S
C337 C343 1.363 . S
C338 C339 1.363 . S
C338 C343 1.379 . S
C338 N345 1.356 . S
C339 C338 1.363 . S
C339 C342 1.363 . S
N340 C342 1.356 . S
N340 H352 0.984 . S
N340 H353 0.985 . S
N341 C343 1.356 . S
N341 H346 0.984 . S
N341 H347 0.985 . S
C342 C336 1.379 . S
C342 C339 1.363 . S
C342 N340 1.356 . S
C343 C337 1.363 . S
C343 C338 1.379 . S
C343 N341 1.356 . S
N344 C336 1.356 . S
N344 H350 0.984 . S
N344 H351 0.984 . S
N345 C338 1.356 . S
N345 H348 0.984 . S
N345 H349 0.985 . S
H346 N341 0.984 . S
H347 N341 0.985 . S
H348 N345 0.984 . S
H349 N345 0.985 . S
H350 N344 0.984 . S
H351 N344 0.984 . S
H352 N340 0.984 . S
H353 N340 0.985 . S
C354 C355 1.363 . S
C354 C360 1.379 . S
C354 N362 1.356 . S
C355 C354 1.363 . S
C355 C361 1.363 . S
C356 C357 1.363 . S
C356 C361 1.379 . S
C356 N363 1.356 . S
C357 C356 1.363 . S
C357 C360 1.363 . S
N358 C360 1.356 . S
N358 H370 0.984 . S
N358 H371 0.985 . S
N359 C361 1.356 . S
N359 H364 0.984 . S
N359 H365 0.985 . S
C360 C354 1.379 . S
C360 C357 1.363 . S
C360 N358 1.356 . S
C361 C355 1.363 . S
C361 C356 1.379 . S
C361 N359 1.356 . S
N362 C354 1.356 . S
N362 H368 0.984 . S
N362 H369 0.984 . S
N363 C356 1.356 . S
N363 H366 0.984 . S
N363 H367 0.985 . S
H364 N359 0.984 . S
H365 N359 0.985 . S
H366 N363 0.984 . S
H367 N363 0.985 . S
H368 N362 0.984 . S
H369 N362 0.984 . S
H370 N358 0.984 . S
H371 N358 0.985 . S
C372 C373 1.363 . S
C372 C378 1.379 . S
C372 N380 1.356 . S
C373 C372 1.363 . S
C373 C379 1.363 . S
C374 C375 1.363 . S
C374 C379 1.379 . S
C374 N381 1.356 . S
C375 C374 1.363 . S
C375 C378 1.363 . S
N376 C378 1.356 . S
N376 H388 0.984 . S
N376 H389 0.985 . S
N377 C379 1.356 . S
N377 H382 0.984 . S
N377 H383 0.985 . S
C378 C372 1.379 . S
C378 C375 1.363 . S
C378 N376 1.356 . S
C379 C373 1.363 . S
C379 C374 1.379 . S
C379 N377 1.356 . S
N380 C372 1.356 . S
N380 H386 0.984 . S
N380 H387 0.984 . S
N381 C374 1.356 . S
N381 H384 0.984 . S
N381 H385 0.985 . S
H382 N377 0.984 . S
H383 N377 0.985 . S
H384 N381 0.984 . S
H385 N381 0.985 . S
H386 N380 0.984 . S
H387 N380 0.984 . S
H388 N376 0.984 . S
H389 N376 0.985 . S
C390 C391 1.363 . S
C390 C396 1.379 . S
C390 N398 1.356 . S
C391 C390 1.363 . S
C391 C397 1.363 . S
C392 C393 1.363 . S
C392 C397 1.379 . S
C392 N399 1.356 . S
C393 C392 1.363 . S
C393 C396 1.363 . S
N394 C396 1.356 . S
N394 H406 0.984 . S
N394 H407 0.985 . S
N395 C397 1.356 . S
N395 H400 0.984 . S
N395 H401 0.985 . S
C396 C390 1.379 . S
C396 C393 1.363 . S
C396 N394 1.356 . S
C397 C391 1.363 . S
C397 C392 1.379 . S
C397 N395 1.356 . S
N398 C390 1.356 . S
N398 H404 0.984 . S
N398 H405 0.984 . S
N399 C392 1.356 . S
N399 H402 0.984 . S
N399 H403 0.985 . S
H400 N395 0.984 . S
H401 N395 0.985 . S
H402 N399 0.984 . S
H403 N399 0.985 . S
H404 N398 0.984 . S
H405 N398 0.984 . S
H406 N394 0.984 . S
H407 N394 0.985 . S
C408 C409 1.363 . S
C408 C414 1.379 . S
C408 N416 1.356 . S
C409 C408 1.363 . S
C409 C415 1.363 . S
C410 C411 1.363 . S
C410 C415 1.379 . S
C410 N417 1.356 . S
C411 C410 1.363 . S
C411 C414 1.363 . S
N412 C414 1.356 . S
N412 H424 0.984 . S
N412 H425 0.985 . S
N413 C415 1.356 . S
N413 H418 0.984 . S
N413 H419 0.985 . S
C414 C408 1.379 . S
C414 C411 1.363 . S
C414 N412 1.356 . S
C415 C409 1.363 . S
C415 C410 1.379 . S
C415 N413 1.356 . S
N416 C408 1.356 . S
N416 H422 0.984 . S
N416 H423 0.984 . S
N417 C410 1.356 . S
N417 H420 0.984 . S
N417 H421 0.985 . S
H418 N413 0.984 . S
H419 N413 0.985 . S
H420 N417 0.984 . S
H421 N417 0.985 . S
H422 N416 0.984 . S
H423 N416 0.984 . S
H424 N412 0.984 . S
H425 N412 0.985 . S
C426 C427 1.363 . S
C426 C432 1.379 . S
C426 N434 1.356 . S
C427 C426 1.363 . S
C427 C433 1.363 . S
C428 C429 1.363 . S
C428 C433 1.379 . S
C428 N435 1.356 . S
C429 C428 1.363 . S
C429 C432 1.363 . S
N430 C432 1.356 . S
N430 H442 0.984 . S
N430 H443 0.985 . S
N431 C433 1.356 . S
N431 H436 0.984 . S
N431 H437 0.985 . S
C432 C426 1.379 . S
C432 C429 1.363 . S
C432 N430 1.356 . S
C433 C427 1.363 . S
C433 C428 1.379 . S
C433 N431 1.356 . S
N434 C426 1.356 . S
N434 H440 0.984 . S
N434 H441 0.984 . S
N435 C428 1.356 . S
N435 H438 0.984 . S
N435 H439 0.985 . S
H436 N431 0.984 . S
H437 N431 0.985 . S
H438 N435 0.984 . S
H439 N435 0.985 . S
H440 N434 0.984 . S
H441 N434 0.984 . S
H442 N430 0.984 . S
H443 N430 0.985 . S
C444 C445 1.363 . S
C444 C450 1.379 . S
C444 N452 1.356 . S
C445 C444 1.363 . S
C445 C451 1.363 . S
C446 C447 1.363 . S
C446 C451 1.379 . S
C446 N453 1.356 . S
C447 C446 1.363 . S
C447 C450 1.363 . S
N448 C450 1.356 . S
N448 H460 0.984 . S
N448 H461 0.985 . S
N449 C451 1.356 . S
N449 H454 0.984 . S
N449 H455 0.985 . S
C450 C444 1.379 . S
C450 C447 1.363 . S
C450 N448 1.356 . S
C451 C445 1.363 . S
C451 C446 1.379 . S
C451 N449 1.356 . S
N452 C444 1.356 . S
N452 H458 0.984 . S
N452 H459 0.984 . S
N453 C446 1.356 . S
N453 H456 0.984 . S
N453 H457 0.985 . S
H454 N449 0.984 . S
H455 N449 0.985 . S
H456 N453 0.984 . S
H457 N453 0.985 . S
H458 N452 0.984 . S
H459 N452 0.984 . S
H460 N448 0.984 . S
H461 N448 0.985 . S
C462 C463 1.363 . S
C462 C468 1.379 . S
C462 N470 1.356 . S
C463 C462 1.363 . S
C463 C469 1.363 . S
C464 C465 1.363 . S
C464 C469 1.379 . S
C464 N471 1.356 . S
C465 C464 1.363 . S
C465 C468 1.363 . S
N466 C468 1.356 . S
N466 H478 0.984 . S
N466 H479 0.985 . S
N467 C469 1.356 . S
N467 H472 0.984 . S
N467 H473 0.985 . S
C468 C462 1.379 . S
C468 C465 1.363 . S
C468 N466 1.356 . S
C469 C463 1.363 . S
C469 C464 1.379 . S
C469 N467 1.356 . S
N470 C462 1.356 . S
N470 H476 0.984 . S
N470 H477 0.984 . S
N471 C464 1.356 . S
N471 H474 0.984 . S
N471 H475 0.985 . S
H472 N467 0.984 . S
H473 N467 0.985 . S
H474 N471 0.984 . S
H475 N471 0.985 . S
H476 N470 0.984 . S
H477 N470 0.984 . S
H478 N466 0.984 . S
H479 N466 0.985 . S
C480 C481 1.363 . S
C480 C486 1.379 . S
C480 N488 1.356 . S
C481 C480 1.363 . S
C481 C487 1.363 . S
C482 C483 1.363 . S
C482 C487 1.379 . S
C482 N489 1.356 . S
C483 C482 1.363 . S
C483 C486 1.363 . S
N484 C486 1.356 . S
N484 H496 0.984 . S
N484 H497 0.985 . S
N485 C487 1.356 . S
N485 H490 0.984 . S
N485 H491 0.985 . S
C486 C480 1.379 . S
C486 C483 1.363 . S
C486 N484 1.356 . S
C487 C481 1.363 . S
C487 C482 1.379 . S
C487 N485 1.356 . S
N488 C480 1.356 . S
N488 H494 0.984 . S
N488 H495 0.984 . S
N489 C482 1.356 . S
N489 H492 0.984 . S
N489 H493 0.985 . S
H490 N485 0.984 . S
H491 N485 0.985 . S
H492 N489 0.984 . S
H493 N489 0.985 . S
H494 N488 0.984 . S
H495 N488 0.984 . S
H496 N484 0.984 . S
H497 N484 0.985 . S
C498 C499 1.363 . S
C498 C504 1.379 . S
C498 N506 1.356 . S
C499 C498 1.363 . S
C499 C505 1.363 . S
C500 C501 1.363 . S
C500 C505 1.379 . S
C500 N507 1.356 . S
C501 C500 1.363 . S
C501 C504 1.363 . S
N502 C504 1.356 . S
N502 H514 0.984 . S
N502 H515 0.985 . S
N503 C505 1.356 . S
N503 H508 0.984 . S
N503 H509 0.985 . S
C504 C498 1.379 . S
C504 C501 1.363 . S
C504 N502 1.356 . S
C505 C499 1.363 . S
C505 C500 1.379 . S
C505 N503 1.356 . S
N506 C498 1.356 . S
N506 H512 0.984 . S
N506 H513 0.984 . S
N507 C500 1.356 . S
N507 H510 0.984 . S
N507 H511 0.985 . S
H508 N503 0.984 . S
H509 N503 0.985 . S
H510 N507 0.984 . S
H511 N507 0.985 . S
H512 N506 0.984 . S
H513 N506 0.984 . S
H514 N502 0.984 . S
H515 N502 0.985 . S
C516 C517 1.363 . S
C516 C522 1.379 . S
C516 N524 1.356 . S
C517 C516 1.363 . S
C517 C523 1.363 . S
C518 C519 1.363 . S
C518 C523 1.379 . S
C518 N525 1.356 . S
C519 C518 1.363 . S
C519 C522 1.363 . S
N520 C522 1.356 . S
N520 H532 0.984 . S
N520 H533 0.985 . S
N521 C523 1.356 . S
N521 H526 0.984 . S
N521 H527 0.985 . S
C522 C516 1.379 . S
C522 C519 1.363 . S
C522 N520 1.356 . S
C523 C517 1.363 . S
C523 C518 1.379 . S
C523 N521 1.356 . S
N524 C516 1.356 . S
N524 H530 0.984 . S
N524 H531 0.984 . S
N525 C518 1.356 . S
N525 H528 0.984 . S
N525 H529 0.985 . S
H526 N521 0.984 . S
H527 N521 0.985 . S
H528 N525 0.984 . S
H529 N525 0.985 . S
H530 N524 0.984 . S
H531 N524 0.984 . S
H532 N520 0.984 . S
H533 N520 0.985 . S
C534 C535 1.363 . S
C534 C540 1.379 . S
C534 N542 1.356 . S
C535 C534 1.363 . S
C535 C541 1.363 . S
C536 C537 1.363 . S
C536 C541 1.379 . S
C536 N543 1.356 . S
C537 C536 1.363 . S
C537 C540 1.363 . S
N538 C540 1.356 . S
N538 H550 0.984 . S
N538 H551 0.985 . S
N539 C541 1.356 . S
N539 H544 0.984 . S
N539 H545 0.985 . S
C540 C534 1.379 . S
C540 C537 1.363 . S
C540 N538 1.356 . S
C541 C535 1.363 . S
C541 C536 1.379 . S
C541 N539 1.356 . S
N542 C534 1.356 . S
N542 H548 0.984 . S
N542 H549 0.984 . S
N543 C536 1.356 . S
N543 H546 0.984 . S
N543 H547 0.985 . S
H544 N539 0.984 . S
H545 N539 0.985 . S
H546 N543 0.984 . S
H547 N543 0.985 . S
H548 N542 0.984 . S
H549 N542 0.984 . S
H550 N538 0.984 . S
H551 N538 0.985 . S
C552 C553 1.363 . S
C552 C558 1.379 . S
C552 N560 1.356 . S
C553 C552 1.363 . S
C553 C559 1.363 . S
C554 C555 1.363 . S
C554 C559 1.379 . S
C554 N561 1.356 . S
C555 C554 1.363 . S
C555 C558 1.363 . S
N556 C558 1.356 . S
N556 H568 0.984 . S
N556 H569 0.985 . S
N557 C559 1.356 . S
N557 H562 0.984 . S
N557 H563 0.985 . S
C558 C552 1.379 . S
C558 C555 1.363 . S
C558 N556 1.356 . S
C559 C553 1.363 . S
C559 C554 1.379 . S
C559 N557 1.356 . S
N560 C552 1.356 . S
N560 H566 0.984 . S
N560 H567 0.984 . S
N561 C554 1.356 . S
N561 H564 0.984 . S
N561 H565 0.985 . S
H562 N557 0.984 . S
H563 N557 0.985 . S
H564 N561 0.984 . S
H565 N561 0.985 . S
H566 N560 0.984 . S
H567 N560 0.984 . S
H568 N556 0.984 . S
H569 N556 0.985 . S
C570 C571 1.363 . S
C570 C576 1.379 . S
C570 N578 1.356 . S
C571 C570 1.363 . S
C571 C577 1.363 . S
C572 C573 1.363 . S
C572 C577 1.379 . S
C572 N579 1.356 . S
C573 C572 1.363 . S
C573 C576 1.363 . S
N574 C576 1.356 . S
N574 H586 0.984 . S
N574 H587 0.985 . S
N575 C577 1.356 . S
N575 H580 0.984 . S
N575 H581 0.985 . S
C576 C570 1.379 . S
C576 C573 1.363 . S
C576 N574 1.356 . S
C577 C571 1.363 . S
C577 C572 1.379 . S
C577 N575 1.356 . S
N578 C570 1.356 . S
N578 H584 0.984 . S
N578 H585 0.984 . S
N579 C572 1.356 . S
N579 H582 0.984 . S
N579 H583 0.985 . S
H580 N575 0.984 . S
H581 N575 0.985 . S
H582 N579 0.984 . S
H583 N579 0.985 . S
H584 N578 0.984 . S
H585 N578 0.984 . S
H586 N574 0.984 . S
H587 N574 0.985 . S
C588 C589 1.363 . S
C588 C594 1.379 . S
C588 N596 1.356 . S
C589 C588 1.363 . S
C589 C595 1.363 . S
C590 C591 1.363 . S
C590 C595 1.379 . S
C590 N597 1.356 . S
C591 C590 1.363 . S
C591 C594 1.363 . S
N592 C594 1.356 . S
N592 H604 0.984 . S
N592 H605 0.985 . S
N593 C595 1.356 . S
N593 H598 0.984 . S
N593 H599 0.985 . S
C594 C588 1.379 . S
C594 C591 1.363 . S
C594 N592 1.356 . S
C595 C589 1.363 . S
C595 C590 1.379 . S
C595 N593 1.356 . S
N596 C588 1.356 . S
N596 H602 0.984 . S
N596 H603 0.984 . S
N597 C590 1.356 . S
N597 H600 0.984 . S
N597 H601 0.985 . S
H598 N593 0.984 . S
H599 N593 0.985 . S
H600 N597 0.984 . S
H601 N597 0.985 . S
H602 N596 0.984 . S
H603 N596 0.984 . S
H604 N592 0.984 . S
H605 N592 0.985 . S
C606 C607 1.363 . S
C606 C612 1.379 . S
C606 N614 1.356 . S
C607 C606 1.363 . S
C607 C613 1.363 . S
C608 C609 1.363 . S
C608 C613 1.379 . S
C608 N615 1.356 . S
C609 C608 1.363 . S
C609 C612 1.363 . S
N610 C612 1.356 . S
N610 H622 0.984 . S
N610 H623 0.985 . S
N611 C613 1.356 . S
N611 H616 0.984 . S
N611 H617 0.985 . S
C612 C606 1.379 . S
C612 C609 1.363 . S
C612 N610 1.356 . S
C613 C607 1.363 . S
C613 C608 1.379 . S
C613 N611 1.356 . S
N614 C606 1.356 . S
N614 H620 0.984 . S
N614 H621 0.984 . S
N615 C608 1.356 . S
N615 H618 0.984 . S
N615 H619 0.985 . S
H616 N611 0.984 . S
H617 N611 0.985 . S
H618 N615 0.984 . S
H619 N615 0.985 . S
H620 N614 0.984 . S
H621 N614 0.984 . S
H622 N610 0.984 . S
H623 N610 0.985 . S
C624 C625 1.363 . S
C624 C630 1.379 . S
C624 N632 1.356 . S
C625 C624 1.363 . S
C625 C631 1.363 . S
C626 C627 1.363 . S
C626 C631 1.379 . S
C626 N633 1.356 . S
C627 C626 1.363 . S
C627 C630 1.363 . S
N628 C630 1.356 . S
N628 H640 0.984 . S
N628 H641 0.985 . S
N629 C631 1.356 . S
N629 H634 0.984 . S
N629 H635 0.985 . S
C630 C624 1.379 . S
C630 C627 1.363 . S
C630 N628 1.356 . S
C631 C625 1.363 . S
C631 C626 1.379 . S
C631 N629 1.356 . S
N632 C624 1.356 . S
N632 H638 0.984 . S
N632 H639 0.984 . S
N633 C626 1.356 . S
N633 H636 0.984 . S
N633 H637 0.985 . S
H634 N629 0.984 . S
H635 N629 0.985 . S
H636 N633 0.984 . S
H637 N633 0.985 . S
H638 N632 0.984 . S
H639 N632 0.984 . S
H640 N628 0.984 . S
H641 N628 0.985 . S
C642 C643 1.363 . S
C642 C648 1.379 . S
C642 N650 1.356 . S
C643 C642 1.363 . S
C643 C649 1.363 . S
C644 C645 1.363 . S
C644 C649 1.379 . S
C644 N651 1.356 . S
C645 C644 1.363 . S
C645 C648 1.363 . S
N646 C648 1.356 . S
N646 H658 0.984 . S
N646 H659 0.985 . S
N647 C649 1.356 . S
N647 H652 0.984 . S
N647 H653 0.985 . S
C648 C642 1.379 . S
C648 C645 1.363 . S
C648 N646 1.356 . S
C649 C643 1.363 . S
C649 C644 1.379 . S
C649 N647 1.356 . S
N650 C642 1.356 . S
N650 H656 0.984 . S
N650 H657 0.984 . S
N651 C644 1.356 . S
N651 H654 0.984 . S
N651 H655 0.985 . S
H652 N647 0.984 . S
H653 N647 0.985 . S
H654 N651 0.984 . S
H655 N651 0.985 . S
H656 N650 0.984 . S
H657 N650 0.984 . S
H658 N646 0.984 . S
H659 N646 0.985 . S
C660 C661 1.363 . S
C660 C666 1.379 . S
C660 N668 1.356 . S
C661 C660 1.363 . S
C661 C667 1.363 . S
C662 C663 1.363 . S
C662 C667 1.379 . S
C662 N669 1.356 . S
C663 C662 1.363 . S
C663 C666 1.363 . S
N664 C666 1.356 . S
N664 H676 0.984 . S
N664 H677 0.985 . S
N665 C667 1.356 . S
N665 H670 0.984 . S
N665 H671 0.985 . S
C666 C660 1.379 . S
C666 C663 1.363 . S
C666 N664 1.356 . S
C667 C661 1.363 . S
C667 C662 1.379 . S
C667 N665 1.356 . S
N668 C660 1.356 . S
N668 H674 0.984 . S
N668 H675 0.984 . S
N669 C662 1.356 . S
N669 H672 0.984 . S
N669 H673 0.985 . S
H670 N665 0.984 . S
H671 N665 0.985 . S
H672 N669 0.984 . S
H673 N669 0.985 . S
H674 N668 0.984 . S
H675 N668 0.984 . S
H676 N664 0.984 . S
H677 N664 0.985 . S
C678 C679 1.363 . S
C678 C684 1.379 . S
C678 N686 1.356 . S
C679 C678 1.363 . S
C679 C685 1.363 . S
C680 C681 1.363 . S
C680 C685 1.379 . S
C680 N687 1.356 . S
C681 C680 1.363 . S
C681 C684 1.363 . S
N682 C684 1.356 . S
N682 H694 0.984 . S
N682 H695 0.985 . S
N683 C685 1.356 . S
N683 H688 0.984 . S
N683 H689 0.985 . S
C684 C678 1.379 . S
C684 C681 1.363 . S
C684 N682 1.356 . S
C685 C679 1.363 . S
C685 C680 1.379 . S
C685 N683 1.356 . S
N686 C678 1.356 . S
N686 H692 0.984 . S
N686 H693 0.984 . S
N687 C680 1.356 . S
N687 H690 0.984 . S
N687 H691 0.985 . S
H688 N683 0.984 . S
H689 N683 0.985 . S
H690 N687 0.984 . S
H691 N687 0.985 . S
H692 N686 0.984 . S
H693 N686 0.984 . S
H694 N682 0.984 . S
H695 N682 0.985 . S
C696 C697 1.363 . S
C696 C702 1.379 1_565 S
C696 N704 1.356 . S
C697 C696 1.363 . S
C697 C703 1.363 . S
C698 C699 1.363 . S
C698 C703 1.379 1_545 S
C698 N705 1.356 . S
C699 C698 1.363 . S
C699 C702 1.363 . S
N700 C702 1.356 . S
N700 H712 0.984 . S
N700 H713 0.985 . S
N701 C703 1.356 . S
N701 H706 0.984 . S
N701 H707 0.985 . S
C702 C696 1.379 1_545 S
C702 C699 1.363 . S
C702 N700 1.356 . S
C703 C697 1.363 . S
C703 C698 1.379 1_565 S
C703 N701 1.356 . S
N704 C696 1.356 . S
N704 H710 0.984 . S
N704 H711 0.984 . S
N705 C698 1.356 . S
N705 H708 0.984 . S
N705 H709 0.985 . S
H706 N701 0.984 . S
H707 N701 0.985 . S
H708 N705 0.984 . S
H709 N705 0.985 . S
H710 N704 0.984 . S
H711 N704 0.984 . S
H712 N700 0.984 . S
H713 N700 0.985 . S
C714 C715 1.363 . S
C714 C720 1.379 1_455 S
C714 N722 1.356 . S
C715 C714 1.363 . S
C715 C721 1.363 . S
C716 C717 1.363 . S
C716 C721 1.379 1_655 S
C716 N723 1.356 . S
C717 C716 1.363 . S
C717 C720 1.363 . S
N718 C720 1.356 . S
N718 H730 0.984 . S
N718 H731 0.985 . S
N719 C721 1.356 . S
N719 H724 0.984 . S
N719 H725 0.985 . S
C720 C714 1.379 1_655 S
C720 C717 1.363 . S
C720 N718 1.356 . S
C721 C715 1.363 . S
C721 C716 1.379 1_455 S
C721 N719 1.356 . S
N722 C714 1.356 . S
N722 H728 0.984 . S
N722 H729 0.984 . S
N723 C716 1.356 . S
N723 H726 0.984 . S
N723 H727 0.985 . S
H724 N719 0.984 . S
H725 N719 0.985 . S
H726 N723 0.984 . S
H727 N723 0.985 . S
H728 N722 0.984 . S
H729 N722 0.984 . S
H730 N718 0.984 . S
H731 N718 0.985 . S
C732 C733 1.363 . S
C732 C738 1.379 1_545 S
C732 N740 1.356 . S
C733 C732 1.363 . S
C733 C739 1.363 . S
C734 C735 1.363 . S
C734 C739 1.379 1_565 S
C734 N741 1.356 . S
C735 C734 1.363 . S
C735 C738 1.363 . S
N736 C738 1.356 . S
N736 H748 0.984 . S
N736 H749 0.985 . S
N737 C739 1.356 . S
N737 H742 0.984 . S
N737 H743 0.985 . S
C738 C732 1.379 1_565 S
C738 C735 1.363 . S
C738 N736 1.356 . S
C739 C733 1.363 . S
C739 C734 1.379 1_545 S
C739 N737 1.356 . S
N740 C732 1.356 . S
N740 H746 0.984 . S
N740 H747 0.984 . S
N741 C734 1.356 . S
N741 H744 0.984 . S
N741 H745 0.985 . S
H742 N737 0.984 . S
H743 N737 0.985 . S
H744 N741 0.984 . S
H745 N741 0.985 . S
H746 N740 0.984 . S
H747 N740 0.984 . S
H748 N736 0.984 . S
H749 N736 0.985 . S
C750 C751 1.363 . S
C750 C756 1.379 1_455 S
C750 N758 1.356 . S
C751 C750 1.363 . S
C751 C757 1.363 . S
C752 C753 1.363 . S
C752 C757 1.379 1_655 S
C752 N759 1.356 . S
C753 C752 1.363 . S
C753 C756 1.363 . S
N754 C756 1.356 . S
N754 H766 0.984 . S
N754 H767 0.985 . S
N755 C757 1.356 . S
N755 H760 0.984 . S
N755 H761 0.985 . S
C756 C750 1.379 1_655 S
C756 C753 1.363 . S
C756 N754 1.356 . S
C757 C751 1.363 . S
C757 C752 1.379 1_455 S
C757 N755 1.356 . S
N758 C750 1.356 . S
N758 H764 0.984 . S
N758 H765 0.984 . S
N759 C752 1.356 . S
N759 H762 0.984 . S
N759 H763 0.985 . S
H760 N755 0.984 . S
H761 N755 0.985 . S
H762 N759 0.984 . S
H763 N759 0.985 . S
H764 N758 0.984 . S
H765 N758 0.984 . S
H766 N754 0.984 . S
H767 N754 0.985 . S
C768 C769 1.363 . S
C768 C774 1.379 1_556 S
C768 N776 1.356 . S
C769 C768 1.363 . S
C769 C775 1.363 . S
C770 C771 1.363 . S
C770 C775 1.379 1_554 S
C770 N777 1.356 . S
C771 C770 1.363 . S
C771 C774 1.363 . S
N772 C774 1.356 . S
N772 H784 0.984 . S
N772 H785 0.985 . S
N773 C775 1.356 . S
N773 H778 0.984 . S
N773 H779 0.985 . S
C774 C768 1.379 1_554 S
C774 C771 1.363 . S
C774 N772 1.356 . S
C775 C769 1.363 . S
C775 C770 1.379 1_556 S
C775 N773 1.356 . S
N776 C768 1.356 . S
N776 H782 0.984 . S
N776 H783 0.984 . S
N777 C770 1.356 . S
N777 H780 0.984 . S
N777 H781 0.985 . S
H778 N773 0.984 . S
H779 N773 0.985 . S
H780 N777 0.984 . S
H781 N777 0.985 . S
H782 N776 0.984 . S
H783 N776 0.984 . S
H784 N772 0.984 . S
H785 N772 0.985 . S
C786 C787 1.363 . S
C786 C792 1.379 1_556 S
C786 N794 1.356 . S
C787 C786 1.363 . S
C787 C793 1.363 . S
C788 C789 1.363 . S
C788 C793 1.379 1_554 S
C788 N795 1.356 . S
C789 C788 1.363 . S
C789 C792 1.363 . S
N790 C792 1.356 . S
N790 H802 0.984 . S
N790 H803 0.985 . S
N791 C793 1.356 . S
N791 H796 0.984 . S
N791 H797 0.985 . S
C792 C786 1.379 1_554 S
C792 C789 1.363 . S
C792 N790 1.356 . S
C793 C787 1.363 . S
C793 C788 1.379 1_556 S
C793 N791 1.356 . S
N794 C786 1.356 . S
N794 H800 0.984 . S
N794 H801 0.984 . S
N795 C788 1.356 . S
N795 H798 0.984 . S
N795 H799 0.985 . S
H796 N791 0.984 . S
H797 N791 0.985 . S
H798 N795 0.984 . S
H799 N795 0.985 . S
H800 N794 0.984 . S
H801 N794 0.984 . S
H802 N790 0.984 . S
H803 N790 0.985 . S
C804 C805 1.363 . S
C804 C810 1.379 1_554 S
C804 N812 1.356 . S
C805 C804 1.363 . S
C805 C811 1.363 . S
C806 C807 1.363 . S
C806 C811 1.379 1_556 S
C806 N813 1.356 . S
C807 C806 1.363 . S
C807 C810 1.363 . S
N808 C810 1.356 . S
N808 H820 0.984 . S
N808 H821 0.985 . S
N809 C811 1.356 . S
N809 H814 0.984 . S
N809 H815 0.985 . S
C810 C804 1.379 1_556 S
C810 C807 1.363 . S
C810 N808 1.356 . S
C811 C805 1.363 . S
C811 C806 1.379 1_554 S
C811 N809 1.356 . S
N812 C804 1.356 . S
N812 H818 0.984 . S
N812 H819 0.984 . S
N813 C806 1.356 . S
N813 H816 0.984 . S
N813 H817 0.985 . S
H814 N809 0.984 . S
H815 N809 0.985 . S
H816 N813 0.984 . S
H817 N813 0.985 . S
H818 N812 0.984 . S
H819 N812 0.984 . S
H820 N808 0.984 . S
H821 N808 0.985 . S
C822 C823 1.363 . S
C822 C828 1.379 1_556 S
C822 N830 1.356 . S
C823 C822 1.363 . S
C823 C829 1.363 . S
C824 C825 1.363 . S
C824 C829 1.379 1_554 S
C824 N831 1.356 . S
C825 C824 1.363 . S
C825 C828 1.363 . S
N826 C828 1.356 . S
N826 H838 0.984 . S
N826 H839 0.985 . S
N827 C829 1.356 . S
N827 H832 0.984 . S
N827 H833 0.985 . S
C828 C822 1.379 1_554 S
C828 C825 1.363 . S
C828 N826 1.356 . S
C829 C823 1.363 . S
C829 C824 1.379 1_556 S
C829 N827 1.356 . S
N830 C822 1.356 . S
N830 H836 0.984 . S
N830 H837 0.984 . S
N831 C824 1.356 . S
N831 H834 0.984 . S
N831 H835 0.985 . S
H832 N827 0.984 . S
H833 N827 0.985 . S
H834 N831 0.984 . S
H835 N831 0.985 . S
H836 N830 0.984 . S
H837 N830 0.984 . S
H838 N826 0.984 . S
H839 N826 0.985 . S
C840 C841 1.363 . S
C840 C846 1.379 1_455 S
C840 N848 1.356 . S
C841 C840 1.363 . S
C841 C847 1.363 . S
C842 C843 1.363 . S
C842 C847 1.379 1_655 S
C842 N849 1.356 . S
C843 C842 1.363 . S
C843 C846 1.363 . S
N844 C846 1.356 . S
N844 H856 0.984 . S
N844 H857 0.985 . S
N845 C847 1.356 . S
N845 H850 0.984 . S
N845 H851 0.985 . S
C846 C840 1.379 1_655 S
C846 C843 1.363 . S
C846 N844 1.356 . S
C847 C841 1.363 . S
C847 C842 1.379 1_455 S
C847 N845 1.356 . S
N848 C840 1.356 . S
N848 H854 0.984 . S
N848 H855 0.984 . S
N849 C842 1.356 . S
N849 H852 0.984 . S
N849 H853 0.985 . S
H850 N845 0.984 . S
H851 N845 0.985 . S
H852 N849 0.984 . S
H853 N849 0.985 . S
H854 N848 0.984 . S
H855 N848 0.984 . S
H856 N844 0.984 . S
H857 N844 0.985 . S
C858 C859 1.363 . S
C858 C864 1.379 1_655 S
C858 N866 1.356 . S
C859 C858 1.363 . S
C859 C865 1.363 . S
C860 C861 1.363 . S
C860 C865 1.379 1_455 S
C860 N867 1.356 . S
C861 C860 1.363 . S
C861 C864 1.363 . S
N862 C864 1.356 . S
N862 H874 0.984 . S
N862 H875 0.985 . S
N863 C865 1.356 . S
N863 H868 0.984 . S
N863 H869 0.985 . S
C864 C858 1.379 1_455 S
C864 C861 1.363 . S
C864 N862 1.356 . S
C865 C859 1.363 . S
C865 C860 1.379 1_655 S
C865 N863 1.356 . S
N866 C858 1.356 . S
N866 H872 0.984 . S
N866 H873 0.984 . S
N867 C860 1.356 . S
N867 H870 0.984 . S
N867 H871 0.985 . S
H868 N863 0.984 . S
H869 N863 0.985 . S
H870 N867 0.984 . S
H871 N867 0.985 . S
H872 N866 0.984 . S
H873 N866 0.984 . S
H874 N862 0.984 . S
H875 N862 0.985 . S
C876 C877 1.363 . S
C876 C882 1.379 1_545 S
C876 N884 1.356 . S
C877 C876 1.363 . S
C877 C883 1.363 . S
C878 C879 1.363 . S
C878 C883 1.379 1_565 S
C878 N885 1.356 . S
C879 C878 1.363 . S
C879 C882 1.363 . S
N880 C882 1.356 . S
N880 H892 0.984 . S
N880 H893 0.985 . S
N881 C883 1.356 . S
N881 H886 0.984 . S
N881 H887 0.985 . S
C882 C876 1.379 1_565 S
C882 C879 1.363 . S
C882 N880 1.356 . S
C883 C877 1.363 . S
C883 C878 1.379 1_545 S
C883 N881 1.356 . S
N884 C876 1.356 . S
N884 H890 0.984 . S
N884 H891 0.984 . S
N885 C878 1.356 . S
N885 H888 0.984 . S
N885 H889 0.985 . S
H886 N881 0.984 . S
H887 N881 0.985 . S
H888 N885 0.984 . S
H889 N885 0.985 . S
H890 N884 0.984 . S
H891 N884 0.984 . S
H892 N880 0.984 . S
H893 N880 0.985 . S
C894 C895 1.363 . S
C894 C900 1.379 1_565 S
C894 N902 1.356 . S
C895 C894 1.363 . S
C895 C901 1.363 . S
C896 C897 1.363 . S
C896 C901 1.379 1_545 S
C896 N903 1.356 . S
C897 C896 1.363 . S
C897 C900 1.363 . S
N898 C900 1.356 . S
N898 H910 0.984 . S
N898 H911 0.985 . S
N899 C901 1.356 . S
N899 H904 0.984 . S
N899 H905 0.985 . S
C900 C894 1.379 1_545 S
C900 C897 1.363 . S
C900 N898 1.356 . S
C901 C895 1.363 . S
C901 C896 1.379 1_565 S
C901 N899 1.356 . S
N902 C894 1.356 . S
N902 H908 0.984 . S
N902 H909 0.984 . S
N903 C896 1.356 . S
N903 H906 0.984 . S
N903 H907 0.985 . S
H904 N899 0.984 . S
H905 N899 0.985 . S
H906 N903 0.984 . S
H907 N903 0.985 . S
H908 N902 0.984 . S
H909 N902 0.984 . S
H910 N898 0.984 . S
H911 N898 0.985 . S
C265 C15 1.452 . S
C267 C164 1.475 . S
C283 C95 1.483 . S
C285 C30 1.501 . S
C301 C54 1.423 . S
C303 C120 1.425 . S
C319 C84 1.496 . S
C321 C147 1.476 . S
C337 C81 1.526 . S
C339 C205 1.527 . S
C355 C18 1.436 . S
C357 C238 1.436 . S
C373 C249 1.534 . S
C375 C29 1.531 . S
C391 C65 1.465 . S
C393 C184 1.487 . S
C409 C103 1.484 . S
C411 C10 1.507 . S
C427 C128 1.482 . S
C429 C43 1.463 . S
C445 C153 1.534 . S
C447 C59 1.536 . S
C463 C73 1.458 . S
C465 C172 1.476 . S
C481 C76 1.428 . S
C483 C186 1.426 . S
C499 C7 1.523 . S
C501 C213 1.523 . S
C517 C228 1.432 . S
C519 C40 1.433 . S
C535 C257 1.473 . S
C537 C52 1.495 . S
C553 C98 1.490 . S
C555 C169 1.470 . S
C571 C216 1.496 . S
C573 C191 1.477 . S
C589 C208 1.491 . S
C591 C227 1.468 . S
C607 C260 1.482 . S
C609 C241 1.463 . S
C625 C252 1.490 . S
C627 C197 1.469 . S
C643 C140 1.491 . S
C645 C125 1.469 . S
C661 C142 1.495 . S
C663 C161 1.478 . S
C679 C106 1.481 . S
C681 C117 1.464 . S
C697 C74 1.475 . S
C699 C8 1.475 . S
C715 C21 1.535 . S
C717 C37 1.535 . S
C733 C32 1.518 . S
C735 C51 1.515 . S
C751 C87 1.492 . S
C753 C62 1.495 . S
C769 C235 1.485 . S
C771 C96 1.488 . S
C787 C250 1.504 . S
C789 C131 1.501 . S
C805 C150 1.508 . S
C807 C183 1.505 . S
C823 C206 1.524 . S
C825 C175 1.521 . S
C841 C162 1.431 . S
C843 C118 1.431 . S
C859 C263 1.554 . S
C861 C219 1.553 . S
C877 C230 1.456 . S
C879 C194 1.456 . S
C895 C139 1.579 . S
C897 C109 1.580 . S
