# Generated by pormake.
# Topology wjd, (6)-cn, num edge types: 1
# Building blocks:
#     Node 0, Type 0, BuildingBlock: KUMBOL_clean_sbu_1, # of connection points: 6
#     Node 1, Type 0, BuildingBlock: KUMBOL_clean_sbu_1, # of connection points: 6
#     Node 2, Type 0, BuildingBlock: KUMBOL_clean_sbu_1, # of connection points: 6
#     Node 3, Type 0, BuildingBlock: KUMBOL_clean_sbu_1, # of connection points: 6
#     Node 4, Type 0, BuildingBlock: KUMBOL_clean_sbu_1, # of connection points: 6
#     Node 5, Type 0, BuildingBlock: KUMBOL_clean_sbu_1, # of connection points: 6
#     Node 6, Type 0, BuildingBlock: KUMBOL_clean_sbu_1, # of connection points: 6
#     Node 7, Type 0, BuildingBlock: KUMBOL_clean_sbu_1, # of connection points: 6
#     Node 8, Type 0, BuildingBlock: KUMBOL_clean_sbu_1, # of connection points: 6
#     Node 9, Type 0, BuildingBlock: KUMBOL_clean_sbu_1, # of connection points: 6
#     Node 10, Type 0, BuildingBlock: KUMBOL_clean_sbu_1, # of connection points: 6
#     Node 11, Type 0, BuildingBlock: KUMBOL_clean_sbu_1, # of connection points: 6
#     Edge 12, Type (0, 0), BuildingBlock: MIFKUJ_clean_linker_0, # of connection points: 2
#     Edge 13, Type (0, 0), BuildingBlock: MIFKUJ_clean_linker_0, # of connection points: 2
#     Edge 14, Type (0, 0), BuildingBlock: MIFKUJ_clean_linker_0, # of connection points: 2
#     Edge 15, Type (0, 0), BuildingBlock: MIFKUJ_clean_linker_0, # of connection points: 2
#     Edge 16, Type (0, 0), BuildingBlock: MIFKUJ_clean_linker_0, # of connection points: 2
#     Edge 17, Type (0, 0), BuildingBlock: MIFKUJ_clean_linker_0, # of connection points: 2
#     Edge 18, Type (0, 0), BuildingBlock: MIFKUJ_clean_linker_0, # of connection points: 2
#     Edge 19, Type (0, 0), BuildingBlock: MIFKUJ_clean_linker_0, # of connection points: 2
#     Edge 20, Type (0, 0), BuildingBlock: MIFKUJ_clean_linker_0, # of connection points: 2
#     Edge 21, Type (0, 0), BuildingBlock: MIFKUJ_clean_linker_0, # of connection points: 2
#     Edge 22, Type (0, 0), BuildingBlock: MIFKUJ_clean_linker_0, # of connection points: 2
#     Edge 23, Type (0, 0), BuildingBlock: MIFKUJ_clean_linker_0, # of connection points: 2
#     Edge 24, Type (0, 0), BuildingBlock: MIFKUJ_clean_linker_0, # of connection points: 2
#     Edge 25, Type (0, 0), BuildingBlock: MIFKUJ_clean_linker_0, # of connection points: 2
#     Edge 26, Type (0, 0), BuildingBlock: MIFKUJ_clean_linker_0, # of connection points: 2
#     Edge 27, Type (0, 0), BuildingBlock: MIFKUJ_clean_linker_0, # of connection points: 2
#     Edge 28, Type (0, 0), BuildingBlock: MIFKUJ_clean_linker_0, # of connection points: 2
#     Edge 29, Type (0, 0), BuildingBlock: MIFKUJ_clean_linker_0, # of connection points: 2
#     Edge 30, Type (0, 0), BuildingBlock: MIFKUJ_clean_linker_0, # of connection points: 2
#     Edge 31, Type (0, 0), BuildingBlock: MIFKUJ_clean_linker_0, # of connection points: 2
#     Edge 32, Type (0, 0), BuildingBlock: MIFKUJ_clean_linker_0, # of connection points: 2
#     Edge 33, Type (0, 0), BuildingBlock: MIFKUJ_clean_linker_0, # of connection points: 2
#     Edge 34, Type (0, 0), BuildingBlock: MIFKUJ_clean_linker_0, # of connection points: 2
#     Edge 35, Type (0, 0), BuildingBlock: MIFKUJ_clean_linker_0, # of connection points: 2
#     Edge 36, Type (0, 0), BuildingBlock: MIFKUJ_clean_linker_0, # of connection points: 2
#     Edge 37, Type (0, 0), BuildingBlock: MIFKUJ_clean_linker_0, # of connection points: 2
#     Edge 38, Type (0, 0), BuildingBlock: MIFKUJ_clean_linker_0, # of connection points: 2
#     Edge 39, Type (0, 0), BuildingBlock: MIFKUJ_clean_linker_0, # of connection points: 2
#     Edge 40, Type (0, 0), BuildingBlock: MIFKUJ_clean_linker_0, # of connection points: 2
#     Edge 41, Type (0, 0), BuildingBlock: MIFKUJ_clean_linker_0, # of connection points: 2
#     Edge 42, Type (0, 0), BuildingBlock: MIFKUJ_clean_linker_0, # of connection points: 2
#     Edge 43, Type (0, 0), BuildingBlock: MIFKUJ_clean_linker_0, # of connection points: 2
#     Edge 44, Type (0, 0), BuildingBlock: MIFKUJ_clean_linker_0, # of connection points: 2
#     Edge 45, Type (0, 0), BuildingBlock: MIFKUJ_clean_linker_0, # of connection points: 2
#     Edge 46, Type (0, 0), BuildingBlock: MIFKUJ_clean_linker_0, # of connection points: 2
#     Edge 47, Type (0, 0), BuildingBlock: MIFKUJ_clean_linker_0, # of connection points: 2
# Relax obj value: 0.072
# Max RMSD: 0.178
# Mean RMSD: 0.178
data_MOF--net-wjd--node1-KUMBOL_clean_sbu_1--edge1-MIFKUJ_clean_linker_0
_symmetry_space_group_name_H-M    P1
_symmetry_Int_Tables_number       1
_symmetry_cell_setting            triclinic
loop_
_symmetry_equiv_pos_as_xyz
'x, y, z'
_cell_length_a     48.46731
_cell_length_b     48.510009
_cell_length_c     69.841965
_cell_angle_alpha  90.066505
_cell_angle_beta   89.879175
_cell_angle_gamma 119.93276
loop_
_atom_site_label
_atom_site_type_symbol
_atom_site_fract_x
_atom_site_fract_y
_atom_site_fract_z
_atom_type_partial_charge
C0 C 0.33843 0.22125 0.0942 0.0
C1 C 0.33164 0.25507 0.11709 0.0
C2 C 0.34023 0.23187 0.11292 0.0
C3 C 0.32035 0.26658 0.1024 0.0
C4 C 0.32686 0.2326 0.07946 0.0
C5 C 0.31774 0.25522 0.08368 0.0
N6 N 0.34713 0.19913 0.0905 0.0
C7 C 0.34536 0.1877 0.07241 0.0
C8 C 0.32461 0.2207 0.0609 0.0
C9 C 0.33393 0.19819 0.05737 0.0
Gd10 Gd 0.3116 0.0982 0.14184 0.0
Gd11 Gd 0.36662 0.18369 0.1165 0.0
N12 N 0.35079 0.21991 0.12696 0.0
C13 C 0.33532 0.26656 0.13581 0.0
C14 C 0.3558 0.23227 0.14504 0.0
C15 C 0.34758 0.25523 0.14981 0.0
H16 H 0.36737 0.22582 0.15576 0.0
H17 H 0.35149 0.26477 0.16419 0.0
H18 H 0.33104 0.06727 0.10394 0.0
H19 H 0.35325 0.1709 0.06944 0.0
H20 H 0.36128 0.04011 0.098 0.0
H21 H 0.32973 0.2849 0.1395 0.0
H22 H 0.31379 0.28449 0.10532 0.0
H23 H 0.31344 0.10858 0.18925 0.0
H24 H 0.31579 0.2288 0.04921 0.0
H25 H 0.33253 0.18906 0.04305 0.0
H26 H 0.38608 0.01858 0.16061 0.0
H27 H 0.30885 0.26425 0.07254 0.0
H28 H 0.35929 0.06173 0.21458 0.0
H29 H 0.33313 0.09411 0.21794 0.0
N30 N 0.32941 0.08577 0.1699 0.0
C31 C 0.34295 0.06725 0.16772 0.0
C32 C 0.32562 0.09524 0.18763 0.0
C33 C 0.35086 0.06819 0.20194 0.0
C34 C 0.33631 0.08666 0.2039 0.0
C35 C 0.35443 0.05831 0.18371 0.0
H36 H 0.3785 0.03324 0.19311 0.0
N37 N 0.33661 0.06868 0.13409 0.0
C38 C 0.34675 0.05852 0.14932 0.0
C39 C 0.36799 0.03458 0.12786 0.0
C40 C 0.36275 0.04123 0.14657 0.0
C41 C 0.34048 0.061 0.1159 0.0
C42 C 0.35696 0.0447 0.1125 0.0
O43 O 0.31333 0.16362 0.11401 0.0
O44 O 0.29324 0.13288 0.14113 0.0
O45 O 0.26824 0.05384 0.13259 0.0
O46 O 0.27445 0.07146 0.16198 0.0
O47 O 0.37101 0.17966 0.14917 0.0
O48 O 0.32026 0.14177 0.15798 0.0
O49 O 0.36574 0.12158 0.1448 0.0
O50 O 0.37892 0.14518 0.11582 0.0
O51 O 0.41397 0.22255 0.12586 0.0
O52 O 0.40281 0.21078 0.09563 0.0
O53 O 0.30399 0.10091 0.11002 0.0
O54 O 0.35233 0.13982 0.0976 0.0
C55 C 0.29048 0.14863 0.12662 0.0
C56 C 0.34851 0.16549 0.16232 0.0
C57 C 0.22609 0.02224 0.15654 0.0
C58 C 0.17326 0.97617 0.1512 0.0
C59 C 0.1933 0.99171 0.18355 0.0
C60 C 0.22143 0.0168 0.17639 0.0
C61 C 0.16941 0.97149 0.17108 0.0
C62 C 0.20168 1.00183 0.14385 0.0
C63 C 0.2565 0.04956 0.14988 0.0
C64 C 0.37381 0.03194 0.16248 0.0
C65 C 0.36955 0.04033 0.181 0.0
H66 H 0.38067 0.02184 0.12511 0.0
C67 C 0.38708 0.13632 0.13136 0.0
C68 C 0.3237 0.1143 0.09551 0.0
C69 C 0.45629 0.25284 0.10192 0.0
C70 C 0.50645 0.30353 0.10518 0.0
C71 C 0.49853 0.26802 0.07847 0.0
C72 C 0.46828 0.24644 0.08521 0.0
C73 C 0.51742 0.29627 0.0883 0.0
C74 C 0.47547 0.28163 0.11194 0.0
C75 C 0.42365 0.22915 0.10817 0.0
H76 H 0.19003 0.98787 0.19884 0.0
H77 H 0.23965 0.03195 0.18652 0.0
H78 H 0.14768 0.95209 0.17698 0.0
H79 H 0.20478 0.00566 0.12852 0.0
H80 H 0.50738 0.26286 0.06551 0.0
H81 H 0.4542 0.2246 0.07728 0.0
H82 H 0.54068 0.31275 0.08249 0.0
H83 H 0.46648 0.28687 0.12484 0.0
C84 C 0.73613 0.66587 0.35587 0.0
C85 C 0.68744 0.64722 0.37427 0.0
C86 C 0.72093 0.66198 0.37341 0.0
C87 C 0.66959 0.63707 0.35731 0.0
C88 C 0.71822 0.65534 0.33884 0.0
C89 C 0.68493 0.64111 0.33966 0.0
N90 N 0.76833 0.67923 0.35549 0.0
C91 C 0.78417 0.68362 0.33859 0.0
C92 C 0.7343 0.6592 0.32149 0.0
C93 C 0.76744 0.67349 0.32137 0.0
Gd94 Gd 0.82658 0.64474 0.41329 0.0
Gd95 Gd 0.79417 0.69567 0.38507 0.0
N96 N 0.73876 0.67103 0.38969 0.0
C97 C 0.6728 0.64245 0.3922 0.0
C98 C 0.72453 0.66664 0.40716 0.0
C99 C 0.69144 0.6522 0.4087 0.0
H100 H 0.73833 0.67389 0.42 0.0
H101 H 0.68034 0.64855 0.42264 0.0
H102 H 0.86665 0.64141 0.37362 0.0
H103 H 0.80983 0.69591 0.33837 0.0
H104 H 0.92149 0.66712 0.36191 0.0
H105 H 0.64713 0.63107 0.39346 0.0
H106 H 0.64386 0.62572 0.35772 0.0
H107 H 0.83134 0.65762 0.46019 0.0
H108 H 0.72137 0.65139 0.30812 0.0
H109 H 0.78012 0.67697 0.30801 0.0
H110 H 0.98414 0.72385 0.41638 0.0
H111 H 0.67079 0.63292 0.32672 0.0
H112 H 0.92962 0.7136 0.47558 0.0
H113 H 0.87267 0.68625 0.48472 0.0
N114 N 0.8645 0.66904 0.43754 0.0
C115 C 0.89559 0.68307 0.4323 0.0
C116 C 0.85609 0.66967 0.45611 0.0
C117 C 0.91156 0.70104 0.4648 0.0
C118 C 0.87945 0.6857 0.47001 0.0
C119 C 0.92 0.69981 0.44576 0.0
H120 H 0.97102 0.72798 0.44991 0.0
N121 N 0.87861 0.66494 0.40068 0.0
C122 C 0.90286 0.68116 0.4133 0.0
C123 C 0.94159 0.69115 0.38851 0.0
C124 C 0.93496 0.69529 0.40744 0.0
C125 C 0.88518 0.65823 0.3828 0.0
C126 C 0.91659 0.67194 0.37627 0.0
O127 O 0.76249 0.64147 0.38423 0.0
O128 O 0.7746 0.62867 0.41314 0.0
O129 O 0.82527 0.59999 0.40601 0.0
O130 O 0.81729 0.60967 0.4354 0.0
O131 O 0.79727 0.70173 0.41722 0.0
O132 O 0.79707 0.65886 0.43271 0.0
O133 O 0.85294 0.69821 0.41701 0.0
O134 O 0.84694 0.71301 0.38709 0.0
O135 O 0.79752 0.74059 0.39509 0.0
O136 O 0.80347 0.73258 0.36491 0.0
O137 O 0.81592 0.63609 0.38089 0.0
O138 O 0.83029 0.68638 0.37116 0.0
C139 C 0.75706 0.62048 0.39776 0.0
C140 C 0.79362 0.68449 0.43265 0.0
C141 C 0.8153 0.55912 0.43004 0.0
C142 C 0.82203 0.51263 0.42594 0.0
C143 C 0.7957 0.5176 0.45426 0.0
C144 C 0.80003 0.54658 0.44762 0.0
C145 C 0.80664 0.50076 0.44353 0.0
C146 C 0.82624 0.54187 0.41908 0.0
C147 C 0.81968 0.59019 0.42365 0.0
C148 C 0.95939 0.71254 0.4207 0.0
C149 C 0.95192 0.71481 0.43981 0.0
H150 H 0.96591 0.70162 0.38344 0.0
C151 C 0.86294 0.71904 0.40314 0.0
C152 C 0.82395 0.65749 0.36715 0.0
C153 C 0.80879 0.78354 0.37188 0.0
C154 C 0.82163 0.83789 0.37909 0.0
C155 C 0.81921 0.82122 0.34609 0.0
C156 C 0.81148 0.79092 0.35223 0.0
C157 C 0.82447 0.84463 0.35942 0.0
C158 C 0.81348 0.80715 0.38539 0.0
C159 C 0.80338 0.75193 0.37768 0.0
H160 H 0.78385 0.50818 0.46781 0.0
H161 H 0.79128 0.55916 0.45628 0.0
H162 H 0.80314 0.47832 0.449 0.0
H163 H 0.83818 0.5512 0.40552 0.0
H164 H 0.82137 0.82663 0.33095 0.0
H165 H 0.80802 0.77336 0.34148 0.0
H166 H 0.8306 0.86813 0.35437 0.0
H167 H 0.81163 0.80199 0.40059 0.0
C168 C 0.79426 0.11497 0.09777 0.0
C169 C 0.76735 0.07452 0.12215 0.0
C170 C 0.78612 0.1068 0.11692 0.0
C171 C 0.75768 0.05075 0.1081 0.0
C172 C 0.78462 0.09113 0.08365 0.0
C173 C 0.76632 0.05902 0.08893 0.0
N174 N 0.8127 0.14622 0.09307 0.0
C175 C 0.82176 0.1553 0.07456 0.0
C176 C 0.79409 0.10025 0.06467 0.0
C177 C 0.81271 0.13246 0.06012 0.0
Gd178 Gd 0.91342 0.21821 0.14031 0.0
Gd179 Gd 0.82602 0.18247 0.11826 0.0
N180 N 0.79646 0.13031 0.13038 0.0
C181 C 0.7584 0.06704 0.14132 0.0
C182 C 0.78562 0.12311 0.14878 0.0
C183 C 0.76716 0.09146 0.15462 0.0
H184 H 0.78983 0.1414 0.15895 0.0
H185 H 0.75909 0.08597 0.16931 0.0
H186 H 0.95315 0.25947 0.10094 0.0
H187 H 0.83553 0.18017 0.07085 0.0
H188 H 0.98082 0.31493 0.08985 0.0
H189 H 0.7439 0.04254 0.14589 0.0
H190 H 0.74337 0.02586 0.11191 0.0
H191 H 0.90374 0.22011 0.18758 0.0
H192 H 0.7872 0.08261 0.05343 0.0
H193 H 0.81997 0.13973 0.04546 0.0
H194 H 0.99211 0.37493 0.14683 0.0
H195 H 0.75874 0.04038 0.07828 0.0
H196 H 0.94389 0.31739 0.20457 0.0
H197 H 0.91212 0.26006 0.21216 0.0
N198 N 0.92547 0.25428 0.16546 0.0
C199 C 0.94282 0.28565 0.16084 0.0
C200 C 0.91586 0.24498 0.18382 0.0
C201 C 0.93919 0.29994 0.1935 0.0
C202 C 0.92153 0.2676 0.19793 0.0
C203 C 0.95041 0.30934 0.17481 0.0
H204 H 0.97498 0.36 0.18026 0.0
N205 N 0.94354 0.2705 0.12866 0.0
C206 C 0.95208 0.29399 0.14191 0.0
C207 C 0.97981 0.33385 0.11758 0.0
C208 C 0.97013 0.32631 0.13666 0.0
C209 C 0.95553 0.27778 0.11056 0.0
C210 C 0.97263 0.30942 0.1045 0.0
O211 O 0.85163 0.15454 0.11431 0.0
O212 O 0.88173 0.16463 0.1414 0.0
O213 O 0.95607 0.21896 0.13001 0.0
O214 O 0.946 0.21508 0.16034 0.0
O215 O 0.83292 0.19315 0.15072 0.0
O216 O 0.87356 0.18387 0.15927 0.0
O217 O 0.88694 0.24598 0.14312 0.0
O218 O 0.85751 0.23532 0.1156 0.0
O219 O 0.78571 0.18672 0.12895 0.0
O220 O 0.78979 0.17926 0.09887 0.0
O221 O 0.90679 0.2061 0.10868 0.0
O222 O 0.86661 0.21483 0.09788 0.0
C223 C 0.8653 0.14581 0.12721 0.0
C224 C 0.84868 0.18655 0.16373 0.0
C225 C 0.97069 0.18749 0.14784 0.0
C226 C 0.00632 0.16667 0.14172 0.0
C227 C 0.95219 0.13128 0.15239 0.0
C228 C 0.94665 0.15687 0.15308 0.0
C229 C 0.98187 0.1361 0.14668 0.0
C230 C 1.0007 0.1924 0.14234 0.0
C231 C 0.96398 0.21385 0.14688 0.0
C232 C 0.97819 0.34999 0.15061 0.0
C233 C 0.96841 0.34151 0.16963 0.0
H234 H 0.9935 0.35837 0.11292 0.0
C235 C 0.87328 0.2542 0.12982 0.0
C236 C 0.8932 0.21388 0.09504 0.0
C237 C 0.75645 0.20035 0.10697 0.0
C238 C 0.708 0.20462 0.10779 0.0
C239 C 0.75225 0.23858 0.08667 0.0
C240 C 0.76962 0.22469 0.09327 0.0
C241 C 0.72172 0.22856 0.09371 0.0
C242 C 0.72568 0.19047 0.11429 0.0
C243 C 0.77279 0.18258 0.1121 0.0
H244 H 0.93349 0.10769 0.15634 0.0
H245 H 0.92362 0.15281 0.15763 0.0
H246 H 0.98597 0.11611 0.14644 0.0
H247 H 0.01941 0.21597 0.13826 0.0
H248 H 0.76231 0.25689 0.07579 0.0
H249 H 0.79301 0.23241 0.0873 0.0
H250 H 0.70866 0.2393 0.08783 0.0
H251 H 0.71553 0.17163 0.12486 0.0
C252 C 0.34952 0.0649 0.36831 0.0
C253 C 0.37117 0.04307 0.39119 0.0
C254 C 0.3534 0.05815 0.38715 0.0
C255 C 0.3847 0.03464 0.37609 0.0
C256 C 0.36374 0.05719 0.35317 0.0
C257 C 0.38105 0.04174 0.35714 0.0
N258 N 0.33339 0.08066 0.3649 0.0
C259 C 0.32968 0.08846 0.34675 0.0
C260 C 0.36113 0.06633 0.33456 0.0
C261 C 0.34431 0.08234 0.33144 0.0
Gd262 Gd 0.3641 0.18248 0.4125 0.0
Gd263 Gd 0.31356 0.09373 0.39179 0.0
N264 N 0.34126 0.06793 0.40154 0.0
C265 C 0.37547 0.03761 0.41033 0.0
C266 C 0.34371 0.06084 0.42008 0.0
C267 C 0.36167 0.04657 0.42482 0.0
H268 H 0.33146 0.06554 0.43121 0.0
H269 H 0.36467 0.04232 0.43967 0.0
H270 H 0.35411 0.21411 0.37127 0.0
H271 H 0.31541 0.09939 0.34407 0.0
H272 H 0.32883 0.24447 0.36121 0.0
H273 H 0.38924 0.02638 0.41406 0.0
H274 H 0.39846 0.02307 0.37894 0.0
H275 H 0.35691 0.17689 0.46034 0.0
H276 H 0.37229 0.06149 0.32256 0.0
H277 H 0.34283 0.09034 0.31732 0.0
H278 H 0.29237 0.26729 0.41966 0.0
H279 H 0.39214 0.03562 0.34569 0.0
H280 H 0.31069 0.22807 0.47832 0.0
H281 H 0.33502 0.19517 0.4861 0.0
N282 N 0.3441 0.19832 0.4381 0.0
C283 C 0.33123 0.21674 0.43347 0.0
C284 C 0.34573 0.19065 0.4567 0.0
C285 C 0.3201 0.21997 0.46691 0.0
C286 C 0.33368 0.20128 0.47136 0.0
C287 C 0.31873 0.22793 0.44781 0.0
H288 H 0.29496 0.25489 0.45348 0.0
N289 N 0.34067 0.21136 0.40058 0.0
C290 C 0.32934 0.22332 0.41423 0.0
C291 C 0.31462 0.24878 0.38976 0.0
C292 C 0.3155 0.24186 0.4091 0.0
C293 C 0.34181 0.21997 0.38186 0.0
C294 C 0.32823 0.23814 0.37612 0.0
O295 O 0.368 0.12035 0.38934 0.0
O296 O 0.38355 0.14987 0.41667 0.0
O297 O 0.40913 0.22007 0.40048 0.0
O298 O 0.39808 0.22097 0.4303 0.0
O299 O 0.30727 0.10141 0.42311 0.0
O300 O 0.35537 0.14282 0.43387 0.0
O301 O 0.31052 0.15782 0.41565 0.0
O302 O 0.29017 0.1242 0.38975 0.0
O303 O 0.2735 0.05206 0.40462 0.0
O304 O 0.27739 0.05694 0.37388 0.0
O305 O 0.36741 0.17415 0.38017 0.0
O306 O 0.31778 0.13247 0.37238 0.0
C307 C 0.38991 0.13693 0.40219 0.0
C308 C 0.32781 0.11637 0.43693 0.0
C309 C 0.45256 0.25064 0.42186 0.0
C310 C 0.50618 0.29776 0.42102 0.0
C311 C 0.49423 0.25309 0.44215 0.0
C312 C 0.46279 0.2371 0.43587 0.0
C313 C 0.51565 0.28317 0.43497 0.0
C314 C 0.47436 0.28092 0.41439 0.0
C315 C 0.41853 0.23535 0.41666 0.0
C316 C 0.30318 0.25313 0.42338 0.0
C317 C 0.30475 0.24616 0.44266 0.0
H318 H 0.30424 0.26298 0.38526 0.0
C319 C 0.28779 0.14204 0.40317 0.0
C320 C 0.3451 0.15713 0.36739 0.0
C321 C 0.2259 0.03264 0.38718 0.0
C322 C 0.16952 0.9961 0.39334 0.0
C323 C 0.18674 0.04833 0.37978 0.0
C324 C 0.2182 0.05488 0.37992 0.0
C325 C 0.16253 0.0192 0.38655 0.0
C326 C 0.20142 1.00299 0.39369 0.0
C327 C 0.25948 0.04082 0.38825 0.0
H328 H 0.50184 0.24253 0.45308 0.0
H329 H 0.44621 0.2146 0.44242 0.0
H330 H 0.53941 0.29533 0.44093 0.0
H331 H 0.46626 0.29147 0.40373 0.0
H332 H 0.18108 0.06573 0.37421 0.0
H333 H 0.23664 0.0772 0.37423 0.0
H334 H 0.13816 0.01433 0.38596 0.0
H335 H 0.20714 0.98547 0.39905 0.0
C336 C 0.89054 0.67415 0.09561 0.0
C337 C 0.93006 0.68127 0.11934 0.0
C338 C 0.89829 0.67172 0.11446 0.0
C339 C 0.9539 0.6942 0.10523 0.0
C340 C 0.9144 0.68707 0.08141 0.0
C341 C 0.94611 0.69718 0.08634 0.0
N342 N 0.85974 0.66468 0.09128 0.0
C343 C 0.85099 0.66671 0.07302 0.0
C344 C 0.90568 0.68961 0.06267 0.0
C345 C 0.87382 0.6793 0.05846 0.0
Gd346 Gd 0.79293 0.70021 0.14088 0.0
Gd347 Gd 0.82327 0.64414 0.11658 0.0
N348 N 0.87483 0.66002 0.12798 0.0
C349 C 0.93694 0.67736 0.13825 0.0
C350 C 0.88119 0.65436 0.14613 0.0
C351 C 0.91232 0.66347 0.15163 0.0
H352 H 0.86246 0.64185 0.15638 0.0
H353 H 0.91721 0.6593 0.16612 0.0
H354 H 0.76032 0.71425 0.10192 0.0
H355 H 0.82634 0.65831 0.06959 0.0
H356 H 0.70701 0.69706 0.08912 0.0
H357 H 0.96102 0.68435 0.14256 0.0
H358 H 0.97845 0.70189 0.10878 0.0
H359 H 0.78332 0.67798 0.18678 0.0
H360 H 0.92332 0.69942 0.05136 0.0
H361 H 0.86682 0.68096 0.04399 0.0
H362 H 0.63711 0.63977 0.14112 0.0
H363 H 0.96478 0.70723 0.07563 0.0
H364 H 0.68382 0.63245 0.19992 0.0
H365 H 0.739 0.64988 0.20982 0.0
N366 N 0.75304 0.67469 0.16392 0.0
C367 C 0.72295 0.66601 0.15825 0.0
C368 C 0.75918 0.66971 0.18225 0.0
C369 C 0.70308 0.6445 0.18972 0.0
C370 C 0.73424 0.65423 0.19536 0.0
C371 C 0.69709 0.65043 0.17101 0.0
H372 H 0.64596 0.62861 0.17418 0.0
N373 N 0.74344 0.68703 0.12743 0.0
C374 C 0.71796 0.67179 0.13941 0.0
C375 C 0.68295 0.67094 0.11454 0.0
C376 C 0.68696 0.66285 0.13314 0.0
C377 C 0.73992 0.69777 0.11008 0.0
C378 C 0.70964 0.68906 0.1031 0.0
O379 O 0.85644 0.69726 0.11399 0.0
O380 O 0.84597 0.71859 0.1407 0.0
O381 O 0.79945 0.74774 0.13495 0.0
O382 O 0.7996 0.73197 0.16426 0.0
O383 O 0.81302 0.63942 0.14901 0.0
O384 O 0.82577 0.69005 0.15821 0.0
O385 O 0.76134 0.64594 0.14366 0.0
O386 O 0.77241 0.6318 0.11506 0.0
O387 O 0.81575 0.59747 0.12607 0.0
O388 O 0.81449 0.60776 0.0957 0.0
O389 O 0.80565 0.70736 0.10924 0.0
O390 O 0.79382 0.65803 0.09735 0.0
C391 C 0.86418 0.72045 0.12625 0.0
C392 C 0.82112 0.66166 0.16226 0.0
C393 C 0.80726 0.78499 0.16115 0.0
C394 C 0.82206 0.84093 0.1579 0.0
C395 C 0.81185 0.81634 0.18937 0.0
C396 C 0.80549 0.78767 0.1811 0.0
C397 C 0.82018 0.8428 0.17791 0.0
C398 C 0.8152 0.81171 0.14948 0.0
C399 C 0.8022 0.75459 0.15314 0.0
C400 C 0.66109 0.64698 0.14575 0.0
C401 C 0.66615 0.64079 0.16462 0.0
H402 H 0.65953 0.66453 0.10919 0.0
C403 C 0.75461 0.62441 0.13028 0.0
C404 C 0.79731 0.68675 0.09506 0.0
C405 C 0.80499 0.55499 0.10285 0.0
C406 C 0.80972 0.50738 0.10675 0.0
C407 C 0.77789 0.51045 0.08093 0.0
C408 C 0.7854 0.54085 0.08686 0.0
C409 C 0.78995 0.49381 0.09078 0.0
C410 C 0.81716 0.53807 0.1129 0.0
C411 C 0.81255 0.58742 0.10847 0.0
H412 H 0.81041 0.81809 0.20475 0.0
H413 H 0.79931 0.76756 0.19041 0.0
H414 H 0.82483 0.86479 0.18471 0.0
H415 H 0.81683 0.81007 0.13408 0.0
H416 H 0.76273 0.49978 0.06861 0.0
H417 H 0.7757 0.55328 0.07896 0.0
H418 H 0.784 0.47028 0.08586 0.0
H419 H 0.83251 0.54875 0.12519 0.0
C420 C 0.94151 0.2826 0.36827 0.0
C421 C 0.97078 0.32431 0.3916 0.0
C422 C 0.95229 0.29176 0.38698 0.0
C423 C 0.97762 0.34735 0.3774 0.0
C424 C 0.94858 0.30566 0.35397 0.0
C425 C 0.96656 0.33807 0.35866 0.0
N426 N 0.92334 0.25107 0.3642 0.0
C427 C 0.91325 0.2409 0.34601 0.0
C428 C 0.93728 0.29544 0.33537 0.0
C429 C 0.91974 0.26291 0.33135 0.0
Gd430 Gd 0.82704 0.18467 0.41438 0.0
Gd431 Gd 0.91351 0.21636 0.38974 0.0
N432 N 0.94476 0.26892 0.4006 0.0
C433 C 0.98215 0.33275 0.41032 0.0
C434 C 0.95764 0.27704 0.41845 0.0
C435 C 0.9759 0.309 0.42372 0.0
H436 H 0.95503 0.25913 0.42845 0.0
H437 H 0.98562 0.31531 0.43802 0.0
H438 H 0.7805 0.14728 0.37652 0.0
H439 H 0.90055 0.21581 0.34276 0.0
H440 H 0.73692 0.09386 0.36839 0.0
H441 H 0.99645 0.3575 0.41444 0.0
H442 H 0.99166 0.37246 0.38075 0.0
H443 H 0.8464 0.18031 0.46076 0.0
H444 H 0.94223 0.31245 0.32398 0.0
H445 H 0.91137 0.25478 0.31696 0.0
H446 H 0.71982 0.03338 0.42584 0.0
H447 H 0.97215 0.35616 0.34788 0.0
H448 H 0.78661 0.08503 0.47976 0.0
H449 H 0.8299 0.13994 0.48584 0.0
N450 N 0.81526 0.14822 0.43956 0.0
C451 C 0.79039 0.11841 0.43619 0.0
C452 C 0.82881 0.15622 0.45732 0.0
C453 C 0.79434 0.10253 0.4684 0.0
C454 C 0.81893 0.13345 0.47185 0.0
C455 C 0.7795 0.09474 0.4505 0.0
H456 H 0.74542 0.04572 0.45745 0.0
N457 N 0.78698 0.13435 0.40457 0.0
C458 C 0.77556 0.11144 0.41834 0.0
C459 C 0.7363 0.07431 0.39616 0.0
C460 C 0.75003 0.08068 0.41441 0.0
C461 C 0.77292 0.1286 0.38699 0.0
C462 C 0.74774 0.09841 0.38243 0.0
O463 O 0.88687 0.24398 0.38705 0.0
O464 O 0.86401 0.23643 0.41639 0.0
O465 O 0.78919 0.19595 0.40681 0.0
O466 O 0.79748 0.18701 0.43635 0.0
O467 O 0.90986 0.20419 0.42108 0.0
O468 O 0.87063 0.2129 0.43363 0.0
O469 O 0.83766 0.14594 0.40554 0.0
O470 O 0.89222 0.16686 0.40207 0.0
O471 O 0.96168 0.22504 0.39436 0.0
O472 O 0.9363 0.20291 0.36764 0.0
O473 O 0.83205 0.19425 0.382 0.0
O474 O 0.8703 0.18138 0.373 0.0
C475 C 0.8762 0.2539 0.40117 0.0
C476 C 0.89657 0.21058 0.43551 0.0
C477 C 0.75421 0.19728 0.43245 0.0
C478 C 0.70231 0.19414 0.42985 0.0
C479 C 0.72825 0.20304 0.4608 0.0
C480 C 0.75396 0.20261 0.45225 0.0
C481 C 0.70246 0.19845 0.44978 0.0
C482 C 0.72821 0.19315 0.42117 0.0
C483 C 0.78004 0.19258 0.42468 0.0
C484 C 0.73936 0.05714 0.42863 0.0
C485 C 0.75401 0.06415 0.44661 0.0
H486 H 0.71677 0.05093 0.39257 0.0
C487 C 0.86313 0.14288 0.40457 0.0
C488 C 0.84553 0.18466 0.36904 0.0
C489 C 0.98977 0.21088 0.37099 0.0
C490 C 0.03282 0.19949 0.37634 0.0
C491 C 0.02259 0.21205 0.3444 0.0
C492 C 0.99741 0.21525 0.35145 0.0
C493 C 0.04001 0.20397 0.35671 0.0
C494 C 0.00792 0.20349 0.38359 0.0
C495 C 0.96209 0.21286 0.37782 0.0
H496 H 0.72823 0.20674 0.47608 0.0
H497 H 0.77346 0.20583 0.46131 0.0
H498 H 0.68264 0.19866 0.45684 0.0
H499 H 0.72794 0.18887 0.40592 0.0
H500 H 0.02834 0.21544 0.3293 0.0
H501 H 0.98384 0.22109 0.34161 0.0
H502 H 0.05907 0.20095 0.35089 0.0
H503 H 1.002 0.19973 0.39869 0.0
C504 C 0.06291 0.34132 0.66022 0.0
C505 C 0.03174 0.34938 0.63603 0.0
C506 C 0.05272 0.33847 0.64131 0.0
C507 C 0.02169 0.36361 0.64982 0.0
C508 C 0.05282 0.35551 0.6741 0.0
C509 C 0.03218 0.36665 0.66879 0.0
N510 N 0.08364 0.3312 0.66487 0.0
C511 C 0.09398 0.33311 0.68322 0.0
C512 C 0.06399 0.3583 0.69289 0.0
C513 C 0.08453 0.34689 0.69748 0.0
Gd514 Gd 0.1845 0.36416 0.61666 0.0
Gd515 Gd 0.09783 0.30833 0.64005 0.0
N516 N 0.06316 0.32495 0.62816 0.0
C517 C 0.02139 0.34561 0.61702 0.0
C518 C 0.05045 0.31829 0.61022 0.0
C519 C 0.03064 0.32977 0.60411 0.0
H520 H 0.05438 0.30315 0.60076 0.0
H521 H 0.02199 0.32577 0.58954 0.0
H522 H 0.21987 0.35305 0.6556 0.0
H523 H 0.109 0.32339 0.68691 0.0
H524 H 0.25369 0.33026 0.66291 0.0
H525 H 1.00556 0.35397 0.61232 0.0
H526 H 1.0057 0.37225 0.64597 0.0
H527 H 0.17539 0.35956 0.56915 0.0
H528 H 0.05675 0.36905 0.70397 0.0
H529 H 0.09293 0.34852 0.71201 0.0
H530 H 0.27554 0.30059 0.60168 0.0
H531 H 0.02422 0.37769 0.67925 0.0
H532 H 0.22944 0.31939 0.54613 0.0
H533 H 0.19367 0.34146 0.54135 0.0
N534 N 0.19965 0.34676 0.58948 0.0
C535 C 0.21965 0.33512 0.59245 0.0
C536 C 0.19043 0.34931 0.57144 0.0
C537 C 0.22129 0.32705 0.55841 0.0
C538 C 0.201 0.33939 0.55565 0.0
C539 C 0.23089 0.32479 0.57696 0.0
H540 H 0.25994 0.3043 0.56873 0.0
N541 N 0.21655 0.34255 0.62581 0.0
C542 C 0.22833 0.33293 0.61112 0.0
C543 C 0.25729 0.31897 0.63353 0.0
C544 C 0.24867 0.32051 0.61463 0.0
C545 C 0.22635 0.34267 0.64413 0.0
C546 C 0.24632 0.33039 0.64831 0.0
O547 O 0.12062 0.36225 0.64412 0.0
O548 O 0.148 0.3794 0.61615 0.0
O549 O 0.2264 0.4068 0.62745 0.0
O550 O 0.21251 0.40437 0.59795 0.0
O551 O 0.10331 0.30303 0.60816 0.0
O552 O 0.14171 0.35292 0.59754 0.0
O553 O 0.16267 0.31098 0.61231 0.0
O554 O 0.13249 0.2899 0.6394 0.0
O555 O 0.05628 0.26214 0.63244 0.0
O556 O 0.07169 0.27441 0.66221 0.0
O557 O 0.17911 0.36755 0.64929 0.0
O558 O 0.14038 0.31673 0.6572 0.0
C559 C 0.13652 0.38498 0.6316 0.0
C560 C 0.11653 0.32448 0.5945 0.0
C561 C 0.26786 0.43284 0.60455 0.0
C562 C 0.32424 0.47365 0.60596 0.0
C563 C 0.30637 0.42956 0.58368 0.0
C564 C 0.27515 0.41758 0.58991 0.0
C565 C 0.33074 0.45744 0.59157 0.0
C566 C 0.29271 0.46095 0.61272 0.0
C567 C 0.23436 0.42022 0.61068 0.0
C568 C 0.25992 0.31021 0.59923 0.0
C569 C 0.25108 0.31237 0.58045 0.0
H570 H 0.27289 0.30962 0.63681 0.0
C571 C 0.14784 0.28755 0.62453 0.0
C572 C 0.16378 0.3448 0.66211 0.0
C573 C 0.02537 0.22286 0.65738 0.0
C574 C 0.98449 0.16761 0.65229 0.0
C575 C 0.99593 0.18961 0.68443 0.0
C576 C 0.01915 0.21878 0.67716 0.0
C577 C 0.97881 0.16411 0.67211 0.0
C578 C 0.00754 0.19723 0.64485 0.0
C579 C 0.05147 0.2535 0.65037 0.0
H580 H 0.3116 0.41748 0.57243 0.0
H581 H 0.25673 0.3967 0.58292 0.0
H582 H 0.35478 0.46663 0.58626 0.0
H583 H 0.28742 0.47339 0.62374 0.0
H584 H 0.99135 0.1867 0.69968 0.0
H585 H 0.0324 0.23812 0.6871 0.0
H586 H 0.96093 0.14155 0.67807 0.0
H587 H 0.01216 0.19993 0.62958 0.0
C588 C 0.1301 0.78942 0.94006 0.0
C589 C 0.08637 0.75426 0.91939 0.0
C590 C 0.11837 0.77824 0.92181 0.0
C591 C 0.0666 0.74153 0.93548 0.0
C592 C 0.10999 0.77735 0.95618 0.0
C593 C 0.07821 0.75333 0.95379 0.0
N594 N 0.16127 0.81193 0.94206 0.0
C595 C 0.17386 0.82341 0.95969 0.0
C596 C 0.12261 0.78939 0.97429 0.0
C597 C 0.15468 0.81254 0.97604 0.0
Gd598 Gd 0.21456 0.90974 0.88894 0.0
Gd599 Gd 0.19175 0.82697 0.91402 0.0
N600 N 0.1383 0.79067 0.90649 0.0
C601 C 0.07531 0.74335 0.90088 0.0
C602 C 0.12791 0.7791 0.88853 0.0
C603 C 0.0962 0.75579 0.8854 0.0
H604 H 0.14393 0.78681 0.87655 0.0
H605 H 0.08808 0.74692 0.87109 0.0
H606 H 0.25543 0.9578 0.92577 0.0
H607 H 0.19887 0.84045 0.96127 0.0
H608 H 0.31136 0.99358 0.93479 0.0
H609 H 0.05085 0.725 0.89843 0.0
H610 H 0.04238 0.72225 0.93395 0.0
H611 H 0.21357 0.89821 0.84175 0.0
H612 H 0.1079 0.78073 0.98701 0.0
H613 H 0.16474 0.82169 0.99 0.0
H614 H 0.36964 1.00203 0.87732 0.0
H615 H 0.06251 0.7434 0.96602 0.0
H616 H 0.30973 0.94792 0.82132 0.0
H617 H 0.25218 0.91244 0.81524 0.0
N618 N 0.24896 0.92427 0.86259 0.0
C619 C 0.28029 0.94469 0.86613 0.0
C620 C 0.23865 0.91319 0.84456 0.0
C621 C 0.29288 0.94161 0.833 0.0
C622 C 0.26043 0.92151 0.82951 0.0
C623 C 0.30317 0.95361 0.85147 0.0
H624 H 0.35346 0.98106 0.84466 0.0
N625 N 0.26665 0.94672 0.8985 0.0
C626 C 0.28942 0.95603 0.88467 0.0
C627 C 0.32971 0.99004 0.90732 0.0
C628 C 0.32168 0.97737 0.88883 0.0
C629 C 0.27396 0.96139 0.91589 0.0
C630 C 0.30563 0.98258 0.92078 0.0
O631 O 0.15627 0.8444 0.91748 0.0
O632 O 0.16284 0.87143 0.88943 0.0
O633 O 0.20625 0.94856 0.89799 0.0
O634 O 0.20292 0.93458 0.86786 0.0
O635 O 0.19884 0.83041 0.88121 0.0
O636 O 0.18255 0.86569 0.87223 0.0
O637 O 0.24773 0.88922 0.88521 0.0
O638 O 0.2427 0.86606 0.91427 0.0
O639 O 0.19777 0.78812 0.903 0.0
O640 O 0.2058 0.80064 0.93289 0.0
O641 O 0.20552 0.90569 0.92109 0.0
O642 O 0.22231 0.87149 0.93186 0.0
C643 C 0.14567 0.85624 0.90443 0.0
C644 C 0.18926 0.84333 0.86799 0.0
C645 C 0.19098 0.97626 0.87446 0.0
C646 C 0.18545 0.02275 0.88045 0.0
C647 C 0.16629 0.99354 0.85067 0.0
C648 C 0.17633 0.97256 0.85654 0.0
C649 C 0.17086 0.01854 0.86253 0.0
C650 C 0.19539 1.00146 0.88654 0.0
C651 C 0.20017 0.95284 0.88042 0.0
C652 C 0.34469 0.98591 0.87433 0.0
C653 C 0.33546 0.97406 0.85571 0.0
H654 H 0.35422 0.00657 0.9111 0.0
C655 C 0.25885 0.87859 0.89865 0.0
C656 C 0.21687 0.89533 0.93467 0.0
C657 C 0.18387 0.74603 0.92513 0.0
C658 C 0.17134 0.69083 0.92129 0.0
C659 C 0.14288 0.70415 0.94476 0.0
C660 C 0.16074 0.73612 0.93968 0.0
C661 C 0.14813 0.68162 0.93566 0.0
C662 C 0.18914 0.72311 0.91592 0.0
C663 C 0.20284 0.78014 0.91987 0.0
H664 H 0.15496 0.99043 0.83688 0.0
H665 H 0.17229 0.95317 0.84709 0.0
H666 H 0.1631 0.03479 0.85767 0.0
H667 H 0.20663 0.00466 0.9004 0.0
H668 H 0.12511 0.69685 0.95596 0.0
H669 H 0.15666 0.75305 0.94737 0.0
H670 H 0.13423 0.6569 0.93994 0.0
H671 H 0.20711 0.73035 0.90482 0.0
C672 C 0.66871 0.73408 0.67205 0.0
C673 C 0.6517 0.68677 0.65261 0.0
C674 C 0.66627 0.7201 0.65424 0.0
C675 C 0.63972 0.66774 0.66905 0.0
C676 C 0.65682 0.71504 0.68858 0.0
C677 C 0.64229 0.68183 0.68697 0.0
N678 N 0.68232 0.76625 0.67315 0.0
C679 C 0.68615 0.78097 0.6904 0.0
C680 C 0.65989 0.72996 0.70626 0.0
C681 C 0.67485 0.76308 0.70718 0.0
Gd682 Gd 0.64792 0.82497 0.61643 0.0
Gd683 Gd 0.70058 0.79395 0.64422 0.0
N684 N 0.67726 0.73909 0.63846 0.0
C685 C 0.64949 0.67351 0.63448 0.0
C686 C 0.67611 0.72634 0.62088 0.0
C687 C 0.66196 0.69342 0.61858 0.0
H688 H 0.68626 0.74129 0.60861 0.0
H689 H 0.66084 0.68343 0.60454 0.0
H690 H 0.65335 0.86856 0.65615 0.0
H691 H 0.69844 0.80662 0.69124 0.0
H692 H 0.67702 0.92447 0.66515 0.0
H693 H 0.63847 0.648 0.63263 0.0
H694 H 0.62841 0.64208 0.66805 0.0
H695 H 0.65851 0.82451 0.56924 0.0
H696 H 0.65107 0.71614 0.71929 0.0
H697 H 0.67776 0.77487 0.72081 0.0
H698 H 0.71589 0.98082 0.60602 0.0
H699 H 0.63296 0.66681 0.69952 0.0
H700 H 0.70239 0.92046 0.54901 0.0
H701 H 0.68045 0.86308 0.54265 0.0
N702 N 0.66854 0.85974 0.59041 0.0
C703 C 0.68009 0.89107 0.59422 0.0
C704 C 0.66846 0.84952 0.57219 0.0
C705 C 0.69282 0.90363 0.56073 0.0
C706 C 0.6806 0.87128 0.55709 0.0
C707 C 0.69278 0.91392 0.57946 0.0
H708 H 0.71555 0.96416 0.57273 0.0
N709 N 0.66894 0.87788 0.62715 0.0
C710 C 0.68063 0.90045 0.61312 0.0
C711 C 0.69286 0.94166 0.63656 0.0
C712 C 0.69338 0.93297 0.61753 0.0
C713 C 0.66625 0.88619 0.64545 0.0
C714 C 0.67881 0.91811 0.65052 0.0
O715 O 0.64637 0.76185 0.64446 0.0
O716 O 0.63231 0.77312 0.61554 0.0
O717 O 0.60362 0.82435 0.62472 0.0
O718 O 0.61195 0.81581 0.59516 0.0
O719 O 0.70816 0.80065 0.61222 0.0
O720 O 0.66229 0.795 0.59775 0.0
O721 O 0.70142 0.85472 0.61337 0.0
O722 O 0.71776 0.84652 0.64239 0.0
O723 O 0.74518 0.79525 0.63529 0.0
O724 O 0.73709 0.80441 0.66484 0.0
O725 O 0.6392 0.81371 0.64868 0.0
O726 O 0.68959 0.82847 0.65875 0.0
C727 C 0.62559 0.75487 0.63057 0.0
C728 C 0.68951 0.79448 0.59719 0.0
C729 C 0.56246 0.81576 0.60092 0.0
C730 C 0.5162 0.82291 0.60552 0.0
C731 C 0.52453 0.80392 0.57508 0.0
C732 C 0.55201 0.80525 0.58215 0.0
C733 C 0.50688 0.8129 0.58659 0.0
C734 C 0.54426 0.82456 0.61272 0.0
C735 C 0.59343 0.81939 0.60712 0.0
C736 C 0.70593 0.95576 0.60285 0.0
C737 C 0.70562 0.94627 0.58388 0.0
H738 H 0.70239 0.96637 0.64053 0.0
C739 C 0.72344 0.86291 0.6265 0.0
C740 C 0.66023 0.82097 0.66255 0.0
C741 C 0.78723 0.80683 0.65933 0.0
C742 C 0.83895 0.81093 0.65386 0.0
C743 C 0.82278 0.81542 0.68607 0.0
C744 C 0.7941 0.81122 0.67905 0.0
C745 C 0.84502 0.81516 0.67359 0.0
C746 C 0.81003 0.80699 0.64662 0.0
C747 C 0.75612 0.80202 0.65275 0.0
H748 H 0.51693 0.79597 0.56056 0.0
H749 H 0.56536 0.79841 0.57273 0.0
H750 H 0.48557 0.81166 0.58078 0.0
H751 H 0.55189 0.83283 0.6272 0.0
H752 H 0.82775 0.8188 0.70126 0.0
H753 H 0.77722 0.81132 0.6892 0.0
H754 H 0.86722 0.81849 0.67936 0.0
H755 H 0.80526 0.80375 0.63139 0.0
C756 C 0.2158 0.3304 0.93619 0.0
C757 C 0.24532 0.31798 0.913 0.0
C758 C 0.22525 0.33044 0.91738 0.0
C759 C 0.25487 0.3047 0.92762 0.0
C760 C 0.22568 0.31749 0.95094 0.0
C761 C 0.24507 0.30445 0.94653 0.0
N762 N 0.19691 0.34307 0.94003 0.0
C763 C 0.18752 0.34417 0.9583 0.0
C764 C 0.21584 0.3182 0.96971 0.0
C765 C 0.19677 0.3317 0.9734 0.0
Gd766 Gd 0.09608 0.30941 0.88975 0.0
Gd767 Gd 0.18202 0.36288 0.9139 0.0
N768 N 0.21519 0.34305 0.90347 0.0
C769 C 0.25567 0.31974 0.89411 0.0
C770 C 0.22711 0.3468 0.88533 0.0
C771 C 0.24693 0.33467 0.88029 0.0
H772 H 0.22242 0.35992 0.8747 0.0
H773 H 0.25582 0.33727 0.86579 0.0
H774 H 0.05102 0.30018 0.92923 0.0
H775 H 0.17314 0.35496 0.96128 0.0
H776 H 0.01904 0.32244 0.94203 0.0
H777 H 0.27112 0.31047 0.89016 0.0
H778 H 0.27013 0.29487 0.92447 0.0
H779 H 0.10901 0.33016 0.84362 0.0
H780 H 0.22298 0.30857 0.98145 0.0
H781 H 0.18927 0.33258 0.98789 0.0
H782 H 0.00845 0.37873 0.88903 0.0
H783 H 0.25284 0.29434 0.95767 0.0
H784 H 0.06036 0.38099 0.83021 0.0
H785 H 0.09531 0.36006 0.82042 0.0
N786 N 0.08353 0.33607 0.86649 0.0
C787 C 0.06374 0.34689 0.87213 0.0
C788 C 0.09436 0.33995 0.8481 0.0
C789 C 0.0665 0.36822 0.84049 0.0
C790 C 0.08632 0.35643 0.83491 0.0
C791 C 0.05486 0.36345 0.85926 0.0
H792 H 0.02812 0.38799 0.8559 0.0
N793 N 0.06243 0.32636 0.90321 0.0
C794 C 0.05344 0.34245 0.89108 0.0
C795 C 0.02176 0.34748 0.91612 0.0
C796 C 0.03316 0.35374 0.89731 0.0
C797 C 0.04848 0.31728 0.9208 0.0
C798 C 0.02904 0.32871 0.9278 0.0
O799 O 0.15931 0.3097 0.91755 0.0
O800 O 0.12968 0.28951 0.89012 0.0
O801 O 0.05386 0.26348 0.89628 0.0
O802 O 0.06937 0.2776 0.86665 0.0
O803 O 0.17747 0.36644 0.88112 0.0
O804 O 0.13785 0.31642 0.87221 0.0
O805 O 0.12138 0.36349 0.88616 0.0
O806 O 0.1444 0.37632 0.9152 0.0
O807 O 0.22052 0.40806 0.9032 0.0
O808 O 0.21133 0.40119 0.93351 0.0
O809 O 0.10061 0.30188 0.92147 0.0
O810 O 0.13913 0.35077 0.93328 0.0
C811 C 0.14564 0.28734 0.90467 0.0
C812 C 0.16266 0.34402 0.868 0.0
C813 C 0.02225 0.22613 0.87094 0.0
C814 C 0.98 0.17146 0.87581 0.0
C815 C 0.99184 0.19395 0.84383 0.0
C816 C 0.01583 0.22266 0.85119 0.0
C817 C 0.97409 0.16841 0.85604 0.0
C818 C 1.00396 0.20043 0.88332 0.0
C819 C 0.04891 0.2561 0.87818 0.0
C820 C 0.02423 0.37019 0.88451 0.0
C821 C 0.03517 0.37517 0.86558 0.0
H822 H 0.00631 0.35592 0.9215 0.0
C823 C 0.13562 0.38459 0.89972 0.0
C824 C 0.11365 0.32225 0.93571 0.0
C825 C 0.26504 0.43295 0.9238 0.0
C826 C 0.32 0.47644 0.92115 0.0
C827 C 0.30817 0.42793 0.93788 0.0
C828 C 0.27586 0.41538 0.93417 0.0
C829 C 0.33012 0.45832 0.9315 0.0
C830 C 0.28736 0.46359 0.91712 0.0
C831 C 0.23061 0.41951 0.92023 0.0
H832 H 0.98718 0.19143 0.82859 0.0
H833 H 0.02949 0.2421 0.84139 0.0
H834 H 0.95574 0.14614 0.85008 0.0
H835 H 0.00876 0.20262 0.89857 0.0
H836 H 0.31618 0.41418 0.94592 0.0
H837 H 0.25937 0.3921 0.93968 0.0
H838 H 0.35512 0.46785 0.93474 0.0
H839 H 0.27938 0.47755 0.90923 0.0
C840 C 0.28406 0.94901 0.66071 0.0
C841 C 0.32152 0.9841 0.63684 0.0
C842 C 0.2903 0.96096 0.64214 0.0
C843 C 0.3464 0.99398 0.65014 0.0
C844 C 0.30894 0.959 0.67412 0.0
C845 C 0.34014 0.9814 0.6687 0.0
N846 N 0.25372 0.92692 0.6655 0.0
C847 C 0.24633 0.91506 0.68363 0.0
C848 C 0.30175 0.94591 0.69254 0.0
C849 C 0.27032 0.9239 0.6973 0.0
Gd850 Gd 0.18585 0.82555 0.61696 0.0
Gd851 Gd 0.21588 0.91173 0.64113 0.0
N852 N 0.26586 0.95047 0.6294 0.0
C853 C 0.32673 0.99706 0.61842 0.0
C854 C 0.27039 0.96521 0.61211 0.0
C855 C 0.30095 0.98799 0.60614 0.0
H856 H 0.25052 0.96038 0.60307 0.0
H857 H 0.30457 0.99893 0.5922 0.0
H858 H 0.14759 0.78587 0.65778 0.0
H859 H 0.22193 0.89905 0.6876 0.0
H860 H 0.0929 0.75552 0.66971 0.0
H861 H 0.35036 0.01488 0.6138 0.0
H862 H 0.37055 0.01155 0.64625 0.0
H863 H 0.18004 0.83617 0.57038 0.0
H864 H 0.32025 0.95275 0.7032 0.0
H865 H 0.26468 0.91382 0.7115 0.0
H866 H 0.02851 0.74298 0.61482 0.0
H867 H 0.35958 0.98926 0.6788 0.0
H868 H 0.08121 0.78809 0.55536 0.0
H869 H 0.13783 0.82115 0.54609 0.0
N870 N 0.14751 0.81166 0.59297 0.0
C871 C 0.11661 0.79286 0.59832 0.0
C872 C 0.15537 0.82163 0.57449 0.0
C873 C 0.09962 0.79433 0.56601 0.0
C874 C 0.13156 0.81311 0.56073 0.0
C875 C 0.09178 0.78406 0.585 0.0
H876 H 0.04062 0.75931 0.58113 0.0
N877 N 0.13443 0.7938 0.6301 0.0
C878 C 0.10988 0.78409 0.61746 0.0
C879 C 0.0719 0.75615 0.64272 0.0
C880 C 0.07796 0.76561 0.62355 0.0
C881 C 0.12856 0.78224 0.64838 0.0
C882 C 0.09733 0.764 0.65508 0.0
O883 O 0.24966 0.89152 0.64325 0.0
O884 O 0.23808 0.86051 0.61631 0.0
O885 O 0.18805 0.78245 0.62462 0.0
O886 O 0.19263 0.79826 0.59496 0.0
O887 O 0.20715 0.9071 0.60908 0.0
O888 O 0.21794 0.8683 0.59789 0.0
O889 O 0.15752 0.85059 0.61255 0.0
O890 O 0.16375 0.87443 0.6415 0.0
O891 O 0.20449 0.94895 0.63341 0.0
O892 O 0.20791 0.93775 0.66339 0.0
O893 O 0.19794 0.83091 0.64914 0.0
O894 O 0.18435 0.86809 0.65845 0.0
C895 C 0.2562 0.87477 0.63107 0.0
C896 C 0.21701 0.89498 0.5956 0.0
C897 C 0.19556 0.75036 0.59982 0.0
C898 C 0.1937 0.69926 0.60405 0.0
C899 C 0.2105 0.72727 0.57367 0.0
C900 C 0.20617 0.75156 0.58093 0.0
C901 C 0.20443 0.70141 0.58512 0.0
C902 C 0.18901 0.72381 0.61143 0.0
C903 C 0.19161 0.77712 0.60676 0.0
C904 C 0.05314 0.75691 0.61033 0.0
C905 C 0.06003 0.76608 0.59112 0.0
H906 H 0.04773 0.74194 0.64795 0.0
C907 C 0.14685 0.86144 0.62609 0.0
C908 C 0.19097 0.84567 0.66262 0.0
C909 C 0.19418 0.97874 0.65828 0.0
C910 C 0.17982 0.01973 0.65269 0.0
C911 C 0.17985 1.00124 0.68501 0.0
C912 C 0.18931 0.98039 0.678 0.0
C913 C 0.17504 0.02072 0.67248 0.0
C914 C 0.18972 0.99882 0.64558 0.0
C915 C 0.20217 0.95474 0.6514 0.0
H916 H 0.21869 0.72854 0.5591 0.0
H917 H 0.21133 0.77146 0.57166 0.0
H918 H 0.20796 0.68279 0.5791 0.0
H919 H 0.18073 0.72239 0.62601 0.0
H920 H 0.17611 1.00223 0.70022 0.0
H921 H 0.19248 0.96525 0.68807 0.0
H922 H 0.16785 0.03689 0.67831 0.0
H923 H 0.19327 0.99779 0.63032 0.0
C924 C 0.67349 0.88817 0.93784 0.0
C925 C 0.68551 0.93108 0.91546 0.0
C926 C 0.67501 0.89871 0.91909 0.0
C927 C 0.69455 0.9526 0.9308 0.0
C928 C 0.68312 0.90988 0.95321 0.0
C929 C 0.69349 0.94206 0.94959 0.0
N930 N 0.66372 0.85696 0.94097 0.0
C931 C 0.66253 0.84577 0.95905 0.0
C932 C 0.68239 0.89867 0.97177 0.0
C933 C 0.67207 0.86649 0.97469 0.0
Gd934 Gd 0.69913 0.78983 0.88984 0.0
Gd935 Gd 0.64668 0.82454 0.91381 0.0
N936 N 0.66753 0.87765 0.9044 0.0
C937 C 0.68688 0.94096 0.8965 0.0
C938 C 0.6675 0.88695 0.88598 0.0
C939 C 0.67761 0.91873 0.88173 0.0
H940 H 0.6587 0.87001 0.87452 0.0
H941 H 0.67773 0.92597 0.86705 0.0
H942 H 0.68796 0.74348 0.92839 0.0
H943 H 0.65354 0.82077 0.96157 0.0
H944 H 0.66088 0.68651 0.93622 0.0
H945 H 0.6947 0.96558 0.89315 0.0
H946 H 0.70269 0.97753 0.92826 0.0
H947 H 0.69481 0.79466 0.8421 0.0
H948 H 0.6897 0.91464 0.98394 0.0
H949 H 0.67116 0.85756 0.98902 0.0
H950 H 0.62113 0.63474 0.87582 0.0
H951 H 0.70089 0.95906 0.96123 0.0
H952 H 0.64242 0.69981 0.82009 0.0
H953 H 0.67071 0.75782 0.81476 0.0
N954 N 0.6784 0.7576 0.86274 0.0
C955 C 0.6637 0.7257 0.86596 0.0
C956 C 0.68164 0.76932 0.84462 0.0
C957 C 0.65255 0.71578 0.83217 0.0
C958 C 0.66849 0.74858 0.8291 0.0
C959 C 0.65018 0.70393 0.85073 0.0
H960 H 0.62413 0.65407 0.84293 0.0
N961 N 0.67427 0.73629 0.89921 0.0
C962 C 0.66171 0.71475 0.88466 0.0
C963 C 0.64586 0.67167 0.90719 0.0
C964 C 0.64658 0.68183 0.88836 0.0
C965 C 0.6751 0.72653 0.91737 0.0
C966 C 0.66043 0.69413 0.92172 0.0
O967 O 0.7 0.85691 0.91525 0.0
O968 O 0.72111 0.84345 0.88949 0.0
O969 O 0.74164 0.79024 0.90058 0.0
O970 O 0.73406 0.7905 0.87019 0.0
O971 O 0.64218 0.8138 0.88148 0.0
O972 O 0.69212 0.82418 0.87188 0.0
O973 O 0.6446 0.7605 0.88839 0.0
O974 O 0.63048 0.773 0.91676 0.0
O975 O 0.60339 0.82062 0.90156 0.0
O976 O 0.60916 0.82145 0.9323 0.0
O977 O 0.7065 0.80239 0.9214 0.0
O978 O 0.65827 0.79377 0.93347 0.0
C979 C 0.72353 0.86287 0.90347 0.0
C980 C 0.66397 0.82051 0.86806 0.0
C981 C 0.78744 0.81701 0.88079 0.0
C982 C 0.84391 0.8371 0.88708 0.0
C983 C 0.82752 0.86719 0.86698 0.0
C984 C 0.79574 0.8436 0.86911 0.0
C985 C 0.85146 0.8641 0.87599 0.0
C986 C 0.81174 0.81353 0.88949 0.0
C987 C 0.75365 0.7926 0.88354 0.0
C988 C 0.63297 0.66013 0.8732 0.0
C989 C 0.63471 0.67114 0.85446 0.0
H990 H 0.63483 0.64658 0.91056 0.0
C991 C 0.62342 0.7544 0.90192 0.0
C992 C 0.68644 0.79584 0.9357 0.0
C993 C 0.55666 0.80369 0.92075 0.0
C994 C 0.50545 0.80177 0.91721 0.0
C995 C 0.50846 0.75893 0.93337 0.0
C996 C 0.54135 0.77457 0.9305 0.0
C997 C 0.49058 0.7723 0.9267 0.0
C998 C 0.53864 0.81745 0.91431 0.0
C999 C 0.59153 0.82122 0.91822 0.0
H1000 H 0.83361 0.88786 0.85822 0.0
H1001 H 0.77762 0.84649 0.86183 0.0
H1002 H 0.87603 0.88246 0.87387 0.0
H1003 H 0.80568 0.79269 0.89812 0.0
H1004 H 0.4968 0.73646 0.94093 0.0
H1005 H 0.55486 0.76421 0.93615 0.0
H1006 H 0.46512 0.75987 0.92924 0.0
H1007 H 0.55039 0.84026 0.90706 0.0
H1008 H 0.02142 0.14524 0.10978 0.0
H1009 H 0.07172 0.14662 0.10281 0.0
H1010 H 0.11137 0.1986 0.15528 0.0
H1011 H 0.0614 0.19818 0.16173 0.0
H1012 H 0.15557 0.21945 0.12863 0.0
H1013 H 0.07487 0.1142 0.15145 0.0
H1014 H 0.02247 0.06535 0.14891 0.0
H1015 H 0.04705 0.04725 0.09302 0.0
H1016 H 0.09942 0.09622 0.09514 0.0
H1017 H 0.24137 0.12679 0.1523 0.0
H1018 H 0.19485 0.13365 0.15142 0.0
H1019 H 0.22857 0.18687 0.09889 0.0
H1020 H 0.27459 0.17897 0.09918 0.0
H1021 H 0.14824 0.1141 0.12227 0.0
H1022 H 0.20621 0.2462 0.10299 0.0
H1023 H 0.25598 0.29728 0.10743 0.0
H1024 H 0.27578 0.26162 0.15874 0.0
H1025 H 0.22617 0.21039 0.15459 0.0
C1026 C 0.04115 0.15731 0.11958 0.0
C1027 C 0.03775 0.17136 0.1363 0.0
C1028 C 0.06978 0.15803 0.11568 0.0
C1029 C 0.09511 0.17208 0.12875 0.0
C1030 C 0.09215 0.18754 0.14501 0.0
C1031 C 0.06368 0.18729 0.14872 0.0
C1032 C 0.12386 0.16893 0.12633 0.0
C1033 C 0.15393 0.19642 0.12706 0.0
C1034 C 0.12183 0.1389 0.1243 0.0
C1035 C 0.0909 0.1089 0.1234 0.0
C1036 C 0.06906 0.09978 0.13863 0.0
C1037 C 0.03937 0.07211 0.13725 0.0
C1038 C 0.03143 0.05323 0.12081 0.0
C1039 C 0.05322 0.06189 0.10575 0.0
C1040 C 0.08291 0.08958 0.10703 0.0
C1041 C 0.239 0.13992 0.1405 0.0
C1042 C 0.26215 0.15277 0.12594 0.0
C1043 C 0.21235 0.14381 0.14004 0.0
C1044 C 0.20843 0.16096 0.12518 0.0
C1045 C 0.23137 0.17386 0.11061 0.0
C1046 C 0.25782 0.16951 0.11088 0.0
C1047 C 0.17986 0.1646 0.12487 0.0
C1048 C 0.14984 0.13715 0.12354 0.0
C1049 C 0.18193 0.19463 0.12639 0.0
C1050 C 0.21274 0.22444 0.12836 0.0
C1051 C 0.22134 0.24925 0.11514 0.0
C1052 C 0.24944 0.27823 0.11764 0.0
C1053 C 0.26896 0.28273 0.13339 0.0
C1054 C 0.26064 0.2581 0.14654 0.0
C1055 C 0.23264 0.22902 0.14406 0.0
H1056 H 0.29059 0.30528 0.13538 0.0
H1057 H 0.00838 0.03189 0.11974 0.0
H1058 H 0.1219 0.98303 0.41883 0.0
H1059 H 0.07299 0.93186 0.42368 0.0
H1060 H 0.10746 0.8872 0.38441 0.0
H1061 H 0.15673 0.93823 0.37981 0.0
H1062 H 0.04534 0.88473 0.37597 0.0
H1063 H 0.10186 0.86464 0.42621 0.0
H1064 H 0.13287 0.87788 0.4561 0.0
H1065 H 0.05663 0.87943 0.48659 0.0
H1066 H 0.02538 0.86675 0.4568 0.0
H1067 H 0.90815 0.73517 0.37575 0.0
H1068 H 0.96371 0.77751 0.37704 0.0
H1069 H 0.94738 0.80504 0.43293 0.0
H1070 H 0.89262 0.76028 0.43238 0.0
H1071 H 1.00259 0.81615 0.43347 0.0
H1072 H 0.94845 0.84403 0.38723 0.0
H1073 H 0.91513 0.83678 0.35892 0.0
H1074 H 0.98315 0.82937 0.32296 0.0
H1075 H 0.01664 0.83613 0.35111 0.0
C1076 C 0.11933 0.96208 0.41164 0.0
C1077 C 0.14298 0.96447 0.39895 0.0
C1078 C 0.09148 0.93293 0.41444 0.0
C1079 C 0.08672 0.90585 0.40441 0.0
C1080 C 0.11087 0.90787 0.39235 0.0
C1081 C 0.13899 0.93692 0.3898 0.0
C1082 C 0.05515 0.87657 0.40475 0.0
C1083 C 0.03611 0.86933 0.38841 0.0
C1084 C 0.0427 0.85762 0.42132 0.0
C1085 C 0.06141 0.86502 0.43924 0.0
C1086 C 0.09183 0.8681 0.43925 0.0
C1087 C 0.10943 0.87545 0.45619 0.0
C1088 C 0.09676 0.87957 0.47323 0.0
C1089 C 0.06643 0.87627 0.47338 0.0
C1090 C 0.04876 0.86898 0.45648 0.0
C1091 C 0.91654 0.75038 0.38826 0.0
C1092 C 0.89612 0.74516 0.40378 0.0
C1093 C 0.94827 0.7747 0.38899 0.0
C1094 C 0.9597 0.79554 0.40475 0.0
C1095 C 0.93931 0.78965 0.4205 0.0
C1096 C 0.90794 0.76433 0.42013 0.0
C1097 C 0.99242 0.82391 0.40453 0.0
C1098 C 0.01168 0.83124 0.42092 0.0
C1099 C 1.00471 0.84391 0.38824 0.0
C1100 C 0.98487 0.84029 0.37127 0.0
C1101 C 0.9562 0.84071 0.37329 0.0
C1102 C 0.9373 0.83668 0.35728 0.0
C1103 C 0.94699 0.83254 0.33916 0.0
C1104 C 0.97566 0.83253 0.33701 0.0
C1105 C 0.99462 0.83648 0.35297 0.0
H1106 H 0.93231 0.82941 0.32678 0.0
H1107 H 0.11042 0.88524 0.48633 0.0
H1108 H 0.8714 0.11039 0.15563 0.0
H1109 H 0.86559 0.05742 0.15288 0.0
H1110 H 0.84084 0.0537 0.09334 0.0
H1111 H 0.84967 0.10788 0.09549 0.0
H1112 H 0.80028 0.99805 0.1314 0.0
H1113 H 0.88457 0.04637 0.08349 0.0
H1114 H 0.93589 0.08825 0.07066 0.0
H1115 H 0.98413 0.07976 0.11984 0.0
H1116 H 0.93278 0.03854 0.13331 0.0
H1117 H 0.79055 0.84745 0.12717 0.0
H1118 H 0.79887 0.89775 0.11351 0.0
H1119 H 0.88079 0.9498 0.1499 0.0
H1120 H 0.87295 0.89993 0.16314 0.0
H1121 H 0.8901 0.97989 0.11635 0.0
H1122 H 0.8046 0.93154 0.16395 0.0
H1123 H 0.75325 0.88791 0.17573 0.0
H1124 H 0.70657 0.89497 0.1253 0.0
H1125 H 0.75778 0.93838 0.11313 0.0
C1126 C 0.86573 0.09876 0.14181 0.0
C1127 C 0.86151 0.11361 0.12572 0.0
C1128 C 0.86203 0.06835 0.14032 0.0
C1129 C 0.85337 0.05195 0.12283 0.0
C1130 C 0.84823 0.06625 0.10686 0.0
C1131 C 0.85283 0.09704 0.1082 0.0
C1132 C 0.8488 0.01946 0.12169 0.0
C1133 C 0.81964 0.99388 0.12768 0.0
C1134 C 0.87412 0.01415 0.117 0.0
C1135 C 0.9048 0.03993 0.10957 0.0
C1136 C 0.906 0.05402 0.0918 0.0
C1137 C 0.9351 0.07752 0.08438 0.0
C1138 C 0.96322 0.08676 0.09448 0.0
C1139 C 0.96228 0.07269 0.1121 0.0
C1140 C 0.93317 0.04935 0.11967 0.0
C1141 C 0.8109 0.86962 0.13174 0.0
C1142 C 0.83088 0.86987 0.14638 0.0
C1143 C 0.8155 0.89834 0.12406 0.0
C1144 C 0.84006 0.92763 0.13099 0.0
C1145 C 0.86159 0.92761 0.14438 0.0
C1146 C 0.85702 0.89907 0.15201 0.0
C1147 C 0.84156 0.95826 0.12624 0.0
C1148 C 0.87034 0.98372 0.1195 0.0
C1149 C 0.81572 0.96338 0.13004 0.0
C1150 C 0.78496 0.9379 0.13757 0.0
C1151 C 0.78337 0.92368 0.15537 0.0
C1152 C 0.75432 0.899 0.1621 0.0
C1153 C 0.72668 0.88862 0.15125 0.0
C1154 C 0.72801 0.90299 0.13368 0.0
C1155 C 0.75702 0.92762 0.12686 0.0
H1156 H 0.70421 0.86949 0.15648 0.0
H1157 H 0.98574 0.10458 0.08852 0.0
H1158 H 0.27023 0.16892 0.43171 0.0
H1159 H 0.22738 0.18085 0.43151 0.0
H1160 H 0.19322 0.12924 0.37827 0.0
H1161 H 0.24082 0.12482 0.37622 0.0
H1162 H 0.18235 0.17048 0.37497 0.0
H1163 H 0.16039 0.10397 0.43141 0.0
H1164 H 0.17333 0.08986 0.46275 0.0
H1165 H 0.18752 0.17766 0.48656 0.0
H1166 H 0.17499 0.19241 0.45532 0.0
H1167 H 0.02854 0.14191 0.37633 0.0
H1168 H 0.06871 0.12967 0.38815 0.0
H1169 H 0.11973 0.22244 0.41424 0.0
H1170 H 0.07925 0.23472 0.40241 0.0
H1171 H 0.12117 0.16307 0.43368 0.0
H1172 H 0.1446 0.22739 0.37459 0.0
H1173 H 0.12631 0.23624 0.34345 0.0
H1174 H 0.10281 0.14239 0.32526 0.0
H1175 H 0.12074 0.13298 0.35639 0.0
C1176 C 0.25426 0.16109 0.41962 0.0
C1177 C 0.25924 0.14587 0.40394 0.0
C1178 C 0.22878 0.16689 0.41987 0.0
C1179 C 0.20575 0.15497 0.40528 0.0
C1180 C 0.21027 0.13883 0.38986 0.0
C1181 C 0.23718 0.13534 0.38891 0.0
C1182 C 0.17792 0.16049 0.40536 0.0
C1183 C 0.16893 0.16812 0.38791 0.0
C1184 C 0.16031 0.15867 0.42216 0.0
C1185 C 0.16693 0.14934 0.44103 0.0
C1186 C 0.16629 0.12024 0.44334 0.0
C1187 C 0.17359 0.11216 0.46108 0.0
C1188 C 0.18129 0.13287 0.47663 0.0
C1189 C 0.18156 0.16165 0.47451 0.0
C1190 C 0.17431 0.16985 0.45681 0.0
C1191 C 0.04756 0.1591 0.38533 0.0
C1192 C 0.05093 0.18919 0.3885 0.0
C1193 C 0.07044 0.15209 0.39209 0.0
C1194 C 0.09722 0.1752 0.40198 0.0
C1195 C 0.09906 0.2042 0.40679 0.0
C1196 C 0.076 0.21121 0.40003 0.0
C1197 C 0.12576 0.17158 0.40337 0.0
C1198 C 0.13484 0.16481 0.42096 0.0
C1199 C 0.14304 0.17322 0.38672 0.0
C1200 C 0.1339 0.17951 0.36774 0.0
C1201 C 0.13555 0.20871 0.36391 0.0
C1202 C 0.12526 0.21381 0.34629 0.0
C1203 C 0.1134 0.18989 0.33238 0.0
C1204 C 0.11203 0.1609 0.33603 0.0
C1205 C 0.12233 0.15571 0.35363 0.0
H1206 H 0.10526 0.19382 0.31878 0.0
H1207 H 0.18701 0.12661 0.49034 0.0
H1208 H 0.15209 0.91344 0.14743 0.0
H1209 H 0.10027 0.87311 0.13548 0.0
H1210 H 0.08143 0.94672 0.11639 0.0
H1211 H 0.13352 0.98734 0.12887 0.0
H1212 H 0.03394 0.90619 0.13702 0.0
H1213 H 0.08712 0.89423 0.08415 0.0
H1214 H 0.12768 0.88862 0.06598 0.0
H1215 H 0.09951 0.7997 0.09403 0.0
H1216 H 0.05911 0.805 0.11261 0.0
H1217 H 0.88052 0.77662 0.10898 0.0
H1218 H 0.93426 0.82332 0.10605 0.0
H1219 H 0.9729 0.77327 0.13694 0.0
H1220 H 0.91917 0.72725 0.14035 0.0
H1221 H 0.00861 0.80588 0.10372 0.0
H1222 H 0.96086 0.82539 0.15991 0.0
H1223 H 0.918 0.83058 0.17556 0.0
H1224 H 0.93494 0.90684 0.1374 0.0
H1225 H 0.97765 0.90175 0.12133 0.0
C1226 C 0.13737 0.921 0.14001 0.0
C1227 C 0.14686 0.95341 0.13886 0.0
C1228 C 0.10768 0.89792 0.13317 0.0
C1229 C 0.0868 0.90672 0.12488 0.0
C1230 C 0.09708 0.93929 0.12267 0.0
C1231 C 0.12696 0.9625 0.12958 0.0
C1232 C 0.05325 0.8818 0.12079 0.0
C1233 C 0.02846 0.88465 0.12929 0.0
C1234 C 0.04576 0.85341 0.11086 0.0
C1235 C 0.07019 0.85013 0.09986 0.0
C1236 C 0.08975 0.87361 0.08657 0.0
C1237 C 0.11268 0.87046 0.07618 0.0
C1238 C 0.1162 0.84384 0.07887 0.0
C1239 C 0.09677 0.8203 0.09196 0.0
C1240 C 0.07381 0.82335 0.10241 0.0
C1241 C 0.90062 0.77581 0.11512 0.0
C1242 C 0.8961 0.74849 0.12473 0.0
C1243 C 0.9312 0.80232 0.1134 0.0
C1244 C 0.95759 0.80171 0.12121 0.0
C1245 C 0.95294 0.77415 0.13064 0.0
C1246 C 0.92237 0.74788 0.13256 0.0
C1247 C 0.98994 0.83015 0.12041 0.0
C1248 C 0.0143 0.82782 0.11105 0.0
C1249 C 0.99698 0.85918 0.12924 0.0
C1250 C 0.97218 0.863 0.13932 0.0
C1251 C 0.95534 0.84318 0.15481 0.0
C1252 C 0.93109 0.84609 0.16375 0.0
C1253 C 0.92369 0.86895 0.15744 0.0
C1254 C 0.94068 0.8891 0.14225 0.0
C1255 C 0.96492 0.88624 0.13323 0.0
H1256 H 0.90483 0.87108 0.16434 0.0
H1257 H 0.13396 0.84143 0.07079 0.0
H1258 H 0.77704 0.84432 0.39899 0.0
H1259 H 0.78347 0.89472 0.41107 0.0
H1260 H 0.88425 0.94078 0.39951 0.0
H1261 H 0.87777 0.89048 0.38738 0.0
H1262 H 0.86671 0.96708 0.43224 0.0
H1263 H 0.84173 0.93933 0.36465 0.0
H1264 H 0.80894 0.90245 0.33906 0.0
H1265 H 0.72607 0.90199 0.36138 0.0
H1266 H 0.7584 0.93866 0.38722 0.0
H1267 H 0.90898 0.12537 0.40736 0.0
H1268 H 0.9011 0.07155 0.40893 0.0
H1269 H 0.7994 0.03258 0.40614 0.0
H1270 H 0.80733 0.08583 0.40298 0.0
H1271 H 0.81441 1.00057 0.38384 0.0
H1272 H 0.83888 0.03379 0.44855 0.0
H1273 H 0.86956 0.06926 0.47515 0.0
H1274 H 0.94963 0.0581 0.46074 0.0
H1275 H 0.91958 0.02295 0.43383 0.0
C1276 C 0.80073 0.86485 0.39997 0.0
C1277 C 0.82696 0.86369 0.3924 0.0
C1278 C 0.80439 0.89364 0.40676 0.0
C1279 C 0.83429 0.92152 0.40598 0.0
C1280 C 0.86103 0.91954 0.40033 0.0
C1281 C 0.85734 0.89083 0.39343 0.0
C1282 C 0.83674 0.95318 0.40732 0.0
C1283 C 0.85541 0.97456 0.42168 0.0
C1284 C 0.82154 0.96267 0.39372 0.0
C1285 C 0.80236 0.94147 0.3779 0.0
C1286 C 0.81649 0.93125 0.36411 0.0
C1287 C 0.798 0.9104 0.34959 0.0
C1288 C 0.76542 0.8998 0.34864 0.0
C1289 C 0.7513 0.91018 0.36215 0.0
C1290 C 0.76969 0.93103 0.37672 0.0
C1291 C 0.88492 0.10537 0.4071 0.0
C1292 C 0.85866 0.1102 0.40562 0.0
C1293 C 0.88043 0.07455 0.40819 0.0
C1294 C 0.84958 0.04788 0.40812 0.0
C1295 C 0.82344 0.05266 0.40644 0.0
C1296 C 0.82797 0.08335 0.40499 0.0
C1297 C 0.8445 0.01496 0.40883 0.0
C1298 C 0.82545 0.99325 0.39468 0.0
C1299 C 0.85904 0.00517 0.42281 0.0
C1300 C 0.87709 0.02597 0.43908 0.0
C1301 C 0.86311 0.03907 0.45097 0.0
C1302 C 0.88038 0.05911 0.46611 0.0
C1303 C 0.91155 0.06599 0.46961 0.0
C1304 C 0.92549 0.05277 0.458 0.0
C1305 C 0.90835 0.03277 0.44281 0.0
H1306 H 0.92489 0.08151 0.48134 0.0
H1307 H 0.75113 0.8836 0.33739 0.0
H1308 H 0.22193 0.06416 0.62756 0.0
H1309 H 0.2181 0.10883 0.61393 0.0
H1310 H 0.1231 0.06942 0.63689 0.0
H1311 H 0.12676 0.02494 0.65021 0.0
H1312 H 0.12847 0.10064 0.60372 0.0
H1313 H 0.18668 0.11959 0.66338 0.0
H1314 H 0.22956 0.12152 0.68331 0.0
H1315 H 0.29974 0.19032 0.64519 0.0
H1316 H 0.25717 0.18836 0.62486 0.0
H1317 H 0.12895 0.23805 0.64973 0.0
H1318 H 0.13637 0.19187 0.64676 0.0
H1319 H 0.18335 0.22674 0.59246 0.0
H1320 H 0.17414 0.27176 0.59463 0.0
H1321 H 0.20712 0.20078 0.63572 0.0
H1322 H 0.14543 0.17864 0.5749 0.0
H1323 H 0.10025 0.17613 0.55716 0.0
H1324 H 0.03537 0.11351 0.59985 0.0
H1325 H 0.08037 0.11619 0.61799 0.0
C1326 C 0.19986 0.06451 0.62903 0.0
C1327 C 0.17476 0.04136 0.64009 0.0
C1328 C 0.19773 0.09008 0.62135 0.0
C1329 C 0.17053 0.09278 0.62472 0.0
C1330 C 0.14434 0.06795 0.63413 0.0
C1331 C 0.14648 0.04255 0.6418 0.0
C1332 C 0.1707 0.12309 0.6212 0.0
C1333 C 0.14599 0.1226 0.61048 0.0
C1334 C 0.19332 0.15184 0.63011 0.0
C1335 C 0.21883 0.15357 0.64252 0.0
C1336 C 0.21127 0.13501 0.65922 0.0
C1337 C 0.2355 0.13609 0.67057 0.0
C1338 C 0.26736 0.15597 0.66549 0.0
C1339 C 0.27505 0.17489 0.64908 0.0
C1340 C 0.2509 0.17379 0.63764 0.0
C1341 C 0.14061 0.23582 0.63705 0.0
C1342 C 0.1515 0.25905 0.62257 0.0
C1343 C 0.14489 0.20946 0.63542 0.0
C1344 C 0.16028 0.20592 0.61937 0.0
C1345 C 0.17118 0.22894 0.60489 0.0
C1346 C 0.16632 0.25495 0.60631 0.0
C1347 C 0.16523 0.17825 0.6181 0.0
C1348 C 0.19047 0.17911 0.62831 0.0
C1349 C 0.14316 0.14992 0.60876 0.0
C1350 C 0.11617 0.14797 0.59787 0.0
C1351 C 0.12154 0.16464 0.58058 0.0
C1352 C 0.09599 0.16313 0.57044 0.0
C1353 C 0.06496 0.14476 0.57741 0.0
C1354 C 0.05942 0.12779 0.5945 0.0
C1355 C 0.08493 0.12931 0.60471 0.0
H1356 H 0.0452 0.1436 0.56953 0.0
H1357 H 0.28609 0.15677 0.67429 0.0
H1358 H 0.10711 0.84156 0.93609 0.0
H1359 H 0.05375 0.83528 0.93765 0.0
H1360 H 0.05525 0.84786 0.87638 0.0
H1361 H 0.10888 0.85581 0.87497 0.0
H1362 H 0.03518 0.88161 0.89056 0.0
H1363 H 1.00008 0.76833 0.90104 0.0
H1364 H 0.99882 0.72268 0.91736 0.0
H1365 H 0.98484 0.75619 0.97148 0.0
H1366 H 0.98484 0.80143 0.95527 0.0
H1367 H 0.85618 0.78858 0.88131 0.0
H1368 H 0.90555 0.78853 0.88923 0.0
H1369 H 0.94019 0.87779 0.91889 0.0
H1370 H 0.89143 0.87836 0.9105 0.0
H1371 H 0.94144 0.79418 0.92337 0.0
H1372 H 0.99973 0.92105 0.90634 0.0
H1373 H 0.99291 0.95908 0.88618 0.0
H1374 H 0.95826 0.89137 0.8401 0.0
H1375 H 0.9644 0.85287 0.86018 0.0
C1376 C 0.09588 0.84277 0.92297 0.0
C1377 C 0.11235 0.84957 0.90545 0.0
C1378 C 0.06521 0.8389 0.92383 0.0
C1379 C 0.05013 0.84093 0.90711 0.0
C1380 C 0.06629 0.84653 0.88955 0.0
C1381 C 0.09705 0.85104 0.88875 0.0
C1382 C 0.01845 0.83914 0.90771 0.0
C1383 C 0.01491 0.86245 0.89787 0.0
C1384 C 0.99158 0.81449 0.91721 0.0
C1385 C 0.99279 0.78824 0.92703 0.0
C1386 C 0.99691 0.76597 0.91643 0.0
C1387 C 0.9962 0.7401 0.92564 0.0
C1388 C 0.99201 0.73665 0.94549 0.0
C1389 C 0.98815 0.75891 0.95613 0.0
C1390 C 0.98822 0.78451 0.94692 0.0
C1391 C 0.87404 0.80773 0.88993 0.0
C1392 C 0.87019 0.83357 0.89521 0.0
C1393 C 0.9022 0.80772 0.89442 0.0
C1394 C 0.92674 0.83343 0.90437 0.0
C1395 C 0.92182 0.85803 0.91089 0.0
C1396 C 0.89394 0.85826 0.90619 0.0
C1397 C 0.9586 0.83629 0.90611 0.0
C1398 C 0.96207 0.81343 0.91638 0.0
C1399 C 0.98538 0.86102 0.8968 0.0
C1400 C 0.98253 0.88431 0.88466 0.0
C1401 C 0.99081 0.91446 0.89187 0.0
C1402 C 0.9869 0.93598 0.88052 0.0
C1403 C 0.97517 0.92765 0.86187 0.0
C1404 C 0.96727 0.89777 0.85455 0.0
C1405 C 0.97084 0.87607 0.86592 0.0
H1406 H 0.9722 0.94436 0.85309 0.0
H1407 H 0.99167 0.71668 0.95261 0.0
H1408 H 0.74138 0.90595 0.5971 0.0
H1409 H 0.78629 0.95976 0.59617 0.0
H1410 H 0.82051 0.94295 0.64948 0.0
H1411 H 0.77323 0.8904 0.65163 0.0
H1412 H 0.82709 0.99695 0.65158 0.0
H1413 H 0.85242 0.94514 0.60054 0.0
H1414 H 0.84181 0.915 0.57038 0.0
H1415 H 0.83467 0.98842 0.54038 0.0
H1416 H 0.8448 0.01877 0.57043 0.0
H1417 H 0.9836 0.11159 0.65366 0.0
H1418 H 0.94176 0.06083 0.64108 0.0
H1419 H 0.90026 0.10926 0.61147 0.0
H1420 H 0.94241 0.16045 0.62412 0.0
H1421 H 0.89625 0.04332 0.59444 0.0
H1422 H 0.86738 0.09244 0.64674 0.0
H1423 H 0.88223 0.12364 0.67666 0.0
H1424 H 0.89886 0.05389 0.70385 0.0
H1425 H 0.88462 0.02259 0.67393 0.0
C1426 C 0.75791 0.91394 0.6089 0.0
C1427 C 0.75291 0.89422 0.6248 0.0
C1428 C 0.7842 0.94461 0.6081 0.0
C1429 C 0.80724 0.95557 0.62263 0.0
C1430 C 0.80302 0.93529 0.63812 0.0
C1431 C 0.77602 0.9051 0.6393 0.0
C1432 C 0.8351 0.98845 0.62227 0.0
C1433 C 0.84214 0.00672 0.63904 0.0
C1434 C 0.85457 1.00204 0.60582 0.0
C1435 C 0.84912 0.98407 0.58774 0.0
C1436 C 0.84846 0.95477 0.58752 0.0
C1437 C 0.84252 0.93765 0.57045 0.0
C1438 C 0.83751 0.94976 0.55348 0.0
C1439 C 0.83852 0.97906 0.55354 0.0
C1440 C 0.84439 0.99623 0.57057 0.0
C1441 C 0.96634 0.11152 0.64379 0.0
C1442 C 0.96591 0.13968 0.63993 0.0
C1443 C 0.94257 0.08259 0.63656 0.0
C1444 C 0.91796 0.0814 0.62544 0.0
C1445 C 0.91931 0.10985 0.61988 0.0
C1446 C 0.94327 0.13899 0.62712 0.0
C1447 C 0.888 0.05072 0.62374 0.0
C1448 C 0.88071 0.03319 0.60675 0.0
C1449 C 0.86823 0.03753 0.63993 0.0
C1450 C 0.87511 0.05534 0.65815 0.0
C1451 C 0.87427 0.08384 0.65911 0.0
C1452 C 0.88259 0.10153 0.67604 0.0
C1453 C 0.8915 0.09076 0.69214 0.0
C1454 C 0.89194 0.06219 0.69137 0.0
C1455 C 0.88371 0.04445 0.67444 0.0
H1456 H 0.89804 0.10455 0.70523 0.0
H1457 H 0.83293 0.93649 0.54028 0.0
H1458 H 0.18157 0.27603 0.87982 0.0
H1459 H 0.19541 0.23408 0.88165 0.0
H1460 H 0.13675 0.19643 0.93221 0.0
H1461 H 0.12602 0.24086 0.93147 0.0
H1462 H 0.18162 0.1857 0.93639 0.0
H1463 H 0.1115 0.16544 0.88394 0.0
H1464 H 0.09177 0.17711 0.85426 0.0
H1465 H 0.17555 0.19194 0.82427 0.0
H1466 H 0.19598 0.18081 0.85385 0.0
H1467 H 0.14847 0.02447 0.90931 0.0
H1468 H 0.14738 0.07227 0.92 0.0
H1469 H 0.23152 0.13072 0.88645 0.0
H1470 H 0.23267 0.08318 0.87591 0.0
H1471 H 0.17245 0.12891 0.87557 0.0
H1472 H 0.23722 0.14134 0.93117 0.0
H1473 H 0.24843 0.12249 0.96133 0.0
H1474 H 0.16309 0.11313 0.98624 0.0
H1475 H 0.15096 0.13121 0.95606 0.0
C1476 C 0.17185 0.25881 0.89133 0.0
C1477 C 0.15234 0.26105 0.9053 0.0
C1478 C 0.17953 0.2347 0.89234 0.0
C1479 C 0.1662 0.21118 0.90667 0.0
C1480 C 0.14718 0.21399 0.92091 0.0
C1481 C 0.14071 0.23906 0.92039 0.0
C1482 C 0.17103 0.18311 0.90621 0.0
C1483 C 0.17929 0.17313 0.92311 0.0
C1484 C 0.16776 0.16626 0.88898 0.0
C1485 C 0.15536 0.17255 0.87112 0.0
C1486 C 0.12576 0.17133 0.87103 0.0
C1487 C 0.11446 0.17786 0.85423 0.0
C1488 C 0.13243 0.18534 0.8374 0.0
C1489 C 0.16168 0.18619 0.83732 0.0
C1490 C 0.17312 0.17975 0.85408 0.0
C1491 C 0.16755 0.04771 0.90504 0.0
C1492 C 0.19082 0.05043 0.89195 0.0
C1493 C 0.16687 0.07492 0.91108 0.0
C1494 C 0.18934 0.10494 0.90394 0.0
C1495 C 0.21411 0.10776 0.89217 0.0
C1496 C 0.21487 0.08069 0.88624 0.0
C1497 C 0.18376 0.13219 0.90553 0.0
C1498 C 0.17495 0.14169 0.88881 0.0
C1499 C 0.18532 0.14756 0.92302 0.0
C1500 C 0.19301 0.13732 0.94127 0.0
C1501 C 0.22067 0.13496 0.943 0.0
C1502 C 0.22721 0.12445 0.96012 0.0
C1503 C 0.20644 0.11653 0.97568 0.0
C1504 C 0.17913 0.11922 0.97417 0.0
C1505 C 0.17242 0.1296 0.95706 0.0
H1506 H 0.21154 0.10837 0.98891 0.0
H1507 H 0.12365 0.19041 0.82441 0.0
H1508 H 0.11202 0.85354 0.59382 0.0
H1509 H 0.05709 0.84308 0.59182 0.0
H1510 H 0.05241 0.84457 0.65347 0.0
H1511 H 0.10723 0.85522 0.65554 0.0
H1512 H 0.99899 0.79457 0.60663 0.0
H1513 H 0.02239 0.88071 0.66669 0.0
H1514 H 0.06782 0.92968 0.67974 0.0
H1515 H 0.10436 0.95999 0.6229 0.0
H1516 H 0.05934 0.91092 0.60958 0.0
H1517 H 0.85843 0.76762 0.65361 0.0
H1518 H 0.90886 0.77531 0.64107 0.0
H1519 H 0.92746 0.86358 0.61498 0.0
H1520 H 0.87681 0.8559 0.62781 0.0
H1521 H 0.97532 0.87293 0.63722 0.0
H1522 H 0.91801 0.80014 0.58744 0.0
H1523 H 0.87573 0.75096 0.5727 0.0
H1524 H 0.90717 0.69582 0.60428 0.0
H1525 H 0.94936 0.74462 0.61944 0.0
C1526 C 0.09917 0.85153 0.60693 0.0
C1527 C 0.11391 0.85544 0.62484 0.0
C1528 C 0.06783 0.84549 0.60576 0.0
C1529 C 0.05085 0.84349 0.62248 0.0
C1530 C 0.06533 0.84665 0.64037 0.0
C1531 C 0.09665 0.85283 0.64155 0.0
C1532 C 0.01844 0.83934 0.62141 0.0
C1533 C 0.99367 0.81167 0.61319 0.0
C1534 C 0.01178 0.86211 0.62943 0.0
C1535 C 0.03753 0.89242 0.63719 0.0
C1536 C 0.03994 0.89805 0.657 0.0
C1537 C 0.06571 0.92565 0.66444 0.0
C1538 C 0.08893 0.9479 0.65215 0.0
C1539 C 0.08638 0.94269 0.63239 0.0
C1540 C 0.06082 0.91497 0.6249 0.0
C1541 C 0.87273 0.78799 0.64453 0.0
C1542 C 0.86373 0.81102 0.64147 0.0
C1543 C 0.90158 0.79243 0.63738 0.0
C1544 C 0.92201 0.82002 0.62703 0.0
C1545 C 0.91205 0.84209 0.6229 0.0
C1546 C 0.88302 0.83756 0.63002 0.0
C1547 C 0.95517 0.82751 0.62286 0.0
C1548 C 0.98031 0.8559 0.63024 0.0
C1549 C 0.96206 0.80551 0.61373 0.0
C1550 C 0.93675 0.77606 0.60465 0.0
C1551 C 0.91577 0.77751 0.59135 0.0
C1552 C 0.89184 0.7497 0.5829 0.0
C1553 C 0.88873 0.72028 0.58757 0.0
C1554 C 0.9096 0.71862 0.60068 0.0
C1555 C 0.93356 0.74636 0.60918 0.0
H1556 H 0.87019 0.69877 0.58101 0.0
H1557 H 0.10893 0.96909 0.65798 0.0
H1558 H 0.98922 0.12152 0.88087 0.0
H1559 H 0.94989 0.06893 0.89298 0.0
H1560 H 0.88795 0.10529 0.90879 0.0
H1561 H 0.92765 0.15815 0.89689 0.0
H1562 H 0.88341 0.05398 0.93348 0.0
H1563 H 0.87932 0.07886 0.86617 0.0
H1564 H 0.90416 0.09818 0.83451 0.0
H1565 H 0.93134 0.0264 0.83279 0.0
H1566 H 0.90683 0.00685 0.86453 0.0
H1567 H 0.7341 0.91461 0.92517 0.0
H1568 H 0.77967 0.96743 0.92465 0.0
H1569 H 0.8293 0.93378 0.88857 0.0
H1570 H 0.78089 0.88227 0.88638 0.0
H1571 H 0.84289 0.98494 0.876 0.0
H1572 H 0.8423 0.9551 0.94187 0.0
H1573 H 0.81824 0.93567 0.9737 0.0
H1574 H 0.80212 0.01465 0.97956 0.0
H1575 H 0.82569 0.03432 0.94767 0.0
C1576 C 0.9678 0.11851 0.88771 0.0
C1577 C 0.96124 0.14356 0.88805 0.0
C1578 C 0.94537 0.08855 0.89457 0.0
C1579 C 0.91592 0.08322 0.90154 0.0
C1580 C 0.91061 0.10901 0.90354 0.0
C1581 C 0.93318 0.13909 0.89674 0.0
C1582 C 0.88897 0.0503 0.90322 0.0
C1583 C 0.87438 0.03871 0.921 0.0
C1584 C 0.87759 0.0304 0.88696 0.0
C1585 C 0.89152 0.0416 0.86772 0.0
C1586 C 0.8907 0.06731 0.85904 0.0
C1587 C 0.9047 0.07828 0.8411 0.0
C1588 C 0.91942 0.0636 0.83167 0.0
C1589 C 0.91998 0.03778 0.84012 0.0
C1590 C 0.90599 0.0267 0.85806 0.0
C1591 C 0.75406 0.91857 0.91653 0.0
C1592 C 0.75306 0.89428 0.90505 0.0
C1593 C 0.78092 0.94883 0.91681 0.0
C1594 C 0.80865 0.95494 0.90692 0.0
C1595 C 0.80831 0.93012 0.89627 0.0
C1596 C 0.78065 0.90044 0.89506 0.0
C1597 C 0.83717 0.98749 0.90652 0.0
C1598 C 0.85199 0.99945 0.88878 0.0
C1599 C 0.8489 0.00737 0.92296 0.0
C1600 C 0.83563 0.99608 0.94236 0.0
C1601 C 0.83359 0.96829 0.94995 0.0
C1602 C 0.82 0.95721 0.96799 0.0
C1603 C 0.80862 0.97389 0.97863 0.0
C1604 C 0.81094 1.00176 0.9713 0.0
C1605 C 0.82446 0.01291 0.95327 0.0
H1606 H 0.79805 0.96524 0.99257 0.0
H1607 H 0.93032 0.07219 0.81779 0.0
H1608 H 0.30109 0.15242 0.34155 0.0
H1609 H 0.30686 0.15972 0.30682 0.0
H1610 H 0.4056 0.18583 0.31102 0.0
H1611 H 0.40023 0.17961 0.34613 0.0
H1612 H 0.38188 0.22619 0.28548 0.0
H1613 H 0.37194 0.10931 0.27036 0.0
H1614 H 0.34548 0.05217 0.27837 0.0
H1615 H 0.26298 0.05526 0.29793 0.0
H1616 H 0.28855 0.11202 0.28934 0.0
H1617 H 0.40465 0.19284 0.18301 0.0
H1618 H 0.40994 0.19976 0.2181 0.0
H1619 H 0.30951 0.16652 0.22268 0.0
H1620 H 0.30426 0.1606 0.188 0.0
H1621 H 0.33865 0.13105 0.24363 0.0
H1622 H 0.34306 0.23121 0.23364 0.0
H1623 H 0.36499 0.2851 0.22023 0.0
H1624 H 0.45434 0.31399 0.24797 0.0
H1625 H 0.43308 0.25998 0.26125 0.0
C1626 C 0.32415 0.16 0.33512 0.0
C1627 C 0.3502 0.16539 0.34662 0.0
C1628 C 0.3273 0.16374 0.3152 0.0
C1629 C 0.35634 0.17221 0.30616 0.0
C1630 C 0.38279 0.17875 0.31762 0.0
C1631 C 0.37979 0.17549 0.33769 0.0
C1632 C 0.35897 0.17504 0.28483 0.0
C1633 C 0.3728 0.20537 0.27635 0.0
C1634 C 0.34683 0.14804 0.27272 0.0
C1635 C 0.3327 0.1152 0.28003 0.0
C1636 C 0.34836 0.09785 0.27667 0.0
C1637 C 0.33333 0.06542 0.28101 0.0
C1638 C 0.30261 0.05011 0.28875 0.0
C1639 C 0.28688 0.0672 0.29211 0.0
C1640 C 0.30169 0.09957 0.28758 0.0
C1641 C 0.38397 0.18802 0.19148 0.0
C1642 C 0.35399 0.17585 0.18273 0.0
C1643 C 0.38697 0.19184 0.21152 0.0
C1644 C 0.36006 0.18357 0.22302 0.0
C1645 C 0.33058 0.1731 0.21414 0.0
C1646 C 0.32766 0.16972 0.19426 0.0
C1647 C 0.36133 0.182 0.2443 0.0
C1648 C 0.34829 0.15191 0.25275 0.0
C1649 C 0.37377 0.20913 0.25624 0.0
C1650 C 0.38668 0.24144 0.24815 0.0
C1651 C 0.36754 0.24891 0.23664 0.0
C1652 C 0.3798 0.27951 0.22912 0.0
C1653 C 0.41109 0.30293 0.23317 0.0
C1654 C 0.43015 0.2958 0.24479 0.0
C1655 C 0.41801 0.26519 0.2523 0.0
H1656 H 0.42053 0.32663 0.22737 0.0
H1657 H 0.29103 0.02502 0.29216 0.0
H1658 H 0.78644 0.60406 0.34553 0.0
H1659 H 0.78814 0.59959 0.31043 0.0
H1660 H 0.87225 0.69243 0.3082 0.0
H1661 H 0.87063 0.6968 0.34295 0.0
H1662 H 0.82847 0.68953 0.28422 0.0
H1663 H 0.876 0.62654 0.2978 0.0
H1664 H 0.8808 0.58305 0.31261 0.0
H1665 H 0.79532 0.51419 0.28428 0.0
H1666 H 0.78971 0.55734 0.26955 0.0
H1667 H 0.86599 0.70258 0.18692 0.0
H1668 H 0.86913 0.69671 0.2214 0.0
H1669 H 0.78781 0.60199 0.21857 0.0
H1670 H 0.78565 0.60738 0.18361 0.0
H1671 H 0.828 0.60378 0.24522 0.0
H1672 H 0.78217 0.67017 0.2318 0.0
H1673 H 0.78078 0.71568 0.21692 0.0
H1674 H 0.86771 0.78051 0.24552 0.0
H1675 H 0.86971 0.73541 0.26035 0.0
C1676 C 0.80583 0.62296 0.33755 0.0
C1677 C 0.82837 0.65077 0.34696 0.0
C1678 C 0.80669 0.62054 0.31748 0.0
C1679 C 0.83021 0.64582 0.30655 0.0
C1680 C 0.85371 0.67272 0.31618 0.0
C1681 C 0.85289 0.67509 0.33609 0.0
C1682 C 0.82934 0.64562 0.2851 0.0
C1683 C 0.82869 0.67088 0.27574 0.0
C1684 C 0.82905 0.62114 0.27389 0.0
C1685 C 0.83221 0.59515 0.28277 0.0
C1686 C 0.85803 0.60212 0.29489 0.0
C1687 C 0.86094 0.57754 0.30324 0.0
C1688 C 0.83832 0.54587 0.29944 0.0
C1689 C 0.81278 0.53873 0.28725 0.0
C1690 C 0.80972 0.56324 0.27889 0.0
C1691 C 0.84911 0.68026 0.19359 0.0
C1692 C 0.82551 0.65548 0.18257 0.0
C1693 C 0.85073 0.677 0.21339 0.0
C1694 C 0.82809 0.64927 0.22286 0.0
C1695 C 0.80544 0.62375 0.21172 0.0
C1696 C 0.80426 0.62677 0.19172 0.0
C1697 C 0.8273 0.6478 0.24435 0.0
C1698 C 0.82756 0.62228 0.25372 0.0
C1699 C 0.82761 0.67229 0.25567 0.0
C1700 C 0.82616 0.69943 0.24702 0.0
C1701 C 0.801 0.69415 0.2348 0.0
C1702 C 0.80013 0.71984 0.22638 0.0
C1703 C 0.82419 0.75094 0.23022 0.0
C1704 C 0.84911 0.75641 0.24254 0.0
C1705 C 0.85009 0.7308 0.25097 0.0
H1706 H 0.82349 0.77082 0.22372 0.0
H1707 H 0.84063 0.52685 0.3059 0.0
H1708 H 0.83926 0.22756 0.1862 0.0
H1709 H 0.83474 0.22663 0.22141 0.0
H1710 H 0.83346 0.13721 0.22291 0.0
H1711 H 0.83981 0.13901 0.18795 0.0
H1712 H 0.78318 0.14652 0.24713 0.0
H1713 H 0.89175 0.18021 0.23512 0.0
H1714 H 0.94698 0.21078 0.22353 0.0
H1715 H 0.95773 0.29469 0.25119 0.0
H1716 H 0.90204 0.26481 0.26238 0.0
H1717 H 0.83932 0.13884 0.34412 0.0
H1718 H 0.83225 0.1376 0.30928 0.0
H1719 H 0.82582 0.2229 0.3126 0.0
H1720 H 0.83166 0.22354 0.34766 0.0
H1721 H 0.87829 0.2161 0.28623 0.0
H1722 H 0.76622 0.17493 0.30041 0.0
H1723 H 0.71535 0.13703 0.31575 0.0
H1724 H 0.71604 0.05951 0.28642 0.0
H1725 H 0.76729 0.09694 0.27121 0.0
C1726 C 0.83734 0.20742 0.19405 0.0
C1727 C 0.83956 0.18319 0.18433 0.0
C1728 C 0.83513 0.20707 0.21417 0.0
C1729 C 0.83407 0.18199 0.22486 0.0
C1730 C 0.83446 0.15691 0.21503 0.0
C1731 C 0.83786 0.15785 0.19504 0.0
C1732 C 0.83291 0.18201 0.24628 0.0
C1733 C 0.80401 0.16183 0.25563 0.0
C1734 C 0.86009 0.20162 0.25754 0.0
C1735 C 0.89235 0.22045 0.24911 0.0
C1736 C 0.90549 0.20539 0.23822 0.0
C1737 C 0.93704 0.22252 0.2319 0.0
C1738 C 0.95589 0.25466 0.23663 0.0
C1739 C 0.94312 0.26979 0.24754 0.0
C1740 C 0.91149 0.25282 0.25376 0.0
C1741 C 0.83547 0.15681 0.33748 0.0
C1742 C 0.83565 0.18106 0.34864 0.0
C1743 C 0.83153 0.15612 0.31757 0.0
C1744 C 0.82837 0.18007 0.30831 0.0
C1745 C 0.82787 0.20399 0.31946 0.0
C1746 C 0.83095 0.2042 0.33948 0.0
C1747 C 0.82849 0.18147 0.28695 0.0
C1748 C 0.85732 0.20153 0.27764 0.0
C1749 C 0.80156 0.16114 0.2758 0.0
C1750 C 0.77076 0.13869 0.28487 0.0
C1751 C 0.75572 0.14977 0.29742 0.0
C1752 C 0.72678 0.12838 0.30605 0.0
C1753 C 0.71251 0.09587 0.30211 0.0
C1754 C 0.72714 0.08469 0.28949 0.0
C1755 C 0.75613 0.10598 0.28086 0.0
H1756 H 0.69008 0.07934 0.30879 0.0
H1757 H 0.98034 0.26785 0.23178 0.0
H1758 H 0.18813 0.3995 0.68395 0.0
H1759 H 0.19472 0.40349 0.71896 0.0
H1760 H 0.16726 0.30416 0.72151 0.0
H1761 H 0.15993 0.30005 0.68694 0.0
H1762 H 0.13546 0.31347 0.74663 0.0
H1763 H 0.2453 0.36727 0.73077 0.0
H1764 H 0.29507 0.40708 0.71521 0.0
H1765 H 0.28881 0.48221 0.7438 0.0
H1766 H 0.23866 0.44282 0.7593 0.0
H1767 H 0.16315 0.3008 0.84361 0.0
H1768 H 0.17071 0.30495 0.80898 0.0
H1769 H 0.19053 0.40203 0.81097 0.0
H1770 H 0.18418 0.39823 0.84605 0.0
H1771 H 0.22659 0.39578 0.78373 0.0
H1772 H 0.11374 0.33656 0.79899 0.0
H1773 H 0.06579 0.29334 0.81467 0.0
H1774 H 0.08183 0.22384 0.78653 0.0
H1775 H 0.12983 0.26664 0.77088 0.0
C1776 C 0.18423 0.37878 0.69199 0.0
C1777 C 0.17345 0.34947 0.68265 0.0
C1778 C 0.18794 0.38101 0.71205 0.0
C1779 C 0.18144 0.35409 0.72311 0.0
C1780 C 0.17215 0.32527 0.71353 0.0
C1781 C 0.16813 0.32298 0.69366 0.0
C1782 C 0.18213 0.35493 0.74464 0.0
C1783 C 0.15569 0.33132 0.75463 0.0
C1784 C 0.20809 0.37837 0.75539 0.0
C1785 C 0.23803 0.40214 0.746 0.0
C1786 C 0.25436 0.3923 0.73358 0.0
C1787 C 0.28267 0.41478 0.7248 0.0
C1788 C 0.29504 0.44716 0.72847 0.0
C1789 C 0.27915 0.45712 0.74094 0.0
C1790 C 0.25078 0.43473 0.74973 0.0
C1791 C 0.16974 0.32327 0.83673 0.0
C1792 C 0.17302 0.34918 0.84759 0.0
C1793 C 0.17377 0.32554 0.81684 0.0
C1794 C 0.18025 0.35349 0.80709 0.0
C1795 C 0.1853 0.38007 0.81803 0.0
C1796 C 0.18184 0.37798 0.83811 0.0
C1797 C 0.18007 0.35418 0.78556 0.0
C1798 C 0.20646 0.37806 0.77562 0.0
C1799 C 0.15438 0.3305 0.77475 0.0
C1800 C 0.12539 0.30477 0.78397 0.0
C1801 C 0.10701 0.31204 0.79631 0.0
C1802 C 0.07989 0.28766 0.80516 0.0
C1803 C 0.07087 0.25589 0.80166 0.0
C1804 C 0.08887 0.24845 0.78925 0.0
C1805 C 0.11598 0.27276 0.78037 0.0
H1806 H 0.04987 0.23703 0.8085 0.0
H1807 H 0.317 0.46454 0.72168 0.0
H1808 H 0.14355 0.83768 0.84347 0.0
H1809 H 0.14145 0.83034 0.80886 0.0
H1810 H 0.2253 0.82086 0.81137 0.0
H1811 H 0.2267 0.82719 0.84636 0.0
H1812 H 0.17991 0.86711 0.78393 0.0
H1813 H 0.23072 0.7827 0.77121 0.0
H1814 H 0.23014 0.73673 0.78672 0.0
H1815 H 0.14191 0.71268 0.81464 0.0
H1816 H 0.14174 0.75821 0.7991 0.0
H1817 H 0.23035 0.8326 0.68444 0.0
H1818 H 0.22859 0.82609 0.71951 0.0
H1819 H 0.14082 0.82845 0.72144 0.0
H1820 H 0.14349 0.83655 0.68687 0.0
H1821 H 0.18978 0.78549 0.74648 0.0
H1822 H 0.13276 0.8617 0.75543 0.0
H1823 H 0.13078 0.90619 0.73956 0.0
H1824 H 0.22718 0.94385 0.72023 0.0
H1825 H 0.22952 0.89953 0.73624 0.0
C1826 C 0.1611 0.83323 0.83671 0.0
C1827 C 0.1852 0.83284 0.84767 0.0
C1828 C 0.16003 0.82927 0.81684 0.0
C1829 C 0.18322 0.82509 0.80725 0.0
C1830 C 0.20675 0.82352 0.81829 0.0
C1831 C 0.20754 0.82705 0.83834 0.0
C1832 C 0.18375 0.82477 0.78574 0.0
C1833 C 0.1816 0.84886 0.77588 0.0
C1834 C 0.18667 0.8016 0.77489 0.0
C1835 C 0.18645 0.77407 0.78417 0.0
C1836 C 0.21117 0.76754 0.78062 0.0
C1837 C 0.21096 0.74157 0.78942 0.0
C1838 C 0.18607 0.72187 0.80171 0.0
C1839 C 0.16125 0.72803 0.80518 0.0
C1840 C 0.16132 0.75394 0.7964 0.0
C1841 C 0.21044 0.83112 0.69239 0.0
C1842 C 0.18714 0.83523 0.68295 0.0
C1843 C 0.2095 0.82758 0.71245 0.0
C1844 C 0.18507 0.82774 0.72337 0.0
C1845 C 0.1606 0.82944 0.71362 0.0
C1846 C 0.16192 0.83368 0.69376 0.0
C1847 C 0.18559 0.82756 0.74488 0.0
C1848 C 0.18806 0.80358 0.75468 0.0
C1849 C 0.18243 0.85048 0.7558 0.0
C1850 C 0.18124 0.87732 0.74667 0.0
C1851 C 0.1535 0.87957 0.74782 0.0
C1852 C 0.15228 0.90466 0.73881 0.0
C1853 C 0.17879 0.92775 0.72882 0.0
C1854 C 0.2066 0.92584 0.72785 0.0
C1855 C 0.20785 0.90073 0.7368 0.0
H1856 H 0.17782 0.94721 0.72193 0.0
H1857 H 0.18597 0.70179 0.80851 0.0
H1858 H 0.6129 0.77515 0.68466 0.0
H1859 H 0.6089 0.77525 0.71965 0.0
H1860 H 0.68598 0.87261 0.72096 0.0
H1861 H 0.6915 0.87132 0.68628 0.0
H1862 H 0.69798 0.84522 0.7461 0.0
H1863 H 0.59889 0.84237 0.73196 0.0
H1864 H 0.54604 0.82051 0.71692 0.0
H1865 H 0.5144 0.73149 0.74573 0.0
H1866 H 0.56719 0.75272 0.76075 0.0
H1867 H 0.69529 0.87159 0.84462 0.0
H1868 H 0.68856 0.87402 0.81009 0.0
H1869 H 0.61263 0.77614 0.81072 0.0
H1870 H 0.61731 0.77505 0.84568 0.0
H1871 H 0.59915 0.80273 0.78468 0.0
H1872 H 0.69886 0.80601 0.79818 0.0
H1873 H 0.75141 0.82826 0.81369 0.0
H1874 H 0.78228 0.91763 0.78547 0.0
H1875 H 0.72966 0.89595 0.77013 0.0
C1876 C 0.62824 0.79682 0.69245 0.0
C1877 C 0.6522 0.82338 0.68276 0.0
C1878 C 0.62601 0.79694 0.71254 0.0
C1879 C 0.6469 0.82411 0.72329 0.0
C1880 C 0.66964 0.85119 0.71329 0.0
C1881 C 0.67256 0.85065 0.69337 0.0
C1882 C 0.64694 0.82402 0.74487 0.0
C1883 C 0.67628 0.83641 0.75443 0.0
C1884 C 0.61881 0.81158 0.75612 0.0
C1885 C 0.587 0.79905 0.74735 0.0
C1886 C 0.58068 0.8181 0.73502 0.0
C1887 C 0.55075 0.80582 0.7265 0.0
C1888 C 0.5269 0.77461 0.73034 0.0
C1889 C 0.5329 0.75564 0.74275 0.0
C1890 C 0.56279 0.7678 0.75129 0.0
C1891 C 0.67664 0.85091 0.83739 0.0
C1892 C 0.65673 0.8232 0.84777 0.0
C1893 C 0.67312 0.85205 0.81755 0.0
C1894 C 0.65095 0.82484 0.80738 0.0
C1895 C 0.63011 0.7975 0.81798 0.0
C1896 C 0.63269 0.79685 0.838 0.0
C1897 C 0.65022 0.82451 0.78581 0.0
C1898 C 0.62081 0.81178 0.77629 0.0
C1899 C 0.67833 0.83676 0.77453 0.0
C1900 C 0.71029 0.84941 0.78318 0.0
C1901 C 0.71685 0.83038 0.79537 0.0
C1902 C 0.74662 0.84292 0.80413 0.0
C1903 C 0.77017 0.87437 0.80059 0.0
C1904 C 0.76402 0.89328 0.78822 0.0
C1905 C 0.73423 0.88088 0.77949 0.0
H1906 H 0.79319 0.88407 0.80742 0.0
H1907 H 0.50375 0.76514 0.72371 0.0
H1908 H 0.18215 0.9126 0.9572 0.0
H1909 H 0.20058 0.94929 0.98435 0.0
H1910 H 0.29444 0.96068 0.9782 0.0
H1911 H 0.27469 0.92108 0.95249 0.0
H1912 H 0.28991 0.9668 1.01186 0.0
H1913 H 0.26482 0.01651 0.96099 0.0
H1914 H 0.23204 0.02288 0.93635 0.0
H1915 H 0.16666 0.01796 0.97963 0.0
H1916 H 0.19872 0.01097 1.00449 0.0
H1917 H 0.36252 0.11184 0.06723 0.0
H1918 H 0.34617 0.07565 0.03953 0.0
H1919 H 0.24768 0.03817 0.05494 0.0
H1920 H 0.26377 0.07383 0.08254 0.0
H1921 H 0.25757 0.04879 0.01579 0.0
H1922 H 0.28075 0.9893 0.06453 0.0
H1923 H 0.31492 0.98237 0.08794 0.0
H1924 H 0.38922 0.01268 0.04584 0.0
H1925 H 0.35507 0.01897 0.02207 0.0
C1926 C 0.20651 0.92243 0.96202 0.0
C1927 C 0.22692 0.91387 0.9528 0.0
C1928 C 0.21735 0.94405 0.97733 0.0
C1929 C 0.24951 0.9593 0.98311 0.0
C1930 C 0.2696 0.94975 0.97422 0.0
C1931 C 0.25829 0.9269 0.95951 0.0
C1932 C 0.26215 0.9849 0.99834 0.0
C1933 C 0.28314 0.98499 1.01228 0.0
C1934 C 0.25345 0.00891 0.99954 0.0
C1935 C 0.23406 0.01297 0.98459 0.0
C1936 C 0.24335 0.01658 0.96524 0.0
C1937 C 0.22488 0.0203 0.95123 0.0
C1938 C 0.19727 0.02079 0.95641 0.0
C1939 C 0.18804 0.01755 0.97563 0.0
C1940 C 0.20634 0.0137 0.98968 0.0
C1941 C 0.33738 0.09628 0.06452 0.0
C1942 C 0.3145 0.09592 0.07713 0.0
C1943 C 0.32803 0.07529 0.04878 0.0
C1944 C 0.2956 0.05379 0.04515 0.0
C1945 C 0.2728 0.05435 0.05734 0.0
C1946 C 0.2821 0.07487 0.07316 0.0
C1947 C 0.28511 0.03038 0.02891 0.0
C1948 C 0.26448 0.03072 1.01494 0.0
C1949 C 0.29472 0.00734 0.02731 0.0
C1950 C 0.31558 0.00479 0.04167 0.0
C1951 C 0.30443 0.99457 0.06034 0.0
C1952 C 0.32366 0.9905 0.07359 0.0
C1953 C 0.35423 0.99707 0.06837 0.0
C1954 C 0.36555 0.00755 0.04985 0.0
C1955 C 0.3462 0.01117 0.03646 0.0
H1956 H 0.36916 0.99413 0.07871 0.0
H1957 H 0.18305 0.02373 0.94555 0.0
H1958 H 0.79032 0.66514 0.47073 0.0
H1959 H 0.7745 0.68431 0.49881 0.0
H1960 H 0.75384 0.74342 0.46227 0.0
H1961 H 0.7726 0.72721 0.43491 0.0
H1962 H 0.77599 0.77542 0.49033 0.0
H1963 H 0.69495 0.66465 0.48562 0.0
H1964 H 0.67451 0.60681 0.48438 0.0
H1965 H 0.71487 0.61055 0.53967 0.0
H1966 H 0.73587 0.66848 0.54112 0.0
H1967 H 0.65955 0.77601 0.56162 0.0
H1968 H 0.67691 0.75765 0.53354 0.0
H1969 H 0.75843 0.76941 0.56493 0.0
H1970 H 0.74257 0.78897 0.59238 0.0
H1971 H 0.70462 0.70196 0.54041 0.0
H1972 H 0.7896 0.81607 0.5415 0.0
H1973 H 0.80576 0.873 0.54178 0.0
H1974 H 0.75077 0.86018 0.491 0.0
H1975 H 0.7338 0.80297 0.49069 0.0
C1976 C 0.78282 0.6825 0.46871 0.0
C1977 C 0.78305 0.6945 0.45033 0.0
C1978 C 0.7732 0.6932 0.48484 0.0
C1979 C 0.76216 0.71511 0.48293 0.0
C1980 C 0.76229 0.72679 0.46453 0.0
C1981 C 0.77294 0.71712 0.44867 0.0
C1982 C 0.75072 0.72641 0.49974 0.0
C1983 C 0.76008 0.75897 0.50104 0.0
C1984 C 0.73008 0.70566 0.51417 0.0
C1985 C 0.71719 0.67087 0.51339 0.0
C1986 C 0.69956 0.65312 0.49746 0.0
C1987 C 0.68789 0.62034 0.49672 0.0
C1988 C 0.69346 0.60503 0.51191 0.0
C1989 C 0.71062 0.62245 0.52791 0.0
C1990 C 0.72239 0.65524 0.5287 0.0
C1991 C 0.68143 0.77521 0.56246 0.0
C1992 C 0.6996 0.78432 0.57941 0.0
C1993 C 0.69122 0.76448 0.54642 0.0
C1994 C 0.71904 0.76217 0.54713 0.0
C1995 C 0.73699 0.77106 0.56398 0.0
C1996 C 0.72773 0.78235 0.57974 0.0
C1997 C 0.72964 0.75033 0.53051 0.0
C1998 C 0.72027 0.71794 0.52943 0.0
C1999 C 0.74975 0.77099 0.51609 0.0
C2000 C 0.76003 0.80526 0.51627 0.0
C2001 C 0.78062 0.82533 0.53056 0.0
C2002 C 0.79 0.85766 0.53069 0.0
C2003 C 0.77918 0.87019 0.51647 0.0
C2004 C 0.75904 0.85043 0.50205 0.0
C2005 C 0.74951 0.81806 0.5019 0.0
H2006 H 0.7865 0.89523 0.51658 0.0
H2007 H 0.68442 0.57965 0.51131 0.0
H2008 H 0.0835 0.26349 0.95185 0.0
H2009 H 0.04694 0.24523 0.97907 0.0
H2010 H 0.06527 0.34091 0.9881 0.0
H2011 H 0.10329 0.35951 0.96126 0.0
H2012 H 0.05723 0.3133 0.02145 0.0
H2013 H 0.99568 0.2795 0.96303 0.0
H2014 H 0.98217 0.25328 0.93136 0.0
H2015 H 0.95942 0.16441 0.95768 0.0
H2016 H 0.97345 0.19039 0.98938 0.0
H2017 H 0.90957 0.26624 0.07239 0.0
H2018 H 0.94827 0.28539 0.04578 0.0
H2019 H 0.95414 0.19978 0.04898 0.0
H2020 H 0.91679 0.18136 0.076 0.0
H2021 H 0.94906 0.22203 1.00954 0.0
H2022 H 0.0095 0.25257 0.06693 0.0
H2023 H 0.02912 0.27719 0.09852 0.0
H2024 H 0.05653 0.36911 0.07501 0.0
H2025 H 0.03638 0.34488 0.04332 0.0
C2026 C 0.08027 0.28079 0.9599 0.0
C2027 C 0.09637 0.31298 0.95439 0.0
C2028 C 0.05894 0.27023 0.97535 0.0
C2029 C 0.05221 0.29135 0.98541 0.0
C2030 C 0.06962 0.32391 0.98057 0.0
C2031 C 0.09158 0.33464 0.96529 0.0
C2032 C 0.02652 0.2793 1.0005 0.0
C2033 C 0.03342 0.29377 0.01865 0.0
C2034 C 0.99553 0.25295 0.99733 0.0
C2035 C 0.98593 0.23698 0.97846 0.0
C2036 C 0.98797 0.25444 0.96196 0.0
C2037 C 0.98024 0.23963 0.94404 0.0
C2038 C 0.97004 0.20721 0.9425 0.0
C2039 C 0.96738 0.18953 0.95889 0.0
C2040 C 0.9752 0.20429 0.97683 0.0
C2041 C 0.91839 0.25113 0.06701 0.0
C2042 C 0.90975 0.22207 0.07612 0.0
C2043 C 0.94087 0.26228 0.05199 0.0
C2044 C 0.95435 0.24413 0.04541 0.0
C2045 C 0.94419 0.21425 0.05375 0.0
C2046 C 0.92262 0.20363 0.06911 0.0
C2047 C 0.9797 0.25653 0.03026 0.0
C2048 C 0.97273 0.24192 1.01219 0.0
C2049 C 0.0107 0.28246 0.03358 0.0
C2050 C 0.02091 0.29684 0.05283 0.0
C2051 C 0.01912 0.27794 0.06857 0.0
C2052 C 0.0306 0.29186 0.08646 0.0
C2053 C 0.04422 0.32472 0.08875 0.0
C2054 C 0.04609 0.34368 0.07319 0.0
C2055 C 0.03455 0.32985 0.05528 0.0
H2056 H 0.0531 0.33546 0.10261 0.0
H2057 H 0.96413 0.19578 0.92861 0.0
H2058 H 0.36652 0.10763 0.46229 0.0
H2059 H 0.34895 0.06997 0.48937 0.0
H2060 H 0.25236 0.04909 0.48088 0.0
H2061 H 0.26957 0.0857 0.45369 0.0
H2062 H 0.26889 0.05523 0.51972 0.0
H2063 H 0.27003 0.998 0.46452 0.0
H2064 H 0.29011 0.98294 0.43626 0.0
H2065 H 0.36078 0.97842 0.47097 0.0
H2066 H 0.34126 0.99374 0.49944 0.0
H2067 H 0.18389 0.91545 0.57441 0.0
H2068 H 0.20316 0.9528 0.54759 0.0
H2069 H 0.29341 0.95538 0.54986 0.0
H2070 H 0.27307 0.91612 0.57595 0.0
H2071 H 0.28195 0.96036 0.51474 0.0
H2072 H 0.27611 0.01495 0.57108 0.0
H2073 H 0.24836 0.02159 0.59885 0.0
H2074 H 0.18213 0.02829 0.56108 0.0
H2075 H 0.2091 0.02096 0.53316 0.0
C2076 C 0.34173 0.09569 0.46658 0.0
C2077 C 0.31952 0.09994 0.45592 0.0
C2078 C 0.33159 0.0738 0.48189 0.0
C2079 C 0.29919 0.05635 0.48716 0.0
C2080 C 0.27742 0.06209 0.4772 0.0
C2081 C 0.28736 0.08323 0.46167 0.0
C2082 C 0.28755 0.0314 0.50256 0.0
C2083 C 0.27172 0.03446 0.51859 0.0
C2084 C 0.29117 0.00421 0.5013 0.0
C2085 C 0.30448 0.99742 0.48403 0.0
C2086 C 0.29017 0.99428 0.46607 0.0
C2087 C 0.30124 0.9854 0.45005 0.0
C2088 C 0.32655 0.9795 0.45185 0.0
C2089 C 0.34109 0.98285 0.46962 0.0
C2090 C 0.33005 0.99165 0.48569 0.0
C2091 C 0.20756 0.92339 0.56883 0.0
C2092 C 0.22686 0.91263 0.57715 0.0
C2093 C 0.21885 0.94526 0.55367 0.0
C2094 C 0.25033 0.95814 0.54696 0.0
C2095 C 0.26915 0.94621 0.55473 0.0
C2096 C 0.25746 0.92352 0.56957 0.0
C2097 C 0.26369 0.9843 0.53216 0.0
C2098 C 0.27966 0.98141 0.51614 0.0
C2099 C 0.25999 0.01156 0.53338 0.0
C2100 C 0.24449 0.01716 0.55009 0.0
C2101 C 0.25557 0.01772 0.56875 0.0
C2102 C 0.23996 0.02157 0.5845 0.0
C2103 C 0.21346 0.02531 0.58173 0.0
C2104 C 0.20263 0.02536 0.5632 0.0
C2105 C 0.21808 0.02136 0.54742 0.0
H2106 H 0.20133 0.02818 0.59393 0.0
H2107 H 0.33508 0.97261 0.43943 0.0
H2108 H 0.75181 0.64852 0.06874 0.0
H2109 H 0.73174 0.66584 0.04176 0.0
H2110 H 0.80292 0.7634 0.05293 0.0
H2111 H 0.82227 0.74623 0.08007 0.0
H2112 H 0.75141 0.76308 0.04753 0.0
H2113 H 0.80431 0.71928 1.01284 0.0
H2114 H 0.819 0.67953 1.00291 0.0
H2115 H 0.72295 0.61665 0.98468 0.0
H2116 H 0.70753 0.65585 0.99482 0.0
H2117 H 0.74588 0.81958 0.95048 0.0
H2118 H 0.76259 0.79954 0.97764 0.0
H2119 H 0.66477 0.72959 0.98893 0.0
H2120 H 0.64768 0.75025 0.96194 0.0
H2121 H 0.72742 0.71503 0.98269 0.0
H2122 H 0.67843 0.76614 0.01983 0.0
H2123 H 0.67228 0.81254 0.02715 0.0
H2124 H 0.77266 0.86904 0.0379 0.0
H2125 H 0.77945 0.82309 0.03022 0.0
C2126 C 0.76361 0.67356 0.06513 0.0
C2127 C 0.78871 0.69594 0.07655 0.0
C2128 C 0.75205 0.68355 0.0497 0.0
C2129 C 0.76567 0.71611 0.04512 0.0
C2130 C 0.79161 0.73823 0.05611 0.0
C2131 C 0.80292 0.72832 0.07157 0.0
C2132 C 0.75235 0.72744 0.02947 0.0
C2133 C 0.74632 0.75244 0.03339 0.0
C2134 C 0.74562 0.71404 1.0108 0.0
C2135 C 0.75467 0.69032 1.00482 0.0
C2136 C 0.78624 0.69684 1.00689 0.0
C2137 C 0.79471 0.67443 1.0012 0.0
C2138 C 0.7719 0.64553 0.99322 0.0
C2139 C 0.74057 0.63901 0.9909 0.0
C2140 C 0.73195 0.66131 0.99663 0.0
C2141 C 0.72779 0.80037 0.95898 0.0
C2142 C 0.69537 0.78679 0.95415 0.0
C2143 C 0.73744 0.7888 0.97445 0.0
C2144 C 0.71501 0.76298 0.98531 0.0
C2145 C 0.68252 0.7496 0.98077 0.0
C2146 C 0.67273 0.76166 0.96549 0.0
C2147 C 0.72595 0.74984 1.00106 0.0
C2148 C 0.732 0.72498 0.99702 0.0
C2149 C 0.73362 0.76393 0.01943 0.0
C2150 C 0.72948 0.79135 0.02422 0.0
C2151 C 0.69922 0.78857 0.02352 0.0
C2152 C 0.69562 0.81476 0.02778 0.0
C2153 C 0.72208 0.84376 0.03293 0.0
C2154 C 0.75219 0.84659 0.03387 0.0
C2155 C 0.75593 0.82049 0.02957 0.0
H2156 H 0.71924 0.864 0.03624 0.0
H2157 H 0.77852 0.62823 0.98879 0.0
H2158 H 0.09808 0.35977 0.57287 0.0
H2159 H 0.05998 0.34048 0.54604 0.0
H2160 H 0.05846 0.25095 0.54717 0.0
H2161 H 0.09507 0.26947 0.57452 0.0
H2162 H 0.06431 0.28684 0.5073 0.0
H2163 H 1.00329 0.23862 0.56409 0.0
H2164 H 0.98248 0.23567 0.59667 0.0
H2165 H 0.94534 0.29595 0.57981 0.0
H2166 H 0.96694 0.3001 0.54724 0.0
H2167 H 0.93367 0.18764 0.44906 0.0
H2168 H 0.9707 0.20726 0.47589 0.0
H2169 H 0.93977 0.27424 0.48982 0.0
H2170 H 0.90165 0.25376 0.4631 0.0
H2171 H 0.95125 0.25167 0.52197 0.0
H2172 H 0.01041 0.29574 0.46351 0.0
H2173 H 0.02645 0.29152 0.43055 0.0
H2174 H 0.06388 0.23306 0.4505 0.0
H2175 H 0.04782 0.23671 0.48355 0.0
C2176 C 0.09025 0.33632 0.56704 0.0
C2177 C 0.09986 0.31627 0.57567 0.0
C2178 C 0.0682 0.32516 0.55186 0.0
C2179 C 0.05612 0.29413 0.54465 0.0
C2180 C 0.0673 0.27489 0.55248 0.0
C2181 C 0.0884 0.28559 0.56804 0.0
C2182 C 0.03102 0.28127 0.52944 0.0
C2183 C 0.03959 0.27906 0.51053 0.0
C2184 C 0.99869 0.27115 0.53353 0.0
C2185 C 0.98739 0.27028 0.55335 0.0
C2186 C 0.9914 0.2519 0.56744 0.0
C2187 C 0.97922 0.24978 0.58587 0.0
C2188 C 0.96253 0.26555 0.5903 0.0
C2189 C 0.95821 0.28368 0.57634 0.0
C2190 C 0.97057 0.28606 0.55793 0.0
C2191 C 0.9343 0.20618 0.45803 0.0
C2192 C 0.91466 0.21913 0.45389 0.0
C2193 C 0.95581 0.21767 0.4733 0.0
C2194 C 0.95894 0.243 0.48467 0.0
C2195 C 0.93814 0.25489 0.48122 0.0
C2196 C 0.91616 0.24303 0.466 0.0
C2197 C 0.98447 0.25744 0.49971 0.0
C2198 C 0.97603 0.25989 0.51863 0.0
C2199 C 0.01688 0.26743 0.49566 0.0
C2200 C 0.02777 0.26637 0.47596 0.0
C2201 C 0.02204 0.28197 0.46085 0.0
C2202 C 0.03108 0.27964 0.44216 0.0
C2203 C 0.04605 0.26194 0.43843 0.0
C2204 C 0.05225 0.24674 0.45341 0.0
C2205 C 0.04326 0.249 0.47213 0.0
H2206 H 0.05288 0.26005 0.42394 0.0
H2207 H 0.95307 0.26386 0.60458 0.0
H2208 H 0.68161 0.24212 0.11485 0.0
H2209 H 0.6269 0.22581 0.12307 0.0
H2210 H 0.60476 0.12812 0.12672 0.0
H2211 H 0.65951 0.14415 0.11724 0.0
H2212 H 0.55898 0.12997 0.10818 0.0
H2213 H 0.60943 0.1734 0.16787 0.0
H2214 H 0.64958 0.21262 0.18988 0.0
H2215 H 0.62337 0.28167 0.17323 0.0
H2216 H 0.58331 0.24296 0.15096 0.0
H2217 H 0.41134 0.11258 0.15836 0.0
H2218 H 0.46519 0.11956 0.15926 0.0
H2219 H 0.49079 0.17908 0.10912 0.0
H2220 H 0.4373 0.17179 0.10781 0.0
H2221 H 0.53174 0.18823 0.15621 0.0
H2222 H 0.50362 0.14354 0.08521 0.0
H2223 H 0.45916 0.10292 0.06591 0.0
H2224 H 0.43908 0.0332 0.10967 0.0
H2225 H 0.48321 0.07362 0.12926 0.0
C2226 C 0.66521 0.21708 0.11728 0.0
C2227 C 0.67517 0.19449 0.1151 0.0
C2228 C 0.63385 0.2078 0.1223 0.0
C2229 C 0.61152 0.17571 0.12581 0.0
C2230 C 0.62146 0.15305 0.12415 0.0
C2231 C 0.65294 0.16232 0.1189 0.0
C2232 C 0.57765 0.16607 0.13022 0.0
C2233 C 0.55325 0.14249 0.11893 0.0
C2234 C 0.5695 0.18199 0.1443 0.0
C2235 C 0.59349 0.20532 0.15769 0.0
C2236 C 0.61236 0.197 0.16883 0.0
C2237 C 0.63508 0.21913 0.18136 0.0
C2238 C 0.63905 0.24963 0.18293 0.0
C2239 C 0.62027 0.25804 0.172 0.0
C2240 C 0.59751 0.23599 0.15945 0.0
C2241 C 0.4284 0.12709 0.14752 0.0
C2242 C 0.4198 0.14124 0.13286 0.0
C2243 C 0.45919 0.13118 0.14812 0.0
C2244 C 0.48185 0.14972 0.1342 0.0
C2245 C 0.47356 0.1645 0.11991 0.0
C2246 C 0.44289 0.16023 0.11919 0.0
C2247 C 0.514 0.15309 0.1339 0.0
C2248 C 0.53784 0.17548 0.14582 0.0
C2249 C 0.52166 0.13592 0.1207 0.0
C2250 C 0.49674 0.11132 0.10849 0.0
C2251 C 0.48986 0.11943 0.09056 0.0
C2252 C 0.46464 0.09654 0.07965 0.0
C2253 C 0.44637 0.06547 0.08654 0.0
C2254 C 0.45329 0.05724 0.10434 0.0
C2255 C 0.47836 0.08011 0.11534 0.0
H2256 H 0.42682 0.0478 0.07809 0.0
H2257 H 0.65666 0.26673 0.19265 0.0
H2258 H 0.70485 0.59668 0.37378 0.0
H2259 H 0.6588 0.54242 0.37349 0.0
H2260 H 0.70219 0.51514 0.41779 0.0
H2261 H 0.74744 0.56922 0.41875 0.0
H2262 H 0.66887 0.47406 0.37574 0.0
H2263 H 0.657 0.5149 0.44025 0.0
H2264 H 0.65667 0.55897 0.45778 0.0
H2265 H 0.58576 0.55519 0.41936 0.0
H2266 H 0.58601 0.51129 0.40152 0.0
H2267 H 0.57101 0.32521 0.41641 0.0
H2268 H 0.60938 0.37994 0.40893 0.0
H2269 H 0.53343 0.40095 0.40169 0.0
H2270 H 0.49457 0.34622 0.41062 0.0
H2271 H 0.57876 0.44773 0.42003 0.0
H2272 H 0.57742 0.39485 0.36278 0.0
H2273 H 0.57822 0.35336 0.34277 0.0
H2274 H 0.67287 0.38215 0.36208 0.0
H2275 H 0.67241 0.42342 0.3825 0.0
C2276 C 0.70451 0.57921 0.38352 0.0
C2277 C 0.72962 0.58753 0.39651 0.0
C2278 C 0.67827 0.54818 0.38326 0.0
C2279 C 0.67714 0.52486 0.39565 0.0
C2280 C 0.7026 0.53283 0.40815 0.0
C2281 C 0.7284 0.56385 0.40871 0.0
C2282 C 0.64902 0.49233 0.39628 0.0
C2283 C 0.64912 0.46813 0.38539 0.0
C2284 C 0.62289 0.48492 0.40838 0.0
C2285 C 0.62155 0.51001 0.41961 0.0
C2286 C 0.64135 0.52351 0.43559 0.0
C2287 C 0.64122 0.54846 0.44555 0.0
C2288 C 0.62122 0.55989 0.43969 0.0
C2289 C 0.60122 0.5463 0.4239 0.0
C2290 C 0.60132 0.52138 0.41388 0.0
C2291 C 0.56216 0.34126 0.41335 0.0
C2292 C 0.52935 0.33084 0.41426 0.0
C2293 C 0.58434 0.37273 0.40876 0.0
C2294 C 0.57451 0.39476 0.40436 0.0
C2295 C 0.54176 0.38449 0.40492 0.0
C2296 C 0.51945 0.35294 0.40981 0.0
C2297 C 0.59873 0.42858 0.39988 0.0
C2298 C 0.59804 0.45327 0.41007 0.0
C2299 C 0.6241 0.43645 0.3868 0.0
C2300 C 0.6248 0.41213 0.37424 0.0
C2301 C 0.59835 0.39224 0.36282 0.0
C2302 C 0.59874 0.36874 0.35142 0.0
C2303 C 0.62557 0.3651 0.35117 0.0
C2304 C 0.6521 0.385 0.36229 0.0
C2305 C 0.6518 0.40847 0.37377 0.0
H2306 H 0.62581 0.34688 0.34234 0.0
H2307 H 0.62122 0.57927 0.44738 0.0
H2308 H 0.90988 0.31163 0.11299 0.0
H2309 H 0.90284 0.35836 0.11472 0.0
H2310 H 0.823 0.30742 0.1529 0.0
H2311 H 0.8307 0.26101 0.15152 0.0
H2312 H 0.80913 0.33409 0.12198 0.0
H2313 H 0.88704 0.36848 0.17122 0.0
H2314 H 0.93753 0.38073 0.18667 0.0
H2315 H 0.98993 0.44847 0.14245 0.0
H2316 H 0.93959 0.43674 0.12679 0.0
H2317 H 0.78057 0.46151 0.13377 0.0
H2318 H 0.79485 0.42145 0.14305 0.0
H2319 H 0.87995 0.46915 0.10856 0.0
H2320 H 0.8659 0.50955 0.09964 0.0
H2321 H 0.89085 0.44386 0.14028 0.0
H2322 H 0.81108 0.40777 0.09089 0.0
H2323 H 0.75973 0.39575 0.07668 0.0
H2324 H 0.70974 0.32892 0.12177 0.0
H2325 H 0.76085 0.34105 0.13646 0.0
C2326 C 0.8914 0.31085 0.1221 0.0
C2327 C 0.8711 0.28315 0.13234 0.0
C2328 C 0.88732 0.33744 0.12307 0.0
C2329 C 0.86248 0.33648 0.13403 0.0
C2330 C 0.84239 0.30876 0.14443 0.0
C2331 C 0.84682 0.28237 0.1437 0.0
C2332 C 0.8561 0.3635 0.13347 0.0
C2333 C 0.82678 0.35798 0.12632 0.0
C2334 C 0.87932 0.39479 0.13871 0.0
C2335 C 0.90962 0.40157 0.14778 0.0
C2336 C 0.90934 0.38582 0.16472 0.0
C2337 C 0.93792 0.39278 0.17356 0.0
C2338 C 0.96694 0.41533 0.16553 0.0
C2339 C 0.96743 0.43103 0.14866 0.0
C2340 C 0.93888 0.42434 0.13984 0.0
C2341 C 0.80289 0.464 0.12878 0.0
C2342 C 0.8224 0.48876 0.11624 0.0
C2343 C 0.81088 0.44095 0.1339 0.0
C2344 C 0.8382 0.44188 0.12622 0.0
C2345 C 0.85877 0.46785 0.11467 0.0
C2346 C 0.85085 0.49101 0.10965 0.0
C2347 C 0.84381 0.41449 0.12876 0.0
C2348 C 0.87306 0.41994 0.13611 0.0
C2349 C 0.82044 0.38301 0.12374 0.0
C2350 C 0.78975 0.37561 0.11489 0.0
C2351 C 0.78913 0.39072 0.09786 0.0
C2352 C 0.76008 0.38387 0.08972 0.0
C2353 C 0.73149 0.36165 0.09835 0.0
C2354 C 0.7319 0.34619 0.11513 0.0
C2355 C 0.7609 0.35306 0.12337 0.0
H2356 H 0.70901 0.35636 0.09202 0.0
H2357 H 0.98907 0.42062 0.17237 0.0
H2358 H 0.44055 0.17182 0.4254 0.0
H2359 H 0.49487 0.18181 0.42228 0.0
H2360 H 0.46759 0.12116 0.37258 0.0
H2361 H 0.41354 0.11317 0.3747 0.0
H2362 H 0.50371 0.11225 0.40924 0.0
H2363 H 0.5074 0.1831 0.35949 0.0
H2364 H 0.49892 0.22551 0.3465 0.0
H2365 H 0.56205 0.2906 0.38876 0.0
H2366 H 0.57009 0.24828 0.40245 0.0
H2367 H 0.66378 0.14678 0.40476 0.0
H2368 H 0.61187 0.13628 0.39251 0.0
H2369 H 0.62602 0.22274 0.41912 0.0
H2370 H 0.67782 0.23361 0.43072 0.0
H2371 H 0.595 0.21506 0.388 0.0
H2372 H 0.58501 0.14872 0.44132 0.0
H2373 H 0.59154 0.10882 0.45952 0.0
H2374 H 0.53945 0.03867 0.41643 0.0
H2375 H 0.53308 0.07836 0.39781 0.0
C2376 C 0.44611 0.16107 0.41359 0.0
C2377 C 0.42256 0.14176 0.4003 0.0
C2378 C 0.47717 0.16666 0.4119 0.0
C2379 C 0.4852 0.15233 0.39717 0.0
C2380 C 0.46179 0.13252 0.38401 0.0
C2381 C 0.43083 0.12776 0.38535 0.0
C2382 C 0.51795 0.1575 0.39619 0.0
C2383 C 0.52368 0.13432 0.40409 0.0
C2384 C 0.54391 0.18688 0.39024 0.0
C2385 C 0.53906 0.21238 0.38212 0.0
C2386 C 0.5191 0.20631 0.36621 0.0
C2387 C 0.51439 0.23036 0.35872 0.0
C2388 C 0.5298 0.2607 0.36689 0.0
C2389 C 0.54996 0.26704 0.38256 0.0
C2390 C 0.55459 0.24303 0.39019 0.0
C2391 C 0.65615 0.16396 0.40742 0.0
C2392 C 0.67466 0.19085 0.41882 0.0
C2393 C 0.62636 0.15781 0.40061 0.0
C2394 C 0.61462 0.17836 0.40523 0.0
C2395 C 0.63431 0.20641 0.41538 0.0
C2396 C 0.66394 0.21257 0.42208 0.0
C2397 C 0.58106 0.16975 0.40112 0.0
C2398 C 0.57511 0.19249 0.39257 0.0
C2399 C 0.55485 0.14032 0.40705 0.0
C2400 C 0.55904 0.11659 0.41804 0.0
C2401 C 0.57527 0.12487 0.43563 0.0
C2402 C 0.57889 0.10229 0.44603 0.0
C2403 C 0.56604 0.07126 0.43909 0.0
C2404 C 0.5495 0.06274 0.42174 0.0
C2405 C 0.54591 0.08527 0.41125 0.0
H2406 H 0.56881 0.05379 0.44719 0.0
H2407 H 0.52623 0.27933 0.36103 0.0
H2408 H 0.49271 0.3491 0.11825 0.0
H2409 H 0.53112 0.40363 0.12833 0.0
H2410 H 0.60742 0.38261 0.1229 0.0
H2411 H 0.56922 0.32822 0.11366 0.0
H2412 H 0.62142 0.42119 0.1509 0.0
H2413 H 0.58688 0.41908 0.08652 0.0
H2414 H 0.5485 0.40825 0.06048 0.0
H2415 H 0.51955 0.46958 0.0872 0.0
H2416 H 0.55745 0.48037 0.11358 0.0
H2417 H 0.74431 0.57236 0.10972 0.0
H2418 H 0.69901 0.51836 0.11134 0.0
H2419 H 0.65666 0.54721 0.15561 0.0
H2420 H 0.70293 0.60119 0.15478 0.0
H2421 H 0.62282 0.50704 0.11164 0.0
H2422 H 0.66383 0.50867 0.17671 0.0
H2423 H 0.7086 0.52057 0.19832 0.0
H2424 H 0.73136 0.46006 0.165 0.0
H2425 H 0.68706 0.44837 0.14297 0.0
C2426 C 0.51755 0.35591 0.11975 0.0
C2427 C 0.52794 0.3344 0.11492 0.0
C2428 C 0.5396 0.38723 0.12529 0.0
C2429 C 0.57246 0.39768 0.12597 0.0
C2430 C 0.58239 0.37546 0.12243 0.0
C2431 C 0.56046 0.3443 0.11703 0.0
C2432 C 0.59688 0.43197 0.12901 0.0
C2433 C 0.62139 0.43986 0.14239 0.0
C2434 C 0.59749 0.45672 0.11787 0.0
C2435 C 0.57461 0.45014 0.10213 0.0
C2436 C 0.5721 0.43001 0.08692 0.0
C2437 C 0.55048 0.42391 0.0721 0.0
C2438 C 0.53151 0.43812 0.07222 0.0
C2439 C 0.53418 0.45851 0.08716 0.0
C2440 C 0.55571 0.46461 0.10205 0.0
C2441 C 0.72555 0.56733 0.11995 0.0
C2442 C 0.72722 0.59141 0.13203 0.0
C2443 C 0.69962 0.53636 0.12082 0.0
C2444 C 0.67449 0.52875 0.13359 0.0
C2445 C 0.67592 0.55256 0.14571 0.0
C2446 C 0.70233 0.58349 0.14516 0.0
C2447 C 0.64658 0.49596 0.13369 0.0
C2448 C 0.62195 0.48836 0.12059 0.0
C2449 C 0.64625 0.47142 0.14473 0.0
C2450 C 0.67245 0.47799 0.1581 0.0
C2451 C 0.67862 0.49821 0.17388 0.0
C2452 C 0.70385 0.50486 0.18623 0.0
C2453 C 0.72287 0.49115 0.18301 0.0
C2454 C 0.71664 0.4707 0.16747 0.0
C2455 C 0.69148 0.46406 0.15505 0.0
H2456 H 0.74238 0.4963 0.1926 0.0
H2457 H 0.51481 0.43341 0.06072 0.0
H2458 H 0.87859 0.51441 0.43009 0.0
H2459 H 0.89129 0.47373 0.41965 0.0
H2460 H 0.8023 0.4256 0.38897 0.0
H2461 H 0.78954 0.46615 0.39971 0.0
H2462 H 0.80674 0.38605 0.41188 0.0
H2463 H 0.87584 0.4593 0.36567 0.0
H2464 H 0.91848 0.51001 0.35268 0.0
H2465 H 0.98691 0.50343 0.38846 0.0
H2466 H 0.94456 0.4529 0.40192 0.0
H2467 H 0.83722 0.26391 0.37777 0.0
H2468 H 0.83054 0.31102 0.37689 0.0
H2469 H 0.90471 0.3569 0.41907 0.0
H2470 H 0.91041 0.30932 0.4205 0.0
H2471 H 0.90766 0.3975 0.3867 0.0
H2472 H 0.83651 0.32752 0.43502 0.0
H2473 H 0.7922 0.28015 0.45012 0.0
H2474 H 0.72678 0.2823 0.40962 0.0
H2475 H 0.77082 0.32935 0.39402 0.0
C2476 C 0.86241 0.4958 0.42049 0.0
C2477 C 0.8334 0.49367 0.41537 0.0
C2478 C 0.86961 0.47248 0.41454 0.0
C2479 C 0.84786 0.44651 0.40339 0.0
C2480 C 0.81956 0.44537 0.39749 0.0
C2481 C 0.81237 0.46868 0.40345 0.0
C2482 C 0.85269 0.41873 0.40003 0.0
C2483 C 0.82855 0.38857 0.40588 0.0
C2484 C 0.88147 0.42188 0.39277 0.0
C2485 C 0.90696 0.45245 0.38494 0.0
C2486 C 0.89992 0.46882 0.37093 0.0
C2487 C 0.92405 0.49751 0.36344 0.0
C2488 C 0.95538 0.50997 0.36977 0.0
C2489 C 0.96263 0.49376 0.38359 0.0
C2490 C 0.93857 0.46509 0.39114 0.0
C2491 C 0.85227 0.28425 0.38666 0.0
C2492 C 0.8744 0.28324 0.39915 0.0
C2493 C 0.84843 0.31107 0.38619 0.0
C2494 C 0.86716 0.33753 0.3979 0.0
C2495 C 0.89012 0.33687 0.40985 0.0
C2496 C 0.89335 0.30975 0.41068 0.0
C2497 C 0.86163 0.36512 0.39852 0.0
C2498 C 0.88568 0.39512 0.3923 0.0
C2499 C 0.83267 0.36191 0.40529 0.0
C2500 C 0.80698 0.33168 0.41323 0.0
C2501 C 0.81283 0.31743 0.42904 0.0
C2502 C 0.78776 0.29079 0.43776 0.0
C2503 C 0.75678 0.27848 0.43088 0.0
C2504 C 0.75084 0.29202 0.41493 0.0
C2505 C 0.77583 0.3186 0.40612 0.0
H2506 H 0.7373 0.25886 0.43812 0.0
H2507 H 0.97405 0.53216 0.36393 0.0
H2508 H 0.13735 0.65219 0.6191 0.0
H2509 H 0.12631 0.59911 0.62945 0.0
H2510 H 0.22596 0.62901 0.62352 0.0
H2511 H 0.23684 0.68158 0.61315 0.0
H2512 H 0.18917 0.57727 0.60222 0.0
H2513 H 0.18913 0.61087 0.66708 0.0
H2514 H 0.1717 0.63126 0.69411 0.0
H2515 H 0.07643 0.55268 0.68852 0.0
H2516 H 0.09319 0.5321 0.66124 0.0
H2517 H 0.1919 0.43997 0.62662 0.0
H2518 H 0.20113 0.49415 0.62773 0.0
H2519 H 0.10256 0.45808 0.64281 0.0
H2520 H 0.09411 0.40391 0.64307 0.0
H2521 H 0.1355 0.51207 0.65957 0.0
H2522 H 0.13336 0.47908 0.59466 0.0
H2523 H 0.149 0.45745 0.5674 0.0
H2524 H 0.2454 0.53428 0.57195 0.0
H2525 H 0.23041 0.5561 0.59941 0.0
C2526 C 0.15698 0.64769 0.62075 0.0
C2527 C 0.18797 0.67097 0.61539 0.0
C2528 C 0.15066 0.61732 0.62657 0.0
C2529 C 0.17529 0.60992 0.62715 0.0
C2530 C 0.20653 0.63401 0.6231 0.0
C2531 C 0.21279 0.66413 0.6173 0.0
C2532 C 0.16846 0.57652 0.62964 0.0
C2533 C 0.17781 0.56322 0.61491 0.0
C2534 C 0.15247 0.55757 0.64578 0.0
C2535 C 0.14233 0.57018 0.66198 0.0
C2536 C 0.16438 0.59815 0.67147 0.0
C2537 C 0.15464 0.60969 0.68687 0.0
C2538 C 0.12296 0.59333 0.69299 0.0
C2539 C 0.10095 0.56537 0.68373 0.0
C2540 C 0.11055 0.55376 0.66831 0.0
C2541 C 0.17233 0.44364 0.63045 0.0
C2542 C 0.14217 0.41762 0.63457 0.0
C2543 C 0.17752 0.47467 0.63093 0.0
C2544 C 0.15229 0.48039 0.63464 0.0
C2545 C 0.12244 0.45447 0.6397 0.0
C2546 C 0.11753 0.42339 0.63983 0.0
C2547 C 0.15686 0.5131 0.63231 0.0
C2548 C 0.14686 0.52614 0.6469 0.0
C2549 C 0.17188 0.53184 0.61588 0.0
C2550 C 0.1808 0.51908 0.59915 0.0
C2551 C 0.15791 0.49128 0.58988 0.0
C2552 C 0.16666 0.47898 0.57441 0.0
C2553 C 0.19818 0.49445 0.56797 0.0
C2554 C 0.221 0.52231 0.57696 0.0
C2555 C 0.21238 0.53467 0.59246 0.0
H2556 H 0.20492 0.48488 0.556 0.0
H2557 H 0.11548 0.60228 0.70493 0.0
H2558 H 0.31281 0.90912 0.91954 0.0
H2559 H 0.35878 0.90069 0.91852 0.0
H2560 H 0.31569 0.83484 0.87171 0.0
H2561 H 0.27016 0.8441 0.87235 0.0
H2562 H 0.33502 0.81175 0.9053 0.0
H2563 H 0.37577 0.89782 0.86062 0.0
H2564 H 0.38792 0.95125 0.85025 0.0
H2565 H 0.45341 0.99305 0.89697 0.0
H2566 H 0.44115 0.93972 0.90786 0.0
H2567 H 0.45617 0.77597 0.89216 0.0
H2568 H 0.41876 0.79438 0.88465 0.0
H2569 H 0.47154 0.87618 0.92103 0.0
H2570 H 0.50998 0.85835 0.92784 0.0
H2571 H 0.44748 0.89238 0.8915 0.0
H2572 H 0.40575 0.80756 0.93716 0.0
H2573 H 0.39102 0.75443 0.94962 0.0
H2574 H 0.32491 0.71081 0.90339 0.0
H2575 H 0.33997 0.76364 0.89031 0.0
C2576 C 0.31369 0.89352 0.90873 0.0
C2577 C 0.28841 0.8776 0.89583 0.0
C2578 C 0.33979 0.88862 0.9082 0.0
C2579 C 0.34063 0.86712 0.89505 0.0
C2580 C 0.31555 0.8516 0.88192 0.0
C2581 C 0.28977 0.85709 0.88216 0.0
C2582 C 0.36678 0.85953 0.89584 0.0
C2583 C 0.35953 0.82915 0.90193 0.0
C2584 C 0.39884 0.88261 0.89208 0.0
C2585 C 0.40737 0.91477 0.88514 0.0
C2586 C 0.39265 0.91839 0.86874 0.0
C2587 C 0.39953 0.94865 0.86278 0.0
C2588 C 0.42136 0.97553 0.87297 0.0
C2589 C 0.43648 0.97219 0.8891 0.0
C2590 C 0.4296 0.94195 0.89517 0.0
C2591 C 0.46011 0.79821 0.89823 0.0
C2592 C 0.4858 0.81563 0.91065 0.0
C2593 C 0.43864 0.80867 0.89402 0.0
C2594 C 0.44174 0.8363 0.90264 0.0
C2595 C 0.46847 0.85474 0.91425 0.0
C2596 C 0.49041 0.84454 0.91816 0.0
C2597 C 0.41573 0.84424 0.90076 0.0
C2598 C 0.42298 0.87478 0.89467 0.0
C2599 C 0.38351 0.82136 0.90472 0.0
C2600 C 0.37424 0.78955 0.91265 0.0
C2601 C 0.38829 0.78662 0.92955 0.0
C2602 C 0.37992 0.75654 0.93671 0.0
C2603 C 0.35718 0.72922 0.92723 0.0
C2604 C 0.3427 0.73194 0.91062 0.0
C2605 C 0.35116 0.76195 0.90332 0.0
H2606 H 0.35068 0.70594 0.9328 0.0
H2607 H 0.42659 0.99894 0.86836 0.0
H2608 H 0.58313 0.72813 0.60145 0.0
H2609 H 0.53055 0.6812 0.60232 0.0
H2610 H 0.54328 0.66724 0.66195 0.0
H2611 H 0.59696 0.71418 0.66103 0.0
H2612 H 0.51415 0.61141 0.64366 0.0
H2613 H 0.49658 0.70026 0.64721 0.0
H2614 H 0.50119 0.75133 0.63752 0.0
H2615 H 0.46098 0.71198 0.58266 0.0
H2616 H 0.45661 0.66091 0.59183 0.0
H2617 H 0.34757 0.49091 0.64254 0.0
H2618 H 0.39683 0.53948 0.65209 0.0
H2619 H 0.41001 0.57342 0.59384 0.0
H2620 H 0.36119 0.52546 0.58444 0.0
H2621 H 0.42349 0.62045 0.61824 0.0
H2622 H 0.44878 0.53624 0.61179 0.0
H2623 H 0.444 0.48448 0.61962 0.0
H2624 H 0.46998 0.51435 0.67791 0.0
H2625 H 0.47443 0.56615 0.67046 0.0
C2626 C 0.57494 0.71514 0.6148 0.0
C2627 C 0.59424 0.72515 0.63124 0.0
C2628 C 0.54464 0.68832 0.6153 0.0
C2629 C 0.53244 0.67108 0.63234 0.0
C2630 C 0.552 0.68033 0.64867 0.0
C2631 C 0.58267 0.70715 0.64813 0.0
C2632 C 0.49931 0.64348 0.63278 0.0
C2633 C 0.4942 0.61355 0.6385 0.0
C2634 C 0.47318 0.64594 0.6258 0.0
C2635 C 0.47631 0.67681 0.62021 0.0
C2636 C 0.48894 0.70259 0.63304 0.0
C2637 C 0.4915 0.73149 0.62764 0.0
C2638 C 0.48128 0.7347 0.60953 0.0
C2639 C 0.46877 0.70929 0.59669 0.0
C2640 C 0.46624 0.6804 0.60198 0.0
C2641 C 0.36076 0.50915 0.63195 0.0
C2642 C 0.3507 0.50455 0.61277 0.0
C2643 C 0.38899 0.53668 0.63735 0.0
C2644 C 0.40738 0.55996 0.62363 0.0
C2645 C 0.39636 0.55587 0.60469 0.0
C2646 C 0.36846 0.52846 0.59932 0.0
C2647 C 0.4386 0.58833 0.62845 0.0
C2648 C 0.44332 0.61844 0.62379 0.0
C2649 C 0.46433 0.58592 0.63617 0.0
C2650 C 0.46147 0.55481 0.64065 0.0
C2651 C 0.45315 0.53162 0.62632 0.0
C2652 C 0.45056 0.50232 0.63068 0.0
C2653 C 0.45656 0.49608 0.64927 0.0
C2654 C 0.46524 0.51918 0.66354 0.0
C2655 C 0.46778 0.5485 0.65926 0.0
H2656 H 0.45459 0.47339 0.65262 0.0
H2657 H 0.48284 0.75677 0.60543 0.0
H2658 H 0.21069 0.67008 0.93385 0.0
H2659 H 0.2096 0.62083 0.92451 0.0
H2660 H 0.1406 0.60511 0.88067 0.0
H2661 H 0.1414 0.65418 0.89034 0.0
H2662 H 0.11971 0.55452 0.90172 0.0
H2663 H 0.21817 0.62125 0.87029 0.0
H2664 H 0.2737 0.66376 0.86532 0.0
H2665 H 0.30507 0.62303 0.90873 0.0
H2666 H 0.24965 0.58063 0.91425 0.0
H2667 H 0.11569 0.41085 0.87182 0.0
H2668 H 0.12554 0.46558 0.87042 0.0
H2669 H 0.18372 0.48899 0.92107 0.0
H2670 H 0.17318 0.43445 0.92294 0.0
H2671 H 0.21043 0.53574 0.8922 0.0
H2672 H 0.11189 0.47384 0.92627 0.0
H2673 H 0.05697 0.42959 0.93056 0.0
H2674 H 0.02685 0.46128 0.88165 0.0
H2675 H 0.0818 0.50539 0.87683 0.0
C2676 C 0.1962 0.65661 0.92178 0.0
C2677 C 0.17656 0.66605 0.91255 0.0
C2678 C 0.19552 0.62845 0.91644 0.0
C2679 C 0.17516 0.60921 0.90176 0.0
C2680 C 0.15658 0.61951 0.89198 0.0
C2681 C 0.15723 0.64765 0.89736 0.0
C2682 C 0.17063 0.57689 0.89812 0.0
C2683 C 0.13959 0.55062 0.89918 0.0
C2684 C 0.1965 0.57143 0.89534 0.0
C2685 C 0.22966 0.59786 0.89277 0.0
C2686 C 0.23683 0.6216 0.87898 0.0
C2687 C 0.26831 0.64563 0.87602 0.0
C2688 C 0.29289 0.64604 0.88667 0.0
C2689 C 0.286 0.62265 0.90047 0.0
C2690 C 0.25456 0.59863 0.90353 0.0
C2691 C 0.13036 0.42757 0.8827 0.0
C2692 C 0.143 0.41801 0.8977 0.0
C2693 C 0.13617 0.45889 0.88182 0.0
C2694 C 0.15526 0.4813 0.89571 0.0
C2695 C 0.16897 0.47212 0.9102 0.0
C2696 C 0.16272 0.44081 0.91129 0.0
C2697 C 0.15979 0.51391 0.8959 0.0
C2698 C 0.1907 0.54001 0.89437 0.0
C2699 C 0.13392 0.51929 0.8983 0.0
C2700 C 0.10097 0.49271 0.90108 0.0
C2701 C 0.09362 0.47118 0.91631 0.0
C2702 C 0.06249 0.44617 0.91886 0.0
C2703 C 0.03843 0.44272 0.90643 0.0
C2704 C 0.04551 0.46406 0.8913 0.0
C2705 C 0.07664 0.48904 0.88864 0.0
H2706 H 0.01428 0.42355 0.90855 0.0
H2707 H 0.31729 0.66441 0.88419 0.0
H2708 H 0.26175 0.82312 0.62312 0.0
H2709 H 0.3095 0.81808 0.62472 0.0
H2710 H 0.36377 0.91464 0.64501 0.0
H2711 H 0.31572 0.91949 0.64396 0.0
H2712 H 0.38443 0.88783 0.60776 0.0
H2713 H 0.35918 0.87563 0.67576 0.0
H2714 H 0.32176 0.85109 0.70267 0.0
H2715 H 0.30564 0.75896 0.68601 0.0
H2716 H 0.34247 0.78292 0.65872 0.0
H2717 H 0.52574 0.88199 0.61369 0.0
H2718 H 0.4849 0.89475 0.62399 0.0
H2719 H 0.41807 0.79476 0.63147 0.0
H2720 H 0.45894 0.78221 0.62159 0.0
H2721 H 0.40543 0.82702 0.65708 0.0
H2722 H 0.42171 0.83162 0.58996 0.0
H2723 H 0.45181 0.84819 0.55966 0.0
H2724 H 0.47688 0.94511 0.57048 0.0
H2725 H 0.44741 0.92916 0.60107 0.0
C2726 C 0.28378 0.84321 0.62812 0.0
C2727 C 0.28496 0.87176 0.63347 0.0
C2728 C 0.311 0.84025 0.62904 0.0
C2729 C 0.34011 0.86596 0.635 0.0
C2730 C 0.34144 0.89448 0.64045 0.0
C2731 C 0.31395 0.89719 0.63996 0.0
C2732 C 0.36923 0.86314 0.63462 0.0
C2733 C 0.3896 0.87533 0.61879 0.0
C2734 C 0.3749 0.84536 0.6485 0.0
C2735 C 0.35333 0.83104 0.66511 0.0
C2736 C 0.34742 0.85011 0.67773 0.0
C2737 C 0.32635 0.83631 0.69306 0.0
C2738 C 0.31127 0.80347 0.69603 0.0
C2739 C 0.31731 0.78439 0.68369 0.0
C2740 C 0.33829 0.79807 0.66829 0.0
C2741 C 0.50274 0.86293 0.61833 0.0
C2742 C 0.4956 0.83116 0.61705 0.0
C2743 C 0.47926 0.87015 0.62398 0.0
C2744 C 0.44812 0.84568 0.62819 0.0
C2745 C 0.4418 0.8141 0.62832 0.0
C2746 C 0.46525 0.80692 0.62271 0.0
C2747 C 0.42141 0.8525 0.63038 0.0
C2748 C 0.40103 0.84046 0.64631 0.0
C2749 C 0.41506 0.86958 0.61625 0.0
C2750 C 0.43279 0.8793 0.59792 0.0
C2751 C 0.43392 0.85652 0.58596 0.0
C2752 C 0.45083 0.86578 0.56873 0.0
C2753 C 0.46635 0.8977 0.56318 0.0
C2754 C 0.46493 0.92041 0.57483 0.0
C2755 C 0.44816 0.91128 0.59213 0.0
H2756 H 0.4794 0.90483 0.54981 0.0
H2757 H 0.29496 0.79283 0.70791 0.0
H2758 H 0.5779 0.73316 0.9294 0.0
H2759 H 0.52387 0.68873 0.92803 0.0
H2760 H 0.5411 0.66576 0.87119 0.0
H2761 H 0.59541 0.71198 0.87203 0.0
H2762 H 0.4785 0.65958 0.87665 0.0
H2763 H 0.54494 0.62361 0.90616 0.0
H2764 H 0.58596 0.62845 0.92892 0.0
H2765 H 0.52907 0.62861 0.97604 0.0
H2766 H 0.4877 0.62387 0.95358 0.0
H2767 H 0.34557 0.49781 0.88567 0.0
H2768 H 0.39483 0.54783 0.87852 0.0
H2769 H 0.39893 0.57746 0.93723 0.0
H2770 H 0.35027 0.52743 0.94435 0.0
H2771 H 0.45201 0.57897 0.92763 0.0
H2772 H 0.38668 0.6165 0.90002 0.0
H2773 H 0.34595 0.61596 0.87869 0.0
H2774 H 0.39948 0.61628 0.82952 0.0
H2775 H 0.44034 0.61639 0.85058 0.0
C2776 C 0.57018 0.71918 0.9164 0.0
C2777 C 0.59097 0.72636 0.90077 0.0
C2778 C 0.53925 0.69357 0.9157 0.0
C2779 C 0.52849 0.67379 0.89957 0.0
C2780 C 0.54893 0.68085 0.88376 0.0
C2781 C 0.58002 0.70701 0.88434 0.0
C2782 C 0.49661 0.64468 0.90016 0.0
C2783 C 0.47274 0.64153 0.88751 0.0
C2784 C 0.48894 0.62167 0.91467 0.0
C2785 C 0.51329 0.62346 0.9282 0.0
C2786 C 0.54121 0.62473 0.92138 0.0
C2787 C 0.56454 0.62751 0.93421 0.0
C2788 C 0.56021 0.62898 0.95389 0.0
C2789 C 0.53241 0.62747 0.96079 0.0
C2790 C 0.50895 0.62462 0.94803 0.0
C2791 C 0.35651 0.51559 0.8968 0.0
C2792 C 0.34418 0.50908 0.9155 0.0
C2793 C 0.38465 0.5441 0.89275 0.0
C2794 C 0.40071 0.56642 0.90736 0.0
C2795 C 0.38709 0.5606 0.92574 0.0
C2796 C 0.3592 0.53217 0.92979 0.0
C2797 C 0.43336 0.59385 0.90432 0.0
C2798 C 0.45757 0.59667 0.91655 0.0
C2799 C 0.44106 0.61656 0.88955 0.0
C2800 C 0.41634 0.61602 0.87687 0.0
C2801 C 0.38958 0.61608 0.88466 0.0
C2802 C 0.36651 0.61594 0.87262 0.0
C2803 C 0.37006 0.61596 0.85276 0.0
C2804 C 0.39672 0.61618 0.8449 0.0
C2805 C 0.41984 0.6163 0.85688 0.0
H2806 H 0.35221 0.6159 0.84345 0.0
H2807 H 0.57837 0.63122 0.96379 0.0
loop_
_geom_bond_atom_site_label_1
_geom_bond_atom_site_label_2
_geom_bond_distance
_geom_bond_site_symmetry_2
_ccdc_geom_bond_type
C0 C2 1.422 . S
C0 C4 1.415 . S
C0 N6 1.369 . S
C1 C2 1.421 . S
C1 C3 1.417 . S
C1 C13 1.422 . S
C2 C0 1.422 . S
C2 C1 1.421 . S
C2 N12 1.359 . S
C3 C1 1.417 . S
C3 C5 1.329 . S
C3 H22 0.930 . S
C4 C0 1.415 . S
C4 C5 1.437 . S
C4 C8 1.413 . S
C5 C3 1.329 . S
C5 C4 1.437 . S
C5 H27 0.929 . S
N6 C0 1.369 . S
N6 C7 1.338 . S
N6 Gd11 2.622 . S
C7 N6 1.338 . S
C7 C9 1.378 . S
C7 H19 0.929 . S
C8 C4 1.413 . S
C8 C9 1.348 . S
C8 H24 0.931 . S
C9 C7 1.378 . S
C9 C8 1.348 . S
C9 H25 0.930 . S
Gd10 N30 2.622 . S
Gd10 N37 2.570 . S
Gd10 O44 2.353 . S
Gd10 O45 2.468 . S
Gd10 O46 2.427 . S
Gd10 O48 2.388 . S
Gd10 O49 2.386 . S
Gd10 O53 2.307 . S
Gd10 C63 2.805 . S
Gd11 N6 2.622 . S
Gd11 N12 2.570 . S
Gd11 O43 2.386 . S
Gd11 O47 2.307 . S
Gd11 O50 2.353 . S
Gd11 O51 2.468 . S
Gd11 O52 2.427 . S
Gd11 O54 2.388 . S
Gd11 C75 2.805 . S
N12 C2 1.359 . S
N12 Gd11 2.570 . S
N12 C14 1.343 . S
C13 C1 1.422 . S
C13 C15 1.321 . S
C13 H21 0.931 . S
C14 N12 1.343 . S
C14 C15 1.390 . S
C14 H16 0.931 . S
C15 C13 1.321 . S
C15 C14 1.390 . S
C15 H17 0.930 . S
H16 C14 0.931 . S
H17 C15 0.930 . S
H18 C41 0.931 . S
H19 C7 0.929 . S
H20 C42 0.930 . S
H21 C13 0.931 . S
H22 C3 0.930 . S
H23 C32 0.929 . S
H24 C8 0.931 . S
H25 C9 0.930 . S
H26 C64 0.930 . S
H27 C5 0.929 . S
H28 C33 0.931 . S
H29 C34 0.930 . S
N30 Gd10 2.622 . S
N30 C31 1.369 . S
N30 C32 1.338 . S
C31 N30 1.369 . S
C31 C35 1.415 . S
C31 C38 1.422 . S
C32 H23 0.929 . S
C32 N30 1.338 . S
C32 C34 1.378 . S
C33 H28 0.931 . S
C33 C34 1.348 . S
C33 C35 1.413 . S
C34 H29 0.930 . S
C34 C32 1.378 . S
C34 C33 1.348 . S
C35 C31 1.415 . S
C35 C33 1.413 . S
C35 C65 1.437 . S
H36 C65 0.929 . S
N37 Gd10 2.570 . S
N37 C38 1.359 . S
N37 C41 1.343 . S
C38 C31 1.422 . S
C38 N37 1.359 . S
C38 C40 1.421 . S
C39 C40 1.422 . S
C39 C42 1.321 . S
C39 H66 0.931 . S
C40 C38 1.421 . S
C40 C39 1.422 . S
C40 C64 1.417 . S
C41 H18 0.931 . S
C41 N37 1.343 . S
C41 C42 1.390 . S
C42 H20 0.930 . S
C42 C39 1.321 . S
C42 C41 1.390 . S
O43 Gd11 2.386 . S
O43 C55 1.265 . S
O44 Gd10 2.353 . S
O44 C55 1.242 . S
O45 Gd10 2.468 . S
O45 C63 1.263 . S
O46 Gd10 2.427 . S
O46 C63 1.252 . S
O47 Gd11 2.307 . S
O47 C56 1.261 . S
O48 Gd10 2.388 . S
O48 C56 1.252 . S
O49 Gd10 2.386 . S
O49 C67 1.265 . S
O50 Gd11 2.353 . S
O50 C67 1.242 . S
O51 Gd11 2.468 . S
O51 C75 1.263 . S
O52 Gd11 2.427 . S
O52 C75 1.252 . S
O53 Gd10 2.307 . S
O53 C68 1.261 . S
O54 Gd11 2.388 . S
O54 C68 1.252 . S
C55 O43 1.265 . S
C55 O44 1.242 . S
C56 O47 1.261 . S
C56 O48 1.252 . S
C57 C60 1.394 . S
C57 C62 1.370 . S
C57 C63 1.500 . S
C58 C61 1.383 . S
C58 C62 1.395 1_565 S
C59 C60 1.396 1_565 S
C59 C61 1.365 . S
C59 H76 0.929 . S
C60 C57 1.394 . S
C60 C59 1.396 1_545 S
C60 H77 0.930 . S
C61 C58 1.383 . S
C61 C59 1.365 . S
C61 H78 0.931 . S
C62 C57 1.370 . S
C62 C58 1.395 1_545 S
C62 H79 0.930 . S
C63 Gd10 2.805 . S
C63 O45 1.263 . S
C63 O46 1.252 . S
C63 C57 1.500 . S
C64 H26 0.930 . S
C64 C40 1.417 . S
C64 C65 1.329 . S
C65 C35 1.437 . S
C65 H36 0.929 . S
C65 C64 1.329 . S
H66 C39 0.931 . S
C67 O49 1.265 . S
C67 O50 1.242 . S
C68 O53 1.261 . S
C68 O54 1.252 . S
C69 C72 1.394 . S
C69 C74 1.370 . S
C69 C75 1.500 . S
C70 C73 1.383 . S
C70 C74 1.395 . S
C71 C72 1.396 . S
C71 C73 1.365 . S
C71 H80 0.929 . S
C72 C69 1.394 . S
C72 C71 1.396 . S
C72 H81 0.930 . S
C73 C70 1.383 . S
C73 C71 1.365 . S
C73 H82 0.931 . S
C74 C69 1.370 . S
C74 C70 1.395 . S
C74 H83 0.930 . S
C75 Gd11 2.805 . S
C75 O51 1.263 . S
C75 O52 1.252 . S
C75 C69 1.500 . S
H76 C59 0.929 . S
H77 C60 0.930 . S
H78 C61 0.931 . S
H79 C62 0.930 . S
H80 C71 0.929 . S
H81 C72 0.930 . S
H82 C73 0.931 . S
H83 C74 0.930 . S
C84 C86 1.422 . S
C84 C88 1.415 . S
C84 N90 1.369 . S
C85 C86 1.421 . S
C85 C87 1.417 . S
C85 C97 1.422 . S
C86 C84 1.422 . S
C86 C85 1.421 . S
C86 N96 1.359 . S
C87 C85 1.417 . S
C87 C89 1.329 . S
C87 H106 0.930 . S
C88 C84 1.415 . S
C88 C89 1.437 . S
C88 C92 1.413 . S
C89 C87 1.329 . S
C89 C88 1.437 . S
C89 H111 0.929 . S
N90 C84 1.369 . S
N90 C91 1.338 . S
N90 Gd95 2.622 . S
C91 N90 1.338 . S
C91 C93 1.378 . S
C91 H103 0.929 . S
C92 C88 1.413 . S
C92 C93 1.348 . S
C92 H108 0.931 . S
C93 C91 1.378 . S
C93 C92 1.348 . S
C93 H109 0.930 . S
Gd94 N114 2.622 . S
Gd94 N121 2.570 . S
Gd94 O128 2.353 . S
Gd94 O129 2.468 . S
Gd94 O130 2.427 . S
Gd94 O132 2.388 . S
Gd94 O133 2.386 . S
Gd94 O137 2.307 . S
Gd94 C147 2.805 . S
Gd95 N90 2.622 . S
Gd95 N96 2.570 . S
Gd95 O127 2.386 . S
Gd95 O131 2.307 . S
Gd95 O134 2.353 . S
Gd95 O135 2.468 . S
Gd95 O136 2.427 . S
Gd95 O138 2.388 . S
Gd95 C159 2.805 . S
N96 C86 1.359 . S
N96 Gd95 2.570 . S
N96 C98 1.343 . S
C97 C85 1.422 . S
C97 C99 1.321 . S
C97 H105 0.931 . S
C98 N96 1.343 . S
C98 C99 1.390 . S
C98 H100 0.931 . S
C99 C97 1.321 . S
C99 C98 1.390 . S
C99 H101 0.930 . S
H100 C98 0.931 . S
H101 C99 0.930 . S
H102 C125 0.931 . S
H103 C91 0.929 . S
H104 C126 0.930 . S
H105 C97 0.931 . S
H106 C87 0.930 . S
H107 C116 0.929 . S
H108 C92 0.931 . S
H109 C93 0.930 . S
H110 C148 0.930 . S
H111 C89 0.929 . S
H112 C117 0.931 . S
H113 C118 0.930 . S
N114 Gd94 2.622 . S
N114 C115 1.369 . S
N114 C116 1.338 . S
C115 N114 1.369 . S
C115 C119 1.415 . S
C115 C122 1.422 . S
C116 H107 0.929 . S
C116 N114 1.338 . S
C116 C118 1.378 . S
C117 H112 0.931 . S
C117 C118 1.348 . S
C117 C119 1.413 . S
C118 H113 0.930 . S
C118 C116 1.378 . S
C118 C117 1.348 . S
C119 C115 1.415 . S
C119 C117 1.413 . S
C119 C149 1.437 . S
H120 C149 0.929 . S
N121 Gd94 2.570 . S
N121 C122 1.359 . S
N121 C125 1.343 . S
C122 C115 1.422 . S
C122 N121 1.359 . S
C122 C124 1.421 . S
C123 C124 1.422 . S
C123 C126 1.321 . S
C123 H150 0.931 . S
C124 C122 1.421 . S
C124 C123 1.422 . S
C124 C148 1.417 . S
C125 H102 0.931 . S
C125 N121 1.343 . S
C125 C126 1.390 . S
C126 H104 0.930 . S
C126 C123 1.321 . S
C126 C125 1.390 . S
O127 Gd95 2.386 . S
O127 C139 1.265 . S
O128 Gd94 2.353 . S
O128 C139 1.242 . S
O129 Gd94 2.468 . S
O129 C147 1.263 . S
O130 Gd94 2.427 . S
O130 C147 1.252 . S
O131 Gd95 2.307 . S
O131 C140 1.261 . S
O132 Gd94 2.388 . S
O132 C140 1.252 . S
O133 Gd94 2.386 . S
O133 C151 1.265 . S
O134 Gd95 2.353 . S
O134 C151 1.242 . S
O135 Gd95 2.468 . S
O135 C159 1.263 . S
O136 Gd95 2.427 . S
O136 C159 1.252 . S
O137 Gd94 2.307 . S
O137 C152 1.261 . S
O138 Gd95 2.388 . S
O138 C152 1.252 . S
C139 O127 1.265 . S
C139 O128 1.242 . S
C140 O131 1.261 . S
C140 O132 1.252 . S
C141 C144 1.394 . S
C141 C146 1.370 . S
C141 C147 1.500 . S
C142 C145 1.383 . S
C142 C146 1.395 . S
C143 C144 1.396 . S
C143 C145 1.365 . S
C143 H160 0.929 . S
C144 C141 1.394 . S
C144 C143 1.396 . S
C144 H161 0.930 . S
C145 C142 1.383 . S
C145 C143 1.365 . S
C145 H162 0.931 . S
C146 C141 1.370 . S
C146 C142 1.395 . S
C146 H163 0.930 . S
C147 Gd94 2.805 . S
C147 O129 1.263 . S
C147 O130 1.252 . S
C147 C141 1.500 . S
C148 H110 0.930 . S
C148 C124 1.417 . S
C148 C149 1.329 . S
C149 C119 1.437 . S
C149 H120 0.929 . S
C149 C148 1.329 . S
H150 C123 0.931 . S
C151 O133 1.265 . S
C151 O134 1.242 . S
C152 O137 1.261 . S
C152 O138 1.252 . S
C153 C156 1.394 . S
C153 C158 1.370 . S
C153 C159 1.500 . S
C154 C157 1.383 . S
C154 C158 1.395 . S
C155 C156 1.396 . S
C155 C157 1.365 . S
C155 H164 0.929 . S
C156 C153 1.394 . S
C156 C155 1.396 . S
C156 H165 0.930 . S
C157 C154 1.383 . S
C157 C155 1.365 . S
C157 H166 0.931 . S
C158 C153 1.370 . S
C158 C154 1.395 . S
C158 H167 0.930 . S
C159 Gd95 2.805 . S
C159 O135 1.263 . S
C159 O136 1.252 . S
C159 C153 1.500 . S
H160 C143 0.929 . S
H161 C144 0.930 . S
H162 C145 0.931 . S
H163 C146 0.930 . S
H164 C155 0.929 . S
H165 C156 0.930 . S
H166 C157 0.931 . S
H167 C158 0.930 . S
C168 C170 1.422 . S
C168 C172 1.415 . S
C168 N174 1.369 . S
C169 C170 1.421 . S
C169 C171 1.417 . S
C169 C181 1.422 . S
C170 C168 1.422 . S
C170 C169 1.421 . S
C170 N180 1.359 . S
C171 C169 1.417 . S
C171 C173 1.329 . S
C171 H190 0.930 . S
C172 C168 1.415 . S
C172 C173 1.437 . S
C172 C176 1.413 . S
C173 C171 1.329 . S
C173 C172 1.437 . S
C173 H195 0.929 . S
N174 C168 1.369 . S
N174 C175 1.338 . S
N174 Gd179 2.622 . S
C175 N174 1.338 . S
C175 C177 1.378 . S
C175 H187 0.929 . S
C176 C172 1.413 . S
C176 C177 1.348 . S
C176 H192 0.931 . S
C177 C175 1.378 . S
C177 C176 1.348 . S
C177 H193 0.930 . S
Gd178 N198 2.622 . S
Gd178 N205 2.570 . S
Gd178 O212 2.353 . S
Gd178 O213 2.468 . S
Gd178 O214 2.427 . S
Gd178 O216 2.388 . S
Gd178 O217 2.386 . S
Gd178 O221 2.307 . S
Gd178 C231 2.805 . S
Gd179 N174 2.622 . S
Gd179 N180 2.570 . S
Gd179 O211 2.386 . S
Gd179 O215 2.307 . S
Gd179 O218 2.353 . S
Gd179 O219 2.468 . S
Gd179 O220 2.427 . S
Gd179 O222 2.388 . S
Gd179 C243 2.805 . S
N180 C170 1.359 . S
N180 Gd179 2.570 . S
N180 C182 1.343 . S
C181 C169 1.422 . S
C181 C183 1.321 . S
C181 H189 0.931 . S
C182 N180 1.343 . S
C182 C183 1.390 . S
C182 H184 0.931 . S
C183 C181 1.321 . S
C183 C182 1.390 . S
C183 H185 0.930 . S
H184 C182 0.931 . S
H185 C183 0.930 . S
H186 C209 0.931 . S
H187 C175 0.929 . S
H188 C210 0.930 . S
H189 C181 0.931 . S
H190 C171 0.930 . S
H191 C200 0.929 . S
H192 C176 0.931 . S
H193 C177 0.930 . S
H194 C232 0.930 . S
H195 C173 0.929 . S
H196 C201 0.931 . S
H197 C202 0.930 . S
N198 Gd178 2.622 . S
N198 C199 1.369 . S
N198 C200 1.338 . S
C199 N198 1.369 . S
C199 C203 1.415 . S
C199 C206 1.422 . S
C200 H191 0.929 . S
C200 N198 1.338 . S
C200 C202 1.378 . S
C201 H196 0.931 . S
C201 C202 1.348 . S
C201 C203 1.413 . S
C202 H197 0.930 . S
C202 C200 1.378 . S
C202 C201 1.348 . S
C203 C199 1.415 . S
C203 C201 1.413 . S
C203 C233 1.437 . S
H204 C233 0.929 . S
N205 Gd178 2.570 . S
N205 C206 1.359 . S
N205 C209 1.343 . S
C206 C199 1.422 . S
C206 N205 1.359 . S
C206 C208 1.421 . S
C207 C208 1.422 . S
C207 C210 1.321 . S
C207 H234 0.931 . S
C208 C206 1.421 . S
C208 C207 1.422 . S
C208 C232 1.417 . S
C209 H186 0.931 . S
C209 N205 1.343 . S
C209 C210 1.390 . S
C210 H188 0.930 . S
C210 C207 1.321 . S
C210 C209 1.390 . S
O211 Gd179 2.386 . S
O211 C223 1.265 . S
O212 Gd178 2.353 . S
O212 C223 1.242 . S
O213 Gd178 2.468 . S
O213 C231 1.263 . S
O214 Gd178 2.427 . S
O214 C231 1.252 . S
O215 Gd179 2.307 . S
O215 C224 1.261 . S
O216 Gd178 2.388 . S
O216 C224 1.252 . S
O217 Gd178 2.386 . S
O217 C235 1.265 . S
O218 Gd179 2.353 . S
O218 C235 1.242 . S
O219 Gd179 2.468 . S
O219 C243 1.263 . S
O220 Gd179 2.427 . S
O220 C243 1.252 . S
O221 Gd178 2.307 . S
O221 C236 1.261 . S
O222 Gd179 2.388 . S
O222 C236 1.252 . S
C223 O211 1.265 . S
C223 O212 1.242 . S
C224 O215 1.261 . S
C224 O216 1.252 . S
C225 C228 1.394 . S
C225 C230 1.370 . S
C225 C231 1.500 . S
C226 C229 1.383 . S
C226 C230 1.395 1_455 S
C227 C228 1.396 1_455 S
C227 C229 1.365 . S
C227 H244 0.929 . S
C228 C225 1.394 . S
C228 C227 1.396 1_655 S
C228 H245 0.930 . S
C229 C226 1.383 . S
C229 C227 1.365 . S
C229 H246 0.931 . S
C230 C225 1.370 . S
C230 C226 1.395 1_655 S
C230 H247 0.930 . S
C231 Gd178 2.805 . S
C231 O213 1.263 . S
C231 O214 1.252 . S
C231 C225 1.500 . S
C232 H194 0.930 . S
C232 C208 1.417 . S
C232 C233 1.329 . S
C233 C203 1.437 . S
C233 H204 0.929 . S
C233 C232 1.329 . S
H234 C207 0.931 . S
C235 O217 1.265 . S
C235 O218 1.242 . S
C236 O221 1.261 . S
C236 O222 1.252 . S
C237 C240 1.394 . S
C237 C242 1.370 . S
C237 C243 1.500 . S
C238 C241 1.383 . S
C238 C242 1.395 . S
C239 C240 1.396 . S
C239 C241 1.365 . S
C239 H248 0.929 . S
C240 C237 1.394 . S
C240 C239 1.396 . S
C240 H249 0.930 . S
C241 C238 1.383 . S
C241 C239 1.365 . S
C241 H250 0.931 . S
C242 C237 1.370 . S
C242 C238 1.395 . S
C242 H251 0.930 . S
C243 Gd179 2.805 . S
C243 O219 1.263 . S
C243 O220 1.252 . S
C243 C237 1.500 . S
H244 C227 0.929 . S
H245 C228 0.930 . S
H246 C229 0.931 . S
H247 C230 0.930 . S
H248 C239 0.929 . S
H249 C240 0.930 . S
H250 C241 0.931 . S
H251 C242 0.930 . S
C252 C254 1.422 . S
C252 C256 1.415 . S
C252 N258 1.369 . S
C253 C254 1.421 . S
C253 C255 1.417 . S
C253 C265 1.422 . S
C254 C252 1.422 . S
C254 C253 1.421 . S
C254 N264 1.359 . S
C255 C253 1.417 . S
C255 C257 1.329 . S
C255 H274 0.930 . S
C256 C252 1.415 . S
C256 C257 1.437 . S
C256 C260 1.413 . S
C257 C255 1.329 . S
C257 C256 1.437 . S
C257 H279 0.929 . S
N258 C252 1.369 . S
N258 C259 1.338 . S
N258 Gd263 2.622 . S
C259 N258 1.338 . S
C259 C261 1.378 . S
C259 H271 0.929 . S
C260 C256 1.413 . S
C260 C261 1.348 . S
C260 H276 0.931 . S
C261 C259 1.378 . S
C261 C260 1.348 . S
C261 H277 0.930 . S
Gd262 N282 2.622 . S
Gd262 N289 2.570 . S
Gd262 O296 2.353 . S
Gd262 O297 2.468 . S
Gd262 O298 2.427 . S
Gd262 O300 2.388 . S
Gd262 O301 2.386 . S
Gd262 O305 2.307 . S
Gd262 C315 2.805 . S
Gd263 N258 2.622 . S
Gd263 N264 2.570 . S
Gd263 O295 2.386 . S
Gd263 O299 2.307 . S
Gd263 O302 2.353 . S
Gd263 O303 2.468 . S
Gd263 O304 2.427 . S
Gd263 O306 2.388 . S
Gd263 C327 2.805 . S
N264 C254 1.359 . S
N264 Gd263 2.570 . S
N264 C266 1.343 . S
C265 C253 1.422 . S
C265 C267 1.321 . S
C265 H273 0.931 . S
C266 N264 1.343 . S
C266 C267 1.390 . S
C266 H268 0.931 . S
C267 C265 1.321 . S
C267 C266 1.390 . S
C267 H269 0.930 . S
H268 C266 0.931 . S
H269 C267 0.930 . S
H270 C293 0.931 . S
H271 C259 0.929 . S
H272 C294 0.930 . S
H273 C265 0.931 . S
H274 C255 0.930 . S
H275 C284 0.929 . S
H276 C260 0.931 . S
H277 C261 0.930 . S
H278 C316 0.930 . S
H279 C257 0.929 . S
H280 C285 0.931 . S
H281 C286 0.930 . S
N282 Gd262 2.622 . S
N282 C283 1.369 . S
N282 C284 1.338 . S
C283 N282 1.369 . S
C283 C287 1.415 . S
C283 C290 1.422 . S
C284 H275 0.929 . S
C284 N282 1.338 . S
C284 C286 1.378 . S
C285 H280 0.931 . S
C285 C286 1.348 . S
C285 C287 1.413 . S
C286 H281 0.930 . S
C286 C284 1.378 . S
C286 C285 1.348 . S
C287 C283 1.415 . S
C287 C285 1.413 . S
C287 C317 1.437 . S
H288 C317 0.929 . S
N289 Gd262 2.570 . S
N289 C290 1.359 . S
N289 C293 1.343 . S
C290 C283 1.422 . S
C290 N289 1.359 . S
C290 C292 1.421 . S
C291 C292 1.422 . S
C291 C294 1.321 . S
C291 H318 0.931 . S
C292 C290 1.421 . S
C292 C291 1.422 . S
C292 C316 1.417 . S
C293 H270 0.931 . S
C293 N289 1.343 . S
C293 C294 1.390 . S
C294 H272 0.930 . S
C294 C291 1.321 . S
C294 C293 1.390 . S
O295 Gd263 2.386 . S
O295 C307 1.265 . S
O296 Gd262 2.353 . S
O296 C307 1.242 . S
O297 Gd262 2.468 . S
O297 C315 1.263 . S
O298 Gd262 2.427 . S
O298 C315 1.252 . S
O299 Gd263 2.307 . S
O299 C308 1.261 . S
O300 Gd262 2.388 . S
O300 C308 1.252 . S
O301 Gd262 2.386 . S
O301 C319 1.265 . S
O302 Gd263 2.353 . S
O302 C319 1.242 . S
O303 Gd263 2.468 . S
O303 C327 1.263 . S
O304 Gd263 2.427 . S
O304 C327 1.252 . S
O305 Gd262 2.307 . S
O305 C320 1.261 . S
O306 Gd263 2.388 . S
O306 C320 1.252 . S
C307 O295 1.265 . S
C307 O296 1.242 . S
C308 O299 1.261 . S
C308 O300 1.252 . S
C309 C312 1.394 . S
C309 C314 1.370 . S
C309 C315 1.500 . S
C310 C313 1.383 . S
C310 C314 1.395 . S
C311 C312 1.396 . S
C311 C313 1.365 . S
C311 H328 0.929 . S
C312 C309 1.394 . S
C312 C311 1.396 . S
C312 H329 0.930 . S
C313 C310 1.383 . S
C313 C311 1.365 . S
C313 H330 0.931 . S
C314 C309 1.370 . S
C314 C310 1.395 . S
C314 H331 0.930 . S
C315 Gd262 2.805 . S
C315 O297 1.263 . S
C315 O298 1.252 . S
C315 C309 1.500 . S
C316 H278 0.930 . S
C316 C292 1.417 . S
C316 C317 1.329 . S
C317 C287 1.437 . S
C317 H288 0.929 . S
C317 C316 1.329 . S
H318 C291 0.931 . S
C319 O301 1.265 . S
C319 O302 1.242 . S
C320 O305 1.261 . S
C320 O306 1.252 . S
C321 C324 1.394 . S
C321 C326 1.370 . S
C321 C327 1.500 . S
C322 C325 1.383 . S
C322 C326 1.395 1_565 S
C323 C324 1.396 1_565 S
C323 C325 1.365 . S
C323 H332 0.929 . S
C324 C321 1.394 . S
C324 C323 1.396 1_545 S
C324 H333 0.930 . S
C325 C322 1.383 . S
C325 C323 1.365 . S
C325 H334 0.931 . S
C326 C321 1.370 . S
C326 C322 1.395 1_545 S
C326 H335 0.930 . S
C327 Gd263 2.805 . S
C327 O303 1.263 . S
C327 O304 1.252 . S
C327 C321 1.500 . S
H328 C311 0.929 . S
H329 C312 0.930 . S
H330 C313 0.931 . S
H331 C314 0.930 . S
H332 C323 0.929 . S
H333 C324 0.930 . S
H334 C325 0.931 . S
H335 C326 0.930 . S
C336 C338 1.422 . S
C336 C340 1.415 . S
C336 N342 1.369 . S
C337 C338 1.421 . S
C337 C339 1.417 . S
C337 C349 1.422 . S
C338 C336 1.422 . S
C338 C337 1.421 . S
C338 N348 1.359 . S
C339 C337 1.417 . S
C339 C341 1.329 . S
C339 H358 0.930 . S
C340 C336 1.415 . S
C340 C341 1.437 . S
C340 C344 1.413 . S
C341 C339 1.329 . S
C341 C340 1.437 . S
C341 H363 0.929 . S
N342 C336 1.369 . S
N342 C343 1.338 . S
N342 Gd347 2.622 . S
C343 N342 1.338 . S
C343 C345 1.378 . S
C343 H355 0.929 . S
C344 C340 1.413 . S
C344 C345 1.348 . S
C344 H360 0.931 . S
C345 C343 1.378 . S
C345 C344 1.348 . S
C345 H361 0.930 . S
Gd346 N366 2.622 . S
Gd346 N373 2.570 . S
Gd346 O380 2.353 . S
Gd346 O381 2.468 . S
Gd346 O382 2.427 . S
Gd346 O384 2.388 . S
Gd346 O385 2.386 . S
Gd346 O389 2.307 . S
Gd346 C399 2.805 . S
Gd347 N342 2.622 . S
Gd347 N348 2.570 . S
Gd347 O379 2.386 . S
Gd347 O383 2.307 . S
Gd347 O386 2.353 . S
Gd347 O387 2.468 . S
Gd347 O388 2.427 . S
Gd347 O390 2.388 . S
Gd347 C411 2.805 . S
N348 C338 1.359 . S
N348 Gd347 2.570 . S
N348 C350 1.343 . S
C349 C337 1.422 . S
C349 C351 1.321 . S
C349 H357 0.931 . S
C350 N348 1.343 . S
C350 C351 1.390 . S
C350 H352 0.931 . S
C351 C349 1.321 . S
C351 C350 1.390 . S
C351 H353 0.930 . S
H352 C350 0.931 . S
H353 C351 0.930 . S
H354 C377 0.931 . S
H355 C343 0.929 . S
H356 C378 0.930 . S
H357 C349 0.931 . S
H358 C339 0.930 . S
H359 C368 0.929 . S
H360 C344 0.931 . S
H361 C345 0.930 . S
H362 C400 0.930 . S
H363 C341 0.929 . S
H364 C369 0.931 . S
H365 C370 0.930 . S
N366 Gd346 2.622 . S
N366 C367 1.369 . S
N366 C368 1.338 . S
C367 N366 1.369 . S
C367 C371 1.415 . S
C367 C374 1.422 . S
C368 H359 0.929 . S
C368 N366 1.338 . S
C368 C370 1.378 . S
C369 H364 0.931 . S
C369 C370 1.348 . S
C369 C371 1.413 . S
C370 H365 0.930 . S
C370 C368 1.378 . S
C370 C369 1.348 . S
C371 C367 1.415 . S
C371 C369 1.413 . S
C371 C401 1.437 . S
H372 C401 0.929 . S
N373 Gd346 2.570 . S
N373 C374 1.359 . S
N373 C377 1.343 . S
C374 C367 1.422 . S
C374 N373 1.359 . S
C374 C376 1.421 . S
C375 C376 1.422 . S
C375 C378 1.321 . S
C375 H402 0.931 . S
C376 C374 1.421 . S
C376 C375 1.422 . S
C376 C400 1.417 . S
C377 H354 0.931 . S
C377 N373 1.343 . S
C377 C378 1.390 . S
C378 H356 0.930 . S
C378 C375 1.321 . S
C378 C377 1.390 . S
O379 Gd347 2.386 . S
O379 C391 1.265 . S
O380 Gd346 2.353 . S
O380 C391 1.242 . S
O381 Gd346 2.468 . S
O381 C399 1.263 . S
O382 Gd346 2.427 . S
O382 C399 1.252 . S
O383 Gd347 2.307 . S
O383 C392 1.261 . S
O384 Gd346 2.388 . S
O384 C392 1.252 . S
O385 Gd346 2.386 . S
O385 C403 1.265 . S
O386 Gd347 2.353 . S
O386 C403 1.242 . S
O387 Gd347 2.468 . S
O387 C411 1.263 . S
O388 Gd347 2.427 . S
O388 C411 1.252 . S
O389 Gd346 2.307 . S
O389 C404 1.261 . S
O390 Gd347 2.388 . S
O390 C404 1.252 . S
C391 O379 1.265 . S
C391 O380 1.242 . S
C392 O383 1.261 . S
C392 O384 1.252 . S
C393 C396 1.394 . S
C393 C398 1.370 . S
C393 C399 1.500 . S
C394 C397 1.383 . S
C394 C398 1.395 . S
C395 C396 1.396 . S
C395 C397 1.365 . S
C395 H412 0.929 . S
C396 C393 1.394 . S
C396 C395 1.396 . S
C396 H413 0.930 . S
C397 C394 1.383 . S
C397 C395 1.365 . S
C397 H414 0.931 . S
C398 C393 1.370 . S
C398 C394 1.395 . S
C398 H415 0.930 . S
C399 Gd346 2.805 . S
C399 O381 1.263 . S
C399 O382 1.252 . S
C399 C393 1.500 . S
C400 H362 0.930 . S
C400 C376 1.417 . S
C400 C401 1.329 . S
C401 C371 1.437 . S
C401 H372 0.929 . S
C401 C400 1.329 . S
H402 C375 0.931 . S
C403 O385 1.265 . S
C403 O386 1.242 . S
C404 O389 1.261 . S
C404 O390 1.252 . S
C405 C408 1.394 . S
C405 C410 1.370 . S
C405 C411 1.500 . S
C406 C409 1.383 . S
C406 C410 1.395 . S
C407 C408 1.396 . S
C407 C409 1.365 . S
C407 H416 0.929 . S
C408 C405 1.394 . S
C408 C407 1.396 . S
C408 H417 0.930 . S
C409 C406 1.383 . S
C409 C407 1.365 . S
C409 H418 0.931 . S
C410 C405 1.370 . S
C410 C406 1.395 . S
C410 H419 0.930 . S
C411 Gd347 2.805 . S
C411 O387 1.263 . S
C411 O388 1.252 . S
C411 C405 1.500 . S
H412 C395 0.929 . S
H413 C396 0.930 . S
H414 C397 0.931 . S
H415 C398 0.930 . S
H416 C407 0.929 . S
H417 C408 0.930 . S
H418 C409 0.931 . S
H419 C410 0.930 . S
C420 C422 1.422 . S
C420 C424 1.415 . S
C420 N426 1.369 . S
C421 C422 1.421 . S
C421 C423 1.417 . S
C421 C433 1.422 . S
C422 C420 1.422 . S
C422 C421 1.421 . S
C422 N432 1.359 . S
C423 C421 1.417 . S
C423 C425 1.329 . S
C423 H442 0.930 . S
C424 C420 1.415 . S
C424 C425 1.437 . S
C424 C428 1.413 . S
C425 C423 1.329 . S
C425 C424 1.437 . S
C425 H447 0.929 . S
N426 C420 1.369 . S
N426 C427 1.338 . S
N426 Gd431 2.622 . S
C427 N426 1.338 . S
C427 C429 1.378 . S
C427 H439 0.929 . S
C428 C424 1.413 . S
C428 C429 1.348 . S
C428 H444 0.931 . S
C429 C427 1.378 . S
C429 C428 1.348 . S
C429 H445 0.930 . S
Gd430 N450 2.622 . S
Gd430 N457 2.570 . S
Gd430 O464 2.353 . S
Gd430 O465 2.468 . S
Gd430 O466 2.427 . S
Gd430 O468 2.388 . S
Gd430 O469 2.386 . S
Gd430 O473 2.307 . S
Gd430 C483 2.805 . S
Gd431 N426 2.622 . S
Gd431 N432 2.570 . S
Gd431 O463 2.386 . S
Gd431 O467 2.307 . S
Gd431 O470 2.353 . S
Gd431 O471 2.468 . S
Gd431 O472 2.427 . S
Gd431 O474 2.388 . S
Gd431 C495 2.805 . S
N432 C422 1.359 . S
N432 Gd431 2.570 . S
N432 C434 1.343 . S
C433 C421 1.422 . S
C433 C435 1.321 . S
C433 H441 0.931 . S
C434 N432 1.343 . S
C434 C435 1.390 . S
C434 H436 0.931 . S
C435 C433 1.321 . S
C435 C434 1.390 . S
C435 H437 0.930 . S
H436 C434 0.931 . S
H437 C435 0.930 . S
H438 C461 0.931 . S
H439 C427 0.929 . S
H440 C462 0.930 . S
H441 C433 0.931 . S
H442 C423 0.930 . S
H443 C452 0.929 . S
H444 C428 0.931 . S
H445 C429 0.930 . S
H446 C484 0.930 . S
H447 C425 0.929 . S
H448 C453 0.931 . S
H449 C454 0.930 . S
N450 Gd430 2.622 . S
N450 C451 1.369 . S
N450 C452 1.338 . S
C451 N450 1.369 . S
C451 C455 1.415 . S
C451 C458 1.422 . S
C452 H443 0.929 . S
C452 N450 1.338 . S
C452 C454 1.378 . S
C453 H448 0.931 . S
C453 C454 1.348 . S
C453 C455 1.413 . S
C454 H449 0.930 . S
C454 C452 1.378 . S
C454 C453 1.348 . S
C455 C451 1.415 . S
C455 C453 1.413 . S
C455 C485 1.437 . S
H456 C485 0.929 . S
N457 Gd430 2.570 . S
N457 C458 1.359 . S
N457 C461 1.343 . S
C458 C451 1.422 . S
C458 N457 1.359 . S
C458 C460 1.421 . S
C459 C460 1.422 . S
C459 C462 1.321 . S
C459 H486 0.931 . S
C460 C458 1.421 . S
C460 C459 1.422 . S
C460 C484 1.417 . S
C461 H438 0.931 . S
C461 N457 1.343 . S
C461 C462 1.390 . S
C462 H440 0.930 . S
C462 C459 1.321 . S
C462 C461 1.390 . S
O463 Gd431 2.386 . S
O463 C475 1.265 . S
O464 Gd430 2.353 . S
O464 C475 1.242 . S
O465 Gd430 2.468 . S
O465 C483 1.263 . S
O466 Gd430 2.427 . S
O466 C483 1.252 . S
O467 Gd431 2.307 . S
O467 C476 1.261 . S
O468 Gd430 2.388 . S
O468 C476 1.252 . S
O469 Gd430 2.386 . S
O469 C487 1.265 . S
O470 Gd431 2.353 . S
O470 C487 1.242 . S
O471 Gd431 2.468 . S
O471 C495 1.263 . S
O472 Gd431 2.427 . S
O472 C495 1.252 . S
O473 Gd430 2.307 . S
O473 C488 1.261 . S
O474 Gd431 2.388 . S
O474 C488 1.252 . S
C475 O463 1.265 . S
C475 O464 1.242 . S
C476 O467 1.261 . S
C476 O468 1.252 . S
C477 C480 1.394 . S
C477 C482 1.370 . S
C477 C483 1.500 . S
C478 C481 1.383 . S
C478 C482 1.395 . S
C479 C480 1.396 . S
C479 C481 1.365 . S
C479 H496 0.929 . S
C480 C477 1.394 . S
C480 C479 1.396 . S
C480 H497 0.930 . S
C481 C478 1.383 . S
C481 C479 1.365 . S
C481 H498 0.931 . S
C482 C477 1.370 . S
C482 C478 1.395 . S
C482 H499 0.930 . S
C483 Gd430 2.805 . S
C483 O465 1.263 . S
C483 O466 1.252 . S
C483 C477 1.500 . S
C484 H446 0.930 . S
C484 C460 1.417 . S
C484 C485 1.329 . S
C485 C455 1.437 . S
C485 H456 0.929 . S
C485 C484 1.329 . S
H486 C459 0.931 . S
C487 O469 1.265 . S
C487 O470 1.242 . S
C488 O473 1.261 . S
C488 O474 1.252 . S
C489 C492 1.394 . S
C489 C494 1.370 . S
C489 C495 1.500 . S
C490 C493 1.383 . S
C490 C494 1.395 1_455 S
C491 C492 1.396 1_455 S
C491 C493 1.365 . S
C491 H500 0.929 . S
C492 C489 1.394 . S
C492 C491 1.396 1_655 S
C492 H501 0.930 . S
C493 C490 1.383 . S
C493 C491 1.365 . S
C493 H502 0.931 . S
C494 C489 1.370 . S
C494 C490 1.395 1_655 S
C494 H503 0.930 . S
C495 Gd431 2.805 . S
C495 O471 1.263 . S
C495 O472 1.252 . S
C495 C489 1.500 . S
H496 C479 0.929 . S
H497 C480 0.930 . S
H498 C481 0.931 . S
H499 C482 0.930 . S
H500 C491 0.929 . S
H501 C492 0.930 . S
H502 C493 0.931 . S
H503 C494 0.930 . S
C504 C506 1.422 . S
C504 C508 1.415 . S
C504 N510 1.369 . S
C505 C506 1.421 . S
C505 C507 1.417 . S
C505 C517 1.422 . S
C506 C504 1.422 . S
C506 C505 1.421 . S
C506 N516 1.359 . S
C507 C505 1.417 . S
C507 C509 1.329 . S
C507 H526 0.930 . S
C508 C504 1.415 . S
C508 C509 1.437 . S
C508 C512 1.413 . S
C509 C507 1.329 . S
C509 C508 1.437 . S
C509 H531 0.929 . S
N510 C504 1.369 . S
N510 C511 1.338 . S
N510 Gd515 2.622 . S
C511 N510 1.338 . S
C511 C513 1.378 . S
C511 H523 0.929 . S
C512 C508 1.413 . S
C512 C513 1.348 . S
C512 H528 0.931 . S
C513 C511 1.378 . S
C513 C512 1.348 . S
C513 H529 0.930 . S
Gd514 N534 2.622 . S
Gd514 N541 2.570 . S
Gd514 O548 2.353 . S
Gd514 O549 2.468 . S
Gd514 O550 2.427 . S
Gd514 O552 2.388 . S
Gd514 O553 2.386 . S
Gd514 O557 2.307 . S
Gd514 C567 2.805 . S
Gd515 N510 2.622 . S
Gd515 N516 2.570 . S
Gd515 O547 2.386 . S
Gd515 O551 2.307 . S
Gd515 O554 2.353 . S
Gd515 O555 2.468 . S
Gd515 O556 2.427 . S
Gd515 O558 2.388 . S
Gd515 C579 2.805 . S
N516 C506 1.359 . S
N516 Gd515 2.570 . S
N516 C518 1.343 . S
C517 C505 1.422 . S
C517 C519 1.321 . S
C517 H525 0.931 . S
C518 N516 1.343 . S
C518 C519 1.390 . S
C518 H520 0.931 . S
C519 C517 1.321 . S
C519 C518 1.390 . S
C519 H521 0.930 . S
H520 C518 0.931 . S
H521 C519 0.930 . S
H522 C545 0.931 . S
H523 C511 0.929 . S
H524 C546 0.930 . S
H525 C517 0.931 . S
H526 C507 0.930 . S
H527 C536 0.929 . S
H528 C512 0.931 . S
H529 C513 0.930 . S
H530 C568 0.930 . S
H531 C509 0.929 . S
H532 C537 0.931 . S
H533 C538 0.930 . S
N534 Gd514 2.622 . S
N534 C535 1.369 . S
N534 C536 1.338 . S
C535 N534 1.369 . S
C535 C539 1.415 . S
C535 C542 1.422 . S
C536 H527 0.929 . S
C536 N534 1.338 . S
C536 C538 1.378 . S
C537 H532 0.931 . S
C537 C538 1.348 . S
C537 C539 1.413 . S
C538 H533 0.930 . S
C538 C536 1.378 . S
C538 C537 1.348 . S
C539 C535 1.415 . S
C539 C537 1.413 . S
C539 C569 1.437 . S
H540 C569 0.929 . S
N541 Gd514 2.570 . S
N541 C542 1.359 . S
N541 C545 1.343 . S
C542 C535 1.422 . S
C542 N541 1.359 . S
C542 C544 1.421 . S
C543 C544 1.422 . S
C543 C546 1.321 . S
C543 H570 0.931 . S
C544 C542 1.421 . S
C544 C543 1.422 . S
C544 C568 1.417 . S
C545 H522 0.931 . S
C545 N541 1.343 . S
C545 C546 1.390 . S
C546 H524 0.930 . S
C546 C543 1.321 . S
C546 C545 1.390 . S
O547 Gd515 2.386 . S
O547 C559 1.265 . S
O548 Gd514 2.353 . S
O548 C559 1.242 . S
O549 Gd514 2.468 . S
O549 C567 1.263 . S
O550 Gd514 2.427 . S
O550 C567 1.252 . S
O551 Gd515 2.307 . S
O551 C560 1.261 . S
O552 Gd514 2.388 . S
O552 C560 1.252 . S
O553 Gd514 2.386 . S
O553 C571 1.265 . S
O554 Gd515 2.353 . S
O554 C571 1.242 . S
O555 Gd515 2.468 . S
O555 C579 1.263 . S
O556 Gd515 2.427 . S
O556 C579 1.252 . S
O557 Gd514 2.307 . S
O557 C572 1.261 . S
O558 Gd515 2.388 . S
O558 C572 1.252 . S
C559 O547 1.265 . S
C559 O548 1.242 . S
C560 O551 1.261 . S
C560 O552 1.252 . S
C561 C564 1.394 . S
C561 C566 1.370 . S
C561 C567 1.500 . S
C562 C565 1.383 . S
C562 C566 1.395 . S
C563 C564 1.396 . S
C563 C565 1.365 . S
C563 H580 0.929 . S
C564 C561 1.394 . S
C564 C563 1.396 . S
C564 H581 0.930 . S
C565 C562 1.383 . S
C565 C563 1.365 . S
C565 H582 0.931 . S
C566 C561 1.370 . S
C566 C562 1.395 . S
C566 H583 0.930 . S
C567 Gd514 2.805 . S
C567 O549 1.263 . S
C567 O550 1.252 . S
C567 C561 1.500 . S
C568 H530 0.930 . S
C568 C544 1.417 . S
C568 C569 1.329 . S
C569 C539 1.437 . S
C569 H540 0.929 . S
C569 C568 1.329 . S
H570 C543 0.931 . S
C571 O553 1.265 . S
C571 O554 1.242 . S
C572 O557 1.261 . S
C572 O558 1.252 . S
C573 C576 1.394 . S
C573 C578 1.370 . S
C573 C579 1.500 . S
C574 C577 1.383 . S
C574 C578 1.395 1_655 S
C575 C576 1.396 1_655 S
C575 C577 1.365 . S
C575 H584 0.929 . S
C576 C573 1.394 . S
C576 C575 1.396 1_455 S
C576 H585 0.930 . S
C577 C574 1.383 . S
C577 C575 1.365 . S
C577 H586 0.931 . S
C578 C573 1.370 . S
C578 C574 1.395 1_455 S
C578 H587 0.930 . S
C579 Gd515 2.805 . S
C579 O555 1.263 . S
C579 O556 1.252 . S
C579 C573 1.500 . S
H580 C563 0.929 . S
H581 C564 0.930 . S
H582 C565 0.931 . S
H583 C566 0.930 . S
H584 C575 0.929 . S
H585 C576 0.930 . S
H586 C577 0.931 . S
H587 C578 0.930 . S
C588 C590 1.422 . S
C588 C592 1.415 . S
C588 N594 1.369 . S
C589 C590 1.421 . S
C589 C591 1.417 . S
C589 C601 1.422 . S
C590 C588 1.422 . S
C590 C589 1.421 . S
C590 N600 1.359 . S
C591 C589 1.417 . S
C591 C593 1.329 . S
C591 H610 0.930 . S
C592 C588 1.415 . S
C592 C593 1.437 . S
C592 C596 1.413 . S
C593 C591 1.329 . S
C593 C592 1.437 . S
C593 H615 0.929 . S
N594 C588 1.369 . S
N594 C595 1.338 . S
N594 Gd599 2.622 . S
C595 N594 1.338 . S
C595 C597 1.378 . S
C595 H607 0.929 . S
C596 C592 1.413 . S
C596 C597 1.348 . S
C596 H612 0.931 . S
C597 C595 1.378 . S
C597 C596 1.348 . S
C597 H613 0.930 . S
Gd598 N618 2.622 . S
Gd598 N625 2.570 . S
Gd598 O632 2.353 . S
Gd598 O633 2.468 . S
Gd598 O634 2.427 . S
Gd598 O636 2.388 . S
Gd598 O637 2.386 . S
Gd598 O641 2.307 . S
Gd598 C651 2.805 . S
Gd599 N594 2.622 . S
Gd599 N600 2.570 . S
Gd599 O631 2.386 . S
Gd599 O635 2.307 . S
Gd599 O638 2.353 . S
Gd599 O639 2.468 . S
Gd599 O640 2.427 . S
Gd599 O642 2.388 . S
Gd599 C663 2.805 . S
N600 C590 1.359 . S
N600 Gd599 2.570 . S
N600 C602 1.343 . S
C601 C589 1.422 . S
C601 C603 1.321 . S
C601 H609 0.931 . S
C602 N600 1.343 . S
C602 C603 1.390 . S
C602 H604 0.931 . S
C603 C601 1.321 . S
C603 C602 1.390 . S
C603 H605 0.930 . S
H604 C602 0.931 . S
H605 C603 0.930 . S
H606 C629 0.931 . S
H607 C595 0.929 . S
H608 C630 0.930 . S
H609 C601 0.931 . S
H610 C591 0.930 . S
H611 C620 0.929 . S
H612 C596 0.931 . S
H613 C597 0.930 . S
H614 C652 0.930 . S
H615 C593 0.929 . S
H616 C621 0.931 . S
H617 C622 0.930 . S
N618 Gd598 2.622 . S
N618 C619 1.369 . S
N618 C620 1.338 . S
C619 N618 1.369 . S
C619 C623 1.415 . S
C619 C626 1.422 . S
C620 H611 0.929 . S
C620 N618 1.338 . S
C620 C622 1.378 . S
C621 H616 0.931 . S
C621 C622 1.348 . S
C621 C623 1.413 . S
C622 H617 0.930 . S
C622 C620 1.378 . S
C622 C621 1.348 . S
C623 C619 1.415 . S
C623 C621 1.413 . S
C623 C653 1.437 . S
H624 C653 0.929 . S
N625 Gd598 2.570 . S
N625 C626 1.359 . S
N625 C629 1.343 . S
C626 C619 1.422 . S
C626 N625 1.359 . S
C626 C628 1.421 . S
C627 C628 1.422 . S
C627 C630 1.321 . S
C627 H654 0.931 . S
C628 C626 1.421 . S
C628 C627 1.422 . S
C628 C652 1.417 . S
C629 H606 0.931 . S
C629 N625 1.343 . S
C629 C630 1.390 . S
C630 H608 0.930 . S
C630 C627 1.321 . S
C630 C629 1.390 . S
O631 Gd599 2.386 . S
O631 C643 1.265 . S
O632 Gd598 2.353 . S
O632 C643 1.242 . S
O633 Gd598 2.468 . S
O633 C651 1.263 . S
O634 Gd598 2.427 . S
O634 C651 1.252 . S
O635 Gd599 2.307 . S
O635 C644 1.261 . S
O636 Gd598 2.388 . S
O636 C644 1.252 . S
O637 Gd598 2.386 . S
O637 C655 1.265 . S
O638 Gd599 2.353 . S
O638 C655 1.242 . S
O639 Gd599 2.468 . S
O639 C663 1.263 . S
O640 Gd599 2.427 . S
O640 C663 1.252 . S
O641 Gd598 2.307 . S
O641 C656 1.261 . S
O642 Gd599 2.388 . S
O642 C656 1.252 . S
C643 O631 1.265 . S
C643 O632 1.242 . S
C644 O635 1.261 . S
C644 O636 1.252 . S
C645 C648 1.394 . S
C645 C650 1.370 . S
C645 C651 1.500 . S
C646 C649 1.383 . S
C646 C650 1.395 1_545 S
C647 C648 1.396 1_545 S
C647 C649 1.365 . S
C647 H664 0.929 . S
C648 C645 1.394 . S
C648 C647 1.396 1_565 S
C648 H665 0.930 . S
C649 C646 1.383 . S
C649 C647 1.365 . S
C649 H666 0.931 . S
C650 C645 1.370 . S
C650 C646 1.395 1_565 S
C650 H667 0.930 . S
C651 Gd598 2.805 . S
C651 O633 1.263 . S
C651 O634 1.252 . S
C651 C645 1.500 . S
C652 H614 0.930 . S
C652 C628 1.417 . S
C652 C653 1.329 . S
C653 C623 1.437 . S
C653 H624 0.929 . S
C653 C652 1.329 . S
H654 C627 0.931 . S
C655 O637 1.265 . S
C655 O638 1.242 . S
C656 O641 1.261 . S
C656 O642 1.252 . S
C657 C660 1.394 . S
C657 C662 1.370 . S
C657 C663 1.500 . S
C658 C661 1.383 . S
C658 C662 1.395 . S
C659 C660 1.396 . S
C659 C661 1.365 . S
C659 H668 0.929 . S
C660 C657 1.394 . S
C660 C659 1.396 . S
C660 H669 0.930 . S
C661 C658 1.383 . S
C661 C659 1.365 . S
C661 H670 0.931 . S
C662 C657 1.370 . S
C662 C658 1.395 . S
C662 H671 0.930 . S
C663 Gd599 2.805 . S
C663 O639 1.263 . S
C663 O640 1.252 . S
C663 C657 1.500 . S
H664 C647 0.929 . S
H665 C648 0.930 . S
H666 C649 0.931 . S
H667 C650 0.930 . S
H668 C659 0.929 . S
H669 C660 0.930 . S
H670 C661 0.931 . S
H671 C662 0.930 . S
C672 C674 1.422 . S
C672 C676 1.415 . S
C672 N678 1.369 . S
C673 C674 1.421 . S
C673 C675 1.417 . S
C673 C685 1.422 . S
C674 C672 1.422 . S
C674 C673 1.421 . S
C674 N684 1.359 . S
C675 C673 1.417 . S
C675 C677 1.329 . S
C675 H694 0.930 . S
C676 C672 1.415 . S
C676 C677 1.437 . S
C676 C680 1.413 . S
C677 C675 1.329 . S
C677 C676 1.437 . S
C677 H699 0.929 . S
N678 C672 1.369 . S
N678 C679 1.338 . S
N678 Gd683 2.622 . S
C679 N678 1.338 . S
C679 C681 1.378 . S
C679 H691 0.929 . S
C680 C676 1.413 . S
C680 C681 1.348 . S
C680 H696 0.931 . S
C681 C679 1.378 . S
C681 C680 1.348 . S
C681 H697 0.930 . S
Gd682 N702 2.622 . S
Gd682 N709 2.570 . S
Gd682 O716 2.353 . S
Gd682 O717 2.468 . S
Gd682 O718 2.427 . S
Gd682 O720 2.388 . S
Gd682 O721 2.386 . S
Gd682 O725 2.307 . S
Gd682 C735 2.805 . S
Gd683 N678 2.622 . S
Gd683 N684 2.570 . S
Gd683 O715 2.386 . S
Gd683 O719 2.307 . S
Gd683 O722 2.353 . S
Gd683 O723 2.468 . S
Gd683 O724 2.427 . S
Gd683 O726 2.388 . S
Gd683 C747 2.805 . S
N684 C674 1.359 . S
N684 Gd683 2.570 . S
N684 C686 1.343 . S
C685 C673 1.422 . S
C685 C687 1.321 . S
C685 H693 0.931 . S
C686 N684 1.343 . S
C686 C687 1.390 . S
C686 H688 0.931 . S
C687 C685 1.321 . S
C687 C686 1.390 . S
C687 H689 0.930 . S
H688 C686 0.931 . S
H689 C687 0.930 . S
H690 C713 0.931 . S
H691 C679 0.929 . S
H692 C714 0.930 . S
H693 C685 0.931 . S
H694 C675 0.930 . S
H695 C704 0.929 . S
H696 C680 0.931 . S
H697 C681 0.930 . S
H698 C736 0.930 . S
H699 C677 0.929 . S
H700 C705 0.931 . S
H701 C706 0.930 . S
N702 Gd682 2.622 . S
N702 C703 1.369 . S
N702 C704 1.338 . S
C703 N702 1.369 . S
C703 C707 1.415 . S
C703 C710 1.422 . S
C704 H695 0.929 . S
C704 N702 1.338 . S
C704 C706 1.378 . S
C705 H700 0.931 . S
C705 C706 1.348 . S
C705 C707 1.413 . S
C706 H701 0.930 . S
C706 C704 1.378 . S
C706 C705 1.348 . S
C707 C703 1.415 . S
C707 C705 1.413 . S
C707 C737 1.437 . S
H708 C737 0.929 . S
N709 Gd682 2.570 . S
N709 C710 1.359 . S
N709 C713 1.343 . S
C710 C703 1.422 . S
C710 N709 1.359 . S
C710 C712 1.421 . S
C711 C712 1.422 . S
C711 C714 1.321 . S
C711 H738 0.931 . S
C712 C710 1.421 . S
C712 C711 1.422 . S
C712 C736 1.417 . S
C713 H690 0.931 . S
C713 N709 1.343 . S
C713 C714 1.390 . S
C714 H692 0.930 . S
C714 C711 1.321 . S
C714 C713 1.390 . S
O715 Gd683 2.386 . S
O715 C727 1.265 . S
O716 Gd682 2.353 . S
O716 C727 1.242 . S
O717 Gd682 2.468 . S
O717 C735 1.263 . S
O718 Gd682 2.427 . S
O718 C735 1.252 . S
O719 Gd683 2.307 . S
O719 C728 1.261 . S
O720 Gd682 2.388 . S
O720 C728 1.252 . S
O721 Gd682 2.386 . S
O721 C739 1.265 . S
O722 Gd683 2.353 . S
O722 C739 1.242 . S
O723 Gd683 2.468 . S
O723 C747 1.263 . S
O724 Gd683 2.427 . S
O724 C747 1.252 . S
O725 Gd682 2.307 . S
O725 C740 1.261 . S
O726 Gd683 2.388 . S
O726 C740 1.252 . S
C727 O715 1.265 . S
C727 O716 1.242 . S
C728 O719 1.261 . S
C728 O720 1.252 . S
C729 C732 1.394 . S
C729 C734 1.370 . S
C729 C735 1.500 . S
C730 C733 1.383 . S
C730 C734 1.395 . S
C731 C732 1.396 . S
C731 C733 1.365 . S
C731 H748 0.929 . S
C732 C729 1.394 . S
C732 C731 1.396 . S
C732 H749 0.930 . S
C733 C730 1.383 . S
C733 C731 1.365 . S
C733 H750 0.931 . S
C734 C729 1.370 . S
C734 C730 1.395 . S
C734 H751 0.930 . S
C735 Gd682 2.805 . S
C735 O717 1.263 . S
C735 O718 1.252 . S
C735 C729 1.500 . S
C736 H698 0.930 . S
C736 C712 1.417 . S
C736 C737 1.329 . S
C737 C707 1.437 . S
C737 H708 0.929 . S
C737 C736 1.329 . S
H738 C711 0.931 . S
C739 O721 1.265 . S
C739 O722 1.242 . S
C740 O725 1.261 . S
C740 O726 1.252 . S
C741 C744 1.394 . S
C741 C746 1.370 . S
C741 C747 1.500 . S
C742 C745 1.383 . S
C742 C746 1.395 . S
C743 C744 1.396 . S
C743 C745 1.365 . S
C743 H752 0.929 . S
C744 C741 1.394 . S
C744 C743 1.396 . S
C744 H753 0.930 . S
C745 C742 1.383 . S
C745 C743 1.365 . S
C745 H754 0.931 . S
C746 C741 1.370 . S
C746 C742 1.395 . S
C746 H755 0.930 . S
C747 Gd683 2.805 . S
C747 O723 1.263 . S
C747 O724 1.252 . S
C747 C741 1.500 . S
H748 C731 0.929 . S
H749 C732 0.930 . S
H750 C733 0.931 . S
H751 C734 0.930 . S
H752 C743 0.929 . S
H753 C744 0.930 . S
H754 C745 0.931 . S
H755 C746 0.930 . S
C756 C758 1.422 . S
C756 C760 1.415 . S
C756 N762 1.369 . S
C757 C758 1.421 . S
C757 C759 1.417 . S
C757 C769 1.422 . S
C758 C756 1.422 . S
C758 C757 1.421 . S
C758 N768 1.359 . S
C759 C757 1.417 . S
C759 C761 1.329 . S
C759 H778 0.930 . S
C760 C756 1.415 . S
C760 C761 1.437 . S
C760 C764 1.413 . S
C761 C759 1.329 . S
C761 C760 1.437 . S
C761 H783 0.929 . S
N762 C756 1.369 . S
N762 C763 1.338 . S
N762 Gd767 2.622 . S
C763 N762 1.338 . S
C763 C765 1.378 . S
C763 H775 0.929 . S
C764 C760 1.413 . S
C764 C765 1.348 . S
C764 H780 0.931 . S
C765 C763 1.378 . S
C765 C764 1.348 . S
C765 H781 0.930 . S
Gd766 N786 2.622 . S
Gd766 N793 2.570 . S
Gd766 O800 2.353 . S
Gd766 O801 2.468 . S
Gd766 O802 2.427 . S
Gd766 O804 2.388 . S
Gd766 O805 2.386 . S
Gd766 O809 2.307 . S
Gd766 C819 2.805 . S
Gd767 N762 2.622 . S
Gd767 N768 2.570 . S
Gd767 O799 2.386 . S
Gd767 O803 2.307 . S
Gd767 O806 2.353 . S
Gd767 O807 2.468 . S
Gd767 O808 2.427 . S
Gd767 O810 2.388 . S
Gd767 C831 2.805 . S
N768 C758 1.359 . S
N768 Gd767 2.570 . S
N768 C770 1.343 . S
C769 C757 1.422 . S
C769 C771 1.321 . S
C769 H777 0.931 . S
C770 N768 1.343 . S
C770 C771 1.390 . S
C770 H772 0.931 . S
C771 C769 1.321 . S
C771 C770 1.390 . S
C771 H773 0.930 . S
H772 C770 0.931 . S
H773 C771 0.930 . S
H774 C797 0.931 . S
H775 C763 0.929 . S
H776 C798 0.930 . S
H777 C769 0.931 . S
H778 C759 0.930 . S
H779 C788 0.929 . S
H780 C764 0.931 . S
H781 C765 0.930 . S
H782 C820 0.930 . S
H783 C761 0.929 . S
H784 C789 0.931 . S
H785 C790 0.930 . S
N786 Gd766 2.622 . S
N786 C787 1.369 . S
N786 C788 1.338 . S
C787 N786 1.369 . S
C787 C791 1.415 . S
C787 C794 1.422 . S
C788 H779 0.929 . S
C788 N786 1.338 . S
C788 C790 1.378 . S
C789 H784 0.931 . S
C789 C790 1.348 . S
C789 C791 1.413 . S
C790 H785 0.930 . S
C790 C788 1.378 . S
C790 C789 1.348 . S
C791 C787 1.415 . S
C791 C789 1.413 . S
C791 C821 1.437 . S
H792 C821 0.929 . S
N793 Gd766 2.570 . S
N793 C794 1.359 . S
N793 C797 1.343 . S
C794 C787 1.422 . S
C794 N793 1.359 . S
C794 C796 1.421 . S
C795 C796 1.422 . S
C795 C798 1.321 . S
C795 H822 0.931 . S
C796 C794 1.421 . S
C796 C795 1.422 . S
C796 C820 1.417 . S
C797 H774 0.931 . S
C797 N793 1.343 . S
C797 C798 1.390 . S
C798 H776 0.930 . S
C798 C795 1.321 . S
C798 C797 1.390 . S
O799 Gd767 2.386 . S
O799 C811 1.265 . S
O800 Gd766 2.353 . S
O800 C811 1.242 . S
O801 Gd766 2.468 . S
O801 C819 1.263 . S
O802 Gd766 2.427 . S
O802 C819 1.252 . S
O803 Gd767 2.307 . S
O803 C812 1.261 . S
O804 Gd766 2.388 . S
O804 C812 1.252 . S
O805 Gd766 2.386 . S
O805 C823 1.265 . S
O806 Gd767 2.353 . S
O806 C823 1.242 . S
O807 Gd767 2.468 . S
O807 C831 1.263 . S
O808 Gd767 2.427 . S
O808 C831 1.252 . S
O809 Gd766 2.307 . S
O809 C824 1.261 . S
O810 Gd767 2.388 . S
O810 C824 1.252 . S
C811 O799 1.265 . S
C811 O800 1.242 . S
C812 O803 1.261 . S
C812 O804 1.252 . S
C813 C816 1.394 . S
C813 C818 1.370 . S
C813 C819 1.500 . S
C814 C817 1.383 . S
C814 C818 1.395 1_655 S
C815 C816 1.396 1_655 S
C815 C817 1.365 . S
C815 H832 0.929 . S
C816 C813 1.394 . S
C816 C815 1.396 1_455 S
C816 H833 0.930 . S
C817 C814 1.383 . S
C817 C815 1.365 . S
C817 H834 0.931 . S
C818 C813 1.370 . S
C818 C814 1.395 1_455 S
C818 H835 0.930 . S
C819 Gd766 2.805 . S
C819 O801 1.263 . S
C819 O802 1.252 . S
C819 C813 1.500 . S
C820 H782 0.930 . S
C820 C796 1.417 . S
C820 C821 1.329 . S
C821 C791 1.437 . S
C821 H792 0.929 . S
C821 C820 1.329 . S
H822 C795 0.931 . S
C823 O805 1.265 . S
C823 O806 1.242 . S
C824 O809 1.261 . S
C824 O810 1.252 . S
C825 C828 1.394 . S
C825 C830 1.370 . S
C825 C831 1.500 . S
C826 C829 1.383 . S
C826 C830 1.395 . S
C827 C828 1.396 . S
C827 C829 1.365 . S
C827 H836 0.929 . S
C828 C825 1.394 . S
C828 C827 1.396 . S
C828 H837 0.930 . S
C829 C826 1.383 . S
C829 C827 1.365 . S
C829 H838 0.931 . S
C830 C825 1.370 . S
C830 C826 1.395 . S
C830 H839 0.930 . S
C831 Gd767 2.805 . S
C831 O807 1.263 . S
C831 O808 1.252 . S
C831 C825 1.500 . S
H832 C815 0.929 . S
H833 C816 0.930 . S
H834 C817 0.931 . S
H835 C818 0.930 . S
H836 C827 0.929 . S
H837 C828 0.930 . S
H838 C829 0.931 . S
H839 C830 0.930 . S
C840 C842 1.422 . S
C840 C844 1.415 . S
C840 N846 1.369 . S
C841 C842 1.421 . S
C841 C843 1.417 . S
C841 C853 1.422 . S
C842 C840 1.422 . S
C842 C841 1.421 . S
C842 N852 1.359 . S
C843 C841 1.417 . S
C843 C845 1.329 . S
C843 H862 0.930 . S
C844 C840 1.415 . S
C844 C845 1.437 . S
C844 C848 1.413 . S
C845 C843 1.329 . S
C845 C844 1.437 . S
C845 H867 0.929 . S
N846 C840 1.369 . S
N846 C847 1.338 . S
N846 Gd851 2.622 . S
C847 N846 1.338 . S
C847 C849 1.378 . S
C847 H859 0.929 . S
C848 C844 1.413 . S
C848 C849 1.348 . S
C848 H864 0.931 . S
C849 C847 1.378 . S
C849 C848 1.348 . S
C849 H865 0.930 . S
Gd850 N870 2.622 . S
Gd850 N877 2.570 . S
Gd850 O884 2.353 . S
Gd850 O885 2.468 . S
Gd850 O886 2.427 . S
Gd850 O888 2.388 . S
Gd850 O889 2.386 . S
Gd850 O893 2.307 . S
Gd850 C903 2.805 . S
Gd851 N846 2.622 . S
Gd851 N852 2.570 . S
Gd851 O883 2.386 . S
Gd851 O887 2.307 . S
Gd851 O890 2.353 . S
Gd851 O891 2.468 . S
Gd851 O892 2.427 . S
Gd851 O894 2.388 . S
Gd851 C915 2.805 . S
N852 C842 1.359 . S
N852 Gd851 2.570 . S
N852 C854 1.343 . S
C853 C841 1.422 . S
C853 C855 1.321 . S
C853 H861 0.931 . S
C854 N852 1.343 . S
C854 C855 1.390 . S
C854 H856 0.931 . S
C855 C853 1.321 . S
C855 C854 1.390 . S
C855 H857 0.930 . S
H856 C854 0.931 . S
H857 C855 0.930 . S
H858 C881 0.931 . S
H859 C847 0.929 . S
H860 C882 0.930 . S
H861 C853 0.931 . S
H862 C843 0.930 . S
H863 C872 0.929 . S
H864 C848 0.931 . S
H865 C849 0.930 . S
H866 C904 0.930 . S
H867 C845 0.929 . S
H868 C873 0.931 . S
H869 C874 0.930 . S
N870 Gd850 2.622 . S
N870 C871 1.369 . S
N870 C872 1.338 . S
C871 N870 1.369 . S
C871 C875 1.415 . S
C871 C878 1.422 . S
C872 H863 0.929 . S
C872 N870 1.338 . S
C872 C874 1.378 . S
C873 H868 0.931 . S
C873 C874 1.348 . S
C873 C875 1.413 . S
C874 H869 0.930 . S
C874 C872 1.378 . S
C874 C873 1.348 . S
C875 C871 1.415 . S
C875 C873 1.413 . S
C875 C905 1.437 . S
H876 C905 0.929 . S
N877 Gd850 2.570 . S
N877 C878 1.359 . S
N877 C881 1.343 . S
C878 C871 1.422 . S
C878 N877 1.359 . S
C878 C880 1.421 . S
C879 C880 1.422 . S
C879 C882 1.321 . S
C879 H906 0.931 . S
C880 C878 1.421 . S
C880 C879 1.422 . S
C880 C904 1.417 . S
C881 H858 0.931 . S
C881 N877 1.343 . S
C881 C882 1.390 . S
C882 H860 0.930 . S
C882 C879 1.321 . S
C882 C881 1.390 . S
O883 Gd851 2.386 . S
O883 C895 1.265 . S
O884 Gd850 2.353 . S
O884 C895 1.242 . S
O885 Gd850 2.468 . S
O885 C903 1.263 . S
O886 Gd850 2.427 . S
O886 C903 1.252 . S
O887 Gd851 2.307 . S
O887 C896 1.261 . S
O888 Gd850 2.388 . S
O888 C896 1.252 . S
O889 Gd850 2.386 . S
O889 C907 1.265 . S
O890 Gd851 2.353 . S
O890 C907 1.242 . S
O891 Gd851 2.468 . S
O891 C915 1.263 . S
O892 Gd851 2.427 . S
O892 C915 1.252 . S
O893 Gd850 2.307 . S
O893 C908 1.261 . S
O894 Gd851 2.388 . S
O894 C908 1.252 . S
C895 O883 1.265 . S
C895 O884 1.242 . S
C896 O887 1.261 . S
C896 O888 1.252 . S
C897 C900 1.394 . S
C897 C902 1.370 . S
C897 C903 1.500 . S
C898 C901 1.383 . S
C898 C902 1.395 . S
C899 C900 1.396 . S
C899 C901 1.365 . S
C899 H916 0.929 . S
C900 C897 1.394 . S
C900 C899 1.396 . S
C900 H917 0.930 . S
C901 C898 1.383 . S
C901 C899 1.365 . S
C901 H918 0.931 . S
C902 C897 1.370 . S
C902 C898 1.395 . S
C902 H919 0.930 . S
C903 Gd850 2.805 . S
C903 O885 1.263 . S
C903 O886 1.252 . S
C903 C897 1.500 . S
C904 H866 0.930 . S
C904 C880 1.417 . S
C904 C905 1.329 . S
C905 C875 1.437 . S
C905 H876 0.929 . S
C905 C904 1.329 . S
H906 C879 0.931 . S
C907 O889 1.265 . S
C907 O890 1.242 . S
C908 O893 1.261 . S
C908 O894 1.252 . S
C909 C912 1.394 . S
C909 C914 1.370 . S
C909 C915 1.500 . S
C910 C913 1.383 . S
C910 C914 1.395 1_545 S
C911 C912 1.396 1_545 S
C911 C913 1.365 . S
C911 H920 0.929 . S
C912 C909 1.394 . S
C912 C911 1.396 1_565 S
C912 H921 0.930 . S
C913 C910 1.383 . S
C913 C911 1.365 . S
C913 H922 0.931 . S
C914 C909 1.370 . S
C914 C910 1.395 1_565 S
C914 H923 0.930 . S
C915 Gd851 2.805 . S
C915 O891 1.263 . S
C915 O892 1.252 . S
C915 C909 1.500 . S
H916 C899 0.929 . S
H917 C900 0.930 . S
H918 C901 0.931 . S
H919 C902 0.930 . S
H920 C911 0.929 . S
H921 C912 0.930 . S
H922 C913 0.931 . S
H923 C914 0.930 . S
C924 C926 1.422 . S
C924 C928 1.415 . S
C924 N930 1.369 . S
C925 C926 1.421 . S
C925 C927 1.417 . S
C925 C937 1.422 . S
C926 C924 1.422 . S
C926 C925 1.421 . S
C926 N936 1.359 . S
C927 C925 1.417 . S
C927 C929 1.329 . S
C927 H946 0.930 . S
C928 C924 1.415 . S
C928 C929 1.437 . S
C928 C932 1.413 . S
C929 C927 1.329 . S
C929 C928 1.437 . S
C929 H951 0.929 . S
N930 C924 1.369 . S
N930 C931 1.338 . S
N930 Gd935 2.622 . S
C931 N930 1.338 . S
C931 C933 1.378 . S
C931 H943 0.929 . S
C932 C928 1.413 . S
C932 C933 1.348 . S
C932 H948 0.931 . S
C933 C931 1.378 . S
C933 C932 1.348 . S
C933 H949 0.930 . S
Gd934 N954 2.622 . S
Gd934 N961 2.570 . S
Gd934 O968 2.353 . S
Gd934 O969 2.468 . S
Gd934 O970 2.427 . S
Gd934 O972 2.388 . S
Gd934 O973 2.386 . S
Gd934 O977 2.307 . S
Gd934 C987 2.805 . S
Gd935 N930 2.622 . S
Gd935 N936 2.570 . S
Gd935 O967 2.386 . S
Gd935 O971 2.307 . S
Gd935 O974 2.353 . S
Gd935 O975 2.468 . S
Gd935 O976 2.427 . S
Gd935 O978 2.388 . S
Gd935 C999 2.805 . S
N936 C926 1.359 . S
N936 Gd935 2.570 . S
N936 C938 1.343 . S
C937 C925 1.422 . S
C937 C939 1.321 . S
C937 H945 0.931 . S
C938 N936 1.343 . S
C938 C939 1.390 . S
C938 H940 0.931 . S
C939 C937 1.321 . S
C939 C938 1.390 . S
C939 H941 0.930 . S
H940 C938 0.931 . S
H941 C939 0.930 . S
H942 C965 0.931 . S
H943 C931 0.929 . S
H944 C966 0.930 . S
H945 C937 0.931 . S
H946 C927 0.930 . S
H947 C956 0.929 . S
H948 C932 0.931 . S
H949 C933 0.930 . S
H950 C988 0.930 . S
H951 C929 0.929 . S
H952 C957 0.931 . S
H953 C958 0.930 . S
N954 Gd934 2.622 . S
N954 C955 1.369 . S
N954 C956 1.338 . S
C955 N954 1.369 . S
C955 C959 1.415 . S
C955 C962 1.422 . S
C956 H947 0.929 . S
C956 N954 1.338 . S
C956 C958 1.378 . S
C957 H952 0.931 . S
C957 C958 1.348 . S
C957 C959 1.413 . S
C958 H953 0.930 . S
C958 C956 1.378 . S
C958 C957 1.348 . S
C959 C955 1.415 . S
C959 C957 1.413 . S
C959 C989 1.437 . S
H960 C989 0.929 . S
N961 Gd934 2.570 . S
N961 C962 1.359 . S
N961 C965 1.343 . S
C962 C955 1.422 . S
C962 N961 1.359 . S
C962 C964 1.421 . S
C963 C964 1.422 . S
C963 C966 1.321 . S
C963 H990 0.931 . S
C964 C962 1.421 . S
C964 C963 1.422 . S
C964 C988 1.417 . S
C965 H942 0.931 . S
C965 N961 1.343 . S
C965 C966 1.390 . S
C966 H944 0.930 . S
C966 C963 1.321 . S
C966 C965 1.390 . S
O967 Gd935 2.386 . S
O967 C979 1.265 . S
O968 Gd934 2.353 . S
O968 C979 1.242 . S
O969 Gd934 2.468 . S
O969 C987 1.263 . S
O970 Gd934 2.427 . S
O970 C987 1.252 . S
O971 Gd935 2.307 . S
O971 C980 1.261 . S
O972 Gd934 2.388 . S
O972 C980 1.252 . S
O973 Gd934 2.386 . S
O973 C991 1.265 . S
O974 Gd935 2.353 . S
O974 C991 1.242 . S
O975 Gd935 2.468 . S
O975 C999 1.263 . S
O976 Gd935 2.427 . S
O976 C999 1.252 . S
O977 Gd934 2.307 . S
O977 C992 1.261 . S
O978 Gd935 2.388 . S
O978 C992 1.252 . S
C979 O967 1.265 . S
C979 O968 1.242 . S
C980 O971 1.261 . S
C980 O972 1.252 . S
C981 C984 1.394 . S
C981 C986 1.370 . S
C981 C987 1.500 . S
C982 C985 1.383 . S
C982 C986 1.395 . S
C983 C984 1.396 . S
C983 C985 1.365 . S
C983 H1000 0.929 . S
C984 C981 1.394 . S
C984 C983 1.396 . S
C984 H1001 0.930 . S
C985 C982 1.383 . S
C985 C983 1.365 . S
C985 H1002 0.931 . S
C986 C981 1.370 . S
C986 C982 1.395 . S
C986 H1003 0.930 . S
C987 Gd934 2.805 . S
C987 O969 1.263 . S
C987 O970 1.252 . S
C987 C981 1.500 . S
C988 H950 0.930 . S
C988 C964 1.417 . S
C988 C989 1.329 . S
C989 C959 1.437 . S
C989 H960 0.929 . S
C989 C988 1.329 . S
H990 C963 0.931 . S
C991 O973 1.265 . S
C991 O974 1.242 . S
C992 O977 1.261 . S
C992 O978 1.252 . S
C993 C996 1.394 . S
C993 C998 1.370 . S
C993 C999 1.500 . S
C994 C997 1.383 . S
C994 C998 1.395 . S
C995 C996 1.396 . S
C995 C997 1.365 . S
C995 H1004 0.929 . S
C996 C993 1.394 . S
C996 C995 1.396 . S
C996 H1005 0.930 . S
C997 C994 1.383 . S
C997 C995 1.365 . S
C997 H1006 0.931 . S
C998 C993 1.370 . S
C998 C994 1.395 . S
C998 H1007 0.930 . S
C999 Gd935 2.805 . S
C999 O975 1.263 . S
C999 O976 1.252 . S
C999 C993 1.500 . S
H1000 C983 0.929 . S
H1001 C984 0.930 . S
H1002 C985 0.931 . S
H1003 C986 0.930 . S
H1004 C995 0.929 . S
H1005 C996 0.930 . S
H1006 C997 0.931 . S
H1007 C998 0.930 . S
H1008 C1026 0.951 . S
H1009 C1028 0.951 . S
H1010 C1030 0.950 . S
H1011 C1031 0.950 . S
H1012 C1033 0.950 . S
H1013 C1036 0.950 . S
H1014 C1037 0.950 . S
H1015 C1039 0.950 . S
H1016 C1040 0.950 . S
H1017 C1041 0.951 . S
H1018 C1043 0.951 . S
H1019 C1045 0.950 . S
H1020 C1046 0.950 . S
H1021 C1048 0.950 . S
H1022 C1051 0.950 . S
H1023 C1052 0.950 . S
H1024 C1054 0.950 . S
H1025 C1055 0.950 . S
C1026 H1008 0.951 . S
C1026 C1027 1.366 . S
C1026 C1028 1.388 . S
C1027 C1026 1.366 . S
C1027 C1031 1.385 . S
C1028 H1009 0.951 . S
C1028 C1026 1.388 . S
C1028 C1029 1.366 . S
C1029 C1028 1.366 . S
C1029 C1030 1.414 . S
C1029 C1032 1.499 . S
C1030 H1010 0.950 . S
C1030 C1029 1.414 . S
C1030 C1031 1.374 . S
C1031 H1011 0.950 . S
C1031 C1027 1.385 . S
C1031 C1030 1.374 . S
C1032 C1029 1.499 . S
C1032 C1033 1.373 . S
C1032 C1034 1.389 . S
C1033 H1012 0.950 . S
C1033 C1032 1.373 . S
C1033 C1049 1.377 . S
C1034 C1032 1.389 . S
C1034 C1035 1.524 . S
C1034 C1048 1.377 . S
C1035 C1034 1.524 . S
C1035 C1036 1.397 . S
C1035 C1040 1.363 . S
C1036 H1013 0.950 . S
C1036 C1035 1.397 . S
C1036 C1037 1.334 . S
C1037 H1014 0.950 . S
C1037 C1036 1.334 . S
C1037 C1038 1.287 . S
C1038 C1037 1.287 . S
C1038 C1039 1.524 . S
C1038 H1057 0.913 . S
C1039 H1015 0.950 . S
C1039 C1038 1.524 . S
C1039 C1040 1.415 . S
C1040 H1016 0.950 . S
C1040 C1035 1.363 . S
C1040 C1039 1.415 . S
C1041 H1017 0.951 . S
C1041 C1042 1.366 . S
C1041 C1043 1.388 . S
C1042 C1041 1.366 . S
C1042 C1046 1.385 . S
C1043 H1018 0.951 . S
C1043 C1041 1.388 . S
C1043 C1044 1.366 . S
C1044 C1043 1.366 . S
C1044 C1045 1.414 . S
C1044 C1047 1.499 . S
C1045 H1019 0.950 . S
C1045 C1044 1.414 . S
C1045 C1046 1.374 . S
C1046 H1020 0.950 . S
C1046 C1042 1.385 . S
C1046 C1045 1.374 . S
C1047 C1044 1.499 . S
C1047 C1048 1.373 . S
C1047 C1049 1.389 . S
C1048 H1021 0.950 . S
C1048 C1034 1.377 . S
C1048 C1047 1.373 . S
C1049 C1033 1.377 . S
C1049 C1047 1.389 . S
C1049 C1050 1.524 . S
C1050 C1049 1.524 . S
C1050 C1051 1.397 . S
C1050 C1055 1.363 . S
C1051 H1022 0.950 . S
C1051 C1050 1.397 . S
C1051 C1052 1.334 . S
C1052 H1023 0.950 . S
C1052 C1051 1.334 . S
C1052 C1053 1.287 . S
C1053 C1052 1.287 . S
C1053 C1054 1.524 . S
C1053 H1056 0.999 . S
C1054 H1024 0.950 . S
C1054 C1053 1.524 . S
C1054 C1055 1.415 . S
C1055 H1025 0.950 . S
C1055 C1050 1.363 . S
C1055 C1054 1.415 . S
H1056 C1053 0.999 . S
H1057 C1038 0.913 . S
H1058 C1076 0.951 . S
H1059 C1078 0.951 . S
H1060 C1080 0.950 . S
H1061 C1081 0.950 . S
H1062 C1083 0.950 . S
H1063 C1086 0.950 . S
H1064 C1087 0.950 . S
H1065 C1089 0.950 . S
H1066 C1090 0.950 . S
H1067 C1091 0.951 . S
H1068 C1093 0.951 . S
H1069 C1095 0.950 . S
H1070 C1096 0.950 . S
H1071 C1098 0.958 . S
H1072 C1101 0.950 . S
H1073 C1102 0.950 . S
H1074 C1104 0.950 1_455 S
H1075 C1105 0.950 . S
C1076 H1058 0.951 . S
C1076 C1077 1.366 . S
C1076 C1078 1.388 . S
C1077 C1076 1.366 . S
C1077 C1081 1.385 . S
C1078 H1059 0.951 . S
C1078 C1076 1.388 . S
C1078 C1079 1.366 . S
C1079 C1078 1.366 . S
C1079 C1080 1.414 . S
C1079 C1082 1.499 . S
C1080 H1060 0.950 . S
C1080 C1079 1.414 . S
C1080 C1081 1.374 . S
C1081 H1061 0.950 . S
C1081 C1077 1.385 . S
C1081 C1080 1.374 . S
C1082 C1079 1.499 . S
C1082 C1083 1.373 . S
C1082 C1084 1.389 . S
C1083 H1062 0.950 . S
C1083 C1082 1.373 . S
C1083 C1099 1.377 . S
C1084 C1082 1.389 . S
C1084 C1085 1.524 . S
C1084 C1098 1.377 . S
C1085 C1084 1.524 . S
C1085 C1086 1.397 . S
C1085 C1090 1.363 . S
C1086 H1063 0.950 . S
C1086 C1085 1.397 . S
C1086 C1087 1.334 . S
C1087 H1064 0.950 . S
C1087 C1086 1.334 . S
C1087 C1088 1.287 . S
C1088 C1087 1.287 . S
C1088 C1089 1.524 . S
C1088 H1107 0.913 . S
C1089 H1065 0.950 . S
C1089 C1088 1.524 . S
C1089 C1090 1.415 . S
C1090 H1066 0.950 . S
C1090 C1085 1.363 . S
C1090 C1089 1.415 . S
C1091 H1067 0.951 . S
C1091 C1092 1.366 . S
C1091 C1093 1.388 . S
C1092 C1091 1.366 . S
C1092 C1096 1.385 . S
C1093 H1068 0.951 . S
C1093 C1091 1.388 . S
C1093 C1094 1.366 . S
C1094 C1093 1.366 . S
C1094 C1095 1.414 . S
C1094 C1097 1.499 . S
C1095 H1069 0.950 . S
C1095 C1094 1.414 . S
C1095 C1096 1.374 . S
C1096 H1070 0.950 . S
C1096 C1092 1.385 . S
C1096 C1095 1.374 . S
C1097 C1094 1.499 . S
C1097 C1098 1.373 1_655 S
C1097 C1099 1.389 1_655 S
C1098 H1071 0.958 . S
C1098 C1084 1.377 . S
C1098 C1097 1.373 1_455 S
C1099 C1083 1.377 . S
C1099 C1097 1.389 1_455 S
C1099 C1100 1.524 1_455 S
C1100 C1099 1.524 1_655 S
C1100 C1101 1.397 . S
C1100 C1105 1.363 1_655 S
C1101 H1072 0.950 . S
C1101 C1100 1.397 . S
C1101 C1102 1.334 . S
C1102 H1073 0.950 . S
C1102 C1101 1.334 . S
C1102 C1103 1.287 . S
C1103 C1102 1.287 . S
C1103 C1104 1.524 . S
C1103 H1106 0.999 . S
C1104 H1074 0.950 1_655 S
C1104 C1103 1.524 . S
C1104 C1105 1.415 1_655 S
C1105 H1075 0.950 . S
C1105 C1100 1.363 1_455 S
C1105 C1104 1.415 1_455 S
H1106 C1103 0.999 . S
H1107 C1088 0.913 . S
H1108 C1126 0.951 . S
H1109 C1128 0.951 . S
H1110 C1130 0.950 . S
H1111 C1131 0.950 . S
H1112 C1133 0.950 . S
H1113 C1136 0.950 . S
H1114 C1137 0.950 . S
H1115 C1139 0.950 . S
H1116 C1140 0.950 . S
H1117 C1141 0.951 . S
H1118 C1143 0.951 . S
H1119 C1145 0.950 . S
H1120 C1146 0.950 . S
H1121 C1148 0.950 . S
H1122 C1151 0.950 . S
H1123 C1152 0.950 . S
H1124 C1154 0.950 . S
H1125 C1155 0.950 . S
C1126 H1108 0.951 . S
C1126 C1127 1.366 . S
C1126 C1128 1.388 . S
C1127 C1126 1.366 . S
C1127 C1131 1.385 . S
C1128 H1109 0.951 . S
C1128 C1126 1.388 . S
C1128 C1129 1.366 . S
C1129 C1128 1.366 . S
C1129 C1130 1.414 . S
C1129 C1132 1.499 . S
C1130 H1110 0.950 . S
C1130 C1129 1.414 . S
C1130 C1131 1.374 . S
C1131 H1111 0.950 . S
C1131 C1127 1.385 . S
C1131 C1130 1.374 . S
C1132 C1129 1.499 . S
C1132 C1133 1.373 1_545 S
C1132 C1134 1.375 1_545 S
C1133 H1112 0.950 . S
C1133 C1132 1.373 1_565 S
C1133 C1149 1.377 . S
C1134 C1132 1.375 1_565 S
C1134 C1135 1.517 1_565 S
C1134 C1148 1.400 . S
C1135 C1134 1.517 1_545 S
C1135 C1136 1.397 . S
C1135 C1140 1.363 . S
C1136 H1113 0.950 . S
C1136 C1135 1.397 . S
C1136 C1137 1.334 . S
C1137 H1114 0.950 . S
C1137 C1136 1.334 . S
C1137 C1138 1.287 . S
C1138 C1137 1.287 . S
C1138 C1139 1.524 . S
C1138 H1157 0.913 . S
C1139 H1115 0.950 . S
C1139 C1138 1.524 . S
C1139 C1140 1.415 . S
C1140 H1116 0.950 . S
C1140 C1135 1.363 . S
C1140 C1139 1.415 . S
C1141 H1117 0.951 . S
C1141 C1142 1.366 . S
C1141 C1143 1.388 . S
C1142 C1141 1.366 . S
C1142 C1146 1.385 . S
C1143 H1118 0.951 . S
C1143 C1141 1.388 . S
C1143 C1144 1.366 . S
C1144 C1143 1.366 . S
C1144 C1145 1.414 . S
C1144 C1147 1.499 . S
C1145 H1119 0.950 . S
C1145 C1144 1.414 . S
C1145 C1146 1.374 . S
C1146 H1120 0.950 . S
C1146 C1142 1.385 . S
C1146 C1145 1.374 . S
C1147 C1144 1.499 . S
C1147 C1148 1.373 . S
C1147 C1149 1.389 . S
C1148 H1121 0.950 . S
C1148 C1134 1.400 . S
C1148 C1147 1.373 . S
C1149 C1133 1.377 . S
C1149 C1147 1.389 . S
C1149 C1150 1.524 . S
C1150 C1149 1.524 . S
C1150 C1151 1.397 . S
C1150 C1155 1.363 . S
C1151 H1122 0.950 . S
C1151 C1150 1.397 . S
C1151 C1152 1.334 . S
C1152 H1123 0.950 . S
C1152 C1151 1.334 . S
C1152 C1153 1.287 . S
C1153 C1152 1.287 . S
C1153 C1154 1.524 . S
C1153 H1156 0.999 . S
C1154 H1124 0.950 . S
C1154 C1153 1.524 . S
C1154 C1155 1.415 . S
C1155 H1125 0.950 . S
C1155 C1150 1.363 . S
C1155 C1154 1.415 . S
H1156 C1153 0.999 . S
H1157 C1138 0.913 . S
H1158 C1176 0.951 . S
H1159 C1178 0.951 . S
H1160 C1180 0.950 . S
H1161 C1181 0.950 . S
H1162 C1183 0.950 . S
H1163 C1186 0.950 . S
H1164 C1187 0.950 . S
H1165 C1189 0.950 . S
H1166 C1190 0.950 . S
H1167 C1191 0.951 . S
H1168 C1193 0.951 . S
H1169 C1195 0.950 . S
H1170 C1196 0.950 . S
H1171 C1198 0.950 . S
H1172 C1201 0.950 . S
H1173 C1202 0.950 . S
H1174 C1204 0.950 . S
H1175 C1205 0.950 . S
C1176 H1158 0.951 . S
C1176 C1177 1.366 . S
C1176 C1178 1.388 . S
C1177 C1176 1.366 . S
C1177 C1181 1.385 . S
C1178 H1159 0.951 . S
C1178 C1176 1.388 . S
C1178 C1179 1.366 . S
C1179 C1178 1.366 . S
C1179 C1180 1.414 . S
C1179 C1182 1.499 . S
C1180 H1160 0.950 . S
C1180 C1179 1.414 . S
C1180 C1181 1.374 . S
C1181 H1161 0.950 . S
C1181 C1177 1.385 . S
C1181 C1180 1.374 . S
C1182 C1179 1.499 . S
C1182 C1183 1.373 . S
C1182 C1184 1.389 . S
C1183 H1162 0.950 . S
C1183 C1182 1.373 . S
C1183 C1199 1.377 . S
C1184 C1182 1.389 . S
C1184 C1185 1.524 . S
C1184 C1198 1.377 . S
C1185 C1184 1.524 . S
C1185 C1186 1.397 . S
C1185 C1190 1.363 . S
C1186 H1163 0.950 . S
C1186 C1185 1.397 . S
C1186 C1187 1.334 . S
C1187 H1164 0.950 . S
C1187 C1186 1.334 . S
C1187 C1188 1.287 . S
C1188 C1187 1.287 . S
C1188 C1189 1.524 . S
C1188 H1207 0.913 . S
C1189 H1165 0.950 . S
C1189 C1188 1.524 . S
C1189 C1190 1.415 . S
C1190 H1166 0.950 . S
C1190 C1185 1.363 . S
C1190 C1189 1.415 . S
C1191 H1167 0.951 . S
C1191 C1192 1.366 . S
C1191 C1193 1.388 . S
C1192 C1191 1.366 . S
C1192 C1196 1.385 . S
C1193 H1168 0.951 . S
C1193 C1191 1.388 . S
C1193 C1194 1.366 . S
C1194 C1193 1.366 . S
C1194 C1195 1.414 . S
C1194 C1197 1.499 . S
C1195 H1169 0.950 . S
C1195 C1194 1.414 . S
C1195 C1196 1.374 . S
C1196 H1170 0.950 . S
C1196 C1192 1.385 . S
C1196 C1195 1.374 . S
C1197 C1194 1.499 . S
C1197 C1198 1.373 . S
C1197 C1199 1.389 . S
C1198 H1171 0.950 . S
C1198 C1184 1.377 . S
C1198 C1197 1.373 . S
C1199 C1183 1.377 . S
C1199 C1197 1.389 . S
C1199 C1200 1.524 . S
C1200 C1199 1.524 . S
C1200 C1201 1.397 . S
C1200 C1205 1.363 . S
C1201 H1172 0.950 . S
C1201 C1200 1.397 . S
C1201 C1202 1.334 . S
C1202 H1173 0.950 . S
C1202 C1201 1.334 . S
C1202 C1203 1.287 . S
C1203 C1202 1.287 . S
C1203 C1204 1.524 . S
C1203 H1206 0.999 . S
C1204 H1174 0.950 . S
C1204 C1203 1.524 . S
C1204 C1205 1.415 . S
C1205 H1175 0.950 . S
C1205 C1200 1.363 . S
C1205 C1204 1.415 . S
H1206 C1203 0.999 . S
H1207 C1188 0.913 . S
H1208 C1226 0.951 . S
H1209 C1228 0.951 . S
H1210 C1230 0.950 . S
H1211 C1231 0.950 . S
H1212 C1233 0.950 . S
H1213 C1236 0.950 . S
H1214 C1237 0.950 . S
H1215 C1239 0.950 . S
H1216 C1240 0.950 . S
H1217 C1241 0.951 . S
H1218 C1243 0.951 . S
H1219 C1245 0.950 . S
H1220 C1246 0.950 . S
H1221 C1248 0.950 . S
H1222 C1251 0.950 . S
H1223 C1252 0.950 . S
H1224 C1254 0.950 . S
H1225 C1255 0.950 . S
C1226 H1208 0.951 . S
C1226 C1227 1.366 . S
C1226 C1228 1.388 . S
C1227 C1226 1.366 . S
C1227 C1231 1.385 . S
C1228 H1209 0.951 . S
C1228 C1226 1.388 . S
C1228 C1229 1.366 . S
C1229 C1228 1.366 . S
C1229 C1230 1.414 . S
C1229 C1232 1.499 . S
C1230 H1210 0.950 . S
C1230 C1229 1.414 . S
C1230 C1231 1.374 . S
C1231 H1211 0.950 . S
C1231 C1227 1.385 . S
C1231 C1230 1.374 . S
C1232 C1229 1.499 . S
C1232 C1233 1.373 . S
C1232 C1234 1.389 . S
C1233 H1212 0.950 . S
C1233 C1232 1.373 . S
C1233 C1249 1.377 . S
C1234 C1232 1.389 . S
C1234 C1235 1.524 . S
C1234 C1248 1.377 . S
C1235 C1234 1.524 . S
C1235 C1236 1.397 . S
C1235 C1240 1.363 . S
C1236 H1213 0.950 . S
C1236 C1235 1.397 . S
C1236 C1237 1.334 . S
C1237 H1214 0.950 . S
C1237 C1236 1.334 . S
C1237 C1238 1.287 . S
C1238 C1237 1.287 . S
C1238 C1239 1.524 . S
C1238 H1257 0.913 . S
C1239 H1215 0.950 . S
C1239 C1238 1.524 . S
C1239 C1240 1.415 . S
C1240 H1216 0.950 . S
C1240 C1235 1.363 . S
C1240 C1239 1.415 . S
C1241 H1217 0.951 . S
C1241 C1242 1.366 . S
C1241 C1243 1.388 . S
C1242 C1241 1.366 . S
C1242 C1246 1.385 . S
C1243 H1218 0.951 . S
C1243 C1241 1.388 . S
C1243 C1244 1.366 . S
C1244 C1243 1.366 . S
C1244 C1245 1.414 . S
C1244 C1247 1.499 . S
C1245 H1219 0.950 . S
C1245 C1244 1.414 . S
C1245 C1246 1.374 . S
C1246 H1220 0.950 . S
C1246 C1242 1.385 . S
C1246 C1245 1.374 . S
C1247 C1244 1.499 . S
C1247 C1248 1.373 1_655 S
C1247 C1249 1.389 1_655 S
C1248 H1221 0.950 . S
C1248 C1234 1.377 . S
C1248 C1247 1.373 1_455 S
C1249 C1233 1.377 . S
C1249 C1247 1.389 1_455 S
C1249 C1250 1.524 1_455 S
C1250 C1249 1.524 1_655 S
C1250 C1251 1.397 . S
C1250 C1255 1.363 . S
C1251 H1222 0.950 . S
C1251 C1250 1.397 . S
C1251 C1252 1.334 . S
C1252 H1223 0.950 . S
C1252 C1251 1.334 . S
C1252 C1253 1.287 . S
C1253 C1252 1.287 . S
C1253 C1254 1.524 . S
C1253 H1256 0.999 . S
C1254 H1224 0.950 . S
C1254 C1253 1.524 . S
C1254 C1255 1.415 . S
C1255 H1225 0.950 . S
C1255 C1250 1.363 . S
C1255 C1254 1.415 . S
H1256 C1253 0.999 . S
H1257 C1238 0.913 . S
H1258 C1276 0.951 . S
H1259 C1278 0.951 . S
H1260 C1280 0.950 . S
H1261 C1281 0.950 . S
H1262 C1283 0.950 . S
H1263 C1286 0.950 . S
H1264 C1287 0.950 . S
H1265 C1289 0.950 . S
H1266 C1290 0.950 . S
H1267 C1291 0.951 . S
H1268 C1293 0.951 . S
H1269 C1295 0.950 . S
H1270 C1296 0.950 . S
H1271 C1298 0.950 . S
H1272 C1301 0.950 . S
H1273 C1302 0.950 . S
H1274 C1304 0.950 . S
H1275 C1305 0.950 . S
C1276 H1258 0.951 . S
C1276 C1277 1.366 . S
C1276 C1278 1.388 . S
C1277 C1276 1.366 . S
C1277 C1281 1.385 . S
C1278 H1259 0.951 . S
C1278 C1276 1.388 . S
C1278 C1279 1.366 . S
C1279 C1278 1.366 . S
C1279 C1280 1.414 . S
C1279 C1282 1.499 . S
C1280 H1260 0.950 . S
C1280 C1279 1.414 . S
C1280 C1281 1.374 . S
C1281 H1261 0.950 . S
C1281 C1277 1.385 . S
C1281 C1280 1.374 . S
C1282 C1279 1.499 . S
C1282 C1283 1.373 . S
C1282 C1284 1.389 . S
C1283 H1262 0.950 . S
C1283 C1282 1.373 . S
C1283 C1299 1.377 . S
C1284 C1282 1.389 . S
C1284 C1285 1.524 . S
C1284 C1298 1.377 . S
C1285 C1284 1.524 . S
C1285 C1286 1.397 . S
C1285 C1290 1.363 . S
C1286 H1263 0.950 . S
C1286 C1285 1.397 . S
C1286 C1287 1.334 . S
C1287 H1264 0.950 . S
C1287 C1286 1.334 . S
C1287 C1288 1.287 . S
C1288 C1287 1.287 . S
C1288 C1289 1.524 . S
C1288 H1307 0.913 . S
C1289 H1265 0.950 . S
C1289 C1288 1.524 . S
C1289 C1290 1.415 . S
C1290 H1266 0.950 . S
C1290 C1285 1.363 . S
C1290 C1289 1.415 . S
C1291 H1267 0.951 . S
C1291 C1292 1.366 . S
C1291 C1293 1.388 . S
C1292 C1291 1.366 . S
C1292 C1296 1.385 . S
C1293 H1268 0.951 . S
C1293 C1291 1.388 . S
C1293 C1294 1.366 . S
C1294 C1293 1.366 . S
C1294 C1295 1.414 . S
C1294 C1297 1.499 . S
C1295 H1269 0.950 . S
C1295 C1294 1.414 . S
C1295 C1296 1.374 . S
C1296 H1270 0.950 . S
C1296 C1292 1.385 . S
C1296 C1295 1.374 . S
C1297 C1294 1.499 . S
C1297 C1298 1.373 1_545 S
C1297 C1299 1.389 1_545 S
C1298 H1271 0.950 . S
C1298 C1284 1.377 . S
C1298 C1297 1.373 1_565 S
C1299 C1283 1.377 . S
C1299 C1297 1.389 1_565 S
C1299 C1300 1.524 1_565 S
C1300 C1299 1.524 1_545 S
C1300 C1301 1.397 . S
C1300 C1305 1.363 . S
C1301 H1272 0.950 . S
C1301 C1300 1.397 . S
C1301 C1302 1.334 . S
C1302 H1273 0.950 . S
C1302 C1301 1.334 . S
C1302 C1303 1.287 . S
C1303 C1302 1.287 . S
C1303 C1304 1.524 . S
C1303 H1306 0.999 . S
C1304 H1274 0.950 . S
C1304 C1303 1.524 . S
C1304 C1305 1.415 . S
C1305 H1275 0.950 . S
C1305 C1300 1.363 . S
C1305 C1304 1.415 . S
H1306 C1303 0.999 . S
H1307 C1288 0.913 . S
H1308 C1326 0.951 . S
H1309 C1328 0.951 . S
H1310 C1330 0.950 . S
H1311 C1331 0.950 . S
H1312 C1333 0.950 . S
H1313 C1336 0.950 . S
H1314 C1337 0.950 . S
H1315 C1339 0.950 . S
H1316 C1340 0.950 . S
H1317 C1341 0.951 . S
H1318 C1343 0.951 . S
H1319 C1345 0.950 . S
H1320 C1346 0.950 . S
H1321 C1348 0.950 . S
H1322 C1351 0.950 . S
H1323 C1352 0.950 . S
H1324 C1354 0.950 . S
H1325 C1355 0.950 . S
C1326 H1308 0.951 . S
C1326 C1327 1.366 . S
C1326 C1328 1.388 . S
C1327 C1326 1.366 . S
C1327 C1331 1.385 . S
C1328 H1309 0.951 . S
C1328 C1326 1.388 . S
C1328 C1329 1.366 . S
C1329 C1328 1.366 . S
C1329 C1330 1.414 . S
C1329 C1332 1.499 . S
C1330 H1310 0.950 . S
C1330 C1329 1.414 . S
C1330 C1331 1.374 . S
C1331 H1311 0.950 . S
C1331 C1327 1.385 . S
C1331 C1330 1.374 . S
C1332 C1329 1.499 . S
C1332 C1333 1.373 . S
C1332 C1334 1.389 . S
C1333 H1312 0.950 . S
C1333 C1332 1.373 . S
C1333 C1349 1.377 . S
C1334 C1332 1.389 . S
C1334 C1335 1.524 . S
C1334 C1348 1.377 . S
C1335 C1334 1.524 . S
C1335 C1336 1.397 . S
C1335 C1340 1.363 . S
C1336 H1313 0.950 . S
C1336 C1335 1.397 . S
C1336 C1337 1.334 . S
C1337 H1314 0.950 . S
C1337 C1336 1.334 . S
C1337 C1338 1.287 . S
C1338 C1337 1.287 . S
C1338 C1339 1.524 . S
C1338 H1357 0.913 . S
C1339 H1315 0.950 . S
C1339 C1338 1.524 . S
C1339 C1340 1.415 . S
C1340 H1316 0.950 . S
C1340 C1335 1.363 . S
C1340 C1339 1.415 . S
C1341 H1317 0.951 . S
C1341 C1342 1.366 . S
C1341 C1343 1.388 . S
C1342 C1341 1.366 . S
C1342 C1346 1.385 . S
C1343 H1318 0.951 . S
C1343 C1341 1.388 . S
C1343 C1344 1.366 . S
C1344 C1343 1.366 . S
C1344 C1345 1.414 . S
C1344 C1347 1.499 . S
C1345 H1319 0.950 . S
C1345 C1344 1.414 . S
C1345 C1346 1.374 . S
C1346 H1320 0.950 . S
C1346 C1342 1.385 . S
C1346 C1345 1.374 . S
C1347 C1344 1.499 . S
C1347 C1348 1.373 . S
C1347 C1349 1.389 . S
C1348 H1321 0.950 . S
C1348 C1334 1.377 . S
C1348 C1347 1.373 . S
C1349 C1333 1.377 . S
C1349 C1347 1.389 . S
C1349 C1350 1.524 . S
C1350 C1349 1.524 . S
C1350 C1351 1.397 . S
C1350 C1355 1.363 . S
C1351 H1322 0.950 . S
C1351 C1350 1.397 . S
C1351 C1352 1.334 . S
C1352 H1323 0.950 . S
C1352 C1351 1.334 . S
C1352 C1353 1.287 . S
C1353 C1352 1.287 . S
C1353 C1354 1.524 . S
C1353 H1356 0.999 . S
C1354 H1324 0.950 . S
C1354 C1353 1.524 . S
C1354 C1355 1.415 . S
C1355 H1325 0.950 . S
C1355 C1350 1.363 . S
C1355 C1354 1.415 . S
H1356 C1353 0.999 . S
H1357 C1338 0.913 . S
H1358 C1376 0.951 . S
H1359 C1378 0.951 . S
H1360 C1380 0.950 . S
H1361 C1381 0.950 . S
H1362 C1383 0.950 1_455 S
H1363 C1386 0.950 . S
H1364 C1387 0.950 1_455 S
H1365 C1389 0.950 . S
H1366 C1390 0.950 . S
H1367 C1391 0.951 . S
H1368 C1393 0.951 . S
H1369 C1395 0.950 . S
H1370 C1396 0.950 . S
H1371 C1398 0.950 . S
H1372 C1401 0.950 . S
H1373 C1402 0.950 . S
H1374 C1404 0.950 . S
H1375 C1405 0.950 . S
C1376 H1358 0.951 . S
C1376 C1377 1.366 . S
C1376 C1378 1.388 . S
C1377 C1376 1.366 . S
C1377 C1381 1.385 . S
C1378 H1359 0.951 . S
C1378 C1376 1.388 . S
C1378 C1379 1.366 . S
C1379 C1378 1.366 . S
C1379 C1380 1.414 . S
C1379 C1382 1.499 . S
C1380 H1360 0.950 . S
C1380 C1379 1.414 . S
C1380 C1381 1.374 . S
C1381 H1361 0.950 . S
C1381 C1377 1.385 . S
C1381 C1380 1.374 . S
C1382 C1379 1.499 . S
C1382 C1383 1.373 1_455 S
C1382 C1384 1.389 1_455 S
C1383 H1362 0.950 1_655 S
C1383 C1382 1.373 1_655 S
C1383 C1399 1.377 . S
C1384 C1382 1.389 1_655 S
C1384 C1385 1.524 . S
C1384 C1398 1.377 . S
C1385 C1384 1.524 . S
C1385 C1386 1.397 . S
C1385 C1390 1.363 . S
C1386 H1363 0.950 . S
C1386 C1385 1.397 . S
C1386 C1387 1.334 . S
C1387 H1364 0.950 1_655 S
C1387 C1386 1.334 . S
C1387 C1388 1.287 . S
C1388 C1387 1.287 . S
C1388 C1389 1.524 . S
C1388 H1407 0.913 . S
C1389 H1365 0.950 . S
C1389 C1388 1.524 . S
C1389 C1390 1.415 . S
C1390 H1366 0.950 . S
C1390 C1385 1.363 . S
C1390 C1389 1.415 . S
C1391 H1367 0.951 . S
C1391 C1392 1.366 . S
C1391 C1393 1.388 . S
C1392 C1391 1.366 . S
C1392 C1396 1.385 . S
C1393 H1368 0.951 . S
C1393 C1391 1.388 . S
C1393 C1394 1.366 . S
C1394 C1393 1.366 . S
C1394 C1395 1.414 . S
C1394 C1397 1.499 . S
C1395 H1369 0.950 . S
C1395 C1394 1.414 . S
C1395 C1396 1.374 . S
C1396 H1370 0.950 . S
C1396 C1392 1.385 . S
C1396 C1395 1.374 . S
C1397 C1394 1.499 . S
C1397 C1398 1.373 . S
C1397 C1399 1.389 . S
C1398 H1371 0.950 . S
C1398 C1384 1.377 . S
C1398 C1397 1.373 . S
C1399 C1383 1.377 . S
C1399 C1397 1.389 . S
C1399 C1400 1.524 . S
C1400 C1399 1.524 . S
C1400 C1401 1.397 . S
C1400 C1405 1.363 . S
C1401 H1372 0.950 . S
C1401 C1400 1.397 . S
C1401 C1402 1.334 . S
C1402 H1373 0.950 . S
C1402 C1401 1.334 . S
C1402 C1403 1.287 . S
C1403 C1402 1.287 . S
C1403 C1404 1.524 . S
C1403 H1406 0.999 . S
C1404 H1374 0.950 . S
C1404 C1403 1.524 . S
C1404 C1405 1.415 . S
C1405 H1375 0.950 . S
C1405 C1400 1.363 . S
C1405 C1404 1.415 . S
H1406 C1403 0.999 . S
H1407 C1388 0.913 . S
H1408 C1426 0.951 . S
H1409 C1428 0.951 . S
H1410 C1430 0.950 . S
H1411 C1431 0.950 . S
H1412 C1433 0.950 . S
H1413 C1436 0.950 . S
H1414 C1437 0.950 . S
H1415 C1439 0.950 . S
H1416 C1440 0.950 . S
H1417 C1441 0.951 . S
H1418 C1443 0.951 . S
H1419 C1445 0.950 . S
H1420 C1446 0.950 . S
H1421 C1448 0.950 . S
H1422 C1451 0.950 . S
H1423 C1452 0.950 . S
H1424 C1454 0.950 . S
H1425 C1455 0.950 . S
C1426 H1408 0.951 . S
C1426 C1427 1.366 . S
C1426 C1428 1.388 . S
C1427 C1426 1.366 . S
C1427 C1431 1.385 . S
C1428 H1409 0.951 . S
C1428 C1426 1.388 . S
C1428 C1429 1.366 . S
C1429 C1428 1.366 . S
C1429 C1430 1.414 . S
C1429 C1432 1.499 . S
C1430 H1410 0.950 . S
C1430 C1429 1.414 . S
C1430 C1431 1.374 . S
C1431 H1411 0.950 . S
C1431 C1427 1.385 . S
C1431 C1430 1.374 . S
C1432 C1429 1.499 . S
C1432 C1433 1.373 1_565 S
C1432 C1434 1.389 1_565 S
C1433 H1412 0.950 . S
C1433 C1432 1.373 1_545 S
C1433 C1449 1.377 . S
C1434 C1432 1.389 1_545 S
C1434 C1435 1.524 1_545 S
C1434 C1448 1.377 . S
C1435 C1434 1.524 1_565 S
C1435 C1436 1.397 . S
C1435 C1440 1.363 1_565 S
C1436 H1413 0.950 . S
C1436 C1435 1.397 . S
C1436 C1437 1.334 . S
C1437 H1414 0.950 . S
C1437 C1436 1.334 . S
C1437 C1438 1.287 . S
C1438 C1437 1.287 . S
C1438 C1439 1.524 . S
C1438 H1457 0.913 . S
C1439 H1415 0.950 . S
C1439 C1438 1.524 . S
C1439 C1440 1.415 1_565 S
C1440 H1416 0.950 . S
C1440 C1435 1.363 1_545 S
C1440 C1439 1.415 1_545 S
C1441 H1417 0.951 . S
C1441 C1442 1.366 . S
C1441 C1443 1.388 . S
C1442 C1441 1.366 . S
C1442 C1446 1.385 . S
C1443 H1418 0.951 . S
C1443 C1441 1.388 . S
C1443 C1444 1.366 . S
C1444 C1443 1.366 . S
C1444 C1445 1.414 . S
C1444 C1447 1.499 . S
C1445 H1419 0.950 . S
C1445 C1444 1.414 . S
C1445 C1446 1.374 . S
C1446 H1420 0.950 . S
C1446 C1442 1.385 . S
C1446 C1445 1.374 . S
C1447 C1444 1.499 . S
C1447 C1448 1.373 . S
C1447 C1449 1.389 . S
C1448 H1421 0.950 . S
C1448 C1434 1.377 . S
C1448 C1447 1.373 . S
C1449 C1433 1.377 . S
C1449 C1447 1.389 . S
C1449 C1450 1.524 . S
C1450 C1449 1.524 . S
C1450 C1451 1.397 . S
C1450 C1455 1.363 . S
C1451 H1422 0.950 . S
C1451 C1450 1.397 . S
C1451 C1452 1.334 . S
C1452 H1423 0.950 . S
C1452 C1451 1.334 . S
C1452 C1453 1.287 . S
C1453 C1452 1.287 . S
C1453 C1454 1.524 . S
C1453 H1456 0.999 . S
C1454 H1424 0.950 . S
C1454 C1453 1.524 . S
C1454 C1455 1.415 . S
C1455 H1425 0.950 . S
C1455 C1450 1.363 . S
C1455 C1454 1.415 . S
H1456 C1453 0.999 . S
H1457 C1438 0.913 . S
H1458 C1476 0.951 . S
H1459 C1478 0.951 . S
H1460 C1480 0.950 . S
H1461 C1481 0.950 . S
H1462 C1483 0.950 . S
H1463 C1486 0.950 . S
H1464 C1487 0.950 . S
H1465 C1489 0.950 . S
H1466 C1490 0.950 . S
H1467 C1491 0.951 . S
H1468 C1493 0.951 . S
H1469 C1495 0.950 . S
H1470 C1496 0.950 . S
H1471 C1498 0.950 . S
H1472 C1501 0.950 . S
H1473 C1502 0.950 . S
H1474 C1504 0.950 . S
H1475 C1505 0.950 . S
C1476 H1458 0.951 . S
C1476 C1477 1.366 . S
C1476 C1478 1.388 . S
C1477 C1476 1.366 . S
C1477 C1481 1.385 . S
C1478 H1459 0.951 . S
C1478 C1476 1.388 . S
C1478 C1479 1.366 . S
C1479 C1478 1.366 . S
C1479 C1480 1.414 . S
C1479 C1482 1.499 . S
C1480 H1460 0.950 . S
C1480 C1479 1.414 . S
C1480 C1481 1.374 . S
C1481 H1461 0.950 . S
C1481 C1477 1.385 . S
C1481 C1480 1.374 . S
C1482 C1479 1.499 . S
C1482 C1483 1.373 . S
C1482 C1484 1.389 . S
C1483 H1462 0.950 . S
C1483 C1482 1.373 . S
C1483 C1499 1.377 . S
C1484 C1482 1.389 . S
C1484 C1485 1.524 . S
C1484 C1498 1.377 . S
C1485 C1484 1.524 . S
C1485 C1486 1.397 . S
C1485 C1490 1.363 . S
C1486 H1463 0.950 . S
C1486 C1485 1.397 . S
C1486 C1487 1.334 . S
C1487 H1464 0.950 . S
C1487 C1486 1.334 . S
C1487 C1488 1.287 . S
C1488 C1487 1.287 . S
C1488 C1489 1.524 . S
C1488 H1507 0.913 . S
C1489 H1465 0.950 . S
C1489 C1488 1.524 . S
C1489 C1490 1.415 . S
C1490 H1466 0.950 . S
C1490 C1485 1.363 . S
C1490 C1489 1.415 . S
C1491 H1467 0.951 . S
C1491 C1492 1.366 . S
C1491 C1493 1.388 . S
C1492 C1491 1.366 . S
C1492 C1496 1.385 . S
C1493 H1468 0.951 . S
C1493 C1491 1.388 . S
C1493 C1494 1.366 . S
C1494 C1493 1.366 . S
C1494 C1495 1.414 . S
C1494 C1497 1.499 . S
C1495 H1469 0.950 . S
C1495 C1494 1.414 . S
C1495 C1496 1.374 . S
C1496 H1470 0.950 . S
C1496 C1492 1.385 . S
C1496 C1495 1.374 . S
C1497 C1494 1.499 . S
C1497 C1498 1.373 . S
C1497 C1499 1.389 . S
C1498 H1471 0.950 . S
C1498 C1484 1.377 . S
C1498 C1497 1.373 . S
C1499 C1483 1.377 . S
C1499 C1497 1.389 . S
C1499 C1500 1.524 . S
C1500 C1499 1.524 . S
C1500 C1501 1.397 . S
C1500 C1505 1.363 . S
C1501 H1472 0.950 . S
C1501 C1500 1.397 . S
C1501 C1502 1.334 . S
C1502 H1473 0.950 . S
C1502 C1501 1.334 . S
C1502 C1503 1.287 . S
C1503 C1502 1.287 . S
C1503 C1504 1.524 . S
C1503 H1506 0.999 . S
C1504 H1474 0.950 . S
C1504 C1503 1.524 . S
C1504 C1505 1.415 . S
C1505 H1475 0.950 . S
C1505 C1500 1.363 . S
C1505 C1504 1.415 . S
H1506 C1503 0.999 . S
H1507 C1488 0.913 . S
H1508 C1526 0.951 . S
H1509 C1528 0.951 . S
H1510 C1530 0.950 . S
H1511 C1531 0.950 . S
H1512 C1533 0.950 . S
H1513 C1536 0.950 . S
H1514 C1537 0.950 . S
H1515 C1539 0.950 . S
H1516 C1540 0.950 . S
H1517 C1541 0.951 . S
H1518 C1543 0.951 . S
H1519 C1545 0.950 . S
H1520 C1546 0.950 . S
H1521 C1548 0.950 . S
H1522 C1551 0.950 . S
H1523 C1552 0.950 . S
H1524 C1554 0.950 . S
H1525 C1555 0.950 . S
C1526 H1508 0.951 . S
C1526 C1527 1.366 . S
C1526 C1528 1.388 . S
C1527 C1526 1.366 . S
C1527 C1531 1.385 . S
C1528 H1509 0.951 . S
C1528 C1526 1.388 . S
C1528 C1529 1.366 . S
C1529 C1528 1.366 . S
C1529 C1530 1.414 . S
C1529 C1532 1.499 . S
C1530 H1510 0.950 . S
C1530 C1529 1.414 . S
C1530 C1531 1.374 . S
C1531 H1511 0.950 . S
C1531 C1527 1.385 . S
C1531 C1530 1.374 . S
C1532 C1529 1.499 . S
C1532 C1533 1.373 1_455 S
C1532 C1534 1.389 1_455 S
C1533 H1512 0.950 . S
C1533 C1532 1.373 1_655 S
C1533 C1549 1.377 . S
C1534 C1532 1.389 1_655 S
C1534 C1535 1.524 1_655 S
C1534 C1548 1.377 . S
C1535 C1534 1.524 1_455 S
C1535 C1536 1.397 . S
C1535 C1540 1.363 . S
C1536 H1513 0.950 . S
C1536 C1535 1.397 . S
C1536 C1537 1.334 . S
C1537 H1514 0.950 . S
C1537 C1536 1.334 . S
C1537 C1538 1.287 . S
C1538 C1537 1.287 . S
C1538 C1539 1.524 . S
C1538 H1557 0.913 . S
C1539 H1515 0.950 . S
C1539 C1538 1.524 . S
C1539 C1540 1.415 . S
C1540 H1516 0.950 . S
C1540 C1535 1.363 . S
C1540 C1539 1.415 . S
C1541 H1517 0.951 . S
C1541 C1542 1.366 . S
C1541 C1543 1.388 . S
C1542 C1541 1.366 . S
C1542 C1546 1.385 . S
C1543 H1518 0.951 . S
C1543 C1541 1.388 . S
C1543 C1544 1.366 . S
C1544 C1543 1.366 . S
C1544 C1545 1.414 . S
C1544 C1547 1.499 . S
C1545 H1519 0.950 . S
C1545 C1544 1.414 . S
C1545 C1546 1.374 . S
C1546 H1520 0.950 . S
C1546 C1542 1.385 . S
C1546 C1545 1.374 . S
C1547 C1544 1.499 . S
C1547 C1548 1.373 . S
C1547 C1549 1.389 . S
C1548 H1521 0.950 . S
C1548 C1534 1.377 . S
C1548 C1547 1.373 . S
C1549 C1533 1.377 . S
C1549 C1547 1.389 . S
C1549 C1550 1.524 . S
C1550 C1549 1.524 . S
C1550 C1551 1.397 . S
C1550 C1555 1.363 . S
C1551 H1522 0.950 . S
C1551 C1550 1.397 . S
C1551 C1552 1.334 . S
C1552 H1523 0.950 . S
C1552 C1551 1.334 . S
C1552 C1553 1.287 . S
C1553 C1552 1.287 . S
C1553 C1554 1.524 . S
C1553 H1556 0.999 . S
C1554 H1524 0.950 . S
C1554 C1553 1.524 . S
C1554 C1555 1.415 . S
C1555 H1525 0.950 . S
C1555 C1550 1.363 . S
C1555 C1554 1.415 . S
H1556 C1553 0.999 . S
H1557 C1538 0.913 . S
H1558 C1576 0.951 . S
H1559 C1578 0.951 . S
H1560 C1580 0.950 . S
H1561 C1581 0.950 . S
H1562 C1583 0.950 . S
H1563 C1586 0.950 . S
H1564 C1587 0.950 . S
H1565 C1589 0.950 . S
H1566 C1590 0.950 . S
H1567 C1591 0.951 . S
H1568 C1593 0.951 . S
H1569 C1595 0.950 . S
H1570 C1596 0.950 . S
H1571 C1598 0.950 1_565 S
H1572 C1601 0.950 . S
H1573 C1602 0.950 . S
H1574 C1604 0.950 . S
H1575 C1605 0.950 . S
C1576 H1558 0.951 . S
C1576 C1577 1.366 . S
C1576 C1578 1.388 . S
C1577 C1576 1.366 . S
C1577 C1581 1.385 . S
C1578 H1559 0.951 . S
C1578 C1576 1.388 . S
C1578 C1579 1.366 . S
C1579 C1578 1.366 . S
C1579 C1580 1.414 . S
C1579 C1582 1.499 . S
C1580 H1560 0.950 . S
C1580 C1579 1.414 . S
C1580 C1581 1.374 . S
C1581 H1561 0.950 . S
C1581 C1577 1.385 . S
C1581 C1580 1.374 . S
C1582 C1579 1.499 . S
C1582 C1583 1.373 . S
C1582 C1584 1.389 . S
C1583 H1562 0.950 . S
C1583 C1582 1.373 . S
C1583 C1599 1.377 . S
C1584 C1582 1.389 . S
C1584 C1585 1.524 . S
C1584 C1598 1.377 . S
C1585 C1584 1.524 . S
C1585 C1586 1.397 . S
C1585 C1590 1.363 . S
C1586 H1563 0.950 . S
C1586 C1585 1.397 . S
C1586 C1587 1.334 . S
C1587 H1564 0.950 . S
C1587 C1586 1.334 . S
C1587 C1588 1.287 . S
C1588 C1587 1.287 . S
C1588 C1589 1.524 . S
C1588 H1607 0.913 . S
C1589 H1565 0.950 . S
C1589 C1588 1.524 . S
C1589 C1590 1.415 . S
C1590 H1566 0.950 . S
C1590 C1585 1.363 . S
C1590 C1589 1.415 . S
C1591 H1567 0.951 . S
C1591 C1592 1.366 . S
C1591 C1593 1.388 . S
C1592 C1591 1.366 . S
C1592 C1596 1.385 . S
C1593 H1568 0.951 . S
C1593 C1591 1.388 . S
C1593 C1594 1.366 . S
C1594 C1593 1.366 . S
C1594 C1595 1.414 . S
C1594 C1597 1.499 . S
C1595 H1569 0.950 . S
C1595 C1594 1.414 . S
C1595 C1596 1.374 . S
C1596 H1570 0.950 . S
C1596 C1592 1.385 . S
C1596 C1595 1.374 . S
C1597 C1594 1.499 . S
C1597 C1598 1.373 1_565 S
C1597 C1599 1.389 1_565 S
C1598 H1571 0.950 1_545 S
C1598 C1584 1.377 . S
C1598 C1597 1.373 1_545 S
C1599 C1583 1.377 . S
C1599 C1597 1.389 1_545 S
C1599 C1600 1.524 . S
C1600 C1599 1.524 . S
C1600 C1601 1.397 1_545 S
C1600 C1605 1.363 . S
C1601 H1572 0.950 . S
C1601 C1600 1.397 1_565 S
C1601 C1602 1.334 . S
C1602 H1573 0.950 . S
C1602 C1601 1.334 . S
C1602 C1603 1.287 . S
C1603 C1602 1.287 . S
C1603 C1604 1.524 1_565 S
C1603 H1606 0.999 . S
C1604 H1574 0.950 . S
C1604 C1603 1.524 1_545 S
C1604 C1605 1.415 . S
C1605 H1575 0.950 . S
C1605 C1600 1.363 . S
C1605 C1604 1.415 . S
H1606 C1603 0.999 . S
H1607 C1588 0.913 . S
H1608 C1626 0.951 . S
H1609 C1628 0.951 . S
H1610 C1630 0.950 . S
H1611 C1631 0.950 . S
H1612 C1633 0.950 . S
H1613 C1636 0.950 . S
H1614 C1637 0.950 . S
H1615 C1639 0.950 . S
H1616 C1640 0.950 . S
H1617 C1641 0.951 . S
H1618 C1643 0.951 . S
H1619 C1645 0.950 . S
H1620 C1646 0.950 . S
H1621 C1648 0.950 . S
H1622 C1651 0.950 . S
H1623 C1652 0.950 . S
H1624 C1654 0.950 . S
H1625 C1655 0.950 . S
C1626 H1608 0.951 . S
C1626 C1627 1.366 . S
C1626 C1628 1.388 . S
C1627 C1626 1.366 . S
C1627 C1631 1.385 . S
C1628 H1609 0.951 . S
C1628 C1626 1.388 . S
C1628 C1629 1.366 . S
C1629 C1628 1.366 . S
C1629 C1630 1.414 . S
C1629 C1632 1.499 . S
C1630 H1610 0.950 . S
C1630 C1629 1.414 . S
C1630 C1631 1.374 . S
C1631 H1611 0.950 . S
C1631 C1627 1.385 . S
C1631 C1630 1.374 . S
C1632 C1629 1.499 . S
C1632 C1633 1.373 . S
C1632 C1634 1.389 . S
C1633 H1612 0.950 . S
C1633 C1632 1.373 . S
C1633 C1649 1.377 . S
C1634 C1632 1.389 . S
C1634 C1635 1.524 . S
C1634 C1648 1.377 . S
C1635 C1634 1.524 . S
C1635 C1636 1.397 . S
C1635 C1640 1.363 . S
C1636 H1613 0.950 . S
C1636 C1635 1.397 . S
C1636 C1637 1.334 . S
C1637 H1614 0.950 . S
C1637 C1636 1.334 . S
C1637 C1638 1.287 . S
C1638 C1637 1.287 . S
C1638 C1639 1.524 . S
C1638 H1657 0.913 . S
C1639 H1615 0.950 . S
C1639 C1638 1.524 . S
C1639 C1640 1.415 . S
C1640 H1616 0.950 . S
C1640 C1635 1.363 . S
C1640 C1639 1.415 . S
C1641 H1617 0.951 . S
C1641 C1642 1.366 . S
C1641 C1643 1.388 . S
C1642 C1641 1.366 . S
C1642 C1646 1.385 . S
C1643 H1618 0.951 . S
C1643 C1641 1.388 . S
C1643 C1644 1.366 . S
C1644 C1643 1.366 . S
C1644 C1645 1.414 . S
C1644 C1647 1.499 . S
C1645 H1619 0.950 . S
C1645 C1644 1.414 . S
C1645 C1646 1.374 . S
C1646 H1620 0.950 . S
C1646 C1642 1.385 . S
C1646 C1645 1.374 . S
C1647 C1644 1.499 . S
C1647 C1648 1.373 . S
C1647 C1649 1.389 . S
C1648 H1621 0.950 . S
C1648 C1634 1.377 . S
C1648 C1647 1.373 . S
C1649 C1633 1.377 . S
C1649 C1647 1.389 . S
C1649 C1650 1.524 . S
C1650 C1649 1.524 . S
C1650 C1651 1.397 . S
C1650 C1655 1.363 . S
C1651 H1622 0.950 . S
C1651 C1650 1.397 . S
C1651 C1652 1.334 . S
C1652 H1623 0.950 . S
C1652 C1651 1.334 . S
C1652 C1653 1.287 . S
C1653 C1652 1.287 . S
C1653 C1654 1.524 . S
C1653 H1656 0.999 . S
C1654 H1624 0.950 . S
C1654 C1653 1.524 . S
C1654 C1655 1.415 . S
C1655 H1625 0.950 . S
C1655 C1650 1.363 . S
C1655 C1654 1.415 . S
H1656 C1653 0.999 . S
H1657 C1638 0.913 . S
H1658 C1676 0.951 . S
H1659 C1678 0.951 . S
H1660 C1680 0.950 . S
H1661 C1681 0.950 . S
H1662 C1683 0.950 . S
H1663 C1686 0.950 . S
H1664 C1687 0.950 . S
H1665 C1689 0.950 . S
H1666 C1690 0.950 . S
H1667 C1691 0.951 . S
H1668 C1693 0.951 . S
H1669 C1695 0.950 . S
H1670 C1696 0.950 . S
H1671 C1698 0.950 . S
H1672 C1701 0.950 . S
H1673 C1702 0.950 . S
H1674 C1704 0.950 . S
H1675 C1705 0.950 . S
C1676 H1658 0.951 . S
C1676 C1677 1.366 . S
C1676 C1678 1.388 . S
C1677 C1676 1.366 . S
C1677 C1681 1.385 . S
C1678 H1659 0.951 . S
C1678 C1676 1.388 . S
C1678 C1679 1.366 . S
C1679 C1678 1.366 . S
C1679 C1680 1.414 . S
C1679 C1682 1.499 . S
C1680 H1660 0.950 . S
C1680 C1679 1.414 . S
C1680 C1681 1.374 . S
C1681 H1661 0.950 . S
C1681 C1677 1.385 . S
C1681 C1680 1.374 . S
C1682 C1679 1.499 . S
C1682 C1683 1.373 . S
C1682 C1684 1.389 . S
C1683 H1662 0.950 . S
C1683 C1682 1.373 . S
C1683 C1699 1.377 . S
C1684 C1682 1.389 . S
C1684 C1685 1.524 . S
C1684 C1698 1.377 . S
C1685 C1684 1.524 . S
C1685 C1686 1.397 . S
C1685 C1690 1.363 . S
C1686 H1663 0.950 . S
C1686 C1685 1.397 . S
C1686 C1687 1.334 . S
C1687 H1664 0.950 . S
C1687 C1686 1.334 . S
C1687 C1688 1.287 . S
C1688 C1687 1.287 . S
C1688 C1689 1.524 . S
C1688 H1707 0.913 . S
C1689 H1665 0.950 . S
C1689 C1688 1.524 . S
C1689 C1690 1.415 . S
C1690 H1666 0.950 . S
C1690 C1685 1.363 . S
C1690 C1689 1.415 . S
C1691 H1667 0.951 . S
C1691 C1692 1.366 . S
C1691 C1693 1.388 . S
C1692 C1691 1.366 . S
C1692 C1696 1.385 . S
C1693 H1668 0.951 . S
C1693 C1691 1.388 . S
C1693 C1694 1.366 . S
C1694 C1693 1.366 . S
C1694 C1695 1.414 . S
C1694 C1697 1.499 . S
C1695 H1669 0.950 . S
C1695 C1694 1.414 . S
C1695 C1696 1.374 . S
C1696 H1670 0.950 . S
C1696 C1692 1.385 . S
C1696 C1695 1.374 . S
C1697 C1694 1.499 . S
C1697 C1698 1.373 . S
C1697 C1699 1.389 . S
C1698 H1671 0.950 . S
C1698 C1684 1.377 . S
C1698 C1697 1.373 . S
C1699 C1683 1.377 . S
C1699 C1697 1.389 . S
C1699 C1700 1.524 . S
C1700 C1699 1.524 . S
C1700 C1701 1.397 . S
C1700 C1705 1.363 . S
C1701 H1672 0.950 . S
C1701 C1700 1.397 . S
C1701 C1702 1.334 . S
C1702 H1673 0.950 . S
C1702 C1701 1.334 . S
C1702 C1703 1.287 . S
C1703 C1702 1.287 . S
C1703 C1704 1.524 . S
C1703 H1706 0.999 . S
C1704 H1674 0.950 . S
C1704 C1703 1.524 . S
C1704 C1705 1.415 . S
C1705 H1675 0.950 . S
C1705 C1700 1.363 . S
C1705 C1704 1.415 . S
H1706 C1703 0.999 . S
H1707 C1688 0.913 . S
H1708 C1726 0.951 . S
H1709 C1728 0.951 . S
H1710 C1730 0.950 . S
H1711 C1731 0.950 . S
H1712 C1733 0.950 . S
H1713 C1736 0.950 . S
H1714 C1737 0.950 . S
H1715 C1739 0.950 . S
H1716 C1740 0.950 . S
H1717 C1741 0.951 . S
H1718 C1743 0.951 . S
H1719 C1745 0.950 . S
H1720 C1746 0.950 . S
H1721 C1748 0.950 . S
H1722 C1751 0.950 . S
H1723 C1752 0.950 . S
H1724 C1754 0.950 . S
H1725 C1755 0.950 . S
C1726 H1708 0.951 . S
C1726 C1727 1.366 . S
C1726 C1728 1.388 . S
C1727 C1726 1.366 . S
C1727 C1731 1.385 . S
C1728 H1709 0.951 . S
C1728 C1726 1.388 . S
C1728 C1729 1.366 . S
C1729 C1728 1.366 . S
C1729 C1730 1.414 . S
C1729 C1732 1.499 . S
C1730 H1710 0.950 . S
C1730 C1729 1.414 . S
C1730 C1731 1.374 . S
C1731 H1711 0.950 . S
C1731 C1727 1.385 . S
C1731 C1730 1.374 . S
C1732 C1729 1.499 . S
C1732 C1733 1.373 . S
C1732 C1734 1.389 . S
C1733 H1712 0.950 . S
C1733 C1732 1.373 . S
C1733 C1749 1.377 . S
C1734 C1732 1.389 . S
C1734 C1735 1.524 . S
C1734 C1748 1.377 . S
C1735 C1734 1.524 . S
C1735 C1736 1.397 . S
C1735 C1740 1.363 . S
C1736 H1713 0.950 . S
C1736 C1735 1.397 . S
C1736 C1737 1.334 . S
C1737 H1714 0.950 . S
C1737 C1736 1.334 . S
C1737 C1738 1.287 . S
C1738 C1737 1.287 . S
C1738 C1739 1.524 . S
C1738 H1757 0.913 . S
C1739 H1715 0.950 . S
C1739 C1738 1.524 . S
C1739 C1740 1.415 . S
C1740 H1716 0.950 . S
C1740 C1735 1.363 . S
C1740 C1739 1.415 . S
C1741 H1717 0.951 . S
C1741 C1742 1.366 . S
C1741 C1743 1.388 . S
C1742 C1741 1.366 . S
C1742 C1746 1.385 . S
C1743 H1718 0.951 . S
C1743 C1741 1.388 . S
C1743 C1744 1.366 . S
C1744 C1743 1.366 . S
C1744 C1745 1.414 . S
C1744 C1747 1.499 . S
C1745 H1719 0.950 . S
C1745 C1744 1.414 . S
C1745 C1746 1.374 . S
C1746 H1720 0.950 . S
C1746 C1742 1.385 . S
C1746 C1745 1.374 . S
C1747 C1744 1.499 . S
C1747 C1748 1.373 . S
C1747 C1749 1.389 . S
C1748 H1721 0.950 . S
C1748 C1734 1.377 . S
C1748 C1747 1.373 . S
C1749 C1733 1.377 . S
C1749 C1747 1.389 . S
C1749 C1750 1.524 . S
C1750 C1749 1.524 . S
C1750 C1751 1.397 . S
C1750 C1755 1.363 . S
C1751 H1722 0.950 . S
C1751 C1750 1.397 . S
C1751 C1752 1.334 . S
C1752 H1723 0.950 . S
C1752 C1751 1.334 . S
C1752 C1753 1.287 . S
C1753 C1752 1.287 . S
C1753 C1754 1.524 . S
C1753 H1756 0.999 . S
C1754 H1724 0.950 . S
C1754 C1753 1.524 . S
C1754 C1755 1.415 . S
C1755 H1725 0.950 . S
C1755 C1750 1.363 . S
C1755 C1754 1.415 . S
H1756 C1753 0.999 . S
H1757 C1738 0.913 . S
H1758 C1776 0.951 . S
H1759 C1778 0.951 . S
H1760 C1780 0.950 . S
H1761 C1781 0.950 . S
H1762 C1783 0.950 . S
H1763 C1786 0.950 . S
H1764 C1787 0.950 . S
H1765 C1789 0.950 . S
H1766 C1790 0.950 . S
H1767 C1791 0.951 . S
H1768 C1793 0.951 . S
H1769 C1795 0.950 . S
H1770 C1796 0.950 . S
H1771 C1798 0.950 . S
H1772 C1801 0.950 . S
H1773 C1802 0.950 . S
H1774 C1804 0.950 . S
H1775 C1805 0.950 . S
C1776 H1758 0.951 . S
C1776 C1777 1.366 . S
C1776 C1778 1.388 . S
C1777 C1776 1.366 . S
C1777 C1781 1.385 . S
C1778 H1759 0.951 . S
C1778 C1776 1.388 . S
C1778 C1779 1.366 . S
C1779 C1778 1.366 . S
C1779 C1780 1.414 . S
C1779 C1782 1.499 . S
C1780 H1760 0.950 . S
C1780 C1779 1.414 . S
C1780 C1781 1.374 . S
C1781 H1761 0.950 . S
C1781 C1777 1.385 . S
C1781 C1780 1.374 . S
C1782 C1779 1.499 . S
C1782 C1783 1.373 . S
C1782 C1784 1.389 . S
C1783 H1762 0.950 . S
C1783 C1782 1.373 . S
C1783 C1799 1.377 . S
C1784 C1782 1.389 . S
C1784 C1785 1.524 . S
C1784 C1798 1.377 . S
C1785 C1784 1.524 . S
C1785 C1786 1.397 . S
C1785 C1790 1.363 . S
C1786 H1763 0.950 . S
C1786 C1785 1.397 . S
C1786 C1787 1.334 . S
C1787 H1764 0.950 . S
C1787 C1786 1.334 . S
C1787 C1788 1.287 . S
C1788 C1787 1.287 . S
C1788 C1789 1.524 . S
C1788 H1807 0.913 . S
C1789 H1765 0.950 . S
C1789 C1788 1.524 . S
C1789 C1790 1.415 . S
C1790 H1766 0.950 . S
C1790 C1785 1.363 . S
C1790 C1789 1.415 . S
C1791 H1767 0.951 . S
C1791 C1792 1.366 . S
C1791 C1793 1.388 . S
C1792 C1791 1.366 . S
C1792 C1796 1.385 . S
C1793 H1768 0.951 . S
C1793 C1791 1.388 . S
C1793 C1794 1.366 . S
C1794 C1793 1.366 . S
C1794 C1795 1.414 . S
C1794 C1797 1.499 . S
C1795 H1769 0.950 . S
C1795 C1794 1.414 . S
C1795 C1796 1.374 . S
C1796 H1770 0.950 . S
C1796 C1792 1.385 . S
C1796 C1795 1.374 . S
C1797 C1794 1.499 . S
C1797 C1798 1.373 . S
C1797 C1799 1.389 . S
C1798 H1771 0.950 . S
C1798 C1784 1.377 . S
C1798 C1797 1.373 . S
C1799 C1783 1.377 . S
C1799 C1797 1.389 . S
C1799 C1800 1.524 . S
C1800 C1799 1.524 . S
C1800 C1801 1.397 . S
C1800 C1805 1.363 . S
C1801 H1772 0.950 . S
C1801 C1800 1.397 . S
C1801 C1802 1.334 . S
C1802 H1773 0.950 . S
C1802 C1801 1.334 . S
C1802 C1803 1.287 . S
C1803 C1802 1.287 . S
C1803 C1804 1.524 . S
C1803 H1806 0.999 . S
C1804 H1774 0.950 . S
C1804 C1803 1.524 . S
C1804 C1805 1.415 . S
C1805 H1775 0.950 . S
C1805 C1800 1.363 . S
C1805 C1804 1.415 . S
H1806 C1803 0.999 . S
H1807 C1788 0.913 . S
H1808 C1826 0.951 . S
H1809 C1828 0.951 . S
H1810 C1830 0.950 . S
H1811 C1831 0.950 . S
H1812 C1833 0.950 . S
H1813 C1836 0.950 . S
H1814 C1837 0.950 . S
H1815 C1839 0.950 . S
H1816 C1840 0.950 . S
H1817 C1841 0.951 . S
H1818 C1843 0.951 . S
H1819 C1845 0.950 . S
H1820 C1846 0.950 . S
H1821 C1848 0.950 . S
H1822 C1851 0.950 . S
H1823 C1852 0.950 . S
H1824 C1854 0.950 . S
H1825 C1855 0.950 . S
C1826 H1808 0.951 . S
C1826 C1827 1.366 . S
C1826 C1828 1.388 . S
C1827 C1826 1.366 . S
C1827 C1831 1.385 . S
C1828 H1809 0.951 . S
C1828 C1826 1.388 . S
C1828 C1829 1.366 . S
C1829 C1828 1.366 . S
C1829 C1830 1.414 . S
C1829 C1832 1.499 . S
C1830 H1810 0.950 . S
C1830 C1829 1.414 . S
C1830 C1831 1.374 . S
C1831 H1811 0.950 . S
C1831 C1827 1.385 . S
C1831 C1830 1.374 . S
C1832 C1829 1.499 . S
C1832 C1833 1.373 . S
C1832 C1834 1.389 . S
C1833 H1812 0.950 . S
C1833 C1832 1.373 . S
C1833 C1849 1.377 . S
C1834 C1832 1.389 . S
C1834 C1835 1.524 . S
C1834 C1848 1.377 . S
C1835 C1834 1.524 . S
C1835 C1836 1.397 . S
C1835 C1840 1.363 . S
C1836 H1813 0.950 . S
C1836 C1835 1.397 . S
C1836 C1837 1.334 . S
C1837 H1814 0.950 . S
C1837 C1836 1.334 . S
C1837 C1838 1.287 . S
C1838 C1837 1.287 . S
C1838 C1839 1.524 . S
C1838 H1857 0.913 . S
C1839 H1815 0.950 . S
C1839 C1838 1.524 . S
C1839 C1840 1.415 . S
C1840 H1816 0.950 . S
C1840 C1835 1.363 . S
C1840 C1839 1.415 . S
C1841 H1817 0.951 . S
C1841 C1842 1.366 . S
C1841 C1843 1.388 . S
C1842 C1841 1.366 . S
C1842 C1846 1.385 . S
C1843 H1818 0.951 . S
C1843 C1841 1.388 . S
C1843 C1844 1.366 . S
C1844 C1843 1.366 . S
C1844 C1845 1.414 . S
C1844 C1847 1.499 . S
C1845 H1819 0.950 . S
C1845 C1844 1.414 . S
C1845 C1846 1.374 . S
C1846 H1820 0.950 . S
C1846 C1842 1.385 . S
C1846 C1845 1.374 . S
C1847 C1844 1.499 . S
C1847 C1848 1.373 . S
C1847 C1849 1.389 . S
C1848 H1821 0.950 . S
C1848 C1834 1.377 . S
C1848 C1847 1.373 . S
C1849 C1833 1.377 . S
C1849 C1847 1.389 . S
C1849 C1850 1.524 . S
C1850 C1849 1.524 . S
C1850 C1851 1.397 . S
C1850 C1855 1.363 . S
C1851 H1822 0.950 . S
C1851 C1850 1.397 . S
C1851 C1852 1.334 . S
C1852 H1823 0.950 . S
C1852 C1851 1.334 . S
C1852 C1853 1.287 . S
C1853 C1852 1.287 . S
C1853 C1854 1.524 . S
C1853 H1856 0.999 . S
C1854 H1824 0.950 . S
C1854 C1853 1.524 . S
C1854 C1855 1.415 . S
C1855 H1825 0.950 . S
C1855 C1850 1.363 . S
C1855 C1854 1.415 . S
H1856 C1853 0.999 . S
H1857 C1838 0.913 . S
H1858 C1876 0.951 . S
H1859 C1878 0.951 . S
H1860 C1880 0.950 . S
H1861 C1881 0.950 . S
H1862 C1883 0.950 . S
H1863 C1886 0.950 . S
H1864 C1887 0.950 . S
H1865 C1889 0.950 . S
H1866 C1890 0.950 . S
H1867 C1891 0.951 . S
H1868 C1893 0.951 . S
H1869 C1895 0.950 . S
H1870 C1896 0.950 . S
H1871 C1898 0.950 . S
H1872 C1901 0.950 . S
H1873 C1902 0.950 . S
H1874 C1904 0.950 . S
H1875 C1905 0.950 . S
C1876 H1858 0.951 . S
C1876 C1877 1.366 . S
C1876 C1878 1.388 . S
C1877 C1876 1.366 . S
C1877 C1881 1.385 . S
C1878 H1859 0.951 . S
C1878 C1876 1.388 . S
C1878 C1879 1.366 . S
C1879 C1878 1.366 . S
C1879 C1880 1.414 . S
C1879 C1882 1.499 . S
C1880 H1860 0.950 . S
C1880 C1879 1.414 . S
C1880 C1881 1.374 . S
C1881 H1861 0.950 . S
C1881 C1877 1.385 . S
C1881 C1880 1.374 . S
C1882 C1879 1.499 . S
C1882 C1883 1.373 . S
C1882 C1884 1.389 . S
C1883 H1862 0.950 . S
C1883 C1882 1.373 . S
C1883 C1899 1.377 . S
C1884 C1882 1.389 . S
C1884 C1885 1.524 . S
C1884 C1898 1.377 . S
C1885 C1884 1.524 . S
C1885 C1886 1.397 . S
C1885 C1890 1.363 . S
C1886 H1863 0.950 . S
C1886 C1885 1.397 . S
C1886 C1887 1.334 . S
C1887 H1864 0.950 . S
C1887 C1886 1.334 . S
C1887 C1888 1.287 . S
C1888 C1887 1.287 . S
C1888 C1889 1.524 . S
C1888 H1907 0.913 . S
C1889 H1865 0.950 . S
C1889 C1888 1.524 . S
C1889 C1890 1.415 . S
C1890 H1866 0.950 . S
C1890 C1885 1.363 . S
C1890 C1889 1.415 . S
C1891 H1867 0.951 . S
C1891 C1892 1.366 . S
C1891 C1893 1.388 . S
C1892 C1891 1.366 . S
C1892 C1896 1.385 . S
C1893 H1868 0.951 . S
C1893 C1891 1.388 . S
C1893 C1894 1.366 . S
C1894 C1893 1.366 . S
C1894 C1895 1.414 . S
C1894 C1897 1.499 . S
C1895 H1869 0.950 . S
C1895 C1894 1.414 . S
C1895 C1896 1.374 . S
C1896 H1870 0.950 . S
C1896 C1892 1.385 . S
C1896 C1895 1.374 . S
C1897 C1894 1.499 . S
C1897 C1898 1.373 . S
C1897 C1899 1.389 . S
C1898 H1871 0.950 . S
C1898 C1884 1.377 . S
C1898 C1897 1.373 . S
C1899 C1883 1.377 . S
C1899 C1897 1.389 . S
C1899 C1900 1.524 . S
C1900 C1899 1.524 . S
C1900 C1901 1.397 . S
C1900 C1905 1.363 . S
C1901 H1872 0.950 . S
C1901 C1900 1.397 . S
C1901 C1902 1.334 . S
C1902 H1873 0.950 . S
C1902 C1901 1.334 . S
C1902 C1903 1.287 . S
C1903 C1902 1.287 . S
C1903 C1904 1.524 . S
C1903 H1906 0.999 . S
C1904 H1874 0.950 . S
C1904 C1903 1.524 . S
C1904 C1905 1.415 . S
C1905 H1875 0.950 . S
C1905 C1900 1.363 . S
C1905 C1904 1.415 . S
H1906 C1903 0.999 . S
H1907 C1888 0.913 . S
H1908 C1926 0.951 . S
H1909 C1928 0.951 . S
H1910 C1930 0.950 . S
H1911 C1931 0.950 . S
H1912 C1933 0.950 . S
H1913 C1936 0.957 1_545 S
H1914 C1937 0.950 . S
H1915 C1939 0.950 . S
H1916 C1940 0.939 1_554 S
H1917 C1941 0.951 . S
H1918 C1943 0.951 . S
H1919 C1945 0.950 . S
H1920 C1946 0.950 . S
H1921 C1948 0.950 . S
H1922 C1951 0.957 1_565 S
H1923 C1952 0.950 . S
H1924 C1954 0.950 . S
H1925 C1955 0.940 1_556 S
C1926 H1908 0.951 . S
C1926 C1927 1.366 . S
C1926 C1928 1.388 . S
C1927 C1926 1.366 . S
C1927 C1931 1.385 . S
C1928 H1909 0.951 . S
C1928 C1926 1.388 . S
C1928 C1929 1.366 . S
C1929 C1928 1.366 . S
C1929 C1930 1.414 . S
C1929 C1932 1.499 . S
C1930 H1910 0.950 . S
C1930 C1929 1.414 . S
C1930 C1931 1.374 . S
C1931 H1911 0.950 . S
C1931 C1927 1.385 . S
C1931 C1930 1.374 . S
C1932 C1929 1.499 . S
C1932 C1933 1.373 . S
C1932 C1934 1.389 . S
C1933 H1912 0.950 . S
C1933 C1932 1.373 . S
C1933 C1949 1.377 1_566 S
C1934 C1932 1.389 . S
C1934 C1935 1.524 . S
C1934 C1948 1.377 1_566 S
C1935 C1934 1.524 . S
C1935 C1936 1.397 . S
C1935 C1940 1.363 . S
C1936 H1913 0.957 1_565 S
C1936 C1935 1.397 . S
C1936 C1937 1.334 . S
C1937 H1914 0.950 . S
C1937 C1936 1.334 . S
C1937 C1938 1.287 . S
C1938 C1937 1.287 . S
C1938 C1939 1.524 . S
C1938 H1957 0.913 . S
C1939 H1915 0.950 . S
C1939 C1938 1.524 . S
C1939 C1940 1.415 . S
C1940 H1916 0.939 1_556 S
C1940 C1935 1.363 . S
C1940 C1939 1.415 . S
C1941 H1917 0.951 . S
C1941 C1942 1.366 . S
C1941 C1943 1.388 . S
C1942 C1941 1.366 . S
C1942 C1946 1.385 . S
C1943 H1918 0.951 . S
C1943 C1941 1.388 . S
C1943 C1944 1.366 . S
C1944 C1943 1.366 . S
C1944 C1945 1.414 . S
C1944 C1947 1.499 . S
C1945 H1919 0.950 . S
C1945 C1944 1.414 . S
C1945 C1946 1.374 . S
C1946 H1920 0.950 . S
C1946 C1942 1.385 . S
C1946 C1945 1.374 . S
C1947 C1944 1.499 . S
C1947 C1948 1.373 . S
C1947 C1949 1.389 . S
C1948 H1921 0.950 . S
C1948 C1934 1.377 1_544 S
C1948 C1947 1.373 . S
C1949 C1933 1.377 1_544 S
C1949 C1947 1.389 . S
C1949 C1950 1.524 . S
C1950 C1949 1.524 . S
C1950 C1951 1.397 . S
C1950 C1955 1.363 . S
C1951 H1922 0.957 1_545 S
C1951 C1950 1.397 . S
C1951 C1952 1.334 . S
C1952 H1923 0.950 . S
C1952 C1951 1.334 . S
C1952 C1953 1.287 . S
C1953 C1952 1.287 . S
C1953 C1954 1.524 . S
C1953 H1956 0.999 . S
C1954 H1924 0.950 . S
C1954 C1953 1.524 . S
C1954 C1955 1.415 . S
C1955 H1925 0.940 1_554 S
C1955 C1950 1.363 . S
C1955 C1954 1.415 . S
H1956 C1953 0.999 . S
H1957 C1938 0.913 . S
H1958 C1976 0.951 . S
H1959 C1978 0.951 . S
H1960 C1980 0.950 . S
H1961 C1981 0.950 . S
H1962 C1983 0.950 . S
H1963 C1986 0.950 . S
H1964 C1987 0.950 . S
H1965 C1989 0.950 . S
H1966 C1990 0.950 . S
H1967 C1991 0.951 . S
H1968 C1993 0.951 . S
H1969 C1995 0.950 . S
H1970 C1996 0.950 . S
H1971 C1998 0.950 . S
H1972 C2001 0.950 . S
H1973 C2002 0.950 . S
H1974 C2004 0.950 . S
H1975 C2005 0.950 . S
C1976 H1958 0.951 . S
C1976 C1977 1.366 . S
C1976 C1978 1.388 . S
C1977 C1976 1.366 . S
C1977 C1981 1.385 . S
C1978 H1959 0.951 . S
C1978 C1976 1.388 . S
C1978 C1979 1.366 . S
C1979 C1978 1.366 . S
C1979 C1980 1.414 . S
C1979 C1982 1.499 . S
C1980 H1960 0.950 . S
C1980 C1979 1.414 . S
C1980 C1981 1.374 . S
C1981 H1961 0.950 . S
C1981 C1977 1.385 . S
C1981 C1980 1.374 . S
C1982 C1979 1.499 . S
C1982 C1983 1.373 . S
C1982 C1984 1.389 . S
C1983 H1962 0.950 . S
C1983 C1982 1.373 . S
C1983 C1999 1.377 . S
C1984 C1982 1.389 . S
C1984 C1985 1.524 . S
C1984 C1998 1.377 . S
C1985 C1984 1.524 . S
C1985 C1986 1.397 . S
C1985 C1990 1.363 . S
C1986 H1963 0.950 . S
C1986 C1985 1.397 . S
C1986 C1987 1.334 . S
C1987 H1964 0.950 . S
C1987 C1986 1.334 . S
C1987 C1988 1.287 . S
C1988 C1987 1.287 . S
C1988 C1989 1.524 . S
C1988 H2007 0.913 . S
C1989 H1965 0.950 . S
C1989 C1988 1.524 . S
C1989 C1990 1.415 . S
C1990 H1966 0.950 . S
C1990 C1985 1.363 . S
C1990 C1989 1.415 . S
C1991 H1967 0.951 . S
C1991 C1992 1.366 . S
C1991 C1993 1.388 . S
C1992 C1991 1.366 . S
C1992 C1996 1.385 . S
C1993 H1968 0.951 . S
C1993 C1991 1.388 . S
C1993 C1994 1.366 . S
C1994 C1993 1.366 . S
C1994 C1995 1.414 . S
C1994 C1997 1.499 . S
C1995 H1969 0.950 . S
C1995 C1994 1.414 . S
C1995 C1996 1.374 . S
C1996 H1970 0.950 . S
C1996 C1992 1.385 . S
C1996 C1995 1.374 . S
C1997 C1994 1.499 . S
C1997 C1998 1.373 . S
C1997 C1999 1.389 . S
C1998 H1971 0.950 . S
C1998 C1984 1.377 . S
C1998 C1997 1.373 . S
C1999 C1983 1.377 . S
C1999 C1997 1.389 . S
C1999 C2000 1.524 . S
C2000 C1999 1.524 . S
C2000 C2001 1.397 . S
C2000 C2005 1.363 . S
C2001 H1972 0.950 . S
C2001 C2000 1.397 . S
C2001 C2002 1.334 . S
C2002 H1973 0.950 . S
C2002 C2001 1.334 . S
C2002 C2003 1.287 . S
C2003 C2002 1.287 . S
C2003 C2004 1.524 . S
C2003 H2006 0.999 . S
C2004 H1974 0.950 . S
C2004 C2003 1.524 . S
C2004 C2005 1.415 . S
C2005 H1975 0.950 . S
C2005 C2000 1.363 . S
C2005 C2004 1.415 . S
H2006 C2003 0.999 . S
H2007 C1988 0.913 . S
H2008 C2026 0.951 . S
H2009 C2028 0.951 . S
H2010 C2030 0.950 . S
H2011 C2031 0.950 . S
H2012 C2033 0.950 . S
H2013 C2036 0.950 . S
H2014 C2037 0.950 . S
H2015 C2039 0.950 . S
H2016 C2040 0.950 . S
H2017 C2041 0.951 . S
H2018 C2043 0.951 . S
H2019 C2045 0.950 . S
H2020 C2046 0.950 . S
H2021 C2048 0.950 . S
H2022 C2051 0.950 . S
H2023 C2052 0.950 . S
H2024 C2054 0.950 . S
H2025 C2055 0.950 . S
C2026 H2008 0.951 . S
C2026 C2027 1.366 . S
C2026 C2028 1.388 . S
C2027 C2026 1.366 . S
C2027 C2031 1.385 . S
C2028 H2009 0.951 . S
C2028 C2026 1.388 . S
C2028 C2029 1.366 . S
C2029 C2028 1.366 . S
C2029 C2030 1.414 . S
C2029 C2032 1.499 . S
C2030 H2010 0.950 . S
C2030 C2029 1.414 . S
C2030 C2031 1.374 . S
C2031 H2011 0.950 . S
C2031 C2027 1.385 . S
C2031 C2030 1.374 . S
C2032 C2029 1.499 . S
C2032 C2033 1.373 1_556 S
C2032 C2034 1.389 1_455 S
C2033 H2012 0.950 . S
C2033 C2032 1.373 1_554 S
C2033 C2049 1.377 . S
C2034 C2032 1.389 1_655 S
C2034 C2035 1.524 . S
C2034 C2048 1.377 . S
C2035 C2034 1.524 . S
C2035 C2036 1.397 . S
C2035 C2040 1.363 . S
C2036 H2013 0.950 . S
C2036 C2035 1.397 . S
C2036 C2037 1.334 . S
C2037 H2014 0.950 . S
C2037 C2036 1.334 . S
C2037 C2038 1.287 . S
C2038 C2037 1.287 . S
C2038 C2039 1.524 . S
C2038 H2057 0.913 . S
C2039 H2015 0.950 . S
C2039 C2038 1.524 . S
C2039 C2040 1.415 . S
C2040 H2016 0.950 . S
C2040 C2035 1.363 . S
C2040 C2039 1.415 . S
C2041 H2017 0.951 . S
C2041 C2042 1.366 . S
C2041 C2043 1.388 . S
C2042 C2041 1.366 . S
C2042 C2046 1.385 . S
C2043 H2018 0.951 . S
C2043 C2041 1.388 . S
C2043 C2044 1.366 . S
C2044 C2043 1.366 . S
C2044 C2045 1.414 . S
C2044 C2047 1.499 . S
C2045 H2019 0.950 . S
C2045 C2044 1.414 . S
C2045 C2046 1.374 . S
C2046 H2020 0.950 . S
C2046 C2042 1.385 . S
C2046 C2045 1.374 . S
C2047 C2044 1.499 . S
C2047 C2048 1.373 1_554 S
C2047 C2049 1.389 1_655 S
C2048 H2021 0.950 . S
C2048 C2034 1.377 . S
C2048 C2047 1.373 1_556 S
C2049 C2033 1.377 . S
C2049 C2047 1.389 1_455 S
C2049 C2050 1.524 . S
C2050 C2049 1.524 . S
C2050 C2051 1.397 . S
C2050 C2055 1.363 . S
C2051 H2022 0.950 . S
C2051 C2050 1.397 . S
C2051 C2052 1.334 . S
C2052 H2023 0.950 . S
C2052 C2051 1.334 . S
C2052 C2053 1.287 . S
C2053 C2052 1.287 . S
C2053 C2054 1.524 . S
C2053 H2056 0.999 . S
C2054 H2024 0.950 . S
C2054 C2053 1.524 . S
C2054 C2055 1.415 . S
C2055 H2025 0.950 . S
C2055 C2050 1.363 . S
C2055 C2054 1.415 . S
H2056 C2053 0.999 . S
H2057 C2038 0.913 . S
H2058 C2076 0.951 . S
H2059 C2078 0.951 . S
H2060 C2080 0.950 . S
H2061 C2081 0.950 . S
H2062 C2083 0.950 . S
H2063 C2086 0.950 . S
H2064 C2087 0.950 . S
H2065 C2089 0.950 . S
H2066 C2090 0.950 . S
H2067 C2091 0.951 . S
H2068 C2093 0.951 . S
H2069 C2095 0.950 . S
H2070 C2096 0.950 . S
H2071 C2098 0.950 . S
H2072 C2101 0.950 . S
H2073 C2102 0.950 . S
H2074 C2104 0.950 . S
H2075 C2105 0.950 . S
C2076 H2058 0.951 . S
C2076 C2077 1.366 . S
C2076 C2078 1.388 . S
C2077 C2076 1.366 . S
C2077 C2081 1.385 . S
C2078 H2059 0.951 . S
C2078 C2076 1.388 . S
C2078 C2079 1.366 . S
C2079 C2078 1.366 . S
C2079 C2080 1.414 . S
C2079 C2082 1.499 . S
C2080 H2060 0.950 . S
C2080 C2079 1.414 . S
C2080 C2081 1.374 . S
C2081 H2061 0.950 . S
C2081 C2077 1.385 . S
C2081 C2080 1.374 . S
C2082 C2079 1.499 . S
C2082 C2083 1.373 . S
C2082 C2084 1.392 1_545 S
C2083 H2062 0.950 . S
C2083 C2082 1.373 . S
C2083 C2099 1.375 . S
C2084 C2082 1.392 1_565 S
C2084 C2085 1.523 . S
C2084 C2098 1.375 . S
C2085 C2084 1.523 . S
C2085 C2086 1.397 . S
C2085 C2090 1.363 . S
C2086 H2063 0.950 . S
C2086 C2085 1.397 . S
C2086 C2087 1.334 . S
C2087 H2064 0.950 . S
C2087 C2086 1.334 . S
C2087 C2088 1.287 . S
C2088 C2087 1.287 . S
C2088 C2089 1.524 . S
C2088 H2107 0.913 . S
C2089 H2065 0.950 . S
C2089 C2088 1.524 . S
C2089 C2090 1.415 . S
C2090 H2066 0.950 . S
C2090 C2085 1.363 . S
C2090 C2089 1.415 . S
C2091 H2067 0.951 . S
C2091 C2092 1.366 . S
C2091 C2093 1.388 . S
C2092 C2091 1.366 . S
C2092 C2096 1.385 . S
C2093 H2068 0.951 . S
C2093 C2091 1.388 . S
C2093 C2094 1.366 . S
C2094 C2093 1.366 . S
C2094 C2095 1.414 . S
C2094 C2097 1.499 . S
C2095 H2069 0.950 . S
C2095 C2094 1.414 . S
C2095 C2096 1.374 . S
C2096 H2070 0.950 . S
C2096 C2092 1.385 . S
C2096 C2095 1.374 . S
C2097 C2094 1.499 . S
C2097 C2098 1.373 . S
C2097 C2099 1.392 1_565 S
C2098 H2071 0.950 . S
C2098 C2084 1.375 . S
C2098 C2097 1.373 . S
C2099 C2083 1.375 . S
C2099 C2097 1.392 1_545 S
C2099 C2100 1.523 . S
C2100 C2099 1.523 . S
C2100 C2101 1.397 . S
C2100 C2105 1.363 . S
C2101 H2072 0.950 . S
C2101 C2100 1.397 . S
C2101 C2102 1.334 . S
C2102 H2073 0.950 . S
C2102 C2101 1.334 . S
C2102 C2103 1.287 . S
C2103 C2102 1.287 . S
C2103 C2104 1.524 . S
C2103 H2106 0.999 . S
C2104 H2074 0.950 . S
C2104 C2103 1.524 . S
C2104 C2105 1.415 . S
C2105 H2075 0.950 . S
C2105 C2100 1.363 . S
C2105 C2104 1.415 . S
H2106 C2103 0.999 . S
H2107 C2088 0.913 . S
H2108 C2126 0.951 . S
H2109 C2128 0.951 . S
H2110 C2130 0.950 . S
H2111 C2131 0.950 . S
H2112 C2133 0.950 . S
H2113 C2136 0.950 . S
H2114 C2137 0.950 . S
H2115 C2139 0.950 . S
H2116 C2140 0.950 . S
H2117 C2141 0.951 . S
H2118 C2143 0.951 . S
H2119 C2145 0.950 . S
H2120 C2146 0.950 . S
H2121 C2148 0.950 . S
H2122 C2151 0.950 . S
H2123 C2152 0.950 . S
H2124 C2154 0.950 . S
H2125 C2155 0.950 . S
C2126 H2108 0.951 . S
C2126 C2127 1.366 . S
C2126 C2128 1.388 . S
C2127 C2126 1.366 . S
C2127 C2131 1.385 . S
C2128 H2109 0.951 . S
C2128 C2126 1.388 . S
C2128 C2129 1.366 . S
C2129 C2128 1.366 . S
C2129 C2130 1.414 . S
C2129 C2132 1.499 . S
C2130 H2110 0.950 . S
C2130 C2129 1.414 . S
C2130 C2131 1.374 . S
C2131 H2111 0.950 . S
C2131 C2127 1.385 . S
C2131 C2130 1.374 . S
C2132 C2129 1.499 . S
C2132 C2133 1.373 . S
C2132 C2134 1.389 1_554 S
C2133 H2112 0.950 . S
C2133 C2132 1.373 . S
C2133 C2149 1.377 . S
C2134 C2132 1.389 1_556 S
C2134 C2135 1.524 . S
C2134 C2148 1.377 . S
C2135 C2134 1.524 . S
C2135 C2136 1.397 . S
C2135 C2140 1.363 . S
C2136 H2113 0.950 . S
C2136 C2135 1.397 . S
C2136 C2137 1.334 . S
C2137 H2114 0.950 . S
C2137 C2136 1.334 . S
C2137 C2138 1.287 . S
C2138 C2137 1.287 . S
C2138 C2139 1.524 . S
C2138 H2157 0.913 . S
C2139 H2115 0.950 . S
C2139 C2138 1.524 . S
C2139 C2140 1.415 . S
C2140 H2116 0.950 . S
C2140 C2135 1.363 . S
C2140 C2139 1.415 . S
C2141 H2117 0.951 . S
C2141 C2142 1.366 . S
C2141 C2143 1.388 . S
C2142 C2141 1.366 . S
C2142 C2146 1.385 . S
C2143 H2118 0.951 . S
C2143 C2141 1.388 . S
C2143 C2144 1.366 . S
C2144 C2143 1.366 . S
C2144 C2145 1.414 . S
C2144 C2147 1.499 . S
C2145 H2119 0.950 . S
C2145 C2144 1.414 . S
C2145 C2146 1.374 . S
C2146 H2120 0.950 . S
C2146 C2142 1.385 . S
C2146 C2145 1.374 . S
C2147 C2144 1.499 . S
C2147 C2148 1.373 . S
C2147 C2149 1.389 1_556 S
C2148 H2121 0.950 . S
C2148 C2134 1.377 . S
C2148 C2147 1.373 . S
C2149 C2133 1.377 . S
C2149 C2147 1.389 1_554 S
C2149 C2150 1.524 . S
C2150 C2149 1.524 . S
C2150 C2151 1.397 . S
C2150 C2155 1.363 . S
C2151 H2122 0.950 . S
C2151 C2150 1.397 . S
C2151 C2152 1.334 . S
C2152 H2123 0.950 . S
C2152 C2151 1.334 . S
C2152 C2153 1.287 . S
C2153 C2152 1.287 . S
C2153 C2154 1.524 . S
C2153 H2156 0.999 . S
C2154 H2124 0.950 . S
C2154 C2153 1.524 . S
C2154 C2155 1.415 . S
C2155 H2125 0.950 . S
C2155 C2150 1.363 . S
C2155 C2154 1.415 . S
H2156 C2153 0.999 . S
H2157 C2138 0.913 . S
H2158 C2176 0.951 . S
H2159 C2178 0.951 . S
H2160 C2180 0.950 . S
H2161 C2181 0.950 . S
H2162 C2183 0.950 . S
H2163 C2186 0.950 . S
H2164 C2187 0.950 . S
H2165 C2189 0.950 . S
H2166 C2190 0.950 . S
H2167 C2191 0.951 . S
H2168 C2193 0.951 . S
H2169 C2195 0.950 . S
H2170 C2196 0.950 . S
H2171 C2198 0.950 . S
H2172 C2201 0.950 . S
H2173 C2202 0.950 . S
H2174 C2204 0.950 . S
H2175 C2205 0.950 . S
C2176 H2158 0.951 . S
C2176 C2177 1.366 . S
C2176 C2178 1.388 . S
C2177 C2176 1.366 . S
C2177 C2181 1.385 . S
C2178 H2159 0.951 . S
C2178 C2176 1.388 . S
C2178 C2179 1.366 . S
C2179 C2178 1.366 . S
C2179 C2180 1.414 . S
C2179 C2182 1.499 . S
C2180 H2160 0.950 . S
C2180 C2179 1.414 . S
C2180 C2181 1.374 . S
C2181 H2161 0.950 . S
C2181 C2177 1.385 . S
C2181 C2180 1.374 . S
C2182 C2179 1.499 . S
C2182 C2183 1.373 . S
C2182 C2184 1.389 1_455 S
C2183 H2162 0.950 . S
C2183 C2182 1.373 . S
C2183 C2199 1.377 . S
C2184 C2182 1.389 1_655 S
C2184 C2185 1.524 . S
C2184 C2198 1.377 . S
C2185 C2184 1.524 . S
C2185 C2186 1.397 . S
C2185 C2190 1.363 . S
C2186 H2163 0.950 . S
C2186 C2185 1.397 . S
C2186 C2187 1.334 . S
C2187 H2164 0.950 . S
C2187 C2186 1.334 . S
C2187 C2188 1.287 . S
C2188 C2187 1.287 . S
C2188 C2189 1.524 . S
C2188 H2207 0.913 . S
C2189 H2165 0.950 . S
C2189 C2188 1.524 . S
C2189 C2190 1.415 . S
C2190 H2166 0.950 . S
C2190 C2185 1.363 . S
C2190 C2189 1.415 . S
C2191 H2167 0.951 . S
C2191 C2192 1.366 . S
C2191 C2193 1.388 . S
C2192 C2191 1.366 . S
C2192 C2196 1.385 . S
C2193 H2168 0.951 . S
C2193 C2191 1.388 . S
C2193 C2194 1.366 . S
C2194 C2193 1.366 . S
C2194 C2195 1.414 . S
C2194 C2197 1.499 . S
C2195 H2169 0.950 . S
C2195 C2194 1.414 . S
C2195 C2196 1.374 . S
C2196 H2170 0.950 . S
C2196 C2192 1.385 . S
C2196 C2195 1.374 . S
C2197 C2194 1.499 . S
C2197 C2198 1.373 . S
C2197 C2199 1.389 1_655 S
C2198 H2171 0.950 . S
C2198 C2184 1.377 . S
C2198 C2197 1.373 . S
C2199 C2183 1.377 . S
C2199 C2197 1.389 1_455 S
C2199 C2200 1.524 . S
C2200 C2199 1.524 . S
C2200 C2201 1.397 . S
C2200 C2205 1.363 . S
C2201 H2172 0.950 . S
C2201 C2200 1.397 . S
C2201 C2202 1.334 . S
C2202 H2173 0.950 . S
C2202 C2201 1.334 . S
C2202 C2203 1.287 . S
C2203 C2202 1.287 . S
C2203 C2204 1.524 . S
C2203 H2206 0.999 . S
C2204 H2174 0.950 . S
C2204 C2203 1.524 . S
C2204 C2205 1.415 . S
C2205 H2175 0.950 . S
C2205 C2200 1.363 . S
C2205 C2204 1.415 . S
H2206 C2203 0.999 . S
H2207 C2188 0.913 . S
H2208 C2226 0.951 . S
H2209 C2228 0.951 . S
H2210 C2230 0.950 . S
H2211 C2231 0.950 . S
H2212 C2233 0.950 . S
H2213 C2236 0.950 . S
H2214 C2237 0.950 . S
H2215 C2239 0.950 . S
H2216 C2240 0.950 . S
H2217 C2241 0.951 . S
H2218 C2243 0.951 . S
H2219 C2245 0.950 . S
H2220 C2246 0.950 . S
H2221 C2248 0.950 . S
H2222 C2251 0.950 . S
H2223 C2252 0.950 . S
H2224 C2254 0.950 . S
H2225 C2255 0.950 . S
C2226 H2208 0.951 . S
C2226 C2227 1.366 . S
C2226 C2228 1.388 . S
C2227 C2226 1.366 . S
C2227 C2231 1.385 . S
C2228 H2209 0.951 . S
C2228 C2226 1.388 . S
C2228 C2229 1.366 . S
C2229 C2228 1.366 . S
C2229 C2230 1.414 . S
C2229 C2232 1.499 . S
C2230 H2210 0.950 . S
C2230 C2229 1.414 . S
C2230 C2231 1.374 . S
C2231 H2211 0.950 . S
C2231 C2227 1.385 . S
C2231 C2230 1.374 . S
C2232 C2229 1.499 . S
C2232 C2233 1.373 . S
C2232 C2234 1.389 . S
C2233 H2212 0.950 . S
C2233 C2232 1.373 . S
C2233 C2249 1.377 . S
C2234 C2232 1.389 . S
C2234 C2235 1.524 . S
C2234 C2248 1.377 . S
C2235 C2234 1.524 . S
C2235 C2236 1.397 . S
C2235 C2240 1.363 . S
C2236 H2213 0.950 . S
C2236 C2235 1.397 . S
C2236 C2237 1.334 . S
C2237 H2214 0.950 . S
C2237 C2236 1.334 . S
C2237 C2238 1.287 . S
C2238 C2237 1.287 . S
C2238 C2239 1.524 . S
C2238 H2257 0.913 . S
C2239 H2215 0.950 . S
C2239 C2238 1.524 . S
C2239 C2240 1.415 . S
C2240 H2216 0.950 . S
C2240 C2235 1.363 . S
C2240 C2239 1.415 . S
C2241 H2217 0.951 . S
C2241 C2242 1.366 . S
C2241 C2243 1.388 . S
C2242 C2241 1.366 . S
C2242 C2246 1.385 . S
C2243 H2218 0.951 . S
C2243 C2241 1.388 . S
C2243 C2244 1.366 . S
C2244 C2243 1.366 . S
C2244 C2245 1.414 . S
C2244 C2247 1.499 . S
C2245 H2219 0.950 . S
C2245 C2244 1.414 . S
C2245 C2246 1.374 . S
C2246 H2220 0.950 . S
C2246 C2242 1.385 . S
C2246 C2245 1.374 . S
C2247 C2244 1.499 . S
C2247 C2248 1.373 . S
C2247 C2249 1.389 . S
C2248 H2221 0.950 . S
C2248 C2234 1.377 . S
C2248 C2247 1.373 . S
C2249 C2233 1.377 . S
C2249 C2247 1.389 . S
C2249 C2250 1.524 . S
C2250 C2249 1.524 . S
C2250 C2251 1.397 . S
C2250 C2255 1.363 . S
C2251 H2222 0.950 . S
C2251 C2250 1.397 . S
C2251 C2252 1.334 . S
C2252 H2223 0.950 . S
C2252 C2251 1.334 . S
C2252 C2253 1.287 . S
C2253 C2252 1.287 . S
C2253 C2254 1.524 . S
C2253 H2256 0.999 . S
C2254 H2224 0.950 . S
C2254 C2253 1.524 . S
C2254 C2255 1.415 . S
C2255 H2225 0.950 . S
C2255 C2250 1.363 . S
C2255 C2254 1.415 . S
H2256 C2253 0.999 . S
H2257 C2238 0.913 . S
H2258 C2276 0.951 . S
H2259 C2278 0.951 . S
H2260 C2280 0.950 . S
H2261 C2281 0.950 . S
H2262 C2283 0.950 . S
H2263 C2286 0.950 . S
H2264 C2287 0.950 . S
H2265 C2289 0.950 . S
H2266 C2290 0.950 . S
H2267 C2291 0.951 . S
H2268 C2293 0.951 . S
H2269 C2295 0.950 . S
H2270 C2296 0.950 . S
H2271 C2298 0.950 . S
H2272 C2301 0.950 . S
H2273 C2302 0.950 . S
H2274 C2304 0.950 . S
H2275 C2305 0.950 . S
C2276 H2258 0.951 . S
C2276 C2277 1.366 . S
C2276 C2278 1.388 . S
C2277 C2276 1.366 . S
C2277 C2281 1.385 . S
C2278 H2259 0.951 . S
C2278 C2276 1.388 . S
C2278 C2279 1.366 . S
C2279 C2278 1.366 . S
C2279 C2280 1.414 . S
C2279 C2282 1.499 . S
C2280 H2260 0.950 . S
C2280 C2279 1.414 . S
C2280 C2281 1.374 . S
C2281 H2261 0.950 . S
C2281 C2277 1.385 . S
C2281 C2280 1.374 . S
C2282 C2279 1.499 . S
C2282 C2283 1.373 . S
C2282 C2284 1.389 . S
C2283 H2262 0.950 . S
C2283 C2282 1.373 . S
C2283 C2299 1.377 . S
C2284 C2282 1.389 . S
C2284 C2285 1.524 . S
C2284 C2298 1.377 . S
C2285 C2284 1.524 . S
C2285 C2286 1.397 . S
C2285 C2290 1.363 . S
C2286 H2263 0.950 . S
C2286 C2285 1.397 . S
C2286 C2287 1.334 . S
C2287 H2264 0.950 . S
C2287 C2286 1.334 . S
C2287 C2288 1.287 . S
C2288 C2287 1.287 . S
C2288 C2289 1.524 . S
C2288 H2307 0.913 . S
C2289 H2265 0.950 . S
C2289 C2288 1.524 . S
C2289 C2290 1.415 . S
C2290 H2266 0.950 . S
C2290 C2285 1.363 . S
C2290 C2289 1.415 . S
C2291 H2267 0.951 . S
C2291 C2292 1.366 . S
C2291 C2293 1.388 . S
C2292 C2291 1.366 . S
C2292 C2296 1.385 . S
C2293 H2268 0.951 . S
C2293 C2291 1.388 . S
C2293 C2294 1.366 . S
C2294 C2293 1.366 . S
C2294 C2295 1.414 . S
C2294 C2297 1.499 . S
C2295 H2269 0.950 . S
C2295 C2294 1.414 . S
C2295 C2296 1.374 . S
C2296 H2270 0.950 . S
C2296 C2292 1.385 . S
C2296 C2295 1.374 . S
C2297 C2294 1.499 . S
C2297 C2298 1.373 . S
C2297 C2299 1.389 . S
C2298 H2271 0.950 . S
C2298 C2284 1.377 . S
C2298 C2297 1.373 . S
C2299 C2283 1.377 . S
C2299 C2297 1.389 . S
C2299 C2300 1.524 . S
C2300 C2299 1.524 . S
C2300 C2301 1.397 . S
C2300 C2305 1.363 . S
C2301 H2272 0.950 . S
C2301 C2300 1.397 . S
C2301 C2302 1.334 . S
C2302 H2273 0.950 . S
C2302 C2301 1.334 . S
C2302 C2303 1.287 . S
C2303 C2302 1.287 . S
C2303 C2304 1.524 . S
C2303 H2306 0.999 . S
C2304 H2274 0.950 . S
C2304 C2303 1.524 . S
C2304 C2305 1.415 . S
C2305 H2275 0.950 . S
C2305 C2300 1.363 . S
C2305 C2304 1.415 . S
H2306 C2303 0.999 . S
H2307 C2288 0.913 . S
H2308 C2326 0.951 . S
H2309 C2328 0.951 . S
H2310 C2330 0.950 . S
H2311 C2331 0.950 . S
H2312 C2333 0.950 . S
H2313 C2336 0.950 . S
H2314 C2337 0.950 . S
H2315 C2339 0.950 . S
H2316 C2340 0.950 . S
H2317 C2341 0.951 . S
H2318 C2343 0.951 . S
H2319 C2345 0.950 . S
H2320 C2346 0.950 . S
H2321 C2348 0.950 . S
H2322 C2351 0.950 . S
H2323 C2352 0.950 . S
H2324 C2354 0.950 . S
H2325 C2355 0.950 . S
C2326 H2308 0.951 . S
C2326 C2327 1.366 . S
C2326 C2328 1.388 . S
C2327 C2326 1.366 . S
C2327 C2331 1.385 . S
C2328 H2309 0.951 . S
C2328 C2326 1.388 . S
C2328 C2329 1.366 . S
C2329 C2328 1.366 . S
C2329 C2330 1.414 . S
C2329 C2332 1.499 . S
C2330 H2310 0.950 . S
C2330 C2329 1.414 . S
C2330 C2331 1.374 . S
C2331 H2311 0.950 . S
C2331 C2327 1.385 . S
C2331 C2330 1.374 . S
C2332 C2329 1.499 . S
C2332 C2333 1.373 . S
C2332 C2334 1.389 . S
C2333 H2312 0.950 . S
C2333 C2332 1.373 . S
C2333 C2349 1.377 . S
C2334 C2332 1.389 . S
C2334 C2335 1.524 . S
C2334 C2348 1.377 . S
C2335 C2334 1.524 . S
C2335 C2336 1.397 . S
C2335 C2340 1.363 . S
C2336 H2313 0.950 . S
C2336 C2335 1.397 . S
C2336 C2337 1.334 . S
C2337 H2314 0.950 . S
C2337 C2336 1.334 . S
C2337 C2338 1.287 . S
C2338 C2337 1.287 . S
C2338 C2339 1.524 . S
C2338 H2357 0.913 . S
C2339 H2315 0.950 . S
C2339 C2338 1.524 . S
C2339 C2340 1.415 . S
C2340 H2316 0.950 . S
C2340 C2335 1.363 . S
C2340 C2339 1.415 . S
C2341 H2317 0.951 . S
C2341 C2342 1.366 . S
C2341 C2343 1.388 . S
C2342 C2341 1.366 . S
C2342 C2346 1.385 . S
C2343 H2318 0.951 . S
C2343 C2341 1.388 . S
C2343 C2344 1.366 . S
C2344 C2343 1.366 . S
C2344 C2345 1.414 . S
C2344 C2347 1.499 . S
C2345 H2319 0.950 . S
C2345 C2344 1.414 . S
C2345 C2346 1.374 . S
C2346 H2320 0.950 . S
C2346 C2342 1.385 . S
C2346 C2345 1.374 . S
C2347 C2344 1.499 . S
C2347 C2348 1.373 . S
C2347 C2349 1.389 . S
C2348 H2321 0.950 . S
C2348 C2334 1.377 . S
C2348 C2347 1.373 . S
C2349 C2333 1.377 . S
C2349 C2347 1.389 . S
C2349 C2350 1.524 . S
C2350 C2349 1.524 . S
C2350 C2351 1.397 . S
C2350 C2355 1.363 . S
C2351 H2322 0.950 . S
C2351 C2350 1.397 . S
C2351 C2352 1.334 . S
C2352 H2323 0.950 . S
C2352 C2351 1.334 . S
C2352 C2353 1.287 . S
C2353 C2352 1.287 . S
C2353 C2354 1.524 . S
C2353 H2356 0.999 . S
C2354 H2324 0.950 . S
C2354 C2353 1.524 . S
C2354 C2355 1.415 . S
C2355 H2325 0.950 . S
C2355 C2350 1.363 . S
C2355 C2354 1.415 . S
H2356 C2353 0.999 . S
H2357 C2338 0.913 . S
H2358 C2376 0.951 . S
H2359 C2378 0.951 . S
H2360 C2380 0.950 . S
H2361 C2381 0.950 . S
H2362 C2383 0.950 . S
H2363 C2386 0.950 . S
H2364 C2387 0.950 . S
H2365 C2389 0.950 . S
H2366 C2390 0.950 . S
H2367 C2391 0.951 . S
H2368 C2393 0.951 . S
H2369 C2395 0.950 . S
H2370 C2396 0.950 . S
H2371 C2398 0.950 . S
H2372 C2401 0.950 . S
H2373 C2402 0.950 . S
H2374 C2404 0.950 . S
H2375 C2405 0.950 . S
C2376 H2358 0.951 . S
C2376 C2377 1.366 . S
C2376 C2378 1.388 . S
C2377 C2376 1.366 . S
C2377 C2381 1.385 . S
C2378 H2359 0.951 . S
C2378 C2376 1.388 . S
C2378 C2379 1.366 . S
C2379 C2378 1.366 . S
C2379 C2380 1.414 . S
C2379 C2382 1.499 . S
C2380 H2360 0.950 . S
C2380 C2379 1.414 . S
C2380 C2381 1.374 . S
C2381 H2361 0.950 . S
C2381 C2377 1.385 . S
C2381 C2380 1.374 . S
C2382 C2379 1.499 . S
C2382 C2383 1.373 . S
C2382 C2384 1.389 . S
C2383 H2362 0.950 . S
C2383 C2382 1.373 . S
C2383 C2399 1.377 . S
C2384 C2382 1.389 . S
C2384 C2385 1.524 . S
C2384 C2398 1.377 . S
C2385 C2384 1.524 . S
C2385 C2386 1.397 . S
C2385 C2390 1.363 . S
C2386 H2363 0.950 . S
C2386 C2385 1.397 . S
C2386 C2387 1.334 . S
C2387 H2364 0.950 . S
C2387 C2386 1.334 . S
C2387 C2388 1.287 . S
C2388 C2387 1.287 . S
C2388 C2389 1.524 . S
C2388 H2407 0.913 . S
C2389 H2365 0.950 . S
C2389 C2388 1.524 . S
C2389 C2390 1.415 . S
C2390 H2366 0.950 . S
C2390 C2385 1.363 . S
C2390 C2389 1.415 . S
C2391 H2367 0.951 . S
C2391 C2392 1.366 . S
C2391 C2393 1.388 . S
C2392 C2391 1.366 . S
C2392 C2396 1.385 . S
C2393 H2368 0.951 . S
C2393 C2391 1.388 . S
C2393 C2394 1.366 . S
C2394 C2393 1.366 . S
C2394 C2395 1.414 . S
C2394 C2397 1.499 . S
C2395 H2369 0.950 . S
C2395 C2394 1.414 . S
C2395 C2396 1.374 . S
C2396 H2370 0.950 . S
C2396 C2392 1.385 . S
C2396 C2395 1.374 . S
C2397 C2394 1.499 . S
C2397 C2398 1.373 . S
C2397 C2399 1.389 . S
C2398 H2371 0.950 . S
C2398 C2384 1.377 . S
C2398 C2397 1.373 . S
C2399 C2383 1.377 . S
C2399 C2397 1.389 . S
C2399 C2400 1.524 . S
C2400 C2399 1.524 . S
C2400 C2401 1.397 . S
C2400 C2405 1.363 . S
C2401 H2372 0.950 . S
C2401 C2400 1.397 . S
C2401 C2402 1.334 . S
C2402 H2373 0.950 . S
C2402 C2401 1.334 . S
C2402 C2403 1.287 . S
C2403 C2402 1.287 . S
C2403 C2404 1.524 . S
C2403 H2406 0.999 . S
C2404 H2374 0.950 . S
C2404 C2403 1.524 . S
C2404 C2405 1.415 . S
C2405 H2375 0.950 . S
C2405 C2400 1.363 . S
C2405 C2404 1.415 . S
H2406 C2403 0.999 . S
H2407 C2388 0.913 . S
H2408 C2426 0.951 . S
H2409 C2428 0.951 . S
H2410 C2430 0.950 . S
H2411 C2431 0.950 . S
H2412 C2433 0.950 . S
H2413 C2436 0.950 . S
H2414 C2437 0.950 . S
H2415 C2439 0.950 . S
H2416 C2440 0.950 . S
H2417 C2441 0.951 . S
H2418 C2443 0.951 . S
H2419 C2445 0.950 . S
H2420 C2446 0.950 . S
H2421 C2448 0.950 . S
H2422 C2451 0.950 . S
H2423 C2452 0.950 . S
H2424 C2454 0.950 . S
H2425 C2455 0.950 . S
C2426 H2408 0.951 . S
C2426 C2427 1.366 . S
C2426 C2428 1.388 . S
C2427 C2426 1.366 . S
C2427 C2431 1.385 . S
C2428 H2409 0.951 . S
C2428 C2426 1.388 . S
C2428 C2429 1.366 . S
C2429 C2428 1.366 . S
C2429 C2430 1.414 . S
C2429 C2432 1.499 . S
C2430 H2410 0.950 . S
C2430 C2429 1.414 . S
C2430 C2431 1.374 . S
C2431 H2411 0.950 . S
C2431 C2427 1.385 . S
C2431 C2430 1.374 . S
C2432 C2429 1.499 . S
C2432 C2433 1.373 . S
C2432 C2434 1.389 . S
C2433 H2412 0.950 . S
C2433 C2432 1.373 . S
C2433 C2449 1.377 . S
C2434 C2432 1.389 . S
C2434 C2435 1.524 . S
C2434 C2448 1.377 . S
C2435 C2434 1.524 . S
C2435 C2436 1.397 . S
C2435 C2440 1.363 . S
C2436 H2413 0.950 . S
C2436 C2435 1.397 . S
C2436 C2437 1.334 . S
C2437 H2414 0.950 . S
C2437 C2436 1.334 . S
C2437 C2438 1.287 . S
C2438 C2437 1.287 . S
C2438 C2439 1.524 . S
C2438 H2457 0.913 . S
C2439 H2415 0.950 . S
C2439 C2438 1.524 . S
C2439 C2440 1.415 . S
C2440 H2416 0.950 . S
C2440 C2435 1.363 . S
C2440 C2439 1.415 . S
C2441 H2417 0.951 . S
C2441 C2442 1.366 . S
C2441 C2443 1.388 . S
C2442 C2441 1.366 . S
C2442 C2446 1.385 . S
C2443 H2418 0.951 . S
C2443 C2441 1.388 . S
C2443 C2444 1.366 . S
C2444 C2443 1.366 . S
C2444 C2445 1.414 . S
C2444 C2447 1.499 . S
C2445 H2419 0.950 . S
C2445 C2444 1.414 . S
C2445 C2446 1.374 . S
C2446 H2420 0.950 . S
C2446 C2442 1.385 . S
C2446 C2445 1.374 . S
C2447 C2444 1.499 . S
C2447 C2448 1.373 . S
C2447 C2449 1.389 . S
C2448 H2421 0.950 . S
C2448 C2434 1.377 . S
C2448 C2447 1.373 . S
C2449 C2433 1.377 . S
C2449 C2447 1.389 . S
C2449 C2450 1.524 . S
C2450 C2449 1.524 . S
C2450 C2451 1.397 . S
C2450 C2455 1.363 . S
C2451 H2422 0.950 . S
C2451 C2450 1.397 . S
C2451 C2452 1.334 . S
C2452 H2423 0.950 . S
C2452 C2451 1.334 . S
C2452 C2453 1.287 . S
C2453 C2452 1.287 . S
C2453 C2454 1.524 . S
C2453 H2456 0.999 . S
C2454 H2424 0.950 . S
C2454 C2453 1.524 . S
C2454 C2455 1.415 . S
C2455 H2425 0.950 . S
C2455 C2450 1.363 . S
C2455 C2454 1.415 . S
H2456 C2453 0.999 . S
H2457 C2438 0.913 . S
H2458 C2476 0.951 . S
H2459 C2478 0.951 . S
H2460 C2480 0.950 . S
H2461 C2481 0.950 . S
H2462 C2483 0.950 . S
H2463 C2486 0.950 . S
H2464 C2487 0.950 . S
H2465 C2489 0.950 . S
H2466 C2490 0.950 . S
H2467 C2491 0.951 . S
H2468 C2493 0.951 . S
H2469 C2495 0.950 . S
H2470 C2496 0.950 . S
H2471 C2498 0.950 . S
H2472 C2501 0.950 . S
H2473 C2502 0.950 . S
H2474 C2504 0.950 . S
H2475 C2505 0.950 . S
C2476 H2458 0.951 . S
C2476 C2477 1.366 . S
C2476 C2478 1.388 . S
C2477 C2476 1.366 . S
C2477 C2481 1.385 . S
C2478 H2459 0.951 . S
C2478 C2476 1.388 . S
C2478 C2479 1.366 . S
C2479 C2478 1.366 . S
C2479 C2480 1.414 . S
C2479 C2482 1.499 . S
C2480 H2460 0.950 . S
C2480 C2479 1.414 . S
C2480 C2481 1.374 . S
C2481 H2461 0.950 . S
C2481 C2477 1.385 . S
C2481 C2480 1.374 . S
C2482 C2479 1.499 . S
C2482 C2483 1.373 . S
C2482 C2484 1.389 . S
C2483 H2462 0.950 . S
C2483 C2482 1.373 . S
C2483 C2499 1.377 . S
C2484 C2482 1.389 . S
C2484 C2485 1.524 . S
C2484 C2498 1.377 . S
C2485 C2484 1.524 . S
C2485 C2486 1.397 . S
C2485 C2490 1.363 . S
C2486 H2463 0.950 . S
C2486 C2485 1.397 . S
C2486 C2487 1.334 . S
C2487 H2464 0.950 . S
C2487 C2486 1.334 . S
C2487 C2488 1.287 . S
C2488 C2487 1.287 . S
C2488 C2489 1.524 . S
C2488 H2507 0.913 . S
C2489 H2465 0.950 . S
C2489 C2488 1.524 . S
C2489 C2490 1.415 . S
C2490 H2466 0.950 . S
C2490 C2485 1.363 . S
C2490 C2489 1.415 . S
C2491 H2467 0.951 . S
C2491 C2492 1.366 . S
C2491 C2493 1.388 . S
C2492 C2491 1.366 . S
C2492 C2496 1.385 . S
C2493 H2468 0.951 . S
C2493 C2491 1.388 . S
C2493 C2494 1.366 . S
C2494 C2493 1.366 . S
C2494 C2495 1.414 . S
C2494 C2497 1.499 . S
C2495 H2469 0.950 . S
C2495 C2494 1.414 . S
C2495 C2496 1.374 . S
C2496 H2470 0.950 . S
C2496 C2492 1.385 . S
C2496 C2495 1.374 . S
C2497 C2494 1.499 . S
C2497 C2498 1.373 . S
C2497 C2499 1.389 . S
C2498 H2471 0.950 . S
C2498 C2484 1.377 . S
C2498 C2497 1.373 . S
C2499 C2483 1.377 . S
C2499 C2497 1.389 . S
C2499 C2500 1.524 . S
C2500 C2499 1.524 . S
C2500 C2501 1.397 . S
C2500 C2505 1.363 . S
C2501 H2472 0.950 . S
C2501 C2500 1.397 . S
C2501 C2502 1.334 . S
C2502 H2473 0.950 . S
C2502 C2501 1.334 . S
C2502 C2503 1.287 . S
C2503 C2502 1.287 . S
C2503 C2504 1.524 . S
C2503 H2506 0.999 . S
C2504 H2474 0.950 . S
C2504 C2503 1.524 . S
C2504 C2505 1.415 . S
C2505 H2475 0.950 . S
C2505 C2500 1.363 . S
C2505 C2504 1.415 . S
H2506 C2503 0.999 . S
H2507 C2488 0.913 . S
H2508 C2526 0.951 . S
H2509 C2528 0.951 . S
H2510 C2530 0.950 . S
H2511 C2531 0.950 . S
H2512 C2533 0.950 . S
H2513 C2536 0.950 . S
H2514 C2537 0.950 . S
H2515 C2539 0.950 . S
H2516 C2540 0.950 . S
H2517 C2541 0.951 . S
H2518 C2543 0.951 . S
H2519 C2545 0.950 . S
H2520 C2546 0.950 . S
H2521 C2548 0.950 . S
H2522 C2551 0.950 . S
H2523 C2552 0.950 . S
H2524 C2554 0.950 . S
H2525 C2555 0.950 . S
C2526 H2508 0.951 . S
C2526 C2527 1.366 . S
C2526 C2528 1.388 . S
C2527 C2526 1.366 . S
C2527 C2531 1.385 . S
C2528 H2509 0.951 . S
C2528 C2526 1.388 . S
C2528 C2529 1.366 . S
C2529 C2528 1.366 . S
C2529 C2530 1.414 . S
C2529 C2532 1.499 . S
C2530 H2510 0.950 . S
C2530 C2529 1.414 . S
C2530 C2531 1.374 . S
C2531 H2511 0.950 . S
C2531 C2527 1.385 . S
C2531 C2530 1.374 . S
C2532 C2529 1.499 . S
C2532 C2533 1.373 . S
C2532 C2534 1.389 . S
C2533 H2512 0.950 . S
C2533 C2532 1.373 . S
C2533 C2549 1.377 . S
C2534 C2532 1.389 . S
C2534 C2535 1.524 . S
C2534 C2548 1.377 . S
C2535 C2534 1.524 . S
C2535 C2536 1.397 . S
C2535 C2540 1.363 . S
C2536 H2513 0.950 . S
C2536 C2535 1.397 . S
C2536 C2537 1.334 . S
C2537 H2514 0.950 . S
C2537 C2536 1.334 . S
C2537 C2538 1.287 . S
C2538 C2537 1.287 . S
C2538 C2539 1.524 . S
C2538 H2557 0.913 . S
C2539 H2515 0.950 . S
C2539 C2538 1.524 . S
C2539 C2540 1.415 . S
C2540 H2516 0.950 . S
C2540 C2535 1.363 . S
C2540 C2539 1.415 . S
C2541 H2517 0.951 . S
C2541 C2542 1.366 . S
C2541 C2543 1.388 . S
C2542 C2541 1.366 . S
C2542 C2546 1.385 . S
C2543 H2518 0.951 . S
C2543 C2541 1.388 . S
C2543 C2544 1.366 . S
C2544 C2543 1.366 . S
C2544 C2545 1.414 . S
C2544 C2547 1.499 . S
C2545 H2519 0.950 . S
C2545 C2544 1.414 . S
C2545 C2546 1.374 . S
C2546 H2520 0.950 . S
C2546 C2542 1.385 . S
C2546 C2545 1.374 . S
C2547 C2544 1.499 . S
C2547 C2548 1.373 . S
C2547 C2549 1.389 . S
C2548 H2521 0.950 . S
C2548 C2534 1.377 . S
C2548 C2547 1.373 . S
C2549 C2533 1.377 . S
C2549 C2547 1.389 . S
C2549 C2550 1.524 . S
C2550 C2549 1.524 . S
C2550 C2551 1.397 . S
C2550 C2555 1.363 . S
C2551 H2522 0.950 . S
C2551 C2550 1.397 . S
C2551 C2552 1.334 . S
C2552 H2523 0.950 . S
C2552 C2551 1.334 . S
C2552 C2553 1.287 . S
C2553 C2552 1.287 . S
C2553 C2554 1.524 . S
C2553 H2556 0.999 . S
C2554 H2524 0.950 . S
C2554 C2553 1.524 . S
C2554 C2555 1.415 . S
C2555 H2525 0.950 . S
C2555 C2550 1.363 . S
C2555 C2554 1.415 . S
H2556 C2553 0.999 . S
H2557 C2538 0.913 . S
H2558 C2576 0.951 . S
H2559 C2578 0.951 . S
H2560 C2580 0.950 . S
H2561 C2581 0.950 . S
H2562 C2583 0.950 . S
H2563 C2586 0.950 . S
H2564 C2587 0.950 . S
H2565 C2589 0.950 . S
H2566 C2590 0.950 . S
H2567 C2591 0.951 . S
H2568 C2593 0.951 . S
H2569 C2595 0.950 . S
H2570 C2596 0.950 . S
H2571 C2598 0.950 . S
H2572 C2601 0.950 . S
H2573 C2602 0.950 . S
H2574 C2604 0.950 . S
H2575 C2605 0.950 . S
C2576 H2558 0.951 . S
C2576 C2577 1.366 . S
C2576 C2578 1.388 . S
C2577 C2576 1.366 . S
C2577 C2581 1.385 . S
C2578 H2559 0.951 . S
C2578 C2576 1.388 . S
C2578 C2579 1.366 . S
C2579 C2578 1.366 . S
C2579 C2580 1.414 . S
C2579 C2582 1.499 . S
C2580 H2560 0.950 . S
C2580 C2579 1.414 . S
C2580 C2581 1.374 . S
C2581 H2561 0.950 . S
C2581 C2577 1.385 . S
C2581 C2580 1.374 . S
C2582 C2579 1.499 . S
C2582 C2583 1.373 . S
C2582 C2584 1.389 . S
C2583 H2562 0.950 . S
C2583 C2582 1.373 . S
C2583 C2599 1.377 . S
C2584 C2582 1.389 . S
C2584 C2585 1.524 . S
C2584 C2598 1.377 . S
C2585 C2584 1.524 . S
C2585 C2586 1.397 . S
C2585 C2590 1.363 . S
C2586 H2563 0.950 . S
C2586 C2585 1.397 . S
C2586 C2587 1.334 . S
C2587 H2564 0.950 . S
C2587 C2586 1.334 . S
C2587 C2588 1.287 . S
C2588 C2587 1.287 . S
C2588 C2589 1.524 . S
C2588 H2607 0.913 . S
C2589 H2565 0.950 . S
C2589 C2588 1.524 . S
C2589 C2590 1.415 . S
C2590 H2566 0.950 . S
C2590 C2585 1.363 . S
C2590 C2589 1.415 . S
C2591 H2567 0.951 . S
C2591 C2592 1.366 . S
C2591 C2593 1.388 . S
C2592 C2591 1.366 . S
C2592 C2596 1.385 . S
C2593 H2568 0.951 . S
C2593 C2591 1.388 . S
C2593 C2594 1.366 . S
C2594 C2593 1.366 . S
C2594 C2595 1.414 . S
C2594 C2597 1.499 . S
C2595 H2569 0.950 . S
C2595 C2594 1.414 . S
C2595 C2596 1.374 . S
C2596 H2570 0.950 . S
C2596 C2592 1.385 . S
C2596 C2595 1.374 . S
C2597 C2594 1.499 . S
C2597 C2598 1.373 . S
C2597 C2599 1.389 . S
C2598 H2571 0.950 . S
C2598 C2584 1.377 . S
C2598 C2597 1.373 . S
C2599 C2583 1.377 . S
C2599 C2597 1.389 . S
C2599 C2600 1.524 . S
C2600 C2599 1.524 . S
C2600 C2601 1.397 . S
C2600 C2605 1.363 . S
C2601 H2572 0.950 . S
C2601 C2600 1.397 . S
C2601 C2602 1.334 . S
C2602 H2573 0.950 . S
C2602 C2601 1.334 . S
C2602 C2603 1.287 . S
C2603 C2602 1.287 . S
C2603 C2604 1.524 . S
C2603 H2606 0.999 . S
C2604 H2574 0.950 . S
C2604 C2603 1.524 . S
C2604 C2605 1.415 . S
C2605 H2575 0.950 . S
C2605 C2600 1.363 . S
C2605 C2604 1.415 . S
H2606 C2603 0.999 . S
H2607 C2588 0.913 . S
H2608 C2626 0.951 . S
H2609 C2628 0.951 . S
H2610 C2630 0.950 . S
H2611 C2631 0.950 . S
H2612 C2633 0.950 . S
H2613 C2636 0.950 . S
H2614 C2637 0.950 . S
H2615 C2639 0.950 . S
H2616 C2640 0.950 . S
H2617 C2641 0.951 . S
H2618 C2643 0.951 . S
H2619 C2645 0.950 . S
H2620 C2646 0.950 . S
H2621 C2648 0.950 . S
H2622 C2651 0.950 . S
H2623 C2652 0.950 . S
H2624 C2654 0.950 . S
H2625 C2655 0.950 . S
C2626 H2608 0.951 . S
C2626 C2627 1.366 . S
C2626 C2628 1.388 . S
C2627 C2626 1.366 . S
C2627 C2631 1.385 . S
C2628 H2609 0.951 . S
C2628 C2626 1.388 . S
C2628 C2629 1.366 . S
C2629 C2628 1.366 . S
C2629 C2630 1.414 . S
C2629 C2632 1.499 . S
C2630 H2610 0.950 . S
C2630 C2629 1.414 . S
C2630 C2631 1.374 . S
C2631 H2611 0.950 . S
C2631 C2627 1.385 . S
C2631 C2630 1.374 . S
C2632 C2629 1.499 . S
C2632 C2633 1.373 . S
C2632 C2634 1.389 . S
C2633 H2612 0.950 . S
C2633 C2632 1.373 . S
C2633 C2649 1.377 . S
C2634 C2632 1.389 . S
C2634 C2635 1.524 . S
C2634 C2648 1.377 . S
C2635 C2634 1.524 . S
C2635 C2636 1.397 . S
C2635 C2640 1.363 . S
C2636 H2613 0.950 . S
C2636 C2635 1.397 . S
C2636 C2637 1.334 . S
C2637 H2614 0.950 . S
C2637 C2636 1.334 . S
C2637 C2638 1.287 . S
C2638 C2637 1.287 . S
C2638 C2639 1.524 . S
C2638 H2657 0.913 . S
C2639 H2615 0.950 . S
C2639 C2638 1.524 . S
C2639 C2640 1.415 . S
C2640 H2616 0.950 . S
C2640 C2635 1.363 . S
C2640 C2639 1.415 . S
C2641 H2617 0.951 . S
C2641 C2642 1.366 . S
C2641 C2643 1.388 . S
C2642 C2641 1.366 . S
C2642 C2646 1.385 . S
C2643 H2618 0.951 . S
C2643 C2641 1.388 . S
C2643 C2644 1.366 . S
C2644 C2643 1.366 . S
C2644 C2645 1.414 . S
C2644 C2647 1.499 . S
C2645 H2619 0.950 . S
C2645 C2644 1.414 . S
C2645 C2646 1.374 . S
C2646 H2620 0.950 . S
C2646 C2642 1.385 . S
C2646 C2645 1.374 . S
C2647 C2644 1.499 . S
C2647 C2648 1.373 . S
C2647 C2649 1.389 . S
C2648 H2621 0.950 . S
C2648 C2634 1.377 . S
C2648 C2647 1.373 . S
C2649 C2633 1.377 . S
C2649 C2647 1.389 . S
C2649 C2650 1.524 . S
C2650 C2649 1.524 . S
C2650 C2651 1.397 . S
C2650 C2655 1.363 . S
C2651 H2622 0.950 . S
C2651 C2650 1.397 . S
C2651 C2652 1.334 . S
C2652 H2623 0.950 . S
C2652 C2651 1.334 . S
C2652 C2653 1.287 . S
C2653 C2652 1.287 . S
C2653 C2654 1.524 . S
C2653 H2656 0.999 . S
C2654 H2624 0.950 . S
C2654 C2653 1.524 . S
C2654 C2655 1.415 . S
C2655 H2625 0.950 . S
C2655 C2650 1.363 . S
C2655 C2654 1.415 . S
H2656 C2653 0.999 . S
H2657 C2638 0.913 . S
H2658 C2676 0.951 . S
H2659 C2678 0.951 . S
H2660 C2680 0.950 . S
H2661 C2681 0.950 . S
H2662 C2683 0.950 . S
H2663 C2686 0.950 . S
H2664 C2687 0.950 . S
H2665 C2689 0.950 . S
H2666 C2690 0.950 . S
H2667 C2691 0.951 . S
H2668 C2693 0.951 . S
H2669 C2695 0.950 . S
H2670 C2696 0.950 . S
H2671 C2698 0.950 . S
H2672 C2701 0.950 . S
H2673 C2702 0.950 . S
H2674 C2704 0.950 . S
H2675 C2705 0.950 . S
C2676 H2658 0.951 . S
C2676 C2677 1.366 . S
C2676 C2678 1.388 . S
C2677 C2676 1.366 . S
C2677 C2681 1.385 . S
C2678 H2659 0.951 . S
C2678 C2676 1.388 . S
C2678 C2679 1.366 . S
C2679 C2678 1.366 . S
C2679 C2680 1.414 . S
C2679 C2682 1.499 . S
C2680 H2660 0.950 . S
C2680 C2679 1.414 . S
C2680 C2681 1.374 . S
C2681 H2661 0.950 . S
C2681 C2677 1.385 . S
C2681 C2680 1.374 . S
C2682 C2679 1.499 . S
C2682 C2683 1.373 . S
C2682 C2684 1.389 . S
C2683 H2662 0.950 . S
C2683 C2682 1.373 . S
C2683 C2699 1.377 . S
C2684 C2682 1.389 . S
C2684 C2685 1.524 . S
C2684 C2698 1.377 . S
C2685 C2684 1.524 . S
C2685 C2686 1.397 . S
C2685 C2690 1.363 . S
C2686 H2663 0.950 . S
C2686 C2685 1.397 . S
C2686 C2687 1.334 . S
C2687 H2664 0.950 . S
C2687 C2686 1.334 . S
C2687 C2688 1.287 . S
C2688 C2687 1.287 . S
C2688 C2689 1.524 . S
C2688 H2707 0.913 . S
C2689 H2665 0.950 . S
C2689 C2688 1.524 . S
C2689 C2690 1.415 . S
C2690 H2666 0.950 . S
C2690 C2685 1.363 . S
C2690 C2689 1.415 . S
C2691 H2667 0.951 . S
C2691 C2692 1.366 . S
C2691 C2693 1.388 . S
C2692 C2691 1.366 . S
C2692 C2696 1.385 . S
C2693 H2668 0.951 . S
C2693 C2691 1.388 . S
C2693 C2694 1.366 . S
C2694 C2693 1.366 . S
C2694 C2695 1.414 . S
C2694 C2697 1.499 . S
C2695 H2669 0.950 . S
C2695 C2694 1.414 . S
C2695 C2696 1.374 . S
C2696 H2670 0.950 . S
C2696 C2692 1.385 . S
C2696 C2695 1.374 . S
C2697 C2694 1.499 . S
C2697 C2698 1.373 . S
C2697 C2699 1.389 . S
C2698 H2671 0.950 . S
C2698 C2684 1.377 . S
C2698 C2697 1.373 . S
C2699 C2683 1.377 . S
C2699 C2697 1.389 . S
C2699 C2700 1.524 . S
C2700 C2699 1.524 . S
C2700 C2701 1.397 . S
C2700 C2705 1.363 . S
C2701 H2672 0.950 . S
C2701 C2700 1.397 . S
C2701 C2702 1.334 . S
C2702 H2673 0.950 . S
C2702 C2701 1.334 . S
C2702 C2703 1.287 . S
C2703 C2702 1.287 . S
C2703 C2704 1.524 . S
C2703 H2706 0.999 . S
C2704 H2674 0.950 . S
C2704 C2703 1.524 . S
C2704 C2705 1.415 . S
C2705 H2675 0.950 . S
C2705 C2700 1.363 . S
C2705 C2704 1.415 . S
H2706 C2703 0.999 . S
H2707 C2688 0.913 . S
H2708 C2726 0.951 . S
H2709 C2728 0.951 . S
H2710 C2730 0.950 . S
H2711 C2731 0.950 . S
H2712 C2733 0.950 . S
H2713 C2736 0.950 . S
H2714 C2737 0.950 . S
H2715 C2739 0.950 . S
H2716 C2740 0.950 . S
H2717 C2741 0.951 . S
H2718 C2743 0.951 . S
H2719 C2745 0.950 . S
H2720 C2746 0.950 . S
H2721 C2748 0.950 . S
H2722 C2751 0.950 . S
H2723 C2752 0.950 . S
H2724 C2754 0.950 . S
H2725 C2755 0.950 . S
C2726 H2708 0.951 . S
C2726 C2727 1.366 . S
C2726 C2728 1.388 . S
C2727 C2726 1.366 . S
C2727 C2731 1.385 . S
C2728 H2709 0.951 . S
C2728 C2726 1.388 . S
C2728 C2729 1.366 . S
C2729 C2728 1.366 . S
C2729 C2730 1.414 . S
C2729 C2732 1.499 . S
C2730 H2710 0.950 . S
C2730 C2729 1.414 . S
C2730 C2731 1.374 . S
C2731 H2711 0.950 . S
C2731 C2727 1.385 . S
C2731 C2730 1.374 . S
C2732 C2729 1.499 . S
C2732 C2733 1.373 . S
C2732 C2734 1.389 . S
C2733 H2712 0.950 . S
C2733 C2732 1.373 . S
C2733 C2749 1.377 . S
C2734 C2732 1.389 . S
C2734 C2735 1.524 . S
C2734 C2748 1.377 . S
C2735 C2734 1.524 . S
C2735 C2736 1.397 . S
C2735 C2740 1.363 . S
C2736 H2713 0.950 . S
C2736 C2735 1.397 . S
C2736 C2737 1.334 . S
C2737 H2714 0.950 . S
C2737 C2736 1.334 . S
C2737 C2738 1.287 . S
C2738 C2737 1.287 . S
C2738 C2739 1.524 . S
C2738 H2757 0.913 . S
C2739 H2715 0.950 . S
C2739 C2738 1.524 . S
C2739 C2740 1.415 . S
C2740 H2716 0.950 . S
C2740 C2735 1.363 . S
C2740 C2739 1.415 . S
C2741 H2717 0.951 . S
C2741 C2742 1.366 . S
C2741 C2743 1.388 . S
C2742 C2741 1.366 . S
C2742 C2746 1.385 . S
C2743 H2718 0.951 . S
C2743 C2741 1.388 . S
C2743 C2744 1.366 . S
C2744 C2743 1.366 . S
C2744 C2745 1.414 . S
C2744 C2747 1.499 . S
C2745 H2719 0.950 . S
C2745 C2744 1.414 . S
C2745 C2746 1.374 . S
C2746 H2720 0.950 . S
C2746 C2742 1.385 . S
C2746 C2745 1.374 . S
C2747 C2744 1.499 . S
C2747 C2748 1.373 . S
C2747 C2749 1.389 . S
C2748 H2721 0.950 . S
C2748 C2734 1.377 . S
C2748 C2747 1.373 . S
C2749 C2733 1.377 . S
C2749 C2747 1.389 . S
C2749 C2750 1.524 . S
C2750 C2749 1.524 . S
C2750 C2751 1.397 . S
C2750 C2755 1.363 . S
C2751 H2722 0.950 . S
C2751 C2750 1.397 . S
C2751 C2752 1.334 . S
C2752 H2723 0.950 . S
C2752 C2751 1.334 . S
C2752 C2753 1.287 . S
C2753 C2752 1.287 . S
C2753 C2754 1.524 . S
C2753 H2756 0.999 . S
C2754 H2724 0.950 . S
C2754 C2753 1.524 . S
C2754 C2755 1.415 . S
C2755 H2725 0.950 . S
C2755 C2750 1.363 . S
C2755 C2754 1.415 . S
H2756 C2753 0.999 . S
H2757 C2738 0.913 . S
H2758 C2776 0.951 . S
H2759 C2778 0.951 . S
H2760 C2780 0.950 . S
H2761 C2781 0.950 . S
H2762 C2783 0.950 . S
H2763 C2786 0.950 . S
H2764 C2787 0.950 . S
H2765 C2789 0.950 . S
H2766 C2790 0.950 . S
H2767 C2791 0.951 . S
H2768 C2793 0.951 . S
H2769 C2795 0.950 . S
H2770 C2796 0.950 . S
H2771 C2798 0.950 . S
H2772 C2801 0.950 . S
H2773 C2802 0.950 . S
H2774 C2804 0.950 . S
H2775 C2805 0.950 . S
C2776 H2758 0.951 . S
C2776 C2777 1.366 . S
C2776 C2778 1.388 . S
C2777 C2776 1.366 . S
C2777 C2781 1.385 . S
C2778 H2759 0.951 . S
C2778 C2776 1.388 . S
C2778 C2779 1.366 . S
C2779 C2778 1.366 . S
C2779 C2780 1.414 . S
C2779 C2782 1.499 . S
C2780 H2760 0.950 . S
C2780 C2779 1.414 . S
C2780 C2781 1.374 . S
C2781 H2761 0.950 . S
C2781 C2777 1.385 . S
C2781 C2780 1.374 . S
C2782 C2779 1.499 . S
C2782 C2783 1.373 . S
C2782 C2784 1.389 . S
C2783 H2762 0.950 . S
C2783 C2782 1.373 . S
C2783 C2799 1.377 . S
C2784 C2782 1.389 . S
C2784 C2785 1.524 . S
C2784 C2798 1.377 . S
C2785 C2784 1.524 . S
C2785 C2786 1.397 . S
C2785 C2790 1.363 . S
C2786 H2763 0.950 . S
C2786 C2785 1.397 . S
C2786 C2787 1.334 . S
C2787 H2764 0.950 . S
C2787 C2786 1.334 . S
C2787 C2788 1.287 . S
C2788 C2787 1.287 . S
C2788 C2789 1.524 . S
C2788 H2807 0.913 . S
C2789 H2765 0.950 . S
C2789 C2788 1.524 . S
C2789 C2790 1.415 . S
C2790 H2766 0.950 . S
C2790 C2785 1.363 . S
C2790 C2789 1.415 . S
C2791 H2767 0.951 . S
C2791 C2792 1.366 . S
C2791 C2793 1.388 . S
C2792 C2791 1.366 . S
C2792 C2796 1.385 . S
C2793 H2768 0.951 . S
C2793 C2791 1.388 . S
C2793 C2794 1.366 . S
C2794 C2793 1.366 . S
C2794 C2795 1.414 . S
C2794 C2797 1.499 . S
C2795 H2769 0.950 . S
C2795 C2794 1.414 . S
C2795 C2796 1.374 . S
C2796 H2770 0.950 . S
C2796 C2792 1.385 . S
C2796 C2795 1.374 . S
C2797 C2794 1.499 . S
C2797 C2798 1.373 . S
C2797 C2799 1.389 . S
C2798 H2771 0.950 . S
C2798 C2784 1.377 . S
C2798 C2797 1.373 . S
C2799 C2783 1.377 . S
C2799 C2797 1.389 . S
C2799 C2800 1.524 . S
C2800 C2799 1.524 . S
C2800 C2801 1.397 . S
C2800 C2805 1.363 . S
C2801 H2772 0.950 . S
C2801 C2800 1.397 . S
C2801 C2802 1.334 . S
C2802 H2773 0.950 . S
C2802 C2801 1.334 . S
C2802 C2803 1.287 . S
C2803 C2802 1.287 . S
C2803 C2804 1.524 . S
C2803 H2806 0.999 . S
C2804 H2774 0.950 . S
C2804 C2803 1.524 . S
C2804 C2805 1.415 . S
C2805 H2775 0.950 . S
C2805 C2800 1.363 . S
C2805 C2804 1.415 . S
H2806 C2803 0.999 . S
H2807 C2788 0.913 . S
C1027 C226 1.085 . S
C1042 C55 1.223 . S
C1077 C322 1.084 . S
C1092 C151 1.223 . S
C1127 C223 1.223 . S
C1142 C394 1.086 . S
C1177 C319 1.223 . S
C1192 C490 1.086 . S
C1227 C58 1.084 . S
C1242 C391 1.223 . S
C1277 C154 1.086 . S
C1292 C487 1.223 . S
C1327 C910 1.086 . S
C1342 C571 1.223 . S
C1377 C643 1.223 . S
C1392 C982 1.086 . S
C1427 C739 1.223 . S
C1442 C574 1.086 . S
C1477 C811 1.223 . S
C1492 C646 1.084 . S
C1527 C907 1.223 . S
C1542 C742 1.084 . S
C1577 C814 1.086 . S
C1592 C979 1.223 . S
C1627 C320 1.962 . S
C1642 C56 1.961 . S
C1677 C152 1.961 . S
C1692 C392 1.962 . S
C1727 C224 1.962 . S
C1742 C488 1.961 . S
C1777 C572 1.961 . S
C1792 C812 1.962 . S
C1827 C644 1.961 . S
C1842 C908 1.962 . S
C1877 C740 1.961 . S
C1892 C980 1.962 . S
C1927 C656 2.161 . S
C1942 C68 2.161 . S
C1977 C140 2.160 . S
C1992 C728 2.160 . S
C2027 C824 2.161 . S
C2042 C236 2.161 . S
C2077 C308 2.161 . S
C2092 C896 2.160 . S
C2127 C404 2.160 . S
C2142 C992 2.160 . S
C2177 C560 2.161 . S
C2192 C476 2.161 . S
C2227 C238 1.243 . S
C2242 C67 1.403 . S
C2277 C139 1.403 . S
C2292 C310 1.243 . S
C2327 C235 1.404 . S
C2342 C406 1.244 . S
C2377 C307 1.404 . S
C2392 C478 1.244 . S
C2427 C70 1.245 . S
C2442 C403 1.404 . S
C2477 C142 1.243 . S
C2492 C475 1.403 . S
C2527 C898 1.243 . S
C2542 C559 1.403 . S
C2577 C655 1.403 . S
C2592 C994 1.244 . S
C2627 C727 1.404 . S
C2642 C562 1.244 . S
C2677 C658 1.243 . S
C2692 C823 1.403 . S
C2727 C895 1.404 . S
C2742 C730 1.245 . S
C2777 C991 1.403 . S
C2792 C826 1.243 . S
