# Generated by pormake.
# Topology smk, (6)-cn, num edge types: 1
# Building blocks:
#     Node 0, Type 0, BuildingBlock: JUFBIX_clean_sbu_0, # of connection points: 6
#     Node 1, Type 0, BuildingBlock: JUFBIX_clean_sbu_0, # of connection points: 6
#     Node 2, Type 0, BuildingBlock: JUFBIX_clean_sbu_0, # of connection points: 6
#     Node 3, Type 0, BuildingBlock: JUFBIX_clean_sbu_0, # of connection points: 6
#     Node 4, Type 0, BuildingBlock: JUFBIX_clean_sbu_0, # of connection points: 6
#     Node 5, Type 0, BuildingBlock: JUFBIX_clean_sbu_0, # of connection points: 6
#     Edge 6, Type (0, 0), BuildingBlock: XIVTED_clean_linker_0, # of connection points: 2
#     Edge 7, Type (0, 0), BuildingBlock: XIVTED_clean_linker_0, # of connection points: 2
#     Edge 8, Type (0, 0), BuildingBlock: XIVTED_clean_linker_0, # of connection points: 2
#     Edge 9, Type (0, 0), BuildingBlock: XIVTED_clean_linker_0, # of connection points: 2
#     Edge 10, Type (0, 0), BuildingBlock: XIVTED_clean_linker_0, # of connection points: 2
#     Edge 11, Type (0, 0), BuildingBlock: XIVTED_clean_linker_0, # of connection points: 2
#     Edge 12, Type (0, 0), BuildingBlock: XIVTED_clean_linker_0, # of connection points: 2
#     Edge 13, Type (0, 0), BuildingBlock: XIVTED_clean_linker_0, # of connection points: 2
#     Edge 14, Type (0, 0), BuildingBlock: XIVTED_clean_linker_0, # of connection points: 2
#     Edge 15, Type (0, 0), BuildingBlock: XIVTED_clean_linker_0, # of connection points: 2
#     Edge 16, Type (0, 0), BuildingBlock: XIVTED_clean_linker_0, # of connection points: 2
#     Edge 17, Type (0, 0), BuildingBlock: XIVTED_clean_linker_0, # of connection points: 2
#     Edge 18, Type (0, 0), BuildingBlock: XIVTED_clean_linker_0, # of connection points: 2
#     Edge 19, Type (0, 0), BuildingBlock: XIVTED_clean_linker_0, # of connection points: 2
#     Edge 20, Type (0, 0), BuildingBlock: XIVTED_clean_linker_0, # of connection points: 2
#     Edge 21, Type (0, 0), BuildingBlock: XIVTED_clean_linker_0, # of connection points: 2
#     Edge 22, Type (0, 0), BuildingBlock: XIVTED_clean_linker_0, # of connection points: 2
#     Edge 23, Type (0, 0), BuildingBlock: XIVTED_clean_linker_0, # of connection points: 2
# Relax obj value: 0.367
# Max RMSD: 0.250
# Mean RMSD: 0.250
data_MOF--net-smk--node1-JUFBIX_clean_sbu_0--edge1-XIVTED_clean_linker_0
_symmetry_space_group_name_H-M    P1
_symmetry_Int_Tables_number       1
_symmetry_cell_setting            triclinic
loop_
_symmetry_equiv_pos_as_xyz
'x, y, z'
_cell_length_a     45.760078
_cell_length_b     45.811339
_cell_length_c     15.114212
_cell_angle_alpha  89.69821
_cell_angle_beta   89.9902
_cell_angle_gamma 119.90766
loop_
_atom_site_label
_atom_site_type_symbol
_atom_site_fract_x
_atom_site_fract_y
_atom_site_fract_z
_atom_type_partial_charge
Co0 Co 0.41582 0.18743 0.50336 0.0
C1 C 0.39619 0.11982 0.50937 0.0
Co2 Co 0.45885 0.17818 0.50401 0.0
C3 C 0.37612 0.21879 0.54776 0.0
C4 C 0.35381 0.1822 0.44503 0.0
N5 N 0.38046 0.19633 0.50016 0.0
N6 N 0.34798 0.21942 0.52376 0.0
C7 C 0.33392 0.19642 0.45911 0.0
H8 H 0.39365 0.23488 0.59765 0.0
H9 H 0.3493 0.16297 0.39704 0.0
C10 C 0.47947 0.24549 0.49461 0.0
N11 N 0.49381 0.16873 0.50684 0.0
C12 C 0.51955 0.17998 0.56491 0.0
C13 C 0.49738 0.14678 0.45526 0.0
N14 N 0.53891 0.16571 0.55225 0.0
C15 C 0.52504 0.14489 0.4829 0.0
C16 C 0.43681 0.18103 0.3356 0.0
O17 O 0.44788 0.23486 0.4968 0.0
O18 O 0.48981 0.22445 0.49933 0.0
O19 O 0.45851 0.17695 0.37797 0.0
O20 O 0.41564 0.18576 0.37825 0.0
O21 O 0.42788 0.13201 0.50825 0.0
H22 H 0.48051 0.13251 0.40217 0.0
H23 H 0.52329 0.19749 0.61735 0.0
O24 O 0.3843 0.13971 0.50815 0.0
O25 O 0.41636 0.18907 0.6293 0.0
O26 O 0.45877 0.17951 0.62913 0.0
C27 C 0.43785 0.18464 0.67171 0.0
H28 H 0.31071 0.19008 0.42502 0.0
H29 H 0.53413 0.12933 0.45405 0.0
Co30 Co 0.2014 0.40533 0.78425 0.0
C31 C 0.13356 0.38508 0.77996 0.0
Co32 Co 0.19168 0.448 0.78088 0.0
C33 C 0.23279 0.3655 0.7413 0.0
C34 C 0.19697 0.34414 0.84709 0.0
N35 N 0.21068 0.37026 0.78966 0.0
N36 N 0.2336 0.33761 0.76703 0.0
C37 C 0.21109 0.32415 0.83362 0.0
H38 H 0.24844 0.3825 0.68941 0.0
H39 H 0.17802 0.33999 0.89607 0.0
C40 C 0.25921 0.46925 0.78895 0.0
N41 N 0.18176 0.48258 0.776 0.0
C42 C 0.19271 0.50801 0.71653 0.0
C43 C 0.15967 0.48609 0.82755 0.0
N44 N 0.17813 0.52712 0.72834 0.0
C45 C 0.15741 0.5134 0.79854 0.0
C46 C 0.19492 0.42708 0.95068 0.0
O47 O 0.24882 0.43773 0.78906 0.0
O48 O 0.23795 0.47929 0.78322 0.0
O49 O 0.19069 0.44844 0.90688 0.0
O50 O 0.19975 0.40578 0.90943 0.0
O51 O 0.14554 0.41671 0.77914 0.0
H52 H 0.14557 0.46941 0.88164 0.0
H53 H 0.21026 0.51172 0.66382 0.0
O54 O 0.15371 0.37349 0.7812 0.0
O55 O 0.20304 0.40526 0.65836 0.0
O56 O 0.19277 0.44717 0.65573 0.0
C57 C 0.19823 0.42627 0.61453 0.0
H58 H 0.20496 0.30123 0.86931 0.0
H59 H 0.14168 0.52238 0.8271 0.0
Co60 Co 0.81472 0.21038 0.83228 0.0
C61 C 0.88223 0.25928 0.83898 0.0
Co62 Co 0.82316 0.26232 0.83417 0.0
C63 C 0.78483 0.13873 0.87371 0.0
C64 C 0.82486 0.15654 0.77854 0.0
N65 N 0.8072 0.16664 0.82867 0.0
N66 N 0.78818 0.11176 0.85402 0.0
C67 C 0.81333 0.12298 0.79403 0.0
H68 H 0.76706 0.13843 0.9215 0.0
H69 H 0.84508 0.17268 0.73392 0.0
C70 C 0.75598 0.21477 0.82432 0.0
N71 N 0.83192 0.30651 0.83677 0.0
C72 C 0.82171 0.32144 0.89648 0.0
C73 C 0.85312 0.33166 0.78243 0.0
N74 N 0.83597 0.35497 0.88204 0.0
C75 C 0.85561 0.36137 0.80989 0.0
C76 C 0.8212 0.23833 0.66507 0.0
O77 O 0.76708 0.19416 0.82545 0.0
O78 O 0.77663 0.24616 0.83005 0.0
O79 O 0.82458 0.26359 0.7081 0.0
O80 O 0.81693 0.21243 0.7071 0.0
O81 O 0.86956 0.27836 0.83787 0.0
H82 H 0.86666 0.32875 0.72764 0.0
H83 H 0.80509 0.30812 0.95139 0.0
O84 O 0.8627 0.22753 0.8376 0.0
O85 O 0.81249 0.20864 0.95816 0.0
O86 O 0.82159 0.2604 0.95937 0.0
C87 C 0.81658 0.23418 0.00126 0.0
H88 H 0.82269 0.10796 0.76319 0.0
H89 H 0.87087 0.38579 0.77912 0.0
Co90 Co 0.59798 0.77941 0.11823 0.0
C91 C 0.6164 0.73018 0.11402 0.0
Co92 Co 0.55451 0.72752 0.11647 0.0
C93 C 0.64059 0.85101 0.07652 0.0
C94 C 0.66177 0.83276 0.17361 0.0
N95 N 0.63437 0.82302 0.12235 0.0
N96 N 0.67101 0.87767 0.09682 0.0
C97 C 0.68427 0.86617 0.15802 0.0
H98 H 0.6236 0.85158 0.02763 0.0
H99 H 0.66533 0.81645 0.21895 0.0
C100 C 0.53503 0.77536 0.1243 0.0
N101 N 0.51896 0.68351 0.11333 0.0
C102 C 0.49386 0.66902 0.05344 0.0
C103 C 0.51475 0.65808 0.16699 0.0
N104 N 0.47438 0.63549 0.06705 0.0
C105 C 0.48743 0.62861 0.13885 0.0
C106 C 0.57596 0.75153 0.28551 0.0
O107 O 0.56673 0.79594 0.1239 0.0
O108 O 0.52434 0.74397 0.11893 0.0
O109 O 0.55412 0.72627 0.24251 0.0
O110 O 0.59771 0.77733 0.24345 0.0
O111 O 0.58467 0.71117 0.1146 0.0
H112 H 0.53108 0.66064 0.22171 0.0
H113 H 0.49075 0.68264 -0.00105 0.0
O114 O 0.62861 0.76194 0.11411 0.0
O115 O 0.59791 0.78117 -0.00763 0.0
O116 O 0.55539 0.72938 -0.00875 0.0
C117 C 0.5766 0.75556 0.94931 0.0
H118 H 0.70855 0.8809 0.18946 0.0
H119 H 0.47805 0.60403 0.16884 0.0
Co120 Co 0.7908 0.58489 0.16187 0.0
C121 C 0.74117 0.60291 0.16696 0.0
Co122 Co 0.73892 0.54137 0.16309 0.0
C123 C 0.86224 0.62759 0.20374 0.0
C124 C 0.84413 0.64905 0.10702 0.0
N125 N 0.83435 0.62143 0.15794 0.0
N126 N 0.88887 0.65816 0.18377 0.0
C127 C 0.87747 0.6716 0.1228 0.0
H128 H 0.86274 0.61042 0.25241 0.0
H129 H 0.82789 0.6527 0.06181 0.0
C130 C 0.78707 0.52221 0.15512 0.0
N131 N 0.69502 0.50564 0.16628 0.0
C132 C 0.6808 0.48033 0.22618 0.0
C133 C 0.66945 0.50126 0.11333 0.0
N134 N 0.64729 0.46053 0.21336 0.0
C135 C 0.64014 0.47359 0.14198 0.0
C136 C 0.76357 0.56369 -0.00564 0.0
O137 O 0.80764 0.55388 0.15561 0.0
O138 O 0.75563 0.51147 0.16033 0.0
O139 O 0.73811 0.54156 0.03702 0.0
O140 O 0.78916 0.58525 0.03675 0.0
O141 O 0.72226 0.57121 0.16556 0.0
H142 H 0.6718 0.51768 0.05877 0.0
H143 H 0.69461 0.4773 0.28016 0.0
O144 O 0.77299 0.61526 0.16662 0.0
O145 O 0.79212 0.5842 0.28779 0.0
O146 O 0.74033 0.54166 0.28825 0.0
C147 C 0.7663 0.56265 0.33052 0.0
H148 H 0.89222 0.69605 0.09167 0.0
H149 H 0.61549 0.46401 0.11264 0.0
Co150 Co 0.22104 0.80186 0.44654 0.0
C151 C 0.2698 0.86947 0.44128 0.0
Co152 Co 0.27316 0.81066 0.44373 0.0
C153 C 0.14942 0.77198 0.40631 0.0
C154 C 0.16688 0.81143 0.50205 0.0
N155 N 0.17721 0.79417 0.45123 0.0
N156 N 0.12228 0.77504 0.42673 0.0
C157 C 0.13328 0.79982 0.48708 0.0
H158 H 0.14932 0.75455 0.35807 0.0
H159 H 0.18289 0.83142 0.54678 0.0
C160 C 0.2257 0.74337 0.45295 0.0
N161 N 0.31736 0.81943 0.43986 0.0
C162 C 0.33192 0.80871 0.38036 0.0
C163 C 0.34276 0.84068 0.49273 0.0
N164 N 0.36549 0.82267 0.3935 0.0
C165 C 0.37229 0.84269 0.46457 0.0
C166 C 0.24891 0.80773 0.61323 0.0
O167 O 0.20494 0.7543 0.45262 0.0
O168 O 0.25709 0.76416 0.44696 0.0
O169 O 0.27432 0.81142 0.56974 0.0
O170 O 0.22297 0.80346 0.5717 0.0
O171 O 0.2891 0.85703 0.44118 0.0
H172 H 0.34013 0.85447 0.5471 0.0
H173 H 0.31829 0.79185 0.32666 0.0
O174 O 0.23805 0.84975 0.44212 0.0
O175 O 0.21944 0.80026 0.32071 0.0
O176 O 0.2714 0.80978 0.31856 0.0
C177 C 0.24515 0.80472 0.27714 0.0
H178 H 0.11808 0.80889 0.5185 0.0
H179 H 0.39684 0.85781 0.49424 0.0
H180 H 0.39385 0.1894 0.22661 0.0
H181 H 0.48073 0.17614 0.78073 0.0
H182 H 0.47886 0.17289 0.22168 0.0
H183 H 0.39605 0.19319 0.78566 0.0
H184 H 0.48049 0.17502 0.94207 0.0
H185 H 0.39416 0.19065 0.06526 0.0
C186 C 0.41257 0.18598 0.19161 0.0
C187 C 0.4364 0.18105 0.23781 0.0
C188 C 0.46197 0.17903 0.90795 0.0
C189 C 0.43691 0.18253 0.05273 0.0
C190 C 0.46209 0.1797 0.81572 0.0
C191 C 0.43832 0.18473 0.76951 0.0
C192 C 0.43791 0.18339 0.9546 0.0
C193 C 0.41482 0.18922 0.8185 0.0
C194 C 0.41274 0.18673 0.09937 0.0
C195 C 0.46003 0.17676 0.18883 0.0
N196 N 0.41519 0.18841 0.9084 0.0
N197 N 0.45969 0.17762 0.09893 0.0
H198 H 0.20792 0.38461 0.50361 0.0
H199 H 0.18586 0.46914 0.06156 0.0
H200 H 0.18879 0.46788 0.50252 0.0
H201 H 0.20397 0.38521 0.06267 0.0
H202 H 0.18694 0.46915 0.2233 0.0
H203 H 0.20696 0.38467 0.34185 0.0
C204 C 0.20357 0.40293 0.4694 0.0
C205 C 0.19839 0.42624 0.51671 0.0
C206 C 0.19066 0.45072 0.18814 0.0
C207 C 0.1972 0.42643 0.33162 0.0
C208 C 0.19002 0.45069 0.09578 0.0
C209 C 0.19485 0.42716 0.04848 0.0
C210 C 0.19619 0.42706 0.23356 0.0
C211 C 0.20013 0.40383 0.09635 0.0
C212 C 0.20299 0.40294 0.37703 0.0
C213 C 0.19287 0.44941 0.46884 0.0
N214 N 0.20068 0.4044 0.18617 0.0
N215 N 0.1924 0.44889 0.37902 0.0
H216 H 0.80828 0.18329 0.11338 0.0
H217 H 0.82882 0.28896 0.55301 0.0
H218 H 0.82466 0.28465 0.11217 0.0
H219 H 0.81358 0.18803 0.55421 0.0
H220 H 0.82733 0.28785 0.39133 0.0
H221 H 0.80967 0.18436 0.27507 0.0
C222 C 0.81209 0.20573 0.14707 0.0
C223 C 0.8164 0.23393 0.09911 0.0
C224 C 0.82435 0.26596 0.42698 0.0
C225 C 0.81811 0.23536 0.28418 0.0
C226 C 0.82524 0.2666 0.51931 0.0
C227 C 0.8213 0.23854 0.56725 0.0
C228 C 0.81946 0.23705 0.3822 0.0
C229 C 0.81672 0.21024 0.52002 0.0
C230 C 0.81293 0.20635 0.23941 0.0
C231 C 0.82125 0.26233 0.14635 0.0
N232 N 0.81589 0.21022 0.43019 0.0
N233 N 0.82201 0.26232 0.23618 0.0
H234 H 0.53301 0.70099 0.39777 0.0
H235 H 0.61907 0.80639 0.83698 0.0
H236 H 0.61869 0.80182 0.39613 0.0
H237 H 0.53425 0.70504 0.83866 0.0
H238 H 0.61906 0.80538 0.67525 0.0
H239 H 0.53296 0.70203 0.55949 0.0
C240 C 0.55184 0.72332 0.43138 0.0
C241 C 0.57587 0.75136 0.38331 0.0
C242 C 0.60044 0.78337 0.71103 0.0
C243 C 0.57592 0.75277 0.56837 0.0
C244 C 0.60041 0.78396 0.80339 0.0
C245 C 0.57665 0.75576 0.85148 0.0
C246 C 0.57653 0.75439 0.6664 0.0
C247 C 0.55307 0.72737 0.80438 0.0
C248 C 0.55179 0.72392 0.52373 0.0
C249 C 0.59967 0.77962 0.43042 0.0
N250 N 0.55363 0.72741 0.71454 0.0
N251 N 0.59907 0.7796 0.52025 0.0
H252 H 0.71533 0.5193 0.44013 0.0
H253 H 0.81433 0.60738 0.88477 0.0
H254 H 0.81623 0.60493 0.44393 0.0
H255 H 0.71394 0.52094 0.88101 0.0
H256 H 0.81531 0.60708 0.72344 0.0
H257 H 0.7144 0.51954 0.60144 0.0
C258 C 0.73735 0.53815 0.47487 0.0
C259 C 0.76592 0.56218 0.42834 0.0
C260 C 0.79305 0.58818 0.75781 0.0
C261 C 0.76493 0.5626 0.61341 0.0
C262 C 0.79243 0.58834 0.85003 0.0
C263 C 0.76399 0.56411 0.89656 0.0
C264 C 0.76502 0.56362 0.71151 0.0
C265 C 0.7364 0.54009 0.84791 0.0
C266 C 0.73676 0.53827 0.56709 0.0
C267 C 0.79367 0.58594 0.47702 0.0
N268 N 0.73762 0.54044 0.75802 0.0
N269 N 0.79246 0.58557 0.56691 0.0
H270 H 0.19408 0.79599 0.16589 0.0
H271 H 0.29973 0.8158 0.72443 0.0
H272 H 0.29587 0.81323 0.16544 0.0
H273 H 0.19837 0.79971 0.7249 0.0
H274 H 0.29877 0.81483 0.88618 0.0
H275 H 0.19502 0.79689 0.00414 0.0
C276 C 0.2166 0.79992 0.13183 0.0
C277 C 0.24494 0.80458 0.17932 0.0
C278 C 0.27675 0.81153 0.85087 0.0
C279 C 0.24621 0.80568 -0.00579 0.0
C280 C 0.2773 0.8121 0.75851 0.0
C281 C 0.24909 0.80781 0.71103 0.0
C282 C 0.24778 0.80661 0.89613 0.0
C283 C 0.2207 0.80312 0.75873 0.0
C284 C 0.21714 0.80046 0.03946 0.0
C285 C 0.27343 0.80956 0.13162 0.0
N286 N 0.22078 0.80262 0.84858 0.0
N287 N 0.27334 0.81 0.04177 0.0
H288 H 0.41541 0.07369 0.54063 0.0
H289 H 0.23855 0.90775 0.46042 0.0
H290 H 0.3276 0.0814 0.47538 0.0
H291 H 0.33629 0.91576 0.43366 0.0
H292 H 0.26693 0.96935 0.48117 0.0
H293 H 0.38253 1.01331 0.52394 0.0
C294 C 0.38905 0.06265 0.52302 0.0
C295 C 0.37437 0.08277 0.50826 0.0
C296 C 0.28191 0.9574 0.47016 0.0
C297 C 0.33631 1.01295 0.48811 0.0
C298 C 0.26582 0.92238 0.45815 0.0
C299 C 0.28506 0.90651 0.4459 0.0
C300 C 0.31732 0.97626 0.4708 0.0
C301 C 0.32028 0.92665 0.44358 0.0
C302 C 0.37026 0.02803 0.51313 0.0
C303 C 0.33991 0.06677 0.48695 0.0
N304 N 0.33513 0.96024 0.45648 0.0
N305 N 0.32195 0.03263 0.4769 0.0
H306 H 0.35242 0.24065 0.69299 0.0
H307 H 0.25307 0.34018 0.59625 0.0
H308 H 0.31445 0.24524 0.43537 0.0
H309 H 0.26014 0.30484 0.85589 0.0
H310 H 0.28449 0.3143 0.53551 0.0
H311 H 0.32756 0.27306 0.75325 0.0
C312 C 0.33915 0.24878 0.64905 0.0
C313 C 0.33525 0.24006 0.55926 0.0
C314 C 0.27927 0.31236 0.60584 0.0
C315 C 0.30688 0.27711 0.62737 0.0
C316 C 0.26155 0.32729 0.6405 0.0
C317 C 0.2538 0.32441 0.73106 0.0
C318 C 0.28973 0.29489 0.66241 0.0
C319 C 0.26517 0.3072 0.78551 0.0
C320 C 0.32481 0.26706 0.68346 0.0
C321 C 0.31759 0.25101 0.50522 0.0
N322 N 0.28258 0.29312 0.75041 0.0
N323 N 0.30409 0.26898 0.54003 0.0
H324 H 0.92762 0.3248 0.86777 0.0
H325 H 0.09565 0.31556 0.80025 0.0
H326 H 0.92163 0.22978 0.80916 0.0
H327 H 0.08677 0.40462 0.76953 0.0
H328 H 1.03379 0.28191 0.81863 0.0
H329 H 0.98824 0.3527 0.85379 0.0
C330 C 0.93908 0.30967 0.85212 0.0
C331 C 0.91938 0.27489 0.83852 0.0
C332 C 0.04563 0.3088 0.80734 0.0
C333 C 0.98951 0.30712 0.82151 0.0
C334 C 0.0808 0.32796 0.79671 0.0
C335 C 0.09649 0.36301 0.78398 0.0
C336 C 1.02644 0.32505 0.80606 0.0
C337 C 0.07605 0.3778 0.77992 0.0
C338 C 0.97385 0.32574 0.84379 0.0
C339 C 0.93592 0.2567 0.81972 0.0
N340 N 0.04234 0.35884 0.79145 0.0
N341 N 0.97021 0.2731 0.8112 0.0
H342 H 0.73769 0.91849 0.06886 0.0
H343 H 0.72296 0.07764 0.91113 0.0
H344 H 0.6415 0.91327 0.03888 0.0
H345 H 0.81221 0.06926 0.88164 0.0
H346 H 0.69278 1.01963 -0.03037 0.0
H347 H 0.76557 0.97585 0.01131 0.0
C348 C 0.72242 0.92951 0.05041 0.0
C349 C 0.68723 0.91112 0.05916 0.0
C350 C 0.71895 0.03056 0.95007 0.0
C351 C 0.71909 0.9771 -0.00742 0.0
C352 C 0.73621 0.06368 0.91737 0.0
C353 C 0.77009 0.07822 0.89102 0.0
C354 C 0.73591 1.01216 0.95754 0.0
C355 C 0.78601 0.05894 0.89982 0.0
C356 C 0.73835 0.96226 0.01701 0.0
C357 C 0.66868 0.92654 0.03266 0.0
N358 N 0.76886 0.02707 0.93247 0.0
N359 N 0.68486 0.95879 0.00103 0.0
H360 H 0.67501 0.58216 0.19003 0.0
H361 H 0.68599 0.76067 0.12933 0.0
H362 H 0.77074 0.672 0.14155 0.0
H363 H 0.59566 0.6636 0.10738 0.0
H364 H 0.71904 0.73173 0.14547 0.0
H365 H 0.64707 0.61489 0.17712 0.0
C366 C 0.69028 0.60892 0.17679 0.0
C367 C 0.72532 0.62426 0.16598 0.0
C368 C 0.692 0.717 0.13666 0.0
C369 C 0.69305 0.66225 0.15025 0.0
C370 C 0.67317 0.73343 0.1273 0.0
C371 C 0.63796 0.71455 0.11748 0.0
C372 C 0.6753 0.6816 0.13686 0.0
C373 C 0.62265 0.67934 0.11536 0.0
C374 C 0.6742 0.62766 0.16909 0.0
C375 C 0.74365 0.65918 0.15002 0.0
N376 N 0.64133 0.66417 0.12539 0.0
N377 N 0.72724 0.6771 0.14218 0.0
H378 H 0.92924 0.72466 0.21281 0.0
H379 H 0.08867 0.71025 0.36848 0.0
H380 H 0.92462 0.62874 0.24092 0.0
H381 H 0.07942 0.79876 0.4009 0.0
H382 H 1.03081 0.68016 0.31005 0.0
H383 H 0.98643 0.7525 0.27068 0.0
C384 C 0.94036 0.70944 0.23093 0.0
C385 C 0.9222 0.67434 0.22157 0.0
C386 C 0.04152 0.70615 0.33025 0.0
C387 C 0.98796 0.70614 0.28846 0.0
C388 C 0.07455 0.72336 0.36292 0.0
C389 C 0.0888 0.75701 0.39002 0.0
C390 C 1.02292 0.72292 0.32358 0.0
C391 C 0.06932 0.77274 0.38209 0.0
C392 C 0.973 0.72534 0.2645 0.0
C393 C 0.93772 0.65585 0.24762 0.0
N394 N 0.03754 0.75564 0.34944 0.0
N395 N 0.96986 0.67199 0.27942 0.0
H396 H 0.46703 0.29527 0.43733 0.0
H397 H 0.66097 0.42004 0.31647 0.0
H398 H 0.54803 0.27678 0.5052 0.0
H399 H 0.57991 0.43616 0.23275 0.0
H400 H 0.6206 0.37114 0.40223 0.0
H401 H 0.50866 0.35087 0.38019 0.0
C402 C 0.49357 0.30314 0.44178 0.0
C403 C 0.50404 0.2812 0.47519 0.0
C404 C 0.61165 0.38547 0.36542 0.0
C405 C 0.55173 0.34451 0.40898 0.0
C406 C 0.63476 0.41351 0.3166 0.0
C407 C 0.62386 0.43215 0.26647 0.0
C408 C 0.5773 0.37589 0.36428 0.0
C409 C 0.58942 0.4222 0.2688 0.0
C410 C 0.51732 0.33478 0.40859 0.0
C411 C 0.53877 0.2927 0.47913 0.0
N412 N 0.56737 0.39469 0.31648 0.0
N413 N 0.56131 0.32339 0.44564 0.0
H414 H 0.23267 0.56849 0.6275 0.0
H415 H 0.16358 0.69378 0.51135 0.0
H416 H 0.13478 0.55115 0.70841 0.0
H417 H 0.26251 0.71162 0.43956 0.0
H418 H 0.14951 0.63794 0.5671 0.0
H419 H 0.24122 0.61769 0.54334 0.0
C420 C 0.21282 0.57479 0.62707 0.0
C421 C 0.18306 0.55569 0.67597 0.0
C422 C 0.17414 0.65394 0.53813 0.0
C423 C 0.19284 0.6124 0.58001 0.0
C424 C 0.18211 0.68574 0.50575 0.0
C425 C 0.21439 0.70755 0.47163 0.0
C426 C 0.19865 0.64397 0.53627 0.0
C427 C 0.23742 0.6958 0.46621 0.0
C428 C 0.21777 0.60303 0.57915 0.0
C429 C 0.1584 0.56543 0.67332 0.0
N430 N 0.22922 0.665 0.49898 0.0
N431 N 0.1639 0.59317 0.62659 0.0
H432 H 0.70682 0.15272 0.76629 0.0
H433 H 0.58022 0.22037 0.65111 0.0
H434 H 0.72379 0.25118 0.83655 0.0
H435 H 0.56371 0.12296 0.57129 0.0
H436 H 0.62973 0.22934 0.73374 0.0
H437 H 0.65095 0.13836 0.71065 0.0
C438 C 0.69858 0.17108 0.77154 0.0
C439 C 0.72015 0.20332 0.80528 0.0
C440 C 0.61519 0.20591 0.69848 0.0
C441 C 0.65654 0.18724 0.74081 0.0
C442 C 0.58677 0.20071 0.65143 0.0
C443 C 0.56778 0.17096 0.60336 0.0
C444 C 0.62487 0.18122 0.69759 0.0
C445 C 0.57788 0.14657 0.60579 0.0
C446 C 0.66678 0.16296 0.73923 0.0
C447 C 0.70816 0.22614 0.81024 0.0
N448 N 0.60578 0.1523 0.65171 0.0
N449 N 0.67734 0.21778 0.77761 0.0
H450 H 0.45164 0.56855 0.04835 0.0
H451 H 0.29028 0.53759 0.77138 0.0
H452 H 0.43294 0.64794 -0.03548 0.0
H453 H 0.30915 0.45781 0.85033 0.0
H454 H 0.34566 0.57884 0.82693 0.0
H455 H 0.40243 0.52824 -0.03516 0.0
C456 C 0.43718 0.57755 0.01258 0.0
C457 C 0.44629 0.61172 0.01449 0.0
C458 C 0.33793 0.55236 0.83123 0.0
C459 C 0.38999 0.5656 0.91755 0.0
C460 C 0.3063 0.52874 0.79922 0.0
C461 C 0.2949 0.49414 0.80703 0.0
C462 C 0.35831 0.54137 0.87216 0.0
C463 C 0.31687 0.48421 0.84317 0.0
C464 C 0.4092 0.55451 -0.03577 0.0
C465 C 0.42699 0.62194 -0.03512 0.0
N466 N 0.34736 0.50771 0.87548 0.0
N467 N 0.39963 0.59896 0.91908 0.0
H468 H 0.75167 0.45424 0.18011 0.0
H469 H 0.88007 0.42216 0.89652 0.0
H470 H 0.84797 0.5342 0.08792 0.0
H471 H 0.78294 0.34327 -0.0127 0.0
H472 H 0.87158 0.46308 -0.02144 0.0
H473 H 0.76611 0.41303 0.12582 0.0
C474 C 0.77613 0.46316 0.14957 0.0
C475 C 0.79853 0.49775 0.13772 0.0
C476 C 0.85221 0.43679 -0.01902 0.0
C477 C 0.81503 0.45052 0.07396 0.0
C478 C 0.8569 0.41338 0.93348 0.0
C479 C 0.83198 0.37915 0.93391 0.0
C480 C 0.82232 0.42601 0.02928 0.0
C481 C 0.80288 0.36928 -0.01493 0.0
C482 C 0.7843 0.43956 0.11827 0.0
C483 C 0.82993 0.50779 0.09829 0.0
N484 N 0.79877 0.39261 0.03006 0.0
N485 N 0.83708 0.48425 0.06671 0.0
H486 H 0.54744 0.83721 0.18319 0.0
H487 H 0.35257 0.76897 0.29085 0.0
H488 H 0.46662 0.73912 0.10833 0.0
H489 H 0.43297 0.86564 0.37636 0.0
H490 H 0.39357 0.7606 0.20816 0.0
H491 H 0.50552 0.85133 0.23717 0.0
C492 C 0.52091 0.81889 0.17654 0.0
C493 C 0.51055 0.78681 0.14207 0.0
C494 C 0.40225 0.78374 0.24467 0.0
C495 C 0.46251 0.80259 0.20467 0.0
C496 C 0.37876 0.78859 0.29173 0.0
C497 C 0.38927 0.81792 0.34157 0.0
C498 C 0.43658 0.80837 0.24731 0.0
C499 C 0.42372 0.84232 0.34056 0.0
C500 C 0.49699 0.82687 0.20792 0.0
C501 C 0.4758 0.76404 0.13531 0.0
N502 N 0.44613 0.83692 0.29465 0.0
N503 N 0.4531 0.77224 0.16709 0.0
loop_
_geom_bond_atom_site_label_1
_geom_bond_atom_site_label_2
_geom_bond_distance
_geom_bond_site_symmetry_2
_ccdc_geom_bond_type
Co0 N5 2.057 . S
Co0 O17 2.021 . S
Co0 O20 2.062 . S
Co0 O24 2.117 . S
Co0 O25 2.020 . S
C1 O21 1.259 . S
C1 O24 1.258 . S
Co2 N11 2.057 . S
Co2 O18 2.117 . S
Co2 O19 2.020 . S
Co2 O21 2.021 . S
Co2 O26 2.062 . S
C3 N5 1.316 . S
C3 N6 1.347 . S
C3 H8 0.931 . S
C4 N5 1.375 . S
C4 C7 1.350 . S
C4 H9 0.930 . S
N5 Co0 2.057 . S
N5 C3 1.316 . S
N5 C4 1.375 . S
N6 C3 1.347 . S
N6 C7 1.373 . S
C7 C4 1.350 . S
C7 N6 1.373 . S
C7 H28 0.931 . S
H8 C3 0.931 . S
H9 C4 0.930 . S
C10 O17 1.259 . S
C10 O18 1.258 . S
N11 Co2 2.057 . S
N11 C12 1.316 . S
N11 C13 1.375 . S
C12 N11 1.316 . S
C12 N14 1.347 . S
C12 H23 0.931 . S
C13 N11 1.375 . S
C13 C15 1.350 . S
C13 H22 0.930 . S
N14 C12 1.347 . S
N14 C15 1.373 . S
C15 C13 1.350 . S
C15 N14 1.373 . S
C15 H29 0.931 . S
C16 O19 1.256 . S
C16 O20 1.255 . S
O17 Co0 2.021 . S
O17 C10 1.259 . S
O18 Co2 2.117 . S
O18 C10 1.258 . S
O19 Co2 2.020 . S
O19 C16 1.256 . S
O20 Co0 2.062 . S
O20 C16 1.255 . S
O21 C1 1.259 . S
O21 Co2 2.021 . S
H22 C13 0.930 . S
H23 C12 0.931 . S
O24 Co0 2.117 . S
O24 C1 1.258 . S
O25 Co0 2.020 . S
O25 C27 1.256 . S
O26 Co2 2.062 . S
O26 C27 1.255 . S
C27 O25 1.256 . S
C27 O26 1.255 . S
H28 C7 0.931 . S
H29 C15 0.931 . S
Co30 N35 2.057 . S
Co30 O47 2.021 . S
Co30 O50 2.062 . S
Co30 O54 2.117 . S
Co30 O55 2.020 . S
C31 O51 1.259 . S
C31 O54 1.258 . S
Co32 N41 2.057 . S
Co32 O48 2.117 . S
Co32 O49 2.020 . S
Co32 O51 2.021 . S
Co32 O56 2.062 . S
C33 N35 1.316 . S
C33 N36 1.347 . S
C33 H38 0.931 . S
C34 N35 1.375 . S
C34 C37 1.350 . S
C34 H39 0.930 . S
N35 Co30 2.057 . S
N35 C33 1.316 . S
N35 C34 1.375 . S
N36 C33 1.347 . S
N36 C37 1.373 . S
C37 C34 1.350 . S
C37 N36 1.373 . S
C37 H58 0.931 . S
H38 C33 0.931 . S
H39 C34 0.930 . S
C40 O47 1.259 . S
C40 O48 1.258 . S
N41 Co32 2.057 . S
N41 C42 1.316 . S
N41 C43 1.375 . S
C42 N41 1.316 . S
C42 N44 1.347 . S
C42 H53 0.931 . S
C43 N41 1.375 . S
C43 C45 1.350 . S
C43 H52 0.930 . S
N44 C42 1.347 . S
N44 C45 1.373 . S
C45 C43 1.350 . S
C45 N44 1.373 . S
C45 H59 0.931 . S
C46 O49 1.256 . S
C46 O50 1.255 . S
O47 Co30 2.021 . S
O47 C40 1.259 . S
O48 Co32 2.117 . S
O48 C40 1.258 . S
O49 Co32 2.020 . S
O49 C46 1.256 . S
O50 Co30 2.062 . S
O50 C46 1.255 . S
O51 C31 1.259 . S
O51 Co32 2.021 . S
H52 C43 0.930 . S
H53 C42 0.931 . S
O54 Co30 2.117 . S
O54 C31 1.258 . S
O55 Co30 2.020 . S
O55 C57 1.256 . S
O56 Co32 2.062 . S
O56 C57 1.255 . S
C57 O55 1.256 . S
C57 O56 1.255 . S
H58 C37 0.931 . S
H59 C45 0.931 . S
Co60 N65 2.057 . S
Co60 O77 2.021 . S
Co60 O80 2.062 . S
Co60 O84 2.117 . S
Co60 O85 2.020 1_556 S
C61 O81 1.259 . S
C61 O84 1.258 . S
Co62 N71 2.057 . S
Co62 O78 2.117 . S
Co62 O79 2.020 . S
Co62 O81 2.021 . S
Co62 O86 2.062 1_556 S
C63 N65 1.316 . S
C63 N66 1.347 . S
C63 H68 0.931 . S
C64 N65 1.375 . S
C64 C67 1.350 . S
C64 H69 0.930 . S
N65 Co60 2.057 . S
N65 C63 1.316 . S
N65 C64 1.375 . S
N66 C63 1.347 . S
N66 C67 1.373 . S
C67 C64 1.350 . S
C67 N66 1.373 . S
C67 H88 0.931 . S
H68 C63 0.931 . S
H69 C64 0.930 . S
C70 O77 1.259 . S
C70 O78 1.258 . S
N71 Co62 2.057 . S
N71 C72 1.316 1_556 S
N71 C73 1.375 . S
C72 N71 1.316 1_554 S
C72 N74 1.347 . S
C72 H83 0.931 . S
C73 N71 1.375 . S
C73 C75 1.349 1_556 S
C73 H82 0.930 . S
N74 C72 1.347 . S
N74 C75 1.375 . S
C75 C73 1.349 1_554 S
C75 N74 1.375 . S
C75 H89 0.931 . S
C76 O79 1.256 . S
C76 O80 1.255 . S
O77 Co60 2.021 . S
O77 C70 1.259 . S
O78 Co62 2.117 . S
O78 C70 1.258 . S
O79 Co62 2.020 . S
O79 C76 1.256 . S
O80 Co60 2.062 . S
O80 C76 1.255 . S
O81 C61 1.259 . S
O81 Co62 2.021 . S
H82 C73 0.930 . S
H83 C72 0.931 . S
O84 Co60 2.117 . S
O84 C61 1.258 . S
O85 Co60 2.020 1_554 S
O85 C87 1.256 . S
O86 Co62 2.062 1_554 S
O86 C87 1.255 . S
C87 O85 1.256 . S
C87 O86 1.255 . S
H88 C67 0.931 . S
H89 C75 0.931 . S
Co90 N95 2.057 . S
Co90 O107 2.021 . S
Co90 O110 2.062 . S
Co90 O114 2.117 . S
Co90 O115 2.020 1_554 S
C91 O111 1.259 . S
C91 O114 1.258 . S
Co92 N101 2.057 . S
Co92 O108 2.117 . S
Co92 O109 2.020 . S
Co92 O111 2.021 . S
Co92 O116 2.062 1_554 S
C93 N95 1.316 . S
C93 N96 1.347 . S
C93 H98 0.931 . S
C94 N95 1.375 . S
C94 C97 1.350 . S
C94 H99 0.930 . S
N95 Co90 2.057 . S
N95 C93 1.316 . S
N95 C94 1.375 . S
N96 C93 1.347 . S
N96 C97 1.373 . S
C97 C94 1.350 . S
C97 N96 1.373 . S
C97 H118 0.931 . S
H98 C93 0.931 . S
H99 C94 0.930 . S
C100 O107 1.259 . S
C100 O108 1.258 . S
N101 Co92 2.057 . S
N101 C102 1.316 . S
N101 C103 1.375 . S
C102 N101 1.316 . S
C102 N104 1.347 . S
C102 H113 0.931 . S
C103 N101 1.375 . S
C103 C105 1.350 . S
C103 H112 0.930 . S
N104 C102 1.347 . S
N104 C105 1.373 . S
C105 C103 1.350 . S
C105 N104 1.373 . S
C105 H119 0.931 . S
C106 O109 1.256 . S
C106 O110 1.255 . S
O107 Co90 2.021 . S
O107 C100 1.259 . S
O108 Co92 2.117 . S
O108 C100 1.258 . S
O109 Co92 2.020 . S
O109 C106 1.256 . S
O110 Co90 2.062 . S
O110 C106 1.255 . S
O111 C91 1.259 . S
O111 Co92 2.021 . S
H112 C103 0.930 . S
H113 C102 0.931 . S
O114 Co90 2.117 . S
O114 C91 1.258 . S
O115 Co90 2.020 1_556 S
O115 C117 1.256 . S
O116 Co92 2.062 1_556 S
O116 C117 1.255 . S
C117 O115 1.256 . S
C117 O116 1.255 . S
H118 C97 0.931 . S
H119 C105 0.931 . S
Co120 N125 2.057 . S
Co120 O137 2.021 . S
Co120 O140 2.062 . S
Co120 O144 2.117 . S
Co120 O145 2.020 . S
C121 O141 1.259 . S
C121 O144 1.258 . S
Co122 N131 2.057 . S
Co122 O138 2.117 . S
Co122 O139 2.020 . S
Co122 O141 2.021 . S
Co122 O146 2.062 . S
C123 N125 1.316 . S
C123 N126 1.347 . S
C123 H128 0.931 . S
C124 N125 1.375 . S
C124 C127 1.350 . S
C124 H129 0.930 . S
N125 Co120 2.057 . S
N125 C123 1.316 . S
N125 C124 1.375 . S
N126 C123 1.347 . S
N126 C127 1.373 . S
C127 C124 1.350 . S
C127 N126 1.373 . S
C127 H148 0.931 . S
H128 C123 0.931 . S
H129 C124 0.930 . S
C130 O137 1.259 . S
C130 O138 1.258 . S
N131 Co122 2.057 . S
N131 C132 1.316 . S
N131 C133 1.375 . S
C132 N131 1.316 . S
C132 N134 1.347 . S
C132 H143 0.931 . S
C133 N131 1.375 . S
C133 C135 1.350 . S
C133 H142 0.930 . S
N134 C132 1.347 . S
N134 C135 1.373 . S
C135 C133 1.350 . S
C135 N134 1.373 . S
C135 H149 0.931 . S
C136 O139 1.256 . S
C136 O140 1.255 . S
O137 Co120 2.021 . S
O137 C130 1.259 . S
O138 Co122 2.117 . S
O138 C130 1.258 . S
O139 Co122 2.020 . S
O139 C136 1.256 . S
O140 Co120 2.062 . S
O140 C136 1.255 . S
O141 C121 1.259 . S
O141 Co122 2.021 . S
H142 C133 0.930 . S
H143 C132 0.931 . S
O144 Co120 2.117 . S
O144 C121 1.258 . S
O145 Co120 2.020 . S
O145 C147 1.256 . S
O146 Co122 2.062 . S
O146 C147 1.255 . S
C147 O145 1.256 . S
C147 O146 1.255 . S
H148 C127 0.931 . S
H149 C135 0.931 . S
Co150 N155 2.057 . S
Co150 O167 2.021 . S
Co150 O170 2.062 . S
Co150 O174 2.117 . S
Co150 O175 2.020 . S
C151 O171 1.259 . S
C151 O174 1.258 . S
Co152 N161 2.057 . S
Co152 O168 2.117 . S
Co152 O169 2.020 . S
Co152 O171 2.021 . S
Co152 O176 2.062 . S
C153 N155 1.316 . S
C153 N156 1.347 . S
C153 H158 0.931 . S
C154 N155 1.375 . S
C154 C157 1.350 . S
C154 H159 0.930 . S
N155 Co150 2.057 . S
N155 C153 1.316 . S
N155 C154 1.375 . S
N156 C153 1.347 . S
N156 C157 1.373 . S
C157 C154 1.350 . S
C157 N156 1.373 . S
C157 H178 0.931 . S
H158 C153 0.931 . S
H159 C154 0.930 . S
C160 O167 1.259 . S
C160 O168 1.258 . S
N161 Co152 2.057 . S
N161 C162 1.316 . S
N161 C163 1.375 . S
C162 N161 1.316 . S
C162 N164 1.347 . S
C162 H173 0.931 . S
C163 N161 1.375 . S
C163 C165 1.350 . S
C163 H172 0.930 . S
N164 C162 1.347 . S
N164 C165 1.373 . S
C165 C163 1.350 . S
C165 N164 1.373 . S
C165 H179 0.931 . S
C166 O169 1.256 . S
C166 O170 1.255 . S
O167 Co150 2.021 . S
O167 C160 1.259 . S
O168 Co152 2.117 . S
O168 C160 1.258 . S
O169 Co152 2.020 . S
O169 C166 1.256 . S
O170 Co150 2.062 . S
O170 C166 1.255 . S
O171 C151 1.259 . S
O171 Co152 2.021 . S
H172 C163 0.930 . S
H173 C162 0.931 . S
O174 Co150 2.117 . S
O174 C151 1.258 . S
O175 Co150 2.020 . S
O175 C177 1.256 . S
O176 Co152 2.062 . S
O176 C177 1.255 . S
C177 O175 1.256 . S
C177 O176 1.255 . S
H178 C157 0.931 . S
H179 C165 0.931 . S
H180 C186 0.930 . S
H181 C190 0.930 . S
H182 C195 0.929 . S
H183 C193 0.929 . S
H184 C188 0.929 . S
H185 C194 0.929 . S
C186 H180 0.930 . S
C186 C187 1.367 . S
C186 C194 1.378 . S
C187 C186 1.367 . S
C187 C195 1.433 . S
C188 H184 0.929 . S
C188 C190 1.378 1_554 S
C188 C192 1.350 . S
C189 C192 1.463 . S
C189 C194 1.350 . S
C189 N197 1.427 . S
C190 H181 0.930 . S
C190 C188 1.378 1_556 S
C190 C191 1.367 . S
C191 C190 1.367 . S
C191 C193 1.433 . S
C192 C188 1.350 . S
C192 C189 1.463 . S
C192 N196 1.427 . S
C193 H183 0.929 . S
C193 C191 1.433 . S
C193 N196 1.384 1_556 S
C194 H185 0.929 . S
C194 C186 1.378 . S
C194 C189 1.350 . S
C195 H182 0.929 . S
C195 C187 1.433 . S
C195 N197 1.384 . S
N196 C192 1.427 . S
N196 C193 1.384 1_554 S
N197 C189 1.427 . S
N197 C195 1.384 . S
H198 C204 0.930 . S
H199 C208 0.930 1_556 S
H200 C213 0.929 . S
H201 C211 0.929 1_556 S
H202 C206 0.929 . S
H203 C212 0.929 . S
C204 H198 0.930 . S
C204 C205 1.367 . S
C204 C212 1.378 . S
C205 C204 1.367 . S
C205 C213 1.433 . S
C206 H202 0.929 . S
C206 C208 1.378 . S
C206 C210 1.350 . S
C207 C210 1.463 . S
C207 C212 1.350 . S
C207 N215 1.427 . S
C208 H199 0.930 1_554 S
C208 C206 1.378 . S
C208 C209 1.367 1_554 S
C209 C208 1.367 1_556 S
C209 C211 1.433 1_556 S
C210 C206 1.350 . S
C210 C207 1.463 . S
C210 N214 1.427 . S
C211 H201 0.929 1_554 S
C211 C209 1.433 1_554 S
C211 N214 1.384 . S
C212 H203 0.929 . S
C212 C204 1.378 . S
C212 C207 1.350 . S
C213 H200 0.929 . S
C213 C205 1.433 . S
C213 N215 1.384 . S
N214 C210 1.427 . S
N214 C211 1.384 . S
N215 C207 1.427 . S
N215 C213 1.384 . S
H216 C222 0.930 . S
H217 C226 0.930 . S
H218 C231 0.929 . S
H219 C229 0.929 . S
H220 C224 0.929 . S
H221 C230 0.929 . S
C222 H216 0.930 . S
C222 C223 1.367 . S
C222 C230 1.378 . S
C223 C222 1.367 . S
C223 C231 1.433 . S
C224 H220 0.929 . S
C224 C226 1.378 . S
C224 C228 1.350 . S
C225 C228 1.463 . S
C225 C230 1.350 . S
C225 N233 1.427 . S
C226 H217 0.930 . S
C226 C224 1.378 . S
C226 C227 1.367 . S
C227 C226 1.367 . S
C227 C229 1.433 . S
C228 C224 1.350 . S
C228 C225 1.463 . S
C228 N232 1.427 . S
C229 H219 0.929 . S
C229 C227 1.433 . S
C229 N232 1.384 . S
C230 H221 0.929 . S
C230 C222 1.378 . S
C230 C225 1.350 . S
C231 H218 0.929 . S
C231 C223 1.433 . S
C231 N233 1.384 . S
N232 C228 1.427 . S
N232 C229 1.384 . S
N233 C225 1.427 . S
N233 C231 1.384 . S
H234 C240 0.930 . S
H235 C244 0.930 . S
H236 C249 0.929 . S
H237 C247 0.929 . S
H238 C242 0.929 . S
H239 C248 0.929 . S
C240 H234 0.930 . S
C240 C241 1.367 . S
C240 C248 1.378 . S
C241 C240 1.367 . S
C241 C249 1.433 . S
C242 H238 0.929 . S
C242 C244 1.378 . S
C242 C246 1.350 . S
C243 C246 1.463 . S
C243 C248 1.350 . S
C243 N251 1.427 . S
C244 H235 0.930 . S
C244 C242 1.378 . S
C244 C245 1.367 . S
C245 C244 1.367 . S
C245 C247 1.433 . S
C246 C242 1.350 . S
C246 C243 1.463 . S
C246 N250 1.427 . S
C247 H237 0.929 . S
C247 C245 1.433 . S
C247 N250 1.384 . S
C248 H239 0.929 . S
C248 C240 1.378 . S
C248 C243 1.350 . S
C249 H236 0.929 . S
C249 C241 1.433 . S
C249 N251 1.384 . S
N250 C246 1.427 . S
N250 C247 1.384 . S
N251 C243 1.427 . S
N251 C249 1.384 . S
H252 C258 0.930 . S
H253 C262 0.930 . S
H254 C267 0.929 . S
H255 C265 0.929 . S
H256 C260 0.929 . S
H257 C266 0.929 . S
C258 H252 0.930 . S
C258 C259 1.367 . S
C258 C266 1.378 . S
C259 C258 1.367 . S
C259 C267 1.433 . S
C260 H256 0.929 . S
C260 C262 1.378 1_556 S
C260 C264 1.350 . S
C261 C264 1.463 . S
C261 C266 1.350 . S
C261 N269 1.427 . S
C262 H253 0.930 . S
C262 C260 1.378 1_554 S
C262 C263 1.367 . S
C263 C262 1.367 . S
C263 C265 1.433 . S
C264 C260 1.350 . S
C264 C261 1.463 . S
C264 N268 1.427 . S
C265 H255 0.929 . S
C265 C263 1.433 . S
C265 N268 1.384 1_554 S
C266 H257 0.929 . S
C266 C258 1.378 . S
C266 C261 1.350 . S
C267 H254 0.929 . S
C267 C259 1.433 . S
C267 N269 1.384 . S
N268 C264 1.427 . S
N268 C265 1.384 1_556 S
N269 C261 1.427 . S
N269 C267 1.384 . S
H270 C276 0.930 . S
H271 C280 0.930 . S
H272 C285 0.929 . S
H273 C283 0.929 . S
H274 C278 0.929 . S
H275 C284 0.929 . S
C276 H270 0.930 . S
C276 C277 1.367 . S
C276 C284 1.378 1_554 S
C277 C276 1.367 . S
C277 C285 1.433 . S
C278 H274 0.929 . S
C278 C280 1.378 . S
C278 C282 1.350 . S
C279 C282 1.463 . S
C279 C284 1.350 . S
C279 N287 1.427 . S
C280 H271 0.930 . S
C280 C278 1.378 . S
C280 C281 1.367 . S
C281 C280 1.367 . S
C281 C283 1.433 . S
C282 C278 1.350 . S
C282 C279 1.463 . S
C282 N286 1.427 . S
C283 H273 0.929 . S
C283 C281 1.433 . S
C283 N286 1.384 . S
C284 H275 0.929 . S
C284 C276 1.378 1_556 S
C284 C279 1.350 . S
C285 H272 0.929 . S
C285 C277 1.433 . S
C285 N287 1.384 1_554 S
N286 C282 1.427 . S
N286 C283 1.384 . S
N287 C279 1.427 . S
N287 C285 1.384 1_556 S
H288 C294 0.930 . S
H289 C298 0.930 . S
H290 C303 0.929 . S
H291 C301 0.929 . S
H292 C296 0.929 . S
H293 C302 0.929 . S
C294 H288 0.930 . S
C294 C295 1.367 . S
C294 C302 1.378 . S
C295 C294 1.367 . S
C295 C303 1.433 . S
C296 H292 0.929 . S
C296 C298 1.378 . S
C296 C300 1.350 . S
C297 C300 1.463 . S
C297 C302 1.350 1_565 S
C297 N305 1.427 . S
C298 H289 0.930 . S
C298 C296 1.378 . S
C298 C299 1.367 . S
C299 C298 1.367 . S
C299 C301 1.433 . S
C300 C296 1.350 . S
C300 C297 1.463 . S
C300 N304 1.427 . S
C301 H291 0.929 . S
C301 C299 1.433 . S
C301 N304 1.384 . S
C302 H293 0.929 . S
C302 C294 1.378 . S
C302 C297 1.350 1_545 S
C303 H290 0.929 . S
C303 C295 1.433 . S
C303 N305 1.384 1_545 S
N304 C300 1.427 . S
N304 C301 1.384 . S
N305 C297 1.427 . S
N305 C303 1.384 1_565 S
H306 C312 0.930 . S
H307 C316 0.930 . S
H308 C321 0.929 . S
H309 C319 0.929 . S
H310 C314 0.929 . S
H311 C320 0.929 . S
C312 H306 0.930 . S
C312 C313 1.367 . S
C312 C320 1.378 . S
C313 C312 1.367 . S
C313 C321 1.433 . S
C314 H310 0.929 . S
C314 C316 1.378 . S
C314 C318 1.350 . S
C315 C318 1.463 . S
C315 C320 1.350 . S
C315 N323 1.427 . S
C316 H307 0.930 . S
C316 C314 1.378 . S
C316 C317 1.367 . S
C317 C316 1.367 . S
C317 C319 1.433 . S
C318 C314 1.350 . S
C318 C315 1.463 . S
C318 N322 1.427 . S
C319 H309 0.929 . S
C319 C317 1.433 . S
C319 N322 1.384 . S
C320 H311 0.929 . S
C320 C312 1.378 . S
C320 C315 1.350 . S
C321 H308 0.929 . S
C321 C313 1.433 . S
C321 N323 1.384 . S
N322 C318 1.427 . S
N322 C319 1.384 . S
N323 C315 1.427 . S
N323 C321 1.384 . S
H324 C330 0.930 1_554 S
H325 C334 0.930 . S
H326 C339 0.929 . S
H327 C337 0.929 . S
H328 C332 0.929 . S
H329 C338 0.929 . S
C330 H324 0.930 1_556 S
C330 C331 1.367 . S
C330 C338 1.378 . S
C331 C330 1.367 . S
C331 C339 1.433 . S
C332 H328 0.929 . S
C332 C334 1.378 1_655 S
C332 C336 1.350 . S
C333 C336 1.463 . S
C333 C338 1.350 . S
C333 N341 1.427 . S
C334 H325 0.930 . S
C334 C332 1.378 1_455 S
C334 C335 1.367 . S
C335 C334 1.367 . S
C335 C337 1.433 . S
C336 C332 1.350 . S
C336 C333 1.463 . S
C336 N340 1.427 1_655 S
C337 H327 0.929 . S
C337 C335 1.433 . S
C337 N340 1.384 . S
C338 H329 0.929 . S
C338 C330 1.378 . S
C338 C333 1.350 . S
C339 H326 0.929 . S
C339 C331 1.433 . S
C339 N341 1.384 . S
N340 C336 1.427 1_455 S
N340 C337 1.384 . S
N341 C333 1.427 . S
N341 C339 1.384 . S
H342 C348 0.930 . S
H343 C352 0.930 . S
H344 C357 0.929 . S
H345 C355 0.929 . S
H346 C350 0.929 1_564 S
H347 C356 0.929 . S
C348 H342 0.930 . S
C348 C349 1.367 . S
C348 C356 1.378 . S
C349 C348 1.367 . S
C349 C357 1.433 . S
C350 H346 0.929 1_546 S
C350 C352 1.378 . S
C350 C354 1.350 1_545 S
C351 C354 1.463 1_554 S
C351 C356 1.350 . S
C351 N359 1.427 . S
C352 H343 0.930 . S
C352 C350 1.378 . S
C352 C353 1.367 . S
C353 C352 1.367 . S
C353 C355 1.433 . S
C354 C350 1.350 1_565 S
C354 C351 1.463 1_556 S
C354 N358 1.427 1_565 S
C355 H345 0.929 . S
C355 C353 1.433 . S
C355 N358 1.384 . S
C356 H347 0.929 . S
C356 C348 1.378 . S
C356 C351 1.350 . S
C357 H344 0.929 . S
C357 C349 1.433 . S
C357 N359 1.384 . S
N358 C354 1.427 1_545 S
N358 C355 1.384 . S
N359 C351 1.427 . S
N359 C357 1.384 . S
H360 C366 0.930 . S
H361 C370 0.930 1_556 S
H362 C375 0.929 . S
H363 C373 0.929 . S
H364 C368 0.929 . S
H365 C374 0.929 . S
C366 H360 0.930 . S
C366 C367 1.367 . S
C366 C374 1.378 . S
C367 C366 1.367 . S
C367 C375 1.433 . S
C368 H364 0.929 . S
C368 C370 1.378 . S
C368 C372 1.350 . S
C369 C372 1.463 . S
C369 C374 1.350 . S
C369 N377 1.427 . S
C370 H361 0.930 1_554 S
C370 C368 1.378 . S
C370 C371 1.367 . S
C371 C370 1.367 . S
C371 C373 1.433 . S
C372 C368 1.350 . S
C372 C369 1.463 . S
C372 N376 1.427 . S
C373 H363 0.929 . S
C373 C371 1.433 . S
C373 N376 1.384 . S
C374 H365 0.929 . S
C374 C366 1.378 . S
C374 C369 1.350 . S
C375 H362 0.929 . S
C375 C367 1.433 . S
C375 N377 1.384 . S
N376 C372 1.427 . S
N376 C373 1.384 . S
N377 C369 1.427 . S
N377 C375 1.384 . S
H378 C384 0.930 . S
H379 C388 0.930 . S
H380 C393 0.929 . S
H381 C391 0.929 . S
H382 C386 0.929 . S
H383 C392 0.929 . S
C384 H378 0.930 . S
C384 C385 1.367 . S
C384 C392 1.378 . S
C385 C384 1.367 . S
C385 C393 1.433 . S
C386 H382 0.929 . S
C386 C388 1.378 1_655 S
C386 C390 1.350 . S
C387 C390 1.463 . S
C387 C392 1.350 . S
C387 N395 1.427 . S
C388 H379 0.930 . S
C388 C386 1.378 1_455 S
C388 C389 1.367 . S
C389 C388 1.367 . S
C389 C391 1.433 . S
C390 C386 1.350 . S
C390 C387 1.463 . S
C390 N394 1.427 1_655 S
C391 H381 0.929 . S
C391 C389 1.433 . S
C391 N394 1.384 . S
C392 H383 0.929 . S
C392 C384 1.378 . S
C392 C387 1.350 . S
C393 H380 0.929 . S
C393 C385 1.433 . S
C393 N395 1.384 . S
N394 C390 1.427 1_455 S
N394 C391 1.384 . S
N395 C387 1.427 . S
N395 C393 1.384 . S
H396 C402 0.930 . S
H397 C406 0.930 . S
H398 C411 0.929 . S
H399 C409 0.929 . S
H400 C404 0.929 . S
H401 C410 0.929 . S
C402 H396 0.930 . S
C402 C403 1.367 . S
C402 C410 1.378 . S
C403 C402 1.367 . S
C403 C411 1.433 . S
C404 H400 0.929 . S
C404 C406 1.378 . S
C404 C408 1.350 . S
C405 C408 1.463 . S
C405 C410 1.350 . S
C405 N413 1.427 . S
C406 H397 0.930 . S
C406 C404 1.378 . S
C406 C407 1.367 . S
C407 C406 1.367 . S
C407 C409 1.433 . S
C408 C404 1.350 . S
C408 C405 1.463 . S
C408 N412 1.427 . S
C409 H399 0.929 . S
C409 C407 1.433 . S
C409 N412 1.384 . S
C410 H401 0.929 . S
C410 C402 1.378 . S
C410 C405 1.350 . S
C411 H398 0.929 . S
C411 C403 1.433 . S
C411 N413 1.384 . S
N412 C408 1.427 . S
N412 C409 1.384 . S
N413 C405 1.427 . S
N413 C411 1.384 . S
H414 C420 0.930 . S
H415 C424 0.930 . S
H416 C429 0.929 . S
H417 C427 0.929 . S
H418 C422 0.929 . S
H419 C428 0.929 . S
C420 H414 0.930 . S
C420 C421 1.367 . S
C420 C428 1.378 . S
C421 C420 1.367 . S
C421 C429 1.433 . S
C422 H418 0.929 . S
C422 C424 1.378 . S
C422 C426 1.350 . S
C423 C426 1.463 . S
C423 C428 1.350 . S
C423 N431 1.427 . S
C424 H415 0.930 . S
C424 C422 1.378 . S
C424 C425 1.367 . S
C425 C424 1.367 . S
C425 C427 1.433 . S
C426 C422 1.350 . S
C426 C423 1.463 . S
C426 N430 1.427 . S
C427 H417 0.929 . S
C427 C425 1.433 . S
C427 N430 1.384 . S
C428 H419 0.929 . S
C428 C420 1.378 . S
C428 C423 1.350 . S
C429 H416 0.929 . S
C429 C421 1.433 . S
C429 N431 1.384 . S
N430 C426 1.427 . S
N430 C427 1.384 . S
N431 C423 1.427 . S
N431 C429 1.384 . S
H432 C438 0.930 . S
H433 C442 0.930 . S
H434 C447 0.929 1_554 S
H435 C445 0.929 . S
H436 C440 0.929 . S
H437 C446 0.929 . S
C438 H432 0.930 . S
C438 C439 1.367 . S
C438 C446 1.378 . S
C439 C438 1.367 . S
C439 C447 1.433 . S
C440 H436 0.929 . S
C440 C442 1.378 . S
C440 C444 1.350 . S
C441 C444 1.463 . S
C441 C446 1.350 . S
C441 N449 1.427 . S
C442 H433 0.930 . S
C442 C440 1.378 . S
C442 C443 1.367 . S
C443 C442 1.367 . S
C443 C445 1.433 . S
C444 C440 1.350 . S
C444 C441 1.463 . S
C444 N448 1.427 . S
C445 H435 0.929 . S
C445 C443 1.433 . S
C445 N448 1.384 . S
C446 H437 0.929 . S
C446 C438 1.378 . S
C446 C441 1.350 . S
C447 H434 0.929 1_556 S
C447 C439 1.433 . S
C447 N449 1.384 . S
N448 C444 1.427 . S
N448 C445 1.384 . S
N449 C441 1.427 . S
N449 C447 1.384 . S
H450 C456 0.930 . S
H451 C460 0.930 . S
H452 C465 0.929 . S
H453 C463 0.929 . S
H454 C458 0.929 . S
H455 C464 0.929 1_554 S
C456 H450 0.930 . S
C456 C457 1.367 1_554 S
C456 C464 1.378 1_554 S
C457 C456 1.367 1_556 S
C457 C465 1.433 . S
C458 H454 0.929 . S
C458 C460 1.378 . S
C458 C462 1.350 . S
C459 C462 1.463 . S
C459 C464 1.350 . S
C459 N467 1.427 . S
C460 H451 0.930 . S
C460 C458 1.378 . S
C460 C461 1.367 . S
C461 C460 1.367 . S
C461 C463 1.433 . S
C462 C458 1.350 . S
C462 C459 1.463 . S
C462 N466 1.427 . S
C463 H453 0.929 . S
C463 C461 1.433 . S
C463 N466 1.384 . S
C464 H455 0.929 1_556 S
C464 C456 1.378 1_556 S
C464 C459 1.350 . S
C465 H452 0.929 . S
C465 C457 1.433 . S
C465 N467 1.384 . S
N466 C462 1.427 . S
N466 C463 1.384 . S
N467 C459 1.427 . S
N467 C465 1.384 . S
H468 C474 0.930 . S
H469 C478 0.930 . S
H470 C483 0.929 . S
H471 C481 0.929 1_556 S
H472 C476 0.929 . S
H473 C482 0.929 . S
C474 H468 0.930 . S
C474 C475 1.367 . S
C474 C482 1.378 . S
C475 C474 1.367 . S
C475 C483 1.433 . S
C476 H472 0.929 . S
C476 C478 1.378 . S
C476 C480 1.350 . S
C477 C480 1.463 . S
C477 C482 1.350 . S
C477 N485 1.427 . S
C478 H469 0.930 . S
C478 C476 1.378 . S
C478 C479 1.367 . S
C479 C478 1.367 . S
C479 C481 1.433 . S
C480 C476 1.350 . S
C480 C477 1.463 . S
C480 N484 1.427 . S
C481 H471 0.929 1_554 S
C481 C479 1.433 . S
C481 N484 1.384 . S
C482 H473 0.929 . S
C482 C474 1.378 . S
C482 C477 1.350 . S
C483 H470 0.929 . S
C483 C475 1.433 . S
C483 N485 1.384 . S
N484 C480 1.427 . S
N484 C481 1.384 . S
N485 C477 1.427 . S
N485 C483 1.384 . S
H486 C492 0.930 . S
H487 C496 0.930 . S
H488 C501 0.929 1_556 S
H489 C499 0.929 . S
H490 C494 0.929 . S
H491 C500 0.929 . S
C492 H486 0.930 . S
C492 C493 1.367 . S
C492 C500 1.378 . S
C493 C492 1.367 . S
C493 C501 1.433 . S
C494 H490 0.929 . S
C494 C496 1.378 . S
C494 C498 1.350 . S
C495 C498 1.463 . S
C495 C500 1.350 . S
C495 N503 1.427 . S
C496 H487 0.930 . S
C496 C494 1.378 . S
C496 C497 1.367 . S
C497 C496 1.367 . S
C497 C499 1.433 . S
C498 C494 1.350 . S
C498 C495 1.463 . S
C498 N502 1.427 . S
C499 H489 0.929 . S
C499 C497 1.433 . S
C499 N502 1.384 . S
C500 H491 0.929 . S
C500 C492 1.378 . S
C500 C495 1.350 . S
C501 H488 0.929 1_554 S
C501 C493 1.433 . S
C501 N503 1.384 . S
N502 C498 1.427 . S
N502 C499 1.384 . S
N503 C495 1.427 . S
N503 C501 1.384 . S
C187 C16 0.977 . S
C191 C27 0.977 . S
C205 C57 0.975 . S
C209 C46 0.975 . S
C223 C87 0.975 . S
C227 C76 0.975 . S
C241 C106 0.974 . S
C245 C117 0.974 . S
C259 C147 0.976 . S
C263 C136 0.976 . S
C277 C177 0.975 . S
C281 C166 0.975 . S
C295 C1 1.946 . S
C299 C151 1.952 . S
C313 N6 1.608 . S
C317 N36 1.608 . S
C331 C61 1.955 . S
C335 C31 1.959 . S
C349 N96 1.614 . S
C353 N66 1.616 . S
C367 C121 1.953 . S
C371 C91 1.958 . S
C385 N126 1.622 . S
C389 N156 1.624 . S
C403 C10 1.885 . S
C407 N134 1.728 . S
C421 N44 1.730 . S
C425 C160 1.884 . S
C439 C70 1.884 . S
C443 N14 1.741 . S
C457 N104 1.737 1_556 S
C461 C40 1.890 . S
C475 C130 1.886 . S
C479 N74 1.745 . S
C493 C100 1.884 . S
C497 N164 1.740 . S
