# Generated by pormake.
# Topology umf, (4)-cn, num edge types: 1
# Building blocks:
#     Node 0, Type 0, BuildingBlock: QUQFOY_clean_sbu_3, # of connection points: 4
#     Node 1, Type 0, BuildingBlock: QUQFOY_clean_sbu_3, # of connection points: 4
#     Node 2, Type 0, BuildingBlock: QUQFOY_clean_sbu_3, # of connection points: 4
#     Node 3, Type 0, BuildingBlock: QUQFOY_clean_sbu_3, # of connection points: 4
#     Node 4, Type 0, BuildingBlock: QUQFOY_clean_sbu_3, # of connection points: 4
#     Node 5, Type 0, BuildingBlock: QUQFOY_clean_sbu_3, # of connection points: 4
#     Node 6, Type 0, BuildingBlock: QUQFOY_clean_sbu_3, # of connection points: 4
#     Node 7, Type 0, BuildingBlock: QUQFOY_clean_sbu_3, # of connection points: 4
#     Edge 8, Type (0, 0), BuildingBlock: CIFDUS_clean_linker_0, # of connection points: 2
#     Edge 9, Type (0, 0), BuildingBlock: CIFDUS_clean_linker_0, # of connection points: 2
#     Edge 10, Type (0, 0), BuildingBlock: CIFDUS_clean_linker_0, # of connection points: 2
#     Edge 11, Type (0, 0), BuildingBlock: CIFDUS_clean_linker_0, # of connection points: 2
#     Edge 12, Type (0, 0), BuildingBlock: CIFDUS_clean_linker_0, # of connection points: 2
#     Edge 13, Type (0, 0), BuildingBlock: CIFDUS_clean_linker_0, # of connection points: 2
#     Edge 14, Type (0, 0), BuildingBlock: CIFDUS_clean_linker_0, # of connection points: 2
#     Edge 15, Type (0, 0), BuildingBlock: CIFDUS_clean_linker_0, # of connection points: 2
#     Edge 16, Type (0, 0), BuildingBlock: CIFDUS_clean_linker_0, # of connection points: 2
#     Edge 17, Type (0, 0), BuildingBlock: CIFDUS_clean_linker_0, # of connection points: 2
#     Edge 18, Type (0, 0), BuildingBlock: CIFDUS_clean_linker_0, # of connection points: 2
#     Edge 19, Type (0, 0), BuildingBlock: CIFDUS_clean_linker_0, # of connection points: 2
#     Edge 20, Type (0, 0), BuildingBlock: CIFDUS_clean_linker_0, # of connection points: 2
#     Edge 21, Type (0, 0), BuildingBlock: CIFDUS_clean_linker_0, # of connection points: 2
#     Edge 22, Type (0, 0), BuildingBlock: CIFDUS_clean_linker_0, # of connection points: 2
#     Edge 23, Type (0, 0), BuildingBlock: CIFDUS_clean_linker_0, # of connection points: 2
# Relax obj value: 0.167
# Max RMSD: 0.287
# Mean RMSD: 0.287
data_MOF--net-umf--node1-QUQFOY_clean_sbu_3--edge1-CIFDUS_clean_linker_0
_symmetry_space_group_name_H-M    P1
_symmetry_Int_Tables_number       1
_symmetry_cell_setting            triclinic
loop_
_symmetry_equiv_pos_as_xyz
'x, y, z'
_cell_length_a     26.171638
_cell_length_b     26.232611
_cell_length_c     47.778987
_cell_angle_alpha  89.085245
_cell_angle_beta   89.926126
_cell_angle_gamma 90.755431
loop_
_atom_site_label
_atom_site_type_symbol
_atom_site_fract_x
_atom_site_fract_y
_atom_site_fract_z
_atom_type_partial_charge
C0 C 0.16393 0.21507 0.15297 0.0
O1 O 0.18751 0.20274 0.13093 0.0
Cd2 Cd 0.13221 0.17793 0.09248 0.0
O3 O 0.11627 0.22303 0.15194 0.0
Cd4 Cd 0.04728 0.23302 0.11794 0.0
C5 C 0.04241 0.10689 0.12869 0.0
O6 O 0.07724 0.23858 0.06862 0.0
O7 O -0.00207 0.21688 0.07709 0.0
O8 O 0.06562 0.32103 0.12571 0.0
C9 C 0.03248 0.2283 0.0593 0.0
O10 O 0.08196 0.10913 0.11318 0.0
C11 C 0.02164 0.33299 0.13442 0.0
O12 O 0.01911 0.14749 0.13533 0.0
O13 O -0.01212 0.29743 0.136 0.0
C14 C 0.71746 0.152 0.65536 0.0
O15 O 0.73331 0.17767 0.63432 0.0
Cd16 Cd 0.76207 0.12539 0.59571 0.0
O17 O 0.71095 0.10426 0.65335 0.0
Cd18 Cd 0.71106 0.0367 0.61898 0.0
C19 C 0.8365 0.03918 0.63008 0.0
O20 O 0.70498 0.06874 0.56964 0.0
O21 O 0.73209 -0.00825 0.578 0.0
O22 O 0.6213 0.04019 0.62712 0.0
C23 C 0.7178 0.02519 0.56031 0.0
O24 O 0.83395 0.07942 0.61496 0.0
C25 C 0.61553 -0.0055 0.63574 0.0
O26 O 0.79613 0.01381 0.6365 0.0
O27 O 0.6553 0.96694 0.63679 0.0
C28 C 0.77944 0.73121 0.1556 0.0
O29 O 0.75468 0.74179 0.13352 0.0
Cd30 Cd 0.80956 0.76934 0.09482 0.0
O31 O 0.8274 0.7256 0.15422 0.0
Cd32 Cd 0.89379 0.71701 0.1187 0.0
C33 C 0.89741 0.84235 0.12907 0.0
O34 O 0.86517 0.71298 0.06902 0.0
O35 O 0.94376 0.73599 0.07829 0.0
O36 O 0.87519 0.62864 0.12648 0.0
C37 C 0.91032 0.72409 0.06022 0.0
O38 O 0.85744 0.83988 0.11401 0.0
C39 C 0.91923 0.61607 0.13501 0.0
O40 O 0.92161 0.80191 0.13566 0.0
O41 O 0.95308 0.65148 0.13651 0.0
C42 C 0.20978 0.77651 0.65394 0.0
O43 O 0.19547 0.7538 0.63201 0.0
Cd44 Cd 0.17083 0.8102 0.59359 0.0
O45 O 0.21807 0.82424 0.65298 0.0
Cd46 Cd 0.22375 0.89526 0.61925 0.0
C47 C 0.09801 0.8956 0.62871 0.0
O48 O 0.23201 0.86709 0.56992 0.0
O49 O 0.2057 0.9439 0.57801 0.0
O50 O 0.31307 0.88904 0.62865 0.0
C51 C 0.22051 0.91142 0.56047 0.0
O52 O 0.10024 0.8569 0.61306 0.0
C53 C 0.31943 0.93416 0.63726 0.0
O54 O 0.13863 0.91937 0.63589 0.0
O55 O 0.28013 0.96235 0.63803 0.0
C56 C 0.1701 0.7362 0.81464 0.0
O57 O 0.19294 0.7507 0.83656 0.0
Cd58 Cd 0.13679 0.7756 0.87444 0.0
O59 O 0.1223 0.72774 0.81537 0.0
Cd60 Cd 0.05129 0.7219 0.84869 0.0
C61 C 0.05069 0.84756 0.83795 0.0
O62 O 0.07973 0.71495 0.89836 0.0
O63 O 0.00239 0.74002 0.88927 0.0
O64 O 0.05787 0.63246 0.84057 0.0
C65 C 0.03524 0.72636 0.90729 0.0
O66 O 0.08961 0.84554 0.85384 0.0
C67 C 0.01284 0.62593 0.83138 0.0
O68 O 0.02687 0.80691 0.83107 0.0
O69 O -0.01544 0.66509 0.82977 0.0
C70 C 0.2059 0.16935 0.31356 0.0
O71 O 0.18674 0.18849 0.33533 0.0
Cd72 Cd 0.16797 0.12763 0.37296 0.0
O73 O 0.22162 0.12384 0.31444 0.0
Cd74 Cd 0.23629 0.05412 0.34796 0.0
C75 C 0.1139 0.02986 0.33616 0.0
O76 O 0.23521 0.08202 0.3976 0.0
O77 O 0.22195 0.0019 0.38852 0.0
O78 O 0.32504 0.07316 0.34007 0.0
C79 C 0.22912 0.03611 0.4066 0.0
O80 O 0.10828 0.06819 0.35181 0.0
C81 C 0.33639 0.02966 0.33084 0.0
O82 O 0.15834 0.01449 0.32976 0.0
O83 O 0.30045 -0.00342 0.32934 0.0
C84 C 0.79611 0.22892 0.80601 0.0
O85 O 0.76929 0.21352 0.82665 0.0
Cd86 Cd 0.81957 0.18327 0.86637 0.0
O87 O 0.84393 0.23468 0.80896 0.0
Cd88 Cd 0.90937 0.23378 0.84525 0.0
C89 C 0.90696 0.1088 0.83428 0.0
O90 O 0.87501 0.23898 0.89391 0.0
O91 O 0.95228 0.21146 0.88721 0.0
O92 O 0.90613 0.32366 0.83728 0.0
C93 C 0.9182 0.22585 0.90415 0.0
O94 O 0.8659 0.11142 0.84844 0.0
C95 C 0.95245 0.32991 0.83004 0.0
O96 O 0.93297 0.14904 0.82837 0.0
O97 O -0.01981 0.2903 0.82949 0.0
C98 C 0.74272 0.77591 0.31584 0.0
O99 O 0.76222 0.75665 0.33779 0.0
Cd100 Cd 0.78089 0.81669 0.37473 0.0
O101 O 0.72715 0.82148 0.31605 0.0
Cd102 Cd 0.71365 0.8916 0.34828 0.0
C103 C 0.83678 0.91429 0.33678 0.0
O104 O 0.71277 0.86206 0.39808 0.0
O105 O 0.72703 0.94241 0.38865 0.0
O106 O 0.62509 0.87398 0.33961 0.0
C107 C 0.71878 0.90758 0.40687 0.0
O108 O 0.8417 0.87586 0.35311 0.0
C109 C 0.61446 0.91809 0.33024 0.0
O110 O 0.79264 0.93008 0.3299 0.0
O111 O 0.65077 0.95089 0.32896 0.0
H112 H 0.92851 0.37662 0.14149 0.0
H113 H 0.09028 0.41066 0.14047 0.0
H114 H 0.07322 0.50145 0.14363 0.0
H115 H 0.01234 0.57196 0.14168 0.0
H116 H 0.85057 0.53801 0.14106 0.0
H117 H 0.86764 0.44701 0.14386 0.0
C118 C 0.95998 0.40387 0.14243 0.0
C119 C 0.01048 0.38689 0.14043 0.0
C120 C 0.94994 0.45632 0.14373 0.0
C121 C 0.05091 0.42271 0.14168 0.0
C122 C 0.04126 0.47475 0.14346 0.0
C123 C -0.01912 0.54466 0.14264 0.0
C124 C 0.93037 0.56178 0.14085 0.0
C125 C -0.00909 0.49213 0.14372 0.0
C126 C 0.88994 0.52587 0.14211 0.0
C127 C 0.89959 0.47372 0.14368 0.0
H128 H 0.40492 0.8784 0.64382 0.0
H129 H 0.35044 0.03299 0.64476 0.0
H130 H 0.43844 0.06502 0.64752 0.0
H131 H 0.5303 0.04926 0.64408 0.0
H132 H 0.58488 0.89481 0.64198 0.0
H133 H 0.49698 0.86236 0.6456 0.0
C134 C 0.41223 0.91911 0.64499 0.0
C135 C 0.37132 0.95338 0.64365 0.0
C136 C 0.4628 0.93717 0.64615 0.0
C137 C 0.3813 0.0059 0.64561 0.0
C138 C 0.43159 0.0242 0.64705 0.0
C139 C 0.52304 0.00844 0.64473 0.0
C140 C 0.56389 -0.02559 0.6423 0.0
C141 C 0.47257 -0.00978 0.64645 0.0
C142 C 0.55403 0.92171 0.64366 0.0
C143 C 0.5038 0.9032 0.6456 0.0
H144 H 0.8981 0.4155 0.82112 0.0
H145 H 0.05264 0.36087 0.8269 0.0
H146 H 0.08525 0.44874 0.82495 0.0
H147 H 0.06903 0.54056 0.82669 0.0
H148 H 0.91428 0.59498 0.82184 0.0
H149 H 0.88244 0.50729 0.81803 0.0
C150 C 0.93899 0.42275 0.82164 0.0
C151 C 0.97295 0.38183 0.82456 0.0
C152 C 0.95729 0.47319 0.82086 0.0
C153 C 0.02577 0.39174 0.82477 0.0
C154 C 0.04437 0.44195 0.82379 0.0
C155 C 0.02834 0.53332 0.82448 0.0
C156 C -0.00606 0.57413 0.82495 0.0
C157 C 0.01037 0.48291 0.82263 0.0
C158 C 0.94147 0.56421 0.82168 0.0
C159 C 0.92327 0.5141 0.81961 0.0
H160 H 0.37647 0.93634 0.322 0.0
H161 H 0.41646 0.09627 0.32531 0.0
H162 H 0.50687 0.07606 0.3216 0.0
H163 H 0.57473 0.0125 0.32325 0.0
H164 H 0.53468 0.85242 0.32253 0.0
H165 H 0.44434 0.87314 0.31899 0.0
C166 C 0.40493 0.96678 0.32143 0.0
C167 C 0.38991 0.01758 0.32431 0.0
C168 C 0.45694 0.95485 0.31998 0.0
C169 C 0.42716 0.05671 0.32346 0.0
C170 C 0.47888 0.04523 0.32137 0.0
C171 C 0.54627 -0.01777 0.3218 0.0
C172 C 0.56122 0.9311 0.32351 0.0
C173 C 0.49428 -0.00564 0.32051 0.0
C174 C 0.524 0.89217 0.32158 0.0
C175 C 0.47232 0.90394 0.3196 0.0
H176 H 0.01232 0.22763 0.92763 0.0
H177 H 0.85202 0.23287 0.9485 0.0
H178 H 0.87358 0.23486 -0.0016 0.0
H179 H 0.93798 0.23246 0.03594 0.0
H180 H 0.09829 0.23017 0.01474 0.0
H181 H 0.07664 0.22987 0.96491 0.0
C182 C -0.01802 0.22925 0.94307 0.0
C183 C 0.93051 0.22963 0.93435 0.0
C184 C -0.00528 0.23088 0.97158 0.0
C185 C 0.89185 0.23248 0.95464 0.0
C186 C 0.9042 0.23349 -0.01685 0.0
C187 C 0.96825 0.232 0.02043 0.0
C188 C 0.01978 0.23095 0.02907 0.0
C189 C 0.95549 0.23229 -0.00815 0.0
C190 C 0.05844 0.23098 0.00868 0.0
C191 C 0.04604 0.23067 0.9802 0.0
H192 H 0.71961 0.93067 0.53826 0.0
H193 H 0.70763 0.08966 0.5149 0.0
H194 H 0.70588 0.06684 0.46536 0.0
H195 H 0.71048 0.00192 0.42887 0.0
H196 H 0.72025 0.8428 0.45242 0.0
H197 H 0.7199 0.86556 0.50193 0.0
C198 C 0.71656 0.96045 0.52236 0.0
C199 C 0.71419 0.01195 0.53029 0.0
C200 C 0.71521 0.94697 0.49403 0.0
C201 C 0.70958 0.04984 0.5094 0.0
C202 C 0.70869 0.03677 0.48108 0.0
C203 C 0.71244 0.97211 0.44482 0.0
C204 C 0.71579 0.92064 0.43693 0.0
C205 C 0.71192 -0.0145 0.47318 0.0
C206 C 0.7177 0.8826 0.45789 0.0
C207 C 0.71762 0.89565 0.48618 0.0
H208 H 0.00625 0.7208 0.03867 0.0
H209 H 0.84742 0.72084 0.01447 0.0
H210 H 0.87243 0.72069 0.96505 0.0
H211 H 0.93935 0.72331 0.9289 0.0
H212 H 0.09813 0.72044 0.95305 0.0
H213 H 0.07312 0.71871 0.0025 0.0
C214 C -0.02299 0.72069 0.0226 0.0
C215 C 0.92494 0.72126 0.03027 0.0
C216 C -0.0083 0.72015 -0.0057 0.0
C217 C 0.88767 0.72045 0.00917 0.0
C218 C 0.90199 0.72049 0.98092 0.0
C219 C 0.96858 0.72222 0.94497 0.0
C220 C 0.02065 0.72244 0.93728 0.0
C221 C 0.95387 0.72079 0.97327 0.0
C222 C 0.05789 0.72033 0.95838 0.0
C223 C 0.04357 0.71948 -0.01336 0.0
H224 H 0.23668 0.941 0.42921 0.0
H225 H 0.2246 0.09902 0.45183 0.0
H226 H 0.22167 0.07404 0.50144 0.0
H227 H 0.21963 0.00717 0.53809 0.0
H228 H 0.23378 0.84932 0.51549 0.0
H229 H 0.23893 0.87449 0.46597 0.0
C230 C 0.23353 0.97009 0.44497 0.0
C231 C 0.23046 0.02188 0.43678 0.0
C232 C 0.2321 0.95544 0.47338 0.0
C233 C 0.22698 0.05899 0.45753 0.0
C234 C 0.22517 0.04467 0.48588 0.0
C235 C 0.22389 -0.02183 0.52236 0.0
C236 C 0.22588 0.92628 0.53049 0.0
C237 C 0.22719 -0.00701 0.494 0.0
C238 C 0.23205 0.88941 0.50983 0.0
C239 C 0.23491 0.90382 0.48152 0.0
H240 H 0.13397 0.26384 0.19966 0.0
H241 H 0.24996 0.16385 0.16863 0.0
H242 H 0.27874 0.14674 0.21652 0.0
H243 H 0.26147 0.14952 0.26708 0.0
H244 H 0.14446 0.24847 0.29804 0.0
H245 H 0.12619 0.27745 0.25027 0.0
C246 C 0.16627 0.23912 0.20334 0.0
C247 C 0.18924 0.21442 0.18067 0.0
C248 C 0.18206 0.22893 0.23092 0.0
C249 C 0.23153 0.18319 0.1857 0.0
C250 C 0.24773 0.1731 0.21311 0.0
C251 C 0.2327 0.17826 0.26344 0.0
C252 C 0.20371 0.19614 0.28605 0.0
C253 C 0.22187 0.19411 0.23588 0.0
C254 C 0.16718 0.23394 0.28104 0.0
C255 C 0.15644 0.25023 0.25368 0.0
H256 H 0.71255 0.18045 0.78458 0.0
H257 H 0.83256 0.28845 0.76325 0.0
H258 H 0.81165 0.28161 0.7137 0.0
H259 H 0.77016 0.23306 0.67622 0.0
H260 H 0.6548 0.12017 0.69762 0.0
H261 H 0.66211 0.14142 0.74699 0.0
C262 C 0.73301 0.20364 0.76915 0.0
C263 C 0.77441 0.23438 0.77754 0.0
C264 C 0.72204 0.19807 0.74052 0.0
C265 C 0.80083 0.26402 0.75727 0.0
C266 C 0.78904 0.26 0.72889 0.0
C267 C 0.74549 0.21436 0.69161 0.0
C268 C 0.71244 0.17477 0.68334 0.0
C269 C 0.75134 0.22536 0.72017 0.0
C270 C 0.68095 0.1505 0.70353 0.0
C271 C 0.68525 0.16245 0.73181 0.0
H272 H 0.68488 0.79466 0.2698 0.0
H273 H 0.80502 0.69801 0.30089 0.0
H274 H 0.82203 0.66943 0.25338 0.0
H275 H 0.81209 0.68298 0.20266 0.0
H276 H 0.69276 0.78039 0.17144 0.0
H277 H 0.66545 0.79692 0.21941 0.0
C278 C 0.71405 0.76647 0.26625 0.0
C279 C 0.74427 0.74915 0.28878 0.0
C280 C 0.72409 0.75079 0.23884 0.0
C281 C 0.78134 0.71207 0.28394 0.0
C282 C 0.79136 0.69602 0.25673 0.0
C283 C 0.77938 0.70697 0.20635 0.0
C284 C 0.75501 0.73117 0.18356 0.0
C285 C 0.76441 0.7168 0.23394 0.0
C286 C 0.71223 0.76145 0.1886 0.0
C287 C 0.69688 0.77122 0.21604 0.0
H288 H 0.26482 0.8025 0.69968 0.0
H289 H 0.15387 0.69261 0.67047 0.0
H290 H 0.13728 0.6643 0.71868 0.0
H291 H 0.14361 0.68159 0.76907 0.0
H292 H 0.25428 0.79178 0.79826 0.0
H293 H 0.28245 0.80849 0.75013 0.0
C294 C 0.23793 0.77147 0.70384 0.0
C295 C 0.20996 0.75025 0.6816 0.0
C296 C 0.22816 0.75587 0.73162 0.0
C297 C 0.1758 0.70962 0.68721 0.0
C298 C 0.16598 0.69373 0.71481 0.0
C299 C 0.17478 0.70835 0.76494 0.0
C300 C 0.19625 0.73607 0.78714 0.0
C301 C 0.19029 0.71819 0.73719 0.0
C302 C 0.23706 0.77004 0.78157 0.0
C303 C 0.25287 0.77993 0.754 0.0
H304 H 0.94356 0.07684 0.13767 0.0
H305 H 0.09812 0.02193 0.13793 0.0
H306 H 0.06688 0.93419 0.1425 0.0
H307 H -0.00438 0.87247 0.13944 0.0
H308 H 0.84114 0.9274 0.1359 0.0
H309 H 0.87207 0.01504 0.14 0.0
C310 C 0.9703 0.04571 0.13945 0.0
C311 C 0.02295 0.05578 0.13719 0.0
C312 C 0.95202 -0.00495 0.14113 0.0
C313 C 0.05727 0.01505 0.13931 0.0
C314 C 0.03948 0.96481 0.14187 0.0
C315 C 0.96877 0.90356 0.14025 0.0
C316 C 0.91631 0.8935 0.13705 0.0
C317 C -0.01309 0.95418 0.14173 0.0
C318 C 0.88187 0.93422 0.13798 0.0
C319 C 0.89949 -0.01558 0.14029 0.0
H320 H 0.07034 -0.00682 0.63862 0.0
H321 H 0.01137 0.83904 0.63603 0.0
H322 H 0.92428 0.86982 0.64089 0.0
H323 H 0.86445 0.94104 0.63914 0.0
H324 H 0.92318 0.09543 0.63757 0.0
H325 H 0.01042 0.0643 0.64151 0.0
C326 C 0.03846 0.96637 0.63978 0.0
C327 C 0.04711 0.91406 0.63674 0.0
C328 C -0.01172 -0.01553 0.64154 0.0
C329 C 0.00551 0.87963 0.63805 0.0
C330 C 0.9557 0.89717 0.64078 0.0
C331 C 0.89629 0.96779 0.64035 0.0
C332 C 0.88752 0.02033 0.63785 0.0
C333 C 0.94649 0.9496 0.64154 0.0
C334 C 0.92912 0.05469 0.6392 0.0
C335 C -0.02098 0.03695 0.64139 0.0
H336 H 0.00527 0.08068 0.82571 0.0
H337 H 0.85045 0.02227 0.82728 0.0
H338 H 0.88143 0.93523 0.82405 0.0
H339 H 0.95268 0.87528 0.82756 0.0
H340 H 0.10732 0.93388 0.82985 0.0
H341 H 0.0765 0.02083 0.82436 0.0
C342 C -0.02164 0.04896 0.82467 0.0
C343 C 0.92576 0.05782 0.827 0.0
C344 C -0.00352 -0.00117 0.82381 0.0
C345 C 0.89125 0.01633 0.82583 0.0
C346 C 0.90891 0.96652 0.82403 0.0
C347 C -0.02043 0.90705 0.82618 0.0
C348 C 0.03206 0.89831 0.82935 0.0
C349 C 0.96148 0.95718 0.82403 0.0
C350 C 0.0666 0.93979 0.82774 0.0
C351 C 0.04904 -0.01046 0.82465 0.0
H352 H 0.93082 0.87596 0.32864 0.0
H353 H 0.84673 0.01627 0.32583 0.0
H354 H 0.92674 0.06506 0.32151 0.0
H355 H 0.02032 0.06775 0.32583 0.0
H356 H 0.10445 0.92748 0.32826 0.0
H357 H 0.02454 0.87845 0.32495 0.0
C358 C 0.93006 0.91719 0.32655 0.0
C359 C 0.88323 0.94268 0.32807 0.0
C360 C -0.02391 0.94484 0.32423 0.0
C361 C 0.88242 -0.00407 0.32481 0.0
C362 C 0.92814 0.0238 0.32254 0.0
C363 C 0.02112 0.02645 0.32506 0.0
C364 C 0.06788 0.00107 0.32777 0.0
C365 C -0.02484 -0.00131 0.32334 0.0
C366 C 0.06879 0.94771 0.32627 0.0
C367 C 0.02313 0.91973 0.32459 0.0
loop_
_geom_bond_atom_site_label_1
_geom_bond_atom_site_label_2
_geom_bond_distance
_geom_bond_site_symmetry_2
_ccdc_geom_bond_type
C0 O1 1.306 . S
C0 O3 1.160 . S
O1 C0 1.306 . S
O1 Cd2 2.228 . S
Cd2 O1 2.228 . S
Cd2 O6 2.273 . S
Cd2 O10 2.277 . S
O3 C0 1.160 . S
O3 Cd4 2.203 . S
Cd4 O3 2.203 . S
Cd4 O6 2.411 . S
Cd4 O7 2.333 . S
Cd4 O8 2.352 . S
Cd4 O12 2.277 . S
Cd4 O13 2.356 . S
C5 O10 1.209 . S
C5 O12 1.226 . S
O6 Cd2 2.273 . S
O6 Cd4 2.411 . S
O6 C9 1.320 . S
O7 Cd4 2.333 . S
O7 C9 1.214 . S
O8 Cd4 2.352 . S
O8 C11 1.258 . S
C9 O6 1.320 . S
C9 O7 1.214 . S
O10 Cd2 2.277 . S
O10 C5 1.209 . S
C11 O8 1.258 . S
C11 O13 1.282 . S
O12 Cd4 2.277 . S
O12 C5 1.226 . S
O13 Cd4 2.356 . S
O13 C11 1.282 . S
C14 O15 1.306 . S
C14 O17 1.160 . S
O15 C14 1.306 . S
O15 Cd16 2.228 . S
Cd16 O15 2.228 . S
Cd16 O20 2.273 . S
Cd16 O24 2.277 . S
O17 C14 1.160 . S
O17 Cd18 2.203 . S
Cd18 O17 2.203 . S
Cd18 O20 2.411 . S
Cd18 O21 2.333 . S
Cd18 O22 2.352 . S
Cd18 O26 2.277 . S
Cd18 O27 2.356 . S
C19 O24 1.209 . S
C19 O26 1.226 . S
O20 Cd16 2.273 . S
O20 Cd18 2.411 . S
O20 C23 1.320 . S
O21 Cd18 2.333 . S
O21 C23 1.214 . S
O22 Cd18 2.352 . S
O22 C25 1.258 . S
C23 O20 1.320 . S
C23 O21 1.214 . S
O24 Cd16 2.277 . S
O24 C19 1.209 . S
C25 O22 1.258 . S
C25 O27 1.282 . S
O26 Cd18 2.277 . S
O26 C19 1.226 . S
O27 Cd18 2.356 . S
O27 C25 1.282 . S
C28 O29 1.306 . S
C28 O31 1.160 . S
O29 C28 1.306 . S
O29 Cd30 2.228 . S
Cd30 O29 2.228 . S
Cd30 O34 2.273 . S
Cd30 O38 2.277 . S
O31 C28 1.160 . S
O31 Cd32 2.203 . S
Cd32 O31 2.203 . S
Cd32 O34 2.411 . S
Cd32 O35 2.333 . S
Cd32 O36 2.352 . S
Cd32 O40 2.277 . S
Cd32 O41 2.356 . S
C33 O38 1.209 . S
C33 O40 1.226 . S
O34 Cd30 2.273 . S
O34 Cd32 2.411 . S
O34 C37 1.320 . S
O35 Cd32 2.333 . S
O35 C37 1.214 . S
O36 Cd32 2.352 . S
O36 C39 1.258 . S
C37 O34 1.320 . S
C37 O35 1.214 . S
O38 Cd30 2.277 . S
O38 C33 1.209 . S
C39 O36 1.258 . S
C39 O41 1.282 . S
O40 Cd32 2.277 . S
O40 C33 1.226 . S
O41 Cd32 2.356 . S
O41 C39 1.282 . S
C42 O43 1.306 . S
C42 O45 1.160 . S
O43 C42 1.306 . S
O43 Cd44 2.228 . S
Cd44 O43 2.228 . S
Cd44 O48 2.273 . S
Cd44 O52 2.277 . S
O45 C42 1.160 . S
O45 Cd46 2.203 . S
Cd46 O45 2.203 . S
Cd46 O48 2.411 . S
Cd46 O49 2.333 . S
Cd46 O50 2.352 . S
Cd46 O54 2.277 . S
Cd46 O55 2.356 . S
C47 O52 1.209 . S
C47 O54 1.226 . S
O48 Cd44 2.273 . S
O48 Cd46 2.411 . S
O48 C51 1.320 . S
O49 Cd46 2.333 . S
O49 C51 1.214 . S
O50 Cd46 2.352 . S
O50 C53 1.258 . S
C51 O48 1.320 . S
C51 O49 1.214 . S
O52 Cd44 2.277 . S
O52 C47 1.209 . S
C53 O50 1.258 . S
C53 O55 1.282 . S
O54 Cd46 2.277 . S
O54 C47 1.226 . S
O55 Cd46 2.356 . S
O55 C53 1.282 . S
C56 O57 1.306 . S
C56 O59 1.160 . S
O57 C56 1.306 . S
O57 Cd58 2.228 . S
Cd58 O57 2.228 . S
Cd58 O62 2.273 . S
Cd58 O66 2.277 . S
O59 C56 1.160 . S
O59 Cd60 2.203 . S
Cd60 O59 2.203 . S
Cd60 O62 2.411 . S
Cd60 O63 2.333 . S
Cd60 O64 2.352 . S
Cd60 O68 2.277 . S
Cd60 O69 2.356 . S
C61 O66 1.209 . S
C61 O68 1.226 . S
O62 Cd58 2.273 . S
O62 Cd60 2.411 . S
O62 C65 1.320 . S
O63 Cd60 2.333 . S
O63 C65 1.214 . S
O64 Cd60 2.352 . S
O64 C67 1.258 . S
C65 O62 1.320 . S
C65 O63 1.214 . S
O66 Cd58 2.277 . S
O66 C61 1.209 . S
C67 O64 1.258 . S
C67 O69 1.282 . S
O68 Cd60 2.277 . S
O68 C61 1.226 . S
O69 Cd60 2.356 . S
O69 C67 1.282 . S
C70 O71 1.306 . S
C70 O73 1.160 . S
O71 C70 1.306 . S
O71 Cd72 2.228 . S
Cd72 O71 2.228 . S
Cd72 O76 2.273 . S
Cd72 O80 2.277 . S
O73 C70 1.160 . S
O73 Cd74 2.203 . S
Cd74 O73 2.203 . S
Cd74 O76 2.411 . S
Cd74 O77 2.333 . S
Cd74 O78 2.352 . S
Cd74 O82 2.277 . S
Cd74 O83 2.356 . S
C75 O80 1.209 . S
C75 O82 1.226 . S
O76 Cd72 2.273 . S
O76 Cd74 2.411 . S
O76 C79 1.320 . S
O77 Cd74 2.333 . S
O77 C79 1.214 . S
O78 Cd74 2.352 . S
O78 C81 1.258 . S
C79 O76 1.320 . S
C79 O77 1.214 . S
O80 Cd72 2.277 . S
O80 C75 1.209 . S
C81 O78 1.258 . S
C81 O83 1.282 . S
O82 Cd74 2.277 . S
O82 C75 1.226 . S
O83 Cd74 2.356 . S
O83 C81 1.282 . S
C84 O85 1.306 . S
C84 O87 1.160 . S
O85 C84 1.306 . S
O85 Cd86 2.228 . S
Cd86 O85 2.228 . S
Cd86 O90 2.273 . S
Cd86 O94 2.277 . S
O87 C84 1.160 . S
O87 Cd88 2.203 . S
Cd88 O87 2.203 . S
Cd88 O90 2.411 . S
Cd88 O91 2.333 . S
Cd88 O92 2.352 . S
Cd88 O96 2.277 . S
Cd88 O97 2.356 . S
C89 O94 1.209 . S
C89 O96 1.226 . S
O90 Cd86 2.273 . S
O90 Cd88 2.411 . S
O90 C93 1.320 . S
O91 Cd88 2.333 . S
O91 C93 1.214 . S
O92 Cd88 2.352 . S
O92 C95 1.258 . S
C93 O90 1.320 . S
C93 O91 1.214 . S
O94 Cd86 2.277 . S
O94 C89 1.209 . S
C95 O92 1.258 . S
C95 O97 1.282 . S
O96 Cd88 2.277 . S
O96 C89 1.226 . S
O97 Cd88 2.356 . S
O97 C95 1.282 . S
C98 O99 1.306 . S
C98 O101 1.160 . S
O99 C98 1.306 . S
O99 Cd100 2.228 . S
Cd100 O99 2.228 . S
Cd100 O104 2.273 . S
Cd100 O108 2.277 . S
O101 C98 1.160 . S
O101 Cd102 2.203 . S
Cd102 O101 2.203 . S
Cd102 O104 2.411 . S
Cd102 O105 2.333 . S
Cd102 O106 2.352 . S
Cd102 O110 2.277 . S
Cd102 O111 2.356 . S
C103 O108 1.209 . S
C103 O110 1.226 . S
O104 Cd100 2.273 . S
O104 Cd102 2.411 . S
O104 C107 1.320 . S
O105 Cd102 2.333 . S
O105 C107 1.214 . S
O106 Cd102 2.352 . S
O106 C109 1.258 . S
C107 O104 1.320 . S
C107 O105 1.214 . S
O108 Cd100 2.277 . S
O108 C103 1.209 . S
C109 O106 1.258 . S
C109 O111 1.282 . S
O110 Cd102 2.277 . S
O110 C103 1.226 . S
O111 Cd102 2.356 . S
O111 C109 1.282 . S
H112 C118 0.930 . S
H113 C121 0.930 . S
H114 C122 0.930 . S
H115 C123 0.930 . S
H116 C126 0.930 . S
H117 C127 0.930 . S
C118 H112 0.930 . S
C118 C119 1.355 1_655 S
C118 C120 1.415 . S
C119 C118 1.355 1_455 S
C119 C121 1.419 . S
C120 C118 1.415 . S
C120 C125 1.425 1_655 S
C120 C127 1.409 . S
C121 H113 0.930 . S
C121 C119 1.419 . S
C121 C122 1.362 . S
C122 H114 0.930 . S
C122 C121 1.362 . S
C122 C125 1.409 . S
C123 H115 0.930 . S
C123 C124 1.355 1_455 S
C123 C125 1.415 . S
C124 C123 1.355 1_655 S
C124 C126 1.419 . S
C125 C120 1.425 1_455 S
C125 C122 1.409 . S
C125 C123 1.415 . S
C126 H116 0.930 . S
C126 C124 1.419 . S
C126 C127 1.362 . S
C127 H117 0.930 . S
C127 C120 1.409 . S
C127 C126 1.362 . S
H128 C134 0.930 . S
H129 C137 0.930 . S
H130 C138 0.930 . S
H131 C139 0.930 . S
H132 C142 0.930 . S
H133 C143 0.930 . S
C134 H128 0.930 . S
C134 C135 1.355 . S
C134 C136 1.415 . S
C135 C134 1.355 . S
C135 C137 1.419 1_565 S
C136 C134 1.415 . S
C136 C141 1.425 1_565 S
C136 C143 1.409 . S
C137 H129 0.930 . S
C137 C135 1.419 1_545 S
C137 C138 1.362 . S
C138 H130 0.930 . S
C138 C137 1.362 . S
C138 C141 1.409 . S
C139 H131 0.930 . S
C139 C140 1.355 . S
C139 C141 1.415 . S
C140 C139 1.355 . S
C140 C142 1.419 1_545 S
C141 C136 1.425 1_545 S
C141 C138 1.409 . S
C141 C139 1.415 . S
C142 H132 0.930 . S
C142 C140 1.419 1_565 S
C142 C143 1.362 . S
C143 H133 0.930 . S
C143 C136 1.409 . S
C143 C142 1.362 . S
H144 C150 0.930 . S
H145 C153 0.930 . S
H146 C154 0.930 . S
H147 C155 0.930 . S
H148 C158 0.930 . S
H149 C159 0.930 . S
C150 H144 0.930 . S
C150 C151 1.355 . S
C150 C152 1.415 . S
C151 C150 1.355 . S
C151 C153 1.419 1_655 S
C152 C150 1.415 . S
C152 C157 1.425 1_655 S
C152 C159 1.409 . S
C153 H145 0.930 . S
C153 C151 1.419 1_455 S
C153 C154 1.362 . S
C154 H146 0.930 . S
C154 C153 1.362 . S
C154 C157 1.409 . S
C155 H147 0.930 . S
C155 C156 1.355 . S
C155 C157 1.415 . S
C156 C155 1.355 . S
C156 C158 1.419 1_455 S
C157 C152 1.425 1_455 S
C157 C154 1.409 . S
C157 C155 1.415 . S
C158 H148 0.930 . S
C158 C156 1.419 1_655 S
C158 C159 1.362 . S
C159 H149 0.930 . S
C159 C152 1.409 . S
C159 C158 1.362 . S
H160 C166 0.930 . S
H161 C169 0.930 . S
H162 C170 0.930 . S
H163 C171 0.930 . S
H164 C174 0.930 . S
H165 C175 0.930 . S
C166 H160 0.930 . S
C166 C167 1.355 1_565 S
C166 C168 1.415 . S
C167 C166 1.355 1_545 S
C167 C169 1.419 . S
C168 C166 1.415 . S
C168 C173 1.425 1_565 S
C168 C175 1.409 . S
C169 H161 0.930 . S
C169 C167 1.419 . S
C169 C170 1.362 . S
C170 H162 0.930 . S
C170 C169 1.362 . S
C170 C173 1.409 . S
C171 H163 0.930 . S
C171 C172 1.355 1_545 S
C171 C173 1.415 . S
C172 C171 1.355 1_565 S
C172 C174 1.419 . S
C173 C168 1.425 1_545 S
C173 C170 1.409 . S
C173 C171 1.415 . S
C174 H164 0.930 . S
C174 C172 1.419 . S
C174 C175 1.362 . S
C175 H165 0.930 . S
C175 C168 1.409 . S
C175 C174 1.362 . S
H176 C182 0.930 . S
H177 C185 0.930 . S
H178 C186 0.930 . S
H179 C187 0.930 . S
H180 C190 0.930 . S
H181 C191 0.930 . S
C182 H176 0.930 . S
C182 C183 1.355 . S
C182 C184 1.415 1_556 S
C183 C182 1.355 . S
C183 C185 1.419 . S
C184 C182 1.415 1_554 S
C184 C189 1.425 1_654 S
C184 C191 1.409 . S
C185 H177 0.930 . S
C185 C183 1.419 . S
C185 C186 1.362 1_655 S
C186 H178 0.930 . S
C186 C185 1.362 1_455 S
C186 C189 1.409 . S
C187 H179 0.930 . S
C187 C188 1.355 . S
C187 C189 1.415 1_554 S
C188 C187 1.355 . S
C188 C190 1.419 . S
C189 C184 1.425 1_456 S
C189 C186 1.409 . S
C189 C187 1.415 1_556 S
C190 H180 0.930 . S
C190 C188 1.419 . S
C190 C191 1.362 1_455 S
C191 H181 0.930 . S
C191 C184 1.409 . S
C191 C190 1.362 1_655 S
H192 C198 0.930 . S
H193 C201 0.930 . S
H194 C202 0.930 . S
H195 C203 0.930 . S
H196 C206 0.930 . S
H197 C207 0.930 . S
C198 H192 0.930 . S
C198 C199 1.355 . S
C198 C200 1.415 1_545 S
C199 C198 1.355 . S
C199 C201 1.419 . S
C200 C198 1.415 1_565 S
C200 C205 1.425 1_565 S
C200 C207 1.409 . S
C201 H193 0.930 . S
C201 C199 1.419 . S
C201 C202 1.362 . S
C202 H194 0.930 . S
C202 C201 1.362 . S
C202 C205 1.409 . S
C203 H195 0.930 . S
C203 C204 1.355 . S
C203 C205 1.415 1_565 S
C204 C203 1.355 . S
C204 C206 1.419 . S
C205 C200 1.425 1_545 S
C205 C202 1.409 . S
C205 C203 1.415 1_545 S
C206 H196 0.930 . S
C206 C204 1.419 . S
C206 C207 1.362 . S
C207 H197 0.930 . S
C207 C200 1.409 . S
C207 C206 1.362 . S
H208 C214 0.930 . S
H209 C217 0.930 . S
H210 C218 0.930 1_455 S
H211 C219 0.930 . S
H212 C222 0.930 . S
H213 C223 0.930 1_655 S
C214 H208 0.930 . S
C214 C215 1.355 . S
C214 C216 1.415 . S
C215 C214 1.355 . S
C215 C217 1.419 . S
C216 C214 1.415 . S
C216 C221 1.425 1_654 S
C216 C223 1.409 1_654 S
C217 H209 0.930 . S
C217 C215 1.419 . S
C217 C218 1.362 . S
C218 H210 0.930 1_655 S
C218 C217 1.362 . S
C218 C221 1.409 1_654 S
C219 H211 0.930 . S
C219 C220 1.355 . S
C219 C221 1.415 . S
C220 C219 1.355 . S
C220 C222 1.419 . S
C221 C216 1.425 1_456 S
C221 C218 1.409 1_456 S
C221 C219 1.415 . S
C222 H212 0.930 . S
C222 C220 1.419 . S
C222 C223 1.362 . S
C223 H213 0.930 1_455 S
C223 C216 1.409 1_456 S
C223 C222 1.362 . S
H224 C230 0.930 . S
H225 C233 0.930 . S
H226 C234 0.930 . S
H227 C235 0.930 . S
H228 C238 0.930 . S
H229 C239 0.930 . S
C230 H224 0.930 . S
C230 C231 1.355 . S
C230 C232 1.415 . S
C231 C230 1.355 . S
C231 C233 1.419 . S
C232 C230 1.415 . S
C232 C237 1.425 1_545 S
C232 C239 1.409 1_545 S
C233 H225 0.930 . S
C233 C231 1.419 . S
C233 C234 1.362 . S
C234 H226 0.930 . S
C234 C233 1.362 . S
C234 C237 1.409 1_545 S
C235 H227 0.930 . S
C235 C236 1.355 . S
C235 C237 1.415 . S
C236 C235 1.355 . S
C236 C238 1.419 . S
C237 C232 1.425 1_565 S
C237 C234 1.409 1_565 S
C237 C235 1.415 . S
C238 H228 0.930 . S
C238 C236 1.419 . S
C238 C239 1.362 . S
C239 H229 0.930 . S
C239 C232 1.409 1_565 S
C239 C238 1.362 . S
H240 C246 0.930 . S
H241 C249 0.930 . S
H242 C250 0.930 . S
H243 C251 0.930 . S
H244 C254 0.930 . S
H245 C255 0.930 . S
C246 H240 0.930 . S
C246 C247 1.355 . S
C246 C248 1.415 . S
C247 C246 1.355 . S
C247 C249 1.419 . S
C248 C246 1.415 . S
C248 C253 1.425 . S
C248 C255 1.409 . S
C249 H241 0.930 . S
C249 C247 1.419 . S
C249 C250 1.362 . S
C250 H242 0.930 . S
C250 C249 1.362 . S
C250 C253 1.409 . S
C251 H243 0.930 . S
C251 C252 1.355 . S
C251 C253 1.415 . S
C252 C251 1.355 . S
C252 C254 1.419 . S
C253 C248 1.425 . S
C253 C250 1.409 . S
C253 C251 1.415 . S
C254 H244 0.930 . S
C254 C252 1.419 . S
C254 C255 1.362 . S
C255 H245 0.930 . S
C255 C248 1.409 . S
C255 C254 1.362 . S
H256 C262 0.930 . S
H257 C265 0.930 . S
H258 C266 0.930 . S
H259 C267 0.930 . S
H260 C270 0.930 . S
H261 C271 0.930 . S
C262 H256 0.930 . S
C262 C263 1.355 . S
C262 C264 1.415 . S
C263 C262 1.355 . S
C263 C265 1.419 . S
C264 C262 1.415 . S
C264 C269 1.425 . S
C264 C271 1.409 . S
C265 H257 0.930 . S
C265 C263 1.419 . S
C265 C266 1.362 . S
C266 H258 0.930 . S
C266 C265 1.362 . S
C266 C269 1.409 . S
C267 H259 0.930 . S
C267 C268 1.355 . S
C267 C269 1.415 . S
C268 C267 1.355 . S
C268 C270 1.419 . S
C269 C264 1.425 . S
C269 C266 1.409 . S
C269 C267 1.415 . S
C270 H260 0.930 . S
C270 C268 1.419 . S
C270 C271 1.362 . S
C271 H261 0.930 . S
C271 C264 1.409 . S
C271 C270 1.362 . S
H272 C278 0.930 . S
H273 C281 0.930 . S
H274 C282 0.930 . S
H275 C283 0.930 . S
H276 C286 0.930 . S
H277 C287 0.930 . S
C278 H272 0.930 . S
C278 C279 1.355 . S
C278 C280 1.415 . S
C279 C278 1.355 . S
C279 C281 1.419 . S
C280 C278 1.415 . S
C280 C285 1.425 . S
C280 C287 1.409 . S
C281 H273 0.930 . S
C281 C279 1.419 . S
C281 C282 1.362 . S
C282 H274 0.930 . S
C282 C281 1.362 . S
C282 C285 1.409 . S
C283 H275 0.930 . S
C283 C284 1.355 . S
C283 C285 1.415 . S
C284 C283 1.355 . S
C284 C286 1.419 . S
C285 C280 1.425 . S
C285 C282 1.409 . S
C285 C283 1.415 . S
C286 H276 0.930 . S
C286 C284 1.419 . S
C286 C287 1.362 . S
C287 H277 0.930 . S
C287 C280 1.409 . S
C287 C286 1.362 . S
H288 C294 0.930 . S
H289 C297 0.930 . S
H290 C298 0.930 . S
H291 C299 0.930 . S
H292 C302 0.930 . S
H293 C303 0.930 . S
C294 H288 0.930 . S
C294 C295 1.355 . S
C294 C296 1.415 . S
C295 C294 1.355 . S
C295 C297 1.419 . S
C296 C294 1.415 . S
C296 C301 1.425 . S
C296 C303 1.409 . S
C297 H289 0.930 . S
C297 C295 1.419 . S
C297 C298 1.362 . S
C298 H290 0.930 . S
C298 C297 1.362 . S
C298 C301 1.409 . S
C299 H291 0.930 . S
C299 C300 1.355 . S
C299 C301 1.415 . S
C300 C299 1.355 . S
C300 C302 1.419 . S
C301 C296 1.425 . S
C301 C298 1.409 . S
C301 C299 1.415 . S
C302 H292 0.930 . S
C302 C300 1.419 . S
C302 C303 1.362 . S
C303 H293 0.930 . S
C303 C296 1.409 . S
C303 C302 1.362 . S
H304 C310 0.930 . S
H305 C313 0.930 . S
H306 C314 0.930 1_565 S
H307 C315 0.930 . S
H308 C318 0.930 . S
H309 C319 0.930 1_545 S
C310 H304 0.930 . S
C310 C311 1.355 1_655 S
C310 C312 1.415 . S
C311 C310 1.355 1_455 S
C311 C313 1.419 . S
C312 C310 1.415 . S
C312 C317 1.425 1_645 S
C312 C319 1.409 1_545 S
C313 H305 0.930 . S
C313 C311 1.419 . S
C313 C314 1.362 . S
C314 H306 0.930 1_545 S
C314 C313 1.362 . S
C314 C317 1.409 1_545 S
C315 H307 0.930 . S
C315 C316 1.355 1_455 S
C315 C317 1.415 . S
C316 C315 1.355 1_655 S
C316 C318 1.419 . S
C317 C312 1.425 1_465 S
C317 C314 1.409 1_565 S
C317 C315 1.415 . S
C318 H308 0.930 . S
C318 C316 1.419 . S
C318 C319 1.362 . S
C319 H309 0.930 1_565 S
C319 C312 1.409 1_565 S
C319 C318 1.362 . S
H320 C326 0.930 . S
H321 C329 0.930 . S
H322 C330 0.930 . S
H323 C331 0.930 . S
H324 C334 0.930 . S
H325 C335 0.930 . S
C326 H320 0.930 . S
C326 C327 1.355 1_545 S
C326 C328 1.415 . S
C327 C326 1.355 1_565 S
C327 C329 1.419 . S
C328 C326 1.415 . S
C328 C333 1.425 1_445 S
C328 C335 1.409 1_455 S
C329 H321 0.930 . S
C329 C327 1.419 . S
C329 C330 1.362 . S
C330 H322 0.930 . S
C330 C329 1.362 . S
C330 C333 1.409 1_455 S
C331 H323 0.930 . S
C331 C332 1.355 1_565 S
C331 C333 1.415 . S
C332 C331 1.355 1_545 S
C332 C334 1.419 . S
C333 C328 1.425 1_665 S
C333 C330 1.409 1_655 S
C333 C331 1.415 . S
C334 H324 0.930 . S
C334 C332 1.419 . S
C334 C335 1.362 . S
C335 H325 0.930 . S
C335 C328 1.409 1_655 S
C335 C334 1.362 . S
H336 C342 0.930 . S
H337 C345 0.930 . S
H338 C346 0.930 1_565 S
H339 C347 0.930 . S
H340 C350 0.930 . S
H341 C351 0.930 1_545 S
C342 H336 0.930 . S
C342 C343 1.355 1_455 S
C342 C344 1.415 . S
C343 C342 1.355 1_655 S
C343 C345 1.419 . S
C344 C342 1.415 . S
C344 C349 1.425 1_445 S
C344 C351 1.409 1_545 S
C345 H337 0.930 . S
C345 C343 1.419 . S
C345 C346 1.362 . S
C346 H338 0.930 1_545 S
C346 C345 1.362 . S
C346 C349 1.409 1_545 S
C347 H339 0.930 . S
C347 C348 1.355 1_655 S
C347 C349 1.415 . S
C348 C347 1.355 1_455 S
C348 C350 1.419 . S
C349 C344 1.425 1_665 S
C349 C346 1.409 1_565 S
C349 C347 1.415 . S
C350 H340 0.930 . S
C350 C348 1.419 . S
C350 C351 1.362 . S
C351 H341 0.930 1_565 S
C351 C344 1.409 1_565 S
C351 C350 1.362 . S
H352 C358 0.930 . S
H353 C361 0.930 . S
H354 C362 0.930 . S
H355 C363 0.930 . S
H356 C366 0.930 . S
H357 C367 0.930 . S
C358 H352 0.930 . S
C358 C359 1.355 1_545 S
C358 C360 1.415 . S
C359 C358 1.355 1_565 S
C359 C361 1.419 . S
C360 C358 1.415 . S
C360 C365 1.425 1_645 S
C360 C367 1.409 1_655 S
C361 H353 0.930 . S
C361 C359 1.419 . S
C361 C362 1.362 . S
C362 H354 0.930 . S
C362 C361 1.362 . S
C362 C365 1.409 1_655 S
C363 H355 0.930 . S
C363 C364 1.355 1_565 S
C363 C365 1.415 . S
C364 C363 1.355 1_545 S
C364 C366 1.419 . S
C365 C360 1.425 1_465 S
C365 C362 1.409 1_455 S
C365 C363 1.415 . S
C366 H356 0.930 . S
C366 C364 1.419 . S
C366 C367 1.362 . S
C367 H357 0.930 . S
C367 C360 1.409 1_455 S
C367 C366 1.362 . S
C119 C11 1.416 . S
C124 C39 1.407 . S
C135 C53 1.413 . S
C140 C25 1.399 . S
C151 C95 1.409 . S
C156 C67 1.402 . S
C167 C81 1.405 . S
C172 C109 1.418 . S
C183 C93 1.564 . S
C188 C9 1.571 . S
C199 C23 1.620 . S
C204 C107 1.610 . S
C215 C37 1.606 . S
C220 C65 1.615 . S
C231 C79 1.618 . S
C236 C51 1.627 . S
C247 C0 1.491 . S
C252 C70 1.521 . S
C263 C84 1.469 . S
C268 C14 1.480 . S
C279 C98 1.468 . S
C284 C28 1.526 . S
C295 C42 1.514 . S
C300 C56 1.502 . S
C311 C5 1.012 . S
C316 C33 1.002 . S
C327 C47 1.002 . S
C332 C19 1.012 . S
C343 C89 1.010 . S
C348 C61 1.002 . S
C359 C103 1.040 . S
C364 C75 1.021 . S
