# Generated by pormake.
# Topology wip, (6)-cn, num edge types: 1
# Building blocks:
#     Node 0, Type 0, BuildingBlock: CUKXOW_clean_sbu_0, # of connection points: 6
#     Node 1, Type 0, BuildingBlock: CUKXOW_clean_sbu_0, # of connection points: 6
#     Node 2, Type 0, BuildingBlock: CUKXOW_clean_sbu_0, # of connection points: 6
#     Node 3, Type 0, BuildingBlock: CUKXOW_clean_sbu_0, # of connection points: 6
#     Node 4, Type 0, BuildingBlock: CUKXOW_clean_sbu_0, # of connection points: 6
#     Node 5, Type 0, BuildingBlock: CUKXOW_clean_sbu_0, # of connection points: 6
#     Node 6, Type 0, BuildingBlock: CUKXOW_clean_sbu_0, # of connection points: 6
#     Node 7, Type 0, BuildingBlock: CUKXOW_clean_sbu_0, # of connection points: 6
#     Node 8, Type 0, BuildingBlock: CUKXOW_clean_sbu_0, # of connection points: 6
#     Node 9, Type 0, BuildingBlock: CUKXOW_clean_sbu_0, # of connection points: 6
#     Node 10, Type 0, BuildingBlock: CUKXOW_clean_sbu_0, # of connection points: 6
#     Node 11, Type 0, BuildingBlock: CUKXOW_clean_sbu_0, # of connection points: 6
#     Node 12, Type 0, BuildingBlock: CUKXOW_clean_sbu_0, # of connection points: 6
#     Node 13, Type 0, BuildingBlock: CUKXOW_clean_sbu_0, # of connection points: 6
#     Node 14, Type 0, BuildingBlock: CUKXOW_clean_sbu_0, # of connection points: 6
#     Node 15, Type 0, BuildingBlock: CUKXOW_clean_sbu_0, # of connection points: 6
#     Node 16, Type 0, BuildingBlock: CUKXOW_clean_sbu_0, # of connection points: 6
#     Node 17, Type 0, BuildingBlock: CUKXOW_clean_sbu_0, # of connection points: 6
#     Node 18, Type 0, BuildingBlock: CUKXOW_clean_sbu_0, # of connection points: 6
#     Node 19, Type 0, BuildingBlock: CUKXOW_clean_sbu_0, # of connection points: 6
#     Node 20, Type 0, BuildingBlock: CUKXOW_clean_sbu_0, # of connection points: 6
#     Node 21, Type 0, BuildingBlock: CUKXOW_clean_sbu_0, # of connection points: 6
#     Node 22, Type 0, BuildingBlock: CUKXOW_clean_sbu_0, # of connection points: 6
#     Node 23, Type 0, BuildingBlock: CUKXOW_clean_sbu_0, # of connection points: 6
#     Node 24, Type 0, BuildingBlock: CUKXOW_clean_sbu_0, # of connection points: 6
#     Node 25, Type 0, BuildingBlock: CUKXOW_clean_sbu_0, # of connection points: 6
#     Node 26, Type 0, BuildingBlock: CUKXOW_clean_sbu_0, # of connection points: 6
#     Node 27, Type 0, BuildingBlock: CUKXOW_clean_sbu_0, # of connection points: 6
#     Node 28, Type 0, BuildingBlock: CUKXOW_clean_sbu_0, # of connection points: 6
#     Node 29, Type 0, BuildingBlock: CUKXOW_clean_sbu_0, # of connection points: 6
#     Node 30, Type 0, BuildingBlock: CUKXOW_clean_sbu_0, # of connection points: 6
#     Node 31, Type 0, BuildingBlock: CUKXOW_clean_sbu_0, # of connection points: 6
#     Edge 32, Type (0, 0), BuildingBlock: AJUNOK_clean_linker_0, # of connection points: 2
#     Edge 33, Type (0, 0), BuildingBlock: AJUNOK_clean_linker_0, # of connection points: 2
#     Edge 34, Type (0, 0), BuildingBlock: AJUNOK_clean_linker_0, # of connection points: 2
#     Edge 35, Type (0, 0), BuildingBlock: AJUNOK_clean_linker_0, # of connection points: 2
#     Edge 36, Type (0, 0), BuildingBlock: AJUNOK_clean_linker_0, # of connection points: 2
#     Edge 37, Type (0, 0), BuildingBlock: AJUNOK_clean_linker_0, # of connection points: 2
#     Edge 38, Type (0, 0), BuildingBlock: AJUNOK_clean_linker_0, # of connection points: 2
#     Edge 39, Type (0, 0), BuildingBlock: AJUNOK_clean_linker_0, # of connection points: 2
#     Edge 40, Type (0, 0), BuildingBlock: AJUNOK_clean_linker_0, # of connection points: 2
#     Edge 41, Type (0, 0), BuildingBlock: AJUNOK_clean_linker_0, # of connection points: 2
#     Edge 42, Type (0, 0), BuildingBlock: AJUNOK_clean_linker_0, # of connection points: 2
#     Edge 43, Type (0, 0), BuildingBlock: AJUNOK_clean_linker_0, # of connection points: 2
#     Edge 44, Type (0, 0), BuildingBlock: AJUNOK_clean_linker_0, # of connection points: 2
#     Edge 45, Type (0, 0), BuildingBlock: AJUNOK_clean_linker_0, # of connection points: 2
#     Edge 46, Type (0, 0), BuildingBlock: AJUNOK_clean_linker_0, # of connection points: 2
#     Edge 47, Type (0, 0), BuildingBlock: AJUNOK_clean_linker_0, # of connection points: 2
#     Edge 48, Type (0, 0), BuildingBlock: AJUNOK_clean_linker_0, # of connection points: 2
#     Edge 49, Type (0, 0), BuildingBlock: AJUNOK_clean_linker_0, # of connection points: 2
#     Edge 50, Type (0, 0), BuildingBlock: AJUNOK_clean_linker_0, # of connection points: 2
#     Edge 51, Type (0, 0), BuildingBlock: AJUNOK_clean_linker_0, # of connection points: 2
#     Edge 52, Type (0, 0), BuildingBlock: AJUNOK_clean_linker_0, # of connection points: 2
#     Edge 53, Type (0, 0), BuildingBlock: AJUNOK_clean_linker_0, # of connection points: 2
#     Edge 54, Type (0, 0), BuildingBlock: AJUNOK_clean_linker_0, # of connection points: 2
#     Edge 55, Type (0, 0), BuildingBlock: AJUNOK_clean_linker_0, # of connection points: 2
#     Edge 56, Type (0, 0), BuildingBlock: AJUNOK_clean_linker_0, # of connection points: 2
#     Edge 57, Type (0, 0), BuildingBlock: AJUNOK_clean_linker_0, # of connection points: 2
#     Edge 58, Type (0, 0), BuildingBlock: AJUNOK_clean_linker_0, # of connection points: 2
#     Edge 59, Type (0, 0), BuildingBlock: AJUNOK_clean_linker_0, # of connection points: 2
#     Edge 60, Type (0, 0), BuildingBlock: AJUNOK_clean_linker_0, # of connection points: 2
#     Edge 61, Type (0, 0), BuildingBlock: AJUNOK_clean_linker_0, # of connection points: 2
#     Edge 62, Type (0, 0), BuildingBlock: AJUNOK_clean_linker_0, # of connection points: 2
#     Edge 63, Type (0, 0), BuildingBlock: AJUNOK_clean_linker_0, # of connection points: 2
#     Edge 64, Type (0, 0), BuildingBlock: AJUNOK_clean_linker_0, # of connection points: 2
#     Edge 65, Type (0, 0), BuildingBlock: AJUNOK_clean_linker_0, # of connection points: 2
#     Edge 66, Type (0, 0), BuildingBlock: AJUNOK_clean_linker_0, # of connection points: 2
#     Edge 67, Type (0, 0), BuildingBlock: AJUNOK_clean_linker_0, # of connection points: 2
#     Edge 68, Type (0, 0), BuildingBlock: AJUNOK_clean_linker_0, # of connection points: 2
#     Edge 69, Type (0, 0), BuildingBlock: AJUNOK_clean_linker_0, # of connection points: 2
#     Edge 70, Type (0, 0), BuildingBlock: AJUNOK_clean_linker_0, # of connection points: 2
#     Edge 71, Type (0, 0), BuildingBlock: AJUNOK_clean_linker_0, # of connection points: 2
#     Edge 72, Type (0, 0), BuildingBlock: AJUNOK_clean_linker_0, # of connection points: 2
#     Edge 73, Type (0, 0), BuildingBlock: AJUNOK_clean_linker_0, # of connection points: 2
#     Edge 74, Type (0, 0), BuildingBlock: AJUNOK_clean_linker_0, # of connection points: 2
#     Edge 75, Type (0, 0), BuildingBlock: AJUNOK_clean_linker_0, # of connection points: 2
#     Edge 76, Type (0, 0), BuildingBlock: AJUNOK_clean_linker_0, # of connection points: 2
#     Edge 77, Type (0, 0), BuildingBlock: AJUNOK_clean_linker_0, # of connection points: 2
#     Edge 78, Type (0, 0), BuildingBlock: AJUNOK_clean_linker_0, # of connection points: 2
#     Edge 79, Type (0, 0), BuildingBlock: AJUNOK_clean_linker_0, # of connection points: 2
#     Edge 80, Type (0, 0), BuildingBlock: AJUNOK_clean_linker_0, # of connection points: 2
#     Edge 81, Type (0, 0), BuildingBlock: AJUNOK_clean_linker_0, # of connection points: 2
#     Edge 82, Type (0, 0), BuildingBlock: AJUNOK_clean_linker_0, # of connection points: 2
#     Edge 83, Type (0, 0), BuildingBlock: AJUNOK_clean_linker_0, # of connection points: 2
#     Edge 84, Type (0, 0), BuildingBlock: AJUNOK_clean_linker_0, # of connection points: 2
#     Edge 85, Type (0, 0), BuildingBlock: AJUNOK_clean_linker_0, # of connection points: 2
#     Edge 86, Type (0, 0), BuildingBlock: AJUNOK_clean_linker_0, # of connection points: 2
#     Edge 87, Type (0, 0), BuildingBlock: AJUNOK_clean_linker_0, # of connection points: 2
#     Edge 88, Type (0, 0), BuildingBlock: AJUNOK_clean_linker_0, # of connection points: 2
#     Edge 89, Type (0, 0), BuildingBlock: AJUNOK_clean_linker_0, # of connection points: 2
#     Edge 90, Type (0, 0), BuildingBlock: AJUNOK_clean_linker_0, # of connection points: 2
#     Edge 91, Type (0, 0), BuildingBlock: AJUNOK_clean_linker_0, # of connection points: 2
#     Edge 92, Type (0, 0), BuildingBlock: AJUNOK_clean_linker_0, # of connection points: 2
#     Edge 93, Type (0, 0), BuildingBlock: AJUNOK_clean_linker_0, # of connection points: 2
#     Edge 94, Type (0, 0), BuildingBlock: AJUNOK_clean_linker_0, # of connection points: 2
#     Edge 95, Type (0, 0), BuildingBlock: AJUNOK_clean_linker_0, # of connection points: 2
#     Edge 96, Type (0, 0), BuildingBlock: AJUNOK_clean_linker_0, # of connection points: 2
#     Edge 97, Type (0, 0), BuildingBlock: AJUNOK_clean_linker_0, # of connection points: 2
#     Edge 98, Type (0, 0), BuildingBlock: AJUNOK_clean_linker_0, # of connection points: 2
#     Edge 99, Type (0, 0), BuildingBlock: AJUNOK_clean_linker_0, # of connection points: 2
#     Edge 100, Type (0, 0), BuildingBlock: AJUNOK_clean_linker_0, # of connection points: 2
#     Edge 101, Type (0, 0), BuildingBlock: AJUNOK_clean_linker_0, # of connection points: 2
#     Edge 102, Type (0, 0), BuildingBlock: AJUNOK_clean_linker_0, # of connection points: 2
#     Edge 103, Type (0, 0), BuildingBlock: AJUNOK_clean_linker_0, # of connection points: 2
#     Edge 104, Type (0, 0), BuildingBlock: AJUNOK_clean_linker_0, # of connection points: 2
#     Edge 105, Type (0, 0), BuildingBlock: AJUNOK_clean_linker_0, # of connection points: 2
#     Edge 106, Type (0, 0), BuildingBlock: AJUNOK_clean_linker_0, # of connection points: 2
#     Edge 107, Type (0, 0), BuildingBlock: AJUNOK_clean_linker_0, # of connection points: 2
#     Edge 108, Type (0, 0), BuildingBlock: AJUNOK_clean_linker_0, # of connection points: 2
#     Edge 109, Type (0, 0), BuildingBlock: AJUNOK_clean_linker_0, # of connection points: 2
#     Edge 110, Type (0, 0), BuildingBlock: AJUNOK_clean_linker_0, # of connection points: 2
#     Edge 111, Type (0, 0), BuildingBlock: AJUNOK_clean_linker_0, # of connection points: 2
#     Edge 112, Type (0, 0), BuildingBlock: AJUNOK_clean_linker_0, # of connection points: 2
#     Edge 113, Type (0, 0), BuildingBlock: AJUNOK_clean_linker_0, # of connection points: 2
#     Edge 114, Type (0, 0), BuildingBlock: AJUNOK_clean_linker_0, # of connection points: 2
#     Edge 115, Type (0, 0), BuildingBlock: AJUNOK_clean_linker_0, # of connection points: 2
#     Edge 116, Type (0, 0), BuildingBlock: AJUNOK_clean_linker_0, # of connection points: 2
#     Edge 117, Type (0, 0), BuildingBlock: AJUNOK_clean_linker_0, # of connection points: 2
#     Edge 118, Type (0, 0), BuildingBlock: AJUNOK_clean_linker_0, # of connection points: 2
#     Edge 119, Type (0, 0), BuildingBlock: AJUNOK_clean_linker_0, # of connection points: 2
#     Edge 120, Type (0, 0), BuildingBlock: AJUNOK_clean_linker_0, # of connection points: 2
#     Edge 121, Type (0, 0), BuildingBlock: AJUNOK_clean_linker_0, # of connection points: 2
#     Edge 122, Type (0, 0), BuildingBlock: AJUNOK_clean_linker_0, # of connection points: 2
#     Edge 123, Type (0, 0), BuildingBlock: AJUNOK_clean_linker_0, # of connection points: 2
#     Edge 124, Type (0, 0), BuildingBlock: AJUNOK_clean_linker_0, # of connection points: 2
#     Edge 125, Type (0, 0), BuildingBlock: AJUNOK_clean_linker_0, # of connection points: 2
#     Edge 126, Type (0, 0), BuildingBlock: AJUNOK_clean_linker_0, # of connection points: 2
#     Edge 127, Type (0, 0), BuildingBlock: AJUNOK_clean_linker_0, # of connection points: 2
# Relax obj value: 0.217
# Max RMSD: 0.187
# Mean RMSD: 0.180
data_MOF--net-wip--node1-CUKXOW_clean_sbu_0--edge1-AJUNOK_clean_linker_0
_symmetry_space_group_name_H-M    P1
_symmetry_Int_Tables_number       1
_symmetry_cell_setting            triclinic
loop_
_symmetry_equiv_pos_as_xyz
'x, y, z'
_cell_length_a     42.491578
_cell_length_b     57.241267
_cell_length_c     20.128242
_cell_angle_alpha  86.917323
_cell_angle_beta   89.877408
_cell_angle_gamma 89.971027
loop_
_atom_site_label
_atom_site_type_symbol
_atom_site_fract_x
_atom_site_fract_y
_atom_site_fract_z
_atom_type_partial_charge
Tb0 Tb 0.08976 0.45314 0.17245 0.0
C1 C 0.04313 0.48346 0.08781 0.0
Tb2 Tb 0.04955 0.43071 0.06186 0.0
O3 O 0.1215 0.47194 0.10331 0.0
O4 O 0.09651 0.44336 0.07277 0.0
O5 O 0.05418 0.47806 0.14804 0.0
C6 C 0.01847 0.4213 0.94869 0.0
O7 O 0.04397 0.46825 1.04067 0.0
C8 C 0.02606 0.42622 0.1848 0.0
C9 C 0.09261 0.3984 0.15589 0.0
O10 O 0.00625 0.42944 1.00194 0.0
O11 O 0.04848 0.41813 0.95955 0.0
O12 O 0.01991 0.41212 0.138 0.0
O13 O 0.04188 0.44309 0.15884 0.0
O14 O 0.07622 0.39991 0.09917 0.0
O15 O 0.10029 0.41665 0.19023 0.0
C16 C 0.10762 0.46928 0.29042 0.0
O17 O 0.10127 0.44764 0.27913 0.0
O18 O 0.10465 0.48158 0.23482 0.0
C19 C 0.11234 0.46114 0.05165 0.0
Tb20 Tb 0.75934 0.8137 0.46012 0.0
C21 C 0.82627 0.82864 0.51296 0.0
Tb22 Tb 0.79233 0.78447 0.5828 0.0
O23 O 0.7317 0.83579 0.52621 0.0
O24 O 0.77047 0.81774 0.5617 0.0
O25 O 0.8052 0.83092 0.46379 0.0
C26 C 0.818 0.76418 0.69606 0.0
O27 O 0.82448 0.81316 0.56437 0.0
C28 C 0.80426 0.77128 0.46035 0.0
C29 C 0.72007 0.78398 0.55915 0.0
O30 O 0.81815 0.78633 0.67774 0.0
O31 O 0.8024 0.75346 0.65096 0.0
O32 O 0.82291 0.76777 0.51067 0.0
O33 O 0.77885 0.77964 0.48156 0.0
O34 O 0.74233 0.78059 0.60488 0.0
O35 O 0.72695 0.78714 0.49507 0.0
C36 C 0.73521 0.82226 0.33428 0.0
O37 O 0.72102 0.82533 0.39053 0.0
O38 O 0.76374 0.81533 0.34935 0.0
C39 C 0.74715 0.82963 0.58054 0.0
Tb40 Tb 0.37025 0.51792 0.66852 0.0
C41 C 0.35227 0.56259 0.74361 0.0
Tb42 Tb 0.41254 0.53211 0.79036 0.0
O43 O 0.34588 0.49009 0.72931 0.0
O44 O 0.36756 0.51799 0.77225 0.0
O45 O 0.34861 0.55159 0.68709 0.0
C46 C 0.43994 0.54036 0.90848 0.0
O47 O 0.37367 0.55689 0.79039 0.0
C48 C 0.43817 0.5384 0.66878 0.0
C49 C 0.41882 0.48313 0.73935 0.0
O50 O 0.42984 0.55635 0.86492 0.0
O51 O 0.43401 0.52005 0.88569 0.0
O52 O 0.4539 0.53528 0.72364 0.0
O53 O 0.40956 0.54016 0.68489 0.0
O54 O 0.41784 0.49466 0.79421 0.0
O55 O 0.40565 0.49141 0.68352 0.0
C56 C 0.36463 0.50583 0.54261 0.0
O57 O 0.34075 0.51009 0.58149 0.0
O58 O 0.39048 0.50957 0.57421 0.0
C59 C 0.35379 0.4989 0.78522 0.0
Tb60 Tb 0.66 0.19183 0.92819 0.0
C61 C 0.61708 0.16484 1.03365 0.0
Tb62 Tb 0.62299 0.21997 1.03507 0.0
O63 O 0.68866 0.1745 1.007 0.0
O64 O 0.67017 0.20755 1.02061 0.0
O65 O 0.62912 0.16475 0.97222 0.0
C66 C 0.61385 0.24271 0.14859 0.0
O67 O 0.61514 0.18383 0.06851 0.0
C68 C 0.59652 0.22164 0.91391 0.0
C69 C 0.65749 0.24764 0.92032 0.0
O70 O 0.59339 0.22918 0.12109 0.0
O71 O 0.63915 0.24308 0.11226 0.0
O72 O 0.58888 0.235 0.96206 0.0
O73 O 0.61402 0.20574 0.94093 0.0
O74 O 0.64563 0.24827 0.98095 0.0
O75 O 0.66213 0.22791 0.88981 0.0
C76 C 0.69089 0.17754 0.81763 0.0
O77 O 0.70144 0.19167 0.86093 0.0
O78 O 0.66278 0.17106 0.83761 0.0
C79 C 0.68448 0.19039 0.04969 0.0
Tb80 Tb 0.09351 0.52345 0.67147 0.0
C81 C 0.04824 0.49026 0.75009 0.0
Tb82 Tb 0.05134 0.54279 0.78502 0.0
O83 O 0.12456 0.50356 0.7397 0.0
O84 O 0.09858 0.53117 0.77337 0.0
O85 O 0.05939 0.49703 0.69091 0.0
C86 C 0.0203 0.5502 0.90066 0.0
O87 O 0.04725 0.50474 0.79937 0.0
C88 C 0.02815 0.54866 0.66222 0.0
C89 C 0.09653 0.57716 0.69887 0.0
O90 O 0.00894 0.54056 0.84886 0.0
O91 O 0.04947 0.55586 0.88708 0.0
O92 O 0.02081 0.56157 0.71115 0.0
O93 O 0.04504 0.53202 0.68602 0.0
O94 O 0.07778 0.57451 0.75231 0.0
O95 O 0.10566 0.55985 0.66224 0.0
C96 C 0.11182 0.50889 0.55187 0.0
O97 O 0.11431 0.49723 0.60866 0.0
O98 O 0.10019 0.52935 0.56292 0.0
C99 C 0.11443 0.51322 0.79266 0.0
Tb100 Tb 0.65462 0.79671 0.95044 0.0
C101 C 0.61067 0.81798 0.83658 0.0
Tb102 Tb 0.62933 0.76372 0.8339 0.0
O103 O 0.6916 0.81498 0.89026 0.0
O104 O 0.66428 0.78997 0.84944 0.0
O105 O 0.62082 0.82 0.89916 0.0
C106 C 0.61871 0.73908 0.72386 0.0
O107 O 0.61187 0.79843 0.80324 0.0
C108 C 0.60612 0.75443 0.95782 0.0
C109 C 0.686 0.75161 0.91906 0.0
O110 O 0.60234 0.75695 0.7424 0.0
O111 O 0.64119 0.73556 0.76686 0.0
O112 O 0.60554 0.74035 0.90935 0.0
O113 O 0.61614 0.77363 0.93181 0.0
O114 O 0.67622 0.75138 0.857 0.0
O115 O 0.66744 0.76035 0.96325 0.0
C116 C 0.67694 0.81158 0.06913 0.0
O117 O 0.69309 0.80374 1.02029 0.0
O118 O 0.64731 0.81115 0.05095 0.0
C119 C 0.68614 0.80455 0.8358 0.0
Tb120 Tb 0.38626 0.4477 0.16703 0.0
C121 C 0.39245 0.39696 0.11179 0.0
Tb122 Tb 0.43602 0.43714 0.04537 0.0
O123 O 0.34811 0.45933 0.09934 0.0
O124 O 0.38771 0.44257 0.06548 0.0
O125 O 0.38166 0.40985 0.1607 0.0
C126 C 0.46627 0.43026 0.92986 0.0
O127 O 0.41202 0.40419 0.06302 0.0
C128 C 0.46122 0.43182 0.16849 0.0
C129 C 0.42163 0.4867 0.08648 0.0
O130 O 0.43941 0.42095 0.94831 0.0
O131 O 0.47549 0.44373 0.97585 0.0
O132 O 0.47586 0.42808 0.11336 0.0
O133 O 0.43413 0.4386 0.15028 0.0
O134 O 0.42376 0.47412 1.03338 0.0
O135 O 0.39746 0.48288 0.12692 0.0
C136 C 0.37485 0.46088 0.29018 0.0
O137 O 0.40107 0.46339 0.25739 0.0
O138 O 0.35453 0.45009 0.25389 0.0
C139 C 0.3629 0.45291 0.04613 0.0
Tb140 Tb 0.77529 0.17627 0.43142 0.0
C141 C 0.81386 0.1488 0.32976 0.0
Tb142 Tb 0.81231 0.20483 0.31527 0.0
O143 O 0.74066 0.16343 0.35813 0.0
O144 O 0.76592 0.19319 0.33604 0.0
O145 O 0.80178 0.14772 0.39124 0.0
C146 C 0.8331 0.22041 0.19495 0.0
O147 O 0.81828 0.16851 0.29305 0.0
C148 C 0.84147 0.20218 0.43106 0.0
C149 C 0.76314 0.22832 0.40358 0.0
O150 O 0.8227 0.19956 0.21084 0.0
O151 O 0.83187 0.23265 0.24735 0.0
O152 O 0.84863 0.21668 0.38152 0.0
O153 O 0.82228 0.18754 0.40892 0.0
O154 O 0.77658 0.23014 0.34384 0.0
O155 O 0.77616 0.21364 0.44754 0.0
C156 C 0.75216 0.16513 0.55694 0.0
O157 O 0.73661 0.165 0.50125 0.0
O158 O 0.78083 0.1709 0.54096 0.0
C159 C 0.74772 0.1789 0.31047 0.0
Tb160 Tb 0.93524 0.54518 0.28375 0.0
C161 C 0.8855 0.57569 0.20042 0.0
Tb162 Tb 0.89252 0.52177 0.17496 0.0
O163 O 0.96175 0.5665 0.20751 0.0
O164 O 0.93835 0.53691 0.18206 0.0
O165 O 0.90315 0.57414 0.25561 0.0
C166 C 0.88006 0.50504 0.05776 0.0
O167 O 0.88066 0.55821 0.16094 0.0
C168 C 0.87466 0.51229 0.29743 0.0
C169 C 0.94653 0.49422 0.2393 0.0
O170 O 0.85914 0.51545 0.09351 0.0
O171 O 0.90673 0.50437 0.0884 0.0
O172 O 0.86334 0.50188 0.24669 0.0
O173 O 0.88993 0.53006 0.27529 0.0
O174 O 0.91907 0.49145 0.21106 0.0
O175 O 0.94778 0.50787 0.29035 0.0
C176 C 0.96386 0.55197 0.40213 0.0
O177 O 0.97698 0.5451 0.3484 0.0
O178 O 0.93424 0.55595 0.38874 0.0
C179 C 0.95279 0.5547 0.15703 0.0
Tb180 Tb 0.18528 0.19271 0.79682 0.0
C181 C 0.25801 0.1959 0.81953 0.0
Tb182 Tb 0.21684 0.16385 0.91886 0.0
O183 O 0.15393 0.2095 0.86669 0.0
O184 O 0.19805 0.19812 0.89816 0.0
O185 O 0.23468 0.19981 0.77648 0.0
C186 C 0.23765 0.15808 0.0471 0.0
O187 O 0.2533 0.1871 0.88145 0.0
C188 C 0.23143 0.14909 0.79965 0.0
C189 C 0.14994 0.14898 0.86603 0.0
O190 O 0.24965 0.14846 0.99555 0.0
O191 O 0.21295 0.16975 1.02632 0.0
O192 O 0.24648 0.14291 0.8545 0.0
O193 O 0.20688 0.15976 0.81753 0.0
O194 O 0.17169 0.14555 0.91343 0.0
O195 O 0.15174 0.16504 0.81624 0.0
C196 C 0.16045 0.21029 0.68128 0.0
O197 O 0.16412 0.18831 0.69868 0.0
O198 O 0.17173 0.22258 0.72844 0.0
C199 C 0.17221 0.20643 0.91785 0.0
Tb200 Tb 0.54768 0.44357 0.55058 0.0
C201 C 0.52763 0.48712 0.61929 0.0
Tb202 Tb 0.58941 0.46545 0.67343 0.0
O203 O 0.51732 0.4219 0.61932 0.0
O204 O 0.55422 0.43994 0.65522 0.0
O205 O 0.53216 0.47921 0.55957 0.0
C206 C 0.59837 0.48073 0.79531 0.0
O207 O 0.55224 0.4911 0.65683 0.0
C208 C 0.60312 0.48254 0.55325 0.0
C209 C 0.61287 0.42126 0.59863 0.0
O210 O 0.57162 0.47769 0.76641 0.0
O211 O 0.62092 0.474 0.75637 0.0
O212 O 0.61736 0.48942 0.60617 0.0
O213 O 0.58328 0.46751 0.57187 0.0
O214 O 0.6142 0.43281 0.65484 0.0
O215 O 0.59061 0.42352 0.55206 0.0
C216 C 0.52207 0.43558 0.43048 0.0
O217 O 0.55204 0.43746 0.44302 0.0
O218 O 0.50701 0.43772 0.4858 0.0
C219 C 0.53119 0.42731 0.67405 0.0
Tb220 Tb 0.35473 0.75304 0.31278 0.0
C221 C 0.29813 0.74434 0.40054 0.0
Tb222 Tb 0.32928 0.79045 0.41714 0.0
O223 O 0.37803 0.73148 0.39316 0.0
O224 O 0.36683 0.76527 0.40926 0.0
O225 O 0.30727 0.74213 0.33857 0.0
C226 C 0.30452 0.80813 0.52985 0.0
O227 O 0.31715 0.75452 0.44051 0.0
C228 C 0.29912 0.79462 0.29954 0.0
C229 C 0.37557 0.80712 0.3011 0.0
O230 O 0.2896 0.79771 0.48373 0.0
O231 O 0.33422 0.80911 0.5119 0.0
O232 O 0.29342 0.80709 0.35019 0.0
O233 O 0.3205 0.78033 0.31864 0.0
O234 O 0.36376 0.81182 0.3609 0.0
O235 O 0.37408 0.78638 0.27381 0.0
C236 C 0.36552 0.72565 0.20848 0.0
O237 O 0.38305 0.74301 0.22589 0.0
O238 O 0.34185 0.72412 0.24949 0.0
C239 C 0.3767 0.74651 0.43929 0.0
Tb240 Tb 0.93282 0.42832 0.56569 0.0
C241 C 0.88089 0.39829 0.64693 0.0
Tb242 Tb 0.88985 0.45153 0.67866 0.0
O243 O 0.96902 0.41295 0.63481 0.0
O244 O 0.93201 0.43181 0.66892 0.0
O245 O 0.89904 0.40005 0.59206 0.0
C246 C 0.87918 0.46675 0.7982 0.0
O247 O 0.87513 0.41564 0.68666 0.0
C248 C 0.87435 0.46305 0.55576 0.0
C249 C 0.94581 0.47745 0.61889 0.0
O250 O 0.85684 0.46 0.75891 0.0
O251 O 0.90633 0.46413 0.77029 0.0
O252 O 0.86378 0.47371 0.60689 0.0
O253 O 0.88802 0.44441 0.57668 0.0
O254 O 0.9197 0.48083 0.65162 0.0
O255 O 0.94435 0.46552 0.56464 0.0
C256 C 0.96044 0.42554 0.44407 0.0
O257 O 0.96098 0.44303 0.48219 0.0
O258 O 0.94355 0.40907 0.47437 0.0
C259 C 0.95587 0.42019 0.68869 0.0
Tb260 Tb 0.36071 0.20343 0.54495 0.0
C261 C 0.31409 0.2296 0.45244 0.0
Tb262 Tb 0.32395 0.1762 0.42965 0.0
O263 O 0.38947 0.22323 0.46973 0.0
O264 O 0.36804 0.19266 0.44605 0.0
O265 O 0.32636 0.22814 0.51216 0.0
C266 C 0.29749 0.16659 0.31097 0.0
O267 O 0.31749 0.21333 0.40877 0.0
C268 C 0.29324 0.17407 0.54539 0.0
C269 C 0.365 0.14802 0.53939 0.0
O270 O 0.2857 0.17914 0.35672 0.0
O271 O 0.32484 0.15877 0.33267 0.0
O272 O 0.28359 0.16438 0.49219 0.0
O273 O 0.31848 0.18464 0.52922 0.0
O274 O 0.34972 0.14725 0.48109 0.0
O275 O 0.37197 0.16736 0.57015 0.0
C276 C 0.36477 0.2249 0.66064 0.0
O277 O 0.38727 0.21246 0.63516 0.0
O278 O 0.34065 0.22469 0.62149 0.0
C279 C 0.38222 0.21036 0.42028 0.0
Tb280 Tb 0.52983 0.54074 0.28529 0.0
C281 C 0.53647 0.49201 0.22926 0.0
Tb282 Tb 0.57846 0.53312 0.16815 0.0
O283 O 0.49635 0.5577 0.21321 0.0
O284 O 0.52878 0.5344 0.18139 0.0
O285 O 0.53568 0.50298 0.28516 0.0
C286 C 0.59881 0.52828 1.04342 0.0
O287 O 0.55581 0.4992 0.18045 0.0
C288 C 0.59889 0.52273 0.28722 0.0
C289 C 0.57678 0.58165 0.23972 0.0
O290 O 0.61268 0.51996 0.09714 0.0
O291 O 0.57479 0.54069 0.06078 0.0
O292 O 0.611 0.51383 0.23469 0.0
O293 O 0.57898 0.53814 0.26997 0.0
O294 O 0.5869 0.5702 0.18735 0.0
O295 O 0.55642 0.57274 0.28452 0.0
C296 C 0.49908 0.54104 0.40448 0.0
O297 O 0.48884 0.54981 0.3477 0.0
O298 O 0.52654 0.53202 0.3937 0.0
C299 C 0.5083 0.54889 0.16057 0.0
Tb300 Tb 0.17615 0.79305 1.03221 0.0
C301 C 0.24026 0.77271 0.99228 0.0
Tb302 Tb 0.21937 0.81704 0.91552 0.0
O303 O 0.13989 0.78497 0.95718 0.0
O304 O 0.18591 0.78927 0.92962 0.0
O305 O 0.22075 0.77493 1.04281 0.0
C306 C 0.24429 0.82426 0.79017 0.0
O307 O 0.23353 0.78119 0.93203 0.0
C308 C 0.24194 0.82061 1.03899 0.0
C309 C 0.16887 0.84721 0.98834 0.0
O310 O 0.25915 0.82527 0.84634 0.0
O311 O 0.21469 0.82072 0.80507 0.0
O312 O 0.25834 0.82459 0.98457 0.0
O313 O 0.2137 0.81782 1.02034 0.0
O314 O 0.18591 0.84518 0.93301 0.0
O315 O 0.16392 0.82979 1.03383 0.0
C316 C 0.15271 0.77202 0.14629 0.0
O317 O 0.14748 0.79359 0.1254 0.0
O318 O 0.17051 0.76269 0.10223 0.0
C319 C 0.15884 0.78637 0.90631 0.0
Tb320 Tb 0.61453 0.95373 0.66402 0.0
C321 C 0.57673 0.98708 0.56531 0.0
Tb322 Tb 0.56987 0.93253 0.55262 0.0
O323 O 0.64856 0.9697 0.59438 0.0
O324 O 0.61759 0.9444 0.5636 0.0
O325 O 0.5895 0.9838 0.62502 0.0
C326 C 0.54066 0.91896 0.44232 0.0
O327 O 0.57039 0.96978 0.52584 0.0
C328 C 0.54265 0.93349 0.67344 0.0
C329 C 0.60821 0.89878 0.65401 0.0
O330 O 0.52913 0.93257 0.48582 0.0
O331 O 0.56927 0.91314 0.46046 0.0
O332 O 0.52898 0.92589 0.62118 0.0
O333 O 0.56907 0.94063 0.65258 0.0
O334 O 0.59062 0.90043 0.59882 0.0
O335 O 0.61964 0.91687 0.68466 0.0
C336 C 0.62246 0.97134 0.78163 0.0
O337 O 0.64438 0.96015 0.75052 0.0
O338 O 0.59698 0.97239 0.74635 0.0
C339 C 0.63665 0.96041 0.54219 0.0
Tb340 Tb 0.27636 0.29525 0.92908 0.0
C341 C 0.32948 0.31955 1.00871 0.0
Tb342 Tb 0.31738 0.26532 1.04072 0.0
O343 O 0.25521 0.31594 1.00587 0.0
O344 O 0.27278 0.28229 1.02967 0.0
O345 O 0.311 0.32129 0.95507 0.0
C346 C 0.34002 0.24796 0.15876 0.0
O347 O 0.33283 0.30076 0.04941 0.0
C348 C 0.3437 0.26385 0.91968 0.0
C349 C 0.26515 0.24373 0.96464 0.0
O350 O 0.33402 0.26981 0.14265 0.0
O351 O 0.33277 0.23575 0.10826 0.0
O352 O 0.35466 0.25376 0.97421 0.0
O353 O 0.31922 0.27493 0.93695 0.0
O354 O 0.27872 0.24182 1.02356 0.0
O355 O 0.24988 0.26322 0.94981 0.0
C356 C 0.24923 0.30517 0.80697 0.0
O357 O 0.235 0.30449 0.86437 0.0
O358 O 0.2788 0.30111 0.81939 0.0
C359 C 0.26168 0.30043 0.0544 0.0
Tb360 Tb 0.86517 0.01551 0.16134 0.0
C361 C 0.85729 0.06645 0.21716 0.0
Tb362 Tb 0.90949 0.03238 0.27503 0.0
O363 O 0.83532 -0.00562 0.23005 0.0
O364 O 0.86163 0.02238 0.26236 0.0
O365 O 0.8485 0.05159 0.17173 0.0
C366 C 0.94193 0.03924 0.38898 0.0
O367 O 0.87916 0.06218 0.26303 0.0
C368 C 0.92989 0.03902 0.14942 0.0
C369 C 0.90935 0.98047 0.24076 0.0
O370 O 0.9119 0.04229 0.37988 0.0
O371 O 0.9536 0.03235 0.3335 0.0
O372 O 0.93747 0.0522 0.19757 0.0
O373 O 0.91376 0.02241 0.17476 0.0
O374 O 0.90859 -0.00517 0.28994 0.0
O375 O 0.89671 0.98645 0.18199 0.0
C376 C 0.85153 0.00789 1.03405 0.0
O377 O 0.84167 -0.00472 0.08573 0.0
O378 O 0.86725 0.02552 0.05503 0.0
C379 C 0.84502 0.00498 0.28217 0.0
Tb380 Tb 0.18079 0.68857 0.45031 0.0
C381 C 0.12866 0.66278 0.54778 0.0
Tb382 Tb 0.13527 0.71773 0.54245 0.0
O383 O 0.22045 0.69171 0.51949 0.0
O384 O 0.1745 0.69401 0.5527 0.0
O385 O 0.1521 0.66114 0.50319 0.0
C386 C 0.13653 0.74078 0.65502 0.0
O387 O 0.1171 0.68296 0.56729 0.0
C388 C 0.12369 0.72447 0.40983 0.0
C389 C 0.18422 0.74433 0.45569 0.0
O390 O 0.11058 0.73304 0.62806 0.0
O391 O 0.16012 0.73557 0.6178 0.0
O392 O 0.10946 0.73556 0.45687 0.0
O393 O 0.13911 0.70847 0.44195 0.0
O394 O 0.16685 0.7446 0.5094 0.0
O395 O 0.19072 0.72514 0.42388 0.0
C396 C 0.20509 0.66477 0.34685 0.0
O397 O 0.22066 0.6766 0.38935 0.0
O398 O 0.17553 0.66596 0.36416 0.0
C399 C 0.20296 0.69645 0.57025 0.0
Tb400 Tb 0.6058 0.02071 0.16561 0.0
C401 C 0.56896 0.98662 0.2647 0.0
Tb402 Tb 0.5597 0.04047 0.27695 0.0
O403 O 0.63967 0.00475 0.23496 0.0
O404 O 0.60838 0.03007 0.26627 0.0
O405 O 0.58076 -0.00963 0.20397 0.0
C406 C 0.52721 0.05144 0.38667 0.0
O407 O 0.56361 0.00361 0.30551 0.0
C408 C 0.53293 0.03817 0.15562 0.0
C409 C 0.59791 0.0756 0.17897 0.0
O410 O 0.51865 0.03679 0.34318 0.0
O411 O 0.55473 0.05993 0.3687 0.0
O412 O 0.51859 0.04539 0.20768 0.0
O413 O 0.55981 0.0325 0.17672 0.0
O414 O 0.58059 0.07305 0.2346 0.0
O415 O 0.60941 0.05795 0.14611 0.0
C416 C 0.61747 0.00418 0.04777 0.0
O417 O 0.63802 0.01555 0.08183 0.0
O418 O 0.59115 0.00237 0.08023 0.0
C419 C 0.62814 0.0144 0.28698 0.0
Tb420 Tb 0.16411 0.28989 0.42307 0.0
C421 C 0.11642 0.31344 0.31686 0.0
Tb422 Tb 0.13805 0.25991 0.30183 0.0
O423 O 0.20817 0.29788 0.36616 0.0
O424 O 0.16814 0.28824 0.31908 0.0
O425 O 0.1319 0.31551 0.37472 0.0
C426 C 0.14471 0.24244 0.18059 0.0
O427 O 0.11536 0.29395 0.2828 0.0
C428 C 0.11505 0.24705 0.42314 0.0
C429 C 0.18978 0.24228 0.39777 0.0
O430 O 0.11771 0.24756 0.20818 0.0
O431 O 0.16703 0.24712 0.22161 0.0
O432 O 0.11366 0.2344 0.37097 0.0
O433 O 0.12612 0.26665 0.40185 0.0
O434 O 0.18099 0.24319 0.33509 0.0
O435 O 0.17455 0.25381 0.44187 0.0
C436 C 0.18896 0.30185 0.54151 0.0
O437 O 0.2036 0.29342 0.49162 0.0
O438 O 0.15942 0.30464 0.52368 0.0
C439 C 0.19674 0.29228 0.30956 0.0
Tb440 Tb 0.89542 0.95389 0.66014 0.0
C441 C 0.89913 0.90237 0.6084 0.0
Tb442 Tb 0.94658 0.93958 0.5444 0.0
O443 O 0.85715 0.96432 0.59223 0.0
O444 O 0.89893 0.95064 0.55752 0.0
O445 O 0.88932 0.91609 0.65616 0.0
C446 C 0.97877 0.92833 0.43373 0.0
O447 O 0.92019 0.90794 0.56138 0.0
C448 C 0.969 0.93629 0.67112 0.0
C449 C 0.93715 -0.01021 0.58038 0.0
O450 O 0.94904 0.92413 0.44552 0.0
O451 O 0.98966 0.93932 0.48347 0.0
O452 O 0.98515 0.93254 0.61787 0.0
O453 O 0.94193 0.94134 0.64939 0.0
O454 O 0.93805 0.9768 0.52813 0.0
O455 O 0.91229 0.98794 0.62008 0.0
C456 C 0.87791 0.96876 0.77885 0.0
O457 O 0.90356 0.97421 0.7468 0.0
O458 O 0.8621 0.95388 0.74503 0.0
C459 C 0.87281 0.95943 0.53876 0.0
Tb460 Tb 0.28393 0.67708 0.9563 0.0
C461 C 0.30203 0.64474 0.84228 0.0
Tb462 Tb 0.32921 0.69647 0.83911 0.0
O463 O 0.24382 0.67601 0.88784 0.0
O464 O 0.28065 0.69895 0.86586 0.0
O465 O 0.29406 0.64521 0.90631 0.0
C466 C 0.34995 0.71396 0.71823 0.0
O467 O 0.3121 0.66334 0.80629 0.0
C468 C 0.35939 0.68253 0.95169 0.0
C469 C 0.32132 0.72517 0.96552 0.0
O470 O 0.35711 0.69369 0.74691 0.0
O471 O 0.33138 0.72455 0.75858 0.0
O472 O 0.37214 0.6938 0.90032 0.0
O473 O 0.33267 0.67597 0.93043 0.0
O474 O 0.32883 0.72622 0.90114 0.0
O475 O 0.30441 0.70804 0.99473 0.0
C476 C 0.25567 0.66522 0.07523 0.0
O477 O 0.24711 0.68193 1.03266 0.0
O478 O 0.27997 0.65493 0.05017 0.0
C479 C 0.25563 0.69041 0.8423 0.0
Tb480 Tb 0.45043 0.04125 0.76421 0.0
C481 C 0.38758 0.06571 0.70537 0.0
Tb482 Tb 0.40745 0.0164 0.65716 0.0
O483 O 0.47629 0.06503 0.69369 0.0
O484 O 0.43956 0.04482 0.6629 0.0
O485 O 0.40911 0.06463 0.7543 0.0
C486 C 0.38786 -0.00575 0.55077 0.0
O487 O 0.38287 0.04898 0.66325 0.0
C488 C 0.40138 0.00253 0.78362 0.0
C489 C 0.48015 0.00775 0.66572 0.0
O490 O 0.40307 0.9849 0.60137 0.0
O491 O 0.38281 0.01622 0.56093 0.0
O492 O 0.37878 0.00124 0.74048 0.0
O493 O 0.42562 0.0096 0.75339 0.0
O494 O 0.45427 0.00749 0.62976 0.0
O495 O 0.48065 0.01402 0.72824 0.0
C496 C 0.47596 0.04475 0.88716 0.0
O497 O 0.49053 0.04793 0.83041 0.0
O498 O 0.44642 0.04068 0.87426 0.0
C499 C 0.46125 0.05853 0.64095 0.0
Tb500 Tb 0.65337 0.70149 0.35199 0.0
C501 C 0.67564 0.72809 0.46768 0.0
Tb502 Tb 0.69236 0.67479 0.46599 0.0
O503 O 0.61115 0.70723 0.413 0.0
O504 O 0.64434 0.68378 0.44575 0.0
O505 O 0.67299 0.73028 0.40222 0.0
C506 C 0.7242 0.66892 0.58225 0.0
O507 O 0.68136 0.70814 0.50049 0.0
C508 C 0.72038 0.68035 0.34914 0.0
C509 C 0.65341 0.64622 0.36851 0.0
O510 O 0.70157 0.65535 0.563 0.0
O511 O 0.72901 0.68487 0.53517 0.0
O512 O 0.7264 0.66354 0.3932 0.0
O513 O 0.70175 0.69475 0.37454 0.0
O514 O 0.66516 0.6458 0.42999 0.0
O515 O 0.65046 0.66527 0.32885 0.0
C516 C 0.63655 0.71934 0.22952 0.0
O517 O 0.65054 0.6995 0.24298 0.0
O518 O 0.63207 0.72921 0.28535 0.0
C519 C 0.62065 0.69512 0.46592 0.0
Tb520 Tb 0.05119 0.95412 0.05754 0.0
C521 C 0.02573 0.98455 0.161 0.0
Tb522 Tb 0.09613 0.97009 0.17283 0.0
O523 O 0.02311 0.92972 0.12138 0.0
O524 O 0.06606 0.94088 0.15394 0.0
O525 O 0.02934 0.98451 0.09579 0.0
C526 C 0.11784 -0.01057 0.28387 0.0
O527 O 0.04908 0.97864 0.20152 0.0
C528 C 0.1039 -0.00976 0.0543 0.0
C529 C 0.1197 0.93268 0.07698 0.0
O530 O 0.10452 0.00035 0.23327 0.0
O531 O 0.1196 0.96733 0.27125 0.0
O532 O 0.12648 0.98738 0.09715 0.0
O533 O 0.07816 0.98396 0.08042 0.0
O534 O 0.12287 0.94061 0.13787 0.0
O535 O 0.09565 0.93778 1.03695 0.0
C536 C 0.02467 0.94857 0.93609 0.0
O537 O 0.05458 0.95004 0.94904 0.0
O538 O 0.00966 0.95059 0.99186 0.0
C539 C 0.04104 0.93028 0.17354 0.0
Tb540 Tb 0.82644 0.26062 0.80549 0.0
C541 C 0.77035 0.247 0.899 0.0
Tb542 Tb 0.79898 0.29515 0.91083 0.0
O543 O 0.8578 0.24254 0.87654 0.0
O544 O 0.84055 0.27503 0.89581 0.0
O545 O 0.7827 0.24333 0.83974 0.0
C546 C 0.77954 0.31118 1.0306 0.0
O547 O 0.7875 0.25895 0.93917 0.0
C548 C 0.77227 0.29731 0.78893 0.0
C549 C 0.84549 0.31485 0.80104 0.0
O550 O 0.76313 0.31076 0.97609 0.0
O551 O 0.80739 0.30331 1.01632 0.0
O552 O 0.77027 0.31376 0.83121 0.0
O553 O 0.78515 0.28031 0.82015 0.0
O554 O 0.83351 0.31808 0.86136 0.0
O555 O 0.84436 0.29478 0.77071 0.0
C556 C 0.83984 0.23956 0.69335 0.0
O557 O 0.83967 0.26196 0.70056 0.0
O558 O 0.83248 0.22887 0.74974 0.0
C559 C 0.85401 0.25718 0.92297 0.0
Tb560 Tb 0.46098 0.91964 0.06433 0.0
C561 C 0.40664 0.88861 0.13495 0.0
Tb562 Tb 0.41332 0.94193 0.17407 0.0
O563 O 0.49206 0.90075 0.1357 0.0
O564 O 0.45363 0.91947 0.16773 0.0
O565 O 0.42798 0.89041 0.08544 0.0
C566 C 0.39404 0.95513 0.29287 0.0
O567 O 0.398 0.90602 0.17255 0.0
C568 C 0.40293 0.95624 0.04811 0.0
C569 C 0.47781 0.96409 0.14393 0.0
O570 O 0.37548 0.95268 0.24218 0.0
O571 O 0.42246 0.9501 0.27599 0.0
O572 O 0.38534 0.96242 0.09735 0.0
O573 O 0.42297 0.94241 0.07314 0.0
O574 O 0.4496 0.96779 0.16823 0.0
O575 O 0.48239 0.95278 0.08879 0.0
C576 C 0.48722 0.91808 0.94157 0.0
O577 O 0.50218 0.9179 0.99792 0.0
O578 O 0.45711 0.91804 0.95482 0.0
C579 C 0.47738 0.90756 0.18861 0.0
Tb580 Tb 0.83702 0.71744 0.07657 0.0
C581 C 0.80109 0.74676 0.97024 0.0
Tb582 Tb 0.80252 0.69016 0.96492 0.0
O583 O 0.86878 0.73557 1.00324 0.0
O584 O 0.84701 0.70503 0.98021 0.0
O585 O 0.81619 0.74709 1.02715 0.0
C586 C 0.77564 0.67692 0.85091 0.0
O587 O 0.79489 0.72736 0.93854 0.0
C588 C 0.77652 0.68735 0.08329 0.0
C589 C 0.84788 0.66316 0.06788 0.0
O590 O 0.76424 0.69148 0.8919 0.0
O591 O 0.80269 0.66957 0.87417 0.0
O592 O 0.77288 0.67155 1.04007 0.0
O593 O 0.79121 0.70448 0.05605 0.0
O594 O 0.83385 0.66318 1.00847 0.0
O595 O 0.85095 0.68189 0.1034 0.0
C596 C 0.82992 0.73571 0.19657 0.0
O597 O 0.85713 0.73048 0.16979 0.0
O598 O 0.80785 0.73059 0.15548 0.0
C599 C 0.86213 0.72232 0.9538 0.0
Tb600 Tb 0.02814 0.04115 0.77448 0.0
C601 C 0.0507 -0.00643 0.73162 0.0
Tb602 Tb 0.08535 0.03569 0.66465 0.0
O603 O 0.98977 0.04583 0.7014 0.0
O604 O 0.0347 0.04059 0.66832 0.0
O605 O 0.04642 0.0056 0.78513 0.0
C606 C 0.11282 0.02617 0.54737 0.0
O607 O 0.07444 -0.00056 0.69217 0.0
C608 C 0.10326 0.03265 0.79023 0.0
C609 C 0.07588 0.08322 0.73711 0.0
O610 O 0.1093 0.01196 0.59906 0.0
O611 O 0.10122 0.0464 0.56212 0.0
O612 O 0.12293 0.03026 0.74084 0.0
O613 O 0.0769 0.03719 0.76492 0.0
O614 O 0.08959 0.07256 0.68678 0.0
O615 O 0.05258 0.07443 0.77522 0.0
C616 C -0.00485 0.0413 0.89005 0.0
O617 O 0.00786 0.05952 0.85896 0.0
O618 O 0.00124 0.02321 0.85589 0.0
C619 C 0.00664 0.04405 0.6479 0.0
Tb620 Tb 0.63738 0.28332 0.52481 0.0
C621 C 0.65696 0.24899 0.41899 0.0
Tb622 Tb 0.68321 0.30169 0.4087 0.0
O623 O 0.59771 0.27774 0.4568 0.0
O624 O 0.63397 0.29928 0.4265 0.0
O625 O 0.64582 0.25112 0.47965 0.0
C626 C 0.71669 0.31001 0.29351 0.0
O627 O 0.67027 0.26657 0.38309 0.0
C628 C 0.7083 0.29698 0.52924 0.0
C629 C 0.65668 0.3368 0.50875 0.0
O630 O 0.72335 0.29491 0.34211 0.0
O631 O 0.691 0.32076 0.31031 0.0
O632 O 0.71849 0.31128 0.48186 0.0
O633 O 0.68713 0.28414 0.50554 0.0
O634 O 0.66666 0.33447 0.44652 0.0
O635 O 0.64704 0.319 0.54869 0.0
C636 C 0.6192 0.26385 0.64468 0.0
O637 O 0.60685 0.28251 0.6148 0.0
O638 O 0.64177 0.25664 0.6073 0.0
C639 C 0.6104 0.2884 0.40438 0.0
C640 C 0.11049 0.5034 0.36377 0.0
C641 C 0.11222 0.47905 0.35694 0.0
C642 C 0.11153 0.51302 0.42672 0.0
C643 C 0.11476 0.4987 0.48541 0.0
H644 H 0.10723 0.51513 0.32029 0.0
H645 H 0.10899 0.53177 0.4295 0.0
S646 S 0.12121 0.43388 0.49474 0.0
N647 N 0.11786 0.4409 0.41442 0.0
N648 N 0.12043 0.45885 0.53217 0.0
C649 C 0.11745 0.47437 0.47906 0.0
C650 C 0.11599 0.46459 0.41506 0.0
C651 C 0.68406 0.81687 0.7132 0.0
C652 C 0.7017 0.81138 0.77092 0.0
C653 C 0.69873 0.8257 0.65394 0.0
C654 C 0.73184 0.82709 0.64798 0.0
H655 H 0.65873 0.8149 0.71408 0.0
H656 H 0.68407 0.82993 0.61109 0.0
S657 S 0.78742 0.82186 0.78912 0.0
N658 N 0.75305 0.81454 0.82256 0.0
N659 N 0.78085 0.82728 0.70892 0.0
C660 C 0.74938 0.82336 0.70647 0.0
C661 C 0.73425 0.81624 0.76809 0.0
C662 C 0.35825 0.46254 0.8589 0.0
C663 C 0.35306 0.4868 0.85133 0.0
C664 C 0.36141 0.45143 0.92248 0.0
C665 C 0.35822 0.46421 0.97975 0.0
H666 H 0.36122 0.4523 0.81558 0.0
H667 H 0.36643 0.43286 0.92692 0.0
S668 S 0.34449 0.52805 0.98581 0.0
N669 N 0.34552 0.5232 0.90574 0.0
N670 N 0.34947 0.50223 1.02497 0.0
C671 C 0.35219 0.48833 0.97258 0.0
C672 C 0.35012 0.49967 0.90825 0.0
C673 C 0.70873 0.16623 0.22369 0.0
C674 C 0.73151 0.18231 0.24387 0.0
C675 C 0.69305 0.16931 0.16175 0.0
C676 C 0.69866 0.18898 0.11802 0.0
H677 H 0.70317 0.15096 0.25566 0.0
H678 H 0.67639 0.15611 0.14789 0.0
S679 S 0.75683 0.23566 0.14462 0.0
N680 N 0.7598 0.21804 0.21186 0.0
N681 N 0.7294 0.22419 0.09841 0.0
C682 C 0.72117 0.20514 0.13754 0.0
C683 C 0.73779 0.20171 0.19949 0.0
C684 C 0.90495 0.49165 0.95718 0.0
C685 C 0.87686 0.49623 0.99084 0.0
C686 C 0.90475 0.48222 0.89531 0.0
C687 C 0.87645 0.47669 0.8639 0.0
H688 H 0.92765 0.4953 0.97875 0.0
H689 H 0.92736 0.47908 0.87235 0.0
S690 S 0.79613 0.4856 0.93014 0.0
N691 N 0.81966 0.495 0.98838 0.0
N692 N 0.81926 0.47678 0.8702 0.0
C693 C 0.84792 0.48132 0.89621 0.0
C694 C 0.84813 0.49125 0.96014 0.0
C695 C 0.23047 0.15976 0.67636 0.0
C696 C 0.24773 0.1532 0.73384 0.0
C697 C 0.24556 0.16735 0.61664 0.0
C698 C 0.27859 0.16917 0.61206 0.0
H699 H 0.20509 0.15885 0.67742 0.0
H700 H 0.23116 0.17181 0.57342 0.0
S701 S 0.33506 0.15101 0.745 0.0
N702 N 0.30017 0.14631 0.77948 0.0
N703 N 0.32807 0.16202 0.66908 0.0
C704 C 0.29618 0.16214 0.66858 0.0
C705 C 0.2809 0.1536 0.72871 0.0
C706 C 0.60652 0.48887 0.36694 0.0
C707 C 0.60307 0.51313 0.35512 0.0
C708 C 0.60724 0.47901 0.43192 0.0
C709 C 0.60551 0.49326 0.4863 0.0
H710 H 0.60733 0.47739 0.32587 0.0
H711 H 0.60884 0.46018 0.43971 0.0
S712 S 0.59757 0.55775 0.48113 0.0
N713 N 0.59853 0.55118 0.40223 0.0
N714 N 0.60096 0.53261 0.52492 0.0
C715 C 0.60323 0.51756 0.47515 0.0
C716 C 0.60171 0.52755 0.40912 0.0
C717 C 0.30166 0.79959 0.17333 0.0
C718 C 0.284 0.79903 0.2326 0.0
C719 C 0.28817 0.80736 0.1117 0.0
C720 C 0.25602 0.81368 0.10589 0.0
H721 H 0.32638 0.79498 0.17486 0.0
H722 H 0.3031 0.80814 0.06801 0.0
S723 S 0.19999 0.81641 0.24647 0.0
N724 N 0.2332 0.80737 0.28176 0.0
N725 N 0.20745 0.81948 0.16594 0.0
C726 C 0.23818 0.81299 0.1647 0.0
C727 C 0.25223 0.80624 0.22775 0.0
C728 C 0.59338 -0.00835 0.94478 0.0
C729 C 0.621 -0.00389 0.98007 0.0
C730 C 0.5946 0.98379 0.88072 0.0
C731 C 0.62349 0.97963 0.84945 0.0
H732 H 0.57041 -0.00554 0.96649 0.0
H733 H 0.5725 0.98071 0.85586 0.0
S734 S 0.70272 0.98821 0.92063 0.0
N735 N 0.67822 -0.0041 0.97957 0.0
N736 N 0.68053 0.98033 0.85826 0.0
C737 C 0.65144 0.98376 0.88403 0.0
C738 C 0.65019 -0.00774 0.94959 0.0
C739 C 0.2618 0.29599 0.17897 0.0
C740 C 0.24509 0.29952 0.1191 0.0
C741 C 0.246 0.29393 0.24053 0.0
C742 C 0.21292 0.29468 0.24409 0.0
H743 H 0.28721 0.2951 0.17833 0.0
H744 H 0.25978 0.29145 0.28557 0.0
S745 S 0.15847 0.30401 0.10108 0.0
N746 N 0.19386 0.3041 0.06694 0.0
N747 N 0.16417 0.29996 0.18198 0.0
C748 C 0.19604 0.29835 0.18436 0.0
C749 C 0.21213 0.30082 0.122 0.0
C750 C 0.85407 0.96877 0.35512 0.0
C751 C 0.84822 -0.00693 0.34876 0.0
C752 C 0.86325 0.95788 0.41634 0.0
C753 C 0.86563 0.97083 0.47327 0.0
H754 H 0.85308 0.95833 0.31187 0.0
H755 H 0.86812 0.93927 0.41932 0.0
S756 S 0.84933 0.03423 0.48422 0.0
N757 N 0.84378 0.0293 0.40502 0.0
N758 N 0.85938 0.00878 0.52064 0.0
C759 C 0.85841 -0.00514 0.46805 0.0
C760 C 0.85001 0.006 0.40563 0.0
C761 C 0.24786 0.69951 0.65196 0.0
C762 C 0.21532 0.69657 0.64046 0.0
C763 C 0.2607 0.6985 0.71689 0.0
C764 C 0.24174 0.69418 0.77363 0.0
H765 H 0.26377 0.70229 0.61017 0.0
H766 H 0.28581 0.70007 0.7223 0.0
S767 S 0.15517 0.68472 0.77192 0.0
N768 N 0.16456 0.68875 0.6925 0.0
N769 N 0.18841 0.68695 0.81351 0.0
C770 C 0.20916 0.69123 0.76285 0.0
C771 C 0.19605 0.69238 0.69683 0.0
C772 C 0.40033 0.96196 0.47722 0.0
C773 C 0.38387 0.98284 0.48684 0.0
C774 C 0.40174 0.95245 0.41466 0.0
C775 C 0.38607 0.96303 0.3595 0.0
H776 H 0.41371 0.95349 0.51746 0.0
H777 H 0.41623 0.9371 0.40886 0.0
S778 S 0.33778 0.01692 0.35876 0.0
N779 N 0.35028 0.01326 0.43635 0.0
N780 N 0.35221 -0.0052 0.3188 0.0
C781 C 0.36799 0.98312 0.36892 0.0
C782 C 0.36709 -0.00682 0.43263 0.0
C783 C 0.74104 0.70241 0.17147 0.0
C784 C 0.76305 0.68586 0.15143 0.0
C785 C 0.72717 0.70064 0.23526 0.0
C786 C 0.73484 0.68218 0.28137 0.0
H787 H 0.73383 0.71638 0.1368 0.0
H788 H 0.71019 0.71372 0.24828 0.0
S789 S 0.78999 0.63337 0.25087 0.0
N790 N 0.79073 0.64983 0.18102 0.0
N791 N 0.76536 0.64639 0.3006 0.0
C792 C 0.75649 0.66523 0.26105 0.0
C793 C 0.77033 0.66705 0.19613 0.0
C794 C 0.12551 -0.00633 0.93945 0.0
C795 C 0.10689 0.00281 0.98951 0.0
C796 C 0.12599 0.00442 0.87515 0.0
C797 C 0.10809 0.02466 0.85992 0.0
H798 H 0.13864 0.97764 0.9493 0.0
H799 H 0.13904 -0.00384 0.83649 0.0
S800 S 0.06177 0.05811 0.97859 0.0
N801 N 0.07403 0.03478 1.02297 0.0
N802 N 0.07562 0.0554 0.90262 0.0
C803 C 0.09142 0.03485 0.91113 0.0
C804 C 0.09062 0.02378 0.97604 0.0
C805 C 0.72333 0.31624 0.63448 0.0
C806 C 0.72166 0.29588 0.59812 0.0
C807 C 0.7394 0.3165 0.69599 0.0
C808 C 0.75554 0.29664 0.72287 0.0
H809 H 0.71224 0.33221 0.61498 0.0
H810 H 0.73954 0.33254 0.72216 0.0
S811 S 0.76071 0.23956 0.64347 0.0
N812 N 0.73832 0.25571 0.59232 0.0
N813 N 0.77004 0.25637 0.70453 0.0
C814 C 0.75464 0.27638 0.68569 0.0
C815 C 0.73735 0.27594 0.62439 0.0
C816 C 0.12606 0.35511 0.28454 0.0
C817 C 0.10738 0.33514 0.27861 0.0
C818 C 0.12254 0.3747 0.24095 0.0
C819 C 0.09978 0.37546 0.19001 0.0
H820 H 0.14442 0.35542 0.32177 0.0
H821 H 0.13759 0.38961 0.24827 0.0
S822 S 0.04465 0.32764 0.15342 0.0
N823 N 0.06558 0.31695 0.21712 0.0
N824 N 0.05808 0.35438 0.13635 0.0
C825 C 0.08098 0.35555 0.18305 0.0
C826 C 0.08489 0.33533 0.22721 0.0
C827 C 0.89433 0.86146 0.57756 0.0
C828 C 0.87982 0.88252 0.59301 0.0
C829 C 0.87745 0.84435 0.54579 0.0
C830 C 0.84619 0.84841 0.52594 0.0
H831 H 0.91889 0.85836 0.58948 0.0
H832 H 0.88861 0.8277 0.53788 0.0
S833 S 0.79825 0.90118 0.55266 0.0
N834 N 0.83285 0.90677 0.58543 0.0
N835 N 0.80135 0.87482 0.5238 0.0
C836 C 0.83173 0.86962 0.53981 0.0
C837 C 0.84849 0.88663 0.57409 0.0
C838 C 0.30735 0.60161 0.852 0.0
C839 C 0.30464 0.62211 0.81109 0.0
C840 C 0.32011 0.58142 0.82719 0.0
C841 C 0.3303 0.58102 0.76074 0.0
H842 H 0.30238 0.60166 0.90481 0.0
H843 H 0.32422 0.56656 0.86165 0.0
S844 S 0.32037 0.62797 0.62907 0.0
N845 N 0.30681 0.63926 0.69731 0.0
N846 N 0.3315 0.60103 0.65149 0.0
C847 C 0.32386 0.60023 0.71715 0.0
C848 C 0.31078 0.62091 0.74227 0.0
C849 C 0.62546 0.1221 0.0512 0.0
C850 C 0.60974 0.1423 0.06937 0.0
C851 C 0.62234 0.10106 0.0888 0.0
C852 C 0.603 0.09911 0.14603 0.0
H853 H 0.64109 0.1226 1.00853 0.0
H854 H 0.63525 0.08616 0.07203 0.0
S855 S 0.55601 0.14704 0.21399 0.0
N856 N 0.57384 0.15931 0.14802 0.0
N857 N 0.56751 0.11944 0.21839 0.0
C858 C 0.58697 0.11922 0.16476 0.0
C859 C 0.59037 0.14083 0.12647 0.0
C860 C 0.13425 0.60282 0.63575 0.0
C861 C 0.10584 0.60064 0.67166 0.0
C862 C 0.14083 0.62264 0.59449 0.0
C863 C 0.11935 0.64129 0.58747 0.0
H864 H 0.15123 0.58866 0.63779 0.0
H865 H 0.16314 0.62333 0.56831 0.0
S866 S 0.04173 0.64454 0.67188 0.0
N867 N 0.05615 0.61891 0.69834 0.0
N868 N 0.06868 0.6566 0.62168 0.0
C869 C 0.0912 0.63972 0.62478 0.0
C870 C 0.08445 0.61935 0.6668 0.0
C871 C 0.5871 0.8595 0.69259 0.0
C872 C 0.6113 0.87627 0.6928 0.0
C873 C 0.58579 0.8411 0.74169 0.0
C874 C 0.60778 0.83954 0.79397 0.0
H875 H 0.56857 0.86099 0.65574 0.0
H876 H 0.56745 0.82804 0.73893 0.0
S877 S 0.67773 0.8774 0.81244 0.0
N878 N 0.66002 0.8882 0.74478 0.0
N879 N 0.65554 0.85536 0.8402 0.0
C880 C 0.63222 0.85601 0.79398 0.0
C881 C 0.63459 0.87382 0.74238 0.0
C882 C 0.34373 0.3763 0.08705 0.0
C883 C 0.37632 0.37534 0.09869 0.0
C884 C 0.32872 0.35878 0.05311 0.0
C885 C 0.34601 0.33992 1.03046 0.0
H886 H 0.33009 0.39128 0.10099 0.0
H887 H 0.30349 0.35973 0.0457 0.0
S888 S 0.43135 0.32889 0.05155 0.0
N889 N 0.42515 0.35394 0.08652 0.0
N890 N 0.39669 0.3205 1.02451 0.0
C891 C 0.37834 0.33842 1.04358 0.0
C892 C 0.39359 0.35628 0.07743 0.0
C893 C 0.84365 0.12867 0.24344 0.0
C894 C 0.82198 0.12729 0.29675 0.0
C895 C 0.85208 0.10886 0.21017 0.0
C896 C 0.83876 0.08713 0.22826 0.0
H897 H 0.85528 0.145 0.22894 0.0
H898 H 0.87084 0.11021 0.17357 0.0
S899 S 0.77892 0.07424 0.35916 0.0
N900 N 0.78558 0.10259 0.36224 0.0
N901 N 0.80176 0.06518 0.29921 0.0
C902 C 0.81574 0.08564 0.2784 0.0
C903 C 0.80735 0.10577 0.31304 0.0
C904 C 0.89025 0.6191 0.18321 0.0
C905 C 0.87316 0.59849 0.17471 0.0
C906 C 0.8824 0.63993 0.14713 0.0
C907 C 0.8576 0.6407 0.10068 0.0
H908 H 0.91051 0.61894 0.21579 0.0
H909 H 0.89616 0.65547 0.15494 0.0
S910 S 0.80298 0.59227 0.06718 0.0
N911 N 0.82814 0.58078 0.12207 0.0
N912 N 0.81424 0.61966 0.05293 0.0
C913 C 0.83975 0.6204 0.09345 0.0
C914 C 0.84724 0.59941 0.13106 0.0
C915 C 0.12515 0.09571 0.78713 0.0
C916 C 0.09401 0.10115 0.76873 0.0
C917 C 0.14194 0.10987 0.82876 0.0
C918 C 0.12836 0.13021 0.85206 0.0
H919 H 0.13652 0.08017 0.77007 0.0
H920 H 0.16651 0.10587 0.83841 0.0
S921 S 0.04695 0.15125 0.82204 0.0
N922 N 0.04927 0.12692 0.78158 0.0
N923 N 0.08184 0.15473 0.85627 0.0
C924 C 0.09694 0.13544 0.83592 0.0
C925 C 0.07952 0.12063 0.79497 0.0
C926 C 0.64669 0.36194 0.60387 0.0
C927 C 0.65486 0.36017 0.53617 0.0
C928 C 0.63727 0.38324 0.62825 0.0
C929 C 0.6361 0.40332 0.58574 0.0
H930 H 0.64519 0.34651 0.63734 0.0
H931 H 0.62766 0.38341 0.67815 0.0
S932 S 0.66336 0.40964 0.41078 0.0
N933 N 0.66736 0.38148 0.43144 0.0
N934 N 0.64987 0.42161 0.47801 0.0
C935 C 0.64854 0.40253 0.5212 0.0
C936 C 0.65787 0.38086 0.49603 0.0
C937 C 0.36304 0.84587 0.24814 0.0
C938 C 0.38408 0.82704 0.2553 0.0
C939 C 0.36864 0.86448 0.20189 0.0
C940 C 0.39599 0.86537 0.16201 0.0
H941 H 0.34194 0.84623 0.27843 0.0
H942 H 0.35227 0.87902 0.20031 0.0
S943 S 0.45658 0.8188 0.15665 0.0
N944 N 0.43123 0.80876 0.21366 0.0
N945 N 0.443 0.84458 0.12906 0.0
C946 C 0.41626 0.84589 0.16577 0.0
C947 C 0.41007 0.82657 0.21209 0.0
C948 C 0.84343 0.37518 0.71779 0.0
C949 C 0.86923 0.37536 0.67361 0.0
C950 C 0.83686 0.35578 0.76044 0.0
C951 C 0.85533 0.33552 0.75966 0.0
H952 H 0.82893 0.39063 0.72174 0.0
H953 H 0.81689 0.35661 0.79382 0.0
S954 S 0.92362 0.32585 0.64944 0.0
N955 N 0.91242 0.35297 0.62944 0.0
N956 N 0.89891 0.31582 0.70772 0.0
C957 C 0.87999 0.33477 0.71306 0.0
C958 C 0.88714 0.35482 0.67024 0.0
C959 C 0.39646 0.12506 0.62351 0.0
C960 C 0.37029 0.1264 0.5807 0.0
C961 C 0.39984 0.10663 0.67147 0.0
C962 C 0.37715 0.08881 0.67844 0.0
H963 H 0.41467 0.13831 0.61949 0.0
H964 H 0.42152 0.10549 0.69971 0.0
S965 S 0.30167 0.08642 0.58686 0.0
N966 N 0.31931 0.1101 0.55446 0.0
N967 N 0.32593 0.07507 0.64394 0.0
C968 C 0.34989 0.09079 0.63895 0.0
C969 C 0.3465 0.10954 0.5899 0.0
C970 C 0.62879 0.59994 0.2569 0.0
C971 C 0.59587 0.6006 0.26442 0.0
C972 C 0.64831 0.61319 0.29636 0.0
C973 C 0.63545 0.62681 0.34555 0.0
H974 H 0.63961 0.58857 0.22207 0.0
H975 H 0.67346 0.61327 0.28729 0.0
S976 S 0.55103 0.63622 0.38089 0.0
N977 N 0.55138 0.6176 0.32104 0.0
N978 N 0.58833 0.64162 0.39684 0.0
C979 C 0.60275 0.62786 0.3529 0.0
C980 C 0.58289 0.61509 0.31161 0.0
C981 C 0.15869 0.87453 0.07732 0.0
C982 C 0.16035 0.87065 1.00871 0.0
C983 C 0.1489 0.89597 0.09982 0.0
C984 C 0.14025 0.91417 0.05443 0.0
H985 H 0.16417 0.86069 0.11435 0.0
H986 H 0.14576 0.89762 0.15281 0.0
S987 S 0.14534 0.91436 0.87015 0.0
N988 N 0.15639 0.88773 0.89592 0.0
N989 N 0.1378 0.92828 0.93816 0.0
C990 C 0.1444 0.91126 0.98583 0.0
C991 C 0.15446 0.88939 0.9629 0.0
C992 C 0.96795 0.48553 0.12837 0.0
C993 C 0.97227 0.49609 0.18951 0.0
C994 C 0.98878 0.48965 0.07555 0.0
C995 C 0.01763 0.50039 0.08735 0.0
H996 H 0.9484 0.4738 0.12115 0.0
H997 H 0.98557 0.47973 1.03166 0.0
S998 S 0.03792 0.53607 0.22795 0.0
N999 N 0.00483 0.52277 0.25036 0.0
N1000 N 0.04496 0.52854 0.15134 0.0
C1001 C 0.0193 0.51507 0.14066 0.0
C1002 C -0.00199 0.51142 0.1948 0.0
C1003 C 0.67984 0.76337 0.61604 0.0
C1004 C 0.68651 0.78378 0.57878 0.0
C1005 C 0.6748 0.74395 0.57896 0.0
C1006 C 0.66885 0.74716 0.50967 0.0
H1007 H 0.68793 0.76101 0.66686 0.0
H1008 H 0.67877 0.72694 0.60296 0.0
S1009 S 0.64263 0.80301 0.42855 0.0
N1010 N 0.65916 0.81009 0.49907 0.0
N1011 N 0.64537 0.77424 0.42572 0.0
C1012 C 0.65938 0.76937 0.48529 0.0
C1013 C 0.66624 0.78838 0.52478 0.0
C1014 C 0.49849 0.48152 0.72608 0.0
C1015 C 0.4996 0.47896 0.65682 0.0
C1016 C 0.47248 0.47417 0.76345 0.0
C1017 C 0.44525 0.4673 0.7308 0.0
H1018 H 0.51689 0.4904 0.75164 0.0
H1019 H 0.47159 0.47866 0.81508 0.0
S1020 S 0.43831 0.45067 0.55738 0.0
N1021 N 0.47266 0.46397 0.56121 0.0
N1022 N 0.42443 0.44935 0.63405 0.0
C1023 C 0.4485 0.45947 0.66642 0.0
C1024 C 0.47458 0.46731 0.62722 0.0
C1025 C 0.6898 0.26448 0.8335 0.0
C1026 C 0.67458 0.26839 0.8937 0.0
C1027 C 0.71996 0.25467 0.83715 0.0
C1028 C 0.73707 0.25427 0.89743 0.0
H1029 H 0.67601 0.2622 0.78909 0.0
H1030 H 0.72918 0.24683 0.79366 0.0
S1031 S 0.70931 0.27956 0.05328 0.0
N1032 N 0.68098 0.28541 0.99933 0.0
N1033 N 0.73712 0.26626 1.01217 0.0
C1034 C 0.72374 0.26581 0.95113 0.0
C1035 C 0.69349 0.27619 0.94428 0.0
C1036 C 0.97127 0.48141 0.72872 0.0
C1037 C 0.97336 0.47416 0.6628 0.0
C1038 C -0.00402 0.47792 0.77325 0.0
C1039 C 0.02529 0.47139 0.74889 0.0
H1040 H 0.951 0.49085 0.74574 0.0
H1041 H -0.00595 0.48565 0.8211 0.0
S1042 S 0.04103 0.44263 0.59231 0.0
N1043 N 0.00498 0.45315 0.58396 0.0
N1044 N 0.05233 0.44873 0.66788 0.0
C1045 C 0.0259 0.45925 0.6901 0.0
C1046 C 0.00057 0.46203 0.64449 0.0
C1047 C 0.77048 0.76751 0.88748 0.0
C1048 C 0.78167 0.76694 0.95292 0.0
C1049 C 0.73943 0.7611 0.87604 0.0
C1050 C 0.7191 0.75601 0.93015 0.0
H1051 H 0.78673 0.76821 0.84615 0.0
H1052 H 0.73168 0.7598 0.82521 0.0
S1053 S 0.73619 0.76432 0.10775 0.0
N1054 N 0.76844 0.77279 0.06777 0.0
N1055 N 0.71169 0.75607 0.0504 0.0
C1056 C 0.72939 0.76035 0.99466 0.0
C1057 C 0.75985 0.76932 1.00398 0.0
C1058 C 0.47902 0.48072 0.09766 0.0
C1059 C 0.45105 0.48975 0.12263 0.0
C1060 C 0.50543 0.47789 0.13739 0.0
C1061 C 0.50575 0.48563 0.20248 0.0
H1062 H 0.48067 0.47567 0.04705 0.0
H1063 H 0.5266 0.47122 0.11495 0.0
S1064 S 0.43947 0.51438 0.28741 0.0
N1065 N 0.42589 0.50918 0.21308 0.0
N1066 N 0.47534 0.50339 0.28992 0.0
C1067 C 0.47778 0.49499 0.2282 0.0
C1068 C 0.45089 0.49792 0.18707 0.0
C1069 C 0.71226 0.22946 0.34062 0.0
C1070 C 0.72851 0.22654 0.40196 0.0
C1071 C 0.67979 0.22548 0.33794 0.0
C1072 C 0.66352 0.22515 0.3985 0.0
H1073 H 0.72404 0.23568 0.29563 0.0
H1074 H 0.66753 0.2302 0.29201 0.0
S1075 S 0.69175 0.20533 0.56201 0.0
N1076 N 0.7236 0.21344 0.51951 0.0
N1077 N 0.66268 0.20617 0.50797 0.0
C1078 C 0.67847 0.21322 0.4516 0.0
C1079 C 0.71133 0.21724 0.4577 0.0
C1080 C 0.27566 0.2439 0.84285 0.0
C1081 C 0.28283 0.23516 0.9085 0.0
C1082 C 0.2833 0.23053 0.78898 0.0
C1083 C 0.28904 0.20695 0.80512 0.0
H1084 H 0.26117 0.25913 0.83328 0.0
H1085 H 0.27436 0.23602 0.74022 0.0
S1086 S 0.33456 0.18431 0.94936 0.0
N1087 N 0.31659 0.20795 0.97413 0.0
N1088 N 0.32676 0.18313 0.86915 0.0
C1089 C 0.30979 0.20305 0.85887 0.0
C1090 C 0.30397 0.21621 0.91556 0.0
C1091 C 0.21542 0.76535 0.37603 0.0
C1092 C 0.20487 0.76391 0.4421 0.0
C1093 C 0.24515 0.75657 0.36171 0.0
C1094 C 0.26549 0.7494 0.41401 0.0
H1095 H 0.19865 0.76793 0.33585 0.0
H1096 H 0.25198 0.75531 0.31015 0.0
S1097 S 0.25251 0.75717 0.5939 0.0
N1098 N 0.21986 0.76661 0.55727 0.0
N1099 N 0.27525 0.7484 0.53381 0.0
C1100 C 0.25666 0.75342 0.47993 0.0
C1101 C 0.22721 0.76357 0.49252 0.0
C1102 C 0.27611 0.24753 0.37786 0.0
C1103 C 0.28621 0.24355 0.44367 0.0
C1104 C 0.24469 0.24464 0.36223 0.0
C1105 C 0.22261 0.23923 0.41266 0.0
H1106 H 0.29303 0.24969 0.33758 0.0
H1107 H 0.23776 0.24688 0.31052 0.0
S1108 S 0.23678 0.23325 0.59463 0.0
N1109 N 0.27157 0.23877 0.56095 0.0
N1110 N 0.2122 0.23298 0.53142 0.0
C1111 C 0.23217 0.23767 0.47939 0.0
C1112 C 0.26398 0.24096 0.4952 0.0
C1113 C 0.31172 0.74441 0.06655 0.0
C1114 C 0.32914 0.74496 1.00678 0.0
C1115 C 0.28147 0.7539 0.06321 0.0
C1116 C 0.27307 0.76765 1.00618 0.0
H1117 H 0.31589 0.73102 0.10514 0.0
H1118 H 0.26437 0.74888 0.10136 0.0
S1119 S 0.32975 0.79322 0.88097 0.0
N1120 N 0.34988 0.773 0.92426 0.0
N1121 N 0.29402 0.79286 0.91357 0.0
C1122 C 0.29748 0.77615 0.96324 0.0
C1123 C 0.32759 0.76588 0.96937 0.0
C1124 C 0.50759 0.00391 0.55842 0.0
C1125 C 0.50881 0.00983 0.62583 0.0
C1126 C 0.53388 0.00729 0.51755 0.0
C1127 C 0.56267 0.01014 0.54904 0.0
H1128 H 0.48659 -0.00334 0.53704 0.0
H1129 H 0.53312 0.00106 0.46783 0.0
S1130 S 0.57419 0.04258 0.70011 0.0
N1131 N 0.53783 0.03242 0.70575 0.0
N1132 N 0.5878 0.03491 0.62741 0.0
C1133 C 0.56195 0.0242 0.60381 0.0
C1134 C 0.53538 0.02225 0.64653 0.0
C1135 C 0.97348 0.96633 0.14985 0.0
C1136 C -0.00505 0.97846 0.1884 0.0
C1137 C 0.94525 0.95801 0.1773 0.0
C1138 C 0.93644 0.96472 0.24069 0.0
H1139 H 0.97836 0.9632 0.09839 0.0
H1140 H 0.92796 0.95095 0.14434 0.0
S1141 S 0.98979 0.98496 0.36974 0.0
N1142 N 0.00996 0.98839 0.29999 0.0
N1143 N 0.95608 0.9729 0.35017 0.0
C1144 C 0.96058 0.97074 0.28393 0.0
C1145 C 0.98933 0.9793 0.25687 0.0
C1146 C 0.53138 0.95093 0.17933 0.0
C1147 C 0.50325 0.96296 0.19326 0.0
C1148 C 0.55553 0.94937 0.22646 0.0
C1149 C 0.55371 0.96396 0.28004 0.0
H1150 H 0.53509 0.94309 0.13216 0.0
H1151 H 0.57809 0.94249 0.21169 0.0
S1152 S 0.48153 0.98356 0.36004 0.0
N1153 N 0.47179 0.97949 0.28214 0.0
N1154 N 0.51841 0.97478 0.36748 0.0
C1155 C 0.52368 0.9674 0.30539 0.0
C1156 C 0.49868 0.96992 0.25915 0.0
C1157 C 0.96617 -0.00476 0.68482 0.0
C1158 C 0.96695 -0.00857 0.61652 0.0
C1159 C -0.00711 -0.00742 0.72354 0.0
C1160 C 0.02217 0.9884 0.69457 0.0
H1161 H 0.94487 0.00048 0.70913 0.0
H1162 H 0.99059 -0.00522 0.77611 0.0
S1163 S 0.0378 0.97826 0.51698 0.0
N1164 N -0.0002 0.98395 0.52091 0.0
N1165 N 0.05053 0.979 0.59395 0.0
C1166 C 0.02349 0.98423 0.62635 0.0
C1167 C -0.00402 0.98647 0.587 0.0
C1168 C 0.0181 0.41437 0.8257 0.0
C1169 C 0.00137 0.41842 0.88438 0.0
C1170 C 0.00268 0.41356 0.76383 0.0
C1171 C 0.97007 0.4177 0.75712 0.0
H1172 H 0.04342 0.41231 0.82717 0.0
H1173 H 0.0168 0.41061 0.72025 0.0
S1174 S 0.9143 0.42095 0.89818 0.0
N1175 N 0.94932 0.4213 0.93358 0.0
N1176 N 0.92079 0.41957 0.8175 0.0
C1177 C 0.9527 0.41943 0.81617 0.0
C1178 C 0.96829 0.42002 0.87951 0.0
C1179 C 0.84788 0.7489 0.30912 0.0
C1180 C 0.8236 0.74551 0.26314 0.0
C1181 C 0.84148 0.75743 0.37245 0.0
C1182 C 0.81059 0.76314 0.39222 0.0
H1183 H 0.87194 0.7447 0.29646 0.0
H1184 H 0.86093 0.75954 0.4063 0.0
S1185 S 0.73854 0.75745 0.2914 0.0
N1186 N 0.76721 0.74867 0.24318 0.0
N1187 N 0.75561 0.7644 0.36105 0.0
C1188 C 0.78624 0.75993 0.34683 0.0
C1189 C 0.79264 0.75121 0.28275 0.0
C1190 C 0.49914 0.53459 0.52936 0.0
C1191 C 0.48271 0.54133 0.47078 0.0
C1192 C 0.48458 0.53441 0.59246 0.0
C1193 C 0.45268 0.54042 0.60032 0.0
H1194 H 0.52366 0.52953 0.52659 0.0
H1195 H 0.49855 0.52945 0.63582 0.0
S1196 S 0.4001 0.56259 0.46392 0.0
N1197 N 0.4332 0.55626 0.42554 0.0
N1198 N 0.40624 0.55631 0.54394 0.0
C1199 C 0.43633 0.54834 0.54251 0.0
C1200 C 0.45118 0.54857 0.47796 0.0
C1201 C 0.59434 0.25557 0.82783 0.0
C1202 C 0.59796 0.23123 0.84244 0.0
C1203 C 0.60015 0.26595 0.76363 0.0
C1204 C 0.60997 0.25251 0.71092 0.0
H1205 H 0.58827 0.26698 0.86711 0.0
H1206 H 0.59812 0.28477 0.75598 0.0
S1207 S 0.61566 0.1878 0.71758 0.0
N1208 N 0.6067 0.19379 0.79479 0.0
N1209 N 0.61856 0.21322 0.67522 0.0
C1210 C 0.61182 0.22808 0.72362 0.0
C1211 C 0.60552 0.21748 0.78883 0.0
C1212 C 0.95602 0.54492 1.03533 0.0
C1213 C 0.96879 0.55615 0.08965 0.0
C1214 C 0.97258 0.54332 0.97473 0.0
C1215 C 0.00276 0.5532 0.9649 0.0
H1216 H 0.93284 0.53751 1.03918 0.0
H1217 H 0.96165 0.53402 0.93539 0.0
S1218 S 0.04512 0.58798 0.08687 0.0
N1219 N 0.01227 0.57998 0.12581 0.0
N1220 N 0.04342 0.57671 1.01311 0.0
C1221 C 0.01513 0.56571 1.0173 0.0
C1222 C -0.00191 0.56745 0.0789 0.0
C1223 C 0.63318 0.71531 0.10624 0.0
C1224 C 0.62738 0.72875 0.1615 0.0
C1225 C 0.62512 0.72349 1.04136 0.0
C1226 C 0.6114 0.7457 1.02839 0.0
H1227 H 0.64422 0.69828 0.11299 0.0
H1228 H 0.63065 0.71252 1.00068 0.0
S1229 S 0.58878 0.78704 0.15559 0.0
N1230 N 0.60512 0.76492 0.19904 0.0
N1231 N 0.59063 0.78039 0.07679 0.0
C1232 C 0.60498 0.7592 0.08308 0.0
C1233 C 0.6128 0.75072 0.14958 0.0
C1234 C 0.47379 0.4329 0.35783 0.0
C1235 C 0.50692 0.43306 0.36401 0.0
C1236 C 0.45892 0.43158 0.29534 0.0
C1237 C 0.47644 0.43083 0.23611 0.0
H1238 H 0.45914 0.43387 0.40168 0.0
H1239 H 0.43359 0.4307 0.2938 0.0
S1240 S 0.56387 0.42828 0.22566 0.0
N1241 N 0.55666 0.43064 0.30561 0.0
N1242 N 0.52912 0.42784 0.18927 0.0
C1243 C 0.50959 0.4297 0.2423 0.0
C1244 C 0.52469 0.43113 0.3057 0.0
C1245 C 0.84187 0.24359 0.57059 0.0
C1246 C 0.84252 0.22883 0.62844 0.0
C1247 C 0.84181 0.23452 0.50771 0.0
C1248 C 0.84251 0.21024 0.49965 0.0
H1249 H 0.84058 0.26241 0.57367 0.0
H1250 H 0.84048 0.2468 0.46492 0.0
S1251 S 0.84796 0.16405 0.63514 0.0
N1252 N 0.84575 0.18868 0.67421 0.0
N1253 N 0.84689 0.1716 0.5547 0.0
C1254 C 0.84438 0.19519 0.55686 0.0
C1255 C 0.84406 0.20449 0.62159 0.0
C1256 C 0.98982 0.5674 0.578 0.0
C1257 C 0.01166 0.54951 0.59606 0.0
C1258 C 0.97379 0.56806 0.51612 0.0
C1259 C 0.97952 0.55116 0.46913 0.0
H1260 H 0.98498 0.581 0.612 0.0
H1261 H 0.95732 0.58214 0.50451 0.0
S1262 S 0.0321 0.49976 0.4945 0.0
N1263 N 0.03574 0.5136 0.56353 0.0
N1264 N 0.00738 0.51543 0.44726 0.0
C1265 C 0.00097 0.53318 0.48718 0.0
C1266 C 0.01654 0.53219 0.55043 0.0
C1267 C 0.18188 0.22948 0.09205 0.0
C1268 C 0.1506 0.23306 0.11344 0.0
C1269 C 0.18876 0.22039 1.02986 0.0
C1270 C 0.16473 0.21482 0.9855 0.0
H1271 H 0.20141 0.23371 0.12376 0.0
H1272 H 0.21313 0.218 1.01616 0.0
S1273 S 0.07892 0.22096 1.01643 0.0
N1274 N 0.09541 0.23013 0.08456 0.0
N1275 N 0.10818 0.21359 0.96761 0.0
C1276 C 0.13336 0.21847 1.00595 0.0
C1277 C 0.12635 0.22746 0.06971 0.0
C1278 C 0.51526 0.43412 0.85916 0.0
C1279 C 0.48377 0.42657 0.86679 0.0
C1280 C 0.53151 0.43256 0.79831 0.0
C1281 C 0.51658 0.42436 0.74186 0.0
H1282 H 0.52739 0.44155 0.90033 0.0
H1283 H 0.55574 0.43808 0.79522 0.0
S1284 S 0.43622 0.39872 0.73867 0.0
N1285 N 0.43989 0.4075 0.81506 0.0
N1286 N 0.46984 0.40525 0.70081 0.0
C1287 C 0.48597 0.41505 0.75047 0.0
C1288 C 0.46964 0.41619 0.81269 0.0
C1289 C 0.3614 0.75403 0.55963 0.0
C1290 C 0.37323 0.73892 0.51244 0.0
C1291 C 0.35407 0.74604 0.6258 0.0
C1292 C 0.35912 0.72258 0.64867 0.0
H1293 H 0.3571 0.77205 0.54493 0.0
H1294 H 0.3442 0.75836 0.65915 0.0
S1295 S 0.39182 0.67593 0.54739 0.0
N1296 N 0.39088 0.69925 0.49548 0.0
N1297 N 0.37812 0.68455 0.61885 0.0
C1298 C 0.37214 0.70749 0.60289 0.0
C1299 C 0.37905 0.71554 0.53541 0.0
C1300 C 0.99018 0.40688 0.2733 0.0
C1301 C 0.00995 0.42561 0.25145 0.0
C1302 C 0.97421 0.40664 0.33539 0.0
C1303 C 0.97729 0.42528 0.3781 0.0
H1304 H 0.98686 0.3922 0.242 0.0
H1305 H 0.95932 0.39194 0.34973 0.0
S1306 S 0.02666 0.47812 0.34411 0.0
N1307 N 0.03174 0.46286 0.27812 0.0
N1308 N 0.00221 0.46283 0.39308 0.0
C1309 C -0.00291 0.44396 0.35645 0.0
C1310 C 0.0133 0.44408 0.29384 0.0
C1311 C 0.35777 0.21449 0.23713 0.0
C1312 C 0.35335 0.23871 0.22378 0.0
C1313 C 0.36915 0.20551 0.29928 0.0
C1314 C 0.37657 0.22031 0.35074 0.0
H1315 H 0.35181 0.20231 0.19977 0.0
H1316 H 0.37148 0.18677 0.30773 0.0
S1317 S 0.37058 0.28519 0.34018 0.0
N1318 N 0.35855 0.27737 0.26671 0.0
N1319 N 0.37983 0.26065 0.38247 0.0
C1320 C 0.37345 0.24463 0.33692 0.0
C1321 C 0.36173 0.25374 0.27395 0.0
C1322 C 0.50054 0.53187 0.04818 0.0
C1323 C 0.49204 0.54851 0.09416 0.0
C1324 C 0.48355 0.52942 0.98876 0.0
C1325 C 0.45797 0.54411 0.97102 0.0
H1326 H 0.51988 0.52 0.05911 0.0
H1327 H 0.49061 0.51585 0.95629 0.0
S1328 S 0.42698 0.59158 0.07106 0.0
N1329 N 0.45636 0.58042 0.11617 0.0
N1330 N 0.42568 0.57657 1.00323 0.0
C1331 C 0.44995 0.56148 1.01492 0.0
C1332 C 0.46666 0.56352 0.07656 0.0
C1333 C 0.12163 0.77153 0.81843 0.0
C1334 C 0.15254 0.77577 0.84087 0.0
C1335 C 0.11597 0.76028 0.75836 0.0
C1336 C 0.14105 0.75275 0.71881 0.0
H1337 H 0.10168 0.77683 0.84762 0.0
H1338 H 0.09192 0.75744 0.74304 0.0
S1339 S 0.22631 0.75812 0.75766 0.0
N1340 N 0.20814 0.7705 0.81875 0.0
N1341 N 0.19798 0.74961 0.70884 0.0
C1342 C 0.17189 0.75673 0.74143 0.0
C1343 C 0.17751 0.76817 0.80152 0.0
C1344 C 0.47564 0.91352 0.31288 0.0
C1345 C 0.49185 0.9062 0.25681 0.0
C1346 C 0.49139 0.91705 0.3732 0.0
C1347 C 0.52385 0.91242 0.3808 0.0
H1348 H 0.45071 0.91655 0.3102 0.0
H1349 H 0.47807 0.92384 0.41386 0.0
S1350 S 0.57558 0.88706 0.25485 0.0
N1351 N 0.54132 0.89044 0.21701 0.0
N1352 N 0.57039 0.89633 0.33035 0.0
C1353 C 0.53953 0.90253 0.32767 0.0
C1354 C 0.52363 0.89938 0.26595 0.0
C1355 C 0.34603 0.25714 0.73091 0.0
C1356 C 0.36471 0.237 0.72465 0.0
C1357 C 0.34128 0.26707 0.79287 0.0
C1358 C 0.35397 0.2568 0.85179 0.0
H1359 H 0.33425 0.26495 0.68763 0.0
H1360 H 0.32672 0.28235 0.79475 0.0
S1361 S 0.40885 0.2059 0.86078 0.0
N1362 N 0.39929 0.2089 0.78133 0.0
N1363 N 0.39006 0.22693 0.89758 0.0
C1364 C 0.37486 0.23771 0.84509 0.0
C1365 C 0.38011 0.22788 0.78177 0.0
C1366 C 0.96194 0.05959 0.05736 0.0
C1367 C 0.94518 0.03963 0.08177 0.0
C1368 C 0.97745 0.06026 0.995 0.0
C1369 C 0.97749 0.04081 0.95483 0.0
H1370 H 0.96312 0.07487 0.08674 0.0
H1371 H 0.98995 0.07603 0.97869 0.0
S1372 S 0.9364 0.98452 0.99388 0.0
N1373 N 0.92889 0.00019 0.05855 0.0
N1374 N 0.95856 0.00122 0.94349 0.0
C1375 C 0.96071 0.02083 0.9784 0.0
C1376 C 0.94447 0.0203 1.04115 0.0
C1377 C 0.11902 0.76722 0.25315 0.0
C1378 C 0.14397 0.76013 0.21242 0.0
C1379 C 0.11209 0.75512 0.31528 0.0
C1380 C 0.12938 0.73516 0.33923 0.0
H1381 H 0.10491 0.78225 0.23731 0.0
H1382 H 0.0932 0.7617 0.34526 0.0
S1383 S 0.19969 0.71242 0.25364 0.0
N1384 N 0.18814 0.7343 0.20413 0.0
N1385 N 0.17321 0.70995 0.31362 0.0
C1386 C 0.15391 0.72803 0.29719 0.0
C1387 C 0.16171 0.74094 0.23615 0.0
C1388 C 0.47855 0.04652 0.4587 0.0
C1389 C 0.50885 0.05627 0.4482 0.0
C1390 C 0.46215 0.0485 0.51938 0.0
C1391 C 0.47543 0.06021 0.57232 0.0
H1392 H 0.46784 0.0365 0.42063 0.0
H1393 H 0.43962 0.03984 0.52585 0.0
S1394 S 0.55237 0.09132 0.56737 0.0
N1395 N 0.55002 0.07985 0.49405 0.0
N1396 N 0.51954 0.0838 0.60697 0.0
C1397 C 0.50479 0.07133 0.56061 0.0
C1398 C 0.52143 0.06926 0.49904 0.0
C1399 C 0.13158 0.21362 0.50162 0.0
C1400 C 0.11999 0.23666 0.49235 0.0
C1401 C 0.14401 0.20519 0.56315 0.0
C1402 C 0.14549 0.21941 0.61801 0.0
H1403 H 0.13284 0.20244 0.45997 0.0
H1404 H 0.15368 0.18765 0.56694 0.0
S1405 S 0.11141 0.27889 0.62447 0.0
N1406 N 0.10614 0.27209 0.5465 0.0
N1407 N 0.12971 0.25636 0.66181 0.0
C1408 C 0.132 0.24186 0.6108 0.0
C1409 C 0.11915 0.25041 0.54818 0.0
C1410 C 0.97743 0.94517 0.85927 0.0
C1411 C 0.01034 0.94443 0.86928 0.0
C1412 C 0.96387 0.94175 0.79617 0.0
C1413 C 0.98258 0.93754 0.74013 0.0
H1414 H 0.96195 0.94853 0.90044 0.0
H1415 H 0.93859 0.94234 0.79144 0.0
S1416 S 0.06976 0.93121 0.7411 0.0
N1417 N 0.06098 0.93737 0.81813 0.0
N1418 N 0.03587 0.93062 0.70128 0.0
C1419 C 0.01538 0.93552 0.75059 0.0
C1420 C 0.02914 0.93921 0.81436 0.0
C1421 C 0.35052 0.69164 0.13885 0.0
C1422 C 0.36952 0.71148 0.14797 0.0
C1423 C 0.34963 0.68063 0.07745 0.0
C1424 C 0.36718 0.68919 1.02188 0.0
H1425 H 0.33507 0.68523 0.17855 0.0
H1426 H 0.33393 0.66608 0.07248 0.0
S1427 S 0.42518 0.73797 1.0234 0.0
N1428 N 0.40975 0.73699 0.09881 0.0
N1429 N 0.40816 0.71669 0.98452 0.0
C1430 C 0.38874 0.70749 1.03287 0.0
C1431 C 0.38971 0.71861 0.09533 0.0
C1432 C 0.47328 0.03752 1.01262 0.0
C1433 C 0.49123 0.04318 0.95495 0.0
C1434 C 0.48716 0.03557 0.07655 0.0
C1435 C 0.51976 0.03877 0.08607 0.0
H1436 H 0.4482 0.0346 1.00847 0.0
H1437 H 0.47212 0.03146 0.11911 0.0
S1438 S 0.57733 0.05472 0.95229 0.0
N1439 N 0.54364 0.05234 0.91241 0.0
N1440 N 0.56932 0.04882 1.03176 0.0
C1441 C 0.538 0.04436 1.02891 0.0
C1442 C 0.52387 0.04651 0.96378 0.0
C1443 C 0.62944 0.69314 0.59222 0.0
C1444 C 0.61488 0.70362 0.53511 0.0
C1445 C 0.62915 0.70401 0.65404 0.0
C1446 C 0.61436 0.7259 0.66156 0.0
H1447 H 0.64262 0.67708 0.5883 0.0
H1448 H 0.64205 0.69578 0.69533 0.0
S1449 S 0.56992 0.75961 0.53021 0.0
N1450 N 0.5825 0.73632 0.49316 0.0
N1451 N 0.58261 0.7565 0.60759 0.0
C1452 C 0.59787 0.73566 0.60634 0.0
C1453 C 0.59795 0.7246 0.54378 0.0
C1454 C -0.004 0.91911 0.2504 0.0
C1455 C 0.02795 0.92578 0.24279 0.0
C1456 C 0.98062 0.9185 0.31269 0.0
C1457 C -0.00351 0.92451 0.37052 0.0
H1458 H 0.98213 0.91539 0.20717 0.0
H1459 H 0.95567 0.91468 0.31469 0.0
S1460 S 0.08238 0.93454 0.38243 0.0
N1461 N 0.07637 0.93241 0.30191 0.0
N1462 N 0.04764 0.93168 0.41864 0.0
C1463 C 0.02917 0.92848 0.365 0.0
C1464 C 0.04484 0.92901 0.3014 0.0
C1465 C 0.85749 0.26113 0.04721 0.0
C1466 C 0.84939 0.24804 0.99272 0.0
C1467 C 0.8533 0.25182 0.11295 0.0
C1468 C 0.84015 0.22944 0.12611 0.0
H1469 H 0.86745 0.27847 1.03899 0.0
H1470 H 0.86037 0.26223 0.15366 0.0
S1471 S 0.81398 0.18852 1.00052 0.0
N1472 N 0.82753 0.21149 0.95653 0.0
N1473 N 0.81882 0.19463 0.07895 0.0
C1474 C 0.83209 0.21625 0.0719 0.0
C1475 C 0.83683 0.22543 1.00552 0.0
C1476 C 0.49688 0.93053 0.75316 0.0
C1477 C 0.52979 0.93078 0.74317 0.0
C1478 C 0.48337 0.9262 0.81686 0.0
C1479 C 0.50209 0.92161 0.87378 0.0
H1480 H 0.4813 0.93373 0.71112 0.0
H1481 H 0.45797 0.92659 0.82151 0.0
S1482 S 0.58946 0.91844 0.87488 0.0
N1483 N 0.5806 0.92478 0.79612 0.0
N1484 N 0.55556 0.91694 0.91518 0.0
C1485 C 0.53505 0.92164 0.86451 0.0
C1486 C 0.54878 0.92613 0.79958 0.0
C1487 C 0.83171 0.72887 0.77345 0.0
C1488 C 0.83323 0.7532 0.75808 0.0
C1489 C 0.84368 0.71871 0.83409 0.0
C1490 C 0.85711 0.73234 0.88311 0.0
H1491 H 0.82062 0.71758 0.73894 0.0
H1492 H 0.84147 0.70008 0.84372 0.0
S1493 S 0.87105 0.79647 0.86352 0.0
N1494 N 0.8532 0.7902 0.79394 0.0
N1495 N 0.87434 0.77144 0.90764 0.0
C1496 C 0.86078 0.75646 0.8661 0.0
C1497 C 0.84907 0.76676 0.80405 0.0
C1498 C 0.95918 0.04744 0.57338 0.0
C1499 C -0.00779 0.04463 0.5791 0.0
C1500 C 0.94329 0.04608 0.51217 0.0
C1501 C 0.95955 0.04206 0.45295 0.0
H1502 H 0.94508 0.05003 0.61726 0.0
H1503 H 0.91793 0.04777 0.51169 0.0
S1504 S 0.04581 0.03607 0.43732 0.0
N1505 N 0.04042 0.03905 0.51772 0.0
N1506 N 0.01076 0.03739 0.40273 0.0
C1507 C -0.00746 0.04032 0.45701 0.0
C1508 C 0.00878 0.04143 0.51974 0.0
C1509 C 0.62824 0.27558 0.22221 0.0
C1510 C 0.60986 0.25561 0.2113 0.0
C1511 C 0.62641 0.28725 0.28233 0.0
C1512 C 0.60718 0.27902 0.33565 0.0
H1513 H 0.64442 0.28222 0.18403 0.0
H1514 H 0.64095 0.30241 0.28794 0.0
S1515 S 0.55288 0.22809 0.33127 0.0
N1516 N 0.5701 0.22907 0.25756 0.0
N1517 N 0.56765 0.25011 0.37083 0.0
C1518 C 0.58775 0.25955 0.32418 0.0
C1519 C 0.58902 0.24802 0.26233 0.0
C1520 C 0.11018 0.51117 0.91806 0.0
C1521 C 0.11199 0.49973 0.85826 0.0
C1522 C 0.10997 0.4984 0.97993 0.0
C1523 C 0.11069 0.47364 0.98464 0.0
H1524 H 0.10982 0.53011 0.91716 0.0
H1525 H 0.10926 0.5081 1.02466 0.0
S1526 S 0.11253 0.43519 0.84273 0.0
N1527 N 0.11278 0.46195 0.8077 0.0
N1528 N 0.11158 0.4383 0.92382 0.0
C1529 C 0.11115 0.46199 0.92529 0.0
C1530 C 0.11205 0.47494 0.86225 0.0
C1531 C 0.724 0.81693 0.1451 0.0
C1532 C 0.69101 0.81767 0.13561 0.0
C1533 C 0.73805 0.81871 0.20852 0.0
C1534 C 0.72005 0.82286 0.26564 0.0
H1535 H 0.73928 0.81422 0.10315 0.0
H1536 H 0.7633 0.81654 0.21279 0.0
S1537 S 0.63364 0.83353 0.2648 0.0
N1538 N 0.64139 0.82687 0.18764 0.0
N1539 N 0.66765 0.83239 0.30457 0.0
C1540 C 0.68737 0.82632 0.25535 0.0
C1541 C 0.67295 0.82342 0.19116 0.0
C1542 C 0.39412 0.4896 0.44944 0.0
C1543 C 0.3647 0.49478 0.47735 0.0
C1544 C 0.39662 0.47758 0.39116 0.0
C1545 C 0.36989 0.47084 0.35611 0.0
H1546 H 0.41576 0.49463 0.47322 0.0
H1547 H 0.41998 0.47372 0.37308 0.0
S1548 S 0.28704 0.48006 0.40708 0.0
N1549 N 0.30793 0.49167 0.46618 0.0
N1550 N 0.31269 0.46997 0.35372 0.0
C1551 C 0.34013 0.47576 0.38304 0.0
C1552 C 0.33753 0.48768 0.444 0.0
C1553 C 0.75223 0.17813 0.67568 0.0
C1554 C 0.73811 0.16504 0.62624 0.0
C1555 C 0.73715 0.18164 0.73727 0.0
C1556 C 0.70744 0.17176 0.75359 0.0
H1557 H 0.77457 0.1867 0.66554 0.0
H1558 H 0.74866 0.19269 0.77188 0.0
S1559 S 0.66224 0.13324 0.64555 0.0
N1560 N 0.69353 0.14071 0.60039 0.0
N1561 N 0.66624 0.14608 0.71665 0.0
C1562 C 0.69402 0.1574 0.70623 0.0
C1563 C 0.70905 0.1543 0.6428 0.0
C1564 C 0.87614 0.49976 0.48369 0.0
C1565 C 0.87757 0.47509 0.48953 0.0
C1566 C 0.8769 0.51195 0.42138 0.0
C1567 C 0.87841 0.49982 0.36295 0.0
H1568 H 0.874 0.50977 0.52765 0.0
H1569 H 0.87491 0.53085 0.41887 0.0
S1570 S 0.88541 0.43537 0.35156 0.0
N1571 N 0.88298 0.43917 0.43216 0.0
N1572 N 0.88366 0.46182 0.31469 0.0
C1573 C 0.88107 0.47518 0.36825 0.0
C1574 C 0.88088 0.46286 0.43172 0.0
C1575 C 0.2823 0.14947 0.13006 0.0
C1576 C 0.25203 0.15875 0.11574 0.0
C1577 C 0.29686 0.15163 0.19302 0.0
C1578 C 0.28186 0.16322 0.2446 0.0
H1579 H 0.29514 0.14081 0.09189 0.0
H1580 H 0.32022 0.14446 0.20093 0.0
S1581 S 0.20218 0.19016 0.23388 0.0
N1582 N 0.20752 0.17953 0.16007 0.0
N1583 N 0.23449 0.18375 0.27638 0.0
C1584 C 0.25148 0.17232 0.23091 0.0
C1585 C 0.23673 0.17005 0.16728 0.0
C1586 C 0.57637 0.50849 0.87384 0.0
C1587 C 0.60134 0.49376 0.85679 0.0
C1588 C 0.57696 0.5208 0.93206 0.0
C1589 C 0.60225 0.51853 0.97683 0.0
H1590 H 0.55588 0.51046 0.84206 0.0
H1591 H 0.55671 0.53139 0.9433 0.0
S1592 S 0.6742 0.48295 0.95446 0.0
N1593 N 0.65292 0.47854 0.88762 0.0
N1594 N 0.65358 0.50099 0.99903 0.0
C1595 C 0.62782 0.5043 0.95983 0.0
C1596 C 0.62749 0.4921 0.89935 0.0
C1597 C 0.29261 0.82065 0.71544 0.0
C1598 C 0.25955 0.82278 0.72217 0.0
C1599 C 0.30724 0.81683 0.65332 0.0
C1600 C 0.28957 0.81513 0.59448 0.0
H1601 H 0.30738 0.82132 0.75899 0.0
H1602 H 0.33251 0.81445 0.65189 0.0
S1603 S 0.20271 0.82238 0.58243 0.0
N1604 N 0.21002 0.82446 0.66244 0.0
N1605 N 0.23716 0.81827 0.54668 0.0
C1606 C 0.25668 0.81839 0.60003 0.0
C1607 C 0.24181 0.82194 0.66328 0.0
C1608 C 0.6302 0.96339 0.41735 0.0
C1609 C 0.63481 0.97433 0.47716 0.0
C1610 C 0.62841 0.97661 0.35645 0.0
C1611 C 0.62895 0.00139 0.35319 0.0
H1612 H 0.62869 0.9445 0.41739 0.0
H1613 H 0.6262 0.96725 0.31135 0.0
S1614 S 0.64058 0.03872 0.49517 0.0
N1615 N 0.64153 0.01173 0.52862 0.0
N1616 N 0.63453 0.03621 0.41488 0.0
C1617 C 0.63293 0.01257 0.41252 0.0
C1618 C 0.63676 -0.00085 0.47417 0.0
C1619 C 0.18675 0.30931 0.66647 0.0
C1620 C 0.20418 0.30485 0.60865 0.0
C1621 C 0.20129 0.30984 0.73006 0.0
C1622 C 0.23402 0.30626 0.73876 0.0
H1623 H 0.1616 0.31199 0.66296 0.0
H1624 H 0.18664 0.3128 0.77289 0.0
S1625 S 0.29075 0.29525 0.60321 0.0
N1626 N 0.2565 0.29764 0.56507 0.0
N1627 N 0.28333 0.29894 0.68247 0.0
C1628 C 0.25171 0.30245 0.68101 0.0
C1629 C 0.23698 0.3017 0.61681 0.0
C1630 C 0.8417 0.9777 0.94964 0.0
C1631 C 0.85356 -0.00021 0.96502 0.0
C1632 C 0.84849 0.96795 0.88825 0.0
C1633 C 0.86795 0.97975 0.84081 0.0
H1634 H 0.82804 0.96748 0.9862 0.0
H1635 H 0.8396 0.95069 0.87914 0.0
S1636 S 0.90227 0.03898 0.85354 0.0
N1637 N 0.88329 0.03398 0.92451 0.0
N1638 N 0.89687 0.01543 0.81116 0.0
C1639 C 0.87881 0.00221 0.85449 0.0
C1640 C 0.87135 0.01231 0.91597 0.0
C1641 C 0.2502 0.65961 0.26598 0.0
C1642 C 0.21749 0.65915 0.27894 0.0
C1643 C 0.26237 0.66003 0.20031 0.0
C1644 C 0.24244 0.66094 0.14431 0.0
H1645 H 0.26658 0.66067 0.30686 0.0
H1646 H 0.28761 0.66101 0.19331 0.0
S1647 S 0.15524 0.6584 0.14963 0.0
N1648 N 0.16558 0.65735 0.22882 0.0
N1649 N 0.18837 0.65991 0.10648 0.0
C1650 C 0.20984 0.65952 0.15642 0.0
C1651 C 0.19743 0.65801 0.22326 0.0
C1652 C 0.37414 0.97332 0.94834 0.0
C1653 C 0.40274 0.96714 0.97972 0.0
C1654 C 0.37366 0.9847 0.88454 0.0
C1655 C 0.4018 -0.00928 0.85088 0.0
H1656 H 0.35201 0.96926 0.97314 0.0
H1657 H 0.35117 -0.011 0.86177 0.0
S1658 S 0.48292 0.98007 0.91392 0.0
N1659 N 0.45971 0.96919 0.97358 0.0
N1660 N 0.45903 -0.01002 0.85447 0.0
C1661 C 0.43049 0.98483 0.88224 0.0
C1662 C 0.4309 0.9732 0.94654 0.0
C1663 C 0.7606 0.65224 0.75384 0.0
C1664 C 0.76306 0.67414 0.78254 0.0
C1665 C 0.7473 0.65025 0.68967 0.0
C1666 C 0.73737 0.67021 0.65104 0.0
H1667 H 0.76833 0.63656 0.78161 0.0
H1668 H 0.74536 0.63311 0.66975 0.0
S1669 S 0.73985 0.73135 0.70344 0.0
N1670 N 0.75392 0.71581 0.76789 0.0
N1671 N 0.73204 0.71248 0.64661 0.0
C1672 C 0.74064 0.69209 0.67908 0.0
C1673 C 0.75264 0.69394 0.74489 0.0
C1674 C 0.12797 0.98535 0.40737 0.0
C1675 C 0.12358 -0.00015 0.34951 0.0
C1676 C 0.12635 -0.00569 0.47112 0.0
C1677 C 0.12137 0.01833 0.47982 0.0
H1678 H 0.13123 0.96674 0.40372 0.0
H1679 H 0.1276 0.98206 0.51398 0.0
S1680 S 0.1168 0.06464 0.34413 0.0
N1681 N 0.11911 0.04006 0.30495 0.0
N1682 N 0.11825 0.05699 0.4244 0.0
C1683 C 0.12095 0.0334 0.42228 0.0
C1684 C 0.12146 0.02416 0.35728 0.0
C1685 C 0.7213 0.32466 0.17142 0.0
C1686 C 0.73458 0.31306 0.22841 0.0
C1687 C 0.73687 0.32547 0.10873 0.0
C1688 C 0.76633 0.3145 0.0997 0.0
H1689 H 0.69815 0.33245 0.17458 0.0
H1690 H 0.72491 0.33369 0.06614 0.0
S1691 S 0.81392 0.28605 0.23578 0.0
N1692 N 0.78101 0.29331 0.27301 0.0
N1693 N 0.80988 0.29473 0.15667 0.0
C1694 C 0.78077 0.30446 0.15747 0.0
C1695 C 0.76496 0.30363 0.22106 0.0
loop_
_geom_bond_atom_site_label_1
_geom_bond_atom_site_label_2
_geom_bond_distance
_geom_bond_site_symmetry_2
_ccdc_geom_bond_type
Tb0 O3 2.453 . S
Tb0 O4 2.596 . S
Tb0 O5 2.374 . S
Tb0 O13 2.343 . S
Tb0 O15 2.353 . S
Tb0 O17 2.427 . S
Tb0 O18 2.513 . S
C1 O5 1.251 . S
C1 O7 1.263 . S
Tb2 O4 2.343 . S
Tb2 O7 2.353 . S
Tb2 O10 2.427 1_554 S
Tb2 O11 2.513 1_554 S
Tb2 O12 2.453 . S
Tb2 O13 2.596 . S
Tb2 O14 2.374 . S
O3 Tb0 2.453 . S
O3 C19 1.245 . S
O4 Tb0 2.596 . S
O4 Tb2 2.343 . S
O4 C19 1.259 . S
O5 Tb0 2.374 . S
O5 C1 1.251 . S
C6 O10 1.275 . S
C6 O11 1.246 . S
O7 C1 1.263 . S
O7 Tb2 2.353 . S
C8 O12 1.245 . S
C8 O13 1.259 . S
C9 O14 1.250 . S
C9 O15 1.263 . S
O10 Tb2 2.427 1_556 S
O10 C6 1.275 . S
O11 Tb2 2.513 1_556 S
O11 C6 1.246 . S
O12 Tb2 2.453 . S
O12 C8 1.245 . S
O13 Tb0 2.343 . S
O13 Tb2 2.596 . S
O13 C8 1.259 . S
O14 Tb2 2.374 . S
O14 C9 1.250 . S
O15 Tb0 2.353 . S
O15 C9 1.263 . S
C16 O17 1.275 . S
C16 O18 1.246 . S
O17 Tb0 2.427 . S
O17 C16 1.275 . S
O18 Tb0 2.513 . S
O18 C16 1.246 . S
C19 O3 1.245 . S
C19 O4 1.259 . S
Tb20 O23 2.453 . S
Tb20 O24 2.596 . S
Tb20 O25 2.374 . S
Tb20 O33 2.343 . S
Tb20 O35 2.353 . S
Tb20 O37 2.427 . S
Tb20 O38 2.513 . S
C21 O25 1.251 . S
C21 O27 1.263 . S
Tb22 O24 2.343 . S
Tb22 O27 2.353 . S
Tb22 O30 2.427 . S
Tb22 O31 2.513 . S
Tb22 O32 2.453 . S
Tb22 O33 2.596 . S
Tb22 O34 2.374 . S
O23 Tb20 2.453 . S
O23 C39 1.245 . S
O24 Tb20 2.596 . S
O24 Tb22 2.343 . S
O24 C39 1.259 . S
O25 Tb20 2.374 . S
O25 C21 1.251 . S
C26 O30 1.275 . S
C26 O31 1.246 . S
O27 C21 1.263 . S
O27 Tb22 2.353 . S
C28 O32 1.245 . S
C28 O33 1.259 . S
C29 O34 1.250 . S
C29 O35 1.263 . S
O30 Tb22 2.427 . S
O30 C26 1.275 . S
O31 Tb22 2.513 . S
O31 C26 1.246 . S
O32 Tb22 2.453 . S
O32 C28 1.245 . S
O33 Tb20 2.343 . S
O33 Tb22 2.596 . S
O33 C28 1.259 . S
O34 Tb22 2.374 . S
O34 C29 1.250 . S
O35 Tb20 2.353 . S
O35 C29 1.263 . S
C36 O37 1.275 . S
C36 O38 1.246 . S
O37 Tb20 2.427 . S
O37 C36 1.275 . S
O38 Tb20 2.513 . S
O38 C36 1.246 . S
C39 O23 1.245 . S
C39 O24 1.259 . S
Tb40 O43 2.453 . S
Tb40 O44 2.596 . S
Tb40 O45 2.374 . S
Tb40 O53 2.343 . S
Tb40 O55 2.353 . S
Tb40 O57 2.427 . S
Tb40 O58 2.513 . S
C41 O45 1.251 . S
C41 O47 1.263 . S
Tb42 O44 2.343 . S
Tb42 O47 2.353 . S
Tb42 O50 2.427 . S
Tb42 O51 2.513 . S
Tb42 O52 2.453 . S
Tb42 O53 2.596 . S
Tb42 O54 2.374 . S
O43 Tb40 2.453 . S
O43 C59 1.245 . S
O44 Tb40 2.596 . S
O44 Tb42 2.343 . S
O44 C59 1.259 . S
O45 Tb40 2.374 . S
O45 C41 1.251 . S
C46 O50 1.275 . S
C46 O51 1.246 . S
O47 C41 1.263 . S
O47 Tb42 2.353 . S
C48 O52 1.245 . S
C48 O53 1.259 . S
C49 O54 1.250 . S
C49 O55 1.263 . S
O50 Tb42 2.427 . S
O50 C46 1.275 . S
O51 Tb42 2.513 . S
O51 C46 1.246 . S
O52 Tb42 2.453 . S
O52 C48 1.245 . S
O53 Tb40 2.343 . S
O53 Tb42 2.596 . S
O53 C48 1.259 . S
O54 Tb42 2.374 . S
O54 C49 1.250 . S
O55 Tb40 2.353 . S
O55 C49 1.263 . S
C56 O57 1.275 . S
C56 O58 1.246 . S
O57 Tb40 2.427 . S
O57 C56 1.275 . S
O58 Tb40 2.513 . S
O58 C56 1.246 . S
C59 O43 1.245 . S
C59 O44 1.259 . S
Tb60 O63 2.453 1_556 S
Tb60 O64 2.596 1_556 S
Tb60 O65 2.374 . S
Tb60 O73 2.343 . S
Tb60 O75 2.353 . S
Tb60 O77 2.427 . S
Tb60 O78 2.513 . S
C61 O65 1.251 . S
C61 O67 1.263 . S
Tb62 O64 2.343 1_556 S
Tb62 O67 2.353 . S
Tb62 O70 2.427 1_556 S
Tb62 O71 2.513 1_556 S
Tb62 O72 2.453 . S
Tb62 O73 2.596 . S
Tb62 O74 2.374 . S
O63 Tb60 2.453 1_554 S
O63 C79 1.245 . S
O64 Tb60 2.596 1_554 S
O64 Tb62 2.343 1_554 S
O64 C79 1.259 . S
O65 Tb60 2.374 . S
O65 C61 1.251 . S
C66 O70 1.275 . S
C66 O71 1.246 . S
O67 C61 1.263 . S
O67 Tb62 2.353 . S
C68 O72 1.245 . S
C68 O73 1.259 . S
C69 O74 1.250 . S
C69 O75 1.263 . S
O70 Tb62 2.427 1_554 S
O70 C66 1.275 . S
O71 Tb62 2.513 1_554 S
O71 C66 1.246 . S
O72 Tb62 2.453 . S
O72 C68 1.245 . S
O73 Tb60 2.343 . S
O73 Tb62 2.596 . S
O73 C68 1.259 . S
O74 Tb62 2.374 . S
O74 C69 1.250 . S
O75 Tb60 2.353 . S
O75 C69 1.263 . S
C76 O77 1.275 . S
C76 O78 1.246 . S
O77 Tb60 2.427 . S
O77 C76 1.275 . S
O78 Tb60 2.513 . S
O78 C76 1.246 . S
C79 O63 1.245 . S
C79 O64 1.259 . S
Tb80 O83 2.453 . S
Tb80 O84 2.596 . S
Tb80 O85 2.374 . S
Tb80 O93 2.343 . S
Tb80 O95 2.353 . S
Tb80 O97 2.427 . S
Tb80 O98 2.513 . S
C81 O85 1.251 . S
C81 O87 1.263 . S
Tb82 O84 2.343 . S
Tb82 O87 2.353 . S
Tb82 O90 2.427 . S
Tb82 O91 2.513 . S
Tb82 O92 2.453 . S
Tb82 O93 2.596 . S
Tb82 O94 2.374 . S
O83 Tb80 2.453 . S
O83 C99 1.245 . S
O84 Tb80 2.596 . S
O84 Tb82 2.343 . S
O84 C99 1.259 . S
O85 Tb80 2.374 . S
O85 C81 1.251 . S
C86 O90 1.275 . S
C86 O91 1.246 . S
O87 C81 1.263 . S
O87 Tb82 2.353 . S
C88 O92 1.245 . S
C88 O93 1.259 . S
C89 O94 1.250 . S
C89 O95 1.263 . S
O90 Tb82 2.427 . S
O90 C86 1.275 . S
O91 Tb82 2.513 . S
O91 C86 1.246 . S
O92 Tb82 2.453 . S
O92 C88 1.245 . S
O93 Tb80 2.343 . S
O93 Tb82 2.596 . S
O93 C88 1.259 . S
O94 Tb82 2.374 . S
O94 C89 1.250 . S
O95 Tb80 2.353 . S
O95 C89 1.263 . S
C96 O97 1.275 . S
C96 O98 1.246 . S
O97 Tb80 2.427 . S
O97 C96 1.275 . S
O98 Tb80 2.513 . S
O98 C96 1.246 . S
C99 O83 1.245 . S
C99 O84 1.259 . S
Tb100 O103 2.453 . S
Tb100 O104 2.596 . S
Tb100 O105 2.374 . S
Tb100 O113 2.343 . S
Tb100 O115 2.353 . S
Tb100 O117 2.427 . S
Tb100 O118 2.513 . S
C101 O105 1.251 . S
C101 O107 1.263 . S
Tb102 O104 2.343 . S
Tb102 O107 2.353 . S
Tb102 O110 2.427 . S
Tb102 O111 2.513 . S
Tb102 O112 2.453 . S
Tb102 O113 2.596 . S
Tb102 O114 2.374 . S
O103 Tb100 2.453 . S
O103 C119 1.245 . S
O104 Tb100 2.596 . S
O104 Tb102 2.343 . S
O104 C119 1.259 . S
O105 Tb100 2.374 . S
O105 C101 1.251 . S
C106 O110 1.275 . S
C106 O111 1.246 . S
O107 C101 1.263 . S
O107 Tb102 2.353 . S
C108 O112 1.245 . S
C108 O113 1.259 . S
C109 O114 1.250 . S
C109 O115 1.263 . S
O110 Tb102 2.427 . S
O110 C106 1.275 . S
O111 Tb102 2.513 . S
O111 C106 1.246 . S
O112 Tb102 2.453 . S
O112 C108 1.245 . S
O113 Tb100 2.343 . S
O113 Tb102 2.596 . S
O113 C108 1.259 . S
O114 Tb102 2.374 . S
O114 C109 1.250 . S
O115 Tb100 2.353 . S
O115 C109 1.263 . S
C116 O117 1.275 . S
C116 O118 1.246 . S
O117 Tb100 2.427 . S
O117 C116 1.275 . S
O118 Tb100 2.513 . S
O118 C116 1.246 . S
C119 O103 1.245 . S
C119 O104 1.259 . S
Tb120 O123 2.453 . S
Tb120 O124 2.596 . S
Tb120 O125 2.374 . S
Tb120 O133 2.343 . S
Tb120 O135 2.353 . S
Tb120 O137 2.427 . S
Tb120 O138 2.513 . S
C121 O125 1.251 . S
C121 O127 1.263 . S
Tb122 O124 2.343 . S
Tb122 O127 2.353 . S
Tb122 O130 2.427 1_554 S
Tb122 O131 2.513 1_554 S
Tb122 O132 2.453 . S
Tb122 O133 2.596 . S
Tb122 O134 2.374 . S
O123 Tb120 2.453 . S
O123 C139 1.245 1_554 S
O124 Tb120 2.596 . S
O124 Tb122 2.343 . S
O124 C139 1.259 1_554 S
O125 Tb120 2.374 . S
O125 C121 1.251 . S
C126 O130 1.275 . S
C126 O131 1.246 . S
O127 C121 1.263 . S
O127 Tb122 2.353 . S
C128 O132 1.245 . S
C128 O133 1.259 . S
C129 O134 1.250 . S
C129 O135 1.263 . S
O130 Tb122 2.427 1_556 S
O130 C126 1.275 . S
O131 Tb122 2.513 1_556 S
O131 C126 1.246 . S
O132 Tb122 2.453 . S
O132 C128 1.245 . S
O133 Tb120 2.343 . S
O133 Tb122 2.596 . S
O133 C128 1.259 . S
O134 Tb122 2.374 . S
O134 C129 1.250 . S
O135 Tb120 2.353 . S
O135 C129 1.263 . S
C136 O137 1.275 . S
C136 O138 1.246 . S
O137 Tb120 2.427 . S
O137 C136 1.275 . S
O138 Tb120 2.513 . S
O138 C136 1.246 . S
C139 O123 1.245 1_556 S
C139 O124 1.259 1_556 S
Tb140 O143 2.453 . S
Tb140 O144 2.596 . S
Tb140 O145 2.374 . S
Tb140 O153 2.343 . S
Tb140 O155 2.353 . S
Tb140 O157 2.427 . S
Tb140 O158 2.513 . S
C141 O145 1.251 . S
C141 O147 1.263 . S
Tb142 O144 2.343 . S
Tb142 O147 2.353 . S
Tb142 O150 2.427 . S
Tb142 O151 2.513 . S
Tb142 O152 2.453 . S
Tb142 O153 2.596 . S
Tb142 O154 2.374 . S
O143 Tb140 2.453 . S
O143 C159 1.245 . S
O144 Tb140 2.596 . S
O144 Tb142 2.343 . S
O144 C159 1.259 . S
O145 Tb140 2.374 . S
O145 C141 1.251 . S
C146 O150 1.275 . S
C146 O151 1.246 . S
O147 C141 1.263 . S
O147 Tb142 2.353 . S
C148 O152 1.245 . S
C148 O153 1.259 . S
C149 O154 1.250 . S
C149 O155 1.263 . S
O150 Tb142 2.427 . S
O150 C146 1.275 . S
O151 Tb142 2.513 . S
O151 C146 1.246 . S
O152 Tb142 2.453 . S
O152 C148 1.245 . S
O153 Tb140 2.343 . S
O153 Tb142 2.596 . S
O153 C148 1.259 . S
O154 Tb142 2.374 . S
O154 C149 1.250 . S
O155 Tb140 2.353 . S
O155 C149 1.263 . S
C156 O157 1.275 . S
C156 O158 1.246 . S
O157 Tb140 2.427 . S
O157 C156 1.275 . S
O158 Tb140 2.513 . S
O158 C156 1.246 . S
C159 O143 1.245 . S
C159 O144 1.259 . S
Tb160 O163 2.453 . S
Tb160 O164 2.596 . S
Tb160 O165 2.374 . S
Tb160 O173 2.343 . S
Tb160 O175 2.353 . S
Tb160 O177 2.427 . S
Tb160 O178 2.513 . S
C161 O165 1.251 . S
C161 O167 1.263 . S
Tb162 O164 2.343 . S
Tb162 O167 2.353 . S
Tb162 O170 2.427 . S
Tb162 O171 2.513 . S
Tb162 O172 2.453 . S
Tb162 O173 2.596 . S
Tb162 O174 2.374 . S
O163 Tb160 2.453 . S
O163 C179 1.245 . S
O164 Tb160 2.596 . S
O164 Tb162 2.343 . S
O164 C179 1.259 . S
O165 Tb160 2.374 . S
O165 C161 1.251 . S
C166 O170 1.275 1_556 S
C166 O171 1.246 1_556 S
O167 C161 1.263 . S
O167 Tb162 2.353 . S
C168 O172 1.245 . S
C168 O173 1.259 . S
C169 O174 1.250 . S
C169 O175 1.263 . S
O170 Tb162 2.427 . S
O170 C166 1.275 1_554 S
O171 Tb162 2.513 . S
O171 C166 1.246 1_554 S
O172 Tb162 2.453 . S
O172 C168 1.245 . S
O173 Tb160 2.343 . S
O173 Tb162 2.596 . S
O173 C168 1.259 . S
O174 Tb162 2.374 . S
O174 C169 1.250 . S
O175 Tb160 2.353 . S
O175 C169 1.263 . S
C176 O177 1.275 . S
C176 O178 1.246 . S
O177 Tb160 2.427 . S
O177 C176 1.275 . S
O178 Tb160 2.513 . S
O178 C176 1.246 . S
C179 O163 1.245 . S
C179 O164 1.259 . S
Tb180 O183 2.453 . S
Tb180 O184 2.596 . S
Tb180 O185 2.374 . S
Tb180 O193 2.343 . S
Tb180 O195 2.353 . S
Tb180 O197 2.427 . S
Tb180 O198 2.513 . S
C181 O185 1.251 . S
C181 O187 1.263 . S
Tb182 O184 2.343 . S
Tb182 O187 2.353 . S
Tb182 O190 2.427 . S
Tb182 O191 2.513 . S
Tb182 O192 2.453 . S
Tb182 O193 2.596 . S
Tb182 O194 2.374 . S
O183 Tb180 2.453 . S
O183 C199 1.245 . S
O184 Tb180 2.596 . S
O184 Tb182 2.343 . S
O184 C199 1.259 . S
O185 Tb180 2.374 . S
O185 C181 1.251 . S
C186 O190 1.275 1_554 S
C186 O191 1.246 1_554 S
O187 C181 1.263 . S
O187 Tb182 2.353 . S
C188 O192 1.245 . S
C188 O193 1.259 . S
C189 O194 1.250 . S
C189 O195 1.263 . S
O190 Tb182 2.427 . S
O190 C186 1.275 1_556 S
O191 Tb182 2.513 . S
O191 C186 1.246 1_556 S
O192 Tb182 2.453 . S
O192 C188 1.245 . S
O193 Tb180 2.343 . S
O193 Tb182 2.596 . S
O193 C188 1.259 . S
O194 Tb182 2.374 . S
O194 C189 1.250 . S
O195 Tb180 2.353 . S
O195 C189 1.263 . S
C196 O197 1.275 . S
C196 O198 1.246 . S
O197 Tb180 2.427 . S
O197 C196 1.275 . S
O198 Tb180 2.513 . S
O198 C196 1.246 . S
C199 O183 1.245 . S
C199 O184 1.259 . S
Tb200 O203 2.453 . S
Tb200 O204 2.596 . S
Tb200 O205 2.374 . S
Tb200 O213 2.343 . S
Tb200 O215 2.353 . S
Tb200 O217 2.427 . S
Tb200 O218 2.513 . S
C201 O205 1.251 . S
C201 O207 1.263 . S
Tb202 O204 2.343 . S
Tb202 O207 2.353 . S
Tb202 O210 2.427 . S
Tb202 O211 2.513 . S
Tb202 O212 2.453 . S
Tb202 O213 2.596 . S
Tb202 O214 2.374 . S
O203 Tb200 2.453 . S
O203 C219 1.245 . S
O204 Tb200 2.596 . S
O204 Tb202 2.343 . S
O204 C219 1.259 . S
O205 Tb200 2.374 . S
O205 C201 1.251 . S
C206 O210 1.275 . S
C206 O211 1.246 . S
O207 C201 1.263 . S
O207 Tb202 2.353 . S
C208 O212 1.245 . S
C208 O213 1.259 . S
C209 O214 1.250 . S
C209 O215 1.263 . S
O210 Tb202 2.427 . S
O210 C206 1.275 . S
O211 Tb202 2.513 . S
O211 C206 1.246 . S
O212 Tb202 2.453 . S
O212 C208 1.245 . S
O213 Tb200 2.343 . S
O213 Tb202 2.596 . S
O213 C208 1.259 . S
O214 Tb202 2.374 . S
O214 C209 1.250 . S
O215 Tb200 2.353 . S
O215 C209 1.263 . S
C216 O217 1.275 . S
C216 O218 1.246 . S
O217 Tb200 2.427 . S
O217 C216 1.275 . S
O218 Tb200 2.513 . S
O218 C216 1.246 . S
C219 O203 1.245 . S
C219 O204 1.259 . S
Tb220 O223 2.453 . S
Tb220 O224 2.596 . S
Tb220 O225 2.374 . S
Tb220 O233 2.343 . S
Tb220 O235 2.353 . S
Tb220 O237 2.427 . S
Tb220 O238 2.513 . S
C221 O225 1.251 . S
C221 O227 1.263 . S
Tb222 O224 2.343 . S
Tb222 O227 2.353 . S
Tb222 O230 2.427 . S
Tb222 O231 2.513 . S
Tb222 O232 2.453 . S
Tb222 O233 2.596 . S
Tb222 O234 2.374 . S
O223 Tb220 2.453 . S
O223 C239 1.245 . S
O224 Tb220 2.596 . S
O224 Tb222 2.343 . S
O224 C239 1.259 . S
O225 Tb220 2.374 . S
O225 C221 1.251 . S
C226 O230 1.275 . S
C226 O231 1.246 . S
O227 C221 1.263 . S
O227 Tb222 2.353 . S
C228 O232 1.245 . S
C228 O233 1.259 . S
C229 O234 1.250 . S
C229 O235 1.263 . S
O230 Tb222 2.427 . S
O230 C226 1.275 . S
O231 Tb222 2.513 . S
O231 C226 1.246 . S
O232 Tb222 2.453 . S
O232 C228 1.245 . S
O233 Tb220 2.343 . S
O233 Tb222 2.596 . S
O233 C228 1.259 . S
O234 Tb222 2.374 . S
O234 C229 1.250 . S
O235 Tb220 2.353 . S
O235 C229 1.263 . S
C236 O237 1.275 . S
C236 O238 1.246 . S
O237 Tb220 2.427 . S
O237 C236 1.275 . S
O238 Tb220 2.513 . S
O238 C236 1.246 . S
C239 O223 1.245 . S
C239 O224 1.259 . S
Tb240 O243 2.453 . S
Tb240 O244 2.596 . S
Tb240 O245 2.374 . S
Tb240 O253 2.343 . S
Tb240 O255 2.353 . S
Tb240 O257 2.427 . S
Tb240 O258 2.513 . S
C241 O245 1.251 . S
C241 O247 1.263 . S
Tb242 O244 2.343 . S
Tb242 O247 2.353 . S
Tb242 O250 2.427 . S
Tb242 O251 2.513 . S
Tb242 O252 2.453 . S
Tb242 O253 2.596 . S
Tb242 O254 2.374 . S
O243 Tb240 2.453 . S
O243 C259 1.245 . S
O244 Tb240 2.596 . S
O244 Tb242 2.343 . S
O244 C259 1.259 . S
O245 Tb240 2.374 . S
O245 C241 1.251 . S
C246 O250 1.275 . S
C246 O251 1.246 . S
O247 C241 1.263 . S
O247 Tb242 2.353 . S
C248 O252 1.245 . S
C248 O253 1.259 . S
C249 O254 1.250 . S
C249 O255 1.263 . S
O250 Tb242 2.427 . S
O250 C246 1.275 . S
O251 Tb242 2.513 . S
O251 C246 1.246 . S
O252 Tb242 2.453 . S
O252 C248 1.245 . S
O253 Tb240 2.343 . S
O253 Tb242 2.596 . S
O253 C248 1.259 . S
O254 Tb242 2.374 . S
O254 C249 1.250 . S
O255 Tb240 2.353 . S
O255 C249 1.263 . S
C256 O257 1.275 . S
C256 O258 1.246 . S
O257 Tb240 2.427 . S
O257 C256 1.275 . S
O258 Tb240 2.513 . S
O258 C256 1.246 . S
C259 O243 1.245 . S
C259 O244 1.259 . S
Tb260 O263 2.453 . S
Tb260 O264 2.596 . S
Tb260 O265 2.374 . S
Tb260 O273 2.343 . S
Tb260 O275 2.353 . S
Tb260 O277 2.427 . S
Tb260 O278 2.513 . S
C261 O265 1.251 . S
C261 O267 1.263 . S
Tb262 O264 2.343 . S
Tb262 O267 2.353 . S
Tb262 O270 2.427 . S
Tb262 O271 2.513 . S
Tb262 O272 2.453 . S
Tb262 O273 2.596 . S
Tb262 O274 2.374 . S
O263 Tb260 2.453 . S
O263 C279 1.245 . S
O264 Tb260 2.596 . S
O264 Tb262 2.343 . S
O264 C279 1.259 . S
O265 Tb260 2.374 . S
O265 C261 1.251 . S
C266 O270 1.275 . S
C266 O271 1.246 . S
O267 C261 1.263 . S
O267 Tb262 2.353 . S
C268 O272 1.245 . S
C268 O273 1.259 . S
C269 O274 1.250 . S
C269 O275 1.263 . S
O270 Tb262 2.427 . S
O270 C266 1.275 . S
O271 Tb262 2.513 . S
O271 C266 1.246 . S
O272 Tb262 2.453 . S
O272 C268 1.245 . S
O273 Tb260 2.343 . S
O273 Tb262 2.596 . S
O273 C268 1.259 . S
O274 Tb262 2.374 . S
O274 C269 1.250 . S
O275 Tb260 2.353 . S
O275 C269 1.263 . S
C276 O277 1.275 . S
C276 O278 1.246 . S
O277 Tb260 2.427 . S
O277 C276 1.275 . S
O278 Tb260 2.513 . S
O278 C276 1.246 . S
C279 O263 1.245 . S
C279 O264 1.259 . S
Tb280 O283 2.453 . S
Tb280 O284 2.596 . S
Tb280 O285 2.374 . S
Tb280 O293 2.343 . S
Tb280 O295 2.353 . S
Tb280 O297 2.427 . S
Tb280 O298 2.513 . S
C281 O285 1.251 . S
C281 O287 1.263 . S
Tb282 O284 2.343 . S
Tb282 O287 2.353 . S
Tb282 O290 2.427 . S
Tb282 O291 2.513 . S
Tb282 O292 2.453 . S
Tb282 O293 2.596 . S
Tb282 O294 2.374 . S
O283 Tb280 2.453 . S
O283 C299 1.245 . S
O284 Tb280 2.596 . S
O284 Tb282 2.343 . S
O284 C299 1.259 . S
O285 Tb280 2.374 . S
O285 C281 1.251 . S
C286 O290 1.275 . S
C286 O291 1.246 . S
O287 C281 1.263 . S
O287 Tb282 2.353 . S
C288 O292 1.245 . S
C288 O293 1.259 . S
C289 O294 1.250 . S
C289 O295 1.263 . S
O290 Tb282 2.427 . S
O290 C286 1.275 . S
O291 Tb282 2.513 . S
O291 C286 1.246 . S
O292 Tb282 2.453 . S
O292 C288 1.245 . S
O293 Tb280 2.343 . S
O293 Tb282 2.596 . S
O293 C288 1.259 . S
O294 Tb282 2.374 . S
O294 C289 1.250 . S
O295 Tb280 2.353 . S
O295 C289 1.263 . S
C296 O297 1.275 . S
C296 O298 1.246 . S
O297 Tb280 2.427 . S
O297 C296 1.275 . S
O298 Tb280 2.513 . S
O298 C296 1.246 . S
C299 O283 1.245 . S
C299 O284 1.259 . S
Tb300 O303 2.453 . S
Tb300 O304 2.596 . S
Tb300 O305 2.374 . S
Tb300 O313 2.343 . S
Tb300 O315 2.353 . S
Tb300 O317 2.427 1_556 S
Tb300 O318 2.513 1_556 S
C301 O305 1.251 . S
C301 O307 1.263 . S
Tb302 O304 2.343 . S
Tb302 O307 2.353 . S
Tb302 O310 2.427 . S
Tb302 O311 2.513 . S
Tb302 O312 2.453 . S
Tb302 O313 2.596 . S
Tb302 O314 2.374 . S
O303 Tb300 2.453 . S
O303 C319 1.245 . S
O304 Tb300 2.596 . S
O304 Tb302 2.343 . S
O304 C319 1.259 . S
O305 Tb300 2.374 . S
O305 C301 1.251 . S
C306 O310 1.275 . S
C306 O311 1.246 . S
O307 C301 1.263 . S
O307 Tb302 2.353 . S
C308 O312 1.245 1_554 S
C308 O313 1.259 1_554 S
C309 O314 1.250 . S
C309 O315 1.263 . S
O310 Tb302 2.427 . S
O310 C306 1.275 . S
O311 Tb302 2.513 . S
O311 C306 1.246 . S
O312 Tb302 2.453 . S
O312 C308 1.245 1_556 S
O313 Tb300 2.343 . S
O313 Tb302 2.596 . S
O313 C308 1.259 1_556 S
O314 Tb302 2.374 . S
O314 C309 1.250 . S
O315 Tb300 2.353 . S
O315 C309 1.263 . S
C316 O317 1.275 . S
C316 O318 1.246 . S
O317 Tb300 2.427 1_554 S
O317 C316 1.275 . S
O318 Tb300 2.513 1_554 S
O318 C316 1.246 . S
C319 O303 1.245 . S
C319 O304 1.259 . S
Tb320 O323 2.453 . S
Tb320 O324 2.596 . S
Tb320 O325 2.374 . S
Tb320 O333 2.343 . S
Tb320 O335 2.353 . S
Tb320 O337 2.427 . S
Tb320 O338 2.513 . S
C321 O325 1.251 . S
C321 O327 1.263 . S
Tb322 O324 2.343 . S
Tb322 O327 2.353 . S
Tb322 O330 2.427 . S
Tb322 O331 2.513 . S
Tb322 O332 2.453 . S
Tb322 O333 2.596 . S
Tb322 O334 2.374 . S
O323 Tb320 2.453 . S
O323 C339 1.245 . S
O324 Tb320 2.596 . S
O324 Tb322 2.343 . S
O324 C339 1.259 . S
O325 Tb320 2.374 . S
O325 C321 1.251 . S
C326 O330 1.275 . S
C326 O331 1.246 . S
O327 C321 1.263 . S
O327 Tb322 2.353 . S
C328 O332 1.245 . S
C328 O333 1.259 . S
C329 O334 1.250 . S
C329 O335 1.263 . S
O330 Tb322 2.427 . S
O330 C326 1.275 . S
O331 Tb322 2.513 . S
O331 C326 1.246 . S
O332 Tb322 2.453 . S
O332 C328 1.245 . S
O333 Tb320 2.343 . S
O333 Tb322 2.596 . S
O333 C328 1.259 . S
O334 Tb322 2.374 . S
O334 C329 1.250 . S
O335 Tb320 2.353 . S
O335 C329 1.263 . S
C336 O337 1.275 . S
C336 O338 1.246 . S
O337 Tb320 2.427 . S
O337 C336 1.275 . S
O338 Tb320 2.513 . S
O338 C336 1.246 . S
C339 O323 1.245 . S
C339 O324 1.259 . S
Tb340 O343 2.453 . S
Tb340 O344 2.596 . S
Tb340 O345 2.374 . S
Tb340 O353 2.343 . S
Tb340 O355 2.353 . S
Tb340 O357 2.427 . S
Tb340 O358 2.513 . S
C341 O345 1.251 . S
C341 O347 1.263 . S
Tb342 O344 2.343 . S
Tb342 O347 2.353 . S
Tb342 O350 2.427 1_556 S
Tb342 O351 2.513 1_556 S
Tb342 O352 2.453 . S
Tb342 O353 2.596 . S
Tb342 O354 2.374 . S
O343 Tb340 2.453 . S
O343 C359 1.245 1_556 S
O344 Tb340 2.596 . S
O344 Tb342 2.343 . S
O344 C359 1.259 1_556 S
O345 Tb340 2.374 . S
O345 C341 1.251 . S
C346 O350 1.275 . S
C346 O351 1.246 . S
O347 C341 1.263 . S
O347 Tb342 2.353 . S
C348 O352 1.245 . S
C348 O353 1.259 . S
C349 O354 1.250 . S
C349 O355 1.263 . S
O350 Tb342 2.427 1_554 S
O350 C346 1.275 . S
O351 Tb342 2.513 1_554 S
O351 C346 1.246 . S
O352 Tb342 2.453 . S
O352 C348 1.245 . S
O353 Tb340 2.343 . S
O353 Tb342 2.596 . S
O353 C348 1.259 . S
O354 Tb342 2.374 . S
O354 C349 1.250 . S
O355 Tb340 2.353 . S
O355 C349 1.263 . S
C356 O357 1.275 . S
C356 O358 1.246 . S
O357 Tb340 2.427 . S
O357 C356 1.275 . S
O358 Tb340 2.513 . S
O358 C356 1.246 . S
C359 O343 1.245 1_554 S
C359 O344 1.259 1_554 S
Tb360 O363 2.453 . S
Tb360 O364 2.596 . S
Tb360 O365 2.374 . S
Tb360 O373 2.343 . S
Tb360 O375 2.353 1_545 S
Tb360 O377 2.427 . S
Tb360 O378 2.513 . S
C361 O365 1.251 . S
C361 O367 1.263 . S
Tb362 O364 2.343 . S
Tb362 O367 2.353 . S
Tb362 O370 2.427 . S
Tb362 O371 2.513 . S
Tb362 O372 2.453 . S
Tb362 O373 2.596 . S
Tb362 O374 2.374 . S
O363 Tb360 2.453 . S
O363 C379 1.245 . S
O364 Tb360 2.596 . S
O364 Tb362 2.343 . S
O364 C379 1.259 . S
O365 Tb360 2.374 . S
O365 C361 1.251 . S
C366 O370 1.275 . S
C366 O371 1.246 . S
O367 C361 1.263 . S
O367 Tb362 2.353 . S
C368 O372 1.245 . S
C368 O373 1.259 . S
C369 O374 1.269 . S
C369 O375 1.256 1_545 S
O370 Tb362 2.427 . S
O370 C366 1.275 . S
O371 Tb362 2.513 . S
O371 C366 1.246 . S
O372 Tb362 2.453 . S
O372 C368 1.245 . S
O373 Tb360 2.343 . S
O373 Tb362 2.596 . S
O373 C368 1.259 . S
O374 Tb362 2.374 . S
O374 C369 1.269 . S
O375 Tb360 2.353 1_565 S
O375 C369 1.256 1_565 S
C376 O377 1.275 . S
C376 O378 1.246 . S
O377 Tb360 2.427 . S
O377 C376 1.275 . S
O378 Tb360 2.513 . S
O378 C376 1.246 . S
C379 O363 1.245 . S
C379 O364 1.259 . S
Tb380 O383 2.453 . S
Tb380 O384 2.596 . S
Tb380 O385 2.374 . S
Tb380 O393 2.343 . S
Tb380 O395 2.353 . S
Tb380 O397 2.427 . S
Tb380 O398 2.513 . S
C381 O385 1.251 . S
C381 O387 1.263 . S
Tb382 O384 2.343 . S
Tb382 O387 2.353 . S
Tb382 O390 2.427 . S
Tb382 O391 2.513 . S
Tb382 O392 2.453 . S
Tb382 O393 2.596 . S
Tb382 O394 2.374 . S
O383 Tb380 2.453 . S
O383 C399 1.245 . S
O384 Tb380 2.596 . S
O384 Tb382 2.343 . S
O384 C399 1.259 . S
O385 Tb380 2.374 . S
O385 C381 1.251 . S
C386 O390 1.275 . S
C386 O391 1.246 . S
O387 C381 1.263 . S
O387 Tb382 2.353 . S
C388 O392 1.245 . S
C388 O393 1.259 . S
C389 O394 1.250 . S
C389 O395 1.263 . S
O390 Tb382 2.427 . S
O390 C386 1.275 . S
O391 Tb382 2.513 . S
O391 C386 1.246 . S
O392 Tb382 2.453 . S
O392 C388 1.245 . S
O393 Tb380 2.343 . S
O393 Tb382 2.596 . S
O393 C388 1.259 . S
O394 Tb382 2.374 . S
O394 C389 1.250 . S
O395 Tb380 2.353 . S
O395 C389 1.263 . S
C396 O397 1.275 . S
C396 O398 1.246 . S
O397 Tb380 2.427 . S
O397 C396 1.275 . S
O398 Tb380 2.513 . S
O398 C396 1.246 . S
C399 O383 1.245 . S
C399 O384 1.259 . S
Tb400 O403 2.453 . S
Tb400 O404 2.596 . S
Tb400 O405 2.374 . S
Tb400 O413 2.343 . S
Tb400 O415 2.353 . S
Tb400 O417 2.427 . S
Tb400 O418 2.513 . S
C401 O405 1.251 . S
C401 O407 1.263 . S
Tb402 O404 2.343 . S
Tb402 O407 2.353 . S
Tb402 O410 2.427 . S
Tb402 O411 2.513 . S
Tb402 O412 2.453 . S
Tb402 O413 2.596 . S
Tb402 O414 2.374 . S
O403 Tb400 2.453 . S
O403 C419 1.245 . S
O404 Tb400 2.596 . S
O404 Tb402 2.343 . S
O404 C419 1.259 . S
O405 Tb400 2.374 . S
O405 C401 1.251 . S
C406 O410 1.275 . S
C406 O411 1.246 . S
O407 C401 1.263 . S
O407 Tb402 2.353 . S
C408 O412 1.245 . S
C408 O413 1.259 . S
C409 O414 1.250 . S
C409 O415 1.263 . S
O410 Tb402 2.427 . S
O410 C406 1.275 . S
O411 Tb402 2.513 . S
O411 C406 1.246 . S
O412 Tb402 2.453 . S
O412 C408 1.245 . S
O413 Tb400 2.343 . S
O413 Tb402 2.596 . S
O413 C408 1.259 . S
O414 Tb402 2.374 . S
O414 C409 1.250 . S
O415 Tb400 2.353 . S
O415 C409 1.263 . S
C416 O417 1.275 1_556 S
C416 O418 1.246 1_556 S
O417 Tb400 2.427 . S
O417 C416 1.275 1_554 S
O418 Tb400 2.513 . S
O418 C416 1.246 1_554 S
C419 O403 1.245 . S
C419 O404 1.259 . S
Tb420 O423 2.453 . S
Tb420 O424 2.596 . S
Tb420 O425 2.374 . S
Tb420 O433 2.343 . S
Tb420 O435 2.353 . S
Tb420 O437 2.427 . S
Tb420 O438 2.513 . S
C421 O425 1.251 . S
C421 O427 1.263 . S
Tb422 O424 2.343 . S
Tb422 O427 2.353 . S
Tb422 O430 2.427 . S
Tb422 O431 2.513 . S
Tb422 O432 2.453 . S
Tb422 O433 2.596 . S
Tb422 O434 2.374 . S
O423 Tb420 2.453 . S
O423 C439 1.245 . S
O424 Tb420 2.596 . S
O424 Tb422 2.343 . S
O424 C439 1.259 . S
O425 Tb420 2.374 . S
O425 C421 1.251 . S
C426 O430 1.275 . S
C426 O431 1.246 . S
O427 C421 1.263 . S
O427 Tb422 2.353 . S
C428 O432 1.245 . S
C428 O433 1.259 . S
C429 O434 1.250 . S
C429 O435 1.263 . S
O430 Tb422 2.427 . S
O430 C426 1.275 . S
O431 Tb422 2.513 . S
O431 C426 1.246 . S
O432 Tb422 2.453 . S
O432 C428 1.245 . S
O433 Tb420 2.343 . S
O433 Tb422 2.596 . S
O433 C428 1.259 . S
O434 Tb422 2.374 . S
O434 C429 1.250 . S
O435 Tb420 2.353 . S
O435 C429 1.263 . S
C436 O437 1.275 . S
C436 O438 1.246 . S
O437 Tb420 2.427 . S
O437 C436 1.275 . S
O438 Tb420 2.513 . S
O438 C436 1.246 . S
C439 O423 1.245 . S
C439 O424 1.259 . S
Tb440 O443 2.453 . S
Tb440 O444 2.596 . S
Tb440 O445 2.374 . S
Tb440 O453 2.343 . S
Tb440 O455 2.353 1_565 S
Tb440 O457 2.427 . S
Tb440 O458 2.513 . S
C441 O445 1.251 . S
C441 O447 1.263 . S
Tb442 O444 2.343 . S
Tb442 O447 2.353 . S
Tb442 O450 2.427 . S
Tb442 O451 2.513 . S
Tb442 O452 2.453 . S
Tb442 O453 2.596 . S
Tb442 O454 2.374 . S
O443 Tb440 2.453 . S
O443 C459 1.245 . S
O444 Tb440 2.596 . S
O444 Tb442 2.343 . S
O444 C459 1.259 . S
O445 Tb440 2.374 . S
O445 C441 1.251 . S
C446 O450 1.275 . S
C446 O451 1.246 . S
O447 C441 1.263 . S
O447 Tb442 2.353 . S
C448 O452 1.245 . S
C448 O453 1.259 . S
C449 O454 1.271 . S
C449 O455 1.255 1_565 S
O450 Tb442 2.427 . S
O450 C446 1.275 . S
O451 Tb442 2.513 . S
O451 C446 1.246 . S
O452 Tb442 2.453 . S
O452 C448 1.245 . S
O453 Tb440 2.343 . S
O453 Tb442 2.596 . S
O453 C448 1.259 . S
O454 Tb442 2.374 . S
O454 C449 1.271 . S
O455 Tb440 2.353 1_545 S
O455 C449 1.255 1_545 S
C456 O457 1.275 . S
C456 O458 1.246 . S
O457 Tb440 2.427 . S
O457 C456 1.275 . S
O458 Tb440 2.513 . S
O458 C456 1.246 . S
C459 O443 1.245 . S
C459 O444 1.259 . S
Tb460 O463 2.453 . S
Tb460 O464 2.596 . S
Tb460 O465 2.374 . S
Tb460 O473 2.343 . S
Tb460 O475 2.353 . S
Tb460 O477 2.427 . S
Tb460 O478 2.513 . S
C461 O465 1.251 . S
C461 O467 1.263 . S
Tb462 O464 2.343 . S
Tb462 O467 2.353 . S
Tb462 O470 2.427 . S
Tb462 O471 2.513 . S
Tb462 O472 2.453 . S
Tb462 O473 2.596 . S
Tb462 O474 2.374 . S
O463 Tb460 2.453 . S
O463 C479 1.245 . S
O464 Tb460 2.596 . S
O464 Tb462 2.343 . S
O464 C479 1.259 . S
O465 Tb460 2.374 . S
O465 C461 1.251 . S
C466 O470 1.275 . S
C466 O471 1.246 . S
O467 C461 1.263 . S
O467 Tb462 2.353 . S
C468 O472 1.245 . S
C468 O473 1.259 . S
C469 O474 1.250 . S
C469 O475 1.263 . S
O470 Tb462 2.427 . S
O470 C466 1.275 . S
O471 Tb462 2.513 . S
O471 C466 1.246 . S
O472 Tb462 2.453 . S
O472 C468 1.245 . S
O473 Tb460 2.343 . S
O473 Tb462 2.596 . S
O473 C468 1.259 . S
O474 Tb462 2.374 . S
O474 C469 1.250 . S
O475 Tb460 2.353 . S
O475 C469 1.263 . S
C476 O477 1.275 1_554 S
C476 O478 1.246 1_554 S
O477 Tb460 2.427 . S
O477 C476 1.275 1_556 S
O478 Tb460 2.513 . S
O478 C476 1.246 1_556 S
C479 O463 1.245 . S
C479 O464 1.259 . S
Tb480 O483 2.453 . S
Tb480 O484 2.596 . S
Tb480 O485 2.374 . S
Tb480 O493 2.343 . S
Tb480 O495 2.353 . S
Tb480 O497 2.427 . S
Tb480 O498 2.513 . S
C481 O485 1.251 . S
C481 O487 1.263 . S
Tb482 O484 2.343 . S
Tb482 O487 2.353 . S
Tb482 O490 2.427 . S
Tb482 O491 2.513 . S
Tb482 O492 2.453 . S
Tb482 O493 2.596 . S
Tb482 O494 2.374 . S
O483 Tb480 2.453 . S
O483 C499 1.245 . S
O484 Tb480 2.596 . S
O484 Tb482 2.343 . S
O484 C499 1.259 . S
O485 Tb480 2.374 . S
O485 C481 1.251 . S
C486 O490 1.275 . S
C486 O491 1.246 . S
O487 C481 1.263 . S
O487 Tb482 2.353 . S
C488 O492 1.245 . S
C488 O493 1.259 . S
C489 O494 1.250 . S
C489 O495 1.263 . S
O490 Tb482 2.427 . S
O490 C486 1.275 . S
O491 Tb482 2.513 . S
O491 C486 1.246 . S
O492 Tb482 2.453 . S
O492 C488 1.245 . S
O493 Tb480 2.343 . S
O493 Tb482 2.596 . S
O493 C488 1.259 . S
O494 Tb482 2.374 . S
O494 C489 1.250 . S
O495 Tb480 2.353 . S
O495 C489 1.263 . S
C496 O497 1.275 . S
C496 O498 1.246 . S
O497 Tb480 2.427 . S
O497 C496 1.275 . S
O498 Tb480 2.513 . S
O498 C496 1.246 . S
C499 O483 1.245 . S
C499 O484 1.259 . S
Tb500 O503 2.453 . S
Tb500 O504 2.596 . S
Tb500 O505 2.374 . S
Tb500 O513 2.343 . S
Tb500 O515 2.353 . S
Tb500 O517 2.427 . S
Tb500 O518 2.513 . S
C501 O505 1.251 . S
C501 O507 1.263 . S
Tb502 O504 2.343 . S
Tb502 O507 2.353 . S
Tb502 O510 2.427 . S
Tb502 O511 2.513 . S
Tb502 O512 2.453 . S
Tb502 O513 2.596 . S
Tb502 O514 2.374 . S
O503 Tb500 2.453 . S
O503 C519 1.245 . S
O504 Tb500 2.596 . S
O504 Tb502 2.343 . S
O504 C519 1.259 . S
O505 Tb500 2.374 . S
O505 C501 1.251 . S
C506 O510 1.275 . S
C506 O511 1.246 . S
O507 C501 1.263 . S
O507 Tb502 2.353 . S
C508 O512 1.245 . S
C508 O513 1.259 . S
C509 O514 1.250 . S
C509 O515 1.263 . S
O510 Tb502 2.427 . S
O510 C506 1.275 . S
O511 Tb502 2.513 . S
O511 C506 1.246 . S
O512 Tb502 2.453 . S
O512 C508 1.245 . S
O513 Tb500 2.343 . S
O513 Tb502 2.596 . S
O513 C508 1.259 . S
O514 Tb502 2.374 . S
O514 C509 1.250 . S
O515 Tb500 2.353 . S
O515 C509 1.263 . S
C516 O517 1.275 . S
C516 O518 1.246 . S
O517 Tb500 2.427 . S
O517 C516 1.275 . S
O518 Tb500 2.513 . S
O518 C516 1.246 . S
C519 O503 1.245 . S
C519 O504 1.259 . S
Tb520 O523 2.453 . S
Tb520 O524 2.596 . S
Tb520 O525 2.374 . S
Tb520 O533 2.343 . S
Tb520 O535 2.353 . S
Tb520 O537 2.427 1_554 S
Tb520 O538 2.513 1_554 S
C521 O525 1.271 . S
C521 O527 1.255 1_565 S
Tb522 O524 2.343 . S
Tb522 O527 2.353 1_565 S
Tb522 O530 2.427 . S
Tb522 O531 2.513 . S
Tb522 O532 2.453 . S
Tb522 O533 2.596 . S
Tb522 O534 2.374 . S
O523 Tb520 2.453 . S
O523 C539 1.245 . S
O524 Tb520 2.596 . S
O524 Tb522 2.343 . S
O524 C539 1.259 . S
O525 Tb520 2.374 . S
O525 C521 1.271 . S
C526 O530 1.275 . S
C526 O531 1.246 . S
O527 C521 1.255 1_545 S
O527 Tb522 2.353 1_545 S
C528 O532 1.245 1_556 S
C528 O533 1.259 1_556 S
C529 O534 1.250 . S
C529 O535 1.263 . S
O530 Tb522 2.427 . S
O530 C526 1.275 . S
O531 Tb522 2.513 . S
O531 C526 1.246 . S
O532 Tb522 2.453 . S
O532 C528 1.245 1_554 S
O533 Tb520 2.343 . S
O533 Tb522 2.596 . S
O533 C528 1.259 1_554 S
O534 Tb522 2.374 . S
O534 C529 1.250 . S
O535 Tb520 2.353 . S
O535 C529 1.263 . S
C536 O537 1.275 . S
C536 O538 1.246 . S
O537 Tb520 2.427 1_556 S
O537 C536 1.275 . S
O538 Tb520 2.513 1_556 S
O538 C536 1.246 . S
C539 O523 1.245 . S
C539 O524 1.259 . S
Tb540 O543 2.453 . S
Tb540 O544 2.596 . S
Tb540 O545 2.374 . S
Tb540 O553 2.343 . S
Tb540 O555 2.353 . S
Tb540 O557 2.427 . S
Tb540 O558 2.513 . S
C541 O545 1.251 . S
C541 O547 1.263 . S
Tb542 O544 2.343 . S
Tb542 O547 2.353 . S
Tb542 O550 2.427 . S
Tb542 O551 2.513 . S
Tb542 O552 2.453 . S
Tb542 O553 2.596 . S
Tb542 O554 2.374 . S
O543 Tb540 2.453 . S
O543 C559 1.245 . S
O544 Tb540 2.596 . S
O544 Tb542 2.343 . S
O544 C559 1.259 . S
O545 Tb540 2.374 . S
O545 C541 1.251 . S
C546 O550 1.275 . S
C546 O551 1.246 . S
O547 C541 1.263 . S
O547 Tb542 2.353 . S
C548 O552 1.245 . S
C548 O553 1.259 . S
C549 O554 1.250 . S
C549 O555 1.263 . S
O550 Tb542 2.427 . S
O550 C546 1.275 . S
O551 Tb542 2.513 . S
O551 C546 1.246 . S
O552 Tb542 2.453 . S
O552 C548 1.245 . S
O553 Tb540 2.343 . S
O553 Tb542 2.596 . S
O553 C548 1.259 . S
O554 Tb542 2.374 . S
O554 C549 1.250 . S
O555 Tb540 2.353 . S
O555 C549 1.263 . S
C556 O557 1.275 . S
C556 O558 1.246 . S
O557 Tb540 2.427 . S
O557 C556 1.275 . S
O558 Tb540 2.513 . S
O558 C556 1.246 . S
C559 O543 1.245 . S
C559 O544 1.259 . S
Tb560 O563 2.453 . S
Tb560 O564 2.596 . S
Tb560 O565 2.374 . S
Tb560 O573 2.343 . S
Tb560 O575 2.353 . S
Tb560 O577 2.427 1_554 S
Tb560 O578 2.513 1_554 S
C561 O565 1.251 . S
C561 O567 1.263 . S
Tb562 O564 2.343 . S
Tb562 O567 2.353 . S
Tb562 O570 2.427 . S
Tb562 O571 2.513 . S
Tb562 O572 2.453 . S
Tb562 O573 2.596 . S
Tb562 O574 2.374 . S
O563 Tb560 2.453 . S
O563 C579 1.245 . S
O564 Tb560 2.596 . S
O564 Tb562 2.343 . S
O564 C579 1.259 . S
O565 Tb560 2.374 . S
O565 C561 1.251 . S
C566 O570 1.275 . S
C566 O571 1.246 . S
O567 C561 1.263 . S
O567 Tb562 2.353 . S
C568 O572 1.245 . S
C568 O573 1.259 . S
C569 O574 1.250 . S
C569 O575 1.263 . S
O570 Tb562 2.427 . S
O570 C566 1.275 . S
O571 Tb562 2.513 . S
O571 C566 1.246 . S
O572 Tb562 2.453 . S
O572 C568 1.245 . S
O573 Tb560 2.343 . S
O573 Tb562 2.596 . S
O573 C568 1.259 . S
O574 Tb562 2.374 . S
O574 C569 1.250 . S
O575 Tb560 2.353 . S
O575 C569 1.263 . S
C576 O577 1.275 . S
C576 O578 1.246 . S
O577 Tb560 2.427 1_556 S
O577 C576 1.275 . S
O578 Tb560 2.513 1_556 S
O578 C576 1.246 . S
C579 O563 1.245 . S
C579 O564 1.259 . S
Tb580 O583 2.453 . S
Tb580 O584 2.596 . S
Tb580 O585 2.374 . S
Tb580 O593 2.343 1_556 S
Tb580 O595 2.353 . S
Tb580 O597 2.427 1_556 S
Tb580 O598 2.513 1_556 S
C581 O585 1.251 . S
C581 O587 1.263 . S
Tb582 O584 2.343 . S
Tb582 O587 2.353 . S
Tb582 O590 2.427 . S
Tb582 O591 2.513 . S
Tb582 O592 2.453 1_556 S
Tb582 O593 2.596 1_556 S
Tb582 O594 2.374 . S
O583 Tb580 2.453 . S
O583 C599 1.245 . S
O584 Tb580 2.596 . S
O584 Tb582 2.343 . S
O584 C599 1.259 . S
O585 Tb580 2.374 . S
O585 C581 1.251 . S
C586 O590 1.275 . S
C586 O591 1.246 . S
O587 C581 1.263 . S
O587 Tb582 2.353 . S
C588 O592 1.245 . S
C588 O593 1.259 . S
C589 O594 1.250 . S
C589 O595 1.263 . S
O590 Tb582 2.427 . S
O590 C586 1.275 . S
O591 Tb582 2.513 . S
O591 C586 1.246 . S
O592 Tb582 2.453 1_554 S
O592 C588 1.245 . S
O593 Tb580 2.343 1_554 S
O593 Tb582 2.596 1_554 S
O593 C588 1.259 . S
O594 Tb582 2.374 . S
O594 C589 1.250 . S
O595 Tb580 2.353 . S
O595 C589 1.263 . S
C596 O597 1.275 . S
C596 O598 1.246 . S
O597 Tb580 2.427 1_554 S
O597 C596 1.275 . S
O598 Tb580 2.513 1_554 S
O598 C596 1.246 . S
C599 O583 1.245 . S
C599 O584 1.259 . S
Tb600 O603 2.453 . S
Tb600 O604 2.596 . S
Tb600 O605 2.374 . S
Tb600 O613 2.343 . S
Tb600 O615 2.353 . S
Tb600 O617 2.427 . S
Tb600 O618 2.513 . S
C601 O605 1.269 . S
C601 O607 1.256 1_545 S
Tb602 O604 2.343 . S
Tb602 O607 2.353 1_545 S
Tb602 O610 2.427 . S
Tb602 O611 2.513 . S
Tb602 O612 2.453 . S
Tb602 O613 2.596 . S
Tb602 O614 2.374 . S
O603 Tb600 2.453 . S
O603 C619 1.245 . S
O604 Tb600 2.596 . S
O604 Tb602 2.343 . S
O604 C619 1.259 . S
O605 Tb600 2.374 . S
O605 C601 1.269 . S
C606 O610 1.275 . S
C606 O611 1.246 . S
O607 C601 1.256 1_565 S
O607 Tb602 2.353 1_565 S
C608 O612 1.245 . S
C608 O613 1.259 . S
C609 O614 1.250 . S
C609 O615 1.263 . S
O610 Tb602 2.427 . S
O610 C606 1.275 . S
O611 Tb602 2.513 . S
O611 C606 1.246 . S
O612 Tb602 2.453 . S
O612 C608 1.245 . S
O613 Tb600 2.343 . S
O613 Tb602 2.596 . S
O613 C608 1.259 . S
O614 Tb602 2.374 . S
O614 C609 1.250 . S
O615 Tb600 2.353 . S
O615 C609 1.263 . S
C616 O617 1.275 . S
C616 O618 1.246 . S
O617 Tb600 2.427 . S
O617 C616 1.275 . S
O618 Tb600 2.513 . S
O618 C616 1.246 . S
C619 O603 1.245 . S
C619 O604 1.259 . S
Tb620 O623 2.453 . S
Tb620 O624 2.596 . S
Tb620 O625 2.374 . S
Tb620 O633 2.343 . S
Tb620 O635 2.353 . S
Tb620 O637 2.427 . S
Tb620 O638 2.513 . S
C621 O625 1.251 . S
C621 O627 1.263 . S
Tb622 O624 2.343 . S
Tb622 O627 2.353 . S
Tb622 O630 2.427 . S
Tb622 O631 2.513 . S
Tb622 O632 2.453 . S
Tb622 O633 2.596 . S
Tb622 O634 2.374 . S
O623 Tb620 2.453 . S
O623 C639 1.245 . S
O624 Tb620 2.596 . S
O624 Tb622 2.343 . S
O624 C639 1.259 . S
O625 Tb620 2.374 . S
O625 C621 1.251 . S
C626 O630 1.275 . S
C626 O631 1.246 . S
O627 C621 1.263 . S
O627 Tb622 2.353 . S
C628 O632 1.245 . S
C628 O633 1.259 . S
C629 O634 1.250 . S
C629 O635 1.263 . S
O630 Tb622 2.427 . S
O630 C626 1.275 . S
O631 Tb622 2.513 . S
O631 C626 1.246 . S
O632 Tb622 2.453 . S
O632 C628 1.245 . S
O633 Tb620 2.343 . S
O633 Tb622 2.596 . S
O633 C628 1.259 . S
O634 Tb622 2.374 . S
O634 C629 1.250 . S
O635 Tb620 2.353 . S
O635 C629 1.263 . S
C636 O637 1.275 . S
C636 O638 1.246 . S
O637 Tb620 2.427 . S
O637 C636 1.275 . S
O638 Tb620 2.513 . S
O638 C636 1.246 . S
C639 O623 1.245 . S
C639 O624 1.259 . S
C640 C641 1.369 . S
C640 C642 1.419 . S
C640 H644 0.930 . S
C641 C640 1.369 . S
C641 C650 1.429 . S
C642 C640 1.419 . S
C642 C643 1.363 . S
C642 H645 0.929 . S
C643 C642 1.363 . S
C643 C649 1.428 . S
H644 C640 0.930 . S
H645 C642 0.929 . S
S646 N647 1.613 . S
S646 N648 1.610 . S
N647 S646 1.613 . S
N647 C650 1.350 . S
N648 S646 1.610 . S
N648 C649 1.351 . S
C649 C643 1.428 . S
C649 N648 1.351 . S
C649 C650 1.434 . S
C650 C641 1.429 . S
C650 N647 1.350 . S
C650 C649 1.434 . S
C651 C652 1.369 . S
C651 C653 1.419 . S
C651 H655 0.930 . S
C652 C651 1.369 . S
C652 C661 1.429 . S
C653 C651 1.419 . S
C653 C654 1.363 . S
C653 H656 0.929 . S
C654 C653 1.363 . S
C654 C660 1.428 . S
H655 C651 0.930 . S
H656 C653 0.929 . S
S657 N658 1.613 . S
S657 N659 1.610 . S
N658 S657 1.613 . S
N658 C661 1.350 . S
N659 S657 1.610 . S
N659 C660 1.351 . S
C660 C654 1.428 . S
C660 N659 1.351 . S
C660 C661 1.434 . S
C661 C652 1.429 . S
C661 N658 1.350 . S
C661 C660 1.434 . S
C662 C663 1.369 . S
C662 C664 1.419 . S
C662 H666 0.930 . S
C663 C662 1.369 . S
C663 C672 1.429 . S
C664 C662 1.419 . S
C664 C665 1.363 . S
C664 H667 0.929 . S
C665 C664 1.363 . S
C665 C671 1.428 . S
H666 C662 0.930 . S
H667 C664 0.929 . S
S668 N669 1.613 . S
S668 N670 1.610 . S
N669 S668 1.613 . S
N669 C672 1.350 . S
N670 S668 1.610 . S
N670 C671 1.351 . S
C671 C665 1.428 . S
C671 N670 1.351 . S
C671 C672 1.434 . S
C672 C663 1.429 . S
C672 N669 1.350 . S
C672 C671 1.434 . S
C673 C674 1.369 . S
C673 C675 1.419 . S
C673 H677 0.930 . S
C674 C673 1.369 . S
C674 C683 1.429 . S
C675 C673 1.419 . S
C675 C676 1.363 . S
C675 H678 0.929 . S
C676 C675 1.363 . S
C676 C682 1.428 . S
H677 C673 0.930 . S
H678 C675 0.929 . S
S679 N680 1.613 . S
S679 N681 1.610 . S
N680 S679 1.613 . S
N680 C683 1.350 . S
N681 S679 1.610 . S
N681 C682 1.351 . S
C682 C676 1.428 . S
C682 N681 1.351 . S
C682 C683 1.434 . S
C683 C674 1.429 . S
C683 N680 1.350 . S
C683 C682 1.434 . S
C684 C685 1.369 . S
C684 C686 1.419 . S
C684 H688 0.930 . S
C685 C684 1.369 . S
C685 C694 1.429 . S
C686 C684 1.419 . S
C686 C687 1.363 . S
C686 H689 0.929 . S
C687 C686 1.363 . S
C687 C693 1.428 . S
H688 C684 0.930 . S
H689 C686 0.929 . S
S690 N691 1.613 . S
S690 N692 1.610 . S
N691 S690 1.613 . S
N691 C694 1.350 . S
N692 S690 1.610 . S
N692 C693 1.351 . S
C693 C687 1.428 . S
C693 N692 1.351 . S
C693 C694 1.434 . S
C694 C685 1.429 . S
C694 N691 1.350 . S
C694 C693 1.434 . S
C695 C696 1.369 . S
C695 C697 1.419 . S
C695 H699 0.930 . S
C696 C695 1.369 . S
C696 C705 1.429 . S
C697 C695 1.419 . S
C697 C698 1.363 . S
C697 H700 0.929 . S
C698 C697 1.363 . S
C698 C704 1.428 . S
H699 C695 0.930 . S
H700 C697 0.929 . S
S701 N702 1.613 . S
S701 N703 1.610 . S
N702 S701 1.613 . S
N702 C705 1.350 . S
N703 S701 1.610 . S
N703 C704 1.351 . S
C704 C698 1.428 . S
C704 N703 1.351 . S
C704 C705 1.434 . S
C705 C696 1.429 . S
C705 N702 1.350 . S
C705 C704 1.434 . S
C706 C707 1.369 . S
C706 C708 1.419 . S
C706 H710 0.930 . S
C707 C706 1.369 . S
C707 C716 1.429 . S
C708 C706 1.419 . S
C708 C709 1.363 . S
C708 H711 0.929 . S
C709 C708 1.363 . S
C709 C715 1.428 . S
H710 C706 0.930 . S
H711 C708 0.929 . S
S712 N713 1.613 . S
S712 N714 1.610 . S
N713 S712 1.613 . S
N713 C716 1.350 . S
N714 S712 1.610 . S
N714 C715 1.351 . S
C715 C709 1.428 . S
C715 N714 1.351 . S
C715 C716 1.434 . S
C716 C707 1.429 . S
C716 N713 1.350 . S
C716 C715 1.434 . S
C717 C718 1.369 . S
C717 C719 1.419 . S
C717 H721 0.930 . S
C718 C717 1.369 . S
C718 C727 1.429 . S
C719 C717 1.419 . S
C719 C720 1.363 . S
C719 H722 0.929 . S
C720 C719 1.363 . S
C720 C726 1.428 . S
H721 C717 0.930 . S
H722 C719 0.929 . S
S723 N724 1.613 . S
S723 N725 1.610 . S
N724 S723 1.613 . S
N724 C727 1.350 . S
N725 S723 1.610 . S
N725 C726 1.351 . S
C726 C720 1.428 . S
C726 N725 1.351 . S
C726 C727 1.434 . S
C727 C718 1.429 . S
C727 N724 1.350 . S
C727 C726 1.434 . S
C728 C729 1.369 1_565 S
C728 C730 1.419 . S
C728 H732 0.930 . S
C729 C728 1.369 1_545 S
C729 C738 1.429 . S
C730 C728 1.419 . S
C730 C731 1.363 . S
C730 H733 0.929 . S
C731 C730 1.363 . S
C731 C737 1.428 1_565 S
H732 C728 0.930 . S
H733 C730 0.929 . S
S734 N735 1.613 . S
S734 N736 1.610 . S
N735 S734 1.613 . S
N735 C738 1.350 . S
N736 S734 1.610 . S
N736 C737 1.351 . S
C737 C731 1.428 1_545 S
C737 N736 1.351 . S
C737 C738 1.434 . S
C738 C729 1.429 . S
C738 N735 1.350 . S
C738 C737 1.434 . S
C739 C740 1.369 . S
C739 C741 1.419 . S
C739 H743 0.930 . S
C740 C739 1.369 . S
C740 C749 1.429 . S
C741 C739 1.419 . S
C741 C742 1.363 . S
C741 H744 0.929 . S
C742 C741 1.363 . S
C742 C748 1.428 . S
H743 C739 0.930 . S
H744 C741 0.929 . S
S745 N746 1.613 . S
S745 N747 1.610 . S
N746 S745 1.613 . S
N746 C749 1.350 . S
N747 S745 1.610 . S
N747 C748 1.351 . S
C748 C742 1.428 . S
C748 N747 1.351 . S
C748 C749 1.434 . S
C749 C740 1.429 . S
C749 N746 1.350 . S
C749 C748 1.434 . S
C750 C751 1.369 . S
C750 C752 1.419 1_545 S
C750 H754 0.930 . S
C751 C750 1.369 . S
C751 C760 1.429 . S
C752 C750 1.419 1_565 S
C752 C753 1.363 . S
C752 H755 0.929 . S
C753 C752 1.363 . S
C753 C759 1.428 . S
H754 C750 0.930 . S
H755 C752 0.929 . S
S756 N757 1.613 . S
S756 N758 1.610 1_545 S
N757 S756 1.613 . S
N757 C760 1.350 . S
N758 S756 1.610 1_565 S
N758 C759 1.351 . S
C759 C753 1.428 . S
C759 N758 1.351 . S
C759 C760 1.434 1_565 S
C760 C751 1.429 . S
C760 N757 1.350 . S
C760 C759 1.434 1_545 S
C761 C762 1.369 . S
C761 C763 1.419 . S
C761 H765 0.930 . S
C762 C761 1.369 . S
C762 C771 1.429 . S
C763 C761 1.419 . S
C763 C764 1.363 . S
C763 H766 0.929 . S
C764 C763 1.363 . S
C764 C770 1.428 . S
H765 C761 0.930 . S
H766 C763 0.929 . S
S767 N768 1.613 . S
S767 N769 1.610 . S
N768 S767 1.613 . S
N768 C771 1.350 . S
N769 S767 1.610 . S
N769 C770 1.351 . S
C770 C764 1.428 . S
C770 N769 1.351 . S
C770 C771 1.434 . S
C771 C762 1.429 . S
C771 N768 1.350 . S
C771 C770 1.434 . S
C772 C773 1.369 1_565 S
C772 C774 1.419 . S
C772 H776 0.930 . S
C773 C772 1.369 1_545 S
C773 C782 1.429 . S
C774 C772 1.419 . S
C774 C775 1.363 . S
C774 H777 0.929 . S
C775 C774 1.363 . S
C775 C781 1.428 1_565 S
H776 C772 0.930 . S
H777 C774 0.929 . S
S778 N779 1.613 . S
S778 N780 1.610 . S
N779 S778 1.613 . S
N779 C782 1.350 . S
N780 S778 1.610 . S
N780 C781 1.351 . S
C781 C775 1.428 1_545 S
C781 N780 1.351 . S
C781 C782 1.434 . S
C782 C773 1.429 . S
C782 N779 1.350 . S
C782 C781 1.434 . S
C783 C784 1.369 . S
C783 C785 1.419 . S
C783 H787 0.930 . S
C784 C783 1.369 . S
C784 C793 1.429 . S
C785 C783 1.419 . S
C785 C786 1.363 . S
C785 H788 0.929 . S
C786 C785 1.363 . S
C786 C792 1.428 . S
H787 C783 0.930 . S
H788 C785 0.929 . S
S789 N790 1.613 . S
S789 N791 1.610 . S
N790 S789 1.613 . S
N790 C793 1.350 . S
N791 S789 1.610 . S
N791 C792 1.351 . S
C792 C786 1.428 . S
C792 N791 1.351 . S
C792 C793 1.434 . S
C793 C784 1.429 . S
C793 N790 1.350 . S
C793 C792 1.434 . S
C794 C795 1.369 . S
C794 C796 1.419 . S
C794 H798 0.930 . S
C795 C794 1.369 . S
C795 C804 1.429 1_565 S
C796 C794 1.419 . S
C796 C797 1.363 1_565 S
C796 H799 0.929 . S
C797 C796 1.363 1_545 S
C797 C803 1.428 . S
H798 C794 0.930 . S
H799 C796 0.929 . S
S800 N801 1.613 . S
S800 N802 1.610 . S
N801 S800 1.613 . S
N801 C804 1.350 . S
N802 S800 1.610 . S
N802 C803 1.351 . S
C803 C797 1.428 . S
C803 N802 1.351 . S
C803 C804 1.434 . S
C804 C795 1.429 1_545 S
C804 N801 1.350 . S
C804 C803 1.434 . S
C805 C806 1.369 . S
C805 C807 1.419 . S
C805 H809 0.930 . S
C806 C805 1.369 . S
C806 C815 1.429 . S
C807 C805 1.419 . S
C807 C808 1.363 . S
C807 H810 0.929 . S
C808 C807 1.363 . S
C808 C814 1.428 . S
H809 C805 0.930 . S
H810 C807 0.929 . S
S811 N812 1.613 . S
S811 N813 1.610 . S
N812 S811 1.613 . S
N812 C815 1.350 . S
N813 S811 1.610 . S
N813 C814 1.351 . S
C814 C808 1.428 . S
C814 N813 1.351 . S
C814 C815 1.434 . S
C815 C806 1.429 . S
C815 N812 1.350 . S
C815 C814 1.434 . S
C816 C817 1.369 . S
C816 C818 1.419 . S
C816 H820 0.930 . S
C817 C816 1.369 . S
C817 C826 1.429 . S
C818 C816 1.419 . S
C818 C819 1.363 . S
C818 H821 0.929 . S
C819 C818 1.363 . S
C819 C825 1.428 . S
H820 C816 0.930 . S
H821 C818 0.929 . S
S822 N823 1.613 . S
S822 N824 1.610 . S
N823 S822 1.613 . S
N823 C826 1.350 . S
N824 S822 1.610 . S
N824 C825 1.351 . S
C825 C819 1.428 . S
C825 N824 1.351 . S
C825 C826 1.434 . S
C826 C817 1.429 . S
C826 N823 1.350 . S
C826 C825 1.434 . S
C827 C828 1.369 . S
C827 C829 1.419 . S
C827 H831 0.930 . S
C828 C827 1.369 . S
C828 C837 1.429 . S
C829 C827 1.419 . S
C829 C830 1.363 . S
C829 H832 0.929 . S
C830 C829 1.363 . S
C830 C836 1.428 . S
H831 C827 0.930 . S
H832 C829 0.929 . S
S833 N834 1.613 . S
S833 N835 1.610 . S
N834 S833 1.613 . S
N834 C837 1.350 . S
N835 S833 1.610 . S
N835 C836 1.351 . S
C836 C830 1.428 . S
C836 N835 1.351 . S
C836 C837 1.434 . S
C837 C828 1.429 . S
C837 N834 1.350 . S
C837 C836 1.434 . S
C838 C839 1.369 . S
C838 C840 1.419 . S
C838 H842 0.930 . S
C839 C838 1.369 . S
C839 C848 1.429 . S
C840 C838 1.419 . S
C840 C841 1.363 . S
C840 H843 0.929 . S
C841 C840 1.363 . S
C841 C847 1.428 . S
H842 C838 0.930 . S
H843 C840 0.929 . S
S844 N845 1.613 . S
S844 N846 1.610 . S
N845 S844 1.613 . S
N845 C848 1.350 . S
N846 S844 1.610 . S
N846 C847 1.351 . S
C847 C841 1.428 . S
C847 N846 1.351 . S
C847 C848 1.434 . S
C848 C839 1.429 . S
C848 N845 1.350 . S
C848 C847 1.434 . S
C849 C850 1.369 . S
C849 C851 1.419 . S
C849 H853 0.930 . S
C850 C849 1.369 . S
C850 C859 1.429 1_554 S
C851 C849 1.419 . S
C851 C852 1.363 . S
C851 H854 0.929 . S
C852 C851 1.363 . S
C852 C858 1.428 . S
H853 C849 0.930 . S
H854 C851 0.929 . S
S855 N856 1.613 . S
S855 N857 1.610 1_556 S
N856 S855 1.613 . S
N856 C859 1.350 . S
N857 S855 1.610 1_554 S
N857 C858 1.351 . S
C858 C852 1.428 . S
C858 N857 1.351 . S
C858 C859 1.434 1_554 S
C859 C850 1.429 1_556 S
C859 N856 1.350 . S
C859 C858 1.434 1_556 S
C860 C861 1.369 . S
C860 C862 1.419 . S
C860 H864 0.930 . S
C861 C860 1.369 . S
C861 C870 1.429 . S
C862 C860 1.419 . S
C862 C863 1.363 . S
C862 H865 0.929 . S
C863 C862 1.363 . S
C863 C869 1.428 . S
H864 C860 0.930 . S
H865 C862 0.929 . S
S866 N867 1.613 . S
S866 N868 1.610 . S
N867 S866 1.613 . S
N867 C870 1.350 . S
N868 S866 1.610 . S
N868 C869 1.351 . S
C869 C863 1.428 . S
C869 N868 1.351 . S
C869 C870 1.434 . S
C870 C861 1.429 . S
C870 N867 1.350 . S
C870 C869 1.434 . S
C871 C872 1.369 . S
C871 C873 1.419 . S
C871 H875 0.930 . S
C872 C871 1.369 . S
C872 C881 1.429 . S
C873 C871 1.419 . S
C873 C874 1.363 . S
C873 H876 0.929 . S
C874 C873 1.363 . S
C874 C880 1.428 . S
H875 C871 0.930 . S
H876 C873 0.929 . S
S877 N878 1.613 . S
S877 N879 1.610 . S
N878 S877 1.613 . S
N878 C881 1.350 . S
N879 S877 1.610 . S
N879 C880 1.351 . S
C880 C874 1.428 . S
C880 N879 1.351 . S
C880 C881 1.434 . S
C881 C872 1.429 . S
C881 N878 1.350 . S
C881 C880 1.434 . S
C882 C883 1.369 . S
C882 C884 1.419 1_554 S
C882 H886 0.930 . S
C883 C882 1.369 . S
C883 C892 1.429 . S
C884 C882 1.419 1_556 S
C884 C885 1.363 . S
C884 H887 0.929 . S
C885 C884 1.363 . S
C885 C891 1.428 . S
H886 C882 0.930 . S
H887 C884 0.929 . S
S888 N889 1.613 1_556 S
S888 N890 1.610 . S
N889 S888 1.613 1_554 S
N889 C892 1.350 . S
N890 S888 1.610 . S
N890 C891 1.351 . S
C891 C885 1.428 . S
C891 N890 1.351 . S
C891 C892 1.434 1_556 S
C892 C883 1.429 . S
C892 N889 1.350 . S
C892 C891 1.434 1_554 S
C893 C894 1.369 . S
C893 C895 1.419 . S
C893 H897 0.930 . S
C894 C893 1.369 . S
C894 C903 1.429 . S
C895 C893 1.419 . S
C895 C896 1.363 . S
C895 H898 0.929 . S
C896 C895 1.363 . S
C896 C902 1.428 . S
H897 C893 0.930 . S
H898 C895 0.929 . S
S899 N900 1.613 . S
S899 N901 1.610 . S
N900 S899 1.613 . S
N900 C903 1.350 . S
N901 S899 1.610 . S
N901 C902 1.351 . S
C902 C896 1.428 . S
C902 N901 1.351 . S
C902 C903 1.434 . S
C903 C894 1.429 . S
C903 N900 1.350 . S
C903 C902 1.434 . S
C904 C905 1.369 . S
C904 C906 1.419 . S
C904 H908 0.930 . S
C905 C904 1.369 . S
C905 C914 1.429 . S
C906 C904 1.419 . S
C906 C907 1.363 . S
C906 H909 0.929 . S
C907 C906 1.363 . S
C907 C913 1.428 1_554 S
H908 C904 0.930 . S
H909 C906 0.929 . S
S910 N911 1.613 . S
S910 N912 1.610 . S
N911 S910 1.613 . S
N911 C914 1.350 1_556 S
N912 S910 1.610 . S
N912 C913 1.351 . S
C913 C907 1.428 1_556 S
C913 N912 1.351 . S
C913 C914 1.434 1_556 S
C914 C905 1.429 . S
C914 N911 1.350 1_554 S
C914 C913 1.434 1_554 S
C915 C916 1.369 . S
C915 C917 1.419 . S
C915 H919 0.930 . S
C916 C915 1.369 . S
C916 C925 1.429 . S
C917 C915 1.419 . S
C917 C918 1.363 . S
C917 H920 0.929 . S
C918 C917 1.363 . S
C918 C924 1.428 . S
H919 C915 0.930 . S
H920 C917 0.929 . S
S921 N922 1.613 . S
S921 N923 1.610 . S
N922 S921 1.613 . S
N922 C925 1.350 . S
N923 S921 1.610 . S
N923 C924 1.351 . S
C924 C918 1.428 . S
C924 N923 1.351 . S
C924 C925 1.434 . S
C925 C916 1.429 . S
C925 N922 1.350 . S
C925 C924 1.434 . S
C926 C927 1.369 . S
C926 C928 1.419 . S
C926 H930 0.930 . S
C927 C926 1.369 . S
C927 C936 1.429 . S
C928 C926 1.419 . S
C928 C929 1.363 . S
C928 H931 0.929 . S
C929 C928 1.363 . S
C929 C935 1.428 . S
H930 C926 0.930 . S
H931 C928 0.929 . S
S932 N933 1.613 . S
S932 N934 1.610 . S
N933 S932 1.613 . S
N933 C936 1.350 . S
N934 S932 1.610 . S
N934 C935 1.351 . S
C935 C929 1.428 . S
C935 N934 1.351 . S
C935 C936 1.434 . S
C936 C927 1.429 . S
C936 N933 1.350 . S
C936 C935 1.434 . S
C937 C938 1.369 . S
C937 C939 1.419 . S
C937 H941 0.930 . S
C938 C937 1.369 . S
C938 C947 1.429 . S
C939 C937 1.419 . S
C939 C940 1.363 . S
C939 H942 0.929 . S
C940 C939 1.363 . S
C940 C946 1.428 . S
H941 C937 0.930 . S
H942 C939 0.929 . S
S943 N944 1.613 . S
S943 N945 1.610 . S
N944 S943 1.613 . S
N944 C947 1.350 . S
N945 S943 1.610 . S
N945 C946 1.351 . S
C946 C940 1.428 . S
C946 N945 1.351 . S
C946 C947 1.434 . S
C947 C938 1.429 . S
C947 N944 1.350 . S
C947 C946 1.434 . S
C948 C949 1.369 . S
C948 C950 1.419 . S
C948 H952 0.930 . S
C949 C948 1.369 . S
C949 C958 1.429 . S
C950 C948 1.419 . S
C950 C951 1.363 . S
C950 H953 0.929 . S
C951 C950 1.363 . S
C951 C957 1.428 . S
H952 C948 0.930 . S
H953 C950 0.929 . S
S954 N955 1.613 . S
S954 N956 1.610 . S
N955 S954 1.613 . S
N955 C958 1.350 . S
N956 S954 1.610 . S
N956 C957 1.351 . S
C957 C951 1.428 . S
C957 N956 1.351 . S
C957 C958 1.434 . S
C958 C949 1.429 . S
C958 N955 1.350 . S
C958 C957 1.434 . S
C959 C960 1.369 . S
C959 C961 1.419 . S
C959 H963 0.930 . S
C960 C959 1.369 . S
C960 C969 1.429 . S
C961 C959 1.419 . S
C961 C962 1.363 . S
C961 H964 0.929 . S
C962 C961 1.363 . S
C962 C968 1.428 . S
H963 C959 0.930 . S
H964 C961 0.929 . S
S965 N966 1.613 . S
S965 N967 1.610 . S
N966 S965 1.613 . S
N966 C969 1.350 . S
N967 S965 1.610 . S
N967 C968 1.351 . S
C968 C962 1.428 . S
C968 N967 1.351 . S
C968 C969 1.434 . S
C969 C960 1.429 . S
C969 N966 1.350 . S
C969 C968 1.434 . S
C970 C971 1.369 . S
C970 C972 1.419 . S
C970 H974 0.930 . S
C971 C970 1.369 . S
C971 C980 1.429 . S
C972 C970 1.419 . S
C972 C973 1.363 . S
C972 H975 0.929 . S
C973 C972 1.363 . S
C973 C979 1.428 . S
H974 C970 0.930 . S
H975 C972 0.929 . S
S976 N977 1.613 . S
S976 N978 1.610 . S
N977 S976 1.613 . S
N977 C980 1.350 . S
N978 S976 1.610 . S
N978 C979 1.351 . S
C979 C973 1.428 . S
C979 N978 1.351 . S
C979 C980 1.434 . S
C980 C971 1.429 . S
C980 N977 1.350 . S
C980 C979 1.434 . S
C981 C982 1.369 1_554 S
C981 C983 1.419 . S
C981 H985 0.930 . S
C982 C981 1.369 1_556 S
C982 C991 1.429 . S
C983 C981 1.419 . S
C983 C984 1.363 . S
C983 H986 0.929 . S
C984 C983 1.363 . S
C984 C990 1.428 1_554 S
H985 C981 0.930 . S
H986 C983 0.929 . S
S987 N988 1.613 . S
S987 N989 1.610 . S
N988 S987 1.613 . S
N988 C991 1.350 . S
N989 S987 1.610 . S
N989 C990 1.351 . S
C990 C984 1.428 1_556 S
C990 N989 1.351 . S
C990 C991 1.434 . S
C991 C982 1.429 . S
C991 N988 1.350 . S
C991 C990 1.434 . S
C992 C993 1.369 . S
C992 C994 1.419 . S
C992 H996 0.930 . S
C993 C992 1.369 . S
C993 C1002 1.429 1_655 S
C994 C992 1.419 . S
C994 C995 1.363 1_655 S
C994 H997 0.929 . S
C995 C994 1.363 1_455 S
C995 C1001 1.428 . S
H996 C992 0.930 . S
H997 C994 0.929 . S
S998 N999 1.613 . S
S998 N1000 1.610 . S
N999 S998 1.613 . S
N999 C1002 1.350 . S
N1000 S998 1.610 . S
N1000 C1001 1.351 . S
C1001 C995 1.428 . S
C1001 N1000 1.351 . S
C1001 C1002 1.434 . S
C1002 C993 1.429 1_455 S
C1002 N999 1.350 . S
C1002 C1001 1.434 . S
C1003 C1004 1.369 . S
C1003 C1005 1.419 . S
C1003 H1007 0.930 . S
C1004 C1003 1.369 . S
C1004 C1013 1.429 . S
C1005 C1003 1.419 . S
C1005 C1006 1.363 . S
C1005 H1008 0.929 . S
C1006 C1005 1.363 . S
C1006 C1012 1.428 . S
H1007 C1003 0.930 . S
H1008 C1005 0.929 . S
S1009 N1010 1.613 . S
S1009 N1011 1.610 . S
N1010 S1009 1.613 . S
N1010 C1013 1.350 . S
N1011 S1009 1.610 . S
N1011 C1012 1.351 . S
C1012 C1006 1.428 . S
C1012 N1011 1.351 . S
C1012 C1013 1.434 . S
C1013 C1004 1.429 . S
C1013 N1010 1.350 . S
C1013 C1012 1.434 . S
C1014 C1015 1.369 . S
C1014 C1016 1.419 . S
C1014 H1018 0.930 . S
C1015 C1014 1.369 . S
C1015 C1024 1.429 . S
C1016 C1014 1.419 . S
C1016 C1017 1.363 . S
C1016 H1019 0.929 . S
C1017 C1016 1.363 . S
C1017 C1023 1.428 . S
H1018 C1014 0.930 . S
H1019 C1016 0.929 . S
S1020 N1021 1.613 . S
S1020 N1022 1.610 . S
N1021 S1020 1.613 . S
N1021 C1024 1.350 . S
N1022 S1020 1.610 . S
N1022 C1023 1.351 . S
C1023 C1017 1.428 . S
C1023 N1022 1.351 . S
C1023 C1024 1.434 . S
C1024 C1015 1.429 . S
C1024 N1021 1.350 . S
C1024 C1023 1.434 . S
C1025 C1026 1.369 . S
C1025 C1027 1.419 . S
C1025 H1029 0.930 . S
C1026 C1025 1.369 . S
C1026 C1035 1.429 . S
C1027 C1025 1.419 . S
C1027 C1028 1.363 . S
C1027 H1030 0.929 . S
C1028 C1027 1.363 . S
C1028 C1034 1.428 . S
H1029 C1025 0.930 . S
H1030 C1027 0.929 . S
S1031 N1032 1.613 . S
S1031 N1033 1.610 1_554 S
N1032 S1031 1.613 . S
N1032 C1035 1.350 1_554 S
N1033 S1031 1.610 1_556 S
N1033 C1034 1.351 . S
C1034 C1028 1.428 . S
C1034 N1033 1.351 . S
C1034 C1035 1.434 . S
C1035 C1026 1.429 . S
C1035 N1032 1.350 1_556 S
C1035 C1034 1.434 . S
C1036 C1037 1.369 . S
C1036 C1038 1.419 . S
C1036 H1040 0.930 . S
C1037 C1036 1.369 . S
C1037 C1046 1.429 1_655 S
C1038 C1036 1.419 . S
C1038 C1039 1.363 1_655 S
C1038 H1041 0.929 . S
C1039 C1038 1.363 1_455 S
C1039 C1045 1.428 . S
H1040 C1036 0.930 . S
H1041 C1038 0.929 . S
S1042 N1043 1.613 . S
S1042 N1044 1.610 . S
N1043 S1042 1.613 . S
N1043 C1046 1.350 . S
N1044 S1042 1.610 . S
N1044 C1045 1.351 . S
C1045 C1039 1.428 . S
C1045 N1044 1.351 . S
C1045 C1046 1.434 . S
C1046 C1037 1.429 1_455 S
C1046 N1043 1.350 . S
C1046 C1045 1.434 . S
C1047 C1048 1.369 . S
C1047 C1049 1.419 . S
C1047 H1051 0.930 . S
C1048 C1047 1.369 . S
C1048 C1057 1.429 . S
C1049 C1047 1.419 . S
C1049 C1050 1.363 . S
C1049 H1052 0.929 . S
C1050 C1049 1.363 . S
C1050 C1056 1.428 . S
H1051 C1047 0.930 . S
H1052 C1049 0.929 . S
S1053 N1054 1.616 . S
S1053 N1055 1.610 1_554 S
N1054 S1053 1.616 . S
N1054 C1057 1.336 1_554 S
N1055 S1053 1.610 1_556 S
N1055 C1056 1.351 . S
C1056 C1050 1.428 . S
C1056 N1055 1.351 . S
C1056 C1057 1.434 . S
C1057 C1048 1.429 . S
C1057 N1054 1.336 1_556 S
C1057 C1056 1.434 . S
C1058 C1059 1.369 . S
C1058 C1060 1.419 . S
C1058 H1062 0.930 . S
C1059 C1058 1.369 . S
C1059 C1068 1.429 . S
C1060 C1058 1.419 . S
C1060 C1061 1.363 . S
C1060 H1063 0.929 . S
C1061 C1060 1.363 . S
C1061 C1067 1.428 . S
H1062 C1058 0.930 . S
H1063 C1060 0.929 . S
S1064 N1065 1.613 . S
S1064 N1066 1.610 . S
N1065 S1064 1.613 . S
N1065 C1068 1.350 . S
N1066 S1064 1.610 . S
N1066 C1067 1.351 . S
C1067 C1061 1.428 . S
C1067 N1066 1.351 . S
C1067 C1068 1.434 . S
C1068 C1059 1.429 . S
C1068 N1065 1.350 . S
C1068 C1067 1.434 . S
C1069 C1070 1.369 . S
C1069 C1071 1.419 . S
C1069 H1073 0.930 . S
C1070 C1069 1.369 . S
C1070 C1079 1.429 . S
C1071 C1069 1.419 . S
C1071 C1072 1.363 . S
C1071 H1074 0.929 . S
C1072 C1071 1.363 . S
C1072 C1078 1.428 . S
H1073 C1069 0.930 . S
H1074 C1071 0.929 . S
S1075 N1076 1.613 . S
S1075 N1077 1.610 . S
N1076 S1075 1.613 . S
N1076 C1079 1.350 . S
N1077 S1075 1.610 . S
N1077 C1078 1.351 . S
C1078 C1072 1.428 . S
C1078 N1077 1.351 . S
C1078 C1079 1.434 . S
C1079 C1070 1.429 . S
C1079 N1076 1.350 . S
C1079 C1078 1.434 . S
C1080 C1081 1.369 . S
C1080 C1082 1.419 . S
C1080 H1084 0.930 . S
C1081 C1080 1.369 . S
C1081 C1090 1.429 . S
C1082 C1080 1.419 . S
C1082 C1083 1.363 . S
C1082 H1085 0.929 . S
C1083 C1082 1.363 . S
C1083 C1089 1.428 . S
H1084 C1080 0.930 . S
H1085 C1082 0.929 . S
S1086 N1087 1.613 . S
S1086 N1088 1.610 1_554 S
N1087 S1086 1.613 . S
N1087 C1090 1.350 1_554 S
N1088 S1086 1.610 1_556 S
N1088 C1089 1.351 . S
C1089 C1083 1.428 . S
C1089 N1088 1.351 . S
C1089 C1090 1.434 . S
C1090 C1081 1.429 . S
C1090 N1087 1.350 1_556 S
C1090 C1089 1.434 . S
C1091 C1092 1.369 . S
C1091 C1093 1.419 . S
C1091 H1095 0.930 . S
C1092 C1091 1.369 . S
C1092 C1101 1.429 . S
C1093 C1091 1.419 . S
C1093 C1094 1.363 . S
C1093 H1096 0.929 . S
C1094 C1093 1.363 . S
C1094 C1100 1.428 . S
H1095 C1091 0.930 . S
H1096 C1093 0.929 . S
S1097 N1098 1.613 . S
S1097 N1099 1.610 . S
N1098 S1097 1.613 . S
N1098 C1101 1.350 . S
N1099 S1097 1.610 . S
N1099 C1100 1.351 . S
C1100 C1094 1.428 . S
C1100 N1099 1.351 . S
C1100 C1101 1.434 . S
C1101 C1092 1.429 . S
C1101 N1098 1.350 . S
C1101 C1100 1.434 . S
C1102 C1103 1.369 . S
C1102 C1104 1.419 . S
C1102 H1106 0.930 . S
C1103 C1102 1.369 . S
C1103 C1112 1.429 . S
C1104 C1102 1.419 . S
C1104 C1105 1.363 . S
C1104 H1107 0.929 . S
C1105 C1104 1.363 . S
C1105 C1111 1.428 . S
H1106 C1102 0.930 . S
H1107 C1104 0.929 . S
S1108 N1109 1.613 . S
S1108 N1110 1.610 . S
N1109 S1108 1.613 . S
N1109 C1112 1.350 . S
N1110 S1108 1.610 . S
N1110 C1111 1.351 . S
C1111 C1105 1.428 . S
C1111 N1110 1.351 . S
C1111 C1112 1.434 . S
C1112 C1103 1.429 . S
C1112 N1109 1.350 . S
C1112 C1111 1.434 . S
C1113 C1114 1.369 . S
C1113 C1115 1.419 . S
C1113 H1117 0.930 . S
C1114 C1113 1.369 . S
C1114 C1123 1.429 . S
C1115 C1113 1.419 . S
C1115 C1116 1.363 . S
C1115 H1118 0.929 . S
C1116 C1115 1.363 . S
C1116 C1122 1.428 . S
H1117 C1113 0.930 . S
H1118 C1115 0.929 . S
S1119 N1120 1.613 . S
S1119 N1121 1.610 . S
N1120 S1119 1.613 . S
N1120 C1123 1.350 . S
N1121 S1119 1.610 . S
N1121 C1122 1.351 . S
C1122 C1116 1.428 . S
C1122 N1121 1.351 . S
C1122 C1123 1.434 . S
C1123 C1114 1.429 . S
C1123 N1120 1.350 . S
C1123 C1122 1.434 . S
C1124 C1125 1.369 1_565 S
C1124 C1126 1.419 . S
C1124 H1128 0.930 . S
C1125 C1124 1.369 1_545 S
C1125 C1134 1.429 . S
C1126 C1124 1.419 . S
C1126 C1127 1.363 . S
C1126 H1129 0.929 . S
C1127 C1126 1.363 . S
C1127 C1133 1.428 1_565 S
H1128 C1124 0.930 . S
H1129 C1126 0.929 . S
S1130 N1131 1.613 . S
S1130 N1132 1.610 . S
N1131 S1130 1.613 . S
N1131 C1134 1.350 . S
N1132 S1130 1.610 . S
N1132 C1133 1.351 . S
C1133 C1127 1.428 1_545 S
C1133 N1132 1.351 . S
C1133 C1134 1.434 . S
C1134 C1125 1.429 . S
C1134 N1131 1.350 . S
C1134 C1133 1.434 . S
C1135 C1136 1.369 . S
C1135 C1137 1.421 1_455 S
C1135 H1139 0.930 . S
C1136 C1135 1.369 . S
C1136 C1145 1.429 1_545 S
C1137 C1135 1.421 1_655 S
C1137 C1138 1.361 1_545 S
C1137 H1140 0.929 . S
C1138 C1137 1.361 1_565 S
C1138 C1144 1.428 . S
H1139 C1135 0.930 . S
H1140 C1137 0.929 . S
S1141 N1142 1.613 . S
S1141 N1143 1.645 . S
N1142 S1141 1.613 . S
N1142 C1145 1.350 . S
N1143 S1141 1.645 . S
N1143 C1144 1.349 1_455 S
C1144 C1138 1.428 . S
C1144 N1143 1.349 1_655 S
C1144 C1145 1.434 1_655 S
C1145 C1136 1.429 1_565 S
C1145 N1142 1.350 . S
C1145 C1144 1.434 1_455 S
C1146 C1147 1.369 . S
C1146 C1148 1.419 . S
C1146 H1150 0.930 . S
C1147 C1146 1.369 . S
C1147 C1156 1.429 1_565 S
C1148 C1146 1.419 . S
C1148 C1149 1.363 1_565 S
C1148 H1151 0.929 . S
C1149 C1148 1.363 1_545 S
C1149 C1155 1.428 . S
H1150 C1146 0.930 . S
H1151 C1148 0.929 . S
S1152 N1153 1.613 . S
S1152 N1154 1.610 . S
N1153 S1152 1.613 . S
N1153 C1156 1.350 . S
N1154 S1152 1.610 . S
N1154 C1155 1.351 . S
C1155 C1149 1.428 . S
C1155 N1154 1.351 . S
C1155 C1156 1.434 . S
C1156 C1147 1.429 1_545 S
C1156 N1153 1.350 . S
C1156 C1155 1.434 . S
C1157 C1158 1.369 1_565 S
C1157 C1159 1.419 1_655 S
C1157 H1161 0.930 . S
C1158 C1157 1.369 1_545 S
C1158 C1167 1.443 . S
C1159 C1157 1.419 1_455 S
C1159 C1160 1.363 . S
C1159 H1162 0.929 . S
C1160 C1159 1.363 . S
C1160 C1166 1.428 1_565 S
H1161 C1157 0.930 . S
H1162 C1159 0.929 . S
S1163 N1164 1.613 . S
S1163 N1165 1.610 . S
N1164 S1163 1.613 . S
N1164 C1167 1.348 1_455 S
N1165 S1163 1.610 . S
N1165 C1166 1.351 . S
C1166 C1160 1.428 1_545 S
C1166 N1165 1.351 . S
C1166 C1167 1.420 1_455 S
C1167 C1158 1.443 . S
C1167 N1164 1.348 1_655 S
C1167 C1166 1.420 1_655 S
C1168 C1169 1.369 . S
C1168 C1170 1.428 . S
C1168 H1172 0.930 . S
C1169 C1168 1.369 . S
C1169 C1178 1.429 1_455 S
C1170 C1168 1.428 . S
C1170 C1171 1.349 1_455 S
C1170 H1173 0.934 . S
C1171 C1170 1.349 1_655 S
C1171 C1177 1.428 . S
H1172 C1168 0.930 . S
H1173 C1170 0.934 . S
S1174 N1175 1.613 . S
S1174 N1176 1.610 . S
N1175 S1174 1.613 . S
N1175 C1178 1.350 . S
N1176 S1174 1.610 . S
N1176 C1177 1.351 . S
C1177 C1171 1.428 . S
C1177 N1176 1.351 . S
C1177 C1178 1.434 . S
C1178 C1169 1.429 1_655 S
C1178 N1175 1.350 . S
C1178 C1177 1.434 . S
C1179 C1180 1.369 . S
C1179 C1181 1.419 . S
C1179 H1183 0.930 . S
C1180 C1179 1.369 . S
C1180 C1189 1.429 . S
C1181 C1179 1.419 . S
C1181 C1182 1.363 . S
C1181 H1184 0.929 . S
C1182 C1181 1.363 . S
C1182 C1188 1.428 . S
H1183 C1179 0.930 . S
H1184 C1181 0.929 . S
S1185 N1186 1.613 . S
S1185 N1187 1.610 . S
N1186 S1185 1.613 . S
N1186 C1189 1.350 . S
N1187 S1185 1.610 . S
N1187 C1188 1.351 . S
C1188 C1182 1.428 . S
C1188 N1187 1.351 . S
C1188 C1189 1.434 . S
C1189 C1180 1.429 . S
C1189 N1186 1.350 . S
C1189 C1188 1.434 . S
C1190 C1191 1.369 . S
C1190 C1192 1.419 . S
C1190 H1194 0.930 . S
C1191 C1190 1.369 . S
C1191 C1200 1.429 . S
C1192 C1190 1.419 . S
C1192 C1193 1.363 . S
C1192 H1195 0.929 . S
C1193 C1192 1.363 . S
C1193 C1199 1.428 . S
H1194 C1190 0.930 . S
H1195 C1192 0.929 . S
S1196 N1197 1.613 . S
S1196 N1198 1.610 . S
N1197 S1196 1.613 . S
N1197 C1200 1.350 . S
N1198 S1196 1.610 . S
N1198 C1199 1.351 . S
C1199 C1193 1.428 . S
C1199 N1198 1.351 . S
C1199 C1200 1.434 . S
C1200 C1191 1.429 . S
C1200 N1197 1.350 . S
C1200 C1199 1.434 . S
C1201 C1202 1.369 . S
C1201 C1203 1.419 . S
C1201 H1205 0.930 . S
C1202 C1201 1.369 . S
C1202 C1211 1.429 . S
C1203 C1201 1.419 . S
C1203 C1204 1.363 . S
C1203 H1206 0.929 . S
C1204 C1203 1.363 . S
C1204 C1210 1.428 . S
H1205 C1201 0.930 . S
H1206 C1203 0.929 . S
S1207 N1208 1.613 . S
S1207 N1209 1.610 . S
N1208 S1207 1.613 . S
N1208 C1211 1.350 . S
N1209 S1207 1.610 . S
N1209 C1210 1.351 . S
C1210 C1204 1.428 . S
C1210 N1209 1.351 . S
C1210 C1211 1.434 . S
C1211 C1202 1.429 . S
C1211 N1208 1.350 . S
C1211 C1210 1.434 . S
C1212 C1213 1.369 . S
C1212 C1214 1.419 1_655 S
C1212 H1216 0.930 . S
C1213 C1212 1.369 . S
C1213 C1222 1.429 . S
C1214 C1212 1.419 1_455 S
C1214 C1215 1.363 . S
C1214 H1217 0.929 . S
C1215 C1214 1.363 . S
C1215 C1221 1.428 1_455 S
H1216 C1212 0.930 . S
H1217 C1214 0.929 . S
S1218 N1219 1.613 . S
S1218 N1220 1.629 . S
N1219 S1218 1.613 . S
N1219 C1222 1.350 . S
N1220 S1218 1.629 . S
N1220 C1221 1.352 . S
C1221 C1215 1.428 1_655 S
C1221 N1220 1.352 . S
C1221 C1222 1.434 . S
C1222 C1213 1.429 . S
C1222 N1219 1.350 . S
C1222 C1221 1.434 . S
C1223 C1224 1.369 . S
C1223 C1225 1.419 1_554 S
C1223 H1227 0.930 . S
C1224 C1223 1.369 . S
C1224 C1233 1.429 . S
C1225 C1223 1.419 1_556 S
C1225 C1226 1.363 . S
C1225 H1228 0.929 . S
C1226 C1225 1.363 . S
C1226 C1232 1.428 1_556 S
H1227 C1223 0.930 . S
H1228 C1225 0.929 . S
S1229 N1230 1.613 . S
S1229 N1231 1.610 . S
N1230 S1229 1.613 . S
N1230 C1233 1.350 . S
N1231 S1229 1.610 . S
N1231 C1232 1.351 . S
C1232 C1226 1.428 1_554 S
C1232 N1231 1.351 . S
C1232 C1233 1.434 . S
C1233 C1224 1.429 . S
C1233 N1230 1.350 . S
C1233 C1232 1.434 . S
C1234 C1235 1.369 . S
C1234 C1236 1.419 . S
C1234 H1238 0.930 . S
C1235 C1234 1.369 . S
C1235 C1244 1.429 . S
C1236 C1234 1.419 . S
C1236 C1237 1.363 . S
C1236 H1239 0.929 . S
C1237 C1236 1.363 . S
C1237 C1243 1.428 . S
H1238 C1234 0.930 . S
H1239 C1236 0.929 . S
S1240 N1241 1.613 . S
S1240 N1242 1.610 . S
N1241 S1240 1.613 . S
N1241 C1244 1.350 . S
N1242 S1240 1.610 . S
N1242 C1243 1.351 . S
C1243 C1237 1.428 . S
C1243 N1242 1.351 . S
C1243 C1244 1.434 . S
C1244 C1235 1.429 . S
C1244 N1241 1.350 . S
C1244 C1243 1.434 . S
C1245 C1246 1.369 . S
C1245 C1247 1.419 . S
C1245 H1249 0.930 . S
C1246 C1245 1.369 . S
C1246 C1255 1.429 . S
C1247 C1245 1.419 . S
C1247 C1248 1.363 . S
C1247 H1250 0.929 . S
C1248 C1247 1.363 . S
C1248 C1254 1.428 . S
H1249 C1245 0.930 . S
H1250 C1247 0.929 . S
S1251 N1252 1.613 . S
S1251 N1253 1.610 . S
N1252 S1251 1.613 . S
N1252 C1255 1.350 . S
N1253 S1251 1.610 . S
N1253 C1254 1.351 . S
C1254 C1248 1.428 . S
C1254 N1253 1.351 . S
C1254 C1255 1.434 . S
C1255 C1246 1.429 . S
C1255 N1252 1.350 . S
C1255 C1254 1.434 . S
C1256 C1257 1.369 . S
C1256 C1258 1.419 . S
C1256 H1260 0.930 . S
C1257 C1256 1.369 . S
C1257 C1266 1.429 . S
C1258 C1256 1.419 . S
C1258 C1259 1.363 1_455 S
C1258 H1261 0.929 . S
C1259 C1258 1.363 1_655 S
C1259 C1265 1.428 . S
H1260 C1256 0.930 . S
H1261 C1258 0.929 . S
S1262 N1263 1.613 1_655 S
S1262 N1264 1.610 . S
N1263 S1262 1.613 1_455 S
N1263 C1266 1.350 . S
N1264 S1262 1.610 . S
N1264 C1265 1.351 . S
C1265 C1259 1.428 . S
C1265 N1264 1.351 . S
C1265 C1266 1.434 1_655 S
C1266 C1257 1.429 . S
C1266 N1263 1.350 . S
C1266 C1265 1.434 1_455 S
C1267 C1268 1.369 . S
C1267 C1269 1.419 . S
C1267 H1271 0.930 . S
C1268 C1267 1.369 . S
C1268 C1277 1.429 . S
C1269 C1267 1.419 . S
C1269 C1270 1.363 1_554 S
C1269 H1272 0.929 . S
C1270 C1269 1.363 1_556 S
C1270 C1276 1.428 . S
H1271 C1267 0.930 . S
H1272 C1269 0.929 . S
S1273 N1274 1.613 1_556 S
S1273 N1275 1.610 . S
N1274 S1273 1.613 1_554 S
N1274 C1277 1.350 . S
N1275 S1273 1.610 . S
N1275 C1276 1.351 . S
C1276 C1270 1.428 . S
C1276 N1275 1.351 . S
C1276 C1277 1.434 1_556 S
C1277 C1268 1.429 . S
C1277 N1274 1.350 . S
C1277 C1276 1.434 1_554 S
C1278 C1279 1.369 . S
C1278 C1280 1.419 . S
C1278 H1282 0.930 . S
C1279 C1278 1.369 . S
C1279 C1288 1.429 . S
C1280 C1278 1.419 . S
C1280 C1281 1.363 . S
C1280 H1283 0.929 . S
C1281 C1280 1.363 . S
C1281 C1287 1.428 . S
H1282 C1278 0.930 . S
H1283 C1280 0.929 . S
S1284 N1285 1.613 . S
S1284 N1286 1.610 . S
N1285 S1284 1.613 . S
N1285 C1288 1.350 . S
N1286 S1284 1.610 . S
N1286 C1287 1.351 . S
C1287 C1281 1.428 . S
C1287 N1286 1.351 . S
C1287 C1288 1.434 . S
C1288 C1279 1.429 . S
C1288 N1285 1.350 . S
C1288 C1287 1.434 . S
C1289 C1290 1.369 . S
C1289 C1291 1.419 . S
C1289 H1293 0.930 . S
C1290 C1289 1.369 . S
C1290 C1299 1.429 . S
C1291 C1289 1.419 . S
C1291 C1292 1.363 . S
C1291 H1294 0.929 . S
C1292 C1291 1.363 . S
C1292 C1298 1.428 . S
H1293 C1289 0.930 . S
H1294 C1291 0.929 . S
S1295 N1296 1.613 . S
S1295 N1297 1.610 . S
N1296 S1295 1.613 . S
N1296 C1299 1.350 . S
N1297 S1295 1.610 . S
N1297 C1298 1.351 . S
C1298 C1292 1.428 . S
C1298 N1297 1.351 . S
C1298 C1299 1.434 . S
C1299 C1290 1.429 . S
C1299 N1296 1.350 . S
C1299 C1298 1.434 . S
C1300 C1301 1.369 1_655 S
C1300 C1302 1.419 . S
C1300 H1304 0.930 . S
C1301 C1300 1.369 1_455 S
C1301 C1310 1.429 . S
C1302 C1300 1.419 . S
C1302 C1303 1.363 . S
C1302 H1305 0.929 . S
C1303 C1302 1.363 . S
C1303 C1309 1.428 1_655 S
H1304 C1300 0.930 . S
H1305 C1302 0.929 . S
S1306 N1307 1.613 . S
S1306 N1308 1.610 . S
N1307 S1306 1.613 . S
N1307 C1310 1.350 . S
N1308 S1306 1.610 . S
N1308 C1309 1.351 . S
C1309 C1303 1.428 1_455 S
C1309 N1308 1.351 . S
C1309 C1310 1.434 . S
C1310 C1301 1.429 . S
C1310 N1307 1.350 . S
C1310 C1309 1.434 . S
C1311 C1312 1.369 . S
C1311 C1313 1.419 . S
C1311 H1315 0.930 . S
C1312 C1311 1.369 . S
C1312 C1321 1.429 . S
C1313 C1311 1.419 . S
C1313 C1314 1.363 . S
C1313 H1316 0.929 . S
C1314 C1313 1.363 . S
C1314 C1320 1.428 . S
H1315 C1311 0.930 . S
H1316 C1313 0.929 . S
S1317 N1318 1.613 . S
S1317 N1319 1.610 . S
N1318 S1317 1.613 . S
N1318 C1321 1.350 . S
N1319 S1317 1.610 . S
N1319 C1320 1.351 . S
C1320 C1314 1.428 . S
C1320 N1319 1.351 . S
C1320 C1321 1.434 . S
C1321 C1312 1.429 . S
C1321 N1318 1.350 . S
C1321 C1320 1.434 . S
C1322 C1323 1.369 1_556 S
C1322 C1324 1.419 . S
C1322 H1326 0.930 . S
C1323 C1322 1.369 1_554 S
C1323 C1332 1.429 . S
C1324 C1322 1.419 . S
C1324 C1325 1.363 . S
C1324 H1327 0.929 . S
C1325 C1324 1.363 . S
C1325 C1331 1.428 . S
H1326 C1322 0.930 . S
H1327 C1324 0.929 . S
S1328 N1329 1.613 . S
S1328 N1330 1.610 1_554 S
N1329 S1328 1.613 . S
N1329 C1332 1.350 . S
N1330 S1328 1.610 1_556 S
N1330 C1331 1.351 . S
C1331 C1325 1.428 . S
C1331 N1330 1.351 . S
C1331 C1332 1.434 1_556 S
C1332 C1323 1.429 . S
C1332 N1329 1.350 . S
C1332 C1331 1.434 1_554 S
C1333 C1334 1.369 . S
C1333 C1335 1.419 . S
C1333 H1337 0.930 . S
C1334 C1333 1.369 . S
C1334 C1343 1.429 . S
C1335 C1333 1.419 . S
C1335 C1336 1.363 . S
C1335 H1338 0.929 . S
C1336 C1335 1.363 . S
C1336 C1342 1.428 . S
H1337 C1333 0.930 . S
H1338 C1335 0.929 . S
S1339 N1340 1.613 . S
S1339 N1341 1.610 . S
N1340 S1339 1.613 . S
N1340 C1343 1.350 . S
N1341 S1339 1.610 . S
N1341 C1342 1.351 . S
C1342 C1336 1.428 . S
C1342 N1341 1.351 . S
C1342 C1343 1.434 . S
C1343 C1334 1.429 . S
C1343 N1340 1.350 . S
C1343 C1342 1.434 . S
C1344 C1345 1.369 . S
C1344 C1346 1.419 . S
C1344 H1348 0.930 . S
C1345 C1344 1.369 . S
C1345 C1354 1.429 . S
C1346 C1344 1.419 . S
C1346 C1347 1.363 . S
C1346 H1349 0.929 . S
C1347 C1346 1.363 . S
C1347 C1353 1.428 . S
H1348 C1344 0.930 . S
H1349 C1346 0.929 . S
S1350 N1351 1.613 . S
S1350 N1352 1.610 . S
N1351 S1350 1.613 . S
N1351 C1354 1.350 . S
N1352 S1350 1.610 . S
N1352 C1353 1.351 . S
C1353 C1347 1.428 . S
C1353 N1352 1.351 . S
C1353 C1354 1.434 . S
C1354 C1345 1.429 . S
C1354 N1351 1.350 . S
C1354 C1353 1.434 . S
C1355 C1356 1.369 . S
C1355 C1357 1.419 . S
C1355 H1359 0.930 . S
C1356 C1355 1.369 . S
C1356 C1365 1.429 . S
C1357 C1355 1.419 . S
C1357 C1358 1.363 . S
C1357 H1360 0.929 . S
C1358 C1357 1.363 . S
C1358 C1364 1.428 . S
H1359 C1355 0.930 . S
H1360 C1357 0.929 . S
S1361 N1362 1.613 . S
S1361 N1363 1.610 . S
N1362 S1361 1.613 . S
N1362 C1365 1.350 . S
N1363 S1361 1.610 . S
N1363 C1364 1.351 . S
C1364 C1358 1.428 . S
C1364 N1363 1.351 . S
C1364 C1365 1.434 . S
C1365 C1356 1.429 . S
C1365 N1362 1.350 . S
C1365 C1364 1.434 . S
C1366 C1367 1.369 . S
C1366 C1368 1.419 1_654 S
C1366 H1370 0.930 1_655 S
C1367 C1366 1.369 . S
C1367 C1376 1.429 1_554 S
C1368 C1366 1.419 1_456 S
C1368 C1369 1.363 . S
C1368 H1371 0.929 . S
C1369 C1368 1.363 . S
C1369 C1375 1.428 1_455 S
H1370 C1366 0.930 1_455 S
H1371 C1368 0.929 . S
S1372 N1373 1.613 . S
S1372 N1374 1.610 . S
N1373 S1372 1.613 . S
N1373 C1376 1.350 . S
N1374 S1372 1.610 . S
N1374 C1375 1.351 . S
C1375 C1369 1.428 1_655 S
C1375 N1374 1.351 . S
C1375 C1376 1.434 . S
C1376 C1367 1.429 1_556 S
C1376 N1373 1.350 . S
C1376 C1375 1.434 . S
C1377 C1378 1.369 . S
C1377 C1379 1.419 . S
C1377 H1381 0.930 . S
C1378 C1377 1.369 . S
C1378 C1387 1.429 . S
C1379 C1377 1.419 . S
C1379 C1380 1.363 . S
C1379 H1382 0.929 . S
C1380 C1379 1.363 . S
C1380 C1386 1.428 . S
H1381 C1377 0.930 . S
H1382 C1379 0.929 . S
S1383 N1384 1.613 . S
S1383 N1385 1.610 . S
N1384 S1383 1.613 . S
N1384 C1387 1.350 . S
N1385 S1383 1.610 . S
N1385 C1386 1.351 . S
C1386 C1380 1.428 . S
C1386 N1385 1.351 . S
C1386 C1387 1.434 . S
C1387 C1378 1.429 . S
C1387 N1384 1.350 . S
C1387 C1386 1.434 . S
C1388 C1389 1.369 . S
C1388 C1390 1.419 . S
C1388 H1392 0.930 . S
C1389 C1388 1.369 . S
C1389 C1398 1.429 . S
C1390 C1388 1.419 . S
C1390 C1391 1.363 . S
C1390 H1393 0.929 . S
C1391 C1390 1.363 . S
C1391 C1397 1.428 . S
H1392 C1388 0.930 . S
H1393 C1390 0.929 . S
S1394 N1395 1.613 . S
S1394 N1396 1.610 . S
N1395 S1394 1.613 . S
N1395 C1398 1.350 . S
N1396 S1394 1.610 . S
N1396 C1397 1.351 . S
C1397 C1391 1.428 . S
C1397 N1396 1.351 . S
C1397 C1398 1.434 . S
C1398 C1389 1.429 . S
C1398 N1395 1.350 . S
C1398 C1397 1.434 . S
C1399 C1400 1.369 . S
C1399 C1401 1.419 . S
C1399 H1403 0.930 . S
C1400 C1399 1.369 . S
C1400 C1409 1.429 . S
C1401 C1399 1.419 . S
C1401 C1402 1.363 . S
C1401 H1404 0.929 . S
C1402 C1401 1.363 . S
C1402 C1408 1.428 . S
H1403 C1399 0.930 . S
H1404 C1401 0.929 . S
S1405 N1406 1.613 . S
S1405 N1407 1.610 . S
N1406 S1405 1.613 . S
N1406 C1409 1.350 . S
N1407 S1405 1.610 . S
N1407 C1408 1.351 . S
C1408 C1402 1.428 . S
C1408 N1407 1.351 . S
C1408 C1409 1.434 . S
C1409 C1400 1.429 . S
C1409 N1406 1.350 . S
C1409 C1408 1.434 . S
C1410 C1411 1.369 1_655 S
C1410 C1412 1.419 . S
C1410 H1414 0.930 . S
C1411 C1410 1.369 1_455 S
C1411 C1420 1.429 . S
C1412 C1410 1.419 . S
C1412 C1413 1.363 . S
C1412 H1415 0.929 . S
C1413 C1412 1.363 . S
C1413 C1419 1.428 . S
H1414 C1410 0.930 . S
H1415 C1412 0.929 . S
S1416 N1417 1.613 . S
S1416 N1418 1.610 . S
N1417 S1416 1.613 . S
N1417 C1420 1.350 . S
N1418 S1416 1.610 . S
N1418 C1419 1.351 1_455 S
C1419 C1413 1.428 . S
C1419 N1418 1.351 1_655 S
C1419 C1420 1.434 1_655 S
C1420 C1411 1.429 . S
C1420 N1417 1.350 . S
C1420 C1419 1.434 1_455 S
C1421 C1422 1.369 . S
C1421 C1423 1.419 . S
C1421 H1425 0.930 . S
C1422 C1421 1.369 . S
C1422 C1431 1.429 . S
C1423 C1421 1.419 . S
C1423 C1424 1.363 1_554 S
C1423 H1426 0.929 . S
C1424 C1423 1.363 1_556 S
C1424 C1430 1.428 . S
H1425 C1421 0.930 . S
H1426 C1423 0.929 . S
S1427 N1428 1.613 1_556 S
S1427 N1429 1.610 . S
N1428 S1427 1.613 1_554 S
N1428 C1431 1.350 . S
N1429 S1427 1.610 . S
N1429 C1430 1.351 . S
C1430 C1424 1.428 . S
C1430 N1429 1.351 . S
C1430 C1431 1.434 1_556 S
C1431 C1422 1.429 . S
C1431 N1428 1.350 . S
C1431 C1430 1.434 1_554 S
C1432 C1433 1.369 . S
C1432 C1434 1.419 . S
C1432 H1436 0.930 . S
C1433 C1432 1.369 . S
C1433 C1442 1.429 . S
C1434 C1432 1.419 . S
C1434 C1435 1.363 . S
C1434 H1437 0.929 1_556 S
C1435 C1434 1.363 . S
C1435 C1441 1.428 . S
H1436 C1432 0.930 . S
H1437 C1434 0.929 1_554 S
S1438 N1439 1.613 . S
S1438 N1440 1.610 . S
N1439 S1438 1.613 . S
N1439 C1442 1.350 . S
N1440 S1438 1.610 . S
N1440 C1441 1.351 . S
C1441 C1435 1.428 . S
C1441 N1440 1.351 . S
C1441 C1442 1.434 . S
C1442 C1433 1.429 . S
C1442 N1439 1.350 . S
C1442 C1441 1.434 . S
C1443 C1444 1.369 . S
C1443 C1445 1.419 . S
C1443 H1447 0.930 . S
C1444 C1443 1.369 . S
C1444 C1453 1.429 . S
C1445 C1443 1.419 . S
C1445 C1446 1.363 . S
C1445 H1448 0.929 . S
C1446 C1445 1.363 . S
C1446 C1452 1.428 . S
H1447 C1443 0.930 . S
H1448 C1445 0.929 . S
S1449 N1450 1.613 . S
S1449 N1451 1.610 . S
N1450 S1449 1.613 . S
N1450 C1453 1.350 . S
N1451 S1449 1.610 . S
N1451 C1452 1.351 . S
C1452 C1446 1.428 . S
C1452 N1451 1.351 . S
C1452 C1453 1.434 . S
C1453 C1444 1.429 . S
C1453 N1450 1.350 . S
C1453 C1452 1.434 . S
C1454 C1455 1.369 1_655 S
C1454 C1456 1.419 . S
C1454 H1458 0.930 . S
C1455 C1454 1.369 1_455 S
C1455 C1464 1.429 . S
C1456 C1454 1.419 . S
C1456 C1457 1.363 . S
C1456 H1459 0.929 . S
C1457 C1456 1.363 . S
C1457 C1463 1.428 1_655 S
H1458 C1454 0.930 . S
H1459 C1456 0.929 . S
S1460 N1461 1.613 . S
S1460 N1462 1.610 . S
N1461 S1460 1.613 . S
N1461 C1464 1.350 . S
N1462 S1460 1.610 . S
N1462 C1463 1.351 . S
C1463 C1457 1.428 1_455 S
C1463 N1462 1.351 . S
C1463 C1464 1.434 . S
C1464 C1455 1.429 . S
C1464 N1461 1.350 . S
C1464 C1463 1.434 . S
C1465 C1466 1.369 1_554 S
C1465 C1467 1.419 . S
C1465 H1469 0.930 . S
C1466 C1465 1.369 1_556 S
C1466 C1475 1.429 . S
C1467 C1465 1.419 . S
C1467 C1468 1.363 . S
C1467 H1470 0.929 . S
C1468 C1467 1.363 . S
C1468 C1474 1.428 . S
H1469 C1465 0.930 . S
H1470 C1467 0.929 . S
S1471 N1472 1.613 . S
S1471 N1473 1.610 1_556 S
N1472 S1471 1.613 . S
N1472 C1475 1.350 . S
N1473 S1471 1.610 1_554 S
N1473 C1474 1.351 . S
C1474 C1468 1.428 . S
C1474 N1473 1.351 . S
C1474 C1475 1.434 1_554 S
C1475 C1466 1.429 . S
C1475 N1472 1.350 . S
C1475 C1474 1.434 1_556 S
C1476 C1477 1.369 . S
C1476 C1478 1.419 . S
C1476 H1480 0.930 . S
C1477 C1476 1.369 . S
C1477 C1486 1.429 . S
C1478 C1476 1.419 . S
C1478 C1479 1.363 . S
C1478 H1481 0.929 . S
C1479 C1478 1.363 . S
C1479 C1485 1.428 . S
H1480 C1476 0.930 . S
H1481 C1478 0.929 . S
S1482 N1483 1.613 . S
S1482 N1484 1.610 . S
N1483 S1482 1.613 . S
N1483 C1486 1.350 . S
N1484 S1482 1.610 . S
N1484 C1485 1.351 . S
C1485 C1479 1.428 . S
C1485 N1484 1.351 . S
C1485 C1486 1.434 . S
C1486 C1477 1.429 . S
C1486 N1483 1.350 . S
C1486 C1485 1.434 . S
C1487 C1488 1.369 . S
C1487 C1489 1.419 . S
C1487 H1491 0.930 . S
C1488 C1487 1.369 . S
C1488 C1497 1.429 . S
C1489 C1487 1.419 . S
C1489 C1490 1.363 . S
C1489 H1492 0.929 . S
C1490 C1489 1.363 . S
C1490 C1496 1.428 . S
H1491 C1487 0.930 . S
H1492 C1489 0.929 . S
S1493 N1494 1.613 . S
S1493 N1495 1.610 . S
N1494 S1493 1.613 . S
N1494 C1497 1.350 . S
N1495 S1493 1.610 . S
N1495 C1496 1.351 . S
C1496 C1490 1.428 . S
C1496 N1495 1.351 . S
C1496 C1497 1.434 . S
C1497 C1488 1.429 . S
C1497 N1494 1.350 . S
C1497 C1496 1.434 . S
C1498 C1499 1.369 1_655 S
C1498 C1500 1.419 . S
C1498 H1502 0.930 . S
C1499 C1498 1.369 1_455 S
C1499 C1508 1.429 . S
C1500 C1498 1.419 . S
C1500 C1501 1.363 . S
C1500 H1503 0.929 . S
C1501 C1500 1.363 . S
C1501 C1507 1.428 1_655 S
H1502 C1498 0.930 . S
H1503 C1500 0.929 . S
S1504 N1505 1.613 . S
S1504 N1506 1.610 . S
N1505 S1504 1.613 . S
N1505 C1508 1.350 . S
N1506 S1504 1.610 . S
N1506 C1507 1.351 . S
C1507 C1501 1.428 1_455 S
C1507 N1506 1.351 . S
C1507 C1508 1.434 . S
C1508 C1499 1.429 . S
C1508 N1505 1.350 . S
C1508 C1507 1.434 . S
C1509 C1510 1.369 . S
C1509 C1511 1.419 . S
C1509 H1513 0.930 . S
C1510 C1509 1.369 . S
C1510 C1519 1.429 . S
C1511 C1509 1.419 . S
C1511 C1512 1.363 . S
C1511 H1514 0.929 . S
C1512 C1511 1.363 . S
C1512 C1518 1.428 . S
H1513 C1509 0.930 . S
H1514 C1511 0.929 . S
S1515 N1516 1.613 . S
S1515 N1517 1.610 . S
N1516 S1515 1.613 . S
N1516 C1519 1.350 . S
N1517 S1515 1.610 . S
N1517 C1518 1.351 . S
C1518 C1512 1.428 . S
C1518 N1517 1.351 . S
C1518 C1519 1.434 . S
C1519 C1510 1.429 . S
C1519 N1516 1.350 . S
C1519 C1518 1.434 . S
C1520 C1521 1.369 . S
C1520 C1522 1.419 . S
C1520 H1524 0.930 . S
C1521 C1520 1.369 . S
C1521 C1530 1.429 . S
C1522 C1520 1.419 . S
C1522 C1523 1.363 . S
C1522 H1525 0.929 . S
C1523 C1522 1.363 . S
C1523 C1529 1.428 . S
H1524 C1520 0.930 . S
H1525 C1522 0.929 . S
S1526 N1527 1.613 . S
S1526 N1528 1.610 . S
N1527 S1526 1.613 . S
N1527 C1530 1.350 . S
N1528 S1526 1.610 . S
N1528 C1529 1.351 . S
C1529 C1523 1.428 . S
C1529 N1528 1.351 . S
C1529 C1530 1.434 . S
C1530 C1521 1.429 . S
C1530 N1527 1.350 . S
C1530 C1529 1.434 . S
C1531 C1532 1.369 . S
C1531 C1533 1.419 . S
C1531 H1535 0.930 . S
C1532 C1531 1.369 . S
C1532 C1541 1.429 . S
C1533 C1531 1.419 . S
C1533 C1534 1.363 . S
C1533 H1536 0.929 . S
C1534 C1533 1.363 . S
C1534 C1540 1.428 . S
H1535 C1531 0.930 . S
H1536 C1533 0.929 . S
S1537 N1538 1.613 . S
S1537 N1539 1.610 . S
N1538 S1537 1.613 . S
N1538 C1541 1.350 . S
N1539 S1537 1.610 . S
N1539 C1540 1.351 . S
C1540 C1534 1.428 . S
C1540 N1539 1.351 . S
C1540 C1541 1.434 . S
C1541 C1532 1.429 . S
C1541 N1538 1.350 . S
C1541 C1540 1.434 . S
C1542 C1543 1.369 . S
C1542 C1544 1.419 . S
C1542 H1546 0.930 . S
C1543 C1542 1.369 . S
C1543 C1552 1.429 . S
C1544 C1542 1.419 . S
C1544 C1545 1.363 . S
C1544 H1547 0.929 . S
C1545 C1544 1.363 . S
C1545 C1551 1.428 . S
H1546 C1542 0.930 . S
H1547 C1544 0.929 . S
S1548 N1549 1.613 . S
S1548 N1550 1.610 . S
N1549 S1548 1.613 . S
N1549 C1552 1.350 . S
N1550 S1548 1.610 . S
N1550 C1551 1.351 . S
C1551 C1545 1.428 . S
C1551 N1550 1.351 . S
C1551 C1552 1.434 . S
C1552 C1543 1.429 . S
C1552 N1549 1.350 . S
C1552 C1551 1.434 . S
C1553 C1554 1.369 . S
C1553 C1555 1.419 . S
C1553 H1557 0.930 . S
C1554 C1553 1.369 . S
C1554 C1563 1.429 . S
C1555 C1553 1.419 . S
C1555 C1556 1.363 . S
C1555 H1558 0.929 . S
C1556 C1555 1.363 . S
C1556 C1562 1.428 . S
H1557 C1553 0.930 . S
H1558 C1555 0.929 . S
S1559 N1560 1.613 . S
S1559 N1561 1.610 . S
N1560 S1559 1.613 . S
N1560 C1563 1.350 . S
N1561 S1559 1.610 . S
N1561 C1562 1.351 . S
C1562 C1556 1.428 . S
C1562 N1561 1.351 . S
C1562 C1563 1.434 . S
C1563 C1554 1.429 . S
C1563 N1560 1.350 . S
C1563 C1562 1.434 . S
C1564 C1565 1.369 . S
C1564 C1566 1.419 . S
C1564 H1568 0.930 . S
C1565 C1564 1.369 . S
C1565 C1574 1.429 . S
C1566 C1564 1.419 . S
C1566 C1567 1.363 . S
C1566 H1569 0.929 . S
C1567 C1566 1.363 . S
C1567 C1573 1.428 . S
H1568 C1564 0.930 . S
H1569 C1566 0.929 . S
S1570 N1571 1.613 . S
S1570 N1572 1.610 . S
N1571 S1570 1.613 . S
N1571 C1574 1.350 . S
N1572 S1570 1.610 . S
N1572 C1573 1.351 . S
C1573 C1567 1.428 . S
C1573 N1572 1.351 . S
C1573 C1574 1.434 . S
C1574 C1565 1.429 . S
C1574 N1571 1.350 . S
C1574 C1573 1.434 . S
C1575 C1576 1.369 . S
C1575 C1577 1.419 . S
C1575 H1579 0.930 . S
C1576 C1575 1.369 . S
C1576 C1585 1.429 . S
C1577 C1575 1.419 . S
C1577 C1578 1.363 . S
C1577 H1580 0.929 . S
C1578 C1577 1.363 . S
C1578 C1584 1.428 . S
H1579 C1575 0.930 . S
H1580 C1577 0.929 . S
S1581 N1582 1.613 . S
S1581 N1583 1.610 . S
N1582 S1581 1.613 . S
N1582 C1585 1.350 . S
N1583 S1581 1.610 . S
N1583 C1584 1.351 . S
C1584 C1578 1.428 . S
C1584 N1583 1.351 . S
C1584 C1585 1.434 . S
C1585 C1576 1.429 . S
C1585 N1582 1.350 . S
C1585 C1584 1.434 . S
C1586 C1587 1.369 . S
C1586 C1588 1.419 . S
C1586 H1590 0.930 . S
C1587 C1586 1.369 . S
C1587 C1596 1.429 . S
C1588 C1586 1.419 . S
C1588 C1589 1.363 . S
C1588 H1591 0.929 . S
C1589 C1588 1.363 . S
C1589 C1595 1.428 . S
H1590 C1586 0.930 . S
H1591 C1588 0.929 . S
S1592 N1593 1.613 . S
S1592 N1594 1.610 . S
N1593 S1592 1.613 . S
N1593 C1596 1.350 . S
N1594 S1592 1.610 . S
N1594 C1595 1.351 . S
C1595 C1589 1.428 . S
C1595 N1594 1.351 . S
C1595 C1596 1.434 . S
C1596 C1587 1.429 . S
C1596 N1593 1.350 . S
C1596 C1595 1.434 . S
C1597 C1598 1.369 . S
C1597 C1599 1.419 . S
C1597 H1601 0.930 . S
C1598 C1597 1.369 . S
C1598 C1607 1.429 . S
C1599 C1597 1.419 . S
C1599 C1600 1.363 . S
C1599 H1602 0.929 . S
C1600 C1599 1.363 . S
C1600 C1606 1.428 . S
H1601 C1597 0.930 . S
H1602 C1599 0.929 . S
S1603 N1604 1.613 . S
S1603 N1605 1.610 . S
N1604 S1603 1.613 . S
N1604 C1607 1.350 . S
N1605 S1603 1.610 . S
N1605 C1606 1.351 . S
C1606 C1600 1.428 . S
C1606 N1605 1.351 . S
C1606 C1607 1.434 . S
C1607 C1598 1.429 . S
C1607 N1604 1.350 . S
C1607 C1606 1.434 . S
C1608 C1609 1.369 . S
C1608 C1610 1.419 . S
C1608 H1612 0.930 . S
C1609 C1608 1.369 . S
C1609 C1618 1.429 1_565 S
C1610 C1608 1.419 . S
C1610 C1611 1.363 1_565 S
C1610 H1613 0.929 . S
C1611 C1610 1.363 1_545 S
C1611 C1617 1.428 . S
H1612 C1608 0.930 . S
H1613 C1610 0.929 . S
S1614 N1615 1.613 . S
S1614 N1616 1.610 . S
N1615 S1614 1.613 . S
N1615 C1618 1.350 . S
N1616 S1614 1.610 . S
N1616 C1617 1.351 . S
C1617 C1611 1.428 . S
C1617 N1616 1.351 . S
C1617 C1618 1.434 . S
C1618 C1609 1.429 1_545 S
C1618 N1615 1.350 . S
C1618 C1617 1.434 . S
C1619 C1620 1.369 . S
C1619 C1621 1.419 . S
C1619 H1623 0.930 . S
C1620 C1619 1.369 . S
C1620 C1629 1.429 . S
C1621 C1619 1.419 . S
C1621 C1622 1.363 . S
C1621 H1624 0.929 . S
C1622 C1621 1.363 . S
C1622 C1628 1.428 . S
H1623 C1619 0.930 . S
H1624 C1621 0.929 . S
S1625 N1626 1.613 . S
S1625 N1627 1.610 . S
N1626 S1625 1.613 . S
N1626 C1629 1.350 . S
N1627 S1625 1.610 . S
N1627 C1628 1.351 . S
C1628 C1622 1.428 . S
C1628 N1627 1.351 . S
C1628 C1629 1.434 . S
C1629 C1620 1.429 . S
C1629 N1626 1.350 . S
C1629 C1628 1.434 . S
C1630 C1631 1.369 1_565 S
C1630 C1632 1.419 . S
C1630 H1634 0.930 . S
C1631 C1630 1.369 1_545 S
C1631 C1640 1.429 . S
C1632 C1630 1.419 . S
C1632 C1633 1.363 . S
C1632 H1635 0.929 . S
C1633 C1632 1.363 . S
C1633 C1639 1.428 1_565 S
H1634 C1630 0.930 . S
H1635 C1632 0.929 . S
S1636 N1637 1.613 . S
S1636 N1638 1.610 . S
N1637 S1636 1.613 . S
N1637 C1640 1.350 . S
N1638 S1636 1.610 . S
N1638 C1639 1.351 . S
C1639 C1633 1.428 1_545 S
C1639 N1638 1.351 . S
C1639 C1640 1.434 . S
C1640 C1631 1.429 . S
C1640 N1637 1.350 . S
C1640 C1639 1.434 . S
C1641 C1642 1.369 . S
C1641 C1643 1.419 . S
C1641 H1645 0.930 . S
C1642 C1641 1.369 . S
C1642 C1651 1.429 . S
C1643 C1641 1.419 . S
C1643 C1644 1.363 . S
C1643 H1646 0.929 . S
C1644 C1643 1.363 . S
C1644 C1650 1.428 . S
H1645 C1641 0.930 . S
H1646 C1643 0.929 . S
S1647 N1648 1.613 . S
S1647 N1649 1.610 . S
N1648 S1647 1.613 . S
N1648 C1651 1.350 . S
N1649 S1647 1.610 . S
N1649 C1650 1.351 . S
C1650 C1644 1.428 . S
C1650 N1649 1.351 . S
C1650 C1651 1.434 . S
C1651 C1642 1.429 . S
C1651 N1648 1.350 . S
C1651 C1650 1.434 . S
C1652 C1653 1.369 . S
C1652 C1654 1.419 1_565 S
C1652 H1656 0.930 . S
C1653 C1652 1.369 . S
C1653 C1662 1.429 . S
C1654 C1652 1.419 1_545 S
C1654 C1655 1.363 . S
C1654 H1657 0.929 . S
C1655 C1654 1.363 . S
C1655 C1661 1.428 . S
H1656 C1652 0.930 . S
H1657 C1654 0.929 . S
S1658 N1659 1.613 . S
S1658 N1660 1.610 1_565 S
N1659 S1658 1.613 . S
N1659 C1662 1.350 . S
N1660 S1658 1.610 1_545 S
N1660 C1661 1.351 . S
C1661 C1655 1.428 . S
C1661 N1660 1.351 . S
C1661 C1662 1.434 1_545 S
C1662 C1653 1.429 . S
C1662 N1659 1.350 . S
C1662 C1661 1.434 1_565 S
C1663 C1664 1.369 . S
C1663 C1665 1.419 . S
C1663 H1667 0.930 . S
C1664 C1663 1.369 . S
C1664 C1673 1.429 . S
C1665 C1663 1.419 . S
C1665 C1666 1.363 . S
C1665 H1668 0.929 . S
C1666 C1665 1.363 . S
C1666 C1672 1.428 . S
H1667 C1663 0.930 . S
H1668 C1665 0.929 . S
S1669 N1670 1.613 . S
S1669 N1671 1.610 . S
N1670 S1669 1.613 . S
N1670 C1673 1.350 . S
N1671 S1669 1.610 . S
N1671 C1672 1.351 . S
C1672 C1666 1.428 . S
C1672 N1671 1.351 . S
C1672 C1673 1.434 . S
C1673 C1664 1.429 . S
C1673 N1670 1.350 . S
C1673 C1672 1.434 . S
C1674 C1675 1.369 . S
C1674 C1676 1.419 . S
C1674 H1678 0.930 . S
C1675 C1674 1.369 . S
C1675 C1684 1.429 1_565 S
C1676 C1674 1.419 . S
C1676 C1677 1.363 1_565 S
C1676 H1679 0.929 . S
C1677 C1676 1.363 1_545 S
C1677 C1683 1.428 . S
H1678 C1674 0.930 . S
H1679 C1676 0.929 . S
S1680 N1681 1.613 . S
S1680 N1682 1.610 . S
N1681 S1680 1.613 . S
N1681 C1684 1.350 . S
N1682 S1680 1.610 . S
N1682 C1683 1.351 . S
C1683 C1677 1.428 . S
C1683 N1682 1.351 . S
C1683 C1684 1.434 . S
C1684 C1675 1.429 1_545 S
C1684 N1681 1.350 . S
C1684 C1683 1.434 . S
C1685 C1686 1.369 . S
C1685 C1687 1.419 . S
C1685 H1689 0.930 . S
C1686 C1685 1.369 . S
C1686 C1695 1.429 . S
C1687 C1685 1.419 . S
C1687 C1688 1.363 . S
C1687 H1690 0.929 . S
C1688 C1687 1.363 . S
C1688 C1694 1.428 . S
H1689 C1685 0.930 . S
H1690 C1687 0.929 . S
S1691 N1692 1.613 . S
S1691 N1693 1.610 . S
N1692 S1691 1.613 . S
N1692 C1695 1.350 . S
N1693 S1691 1.610 . S
N1693 C1694 1.351 . S
C1694 C1688 1.428 . S
C1694 N1693 1.351 . S
C1694 C1695 1.434 . S
C1695 C1686 1.429 . S
C1695 N1692 1.350 . S
C1695 C1694 1.434 . S
C641 C16 1.116 . S
C643 C96 1.104 . S
C652 C119 1.162 . S
C654 C39 1.170 . S
C663 C59 1.083 . S
C665 C139 1.073 . S
C674 C159 1.159 . S
C676 C79 1.170 . S
C685 C166 1.103 . S
C687 C246 1.114 . S
C696 C188 1.164 . S
C698 C268 1.168 . S
C707 C288 1.086 . S
C709 C208 1.073 . S
C718 C228 1.162 . S
C720 C308 1.169 . S
C729 C416 1.117 . S
C731 C336 1.104 . S
C740 C359 1.158 . S
C742 C439 1.175 . S
C751 C379 1.084 . S
C753 C459 1.076 . S
C762 C399 1.172 . S
C764 C479 1.160 . S
C773 C486 1.116 . S
C775 C566 1.104 . S
C784 C588 1.168 . S
C786 C508 1.167 . S
C795 C528 1.072 . S
C797 C608 1.084 . S
C806 C628 1.158 . S
C808 C548 1.172 . S
C817 C421 1.368 . S
C819 C9 1.364 . S
C828 C441 1.398 . S
C830 C21 1.434 . S
C839 C461 1.434 . S
C841 C41 1.397 . S
C850 C61 1.368 1_554 S
C852 C409 1.364 . S
C861 C89 1.363 . S
C863 C381 1.367 . S
C872 C329 1.369 . S
C874 C101 1.364 . S
C883 C121 1.394 . S
C885 C341 1.435 . S
C894 C141 1.433 . S
C896 C361 1.401 . S
C905 C161 1.364 . S
C907 C589 1.365 1_554 S
C916 C609 1.394 . S
C918 C189 1.435 . S
C927 C629 1.434 . S
C929 C209 1.397 . S
C938 C229 1.364 . S
C940 C561 1.368 . S
C949 C241 1.369 . S
C951 C549 1.363 . S
C960 C269 1.363 . S
C962 C481 1.368 . S
C971 C289 1.394 . S
C973 C509 1.435 . S
C982 C309 1.434 . S
C984 C529 1.398 . S
C993 C169 0.821 . S
C995 C1 0.835 . S
C1004 C29 0.265 . S
C1006 C501 0.279 . S
C1015 C201 0.685 . S
C1017 C49 0.663 . S
C1026 C69 0.582 . S
C1028 C541 0.580 . S
C1037 C249 0.817 . S
C1039 C81 0.839 . S
C1048 C581 0.576 . S
C1050 C109 0.583 . S
C1059 C129 0.688 . S
C1061 C281 0.659 . S
C1070 C149 0.266 . S
C1072 C621 0.277 . S
C1081 C349 0.280 . S
C1083 C181 0.267 . S
C1092 C389 0.583 . S
C1094 C221 0.580 . S
C1103 C261 0.567 . S
C1105 C429 0.590 . S
C1114 C469 0.280 . S
C1116 C301 0.267 . S
C1125 C489 0.826 . S
C1127 C321 0.831 . S
C1136 C521 0.639 1_545 S
C1138 C369 0.654 1_565 S
C1147 C569 0.835 . S
C1149 C401 0.826 . S
C1158 C449 0.644 1_545 S
C1160 C601 0.650 1_565 S
C1169 C6 1.557 . S
C1171 C259 1.503 . S
C1180 C596 1.666 . S
C1182 C28 1.667 . S
C1191 C296 1.679 . S
C1193 C48 1.676 . S
C1202 C68 1.657 . S
C1204 C636 1.661 . S
C1213 C179 1.503 1_556 S
C1215 C86 1.561 . S
C1224 C516 1.654 . S
C1226 C108 1.663 . S
C1235 C216 1.686 . S
C1237 C128 1.671 . S
C1246 C556 1.666 . S
C1248 C148 1.666 . S
C1257 C88 1.498 . S
C1259 C176 1.561 . S
C1268 C426 1.672 . S
C1270 C199 1.661 . S
C1279 C126 1.685 . S
C1281 C219 1.671 . S
C1290 C239 1.656 . S
C1292 C466 1.662 . S
C1301 C8 1.505 . S
C1303 C256 1.558 . S
C1312 C346 1.663 . S
C1314 C279 1.657 . S
C1323 C299 1.670 . S
C1325 C46 1.684 . S
C1334 C319 1.669 . S
C1336 C386 1.665 . S
C1345 C579 1.494 . S
C1347 C326 1.565 . S
C1356 C276 1.672 . S
C1358 C348 1.661 . S
C1367 C368 1.678 . S
C1369 C616 1.680 . S
C1378 C316 1.655 . S
C1380 C388 1.663 . S
C1389 C406 1.564 . S
C1391 C499 1.498 . S
C1400 C428 1.664 . S
C1402 C196 1.655 . S
C1411 C536 1.683 . S
C1413 C448 1.674 . S
C1422 C236 1.672 . S
C1424 C468 1.661 . S
C1433 C496 1.557 . S
C1435 C408 1.504 1_556 S
C1444 C519 1.661 . S
C1446 C106 1.671 . S
C1455 C539 1.678 . S
C1457 C446 1.679 . S
C1466 C559 1.659 . S
C1468 C146 1.660 . S
C1477 C328 1.505 . S
C1479 C576 1.558 . S
C1488 C26 1.663 . S
C1490 C599 1.657 . S
C1499 C619 1.678 . S
C1501 C366 1.679 . S
C1510 C66 1.672 . S
C1512 C639 1.662 . S
C1521 C99 2.252 . S
C1523 C19 2.256 1_556 S
C1532 C116 1.742 1_554 S
C1534 C36 1.740 . S
C1543 C56 1.743 . S
C1545 C136 1.747 . S
C1554 C156 1.736 . S
C1556 C76 1.743 . S
C1565 C248 2.257 . S
C1567 C168 2.253 . S
C1576 C186 1.741 . S
C1578 C266 1.739 . S
C1587 C206 1.748 . S
C1589 C286 1.743 1_556 S
C1598 C306 1.741 . S
C1600 C226 1.739 . S
C1609 C339 2.252 . S
C1611 C419 2.256 . S
C1620 C436 1.744 . S
C1622 C356 1.737 . S
C1631 C376 1.747 1_556 S
C1633 C456 1.743 . S
C1642 C396 1.743 . S
C1644 C476 1.737 . S
C1653 C568 2.255 1_556 S
C1655 C488 2.256 . S
C1664 C586 1.740 . S
C1666 C506 1.739 . S
C1675 C526 1.743 . S
C1677 C606 1.748 . S
C1686 C626 1.737 . S
C1688 C546 1.744 1_554 S
