# Generated by pormake.
# Topology yfq, (5)-cn, num edge types: 1
# Building blocks:
#     Node 0, Type 0, BuildingBlock: BEQFEK_clean_sbu_0, # of connection points: 5
#     Node 1, Type 0, BuildingBlock: BEQFEK_clean_sbu_0, # of connection points: 5
#     Node 2, Type 0, BuildingBlock: BEQFEK_clean_sbu_0, # of connection points: 5
#     Node 3, Type 0, BuildingBlock: BEQFEK_clean_sbu_0, # of connection points: 5
#     Node 4, Type 0, BuildingBlock: BEQFEK_clean_sbu_0, # of connection points: 5
#     Node 5, Type 0, BuildingBlock: BEQFEK_clean_sbu_0, # of connection points: 5
#     Node 6, Type 0, BuildingBlock: BEQFEK_clean_sbu_0, # of connection points: 5
#     Node 7, Type 0, BuildingBlock: BEQFEK_clean_sbu_0, # of connection points: 5
#     Node 8, Type 0, BuildingBlock: BEQFEK_clean_sbu_0, # of connection points: 5
#     Node 9, Type 0, BuildingBlock: BEQFEK_clean_sbu_0, # of connection points: 5
#     Node 10, Type 0, BuildingBlock: BEQFEK_clean_sbu_0, # of connection points: 5
#     Node 11, Type 0, BuildingBlock: BEQFEK_clean_sbu_0, # of connection points: 5
#     Node 12, Type 0, BuildingBlock: BEQFEK_clean_sbu_0, # of connection points: 5
#     Node 13, Type 0, BuildingBlock: BEQFEK_clean_sbu_0, # of connection points: 5
#     Node 14, Type 0, BuildingBlock: BEQFEK_clean_sbu_0, # of connection points: 5
#     Node 15, Type 0, BuildingBlock: BEQFEK_clean_sbu_0, # of connection points: 5
#     Node 16, Type 0, BuildingBlock: BEQFEK_clean_sbu_0, # of connection points: 5
#     Node 17, Type 0, BuildingBlock: BEQFEK_clean_sbu_0, # of connection points: 5
#     Node 18, Type 0, BuildingBlock: BEQFEK_clean_sbu_0, # of connection points: 5
#     Node 19, Type 0, BuildingBlock: BEQFEK_clean_sbu_0, # of connection points: 5
#     Node 20, Type 0, BuildingBlock: BEQFEK_clean_sbu_0, # of connection points: 5
#     Node 21, Type 0, BuildingBlock: BEQFEK_clean_sbu_0, # of connection points: 5
#     Node 22, Type 0, BuildingBlock: BEQFEK_clean_sbu_0, # of connection points: 5
#     Node 23, Type 0, BuildingBlock: BEQFEK_clean_sbu_0, # of connection points: 5
#     Node 24, Type 0, BuildingBlock: BEQFEK_clean_sbu_0, # of connection points: 5
#     Node 25, Type 0, BuildingBlock: BEQFEK_clean_sbu_0, # of connection points: 5
#     Node 26, Type 0, BuildingBlock: BEQFEK_clean_sbu_0, # of connection points: 5
#     Node 27, Type 0, BuildingBlock: BEQFEK_clean_sbu_0, # of connection points: 5
#     Node 28, Type 0, BuildingBlock: BEQFEK_clean_sbu_0, # of connection points: 5
#     Node 29, Type 0, BuildingBlock: BEQFEK_clean_sbu_0, # of connection points: 5
#     Node 30, Type 0, BuildingBlock: BEQFEK_clean_sbu_0, # of connection points: 5
#     Node 31, Type 0, BuildingBlock: BEQFEK_clean_sbu_0, # of connection points: 5
#     Edge 32, Type (0, 0), BuildingBlock: EZIPEK_clean_linker_0, # of connection points: 2
#     Edge 33, Type (0, 0), BuildingBlock: EZIPEK_clean_linker_0, # of connection points: 2
#     Edge 34, Type (0, 0), BuildingBlock: EZIPEK_clean_linker_0, # of connection points: 2
#     Edge 35, Type (0, 0), BuildingBlock: EZIPEK_clean_linker_0, # of connection points: 2
#     Edge 36, Type (0, 0), BuildingBlock: EZIPEK_clean_linker_0, # of connection points: 2
#     Edge 37, Type (0, 0), BuildingBlock: EZIPEK_clean_linker_0, # of connection points: 2
#     Edge 38, Type (0, 0), BuildingBlock: EZIPEK_clean_linker_0, # of connection points: 2
#     Edge 39, Type (0, 0), BuildingBlock: EZIPEK_clean_linker_0, # of connection points: 2
#     Edge 40, Type (0, 0), BuildingBlock: EZIPEK_clean_linker_0, # of connection points: 2
#     Edge 41, Type (0, 0), BuildingBlock: EZIPEK_clean_linker_0, # of connection points: 2
#     Edge 42, Type (0, 0), BuildingBlock: EZIPEK_clean_linker_0, # of connection points: 2
#     Edge 43, Type (0, 0), BuildingBlock: EZIPEK_clean_linker_0, # of connection points: 2
#     Edge 44, Type (0, 0), BuildingBlock: EZIPEK_clean_linker_0, # of connection points: 2
#     Edge 45, Type (0, 0), BuildingBlock: EZIPEK_clean_linker_0, # of connection points: 2
#     Edge 46, Type (0, 0), BuildingBlock: EZIPEK_clean_linker_0, # of connection points: 2
#     Edge 47, Type (0, 0), BuildingBlock: EZIPEK_clean_linker_0, # of connection points: 2
#     Edge 48, Type (0, 0), BuildingBlock: EZIPEK_clean_linker_0, # of connection points: 2
#     Edge 49, Type (0, 0), BuildingBlock: EZIPEK_clean_linker_0, # of connection points: 2
#     Edge 50, Type (0, 0), BuildingBlock: EZIPEK_clean_linker_0, # of connection points: 2
#     Edge 51, Type (0, 0), BuildingBlock: EZIPEK_clean_linker_0, # of connection points: 2
#     Edge 52, Type (0, 0), BuildingBlock: EZIPEK_clean_linker_0, # of connection points: 2
#     Edge 53, Type (0, 0), BuildingBlock: EZIPEK_clean_linker_0, # of connection points: 2
#     Edge 54, Type (0, 0), BuildingBlock: EZIPEK_clean_linker_0, # of connection points: 2
#     Edge 55, Type (0, 0), BuildingBlock: EZIPEK_clean_linker_0, # of connection points: 2
#     Edge 56, Type (0, 0), BuildingBlock: EZIPEK_clean_linker_0, # of connection points: 2
#     Edge 57, Type (0, 0), BuildingBlock: EZIPEK_clean_linker_0, # of connection points: 2
#     Edge 58, Type (0, 0), BuildingBlock: EZIPEK_clean_linker_0, # of connection points: 2
#     Edge 59, Type (0, 0), BuildingBlock: EZIPEK_clean_linker_0, # of connection points: 2
#     Edge 60, Type (0, 0), BuildingBlock: EZIPEK_clean_linker_0, # of connection points: 2
#     Edge 61, Type (0, 0), BuildingBlock: EZIPEK_clean_linker_0, # of connection points: 2
#     Edge 62, Type (0, 0), BuildingBlock: EZIPEK_clean_linker_0, # of connection points: 2
#     Edge 63, Type (0, 0), BuildingBlock: EZIPEK_clean_linker_0, # of connection points: 2
#     Edge 64, Type (0, 0), BuildingBlock: EZIPEK_clean_linker_0, # of connection points: 2
#     Edge 65, Type (0, 0), BuildingBlock: EZIPEK_clean_linker_0, # of connection points: 2
#     Edge 66, Type (0, 0), BuildingBlock: EZIPEK_clean_linker_0, # of connection points: 2
#     Edge 67, Type (0, 0), BuildingBlock: EZIPEK_clean_linker_0, # of connection points: 2
#     Edge 68, Type (0, 0), BuildingBlock: EZIPEK_clean_linker_0, # of connection points: 2
#     Edge 69, Type (0, 0), BuildingBlock: EZIPEK_clean_linker_0, # of connection points: 2
#     Edge 70, Type (0, 0), BuildingBlock: EZIPEK_clean_linker_0, # of connection points: 2
#     Edge 71, Type (0, 0), BuildingBlock: EZIPEK_clean_linker_0, # of connection points: 2
#     Edge 72, Type (0, 0), BuildingBlock: EZIPEK_clean_linker_0, # of connection points: 2
#     Edge 73, Type (0, 0), BuildingBlock: EZIPEK_clean_linker_0, # of connection points: 2
#     Edge 74, Type (0, 0), BuildingBlock: EZIPEK_clean_linker_0, # of connection points: 2
#     Edge 75, Type (0, 0), BuildingBlock: EZIPEK_clean_linker_0, # of connection points: 2
#     Edge 76, Type (0, 0), BuildingBlock: EZIPEK_clean_linker_0, # of connection points: 2
#     Edge 77, Type (0, 0), BuildingBlock: EZIPEK_clean_linker_0, # of connection points: 2
#     Edge 78, Type (0, 0), BuildingBlock: EZIPEK_clean_linker_0, # of connection points: 2
#     Edge 79, Type (0, 0), BuildingBlock: EZIPEK_clean_linker_0, # of connection points: 2
#     Edge 80, Type (0, 0), BuildingBlock: EZIPEK_clean_linker_0, # of connection points: 2
#     Edge 81, Type (0, 0), BuildingBlock: EZIPEK_clean_linker_0, # of connection points: 2
#     Edge 82, Type (0, 0), BuildingBlock: EZIPEK_clean_linker_0, # of connection points: 2
#     Edge 83, Type (0, 0), BuildingBlock: EZIPEK_clean_linker_0, # of connection points: 2
#     Edge 84, Type (0, 0), BuildingBlock: EZIPEK_clean_linker_0, # of connection points: 2
#     Edge 85, Type (0, 0), BuildingBlock: EZIPEK_clean_linker_0, # of connection points: 2
#     Edge 86, Type (0, 0), BuildingBlock: EZIPEK_clean_linker_0, # of connection points: 2
#     Edge 87, Type (0, 0), BuildingBlock: EZIPEK_clean_linker_0, # of connection points: 2
#     Edge 88, Type (0, 0), BuildingBlock: EZIPEK_clean_linker_0, # of connection points: 2
#     Edge 89, Type (0, 0), BuildingBlock: EZIPEK_clean_linker_0, # of connection points: 2
#     Edge 90, Type (0, 0), BuildingBlock: EZIPEK_clean_linker_0, # of connection points: 2
#     Edge 91, Type (0, 0), BuildingBlock: EZIPEK_clean_linker_0, # of connection points: 2
#     Edge 92, Type (0, 0), BuildingBlock: EZIPEK_clean_linker_0, # of connection points: 2
#     Edge 93, Type (0, 0), BuildingBlock: EZIPEK_clean_linker_0, # of connection points: 2
#     Edge 94, Type (0, 0), BuildingBlock: EZIPEK_clean_linker_0, # of connection points: 2
#     Edge 95, Type (0, 0), BuildingBlock: EZIPEK_clean_linker_0, # of connection points: 2
#     Edge 96, Type (0, 0), BuildingBlock: EZIPEK_clean_linker_0, # of connection points: 2
#     Edge 97, Type (0, 0), BuildingBlock: EZIPEK_clean_linker_0, # of connection points: 2
#     Edge 98, Type (0, 0), BuildingBlock: EZIPEK_clean_linker_0, # of connection points: 2
#     Edge 99, Type (0, 0), BuildingBlock: EZIPEK_clean_linker_0, # of connection points: 2
#     Edge 100, Type (0, 0), BuildingBlock: EZIPEK_clean_linker_0, # of connection points: 2
#     Edge 101, Type (0, 0), BuildingBlock: EZIPEK_clean_linker_0, # of connection points: 2
#     Edge 102, Type (0, 0), BuildingBlock: EZIPEK_clean_linker_0, # of connection points: 2
#     Edge 103, Type (0, 0), BuildingBlock: EZIPEK_clean_linker_0, # of connection points: 2
#     Edge 104, Type (0, 0), BuildingBlock: EZIPEK_clean_linker_0, # of connection points: 2
#     Edge 105, Type (0, 0), BuildingBlock: EZIPEK_clean_linker_0, # of connection points: 2
#     Edge 106, Type (0, 0), BuildingBlock: EZIPEK_clean_linker_0, # of connection points: 2
#     Edge 107, Type (0, 0), BuildingBlock: EZIPEK_clean_linker_0, # of connection points: 2
#     Edge 108, Type (0, 0), BuildingBlock: EZIPEK_clean_linker_0, # of connection points: 2
#     Edge 109, Type (0, 0), BuildingBlock: EZIPEK_clean_linker_0, # of connection points: 2
#     Edge 110, Type (0, 0), BuildingBlock: EZIPEK_clean_linker_0, # of connection points: 2
#     Edge 111, Type (0, 0), BuildingBlock: EZIPEK_clean_linker_0, # of connection points: 2
# Relax obj value: 0.343
# Max RMSD: 0.208
# Mean RMSD: 0.208
data_MOF--net-yfq--node1-BEQFEK_clean_sbu_0--edge1-EZIPEK_clean_linker_0
_symmetry_space_group_name_H-M    P1
_symmetry_Int_Tables_number       1
_symmetry_cell_setting            triclinic
loop_
_symmetry_equiv_pos_as_xyz
'x, y, z'
_cell_length_a     43.108371
_cell_length_b     43.034369
_cell_length_c     49.009887
_cell_angle_alpha  90.008864
_cell_angle_beta   90.018874
_cell_angle_gamma 90.034139
loop_
_atom_site_label
_atom_site_type_symbol
_atom_site_fract_x
_atom_site_fract_y
_atom_site_fract_z
_atom_type_partial_charge
Co0 Co 0.11344 0.2181 0.3122 0.0
Co1 Co 0.10572 0.17146 0.26255 0.0
C2 C 0.06094 0.22408 0.27426 0.0
O3 O 0.07785 0.23581 0.29293 0.0
O4 O 0.06892 0.19967 0.26129 0.0
C5 C 0.11267 0.26935 0.34965 0.0
O6 O 0.0912 0.28023 0.33323 0.0
C7 C 0.10339 0.15853 0.20365 0.0
C8 C 0.11342 0.10827 0.20177 0.0
C9 C 0.10729 0.13399 0.18565 0.0
N10 N 0.10715 0.14793 0.22927 0.0
N11 N 0.11312 0.11783 0.22798 0.0
C12 C 0.09575 0.19144 0.19666 0.0
H13 H 0.10252 0.20715 0.21361 0.0
H14 H 0.10758 0.19861 0.17758 0.0
H15 H 0.07038 0.19335 0.19327 0.0
C16 C 0.17333 0.22761 0.2877 0.0
N17 N 0.14617 0.21254 0.2886 0.0
N18 N 0.14383 0.1935 0.26768 0.0
C19 C 0.17013 0.19577 0.25288 0.0
C20 C 0.18924 0.21756 0.26507 0.0
C21 C 0.1827 0.25289 0.307 0.0
H22 H 0.18416 0.24329 0.32796 0.0
H23 H 0.16476 0.27135 0.3069 0.0
H24 H 0.20547 0.26316 0.30147 0.0
O25 O 0.09916 0.17867 0.32707 0.0
O26 O 0.09641 0.14342 0.29394 0.0
H27 H 0.16822 0.15518 0.22761 0.0
H28 H 0.201 0.18041 0.22102 0.0
C29 C 0.17601 0.17968 0.22644 0.0
H30 H 0.16275 0.1918 0.21027 0.0
H31 H 0.11719 0.10383 0.245 0.0
O32 O 0.12607 0.24394 0.3439 0.0
C33 C 0.09315 0.15133 0.31885 0.0
Co34 Co 0.02269 0.86342 0.56323 0.0
Co35 Co 0.06971 0.85481 0.51427 0.0
C36 C 0.01664 0.81047 0.52531 0.0
O37 O 0.00528 0.82725 0.54426 0.0
O38 O 0.04099 0.8184 0.51228 0.0
C39 C 0.97057 0.86462 0.59958 0.0
O40 O 0.95911 0.84359 0.58297 0.0
C41 C 0.08384 0.85347 0.45575 0.0
C42 C 0.13435 0.86205 0.4549 0.0
C43 C 0.1088 0.85729 0.43827 0.0
N44 N 0.09404 0.85605 0.48159 0.0
N45 N 0.12429 0.86109 0.48094 0.0
C46 C 0.05086 0.84721 0.44809 0.0
H47 H 0.03509 0.85377 0.46503 0.0
H48 H 0.04449 0.8601 0.4293 0.0
H49 H 0.04811 0.82202 0.44388 0.0
C50 C 0.01489 0.92381 0.53871 0.0
N51 N 0.0289 0.89603 0.53953 0.0
N52 N 0.04831 0.89335 0.51896 0.0
C53 C 0.0473 0.91997 0.50443 0.0
C54 C 0.02605 0.93972 0.51647 0.0
C55 C 0.98977 0.93397 0.55778 0.0
H56 H 0.97083 0.91652 0.55759 0.0
H57 H 0.98023 0.95702 0.55208 0.0
H58 H -0.00081 0.93526 0.57881 0.0
O59 O 0.06162 0.8493 0.57896 0.0
O60 O 0.0969 0.84509 0.54608 0.0
H61 H 0.06508 0.95116 0.47378 0.0
H62 H 0.05254 0.91368 0.46184 0.0
C63 C 0.06459 0.92597 0.47864 0.0
H64 H 0.08866 0.91719 0.48035 0.0
H65 H 0.13802 0.86423 0.49827 0.0
O66 O -0.00336 0.87686 0.59432 0.0
C67 C 0.08885 0.8426 0.57102 0.0
Co68 Co 0.37987 0.75905 0.79836 0.0
Co69 Co 0.3827 0.80931 0.75125 0.0
C70 C 0.42903 0.75872 0.75457 0.0
O71 O 0.41676 0.74797 0.77623 0.0
O72 O 0.41706 0.78127 0.74164 0.0
C73 C 0.37324 0.69849 0.82517 0.0
O74 O 0.37242 0.68586 0.80078 0.0
C75 C 0.38108 0.82797 0.6937 0.0
C76 C 0.36486 0.87655 0.69501 0.0
C77 C 0.37343 0.85302 0.67717 0.0
N78 N 0.37717 0.83618 0.72002 0.0
N79 N 0.36759 0.86535 0.72064 0.0
C80 C 0.39222 0.79664 0.68474 0.0
H81 H 0.41747 0.7949 0.68882 0.0
H82 H 0.38033 0.77828 0.69673 0.0
H83 H 0.38836 0.79272 0.66266 0.0
C84 C 0.31627 0.75309 0.77951 0.0
N85 N 0.34466 0.7657 0.77787 0.0
N86 N 0.34513 0.78698 0.75854 0.0
C87 C 0.31674 0.78813 0.74706 0.0
C88 C 0.29796 0.76662 0.75991 0.0
C89 C 0.30662 0.7287 0.79953 0.0
H90 H 0.31566 0.70588 0.79275 0.0
H91 H 0.28098 0.72703 0.80099 0.0
H92 H 0.31622 0.73411 0.81996 0.0
O93 O 0.38992 0.79715 0.81744 0.0
O94 O 0.39928 0.83187 0.78469 0.0
H95 H 0.283 0.8062 0.71858 0.0
H96 H 0.32165 0.80001 0.70553 0.0
C97 C 0.30811 0.80797 0.72334 0.0
H98 H 0.31412 0.83251 0.72767 0.0
H99 H 0.36248 0.87748 0.73852 0.0
O100 O 0.37496 0.7278 0.82752 0.0
C101 C 0.40013 0.8234 0.80975 0.0
Co102 Co 0.47673 0.12438 0.06736 0.0
Co103 Co 0.4316 0.13876 0.01899 0.0
C104 C 0.48071 0.18149 0.02922 0.0
O105 O 0.48704 0.16542 0.05039 0.0
O106 O 0.46073 0.17245 0.01194 0.0
C107 C 0.5376 0.10973 0.0921 0.0
O108 O 0.54791 0.10382 0.06745 0.0
C109 C 0.40891 0.14361 0.96286 0.0
C110 C 0.35928 0.13162 0.96623 0.0
C111 C 0.38223 0.13923 0.9476 0.0
N112 N 0.40226 0.13869 0.98935 0.0
N113 N 0.37244 0.13175 0.99125 0.0
C114 C 0.44037 0.15214 0.95235 0.0
H115 H 0.45871 0.14202 0.9655 0.0
H116 H 0.44351 0.14421 0.93098 0.0
H117 H 0.44282 0.1778 0.95282 0.0
C118 C 0.48371 0.06525 0.03906 0.0
N119 N 0.47191 0.09395 0.04136 0.0
N120 N 0.45307 0.09953 0.02074 0.0
C121 C 0.4536 0.07459 0.00405 0.0
C122 C 0.47318 0.05262 0.01516 0.0
C123 C 0.50299 0.04901 0.05997 0.0
H124 H 0.49925 0.05952 0.08023 0.0
H125 H 0.52778 0.05037 0.05411 0.0
H126 H 0.49672 0.024 0.06092 0.0
O127 O 0.43747 0.12652 0.08658 0.0
O128 O 0.41259 0.15333 0.05486 0.0
H129 H 0.41128 0.07796 0.98181 0.0
H130 H 0.43658 0.04712 0.97039 0.0
C131 C 0.43575 0.07134 0.97817 0.0
H132 H 0.44584 0.08692 0.96253 0.0
H133 H 0.36123 0.12643 0.00953 0.0
O134 O 0.50915 0.11655 0.09544 0.0
C135 C 0.41703 0.14616 0.0799 0.0
Co136 Co 0.11232 0.77481 0.19136 0.0
Co137 Co 0.1044 0.81784 0.24324 0.0
C138 C 0.06371 0.76299 0.23331 0.0
O139 O 0.08087 0.75382 0.21381 0.0
O140 O 0.06977 0.78766 0.24661 0.0
C141 C 0.12877 0.71823 0.16357 0.0
O142 O 0.1379 0.70916 0.18785 0.0
C143 C 0.10167 0.83251 0.30202 0.0
C144 C 0.12198 0.87959 0.3035 0.0
C145 C 0.11047 0.85597 0.31984 0.0
N146 N 0.10793 0.84164 0.27633 0.0
N147 N 0.11983 0.86995 0.27738 0.0
C148 C 0.0876 0.80184 0.30916 0.0
H149 H 0.1001 0.78304 0.29826 0.0
H150 H 0.08807 0.79745 0.33145 0.0
H151 H 0.06314 0.80162 0.30213 0.0
C152 C 0.17683 0.77474 0.20965 0.0
N153 N 0.14732 0.78432 0.21177 0.0
N154 N 0.14339 0.79853 0.23531 0.0
C155 C 0.17006 0.79649 0.24955 0.0
C156 C 0.19177 0.78124 0.23373 0.0
C157 C 0.19077 0.75908 0.18541 0.0
H158 H 0.17723 0.76473 0.16693 0.0
H159 H 0.19147 0.73363 0.18877 0.0
H160 H 0.21509 0.76699 0.18262 0.0
O161 O 0.09378 0.81287 0.17754 0.0
O162 O 0.09113 0.84578 0.21266 0.0
H163 H 0.16989 0.83074 0.28102 0.0
H164 H 0.19719 0.79961 0.28657 0.0
C165 C 0.17373 0.80543 0.27874 0.0
H166 H 0.15607 0.79281 0.29084 0.0
H167 H 0.12723 0.88238 0.2603 0.0
O168 O 0.11966 0.7461 0.16028 0.0
C169 C 0.08678 0.8392 0.18753 0.0
Co170 Co 0.46864 0.86373 0.43674 0.0
Co171 Co 0.41794 0.85578 0.48286 0.0
C172 C 0.47174 0.81072 0.47345 0.0
O173 O 0.48569 0.82842 0.45662 0.0
O174 O 0.44591 0.81833 0.48432 0.0
C175 C 0.52017 0.86339 0.39959 0.0
O176 O 0.53 0.84012 0.41459 0.0
C177 C 0.40217 0.8541 0.54142 0.0
C178 C 0.3516 0.86208 0.5412 0.0
C179 C 0.37668 0.85753 0.55844 0.0
N180 N 0.3927 0.85661 0.51532 0.0
N181 N 0.36239 0.86133 0.51537 0.0
C182 C 0.43499 0.84826 0.5498 0.0
H183 H 0.45102 0.85261 0.5325 0.0
H184 H 0.4414 0.86325 0.56733 0.0
H185 H 0.43725 0.82373 0.55648 0.0
C186 C 0.47645 0.92346 0.46226 0.0
N187 N 0.46142 0.8963 0.46019 0.0
N188 N 0.44039 0.89403 0.47953 0.0
C189 C 0.44108 0.92052 0.49428 0.0
C190 C 0.46408 0.93958 0.48388 0.0
C191 C 0.50361 0.93268 0.44505 0.0
H192 H 0.4958 0.93589 0.42367 0.0
H193 H 0.52113 0.91381 0.44531 0.0
H194 H 0.5144 0.95459 0.45231 0.0
O195 O 0.4304 0.8489 0.41993 0.0
O196 O 0.39166 0.84817 0.44984 0.0
H197 H 0.39829 0.91761 0.51642 0.0
H198 H 0.42101 0.95212 0.52339 0.0
C199 C 0.42209 0.92682 0.51906 0.0
H200 H 0.43333 0.9152 0.53663 0.0
H201 H 0.3491 0.86437 0.49778 0.0
O202 O 0.49543 0.87744 0.40613 0.0
C203 C 0.40218 0.84367 0.42581 0.0
Co204 Co 0.38885 0.21455 0.69647 0.0
Co205 Co 0.38934 0.17627 0.75206 0.0
C206 C 0.43659 0.22394 0.7411 0.0
O207 O 0.42442 0.22992 0.71803 0.0
O208 O 0.42494 0.20417 0.75741 0.0
C209 C 0.37631 0.27132 0.66749 0.0
O210 O 0.368 0.28112 0.69181 0.0
C211 C 0.3879 0.16355 0.81123 0.0
C212 C 0.36224 0.11917 0.81307 0.0
C213 C 0.37602 0.1417 0.82925 0.0
N214 N 0.38122 0.15453 0.78558 0.0
N215 N 0.36601 0.12788 0.78686 0.0
C216 C 0.4054 0.19252 0.81817 0.0
H217 H 0.42983 0.18988 0.81144 0.0
H218 H 0.39531 0.2125 0.80694 0.0
H219 H 0.4051 0.19728 0.84042 0.0
C220 C 0.32384 0.22247 0.71227 0.0
N221 N 0.35258 0.21185 0.71714 0.0
N222 N 0.35347 0.1991 0.74155 0.0
C223 C 0.32575 0.20343 0.75367 0.0
C224 C 0.30638 0.21825 0.73537 0.0
C225 C 0.31204 0.2329 0.68516 0.0
H226 H 0.32536 0.22099 0.669 0.0
H227 H 0.31431 0.25844 0.68327 0.0
H228 H 0.2871 0.2271 0.68277 0.0
O229 O 0.39994 0.17342 0.68434 0.0
O230 O 0.402 0.14562 0.72278 0.0
H231 H 0.31716 0.16866 0.78377 0.0
H232 H 0.29539 0.20398 0.78878 0.0
C233 C 0.31809 0.19434 0.78228 0.0
H234 H 0.33657 0.20295 0.79604 0.0
H235 H 0.35776 0.11588 0.76983 0.0
O236 O 0.38473 0.24317 0.66457 0.0
C237 C 0.40511 0.1481 0.69691 0.0
Co238 Co 0.01914 0.13008 0.93859 0.0
Co239 Co 0.06222 0.13722 0.99084 0.0
C240 C 0.01423 0.18419 0.97727 0.0
O241 O 0.00456 0.1673 0.95773 0.0
O242 O 0.03683 0.17579 0.9923 0.0
C243 C 0.96045 0.11698 0.91284 0.0
O244 O 0.9512 0.11152 0.93792 0.0
C245 C 0.07741 0.13987 0.04967 0.0
C246 C 0.12464 0.12006 0.05066 0.0
C247 C 0.10128 0.13156 0.06724 0.0
N248 N 0.08613 0.13342 0.0239 0.0
N249 N 0.11449 0.12173 0.02467 0.0
C250 C 0.04687 0.15389 0.05713 0.0
H251 H 0.02856 0.14529 0.04312 0.0
H252 H 0.04055 0.14866 0.07858 0.0
H253 H 0.0485 0.17948 0.05478 0.0
C254 C 0.01097 0.06799 0.9611 0.0
N255 N 0.02283 0.09677 0.96229 0.0
N256 N 0.03765 0.10053 0.98558 0.0
C257 C 0.0339 0.07448 1.00053 0.0
C258 C 0.01687 0.05344 0.9854 0.0
C259 C -0.00331 0.0535 0.93644 0.0
H260 H 0.00592 0.06493 0.91795 0.0
H261 H 0.97112 0.05576 0.93736 0.0
H262 H 0.00217 0.02832 0.93557 0.0
O263 O 0.05959 0.13951 0.92336 0.0
O264 O 0.09128 0.14331 0.95915 0.0
H265 H 0.07099 0.07299 0.02933 0.0
H266 H 0.03965 0.04642 0.03673 0.0
C267 C 0.04548 0.0699 0.02888 0.0
H268 H 0.03465 0.08763 0.04219 0.0
H269 H 0.12672 0.11437 0.00748 0.0
O270 O 0.98888 0.12317 0.90845 0.0
C271 C 0.08638 0.14422 0.93345 0.0
Co272 Co 0.88328 0.77999 0.68947 0.0
Co273 Co 0.88312 0.8207 0.74361 0.0
C274 C 0.92977 0.77175 0.73505 0.0
O275 O 0.91806 0.76476 0.71201 0.0
O276 O 0.91818 0.79263 0.75024 0.0
C277 C 0.87284 0.72199 0.66179 0.0
O278 O 0.8651 0.71252 0.68634 0.0
C279 C 0.88113 0.8346 0.80233 0.0
C280 C 0.85772 0.88022 0.8034 0.0
C281 C 0.87022 0.85732 0.81994 0.0
N282 N 0.8752 0.84351 0.77653 0.0
N283 N 0.86134 0.8709 0.77732 0.0
C284 C 0.89712 0.80495 0.80983 0.0
H285 H 0.92203 0.80686 0.8044 0.0
H286 H 0.88714 0.78541 0.79793 0.0
H287 H 0.89524 0.79997 0.83197 0.0
C288 C 0.81829 0.77151 0.70551 0.0
N289 N 0.84661 0.78362 0.7096 0.0
N290 N 0.84723 0.79772 0.73346 0.0
C291 C 0.81979 0.79299 0.74597 0.0
C292 C 0.80089 0.77626 0.72856 0.0
C293 C 0.80703 0.75773 0.67941 0.0
H294 H 0.81993 0.76835 0.66233 0.0
H295 H 0.81024 0.73221 0.67967 0.0
H296 H 0.7819 0.76229 0.6766 0.0
O297 O 0.89516 0.82059 0.67636 0.0
O298 O 0.89641 0.85016 0.71377 0.0
H299 H 0.81324 0.82817 0.77615 0.0
H300 H 0.78903 0.79434 0.78082 0.0
C301 C 0.81239 0.80251 0.77452 0.0
H302 H 0.83007 0.79258 0.78841 0.0
H303 H 0.85394 0.88302 0.76007 0.0
O304 O 0.87987 0.75043 0.65821 0.0
C305 C 0.90014 0.84647 0.6881 0.0
Co306 Co 0.9634 0.13493 0.4432 0.0
Co307 Co 0.91823 0.13418 0.49435 0.0
C308 C 0.96539 0.18458 0.48542 0.0
O309 O 0.97581 0.1721 0.46372 0.0
O310 O 0.94379 0.17225 0.49949 0.0
C311 C 0.01779 0.14004 0.40905 0.0
O312 O 0.028 0.15917 0.42791 0.0
C313 C 0.90401 0.13233 0.55295 0.0
C314 C 0.85709 0.11167 0.55373 0.0
C315 C 0.88057 0.12274 0.57045 0.0
N316 N 0.89488 0.12709 0.5271 0.0
N317 N 0.86675 0.11485 0.52771 0.0
C318 C 0.93448 0.14663 0.56046 0.0
H319 H 0.93336 0.17199 0.55648 0.0
H320 H 0.95313 0.13685 0.54742 0.0
H321 H 0.9401 0.14297 0.5823 0.0
C322 C 0.97897 0.07381 0.46395 0.0
N323 N 0.96237 0.10012 0.46538 0.0
N324 N 0.94368 0.09903 0.4866 0.0
C325 C 0.94801 0.07162 0.49936 0.0
C326 C 0.97049 0.05511 0.48541 0.0
C327 C 0.00327 0.06715 0.44298 0.0
H328 H 0.02153 0.08519 0.44421 0.0
H329 H 0.01398 0.04396 0.44601 0.0
H330 H 0.99273 0.06811 0.42234 0.0
O331 O 0.92236 0.14318 0.42862 0.0
O332 O 0.88924 0.14327 0.46348 0.0
H333 H 0.93767 0.03755 0.53044 0.0
H334 H 0.94211 0.07713 0.54189 0.0
C335 C 0.93281 0.06222 0.5254 0.0
H336 H 0.90742 0.06576 0.52394 0.0
H337 H 0.85429 0.10832 0.51038 0.0
O338 O 0.9914 0.12733 0.41183 0.0
C339 C 0.89513 0.14636 0.43813 0.0
Co340 Co 0.60329 0.22052 0.19526 0.0
Co341 Co 0.59939 0.17295 0.24441 0.0
C342 C 0.55024 0.22151 0.23334 0.0
O343 O 0.56483 0.2335 0.21335 0.0
O344 O 0.56092 0.19851 0.24676 0.0
C345 C 0.61479 0.27805 0.16633 0.0
O346 O 0.6029 0.29118 0.18815 0.0
C347 C 0.59855 0.15926 0.30304 0.0
C348 C 0.6103 0.10934 0.30444 0.0
C349 C 0.60356 0.13471 0.32081 0.0
N350 N 0.60229 0.149 0.27732 0.0
N351 N 0.60924 0.11909 0.2783 0.0
C352 C 0.58986 0.19187 0.31029 0.0
H353 H 0.59627 0.20801 0.29354 0.0
H354 H 0.60127 0.19912 0.32955 0.0
H355 H 0.56439 0.19303 0.31337 0.0
C356 C 0.66384 0.2332 0.22046 0.0
N357 N 0.6364 0.21829 0.21995 0.0
N358 N 0.63517 0.19849 0.24044 0.0
C359 C 0.66199 0.20035 0.25453 0.0
C360 C 0.68051 0.22252 0.24239 0.0
C361 C 0.67489 0.25636 0.19989 0.0
H362 H 0.67093 0.24728 0.17907 0.0
H363 H 0.66201 0.27837 0.20269 0.0
H364 H 0.69997 0.26149 0.20224 0.0
O365 O 0.59579 0.17977 0.17914 0.0
O366 O 0.59534 0.14453 0.21233 0.0
H367 H 0.66283 0.15711 0.2762 0.0
H368 H 0.69523 0.18256 0.28351 0.0
C369 C 0.66999 0.18161 0.2791 0.0
H370 H 0.65737 0.19157 0.29671 0.0
H371 H 0.61349 0.10539 0.26114 0.0
O372 O 0.6143 0.24862 0.16475 0.0
C373 C 0.59316 0.15181 0.18718 0.0
Co374 Co 0.5264 0.86345 0.9333 0.0
Co375 Co 0.57551 0.85721 0.98074 0.0
C376 C 0.52205 0.81221 0.97192 0.0
O377 O 0.50877 0.82965 0.95457 0.0
O378 O 0.54789 0.81972 0.98272 0.0
C379 C 0.47069 0.86534 0.90165 0.0
O380 O 0.45797 0.8542 0.92392 0.0
C381 C 0.58748 0.85836 0.03978 0.0
C382 C 0.63856 0.85985 0.04212 0.0
C383 C 0.61198 0.85922 0.058 0.0
N384 N 0.59885 0.85866 0.01419 0.0
N385 N 0.62946 0.85963 0.01576 0.0
C386 C 0.55379 0.85672 0.04677 0.0
H387 H 0.53927 0.85865 0.02815 0.0
H388 H 0.54776 0.87565 0.0612 0.0
H389 H 0.54905 0.83444 0.05737 0.0
C390 C 0.51856 0.92443 0.95588 0.0
N391 N 0.53314 0.89702 0.95542 0.0
N392 N 0.5533 0.89537 0.97557 0.0
C393 C 0.55244 0.92256 0.98926 0.0
C394 C 0.53016 0.94129 0.97734 0.0
C395 C 0.4924 0.93329 0.93737 0.0
H396 H 0.50015 0.93162 0.91585 0.0
H397 H 0.47289 0.91684 0.94035 0.0
H398 H 0.48414 0.95728 0.94137 0.0
O399 O 0.56547 0.84893 0.91736 0.0
O400 O 0.60291 0.84893 0.94874 0.0
H401 H 0.574 0.95598 0.01587 0.0
H402 H 0.55935 0.92174 0.03225 0.0
C403 C 0.57141 0.93042 0.01382 0.0
H404 H 0.59465 0.91956 0.01243 0.0
H405 H 0.64417 0.85991 0.99886 0.0
O406 O 0.49901 0.87343 0.90199 0.0
C407 C 0.59352 0.84447 0.92433 0.0
Co408 Co 0.8772 0.22003 0.80856 0.0
Co409 Co 0.88172 0.16812 0.76356 0.0
C410 C 0.93023 0.21892 0.77219 0.0
O411 O 0.91307 0.23438 0.78834 0.0
O412 O 0.92137 0.19306 0.76204 0.0
C413 C 0.8804 0.274 0.8431 0.0
O414 O 0.90304 0.2826 0.82685 0.0
C415 C 0.88169 0.15156 0.70551 0.0
C416 C 0.87418 0.10081 0.70631 0.0
C417 C 0.87828 0.12579 0.68885 0.0
N418 N 0.87967 0.14239 0.73168 0.0
N419 N 0.8752 0.11198 0.73202 0.0
C420 C 0.88705 0.18436 0.69666 0.0
H421 H 0.8857 0.20043 0.71433 0.0
H422 H 0.86963 0.19116 0.68111 0.0
H423 H 0.91025 0.18611 0.68698 0.0
C424 C 0.81785 0.23084 0.78347 0.0
N425 N 0.84438 0.21481 0.78513 0.0
N426 N 0.84523 0.19327 0.7661 0.0
C427 C 0.81834 0.19459 0.75201 0.0
C428 C 0.80061 0.21857 0.76251 0.0
C429 C 0.80965 0.25795 0.80118 0.0
H430 H 0.80702 0.24991 0.82256 0.0
H431 H 0.82874 0.27524 0.80058 0.0
H432 H 0.78774 0.2692 0.79459 0.0
O433 O 0.88867 0.1809 0.8262 0.0
O434 O 0.88592 0.1418 0.79669 0.0
H435 H 0.81896 0.15035 0.7318 0.0
H436 H 0.7842 0.17309 0.72608 0.0
C437 C 0.80977 0.17411 0.72866 0.0
H438 H 0.81986 0.18409 0.70982 0.0
H439 H 0.87268 0.09888 0.74979 0.0
O440 O 0.86584 0.24896 0.83834 0.0
C441 C 0.89103 0.15214 0.82064 0.0
Co442 Co 0.52297 0.12818 0.56916 0.0
Co443 Co 0.56565 0.13582 0.51686 0.0
C444 C 0.51387 0.18029 0.53019 0.0
O445 O 0.50447 0.16406 0.55033 0.0
O446 O 0.53684 0.17199 0.51551 0.0
C447 C 0.47251 0.12746 0.60738 0.0
O448 O 0.4598 0.14725 0.59033 0.0
C449 C 0.57784 0.13901 0.45767 0.0
C450 C 0.6261 0.12207 0.45499 0.0
C451 C 0.60131 0.13203 0.43926 0.0
N452 N 0.58819 0.13323 0.48309 0.0
N453 N 0.61714 0.12328 0.48132 0.0
C454 C 0.54618 0.15124 0.45142 0.0
H455 H 0.54573 0.17651 0.45592 0.0
H456 H 0.52881 0.13981 0.46478 0.0
H457 H 0.53997 0.14776 0.42967 0.0
C458 C 0.51302 0.06726 0.5461 0.0
N459 N 0.52746 0.09487 0.54582 0.0
N460 N 0.54436 0.0975 0.52359 0.0
C461 C 0.5409 0.07122 0.50888 0.0
C462 C 0.52093 0.05156 0.52269 0.0
C463 C 0.48973 0.05745 0.56701 0.0
H464 H 0.50076 0.05745 0.58746 0.0
H465 H 0.47039 0.0744 0.56726 0.0
H466 H 0.48035 0.03393 0.56273 0.0
O467 O 0.56288 0.14262 0.58248 0.0
O468 O 0.59489 0.1468 0.54709 0.0
H469 H 0.57844 0.07207 0.48036 0.0
H470 H 0.55018 0.0418 0.47414 0.0
C471 C 0.55344 0.06621 0.48091 0.0
H472 H 0.54074 0.08174 0.46679 0.0
H473 H 0.6306 0.11678 0.49807 0.0
O474 O 0.49872 0.11575 0.60176 0.0
C475 C 0.58915 0.14961 0.57251 0.0
Co476 Co 0.60496 0.77867 0.30873 0.0
Co477 Co 0.60082 0.8182 0.25372 0.0
C478 C 0.55423 0.77107 0.26573 0.0
O479 O 0.56781 0.76415 0.28805 0.0
O480 O 0.56474 0.79152 0.2495 0.0
C481 C 0.62033 0.72162 0.33733 0.0
O482 O 0.62971 0.71221 0.31322 0.0
C483 C 0.59805 0.83422 0.19471 0.0
C484 C 0.62989 0.87435 0.19252 0.0
C485 C 0.61182 0.85488 0.17656 0.0
N486 N 0.60787 0.8409 0.22019 0.0
N487 N 0.62663 0.86517 0.21867 0.0
C488 C 0.5763 0.80823 0.1879 0.0
H489 H 0.55349 0.81287 0.19755 0.0
H490 H 0.58523 0.78614 0.19649 0.0
H491 H 0.57306 0.8058 0.16554 0.0
C492 C 0.66872 0.76945 0.28824 0.0
N493 N 0.64 0.78151 0.28632 0.0
N494 N 0.63617 0.7934 0.26183 0.0
C495 C 0.66105 0.7863 0.24659 0.0
C496 C 0.68254 0.77121 0.26288 0.0
C497 C 0.68394 0.75939 0.3142 0.0
H498 H 0.67112 0.7688 0.33194 0.0
H499 H 0.68484 0.73371 0.31538 0.0
H500 H 0.70826 0.76789 0.31473 0.0
O501 O 0.59484 0.81955 0.32216 0.0
O502 O 0.59051 0.84811 0.28436 0.0
H503 H 0.66829 0.81586 0.21221 0.0
H504 H 0.68095 0.77636 0.20697 0.0
C505 C 0.66288 0.79115 0.21648 0.0
H506 H 0.64013 0.78535 0.20733 0.0
H507 H 0.63799 0.87489 0.23543 0.0
O508 O 0.61042 0.74932 0.34003 0.0
C509 C 0.58895 0.84514 0.31031 0.0
Co510 Co 0.96017 0.86258 0.06289 0.0
Co511 Co 0.9127 0.8554 0.01393 0.0
C512 C 0.96292 0.80847 0.02582 0.0
O513 O 0.97465 0.82516 0.04461 0.0
O514 O 0.93908 0.81709 0.01237 0.0
C515 C 0.0143 0.86175 0.09678 0.0
O516 O 0.02566 0.84373 0.07761 0.0
C517 C 0.89759 0.85435 0.95545 0.0
C518 C 0.84734 0.86434 0.95526 0.0
C519 C 0.8724 0.85866 0.93831 0.0
N520 N 0.888 0.85745 0.98142 0.0
N521 N 0.85789 0.86333 0.98116 0.0
C522 C 0.93022 0.84718 0.9473 0.0
H523 H 0.94639 0.852 0.96441 0.0
H524 H 0.93694 0.86101 0.92914 0.0
H525 H 0.93182 0.82224 0.94175 0.0
C526 C 0.97176 0.92157 0.03743 0.0
N527 N 0.95633 0.8946 0.03847 0.0
N528 N 0.93675 0.89265 0.01791 0.0
C529 C 0.93906 0.91906 0.00321 0.0
C530 C 0.9614 0.93775 0.0151 0.0
C531 C -0.00342 0.93112 0.05706 0.0
H532 H 0.98689 0.93167 0.07801 0.0
H533 H 0.01549 0.91368 0.05657 0.0
H534 H 0.00624 0.95434 0.05206 0.0
O535 O 0.92035 0.85247 0.07892 0.0
O536 O 0.88503 0.84864 0.04604 0.0
H537 H 0.89686 0.91847 0.98013 0.0
H538 H 0.92188 0.95132 0.97314 0.0
C539 C 0.92127 0.9261 0.97786 0.0
H540 H 0.93206 0.91337 0.96067 0.0
H541 H 0.84459 0.86696 0.99865 0.0
O542 O 0.98758 0.87361 0.09382 0.0
C543 C 0.89273 0.84739 0.07113 0.0
Co544 Co 0.60911 0.72209 0.80049 0.0
Co545 Co 0.60436 0.66836 0.75765 0.0
C546 C 0.5559 0.71967 0.76463 0.0
O547 O 0.57393 0.73641 0.77891 0.0
O548 O 0.56442 0.69264 0.75716 0.0
C549 C 0.61854 0.78091 0.8298 0.0
O550 O 0.60542 0.7942 0.8086 0.0
C551 C 0.6035 0.65498 0.699 0.0
C552 C 0.60694 0.60387 0.69725 0.0
C553 C 0.6048 0.63017 0.681 0.0
N554 N 0.60488 0.644 0.72471 0.0
N555 N 0.60694 0.61338 0.7235 0.0
C556 C 0.60069 0.68862 0.69176 0.0
H557 H 0.59939 0.70323 0.71039 0.0
H558 H 0.62095 0.6959 0.67938 0.0
H559 H 0.57972 0.69217 0.679 0.0
C560 C 0.6692 0.73136 0.77528 0.0
N561 N 0.6422 0.71611 0.77741 0.0
N562 N 0.64092 0.69375 0.7591 0.0
C563 C 0.66786 0.69384 0.74506 0.0
C564 C 0.68605 0.71787 0.75472 0.0
C565 C 0.67869 0.75857 0.79238 0.0
H566 H 0.6628 0.77826 0.7883 0.0
H567 H 0.70279 0.76608 0.78791 0.0
H568 H 0.67712 0.75228 0.81426 0.0
O569 O 0.59936 0.68282 0.81912 0.0
O570 O 0.60251 0.64224 0.79108 0.0
H571 H 0.66482 0.64906 0.72572 0.0
H572 H 0.70199 0.66825 0.72236 0.0
C573 C 0.67648 0.67175 0.72289 0.0
H574 H 0.66952 0.68213 0.70317 0.0
H575 H 0.60838 0.59896 0.74057 0.0
O576 O 0.62021 0.75148 0.83023 0.0
C577 C 0.59835 0.65366 0.81483 0.0
Co578 Co 0.52817 0.3612 0.0686 0.0
Co579 Co 0.57525 0.35572 0.019 0.0
C580 C 0.52507 0.30822 0.03112 0.0
O581 O 0.51209 0.32516 0.0491 0.0
O582 O 0.54947 0.31697 0.01853 0.0
C583 C 0.47482 0.36165 0.10444 0.0
O584 O 0.46329 0.34121 0.0873 0.0
C585 C 0.58855 0.3558 0.95987 0.0
C586 C 0.6389 0.36515 0.95882 0.0
C587 C 0.61334 0.36018 0.94224 0.0
N588 N 0.59887 0.35818 0.98572 0.0
N589 N 0.62904 0.36371 0.98491 0.0
C590 C 0.55564 0.34924 0.95223 0.0
H591 H 0.54018 0.35209 0.97016 0.0
H592 H 0.54808 0.36496 0.93557 0.0
H593 H 0.55394 0.32507 0.9445 0.0
C594 C 0.51745 0.4214 0.04511 0.0
N595 N 0.53235 0.39411 0.04505 0.0
N596 N 0.55114 0.39253 0.02391 0.0
C597 C 0.54868 0.41937 0.00986 0.0
C598 C 0.52717 0.43801 0.02285 0.0
C599 C 0.49344 0.43085 0.0655 0.0
H600 H 0.50391 0.43114 0.08618 0.0
H601 H 0.47441 0.41358 0.06532 0.0
H602 H 0.48374 0.45417 0.061 0.0
O603 O 0.56824 0.34919 0.08354 0.0
O604 O 0.60374 0.3497 0.0505 0.0
H605 H 0.59009 0.41897 0.98568 0.0
H606 H 0.56537 0.45241 0.98023 0.0
C607 C 0.56574 0.42703 0.98427 0.0
H608 H 0.55413 0.41506 0.96706 0.0
H609 H 0.64288 0.36678 0.00217 0.0
O610 O 0.50145 0.37314 0.09997 0.0
C611 C 0.59596 0.34561 0.07534 0.0
Co612 Co 0.88022 0.26549 0.30993 0.0
Co613 Co 0.88537 0.31468 0.26223 0.0
C614 C 0.93287 0.26328 0.27295 0.0
O615 O 0.91629 0.24964 0.29078 0.0
O616 O 0.92391 0.2881 0.26103 0.0
C617 C 0.88173 0.21419 0.34738 0.0
O618 O 0.90486 0.20427 0.33229 0.0
C619 C 0.89006 0.3294 0.2036 0.0
C620 C 0.86646 0.37479 0.20099 0.0
C621 C 0.8801 0.35182 0.1852 0.0
N622 N 0.88222 0.33839 0.229 0.0
N623 N 0.8684 0.36575 0.22728 0.0
C624 C 0.90645 0.2997 0.19729 0.0
H625 H 0.93041 0.30114 0.20544 0.0
H626 H 0.8945 0.28019 0.20773 0.0
H627 H 0.90762 0.29523 0.17502 0.0
C628 C 0.81997 0.25543 0.28642 0.0
N629 N 0.84739 0.27006 0.2865 0.0
N630 N 0.84824 0.29094 0.26693 0.0
C631 C 0.82056 0.2906 0.25405 0.0
C632 C 0.80219 0.26797 0.26597 0.0
C633 C 0.81106 0.22986 0.30559 0.0
H634 H 0.80902 0.23942 0.32653 0.0
H635 H 0.82944 0.21184 0.30567 0.0
H636 H 0.78861 0.21905 0.29983 0.0
O637 O 0.89249 0.30524 0.32561 0.0
O638 O 0.89208 0.34261 0.29423 0.0
H639 H 0.81231 0.33652 0.23945 0.0
H640 H 0.7874 0.3073 0.22436 0.0
C641 C 0.81121 0.31229 0.2318 0.0
H642 H 0.82773 0.31007 0.21478 0.0
H643 H 0.85946 0.37782 0.24398 0.0
O644 O 0.86775 0.239 0.34092 0.0
C645 C 0.89644 0.33342 0.31869 0.0
Co646 Co 0.97293 0.62864 0.55907 0.0
Co647 Co 0.92164 0.63705 0.51404 0.0
C648 C 0.97486 0.68283 0.52391 0.0
O649 O 0.98931 0.66504 0.54033 0.0
O650 O 0.94902 0.675 0.51315 0.0
C651 C 0.02303 0.62896 0.59753 0.0
O652 O 0.03155 0.65446 0.58488 0.0
C653 C 0.90468 0.63915 0.45617 0.0
C654 C 0.85372 0.63384 0.45726 0.0
C655 C 0.87868 0.63697 0.4397 0.0
N656 N 0.89567 0.63721 0.48237 0.0
N657 N 0.86514 0.63414 0.48289 0.0
C658 C 0.93754 0.64313 0.44712 0.0
H659 H 0.95376 0.63898 0.46433 0.0
H660 H 0.94278 0.62697 0.43009 0.0
H661 H 0.94075 0.66716 0.43941 0.0
C662 C 0.98112 0.56973 0.53208 0.0
N663 N 0.96617 0.59685 0.53463 0.0
N664 N 0.94461 0.59922 0.51576 0.0
C665 C 0.94477 0.57283 0.50088 0.0
C666 C 0.96805 0.55373 0.51069 0.0
C667 C 0.00789 0.55978 0.54946 0.0
H668 H -0.00041 0.55573 0.57058 0.0
H669 H 0.0255 0.57858 0.55008 0.0
H670 H 0.01875 0.53811 0.54175 0.0
O671 O 0.93475 0.64239 0.57673 0.0
O672 O 0.89568 0.64249 0.5472 0.0
H673 H 0.90046 0.57586 0.48115 0.0
H674 H 0.9218 0.54052 0.47406 0.0
C675 C 0.92379 0.56595 0.47744 0.0
H676 H 0.93383 0.57648 0.4588 0.0
H677 H 0.85212 0.63191 0.50073 0.0
O678 O -0.00025 0.61383 0.58904 0.0
C679 C 0.90634 0.64692 0.57114 0.0
Co680 Co 0.60492 0.28244 0.69415 0.0
Co681 Co 0.60553 0.32675 0.74616 0.0
C682 C 0.5564 0.27843 0.73716 0.0
O683 O 0.56866 0.26851 0.7152 0.0
O684 O 0.56834 0.30033 0.75112 0.0
C685 C 0.60071 0.22785 0.66004 0.0
O686 O 0.58228 0.21727 0.67925 0.0
C687 C 0.60692 0.33853 0.8052 0.0
C688 C 0.62641 0.38589 0.80785 0.0
C689 C 0.61576 0.36137 0.82364 0.0
N690 N 0.61219 0.34896 0.77972 0.0
N691 N 0.62376 0.37735 0.78147 0.0
C692 C 0.59322 0.3074 0.81154 0.0
H693 H 0.60329 0.28955 0.7978 0.0
H694 H 0.59707 0.30077 0.83314 0.0
H695 H 0.56787 0.30826 0.80769 0.0
C696 C 0.66691 0.2686 0.71346 0.0
N697 N 0.64017 0.28432 0.71572 0.0
N698 N 0.64096 0.30205 0.73762 0.0
C699 C 0.66841 0.29759 0.75022 0.0
C700 C 0.68539 0.2763 0.73527 0.0
C701 C 0.67407 0.24552 0.69154 0.0
H702 H 0.67152 0.25671 0.67128 0.0
H703 H 0.65733 0.22607 0.69286 0.0
H704 H 0.69795 0.23614 0.69347 0.0
O705 O 0.59527 0.32352 0.68036 0.0
O706 O 0.59539 0.35625 0.71564 0.0
H707 H 0.67361 0.337 0.77643 0.0
H708 H 0.70215 0.30678 0.78181 0.0
C709 C 0.67747 0.31157 0.7769 0.0
H710 H 0.66265 0.30129 0.79298 0.0
H711 H 0.63012 0.3908 0.76465 0.0
O712 O 0.61262 0.2547 0.66247 0.0
C713 C 0.59182 0.35061 0.69024 0.0
Co714 Co 0.9624 0.36372 0.93927 0.0
Co715 Co 0.91727 0.35641 0.98984 0.0
C716 C 0.96701 0.30995 0.97728 0.0
O717 O 0.9776 0.32655 0.95794 0.0
O718 O 0.94378 0.31851 0.99143 0.0
C719 C 0.02008 0.3694 0.91161 0.0
O720 O 0.03105 0.36457 0.93624 0.0
C721 C 0.90516 0.35464 0.04865 0.0
C722 C 0.8549 0.36396 0.05117 0.0
C723 C 0.88097 0.35824 0.0669 0.0
N724 N 0.89411 0.35829 0.02318 0.0
N725 N 0.864 0.36383 0.02483 0.0
C726 C 0.9382 0.34745 0.05533 0.0
H727 H 0.9535 0.3533 0.03786 0.0
H728 H 0.94565 0.36047 0.07375 0.0
H729 H 0.94027 0.32228 0.05989 0.0
C730 C 0.97321 0.42423 0.96386 0.0
N731 N 0.95879 0.39661 0.96334 0.0
N732 N 0.94061 0.39392 0.98484 0.0
C733 C 0.94313 0.42016 0.99975 0.0
C734 C 0.96404 0.43968 0.987 0.0
C735 C -0.00417 0.43553 0.94296 0.0
H736 H 0.98773 0.42921 0.92223 0.0
H737 H 0.01867 0.42451 0.94669 0.0
H738 H -0.00117 0.46112 0.94416 0.0
O739 O 0.92211 0.35254 0.92401 0.0
O740 O 0.88872 0.34866 0.95848 0.0
H741 H 0.92779 0.45143 0.03142 0.0
H742 H 0.9384 0.41304 0.04246 0.0
C743 C 0.92682 0.42638 0.02605 0.0
H744 H 0.90226 0.41898 0.0246 0.0
H745 H 0.84966 0.36759 0.00799 0.0
O746 O 0.99096 0.37193 0.90835 0.0
C747 C 0.89507 0.34686 0.9331 0.0
Co748 Co 0.88595 0.72596 0.19991 0.0
Co749 Co 0.88388 0.6745 0.24518 0.0
C750 C 0.93695 0.72206 0.23714 0.0
O751 O 0.92248 0.73817 0.21953 0.0
O752 O 0.92514 0.69756 0.24766 0.0
C753 C 0.88888 0.77874 0.1632 0.0
O754 O 0.91184 0.78879 0.17846 0.0
C755 C 0.88605 0.65889 0.30328 0.0
C756 C 0.85814 0.61594 0.3055 0.0
C757 C 0.87381 0.63745 0.32144 0.0
N758 N 0.87777 0.65072 0.27782 0.0
N759 N 0.8613 0.62485 0.27926 0.0
C760 C 0.90487 0.68706 0.30989 0.0
H761 H 0.92901 0.6831 0.30289 0.0
H762 H 0.89549 0.70737 0.29864 0.0
H763 H 0.90526 0.69197 0.33209 0.0
C764 C 0.82723 0.74178 0.22144 0.0
N765 N 0.85252 0.72403 0.22259 0.0
N766 N 0.84863 0.70091 0.23949 0.0
C767 C 0.81916 0.70208 0.24869 0.0
C768 C 0.80349 0.72677 0.23572 0.0
C769 C 0.83017 0.77554 0.21398 0.0
H770 H 0.85442 0.78332 0.21744 0.0
H771 H 0.81489 0.7904 0.22665 0.0
H772 H 0.82534 0.77906 0.19199 0.0
O773 O 0.89419 0.68534 0.18335 0.0
O774 O 0.8886 0.6467 0.21308 0.0
H775 H 0.80323 0.65874 0.26512 0.0
H776 H 0.78722 0.69283 0.28202 0.0
C777 C 0.80805 0.68276 0.27215 0.0
H778 H 0.82653 0.68147 0.28767 0.0
H779 H 0.85138 0.61381 0.26241 0.0
O780 O 0.87522 0.75361 0.16926 0.0
C781 C 0.8946 0.65653 0.18911 0.0
Co782 Co 0.5193 0.63108 0.43366 0.0
Co783 Co 0.56484 0.63703 0.48451 0.0
C784 C 0.51339 0.68311 0.47252 0.0
O785 O 0.5022 0.66691 0.45309 0.0
O786 O 0.53721 0.67445 0.486 0.0
C787 C 0.46773 0.63083 0.39609 0.0
O788 O 0.45596 0.65192 0.41246 0.0
C789 C 0.57805 0.63928 0.54395 0.0
C790 C 0.62566 0.62061 0.54599 0.0
C791 C 0.60145 0.6311 0.56217 0.0
N792 N 0.5879 0.63369 0.5183 0.0
N793 N 0.61651 0.62274 0.51974 0.0
C794 C 0.54689 0.65249 0.55059 0.0
H795 H 0.52885 0.64081 0.53808 0.0
H796 H 0.54133 0.65022 0.57259 0.0
H797 H 0.54682 0.67751 0.54513 0.0
C798 C 0.50917 0.57012 0.45637 0.0
N799 N 0.52382 0.59762 0.45673 0.0
N800 N 0.54193 0.59946 0.47829 0.0
C801 C 0.5391 0.5727 0.49241 0.0
C802 C 0.51828 0.55363 0.47896 0.0
C803 C 0.48518 0.56078 0.43588 0.0
H804 H 0.49576 0.56039 0.41526 0.0
H805 H 0.46623 0.57817 0.43588 0.0
H806 H 0.47533 0.53751 0.44039 0.0
O807 O 0.5592 0.64441 0.41949 0.0
O808 O 0.59383 0.64577 0.45316 0.0
H809 H 0.57825 0.57247 0.51925 0.0
H810 H 0.55038 0.54189 0.52572 0.0
C811 C 0.55326 0.56655 0.51957 0.0
H812 H 0.54122 0.58151 0.53453 0.0
H813 H 0.62955 0.61602 0.5028 0.0
O814 O 0.49379 0.6188 0.40173 0.0
C815 C 0.58651 0.64961 0.42811 0.0
Co816 Co 0.38056 0.28562 0.19216 0.0
Co817 Co 0.38375 0.32491 0.24681 0.0
C818 C 0.42944 0.27572 0.2356 0.0
O819 O 0.41657 0.26985 0.21284 0.0
O820 O 0.41848 0.29579 0.25197 0.0
C821 C 0.3733 0.22795 0.16531 0.0
O822 O 0.37227 0.2179 0.19059 0.0
C823 C 0.38461 0.33712 0.306 0.0
C824 C 0.36036 0.38215 0.30907 0.0
C825 C 0.37385 0.35889 0.32462 0.0
N826 N 0.37758 0.34688 0.28062 0.0
N827 N 0.36329 0.37396 0.28263 0.0
C828 C 0.40131 0.30746 0.31215 0.0
H829 H 0.42556 0.30935 0.30475 0.0
H830 H 0.39009 0.28797 0.30106 0.0
H831 H 0.40173 0.30239 0.33433 0.0
C832 C 0.31687 0.27595 0.21055 0.0
N833 N 0.34504 0.28888 0.21342 0.0
N834 N 0.34663 0.30324 0.23712 0.0
C835 C 0.31981 0.29835 0.25058 0.0
C836 C 0.3004 0.28094 0.23412 0.0
C837 C 0.30617 0.25751 0.18651 0.0
H838 H 0.3178 0.26557 0.16765 0.0
H839 H 0.31143 0.23264 0.19015 0.0
H840 H 0.28067 0.25966 0.18397 0.0
O841 O 0.39247 0.32614 0.17915 0.0
O842 O 0.39759 0.35445 0.21702 0.0
H843 H 0.31541 0.33258 0.28188 0.0
H844 H 0.291 0.29892 0.28672 0.0
C845 C 0.31408 0.30701 0.27961 0.0
H846 H 0.33238 0.29627 0.29234 0.0
H847 H 0.35491 0.38653 0.26598 0.0
O848 O 0.37544 0.25696 0.16088 0.0
C849 C 0.3997 0.35133 0.19112 0.0
Co850 Co 0.4859 0.6292 0.94114 0.0
Co851 Co 0.43144 0.63813 0.9836 0.0
C852 C 0.47912 0.68593 0.97745 0.0
O853 O 0.4911 0.6707 0.95783 0.0
O854 O 0.45646 0.67539 0.99114 0.0
C855 C 0.54888 0.61858 0.91609 0.0
O856 O 0.56141 0.61447 0.94023 0.0
C857 C 0.40818 0.6395 0.03944 0.0
C858 C 0.35807 0.63018 0.03542 0.0
C859 C 0.38128 0.63551 0.05445 0.0
N860 N 0.40145 0.6365 0.01274 0.0
N861 N 0.37135 0.6311 0.01045 0.0
C862 C 0.43995 0.64598 0.05036 0.0
H863 H 0.45792 0.63809 0.03571 0.0
H864 H 0.44338 0.63443 0.07038 0.0
H865 H 0.44256 0.67141 0.05337 0.0
C866 C 0.49399 0.57086 0.97078 0.0
N867 N 0.48017 0.59846 0.96706 0.0
N868 N 0.45658 0.60115 0.98407 0.0
C869 C 0.45509 0.57502 0.99926 0.0
C870 C 0.47888 0.55563 0.9914 0.0
C871 C 0.51962 0.5579 0.95377 0.0
H872 H 0.51766 0.56665 0.93272 0.0
H873 H 0.54218 0.56491 0.96271 0.0
H874 H 0.51888 0.53212 0.95337 0.0
O875 O 0.44917 0.62936 0.91863 0.0
O876 O 0.41239 0.64715 0.94632 0.0
H877 H 0.40815 0.57622 0.01365 0.0
H878 H 0.43007 0.54271 0.0247 0.0
C879 C 0.43124 0.56802 0.02042 0.0
H880 H 0.43786 0.58004 0.03953 0.0
H881 H 0.35995 0.62758 0.99192 0.0
O882 O 0.51986 0.6232 0.91406 0.0
C883 C 0.42278 0.64156 0.92232 0.0
Co884 Co 0.09805 0.7117 0.69471 0.0
Co885 Co 0.09747 0.66723 0.74635 0.0
C886 C 0.04816 0.71502 0.7364 0.0
O887 O 0.06101 0.72498 0.71472 0.0
O888 O 0.0598 0.69325 0.75071 0.0
C889 C 0.09431 0.7659 0.66014 0.0
O890 O 0.07432 0.77616 0.67825 0.0
C891 C 0.09907 0.65531 0.80518 0.0
C892 C 0.11677 0.60723 0.80755 0.0
C893 C 0.10727 0.63211 0.82344 0.0
N894 N 0.10361 0.64473 0.77966 0.0
N895 N 0.11414 0.61594 0.78121 0.0
C896 C 0.08661 0.68688 0.8117 0.0
H897 H 0.06099 0.68647 0.80951 0.0
H898 H 0.0959 0.70418 0.79701 0.0
H899 H 0.09238 0.6939 0.83287 0.0
C900 C 0.15901 0.72659 0.71576 0.0
N901 N 0.13232 0.71068 0.71737 0.0
N902 N 0.13277 0.69247 0.73895 0.0
C903 C 0.16009 0.69655 0.75187 0.0
C904 C 0.17717 0.71829 0.73758 0.0
C905 C 0.16692 0.74947 0.69387 0.0
H906 H 0.14977 0.7686 0.69419 0.0
H907 H 0.19049 0.75937 0.69667 0.0
H908 H 0.16569 0.73788 0.67368 0.0
O909 O 0.08976 0.6705 0.68045 0.0
O910 O 0.08896 0.63769 0.7156 0.0
H911 H 0.19436 0.68474 0.78231 0.0
H912 H 0.15543 0.69094 0.79451 0.0
C913 C 0.16942 0.68094 0.77775 0.0
H914 H 0.16472 0.65567 0.77642 0.0
H915 H 0.11979 0.60233 0.76431 0.0
O916 O 0.10673 0.73943 0.66339 0.0
C917 C 0.08638 0.64332 0.69013 0.0
Co918 Co 0.02426 0.35419 0.44077 0.0
Co919 Co 0.06498 0.35384 0.49496 0.0
C920 C 0.01708 0.30607 0.48541 0.0
O921 O 0.00972 0.31829 0.46264 0.0
O922 O 0.03762 0.31789 0.50086 0.0
C923 C 0.96737 0.36621 0.41109 0.0
O924 O 0.957 0.37509 0.43505 0.0
C925 C 0.07926 0.35505 0.55384 0.0
C926 C 0.12374 0.38053 0.55495 0.0
C927 C 0.10154 0.36684 0.5715 0.0
N928 N 0.08773 0.36169 0.52804 0.0
N929 N 0.11447 0.37674 0.52888 0.0
C930 C 0.05039 0.3377 0.56127 0.0
H931 H 0.0303 0.34766 0.55015 0.0
H932 H 0.04596 0.33829 0.58355 0.0
H933 H 0.05288 0.31313 0.55476 0.0
C934 C 0.01512 0.41935 0.45808 0.0
N935 N 0.02715 0.39079 0.46158 0.0
N936 N 0.04143 0.3897 0.48535 0.0
C937 C 0.03695 0.41696 0.49832 0.0
C938 C 0.02025 0.43632 0.48137 0.0
C939 C 0.00103 0.43145 0.4324 0.0
H940 H 0.00917 0.4175 0.41497 0.0
H941 H 0.97539 0.43084 0.43393 0.0
H942 H 0.00783 0.45606 0.42914 0.0
O943 O 0.06512 0.34317 0.42763 0.0
O944 O 0.0947 0.34161 0.46495 0.0
H945 H 0.07252 0.42409 0.52798 0.0
H946 H 0.03794 0.44665 0.53394 0.0
C947 C 0.04686 0.42384 0.52686 0.0
H948 H 0.03797 0.40528 0.5404 0.0
H949 H 0.1261 0.38496 0.51166 0.0
O950 O -0.0045 0.35762 0.40891 0.0
C951 C 0.09102 0.33825 0.43924 0.0
Co952 Co 0.38323 0.71107 0.30551 0.0
Co953 Co 0.38545 0.67049 0.2508 0.0
C954 C 0.43337 0.7173 0.26277 0.0
O955 O 0.42012 0.72466 0.28504 0.0
O956 O 0.4222 0.69708 0.24661 0.0
C957 C 0.3725 0.76892 0.33396 0.0
O958 O 0.36569 0.77906 0.3094 0.0
C959 C 0.38622 0.65733 0.19144 0.0
C960 C 0.35983 0.61345 0.18889 0.0
C961 C 0.37448 0.63572 0.17303 0.0
N962 N 0.3786 0.64841 0.21696 0.0
N963 N 0.36302 0.622 0.21523 0.0
C964 C 0.40439 0.68603 0.18499 0.0
H965 H 0.4286 0.68288 0.19216 0.0
H966 H 0.39448 0.70613 0.19616 0.0
H967 H 0.40471 0.69093 0.16277 0.0
C968 C 0.32001 0.72256 0.28561 0.0
N969 N 0.34804 0.70921 0.28323 0.0
N970 N 0.3498 0.69489 0.25948 0.0
C971 C 0.32346 0.70049 0.2455 0.0
C972 C 0.30413 0.71818 0.26167 0.0
C973 C 0.30729 0.73726 0.31081 0.0
H974 H 0.31989 0.72852 0.32883 0.0
H975 H 0.30918 0.76289 0.30932 0.0
H976 H 0.28228 0.73162 0.31302 0.0
O977 O 0.39259 0.66987 0.31864 0.0
O978 O 0.396 0.64049 0.28121 0.0
H979 H 0.31725 0.6656 0.21502 0.0
H980 H 0.29541 0.70067 0.2089 0.0
C981 C 0.31773 0.69127 0.21661 0.0
H982 H 0.33696 0.70029 0.20392 0.0
H983 H 0.35396 0.61015 0.23201 0.0
O984 O 0.37928 0.74036 0.33709 0.0
C985 C 0.39791 0.64395 0.3071 0.0
Co986 Co 0.01744 0.63158 0.06791 0.0
Co987 Co 0.06293 0.63849 0.0175 0.0
C988 C 0.0114 0.6835 0.02822 0.0
O989 O 0.0006 0.66648 0.04718 0.0
O990 O 0.03581 0.67602 0.01512 0.0
C991 C 0.9594 0.61839 0.09542 0.0
O992 O 0.94897 0.61251 0.07077 0.0
C993 C 0.07846 0.63954 0.95886 0.0
C994 C 0.12783 0.6259 0.95894 0.0
C995 C 0.1034 0.63343 0.94182 0.0
N996 N 0.08759 0.63562 0.9849 0.0
N997 N 0.11721 0.62763 0.98477 0.0
C998 C 0.04647 0.64901 0.95056 0.0
H999 H 0.02954 0.64255 0.96664 0.0
H1000 H 0.03986 0.63812 0.93089 0.0
H1001 H 0.04597 0.6746 0.94784 0.0
C1002 C 0.01164 0.56841 0.04593 0.0
N1003 N 0.0235 0.59727 0.0453 0.0
N1004 N 0.04006 0.60078 0.02289 0.0
C1005 C 0.03801 0.57436 0.00819 0.0
C1006 C 0.01982 0.55346 0.02231 0.0
C1007 C 0.99367 0.55461 0.06894 0.0
H1008 H 0.00029 0.56616 0.08817 0.0
H1009 H 0.9685 0.5573 0.06505 0.0
H1010 H -0.00148 0.52934 0.07063 0.0
O1011 O 0.05698 0.64509 0.08325 0.0
O1012 O 0.09117 0.64604 0.04923 0.0
H1013 H 0.04943 0.54475 0.97406 0.0
H1014 H 0.04046 0.58458 0.96591 0.0
C1015 C 0.05215 0.56922 0.98083 0.0
H1016 H 0.07717 0.57502 0.98156 0.0
H1017 H 0.13007 0.62288 0.00232 0.0
O1018 O 0.988 0.62468 0.0987 0.0
C1019 C 0.08429 0.64979 0.07433 0.0
Co1020 Co 0.11398 0.2639 0.80763 0.0
Co1021 Co 0.10138 0.31157 0.76098 0.0
C1022 C 0.05703 0.26213 0.77041 0.0
O1023 O 0.07257 0.25431 0.7915 0.0
O1024 O 0.06666 0.2829 0.75401 0.0
C1025 C 0.1084 0.21124 0.84299 0.0
O1026 O 0.08149 0.20745 0.83088 0.0
C1027 C 0.09932 0.33398 0.70491 0.0
C1028 C 0.1078 0.38438 0.70873 0.0
C1029 C 0.10284 0.36094 0.68983 0.0
N1030 N 0.10215 0.34095 0.73155 0.0
N1031 N 0.1071 0.37119 0.73373 0.0
C1032 C 0.0933 0.30198 0.6942 0.0
H1033 H 0.06789 0.29866 0.69203 0.0
H1034 H 0.10223 0.28425 0.70863 0.0
H1035 H 0.10408 0.29876 0.67385 0.0
C1036 C 0.17015 0.25271 0.77803 0.0
N1037 N 0.14302 0.26737 0.78091 0.0
N1038 N 0.13991 0.28898 0.76214 0.0
C1039 C 0.16579 0.28879 0.74663 0.0
C1040 C 0.18536 0.26575 0.75626 0.0
C1041 C 0.18171 0.22767 0.79664 0.0
H1042 H 0.16429 0.20872 0.79768 0.0
H1043 H 0.20423 0.21801 0.7897 0.0
H1044 H 0.18462 0.23733 0.81747 0.0
O1045 O 0.11328 0.30314 0.82749 0.0
O1046 O 0.08793 0.33111 0.79689 0.0
H1047 H 0.16361 0.3338 0.72813 0.0
H1048 H 0.19724 0.31106 0.71856 0.0
C1049 C 0.17209 0.31012 0.72331 0.0
H1050 H 0.15973 0.30127 0.70507 0.0
H1051 H 0.11045 0.38273 0.75223 0.0
O1052 O 0.12649 0.23265 0.83513 0.0
C1053 C 0.09507 0.3252 0.82167 0.0
Co1054 Co 0.47233 0.36268 0.56268 0.0
Co1055 Co 0.42029 0.35462 0.518 0.0
C1056 C 0.47313 0.30827 0.52791 0.0
O1057 O 0.48818 0.32614 0.54386 0.0
O1058 O 0.44724 0.31635 0.51739 0.0
C1059 C 0.52392 0.36314 0.59985 0.0
O1060 O 0.53317 0.3386 0.58617 0.0
C1061 C 0.40385 0.35339 0.4598 0.0
C1062 C 0.35285 0.35792 0.46056 0.0
C1063 C 0.378 0.35556 0.4431 0.0
N1064 N 0.39455 0.35457 0.48599 0.0
N1065 N 0.36399 0.35717 0.48629 0.0
C1066 C 0.43688 0.3501 0.45098 0.0
H1067 H 0.45282 0.35302 0.46859 0.0
H1068 H 0.44239 0.36749 0.43499 0.0
H1069 H 0.44023 0.32671 0.44192 0.0
C1070 C 0.48066 0.42153 0.53572 0.0
N1071 N 0.46558 0.39446 0.53834 0.0
N1072 N 0.44352 0.3924 0.51988 0.0
C1073 C 0.44341 0.41903 0.50534 0.0
C1074 C 0.46709 0.43787 0.51481 0.0
C1075 C 0.50817 0.43102 0.55239 0.0
H1076 H 0.50057 0.43565 0.57364 0.0
H1077 H 0.52525 0.41176 0.55287 0.0
H1078 H 0.51938 0.45225 0.54414 0.0
O1079 O 0.43401 0.34938 0.58041 0.0
O1080 O 0.39447 0.34928 0.55131 0.0
H1081 H 0.39897 0.41558 0.48582 0.0
H1082 H 0.41925 0.45186 0.47999 0.0
C1083 C 0.42198 0.42635 0.48237 0.0
H1084 H 0.43227 0.41712 0.46332 0.0
H1085 H 0.35074 0.35882 0.50405 0.0
O1086 O 0.49958 0.37734 0.59251 0.0
C1087 C 0.40549 0.34499 0.57515 0.0
C1088 C 0.12405 0.15242 0.11085 0.0
C1089 C 0.10207 0.13306 0.09762 0.0
C1090 C 0.08099 0.11785 0.14216 0.0
C1091 C 0.10519 0.13434 0.15535 0.0
N1092 N 0.15401 0.16146 0.15184 0.0
N1093 N 0.06475 0.09143 0.1011 0.0
C1094 C 0.12792 0.15009 0.13959 0.0
C1095 C 0.08187 0.11415 0.11338 0.0
N1096 N 0.14077 0.17355 0.09613 0.0
N1097 N 0.05679 0.10621 0.157 0.0
H1098 H 0.06626 0.08684 0.08032 0.0
H1099 H 0.05188 0.07503 0.1119 0.0
H1100 H 0.05512 0.10874 0.17812 0.0
H1101 H 0.037 0.09673 0.14805 0.0
H1102 H 0.15484 0.19036 0.10515 0.0
H1103 H 0.1383 0.17624 0.07509 0.0
H1104 H 0.17275 0.1705 0.141 0.0
H1105 H 0.15829 0.15881 0.17261 0.0
C1106 C 0.12391 0.83223 0.39398 0.0
C1107 C 0.10884 0.85675 0.40796 0.0
C1108 C 0.09172 0.8785 0.36425 0.0
C1109 C 0.10963 0.85595 0.35022 0.0
N1110 N 0.14917 0.81631 0.35233 0.0
N1111 N 0.08516 0.90746 0.40611 0.0
C1112 C 0.12751 0.83412 0.36525 0.0
C1113 C 0.09458 0.88111 0.39303 0.0
N1114 N 0.13429 0.80684 0.40801 0.0
N1115 N 0.07139 0.89692 0.35026 0.0
H1116 H 0.08872 0.91086 0.4269 0.0
H1117 H 0.07717 0.92713 0.39592 0.0
H1118 H 0.06819 0.89533 0.32921 0.0
H1119 H 0.05559 0.91158 0.35989 0.0
H1120 H 0.14258 0.7869 0.39839 0.0
H1121 H 0.13192 0.8045 0.42909 0.0
H1122 H 0.16486 0.80213 0.36263 0.0
H1123 H 0.15375 0.81846 0.33161 0.0
C1124 C 0.39291 0.87673 0.63321 0.0
C1125 C 0.37378 0.85471 0.6467 0.0
C1126 C 0.35901 0.83274 0.60231 0.0
C1127 C 0.37566 0.85664 0.58884 0.0
N1128 N 0.40094 0.9065 0.59198 0.0
N1129 N 0.3318 0.81778 0.64332 0.0
C1130 C 0.39052 0.88014 0.60443 0.0
C1131 C 0.35483 0.83441 0.63102 0.0
N1132 N 0.41405 0.89377 0.64762 0.0
N1133 N 0.34779 0.80799 0.58788 0.0
H1134 H 0.3268 0.82006 0.66397 0.0
H1135 H 0.31555 0.80472 0.63253 0.0
H1136 H 0.35076 0.80564 0.56686 0.0
H1137 H 0.33822 0.78844 0.59718 0.0
H1138 H 0.43058 0.90789 0.63829 0.0
H1139 H 0.41712 0.89149 0.66863 0.0
H1140 H 0.40949 0.9256 0.60268 0.0
H1141 H 0.3976 0.9106 0.57126 0.0
C1142 C 0.39372 0.11726 0.8731 0.0
C1143 C 0.37754 0.14148 0.85961 0.0
C1144 C 0.36555 0.1653 0.90396 0.0
C1145 C 0.3793 0.13957 0.91734 0.0
N1146 N 0.39924 0.08737 0.91457 0.0
N1147 N 0.34236 0.185 0.8624 0.0
C1148 C 0.3913 0.11444 0.90188 0.0
C1149 C 0.36185 0.16458 0.87509 0.0
N1150 N 0.41226 0.09751 0.85859 0.0
N1151 N 0.35661 0.1907 0.91872 0.0
H1152 H 0.33844 0.18465 0.84144 0.0
H1153 H 0.32792 0.20027 0.87288 0.0
H1154 H 0.35845 0.19181 0.93992 0.0
H1155 H 0.34963 0.21152 0.90977 0.0
H1156 H 0.42704 0.08147 0.86778 0.0
H1157 H 0.41526 0.0992 0.83753 0.0
H1158 H 0.40553 0.06727 0.90409 0.0
H1159 H 0.39598 0.08397 0.9354 0.0
C1160 C 0.88592 0.88274 0.89308 0.0
C1161 C 0.87187 0.85824 0.908 0.0
C1162 C 0.85344 0.83524 0.86524 0.0
C1163 C 0.87091 0.85746 0.85029 0.0
N1164 N 0.90842 0.89913 0.85019 0.0
N1165 N 0.8464 0.80832 0.9082 0.0
C1166 C 0.88852 0.88031 0.86427 0.0
C1167 C 0.85682 0.83362 0.89405 0.0
N1168 N 0.89552 0.90899 0.90626 0.0
N1169 N 0.83259 0.81659 0.8521 0.0
H1170 H 0.84849 0.80627 0.92933 0.0
H1171 H 0.83822 0.78824 0.89874 0.0
H1172 H 0.82868 0.8179 0.83117 0.0
H1173 H 0.81702 0.80214 0.86226 0.0
H1174 H 0.90326 0.92881 0.89614 0.0
H1175 H 0.89251 0.91216 0.92716 0.0
H1176 H 0.92414 0.91397 0.85972 0.0
H1177 H 0.91134 0.89779 0.8291 0.0
C1178 C 0.8546 0.13893 0.64336 0.0
C1179 C 0.87872 0.12466 0.65854 0.0
C1180 C 0.90146 0.10535 0.61605 0.0
C1181 C 0.88007 0.12349 0.60082 0.0
N1182 N 0.83945 0.16211 0.60041 0.0
N1183 N 0.92824 0.09852 0.65904 0.0
C1184 C 0.85752 0.14164 0.6146 0.0
C1185 C 0.90311 0.10909 0.6448 0.0
N1186 N 0.8282 0.14854 0.6562 0.0
N1187 N 0.91915 0.08345 0.60328 0.0
H1188 H 0.93047 0.10105 0.68011 0.0
H1189 H 0.94809 0.08986 0.64959 0.0
H1190 H 0.91721 0.07888 0.58251 0.0
H1191 H 0.93303 0.06761 0.61373 0.0
H1192 H 0.80871 0.15657 0.6458 0.0
H1193 H 0.82457 0.14511 0.67699 0.0
H1194 H 0.82483 0.17807 0.60991 0.0
H1195 H 0.84129 0.16527 0.57938 0.0
C1196 C 0.62518 0.151 0.36641 0.0
C1197 C 0.60233 0.13483 0.35113 0.0
C1198 C 0.58059 0.11428 0.39358 0.0
C1199 C 0.60078 0.13372 0.40889 0.0
N1200 N 0.63832 0.17536 0.40939 0.0
N1201 N 0.55457 0.1056 0.35047 0.0
C1202 C 0.62188 0.15358 0.39515 0.0
C1203 C 0.57884 0.11787 0.36481 0.0
N1204 N 0.65094 0.16243 0.35372 0.0
N1205 N 0.56441 0.09115 0.40623 0.0
H1206 H 0.55235 0.10793 0.32937 0.0
H1207 H 0.53523 0.09571 0.35983 0.0
H1208 H 0.56665 0.08662 0.42696 0.0
H1209 H 0.55163 0.07444 0.39571 0.0
H1210 H 0.66968 0.17198 0.36421 0.0
H1211 H 0.65508 0.159 0.33302 0.0
H1212 H 0.65176 0.19238 0.39995 0.0
H1213 H 0.63609 0.17838 0.43042 0.0
C1214 C 0.60044 0.88383 0.1036 0.0
C1215 C 0.61061 0.85773 0.08831 0.0
C1216 C 0.62319 0.83039 0.13074 0.0
C1217 C 0.61032 0.85525 0.14612 0.0
N1218 N 0.58143 0.90321 0.14695 0.0
N1219 N 0.62548 0.80374 0.08726 0.0
C1220 C 0.59738 0.88129 0.13245 0.0
C1221 C 0.62009 0.83026 0.10187 0.0
N1222 N 0.59489 0.91141 0.09069 0.0
N1223 N 0.63985 0.80768 0.14349 0.0
H1224 H 0.62333 0.80265 0.06608 0.0
H1225 H 0.62919 0.78218 0.09635 0.0
H1226 H 0.64364 0.80756 0.16442 0.0
H1227 H 0.65251 0.79083 0.13307 0.0
H1228 H 0.59056 0.93211 0.10103 0.0
H1229 H 0.59733 0.91423 0.06968 0.0
H1230 H 0.56878 0.92101 0.13782 0.0
H1231 H 0.57841 0.90194 0.16804 0.0
C1232 C 0.57961 0.61401 0.60784 0.0
C1233 C 0.60138 0.63187 0.5927 0.0
C1234 C 0.62788 0.64501 0.63547 0.0
C1235 C 0.60356 0.63098 0.65061 0.0
N1236 N 0.55276 0.60737 0.65079 0.0
N1237 N 0.64287 0.66961 0.59309 0.0
C1238 C 0.5783 0.61712 0.63667 0.0
C1239 C 0.62451 0.649 0.60683 0.0
N1240 N 0.56148 0.59256 0.59499 0.0
N1241 N 0.65495 0.65291 0.64813 0.0
H1242 H 0.64056 0.67386 0.57224 0.0
H1243 H 0.65811 0.68472 0.60292 0.0
H1244 H 0.65897 0.64811 0.66865 0.0
H1245 H 0.67448 0.66071 0.63764 0.0
H1246 H 0.54724 0.57696 0.60536 0.0
H1247 H 0.56365 0.58793 0.5743 0.0
H1248 H 0.53251 0.59989 0.6412 0.0
H1249 H 0.55069 0.60965 0.6719 0.0
C1250 C 0.6295 0.33648 0.89753 0.0
C1251 C 0.61329 0.36004 0.91185 0.0
C1252 C 0.59556 0.38192 0.86833 0.0
C1253 C 0.61455 0.3605 0.85403 0.0
N1254 N 0.65538 0.32219 0.85561 0.0
N1255 N 0.58734 0.40967 0.91062 0.0
C1256 C 0.63314 0.33904 0.86879 0.0
C1257 C 0.59804 0.38403 0.89719 0.0
N1258 N 0.64084 0.31127 0.91122 0.0
N1259 N 0.57456 0.39973 0.85451 0.0
H1260 H 0.59035 0.41276 0.93152 0.0
H1261 H 0.57865 0.42919 0.90066 0.0
H1262 H 0.5716 0.39847 0.83341 0.0
H1263 H 0.55803 0.41345 0.86427 0.0
H1264 H 0.65006 0.29191 0.90137 0.0
H1265 H 0.63837 0.30838 0.93224 0.0
H1266 H 0.67159 0.30843 0.86574 0.0
H1267 H 0.65972 0.32459 0.83484 0.0
C1268 C 0.89835 0.3764 0.14153 0.0
C1269 C 0.88225 0.3519 0.1548 0.0
C1270 C 0.86953 0.32926 0.11012 0.0
C1271 C 0.88208 0.35581 0.09711 0.0
N1272 N 0.90387 0.40727 0.10051 0.0
N1273 N 0.84787 0.30762 0.15136 0.0
C1274 C 0.89531 0.38012 0.11283 0.0
C1275 C 0.86667 0.32893 0.13901 0.0
N1276 N 0.91735 0.39557 0.15622 0.0
N1277 N 0.86093 0.30403 0.09495 0.0
H1278 H 0.84497 0.30646 0.17236 0.0
H1279 H 0.83313 0.2928 0.14066 0.0
H1280 H 0.8626 0.30342 0.07372 0.0
H1281 H 0.85486 0.28273 0.10353 0.0
H1282 H 0.93204 0.41185 0.14725 0.0
H1283 H 0.92085 0.39306 0.17717 0.0
H1284 H 0.91067 0.427 0.11128 0.0
H1285 H 0.90135 0.41105 0.07963 0.0
C1286 C 0.86169 0.66235 0.36685 0.0
C1287 C 0.87538 0.63768 0.35177 0.0
C1288 C 0.88749 0.61081 0.39453 0.0
C1289 C 0.87737 0.63716 0.40945 0.0
N1290 N 0.85946 0.69022 0.40976 0.0
N1291 N 0.90657 0.5911 0.35145 0.0
C1292 C 0.86582 0.66361 0.39559 0.0
C1293 C 0.88981 0.61264 0.36567 0.0
N1294 N 0.84361 0.68387 0.35396 0.0
N1295 N 0.89363 0.58361 0.40781 0.0
H1296 H 0.90936 0.59194 0.33033 0.0
H1297 H 0.92016 0.5742 0.36086 0.0
H1298 H 0.89071 0.5811 0.42879 0.0
H1299 H 0.89829 0.5628 0.39775 0.0
H1300 H 0.83042 0.70036 0.36432 0.0
H1301 H 0.83944 0.68347 0.33306 0.0
H1302 H 0.85425 0.71126 0.40032 0.0
H1303 H 0.86205 0.69199 0.43087 0.0
C1304 C 0.38831 0.3826 0.39846 0.0
C1305 C 0.3769 0.35633 0.41278 0.0
C1306 C 0.35972 0.33366 0.36951 0.0
C1307 C 0.37514 0.35775 0.35501 0.0
N1308 N 0.40922 0.40229 0.35606 0.0
N1309 N 0.35611 0.30431 0.41155 0.0
C1310 C 0.39096 0.38141 0.3696 0.0
C1311 C 0.36391 0.33105 0.39818 0.0
N1312 N 0.39508 0.4093 0.41227 0.0
N1313 N 0.33982 0.31419 0.35618 0.0
H1314 H 0.35886 0.30151 0.43256 0.0
H1315 H 0.34957 0.28403 0.40146 0.0
H1316 H 0.33493 0.31645 0.3355 0.0
H1317 H 0.32572 0.29814 0.36616 0.0
H1318 H 0.40091 0.43006 0.4026 0.0
H1319 H 0.39122 0.41159 0.43314 0.0
H1320 H 0.42363 0.41807 0.36605 0.0
H1321 H 0.41235 0.40181 0.33496 0.0
C1322 C 0.3887 0.60916 0.0998 0.0
C1323 C 0.37812 0.63521 0.08472 0.0
C1324 C 0.36141 0.65991 0.12733 0.0
C1325 C 0.37607 0.63592 0.14257 0.0
N1326 N 0.40853 0.59022 0.1429 0.0
N1327 N 0.35805 0.68746 0.08428 0.0
C1328 C 0.3911 0.61121 0.12868 0.0
C1329 C 0.36555 0.66124 0.09854 0.0
N1330 N 0.39529 0.58201 0.08663 0.0
N1331 N 0.34228 0.68055 0.14012 0.0
H1332 H 0.36024 0.6891 0.06313 0.0
H1333 H 0.35202 0.70833 0.09366 0.0
H1334 H 0.33758 0.6794 0.1609 0.0
H1335 H 0.32863 0.69663 0.12973 0.0
H1336 H 0.40052 0.56139 0.09677 0.0
H1337 H 0.39194 0.57925 0.06572 0.0
H1338 H 0.42249 0.57363 0.13348 0.0
H1339 H 0.41149 0.5913 0.164 0.0
C1340 C 0.12226 0.65568 0.89738 0.0
C1341 C 0.10416 0.63337 0.91148 0.0
C1342 C 0.08544 0.61278 0.86782 0.0
C1343 C 0.10602 0.63287 0.85376 0.0
N1344 N 0.1495 0.66813 0.85566 0.0
N1345 N 0.075 0.58554 0.90991 0.0
C1346 C 0.12598 0.65291 0.86867 0.0
C1347 C 0.0875 0.61045 0.89665 0.0
N1348 N 0.1354 0.67989 0.91125 0.0
N1349 N 0.06341 0.59646 0.85379 0.0
H1350 H 0.07785 0.58212 0.93076 0.0
H1351 H 0.06507 0.56667 0.89984 0.0
H1352 H 0.06081 0.59787 0.83266 0.0
H1353 H 0.04585 0.5839 0.86339 0.0
H1354 H 0.14616 0.69854 0.90154 0.0
H1355 H 0.13305 0.6828 0.93228 0.0
H1356 H 0.16653 0.68076 0.86588 0.0
H1357 H 0.1539 0.66526 0.83494 0.0
C1358 C 0.07751 0.37772 0.64595 0.0
C1359 C 0.10305 0.36404 0.65961 0.0
C1360 C 0.12618 0.35 0.61563 0.0
C1361 C 0.10198 0.36592 0.60189 0.0
N1362 N 0.05884 0.40154 0.60437 0.0
N1363 N 0.15548 0.34484 0.65749 0.0
C1364 C 0.07879 0.38169 0.61716 0.0
C1365 C 0.12854 0.35242 0.64445 0.0
N1366 N 0.05173 0.38627 0.66031 0.0
N1367 N 0.14634 0.33169 0.60133 0.0
H1368 H 0.15848 0.34815 0.67837 0.0
H1369 H 0.17577 0.3388 0.64725 0.0
H1370 H 0.14504 0.32875 0.58024 0.0
H1371 H 0.16241 0.3171 0.6107 0.0
H1372 H 0.03112 0.39318 0.65101 0.0
H1373 H 0.05007 0.38405 0.68145 0.0
H1374 H 0.04343 0.41592 0.61477 0.0
H1375 H 0.05995 0.40601 0.58353 0.0
C1376 C 0.98121 0.24739 0.24696 0.0
C1377 C 0.96599 0.25448 0.27185 0.0
C1378 C 0.0113 0.23739 0.2973 0.0
C1379 C 0.02833 0.23463 0.27266 0.0
N1380 N 0.03073 0.24201 0.22391 0.0
N1381 N 0.97115 0.26597 0.32009 0.0
C1382 C 0.01367 0.24107 0.24733 0.0
C1383 C 0.98244 0.25253 0.29684 0.0
N1384 N 0.96459 0.24544 0.22333 0.0
N1385 N 0.02159 0.22405 0.32097 0.0
H1386 H 0.95101 0.27936 0.32046 0.0
H1387 H 0.98392 0.26696 0.33816 0.0
H1388 H 0.04128 0.21005 0.32202 0.0
H1389 H 0.00825 0.22356 0.33872 0.0
H1390 H 0.97407 0.23777 0.20498 0.0
H1391 H 0.94063 0.24858 0.22283 0.0
H1392 H 0.02165 0.24912 0.20522 0.0
H1393 H 0.05468 0.23863 0.2238 0.0
C1394 C 0.98966 0.73139 0.54806 0.0
C1395 C 0.98466 0.7158 0.52294 0.0
C1396 C -0.00303 0.76405 0.49848 0.0
C1397 C 0.00594 0.77784 0.5236 0.0
N1398 N 0.02037 0.76997 0.57093 0.0
N1399 N 0.98728 0.71601 0.47379 0.0
C1400 C 0.00513 0.76016 0.54801 0.0
C1401 C 0.98926 0.73178 0.49791 0.0
N1402 N 0.97845 0.71955 0.57201 0.0
N1403 N -0.00502 0.78186 0.4755 0.0
H1404 H 0.98217 0.69236 0.47282 0.0
H1405 H 0.99323 0.72574 0.45505 0.0
H1406 H 4e-05 0.80556 0.47547 0.0
H1407 H 0.98585 0.77376 0.45714 0.0
H1408 H 0.97949 0.73174 0.59038 0.0
H1409 H 0.96476 0.69961 0.57301 0.0
H1410 H 0.02246 0.7562 0.58835 0.0
H1411 H 0.03414 0.78989 0.5715 0.0
C1412 C 0.47214 0.72403 0.73782 0.0
C1413 C 0.46214 0.75192 0.75009 0.0
C1414 C 0.51167 0.75752 0.77268 0.0
C1415 C 0.52378 0.73129 0.75835 0.0
N1416 N 0.51636 0.69738 0.71893 0.0
N1417 N 0.47755 0.80151 0.76892 0.0
C1418 C 0.50435 0.71666 0.73834 0.0
C1419 C 0.48389 0.77107 0.76349 0.0
N1420 N 0.45118 0.70483 0.72554 0.0
N1421 N 0.52411 0.76773 0.79673 0.0
H1422 H 0.45713 0.81235 0.76271 0.0
H1423 H 0.49405 0.81648 0.7773 0.0
H1424 H 0.53891 0.7544 0.80874 0.0
H1425 H 0.51527 0.7868 0.80726 0.0
H1426 H 0.45697 0.68266 0.71863 0.0
H1427 H 0.42774 0.7106 0.72378 0.0
H1428 H 0.50294 0.68793 0.7033 0.0
H1429 H 0.54002 0.69457 0.71583 0.0
C1430 C 0.49009 0.23206 0.0521 0.0
C1431 C 0.49195 0.21397 0.02807 0.0
C1432 C 0.51188 0.25961 0.00382 0.0
C1433 C 0.51481 0.27542 0.02919 0.0
N1434 N 0.51704 0.27022 0.07855 0.0
N1435 N 0.509 0.20943 0.98129 0.0
C1436 C 0.50716 0.2597 0.0537 0.0
C1437 C 0.50414 0.22736 0.00386 0.0
N1438 N 0.47049 0.22409 0.07279 0.0
N1439 N 0.51508 0.27541 0.97986 0.0
H1440 H 0.50421 0.18567 0.98088 0.0
H1441 H 0.52039 0.21757 0.96396 0.0
H1442 H 0.51908 0.29926 0.97916 0.0
H1443 H 0.51054 0.26548 0.96088 0.0
H1444 H 0.46732 0.23805 0.08998 0.0
H1445 H 0.45429 0.20627 0.07074 0.0
H1446 H 0.51305 0.25786 0.09653 0.0
H1447 H 0.53256 0.28865 0.08078 0.0
C1448 C 0.98645 0.73554 0.26275 0.0
C1449 C 0.9708 0.7272 0.23841 0.0
C1450 C 0.01509 0.74351 0.21145 0.0
C1451 C 0.03241 0.74896 0.23566 0.0
N1452 N 0.03655 0.7427 0.28445 0.0
N1453 N 0.9752 0.71215 0.19103 0.0
C1454 C 0.01873 0.74265 0.26147 0.0
C1455 C 0.98693 0.72725 0.21329 0.0
N1456 N 0.97044 0.73801 0.28663 0.0
N1457 N 0.02372 0.7561 0.18696 0.0
H1458 H 0.955 0.69882 0.19191 0.0
H1459 H 0.98754 0.70998 0.17282 0.0
H1460 H 0.0419 0.77185 0.18477 0.0
H1461 H 0.00998 0.75435 0.1695 0.0
H1462 H 0.98024 0.74675 0.3045 0.0
H1463 H 0.94668 0.73376 0.28781 0.0
H1464 H 0.02815 0.73611 0.30352 0.0
H1465 H 0.06049 0.74606 0.28373 0.0
C1466 C 0.49358 0.72958 0.49922 0.0
C1467 C 0.50328 0.71589 0.47429 0.0
C1468 C 0.48753 0.76228 0.44959 0.0
C1469 C 0.48195 0.77788 0.47461 0.0
N1470 N 0.48389 0.77764 0.5238 0.0
N1471 N 0.51912 0.724 0.42736 0.0
C1472 C 0.48611 0.7619 0.49971 0.0
C1473 C 0.50321 0.73367 0.44996 0.0
N1474 N 0.49055 0.71166 0.52203 0.0
N1475 N 0.47654 0.77381 0.42545 0.0
H1476 H 0.53303 0.70418 0.42712 0.0
H1477 H 0.52158 0.73783 0.41001 0.0
H1478 H 0.46241 0.79341 0.42419 0.0
H1479 H 0.47814 0.76156 0.40714 0.0
H1480 H 0.48094 0.7198 0.54017 0.0
H1481 H 0.49512 0.68787 0.52199 0.0
H1482 H 0.48939 0.76779 0.5426 0.0
H1483 H 0.47924 0.80138 0.52468 0.0
C1484 C 0.46946 0.27093 0.74693 0.0
C1485 C 0.46691 0.23815 0.74732 0.0
C1486 C 0.5234 0.23364 0.75061 0.0
C1487 C 0.52595 0.26577 0.74504 0.0
N1488 N 0.50151 0.31525 0.73569 0.0
N1489 N 0.49163 0.18759 0.74702 0.0
C1490 C 0.49904 0.2847 0.74309 0.0
C1491 C 0.49388 0.21921 0.74903 0.0
N1492 N 0.44351 0.28879 0.75015 0.0
N1493 N 0.54929 0.21699 0.75731 0.0
H1494 H 0.47063 0.17575 0.7455 0.0
H1495 H 0.51079 0.1731 0.74467 0.0
H1496 H 0.57124 0.22714 0.75867 0.0
H1497 H 0.54855 0.19407 0.76411 0.0
H1498 H 0.44417 0.31284 0.75249 0.0
H1499 H 0.42154 0.27915 0.75317 0.0
H1500 H 0.48249 0.32901 0.73065 0.0
H1501 H 0.52266 0.32639 0.73253 0.0
C1502 C -0.00502 0.23115 0.00389 0.0
C1503 C 0.00238 0.21651 0.97871 0.0
C1504 C 0.98016 0.26031 0.95423 0.0
C1505 C 0.9779 0.27738 0.97885 0.0
N1506 N 0.98777 0.28032 0.02727 0.0
N1507 N 0.01156 0.22345 0.93018 0.0
C1508 C 0.98658 0.2632 0.00386 0.0
C1509 C -0.00218 0.23291 0.95391 0.0
N1510 N -0.00536 0.21439 0.0275 0.0
N1511 N 0.96451 0.26939 0.93132 0.0
H1512 H 0.02775 0.20548 0.92931 0.0
H1513 H 0.01001 0.23624 0.91215 0.0
H1514 H 0.94915 0.28812 0.93108 0.0
H1515 H 0.964 0.25594 0.9136 0.0
H1516 H 0.98695 0.22346 0.04602 0.0
H1517 H -0.00121 0.19055 0.02791 0.0
H1518 H -0.00346 0.27165 0.04556 0.0
H1519 H 0.98278 0.304 0.02766 0.0
C1520 C 0.96115 0.72422 0.74341 0.0
C1521 C 0.9594 0.75707 0.7427 0.0
C1522 C 0.01566 0.76042 0.74853 0.0
C1523 C 0.01775 0.7281 0.74374 0.0
N1524 N 0.99271 0.67881 0.73486 0.0
N1525 N 0.98543 0.80702 0.74202 0.0
C1526 C 0.99056 0.70967 0.74124 0.0
C1527 C 0.98668 0.77546 0.74514 0.0
N1528 N 0.93463 0.70707 0.74608 0.0
N1529 N 0.04152 0.77667 0.75607 0.0
H1530 H 0.96492 0.81929 0.73889 0.0
H1531 H 0.00511 0.82093 0.74026 0.0
H1532 H 0.06306 0.76601 0.75877 0.0
H1533 H 0.04094 0.79982 0.76228 0.0
H1534 H 0.93459 0.68312 0.74913 0.0
H1535 H 0.91277 0.71729 0.74792 0.0
H1536 H 0.97366 0.66526 0.72941 0.0
H1537 H 0.01375 0.66707 0.7331 0.0
C1538 C 0.02319 0.2489 0.49413 0.0
C1539 C 0.00366 0.27546 0.49226 0.0
C1540 C 0.95776 0.24209 0.49055 0.0
C1541 C 0.9773 0.21562 0.49276 0.0
N1542 N 0.02695 0.19392 0.50443 0.0
N1543 N 0.95271 0.29786 0.49615 0.0
C1544 C 0.0095 0.21915 0.49729 0.0
C1545 C 0.971 0.27217 0.49304 0.0
N1546 N 0.05457 0.2516 0.49073 0.0
N1547 N 0.92707 0.2387 0.48414 0.0
H1548 H 0.96191 0.32018 0.49823 0.0
H1549 H 0.92885 0.29672 0.49936 0.0
H1550 H 0.91625 0.21718 0.48206 0.0
H1551 H 0.91276 0.25726 0.4789 0.0
H1552 H 0.06926 0.23255 0.48858 0.0
H1553 H 0.06587 0.2727 0.48768 0.0
H1554 H 0.05006 0.1955 0.51047 0.0
H1555 H 0.01732 0.17184 0.50697 0.0
C1556 C 0.46262 0.22849 0.23955 0.0
C1557 C 0.45986 0.26124 0.24124 0.0
C1558 C 0.51619 0.26568 0.24651 0.0
C1559 C 0.51917 0.23384 0.23986 0.0
N1560 N 0.49528 0.18505 0.22716 0.0
N1561 N 0.48472 0.3118 0.24254 0.0
C1562 C 0.49241 0.21506 0.236 0.0
C1563 C 0.48676 0.28013 0.24417 0.0
N1564 N 0.4367 0.21031 0.2414 0.0
N1565 N 0.54155 0.2821 0.25504 0.0
H1566 H 0.46393 0.32374 0.23999 0.0
H1567 H 0.50407 0.32623 0.24121 0.0
H1568 H 0.56344 0.27199 0.25711 0.0
H1569 H 0.54022 0.30466 0.26266 0.0
H1570 H 0.43749 0.18616 0.24277 0.0
H1571 H 0.41458 0.21958 0.24433 0.0
H1572 H 0.47649 0.17161 0.22087 0.0
H1573 H 0.5166 0.17424 0.22395 0.0
C1574 C 0.50975 0.76471 1.00104 0.0
C1575 C 0.50975 0.78022 0.97534 0.0
C1576 C 0.48066 0.73734 0.95582 0.0
C1577 C 0.48644 0.71927 0.9792 0.0
N1578 N 0.50789 0.71486 0.0244 0.0
N1579 N 0.50421 0.77451 0.92618 0.0
C1580 C 0.50136 0.73265 0.00209 0.0
C1581 C 0.49761 0.76476 0.95207 0.0
N1582 N 0.51641 0.78068 0.02435 0.0
N1583 N 0.4587 0.72859 0.93732 0.0
H1584 H 0.52062 0.79164 0.92196 0.0
H1585 H 0.49686 0.76233 0.90893 0.0
H1586 H 0.4442 0.70952 0.94063 0.0
H1587 H 0.45259 0.74249 0.92071 0.0
H1588 H 0.51448 0.77102 0.04377 0.0
H1589 H 0.52051 0.80451 0.02435 0.0
H1590 H 0.52149 0.72268 0.04058 0.0
H1591 H 0.50126 0.69158 0.0258 0.0
C1592 C 0.97813 0.23858 0.79443 0.0
C1593 C 0.96319 0.22854 0.77019 0.0
C1594 C 0.01163 0.2378 0.74506 0.0
C1595 C 0.02435 0.25182 0.76877 0.0
N1596 N 0.01361 0.27646 0.81201 0.0
N1597 N 0.96445 0.22342 0.7211 0.0
C1598 C 0.00579 0.25549 0.79229 0.0
C1599 C 0.97957 0.22936 0.745 0.0
N1600 N 0.96681 0.23102 0.81962 0.0
N1601 N 0.03008 0.23201 0.72301 0.0
H1602 H 0.94085 0.21836 0.72032 0.0
H1603 H 0.97464 0.22641 0.70201 0.0
H1604 H 0.05354 0.23793 0.72254 0.0
H1605 H 0.02268 0.21919 0.70619 0.0
H1606 H 0.97859 0.23657 0.83759 0.0
H1607 H 0.94819 0.21588 0.82248 0.0
H1608 H -0.00068 0.28117 0.82869 0.0
H1609 H 0.03197 0.29199 0.80955 0.0
C1610 C 0.48857 0.26014 0.55246 0.0
C1611 C 0.48236 0.27511 0.52726 0.0
C1612 C 0.49227 0.22588 0.50348 0.0
C1613 C 0.50289 0.21281 0.5284 0.0
N1614 N 0.52054 0.22219 0.5747 0.0
N1615 N 0.48201 0.27325 0.47805 0.0
C1616 C 0.50382 0.23128 0.55235 0.0
C1617 C 0.48514 0.25826 0.50245 0.0
N1618 N 0.47872 0.27265 0.5766 0.0
N1619 N 0.48814 0.20732 0.48119 0.0
H1620 H 0.47737 0.29697 0.47668 0.0
H1621 H 0.48664 0.26276 0.45934 0.0
H1622 H 0.49243 0.18348 0.48163 0.0
H1623 H 0.47786 0.21501 0.46318 0.0
H1624 H 0.48076 0.26094 0.59515 0.0
H1625 H 0.46504 0.29258 0.57776 0.0
H1626 H 0.52375 0.23653 0.59163 0.0
H1627 H 0.53436 0.20233 0.57505 0.0
C1628 C 0.46737 0.76309 0.25562 0.0
C1629 C 0.46429 0.73046 0.25747 0.0
C1630 C 0.52079 0.72475 0.25749 0.0
C1631 C 0.5236 0.75737 0.26014 0.0
N1632 N 0.49942 0.80781 0.26528 0.0
N1633 N 0.48779 0.6798 0.26321 0.0
C1634 C 0.4969 0.77674 0.25977 0.0
C1635 C 0.49091 0.71103 0.25881 0.0
N1636 N 0.44197 0.78095 0.24989 0.0
N1637 N 0.54667 0.70698 0.25353 0.0
H1638 H 0.46642 0.66859 0.26439 0.0
H1639 H 0.5064 0.66528 0.26779 0.0
H1640 H 0.56893 0.71645 0.25242 0.0
H1641 H 0.54582 0.68339 0.24881 0.0
H1642 H 0.44325 0.80466 0.24576 0.0
H1643 H 0.42001 0.77142 0.24663 0.0
H1644 H 0.48035 0.82221 0.26845 0.0
H1645 H 0.52048 0.81888 0.26913 0.0
C1646 C 0.99151 0.72929 1.0005 0.0
C1647 C -0.00112 0.71546 0.02603 0.0
C1648 C 0.97573 0.75943 0.0496 0.0
C1649 C 0.9732 0.77573 0.0246 0.0
N1650 N 0.98222 0.77749 0.97603 0.0
N1651 N 0.00713 0.72335 0.07456 0.0
C1652 C 0.98199 0.76105 0.99984 0.0
C1653 C 0.99365 0.73223 0.05053 0.0
N1654 N 0.99249 0.712 0.97719 0.0
N1655 N 0.96032 0.7693 0.0724 0.0
H1656 H 0.02317 0.70528 0.07596 0.0
H1657 H 0.00548 0.73661 0.09232 0.0
H1658 H 0.94494 0.78802 0.07224 0.0
H1659 H 0.95987 0.75645 0.09044 0.0
H1660 H 0.98481 0.72021 0.95837 0.0
H1661 H -0.00189 0.68846 0.97726 0.0
H1662 H 0.99121 0.76871 0.95787 0.0
H1663 H 0.97582 0.80081 0.97503 0.0
C1664 C 0.12679 0.31863 0.37353 0.0
C1665 C 0.1201 0.28639 0.37513 0.0
C1666 C 0.1177 0.29066 0.42489 0.0
C1667 C 0.11482 0.32314 0.42211 0.0
N1668 N 0.12216 0.36912 0.39548 0.0
N1669 N 0.10966 0.24099 0.40305 0.0
C1670 C 0.1221 0.33746 0.39699 0.0
C1671 C 0.11668 0.27189 0.40108 0.0
N1672 N 0.13721 0.33103 0.34958 0.0
N1673 N 0.11985 0.27791 0.45029 0.0
H1674 H 0.10787 0.2262 0.38633 0.0
H1675 H 0.1033 0.23036 0.42131 0.0
H1676 H 0.12099 0.29166 0.46779 0.0
H1677 H 0.12403 0.25439 0.4537 0.0
H1678 H 0.14447 0.35399 0.34752 0.0
H1679 H 0.1412 0.31742 0.3323 0.0
H1680 H 0.12364 0.38151 0.37729 0.0
H1681 H 0.11978 0.38285 0.41295 0.0
C1682 C 0.94839 0.8719 0.67444 0.0
C1683 C 0.91596 0.87006 0.6713 0.0
C1684 C 0.92155 0.88092 0.62264 0.0
C1685 C 0.95342 0.87296 0.62473 0.0
N1686 N -0.00213 0.86122 0.6534 0.0
N1687 N 0.87073 0.87868 0.64412 0.0
C1688 C 0.9674 0.86955 0.6509 0.0
C1689 C 0.90229 0.87747 0.64595 0.0
N1690 N 0.96078 0.87408 0.69998 0.0
N1691 N 0.9099 0.89133 0.59839 0.0
H1692 H 0.85676 0.87707 0.66149 0.0
H1693 H 0.85864 0.88032 0.62579 0.0
H1694 H 0.92384 0.89441 0.58119 0.0
H1695 H 0.88733 0.89945 0.59598 0.0
H1696 H 0.98435 0.87749 0.70362 0.0
H1697 H 0.9468 0.87601 0.71727 0.0
H1698 H 0.00792 0.85493 0.67192 0.0
H1699 H 0.01275 0.85817 0.63691 0.0
C1700 C 0.37658 0.65143 0.89114 0.0
C1701 C 0.40841 0.65574 0.89769 0.0
C1702 C 0.41696 0.68098 0.85348 0.0
C1703 C 0.38476 0.68019 0.84844 0.0
N1704 N 0.33296 0.66747 0.8629 0.0
N1705 N 0.45692 0.68242 0.88745 0.0
C1706 C 0.3642 0.66619 0.8674 0.0
C1707 C 0.42808 0.67262 0.87949 0.0
N1708 N 0.35858 0.63245 0.90689 0.0
N1709 N 0.43713 0.68982 0.83335 0.0
H1710 H 0.46633 0.67841 0.90665 0.0
H1711 H 0.4703 0.69786 0.87604 0.0
H1712 H 0.42997 0.69656 0.8139 0.0
H1713 H 0.46112 0.68746 0.83506 0.0
H1714 H 0.33604 0.62605 0.90168 0.0
H1715 H 0.36704 0.62106 0.92413 0.0
H1716 H 0.31653 0.6607 0.8773 0.0
H1717 H 0.32351 0.67701 0.84518 0.0
C1718 C 0.5877 0.12541 0.11611 0.0
C1719 C 0.55845 0.10995 0.11638 0.0
C1720 C 0.55798 0.11137 0.1664 0.0
C1721 C 0.58608 0.12846 0.16586 0.0
N1722 N 0.63351 0.13939 0.14216 0.0
N1723 N 0.52372 0.0768 0.14174 0.0
C1724 C 0.60306 0.13072 0.14128 0.0
C1725 C 0.54636 0.09898 0.14158 0.0
N1726 N 0.59967 0.13772 0.09266 0.0
N1727 N 0.54114 0.1088 0.18989 0.0
H1728 H 0.51571 0.06648 0.12385 0.0
H1729 H 0.51575 0.06621 0.15953 0.0
H1730 H 0.54907 0.11641 0.20879 0.0
H1731 H 0.51849 0.10034 0.1903 0.0
H1732 H 0.61893 0.15235 0.09251 0.0
H1733 H 0.58944 0.13572 0.07358 0.0
H1734 H 0.64794 0.13915 0.1251 0.0
H1735 H 0.64489 0.14352 0.16064 0.0
C1736 C 0.10737 0.64754 0.12032 0.0
C1737 C 0.10722 0.66169 0.0943 0.0
C1738 C 0.13457 0.70624 0.11379 0.0
C1739 C 0.12639 0.69599 0.14039 0.0
N1740 N 0.1013 0.65661 0.16843 0.0
N1741 N 0.12105 0.70574 0.066 0.0
C1742 C 0.11251 0.66617 0.14373 0.0
C1743 C 0.12159 0.69109 0.09072 0.0
N1744 N 0.10113 0.61655 0.12257 0.0
N1745 N 0.15481 0.73035 0.11057 0.0
H1746 H 0.11267 0.69557 0.04822 0.0
H1747 H 0.12746 0.72892 0.0635 0.0
H1748 H 0.16561 0.74107 0.12707 0.0
H1749 H 0.16356 0.73709 0.09165 0.0
H1750 H 0.10322 0.60438 0.14088 0.0
H1751 H 0.09722 0.60263 0.10544 0.0
H1752 H 0.0882 0.63642 0.17078 0.0
H1753 H 0.10189 0.66996 0.18608 0.0
C1754 C 0.54194 0.8726 0.32484 0.0
C1755 C 0.5743 0.8691 0.32764 0.0
C1756 C 0.56964 0.87856 0.37666 0.0
C1757 C 0.53745 0.87211 0.3746 0.0
N1758 N 0.49211 0.86401 0.34611 0.0
N1759 N 0.62011 0.87542 0.35457 0.0
C1760 C 0.52306 0.87041 0.34849 0.0
C1761 C 0.5885 0.87528 0.35306 0.0
N1762 N 0.52943 0.87652 0.29952 0.0
N1763 N 0.58195 0.88732 0.40117 0.0
H1764 H 0.63377 0.8739 0.33701 0.0
H1765 H 0.63252 0.87619 0.37278 0.0
H1766 H 0.56828 0.89022 0.41856 0.0
H1767 H 0.6049 0.89425 0.40373 0.0
H1768 H 0.50601 0.88113 0.29621 0.0
H1769 H 0.54332 0.87872 0.2822 0.0
H1770 H 0.48148 0.85888 0.32755 0.0
H1771 H 0.47727 0.86158 0.36271 0.0
C1772 C 0.3901 0.32336 0.64662 0.0
C1773 C 0.37712 0.29309 0.64382 0.0
C1774 C 0.3747 0.30028 0.59416 0.0
C1775 C 0.38693 0.33072 0.59726 0.0
N1776 N 0.39579 0.37453 0.62659 0.0
N1777 N 0.34772 0.25766 0.61549 0.0
C1778 C 0.39053 0.34342 0.62368 0.0
C1779 C 0.36634 0.28316 0.61778 0.0
N1780 N 0.40473 0.33213 0.67015 0.0
N1781 N 0.37308 0.28657 0.56904 0.0
H1782 H 0.34041 0.24493 0.63225 0.0
H1783 H 0.33678 0.25134 0.59734 0.0
H1784 H 0.37794 0.298 0.55084 0.0
H1785 H 0.36864 0.26295 0.5664 0.0
H1786 H 0.41708 0.35286 0.67193 0.0
H1787 H 0.40792 0.31747 0.6868 0.0
H1788 H 0.3963 0.38558 0.64551 0.0
H1789 H 0.39627 0.38952 0.60983 0.0
C1790 C 0.90952 0.13489 0.89229 0.0
C1791 C 0.93788 0.11818 0.88985 0.0
C1792 C 0.93049 0.115 0.84028 0.0
C1793 C 0.90235 0.13185 0.84295 0.0
N1794 N 0.8597 0.14636 0.87176 0.0
N1795 N 0.96849 0.0827 0.86281 0.0
C1796 C 0.88991 0.13734 0.8692 0.0
C1797 C 0.94608 0.105 0.86425 0.0
N1798 N 0.90247 0.15106 0.91548 0.0
N1799 N 0.94368 0.11028 0.81528 0.0
H1800 H 0.97939 0.07397 0.8801 0.0
H1801 H 0.97346 0.0704 0.84503 0.0
H1802 H 0.93301 0.11599 0.79694 0.0
H1803 H 0.96625 0.10206 0.81285 0.0
H1804 H 0.88353 0.16604 0.91679 0.0
H1805 H 0.91701 0.15256 0.93236 0.0
H1806 H 0.84865 0.14853 0.89058 0.0
H1807 H 0.84506 0.14831 0.85485 0.0
C1808 C 0.88916 0.67003 0.64216 0.0
C1809 C 0.87492 0.6996 0.63862 0.0
C1810 C 0.87426 0.69138 0.58907 0.0
C1811 C 0.88744 0.66145 0.59289 0.0
N1812 N 0.8971 0.61865 0.6232 0.0
N1813 N 0.84457 0.73291 0.60915 0.0
C1814 C 0.89088 0.64948 0.6196 0.0
C1815 C 0.86437 0.70846 0.61224 0.0
N1816 N 0.90374 0.66243 0.66602 0.0
N1817 N 0.87315 0.70479 0.5638 0.0
H1818 H 0.83602 0.74546 0.62557 0.0
H1819 H 0.83391 0.73833 0.59066 0.0
H1820 H 0.87955 0.69361 0.54588 0.0
H1821 H 0.86777 0.72817 0.56087 0.0
H1822 H 0.91689 0.64228 0.66832 0.0
H1823 H 0.90612 0.67761 0.68242 0.0
H1824 H 0.89757 0.60812 0.64235 0.0
H1825 H 0.89843 0.60324 0.60677 0.0
C1826 C 0.06861 0.12537 0.38746 0.0
C1827 C 0.03685 0.13364 0.38446 0.0
C1828 C 0.04298 0.13173 0.33484 0.0
C1829 C 0.0755 0.13192 0.33822 0.0
N1830 N 0.11996 0.12567 0.36697 0.0
N1831 N 0.99422 0.14758 0.35452 0.0
C1832 C 0.08846 0.12696 0.36434 0.0
C1833 C 0.02384 0.13687 0.35792 0.0
N1834 N 0.07967 0.11592 0.41222 0.0
N1835 N 0.03054 0.12819 0.30942 0.0
H1836 H 0.97969 0.15364 0.37063 0.0
H1837 H 0.98509 0.15357 0.33555 0.0
H1838 H 0.04426 0.12392 0.29232 0.0
H1839 H 0.00681 0.12575 0.30596 0.0
H1840 H 0.10195 0.10717 0.4151 0.0
H1841 H 0.06566 0.11417 0.42949 0.0
H1842 H 0.13144 0.12605 0.38567 0.0
H1843 H 0.13453 0.12537 0.34994 0.0
C1844 C 0.62561 0.30034 0.09306 0.0
C1845 C 0.61769 0.33223 0.09536 0.0
C1846 C 0.62657 0.3301 0.14461 0.0
C1847 C 0.62595 0.29726 0.14277 0.0
N1848 N 0.64596 0.25479 0.11583 0.0
N1849 N 0.61685 0.37925 0.12167 0.0
C1850 C 0.63225 0.28333 0.11714 0.0
C1851 C 0.62106 0.34783 0.12064 0.0
N1852 N 0.62422 0.2857 0.06836 0.0
N1853 N 0.63387 0.34396 0.16882 0.0
H1854 H 0.61421 0.3925 0.10396 0.0
H1855 H 0.61522 0.39191 0.1397 0.0
H1856 H 0.6413 0.33111 0.18564 0.0
H1857 H 0.63628 0.36785 0.17134 0.0
H1858 H 0.62502 0.26163 0.06618 0.0
H1859 H 0.62118 0.29754 0.05004 0.0
H1860 H 0.653 0.24448 0.09763 0.0
H1861 H 0.65445 0.24352 0.13309 0.0
C1862 C 0.42986 0.8764 0.86613 0.0
C1863 C 0.45577 0.85875 0.87513 0.0
C1864 C 0.4477 0.82126 0.83846 0.0
C1865 C 0.42156 0.83866 0.82929 0.0
N1866 N 0.39059 0.88501 0.83107 0.0
N1867 N 0.49349 0.81825 0.8666 0.0
C1868 C 0.4137 0.86718 0.84195 0.0
C1869 C 0.46611 0.83262 0.86011 0.0
N1870 N 0.42035 0.9014 0.88116 0.0
N1871 N 0.45395 0.79267 0.82755 0.0
H1872 H 0.50708 0.82398 0.88338 0.0
H1873 H 0.50414 0.80181 0.85417 0.0
H1874 H 0.44326 0.78419 0.81008 0.0
H1875 H 0.46849 0.77642 0.83673 0.0
H1876 H 0.39994 0.9136 0.87752 0.0
H1877 H 0.43253 0.90929 0.89822 0.0
H1878 H 0.38503 0.90719 0.83792 0.0
H1879 H 0.37823 0.8783 0.81374 0.0
C1880 C 0.87005 0.29892 0.91707 0.0
C1881 C 0.87378 0.3313 0.91379 0.0
C1882 C 0.86738 0.32518 0.86448 0.0
C1883 C 0.87296 0.29285 0.86752 0.0
N1884 N 0.88094 0.24866 0.89747 0.0
N1885 N 0.87115 0.37636 0.88527 0.0
C1886 C 0.87382 0.27937 0.89402 0.0
C1887 C 0.87007 0.34479 0.8877 0.0
N1888 N 0.86422 0.2869 0.9423 0.0
N1889 N 0.85967 0.33693 0.83949 0.0
H1890 H 0.87181 0.39077 0.90243 0.0
H1891 H 0.87235 0.38798 0.86667 0.0
H1892 H 0.85707 0.32286 0.8223 0.0
H1893 H 0.85315 0.35994 0.83633 0.0
H1894 H 0.85931 0.26348 0.94561 0.0
H1895 H 0.86046 0.30102 0.95926 0.0
H1896 H 0.88535 0.23884 0.91652 0.0
H1897 H 0.88526 0.23343 0.88142 0.0
C1898 C 0.42456 0.11115 0.6322 0.0
C1899 C 0.45638 0.11966 0.63321 0.0
C1900 C 0.45299 0.12232 0.68299 0.0
C1901 C 0.42046 0.12373 0.68066 0.0
N1902 N 0.37446 0.11348 0.65497 0.0
N1903 N 0.50162 0.1329 0.66044 0.0
C1904 C 0.40605 0.11517 0.65591 0.0
C1905 C 0.47119 0.12411 0.65892 0.0
N1906 N 0.41222 0.0997 0.60859 0.0
N1907 N 0.4662 0.12115 0.70825 0.0
H1908 H 0.51593 0.13558 0.64351 0.0
H1909 H 0.5122 0.13989 0.67854 0.0
H1910 H 0.45275 0.1197 0.72591 0.0
H1911 H 0.48991 0.11812 0.7114 0.0
H1912 H 0.3897 0.09114 0.60703 0.0
H1913 H 0.42557 0.09624 0.5911 0.0
H1914 H 0.36177 0.11099 0.63702 0.0
H1915 H 0.36109 0.11559 0.67265 0.0
C1916 C 0.62865 0.71093 0.38742 0.0
C1917 C 0.61993 0.69993 0.36111 0.0
C1918 C 0.60793 0.64947 0.38164 0.0
C1919 C 0.60822 0.66316 0.40783 0.0
N1920 N 0.61945 0.70791 0.43601 0.0
N1921 N 0.59677 0.65848 0.3342 0.0
C1922 C 0.61944 0.69396 0.41098 0.0
C1923 C 0.60905 0.66884 0.35826 0.0
N1924 N 0.64605 0.73728 0.38994 0.0
N1925 N 0.60467 0.61804 0.37931 0.0
H1926 H 0.59388 0.67237 0.31702 0.0
H1927 H 0.58592 0.63695 0.33227 0.0
H1928 H 0.60345 0.60369 0.39647 0.0
H1929 H 0.60651 0.60634 0.36075 0.0
H1930 H 0.65529 0.74478 0.40846 0.0
H1931 H 0.6542 0.74963 0.37314 0.0
H1932 H 0.62313 0.73165 0.43868 0.0
H1933 H 0.61449 0.69615 0.45403 0.0
C1934 C 0.03573 0.85723 0.172 0.0
C1935 C 0.0683 0.85966 0.16973 0.0
C1936 C 0.0628 0.87567 0.12209 0.0
C1937 C 0.03143 0.86563 0.12275 0.0
N1938 N 0.98822 0.84444 0.14849 0.0
N1939 N 0.11337 0.87386 0.14399 0.0
C1940 C 0.01758 0.85654 0.14788 0.0
C1941 C 0.08192 0.87041 0.14527 0.0
N1942 N 0.02243 0.85402 0.19712 0.0
N1943 N 0.07416 0.89009 0.09936 0.0
H1944 H 0.12737 0.87149 0.16127 0.0
H1945 H 0.12549 0.87796 0.12598 0.0
H1946 H 0.06048 0.89446 0.08223 0.0
H1947 H 0.09611 0.90012 0.09838 0.0
H1948 H -0.00146 0.85455 0.20028 0.0
H1949 H 0.03544 0.85432 0.21506 0.0
H1950 H 0.97863 0.83412 0.16576 0.0
H1951 H 0.97426 0.84191 0.1313 0.0
C1952 C 0.6253 0.83243 0.85403 0.0
C1953 C 0.62696 0.79957 0.85462 0.0
C1954 C 0.6232 0.8 0.90436 0.0
C1955 C 0.61421 0.83169 0.90308 0.0
N1956 N 0.61184 0.87984 0.8783 0.0
N1957 N 0.64792 0.7571 0.88094 0.0
C1958 C 0.61763 0.84863 0.87842 0.0
C1959 C 0.63245 0.78475 0.88001 0.0
N1960 N 0.63268 0.84787 0.83058 0.0
N1961 N 0.6206 0.7838 0.92822 0.0
H1962 H 0.65847 0.74754 0.86374 0.0
H1963 H 0.65431 0.74625 0.89908 0.0
H1964 H 0.61486 0.79422 0.94672 0.0
H1965 H 0.62265 0.75971 0.92934 0.0
H1966 H 0.63356 0.87195 0.8289 0.0
H1967 H 0.64157 0.83629 0.81358 0.0
H1968 H 0.61018 0.89319 0.86067 0.0
H1969 H 0.60792 0.89226 0.89629 0.0
C1970 C 0.4495 0.37426 0.17818 0.0
C1971 C 0.41714 0.37375 0.17418 0.0
C1972 C 0.42513 0.3807 0.12517 0.0
C1973 C 0.45651 0.3713 0.12867 0.0
N1974 N 0.49903 0.35924 0.15941 0.0
N1975 N 0.37356 0.38325 0.14529 0.0
C1976 C 0.46921 0.36904 0.15544 0.0
C1977 C 0.40491 0.38022 0.14808 0.0
N1978 N 0.46106 0.37817 0.20385 0.0
N1979 N 0.41479 0.38972 0.10005 0.0
H1980 H 0.359 0.38375 0.16234 0.0
H1981 H 0.36214 0.38429 0.1266 0.0
H1982 H 0.42919 0.39037 0.08297 0.0
H1983 H 0.39284 0.39896 0.09656 0.0
H1984 H 0.48465 0.38067 0.20796 0.0
H1985 H 0.44657 0.38252 0.22046 0.0
H1986 H 0.50799 0.35393 0.17859 0.0
H1987 H 0.51421 0.35385 0.1436 0.0
C1988 C 0.86893 0.14551 0.39357 0.0
C1989 C 0.87234 0.16005 0.41922 0.0
C1990 C 0.87186 0.21118 0.3981 0.0
C1991 C 0.87246 0.1966 0.37202 0.0
N1992 N 0.86009 0.15148 0.34493 0.0
N1993 N 0.86171 0.20494 0.44655 0.0
C1994 C 0.86693 0.16418 0.36975 0.0
C1995 C 0.86789 0.19236 0.4216 0.0
N1996 N 0.87013 0.11387 0.39219 0.0
N1997 N 0.87787 0.24222 0.40083 0.0
H1998 H 0.85859 0.19106 0.46379 0.0
H1999 H 0.85632 0.22831 0.44942 0.0
H2000 H 0.88211 0.25701 0.38445 0.0
H2001 H 0.88116 0.25296 0.41966 0.0
H2002 H 0.87151 0.10143 0.37401 0.0
H2003 H 0.87067 0.10027 0.40985 0.0
H2004 H 0.8538 0.12833 0.34223 0.0
H2005 H 0.858 0.16494 0.32731 0.0
C2006 C 0.072 0.61436 0.62144 0.0
C2007 C 0.03949 0.61918 0.62257 0.0
C2008 C 0.04147 0.61526 0.67232 0.0
C2009 C 0.07376 0.62011 0.671 0.0
N2010 N 0.12112 0.61784 0.64576 0.0
N2011 N 0.9924 0.62302 0.64945 0.0
C2012 C 0.08949 0.61653 0.64593 0.0
C2013 C 0.02372 0.61826 0.64807 0.0
N2014 N 0.08587 0.60822 0.59697 0.0
N2015 N 0.02788 0.60958 0.69695 0.0
H2016 H 0.97834 0.62592 0.63237 0.0
H2017 H 0.98053 0.62624 0.66774 0.0
H2018 H 0.04099 0.6072 0.71473 0.0
H2019 H 0.00453 0.60391 0.69919 0.0
H2020 H 0.10923 0.60259 0.59492 0.0
H2021 H 0.07321 0.60622 0.57889 0.0
H2022 H 0.13447 0.61897 0.62809 0.0
H2023 H 0.13379 0.61859 0.66393 0.0
C2024 C 0.60425 0.22042 0.60898 0.0
C2025 C 0.60776 0.20831 0.63583 0.0
C2026 C 0.61537 0.1561 0.61695 0.0
C2027 C 0.60948 0.16806 0.59061 0.0
N2028 N 0.61273 0.21205 0.56062 0.0
N2029 N 0.62677 0.16674 0.66448 0.0
C2030 C 0.60939 0.20049 0.58637 0.0
C2031 C 0.61681 0.17679 0.63954 0.0
N2032 N 0.59335 0.24988 0.60486 0.0
N2033 N 0.61753 0.12469 0.62031 0.0
H2034 H 0.62837 0.18136 0.68138 0.0
H2035 H 0.63604 0.14474 0.66784 0.0
H2036 H 0.61784 0.1096 0.6036 0.0
H2037 H 0.61789 0.11376 0.63926 0.0
H2038 H 0.58721 0.25833 0.58569 0.0
H2039 H 0.58737 0.26496 0.62061 0.0
H2040 H 0.61486 0.23571 0.55649 0.0
H2041 H 0.61723 0.19771 0.54394 0.0
C2042 C 0.07394 0.36998 0.84965 0.0
C2043 C 0.07562 0.33755 0.84429 0.0
C2044 C 0.03846 0.32738 0.88124 0.0
C2045 C 0.03883 0.35928 0.88805 0.0
N2046 N 0.05803 0.41108 0.8809 0.0
N2047 N 0.06192 0.28467 0.8577 0.0
C2048 C 0.05683 0.38071 0.8728 0.0
C2049 C 0.05872 0.31611 0.86091 0.0
N2050 N 0.08882 0.39039 0.83275 0.0
N2051 N 0.01765 0.30776 0.89346 0.0
H2052 H 0.07183 0.2741 0.8408 0.0
H2053 H 0.05514 0.26864 0.87248 0.0
H2054 H 0.00314 0.31437 0.9094 0.0
H2055 H 0.01275 0.28555 0.88619 0.0
H2056 H 0.08604 0.41438 0.8337 0.0
H2057 H 0.10299 0.38324 0.8167 0.0
H2058 H 0.07293 0.42752 0.8725 0.0
H2059 H 0.04517 0.41953 0.89733 0.0
C2060 C 0.87722 0.78189 0.11287 0.0
C2061 C 0.87893 0.79654 0.13887 0.0
C2062 C 0.87092 0.84726 0.11747 0.0
C2063 C 0.87249 0.83274 0.09167 0.0
N2064 N 0.86179 0.78696 0.06545 0.0
N2065 N 0.86665 0.84128 0.16656 0.0
C2066 C 0.86975 0.80019 0.08974 0.0
C2067 C 0.87205 0.8287 0.14142 0.0
N2068 N 0.88533 0.75138 0.10969 0.0
N2069 N 0.87075 0.87893 0.11871 0.0
H2070 H 0.86684 0.82803 0.18438 0.0
H2071 H 0.8593 0.86407 0.16951 0.0
H2072 H 0.8689 0.89242 0.10105 0.0
H2073 H 0.87341 0.89153 0.13669 0.0
H2074 H 0.88762 0.74083 0.09066 0.0
H2075 H 0.89265 0.73722 0.12566 0.0
H2076 H 0.85757 0.76325 0.06317 0.0
H2077 H 0.85585 0.80039 0.04851 0.0
C2078 C 0.44539 0.61792 0.32169 0.0
C2079 C 0.41299 0.62045 0.32457 0.0
C2080 C 0.41845 0.61333 0.3738 0.0
C2081 C 0.45036 0.62119 0.37134 0.0
N2082 N 0.49485 0.63044 0.342 0.0
N2083 N 0.3677 0.61383 0.35201 0.0
C2084 C 0.46438 0.62236 0.34503 0.0
C2085 C 0.39927 0.61489 0.35025 0.0
N2086 N 0.45777 0.61305 0.29646 0.0
N2087 N 0.40667 0.60475 0.39854 0.0
H2088 H 0.35386 0.6142 0.33451 0.0
H2089 H 0.35552 0.61357 0.37035 0.0
H2090 H 0.42046 0.60303 0.41597 0.0
H2091 H 0.3841 0.59674 0.40129 0.0
H2092 H 0.48132 0.60908 0.29318 0.0
H2093 H 0.44373 0.60952 0.27939 0.0
H2094 H 0.50491 0.63496 0.32309 0.0
H2095 H 0.50966 0.63514 0.35826 0.0
C2096 C 0.42658 0.18087 0.12032 0.0
C2097 C 0.40499 0.1667 0.1019 0.0
C2098 C 0.3618 0.19128 0.12656 0.0
C2099 C 0.38357 0.20644 0.14372 0.0
N2100 N 0.43645 0.21899 0.15547 0.0
N2101 N 0.35239 0.15925 0.08646 0.0
C2102 C 0.41582 0.2019 0.14034 0.0
C2103 C 0.37265 0.17227 0.10466 0.0
N2104 N 0.45766 0.17456 0.11881 0.0
N2105 N 0.33081 0.19454 0.1317 0.0
H2106 H 0.3592 0.14331 0.07161 0.0
H2107 H 0.32899 0.16493 0.08526 0.0
H2108 H 0.32235 0.20878 0.14719 0.0
H2109 H 0.31347 0.18203 0.12185 0.0
H2110 H 0.473 0.17834 0.1349 0.0
H2111 H 0.4686 0.16546 0.10173 0.0
H2112 H 0.46004 0.22056 0.15115 0.0
H2113 H 0.42995 0.23353 0.17146 0.0
C2114 C 0.56566 0.61504 0.84074 0.0
C2115 C 0.59255 0.63384 0.839 0.0
C2116 C 0.59543 0.63712 0.88874 0.0
C2117 C 0.56788 0.619 0.89069 0.0
N2118 N 0.53458 0.58116 0.86905 0.0
N2119 N 0.63929 0.65176 0.86057 0.0
C2120 C 0.55567 0.60468 0.86681 0.0
C2121 C 0.60971 0.6407 0.86287 0.0
N2122 N 0.54839 0.60881 0.81802 0.0
N2123 N 0.60652 0.6534 0.91063 0.0
H2124 H 0.65007 0.65448 0.84163 0.0
H2125 H 0.65392 0.65491 0.87729 0.0
H2126 H 0.59636 0.65323 0.92985 0.0
H2127 H 0.6244 0.6696 0.90903 0.0
H2128 H 0.52643 0.59873 0.81887 0.0
H2129 H 0.5551 0.61528 0.79843 0.0
H2130 H 0.52684 0.5682 0.85242 0.0
H2131 H 0.52765 0.57231 0.88785 0.0
C2132 C 0.11097 0.83736 0.61726 0.0
C2133 C 0.1077 0.82486 0.59075 0.0
C2134 C 0.10161 0.77275 0.60939 0.0
C2135 C 0.10265 0.78534 0.63623 0.0
N2136 N 0.11858 0.82766 0.66552 0.0
N2137 N 0.11433 0.78043 0.56169 0.0
C2138 C 0.11084 0.81707 0.64014 0.0
C2139 C 0.10849 0.79237 0.58695 0.0
N2140 N 0.11217 0.86886 0.62037 0.0
N2141 N 0.09142 0.74308 0.60494 0.0
H2142 H 0.12014 0.79454 0.54518 0.0
H2143 H 0.11715 0.75673 0.55806 0.0
H2144 H 0.08416 0.72822 0.62044 0.0
H2145 H 0.08711 0.73423 0.58552 0.0
H2146 H 0.11059 0.88005 0.63915 0.0
H2147 H 0.11366 0.88371 0.60355 0.0
H2148 H 0.12714 0.8499 0.66918 0.0
H2149 H 0.11916 0.81329 0.68263 0.0
C2150 C 0.89627 0.35226 0.36604 0.0
C2151 C 0.9099 0.35388 0.33989 0.0
C2152 C 0.95737 0.37417 0.36073 0.0
C2153 C 0.94632 0.36498 0.38692 0.0
N2154 N 0.90561 0.3398 0.41319 0.0
N2155 N 0.9548 0.36548 0.3121 0.0
C2156 C 0.91558 0.35316 0.38944 0.0
C2157 C 0.94062 0.36522 0.33703 0.0
N2158 N 0.86499 0.34812 0.3683 0.0
N2159 N 0.98359 0.39174 0.35831 0.0
H2160 H 0.94338 0.36047 0.29392 0.0
H2161 H 0.97855 0.3691 0.30966 0.0
H2162 H -0.00367 0.39932 0.375 0.0
H2163 H 0.99076 0.40155 0.33992 0.0
H2164 H 0.8533 0.34905 0.3869 0.0
H2165 H 0.85063 0.34711 0.35114 0.0
H2166 H 0.88439 0.32833 0.41486 0.0
H2167 H 0.91967 0.33654 0.4302 0.0
C2168 C 0.38685 0.82093 0.35471 0.0
C2169 C 0.37365 0.79077 0.35765 0.0
C2170 C 0.37106 0.79864 0.40729 0.0
C2171 C 0.38336 0.82903 0.40395 0.0
N2172 N 0.39186 0.87245 0.37411 0.0
N2173 N 0.34388 0.75585 0.38623 0.0
C2174 C 0.38689 0.84135 0.3774 0.0
C2175 C 0.36268 0.78121 0.38376 0.0
N2176 N 0.40216 0.82927 0.33141 0.0
N2177 N 0.36924 0.78534 0.43255 0.0
H2178 H 0.33643 0.74288 0.3696 0.0
H2179 H 0.33292 0.74983 0.40443 0.0
H2180 H 0.374 0.79711 0.4506 0.0
H2181 H 0.36466 0.76178 0.43544 0.0
H2182 H 0.41448 0.85002 0.32963 0.0
H2183 H 0.40616 0.81419 0.31519 0.0
H2184 H 0.3924 0.88315 0.35503 0.0
H2185 H 0.39206 0.88773 0.39068 0.0
C2186 C 0.89102 0.64046 0.14103 0.0
C2187 C 0.90453 0.63544 0.16692 0.0
C2188 C 0.94728 0.60796 0.14479 0.0
C2189 C 0.93792 0.62036 0.11917 0.0
N2190 N 0.90162 0.65287 0.0941 0.0
N2191 N 0.94676 0.61456 0.19374 0.0
C2192 C 0.90957 0.63721 0.11734 0.0
C2193 C 0.93268 0.61859 0.16902 0.0
N2194 N 0.86085 0.64989 0.13934 0.0
N2195 N 0.96991 0.58585 0.14601 0.0
H2196 H 0.93669 0.62096 0.21218 0.0
H2197 H 0.96937 0.6063 0.19576 0.0
H2198 H 0.98031 0.57677 0.12862 0.0
H2199 H 0.9757 0.5741 0.16389 0.0
H2200 H 0.84895 0.65171 0.12089 0.0
H2201 H 0.84706 0.65256 0.15671 0.0
H2202 H 0.88275 0.66796 0.09312 0.0
H2203 H 0.91545 0.65391 0.07675 0.0
C2204 C 0.11215 0.14116 0.88854 0.0
C2205 C 0.11015 0.15594 0.91426 0.0
C2206 C 0.11859 0.20655 0.89339 0.0
C2207 C 0.11602 0.19235 0.86727 0.0
N2208 N 0.12114 0.14635 0.83975 0.0
N2209 N 0.12686 0.19881 0.94192 0.0
C2210 C 0.11668 0.15955 0.86479 0.0
C2211 C 0.11904 0.18734 0.91691 0.0
N2212 N 0.10744 0.10984 0.88705 0.0
N2213 N 0.118 0.23817 0.89601 0.0
H2214 H 0.12835 0.18458 0.95909 0.0
H2215 H 0.13551 0.22116 0.9449 0.0
H2216 H 0.11764 0.25335 0.87948 0.0
H2217 H 0.1158 0.24941 0.91473 0.0
H2218 H 0.10508 0.09756 0.86888 0.0
H2219 H 0.10524 0.09633 0.90467 0.0
H2220 H 0.12369 0.12257 0.83663 0.0
H2221 H 0.12483 0.15967 0.82224 0.0
C2222 C 0.59225 0.37739 0.64596 0.0
C2223 C 0.57779 0.37353 0.67159 0.0
C2224 C 0.52671 0.37377 0.65044 0.0
C2225 C 0.54129 0.37322 0.62437 0.0
N2226 N 0.58617 0.3856 0.59719 0.0
N2227 N 0.5329 0.3831 0.69906 0.0
C2228 C 0.57359 0.37902 0.6221 0.0
C2229 C 0.54548 0.37752 0.67401 0.0
N2230 N 0.62386 0.37688 0.64464 0.0
N2231 N 0.49566 0.36796 0.653 0.0
H2232 H 0.54676 0.38598 0.71633 0.0
H2233 H 0.50952 0.38817 0.70208 0.0
H2234 H 0.48091 0.36432 0.63649 0.0
H2235 H 0.4848 0.3645 0.67174 0.0
H2236 H 0.63639 0.37596 0.62651 0.0
H2237 H 0.63738 0.37655 0.66235 0.0
H2238 H 0.60924 0.39199 0.59436 0.0
H2239 H 0.57267 0.38726 0.57957 0.0
C2240 C 0.24678 0.21909 0.26222 0.0
C2241 C 0.21779 0.23154 0.2543 0.0
C2242 C 0.24286 0.27742 0.23499 0.0
C2243 C 0.27195 0.26442 0.24194 0.0
N2244 N 0.30271 0.22127 0.25809 0.0
N2245 N 0.18761 0.26914 0.22932 0.0
C2246 C 0.27428 0.23473 0.25436 0.0
C2247 C 0.21564 0.25968 0.23942 0.0
N2248 N 0.2479 0.19291 0.27801 0.0
N2249 N 0.24134 0.30698 0.22484 0.0
H2250 H 0.16712 0.25671 0.23239 0.0
H2251 H 0.18491 0.28782 0.21606 0.0
H2252 H 0.26099 0.32046 0.22101 0.0
H2253 H 0.22069 0.31909 0.22205 0.0
H2254 H 0.26802 0.18481 0.28735 0.0
H2255 H 0.22821 0.18005 0.28309 0.0
H2256 H 0.30574 0.19825 0.26403 0.0
H2257 H 0.32355 0.23243 0.25353 0.0
C2258 C 0.02648 -0.00264 0.51623 0.0
C2259 C 0.01396 0.96929 0.506 0.0
C2260 C 0.97424 -0.00232 0.4807 0.0
C2261 C 0.98494 0.02546 0.49302 0.0
N2262 N 0.01921 0.05253 0.52388 0.0
N2263 N 0.97514 0.94138 0.48035 0.0
C2264 C 0.01056 0.02557 0.51116 0.0
C2265 C 0.98772 0.96904 0.48857 0.0
N2266 N 0.05384 -0.00306 0.53037 0.0
N2267 N 0.95158 -0.00117 0.46117 0.0
H2268 H 0.98521 0.91991 0.4847 0.0
H2269 H 0.95385 0.93945 0.47048 0.0
H2270 H 0.94024 0.01931 0.45569 0.0
H2271 H 0.94527 0.97994 0.44912 0.0
H2272 H 0.0659 0.01683 0.53614 0.0
H2273 H 0.06594 0.97648 0.53452 0.0
H2274 H 0.03543 0.05356 0.53958 0.0
H2275 H 0.00868 0.07389 0.52002 0.0
C2276 C 0.23417 0.71694 0.73105 0.0
C2277 C 0.20808 0.73052 0.74388 0.0
C2278 C 0.2408 0.7692 0.76622 0.0
C2279 C 0.26665 0.75653 0.75232 0.0
N2280 N 0.28828 0.72205 0.71851 0.0
N2281 N 0.18484 0.77144 0.77056 0.0
C2282 C 0.26343 0.73151 0.73376 0.0
C2283 C 0.21086 0.75723 0.76061 0.0
N2284 N 0.23099 0.68971 0.7169 0.0
N2285 N 0.2451 0.79202 0.78528 0.0
H2286 H 0.16253 0.76262 0.76767 0.0
H2287 H 0.18503 0.79294 0.78028 0.0
H2288 H 0.26662 0.8023 0.78897 0.0
H2289 H 0.22781 0.79966 0.79849 0.0
H2290 H 0.24962 0.67683 0.70954 0.0
H2291 H 0.20971 0.67856 0.71422 0.0
H2292 H 0.28669 0.70617 0.70256 0.0
H2293 H 0.31029 0.73191 0.7203 0.0
C2294 C 0.52796 -0.00113 0.97828 0.0
C2295 C 0.51665 0.97004 0.98793 0.0
C2296 C 0.47282 -0.00453 0.01007 0.0
C2297 C 0.48565 0.02443 0.00257 0.0
N2298 N 0.52632 0.05494 0.98182 0.0
N2299 N 0.481 0.94014 0.01537 0.0
C2300 C 0.51341 0.02653 0.98716 0.0
C2301 C 0.4898 0.96808 0.00453 0.0
N2302 N 0.55211 -0.00034 0.96019 0.0
N2303 N 0.44426 0.99433 0.02219 0.0
H2304 H 0.49283 0.91945 0.01157 0.0
H2305 H 0.4635 0.93769 0.02983 0.0
H2306 H 0.43135 0.01424 0.02649 0.0
H2307 H 0.4322 0.9738 0.02587 0.0
H2308 H 0.55903 0.01962 0.94986 0.0
H2309 H 0.56424 0.97982 0.95421 0.0
H2310 H 0.54847 0.05787 0.97375 0.0
H2311 H 0.51555 0.07588 0.98678 0.0
C2312 C 0.2768 0.76466 0.24364 0.0
C2313 C 0.27526 0.73391 0.25399 0.0
C2314 C 0.21878 0.73467 0.2522 0.0
C2315 C 0.2203 0.76591 0.24296 0.0
N2316 N 0.2493 0.81253 0.23375 0.0
N2317 N 0.24602 0.69064 0.27162 0.0
C2318 C 0.24893 0.78152 0.23986 0.0
C2319 C 0.24658 0.71913 0.25924 0.0
N2320 N 0.30488 0.77736 0.23688 0.0
N2321 N 0.1908 0.7197 0.25363 0.0
H2322 H 0.26606 0.67806 0.27612 0.0
H2323 H 0.22594 0.68018 0.27901 0.0
H2324 H 0.16962 0.73077 0.25033 0.0
H2325 H 0.18848 0.69589 0.25673 0.0
H2326 H 0.30738 0.79835 0.22659 0.0
H2327 H 0.32591 0.76587 0.2398 0.0
H2328 H 0.26927 0.82612 0.23389 0.0
H2329 H 0.22912 0.82541 0.23057 0.0
C2330 C 0.47968 0.02503 0.49565 0.0
C2331 C 0.50629 0.02294 0.51257 0.0
C2332 C 0.50148 0.96647 0.51448 0.0
C2333 C 0.47662 0.96839 0.49562 0.0
N2334 N 0.44345 -0.00175 0.46599 0.0
N2335 N 0.545 0.99256 0.5359 0.0
C2336 C 0.46601 -0.00266 0.48561 0.0
C2337 C 0.51787 0.99389 0.52146 0.0
N2338 N 0.46706 0.05343 0.48981 0.0
N2339 N 0.50909 0.93848 0.52589 0.0
H2340 H 0.55742 0.01233 0.54163 0.0
H2341 H 0.55651 0.97197 0.5405 0.0
H2342 H 0.49793 0.91776 0.52084 0.0
H2343 H 0.52478 0.936 0.54188 0.0
H2344 H 0.4457 0.05633 0.48023 0.0
H2345 H 0.4769 0.07435 0.49618 0.0
H2346 H 0.43733 0.0183 0.45542 0.0
H2347 H 0.43192 0.97843 0.45906 0.0
C2348 C 0.21957 0.22881 0.7321 0.0
C2349 C 0.21639 0.25693 0.74679 0.0
C2350 C 0.27251 0.26115 0.75166 0.0
C2351 C 0.27533 0.2311 0.74004 0.0
N2352 N 0.25232 0.18476 0.72124 0.0
N2353 N 0.23864 0.29913 0.7726 0.0
C2354 C 0.24906 0.21448 0.73071 0.0
C2355 C 0.24255 0.27312 0.75693 0.0
N2356 N 0.19432 0.21609 0.7194 0.0
N2357 N 0.29845 0.27838 0.75719 0.0
H2358 H 0.21703 0.30929 0.77603 0.0
H2359 H 0.25653 0.30967 0.78348 0.0
H2360 H 0.32094 0.27005 0.75442 0.0
H2361 H 0.29776 0.30174 0.7627 0.0
H2362 H 0.19554 0.19707 0.70633 0.0
H2363 H 0.17241 0.22638 0.72001 0.0
H2364 H 0.23368 0.17025 0.71674 0.0
H2365 H 0.27378 0.17369 0.71974 0.0
C2366 C 0.0025 0.9674 0.99117 0.0
C2367 C 0.9739 0.96743 0.00539 0.0
C2368 C 0.97332 0.02405 0.00631 0.0
C2369 C 0.00318 0.02391 0.99417 0.0
N2370 N 0.04826 -0.00348 0.97798 0.0
N2371 N 0.93324 0.99453 0.0293 0.0
C2372 C 0.01842 -0.00415 0.98744 0.0
C2373 C 0.95951 0.99542 0.01367 0.0
N2374 N 0.01401 0.94021 0.98086 0.0
N2375 N 0.95793 0.0515 0.01018 0.0
H2376 H 0.92175 0.97392 0.03416 0.0
H2377 H 0.92377 0.01397 0.03881 0.0
H2378 H 0.96779 0.07315 0.00613 0.0
H2379 H 0.93469 0.05286 0.01581 0.0
H2380 H 0.03321 0.939 0.96805 0.0
H2381 H 0.00278 0.91889 0.98326 0.0
H2382 H 0.06181 0.97675 0.97528 0.0
H2383 H 0.06045 0.01716 0.97482 0.0
C2384 C 0.77209 0.73155 0.74844 0.0
C2385 C 0.77151 0.76061 0.73476 0.0
C2386 C 0.71574 0.75619 0.72773 0.0
C2387 C 0.71581 0.72927 0.74431 0.0
N2388 N 0.74273 0.69205 0.77237 0.0
N2389 N 0.74337 0.80245 0.71346 0.0
C2390 C 0.74366 0.71694 0.75504 0.0
C2391 C 0.74348 0.77345 0.72487 0.0
N2392 N 0.79978 0.71768 0.75455 0.0
N2393 N 0.68912 0.76497 0.71465 0.0
H2394 H 0.76349 0.81562 0.71087 0.0
H2395 H 0.72321 0.81446 0.70841 0.0
H2396 H 0.66841 0.75254 0.71633 0.0
H2397 H 0.68815 0.78276 0.7003 0.0
H2398 H 0.80164 0.69497 0.76169 0.0
H2399 H 0.82123 0.72798 0.75067 0.0
H2400 H 0.76176 0.68444 0.78361 0.0
H2401 H 0.72235 0.67994 0.77672 0.0
C2402 C 0.76772 0.23082 0.24176 0.0
C2403 C 0.77094 0.25768 0.25827 0.0
C2404 C 0.71537 0.25819 0.26777 0.0
C2405 C 0.71191 0.23247 0.25 0.0
N2406 N 0.73311 0.19558 0.21803 0.0
N2407 N 0.74871 0.29947 0.28446 0.0
C2408 C 0.73765 0.21903 0.23647 0.0
C2409 C 0.74498 0.27216 0.27055 0.0
N2410 N 0.79353 0.21626 0.23174 0.0
N2411 N 0.6904 0.26879 0.28225 0.0
H2412 H 0.77026 0.31007 0.28717 0.0
H2413 H 0.7304 0.31293 0.29162 0.0
H2414 H 0.66826 0.2592 0.28042 0.0
H2415 H 0.69184 0.28549 0.29756 0.0
H2416 H 0.79316 0.19451 0.22248 0.0
H2417 H 0.81588 0.22527 0.23385 0.0
H2418 H 0.75025 0.18733 0.20496 0.0
H2419 H 0.71155 0.18522 0.21472 0.0
C2420 C 0.74309 0.21986 0.76562 0.0
C2421 C 0.77063 0.23044 0.75292 0.0
C2422 C 0.74264 0.27268 0.73066 0.0
C2423 C 0.71488 0.26139 0.74247 0.0
N2424 N 0.68698 0.22207 0.76761 0.0
N2425 N 0.79673 0.26294 0.72015 0.0
C2426 C 0.71457 0.23431 0.75894 0.0
C2427 C 0.77042 0.25563 0.73435 0.0
N2428 N 0.74445 0.19667 0.78467 0.0
N2429 N 0.74247 0.3001 0.71654 0.0
H2430 H 0.81758 0.25095 0.7226 0.0
H2431 H 0.79742 0.2791 0.70437 0.0
H2432 H 0.72235 0.31304 0.71325 0.0
H2433 H 0.76245 0.31131 0.70981 0.0
H2434 H 0.72592 0.19052 0.79717 0.0
H2435 H 0.76477 0.1845 0.78906 0.0
H2436 H 0.68495 0.20045 0.77695 0.0
H2437 H 0.66562 0.23264 0.76395 0.0
C2438 C 0.71771 0.72522 0.255 0.0
C2439 C 0.71245 0.75796 0.25408 0.0
C2440 C 0.75858 0.76344 0.22673 0.0
C2441 C 0.76941 0.73465 0.23626 0.0
N2442 N 0.75018 0.68253 0.23946 0.0
N2443 N 0.73052 0.80888 0.2397 0.0
C2444 C 0.74642 0.71337 0.24497 0.0
C2445 C 0.73386 0.77739 0.24043 0.0
N2446 N 0.69528 0.70565 0.26462 0.0
N2447 N 0.76566 0.77312 0.20109 0.0
H2448 H 0.7133 0.82059 0.25055 0.0
H2449 H 0.74681 0.82303 0.22997 0.0
H2450 H 0.77773 0.75863 0.18768 0.0
H2451 H 0.75579 0.79299 0.19249 0.0
H2452 H 0.69921 0.68232 0.26901 0.0
H2453 H 0.67273 0.71291 0.26879 0.0
H2454 H 0.73353 0.66559 0.24334 0.0
H2455 H 0.76893 0.67456 0.22794 0.0
C2456 C 0.47585 0.49809 0.98962 0.0
C2457 C 0.48754 0.52522 0.00232 0.0
C2458 C 0.52713 0.49538 0.02617 0.0
C2459 C 0.51484 0.46809 0.01422 0.0
N2460 N 0.47525 0.44184 0.98807 0.0
N2461 N 0.5197 0.55005 0.03607 0.0
C2462 C 0.48849 0.46893 0.99694 0.0
C2463 C 0.51176 0.52395 0.02174 0.0
N2464 N 0.45351 0.50046 0.96991 0.0
N2465 N 0.55389 0.49396 0.04114 0.0
H2466 H 0.50869 0.57139 0.03323 0.0
H2467 H 0.53521 0.5501 0.05235 0.0
H2468 H 0.56567 0.47322 0.04488 0.0
H2469 H 0.5658 0.51345 0.0481 0.0
H2470 H 0.44675 0.4821 0.95743 0.0
H2471 H 0.44267 0.52141 0.96504 0.0
H2472 H 0.45397 0.44078 0.97808 0.0
H2473 H 0.48466 0.41999 0.99212 0.0
C2474 C 0.96445 0.49603 0.50954 0.0
C2475 C 0.97861 0.52366 0.50003 0.0
C2476 C 0.02077 0.49413 0.47927 0.0
C2477 C 0.00608 0.46643 0.48796 0.0
N2478 N 0.96157 0.43993 0.50678 0.0
N2479 N 0.01621 0.54962 0.47172 0.0
C2480 C 0.97713 0.46703 0.50171 0.0
C2481 C 0.00554 0.52288 0.48351 0.0
N2482 N 0.93962 0.49761 0.52685 0.0
N2483 N 0.04961 0.49292 0.4677 0.0
H2484 H 0.00543 0.57109 0.47449 0.0
H2485 H 0.03402 0.55021 0.45739 0.0
H2486 H 0.06124 0.47209 0.46395 0.0
H2487 H 0.06301 0.51249 0.46358 0.0
H2488 H 0.93068 0.47849 0.53721 0.0
H2489 H 0.92894 0.5185 0.53217 0.0
H2490 H 0.93885 0.43909 0.51393 0.0
H2491 H 0.97047 0.41807 0.50199 0.0
C2492 C 0.97715 0.52545 0.99858 0.0
C2493 C 0.00615 0.52441 0.01225 0.0
C2494 C 0.00519 0.46778 0.01252 0.0
C2495 C 0.97727 0.46882 0.99726 0.0
N2496 N 0.9381 0.49746 0.97282 0.0
N2497 N 0.05009 0.49589 0.02931 0.0
C2498 C 0.96357 0.49734 0.98949 0.0
C2499 C 0.02089 0.49591 0.01839 0.0
N2500 N 0.96233 0.55325 0.99487 0.0
N2501 N 0.01628 0.43992 0.02177 0.0
H2502 H 0.06203 0.51625 0.03419 0.0
H2503 H 0.0635 0.47597 0.03169 0.0
H2504 H 0.00557 0.41873 0.01751 0.0
H2505 H 0.03471 0.43782 0.03536 0.0
H2506 H 0.93952 0.5552 0.98812 0.0
H2507 H 0.97215 0.5746 1.00007 0.0
H2508 H 0.92922 0.5174 0.9637 0.0
H2509 H 0.92677 0.47721 0.96667 0.0
C2510 C 0.46745 0.49566 0.51605 0.0
C2511 C 0.47783 0.46772 0.50382 0.0
C2512 C 0.5164 0.49595 0.47708 0.0
C2513 C 0.50503 0.52403 0.48831 0.0
N2514 N 0.46711 0.55194 0.51496 0.0
N2515 N 0.50826 0.44079 0.47001 0.0
C2516 C 0.47978 0.52431 0.50682 0.0
C2517 C 0.5011 0.46773 0.48343 0.0
N2518 N 0.44643 0.49463 0.53693 0.0
N2519 N 0.54235 0.49628 0.46102 0.0
H2520 H 0.49785 0.41952 0.47451 0.0
H2521 H 0.52269 0.43981 0.45301 0.0
H2522 H 0.55398 0.51668 0.45575 0.0
H2523 H 0.55381 0.47631 0.45456 0.0
H2524 H 0.44078 0.51374 0.54896 0.0
H2525 H 0.43579 0.47411 0.54334 0.0
H2526 H 0.44652 0.55366 0.52594 0.0
H2527 H 0.47601 0.57349 0.50916 0.0
loop_
_geom_bond_atom_site_label_1
_geom_bond_atom_site_label_2
_geom_bond_distance
_geom_bond_site_symmetry_2
_ccdc_geom_bond_type
Co0 O3 1.970 . S
Co0 N17 1.989 . S
Co0 O25 1.967 . S
Co0 O32 1.920 . S
Co1 O4 1.966 . S
Co1 N10 2.022 . S
Co1 N18 1.993 . S
Co1 O26 1.941 . S
C2 O3 1.258 . S
C2 O4 1.263 . S
O3 Co0 1.970 . S
O3 C2 1.258 . S
O4 Co1 1.966 . S
O4 C2 1.263 . S
C5 O6 1.235 . S
C5 O32 1.289 . S
O6 C5 1.235 . S
C7 C9 1.400 . S
C7 N10 1.351 . S
C7 C12 1.501 . S
C8 C9 1.387 . S
C8 N11 1.341 . S
C9 C7 1.400 . S
C9 C8 1.387 . S
N10 Co1 2.022 . S
N10 C7 1.351 . S
N10 N11 1.365 . S
N11 C8 1.341 . S
N11 N10 1.365 . S
N11 H31 0.862 . S
C12 C7 1.501 . S
C12 H13 0.961 . S
C12 H14 0.961 . S
C12 H15 0.960 . S
H13 C12 0.961 . S
H14 C12 0.961 . S
H15 C12 0.960 . S
C16 N17 1.342 . S
C16 C20 1.401 . S
C16 C21 1.499 . S
N17 Co0 1.989 . S
N17 C16 1.342 . S
N17 N18 1.388 . S
N18 Co1 1.993 . S
N18 N17 1.388 . S
N18 C19 1.346 . S
C19 N18 1.346 . S
C19 C20 1.396 . S
C19 C29 1.510 . S
C20 C16 1.401 . S
C20 C19 1.396 . S
C21 C16 1.499 . S
C21 H22 0.959 . S
C21 H23 0.960 . S
C21 H24 0.961 . S
H22 C21 0.959 . S
H23 C21 0.960 . S
H24 C21 0.961 . S
O25 Co0 1.967 . S
O25 C33 1.258 . S
O26 Co1 1.941 . S
O26 C33 1.266 . S
H27 C29 0.959 . S
H28 C29 0.961 . S
C29 C19 1.510 . S
C29 H27 0.959 . S
C29 H28 0.961 . S
C29 H30 0.960 . S
H30 C29 0.960 . S
H31 N11 0.862 . S
O32 Co0 1.920 . S
O32 C5 1.289 . S
C33 O25 1.258 . S
C33 O26 1.266 . S
Co34 O37 1.970 . S
Co34 N51 1.989 . S
Co34 O59 1.967 . S
Co34 O66 1.920 . S
Co35 O38 1.966 . S
Co35 N44 2.022 . S
Co35 N52 1.993 . S
Co35 O60 1.941 . S
C36 O37 1.258 . S
C36 O38 1.263 . S
O37 Co34 1.970 . S
O37 C36 1.258 . S
O38 Co35 1.966 . S
O38 C36 1.263 . S
C39 O40 1.235 . S
C39 O66 1.289 1_655 S
O40 C39 1.235 . S
C41 C43 1.400 . S
C41 N44 1.351 . S
C41 C46 1.501 . S
C42 C43 1.387 . S
C42 N45 1.341 . S
C43 C41 1.400 . S
C43 C42 1.387 . S
N44 Co35 2.022 . S
N44 C41 1.351 . S
N44 N45 1.365 . S
N45 C42 1.341 . S
N45 N44 1.365 . S
N45 H65 0.862 . S
C46 C41 1.501 . S
C46 H47 0.961 . S
C46 H48 0.961 . S
C46 H49 0.960 . S
H47 C46 0.961 . S
H48 C46 0.961 . S
H49 C46 0.960 . S
C50 N51 1.342 . S
C50 C54 1.401 . S
C50 C55 1.499 . S
N51 Co34 1.989 . S
N51 C50 1.342 . S
N51 N52 1.388 . S
N52 Co35 1.993 . S
N52 N51 1.388 . S
N52 C53 1.346 . S
C53 N52 1.346 . S
C53 C54 1.396 . S
C53 C63 1.510 . S
C54 C50 1.401 . S
C54 C53 1.396 . S
C55 C50 1.499 . S
C55 H56 0.959 . S
C55 H57 0.960 1_455 S
C55 H58 0.961 . S
H56 C55 0.959 . S
H57 C55 0.960 1_655 S
H58 C55 0.961 . S
O59 Co34 1.967 . S
O59 C67 1.258 . S
O60 Co35 1.941 . S
O60 C67 1.266 . S
H61 C63 0.959 . S
H62 C63 0.961 . S
C63 C53 1.510 . S
C63 H61 0.959 . S
C63 H62 0.961 . S
C63 H64 0.960 . S
H64 C63 0.960 . S
H65 N45 0.862 . S
O66 Co34 1.920 . S
O66 C39 1.289 1_455 S
C67 O59 1.258 . S
C67 O60 1.266 . S
Co68 O71 1.970 . S
Co68 N85 1.989 . S
Co68 O93 1.967 . S
Co68 O100 1.920 . S
Co69 O72 1.966 . S
Co69 N78 2.022 . S
Co69 N86 1.993 . S
Co69 O94 1.941 . S
C70 O71 1.258 . S
C70 O72 1.263 . S
O71 Co68 1.970 . S
O71 C70 1.258 . S
O72 Co69 1.966 . S
O72 C70 1.263 . S
C73 O74 1.235 . S
C73 O100 1.289 . S
O74 C73 1.235 . S
C75 C77 1.400 . S
C75 N78 1.351 . S
C75 C80 1.501 . S
C76 C77 1.387 . S
C76 N79 1.341 . S
C77 C75 1.400 . S
C77 C76 1.387 . S
N78 Co69 2.022 . S
N78 C75 1.351 . S
N78 N79 1.365 . S
N79 C76 1.341 . S
N79 N78 1.365 . S
N79 H99 0.862 . S
C80 C75 1.501 . S
C80 H81 0.961 . S
C80 H82 0.961 . S
C80 H83 0.960 . S
H81 C80 0.961 . S
H82 C80 0.961 . S
H83 C80 0.960 . S
C84 N85 1.342 . S
C84 C88 1.401 . S
C84 C89 1.499 . S
N85 Co68 1.989 . S
N85 C84 1.342 . S
N85 N86 1.388 . S
N86 Co69 1.993 . S
N86 N85 1.388 . S
N86 C87 1.346 . S
C87 N86 1.346 . S
C87 C88 1.396 . S
C87 C97 1.510 . S
C88 C84 1.401 . S
C88 C87 1.396 . S
C89 C84 1.499 . S
C89 H90 0.959 . S
C89 H91 0.960 . S
C89 H92 0.961 . S
H90 C89 0.959 . S
H91 C89 0.960 . S
H92 C89 0.961 . S
O93 Co68 1.967 . S
O93 C101 1.258 . S
O94 Co69 1.941 . S
O94 C101 1.266 . S
H95 C97 0.959 . S
H96 C97 0.961 . S
C97 C87 1.510 . S
C97 H95 0.959 . S
C97 H96 0.961 . S
C97 H98 0.960 . S
H98 C97 0.960 . S
H99 N79 0.862 . S
O100 Co68 1.920 . S
O100 C73 1.289 . S
C101 O93 1.258 . S
C101 O94 1.266 . S
Co102 O105 1.970 . S
Co102 N119 1.989 . S
Co102 O127 1.967 . S
Co102 O134 1.920 . S
Co103 O106 1.966 . S
Co103 N112 2.022 1_554 S
Co103 N120 1.993 . S
Co103 O128 1.941 . S
C104 O105 1.258 . S
C104 O106 1.263 . S
O105 Co102 1.970 . S
O105 C104 1.258 . S
O106 Co103 1.966 . S
O106 C104 1.263 . S
C107 O108 1.235 . S
C107 O134 1.289 . S
O108 C107 1.235 . S
C109 C111 1.400 . S
C109 N112 1.351 . S
C109 C114 1.501 . S
C110 C111 1.387 . S
C110 N113 1.341 . S
C111 C109 1.400 . S
C111 C110 1.387 . S
N112 Co103 2.022 1_556 S
N112 C109 1.351 . S
N112 N113 1.365 . S
N113 C110 1.341 . S
N113 N112 1.365 . S
N113 H133 0.862 . S
C114 C109 1.501 . S
C114 H115 0.961 . S
C114 H116 0.961 . S
C114 H117 0.960 . S
H115 C114 0.961 . S
H116 C114 0.961 . S
H117 C114 0.960 . S
C118 N119 1.342 . S
C118 C122 1.401 . S
C118 C123 1.499 . S
N119 Co102 1.989 . S
N119 C118 1.342 . S
N119 N120 1.388 . S
N120 Co103 1.993 . S
N120 N119 1.388 . S
N120 C121 1.346 . S
C121 N120 1.346 . S
C121 C122 1.396 . S
C121 C131 1.510 1_554 S
C122 C118 1.401 . S
C122 C121 1.396 . S
C123 C118 1.499 . S
C123 H124 0.959 . S
C123 H125 0.960 . S
C123 H126 0.961 . S
H124 C123 0.959 . S
H125 C123 0.960 . S
H126 C123 0.961 . S
O127 Co102 1.967 . S
O127 C135 1.258 . S
O128 Co103 1.941 . S
O128 C135 1.266 . S
H129 C131 0.959 . S
H130 C131 0.961 . S
C131 C121 1.510 1_556 S
C131 H129 0.959 . S
C131 H130 0.961 . S
C131 H132 0.960 . S
H132 C131 0.960 . S
H133 N113 0.862 . S
O134 Co102 1.920 . S
O134 C107 1.289 . S
C135 O127 1.258 . S
C135 O128 1.266 . S
Co136 O139 1.970 . S
Co136 N153 1.989 . S
Co136 O161 1.967 . S
Co136 O168 1.920 . S
Co137 O140 1.966 . S
Co137 N146 2.022 . S
Co137 N154 1.993 . S
Co137 O162 1.941 . S
C138 O139 1.258 . S
C138 O140 1.263 . S
O139 Co136 1.970 . S
O139 C138 1.258 . S
O140 Co137 1.966 . S
O140 C138 1.263 . S
C141 O142 1.235 . S
C141 O168 1.289 . S
O142 C141 1.235 . S
C143 C145 1.400 . S
C143 N146 1.351 . S
C143 C148 1.501 . S
C144 C145 1.387 . S
C144 N147 1.341 . S
C145 C143 1.400 . S
C145 C144 1.387 . S
N146 Co137 2.022 . S
N146 C143 1.351 . S
N146 N147 1.365 . S
N147 C144 1.341 . S
N147 N146 1.365 . S
N147 H167 0.862 . S
C148 C143 1.501 . S
C148 H149 0.961 . S
C148 H150 0.961 . S
C148 H151 0.960 . S
H149 C148 0.961 . S
H150 C148 0.961 . S
H151 C148 0.960 . S
C152 N153 1.342 . S
C152 C156 1.401 . S
C152 C157 1.499 . S
N153 Co136 1.989 . S
N153 C152 1.342 . S
N153 N154 1.388 . S
N154 Co137 1.993 . S
N154 N153 1.388 . S
N154 C155 1.346 . S
C155 N154 1.346 . S
C155 C156 1.396 . S
C155 C165 1.510 . S
C156 C152 1.401 . S
C156 C155 1.396 . S
C157 C152 1.499 . S
C157 H158 0.959 . S
C157 H159 0.960 . S
C157 H160 0.961 . S
H158 C157 0.959 . S
H159 C157 0.960 . S
H160 C157 0.961 . S
O161 Co136 1.967 . S
O161 C169 1.258 . S
O162 Co137 1.941 . S
O162 C169 1.266 . S
H163 C165 0.959 . S
H164 C165 0.961 . S
C165 C155 1.510 . S
C165 H163 0.959 . S
C165 H164 0.961 . S
C165 H166 0.960 . S
H166 C165 0.960 . S
H167 N147 0.862 . S
O168 Co136 1.920 . S
O168 C141 1.289 . S
C169 O161 1.258 . S
C169 O162 1.266 . S
Co170 O173 1.970 . S
Co170 N187 1.989 . S
Co170 O195 1.967 . S
Co170 O202 1.920 . S
Co171 O174 1.966 . S
Co171 N180 2.022 . S
Co171 N188 1.993 . S
Co171 O196 1.941 . S
C172 O173 1.258 . S
C172 O174 1.263 . S
O173 Co170 1.970 . S
O173 C172 1.258 . S
O174 Co171 1.966 . S
O174 C172 1.263 . S
C175 O176 1.235 . S
C175 O202 1.289 . S
O176 C175 1.235 . S
C177 C179 1.400 . S
C177 N180 1.351 . S
C177 C182 1.501 . S
C178 C179 1.387 . S
C178 N181 1.341 . S
C179 C177 1.400 . S
C179 C178 1.387 . S
N180 Co171 2.022 . S
N180 C177 1.351 . S
N180 N181 1.365 . S
N181 C178 1.341 . S
N181 N180 1.365 . S
N181 H201 0.862 . S
C182 C177 1.501 . S
C182 H183 0.961 . S
C182 H184 0.961 . S
C182 H185 0.960 . S
H183 C182 0.961 . S
H184 C182 0.961 . S
H185 C182 0.960 . S
C186 N187 1.342 . S
C186 C190 1.401 . S
C186 C191 1.499 . S
N187 Co170 1.989 . S
N187 C186 1.342 . S
N187 N188 1.388 . S
N188 Co171 1.993 . S
N188 N187 1.388 . S
N188 C189 1.346 . S
C189 N188 1.346 . S
C189 C190 1.396 . S
C189 C199 1.510 . S
C190 C186 1.401 . S
C190 C189 1.396 . S
C191 C186 1.499 . S
C191 H192 0.959 . S
C191 H193 0.960 . S
C191 H194 0.961 . S
H192 C191 0.959 . S
H193 C191 0.960 . S
H194 C191 0.961 . S
O195 Co170 1.967 . S
O195 C203 1.258 . S
O196 Co171 1.941 . S
O196 C203 1.266 . S
H197 C199 0.959 . S
H198 C199 0.961 . S
C199 C189 1.510 . S
C199 H197 0.959 . S
C199 H198 0.961 . S
C199 H200 0.960 . S
H200 C199 0.960 . S
H201 N181 0.862 . S
O202 Co170 1.920 . S
O202 C175 1.289 . S
C203 O195 1.258 . S
C203 O196 1.266 . S
Co204 O207 1.970 . S
Co204 N221 1.989 . S
Co204 O229 1.967 . S
Co204 O236 1.920 . S
Co205 O208 1.966 . S
Co205 N214 2.022 . S
Co205 N222 1.993 . S
Co205 O230 1.941 . S
C206 O207 1.258 . S
C206 O208 1.263 . S
O207 Co204 1.970 . S
O207 C206 1.258 . S
O208 Co205 1.966 . S
O208 C206 1.263 . S
C209 O210 1.235 . S
C209 O236 1.289 . S
O210 C209 1.235 . S
C211 C213 1.400 . S
C211 N214 1.351 . S
C211 C216 1.501 . S
C212 C213 1.387 . S
C212 N215 1.341 . S
C213 C211 1.400 . S
C213 C212 1.387 . S
N214 Co205 2.022 . S
N214 C211 1.351 . S
N214 N215 1.365 . S
N215 C212 1.341 . S
N215 N214 1.365 . S
N215 H235 0.862 . S
C216 C211 1.501 . S
C216 H217 0.961 . S
C216 H218 0.961 . S
C216 H219 0.960 . S
H217 C216 0.961 . S
H218 C216 0.961 . S
H219 C216 0.960 . S
C220 N221 1.342 . S
C220 C224 1.401 . S
C220 C225 1.499 . S
N221 Co204 1.989 . S
N221 C220 1.342 . S
N221 N222 1.388 . S
N222 Co205 1.993 . S
N222 N221 1.388 . S
N222 C223 1.346 . S
C223 N222 1.346 . S
C223 C224 1.396 . S
C223 C233 1.510 . S
C224 C220 1.401 . S
C224 C223 1.396 . S
C225 C220 1.499 . S
C225 H226 0.959 . S
C225 H227 0.960 . S
C225 H228 0.961 . S
H226 C225 0.959 . S
H227 C225 0.960 . S
H228 C225 0.961 . S
O229 Co204 1.967 . S
O229 C237 1.258 . S
O230 Co205 1.941 . S
O230 C237 1.266 . S
H231 C233 0.959 . S
H232 C233 0.961 . S
C233 C223 1.510 . S
C233 H231 0.959 . S
C233 H232 0.961 . S
C233 H234 0.960 . S
H234 C233 0.960 . S
H235 N215 0.862 . S
O236 Co204 1.920 . S
O236 C209 1.289 . S
C237 O229 1.258 . S
C237 O230 1.266 . S
Co238 O241 1.970 . S
Co238 N255 1.989 . S
Co238 O263 1.967 . S
Co238 O270 1.920 . S
Co239 O242 1.966 . S
Co239 N248 2.022 1_556 S
Co239 N256 1.993 . S
Co239 O264 1.941 . S
C240 O241 1.258 . S
C240 O242 1.263 . S
O241 Co238 1.970 . S
O241 C240 1.258 . S
O242 Co239 1.966 . S
O242 C240 1.263 . S
C243 O244 1.235 . S
C243 O270 1.289 1_655 S
O244 C243 1.235 . S
C245 C247 1.400 . S
C245 N248 1.351 . S
C245 C250 1.501 . S
C246 C247 1.387 . S
C246 N249 1.341 . S
C247 C245 1.400 . S
C247 C246 1.387 . S
N248 Co239 2.022 1_554 S
N248 C245 1.351 . S
N248 N249 1.365 . S
N249 C246 1.341 . S
N249 N248 1.365 . S
N249 H269 0.862 . S
C250 C245 1.501 . S
C250 H251 0.961 . S
C250 H252 0.961 . S
C250 H253 0.960 . S
H251 C250 0.961 . S
H252 C250 0.961 . S
H253 C250 0.960 . S
C254 N255 1.342 . S
C254 C258 1.401 . S
C254 C259 1.499 . S
N255 Co238 1.989 . S
N255 C254 1.342 . S
N255 N256 1.388 . S
N256 Co239 1.993 . S
N256 N255 1.388 . S
N256 C257 1.346 . S
C257 N256 1.346 . S
C257 C258 1.396 . S
C257 C267 1.510 1_556 S
C258 C254 1.401 . S
C258 C257 1.396 . S
C259 C254 1.499 . S
C259 H260 0.959 . S
C259 H261 0.960 1_455 S
C259 H262 0.961 . S
H260 C259 0.959 . S
H261 C259 0.960 1_655 S
H262 C259 0.961 . S
O263 Co238 1.967 . S
O263 C271 1.258 . S
O264 Co239 1.941 . S
O264 C271 1.266 . S
H265 C267 0.959 . S
H266 C267 0.961 . S
C267 C257 1.510 1_554 S
C267 H265 0.959 . S
C267 H266 0.961 . S
C267 H268 0.960 . S
H268 C267 0.960 . S
H269 N249 0.862 . S
O270 Co238 1.920 . S
O270 C243 1.289 1_455 S
C271 O263 1.258 . S
C271 O264 1.266 . S
Co272 O275 1.970 . S
Co272 N289 1.989 . S
Co272 O297 1.967 . S
Co272 O304 1.920 . S
Co273 O276 1.966 . S
Co273 N282 2.022 . S
Co273 N290 1.993 . S
Co273 O298 1.941 . S
C274 O275 1.258 . S
C274 O276 1.263 . S
O275 Co272 1.970 . S
O275 C274 1.258 . S
O276 Co273 1.966 . S
O276 C274 1.263 . S
C277 O278 1.235 . S
C277 O304 1.289 . S
O278 C277 1.235 . S
C279 C281 1.400 . S
C279 N282 1.351 . S
C279 C284 1.501 . S
C280 C281 1.387 . S
C280 N283 1.341 . S
C281 C279 1.400 . S
C281 C280 1.387 . S
N282 Co273 2.022 . S
N282 C279 1.351 . S
N282 N283 1.365 . S
N283 C280 1.341 . S
N283 N282 1.365 . S
N283 H303 0.862 . S
C284 C279 1.501 . S
C284 H285 0.961 . S
C284 H286 0.961 . S
C284 H287 0.960 . S
H285 C284 0.961 . S
H286 C284 0.961 . S
H287 C284 0.960 . S
C288 N289 1.342 . S
C288 C292 1.401 . S
C288 C293 1.499 . S
N289 Co272 1.989 . S
N289 C288 1.342 . S
N289 N290 1.388 . S
N290 Co273 1.993 . S
N290 N289 1.388 . S
N290 C291 1.346 . S
C291 N290 1.346 . S
C291 C292 1.396 . S
C291 C301 1.510 . S
C292 C288 1.401 . S
C292 C291 1.396 . S
C293 C288 1.499 . S
C293 H294 0.959 . S
C293 H295 0.960 . S
C293 H296 0.961 . S
H294 C293 0.959 . S
H295 C293 0.960 . S
H296 C293 0.961 . S
O297 Co272 1.967 . S
O297 C305 1.258 . S
O298 Co273 1.941 . S
O298 C305 1.266 . S
H299 C301 0.959 . S
H300 C301 0.961 . S
C301 C291 1.510 . S
C301 H299 0.959 . S
C301 H300 0.961 . S
C301 H302 0.960 . S
H302 C301 0.960 . S
H303 N283 0.862 . S
O304 Co272 1.920 . S
O304 C277 1.289 . S
C305 O297 1.258 . S
C305 O298 1.266 . S
Co306 O309 1.970 . S
Co306 N323 1.989 . S
Co306 O331 1.967 . S
Co306 O338 1.920 . S
Co307 O310 1.966 . S
Co307 N316 2.022 . S
Co307 N324 1.993 . S
Co307 O332 1.941 . S
C308 O309 1.258 . S
C308 O310 1.263 . S
O309 Co306 1.970 . S
O309 C308 1.258 . S
O310 Co307 1.966 . S
O310 C308 1.263 . S
C311 O312 1.235 . S
C311 O338 1.289 1_455 S
O312 C311 1.235 . S
C313 C315 1.400 . S
C313 N316 1.351 . S
C313 C318 1.501 . S
C314 C315 1.387 . S
C314 N317 1.341 . S
C315 C313 1.400 . S
C315 C314 1.387 . S
N316 Co307 2.022 . S
N316 C313 1.351 . S
N316 N317 1.365 . S
N317 C314 1.341 . S
N317 N316 1.365 . S
N317 H337 0.862 . S
C318 C313 1.501 . S
C318 H319 0.961 . S
C318 H320 0.961 . S
C318 H321 0.960 . S
H319 C318 0.961 . S
H320 C318 0.961 . S
H321 C318 0.960 . S
C322 N323 1.342 . S
C322 C326 1.401 . S
C322 C327 1.499 . S
N323 Co306 1.989 . S
N323 C322 1.342 . S
N323 N324 1.388 . S
N324 Co307 1.993 . S
N324 N323 1.388 . S
N324 C325 1.346 . S
C325 N324 1.346 . S
C325 C326 1.396 . S
C325 C335 1.510 . S
C326 C322 1.401 . S
C326 C325 1.396 . S
C327 C322 1.499 . S
C327 H328 0.959 . S
C327 H329 0.960 1_655 S
C327 H330 0.961 . S
H328 C327 0.959 . S
H329 C327 0.960 1_455 S
H330 C327 0.961 . S
O331 Co306 1.967 . S
O331 C339 1.258 . S
O332 Co307 1.941 . S
O332 C339 1.266 . S
H333 C335 0.959 . S
H334 C335 0.961 . S
C335 C325 1.510 . S
C335 H333 0.959 . S
C335 H334 0.961 . S
C335 H336 0.960 . S
H336 C335 0.960 . S
H337 N317 0.862 . S
O338 Co306 1.920 . S
O338 C311 1.289 1_655 S
C339 O331 1.258 . S
C339 O332 1.266 . S
Co340 O343 1.970 . S
Co340 N357 1.989 . S
Co340 O365 1.967 . S
Co340 O372 1.920 . S
Co341 O344 1.966 . S
Co341 N350 2.022 . S
Co341 N358 1.993 . S
Co341 O366 1.941 . S
C342 O343 1.258 . S
C342 O344 1.263 . S
O343 Co340 1.970 . S
O343 C342 1.258 . S
O344 Co341 1.966 . S
O344 C342 1.263 . S
C345 O346 1.235 . S
C345 O372 1.289 . S
O346 C345 1.235 . S
C347 C349 1.400 . S
C347 N350 1.351 . S
C347 C352 1.501 . S
C348 C349 1.387 . S
C348 N351 1.341 . S
C349 C347 1.400 . S
C349 C348 1.387 . S
N350 Co341 2.022 . S
N350 C347 1.351 . S
N350 N351 1.365 . S
N351 C348 1.341 . S
N351 N350 1.365 . S
N351 H371 0.862 . S
C352 C347 1.501 . S
C352 H353 0.961 . S
C352 H354 0.961 . S
C352 H355 0.960 . S
H353 C352 0.961 . S
H354 C352 0.961 . S
H355 C352 0.960 . S
C356 N357 1.342 . S
C356 C360 1.401 . S
C356 C361 1.499 . S
N357 Co340 1.989 . S
N357 C356 1.342 . S
N357 N358 1.388 . S
N358 Co341 1.993 . S
N358 N357 1.388 . S
N358 C359 1.346 . S
C359 N358 1.346 . S
C359 C360 1.396 . S
C359 C369 1.510 . S
C360 C356 1.401 . S
C360 C359 1.396 . S
C361 C356 1.499 . S
C361 H362 0.959 . S
C361 H363 0.960 . S
C361 H364 0.961 . S
H362 C361 0.959 . S
H363 C361 0.960 . S
H364 C361 0.961 . S
O365 Co340 1.967 . S
O365 C373 1.258 . S
O366 Co341 1.941 . S
O366 C373 1.266 . S
H367 C369 0.959 . S
H368 C369 0.961 . S
C369 C359 1.510 . S
C369 H367 0.959 . S
C369 H368 0.961 . S
C369 H370 0.960 . S
H370 C369 0.960 . S
H371 N351 0.862 . S
O372 Co340 1.920 . S
O372 C345 1.289 . S
C373 O365 1.258 . S
C373 O366 1.266 . S
Co374 O377 1.970 . S
Co374 N391 1.989 . S
Co374 O399 1.967 . S
Co374 O406 1.920 . S
Co375 O378 1.966 . S
Co375 N384 2.022 1_556 S
Co375 N392 1.993 . S
Co375 O400 1.941 . S
C376 O377 1.258 . S
C376 O378 1.263 . S
O377 Co374 1.970 . S
O377 C376 1.258 . S
O378 Co375 1.966 . S
O378 C376 1.263 . S
C379 O380 1.235 . S
C379 O406 1.289 . S
O380 C379 1.235 . S
C381 C383 1.400 . S
C381 N384 1.351 . S
C381 C386 1.501 . S
C382 C383 1.387 . S
C382 N385 1.341 . S
C383 C381 1.400 . S
C383 C382 1.387 . S
N384 Co375 2.022 1_554 S
N384 C381 1.351 . S
N384 N385 1.365 . S
N385 C382 1.341 . S
N385 N384 1.365 . S
N385 H405 0.862 . S
C386 C381 1.501 . S
C386 H387 0.961 . S
C386 H388 0.961 . S
C386 H389 0.960 . S
H387 C386 0.961 . S
H388 C386 0.961 . S
H389 C386 0.960 . S
C390 N391 1.342 . S
C390 C394 1.401 . S
C390 C395 1.499 . S
N391 Co374 1.989 . S
N391 C390 1.342 . S
N391 N392 1.388 . S
N392 Co375 1.993 . S
N392 N391 1.388 . S
N392 C393 1.346 . S
C393 N392 1.346 . S
C393 C394 1.396 . S
C393 C403 1.510 1_556 S
C394 C390 1.401 . S
C394 C393 1.396 . S
C395 C390 1.499 . S
C395 H396 0.959 . S
C395 H397 0.960 . S
C395 H398 0.961 . S
H396 C395 0.959 . S
H397 C395 0.960 . S
H398 C395 0.961 . S
O399 Co374 1.967 . S
O399 C407 1.258 . S
O400 Co375 1.941 . S
O400 C407 1.266 . S
H401 C403 0.959 . S
H402 C403 0.961 . S
C403 C393 1.510 1_554 S
C403 H401 0.959 . S
C403 H402 0.961 . S
C403 H404 0.960 . S
H404 C403 0.960 . S
H405 N385 0.862 . S
O406 Co374 1.920 . S
O406 C379 1.289 . S
C407 O399 1.258 . S
C407 O400 1.266 . S
Co408 O411 1.970 . S
Co408 N425 1.989 . S
Co408 O433 1.967 . S
Co408 O440 1.920 . S
Co409 O412 1.966 . S
Co409 N418 2.022 . S
Co409 N426 1.993 . S
Co409 O434 1.941 . S
C410 O411 1.258 . S
C410 O412 1.263 . S
O411 Co408 1.970 . S
O411 C410 1.258 . S
O412 Co409 1.966 . S
O412 C410 1.263 . S
C413 O414 1.235 . S
C413 O440 1.289 . S
O414 C413 1.235 . S
C415 C417 1.400 . S
C415 N418 1.351 . S
C415 C420 1.501 . S
C416 C417 1.387 . S
C416 N419 1.341 . S
C417 C415 1.400 . S
C417 C416 1.387 . S
N418 Co409 2.022 . S
N418 C415 1.351 . S
N418 N419 1.365 . S
N419 C416 1.341 . S
N419 N418 1.365 . S
N419 H439 0.862 . S
C420 C415 1.501 . S
C420 H421 0.961 . S
C420 H422 0.961 . S
C420 H423 0.960 . S
H421 C420 0.961 . S
H422 C420 0.961 . S
H423 C420 0.960 . S
C424 N425 1.342 . S
C424 C428 1.401 . S
C424 C429 1.499 . S
N425 Co408 1.989 . S
N425 C424 1.342 . S
N425 N426 1.388 . S
N426 Co409 1.993 . S
N426 N425 1.388 . S
N426 C427 1.346 . S
C427 N426 1.346 . S
C427 C428 1.396 . S
C427 C437 1.510 . S
C428 C424 1.401 . S
C428 C427 1.396 . S
C429 C424 1.499 . S
C429 H430 0.959 . S
C429 H431 0.960 . S
C429 H432 0.961 . S
H430 C429 0.959 . S
H431 C429 0.960 . S
H432 C429 0.961 . S
O433 Co408 1.967 . S
O433 C441 1.258 . S
O434 Co409 1.941 . S
O434 C441 1.266 . S
H435 C437 0.959 . S
H436 C437 0.961 . S
C437 C427 1.510 . S
C437 H435 0.959 . S
C437 H436 0.961 . S
C437 H438 0.960 . S
H438 C437 0.960 . S
H439 N419 0.862 . S
O440 Co408 1.920 . S
O440 C413 1.289 . S
C441 O433 1.258 . S
C441 O434 1.266 . S
Co442 O445 1.970 . S
Co442 N459 1.989 . S
Co442 O467 1.967 . S
Co442 O474 1.920 . S
Co443 O446 1.966 . S
Co443 N452 2.022 . S
Co443 N460 1.993 . S
Co443 O468 1.941 . S
C444 O445 1.258 . S
C444 O446 1.263 . S
O445 Co442 1.970 . S
O445 C444 1.258 . S
O446 Co443 1.966 . S
O446 C444 1.263 . S
C447 O448 1.235 . S
C447 O474 1.289 . S
O448 C447 1.235 . S
C449 C451 1.400 . S
C449 N452 1.351 . S
C449 C454 1.501 . S
C450 C451 1.387 . S
C450 N453 1.341 . S
C451 C449 1.400 . S
C451 C450 1.387 . S
N452 Co443 2.022 . S
N452 C449 1.351 . S
N452 N453 1.365 . S
N453 C450 1.341 . S
N453 N452 1.365 . S
N453 H473 0.862 . S
C454 C449 1.501 . S
C454 H455 0.961 . S
C454 H456 0.961 . S
C454 H457 0.960 . S
H455 C454 0.961 . S
H456 C454 0.961 . S
H457 C454 0.960 . S
C458 N459 1.342 . S
C458 C462 1.401 . S
C458 C463 1.499 . S
N459 Co442 1.989 . S
N459 C458 1.342 . S
N459 N460 1.388 . S
N460 Co443 1.993 . S
N460 N459 1.388 . S
N460 C461 1.346 . S
C461 N460 1.346 . S
C461 C462 1.396 . S
C461 C471 1.510 . S
C462 C458 1.401 . S
C462 C461 1.396 . S
C463 C458 1.499 . S
C463 H464 0.959 . S
C463 H465 0.960 . S
C463 H466 0.961 . S
H464 C463 0.959 . S
H465 C463 0.960 . S
H466 C463 0.961 . S
O467 Co442 1.967 . S
O467 C475 1.258 . S
O468 Co443 1.941 . S
O468 C475 1.266 . S
H469 C471 0.959 . S
H470 C471 0.961 . S
C471 C461 1.510 . S
C471 H469 0.959 . S
C471 H470 0.961 . S
C471 H472 0.960 . S
H472 C471 0.960 . S
H473 N453 0.862 . S
O474 Co442 1.920 . S
O474 C447 1.289 . S
C475 O467 1.258 . S
C475 O468 1.266 . S
Co476 O479 1.970 . S
Co476 N493 1.989 . S
Co476 O501 1.967 . S
Co476 O508 1.920 . S
Co477 O480 1.966 . S
Co477 N486 2.022 . S
Co477 N494 1.993 . S
Co477 O502 1.941 . S
C478 O479 1.258 . S
C478 O480 1.263 . S
O479 Co476 1.970 . S
O479 C478 1.258 . S
O480 Co477 1.966 . S
O480 C478 1.263 . S
C481 O482 1.235 . S
C481 O508 1.289 . S
O482 C481 1.235 . S
C483 C485 1.400 . S
C483 N486 1.351 . S
C483 C488 1.501 . S
C484 C485 1.387 . S
C484 N487 1.341 . S
C485 C483 1.400 . S
C485 C484 1.387 . S
N486 Co477 2.022 . S
N486 C483 1.351 . S
N486 N487 1.365 . S
N487 C484 1.341 . S
N487 N486 1.365 . S
N487 H507 0.862 . S
C488 C483 1.501 . S
C488 H489 0.961 . S
C488 H490 0.961 . S
C488 H491 0.960 . S
H489 C488 0.961 . S
H490 C488 0.961 . S
H491 C488 0.960 . S
C492 N493 1.342 . S
C492 C496 1.401 . S
C492 C497 1.499 . S
N493 Co476 1.989 . S
N493 C492 1.342 . S
N493 N494 1.388 . S
N494 Co477 1.993 . S
N494 N493 1.388 . S
N494 C495 1.346 . S
C495 N494 1.346 . S
C495 C496 1.396 . S
C495 C505 1.510 . S
C496 C492 1.401 . S
C496 C495 1.396 . S
C497 C492 1.499 . S
C497 H498 0.959 . S
C497 H499 0.960 . S
C497 H500 0.961 . S
H498 C497 0.959 . S
H499 C497 0.960 . S
H500 C497 0.961 . S
O501 Co476 1.967 . S
O501 C509 1.258 . S
O502 Co477 1.941 . S
O502 C509 1.266 . S
H503 C505 0.959 . S
H504 C505 0.961 . S
C505 C495 1.510 . S
C505 H503 0.959 . S
C505 H504 0.961 . S
C505 H506 0.960 . S
H506 C505 0.960 . S
H507 N487 0.862 . S
O508 Co476 1.920 . S
O508 C481 1.289 . S
C509 O501 1.258 . S
C509 O502 1.266 . S
Co510 O513 1.970 . S
Co510 N527 1.989 . S
Co510 O535 1.967 . S
Co510 O542 1.920 . S
Co511 O514 1.966 . S
Co511 N520 2.022 1_554 S
Co511 N528 1.993 . S
Co511 O536 1.941 . S
C512 O513 1.258 . S
C512 O514 1.263 . S
O513 Co510 1.970 . S
O513 C512 1.258 . S
O514 Co511 1.966 . S
O514 C512 1.263 . S
C515 O516 1.235 . S
C515 O542 1.289 1_455 S
O516 C515 1.235 . S
C517 C519 1.400 . S
C517 N520 1.351 . S
C517 C522 1.501 . S
C518 C519 1.387 . S
C518 N521 1.341 . S
C519 C517 1.400 . S
C519 C518 1.387 . S
N520 Co511 2.022 1_556 S
N520 C517 1.351 . S
N520 N521 1.365 . S
N521 C518 1.341 . S
N521 N520 1.365 . S
N521 H541 0.862 . S
C522 C517 1.501 . S
C522 H523 0.961 . S
C522 H524 0.961 . S
C522 H525 0.960 . S
H523 C522 0.961 . S
H524 C522 0.961 . S
H525 C522 0.960 . S
C526 N527 1.342 . S
C526 C530 1.401 . S
C526 C531 1.499 . S
N527 Co510 1.989 . S
N527 C526 1.342 . S
N527 N528 1.388 . S
N528 Co511 1.993 . S
N528 N527 1.388 . S
N528 C529 1.346 . S
C529 N528 1.346 . S
C529 C530 1.396 . S
C529 C539 1.510 1_554 S
C530 C526 1.401 . S
C530 C529 1.396 . S
C531 C526 1.499 . S
C531 H532 0.959 . S
C531 H533 0.960 1_655 S
C531 H534 0.961 . S
H532 C531 0.959 . S
H533 C531 0.960 1_455 S
H534 C531 0.961 . S
O535 Co510 1.967 . S
O535 C543 1.258 . S
O536 Co511 1.941 . S
O536 C543 1.266 . S
H537 C539 0.959 . S
H538 C539 0.961 . S
C539 C529 1.510 1_556 S
C539 H537 0.959 . S
C539 H538 0.961 . S
C539 H540 0.960 . S
H540 C539 0.960 . S
H541 N521 0.862 . S
O542 Co510 1.920 . S
O542 C515 1.289 1_655 S
C543 O535 1.258 . S
C543 O536 1.266 . S
Co544 O547 1.970 . S
Co544 N561 1.989 . S
Co544 O569 1.967 . S
Co544 O576 1.920 . S
Co545 O548 1.966 . S
Co545 N554 2.022 . S
Co545 N562 1.993 . S
Co545 O570 1.941 . S
C546 O547 1.258 . S
C546 O548 1.263 . S
O547 Co544 1.970 . S
O547 C546 1.258 . S
O548 Co545 1.966 . S
O548 C546 1.263 . S
C549 O550 1.235 . S
C549 O576 1.289 . S
O550 C549 1.235 . S
C551 C553 1.400 . S
C551 N554 1.351 . S
C551 C556 1.501 . S
C552 C553 1.387 . S
C552 N555 1.341 . S
C553 C551 1.400 . S
C553 C552 1.387 . S
N554 Co545 2.022 . S
N554 C551 1.351 . S
N554 N555 1.365 . S
N555 C552 1.341 . S
N555 N554 1.365 . S
N555 H575 0.862 . S
C556 C551 1.501 . S
C556 H557 0.961 . S
C556 H558 0.961 . S
C556 H559 0.960 . S
H557 C556 0.961 . S
H558 C556 0.961 . S
H559 C556 0.960 . S
C560 N561 1.342 . S
C560 C564 1.401 . S
C560 C565 1.499 . S
N561 Co544 1.989 . S
N561 C560 1.342 . S
N561 N562 1.388 . S
N562 Co545 1.993 . S
N562 N561 1.388 . S
N562 C563 1.346 . S
C563 N562 1.346 . S
C563 C564 1.396 . S
C563 C573 1.510 . S
C564 C560 1.401 . S
C564 C563 1.396 . S
C565 C560 1.499 . S
C565 H566 0.959 . S
C565 H567 0.960 . S
C565 H568 0.961 . S
H566 C565 0.959 . S
H567 C565 0.960 . S
H568 C565 0.961 . S
O569 Co544 1.967 . S
O569 C577 1.258 . S
O570 Co545 1.941 . S
O570 C577 1.266 . S
H571 C573 0.959 . S
H572 C573 0.961 . S
C573 C563 1.510 . S
C573 H571 0.959 . S
C573 H572 0.961 . S
C573 H574 0.960 . S
H574 C573 0.960 . S
H575 N555 0.862 . S
O576 Co544 1.920 . S
O576 C549 1.289 . S
C577 O569 1.258 . S
C577 O570 1.266 . S
Co578 O581 1.970 . S
Co578 N595 1.989 . S
Co578 O603 1.967 . S
Co578 O610 1.920 . S
Co579 O582 1.966 . S
Co579 N588 2.022 1_554 S
Co579 N596 1.993 . S
Co579 O604 1.941 . S
C580 O581 1.258 . S
C580 O582 1.263 . S
O581 Co578 1.970 . S
O581 C580 1.258 . S
O582 Co579 1.966 . S
O582 C580 1.263 . S
C583 O584 1.235 . S
C583 O610 1.289 . S
O584 C583 1.235 . S
C585 C587 1.400 . S
C585 N588 1.351 . S
C585 C590 1.501 . S
C586 C587 1.387 . S
C586 N589 1.341 . S
C587 C585 1.400 . S
C587 C586 1.387 . S
N588 Co579 2.022 1_556 S
N588 C585 1.351 . S
N588 N589 1.365 . S
N589 C586 1.341 . S
N589 N588 1.365 . S
N589 H609 0.862 . S
C590 C585 1.501 . S
C590 H591 0.961 . S
C590 H592 0.961 . S
C590 H593 0.960 . S
H591 C590 0.961 . S
H592 C590 0.961 . S
H593 C590 0.960 . S
C594 N595 1.342 . S
C594 C598 1.401 . S
C594 C599 1.499 . S
N595 Co578 1.989 . S
N595 C594 1.342 . S
N595 N596 1.388 . S
N596 Co579 1.993 . S
N596 N595 1.388 . S
N596 C597 1.346 . S
C597 N596 1.346 . S
C597 C598 1.396 . S
C597 C607 1.510 1_554 S
C598 C594 1.401 . S
C598 C597 1.396 . S
C599 C594 1.499 . S
C599 H600 0.959 . S
C599 H601 0.960 . S
C599 H602 0.961 . S
H600 C599 0.959 . S
H601 C599 0.960 . S
H602 C599 0.961 . S
O603 Co578 1.967 . S
O603 C611 1.258 . S
O604 Co579 1.941 . S
O604 C611 1.266 . S
H605 C607 0.959 . S
H606 C607 0.961 . S
C607 C597 1.510 1_556 S
C607 H605 0.959 . S
C607 H606 0.961 . S
C607 H608 0.960 . S
H608 C607 0.960 . S
H609 N589 0.862 . S
O610 Co578 1.920 . S
O610 C583 1.289 . S
C611 O603 1.258 . S
C611 O604 1.266 . S
Co612 O615 1.970 . S
Co612 N629 1.989 . S
Co612 O637 1.967 . S
Co612 O644 1.920 . S
Co613 O616 1.966 . S
Co613 N622 2.022 . S
Co613 N630 1.993 . S
Co613 O638 1.941 . S
C614 O615 1.258 . S
C614 O616 1.263 . S
O615 Co612 1.970 . S
O615 C614 1.258 . S
O616 Co613 1.966 . S
O616 C614 1.263 . S
C617 O618 1.235 . S
C617 O644 1.289 . S
O618 C617 1.235 . S
C619 C621 1.400 . S
C619 N622 1.351 . S
C619 C624 1.501 . S
C620 C621 1.387 . S
C620 N623 1.341 . S
C621 C619 1.400 . S
C621 C620 1.387 . S
N622 Co613 2.022 . S
N622 C619 1.351 . S
N622 N623 1.365 . S
N623 C620 1.341 . S
N623 N622 1.365 . S
N623 H643 0.862 . S
C624 C619 1.501 . S
C624 H625 0.961 . S
C624 H626 0.961 . S
C624 H627 0.960 . S
H625 C624 0.961 . S
H626 C624 0.961 . S
H627 C624 0.960 . S
C628 N629 1.342 . S
C628 C632 1.401 . S
C628 C633 1.499 . S
N629 Co612 1.989 . S
N629 C628 1.342 . S
N629 N630 1.388 . S
N630 Co613 1.993 . S
N630 N629 1.388 . S
N630 C631 1.346 . S
C631 N630 1.346 . S
C631 C632 1.396 . S
C631 C641 1.510 . S
C632 C628 1.401 . S
C632 C631 1.396 . S
C633 C628 1.499 . S
C633 H634 0.959 . S
C633 H635 0.960 . S
C633 H636 0.961 . S
H634 C633 0.959 . S
H635 C633 0.960 . S
H636 C633 0.961 . S
O637 Co612 1.967 . S
O637 C645 1.258 . S
O638 Co613 1.941 . S
O638 C645 1.266 . S
H639 C641 0.959 . S
H640 C641 0.961 . S
C641 C631 1.510 . S
C641 H639 0.959 . S
C641 H640 0.961 . S
C641 H642 0.960 . S
H642 C641 0.960 . S
H643 N623 0.862 . S
O644 Co612 1.920 . S
O644 C617 1.289 . S
C645 O637 1.258 . S
C645 O638 1.266 . S
Co646 O649 1.970 . S
Co646 N663 1.989 . S
Co646 O671 1.967 . S
Co646 O678 1.920 . S
Co647 O650 1.966 . S
Co647 N656 2.022 . S
Co647 N664 1.993 . S
Co647 O672 1.941 . S
C648 O649 1.258 . S
C648 O650 1.263 . S
O649 Co646 1.970 . S
O649 C648 1.258 . S
O650 Co647 1.966 . S
O650 C648 1.263 . S
C651 O652 1.235 . S
C651 O678 1.289 1_455 S
O652 C651 1.235 . S
C653 C655 1.400 . S
C653 N656 1.351 . S
C653 C658 1.501 . S
C654 C655 1.387 . S
C654 N657 1.341 . S
C655 C653 1.400 . S
C655 C654 1.387 . S
N656 Co647 2.022 . S
N656 C653 1.351 . S
N656 N657 1.365 . S
N657 C654 1.341 . S
N657 N656 1.365 . S
N657 H677 0.862 . S
C658 C653 1.501 . S
C658 H659 0.961 . S
C658 H660 0.961 . S
C658 H661 0.960 . S
H659 C658 0.961 . S
H660 C658 0.961 . S
H661 C658 0.960 . S
C662 N663 1.342 . S
C662 C666 1.401 . S
C662 C667 1.499 . S
N663 Co646 1.989 . S
N663 C662 1.342 . S
N663 N664 1.388 . S
N664 Co647 1.993 . S
N664 N663 1.388 . S
N664 C665 1.346 . S
C665 N664 1.346 . S
C665 C666 1.396 . S
C665 C675 1.510 . S
C666 C662 1.401 . S
C666 C665 1.396 . S
C667 C662 1.499 . S
C667 H668 0.959 . S
C667 H669 0.960 1_655 S
C667 H670 0.961 . S
H668 C667 0.959 . S
H669 C667 0.960 1_455 S
H670 C667 0.961 . S
O671 Co646 1.967 . S
O671 C679 1.258 . S
O672 Co647 1.941 . S
O672 C679 1.266 . S
H673 C675 0.959 . S
H674 C675 0.961 . S
C675 C665 1.510 . S
C675 H673 0.959 . S
C675 H674 0.961 . S
C675 H676 0.960 . S
H676 C675 0.960 . S
H677 N657 0.862 . S
O678 Co646 1.920 . S
O678 C651 1.289 1_655 S
C679 O671 1.258 . S
C679 O672 1.266 . S
Co680 O683 1.970 . S
Co680 N697 1.989 . S
Co680 O705 1.967 . S
Co680 O712 1.920 . S
Co681 O684 1.966 . S
Co681 N690 2.022 . S
Co681 N698 1.993 . S
Co681 O706 1.941 . S
C682 O683 1.258 . S
C682 O684 1.263 . S
O683 Co680 1.970 . S
O683 C682 1.258 . S
O684 Co681 1.966 . S
O684 C682 1.263 . S
C685 O686 1.235 . S
C685 O712 1.289 . S
O686 C685 1.235 . S
C687 C689 1.400 . S
C687 N690 1.351 . S
C687 C692 1.501 . S
C688 C689 1.387 . S
C688 N691 1.341 . S
C689 C687 1.400 . S
C689 C688 1.387 . S
N690 Co681 2.022 . S
N690 C687 1.351 . S
N690 N691 1.365 . S
N691 C688 1.341 . S
N691 N690 1.365 . S
N691 H711 0.862 . S
C692 C687 1.501 . S
C692 H693 0.961 . S
C692 H694 0.961 . S
C692 H695 0.960 . S
H693 C692 0.961 . S
H694 C692 0.961 . S
H695 C692 0.960 . S
C696 N697 1.342 . S
C696 C700 1.401 . S
C696 C701 1.499 . S
N697 Co680 1.989 . S
N697 C696 1.342 . S
N697 N698 1.388 . S
N698 Co681 1.993 . S
N698 N697 1.388 . S
N698 C699 1.346 . S
C699 N698 1.346 . S
C699 C700 1.396 . S
C699 C709 1.510 . S
C700 C696 1.401 . S
C700 C699 1.396 . S
C701 C696 1.499 . S
C701 H702 0.959 . S
C701 H703 0.960 . S
C701 H704 0.961 . S
H702 C701 0.959 . S
H703 C701 0.960 . S
H704 C701 0.961 . S
O705 Co680 1.967 . S
O705 C713 1.258 . S
O706 Co681 1.941 . S
O706 C713 1.266 . S
H707 C709 0.959 . S
H708 C709 0.961 . S
C709 C699 1.510 . S
C709 H707 0.959 . S
C709 H708 0.961 . S
C709 H710 0.960 . S
H710 C709 0.960 . S
H711 N691 0.862 . S
O712 Co680 1.920 . S
O712 C685 1.289 . S
C713 O705 1.258 . S
C713 O706 1.266 . S
Co714 O717 1.970 . S
Co714 N731 1.989 . S
Co714 O739 1.967 . S
Co714 O746 1.920 . S
Co715 O718 1.966 . S
Co715 N724 2.022 1_556 S
Co715 N732 1.993 . S
Co715 O740 1.941 . S
C716 O717 1.258 . S
C716 O718 1.263 . S
O717 Co714 1.970 . S
O717 C716 1.258 . S
O718 Co715 1.966 . S
O718 C716 1.263 . S
C719 O720 1.235 . S
C719 O746 1.289 1_455 S
O720 C719 1.235 . S
C721 C723 1.400 . S
C721 N724 1.351 . S
C721 C726 1.501 . S
C722 C723 1.387 . S
C722 N725 1.341 . S
C723 C721 1.400 . S
C723 C722 1.387 . S
N724 Co715 2.022 1_554 S
N724 C721 1.351 . S
N724 N725 1.365 . S
N725 C722 1.341 . S
N725 N724 1.365 . S
N725 H745 0.862 . S
C726 C721 1.501 . S
C726 H727 0.961 . S
C726 H728 0.961 . S
C726 H729 0.960 . S
H727 C726 0.961 . S
H728 C726 0.961 . S
H729 C726 0.960 . S
C730 N731 1.342 . S
C730 C734 1.401 . S
C730 C735 1.499 . S
N731 Co714 1.989 . S
N731 C730 1.342 . S
N731 N732 1.388 . S
N732 Co715 1.993 . S
N732 N731 1.388 . S
N732 C733 1.346 . S
C733 N732 1.346 . S
C733 C734 1.396 . S
C733 C743 1.510 1_556 S
C734 C730 1.401 . S
C734 C733 1.396 . S
C735 C730 1.499 . S
C735 H736 0.959 . S
C735 H737 0.960 1_655 S
C735 H738 0.961 . S
H736 C735 0.959 . S
H737 C735 0.960 1_455 S
H738 C735 0.961 . S
O739 Co714 1.967 . S
O739 C747 1.258 . S
O740 Co715 1.941 . S
O740 C747 1.266 . S
H741 C743 0.959 . S
H742 C743 0.961 . S
C743 C733 1.510 1_554 S
C743 H741 0.959 . S
C743 H742 0.961 . S
C743 H744 0.960 . S
H744 C743 0.960 . S
H745 N725 0.862 . S
O746 Co714 1.920 . S
O746 C719 1.289 1_655 S
C747 O739 1.258 . S
C747 O740 1.266 . S
Co748 O751 1.970 . S
Co748 N765 1.989 . S
Co748 O773 1.967 . S
Co748 O780 1.920 . S
Co749 O752 1.966 . S
Co749 N758 2.022 . S
Co749 N766 1.993 . S
Co749 O774 1.941 . S
C750 O751 1.258 . S
C750 O752 1.263 . S
O751 Co748 1.970 . S
O751 C750 1.258 . S
O752 Co749 1.966 . S
O752 C750 1.263 . S
C753 O754 1.235 . S
C753 O780 1.289 . S
O754 C753 1.235 . S
C755 C757 1.400 . S
C755 N758 1.351 . S
C755 C760 1.501 . S
C756 C757 1.387 . S
C756 N759 1.341 . S
C757 C755 1.400 . S
C757 C756 1.387 . S
N758 Co749 2.022 . S
N758 C755 1.351 . S
N758 N759 1.365 . S
N759 C756 1.341 . S
N759 N758 1.365 . S
N759 H779 0.862 . S
C760 C755 1.501 . S
C760 H761 0.961 . S
C760 H762 0.961 . S
C760 H763 0.960 . S
H761 C760 0.961 . S
H762 C760 0.961 . S
H763 C760 0.960 . S
C764 N765 1.342 . S
C764 C768 1.401 . S
C764 C769 1.499 . S
N765 Co748 1.989 . S
N765 C764 1.342 . S
N765 N766 1.388 . S
N766 Co749 1.993 . S
N766 N765 1.388 . S
N766 C767 1.346 . S
C767 N766 1.346 . S
C767 C768 1.396 . S
C767 C777 1.510 . S
C768 C764 1.401 . S
C768 C767 1.396 . S
C769 C764 1.499 . S
C769 H770 0.959 . S
C769 H771 0.960 . S
C769 H772 0.961 . S
H770 C769 0.959 . S
H771 C769 0.960 . S
H772 C769 0.961 . S
O773 Co748 1.967 . S
O773 C781 1.258 . S
O774 Co749 1.941 . S
O774 C781 1.266 . S
H775 C777 0.959 . S
H776 C777 0.961 . S
C777 C767 1.510 . S
C777 H775 0.959 . S
C777 H776 0.961 . S
C777 H778 0.960 . S
H778 C777 0.960 . S
H779 N759 0.862 . S
O780 Co748 1.920 . S
O780 C753 1.289 . S
C781 O773 1.258 . S
C781 O774 1.266 . S
Co782 O785 1.970 . S
Co782 N799 1.989 . S
Co782 O807 1.967 . S
Co782 O814 1.920 . S
Co783 O786 1.966 . S
Co783 N792 2.022 . S
Co783 N800 1.993 . S
Co783 O808 1.941 . S
C784 O785 1.258 . S
C784 O786 1.263 . S
O785 Co782 1.970 . S
O785 C784 1.258 . S
O786 Co783 1.966 . S
O786 C784 1.263 . S
C787 O788 1.235 . S
C787 O814 1.289 . S
O788 C787 1.235 . S
C789 C791 1.400 . S
C789 N792 1.351 . S
C789 C794 1.501 . S
C790 C791 1.387 . S
C790 N793 1.341 . S
C791 C789 1.400 . S
C791 C790 1.387 . S
N792 Co783 2.022 . S
N792 C789 1.351 . S
N792 N793 1.365 . S
N793 C790 1.341 . S
N793 N792 1.365 . S
N793 H813 0.862 . S
C794 C789 1.501 . S
C794 H795 0.961 . S
C794 H796 0.961 . S
C794 H797 0.960 . S
H795 C794 0.961 . S
H796 C794 0.961 . S
H797 C794 0.960 . S
C798 N799 1.342 . S
C798 C802 1.401 . S
C798 C803 1.499 . S
N799 Co782 1.989 . S
N799 C798 1.342 . S
N799 N800 1.388 . S
N800 Co783 1.993 . S
N800 N799 1.388 . S
N800 C801 1.346 . S
C801 N800 1.346 . S
C801 C802 1.396 . S
C801 C811 1.510 . S
C802 C798 1.401 . S
C802 C801 1.396 . S
C803 C798 1.499 . S
C803 H804 0.959 . S
C803 H805 0.960 . S
C803 H806 0.961 . S
H804 C803 0.959 . S
H805 C803 0.960 . S
H806 C803 0.961 . S
O807 Co782 1.967 . S
O807 C815 1.258 . S
O808 Co783 1.941 . S
O808 C815 1.266 . S
H809 C811 0.959 . S
H810 C811 0.961 . S
C811 C801 1.510 . S
C811 H809 0.959 . S
C811 H810 0.961 . S
C811 H812 0.960 . S
H812 C811 0.960 . S
H813 N793 0.862 . S
O814 Co782 1.920 . S
O814 C787 1.289 . S
C815 O807 1.258 . S
C815 O808 1.266 . S
Co816 O819 1.970 . S
Co816 N833 1.989 . S
Co816 O841 1.967 . S
Co816 O848 1.920 . S
Co817 O820 1.966 . S
Co817 N826 2.022 . S
Co817 N834 1.993 . S
Co817 O842 1.941 . S
C818 O819 1.258 . S
C818 O820 1.263 . S
O819 Co816 1.970 . S
O819 C818 1.258 . S
O820 Co817 1.966 . S
O820 C818 1.263 . S
C821 O822 1.235 . S
C821 O848 1.289 . S
O822 C821 1.235 . S
C823 C825 1.400 . S
C823 N826 1.351 . S
C823 C828 1.501 . S
C824 C825 1.387 . S
C824 N827 1.341 . S
C825 C823 1.400 . S
C825 C824 1.387 . S
N826 Co817 2.022 . S
N826 C823 1.351 . S
N826 N827 1.365 . S
N827 C824 1.341 . S
N827 N826 1.365 . S
N827 H847 0.862 . S
C828 C823 1.501 . S
C828 H829 0.961 . S
C828 H830 0.961 . S
C828 H831 0.960 . S
H829 C828 0.961 . S
H830 C828 0.961 . S
H831 C828 0.960 . S
C832 N833 1.342 . S
C832 C836 1.401 . S
C832 C837 1.499 . S
N833 Co816 1.989 . S
N833 C832 1.342 . S
N833 N834 1.388 . S
N834 Co817 1.993 . S
N834 N833 1.388 . S
N834 C835 1.346 . S
C835 N834 1.346 . S
C835 C836 1.396 . S
C835 C845 1.510 . S
C836 C832 1.401 . S
C836 C835 1.396 . S
C837 C832 1.499 . S
C837 H838 0.959 . S
C837 H839 0.960 . S
C837 H840 0.961 . S
H838 C837 0.959 . S
H839 C837 0.960 . S
H840 C837 0.961 . S
O841 Co816 1.967 . S
O841 C849 1.258 . S
O842 Co817 1.941 . S
O842 C849 1.266 . S
H843 C845 0.959 . S
H844 C845 0.961 . S
C845 C835 1.510 . S
C845 H843 0.959 . S
C845 H844 0.961 . S
C845 H846 0.960 . S
H846 C845 0.960 . S
H847 N827 0.862 . S
O848 Co816 1.920 . S
O848 C821 1.289 . S
C849 O841 1.258 . S
C849 O842 1.266 . S
Co850 O853 1.970 . S
Co850 N867 1.989 . S
Co850 O875 1.967 . S
Co850 O882 1.920 . S
Co851 O854 1.966 . S
Co851 N860 2.022 1_556 S
Co851 N868 1.993 . S
Co851 O876 1.941 . S
C852 O853 1.258 . S
C852 O854 1.263 . S
O853 Co850 1.970 . S
O853 C852 1.258 . S
O854 Co851 1.966 . S
O854 C852 1.263 . S
C855 O856 1.235 . S
C855 O882 1.289 . S
O856 C855 1.235 . S
C857 C859 1.400 . S
C857 N860 1.351 . S
C857 C862 1.501 . S
C858 C859 1.387 . S
C858 N861 1.341 . S
C859 C857 1.400 . S
C859 C858 1.387 . S
N860 Co851 2.022 1_554 S
N860 C857 1.351 . S
N860 N861 1.365 . S
N861 C858 1.341 . S
N861 N860 1.365 . S
N861 H881 0.862 . S
C862 C857 1.501 . S
C862 H863 0.961 . S
C862 H864 0.961 . S
C862 H865 0.960 . S
H863 C862 0.961 . S
H864 C862 0.961 . S
H865 C862 0.960 . S
C866 N867 1.342 . S
C866 C870 1.401 . S
C866 C871 1.499 . S
N867 Co850 1.989 . S
N867 C866 1.342 . S
N867 N868 1.388 . S
N868 Co851 1.993 . S
N868 N867 1.388 . S
N868 C869 1.346 . S
C869 N868 1.346 . S
C869 C870 1.396 . S
C869 C879 1.510 1_556 S
C870 C866 1.401 . S
C870 C869 1.396 . S
C871 C866 1.499 . S
C871 H872 0.959 . S
C871 H873 0.960 . S
C871 H874 0.961 . S
H872 C871 0.959 . S
H873 C871 0.960 . S
H874 C871 0.961 . S
O875 Co850 1.967 . S
O875 C883 1.258 . S
O876 Co851 1.941 . S
O876 C883 1.266 . S
H877 C879 0.959 . S
H878 C879 0.961 . S
C879 C869 1.510 1_554 S
C879 H877 0.959 . S
C879 H878 0.961 . S
C879 H880 0.960 . S
H880 C879 0.960 . S
H881 N861 0.862 . S
O882 Co850 1.920 . S
O882 C855 1.289 . S
C883 O875 1.258 . S
C883 O876 1.266 . S
Co884 O887 1.970 . S
Co884 N901 1.989 . S
Co884 O909 1.967 . S
Co884 O916 1.920 . S
Co885 O888 1.966 . S
Co885 N894 2.022 . S
Co885 N902 1.993 . S
Co885 O910 1.941 . S
C886 O887 1.258 . S
C886 O888 1.263 . S
O887 Co884 1.970 . S
O887 C886 1.258 . S
O888 Co885 1.966 . S
O888 C886 1.263 . S
C889 O890 1.235 . S
C889 O916 1.289 . S
O890 C889 1.235 . S
C891 C893 1.400 . S
C891 N894 1.351 . S
C891 C896 1.501 . S
C892 C893 1.387 . S
C892 N895 1.341 . S
C893 C891 1.400 . S
C893 C892 1.387 . S
N894 Co885 2.022 . S
N894 C891 1.351 . S
N894 N895 1.365 . S
N895 C892 1.341 . S
N895 N894 1.365 . S
N895 H915 0.862 . S
C896 C891 1.501 . S
C896 H897 0.961 . S
C896 H898 0.961 . S
C896 H899 0.960 . S
H897 C896 0.961 . S
H898 C896 0.961 . S
H899 C896 0.960 . S
C900 N901 1.342 . S
C900 C904 1.401 . S
C900 C905 1.499 . S
N901 Co884 1.989 . S
N901 C900 1.342 . S
N901 N902 1.388 . S
N902 Co885 1.993 . S
N902 N901 1.388 . S
N902 C903 1.346 . S
C903 N902 1.346 . S
C903 C904 1.396 . S
C903 C913 1.510 . S
C904 C900 1.401 . S
C904 C903 1.396 . S
C905 C900 1.499 . S
C905 H906 0.959 . S
C905 H907 0.960 . S
C905 H908 0.961 . S
H906 C905 0.959 . S
H907 C905 0.960 . S
H908 C905 0.961 . S
O909 Co884 1.967 . S
O909 C917 1.258 . S
O910 Co885 1.941 . S
O910 C917 1.266 . S
H911 C913 0.959 . S
H912 C913 0.961 . S
C913 C903 1.510 . S
C913 H911 0.959 . S
C913 H912 0.961 . S
C913 H914 0.960 . S
H914 C913 0.960 . S
H915 N895 0.862 . S
O916 Co884 1.920 . S
O916 C889 1.289 . S
C917 O909 1.258 . S
C917 O910 1.266 . S
Co918 O921 1.970 . S
Co918 N935 1.989 . S
Co918 O943 1.967 . S
Co918 O950 1.920 . S
Co919 O922 1.966 . S
Co919 N928 2.022 . S
Co919 N936 1.993 . S
Co919 O944 1.941 . S
C920 O921 1.258 . S
C920 O922 1.263 . S
O921 Co918 1.970 . S
O921 C920 1.258 . S
O922 Co919 1.966 . S
O922 C920 1.263 . S
C923 O924 1.235 . S
C923 O950 1.289 1_655 S
O924 C923 1.235 . S
C925 C927 1.400 . S
C925 N928 1.351 . S
C925 C930 1.501 . S
C926 C927 1.387 . S
C926 N929 1.341 . S
C927 C925 1.400 . S
C927 C926 1.387 . S
N928 Co919 2.022 . S
N928 C925 1.351 . S
N928 N929 1.365 . S
N929 C926 1.341 . S
N929 N928 1.365 . S
N929 H949 0.862 . S
C930 C925 1.501 . S
C930 H931 0.961 . S
C930 H932 0.961 . S
C930 H933 0.960 . S
H931 C930 0.961 . S
H932 C930 0.961 . S
H933 C930 0.960 . S
C934 N935 1.342 . S
C934 C938 1.401 . S
C934 C939 1.499 . S
N935 Co918 1.989 . S
N935 C934 1.342 . S
N935 N936 1.388 . S
N936 Co919 1.993 . S
N936 N935 1.388 . S
N936 C937 1.346 . S
C937 N936 1.346 . S
C937 C938 1.396 . S
C937 C947 1.510 . S
C938 C934 1.401 . S
C938 C937 1.396 . S
C939 C934 1.499 . S
C939 H940 0.959 . S
C939 H941 0.960 1_455 S
C939 H942 0.961 . S
H940 C939 0.959 . S
H941 C939 0.960 1_655 S
H942 C939 0.961 . S
O943 Co918 1.967 . S
O943 C951 1.258 . S
O944 Co919 1.941 . S
O944 C951 1.266 . S
H945 C947 0.959 . S
H946 C947 0.961 . S
C947 C937 1.510 . S
C947 H945 0.959 . S
C947 H946 0.961 . S
C947 H948 0.960 . S
H948 C947 0.960 . S
H949 N929 0.862 . S
O950 Co918 1.920 . S
O950 C923 1.289 1_455 S
C951 O943 1.258 . S
C951 O944 1.266 . S
Co952 O955 1.970 . S
Co952 N969 1.989 . S
Co952 O977 1.967 . S
Co952 O984 1.920 . S
Co953 O956 1.966 . S
Co953 N962 2.022 . S
Co953 N970 1.993 . S
Co953 O978 1.941 . S
C954 O955 1.258 . S
C954 O956 1.263 . S
O955 Co952 1.970 . S
O955 C954 1.258 . S
O956 Co953 1.966 . S
O956 C954 1.263 . S
C957 O958 1.235 . S
C957 O984 1.289 . S
O958 C957 1.235 . S
C959 C961 1.400 . S
C959 N962 1.351 . S
C959 C964 1.501 . S
C960 C961 1.387 . S
C960 N963 1.341 . S
C961 C959 1.400 . S
C961 C960 1.387 . S
N962 Co953 2.022 . S
N962 C959 1.351 . S
N962 N963 1.365 . S
N963 C960 1.341 . S
N963 N962 1.365 . S
N963 H983 0.862 . S
C964 C959 1.501 . S
C964 H965 0.961 . S
C964 H966 0.961 . S
C964 H967 0.960 . S
H965 C964 0.961 . S
H966 C964 0.961 . S
H967 C964 0.960 . S
C968 N969 1.342 . S
C968 C972 1.401 . S
C968 C973 1.499 . S
N969 Co952 1.989 . S
N969 C968 1.342 . S
N969 N970 1.388 . S
N970 Co953 1.993 . S
N970 N969 1.388 . S
N970 C971 1.346 . S
C971 N970 1.346 . S
C971 C972 1.396 . S
C971 C981 1.510 . S
C972 C968 1.401 . S
C972 C971 1.396 . S
C973 C968 1.499 . S
C973 H974 0.959 . S
C973 H975 0.960 . S
C973 H976 0.961 . S
H974 C973 0.959 . S
H975 C973 0.960 . S
H976 C973 0.961 . S
O977 Co952 1.967 . S
O977 C985 1.258 . S
O978 Co953 1.941 . S
O978 C985 1.266 . S
H979 C981 0.959 . S
H980 C981 0.961 . S
C981 C971 1.510 . S
C981 H979 0.959 . S
C981 H980 0.961 . S
C981 H982 0.960 . S
H982 C981 0.960 . S
H983 N963 0.862 . S
O984 Co952 1.920 . S
O984 C957 1.289 . S
C985 O977 1.258 . S
C985 O978 1.266 . S
Co986 O989 1.970 . S
Co986 N1003 1.989 . S
Co986 O1011 1.967 . S
Co986 O1018 1.920 . S
Co987 O990 1.966 . S
Co987 N996 2.022 1_554 S
Co987 N1004 1.993 . S
Co987 O1012 1.941 . S
C988 O989 1.258 . S
C988 O990 1.263 . S
O989 Co986 1.970 . S
O989 C988 1.258 . S
O990 Co987 1.966 . S
O990 C988 1.263 . S
C991 O992 1.235 . S
C991 O1018 1.289 1_655 S
O992 C991 1.235 . S
C993 C995 1.400 . S
C993 N996 1.351 . S
C993 C998 1.501 . S
C994 C995 1.387 . S
C994 N997 1.341 . S
C995 C993 1.400 . S
C995 C994 1.387 . S
N996 Co987 2.022 1_556 S
N996 C993 1.351 . S
N996 N997 1.365 . S
N997 C994 1.341 . S
N997 N996 1.365 . S
N997 H1017 0.862 . S
C998 C993 1.501 . S
C998 H999 0.961 . S
C998 H1000 0.961 . S
C998 H1001 0.960 . S
H999 C998 0.961 . S
H1000 C998 0.961 . S
H1001 C998 0.960 . S
C1002 N1003 1.342 . S
C1002 C1006 1.401 . S
C1002 C1007 1.499 . S
N1003 Co986 1.989 . S
N1003 C1002 1.342 . S
N1003 N1004 1.388 . S
N1004 Co987 1.993 . S
N1004 N1003 1.388 . S
N1004 C1005 1.346 . S
C1005 N1004 1.346 . S
C1005 C1006 1.396 . S
C1005 C1015 1.510 1_554 S
C1006 C1002 1.401 . S
C1006 C1005 1.396 . S
C1007 C1002 1.499 . S
C1007 H1008 0.959 . S
C1007 H1009 0.960 1_455 S
C1007 H1010 0.961 . S
H1008 C1007 0.959 . S
H1009 C1007 0.960 1_655 S
H1010 C1007 0.961 . S
O1011 Co986 1.967 . S
O1011 C1019 1.258 . S
O1012 Co987 1.941 . S
O1012 C1019 1.266 . S
H1013 C1015 0.959 . S
H1014 C1015 0.961 . S
C1015 C1005 1.510 1_556 S
C1015 H1013 0.959 . S
C1015 H1014 0.961 . S
C1015 H1016 0.960 . S
H1016 C1015 0.960 . S
H1017 N997 0.862 . S
O1018 Co986 1.920 . S
O1018 C991 1.289 1_455 S
C1019 O1011 1.258 . S
C1019 O1012 1.266 . S
Co1020 O1023 1.970 . S
Co1020 N1037 1.989 . S
Co1020 O1045 1.967 . S
Co1020 O1052 1.920 . S
Co1021 O1024 1.966 . S
Co1021 N1030 2.022 . S
Co1021 N1038 1.993 . S
Co1021 O1046 1.941 . S
C1022 O1023 1.258 . S
C1022 O1024 1.263 . S
O1023 Co1020 1.970 . S
O1023 C1022 1.258 . S
O1024 Co1021 1.966 . S
O1024 C1022 1.263 . S
C1025 O1026 1.235 . S
C1025 O1052 1.289 . S
O1026 C1025 1.235 . S
C1027 C1029 1.400 . S
C1027 N1030 1.351 . S
C1027 C1032 1.501 . S
C1028 C1029 1.387 . S
C1028 N1031 1.341 . S
C1029 C1027 1.400 . S
C1029 C1028 1.387 . S
N1030 Co1021 2.022 . S
N1030 C1027 1.351 . S
N1030 N1031 1.365 . S
N1031 C1028 1.341 . S
N1031 N1030 1.365 . S
N1031 H1051 0.862 . S
C1032 C1027 1.501 . S
C1032 H1033 0.961 . S
C1032 H1034 0.961 . S
C1032 H1035 0.960 . S
H1033 C1032 0.961 . S
H1034 C1032 0.961 . S
H1035 C1032 0.960 . S
C1036 N1037 1.342 . S
C1036 C1040 1.401 . S
C1036 C1041 1.499 . S
N1037 Co1020 1.989 . S
N1037 C1036 1.342 . S
N1037 N1038 1.388 . S
N1038 Co1021 1.993 . S
N1038 N1037 1.388 . S
N1038 C1039 1.346 . S
C1039 N1038 1.346 . S
C1039 C1040 1.396 . S
C1039 C1049 1.510 . S
C1040 C1036 1.401 . S
C1040 C1039 1.396 . S
C1041 C1036 1.499 . S
C1041 H1042 0.959 . S
C1041 H1043 0.960 . S
C1041 H1044 0.961 . S
H1042 C1041 0.959 . S
H1043 C1041 0.960 . S
H1044 C1041 0.961 . S
O1045 Co1020 1.967 . S
O1045 C1053 1.258 . S
O1046 Co1021 1.941 . S
O1046 C1053 1.266 . S
H1047 C1049 0.959 . S
H1048 C1049 0.961 . S
C1049 C1039 1.510 . S
C1049 H1047 0.959 . S
C1049 H1048 0.961 . S
C1049 H1050 0.960 . S
H1050 C1049 0.960 . S
H1051 N1031 0.862 . S
O1052 Co1020 1.920 . S
O1052 C1025 1.289 . S
C1053 O1045 1.258 . S
C1053 O1046 1.266 . S
Co1054 O1057 1.970 . S
Co1054 N1071 1.989 . S
Co1054 O1079 1.967 . S
Co1054 O1086 1.920 . S
Co1055 O1058 1.966 . S
Co1055 N1064 2.022 . S
Co1055 N1072 1.993 . S
Co1055 O1080 1.941 . S
C1056 O1057 1.258 . S
C1056 O1058 1.263 . S
O1057 Co1054 1.970 . S
O1057 C1056 1.258 . S
O1058 Co1055 1.966 . S
O1058 C1056 1.263 . S
C1059 O1060 1.235 . S
C1059 O1086 1.289 . S
O1060 C1059 1.235 . S
C1061 C1063 1.400 . S
C1061 N1064 1.351 . S
C1061 C1066 1.501 . S
C1062 C1063 1.387 . S
C1062 N1065 1.341 . S
C1063 C1061 1.400 . S
C1063 C1062 1.387 . S
N1064 Co1055 2.022 . S
N1064 C1061 1.351 . S
N1064 N1065 1.365 . S
N1065 C1062 1.341 . S
N1065 N1064 1.365 . S
N1065 H1085 0.862 . S
C1066 C1061 1.501 . S
C1066 H1067 0.961 . S
C1066 H1068 0.961 . S
C1066 H1069 0.960 . S
H1067 C1066 0.961 . S
H1068 C1066 0.961 . S
H1069 C1066 0.960 . S
C1070 N1071 1.342 . S
C1070 C1074 1.401 . S
C1070 C1075 1.499 . S
N1071 Co1054 1.989 . S
N1071 C1070 1.342 . S
N1071 N1072 1.388 . S
N1072 Co1055 1.993 . S
N1072 N1071 1.388 . S
N1072 C1073 1.346 . S
C1073 N1072 1.346 . S
C1073 C1074 1.396 . S
C1073 C1083 1.510 . S
C1074 C1070 1.401 . S
C1074 C1073 1.396 . S
C1075 C1070 1.499 . S
C1075 H1076 0.959 . S
C1075 H1077 0.960 . S
C1075 H1078 0.961 . S
H1076 C1075 0.959 . S
H1077 C1075 0.960 . S
H1078 C1075 0.961 . S
O1079 Co1054 1.967 . S
O1079 C1087 1.258 . S
O1080 Co1055 1.941 . S
O1080 C1087 1.266 . S
H1081 C1083 0.959 . S
H1082 C1083 0.961 . S
C1083 C1073 1.510 . S
C1083 H1081 0.959 . S
C1083 H1082 0.961 . S
C1083 H1084 0.960 . S
H1084 C1083 0.960 . S
H1085 N1065 0.862 . S
O1086 Co1054 1.920 . S
O1086 C1059 1.289 . S
C1087 O1079 1.258 . S
C1087 O1080 1.266 . S
C1088 C1089 1.363 . S
C1088 C1094 1.379 . S
C1088 N1096 1.356 . S
C1089 C1088 1.363 . S
C1089 C1095 1.363 . S
C1090 C1091 1.363 . S
C1090 C1095 1.379 . S
C1090 N1097 1.356 . S
C1091 C1090 1.363 . S
C1091 C1094 1.363 . S
N1092 C1094 1.356 . S
N1092 H1104 0.984 . S
N1092 H1105 0.985 . S
N1093 C1095 1.356 . S
N1093 H1098 0.984 . S
N1093 H1099 0.985 . S
C1094 C1088 1.379 . S
C1094 C1091 1.363 . S
C1094 N1092 1.356 . S
C1095 C1089 1.363 . S
C1095 C1090 1.379 . S
C1095 N1093 1.356 . S
N1096 C1088 1.356 . S
N1096 H1102 0.984 . S
N1096 H1103 0.984 . S
N1097 C1090 1.356 . S
N1097 H1100 0.984 . S
N1097 H1101 0.985 . S
H1098 N1093 0.984 . S
H1099 N1093 0.985 . S
H1100 N1097 0.984 . S
H1101 N1097 0.985 . S
H1102 N1096 0.984 . S
H1103 N1096 0.984 . S
H1104 N1092 0.984 . S
H1105 N1092 0.985 . S
C1106 C1107 1.363 . S
C1106 C1112 1.379 . S
C1106 N1114 1.356 . S
C1107 C1106 1.363 . S
C1107 C1113 1.363 . S
C1108 C1109 1.363 . S
C1108 C1113 1.379 . S
C1108 N1115 1.356 . S
C1109 C1108 1.363 . S
C1109 C1112 1.363 . S
N1110 C1112 1.356 . S
N1110 H1122 0.984 . S
N1110 H1123 0.985 . S
N1111 C1113 1.356 . S
N1111 H1116 0.984 . S
N1111 H1117 0.985 . S
C1112 C1106 1.379 . S
C1112 C1109 1.363 . S
C1112 N1110 1.356 . S
C1113 C1107 1.363 . S
C1113 C1108 1.379 . S
C1113 N1111 1.356 . S
N1114 C1106 1.356 . S
N1114 H1120 0.984 . S
N1114 H1121 0.984 . S
N1115 C1108 1.356 . S
N1115 H1118 0.984 . S
N1115 H1119 0.985 . S
H1116 N1111 0.984 . S
H1117 N1111 0.985 . S
H1118 N1115 0.984 . S
H1119 N1115 0.985 . S
H1120 N1114 0.984 . S
H1121 N1114 0.984 . S
H1122 N1110 0.984 . S
H1123 N1110 0.985 . S
C1124 C1125 1.363 . S
C1124 C1130 1.379 . S
C1124 N1132 1.356 . S
C1125 C1124 1.363 . S
C1125 C1131 1.363 . S
C1126 C1127 1.363 . S
C1126 C1131 1.379 . S
C1126 N1133 1.356 . S
C1127 C1126 1.363 . S
C1127 C1130 1.363 . S
N1128 C1130 1.356 . S
N1128 H1140 0.984 . S
N1128 H1141 0.985 . S
N1129 C1131 1.356 . S
N1129 H1134 0.984 . S
N1129 H1135 0.985 . S
C1130 C1124 1.379 . S
C1130 C1127 1.363 . S
C1130 N1128 1.356 . S
C1131 C1125 1.363 . S
C1131 C1126 1.379 . S
C1131 N1129 1.356 . S
N1132 C1124 1.356 . S
N1132 H1138 0.984 . S
N1132 H1139 0.984 . S
N1133 C1126 1.356 . S
N1133 H1136 0.984 . S
N1133 H1137 0.985 . S
H1134 N1129 0.984 . S
H1135 N1129 0.985 . S
H1136 N1133 0.984 . S
H1137 N1133 0.985 . S
H1138 N1132 0.984 . S
H1139 N1132 0.984 . S
H1140 N1128 0.984 . S
H1141 N1128 0.985 . S
C1142 C1143 1.363 . S
C1142 C1148 1.379 . S
C1142 N1150 1.356 . S
C1143 C1142 1.363 . S
C1143 C1149 1.363 . S
C1144 C1145 1.363 . S
C1144 C1149 1.379 . S
C1144 N1151 1.356 . S
C1145 C1144 1.363 . S
C1145 C1148 1.363 . S
N1146 C1148 1.356 . S
N1146 H1158 0.984 . S
N1146 H1159 0.985 . S
N1147 C1149 1.356 . S
N1147 H1152 0.984 . S
N1147 H1153 0.985 . S
C1148 C1142 1.379 . S
C1148 C1145 1.363 . S
C1148 N1146 1.356 . S
C1149 C1143 1.363 . S
C1149 C1144 1.379 . S
C1149 N1147 1.356 . S
N1150 C1142 1.356 . S
N1150 H1156 0.984 . S
N1150 H1157 0.984 . S
N1151 C1144 1.356 . S
N1151 H1154 0.984 . S
N1151 H1155 0.985 . S
H1152 N1147 0.984 . S
H1153 N1147 0.985 . S
H1154 N1151 0.984 . S
H1155 N1151 0.985 . S
H1156 N1150 0.984 . S
H1157 N1150 0.984 . S
H1158 N1146 0.984 . S
H1159 N1146 0.985 . S
C1160 C1161 1.363 . S
C1160 C1166 1.379 . S
C1160 N1168 1.356 . S
C1161 C1160 1.363 . S
C1161 C1167 1.363 . S
C1162 C1163 1.363 . S
C1162 C1167 1.379 . S
C1162 N1169 1.356 . S
C1163 C1162 1.363 . S
C1163 C1166 1.363 . S
N1164 C1166 1.356 . S
N1164 H1176 0.984 . S
N1164 H1177 0.985 . S
N1165 C1167 1.356 . S
N1165 H1170 0.984 . S
N1165 H1171 0.985 . S
C1166 C1160 1.379 . S
C1166 C1163 1.363 . S
C1166 N1164 1.356 . S
C1167 C1161 1.363 . S
C1167 C1162 1.379 . S
C1167 N1165 1.356 . S
N1168 C1160 1.356 . S
N1168 H1174 0.984 . S
N1168 H1175 0.984 . S
N1169 C1162 1.356 . S
N1169 H1172 0.984 . S
N1169 H1173 0.985 . S
H1170 N1165 0.984 . S
H1171 N1165 0.985 . S
H1172 N1169 0.984 . S
H1173 N1169 0.985 . S
H1174 N1168 0.984 . S
H1175 N1168 0.984 . S
H1176 N1164 0.984 . S
H1177 N1164 0.985 . S
C1178 C1179 1.363 . S
C1178 C1184 1.379 . S
C1178 N1186 1.356 . S
C1179 C1178 1.363 . S
C1179 C1185 1.363 . S
C1180 C1181 1.363 . S
C1180 C1185 1.379 . S
C1180 N1187 1.356 . S
C1181 C1180 1.363 . S
C1181 C1184 1.363 . S
N1182 C1184 1.356 . S
N1182 H1194 0.984 . S
N1182 H1195 0.985 . S
N1183 C1185 1.356 . S
N1183 H1188 0.984 . S
N1183 H1189 0.985 . S
C1184 C1178 1.379 . S
C1184 C1181 1.363 . S
C1184 N1182 1.356 . S
C1185 C1179 1.363 . S
C1185 C1180 1.379 . S
C1185 N1183 1.356 . S
N1186 C1178 1.356 . S
N1186 H1192 0.984 . S
N1186 H1193 0.984 . S
N1187 C1180 1.356 . S
N1187 H1190 0.984 . S
N1187 H1191 0.985 . S
H1188 N1183 0.984 . S
H1189 N1183 0.985 . S
H1190 N1187 0.984 . S
H1191 N1187 0.985 . S
H1192 N1186 0.984 . S
H1193 N1186 0.984 . S
H1194 N1182 0.984 . S
H1195 N1182 0.985 . S
C1196 C1197 1.363 . S
C1196 C1202 1.379 . S
C1196 N1204 1.356 . S
C1197 C1196 1.363 . S
C1197 C1203 1.363 . S
C1198 C1199 1.363 . S
C1198 C1203 1.379 . S
C1198 N1205 1.356 . S
C1199 C1198 1.363 . S
C1199 C1202 1.363 . S
N1200 C1202 1.356 . S
N1200 H1212 0.984 . S
N1200 H1213 0.985 . S
N1201 C1203 1.356 . S
N1201 H1206 0.984 . S
N1201 H1207 0.985 . S
C1202 C1196 1.379 . S
C1202 C1199 1.363 . S
C1202 N1200 1.356 . S
C1203 C1197 1.363 . S
C1203 C1198 1.379 . S
C1203 N1201 1.356 . S
N1204 C1196 1.356 . S
N1204 H1210 0.984 . S
N1204 H1211 0.984 . S
N1205 C1198 1.356 . S
N1205 H1208 0.984 . S
N1205 H1209 0.985 . S
H1206 N1201 0.984 . S
H1207 N1201 0.985 . S
H1208 N1205 0.984 . S
H1209 N1205 0.985 . S
H1210 N1204 0.984 . S
H1211 N1204 0.984 . S
H1212 N1200 0.984 . S
H1213 N1200 0.985 . S
C1214 C1215 1.363 . S
C1214 C1220 1.379 . S
C1214 N1222 1.356 . S
C1215 C1214 1.363 . S
C1215 C1221 1.363 . S
C1216 C1217 1.363 . S
C1216 C1221 1.379 . S
C1216 N1223 1.356 . S
C1217 C1216 1.363 . S
C1217 C1220 1.363 . S
N1218 C1220 1.356 . S
N1218 H1230 0.984 . S
N1218 H1231 0.985 . S
N1219 C1221 1.356 . S
N1219 H1224 0.984 . S
N1219 H1225 0.985 . S
C1220 C1214 1.379 . S
C1220 C1217 1.363 . S
C1220 N1218 1.356 . S
C1221 C1215 1.363 . S
C1221 C1216 1.379 . S
C1221 N1219 1.356 . S
N1222 C1214 1.356 . S
N1222 H1228 0.984 . S
N1222 H1229 0.984 . S
N1223 C1216 1.356 . S
N1223 H1226 0.984 . S
N1223 H1227 0.985 . S
H1224 N1219 0.984 . S
H1225 N1219 0.985 . S
H1226 N1223 0.984 . S
H1227 N1223 0.985 . S
H1228 N1222 0.984 . S
H1229 N1222 0.984 . S
H1230 N1218 0.984 . S
H1231 N1218 0.985 . S
C1232 C1233 1.363 . S
C1232 C1238 1.379 . S
C1232 N1240 1.356 . S
C1233 C1232 1.363 . S
C1233 C1239 1.363 . S
C1234 C1235 1.363 . S
C1234 C1239 1.379 . S
C1234 N1241 1.356 . S
C1235 C1234 1.363 . S
C1235 C1238 1.363 . S
N1236 C1238 1.356 . S
N1236 H1248 0.984 . S
N1236 H1249 0.985 . S
N1237 C1239 1.356 . S
N1237 H1242 0.984 . S
N1237 H1243 0.985 . S
C1238 C1232 1.379 . S
C1238 C1235 1.363 . S
C1238 N1236 1.356 . S
C1239 C1233 1.363 . S
C1239 C1234 1.379 . S
C1239 N1237 1.356 . S
N1240 C1232 1.356 . S
N1240 H1246 0.984 . S
N1240 H1247 0.984 . S
N1241 C1234 1.356 . S
N1241 H1244 0.984 . S
N1241 H1245 0.985 . S
H1242 N1237 0.984 . S
H1243 N1237 0.985 . S
H1244 N1241 0.984 . S
H1245 N1241 0.985 . S
H1246 N1240 0.984 . S
H1247 N1240 0.984 . S
H1248 N1236 0.984 . S
H1249 N1236 0.985 . S
C1250 C1251 1.363 . S
C1250 C1256 1.379 . S
C1250 N1258 1.356 . S
C1251 C1250 1.363 . S
C1251 C1257 1.363 . S
C1252 C1253 1.363 . S
C1252 C1257 1.379 . S
C1252 N1259 1.356 . S
C1253 C1252 1.363 . S
C1253 C1256 1.363 . S
N1254 C1256 1.356 . S
N1254 H1266 0.984 . S
N1254 H1267 0.985 . S
N1255 C1257 1.356 . S
N1255 H1260 0.984 . S
N1255 H1261 0.985 . S
C1256 C1250 1.379 . S
C1256 C1253 1.363 . S
C1256 N1254 1.356 . S
C1257 C1251 1.363 . S
C1257 C1252 1.379 . S
C1257 N1255 1.356 . S
N1258 C1250 1.356 . S
N1258 H1264 0.984 . S
N1258 H1265 0.984 . S
N1259 C1252 1.356 . S
N1259 H1262 0.984 . S
N1259 H1263 0.985 . S
H1260 N1255 0.984 . S
H1261 N1255 0.985 . S
H1262 N1259 0.984 . S
H1263 N1259 0.985 . S
H1264 N1258 0.984 . S
H1265 N1258 0.984 . S
H1266 N1254 0.984 . S
H1267 N1254 0.985 . S
C1268 C1269 1.363 . S
C1268 C1274 1.379 . S
C1268 N1276 1.356 . S
C1269 C1268 1.363 . S
C1269 C1275 1.363 . S
C1270 C1271 1.363 . S
C1270 C1275 1.379 . S
C1270 N1277 1.356 . S
C1271 C1270 1.363 . S
C1271 C1274 1.363 . S
N1272 C1274 1.356 . S
N1272 H1284 0.984 . S
N1272 H1285 0.985 . S
N1273 C1275 1.356 . S
N1273 H1278 0.984 . S
N1273 H1279 0.985 . S
C1274 C1268 1.379 . S
C1274 C1271 1.363 . S
C1274 N1272 1.356 . S
C1275 C1269 1.363 . S
C1275 C1270 1.379 . S
C1275 N1273 1.356 . S
N1276 C1268 1.356 . S
N1276 H1282 0.984 . S
N1276 H1283 0.984 . S
N1277 C1270 1.356 . S
N1277 H1280 0.984 . S
N1277 H1281 0.985 . S
H1278 N1273 0.984 . S
H1279 N1273 0.985 . S
H1280 N1277 0.984 . S
H1281 N1277 0.985 . S
H1282 N1276 0.984 . S
H1283 N1276 0.984 . S
H1284 N1272 0.984 . S
H1285 N1272 0.985 . S
C1286 C1287 1.363 . S
C1286 C1292 1.379 . S
C1286 N1294 1.356 . S
C1287 C1286 1.363 . S
C1287 C1293 1.363 . S
C1288 C1289 1.363 . S
C1288 C1293 1.379 . S
C1288 N1295 1.356 . S
C1289 C1288 1.363 . S
C1289 C1292 1.363 . S
N1290 C1292 1.356 . S
N1290 H1302 0.984 . S
N1290 H1303 0.985 . S
N1291 C1293 1.356 . S
N1291 H1296 0.984 . S
N1291 H1297 0.985 . S
C1292 C1286 1.379 . S
C1292 C1289 1.363 . S
C1292 N1290 1.356 . S
C1293 C1287 1.363 . S
C1293 C1288 1.379 . S
C1293 N1291 1.356 . S
N1294 C1286 1.356 . S
N1294 H1300 0.984 . S
N1294 H1301 0.984 . S
N1295 C1288 1.356 . S
N1295 H1298 0.984 . S
N1295 H1299 0.985 . S
H1296 N1291 0.984 . S
H1297 N1291 0.985 . S
H1298 N1295 0.984 . S
H1299 N1295 0.985 . S
H1300 N1294 0.984 . S
H1301 N1294 0.984 . S
H1302 N1290 0.984 . S
H1303 N1290 0.985 . S
C1304 C1305 1.363 . S
C1304 C1310 1.379 . S
C1304 N1312 1.356 . S
C1305 C1304 1.363 . S
C1305 C1311 1.363 . S
C1306 C1307 1.363 . S
C1306 C1311 1.379 . S
C1306 N1313 1.356 . S
C1307 C1306 1.363 . S
C1307 C1310 1.363 . S
N1308 C1310 1.356 . S
N1308 H1320 0.984 . S
N1308 H1321 0.985 . S
N1309 C1311 1.356 . S
N1309 H1314 0.984 . S
N1309 H1315 0.985 . S
C1310 C1304 1.379 . S
C1310 C1307 1.363 . S
C1310 N1308 1.356 . S
C1311 C1305 1.363 . S
C1311 C1306 1.379 . S
C1311 N1309 1.356 . S
N1312 C1304 1.356 . S
N1312 H1318 0.984 . S
N1312 H1319 0.984 . S
N1313 C1306 1.356 . S
N1313 H1316 0.984 . S
N1313 H1317 0.985 . S
H1314 N1309 0.984 . S
H1315 N1309 0.985 . S
H1316 N1313 0.984 . S
H1317 N1313 0.985 . S
H1318 N1312 0.984 . S
H1319 N1312 0.984 . S
H1320 N1308 0.984 . S
H1321 N1308 0.985 . S
C1322 C1323 1.363 . S
C1322 C1328 1.379 . S
C1322 N1330 1.356 . S
C1323 C1322 1.363 . S
C1323 C1329 1.363 . S
C1324 C1325 1.363 . S
C1324 C1329 1.379 . S
C1324 N1331 1.356 . S
C1325 C1324 1.363 . S
C1325 C1328 1.363 . S
N1326 C1328 1.356 . S
N1326 H1338 0.984 . S
N1326 H1339 0.985 . S
N1327 C1329 1.356 . S
N1327 H1332 0.984 . S
N1327 H1333 0.985 . S
C1328 C1322 1.379 . S
C1328 C1325 1.363 . S
C1328 N1326 1.356 . S
C1329 C1323 1.363 . S
C1329 C1324 1.379 . S
C1329 N1327 1.356 . S
N1330 C1322 1.356 . S
N1330 H1336 0.984 . S
N1330 H1337 0.984 . S
N1331 C1324 1.356 . S
N1331 H1334 0.984 . S
N1331 H1335 0.985 . S
H1332 N1327 0.984 . S
H1333 N1327 0.985 . S
H1334 N1331 0.984 . S
H1335 N1331 0.985 . S
H1336 N1330 0.984 . S
H1337 N1330 0.984 . S
H1338 N1326 0.984 . S
H1339 N1326 0.985 . S
C1340 C1341 1.363 . S
C1340 C1346 1.379 . S
C1340 N1348 1.356 . S
C1341 C1340 1.363 . S
C1341 C1347 1.363 . S
C1342 C1343 1.363 . S
C1342 C1347 1.379 . S
C1342 N1349 1.356 . S
C1343 C1342 1.363 . S
C1343 C1346 1.363 . S
N1344 C1346 1.356 . S
N1344 H1356 0.984 . S
N1344 H1357 0.985 . S
N1345 C1347 1.356 . S
N1345 H1350 0.984 . S
N1345 H1351 0.985 . S
C1346 C1340 1.379 . S
C1346 C1343 1.363 . S
C1346 N1344 1.356 . S
C1347 C1341 1.363 . S
C1347 C1342 1.379 . S
C1347 N1345 1.356 . S
N1348 C1340 1.356 . S
N1348 H1354 0.984 . S
N1348 H1355 0.984 . S
N1349 C1342 1.356 . S
N1349 H1352 0.984 . S
N1349 H1353 0.985 . S
H1350 N1345 0.984 . S
H1351 N1345 0.985 . S
H1352 N1349 0.984 . S
H1353 N1349 0.985 . S
H1354 N1348 0.984 . S
H1355 N1348 0.984 . S
H1356 N1344 0.984 . S
H1357 N1344 0.985 . S
C1358 C1359 1.363 . S
C1358 C1364 1.379 . S
C1358 N1366 1.356 . S
C1359 C1358 1.363 . S
C1359 C1365 1.363 . S
C1360 C1361 1.363 . S
C1360 C1365 1.379 . S
C1360 N1367 1.356 . S
C1361 C1360 1.363 . S
C1361 C1364 1.363 . S
N1362 C1364 1.356 . S
N1362 H1374 0.984 . S
N1362 H1375 0.985 . S
N1363 C1365 1.356 . S
N1363 H1368 0.984 . S
N1363 H1369 0.985 . S
C1364 C1358 1.379 . S
C1364 C1361 1.363 . S
C1364 N1362 1.356 . S
C1365 C1359 1.363 . S
C1365 C1360 1.379 . S
C1365 N1363 1.356 . S
N1366 C1358 1.356 . S
N1366 H1372 0.984 . S
N1366 H1373 0.984 . S
N1367 C1360 1.356 . S
N1367 H1370 0.984 . S
N1367 H1371 0.985 . S
H1368 N1363 0.984 . S
H1369 N1363 0.985 . S
H1370 N1367 0.984 . S
H1371 N1367 0.985 . S
H1372 N1366 0.984 . S
H1373 N1366 0.984 . S
H1374 N1362 0.984 . S
H1375 N1362 0.985 . S
C1376 C1377 1.363 . S
C1376 C1382 1.379 1_655 S
C1376 N1384 1.356 . S
C1377 C1376 1.363 . S
C1377 C1383 1.363 . S
C1378 C1379 1.363 . S
C1378 C1383 1.379 1_455 S
C1378 N1385 1.356 . S
C1379 C1378 1.363 . S
C1379 C1382 1.363 . S
N1380 C1382 1.356 . S
N1380 H1392 0.984 . S
N1380 H1393 0.985 . S
N1381 C1383 1.356 . S
N1381 H1386 0.984 . S
N1381 H1387 0.985 . S
C1382 C1376 1.379 1_455 S
C1382 C1379 1.363 . S
C1382 N1380 1.356 . S
C1383 C1377 1.363 . S
C1383 C1378 1.379 1_655 S
C1383 N1381 1.356 . S
N1384 C1376 1.356 . S
N1384 H1390 0.984 . S
N1384 H1391 0.984 . S
N1385 C1378 1.356 . S
N1385 H1388 0.984 . S
N1385 H1389 0.985 . S
H1386 N1381 0.984 . S
H1387 N1381 0.985 . S
H1388 N1385 0.984 . S
H1389 N1385 0.985 . S
H1390 N1384 0.984 . S
H1391 N1384 0.984 . S
H1392 N1380 0.984 . S
H1393 N1380 0.985 . S
C1394 C1395 1.363 . S
C1394 C1400 1.379 . S
C1394 N1402 1.356 . S
C1395 C1394 1.363 . S
C1395 C1401 1.363 1_655 S
C1396 C1397 1.363 . S
C1396 C1401 1.379 . S
C1396 N1403 1.356 . S
C1397 C1396 1.363 . S
C1397 C1400 1.363 1_455 S
N1398 C1400 1.356 . S
N1398 H1410 0.984 . S
N1398 H1411 0.985 1_655 S
N1399 C1401 1.356 . S
N1399 H1404 0.984 1_455 S
N1399 H1405 0.985 . S
C1400 C1394 1.379 . S
C1400 C1397 1.363 1_655 S
C1400 N1398 1.356 . S
C1401 C1395 1.363 1_455 S
C1401 C1396 1.379 . S
C1401 N1399 1.356 . S
N1402 C1394 1.356 . S
N1402 H1408 0.984 . S
N1402 H1409 0.984 . S
N1403 C1396 1.356 . S
N1403 H1406 0.984 . S
N1403 H1407 0.985 . S
H1404 N1399 0.984 1_655 S
H1405 N1399 0.985 . S
H1406 N1403 0.984 . S
H1407 N1403 0.985 . S
H1408 N1402 0.984 . S
H1409 N1402 0.984 . S
H1410 N1398 0.984 . S
H1411 N1398 0.985 1_455 S
C1412 C1413 1.363 . S
C1412 C1418 1.379 . S
C1412 N1420 1.356 . S
C1413 C1412 1.363 . S
C1413 C1419 1.363 . S
C1414 C1415 1.363 . S
C1414 C1419 1.379 . S
C1414 N1421 1.356 . S
C1415 C1414 1.363 . S
C1415 C1418 1.363 . S
N1416 C1418 1.356 . S
N1416 H1428 0.984 . S
N1416 H1429 0.985 . S
N1417 C1419 1.356 . S
N1417 H1422 0.984 . S
N1417 H1423 0.985 . S
C1418 C1412 1.379 . S
C1418 C1415 1.363 . S
C1418 N1416 1.356 . S
C1419 C1413 1.363 . S
C1419 C1414 1.379 . S
C1419 N1417 1.356 . S
N1420 C1412 1.356 . S
N1420 H1426 0.984 . S
N1420 H1427 0.984 . S
N1421 C1414 1.356 . S
N1421 H1424 0.984 . S
N1421 H1425 0.985 . S
H1422 N1417 0.984 . S
H1423 N1417 0.985 . S
H1424 N1421 0.984 . S
H1425 N1421 0.985 . S
H1426 N1420 0.984 . S
H1427 N1420 0.984 . S
H1428 N1416 0.984 . S
H1429 N1416 0.985 . S
C1430 C1431 1.363 . S
C1430 C1436 1.379 . S
C1430 N1438 1.356 . S
C1431 C1430 1.363 . S
C1431 C1437 1.363 . S
C1432 C1433 1.363 . S
C1432 C1437 1.379 . S
C1432 N1439 1.356 1_554 S
C1433 C1432 1.363 . S
C1433 C1436 1.363 . S
N1434 C1436 1.356 . S
N1434 H1446 0.984 . S
N1434 H1447 0.985 . S
N1435 C1437 1.356 1_556 S
N1435 H1440 0.984 . S
N1435 H1441 0.985 . S
C1436 C1430 1.379 . S
C1436 C1433 1.363 . S
C1436 N1434 1.356 . S
C1437 C1431 1.363 . S
C1437 C1432 1.379 . S
C1437 N1435 1.356 1_554 S
N1438 C1430 1.356 . S
N1438 H1444 0.984 . S
N1438 H1445 0.984 . S
N1439 C1432 1.356 1_556 S
N1439 H1442 0.984 . S
N1439 H1443 0.985 . S
H1440 N1435 0.984 . S
H1441 N1435 0.985 . S
H1442 N1439 0.984 . S
H1443 N1439 0.985 . S
H1444 N1438 0.984 . S
H1445 N1438 0.984 . S
H1446 N1434 0.984 . S
H1447 N1434 0.985 . S
C1448 C1449 1.363 . S
C1448 C1454 1.379 1_655 S
C1448 N1456 1.356 . S
C1449 C1448 1.363 . S
C1449 C1455 1.363 . S
C1450 C1451 1.363 . S
C1450 C1455 1.379 1_455 S
C1450 N1457 1.356 . S
C1451 C1450 1.363 . S
C1451 C1454 1.363 . S
N1452 C1454 1.356 . S
N1452 H1464 0.984 . S
N1452 H1465 0.985 . S
N1453 C1455 1.356 . S
N1453 H1458 0.984 . S
N1453 H1459 0.985 . S
C1454 C1448 1.379 1_455 S
C1454 C1451 1.363 . S
C1454 N1452 1.356 . S
C1455 C1449 1.363 . S
C1455 C1450 1.379 1_655 S
C1455 N1453 1.356 . S
N1456 C1448 1.356 . S
N1456 H1462 0.984 . S
N1456 H1463 0.984 . S
N1457 C1450 1.356 . S
N1457 H1460 0.984 . S
N1457 H1461 0.985 . S
H1458 N1453 0.984 . S
H1459 N1453 0.985 . S
H1460 N1457 0.984 . S
H1461 N1457 0.985 . S
H1462 N1456 0.984 . S
H1463 N1456 0.984 . S
H1464 N1452 0.984 . S
H1465 N1452 0.985 . S
C1466 C1467 1.363 . S
C1466 C1472 1.379 . S
C1466 N1474 1.356 . S
C1467 C1466 1.363 . S
C1467 C1473 1.363 . S
C1468 C1469 1.363 . S
C1468 C1473 1.379 . S
C1468 N1475 1.356 . S
C1469 C1468 1.363 . S
C1469 C1472 1.363 . S
N1470 C1472 1.356 . S
N1470 H1482 0.984 . S
N1470 H1483 0.985 . S
N1471 C1473 1.356 . S
N1471 H1476 0.984 . S
N1471 H1477 0.985 . S
C1472 C1466 1.379 . S
C1472 C1469 1.363 . S
C1472 N1470 1.356 . S
C1473 C1467 1.363 . S
C1473 C1468 1.379 . S
C1473 N1471 1.356 . S
N1474 C1466 1.356 . S
N1474 H1480 0.984 . S
N1474 H1481 0.984 . S
N1475 C1468 1.356 . S
N1475 H1478 0.984 . S
N1475 H1479 0.985 . S
H1476 N1471 0.984 . S
H1477 N1471 0.985 . S
H1478 N1475 0.984 . S
H1479 N1475 0.985 . S
H1480 N1474 0.984 . S
H1481 N1474 0.984 . S
H1482 N1470 0.984 . S
H1483 N1470 0.985 . S
C1484 C1485 1.363 . S
C1484 C1490 1.379 . S
C1484 N1492 1.356 . S
C1485 C1484 1.363 . S
C1485 C1491 1.363 . S
C1486 C1487 1.363 . S
C1486 C1491 1.379 . S
C1486 N1493 1.356 . S
C1487 C1486 1.363 . S
C1487 C1490 1.363 . S
N1488 C1490 1.356 . S
N1488 H1500 0.984 . S
N1488 H1501 0.985 . S
N1489 C1491 1.356 . S
N1489 H1494 0.984 . S
N1489 H1495 0.985 . S
C1490 C1484 1.379 . S
C1490 C1487 1.363 . S
C1490 N1488 1.356 . S
C1491 C1485 1.363 . S
C1491 C1486 1.379 . S
C1491 N1489 1.356 . S
N1492 C1484 1.356 . S
N1492 H1498 0.984 . S
N1492 H1499 0.984 . S
N1493 C1486 1.356 . S
N1493 H1496 0.984 . S
N1493 H1497 0.985 . S
H1494 N1489 0.984 . S
H1495 N1489 0.985 . S
H1496 N1493 0.984 . S
H1497 N1493 0.985 . S
H1498 N1492 0.984 . S
H1499 N1492 0.984 . S
H1500 N1488 0.984 . S
H1501 N1488 0.985 . S
C1502 C1503 1.363 1_655 S
C1502 C1508 1.379 . S
C1502 N1510 1.356 1_556 S
C1503 C1502 1.363 1_455 S
C1503 C1509 1.363 . S
C1504 C1505 1.363 1_455 S
C1504 C1509 1.379 . S
C1504 N1511 1.356 . S
C1505 C1504 1.363 1_655 S
C1505 C1508 1.363 . S
N1506 C1508 1.356 1_554 S
N1506 H1518 0.984 . S
N1506 H1519 0.985 . S
N1507 C1509 1.356 . S
N1507 H1512 0.984 . S
N1507 H1513 0.985 . S
C1508 C1502 1.379 . S
C1508 C1505 1.363 . S
C1508 N1506 1.356 1_556 S
C1509 C1503 1.363 . S
C1509 C1504 1.379 . S
C1509 N1507 1.356 . S
N1510 C1502 1.356 1_554 S
N1510 H1516 0.984 . S
N1510 H1517 0.984 1_655 S
N1511 C1504 1.356 . S
N1511 H1514 0.984 1_455 S
N1511 H1515 0.985 . S
H1512 N1507 0.984 . S
H1513 N1507 0.985 . S
H1514 N1511 0.984 1_655 S
H1515 N1511 0.985 . S
H1516 N1510 0.984 . S
H1517 N1510 0.984 1_455 S
H1518 N1506 0.984 . S
H1519 N1506 0.985 . S
C1520 C1521 1.363 . S
C1520 C1526 1.379 1_655 S
C1520 N1528 1.356 . S
C1521 C1520 1.363 . S
C1521 C1527 1.363 . S
C1522 C1523 1.363 . S
C1522 C1527 1.379 1_455 S
C1522 N1529 1.356 . S
C1523 C1522 1.363 . S
C1523 C1526 1.363 . S
N1524 C1526 1.356 . S
N1524 H1536 0.984 . S
N1524 H1537 0.985 . S
N1525 C1527 1.356 . S
N1525 H1530 0.984 . S
N1525 H1531 0.985 . S
C1526 C1520 1.379 1_455 S
C1526 C1523 1.363 . S
C1526 N1524 1.356 . S
C1527 C1521 1.363 . S
C1527 C1522 1.379 1_655 S
C1527 N1525 1.356 . S
N1528 C1520 1.356 . S
N1528 H1534 0.984 . S
N1528 H1535 0.984 . S
N1529 C1522 1.356 . S
N1529 H1532 0.984 . S
N1529 H1533 0.985 . S
H1530 N1525 0.984 . S
H1531 N1525 0.985 . S
H1532 N1529 0.984 . S
H1533 N1529 0.985 . S
H1534 N1528 0.984 . S
H1535 N1528 0.984 . S
H1536 N1524 0.984 . S
H1537 N1524 0.985 . S
C1538 C1539 1.363 . S
C1538 C1544 1.379 . S
C1538 N1546 1.356 . S
C1539 C1538 1.363 . S
C1539 C1545 1.363 1_455 S
C1540 C1541 1.363 . S
C1540 C1545 1.379 . S
C1540 N1547 1.356 . S
C1541 C1540 1.363 . S
C1541 C1544 1.363 1_655 S
N1542 C1544 1.356 . S
N1542 H1554 0.984 . S
N1542 H1555 0.985 1_455 S
N1543 C1545 1.356 . S
N1543 H1548 0.984 1_655 S
N1543 H1549 0.985 . S
C1544 C1538 1.379 . S
C1544 C1541 1.363 1_455 S
C1544 N1542 1.356 . S
C1545 C1539 1.363 1_655 S
C1545 C1540 1.379 . S
C1545 N1543 1.356 . S
N1546 C1538 1.356 . S
N1546 H1552 0.984 . S
N1546 H1553 0.984 . S
N1547 C1540 1.356 . S
N1547 H1550 0.984 . S
N1547 H1551 0.985 . S
H1548 N1543 0.984 1_455 S
H1549 N1543 0.985 . S
H1550 N1547 0.984 . S
H1551 N1547 0.985 . S
H1552 N1546 0.984 . S
H1553 N1546 0.984 . S
H1554 N1542 0.984 . S
H1555 N1542 0.985 1_655 S
C1556 C1557 1.363 . S
C1556 C1562 1.379 . S
C1556 N1564 1.356 . S
C1557 C1556 1.363 . S
C1557 C1563 1.363 . S
C1558 C1559 1.363 . S
C1558 C1563 1.379 . S
C1558 N1565 1.356 . S
C1559 C1558 1.363 . S
C1559 C1562 1.363 . S
N1560 C1562 1.356 . S
N1560 H1572 0.984 . S
N1560 H1573 0.985 . S
N1561 C1563 1.356 . S
N1561 H1566 0.984 . S
N1561 H1567 0.985 . S
C1562 C1556 1.379 . S
C1562 C1559 1.363 . S
C1562 N1560 1.356 . S
C1563 C1557 1.363 . S
C1563 C1558 1.379 . S
C1563 N1561 1.356 . S
N1564 C1556 1.356 . S
N1564 H1570 0.984 . S
N1564 H1571 0.984 . S
N1565 C1558 1.356 . S
N1565 H1568 0.984 . S
N1565 H1569 0.985 . S
H1566 N1561 0.984 . S
H1567 N1561 0.985 . S
H1568 N1565 0.984 . S
H1569 N1565 0.985 . S
H1570 N1564 0.984 . S
H1571 N1564 0.984 . S
H1572 N1560 0.984 . S
H1573 N1560 0.985 . S
C1574 C1575 1.363 . S
C1574 C1580 1.379 . S
C1574 N1582 1.356 1_556 S
C1575 C1574 1.363 . S
C1575 C1581 1.363 . S
C1576 C1577 1.363 . S
C1576 C1581 1.379 . S
C1576 N1583 1.356 . S
C1577 C1576 1.363 . S
C1577 C1580 1.363 . S
N1578 C1580 1.356 1_554 S
N1578 H1590 0.984 . S
N1578 H1591 0.985 . S
N1579 C1581 1.356 . S
N1579 H1584 0.984 . S
N1579 H1585 0.985 . S
C1580 C1574 1.379 . S
C1580 C1577 1.363 . S
C1580 N1578 1.356 1_556 S
C1581 C1575 1.363 . S
C1581 C1576 1.379 . S
C1581 N1579 1.356 . S
N1582 C1574 1.356 1_554 S
N1582 H1588 0.984 . S
N1582 H1589 0.984 . S
N1583 C1576 1.356 . S
N1583 H1586 0.984 . S
N1583 H1587 0.985 . S
H1584 N1579 0.984 . S
H1585 N1579 0.985 . S
H1586 N1583 0.984 . S
H1587 N1583 0.985 . S
H1588 N1582 0.984 . S
H1589 N1582 0.984 . S
H1590 N1578 0.984 . S
H1591 N1578 0.985 . S
C1592 C1593 1.363 . S
C1592 C1598 1.379 1_655 S
C1592 N1600 1.356 . S
C1593 C1592 1.363 . S
C1593 C1599 1.363 . S
C1594 C1595 1.363 . S
C1594 C1599 1.379 1_455 S
C1594 N1601 1.356 . S
C1595 C1594 1.363 . S
C1595 C1598 1.363 . S
N1596 C1598 1.356 . S
N1596 H1608 0.984 . S
N1596 H1609 0.985 . S
N1597 C1599 1.356 . S
N1597 H1602 0.984 . S
N1597 H1603 0.985 . S
C1598 C1592 1.379 1_455 S
C1598 C1595 1.363 . S
C1598 N1596 1.356 . S
C1599 C1593 1.363 . S
C1599 C1594 1.379 1_655 S
C1599 N1597 1.356 . S
N1600 C1592 1.356 . S
N1600 H1606 0.984 . S
N1600 H1607 0.984 . S
N1601 C1594 1.356 . S
N1601 H1604 0.984 . S
N1601 H1605 0.985 . S
H1602 N1597 0.984 . S
H1603 N1597 0.985 . S
H1604 N1601 0.984 . S
H1605 N1601 0.985 . S
H1606 N1600 0.984 . S
H1607 N1600 0.984 . S
H1608 N1596 0.984 . S
H1609 N1596 0.985 . S
C1610 C1611 1.363 . S
C1610 C1616 1.379 . S
C1610 N1618 1.356 . S
C1611 C1610 1.363 . S
C1611 C1617 1.363 . S
C1612 C1613 1.363 . S
C1612 C1617 1.379 . S
C1612 N1619 1.356 . S
C1613 C1612 1.363 . S
C1613 C1616 1.363 . S
N1614 C1616 1.356 . S
N1614 H1626 0.984 . S
N1614 H1627 0.985 . S
N1615 C1617 1.356 . S
N1615 H1620 0.984 . S
N1615 H1621 0.985 . S
C1616 C1610 1.379 . S
C1616 C1613 1.363 . S
C1616 N1614 1.356 . S
C1617 C1611 1.363 . S
C1617 C1612 1.379 . S
C1617 N1615 1.356 . S
N1618 C1610 1.356 . S
N1618 H1624 0.984 . S
N1618 H1625 0.984 . S
N1619 C1612 1.356 . S
N1619 H1622 0.984 . S
N1619 H1623 0.985 . S
H1620 N1615 0.984 . S
H1621 N1615 0.985 . S
H1622 N1619 0.984 . S
H1623 N1619 0.985 . S
H1624 N1618 0.984 . S
H1625 N1618 0.984 . S
H1626 N1614 0.984 . S
H1627 N1614 0.985 . S
C1628 C1629 1.363 . S
C1628 C1634 1.379 . S
C1628 N1636 1.356 . S
C1629 C1628 1.363 . S
C1629 C1635 1.363 . S
C1630 C1631 1.363 . S
C1630 C1635 1.379 . S
C1630 N1637 1.356 . S
C1631 C1630 1.363 . S
C1631 C1634 1.363 . S
N1632 C1634 1.356 . S
N1632 H1644 0.984 . S
N1632 H1645 0.985 . S
N1633 C1635 1.356 . S
N1633 H1638 0.984 . S
N1633 H1639 0.985 . S
C1634 C1628 1.379 . S
C1634 C1631 1.363 . S
C1634 N1632 1.356 . S
C1635 C1629 1.363 . S
C1635 C1630 1.379 . S
C1635 N1633 1.356 . S
N1636 C1628 1.356 . S
N1636 H1642 0.984 . S
N1636 H1643 0.984 . S
N1637 C1630 1.356 . S
N1637 H1640 0.984 . S
N1637 H1641 0.985 . S
H1638 N1633 0.984 . S
H1639 N1633 0.985 . S
H1640 N1637 0.984 . S
H1641 N1637 0.985 . S
H1642 N1636 0.984 . S
H1643 N1636 0.984 . S
H1644 N1632 0.984 . S
H1645 N1632 0.985 . S
C1646 C1647 1.363 . S
C1646 C1652 1.379 . S
C1646 N1654 1.356 1_554 S
C1647 C1646 1.363 . S
C1647 C1653 1.363 1_455 S
C1648 C1649 1.363 . S
C1648 C1653 1.379 . S
C1648 N1655 1.356 . S
C1649 C1648 1.363 . S
C1649 C1652 1.363 1_655 S
N1650 C1652 1.356 1_556 S
N1650 H1662 0.984 . S
N1650 H1663 0.985 1_455 S
N1651 C1653 1.356 . S
N1651 H1656 0.984 1_655 S
N1651 H1657 0.985 . S
C1652 C1646 1.379 . S
C1652 C1649 1.363 1_455 S
C1652 N1650 1.356 1_554 S
C1653 C1647 1.363 1_655 S
C1653 C1648 1.379 . S
C1653 N1651 1.356 . S
N1654 C1646 1.356 1_556 S
N1654 H1660 0.984 . S
N1654 H1661 0.984 . S
N1655 C1648 1.356 . S
N1655 H1658 0.984 . S
N1655 H1659 0.985 . S
H1656 N1651 0.984 1_455 S
H1657 N1651 0.985 . S
H1658 N1655 0.984 . S
H1659 N1655 0.985 . S
H1660 N1654 0.984 . S
H1661 N1654 0.984 . S
H1662 N1650 0.984 . S
H1663 N1650 0.985 1_655 S
C1664 C1665 1.363 . S
C1664 C1670 1.379 . S
C1664 N1672 1.356 . S
C1665 C1664 1.363 . S
C1665 C1671 1.363 . S
C1666 C1667 1.363 . S
C1666 C1671 1.379 . S
C1666 N1673 1.356 . S
C1667 C1666 1.363 . S
C1667 C1670 1.363 . S
N1668 C1670 1.356 . S
N1668 H1680 0.984 . S
N1668 H1681 0.985 . S
N1669 C1671 1.356 . S
N1669 H1674 0.984 . S
N1669 H1675 0.985 . S
C1670 C1664 1.379 . S
C1670 C1667 1.363 . S
C1670 N1668 1.356 . S
C1671 C1665 1.363 . S
C1671 C1666 1.379 . S
C1671 N1669 1.356 . S
N1672 C1664 1.356 . S
N1672 H1678 0.984 . S
N1672 H1679 0.984 . S
N1673 C1666 1.356 . S
N1673 H1676 0.984 . S
N1673 H1677 0.985 . S
H1674 N1669 0.984 . S
H1675 N1669 0.985 . S
H1676 N1673 0.984 . S
H1677 N1673 0.985 . S
H1678 N1672 0.984 . S
H1679 N1672 0.984 . S
H1680 N1668 0.984 . S
H1681 N1668 0.985 . S
C1682 C1683 1.363 . S
C1682 C1688 1.379 . S
C1682 N1690 1.356 . S
C1683 C1682 1.363 . S
C1683 C1689 1.363 . S
C1684 C1685 1.363 . S
C1684 C1689 1.379 . S
C1684 N1691 1.356 . S
C1685 C1684 1.363 . S
C1685 C1688 1.363 . S
N1686 C1688 1.356 . S
N1686 H1698 0.984 . S
N1686 H1699 0.966 1_655 S
N1687 C1689 1.356 . S
N1687 H1692 0.984 . S
N1687 H1693 0.985 . S
C1688 C1682 1.379 . S
C1688 C1685 1.363 . S
C1688 N1686 1.356 . S
C1689 C1683 1.363 . S
C1689 C1684 1.379 . S
C1689 N1687 1.356 . S
N1690 C1682 1.356 . S
N1690 H1696 0.984 . S
N1690 H1697 0.984 . S
N1691 C1684 1.356 . S
N1691 H1694 0.984 . S
N1691 H1695 0.985 . S
H1692 N1687 0.984 . S
H1693 N1687 0.985 . S
H1694 N1691 0.984 . S
H1695 N1691 0.985 . S
H1696 N1690 0.984 . S
H1697 N1690 0.984 . S
H1698 N1686 0.984 . S
H1699 N1686 0.966 1_455 S
C1700 C1701 1.363 . S
C1700 C1706 1.379 . S
C1700 N1708 1.356 . S
C1701 C1700 1.363 . S
C1701 C1707 1.363 . S
C1702 C1703 1.363 . S
C1702 C1707 1.379 . S
C1702 N1709 1.356 . S
C1703 C1702 1.363 . S
C1703 C1706 1.363 . S
N1704 C1706 1.356 . S
N1704 H1716 0.984 . S
N1704 H1717 0.985 . S
N1705 C1707 1.356 . S
N1705 H1710 0.984 . S
N1705 H1711 0.985 . S
C1706 C1700 1.379 . S
C1706 C1703 1.363 . S
C1706 N1704 1.356 . S
C1707 C1701 1.363 . S
C1707 C1702 1.379 . S
C1707 N1705 1.356 . S
N1708 C1700 1.356 . S
N1708 H1714 0.984 . S
N1708 H1715 0.984 . S
N1709 C1702 1.356 . S
N1709 H1712 0.984 . S
N1709 H1713 0.985 . S
H1710 N1705 0.984 . S
H1711 N1705 0.985 . S
H1712 N1709 0.984 . S
H1713 N1709 0.985 . S
H1714 N1708 0.984 . S
H1715 N1708 0.984 . S
H1716 N1704 0.984 . S
H1717 N1704 0.985 . S
C1718 C1719 1.363 . S
C1718 C1724 1.379 . S
C1718 N1726 1.356 . S
C1719 C1718 1.363 . S
C1719 C1725 1.363 . S
C1720 C1721 1.363 . S
C1720 C1725 1.379 . S
C1720 N1727 1.356 . S
C1721 C1720 1.363 . S
C1721 C1724 1.363 . S
N1722 C1724 1.356 . S
N1722 H1734 0.984 . S
N1722 H1735 0.985 . S
N1723 C1725 1.356 . S
N1723 H1728 0.984 . S
N1723 H1729 0.985 . S
C1724 C1718 1.379 . S
C1724 C1721 1.363 . S
C1724 N1722 1.356 . S
C1725 C1719 1.363 . S
C1725 C1720 1.379 . S
C1725 N1723 1.356 . S
N1726 C1718 1.356 . S
N1726 H1732 0.984 . S
N1726 H1733 0.984 . S
N1727 C1720 1.356 . S
N1727 H1730 0.984 . S
N1727 H1731 0.985 . S
H1728 N1723 0.984 . S
H1729 N1723 0.985 . S
H1730 N1727 0.984 . S
H1731 N1727 0.985 . S
H1732 N1726 0.984 . S
H1733 N1726 0.984 . S
H1734 N1722 0.984 . S
H1735 N1722 0.985 . S
C1736 C1737 1.363 . S
C1736 C1742 1.379 . S
C1736 N1744 1.356 . S
C1737 C1736 1.363 . S
C1737 C1743 1.363 . S
C1738 C1739 1.363 . S
C1738 C1743 1.379 . S
C1738 N1745 1.356 . S
C1739 C1738 1.363 . S
C1739 C1742 1.363 . S
N1740 C1742 1.356 . S
N1740 H1752 0.984 . S
N1740 H1753 0.985 . S
N1741 C1743 1.356 . S
N1741 H1746 0.984 . S
N1741 H1747 0.985 . S
C1742 C1736 1.379 . S
C1742 C1739 1.363 . S
C1742 N1740 1.356 . S
C1743 C1737 1.363 . S
C1743 C1738 1.379 . S
C1743 N1741 1.356 . S
N1744 C1736 1.356 . S
N1744 H1750 0.984 . S
N1744 H1751 0.984 . S
N1745 C1738 1.356 . S
N1745 H1748 0.984 . S
N1745 H1749 0.985 . S
H1746 N1741 0.984 . S
H1747 N1741 0.985 . S
H1748 N1745 0.984 . S
H1749 N1745 0.985 . S
H1750 N1744 0.984 . S
H1751 N1744 0.984 . S
H1752 N1740 0.984 . S
H1753 N1740 0.985 . S
C1754 C1755 1.363 . S
C1754 C1760 1.379 . S
C1754 N1762 1.356 . S
C1755 C1754 1.363 . S
C1755 C1761 1.363 . S
C1756 C1757 1.363 . S
C1756 C1761 1.379 . S
C1756 N1763 1.356 . S
C1757 C1756 1.363 . S
C1757 C1760 1.363 . S
N1758 C1760 1.356 . S
N1758 H1770 0.984 . S
N1758 H1771 0.985 . S
N1759 C1761 1.356 . S
N1759 H1764 0.984 . S
N1759 H1765 0.985 . S
C1760 C1754 1.379 . S
C1760 C1757 1.363 . S
C1760 N1758 1.356 . S
C1761 C1755 1.363 . S
C1761 C1756 1.379 . S
C1761 N1759 1.356 . S
N1762 C1754 1.356 . S
N1762 H1768 0.984 . S
N1762 H1769 0.984 . S
N1763 C1756 1.356 . S
N1763 H1766 0.984 . S
N1763 H1767 0.985 . S
H1764 N1759 0.984 . S
H1765 N1759 0.985 . S
H1766 N1763 0.984 . S
H1767 N1763 0.985 . S
H1768 N1762 0.984 . S
H1769 N1762 0.984 . S
H1770 N1758 0.984 . S
H1771 N1758 0.985 . S
C1772 C1773 1.363 . S
C1772 C1778 1.379 . S
C1772 N1780 1.356 . S
C1773 C1772 1.363 . S
C1773 C1779 1.363 . S
C1774 C1775 1.363 . S
C1774 C1779 1.379 . S
C1774 N1781 1.356 . S
C1775 C1774 1.363 . S
C1775 C1778 1.363 . S
N1776 C1778 1.356 . S
N1776 H1788 0.984 . S
N1776 H1789 0.985 . S
N1777 C1779 1.356 . S
N1777 H1782 0.984 . S
N1777 H1783 0.985 . S
C1778 C1772 1.379 . S
C1778 C1775 1.363 . S
C1778 N1776 1.356 . S
C1779 C1773 1.363 . S
C1779 C1774 1.379 . S
C1779 N1777 1.356 . S
N1780 C1772 1.356 . S
N1780 H1786 0.984 . S
N1780 H1787 0.984 . S
N1781 C1774 1.356 . S
N1781 H1784 0.984 . S
N1781 H1785 0.985 . S
H1782 N1777 0.984 . S
H1783 N1777 0.985 . S
H1784 N1781 0.984 . S
H1785 N1781 0.985 . S
H1786 N1780 0.984 . S
H1787 N1780 0.984 . S
H1788 N1776 0.984 . S
H1789 N1776 0.985 . S
C1790 C1791 1.363 . S
C1790 C1796 1.379 . S
C1790 N1798 1.356 . S
C1791 C1790 1.363 . S
C1791 C1797 1.363 . S
C1792 C1793 1.363 . S
C1792 C1797 1.379 . S
C1792 N1799 1.356 . S
C1793 C1792 1.363 . S
C1793 C1796 1.363 . S
N1794 C1796 1.356 . S
N1794 H1806 0.984 . S
N1794 H1807 0.985 . S
N1795 C1797 1.356 . S
N1795 H1800 0.984 . S
N1795 H1801 0.985 . S
C1796 C1790 1.379 . S
C1796 C1793 1.363 . S
C1796 N1794 1.356 . S
C1797 C1791 1.363 . S
C1797 C1792 1.379 . S
C1797 N1795 1.356 . S
N1798 C1790 1.356 . S
N1798 H1804 0.984 . S
N1798 H1805 0.984 . S
N1799 C1792 1.356 . S
N1799 H1802 0.984 . S
N1799 H1803 0.985 . S
H1800 N1795 0.984 . S
H1801 N1795 0.985 . S
H1802 N1799 0.984 . S
H1803 N1799 0.985 . S
H1804 N1798 0.984 . S
H1805 N1798 0.984 . S
H1806 N1794 0.984 . S
H1807 N1794 0.985 . S
C1808 C1809 1.363 . S
C1808 C1814 1.379 . S
C1808 N1816 1.356 . S
C1809 C1808 1.363 . S
C1809 C1815 1.363 . S
C1810 C1811 1.363 . S
C1810 C1815 1.379 . S
C1810 N1817 1.356 . S
C1811 C1810 1.363 . S
C1811 C1814 1.363 . S
N1812 C1814 1.356 . S
N1812 H1824 0.984 . S
N1812 H1825 0.985 . S
N1813 C1815 1.356 . S
N1813 H1818 0.984 . S
N1813 H1819 0.985 . S
C1814 C1808 1.379 . S
C1814 C1811 1.363 . S
C1814 N1812 1.356 . S
C1815 C1809 1.363 . S
C1815 C1810 1.379 . S
C1815 N1813 1.356 . S
N1816 C1808 1.356 . S
N1816 H1822 0.984 . S
N1816 H1823 0.984 . S
N1817 C1810 1.356 . S
N1817 H1820 0.984 . S
N1817 H1821 0.985 . S
H1818 N1813 0.984 . S
H1819 N1813 0.985 . S
H1820 N1817 0.984 . S
H1821 N1817 0.985 . S
H1822 N1816 0.984 . S
H1823 N1816 0.984 . S
H1824 N1812 0.984 . S
H1825 N1812 0.985 . S
C1826 C1827 1.363 . S
C1826 C1832 1.379 . S
C1826 N1834 1.356 . S
C1827 C1826 1.363 . S
C1827 C1833 1.363 . S
C1828 C1829 1.363 . S
C1828 C1833 1.379 . S
C1828 N1835 1.356 . S
C1829 C1828 1.363 . S
C1829 C1832 1.363 . S
N1830 C1832 1.356 . S
N1830 H1842 0.984 . S
N1830 H1843 0.985 . S
N1831 C1833 1.356 . S
N1831 H1836 0.984 1_455 S
N1831 H1837 0.985 . S
C1832 C1826 1.379 . S
C1832 C1829 1.363 . S
C1832 N1830 1.356 . S
C1833 C1827 1.363 . S
C1833 C1828 1.379 . S
C1833 N1831 1.356 . S
N1834 C1826 1.356 . S
N1834 H1840 0.984 . S
N1834 H1841 0.984 . S
N1835 C1828 1.356 . S
N1835 H1838 0.984 . S
N1835 H1839 0.985 . S
H1836 N1831 0.984 1_655 S
H1837 N1831 0.985 . S
H1838 N1835 0.984 . S
H1839 N1835 0.985 . S
H1840 N1834 0.984 . S
H1841 N1834 0.984 . S
H1842 N1830 0.984 . S
H1843 N1830 0.985 . S
C1844 C1845 1.363 . S
C1844 C1850 1.379 . S
C1844 N1852 1.356 . S
C1845 C1844 1.363 . S
C1845 C1851 1.363 . S
C1846 C1847 1.363 . S
C1846 C1851 1.379 . S
C1846 N1853 1.356 . S
C1847 C1846 1.363 . S
C1847 C1850 1.363 . S
N1848 C1850 1.356 . S
N1848 H1860 0.984 . S
N1848 H1861 0.985 . S
N1849 C1851 1.356 . S
N1849 H1854 0.984 . S
N1849 H1855 0.985 . S
C1850 C1844 1.379 . S
C1850 C1847 1.363 . S
C1850 N1848 1.356 . S
C1851 C1845 1.363 . S
C1851 C1846 1.379 . S
C1851 N1849 1.356 . S
N1852 C1844 1.356 . S
N1852 H1858 0.984 . S
N1852 H1859 0.984 . S
N1853 C1846 1.356 . S
N1853 H1856 0.984 . S
N1853 H1857 0.985 . S
H1854 N1849 0.984 . S
H1855 N1849 0.985 . S
H1856 N1853 0.984 . S
H1857 N1853 0.985 . S
H1858 N1852 0.984 . S
H1859 N1852 0.984 . S
H1860 N1848 0.984 . S
H1861 N1848 0.985 . S
C1862 C1863 1.363 . S
C1862 C1868 1.379 . S
C1862 N1870 1.356 . S
C1863 C1862 1.363 . S
C1863 C1869 1.363 . S
C1864 C1865 1.363 . S
C1864 C1869 1.379 . S
C1864 N1871 1.356 . S
C1865 C1864 1.363 . S
C1865 C1868 1.363 . S
N1866 C1868 1.356 . S
N1866 H1878 0.984 . S
N1866 H1879 0.985 . S
N1867 C1869 1.356 . S
N1867 H1872 0.984 . S
N1867 H1873 0.985 . S
C1868 C1862 1.379 . S
C1868 C1865 1.363 . S
C1868 N1866 1.356 . S
C1869 C1863 1.363 . S
C1869 C1864 1.379 . S
C1869 N1867 1.356 . S
N1870 C1862 1.356 . S
N1870 H1876 0.984 . S
N1870 H1877 0.984 . S
N1871 C1864 1.356 . S
N1871 H1874 0.984 . S
N1871 H1875 0.985 . S
H1872 N1867 0.984 . S
H1873 N1867 0.985 . S
H1874 N1871 0.984 . S
H1875 N1871 0.985 . S
H1876 N1870 0.984 . S
H1877 N1870 0.984 . S
H1878 N1866 0.984 . S
H1879 N1866 0.985 . S
C1880 C1881 1.363 . S
C1880 C1886 1.379 . S
C1880 N1888 1.356 . S
C1881 C1880 1.363 . S
C1881 C1887 1.363 . S
C1882 C1883 1.363 . S
C1882 C1887 1.379 . S
C1882 N1889 1.356 . S
C1883 C1882 1.363 . S
C1883 C1886 1.363 . S
N1884 C1886 1.356 . S
N1884 H1896 0.984 . S
N1884 H1897 0.985 . S
N1885 C1887 1.356 . S
N1885 H1890 0.984 . S
N1885 H1891 0.985 . S
C1886 C1880 1.379 . S
C1886 C1883 1.363 . S
C1886 N1884 1.356 . S
C1887 C1881 1.363 . S
C1887 C1882 1.379 . S
C1887 N1885 1.356 . S
N1888 C1880 1.356 . S
N1888 H1894 0.984 . S
N1888 H1895 0.984 . S
N1889 C1882 1.356 . S
N1889 H1892 0.984 . S
N1889 H1893 0.985 . S
H1890 N1885 0.984 . S
H1891 N1885 0.985 . S
H1892 N1889 0.984 . S
H1893 N1889 0.985 . S
H1894 N1888 0.984 . S
H1895 N1888 0.984 . S
H1896 N1884 0.984 . S
H1897 N1884 0.985 . S
C1898 C1899 1.363 . S
C1898 C1904 1.379 . S
C1898 N1906 1.356 . S
C1899 C1898 1.363 . S
C1899 C1905 1.363 . S
C1900 C1901 1.363 . S
C1900 C1905 1.379 . S
C1900 N1907 1.356 . S
C1901 C1900 1.363 . S
C1901 C1904 1.363 . S
N1902 C1904 1.356 . S
N1902 H1914 0.984 . S
N1902 H1915 0.985 . S
N1903 C1905 1.356 . S
N1903 H1908 0.984 . S
N1903 H1909 0.985 . S
C1904 C1898 1.379 . S
C1904 C1901 1.363 . S
C1904 N1902 1.356 . S
C1905 C1899 1.363 . S
C1905 C1900 1.379 . S
C1905 N1903 1.356 . S
N1906 C1898 1.356 . S
N1906 H1912 0.984 . S
N1906 H1913 0.984 . S
N1907 C1900 1.356 . S
N1907 H1910 0.984 . S
N1907 H1911 0.985 . S
H1908 N1903 0.984 . S
H1909 N1903 0.985 . S
H1910 N1907 0.984 . S
H1911 N1907 0.985 . S
H1912 N1906 0.984 . S
H1913 N1906 0.984 . S
H1914 N1902 0.984 . S
H1915 N1902 0.985 . S
C1916 C1917 1.363 . S
C1916 C1922 1.379 . S
C1916 N1924 1.356 . S
C1917 C1916 1.363 . S
C1917 C1923 1.363 . S
C1918 C1919 1.363 . S
C1918 C1923 1.379 . S
C1918 N1925 1.356 . S
C1919 C1918 1.363 . S
C1919 C1922 1.363 . S
N1920 C1922 1.356 . S
N1920 H1932 0.984 . S
N1920 H1933 0.985 . S
N1921 C1923 1.356 . S
N1921 H1926 0.984 . S
N1921 H1927 0.985 . S
C1922 C1916 1.379 . S
C1922 C1919 1.363 . S
C1922 N1920 1.356 . S
C1923 C1917 1.363 . S
C1923 C1918 1.379 . S
C1923 N1921 1.356 . S
N1924 C1916 1.356 . S
N1924 H1930 0.984 . S
N1924 H1931 0.984 . S
N1925 C1918 1.356 . S
N1925 H1928 0.984 . S
N1925 H1929 0.985 . S
H1926 N1921 0.984 . S
H1927 N1921 0.985 . S
H1928 N1925 0.984 . S
H1929 N1925 0.985 . S
H1930 N1924 0.984 . S
H1931 N1924 0.984 . S
H1932 N1920 0.984 . S
H1933 N1920 0.985 . S
C1934 C1935 1.363 . S
C1934 C1940 1.379 . S
C1934 N1942 1.356 . S
C1935 C1934 1.363 . S
C1935 C1941 1.363 . S
C1936 C1937 1.363 . S
C1936 C1941 1.379 . S
C1936 N1943 1.356 . S
C1937 C1936 1.363 . S
C1937 C1940 1.363 . S
N1938 C1940 1.356 . S
N1938 H1950 0.984 . S
N1938 H1951 0.985 . S
N1939 C1941 1.356 . S
N1939 H1944 0.984 . S
N1939 H1945 0.985 . S
C1940 C1934 1.379 . S
C1940 C1937 1.363 . S
C1940 N1938 1.356 . S
C1941 C1935 1.363 . S
C1941 C1936 1.379 . S
C1941 N1939 1.356 . S
N1942 C1934 1.356 . S
N1942 H1948 0.984 . S
N1942 H1949 0.984 . S
N1943 C1936 1.356 . S
N1943 H1946 0.984 . S
N1943 H1947 0.985 . S
H1944 N1939 0.984 . S
H1945 N1939 0.985 . S
H1946 N1943 0.984 . S
H1947 N1943 0.985 . S
H1948 N1942 0.984 . S
H1949 N1942 0.984 . S
H1950 N1938 0.984 . S
H1951 N1938 0.985 . S
C1952 C1953 1.363 . S
C1952 C1958 1.379 . S
C1952 N1960 1.356 . S
C1953 C1952 1.363 . S
C1953 C1959 1.363 . S
C1954 C1955 1.363 . S
C1954 C1959 1.379 . S
C1954 N1961 1.356 . S
C1955 C1954 1.363 . S
C1955 C1958 1.363 . S
N1956 C1958 1.356 . S
N1956 H1968 0.984 . S
N1956 H1969 0.985 . S
N1957 C1959 1.356 . S
N1957 H1962 0.984 . S
N1957 H1963 0.985 . S
C1958 C1952 1.379 . S
C1958 C1955 1.363 . S
C1958 N1956 1.356 . S
C1959 C1953 1.363 . S
C1959 C1954 1.379 . S
C1959 N1957 1.356 . S
N1960 C1952 1.356 . S
N1960 H1966 0.984 . S
N1960 H1967 0.984 . S
N1961 C1954 1.356 . S
N1961 H1964 0.984 . S
N1961 H1965 0.985 . S
H1962 N1957 0.984 . S
H1963 N1957 0.985 . S
H1964 N1961 0.984 . S
H1965 N1961 0.985 . S
H1966 N1960 0.984 . S
H1967 N1960 0.984 . S
H1968 N1956 0.984 . S
H1969 N1956 0.985 . S
C1970 C1971 1.363 . S
C1970 C1976 1.379 . S
C1970 N1978 1.356 . S
C1971 C1970 1.363 . S
C1971 C1977 1.363 . S
C1972 C1973 1.363 . S
C1972 C1977 1.379 . S
C1972 N1979 1.356 . S
C1973 C1972 1.363 . S
C1973 C1976 1.363 . S
N1974 C1976 1.356 . S
N1974 H1986 0.984 . S
N1974 H1987 0.985 . S
N1975 C1977 1.356 . S
N1975 H1980 0.984 . S
N1975 H1981 0.985 . S
C1976 C1970 1.379 . S
C1976 C1973 1.363 . S
C1976 N1974 1.356 . S
C1977 C1971 1.363 . S
C1977 C1972 1.379 . S
C1977 N1975 1.356 . S
N1978 C1970 1.356 . S
N1978 H1984 0.984 . S
N1978 H1985 0.984 . S
N1979 C1972 1.356 . S
N1979 H1982 0.984 . S
N1979 H1983 0.985 . S
H1980 N1975 0.984 . S
H1981 N1975 0.985 . S
H1982 N1979 0.984 . S
H1983 N1979 0.985 . S
H1984 N1978 0.984 . S
H1985 N1978 0.984 . S
H1986 N1974 0.984 . S
H1987 N1974 0.985 . S
C1988 C1989 1.363 . S
C1988 C1994 1.379 . S
C1988 N1996 1.356 . S
C1989 C1988 1.363 . S
C1989 C1995 1.363 . S
C1990 C1991 1.363 . S
C1990 C1995 1.379 . S
C1990 N1997 1.356 . S
C1991 C1990 1.363 . S
C1991 C1994 1.363 . S
N1992 C1994 1.356 . S
N1992 H2004 0.984 . S
N1992 H2005 0.985 . S
N1993 C1995 1.356 . S
N1993 H1998 0.984 . S
N1993 H1999 0.985 . S
C1994 C1988 1.379 . S
C1994 C1991 1.363 . S
C1994 N1992 1.356 . S
C1995 C1989 1.363 . S
C1995 C1990 1.379 . S
C1995 N1993 1.356 . S
N1996 C1988 1.356 . S
N1996 H2002 0.984 . S
N1996 H2003 0.984 . S
N1997 C1990 1.356 . S
N1997 H2000 0.984 . S
N1997 H2001 0.985 . S
H1998 N1993 0.984 . S
H1999 N1993 0.985 . S
H2000 N1997 0.984 . S
H2001 N1997 0.985 . S
H2002 N1996 0.984 . S
H2003 N1996 0.984 . S
H2004 N1992 0.984 . S
H2005 N1992 0.985 . S
C2006 C2007 1.363 . S
C2006 C2012 1.379 . S
C2006 N2014 1.356 . S
C2007 C2006 1.363 . S
C2007 C2013 1.363 . S
C2008 C2009 1.363 . S
C2008 C2013 1.379 . S
C2008 N2015 1.356 . S
C2009 C2008 1.363 . S
C2009 C2012 1.363 . S
N2010 C2012 1.356 . S
N2010 H2022 0.984 . S
N2010 H2023 0.985 . S
N2011 C2013 1.356 . S
N2011 H2016 0.984 . S
N2011 H2017 0.985 . S
C2012 C2006 1.379 . S
C2012 C2009 1.363 . S
C2012 N2010 1.356 . S
C2013 C2007 1.363 . S
C2013 C2008 1.379 . S
C2013 N2011 1.356 . S
N2014 C2006 1.356 . S
N2014 H2020 0.984 . S
N2014 H2021 0.984 . S
N2015 C2008 1.356 . S
N2015 H2018 0.984 . S
N2015 H2019 0.985 . S
H2016 N2011 0.984 . S
H2017 N2011 0.985 . S
H2018 N2015 0.984 . S
H2019 N2015 0.985 . S
H2020 N2014 0.984 . S
H2021 N2014 0.984 . S
H2022 N2010 0.984 . S
H2023 N2010 0.985 . S
C2024 C2025 1.363 . S
C2024 C2030 1.379 . S
C2024 N2032 1.356 . S
C2025 C2024 1.363 . S
C2025 C2031 1.363 . S
C2026 C2027 1.363 . S
C2026 C2031 1.379 . S
C2026 N2033 1.356 . S
C2027 C2026 1.363 . S
C2027 C2030 1.363 . S
N2028 C2030 1.356 . S
N2028 H2040 0.984 . S
N2028 H2041 0.985 . S
N2029 C2031 1.356 . S
N2029 H2034 0.984 . S
N2029 H2035 0.985 . S
C2030 C2024 1.379 . S
C2030 C2027 1.363 . S
C2030 N2028 1.356 . S
C2031 C2025 1.363 . S
C2031 C2026 1.379 . S
C2031 N2029 1.356 . S
N2032 C2024 1.356 . S
N2032 H2038 0.984 . S
N2032 H2039 0.984 . S
N2033 C2026 1.356 . S
N2033 H2036 0.984 . S
N2033 H2037 0.985 . S
H2034 N2029 0.984 . S
H2035 N2029 0.985 . S
H2036 N2033 0.984 . S
H2037 N2033 0.985 . S
H2038 N2032 0.984 . S
H2039 N2032 0.984 . S
H2040 N2028 0.984 . S
H2041 N2028 0.985 . S
C2042 C2043 1.363 . S
C2042 C2048 1.379 . S
C2042 N2050 1.356 . S
C2043 C2042 1.363 . S
C2043 C2049 1.363 . S
C2044 C2045 1.363 . S
C2044 C2049 1.379 . S
C2044 N2051 1.356 . S
C2045 C2044 1.363 . S
C2045 C2048 1.363 . S
N2046 C2048 1.356 . S
N2046 H2058 0.984 . S
N2046 H2059 0.985 . S
N2047 C2049 1.356 . S
N2047 H2052 0.984 . S
N2047 H2053 0.985 . S
C2048 C2042 1.379 . S
C2048 C2045 1.363 . S
C2048 N2046 1.356 . S
C2049 C2043 1.363 . S
C2049 C2044 1.379 . S
C2049 N2047 1.356 . S
N2050 C2042 1.356 . S
N2050 H2056 0.984 . S
N2050 H2057 0.984 . S
N2051 C2044 1.356 . S
N2051 H2054 0.984 . S
N2051 H2055 0.985 . S
H2052 N2047 0.984 . S
H2053 N2047 0.985 . S
H2054 N2051 0.984 . S
H2055 N2051 0.985 . S
H2056 N2050 0.984 . S
H2057 N2050 0.984 . S
H2058 N2046 0.984 . S
H2059 N2046 0.985 . S
C2060 C2061 1.363 . S
C2060 C2066 1.379 . S
C2060 N2068 1.356 . S
C2061 C2060 1.363 . S
C2061 C2067 1.363 . S
C2062 C2063 1.363 . S
C2062 C2067 1.379 . S
C2062 N2069 1.356 . S
C2063 C2062 1.363 . S
C2063 C2066 1.363 . S
N2064 C2066 1.356 . S
N2064 H2076 0.984 . S
N2064 H2077 0.985 . S
N2065 C2067 1.356 . S
N2065 H2070 0.984 . S
N2065 H2071 0.985 . S
C2066 C2060 1.379 . S
C2066 C2063 1.363 . S
C2066 N2064 1.356 . S
C2067 C2061 1.363 . S
C2067 C2062 1.379 . S
C2067 N2065 1.356 . S
N2068 C2060 1.356 . S
N2068 H2074 0.984 . S
N2068 H2075 0.984 . S
N2069 C2062 1.356 . S
N2069 H2072 0.984 . S
N2069 H2073 0.985 . S
H2070 N2065 0.984 . S
H2071 N2065 0.985 . S
H2072 N2069 0.984 . S
H2073 N2069 0.985 . S
H2074 N2068 0.984 . S
H2075 N2068 0.984 . S
H2076 N2064 0.984 . S
H2077 N2064 0.985 . S
C2078 C2079 1.363 . S
C2078 C2084 1.379 . S
C2078 N2086 1.356 . S
C2079 C2078 1.363 . S
C2079 C2085 1.363 . S
C2080 C2081 1.363 . S
C2080 C2085 1.379 . S
C2080 N2087 1.356 . S
C2081 C2080 1.363 . S
C2081 C2084 1.363 . S
N2082 C2084 1.356 . S
N2082 H2094 0.984 . S
N2082 H2095 0.985 . S
N2083 C2085 1.356 . S
N2083 H2088 0.984 . S
N2083 H2089 0.985 . S
C2084 C2078 1.379 . S
C2084 C2081 1.363 . S
C2084 N2082 1.356 . S
C2085 C2079 1.363 . S
C2085 C2080 1.379 . S
C2085 N2083 1.356 . S
N2086 C2078 1.356 . S
N2086 H2092 0.984 . S
N2086 H2093 0.984 . S
N2087 C2080 1.356 . S
N2087 H2090 0.984 . S
N2087 H2091 0.985 . S
H2088 N2083 0.984 . S
H2089 N2083 0.985 . S
H2090 N2087 0.984 . S
H2091 N2087 0.985 . S
H2092 N2086 0.984 . S
H2093 N2086 0.984 . S
H2094 N2082 0.984 . S
H2095 N2082 0.985 . S
C2096 C2097 1.363 . S
C2096 C2102 1.379 . S
C2096 N2104 1.356 . S
C2097 C2096 1.363 . S
C2097 C2103 1.363 . S
C2098 C2099 1.363 . S
C2098 C2103 1.379 . S
C2098 N2105 1.356 . S
C2099 C2098 1.363 . S
C2099 C2102 1.363 . S
N2100 C2102 1.356 . S
N2100 H2112 0.984 . S
N2100 H2113 0.985 . S
N2101 C2103 1.356 . S
N2101 H2106 0.984 . S
N2101 H2107 0.985 . S
C2102 C2096 1.379 . S
C2102 C2099 1.363 . S
C2102 N2100 1.356 . S
C2103 C2097 1.363 . S
C2103 C2098 1.379 . S
C2103 N2101 1.356 . S
N2104 C2096 1.356 . S
N2104 H2110 0.984 . S
N2104 H2111 0.984 . S
N2105 C2098 1.356 . S
N2105 H2108 0.984 . S
N2105 H2109 0.985 . S
H2106 N2101 0.984 . S
H2107 N2101 0.985 . S
H2108 N2105 0.984 . S
H2109 N2105 0.985 . S
H2110 N2104 0.984 . S
H2111 N2104 0.984 . S
H2112 N2100 0.984 . S
H2113 N2100 0.985 . S
C2114 C2115 1.363 . S
C2114 C2120 1.379 . S
C2114 N2122 1.356 . S
C2115 C2114 1.363 . S
C2115 C2121 1.363 . S
C2116 C2117 1.363 . S
C2116 C2121 1.379 . S
C2116 N2123 1.356 . S
C2117 C2116 1.363 . S
C2117 C2120 1.363 . S
N2118 C2120 1.356 . S
N2118 H2130 0.984 . S
N2118 H2131 0.985 . S
N2119 C2121 1.356 . S
N2119 H2124 0.984 . S
N2119 H2125 0.985 . S
C2120 C2114 1.379 . S
C2120 C2117 1.363 . S
C2120 N2118 1.356 . S
C2121 C2115 1.363 . S
C2121 C2116 1.379 . S
C2121 N2119 1.356 . S
N2122 C2114 1.356 . S
N2122 H2128 0.984 . S
N2122 H2129 0.984 . S
N2123 C2116 1.356 . S
N2123 H2126 0.984 . S
N2123 H2127 0.985 . S
H2124 N2119 0.984 . S
H2125 N2119 0.985 . S
H2126 N2123 0.984 . S
H2127 N2123 0.985 . S
H2128 N2122 0.984 . S
H2129 N2122 0.984 . S
H2130 N2118 0.984 . S
H2131 N2118 0.985 . S
C2132 C2133 1.363 . S
C2132 C2138 1.379 . S
C2132 N2140 1.356 . S
C2133 C2132 1.363 . S
C2133 C2139 1.363 . S
C2134 C2135 1.363 . S
C2134 C2139 1.379 . S
C2134 N2141 1.356 . S
C2135 C2134 1.363 . S
C2135 C2138 1.363 . S
N2136 C2138 1.356 . S
N2136 H2148 0.984 . S
N2136 H2149 0.985 . S
N2137 C2139 1.356 . S
N2137 H2142 0.984 . S
N2137 H2143 0.985 . S
C2138 C2132 1.379 . S
C2138 C2135 1.363 . S
C2138 N2136 1.356 . S
C2139 C2133 1.363 . S
C2139 C2134 1.379 . S
C2139 N2137 1.356 . S
N2140 C2132 1.356 . S
N2140 H2146 0.984 . S
N2140 H2147 0.984 . S
N2141 C2134 1.356 . S
N2141 H2144 0.984 . S
N2141 H2145 0.985 . S
H2142 N2137 0.984 . S
H2143 N2137 0.985 . S
H2144 N2141 0.984 . S
H2145 N2141 0.985 . S
H2146 N2140 0.984 . S
H2147 N2140 0.984 . S
H2148 N2136 0.984 . S
H2149 N2136 0.985 . S
C2150 C2151 1.363 . S
C2150 C2156 1.379 . S
C2150 N2158 1.356 . S
C2151 C2150 1.363 . S
C2151 C2157 1.363 . S
C2152 C2153 1.363 . S
C2152 C2157 1.379 . S
C2152 N2159 1.356 . S
C2153 C2152 1.363 . S
C2153 C2156 1.363 . S
N2154 C2156 1.356 . S
N2154 H2166 0.984 . S
N2154 H2167 0.985 . S
N2155 C2157 1.356 . S
N2155 H2160 0.984 . S
N2155 H2161 0.985 . S
C2156 C2150 1.379 . S
C2156 C2153 1.363 . S
C2156 N2154 1.356 . S
C2157 C2151 1.363 . S
C2157 C2152 1.379 . S
C2157 N2155 1.356 . S
N2158 C2150 1.356 . S
N2158 H2164 0.984 . S
N2158 H2165 0.984 . S
N2159 C2152 1.356 . S
N2159 H2162 0.970 1_655 S
N2159 H2163 0.985 . S
H2160 N2155 0.984 . S
H2161 N2155 0.985 . S
H2162 N2159 0.970 1_455 S
H2163 N2159 0.985 . S
H2164 N2158 0.984 . S
H2165 N2158 0.984 . S
H2166 N2154 0.984 . S
H2167 N2154 0.985 . S
C2168 C2169 1.363 . S
C2168 C2174 1.379 . S
C2168 N2176 1.356 . S
C2169 C2168 1.363 . S
C2169 C2175 1.363 . S
C2170 C2171 1.363 . S
C2170 C2175 1.379 . S
C2170 N2177 1.356 . S
C2171 C2170 1.363 . S
C2171 C2174 1.363 . S
N2172 C2174 1.356 . S
N2172 H2184 0.984 . S
N2172 H2185 0.985 . S
N2173 C2175 1.356 . S
N2173 H2178 0.984 . S
N2173 H2179 0.985 . S
C2174 C2168 1.379 . S
C2174 C2171 1.363 . S
C2174 N2172 1.356 . S
C2175 C2169 1.363 . S
C2175 C2170 1.379 . S
C2175 N2173 1.356 . S
N2176 C2168 1.356 . S
N2176 H2182 0.984 . S
N2176 H2183 0.984 . S
N2177 C2170 1.356 . S
N2177 H2180 0.984 . S
N2177 H2181 0.985 . S
H2178 N2173 0.984 . S
H2179 N2173 0.985 . S
H2180 N2177 0.984 . S
H2181 N2177 0.985 . S
H2182 N2176 0.984 . S
H2183 N2176 0.984 . S
H2184 N2172 0.984 . S
H2185 N2172 0.985 . S
C2186 C2187 1.363 . S
C2186 C2192 1.379 . S
C2186 N2194 1.356 . S
C2187 C2186 1.363 . S
C2187 C2193 1.363 . S
C2188 C2189 1.363 . S
C2188 C2193 1.379 . S
C2188 N2195 1.356 . S
C2189 C2188 1.363 . S
C2189 C2192 1.363 . S
N2190 C2192 1.356 . S
N2190 H2202 0.984 . S
N2190 H2203 0.985 . S
N2191 C2193 1.356 . S
N2191 H2196 0.984 . S
N2191 H2197 0.985 . S
C2192 C2186 1.379 . S
C2192 C2189 1.363 . S
C2192 N2190 1.356 . S
C2193 C2187 1.363 . S
C2193 C2188 1.379 . S
C2193 N2191 1.356 . S
N2194 C2186 1.356 . S
N2194 H2200 0.984 . S
N2194 H2201 0.984 . S
N2195 C2188 1.356 . S
N2195 H2198 0.992 . S
N2195 H2199 0.985 . S
H2196 N2191 0.984 . S
H2197 N2191 0.985 . S
H2198 N2195 0.992 . S
H2199 N2195 0.985 . S
H2200 N2194 0.984 . S
H2201 N2194 0.984 . S
H2202 N2190 0.984 . S
H2203 N2190 0.985 . S
C2204 C2205 1.363 . S
C2204 C2210 1.379 . S
C2204 N2212 1.356 . S
C2205 C2204 1.363 . S
C2205 C2211 1.363 . S
C2206 C2207 1.363 . S
C2206 C2211 1.379 . S
C2206 N2213 1.356 . S
C2207 C2206 1.363 . S
C2207 C2210 1.363 . S
N2208 C2210 1.356 . S
N2208 H2220 0.984 . S
N2208 H2221 0.985 . S
N2209 C2211 1.356 . S
N2209 H2214 0.984 . S
N2209 H2215 0.985 . S
C2210 C2204 1.379 . S
C2210 C2207 1.363 . S
C2210 N2208 1.356 . S
C2211 C2205 1.363 . S
C2211 C2206 1.379 . S
C2211 N2209 1.356 . S
N2212 C2204 1.356 . S
N2212 H2218 0.984 . S
N2212 H2219 0.984 . S
N2213 C2206 1.356 . S
N2213 H2216 0.984 . S
N2213 H2217 0.985 . S
H2214 N2209 0.984 . S
H2215 N2209 0.985 . S
H2216 N2213 0.984 . S
H2217 N2213 0.985 . S
H2218 N2212 0.984 . S
H2219 N2212 0.984 . S
H2220 N2208 0.984 . S
H2221 N2208 0.985 . S
C2222 C2223 1.363 . S
C2222 C2228 1.379 . S
C2222 N2230 1.356 . S
C2223 C2222 1.363 . S
C2223 C2229 1.363 . S
C2224 C2225 1.363 . S
C2224 C2229 1.379 . S
C2224 N2231 1.356 . S
C2225 C2224 1.363 . S
C2225 C2228 1.363 . S
N2226 C2228 1.356 . S
N2226 H2238 0.984 . S
N2226 H2239 0.985 . S
N2227 C2229 1.356 . S
N2227 H2232 0.984 . S
N2227 H2233 0.985 . S
C2228 C2222 1.379 . S
C2228 C2225 1.363 . S
C2228 N2226 1.356 . S
C2229 C2223 1.363 . S
C2229 C2224 1.379 . S
C2229 N2227 1.356 . S
N2230 C2222 1.356 . S
N2230 H2236 0.984 . S
N2230 H2237 0.984 . S
N2231 C2224 1.356 . S
N2231 H2234 0.984 . S
N2231 H2235 0.985 . S
H2232 N2227 0.984 . S
H2233 N2227 0.985 . S
H2234 N2231 0.984 . S
H2235 N2231 0.985 . S
H2236 N2230 0.984 . S
H2237 N2230 0.984 . S
H2238 N2226 0.984 . S
H2239 N2226 0.985 . S
C2240 C2241 1.363 . S
C2240 C2246 1.379 . S
C2240 N2248 1.356 . S
C2241 C2240 1.363 . S
C2241 C2247 1.363 . S
C2242 C2243 1.363 . S
C2242 C2247 1.379 . S
C2242 N2249 1.356 . S
C2243 C2242 1.363 . S
C2243 C2246 1.363 . S
N2244 C2246 1.356 . S
N2244 H2256 0.984 . S
N2244 H2257 0.985 . S
N2245 C2247 1.356 . S
N2245 H2250 0.984 . S
N2245 H2251 0.985 . S
C2246 C2240 1.379 . S
C2246 C2243 1.363 . S
C2246 N2244 1.356 . S
C2247 C2241 1.363 . S
C2247 C2242 1.379 . S
C2247 N2245 1.356 . S
N2248 C2240 1.356 . S
N2248 H2254 0.984 . S
N2248 H2255 0.984 . S
N2249 C2242 1.356 . S
N2249 H2252 0.984 . S
N2249 H2253 0.985 . S
H2250 N2245 0.984 . S
H2251 N2245 0.985 . S
H2252 N2249 0.984 . S
H2253 N2249 0.985 . S
H2254 N2248 0.984 . S
H2255 N2248 0.984 . S
H2256 N2244 0.984 . S
H2257 N2244 0.985 . S
C2258 C2259 1.363 1_655 S
C2258 C2264 1.379 1_565 S
C2258 N2266 1.356 1_655 S
C2259 C2258 1.363 1_455 S
C2259 C2265 1.363 . S
C2260 C2261 1.363 1_455 S
C2260 C2265 1.379 1_545 S
C2260 N2267 1.356 1_455 S
C2261 C2260 1.363 1_655 S
C2261 C2264 1.363 . S
N2262 C2264 1.356 . S
N2262 H2274 0.984 . S
N2262 H2275 0.985 . S
N2263 C2265 1.356 . S
N2263 H2268 0.984 . S
N2263 H2269 0.985 . S
C2264 C2258 1.379 1_545 S
C2264 C2261 1.363 . S
C2264 N2262 1.356 . S
C2265 C2259 1.363 . S
C2265 C2260 1.379 1_565 S
C2265 N2263 1.356 . S
N2266 C2258 1.356 1_455 S
N2266 H2272 0.984 1_455 S
N2266 H2273 0.984 . S
N2267 C2260 1.356 1_655 S
N2267 H2270 0.984 . S
N2267 H2271 0.985 1_655 S
H2268 N2263 0.984 . S
H2269 N2263 0.985 . S
H2270 N2267 0.984 . S
H2271 N2267 0.985 1_455 S
H2272 N2266 0.984 1_655 S
H2273 N2266 0.984 . S
H2274 N2262 0.984 . S
H2275 N2262 0.985 . S
C2276 C2277 1.363 . S
C2276 C2282 1.379 . S
C2276 N2284 1.356 . S
C2277 C2276 1.363 . S
C2277 C2283 1.363 . S
C2278 C2279 1.363 . S
C2278 C2283 1.379 . S
C2278 N2285 1.356 . S
C2279 C2278 1.363 . S
C2279 C2282 1.363 . S
N2280 C2282 1.356 . S
N2280 H2292 0.984 . S
N2280 H2293 0.985 . S
N2281 C2283 1.356 . S
N2281 H2286 0.984 . S
N2281 H2287 0.985 . S
C2282 C2276 1.379 . S
C2282 C2279 1.363 . S
C2282 N2280 1.356 . S
C2283 C2277 1.363 . S
C2283 C2278 1.379 . S
C2283 N2281 1.356 . S
N2284 C2276 1.356 . S
N2284 H2290 0.984 . S
N2284 H2291 0.984 . S
N2285 C2278 1.356 . S
N2285 H2288 0.984 . S
N2285 H2289 0.985 . S
H2286 N2281 0.984 . S
H2287 N2281 0.985 . S
H2288 N2285 0.984 . S
H2289 N2285 0.985 . S
H2290 N2284 0.984 . S
H2291 N2284 0.984 . S
H2292 N2280 0.984 . S
H2293 N2280 0.985 . S
C2294 C2295 1.363 1_545 S
C2294 C2300 1.379 . S
C2294 N2302 1.356 . S
C2295 C2294 1.363 1_565 S
C2295 C2301 1.363 1_556 S
C2296 C2297 1.363 1_565 S
C2296 C2301 1.379 . S
C2296 N2303 1.356 . S
C2297 C2296 1.363 1_545 S
C2297 C2300 1.363 1_554 S
N2298 C2300 1.356 . S
N2298 H2310 0.984 . S
N2298 H2311 0.985 1_556 S
N2299 C2301 1.356 . S
N2299 H2304 0.985 1_554 S
N2299 H2305 0.985 . S
C2300 C2294 1.379 . S
C2300 C2297 1.363 1_556 S
C2300 N2298 1.356 . S
C2301 C2295 1.363 1_554 S
C2301 C2296 1.379 . S
C2301 N2299 1.356 . S
N2302 C2294 1.356 . S
N2302 H2308 0.984 . S
N2302 H2309 0.984 1_545 S
N2303 C2296 1.356 . S
N2303 H2306 0.984 1_565 S
N2303 H2307 0.985 . S
H2304 N2299 0.985 1_556 S
H2305 N2299 0.985 . S
H2306 N2303 0.984 1_545 S
H2307 N2303 0.985 . S
H2308 N2302 0.984 . S
H2309 N2302 0.984 1_565 S
H2310 N2298 0.984 . S
H2311 N2298 0.985 1_554 S
C2312 C2313 1.363 . S
C2312 C2318 1.379 . S
C2312 N2320 1.356 . S
C2313 C2312 1.363 . S
C2313 C2319 1.363 . S
C2314 C2315 1.363 . S
C2314 C2319 1.379 . S
C2314 N2321 1.356 . S
C2315 C2314 1.363 . S
C2315 C2318 1.363 . S
N2316 C2318 1.356 . S
N2316 H2328 0.984 . S
N2316 H2329 0.985 . S
N2317 C2319 1.356 . S
N2317 H2322 0.984 . S
N2317 H2323 0.985 . S
C2318 C2312 1.379 . S
C2318 C2315 1.363 . S
C2318 N2316 1.356 . S
C2319 C2313 1.363 . S
C2319 C2314 1.379 . S
C2319 N2317 1.356 . S
N2320 C2312 1.356 . S
N2320 H2326 0.984 . S
N2320 H2327 0.984 . S
N2321 C2314 1.356 . S
N2321 H2324 0.984 . S
N2321 H2325 0.985 . S
H2322 N2317 0.984 . S
H2323 N2317 0.985 . S
H2324 N2321 0.984 . S
H2325 N2321 0.985 . S
H2326 N2320 0.984 . S
H2327 N2320 0.984 . S
H2328 N2316 0.984 . S
H2329 N2316 0.985 . S
C2330 C2331 1.363 . S
C2330 C2336 1.379 . S
C2330 N2338 1.356 . S
C2331 C2330 1.363 . S
C2331 C2337 1.363 1_545 S
C2332 C2333 1.363 . S
C2332 C2337 1.379 . S
C2332 N2339 1.356 . S
C2333 C2332 1.363 . S
C2333 C2336 1.363 1_565 S
N2334 C2336 1.356 . S
N2334 H2346 0.984 . S
N2334 H2347 0.985 1_545 S
N2335 C2337 1.356 . S
N2335 H2340 0.984 1_565 S
N2335 H2341 0.985 . S
C2336 C2330 1.379 . S
C2336 C2333 1.363 1_545 S
C2336 N2334 1.356 . S
C2337 C2331 1.363 1_565 S
C2337 C2332 1.379 . S
C2337 N2335 1.356 . S
N2338 C2330 1.356 . S
N2338 H2344 0.984 . S
N2338 H2345 0.984 . S
N2339 C2332 1.356 . S
N2339 H2342 0.984 . S
N2339 H2343 0.985 . S
H2340 N2335 0.984 1_545 S
H2341 N2335 0.985 . S
H2342 N2339 0.984 . S
H2343 N2339 0.985 . S
H2344 N2338 0.984 . S
H2345 N2338 0.984 . S
H2346 N2334 0.984 . S
H2347 N2334 0.985 1_565 S
C2348 C2349 1.363 . S
C2348 C2354 1.379 . S
C2348 N2356 1.356 . S
C2349 C2348 1.363 . S
C2349 C2355 1.363 . S
C2350 C2351 1.363 . S
C2350 C2355 1.379 . S
C2350 N2357 1.356 . S
C2351 C2350 1.363 . S
C2351 C2354 1.363 . S
N2352 C2354 1.356 . S
N2352 H2364 0.984 . S
N2352 H2365 0.985 . S
N2353 C2355 1.356 . S
N2353 H2358 0.984 . S
N2353 H2359 0.985 . S
C2354 C2348 1.379 . S
C2354 C2351 1.363 . S
C2354 N2352 1.356 . S
C2355 C2349 1.363 . S
C2355 C2350 1.379 . S
C2355 N2353 1.356 . S
N2356 C2348 1.356 . S
N2356 H2362 0.984 . S
N2356 H2363 0.984 . S
N2357 C2350 1.356 . S
N2357 H2360 0.984 . S
N2357 H2361 0.985 . S
H2358 N2353 0.984 . S
H2359 N2353 0.985 . S
H2360 N2357 0.984 . S
H2361 N2357 0.985 . S
H2362 N2356 0.984 . S
H2363 N2356 0.984 . S
H2364 N2352 0.984 . S
H2365 N2352 0.985 . S
C2366 C2367 1.363 1_556 S
C2366 C2372 1.379 1_655 S
C2366 N2374 1.356 . S
C2367 C2366 1.363 1_554 S
C2367 C2373 1.363 1_565 S
C2368 C2369 1.363 1_554 S
C2368 C2373 1.379 1_455 S
C2368 N2375 1.356 . S
C2369 C2368 1.363 1_556 S
C2369 C2372 1.363 1_545 S
N2370 C2372 1.356 . S
N2370 H2382 0.984 . S
N2370 H2383 0.985 1_565 S
N2371 C2373 1.356 . S
N2371 H2376 0.984 1_545 S
N2371 H2377 0.985 . S
C2372 C2366 1.379 1_455 S
C2372 C2369 1.363 1_565 S
C2372 N2370 1.356 . S
C2373 C2367 1.363 1_545 S
C2373 C2368 1.379 1_655 S
C2373 N2371 1.356 . S
N2374 C2366 1.356 . S
N2374 H2380 0.984 . S
N2374 H2381 0.984 . S
N2375 C2368 1.356 . S
N2375 H2378 0.984 . S
N2375 H2379 0.985 . S
H2376 N2371 0.984 1_565 S
H2377 N2371 0.985 . S
H2378 N2375 0.984 . S
H2379 N2375 0.985 . S
H2380 N2374 0.984 . S
H2381 N2374 0.984 . S
H2382 N2370 0.984 . S
H2383 N2370 0.985 1_545 S
C2384 C2385 1.363 . S
C2384 C2390 1.379 . S
C2384 N2392 1.356 . S
C2385 C2384 1.363 . S
C2385 C2391 1.363 . S
C2386 C2387 1.363 . S
C2386 C2391 1.379 . S
C2386 N2393 1.356 . S
C2387 C2386 1.363 . S
C2387 C2390 1.363 . S
N2388 C2390 1.356 . S
N2388 H2400 0.984 . S
N2388 H2401 0.985 . S
N2389 C2391 1.356 . S
N2389 H2394 0.984 . S
N2389 H2395 0.985 . S
C2390 C2384 1.379 . S
C2390 C2387 1.363 . S
C2390 N2388 1.356 . S
C2391 C2385 1.363 . S
C2391 C2386 1.379 . S
C2391 N2389 1.356 . S
N2392 C2384 1.356 . S
N2392 H2398 0.984 . S
N2392 H2399 0.984 . S
N2393 C2386 1.356 . S
N2393 H2396 0.984 . S
N2393 H2397 0.985 . S
H2394 N2389 0.984 . S
H2395 N2389 0.985 . S
H2396 N2393 0.984 . S
H2397 N2393 0.985 . S
H2398 N2392 0.984 . S
H2399 N2392 0.984 . S
H2400 N2388 0.984 . S
H2401 N2388 0.985 . S
C2402 C2403 1.363 . S
C2402 C2408 1.379 . S
C2402 N2410 1.356 . S
C2403 C2402 1.363 . S
C2403 C2409 1.363 . S
C2404 C2405 1.363 . S
C2404 C2409 1.379 . S
C2404 N2411 1.356 . S
C2405 C2404 1.363 . S
C2405 C2408 1.363 . S
N2406 C2408 1.356 . S
N2406 H2418 0.984 . S
N2406 H2419 0.985 . S
N2407 C2409 1.356 . S
N2407 H2412 0.984 . S
N2407 H2413 0.985 . S
C2408 C2402 1.379 . S
C2408 C2405 1.363 . S
C2408 N2406 1.356 . S
C2409 C2403 1.363 . S
C2409 C2404 1.379 . S
C2409 N2407 1.356 . S
N2410 C2402 1.356 . S
N2410 H2416 0.984 . S
N2410 H2417 0.984 . S
N2411 C2404 1.356 . S
N2411 H2414 0.984 . S
N2411 H2415 0.985 . S
H2412 N2407 0.984 . S
H2413 N2407 0.985 . S
H2414 N2411 0.984 . S
H2415 N2411 0.985 . S
H2416 N2410 0.984 . S
H2417 N2410 0.984 . S
H2418 N2406 0.984 . S
H2419 N2406 0.985 . S
C2420 C2421 1.363 . S
C2420 C2426 1.379 . S
C2420 N2428 1.356 . S
C2421 C2420 1.363 . S
C2421 C2427 1.363 . S
C2422 C2423 1.363 . S
C2422 C2427 1.379 . S
C2422 N2429 1.356 . S
C2423 C2422 1.363 . S
C2423 C2426 1.363 . S
N2424 C2426 1.356 . S
N2424 H2436 0.984 . S
N2424 H2437 0.985 . S
N2425 C2427 1.356 . S
N2425 H2430 0.984 . S
N2425 H2431 0.985 . S
C2426 C2420 1.379 . S
C2426 C2423 1.363 . S
C2426 N2424 1.356 . S
C2427 C2421 1.363 . S
C2427 C2422 1.379 . S
C2427 N2425 1.356 . S
N2428 C2420 1.356 . S
N2428 H2434 0.984 . S
N2428 H2435 0.984 . S
N2429 C2422 1.356 . S
N2429 H2432 0.984 . S
N2429 H2433 0.985 . S
H2430 N2425 0.984 . S
H2431 N2425 0.985 . S
H2432 N2429 0.984 . S
H2433 N2429 0.985 . S
H2434 N2428 0.984 . S
H2435 N2428 0.984 . S
H2436 N2424 0.984 . S
H2437 N2424 0.985 . S
C2438 C2439 1.363 . S
C2438 C2444 1.379 . S
C2438 N2446 1.356 . S
C2439 C2438 1.363 . S
C2439 C2445 1.363 . S
C2440 C2441 1.363 . S
C2440 C2445 1.379 . S
C2440 N2447 1.356 . S
C2441 C2440 1.363 . S
C2441 C2444 1.363 . S
N2442 C2444 1.356 . S
N2442 H2454 0.984 . S
N2442 H2455 0.985 . S
N2443 C2445 1.356 . S
N2443 H2448 0.984 . S
N2443 H2449 0.985 . S
C2444 C2438 1.379 . S
C2444 C2441 1.363 . S
C2444 N2442 1.356 . S
C2445 C2439 1.363 . S
C2445 C2440 1.379 . S
C2445 N2443 1.356 . S
N2446 C2438 1.356 . S
N2446 H2452 0.984 . S
N2446 H2453 0.984 . S
N2447 C2440 1.356 . S
N2447 H2450 0.984 . S
N2447 H2451 0.985 . S
H2448 N2443 0.984 . S
H2449 N2443 0.985 . S
H2450 N2447 0.984 . S
H2451 N2447 0.985 . S
H2452 N2446 0.984 . S
H2453 N2446 0.984 . S
H2454 N2442 0.984 . S
H2455 N2442 0.985 . S
C2456 C2457 1.350 1_554 S
C2456 C2462 1.391 . S
C2456 N2464 1.353 1_554 S
C2457 C2456 1.350 1_556 S
C2457 C2463 1.363 . S
C2458 C2459 1.350 1_556 S
C2458 C2463 1.391 . S
C2458 N2465 1.353 1_556 S
C2459 C2458 1.350 1_554 S
C2459 C2462 1.363 . S
N2460 C2462 1.356 . S
N2460 H2472 0.984 . S
N2460 H2473 0.985 . S
N2461 C2463 1.356 . S
N2461 H2466 0.984 . S
N2461 H2467 0.985 . S
C2462 C2456 1.391 . S
C2462 C2459 1.363 . S
C2462 N2460 1.356 . S
C2463 C2457 1.363 . S
C2463 C2458 1.391 . S
C2463 N2461 1.356 . S
N2464 C2456 1.353 1_556 S
N2464 H2470 0.984 1_556 S
N2464 H2471 0.984 . S
N2465 C2458 1.353 1_554 S
N2465 H2468 0.984 . S
N2465 H2469 0.985 1_554 S
H2466 N2461 0.984 . S
H2467 N2461 0.985 . S
H2468 N2465 0.984 . S
H2469 N2465 0.985 1_556 S
H2470 N2464 0.984 1_554 S
H2471 N2464 0.984 . S
H2472 N2460 0.984 . S
H2473 N2460 0.985 . S
C2474 C2475 1.363 . S
C2474 C2480 1.379 . S
C2474 N2482 1.356 . S
C2475 C2474 1.363 . S
C2475 C2481 1.363 1_655 S
C2476 C2477 1.363 . S
C2476 C2481 1.379 . S
C2476 N2483 1.356 . S
C2477 C2476 1.363 . S
C2477 C2480 1.363 1_455 S
N2478 C2480 1.356 . S
N2478 H2490 0.984 . S
N2478 H2491 0.985 1_655 S
N2479 C2481 1.356 . S
N2479 H2484 0.984 1_455 S
N2479 H2485 0.985 . S
C2480 C2474 1.379 . S
C2480 C2477 1.363 1_655 S
C2480 N2478 1.356 . S
C2481 C2475 1.363 1_455 S
C2481 C2476 1.379 . S
C2481 N2479 1.356 . S
N2482 C2474 1.356 . S
N2482 H2488 0.984 . S
N2482 H2489 0.984 . S
N2483 C2476 1.356 . S
N2483 H2486 0.984 . S
N2483 H2487 0.985 . S
H2484 N2479 0.984 1_655 S
H2485 N2479 0.985 . S
H2486 N2483 0.984 . S
H2487 N2483 0.985 . S
H2488 N2482 0.984 . S
H2489 N2482 0.984 . S
H2490 N2478 0.984 . S
H2491 N2478 0.985 1_455 S
C2492 C2493 1.363 1_656 S
C2492 C2498 1.379 . S
C2492 N2500 1.356 1_655 S
C2493 C2492 1.363 1_454 S
C2493 C2499 1.363 . S
C2494 C2495 1.363 1_454 S
C2494 C2499 1.379 . S
C2494 N2501 1.356 1_455 S
C2495 C2494 1.363 1_656 S
C2495 C2498 1.363 . S
N2496 C2498 1.356 . S
N2496 H2508 0.984 . S
N2496 H2509 0.985 . S
N2497 C2499 1.356 . S
N2497 H2502 0.984 . S
N2497 H2503 0.985 . S
C2498 C2492 1.379 . S
C2498 C2495 1.363 . S
C2498 N2496 1.356 . S
C2499 C2493 1.363 . S
C2499 C2494 1.379 . S
C2499 N2497 1.356 . S
N2500 C2492 1.356 1_455 S
N2500 H2506 0.984 1_455 S
N2500 H2507 0.984 1_556 S
N2501 C2494 1.356 1_655 S
N2501 H2504 0.984 1_554 S
N2501 H2505 0.985 1_655 S
H2502 N2497 0.984 . S
H2503 N2497 0.985 . S
H2504 N2501 0.984 1_556 S
H2505 N2501 0.985 1_455 S
H2506 N2500 0.984 1_655 S
H2507 N2500 0.984 1_554 S
H2508 N2496 0.984 . S
H2509 N2496 0.985 . S
C2510 C2511 1.363 . S
C2510 C2516 1.379 . S
C2510 N2518 1.356 . S
C2511 C2510 1.363 . S
C2511 C2517 1.363 . S
C2512 C2513 1.363 . S
C2512 C2517 1.379 . S
C2512 N2519 1.356 . S
C2513 C2512 1.363 . S
C2513 C2516 1.363 . S
N2514 C2516 1.356 . S
N2514 H2526 0.984 . S
N2514 H2527 0.985 . S
N2515 C2517 1.356 . S
N2515 H2520 0.984 . S
N2515 H2521 0.985 . S
C2516 C2510 1.379 . S
C2516 C2513 1.363 . S
C2516 N2514 1.356 . S
C2517 C2511 1.363 . S
C2517 C2512 1.379 . S
C2517 N2515 1.356 . S
N2518 C2510 1.356 . S
N2518 H2524 0.984 . S
N2518 H2525 0.984 . S
N2519 C2512 1.356 . S
N2519 H2522 0.984 . S
N2519 H2523 0.985 . S
H2520 N2515 0.984 . S
H2521 N2515 0.985 . S
H2522 N2519 0.984 . S
H2523 N2519 0.985 . S
H2524 N2518 0.984 . S
H2525 N2518 0.984 . S
H2526 N2514 0.984 . S
H2527 N2514 0.985 . S
C1089 C247 1.613 . S
C1091 C9 1.613 . S
C1107 C43 1.613 . S
C1109 C145 1.613 . S
C1125 C77 1.613 . S
C1127 C179 1.613 . S
C1143 C213 1.613 . S
C1145 C111 1.613 . S
C1161 C519 1.613 . S
C1163 C281 1.613 . S
C1179 C417 1.613 . S
C1181 C315 1.613 . S
C1197 C349 1.613 . S
C1199 C451 1.613 . S
C1215 C383 1.613 . S
C1217 C485 1.613 . S
C1233 C791 1.613 . S
C1235 C553 1.613 . S
C1251 C587 1.613 . S
C1253 C689 1.613 . S
C1269 C621 1.613 . S
C1271 C723 1.613 . S
C1287 C757 1.613 . S
C1289 C655 1.613 . S
C1305 C1063 1.613 . S
C1307 C825 1.613 . S
C1323 C859 1.613 . S
C1325 C961 1.613 . S
C1341 C995 1.613 . S
C1343 C893 1.613 . S
C1359 C1029 1.613 . S
C1361 C927 1.613 . S
C1377 C614 1.392 . S
C1379 C2 1.392 . S
C1395 C648 1.392 . S
C1397 C36 1.392 . S
C1413 C70 1.392 . S
C1415 C546 1.392 . S
C1431 C104 1.392 . S
C1433 C580 1.392 . S
C1449 C750 1.392 . S
C1451 C138 1.392 . S
C1467 C784 1.392 . S
C1469 C172 1.392 . S
C1485 C206 1.392 . S
C1487 C682 1.392 . S
C1503 C240 1.392 . S
C1505 C716 1.392 . S
C1521 C274 1.392 . S
C1523 C886 1.392 . S
C1539 C920 1.392 . S
C1541 C308 1.392 . S
C1557 C818 1.392 . S
C1559 C342 1.392 . S
C1575 C376 1.392 . S
C1577 C852 1.392 . S
C1593 C410 1.392 . S
C1595 C1022 1.392 . S
C1611 C1056 1.392 . S
C1613 C444 1.392 . S
C1629 C954 1.392 . S
C1631 C478 1.392 . S
C1647 C988 1.392 . S
C1649 C512 1.392 . S
C1665 C5 1.214 . S
C1667 C951 1.168 . S
C1683 C305 1.168 . S
C1685 C39 1.214 . S
C1701 C883 1.168 . S
C1703 C73 1.214 . S
C1719 C107 1.214 . S
C1721 C373 1.168 . S
C1737 C1019 1.168 . S
C1739 C141 1.214 . S
C1755 C509 1.168 . S
C1757 C175 1.214 . S
C1773 C209 1.214 . S
C1775 C1087 1.168 . S
C1791 C243 1.214 . S
C1793 C441 1.168 . S
C1809 C277 1.214 . S
C1811 C679 1.168 . S
C1827 C311 1.214 . S
C1829 C33 1.168 . S
C1845 C611 1.168 . S
C1847 C345 1.214 . S
C1863 C379 1.214 . S
C1865 C101 1.168 . S
C1881 C747 1.168 . S
C1883 C413 1.214 . S
C1899 C447 1.214 . S
C1901 C237 1.168 . S
C1917 C481 1.214 . S
C1919 C815 1.168 . S
C1935 C169 1.168 . S
C1937 C515 1.214 . S
C1953 C549 1.214 . S
C1955 C407 1.168 . S
C1971 C849 1.168 . S
C1973 C583 1.214 . S
C1989 C339 1.168 . S
C1991 C617 1.214 . S
C2007 C651 1.214 . S
C2009 C917 1.168 . S
C2025 C685 1.214 . S
C2027 C475 1.168 . S
C2043 C1053 1.168 . S
C2045 C719 1.214 . S
C2061 C753 1.214 . S
C2063 C543 1.168 . S
C2079 C985 1.168 . S
C2081 C787 1.214 . S
C2097 C135 1.168 . S
C2099 C821 1.214 . S
C2115 C577 1.168 . S
C2117 C855 1.214 . S
C2133 C67 1.168 . S
C2135 C889 1.214 . S
C2151 C645 1.168 . S
C2153 C923 1.214 . S
C2169 C957 1.214 . S
C2171 C203 1.168 . S
C2187 C781 1.168 . S
C2189 C991 1.214 . S
C2205 C271 1.168 . S
C2207 C1025 1.214 . S
C2223 C713 1.168 . S
C2225 C1059 1.214 . S
C2241 C20 1.538 . S
C2243 C836 1.538 . S
C2259 C54 1.538 . S
C2261 C326 1.538 . S
C2277 C904 1.538 . S
C2279 C88 1.538 . S
C2295 C394 1.538 . S
C2297 C122 1.538 . S
C2313 C972 1.538 . S
C2315 C156 1.538 . S
C2331 C462 1.538 . S
C2333 C190 1.538 . S
C2349 C1040 1.538 . S
C2351 C224 1.538 . S
C2367 C530 1.538 . S
C2369 C258 1.538 . S
C2385 C292 1.538 . S
C2387 C564 1.538 . S
C2403 C632 1.538 . S
C2405 C360 1.538 . S
C2421 C428 1.538 . S
C2423 C700 1.538 . S
C2439 C496 1.538 . S
C2441 C768 1.538 . S
C2457 C870 1.538 . S
C2459 C598 1.538 . S
C2475 C666 1.538 . S
C2477 C938 1.538 . S
C2493 C1006 1.538 . S
C2495 C734 1.538 . S
C2511 C1074 1.538 . S
C2513 C802 1.538 . S
