# Generated by pormake.
# Topology uoi, (4)-cn, num edge types: 1
# Building blocks:
#     Node 0, Type 0, BuildingBlock: KUFVIS_clean_sbu_0, # of connection points: 4
#     Node 1, Type 0, BuildingBlock: KUFVIS_clean_sbu_0, # of connection points: 4
#     Node 2, Type 0, BuildingBlock: KUFVIS_clean_sbu_0, # of connection points: 4
#     Node 3, Type 0, BuildingBlock: KUFVIS_clean_sbu_0, # of connection points: 4
#     Node 4, Type 0, BuildingBlock: KUFVIS_clean_sbu_0, # of connection points: 4
#     Node 5, Type 0, BuildingBlock: KUFVIS_clean_sbu_0, # of connection points: 4
#     Node 6, Type 0, BuildingBlock: KUFVIS_clean_sbu_0, # of connection points: 4
#     Node 7, Type 0, BuildingBlock: KUFVIS_clean_sbu_0, # of connection points: 4
#     Node 8, Type 0, BuildingBlock: KUFVIS_clean_sbu_0, # of connection points: 4
#     Node 9, Type 0, BuildingBlock: KUFVIS_clean_sbu_0, # of connection points: 4
#     Node 10, Type 0, BuildingBlock: KUFVIS_clean_sbu_0, # of connection points: 4
#     Node 11, Type 0, BuildingBlock: KUFVIS_clean_sbu_0, # of connection points: 4
#     Node 12, Type 0, BuildingBlock: KUFVIS_clean_sbu_0, # of connection points: 4
#     Node 13, Type 0, BuildingBlock: KUFVIS_clean_sbu_0, # of connection points: 4
#     Node 14, Type 0, BuildingBlock: KUFVIS_clean_sbu_0, # of connection points: 4
#     Node 15, Type 0, BuildingBlock: KUFVIS_clean_sbu_0, # of connection points: 4
#     Node 16, Type 0, BuildingBlock: KUFVIS_clean_sbu_0, # of connection points: 4
#     Node 17, Type 0, BuildingBlock: KUFVIS_clean_sbu_0, # of connection points: 4
#     Node 18, Type 0, BuildingBlock: KUFVIS_clean_sbu_0, # of connection points: 4
#     Node 19, Type 0, BuildingBlock: KUFVIS_clean_sbu_0, # of connection points: 4
#     Node 20, Type 0, BuildingBlock: KUFVIS_clean_sbu_0, # of connection points: 4
#     Node 21, Type 0, BuildingBlock: KUFVIS_clean_sbu_0, # of connection points: 4
#     Node 22, Type 0, BuildingBlock: KUFVIS_clean_sbu_0, # of connection points: 4
#     Node 23, Type 0, BuildingBlock: KUFVIS_clean_sbu_0, # of connection points: 4
#     Node 24, Type 0, BuildingBlock: KUFVIS_clean_sbu_0, # of connection points: 4
#     Node 25, Type 0, BuildingBlock: KUFVIS_clean_sbu_0, # of connection points: 4
#     Node 26, Type 0, BuildingBlock: KUFVIS_clean_sbu_0, # of connection points: 4
#     Node 27, Type 0, BuildingBlock: KUFVIS_clean_sbu_0, # of connection points: 4
#     Node 28, Type 0, BuildingBlock: KUFVIS_clean_sbu_0, # of connection points: 4
#     Node 29, Type 0, BuildingBlock: KUFVIS_clean_sbu_0, # of connection points: 4
#     Node 30, Type 0, BuildingBlock: KUFVIS_clean_sbu_0, # of connection points: 4
#     Node 31, Type 0, BuildingBlock: KUFVIS_clean_sbu_0, # of connection points: 4
#     Edge 32, Type (0, 0), BuildingBlock: MIFKUJ_clean_linker_0, # of connection points: 2
#     Edge 33, Type (0, 0), BuildingBlock: MIFKUJ_clean_linker_0, # of connection points: 2
#     Edge 34, Type (0, 0), BuildingBlock: MIFKUJ_clean_linker_0, # of connection points: 2
#     Edge 35, Type (0, 0), BuildingBlock: MIFKUJ_clean_linker_0, # of connection points: 2
#     Edge 36, Type (0, 0), BuildingBlock: MIFKUJ_clean_linker_0, # of connection points: 2
#     Edge 37, Type (0, 0), BuildingBlock: MIFKUJ_clean_linker_0, # of connection points: 2
#     Edge 38, Type (0, 0), BuildingBlock: MIFKUJ_clean_linker_0, # of connection points: 2
#     Edge 39, Type (0, 0), BuildingBlock: MIFKUJ_clean_linker_0, # of connection points: 2
#     Edge 40, Type (0, 0), BuildingBlock: MIFKUJ_clean_linker_0, # of connection points: 2
#     Edge 41, Type (0, 0), BuildingBlock: MIFKUJ_clean_linker_0, # of connection points: 2
#     Edge 42, Type (0, 0), BuildingBlock: MIFKUJ_clean_linker_0, # of connection points: 2
#     Edge 43, Type (0, 0), BuildingBlock: MIFKUJ_clean_linker_0, # of connection points: 2
#     Edge 44, Type (0, 0), BuildingBlock: MIFKUJ_clean_linker_0, # of connection points: 2
#     Edge 45, Type (0, 0), BuildingBlock: MIFKUJ_clean_linker_0, # of connection points: 2
#     Edge 46, Type (0, 0), BuildingBlock: MIFKUJ_clean_linker_0, # of connection points: 2
#     Edge 47, Type (0, 0), BuildingBlock: MIFKUJ_clean_linker_0, # of connection points: 2
#     Edge 48, Type (0, 0), BuildingBlock: MIFKUJ_clean_linker_0, # of connection points: 2
#     Edge 49, Type (0, 0), BuildingBlock: MIFKUJ_clean_linker_0, # of connection points: 2
#     Edge 50, Type (0, 0), BuildingBlock: MIFKUJ_clean_linker_0, # of connection points: 2
#     Edge 51, Type (0, 0), BuildingBlock: MIFKUJ_clean_linker_0, # of connection points: 2
#     Edge 52, Type (0, 0), BuildingBlock: MIFKUJ_clean_linker_0, # of connection points: 2
#     Edge 53, Type (0, 0), BuildingBlock: MIFKUJ_clean_linker_0, # of connection points: 2
#     Edge 54, Type (0, 0), BuildingBlock: MIFKUJ_clean_linker_0, # of connection points: 2
#     Edge 55, Type (0, 0), BuildingBlock: MIFKUJ_clean_linker_0, # of connection points: 2
#     Edge 56, Type (0, 0), BuildingBlock: MIFKUJ_clean_linker_0, # of connection points: 2
#     Edge 57, Type (0, 0), BuildingBlock: MIFKUJ_clean_linker_0, # of connection points: 2
#     Edge 58, Type (0, 0), BuildingBlock: MIFKUJ_clean_linker_0, # of connection points: 2
#     Edge 59, Type (0, 0), BuildingBlock: MIFKUJ_clean_linker_0, # of connection points: 2
#     Edge 60, Type (0, 0), BuildingBlock: MIFKUJ_clean_linker_0, # of connection points: 2
#     Edge 61, Type (0, 0), BuildingBlock: MIFKUJ_clean_linker_0, # of connection points: 2
#     Edge 62, Type (0, 0), BuildingBlock: MIFKUJ_clean_linker_0, # of connection points: 2
#     Edge 63, Type (0, 0), BuildingBlock: MIFKUJ_clean_linker_0, # of connection points: 2
#     Edge 64, Type (0, 0), BuildingBlock: MIFKUJ_clean_linker_0, # of connection points: 2
#     Edge 65, Type (0, 0), BuildingBlock: MIFKUJ_clean_linker_0, # of connection points: 2
#     Edge 66, Type (0, 0), BuildingBlock: MIFKUJ_clean_linker_0, # of connection points: 2
#     Edge 67, Type (0, 0), BuildingBlock: MIFKUJ_clean_linker_0, # of connection points: 2
#     Edge 68, Type (0, 0), BuildingBlock: MIFKUJ_clean_linker_0, # of connection points: 2
#     Edge 69, Type (0, 0), BuildingBlock: MIFKUJ_clean_linker_0, # of connection points: 2
#     Edge 70, Type (0, 0), BuildingBlock: MIFKUJ_clean_linker_0, # of connection points: 2
#     Edge 71, Type (0, 0), BuildingBlock: MIFKUJ_clean_linker_0, # of connection points: 2
#     Edge 72, Type (0, 0), BuildingBlock: MIFKUJ_clean_linker_0, # of connection points: 2
#     Edge 73, Type (0, 0), BuildingBlock: MIFKUJ_clean_linker_0, # of connection points: 2
#     Edge 74, Type (0, 0), BuildingBlock: MIFKUJ_clean_linker_0, # of connection points: 2
#     Edge 75, Type (0, 0), BuildingBlock: MIFKUJ_clean_linker_0, # of connection points: 2
#     Edge 76, Type (0, 0), BuildingBlock: MIFKUJ_clean_linker_0, # of connection points: 2
#     Edge 77, Type (0, 0), BuildingBlock: MIFKUJ_clean_linker_0, # of connection points: 2
#     Edge 78, Type (0, 0), BuildingBlock: MIFKUJ_clean_linker_0, # of connection points: 2
#     Edge 79, Type (0, 0), BuildingBlock: MIFKUJ_clean_linker_0, # of connection points: 2
#     Edge 80, Type (0, 0), BuildingBlock: MIFKUJ_clean_linker_0, # of connection points: 2
#     Edge 81, Type (0, 0), BuildingBlock: MIFKUJ_clean_linker_0, # of connection points: 2
#     Edge 82, Type (0, 0), BuildingBlock: MIFKUJ_clean_linker_0, # of connection points: 2
#     Edge 83, Type (0, 0), BuildingBlock: MIFKUJ_clean_linker_0, # of connection points: 2
#     Edge 84, Type (0, 0), BuildingBlock: MIFKUJ_clean_linker_0, # of connection points: 2
#     Edge 85, Type (0, 0), BuildingBlock: MIFKUJ_clean_linker_0, # of connection points: 2
#     Edge 86, Type (0, 0), BuildingBlock: MIFKUJ_clean_linker_0, # of connection points: 2
#     Edge 87, Type (0, 0), BuildingBlock: MIFKUJ_clean_linker_0, # of connection points: 2
#     Edge 88, Type (0, 0), BuildingBlock: MIFKUJ_clean_linker_0, # of connection points: 2
#     Edge 89, Type (0, 0), BuildingBlock: MIFKUJ_clean_linker_0, # of connection points: 2
#     Edge 90, Type (0, 0), BuildingBlock: MIFKUJ_clean_linker_0, # of connection points: 2
#     Edge 91, Type (0, 0), BuildingBlock: MIFKUJ_clean_linker_0, # of connection points: 2
#     Edge 92, Type (0, 0), BuildingBlock: MIFKUJ_clean_linker_0, # of connection points: 2
#     Edge 93, Type (0, 0), BuildingBlock: MIFKUJ_clean_linker_0, # of connection points: 2
#     Edge 94, Type (0, 0), BuildingBlock: MIFKUJ_clean_linker_0, # of connection points: 2
#     Edge 95, Type (0, 0), BuildingBlock: MIFKUJ_clean_linker_0, # of connection points: 2
# Relax obj value: 0.273
# Max RMSD: 0.511
# Mean RMSD: 0.316
data_MOF--net-uoi--node1-KUFVIS_clean_sbu_0--edge1-MIFKUJ_clean_linker_0
_symmetry_space_group_name_H-M    P1
_symmetry_Int_Tables_number       1
_symmetry_cell_setting            triclinic
loop_
_symmetry_equiv_pos_as_xyz
'x, y, z'
_cell_length_a     59.589508
_cell_length_b     95.993131
_cell_length_c     27.126764
_cell_angle_alpha  89.997664
_cell_angle_beta   90.043497
_cell_angle_gamma 89.998846
loop_
_atom_site_label
_atom_site_type_symbol
_atom_site_fract_x
_atom_site_fract_y
_atom_site_fract_z
_atom_type_partial_charge
Mn0 Mn 0.33208 0.18894 0.29581 0.0
Mn1 Mn 0.35182 0.1596 0.24307 0.0
C2 C 0.32638 0.16836 0.33552 0.0
C3 C 0.34098 0.20892 0.33997 0.0
C4 C 0.30671 0.17198 0.21744 0.0
O5 O 0.3508 0.19591 0.23977 0.0
O6 O 0.36418 0.17624 0.20701 0.0
C7 C 0.39889 0.16371 0.27451 0.0
N8 N 0.37986 0.15585 0.27443 0.0
C9 C 0.39709 0.13847 0.32574 0.0
C10 C 0.41688 0.14636 0.32643 0.0
C11 C 0.41778 0.15905 0.30071 0.0
C12 C 0.37872 0.14373 0.29961 0.0
H13 H 0.3996 0.17349 0.25491 0.0
C14 C 0.36253 0.18954 0.2081 0.0
O15 O 0.32347 0.20855 0.31134 0.0
O16 O 0.35292 0.19768 0.3433 0.0
N17 N 0.34186 0.14249 0.27177 0.0
C18 C 0.32221 0.13555 0.26394 0.0
C19 C 0.31861 0.12268 0.28721 0.0
C20 C 0.33564 0.11673 0.31613 0.0
C21 C 0.35621 0.12367 0.32116 0.0
C22 C 0.35866 0.13661 0.29796 0.0
H23 H 0.3092 0.13996 0.24098 0.0
O24 O 0.31622 0.17959 0.34956 0.0
O25 O 0.34193 0.16987 0.30172 0.0
O26 O 0.30743 0.18251 0.24673 0.0
O27 O 0.32261 0.16311 0.21257 0.0
C28 C 0.37453 0.11811 0.34741 0.0
C29 C 0.39491 0.12553 0.34966 0.0
H30 H 0.43146 0.14281 0.3467 0.0
H31 H 0.43298 0.16521 0.30112 0.0
H32 H 0.30278 0.11734 0.28289 0.0
H33 H 0.33287 0.10674 0.33362 0.0
H34 H 0.37322 0.10809 0.36553 0.0
H35 H 0.40898 0.12107 0.369 0.0
Mn36 Mn 0.11069 0.91286 0.64435 0.0
Mn37 Mn 0.11808 0.93333 0.54502 0.0
C38 C 0.13139 0.9335 0.65049 0.0
C39 C 0.08957 0.90697 0.71378 0.0
C40 C 0.14142 0.90549 0.55834 0.0
O41 O 0.08584 0.90636 0.59746 0.0
O42 O 0.09085 0.92178 0.53549 0.0
C43 C 0.07836 0.95162 0.55038 0.0
N44 N 0.10106 0.95006 0.55097 0.0
C45 C 0.10674 0.97482 0.54734 0.0
C46 C 0.0834 0.97668 0.5455 0.0
C47 C 0.06916 0.96505 0.54789 0.0
C48 C 0.11493 0.96119 0.5502 0.0
H49 H 0.06738 0.94267 0.55069 0.0
C50 C 0.08038 0.91161 0.55578 0.0
O51 O 0.10301 0.89798 0.69351 0.0
O52 O 0.08819 0.91911 0.69321 0.0
N53 N 0.14397 0.94501 0.55012 0.0
C54 C 0.16605 0.94133 0.5487 0.0
C55 C 0.18256 0.95177 0.54804 0.0
C56 C 0.17618 0.96586 0.54793 0.0
C57 C 0.15333 0.96938 0.54844 0.0
C58 C 0.13766 0.95853 0.54998 0.0
H59 H 0.17101 0.93051 0.54798 0.0
O60 O 0.13437 0.92346 0.68188 0.0
O61 O 0.11686 0.93087 0.61618 0.0
O62 O 0.13426 0.90281 0.60167 0.0
O63 O 0.13632 0.91657 0.53493 0.0
C64 C 0.14548 0.9832 0.54628 0.0
C65 C 0.12222 0.98591 0.54492 0.0
H66 H 0.07617 0.98694 0.54141 0.0
H67 H 0.05114 0.96643 0.54663 0.0
H68 H 0.20014 0.94896 0.54725 0.0
H69 H 0.18895 0.97389 0.54695 0.0
H70 H 0.15719 0.99182 0.54464 0.0
H71 H 0.11644 0.99655 0.54155 0.0
Mn72 Mn 0.1761 0.81036 0.78883 0.0
Mn73 Mn 0.15634 0.84082 0.74685 0.0
C74 C 0.18615 0.83038 0.82858 0.0
C75 C 0.17012 0.79019 0.83511 0.0
C76 C 0.19776 0.82825 0.7061 0.0
O77 O 0.15189 0.80428 0.74187 0.0
O78 O 0.14544 0.82478 0.70573 0.0
C79 C 0.10948 0.83501 0.77651 0.0
N80 N 0.12817 0.84313 0.77941 0.0
C81 C 0.10891 0.85998 0.82944 0.0
C82 C 0.08945 0.8518 0.82707 0.0
C83 C 0.08979 0.8392 0.80076 0.0
C84 C 0.12818 0.85511 0.80559 0.0
H85 H 0.1095 0.82547 0.75551 0.0
C86 C 0.14358 0.81152 0.70748 0.0
O87 O 0.18451 0.79032 0.79904 0.0
O88 O 0.15971 0.80173 0.8443 0.0
N89 N 0.16526 0.85746 0.78023 0.0
C90 C 0.18464 0.86484 0.77476 0.0
C91 C 0.18716 0.87761 0.79936 0.0
C92 C 0.16932 0.88299 0.82732 0.0
C93 C 0.14909 0.87557 0.83014 0.0
C94 C 0.14781 0.86269 0.80604 0.0
H95 H 0.19817 0.8609 0.75222 0.0
O96 O 0.19734 0.81894 0.83489 0.0
O97 O 0.16784 0.82956 0.80178 0.0
O98 O 0.19614 0.81656 0.72925 0.0
O99 O 0.18507 0.83876 0.71384 0.0
C100 C 0.12988 0.8807 0.85432 0.0
C101 C 0.10978 0.87296 0.8535 0.0
H102 H 0.07415 0.8551 0.84509 0.0
H103 H 0.07483 0.83284 0.79863 0.0
H104 H 0.20267 0.8834 0.79615 0.0
H105 H 0.17116 0.89297 0.8455 0.0
H106 H 0.13022 0.89071 0.87269 0.0
H107 H 0.0949 0.87721 0.87041 0.0
Mn108 Mn 0.38387 0.09066 0.15092 0.0
Mn109 Mn 0.37241 0.07159 0.0495 0.0
C110 C 0.36294 0.07026 0.15779 0.0
C111 C 0.40749 0.09584 0.21691 0.0
C112 C 0.35111 0.09969 0.07103 0.0
O113 O 0.40728 0.09723 0.1011 0.0
O114 O 0.40025 0.08242 0.03803 0.0
C115 C 0.41058 0.05189 0.04683 0.0
N116 N 0.38807 0.05424 0.04903 0.0
C117 C 0.38015 0.02967 0.0463 0.0
C118 C 0.40326 0.02697 0.04413 0.0
C119 C 0.41854 0.03813 0.04447 0.0
C120 C 0.37322 0.04359 0.04841 0.0
H121 H 0.42235 0.06045 0.04697 0.0
C122 C 0.4116 0.0922 0.05847 0.0
O123 O 0.39365 0.10507 0.19962 0.0
O124 O 0.40777 0.08375 0.19563 0.0
N125 N 0.34583 0.06068 0.05708 0.0
C126 C 0.32427 0.06506 0.06329 0.0
C127 C 0.30693 0.05519 0.06527 0.0
C128 C 0.31194 0.04095 0.06072 0.0
C129 C 0.33429 0.03669 0.05498 0.0
C130 C 0.35084 0.047 0.05296 0.0
H131 H 0.32036 0.07601 0.06653 0.0
O132 O 0.36115 0.08002 0.19079 0.0
O133 O 0.37618 0.0731 0.1211 0.0
O134 O 0.35928 0.10149 0.11399 0.0
O135 O 0.35529 0.08901 0.0447 0.0
C136 C 0.34082 0.02261 0.05154 0.0
C137 C 0.36375 0.0191 0.04746 0.0
H138 H 0.40948 0.01638 0.04258 0.0
H139 H 0.43639 0.03613 0.04291 0.0
H140 H 0.28973 0.05855 0.06998 0.0
H141 H 0.29847 0.03341 0.06166 0.0
H142 H 0.32837 0.0144 0.05252 0.0
H143 H 0.36859 0.00824 0.04573 0.0
Mn144 Mn 0.32677 0.80843 0.21726 0.0
Mn145 Mn 0.3476 0.83797 0.26731 0.0
C146 C 0.32233 0.8288 0.17485 0.0
C147 C 0.33473 0.78796 0.17389 0.0
C148 C 0.30189 0.82684 0.29352 0.0
O149 O 0.3448 0.80151 0.27469 0.0
O150 O 0.35729 0.82143 0.30755 0.0
C151 C 0.39492 0.83172 0.24267 0.0
N152 N 0.3766 0.84012 0.23821 0.0
C153 C 0.39678 0.85601 0.1859 0.0
C154 C 0.41588 0.84757 0.19009 0.0
C155 C 0.41492 0.83535 0.2185 0.0
C156 C 0.37726 0.8518 0.21046 0.0
H157 H 0.39428 0.82234 0.26459 0.0
C158 C 0.35529 0.80814 0.30785 0.0
O159 O 0.31726 0.78883 0.20245 0.0
O160 O 0.34738 0.79888 0.17072 0.0
N161 N 0.34018 0.85503 0.23462 0.0
C162 C 0.32153 0.86308 0.24032 0.0
C163 C 0.31973 0.87564 0.21401 0.0
C164 C 0.33769 0.88025 0.18488 0.0
C165 C 0.35744 0.87236 0.18286 0.0
C166 C 0.35799 0.8597 0.20857 0.0
H167 H 0.30789 0.85974 0.26375 0.0
O168 O 0.31163 0.81765 0.16192 0.0
O169 O 0.33754 0.8273 0.20955 0.0
O170 O 0.30243 0.81586 0.26607 0.0
O171 O 0.31764 0.83592 0.29584 0.0
C172 C 0.3768 0.87673 0.15747 0.0
C173 C 0.39643 0.86854 0.15891 0.0
H174 H 0.43139 0.8504 0.17185 0.0
H175 H 0.42959 0.82877 0.22194 0.0
H176 H 0.30459 0.88177 0.21615 0.0
H177 H 0.33634 0.89004 0.16519 0.0
H178 H 0.37688 0.88649 0.13745 0.0
H179 H 0.41129 0.87206 0.13979 0.0
Mn180 Mn 0.39013 0.91018 0.34873 0.0
Mn181 Mn 0.37489 0.9274 0.45213 0.0
C182 C 0.3687 0.93028 0.34241 0.0
C183 C 0.41514 0.90575 0.28473 0.0
C184 C 0.35522 0.89968 0.42114 0.0
O185 O 0.41234 0.90319 0.40049 0.0
O186 O 0.40269 0.91663 0.46575 0.0
C187 C 0.41223 0.9474 0.46491 0.0
N188 N 0.3899 0.94486 0.45913 0.0
C189 C 0.38117 0.96928 0.46536 0.0
C190 C 0.40408 0.97216 0.47144 0.0
C191 C 0.41967 0.96117 0.47117 0.0
C192 C 0.37471 0.95534 0.45995 0.0
H193 H 0.42424 0.93898 0.46453 0.0
C194 C 0.41509 0.90745 0.44476 0.0
O195 O 0.40102 0.89637 0.29956 0.0
O196 O 0.41505 0.91763 0.30769 0.0
N197 N 0.34825 0.93819 0.44274 0.0
C198 C 0.32716 0.93375 0.43126 0.0
C199 C 0.30973 0.94353 0.42716 0.0
C200 C 0.31417 0.95774 0.43485 0.0
C201 C 0.33602 0.96205 0.44659 0.0
C202 C 0.35266 0.95181 0.4507 0.0
H203 H 0.3237 0.92285 0.4251 0.0
O204 O 0.36828 0.92094 0.30772 0.0
O205 O 0.38106 0.92728 0.38061 0.0
O206 O 0.36488 0.8987 0.37958 0.0
O207 O 0.35818 0.90977 0.45082 0.0
C208 C 0.34205 0.97612 0.4532 0.0
C209 C 0.3646 0.97973 0.46263 0.0
H210 H 0.40993 0.98278 0.47562 0.0
H211 H 0.43738 0.96332 0.47557 0.0
H212 H 0.29293 0.94012 0.41795 0.0
H213 H 0.30072 0.96526 0.43119 0.0
H214 H 0.32955 0.98427 0.45024 0.0
H215 H 0.3691 0.99061 0.46663 0.0
Mn216 Mn 0.17189 0.19493 0.70724 0.0
Mn217 Mn 0.15642 0.16361 0.75276 0.0
C218 C 0.17898 0.17544 0.66065 0.0
C219 C 0.161 0.21542 0.66809 0.0
C220 C 0.20014 0.17753 0.78019 0.0
O221 O 0.1524 0.1999 0.76488 0.0
O222 O 0.14305 0.17891 0.79427 0.0
C223 C 0.10851 0.16667 0.72582 0.0
N224 N 0.12824 0.15958 0.72214 0.0
C225 C 0.11192 0.14308 0.66573 0.0
C226 C 0.09144 0.15022 0.66891 0.0
C227 C 0.08973 0.16205 0.6991 0.0
C228 C 0.13013 0.14828 0.69271 0.0
H229 H 0.10712 0.17581 0.74879 0.0
C230 C 0.1423 0.19225 0.79575 0.0
O231 O 0.17836 0.21515 0.69715 0.0
O232 O 0.15021 0.20383 0.66187 0.0
N233 N 0.16731 0.14752 0.71881 0.0
C234 C 0.18711 0.14068 0.72577 0.0
C235 C 0.19135 0.12834 0.69963 0.0
C236 C 0.17477 0.12279 0.66851 0.0
C237 C 0.15392 0.12947 0.66467 0.0
C238 C 0.15077 0.14182 0.69128 0.0
H239 H 0.19969 0.14473 0.75059 0.0
O240 O 0.18833 0.18727 0.65037 0.0
O241 O 0.16414 0.1756 0.69635 0.0
O242 O 0.19735 0.18872 0.75489 0.0
O243 O 0.18599 0.16749 0.7823 0.0
C244 C 0.13589 0.12411 0.63688 0.0
C245 C 0.11493 0.13095 0.63722 0.0
H246 H 0.07691 0.14671 0.64836 0.0
H247 H 0.07398 0.16761 0.70174 0.0
H248 H 0.20727 0.12304 0.70385 0.0
H249 H 0.17795 0.11316 0.64908 0.0
H250 H 0.13787 0.11462 0.61571 0.0
H251 H 0.10113 0.12667 0.61605 0.0
Mn252 Mn 0.11534 0.09184 0.85431 0.0
Mn253 Mn 0.12899 0.07362 0.9564 0.0
C254 C 0.1372 0.07178 0.84872 0.0
C255 C 0.09163 0.09626 0.78797 0.0
C256 C 0.14945 0.10149 0.93081 0.0
O257 O 0.09189 0.09836 0.90389 0.0
O258 O 0.10197 0.08514 0.96921 0.0
C259 C 0.08955 0.05493 0.96151 0.0
N260 N 0.1122 0.05669 0.95915 0.0
C261 C 0.11841 0.03194 0.96165 0.0
C262 C 0.09516 0.02985 0.96434 0.0
C263 C 0.08067 0.0414 0.96388 0.0
C264 C 0.1263 0.04566 0.95914 0.0
H265 H 0.07834 0.06378 0.96117 0.0
C266 C 0.08934 0.09422 0.94833 0.0
O267 O 0.10517 0.10576 0.80459 0.0
O268 O 0.09166 0.08432 0.81039 0.0
N269 N 0.15471 0.06197 0.94782 0.0
C270 C 0.17642 0.06573 0.93947 0.0
C271 C 0.19299 0.05538 0.93612 0.0
C272 C 0.18707 0.0413 0.94163 0.0
C273 C 0.16458 0.03769 0.94993 0.0
C274 C 0.14883 0.04846 0.95304 0.0
H275 H 0.18101 0.07655 0.93525 0.0
O276 O 0.1385 0.08135 0.81496 0.0
O277 O 0.12401 0.07463 0.88533 0.0
O278 O 0.1391 0.10337 0.89034 0.0
O279 O 0.1473 0.09069 0.95766 0.0
C280 C 0.15712 0.02382 0.95455 0.0
C281 C 0.13404 0.02094 0.96001 0.0
H282 H 0.08823 0.01943 0.96596 0.0
H283 H 0.0627 0.03984 0.965 0.0
H284 H 0.21028 0.05824 0.92937 0.0
H285 H 0.19991 0.03335 0.93904 0.0
H286 H 0.16893 0.01528 0.95347 0.0
H287 H 0.12848 0.01022 0.9623 0.0
Mn288 Mn 0.66521 0.81272 0.70537 0.0
Mn289 Mn 0.64599 0.843 0.75182 0.0
C290 C 0.67243 0.8327 0.66336 0.0
C291 C 0.65704 0.79238 0.66181 0.0
C292 C 0.68981 0.83068 0.78368 0.0
O293 O 0.64473 0.80657 0.75944 0.0
O294 O 0.63601 0.82701 0.79416 0.0
C295 C 0.59897 0.83671 0.72455 0.0
N296 N 0.6174 0.84501 0.72056 0.0
C297 C 0.59894 0.85967 0.66101 0.0
C298 C 0.57976 0.85127 0.6645 0.0
C299 C 0.57977 0.83975 0.69648 0.0
C300 C 0.61761 0.85606 0.68965 0.0
H301 H 0.59898 0.82779 0.74882 0.0
C302 C 0.63644 0.81369 0.79416 0.0
O303 O 0.67343 0.79278 0.69351 0.0
O304 O 0.64572 0.80376 0.6555 0.0
N305 N 0.65404 0.85965 0.71747 0.0
C306 C 0.67231 0.86791 0.72489 0.0
C307 C 0.67471 0.8802 0.69724 0.0
C308 C 0.65775 0.88419 0.66411 0.0
C309 C 0.63825 0.87609 0.66015 0.0
C310 C 0.63696 0.86389 0.68835 0.0
H311 H 0.68513 0.86493 0.751 0.0
O312 O 0.68306 0.82132 0.65286 0.0
O313 O 0.65615 0.83175 0.69567 0.0
O314 O 0.68826 0.81939 0.75817 0.0
O315 O 0.67568 0.84078 0.78214 0.0
C316 C 0.61978 0.87983 0.63053 0.0
C317 C 0.6002 0.87157 0.63065 0.0
H318 H 0.5649 0.85361 0.64301 0.0
H319 H 0.56502 0.83323 0.6994 0.0
H320 H 0.68953 0.88659 0.70156 0.0
H321 H 0.6596 0.8937 0.643 0.0
H322 H 0.62033 0.88916 0.60807 0.0
H323 H 0.58604 0.87461 0.60804 0.0
Mn324 Mn 0.88946 0.08907 0.3551 0.0
Mn325 Mn 0.87831 0.06853 0.45219 0.0
C326 C 0.86899 0.06874 0.34358 0.0
C327 C 0.91436 0.09566 0.29371 0.0
C328 C 0.85724 0.09696 0.43496 0.0
O329 O 0.91146 0.09548 0.40846 0.0
O330 O 0.90729 0.07809 0.4639 0.0
C331 C 0.91459 0.04749 0.44909 0.0
N332 N 0.89231 0.05067 0.44848 0.0
C333 C 0.88217 0.02641 0.44691 0.0
C334 C 0.90499 0.02287 0.44763 0.0
C335 C 0.92127 0.03346 0.44857 0.0
C336 C 0.87651 0.04057 0.44768 0.0
H337 H 0.92713 0.0556 0.44973 0.0
C338 C 0.91757 0.08884 0.44714 0.0
O339 O 0.89914 0.10424 0.30952 0.0
O340 O 0.91493 0.08331 0.31315 0.0
N341 N 0.85066 0.0587 0.44339 0.0
C342 C 0.8295 0.06388 0.43821 0.0
C343 C 0.81131 0.05465 0.43399 0.0
C344 C 0.81506 0.04021 0.4355 0.0
C345 C 0.837 0.03514 0.44077 0.0
C346 C 0.85445 0.04482 0.44458 0.0
H347 H 0.8265 0.07496 0.43723 0.0
O348 O 0.868 0.07871 0.31128 0.0
O349 O 0.88191 0.07108 0.3812 0.0
O350 O 0.8637 0.09869 0.39073 0.0
O351 O 0.86282 0.08649 0.46118 0.0
C352 C 0.84226 0.02084 0.44185 0.0
C353 C 0.86482 0.01647 0.44457 0.0
H354 H 0.91021 0.01206 0.44698 0.0
H355 H 0.93892 0.03081 0.44889 0.0
H356 H 0.79445 0.05865 0.42973 0.0
H357 H 0.801 0.03311 0.43218 0.0
H358 H 0.82908 0.01314 0.44053 0.0
H359 H 0.86863 0.00544 0.44438 0.0
Mn360 Mn 0.8237 0.19173 0.22254 0.0
Mn361 Mn 0.83875 0.16016 0.26656 0.0
C362 C 0.81597 0.17248 0.17592 0.0
C363 C 0.83502 0.21215 0.18321 0.0
C364 C 0.79552 0.17402 0.29487 0.0
O365 O 0.84275 0.19651 0.28134 0.0
O366 O 0.85072 0.17525 0.31075 0.0
C367 C 0.88695 0.16354 0.24308 0.0
N368 N 0.86723 0.1566 0.23671 0.0
C369 C 0.88402 0.14108 0.17758 0.0
C370 C 0.90454 0.14799 0.18373 0.0
C371 C 0.90601 0.15928 0.21662 0.0
C372 C 0.86561 0.1458 0.2049 0.0
H373 H 0.88809 0.17224 0.26819 0.0
C374 C 0.85116 0.18857 0.31375 0.0
O375 O 0.81752 0.212 0.21183 0.0
O376 O 0.84582 0.20055 0.17784 0.0
N377 N 0.82847 0.14432 0.23033 0.0
C378 C 0.80888 0.13719 0.23605 0.0
C379 C 0.80488 0.12527 0.20734 0.0
C380 C 0.82149 0.12045 0.17485 0.0
C381 C 0.84219 0.12736 0.17248 0.0
C382 C 0.84511 0.13924 0.20173 0.0
H383 H 0.79625 0.14075 0.26168 0.0
O384 O 0.8071 0.18441 0.16544 0.0
O385 O 0.83109 0.17243 0.21113 0.0
O386 O 0.79821 0.18531 0.26985 0.0
O387 O 0.80927 0.16376 0.29527 0.0
C388 C 0.86031 0.12265 0.14362 0.0
C389 C 0.88119 0.12955 0.14599 0.0
H390 H 0.91926 0.14463 0.16369 0.0
H391 H 0.92179 0.16466 0.22169 0.0
H392 H 0.7891 0.11976 0.2105 0.0
H393 H 0.81846 0.11117 0.15325 0.0
H394 H 0.8585 0.11357 0.12022 0.0
H395 H 0.89509 0.12572 0.12414 0.0
Mn396 Mn 0.61692 0.91107 0.84482 0.0
Mn397 Mn 0.62389 0.9325 0.94114 0.0
C398 C 0.63909 0.93094 0.83676 0.0
C399 C 0.59557 0.90468 0.77673 0.0
C400 C 0.64368 0.90326 0.93503 0.0
O401 O 0.59154 0.90586 0.89227 0.0
O402 O 0.59385 0.92374 0.94648 0.0
C403 C 0.58955 0.95404 0.92094 0.0
N404 N 0.61141 0.95048 0.92837 0.0
C405 C 0.62322 0.97434 0.92011 0.0
C406 C 0.60081 0.97827 0.91278 0.0
C407 C 0.58391 0.96806 0.91301 0.0
C408 C 0.62782 0.9602 0.92785 0.0
H409 H 0.57655 0.94621 0.92077 0.0
C410 C 0.58397 0.913 0.92848 0.0
O411 O 0.60839 0.89567 0.79877 0.0
O412 O 0.59509 0.91721 0.79445 0.0
N413 N 0.65244 0.94161 0.93826 0.0
C414 C 0.67335 0.93596 0.94203 0.0
C415 C 0.69223 0.9447 0.94028 0.0
C416 C 0.68941 0.95915 0.93486 0.0
C417 C 0.66773 0.96472 0.93106 0.0
C418 C 0.64956 0.9555 0.93311 0.0
H419 H 0.67563 0.92487 0.94629 0.0
O420 O 0.64158 0.92061 0.80628 0.0
O421 O 0.62423 0.92895 0.87071 0.0
O422 O 0.63936 0.90119 0.8896 0.0
O423 O 0.63769 0.91427 0.9581 0.0
C424 C 0.66346 0.97904 0.92454 0.0
C425 C 0.64122 0.98384 0.91909 0.0
H426 H 0.59641 0.98907 0.90643 0.0
H427 H 0.56659 0.971 0.90701 0.0
H428 H 0.70891 0.94031 0.94311 0.0
H429 H 0.70402 0.96585 0.93331 0.0
H430 H 0.67718 0.98643 0.92293 0.0
H431 H 0.63816 0.99485 0.91336 0.0
Mn432 Mn 0.66945 0.18849 0.78331 0.0
Mn433 Mn 0.64905 0.15816 0.74 0.0
C434 C 0.67548 0.16889 0.82862 0.0
C435 C 0.6606 0.20923 0.82235 0.0
C436 C 0.69344 0.17011 0.70701 0.0
O437 O 0.65042 0.19422 0.72613 0.0
O438 O 0.63618 0.17396 0.69997 0.0
C439 C 0.60267 0.16306 0.77474 0.0
N440 N 0.62172 0.15523 0.77531 0.0
C441 C 0.60691 0.14041 0.83903 0.0
C442 C 0.58703 0.14823 0.83882 0.0
C443 C 0.58489 0.15958 0.80642 0.0
C444 C 0.62392 0.14426 0.80621 0.0
H445 H 0.60115 0.17196 0.75059 0.0
C446 C 0.63838 0.18722 0.69679 0.0
O447 O 0.67801 0.20836 0.79359 0.0
O448 O 0.6487 0.19811 0.82881 0.0
N449 N 0.65967 0.14185 0.77303 0.0
C450 C 0.67911 0.13469 0.76539 0.0
C451 C 0.6836 0.12274 0.7936 0.0
C452 C 0.66786 0.11813 0.82854 0.0
C453 C 0.64753 0.12533 0.83406 0.0
C454 C 0.6439 0.13706 0.80449 0.0
H455 H 0.69125 0.13823 0.7386 0.0
O456 O 0.68584 0.18037 0.8391 0.0
O457 O 0.6598 0.16969 0.79476 0.0
O458 O 0.69347 0.18102 0.7346 0.0
O459 O 0.67763 0.16105 0.7058 0.0
C460 C 0.63078 0.12137 0.8679 0.0
C461 C 0.61061 0.12903 0.87083 0.0
H462 H 0.57334 0.14563 0.86341 0.0
H463 H 0.56965 0.16572 0.80621 0.0
H464 H 0.6992 0.11714 0.78868 0.0
H465 H 0.67147 0.10899 0.85057 0.0
H466 H 0.63325 0.11248 0.89189 0.0
H467 H 0.59802 0.12602 0.8975 0.0
Mn468 Mn 0.6106 0.08995 0.65388 0.0
Mn469 Mn 0.62306 0.07024 0.55654 0.0
C470 C 0.63256 0.07017 0.66496 0.0
C471 C 0.58538 0.09559 0.71561 0.0
C472 C 0.63928 0.10002 0.57218 0.0
O473 O 0.5881 0.09555 0.60009 0.0
O474 O 0.59217 0.07743 0.54726 0.0
C475 C 0.5918 0.04634 0.56127 0.0
N476 N 0.61316 0.05137 0.56183 0.0
C477 C 0.62851 0.02822 0.56614 0.0
C478 C 0.60667 0.02278 0.56576 0.0
C479 C 0.58824 0.03189 0.5634 0.0
C480 C 0.63102 0.0427 0.56387 0.0
H481 H 0.57761 0.05331 0.55935 0.0
C482 C 0.58172 0.08824 0.56307 0.0
O483 O 0.59978 0.10467 0.69962 0.0
O484 O 0.5856 0.08328 0.69591 0.0
N485 N 0.65272 0.06286 0.56424 0.0
C486 C 0.67261 0.06981 0.56753 0.0
C487 C 0.69264 0.06224 0.57263 0.0
C488 C 0.69204 0.04762 0.57406 0.0
C489 C 0.67138 0.04069 0.57055 0.0
C490 C 0.65196 0.04879 0.56564 0.0
H491 H 0.67323 0.08103 0.56637 0.0
O492 O 0.63294 0.08007 0.69761 0.0
O493 O 0.61962 0.07243 0.62743 0.0
O494 O 0.63531 0.10061 0.61815 0.0
O495 O 0.63418 0.08947 0.54578 0.0
C496 C 0.66927 0.02608 0.57221 0.0
C497 C 0.64787 0.01985 0.56955 0.0
H498 H 0.60386 0.01164 0.56767 0.0
H499 H 0.57133 0.02777 0.5632 0.0
H500 H 0.7085 0.06767 0.57541 0.0
H501 H 0.70752 0.04182 0.57807 0.0
H502 H 0.684 0.01954 0.57576 0.0
H503 H 0.64646 0.0086 0.57085 0.0
Mn504 Mn 0.8249 0.80926 0.28754 0.0
Mn505 Mn 0.84097 0.84042 0.24292 0.0
C506 C 0.81209 0.82895 0.3252 0.0
C507 C 0.83422 0.79012 0.33643 0.0
C508 C 0.80134 0.82498 0.202 0.0
O509 O 0.8494 0.80417 0.24007 0.0
O510 O 0.85655 0.82499 0.20671 0.0
C511 C 0.887 0.83827 0.28329 0.0
N512 N 0.86703 0.84513 0.2805 0.0
C513 C 0.87933 0.86227 0.33938 0.0
C514 C 0.90006 0.85541 0.34275 0.0
C515 C 0.90391 0.84338 0.31453 0.0
C516 C 0.86315 0.85671 0.30755 0.0
H517 H 0.88995 0.82896 0.26197 0.0
C518 C 0.85889 0.81174 0.20806 0.0
O519 O 0.81997 0.78886 0.30033 0.0
O520 O 0.84286 0.80229 0.34375 0.0
N521 N 0.8276 0.85653 0.27208 0.0
C522 C 0.8073 0.8624 0.2619 0.0
C523 C 0.80095 0.87468 0.28629 0.0
C524 C 0.81577 0.88099 0.31983 0.0
C525 C 0.83698 0.87508 0.32803 0.0
C526 C 0.84237 0.86285 0.30257 0.0
H527 H 0.79592 0.8576 0.23594 0.0
O528 O 0.80279 0.81699 0.33367 0.0
O529 O 0.83017 0.82888 0.2977 0.0
O530 O 0.80348 0.81391 0.22857 0.0
O531 O 0.81393 0.83575 0.20566 0.0
C532 C 0.85297 0.88084 0.36045 0.0
C533 C 0.87407 0.87438 0.36639 0.0
H534 H 0.91313 0.85928 0.36692 0.0
H535 H 0.91985 0.83802 0.31701 0.0
H536 H 0.78466 0.87927 0.27928 0.0
H537 H 0.81079 0.89044 0.33873 0.0
H538 H 0.84923 0.89023 0.38096 0.0
H539 H 0.8862 0.87889 0.39148 0.0
Mn540 Mn 0.88629 0.90993 0.14292 0.0
Mn541 Mn 0.88049 0.92916 0.04014 0.0
C542 C 0.8697 0.93187 0.14666 0.0
C543 C 0.9094 0.90336 0.20838 0.0
C544 C 0.85252 0.90345 0.06244 0.0
O545 O 0.90771 0.90077 0.09413 0.0
O546 O 0.90644 0.91644 0.03178 0.0
C547 C 0.92187 0.94616 0.03997 0.0
N548 N 0.89907 0.94535 0.04132 0.0
C549 C 0.89545 0.97017 0.03245 0.0
C550 C 0.91891 0.97129 0.03084 0.0
C551 C 0.93217 0.95925 0.03514 0.0
C552 C 0.88617 0.9569 0.03848 0.0
H553 H 0.93207 0.93687 0.04186 0.0
C554 C 0.91441 0.90553 0.05273 0.0
O555 O 0.89289 0.89547 0.19426 0.0
O556 O 0.91218 0.91502 0.18514 0.0
N557 N 0.85577 0.94181 0.04437 0.0
C558 C 0.83338 0.93892 0.0461 0.0
C559 C 0.81782 0.94989 0.04423 0.0
C560 C 0.8254 0.96368 0.03958 0.0
C561 C 0.8485 0.96636 0.0371 0.0
C562 C 0.86324 0.95503 0.0402 0.0
H563 H 0.82741 0.92834 0.04881 0.0
O564 O 0.86637 0.92286 0.1816 0.0
O565 O 0.88266 0.92771 0.11138 0.0
O566 O 0.85921 0.90132 0.10657 0.0
O567 O 0.86041 0.91309 0.03518 0.0
C568 C 0.85746 0.97978 0.03042 0.0
C569 C 0.88087 0.98163 0.02709 0.0
H570 H 0.92691 0.98133 0.02609 0.0
H571 H 0.95028 0.96003 0.03385 0.0
H572 H 0.80001 0.94771 0.04589 0.0
H573 H 0.81335 0.9721 0.03755 0.0
H574 H 0.8465 0.98873 0.02685 0.0
H575 H 0.88741 0.9919 0.01959 0.0
Mn576 Mn 0.82119 0.69216 0.79685 0.0
Mn577 Mn 0.84312 0.66277 0.74908 0.0
C578 C 0.81482 0.67174 0.83724 0.0
C579 C 0.82892 0.71215 0.84295 0.0
C580 C 0.79808 0.67412 0.71679 0.0
O581 O 0.84144 0.69916 0.74371 0.0
O582 O 0.85451 0.67943 0.71105 0.0
C583 C 0.88951 0.66883 0.78228 0.0
N584 N 0.87099 0.66051 0.78336 0.0
C585 C 0.88832 0.64516 0.84238 0.0
C586 C 0.9076 0.65353 0.84172 0.0
C587 C 0.90819 0.66541 0.81151 0.0
C588 C 0.87021 0.6491 0.81252 0.0
H589 H 0.89002 0.67802 0.75935 0.0
C590 C 0.85283 0.69275 0.71163 0.0
O591 O 0.81247 0.712 0.8113 0.0
O592 O 0.8404 0.7008 0.84753 0.0
N593 N 0.83451 0.64567 0.78005 0.0
C594 C 0.81651 0.63742 0.7697 0.0
C595 C 0.81363 0.62486 0.79551 0.0
C596 C 0.82981 0.62061 0.83003 0.0
C597 C 0.84911 0.62873 0.83711 0.0
C598 C 0.85093 0.6412 0.81059 0.0
H599 H 0.80419 0.64058 0.7428 0.0
O600 O 0.80369 0.68287 0.84856 0.0
O601 O 0.83118 0.67326 0.80532 0.0
O602 O 0.7985 0.68527 0.74345 0.0
O603 O 0.81386 0.66499 0.71621 0.0
C604 C 0.86689 0.62473 0.86828 0.0
C605 C 0.88644 0.63299 0.87111 0.0
H606 H 0.92207 0.6509 0.86407 0.0
H607 H 0.92302 0.67192 0.81079 0.0
H608 H 0.799 0.61846 0.78869 0.0
H609 H 0.82759 0.6109 0.84976 0.0
H610 H 0.86587 0.61522 0.88962 0.0
H611 H 0.90005 0.62976 0.89498 0.0
Mn612 Mn 0.60642 0.41359 0.16234 0.0
Mn613 Mn 0.62133 0.43278 0.06363 0.0
C614 C 0.62707 0.43393 0.17252 0.0
C615 C 0.58093 0.40788 0.22394 0.0
C616 C 0.64211 0.40476 0.08857 0.0
O617 O 0.58508 0.4068 0.10836 0.0
O618 O 0.59429 0.42164 0.04689 0.0
C619 C 0.58259 0.45196 0.05671 0.0
N620 N 0.60508 0.44992 0.062 0.0
C621 C 0.61201 0.4746 0.06334 0.0
C622 C 0.58893 0.47698 0.05772 0.0
C623 C 0.57416 0.4656 0.05454 0.0
C624 C 0.61944 0.46078 0.06523 0.0
H625 H 0.57121 0.44323 0.05415 0.0
C626 C 0.58236 0.41174 0.06494 0.0
O627 O 0.59594 0.39903 0.20916 0.0
O628 O 0.58062 0.42 0.2027 0.0
N629 N 0.64723 0.44403 0.07598 0.0
C630 C 0.66873 0.43993 0.08494 0.0
C631 C 0.68549 0.45005 0.0914 0.0
C632 C 0.67999 0.46426 0.08824 0.0
C633 C 0.65775 0.46821 0.07878 0.0
C634 C 0.64177 0.45766 0.07271 0.0
H635 H 0.67302 0.42902 0.08738 0.0
O636 O 0.62752 0.42432 0.2062 0.0
O637 O 0.61494 0.43116 0.13404 0.0
O638 O 0.63216 0.40305 0.12963 0.0
O639 O 0.63919 0.41546 0.06138 0.0
C640 C 0.65074 0.48221 0.07583 0.0
C641 C 0.62789 0.4854 0.06797 0.0
H642 H 0.58235 0.48749 0.05619 0.0
H643 H 0.55631 0.46735 0.05039 0.0
H644 H 0.70261 0.44692 0.09885 0.0
H645 H 0.69295 0.47204 0.09347 0.0
H646 H 0.66272 0.4906 0.08029 0.0
H647 H 0.62267 0.4962 0.06647 0.0
Mn648 Mn 0.68011 0.30695 0.29069 0.0
Mn649 Mn 0.65545 0.33633 0.24836 0.0
C650 C 0.67966 0.32609 0.3405 0.0
C651 C 0.67493 0.28503 0.32641 0.0
C652 C 0.70396 0.32952 0.22755 0.0
O653 O 0.66478 0.30049 0.22897 0.0
O654 O 0.65092 0.32061 0.20073 0.0
C655 C 0.6096 0.32508 0.26233 0.0
N656 N 0.6254 0.33492 0.27271 0.0
C657 C 0.60036 0.34663 0.32865 0.0
C658 C 0.58383 0.33665 0.31843 0.0
C659 C 0.5885 0.32581 0.28521 0.0
C660 C 0.62123 0.34523 0.30539 0.0
H661 H 0.61306 0.31673 0.23684 0.0
C662 C 0.65461 0.30754 0.19646 0.0
O663 O 0.69283 0.28775 0.30071 0.0
O664 O 0.66027 0.29487 0.33092 0.0
N665 N 0.65742 0.35282 0.28783 0.0
C666 C 0.67272 0.36331 0.28401 0.0
C667 C 0.67029 0.37532 0.31307 0.0
C668 C 0.65128 0.37686 0.34309 0.0
C669 C 0.63449 0.36664 0.34216 0.0
C670 C 0.63812 0.35477 0.31312 0.0
H671 H 0.68687 0.36239 0.25944 0.0
O672 O 0.69214 0.31546 0.3508 0.0
O673 O 0.66576 0.32467 0.30331 0.0
O674 O 0.704 0.31741 0.24829 0.0
O675 O 0.6868 0.33765 0.22609 0.0
C676 C 0.6138 0.36812 0.36674 0.0
C677 C 0.5968 0.35807 0.36023 0.0
H678 H 0.56745 0.33726 0.33557 0.0
H679 H 0.57584 0.31806 0.27712 0.0
H680 H 0.68284 0.38345 0.31168 0.0
H681 H 0.64925 0.38624 0.36487 0.0
H682 H 0.61057 0.37714 0.38967 0.0
H683 H 0.58084 0.35942 0.37871 0.0
Mn684 Mn 0.88873 0.58817 0.65467 0.0
Mn685 Mn 0.88312 0.56796 0.5546 0.0
C686 C 0.86818 0.56767 0.66045 0.0
C687 C 0.91096 0.59387 0.72245 0.0
C688 C 0.86146 0.59646 0.56717 0.0
O689 O 0.9128 0.59499 0.6069 0.0
O690 O 0.91267 0.57746 0.55099 0.0
C691 C 0.9187 0.54664 0.5644 0.0
N692 N 0.89655 0.54999 0.56075 0.0
C693 C 0.88596 0.5258 0.55828 0.0
C694 C 0.90864 0.52209 0.56252 0.0
C695 C 0.92507 0.53256 0.56564 0.0
C696 C 0.88062 0.54 0.55727 0.0
H697 H 0.93136 0.55467 0.56654 0.0
C698 C 0.92109 0.58854 0.56993 0.0
O699 O 0.89686 0.60285 0.70427 0.0
O700 O 0.91196 0.5818 0.70127 0.0
N701 N 0.85504 0.5583 0.55571 0.0
C702 C 0.83386 0.56364 0.55522 0.0
C703 C 0.81542 0.55455 0.55362 0.0
C704 C 0.81896 0.5401 0.55224 0.0
C705 C 0.84091 0.53485 0.55322 0.0
C706 C 0.85862 0.54441 0.55497 0.0
H707 H 0.83103 0.57474 0.55586 0.0
O708 O 0.86539 0.57753 0.69266 0.0
O709 O 0.88264 0.57035 0.62598 0.0
O710 O 0.86487 0.59805 0.6132 0.0
O711 O 0.86859 0.58602 0.5427 0.0
C712 C 0.84593 0.52051 0.55272 0.0
C713 C 0.86842 0.51598 0.55562 0.0
H714 H 0.91363 0.51125 0.56361 0.0
H715 H 0.94261 0.52978 0.56885 0.0
H716 H 0.79852 0.55868 0.55311 0.0
H717 H 0.80468 0.53315 0.55048 0.0
H718 H 0.8326 0.51287 0.55054 0.0
H719 H 0.87203 0.50492 0.55608 0.0
Mn720 Mn 0.82869 0.31232 0.73043 0.0
Mn721 Mn 0.85456 0.34177 0.76346 0.0
C722 C 0.82208 0.33199 0.6857 0.0
C723 C 0.83141 0.29133 0.68582 0.0
C724 C 0.81058 0.33374 0.80716 0.0
O725 O 0.85178 0.30544 0.77844 0.0
O726 O 0.86219 0.32603 0.80907 0.0
C727 C 0.89885 0.33076 0.73245 0.0
N728 N 0.88224 0.34043 0.72796 0.0
C729 C 0.90135 0.35154 0.66036 0.0
C730 C 0.91863 0.34169 0.66427 0.0
C731 C 0.91739 0.33127 0.70053 0.0
C732 C 0.88324 0.35045 0.69301 0.0
H733 H 0.89797 0.32269 0.76005 0.0
C734 C 0.86153 0.31273 0.81076 0.0
O735 O 0.81716 0.29254 0.72202 0.0
O736 O 0.84363 0.30208 0.67663 0.0
N737 N 0.84922 0.35809 0.72491 0.0
C738 C 0.83369 0.36825 0.73278 0.0
C739 C 0.83326 0.37998 0.7018 0.0
C740 C 0.84943 0.3814 0.66448 0.0
C741 C 0.86636 0.37134 0.65979 0.0
C742 C 0.86586 0.3599 0.69176 0.0
H743 H 0.82147 0.36725 0.76191 0.0
O744 O 0.80876 0.32137 0.68281 0.0
O745 O 0.84018 0.33039 0.71255 0.0
O746 O 0.81026 0.32137 0.78815 0.0
O747 O 0.8256 0.34293 0.79757 0.0
C748 C 0.88413 0.37247 0.62586 0.0
C749 C 0.9015 0.36248 0.62574 0.0
H750 H 0.933 0.34209 0.63988 0.0
H751 H 0.93067 0.32364 0.70383 0.0
H752 H 0.82056 0.38791 0.7068 0.0
H753 H 0.84913 0.39047 0.64074 0.0
H754 H 0.88479 0.38111 0.60035 0.0
H755 H 0.91516 0.36352 0.59969 0.0
Mn756 Mn 0.88692 0.40664 0.8433 0.0
Mn757 Mn 0.87165 0.42493 0.9441 0.0
C758 C 0.86527 0.42674 0.83479 0.0
C759 C 0.91281 0.40212 0.78115 0.0
C760 C 0.85127 0.39706 0.91563 0.0
O761 O 0.90878 0.39985 0.89551 0.0
O762 O 0.89918 0.41393 0.95887 0.0
C763 C 0.90991 0.44424 0.9563 0.0
N764 N 0.88761 0.44216 0.94808 0.0
C765 C 0.87993 0.46666 0.95598 0.0
C766 C 0.90272 0.46902 0.96543 0.0
C767 C 0.91782 0.45779 0.96507 0.0
C768 C 0.873 0.45293 0.94765 0.0
H769 H 0.9215 0.4356 0.95715 0.0
C770 C 0.91148 0.40452 0.93911 0.0
O771 O 0.89837 0.39275 0.79477 0.0
O772 O 0.91215 0.41403 0.80363 0.0
N773 N 0.84544 0.43617 0.93478 0.0
C774 C 0.82369 0.43201 0.92968 0.0
C775 C 0.80648 0.44201 0.92967 0.0
C776 C 0.81178 0.45618 0.93525 0.0
C777 C 0.83424 0.4602 0.94112 0.0
C778 C 0.85068 0.44976 0.94076 0.0
H779 H 0.81954 0.42119 0.92511 0.0
O780 O 0.86525 0.41717 0.80098 0.0
O781 O 0.87759 0.424 0.8731 0.0
O782 O 0.86182 0.39533 0.87535 0.0
O783 O 0.85393 0.4076 0.94369 0.0
C784 C 0.84092 0.47414 0.94803 0.0
C785 C 0.86374 0.47736 0.95568 0.0
H786 H 0.90883 0.47944 0.97291 0.0
H787 H 0.93547 0.45955 0.9721 0.0
H788 H 0.78918 0.43881 0.92528 0.0
H789 H 0.79847 0.46387 0.93524 0.0
H790 H 0.8286 0.48244 0.94824 0.0
H791 H 0.86865 0.4881 0.96172 0.0
Mn792 Mn 0.66347 0.69178 0.20773 0.0
Mn793 Mn 0.65016 0.66029 0.25505 0.0
C794 C 0.67155 0.67219 0.16276 0.0
C795 C 0.65243 0.71215 0.16746 0.0
C796 C 0.6931 0.67466 0.27951 0.0
O797 O 0.64403 0.69674 0.2657 0.0
O798 O 0.63878 0.67558 0.29851 0.0
C799 C 0.6019 0.66402 0.2334 0.0
N800 N 0.62113 0.65648 0.22854 0.0
C801 C 0.60269 0.6397 0.17675 0.0
C802 C 0.58271 0.64733 0.18087 0.0
C803 C 0.58231 0.65954 0.20934 0.0
C804 C 0.62179 0.64487 0.20045 0.0
H805 H 0.60155 0.67344 0.25511 0.0
C806 C 0.63687 0.68885 0.29963 0.0
O807 O 0.66965 0.71199 0.19685 0.0
O808 O 0.64166 0.70051 0.16174 0.0
N809 N 0.6598 0.64412 0.21982 0.0
C810 C 0.68001 0.63751 0.22241 0.0
C811 C 0.68317 0.62497 0.19668 0.0
C812 C 0.66524 0.61906 0.17028 0.0
C813 C 0.64423 0.62565 0.17052 0.0
C814 C 0.64219 0.63821 0.19641 0.0
H815 H 0.6937 0.64187 0.24352 0.0
O816 O 0.68026 0.68414 0.15153 0.0
O817 O 0.65638 0.67226 0.19776 0.0
O818 O 0.68911 0.68593 0.25547 0.0
O819 O 0.68018 0.66405 0.2809 0.0
C820 C 0.62509 0.62009 0.14719 0.0
C821 C 0.60436 0.62712 0.15034 0.0
H822 H 0.56762 0.64396 0.16217 0.0
H823 H 0.56696 0.66549 0.21269 0.0
H824 H 0.69931 0.6198 0.19756 0.0
H825 H 0.66767 0.60933 0.15079 0.0
H826 H 0.62606 0.61034 0.12718 0.0
H827 H 0.58967 0.62264 0.1333 0.0
Mn828 Mn 0.61475 0.59508 0.33757 0.0
Mn829 Mn 0.63531 0.57658 0.43305 0.0
C830 C 0.6372 0.57563 0.32382 0.0
C831 C 0.58697 0.59891 0.27873 0.0
C832 C 0.65221 0.60539 0.40546 0.0
O833 O 0.59395 0.60054 0.39391 0.0
O834 O 0.60821 0.58701 0.45449 0.0
C835 C 0.59817 0.55652 0.44791 0.0
N836 N 0.62023 0.55907 0.43821 0.0
C837 C 0.6284 0.53454 0.43443 0.0
C838 C 0.60579 0.53166 0.44449 0.0
C839 C 0.59062 0.5427 0.45116 0.0
C840 C 0.63499 0.54853 0.43192 0.0
H841 H 0.58643 0.56497 0.45296 0.0
C842 C 0.59386 0.59585 0.43804 0.0
O843 O 0.60049 0.60883 0.2921 0.0
O844 O 0.58935 0.58693 0.30018 0.0
N845 N 0.66123 0.5659 0.41571 0.0
C846 C 0.6819 0.57047 0.40166 0.0
C847 C 0.6988 0.56072 0.39113 0.0
C848 C 0.69428 0.5464 0.39523 0.0
C849 C 0.67284 0.54195 0.40962 0.0
C850 C 0.6567 0.55215 0.41979 0.0
H851 H 0.68539 0.58146 0.39817 0.0
O852 O 0.63606 0.58545 0.29095 0.0
O853 O 0.62623 0.57799 0.36418 0.0
O854 O 0.63963 0.60718 0.36794 0.0
O855 O 0.65216 0.59428 0.4313 0.0
C856 C 0.66675 0.52781 0.41329 0.0
C857 C 0.64453 0.52411 0.42555 0.0
H858 H 0.59986 0.52101 0.44663 0.0
H859 H 0.57312 0.54055 0.45861 0.0
H860 H 0.71525 0.56423 0.37974 0.0
H861 H 0.70731 0.53891 0.38676 0.0
H862 H 0.67893 0.5197 0.40593 0.0
H863 H 0.63994 0.5132 0.42721 0.0
Mn864 Mn 0.16879 0.31176 0.21763 0.0
Mn865 Mn 0.15468 0.34382 0.25795 0.0
C866 C 0.18091 0.33077 0.17491 0.0
C867 C 0.15904 0.29164 0.17304 0.0
C868 C 0.19527 0.32908 0.29576 0.0
O869 O 0.1452 0.30768 0.26867 0.0
O870 O 0.14187 0.32901 0.30119 0.0
C871 C 0.10689 0.34021 0.23046 0.0
N872 N 0.12662 0.34726 0.22574 0.0
C873 C 0.11014 0.36316 0.16741 0.0
C874 C 0.08972 0.35601 0.17145 0.0
C875 C 0.08809 0.34449 0.20315 0.0
C876 C 0.12841 0.35828 0.195 0.0
H877 H 0.10548 0.33138 0.25487 0.0
C878 C 0.13831 0.31589 0.30198 0.0
O879 O 0.17389 0.29117 0.2082 0.0
O880 O 0.14976 0.30361 0.16487 0.0
N881 N 0.16545 0.35956 0.22172 0.0
C882 C 0.18524 0.36647 0.2274 0.0
C883 C 0.18953 0.37838 0.19885 0.0
C884 C 0.17288 0.38355 0.16709 0.0
C885 C 0.15202 0.37686 0.16461 0.0
C886 C 0.14894 0.36483 0.19305 0.0
H887 H 0.19779 0.36265 0.25272 0.0
O888 O 0.18981 0.31864 0.16755 0.0
O889 O 0.16349 0.33127 0.20428 0.0
O890 O 0.1914 0.31743 0.2735 0.0
O891 O 0.18363 0.34021 0.28994 0.0
C892 C 0.13394 0.3819 0.13621 0.0
C893 C 0.11301 0.37503 0.13754 0.0
H894 H 0.07515 0.35931 0.15059 0.0
H895 H 0.07235 0.33895 0.20664 0.0
H896 H 0.20552 0.38366 0.20157 0.0
H897 H 0.17605 0.39289 0.14584 0.0
H898 H 0.13585 0.39116 0.1138 0.0
H899 H 0.09915 0.37908 0.11601 0.0
Mn900 Mn 0.38434 0.59643 0.83818 0.0
Mn901 Mn 0.36643 0.58016 0.94063 0.0
C902 C 0.36264 0.57643 0.83136 0.0
C903 C 0.41231 0.59963 0.77969 0.0
C904 C 0.34957 0.60854 0.90671 0.0
O905 O 0.40495 0.60375 0.89235 0.0
O906 O 0.395 0.58984 0.95626 0.0
C907 C 0.40146 0.55878 0.9564 0.0
N908 N 0.37959 0.56213 0.94779 0.0
C909 C 0.36879 0.53797 0.94813 0.0
C910 C 0.3912 0.53427 0.95699 0.0
C911 C 0.40759 0.54472 0.96119 0.0
C912 C 0.36363 0.55217 0.94434 0.0
H913 H 0.41412 0.56679 0.95939 0.0
C914 C 0.40742 0.59919 0.93631 0.0
O915 O 0.39764 0.60931 0.78858 0.0
O916 O 0.41058 0.58811 0.80435 0.0
N917 N 0.33897 0.57042 0.92838 0.0
C918 C 0.31851 0.57571 0.91612 0.0
C919 C 0.30042 0.56659 0.90838 0.0
C920 C 0.30357 0.55215 0.91326 0.0
C921 C 0.3248 0.54696 0.92596 0.0
C922 C 0.34214 0.55655 0.93366 0.0
H923 H 0.31605 0.5868 0.91202 0.0
O924 O 0.36357 0.58526 0.7951 0.0
O925 O 0.37388 0.57992 0.87046 0.0
O926 O 0.35861 0.60856 0.86421 0.0
O927 O 0.3519 0.59863 0.93767 0.0
C928 C 0.32953 0.53262 0.93022 0.0
C929 C 0.3515 0.52813 0.9414 0.0
H930 H 0.39604 0.52342 0.96009 0.0
H931 H 0.42493 0.54194 0.96784 0.0
H932 H 0.2841 0.57068 0.89845 0.0
H933 H 0.28963 0.54515 0.90681 0.0
H934 H 0.31648 0.52495 0.92429 0.0
H935 H 0.35501 0.51708 0.94382 0.0
Mn936 Mn 0.32541 0.68629 0.71733 0.0
Mn937 Mn 0.34581 0.65578 0.75774 0.0
C938 C 0.31883 0.66675 0.67199 0.0
C939 C 0.33222 0.70706 0.675 0.0
C940 C 0.30088 0.66612 0.78916 0.0
O941 O 0.34642 0.69219 0.77117 0.0
O942 O 0.35356 0.67136 0.80447 0.0
C943 C 0.3925 0.66441 0.73558 0.0
N944 N 0.37494 0.65559 0.72803 0.0
C945 C 0.39452 0.64397 0.66218 0.0
C946 C 0.41278 0.65294 0.66924 0.0
C947 C 0.41182 0.66316 0.70625 0.0
C948 C 0.37576 0.64569 0.69255 0.0
H949 H 0.39172 0.67241 0.76347 0.0
C950 C 0.35394 0.68468 0.80574 0.0
O951 O 0.31646 0.70637 0.70813 0.0
O952 O 0.34385 0.69592 0.66728 0.0
N953 N 0.34001 0.63961 0.71874 0.0
C954 C 0.32306 0.63021 0.72375 0.0
C955 C 0.32209 0.61868 0.69192 0.0
C956 C 0.33907 0.61667 0.65671 0.0
C957 C 0.35733 0.62588 0.65518 0.0
C958 C 0.35737 0.63712 0.68807 0.0
H959 H 0.31022 0.63166 0.75131 0.0
O960 O 0.30727 0.67797 0.66441 0.0
O961 O 0.33534 0.66763 0.70371 0.0
O962 O 0.3031 0.67837 0.77 0.0
O963 O 0.31529 0.65624 0.7848 0.0
C964 C 0.3758 0.62414 0.6234 0.0
C965 C 0.39427 0.6333 0.62646 0.0
H966 H 0.42759 0.65201 0.64651 0.0
H967 H 0.42587 0.67012 0.7119 0.0
H968 H 0.30832 0.61137 0.69456 0.0
H969 H 0.33828 0.60779 0.63218 0.0
H970 H 0.37614 0.61566 0.59706 0.0
H971 H 0.40847 0.6318 0.60213 0.0
Mn972 Mn 0.11452 0.40733 0.33932 0.0
Mn973 Mn 0.12633 0.4286 0.43391 0.0
C974 C 0.13814 0.42637 0.32775 0.0
C975 C 0.09094 0.4015 0.27435 0.0
C976 C 0.14268 0.39869 0.42606 0.0
O977 O 0.09 0.40325 0.39035 0.0
O978 O 0.09581 0.42098 0.44381 0.0
C979 C 0.09379 0.4515 0.41896 0.0
N980 N 0.11542 0.44704 0.42257 0.0
C981 C 0.12947 0.47033 0.41133 0.0
C982 C 0.10734 0.47518 0.40753 0.0
C983 C 0.08943 0.46572 0.41128 0.0
C984 C 0.13278 0.45606 0.41906 0.0
H985 H 0.08 0.44424 0.42174 0.0
C986 C 0.08436 0.41058 0.42787 0.0
O987 O 0.10347 0.39215 0.29536 0.0
O988 O 0.09194 0.4141 0.29137 0.0
N989 N 0.15563 0.43652 0.42661 0.0
C990 C 0.17595 0.43001 0.42773 0.0
C991 C 0.19563 0.43794 0.42284 0.0
C992 C 0.19421 0.45246 0.41699 0.0
C993 C 0.1731 0.45891 0.41599 0.0
C994 C 0.15408 0.45048 0.42121 0.0
H995 H 0.17716 0.41887 0.43229 0.0
O996 O 0.1389 0.41594 0.29727 0.0
O997 O 0.12416 0.42491 0.36375 0.0
O998 O 0.13723 0.3967 0.38122 0.0
O999 O 0.13847 0.40993 0.44944 0.0
C1000 C 0.17017 0.47335 0.4092 0.0
C1001 C 0.14838 0.47905 0.40675 0.0
H1002 H 0.10391 0.48612 0.40131 0.0
H1003 H 0.07231 0.46937 0.40818 0.0
H1004 H 0.21185 0.43287 0.42358 0.0
H1005 H 0.20942 0.45853 0.41297 0.0
H1006 H 0.18458 0.48014 0.40512 0.0
H1007 H 0.14635 0.49014 0.40066 0.0
Mn1008 Mn 0.17165 0.69284 0.278 0.0
Mn1009 Mn 0.16176 0.66078 0.2318 0.0
C1010 C 0.18552 0.67379 0.31856 0.0
C1011 C 0.15941 0.71194 0.32417 0.0
C1012 C 0.19983 0.67852 0.19654 0.0
O1013 O 0.14815 0.69659 0.22633 0.0
O1014 O 0.14565 0.67531 0.19289 0.0
C1015 C 0.11409 0.66021 0.2622 0.0
N1016 N 0.13502 0.65453 0.26376 0.0
C1017 C 0.12221 0.63568 0.31498 0.0
C1018 C 0.10051 0.64132 0.31385 0.0
C1019 C 0.09644 0.65365 0.28747 0.0
C1020 C 0.13916 0.64277 0.28958 0.0
H1021 H 0.11088 0.66964 0.24171 0.0
C1022 C 0.14124 0.68835 0.19307 0.0
O1023 O 0.17469 0.71329 0.2903 0.0
O1024 O 0.1512 0.69958 0.33075 0.0
N1025 N 0.17607 0.64535 0.26331 0.0
C1026 C 0.19743 0.64065 0.2569 0.0
C1027 C 0.20423 0.62831 0.28029 0.0
C1028 C 0.18883 0.62072 0.30884 0.0
C1029 C 0.16662 0.62541 0.31293 0.0
C1030 C 0.16087 0.63784 0.28899 0.0
H1031 H 0.20924 0.6464 0.23463 0.0
O1032 O 0.19308 0.68616 0.32781 0.0
O1033 O 0.16845 0.67294 0.28822 0.0
O1034 O 0.19512 0.68933 0.22254 0.0
O1035 O 0.18935 0.6669 0.19914 0.0
C1036 C 0.14984 0.61812 0.33889 0.0
C1037 C 0.12764 0.62324 0.33988 0.0
H1038 H 0.08685 0.63626 0.33299 0.0
H1039 H 0.07973 0.65805 0.2864 0.0
H1040 H 0.22124 0.62463 0.27585 0.0
H1041 H 0.19414 0.61117 0.32669 0.0
H1042 H 0.15376 0.60847 0.35776 0.0
H1043 H 0.11483 0.61745 0.35939 0.0
Mn1044 Mn 0.11148 0.58758 0.16088 0.0
Mn1045 Mn 0.12069 0.56572 0.0659 0.0
C1046 C 0.1321 0.56726 0.17242 0.0
C1047 C 0.08934 0.59512 0.22592 0.0
C1048 C 0.144 0.59361 0.07694 0.0
O1049 O 0.08767 0.5934 0.11073 0.0
O1050 O 0.09372 0.57719 0.05201 0.0
C1051 C 0.08055 0.54771 0.074 0.0
N1052 N 0.10328 0.54915 0.07339 0.0
C1053 C 0.10856 0.52434 0.07743 0.0
C1054 C 0.0852 0.52256 0.07801 0.0
C1055 C 0.07114 0.53431 0.07657 0.0
C1056 C 0.11696 0.53794 0.07545 0.0
H1057 H 0.0697 0.55671 0.07232 0.0
C1058 C 0.08286 0.5876 0.06964 0.0
O1059 O 0.10335 0.6035 0.20449 0.0
O1060 O 0.08811 0.58245 0.20946 0.0
N1061 N 0.14625 0.55396 0.07542 0.0
C1062 C 0.16835 0.55753 0.07767 0.0
C1063 C 0.18464 0.54702 0.08177 0.0
C1064 C 0.17805 0.53297 0.08277 0.0
C1065 C 0.1552 0.52956 0.08001 0.0
C1066 C 0.13972 0.54049 0.07658 0.0
H1067 H 0.17349 0.56832 0.07649 0.0
O1068 O 0.13453 0.57767 0.20255 0.0
O1069 O 0.1181 0.56926 0.13653 0.0
O1070 O 0.13559 0.59678 0.1186 0.0
O1071 O 0.13957 0.58228 0.05433 0.0
C1072 C 0.14715 0.51576 0.08061 0.0
C1073 C 0.12385 0.51315 0.07899 0.0
H1074 H 0.0779 0.51224 0.07978 0.0
H1075 H 0.05309 0.53304 0.07709 0.0
H1076 H 0.20224 0.54974 0.08393 0.0
H1077 H 0.19066 0.52489 0.08581 0.0
H1078 H 0.15872 0.50708 0.08292 0.0
H1079 H 0.11786 0.5025 0.08005 0.0
Mn1080 Mn 0.3254 0.30809 0.7886 0.0
Mn1081 Mn 0.345 0.33871 0.74519 0.0
C1082 C 0.31889 0.32782 0.83294 0.0
C1083 C 0.33446 0.28757 0.83079 0.0
C1084 C 0.30098 0.32628 0.71154 0.0
O1085 O 0.34495 0.30242 0.73217 0.0
O1086 O 0.35715 0.32307 0.70416 0.0
C1087 C 0.39192 0.33377 0.77651 0.0
N1088 N 0.37283 0.34154 0.77882 0.0
C1089 C 0.38895 0.35662 0.84024 0.0
C1090 C 0.40885 0.34884 0.8383 0.0
C1091 C 0.41035 0.33739 0.80619 0.0
C1092 C 0.37123 0.3526 0.80948 0.0
H1093 H 0.39301 0.32486 0.75235 0.0
C1094 C 0.35552 0.30981 0.70124 0.0
O1095 O 0.31754 0.28798 0.8004 0.0
O1096 O 0.34577 0.29896 0.83623 0.0
N1097 N 0.33495 0.35501 0.77904 0.0
C1098 C 0.31557 0.3623 0.77221 0.0
C1099 C 0.31166 0.37437 0.8002 0.0
C1100 C 0.32797 0.379 0.83387 0.0
C1101 C 0.34829 0.37173 0.83825 0.0
C1102 C 0.35127 0.35983 0.80914 0.0
H1103 H 0.30305 0.35876 0.74625 0.0
O1104 O 0.30829 0.3164 0.84306 0.0
O1105 O 0.33477 0.327 0.79978 0.0
O1106 O 0.30165 0.31512 0.73794 0.0
O1107 O 0.31603 0.33585 0.71239 0.0
C1108 C 0.36573 0.37583 0.87018 0.0
C1109 C 0.38595 0.36819 0.87155 0.0
H1110 H 0.42309 0.35158 0.8612 0.0
H1111 H 0.42564 0.33132 0.80453 0.0
H1112 H 0.2961 0.38005 0.79595 0.0
H1113 H 0.32485 0.38826 0.85561 0.0
H1114 H 0.36381 0.38486 0.89372 0.0
H1115 H 0.39914 0.37136 0.89659 0.0
Mn1116 Mn 0.38155 0.41375 0.66149 0.0
Mn1117 Mn 0.36963 0.43509 0.5667 0.0
C1118 C 0.36266 0.43463 0.67551 0.0
C1119 C 0.40727 0.40683 0.72145 0.0
C1120 C 0.34633 0.40721 0.58378 0.0
O1121 O 0.40247 0.40707 0.60684 0.0
O1122 O 0.39633 0.42372 0.5495 0.0
C1123 C 0.40939 0.45353 0.56652 0.0
N1124 N 0.38675 0.45187 0.56987 0.0
C1125 C 0.38102 0.47663 0.57509 0.0
C1126 C 0.40428 0.47862 0.57155 0.0
C1127 C 0.41853 0.46702 0.56742 0.0
C1128 C 0.3729 0.46296 0.57402 0.0
H1129 H 0.42037 0.44463 0.56316 0.0
C1130 C 0.40676 0.41294 0.56557 0.0
O1131 O 0.39154 0.39844 0.7066 0.0
O1132 O 0.40786 0.41913 0.7019 0.0
N1133 N 0.34416 0.44663 0.57983 0.0
C1134 C 0.32239 0.44283 0.58701 0.0
C1135 C 0.30607 0.45317 0.59451 0.0
C1136 C 0.3123 0.46729 0.59418 0.0
C1137 C 0.33482 0.47094 0.5866 0.0
C1138 C 0.35034 0.46018 0.57951 0.0
H1139 H 0.31754 0.43199 0.58718 0.0
O1140 O 0.36125 0.42452 0.70718 0.0
O1141 O 0.37467 0.43199 0.63678 0.0
O1142 O 0.35485 0.40447 0.62592 0.0
O1143 O 0.35105 0.41823 0.55955 0.0
C1144 C 0.34253 0.48481 0.58645 0.0
C1145 C 0.36562 0.48766 0.58054 0.0
H1146 H 0.41139 0.48901 0.57238 0.0
H1147 H 0.4365 0.46846 0.56486 0.0
H1148 H 0.28874 0.45027 0.60049 0.0
H1149 H 0.29967 0.47523 0.6001 0.0
H1150 H 0.33092 0.49337 0.59164 0.0
H1151 H 0.37138 0.49836 0.58125 0.0
H1152 H 0.16572 0.16133 0.57776 0.0
H1153 H 0.19188 0.14912 0.52277 0.0
H1154 H 0.24266 0.15063 0.63614 0.0
H1155 H 0.21732 0.16414 0.68727 0.0
H1156 H 0.25637 0.16388 0.56252 0.0
H1157 H 0.22295 0.11836 0.57889 0.0
H1158 H 0.1924 0.101 0.57795 0.0
H1159 H 0.17774 0.11116 0.42725 0.0
H1160 H 0.20837 0.12845 0.42699 0.0
H1161 H 0.34257 0.15186 0.40891 0.0
H1162 H 0.3172 0.14106 0.4687 0.0
H1163 H 0.26195 0.14644 0.36782 0.0
H1164 H 0.28725 0.15697 0.30819 0.0
H1165 H 0.25232 0.12591 0.43891 0.0
H1166 H 0.27398 0.17542 0.43381 0.0
H1167 H 0.30201 0.19435 0.42948 0.0
H1168 H 0.33601 0.17755 0.55577 0.0
H1169 H 0.30782 0.15871 0.5615 0.0
C1170 C 0.18207 0.15834 0.59166 0.0
C1171 C 0.18927 0.16306 0.63808 0.0
C1172 C 0.1971 0.15135 0.56018 0.0
C1173 C 0.21942 0.14888 0.57511 0.0
C1174 C 0.22562 0.15232 0.6235 0.0
C1175 C 0.211 0.15976 0.65358 0.0
C1176 C 0.23749 0.14591 0.5384 0.0
C1177 C 0.25568 0.15522 0.53683 0.0
C1178 C 0.23635 0.1351 0.50288 0.0
C1179 C 0.21787 0.12476 0.50303 0.0
C1180 C 0.21313 0.11695 0.54563 0.0
C1181 C 0.19583 0.10711 0.5453 0.0
C1182 C 0.18303 0.10507 0.50274 0.0
C1183 C 0.18764 0.11277 0.46024 0.0
C1184 C 0.20505 0.12253 0.46022 0.0
C1185 C 0.32539 0.14976 0.39811 0.0
C1186 C 0.31688 0.15525 0.354 0.0
C1187 C 0.31078 0.14373 0.43254 0.0
C1188 C 0.28751 0.14337 0.42334 0.0
C1189 C 0.27975 0.14667 0.37599 0.0
C1190 C 0.29433 0.15263 0.34167 0.0
C1191 C 0.27125 0.14354 0.46501 0.0
C1192 C 0.25325 0.13407 0.46649 0.0
C1193 C 0.27222 0.1543 0.50053 0.0
C1194 C 0.28901 0.16564 0.49777 0.0
C1195 C 0.28745 0.17579 0.46062 0.0
C1196 C 0.3033 0.1865 0.45799 0.0
C1197 C 0.3209 0.18705 0.49197 0.0
C1198 C 0.32243 0.17706 0.52931 0.0
C1199 C 0.30645 0.16642 0.53248 0.0
H1200 H 0.33331 0.19524 0.48933 0.0
H1201 H 0.16961 0.09747 0.50264 0.0
H1202 H 0.10052 0.9494 0.69423 0.0
H1203 H 0.10517 0.97221 0.73089 0.0
H1204 H 0.17353 0.97371 0.67869 0.0
H1205 H 0.16985 0.94954 0.65002 0.0
H1206 H 0.17452 0.9852 0.75746 0.0
H1207 H 0.11918 0.00688 0.62732 0.0
H1208 H 0.08322 0.00882 0.58252 0.0
H1209 H 0.04797 0.99343 0.70923 0.0
H1210 H 0.08355 0.99251 0.75577 0.0
H1211 H 0.17416 0.0612 0.80032 0.0
H1212 H 0.17835 0.03738 0.76782 0.0
H1213 H 0.11559 0.02587 0.83583 0.0
H1214 H 0.11029 0.04969 0.86261 0.0
H1215 H 0.11481 0.02083 0.7427 0.0
H1216 H 0.17032 0.00139 0.87435 0.0
H1217 H 0.20518 0.00492 0.92242 0.0
H1218 H 0.23891 0.01929 0.79218 0.0
H1219 H 0.20438 0.01556 0.74341 0.0
C1220 C 0.11647 0.9547 0.69013 0.0
C1221 C 0.13459 0.94796 0.66753 0.0
C1222 C 0.11895 0.96802 0.70998 0.0
C1223 C 0.1392 0.9754 0.705 0.0
C1224 C 0.15748 0.96853 0.6825 0.0
C1225 C 0.15537 0.95477 0.66532 0.0
C1226 C 0.14178 0.98972 0.72668 0.0
C1227 C 0.16147 0.99298 0.75334 0.0
C1228 C 0.12489 1.00013 0.723 0.0
C1229 C 0.10415 0.99868 0.69371 0.0
C1230 C 0.10381 0.00351 0.64497 0.0
C1231 C 0.08346 0.00473 0.61969 0.0
C1232 C 0.0634 0.00082 0.64243 0.0
C1233 C 0.06356 0.99616 0.6912 0.0
C1234 C 0.08378 0.99545 0.71721 0.0
C1235 C 0.1616 0.05343 0.80906 0.0
C1236 C 0.14234 0.05715 0.8359 0.0
C1237 C 0.16414 0.03976 0.79113 0.0
C1238 C 0.14755 0.02965 0.8003 0.0
C1239 C 0.12882 0.03336 0.82871 0.0
C1240 C 0.12595 0.04698 0.84486 0.0
C1241 C 0.14708 0.01605 0.77384 0.0
C1242 C 0.12786 0.01299 0.74622 0.0
C1243 C 0.16429 0.00599 0.77666 0.0
C1244 C 0.18482 0.00843 0.80569 0.0
C1245 C 0.18519 0.00538 0.85623 0.0
C1246 C 0.20488 0.00733 0.88346 0.0
C1247 C 0.22418 0.01243 0.86046 0.0
C1248 C 0.22393 0.01541 0.81002 0.0
C1249 C 0.20435 0.01331 0.78254 0.0
H1250 H 0.23936 0.01401 0.88166 0.0
H1251 H 0.0477 0.00163 0.62255 0.0
H1252 H 0.33658 0.84233 0.09298 0.0
H1253 H 0.31057 0.85396 0.03679 0.0
H1254 H 0.26061 0.8552 0.15174 0.0
H1255 H 0.28602 0.84271 0.20628 0.0
H1256 H 0.24591 0.84063 0.08065 0.0
H1257 H 0.28055 0.88524 0.08735 0.0
H1258 H 0.31224 0.90172 0.08605 0.0
H1259 H 0.32698 0.89022 0.93659 0.0
H1260 H 0.29565 0.87345 0.93722 0.0
H1261 H 0.16618 0.84585 0.9011 0.0
H1262 H 0.18743 0.85794 0.96582 0.0
H1263 H 0.24796 0.85348 0.88018 0.0
H1264 H 0.22672 0.84181 0.81554 0.0
H1265 H 0.25296 0.87481 0.94454 0.0
H1266 H 0.22911 0.82633 0.94863 0.0
H1267 H 0.20065 0.80766 0.94708 0.0
H1268 H 0.16911 0.82509 0.07533 0.0
H1269 H 0.19721 0.84401 0.07708 0.0
C1270 C 0.32057 0.84589 0.10712 0.0
C1271 C 0.31357 0.84189 0.15444 0.0
C1272 C 0.30556 0.85249 0.07479 0.0
C1273 C 0.2834 0.85539 0.08966 0.0
C1274 C 0.27749 0.85303 0.13907 0.0
C1275 C 0.29222 0.84609 0.1707 0.0
C1276 C 0.26537 0.85779 0.05218 0.0
C1277 C 0.24716 0.84848 0.05202 0.0
C1278 C 0.26723 0.86765 0.01347 0.0
C1279 C 0.28573 0.87803 0.01241 0.0
C1280 C 0.29059 0.88617 0.05424 0.0
C1281 C 0.30851 0.89556 0.05364 0.0
C1282 C 0.32163 0.89701 0.01128 0.0
C1283 C 0.31679 0.8891 0.96937 0.0
C1284 C 0.29892 0.87966 0.96981 0.0
C1285 C 0.1837 0.84828 0.89485 0.0
C1286 C 0.19487 0.84288 0.85354 0.0
C1287 C 0.19594 0.85507 0.93205 0.0
C1288 C 0.21949 0.85622 0.92863 0.0
C1289 C 0.22992 0.85266 0.88406 0.0
C1290 C 0.21773 0.84597 0.84699 0.0
C1291 C 0.23372 0.85771 0.97369 0.0
C1292 C 0.25135 0.86747 0.97471 0.0
C1293 C 0.23171 0.84812 0.01314 0.0
C1294 C 0.21504 0.83666 0.01262 0.0
C1295 C 0.21603 0.82621 0.97634 0.0
C1296 C 0.19997 0.81559 0.9754 0.0
C1297 C 0.18305 0.81521 0.011 0.0
C1298 C 0.18219 0.82542 0.0477 0.0
C1299 C 0.19816 0.8361 0.04866 0.0
H1300 H 0.17063 0.80699 0.01023 0.0
H1301 H 0.33553 0.90427 0.01091 0.0
H1302 H 0.38947 0.04803 0.14256 0.0
H1303 H 0.38366 0.02414 0.16635 0.0
H1304 H 0.32357 0.03626 0.24465 0.0
H1305 H 0.32733 0.05993 0.21138 0.0
H1306 H 0.38876 0.01424 0.24236 0.0
H1307 H 0.29507 0.01183 0.28842 0.0
H1308 H 0.25804 0.01805 0.25369 0.0
H1309 H 0.28461 0.0145 0.1072 0.0
H1310 H 0.32197 0.00877 0.14126 0.0
H1311 H 0.39074 0.95364 0.36936 0.0
H1312 H 0.38175 0.97756 0.35059 0.0
H1313 H 0.33056 0.96338 0.24938 0.0
H1314 H 0.33538 0.93959 0.28061 0.0
H1315 H 0.31935 0.98669 0.26596 0.0
H1316 H 0.39326 0.97167 0.22092 0.0
H1317 H 0.43105 0.96181 0.23415 0.0
H1318 H 0.44642 0.99476 0.33581 0.0
H1319 H 0.40867 0.00473 0.3235 0.0
C1320 C 0.37406 0.04541 0.16135 0.0
C1321 C 0.35803 0.05565 0.17166 0.0
C1322 C 0.3711 0.03173 0.17684 0.0
C1323 C 0.35309 0.02806 0.20766 0.0
C1324 C 0.33721 0.03845 0.21953 0.0
C1325 C 0.33951 0.05208 0.2011 0.0
C1326 C 0.35287 0.01389 0.23104 0.0
C1327 C 0.37348 0.00822 0.24643 0.0
C1328 C 0.33321 0.00578 0.2375 0.0
C1329 C 0.31127 0.01011 0.21726 0.0
C1330 C 0.29303 0.01257 0.24882 0.0
C1331 C 0.27205 0.01607 0.22928 0.0
C1332 C 0.26907 0.01687 0.17824 0.0
C1333 C 0.28709 0.01421 0.14668 0.0
C1334 C 0.30819 0.01095 0.16605 0.0
C1335 C 0.37613 0.95573 0.34707 0.0
C1336 C 0.36258 0.94483 0.33017 0.0
C1337 C 0.37181 0.96945 0.33365 0.0
C1338 C 0.35624 0.9725 0.29628 0.0
C1339 C 0.34275 0.96154 0.27827 0.0
C1340 C 0.34564 0.94787 0.29574 0.0
C1341 C 0.35541 0.98678 0.27383 0.0
C1342 C 0.33462 0.99261 0.26022 0.0
C1343 C 0.37519 0.99466 0.26498 0.0
C1344 C 0.39811 0.98888 0.27153 0.0
C1345 C 0.40472 0.9768 0.24608 0.0
C1346 C 0.42611 0.97118 0.25347 0.0
C1347 C 0.44111 0.97764 0.28586 0.0
C1348 C 0.43479 0.98977 0.31075 0.0
C1349 C 0.41342 0.99542 0.30352 0.0
H1350 H 0.45763 0.97326 0.29163 0.0
H1351 H 0.25276 0.01942 0.16315 0.0
H1352 H 0.8296 0.84707 0.39293 0.0
H1353 H 0.80714 0.861 0.4505 0.0
H1354 H 0.7472 0.85019 0.36967 0.0
H1355 H 0.76977 0.83726 0.31058 0.0
H1356 H 0.73895 0.87298 0.41887 0.0
H1357 H 0.77229 0.82741 0.45893 0.0
H1358 H 0.80472 0.81179 0.47142 0.0
H1359 H 0.83116 0.83959 0.5811 0.0
H1360 H 0.79897 0.85543 0.56879 0.0
H1361 H 0.65847 0.84311 0.57654 0.0
H1362 H 0.68398 0.85398 0.51826 0.0
H1363 H 0.73149 0.8613 0.6358 0.0
H1364 H 0.70713 0.84865 0.69219 0.0
H1365 H 0.75075 0.84725 0.5751 0.0
H1366 H 0.7063 0.88805 0.5511 0.0
H1367 H 0.67127 0.90113 0.53718 0.0
H1368 H 0.66287 0.8811 0.39686 0.0
H1369 H 0.69758 0.86768 0.41028 0.0
C1370 C 0.81184 0.84845 0.38586 0.0
C1371 C 0.80137 0.84123 0.34724 0.0
C1372 C 0.79893 0.85625 0.41909 0.0
C1373 C 0.77532 0.85623 0.41555 0.0
C1374 C 0.76529 0.85034 0.37363 0.0
C1375 C 0.77821 0.84289 0.33987 0.0
C1376 C 0.7609 0.85928 0.45916 0.0
C1377 C 0.74155 0.86753 0.45342 0.0
C1378 C 0.76436 0.8523 0.50452 0.0
C1379 C 0.78342 0.84264 0.51261 0.0
C1380 C 0.78505 0.83017 0.48565 0.0
C1381 C 0.80339 0.8213 0.49265 0.0
C1382 C 0.82001 0.82471 0.52696 0.0
C1383 C 0.81829 0.83697 0.55447 0.0
C1384 C 0.80002 0.8459 0.54751 0.0
C1385 C 0.67379 0.84777 0.59039 0.0
C1386 C 0.68051 0.8454 0.63921 0.0
C1387 C 0.68852 0.85404 0.55688 0.0
C1388 C 0.70994 0.85855 0.57216 0.0
C1389 C 0.71525 0.85785 0.62263 0.0
C1390 C 0.70107 0.85088 0.65533 0.0
C1391 C 0.72823 0.86084 0.53522 0.0
C1392 C 0.74831 0.85337 0.54191 0.0
C1393 C 0.72512 0.8684 0.49075 0.0
C1394 C 0.70463 0.87685 0.48175 0.0
C1395 C 0.69699 0.88642 0.51729 0.0
C1396 C 0.67715 0.89388 0.50951 0.0
C1397 C 0.66487 0.89196 0.46614 0.0
C1398 C 0.67243 0.88261 0.43038 0.0
C1399 C 0.69222 0.87509 0.43802 0.0
H1400 H 0.64949 0.89773 0.46024 0.0
H1401 H 0.83421 0.81783 0.53229 0.0
H1402 H 0.83096 0.06029 0.29524 0.0
H1403 H 0.82456 0.03737 0.25755 0.0
H1404 H 0.88629 0.02241 0.32142 0.0
H1405 H 0.89414 0.04563 0.35227 0.0
H1406 H 0.88232 0.02163 0.21766 0.0
H1407 H 0.83593 0.9896 0.35497 0.0
H1408 H 0.80471 0.98993 0.41473 0.0
H1409 H 0.76984 0.01996 0.32588 0.0
H1410 H 0.80017 0.01911 0.26422 0.0
H1411 H 0.90228 0.94978 0.17066 0.0
H1412 H 0.89826 0.97323 0.20192 0.0
H1413 H 0.82695 0.97162 0.17363 0.0
H1414 H 0.83076 0.94705 0.15044 0.0
H1415 H 0.83069 0.98249 0.25279 0.0
H1416 H 0.87641 0.00599 0.10295 0.0
H1417 H 0.91092 0.00892 0.05314 0.0
H1418 H 0.95123 0.99723 0.17742 0.0
H1419 H 0.91718 0.99527 0.22869 0.0
C1420 C 0.84275 0.05194 0.30228 0.0
C1421 C 0.86247 0.0545 0.32917 0.0
C1422 C 0.83886 0.03876 0.28159 0.0
C1423 C 0.85434 0.02789 0.28881 0.0
C1424 C 0.87368 0.03045 0.31686 0.0
C1425 C 0.87802 0.04369 0.33528 0.0
C1426 C 0.85359 0.01494 0.25913 0.0
C1427 C 0.87077 0.0131 0.22462 0.0
C1428 C 0.83874 0.00381 0.26866 0.0
C1429 C 0.82076 0.00476 0.30607 0.0
C1430 C 0.82164 0.99632 0.34836 0.0
C1431 C 0.80395 0.99645 0.38221 0.0
C1432 C 0.78545 0.00512 0.37448 0.0
C1433 C 0.78436 0.01343 0.33227 0.0
C1434 C 0.80179 0.01312 0.29781 0.0
C1435 C 0.88581 0.95457 0.17045 0.0
C1436 C 0.86687 0.94679 0.15714 0.0
C1437 C 0.88356 0.96824 0.18716 0.0
C1438 C 0.86246 0.9748 0.18817 0.0
C1439 C 0.84354 0.96702 0.17313 0.0
C1440 C 0.84565 0.95301 0.1593 0.0
C1441 C 0.85958 0.989 0.21033 0.0
C1442 C 0.84183 0.99107 0.24401 0.0
C1443 C 0.8743 1.00034 0.20095 0.0
C1444 C 0.89422 0.99962 0.16869 0.0
C1445 C 0.89262 0.0037 0.11918 0.0
C1446 C 0.91209 0.00543 0.09097 0.0
C1447 C 0.93315 0.00284 0.11165 0.0
C1448 C 0.93488 0.99896 0.16108 0.0
C1449 C 0.91555 0.99769 0.18984 0.0
H1450 H 0.94814 0.00407 0.08957 0.0
H1451 H 0.77188 0.0053 0.40096 0.0
H1452 H 0.65685 0.15356 0.90278 0.0
H1453 H 0.67957 0.14208 0.96622 0.0
H1454 H 0.73827 0.14659 0.87462 0.0
H1455 H 0.71539 0.15723 0.81059 0.0
H1456 H 0.74654 0.12701 0.94008 0.0
H1457 H 0.71813 0.17444 0.94436 0.0
H1458 H 0.688 0.19209 0.94385 0.0
H1459 H 0.65948 0.17387 0.07414 0.0
H1460 H 0.68934 0.15602 0.07502 0.0
H1461 H 0.82939 0.15999 0.09131 0.0
H1462 H 0.8036 0.14892 0.03325 0.0
H1463 H 0.75269 0.14745 0.14627 0.0
H1464 H 0.77776 0.15975 0.2022 0.0
H1465 H 0.73751 0.16102 0.0761 0.0
H1466 H 0.77609 0.11674 0.07858 0.0
H1467 H 0.80905 0.10124 0.07313 0.0
H1468 H 0.82248 0.11594 0.92669 0.0
H1469 H 0.78959 0.13147 0.93104 0.0
C1470 C 0.67425 0.15117 0.8949 0.0
C1471 C 0.68438 0.15623 0.85184 0.0
C1472 C 0.68736 0.14478 0.93144 0.0
C1473 C 0.71086 0.14401 0.92611 0.0
C1474 C 0.72029 0.14717 0.88008 0.0
C1475 C 0.70714 0.15324 0.84329 0.0
C1476 C 0.72589 0.14334 0.97011 0.0
C1477 C 0.7445 0.13431 0.97025 0.0
C1478 C 0.72345 0.15296 0.00935 0.0
C1479 C 0.70578 0.16383 0.00946 0.0
C1480 C 0.70539 0.1742 0.97281 0.0
C1481 C 0.68837 0.18422 0.97243 0.0
C1482 C 0.6718 0.18408 0.00886 0.0
C1483 C 0.67229 0.17395 0.04588 0.0
C1484 C 0.68926 0.16388 0.04635 0.0
C1485 C 0.81311 0.15659 0.1044 0.0
C1486 C 0.80585 0.16029 0.15182 0.0
C1487 C 0.79826 0.15024 0.07109 0.0
C1488 C 0.776 0.14725 0.08506 0.0
C1489 C 0.76966 0.14964 0.13423 0.0
C1490 C 0.78415 0.15648 0.16664 0.0
C1491 C 0.75827 0.14451 0.04714 0.0
C1492 C 0.73927 0.15319 0.04751 0.0
C1493 C 0.76079 0.13481 0.00807 0.0
C1494 C 0.78038 0.1253 0.00521 0.0
C1495 C 0.7861 0.11669 0.04526 0.0
C1496 C 0.80477 0.10791 0.04238 0.0
C1497 C 0.8179 0.10767 0.99974 0.0
C1498 C 0.8123 0.11614 0.95971 0.0
C1499 C 0.79358 0.12488 0.96227 0.0
H1500 H 0.83239 0.10089 0.99768 0.0
H1501 H 0.65862 0.19183 0.00848 0.0
H1502 H 0.60943 0.95098 0.81528 0.0
H1503 H 0.61666 0.97449 0.78471 0.0
H1504 H 0.68788 0.96674 0.79011 0.0
H1505 H 0.68058 0.94279 0.81998 0.0
H1506 H 0.66334 0.99545 0.83524 0.0
H1507 H 0.6784 0.96719 0.69106 0.0
H1508 H 0.6702 0.94811 0.63293 0.0
H1509 H 0.60661 0.96674 0.59825 0.0
H1510 H 0.61425 0.9858 0.65688 0.0
H1511 H 0.67275 0.06074 0.70208 0.0
H1512 H 0.68125 0.03689 0.73072 0.0
H1513 H 0.61426 0.02402 0.69115 0.0
H1514 H 0.60568 0.04769 0.66436 0.0
H1515 H 0.64575 0.00518 0.66012 0.0
H1516 H 0.62456 0.02983 0.80461 0.0
H1517 H 0.62559 0.04818 0.8681 0.0
H1518 H 0.6927 0.03619 0.90739 0.0
H1519 H 0.69218 0.01788 0.84346 0.0
C1520 C 0.62665 0.95432 0.81031 0.0
C1521 C 0.64448 0.94522 0.82059 0.0
C1522 C 0.63075 0.96772 0.79278 0.0
C1523 C 0.65277 0.97233 0.78522 0.0
C1524 C 0.67076 0.96334 0.79588 0.0
C1525 C 0.66661 0.94972 0.81272 0.0
C1526 C 0.6563 0.98644 0.76439 0.0
C1527 C 0.66019 0.99759 0.7967 0.0
C1528 C 0.6514 0.98923 0.71437 0.0
C1529 C 0.64681 0.97784 0.6788 0.0
C1530 C 0.66256 0.96713 0.67146 0.0
C1531 C 0.65804 0.95634 0.63832 0.0
C1532 C 0.63787 0.95618 0.61202 0.0
C1533 C 0.62221 0.96685 0.6187 0.0
C1534 C 0.62664 0.97766 0.65186 0.0
C1535 C 0.66002 0.05273 0.69921 0.0
C1536 C 0.63885 0.05586 0.67934 0.0
C1537 C 0.66484 0.03916 0.71557 0.0
C1538 C 0.64845 0.02863 0.71258 0.0
C1539 C 0.62728 0.03188 0.69312 0.0
C1540 C 0.62245 0.04538 0.67743 0.0
C1541 C 0.65272 0.01428 0.73095 0.0
C1542 C 0.64986 0.00309 0.69827 0.0
C1543 C 0.65789 0.01149 0.78094 0.0
C1544 C 0.65852 0.02269 0.81854 0.0
C1545 C 0.63968 0.03125 0.82623 0.0
C1546 C 0.64013 0.0416 0.86243 0.0
C1547 C 0.65926 0.04341 0.89155 0.0
C1548 C 0.67794 0.03483 0.88461 0.0
C1549 C 0.67759 0.02446 0.84837 0.0
H1550 H 0.65955 0.05141 0.91966 0.0
H1551 H 0.6344 0.94782 0.58637 0.0
H1552 H 0.82732 0.66066 0.92416 0.0
H1553 H 0.80103 0.64894 0.97854 0.0
H1554 H 0.75621 0.64216 0.85562 0.0
H1555 H 0.78118 0.6557 0.80336 0.0
H1556 H 0.73454 0.6545 0.91554 0.0
H1557 H 0.78122 0.61496 0.93981 0.0
H1558 H 0.81653 0.60235 0.95556 0.0
H1559 H 0.82117 0.62105 0.09898 0.0
H1560 H 0.78618 0.63402 0.0838 0.0
H1561 H 0.65415 0.65314 0.09704 0.0
H1562 H 0.67705 0.63938 0.03938 0.0
H1563 H 0.7368 0.65163 0.11829 0.0
H1564 H 0.71395 0.66481 0.17557 0.0
H1565 H 0.74561 0.62841 0.07124 0.0
H1566 H 0.70971 0.67357 0.02796 0.0
H1567 H 0.67565 0.68772 0.01424 0.0
H1568 H 0.65255 0.65831 0.90619 0.0
H1569 H 0.68638 0.64394 0.91971 0.0
C1570 C 0.81245 0.65595 0.90826 0.0
C1571 C 0.8067 0.6587 0.85907 0.0
C1572 C 0.79725 0.64919 0.93954 0.0
C1573 C 0.77633 0.64453 0.92168 0.0
C1574 C 0.77202 0.6457 0.87085 0.0
C1575 C 0.78661 0.65317 0.84044 0.0
C1576 C 0.75746 0.64142 0.95656 0.0
C1577 C 0.73691 0.6483 0.94857 0.0
C1578 C 0.76024 0.63362 0.00065 0.0
C1579 C 0.78098 0.62548 0.01059 0.0
C1580 C 0.78977 0.61642 0.97468 0.0
C1581 C 0.80977 0.60922 0.98349 0.0
C1582 C 0.82107 0.61088 0.02825 0.0
C1583 C 0.81237 0.61974 0.06436 0.0
C1584 C 0.79243 0.62701 0.05569 0.0
C1585 C 0.67202 0.65217 0.10351 0.0
C1586 C 0.68238 0.65985 0.14118 0.0
C1587 C 0.68517 0.64442 0.07033 0.0
C1588 C 0.70881 0.6448 0.07346 0.0
C1589 C 0.71871 0.65112 0.11466 0.0
C1590 C 0.70563 0.65866 0.14775 0.0
C1591 C 0.72345 0.64176 0.03011 0.0
C1592 C 0.74318 0.63392 0.03674 0.0
C1593 C 0.72015 0.64871 0.98466 0.0
C1594 C 0.70035 0.65763 0.97523 0.0
C1595 C 0.69734 0.67016 0.00126 0.0
C1596 C 0.67808 0.67819 0.99362 0.0
C1597 C 0.66189 0.67387 0.95958 0.0
C1598 C 0.66505 0.6616 0.93271 0.0
C1599 C 0.68425 0.65351 0.94034 0.0
H1600 H 0.64689 0.68003 0.95395 0.0
H1601 H 0.83657 0.60532 0.03497 0.0
H1602 H 0.6727 0.56568 0.26888 0.0
H1603 H 0.67804 0.54148 0.23971 0.0
H1604 H 0.61717 0.52925 0.31368 0.0
H1605 H 0.61107 0.55324 0.33962 0.0
H1606 H 0.66128 0.5112 0.3265 0.0
H1607 H 0.60615 0.53236 0.21439 0.0
H1608 H 0.59389 0.55007 0.1543 0.0
H1609 H 0.64982 0.54001 0.06112 0.0
H1610 H 0.66262 0.52239 0.12127 0.0
H1611 H 0.60004 0.45632 0.16835 0.0
H1612 H 0.60851 0.4803 0.19146 0.0
H1613 H 0.676 0.46818 0.2304 0.0
H1614 H 0.66722 0.44391 0.20784 0.0
H1615 H 0.63602 0.49897 0.15807 0.0
H1616 H 0.69408 0.49058 0.32504 0.0
H1617 H 0.70236 0.47297 0.38881 0.0
H1618 H 0.63533 0.45693 0.37635 0.0
H1619 H 0.62658 0.47455 0.313 0.0
C1620 C 0.66065 0.55775 0.27908 0.0
C1621 C 0.64198 0.56117 0.3083 0.0
C1622 C 0.66372 0.54398 0.26262 0.0
C1623 C 0.64818 0.53357 0.2754 0.0
C1624 C 0.62956 0.53706 0.30426 0.0
C1625 C 0.62623 0.55076 0.31945 0.0
C1626 C 0.65008 0.51913 0.2566 0.0
C1627 C 0.6563 0.5085 0.28932 0.0
C1628 C 0.6431 0.51562 0.20848 0.0
C1629 C 0.63562 0.52632 0.17279 0.0
C1630 C 0.61604 0.5341 0.18151 0.0
C1631 C 0.60894 0.54408 0.14735 0.0
C1632 C 0.62115 0.54623 0.10406 0.0
C1633 C 0.64045 0.53838 0.09479 0.0
C1634 C 0.64765 0.52842 0.12893 0.0
C1635 C 0.61677 0.45882 0.18133 0.0
C1636 C 0.63317 0.44839 0.18518 0.0
C1637 C 0.62161 0.47252 0.1946 0.0
C1638 C 0.64292 0.47613 0.21264 0.0
C1639 C 0.65938 0.46567 0.21689 0.0
C1640 C 0.65443 0.45184 0.2039 0.0
C1641 C 0.64726 0.49082 0.22786 0.0
C1642 C 0.642 0.50156 0.19459 0.0
C1643 C 0.65482 0.49439 0.27579 0.0
C1644 C 0.65982 0.48372 0.31373 0.0
C1645 C 0.68112 0.48328 0.33592 0.0
C1646 C 0.68589 0.47331 0.37202 0.0
C1647 C 0.66942 0.46379 0.38644 0.0
C1648 C 0.64811 0.46426 0.36495 0.0
C1649 C 0.64325 0.47422 0.32889 0.0
H1650 H 0.67314 0.45608 0.41438 0.0
H1651 H 0.61559 0.55393 0.07758 0.0
H1652 H 0.70717 0.34716 0.31421 0.0
H1653 H 0.72916 0.36071 0.37201 0.0
H1654 H 0.69254 0.34167 0.49179 0.0
H1655 H 0.6668 0.33138 0.43312 0.0
H1656 H 0.71282 0.35809 0.53349 0.0
H1657 H 0.74139 0.32583 0.4225 0.0
H1658 H 0.74927 0.31467 0.34247 0.0
H1659 H 0.79059 0.34927 0.301 0.0
H1660 H 0.78274 0.36082 0.38049 0.0
H1661 H 0.83388 0.33114 0.59128 0.0
H1662 H 0.80869 0.33881 0.52763 0.0
H1663 H 0.77715 0.36704 0.63093 0.0
H1664 H 0.79757 0.35569 0.69717 0.0
H1665 H 0.79074 0.3519 0.47426 0.0
H1666 H 0.72474 0.37454 0.61248 0.0
H1667 H 0.71313 0.37159 0.69928 0.0
H1668 H 0.74253 0.33075 0.70179 0.0
H1669 H 0.75404 0.33339 0.6149 0.0
C1670 C 0.70205 0.34727 0.35246 0.0
C1671 C 0.68437 0.33878 0.36869 0.0
C1672 C 0.7155 0.35444 0.38609 0.0
C1673 C 0.71386 0.35146 0.4367 0.0
C1674 C 0.69477 0.34415 0.4532 0.0
C1675 C 0.67981 0.33824 0.41937 0.0
C1676 C 0.73356 0.35365 0.47043 0.0
C1677 C 0.72984 0.35656 0.52048 0.0
C1678 C 0.75598 0.35112 0.45486 0.0
C1679 C 0.76123 0.34427 0.40715 0.0
C1680 C 0.75213 0.33109 0.39621 0.0
C1681 C 0.75656 0.32472 0.35093 0.0
C1682 C 0.77041 0.33131 0.3166 0.0
C1683 C 0.77986 0.34426 0.32758 0.0
C1684 C 0.77542 0.35073 0.37272 0.0
C1685 C 0.82198 0.33932 0.60009 0.0
C1686 C 0.81822 0.34303 0.64935 0.0
C1687 C 0.80726 0.34378 0.56324 0.0
C1688 C 0.78949 0.35302 0.57419 0.0
C1689 C 0.7892 0.35905 0.62154 0.0
C1690 C 0.80205 0.35325 0.65951 0.0
C1691 C 0.77001 0.35462 0.539 0.0
C1692 C 0.77379 0.35303 0.48805 0.0
C1693 C 0.74731 0.35584 0.55523 0.0
C1694 C 0.74054 0.35427 0.60753 0.0
C1695 C 0.7287 0.36494 0.63161 0.0
C1696 C 0.72214 0.36331 0.68077 0.0
C1697 C 0.72715 0.35101 0.70603 0.0
C1698 C 0.7387 0.34029 0.6822 0.0
C1699 C 0.74523 0.34184 0.63302 0.0
H1700 H 0.72197 0.34974 0.74398 0.0
H1701 H 0.77391 0.32636 0.2816 0.0
H1702 H 0.89584 0.44167 0.78587 0.0
H1703 H 0.89267 0.46527 0.75494 0.0
H1704 H 0.82671 0.46861 0.82028 0.0
H1705 H 0.82818 0.44379 0.83994 0.0
H1706 H 0.8242 0.48285 0.7511 0.0
H1707 H 0.89094 0.48505 0.86843 0.0
H1708 H 0.92979 0.47908 0.89435 0.0
H1709 H 0.95369 0.48675 0.74816 0.0
H1710 H 0.91549 0.49309 0.72153 0.0
H1711 H 0.83007 0.55758 0.7053 0.0
H1712 H 0.82515 0.53419 0.74064 0.0
H1713 H 0.88947 0.52212 0.68058 0.0
H1714 H 0.89582 0.54578 0.65483 0.0
H1715 H 0.88984 0.51423 0.76303 0.0
H1716 H 0.82873 0.50717 0.63848 0.0
H1717 H 0.79264 0.51371 0.59962 0.0
H1718 H 0.76135 0.51517 0.74205 0.0
H1719 H 0.79716 0.50838 0.78128 0.0
C1720 C 0.88068 0.44752 0.79353 0.0
C1721 C 0.86274 0.44126 0.81845 0.0
C1722 C 0.87909 0.46123 0.77703 0.0
C1723 C 0.86019 0.46942 0.78846 0.0
C1724 C 0.84187 0.46287 0.81188 0.0
C1725 C 0.84284 0.44875 0.82469 0.0
C1726 C 0.85895 0.48445 0.77374 0.0
C1727 C 0.83862 0.48968 0.75447 0.0
C1728 C 0.87765 0.49361 0.77646 0.0
C1729 C 0.90034 0.48936 0.79301 0.0
C1730 C 0.90448 0.48534 0.84189 0.0
C1731 C 0.92632 0.48193 0.85668 0.0
C1732 C 0.94399 0.48236 0.82294 0.0
C1733 C 0.93999 0.48635 0.77428 0.0
C1734 C 0.91831 0.48993 0.75939 0.0
C1735 C 0.84289 0.54976 0.69931 0.0
C1736 C 0.86277 0.55322 0.67432 0.0
C1737 C 0.83998 0.53633 0.71898 0.0
C1738 C 0.85673 0.52611 0.71275 0.0
C1739 C 0.87618 0.52964 0.68634 0.0
C1740 C 0.87955 0.54313 0.66969 0.0
C1741 C 0.85581 0.51218 0.73716 0.0
C1742 C 0.87548 0.50732 0.7598 0.0
C1743 C 0.83691 0.5033 0.7358 0.0
C1744 C 0.81557 0.50751 0.71256 0.0
C1745 C 0.81415 0.50903 0.66125 0.0
C1746 C 0.79378 0.51273 0.63925 0.0
C1747 C 0.77479 0.51502 0.66838 0.0
C1748 C 0.77608 0.51346 0.71953 0.0
C1749 C 0.79637 0.50961 0.74162 0.0
H1750 H 0.75905 0.51792 0.65129 0.0
H1751 H 0.96082 0.47968 0.83461 0.0
H1752 H 0.33972 0.3421 0.90637 0.0
H1753 H 0.31945 0.35499 0.97038 0.0
H1754 H 0.25917 0.35327 0.88251 0.0
H1755 H 0.27942 0.34053 0.81877 0.0
H1756 H 0.25815 0.37551 0.95176 0.0
H1757 H 0.26963 0.3253 0.94352 0.0
H1758 H 0.29316 0.30427 0.93523 0.0
H1759 H 0.33116 0.31639 0.06275 0.0
H1760 H 0.30787 0.33755 0.07158 0.0
H1761 H 0.16952 0.34552 0.09323 0.0
H1762 H 0.197 0.35673 0.0392 0.0
H1763 H 0.24718 0.35318 0.15332 0.0
H1764 H 0.22012 0.34126 0.20578 0.0
H1765 H 0.25786 0.33812 0.07799 0.0
H1766 H 0.23443 0.3855 0.09653 0.0
H1767 H 0.20742 0.40492 0.09985 0.0
H1768 H 0.18755 0.39668 0.95051 0.0
H1769 H 0.21451 0.37723 0.94617 0.0
C1770 C 0.32257 0.34529 0.89949 0.0
C1771 C 0.31112 0.34048 0.85769 0.0
C1772 C 0.31095 0.35262 0.93608 0.0
C1773 C 0.28769 0.35485 0.93154 0.0
C1774 C 0.27708 0.35171 0.88678 0.0
C1775 C 0.28865 0.34439 0.85039 0.0
C1776 C 0.27356 0.35642 0.97619 0.0
C1777 C 0.25818 0.36748 0.97988 0.0
C1778 C 0.27345 0.34585 0.01249 0.0
C1779 C 0.28726 0.33307 0.0078 0.0
C1780 C 0.28309 0.3235 0.9696 0.0
C1781 C 0.29636 0.31157 0.96482 0.0
C1782 C 0.31375 0.30905 0.99821 0.0
C1783 C 0.31776 0.31839 0.03676 0.0
C1784 C 0.30452 0.33035 0.04172 0.0
C1785 C 0.18607 0.34786 0.10757 0.0
C1786 C 0.19269 0.34273 0.15373 0.0
C1787 C 0.20183 0.35429 0.0767 0.0
C1788 C 0.22429 0.35572 0.092 0.0
C1789 C 0.23002 0.35215 0.14059 0.0
C1790 C 0.21451 0.34542 0.17072 0.0
C1791 C 0.24244 0.3574 0.05484 0.0
C1792 C 0.25834 0.34663 0.05167 0.0
C1793 C 0.24255 0.36809 0.01887 0.0
C1794 C 0.22646 0.37987 0.0211 0.0
C1795 C 0.22425 0.38779 0.06444 0.0
C1796 C 0.20897 0.39883 0.06648 0.0
C1797 C 0.1957 0.402 0.0255 0.0
C1798 C 0.19783 0.39421 0.98224 0.0
C1799 C 0.21319 0.38322 0.97988 0.0
H1800 H 0.18381 0.41051 0.02725 0.0
H1801 H 0.32408 0.29984 0.99431 0.0
H1802 H 0.39167 0.45611 0.6744 0.0
H1803 H 0.3856 0.47998 0.70225 0.0
H1804 H 0.31782 0.46951 0.74404 0.0
H1805 H 0.32394 0.44541 0.7153 0.0
H1806 H 0.35667 0.49969 0.67173 0.0
H1807 H 0.30614 0.49085 0.84956 0.0
H1808 H 0.29975 0.47262 0.91218 0.0
H1809 H 0.36492 0.45544 0.88285 0.0
H1810 H 0.3718 0.47366 0.8206 0.0
H1811 H 0.32563 0.56595 0.78369 0.0
H1812 H 0.3193 0.54151 0.7589 0.0
H1813 H 0.38136 0.52968 0.829 0.0
H1814 H 0.38835 0.55398 0.85074 0.0
H1815 H 0.33942 0.51099 0.84581 0.0
H1816 H 0.38873 0.5333 0.72513 0.0
H1817 H 0.39832 0.55127 0.66372 0.0
H1818 H 0.33977 0.54061 0.57938 0.0
H1819 H 0.32963 0.52273 0.64092 0.0
C1820 C 0.37533 0.45897 0.68864 0.0
C1821 C 0.35801 0.44909 0.69116 0.0
C1822 C 0.3719 0.47259 0.70484 0.0
C1823 C 0.35123 0.4766 0.72507 0.0
C1824 C 0.33393 0.46666 0.72858 0.0
C1825 C 0.33738 0.45295 0.71209 0.0
C1826 C 0.34832 0.49119 0.74276 0.0
C1827 C 0.35244 0.5021 0.70952 0.0
C1828 C 0.34314 0.49446 0.79241 0.0
C1829 C 0.33931 0.48349 0.8299 0.0
C1830 C 0.3191 0.48318 0.85652 0.0
C1831 C 0.3154 0.47286 0.89197 0.0
C1832 C 0.33188 0.46284 0.90131 0.0
C1833 C 0.35213 0.46316 0.87539 0.0
C1834 C 0.35591 0.47347 0.83996 0.0
C1835 C 0.33767 0.55805 0.79436 0.0
C1836 C 0.35701 0.56172 0.821 0.0
C1837 C 0.33402 0.54414 0.78038 0.0
C1838 C 0.34967 0.53377 0.79303 0.0
C1839 C 0.36885 0.53746 0.81987 0.0
C1840 C 0.37272 0.55133 0.83264 0.0
C1841 C 0.34753 0.51932 0.77433 0.0
C1842 C 0.34272 0.5085 0.8075 0.0
C1843 C 0.35225 0.51606 0.72465 0.0
C1844 C 0.35815 0.52693 0.68815 0.0
C1845 C 0.37769 0.53496 0.69395 0.0
C1846 C 0.38329 0.54508 0.65901 0.0
C1847 C 0.36958 0.54715 0.61783 0.0
C1848 C 0.3503 0.53906 0.61144 0.0
C1849 C 0.34461 0.52894 0.64636 0.0
H1850 H 0.37397 0.55497 0.59075 0.0
H1851 H 0.32898 0.45485 0.92875 0.0
H1852 H 0.22917 0.66781 0.31033 0.0
H1853 H 0.2515 0.65437 0.36823 0.0
H1854 H 0.19097 0.64046 0.44046 0.0
H1855 H 0.16855 0.65453 0.38299 0.0
H1856 H 0.21576 0.6534 0.50191 0.0
H1857 H 0.23312 0.61589 0.39298 0.0
H1858 H 0.24416 0.60462 0.31497 0.0
H1859 H 0.3068 0.62671 0.31677 0.0
H1860 H 0.29629 0.63799 0.39507 0.0
H1861 H 0.28651 0.64803 0.69362 0.0
H1862 H 0.26454 0.63558 0.6319 0.0
H1863 H 0.31092 0.64905 0.51948 0.0
H1864 H 0.33464 0.65959 0.58261 0.0
H1865 H 0.28841 0.62878 0.48297 0.0
H1866 H 0.26557 0.67131 0.572 0.0
H1867 H 0.25597 0.68391 0.64855 0.0
H1868 H 0.20393 0.65416 0.67881 0.0
H1869 H 0.21328 0.64143 0.60272 0.0
C1870 C 0.22062 0.66139 0.33728 0.0
C1871 C 0.19719 0.66202 0.34189 0.0
C1872 C 0.2334 0.65357 0.37023 0.0
C1873 C 0.22304 0.64623 0.40878 0.0
C1874 C 0.1994 0.64594 0.41091 0.0
C1875 C 0.18656 0.6539 0.37794 0.0
C1876 C 0.23683 0.64184 0.45198 0.0
C1877 C 0.23124 0.64756 0.49795 0.0
C1878 C 0.25744 0.63459 0.44697 0.0
C1879 C 0.26389 0.62778 0.39995 0.0
C1880 C 0.24925 0.61835 0.37674 0.0
C1881 C 0.25545 0.61192 0.33255 0.0
C1882 C 0.27614 0.61497 0.31085 0.0
C1883 C 0.29079 0.62434 0.33361 0.0
C1884 C 0.28478 0.63068 0.37809 0.0
C1885 C 0.29299 0.64727 0.65641 0.0
C1886 C 0.31259 0.65444 0.64308 0.0
C1887 C 0.28011 0.64046 0.62076 0.0
C1888 C 0.28532 0.64205 0.57054 0.0
C1889 C 0.30625 0.64779 0.5578 0.0
C1890 C 0.31991 0.6538 0.59402 0.0
C1891 C 0.2675 0.64069 0.53205 0.0
C1892 C 0.27245 0.63407 0.48713 0.0
C1893 C 0.24637 0.64737 0.53742 0.0
C1894 C 0.24022 0.65538 0.58206 0.0
C1895 C 0.25203 0.66752 0.59501 0.0
C1896 C 0.24666 0.67467 0.63835 0.0
C1897 C 0.22936 0.66984 0.66867 0.0
C1898 C 0.21731 0.65792 0.65547 0.0
C1899 C 0.22261 0.65074 0.61221 0.0
H1900 H 0.22529 0.67534 0.70232 0.0
H1901 H 0.28082 0.61007 0.27644 0.0
H1902 H 0.10871 0.44679 0.31201 0.0
H1903 H 0.11568 0.47039 0.28324 0.0
H1904 H 0.18651 0.46152 0.27305 0.0
H1905 H 0.17942 0.43751 0.30279 0.0
H1906 H 0.17462 0.48874 0.31734 0.0
H1907 H 0.16042 0.46255 0.17101 0.0
H1908 H 0.14064 0.44553 0.11861 0.0
H1909 H 0.08031 0.46984 0.12801 0.0
H1910 H 0.09958 0.48688 0.18117 0.0
H1911 H 0.17348 0.5566 0.19775 0.0
H1912 H 0.18188 0.5324 0.22207 0.0
H1913 H 0.11137 0.52238 0.21132 0.0
H1914 H 0.10338 0.5461 0.18504 0.0
H1915 H 0.13227 0.50345 0.1694 0.0
H1916 H 0.14229 0.52662 0.32456 0.0
H1917 H 0.15869 0.54319 0.38398 0.0
H1918 H 0.22373 0.52491 0.36254 0.0
H1919 H 0.20774 0.50833 0.30247 0.0
C1920 C 0.12581 0.44988 0.30397 0.0
C1921 C 0.14359 0.44048 0.31022 0.0
C1922 C 0.12977 0.46334 0.28734 0.0
C1923 C 0.15158 0.46769 0.27575 0.0
C1924 C 0.16955 0.45834 0.28191 0.0
C1925 C 0.16552 0.44468 0.2985 0.0
C1926 C 0.15475 0.48193 0.25568 0.0
C1927 C 0.16594 0.49197 0.28417 0.0
C1928 C 0.14311 0.48615 0.21283 0.0
C1929 C 0.13147 0.47597 0.18034 0.0
C1930 C 0.1429 0.46423 0.16219 0.0
C1931 C 0.13177 0.45457 0.13232 0.0
C1932 C 0.10922 0.45659 0.12005 0.0
C1933 C 0.09777 0.46828 0.13754 0.0
C1934 C 0.1088 0.47795 0.16751 0.0
C1935 C 0.15993 0.54913 0.20062 0.0
C1936 C 0.1379 0.55302 0.18838 0.0
C1937 C 0.16466 0.53536 0.21485 0.0
C1938 C 0.14727 0.52546 0.21865 0.0
C1939 C 0.12518 0.52966 0.20817 0.0
C1940 C 0.12059 0.54323 0.1931 0.0
C1941 C 0.15163 0.51056 0.23133 0.0
C1942 C 0.14175 0.50033 0.20143 0.0
C1943 C 0.1642 0.50628 0.27309 0.0
C1944 C 0.1739 0.5164 0.3084 0.0
C1945 C 0.16014 0.52625 0.33206 0.0
C1946 C 0.16934 0.53561 0.36597 0.0
C1947 C 0.19226 0.53515 0.37685 0.0
C1948 C 0.206 0.52529 0.35393 0.0
C1949 C 0.19688 0.51591 0.31995 0.0
H1950 H 0.19935 0.54239 0.40317 0.0
H1951 H 0.10064 0.4491 0.09694 0.0
H1952 H 0.13312 0.12488 0.97265 0.0
H1953 H 0.15387 0.1411 0.02606 0.0
H1954 H 0.21554 0.11983 0.98982 0.0
H1955 H 0.19467 0.10337 0.93829 0.0
H1956 H 0.20896 0.12031 0.08506 0.0
H1957 H 0.19687 0.15087 0.95191 0.0
H1958 H 0.18378 0.1677 0.89102 0.0
H1959 H 0.16945 0.19701 0.00611 0.0
H1960 H 0.17968 0.17956 0.06855 0.0
H1961 H 0.30335 0.15536 0.13758 0.0
H1962 H 0.26953 0.14775 0.09567 0.0
H1963 H 0.22899 0.17227 0.19359 0.0
H1964 H 0.26324 0.181 0.23472 0.0
H1965 H 0.21688 0.17167 0.08727 0.0
H1966 H 0.23188 0.13827 0.21883 0.0
H1967 H 0.2574 0.12329 0.26718 0.0
H1968 H 0.27749 0.10203 0.13509 0.0
H1969 H 0.25233 0.11694 0.08599 0.0
C1970 C 0.15121 0.124 0.97521 0.0
C1971 C 0.16248 0.11301 0.95159 0.0
C1972 C 0.16298 0.1332 0.00579 0.0
C1973 C 0.18617 0.13155 0.01251 0.0
C1974 C 0.19757 0.12115 0.98576 0.0
C1975 C 0.18577 0.11184 0.95603 0.0
C1976 C 0.19851 0.13951 0.05078 0.0
C1977 C 0.21038 0.13158 0.08555 0.0
C1978 C 0.19986 0.1543 0.05254 0.0
C1979 C 0.18925 0.16369 0.01538 0.0
C1980 C 0.19006 0.16056 0.96478 0.0
C1981 C 0.18312 0.17029 0.9298 0.0
C1982 C 0.17656 0.18357 0.94462 0.0
C1983 C 0.17492 0.18675 0.99465 0.0
C1984 C 0.18083 0.1768 0.02992 0.0
C1985 C 0.28736 0.15938 0.15016 0.0
C1986 C 0.28603 0.16886 0.1895 0.0
C1987 C 0.26815 0.15484 0.12643 0.0
C1988 C 0.24704 0.15898 0.14282 0.0
C1989 C 0.2453 0.16883 0.18092 0.0
C1990 C 0.26481 0.17382 0.20413 0.0
C1991 C 0.22733 0.15242 0.11944 0.0
C1992 C 0.21413 0.1605 0.08782 0.0
C1993 C 0.22518 0.13777 0.11889 0.0
C1994 C 0.23996 0.12861 0.14887 0.0
C1995 C 0.24169 0.13038 0.20017 0.0
C1996 C 0.25613 0.12191 0.22768 0.0
C1997 C 0.26888 0.11163 0.20424 0.0
C1998 C 0.26743 0.1099 0.15325 0.0
C1999 C 0.25303 0.11832 0.12561 0.0
H2000 H 0.27989 0.10499 0.22552 0.0
H2001 H 0.17303 0.19142 0.91722 0.0
H2002 H 0.25745 0.82105 0.27354 0.0
H2003 H 0.22477 0.83143 0.31558 0.0
H2004 H 0.26882 0.85076 0.42121 0.0
H2005 H 0.3012 0.84039 0.38075 0.0
H2006 H 0.20966 0.83262 0.42229 0.0
H2007 H 0.25217 0.8878 0.40971 0.0
H2008 H 0.27659 0.90112 0.35421 0.0
H2009 H 0.26024 0.87345 0.23518 0.0
H2010 H 0.23508 0.86019 0.28973 0.0
H2011 H 0.16599 0.88331 0.59525 0.0
H2012 H 0.1887 0.86669 0.54763 0.0
H2013 H 0.1691 0.88725 0.41288 0.0
H2014 H 0.14721 0.90389 0.45951 0.0
H2015 H 0.2114 0.88419 0.41351 0.0
H2016 H 0.14861 0.85641 0.45413 0.0
H2017 H 0.12148 0.84428 0.50726 0.0
H2018 H 0.17367 0.81704 0.55843 0.0
H2019 H 0.20105 0.82919 0.50767 0.0
C2020 C 0.26003 0.82714 0.30667 0.0
C2021 C 0.28185 0.83006 0.32347 0.0
C2022 C 0.24143 0.83311 0.33044 0.0
C2023 C 0.24462 0.84209 0.37077 0.0
C2024 C 0.2662 0.84405 0.3897 0.0
C2025 C 0.28462 0.8381 0.36644 0.0
C2026 C 0.22608 0.85047 0.39141 0.0
C2027 C 0.20982 0.8439 0.42054 0.0
C2028 C 0.22624 0.86516 0.38757 0.0
C2029 C 0.24199 0.87277 0.35447 0.0
C2030 C 0.25372 0.88451 0.37182 0.0
C2031 C 0.26766 0.89211 0.34042 0.0
C2032 C 0.26998 0.88814 0.29124 0.0
C2033 C 0.2585 0.87648 0.27343 0.0
C2034 C 0.24443 0.86888 0.30472 0.0
C2035 C 0.16658 0.88424 0.55548 0.0
C2036 C 0.15506 0.89507 0.53134 0.0
C2037 C 0.17944 0.87469 0.52827 0.0
C2038 C 0.1806 0.87569 0.47656 0.0
C2039 C 0.16864 0.88629 0.45267 0.0
C2040 C 0.15616 0.89587 0.4796 0.0
C2041 C 0.19533 0.86645 0.44678 0.0
C2042 C 0.21098 0.8729 0.41562 0.0
C2043 C 0.19421 0.85169 0.44819 0.0
C2044 C 0.17722 0.84411 0.47808 0.0
C2045 C 0.15443 0.84802 0.47753 0.0
C2046 C 0.13889 0.84106 0.50727 0.0
C2047 C 0.14577 0.82993 0.53679 0.0
C2048 C 0.16816 0.82567 0.53612 0.0
C2049 C 0.18376 0.83265 0.50695 0.0
H2050 H 0.13375 0.82453 0.55979 0.0
H2051 H 0.28049 0.89421 0.26693 0.0
H2052 H 0.31755 0.88913 0.37734 0.0
H2053 H 0.2909 0.87261 0.41495 0.0
H2054 H 0.33476 0.86795 0.54014 0.0
H2055 H 0.36097 0.8847 0.50378 0.0
H2056 H 0.30738 0.84164 0.48965 0.0
H2057 H 0.30502 0.8898 0.55778 0.0
H2058 H 0.29938 0.91504 0.54742 0.0
H2059 H 0.23293 0.90772 0.4918 0.0
H2060 H 0.23851 0.88239 0.50022 0.0
H2061 H 0.24215 0.81994 0.70054 0.0
H2062 H 0.26964 0.82816 0.63909 0.0
H2063 H 0.21675 0.8492 0.56021 0.0
H2064 H 0.18961 0.84118 0.62057 0.0
H2065 H 0.24746 0.86675 0.58019 0.0
H2066 H 0.24391 0.82295 0.50406 0.0
H2067 H 0.24364 0.79731 0.4981 0.0
H2068 H 0.31142 0.79599 0.55103 0.0
H2069 H 0.31208 0.82149 0.558 0.0
C2070 C 0.32156 0.88436 0.41244 0.0
C2071 C 0.34099 0.88822 0.43823 0.0
C2072 C 0.3064 0.875 0.43379 0.0
C2073 C 0.31081 0.8693 0.48044 0.0
C2074 C 0.33113 0.87229 0.50413 0.0
C2075 C 0.34595 0.88188 0.48356 0.0
C2076 C 0.29331 0.86166 0.50758 0.0
C2077 C 0.29435 0.84708 0.50987 0.0
C2078 C 0.27576 0.86881 0.53188 0.0
C2079 C 0.27254 0.88412 0.52776 0.0
C2080 C 0.28946 0.89351 0.54204 0.0
C2081 C 0.28621 0.90787 0.53686 0.0
C2082 C 0.26591 0.91298 0.51845 0.0
C2083 C 0.24873 0.90376 0.50567 0.0
C2084 C 0.25196 0.8894 0.51056 0.0
C2085 C 0.23642 0.82595 0.66916 0.0
C2086 C 0.21388 0.83006 0.66547 0.0
C2087 C 0.25206 0.83067 0.63418 0.0
C2088 C 0.24516 0.83941 0.59528 0.0
C2089 C 0.22241 0.8426 0.59007 0.0
C2090 C 0.20695 0.83797 0.6246 0.0
C2091 C 0.26157 0.84663 0.56315 0.0
C2092 C 0.26039 0.86121 0.56001 0.0
C2093 C 0.27816 0.83945 0.5361 0.0
C2094 C 0.27796 0.8241 0.53211 0.0
C2095 C 0.2587 0.81714 0.5149 0.0
C2096 C 0.25851 0.80262 0.51123 0.0
C2097 C 0.27753 0.79497 0.52434 0.0
C2098 C 0.29675 0.80185 0.54097 0.0
C2099 C 0.29706 0.81635 0.54476 0.0
H2100 H 0.27741 0.78372 0.52147 0.0
H2101 H 0.26342 0.9241 0.51449 0.0
H2102 H 0.23552 0.16126 0.75421 0.0
H2103 H 0.26326 0.15156 0.8092 0.0
H2104 H 0.23776 0.17715 0.92743 0.0
H2105 H 0.21146 0.18821 0.86967 0.0
H2106 H 0.27837 0.17267 0.94398 0.0
H2107 H 0.21918 0.14286 0.89495 0.0
H2108 H 0.19412 0.12892 0.8423 0.0
H2109 H 0.25019 0.10421 0.79518 0.0
H2110 H 0.2755 0.11805 0.84783 0.0
H2111 H 0.32409 0.11934 0.11616 0.0
H2112 H 0.29964 0.13627 0.07491 0.0
H2113 H 0.32298 0.12197 0.93343 0.0
H2114 H 0.34692 0.10503 0.97374 0.0
H2115 H 0.27841 0.12112 0.93989 0.0
H2116 H 0.33683 0.15264 0.00317 0.0
H2117 H 0.35596 0.1666 0.06642 0.0
H2118 H 0.29539 0.18957 0.09322 0.0
H2119 H 0.27532 0.17503 0.03337 0.0
C2120 C 0.23642 0.16538 0.79101 0.0
C2121 C 0.22107 0.17539 0.80782 0.0
C2122 C 0.25208 0.15956 0.82298 0.0
C2123 C 0.25179 0.16301 0.87316 0.0
C2124 C 0.23801 0.17405 0.88903 0.0
C2125 C 0.22299 0.18037 0.85616 0.0
C2126 C 0.26477 0.15451 0.90904 0.0
C2127 C 0.27817 0.16137 0.9438 0.0
C2128 C 0.26434 0.13973 0.90858 0.0
C2129 C 0.24921 0.13153 0.8758 0.0
C2130 C 0.22611 0.13444 0.87366 0.0
C2131 C 0.21188 0.12656 0.84366 0.0
C2132 C 0.22055 0.11566 0.81546 0.0
C2133 C 0.24347 0.11265 0.81716 0.0
C2134 C 0.25776 0.1205 0.8472 0.0
C2135 C 0.32404 0.11991 0.07627 0.0
C2136 C 0.33711 0.11067 0.04819 0.0
C2137 C 0.31005 0.12964 0.05273 0.0
C2138 C 0.30922 0.13041 0.00099 0.0
C2139 C 0.32309 0.12155 0.97336 0.0
C2140 C 0.33672 0.11179 0.99654 0.0
C2141 C 0.29282 0.13928 0.97399 0.0
C2142 C 0.27851 0.13242 0.94072 0.0
C2143 C 0.29188 0.15404 0.97716 0.0
C2144 C 0.30433 0.16238 0.0144 0.0
C2145 C 0.32734 0.16035 0.02347 0.0
C2146 C 0.33839 0.16844 0.05882 0.0
C2147 C 0.32679 0.17889 0.08411 0.0
C2148 C 0.3043 0.18145 0.07367 0.0
C2149 C 0.29304 0.17315 0.03953 0.0
H2150 H 0.33497 0.18498 0.11218 0.0
H2151 H 0.20951 0.10955 0.79226 0.0
H2152 H 0.83176 0.87987 0.10035 0.0
H2153 H 0.80457 0.8648 0.05767 0.0
H2154 H 0.80772 0.89155 0.92997 0.0
H2155 H 0.8337 0.90666 0.97201 0.0
H2156 H 0.76775 0.8849 0.94097 0.0
H2157 H 0.83642 0.86125 0.93579 0.0
H2158 H 0.87105 0.85133 0.97088 0.0
H2159 H 0.83208 0.82097 0.04976 0.0
H2160 H 0.7974 0.83067 0.01471 0.0
H2161 H 0.73485 0.82691 0.76734 0.0
H2162 H 0.76533 0.83579 0.82025 0.0
H2163 H 0.71692 0.84723 0.93082 0.0
H2164 H 0.68655 0.83873 0.87829 0.0
H2165 H 0.78099 0.83405 0.92441 0.0
H2166 H 0.72536 0.88521 0.93529 0.0
H2167 H 0.69975 0.89858 0.88198 0.0
H2168 H 0.72487 0.87701 0.7549 0.0
H2169 H 0.75142 0.8641 0.80712 0.0
C2170 C 0.82642 0.88258 0.06341 0.0
C2171 C 0.8351 0.89445 0.03968 0.0
C2172 C 0.81098 0.87393 0.03896 0.0
C2173 C 0.8042 0.87699 0.99038 0.0
C2174 C 0.81251 0.88898 0.96742 0.0
C2175 C 0.82761 0.8976 0.99168 0.0
C2176 C 0.7889 0.86772 0.96212 0.0
C2177 C 0.77056 0.87377 0.93778 0.0
C2178 C 0.79333 0.85334 0.95537 0.0
C2179 C 0.81427 0.84689 0.97379 0.0
C2180 C 0.83527 0.85248 0.96077 0.0
C2181 C 0.85495 0.84687 0.98045 0.0
C2182 C 0.85384 0.83558 0.01278 0.0
C2183 C 0.83306 0.82971 0.02476 0.0
C2184 C 0.81336 0.83525 0.00494 0.0
C2185 C 0.73089 0.8309 0.80365 0.0
C2186 C 0.70847 0.83241 0.81858 0.0
C2187 C 0.74824 0.83593 0.83379 0.0
C2188 C 0.74313 0.84246 0.87878 0.0
C2189 C 0.72097 0.84252 0.89572 0.0
C2190 C 0.70373 0.83766 0.86574 0.0
C2191 C 0.75975 0.85128 0.90442 0.0
C2192 C 0.77817 0.84516 0.92813 0.0
C2193 C 0.75656 0.86587 0.90719 0.0
C2194 C 0.73994 0.87331 0.87567 0.0
C2195 C 0.72538 0.88327 0.8961 0.0
C2196 C 0.71077 0.89085 0.86596 0.0
C2197 C 0.71039 0.88848 0.81519 0.0
C2198 C 0.7249 0.8787 0.79436 0.0
C2199 C 0.73975 0.87124 0.82429 0.0
H2200 H 0.699 0.89432 0.79198 0.0
H2201 H 0.86914 0.83142 0.02836 0.0
H2202 H 0.69141 0.15908 0.61624 0.0
H2203 H 0.72224 0.15021 0.56687 0.0
H2204 H 0.76959 0.16433 0.67612 0.0
H2205 H 0.73848 0.17404 0.72513 0.0
H2206 H 0.78895 0.16571 0.5906 0.0
H2207 H 0.74932 0.13131 0.67369 0.0
H2208 H 0.72055 0.11548 0.70664 0.0
H2209 H 0.70653 0.10054 0.5607 0.0
H2210 H 0.73439 0.11682 0.52644 0.0
H2211 H 0.85602 0.10364 0.53175 0.0
H2212 H 0.83092 0.12007 0.57266 0.0
H2213 H 0.80114 0.13068 0.43272 0.0
H2214 H 0.82669 0.11435 0.39089 0.0
H2215 H 0.77551 0.11715 0.535 0.0
H2216 H 0.8205 0.15645 0.46192 0.0
H2217 H 0.85995 0.16336 0.44805 0.0
H2218 H 0.87299 0.1604 0.60326 0.0
H2219 H 0.83374 0.15349 0.61803 0.0
C2220 C 0.70842 0.16057 0.62936 0.0
C2221 C 0.71261 0.16717 0.67455 0.0
C2222 C 0.72597 0.1554 0.60129 0.0
C2223 C 0.74808 0.15616 0.6185 0.0
C2224 C 0.7526 0.16352 0.66225 0.0
C2225 C 0.73488 0.16908 0.69014 0.0
C2226 C 0.76579 0.14835 0.59184 0.0
C2227 C 0.78584 0.15512 0.57845 0.0
C2228 C 0.76231 0.13429 0.57726 0.0
C2229 C 0.74386 0.12547 0.5973 0.0
C2230 C 0.73974 0.12493 0.64836 0.0
C2231 C 0.7236 0.11583 0.66735 0.0
C2232 C 0.71174 0.10698 0.63582 0.0
C2233 C 0.71577 0.10736 0.58513 0.0
C2234 C 0.73157 0.11664 0.56585 0.0
C2235 C 0.84426 0.10955 0.50955 0.0
C2236 C 0.84304 0.10762 0.45826 0.0
C2237 C 0.83012 0.11898 0.53293 0.0
C2238 C 0.81439 0.12652 0.50551 0.0
C2239 C 0.81341 0.12495 0.45415 0.0
C2240 C 0.8279 0.11565 0.43047 0.0
C2241 C 0.79743 0.13477 0.53179 0.0
C2242 C 0.77785 0.12793 0.54594 0.0
C2243 C 0.80192 0.1483 0.54932 0.0
C2244 C 0.82417 0.15468 0.54113 0.0
C2245 C 0.83168 0.15761 0.49314 0.0
C2246 C 0.85399 0.1615 0.48512 0.0
C2247 C 0.86883 0.16259 0.52479 0.0
C2248 C 0.86138 0.15983 0.57263 0.0
C2249 C 0.83909 0.15601 0.58091 0.0
H2250 H 0.88617 0.16541 0.51835 0.0
H2251 H 0.69939 0.09986 0.65063 0.0
H2252 H 0.63054 0.10914 0.47966 0.0
H2253 H 0.64972 0.1275 0.43418 0.0
H2254 H 0.69062 0.13622 0.5618 0.0
H2255 H 0.66957 0.11887 0.60909 0.0
H2256 H 0.68929 0.15862 0.51166 0.0
H2257 H 0.70523 0.11118 0.46619 0.0
H2258 H 0.69616 0.08731 0.43924 0.0
H2259 H 0.66885 0.10329 0.30402 0.0
H2260 H 0.67756 0.12729 0.33054 0.0
H2261 H 0.79479 0.16358 0.38659 0.0
H2262 H 0.76213 0.15548 0.43235 0.0
H2263 H 0.71851 0.17138 0.31851 0.0
H2264 H 0.75157 0.17953 0.2718 0.0
H2265 H 0.71844 0.13901 0.35484 0.0
H2266 H 0.69863 0.18787 0.41985 0.0
H2267 H 0.71616 0.2102 0.44397 0.0
H2268 H 0.7618 0.18837 0.53926 0.0
H2269 H 0.74483 0.166 0.51446 0.0
C2270 C 0.64347 0.11511 0.49818 0.0
C2271 C 0.64946 0.11212 0.54713 0.0
C2272 C 0.65446 0.12561 0.47214 0.0
C2273 C 0.6726 0.13276 0.49349 0.0
C2274 C 0.67713 0.13068 0.54387 0.0
C2275 C 0.66533 0.1206 0.57076 0.0
C2276 C 0.68823 0.141 0.46195 0.0
C2277 C 0.69548 0.15429 0.47738 0.0
C2278 C 0.69671 0.13546 0.417 0.0
C2279 C 0.69189 0.12102 0.40054 0.0
C2280 C 0.69729 0.1096 0.43076 0.0
C2281 C 0.69218 0.09605 0.41559 0.0
C2282 C 0.6819 0.09378 0.36996 0.0
C2283 C 0.67679 0.10506 0.33936 0.0
C2284 C 0.68182 0.11864 0.35444 0.0
C2285 C 0.77821 0.16566 0.37184 0.0
C2286 C 0.77557 0.17219 0.32586 0.0
C2287 C 0.75962 0.16102 0.39795 0.0
C2288 C 0.73805 0.16286 0.37863 0.0
C2289 C 0.73515 0.16994 0.33379 0.0
C2290 C 0.75391 0.1747 0.30754 0.0
C2291 C 0.71899 0.15641 0.40453 0.0
C2292 C 0.71149 0.1434 0.38838 0.0
C2293 C 0.71102 0.16192 0.44925 0.0
C2294 C 0.71983 0.17537 0.46725 0.0
C2295 C 0.71217 0.18791 0.44652 0.0
C2296 C 0.72218 0.20055 0.45978 0.0
C2297 C 0.73996 0.20073 0.49344 0.0
C2298 C 0.74784 0.18826 0.51369 0.0
C2299 C 0.73791 0.17562 0.50039 0.0
H2300 H 0.74767 0.21051 0.50372 0.0
H2301 H 0.67792 0.08329 0.35829 0.0
H2302 H 0.64777 0.90045 0.03509 0.0
H2303 H 0.66891 0.8829 0.0804 0.0
H2304 H 0.68918 0.86404 0.94307 0.0
H2305 H 0.66658 0.88083 0.89787 0.0
H2306 H 0.68618 0.84458 0.00308 0.0
H2307 H 0.72414 0.88954 0.01764 0.0
H2308 H 0.72683 0.91447 0.03896 0.0
H2309 H 0.70888 0.9051 0.18865 0.0
H2310 H 0.70581 0.88013 0.16773 0.0
H2311 H 0.80345 0.8373 0.1131 0.0
H2312 H 0.77203 0.84599 0.06445 0.0
H2313 H 0.72565 0.82531 0.16175 0.0
H2314 H 0.75736 0.81658 0.21147 0.0
H2315 H 0.73949 0.86288 0.12776 0.0
H2316 H 0.68454 0.81845 0.07271 0.0
H2317 H 0.68655 0.79421 0.04209 0.0
H2318 H 0.74642 0.8041 0.96134 0.0
H2319 H 0.74505 0.82826 0.99262 0.0
C2320 C 0.65672 0.89255 0.0145 0.0
C2321 C 0.65608 0.89235 0.96267 0.0
C2322 C 0.66895 0.88253 0.04052 0.0
C2323 C 0.68159 0.87241 0.01534 0.0
C2324 C 0.67998 0.87178 0.96369 0.0
C2325 C 0.66718 0.88154 0.9377 0.0
C2326 C 0.69727 0.86296 0.04232 0.0
C2327 C 0.6977 0.84865 0.03051 0.0
C2328 C 0.71256 0.86807 0.0782 0.0
C2329 C 0.71441 0.88304 0.09084 0.0
C2330 C 0.72056 0.89284 0.05486 0.0
C2331 C 0.7222 0.90696 0.06693 0.0
C2332 C 0.71794 0.91138 0.1151 0.0
C2333 C 0.71212 0.90167 0.15131 0.0
C2334 C 0.71043 0.88754 0.13935 0.0
C2335 C 0.78661 0.83414 0.12316 0.0
C2336 C 0.78282 0.8263 0.16612 0.0
C2337 C 0.76871 0.83909 0.09523 0.0
C2338 C 0.74663 0.83626 0.10947 0.0
C2339 C 0.74267 0.82745 0.14995 0.0
C2340 C 0.76074 0.82245 0.1782 0.0
C2341 C 0.72844 0.84478 0.08786 0.0
C2342 C 0.72758 0.85888 0.10096 0.0
C2343 C 0.71339 0.8396 0.05229 0.0
C2344 C 0.7147 0.82506 0.03499 0.0
C2345 C 0.69817 0.81539 0.04863 0.0
C2346 C 0.69925 0.80168 0.03133 0.0
C2347 C 0.71663 0.79762 0.99987 0.0
C2348 C 0.73306 0.80723 0.98596 0.0
C2349 C 0.73222 0.8209 0.00369 0.0
H2350 H 0.71734 0.78704 0.98622 0.0
H2351 H 0.71921 0.92231 0.12441 0.0
H2352 H 0.64224 0.63334 0.40335 0.0
H2353 H 0.66046 0.65172 0.4527 0.0
H2354 H 0.71063 0.62219 0.49981 0.0
H2355 H 0.69245 0.60393 0.45186 0.0
H2356 H 0.68336 0.63489 0.57584 0.0
H2357 H 0.72221 0.65166 0.37901 0.0
H2358 H 0.73169 0.64665 0.31971 0.0
H2359 H 0.74505 0.6998 0.40933 0.0
H2360 H 0.72127 0.68837 0.482 0.0
H2361 H 0.7888 0.64986 0.66868 0.0
H2362 H 0.75674 0.64423 0.61771 0.0
H2363 H 0.72977 0.68537 0.64057 0.0
H2364 H 0.76208 0.69119 0.69351 0.0
H2365 H 0.73502 0.67351 0.53673 0.0
H2366 H 0.70142 0.66277 0.69303 0.0
H2367 H 0.70324 0.65227 0.77596 0.0
H2368 H 0.71427 0.61196 0.71181 0.0
H2369 H 0.71286 0.62223 0.62858 0.0
C2370 C 0.65756 0.63092 0.42312 0.0
C2371 C 0.66586 0.61717 0.42411 0.0
C2372 C 0.66783 0.64141 0.45147 0.0
C2373 C 0.68672 0.63827 0.48038 0.0
C2374 C 0.69595 0.62481 0.4781 0.0
C2375 C 0.6856 0.61438 0.45053 0.0
C2376 C 0.69582 0.6481 0.51763 0.0
C2377 C 0.69397 0.64374 0.56705 0.0
C2378 C 0.7093 0.65993 0.50607 0.0
C2379 C 0.71412 0.66484 0.45458 0.0
C2380 C 0.71568 0.652 0.41111 0.0
C2381 C 0.72985 0.65494 0.35344 0.0
C2382 C 0.74564 0.68061 0.35216 0.0
C2383 C 0.73911 0.68926 0.40484 0.0
C2384 C 0.72426 0.68164 0.45072 0.0
C2385 C 0.77604 0.65776 0.66383 0.0
C2386 C 0.77806 0.671 0.68586 0.0
C2387 C 0.75763 0.65446 0.6345 0.0
C2388 C 0.74074 0.66429 0.62603 0.0
C2389 C 0.74259 0.67759 0.64723 0.0
C2390 C 0.76103 0.68089 0.67741 0.0
C2391 C 0.72196 0.66052 0.59264 0.0
C2392 C 0.72227 0.66582 0.54461 0.0
C2393 C 0.70713 0.64961 0.60448 0.0
C2394 C 0.70693 0.64329 0.65449 0.0
C2395 C 0.70422 0.65167 0.6966 0.0
C2396 C 0.70522 0.64576 0.74368 0.0
C2397 C 0.70884 0.63146 0.74914 0.0
C2398 C 0.71139 0.62303 0.70753 0.0
C2399 C 0.71042 0.62889 0.66038 0.0
H2400 H 0.7097 0.62692 0.78562 0.0
H2401 H 0.75527 0.68643 0.32467 0.0
H2402 H 0.66996 0.40533 0.00875 0.0
H2403 H 0.68801 0.38565 0.96849 0.0
H2404 H 0.66278 0.35801 0.08092 0.0
H2405 H 0.64468 0.37776 0.12199 0.0
H2406 H 0.70291 0.3503 0.05927 0.0
H2407 H 0.63931 0.35461 0.96766 0.0
H2408 H 0.6073 0.36586 0.92601 0.0
H2409 H 0.65198 0.38387 0.8195 0.0
H2410 H 0.68422 0.37266 0.86026 0.0
H2411 H 0.77528 0.31555 0.84246 0.0
H2412 H 0.73778 0.31936 0.89479 0.0
H2413 H 0.77314 0.37404 0.89739 0.0
H2414 H 0.80593 0.36215 0.84322 0.0
H2415 H 0.69853 0.34819 0.87733 0.0
H2416 H 0.75771 0.32654 0.98394 0.0
H2417 H 0.77154 0.30758 0.03428 0.0
H2418 H 0.70959 0.30677 0.11438 0.0
H2419 H 0.69503 0.32581 0.06401 0.0
C2420 C 0.66833 0.39511 0.02525 0.0
C2421 C 0.65572 0.39315 0.06848 0.0
C2422 C 0.67847 0.38382 0.00186 0.0
C2423 C 0.67618 0.37029 0.02087 0.0
C2424 C 0.66452 0.36833 0.06526 0.0
C2425 C 0.65432 0.37966 0.08884 0.0
C2426 C 0.6868 0.35849 0.99448 0.0
C2427 C 0.70212 0.34996 0.01934 0.0
C2428 C 0.6835 0.35638 0.94342 0.0
C2429 C 0.66422 0.36281 0.91722 0.0
C2430 C 0.64231 0.36098 0.93536 0.0
C2431 C 0.62412 0.36733 0.91185 0.0
C2432 C 0.62761 0.37559 0.87016 0.0
C2433 C 0.6493 0.37743 0.85171 0.0
C2434 C 0.66755 0.37101 0.87489 0.0
C2435 C 0.77258 0.32598 0.85623 0.0
C2436 C 0.79225 0.33821 0.84038 0.0
C2437 C 0.74876 0.32816 0.8898 0.0
C2438 C 0.74125 0.34405 0.91407 0.0
C2439 C 0.77162 0.36288 0.88988 0.0
C2440 C 0.79244 0.3555 0.85562 0.0
C2441 C 0.71872 0.34355 0.94151 0.0
C2442 C 0.69951 0.34863 0.91716 0.0
C2443 C 0.71661 0.34104 0.99311 0.0
C2444 C 0.72534 0.32835 0.01978 0.0
C2445 C 0.74672 0.32255 0.01142 0.0
C2446 C 0.75486 0.31166 0.04064 0.0
C2447 C 0.74161 0.30608 0.07805 0.0
C2448 C 0.72005 0.31123 0.08584 0.0
C2449 C 0.71193 0.32218 0.05695 0.0
H2450 H 0.74795 0.29765 0.10062 0.0
H2451 H 0.61351 0.38056 0.85216 0.0
H2452 H 0.74303 0.31525 0.20568 0.0
H2453 H 0.77459 0.32374 0.15563 0.0
H2454 H 0.74309 0.36401 0.14485 0.0
H2455 H 0.71184 0.35582 0.19393 0.0
H2456 H 0.7492 0.34793 0.05584 0.0
H2457 H 0.78611 0.37142 0.18122 0.0
H2458 H 0.80416 0.37651 0.26106 0.0
H2459 H 0.85166 0.3436 0.23639 0.0
H2460 H 0.8339 0.33838 0.1563 0.0
H2461 H 0.81053 0.40018 0.95817 0.0
H2462 H 0.78983 0.38281 0.00461 0.0
H2463 H 0.83848 0.35152 0.96481 0.0
H2464 H 0.8592 0.36903 0.91622 0.0
H2465 H 0.82838 0.36067 0.07783 0.0
H2466 H 0.79087 0.33516 0.92978 0.0
H2467 H 0.75589 0.34384 0.8043 0.0
H2468 H 0.71928 0.37786 0.90201 0.0
H2469 H 0.73983 0.36769 0.93396 0.0
C2470 C 0.74311 0.32601 0.19372 0.0
C2471 C 0.72467 0.33475 0.20334 0.0
C2472 C 0.76127 0.33088 0.16564 0.0
C2473 C 0.76125 0.34456 0.14728 0.0
C2474 C 0.74358 0.3535 0.15942 0.0
C2475 C 0.72555 0.34869 0.18713 0.0
C2476 C 0.77638 0.34856 0.10661 0.0
C2477 C 0.767 0.34927 0.05952 0.0
C2478 C 0.79902 0.35228 0.1134 0.0
C2479 C 0.80854 0.35441 0.16312 0.0
C2480 C 0.80022 0.36515 0.19318 0.0
C2481 C 0.81054 0.36817 0.2382 0.0
C2482 C 0.82908 0.3604 0.25376 0.0
C2483 C 0.8373 0.34961 0.22429 0.0
C2484 C 0.82717 0.34665 0.17897 0.0
C2485 C 0.81647 0.38954 0.95776 0.0
C2486 C 0.83643 0.38594 0.93364 0.0
C2487 C 0.80464 0.37962 0.98436 0.0
C2488 C 0.8127 0.36595 0.98803 0.0
C2489 C 0.832 0.36204 0.96196 0.0
C2490 C 0.84368 0.37199 0.93417 0.0
C2491 C 0.80217 0.35676 0.02473 0.0
C2492 C 0.81167 0.35647 0.07224 0.0
C2493 C 0.77986 0.3524 0.01806 0.0
C2494 C 0.76872 0.35308 0.9695 0.0
C2495 C 0.77738 0.34258 0.92195 0.0
C2496 C 0.75509 0.34817 0.84157 0.0
C2497 C 0.73622 0.36114 0.85109 0.0
C2498 C 0.7333 0.36913 0.90724 0.0
C2499 C 0.74838 0.36518 0.96238 0.0
H2500 H 0.72591 0.3646 0.82064 0.0
H2501 H 0.83702 0.36272 0.28871 0.0
H2502 H 0.73711 0.66742 0.23916 0.0
H2503 H 0.77489 0.65874 0.28004 0.0
H2504 H 0.75411 0.66397 0.44909 0.0
H2505 H 0.69591 0.67717 0.38712 0.0
H2506 H 0.79525 0.66961 0.43491 0.0
H2507 H 0.75258 0.62445 0.39043 0.0
H2508 H 0.72938 0.61205 0.32898 0.0
H2509 H 0.77559 0.62365 0.21464 0.0
H2510 H 0.79915 0.63599 0.27575 0.0
H2511 H 0.82747 0.61396 0.59688 0.0
H2512 H 0.80726 0.63083 0.54496 0.0
H2513 H 0.85043 0.62063 0.42239 0.0
H2514 H 0.86996 0.60362 0.4731 0.0
H2515 H 0.80741 0.61981 0.39616 0.0
H2516 H 0.85406 0.65083 0.49663 0.0
H2517 H 0.86667 0.66235 0.57308 0.0
H2518 H 0.80009 0.67783 0.59779 0.0
H2519 H 0.78665 0.66563 0.52392 0.0
C2520 C 0.73751 0.66777 0.27883 0.0
C2521 C 0.71369 0.67337 0.30779 0.0
C2522 C 0.76196 0.66202 0.30538 0.0
C2523 C 0.76798 0.66059 0.36662 0.0
C2524 C 0.7491 0.66544 0.41059 0.0
C2525 C 0.71196 0.674 0.37103 0.0
C2526 C 0.78758 0.65295 0.38529 0.0
C2527 C 0.79847 0.65879 0.42598 0.0
C2528 C 0.79104 0.63875 0.37413 0.0
C2529 C 0.77731 0.63131 0.33723 0.0
C2530 C 0.75777 0.6243 0.35215 0.0
C2531 C 0.74459 0.61729 0.31746 0.0
C2532 C 0.75094 0.61713 0.26787 0.0
C2533 C 0.77063 0.62385 0.25301 0.0
C2534 C 0.78392 0.63083 0.28764 0.0
C2535 C 0.83266 0.61545 0.55899 0.0
C2536 C 0.85003 0.60741 0.53876 0.0
C2537 C 0.82123 0.62509 0.52944 0.0
C2538 C 0.82749 0.62701 0.47987 0.0
C2539 C 0.84528 0.61926 0.46039 0.0
C2540 C 0.85637 0.60953 0.48944 0.0
C2541 C 0.81491 0.63648 0.44696 0.0
C2542 C 0.80528 0.63081 0.40411 0.0
C2543 C 0.81132 0.65066 0.4583 0.0
C2544 C 0.81931 0.65717 0.50474 0.0
C2545 C 0.84197 0.65636 0.51908 0.0
C2546 C 0.84923 0.66299 0.56211 0.0
C2547 C 0.83406 0.6706 0.59061 0.0
C2548 C 0.81166 0.67165 0.5763 0.0
C2549 C 0.80419 0.66482 0.53403 0.0
H2550 H 0.83957 0.67575 0.6237 0.0
H2551 H 0.74066 0.61177 0.241 0.0
H2552 H 0.32528 0.38375 0.62231 0.0
H2553 H 0.30286 0.36646 0.57668 0.0
H2554 H 0.31419 0.38935 0.44207 0.0
H2555 H 0.33539 0.40664 0.48678 0.0
H2556 H 0.27374 0.38356 0.44572 0.0
H2557 H 0.34081 0.35968 0.4796 0.0
H2558 H 0.37107 0.34864 0.5271 0.0
H2559 H 0.32562 0.31685 0.57587 0.0
H2560 H 0.29484 0.32796 0.53064 0.0
H2561 H 0.24029 0.32527 0.28001 0.0
H2562 H 0.27059 0.33421 0.33334 0.0
H2563 H 0.22192 0.3449 0.44438 0.0
H2564 H 0.19173 0.33632 0.39122 0.0
H2565 H 0.28379 0.33229 0.44696 0.0
H2566 H 0.2293 0.38277 0.43782 0.0
H2567 H 0.20603 0.39596 0.37918 0.0
H2568 H 0.2376 0.37479 0.25826 0.0
H2569 H 0.26163 0.36188 0.31623 0.0
C2570 C 0.32276 0.38512 0.58306 0.0
C2571 C 0.33193 0.39674 0.5585 0.0
C2572 C 0.3101 0.37517 0.55694 0.0
C2573 C 0.30681 0.37654 0.50573 0.0
C2574 C 0.31621 0.38805 0.48151 0.0
C2575 C 0.32837 0.39802 0.50741 0.0
C2576 C 0.29283 0.36659 0.47664 0.0
C2577 C 0.27605 0.37234 0.44651 0.0
C2578 C 0.29628 0.35191 0.47593 0.0
C2579 C 0.31507 0.34509 0.50311 0.0
C2580 C 0.33698 0.35059 0.50163 0.0
C2581 C 0.35434 0.34426 0.52812 0.0
C2582 C 0.35024 0.33215 0.55515 0.0
C2583 C 0.32882 0.32628 0.55535 0.0
C2584 C 0.31135 0.33266 0.52941 0.0
C2585 C 0.23625 0.32901 0.31662 0.0
C2586 C 0.21377 0.33017 0.33161 0.0
C2587 C 0.25351 0.33412 0.34698 0.0
C2588 C 0.24832 0.34044 0.39232 0.0
C2589 C 0.22612 0.34027 0.40918 0.0
C2590 C 0.20895 0.33531 0.37893 0.0
C2591 C 0.26478 0.34942 0.41815 0.0
C2592 C 0.28177 0.34351 0.44725 0.0
C2593 C 0.26246 0.36405 0.4165 0.0
C2594 C 0.24693 0.37109 0.38165 0.0
C2595 C 0.23122 0.38087 0.39884 0.0
C2596 C 0.21794 0.38836 0.36565 0.0
C2597 C 0.22013 0.38611 0.31505 0.0
C2598 C 0.23571 0.37642 0.29752 0.0
C2599 C 0.24913 0.36898 0.33059 0.0
H2600 H 0.20987 0.39197 0.28948 0.0
H2601 H 0.36373 0.32723 0.57533 0.0
H2602 H 0.36014 0.62243 0.98917 0.0
H2603 H 0.33951 0.64144 0.02806 0.0
H2604 H 0.29346 0.64232 0.90552 0.0
H2605 H 0.31486 0.62352 0.86499 0.0
H2606 H 0.29981 0.66938 0.95385 0.0
H2607 H 0.28619 0.62101 0.99118 0.0
H2608 H 0.29703 0.59746 0.01772 0.0
H2609 H 0.31391 0.6131 0.16129 0.0
H2610 H 0.30432 0.63693 0.13479 0.0
H2611 H 0.19475 0.6723 0.10106 0.0
H2612 H 0.22433 0.66717 0.04196 0.0
H2613 H 0.27419 0.6805 0.14699 0.0
H2614 H 0.24427 0.68553 0.20725 0.0
H2615 H 0.26769 0.64876 0.10605 0.0
H2616 H 0.30664 0.69449 0.00997 0.0
H2617 H 0.29809 0.71876 0.98527 0.0
H2618 H 0.22939 0.70771 0.96069 0.0
H2619 H 0.23715 0.68372 0.98706 0.0
C2620 C 0.34592 0.62692 0.96993 0.0
C2621 C 0.33865 0.62133 0.92483 0.0
C2622 C 0.33431 0.63787 0.99191 0.0
C2623 C 0.31474 0.64314 0.97002 0.0
C2624 C 0.30855 0.63841 0.92283 0.0
C2625 C 0.32057 0.62758 0.90008 0.0
C2626 C 0.29873 0.65123 0.00063 0.0
C2627 C 0.29271 0.66487 0.98701 0.0
C2628 C 0.28962 0.64535 0.04428 0.0
C2629 C 0.29494 0.63089 0.06056 0.0
C2630 C 0.29271 0.61953 0.02805 0.0
C2631 C 0.29864 0.6061 0.0431 0.0
C2632 C 0.30628 0.60379 0.09109 0.0
C2633 C 0.30806 0.61492 0.12405 0.0
C2634 C 0.30248 0.62841 0.10893 0.0
C2635 C 0.21197 0.67465 0.1109 0.0
C2636 C 0.21734 0.67928 0.15852 0.0
C2637 C 0.22884 0.67188 0.07686 0.0
C2638 C 0.2514 0.67375 0.08961 0.0
C2639 C 0.2568 0.67929 0.13613 0.0
C2640 C 0.23978 0.68215 0.17044 0.0
C2641 C 0.26869 0.66682 0.05924 0.0
C2642 C 0.27492 0.6533 0.07305 0.0
C2643 C 0.2777 0.67276 0.01589 0.0
C2644 C 0.27249 0.68729 0.00119 0.0
C2645 C 0.28968 0.69728 0.99966 0.0
C2646 C 0.28495 0.71099 0.9854 0.0
C2647 C 0.26324 0.71475 0.9716 0.0
C2648 C 0.24613 0.70484 0.97225 0.0
C2649 C 0.25063 0.69123 0.98756 0.0
H2650 H 0.25969 0.72534 0.96024 0.0
H2651 H 0.3107 0.59337 0.10282 0.0
H2652 H 0.27732 0.64206 0.78619 0.0
H2653 H 0.24671 0.63483 0.84029 0.0
H2654 H 0.2475 0.67502 0.90995 0.0
H2655 H 0.2787 0.6824 0.85657 0.0
H2656 H 0.25232 0.64497 0.97178 0.0
H2657 H 0.20709 0.67473 0.86962 0.0
H2658 H 0.19308 0.68451 0.79143 0.0
H2659 H 0.17037 0.64399 0.74661 0.0
H2660 H 0.18475 0.6339 0.82408 0.0
H2661 H 0.15024 0.62112 0.10075 0.0
H2662 H 0.1722 0.63845 0.05525 0.0
H2663 H 0.19198 0.60699 0.95063 0.0
H2664 H 0.17004 0.5896 0.99529 0.0
H2665 H 0.17364 0.63804 0.91683 0.0
H2666 H 0.24277 0.61205 0.00116 0.0
H2667 H 0.25303 0.60044 0.0794 0.0
H2668 H 0.22416 0.63423 0.16118 0.0
H2669 H 0.21259 0.64548 0.08361 0.0
C2670 C 0.27096 0.64941 0.813 0.0
C2671 C 0.28052 0.66274 0.8176 0.0
C2672 C 0.25347 0.64527 0.84378 0.0
C2673 C 0.24531 0.65433 0.87996 0.0
C2674 C 0.25414 0.66784 0.88333 0.0
C2675 C 0.27162 0.67208 0.85224 0.0
C2676 C 0.22803 0.64928 0.91476 0.0
C2677 C 0.23497 0.64391 0.96051 0.0
C2678 C 0.20549 0.64761 0.89958 0.0
C2679 C 0.19721 0.65354 0.85247 0.0
C2680 C 0.19941 0.66787 0.8428 0.0
C2681 C 0.19131 0.67348 0.79869 0.0
C2682 C 0.1808 0.66489 0.76414 0.0
C2683 C 0.17847 0.65064 0.77349 0.0
C2684 C 0.18661 0.64497 0.81747 0.0
C2685 C 0.15933 0.61786 0.06817 0.0
C2686 C 0.15843 0.60395 0.05174 0.0
C2687 C 0.17166 0.62781 0.04205 0.0
C2688 C 0.18338 0.62397 0.99942 0.0
C2689 C 0.18269 0.61014 0.98311 0.0
C2690 C 0.17031 0.60021 0.00894 0.0
C2691 C 0.19797 0.634 0.97365 0.0
C2692 C 0.19073 0.63984 0.9291 0.0
C2693 C 0.22003 0.63637 0.99025 0.0
C2694 C 0.22792 0.62998 0.03673 0.0
C2695 C 0.23895 0.61707 0.03591 0.0
C2696 C 0.2447 0.61045 0.08012 0.0
C2697 C 0.23971 0.61674 0.12525 0.0
C2698 C 0.22842 0.62949 0.12628 0.0
C2699 C 0.22227 0.63599 0.08221 0.0
H2700 H 0.24433 0.61166 0.1594 0.0
H2701 H 0.17449 0.66926 0.73007 0.0
H2702 H 0.25707 0.31685 0.71702 0.0
H2703 H 0.22542 0.32482 0.6655 0.0
H2704 H 0.27128 0.34893 0.57699 0.0
H2705 H 0.30222 0.34168 0.62873 0.0
H2706 H 0.24056 0.36484 0.61259 0.0
H2707 H 0.24333 0.32102 0.52756 0.0
H2708 H 0.24268 0.29543 0.51942 0.0
H2709 H 0.17654 0.2942 0.58165 0.0
H2710 H 0.17678 0.31985 0.59047 0.0
H2711 H 0.17247 0.37946 0.39051 0.0
H2712 H 0.19483 0.36298 0.43927 0.0
H2713 H 0.15859 0.37481 0.57011 0.0
H2714 H 0.13756 0.39209 0.52256 0.0
H2715 H 0.18139 0.34018 0.51802 0.0
H2716 H 0.18689 0.38798 0.60829 0.0
H2717 H 0.19266 0.4133 0.59933 0.0
H2718 H 0.2517 0.40584 0.51253 0.0
H2719 H 0.24586 0.38048 0.52041 0.0
C2720 C 0.26033 0.32362 0.68592 0.0
C2721 C 0.28209 0.32874 0.6772 0.0
C2722 C 0.2423 0.32812 0.65644 0.0
C2723 C 0.24601 0.33757 0.61762 0.0
C2724 C 0.26797 0.34178 0.60702 0.0
C2725 C 0.28569 0.33757 0.63668 0.0
C2726 C 0.22734 0.34475 0.59186 0.0
C2727 C 0.22754 0.35936 0.59238 0.0
C2728 C 0.21042 0.33769 0.56507 0.0
C2729 C 0.21022 0.32231 0.56037 0.0
C2730 C 0.22873 0.31529 0.54 0.0
C2731 C 0.22838 0.30079 0.53507 0.0
C2732 C 0.20958 0.29321 0.55016 0.0
C2733 C 0.19104 0.30012 0.57003 0.0
C2734 C 0.19127 0.31463 0.57495 0.0
C2735 C 0.16942 0.37856 0.42972 0.0
C2736 C 0.15405 0.38743 0.45324 0.0
C2737 C 0.18201 0.36907 0.45741 0.0
C2738 C 0.17884 0.36805 0.50853 0.0
C2739 C 0.16184 0.37585 0.53102 0.0
C2740 C 0.14988 0.38569 0.50384 0.0
C2741 C 0.19486 0.36013 0.53922 0.0
C2742 C 0.19415 0.3455 0.53948 0.0
C2743 C 0.21184 0.36712 0.5659 0.0
C2744 C 0.21527 0.38238 0.56257 0.0
C2745 C 0.20071 0.39175 0.58614 0.0
C2746 C 0.20409 0.40611 0.58166 0.0
C2747 C 0.22232 0.4112 0.55469 0.0
C2748 C 0.23739 0.40192 0.53281 0.0
C2749 C 0.23399 0.38757 0.53713 0.0
H2750 H 0.22492 0.42231 0.55124 0.0
H2751 H 0.20934 0.28199 0.54635 0.0
H2752 H 0.37936 0.18107 0.11781 0.0
H2753 H 0.37939 0.19546 0.04294 0.0
H2754 H 0.36742 0.23206 0.13136 0.0
H2755 H 0.36624 0.21781 0.20508 0.0
H2756 H 0.33497 0.22913 0.06639 0.0
H2757 H 0.41634 0.22693 0.06356 0.0
H2758 H 0.45285 0.21484 0.06137 0.0
H2759 H 0.43461 0.19515 0.92497 0.0
H2760 H 0.39788 0.20703 0.92662 0.0
H2761 H 0.37074 0.28438 0.89038 0.0
H2762 H 0.38006 0.26468 0.9431 0.0
H2763 H 0.32218 0.24244 0.88912 0.0
H2764 H 0.31253 0.26232 0.83598 0.0
H2765 H 0.38806 0.23535 0.92741 0.0
H2766 H 0.29874 0.23128 0.97263 0.0
H2767 H 0.26411 0.24542 0.97735 0.0
H2768 H 0.30184 0.27978 0.03577 0.0
H2769 H 0.33669 0.2659 0.03046 0.0
C2770 C 0.37729 0.19223 0.12129 0.0
C2771 C 0.37151 0.19816 0.16699 0.0
C2772 C 0.37733 0.20046 0.07843 0.0
C2773 C 0.37261 0.2148 0.08135 0.0
C2774 C 0.37036 0.22096 0.12795 0.0
C2775 C 0.36984 0.21276 0.17025 0.0
C2776 C 0.36727 0.22326 0.03685 0.0
C2777 C 0.3466 0.23033 0.03593 0.0
C2778 C 0.38219 0.22481 0.99662 0.0
C2779 C 0.40429 0.21775 0.99548 0.0
C2780 C 0.42006 0.21995 0.03329 0.0
C2781 C 0.4408 0.21315 0.0321 0.0
C2782 C 0.44602 0.2042 0.99313 0.0
C2783 C 0.43053 0.20207 0.95516 0.0
C2784 C 0.40977 0.20885 0.95617 0.0
C2785 C 0.36006 0.27526 0.88914 0.0
C2786 C 0.34073 0.27497 0.85926 0.0
C2787 C 0.36556 0.26394 0.91909 0.0
C2788 C 0.35184 0.25211 0.92008 0.0
C2789 C 0.33297 0.25152 0.88897 0.0
C2790 C 0.32745 0.26288 0.85871 0.0
C2791 C 0.35605 0.24123 0.95785 0.0
C2792 C 0.37635 0.23377 0.95749 0.0
C2793 C 0.341 0.23935 0.99736 0.0
C2794 C 0.32015 0.2476 0.00122 0.0
C2795 C 0.29955 0.24184 0.98658 0.0
C2796 C 0.27995 0.24983 0.98911 0.0
C2797 C 0.28079 0.2635 0.00675 0.0
C2798 C 0.30124 0.26923 0.02184 0.0
C2799 C 0.32091 0.26133 0.01895 0.0
H2800 H 0.2656 0.26966 0.00878 0.0
H2801 H 0.46209 0.19895 0.99229 0.0
H2802 H 0.90001 0.88913 0.29338 0.0
H2803 H 0.92589 0.88477 0.36287 0.0
H2804 H 0.97963 0.90392 0.28102 0.0
H2805 H 0.95383 0.90879 0.21302 0.0
H2806 H 0.98999 0.87691 0.33443 0.0
H2807 H 0.95817 0.92384 0.35331 0.0
H2808 H 0.92624 0.94003 0.36153 0.0
H2809 H 0.90337 0.91773 0.48923 0.0
H2810 H 0.93505 0.90129 0.48125 0.0
H2811 H 0.07578 0.91068 0.45671 0.0
H2812 H 0.0435 0.90298 0.40904 0.0
H2813 H 0.00898 0.8918 0.54302 0.0
H2814 H 0.04177 0.89945 0.59159 0.0
H2815 H 0.98346 0.90876 0.47787 0.0
H2816 H 0.02242 0.86615 0.47188 0.0
H2817 H 0.05489 0.85041 0.46385 0.0
H2818 H 0.06429 0.86363 0.31409 0.0
H2819 H 0.03206 0.87961 0.32136 0.0
C2820 C 0.91742 0.89222 0.29028 0.0
C2821 C 0.92497 0.89934 0.24821 0.0
C2822 C 0.93212 0.88972 0.32974 0.0
C2823 C 0.95464 0.89396 0.3268 0.0
C2824 C 0.96235 0.9005 0.28382 0.0
C2825 C 0.94758 0.90334 0.24519 0.0
C2826 C 0.97002 0.89272 0.3695 0.0
C2827 C 0.98853 0.88376 0.36606 0.0
C2828 C 0.96769 0.90137 0.41136 0.0
C2829 C 0.94874 0.91124 0.41628 0.0
C2830 C 0.94619 0.92232 0.38282 0.0
C2831 C 0.92818 0.93155 0.38749 0.0
C2832 C 0.91273 0.92988 0.42577 0.0
C2833 C 0.91531 0.91899 0.45952 0.0
C2834 C 0.93329 0.90971 0.45494 0.0
C2835 C 0.06143 0.90646 0.47618 0.0
C2836 C 0.06126 0.90572 0.52792 0.0
C2837 C 0.04303 0.90197 0.44882 0.0
C2838 C 0.0239 0.89672 0.47242 0.0
C2839 C 0.02367 0.89576 0.52413 0.0
C2840 C 0.04237 0.90007 0.55174 0.0
C2841 C 0.00392 0.89325 0.44215 0.0
C2842 C 0.98457 0.90144 0.44749 0.0
C2843 C 0.00545 0.8838 0.4022 0.0
C2844 C 0.02481 0.87413 0.39725 0.0
C2845 C 0.03148 0.86578 0.4373 0.0
C2846 C 0.04984 0.8568 0.43288 0.0
C2847 C 0.06165 0.85603 0.38851 0.0
C2848 C 0.0551 0.86423 0.34843 0.0
C2849 C 0.03675 0.87323 0.35265 0.0
H2850 H 0.07587 0.84908 0.38517 0.0
H2851 H 0.89881 0.93704 0.42936 0.0
H2852 H 0.18178 0.73633 0.34076 0.0
H2853 H 0.17259 0.75428 0.40178 0.0
H2854 H 0.1121 0.73219 0.44004 0.0
H2855 H 0.12145 0.71399 0.38 0.0
H2856 H 0.11155 0.76544 0.43133 0.0
H2857 H 0.14433 0.72538 0.51386 0.0
H2858 H 0.17241 0.70666 0.52263 0.0
H2859 H 0.22515 0.7371 0.52907 0.0
H2860 H 0.19737 0.75599 0.5195 0.0
H2861 H 0.1039 0.80014 0.67262 0.0
H2862 H 0.10039 0.7841 0.60166 0.0
H2863 H 0.17094 0.78936 0.57097 0.0
H2864 H 0.17434 0.80502 0.64113 0.0
H2865 H 0.16112 0.7629 0.57809 0.0
H2866 H 0.12991 0.80278 0.4909 0.0
H2867 H 0.10297 0.82193 0.47662 0.0
H2868 H 0.0484 0.79277 0.47808 0.0
H2869 H 0.07501 0.77344 0.49213 0.0
C2870 C 0.16633 0.73542 0.36152 0.0
C2871 C 0.15244 0.7237 0.35594 0.0
C2872 C 0.16108 0.74569 0.39625 0.0
C2873 C 0.14166 0.74454 0.42525 0.0
C2874 C 0.12707 0.73329 0.41775 0.0
C2875 C 0.13253 0.72287 0.3837 0.0
C2876 C 0.13821 0.75418 0.46719 0.0
C2877 C 0.1221 0.76481 0.46386 0.0
C2878 C 0.1521 0.75338 0.50926 0.0
C2879 C 0.16882 0.74207 0.51541 0.0
C2880 C 0.16194 0.72807 0.51664 0.0
C2881 C 0.17779 0.71743 0.52186 0.0
C2882 C 0.20056 0.72068 0.52626 0.0
C2883 C 0.20751 0.73459 0.52558 0.0
C2884 C 0.19172 0.74526 0.52028 0.0
C2885 C 0.11839 0.79808 0.64965 0.0
C2886 C 0.1393 0.80396 0.66135 0.0
C2887 C 0.11643 0.78895 0.60928 0.0
C2888 C 0.13543 0.78554 0.58082 0.0
C2889 C 0.15606 0.79178 0.59223 0.0
C2890 C 0.15796 0.80082 0.63209 0.0
C2891 C 0.13489 0.77458 0.54202 0.0
C2892 C 0.15028 0.76355 0.546 0.0
C2893 C 0.1204 0.77512 0.50066 0.0
C2894 C 0.10439 0.78673 0.49324 0.0
C2895 C 0.11214 0.80049 0.4887 0.0
C2896 C 0.09696 0.81136 0.48049 0.0
C2897 C 0.074 0.80858 0.47684 0.0
C2898 C 0.06618 0.79491 0.48109 0.0
C2899 C 0.0813 0.784 0.48903 0.0
H2900 H 0.0623 0.81702 0.47047 0.0
H2901 H 0.2128 0.71243 0.53033 0.0
H2902 H 0.5941 0.1083 0.8028 0.0
H2903 H 0.56738 0.11244 0.87075 0.0
H2904 H 0.51405 0.09517 0.78261 0.0
H2905 H 0.54079 0.09038 0.7159 0.0
H2906 H 0.50639 0.12316 0.83869 0.0
H2907 H 0.53105 0.0745 0.85296 0.0
H2908 H 0.5605 0.05658 0.86076 0.0
H2909 H 0.58415 0.07587 0.99385 0.0
H2910 H 0.55507 0.09407 0.98623 0.0
H2911 H 0.41502 0.0945 0.95943 0.0
H2912 H 0.448 0.10088 0.91152 0.0
H2913 H 0.4851 0.10824 0.04564 0.0
H2914 H 0.45171 0.10197 0.0943 0.0
H2915 H 0.5067 0.09017 0.97965 0.0
H2916 H 0.47626 0.13528 0.97689 0.0
H2917 H 0.44764 0.15371 0.96994 0.0
H2918 H 0.43588 0.1425 0.8189 0.0
H2919 H 0.4642 0.12385 0.82508 0.0
C2920 C 0.57661 0.10556 0.79807 0.0
C2921 C 0.56933 0.09906 0.75461 0.0
C2922 C 0.56149 0.10793 0.83657 0.0
C2923 C 0.53889 0.10421 0.83126 0.0
C2924 C 0.53147 0.09817 0.78709 0.0
C2925 C 0.54669 0.09538 0.74929 0.0
C2926 C 0.52308 0.10577 0.87266 0.0
C2927 C 0.50637 0.116 0.86962 0.0
C2928 C 0.52381 0.09676 0.91381 0.0
C2929 C 0.54114 0.08577 0.9186 0.0
C2930 C 0.54271 0.07502 0.88354 0.0
C2931 C 0.55929 0.06479 0.88799 0.0
C2932 C 0.57426 0.06512 0.92765 0.0
C2933 C 0.5726 0.07565 0.96304 0.0
C2934 C 0.55608 0.08593 0.95867 0.0
C2935 C 0.43009 0.09767 0.9788 0.0
C2936 C 0.43088 0.09769 0.03053 0.0
C2937 C 0.44888 0.10141 0.95138 0.0
C2938 C 0.46893 0.10511 0.97505 0.0
C2939 C 0.4697 0.10548 0.02678 0.0
C2940 C 0.45066 0.10196 0.05443 0.0
C2941 C 0.48931 0.10725 0.94486 0.0
C2942 C 0.50696 0.09767 0.94972 0.0
C2943 C 0.48955 0.11696 0.90563 0.0
C2944 C 0.47232 0.1281 0.90156 0.0
C2945 C 0.46745 0.13666 0.94229 0.0
C2946 C 0.4513 0.14716 0.93846 0.0
C2947 C 0.43993 0.14926 0.89403 0.0
C2948 C 0.44471 0.14086 0.8533 0.0
C2949 C 0.46084 0.13033 0.85692 0.0
H2950 H 0.42745 0.15742 0.89113 0.0
H2951 H 0.58708 0.05719 0.93105 0.0
H2952 H 0.33761 0.73409 0.70617 0.0
H2953 H 0.35028 0.75391 0.65596 0.0
H2954 H 0.34917 0.72777 0.52633 0.0
H2955 H 0.33816 0.70794 0.57694 0.0
H2956 H 0.38483 0.74225 0.52297 0.0
H2957 H 0.30504 0.75577 0.55646 0.0
H2958 H 0.27431 0.76141 0.6142 0.0
H2959 H 0.31622 0.79166 0.68592 0.0
H2960 H 0.34718 0.78614 0.62862 0.0
H2961 H 0.36102 0.78007 0.31276 0.0
H2962 H 0.36524 0.76589 0.38588 0.0
H2963 H 0.37147 0.80291 0.4751 0.0
H2964 H 0.36621 0.81737 0.40127 0.0
H2965 H 0.34275 0.78669 0.51545 0.0
H2966 H 0.41634 0.77857 0.46036 0.0
H2967 H 0.4467 0.77355 0.4013 0.0
H2968 H 0.41842 0.73322 0.37262 0.0
H2969 H 0.3877 0.73805 0.43096 0.0
C2970 C 0.33981 0.73273 0.66683 0.0
C2971 C 0.33672 0.71959 0.64517 0.0
C2972 C 0.34703 0.74404 0.63805 0.0
C2973 C 0.35052 0.74246 0.58693 0.0
C2974 C 0.34686 0.72933 0.56556 0.0
C2975 C 0.34033 0.71801 0.5944 0.0
C2976 C 0.35792 0.75425 0.55478 0.0
C2977 C 0.37552 0.75195 0.5212 0.0
C2978 C 0.34683 0.76728 0.55414 0.0
C2979 C 0.32834 0.77053 0.58852 0.0
C2980 C 0.30766 0.76359 0.58468 0.0
C2981 C 0.29023 0.76677 0.61728 0.0
C2982 C 0.29332 0.77688 0.65373 0.0
C2983 C 0.31386 0.78383 0.6577 0.0
C2984 C 0.33134 0.78068 0.62521 0.0
C2985 C 0.36376 0.78528 0.34767 0.0
C2986 C 0.36314 0.79991 0.35099 0.0
C2987 C 0.36641 0.77709 0.3897 0.0
C2988 C 0.36899 0.78324 0.43633 0.0
C2989 C 0.3696 0.79788 0.43959 0.0
C2990 C 0.36678 0.80615 0.39728 0.0
C2991 C 0.36839 0.77426 0.4813 0.0
C2992 C 0.35229 0.77713 0.51771 0.0
C2993 C 0.38098 0.76178 0.4847 0.0
C2994 C 0.39967 0.75869 0.4501 0.0
C2995 C 0.41653 0.76864 0.44135 0.0
C2996 C 0.43382 0.76583 0.40798 0.0
C2997 C 0.43449 0.75308 0.38323 0.0
C2998 C 0.41791 0.74309 0.39189 0.0
C2999 C 0.40058 0.74584 0.42522 0.0
H3000 H 0.44786 0.75093 0.35734 0.0
H3001 H 0.2798 0.77935 0.67886 0.0
H3002 H 0.45861 0.9044 0.41582 0.0
H3003 H 0.49082 0.89913 0.46885 0.0
H3004 H 0.44594 0.89241 0.59158 0.0
H3005 H 0.41405 0.8986 0.53936 0.0
H3006 H 0.47578 0.90845 0.62023 0.0
H3007 H 0.47898 0.86545 0.5313 0.0
H3008 H 0.48027 0.85041 0.45766 0.0
H3009 H 0.54271 0.86905 0.41431 0.0
H3010 H 0.54165 0.88434 0.48732 0.0
H3011 H 0.57703 0.87928 0.75445 0.0
H3012 H 0.54769 0.8748 0.69246 0.0
H3013 H 0.55323 0.91721 0.64157 0.0
H3014 H 0.58175 0.92186 0.704 0.0
H3015 H 0.54268 0.87957 0.58224 0.0
H3016 H 0.50261 0.93009 0.65182 0.0
H3017 H 0.50169 0.94413 0.72807 0.0
H3018 H 0.51054 0.90712 0.81488 0.0
H3019 H 0.51132 0.89288 0.73919 0.0
C3020 C 0.45571 0.90152 0.4539 0.0
C3021 C 0.43398 0.90193 0.47375 0.0
C3022 C 0.47409 0.89843 0.48419 0.0
C3023 C 0.47091 0.89526 0.53438 0.0
C3024 C 0.44894 0.8949 0.55319 0.0
C3025 C 0.4307 0.89838 0.52336 0.0
C3026 C 0.49035 0.89388 0.5686 0.0
C3027 C 0.49017 0.90194 0.61186 0.0
C3028 C 0.50932 0.88542 0.55829 0.0
C3029 C 0.51015 0.87611 0.51466 0.0
C3030 C 0.49292 0.8664 0.50593 0.0
C3031 C 0.49362 0.85782 0.46431 0.0
C3032 C 0.51154 0.85879 0.43129 0.0
C3033 C 0.52884 0.86831 0.43992 0.0
C3034 C 0.52821 0.87692 0.48146 0.0
C3035 C 0.57228 0.88752 0.72925 0.0
C3036 C 0.5813 0.90097 0.73437 0.0
C3037 C 0.55567 0.88493 0.69377 0.0
C3038 C 0.54832 0.8957 0.6627 0.0
C3039 C 0.55866 0.90879 0.66536 0.0
C3040 C 0.57485 0.91144 0.70116 0.0
C3041 C 0.52776 0.89416 0.63265 0.0
C3042 C 0.5279 0.88575 0.59042 0.0
C3043 C 0.50844 0.90201 0.64421 0.0
C3044 C 0.5071 0.91046 0.6899 0.0
C3045 C 0.50417 0.92496 0.68722 0.0
C3046 C 0.50374 0.93295 0.73032 0.0
C3047 C 0.50608 0.92653 0.77628 0.0
C3048 C 0.50878 0.91209 0.77927 0.0
C3049 C 0.50925 0.90406 0.73629 0.0
H3050 H 0.50578 0.93273 0.80959 0.0
H3051 H 0.51204 0.85215 0.39906 0.0
H3052 H 0.1257 0.21866 0.79705 0.0
H3053 H 0.12105 0.23322 0.86963 0.0
H3054 H 0.13064 0.19743 0.96318 0.0
H3055 H 0.13399 0.18252 0.88988 0.0
H3056 H 0.11029 0.21637 0.0149 0.0
H3057 H 0.1772 0.2171 0.92063 0.0
H3058 H 0.19936 0.21825 0.84397 0.0
H3059 H 0.17596 0.25995 0.81838 0.0
H3060 H 0.15332 0.25892 0.89447 0.0
H3061 H 0.1711 0.26404 0.18528 0.0
H3062 H 0.16294 0.2445 0.12907 0.0
H3063 H 0.12682 0.27236 0.03303 0.0
H3064 H 0.1344 0.2917 0.08879 0.0
H3065 H 0.16418 0.25518 0.98988 0.0
H3066 H 0.097 0.25219 0.0941 0.0
H3067 H 0.07836 0.2487 0.17431 0.0
H3068 H 0.1095 0.20855 0.18832 0.0
H3069 H 0.12858 0.2119 0.10848 0.0
C3070 C 0.12614 0.21376 0.83301 0.0
C3071 C 0.13156 0.19956 0.83787 0.0
C3072 C 0.12362 0.22214 0.87464 0.0
C3073 C 0.12732 0.21661 0.9219 0.0
C3074 C 0.1288 0.20206 0.92704 0.0
C3075 C 0.13067 0.19353 0.88505 0.0
C3076 C 0.13295 0.22618 0.96364 0.0
C3077 C 0.12221 0.22476 0.0095 0.0
C3078 C 0.14909 0.23694 0.95761 0.0
C3079 C 0.16345 0.23789 0.913 0.0
C3080 C 0.17676 0.2265 0.89856 0.0
C3081 C 0.18937 0.22712 0.8552 0.0
C3082 C 0.18904 0.23917 0.82626 0.0
C3083 C 0.17619 0.25063 0.84082 0.0
C3084 C 0.16348 0.25004 0.88409 0.0
C3085 C 0.16123 0.26594 0.15244 0.0
C3086 C 0.15346 0.27945 0.14151 0.0
C3087 C 0.15653 0.25477 0.12049 0.0
C3088 C 0.14422 0.257 0.07695 0.0
C3089 C 0.13628 0.27041 0.06646 0.0
C3090 C 0.14065 0.28147 0.09849 0.0
C3091 C 0.14077 0.24574 0.04009 0.0
C3092 C 0.15227 0.24676 0.99522 0.0
C3093 C 0.12607 0.23438 0.04796 0.0
C3094 C 0.11441 0.23237 0.09562 0.0
C3095 C 0.10004 0.24268 0.11451 0.0
C3096 C 0.08935 0.24071 0.15985 0.0
C3097 C 0.0928 0.22843 0.18647 0.0
C3098 C 0.10687 0.21807 0.16771 0.0
C3099 C 0.11761 0.21999 0.12241 0.0
H3100 H 0.08452 0.22693 0.22157 0.0
H3101 H 0.19875 0.23962 0.7926 0.0
H3102 H 0.08602 0.09497 0.04793 0.0
H3103 H 0.05261 0.09954 0.09675 0.0
H3104 H 0.01574 0.10978 0.96484 0.0
H3105 H 0.04944 0.10521 0.91502 0.0
H3106 H 0.00696 0.12689 0.0611 0.0
H3107 H 0.00814 0.07992 0.99389 0.0
H3108 H 0.02641 0.05748 0.97496 0.0
H3109 H 0.03972 0.051 0.12884 0.0
H3110 H 0.02194 0.07351 0.14859 0.0
H3111 H 0.90822 0.11281 0.2141 0.0
H3112 H 0.93484 0.11671 0.14603 0.0
H3113 H 0.98422 0.09188 0.22278 0.0
H3114 H 0.95743 0.08739 0.28847 0.0
H3115 H 0.98053 0.08273 0.13609 0.0
H3116 H 0.98557 0.12916 0.20601 0.0
H3117 H 0.97318 0.15268 0.23045 0.0
H3118 H 0.95266 0.16115 0.08169 0.0
H3119 H 0.96454 0.13758 0.05652 0.0
C3120 C 0.07096 0.09843 0.02918 0.0
C3121 C 0.07023 0.09949 0.97753 0.0
C3122 C 0.05193 0.10111 0.05721 0.0
C3123 C 0.03175 0.10482 0.03423 0.0
C3124 C 0.03125 0.10693 0.98306 0.0
C3125 C 0.05046 0.10429 0.95475 0.0
C3126 C 0.01095 0.10465 0.0637 0.0
C3127 C 0.00073 0.11726 0.07691 0.0
C3128 C 0.00328 0.09206 0.08466 0.0
C3129 C 0.01375 0.07843 0.07267 0.0
C3130 C 0.0151 0.07376 0.02363 0.0
C3131 C 0.02536 0.06102 0.01277 0.0
C3132 C 0.03418 0.05282 0.0507 0.0
C3133 C 0.03284 0.05735 0.09952 0.0
C3134 C 0.02266 0.07009 0.11056 0.0
C3135 C 0.92488 0.10835 0.21626 0.0
C3136 C 0.93077 0.09963 0.25582 0.0
C3137 C 0.94008 0.11062 0.17762 0.0
C3138 C 0.96152 0.1045 0.17901 0.0
C3139 C 0.96769 0.09654 0.22033 0.0
C3140 C 0.9524 0.09397 0.25793 0.0
C3141 C 0.97713 0.10512 0.13639 0.0
C3142 C 0.98626 0.09245 0.11998 0.0
C3143 C 0.98405 0.11771 0.11363 0.0
C3144 C 0.97568 0.13154 0.12952 0.0
C3145 C 0.97809 0.13595 0.17866 0.0
C3146 C 0.97128 0.14933 0.19259 0.0
C3147 C 0.96225 0.15843 0.15759 0.0
C3148 C 0.95975 0.15411 0.10871 0.0
C3149 C 0.96645 0.14074 0.09464 0.0
H3150 H 0.95712 0.1688 0.16837 0.0
H3151 H 0.042 0.04293 0.04238 0.0
H3152 H 0.60002 0.81279 0.85838 0.0
H3153 H 0.59697 0.79777 0.93252 0.0
H3154 H 0.66474 0.78341 0.90892 0.0
H3155 H 0.66763 0.79791 0.83597 0.0
H3156 H 0.6349 0.76209 0.91546 0.0
H3157 H 0.65313 0.80536 0.99577 0.0
H3158 H 0.64726 0.82964 0.0219 0.0
H3159 H 0.5872 0.8177 0.09837 0.0
H3160 H 0.59262 0.79331 0.07228 0.0
H3161 H 0.67391 0.73741 0.1644 0.0
H3162 H 0.665 0.75727 0.11096 0.0
H3163 H 0.60709 0.7354 0.05536 0.0
H3164 H 0.61591 0.71552 0.1081 0.0
H3165 H 0.6265 0.77522 0.0914 0.0
H3166 H 0.61023 0.73564 0.93977 0.0
H3167 H 0.62231 0.71216 0.91334 0.0
H3168 H 0.68702 0.71886 0.97899 0.0
H3169 H 0.67524 0.74233 0.00593 0.0
C3170 C 0.61418 0.80646 0.86961 0.0
C3171 C 0.63383 0.80617 0.84108 0.0
C3172 C 0.61248 0.79795 0.91176 0.0
C3173 C 0.63055 0.78933 0.92564 0.0
C3174 C 0.65048 0.78977 0.89843 0.0
C3175 C 0.65208 0.79804 0.8567 0.0
C3176 C 0.62895 0.77901 0.96611 0.0
C3177 C 0.63262 0.76499 0.95381 0.0
C3178 C 0.62648 0.7828 0.01626 0.0
C3179 C 0.62316 0.7975 0.0316 0.0
C3180 C 0.63857 0.8079 0.01781 0.0
C3181 C 0.63535 0.8217 0.03269 0.0
C3182 C 0.61683 0.82523 0.06166 0.0
C3183 C 0.60152 0.81495 0.07587 0.0
C3184 C 0.60468 0.80114 0.06108 0.0
C3185 C 0.65906 0.73693 0.14141 0.0
C3186 C 0.64578 0.72482 0.13996 0.0
C3187 C 0.6539 0.74834 0.11123 0.0
C3188 C 0.63542 0.74778 0.07919 0.0
C3189 C 0.62145 0.73602 0.07979 0.0
C3190 C 0.6266 0.72464 0.10978 0.0
C3191 C 0.63255 0.75847 0.04025 0.0
C3192 C 0.62809 0.7724 0.05284 0.0
C3193 C 0.63492 0.7548 0.99016 0.0
C3194 C 0.64184 0.74064 0.97491 0.0
C3195 C 0.62701 0.73207 0.9485 0.0
C3196 C 0.63379 0.71878 0.93355 0.0
C3197 C 0.65543 0.71405 0.9444 0.0
C3198 C 0.67026 0.72253 0.9707 0.0
C3199 C 0.66352 0.73579 0.98596 0.0
H3200 H 0.66075 0.70385 0.93219 0.0
H3201 H 0.61436 0.83591 0.07317 0.0
H3202 H 0.08381 0.12092 0.73961 0.0
H3203 H 0.05858 0.12472 0.6692 0.0
H3204 H 0.04169 0.08105 0.66877 0.0
H3205 H 0.06648 0.07717 0.7389 0.0
H3206 H 0.05014 0.09134 0.57504 0.0
H3207 H 0.00744 0.10405 0.72268 0.0
H3208 H 0.00076 0.118 0.79763 0.0
H3209 H 0.00137 0.15551 0.71135 0.0
H3210 H 0.00832 0.14176 0.63595 0.0
H3211 H 0.94289 0.07327 0.50946 0.0
H3212 H 0.97692 0.07999 0.55256 0.0
H3213 H 0.97326 0.12106 0.48869 0.0
H3214 H 0.93894 0.1143 0.44399 0.0
H3215 H 0.98058 0.11901 0.59809 0.0
H3216 H 0.01263 0.10455 0.44719 0.0
H3217 H 0.01743 0.08977 0.37367 0.0
H3218 H 0.03635 0.05527 0.46546 0.0
H3219 H 0.03129 0.06976 0.53964 0.0
C3220 C 0.07474 0.11214 0.72436 0.0
C3221 C 0.07698 0.09875 0.74497 0.0
C3222 C 0.06042 0.11434 0.68416 0.0
C3223 C 0.04836 0.10317 0.66381 0.0
C3224 C 0.05097 0.08979 0.68376 0.0
C3225 C 0.06503 0.08761 0.72407 0.0
C3226 C 0.03216 0.10525 0.62312 0.0
C3227 C 0.03501 0.09748 0.57978 0.0
C3228 C 0.01284 0.11368 0.62865 0.0
C3229 C 0.00869 0.12191 0.67389 0.0
C3230 C 0.00634 0.11528 0.7198 0.0
C3231 C 0.00247 0.12314 0.76233 0.0
C3232 C 0.00072 0.13764 0.75928 0.0
C3233 C 0.00279 0.14429 0.71368 0.0
C3234 C 0.00669 0.13647 0.67105 0.0
C3235 C 0.94921 0.08375 0.50431 0.0
C3236 C 0.93817 0.09326 0.47325 0.0
C3237 C 0.96876 0.08754 0.52886 0.0
C3238 C 0.97764 0.10096 0.5234 0.0
C3239 C 0.96664 0.11062 0.49302 0.0
C3240 C 0.94712 0.10674 0.46756 0.0
C3241 C 0.99814 0.10458 0.55116 0.0
C3242 C 0.99612 0.11336 0.59222 0.0
C3243 C 0.01824 0.09707 0.54356 0.0
C3244 C 0.02152 0.08827 0.49907 0.0
C3245 C 0.01768 0.09379 0.45176 0.0
C3246 C 0.02046 0.08546 0.40994 0.0
C3247 C 0.02719 0.07159 0.41489 0.0
C3248 C 0.03117 0.06602 0.46168 0.0
C3249 C 0.02838 0.0743 0.50364 0.0
H3250 H 0.02933 0.06515 0.38247 0.0
H3251 H 0.9977 0.14371 0.79224 0.0
H3252 H 0.86069 0.28787 0.61065 0.0
H3253 H 0.86503 0.26811 0.55586 0.0
H3254 H 0.81312 0.24603 0.63408 0.0
H3255 H 0.80846 0.26612 0.69011 0.0
H3256 H 0.85542 0.2301 0.60756 0.0
H3257 H 0.79811 0.25905 0.53185 0.0
H3258 H 0.78305 0.28151 0.50249 0.0
H3259 H 0.83917 0.28605 0.4046 0.0
H3260 H 0.85471 0.26372 0.43385 0.0
H3261 H 0.83866 0.18113 0.40625 0.0
H3262 H 0.83892 0.19612 0.47941 0.0
H3263 H 0.87607 0.22718 0.39847 0.0
H3264 H 0.87587 0.21215 0.32567 0.0
H3265 H 0.83867 0.23773 0.43058 0.0
H3266 H 0.89731 0.21135 0.49934 0.0
H3267 H 0.92018 0.19236 0.53388 0.0
H3268 H 0.87076 0.1854 0.64627 0.0
H3269 H 0.8471 0.20397 0.61124 0.0
C3270 C 0.85012 0.27885 0.61669 0.0
C3271 C 0.83405 0.27866 0.65477 0.0
C3272 C 0.85269 0.26753 0.58512 0.0
C3273 C 0.83929 0.25566 0.59051 0.0
C3274 C 0.82361 0.25514 0.62928 0.0
C3275 C 0.82092 0.26661 0.66112 0.0
C3276 C 0.84156 0.24417 0.5541 0.0
C3277 C 0.85121 0.23152 0.56897 0.0
C3278 C 0.8372 0.24642 0.50348 0.0
C3279 C 0.82761 0.25974 0.48524 0.0
C3280 C 0.80729 0.26487 0.50426 0.0
C3281 C 0.79866 0.27758 0.4876 0.0
C3282 C 0.81016 0.28521 0.45174 0.0
C3283 C 0.83027 0.28013 0.43235 0.0
C3284 C 0.83897 0.26744 0.44889 0.0
C3285 C 0.84802 0.1908 0.40511 0.0
C3286 C 0.85766 0.19535 0.36063 0.0
C3287 C 0.84791 0.19947 0.44679 0.0
C3288 C 0.85735 0.21288 0.4445 0.0
C3289 C 0.86854 0.21693 0.40117 0.0
C3290 C 0.8686 0.2083 0.35964 0.0
C3291 C 0.85267 0.22342 0.48365 0.0
C3292 C 0.84255 0.236 0.46919 0.0
C3293 C 0.85725 0.22119 0.53437 0.0
C3294 C 0.87023 0.20898 0.55215 0.0
C3295 C 0.89099 0.20555 0.53062 0.0
C3296 C 0.90419 0.1949 0.5505 0.0
C3297 C 0.89698 0.18772 0.59235 0.0
C3298 C 0.87637 0.191 0.61392 0.0
C3299 C 0.86297 0.20151 0.59383 0.0
H3300 H 0.90731 0.17955 0.60793 0.0
H3301 H 0.80347 0.29505 0.43894 0.0
H3302 H 0.43528 0.92509 0.22657 0.0
H3303 H 0.46011 0.921 0.15628 0.0
H3304 H 0.45432 0.87664 0.17772 0.0
H3305 H 0.42876 0.88064 0.24747 0.0
H3306 H 0.5018 0.89092 0.17039 0.0
H3307 H 0.43472 0.88134 0.07635 0.0
H3308 H 0.39526 0.88518 0.05179 0.0
H3309 H 0.411 0.9272 0.00995 0.0
H3310 H 0.45054 0.92354 0.03429 0.0
H3311 H 0.57074 0.88669 0.95368 0.0
H3312 H 0.53845 0.88043 0.00576 0.0
H3313 H 0.51778 0.92349 0.00854 0.0
H3314 H 0.55012 0.92979 0.95801 0.0
H3315 H 0.48144 0.90385 0.99885 0.0
H3316 H 0.5481 0.91356 0.09688 0.0
H3317 H 0.58748 0.90981 0.12149 0.0
H3318 H 0.57265 0.86725 0.1578 0.0
H3319 H 0.53321 0.87071 0.13257 0.0
C3320 C 0.43924 0.91446 0.2163 0.0
C3321 C 0.43023 0.90318 0.2426 0.0
C3322 C 0.4533 0.91214 0.17604 0.0
C3323 C 0.4589 0.89853 0.16189 0.0
C3324 C 0.45006 0.88721 0.18811 0.0
C3325 C 0.43554 0.88952 0.22786 0.0
C3326 C 0.47492 0.89646 0.12104 0.0
C3327 C 0.49728 0.8933 0.13255 0.0
C3328 C 0.46903 0.89983 0.07207 0.0
C3329 C 0.44539 0.90222 0.05773 0.0
C3330 C 0.42962 0.89143 0.06248 0.0
C3331 C 0.40731 0.89356 0.04842 0.0
C3332 C 0.40058 0.90646 0.02969 0.0
C3333 C 0.41622 0.91722 0.02463 0.0
C3334 C 0.43859 0.91512 0.03838 0.0
C3335 C 0.55897 0.89472 0.96459 0.0
C3336 C 0.56288 0.90872 0.95222 0.0
C3337 C 0.54064 0.89116 0.99432 0.0
C3338 C 0.52584 0.90153 0.011 0.0
C3339 C 0.52898 0.91535 0.99588 0.0
C3340 C 0.54749 0.91894 0.96725 0.0
C3341 C 0.50842 0.89846 0.04822 0.0
C3342 C 0.48587 0.9009 0.03621 0.0
C3343 C 0.51418 0.89439 0.09677 0.0
C3344 C 0.53782 0.89232 0.11211 0.0
C3345 C 0.5533 0.90336 0.1096 0.0
C3346 C 0.57561 0.9013 0.12375 0.0
C3347 C 0.58259 0.88828 0.14099 0.0
C3348 C 0.56724 0.87732 0.14427 0.0
C3349 C 0.5449 0.87932 0.13003 0.0
H3350 H 0.59987 0.88671 0.15197 0.0
H3351 H 0.38329 0.90809 0.01887 0.0
H3352 H 0.64276 0.26576 0.30798 0.0
H3353 H 0.63234 0.24595 0.36018 0.0
H3354 H 0.68695 0.25589 0.45896 0.0
H3355 H 0.69824 0.27499 0.40452 0.0
H3356 H 0.68304 0.23046 0.46321 0.0
H3357 H 0.6292 0.26672 0.4759 0.0
H3358 H 0.6013 0.28398 0.44801 0.0
H3359 H 0.55932 0.25111 0.393 0.0
H3360 H 0.58715 0.23364 0.41999 0.0
H3361 H 0.62977 0.21497 0.6908 0.0
H3362 H 0.62959 0.22885 0.61571 0.0
H3363 H 0.62725 0.1914 0.5284 0.0
H3364 H 0.62856 0.17725 0.60386 0.0
H3365 H 0.60296 0.22824 0.51298 0.0
H3366 H 0.66739 0.19256 0.51001 0.0
H3367 H 0.69431 0.18012 0.56258 0.0
H3368 H 0.71703 0.2189 0.62353 0.0
H3369 H 0.68945 0.23157 0.57241 0.0
C3370 C 0.65289 0.26337 0.34008 0.0
C3371 C 0.67142 0.27172 0.35214 0.0
C3372 C 0.64675 0.25219 0.37035 0.0
C3373 C 0.6584 0.24957 0.41456 0.0
C3374 C 0.67759 0.2576 0.42526 0.0
C3375 C 0.68412 0.26851 0.39413 0.0
C3376 C 0.65 0.23905 0.45092 0.0
C3377 C 0.66544 0.22994 0.47324 0.0
C3378 C 0.62713 0.23844 0.46579 0.0
C3379 C 0.61038 0.24889 0.44935 0.0
C3380 C 0.6141 0.26318 0.45749 0.0
C3381 C 0.59829 0.273 0.4419 0.0
C3382 C 0.57859 0.26865 0.41858 0.0
C3383 C 0.57462 0.25446 0.41094 0.0
C3384 C 0.59041 0.24459 0.42637 0.0
C3385 C 0.62852 0.20962 0.65573 0.0
C3386 C 0.62972 0.19497 0.65334 0.0
C3387 C 0.62833 0.21761 0.61279 0.0
C3388 C 0.62897 0.21115 0.56659 0.0
C3389 C 0.6271 0.19656 0.56388 0.0
C3390 C 0.62766 0.18848 0.60706 0.0
C3391 C 0.63584 0.21953 0.52314 0.0
C3392 C 0.62029 0.22845 0.50073 0.0
C3393 C 0.65872 0.2205 0.50985 0.0
C3394 C 0.67617 0.21296 0.538 0.0
C3395 C 0.67787 0.19841 0.53521 0.0
C3396 C 0.69317 0.19131 0.56501 0.0
C3397 C 0.70727 0.19867 0.59689 0.0
C3398 C 0.70604 0.21319 0.59902 0.0
C3399 C 0.69052 0.22033 0.56975 0.0
H3400 H 0.71934 0.19316 0.6194 0.0
H3401 H 0.56636 0.27627 0.40657 0.0
H3402 H 0.42066 0.07758 0.287 0.0
H3403 H 0.44681 0.08157 0.35479 0.0
H3404 H 0.45479 0.12431 0.30913 0.0
H3405 H 0.42783 0.12045 0.24164 0.0
H3406 H 0.49503 0.11102 0.32347 0.0
H3407 H 0.43379 0.1212 0.44084 0.0
H3408 H 0.39538 0.11774 0.47286 0.0
H3409 H 0.40801 0.0739 0.48809 0.0
H3410 H 0.44643 0.07716 0.45574 0.0
H3411 H 0.56776 0.1145 0.5389 0.0
H3412 H 0.53539 0.1207 0.48676 0.0
H3413 H 0.51737 0.07728 0.47635 0.0
H3414 H 0.54983 0.07104 0.52681 0.0
H3415 H 0.48044 0.09709 0.49677 0.0
H3416 H 0.54418 0.08835 0.38806 0.0
H3417 H 0.58266 0.09274 0.35861 0.0
H3418 H 0.56559 0.13536 0.32834 0.0
H3419 H 0.52705 0.13125 0.35847 0.0
C3420 C 0.4277 0.0879 0.29192 0.0
C3421 C 0.42222 0.09872 0.25933 0.0
C3422 C 0.44246 0.09021 0.33097 0.0
C3423 C 0.4523 0.10335 0.33788 0.0
C3424 C 0.44698 0.11419 0.3051 0.0
C3425 C 0.43169 0.11197 0.26659 0.0
C3426 C 0.46976 0.1051 0.37637 0.0
C3427 C 0.49173 0.10838 0.36168 0.0
C3428 C 0.46562 0.10153 0.4261 0.0
C3429 C 0.44265 0.09938 0.44497 0.0
C3430 C 0.42822 0.11082 0.45062 0.0
C3431 C 0.40652 0.1089 0.46897 0.0
C3432 C 0.39921 0.09559 0.48222 0.0
C3433 C 0.41365 0.08419 0.47751 0.0
C3434 C 0.43537 0.08607 0.4592 0.0
C3435 C 0.55666 0.10635 0.52592 0.0
C3436 C 0.56121 0.0923 0.53658 0.0
C3437 C 0.53831 0.10988 0.49616 0.0
C3438 C 0.52412 0.09941 0.47786 0.0
C3439 C 0.52815 0.08547 0.49031 0.0
C3440 C 0.5467 0.08193 0.5189 0.0
C3441 C 0.50565 0.10268 0.44351 0.0
C3442 C 0.4836 0.10022 0.45896 0.0
C3443 C 0.50979 0.10711 0.39465 0.0
C3444 C 0.53286 0.10955 0.37622 0.0
C3445 C 0.5487 0.09869 0.37565 0.0
C3446 C 0.57051 0.10112 0.35873 0.0
C3447 C 0.5766 0.11434 0.34181 0.0
C3448 C 0.56087 0.12514 0.34161 0.0
C3449 C 0.53904 0.12277 0.35861 0.0
H3450 H 0.59349 0.1162 0.32871 0.0
H3451 H 0.38239 0.09412 0.49636 0.0
H3452 H 0.86399 0.82155 0.11416 0.0
H3453 H 0.86621 0.80694 0.03983 0.0
H3454 H 0.87702 0.7707 0.12968 0.0
H3455 H 0.87475 0.78501 0.20407 0.0
H3456 H 0.90012 0.77297 0.02534 0.0
H3457 H 0.82839 0.77637 0.11606 0.0
H3458 H 0.79572 0.7887 0.15081 0.0
H3459 H 0.78193 0.8069 0.00949 0.0
H3460 H 0.8149 0.79504 0.97424 0.0
H3461 H 0.85697 0.71275 0.92136 0.0
H3462 H 0.86816 0.7326 0.97086 0.0
H3463 H 0.82681 0.75956 0.88153 0.0
H3464 H 0.81486 0.73938 0.83214 0.0
H3465 H 0.82116 0.76588 0.97247 0.0
H3466 H 0.88564 0.76067 0.87594 0.0
H3467 H 0.91684 0.74896 0.83317 0.0
H3468 H 0.94465 0.73636 0.97225 0.0
H3469 H 0.91341 0.74781 0.01593 0.0
C3470 C 0.86777 0.81057 0.11809 0.0
C3471 C 0.86869 0.80439 0.16505 0.0
C3472 C 0.86884 0.80229 0.07566 0.0
C3473 C 0.87112 0.78783 0.07961 0.0
C3474 C 0.87505 0.78187 0.12599 0.0
C3475 C 0.87375 0.79009 0.16846 0.0
C3476 C 0.8657 0.77876 0.03711 0.0
C3477 C 0.8829 0.77133 0.01372 0.0
C3478 C 0.84331 0.77721 0.02051 0.0
C3479 C 0.82434 0.78499 0.0427 0.0
C3480 C 0.8187 0.78325 0.09265 0.0
C3481 C 0.80004 0.7901 0.11237 0.0
C3482 C 0.78671 0.79854 0.08229 0.0
C3483 C 0.79221 0.80033 0.03268 0.0
C3484 C 0.81093 0.79359 0.01287 0.0
C3485 C 0.85026 0.7229 0.91193 0.0
C3486 C 0.83504 0.7245 0.8727 0.0
C3487 C 0.8569 0.7343 0.94008 0.0
C3488 C 0.84885 0.74769 0.92928 0.0
C3489 C 0.83345 0.74935 0.8903 0.0
C3490 C 0.82657 0.73783 0.86222 0.0
C3491 C 0.85548 0.7596 0.96129 0.0
C3492 C 0.8385 0.76763 0.98296 0.0
C3493 C 0.87814 0.76197 0.97518 0.0
C3494 C 0.89706 0.75505 0.94924 0.0
C3495 C 0.89831 0.75532 0.89745 0.0
C3496 C 0.91602 0.74874 0.87302 0.0
C3497 C 0.9327 0.7419 0.89997 0.0
C3498 C 0.93171 0.74166 0.95142 0.0
C3499 C 0.91401 0.74822 0.97605 0.0
H3500 H 0.9464 0.73681 0.88099 0.0
H3501 H 0.77201 0.8036 0.09721 0.0
H3502 H 0.06972 0.92548 0.77492 0.0
H3503 H 0.04364 0.92077 0.84181 0.0
H3504 H 0.052 0.87659 0.81961 0.0
H3505 H 0.07884 0.88127 0.75267 0.0
H3506 H 0.00468 0.90842 0.8245 0.0
H3507 H 0.03937 0.8608 0.92813 0.0
H3508 H 0.07443 0.85156 0.96411 0.0
H3509 H 0.10056 0.89311 0.97663 0.0
H3510 H 0.06577 0.90254 0.94 0.0
H3511 H 0.91346 0.89123 0.96696 0.0
H3512 H 0.94595 0.88528 0.91578 0.0
H3513 H 0.99025 0.9002 0.03021 0.0
H3514 H 0.95772 0.9054 0.08233 0.0
H3515 H 0.01114 0.88068 0.97815 0.0
H3516 H 0.9695 0.92246 0.94402 0.0
H3517 H 0.93528 0.93593 0.92546 0.0
H3518 H 0.92672 0.91314 0.79051 0.0
H3519 H 0.96074 0.89937 0.80873 0.0
C3520 C 0.06631 0.91474 0.78462 0.0
C3521 C 0.07601 0.90374 0.75797 0.0
C3522 C 0.05146 0.91207 0.82307 0.0
C3523 C 0.04578 0.89834 0.83558 0.0
C3524 C 0.05631 0.88726 0.81084 0.0
C3525 C 0.07149 0.88995 0.77242 0.0
C3526 C 0.02668 0.89591 0.86956 0.0
C3527 C 0.00611 0.90224 0.85786 0.0
C3528 C 0.02851 0.88802 0.9134 0.0
C3529 C 0.05017 0.88233 0.93078 0.0
C3530 C 0.05272 0.86793 0.9381 0.0
C3531 C 0.0725 0.86267 0.95875 0.0
C3532 C 0.08968 0.87175 0.97285 0.0
C3533 C 0.08723 0.8861 0.9658 0.0
C3534 C 0.06759 0.89139 0.9446 0.0
C3535 C 0.9302 0.89266 0.98174 0.0
C3536 C 0.93332 0.89875 0.02818 0.0
C3537 C 0.94872 0.88934 0.95256 0.0
C3538 C 0.9705 0.89263 0.9687 0.0
C3539 C 0.97362 0.89758 0.01697 0.0
C3540 C 0.95508 0.90059 0.04666 0.0
C3541 C 0.98932 0.89323 0.93302 0.0
C3542 C 0.00968 0.88657 0.94418 0.0
C3543 C 0.98768 0.90135 0.88957 0.0
C3544 C 0.96751 0.9098 0.87796 0.0
C3545 C 0.96026 0.92029 0.91049 0.0
C3546 C 0.9409 0.92797 0.90006 0.0
C3547 C 0.92881 0.92537 0.85687 0.0
C3548 C 0.93609 0.91512 0.82397 0.0
C3549 C 0.95541 0.90738 0.83433 0.0
H3550 H 0.91381 0.93132 0.84886 0.0
H3551 H 0.10494 0.86766 0.98897 0.0
H3552 H 0.83189 0.78968 0.43548 0.0
H3553 H 0.84554 0.77165 0.4913 0.0
H3554 H 0.86717 0.74713 0.36645 0.0
H3555 H 0.8517 0.76485 0.31048 0.0
H3556 H 0.8529 0.73044 0.42641 0.0
H3557 H 0.90534 0.76624 0.44892 0.0
H3558 H 0.91973 0.79003 0.46203 0.0
H3559 H 0.88863 0.79128 0.60468 0.0
H3560 H 0.87379 0.76757 0.59223 0.0
H3561 H 0.8787 0.68482 0.63058 0.0
H3562 H 0.88802 0.69927 0.55863 0.0
H3563 H 0.85629 0.73459 0.62815 0.0
H3564 H 0.84789 0.72068 0.69941 0.0
H3565 H 0.89078 0.74357 0.58225 0.0
H3566 H 0.82417 0.71165 0.50414 0.0
H3567 H 0.81197 0.68923 0.46932 0.0
H3568 H 0.87948 0.6805 0.42301 0.0
H3569 H 0.89188 0.70312 0.45676 0.0
C3570 C 0.83929 0.78032 0.42011 0.0
C3571 C 0.84057 0.77851 0.36893 0.0
C3572 C 0.84752 0.77012 0.45201 0.0
C3573 C 0.85822 0.75815 0.43347 0.0
C3574 C 0.85918 0.75627 0.38197 0.0
C3575 C 0.85024 0.76632 0.34994 0.0
C3576 C 0.86715 0.74738 0.46812 0.0
C3577 C 0.86158 0.73338 0.46001 0.0
C3578 C 0.87927 0.75089 0.51141 0.0
C3579 C 0.8884 0.76511 0.51954 0.0
C3580 C 0.90149 0.7716 0.48302 0.0
C3581 C 0.90973 0.78508 0.49034 0.0
C3582 C 0.90509 0.79216 0.53415 0.0
C3583 C 0.89224 0.78577 0.57079 0.0
C3584 C 0.88396 0.77229 0.56367 0.0
C3585 C 0.87396 0.69571 0.63055 0.0
C3586 C 0.86207 0.70141 0.67064 0.0
C3587 C 0.87907 0.70396 0.58905 0.0
C3588 C 0.87235 0.71803 0.58695 0.0
C3589 C 0.86172 0.72382 0.62828 0.0
C3590 C 0.85682 0.71572 0.66938 0.0
C3591 C 0.87478 0.72696 0.54206 0.0
C3592 C 0.88263 0.74069 0.54797 0.0
C3593 C 0.86559 0.72316 0.49594 0.0
C3594 C 0.85896 0.70883 0.48376 0.0
C3595 C 0.83643 0.70479 0.48744 0.0
C3596 C 0.82946 0.69211 0.46738 0.0
C3597 C 0.84495 0.68344 0.44376 0.0
C3598 C 0.86752 0.68725 0.44122 0.0
C3599 C 0.87452 0.69998 0.46075 0.0
H3600 H 0.83955 0.6738 0.427 0.0
H3601 H 0.91145 0.80261 0.53971 0.0
H3602 H 0.45004 0.41605 0.72819 0.0
H3603 H 0.4777 0.41068 0.79208 0.0
H3604 H 0.43028 0.38354 0.86352 0.0
H3605 H 0.40247 0.38852 0.79825 0.0
H3606 H 0.45484 0.40849 0.92128 0.0
H3607 H 0.46466 0.36613 0.83134 0.0
H3608 H 0.4693 0.35187 0.75651 0.0
H3609 H 0.53088 0.37313 0.72336 0.0
H3610 H 0.5264 0.38769 0.79763 0.0
H3611 H 0.54411 0.39783 0.09324 0.0
H3612 H 0.51248 0.39103 0.04037 0.0
H3613 H 0.54809 0.40624 0.91286 0.0
H3614 H 0.57954 0.413 0.96498 0.0
H3615 H 0.5252 0.38205 0.89243 0.0
H3616 H 0.51181 0.4269 0.96957 0.0
H3617 H 0.50781 0.44258 0.04104 0.0
H3618 H 0.4533 0.41771 0.09549 0.0
H3619 H 0.45722 0.40175 0.02459 0.0
C3620 C 0.44553 0.40884 0.75726 0.0
C3621 C 0.42412 0.40273 0.75855 0.0
C3622 C 0.46134 0.40576 0.79358 0.0
C3623 C 0.4559 0.39674 0.83238 0.0
C3624 C 0.43463 0.3905 0.83368 0.0
C3625 C 0.4189 0.39331 0.79649 0.0
C3626 C 0.47236 0.39458 0.87243 0.0
C3627 C 0.46994 0.40236 0.91581 0.0
C3628 C 0.4922 0.38685 0.86448 0.0
C3629 C 0.49508 0.37809 0.81985 0.0
C3630 C 0.47907 0.36786 0.80785 0.0
C3631 C 0.48171 0.3597 0.76558 0.0
C3632 C 0.50036 0.36161 0.73513 0.0
C3633 C 0.51644 0.37167 0.74696 0.0
C3634 C 0.51387 0.37987 0.78918 0.0
C3635 C 0.54532 0.39951 0.05384 0.0
C3636 C 0.5642 0.40613 0.03338 0.0
C3637 C 0.52724 0.39564 0.02372 0.0
C3638 C 0.52789 0.39823 0.97274 0.0
C3639 C 0.54724 0.40412 0.95206 0.0
C3640 C 0.56514 0.40809 0.98203 0.0
C3641 C 0.50785 0.39613 0.94111 0.0
C3642 C 0.50975 0.38773 0.89893 0.0
C3643 C 0.48756 0.40339 0.94997 0.0
C3644 C 0.48499 0.41305 0.99219 0.0
C3645 C 0.49908 0.42473 0.99698 0.0
C3646 C 0.49682 0.43367 0.03734 0.0
C3647 C 0.48035 0.43112 0.07287 0.0
C3648 C 0.46607 0.41965 0.068 0.0
C3649 C 0.46831 0.41065 0.02774 0.0
H3650 H 0.47862 0.43805 0.1041 0.0
H3651 H 0.50237 0.35528 0.70242 0.0
H3652 H 0.64782 0.27974 0.18572 0.0
H3653 H 0.64072 0.26688 0.11025 0.0
H3654 H 0.63867 0.30539 0.02819 0.0
H3655 H 0.64622 0.31844 0.10432 0.0
H3656 H 0.60929 0.26464 0.04703 0.0
H3657 H 0.65919 0.3023 0.92602 0.0
H3658 H 0.69649 0.31277 0.91132 0.0
H3659 H 0.72628 0.28346 0.01153 0.0
H3660 H 0.68913 0.27329 0.02825 0.0
H3661 H 0.61891 0.22004 0.83556 0.0
H3662 H 0.60871 0.24063 0.88417 0.0
H3663 H 0.67875 0.24686 0.91972 0.0
H3664 H 0.68887 0.22712 0.86782 0.0
H3665 H 0.66258 0.26996 0.90829 0.0
H3666 H 0.63458 0.22883 0.99765 0.0
H3667 H 0.61011 0.20825 0.00703 0.0
H3668 H 0.55185 0.23392 0.98585 0.0
H3669 H 0.57604 0.25462 0.97595 0.0
C3670 C 0.64567 0.28554 0.15176 0.0
C3671 C 0.64765 0.30013 0.15105 0.0
C3672 C 0.64147 0.27815 0.10854 0.0
C3673 C 0.6392 0.28513 0.06335 0.0
C3674 C 0.64052 0.29976 0.06254 0.0
C3675 C 0.64464 0.30721 0.10612 0.0
C3676 C 0.63655 0.27683 0.01743 0.0
C3677 C 0.62086 0.26588 0.01647 0.0
C3678 C 0.65135 0.27838 0.9772 0.0
C3679 C 0.67144 0.28726 0.97904 0.0
C3680 C 0.6736 0.29852 0.94638 0.0
C3681 C 0.69473 0.3043 0.93738 0.0
C3682 C 0.71372 0.29863 0.96005 0.0
C3683 C 0.71153 0.28781 0.99405 0.0
C3684 C 0.69043 0.28221 0.00396 0.0
C3685 C 0.63205 0.22604 0.85322 0.0
C3686 C 0.65465 0.22214 0.84811 0.0
C3687 C 0.62621 0.2377 0.88133 0.0
C3688 C 0.64285 0.24524 0.90649 0.0
C3689 C 0.66551 0.24136 0.90044 0.0
C3690 C 0.67136 0.23006 0.8709 0.0
C3691 C 0.63726 0.25689 0.94058 0.0
C3692 C 0.6506 0.26887 0.9382 0.0
C3693 C 0.62154 0.25561 0.97951 0.0
C3694 C 0.60708 0.2432 0.98545 0.0
C3695 C 0.61656 0.23005 0.99475 0.0
C3696 C 0.60275 0.21838 1.00018 0.0
C3697 C 0.57944 0.21977 0.99687 0.0
C3698 C 0.5699 0.23285 0.98827 0.0
C3699 C 0.58364 0.24455 0.98275 0.0
H3700 H 0.56878 0.21072 0.00108 0.0
H3701 H 0.73022 0.30245 0.95102 0.0
H3702 H 0.92611 0.61448 0.53184 0.0
H3703 H 0.9571 0.62263 0.47926 0.0
H3704 H 0.99158 0.58364 0.50202 0.0
H3705 H 0.96031 0.57529 0.55272 0.0
H3706 H 0.01959 0.61021 0.50339 0.0
H3707 H 0.96379 0.58327 0.41032 0.0
H3708 H 0.92517 0.57871 0.38188 0.0
H3709 H 0.92211 0.61953 0.31744 0.0
H3710 H 0.96063 0.62442 0.3464 0.0
H3711 H 0.07627 0.57964 0.30388 0.0
H3712 H 0.05034 0.58631 0.36959 0.0
H3713 H 0.04348 0.6272 0.30546 0.0
H3714 H 0.07037 0.62073 0.24034 0.0
H3715 H 0.00121 0.6077 0.32505 0.0
H3716 H 0.06004 0.63281 0.40315 0.0
H3717 H 0.09874 0.63727 0.43145 0.0
H3718 H 0.09628 0.60066 0.52225 0.0
H3719 H 0.05758 0.59597 0.49426 0.0
C3720 C 0.9406 0.60783 0.52642 0.0
C3721 C 0.94105 0.59431 0.54604 0.0
C3722 C 0.95819 0.61247 0.49653 0.0
C3723 C 0.97656 0.60372 0.48713 0.0
C3724 C 0.97759 0.59055 0.50933 0.0
C3725 C 0.95977 0.58578 0.53798 0.0
C3726 C 0.9934 0.60741 0.44957 0.0
C3727 C 0.01559 0.60983 0.4644 0.0
C3728 C 0.98796 0.60724 0.39883 0.0
C3729 C 0.9649 0.6043 0.38124 0.0
C3730 C 0.95477 0.59133 0.39063 0.0
C3731 C 0.93293 0.58867 0.37432 0.0
C3732 C 0.92115 0.59885 0.34808 0.0
C3733 C 0.93122 0.61168 0.33795 0.0
C3734 C 0.95305 0.61441 0.35433 0.0
C3735 C 0.0695 0.59012 0.30422 0.0
C3736 C 0.07516 0.59967 0.26717 0.0
C3737 C 0.05481 0.59393 0.34178 0.0
C3738 C 0.04516 0.60724 0.34227 0.0
C3739 C 0.05095 0.61691 0.30568 0.0
C3740 C 0.06624 0.61321 0.26872 0.0
C3741 C 0.02751 0.61022 0.37882 0.0
C3742 C 0.00511 0.60878 0.36395 0.0
C3743 C 0.03274 0.61137 0.42942 0.0
C3744 C 0.05603 0.61398 0.44623 0.0
C3745 C 0.06785 0.62565 0.42878 0.0
C3746 C 0.08973 0.62825 0.44494 0.0
C3747 C 0.09999 0.61922 0.47847 0.0
C3748 C 0.08832 0.60763 0.49618 0.0
C3749 C 0.06638 0.60502 0.48031 0.0
H3750 H 0.11696 0.62123 0.49081 0.0
H3751 H 0.90425 0.59676 0.33543 0.0
H3752 H 0.83148 0.31006 0.88228 0.0
H3753 H 0.83321 0.29475 0.95351 0.0
H3754 H 0.90165 0.28405 0.9172 0.0
H3755 H 0.89921 0.29888 0.84306 0.0
H3756 H 0.88044 0.26166 0.93856 0.0
H3757 H 0.88753 0.30423 0.02428 0.0
H3758 H 0.87864 0.32887 0.04046 0.0
H3759 H 0.81155 0.31765 0.08225 0.0
H3760 H 0.81997 0.29287 0.06583 0.0
H3761 H 0.87675 0.21816 0.14891 0.0
H3762 H 0.88787 0.2376 0.09619 0.0
H3763 H 0.82012 0.25347 0.1006 0.0
H3764 H 0.80924 0.23437 0.15554 0.0
H3765 H 0.84853 0.27436 0.10143 0.0
H3766 H 0.84224 0.23162 0.00323 0.0
H3767 H 0.85252 0.20742 0.98225 0.0
H3768 H 0.92132 0.21971 0.96414 0.0
H3769 H 0.91147 0.24394 0.98551 0.0
C3770 C 0.84709 0.30472 0.89031 0.0
C3771 C 0.86539 0.30582 0.85816 0.0
C3772 C 0.84813 0.29599 0.93119 0.0
C3773 C 0.86776 0.28845 0.94176 0.0
C3774 C 0.88638 0.28984 0.91014 0.0
C3775 C 0.88513 0.29839 0.86822 0.0
C3776 C 0.86783 0.2784 0.98363 0.0
C3777 C 0.87399 0.26453 0.97455 0.0
C3778 C 0.85925 0.28202 0.03062 0.0
C3779 C 0.85439 0.29671 0.04372 0.0
C3780 C 0.8709 0.307 0.03704 0.0
C3781 C 0.86595 0.32097 0.04613 0.0
C3782 C 0.84458 0.32477 0.06218 0.0
C3783 C 0.82812 0.31463 0.06978 0.0
C3784 C 0.833 0.30061 0.06078 0.0
C3785 C 0.86431 0.2259 0.13911 0.0
C3786 C 0.84207 0.2247 0.15585 0.0
C3787 C 0.87065 0.23698 0.10875 0.0
C3788 C 0.85471 0.24681 0.09321 0.0
C3789 C 0.83272 0.24598 0.11182 0.0
C3790 C 0.82648 0.23506 0.14316 0.0
C3791 C 0.86048 0.25756 0.05576 0.0
C3792 C 0.85541 0.27156 0.06576 0.0
C3793 C 0.87038 0.25407 0.00983 0.0
C3794 C 0.87616 0.23954 0.9964 0.0
C3795 C 0.85957 0.22913 0.99497 0.0
C3796 C 0.86532 0.21542 0.983 0.0
C3797 C 0.88757 0.21203 0.97199 0.0
C3798 C 0.9041 0.22235 0.97274 0.0
C3799 C 0.89844 0.23607 0.98473 0.0
H3800 H 0.89199 0.2014 0.96278 0.0
H3801 H 0.84091 0.33559 0.06875 0.0
H3802 H 0.95269 0.41572 0.93441 0.0
H3803 H 0.98504 0.4103 0.98648 0.0
H3804 H 0.94696 0.37784 0.05836 0.0
H3805 H 0.91422 0.38371 0.00701 0.0
H3806 H 0.96683 0.39281 0.12432 0.0
H3807 H 0.99212 0.37046 0.97901 0.0
H3808 H 0.00022 0.36771 0.89045 0.0
H3809 H 0.04777 0.40125 0.89757 0.0
H3810 H 0.03972 0.40436 0.98603 0.0
H3811 H 0.06838 0.37714 0.2586 0.0
H3812 H 0.03941 0.37282 0.19576 0.0
H3813 H 0.05108 0.41363 0.13452 0.0
H3814 H 0.07925 0.41822 0.19823 0.0
H3815 H 0.04511 0.38914 0.06322 0.0
H3816 H 0.01239 0.41381 0.20427 0.0
H3817 H 0.00433 0.41621 0.29303 0.0
H3818 H 0.97074 0.37663 0.29241 0.0
H3819 H 0.97897 0.37391 0.2037 0.0
C3820 C 0.95145 0.40728 0.96084 0.0
C3821 C 0.93128 0.40001 0.96674 0.0
C3822 C 0.96993 0.40412 0.99036 0.0
C3823 C 0.96863 0.39346 0.02581 0.0
C3824 C 0.94843 0.38602 0.03105 0.0
C3825 C 0.92982 0.38931 0.00174 0.0
C3826 C 0.98779 0.39098 0.05978 0.0
C3827 C 0.98385 0.39163 0.11078 0.0
C3828 C 0.01012 0.38958 0.04238 0.0
C3829 C 0.01521 0.38769 0.9892 0.0
C3830 C 0.00421 0.37731 0.96166 0.0
C3831 C 0.0088 0.37568 0.91146 0.0
C3832 C 0.02448 0.38431 0.88838 0.0
C3833 C 0.03564 0.39457 0.9155 0.0
C3834 C 0.03109 0.39626 0.96571 0.0
C3835 C 0.06491 0.38509 0.23128 0.0
C3836 C 0.07577 0.39806 0.23335 0.0
C3837 C 0.04845 0.38261 0.19552 0.0
C3838 C 0.04321 0.39292 0.1607 0.0
C3839 C 0.05502 0.40555 0.16102 0.0
C3840 C 0.07096 0.40817 0.19752 0.0
C3841 C 0.02395 0.39127 0.12693 0.0
C3842 C 0.02795 0.38991 0.07628 0.0
C3843 C 0.00167 0.39188 0.1445 0.0
C3844 C 0.99658 0.39356 0.19763 0.0
C3845 C 0.0035 0.40555 0.2232 0.0
C3846 C 0.99887 0.40699 0.27346 0.0
C3847 C 0.98712 0.39655 0.2984 0.0
C3848 C 0.97991 0.38469 0.27308 0.0
C3849 C 0.98456 0.38319 0.22282 0.0
H3850 H 0.98353 0.39768 0.33731 0.0
H3851 H 0.028 0.38304 0.84951 0.0
H3852 H 0.61042 0.71183 0.30967 0.0
H3853 H 0.60806 0.7268 0.38275 0.0
H3854 H 0.64744 0.69714 0.46507 0.0
H3855 H 0.64906 0.68188 0.39275 0.0
H3856 H 0.59654 0.72362 0.48986 0.0
H3857 H 0.69381 0.7208 0.50777 0.0
H3858 H 0.72754 0.71712 0.45739 0.0
H3859 H 0.69024 0.7268 0.32621 0.0
H3860 H 0.6567 0.73156 0.3763 0.0
H3861 H 0.6769 0.76661 0.66646 0.0
H3862 H 0.66798 0.74608 0.61632 0.0
H3863 H 0.61561 0.76914 0.5427 0.0
H3864 H 0.62411 0.78949 0.593 0.0
H3865 H 0.6717 0.74425 0.51944 0.0
H3866 H 0.57521 0.74752 0.49926 0.0
H3867 H 0.54236 0.75473 0.54828 0.0
H3868 H 0.57822 0.74589 0.68201 0.0
H3869 H 0.61119 0.73846 0.63383 0.0
C3870 C 0.6177 0.70824 0.34403 0.0
C3871 C 0.62982 0.69569 0.34574 0.0
C3872 C 0.61635 0.71679 0.38568 0.0
C3873 C 0.62777 0.71312 0.42903 0.0
C3874 C 0.63851 0.70013 0.4319 0.0
C3875 C 0.6393 0.69139 0.39067 0.0
C3876 C 0.63126 0.72367 0.46814 0.0
C3877 C 0.61294 0.72816 0.49645 0.0
C3878 C 0.65271 0.7295 0.47676 0.0
C3879 C 0.67249 0.72611 0.44578 0.0
C3880 C 0.69276 0.72208 0.46815 0.0
C3881 C 0.71192 0.71992 0.43961 0.0
C3882 C 0.71097 0.72149 0.38842 0.0
C3883 C 0.6909 0.72543 0.36579 0.0
C3884 C 0.6718 0.72792 0.39432 0.0
C3885 C 0.66333 0.76723 0.63998 0.0
C3886 C 0.65129 0.77968 0.63356 0.0
C3887 C 0.65821 0.7555 0.61143 0.0
C3888 C 0.64091 0.756 0.57616 0.0
C3889 C 0.62867 0.76837 0.57037 0.0
C3890 C 0.63372 0.78006 0.59891 0.0
C3891 C 0.63712 0.74411 0.54206 0.0
C3892 C 0.65537 0.73948 0.51401 0.0
C3893 C 0.6156 0.7383 0.53349 0.0
C3894 C 0.59573 0.74252 0.56287 0.0
C3895 C 0.57605 0.74704 0.53912 0.0
C3896 C 0.55741 0.75119 0.56677 0.0
C3897 C 0.55822 0.7508 0.61823 0.0
C3898 C 0.57765 0.74623 0.64215 0.0
C3899 C 0.59632 0.74207 0.61469 0.0
H3900 H 0.54379 0.75403 0.63956 0.0
H3901 H 0.72584 0.71981 0.36632 0.0
H3902 H 0.59088 0.59082 0.53673 0.0
H3903 H 0.55863 0.59448 0.59005 0.0
H3904 H 0.52261 0.61369 0.47011 0.0
H3905 H 0.55502 0.61008 0.41579 0.0
H3906 H 0.51698 0.62663 0.56878 0.0
H3907 H 0.51207 0.58197 0.4868 0.0
H3908 H 0.52763 0.55937 0.46024 0.0
H3909 H 0.53826 0.54774 0.61128 0.0
H3910 H 0.52319 0.57037 0.63873 0.0
H3911 H 0.41317 0.61734 0.70125 0.0
H3912 H 0.44258 0.61938 0.63824 0.0
H3913 H 0.48224 0.58889 0.71659 0.0
H3914 H 0.45239 0.58629 0.77718 0.0
H3915 H 0.48313 0.58247 0.62777 0.0
H3916 H 0.49162 0.62622 0.71264 0.0
H3917 H 0.48136 0.64947 0.74396 0.0
H3918 H 0.4685 0.66346 0.59629 0.0
H3919 H 0.47804 0.64017 0.56416 0.0
C3920 C 0.57627 0.596 0.52157 0.0
C3921 C 0.57545 0.59997 0.47167 0.0
C3922 C 0.55786 0.5981 0.55224 0.0
C3923 C 0.53821 0.60417 0.53373 0.0
C3924 C 0.53769 0.60896 0.4849 0.0
C3925 C 0.55619 0.60686 0.45397 0.0
C3926 C 0.51779 0.60429 0.56459 0.0
C3927 C 0.50921 0.61703 0.58122 0.0
C3928 C 0.50815 0.5917 0.58132 0.0
C3929 C 0.51659 0.57791 0.5648 0.0
C3930 C 0.51783 0.57462 0.51434 0.0
C3931 C 0.52657 0.56181 0.49912 0.0
C3932 C 0.53393 0.55213 0.53405 0.0
C3933 C 0.53253 0.55524 0.58427 0.0
C3934 C 0.52388 0.56806 0.59967 0.0
C3935 C 0.42823 0.61114 0.70466 0.0
C3936 C 0.43046 0.60159 0.74351 0.0
C3937 C 0.44509 0.61236 0.66898 0.0
C3938 C 0.46477 0.60434 0.67261 0.0
C3939 C 0.46718 0.5951 0.7125 0.0
C3940 C 0.45012 0.59363 0.74724 0.0
C3941 C 0.48254 0.60489 0.63413 0.0
C3942 C 0.49057 0.59218 0.61542 0.0
C3943 C 0.49191 0.61754 0.61645 0.0
C3944 C 0.48527 0.63137 0.63604 0.0
C3945 C 0.48628 0.63418 0.68689 0.0
C3946 C 0.48065 0.64739 0.70478 0.0
C3947 C 0.47431 0.65794 0.67214 0.0
C3948 C 0.47346 0.65528 0.62153 0.0
C3949 C 0.47887 0.64207 0.60349 0.0
H3950 H 0.47003 0.66816 0.68605 0.0
H3951 H 0.54067 0.54221 0.52223 0.0
H3952 H 0.12582 0.2182 0.60518 0.0
H3953 H 0.11642 0.23826 0.55417 0.0
H3954 H 0.17063 0.2616 0.61951 0.0
H3955 H 0.1803 0.24142 0.67117 0.0
H3956 H 0.12675 0.27723 0.59732 0.0
H3957 H 0.18439 0.24832 0.52302 0.0
H3958 H 0.2005 0.22579 0.49736 0.0
H3959 H 0.14322 0.21815 0.40509 0.0
H3960 H 0.12661 0.24055 0.43087 0.0
H3961 H 0.14772 0.32389 0.39564 0.0
H3962 H 0.14509 0.3092 0.46877 0.0
H3963 H 0.10813 0.27855 0.38511 0.0
H3964 H 0.11184 0.29293 0.31122 0.0
H3965 H 0.14306 0.26726 0.42149 0.0
H3966 H 0.08638 0.29686 0.48798 0.0
H3967 H 0.06915 0.31908 0.51321 0.0
H3968 H 0.12175 0.32548 0.61907 0.0
H3969 H 0.13936 0.30335 0.5943 0.0
C3970 C 0.13559 0.22765 0.60939 0.0
C3971 C 0.15403 0.22816 0.64164 0.0
C3972 C 0.13008 0.23912 0.5804 0.0
C3973 C 0.14287 0.25134 0.58308 0.0
C3974 C 0.1605 0.25225 0.61726 0.0
C3975 C 0.1661 0.24069 0.64634 0.0
C3976 C 0.13958 0.26227 0.54542 0.0
C3977 C 0.1305 0.27521 0.55886 0.0
C3978 C 0.14405 0.25941 0.49534 0.0
C3979 C 0.15417 0.24603 0.47925 0.0
C3980 C 0.17516 0.24178 0.49758 0.0
C3981 C 0.18439 0.22904 0.48296 0.0
C3982 C 0.17286 0.22053 0.44971 0.0
C3983 C 0.15211 0.22475 0.43089 0.0
C3984 C 0.14279 0.23747 0.44546 0.0
C3985 C 0.13823 0.31428 0.39338 0.0
C3986 C 0.13005 0.30948 0.34781 0.0
C3987 C 0.13674 0.30587 0.4353 0.0
C3988 C 0.12651 0.2927 0.43249 0.0
C3989 C 0.11628 0.28861 0.38808 0.0
C3990 C 0.11825 0.29685 0.34594 0.0
C3991 C 0.12966 0.28235 0.47261 0.0
C3992 C 0.13902 0.26943 0.45972 0.0
C3993 C 0.12524 0.2853 0.52292 0.0
C3994 C 0.11443 0.29851 0.53865 0.0
C3995 C 0.0944 0.30305 0.51635 0.0
C3996 C 0.08451 0.31562 0.53068 0.0
C3997 C 0.09441 0.32372 0.56756 0.0
C3998 C 0.11413 0.31922 0.5904 0.0
C3999 C 0.12407 0.30665 0.57624 0.0
H4000 H 0.08674 0.33346 0.57855 0.0
H4001 H 0.18003 0.21067 0.43845 0.0
H4002 H 0.56501 0.57882 0.22725 0.0
H4003 H 0.53599 0.58191 0.1645 0.0
H4004 H 0.54066 0.62646 0.1807 0.0
H4005 H 0.57001 0.62347 0.24366 0.0
H4006 H 0.49495 0.59496 0.17937 0.0
H4007 H 0.53279 0.63983 0.06882 0.0
H4008 H 0.569 0.64808 0.03543 0.0
H4009 H 0.59328 0.60598 0.03041 0.0
H4010 H 0.55735 0.59755 0.06457 0.0
H4011 H 0.40602 0.61236 0.02449 0.0
H4012 H 0.43781 0.6169 0.07959 0.0
H4013 H 0.48311 0.60038 0.96995 0.0
H4014 H 0.45143 0.59679 0.9137 0.0
H4015 H 0.50417 0.61932 0.01928 0.0
H4016 H 0.45821 0.57958 0.06359 0.0
H4017 H 0.42253 0.56813 0.08564 0.0
H4018 H 0.4166 0.59443 0.21306 0.0
H4019 H 0.45211 0.60615 0.19135 0.0
C4020 C 0.55997 0.58929 0.21732 0.0
C4021 C 0.5698 0.60093 0.24016 0.0
C4022 C 0.54347 0.59103 0.18135 0.0
C4023 C 0.53649 0.60442 0.16754 0.0
C4024 C 0.5463 0.61608 0.19009 0.0
C4025 C 0.56291 0.61435 0.22611 0.0
C4026 C 0.5178 0.60608 0.13216 0.0
C4027 C 0.4969 0.60037 0.14449 0.0
C4028 C 0.52045 0.61299 0.08657 0.0
C4029 C 0.54253 0.61811 0.06955 0.0
C4030 C 0.54595 0.63237 0.0609 0.0
C4031 C 0.56639 0.63707 0.0418 0.0
C4032 C 0.58339 0.62755 0.03056 0.0
C4033 C 0.58008 0.61333 0.03896 0.0
C4034 C 0.55977 0.60861 0.05866 0.0
C4035 C 0.42289 0.61011 0.01188 0.0
C4036 C 0.42649 0.6042 0.96532 0.0
C4037 C 0.441 0.61261 0.04333 0.0
C4038 C 0.46279 0.60859 0.0295 0.0
C4039 C 0.46647 0.60352 0.98156 0.0
C4040 C 0.44842 0.60144 0.9495 0.0
C4041 C 0.48122 0.60816 0.06634 0.0
C4042 C 0.50205 0.61413 0.05449 0.0
C4043 C 0.47871 0.60109 0.1119 0.0
C4044 C 0.45769 0.5938 0.12566 0.0
C4045 C 0.44926 0.58293 0.09625 0.0
C4046 C 0.42906 0.5764 0.10866 0.0
C4047 C 0.41729 0.58056 0.15069 0.0
C4048 C 0.42573 0.59122 0.1805 0.0
C4049 C 0.44589 0.5978 0.16819 0.0
H4050 H 0.40163 0.57552 0.1602 0.0
H4051 H 0.59917 0.6312 0.01565 0.0
H4052 H 0.30576 0.76803 0.14031 0.0
H4053 H 0.31445 0.74829 0.08672 0.0
H4054 H 0.38469 0.75929 0.09044 0.0
H4055 H 0.37577 0.77954 0.14156 0.0
H4056 H 0.37548 0.75295 0.00262 0.0
H4057 H 0.36497 0.72674 0.151 0.0
H4058 H 0.34623 0.7208 0.22939 0.0
H4059 H 0.28493 0.71239 0.15147 0.0
H4060 H 0.30334 0.71843 0.0731 0.0
H4061 H 0.39261 0.68954 0.86016 0.0
H4062 H 0.39543 0.70456 0.9342 0.0
H4063 H 0.32404 0.71138 0.9289 0.0
H4064 H 0.32109 0.6964 0.85708 0.0
H4065 H 0.34157 0.7063 0.02757 0.0
H4066 H 0.35616 0.73407 0.87719 0.0
H4067 H 0.37855 0.73949 0.80313 0.0
H4068 H 0.43747 0.74441 0.89272 0.0
H4069 H 0.41546 0.73884 0.96722 0.0
C4070 C 0.32307 0.76612 0.13016 0.0
C4071 C 0.34008 0.77527 0.14523 0.0
C4072 C 0.3281 0.75475 0.09979 0.0
C4073 C 0.35036 0.75201 0.08522 0.0
C4074 C 0.36741 0.76108 0.10107 0.0
C4075 C 0.3623 0.77264 0.13043 0.0
C4076 C 0.35555 0.74018 0.05133 0.0
C4077 C 0.36842 0.74268 0.00877 0.0
C4078 C 0.34666 0.72667 0.05906 0.0
C4079 C 0.33557 0.72286 0.10606 0.0
C4080 C 0.34751 0.72359 0.15067 0.0
C4081 C 0.33695 0.72023 0.19514 0.0
C4082 C 0.31443 0.71617 0.19542 0.0
C4083 C 0.30243 0.71544 0.15123 0.0
C4084 C 0.31296 0.71873 0.10672 0.0
C4085 C 0.37755 0.69399 0.87597 0.0
C4086 C 0.35661 0.69179 0.85347 0.0
C4087 C 0.37914 0.70258 0.91795 0.0
C4088 C 0.35979 0.70893 0.93762 0.0
C4089 C 0.33898 0.7063 0.91559 0.0
C4090 C 0.33738 0.69784 0.87416 0.0
C4091 C 0.36078 0.71927 0.97842 0.0
C4092 C 0.34899 0.71649 0.02218 0.0
C4093 C 0.37118 0.7324 0.97238 0.0
C4094 C 0.38425 0.73588 0.92762 0.0
C4095 C 0.37393 0.7362 0.88101 0.0
C4096 C 0.38654 0.73932 0.83898 0.0
C4097 C 0.40944 0.74225 0.8432 0.0
C4098 C 0.41975 0.74211 0.88948 0.0
C4099 C 0.40722 0.73898 0.93161 0.0
H4100 H 0.41918 0.74465 0.81063 0.0
H4101 H 0.30625 0.71364 0.22989 0.0
H4102 H 0.06597 0.42479 0.50466 0.0
H4103 H 0.03558 0.41755 0.55815 0.0
H4104 H 0.02593 0.38046 0.47112 0.0
H4105 H 0.05688 0.38759 0.41664 0.0
H4106 H 0.98467 0.39551 0.50295 0.0
H4107 H 0.04991 0.37447 0.56956 0.0
H4108 H 0.08965 0.37321 0.59449 0.0
H4109 H 0.07881 0.40547 0.70149 0.0
H4110 H 0.03909 0.40711 0.67661 0.0
H4111 H 0.91534 0.37968 0.71865 0.0
H4112 H 0.94332 0.37574 0.65335 0.0
H4113 H 0.97569 0.41444 0.69101 0.0
H4114 H 0.94807 0.4185 0.7557 0.0
H4115 H 0.00514 0.39073 0.67959 0.0
H4116 H 0.94296 0.41482 0.59864 0.0
H4117 H 0.90391 0.41735 0.56988 0.0
H4118 H 0.90941 0.37906 0.48895 0.0
H4119 H 0.94843 0.3762 0.5179 0.0
C4120 C 0.05744 0.41511 0.49636 0.0
C4121 C 0.06415 0.40668 0.45659 0.0
C4122 C 0.04003 0.411 0.52713 0.0
C4123 C 0.02883 0.39838 0.519 0.0
C4124 C 0.03456 0.3902 0.47804 0.0
C4125 C 0.05221 0.39429 0.44706 0.0
C4126 C 0.01177 0.39387 0.55515 0.0
C4127 C 0.98909 0.394 0.54139 0.0
C4128 C 0.01766 0.39201 0.60524 0.0
C4129 C 0.04149 0.39094 0.62105 0.0
C4130 C 0.05602 0.38136 0.5982 0.0
C4131 C 0.07855 0.38057 0.61234 0.0
C4132 C 0.08675 0.38926 0.64952 0.0
C4133 C 0.07243 0.39874 0.67271 0.0
C4134 C 0.04988 0.39959 0.65865 0.0
C4135 C 0.92844 0.38733 0.71289 0.0
C4136 C 0.92949 0.39943 0.74209 0.0
C4137 C 0.94428 0.38508 0.6756 0.0
C4138 C 0.96138 0.39484 0.66736 0.0
C4139 C 0.96261 0.40679 0.69694 0.0
C4140 C 0.94675 0.40911 0.73374 0.0
C4141 C 0.97805 0.39294 0.62764 0.0
C4142 C 0.00069 0.39165 0.64093 0.0
C4143 C 0.97209 0.39365 0.57721 0.0
C4144 C 0.94848 0.3952 0.56096 0.0
C4145 C 0.93575 0.40685 0.57523 0.0
C4146 C 0.91366 0.40838 0.55872 0.0
C4147 C 0.9042 0.39839 0.5275 0.0
C4148 C 0.91678 0.38681 0.51299 0.0
C4149 C 0.93886 0.38522 0.5295 0.0
H4150 H 0.8871 0.3996 0.51472 0.0
H4151 H 0.1042 0.38865 0.66039 0.0
H4152 H 0.14716 0.67909 0.09933 0.0
H4153 H 0.14625 0.69364 0.02556 0.0
H4154 H 0.11626 0.72698 0.10893 0.0
H4155 H 0.1177 0.71264 0.18351 0.0
H4156 H 0.10453 0.72135 0.99042 0.0
H4157 H 0.16172 0.73476 0.11661 0.0
H4158 H 0.18989 0.72763 0.17847 0.0
H4159 H 0.22391 0.70315 0.06931 0.0
H4160 H 0.1954 0.70981 0.00716 0.0
H4161 H 0.13716 0.78711 0.9032 0.0
H4162 H 0.12801 0.76656 0.95166 0.0
H4163 H 0.18188 0.74394 0.88203 0.0
H4164 H 0.19123 0.76466 0.83272 0.0
H4165 H 0.18156 0.74109 0.98386 0.0
H4166 H 0.12943 0.73591 0.85205 0.0
H4167 H 0.10024 0.74316 0.79294 0.0
H4168 H 0.0551 0.75176 0.91241 0.0
H4169 H 0.08413 0.74478 0.97233 0.0
C4170 C 0.13933 0.68926 0.1016 0.0
C4171 C 0.13264 0.69478 0.14735 0.0
C4172 C 0.1389 0.69757 0.05933 0.0
C4173 C 0.13129 0.71136 0.06206 0.0
C4174 C 0.12206 0.71631 0.10622 0.0
C4175 C 0.1229 0.70812 0.14877 0.0
C4176 C 0.13742 0.72134 0.02293 0.0
C4177 C 0.12129 0.72573 0.98878 0.0
C4178 C 0.15942 0.72675 0.02051 0.0
C4179 C 0.17662 0.72282 0.05735 0.0
C4180 C 0.17519 0.72782 0.10592 0.0
C4181 C 0.19113 0.72383 0.14101 0.0
C4182 C 0.20871 0.71496 0.12772 0.0
C4183 C 0.2103 0.71002 0.07939 0.0
C4184 C 0.19426 0.71388 0.04427 0.0
C4185 C 0.14708 0.77777 0.8979 0.0
C4186 C 0.16495 0.77752 0.86405 0.0
C4187 C 0.1417 0.76599 0.92547 0.0
C4188 C 0.15403 0.75366 0.91996 0.0
C4189 C 0.17204 0.75334 0.88653 0.0
C4190 C 0.17736 0.76516 0.85845 0.0
C4191 C 0.14855 0.74143 0.95118 0.0
C4192 C 0.16485 0.7366 0.98436 0.0
C4193 C 0.12661 0.7357 0.95263 0.0
C4194 C 0.10905 0.7399 0.91673 0.0
C4195 C 0.11335 0.73946 0.86577 0.0
C4196 C 0.09681 0.7435 0.8321 0.0
C4197 C 0.07584 0.74794 0.84891 0.0
C4198 C 0.07135 0.74833 0.89944 0.0
C4199 C 0.08784 0.74431 0.93327 0.0
H4200 H 0.06306 0.75106 0.82278 0.0
H4201 H 0.2211 0.71193 0.15486 0.0
H4202 H 0.9104 0.61671 0.78461 0.0
H4203 H 0.93472 0.62062 0.85683 0.0
H4204 H 0.96877 0.58184 0.82731 0.0
H4205 H 0.94473 0.57781 0.75677 0.0
H4206 H 0.9588 0.58333 0.92108 0.0
H4207 H 0.99149 0.6152 0.79738 0.0
H4208 H 0.98861 0.63537 0.74126 0.0
H4209 H 0.96971 0.66157 0.86264 0.0
H4210 H 0.97239 0.64152 0.91939 0.0
H4211 H 0.06958 0.57893 0.9786 0.0
H4212 H 0.03615 0.58557 0.9333 0.0
H4213 H 0.01813 0.61452 0.04806 0.0
H4214 H 0.05195 0.60789 0.09463 0.0
H4215 H 0.01222 0.62283 0.93395 0.0
H4216 H 0.98983 0.59009 0.05981 0.0
H4217 H 0.99584 0.5691 0.11058 0.0
H4218 H 0.9965 0.54372 0.98025 0.0
H4219 H 0.99085 0.56459 0.92864 0.0
C4220 C 0.9231 0.60906 0.79374 0.0
C4221 C 0.92556 0.59691 0.7652 0.0
C4222 C 0.93694 0.6113 0.83494 0.0
C4223 C 0.95344 0.60146 0.84777 0.0
C4224 C 0.95597 0.58949 0.81869 0.0
C4225 C 0.94222 0.58723 0.7781 0.0
C4226 C 0.96847 0.60324 0.89101 0.0
C4227 C 0.97025 0.59208 0.92425 0.0
C4228 C 0.98302 0.61481 0.89628 0.0
C4229 C 0.98196 0.62688 0.86245 0.0
C4230 C 0.98669 0.62527 0.81201 0.0
C4231 C 0.98509 0.63667 0.78013 0.0
C4232 C 0.97893 0.64974 0.79836 0.0
C4233 C 0.97447 0.65145 0.84858 0.0
C4234 C 0.97606 0.64008 0.88062 0.0
C4235 C 0.05876 0.58682 0.99436 0.0
C4236 C 0.06339 0.59274 0.04072 0.0
C4237 C 0.03968 0.59066 0.96813 0.0
C4238 C 0.02472 0.60048 0.98746 0.0
C4239 C 0.02961 0.60695 0.03256 0.0
C4240 C 0.04885 0.60308 0.05915 0.0
C4241 C 0.00307 0.60261 0.96191 0.0
C4242 C 9e-05 0.61442 0.93211 0.0
C4243 C 0.98744 0.59157 0.95937 0.0
C4244 C 0.98994 0.57891 0.99039 0.0
C4245 C 0.99131 0.58003 0.04198 0.0
C4246 C 0.99467 0.56816 0.0709 0.0
C4247 C 0.99656 0.55508 0.04865 0.0
C4248 C 0.995 0.55385 0.99744 0.0
C4249 C 0.99167 0.5657 0.96835 0.0
H4250 H 0.99923 0.54591 0.07109 0.0
H4251 H 0.97765 0.65855 0.77361 0.0
H4252 H 0.3953 0.30983 0.64798 0.0
H4253 H 0.40265 0.29631 0.57173 0.0
H4254 H 0.33424 0.28165 0.57289 0.0
H4255 H 0.32722 0.29441 0.64867 0.0
H4256 H 0.3844 0.26256 0.57596 0.0
H4257 H 0.32395 0.29005 0.44323 0.0
H4258 H 0.31449 0.31353 0.41252 0.0
H4259 H 0.38124 0.32756 0.44555 0.0
H4260 H 0.39101 0.30421 0.47697 0.0
H4261 H 0.315 0.23153 0.36267 0.0
H4262 H 0.3257 0.25161 0.41332 0.0
H4263 H 0.39278 0.23508 0.42723 0.0
H4264 H 0.38191 0.2148 0.3786 0.0
H4265 H 0.35463 0.27213 0.40854 0.0
H4266 H 0.4139 0.24115 0.53452 0.0
H4267 H 0.41875 0.21726 0.56671 0.0
H4268 H 0.34777 0.21026 0.55506 0.0
H4269 H 0.34259 0.23401 0.5221 0.0
C4270 C 0.38196 0.30376 0.63148 0.0
C4271 C 0.36086 0.3029 0.65434 0.0
C4272 C 0.38607 0.29617 0.58803 0.0
C4273 C 0.36885 0.28815 0.5667 0.0
C4274 C 0.34763 0.28788 0.58859 0.0
C4275 C 0.34375 0.29504 0.63215 0.0
C4276 C 0.37286 0.27837 0.52577 0.0
C4277 C 0.37883 0.26472 0.53863 0.0
C4278 C 0.36444 0.28113 0.4781 0.0
C4279 C 0.3582 0.2954 0.46247 0.0
C4280 C 0.33657 0.29817 0.44411 0.0
C4281 C 0.33115 0.31144 0.42657 0.0
C4282 C 0.3473 0.32199 0.42674 0.0
C4283 C 0.36878 0.31936 0.44528 0.0
C4284 C 0.3742 0.30614 0.46339 0.0
C4285 C 0.33202 0.23224 0.37645 0.0
C4286 C 0.34752 0.22154 0.36739 0.0
C4287 C 0.33817 0.24373 0.40515 0.0
C4288 C 0.35997 0.24475 0.42475 0.0
C4289 C 0.37574 0.23438 0.41355 0.0
C4290 C 0.3695 0.2228 0.38568 0.0
C4291 C 0.36579 0.25625 0.45906 0.0
C4292 C 0.36124 0.27004 0.44507 0.0
C4293 C 0.3749 0.25359 0.50636 0.0
C4294 C 0.37793 0.23926 0.52544 0.0
C4295 C 0.39937 0.23448 0.5387 0.0
C4296 C 0.40217 0.22095 0.55689 0.0
C4297 C 0.38359 0.21221 0.56253 0.0
C4298 C 0.36217 0.21697 0.55006 0.0
C4299 C 0.35931 0.23044 0.53146 0.0
H4300 H 0.38578 0.20176 0.57679 0.0
H4301 H 0.34314 0.33222 0.41269 0.0
H4302 H 0.44203 0.39617 0.59328 0.0
H4303 H 0.47391 0.38892 0.54197 0.0
H4304 H 0.4445 0.40987 0.41693 0.0
H4305 H 0.41283 0.41706 0.46738 0.0
H4306 H 0.46306 0.38481 0.39092 0.0
H4307 H 0.48277 0.42613 0.48687 0.0
H4308 H 0.48851 0.43884 0.56489 0.0
H4309 H 0.53736 0.40855 0.61031 0.0
H4310 H 0.53167 0.39556 0.53271 0.0
H4311 H 0.5405 0.41994 0.24106 0.0
H4312 H 0.51365 0.41431 0.30618 0.0
H4313 H 0.55826 0.38263 0.36183 0.0
H4314 H 0.5851 0.38792 0.29547 0.0
H4315 H 0.53653 0.40618 0.43245 0.0
H4316 H 0.52172 0.36782 0.32486 0.0
H4317 H 0.51582 0.35657 0.2442 0.0
H4318 H 0.45772 0.38208 0.21917 0.0
H4319 H 0.46349 0.39365 0.2994 0.0
C4320 C 0.44224 0.39904 0.55466 0.0
C4321 C 0.42503 0.40732 0.5345 0.0
C4322 C 0.46045 0.39491 0.52548 0.0
C4323 C 0.4616 0.39893 0.47574 0.0
C4324 C 0.44393 0.40662 0.45517 0.0
C4325 C 0.42591 0.41083 0.48423 0.0
C4326 C 0.48181 0.39627 0.44542 0.0
C4327 C 0.47921 0.38933 0.40024 0.0
C4328 C 0.503 0.40192 0.45807 0.0
C4329 C 0.50659 0.40979 0.50437 0.0
C4330 C 0.49462 0.42214 0.51367 0.0
C4331 C 0.49787 0.42939 0.55777 0.0
C4332 C 0.51324 0.42448 0.59262 0.0
C4333 C 0.52543 0.41232 0.58334 0.0
C4334 C 0.5222 0.40501 0.53931 0.0
C4335 C 0.5446 0.41175 0.26705 0.0
C4336 C 0.56483 0.40435 0.26325 0.0
C4337 C 0.52926 0.40854 0.30411 0.0
C4338 C 0.53404 0.39805 0.33851 0.0
C4339 C 0.55434 0.39073 0.33539 0.0
C4340 C 0.56954 0.39373 0.2975 0.0
C4341 C 0.51752 0.39507 0.3776 0.0
C4342 C 0.52071 0.4011 0.42413 0.0
C4343 C 0.49685 0.38864 0.36615 0.0
C4344 C 0.49315 0.38167 0.31801 0.0
C4345 C 0.50781 0.37112 0.30197 0.0
C4346 C 0.50446 0.36467 0.25636 0.0
C4347 C 0.48643 0.36863 0.22653 0.0
C4348 C 0.47168 0.37903 0.24231 0.0
C4349 C 0.47496 0.38552 0.2879 0.0
H4350 H 0.48386 0.36362 0.19122 0.0
H4351 H 0.51574 0.43011 0.62675 0.0
loop_
_geom_bond_atom_site_label_1
_geom_bond_atom_site_label_2
_geom_bond_distance
_geom_bond_site_symmetry_2
_ccdc_geom_bond_type
Mn0 O5 2.095 . S
Mn0 O15 2.162 . S
Mn0 O16 2.297 . S
Mn0 O24 2.385 . S
Mn0 O25 2.209 . S
Mn0 O26 2.094 . S
Mn1 O6 2.121 . S
Mn1 N8 2.257 . S
Mn1 N17 2.282 . S
Mn1 O25 2.215 . S
Mn1 O27 2.117 . S
C2 O24 1.234 . S
C2 O25 1.283 . S
C3 O15 1.281 . S
C3 O16 1.236 . S
C4 O26 1.240 . S
C4 O27 1.264 . S
O5 Mn0 2.095 . S
O5 C14 1.250 . S
O6 Mn1 2.121 . S
O6 C14 1.258 . S
C7 N8 1.326 . S
C7 C11 1.460 . S
C7 H13 0.929 . S
N8 Mn1 2.257 . S
N8 C7 1.326 . S
N8 C12 1.362 . S
C9 C10 1.258 . S
C9 C12 1.431 . S
C9 C29 1.449 . S
C10 C9 1.258 . S
C10 C11 1.477 . S
C10 H30 0.931 . S
C11 C7 1.460 . S
C11 C10 1.477 . S
C11 H31 0.930 . S
C12 N8 1.362 . S
C12 C9 1.431 . S
C12 C22 1.476 . S
H13 C7 0.929 . S
C14 O5 1.250 . S
C14 O6 1.258 . S
O15 Mn0 2.162 . S
O15 C3 1.281 . S
O16 Mn0 2.297 . S
O16 C3 1.236 . S
N17 Mn1 2.282 . S
N17 C18 1.328 . S
N17 C22 1.318 . S
C18 N17 1.328 . S
C18 C19 1.457 . S
C18 H23 0.929 . S
C19 C18 1.457 . S
C19 C20 1.291 . S
C19 H32 0.931 . S
C20 C19 1.291 . S
C20 C21 1.373 . S
C20 H33 0.929 . S
C21 C20 1.373 . S
C21 C22 1.396 . S
C21 C28 1.403 . S
C22 C12 1.476 . S
C22 N17 1.318 . S
C22 C21 1.396 . S
H23 C18 0.929 . S
O24 Mn0 2.385 . S
O24 C2 1.234 . S
O25 Mn0 2.209 . S
O25 Mn1 2.215 . S
O25 C2 1.283 . S
O26 Mn0 2.094 . S
O26 C4 1.240 . S
O27 Mn1 2.117 . S
O27 C4 1.264 . S
C28 C21 1.403 . S
C28 C29 1.399 . S
C28 H34 0.929 . S
C29 C9 1.449 . S
C29 C28 1.399 . S
C29 H35 0.930 . S
H30 C10 0.931 . S
H31 C11 0.930 . S
H32 C19 0.931 . S
H33 C20 0.929 . S
H34 C28 0.929 . S
H35 C29 0.930 . S
Mn36 O41 2.095 . S
Mn36 O51 2.162 . S
Mn36 O52 2.297 . S
Mn36 O60 2.385 . S
Mn36 O61 2.209 . S
Mn36 O62 2.094 . S
Mn37 O42 2.121 . S
Mn37 N44 2.257 . S
Mn37 N53 2.282 . S
Mn37 O61 2.215 . S
Mn37 O63 2.117 . S
C38 O60 1.234 . S
C38 O61 1.283 . S
C39 O51 1.281 . S
C39 O52 1.236 . S
C40 O62 1.240 . S
C40 O63 1.264 . S
O41 Mn36 2.095 . S
O41 C50 1.250 . S
O42 Mn37 2.121 . S
O42 C50 1.258 . S
C43 N44 1.326 . S
C43 C47 1.460 . S
C43 H49 0.929 . S
N44 Mn37 2.257 . S
N44 C43 1.326 . S
N44 C48 1.362 . S
C45 C46 1.258 . S
C45 C48 1.431 . S
C45 C65 1.449 . S
C46 C45 1.258 . S
C46 C47 1.477 . S
C46 H66 0.931 . S
C47 C43 1.460 . S
C47 C46 1.477 . S
C47 H67 0.930 . S
C48 N44 1.362 . S
C48 C45 1.431 . S
C48 C58 1.476 . S
H49 C43 0.929 . S
C50 O41 1.250 . S
C50 O42 1.258 . S
O51 Mn36 2.162 . S
O51 C39 1.281 . S
O52 Mn36 2.297 . S
O52 C39 1.236 . S
N53 Mn37 2.282 . S
N53 C54 1.328 . S
N53 C58 1.318 . S
C54 N53 1.328 . S
C54 C55 1.457 . S
C54 H59 0.929 . S
C55 C54 1.457 . S
C55 C56 1.291 . S
C55 H68 0.931 . S
C56 C55 1.291 . S
C56 C57 1.373 . S
C56 H69 0.929 . S
C57 C56 1.373 . S
C57 C58 1.396 . S
C57 C64 1.403 . S
C58 C48 1.476 . S
C58 N53 1.318 . S
C58 C57 1.396 . S
H59 C54 0.929 . S
O60 Mn36 2.385 . S
O60 C38 1.234 . S
O61 Mn36 2.209 . S
O61 Mn37 2.215 . S
O61 C38 1.283 . S
O62 Mn36 2.094 . S
O62 C40 1.240 . S
O63 Mn37 2.117 . S
O63 C40 1.264 . S
C64 C57 1.403 . S
C64 C65 1.399 . S
C64 H70 0.929 . S
C65 C45 1.449 . S
C65 C64 1.399 . S
C65 H71 0.930 . S
H66 C46 0.931 . S
H67 C47 0.930 . S
H68 C55 0.931 . S
H69 C56 0.929 . S
H70 C64 0.929 . S
H71 C65 0.930 . S
Mn72 O77 2.095 . S
Mn72 O87 2.162 . S
Mn72 O88 2.297 . S
Mn72 O96 2.385 . S
Mn72 O97 2.209 . S
Mn72 O98 2.094 . S
Mn73 O78 2.121 . S
Mn73 N80 2.257 . S
Mn73 N89 2.282 . S
Mn73 O97 2.215 . S
Mn73 O99 2.117 . S
C74 O96 1.234 . S
C74 O97 1.283 . S
C75 O87 1.281 . S
C75 O88 1.236 . S
C76 O98 1.240 . S
C76 O99 1.264 . S
O77 Mn72 2.095 . S
O77 C86 1.250 . S
O78 Mn73 2.121 . S
O78 C86 1.258 . S
C79 N80 1.326 . S
C79 C83 1.460 . S
C79 H85 0.929 . S
N80 Mn73 2.257 . S
N80 C79 1.326 . S
N80 C84 1.362 . S
C81 C82 1.258 . S
C81 C84 1.431 . S
C81 C101 1.449 . S
C82 C81 1.258 . S
C82 C83 1.477 . S
C82 H102 0.931 . S
C83 C79 1.460 . S
C83 C82 1.477 . S
C83 H103 0.930 . S
C84 N80 1.362 . S
C84 C81 1.431 . S
C84 C94 1.476 . S
H85 C79 0.929 . S
C86 O77 1.250 . S
C86 O78 1.258 . S
O87 Mn72 2.162 . S
O87 C75 1.281 . S
O88 Mn72 2.297 . S
O88 C75 1.236 . S
N89 Mn73 2.282 . S
N89 C90 1.328 . S
N89 C94 1.318 . S
C90 N89 1.328 . S
C90 C91 1.457 . S
C90 H95 0.929 . S
C91 C90 1.457 . S
C91 C92 1.291 . S
C91 H104 0.931 . S
C92 C91 1.291 . S
C92 C93 1.373 . S
C92 H105 0.929 . S
C93 C92 1.373 . S
C93 C94 1.396 . S
C93 C100 1.403 . S
C94 C84 1.476 . S
C94 N89 1.318 . S
C94 C93 1.396 . S
H95 C90 0.929 . S
O96 Mn72 2.385 . S
O96 C74 1.234 . S
O97 Mn72 2.209 . S
O97 Mn73 2.215 . S
O97 C74 1.283 . S
O98 Mn72 2.094 . S
O98 C76 1.240 . S
O99 Mn73 2.117 . S
O99 C76 1.264 . S
C100 C93 1.403 . S
C100 C101 1.399 . S
C100 H106 0.929 . S
C101 C81 1.449 . S
C101 C100 1.399 . S
C101 H107 0.930 . S
H102 C82 0.931 . S
H103 C83 0.930 . S
H104 C91 0.931 . S
H105 C92 0.929 . S
H106 C100 0.929 . S
H107 C101 0.930 . S
Mn108 O113 2.095 . S
Mn108 O123 2.162 . S
Mn108 O124 2.297 . S
Mn108 O132 2.385 . S
Mn108 O133 2.209 . S
Mn108 O134 2.094 . S
Mn109 O114 2.121 . S
Mn109 N116 2.257 . S
Mn109 N125 2.282 . S
Mn109 O133 2.215 . S
Mn109 O135 2.117 . S
C110 O132 1.234 . S
C110 O133 1.283 . S
C111 O123 1.281 . S
C111 O124 1.236 . S
C112 O134 1.240 . S
C112 O135 1.264 . S
O113 Mn108 2.095 . S
O113 C122 1.250 . S
O114 Mn109 2.121 . S
O114 C122 1.258 . S
C115 N116 1.326 . S
C115 C119 1.460 . S
C115 H121 0.929 . S
N116 Mn109 2.257 . S
N116 C115 1.326 . S
N116 C120 1.362 . S
C117 C118 1.258 . S
C117 C120 1.431 . S
C117 C137 1.449 . S
C118 C117 1.258 . S
C118 C119 1.477 . S
C118 H138 0.931 . S
C119 C115 1.460 . S
C119 C118 1.477 . S
C119 H139 0.930 . S
C120 N116 1.362 . S
C120 C117 1.431 . S
C120 C130 1.476 . S
H121 C115 0.929 . S
C122 O113 1.250 . S
C122 O114 1.258 . S
O123 Mn108 2.162 . S
O123 C111 1.281 . S
O124 Mn108 2.297 . S
O124 C111 1.236 . S
N125 Mn109 2.282 . S
N125 C126 1.328 . S
N125 C130 1.318 . S
C126 N125 1.328 . S
C126 C127 1.457 . S
C126 H131 0.929 . S
C127 C126 1.457 . S
C127 C128 1.291 . S
C127 H140 0.931 . S
C128 C127 1.291 . S
C128 C129 1.373 . S
C128 H141 0.929 . S
C129 C128 1.373 . S
C129 C130 1.396 . S
C129 C136 1.403 . S
C130 C120 1.476 . S
C130 N125 1.318 . S
C130 C129 1.396 . S
H131 C126 0.929 . S
O132 Mn108 2.385 . S
O132 C110 1.234 . S
O133 Mn108 2.209 . S
O133 Mn109 2.215 . S
O133 C110 1.283 . S
O134 Mn108 2.094 . S
O134 C112 1.240 . S
O135 Mn109 2.117 . S
O135 C112 1.264 . S
C136 C129 1.403 . S
C136 C137 1.399 . S
C136 H142 0.929 . S
C137 C117 1.449 . S
C137 C136 1.399 . S
C137 H143 0.930 . S
H138 C118 0.931 . S
H139 C119 0.930 . S
H140 C127 0.931 . S
H141 C128 0.929 . S
H142 C136 0.929 . S
H143 C137 0.930 . S
Mn144 O149 2.095 . S
Mn144 O159 2.162 . S
Mn144 O160 2.297 . S
Mn144 O168 2.385 . S
Mn144 O169 2.209 . S
Mn144 O170 2.094 . S
Mn145 O150 2.121 . S
Mn145 N152 2.257 . S
Mn145 N161 2.282 . S
Mn145 O169 2.215 . S
Mn145 O171 2.117 . S
C146 O168 1.234 . S
C146 O169 1.283 . S
C147 O159 1.281 . S
C147 O160 1.236 . S
C148 O170 1.240 . S
C148 O171 1.264 . S
O149 Mn144 2.095 . S
O149 C158 1.250 . S
O150 Mn145 2.121 . S
O150 C158 1.258 . S
C151 N152 1.326 . S
C151 C155 1.460 . S
C151 H157 0.929 . S
N152 Mn145 2.257 . S
N152 C151 1.326 . S
N152 C156 1.362 . S
C153 C154 1.258 . S
C153 C156 1.431 . S
C153 C173 1.449 . S
C154 C153 1.258 . S
C154 C155 1.477 . S
C154 H174 0.931 . S
C155 C151 1.460 . S
C155 C154 1.477 . S
C155 H175 0.930 . S
C156 N152 1.362 . S
C156 C153 1.431 . S
C156 C166 1.476 . S
H157 C151 0.929 . S
C158 O149 1.250 . S
C158 O150 1.258 . S
O159 Mn144 2.162 . S
O159 C147 1.281 . S
O160 Mn144 2.297 . S
O160 C147 1.236 . S
N161 Mn145 2.282 . S
N161 C162 1.328 . S
N161 C166 1.318 . S
C162 N161 1.328 . S
C162 C163 1.457 . S
C162 H167 0.929 . S
C163 C162 1.457 . S
C163 C164 1.291 . S
C163 H176 0.931 . S
C164 C163 1.291 . S
C164 C165 1.373 . S
C164 H177 0.929 . S
C165 C164 1.373 . S
C165 C166 1.396 . S
C165 C172 1.403 . S
C166 C156 1.476 . S
C166 N161 1.318 . S
C166 C165 1.396 . S
H167 C162 0.929 . S
O168 Mn144 2.385 . S
O168 C146 1.234 . S
O169 Mn144 2.209 . S
O169 Mn145 2.215 . S
O169 C146 1.283 . S
O170 Mn144 2.094 . S
O170 C148 1.240 . S
O171 Mn145 2.117 . S
O171 C148 1.264 . S
C172 C165 1.403 . S
C172 C173 1.399 . S
C172 H178 0.929 . S
C173 C153 1.449 . S
C173 C172 1.399 . S
C173 H179 0.930 . S
H174 C154 0.931 . S
H175 C155 0.930 . S
H176 C163 0.931 . S
H177 C164 0.929 . S
H178 C172 0.929 . S
H179 C173 0.930 . S
Mn180 O185 2.095 . S
Mn180 O195 2.162 . S
Mn180 O196 2.297 . S
Mn180 O204 2.385 . S
Mn180 O205 2.209 . S
Mn180 O206 2.094 . S
Mn181 O186 2.121 . S
Mn181 N188 2.257 . S
Mn181 N197 2.282 . S
Mn181 O205 2.215 . S
Mn181 O207 2.117 . S
C182 O204 1.234 . S
C182 O205 1.283 . S
C183 O195 1.281 . S
C183 O196 1.236 . S
C184 O206 1.240 . S
C184 O207 1.264 . S
O185 Mn180 2.095 . S
O185 C194 1.250 . S
O186 Mn181 2.121 . S
O186 C194 1.258 . S
C187 N188 1.326 . S
C187 C191 1.460 . S
C187 H193 0.929 . S
N188 Mn181 2.257 . S
N188 C187 1.326 . S
N188 C192 1.362 . S
C189 C190 1.258 . S
C189 C192 1.431 . S
C189 C209 1.449 . S
C190 C189 1.258 . S
C190 C191 1.477 . S
C190 H210 0.931 . S
C191 C187 1.460 . S
C191 C190 1.477 . S
C191 H211 0.930 . S
C192 N188 1.362 . S
C192 C189 1.431 . S
C192 C202 1.476 . S
H193 C187 0.929 . S
C194 O185 1.250 . S
C194 O186 1.258 . S
O195 Mn180 2.162 . S
O195 C183 1.281 . S
O196 Mn180 2.297 . S
O196 C183 1.236 . S
N197 Mn181 2.282 . S
N197 C198 1.328 . S
N197 C202 1.318 . S
C198 N197 1.328 . S
C198 C199 1.457 . S
C198 H203 0.929 . S
C199 C198 1.457 . S
C199 C200 1.291 . S
C199 H212 0.931 . S
C200 C199 1.291 . S
C200 C201 1.373 . S
C200 H213 0.929 . S
C201 C200 1.373 . S
C201 C202 1.396 . S
C201 C208 1.403 . S
C202 C192 1.476 . S
C202 N197 1.318 . S
C202 C201 1.396 . S
H203 C198 0.929 . S
O204 Mn180 2.385 . S
O204 C182 1.234 . S
O205 Mn180 2.209 . S
O205 Mn181 2.215 . S
O205 C182 1.283 . S
O206 Mn180 2.094 . S
O206 C184 1.240 . S
O207 Mn181 2.117 . S
O207 C184 1.264 . S
C208 C201 1.403 . S
C208 C209 1.399 . S
C208 H214 0.929 . S
C209 C189 1.449 . S
C209 C208 1.399 . S
C209 H215 0.930 . S
H210 C190 0.931 . S
H211 C191 0.930 . S
H212 C199 0.931 . S
H213 C200 0.929 . S
H214 C208 0.929 . S
H215 C209 0.930 . S
Mn216 O221 2.095 . S
Mn216 O231 2.162 . S
Mn216 O232 2.297 . S
Mn216 O240 2.385 . S
Mn216 O241 2.209 . S
Mn216 O242 2.094 . S
Mn217 O222 2.121 . S
Mn217 N224 2.257 . S
Mn217 N233 2.282 . S
Mn217 O241 2.215 . S
Mn217 O243 2.117 . S
C218 O240 1.234 . S
C218 O241 1.283 . S
C219 O231 1.281 . S
C219 O232 1.236 . S
C220 O242 1.240 . S
C220 O243 1.264 . S
O221 Mn216 2.095 . S
O221 C230 1.250 . S
O222 Mn217 2.121 . S
O222 C230 1.258 . S
C223 N224 1.326 . S
C223 C227 1.460 . S
C223 H229 0.929 . S
N224 Mn217 2.257 . S
N224 C223 1.326 . S
N224 C228 1.362 . S
C225 C226 1.258 . S
C225 C228 1.431 . S
C225 C245 1.449 . S
C226 C225 1.258 . S
C226 C227 1.477 . S
C226 H246 0.931 . S
C227 C223 1.460 . S
C227 C226 1.477 . S
C227 H247 0.930 . S
C228 N224 1.362 . S
C228 C225 1.431 . S
C228 C238 1.476 . S
H229 C223 0.929 . S
C230 O221 1.250 . S
C230 O222 1.258 . S
O231 Mn216 2.162 . S
O231 C219 1.281 . S
O232 Mn216 2.297 . S
O232 C219 1.236 . S
N233 Mn217 2.282 . S
N233 C234 1.328 . S
N233 C238 1.318 . S
C234 N233 1.328 . S
C234 C235 1.457 . S
C234 H239 0.929 . S
C235 C234 1.457 . S
C235 C236 1.291 . S
C235 H248 0.931 . S
C236 C235 1.291 . S
C236 C237 1.373 . S
C236 H249 0.929 . S
C237 C236 1.373 . S
C237 C238 1.396 . S
C237 C244 1.403 . S
C238 C228 1.476 . S
C238 N233 1.318 . S
C238 C237 1.396 . S
H239 C234 0.929 . S
O240 Mn216 2.385 . S
O240 C218 1.234 . S
O241 Mn216 2.209 . S
O241 Mn217 2.215 . S
O241 C218 1.283 . S
O242 Mn216 2.094 . S
O242 C220 1.240 . S
O243 Mn217 2.117 . S
O243 C220 1.264 . S
C244 C237 1.403 . S
C244 C245 1.399 . S
C244 H250 0.929 . S
C245 C225 1.449 . S
C245 C244 1.399 . S
C245 H251 0.930 . S
H246 C226 0.931 . S
H247 C227 0.930 . S
H248 C235 0.931 . S
H249 C236 0.929 . S
H250 C244 0.929 . S
H251 C245 0.930 . S
Mn252 O257 2.095 . S
Mn252 O267 2.162 . S
Mn252 O268 2.297 . S
Mn252 O276 2.385 . S
Mn252 O277 2.209 . S
Mn252 O278 2.094 . S
Mn253 O258 2.121 . S
Mn253 N260 2.257 . S
Mn253 N269 2.282 . S
Mn253 O277 2.215 . S
Mn253 O279 2.117 . S
C254 O276 1.234 . S
C254 O277 1.283 . S
C255 O267 1.281 . S
C255 O268 1.236 . S
C256 O278 1.240 . S
C256 O279 1.264 . S
O257 Mn252 2.095 . S
O257 C266 1.250 . S
O258 Mn253 2.121 . S
O258 C266 1.258 . S
C259 N260 1.326 . S
C259 C263 1.460 . S
C259 H265 0.929 . S
N260 Mn253 2.257 . S
N260 C259 1.326 . S
N260 C264 1.362 . S
C261 C262 1.258 . S
C261 C264 1.431 . S
C261 C281 1.449 . S
C262 C261 1.258 . S
C262 C263 1.477 . S
C262 H282 0.931 . S
C263 C259 1.460 . S
C263 C262 1.477 . S
C263 H283 0.930 . S
C264 N260 1.362 . S
C264 C261 1.431 . S
C264 C274 1.476 . S
H265 C259 0.929 . S
C266 O257 1.250 . S
C266 O258 1.258 . S
O267 Mn252 2.162 . S
O267 C255 1.281 . S
O268 Mn252 2.297 . S
O268 C255 1.236 . S
N269 Mn253 2.282 . S
N269 C270 1.328 . S
N269 C274 1.318 . S
C270 N269 1.328 . S
C270 C271 1.457 . S
C270 H275 0.929 . S
C271 C270 1.457 . S
C271 C272 1.291 . S
C271 H284 0.931 . S
C272 C271 1.291 . S
C272 C273 1.373 . S
C272 H285 0.929 . S
C273 C272 1.373 . S
C273 C274 1.396 . S
C273 C280 1.403 . S
C274 C264 1.476 . S
C274 N269 1.318 . S
C274 C273 1.396 . S
H275 C270 0.929 . S
O276 Mn252 2.385 . S
O276 C254 1.234 . S
O277 Mn252 2.209 . S
O277 Mn253 2.215 . S
O277 C254 1.283 . S
O278 Mn252 2.094 . S
O278 C256 1.240 . S
O279 Mn253 2.117 . S
O279 C256 1.264 . S
C280 C273 1.403 . S
C280 C281 1.399 . S
C280 H286 0.929 . S
C281 C261 1.449 . S
C281 C280 1.399 . S
C281 H287 0.930 . S
H282 C262 0.931 . S
H283 C263 0.930 . S
H284 C271 0.931 . S
H285 C272 0.929 . S
H286 C280 0.929 . S
H287 C281 0.930 . S
Mn288 O293 2.095 . S
Mn288 O303 2.162 . S
Mn288 O304 2.297 . S
Mn288 O312 2.385 . S
Mn288 O313 2.209 . S
Mn288 O314 2.094 . S
Mn289 O294 2.121 . S
Mn289 N296 2.257 . S
Mn289 N305 2.282 . S
Mn289 O313 2.215 . S
Mn289 O315 2.117 . S
C290 O312 1.234 . S
C290 O313 1.283 . S
C291 O303 1.281 . S
C291 O304 1.236 . S
C292 O314 1.240 . S
C292 O315 1.264 . S
O293 Mn288 2.095 . S
O293 C302 1.250 . S
O294 Mn289 2.121 . S
O294 C302 1.258 . S
C295 N296 1.326 . S
C295 C299 1.460 . S
C295 H301 0.929 . S
N296 Mn289 2.257 . S
N296 C295 1.326 . S
N296 C300 1.362 . S
C297 C298 1.258 . S
C297 C300 1.431 . S
C297 C317 1.449 . S
C298 C297 1.258 . S
C298 C299 1.477 . S
C298 H318 0.931 . S
C299 C295 1.460 . S
C299 C298 1.477 . S
C299 H319 0.930 . S
C300 N296 1.362 . S
C300 C297 1.431 . S
C300 C310 1.476 . S
H301 C295 0.929 . S
C302 O293 1.250 . S
C302 O294 1.258 . S
O303 Mn288 2.162 . S
O303 C291 1.281 . S
O304 Mn288 2.297 . S
O304 C291 1.236 . S
N305 Mn289 2.282 . S
N305 C306 1.328 . S
N305 C310 1.318 . S
C306 N305 1.328 . S
C306 C307 1.457 . S
C306 H311 0.929 . S
C307 C306 1.457 . S
C307 C308 1.291 . S
C307 H320 0.931 . S
C308 C307 1.291 . S
C308 C309 1.373 . S
C308 H321 0.929 . S
C309 C308 1.373 . S
C309 C310 1.396 . S
C309 C316 1.403 . S
C310 C300 1.476 . S
C310 N305 1.318 . S
C310 C309 1.396 . S
H311 C306 0.929 . S
O312 Mn288 2.385 . S
O312 C290 1.234 . S
O313 Mn288 2.209 . S
O313 Mn289 2.215 . S
O313 C290 1.283 . S
O314 Mn288 2.094 . S
O314 C292 1.240 . S
O315 Mn289 2.117 . S
O315 C292 1.264 . S
C316 C309 1.403 . S
C316 C317 1.399 . S
C316 H322 0.929 . S
C317 C297 1.449 . S
C317 C316 1.399 . S
C317 H323 0.930 . S
H318 C298 0.931 . S
H319 C299 0.930 . S
H320 C307 0.931 . S
H321 C308 0.929 . S
H322 C316 0.929 . S
H323 C317 0.930 . S
Mn324 O329 2.095 . S
Mn324 O339 2.162 . S
Mn324 O340 2.297 . S
Mn324 O348 2.385 . S
Mn324 O349 2.209 . S
Mn324 O350 2.094 . S
Mn325 O330 2.121 . S
Mn325 N332 2.257 . S
Mn325 N341 2.282 . S
Mn325 O349 2.215 . S
Mn325 O351 2.117 . S
C326 O348 1.234 . S
C326 O349 1.283 . S
C327 O339 1.281 . S
C327 O340 1.236 . S
C328 O350 1.240 . S
C328 O351 1.264 . S
O329 Mn324 2.095 . S
O329 C338 1.250 . S
O330 Mn325 2.121 . S
O330 C338 1.258 . S
C331 N332 1.326 . S
C331 C335 1.460 . S
C331 H337 0.929 . S
N332 Mn325 2.257 . S
N332 C331 1.326 . S
N332 C336 1.362 . S
C333 C334 1.258 . S
C333 C336 1.431 . S
C333 C353 1.449 . S
C334 C333 1.258 . S
C334 C335 1.477 . S
C334 H354 0.931 . S
C335 C331 1.460 . S
C335 C334 1.477 . S
C335 H355 0.930 . S
C336 N332 1.362 . S
C336 C333 1.431 . S
C336 C346 1.476 . S
H337 C331 0.929 . S
C338 O329 1.250 . S
C338 O330 1.258 . S
O339 Mn324 2.162 . S
O339 C327 1.281 . S
O340 Mn324 2.297 . S
O340 C327 1.236 . S
N341 Mn325 2.282 . S
N341 C342 1.328 . S
N341 C346 1.318 . S
C342 N341 1.328 . S
C342 C343 1.457 . S
C342 H347 0.929 . S
C343 C342 1.457 . S
C343 C344 1.291 . S
C343 H356 0.931 . S
C344 C343 1.291 . S
C344 C345 1.373 . S
C344 H357 0.929 . S
C345 C344 1.373 . S
C345 C346 1.396 . S
C345 C352 1.403 . S
C346 C336 1.476 . S
C346 N341 1.318 . S
C346 C345 1.396 . S
H347 C342 0.929 . S
O348 Mn324 2.385 . S
O348 C326 1.234 . S
O349 Mn324 2.209 . S
O349 Mn325 2.215 . S
O349 C326 1.283 . S
O350 Mn324 2.094 . S
O350 C328 1.240 . S
O351 Mn325 2.117 . S
O351 C328 1.264 . S
C352 C345 1.403 . S
C352 C353 1.399 . S
C352 H358 0.929 . S
C353 C333 1.449 . S
C353 C352 1.399 . S
C353 H359 0.930 . S
H354 C334 0.931 . S
H355 C335 0.930 . S
H356 C343 0.931 . S
H357 C344 0.929 . S
H358 C352 0.929 . S
H359 C353 0.930 . S
Mn360 O365 2.095 . S
Mn360 O375 2.162 . S
Mn360 O376 2.297 . S
Mn360 O384 2.385 . S
Mn360 O385 2.209 . S
Mn360 O386 2.094 . S
Mn361 O366 2.121 . S
Mn361 N368 2.257 . S
Mn361 N377 2.282 . S
Mn361 O385 2.215 . S
Mn361 O387 2.117 . S
C362 O384 1.234 . S
C362 O385 1.283 . S
C363 O375 1.281 . S
C363 O376 1.236 . S
C364 O386 1.240 . S
C364 O387 1.264 . S
O365 Mn360 2.095 . S
O365 C374 1.250 . S
O366 Mn361 2.121 . S
O366 C374 1.258 . S
C367 N368 1.326 . S
C367 C371 1.460 . S
C367 H373 0.929 . S
N368 Mn361 2.257 . S
N368 C367 1.326 . S
N368 C372 1.362 . S
C369 C370 1.258 . S
C369 C372 1.431 . S
C369 C389 1.449 . S
C370 C369 1.258 . S
C370 C371 1.477 . S
C370 H390 0.931 . S
C371 C367 1.460 . S
C371 C370 1.477 . S
C371 H391 0.930 . S
C372 N368 1.362 . S
C372 C369 1.431 . S
C372 C382 1.476 . S
H373 C367 0.929 . S
C374 O365 1.250 . S
C374 O366 1.258 . S
O375 Mn360 2.162 . S
O375 C363 1.281 . S
O376 Mn360 2.297 . S
O376 C363 1.236 . S
N377 Mn361 2.282 . S
N377 C378 1.328 . S
N377 C382 1.318 . S
C378 N377 1.328 . S
C378 C379 1.457 . S
C378 H383 0.929 . S
C379 C378 1.457 . S
C379 C380 1.291 . S
C379 H392 0.931 . S
C380 C379 1.291 . S
C380 C381 1.373 . S
C380 H393 0.929 . S
C381 C380 1.373 . S
C381 C382 1.396 . S
C381 C388 1.403 . S
C382 C372 1.476 . S
C382 N377 1.318 . S
C382 C381 1.396 . S
H383 C378 0.929 . S
O384 Mn360 2.385 . S
O384 C362 1.234 . S
O385 Mn360 2.209 . S
O385 Mn361 2.215 . S
O385 C362 1.283 . S
O386 Mn360 2.094 . S
O386 C364 1.240 . S
O387 Mn361 2.117 . S
O387 C364 1.264 . S
C388 C381 1.403 . S
C388 C389 1.399 . S
C388 H394 0.929 . S
C389 C369 1.449 . S
C389 C388 1.399 . S
C389 H395 0.930 . S
H390 C370 0.931 . S
H391 C371 0.930 . S
H392 C379 0.931 . S
H393 C380 0.929 . S
H394 C388 0.929 . S
H395 C389 0.930 . S
Mn396 O401 2.095 . S
Mn396 O411 2.162 . S
Mn396 O412 2.297 . S
Mn396 O420 2.385 . S
Mn396 O421 2.209 . S
Mn396 O422 2.094 . S
Mn397 O402 2.121 . S
Mn397 N404 2.257 . S
Mn397 N413 2.282 . S
Mn397 O421 2.215 . S
Mn397 O423 2.117 . S
C398 O420 1.234 . S
C398 O421 1.283 . S
C399 O411 1.281 . S
C399 O412 1.236 . S
C400 O422 1.240 . S
C400 O423 1.264 . S
O401 Mn396 2.095 . S
O401 C410 1.250 . S
O402 Mn397 2.121 . S
O402 C410 1.258 . S
C403 N404 1.326 . S
C403 C407 1.460 . S
C403 H409 0.929 . S
N404 Mn397 2.257 . S
N404 C403 1.326 . S
N404 C408 1.362 . S
C405 C406 1.258 . S
C405 C408 1.431 . S
C405 C425 1.449 . S
C406 C405 1.258 . S
C406 C407 1.477 . S
C406 H426 0.931 . S
C407 C403 1.460 . S
C407 C406 1.477 . S
C407 H427 0.930 . S
C408 N404 1.362 . S
C408 C405 1.431 . S
C408 C418 1.476 . S
H409 C403 0.929 . S
C410 O401 1.250 . S
C410 O402 1.258 . S
O411 Mn396 2.162 . S
O411 C399 1.281 . S
O412 Mn396 2.297 . S
O412 C399 1.236 . S
N413 Mn397 2.282 . S
N413 C414 1.328 . S
N413 C418 1.318 . S
C414 N413 1.328 . S
C414 C415 1.457 . S
C414 H419 0.929 . S
C415 C414 1.457 . S
C415 C416 1.291 . S
C415 H428 0.931 . S
C416 C415 1.291 . S
C416 C417 1.373 . S
C416 H429 0.929 . S
C417 C416 1.373 . S
C417 C418 1.396 . S
C417 C424 1.403 . S
C418 C408 1.476 . S
C418 N413 1.318 . S
C418 C417 1.396 . S
H419 C414 0.929 . S
O420 Mn396 2.385 . S
O420 C398 1.234 . S
O421 Mn396 2.209 . S
O421 Mn397 2.215 . S
O421 C398 1.283 . S
O422 Mn396 2.094 . S
O422 C400 1.240 . S
O423 Mn397 2.117 . S
O423 C400 1.264 . S
C424 C417 1.403 . S
C424 C425 1.399 . S
C424 H430 0.929 . S
C425 C405 1.449 . S
C425 C424 1.399 . S
C425 H431 0.930 . S
H426 C406 0.931 . S
H427 C407 0.930 . S
H428 C415 0.931 . S
H429 C416 0.929 . S
H430 C424 0.929 . S
H431 C425 0.930 . S
Mn432 O437 2.095 . S
Mn432 O447 2.162 . S
Mn432 O448 2.297 . S
Mn432 O456 2.385 . S
Mn432 O457 2.209 . S
Mn432 O458 2.094 . S
Mn433 O438 2.121 . S
Mn433 N440 2.257 . S
Mn433 N449 2.282 . S
Mn433 O457 2.215 . S
Mn433 O459 2.117 . S
C434 O456 1.234 . S
C434 O457 1.283 . S
C435 O447 1.281 . S
C435 O448 1.236 . S
C436 O458 1.240 . S
C436 O459 1.264 . S
O437 Mn432 2.095 . S
O437 C446 1.250 . S
O438 Mn433 2.121 . S
O438 C446 1.258 . S
C439 N440 1.326 . S
C439 C443 1.460 . S
C439 H445 0.929 . S
N440 Mn433 2.257 . S
N440 C439 1.326 . S
N440 C444 1.362 . S
C441 C442 1.258 . S
C441 C444 1.431 . S
C441 C461 1.449 . S
C442 C441 1.258 . S
C442 C443 1.477 . S
C442 H462 0.931 . S
C443 C439 1.460 . S
C443 C442 1.477 . S
C443 H463 0.930 . S
C444 N440 1.362 . S
C444 C441 1.431 . S
C444 C454 1.476 . S
H445 C439 0.929 . S
C446 O437 1.250 . S
C446 O438 1.258 . S
O447 Mn432 2.162 . S
O447 C435 1.281 . S
O448 Mn432 2.297 . S
O448 C435 1.236 . S
N449 Mn433 2.282 . S
N449 C450 1.328 . S
N449 C454 1.318 . S
C450 N449 1.328 . S
C450 C451 1.457 . S
C450 H455 0.929 . S
C451 C450 1.457 . S
C451 C452 1.291 . S
C451 H464 0.931 . S
C452 C451 1.291 . S
C452 C453 1.373 . S
C452 H465 0.929 . S
C453 C452 1.373 . S
C453 C454 1.396 . S
C453 C460 1.403 . S
C454 C444 1.476 . S
C454 N449 1.318 . S
C454 C453 1.396 . S
H455 C450 0.929 . S
O456 Mn432 2.385 . S
O456 C434 1.234 . S
O457 Mn432 2.209 . S
O457 Mn433 2.215 . S
O457 C434 1.283 . S
O458 Mn432 2.094 . S
O458 C436 1.240 . S
O459 Mn433 2.117 . S
O459 C436 1.264 . S
C460 C453 1.403 . S
C460 C461 1.399 . S
C460 H466 0.929 . S
C461 C441 1.449 . S
C461 C460 1.399 . S
C461 H467 0.930 . S
H462 C442 0.931 . S
H463 C443 0.930 . S
H464 C451 0.931 . S
H465 C452 0.929 . S
H466 C460 0.929 . S
H467 C461 0.930 . S
Mn468 O473 2.095 . S
Mn468 O483 2.162 . S
Mn468 O484 2.297 . S
Mn468 O492 2.385 . S
Mn468 O493 2.209 . S
Mn468 O494 2.094 . S
Mn469 O474 2.121 . S
Mn469 N476 2.257 . S
Mn469 N485 2.282 . S
Mn469 O493 2.215 . S
Mn469 O495 2.117 . S
C470 O492 1.234 . S
C470 O493 1.283 . S
C471 O483 1.281 . S
C471 O484 1.236 . S
C472 O494 1.240 . S
C472 O495 1.264 . S
O473 Mn468 2.095 . S
O473 C482 1.250 . S
O474 Mn469 2.121 . S
O474 C482 1.258 . S
C475 N476 1.326 . S
C475 C479 1.460 . S
C475 H481 0.929 . S
N476 Mn469 2.257 . S
N476 C475 1.326 . S
N476 C480 1.362 . S
C477 C478 1.258 . S
C477 C480 1.431 . S
C477 C497 1.449 . S
C478 C477 1.258 . S
C478 C479 1.477 . S
C478 H498 0.931 . S
C479 C475 1.460 . S
C479 C478 1.477 . S
C479 H499 0.930 . S
C480 N476 1.362 . S
C480 C477 1.431 . S
C480 C490 1.476 . S
H481 C475 0.929 . S
C482 O473 1.250 . S
C482 O474 1.258 . S
O483 Mn468 2.162 . S
O483 C471 1.281 . S
O484 Mn468 2.297 . S
O484 C471 1.236 . S
N485 Mn469 2.282 . S
N485 C486 1.328 . S
N485 C490 1.318 . S
C486 N485 1.328 . S
C486 C487 1.457 . S
C486 H491 0.929 . S
C487 C486 1.457 . S
C487 C488 1.291 . S
C487 H500 0.931 . S
C488 C487 1.291 . S
C488 C489 1.373 . S
C488 H501 0.929 . S
C489 C488 1.373 . S
C489 C490 1.396 . S
C489 C496 1.403 . S
C490 C480 1.476 . S
C490 N485 1.318 . S
C490 C489 1.396 . S
H491 C486 0.929 . S
O492 Mn468 2.385 . S
O492 C470 1.234 . S
O493 Mn468 2.209 . S
O493 Mn469 2.215 . S
O493 C470 1.283 . S
O494 Mn468 2.094 . S
O494 C472 1.240 . S
O495 Mn469 2.117 . S
O495 C472 1.264 . S
C496 C489 1.403 . S
C496 C497 1.399 . S
C496 H502 0.929 . S
C497 C477 1.449 . S
C497 C496 1.399 . S
C497 H503 0.930 . S
H498 C478 0.931 . S
H499 C479 0.930 . S
H500 C487 0.931 . S
H501 C488 0.929 . S
H502 C496 0.929 . S
H503 C497 0.930 . S
Mn504 O509 2.095 . S
Mn504 O519 2.162 . S
Mn504 O520 2.297 . S
Mn504 O528 2.385 . S
Mn504 O529 2.209 . S
Mn504 O530 2.094 . S
Mn505 O510 2.121 . S
Mn505 N512 2.257 . S
Mn505 N521 2.282 . S
Mn505 O529 2.215 . S
Mn505 O531 2.117 . S
C506 O528 1.234 . S
C506 O529 1.283 . S
C507 O519 1.281 . S
C507 O520 1.236 . S
C508 O530 1.240 . S
C508 O531 1.264 . S
O509 Mn504 2.095 . S
O509 C518 1.250 . S
O510 Mn505 2.121 . S
O510 C518 1.258 . S
C511 N512 1.326 . S
C511 C515 1.460 . S
C511 H517 0.929 . S
N512 Mn505 2.257 . S
N512 C511 1.326 . S
N512 C516 1.362 . S
C513 C514 1.258 . S
C513 C516 1.431 . S
C513 C533 1.449 . S
C514 C513 1.258 . S
C514 C515 1.477 . S
C514 H534 0.931 . S
C515 C511 1.460 . S
C515 C514 1.477 . S
C515 H535 0.930 . S
C516 N512 1.362 . S
C516 C513 1.431 . S
C516 C526 1.476 . S
H517 C511 0.929 . S
C518 O509 1.250 . S
C518 O510 1.258 . S
O519 Mn504 2.162 . S
O519 C507 1.281 . S
O520 Mn504 2.297 . S
O520 C507 1.236 . S
N521 Mn505 2.282 . S
N521 C522 1.328 . S
N521 C526 1.318 . S
C522 N521 1.328 . S
C522 C523 1.457 . S
C522 H527 0.929 . S
C523 C522 1.457 . S
C523 C524 1.291 . S
C523 H536 0.931 . S
C524 C523 1.291 . S
C524 C525 1.373 . S
C524 H537 0.929 . S
C525 C524 1.373 . S
C525 C526 1.396 . S
C525 C532 1.403 . S
C526 C516 1.476 . S
C526 N521 1.318 . S
C526 C525 1.396 . S
H527 C522 0.929 . S
O528 Mn504 2.385 . S
O528 C506 1.234 . S
O529 Mn504 2.209 . S
O529 Mn505 2.215 . S
O529 C506 1.283 . S
O530 Mn504 2.094 . S
O530 C508 1.240 . S
O531 Mn505 2.117 . S
O531 C508 1.264 . S
C532 C525 1.403 . S
C532 C533 1.399 . S
C532 H538 0.929 . S
C533 C513 1.449 . S
C533 C532 1.399 . S
C533 H539 0.930 . S
H534 C514 0.931 . S
H535 C515 0.930 . S
H536 C523 0.931 . S
H537 C524 0.929 . S
H538 C532 0.929 . S
H539 C533 0.930 . S
Mn540 O545 2.095 . S
Mn540 O555 2.162 . S
Mn540 O556 2.297 . S
Mn540 O564 2.385 . S
Mn540 O565 2.209 . S
Mn540 O566 2.094 . S
Mn541 O546 2.121 . S
Mn541 N548 2.257 . S
Mn541 N557 2.282 . S
Mn541 O565 2.215 . S
Mn541 O567 2.117 . S
C542 O564 1.234 . S
C542 O565 1.283 . S
C543 O555 1.281 . S
C543 O556 1.236 . S
C544 O566 1.240 . S
C544 O567 1.264 . S
O545 Mn540 2.095 . S
O545 C554 1.250 . S
O546 Mn541 2.121 . S
O546 C554 1.258 . S
C547 N548 1.326 . S
C547 C551 1.460 . S
C547 H553 0.929 . S
N548 Mn541 2.257 . S
N548 C547 1.326 . S
N548 C552 1.362 . S
C549 C550 1.258 . S
C549 C552 1.431 . S
C549 C569 1.449 . S
C550 C549 1.258 . S
C550 C551 1.477 . S
C550 H570 0.931 . S
C551 C547 1.460 . S
C551 C550 1.477 . S
C551 H571 0.930 . S
C552 N548 1.362 . S
C552 C549 1.431 . S
C552 C562 1.476 . S
H553 C547 0.929 . S
C554 O545 1.250 . S
C554 O546 1.258 . S
O555 Mn540 2.162 . S
O555 C543 1.281 . S
O556 Mn540 2.297 . S
O556 C543 1.236 . S
N557 Mn541 2.282 . S
N557 C558 1.328 . S
N557 C562 1.318 . S
C558 N557 1.328 . S
C558 C559 1.457 . S
C558 H563 0.929 . S
C559 C558 1.457 . S
C559 C560 1.291 . S
C559 H572 0.931 . S
C560 C559 1.291 . S
C560 C561 1.373 . S
C560 H573 0.929 . S
C561 C560 1.373 . S
C561 C562 1.396 . S
C561 C568 1.403 . S
C562 C552 1.476 . S
C562 N557 1.318 . S
C562 C561 1.396 . S
H563 C558 0.929 . S
O564 Mn540 2.385 . S
O564 C542 1.234 . S
O565 Mn540 2.209 . S
O565 Mn541 2.215 . S
O565 C542 1.283 . S
O566 Mn540 2.094 . S
O566 C544 1.240 . S
O567 Mn541 2.117 . S
O567 C544 1.264 . S
C568 C561 1.403 . S
C568 C569 1.399 . S
C568 H574 0.929 . S
C569 C549 1.449 . S
C569 C568 1.399 . S
C569 H575 0.930 . S
H570 C550 0.931 . S
H571 C551 0.930 . S
H572 C559 0.931 . S
H573 C560 0.929 . S
H574 C568 0.929 . S
H575 C569 0.930 . S
Mn576 O581 2.095 . S
Mn576 O591 2.162 . S
Mn576 O592 2.297 . S
Mn576 O600 2.385 . S
Mn576 O601 2.209 . S
Mn576 O602 2.094 . S
Mn577 O582 2.121 . S
Mn577 N584 2.257 . S
Mn577 N593 2.282 . S
Mn577 O601 2.215 . S
Mn577 O603 2.117 . S
C578 O600 1.234 . S
C578 O601 1.283 . S
C579 O591 1.281 . S
C579 O592 1.236 . S
C580 O602 1.240 . S
C580 O603 1.264 . S
O581 Mn576 2.095 . S
O581 C590 1.250 . S
O582 Mn577 2.121 . S
O582 C590 1.258 . S
C583 N584 1.326 . S
C583 C587 1.460 . S
C583 H589 0.929 . S
N584 Mn577 2.257 . S
N584 C583 1.326 . S
N584 C588 1.362 . S
C585 C586 1.258 . S
C585 C588 1.431 . S
C585 C605 1.449 . S
C586 C585 1.258 . S
C586 C587 1.477 . S
C586 H606 0.931 . S
C587 C583 1.460 . S
C587 C586 1.477 . S
C587 H607 0.930 . S
C588 N584 1.362 . S
C588 C585 1.431 . S
C588 C598 1.476 . S
H589 C583 0.929 . S
C590 O581 1.250 . S
C590 O582 1.258 . S
O591 Mn576 2.162 . S
O591 C579 1.281 . S
O592 Mn576 2.297 . S
O592 C579 1.236 . S
N593 Mn577 2.282 . S
N593 C594 1.328 . S
N593 C598 1.318 . S
C594 N593 1.328 . S
C594 C595 1.457 . S
C594 H599 0.929 . S
C595 C594 1.457 . S
C595 C596 1.291 . S
C595 H608 0.931 . S
C596 C595 1.291 . S
C596 C597 1.373 . S
C596 H609 0.929 . S
C597 C596 1.373 . S
C597 C598 1.396 . S
C597 C604 1.403 . S
C598 C588 1.476 . S
C598 N593 1.318 . S
C598 C597 1.396 . S
H599 C594 0.929 . S
O600 Mn576 2.385 . S
O600 C578 1.234 . S
O601 Mn576 2.209 . S
O601 Mn577 2.215 . S
O601 C578 1.283 . S
O602 Mn576 2.094 . S
O602 C580 1.240 . S
O603 Mn577 2.117 . S
O603 C580 1.264 . S
C604 C597 1.403 . S
C604 C605 1.399 . S
C604 H610 0.929 . S
C605 C585 1.449 . S
C605 C604 1.399 . S
C605 H611 0.930 . S
H606 C586 0.931 . S
H607 C587 0.930 . S
H608 C595 0.931 . S
H609 C596 0.929 . S
H610 C604 0.929 . S
H611 C605 0.930 . S
Mn612 O617 2.095 . S
Mn612 O627 2.162 . S
Mn612 O628 2.297 . S
Mn612 O636 2.385 . S
Mn612 O637 2.209 . S
Mn612 O638 2.094 . S
Mn613 O618 2.121 . S
Mn613 N620 2.257 . S
Mn613 N629 2.282 . S
Mn613 O637 2.215 . S
Mn613 O639 2.117 . S
C614 O636 1.234 . S
C614 O637 1.283 . S
C615 O627 1.281 . S
C615 O628 1.236 . S
C616 O638 1.240 . S
C616 O639 1.264 . S
O617 Mn612 2.095 . S
O617 C626 1.250 . S
O618 Mn613 2.121 . S
O618 C626 1.258 . S
C619 N620 1.326 . S
C619 C623 1.460 . S
C619 H625 0.929 . S
N620 Mn613 2.257 . S
N620 C619 1.326 . S
N620 C624 1.362 . S
C621 C622 1.258 . S
C621 C624 1.431 . S
C621 C641 1.449 . S
C622 C621 1.258 . S
C622 C623 1.477 . S
C622 H642 0.931 . S
C623 C619 1.460 . S
C623 C622 1.477 . S
C623 H643 0.930 . S
C624 N620 1.362 . S
C624 C621 1.431 . S
C624 C634 1.476 . S
H625 C619 0.929 . S
C626 O617 1.250 . S
C626 O618 1.258 . S
O627 Mn612 2.162 . S
O627 C615 1.281 . S
O628 Mn612 2.297 . S
O628 C615 1.236 . S
N629 Mn613 2.282 . S
N629 C630 1.328 . S
N629 C634 1.318 . S
C630 N629 1.328 . S
C630 C631 1.457 . S
C630 H635 0.929 . S
C631 C630 1.457 . S
C631 C632 1.291 . S
C631 H644 0.931 . S
C632 C631 1.291 . S
C632 C633 1.373 . S
C632 H645 0.929 . S
C633 C632 1.373 . S
C633 C634 1.396 . S
C633 C640 1.403 . S
C634 C624 1.476 . S
C634 N629 1.318 . S
C634 C633 1.396 . S
H635 C630 0.929 . S
O636 Mn612 2.385 . S
O636 C614 1.234 . S
O637 Mn612 2.209 . S
O637 Mn613 2.215 . S
O637 C614 1.283 . S
O638 Mn612 2.094 . S
O638 C616 1.240 . S
O639 Mn613 2.117 . S
O639 C616 1.264 . S
C640 C633 1.403 . S
C640 C641 1.399 . S
C640 H646 0.929 . S
C641 C621 1.449 . S
C641 C640 1.399 . S
C641 H647 0.930 . S
H642 C622 0.931 . S
H643 C623 0.930 . S
H644 C631 0.931 . S
H645 C632 0.929 . S
H646 C640 0.929 . S
H647 C641 0.930 . S
Mn648 O653 2.095 . S
Mn648 O663 2.162 . S
Mn648 O664 2.297 . S
Mn648 O672 2.385 . S
Mn648 O673 2.209 . S
Mn648 O674 2.094 . S
Mn649 O654 2.121 . S
Mn649 N656 2.257 . S
Mn649 N665 2.282 . S
Mn649 O673 2.215 . S
Mn649 O675 2.117 . S
C650 O672 1.234 . S
C650 O673 1.283 . S
C651 O663 1.281 . S
C651 O664 1.236 . S
C652 O674 1.240 . S
C652 O675 1.264 . S
O653 Mn648 2.095 . S
O653 C662 1.250 . S
O654 Mn649 2.121 . S
O654 C662 1.258 . S
C655 N656 1.326 . S
C655 C659 1.460 . S
C655 H661 0.929 . S
N656 Mn649 2.257 . S
N656 C655 1.326 . S
N656 C660 1.362 . S
C657 C658 1.258 . S
C657 C660 1.431 . S
C657 C677 1.449 . S
C658 C657 1.258 . S
C658 C659 1.477 . S
C658 H678 0.931 . S
C659 C655 1.460 . S
C659 C658 1.477 . S
C659 H679 0.930 . S
C660 N656 1.362 . S
C660 C657 1.431 . S
C660 C670 1.476 . S
H661 C655 0.929 . S
C662 O653 1.250 . S
C662 O654 1.258 . S
O663 Mn648 2.162 . S
O663 C651 1.281 . S
O664 Mn648 2.297 . S
O664 C651 1.236 . S
N665 Mn649 2.282 . S
N665 C666 1.328 . S
N665 C670 1.318 . S
C666 N665 1.328 . S
C666 C667 1.457 . S
C666 H671 0.929 . S
C667 C666 1.457 . S
C667 C668 1.291 . S
C667 H680 0.931 . S
C668 C667 1.291 . S
C668 C669 1.373 . S
C668 H681 0.929 . S
C669 C668 1.373 . S
C669 C670 1.396 . S
C669 C676 1.403 . S
C670 C660 1.476 . S
C670 N665 1.318 . S
C670 C669 1.396 . S
H671 C666 0.929 . S
O672 Mn648 2.385 . S
O672 C650 1.234 . S
O673 Mn648 2.209 . S
O673 Mn649 2.215 . S
O673 C650 1.283 . S
O674 Mn648 2.094 . S
O674 C652 1.240 . S
O675 Mn649 2.117 . S
O675 C652 1.264 . S
C676 C669 1.403 . S
C676 C677 1.399 . S
C676 H682 0.929 . S
C677 C657 1.449 . S
C677 C676 1.399 . S
C677 H683 0.930 . S
H678 C658 0.931 . S
H679 C659 0.930 . S
H680 C667 0.931 . S
H681 C668 0.929 . S
H682 C676 0.929 . S
H683 C677 0.930 . S
Mn684 O689 2.095 . S
Mn684 O699 2.162 . S
Mn684 O700 2.297 . S
Mn684 O708 2.385 . S
Mn684 O709 2.209 . S
Mn684 O710 2.094 . S
Mn685 O690 2.121 . S
Mn685 N692 2.257 . S
Mn685 N701 2.282 . S
Mn685 O709 2.215 . S
Mn685 O711 2.117 . S
C686 O708 1.234 . S
C686 O709 1.283 . S
C687 O699 1.281 . S
C687 O700 1.236 . S
C688 O710 1.240 . S
C688 O711 1.264 . S
O689 Mn684 2.095 . S
O689 C698 1.250 . S
O690 Mn685 2.121 . S
O690 C698 1.258 . S
C691 N692 1.326 . S
C691 C695 1.460 . S
C691 H697 0.929 . S
N692 Mn685 2.257 . S
N692 C691 1.326 . S
N692 C696 1.362 . S
C693 C694 1.258 . S
C693 C696 1.431 . S
C693 C713 1.449 . S
C694 C693 1.258 . S
C694 C695 1.477 . S
C694 H714 0.931 . S
C695 C691 1.460 . S
C695 C694 1.477 . S
C695 H715 0.930 . S
C696 N692 1.362 . S
C696 C693 1.431 . S
C696 C706 1.476 . S
H697 C691 0.929 . S
C698 O689 1.250 . S
C698 O690 1.258 . S
O699 Mn684 2.162 . S
O699 C687 1.281 . S
O700 Mn684 2.297 . S
O700 C687 1.236 . S
N701 Mn685 2.282 . S
N701 C702 1.328 . S
N701 C706 1.318 . S
C702 N701 1.328 . S
C702 C703 1.457 . S
C702 H707 0.929 . S
C703 C702 1.457 . S
C703 C704 1.291 . S
C703 H716 0.931 . S
C704 C703 1.291 . S
C704 C705 1.373 . S
C704 H717 0.929 . S
C705 C704 1.373 . S
C705 C706 1.396 . S
C705 C712 1.403 . S
C706 C696 1.476 . S
C706 N701 1.318 . S
C706 C705 1.396 . S
H707 C702 0.929 . S
O708 Mn684 2.385 . S
O708 C686 1.234 . S
O709 Mn684 2.209 . S
O709 Mn685 2.215 . S
O709 C686 1.283 . S
O710 Mn684 2.094 . S
O710 C688 1.240 . S
O711 Mn685 2.117 . S
O711 C688 1.264 . S
C712 C705 1.403 . S
C712 C713 1.399 . S
C712 H718 0.929 . S
C713 C693 1.449 . S
C713 C712 1.399 . S
C713 H719 0.930 . S
H714 C694 0.931 . S
H715 C695 0.930 . S
H716 C703 0.931 . S
H717 C704 0.929 . S
H718 C712 0.929 . S
H719 C713 0.930 . S
Mn720 O725 2.095 . S
Mn720 O735 2.162 . S
Mn720 O736 2.297 . S
Mn720 O744 2.385 . S
Mn720 O745 2.209 . S
Mn720 O746 2.094 . S
Mn721 O726 2.121 . S
Mn721 N728 2.257 . S
Mn721 N737 2.282 . S
Mn721 O745 2.215 . S
Mn721 O747 2.117 . S
C722 O744 1.234 . S
C722 O745 1.283 . S
C723 O735 1.281 . S
C723 O736 1.236 . S
C724 O746 1.240 . S
C724 O747 1.264 . S
O725 Mn720 2.095 . S
O725 C734 1.250 . S
O726 Mn721 2.121 . S
O726 C734 1.258 . S
C727 N728 1.326 . S
C727 C731 1.460 . S
C727 H733 0.929 . S
N728 Mn721 2.257 . S
N728 C727 1.326 . S
N728 C732 1.362 . S
C729 C730 1.258 . S
C729 C732 1.431 . S
C729 C749 1.449 . S
C730 C729 1.258 . S
C730 C731 1.477 . S
C730 H750 0.931 . S
C731 C727 1.460 . S
C731 C730 1.477 . S
C731 H751 0.930 . S
C732 N728 1.362 . S
C732 C729 1.431 . S
C732 C742 1.476 . S
H733 C727 0.929 . S
C734 O725 1.250 . S
C734 O726 1.258 . S
O735 Mn720 2.162 . S
O735 C723 1.281 . S
O736 Mn720 2.297 . S
O736 C723 1.236 . S
N737 Mn721 2.282 . S
N737 C738 1.328 . S
N737 C742 1.318 . S
C738 N737 1.328 . S
C738 C739 1.457 . S
C738 H743 0.929 . S
C739 C738 1.457 . S
C739 C740 1.291 . S
C739 H752 0.931 . S
C740 C739 1.291 . S
C740 C741 1.373 . S
C740 H753 0.929 . S
C741 C740 1.373 . S
C741 C742 1.396 . S
C741 C748 1.403 . S
C742 C732 1.476 . S
C742 N737 1.318 . S
C742 C741 1.396 . S
H743 C738 0.929 . S
O744 Mn720 2.385 . S
O744 C722 1.234 . S
O745 Mn720 2.209 . S
O745 Mn721 2.215 . S
O745 C722 1.283 . S
O746 Mn720 2.094 . S
O746 C724 1.240 . S
O747 Mn721 2.117 . S
O747 C724 1.264 . S
C748 C741 1.403 . S
C748 C749 1.399 . S
C748 H754 0.929 . S
C749 C729 1.449 . S
C749 C748 1.399 . S
C749 H755 0.930 . S
H750 C730 0.931 . S
H751 C731 0.930 . S
H752 C739 0.931 . S
H753 C740 0.929 . S
H754 C748 0.929 . S
H755 C749 0.930 . S
Mn756 O761 2.095 . S
Mn756 O771 2.162 . S
Mn756 O772 2.297 . S
Mn756 O780 2.385 . S
Mn756 O781 2.209 . S
Mn756 O782 2.094 . S
Mn757 O762 2.121 . S
Mn757 N764 2.257 . S
Mn757 N773 2.282 . S
Mn757 O781 2.215 . S
Mn757 O783 2.117 . S
C758 O780 1.234 . S
C758 O781 1.283 . S
C759 O771 1.281 . S
C759 O772 1.236 . S
C760 O782 1.240 . S
C760 O783 1.264 . S
O761 Mn756 2.095 . S
O761 C770 1.250 . S
O762 Mn757 2.121 . S
O762 C770 1.258 . S
C763 N764 1.326 . S
C763 C767 1.460 . S
C763 H769 0.929 . S
N764 Mn757 2.257 . S
N764 C763 1.326 . S
N764 C768 1.362 . S
C765 C766 1.258 . S
C765 C768 1.431 . S
C765 C785 1.449 . S
C766 C765 1.258 . S
C766 C767 1.477 . S
C766 H786 0.931 . S
C767 C763 1.460 . S
C767 C766 1.477 . S
C767 H787 0.930 . S
C768 N764 1.362 . S
C768 C765 1.431 . S
C768 C778 1.476 . S
H769 C763 0.929 . S
C770 O761 1.250 . S
C770 O762 1.258 . S
O771 Mn756 2.162 . S
O771 C759 1.281 . S
O772 Mn756 2.297 . S
O772 C759 1.236 . S
N773 Mn757 2.282 . S
N773 C774 1.328 . S
N773 C778 1.318 . S
C774 N773 1.328 . S
C774 C775 1.457 . S
C774 H779 0.929 . S
C775 C774 1.457 . S
C775 C776 1.291 . S
C775 H788 0.931 . S
C776 C775 1.291 . S
C776 C777 1.373 . S
C776 H789 0.929 . S
C777 C776 1.373 . S
C777 C778 1.396 . S
C777 C784 1.403 . S
C778 C768 1.476 . S
C778 N773 1.318 . S
C778 C777 1.396 . S
H779 C774 0.929 . S
O780 Mn756 2.385 . S
O780 C758 1.234 . S
O781 Mn756 2.209 . S
O781 Mn757 2.215 . S
O781 C758 1.283 . S
O782 Mn756 2.094 . S
O782 C760 1.240 . S
O783 Mn757 2.117 . S
O783 C760 1.264 . S
C784 C777 1.403 . S
C784 C785 1.399 . S
C784 H790 0.929 . S
C785 C765 1.449 . S
C785 C784 1.399 . S
C785 H791 0.930 . S
H786 C766 0.931 . S
H787 C767 0.930 . S
H788 C775 0.931 . S
H789 C776 0.929 . S
H790 C784 0.929 . S
H791 C785 0.930 . S
Mn792 O797 2.095 . S
Mn792 O807 2.162 . S
Mn792 O808 2.297 . S
Mn792 O816 2.385 . S
Mn792 O817 2.209 . S
Mn792 O818 2.094 . S
Mn793 O798 2.121 . S
Mn793 N800 2.257 . S
Mn793 N809 2.282 . S
Mn793 O817 2.215 . S
Mn793 O819 2.117 . S
C794 O816 1.234 . S
C794 O817 1.283 . S
C795 O807 1.281 . S
C795 O808 1.236 . S
C796 O818 1.240 . S
C796 O819 1.264 . S
O797 Mn792 2.095 . S
O797 C806 1.250 . S
O798 Mn793 2.121 . S
O798 C806 1.258 . S
C799 N800 1.326 . S
C799 C803 1.460 . S
C799 H805 0.929 . S
N800 Mn793 2.257 . S
N800 C799 1.326 . S
N800 C804 1.362 . S
C801 C802 1.258 . S
C801 C804 1.431 . S
C801 C821 1.449 . S
C802 C801 1.258 . S
C802 C803 1.477 . S
C802 H822 0.931 . S
C803 C799 1.460 . S
C803 C802 1.477 . S
C803 H823 0.930 . S
C804 N800 1.362 . S
C804 C801 1.431 . S
C804 C814 1.476 . S
H805 C799 0.929 . S
C806 O797 1.250 . S
C806 O798 1.258 . S
O807 Mn792 2.162 . S
O807 C795 1.281 . S
O808 Mn792 2.297 . S
O808 C795 1.236 . S
N809 Mn793 2.282 . S
N809 C810 1.328 . S
N809 C814 1.318 . S
C810 N809 1.328 . S
C810 C811 1.457 . S
C810 H815 0.929 . S
C811 C810 1.457 . S
C811 C812 1.291 . S
C811 H824 0.931 . S
C812 C811 1.291 . S
C812 C813 1.373 . S
C812 H825 0.929 . S
C813 C812 1.373 . S
C813 C814 1.396 . S
C813 C820 1.403 . S
C814 C804 1.476 . S
C814 N809 1.318 . S
C814 C813 1.396 . S
H815 C810 0.929 . S
O816 Mn792 2.385 . S
O816 C794 1.234 . S
O817 Mn792 2.209 . S
O817 Mn793 2.215 . S
O817 C794 1.283 . S
O818 Mn792 2.094 . S
O818 C796 1.240 . S
O819 Mn793 2.117 . S
O819 C796 1.264 . S
C820 C813 1.403 . S
C820 C821 1.399 . S
C820 H826 0.929 . S
C821 C801 1.449 . S
C821 C820 1.399 . S
C821 H827 0.930 . S
H822 C802 0.931 . S
H823 C803 0.930 . S
H824 C811 0.931 . S
H825 C812 0.929 . S
H826 C820 0.929 . S
H827 C821 0.930 . S
Mn828 O833 2.095 . S
Mn828 O843 2.162 . S
Mn828 O844 2.297 . S
Mn828 O852 2.385 . S
Mn828 O853 2.209 . S
Mn828 O854 2.094 . S
Mn829 O834 2.121 . S
Mn829 N836 2.257 . S
Mn829 N845 2.282 . S
Mn829 O853 2.215 . S
Mn829 O855 2.117 . S
C830 O852 1.234 . S
C830 O853 1.283 . S
C831 O843 1.281 . S
C831 O844 1.236 . S
C832 O854 1.240 . S
C832 O855 1.264 . S
O833 Mn828 2.095 . S
O833 C842 1.250 . S
O834 Mn829 2.121 . S
O834 C842 1.258 . S
C835 N836 1.326 . S
C835 C839 1.460 . S
C835 H841 0.929 . S
N836 Mn829 2.257 . S
N836 C835 1.326 . S
N836 C840 1.362 . S
C837 C838 1.258 . S
C837 C840 1.431 . S
C837 C857 1.449 . S
C838 C837 1.258 . S
C838 C839 1.477 . S
C838 H858 0.931 . S
C839 C835 1.460 . S
C839 C838 1.477 . S
C839 H859 0.930 . S
C840 N836 1.362 . S
C840 C837 1.431 . S
C840 C850 1.476 . S
H841 C835 0.929 . S
C842 O833 1.250 . S
C842 O834 1.258 . S
O843 Mn828 2.162 . S
O843 C831 1.281 . S
O844 Mn828 2.297 . S
O844 C831 1.236 . S
N845 Mn829 2.282 . S
N845 C846 1.328 . S
N845 C850 1.318 . S
C846 N845 1.328 . S
C846 C847 1.457 . S
C846 H851 0.929 . S
C847 C846 1.457 . S
C847 C848 1.291 . S
C847 H860 0.931 . S
C848 C847 1.291 . S
C848 C849 1.373 . S
C848 H861 0.929 . S
C849 C848 1.373 . S
C849 C850 1.396 . S
C849 C856 1.403 . S
C850 C840 1.476 . S
C850 N845 1.318 . S
C850 C849 1.396 . S
H851 C846 0.929 . S
O852 Mn828 2.385 . S
O852 C830 1.234 . S
O853 Mn828 2.209 . S
O853 Mn829 2.215 . S
O853 C830 1.283 . S
O854 Mn828 2.094 . S
O854 C832 1.240 . S
O855 Mn829 2.117 . S
O855 C832 1.264 . S
C856 C849 1.403 . S
C856 C857 1.399 . S
C856 H862 0.929 . S
C857 C837 1.449 . S
C857 C856 1.399 . S
C857 H863 0.930 . S
H858 C838 0.931 . S
H859 C839 0.930 . S
H860 C847 0.931 . S
H861 C848 0.929 . S
H862 C856 0.929 . S
H863 C857 0.930 . S
Mn864 O869 2.095 . S
Mn864 O879 2.162 . S
Mn864 O880 2.297 . S
Mn864 O888 2.385 . S
Mn864 O889 2.209 . S
Mn864 O890 2.094 . S
Mn865 O870 2.121 . S
Mn865 N872 2.257 . S
Mn865 N881 2.282 . S
Mn865 O889 2.215 . S
Mn865 O891 2.117 . S
C866 O888 1.234 . S
C866 O889 1.283 . S
C867 O879 1.281 . S
C867 O880 1.236 . S
C868 O890 1.240 . S
C868 O891 1.264 . S
O869 Mn864 2.095 . S
O869 C878 1.250 . S
O870 Mn865 2.121 . S
O870 C878 1.258 . S
C871 N872 1.326 . S
C871 C875 1.460 . S
C871 H877 0.929 . S
N872 Mn865 2.257 . S
N872 C871 1.326 . S
N872 C876 1.362 . S
C873 C874 1.258 . S
C873 C876 1.431 . S
C873 C893 1.449 . S
C874 C873 1.258 . S
C874 C875 1.477 . S
C874 H894 0.931 . S
C875 C871 1.460 . S
C875 C874 1.477 . S
C875 H895 0.930 . S
C876 N872 1.362 . S
C876 C873 1.431 . S
C876 C886 1.476 . S
H877 C871 0.929 . S
C878 O869 1.250 . S
C878 O870 1.258 . S
O879 Mn864 2.162 . S
O879 C867 1.281 . S
O880 Mn864 2.297 . S
O880 C867 1.236 . S
N881 Mn865 2.282 . S
N881 C882 1.328 . S
N881 C886 1.318 . S
C882 N881 1.328 . S
C882 C883 1.457 . S
C882 H887 0.929 . S
C883 C882 1.457 . S
C883 C884 1.291 . S
C883 H896 0.931 . S
C884 C883 1.291 . S
C884 C885 1.373 . S
C884 H897 0.929 . S
C885 C884 1.373 . S
C885 C886 1.396 . S
C885 C892 1.403 . S
C886 C876 1.476 . S
C886 N881 1.318 . S
C886 C885 1.396 . S
H887 C882 0.929 . S
O888 Mn864 2.385 . S
O888 C866 1.234 . S
O889 Mn864 2.209 . S
O889 Mn865 2.215 . S
O889 C866 1.283 . S
O890 Mn864 2.094 . S
O890 C868 1.240 . S
O891 Mn865 2.117 . S
O891 C868 1.264 . S
C892 C885 1.403 . S
C892 C893 1.399 . S
C892 H898 0.929 . S
C893 C873 1.449 . S
C893 C892 1.399 . S
C893 H899 0.930 . S
H894 C874 0.931 . S
H895 C875 0.930 . S
H896 C883 0.931 . S
H897 C884 0.929 . S
H898 C892 0.929 . S
H899 C893 0.930 . S
Mn900 O905 2.095 . S
Mn900 O915 2.162 . S
Mn900 O916 2.297 . S
Mn900 O924 2.385 . S
Mn900 O925 2.209 . S
Mn900 O926 2.094 . S
Mn901 O906 2.121 . S
Mn901 N908 2.257 . S
Mn901 N917 2.282 . S
Mn901 O925 2.215 . S
Mn901 O927 2.117 . S
C902 O924 1.234 . S
C902 O925 1.283 . S
C903 O915 1.281 . S
C903 O916 1.236 . S
C904 O926 1.240 . S
C904 O927 1.264 . S
O905 Mn900 2.095 . S
O905 C914 1.250 . S
O906 Mn901 2.121 . S
O906 C914 1.258 . S
C907 N908 1.326 . S
C907 C911 1.460 . S
C907 H913 0.929 . S
N908 Mn901 2.257 . S
N908 C907 1.326 . S
N908 C912 1.362 . S
C909 C910 1.258 . S
C909 C912 1.431 . S
C909 C929 1.449 . S
C910 C909 1.258 . S
C910 C911 1.477 . S
C910 H930 0.931 . S
C911 C907 1.460 . S
C911 C910 1.477 . S
C911 H931 0.930 . S
C912 N908 1.362 . S
C912 C909 1.431 . S
C912 C922 1.476 . S
H913 C907 0.929 . S
C914 O905 1.250 . S
C914 O906 1.258 . S
O915 Mn900 2.162 . S
O915 C903 1.281 . S
O916 Mn900 2.297 . S
O916 C903 1.236 . S
N917 Mn901 2.282 . S
N917 C918 1.328 . S
N917 C922 1.318 . S
C918 N917 1.328 . S
C918 C919 1.457 . S
C918 H923 0.929 . S
C919 C918 1.457 . S
C919 C920 1.291 . S
C919 H932 0.931 . S
C920 C919 1.291 . S
C920 C921 1.373 . S
C920 H933 0.929 . S
C921 C920 1.373 . S
C921 C922 1.396 . S
C921 C928 1.403 . S
C922 C912 1.476 . S
C922 N917 1.318 . S
C922 C921 1.396 . S
H923 C918 0.929 . S
O924 Mn900 2.385 . S
O924 C902 1.234 . S
O925 Mn900 2.209 . S
O925 Mn901 2.215 . S
O925 C902 1.283 . S
O926 Mn900 2.094 . S
O926 C904 1.240 . S
O927 Mn901 2.117 . S
O927 C904 1.264 . S
C928 C921 1.403 . S
C928 C929 1.399 . S
C928 H934 0.929 . S
C929 C909 1.449 . S
C929 C928 1.399 . S
C929 H935 0.930 . S
H930 C910 0.931 . S
H931 C911 0.930 . S
H932 C919 0.931 . S
H933 C920 0.929 . S
H934 C928 0.929 . S
H935 C929 0.930 . S
Mn936 O941 2.095 . S
Mn936 O951 2.162 . S
Mn936 O952 2.297 . S
Mn936 O960 2.385 . S
Mn936 O961 2.209 . S
Mn936 O962 2.094 . S
Mn937 O942 2.121 . S
Mn937 N944 2.257 . S
Mn937 N953 2.282 . S
Mn937 O961 2.215 . S
Mn937 O963 2.117 . S
C938 O960 1.234 . S
C938 O961 1.283 . S
C939 O951 1.281 . S
C939 O952 1.236 . S
C940 O962 1.240 . S
C940 O963 1.264 . S
O941 Mn936 2.095 . S
O941 C950 1.250 . S
O942 Mn937 2.121 . S
O942 C950 1.258 . S
C943 N944 1.326 . S
C943 C947 1.460 . S
C943 H949 0.929 . S
N944 Mn937 2.257 . S
N944 C943 1.326 . S
N944 C948 1.362 . S
C945 C946 1.258 . S
C945 C948 1.431 . S
C945 C965 1.449 . S
C946 C945 1.258 . S
C946 C947 1.477 . S
C946 H966 0.931 . S
C947 C943 1.460 . S
C947 C946 1.477 . S
C947 H967 0.930 . S
C948 N944 1.362 . S
C948 C945 1.431 . S
C948 C958 1.476 . S
H949 C943 0.929 . S
C950 O941 1.250 . S
C950 O942 1.258 . S
O951 Mn936 2.162 . S
O951 C939 1.281 . S
O952 Mn936 2.297 . S
O952 C939 1.236 . S
N953 Mn937 2.282 . S
N953 C954 1.328 . S
N953 C958 1.318 . S
C954 N953 1.328 . S
C954 C955 1.457 . S
C954 H959 0.929 . S
C955 C954 1.457 . S
C955 C956 1.291 . S
C955 H968 0.931 . S
C956 C955 1.291 . S
C956 C957 1.373 . S
C956 H969 0.929 . S
C957 C956 1.373 . S
C957 C958 1.396 . S
C957 C964 1.403 . S
C958 C948 1.476 . S
C958 N953 1.318 . S
C958 C957 1.396 . S
H959 C954 0.929 . S
O960 Mn936 2.385 . S
O960 C938 1.234 . S
O961 Mn936 2.209 . S
O961 Mn937 2.215 . S
O961 C938 1.283 . S
O962 Mn936 2.094 . S
O962 C940 1.240 . S
O963 Mn937 2.117 . S
O963 C940 1.264 . S
C964 C957 1.403 . S
C964 C965 1.399 . S
C964 H970 0.929 . S
C965 C945 1.449 . S
C965 C964 1.399 . S
C965 H971 0.930 . S
H966 C946 0.931 . S
H967 C947 0.930 . S
H968 C955 0.931 . S
H969 C956 0.929 . S
H970 C964 0.929 . S
H971 C965 0.930 . S
Mn972 O977 2.095 . S
Mn972 O987 2.162 . S
Mn972 O988 2.297 . S
Mn972 O996 2.385 . S
Mn972 O997 2.209 . S
Mn972 O998 2.094 . S
Mn973 O978 2.121 . S
Mn973 N980 2.257 . S
Mn973 N989 2.282 . S
Mn973 O997 2.215 . S
Mn973 O999 2.117 . S
C974 O996 1.234 . S
C974 O997 1.283 . S
C975 O987 1.281 . S
C975 O988 1.236 . S
C976 O998 1.240 . S
C976 O999 1.264 . S
O977 Mn972 2.095 . S
O977 C986 1.250 . S
O978 Mn973 2.121 . S
O978 C986 1.258 . S
C979 N980 1.326 . S
C979 C983 1.460 . S
C979 H985 0.929 . S
N980 Mn973 2.257 . S
N980 C979 1.326 . S
N980 C984 1.362 . S
C981 C982 1.258 . S
C981 C984 1.431 . S
C981 C1001 1.449 . S
C982 C981 1.258 . S
C982 C983 1.477 . S
C982 H1002 0.931 . S
C983 C979 1.460 . S
C983 C982 1.477 . S
C983 H1003 0.930 . S
C984 N980 1.362 . S
C984 C981 1.431 . S
C984 C994 1.476 . S
H985 C979 0.929 . S
C986 O977 1.250 . S
C986 O978 1.258 . S
O987 Mn972 2.162 . S
O987 C975 1.281 . S
O988 Mn972 2.297 . S
O988 C975 1.236 . S
N989 Mn973 2.282 . S
N989 C990 1.328 . S
N989 C994 1.318 . S
C990 N989 1.328 . S
C990 C991 1.457 . S
C990 H995 0.929 . S
C991 C990 1.457 . S
C991 C992 1.291 . S
C991 H1004 0.931 . S
C992 C991 1.291 . S
C992 C993 1.373 . S
C992 H1005 0.929 . S
C993 C992 1.373 . S
C993 C994 1.396 . S
C993 C1000 1.403 . S
C994 C984 1.476 . S
C994 N989 1.318 . S
C994 C993 1.396 . S
H995 C990 0.929 . S
O996 Mn972 2.385 . S
O996 C974 1.234 . S
O997 Mn972 2.209 . S
O997 Mn973 2.215 . S
O997 C974 1.283 . S
O998 Mn972 2.094 . S
O998 C976 1.240 . S
O999 Mn973 2.117 . S
O999 C976 1.264 . S
C1000 C993 1.403 . S
C1000 C1001 1.399 . S
C1000 H1006 0.929 . S
C1001 C981 1.449 . S
C1001 C1000 1.399 . S
C1001 H1007 0.930 . S
H1002 C982 0.931 . S
H1003 C983 0.930 . S
H1004 C991 0.931 . S
H1005 C992 0.929 . S
H1006 C1000 0.929 . S
H1007 C1001 0.930 . S
Mn1008 O1013 2.095 . S
Mn1008 O1023 2.162 . S
Mn1008 O1024 2.297 . S
Mn1008 O1032 2.385 . S
Mn1008 O1033 2.209 . S
Mn1008 O1034 2.094 . S
Mn1009 O1014 2.121 . S
Mn1009 N1016 2.257 . S
Mn1009 N1025 2.282 . S
Mn1009 O1033 2.215 . S
Mn1009 O1035 2.117 . S
C1010 O1032 1.234 . S
C1010 O1033 1.283 . S
C1011 O1023 1.281 . S
C1011 O1024 1.236 . S
C1012 O1034 1.240 . S
C1012 O1035 1.264 . S
O1013 Mn1008 2.095 . S
O1013 C1022 1.250 . S
O1014 Mn1009 2.121 . S
O1014 C1022 1.258 . S
C1015 N1016 1.326 . S
C1015 C1019 1.460 . S
C1015 H1021 0.929 . S
N1016 Mn1009 2.257 . S
N1016 C1015 1.326 . S
N1016 C1020 1.362 . S
C1017 C1018 1.258 . S
C1017 C1020 1.431 . S
C1017 C1037 1.449 . S
C1018 C1017 1.258 . S
C1018 C1019 1.477 . S
C1018 H1038 0.931 . S
C1019 C1015 1.460 . S
C1019 C1018 1.477 . S
C1019 H1039 0.930 . S
C1020 N1016 1.362 . S
C1020 C1017 1.431 . S
C1020 C1030 1.476 . S
H1021 C1015 0.929 . S
C1022 O1013 1.250 . S
C1022 O1014 1.258 . S
O1023 Mn1008 2.162 . S
O1023 C1011 1.281 . S
O1024 Mn1008 2.297 . S
O1024 C1011 1.236 . S
N1025 Mn1009 2.282 . S
N1025 C1026 1.328 . S
N1025 C1030 1.318 . S
C1026 N1025 1.328 . S
C1026 C1027 1.457 . S
C1026 H1031 0.929 . S
C1027 C1026 1.457 . S
C1027 C1028 1.291 . S
C1027 H1040 0.931 . S
C1028 C1027 1.291 . S
C1028 C1029 1.373 . S
C1028 H1041 0.929 . S
C1029 C1028 1.373 . S
C1029 C1030 1.396 . S
C1029 C1036 1.403 . S
C1030 C1020 1.476 . S
C1030 N1025 1.318 . S
C1030 C1029 1.396 . S
H1031 C1026 0.929 . S
O1032 Mn1008 2.385 . S
O1032 C1010 1.234 . S
O1033 Mn1008 2.209 . S
O1033 Mn1009 2.215 . S
O1033 C1010 1.283 . S
O1034 Mn1008 2.094 . S
O1034 C1012 1.240 . S
O1035 Mn1009 2.117 . S
O1035 C1012 1.264 . S
C1036 C1029 1.403 . S
C1036 C1037 1.399 . S
C1036 H1042 0.929 . S
C1037 C1017 1.449 . S
C1037 C1036 1.399 . S
C1037 H1043 0.930 . S
H1038 C1018 0.931 . S
H1039 C1019 0.930 . S
H1040 C1027 0.931 . S
H1041 C1028 0.929 . S
H1042 C1036 0.929 . S
H1043 C1037 0.930 . S
Mn1044 O1049 2.095 . S
Mn1044 O1059 2.162 . S
Mn1044 O1060 2.297 . S
Mn1044 O1068 2.385 . S
Mn1044 O1069 2.209 . S
Mn1044 O1070 2.094 . S
Mn1045 O1050 2.121 . S
Mn1045 N1052 2.257 . S
Mn1045 N1061 2.282 . S
Mn1045 O1069 2.215 . S
Mn1045 O1071 2.117 . S
C1046 O1068 1.234 . S
C1046 O1069 1.283 . S
C1047 O1059 1.281 . S
C1047 O1060 1.236 . S
C1048 O1070 1.240 . S
C1048 O1071 1.264 . S
O1049 Mn1044 2.095 . S
O1049 C1058 1.250 . S
O1050 Mn1045 2.121 . S
O1050 C1058 1.258 . S
C1051 N1052 1.326 . S
C1051 C1055 1.460 . S
C1051 H1057 0.929 . S
N1052 Mn1045 2.257 . S
N1052 C1051 1.326 . S
N1052 C1056 1.362 . S
C1053 C1054 1.258 . S
C1053 C1056 1.431 . S
C1053 C1073 1.449 . S
C1054 C1053 1.258 . S
C1054 C1055 1.477 . S
C1054 H1074 0.931 . S
C1055 C1051 1.460 . S
C1055 C1054 1.477 . S
C1055 H1075 0.930 . S
C1056 N1052 1.362 . S
C1056 C1053 1.431 . S
C1056 C1066 1.476 . S
H1057 C1051 0.929 . S
C1058 O1049 1.250 . S
C1058 O1050 1.258 . S
O1059 Mn1044 2.162 . S
O1059 C1047 1.281 . S
O1060 Mn1044 2.297 . S
O1060 C1047 1.236 . S
N1061 Mn1045 2.282 . S
N1061 C1062 1.328 . S
N1061 C1066 1.318 . S
C1062 N1061 1.328 . S
C1062 C1063 1.457 . S
C1062 H1067 0.929 . S
C1063 C1062 1.457 . S
C1063 C1064 1.291 . S
C1063 H1076 0.931 . S
C1064 C1063 1.291 . S
C1064 C1065 1.373 . S
C1064 H1077 0.929 . S
C1065 C1064 1.373 . S
C1065 C1066 1.396 . S
C1065 C1072 1.403 . S
C1066 C1056 1.476 . S
C1066 N1061 1.318 . S
C1066 C1065 1.396 . S
H1067 C1062 0.929 . S
O1068 Mn1044 2.385 . S
O1068 C1046 1.234 . S
O1069 Mn1044 2.209 . S
O1069 Mn1045 2.215 . S
O1069 C1046 1.283 . S
O1070 Mn1044 2.094 . S
O1070 C1048 1.240 . S
O1071 Mn1045 2.117 . S
O1071 C1048 1.264 . S
C1072 C1065 1.403 . S
C1072 C1073 1.399 . S
C1072 H1078 0.929 . S
C1073 C1053 1.449 . S
C1073 C1072 1.399 . S
C1073 H1079 0.930 . S
H1074 C1054 0.931 . S
H1075 C1055 0.930 . S
H1076 C1063 0.931 . S
H1077 C1064 0.929 . S
H1078 C1072 0.929 . S
H1079 C1073 0.930 . S
Mn1080 O1085 2.095 . S
Mn1080 O1095 2.162 . S
Mn1080 O1096 2.297 . S
Mn1080 O1104 2.385 . S
Mn1080 O1105 2.209 . S
Mn1080 O1106 2.094 . S
Mn1081 O1086 2.121 . S
Mn1081 N1088 2.257 . S
Mn1081 N1097 2.282 . S
Mn1081 O1105 2.215 . S
Mn1081 O1107 2.117 . S
C1082 O1104 1.234 . S
C1082 O1105 1.283 . S
C1083 O1095 1.281 . S
C1083 O1096 1.236 . S
C1084 O1106 1.240 . S
C1084 O1107 1.264 . S
O1085 Mn1080 2.095 . S
O1085 C1094 1.250 . S
O1086 Mn1081 2.121 . S
O1086 C1094 1.258 . S
C1087 N1088 1.326 . S
C1087 C1091 1.460 . S
C1087 H1093 0.929 . S
N1088 Mn1081 2.257 . S
N1088 C1087 1.326 . S
N1088 C1092 1.362 . S
C1089 C1090 1.258 . S
C1089 C1092 1.431 . S
C1089 C1109 1.449 . S
C1090 C1089 1.258 . S
C1090 C1091 1.477 . S
C1090 H1110 0.931 . S
C1091 C1087 1.460 . S
C1091 C1090 1.477 . S
C1091 H1111 0.930 . S
C1092 N1088 1.362 . S
C1092 C1089 1.431 . S
C1092 C1102 1.476 . S
H1093 C1087 0.929 . S
C1094 O1085 1.250 . S
C1094 O1086 1.258 . S
O1095 Mn1080 2.162 . S
O1095 C1083 1.281 . S
O1096 Mn1080 2.297 . S
O1096 C1083 1.236 . S
N1097 Mn1081 2.282 . S
N1097 C1098 1.328 . S
N1097 C1102 1.318 . S
C1098 N1097 1.328 . S
C1098 C1099 1.457 . S
C1098 H1103 0.929 . S
C1099 C1098 1.457 . S
C1099 C1100 1.291 . S
C1099 H1112 0.931 . S
C1100 C1099 1.291 . S
C1100 C1101 1.373 . S
C1100 H1113 0.929 . S
C1101 C1100 1.373 . S
C1101 C1102 1.396 . S
C1101 C1108 1.403 . S
C1102 C1092 1.476 . S
C1102 N1097 1.318 . S
C1102 C1101 1.396 . S
H1103 C1098 0.929 . S
O1104 Mn1080 2.385 . S
O1104 C1082 1.234 . S
O1105 Mn1080 2.209 . S
O1105 Mn1081 2.215 . S
O1105 C1082 1.283 . S
O1106 Mn1080 2.094 . S
O1106 C1084 1.240 . S
O1107 Mn1081 2.117 . S
O1107 C1084 1.264 . S
C1108 C1101 1.403 . S
C1108 C1109 1.399 . S
C1108 H1114 0.929 . S
C1109 C1089 1.449 . S
C1109 C1108 1.399 . S
C1109 H1115 0.930 . S
H1110 C1090 0.931 . S
H1111 C1091 0.930 . S
H1112 C1099 0.931 . S
H1113 C1100 0.929 . S
H1114 C1108 0.929 . S
H1115 C1109 0.930 . S
Mn1116 O1121 2.095 . S
Mn1116 O1131 2.162 . S
Mn1116 O1132 2.297 . S
Mn1116 O1140 2.385 . S
Mn1116 O1141 2.209 . S
Mn1116 O1142 2.094 . S
Mn1117 O1122 2.121 . S
Mn1117 N1124 2.257 . S
Mn1117 N1133 2.282 . S
Mn1117 O1141 2.215 . S
Mn1117 O1143 2.117 . S
C1118 O1140 1.234 . S
C1118 O1141 1.283 . S
C1119 O1131 1.281 . S
C1119 O1132 1.236 . S
C1120 O1142 1.240 . S
C1120 O1143 1.264 . S
O1121 Mn1116 2.095 . S
O1121 C1130 1.250 . S
O1122 Mn1117 2.121 . S
O1122 C1130 1.258 . S
C1123 N1124 1.326 . S
C1123 C1127 1.460 . S
C1123 H1129 0.929 . S
N1124 Mn1117 2.257 . S
N1124 C1123 1.326 . S
N1124 C1128 1.362 . S
C1125 C1126 1.258 . S
C1125 C1128 1.431 . S
C1125 C1145 1.449 . S
C1126 C1125 1.258 . S
C1126 C1127 1.477 . S
C1126 H1146 0.931 . S
C1127 C1123 1.460 . S
C1127 C1126 1.477 . S
C1127 H1147 0.930 . S
C1128 N1124 1.362 . S
C1128 C1125 1.431 . S
C1128 C1138 1.476 . S
H1129 C1123 0.929 . S
C1130 O1121 1.250 . S
C1130 O1122 1.258 . S
O1131 Mn1116 2.162 . S
O1131 C1119 1.281 . S
O1132 Mn1116 2.297 . S
O1132 C1119 1.236 . S
N1133 Mn1117 2.282 . S
N1133 C1134 1.328 . S
N1133 C1138 1.318 . S
C1134 N1133 1.328 . S
C1134 C1135 1.457 . S
C1134 H1139 0.929 . S
C1135 C1134 1.457 . S
C1135 C1136 1.291 . S
C1135 H1148 0.931 . S
C1136 C1135 1.291 . S
C1136 C1137 1.373 . S
C1136 H1149 0.929 . S
C1137 C1136 1.373 . S
C1137 C1138 1.396 . S
C1137 C1144 1.403 . S
C1138 C1128 1.476 . S
C1138 N1133 1.318 . S
C1138 C1137 1.396 . S
H1139 C1134 0.929 . S
O1140 Mn1116 2.385 . S
O1140 C1118 1.234 . S
O1141 Mn1116 2.209 . S
O1141 Mn1117 2.215 . S
O1141 C1118 1.283 . S
O1142 Mn1116 2.094 . S
O1142 C1120 1.240 . S
O1143 Mn1117 2.117 . S
O1143 C1120 1.264 . S
C1144 C1137 1.403 . S
C1144 C1145 1.399 . S
C1144 H1150 0.929 . S
C1145 C1125 1.449 . S
C1145 C1144 1.399 . S
C1145 H1151 0.930 . S
H1146 C1126 0.931 . S
H1147 C1127 0.930 . S
H1148 C1135 0.931 . S
H1149 C1136 0.929 . S
H1150 C1144 0.929 . S
H1151 C1145 0.930 . S
H1152 C1170 0.951 . S
H1153 C1172 0.951 . S
H1154 C1174 0.950 . S
H1155 C1175 0.950 . S
H1156 C1177 0.950 . S
H1157 C1180 0.950 . S
H1158 C1181 0.950 . S
H1159 C1183 0.950 . S
H1160 C1184 0.950 . S
H1161 C1185 0.951 . S
H1162 C1187 0.951 . S
H1163 C1189 0.950 . S
H1164 C1190 0.950 . S
H1165 C1192 0.950 . S
H1166 C1195 0.950 . S
H1167 C1196 0.950 . S
H1168 C1198 0.950 . S
H1169 C1199 0.950 . S
C1170 H1152 0.951 . S
C1170 C1171 1.366 . S
C1170 C1172 1.388 . S
C1171 C1170 1.366 . S
C1171 C1175 1.385 . S
C1172 H1153 0.951 . S
C1172 C1170 1.388 . S
C1172 C1173 1.366 . S
C1173 C1172 1.366 . S
C1173 C1174 1.414 . S
C1173 C1176 1.499 . S
C1174 H1154 0.950 . S
C1174 C1173 1.414 . S
C1174 C1175 1.374 . S
C1175 H1155 0.950 . S
C1175 C1171 1.385 . S
C1175 C1174 1.374 . S
C1176 C1173 1.499 . S
C1176 C1177 1.373 . S
C1176 C1178 1.389 . S
C1177 H1156 0.950 . S
C1177 C1176 1.373 . S
C1177 C1193 1.377 . S
C1178 C1176 1.389 . S
C1178 C1179 1.524 . S
C1178 C1192 1.377 . S
C1179 C1178 1.524 . S
C1179 C1180 1.397 . S
C1179 C1184 1.363 . S
C1180 H1157 0.950 . S
C1180 C1179 1.397 . S
C1180 C1181 1.334 . S
C1181 H1158 0.950 . S
C1181 C1180 1.334 . S
C1181 C1182 1.287 . S
C1182 C1181 1.287 . S
C1182 C1183 1.524 . S
C1182 H1201 0.913 . S
C1183 H1159 0.950 . S
C1183 C1182 1.524 . S
C1183 C1184 1.415 . S
C1184 H1160 0.950 . S
C1184 C1179 1.363 . S
C1184 C1183 1.415 . S
C1185 H1161 0.951 . S
C1185 C1186 1.366 . S
C1185 C1187 1.388 . S
C1186 C1185 1.366 . S
C1186 C1190 1.385 . S
C1187 H1162 0.951 . S
C1187 C1185 1.388 . S
C1187 C1188 1.366 . S
C1188 C1187 1.366 . S
C1188 C1189 1.414 . S
C1188 C1191 1.499 . S
C1189 H1163 0.950 . S
C1189 C1188 1.414 . S
C1189 C1190 1.374 . S
C1190 H1164 0.950 . S
C1190 C1186 1.385 . S
C1190 C1189 1.374 . S
C1191 C1188 1.499 . S
C1191 C1192 1.373 . S
C1191 C1193 1.389 . S
C1192 H1165 0.950 . S
C1192 C1178 1.377 . S
C1192 C1191 1.373 . S
C1193 C1177 1.377 . S
C1193 C1191 1.389 . S
C1193 C1194 1.524 . S
C1194 C1193 1.524 . S
C1194 C1195 1.397 . S
C1194 C1199 1.363 . S
C1195 H1166 0.950 . S
C1195 C1194 1.397 . S
C1195 C1196 1.334 . S
C1196 H1167 0.950 . S
C1196 C1195 1.334 . S
C1196 C1197 1.287 . S
C1197 C1196 1.287 . S
C1197 C1198 1.524 . S
C1197 H1200 0.999 . S
C1198 H1168 0.950 . S
C1198 C1197 1.524 . S
C1198 C1199 1.415 . S
C1199 H1169 0.950 . S
C1199 C1194 1.363 . S
C1199 C1198 1.415 . S
H1200 C1197 0.999 . S
H1201 C1182 0.913 . S
H1202 C1220 0.951 . S
H1203 C1222 0.951 . S
H1204 C1224 0.950 . S
H1205 C1225 0.950 . S
H1206 C1227 0.950 . S
H1207 C1230 0.950 . S
H1208 C1231 0.950 . S
H1209 C1233 0.950 . S
H1210 C1234 0.950 . S
H1211 C1235 0.951 . S
H1212 C1237 0.951 . S
H1213 C1239 0.950 . S
H1214 C1240 0.950 . S
H1215 C1242 0.950 . S
H1216 C1245 0.950 . S
H1217 C1246 0.950 . S
H1218 C1248 0.950 . S
H1219 C1249 0.950 . S
C1220 H1202 0.951 . S
C1220 C1221 1.366 . S
C1220 C1222 1.388 . S
C1221 C1220 1.366 . S
C1221 C1225 1.385 . S
C1222 H1203 0.951 . S
C1222 C1220 1.388 . S
C1222 C1223 1.366 . S
C1223 C1222 1.366 . S
C1223 C1224 1.414 . S
C1223 C1226 1.499 . S
C1224 H1204 0.950 . S
C1224 C1223 1.414 . S
C1224 C1225 1.374 . S
C1225 H1205 0.950 . S
C1225 C1221 1.385 . S
C1225 C1224 1.374 . S
C1226 C1223 1.499 . S
C1226 C1227 1.373 . S
C1226 C1228 1.389 . S
C1227 H1206 0.950 . S
C1227 C1226 1.373 . S
C1227 C1243 1.377 1_565 S
C1228 C1226 1.389 . S
C1228 C1229 1.524 . S
C1228 C1242 1.377 1_565 S
C1229 C1228 1.524 . S
C1229 C1230 1.397 . S
C1229 C1234 1.363 . S
C1230 H1207 0.950 . S
C1230 C1229 1.397 . S
C1230 C1231 1.334 . S
C1231 H1208 0.950 . S
C1231 C1230 1.334 . S
C1231 C1232 1.287 . S
C1232 C1231 1.287 . S
C1232 C1233 1.524 . S
C1232 H1251 0.913 . S
C1233 H1209 0.950 . S
C1233 C1232 1.524 . S
C1233 C1234 1.415 . S
C1234 H1210 0.950 . S
C1234 C1229 1.363 . S
C1234 C1233 1.415 . S
C1235 H1211 0.951 . S
C1235 C1236 1.366 . S
C1235 C1237 1.388 . S
C1236 C1235 1.366 . S
C1236 C1240 1.385 . S
C1237 H1212 0.951 . S
C1237 C1235 1.388 . S
C1237 C1238 1.366 . S
C1238 C1237 1.366 . S
C1238 C1239 1.414 . S
C1238 C1241 1.499 . S
C1239 H1213 0.950 . S
C1239 C1238 1.414 . S
C1239 C1240 1.374 . S
C1240 H1214 0.950 . S
C1240 C1236 1.385 . S
C1240 C1239 1.374 . S
C1241 C1238 1.499 . S
C1241 C1242 1.373 . S
C1241 C1243 1.389 . S
C1242 H1215 0.950 . S
C1242 C1228 1.377 1_545 S
C1242 C1241 1.373 . S
C1243 C1227 1.377 1_545 S
C1243 C1241 1.389 . S
C1243 C1244 1.524 . S
C1244 C1243 1.524 . S
C1244 C1245 1.397 . S
C1244 C1249 1.363 . S
C1245 H1216 0.950 . S
C1245 C1244 1.397 . S
C1245 C1246 1.334 . S
C1246 H1217 0.950 . S
C1246 C1245 1.334 . S
C1246 C1247 1.287 . S
C1247 C1246 1.287 . S
C1247 C1248 1.524 . S
C1247 H1250 0.999 . S
C1248 H1218 0.950 . S
C1248 C1247 1.524 . S
C1248 C1249 1.415 . S
C1249 H1219 0.950 . S
C1249 C1244 1.363 . S
C1249 C1248 1.415 . S
H1250 C1247 0.999 . S
H1251 C1232 0.913 . S
H1252 C1270 0.951 . S
H1253 C1272 0.951 . S
H1254 C1274 0.950 . S
H1255 C1275 0.950 . S
H1256 C1277 0.950 . S
H1257 C1280 0.950 . S
H1258 C1281 0.950 . S
H1259 C1283 0.950 . S
H1260 C1284 0.950 . S
H1261 C1285 0.951 . S
H1262 C1287 0.951 . S
H1263 C1289 0.950 . S
H1264 C1290 0.950 . S
H1265 C1292 0.950 . S
H1266 C1295 0.950 . S
H1267 C1296 0.950 . S
H1268 C1298 0.950 . S
H1269 C1299 0.950 . S
C1270 H1252 0.951 . S
C1270 C1271 1.366 . S
C1270 C1272 1.388 . S
C1271 C1270 1.366 . S
C1271 C1275 1.385 . S
C1272 H1253 0.951 . S
C1272 C1270 1.388 . S
C1272 C1273 1.366 . S
C1273 C1272 1.366 . S
C1273 C1274 1.414 . S
C1273 C1276 1.499 . S
C1274 H1254 0.950 . S
C1274 C1273 1.414 . S
C1274 C1275 1.374 . S
C1275 H1255 0.950 . S
C1275 C1271 1.385 . S
C1275 C1274 1.374 . S
C1276 C1273 1.499 . S
C1276 C1277 1.373 . S
C1276 C1278 1.389 1_554 S
C1277 H1256 0.950 . S
C1277 C1276 1.373 . S
C1277 C1293 1.377 . S
C1278 C1276 1.389 1_556 S
C1278 C1279 1.524 . S
C1278 C1292 1.377 . S
C1279 C1278 1.524 . S
C1279 C1280 1.397 1_556 S
C1279 C1284 1.363 . S
C1280 H1257 0.950 . S
C1280 C1279 1.397 1_554 S
C1280 C1281 1.334 . S
C1281 H1258 0.950 . S
C1281 C1280 1.334 . S
C1281 C1282 1.287 1_554 S
C1282 C1281 1.287 1_556 S
C1282 C1283 1.524 . S
C1282 H1301 0.913 . S
C1283 H1259 0.950 . S
C1283 C1282 1.524 . S
C1283 C1284 1.415 . S
C1284 H1260 0.950 . S
C1284 C1279 1.363 . S
C1284 C1283 1.415 . S
C1285 H1261 0.951 . S
C1285 C1286 1.366 . S
C1285 C1287 1.388 . S
C1286 C1285 1.366 . S
C1286 C1290 1.385 . S
C1287 H1262 0.951 . S
C1287 C1285 1.388 . S
C1287 C1288 1.366 . S
C1288 C1287 1.366 . S
C1288 C1289 1.414 . S
C1288 C1291 1.499 . S
C1289 H1263 0.950 . S
C1289 C1288 1.414 . S
C1289 C1290 1.374 . S
C1290 H1264 0.950 . S
C1290 C1286 1.385 . S
C1290 C1289 1.374 . S
C1291 C1288 1.499 . S
C1291 C1292 1.373 . S
C1291 C1293 1.389 1_556 S
C1292 H1265 0.950 . S
C1292 C1278 1.377 . S
C1292 C1291 1.373 . S
C1293 C1277 1.377 . S
C1293 C1291 1.389 1_554 S
C1293 C1294 1.524 . S
C1294 C1293 1.524 . S
C1294 C1295 1.397 1_554 S
C1294 C1299 1.363 . S
C1295 H1266 0.950 . S
C1295 C1294 1.397 1_556 S
C1295 C1296 1.334 . S
C1296 H1267 0.950 . S
C1296 C1295 1.334 . S
C1296 C1297 1.287 1_556 S
C1297 C1296 1.287 1_554 S
C1297 C1298 1.524 . S
C1297 H1300 0.999 . S
C1298 H1268 0.950 . S
C1298 C1297 1.524 . S
C1298 C1299 1.415 . S
C1299 H1269 0.950 . S
C1299 C1294 1.363 . S
C1299 C1298 1.415 . S
H1300 C1297 0.999 . S
H1301 C1282 0.913 . S
H1302 C1320 0.951 . S
H1303 C1322 0.951 . S
H1304 C1324 0.950 . S
H1305 C1325 0.950 . S
H1306 C1327 0.950 . S
H1307 C1330 0.950 . S
H1308 C1331 0.950 . S
H1309 C1333 0.964 . S
H1310 C1334 0.950 1_565 S
H1311 C1335 0.951 . S
H1312 C1337 0.951 . S
H1313 C1339 0.950 . S
H1314 C1340 0.950 . S
H1315 C1342 0.950 . S
H1316 C1345 0.950 . S
H1317 C1346 0.950 . S
H1318 C1348 0.964 . S
H1319 C1349 0.950 1_545 S
C1320 H1302 0.951 . S
C1320 C1321 1.366 . S
C1320 C1322 1.388 . S
C1321 C1320 1.366 . S
C1321 C1325 1.385 . S
C1322 H1303 0.951 . S
C1322 C1320 1.388 . S
C1322 C1323 1.366 . S
C1323 C1322 1.366 . S
C1323 C1324 1.414 . S
C1323 C1326 1.499 . S
C1324 H1304 0.950 . S
C1324 C1323 1.414 . S
C1324 C1325 1.374 . S
C1325 H1305 0.950 . S
C1325 C1321 1.385 . S
C1325 C1324 1.374 . S
C1326 C1323 1.499 . S
C1326 C1327 1.373 . S
C1326 C1328 1.389 . S
C1327 H1306 0.950 . S
C1327 C1326 1.373 . S
C1327 C1343 1.377 1_545 S
C1328 C1326 1.389 . S
C1328 C1329 1.524 . S
C1328 C1342 1.377 1_545 S
C1329 C1328 1.524 . S
C1329 C1330 1.397 . S
C1329 C1334 1.363 . S
C1330 H1307 0.950 . S
C1330 C1329 1.397 . S
C1330 C1331 1.334 . S
C1331 H1308 0.950 . S
C1331 C1330 1.334 . S
C1331 C1332 1.287 . S
C1332 C1331 1.287 . S
C1332 C1333 1.524 . S
C1332 H1351 0.913 . S
C1333 H1309 0.964 . S
C1333 C1332 1.524 . S
C1333 C1334 1.415 . S
C1334 H1310 0.950 1_545 S
C1334 C1329 1.363 . S
C1334 C1333 1.415 . S
C1335 H1311 0.951 . S
C1335 C1336 1.366 . S
C1335 C1337 1.388 . S
C1336 C1335 1.366 . S
C1336 C1340 1.385 . S
C1337 H1312 0.951 . S
C1337 C1335 1.388 . S
C1337 C1338 1.366 . S
C1338 C1337 1.366 . S
C1338 C1339 1.414 . S
C1338 C1341 1.499 . S
C1339 H1313 0.950 . S
C1339 C1338 1.414 . S
C1339 C1340 1.374 . S
C1340 H1314 0.950 . S
C1340 C1336 1.385 . S
C1340 C1339 1.374 . S
C1341 C1338 1.499 . S
C1341 C1342 1.373 . S
C1341 C1343 1.389 . S
C1342 H1315 0.950 . S
C1342 C1328 1.377 1_565 S
C1342 C1341 1.373 . S
C1343 C1327 1.377 1_565 S
C1343 C1341 1.389 . S
C1343 C1344 1.524 . S
C1344 C1343 1.524 . S
C1344 C1345 1.397 . S
C1344 C1349 1.363 . S
C1345 H1316 0.950 . S
C1345 C1344 1.397 . S
C1345 C1346 1.334 . S
C1346 H1317 0.950 . S
C1346 C1345 1.334 . S
C1346 C1347 1.287 . S
C1347 C1346 1.287 . S
C1347 C1348 1.524 . S
C1347 H1350 0.999 . S
C1348 H1318 0.964 . S
C1348 C1347 1.524 . S
C1348 C1349 1.415 . S
C1349 H1319 0.950 1_565 S
C1349 C1344 1.363 . S
C1349 C1348 1.415 . S
H1350 C1347 0.999 . S
H1351 C1332 0.913 . S
H1352 C1370 0.951 . S
H1353 C1372 0.951 . S
H1354 C1374 0.950 . S
H1355 C1375 0.950 . S
H1356 C1377 0.950 . S
H1357 C1380 0.950 . S
H1358 C1381 0.950 . S
H1359 C1383 0.950 . S
H1360 C1384 0.950 . S
H1361 C1385 0.951 . S
H1362 C1387 0.951 . S
H1363 C1389 0.950 . S
H1364 C1390 0.950 . S
H1365 C1392 0.950 . S
H1366 C1395 0.950 . S
H1367 C1396 0.950 . S
H1368 C1398 0.950 . S
H1369 C1399 0.950 . S
C1370 H1352 0.951 . S
C1370 C1371 1.366 . S
C1370 C1372 1.388 . S
C1371 C1370 1.366 . S
C1371 C1375 1.385 . S
C1372 H1353 0.951 . S
C1372 C1370 1.388 . S
C1372 C1373 1.366 . S
C1373 C1372 1.366 . S
C1373 C1374 1.414 . S
C1373 C1376 1.499 . S
C1374 H1354 0.950 . S
C1374 C1373 1.414 . S
C1374 C1375 1.374 . S
C1375 H1355 0.950 . S
C1375 C1371 1.385 . S
C1375 C1374 1.374 . S
C1376 C1373 1.499 . S
C1376 C1377 1.373 . S
C1376 C1378 1.389 . S
C1377 H1356 0.950 . S
C1377 C1376 1.373 . S
C1377 C1393 1.377 . S
C1378 C1376 1.389 . S
C1378 C1379 1.524 . S
C1378 C1392 1.377 . S
C1379 C1378 1.524 . S
C1379 C1380 1.397 . S
C1379 C1384 1.363 . S
C1380 H1357 0.950 . S
C1380 C1379 1.397 . S
C1380 C1381 1.334 . S
C1381 H1358 0.950 . S
C1381 C1380 1.334 . S
C1381 C1382 1.287 . S
C1382 C1381 1.287 . S
C1382 C1383 1.524 . S
C1382 H1401 0.913 . S
C1383 H1359 0.950 . S
C1383 C1382 1.524 . S
C1383 C1384 1.415 . S
C1384 H1360 0.950 . S
C1384 C1379 1.363 . S
C1384 C1383 1.415 . S
C1385 H1361 0.951 . S
C1385 C1386 1.366 . S
C1385 C1387 1.388 . S
C1386 C1385 1.366 . S
C1386 C1390 1.385 . S
C1387 H1362 0.951 . S
C1387 C1385 1.388 . S
C1387 C1388 1.366 . S
C1388 C1387 1.366 . S
C1388 C1389 1.414 . S
C1388 C1391 1.499 . S
C1389 H1363 0.950 . S
C1389 C1388 1.414 . S
C1389 C1390 1.374 . S
C1390 H1364 0.950 . S
C1390 C1386 1.385 . S
C1390 C1389 1.374 . S
C1391 C1388 1.499 . S
C1391 C1392 1.373 . S
C1391 C1393 1.389 . S
C1392 H1365 0.950 . S
C1392 C1378 1.377 . S
C1392 C1391 1.373 . S
C1393 C1377 1.377 . S
C1393 C1391 1.389 . S
C1393 C1394 1.524 . S
C1394 C1393 1.524 . S
C1394 C1395 1.397 . S
C1394 C1399 1.363 . S
C1395 H1366 0.950 . S
C1395 C1394 1.397 . S
C1395 C1396 1.334 . S
C1396 H1367 0.950 . S
C1396 C1395 1.334 . S
C1396 C1397 1.287 . S
C1397 C1396 1.287 . S
C1397 C1398 1.524 . S
C1397 H1400 0.999 . S
C1398 H1368 0.950 . S
C1398 C1397 1.524 . S
C1398 C1399 1.415 . S
C1399 H1369 0.950 . S
C1399 C1394 1.363 . S
C1399 C1398 1.415 . S
H1400 C1397 0.999 . S
H1401 C1382 0.913 . S
H1402 C1420 0.951 . S
H1403 C1422 0.951 . S
H1404 C1424 0.950 . S
H1405 C1425 0.950 . S
H1406 C1427 0.950 . S
H1407 C1430 0.950 . S
H1408 C1431 0.950 . S
H1409 C1433 0.950 . S
H1410 C1434 0.967 . S
H1411 C1435 0.951 . S
H1412 C1437 0.951 . S
H1413 C1439 0.950 . S
H1414 C1440 0.950 . S
H1415 C1442 0.950 . S
H1416 C1445 0.950 . S
H1417 C1446 0.950 . S
H1418 C1448 0.950 . S
H1419 C1449 0.966 . S
C1420 H1402 0.951 . S
C1420 C1421 1.366 . S
C1420 C1422 1.388 . S
C1421 C1420 1.366 . S
C1421 C1425 1.385 . S
C1422 H1403 0.951 . S
C1422 C1420 1.388 . S
C1422 C1423 1.366 . S
C1423 C1422 1.366 . S
C1423 C1424 1.414 . S
C1423 C1426 1.499 . S
C1424 H1404 0.950 . S
C1424 C1423 1.414 . S
C1424 C1425 1.374 . S
C1425 H1405 0.950 . S
C1425 C1421 1.385 . S
C1425 C1424 1.374 . S
C1426 C1423 1.499 . S
C1426 C1427 1.373 . S
C1426 C1428 1.389 . S
C1427 H1406 0.950 . S
C1427 C1426 1.373 . S
C1427 C1443 1.377 1_545 S
C1428 C1426 1.389 . S
C1428 C1429 1.524 . S
C1428 C1442 1.377 1_545 S
C1429 C1428 1.524 . S
C1429 C1430 1.397 . S
C1429 C1434 1.363 . S
C1430 H1407 0.950 . S
C1430 C1429 1.397 . S
C1430 C1431 1.334 . S
C1431 H1408 0.950 . S
C1431 C1430 1.334 . S
C1431 C1432 1.287 . S
C1432 C1431 1.287 . S
C1432 C1433 1.524 . S
C1432 H1451 0.913 . S
C1433 H1409 0.950 . S
C1433 C1432 1.524 . S
C1433 C1434 1.415 . S
C1434 H1410 0.967 . S
C1434 C1429 1.363 . S
C1434 C1433 1.415 . S
C1435 H1411 0.951 . S
C1435 C1436 1.366 . S
C1435 C1437 1.388 . S
C1436 C1435 1.366 . S
C1436 C1440 1.385 . S
C1437 H1412 0.951 . S
C1437 C1435 1.388 . S
C1437 C1438 1.366 . S
C1438 C1437 1.366 . S
C1438 C1439 1.414 . S
C1438 C1441 1.499 . S
C1439 H1413 0.950 . S
C1439 C1438 1.414 . S
C1439 C1440 1.374 . S
C1440 H1414 0.950 . S
C1440 C1436 1.385 . S
C1440 C1439 1.374 . S
C1441 C1438 1.499 . S
C1441 C1442 1.373 . S
C1441 C1443 1.389 . S
C1442 H1415 0.950 . S
C1442 C1428 1.377 1_565 S
C1442 C1441 1.373 . S
C1443 C1427 1.377 1_565 S
C1443 C1441 1.389 . S
C1443 C1444 1.524 . S
C1444 C1443 1.524 . S
C1444 C1445 1.397 . S
C1444 C1449 1.363 . S
C1445 H1416 0.950 . S
C1445 C1444 1.397 . S
C1445 C1446 1.334 . S
C1446 H1417 0.950 . S
C1446 C1445 1.334 . S
C1446 C1447 1.287 . S
C1447 C1446 1.287 . S
C1447 C1448 1.524 . S
C1447 H1450 0.999 . S
C1448 H1418 0.950 . S
C1448 C1447 1.524 . S
C1448 C1449 1.415 . S
C1449 H1419 0.966 . S
C1449 C1444 1.363 . S
C1449 C1448 1.415 . S
H1450 C1447 0.999 . S
H1451 C1432 0.913 . S
H1452 C1470 0.951 . S
H1453 C1472 0.951 . S
H1454 C1474 0.950 . S
H1455 C1475 0.950 . S
H1456 C1477 0.950 . S
H1457 C1480 0.950 1_556 S
H1458 C1481 0.950 . S
H1459 C1483 0.950 . S
H1460 C1484 0.950 . S
H1461 C1485 0.951 . S
H1462 C1487 0.951 . S
H1463 C1489 0.950 . S
H1464 C1490 0.950 . S
H1465 C1492 0.950 . S
H1466 C1495 0.950 1_554 S
H1467 C1496 0.950 . S
H1468 C1498 0.950 . S
H1469 C1499 0.950 . S
C1470 H1452 0.951 . S
C1470 C1471 1.366 . S
C1470 C1472 1.388 . S
C1471 C1470 1.366 . S
C1471 C1475 1.385 . S
C1472 H1453 0.951 . S
C1472 C1470 1.388 . S
C1472 C1473 1.366 . S
C1473 C1472 1.366 . S
C1473 C1474 1.414 . S
C1473 C1476 1.499 . S
C1474 H1454 0.950 . S
C1474 C1473 1.414 . S
C1474 C1475 1.374 . S
C1475 H1455 0.950 . S
C1475 C1471 1.385 . S
C1475 C1474 1.374 . S
C1476 C1473 1.499 . S
C1476 C1477 1.373 . S
C1476 C1478 1.389 1_556 S
C1477 H1456 0.950 . S
C1477 C1476 1.373 . S
C1477 C1493 1.377 . S
C1478 C1476 1.389 1_554 S
C1478 C1479 1.524 . S
C1478 C1492 1.377 . S
C1479 C1478 1.524 . S
C1479 C1480 1.397 . S
C1479 C1484 1.363 . S
C1480 H1457 0.950 1_554 S
C1480 C1479 1.397 . S
C1480 C1481 1.334 . S
C1481 H1458 0.950 . S
C1481 C1480 1.334 . S
C1481 C1482 1.287 . S
C1482 C1481 1.287 . S
C1482 C1483 1.524 . S
C1482 H1501 0.913 . S
C1483 H1459 0.950 . S
C1483 C1482 1.524 . S
C1483 C1484 1.415 . S
C1484 H1460 0.950 . S
C1484 C1479 1.363 . S
C1484 C1483 1.415 . S
C1485 H1461 0.951 . S
C1485 C1486 1.366 . S
C1485 C1487 1.388 . S
C1486 C1485 1.366 . S
C1486 C1490 1.385 . S
C1487 H1462 0.951 . S
C1487 C1485 1.388 . S
C1487 C1488 1.366 . S
C1488 C1487 1.366 . S
C1488 C1489 1.414 . S
C1488 C1491 1.499 . S
C1489 H1463 0.950 . S
C1489 C1488 1.414 . S
C1489 C1490 1.374 . S
C1490 H1464 0.950 . S
C1490 C1486 1.385 . S
C1490 C1489 1.374 . S
C1491 C1488 1.499 . S
C1491 C1492 1.373 . S
C1491 C1493 1.389 1_554 S
C1492 H1465 0.950 . S
C1492 C1478 1.377 . S
C1492 C1491 1.373 . S
C1493 C1477 1.377 . S
C1493 C1491 1.389 1_556 S
C1493 C1494 1.524 . S
C1494 C1493 1.524 . S
C1494 C1495 1.397 . S
C1494 C1499 1.363 . S
C1495 H1466 0.950 1_556 S
C1495 C1494 1.397 . S
C1495 C1496 1.334 . S
C1496 H1467 0.950 . S
C1496 C1495 1.334 . S
C1496 C1497 1.287 . S
C1497 C1496 1.287 . S
C1497 C1498 1.524 . S
C1497 H1500 0.999 . S
C1498 H1468 0.950 . S
C1498 C1497 1.524 . S
C1498 C1499 1.415 . S
C1499 H1469 0.950 . S
C1499 C1494 1.363 . S
C1499 C1498 1.415 . S
H1500 C1497 0.999 . S
H1501 C1482 0.913 . S
H1502 C1520 0.951 . S
H1503 C1522 0.951 . S
H1504 C1524 0.950 . S
H1505 C1525 0.950 . S
H1506 C1527 0.950 . S
H1507 C1530 0.950 . S
H1508 C1531 0.950 . S
H1509 C1533 0.950 . S
H1510 C1534 0.950 . S
H1511 C1535 0.951 . S
H1512 C1537 0.951 . S
H1513 C1539 0.950 . S
H1514 C1540 0.950 . S
H1515 C1542 0.950 . S
H1516 C1545 0.950 . S
H1517 C1546 0.950 . S
H1518 C1548 0.950 . S
H1519 C1549 0.950 . S
C1520 H1502 0.951 . S
C1520 C1521 1.366 . S
C1520 C1522 1.388 . S
C1521 C1520 1.366 . S
C1521 C1525 1.385 . S
C1522 H1503 0.951 . S
C1522 C1520 1.388 . S
C1522 C1523 1.366 . S
C1523 C1522 1.366 . S
C1523 C1524 1.414 . S
C1523 C1526 1.499 . S
C1524 H1504 0.950 . S
C1524 C1523 1.414 . S
C1524 C1525 1.374 . S
C1525 H1505 0.950 . S
C1525 C1521 1.385 . S
C1525 C1524 1.374 . S
C1526 C1523 1.499 . S
C1526 C1527 1.373 . S
C1526 C1528 1.389 . S
C1527 H1506 0.950 . S
C1527 C1526 1.373 . S
C1527 C1543 1.377 1_565 S
C1528 C1526 1.389 . S
C1528 C1529 1.524 . S
C1528 C1542 1.377 1_565 S
C1529 C1528 1.524 . S
C1529 C1530 1.397 . S
C1529 C1534 1.363 . S
C1530 H1507 0.950 . S
C1530 C1529 1.397 . S
C1530 C1531 1.334 . S
C1531 H1508 0.950 . S
C1531 C1530 1.334 . S
C1531 C1532 1.287 . S
C1532 C1531 1.287 . S
C1532 C1533 1.524 . S
C1532 H1551 0.913 . S
C1533 H1509 0.950 . S
C1533 C1532 1.524 . S
C1533 C1534 1.415 . S
C1534 H1510 0.950 . S
C1534 C1529 1.363 . S
C1534 C1533 1.415 . S
C1535 H1511 0.951 . S
C1535 C1536 1.366 . S
C1535 C1537 1.388 . S
C1536 C1535 1.366 . S
C1536 C1540 1.385 . S
C1537 H1512 0.951 . S
C1537 C1535 1.388 . S
C1537 C1538 1.366 . S
C1538 C1537 1.366 . S
C1538 C1539 1.414 . S
C1538 C1541 1.499 . S
C1539 H1513 0.950 . S
C1539 C1538 1.414 . S
C1539 C1540 1.374 . S
C1540 H1514 0.950 . S
C1540 C1536 1.385 . S
C1540 C1539 1.374 . S
C1541 C1538 1.499 . S
C1541 C1542 1.373 . S
C1541 C1543 1.389 . S
C1542 H1515 0.950 . S
C1542 C1528 1.377 1_545 S
C1542 C1541 1.373 . S
C1543 C1527 1.377 1_545 S
C1543 C1541 1.389 . S
C1543 C1544 1.524 . S
C1544 C1543 1.524 . S
C1544 C1545 1.397 . S
C1544 C1549 1.363 . S
C1545 H1516 0.950 . S
C1545 C1544 1.397 . S
C1545 C1546 1.334 . S
C1546 H1517 0.950 . S
C1546 C1545 1.334 . S
C1546 C1547 1.287 . S
C1547 C1546 1.287 . S
C1547 C1548 1.524 . S
C1547 H1550 0.999 . S
C1548 H1518 0.950 . S
C1548 C1547 1.524 . S
C1548 C1549 1.415 . S
C1549 H1519 0.950 . S
C1549 C1544 1.363 . S
C1549 C1548 1.415 . S
H1550 C1547 0.999 . S
H1551 C1532 0.913 . S
H1552 C1570 0.951 . S
H1553 C1572 0.951 . S
H1554 C1574 0.950 . S
H1555 C1575 0.950 . S
H1556 C1577 0.950 . S
H1557 C1580 0.950 . S
H1558 C1581 0.950 . S
H1559 C1583 0.950 . S
H1560 C1584 0.950 . S
H1561 C1585 0.951 . S
H1562 C1587 0.951 . S
H1563 C1589 0.950 . S
H1564 C1590 0.950 . S
H1565 C1592 0.950 . S
H1566 C1595 0.950 . S
H1567 C1596 0.950 . S
H1568 C1598 0.950 . S
H1569 C1599 0.950 . S
C1570 H1552 0.951 . S
C1570 C1571 1.366 . S
C1570 C1572 1.388 . S
C1571 C1570 1.366 . S
C1571 C1575 1.385 . S
C1572 H1553 0.951 . S
C1572 C1570 1.388 . S
C1572 C1573 1.366 . S
C1573 C1572 1.366 . S
C1573 C1574 1.414 . S
C1573 C1576 1.499 . S
C1574 H1554 0.950 . S
C1574 C1573 1.414 . S
C1574 C1575 1.374 . S
C1575 H1555 0.950 . S
C1575 C1571 1.385 . S
C1575 C1574 1.374 . S
C1576 C1573 1.499 . S
C1576 C1577 1.373 . S
C1576 C1578 1.389 1_556 S
C1577 H1556 0.950 . S
C1577 C1576 1.373 . S
C1577 C1593 1.377 . S
C1578 C1576 1.389 1_554 S
C1578 C1579 1.524 . S
C1578 C1592 1.377 . S
C1579 C1578 1.524 . S
C1579 C1580 1.397 . S
C1579 C1584 1.363 . S
C1580 H1557 0.950 . S
C1580 C1579 1.397 . S
C1580 C1581 1.334 . S
C1581 H1558 0.950 . S
C1581 C1580 1.334 . S
C1581 C1582 1.287 . S
C1582 C1581 1.287 . S
C1582 C1583 1.524 . S
C1582 H1601 0.913 . S
C1583 H1559 0.950 . S
C1583 C1582 1.524 . S
C1583 C1584 1.415 . S
C1584 H1560 0.950 . S
C1584 C1579 1.363 . S
C1584 C1583 1.415 . S
C1585 H1561 0.951 . S
C1585 C1586 1.366 . S
C1585 C1587 1.388 . S
C1586 C1585 1.366 . S
C1586 C1590 1.385 . S
C1587 H1562 0.951 . S
C1587 C1585 1.388 . S
C1587 C1588 1.366 . S
C1588 C1587 1.366 . S
C1588 C1589 1.414 . S
C1588 C1591 1.499 . S
C1589 H1563 0.950 . S
C1589 C1588 1.414 . S
C1589 C1590 1.374 . S
C1590 H1564 0.950 . S
C1590 C1586 1.385 . S
C1590 C1589 1.374 . S
C1591 C1588 1.499 . S
C1591 C1592 1.373 . S
C1591 C1593 1.389 1_554 S
C1592 H1565 0.950 . S
C1592 C1578 1.377 . S
C1592 C1591 1.373 . S
C1593 C1577 1.377 . S
C1593 C1591 1.389 1_556 S
C1593 C1594 1.524 . S
C1594 C1593 1.524 . S
C1594 C1595 1.397 . S
C1594 C1599 1.363 . S
C1595 H1566 0.950 . S
C1595 C1594 1.397 . S
C1595 C1596 1.334 . S
C1596 H1567 0.950 . S
C1596 C1595 1.334 . S
C1596 C1597 1.287 . S
C1597 C1596 1.287 . S
C1597 C1598 1.524 . S
C1597 H1600 0.999 . S
C1598 H1568 0.950 . S
C1598 C1597 1.524 . S
C1598 C1599 1.415 . S
C1599 H1569 0.950 . S
C1599 C1594 1.363 . S
C1599 C1598 1.415 . S
H1600 C1597 0.999 . S
H1601 C1582 0.913 . S
H1602 C1620 0.951 . S
H1603 C1622 0.951 . S
H1604 C1624 0.950 . S
H1605 C1625 0.950 . S
H1606 C1627 0.950 . S
H1607 C1630 0.950 . S
H1608 C1631 0.950 . S
H1609 C1633 0.950 . S
H1610 C1634 0.950 . S
H1611 C1635 0.951 . S
H1612 C1637 0.951 . S
H1613 C1639 0.950 . S
H1614 C1640 0.950 . S
H1615 C1642 0.950 . S
H1616 C1645 0.950 . S
H1617 C1646 0.950 . S
H1618 C1648 0.950 . S
H1619 C1649 0.950 . S
C1620 H1602 0.951 . S
C1620 C1621 1.366 . S
C1620 C1622 1.388 . S
C1621 C1620 1.366 . S
C1621 C1625 1.385 . S
C1622 H1603 0.951 . S
C1622 C1620 1.388 . S
C1622 C1623 1.366 . S
C1623 C1622 1.366 . S
C1623 C1624 1.414 . S
C1623 C1626 1.499 . S
C1624 H1604 0.950 . S
C1624 C1623 1.414 . S
C1624 C1625 1.374 . S
C1625 H1605 0.950 . S
C1625 C1621 1.385 . S
C1625 C1624 1.374 . S
C1626 C1623 1.499 . S
C1626 C1627 1.373 . S
C1626 C1628 1.389 . S
C1627 H1606 0.950 . S
C1627 C1626 1.373 . S
C1627 C1643 1.377 . S
C1628 C1626 1.389 . S
C1628 C1629 1.524 . S
C1628 C1642 1.377 . S
C1629 C1628 1.524 . S
C1629 C1630 1.397 . S
C1629 C1634 1.363 . S
C1630 H1607 0.950 . S
C1630 C1629 1.397 . S
C1630 C1631 1.334 . S
C1631 H1608 0.950 . S
C1631 C1630 1.334 . S
C1631 C1632 1.287 . S
C1632 C1631 1.287 . S
C1632 C1633 1.524 . S
C1632 H1651 0.913 . S
C1633 H1609 0.950 . S
C1633 C1632 1.524 . S
C1633 C1634 1.415 . S
C1634 H1610 0.950 . S
C1634 C1629 1.363 . S
C1634 C1633 1.415 . S
C1635 H1611 0.951 . S
C1635 C1636 1.366 . S
C1635 C1637 1.388 . S
C1636 C1635 1.366 . S
C1636 C1640 1.385 . S
C1637 H1612 0.951 . S
C1637 C1635 1.388 . S
C1637 C1638 1.366 . S
C1638 C1637 1.366 . S
C1638 C1639 1.414 . S
C1638 C1641 1.499 . S
C1639 H1613 0.950 . S
C1639 C1638 1.414 . S
C1639 C1640 1.374 . S
C1640 H1614 0.950 . S
C1640 C1636 1.385 . S
C1640 C1639 1.374 . S
C1641 C1638 1.499 . S
C1641 C1642 1.373 . S
C1641 C1643 1.389 . S
C1642 H1615 0.950 . S
C1642 C1628 1.377 . S
C1642 C1641 1.373 . S
C1643 C1627 1.377 . S
C1643 C1641 1.389 . S
C1643 C1644 1.524 . S
C1644 C1643 1.524 . S
C1644 C1645 1.397 . S
C1644 C1649 1.363 . S
C1645 H1616 0.950 . S
C1645 C1644 1.397 . S
C1645 C1646 1.334 . S
C1646 H1617 0.950 . S
C1646 C1645 1.334 . S
C1646 C1647 1.287 . S
C1647 C1646 1.287 . S
C1647 C1648 1.524 . S
C1647 H1650 0.999 . S
C1648 H1618 0.950 . S
C1648 C1647 1.524 . S
C1648 C1649 1.415 . S
C1649 H1619 0.950 . S
C1649 C1644 1.363 . S
C1649 C1648 1.415 . S
H1650 C1647 0.999 . S
H1651 C1632 0.913 . S
H1652 C1670 0.951 . S
H1653 C1672 0.951 . S
H1654 C1674 0.950 . S
H1655 C1675 0.950 . S
H1656 C1677 0.950 . S
H1657 C1680 0.950 . S
H1658 C1681 0.950 . S
H1659 C1683 0.950 . S
H1660 C1684 0.950 . S
H1661 C1685 0.951 . S
H1662 C1687 0.951 . S
H1663 C1689 0.950 . S
H1664 C1690 0.950 . S
H1665 C1692 0.950 . S
H1666 C1695 0.950 . S
H1667 C1696 0.950 . S
H1668 C1698 0.950 . S
H1669 C1699 0.950 . S
C1670 H1652 0.951 . S
C1670 C1671 1.366 . S
C1670 C1672 1.388 . S
C1671 C1670 1.366 . S
C1671 C1675 1.385 . S
C1672 H1653 0.951 . S
C1672 C1670 1.388 . S
C1672 C1673 1.366 . S
C1673 C1672 1.366 . S
C1673 C1674 1.414 . S
C1673 C1676 1.499 . S
C1674 H1654 0.950 . S
C1674 C1673 1.414 . S
C1674 C1675 1.374 . S
C1675 H1655 0.950 . S
C1675 C1671 1.385 . S
C1675 C1674 1.374 . S
C1676 C1673 1.499 . S
C1676 C1677 1.373 . S
C1676 C1678 1.389 . S
C1677 H1656 0.950 . S
C1677 C1676 1.373 . S
C1677 C1693 1.377 . S
C1678 C1676 1.389 . S
C1678 C1679 1.524 . S
C1678 C1692 1.377 . S
C1679 C1678 1.524 . S
C1679 C1680 1.397 . S
C1679 C1684 1.363 . S
C1680 H1657 0.950 . S
C1680 C1679 1.397 . S
C1680 C1681 1.334 . S
C1681 H1658 0.950 . S
C1681 C1680 1.334 . S
C1681 C1682 1.287 . S
C1682 C1681 1.287 . S
C1682 C1683 1.524 . S
C1682 H1701 0.913 . S
C1683 H1659 0.950 . S
C1683 C1682 1.524 . S
C1683 C1684 1.415 . S
C1684 H1660 0.950 . S
C1684 C1679 1.363 . S
C1684 C1683 1.415 . S
C1685 H1661 0.951 . S
C1685 C1686 1.366 . S
C1685 C1687 1.388 . S
C1686 C1685 1.366 . S
C1686 C1690 1.385 . S
C1687 H1662 0.951 . S
C1687 C1685 1.388 . S
C1687 C1688 1.366 . S
C1688 C1687 1.366 . S
C1688 C1689 1.414 . S
C1688 C1691 1.499 . S
C1689 H1663 0.950 . S
C1689 C1688 1.414 . S
C1689 C1690 1.374 . S
C1690 H1664 0.950 . S
C1690 C1686 1.385 . S
C1690 C1689 1.374 . S
C1691 C1688 1.499 . S
C1691 C1692 1.373 . S
C1691 C1693 1.389 . S
C1692 H1665 0.950 . S
C1692 C1678 1.377 . S
C1692 C1691 1.373 . S
C1693 C1677 1.377 . S
C1693 C1691 1.389 . S
C1693 C1694 1.524 . S
C1694 C1693 1.524 . S
C1694 C1695 1.397 . S
C1694 C1699 1.363 . S
C1695 H1666 0.950 . S
C1695 C1694 1.397 . S
C1695 C1696 1.334 . S
C1696 H1667 0.950 . S
C1696 C1695 1.334 . S
C1696 C1697 1.287 . S
C1697 C1696 1.287 . S
C1697 C1698 1.524 . S
C1697 H1700 0.999 . S
C1698 H1668 0.950 . S
C1698 C1697 1.524 . S
C1698 C1699 1.415 . S
C1699 H1669 0.950 . S
C1699 C1694 1.363 . S
C1699 C1698 1.415 . S
H1700 C1697 0.999 . S
H1701 C1682 0.913 . S
H1702 C1720 0.951 . S
H1703 C1722 0.951 . S
H1704 C1724 0.950 . S
H1705 C1725 0.950 . S
H1706 C1727 0.950 . S
H1707 C1730 0.950 . S
H1708 C1731 0.950 . S
H1709 C1733 0.950 . S
H1710 C1734 0.950 . S
H1711 C1735 0.951 . S
H1712 C1737 0.951 . S
H1713 C1739 0.950 . S
H1714 C1740 0.950 . S
H1715 C1742 0.950 . S
H1716 C1745 0.950 . S
H1717 C1746 0.950 . S
H1718 C1748 0.950 . S
H1719 C1749 0.950 . S
C1720 H1702 0.951 . S
C1720 C1721 1.366 . S
C1720 C1722 1.388 . S
C1721 C1720 1.366 . S
C1721 C1725 1.385 . S
C1722 H1703 0.951 . S
C1722 C1720 1.388 . S
C1722 C1723 1.366 . S
C1723 C1722 1.366 . S
C1723 C1724 1.414 . S
C1723 C1726 1.499 . S
C1724 H1704 0.950 . S
C1724 C1723 1.414 . S
C1724 C1725 1.374 . S
C1725 H1705 0.950 . S
C1725 C1721 1.385 . S
C1725 C1724 1.374 . S
C1726 C1723 1.499 . S
C1726 C1727 1.373 . S
C1726 C1728 1.389 . S
C1727 H1706 0.950 . S
C1727 C1726 1.373 . S
C1727 C1743 1.377 . S
C1728 C1726 1.389 . S
C1728 C1729 1.524 . S
C1728 C1742 1.377 . S
C1729 C1728 1.524 . S
C1729 C1730 1.397 . S
C1729 C1734 1.363 . S
C1730 H1707 0.950 . S
C1730 C1729 1.397 . S
C1730 C1731 1.334 . S
C1731 H1708 0.950 . S
C1731 C1730 1.334 . S
C1731 C1732 1.287 . S
C1732 C1731 1.287 . S
C1732 C1733 1.524 . S
C1732 H1751 0.913 . S
C1733 H1709 0.950 . S
C1733 C1732 1.524 . S
C1733 C1734 1.415 . S
C1734 H1710 0.950 . S
C1734 C1729 1.363 . S
C1734 C1733 1.415 . S
C1735 H1711 0.951 . S
C1735 C1736 1.366 . S
C1735 C1737 1.388 . S
C1736 C1735 1.366 . S
C1736 C1740 1.385 . S
C1737 H1712 0.951 . S
C1737 C1735 1.388 . S
C1737 C1738 1.366 . S
C1738 C1737 1.366 . S
C1738 C1739 1.414 . S
C1738 C1741 1.499 . S
C1739 H1713 0.950 . S
C1739 C1738 1.414 . S
C1739 C1740 1.374 . S
C1740 H1714 0.950 . S
C1740 C1736 1.385 . S
C1740 C1739 1.374 . S
C1741 C1738 1.499 . S
C1741 C1742 1.373 . S
C1741 C1743 1.389 . S
C1742 H1715 0.950 . S
C1742 C1728 1.377 . S
C1742 C1741 1.373 . S
C1743 C1727 1.377 . S
C1743 C1741 1.389 . S
C1743 C1744 1.524 . S
C1744 C1743 1.524 . S
C1744 C1745 1.397 . S
C1744 C1749 1.363 . S
C1745 H1716 0.950 . S
C1745 C1744 1.397 . S
C1745 C1746 1.334 . S
C1746 H1717 0.950 . S
C1746 C1745 1.334 . S
C1746 C1747 1.287 . S
C1747 C1746 1.287 . S
C1747 C1748 1.524 . S
C1747 H1750 0.999 . S
C1748 H1718 0.950 . S
C1748 C1747 1.524 . S
C1748 C1749 1.415 . S
C1749 H1719 0.950 . S
C1749 C1744 1.363 . S
C1749 C1748 1.415 . S
H1750 C1747 0.999 . S
H1751 C1732 0.913 . S
H1752 C1770 0.951 . S
H1753 C1772 0.951 . S
H1754 C1774 0.950 . S
H1755 C1775 0.950 . S
H1756 C1777 0.950 . S
H1757 C1780 0.950 . S
H1758 C1781 0.950 . S
H1759 C1783 0.950 . S
H1760 C1784 0.950 . S
H1761 C1785 0.951 . S
H1762 C1787 0.951 . S
H1763 C1789 0.950 . S
H1764 C1790 0.950 . S
H1765 C1792 0.950 . S
H1766 C1795 0.950 . S
H1767 C1796 0.950 . S
H1768 C1798 0.950 . S
H1769 C1799 0.950 . S
C1770 H1752 0.951 . S
C1770 C1771 1.366 . S
C1770 C1772 1.388 . S
C1771 C1770 1.366 . S
C1771 C1775 1.385 . S
C1772 H1753 0.951 . S
C1772 C1770 1.388 . S
C1772 C1773 1.366 . S
C1773 C1772 1.366 . S
C1773 C1774 1.414 . S
C1773 C1776 1.499 . S
C1774 H1754 0.950 . S
C1774 C1773 1.414 . S
C1774 C1775 1.374 . S
C1775 H1755 0.950 . S
C1775 C1771 1.385 . S
C1775 C1774 1.374 . S
C1776 C1773 1.499 . S
C1776 C1777 1.373 . S
C1776 C1778 1.389 1_556 S
C1777 H1756 0.950 . S
C1777 C1776 1.373 . S
C1777 C1793 1.377 . S
C1778 C1776 1.389 1_554 S
C1778 C1779 1.524 . S
C1778 C1792 1.377 . S
C1779 C1778 1.524 . S
C1779 C1780 1.397 1_554 S
C1779 C1784 1.363 . S
C1780 H1757 0.950 . S
C1780 C1779 1.397 1_556 S
C1780 C1781 1.334 . S
C1781 H1758 0.950 . S
C1781 C1780 1.334 . S
C1781 C1782 1.281 1_556 S
C1782 C1781 1.281 1_554 S
C1782 C1783 1.530 . S
C1782 H1801 0.913 1_554 S
C1783 H1759 0.950 . S
C1783 C1782 1.530 . S
C1783 C1784 1.415 . S
C1784 H1760 0.950 . S
C1784 C1779 1.363 . S
C1784 C1783 1.415 . S
C1785 H1761 0.951 . S
C1785 C1786 1.366 . S
C1785 C1787 1.388 . S
C1786 C1785 1.366 . S
C1786 C1790 1.385 . S
C1787 H1762 0.951 . S
C1787 C1785 1.388 . S
C1787 C1788 1.366 . S
C1788 C1787 1.366 . S
C1788 C1789 1.414 . S
C1788 C1791 1.499 . S
C1789 H1763 0.950 . S
C1789 C1788 1.414 . S
C1789 C1790 1.374 . S
C1790 H1764 0.950 . S
C1790 C1786 1.385 . S
C1790 C1789 1.374 . S
C1791 C1788 1.499 . S
C1791 C1792 1.373 . S
C1791 C1793 1.389 1_554 S
C1792 H1765 0.950 . S
C1792 C1778 1.377 . S
C1792 C1791 1.373 . S
C1793 C1777 1.377 . S
C1793 C1791 1.389 1_556 S
C1793 C1794 1.524 . S
C1794 C1793 1.524 . S
C1794 C1795 1.397 1_556 S
C1794 C1799 1.363 . S
C1795 H1766 0.950 . S
C1795 C1794 1.397 1_554 S
C1795 C1796 1.334 . S
C1796 H1767 0.950 . S
C1796 C1795 1.334 . S
C1796 C1797 1.281 1_554 S
C1797 C1796 1.281 1_556 S
C1797 C1798 1.530 . S
C1797 H1800 0.999 . S
C1798 H1768 0.950 . S
C1798 C1797 1.530 . S
C1798 C1799 1.415 . S
C1799 H1769 0.950 . S
C1799 C1794 1.363 . S
C1799 C1798 1.415 . S
H1800 C1797 0.999 . S
H1801 C1782 0.913 1_556 S
H1802 C1820 0.951 . S
H1803 C1822 0.951 . S
H1804 C1824 0.950 . S
H1805 C1825 0.950 . S
H1806 C1827 0.950 . S
H1807 C1830 0.950 . S
H1808 C1831 0.950 . S
H1809 C1833 0.950 . S
H1810 C1834 0.950 . S
H1811 C1835 0.951 . S
H1812 C1837 0.951 . S
H1813 C1839 0.950 . S
H1814 C1840 0.950 . S
H1815 C1842 0.950 . S
H1816 C1845 0.950 . S
H1817 C1846 0.950 . S
H1818 C1848 0.950 . S
H1819 C1849 0.950 . S
C1820 H1802 0.951 . S
C1820 C1821 1.366 . S
C1820 C1822 1.388 . S
C1821 C1820 1.366 . S
C1821 C1825 1.385 . S
C1822 H1803 0.951 . S
C1822 C1820 1.388 . S
C1822 C1823 1.366 . S
C1823 C1822 1.366 . S
C1823 C1824 1.414 . S
C1823 C1826 1.499 . S
C1824 H1804 0.950 . S
C1824 C1823 1.414 . S
C1824 C1825 1.374 . S
C1825 H1805 0.950 . S
C1825 C1821 1.385 . S
C1825 C1824 1.374 . S
C1826 C1823 1.499 . S
C1826 C1827 1.373 . S
C1826 C1828 1.389 . S
C1827 H1806 0.950 . S
C1827 C1826 1.373 . S
C1827 C1843 1.377 . S
C1828 C1826 1.389 . S
C1828 C1829 1.524 . S
C1828 C1842 1.377 . S
C1829 C1828 1.524 . S
C1829 C1830 1.397 . S
C1829 C1834 1.363 . S
C1830 H1807 0.950 . S
C1830 C1829 1.397 . S
C1830 C1831 1.334 . S
C1831 H1808 0.950 . S
C1831 C1830 1.334 . S
C1831 C1832 1.287 . S
C1832 C1831 1.287 . S
C1832 C1833 1.524 . S
C1832 H1851 0.913 . S
C1833 H1809 0.950 . S
C1833 C1832 1.524 . S
C1833 C1834 1.415 . S
C1834 H1810 0.950 . S
C1834 C1829 1.363 . S
C1834 C1833 1.415 . S
C1835 H1811 0.951 . S
C1835 C1836 1.366 . S
C1835 C1837 1.388 . S
C1836 C1835 1.366 . S
C1836 C1840 1.385 . S
C1837 H1812 0.951 . S
C1837 C1835 1.388 . S
C1837 C1838 1.366 . S
C1838 C1837 1.366 . S
C1838 C1839 1.414 . S
C1838 C1841 1.499 . S
C1839 H1813 0.950 . S
C1839 C1838 1.414 . S
C1839 C1840 1.374 . S
C1840 H1814 0.950 . S
C1840 C1836 1.385 . S
C1840 C1839 1.374 . S
C1841 C1838 1.499 . S
C1841 C1842 1.373 . S
C1841 C1843 1.389 . S
C1842 H1815 0.950 . S
C1842 C1828 1.377 . S
C1842 C1841 1.373 . S
C1843 C1827 1.377 . S
C1843 C1841 1.389 . S
C1843 C1844 1.524 . S
C1844 C1843 1.524 . S
C1844 C1845 1.397 . S
C1844 C1849 1.363 . S
C1845 H1816 0.950 . S
C1845 C1844 1.397 . S
C1845 C1846 1.334 . S
C1846 H1817 0.950 . S
C1846 C1845 1.334 . S
C1846 C1847 1.287 . S
C1847 C1846 1.287 . S
C1847 C1848 1.524 . S
C1847 H1850 0.999 . S
C1848 H1818 0.950 . S
C1848 C1847 1.524 . S
C1848 C1849 1.415 . S
C1849 H1819 0.950 . S
C1849 C1844 1.363 . S
C1849 C1848 1.415 . S
H1850 C1847 0.999 . S
H1851 C1832 0.913 . S
H1852 C1870 0.951 . S
H1853 C1872 0.951 . S
H1854 C1874 0.950 . S
H1855 C1875 0.950 . S
H1856 C1877 0.950 . S
H1857 C1880 0.950 . S
H1858 C1881 0.950 . S
H1859 C1883 0.950 . S
H1860 C1884 0.950 . S
H1861 C1885 0.951 . S
H1862 C1887 0.951 . S
H1863 C1889 0.950 . S
H1864 C1890 0.950 . S
H1865 C1892 0.950 . S
H1866 C1895 0.950 . S
H1867 C1896 0.950 . S
H1868 C1898 0.950 . S
H1869 C1899 0.950 . S
C1870 H1852 0.951 . S
C1870 C1871 1.366 . S
C1870 C1872 1.388 . S
C1871 C1870 1.366 . S
C1871 C1875 1.385 . S
C1872 H1853 0.951 . S
C1872 C1870 1.388 . S
C1872 C1873 1.366 . S
C1873 C1872 1.366 . S
C1873 C1874 1.414 . S
C1873 C1876 1.499 . S
C1874 H1854 0.950 . S
C1874 C1873 1.414 . S
C1874 C1875 1.374 . S
C1875 H1855 0.950 . S
C1875 C1871 1.385 . S
C1875 C1874 1.374 . S
C1876 C1873 1.499 . S
C1876 C1877 1.373 . S
C1876 C1878 1.389 . S
C1877 H1856 0.950 . S
C1877 C1876 1.373 . S
C1877 C1893 1.377 . S
C1878 C1876 1.389 . S
C1878 C1879 1.524 . S
C1878 C1892 1.377 . S
C1879 C1878 1.524 . S
C1879 C1880 1.397 . S
C1879 C1884 1.363 . S
C1880 H1857 0.950 . S
C1880 C1879 1.397 . S
C1880 C1881 1.334 . S
C1881 H1858 0.950 . S
C1881 C1880 1.334 . S
C1881 C1882 1.287 . S
C1882 C1881 1.287 . S
C1882 C1883 1.524 . S
C1882 H1901 0.913 . S
C1883 H1859 0.950 . S
C1883 C1882 1.524 . S
C1883 C1884 1.415 . S
C1884 H1860 0.950 . S
C1884 C1879 1.363 . S
C1884 C1883 1.415 . S
C1885 H1861 0.951 . S
C1885 C1886 1.366 . S
C1885 C1887 1.388 . S
C1886 C1885 1.366 . S
C1886 C1890 1.385 . S
C1887 H1862 0.951 . S
C1887 C1885 1.388 . S
C1887 C1888 1.366 . S
C1888 C1887 1.366 . S
C1888 C1889 1.414 . S
C1888 C1891 1.499 . S
C1889 H1863 0.950 . S
C1889 C1888 1.414 . S
C1889 C1890 1.374 . S
C1890 H1864 0.950 . S
C1890 C1886 1.385 . S
C1890 C1889 1.374 . S
C1891 C1888 1.499 . S
C1891 C1892 1.373 . S
C1891 C1893 1.389 . S
C1892 H1865 0.950 . S
C1892 C1878 1.377 . S
C1892 C1891 1.373 . S
C1893 C1877 1.377 . S
C1893 C1891 1.389 . S
C1893 C1894 1.524 . S
C1894 C1893 1.524 . S
C1894 C1895 1.397 . S
C1894 C1899 1.363 . S
C1895 H1866 0.950 . S
C1895 C1894 1.397 . S
C1895 C1896 1.334 . S
C1896 H1867 0.950 . S
C1896 C1895 1.334 . S
C1896 C1897 1.287 . S
C1897 C1896 1.287 . S
C1897 C1898 1.524 . S
C1897 H1900 0.999 . S
C1898 H1868 0.950 . S
C1898 C1897 1.524 . S
C1898 C1899 1.415 . S
C1899 H1869 0.950 . S
C1899 C1894 1.363 . S
C1899 C1898 1.415 . S
H1900 C1897 0.999 . S
H1901 C1882 0.913 . S
H1902 C1920 0.951 . S
H1903 C1922 0.951 . S
H1904 C1924 0.950 . S
H1905 C1925 0.950 . S
H1906 C1927 0.950 . S
H1907 C1930 0.950 . S
H1908 C1931 0.950 . S
H1909 C1933 0.950 . S
H1910 C1934 0.950 . S
H1911 C1935 0.951 . S
H1912 C1937 0.951 . S
H1913 C1939 0.950 . S
H1914 C1940 0.950 . S
H1915 C1942 0.950 . S
H1916 C1945 0.950 . S
H1917 C1946 0.950 . S
H1918 C1948 0.950 . S
H1919 C1949 0.950 . S
C1920 H1902 0.951 . S
C1920 C1921 1.366 . S
C1920 C1922 1.388 . S
C1921 C1920 1.366 . S
C1921 C1925 1.385 . S
C1922 H1903 0.951 . S
C1922 C1920 1.388 . S
C1922 C1923 1.366 . S
C1923 C1922 1.366 . S
C1923 C1924 1.414 . S
C1923 C1926 1.499 . S
C1924 H1904 0.950 . S
C1924 C1923 1.414 . S
C1924 C1925 1.374 . S
C1925 H1905 0.950 . S
C1925 C1921 1.385 . S
C1925 C1924 1.374 . S
C1926 C1923 1.499 . S
C1926 C1927 1.373 . S
C1926 C1928 1.389 . S
C1927 H1906 0.950 . S
C1927 C1926 1.373 . S
C1927 C1943 1.377 . S
C1928 C1926 1.389 . S
C1928 C1929 1.524 . S
C1928 C1942 1.377 . S
C1929 C1928 1.524 . S
C1929 C1930 1.397 . S
C1929 C1934 1.363 . S
C1930 H1907 0.950 . S
C1930 C1929 1.397 . S
C1930 C1931 1.334 . S
C1931 H1908 0.950 . S
C1931 C1930 1.334 . S
C1931 C1932 1.287 . S
C1932 C1931 1.287 . S
C1932 C1933 1.524 . S
C1932 H1951 0.913 . S
C1933 H1909 0.950 . S
C1933 C1932 1.524 . S
C1933 C1934 1.415 . S
C1934 H1910 0.950 . S
C1934 C1929 1.363 . S
C1934 C1933 1.415 . S
C1935 H1911 0.951 . S
C1935 C1936 1.366 . S
C1935 C1937 1.388 . S
C1936 C1935 1.366 . S
C1936 C1940 1.385 . S
C1937 H1912 0.951 . S
C1937 C1935 1.388 . S
C1937 C1938 1.366 . S
C1938 C1937 1.366 . S
C1938 C1939 1.414 . S
C1938 C1941 1.499 . S
C1939 H1913 0.950 . S
C1939 C1938 1.414 . S
C1939 C1940 1.374 . S
C1940 H1914 0.950 . S
C1940 C1936 1.385 . S
C1940 C1939 1.374 . S
C1941 C1938 1.499 . S
C1941 C1942 1.373 . S
C1941 C1943 1.389 . S
C1942 H1915 0.950 . S
C1942 C1928 1.377 . S
C1942 C1941 1.373 . S
C1943 C1927 1.377 . S
C1943 C1941 1.389 . S
C1943 C1944 1.524 . S
C1944 C1943 1.524 . S
C1944 C1945 1.397 . S
C1944 C1949 1.363 . S
C1945 H1916 0.950 . S
C1945 C1944 1.397 . S
C1945 C1946 1.334 . S
C1946 H1917 0.950 . S
C1946 C1945 1.334 . S
C1946 C1947 1.287 . S
C1947 C1946 1.287 . S
C1947 C1948 1.524 . S
C1947 H1950 0.999 . S
C1948 H1918 0.950 . S
C1948 C1947 1.524 . S
C1948 C1949 1.415 . S
C1949 H1919 0.950 . S
C1949 C1944 1.363 . S
C1949 C1948 1.415 . S
H1950 C1947 0.999 . S
H1951 C1932 0.913 . S
H1952 C1970 0.951 . S
H1953 C1972 0.951 . S
H1954 C1974 0.950 . S
H1955 C1975 0.950 . S
H1956 C1977 0.950 . S
H1957 C1980 0.950 . S
H1958 C1981 0.950 . S
H1959 C1983 0.950 . S
H1960 C1984 0.950 . S
H1961 C1985 0.951 . S
H1962 C1987 0.951 . S
H1963 C1989 0.950 . S
H1964 C1990 0.950 . S
H1965 C1992 0.950 . S
H1966 C1995 0.950 . S
H1967 C1996 0.950 . S
H1968 C1998 0.950 . S
H1969 C1999 0.950 . S
C1970 H1952 0.951 . S
C1970 C1971 1.366 . S
C1970 C1972 1.388 . S
C1971 C1970 1.366 . S
C1971 C1975 1.385 . S
C1972 H1953 0.951 . S
C1972 C1970 1.388 . S
C1972 C1973 1.366 . S
C1973 C1972 1.366 . S
C1973 C1974 1.414 . S
C1973 C1976 1.499 . S
C1974 H1954 0.950 . S
C1974 C1973 1.414 . S
C1974 C1975 1.374 . S
C1975 H1955 0.950 . S
C1975 C1971 1.385 . S
C1975 C1974 1.374 . S
C1976 C1973 1.499 . S
C1976 C1977 1.373 1_556 S
C1976 C1978 1.389 1_556 S
C1977 H1956 0.950 . S
C1977 C1976 1.373 1_554 S
C1977 C1993 1.377 . S
C1978 C1976 1.389 1_554 S
C1978 C1979 1.524 1_554 S
C1978 C1992 1.377 . S
C1979 C1978 1.524 1_556 S
C1979 C1980 1.397 . S
C1979 C1984 1.363 1_556 S
C1980 H1957 0.950 . S
C1980 C1979 1.397 . S
C1980 C1981 1.334 . S
C1981 H1958 0.950 . S
C1981 C1980 1.334 . S
C1981 C1982 1.287 . S
C1982 C1981 1.287 . S
C1982 C1983 1.524 . S
C1982 H2001 0.913 . S
C1983 H1959 0.950 . S
C1983 C1982 1.524 . S
C1983 C1984 1.415 1_556 S
C1984 H1960 0.950 . S
C1984 C1979 1.363 1_554 S
C1984 C1983 1.415 1_554 S
C1985 H1961 0.951 . S
C1985 C1986 1.366 . S
C1985 C1987 1.388 . S
C1986 C1985 1.366 . S
C1986 C1990 1.385 . S
C1987 H1962 0.951 . S
C1987 C1985 1.388 . S
C1987 C1988 1.366 . S
C1988 C1987 1.366 . S
C1988 C1989 1.414 . S
C1988 C1991 1.499 . S
C1989 H1963 0.950 . S
C1989 C1988 1.414 . S
C1989 C1990 1.374 . S
C1990 H1964 0.950 . S
C1990 C1986 1.385 . S
C1990 C1989 1.374 . S
C1991 C1988 1.499 . S
C1991 C1992 1.373 . S
C1991 C1993 1.389 . S
C1992 H1965 0.950 . S
C1992 C1978 1.377 . S
C1992 C1991 1.373 . S
C1993 C1977 1.377 . S
C1993 C1991 1.389 . S
C1993 C1994 1.524 . S
C1994 C1993 1.524 . S
C1994 C1995 1.397 . S
C1994 C1999 1.363 . S
C1995 H1966 0.950 . S
C1995 C1994 1.397 . S
C1995 C1996 1.334 . S
C1996 H1967 0.950 . S
C1996 C1995 1.334 . S
C1996 C1997 1.287 . S
C1997 C1996 1.287 . S
C1997 C1998 1.524 . S
C1997 H2000 0.999 . S
C1998 H1968 0.950 . S
C1998 C1997 1.524 . S
C1998 C1999 1.415 . S
C1999 H1969 0.950 . S
C1999 C1994 1.363 . S
C1999 C1998 1.415 . S
H2000 C1997 0.999 . S
H2001 C1982 0.913 . S
H2002 C2020 0.951 . S
H2003 C2022 0.951 . S
H2004 C2024 0.950 . S
H2005 C2025 0.950 . S
H2006 C2027 0.950 . S
H2007 C2030 0.950 . S
H2008 C2031 0.950 . S
H2009 C2033 0.950 . S
H2010 C2034 0.950 . S
H2011 C2035 0.951 . S
H2012 C2037 0.951 . S
H2013 C2039 0.950 . S
H2014 C2040 0.950 . S
H2015 C2042 0.950 . S
H2016 C2045 0.950 . S
H2017 C2046 0.950 . S
H2018 C2048 0.950 . S
H2019 C2049 0.950 . S
C2020 H2002 0.951 . S
C2020 C2021 1.366 . S
C2020 C2022 1.388 . S
C2021 C2020 1.366 . S
C2021 C2025 1.385 . S
C2022 H2003 0.951 . S
C2022 C2020 1.388 . S
C2022 C2023 1.366 . S
C2023 C2022 1.366 . S
C2023 C2024 1.414 . S
C2023 C2026 1.499 . S
C2024 H2004 0.950 . S
C2024 C2023 1.414 . S
C2024 C2025 1.374 . S
C2025 H2005 0.950 . S
C2025 C2021 1.385 . S
C2025 C2024 1.374 . S
C2026 C2023 1.499 . S
C2026 C2027 1.373 . S
C2026 C2028 1.389 . S
C2027 H2006 0.950 . S
C2027 C2026 1.373 . S
C2027 C2043 1.377 . S
C2028 C2026 1.389 . S
C2028 C2029 1.524 . S
C2028 C2042 1.377 . S
C2029 C2028 1.524 . S
C2029 C2030 1.397 . S
C2029 C2034 1.363 . S
C2030 H2007 0.950 . S
C2030 C2029 1.397 . S
C2030 C2031 1.334 . S
C2031 H2008 0.950 . S
C2031 C2030 1.334 . S
C2031 C2032 1.287 . S
C2032 C2031 1.287 . S
C2032 C2033 1.524 . S
C2032 H2051 0.913 . S
C2033 H2009 0.950 . S
C2033 C2032 1.524 . S
C2033 C2034 1.415 . S
C2034 H2010 0.950 . S
C2034 C2029 1.363 . S
C2034 C2033 1.415 . S
C2035 H2011 0.951 . S
C2035 C2036 1.366 . S
C2035 C2037 1.388 . S
C2036 C2035 1.366 . S
C2036 C2040 1.385 . S
C2037 H2012 0.951 . S
C2037 C2035 1.388 . S
C2037 C2038 1.366 . S
C2038 C2037 1.366 . S
C2038 C2039 1.414 . S
C2038 C2041 1.499 . S
C2039 H2013 0.950 . S
C2039 C2038 1.414 . S
C2039 C2040 1.374 . S
C2040 H2014 0.950 . S
C2040 C2036 1.385 . S
C2040 C2039 1.374 . S
C2041 C2038 1.499 . S
C2041 C2042 1.373 . S
C2041 C2043 1.389 . S
C2042 H2015 0.950 . S
C2042 C2028 1.377 . S
C2042 C2041 1.373 . S
C2043 C2027 1.377 . S
C2043 C2041 1.389 . S
C2043 C2044 1.524 . S
C2044 C2043 1.524 . S
C2044 C2045 1.397 . S
C2044 C2049 1.363 . S
C2045 H2016 0.950 . S
C2045 C2044 1.397 . S
C2045 C2046 1.334 . S
C2046 H2017 0.950 . S
C2046 C2045 1.334 . S
C2046 C2047 1.287 . S
C2047 C2046 1.287 . S
C2047 C2048 1.524 . S
C2047 H2050 0.999 . S
C2048 H2018 0.950 . S
C2048 C2047 1.524 . S
C2048 C2049 1.415 . S
C2049 H2019 0.950 . S
C2049 C2044 1.363 . S
C2049 C2048 1.415 . S
H2050 C2047 0.999 . S
H2051 C2032 0.913 . S
H2052 C2070 0.951 . S
H2053 C2072 0.951 . S
H2054 C2074 0.950 . S
H2055 C2075 0.950 . S
H2056 C2077 0.950 . S
H2057 C2080 0.950 . S
H2058 C2081 0.950 . S
H2059 C2083 0.950 . S
H2060 C2084 0.950 . S
H2061 C2085 0.951 . S
H2062 C2087 0.951 . S
H2063 C2089 0.950 . S
H2064 C2090 0.950 . S
H2065 C2092 0.950 . S
H2066 C2095 0.950 . S
H2067 C2096 0.950 . S
H2068 C2098 0.950 . S
H2069 C2099 0.950 . S
C2070 H2052 0.951 . S
C2070 C2071 1.366 . S
C2070 C2072 1.388 . S
C2071 C2070 1.366 . S
C2071 C2075 1.385 . S
C2072 H2053 0.951 . S
C2072 C2070 1.388 . S
C2072 C2073 1.366 . S
C2073 C2072 1.366 . S
C2073 C2074 1.414 . S
C2073 C2076 1.499 . S
C2074 H2054 0.950 . S
C2074 C2073 1.414 . S
C2074 C2075 1.374 . S
C2075 H2055 0.950 . S
C2075 C2071 1.385 . S
C2075 C2074 1.374 . S
C2076 C2073 1.499 . S
C2076 C2077 1.373 . S
C2076 C2078 1.389 . S
C2077 H2056 0.950 . S
C2077 C2076 1.373 . S
C2077 C2093 1.377 . S
C2078 C2076 1.389 . S
C2078 C2079 1.524 . S
C2078 C2092 1.377 . S
C2079 C2078 1.524 . S
C2079 C2080 1.397 . S
C2079 C2084 1.363 . S
C2080 H2057 0.950 . S
C2080 C2079 1.397 . S
C2080 C2081 1.334 . S
C2081 H2058 0.950 . S
C2081 C2080 1.334 . S
C2081 C2082 1.287 . S
C2082 C2081 1.287 . S
C2082 C2083 1.524 . S
C2082 H2101 0.913 . S
C2083 H2059 0.950 . S
C2083 C2082 1.524 . S
C2083 C2084 1.415 . S
C2084 H2060 0.950 . S
C2084 C2079 1.363 . S
C2084 C2083 1.415 . S
C2085 H2061 0.951 . S
C2085 C2086 1.366 . S
C2085 C2087 1.388 . S
C2086 C2085 1.366 . S
C2086 C2090 1.385 . S
C2087 H2062 0.951 . S
C2087 C2085 1.388 . S
C2087 C2088 1.366 . S
C2088 C2087 1.366 . S
C2088 C2089 1.414 . S
C2088 C2091 1.499 . S
C2089 H2063 0.950 . S
C2089 C2088 1.414 . S
C2089 C2090 1.374 . S
C2090 H2064 0.950 . S
C2090 C2086 1.385 . S
C2090 C2089 1.374 . S
C2091 C2088 1.499 . S
C2091 C2092 1.373 . S
C2091 C2093 1.389 . S
C2092 H2065 0.950 . S
C2092 C2078 1.377 . S
C2092 C2091 1.373 . S
C2093 C2077 1.377 . S
C2093 C2091 1.389 . S
C2093 C2094 1.524 . S
C2094 C2093 1.524 . S
C2094 C2095 1.397 . S
C2094 C2099 1.363 . S
C2095 H2066 0.950 . S
C2095 C2094 1.397 . S
C2095 C2096 1.334 . S
C2096 H2067 0.950 . S
C2096 C2095 1.334 . S
C2096 C2097 1.287 . S
C2097 C2096 1.287 . S
C2097 C2098 1.524 . S
C2097 H2100 0.999 . S
C2098 H2068 0.950 . S
C2098 C2097 1.524 . S
C2098 C2099 1.415 . S
C2099 H2069 0.950 . S
C2099 C2094 1.363 . S
C2099 C2098 1.415 . S
H2100 C2097 0.999 . S
H2101 C2082 0.913 . S
H2102 C2120 0.951 . S
H2103 C2122 0.951 . S
H2104 C2124 0.950 . S
H2105 C2125 0.950 . S
H2106 C2127 0.950 . S
H2107 C2130 0.950 . S
H2108 C2131 0.950 . S
H2109 C2133 0.950 . S
H2110 C2134 0.950 . S
H2111 C2135 0.951 . S
H2112 C2137 0.951 . S
H2113 C2139 0.950 1_556 S
H2114 C2140 0.950 . S
H2115 C2142 0.950 . S
H2116 C2145 0.950 . S
H2117 C2146 0.950 . S
H2118 C2148 0.950 . S
H2119 C2149 0.950 . S
C2120 H2102 0.951 . S
C2120 C2121 1.366 . S
C2120 C2122 1.388 . S
C2121 C2120 1.366 . S
C2121 C2125 1.385 . S
C2122 H2103 0.951 . S
C2122 C2120 1.388 . S
C2122 C2123 1.366 . S
C2123 C2122 1.366 . S
C2123 C2124 1.414 . S
C2123 C2126 1.499 . S
C2124 H2104 0.950 . S
C2124 C2123 1.414 . S
C2124 C2125 1.374 . S
C2125 H2105 0.950 . S
C2125 C2121 1.385 . S
C2125 C2124 1.374 . S
C2126 C2123 1.499 . S
C2126 C2127 1.373 . S
C2126 C2128 1.389 . S
C2127 H2106 0.950 . S
C2127 C2126 1.373 . S
C2127 C2143 1.377 1_556 S
C2128 C2126 1.389 . S
C2128 C2129 1.524 . S
C2128 C2142 1.377 . S
C2129 C2128 1.524 . S
C2129 C2130 1.397 . S
C2129 C2134 1.363 . S
C2130 H2107 0.950 . S
C2130 C2129 1.397 . S
C2130 C2131 1.334 . S
C2131 H2108 0.950 . S
C2131 C2130 1.334 . S
C2131 C2132 1.287 . S
C2132 C2131 1.287 . S
C2132 C2133 1.524 . S
C2132 H2151 0.913 . S
C2133 H2109 0.950 . S
C2133 C2132 1.524 . S
C2133 C2134 1.415 . S
C2134 H2110 0.950 . S
C2134 C2129 1.363 . S
C2134 C2133 1.415 . S
C2135 H2111 0.951 . S
C2135 C2136 1.366 . S
C2135 C2137 1.388 . S
C2136 C2135 1.366 . S
C2136 C2140 1.385 . S
C2137 H2112 0.951 . S
C2137 C2135 1.388 . S
C2137 C2138 1.366 . S
C2138 C2137 1.366 . S
C2138 C2139 1.414 . S
C2138 C2141 1.499 . S
C2139 H2113 0.950 1_554 S
C2139 C2138 1.414 . S
C2139 C2140 1.374 . S
C2140 H2114 0.950 . S
C2140 C2136 1.385 . S
C2140 C2139 1.374 . S
C2141 C2138 1.499 . S
C2141 C2142 1.373 1_554 S
C2141 C2143 1.389 . S
C2142 H2115 0.950 . S
C2142 C2128 1.377 . S
C2142 C2141 1.373 1_556 S
C2143 C2127 1.377 1_554 S
C2143 C2141 1.389 . S
C2143 C2144 1.524 . S
C2144 C2143 1.524 . S
C2144 C2145 1.397 . S
C2144 C2149 1.363 . S
C2145 H2116 0.950 . S
C2145 C2144 1.397 . S
C2145 C2146 1.334 . S
C2146 H2117 0.950 . S
C2146 C2145 1.334 . S
C2146 C2147 1.287 . S
C2147 C2146 1.287 . S
C2147 C2148 1.524 . S
C2147 H2150 0.999 . S
C2148 H2118 0.950 . S
C2148 C2147 1.524 . S
C2148 C2149 1.415 . S
C2149 H2119 0.950 . S
C2149 C2144 1.363 . S
C2149 C2148 1.415 . S
H2150 C2147 0.999 . S
H2151 C2132 0.913 . S
H2152 C2170 0.951 . S
H2153 C2172 0.951 . S
H2154 C2174 0.950 1_556 S
H2155 C2175 0.950 . S
H2156 C2177 0.950 . S
H2157 C2180 0.950 . S
H2158 C2181 0.950 . S
H2159 C2183 0.950 . S
H2160 C2184 0.950 . S
H2161 C2185 0.951 . S
H2162 C2187 0.951 . S
H2163 C2189 0.950 . S
H2164 C2190 0.950 . S
H2165 C2192 0.950 . S
H2166 C2195 0.950 . S
H2167 C2196 0.950 . S
H2168 C2198 0.950 . S
H2169 C2199 0.950 . S
C2170 H2152 0.951 . S
C2170 C2171 1.366 . S
C2170 C2172 1.388 . S
C2171 C2170 1.366 . S
C2171 C2175 1.385 . S
C2172 H2153 0.951 . S
C2172 C2170 1.388 . S
C2172 C2173 1.366 . S
C2173 C2172 1.366 . S
C2173 C2174 1.414 . S
C2173 C2176 1.499 . S
C2174 H2154 0.950 1_554 S
C2174 C2173 1.414 . S
C2174 C2175 1.374 . S
C2175 H2155 0.950 . S
C2175 C2171 1.385 . S
C2175 C2174 1.374 . S
C2176 C2173 1.499 . S
C2176 C2177 1.373 1_554 S
C2176 C2178 1.389 1_554 S
C2177 H2156 0.950 . S
C2177 C2176 1.373 1_556 S
C2177 C2193 1.377 . S
C2178 C2176 1.389 1_556 S
C2178 C2179 1.524 . S
C2178 C2192 1.377 . S
C2179 C2178 1.524 . S
C2179 C2180 1.397 . S
C2179 C2184 1.363 1_556 S
C2180 H2157 0.950 . S
C2180 C2179 1.397 . S
C2180 C2181 1.334 . S
C2181 H2158 0.950 . S
C2181 C2180 1.334 . S
C2181 C2182 1.287 1_556 S
C2182 C2181 1.287 1_554 S
C2182 C2183 1.524 . S
C2182 H2201 0.913 . S
C2183 H2159 0.950 . S
C2183 C2182 1.524 . S
C2183 C2184 1.415 . S
C2184 H2160 0.950 . S
C2184 C2179 1.363 1_554 S
C2184 C2183 1.415 . S
C2185 H2161 0.951 . S
C2185 C2186 1.366 . S
C2185 C2187 1.388 . S
C2186 C2185 1.366 . S
C2186 C2190 1.385 . S
C2187 H2162 0.951 . S
C2187 C2185 1.388 . S
C2187 C2188 1.366 . S
C2188 C2187 1.366 . S
C2188 C2189 1.414 . S
C2188 C2191 1.499 . S
C2189 H2163 0.950 . S
C2189 C2188 1.414 . S
C2189 C2190 1.374 . S
C2190 H2164 0.950 . S
C2190 C2186 1.385 . S
C2190 C2189 1.374 . S
C2191 C2188 1.499 . S
C2191 C2192 1.373 . S
C2191 C2193 1.389 . S
C2192 H2165 0.950 . S
C2192 C2178 1.377 . S
C2192 C2191 1.373 . S
C2193 C2177 1.377 . S
C2193 C2191 1.389 . S
C2193 C2194 1.524 . S
C2194 C2193 1.524 . S
C2194 C2195 1.397 . S
C2194 C2199 1.363 . S
C2195 H2166 0.950 . S
C2195 C2194 1.397 . S
C2195 C2196 1.334 . S
C2196 H2167 0.950 . S
C2196 C2195 1.334 . S
C2196 C2197 1.287 . S
C2197 C2196 1.287 . S
C2197 C2198 1.524 . S
C2197 H2200 0.999 . S
C2198 H2168 0.950 . S
C2198 C2197 1.524 . S
C2198 C2199 1.415 . S
C2199 H2169 0.950 . S
C2199 C2194 1.363 . S
C2199 C2198 1.415 . S
H2200 C2197 0.999 . S
H2201 C2182 0.913 . S
H2202 C2220 0.951 . S
H2203 C2222 0.951 . S
H2204 C2224 0.950 . S
H2205 C2225 0.950 . S
H2206 C2227 0.950 . S
H2207 C2230 0.950 . S
H2208 C2231 0.950 . S
H2209 C2233 0.950 . S
H2210 C2234 0.950 . S
H2211 C2235 0.951 . S
H2212 C2237 0.951 . S
H2213 C2239 0.950 . S
H2214 C2240 0.950 . S
H2215 C2242 0.950 . S
H2216 C2245 0.950 . S
H2217 C2246 0.950 . S
H2218 C2248 0.950 . S
H2219 C2249 0.950 . S
C2220 H2202 0.951 . S
C2220 C2221 1.366 . S
C2220 C2222 1.388 . S
C2221 C2220 1.366 . S
C2221 C2225 1.385 . S
C2222 H2203 0.951 . S
C2222 C2220 1.388 . S
C2222 C2223 1.366 . S
C2223 C2222 1.366 . S
C2223 C2224 1.414 . S
C2223 C2226 1.499 . S
C2224 H2204 0.950 . S
C2224 C2223 1.414 . S
C2224 C2225 1.374 . S
C2225 H2205 0.950 . S
C2225 C2221 1.385 . S
C2225 C2224 1.374 . S
C2226 C2223 1.499 . S
C2226 C2227 1.373 . S
C2226 C2228 1.389 . S
C2227 H2206 0.950 . S
C2227 C2226 1.373 . S
C2227 C2243 1.377 . S
C2228 C2226 1.389 . S
C2228 C2229 1.524 . S
C2228 C2242 1.377 . S
C2229 C2228 1.524 . S
C2229 C2230 1.397 . S
C2229 C2234 1.363 . S
C2230 H2207 0.950 . S
C2230 C2229 1.397 . S
C2230 C2231 1.334 . S
C2231 H2208 0.950 . S
C2231 C2230 1.334 . S
C2231 C2232 1.287 . S
C2232 C2231 1.287 . S
C2232 C2233 1.524 . S
C2232 H2251 0.913 . S
C2233 H2209 0.950 . S
C2233 C2232 1.524 . S
C2233 C2234 1.415 . S
C2234 H2210 0.950 . S
C2234 C2229 1.363 . S
C2234 C2233 1.415 . S
C2235 H2211 0.951 . S
C2235 C2236 1.366 . S
C2235 C2237 1.388 . S
C2236 C2235 1.366 . S
C2236 C2240 1.385 . S
C2237 H2212 0.951 . S
C2237 C2235 1.388 . S
C2237 C2238 1.366 . S
C2238 C2237 1.366 . S
C2238 C2239 1.414 . S
C2238 C2241 1.499 . S
C2239 H2213 0.950 . S
C2239 C2238 1.414 . S
C2239 C2240 1.374 . S
C2240 H2214 0.950 . S
C2240 C2236 1.385 . S
C2240 C2239 1.374 . S
C2241 C2238 1.499 . S
C2241 C2242 1.373 . S
C2241 C2243 1.389 . S
C2242 H2215 0.950 . S
C2242 C2228 1.377 . S
C2242 C2241 1.373 . S
C2243 C2227 1.377 . S
C2243 C2241 1.389 . S
C2243 C2244 1.524 . S
C2244 C2243 1.524 . S
C2244 C2245 1.397 . S
C2244 C2249 1.363 . S
C2245 H2216 0.950 . S
C2245 C2244 1.397 . S
C2245 C2246 1.334 . S
C2246 H2217 0.950 . S
C2246 C2245 1.334 . S
C2246 C2247 1.287 . S
C2247 C2246 1.287 . S
C2247 C2248 1.524 . S
C2247 H2250 0.999 . S
C2248 H2218 0.950 . S
C2248 C2247 1.524 . S
C2248 C2249 1.415 . S
C2249 H2219 0.950 . S
C2249 C2244 1.363 . S
C2249 C2248 1.415 . S
H2250 C2247 0.999 . S
H2251 C2232 0.913 . S
H2252 C2270 0.951 . S
H2253 C2272 0.951 . S
H2254 C2274 0.950 . S
H2255 C2275 0.950 . S
H2256 C2277 0.950 . S
H2257 C2280 0.950 . S
H2258 C2281 0.950 . S
H2259 C2283 0.950 . S
H2260 C2284 0.950 . S
H2261 C2285 0.951 . S
H2262 C2287 0.951 . S
H2263 C2289 0.950 . S
H2264 C2290 0.950 . S
H2265 C2292 0.950 . S
H2266 C2295 0.950 . S
H2267 C2296 0.950 . S
H2268 C2298 0.950 . S
H2269 C2299 0.950 . S
C2270 H2252 0.951 . S
C2270 C2271 1.366 . S
C2270 C2272 1.388 . S
C2271 C2270 1.366 . S
C2271 C2275 1.385 . S
C2272 H2253 0.951 . S
C2272 C2270 1.388 . S
C2272 C2273 1.366 . S
C2273 C2272 1.366 . S
C2273 C2274 1.414 . S
C2273 C2276 1.499 . S
C2274 H2254 0.950 . S
C2274 C2273 1.414 . S
C2274 C2275 1.374 . S
C2275 H2255 0.950 . S
C2275 C2271 1.385 . S
C2275 C2274 1.374 . S
C2276 C2273 1.499 . S
C2276 C2277 1.373 . S
C2276 C2278 1.389 . S
C2277 H2256 0.950 . S
C2277 C2276 1.373 . S
C2277 C2293 1.377 . S
C2278 C2276 1.389 . S
C2278 C2279 1.524 . S
C2278 C2292 1.377 . S
C2279 C2278 1.524 . S
C2279 C2280 1.397 . S
C2279 C2284 1.363 . S
C2280 H2257 0.950 . S
C2280 C2279 1.397 . S
C2280 C2281 1.334 . S
C2281 H2258 0.950 . S
C2281 C2280 1.334 . S
C2281 C2282 1.287 . S
C2282 C2281 1.287 . S
C2282 C2283 1.524 . S
C2282 H2301 0.913 . S
C2283 H2259 0.950 . S
C2283 C2282 1.524 . S
C2283 C2284 1.415 . S
C2284 H2260 0.950 . S
C2284 C2279 1.363 . S
C2284 C2283 1.415 . S
C2285 H2261 0.951 . S
C2285 C2286 1.366 . S
C2285 C2287 1.388 . S
C2286 C2285 1.366 . S
C2286 C2290 1.385 . S
C2287 H2262 0.951 . S
C2287 C2285 1.388 . S
C2287 C2288 1.366 . S
C2288 C2287 1.366 . S
C2288 C2289 1.414 . S
C2288 C2291 1.499 . S
C2289 H2263 0.950 . S
C2289 C2288 1.414 . S
C2289 C2290 1.374 . S
C2290 H2264 0.950 . S
C2290 C2286 1.385 . S
C2290 C2289 1.374 . S
C2291 C2288 1.499 . S
C2291 C2292 1.373 . S
C2291 C2293 1.389 . S
C2292 H2265 0.950 . S
C2292 C2278 1.377 . S
C2292 C2291 1.373 . S
C2293 C2277 1.377 . S
C2293 C2291 1.389 . S
C2293 C2294 1.524 . S
C2294 C2293 1.524 . S
C2294 C2295 1.397 . S
C2294 C2299 1.363 . S
C2295 H2266 0.950 . S
C2295 C2294 1.397 . S
C2295 C2296 1.334 . S
C2296 H2267 0.950 . S
C2296 C2295 1.334 . S
C2296 C2297 1.287 . S
C2297 C2296 1.287 . S
C2297 C2298 1.524 . S
C2297 H2300 0.999 . S
C2298 H2268 0.950 . S
C2298 C2297 1.524 . S
C2298 C2299 1.415 . S
C2299 H2269 0.950 . S
C2299 C2294 1.363 . S
C2299 C2298 1.415 . S
H2300 C2297 0.999 . S
H2301 C2282 0.913 . S
H2302 C2320 0.951 . S
H2303 C2322 0.951 1_554 S
H2304 C2324 0.950 . S
H2305 C2325 0.950 . S
H2306 C2327 0.950 . S
H2307 C2330 0.950 1_556 S
H2308 C2331 0.950 . S
H2309 C2333 0.950 . S
H2310 C2334 0.950 . S
H2311 C2335 0.951 . S
H2312 C2337 0.951 . S
H2313 C2339 0.950 . S
H2314 C2340 0.950 . S
H2315 C2342 0.950 . S
H2316 C2345 0.950 . S
H2317 C2346 0.950 . S
H2318 C2348 0.950 . S
H2319 C2349 0.950 . S
C2320 H2302 0.951 . S
C2320 C2321 1.366 . S
C2320 C2322 1.388 . S
C2321 C2320 1.366 . S
C2321 C2325 1.385 . S
C2322 H2303 0.951 1_556 S
C2322 C2320 1.388 . S
C2322 C2323 1.366 . S
C2323 C2322 1.366 . S
C2323 C2324 1.414 . S
C2323 C2326 1.499 . S
C2324 H2304 0.950 . S
C2324 C2323 1.414 . S
C2324 C2325 1.374 . S
C2325 H2305 0.950 . S
C2325 C2321 1.385 . S
C2325 C2324 1.374 . S
C2326 C2323 1.499 . S
C2326 C2327 1.373 . S
C2326 C2328 1.389 1_556 S
C2327 H2306 0.950 . S
C2327 C2326 1.373 . S
C2327 C2343 1.377 1_556 S
C2328 C2326 1.389 1_554 S
C2328 C2329 1.524 . S
C2328 C2342 1.377 . S
C2329 C2328 1.524 . S
C2329 C2330 1.397 . S
C2329 C2334 1.363 . S
C2330 H2307 0.950 1_554 S
C2330 C2329 1.397 . S
C2330 C2331 1.334 . S
C2331 H2308 0.950 . S
C2331 C2330 1.334 . S
C2331 C2332 1.287 . S
C2332 C2331 1.287 . S
C2332 C2333 1.524 . S
C2332 H2351 0.913 . S
C2333 H2309 0.950 . S
C2333 C2332 1.524 . S
C2333 C2334 1.415 . S
C2334 H2310 0.950 . S
C2334 C2329 1.363 . S
C2334 C2333 1.415 . S
C2335 H2311 0.951 . S
C2335 C2336 1.366 . S
C2335 C2337 1.388 . S
C2336 C2335 1.366 . S
C2336 C2340 1.385 . S
C2337 H2312 0.951 . S
C2337 C2335 1.388 . S
C2337 C2338 1.366 . S
C2338 C2337 1.366 . S
C2338 C2339 1.414 . S
C2338 C2341 1.499 . S
C2339 H2313 0.950 . S
C2339 C2338 1.414 . S
C2339 C2340 1.374 . S
C2340 H2314 0.950 . S
C2340 C2336 1.385 . S
C2340 C2339 1.374 . S
C2341 C2338 1.499 . S
C2341 C2342 1.373 . S
C2341 C2343 1.389 . S
C2342 H2315 0.950 . S
C2342 C2328 1.377 . S
C2342 C2341 1.373 . S
C2343 C2327 1.377 1_554 S
C2343 C2341 1.389 . S
C2343 C2344 1.524 . S
C2344 C2343 1.524 . S
C2344 C2345 1.397 . S
C2344 C2349 1.363 1_554 S
C2345 H2316 0.950 . S
C2345 C2344 1.397 . S
C2345 C2346 1.334 . S
C2346 H2317 0.950 . S
C2346 C2345 1.334 . S
C2346 C2347 1.287 1_554 S
C2347 C2346 1.287 1_556 S
C2347 C2348 1.524 . S
C2347 H2350 0.999 . S
C2348 H2318 0.950 . S
C2348 C2347 1.524 . S
C2348 C2349 1.415 . S
C2349 H2319 0.950 . S
C2349 C2344 1.363 1_556 S
C2349 C2348 1.415 . S
H2350 C2347 0.999 . S
H2351 C2332 0.913 . S
H2352 C2370 0.951 . S
H2353 C2372 0.951 . S
H2354 C2374 0.950 . S
H2355 C2375 0.950 . S
H2356 C2377 0.950 . S
H2357 C2380 0.950 . S
H2358 C2381 0.950 . S
H2359 C2383 0.950 . S
H2360 C2384 0.950 . S
H2361 C2385 0.951 . S
H2362 C2387 0.951 . S
H2363 C2389 0.950 . S
H2364 C2390 0.950 . S
H2365 C2392 0.950 . S
H2366 C2395 0.950 . S
H2367 C2396 0.950 . S
H2368 C2398 0.950 . S
H2369 C2399 0.950 . S
C2370 H2352 0.951 . S
C2370 C2371 1.366 . S
C2370 C2372 1.388 . S
C2371 C2370 1.366 . S
C2371 C2375 1.385 . S
C2372 H2353 0.951 . S
C2372 C2370 1.388 . S
C2372 C2373 1.366 . S
C2373 C2372 1.366 . S
C2373 C2374 1.414 . S
C2373 C2376 1.499 . S
C2374 H2354 0.950 . S
C2374 C2373 1.414 . S
C2374 C2375 1.374 . S
C2375 H2355 0.950 . S
C2375 C2371 1.385 . S
C2375 C2374 1.374 . S
C2376 C2373 1.499 . S
C2376 C2377 1.373 . S
C2376 C2378 1.389 . S
C2377 H2356 0.950 . S
C2377 C2376 1.373 . S
C2377 C2393 1.377 . S
C2378 C2376 1.389 . S
C2378 C2379 1.524 . S
C2378 C2392 1.377 . S
C2379 C2378 1.524 . S
C2379 C2380 1.397 . S
C2379 C2384 1.363 . S
C2380 H2357 0.950 . S
C2380 C2379 1.397 . S
C2380 C2381 1.334 . S
C2381 H2358 0.950 . S
C2381 C2380 1.334 . S
C2381 C2382 1.287 . S
C2382 C2381 1.287 . S
C2382 C2383 1.524 . S
C2382 H2401 0.913 . S
C2383 H2359 0.950 . S
C2383 C2382 1.524 . S
C2383 C2384 1.415 . S
C2384 H2360 0.950 . S
C2384 C2379 1.363 . S
C2384 C2383 1.415 . S
C2385 H2361 0.951 . S
C2385 C2386 1.366 . S
C2385 C2387 1.388 . S
C2386 C2385 1.366 . S
C2386 C2390 1.385 . S
C2387 H2362 0.951 . S
C2387 C2385 1.388 . S
C2387 C2388 1.366 . S
C2388 C2387 1.366 . S
C2388 C2389 1.414 . S
C2388 C2391 1.499 . S
C2389 H2363 0.950 . S
C2389 C2388 1.414 . S
C2389 C2390 1.374 . S
C2390 H2364 0.950 . S
C2390 C2386 1.385 . S
C2390 C2389 1.374 . S
C2391 C2388 1.499 . S
C2391 C2392 1.373 . S
C2391 C2393 1.389 . S
C2392 H2365 0.950 . S
C2392 C2378 1.377 . S
C2392 C2391 1.373 . S
C2393 C2377 1.377 . S
C2393 C2391 1.389 . S
C2393 C2394 1.524 . S
C2394 C2393 1.524 . S
C2394 C2395 1.397 . S
C2394 C2399 1.363 . S
C2395 H2366 0.950 . S
C2395 C2394 1.397 . S
C2395 C2396 1.334 . S
C2396 H2367 0.950 . S
C2396 C2395 1.334 . S
C2396 C2397 1.287 . S
C2397 C2396 1.287 . S
C2397 C2398 1.524 . S
C2397 H2400 0.999 . S
C2398 H2368 0.950 . S
C2398 C2397 1.524 . S
C2398 C2399 1.415 . S
C2399 H2369 0.950 . S
C2399 C2394 1.363 . S
C2399 C2398 1.415 . S
H2400 C2397 0.999 . S
H2401 C2382 0.913 . S
H2402 C2420 0.951 . S
H2403 C2422 0.951 . S
H2404 C2424 0.950 . S
H2405 C2425 0.950 . S
H2406 C2427 0.950 . S
H2407 C2430 0.950 . S
H2408 C2431 0.950 . S
H2409 C2433 0.950 . S
H2410 C2434 0.950 . S
H2411 C2435 0.951 . S
H2412 C2437 0.951 . S
H2413 C2439 0.950 . S
H2414 C2440 0.950 . S
H2415 C2442 0.950 . S
H2416 C2445 0.950 . S
H2417 C2446 0.950 . S
H2418 C2448 0.950 . S
H2419 C2449 0.950 . S
C2420 H2402 0.951 . S
C2420 C2421 1.366 . S
C2420 C2422 1.388 . S
C2421 C2420 1.366 . S
C2421 C2425 1.385 . S
C2422 H2403 0.951 . S
C2422 C2420 1.388 . S
C2422 C2423 1.366 . S
C2423 C2422 1.366 . S
C2423 C2424 1.414 . S
C2423 C2426 1.499 . S
C2424 H2404 0.950 . S
C2424 C2423 1.414 . S
C2424 C2425 1.374 . S
C2425 H2405 0.950 . S
C2425 C2421 1.385 . S
C2425 C2424 1.374 . S
C2426 C2423 1.499 . S
C2426 C2427 1.373 . S
C2426 C2428 1.389 1_554 S
C2427 H2406 0.950 . S
C2427 C2426 1.373 . S
C2427 C2443 1.377 1_554 S
C2428 C2426 1.389 1_556 S
C2428 C2429 1.524 . S
C2428 C2442 1.377 . S
C2429 C2428 1.524 . S
C2429 C2430 1.397 . S
C2429 C2434 1.363 . S
C2430 H2407 0.950 . S
C2430 C2429 1.397 . S
C2430 C2431 1.334 . S
C2431 H2408 0.950 . S
C2431 C2430 1.334 . S
C2431 C2432 1.287 . S
C2432 C2431 1.287 . S
C2432 C2433 1.524 . S
C2432 H2451 0.913 . S
C2433 H2409 0.950 . S
C2433 C2432 1.524 . S
C2433 C2434 1.415 . S
C2434 H2410 0.950 . S
C2434 C2429 1.363 . S
C2434 C2433 1.415 . S
C2435 H2411 0.951 . S
C2435 C2436 1.366 . S
C2435 C2437 1.388 . S
C2436 C2435 1.366 . S
C2436 C2440 1.385 . S
C2437 H2412 0.951 . S
C2437 C2435 1.388 . S
C2437 C2438 1.366 . S
C2438 C2437 1.366 . S
C2438 C2439 1.414 . S
C2438 C2441 1.499 . S
C2439 H2413 0.950 . S
C2439 C2438 1.414 . S
C2439 C2440 1.374 . S
C2440 H2414 0.950 . S
C2440 C2436 1.385 . S
C2440 C2439 1.374 . S
C2441 C2438 1.499 . S
C2441 C2442 1.373 . S
C2441 C2443 1.389 . S
C2442 H2415 0.950 . S
C2442 C2428 1.377 . S
C2442 C2441 1.373 . S
C2443 C2427 1.377 1_556 S
C2443 C2441 1.389 . S
C2443 C2444 1.524 1_556 S
C2444 C2443 1.524 1_554 S
C2444 C2445 1.397 . S
C2444 C2449 1.363 . S
C2445 H2416 0.950 . S
C2445 C2444 1.397 . S
C2445 C2446 1.334 . S
C2446 H2417 0.950 . S
C2446 C2445 1.334 . S
C2446 C2447 1.287 . S
C2447 C2446 1.287 . S
C2447 C2448 1.524 . S
C2447 H2450 0.999 . S
C2448 H2418 0.950 . S
C2448 C2447 1.524 . S
C2448 C2449 1.415 . S
C2449 H2419 0.950 . S
C2449 C2444 1.363 . S
C2449 C2448 1.415 . S
H2450 C2447 0.999 . S
H2451 C2432 0.913 . S
H2452 C2470 0.951 . S
H2453 C2472 0.951 . S
H2454 C2474 0.950 . S
H2455 C2475 0.950 . S
H2456 C2477 0.950 1_556 S
H2457 C2480 0.950 . S
H2458 C2481 0.950 . S
H2459 C2483 0.950 . S
H2460 C2484 0.950 . S
H2461 C2485 0.951 . S
H2462 C2487 0.951 . S
H2463 C2489 0.950 . S
H2464 C2490 0.950 . S
H2465 C2492 0.950 . S
H2466 C2495 0.950 . S
H2467 C2496 0.950 . S
H2468 C2498 0.950 . S
H2469 C2499 0.950 . S
C2470 H2452 0.951 . S
C2470 C2471 1.366 . S
C2470 C2472 1.388 . S
C2471 C2470 1.366 . S
C2471 C2475 1.385 . S
C2472 H2453 0.951 . S
C2472 C2470 1.388 . S
C2472 C2473 1.366 . S
C2473 C2472 1.366 . S
C2473 C2474 1.414 . S
C2473 C2476 1.499 . S
C2474 H2454 0.950 . S
C2474 C2473 1.414 . S
C2474 C2475 1.374 . S
C2475 H2455 0.950 . S
C2475 C2471 1.385 . S
C2475 C2474 1.374 . S
C2476 C2473 1.499 . S
C2476 C2477 1.373 . S
C2476 C2478 1.389 . S
C2477 H2456 0.950 1_554 S
C2477 C2476 1.373 . S
C2477 C2493 1.377 1_554 S
C2478 C2476 1.389 . S
C2478 C2479 1.524 . S
C2478 C2492 1.377 . S
C2479 C2478 1.524 . S
C2479 C2480 1.397 . S
C2479 C2484 1.363 . S
C2480 H2457 0.950 . S
C2480 C2479 1.397 . S
C2480 C2481 1.334 . S
C2481 H2458 0.950 . S
C2481 C2480 1.334 . S
C2481 C2482 1.287 . S
C2482 C2481 1.287 . S
C2482 C2483 1.524 . S
C2482 H2501 0.913 . S
C2483 H2459 0.950 . S
C2483 C2482 1.524 . S
C2483 C2484 1.415 . S
C2484 H2460 0.950 . S
C2484 C2479 1.363 . S
C2484 C2483 1.415 . S
C2485 H2461 0.951 . S
C2485 C2486 1.366 . S
C2485 C2487 1.388 . S
C2486 C2485 1.366 . S
C2486 C2490 1.385 . S
C2487 H2462 0.951 . S
C2487 C2485 1.388 . S
C2487 C2488 1.366 . S
C2488 C2487 1.366 . S
C2488 C2489 1.414 . S
C2488 C2491 1.499 . S
C2489 H2463 0.950 . S
C2489 C2488 1.414 . S
C2489 C2490 1.374 . S
C2490 H2464 0.950 . S
C2490 C2486 1.385 . S
C2490 C2489 1.374 . S
C2491 C2488 1.499 . S
C2491 C2492 1.373 1_556 S
C2491 C2493 1.389 . S
C2492 H2465 0.950 . S
C2492 C2478 1.377 . S
C2492 C2491 1.373 1_554 S
C2493 C2477 1.377 1_556 S
C2493 C2491 1.389 . S
C2493 C2494 1.524 . S
C2494 C2493 1.524 . S
C2494 C2495 1.397 . S
C2494 C2499 1.363 . S
C2495 H2466 0.950 . S
C2495 C2494 1.397 . S
C2495 C2496 1.334 . S
C2496 H2467 0.950 . S
C2496 C2495 1.334 . S
C2496 C2497 1.287 . S
C2497 C2496 1.287 . S
C2497 C2498 1.524 . S
C2497 H2500 0.999 . S
C2498 H2468 0.950 . S
C2498 C2497 1.524 . S
C2498 C2499 1.415 . S
C2499 H2469 0.950 . S
C2499 C2494 1.363 . S
C2499 C2498 1.415 . S
H2500 C2497 0.999 . S
H2501 C2482 0.913 . S
H2502 C2520 0.951 . S
H2503 C2522 0.951 . S
H2504 C2524 0.950 . S
H2505 C2525 0.950 . S
H2506 C2527 0.950 . S
H2507 C2530 0.950 . S
H2508 C2531 0.950 . S
H2509 C2533 0.950 . S
H2510 C2534 0.950 . S
H2511 C2535 0.951 . S
H2512 C2537 0.951 . S
H2513 C2539 0.950 . S
H2514 C2540 0.950 . S
H2515 C2542 0.950 . S
H2516 C2545 0.950 . S
H2517 C2546 0.950 . S
H2518 C2548 0.950 . S
H2519 C2549 0.950 . S
C2520 H2502 0.951 . S
C2520 C2521 1.366 . S
C2520 C2522 1.388 . S
C2521 C2520 1.366 . S
C2521 C2525 1.385 . S
C2522 H2503 0.951 . S
C2522 C2520 1.388 . S
C2522 C2523 1.366 . S
C2523 C2522 1.366 . S
C2523 C2524 1.414 . S
C2523 C2526 1.499 . S
C2524 H2504 0.950 . S
C2524 C2523 1.414 . S
C2524 C2525 1.374 . S
C2525 H2505 0.950 . S
C2525 C2521 1.385 . S
C2525 C2524 1.374 . S
C2526 C2523 1.499 . S
C2526 C2527 1.373 . S
C2526 C2528 1.389 . S
C2527 H2506 0.950 . S
C2527 C2526 1.373 . S
C2527 C2543 1.377 . S
C2528 C2526 1.389 . S
C2528 C2529 1.524 . S
C2528 C2542 1.377 . S
C2529 C2528 1.524 . S
C2529 C2530 1.397 . S
C2529 C2534 1.363 . S
C2530 H2507 0.950 . S
C2530 C2529 1.397 . S
C2530 C2531 1.334 . S
C2531 H2508 0.950 . S
C2531 C2530 1.334 . S
C2531 C2532 1.287 . S
C2532 C2531 1.287 . S
C2532 C2533 1.524 . S
C2532 H2551 0.913 . S
C2533 H2509 0.950 . S
C2533 C2532 1.524 . S
C2533 C2534 1.415 . S
C2534 H2510 0.950 . S
C2534 C2529 1.363 . S
C2534 C2533 1.415 . S
C2535 H2511 0.951 . S
C2535 C2536 1.366 . S
C2535 C2537 1.388 . S
C2536 C2535 1.366 . S
C2536 C2540 1.385 . S
C2537 H2512 0.951 . S
C2537 C2535 1.388 . S
C2537 C2538 1.366 . S
C2538 C2537 1.366 . S
C2538 C2539 1.414 . S
C2538 C2541 1.499 . S
C2539 H2513 0.950 . S
C2539 C2538 1.414 . S
C2539 C2540 1.374 . S
C2540 H2514 0.950 . S
C2540 C2536 1.385 . S
C2540 C2539 1.374 . S
C2541 C2538 1.499 . S
C2541 C2542 1.373 . S
C2541 C2543 1.389 . S
C2542 H2515 0.950 . S
C2542 C2528 1.377 . S
C2542 C2541 1.373 . S
C2543 C2527 1.377 . S
C2543 C2541 1.389 . S
C2543 C2544 1.524 . S
C2544 C2543 1.524 . S
C2544 C2545 1.397 . S
C2544 C2549 1.363 . S
C2545 H2516 0.950 . S
C2545 C2544 1.397 . S
C2545 C2546 1.334 . S
C2546 H2517 0.950 . S
C2546 C2545 1.334 . S
C2546 C2547 1.287 . S
C2547 C2546 1.287 . S
C2547 C2548 1.524 . S
C2547 H2550 0.999 . S
C2548 H2518 0.950 . S
C2548 C2547 1.524 . S
C2548 C2549 1.415 . S
C2549 H2519 0.950 . S
C2549 C2544 1.363 . S
C2549 C2548 1.415 . S
H2550 C2547 0.999 . S
H2551 C2532 0.913 . S
H2552 C2570 0.951 . S
H2553 C2572 0.951 . S
H2554 C2574 0.950 . S
H2555 C2575 0.950 . S
H2556 C2577 0.950 . S
H2557 C2580 0.950 . S
H2558 C2581 0.950 . S
H2559 C2583 0.950 . S
H2560 C2584 0.950 . S
H2561 C2585 0.951 . S
H2562 C2587 0.951 . S
H2563 C2589 0.950 . S
H2564 C2590 0.950 . S
H2565 C2592 0.950 . S
H2566 C2595 0.950 . S
H2567 C2596 0.950 . S
H2568 C2598 0.950 . S
H2569 C2599 0.950 . S
C2570 H2552 0.951 . S
C2570 C2571 1.366 . S
C2570 C2572 1.388 . S
C2571 C2570 1.366 . S
C2571 C2575 1.385 . S
C2572 H2553 0.951 . S
C2572 C2570 1.388 . S
C2572 C2573 1.366 . S
C2573 C2572 1.366 . S
C2573 C2574 1.414 . S
C2573 C2576 1.499 . S
C2574 H2554 0.950 . S
C2574 C2573 1.414 . S
C2574 C2575 1.374 . S
C2575 H2555 0.950 . S
C2575 C2571 1.385 . S
C2575 C2574 1.374 . S
C2576 C2573 1.499 . S
C2576 C2577 1.373 . S
C2576 C2578 1.389 . S
C2577 H2556 0.950 . S
C2577 C2576 1.373 . S
C2577 C2593 1.377 . S
C2578 C2576 1.389 . S
C2578 C2579 1.524 . S
C2578 C2592 1.377 . S
C2579 C2578 1.524 . S
C2579 C2580 1.397 . S
C2579 C2584 1.363 . S
C2580 H2557 0.950 . S
C2580 C2579 1.397 . S
C2580 C2581 1.334 . S
C2581 H2558 0.950 . S
C2581 C2580 1.334 . S
C2581 C2582 1.287 . S
C2582 C2581 1.287 . S
C2582 C2583 1.524 . S
C2582 H2601 0.913 . S
C2583 H2559 0.950 . S
C2583 C2582 1.524 . S
C2583 C2584 1.415 . S
C2584 H2560 0.950 . S
C2584 C2579 1.363 . S
C2584 C2583 1.415 . S
C2585 H2561 0.951 . S
C2585 C2586 1.366 . S
C2585 C2587 1.388 . S
C2586 C2585 1.366 . S
C2586 C2590 1.385 . S
C2587 H2562 0.951 . S
C2587 C2585 1.388 . S
C2587 C2588 1.366 . S
C2588 C2587 1.366 . S
C2588 C2589 1.414 . S
C2588 C2591 1.499 . S
C2589 H2563 0.950 . S
C2589 C2588 1.414 . S
C2589 C2590 1.374 . S
C2590 H2564 0.950 . S
C2590 C2586 1.385 . S
C2590 C2589 1.374 . S
C2591 C2588 1.499 . S
C2591 C2592 1.373 . S
C2591 C2593 1.389 . S
C2592 H2565 0.950 . S
C2592 C2578 1.377 . S
C2592 C2591 1.373 . S
C2593 C2577 1.377 . S
C2593 C2591 1.389 . S
C2593 C2594 1.524 . S
C2594 C2593 1.524 . S
C2594 C2595 1.397 . S
C2594 C2599 1.363 . S
C2595 H2566 0.950 . S
C2595 C2594 1.397 . S
C2595 C2596 1.334 . S
C2596 H2567 0.950 . S
C2596 C2595 1.334 . S
C2596 C2597 1.287 . S
C2597 C2596 1.287 . S
C2597 C2598 1.524 . S
C2597 H2600 0.999 . S
C2598 H2568 0.950 . S
C2598 C2597 1.524 . S
C2598 C2599 1.415 . S
C2599 H2569 0.950 . S
C2599 C2594 1.363 . S
C2599 C2598 1.415 . S
H2600 C2597 0.999 . S
H2601 C2582 0.913 . S
H2602 C2620 0.951 . S
H2603 C2622 0.951 1_554 S
H2604 C2624 0.950 . S
H2605 C2625 0.950 . S
H2606 C2627 0.950 . S
H2607 C2630 0.950 1_556 S
H2608 C2631 0.950 1_556 S
H2609 C2633 0.950 . S
H2610 C2634 0.950 . S
H2611 C2635 0.951 . S
H2612 C2637 0.951 . S
H2613 C2639 0.950 . S
H2614 C2640 0.950 . S
H2615 C2642 0.950 . S
H2616 C2645 0.950 . S
H2617 C2646 0.950 . S
H2618 C2648 0.950 . S
H2619 C2649 0.950 . S
C2620 H2602 0.951 . S
C2620 C2621 1.366 . S
C2620 C2622 1.388 . S
C2621 C2620 1.366 . S
C2621 C2625 1.385 . S
C2622 H2603 0.951 1_556 S
C2622 C2620 1.388 . S
C2622 C2623 1.366 . S
C2623 C2622 1.366 . S
C2623 C2624 1.414 . S
C2623 C2626 1.499 . S
C2624 H2604 0.950 . S
C2624 C2623 1.414 . S
C2624 C2625 1.374 . S
C2625 H2605 0.950 . S
C2625 C2621 1.385 . S
C2625 C2624 1.374 . S
C2626 C2623 1.499 . S
C2626 C2627 1.373 . S
C2626 C2628 1.389 1_556 S
C2627 H2606 0.950 . S
C2627 C2626 1.373 . S
C2627 C2643 1.377 1_556 S
C2628 C2626 1.389 1_554 S
C2628 C2629 1.524 . S
C2628 C2642 1.377 . S
C2629 C2628 1.524 . S
C2629 C2630 1.397 . S
C2629 C2634 1.363 . S
C2630 H2607 0.950 1_554 S
C2630 C2629 1.397 . S
C2630 C2631 1.334 . S
C2631 H2608 0.950 1_554 S
C2631 C2630 1.334 . S
C2631 C2632 1.287 . S
C2632 C2631 1.287 . S
C2632 C2633 1.524 . S
C2632 H2651 0.913 . S
C2633 H2609 0.950 . S
C2633 C2632 1.524 . S
C2633 C2634 1.415 . S
C2634 H2610 0.950 . S
C2634 C2629 1.363 . S
C2634 C2633 1.415 . S
C2635 H2611 0.951 . S
C2635 C2636 1.366 . S
C2635 C2637 1.388 . S
C2636 C2635 1.366 . S
C2636 C2640 1.385 . S
C2637 H2612 0.951 . S
C2637 C2635 1.388 . S
C2637 C2638 1.366 . S
C2638 C2637 1.366 . S
C2638 C2639 1.414 . S
C2638 C2641 1.499 . S
C2639 H2613 0.950 . S
C2639 C2638 1.414 . S
C2639 C2640 1.374 . S
C2640 H2614 0.950 . S
C2640 C2636 1.385 . S
C2640 C2639 1.374 . S
C2641 C2638 1.499 . S
C2641 C2642 1.373 . S
C2641 C2643 1.389 . S
C2642 H2615 0.950 . S
C2642 C2628 1.377 . S
C2642 C2641 1.373 . S
C2643 C2627 1.377 1_554 S
C2643 C2641 1.389 . S
C2643 C2644 1.524 . S
C2644 C2643 1.524 . S
C2644 C2645 1.397 . S
C2644 C2649 1.363 1_554 S
C2645 H2616 0.950 . S
C2645 C2644 1.397 . S
C2645 C2646 1.334 . S
C2646 H2617 0.950 . S
C2646 C2645 1.334 . S
C2646 C2647 1.289 . S
C2647 C2646 1.289 . S
C2647 C2648 1.522 1_554 S
C2647 H2650 0.999 1_554 S
C2648 H2618 0.950 . S
C2648 C2647 1.522 1_556 S
C2648 C2649 1.415 . S
C2649 H2619 0.950 . S
C2649 C2644 1.363 1_556 S
C2649 C2648 1.415 . S
H2650 C2647 0.999 1_556 S
H2651 C2632 0.913 . S
H2652 C2670 0.951 . S
H2653 C2672 0.951 . S
H2654 C2674 0.950 . S
H2655 C2675 0.950 . S
H2656 C2677 0.950 1_554 S
H2657 C2680 0.950 . S
H2658 C2681 0.950 . S
H2659 C2683 0.950 . S
H2660 C2684 0.950 . S
H2661 C2685 0.951 . S
H2662 C2687 0.951 . S
H2663 C2689 0.946 1_556 S
H2664 C2690 0.950 . S
H2665 C2692 0.950 . S
H2666 C2695 0.950 . S
H2667 C2696 0.950 . S
H2668 C2698 0.950 . S
H2669 C2699 0.950 . S
C2670 H2652 0.951 . S
C2670 C2671 1.366 . S
C2670 C2672 1.388 . S
C2671 C2670 1.366 . S
C2671 C2675 1.385 . S
C2672 H2653 0.951 . S
C2672 C2670 1.388 . S
C2672 C2673 1.366 . S
C2673 C2672 1.366 . S
C2673 C2674 1.414 . S
C2673 C2676 1.499 . S
C2674 H2654 0.950 . S
C2674 C2673 1.414 . S
C2674 C2675 1.374 . S
C2675 H2655 0.950 . S
C2675 C2671 1.385 . S
C2675 C2674 1.374 . S
C2676 C2673 1.499 . S
C2676 C2677 1.373 . S
C2676 C2678 1.389 . S
C2677 H2656 0.950 1_556 S
C2677 C2676 1.373 . S
C2677 C2693 1.377 1_556 S
C2678 C2676 1.389 . S
C2678 C2679 1.524 . S
C2678 C2692 1.377 . S
C2679 C2678 1.524 . S
C2679 C2680 1.397 . S
C2679 C2684 1.363 . S
C2680 H2657 0.950 . S
C2680 C2679 1.397 . S
C2680 C2681 1.334 . S
C2681 H2658 0.950 . S
C2681 C2680 1.334 . S
C2681 C2682 1.287 . S
C2682 C2681 1.287 . S
C2682 C2683 1.524 . S
C2682 H2701 0.913 . S
C2683 H2659 0.950 . S
C2683 C2682 1.524 . S
C2683 C2684 1.415 . S
C2684 H2660 0.950 . S
C2684 C2679 1.363 . S
C2684 C2683 1.415 . S
C2685 H2661 0.951 . S
C2685 C2686 1.366 . S
C2685 C2687 1.388 . S
C2686 C2685 1.366 . S
C2686 C2690 1.385 . S
C2687 H2662 0.951 . S
C2687 C2685 1.388 . S
C2687 C2688 1.366 . S
C2688 C2687 1.366 . S
C2688 C2689 1.414 . S
C2688 C2691 1.499 . S
C2689 H2663 0.946 1_554 S
C2689 C2688 1.414 . S
C2689 C2690 1.374 . S
C2690 H2664 0.950 . S
C2690 C2686 1.385 . S
C2690 C2689 1.374 . S
C2691 C2688 1.499 . S
C2691 C2692 1.373 1_554 S
C2691 C2693 1.389 . S
C2692 H2665 0.950 . S
C2692 C2678 1.377 . S
C2692 C2691 1.373 1_556 S
C2693 C2677 1.377 1_554 S
C2693 C2691 1.389 . S
C2693 C2694 1.524 . S
C2694 C2693 1.524 . S
C2694 C2695 1.397 . S
C2694 C2699 1.363 . S
C2695 H2666 0.950 . S
C2695 C2694 1.397 . S
C2695 C2696 1.334 . S
C2696 H2667 0.950 . S
C2696 C2695 1.334 . S
C2696 C2697 1.287 . S
C2697 C2696 1.287 . S
C2697 C2698 1.524 . S
C2697 H2700 0.999 . S
C2698 H2668 0.950 . S
C2698 C2697 1.524 . S
C2698 C2699 1.415 . S
C2699 H2669 0.950 . S
C2699 C2694 1.363 . S
C2699 C2698 1.415 . S
H2700 C2697 0.999 . S
H2701 C2682 0.913 . S
H2702 C2720 0.951 . S
H2703 C2722 0.951 . S
H2704 C2724 0.950 . S
H2705 C2725 0.950 . S
H2706 C2727 0.950 . S
H2707 C2730 0.950 . S
H2708 C2731 0.950 . S
H2709 C2733 0.950 . S
H2710 C2734 0.950 . S
H2711 C2735 0.951 . S
H2712 C2737 0.951 . S
H2713 C2739 0.950 . S
H2714 C2740 0.950 . S
H2715 C2742 0.950 . S
H2716 C2745 0.950 . S
H2717 C2746 0.950 . S
H2718 C2748 0.950 . S
H2719 C2749 0.950 . S
C2720 H2702 0.951 . S
C2720 C2721 1.366 . S
C2720 C2722 1.388 . S
C2721 C2720 1.366 . S
C2721 C2725 1.385 . S
C2722 H2703 0.951 . S
C2722 C2720 1.388 . S
C2722 C2723 1.366 . S
C2723 C2722 1.366 . S
C2723 C2724 1.414 . S
C2723 C2726 1.499 . S
C2724 H2704 0.950 . S
C2724 C2723 1.414 . S
C2724 C2725 1.374 . S
C2725 H2705 0.950 . S
C2725 C2721 1.385 . S
C2725 C2724 1.374 . S
C2726 C2723 1.499 . S
C2726 C2727 1.373 . S
C2726 C2728 1.389 . S
C2727 H2706 0.950 . S
C2727 C2726 1.373 . S
C2727 C2743 1.377 . S
C2728 C2726 1.389 . S
C2728 C2729 1.524 . S
C2728 C2742 1.377 . S
C2729 C2728 1.524 . S
C2729 C2730 1.397 . S
C2729 C2734 1.363 . S
C2730 H2707 0.950 . S
C2730 C2729 1.397 . S
C2730 C2731 1.334 . S
C2731 H2708 0.950 . S
C2731 C2730 1.334 . S
C2731 C2732 1.287 . S
C2732 C2731 1.287 . S
C2732 C2733 1.524 . S
C2732 H2751 0.913 . S
C2733 H2709 0.950 . S
C2733 C2732 1.524 . S
C2733 C2734 1.415 . S
C2734 H2710 0.950 . S
C2734 C2729 1.363 . S
C2734 C2733 1.415 . S
C2735 H2711 0.951 . S
C2735 C2736 1.366 . S
C2735 C2737 1.388 . S
C2736 C2735 1.366 . S
C2736 C2740 1.385 . S
C2737 H2712 0.951 . S
C2737 C2735 1.388 . S
C2737 C2738 1.366 . S
C2738 C2737 1.366 . S
C2738 C2739 1.414 . S
C2738 C2741 1.499 . S
C2739 H2713 0.950 . S
C2739 C2738 1.414 . S
C2739 C2740 1.374 . S
C2740 H2714 0.950 . S
C2740 C2736 1.385 . S
C2740 C2739 1.374 . S
C2741 C2738 1.499 . S
C2741 C2742 1.373 . S
C2741 C2743 1.389 . S
C2742 H2715 0.950 . S
C2742 C2728 1.377 . S
C2742 C2741 1.373 . S
C2743 C2727 1.377 . S
C2743 C2741 1.389 . S
C2743 C2744 1.524 . S
C2744 C2743 1.524 . S
C2744 C2745 1.397 . S
C2744 C2749 1.363 . S
C2745 H2716 0.950 . S
C2745 C2744 1.397 . S
C2745 C2746 1.334 . S
C2746 H2717 0.950 . S
C2746 C2745 1.334 . S
C2746 C2747 1.287 . S
C2747 C2746 1.287 . S
C2747 C2748 1.524 . S
C2747 H2750 0.999 . S
C2748 H2718 0.950 . S
C2748 C2747 1.524 . S
C2748 C2749 1.415 . S
C2749 H2719 0.950 . S
C2749 C2744 1.363 . S
C2749 C2748 1.415 . S
H2750 C2747 0.999 . S
H2751 C2732 0.913 . S
H2752 C2770 0.951 . S
H2753 C2772 0.951 . S
H2754 C2774 0.950 . S
H2755 C2775 0.950 . S
H2756 C2777 0.950 . S
H2757 C2780 0.950 . S
H2758 C2781 0.950 . S
H2759 C2783 0.950 . S
H2760 C2784 0.950 . S
H2761 C2785 0.951 . S
H2762 C2787 0.951 . S
H2763 C2789 0.950 . S
H2764 C2790 0.950 . S
H2765 C2792 0.950 . S
H2766 C2795 0.950 . S
H2767 C2796 0.950 . S
H2768 C2798 0.950 . S
H2769 C2799 0.950 . S
C2770 H2752 0.951 . S
C2770 C2771 1.366 . S
C2770 C2772 1.388 . S
C2771 C2770 1.366 . S
C2771 C2775 1.385 . S
C2772 H2753 0.951 . S
C2772 C2770 1.388 . S
C2772 C2773 1.366 . S
C2773 C2772 1.366 . S
C2773 C2774 1.414 . S
C2773 C2776 1.499 . S
C2774 H2754 0.950 . S
C2774 C2773 1.414 . S
C2774 C2775 1.374 . S
C2775 H2755 0.950 . S
C2775 C2771 1.385 . S
C2775 C2774 1.374 . S
C2776 C2773 1.499 . S
C2776 C2777 1.373 . S
C2776 C2778 1.389 1_554 S
C2777 H2756 0.950 . S
C2777 C2776 1.373 . S
C2777 C2793 1.377 1_554 S
C2778 C2776 1.389 1_556 S
C2778 C2779 1.524 . S
C2778 C2792 1.377 . S
C2779 C2778 1.524 . S
C2779 C2780 1.397 1_556 S
C2779 C2784 1.363 . S
C2780 H2757 0.950 . S
C2780 C2779 1.397 1_554 S
C2780 C2781 1.334 . S
C2781 H2758 0.950 . S
C2781 C2780 1.334 . S
C2781 C2782 1.287 1_554 S
C2782 C2781 1.287 1_556 S
C2782 C2783 1.524 . S
C2782 H2801 0.913 . S
C2783 H2759 0.950 . S
C2783 C2782 1.524 . S
C2783 C2784 1.415 . S
C2784 H2760 0.950 . S
C2784 C2779 1.363 . S
C2784 C2783 1.415 . S
C2785 H2761 0.951 . S
C2785 C2786 1.366 . S
C2785 C2787 1.388 . S
C2786 C2785 1.366 . S
C2786 C2790 1.385 . S
C2787 H2762 0.951 . S
C2787 C2785 1.388 . S
C2787 C2788 1.366 . S
C2788 C2787 1.366 . S
C2788 C2789 1.414 . S
C2788 C2791 1.499 . S
C2789 H2763 0.950 . S
C2789 C2788 1.414 . S
C2789 C2790 1.374 . S
C2790 H2764 0.950 . S
C2790 C2786 1.385 . S
C2790 C2789 1.374 . S
C2791 C2788 1.499 . S
C2791 C2792 1.373 . S
C2791 C2793 1.389 . S
C2792 H2765 0.950 . S
C2792 C2778 1.377 . S
C2792 C2791 1.373 . S
C2793 C2777 1.377 1_556 S
C2793 C2791 1.389 . S
C2793 C2794 1.524 . S
C2794 C2793 1.524 . S
C2794 C2795 1.397 . S
C2794 C2799 1.363 1_556 S
C2795 H2766 0.950 . S
C2795 C2794 1.397 . S
C2795 C2796 1.334 . S
C2796 H2767 0.950 . S
C2796 C2795 1.334 . S
C2796 C2797 1.287 . S
C2797 C2796 1.287 . S
C2797 C2798 1.524 1_556 S
C2797 H2800 0.999 . S
C2798 H2768 0.950 . S
C2798 C2797 1.524 1_554 S
C2798 C2799 1.415 . S
C2799 H2769 0.950 . S
C2799 C2794 1.363 1_554 S
C2799 C2798 1.415 . S
H2800 C2797 0.999 . S
H2801 C2782 0.913 . S
H2802 C2820 0.951 . S
H2803 C2822 0.951 . S
H2804 C2824 0.950 . S
H2805 C2825 0.950 . S
H2806 C2827 0.950 . S
H2807 C2830 0.950 . S
H2808 C2831 0.950 . S
H2809 C2833 0.950 . S
H2810 C2834 0.950 . S
H2811 C2835 0.951 . S
H2812 C2837 0.951 . S
H2813 C2839 0.950 . S
H2814 C2840 0.950 . S
H2815 C2842 0.950 . S
H2816 C2845 0.950 . S
H2817 C2846 0.950 . S
H2818 C2848 0.950 . S
H2819 C2849 0.950 . S
C2820 H2802 0.951 . S
C2820 C2821 1.366 . S
C2820 C2822 1.388 . S
C2821 C2820 1.366 . S
C2821 C2825 1.385 . S
C2822 H2803 0.951 . S
C2822 C2820 1.388 . S
C2822 C2823 1.366 . S
C2823 C2822 1.366 . S
C2823 C2824 1.414 . S
C2823 C2826 1.499 . S
C2824 H2804 0.950 . S
C2824 C2823 1.414 . S
C2824 C2825 1.374 . S
C2825 H2805 0.950 . S
C2825 C2821 1.385 . S
C2825 C2824 1.374 . S
C2826 C2823 1.499 . S
C2826 C2827 1.377 1_655 S
C2826 C2828 1.389 . S
C2827 H2806 0.950 . S
C2827 C2826 1.377 1_455 S
C2827 C2843 1.373 . S
C2828 C2826 1.389 . S
C2828 C2829 1.524 . S
C2828 C2842 1.377 . S
C2829 C2828 1.524 . S
C2829 C2830 1.397 . S
C2829 C2834 1.363 . S
C2830 H2807 0.950 . S
C2830 C2829 1.397 . S
C2830 C2831 1.334 . S
C2831 H2808 0.950 . S
C2831 C2830 1.334 . S
C2831 C2832 1.287 . S
C2832 C2831 1.287 . S
C2832 C2833 1.524 . S
C2832 H2851 0.913 . S
C2833 H2809 0.950 . S
C2833 C2832 1.524 . S
C2833 C2834 1.415 . S
C2834 H2810 0.950 . S
C2834 C2829 1.363 . S
C2834 C2833 1.415 . S
C2835 H2811 0.951 . S
C2835 C2836 1.366 . S
C2835 C2837 1.388 . S
C2836 C2835 1.366 . S
C2836 C2840 1.385 . S
C2837 H2812 0.951 . S
C2837 C2835 1.388 . S
C2837 C2838 1.366 . S
C2838 C2837 1.366 . S
C2838 C2839 1.414 . S
C2838 C2841 1.499 . S
C2839 H2813 0.950 . S
C2839 C2838 1.414 . S
C2839 C2840 1.374 . S
C2840 H2814 0.950 . S
C2840 C2836 1.385 . S
C2840 C2839 1.374 . S
C2841 C2838 1.499 . S
C2841 C2842 1.373 1_455 S
C2841 C2843 1.389 . S
C2842 H2815 0.950 . S
C2842 C2828 1.377 . S
C2842 C2841 1.373 1_655 S
C2843 C2827 1.373 . S
C2843 C2841 1.389 . S
C2843 C2844 1.524 . S
C2844 C2843 1.524 . S
C2844 C2845 1.397 . S
C2844 C2849 1.363 . S
C2845 H2816 0.950 . S
C2845 C2844 1.397 . S
C2845 C2846 1.334 . S
C2846 H2817 0.950 . S
C2846 C2845 1.334 . S
C2846 C2847 1.287 . S
C2847 C2846 1.287 . S
C2847 C2848 1.524 . S
C2847 H2850 0.999 . S
C2848 H2818 0.950 . S
C2848 C2847 1.524 . S
C2848 C2849 1.415 . S
C2849 H2819 0.950 . S
C2849 C2844 1.363 . S
C2849 C2848 1.415 . S
H2850 C2847 0.999 . S
H2851 C2832 0.913 . S
H2852 C2870 0.951 . S
H2853 C2872 0.951 . S
H2854 C2874 0.950 . S
H2855 C2875 0.950 . S
H2856 C2877 0.950 . S
H2857 C2880 0.950 . S
H2858 C2881 0.950 . S
H2859 C2883 0.950 . S
H2860 C2884 0.950 . S
H2861 C2885 0.951 . S
H2862 C2887 0.951 . S
H2863 C2889 0.950 . S
H2864 C2890 0.950 . S
H2865 C2892 0.950 . S
H2866 C2895 0.950 . S
H2867 C2896 0.950 . S
H2868 C2898 0.950 . S
H2869 C2899 0.950 . S
C2870 H2852 0.951 . S
C2870 C2871 1.366 . S
C2870 C2872 1.388 . S
C2871 C2870 1.366 . S
C2871 C2875 1.385 . S
C2872 H2853 0.951 . S
C2872 C2870 1.388 . S
C2872 C2873 1.366 . S
C2873 C2872 1.366 . S
C2873 C2874 1.414 . S
C2873 C2876 1.499 . S
C2874 H2854 0.950 . S
C2874 C2873 1.414 . S
C2874 C2875 1.374 . S
C2875 H2855 0.950 . S
C2875 C2871 1.385 . S
C2875 C2874 1.374 . S
C2876 C2873 1.499 . S
C2876 C2877 1.373 . S
C2876 C2878 1.389 . S
C2877 H2856 0.950 . S
C2877 C2876 1.373 . S
C2877 C2893 1.377 . S
C2878 C2876 1.389 . S
C2878 C2879 1.524 . S
C2878 C2892 1.377 . S
C2879 C2878 1.524 . S
C2879 C2880 1.397 . S
C2879 C2884 1.363 . S
C2880 H2857 0.950 . S
C2880 C2879 1.397 . S
C2880 C2881 1.334 . S
C2881 H2858 0.950 . S
C2881 C2880 1.334 . S
C2881 C2882 1.287 . S
C2882 C2881 1.287 . S
C2882 C2883 1.524 . S
C2882 H2901 0.913 . S
C2883 H2859 0.950 . S
C2883 C2882 1.524 . S
C2883 C2884 1.415 . S
C2884 H2860 0.950 . S
C2884 C2879 1.363 . S
C2884 C2883 1.415 . S
C2885 H2861 0.951 . S
C2885 C2886 1.366 . S
C2885 C2887 1.388 . S
C2886 C2885 1.366 . S
C2886 C2890 1.385 . S
C2887 H2862 0.951 . S
C2887 C2885 1.388 . S
C2887 C2888 1.366 . S
C2888 C2887 1.366 . S
C2888 C2889 1.414 . S
C2888 C2891 1.499 . S
C2889 H2863 0.950 . S
C2889 C2888 1.414 . S
C2889 C2890 1.374 . S
C2890 H2864 0.950 . S
C2890 C2886 1.385 . S
C2890 C2889 1.374 . S
C2891 C2888 1.499 . S
C2891 C2892 1.373 . S
C2891 C2893 1.389 . S
C2892 H2865 0.950 . S
C2892 C2878 1.377 . S
C2892 C2891 1.373 . S
C2893 C2877 1.377 . S
C2893 C2891 1.389 . S
C2893 C2894 1.524 . S
C2894 C2893 1.524 . S
C2894 C2895 1.397 . S
C2894 C2899 1.363 . S
C2895 H2866 0.950 . S
C2895 C2894 1.397 . S
C2895 C2896 1.334 . S
C2896 H2867 0.950 . S
C2896 C2895 1.334 . S
C2896 C2897 1.287 . S
C2897 C2896 1.287 . S
C2897 C2898 1.524 . S
C2897 H2900 0.999 . S
C2898 H2868 0.950 . S
C2898 C2897 1.524 . S
C2898 C2899 1.415 . S
C2899 H2869 0.950 . S
C2899 C2894 1.363 . S
C2899 C2898 1.415 . S
H2900 C2897 0.999 . S
H2901 C2882 0.913 . S
H2902 C2920 0.951 . S
H2903 C2922 0.951 . S
H2904 C2924 0.950 . S
H2905 C2925 0.950 . S
H2906 C2927 0.950 . S
H2907 C2930 0.950 . S
H2908 C2931 0.950 . S
H2909 C2933 0.950 1_554 S
H2910 C2934 0.950 . S
H2911 C2935 0.949 1_556 S
H2912 C2937 0.951 . S
H2913 C2939 0.950 . S
H2914 C2940 0.950 . S
H2915 C2942 0.950 . S
H2916 C2945 0.950 . S
H2917 C2946 0.950 . S
H2918 C2948 0.950 . S
H2919 C2949 0.950 . S
C2920 H2902 0.951 . S
C2920 C2921 1.366 . S
C2920 C2922 1.388 . S
C2921 C2920 1.366 . S
C2921 C2925 1.385 . S
C2922 H2903 0.951 . S
C2922 C2920 1.388 . S
C2922 C2923 1.366 . S
C2923 C2922 1.366 . S
C2923 C2924 1.414 . S
C2923 C2926 1.499 . S
C2924 H2904 0.950 . S
C2924 C2923 1.414 . S
C2924 C2925 1.374 . S
C2925 H2905 0.950 . S
C2925 C2921 1.385 . S
C2925 C2924 1.374 . S
C2926 C2923 1.499 . S
C2926 C2927 1.373 . S
C2926 C2928 1.389 . S
C2927 H2906 0.950 . S
C2927 C2926 1.373 . S
C2927 C2943 1.377 . S
C2928 C2926 1.389 . S
C2928 C2929 1.524 . S
C2928 C2942 1.377 . S
C2929 C2928 1.524 . S
C2929 C2930 1.397 . S
C2929 C2934 1.363 . S
C2930 H2907 0.950 . S
C2930 C2929 1.397 . S
C2930 C2931 1.334 . S
C2931 H2908 0.950 . S
C2931 C2930 1.334 . S
C2931 C2932 1.287 . S
C2932 C2931 1.287 . S
C2932 C2933 1.524 . S
C2932 H2951 0.913 . S
C2933 H2909 0.950 1_556 S
C2933 C2932 1.524 . S
C2933 C2934 1.415 . S
C2934 H2910 0.950 . S
C2934 C2929 1.363 . S
C2934 C2933 1.415 . S
C2935 H2911 0.949 1_554 S
C2935 C2936 1.366 . S
C2935 C2937 1.388 1_554 S
C2936 C2935 1.366 . S
C2936 C2940 1.385 . S
C2937 H2912 0.951 . S
C2937 C2935 1.388 1_556 S
C2937 C2938 1.366 . S
C2938 C2937 1.366 . S
C2938 C2939 1.414 1_556 S
C2938 C2941 1.499 . S
C2939 H2913 0.950 . S
C2939 C2938 1.414 1_554 S
C2939 C2940 1.374 . S
C2940 H2914 0.950 . S
C2940 C2936 1.385 . S
C2940 C2939 1.374 . S
C2941 C2938 1.499 . S
C2941 C2942 1.373 . S
C2941 C2943 1.389 . S
C2942 H2915 0.950 . S
C2942 C2928 1.377 . S
C2942 C2941 1.373 . S
C2943 C2927 1.377 . S
C2943 C2941 1.389 . S
C2943 C2944 1.524 . S
C2944 C2943 1.524 . S
C2944 C2945 1.397 . S
C2944 C2949 1.363 . S
C2945 H2916 0.950 . S
C2945 C2944 1.397 . S
C2945 C2946 1.334 . S
C2946 H2917 0.950 . S
C2946 C2945 1.334 . S
C2946 C2947 1.287 . S
C2947 C2946 1.287 . S
C2947 C2948 1.524 . S
C2947 H2950 0.999 . S
C2948 H2918 0.950 . S
C2948 C2947 1.524 . S
C2948 C2949 1.415 . S
C2949 H2919 0.950 . S
C2949 C2944 1.363 . S
C2949 C2948 1.415 . S
H2950 C2947 0.999 . S
H2951 C2932 0.913 . S
H2952 C2970 0.951 . S
H2953 C2972 0.951 . S
H2954 C2974 0.950 . S
H2955 C2975 0.950 . S
H2956 C2977 0.950 . S
H2957 C2980 0.950 . S
H2958 C2981 0.950 . S
H2959 C2983 0.950 . S
H2960 C2984 0.950 . S
H2961 C2985 0.951 . S
H2962 C2987 0.951 . S
H2963 C2989 0.950 . S
H2964 C2990 0.950 . S
H2965 C2992 0.950 . S
H2966 C2995 0.950 . S
H2967 C2996 0.950 . S
H2968 C2998 0.950 . S
H2969 C2999 0.950 . S
C2970 H2952 0.951 . S
C2970 C2971 1.366 . S
C2970 C2972 1.388 . S
C2971 C2970 1.366 . S
C2971 C2975 1.385 . S
C2972 H2953 0.951 . S
C2972 C2970 1.388 . S
C2972 C2973 1.366 . S
C2973 C2972 1.366 . S
C2973 C2974 1.414 . S
C2973 C2976 1.499 . S
C2974 H2954 0.950 . S
C2974 C2973 1.414 . S
C2974 C2975 1.374 . S
C2975 H2955 0.950 . S
C2975 C2971 1.385 . S
C2975 C2974 1.374 . S
C2976 C2973 1.499 . S
C2976 C2977 1.373 . S
C2976 C2978 1.389 . S
C2977 H2956 0.950 . S
C2977 C2976 1.373 . S
C2977 C2993 1.377 . S
C2978 C2976 1.389 . S
C2978 C2979 1.524 . S
C2978 C2992 1.377 . S
C2979 C2978 1.524 . S
C2979 C2980 1.397 . S
C2979 C2984 1.363 . S
C2980 H2957 0.950 . S
C2980 C2979 1.397 . S
C2980 C2981 1.334 . S
C2981 H2958 0.950 . S
C2981 C2980 1.334 . S
C2981 C2982 1.287 . S
C2982 C2981 1.287 . S
C2982 C2983 1.524 . S
C2982 H3001 0.913 . S
C2983 H2959 0.950 . S
C2983 C2982 1.524 . S
C2983 C2984 1.415 . S
C2984 H2960 0.950 . S
C2984 C2979 1.363 . S
C2984 C2983 1.415 . S
C2985 H2961 0.951 . S
C2985 C2986 1.366 . S
C2985 C2987 1.388 . S
C2986 C2985 1.366 . S
C2986 C2990 1.385 . S
C2987 H2962 0.951 . S
C2987 C2985 1.388 . S
C2987 C2988 1.366 . S
C2988 C2987 1.366 . S
C2988 C2989 1.414 . S
C2988 C2991 1.499 . S
C2989 H2963 0.950 . S
C2989 C2988 1.414 . S
C2989 C2990 1.374 . S
C2990 H2964 0.950 . S
C2990 C2986 1.385 . S
C2990 C2989 1.374 . S
C2991 C2988 1.499 . S
C2991 C2992 1.373 . S
C2991 C2993 1.389 . S
C2992 H2965 0.950 . S
C2992 C2978 1.377 . S
C2992 C2991 1.373 . S
C2993 C2977 1.377 . S
C2993 C2991 1.389 . S
C2993 C2994 1.524 . S
C2994 C2993 1.524 . S
C2994 C2995 1.397 . S
C2994 C2999 1.363 . S
C2995 H2966 0.950 . S
C2995 C2994 1.397 . S
C2995 C2996 1.334 . S
C2996 H2967 0.950 . S
C2996 C2995 1.334 . S
C2996 C2997 1.287 . S
C2997 C2996 1.287 . S
C2997 C2998 1.524 . S
C2997 H3000 0.999 . S
C2998 H2968 0.950 . S
C2998 C2997 1.524 . S
C2998 C2999 1.415 . S
C2999 H2969 0.950 . S
C2999 C2994 1.363 . S
C2999 C2998 1.415 . S
H3000 C2997 0.999 . S
H3001 C2982 0.913 . S
H3002 C3020 0.951 . S
H3003 C3022 0.951 . S
H3004 C3024 0.950 . S
H3005 C3025 0.950 . S
H3006 C3027 0.950 . S
H3007 C3030 0.950 . S
H3008 C3031 0.950 . S
H3009 C3033 0.950 . S
H3010 C3034 0.950 . S
H3011 C3035 0.951 . S
H3012 C3037 0.951 . S
H3013 C3039 0.950 . S
H3014 C3040 0.950 . S
H3015 C3042 0.950 . S
H3016 C3045 0.950 . S
H3017 C3046 0.950 . S
H3018 C3048 0.950 . S
H3019 C3049 0.950 . S
C3020 H3002 0.951 . S
C3020 C3021 1.366 . S
C3020 C3022 1.388 . S
C3021 C3020 1.366 . S
C3021 C3025 1.385 . S
C3022 H3003 0.951 . S
C3022 C3020 1.388 . S
C3022 C3023 1.366 . S
C3023 C3022 1.366 . S
C3023 C3024 1.414 . S
C3023 C3026 1.499 . S
C3024 H3004 0.950 . S
C3024 C3023 1.414 . S
C3024 C3025 1.374 . S
C3025 H3005 0.950 . S
C3025 C3021 1.385 . S
C3025 C3024 1.374 . S
C3026 C3023 1.499 . S
C3026 C3027 1.373 . S
C3026 C3028 1.389 . S
C3027 H3006 0.950 . S
C3027 C3026 1.373 . S
C3027 C3043 1.377 . S
C3028 C3026 1.389 . S
C3028 C3029 1.524 . S
C3028 C3042 1.377 . S
C3029 C3028 1.524 . S
C3029 C3030 1.397 . S
C3029 C3034 1.363 . S
C3030 H3007 0.950 . S
C3030 C3029 1.397 . S
C3030 C3031 1.334 . S
C3031 H3008 0.950 . S
C3031 C3030 1.334 . S
C3031 C3032 1.287 . S
C3032 C3031 1.287 . S
C3032 C3033 1.524 . S
C3032 H3051 0.913 . S
C3033 H3009 0.950 . S
C3033 C3032 1.524 . S
C3033 C3034 1.415 . S
C3034 H3010 0.950 . S
C3034 C3029 1.363 . S
C3034 C3033 1.415 . S
C3035 H3011 0.951 . S
C3035 C3036 1.366 . S
C3035 C3037 1.388 . S
C3036 C3035 1.366 . S
C3036 C3040 1.385 . S
C3037 H3012 0.951 . S
C3037 C3035 1.388 . S
C3037 C3038 1.366 . S
C3038 C3037 1.366 . S
C3038 C3039 1.414 . S
C3038 C3041 1.499 . S
C3039 H3013 0.950 . S
C3039 C3038 1.414 . S
C3039 C3040 1.374 . S
C3040 H3014 0.950 . S
C3040 C3036 1.385 . S
C3040 C3039 1.374 . S
C3041 C3038 1.499 . S
C3041 C3042 1.373 . S
C3041 C3043 1.389 . S
C3042 H3015 0.950 . S
C3042 C3028 1.377 . S
C3042 C3041 1.373 . S
C3043 C3027 1.377 . S
C3043 C3041 1.389 . S
C3043 C3044 1.524 . S
C3044 C3043 1.524 . S
C3044 C3045 1.397 . S
C3044 C3049 1.363 . S
C3045 H3016 0.950 . S
C3045 C3044 1.397 . S
C3045 C3046 1.334 . S
C3046 H3017 0.950 . S
C3046 C3045 1.334 . S
C3046 C3047 1.287 . S
C3047 C3046 1.287 . S
C3047 C3048 1.524 . S
C3047 H3050 0.999 . S
C3048 H3018 0.950 . S
C3048 C3047 1.524 . S
C3048 C3049 1.415 . S
C3049 H3019 0.950 . S
C3049 C3044 1.363 . S
C3049 C3048 1.415 . S
H3050 C3047 0.999 . S
H3051 C3032 0.913 . S
H3052 C3070 0.951 . S
H3053 C3072 0.951 . S
H3054 C3074 0.950 . S
H3055 C3075 0.950 . S
H3056 C3077 0.950 . S
H3057 C3080 0.950 . S
H3058 C3081 0.950 . S
H3059 C3083 0.950 . S
H3060 C3084 0.950 . S
H3061 C3085 0.951 . S
H3062 C3087 0.951 . S
H3063 C3089 0.950 . S
H3064 C3090 0.950 . S
H3065 C3092 0.950 . S
H3066 C3095 0.950 . S
H3067 C3096 0.950 . S
H3068 C3098 0.950 . S
H3069 C3099 0.950 . S
C3070 H3052 0.951 . S
C3070 C3071 1.366 . S
C3070 C3072 1.388 . S
C3071 C3070 1.366 . S
C3071 C3075 1.385 . S
C3072 H3053 0.951 . S
C3072 C3070 1.388 . S
C3072 C3073 1.366 . S
C3073 C3072 1.366 . S
C3073 C3074 1.414 . S
C3073 C3076 1.499 . S
C3074 H3054 0.950 . S
C3074 C3073 1.414 . S
C3074 C3075 1.374 . S
C3075 H3055 0.950 . S
C3075 C3071 1.385 . S
C3075 C3074 1.374 . S
C3076 C3073 1.499 . S
C3076 C3077 1.373 1_556 S
C3076 C3078 1.389 . S
C3077 H3056 0.950 . S
C3077 C3076 1.373 1_554 S
C3077 C3093 1.377 . S
C3078 C3076 1.389 . S
C3078 C3079 1.524 . S
C3078 C3092 1.377 . S
C3079 C3078 1.524 . S
C3079 C3080 1.397 . S
C3079 C3084 1.363 . S
C3080 H3057 0.950 . S
C3080 C3079 1.397 . S
C3080 C3081 1.334 . S
C3081 H3058 0.950 . S
C3081 C3080 1.334 . S
C3081 C3082 1.287 . S
C3082 C3081 1.287 . S
C3082 C3083 1.524 . S
C3082 H3101 0.913 . S
C3083 H3059 0.950 . S
C3083 C3082 1.524 . S
C3083 C3084 1.415 . S
C3084 H3060 0.950 . S
C3084 C3079 1.363 . S
C3084 C3083 1.415 . S
C3085 H3061 0.951 . S
C3085 C3086 1.366 . S
C3085 C3087 1.388 . S
C3086 C3085 1.366 . S
C3086 C3090 1.385 . S
C3087 H3062 0.951 . S
C3087 C3085 1.388 . S
C3087 C3088 1.366 . S
C3088 C3087 1.366 . S
C3088 C3089 1.414 . S
C3088 C3091 1.499 . S
C3089 H3063 0.950 . S
C3089 C3088 1.414 . S
C3089 C3090 1.374 . S
C3090 H3064 0.950 . S
C3090 C3086 1.385 . S
C3090 C3089 1.374 . S
C3091 C3088 1.499 . S
C3091 C3092 1.373 1_554 S
C3091 C3093 1.389 . S
C3092 H3065 0.950 . S
C3092 C3078 1.377 . S
C3092 C3091 1.373 1_556 S
C3093 C3077 1.377 . S
C3093 C3091 1.389 . S
C3093 C3094 1.524 . S
C3094 C3093 1.524 . S
C3094 C3095 1.397 . S
C3094 C3099 1.363 . S
C3095 H3066 0.950 . S
C3095 C3094 1.397 . S
C3095 C3096 1.334 . S
C3096 H3067 0.950 . S
C3096 C3095 1.334 . S
C3096 C3097 1.287 . S
C3097 C3096 1.287 . S
C3097 C3098 1.524 . S
C3097 H3100 0.999 . S
C3098 H3068 0.950 . S
C3098 C3097 1.524 . S
C3098 C3099 1.415 . S
C3099 H3069 0.950 . S
C3099 C3094 1.363 . S
C3099 C3098 1.415 . S
H3100 C3097 0.999 . S
H3101 C3082 0.913 . S
H3102 C3120 0.951 . S
H3103 C3122 0.951 . S
H3104 C3124 0.950 . S
H3105 C3125 0.950 . S
H3106 C3127 0.950 . S
H3107 C3130 0.966 . S
H3108 C3131 0.950 1_556 S
H3109 C3133 0.950 . S
H3110 C3134 0.950 . S
H3111 C3135 0.951 . S
H3112 C3137 0.951 . S
H3113 C3139 0.950 . S
H3114 C3140 0.950 . S
H3115 C3142 0.950 . S
H3116 C3145 0.950 . S
H3117 C3146 0.950 . S
H3118 C3148 0.950 . S
H3119 C3149 0.950 . S
C3120 H3102 0.951 . S
C3120 C3121 1.366 . S
C3120 C3122 1.388 1_556 S
C3121 C3120 1.366 . S
C3121 C3125 1.385 . S
C3122 H3103 0.951 . S
C3122 C3120 1.388 1_554 S
C3122 C3123 1.366 . S
C3123 C3122 1.366 . S
C3123 C3124 1.414 1_554 S
C3123 C3126 1.499 . S
C3124 H3104 0.950 . S
C3124 C3123 1.414 1_556 S
C3124 C3125 1.374 . S
C3125 H3105 0.950 . S
C3125 C3121 1.385 . S
C3125 C3124 1.374 . S
C3126 C3123 1.499 . S
C3126 C3127 1.373 . S
C3126 C3128 1.389 . S
C3127 H3106 0.950 . S
C3127 C3126 1.373 . S
C3127 C3143 1.377 1_455 S
C3128 C3126 1.389 . S
C3128 C3129 1.524 . S
C3128 C3142 1.377 1_455 S
C3129 C3128 1.524 . S
C3129 C3130 1.397 . S
C3129 C3134 1.363 . S
C3130 H3107 0.966 . S
C3130 C3129 1.397 . S
C3130 C3131 1.334 . S
C3131 H3108 0.950 1_554 S
C3131 C3130 1.334 . S
C3131 C3132 1.287 . S
C3132 C3131 1.287 . S
C3132 C3133 1.524 . S
C3132 H3151 0.913 . S
C3133 H3109 0.950 . S
C3133 C3132 1.524 . S
C3133 C3134 1.415 . S
C3134 H3110 0.950 . S
C3134 C3129 1.363 . S
C3134 C3133 1.415 . S
C3135 H3111 0.951 . S
C3135 C3136 1.366 . S
C3135 C3137 1.388 . S
C3136 C3135 1.366 . S
C3136 C3140 1.385 . S
C3137 H3112 0.951 . S
C3137 C3135 1.388 . S
C3137 C3138 1.366 . S
C3138 C3137 1.366 . S
C3138 C3139 1.414 . S
C3138 C3141 1.499 . S
C3139 H3113 0.950 . S
C3139 C3138 1.414 . S
C3139 C3140 1.374 . S
C3140 H3114 0.950 . S
C3140 C3136 1.385 . S
C3140 C3139 1.374 . S
C3141 C3138 1.499 . S
C3141 C3142 1.373 . S
C3141 C3143 1.389 . S
C3142 H3115 0.950 . S
C3142 C3128 1.377 1_655 S
C3142 C3141 1.373 . S
C3143 C3127 1.377 1_655 S
C3143 C3141 1.389 . S
C3143 C3144 1.524 . S
C3144 C3143 1.524 . S
C3144 C3145 1.397 . S
C3144 C3149 1.363 . S
C3145 H3116 0.950 . S
C3145 C3144 1.397 . S
C3145 C3146 1.334 . S
C3146 H3117 0.950 . S
C3146 C3145 1.334 . S
C3146 C3147 1.287 . S
C3147 C3146 1.287 . S
C3147 C3148 1.524 . S
C3147 H3150 0.999 . S
C3148 H3118 0.950 . S
C3148 C3147 1.524 . S
C3148 C3149 1.415 . S
C3149 H3119 0.950 . S
C3149 C3144 1.363 . S
C3149 C3148 1.415 . S
H3150 C3147 0.999 . S
H3151 C3132 0.913 . S
H3152 C3170 0.951 . S
H3153 C3172 0.951 . S
H3154 C3174 0.950 . S
H3155 C3175 0.950 . S
H3156 C3177 0.950 . S
H3157 C3180 0.950 . S
H3158 C3181 0.950 . S
H3159 C3183 0.950 . S
H3160 C3184 0.950 . S
H3161 C3185 0.951 . S
H3162 C3187 0.951 . S
H3163 C3189 0.950 . S
H3164 C3190 0.950 . S
H3165 C3192 0.950 . S
H3166 C3195 0.950 1_554 S
H3167 C3196 0.950 . S
H3168 C3198 0.950 . S
H3169 C3199 0.950 . S
C3170 H3152 0.951 . S
C3170 C3171 1.366 . S
C3170 C3172 1.388 . S
C3171 C3170 1.366 . S
C3171 C3175 1.385 . S
C3172 H3153 0.951 . S
C3172 C3170 1.388 . S
C3172 C3173 1.366 . S
C3173 C3172 1.366 . S
C3173 C3174 1.414 . S
C3173 C3176 1.499 . S
C3174 H3154 0.950 . S
C3174 C3173 1.414 . S
C3174 C3175 1.374 . S
C3175 H3155 0.950 . S
C3175 C3171 1.385 . S
C3175 C3174 1.374 . S
C3176 C3173 1.499 . S
C3176 C3177 1.373 . S
C3176 C3178 1.389 1_556 S
C3177 H3156 0.950 . S
C3177 C3176 1.373 . S
C3177 C3193 1.377 . S
C3178 C3176 1.389 1_554 S
C3178 C3179 1.524 . S
C3178 C3192 1.377 . S
C3179 C3178 1.524 . S
C3179 C3180 1.397 . S
C3179 C3184 1.363 . S
C3180 H3157 0.950 . S
C3180 C3179 1.397 . S
C3180 C3181 1.334 . S
C3181 H3158 0.950 . S
C3181 C3180 1.334 . S
C3181 C3182 1.287 . S
C3182 C3181 1.287 . S
C3182 C3183 1.524 . S
C3182 H3201 0.913 . S
C3183 H3159 0.950 . S
C3183 C3182 1.524 . S
C3183 C3184 1.415 . S
C3184 H3160 0.950 . S
C3184 C3179 1.363 . S
C3184 C3183 1.415 . S
C3185 H3161 0.951 . S
C3185 C3186 1.366 . S
C3185 C3187 1.388 . S
C3186 C3185 1.366 . S
C3186 C3190 1.385 . S
C3187 H3162 0.951 . S
C3187 C3185 1.388 . S
C3187 C3188 1.366 . S
C3188 C3187 1.366 . S
C3188 C3189 1.414 . S
C3188 C3191 1.499 . S
C3189 H3163 0.950 . S
C3189 C3188 1.414 . S
C3189 C3190 1.374 . S
C3190 H3164 0.950 . S
C3190 C3186 1.385 . S
C3190 C3189 1.374 . S
C3191 C3188 1.499 . S
C3191 C3192 1.373 . S
C3191 C3193 1.389 1_554 S
C3192 H3165 0.950 . S
C3192 C3178 1.377 . S
C3192 C3191 1.373 . S
C3193 C3177 1.377 . S
C3193 C3191 1.389 1_556 S
C3193 C3194 1.524 . S
C3194 C3193 1.524 . S
C3194 C3195 1.397 . S
C3194 C3199 1.363 . S
C3195 H3166 0.950 1_556 S
C3195 C3194 1.397 . S
C3195 C3196 1.334 . S
C3196 H3167 0.950 . S
C3196 C3195 1.334 . S
C3196 C3197 1.287 . S
C3197 C3196 1.287 . S
C3197 C3198 1.524 . S
C3197 H3200 0.999 . S
C3198 H3168 0.950 . S
C3198 C3197 1.524 . S
C3198 C3199 1.415 . S
C3199 H3169 0.950 . S
C3199 C3194 1.363 . S
C3199 C3198 1.415 . S
H3200 C3197 0.999 . S
H3201 C3182 0.913 . S
H3202 C3220 0.951 . S
H3203 C3222 0.951 . S
H3204 C3224 0.950 . S
H3205 C3225 0.950 . S
H3206 C3227 0.950 . S
H3207 C3230 0.950 . S
H3208 C3231 0.950 . S
H3209 C3233 0.950 . S
H3210 C3234 0.950 . S
H3211 C3235 0.951 . S
H3212 C3237 0.951 . S
H3213 C3239 0.950 . S
H3214 C3240 0.950 . S
H3215 C3242 0.950 . S
H3216 C3245 0.950 . S
H3217 C3246 0.950 . S
H3218 C3248 0.950 . S
H3219 C3249 0.950 . S
C3220 H3202 0.951 . S
C3220 C3221 1.366 . S
C3220 C3222 1.388 . S
C3221 C3220 1.366 . S
C3221 C3225 1.385 . S
C3222 H3203 0.951 . S
C3222 C3220 1.388 . S
C3222 C3223 1.366 . S
C3223 C3222 1.366 . S
C3223 C3224 1.414 . S
C3223 C3226 1.499 . S
C3224 H3204 0.950 . S
C3224 C3223 1.414 . S
C3224 C3225 1.374 . S
C3225 H3205 0.950 . S
C3225 C3221 1.385 . S
C3225 C3224 1.374 . S
C3226 C3223 1.499 . S
C3226 C3227 1.373 . S
C3226 C3228 1.373 1_455 S
C3227 H3206 0.950 . S
C3227 C3226 1.373 . S
C3227 C3243 1.377 . S
C3228 C3226 1.373 1_655 S
C3228 C3229 1.528 . S
C3228 C3242 1.392 . S
C3229 C3228 1.528 . S
C3229 C3230 1.397 . S
C3229 C3234 1.363 . S
C3230 H3207 0.950 . S
C3230 C3229 1.397 . S
C3230 C3231 1.334 . S
C3231 H3208 0.950 . S
C3231 C3230 1.334 . S
C3231 C3232 1.287 . S
C3232 C3231 1.287 . S
C3232 C3233 1.524 . S
C3232 H3251 0.913 . S
C3233 H3209 0.950 . S
C3233 C3232 1.524 . S
C3233 C3234 1.415 . S
C3234 H3210 0.950 . S
C3234 C3229 1.363 . S
C3234 C3233 1.415 . S
C3235 H3211 0.951 . S
C3235 C3236 1.366 . S
C3235 C3237 1.388 . S
C3236 C3235 1.366 . S
C3236 C3240 1.385 . S
C3237 H3212 0.951 . S
C3237 C3235 1.388 . S
C3237 C3238 1.366 . S
C3238 C3237 1.366 . S
C3238 C3239 1.414 . S
C3238 C3241 1.499 . S
C3239 H3213 0.950 . S
C3239 C3238 1.414 . S
C3239 C3240 1.374 . S
C3240 H3214 0.950 . S
C3240 C3236 1.385 . S
C3240 C3239 1.374 . S
C3241 C3238 1.499 . S
C3241 C3242 1.373 . S
C3241 C3243 1.389 1_655 S
C3242 H3215 0.950 . S
C3242 C3228 1.392 . S
C3242 C3241 1.373 . S
C3243 C3227 1.377 . S
C3243 C3241 1.389 1_455 S
C3243 C3244 1.524 . S
C3244 C3243 1.524 . S
C3244 C3245 1.397 . S
C3244 C3249 1.363 . S
C3245 H3216 0.950 . S
C3245 C3244 1.397 . S
C3245 C3246 1.334 . S
C3246 H3217 0.950 . S
C3246 C3245 1.334 . S
C3246 C3247 1.287 . S
C3247 C3246 1.287 . S
C3247 C3248 1.524 . S
C3247 H3250 0.999 . S
C3248 H3218 0.950 . S
C3248 C3247 1.524 . S
C3248 C3249 1.415 . S
C3249 H3219 0.950 . S
C3249 C3244 1.363 . S
C3249 C3248 1.415 . S
H3250 C3247 0.999 . S
H3251 C3232 0.913 . S
H3252 C3270 0.951 . S
H3253 C3272 0.951 . S
H3254 C3274 0.950 . S
H3255 C3275 0.950 . S
H3256 C3277 0.950 . S
H3257 C3280 0.950 . S
H3258 C3281 0.950 . S
H3259 C3283 0.950 . S
H3260 C3284 0.950 . S
H3261 C3285 0.951 . S
H3262 C3287 0.951 . S
H3263 C3289 0.950 . S
H3264 C3290 0.950 . S
H3265 C3292 0.950 . S
H3266 C3295 0.950 . S
H3267 C3296 0.950 . S
H3268 C3298 0.950 . S
H3269 C3299 0.950 . S
C3270 H3252 0.951 . S
C3270 C3271 1.366 . S
C3270 C3272 1.388 . S
C3271 C3270 1.366 . S
C3271 C3275 1.385 . S
C3272 H3253 0.951 . S
C3272 C3270 1.388 . S
C3272 C3273 1.366 . S
C3273 C3272 1.366 . S
C3273 C3274 1.414 . S
C3273 C3276 1.499 . S
C3274 H3254 0.950 . S
C3274 C3273 1.414 . S
C3274 C3275 1.374 . S
C3275 H3255 0.950 . S
C3275 C3271 1.385 . S
C3275 C3274 1.374 . S
C3276 C3273 1.499 . S
C3276 C3277 1.373 . S
C3276 C3278 1.389 . S
C3277 H3256 0.950 . S
C3277 C3276 1.373 . S
C3277 C3293 1.377 . S
C3278 C3276 1.389 . S
C3278 C3279 1.524 . S
C3278 C3292 1.377 . S
C3279 C3278 1.524 . S
C3279 C3280 1.397 . S
C3279 C3284 1.363 . S
C3280 H3257 0.950 . S
C3280 C3279 1.397 . S
C3280 C3281 1.334 . S
C3281 H3258 0.950 . S
C3281 C3280 1.334 . S
C3281 C3282 1.287 . S
C3282 C3281 1.287 . S
C3282 C3283 1.524 . S
C3282 H3301 0.913 . S
C3283 H3259 0.950 . S
C3283 C3282 1.524 . S
C3283 C3284 1.415 . S
C3284 H3260 0.950 . S
C3284 C3279 1.363 . S
C3284 C3283 1.415 . S
C3285 H3261 0.951 . S
C3285 C3286 1.366 . S
C3285 C3287 1.388 . S
C3286 C3285 1.366 . S
C3286 C3290 1.385 . S
C3287 H3262 0.951 . S
C3287 C3285 1.388 . S
C3287 C3288 1.366 . S
C3288 C3287 1.366 . S
C3288 C3289 1.414 . S
C3288 C3291 1.499 . S
C3289 H3263 0.950 . S
C3289 C3288 1.414 . S
C3289 C3290 1.374 . S
C3290 H3264 0.950 . S
C3290 C3286 1.385 . S
C3290 C3289 1.374 . S
C3291 C3288 1.499 . S
C3291 C3292 1.373 . S
C3291 C3293 1.389 . S
C3292 H3265 0.950 . S
C3292 C3278 1.377 . S
C3292 C3291 1.373 . S
C3293 C3277 1.377 . S
C3293 C3291 1.389 . S
C3293 C3294 1.524 . S
C3294 C3293 1.524 . S
C3294 C3295 1.397 . S
C3294 C3299 1.363 . S
C3295 H3266 0.950 . S
C3295 C3294 1.397 . S
C3295 C3296 1.334 . S
C3296 H3267 0.950 . S
C3296 C3295 1.334 . S
C3296 C3297 1.287 . S
C3297 C3296 1.287 . S
C3297 C3298 1.524 . S
C3297 H3300 0.999 . S
C3298 H3268 0.950 . S
C3298 C3297 1.524 . S
C3298 C3299 1.415 . S
C3299 H3269 0.950 . S
C3299 C3294 1.363 . S
C3299 C3298 1.415 . S
H3300 C3297 0.999 . S
H3301 C3282 0.913 . S
H3302 C3320 0.951 . S
H3303 C3322 0.951 . S
H3304 C3324 0.950 . S
H3305 C3325 0.950 . S
H3306 C3327 0.950 . S
H3307 C3330 0.950 . S
H3308 C3331 0.950 . S
H3309 C3333 0.950 . S
H3310 C3334 0.950 . S
H3311 C3335 0.951 . S
H3312 C3337 0.951 . S
H3313 C3339 0.950 . S
H3314 C3340 0.950 . S
H3315 C3342 0.930 1_556 S
H3316 C3345 0.950 . S
H3317 C3346 0.950 . S
H3318 C3348 0.950 . S
H3319 C3349 0.950 . S
C3320 H3302 0.951 . S
C3320 C3321 1.366 . S
C3320 C3322 1.388 . S
C3321 C3320 1.366 . S
C3321 C3325 1.385 . S
C3322 H3303 0.951 . S
C3322 C3320 1.388 . S
C3322 C3323 1.366 . S
C3323 C3322 1.366 . S
C3323 C3324 1.414 . S
C3323 C3326 1.499 . S
C3324 H3304 0.950 . S
C3324 C3323 1.414 . S
C3324 C3325 1.374 . S
C3325 H3305 0.950 . S
C3325 C3321 1.385 . S
C3325 C3324 1.374 . S
C3326 C3323 1.499 . S
C3326 C3327 1.373 . S
C3326 C3328 1.389 . S
C3327 H3306 0.950 . S
C3327 C3326 1.373 . S
C3327 C3343 1.377 . S
C3328 C3326 1.389 . S
C3328 C3329 1.524 . S
C3328 C3342 1.377 . S
C3329 C3328 1.524 . S
C3329 C3330 1.397 . S
C3329 C3334 1.363 . S
C3330 H3307 0.950 . S
C3330 C3329 1.397 . S
C3330 C3331 1.334 . S
C3331 H3308 0.950 . S
C3331 C3330 1.334 . S
C3331 C3332 1.287 . S
C3332 C3331 1.287 . S
C3332 C3333 1.524 1_554 S
C3332 H3351 0.913 1_554 S
C3333 H3309 0.950 . S
C3333 C3332 1.524 1_556 S
C3333 C3334 1.415 1_556 S
C3334 H3310 0.950 . S
C3334 C3329 1.363 . S
C3334 C3333 1.415 1_554 S
C3335 H3311 0.951 . S
C3335 C3336 1.366 . S
C3335 C3337 1.388 1_556 S
C3336 C3335 1.366 . S
C3336 C3340 1.385 . S
C3337 H3312 0.951 . S
C3337 C3335 1.388 1_554 S
C3337 C3338 1.366 . S
C3338 C3337 1.366 . S
C3338 C3339 1.414 1_554 S
C3338 C3341 1.499 . S
C3339 H3313 0.950 . S
C3339 C3338 1.414 1_556 S
C3339 C3340 1.374 . S
C3340 H3314 0.950 . S
C3340 C3336 1.385 . S
C3340 C3339 1.374 . S
C3341 C3338 1.499 . S
C3341 C3342 1.373 . S
C3341 C3343 1.389 . S
C3342 H3315 0.930 1_554 S
C3342 C3328 1.377 . S
C3342 C3341 1.373 . S
C3343 C3327 1.377 . S
C3343 C3341 1.389 . S
C3343 C3344 1.524 . S
C3344 C3343 1.524 . S
C3344 C3345 1.397 . S
C3344 C3349 1.363 . S
C3345 H3316 0.950 . S
C3345 C3344 1.397 . S
C3345 C3346 1.334 . S
C3346 H3317 0.950 . S
C3346 C3345 1.334 . S
C3346 C3347 1.287 . S
C3347 C3346 1.287 . S
C3347 C3348 1.524 . S
C3347 H3350 0.999 . S
C3348 H3318 0.950 . S
C3348 C3347 1.524 . S
C3348 C3349 1.415 . S
C3349 H3319 0.950 . S
C3349 C3344 1.363 . S
C3349 C3348 1.415 . S
H3350 C3347 0.999 . S
H3351 C3332 0.913 1_556 S
H3352 C3370 0.951 . S
H3353 C3372 0.951 . S
H3354 C3374 0.950 . S
H3355 C3375 0.950 . S
H3356 C3377 0.950 . S
H3357 C3380 0.950 . S
H3358 C3381 0.950 . S
H3359 C3383 0.950 . S
H3360 C3384 0.950 . S
H3361 C3385 0.951 . S
H3362 C3387 0.951 . S
H3363 C3389 0.950 . S
H3364 C3390 0.950 . S
H3365 C3392 0.950 . S
H3366 C3395 0.950 . S
H3367 C3396 0.950 . S
H3368 C3398 0.950 . S
H3369 C3399 0.950 . S
C3370 H3352 0.951 . S
C3370 C3371 1.366 . S
C3370 C3372 1.388 . S
C3371 C3370 1.366 . S
C3371 C3375 1.385 . S
C3372 H3353 0.951 . S
C3372 C3370 1.388 . S
C3372 C3373 1.366 . S
C3373 C3372 1.366 . S
C3373 C3374 1.414 . S
C3373 C3376 1.499 . S
C3374 H3354 0.950 . S
C3374 C3373 1.414 . S
C3374 C3375 1.374 . S
C3375 H3355 0.950 . S
C3375 C3371 1.385 . S
C3375 C3374 1.374 . S
C3376 C3373 1.499 . S
C3376 C3377 1.373 . S
C3376 C3378 1.389 . S
C3377 H3356 0.950 . S
C3377 C3376 1.373 . S
C3377 C3393 1.377 . S
C3378 C3376 1.389 . S
C3378 C3379 1.524 . S
C3378 C3392 1.377 . S
C3379 C3378 1.524 . S
C3379 C3380 1.397 . S
C3379 C3384 1.363 . S
C3380 H3357 0.950 . S
C3380 C3379 1.397 . S
C3380 C3381 1.334 . S
C3381 H3358 0.950 . S
C3381 C3380 1.334 . S
C3381 C3382 1.287 . S
C3382 C3381 1.287 . S
C3382 C3383 1.524 . S
C3382 H3401 0.913 . S
C3383 H3359 0.950 . S
C3383 C3382 1.524 . S
C3383 C3384 1.415 . S
C3384 H3360 0.950 . S
C3384 C3379 1.363 . S
C3384 C3383 1.415 . S
C3385 H3361 0.951 . S
C3385 C3386 1.366 . S
C3385 C3387 1.388 . S
C3386 C3385 1.366 . S
C3386 C3390 1.385 . S
C3387 H3362 0.951 . S
C3387 C3385 1.388 . S
C3387 C3388 1.366 . S
C3388 C3387 1.366 . S
C3388 C3389 1.414 . S
C3388 C3391 1.499 . S
C3389 H3363 0.950 . S
C3389 C3388 1.414 . S
C3389 C3390 1.374 . S
C3390 H3364 0.950 . S
C3390 C3386 1.385 . S
C3390 C3389 1.374 . S
C3391 C3388 1.499 . S
C3391 C3392 1.373 . S
C3391 C3393 1.389 . S
C3392 H3365 0.950 . S
C3392 C3378 1.377 . S
C3392 C3391 1.373 . S
C3393 C3377 1.377 . S
C3393 C3391 1.389 . S
C3393 C3394 1.524 . S
C3394 C3393 1.524 . S
C3394 C3395 1.397 . S
C3394 C3399 1.363 . S
C3395 H3366 0.950 . S
C3395 C3394 1.397 . S
C3395 C3396 1.334 . S
C3396 H3367 0.950 . S
C3396 C3395 1.334 . S
C3396 C3397 1.287 . S
C3397 C3396 1.287 . S
C3397 C3398 1.524 . S
C3397 H3400 0.999 . S
C3398 H3368 0.950 . S
C3398 C3397 1.524 . S
C3398 C3399 1.415 . S
C3399 H3369 0.950 . S
C3399 C3394 1.363 . S
C3399 C3398 1.415 . S
H3400 C3397 0.999 . S
H3401 C3382 0.913 . S
H3402 C3420 0.951 . S
H3403 C3422 0.951 . S
H3404 C3424 0.950 . S
H3405 C3425 0.950 . S
H3406 C3427 0.950 . S
H3407 C3430 0.950 . S
H3408 C3431 0.950 . S
H3409 C3433 0.950 . S
H3410 C3434 0.950 . S
H3411 C3435 0.951 . S
H3412 C3437 0.951 . S
H3413 C3439 0.950 . S
H3414 C3440 0.950 . S
H3415 C3442 0.950 . S
H3416 C3445 0.950 . S
H3417 C3446 0.950 . S
H3418 C3448 0.950 . S
H3419 C3449 0.950 . S
C3420 H3402 0.951 . S
C3420 C3421 1.366 . S
C3420 C3422 1.388 . S
C3421 C3420 1.366 . S
C3421 C3425 1.385 . S
C3422 H3403 0.951 . S
C3422 C3420 1.388 . S
C3422 C3423 1.366 . S
C3423 C3422 1.366 . S
C3423 C3424 1.414 . S
C3423 C3426 1.499 . S
C3424 H3404 0.950 . S
C3424 C3423 1.414 . S
C3424 C3425 1.374 . S
C3425 H3405 0.950 . S
C3425 C3421 1.385 . S
C3425 C3424 1.374 . S
C3426 C3423 1.499 . S
C3426 C3427 1.373 . S
C3426 C3428 1.389 . S
C3427 H3406 0.950 . S
C3427 C3426 1.373 . S
C3427 C3443 1.377 . S
C3428 C3426 1.389 . S
C3428 C3429 1.524 . S
C3428 C3442 1.377 . S
C3429 C3428 1.524 . S
C3429 C3430 1.397 . S
C3429 C3434 1.363 . S
C3430 H3407 0.950 . S
C3430 C3429 1.397 . S
C3430 C3431 1.334 . S
C3431 H3408 0.950 . S
C3431 C3430 1.334 . S
C3431 C3432 1.287 . S
C3432 C3431 1.287 . S
C3432 C3433 1.524 . S
C3432 H3451 0.913 . S
C3433 H3409 0.950 . S
C3433 C3432 1.524 . S
C3433 C3434 1.415 . S
C3434 H3410 0.950 . S
C3434 C3429 1.363 . S
C3434 C3433 1.415 . S
C3435 H3411 0.951 . S
C3435 C3436 1.366 . S
C3435 C3437 1.388 . S
C3436 C3435 1.366 . S
C3436 C3440 1.385 . S
C3437 H3412 0.951 . S
C3437 C3435 1.388 . S
C3437 C3438 1.366 . S
C3438 C3437 1.366 . S
C3438 C3439 1.414 . S
C3438 C3441 1.499 . S
C3439 H3413 0.950 . S
C3439 C3438 1.414 . S
C3439 C3440 1.374 . S
C3440 H3414 0.950 . S
C3440 C3436 1.385 . S
C3440 C3439 1.374 . S
C3441 C3438 1.499 . S
C3441 C3442 1.373 . S
C3441 C3443 1.389 . S
C3442 H3415 0.950 . S
C3442 C3428 1.377 . S
C3442 C3441 1.373 . S
C3443 C3427 1.377 . S
C3443 C3441 1.389 . S
C3443 C3444 1.524 . S
C3444 C3443 1.524 . S
C3444 C3445 1.397 . S
C3444 C3449 1.363 . S
C3445 H3416 0.950 . S
C3445 C3444 1.397 . S
C3445 C3446 1.334 . S
C3446 H3417 0.950 . S
C3446 C3445 1.334 . S
C3446 C3447 1.287 . S
C3447 C3446 1.287 . S
C3447 C3448 1.524 . S
C3447 H3450 0.999 . S
C3448 H3418 0.950 . S
C3448 C3447 1.524 . S
C3448 C3449 1.415 . S
C3449 H3419 0.950 . S
C3449 C3444 1.363 . S
C3449 C3448 1.415 . S
H3450 C3447 0.999 . S
H3451 C3432 0.913 . S
H3452 C3470 0.951 . S
H3453 C3472 0.951 . S
H3454 C3474 0.950 . S
H3455 C3475 0.950 . S
H3456 C3477 0.950 . S
H3457 C3480 0.950 . S
H3458 C3481 0.950 . S
H3459 C3483 0.950 . S
H3460 C3484 0.950 1_556 S
H3461 C3485 0.951 . S
H3462 C3487 0.951 . S
H3463 C3489 0.950 . S
H3464 C3490 0.950 . S
H3465 C3492 0.950 . S
H3466 C3495 0.950 . S
H3467 C3496 0.950 . S
H3468 C3498 0.950 . S
H3469 C3499 0.950 1_554 S
C3470 H3452 0.951 . S
C3470 C3471 1.366 . S
C3470 C3472 1.388 . S
C3471 C3470 1.366 . S
C3471 C3475 1.385 . S
C3472 H3453 0.951 . S
C3472 C3470 1.388 . S
C3472 C3473 1.366 . S
C3473 C3472 1.366 . S
C3473 C3474 1.414 . S
C3473 C3476 1.499 . S
C3474 H3454 0.950 . S
C3474 C3473 1.414 . S
C3474 C3475 1.374 . S
C3475 H3455 0.950 . S
C3475 C3471 1.385 . S
C3475 C3474 1.374 . S
C3476 C3473 1.499 . S
C3476 C3477 1.373 . S
C3476 C3478 1.389 . S
C3477 H3456 0.950 . S
C3477 C3476 1.373 . S
C3477 C3493 1.377 1_554 S
C3478 C3476 1.389 . S
C3478 C3479 1.524 . S
C3478 C3492 1.377 1_554 S
C3479 C3478 1.524 . S
C3479 C3480 1.397 . S
C3479 C3484 1.363 . S
C3480 H3457 0.950 . S
C3480 C3479 1.397 . S
C3480 C3481 1.334 . S
C3481 H3458 0.950 . S
C3481 C3480 1.334 . S
C3481 C3482 1.287 . S
C3482 C3481 1.287 . S
C3482 C3483 1.524 . S
C3482 H3501 0.913 . S
C3483 H3459 0.950 . S
C3483 C3482 1.524 . S
C3483 C3484 1.415 . S
C3484 H3460 0.950 1_554 S
C3484 C3479 1.363 . S
C3484 C3483 1.415 . S
C3485 H3461 0.951 . S
C3485 C3486 1.366 . S
C3485 C3487 1.388 . S
C3486 C3485 1.366 . S
C3486 C3490 1.385 . S
C3487 H3462 0.951 . S
C3487 C3485 1.388 . S
C3487 C3488 1.366 . S
C3488 C3487 1.366 . S
C3488 C3489 1.414 . S
C3488 C3491 1.499 . S
C3489 H3463 0.950 . S
C3489 C3488 1.414 . S
C3489 C3490 1.374 . S
C3490 H3464 0.950 . S
C3490 C3486 1.385 . S
C3490 C3489 1.374 . S
C3491 C3488 1.499 . S
C3491 C3492 1.373 . S
C3491 C3493 1.389 . S
C3492 H3465 0.950 . S
C3492 C3478 1.377 1_556 S
C3492 C3491 1.373 . S
C3493 C3477 1.377 1_556 S
C3493 C3491 1.389 . S
C3493 C3494 1.524 . S
C3494 C3493 1.524 . S
C3494 C3495 1.397 . S
C3494 C3499 1.363 . S
C3495 H3466 0.950 . S
C3495 C3494 1.397 . S
C3495 C3496 1.334 . S
C3496 H3467 0.950 . S
C3496 C3495 1.334 . S
C3496 C3497 1.287 . S
C3497 C3496 1.287 . S
C3497 C3498 1.524 . S
C3497 H3500 0.999 . S
C3498 H3468 0.950 . S
C3498 C3497 1.524 . S
C3498 C3499 1.415 . S
C3499 H3469 0.950 1_556 S
C3499 C3494 1.363 . S
C3499 C3498 1.415 . S
H3500 C3497 0.999 . S
H3501 C3482 0.913 . S
H3502 C3520 0.951 . S
H3503 C3522 0.951 . S
H3504 C3524 0.950 . S
H3505 C3525 0.950 . S
H3506 C3527 0.950 . S
H3507 C3530 0.950 . S
H3508 C3531 0.950 . S
H3509 C3533 0.950 . S
H3510 C3534 0.950 1_554 S
H3511 C3535 0.951 . S
H3512 C3537 0.951 . S
H3513 C3539 0.950 . S
H3514 C3540 0.950 . S
H3515 C3542 0.941 1_554 S
H3516 C3545 0.950 . S
H3517 C3546 0.950 . S
H3518 C3548 0.950 . S
H3519 C3549 0.950 . S
C3520 H3502 0.951 . S
C3520 C3521 1.366 . S
C3520 C3522 1.388 . S
C3521 C3520 1.366 . S
C3521 C3525 1.385 . S
C3522 H3503 0.951 . S
C3522 C3520 1.388 . S
C3522 C3523 1.366 . S
C3523 C3522 1.366 . S
C3523 C3524 1.414 . S
C3523 C3526 1.499 . S
C3524 H3504 0.950 . S
C3524 C3523 1.414 . S
C3524 C3525 1.374 . S
C3525 H3505 0.950 . S
C3525 C3521 1.385 . S
C3525 C3524 1.374 . S
C3526 C3523 1.499 . S
C3526 C3527 1.373 1_455 S
C3526 C3528 1.389 . S
C3527 H3506 0.950 . S
C3527 C3526 1.373 1_655 S
C3527 C3543 1.377 . S
C3528 C3526 1.389 . S
C3528 C3529 1.524 . S
C3528 C3542 1.377 . S
C3529 C3528 1.524 . S
C3529 C3530 1.397 . S
C3529 C3534 1.363 . S
C3530 H3507 0.950 . S
C3530 C3529 1.397 . S
C3530 C3531 1.334 . S
C3531 H3508 0.950 . S
C3531 C3530 1.334 . S
C3531 C3532 1.287 . S
C3532 C3531 1.287 . S
C3532 C3533 1.524 1_556 S
C3532 H3551 0.913 . S
C3533 H3509 0.950 . S
C3533 C3532 1.524 1_554 S
C3533 C3534 1.415 1_554 S
C3534 H3510 0.950 1_556 S
C3534 C3529 1.363 . S
C3534 C3533 1.415 1_556 S
C3535 H3511 0.951 . S
C3535 C3536 1.366 . S
C3535 C3537 1.388 1_554 S
C3536 C3535 1.366 . S
C3536 C3540 1.385 . S
C3537 H3512 0.951 . S
C3537 C3535 1.388 1_556 S
C3537 C3538 1.366 . S
C3538 C3537 1.366 . S
C3538 C3539 1.414 1_556 S
C3538 C3541 1.499 . S
C3539 H3513 0.950 . S
C3539 C3538 1.414 1_554 S
C3539 C3540 1.374 . S
C3540 H3514 0.950 . S
C3540 C3536 1.385 . S
C3540 C3539 1.374 . S
C3541 C3538 1.499 . S
C3541 C3542 1.373 1_655 S
C3541 C3543 1.389 . S
C3542 H3515 0.941 1_556 S
C3542 C3528 1.377 . S
C3542 C3541 1.373 1_455 S
C3543 C3527 1.377 . S
C3543 C3541 1.389 . S
C3543 C3544 1.524 . S
C3544 C3543 1.524 . S
C3544 C3545 1.397 . S
C3544 C3549 1.363 . S
C3545 H3516 0.950 . S
C3545 C3544 1.397 . S
C3545 C3546 1.334 . S
C3546 H3517 0.950 . S
C3546 C3545 1.334 . S
C3546 C3547 1.287 . S
C3547 C3546 1.287 . S
C3547 C3548 1.524 . S
C3547 H3550 0.999 . S
C3548 H3518 0.950 . S
C3548 C3547 1.524 . S
C3548 C3549 1.415 . S
C3549 H3519 0.950 . S
C3549 C3544 1.363 . S
C3549 C3548 1.415 . S
H3550 C3547 0.999 . S
H3551 C3532 0.913 . S
H3552 C3570 0.951 . S
H3553 C3572 0.951 . S
H3554 C3574 0.950 . S
H3555 C3575 0.950 . S
H3556 C3577 0.950 . S
H3557 C3580 0.950 . S
H3558 C3581 0.950 . S
H3559 C3583 0.950 . S
H3560 C3584 0.950 . S
H3561 C3585 0.951 . S
H3562 C3587 0.951 . S
H3563 C3589 0.950 . S
H3564 C3590 0.950 . S
H3565 C3592 0.950 . S
H3566 C3595 0.950 . S
H3567 C3596 0.950 . S
H3568 C3598 0.950 . S
H3569 C3599 0.950 . S
C3570 H3552 0.951 . S
C3570 C3571 1.366 . S
C3570 C3572 1.388 . S
C3571 C3570 1.366 . S
C3571 C3575 1.385 . S
C3572 H3553 0.951 . S
C3572 C3570 1.388 . S
C3572 C3573 1.366 . S
C3573 C3572 1.366 . S
C3573 C3574 1.414 . S
C3573 C3576 1.499 . S
C3574 H3554 0.950 . S
C3574 C3573 1.414 . S
C3574 C3575 1.374 . S
C3575 H3555 0.950 . S
C3575 C3571 1.385 . S
C3575 C3574 1.374 . S
C3576 C3573 1.499 . S
C3576 C3577 1.373 . S
C3576 C3578 1.389 . S
C3577 H3556 0.950 . S
C3577 C3576 1.373 . S
C3577 C3593 1.377 . S
C3578 C3576 1.389 . S
C3578 C3579 1.524 . S
C3578 C3592 1.377 . S
C3579 C3578 1.524 . S
C3579 C3580 1.397 . S
C3579 C3584 1.363 . S
C3580 H3557 0.950 . S
C3580 C3579 1.397 . S
C3580 C3581 1.334 . S
C3581 H3558 0.950 . S
C3581 C3580 1.334 . S
C3581 C3582 1.287 . S
C3582 C3581 1.287 . S
C3582 C3583 1.524 . S
C3582 H3601 0.913 . S
C3583 H3559 0.950 . S
C3583 C3582 1.524 . S
C3583 C3584 1.415 . S
C3584 H3560 0.950 . S
C3584 C3579 1.363 . S
C3584 C3583 1.415 . S
C3585 H3561 0.951 . S
C3585 C3586 1.366 . S
C3585 C3587 1.388 . S
C3586 C3585 1.366 . S
C3586 C3590 1.385 . S
C3587 H3562 0.951 . S
C3587 C3585 1.388 . S
C3587 C3588 1.366 . S
C3588 C3587 1.366 . S
C3588 C3589 1.414 . S
C3588 C3591 1.499 . S
C3589 H3563 0.950 . S
C3589 C3588 1.414 . S
C3589 C3590 1.374 . S
C3590 H3564 0.950 . S
C3590 C3586 1.385 . S
C3590 C3589 1.374 . S
C3591 C3588 1.499 . S
C3591 C3592 1.373 . S
C3591 C3593 1.389 . S
C3592 H3565 0.950 . S
C3592 C3578 1.377 . S
C3592 C3591 1.373 . S
C3593 C3577 1.377 . S
C3593 C3591 1.389 . S
C3593 C3594 1.524 . S
C3594 C3593 1.524 . S
C3594 C3595 1.397 . S
C3594 C3599 1.363 . S
C3595 H3566 0.950 . S
C3595 C3594 1.397 . S
C3595 C3596 1.334 . S
C3596 H3567 0.950 . S
C3596 C3595 1.334 . S
C3596 C3597 1.287 . S
C3597 C3596 1.287 . S
C3597 C3598 1.524 . S
C3597 H3600 0.999 . S
C3598 H3568 0.950 . S
C3598 C3597 1.524 . S
C3598 C3599 1.415 . S
C3599 H3569 0.950 . S
C3599 C3594 1.363 . S
C3599 C3598 1.415 . S
H3600 C3597 0.999 . S
H3601 C3582 0.913 . S
H3602 C3620 0.951 . S
H3603 C3622 0.951 . S
H3604 C3624 0.950 . S
H3605 C3625 0.950 . S
H3606 C3627 0.950 . S
H3607 C3630 0.950 . S
H3608 C3631 0.950 . S
H3609 C3633 0.950 . S
H3610 C3634 0.950 . S
H3611 C3635 0.951 . S
H3612 C3637 0.951 . S
H3613 C3639 0.950 . S
H3614 C3640 0.950 . S
H3615 C3642 0.950 . S
H3616 C3645 0.950 1_556 S
H3617 C3646 0.950 . S
H3618 C3648 0.950 . S
H3619 C3649 0.950 . S
C3620 H3602 0.951 . S
C3620 C3621 1.366 . S
C3620 C3622 1.388 . S
C3621 C3620 1.366 . S
C3621 C3625 1.385 . S
C3622 H3603 0.951 . S
C3622 C3620 1.388 . S
C3622 C3623 1.366 . S
C3623 C3622 1.366 . S
C3623 C3624 1.414 . S
C3623 C3626 1.499 . S
C3624 H3604 0.950 . S
C3624 C3623 1.414 . S
C3624 C3625 1.374 . S
C3625 H3605 0.950 . S
C3625 C3621 1.385 . S
C3625 C3624 1.374 . S
C3626 C3623 1.499 . S
C3626 C3627 1.373 . S
C3626 C3628 1.389 . S
C3627 H3606 0.950 . S
C3627 C3626 1.373 . S
C3627 C3643 1.377 . S
C3628 C3626 1.389 . S
C3628 C3629 1.524 . S
C3628 C3642 1.377 . S
C3629 C3628 1.524 . S
C3629 C3630 1.397 . S
C3629 C3634 1.363 . S
C3630 H3607 0.950 . S
C3630 C3629 1.397 . S
C3630 C3631 1.334 . S
C3631 H3608 0.950 . S
C3631 C3630 1.334 . S
C3631 C3632 1.287 . S
C3632 C3631 1.287 . S
C3632 C3633 1.524 . S
C3632 H3651 0.913 . S
C3633 H3609 0.950 . S
C3633 C3632 1.524 . S
C3633 C3634 1.415 . S
C3634 H3610 0.950 . S
C3634 C3629 1.363 . S
C3634 C3633 1.415 . S
C3635 H3611 0.951 . S
C3635 C3636 1.366 . S
C3635 C3637 1.388 . S
C3636 C3635 1.366 . S
C3636 C3640 1.385 . S
C3637 H3612 0.951 . S
C3637 C3635 1.388 . S
C3637 C3638 1.366 1_554 S
C3638 C3637 1.366 1_556 S
C3638 C3639 1.414 . S
C3638 C3641 1.499 . S
C3639 H3613 0.950 . S
C3639 C3638 1.414 . S
C3639 C3640 1.374 1_556 S
C3640 H3614 0.950 . S
C3640 C3636 1.385 . S
C3640 C3639 1.374 1_554 S
C3641 C3638 1.499 . S
C3641 C3642 1.373 . S
C3641 C3643 1.389 . S
C3642 H3615 0.950 . S
C3642 C3628 1.377 . S
C3642 C3641 1.373 . S
C3643 C3627 1.377 . S
C3643 C3641 1.389 . S
C3643 C3644 1.524 1_556 S
C3644 C3643 1.524 1_554 S
C3644 C3645 1.397 . S
C3644 C3649 1.363 . S
C3645 H3616 0.950 1_554 S
C3645 C3644 1.397 . S
C3645 C3646 1.334 . S
C3646 H3617 0.950 . S
C3646 C3645 1.334 . S
C3646 C3647 1.287 . S
C3647 C3646 1.287 . S
C3647 C3648 1.524 . S
C3647 H3650 0.999 . S
C3648 H3618 0.950 . S
C3648 C3647 1.524 . S
C3648 C3649 1.415 . S
C3649 H3619 0.950 . S
C3649 C3644 1.363 . S
C3649 C3648 1.415 . S
H3650 C3647 0.999 . S
H3651 C3632 0.913 . S
H3652 C3670 0.951 . S
H3653 C3672 0.951 . S
H3654 C3674 0.950 . S
H3655 C3675 0.950 . S
H3656 C3677 0.950 . S
H3657 C3680 0.953 . S
H3658 C3681 0.952 . S
H3659 C3683 0.950 . S
H3660 C3684 0.950 . S
H3661 C3685 0.951 . S
H3662 C3687 0.951 . S
H3663 C3689 0.950 . S
H3664 C3690 0.950 . S
H3665 C3692 0.950 . S
H3666 C3695 0.950 . S
H3667 C3696 0.950 . S
H3668 C3698 0.950 . S
H3669 C3699 0.950 . S
C3670 H3652 0.951 . S
C3670 C3671 1.366 . S
C3670 C3672 1.388 . S
C3671 C3670 1.366 . S
C3671 C3675 1.385 . S
C3672 H3653 0.951 . S
C3672 C3670 1.388 . S
C3672 C3673 1.366 . S
C3673 C3672 1.366 . S
C3673 C3674 1.414 . S
C3673 C3676 1.499 . S
C3674 H3654 0.950 . S
C3674 C3673 1.414 . S
C3674 C3675 1.374 . S
C3675 H3655 0.950 . S
C3675 C3671 1.385 . S
C3675 C3674 1.374 . S
C3676 C3673 1.499 . S
C3676 C3677 1.373 . S
C3676 C3678 1.391 . S
C3677 H3656 0.950 . S
C3677 C3676 1.373 . S
C3677 C3693 1.377 1_554 S
C3678 C3676 1.391 . S
C3678 C3679 1.525 . S
C3678 C3692 1.374 1_554 S
C3679 C3678 1.525 . S
C3679 C3680 1.395 1_554 S
C3679 C3684 1.363 . S
C3680 H3657 0.953 . S
C3680 C3679 1.395 1_556 S
C3680 C3681 1.333 1_556 S
C3681 H3658 0.952 . S
C3681 C3680 1.333 1_554 S
C3681 C3682 1.287 . S
C3682 C3681 1.287 . S
C3682 C3683 1.524 . S
C3682 H3701 0.913 . S
C3683 H3659 0.950 . S
C3683 C3682 1.524 . S
C3683 C3684 1.415 . S
C3684 H3660 0.950 . S
C3684 C3679 1.363 . S
C3684 C3683 1.415 . S
C3685 H3661 0.951 . S
C3685 C3686 1.366 . S
C3685 C3687 1.388 . S
C3686 C3685 1.366 . S
C3686 C3690 1.385 . S
C3687 H3662 0.951 . S
C3687 C3685 1.388 . S
C3687 C3688 1.366 . S
C3688 C3687 1.366 . S
C3688 C3689 1.414 . S
C3688 C3691 1.499 . S
C3689 H3663 0.950 . S
C3689 C3688 1.414 . S
C3689 C3690 1.374 . S
C3690 H3664 0.950 . S
C3690 C3686 1.385 . S
C3690 C3689 1.374 . S
C3691 C3688 1.499 . S
C3691 C3692 1.373 . S
C3691 C3693 1.389 . S
C3692 H3665 0.950 . S
C3692 C3678 1.374 1_556 S
C3692 C3691 1.373 . S
C3693 C3677 1.377 1_556 S
C3693 C3691 1.389 . S
C3693 C3694 1.524 . S
C3694 C3693 1.524 . S
C3694 C3695 1.397 . S
C3694 C3699 1.363 . S
C3695 H3666 0.950 . S
C3695 C3694 1.397 . S
C3695 C3696 1.334 . S
C3696 H3667 0.950 . S
C3696 C3695 1.334 . S
C3696 C3697 1.287 . S
C3697 C3696 1.287 . S
C3697 C3698 1.524 . S
C3697 H3700 0.999 . S
C3698 H3668 0.950 . S
C3698 C3697 1.524 . S
C3698 C3699 1.415 . S
C3699 H3669 0.950 . S
C3699 C3694 1.363 . S
C3699 C3698 1.415 . S
H3700 C3697 0.999 . S
H3701 C3682 0.913 . S
H3702 C3720 0.951 . S
H3703 C3722 0.951 . S
H3704 C3724 0.950 . S
H3705 C3725 0.950 . S
H3706 C3727 0.950 . S
H3707 C3730 0.950 . S
H3708 C3731 0.950 . S
H3709 C3733 0.950 . S
H3710 C3734 0.950 . S
H3711 C3735 0.951 . S
H3712 C3737 0.951 . S
H3713 C3739 0.950 . S
H3714 C3740 0.950 . S
H3715 C3742 0.950 . S
H3716 C3745 0.950 . S
H3717 C3746 0.950 . S
H3718 C3748 0.950 . S
H3719 C3749 0.950 . S
C3720 H3702 0.951 . S
C3720 C3721 1.366 . S
C3720 C3722 1.388 . S
C3721 C3720 1.366 . S
C3721 C3725 1.385 . S
C3722 H3703 0.951 . S
C3722 C3720 1.388 . S
C3722 C3723 1.366 . S
C3723 C3722 1.366 . S
C3723 C3724 1.414 . S
C3723 C3726 1.499 . S
C3724 H3704 0.950 . S
C3724 C3723 1.414 . S
C3724 C3725 1.374 . S
C3725 H3705 0.950 . S
C3725 C3721 1.385 . S
C3725 C3724 1.374 . S
C3726 C3723 1.499 . S
C3726 C3727 1.373 1_655 S
C3726 C3728 1.389 . S
C3727 H3706 0.950 . S
C3727 C3726 1.373 1_455 S
C3727 C3743 1.377 . S
C3728 C3726 1.389 . S
C3728 C3729 1.524 . S
C3728 C3742 1.377 . S
C3729 C3728 1.524 . S
C3729 C3730 1.397 . S
C3729 C3734 1.363 . S
C3730 H3707 0.950 . S
C3730 C3729 1.397 . S
C3730 C3731 1.334 . S
C3731 H3708 0.950 . S
C3731 C3730 1.334 . S
C3731 C3732 1.287 . S
C3732 C3731 1.287 . S
C3732 C3733 1.524 . S
C3732 H3751 0.913 . S
C3733 H3709 0.950 . S
C3733 C3732 1.524 . S
C3733 C3734 1.415 . S
C3734 H3710 0.950 . S
C3734 C3729 1.363 . S
C3734 C3733 1.415 . S
C3735 H3711 0.951 . S
C3735 C3736 1.366 . S
C3735 C3737 1.388 . S
C3736 C3735 1.366 . S
C3736 C3740 1.385 . S
C3737 H3712 0.951 . S
C3737 C3735 1.388 . S
C3737 C3738 1.366 . S
C3738 C3737 1.366 . S
C3738 C3739 1.414 . S
C3738 C3741 1.499 . S
C3739 H3713 0.950 . S
C3739 C3738 1.414 . S
C3739 C3740 1.374 . S
C3740 H3714 0.950 . S
C3740 C3736 1.385 . S
C3740 C3739 1.374 . S
C3741 C3738 1.499 . S
C3741 C3742 1.373 1_455 S
C3741 C3743 1.389 . S
C3742 H3715 0.950 . S
C3742 C3728 1.377 . S
C3742 C3741 1.373 1_655 S
C3743 C3727 1.377 . S
C3743 C3741 1.389 . S
C3743 C3744 1.524 . S
C3744 C3743 1.524 . S
C3744 C3745 1.397 . S
C3744 C3749 1.363 . S
C3745 H3716 0.950 . S
C3745 C3744 1.397 . S
C3745 C3746 1.334 . S
C3746 H3717 0.950 . S
C3746 C3745 1.334 . S
C3746 C3747 1.287 . S
C3747 C3746 1.287 . S
C3747 C3748 1.524 . S
C3747 H3750 0.999 . S
C3748 H3718 0.950 . S
C3748 C3747 1.524 . S
C3748 C3749 1.415 . S
C3749 H3719 0.950 . S
C3749 C3744 1.363 . S
C3749 C3748 1.415 . S
H3750 C3747 0.999 . S
H3751 C3732 0.913 . S
H3752 C3770 0.951 . S
H3753 C3772 0.951 . S
H3754 C3774 0.950 . S
H3755 C3775 0.950 . S
H3756 C3777 0.950 . S
H3757 C3780 0.950 . S
H3758 C3781 0.950 . S
H3759 C3783 0.950 . S
H3760 C3784 0.950 . S
H3761 C3785 0.951 . S
H3762 C3787 0.951 . S
H3763 C3789 0.950 . S
H3764 C3790 0.950 . S
H3765 C3792 0.950 . S
H3766 C3795 0.950 . S
H3767 C3796 0.950 . S
H3768 C3798 0.950 . S
H3769 C3799 0.950 . S
C3770 H3752 0.951 . S
C3770 C3771 1.366 . S
C3770 C3772 1.388 . S
C3771 C3770 1.366 . S
C3771 C3775 1.385 . S
C3772 H3753 0.951 . S
C3772 C3770 1.388 . S
C3772 C3773 1.366 . S
C3773 C3772 1.366 . S
C3773 C3774 1.414 . S
C3773 C3776 1.499 . S
C3774 H3754 0.950 . S
C3774 C3773 1.414 . S
C3774 C3775 1.374 . S
C3775 H3755 0.950 . S
C3775 C3771 1.385 . S
C3775 C3774 1.374 . S
C3776 C3773 1.499 . S
C3776 C3777 1.373 . S
C3776 C3778 1.389 1_556 S
C3777 H3756 0.950 . S
C3777 C3776 1.373 . S
C3777 C3793 1.377 1_556 S
C3778 C3776 1.389 1_554 S
C3778 C3779 1.524 . S
C3778 C3792 1.377 . S
C3779 C3778 1.524 . S
C3779 C3780 1.397 . S
C3779 C3784 1.363 . S
C3780 H3757 0.950 . S
C3780 C3779 1.397 . S
C3780 C3781 1.334 . S
C3781 H3758 0.950 . S
C3781 C3780 1.334 . S
C3781 C3782 1.287 . S
C3782 C3781 1.287 . S
C3782 C3783 1.524 . S
C3782 H3801 0.913 . S
C3783 H3759 0.950 . S
C3783 C3782 1.524 . S
C3783 C3784 1.415 . S
C3784 H3760 0.950 . S
C3784 C3779 1.363 . S
C3784 C3783 1.415 . S
C3785 H3761 0.951 . S
C3785 C3786 1.366 . S
C3785 C3787 1.388 . S
C3786 C3785 1.366 . S
C3786 C3790 1.385 . S
C3787 H3762 0.951 . S
C3787 C3785 1.388 . S
C3787 C3788 1.366 . S
C3788 C3787 1.366 . S
C3788 C3789 1.414 . S
C3788 C3791 1.499 . S
C3789 H3763 0.950 . S
C3789 C3788 1.414 . S
C3789 C3790 1.374 . S
C3790 H3764 0.950 . S
C3790 C3786 1.385 . S
C3790 C3789 1.374 . S
C3791 C3788 1.499 . S
C3791 C3792 1.373 . S
C3791 C3793 1.389 . S
C3792 H3765 0.950 . S
C3792 C3778 1.377 . S
C3792 C3791 1.373 . S
C3793 C3777 1.377 1_554 S
C3793 C3791 1.389 . S
C3793 C3794 1.524 . S
C3794 C3793 1.524 . S
C3794 C3795 1.397 1_554 S
C3794 C3799 1.363 . S
C3795 H3766 0.950 . S
C3795 C3794 1.397 1_556 S
C3795 C3796 1.334 . S
C3796 H3767 0.950 . S
C3796 C3795 1.334 . S
C3796 C3797 1.287 . S
C3797 C3796 1.287 . S
C3797 C3798 1.524 . S
C3797 H3800 0.999 . S
C3798 H3768 0.950 . S
C3798 C3797 1.524 . S
C3798 C3799 1.415 1_556 S
C3799 H3769 0.950 . S
C3799 C3794 1.363 . S
C3799 C3798 1.415 1_554 S
H3800 C3797 0.999 . S
H3801 C3782 0.913 . S
H3802 C3820 0.951 . S
H3803 C3822 0.951 . S
H3804 C3824 0.950 . S
H3805 C3825 0.950 . S
H3806 C3827 0.950 . S
H3807 C3830 0.950 1_655 S
H3808 C3831 0.950 . S
H3809 C3833 0.950 . S
H3810 C3834 0.950 . S
H3811 C3835 0.951 . S
H3812 C3837 0.951 . S
H3813 C3839 0.950 . S
H3814 C3840 0.950 . S
H3815 C3842 0.950 . S
H3816 C3845 0.950 1_455 S
H3817 C3846 0.950 . S
H3818 C3848 0.950 . S
H3819 C3849 0.950 . S
C3820 H3802 0.951 . S
C3820 C3821 1.366 . S
C3820 C3822 1.388 . S
C3821 C3820 1.366 . S
C3821 C3825 1.385 . S
C3822 H3803 0.951 . S
C3822 C3820 1.388 . S
C3822 C3823 1.366 1_556 S
C3823 C3822 1.366 1_554 S
C3823 C3824 1.414 . S
C3823 C3826 1.499 . S
C3824 H3804 0.950 . S
C3824 C3823 1.414 . S
C3824 C3825 1.374 1_554 S
C3825 H3805 0.950 . S
C3825 C3821 1.385 . S
C3825 C3824 1.374 1_556 S
C3826 C3823 1.499 . S
C3826 C3827 1.373 . S
C3826 C3828 1.389 1_655 S
C3827 H3806 0.950 . S
C3827 C3826 1.373 . S
C3827 C3843 1.377 . S
C3828 C3826 1.389 1_455 S
C3828 C3829 1.524 1_554 S
C3828 C3842 1.377 . S
C3829 C3828 1.524 1_556 S
C3829 C3830 1.397 . S
C3829 C3834 1.363 . S
C3830 H3807 0.950 1_455 S
C3830 C3829 1.397 . S
C3830 C3831 1.334 . S
C3831 H3808 0.950 . S
C3831 C3830 1.334 . S
C3831 C3832 1.287 . S
C3832 C3831 1.287 . S
C3832 C3833 1.524 . S
C3832 H3851 0.913 . S
C3833 H3809 0.950 . S
C3833 C3832 1.524 . S
C3833 C3834 1.415 . S
C3834 H3810 0.950 . S
C3834 C3829 1.363 . S
C3834 C3833 1.415 . S
C3835 H3811 0.951 . S
C3835 C3836 1.366 . S
C3835 C3837 1.388 . S
C3836 C3835 1.366 . S
C3836 C3840 1.385 . S
C3837 H3812 0.951 . S
C3837 C3835 1.388 . S
C3837 C3838 1.366 . S
C3838 C3837 1.366 . S
C3838 C3839 1.414 . S
C3838 C3841 1.499 . S
C3839 H3813 0.950 . S
C3839 C3838 1.414 . S
C3839 C3840 1.374 . S
C3840 H3814 0.950 . S
C3840 C3836 1.385 . S
C3840 C3839 1.374 . S
C3841 C3838 1.499 . S
C3841 C3842 1.373 . S
C3841 C3843 1.389 1_455 S
C3842 H3815 0.950 . S
C3842 C3828 1.377 . S
C3842 C3841 1.373 . S
C3843 C3827 1.377 . S
C3843 C3841 1.389 1_655 S
C3843 C3844 1.524 . S
C3844 C3843 1.524 . S
C3844 C3845 1.397 . S
C3844 C3849 1.363 . S
C3845 H3816 0.950 1_655 S
C3845 C3844 1.397 . S
C3845 C3846 1.334 . S
C3846 H3817 0.950 . S
C3846 C3845 1.334 . S
C3846 C3847 1.287 . S
C3847 C3846 1.287 . S
C3847 C3848 1.524 . S
C3847 H3850 0.999 . S
C3848 H3818 0.950 . S
C3848 C3847 1.524 . S
C3848 C3849 1.415 . S
C3849 H3819 0.950 . S
C3849 C3844 1.363 . S
C3849 C3848 1.415 . S
H3850 C3847 0.999 . S
H3851 C3832 0.913 . S
H3852 C3870 0.951 . S
H3853 C3872 0.951 . S
H3854 C3874 0.950 . S
H3855 C3875 0.950 . S
H3856 C3877 0.950 . S
H3857 C3880 0.950 . S
H3858 C3881 0.950 . S
H3859 C3883 0.950 . S
H3860 C3884 0.950 . S
H3861 C3885 0.951 . S
H3862 C3887 0.951 . S
H3863 C3889 0.950 . S
H3864 C3890 0.950 . S
H3865 C3892 0.950 . S
H3866 C3895 0.950 . S
H3867 C3896 0.950 . S
H3868 C3898 0.950 . S
H3869 C3899 0.950 . S
C3870 H3852 0.951 . S
C3870 C3871 1.366 . S
C3870 C3872 1.388 . S
C3871 C3870 1.366 . S
C3871 C3875 1.385 . S
C3872 H3853 0.951 . S
C3872 C3870 1.388 . S
C3872 C3873 1.366 . S
C3873 C3872 1.366 . S
C3873 C3874 1.414 . S
C3873 C3876 1.499 . S
C3874 H3854 0.950 . S
C3874 C3873 1.414 . S
C3874 C3875 1.374 . S
C3875 H3855 0.950 . S
C3875 C3871 1.385 . S
C3875 C3874 1.374 . S
C3876 C3873 1.499 . S
C3876 C3877 1.373 . S
C3876 C3878 1.389 . S
C3877 H3856 0.950 . S
C3877 C3876 1.373 . S
C3877 C3893 1.377 . S
C3878 C3876 1.389 . S
C3878 C3879 1.524 . S
C3878 C3892 1.377 . S
C3879 C3878 1.524 . S
C3879 C3880 1.397 . S
C3879 C3884 1.363 . S
C3880 H3857 0.950 . S
C3880 C3879 1.397 . S
C3880 C3881 1.334 . S
C3881 H3858 0.950 . S
C3881 C3880 1.334 . S
C3881 C3882 1.287 . S
C3882 C3881 1.287 . S
C3882 C3883 1.524 . S
C3882 H3901 0.913 . S
C3883 H3859 0.950 . S
C3883 C3882 1.524 . S
C3883 C3884 1.415 . S
C3884 H3860 0.950 . S
C3884 C3879 1.363 . S
C3884 C3883 1.415 . S
C3885 H3861 0.951 . S
C3885 C3886 1.366 . S
C3885 C3887 1.388 . S
C3886 C3885 1.366 . S
C3886 C3890 1.385 . S
C3887 H3862 0.951 . S
C3887 C3885 1.388 . S
C3887 C3888 1.366 . S
C3888 C3887 1.366 . S
C3888 C3889 1.414 . S
C3888 C3891 1.499 . S
C3889 H3863 0.950 . S
C3889 C3888 1.414 . S
C3889 C3890 1.374 . S
C3890 H3864 0.950 . S
C3890 C3886 1.385 . S
C3890 C3889 1.374 . S
C3891 C3888 1.499 . S
C3891 C3892 1.373 . S
C3891 C3893 1.389 . S
C3892 H3865 0.950 . S
C3892 C3878 1.377 . S
C3892 C3891 1.373 . S
C3893 C3877 1.377 . S
C3893 C3891 1.389 . S
C3893 C3894 1.524 . S
C3894 C3893 1.524 . S
C3894 C3895 1.397 . S
C3894 C3899 1.363 . S
C3895 H3866 0.950 . S
C3895 C3894 1.397 . S
C3895 C3896 1.334 . S
C3896 H3867 0.950 . S
C3896 C3895 1.334 . S
C3896 C3897 1.287 . S
C3897 C3896 1.287 . S
C3897 C3898 1.524 . S
C3897 H3900 0.999 . S
C3898 H3868 0.950 . S
C3898 C3897 1.524 . S
C3898 C3899 1.415 . S
C3899 H3869 0.950 . S
C3899 C3894 1.363 . S
C3899 C3898 1.415 . S
H3900 C3897 0.999 . S
H3901 C3882 0.913 . S
H3902 C3920 0.951 . S
H3903 C3922 0.951 . S
H3904 C3924 0.950 . S
H3905 C3925 0.950 . S
H3906 C3927 0.950 . S
H3907 C3930 0.950 . S
H3908 C3931 0.950 . S
H3909 C3933 0.950 . S
H3910 C3934 0.950 . S
H3911 C3935 0.951 . S
H3912 C3937 0.951 . S
H3913 C3939 0.950 . S
H3914 C3940 0.950 . S
H3915 C3942 0.950 . S
H3916 C3945 0.950 . S
H3917 C3946 0.950 . S
H3918 C3948 0.950 . S
H3919 C3949 0.950 . S
C3920 H3902 0.951 . S
C3920 C3921 1.366 . S
C3920 C3922 1.388 . S
C3921 C3920 1.366 . S
C3921 C3925 1.385 . S
C3922 H3903 0.951 . S
C3922 C3920 1.388 . S
C3922 C3923 1.366 . S
C3923 C3922 1.366 . S
C3923 C3924 1.414 . S
C3923 C3926 1.499 . S
C3924 H3904 0.950 . S
C3924 C3923 1.414 . S
C3924 C3925 1.374 . S
C3925 H3905 0.950 . S
C3925 C3921 1.385 . S
C3925 C3924 1.374 . S
C3926 C3923 1.499 . S
C3926 C3927 1.373 . S
C3926 C3928 1.389 . S
C3927 H3906 0.950 . S
C3927 C3926 1.373 . S
C3927 C3943 1.377 . S
C3928 C3926 1.389 . S
C3928 C3929 1.524 . S
C3928 C3942 1.377 . S
C3929 C3928 1.524 . S
C3929 C3930 1.397 . S
C3929 C3934 1.363 . S
C3930 H3907 0.950 . S
C3930 C3929 1.397 . S
C3930 C3931 1.334 . S
C3931 H3908 0.950 . S
C3931 C3930 1.334 . S
C3931 C3932 1.287 . S
C3932 C3931 1.287 . S
C3932 C3933 1.524 . S
C3932 H3951 0.913 . S
C3933 H3909 0.950 . S
C3933 C3932 1.524 . S
C3933 C3934 1.415 . S
C3934 H3910 0.950 . S
C3934 C3929 1.363 . S
C3934 C3933 1.415 . S
C3935 H3911 0.951 . S
C3935 C3936 1.366 . S
C3935 C3937 1.388 . S
C3936 C3935 1.366 . S
C3936 C3940 1.385 . S
C3937 H3912 0.951 . S
C3937 C3935 1.388 . S
C3937 C3938 1.366 . S
C3938 C3937 1.366 . S
C3938 C3939 1.414 . S
C3938 C3941 1.499 . S
C3939 H3913 0.950 . S
C3939 C3938 1.414 . S
C3939 C3940 1.374 . S
C3940 H3914 0.950 . S
C3940 C3936 1.385 . S
C3940 C3939 1.374 . S
C3941 C3938 1.499 . S
C3941 C3942 1.373 . S
C3941 C3943 1.389 . S
C3942 H3915 0.950 . S
C3942 C3928 1.377 . S
C3942 C3941 1.373 . S
C3943 C3927 1.377 . S
C3943 C3941 1.389 . S
C3943 C3944 1.524 . S
C3944 C3943 1.524 . S
C3944 C3945 1.397 . S
C3944 C3949 1.363 . S
C3945 H3916 0.950 . S
C3945 C3944 1.397 . S
C3945 C3946 1.334 . S
C3946 H3917 0.950 . S
C3946 C3945 1.334 . S
C3946 C3947 1.287 . S
C3947 C3946 1.287 . S
C3947 C3948 1.524 . S
C3947 H3950 0.999 . S
C3948 H3918 0.950 . S
C3948 C3947 1.524 . S
C3948 C3949 1.415 . S
C3949 H3919 0.950 . S
C3949 C3944 1.363 . S
C3949 C3948 1.415 . S
H3950 C3947 0.999 . S
H3951 C3932 0.913 . S
H3952 C3970 0.951 . S
H3953 C3972 0.951 . S
H3954 C3974 0.950 . S
H3955 C3975 0.950 . S
H3956 C3977 0.950 . S
H3957 C3980 0.950 . S
H3958 C3981 0.950 . S
H3959 C3983 0.950 . S
H3960 C3984 0.950 . S
H3961 C3985 0.951 . S
H3962 C3987 0.951 . S
H3963 C3989 0.950 . S
H3964 C3990 0.950 . S
H3965 C3992 0.950 . S
H3966 C3995 0.950 . S
H3967 C3996 0.950 . S
H3968 C3998 0.950 . S
H3969 C3999 0.950 . S
C3970 H3952 0.951 . S
C3970 C3971 1.366 . S
C3970 C3972 1.388 . S
C3971 C3970 1.366 . S
C3971 C3975 1.385 . S
C3972 H3953 0.951 . S
C3972 C3970 1.388 . S
C3972 C3973 1.366 . S
C3973 C3972 1.366 . S
C3973 C3974 1.414 . S
C3973 C3976 1.499 . S
C3974 H3954 0.950 . S
C3974 C3973 1.414 . S
C3974 C3975 1.374 . S
C3975 H3955 0.950 . S
C3975 C3971 1.385 . S
C3975 C3974 1.374 . S
C3976 C3973 1.499 . S
C3976 C3977 1.373 . S
C3976 C3978 1.389 . S
C3977 H3956 0.950 . S
C3977 C3976 1.373 . S
C3977 C3993 1.377 . S
C3978 C3976 1.389 . S
C3978 C3979 1.524 . S
C3978 C3992 1.377 . S
C3979 C3978 1.524 . S
C3979 C3980 1.397 . S
C3979 C3984 1.363 . S
C3980 H3957 0.950 . S
C3980 C3979 1.397 . S
C3980 C3981 1.334 . S
C3981 H3958 0.950 . S
C3981 C3980 1.334 . S
C3981 C3982 1.287 . S
C3982 C3981 1.287 . S
C3982 C3983 1.524 . S
C3982 H4001 0.913 . S
C3983 H3959 0.950 . S
C3983 C3982 1.524 . S
C3983 C3984 1.415 . S
C3984 H3960 0.950 . S
C3984 C3979 1.363 . S
C3984 C3983 1.415 . S
C3985 H3961 0.951 . S
C3985 C3986 1.366 . S
C3985 C3987 1.388 . S
C3986 C3985 1.366 . S
C3986 C3990 1.385 . S
C3987 H3962 0.951 . S
C3987 C3985 1.388 . S
C3987 C3988 1.366 . S
C3988 C3987 1.366 . S
C3988 C3989 1.414 . S
C3988 C3991 1.499 . S
C3989 H3963 0.950 . S
C3989 C3988 1.414 . S
C3989 C3990 1.374 . S
C3990 H3964 0.950 . S
C3990 C3986 1.385 . S
C3990 C3989 1.374 . S
C3991 C3988 1.499 . S
C3991 C3992 1.373 . S
C3991 C3993 1.389 . S
C3992 H3965 0.950 . S
C3992 C3978 1.377 . S
C3992 C3991 1.373 . S
C3993 C3977 1.377 . S
C3993 C3991 1.389 . S
C3993 C3994 1.524 . S
C3994 C3993 1.524 . S
C3994 C3995 1.397 . S
C3994 C3999 1.363 . S
C3995 H3966 0.950 . S
C3995 C3994 1.397 . S
C3995 C3996 1.334 . S
C3996 H3967 0.950 . S
C3996 C3995 1.334 . S
C3996 C3997 1.287 . S
C3997 C3996 1.287 . S
C3997 C3998 1.524 . S
C3997 H4000 0.999 . S
C3998 H3968 0.950 . S
C3998 C3997 1.524 . S
C3998 C3999 1.415 . S
C3999 H3969 0.950 . S
C3999 C3994 1.363 . S
C3999 C3998 1.415 . S
H4000 C3997 0.999 . S
H4001 C3982 0.913 . S
H4002 C4020 0.951 . S
H4003 C4022 0.951 . S
H4004 C4024 0.950 . S
H4005 C4025 0.950 . S
H4006 C4027 0.950 . S
H4007 C4030 0.950 . S
H4008 C4031 0.950 . S
H4009 C4033 0.950 . S
H4010 C4034 0.950 1_556 S
H4011 C4035 0.951 . S
H4012 C4037 0.951 . S
H4013 C4039 0.950 . S
H4014 C4040 0.950 . S
H4015 C4042 0.950 1_556 S
H4016 C4045 0.950 . S
H4017 C4046 0.950 . S
H4018 C4048 0.950 . S
H4019 C4049 0.950 . S
C4020 H4002 0.951 . S
C4020 C4021 1.366 . S
C4020 C4022 1.388 . S
C4021 C4020 1.366 . S
C4021 C4025 1.385 . S
C4022 H4003 0.951 . S
C4022 C4020 1.388 . S
C4022 C4023 1.366 . S
C4023 C4022 1.366 . S
C4023 C4024 1.414 . S
C4023 C4026 1.499 . S
C4024 H4004 0.950 . S
C4024 C4023 1.414 . S
C4024 C4025 1.374 . S
C4025 H4005 0.950 . S
C4025 C4021 1.385 . S
C4025 C4024 1.374 . S
C4026 C4023 1.499 . S
C4026 C4027 1.373 . S
C4026 C4028 1.389 . S
C4027 H4006 0.950 . S
C4027 C4026 1.373 . S
C4027 C4043 1.377 . S
C4028 C4026 1.389 . S
C4028 C4029 1.524 . S
C4028 C4042 1.377 . S
C4029 C4028 1.524 . S
C4029 C4030 1.397 . S
C4029 C4034 1.363 . S
C4030 H4007 0.950 . S
C4030 C4029 1.397 . S
C4030 C4031 1.334 . S
C4031 H4008 0.950 . S
C4031 C4030 1.334 . S
C4031 C4032 1.287 . S
C4032 C4031 1.287 . S
C4032 C4033 1.524 1_554 S
C4032 H4051 0.916 . S
C4033 H4009 0.950 . S
C4033 C4032 1.524 1_556 S
C4033 C4034 1.415 1_556 S
C4034 H4010 0.950 1_554 S
C4034 C4029 1.363 . S
C4034 C4033 1.415 1_554 S
C4035 H4011 0.951 . S
C4035 C4036 1.366 . S
C4035 C4037 1.388 1_556 S
C4036 C4035 1.366 . S
C4036 C4040 1.385 . S
C4037 H4012 0.951 . S
C4037 C4035 1.388 1_554 S
C4037 C4038 1.366 . S
C4038 C4037 1.366 . S
C4038 C4039 1.414 1_554 S
C4038 C4041 1.499 . S
C4039 H4013 0.950 . S
C4039 C4038 1.414 1_556 S
C4039 C4040 1.374 . S
C4040 H4014 0.950 . S
C4040 C4036 1.385 . S
C4040 C4039 1.374 . S
C4041 C4038 1.499 . S
C4041 C4042 1.373 . S
C4041 C4043 1.389 . S
C4042 H4015 0.950 1_554 S
C4042 C4028 1.377 . S
C4042 C4041 1.373 . S
C4043 C4027 1.377 . S
C4043 C4041 1.389 . S
C4043 C4044 1.524 . S
C4044 C4043 1.524 . S
C4044 C4045 1.397 . S
C4044 C4049 1.363 . S
C4045 H4016 0.950 . S
C4045 C4044 1.397 . S
C4045 C4046 1.334 . S
C4046 H4017 0.950 . S
C4046 C4045 1.334 . S
C4046 C4047 1.287 . S
C4047 C4046 1.287 . S
C4047 C4048 1.524 . S
C4047 H4050 0.999 . S
C4048 H4018 0.950 . S
C4048 C4047 1.524 . S
C4048 C4049 1.415 . S
C4049 H4019 0.950 . S
C4049 C4044 1.363 . S
C4049 C4048 1.415 . S
H4050 C4047 0.999 . S
H4051 C4032 0.916 . S
H4052 C4070 0.951 . S
H4053 C4072 0.951 . S
H4054 C4074 0.950 . S
H4055 C4075 0.950 . S
H4056 C4077 0.950 . S
H4057 C4080 0.950 . S
H4058 C4081 0.950 . S
H4059 C4083 0.950 . S
H4060 C4084 0.950 . S
H4061 C4085 0.951 . S
H4062 C4087 0.951 . S
H4063 C4089 0.950 . S
H4064 C4090 0.950 . S
H4065 C4092 0.950 . S
H4066 C4095 0.950 . S
H4067 C4096 0.950 . S
H4068 C4098 0.950 . S
H4069 C4099 0.950 . S
C4070 H4052 0.951 . S
C4070 C4071 1.366 . S
C4070 C4072 1.388 . S
C4071 C4070 1.366 . S
C4071 C4075 1.385 . S
C4072 H4053 0.951 . S
C4072 C4070 1.388 . S
C4072 C4073 1.366 . S
C4073 C4072 1.366 . S
C4073 C4074 1.414 . S
C4073 C4076 1.499 . S
C4074 H4054 0.950 . S
C4074 C4073 1.414 . S
C4074 C4075 1.374 . S
C4075 H4055 0.950 . S
C4075 C4071 1.385 . S
C4075 C4074 1.374 . S
C4076 C4073 1.499 . S
C4076 C4077 1.373 . S
C4076 C4078 1.389 . S
C4077 H4056 0.950 . S
C4077 C4076 1.373 . S
C4077 C4093 1.377 1_554 S
C4078 C4076 1.389 . S
C4078 C4079 1.524 . S
C4078 C4092 1.377 . S
C4079 C4078 1.524 . S
C4079 C4080 1.397 . S
C4079 C4084 1.363 . S
C4080 H4057 0.950 . S
C4080 C4079 1.397 . S
C4080 C4081 1.334 . S
C4081 H4058 0.950 . S
C4081 C4080 1.334 . S
C4081 C4082 1.287 . S
C4082 C4081 1.287 . S
C4082 C4083 1.524 . S
C4082 H4101 0.913 . S
C4083 H4059 0.950 . S
C4083 C4082 1.524 . S
C4083 C4084 1.415 . S
C4084 H4060 0.950 . S
C4084 C4079 1.363 . S
C4084 C4083 1.415 . S
C4085 H4061 0.951 . S
C4085 C4086 1.366 . S
C4085 C4087 1.388 . S
C4086 C4085 1.366 . S
C4086 C4090 1.385 . S
C4087 H4062 0.951 . S
C4087 C4085 1.388 . S
C4087 C4088 1.366 . S
C4088 C4087 1.366 . S
C4088 C4089 1.414 . S
C4088 C4091 1.499 . S
C4089 H4063 0.950 . S
C4089 C4088 1.414 . S
C4089 C4090 1.374 . S
C4090 H4064 0.950 . S
C4090 C4086 1.385 . S
C4090 C4089 1.374 . S
C4091 C4088 1.499 . S
C4091 C4092 1.373 1_556 S
C4091 C4093 1.389 . S
C4092 H4065 0.950 . S
C4092 C4078 1.377 . S
C4092 C4091 1.373 1_554 S
C4093 C4077 1.377 1_556 S
C4093 C4091 1.389 . S
C4093 C4094 1.524 . S
C4094 C4093 1.524 . S
C4094 C4095 1.397 . S
C4094 C4099 1.363 . S
C4095 H4066 0.950 . S
C4095 C4094 1.397 . S
C4095 C4096 1.334 . S
C4096 H4067 0.950 . S
C4096 C4095 1.334 . S
C4096 C4097 1.287 . S
C4097 C4096 1.287 . S
C4097 C4098 1.524 . S
C4097 H4100 0.999 . S
C4098 H4068 0.950 . S
C4098 C4097 1.524 . S
C4098 C4099 1.415 . S
C4099 H4069 0.950 . S
C4099 C4094 1.363 . S
C4099 C4098 1.415 . S
H4100 C4097 0.999 . S
H4101 C4082 0.913 . S
H4102 C4120 0.951 . S
H4103 C4122 0.951 . S
H4104 C4124 0.950 . S
H4105 C4125 0.950 . S
H4106 C4127 0.950 . S
H4107 C4130 0.950 . S
H4108 C4131 0.950 . S
H4109 C4133 0.950 . S
H4110 C4134 0.950 . S
H4111 C4135 0.951 . S
H4112 C4137 0.951 . S
H4113 C4139 0.950 . S
H4114 C4140 0.950 . S
H4115 C4142 0.950 . S
H4116 C4145 0.950 . S
H4117 C4146 0.950 . S
H4118 C4148 0.950 . S
H4119 C4149 0.950 . S
C4120 H4102 0.951 . S
C4120 C4121 1.366 . S
C4120 C4122 1.388 . S
C4121 C4120 1.366 . S
C4121 C4125 1.385 . S
C4122 H4103 0.951 . S
C4122 C4120 1.388 . S
C4122 C4123 1.366 . S
C4123 C4122 1.366 . S
C4123 C4124 1.414 . S
C4123 C4126 1.499 . S
C4124 H4104 0.950 . S
C4124 C4123 1.414 . S
C4124 C4125 1.374 . S
C4125 H4105 0.950 . S
C4125 C4121 1.385 . S
C4125 C4124 1.374 . S
C4126 C4123 1.499 . S
C4126 C4127 1.373 1_455 S
C4126 C4128 1.389 . S
C4127 H4106 0.950 . S
C4127 C4126 1.373 1_655 S
C4127 C4143 1.377 . S
C4128 C4126 1.389 . S
C4128 C4129 1.524 . S
C4128 C4142 1.377 . S
C4129 C4128 1.524 . S
C4129 C4130 1.397 . S
C4129 C4134 1.363 . S
C4130 H4107 0.950 . S
C4130 C4129 1.397 . S
C4130 C4131 1.334 . S
C4131 H4108 0.950 . S
C4131 C4130 1.334 . S
C4131 C4132 1.287 . S
C4132 C4131 1.287 . S
C4132 C4133 1.524 . S
C4132 H4151 0.913 . S
C4133 H4109 0.950 . S
C4133 C4132 1.524 . S
C4133 C4134 1.415 . S
C4134 H4110 0.950 . S
C4134 C4129 1.363 . S
C4134 C4133 1.415 . S
C4135 H4111 0.951 . S
C4135 C4136 1.366 . S
C4135 C4137 1.388 . S
C4136 C4135 1.366 . S
C4136 C4140 1.385 . S
C4137 H4112 0.951 . S
C4137 C4135 1.388 . S
C4137 C4138 1.366 . S
C4138 C4137 1.366 . S
C4138 C4139 1.414 . S
C4138 C4141 1.499 . S
C4139 H4113 0.950 . S
C4139 C4138 1.414 . S
C4139 C4140 1.374 . S
C4140 H4114 0.950 . S
C4140 C4136 1.385 . S
C4140 C4139 1.374 . S
C4141 C4138 1.499 . S
C4141 C4142 1.373 1_655 S
C4141 C4143 1.389 . S
C4142 H4115 0.950 . S
C4142 C4128 1.377 . S
C4142 C4141 1.373 1_455 S
C4143 C4127 1.377 . S
C4143 C4141 1.389 . S
C4143 C4144 1.524 . S
C4144 C4143 1.524 . S
C4144 C4145 1.397 . S
C4144 C4149 1.363 . S
C4145 H4116 0.950 . S
C4145 C4144 1.397 . S
C4145 C4146 1.334 . S
C4146 H4117 0.950 . S
C4146 C4145 1.334 . S
C4146 C4147 1.287 . S
C4147 C4146 1.287 . S
C4147 C4148 1.524 . S
C4147 H4150 0.999 . S
C4148 H4118 0.950 . S
C4148 C4147 1.524 . S
C4148 C4149 1.415 . S
C4149 H4119 0.950 . S
C4149 C4144 1.363 . S
C4149 C4148 1.415 . S
H4150 C4147 0.999 . S
H4151 C4132 0.913 . S
H4152 C4170 0.951 . S
H4153 C4172 0.951 . S
H4154 C4174 0.950 . S
H4155 C4175 0.950 . S
H4156 C4177 0.950 . S
H4157 C4180 0.950 . S
H4158 C4181 0.950 . S
H4159 C4183 0.950 . S
H4160 C4184 0.950 . S
H4161 C4185 0.951 . S
H4162 C4187 0.951 . S
H4163 C4189 0.950 . S
H4164 C4190 0.950 . S
H4165 C4192 0.950 . S
H4166 C4195 0.950 . S
H4167 C4196 0.950 . S
H4168 C4198 0.950 . S
H4169 C4199 0.950 . S
C4170 H4152 0.951 . S
C4170 C4171 1.366 . S
C4170 C4172 1.388 . S
C4171 C4170 1.366 . S
C4171 C4175 1.385 . S
C4172 H4153 0.951 . S
C4172 C4170 1.388 . S
C4172 C4173 1.366 . S
C4173 C4172 1.366 . S
C4173 C4174 1.414 . S
C4173 C4176 1.499 . S
C4174 H4154 0.950 . S
C4174 C4173 1.414 . S
C4174 C4175 1.374 . S
C4175 H4155 0.950 . S
C4175 C4171 1.385 . S
C4175 C4174 1.374 . S
C4176 C4173 1.499 . S
C4176 C4177 1.373 1_554 S
C4176 C4178 1.389 . S
C4177 H4156 0.950 . S
C4177 C4176 1.373 1_556 S
C4177 C4193 1.377 . S
C4178 C4176 1.389 . S
C4178 C4179 1.524 . S
C4178 C4192 1.377 1_554 S
C4179 C4178 1.524 . S
C4179 C4180 1.397 . S
C4179 C4184 1.363 . S
C4180 H4157 0.950 . S
C4180 C4179 1.397 . S
C4180 C4181 1.334 . S
C4181 H4158 0.950 . S
C4181 C4180 1.334 . S
C4181 C4182 1.287 . S
C4182 C4181 1.287 . S
C4182 C4183 1.524 . S
C4182 H4201 0.913 . S
C4183 H4159 0.950 . S
C4183 C4182 1.524 . S
C4183 C4184 1.415 . S
C4184 H4160 0.950 . S
C4184 C4179 1.363 . S
C4184 C4183 1.415 . S
C4185 H4161 0.951 . S
C4185 C4186 1.366 . S
C4185 C4187 1.388 . S
C4186 C4185 1.366 . S
C4186 C4190 1.385 . S
C4187 H4162 0.951 . S
C4187 C4185 1.388 . S
C4187 C4188 1.366 . S
C4188 C4187 1.366 . S
C4188 C4189 1.414 . S
C4188 C4191 1.499 . S
C4189 H4163 0.950 . S
C4189 C4188 1.414 . S
C4189 C4190 1.374 . S
C4190 H4164 0.950 . S
C4190 C4186 1.385 . S
C4190 C4189 1.374 . S
C4191 C4188 1.499 . S
C4191 C4192 1.373 . S
C4191 C4193 1.389 . S
C4192 H4165 0.950 . S
C4192 C4178 1.377 1_556 S
C4192 C4191 1.373 . S
C4193 C4177 1.377 . S
C4193 C4191 1.389 . S
C4193 C4194 1.524 . S
C4194 C4193 1.524 . S
C4194 C4195 1.397 . S
C4194 C4199 1.363 . S
C4195 H4166 0.950 . S
C4195 C4194 1.397 . S
C4195 C4196 1.334 . S
C4196 H4167 0.950 . S
C4196 C4195 1.334 . S
C4196 C4197 1.287 . S
C4197 C4196 1.287 . S
C4197 C4198 1.524 . S
C4197 H4200 0.999 . S
C4198 H4168 0.950 . S
C4198 C4197 1.524 . S
C4198 C4199 1.415 . S
C4199 H4169 0.950 . S
C4199 C4194 1.363 . S
C4199 C4198 1.415 . S
H4200 C4197 0.999 . S
H4201 C4182 0.913 . S
H4202 C4220 0.951 . S
H4203 C4222 0.951 . S
H4204 C4224 0.950 . S
H4205 C4225 0.950 . S
H4206 C4227 0.950 . S
H4207 C4230 0.950 . S
H4208 C4231 0.953 . S
H4209 C4233 0.950 . S
H4210 C4234 0.950 . S
H4211 C4235 0.951 . S
H4212 C4237 0.951 . S
H4213 C4239 0.950 . S
H4214 C4240 0.950 . S
H4215 C4242 0.950 . S
H4216 C4245 0.954 . S
H4217 C4246 0.950 . S
H4218 C4248 0.950 . S
H4219 C4249 0.950 . S
C4220 H4202 0.951 . S
C4220 C4221 1.366 . S
C4220 C4222 1.388 . S
C4221 C4220 1.366 . S
C4221 C4225 1.385 . S
C4222 H4203 0.951 . S
C4222 C4220 1.388 . S
C4222 C4223 1.366 . S
C4223 C4222 1.366 . S
C4223 C4224 1.414 . S
C4223 C4226 1.499 . S
C4224 H4204 0.950 . S
C4224 C4223 1.414 . S
C4224 C4225 1.374 . S
C4225 H4205 0.950 . S
C4225 C4221 1.385 . S
C4225 C4224 1.374 . S
C4226 C4223 1.499 . S
C4226 C4227 1.373 . S
C4226 C4228 1.389 . S
C4227 H4206 0.950 . S
C4227 C4226 1.373 . S
C4227 C4243 1.377 1_655 S
C4228 C4226 1.389 . S
C4228 C4229 1.524 . S
C4228 C4242 1.377 1_655 S
C4229 C4228 1.524 . S
C4229 C4230 1.397 . S
C4229 C4234 1.363 . S
C4230 H4207 0.950 . S
C4230 C4229 1.397 . S
C4230 C4231 1.334 . S
C4231 H4208 0.953 . S
C4231 C4230 1.334 . S
C4231 C4232 1.287 . S
C4232 C4231 1.287 . S
C4232 C4233 1.524 . S
C4232 H4251 0.913 . S
C4233 H4209 0.950 . S
C4233 C4232 1.524 . S
C4233 C4234 1.415 . S
C4234 H4210 0.950 . S
C4234 C4229 1.363 . S
C4234 C4233 1.415 . S
C4235 H4211 0.951 . S
C4235 C4236 1.366 . S
C4235 C4237 1.388 1_554 S
C4236 C4235 1.366 . S
C4236 C4240 1.385 . S
C4237 H4212 0.951 . S
C4237 C4235 1.388 1_556 S
C4237 C4238 1.366 . S
C4238 C4237 1.366 . S
C4238 C4239 1.414 1_556 S
C4238 C4241 1.499 . S
C4239 H4213 0.950 . S
C4239 C4238 1.414 1_554 S
C4239 C4240 1.374 . S
C4240 H4214 0.950 . S
C4240 C4236 1.385 . S
C4240 C4239 1.374 . S
C4241 C4238 1.499 . S
C4241 C4242 1.373 . S
C4241 C4243 1.389 . S
C4242 H4215 0.950 . S
C4242 C4228 1.377 1_455 S
C4242 C4241 1.373 . S
C4243 C4227 1.377 1_455 S
C4243 C4241 1.389 . S
C4243 C4244 1.524 . S
C4244 C4243 1.524 . S
C4244 C4245 1.393 1_456 S
C4244 C4249 1.363 . S
C4245 H4216 0.954 . S
C4245 C4244 1.393 1_654 S
C4245 C4246 1.335 . S
C4246 H4217 0.950 . S
C4246 C4245 1.335 . S
C4246 C4247 1.287 . S
C4247 C4246 1.287 . S
C4247 C4248 1.522 1_654 S
C4247 H4250 0.999 . S
C4248 H4218 0.950 . S
C4248 C4247 1.522 1_456 S
C4248 C4249 1.415 . S
C4249 H4219 0.950 . S
C4249 C4244 1.363 . S
C4249 C4248 1.415 . S
H4250 C4247 0.999 . S
H4251 C4232 0.913 . S
H4252 C4270 0.951 . S
H4253 C4272 0.951 . S
H4254 C4274 0.950 . S
H4255 C4275 0.950 . S
H4256 C4277 0.950 . S
H4257 C4280 0.950 . S
H4258 C4281 0.950 . S
H4259 C4283 0.950 . S
H4260 C4284 0.950 . S
H4261 C4285 0.951 . S
H4262 C4287 0.951 . S
H4263 C4289 0.950 . S
H4264 C4290 0.950 . S
H4265 C4292 0.950 . S
H4266 C4295 0.950 . S
H4267 C4296 0.950 . S
H4268 C4298 0.950 . S
H4269 C4299 0.950 . S
C4270 H4252 0.951 . S
C4270 C4271 1.366 . S
C4270 C4272 1.388 . S
C4271 C4270 1.366 . S
C4271 C4275 1.385 . S
C4272 H4253 0.951 . S
C4272 C4270 1.388 . S
C4272 C4273 1.366 . S
C4273 C4272 1.366 . S
C4273 C4274 1.414 . S
C4273 C4276 1.499 . S
C4274 H4254 0.950 . S
C4274 C4273 1.414 . S
C4274 C4275 1.374 . S
C4275 H4255 0.950 . S
C4275 C4271 1.385 . S
C4275 C4274 1.374 . S
C4276 C4273 1.499 . S
C4276 C4277 1.373 . S
C4276 C4278 1.389 . S
C4277 H4256 0.950 . S
C4277 C4276 1.373 . S
C4277 C4293 1.377 . S
C4278 C4276 1.389 . S
C4278 C4279 1.524 . S
C4278 C4292 1.377 . S
C4279 C4278 1.524 . S
C4279 C4280 1.397 . S
C4279 C4284 1.363 . S
C4280 H4257 0.950 . S
C4280 C4279 1.397 . S
C4280 C4281 1.334 . S
C4281 H4258 0.950 . S
C4281 C4280 1.334 . S
C4281 C4282 1.287 . S
C4282 C4281 1.287 . S
C4282 C4283 1.524 . S
C4282 H4301 0.913 . S
C4283 H4259 0.950 . S
C4283 C4282 1.524 . S
C4283 C4284 1.415 . S
C4284 H4260 0.950 . S
C4284 C4279 1.363 . S
C4284 C4283 1.415 . S
C4285 H4261 0.951 . S
C4285 C4286 1.366 . S
C4285 C4287 1.388 . S
C4286 C4285 1.366 . S
C4286 C4290 1.385 . S
C4287 H4262 0.951 . S
C4287 C4285 1.388 . S
C4287 C4288 1.366 . S
C4288 C4287 1.366 . S
C4288 C4289 1.414 . S
C4288 C4291 1.499 . S
C4289 H4263 0.950 . S
C4289 C4288 1.414 . S
C4289 C4290 1.374 . S
C4290 H4264 0.950 . S
C4290 C4286 1.385 . S
C4290 C4289 1.374 . S
C4291 C4288 1.499 . S
C4291 C4292 1.373 . S
C4291 C4293 1.389 . S
C4292 H4265 0.950 . S
C4292 C4278 1.377 . S
C4292 C4291 1.373 . S
C4293 C4277 1.377 . S
C4293 C4291 1.389 . S
C4293 C4294 1.524 . S
C4294 C4293 1.524 . S
C4294 C4295 1.397 . S
C4294 C4299 1.363 . S
C4295 H4266 0.950 . S
C4295 C4294 1.397 . S
C4295 C4296 1.334 . S
C4296 H4267 0.950 . S
C4296 C4295 1.334 . S
C4296 C4297 1.287 . S
C4297 C4296 1.287 . S
C4297 C4298 1.524 . S
C4297 H4300 0.999 . S
C4298 H4268 0.950 . S
C4298 C4297 1.524 . S
C4298 C4299 1.415 . S
C4299 H4269 0.950 . S
C4299 C4294 1.363 . S
C4299 C4298 1.415 . S
H4300 C4297 0.999 . S
H4301 C4282 0.913 . S
H4302 C4320 0.951 . S
H4303 C4322 0.951 . S
H4304 C4324 0.950 . S
H4305 C4325 0.950 . S
H4306 C4327 0.950 . S
H4307 C4330 0.950 . S
H4308 C4331 0.950 . S
H4309 C4333 0.950 . S
H4310 C4334 0.950 . S
H4311 C4335 0.951 . S
H4312 C4337 0.951 . S
H4313 C4339 0.950 . S
H4314 C4340 0.950 . S
H4315 C4342 0.950 . S
H4316 C4345 0.950 . S
H4317 C4346 0.950 . S
H4318 C4348 0.950 . S
H4319 C4349 0.950 . S
C4320 H4302 0.951 . S
C4320 C4321 1.366 . S
C4320 C4322 1.388 . S
C4321 C4320 1.366 . S
C4321 C4325 1.385 . S
C4322 H4303 0.951 . S
C4322 C4320 1.388 . S
C4322 C4323 1.366 . S
C4323 C4322 1.366 . S
C4323 C4324 1.414 . S
C4323 C4326 1.499 . S
C4324 H4304 0.950 . S
C4324 C4323 1.414 . S
C4324 C4325 1.374 . S
C4325 H4305 0.950 . S
C4325 C4321 1.385 . S
C4325 C4324 1.374 . S
C4326 C4323 1.499 . S
C4326 C4327 1.373 . S
C4326 C4328 1.389 . S
C4327 H4306 0.950 . S
C4327 C4326 1.373 . S
C4327 C4343 1.377 . S
C4328 C4326 1.389 . S
C4328 C4329 1.524 . S
C4328 C4342 1.377 . S
C4329 C4328 1.524 . S
C4329 C4330 1.397 . S
C4329 C4334 1.363 . S
C4330 H4307 0.950 . S
C4330 C4329 1.397 . S
C4330 C4331 1.334 . S
C4331 H4308 0.950 . S
C4331 C4330 1.334 . S
C4331 C4332 1.287 . S
C4332 C4331 1.287 . S
C4332 C4333 1.524 . S
C4332 H4351 0.913 . S
C4333 H4309 0.950 . S
C4333 C4332 1.524 . S
C4333 C4334 1.415 . S
C4334 H4310 0.950 . S
C4334 C4329 1.363 . S
C4334 C4333 1.415 . S
C4335 H4311 0.951 . S
C4335 C4336 1.366 . S
C4335 C4337 1.388 . S
C4336 C4335 1.366 . S
C4336 C4340 1.385 . S
C4337 H4312 0.951 . S
C4337 C4335 1.388 . S
C4337 C4338 1.366 . S
C4338 C4337 1.366 . S
C4338 C4339 1.414 . S
C4338 C4341 1.499 . S
C4339 H4313 0.950 . S
C4339 C4338 1.414 . S
C4339 C4340 1.374 . S
C4340 H4314 0.950 . S
C4340 C4336 1.385 . S
C4340 C4339 1.374 . S
C4341 C4338 1.499 . S
C4341 C4342 1.373 . S
C4341 C4343 1.389 . S
C4342 H4315 0.950 . S
C4342 C4328 1.377 . S
C4342 C4341 1.373 . S
C4343 C4327 1.377 . S
C4343 C4341 1.389 . S
C4343 C4344 1.524 . S
C4344 C4343 1.524 . S
C4344 C4345 1.397 . S
C4344 C4349 1.363 . S
C4345 H4316 0.950 . S
C4345 C4344 1.397 . S
C4345 C4346 1.334 . S
C4346 H4317 0.950 . S
C4346 C4345 1.334 . S
C4346 C4347 1.287 . S
C4347 C4346 1.287 . S
C4347 C4348 1.524 . S
C4347 H4350 0.999 . S
C4348 H4318 0.950 . S
C4348 C4347 1.524 . S
C4348 C4349 1.415 . S
C4349 H4319 0.950 . S
C4349 C4344 1.363 . S
C4349 C4348 1.415 . S
H4350 C4347 0.999 . S
H4351 C4332 0.913 . S
C1171 C218 2.113 . S
C1186 C2 2.114 . S
C1221 C38 1.282 . S
C1236 C254 1.281 . S
C1271 C146 2.113 . S
C1286 C74 2.114 . S
C1321 C110 1.281 . S
C1336 C182 1.282 . S
C1371 C506 2.113 . S
C1386 C290 2.113 . S
C1421 C326 1.281 . S
C1436 C542 1.281 . S
C1471 C434 2.113 . S
C1486 C362 2.113 . S
C1521 C398 1.282 . S
C1536 C470 1.282 . S
C1571 C578 2.113 . S
C1586 C794 2.113 . S
C1621 C830 1.282 . S
C1636 C614 1.281 . S
C1671 C650 2.114 . S
C1686 C722 2.114 . S
C1721 C758 1.282 . S
C1736 C686 1.281 . S
C1771 C1082 2.114 . S
C1786 C866 2.113 . S
C1821 C1118 1.282 . S
C1836 C902 1.282 . S
C1871 C1010 2.114 . S
C1886 C938 2.114 . S
C1921 C974 1.282 . S
C1936 C1046 1.282 . S
C1971 C256 1.264 . S
C1986 C4 1.282 . S
C2021 C148 1.282 . S
C2036 C40 1.265 . S
C2071 C184 1.265 . S
C2086 C76 1.282 . S
C2121 C220 1.282 . S
C2136 C112 1.264 . S
C2171 C544 1.264 . S
C2186 C292 1.282 . S
C2221 C436 1.282 . S
C2236 C328 1.265 . S
C2271 C472 1.265 . S
C2286 C364 1.282 . S
C2321 C400 1.265 . S
C2336 C508 1.281 . S
C2371 C832 1.264 . S
C2386 C580 1.282 . S
C2421 C616 1.265 . S
C2436 C724 1.282 . S
C2471 C652 1.282 . S
C2486 C760 1.264 . S
C2521 C796 1.282 . S
C2536 C688 1.264 . S
C2571 C1120 1.265 . S
C2586 C868 1.282 . S
C2621 C904 1.265 . S
C2636 C1012 1.282 . S
C2671 C940 1.281 . S
C2686 C1048 1.264 . S
C2721 C1084 1.281 . S
C2736 C976 1.265 . S
C2771 C14 1.714 . S
C2786 C1083 1.883 . S
C2821 C543 1.032 . S
C2836 C50 1.021 . S
C2871 C1011 1.883 . S
C2886 C86 1.714 . S
C2921 C471 1.033 . S
C2936 C122 1.022 . S
C2971 C939 1.884 . S
C2986 C158 1.715 . S
C3021 C194 1.021 . S
C3036 C399 1.032 . S
C3071 C230 1.715 . S
C3086 C867 1.883 . S
C3121 C266 1.022 . S
C3136 C327 1.032 . S
C3171 C302 1.715 . S
C3186 C795 1.883 . S
C3221 C255 1.032 . S
C3236 C338 1.021 . S
C3271 C723 1.883 . S
C3286 C374 1.715 . S
C3321 C183 1.032 . S
C3336 C410 1.023 . S
C3371 C651 1.883 . S
C3386 C446 1.716 . S
C3421 C111 1.032 . S
C3436 C482 1.022 . S
C3471 C518 1.715 . S
C3486 C579 1.883 . S
C3521 C39 1.032 . S
C3536 C554 1.023 . S
C3571 C507 1.883 . S
C3586 C590 1.715 . S
C3621 C1119 1.032 . S
C3636 C626 1.022 . S
C3671 C662 1.716 . S
C3686 C435 1.883 . S
C3721 C698 1.023 . S
C3736 C1047 1.032 . S
C3771 C734 1.716 . S
C3786 C363 1.883 . S
C3821 C770 1.021 . S
C3836 C975 1.033 . S
C3871 C806 1.716 . S
C3886 C291 1.884 . S
C3921 C842 1.022 . S
C3936 C903 1.032 . S
C3971 C219 1.883 . S
C3986 C878 1.715 . S
C4021 C831 1.032 . S
C4036 C914 1.022 . S
C4071 C147 1.884 . S
C4086 C950 1.715 . S
C4121 C986 1.022 . S
C4136 C759 1.032 . S
C4171 C1022 1.715 . S
C4186 C75 1.883 . S
C4221 C687 1.032 . S
C4236 C1058 1.022 . S
C4271 C1094 1.716 . S
C4286 C3 1.883 . S
C4321 C1130 1.022 . S
C4336 C615 1.033 . S
