# Generated by pormake.
# Topology eta-c, (3)-cn, num edge types: 1
# Building blocks:
#     Node 0, Type 0, BuildingBlock: WUSLED_clean_sbu_0, # of connection points: 3
#     Node 1, Type 0, BuildingBlock: WUSLED_clean_sbu_0, # of connection points: 3
#     Node 2, Type 0, BuildingBlock: WUSLED_clean_sbu_0, # of connection points: 3
#     Node 3, Type 0, BuildingBlock: WUSLED_clean_sbu_0, # of connection points: 3
#     Node 4, Type 0, BuildingBlock: WUSLED_clean_sbu_0, # of connection points: 3
#     Node 5, Type 0, BuildingBlock: WUSLED_clean_sbu_0, # of connection points: 3
#     Edge 6, Type (0, 0), BuildingBlock: XUDNAN_clean_linker_2, # of connection points: 2
#     Edge 7, Type (0, 0), BuildingBlock: XUDNAN_clean_linker_2, # of connection points: 2
#     Edge 8, Type (0, 0), BuildingBlock: XUDNAN_clean_linker_2, # of connection points: 2
#     Edge 9, Type (0, 0), BuildingBlock: XUDNAN_clean_linker_2, # of connection points: 2
#     Edge 10, Type (0, 0), BuildingBlock: XUDNAN_clean_linker_2, # of connection points: 2
#     Edge 11, Type (0, 0), BuildingBlock: XUDNAN_clean_linker_2, # of connection points: 2
#     Edge 12, Type (0, 0), BuildingBlock: XUDNAN_clean_linker_2, # of connection points: 2
#     Edge 13, Type (0, 0), BuildingBlock: XUDNAN_clean_linker_2, # of connection points: 2
#     Edge 14, Type (0, 0), BuildingBlock: XUDNAN_clean_linker_2, # of connection points: 2
# Relax obj value: 0.000
# Max RMSD: 0.004
# Mean RMSD: 0.003
data_MOF--net-eta-c--node1-WUSLED_clean_sbu_0--edge1-XUDNAN_clean_linker_2
_symmetry_space_group_name_H-M    P1
_symmetry_Int_Tables_number       1
_symmetry_cell_setting            triclinic
loop_
_symmetry_equiv_pos_as_xyz
'x, y, z'
_cell_length_a     66.779701
_cell_length_b     67.631054
_cell_length_c     27.727208
_cell_angle_alpha  91.094219
_cell_angle_beta   89.333393
_cell_angle_gamma 118.55962
loop_
_atom_site_label
_atom_site_type_symbol
_atom_site_fract_x
_atom_site_fract_y
_atom_site_fract_z
_atom_type_partial_charge
C0 C 0.39841 0.79815 0.16114 0.0
C1 C 0.40763 0.78532 0.18123 0.0
C2 C 0.37345 0.76459 0.23054 0.0
C3 C 0.39533 0.76881 0.21539 0.0
C4 C 0.36424 0.77745 0.2104 0.0
C5 C 0.37659 0.79404 0.1763 0.0
U6 U 0.42671 0.82167 0.03737 0.0
O7 O 0.429 0.85063 0.99733 0.0
O8 O 0.46015 0.85051 0.02108 0.0
C9 C 0.45132 0.86209 1.00119 0.0
C10 C 0.41182 0.81676 0.12709 0.0
C11 C 0.4613 0.88633 1.01495 0.0
C12 C 0.48674 0.91893 0.06412 0.0
C13 C 0.4759 0.89563 0.0548 0.0
C14 C 0.46829 0.92408 0.9946 0.0
C15 C 0.48327 0.93355 0.03389 0.0
C16 C 0.45752 0.90081 0.98525 0.0
C17 C 0.42022 0.77788 0.93641 0.0
C18 C 0.44246 0.78351 0.86278 0.0
C19 C 0.40891 0.74768 0.87635 0.0
C20 C 0.40525 0.75591 0.92043 0.0
C21 C 0.42771 0.76125 0.84706 0.0
C22 C 0.43875 0.79174 0.90701 0.0
C23 C 0.41664 0.78521 0.98488 0.0
O24 O 0.43225 0.81998 0.11494 0.0
O25 O 0.40067 0.81895 0.09058 0.0
O26 O 0.40352 0.79474 0.98756 0.0
O27 O 0.43461 0.795 1.013 0.0
H28 H 0.4245 0.78817 0.17107 0.0
H29 H 0.40324 0.75961 0.23059 0.0
H30 H 0.34738 0.77459 0.22062 0.0
H31 H 0.36909 0.80379 0.16197 0.0
H32 H 0.49832 0.92552 0.09438 0.0
H33 H 0.47932 0.885 0.0783 0.0
H34 H 0.46483 0.93463 0.97093 0.0
H35 H 0.44646 0.89415 0.95415 0.0
H36 H 0.45692 0.79458 0.84096 0.0
H37 H 0.39736 0.73041 0.86602 0.0
H38 H 0.3909 0.74488 0.94266 0.0
H39 H 0.45051 0.80878 0.91855 0.0
C40 C 0.61197 0.3824 0.48905 0.0
C41 C 0.6177 0.3658 0.47388 0.0
C42 C 0.61554 0.3534 0.55709 0.0
C43 C 0.61943 0.35143 0.50754 0.0
C44 C 0.61035 0.37046 0.57205 0.0
C45 C 0.60857 0.38473 0.53841 0.0
U46 U 0.62144 0.41287 0.36701 0.0
O47 O 0.59636 0.41601 0.32137 0.0
O48 O 0.62462 0.44628 0.35306 0.0
C49 C 0.60545 0.43788 0.32859 0.0
C50 C 0.6084 0.39678 0.4543 0.0
C51 C 0.58939 0.44692 0.33949 0.0
C52 C 0.58138 0.47611 0.37328 0.0
C53 C 0.59609 0.46679 0.3671 0.0
C54 C 0.55299 0.44599 0.32442 0.0
C55 C 0.55962 0.46586 0.35193 0.0
C56 C 0.56766 0.43673 0.31819 0.0
C57 C 0.66165 0.40739 0.27118 0.0
C58 C 0.67641 0.42912 0.19798 0.0
C59 C 0.68304 0.39756 0.21257 0.0
C60 C 0.67097 0.3936 0.2561 0.0
C61 C 0.68611 0.41549 0.18298 0.0
C62 C 0.66428 0.4251 0.24162 0.0
C63 C 0.6499 0.40321 0.31841 0.0
O64 O 0.62594 0.41661 0.44605 0.0
O65 O 0.59699 0.38671 0.41496 0.0
O66 O 0.62767 0.39031 0.31793 0.0
O67 O 0.65653 0.42061 0.34803 0.0
H68 H 0.62052 0.36373 0.43599 0.0
H69 H 0.62379 0.33874 0.49469 0.0
H70 H 0.60696 0.37236 0.60966 0.0
H71 H 0.60407 0.39738 0.55092 0.0
H72 H 0.58704 0.49131 0.39499 0.0
H73 H 0.61281 0.47534 0.38348 0.0
H74 H 0.5366 0.43781 0.30657 0.0
H75 H 0.5621 0.42174 0.29577 0.0
H76 H 0.67813 0.44289 0.17591 0.0
H77 H 0.69047 0.38689 0.20275 0.0
H78 H 0.6692 0.37987 0.27844 0.0
H79 H 0.65713 0.4359 0.25245 0.0
C80 C 0.24472 0.64086 0.5643 0.0
C81 C 0.25979 0.66408 0.56961 0.0
C82 C 0.27651 0.66483 0.49022 0.0
C83 C 0.27549 0.67592 0.53295 0.0
C84 C 0.26144 0.64161 0.48523 0.0
C85 C 0.24576 0.62984 0.52166 0.0
U86 U 0.22235 0.61471 0.69061 0.0
O87 O 0.19219 0.61152 0.73098 0.0
O88 O 0.19413 0.5813 0.70772 0.0
C89 C 0.18159 0.58941 0.72779 0.0
C90 C 0.22671 0.62802 0.60057 0.0
C91 C 0.15707 0.57815 0.71456 0.0
C92 C 0.11762 0.56512 0.73957 0.0
C93 C 0.14109 0.57791 0.74827 0.0
C94 C 0.12561 0.5531 0.66238 0.0
C95 C 0.10952 0.55213 0.69695 0.0
C96 C 0.1491 0.56596 0.67105 0.0
C97 C 0.26582 0.62251 0.79154 0.0
C98 C 0.26444 0.62449 0.87939 0.0
C99 C 0.29084 0.61416 0.84073 0.0
C100 C 0.28297 0.61624 0.79548 0.0
C101 C 0.28182 0.61841 0.88343 0.0
C102 C 0.25652 0.6265 0.83401 0.0
C103 C 0.25906 0.62591 0.74284 0.0
O104 O 0.22453 0.60841 0.61291 0.0
O105 O 0.22426 0.63932 0.63724 0.0
O106 O 0.24901 0.63849 0.73983 0.0
O107 O 0.25009 0.60817 0.71395 0.0
H108 H 0.25937 0.67318 0.60183 0.0
H109 H 0.28693 0.69374 0.53826 0.0
H110 H 0.26139 0.63253 0.45259 0.0
H111 H 0.23414 0.61207 0.51611 0.0
H112 H 0.10584 0.56468 0.76724 0.0
H113 H 0.14677 0.58705 0.78222 0.0
H114 H 0.12006 0.54364 0.62879 0.0
H115 H 0.16099 0.56587 0.64424 0.0
H116 H 0.25722 0.62816 0.91129 0.0
H117 H 0.30391 0.60906 0.84216 0.0
H118 H 0.29049 0.61313 0.76333 0.0
H119 H 0.24334 0.63146 0.83223 0.0
C120 C 0.6304 0.25439 0.9289 0.0
C121 C 0.64734 0.27478 0.91033 0.0
C122 C 0.62459 0.26992 0.83841 0.0
C123 C 0.64451 0.28246 0.86569 0.0
C124 C 0.6077 0.24928 0.85693 0.0
C125 C 0.61058 0.2416 0.9017 0.0
U126 U 0.62207 0.21144 0.02938 0.0
O127 O 0.58796 0.18322 1.01322 0.0
O128 O 0.61848 0.18167 0.98849 0.0
C129 C 0.59611 0.17103 0.992 0.0
C130 C 0.63358 0.24759 0.97746 0.0
C131 C 0.58527 0.14698 1.00516 0.0
C132 C 0.55667 0.10822 0.98766 0.0
C133 C 0.56713 0.13119 0.97708 0.0
C134 C 0.5823 0.11638 0.05503 0.0
C135 C 0.5641 0.10041 0.02671 0.0
C136 C 0.59277 0.13942 0.04436 0.0
C137 C 0.65083 0.2353 0.15318 0.0
C138 C 0.68452 0.25433 0.2044 0.0
C139 C 0.65593 0.26659 0.20622 0.0
C140 C 0.64313 0.25 0.17173 0.0
C141 C 0.67682 0.26902 0.22316 0.0
C142 C 0.67166 0.23767 0.17002 0.0
C143 C 0.63681 0.21662 0.11888 0.0
O144 O 0.64607 0.23742 0.98001 0.0
O145 O 0.61558 0.23876 1.00581 0.0
O146 O 0.61673 0.21424 0.10714 0.0
O147 O 0.64759 0.21348 0.08202 0.0
H148 H 0.66278 0.28493 0.93067 0.0
H149 H 0.65806 0.29819 0.85243 0.0
H150 H 0.59203 0.23925 0.83731 0.0
H151 H 0.59721 0.22583 0.91531 0.0
H152 H 0.54251 0.09662 0.96552 0.0
H153 H 0.56102 0.13665 0.94675 0.0
H154 H 0.58868 0.11105 0.08507 0.0
H155 H 0.60678 0.1513 0.06652 0.0
H156 H 0.70061 0.25579 0.21597 0.0
H157 H 0.64917 0.27725 0.22027 0.0
H158 H 0.62706 0.24857 0.16013 0.0
H159 H 0.67796 0.22649 0.15679 0.0
C160 C 0.39495 0.60715 0.23714 0.0
C161 C 0.37911 0.61419 0.25168 0.0
C162 C 0.36589 0.61104 0.16848 0.0
C163 C 0.3647 0.61608 0.2177 0.0
C164 C 0.38214 0.60443 0.15417 0.0
C165 C 0.39646 0.6025 0.18812 0.0
U166 U 0.42552 0.61692 0.3602 0.0
O167 O 0.42941 0.59262 0.40548 0.0
O168 O 0.45976 0.62097 0.37496 0.0
C169 C 0.45163 0.6022 0.39932 0.0
C170 C 0.40956 0.60381 0.27224 0.0
C171 C 0.46129 0.58696 0.3878 0.0
C172 C 0.45819 0.55237 0.35226 0.0
C173 C 0.44961 0.56756 0.35879 0.0
C174 C 0.49068 0.57612 0.40215 0.0
C175 C 0.47868 0.55625 0.37448 0.0
C176 C 0.48204 0.59124 0.40878 0.0
C177 C 0.41913 0.65638 0.45589 0.0
C178 C 0.43955 0.66921 0.53201 0.0
C179 C 0.41037 0.67924 0.51235 0.0
C180 C 0.40649 0.66734 0.46855 0.0
C181 C 0.42706 0.68049 0.54466 0.0
C182 C 0.43562 0.65726 0.48807 0.0
C183 C 0.41502 0.64466 0.40858 0.0
O184 O 0.42947 0.62133 0.28137 0.0
O185 O 0.39936 0.59247 0.31112 0.0
O186 O 0.40235 0.62265 0.40878 0.0
O187 O 0.43266 0.65142 0.3794 0.0
H188 H 0.37772 0.61799 0.28931 0.0
H189 H 0.35264 0.62151 0.23003 0.0
H190 H 0.3834 0.60012 0.11685 0.0
H191 H 0.40852 0.59699 0.17612 0.0
H192 H 0.44866 0.53746 0.33006 0.0
H193 H 0.43362 0.56391 0.34195 0.0
H194 H 0.50635 0.57962 0.42018 0.0
H195 H 0.49133 0.60606 0.43143 0.0
H196 H 0.45233 0.66953 0.55617 0.0
H197 H 0.40064 0.68792 0.52032 0.0
H198 H 0.39372 0.66692 0.44416 0.0
H199 H 0.44552 0.64884 0.47908 0.0
C200 C 0.80621 0.38995 0.56311 0.0
C201 C 0.78939 0.36731 0.56793 0.0
C202 C 0.77483 0.36712 0.48725 0.0
C203 C 0.7739 0.35602 0.53039 0.0
C204 C 0.79166 0.38976 0.48276 0.0
C205 C 0.80713 0.40096 0.52007 0.0
U206 U 0.82767 0.41573 0.69117 0.0
O207 O 0.85595 0.41687 0.73347 0.0
O208 O 0.85739 0.44828 0.71009 0.0
C209 C 0.86838 0.43886 0.73032 0.0
C210 C 0.82393 0.40209 0.60047 0.0
C211 C 0.89297 0.44789 0.71754 0.0
C212 C 0.9296 0.47925 0.69336 0.0
C213 C 0.90605 0.4701 0.7013 0.0
C214 C 0.92765 0.44425 0.71774 0.0
C215 C 0.94077 0.46648 0.70162 0.0
C216 C 0.90415 0.43513 0.72574 0.0
C217 C 0.78292 0.40967 0.78954 0.0
C218 C 0.78961 0.42999 0.86624 0.0
C219 C 0.75197 0.39966 0.84746 0.0
C220 C 0.76008 0.39621 0.80302 0.0
C221 C 0.76655 0.41674 0.87961 0.0
C222 C 0.79773 0.42648 0.82166 0.0
C223 C 0.7904 0.40626 0.74111 0.0
O224 O 0.82711 0.42216 0.61367 0.0
O225 O 0.82502 0.39039 0.63676 0.0
O226 O 0.79948 0.3928 0.73815 0.0
O227 O 0.80104 0.42424 0.71439 0.0
H228 H 0.78827 0.35824 0.6005 0.0
H229 H 0.76108 0.33866 0.53532 0.0
H230 H 0.79322 0.39878 0.44987 0.0
H231 H 0.8201 0.41827 0.51497 0.0
H232 H 0.93905 0.49634 0.68058 0.0
H233 H 0.89815 0.48059 0.69533 0.0
H234 H 0.93565 0.434 0.7254 0.0
H235 H 0.89482 0.41817 0.73928 0.0
H236 H 0.80144 0.44309 0.89025 0.0
H237 H 0.73408 0.38933 0.85597 0.0
H238 H 0.74834 0.38319 0.77869 0.0
H239 H 0.81545 0.43704 0.81205 0.0
H240 H 0.50107 0.96769 0.96702 0.0
H241 H 0.49302 0.95632 0.12129 0.0
H242 H 0.51339 0.99738 0.13629 0.0
H243 H 0.55699 1.01565 0.9707 0.0
H244 H 0.55141 0.03014 0.92312 0.0
H245 H 0.53647 0.99983 0.92448 0.0
H246 H 0.49782 1.0001 0.92316 0.0
H247 H 0.51264 0.0304 0.92169 0.0
H248 H 0.49193 1.01615 0.96838 0.0
H249 H 0.53456 0.04012 0.1345 0.0
H250 H 0.55403 0.08065 0.11596 0.0
H251 H 0.54809 0.06415 0.9629 0.0
C252 C 0.50335 0.97375 1.00402 0.0
C253 C 0.49538 0.95853 0.04294 0.0
C254 C 0.49918 0.96743 0.09075 0.0
C255 C 0.51065 0.9908 0.09968 0.0
C256 C 0.51827 1.00524 0.0605 0.0
C257 C 0.51472 0.99704 1.0136 0.0
C258 C 0.52449 1.01615 0.97787 0.0
C259 C 0.54347 1.01539 0.94724 0.0
C260 C 0.50559 1.01566 0.94589 0.0
C261 C 0.53403 0.03638 1.01195 0.0
C262 C 0.53033 0.02975 0.05947 0.0
C263 C 0.53759 0.04547 0.09737 0.0
C264 C 0.54881 0.06852 0.08645 0.0
C265 C 0.55272 0.0758 0.03794 0.0
C266 C 0.54521 0.05932 1.00038 0.0
H267 H 0.52297 0.56331 0.36348 0.0
H268 H 0.45299 0.51031 0.37826 0.0
H269 H 0.46609 0.48185 0.37476 0.0
H270 H 0.54114 0.53311 0.28041 0.0
H271 H 0.56913 0.54413 0.30642 0.0
H272 H 0.55429 0.56043 0.30965 0.0
H273 H 0.55866 0.56323 0.40259 0.0
H274 H 0.57343 0.54686 0.39967 0.0
H275 H 0.54837 0.53783 0.43696 0.0
H276 H 0.48671 0.459 0.37133 0.0
H277 H 0.51323 0.44331 0.36536 0.0
H278 H 0.57007 0.51082 0.35191 0.0
C279 C 0.51039 0.54573 0.36616 0.0
C280 C 0.48686 0.53914 0.37091 0.0
C281 C 0.47102 0.51587 0.37378 0.0
C282 C 0.47833 0.49954 0.37221 0.0
C283 C 0.50157 0.50662 0.36769 0.0
C284 C 0.51739 0.52914 0.36448 0.0
C285 C 0.54138 0.53215 0.35941 0.0
C286 C 0.55211 0.5431 0.3111 0.0
C287 C 0.55634 0.54583 0.40221 0.0
C288 C 0.53657 0.50782 0.36048 0.0
C289 C 0.51348 0.49339 0.36536 0.0
C290 C 0.50481 0.47015 0.3672 0.0
C291 C 0.52005 0.46137 0.3635 0.0
C292 C 0.54383 0.47572 0.3578 0.0
C293 C 0.55208 0.49932 0.35667 0.0
H294 H 0.07306 0.55952 0.72003 0.0
H295 H 0.08922 0.50917 0.65929 0.0
H296 H 0.0482 0.48261 0.65106 0.0
H297 H 1.02521 0.52192 0.78995 0.0
H298 H 1.00871 0.53611 0.77931 0.0
H299 H 0.03938 0.55169 0.77812 0.0
H300 H 0.03814 0.56531 0.69208 0.0
H301 H 1.00744 0.54976 0.69301 0.0
H302 H 1.0231 0.54489 0.64509 0.0
H303 H 1.00531 0.46076 0.65255 0.0
H304 H 0.9638 0.4455 0.66245 0.0
H305 H 0.97503 0.50957 0.72354 0.0
C306 C 0.068 0.54293 0.7049 0.0
C307 C 0.08455 0.53659 0.69 0.0
C308 C 0.07703 0.51469 0.67013 0.0
C309 C 0.0537 0.49938 0.66558 0.0
C310 C 0.03791 0.50613 0.68085 0.0
C311 C 0.04471 0.52741 0.69991 0.0
C312 C 1.02418 0.53025 0.71427 0.0
C313 C 1.02439 0.53528 0.76865 0.0
C314 C 1.02316 0.54865 0.68433 0.0
C315 C 1.00482 0.5071 0.70118 0.0
C316 C 1.01314 0.4935 0.68174 0.0
C317 C 0.99862 0.47129 0.66767 0.0
C318 C 0.97501 0.46271 0.67376 0.0
C319 C 0.96596 0.47622 0.69393 0.0
C320 C 0.98124 0.49881 0.70746 0.0
H321 H 0.34527 0.76523 0.30432 0.0
H322 H 0.37164 0.72335 0.23934 0.0
H323 H 0.35095 0.69428 0.2999 0.0
H324 H 0.34718 0.75073 0.42782 0.0
H325 H 0.32085 0.75034 0.44474 0.0
H326 H 0.33806 0.76824 0.39685 0.0
H327 H 0.30362 0.7498 0.33874 0.0
H328 H 0.28627 0.73194 0.38652 0.0
H329 H 0.28905 0.71965 0.33028 0.0
H330 H 0.32731 0.66951 0.36728 0.0
H331 H 0.30152 0.65034 0.43521 0.0
H332 H 0.28912 0.7074 0.45547 0.0
C333 C 0.34659 0.7499 0.30247 0.0
C334 C 0.36036 0.74681 0.26695 0.0
C335 C 0.36167 0.72647 0.26652 0.0
C336 C 0.34984 0.70973 0.30069 0.0
C337 C 0.3366 0.7134 0.33523 0.0
C338 C 0.33481 0.73292 0.33631 0.0
C339 C 0.31912 0.73246 0.37694 0.0
C340 C 0.33208 0.75158 0.41377 0.0
C341 C 0.29828 0.73352 0.35691 0.0
C342 C 0.31235 0.70961 0.39843 0.0
C343 C 0.3227 0.69895 0.37383 0.0
C344 C 0.31903 0.67766 0.38665 0.0
C345 C 0.30422 0.66684 0.42522 0.0
C346 C 0.29308 0.6772 0.45074 0.0
C347 C 0.29747 0.69903 0.43717 0.0
H348 H 0.63259 0.36225 0.65012 0.0
H349 H 0.59911 0.3078 0.54549 0.0
H350 H 0.59839 0.2808 0.60501 0.0
H351 H 0.66753 0.34105 0.7047 0.0
H352 H 0.66467 0.35007 0.76478 0.0
H353 H 0.66324 0.36525 0.7134 0.0
H354 H 0.62384 0.35961 0.74228 0.0
H355 H 0.62515 0.34441 0.79371 0.0
H356 H 0.60118 0.33155 0.75326 0.0
H357 H 0.60023 0.25935 0.67722 0.0
H358 H 0.6054 0.24545 0.75532 0.0
H359 H 0.63681 0.31369 0.81367 0.0
C360 C 0.62506 0.34465 0.63965 0.0
C361 C 0.61598 0.33726 0.59277 0.0
C362 C 0.60653 0.31404 0.5807 0.0
C363 C 0.60589 0.29851 0.61445 0.0
C364 C 0.61483 0.30635 0.66032 0.0
C365 C 0.62432 0.3289 0.6729 0.0
C366 C 0.63259 0.33292 0.72474 0.0
C367 C 0.65855 0.34823 0.72702 0.0
C368 C 0.61993 0.3427 0.75529 0.0
C369 C 0.62605 0.3091 0.73951 0.0
C370 C 0.61586 0.29402 0.70182 0.0
C371 C 0.60819 0.27103 0.70697 0.0
C372 C 0.61106 0.26326 0.75169 0.0
C373 C 0.6215 0.27838 0.791 0.0
C374 C 0.62905 0.30164 0.78441 0.0
H375 H 0.37484 0.62612 0.07458 0.0
H376 H 0.32023 0.59743 0.1802 0.0
H377 H 0.29316 0.59718 0.12001 0.0
H378 H 0.35551 0.66172 1.01661 0.0
H379 H 0.36378 0.6571 0.9571 0.0
H380 H 0.37904 0.65587 1.00913 0.0
H381 H 0.37108 0.61577 0.9832 0.0
H382 H 0.35575 0.61685 0.9312 0.0
H383 H 0.3421 0.59416 0.97322 0.0
H384 H 0.27152 0.5985 0.04679 0.0
H385 H 0.25733 0.60197 0.96732 0.0
H386 H 0.32609 0.63025 0.9095 0.0
C387 C 0.35719 0.61975 0.08514 0.0
C388 C 0.34977 0.61185 0.13244 0.0
C389 C 0.3265 0.60391 0.14462 0.0
C390 C 0.31092 0.60356 0.11051 0.0
C391 C 0.31879 0.61128 0.0642 0.0
C392 C 0.3414 0.61934 0.05155 0.0
C393 C 0.34542 0.62643 0.99918 0.0
C394 C 0.36191 0.65179 0.99529 0.0
C395 C 0.3541 0.61246 0.96999 0.0
C396 C 0.32148 0.62081 0.98416 0.0
C397 C 0.30638 0.61216 0.02222 0.0
C398 C 0.28325 0.60544 1.01686 0.0
C399 C 0.27536 0.60761 0.97151 0.0
C400 C 0.2905 0.61647 0.93179 0.0
C401 C 0.31392 0.62318 0.93868 0.0
H402 H 0.75898 0.32345 0.45279 0.0
H403 H 0.75363 0.38407 0.42991 0.0
H404 H 0.72827 0.3657 0.36058 0.0
H405 H 0.75984 0.30898 0.32842 0.0
H406 H 0.74285 0.27907 0.33659 0.0
H407 H 0.76025 0.29669 0.38528 0.0
H408 H 0.72481 0.28186 0.44111 0.0
H409 H 0.70732 0.26407 0.39268 0.0
H410 H 0.70006 0.28378 0.4222 0.0
H411 H 0.70431 0.34122 0.29213 0.0
H412 H 0.68266 0.31206 0.23085 0.0
H413 H 0.70218 0.26657 0.29919 0.0
C414 C 0.75226 0.33278 0.43361 0.0
C415 C 0.7585 0.35534 0.44687 0.0
C416 C 0.74948 0.36696 0.42019 0.0
C417 C 0.73493 0.35661 0.38082 0.0
C418 C 0.72939 0.33453 0.36837 0.0
C419 C 0.73767 0.32268 0.39407 0.0
C420 C 0.7292 0.29919 0.3727 0.0
C421 C 0.74923 0.29579 0.35468 0.0
C422 C 0.71447 0.28116 0.40936 0.0
C423 C 0.71496 0.29973 0.33093 0.0
C424 C 0.71533 0.3203 0.32914 0.0
C425 C 0.70373 0.32498 0.29347 0.0
C426 C 0.69133 0.30819 0.25889 0.0
C427 C 0.69044 0.28681 0.26004 0.0
C428 C 0.70257 0.28271 0.29674 0.0
H429 H 0.39621 0.68434 0.60647 0.0
H430 H 0.46862 0.70763 0.58687 0.0
H431 H 0.47663 0.73079 0.66123 0.0
H432 H 0.40155 0.73716 0.65001 0.0
H433 H 0.37852 0.72438 0.69285 0.0
H434 H 0.37841 0.70925 0.63859 0.0
H435 H 0.37487 0.67605 0.68966 0.0
H436 H 0.37494 0.69106 0.74407 0.0
H437 H 0.39557 0.68125 0.73608 0.0
H438 H 0.47686 0.75201 0.73757 0.0
H439 H 0.46918 0.76852 0.81098 0.0
H440 H 0.3967 0.7323 0.77982 0.0
C441 C 0.41379 0.69439 0.61757 0.0
C442 C 0.43177 0.69402 0.59055 0.0
C443 C 0.45448 0.70726 0.60707 0.0
C444 C 0.45923 0.72064 0.64917 0.0
C445 C 0.44113 0.72068 0.67464 0.0
C446 C 0.41884 0.70785 0.65955 0.0
C447 C 0.40249 0.71087 0.69355 0.0
C448 C 0.38948 0.72102 0.66717 0.0
C449 C 0.386 0.68847 0.71724 0.0
C450 C 0.41906 0.72744 0.73009 0.0
C451 C 0.44126 0.73292 0.71846 0.0
C452 C 0.45953 0.74787 0.74689 0.0
C453 C 0.45499 0.75733 0.78842 0.0
C454 C 0.43233 0.75186 0.80144 0.0
C455 C 0.41421 0.73674 0.77142 0.0
H456 H 0.73483 0.3858 0.94193 0.0
H457 H 0.77733 0.45766 0.92223 0.0
H458 H 0.76153 0.46511 0.99706 0.0
H459 H 0.68543 0.38862 0.9864 0.0
H460 H 0.67783 0.36639 0.02917 0.0
H461 H 0.6929 0.36664 0.97468 0.0
H462 H 0.72462 0.36537 0.02524 0.0
H463 H 0.70963 0.36508 0.07989 0.0
H464 H 0.73882 0.38644 0.07162 0.0
H465 H 0.74041 0.46482 0.07364 0.0
H466 H 0.71671 0.45676 0.1471 0.0
H467 H 0.68719 0.38512 0.11604 0.0
C468 C 0.74078 0.40313 0.95314 0.0
C469 C 0.75747 0.42113 0.92593 0.0
C470 C 0.7649 0.44353 0.94257 0.0
C471 C 0.75587 0.44795 0.98494 0.0
C472 C 0.73937 0.42983 1.01057 0.0
C473 C 0.73195 0.40786 0.99539 0.0
C474 C 0.71403 0.39142 0.02952 0.0
C475 C 0.69119 0.37745 1.00337 0.0
C476 C 0.72228 0.37618 0.05296 0.0
C477 C 0.71249 0.40759 0.06623 0.0
C478 C 0.72722 0.42967 0.05457 0.0
C479 C 0.72879 0.44758 0.08302 0.0
C480 C 0.71509 0.44282 0.12458 0.0
C481 C 0.69994 0.4203 0.1376 0.0
C482 C 0.6987 0.40252 0.10762 0.0
loop_
_geom_bond_atom_site_label_1
_geom_bond_atom_site_label_2
_geom_bond_distance
_geom_bond_site_symmetry_2
_ccdc_geom_bond_type
C0 C1 1.264 . S
C0 C5 1.479 . S
C0 C10 1.465 . S
C1 C0 1.264 . S
C1 C3 1.339 . S
C1 H28 0.931 . S
C2 C3 1.395 . S
C2 C4 1.320 . S
C3 C1 1.339 . S
C3 C2 1.395 . S
C3 H29 0.929 . S
C4 C2 1.320 . S
C4 C5 1.405 . S
C4 H30 0.930 . S
C5 C0 1.479 . S
C5 C4 1.405 . S
C5 H31 0.931 . S
U6 O7 2.454 . S
U6 O8 2.458 1_554 S
U6 C9 2.984 . S
U6 C10 2.847 . S
U6 C23 2.882 1_554 S
U6 O24 2.441 . S
U6 O25 2.420 . S
U6 O26 2.455 1_554 S
U6 O27 2.449 1_554 S
O7 U6 2.454 . S
O7 C9 1.353 . S
O8 U6 2.458 1_556 S
O8 C9 1.286 1_556 S
C9 U6 2.984 . S
C9 O7 1.353 . S
C9 O8 1.286 1_554 S
C9 C11 1.363 . S
C10 C0 1.465 . S
C10 U6 2.847 . S
C10 O24 1.249 . S
C10 O25 1.202 . S
C11 C9 1.363 . S
C11 C13 1.408 . S
C11 C16 1.342 1_554 S
C12 C13 1.310 . S
C12 C15 1.461 . S
C12 H32 0.932 . S
C13 C11 1.408 . S
C13 C12 1.310 . S
C13 H33 0.930 . S
C14 C15 1.474 1_556 S
C14 C16 1.285 . S
C14 H34 0.929 . S
C15 C12 1.461 . S
C15 C14 1.474 1_554 S
C16 C11 1.342 1_556 S
C16 C14 1.285 . S
C16 H35 0.930 . S
C17 C20 1.424 . S
C17 C22 1.245 . S
C17 C23 1.428 . S
C18 C21 1.260 . S
C18 C22 1.477 . S
C18 H36 0.932 . S
C19 C20 1.384 . S
C19 C21 1.479 . S
C19 H37 0.929 . S
C20 C17 1.424 . S
C20 C19 1.384 . S
C20 H38 0.928 . S
C21 C18 1.260 . S
C21 C19 1.479 . S
C22 C17 1.245 . S
C22 C18 1.477 . S
C22 H39 0.932 . S
C23 U6 2.882 1_556 S
C23 C17 1.428 . S
C23 O26 1.301 . S
C23 O27 1.282 . S
O24 U6 2.441 . S
O24 C10 1.249 . S
O25 U6 2.420 . S
O25 C10 1.202 . S
O26 U6 2.455 1_556 S
O26 C23 1.301 . S
O27 U6 2.449 1_556 S
O27 C23 1.282 . S
H28 C1 0.931 . S
H29 C3 0.929 . S
H30 C4 0.930 . S
H31 C5 0.931 . S
H32 C12 0.932 . S
H33 C13 0.930 . S
H34 C14 0.929 . S
H35 C16 0.930 . S
H36 C18 0.932 . S
H37 C19 0.929 . S
H38 C20 0.928 . S
H39 C22 0.932 . S
C40 C41 1.264 . S
C40 C45 1.479 . S
C40 C50 1.465 . S
C41 C40 1.264 . S
C41 C43 1.339 . S
C41 H68 0.931 . S
C42 C43 1.395 . S
C42 C44 1.320 . S
C43 C41 1.339 . S
C43 C42 1.395 . S
C43 H69 0.929 . S
C44 C42 1.320 . S
C44 C45 1.405 . S
C44 H70 0.930 . S
C45 C40 1.479 . S
C45 C44 1.405 . S
C45 H71 0.931 . S
U46 O47 2.454 . S
U46 O48 2.458 . S
U46 C49 2.984 . S
U46 C50 2.847 . S
U46 C63 2.882 . S
U46 O64 2.441 . S
U46 O65 2.420 . S
U46 O66 2.455 . S
U46 O67 2.449 . S
O47 U46 2.454 . S
O47 C49 1.353 . S
O48 U46 2.458 . S
O48 C49 1.286 . S
C49 U46 2.984 . S
C49 O47 1.353 . S
C49 O48 1.286 . S
C49 C51 1.363 . S
C50 C40 1.465 . S
C50 U46 2.847 . S
C50 O64 1.249 . S
C50 O65 1.202 . S
C51 C49 1.363 . S
C51 C53 1.408 . S
C51 C56 1.342 . S
C52 C53 1.310 . S
C52 C55 1.461 . S
C52 H72 0.932 . S
C53 C51 1.408 . S
C53 C52 1.310 . S
C53 H73 0.930 . S
C54 C55 1.474 . S
C54 C56 1.285 . S
C54 H74 0.929 . S
C55 C52 1.461 . S
C55 C54 1.474 . S
C56 C51 1.342 . S
C56 C54 1.285 . S
C56 H75 0.930 . S
C57 C60 1.424 . S
C57 C62 1.245 . S
C57 C63 1.428 . S
C58 C61 1.260 . S
C58 C62 1.477 . S
C58 H76 0.932 . S
C59 C60 1.384 . S
C59 C61 1.479 . S
C59 H77 0.929 . S
C60 C57 1.424 . S
C60 C59 1.384 . S
C60 H78 0.928 . S
C61 C58 1.260 . S
C61 C59 1.479 . S
C62 C57 1.245 . S
C62 C58 1.477 . S
C62 H79 0.932 . S
C63 U46 2.882 . S
C63 C57 1.428 . S
C63 O66 1.301 . S
C63 O67 1.282 . S
O64 U46 2.441 . S
O64 C50 1.249 . S
O65 U46 2.420 . S
O65 C50 1.202 . S
O66 U46 2.455 . S
O66 C63 1.301 . S
O67 U46 2.449 . S
O67 C63 1.282 . S
H68 C41 0.931 . S
H69 C43 0.929 . S
H70 C44 0.930 . S
H71 C45 0.931 . S
H72 C52 0.932 . S
H73 C53 0.930 . S
H74 C54 0.929 . S
H75 C56 0.930 . S
H76 C58 0.932 . S
H77 C59 0.929 . S
H78 C60 0.928 . S
H79 C62 0.932 . S
C80 C81 1.264 . S
C80 C85 1.479 . S
C80 C90 1.465 . S
C81 C80 1.264 . S
C81 C83 1.339 . S
C81 H108 0.931 . S
C82 C83 1.395 . S
C82 C84 1.320 . S
C83 C81 1.339 . S
C83 C82 1.395 . S
C83 H109 0.929 . S
C84 C82 1.320 . S
C84 C85 1.405 . S
C84 H110 0.930 . S
C85 C80 1.479 . S
C85 C84 1.405 . S
C85 H111 0.931 . S
U86 O87 2.454 . S
U86 O88 2.458 . S
U86 C89 2.984 . S
U86 C90 2.847 . S
U86 C103 2.882 . S
U86 O104 2.441 . S
U86 O105 2.420 . S
U86 O106 2.455 . S
U86 O107 2.449 . S
O87 U86 2.454 . S
O87 C89 1.353 . S
O88 U86 2.458 . S
O88 C89 1.286 . S
C89 U86 2.984 . S
C89 O87 1.353 . S
C89 O88 1.286 . S
C89 C91 1.363 . S
C90 C80 1.465 . S
C90 U86 2.847 . S
C90 O104 1.249 . S
C90 O105 1.202 . S
C91 C89 1.363 . S
C91 C93 1.408 . S
C91 C96 1.342 . S
C92 C93 1.310 . S
C92 C95 1.461 . S
C92 H112 0.932 . S
C93 C91 1.408 . S
C93 C92 1.310 . S
C93 H113 0.930 . S
C94 C95 1.474 . S
C94 C96 1.285 . S
C94 H114 0.929 . S
C95 C92 1.461 . S
C95 C94 1.474 . S
C96 C91 1.342 . S
C96 C94 1.285 . S
C96 H115 0.930 . S
C97 C100 1.424 . S
C97 C102 1.245 . S
C97 C103 1.428 . S
C98 C101 1.260 . S
C98 C102 1.477 . S
C98 H116 0.932 . S
C99 C100 1.384 . S
C99 C101 1.479 . S
C99 H117 0.929 . S
C100 C97 1.424 . S
C100 C99 1.384 . S
C100 H118 0.928 . S
C101 C98 1.260 . S
C101 C99 1.479 . S
C102 C97 1.245 . S
C102 C98 1.477 . S
C102 H119 0.932 . S
C103 U86 2.882 . S
C103 C97 1.428 . S
C103 O106 1.301 . S
C103 O107 1.282 . S
O104 U86 2.441 . S
O104 C90 1.249 . S
O105 U86 2.420 . S
O105 C90 1.202 . S
O106 U86 2.455 . S
O106 C103 1.301 . S
O107 U86 2.449 . S
O107 C103 1.282 . S
H108 C81 0.931 . S
H109 C83 0.929 . S
H110 C84 0.930 . S
H111 C85 0.931 . S
H112 C92 0.932 . S
H113 C93 0.930 . S
H114 C94 0.929 . S
H115 C96 0.930 . S
H116 C98 0.932 . S
H117 C99 0.929 . S
H118 C100 0.928 . S
H119 C102 0.932 . S
C120 C121 1.264 . S
C120 C125 1.479 . S
C120 C130 1.465 . S
C121 C120 1.264 . S
C121 C123 1.339 . S
C121 H148 0.931 . S
C122 C123 1.395 . S
C122 C124 1.320 . S
C123 C121 1.339 . S
C123 C122 1.395 . S
C123 H149 0.929 . S
C124 C122 1.320 . S
C124 C125 1.405 . S
C124 H150 0.930 . S
C125 C120 1.479 . S
C125 C124 1.405 . S
C125 H151 0.931 . S
U126 O127 2.454 1_554 S
U126 O128 2.458 . S
U126 C129 2.984 . S
U126 C130 2.847 1_554 S
U126 C143 2.882 . S
U126 O144 2.441 1_554 S
U126 O145 2.420 1_554 S
U126 O146 2.455 . S
U126 O147 2.449 . S
O127 U126 2.454 1_556 S
O127 C129 1.353 1_556 S
O128 U126 2.458 . S
O128 C129 1.286 . S
C129 U126 2.984 . S
C129 O127 1.353 1_554 S
C129 O128 1.286 . S
C129 C131 1.363 . S
C130 C120 1.465 . S
C130 U126 2.847 1_556 S
C130 O144 1.249 . S
C130 O145 1.202 . S
C131 C129 1.363 . S
C131 C133 1.408 1_554 S
C131 C136 1.342 . S
C132 C133 1.310 . S
C132 C135 1.461 1_556 S
C132 H152 0.932 . S
C133 C131 1.408 1_556 S
C133 C132 1.310 . S
C133 H153 0.930 . S
C134 C135 1.474 . S
C134 C136 1.285 . S
C134 H154 0.929 . S
C135 C132 1.461 1_554 S
C135 C134 1.474 . S
C136 C131 1.342 . S
C136 C134 1.285 . S
C136 H155 0.930 . S
C137 C140 1.424 . S
C137 C142 1.245 . S
C137 C143 1.428 . S
C138 C141 1.260 . S
C138 C142 1.477 . S
C138 H156 0.932 . S
C139 C140 1.384 . S
C139 C141 1.479 . S
C139 H157 0.929 . S
C140 C137 1.424 . S
C140 C139 1.384 . S
C140 H158 0.928 . S
C141 C138 1.260 . S
C141 C139 1.479 . S
C142 C137 1.245 . S
C142 C138 1.477 . S
C142 H159 0.932 . S
C143 U126 2.882 . S
C143 C137 1.428 . S
C143 O146 1.301 . S
C143 O147 1.282 . S
O144 U126 2.441 1_556 S
O144 C130 1.249 . S
O145 U126 2.420 1_556 S
O145 C130 1.202 . S
O146 U126 2.455 . S
O146 C143 1.301 . S
O147 U126 2.449 . S
O147 C143 1.282 . S
H148 C121 0.931 . S
H149 C123 0.929 . S
H150 C124 0.930 . S
H151 C125 0.931 . S
H152 C132 0.932 . S
H153 C133 0.930 . S
H154 C134 0.929 . S
H155 C136 0.930 . S
H156 C138 0.932 . S
H157 C139 0.929 . S
H158 C140 0.928 . S
H159 C142 0.932 . S
C160 C161 1.264 . S
C160 C165 1.479 . S
C160 C170 1.465 . S
C161 C160 1.264 . S
C161 C163 1.339 . S
C161 H188 0.931 . S
C162 C163 1.395 . S
C162 C164 1.320 . S
C163 C161 1.339 . S
C163 C162 1.395 . S
C163 H189 0.929 . S
C164 C162 1.320 . S
C164 C165 1.405 . S
C164 H190 0.930 . S
C165 C160 1.479 . S
C165 C164 1.405 . S
C165 H191 0.931 . S
U166 O167 2.454 . S
U166 O168 2.458 . S
U166 C169 2.984 . S
U166 C170 2.847 . S
U166 C183 2.882 . S
U166 O184 2.441 . S
U166 O185 2.420 . S
U166 O186 2.455 . S
U166 O187 2.449 . S
O167 U166 2.454 . S
O167 C169 1.353 . S
O168 U166 2.458 . S
O168 C169 1.286 . S
C169 U166 2.984 . S
C169 O167 1.353 . S
C169 O168 1.286 . S
C169 C171 1.363 . S
C170 C160 1.465 . S
C170 U166 2.847 . S
C170 O184 1.249 . S
C170 O185 1.202 . S
C171 C169 1.363 . S
C171 C173 1.408 . S
C171 C176 1.342 . S
C172 C173 1.310 . S
C172 C175 1.461 . S
C172 H192 0.932 . S
C173 C171 1.408 . S
C173 C172 1.310 . S
C173 H193 0.930 . S
C174 C175 1.474 . S
C174 C176 1.285 . S
C174 H194 0.929 . S
C175 C172 1.461 . S
C175 C174 1.474 . S
C176 C171 1.342 . S
C176 C174 1.285 . S
C176 H195 0.930 . S
C177 C180 1.424 . S
C177 C182 1.245 . S
C177 C183 1.428 . S
C178 C181 1.260 . S
C178 C182 1.477 . S
C178 H196 0.932 . S
C179 C180 1.384 . S
C179 C181 1.479 . S
C179 H197 0.929 . S
C180 C177 1.424 . S
C180 C179 1.384 . S
C180 H198 0.928 . S
C181 C178 1.260 . S
C181 C179 1.479 . S
C182 C177 1.245 . S
C182 C178 1.477 . S
C182 H199 0.932 . S
C183 U166 2.882 . S
C183 C177 1.428 . S
C183 O186 1.301 . S
C183 O187 1.282 . S
O184 U166 2.441 . S
O184 C170 1.249 . S
O185 U166 2.420 . S
O185 C170 1.202 . S
O186 U166 2.455 . S
O186 C183 1.301 . S
O187 U166 2.449 . S
O187 C183 1.282 . S
H188 C161 0.931 . S
H189 C163 0.929 . S
H190 C164 0.930 . S
H191 C165 0.931 . S
H192 C172 0.932 . S
H193 C173 0.930 . S
H194 C174 0.929 . S
H195 C176 0.930 . S
H196 C178 0.932 . S
H197 C179 0.929 . S
H198 C180 0.928 . S
H199 C182 0.932 . S
C200 C201 1.264 . S
C200 C205 1.479 . S
C200 C210 1.465 . S
C201 C200 1.264 . S
C201 C203 1.339 . S
C201 H228 0.931 . S
C202 C203 1.395 . S
C202 C204 1.320 . S
C203 C201 1.339 . S
C203 C202 1.395 . S
C203 H229 0.929 . S
C204 C202 1.320 . S
C204 C205 1.405 . S
C204 H230 0.930 . S
C205 C200 1.479 . S
C205 C204 1.405 . S
C205 H231 0.931 . S
U206 O207 2.454 . S
U206 O208 2.458 . S
U206 C209 2.984 . S
U206 C210 2.847 . S
U206 C223 2.882 . S
U206 O224 2.441 . S
U206 O225 2.420 . S
U206 O226 2.455 . S
U206 O227 2.449 . S
O207 U206 2.454 . S
O207 C209 1.353 . S
O208 U206 2.458 . S
O208 C209 1.286 . S
C209 U206 2.984 . S
C209 O207 1.353 . S
C209 O208 1.286 . S
C209 C211 1.363 . S
C210 C200 1.465 . S
C210 U206 2.847 . S
C210 O224 1.249 . S
C210 O225 1.202 . S
C211 C209 1.363 . S
C211 C213 1.408 . S
C211 C216 1.342 . S
C212 C213 1.310 . S
C212 C215 1.461 . S
C212 H232 0.932 . S
C213 C211 1.408 . S
C213 C212 1.310 . S
C213 H233 0.930 . S
C214 C215 1.474 . S
C214 C216 1.285 . S
C214 H234 0.929 . S
C215 C212 1.461 . S
C215 C214 1.474 . S
C216 C211 1.342 . S
C216 C214 1.285 . S
C216 H235 0.930 . S
C217 C220 1.424 . S
C217 C222 1.245 . S
C217 C223 1.428 . S
C218 C221 1.260 . S
C218 C222 1.477 . S
C218 H236 0.932 . S
C219 C220 1.384 . S
C219 C221 1.479 . S
C219 H237 0.929 . S
C220 C217 1.424 . S
C220 C219 1.384 . S
C220 H238 0.928 . S
C221 C218 1.260 . S
C221 C219 1.479 . S
C222 C217 1.245 . S
C222 C218 1.477 . S
C222 H239 0.932 . S
C223 U206 2.882 . S
C223 C217 1.428 . S
C223 O226 1.301 . S
C223 O227 1.282 . S
O224 U206 2.441 . S
O224 C210 1.249 . S
O225 U206 2.420 . S
O225 C210 1.202 . S
O226 U206 2.455 . S
O226 C223 1.301 . S
O227 U206 2.449 . S
O227 C223 1.282 . S
H228 C201 0.931 . S
H229 C203 0.929 . S
H230 C204 0.930 . S
H231 C205 0.931 . S
H232 C212 0.932 . S
H233 C213 0.930 . S
H234 C214 0.929 . S
H235 C216 0.930 . S
H236 C218 0.932 . S
H237 C219 0.929 . S
H238 C220 0.928 . S
H239 C222 0.932 . S
H240 C252 0.930 . S
H241 C254 0.930 . S
H242 C255 0.930 . S
H243 C259 0.980 1_545 S
H244 C259 0.927 1_545 S
H245 C259 1.010 . S
H246 C260 1.001 . S
H247 C260 0.934 1_545 S
H248 C260 0.906 1_545 S
H249 C263 0.929 . S
H250 C264 0.931 . S
H251 C266 0.930 . S
C252 H240 0.930 . S
C252 C253 1.399 1_556 S
C252 C257 1.399 . S
C253 C252 1.399 1_554 S
C253 C254 1.376 . S
C254 H241 0.930 . S
C254 C253 1.376 . S
C254 C255 1.388 . S
C255 H242 0.930 . S
C255 C254 1.388 . S
C255 C256 1.390 . S
C256 C255 1.390 . S
C256 C257 1.394 1_554 S
C256 C262 1.465 1_565 S
C257 C252 1.399 . S
C257 C256 1.394 1_556 S
C257 C258 1.543 . S
C258 C257 1.543 . S
C258 C259 1.497 . S
C258 C260 1.562 . S
C258 C261 1.489 1_565 S
C259 H243 0.980 1_565 S
C259 H244 0.927 1_565 S
C259 H245 1.010 . S
C259 C258 1.497 . S
C260 H246 1.001 . S
C260 H247 0.934 1_565 S
C260 H248 0.906 1_565 S
C260 C258 1.562 . S
C261 C258 1.489 1_545 S
C261 C262 1.396 1_556 S
C261 C266 1.390 . S
C262 C256 1.465 1_545 S
C262 C261 1.396 1_554 S
C262 C263 1.399 . S
C263 H249 0.929 . S
C263 C262 1.399 . S
C263 C264 1.385 . S
C264 H250 0.931 . S
C264 C263 1.385 . S
C264 C265 1.389 . S
C265 C264 1.389 . S
C265 C266 1.387 1_554 S
C266 H251 0.930 . S
C266 C261 1.390 . S
C266 C265 1.387 1_556 S
H267 C279 0.930 . S
H268 C281 0.930 . S
H269 C282 0.930 . S
H270 C286 0.959 . S
H271 C286 0.959 . S
H272 C286 0.961 . S
H273 C287 0.960 . S
H274 C287 0.961 . S
H275 C287 0.959 . S
H276 C290 0.929 . S
H277 C291 0.931 . S
H278 C293 0.930 . S
C279 H267 0.930 . S
C279 C280 1.399 . S
C279 C284 1.399 . S
C280 C279 1.399 . S
C280 C281 1.376 . S
C281 H268 0.930 . S
C281 C280 1.376 . S
C281 C282 1.388 . S
C282 H269 0.930 . S
C282 C281 1.388 . S
C282 C283 1.390 . S
C283 C282 1.390 . S
C283 C284 1.394 . S
C283 C289 1.465 . S
C284 C279 1.399 . S
C284 C283 1.394 . S
C284 C285 1.516 . S
C285 C284 1.516 . S
C285 C286 1.502 . S
C285 C287 1.561 . S
C285 C288 1.526 . S
C286 H270 0.959 . S
C286 H271 0.959 . S
C286 H272 0.961 . S
C286 C285 1.502 . S
C287 H273 0.960 . S
C287 H274 0.961 . S
C287 H275 0.959 . S
C287 C285 1.561 . S
C288 C285 1.526 . S
C288 C289 1.396 . S
C288 C293 1.390 . S
C289 C283 1.465 . S
C289 C288 1.396 . S
C289 C290 1.399 . S
C290 H276 0.929 . S
C290 C289 1.399 . S
C290 C291 1.385 . S
C291 H277 0.931 . S
C291 C290 1.385 . S
C291 C292 1.389 . S
C292 C291 1.389 . S
C292 C293 1.387 . S
C293 H278 0.930 . S
C293 C288 1.390 . S
C293 C292 1.387 . S
H294 C306 0.930 . S
H295 C308 0.930 . S
H296 C309 0.930 . S
H297 C313 0.959 . S
H298 C313 0.959 . S
H299 C313 0.961 1_455 S
H300 C314 0.960 . S
H301 C314 0.961 1_655 S
H302 C314 0.938 . S
H303 C317 0.929 . S
H304 C318 0.931 . S
H305 C320 0.930 . S
C306 H294 0.930 . S
C306 C307 1.399 . S
C306 C311 1.399 . S
C307 C306 1.399 . S
C307 C308 1.376 . S
C308 H295 0.930 . S
C308 C307 1.376 . S
C308 C309 1.388 . S
C309 H296 0.930 . S
C309 C308 1.388 . S
C309 C310 1.390 . S
C310 C309 1.390 . S
C310 C311 1.394 . S
C310 C316 1.465 1_455 S
C311 C306 1.399 . S
C311 C310 1.394 . S
C311 C312 1.487 1_455 S
C312 C311 1.487 1_655 S
C312 C313 1.523 . S
C312 C314 1.542 1_655 S
C312 C315 1.553 . S
C313 H297 0.959 . S
C313 H298 0.959 . S
C313 H299 0.961 1_655 S
C313 C312 1.523 . S
C314 H300 0.960 . S
C314 H301 0.961 1_455 S
C314 H302 0.938 . S
C314 C312 1.542 1_455 S
C315 C312 1.553 . S
C315 C316 1.396 . S
C315 C320 1.390 . S
C316 C310 1.465 1_655 S
C316 C315 1.396 . S
C316 C317 1.399 . S
C317 H303 0.929 . S
C317 C316 1.399 . S
C317 C318 1.385 . S
C318 H304 0.931 . S
C318 C317 1.385 . S
C318 C319 1.389 . S
C319 C318 1.389 . S
C319 C320 1.387 . S
C320 H305 0.930 . S
C320 C315 1.390 . S
C320 C319 1.387 . S
H321 C333 0.930 . S
H322 C335 0.930 . S
H323 C336 0.930 . S
H324 C340 0.959 . S
H325 C340 0.959 . S
H326 C340 0.961 . S
H327 C341 0.960 . S
H328 C341 0.961 . S
H329 C341 0.959 . S
H330 C344 0.929 . S
H331 C345 0.931 . S
H332 C347 0.930 . S
C333 H321 0.930 . S
C333 C334 1.399 . S
C333 C338 1.399 . S
C334 C333 1.399 . S
C334 C335 1.376 . S
C335 H322 0.930 . S
C335 C334 1.376 . S
C335 C336 1.388 . S
C336 H323 0.930 . S
C336 C335 1.388 . S
C336 C337 1.390 . S
C337 C336 1.390 . S
C337 C338 1.394 . S
C337 C343 1.465 . S
C338 C333 1.399 . S
C338 C337 1.394 . S
C338 C339 1.516 . S
C339 C338 1.516 . S
C339 C340 1.502 . S
C339 C341 1.561 . S
C339 C342 1.526 . S
C340 H324 0.959 . S
C340 H325 0.959 . S
C340 H326 0.961 . S
C340 C339 1.502 . S
C341 H327 0.960 . S
C341 H328 0.961 . S
C341 H329 0.959 . S
C341 C339 1.561 . S
C342 C339 1.526 . S
C342 C343 1.396 . S
C342 C347 1.390 . S
C343 C337 1.465 . S
C343 C342 1.396 . S
C343 C344 1.399 . S
C344 H330 0.929 . S
C344 C343 1.399 . S
C344 C345 1.385 . S
C345 H331 0.931 . S
C345 C344 1.385 . S
C345 C346 1.389 . S
C346 C345 1.389 . S
C346 C347 1.387 . S
C347 H332 0.930 . S
C347 C342 1.390 . S
C347 C346 1.387 . S
H348 C360 0.930 . S
H349 C362 0.930 . S
H350 C363 0.930 . S
H351 C367 0.959 . S
H352 C367 0.959 . S
H353 C367 0.961 . S
H354 C368 0.960 . S
H355 C368 0.961 . S
H356 C368 0.959 . S
H357 C371 0.929 . S
H358 C372 0.931 . S
H359 C374 0.930 . S
C360 H348 0.930 . S
C360 C361 1.399 . S
C360 C365 1.399 . S
C361 C360 1.399 . S
C361 C362 1.376 . S
C362 H349 0.930 . S
C362 C361 1.376 . S
C362 C363 1.388 . S
C363 H350 0.930 . S
C363 C362 1.388 . S
C363 C364 1.390 . S
C364 C363 1.390 . S
C364 C365 1.394 . S
C364 C370 1.465 . S
C365 C360 1.399 . S
C365 C364 1.394 . S
C365 C366 1.516 . S
C366 C365 1.516 . S
C366 C367 1.502 . S
C366 C368 1.561 . S
C366 C369 1.526 . S
C367 H351 0.959 . S
C367 H352 0.959 . S
C367 H353 0.961 . S
C367 C366 1.502 . S
C368 H354 0.960 . S
C368 H355 0.961 . S
C368 H356 0.959 . S
C368 C366 1.561 . S
C369 C366 1.526 . S
C369 C370 1.396 . S
C369 C374 1.390 . S
C370 C364 1.465 . S
C370 C369 1.396 . S
C370 C371 1.399 . S
C371 H357 0.929 . S
C371 C370 1.399 . S
C371 C372 1.385 . S
C372 H358 0.931 . S
C372 C371 1.385 . S
C372 C373 1.389 . S
C373 C372 1.389 . S
C373 C374 1.387 . S
C374 H359 0.930 . S
C374 C369 1.390 . S
C374 C373 1.387 . S
H375 C387 0.930 . S
H376 C389 0.930 . S
H377 C390 0.930 . S
H378 C394 0.959 . S
H379 C394 0.959 1_556 S
H380 C394 0.961 . S
H381 C395 0.960 . S
H382 C395 0.961 . S
H383 C395 0.959 . S
H384 C398 0.929 . S
H385 C399 0.931 . S
H386 C401 0.930 . S
C387 H375 0.930 . S
C387 C388 1.399 . S
C387 C392 1.399 . S
C388 C387 1.399 . S
C388 C389 1.376 . S
C389 H376 0.930 . S
C389 C388 1.376 . S
C389 C390 1.388 . S
C390 H377 0.930 . S
C390 C389 1.388 . S
C390 C391 1.390 . S
C391 C390 1.390 . S
C391 C392 1.394 . S
C391 C397 1.465 1_554 S
C392 C387 1.399 . S
C392 C391 1.394 . S
C392 C393 1.516 1_554 S
C393 C392 1.516 1_556 S
C393 C394 1.502 1_556 S
C393 C395 1.561 . S
C393 C396 1.526 . S
C394 H378 0.959 . S
C394 H379 0.959 1_554 S
C394 H380 0.961 . S
C394 C393 1.502 1_554 S
C395 H381 0.960 . S
C395 H382 0.961 . S
C395 H383 0.959 . S
C395 C393 1.561 . S
C396 C393 1.526 . S
C396 C397 1.396 . S
C396 C401 1.390 . S
C397 C391 1.465 1_556 S
C397 C396 1.396 . S
C397 C398 1.399 . S
C398 H384 0.929 . S
C398 C397 1.399 . S
C398 C399 1.385 . S
C399 H385 0.931 . S
C399 C398 1.385 . S
C399 C400 1.389 . S
C400 C399 1.389 . S
C400 C401 1.387 . S
C401 H386 0.930 . S
C401 C396 1.390 . S
C401 C400 1.387 . S
H402 C414 0.930 . S
H403 C416 0.930 . S
H404 C417 0.930 . S
H405 C421 0.959 . S
H406 C421 0.959 . S
H407 C421 0.961 . S
H408 C422 0.960 . S
H409 C422 0.961 . S
H410 C422 0.959 . S
H411 C425 0.929 . S
H412 C426 0.931 . S
H413 C428 0.930 . S
C414 H402 0.930 . S
C414 C415 1.399 . S
C414 C419 1.399 . S
C415 C414 1.399 . S
C415 C416 1.376 . S
C416 H403 0.930 . S
C416 C415 1.376 . S
C416 C417 1.388 . S
C417 H404 0.930 . S
C417 C416 1.388 . S
C417 C418 1.390 . S
C418 C417 1.390 . S
C418 C419 1.394 . S
C418 C424 1.465 . S
C419 C414 1.399 . S
C419 C418 1.394 . S
C419 C420 1.516 . S
C420 C419 1.516 . S
C420 C421 1.502 . S
C420 C422 1.561 . S
C420 C423 1.526 . S
C421 H405 0.959 . S
C421 H406 0.959 . S
C421 H407 0.961 . S
C421 C420 1.502 . S
C422 H408 0.960 . S
C422 H409 0.961 . S
C422 H410 0.959 . S
C422 C420 1.561 . S
C423 C420 1.526 . S
C423 C424 1.396 . S
C423 C428 1.390 . S
C424 C418 1.465 . S
C424 C423 1.396 . S
C424 C425 1.399 . S
C425 H411 0.929 . S
C425 C424 1.399 . S
C425 C426 1.385 . S
C426 H412 0.931 . S
C426 C425 1.385 . S
C426 C427 1.389 . S
C427 C426 1.389 . S
C427 C428 1.387 . S
C428 H413 0.930 . S
C428 C423 1.390 . S
C428 C427 1.387 . S
H429 C441 0.930 . S
H430 C443 0.930 . S
H431 C444 0.930 . S
H432 C448 0.959 . S
H433 C448 0.959 . S
H434 C448 0.961 . S
H435 C449 0.960 . S
H436 C449 0.961 . S
H437 C449 0.959 . S
H438 C452 0.929 . S
H439 C453 0.931 . S
H440 C455 0.930 . S
C441 H429 0.930 . S
C441 C442 1.399 . S
C441 C446 1.399 . S
C442 C441 1.399 . S
C442 C443 1.376 . S
C443 H430 0.930 . S
C443 C442 1.376 . S
C443 C444 1.388 . S
C444 H431 0.930 . S
C444 C443 1.388 . S
C444 C445 1.390 . S
C445 C444 1.390 . S
C445 C446 1.394 . S
C445 C451 1.465 . S
C446 C441 1.399 . S
C446 C445 1.394 . S
C446 C447 1.516 . S
C447 C446 1.516 . S
C447 C448 1.502 . S
C447 C449 1.561 . S
C447 C450 1.526 . S
C448 H432 0.959 . S
C448 H433 0.959 . S
C448 H434 0.961 . S
C448 C447 1.502 . S
C449 H435 0.960 . S
C449 H436 0.961 . S
C449 H437 0.959 . S
C449 C447 1.561 . S
C450 C447 1.526 . S
C450 C451 1.396 . S
C450 C455 1.390 . S
C451 C445 1.465 . S
C451 C450 1.396 . S
C451 C452 1.399 . S
C452 H438 0.929 . S
C452 C451 1.399 . S
C452 C453 1.385 . S
C453 H439 0.931 . S
C453 C452 1.385 . S
C453 C454 1.389 . S
C454 C453 1.389 . S
C454 C455 1.387 . S
C455 H440 0.930 . S
C455 C450 1.390 . S
C455 C454 1.387 . S
H456 C468 0.930 . S
H457 C470 0.930 . S
H458 C471 0.930 . S
H459 C475 0.959 . S
H460 C475 0.959 1_554 S
H461 C475 0.961 . S
H462 C476 0.960 . S
H463 C476 0.961 . S
H464 C476 0.959 . S
H465 C479 0.929 . S
H466 C480 0.931 . S
H467 C482 0.930 . S
C468 H456 0.930 . S
C468 C469 1.399 . S
C468 C473 1.399 . S
C469 C468 1.399 . S
C469 C470 1.376 . S
C470 H457 0.930 . S
C470 C469 1.376 . S
C470 C471 1.388 . S
C471 H458 0.930 . S
C471 C470 1.388 . S
C471 C472 1.392 . S
C472 C471 1.392 . S
C472 C473 1.396 . S
C472 C478 1.461 1_556 S
C473 C468 1.399 . S
C473 C472 1.396 . S
C473 C474 1.516 1_556 S
C474 C473 1.516 1_554 S
C474 C475 1.502 1_554 S
C474 C476 1.561 . S
C474 C477 1.526 . S
C475 H459 0.959 . S
C475 H460 0.959 1_556 S
C475 H461 0.961 . S
C475 C474 1.502 1_556 S
C476 H462 0.960 . S
C476 H463 0.961 . S
C476 H464 0.959 . S
C476 C474 1.561 . S
C477 C474 1.526 . S
C477 C478 1.396 . S
C477 C482 1.390 . S
C478 C472 1.461 1_554 S
C478 C477 1.396 . S
C478 C479 1.399 . S
C479 H465 0.929 . S
C479 C478 1.399 . S
C479 C480 1.385 . S
C480 H466 0.931 . S
C480 C479 1.385 . S
C480 C481 1.389 . S
C481 C480 1.389 . S
C481 C482 1.387 . S
C482 H467 0.930 . S
C482 C477 1.390 . S
C482 C481 1.387 . S
C253 C15 1.492 . S
C265 C135 1.492 . S
C280 C175 1.492 . S
C292 C55 1.492 . S
C307 C95 1.496 . S
C319 C215 1.499 . S
C334 C2 1.474 . S
C346 C82 1.485 . S
C361 C42 1.464 . S
C373 C122 1.475 . S
C388 C162 1.462 . S
C400 C101 1.497 . S
C415 C202 1.497 . S
C427 C141 1.487 . S
C442 C181 1.489 . S
C454 C21 1.499 . S
C469 C221 1.494 . S
C481 C61 1.502 . S
