# Generated by pormake.
# Topology vmn, (7)-cn, num edge types: 1
# Building blocks:
#     Node 0, Type 0, BuildingBlock: HICVOG_clean_sbu_0, # of connection points: 7
#     Node 1, Type 0, BuildingBlock: HICVOG_clean_sbu_0, # of connection points: 7
#     Node 2, Type 0, BuildingBlock: HICVOG_clean_sbu_0, # of connection points: 7
#     Node 3, Type 0, BuildingBlock: HICVOG_clean_sbu_0, # of connection points: 7
#     Node 4, Type 0, BuildingBlock: HICVOG_clean_sbu_0, # of connection points: 7
#     Node 5, Type 0, BuildingBlock: HICVOG_clean_sbu_0, # of connection points: 7
#     Node 6, Type 0, BuildingBlock: HICVOG_clean_sbu_0, # of connection points: 7
#     Node 7, Type 0, BuildingBlock: HICVOG_clean_sbu_0, # of connection points: 7
#     Edge 8, Type (0, 0), BuildingBlock: UVAHIK_clean_linker_0, # of connection points: 2
#     Edge 9, Type (0, 0), BuildingBlock: UVAHIK_clean_linker_0, # of connection points: 2
#     Edge 10, Type (0, 0), BuildingBlock: UVAHIK_clean_linker_0, # of connection points: 2
#     Edge 11, Type (0, 0), BuildingBlock: UVAHIK_clean_linker_0, # of connection points: 2
#     Edge 12, Type (0, 0), BuildingBlock: UVAHIK_clean_linker_0, # of connection points: 2
#     Edge 13, Type (0, 0), BuildingBlock: UVAHIK_clean_linker_0, # of connection points: 2
#     Edge 14, Type (0, 0), BuildingBlock: UVAHIK_clean_linker_0, # of connection points: 2
#     Edge 15, Type (0, 0), BuildingBlock: UVAHIK_clean_linker_0, # of connection points: 2
#     Edge 16, Type (0, 0), BuildingBlock: UVAHIK_clean_linker_0, # of connection points: 2
#     Edge 17, Type (0, 0), BuildingBlock: UVAHIK_clean_linker_0, # of connection points: 2
#     Edge 18, Type (0, 0), BuildingBlock: UVAHIK_clean_linker_0, # of connection points: 2
#     Edge 19, Type (0, 0), BuildingBlock: UVAHIK_clean_linker_0, # of connection points: 2
#     Edge 20, Type (0, 0), BuildingBlock: UVAHIK_clean_linker_0, # of connection points: 2
#     Edge 21, Type (0, 0), BuildingBlock: UVAHIK_clean_linker_0, # of connection points: 2
#     Edge 22, Type (0, 0), BuildingBlock: UVAHIK_clean_linker_0, # of connection points: 2
#     Edge 23, Type (0, 0), BuildingBlock: UVAHIK_clean_linker_0, # of connection points: 2
#     Edge 24, Type (0, 0), BuildingBlock: UVAHIK_clean_linker_0, # of connection points: 2
#     Edge 25, Type (0, 0), BuildingBlock: UVAHIK_clean_linker_0, # of connection points: 2
#     Edge 26, Type (0, 0), BuildingBlock: UVAHIK_clean_linker_0, # of connection points: 2
#     Edge 27, Type (0, 0), BuildingBlock: UVAHIK_clean_linker_0, # of connection points: 2
#     Edge 28, Type (0, 0), BuildingBlock: UVAHIK_clean_linker_0, # of connection points: 2
#     Edge 29, Type (0, 0), BuildingBlock: UVAHIK_clean_linker_0, # of connection points: 2
#     Edge 30, Type (0, 0), BuildingBlock: UVAHIK_clean_linker_0, # of connection points: 2
#     Edge 31, Type (0, 0), BuildingBlock: UVAHIK_clean_linker_0, # of connection points: 2
#     Edge 32, Type (0, 0), BuildingBlock: UVAHIK_clean_linker_0, # of connection points: 2
#     Edge 33, Type (0, 0), BuildingBlock: UVAHIK_clean_linker_0, # of connection points: 2
#     Edge 34, Type (0, 0), BuildingBlock: UVAHIK_clean_linker_0, # of connection points: 2
#     Edge 35, Type (0, 0), BuildingBlock: UVAHIK_clean_linker_0, # of connection points: 2
# Relax obj value: 0.155
# Max RMSD: 0.216
# Mean RMSD: 0.216
data_MOF--net-vmn--node1-HICVOG_clean_sbu_0--edge1-UVAHIK_clean_linker_0
_symmetry_space_group_name_H-M    P1
_symmetry_Int_Tables_number       1
_symmetry_cell_setting            triclinic
loop_
_symmetry_equiv_pos_as_xyz
'x, y, z'
_cell_length_a     47.966927
_cell_length_b     40.182126
_cell_length_c     37.422001
_cell_angle_alpha  89.984755
_cell_angle_beta   99.292229
_cell_angle_gamma 89.967977
loop_
_atom_site_label
_atom_site_type_symbol
_atom_site_fract_x
_atom_site_fract_y
_atom_site_fract_z
_atom_type_partial_charge
Zn0 Zn 0.96456 0.34655 0.17859 0.0
C1 C 1.00685 0.32891 0.27875 0.0
N2 N 1.00025 0.36095 0.28382 0.0
C3 C 0.98734 0.3703 0.25084 0.0
N4 N 0.9861 0.34507 0.22687 0.0
N5 N 0.99939 0.31917 0.24388 0.0
C6 C 0.01059 0.22463 0.24557 0.0
O7 O 0.98457 0.23517 0.2356 0.0
O8 O 0.96786 0.39177 0.15757 0.0
Zn9 Zn 0.02508 0.29067 0.22087 0.0
N10 N 0.92503 0.33656 0.18021 0.0
C11 C 0.8909 0.31712 0.2148 0.0
C12 C 0.91875 0.32461 0.21193 0.0
C13 C 0.9044 0.34117 0.1509 0.0
N14 N 0.87037 0.32168 0.18575 0.0
C15 C 0.87604 0.33343 0.15352 0.0
O16 O 0.01461 0.28394 0.16592 0.0
C17 C 0.99712 0.29467 0.13906 0.0
O18 O 0.97873 0.31651 0.14305 0.0
H19 H 0.93527 0.32094 0.23489 0.0
H20 H 0.91015 0.35112 0.12625 0.0
C21 C 0.0869 0.29852 0.22989 0.0
C22 C 0.11173 0.31792 0.23245 0.0
C23 C 0.08389 0.36698 0.2305 0.0
C24 C 0.05956 0.34781 0.22765 0.0
N25 N 0.06132 0.31405 0.22743 0.0
N26 N 0.10924 0.35167 0.23268 0.0
H27 H 0.08773 0.27164 0.22884 0.0
C28 C 0.9925 0.39892 0.15168 0.0
O29 O 0.01305 0.37756 0.16145 0.0
O30 O 0.03096 0.24437 0.24325 0.0
H31 H 0.03935 0.35991 0.22513 0.0
H32 H 0.88558 0.30768 0.23993 0.0
H33 H 0.08263 0.39386 0.23061 0.0
Zn34 Zn 0.54864 0.34534 0.83597 0.0
C35 C 0.50723 0.32947 0.73498 0.0
N36 N 0.51404 0.36154 0.73059 0.0
C37 C 0.52665 0.37037 0.76386 0.0
N38 N 0.52753 0.34479 0.78739 0.0
N39 N 0.51432 0.31919 0.76974 0.0
C40 C 0.5029 0.22404 0.76899 0.0
O41 O 0.52875 0.23417 0.78099 0.0
O42 O 0.54639 0.39069 0.85688 0.0
Zn43 Zn 0.4881 0.2906 0.79176 0.0
N44 N 0.58799 0.33397 0.83505 0.0
C45 C 0.62206 0.3119 0.80189 0.0
C46 C 0.59427 0.32039 0.80407 0.0
C47 C 0.60854 0.33929 0.86426 0.0
N48 N 0.64252 0.31713 0.83087 0.0
C49 C 0.63683 0.33052 0.86237 0.0
O50 O 0.4976 0.28386 0.84666 0.0
C51 C 0.51454 0.29426 0.8742 0.0
O52 O 0.53335 0.31585 0.87119 0.0
H53 H 0.57779 0.3162 0.78119 0.0
H54 H 0.60278 0.35058 0.88825 0.0
C55 C 0.42622 0.29892 0.78154 0.0
C56 C 0.4015 0.31857 0.77879 0.0
C57 C 0.42972 0.36735 0.78174 0.0
C58 C 0.45394 0.34793 0.78491 0.0
N59 N 0.45193 0.31419 0.78459 0.0
N60 N 0.40424 0.3523 0.77892 0.0
H61 H 0.42523 0.27204 0.78238 0.0
C62 C 0.52191 0.39917 0.86228 0.0
O63 O 0.50067 0.3788 0.85232 0.0
O64 O 0.48248 0.24424 0.76931 0.0
H65 H 0.47425 0.35981 0.78821 0.0
H66 H 0.62739 0.30115 0.77736 0.0
H67 H 0.43116 0.39422 0.78199 0.0
Zn68 Zn 0.988 0.73498 0.7912 0.0
C69 C 0.02784 0.65404 0.76422 0.0
N70 N 0.01641 0.66282 0.73044 0.0
C71 C 0.00785 0.69433 0.73472 0.0
N72 N 0.01323 0.70438 0.76972 0.0
N73 N 0.02654 0.67908 0.78789 0.0
C74 C 0.02189 0.63294 0.87286 0.0
O75 O 1.00166 0.6549 0.86398 0.0
O76 O 0.98186 0.77985 0.76526 0.0
Zn77 Zn 0.04844 0.68011 0.8359 0.0
N78 N 0.95195 0.71164 0.78743 0.0
C79 C 0.93026 0.6587 0.79063 0.0
C80 C 0.95426 0.67807 0.79108 0.0
C81 C 0.92618 0.72685 0.78354 0.0
N82 N 0.90469 0.67369 0.78699 0.0
C83 C 0.90168 0.70729 0.78345 0.0
O84 O 0.03504 0.71295 0.86901 0.0
C85 C 0.01703 0.73534 0.8725 0.0
O86 O 0.999 0.74499 0.84563 0.0
H87 H 0.97467 0.66641 0.79491 0.0
H88 H 0.92498 0.75369 0.78164 0.0
C89 C 0.10867 0.68447 0.86221 0.0
C90 C 0.13704 0.6916 0.85909 0.0
C91 C 0.12191 0.70714 0.79762 0.0
C92 C 0.09403 0.70032 0.80102 0.0
N93 N 0.0879 0.68903 0.83308 0.0
N94 N 0.14258 0.70266 0.82653 0.0
H95 H 0.10299 0.67507 0.88713 0.0
C96 C 1.00158 0.80138 0.76844 0.0
O97 O 0.02656 0.79317 0.78616 0.0
O98 O 0.04523 0.63698 0.8615 0.0
H99 H 0.07736 0.70403 0.77823 0.0
H100 H 0.93194 0.63195 0.79358 0.0
H101 H 0.12711 0.71605 0.77223 0.0
Zn102 Zn 0.52598 0.73424 0.22168 0.0
C103 C 0.48375 0.65478 0.24678 0.0
N104 N 0.49454 0.66325 0.28089 0.0
C105 C 0.50379 0.69453 0.27714 0.0
N106 N 0.49947 0.70472 0.24215 0.0
N107 N 0.48611 0.67981 0.22341 0.0
C108 C 0.49182 0.63403 0.13922 0.0
O109 O 0.51228 0.65536 0.14959 0.0
O110 O 0.5317 0.77974 0.24592 0.0
Zn111 Zn 0.46503 0.68164 0.17482 0.0
N112 N 0.56198 0.7105 0.22797 0.0
C113 C 0.58391 0.65726 0.22917 0.0
C114 C 0.5598 0.67679 0.22692 0.0
C115 C 0.58772 0.72566 0.23103 0.0
N116 N 0.60944 0.6722 0.23197 0.0
C117 C 0.61231 0.70592 0.23295 0.0
O118 O 0.47955 0.71397 0.14185 0.0
C119 C 0.49884 0.73506 0.13948 0.0
O120 O 0.51668 0.74337 0.16708 0.0
H121 H 0.53943 0.66509 0.22376 0.0
H122 H 0.58883 0.75255 0.23084 0.0
C123 C 0.405 0.68624 0.14733 0.0
C124 C 0.37662 0.69422 0.14958 0.0
C125 C 0.39131 0.71195 0.2104 0.0
C126 C 0.41921 0.70431 0.20784 0.0
N127 N 0.42555 0.69153 0.17652 0.0
N128 N 0.37085 0.70678 0.18142 0.0
H129 H 0.41087 0.67566 0.12306 0.0
C130 C 0.51134 0.80014 0.24552 0.0
O131 O 0.48563 0.79045 0.23206 0.0
O132 O 0.46803 0.63852 0.14928 0.0
H133 H 0.43573 0.70856 0.23067 0.0
H134 H 0.58234 0.63041 0.22828 0.0
H135 H 0.38593 0.72205 0.2352 0.0
Zn136 Zn 0.46437 0.84299 0.67735 0.0
C137 C 0.50535 0.82877 0.7784 0.0
N138 N 0.49674 0.86022 0.78284 0.0
C139 C 0.48486 0.86892 0.7492 0.0
N140 N 0.48603 0.84385 0.72549 0.0
N141 N 0.49966 0.81866 0.74346 0.0
C142 C 0.51086 0.72222 0.74558 0.0
O143 O 0.48576 0.7308 0.72854 0.0
O144 O 0.46766 0.88656 0.65283 0.0
Zn145 Zn 0.52487 0.78817 0.72192 0.0
N146 N 0.42488 0.83383 0.67975 0.0
C147 C 0.39074 0.81507 0.71466 0.0
C148 C 0.41863 0.82214 0.71159 0.0
C149 C 0.40422 0.83857 0.65053 0.0
N150 N 0.37017 0.81971 0.68567 0.0
C151 C 0.37583 0.83118 0.65332 0.0
O152 O 0.51396 0.77828 0.66742 0.0
C153 C 0.49606 0.78809 0.64049 0.0
O154 O 0.47804 0.81048 0.64399 0.0
H155 H 0.43522 0.81831 0.73445 0.0
H156 H 0.41001 0.84828 0.62581 0.0
C157 C 0.58674 0.79629 0.73001 0.0
C158 C 0.61124 0.81591 0.73033 0.0
C159 C 0.58261 0.86445 0.72311 0.0
C160 C 0.55862 0.84502 0.72241 0.0
N161 N 0.56095 0.81145 0.72596 0.0
N162 N 0.6082 0.84951 0.72689 0.0
H163 H 0.58797 0.76945 0.73185 0.0
C164 C 0.49115 0.89093 0.64194 0.0
O165 O 0.51114 0.86853 0.64995 0.0
O166 O 0.53085 0.74335 0.74794 0.0
H167 H 0.53818 0.85662 0.71847 0.0
H168 H 0.38543 0.80584 0.73988 0.0
H169 H 0.58091 0.8912 0.72023 0.0
Zn170 Zn 0.98867 0.78881 0.29104 0.0
C171 C 0.02878 0.8696 0.2642 0.0
N172 N 0.01742 0.8608 0.23041 0.0
C173 C 0.0088 0.82933 0.23472 0.0
N174 N 0.01405 0.81933 0.26974 0.0
N175 N 0.02737 0.84459 0.2879 0.0
C176 C 0.0219 0.89108 0.372 0.0
O177 O 1.00173 0.8691 0.36295 0.0
O178 O 0.98302 0.74387 0.26528 0.0
Zn179 Zn 0.04891 0.84362 0.33611 0.0
N180 N 0.95248 0.812 0.28646 0.0
C181 C 0.93044 0.86495 0.288 0.0
C182 C 0.95457 0.84565 0.28917 0.0
C183 C 0.92679 0.79665 0.28286 0.0
N184 N 0.90496 0.84983 0.28463 0.0
C185 C 0.90215 0.81615 0.28206 0.0
O186 O 0.03519 0.81099 0.36919 0.0
C187 C 0.0171 0.78869 0.3726 0.0
O188 O 0.99922 0.779 0.34561 0.0
H189 H 0.97491 0.85745 0.29279 0.0
H190 H 0.92576 0.76977 0.28174 0.0
C191 C 0.1089 0.83921 0.36347 0.0
C192 C 0.13738 0.8319 0.36107 0.0
C193 C 0.12301 0.81616 0.29952 0.0
C194 C 0.09502 0.82314 0.30223 0.0
N195 N 0.08847 0.83459 0.33399 0.0
N196 N 0.14336 0.82066 0.32879 0.0
H197 H 0.10284 0.84876 0.3881 0.0
C198 C 1.00278 0.72236 0.26947 0.0
O199 O 0.02739 0.73067 0.28814 0.0
O200 O 0.04546 0.88686 0.36123 0.0
H201 H 0.0786 0.81941 0.27915 0.0
H202 H 0.93195 0.89176 0.29018 0.0
H203 H 0.12857 0.80711 0.27437 0.0
Zn204 Zn 0.48804 0.23481 0.29172 0.0
C205 C 0.52893 0.15525 0.26356 0.0
N206 N 0.51734 0.16428 0.22991 0.0
C207 C 0.50846 0.19557 0.23464 0.0
N208 N 0.51369 0.20522 0.26977 0.0
N209 N 0.52736 0.17998 0.28756 0.0
C210 C 0.52225 0.13258 0.37059 0.0
O211 O 0.50222 0.15488 0.36221 0.0
O212 O 0.48193 0.28029 0.26756 0.0
Zn213 Zn 0.54917 0.18062 0.33567 0.0
N214 N 0.45195 0.21139 0.28659 0.0
C215 C 0.43024 0.15818 0.28702 0.0
C216 C 0.45426 0.17774 0.28881 0.0
C217 C 0.42613 0.2265 0.28285 0.0
N218 N 0.40463 0.17306 0.28349 0.0
C219 C 0.40158 0.20673 0.28138 0.0
O220 O 0.53568 0.2128 0.36954 0.0
C221 C 0.51706 0.23445 0.37313 0.0
O222 O 0.49879 0.24365 0.34631 0.0
H223 H 0.47472 0.16618 0.29248 0.0
H224 H 0.42492 0.25337 0.28207 0.0
C225 C 0.6094 0.185 0.36231 0.0
C226 C 0.63778 0.19221 0.35934 0.0
C227 C 0.62277 0.20814 0.29798 0.0
C228 C 0.59487 0.20123 0.30121 0.0
N229 N 0.58868 0.1897 0.33314 0.0
N230 N 0.64339 0.20351 0.3269 0.0
H231 H 0.60368 0.17542 0.38713 0.0
C232 C 0.50225 0.30025 0.2658 0.0
O233 O 0.52824 0.29022 0.27723 0.0
O234 O 0.54584 0.13697 0.35998 0.0
H235 H 0.57825 0.20505 0.2784 0.0
H236 H 0.43193 0.13136 0.28881 0.0
H237 H 0.62802 0.21723 0.27268 0.0
Zn238 Zn 0.02571 0.23282 0.72137 0.0
C239 C 0.98658 0.1532 0.74898 0.0
N240 N 0.99902 0.16191 0.78238 0.0
C241 C 1.00615 0.19391 0.77811 0.0
N242 N 0.99944 0.20419 0.74329 0.0
N243 N 0.98614 0.17874 0.72548 0.0
C244 C 0.99222 0.12553 0.65013 0.0
O245 O 0.01312 0.14622 0.66067 0.0
O246 O 0.03123 0.27907 0.74393 0.0
Zn247 Zn 0.96508 0.17841 0.67692 0.0
N248 N 0.0619 0.2093 0.72864 0.0
C249 C 0.08414 0.15616 0.73171 0.0
C250 C 0.05992 0.17556 0.72848 0.0
C251 C 0.0876 0.22458 0.73163 0.0
N252 N 0.10962 0.17122 0.73446 0.0
C253 C 0.11234 0.20495 0.73446 0.0
O254 O 0.98026 0.2082 0.64185 0.0
C255 C 0.99919 0.22965 0.63889 0.0
O256 O 0.01628 0.23974 0.66644 0.0
H257 H 0.0396 0.16368 0.72528 0.0
H258 H 0.08857 0.25146 0.73068 0.0
C259 C 0.90521 0.18447 0.64863 0.0
C260 C 0.87692 0.19321 0.65053 0.0
C261 C 0.8916 0.21133 0.71121 0.0
C262 C 0.9194 0.20289 0.70901 0.0
N263 N 0.92571 0.18957 0.67793 0.0
N264 N 0.87118 0.20633 0.68213 0.0
H265 H 0.91101 0.1734 0.62455 0.0
C266 C 0.01077 0.29931 0.74365 0.0
O267 O 0.98502 0.28927 0.73091 0.0
O268 O 0.9676 0.13325 0.65562 0.0
H269 H 0.93586 0.20693 0.73196 0.0
H270 H 0.08272 0.12928 0.73157 0.0
H271 H 0.88624 0.22187 0.73582 0.0
C272 C 0.01412 0.92195 0.29104 0.0
C273 C 0.03396 0.9049 0.27417 0.0
C274 C 0.01463 0.95664 0.2936 0.0
C275 C 0.0562 0.03285 0.28659 0.0
H276 H 0.98307 0.07197 0.25108 0.0
C277 C 0.04186 0.17394 0.25255 0.0
C278 C 0.016 0.18919 0.25584 0.0
C279 C 0.04574 0.13964 0.25843 0.0
C280 C 1.00359 0.06175 0.26184 0.0
H281 H 0.06982 0.91072 0.24638 0.0
H282 H 0.07113 0.9718 0.25129 0.0
H283 H 0.98766 1.01198 0.25625 0.0
H284 H 0.97455 0.18072 0.26996 0.0
H285 H 0.98163 0.12153 0.28185 0.0
H286 H 0.0721 0.08271 0.29275 0.0
C287 C 0.05548 0.95814 0.26323 0.0
C288 C 1.00622 0.02716 0.2646 0.0
C289 C 0.05481 0.92325 0.26048 0.0
C290 C 0.99461 0.16967 0.26675 0.0
C291 C 0.99863 0.13555 0.27324 0.0
C292 C 0.0535 0.06764 0.28434 0.0
C293 C 0.03483 0.97525 0.27888 0.0
C294 C 0.03251 1.01224 0.27694 0.0
C295 C 0.02399 0.11976 0.26829 0.0
C296 C 0.02712 0.08266 0.27184 0.0
H297 H 0.99711 0.90868 0.30046 0.0
H298 H 0.99851 0.96902 0.30594 0.0
H299 H 0.07672 0.02207 0.29633 0.0
H300 H 0.05876 0.18825 0.24401 0.0
H301 H 0.06547 0.12861 0.25392 0.0
C302 C 0.49977 0.92143 0.72292 0.0
C303 C 0.47967 0.90424 0.73921 0.0
C304 C 0.49925 0.95613 0.72053 0.0
C305 C 0.45755 0.03235 0.72658 0.0
H306 H 0.53021 0.0711 0.76497 0.0
C307 C 0.47141 0.17358 0.76053 0.0
C308 C 0.49759 0.18862 0.7586 0.0
C309 C 0.46756 0.13927 0.75465 0.0
C310 C 0.50984 0.06101 0.75339 0.0
H311 H 0.44329 0.90988 0.76608 0.0
H312 H 0.44196 0.97101 0.76141 0.0
H313 H 0.52561 1.01115 0.75944 0.0
H314 H 0.53971 0.17976 0.74687 0.0
H315 H 0.53273 0.12062 0.73485 0.0
H316 H 0.44183 0.08228 0.71985 0.0
C317 C 0.45784 0.95742 0.74983 0.0
C318 C 0.5072 0.02643 0.75045 0.0
C319 C 0.45853 0.9225 0.75242 0.0
C320 C 0.51939 0.16888 0.74902 0.0
C321 C 0.51541 0.13477 0.74247 0.0
C322 C 0.46027 0.06714 0.72897 0.0
C323 C 0.47876 0.97464 0.73482 0.0
C324 C 0.48107 1.01163 0.73705 0.0
C325 C 0.48968 0.11917 0.7461 0.0
C326 C 0.4865 0.08205 0.74249 0.0
H327 H 0.51695 0.90823 0.71379 0.0
H328 H 0.51558 0.9686 0.70868 0.0
H329 H 0.43716 0.02166 0.71603 0.0
H330 H 0.45421 0.18807 0.76805 0.0
H331 H 0.44753 0.12842 0.75812 0.0
C332 C 0.95653 0.10277 0.72976 0.0
C333 C 0.98315 0.11786 0.73834 0.0
C334 C 0.95444 0.06814 0.72421 0.0
C335 C 0.9967 0.99333 0.70698 0.0
H336 H 0.94759 0.9453 0.7617 0.0
C337 C 0.01876 0.8582 0.75469 0.0
C338 C 0.99611 0.83615 0.75536 0.0
C339 C 0.01391 0.89171 0.7455 0.0
C340 C 0.96109 0.95824 0.74571 0.0
H341 H 0.02825 0.10914 0.74743 0.0
H342 H 0.02476 0.04949 0.73715 0.0
H343 H 0.9443 1.00591 0.75708 0.0
H344 H 0.95043 0.83209 0.74604 0.0
H345 H 0.94194 0.89081 0.73016 0.0
H346 H 0.01417 0.94589 0.69662 0.0
C347 C 1.00544 0.06391 0.73429 0.0
C348 C 0.95915 0.99305 0.743 0.0
C349 C 0.00748 0.09815 0.74031 0.0
C350 C 0.96839 0.84836 0.74573 0.0
C351 C 0.96351 0.88207 0.73687 0.0
C352 C 0.99867 0.95862 0.70975 0.0
C353 C 0.97895 0.04825 0.7268 0.0
C354 C 0.97752 1.01112 0.72449 0.0
C355 C 0.98624 0.90427 0.73696 0.0
C356 C 0.98146 0.94066 0.73 0.0
H357 H 0.93749 0.11753 0.72842 0.0
H358 H 0.9337 0.05687 0.71837 0.0
H359 H 0.01079 1.00636 0.69189 0.0
H360 H 0.04038 0.84972 0.76192 0.0
H361 H 0.03194 0.90806 0.74631 0.0
C362 C 0.54303 0.85035 0.25467 0.0
C363 C 0.51671 0.83548 0.25612 0.0
C364 C 0.54689 0.88468 0.26028 0.0
C365 C 0.50454 0.96304 0.25952 0.0
H366 H 0.57693 1.00273 0.29765 0.0
C367 C 0.51415 0.10259 0.28961 0.0
C368 C 0.53414 0.11986 0.27323 0.0
C369 C 0.51481 0.06791 0.29207 0.0
C370 C 0.55663 0.99193 0.28687 0.0
H371 H 0.47435 0.84461 0.26684 0.0
H372 H 0.48135 0.90382 0.2785 0.0
H373 H 0.57233 0.94206 0.2946 0.0
H374 H 0.57046 0.11441 0.24621 0.0
H375 H 0.57204 0.05326 0.25099 0.0
H376 H 0.48877 0.01285 0.25255 0.0
C377 C 0.49879 0.88951 0.27141 0.0
C378 C 0.55394 0.95712 0.28492 0.0
C379 C 0.49479 0.85538 0.26509 0.0
C380 C 0.5553 0.10171 0.25992 0.0
C381 C 0.55613 0.0668 0.26259 0.0
C382 C 0.50714 0.99764 0.26203 0.0
C383 C 0.52465 0.90496 0.2681 0.0
C384 C 0.5278 0.9421 0.27118 0.0
C385 C 0.53534 0.04951 0.27776 0.0
C386 C 0.53316 0.01254 0.27571 0.0
H387 H 0.56032 0.83572 0.24759 0.0
H388 H 0.56704 0.89541 0.2571 0.0
H389 H 0.48426 0.95285 0.24772 0.0
H390 H 0.49696 0.11568 0.29883 0.0
H391 H 0.49857 0.05536 0.30402 0.0
C392 C 0.49346 0.66529 0.75857 0.0
C393 C 0.51616 0.68742 0.75867 0.0
C394 C 0.49822 0.63177 0.76776 0.0
C395 C 0.55164 0.56554 0.76939 0.0
H396 H 0.50024 0.5167 0.82002 0.0
C397 C 0.55621 0.42091 0.78442 0.0
C398 C 0.52974 0.40576 0.77441 0.0
C399 C 0.55805 0.45552 0.79029 0.0
C400 C 0.51482 0.52995 0.80584 0.0
H401 H 0.56182 0.6916 0.76952 0.0
H402 H 0.57015 0.63292 0.78552 0.0
H403 H 0.49676 0.57718 0.81563 0.0
H404 H 0.48465 0.41435 0.76303 0.0
H405 H 0.4877 0.47397 0.77372 0.0
H406 H 0.56906 0.51807 0.7586 0.0
C407 C 0.54861 0.64158 0.7781 0.0
C408 C 0.51278 0.56465 0.80326 0.0
C409 C 0.54382 0.67528 0.76916 0.0
C410 C 0.50529 0.4254 0.77121 0.0
C411 C 0.50706 0.4596 0.7775 0.0
C412 C 0.55366 0.53074 0.77194 0.0
C413 C 0.52585 0.61929 0.77717 0.0
C414 C 0.53061 0.58287 0.7841 0.0
C415 C 0.53343 0.47532 0.78654 0.0
C416 C 0.53469 0.51242 0.78925 0.0
H417 H 0.47188 0.6737 0.75066 0.0
H418 H 0.48016 0.61536 0.76626 0.0
H419 H 0.56563 0.57867 0.75426 0.0
H420 H 0.57535 0.40621 0.78675 0.0
H421 H 0.57869 0.46683 0.79733 0.0
C422 C 0.00882 0.42544 0.24477 0.0
C423 C 0.98435 0.40582 0.24081 0.0
C424 C 0.00714 0.45967 0.23863 0.0
C425 C 0.96022 0.53092 0.24263 0.0
H426 H 0.01822 0.57717 0.20088 0.0
C427 C 0.97015 0.67552 0.24485 0.0
C428 C 0.99769 0.68753 0.25646 0.0
C429 C 0.96548 0.64179 0.23598 0.0
C430 C 1.00189 0.56469 0.21269 0.0
H431 H 0.93881 0.40632 0.22717 0.0
H432 H 0.93561 0.46699 0.21683 0.0
H433 H 0.01481 0.51669 0.19657 0.0
H434 H 0.04193 0.67357 0.26655 0.0
H435 H 0.03387 0.6152 0.25098 0.0
H436 H 0.94782 0.57894 0.25964 0.0
C437 C 0.9562 0.45565 0.22442 0.0
C438 C 0.99989 0.52999 0.21017 0.0
C439 C 0.95796 0.42102 0.23016 0.0
C440 C 0.02044 0.66525 0.25776 0.0
C441 C 0.01581 0.63172 0.24859 0.0
C442 C 0.96218 0.56573 0.2451 0.0
C443 C 0.98083 0.47543 0.22891 0.0
C444 C 0.97962 0.51252 0.22609 0.0
C445 C 0.98826 0.61937 0.23806 0.0
C446 C 0.98359 0.58298 0.2311 0.0
H447 H 0.0294 0.41432 0.25333 0.0
H448 H 0.0265 0.47401 0.24298 0.0
H449 H 0.94449 0.51831 0.25543 0.0
H450 H 0.95211 0.69196 0.24358 0.0
H451 H 0.94401 0.63322 0.2277 0.0
C452 C 0.47067 0.3506 0.25751 0.0
C453 C 0.49672 0.33549 0.2549 0.0
C454 C 0.46671 0.38485 0.25139 0.0
C455 C 0.5088 0.46286 0.24873 0.0
H456 H 0.43577 0.50236 0.21325 0.0
C457 C 0.49829 0.60256 0.21956 0.0
C458 C 0.47844 0.61958 0.23645 0.0
C459 C 0.49774 0.5679 0.21682 0.0
C460 C 0.45626 0.49162 0.22326 0.0
H461 H 0.5384 0.3441 0.24161 0.0
H462 H 0.53119 0.40319 0.22921 0.0
H463 H 0.4405 0.44172 0.21675 0.0
H464 H 0.44251 0.61367 0.2641 0.0
H465 H 0.44113 0.55261 0.25886 0.0
H466 H 0.5246 0.51268 0.25463 0.0
C467 C 0.5141 0.38912 0.23752 0.0
C468 C 0.45902 0.45684 0.22547 0.0
C469 C 0.51821 0.35506 0.2443 0.0
C470 C 0.45752 0.60119 0.24996 0.0
C471 C 0.45681 0.56631 0.24703 0.0
C472 C 0.50611 0.49744 0.24599 0.0
C473 C 0.48856 0.40481 0.24192 0.0
C474 C 0.48537 0.44189 0.23833 0.0
C475 C 0.47749 0.54925 0.23139 0.0
C476 C 0.47985 0.51228 0.23329 0.0
H477 H 0.45371 0.33624 0.26582 0.0
H478 H 0.44684 0.3958 0.25546 0.0
H479 H 0.52928 0.45271 0.25978 0.0
H480 H 0.51538 0.61583 0.21033 0.0
H481 H 0.5139 0.55555 0.20452 0.0
C482 C 0.04212 0.34981 0.75253 0.0
C483 C 0.01597 0.33466 0.7543 0.0
C484 C 0.04588 0.38409 0.75864 0.0
C485 C 1.00338 0.46212 0.76052 0.0
H486 H 0.07611 0.50158 0.79738 0.0
C487 C 0.01366 0.60164 0.79145 0.0
C488 C 0.03326 0.61878 0.77423 0.0
C489 C 0.01429 0.56694 0.79392 0.0
C490 C 0.0557 0.49084 0.787 0.0
H491 H 0.97381 0.3432 0.76604 0.0
H492 H 0.98065 0.40229 0.77856 0.0
H493 H 0.07153 0.44097 0.79349 0.0
H494 H 0.06886 0.61314 0.74594 0.0
H495 H 0.07044 0.55205 0.75085 0.0
H496 H 0.9875 0.51196 0.75479 0.0
C497 C 0.99801 0.38828 0.77084 0.0
C498 C 0.05303 0.45606 0.78455 0.0
C499 C 0.99411 0.35421 0.764 0.0
C500 C 0.05403 0.60053 0.76027 0.0
C501 C 0.05486 0.56565 0.76301 0.0
C502 C 1.00597 0.49669 0.76357 0.0
C503 C 0.02371 0.40402 0.76732 0.0
C504 C 0.02679 0.44112 0.77115 0.0
C505 C 0.03441 0.54845 0.7789 0.0
C506 C 0.03212 0.5115 0.77675 0.0
H507 H 0.05936 0.33544 0.74491 0.0
H508 H 0.06588 0.39504 0.75523 0.0
H509 H 0.98299 0.45201 0.74905 0.0
H510 H 0.99674 0.61485 0.80116 0.0
H511 H 0.9983 0.55445 0.80639 0.0
C512 C 0.02396 0.4334 0.11978 0.0
C513 C 0.99723 0.42806 0.12953 0.0
C514 C 0.02758 0.4575 0.09414 0.0
C515 C 0.99522 0.53081 0.04453 0.0
H516 H 0.03471 0.49877 0.96857 0.0
C517 C 0.9926 0.6026 0.9115 0.0
C518 C 0.01846 0.60633 0.89891 0.0
C519 C 0.99014 0.5804 0.93945 0.0
C520 C 0.02391 0.50821 0.98975 0.0
H521 H 0.95387 0.44551 0.12231 0.0
H522 H 0.96022 0.48759 0.07731 0.0
H523 H 0.03126 0.46335 0.02053 0.0
H524 H 0.0617 0.58867 0.90451 0.0
H525 H 0.05746 0.55001 0.95358 0.0
H526 H 0.98781 0.57566 0.01368 0.0
C527 C 0.97832 0.47305 0.08942 0.0
C528 C 0.02199 0.48799 0.01954 0.0
C529 C 0.97466 0.44886 0.11506 0.0
C530 C 0.04149 0.58634 0.91368 0.0
C531 C 0.03904 0.56415 0.94173 0.0
C532 C 0.99719 0.55108 0.01475 0.0
C533 C 1.0046 0.47682 0.07787 0.0
C534 C 0.00757 0.49905 0.04719 0.0
C535 C 0.0135 0.5615 0.95541 0.0
C536 C 0.01145 0.53992 0.98697 0.0
H537 H 0.04187 0.41806 0.13082 0.0
H538 H 0.04823 0.4604 0.08631 0.0
H539 H 0.98421 0.54007 0.0656 0.0
H540 H 0.97438 0.61743 0.90042 0.0
H541 H 0.97002 0.57835 0.94888 0.0
C542 C 0.52199 0.60359 0.10181 0.0
C543 C 0.49569 0.60758 0.11322 0.0
C544 C 0.525 0.58156 0.07393 0.0
C545 C 0.48346 0.54205 0.99458 0.0
H546 H 0.54957 0.48596 0.99713 0.0
C547 C 0.49154 0.43556 0.89381 0.0
C548 C 0.518 0.42898 0.88382 0.0
C549 C 0.4887 0.4604 0.91897 0.0
C550 C 0.53122 0.50193 0.99576 0.0
H551 H 0.45225 0.59046 0.10567 0.0
H552 H 0.45762 0.55163 0.05706 0.0
H553 H 0.54487 0.52068 0.0492 0.0
H554 H 0.56167 0.44509 0.8898 0.0
H555 H 0.5566 0.48879 0.93358 0.0
H556 H 0.46973 0.52309 0.94119 0.0
C557 C 0.47575 0.56603 0.06932 0.0
C558 C 0.52847 0.52164 0.02565 0.0
C559 C 0.47275 0.58803 0.09732 0.0
C560 C 0.54111 0.44927 0.89743 0.0
C561 C 0.53825 0.47416 0.92261 0.0
C562 C 0.48623 0.52234 0.96465 0.0
C563 C 0.50177 0.56308 0.0569 0.0
C564 C 0.5045 0.54177 0.02542 0.0
C565 C 0.51223 0.47921 0.93449 0.0
C566 C 0.51008 0.50197 0.96501 0.0
H567 H 0.54011 0.61824 0.11362 0.0
H568 H 0.54527 0.57994 0.06481 0.0
H569 H 0.46501 0.55781 0.9934 0.0
H570 H 0.47327 0.42051 0.88355 0.0
H571 H 0.4684 0.46362 0.92766 0.0
C572 C 0.49226 0.10116 0.40741 0.0
C573 C 0.51808 0.10465 0.39465 0.0
C574 C 0.48917 0.07729 0.43349 0.0
C575 C 0.53135 0.03045 0.50686 0.0
H576 H 0.46263 0.97929 0.50529 0.0
C577 C 0.52104 0.92264 0.60525 0.0
C578 C 0.49525 0.91901 0.61804 0.0
C579 C 0.52407 0.94671 0.57934 0.0
C580 C 0.48179 0.99378 0.50633 0.0
H581 H 0.56045 0.08472 0.39767 0.0
H582 H 0.55493 0.04269 0.44313 0.0
H583 H 0.46726 0.01616 0.4548 0.0
H584 H 0.45288 0.93888 0.6153 0.0
H585 H 0.4583 0.98123 0.57013 0.0
H586 H 0.54588 1.00805 0.55837 0.0
C587 C 0.53727 0.05889 0.43339 0.0
C588 C 0.48448 0.01473 0.47737 0.0
C589 C 0.54036 0.08277 0.40722 0.0
C590 C 0.47295 0.94093 0.60571 0.0
C591 C 0.47598 0.965 0.57971 0.0
C592 C 0.52866 1.00949 0.53582 0.0
C593 C 0.51184 0.0564 0.4473 0.0
C594 C 0.5093 0.03325 0.47734 0.0
C595 C 0.50138 0.96764 0.56575 0.0
C596 C 0.50385 0.99094 0.53582 0.0
H597 H 0.47465 0.11758 0.39814 0.0
H598 H 0.46938 0.0761 0.44386 0.0
H599 H 0.55051 0.04492 0.50789 0.0
H600 H 0.53867 0.9062 0.61435 0.0
H601 H 0.54384 0.94801 0.56893 0.0
C602 C 0.99202 0.92198 0.40943 0.0
C603 C 0.01809 0.91805 0.39742 0.0
C604 C 0.98921 0.94454 0.43692 0.0
C605 C 0.02255 0.01703 0.48701 0.0
H606 H 0.98272 0.98527 0.56278 0.0
C607 C 0.02329 0.09101 0.61769 0.0
C608 C 0.99664 0.09657 0.62757 0.0
C609 C 0.02664 0.06714 0.59171 0.0
C610 C 0.99375 0.99451 0.54172 0.0
H611 H 0.0613 0.93581 0.4034 0.0
H612 H 0.05646 0.97507 0.45167 0.0
H613 H 0.98633 0.94968 0.51089 0.0
H614 H 0.9531 0.0798 0.62019 0.0
H615 H 0.95898 0.03807 0.57464 0.0
H616 H 0.02998 0.06183 0.51784 0.0
C617 C 0.03815 0.9608 0.43975 0.0
C618 C 0.99572 0.97424 0.51195 0.0
C619 C 0.04095 0.93826 0.41217 0.0
C620 C 0.97384 0.07625 0.61285 0.0
C621 C 0.97723 0.05228 0.58689 0.0
C622 C 0.02064 0.03724 0.5168 0.0
C623 C 0.01243 0.9636 0.45295 0.0
C624 C 0.01009 0.98534 0.48426 0.0
C625 C 1.00346 0.04828 0.57526 0.0
C626 C 1.00621 0.02618 0.54443 0.0
H627 H 0.97392 0.90699 0.39832 0.0
H628 H 0.96896 0.9467 0.44599 0.0
H629 H 0.03344 0.02641 0.46588 0.0
H630 H 0.04136 0.106 0.62888 0.0
H631 H 0.04724 0.06404 0.58379 0.0
C632 C 0.85591 0.33685 0.08633 0.0
C633 C 0.85205 0.33745 0.12287 0.0
C634 C 0.83263 0.33851 0.05831 0.0
C635 C 0.75548 0.32247 0.04 0.0
H636 H 0.75741 0.37415 0.953 0.0
C637 C 0.65646 0.33663 0.92944 0.0
C638 C 0.66069 0.33516 0.89308 0.0
C639 C 0.67952 0.33898 0.95767 0.0
C640 C 0.75657 0.3593 0.97695 0.0
H641 H 0.82032 0.34107 0.15806 0.0
H642 H 0.78018 0.34401 0.10952 0.0
H643 H 0.79837 0.37399 1.0011 0.0
H644 H 0.6929 0.33544 0.85841 0.0
H645 H 0.73269 0.33889 0.90729 0.0
H646 H 0.71391 0.30738 0.01582 0.0
C647 C 0.80113 0.3418 0.10248 0.0
C648 C 0.78012 0.35922 1.00456 0.0
C649 C 0.82429 0.34023 0.13039 0.0
C650 C 0.68862 0.33648 0.88594 0.0
C651 C 0.71159 0.33879 0.91408 0.0
C652 C 0.732 0.32245 0.01238 0.0
C653 C 0.8049 0.3406 0.06605 0.0
C654 C 0.77989 0.3408 0.03647 0.0
C655 C 0.70743 0.33983 0.95039 0.0
C656 C 0.73219 0.3408 0.9804 0.0
H657 H 0.87674 0.33405 0.07915 0.0
H658 H 0.83632 0.33714 0.03055 0.0
H659 H 0.75468 0.30753 0.06391 0.0
H660 H 0.63548 0.33511 0.93641 0.0
H661 H 0.67542 0.34004 0.98526 0.0
C662 C 0.32484 0.68801 0.12604 0.0
C663 C 0.35275 0.68967 0.11886 0.0
C664 C 0.30187 0.68575 0.09791 0.0
C665 C 0.28135 0.70257 0.99968 0.0
H666 H 0.21513 0.65072 0.01088 0.0
C667 C 0.18884 0.68468 0.88191 0.0
C668 C 0.16115 0.68768 0.88961 0.0
C669 C 0.21208 0.68308 0.90971 0.0
C670 C 0.23335 0.66555 0.00745 0.0
H671 H 0.37789 0.69039 0.07543 0.0
H672 H 0.33796 0.68542 0.02665 0.0
H673 H 0.25614 0.65047 0.05888 0.0
H674 H 0.13669 0.69149 0.93356 0.0
H675 H 0.17723 0.68825 0.9819 0.0
H676 H 0.25857 0.71757 0.94823 0.0
C677 C 0.33389 0.68623 0.05426 0.0
C678 C 0.25692 0.66544 0.035 0.0
C679 C 0.35694 0.68858 0.08247 0.0
C680 C 0.15744 0.68849 0.92621 0.0
C681 C 0.18079 0.68676 0.9541 0.0
C682 C 0.25785 0.70255 0.9721 0.0
C683 C 0.306 0.68505 0.06157 0.0
C684 C 0.28123 0.68408 0.0316 0.0
C685 C 0.20844 0.68442 0.94618 0.0
C686 C 0.2335 0.68412 0.97563 0.0
H687 H 0.32058 0.68876 0.15358 0.0
H688 H 0.28078 0.6854 0.10474 0.0
H689 H 0.29939 0.71774 0.99628 0.0
H690 H 0.1927 0.68369 0.8542 0.0
H691 H 0.23299 0.68072 0.90256 0.0
C692 C 0.35574 0.83517 0.58615 0.0
C693 C 0.35183 0.83526 0.62268 0.0
C694 C 0.3325 0.83709 0.55811 0.0
C695 C 0.25559 0.82059 0.53903 0.0
H696 H 0.25734 0.8747 0.45371 0.0
C697 C 0.15679 0.8358 0.42843 0.0
C698 C 0.16113 0.83582 0.39207 0.0
C699 C 0.17975 0.8377 0.45682 0.0
C700 C 0.25656 0.85916 0.47716 0.0
H701 H 0.32 0.83813 0.65782 0.0
H702 H 0.27992 0.84141 0.60921 0.0
H703 H 0.29817 0.87394 0.50197 0.0
H704 H 0.19346 0.83817 0.35764 0.0
H705 H 0.23308 0.84071 0.40678 0.0
H706 H 0.21425 0.80533 0.51416 0.0
C707 C 0.30091 0.83948 0.60222 0.0
C708 C 0.28002 0.85875 0.50486 0.0
C709 C 0.32404 0.8377 0.63017 0.0
C710 C 0.18908 0.83807 0.38514 0.0
C711 C 0.21195 0.83986 0.41346 0.0
C712 C 0.23221 0.82085 0.51128 0.0
C713 C 0.30477 0.8389 0.56581 0.0
C714 C 0.27985 0.83946 0.53618 0.0
C715 C 0.20768 0.83951 0.44974 0.0
C716 C 0.23234 0.84009 0.47988 0.0
H717 H 0.37657 0.8326 0.57892 0.0
H718 H 0.33623 0.83619 0.53034 0.0
H719 H 0.25487 0.80502 0.5625 0.0
H720 H 0.13583 0.8335 0.43527 0.0
H721 H 0.17555 0.83769 0.4844 0.0
C722 C 0.85741 0.18745 0.58339 0.0
C723 C 0.8531 0.18881 0.61972 0.0
C724 C 0.8344 0.18528 0.55508 0.0
C725 C 0.75729 0.16534 0.53554 0.0
H726 H 0.75948 0.21721 0.44873 0.0
C727 C 0.65808 0.18889 0.42647 0.0
C728 C 0.66185 0.18813 0.3899 0.0
C729 C 0.6814 0.18703 0.45441 0.0
C730 C 0.7586 0.20225 0.4726 0.0
H731 H 0.8208 0.18857 0.65425 0.0
H732 H 0.78109 0.18547 0.60525 0.0
H733 H 0.80023 0.21706 0.49688 0.0
H734 H 0.69344 0.18407 0.35457 0.0
H735 H 0.73367 0.18083 0.40299 0.0
H736 H 0.71542 0.15097 0.51132 0.0
C737 C 0.80222 0.18549 0.59854 0.0
C738 C 0.78207 0.20209 0.50025 0.0
C739 C 0.82514 0.1876 0.62676 0.0
C740 C 0.68955 0.18503 0.38226 0.0
C741 C 0.71275 0.18328 0.4101 0.0
C742 C 0.73376 0.16561 0.50792 0.0
C743 C 0.80645 0.18452 0.56225 0.0
C744 C 0.78175 0.1837 0.53218 0.0
C745 C 0.70907 0.18457 0.44656 0.0
C746 C 0.73409 0.18409 0.47608 0.0
H747 H 0.87841 0.18891 0.57649 0.0
H748 H 0.83855 0.18427 0.52751 0.0
H749 H 0.75635 0.15045 0.55944 0.0
H750 H 0.63732 0.19196 0.43377 0.0
H751 H 0.67779 0.1885 0.4822 0.0
C752 C 0.36466 0.25068 0.25999 0.0
C753 C 0.37257 0.22076 0.27841 0.0
C754 C 0.33647 0.26152 0.25512 0.0
C755 C 0.26856 0.24926 0.28947 0.0
H756 H 0.23509 0.28346 0.19544 0.0
C757 C 0.14819 0.27308 0.25185 0.0
C758 C 0.14046 0.30344 0.23427 0.0
C759 C 0.17626 0.26194 0.2562 0.0
C760 C 0.24416 0.27418 0.22195 0.0
H761 H 0.35705 0.17936 0.30691 0.0
H762 H 0.30836 0.198 0.29816 0.0
H763 H 0.28501 0.26838 0.20658 0.0
H764 H 0.15607 0.34523 0.20651 0.0
H765 H 0.20463 0.32596 0.2142 0.0
H766 H 0.22771 0.25504 0.30483 0.0
C767 C 0.3238 0.21331 0.28772 0.0
C768 C 0.27283 0.26568 0.22839 0.0
C769 C 0.35178 0.20247 0.29247 0.0
C770 C 0.16125 0.32179 0.22031 0.0
C771 C 0.18913 0.31061 0.22446 0.0
C772 C 0.23989 0.25772 0.28302 0.0
C773 C 0.31566 0.24277 0.26868 0.0
C774 C 0.28541 0.25309 0.26223 0.0
C775 C 0.19712 0.28079 0.24288 0.0
C776 C 0.22733 0.27033 0.24919 0.0
H777 H 0.37993 0.26522 0.24835 0.0
H778 H 0.33096 0.28452 0.24058 0.0
H779 H 0.27762 0.24005 0.31602 0.0
H780 H 0.13286 0.2585 0.26336 0.0
H781 H 0.18169 0.23868 0.27025 0.0
C782 C 0.35173 0.32325 0.78985 0.0
C783 C 0.37261 0.30441 0.77664 0.0
C784 C 0.32381 0.31227 0.78562 0.0
C785 C 0.27827 0.23818 0.76629 0.0
H786 H 0.21942 0.304 0.73907 0.0
C787 C 0.16211 0.20028 0.72345 0.0
C788 C 0.14121 0.21912 0.73661 0.0
C789 C 0.19003 0.21127 0.7277 0.0
C790 C 0.23555 0.28538 0.74707 0.0
H791 H 0.38028 0.25878 0.74877 0.0
H792 H 0.33134 0.2395 0.74142 0.0
H793 H 0.26886 0.32092 0.74806 0.0
H794 H 0.13352 0.26476 0.76444 0.0
H795 H 0.18245 0.28406 0.77185 0.0
H796 H 0.24497 0.20263 0.7653 0.0
C797 C 0.33681 0.26273 0.75548 0.0
C798 C 0.26394 0.29505 0.75222 0.0
C799 C 0.36492 0.27373 0.75979 0.0
C800 C 0.14889 0.24981 0.75345 0.0
C801 C 0.177 0.26082 0.7578 0.0
C802 C 0.24989 0.2285 0.76114 0.0
C803 C 0.31584 0.28215 0.76789 0.0
C804 C 0.28567 0.27159 0.76195 0.0
C805 C 0.19798 0.2414 0.74543 0.0
C806 C 0.22816 0.25196 0.7514 0.0
H807 H 0.3569 0.34681 0.80338 0.0
H808 H 0.30842 0.3275 0.79627 0.0
H809 H 0.29441 0.21955 0.77428 0.0
H810 H 0.15695 0.17671 0.70993 0.0
H811 H 0.20543 0.19603 0.71708 0.0
C812 C 0.86456 0.75038 0.76025 0.0
C813 C 0.87276 0.72149 0.78047 0.0
C814 C 0.83637 0.76116 0.75526 0.0
C815 C 0.76907 0.75153 0.79159 0.0
H816 H 0.73451 0.77915 0.69534 0.0
C817 C 0.64837 0.77285 0.75364 0.0
C818 C 0.64018 0.80176 0.73343 0.0
C819 C 0.67656 0.76209 0.7587 0.0
C820 C 0.74388 0.77174 0.72246 0.0
H821 H 0.85786 0.68197 0.81217 0.0
H822 H 0.80911 0.70054 0.80328 0.0
H823 H 0.78455 0.76477 0.70696 0.0
H824 H 0.65513 0.84134 0.70186 0.0
H825 H 0.70389 0.8228 0.71086 0.0
H826 H 0.72839 0.7585 0.80709 0.0
C827 C 0.82433 0.71506 0.79147 0.0
C828 C 0.77262 0.76365 0.72915 0.0
C829 C 0.85232 0.70426 0.7963 0.0
C830 C 0.66066 0.81904 0.71771 0.0
C831 C 0.68865 0.80825 0.72261 0.0
C832 C 0.74033 0.75962 0.7849 0.0
C833 C 0.81587 0.74339 0.77054 0.0
C834 C 0.78558 0.75342 0.76379 0.0
C835 C 0.69708 0.77989 0.7435 0.0
C836 C 0.72738 0.76986 0.75026 0.0
H837 H 0.8796 0.76405 0.74726 0.0
H838 H 0.83059 0.78329 0.73924 0.0
H839 H 0.77845 0.74413 0.81871 0.0
H840 H 0.6333 0.75914 0.76655 0.0
H841 H 0.68234 0.73995 0.77471 0.0
C842 C 0.66177 0.7019 0.22061 0.0
C843 C 0.64118 0.72004 0.23523 0.0
C844 C 0.68973 0.71278 0.22497 0.0
C845 C 0.74103 0.76384 0.28478 0.0
H846 H 0.78554 0.75547 0.20741 0.0
C847 C 0.85264 0.81955 0.29433 0.0
C848 C 0.87329 0.80184 0.27937 0.0
C849 C 0.82472 0.80855 0.28976 0.0
C850 C 0.77353 0.7575 0.22946 0.0
H851 H 0.63402 0.76426 0.26575 0.0
H852 H 0.68299 0.78355 0.27302 0.0
H853 H 0.73558 0.74063 0.19631 0.0
H854 H 0.88055 0.7582 0.24796 0.0
H855 H 0.83168 0.73861 0.24046 0.0
H856 H 0.77896 0.78062 0.31797 0.0
C857 C 0.67734 0.7607 0.25828 0.0
C858 C 0.74484 0.74915 0.22305 0.0
C859 C 0.64919 0.74987 0.25373 0.0
C860 C 0.86536 0.77228 0.26028 0.0
C861 C 0.83725 0.76128 0.25558 0.0
C862 C 0.76972 0.77215 0.2912 0.0
C863 C 0.69798 0.74206 0.24424 0.0
C864 C 0.72823 0.75222 0.25063 0.0
C865 C 0.81655 0.7795 0.27 0.0
C866 C 0.78633 0.76916 0.2636 0.0
H867 H 0.65637 0.67888 0.20609 0.0
H868 H 0.70507 0.69761 0.21413 0.0
H869 H 0.72901 0.76589 0.30681 0.0
H870 H 0.85795 0.84235 0.30932 0.0
H871 H 0.80936 0.82344 0.30088 0.0
C872 C 1.00194 0.24441 0.81536 0.0
C873 C 0.01641 0.21501 0.80977 0.0
C874 C 1.00401 0.25798 0.8502 0.0
C875 C 0.04141 0.25247 0.94564 0.0
H876 H 0.96639 0.26654 0.96878 0.0
C877 C 0.0204 0.26168 0.09431 0.0
C878 C 0.99982 0.28464 0.10143 0.0
C879 C 0.02403 0.25474 0.05855 0.0
C880 C 0.98759 0.26328 0.96288 0.0
H881 H 0.04598 0.17816 0.83535 0.0
H882 H 0.05008 0.20205 0.89589 0.0
H883 H 0.97222 0.25622 0.90651 0.0
H884 H 0.9669 0.31817 0.07607 0.0
H885 H 0.97355 0.30667 0.01461 0.0
H886 H 0.05675 0.25947 1.0022 0.0
C887 C 0.03718 0.21481 0.87362 0.0
C888 C 0.99093 0.25744 0.92699 0.0
C889 C 0.03492 0.20115 0.83889 0.0
C890 C 0.98282 0.3001 0.07187 0.0
C891 C 0.98656 0.29338 0.03635 0.0
C892 C 0.0381 0.25863 0.98163 0.0
C893 C 0.02062 0.24238 0.88003 0.0
C894 C 0.01784 0.25179 0.91787 0.0
C895 C 0.00725 0.27069 0.02905 0.0
C896 C 0.01109 0.26397 0.9908 0.0
H897 H 0.98685 0.25498 0.7937 0.0
H898 H 0.99125 0.27951 0.85416 0.0
H899 H 0.06244 0.24826 0.93953 0.0
H900 H 0.03393 0.24935 0.11634 0.0
H901 H 0.03991 0.23675 0.05405 0.0
C902 C 0.51158 0.24449 0.19496 0.0
C903 C 0.49666 0.21633 0.2034 0.0
C904 C 0.50765 0.25691 0.15948 0.0
C905 C 0.4867 0.22394 0.06671 0.0
H906 H 0.50069 0.31435 0.03833 0.0
C907 C 0.48882 0.2622 0.91704 0.0
C908 C 0.51064 0.28399 0.91133 0.0
C909 C 0.48391 0.25518 0.95225 0.0
C910 C 0.49687 0.28893 0.04586 0.0
H911 H 0.46442 0.18065 0.18248 0.0
H912 H 0.4564 0.20319 0.12112 0.0
H913 H 0.49525 0.30259 0.10085 0.0
H914 H 0.54472 0.31493 0.93861 0.0
H915 H 0.53625 0.30254 0.99946 0.0
H916 H 0.48865 0.21025 0.01184 0.0
C917 C 0.47176 0.21525 0.14138 0.0
C918 C 0.49373 0.28219 0.08174 0.0
C919 C 0.47594 0.20266 0.17669 0.0
C920 C 0.52768 0.29806 0.94176 0.0
C921 C 0.52266 0.29123 0.97679 0.0
C922 C 0.48967 0.23072 0.03084 0.0
C923 C 0.48868 0.24135 0.1318 0.0
C924 C 0.489 0.2495 0.09284 0.0
C925 C 0.50056 0.26999 0.98253 0.0
C926 C 0.49528 0.26319 0.02007 0.0
H927 H 0.52834 0.25474 0.21474 0.0
H928 H 0.52123 0.2769 0.15327 0.0
H929 H 0.4837 0.19832 0.0742 0.0
H930 H 0.47519 0.25102 0.89433 0.0
H931 H 0.46665 0.23876 0.95571 0.0
C932 C 0.99338 0.76786 0.91735 0.0
C933 C 0.01484 0.74623 0.91003 0.0
C934 C 0.98979 0.77443 0.95323 0.0
C935 C 0.02684 0.76618 0.04898 0.0
H936 H 0.95156 0.7766 0.07263 0.0
C937 C 0.01187 0.77907 0.19683 0.0
C938 C 0.99782 0.8086 0.20309 0.0
C939 C 0.00968 0.76627 0.16162 0.0
C940 C 0.9727 0.77358 0.06641 0.0
H941 H 0.04957 0.71499 0.93518 0.0
H942 H 0.0429 0.72563 0.99664 0.0
H943 H 0.95759 0.7675 0.00967 0.0
H944 H 0.96857 0.84622 0.1785 0.0
H945 H 0.96402 0.82343 0.11741 0.0
H946 H 0.04192 0.77208 0.1056 0.0
C947 C 0.02916 0.73827 0.97507 0.0
C948 C 0.97621 0.76872 0.03026 0.0
C949 C 0.0329 0.73201 0.93949 0.0
C950 C 0.97932 0.82314 0.1744 0.0
C951 C 0.97682 0.81015 0.13936 0.0
C952 C 0.02329 0.77058 0.08501 0.0
C953 C 0.00746 0.75937 0.98261 0.0
C954 C 1.00339 0.76508 0.02099 0.0
C955 C 0.9932 0.78267 0.13224 0.0
C956 C 0.99622 0.77449 0.09421 0.0
H957 H 0.97901 0.77917 0.89541 0.0
H958 H 0.97311 0.79125 0.95789 0.0
H959 H 0.04815 0.76428 0.04308 0.0
H960 H 0.02677 0.76787 0.21829 0.0
H961 H 0.02231 0.74481 0.15702 0.0
C962 C 0.48506 0.73294 0.07199 0.0
C963 C 0.5027 0.74599 0.10254 0.0
C964 C 0.49038 0.73934 0.03704 0.0
C965 C 0.52506 0.79726 0.9826 0.0
H966 H 0.519 0.72403 0.9142 0.0
C967 C 0.5382 0.82272 0.83616 0.0
C968 C 0.5176 0.80843 0.80977 0.0
C969 C 0.5426 0.81068 0.87168 0.0
C970 C 0.52064 0.74482 0.93281 0.0
H971 H 0.53939 0.77701 0.11978 0.0
H972 H 0.54833 0.7888 0.05835 0.0
H973 H 0.51316 0.71373 0.97686 0.0
H974 H 0.4867 0.76908 0.79898 0.0
H975 H 0.49393 0.74814 0.86098 0.0
H976 H 0.53131 0.82868 0.93859 0.0
C977 C 0.53046 0.77335 0.06178 0.0
C978 C 0.51731 0.7389 0.96879 0.0
C979 C 0.52529 0.76666 0.09697 0.0
C980 C 0.5032 0.78002 0.81866 0.0
C981 C 0.50724 0.76824 0.85441 0.0
C982 C 0.52813 0.80326 0.94659 0.0
C983 C 0.51335 0.75922 0.03145 0.0
C984 C 0.51907 0.76514 0.99398 0.0
C985 C 0.52596 0.78456 0.88182 0.0
C986 C 0.52562 0.77721 0.92099 0.0
H987 H 0.46741 0.71694 0.07498 0.0
H988 H 0.47645 0.72864 0.01429 0.0
H989 H 0.52625 0.81806 1.00119 0.0
H990 H 0.54943 0.84484 0.82995 0.0
H991 H 0.55787 0.82323 0.89164 0.0
C992 C 0.51963 0.75533 0.59572 0.0
C993 C 0.49827 0.77713 0.60298 0.0
C994 C 0.52312 0.74849 0.55985 0.0
C995 C 0.53643 0.75354 0.48257 0.0
H996 H 0.47045 0.75006 0.40764 0.0
C997 C 0.53317 0.70009 0.33766 0.0
C998 C 0.51459 0.71485 0.30919 0.0
C999 C 0.53559 0.71258 0.37293 0.0
C1000 C 0.48916 0.75156 0.4281 0.0
H1001 H 0.46362 0.80843 0.57772 0.0
H1002 H 0.47009 0.79729 0.51627 0.0
H1003 H 0.46452 0.75811 0.47023 0.0
H1004 H 0.4851 0.75519 0.29482 0.0
H1005 H 0.48957 0.77751 0.35633 0.0
H1006 H 0.56088 0.74549 0.44 0.0
C1007 C 0.48385 0.78474 0.5379 0.0
C1008 C 0.48578 0.75612 0.46418 0.0
C1009 C 0.48021 0.79129 0.57347 0.0
C1010 C 0.50022 0.74397 0.31601 0.0
C1011 C 0.50237 0.7563 0.3514 0.0
C1012 C 0.53979 0.74853 0.44637 0.0
C1013 C 0.50543 0.76341 0.53041 0.0
C1014 C 0.50933 0.75734 0.49202 0.0
C1015 C 0.51904 0.73976 0.38051 0.0
C1016 C 0.51616 0.74762 0.41869 0.0
H1017 H 0.534 0.74406 0.6177 0.0
H1018 H 0.53973 0.73154 0.55525 0.0
H1019 H 0.55513 0.75481 0.50304 0.0
H1020 H 0.5441 0.67723 0.33316 0.0
H1021 H 0.54853 0.69917 0.39466 0.0
C1022 C 0.01127 0.7445 0.69679 0.0
C1023 C 0.99704 0.71511 0.70303 0.0
C1024 C 0.00921 0.75729 0.66158 0.0
C1025 C 0.97229 0.75022 0.56629 0.0
H1026 H 0.04779 0.75943 0.54314 0.0
C1027 C 0.99324 0.75625 0.41731 0.0
C1028 C 0.01472 0.77786 0.4101 0.0
C1029 C 0.98956 0.74962 0.45315 0.0
C1030 C 0.02647 0.75756 0.54899 0.0
H1031 H 0.96765 0.67772 0.67837 0.0
H1032 H 0.96334 0.70048 0.61728 0.0
H1033 H 0.04149 0.75149 0.60561 0.0
H1034 H 0.0494 0.80904 0.43542 0.0
H1035 H 0.04259 0.79829 0.49681 0.0
H1036 H 0.95725 0.75646 0.50954 0.0
C1037 C 0.97617 0.71367 0.63925 0.0
C1038 C 0.02288 0.75307 0.585 0.0
C1039 C 0.97853 0.7007 0.67429 0.0
C1040 C 0.03271 0.79203 0.43964 0.0
C1041 C 0.02888 0.78571 0.47518 0.0
C1042 C 0.97585 0.75516 0.53016 0.0
C1043 C 0.99269 0.74101 0.63216 0.0
C1044 C 0.99578 0.7492 0.59414 0.0
C1045 C 0.00717 0.76459 0.48261 0.0
C1046 C 1.00305 0.75878 0.52096 0.0
H1047 H 0.02621 0.75559 0.71827 0.0
H1048 H 0.02195 0.77864 0.65702 0.0
H1049 H 0.95113 0.74723 0.57246 0.0
H1050 H 0.97892 0.74497 0.3953 0.0
H1051 H 0.97286 0.7328 0.45772 0.0
C1052 C 0.47775 0.32187 0.67478 0.0
C1053 C 0.49695 0.30831 0.70341 0.0
C1054 C 0.4756 0.30884 0.63978 0.0
C1055 C 0.52316 0.27123 0.58525 0.0
H1056 H 0.45731 0.26519 0.51038 0.0
C1057 C 0.49283 0.26632 0.41782 0.0
C1058 C 0.51466 0.2452 0.41062 0.0
C1059 C 0.48919 0.27298 0.45365 0.0
C1060 C 0.47596 0.26723 0.53084 0.0
H1061 H 0.52768 0.26933 0.71843 0.0
H1062 H 0.52364 0.24604 0.65743 0.0
H1063 H 0.4513 0.27451 0.57332 0.0
H1064 H 0.54998 0.21491 0.43591 0.0
H1065 H 0.54329 0.22578 0.49737 0.0
H1066 H 0.54796 0.26541 0.54318 0.0
C1067 C 0.51022 0.26678 0.66201 0.0
C1068 C 0.47247 0.27224 0.56698 0.0
C1069 C 0.51214 0.27965 0.69712 0.0
C1070 C 0.53302 0.23153 0.44014 0.0
C1071 C 0.52925 0.23791 0.47569 0.0
C1072 C 0.52666 0.26663 0.54923 0.0
C1073 C 0.49297 0.2823 0.63266 0.0
C1074 C 0.49606 0.2742 0.59462 0.0
C1075 C 0.5072 0.25854 0.4831 0.0
C1076 C 0.50315 0.26445 0.52143 0.0
H1077 H 0.46611 0.3443 0.67889 0.0
H1078 H 0.46217 0.32145 0.61786 0.0
H1079 H 0.54182 0.27355 0.60568 0.0
H1080 H 0.47822 0.27721 0.39582 0.0
H1081 H 0.47222 0.28941 0.45822 0.0
C1082 C 0.0393 0.32019 0.3365 0.0
C1083 C 0.0181 0.3075 0.30974 0.0
C1084 C 0.04313 0.30741 0.37172 0.0
C1085 C 0.01922 0.24145 0.43102 0.0
H1086 H 0.02661 0.31311 0.5014 0.0
C1087 C 0.98558 0.22656 0.57133 0.0
C1088 C 1.00308 0.24 0.60176 0.0
C1089 C 0.99057 0.23331 0.53627 0.0
C1090 C 0.02493 0.2927 0.48228 0.0
H1091 H 0.98527 0.27043 0.29819 0.0
H1092 H 0.99179 0.24793 0.35949 0.0
H1093 H 0.03174 0.32484 0.43906 0.0
H1094 H 0.0393 0.27181 0.61872 0.0
H1095 H 0.04782 0.28393 0.55729 0.0
H1096 H 0.01147 0.20957 0.47429 0.0
C1097 C 1.00596 0.26733 0.35339 0.0
C1098 C 0.02801 0.29936 0.4464 0.0
C1099 C 1.00237 0.27994 0.31799 0.0
C1100 C 0.02531 0.26114 0.59601 0.0
C1101 C 0.03021 0.26807 0.56077 0.0
C1102 C 0.01599 0.23483 0.46691 0.0
C1103 C 0.02542 0.28206 0.38117 0.0
C1104 C 0.02489 0.27392 0.4201 0.0
C1105 C 0.01312 0.25384 0.53048 0.0
C1106 C 0.01842 0.26047 0.49289 0.0
H1107 H 0.05151 0.34169 0.33085 0.0
H1108 H 0.05888 0.31877 0.39204 0.0
H1109 H 0.01705 0.22113 0.41178 0.0
H1110 H 0.9682 0.21021 0.5745 0.0
H1111 H 0.97663 0.22248 0.51361 0.0
loop_
_geom_bond_atom_site_label_1
_geom_bond_atom_site_label_2
_geom_bond_distance
_geom_bond_site_symmetry_2
_ccdc_geom_bond_type
Zn0 N4 2.020 1_655 S
Zn0 O8 2.019 . S
Zn0 N10 2.119 . S
Zn0 O18 1.975 1_655 S
C1 N2 1.334 . S
C1 N5 1.336 . S
N2 C1 1.334 . S
N2 C3 1.334 1_455 S
C3 N2 1.334 1_655 S
C3 N4 1.336 1_655 S
N4 Zn0 2.020 1_455 S
N4 C3 1.336 1_455 S
N4 N5 1.354 . S
N5 C1 1.336 . S
N5 N4 1.354 . S
N5 Zn9 2.020 . S
C6 O7 1.244 1_455 S
C6 O30 1.257 . S
O7 C6 1.244 1_655 S
O8 Zn0 2.019 . S
O8 C28 1.257 1_655 S
Zn9 N5 2.020 . S
Zn9 O16 1.975 . S
Zn9 N25 2.119 . S
Zn9 O30 2.019 . S
N10 Zn0 2.119 . S
N10 C12 1.334 . S
N10 C13 1.328 . S
C11 C12 1.391 . S
C11 N14 1.329 . S
C11 H32 0.930 . S
C12 N10 1.334 . S
C12 C11 1.391 . S
C12 H19 0.930 . S
C13 N10 1.328 . S
C13 C15 1.392 . S
C13 H20 0.930 . S
N14 C11 1.329 . S
N14 C15 1.331 . S
C15 C13 1.392 . S
C15 N14 1.331 . S
O16 Zn9 1.975 . S
O16 C17 1.252 . S
C17 O16 1.252 . S
C17 O18 1.252 . S
O18 Zn0 1.975 1_455 S
O18 C17 1.252 . S
H19 C12 0.930 . S
H20 C13 0.930 . S
C21 C22 1.392 . S
C21 N25 1.328 . S
C21 H27 0.930 . S
C22 C21 1.392 . S
C22 N26 1.331 . S
C23 C24 1.391 . S
C23 N26 1.329 . S
C23 H33 0.930 . S
C24 C23 1.391 . S
C24 N25 1.334 . S
C24 H31 0.930 . S
N25 Zn9 2.119 . S
N25 C21 1.328 . S
N25 C24 1.334 . S
N26 C22 1.331 . S
N26 C23 1.329 . S
H27 C21 0.930 . S
C28 O8 1.257 1_455 S
C28 O29 1.244 . S
O29 C28 1.244 . S
O30 C6 1.257 . S
O30 Zn9 2.019 . S
H31 C24 0.930 . S
H32 C11 0.930 . S
H33 C23 0.930 . S
Zn34 N38 2.020 . S
Zn34 O42 2.019 . S
Zn34 N44 2.119 . S
Zn34 O52 1.975 . S
C35 N36 1.334 . S
C35 N39 1.336 . S
N36 C35 1.334 . S
N36 C37 1.334 . S
C37 N36 1.334 . S
C37 N38 1.336 . S
N38 Zn34 2.020 . S
N38 C37 1.336 . S
N38 N39 1.354 . S
N39 C35 1.336 . S
N39 N38 1.354 . S
N39 Zn43 2.020 . S
C40 O41 1.244 . S
C40 O64 1.257 . S
O41 C40 1.244 . S
O42 Zn34 2.019 . S
O42 C62 1.257 . S
Zn43 N39 2.020 . S
Zn43 O50 1.975 . S
Zn43 N59 2.119 . S
Zn43 O64 2.019 . S
N44 Zn34 2.119 . S
N44 C46 1.334 . S
N44 C47 1.328 . S
C45 C46 1.391 . S
C45 N48 1.329 . S
C45 H66 0.930 . S
C46 N44 1.334 . S
C46 C45 1.391 . S
C46 H53 0.930 . S
C47 N44 1.328 . S
C47 C49 1.392 . S
C47 H54 0.930 . S
N48 C45 1.329 . S
N48 C49 1.331 . S
C49 C47 1.392 . S
C49 N48 1.331 . S
O50 Zn43 1.975 . S
O50 C51 1.252 . S
C51 O50 1.252 . S
C51 O52 1.252 . S
O52 Zn34 1.975 . S
O52 C51 1.252 . S
H53 C46 0.930 . S
H54 C47 0.930 . S
C55 C56 1.392 . S
C55 N59 1.328 . S
C55 H61 0.930 . S
C56 C55 1.392 . S
C56 N60 1.331 . S
C57 C58 1.391 . S
C57 N60 1.329 . S
C57 H67 0.930 . S
C58 C57 1.391 . S
C58 N59 1.334 . S
C58 H65 0.930 . S
N59 Zn43 2.119 . S
N59 C55 1.328 . S
N59 C58 1.334 . S
N60 C56 1.331 . S
N60 C57 1.329 . S
H61 C55 0.930 . S
C62 O42 1.257 . S
C62 O63 1.244 . S
O63 C62 1.244 . S
O64 C40 1.257 . S
O64 Zn43 2.019 . S
H65 C58 0.930 . S
H66 C45 0.930 . S
H67 C57 0.930 . S
Zn68 N72 2.020 . S
Zn68 O76 2.019 . S
Zn68 N78 2.119 . S
Zn68 O86 1.975 . S
C69 N70 1.334 1_455 S
C69 N73 1.336 1_455 S
N70 C69 1.334 1_655 S
N70 C71 1.334 . S
C71 N70 1.334 . S
C71 N72 1.336 . S
N72 Zn68 2.020 . S
N72 C71 1.336 . S
N72 N73 1.354 . S
N73 C69 1.336 1_655 S
N73 N72 1.354 . S
N73 Zn77 2.020 1_655 S
C74 O75 1.244 . S
C74 O98 1.257 1_655 S
O75 C74 1.244 . S
O76 Zn68 2.019 . S
O76 C96 1.257 . S
Zn77 N73 2.020 1_455 S
Zn77 O84 1.975 1_455 S
Zn77 N93 2.119 . S
Zn77 O98 2.019 . S
N78 Zn68 2.119 . S
N78 C80 1.334 . S
N78 C81 1.328 . S
C79 C80 1.391 . S
C79 N82 1.329 . S
C79 H100 0.930 . S
C80 N78 1.334 . S
C80 C79 1.391 . S
C80 H87 0.930 . S
C81 N78 1.328 . S
C81 C83 1.392 . S
C81 H88 0.930 . S
N82 C79 1.329 . S
N82 C83 1.331 . S
C83 C81 1.392 . S
C83 N82 1.331 . S
O84 Zn77 1.975 1_655 S
O84 C85 1.252 . S
C85 O84 1.252 . S
C85 O86 1.252 . S
O86 Zn68 1.975 . S
O86 C85 1.252 . S
H87 C80 0.930 . S
H88 C81 0.930 . S
C89 C90 1.392 . S
C89 N93 1.328 . S
C89 H95 0.930 . S
C90 C89 1.392 . S
C90 N94 1.331 . S
C91 C92 1.391 . S
C91 N94 1.329 . S
C91 H101 0.930 . S
C92 C91 1.391 . S
C92 N93 1.334 . S
C92 H99 0.930 . S
N93 Zn77 2.119 . S
N93 C89 1.328 . S
N93 C92 1.334 . S
N94 C90 1.331 . S
N94 C91 1.329 . S
H95 C89 0.930 . S
C96 O76 1.257 . S
C96 O97 1.244 1_655 S
O97 C96 1.244 1_455 S
O98 C74 1.257 1_455 S
O98 Zn77 2.019 . S
H99 C92 0.930 . S
H100 C79 0.930 . S
H101 C91 0.930 . S
Zn102 N106 2.020 . S
Zn102 O110 2.019 . S
Zn102 N112 2.119 . S
Zn102 O120 1.975 . S
C103 N104 1.334 . S
C103 N107 1.336 . S
N104 C103 1.334 . S
N104 C105 1.334 . S
C105 N104 1.334 . S
C105 N106 1.336 . S
N106 Zn102 2.020 . S
N106 C105 1.336 . S
N106 N107 1.354 . S
N107 C103 1.336 . S
N107 N106 1.354 . S
N107 Zn111 2.020 . S
C108 O109 1.244 . S
C108 O132 1.257 . S
O109 C108 1.244 . S
O110 Zn102 2.019 . S
O110 C130 1.257 . S
Zn111 N107 2.020 . S
Zn111 O118 1.975 . S
Zn111 N127 2.119 . S
Zn111 O132 2.019 . S
N112 Zn102 2.119 . S
N112 C114 1.334 . S
N112 C115 1.328 . S
C113 C114 1.391 . S
C113 N116 1.329 . S
C113 H134 0.930 . S
C114 N112 1.334 . S
C114 C113 1.391 . S
C114 H121 0.930 . S
C115 N112 1.328 . S
C115 C117 1.392 . S
C115 H122 0.930 . S
N116 C113 1.329 . S
N116 C117 1.331 . S
C117 C115 1.392 . S
C117 N116 1.331 . S
O118 Zn111 1.975 . S
O118 C119 1.252 . S
C119 O118 1.252 . S
C119 O120 1.252 . S
O120 Zn102 1.975 . S
O120 C119 1.252 . S
H121 C114 0.930 . S
H122 C115 0.930 . S
C123 C124 1.392 . S
C123 N127 1.328 . S
C123 H129 0.930 . S
C124 C123 1.392 . S
C124 N128 1.331 . S
C125 C126 1.391 . S
C125 N128 1.329 . S
C125 H135 0.930 . S
C126 C125 1.391 . S
C126 N127 1.334 . S
C126 H133 0.930 . S
N127 Zn111 2.119 . S
N127 C123 1.328 . S
N127 C126 1.334 . S
N128 C124 1.331 . S
N128 C125 1.329 . S
H129 C123 0.930 . S
C130 O110 1.257 . S
C130 O131 1.244 . S
O131 C130 1.244 . S
O132 C108 1.257 . S
O132 Zn111 2.019 . S
H133 C126 0.930 . S
H134 C113 0.930 . S
H135 C125 0.930 . S
Zn136 N140 2.020 . S
Zn136 O144 2.019 . S
Zn136 N146 2.119 . S
Zn136 O154 1.975 . S
C137 N138 1.334 . S
C137 N141 1.336 . S
N138 C137 1.334 . S
N138 C139 1.334 . S
C139 N138 1.334 . S
C139 N140 1.336 . S
N140 Zn136 2.020 . S
N140 C139 1.336 . S
N140 N141 1.354 . S
N141 C137 1.336 . S
N141 N140 1.354 . S
N141 Zn145 2.020 . S
C142 O143 1.244 . S
C142 O166 1.257 . S
O143 C142 1.244 . S
O144 Zn136 2.019 . S
O144 C164 1.257 . S
Zn145 N141 2.020 . S
Zn145 O152 1.975 . S
Zn145 N161 2.119 . S
Zn145 O166 2.019 . S
N146 Zn136 2.119 . S
N146 C148 1.334 . S
N146 C149 1.328 . S
C147 C148 1.391 . S
C147 N150 1.329 . S
C147 H168 0.930 . S
C148 N146 1.334 . S
C148 C147 1.391 . S
C148 H155 0.930 . S
C149 N146 1.328 . S
C149 C151 1.392 . S
C149 H156 0.930 . S
N150 C147 1.329 . S
N150 C151 1.331 . S
C151 C149 1.392 . S
C151 N150 1.331 . S
O152 Zn145 1.975 . S
O152 C153 1.252 . S
C153 O152 1.252 . S
C153 O154 1.252 . S
O154 Zn136 1.975 . S
O154 C153 1.252 . S
H155 C148 0.930 . S
H156 C149 0.930 . S
C157 C158 1.392 . S
C157 N161 1.328 . S
C157 H163 0.930 . S
C158 C157 1.392 . S
C158 N162 1.331 . S
C159 C160 1.391 . S
C159 N162 1.329 . S
C159 H169 0.930 . S
C160 C159 1.391 . S
C160 N161 1.334 . S
C160 H167 0.930 . S
N161 Zn145 2.119 . S
N161 C157 1.328 . S
N161 C160 1.334 . S
N162 C158 1.331 . S
N162 C159 1.329 . S
H163 C157 0.930 . S
C164 O144 1.257 . S
C164 O165 1.244 . S
O165 C164 1.244 . S
O166 C142 1.257 . S
O166 Zn145 2.019 . S
H167 C160 0.930 . S
H168 C147 0.930 . S
H169 C159 0.930 . S
Zn170 N174 2.020 . S
Zn170 O178 2.019 . S
Zn170 N180 2.119 . S
Zn170 O188 1.975 . S
C171 N172 1.334 1_455 S
C171 N175 1.336 1_455 S
N172 C171 1.334 1_655 S
N172 C173 1.334 . S
C173 N172 1.334 . S
C173 N174 1.336 . S
N174 Zn170 2.020 . S
N174 C173 1.336 . S
N174 N175 1.354 . S
N175 C171 1.336 1_655 S
N175 N174 1.354 . S
N175 Zn179 2.020 1_655 S
C176 O177 1.244 . S
C176 O200 1.257 1_655 S
O177 C176 1.244 . S
O178 Zn170 2.019 . S
O178 C198 1.257 . S
Zn179 N175 2.020 1_455 S
Zn179 O186 1.975 1_455 S
Zn179 N195 2.119 . S
Zn179 O200 2.019 . S
N180 Zn170 2.119 . S
N180 C182 1.334 . S
N180 C183 1.328 . S
C181 C182 1.391 . S
C181 N184 1.329 . S
C181 H202 0.930 . S
C182 N180 1.334 . S
C182 C181 1.391 . S
C182 H189 0.930 . S
C183 N180 1.328 . S
C183 C185 1.392 . S
C183 H190 0.930 . S
N184 C181 1.329 . S
N184 C185 1.331 . S
C185 C183 1.392 . S
C185 N184 1.331 . S
O186 Zn179 1.975 1_655 S
O186 C187 1.252 . S
C187 O186 1.252 . S
C187 O188 1.252 . S
O188 Zn170 1.975 . S
O188 C187 1.252 . S
H189 C182 0.930 . S
H190 C183 0.930 . S
C191 C192 1.392 . S
C191 N195 1.328 . S
C191 H197 0.930 . S
C192 C191 1.392 . S
C192 N196 1.331 . S
C193 C194 1.391 . S
C193 N196 1.329 . S
C193 H203 0.930 . S
C194 C193 1.391 . S
C194 N195 1.334 . S
C194 H201 0.930 . S
N195 Zn179 2.119 . S
N195 C191 1.328 . S
N195 C194 1.334 . S
N196 C192 1.331 . S
N196 C193 1.329 . S
H197 C191 0.930 . S
C198 O178 1.257 . S
C198 O199 1.244 1_655 S
O199 C198 1.244 1_455 S
O200 C176 1.257 1_455 S
O200 Zn179 2.019 . S
H201 C194 0.930 . S
H202 C181 0.930 . S
H203 C193 0.930 . S
Zn204 N208 2.020 . S
Zn204 O212 2.019 . S
Zn204 N214 2.119 . S
Zn204 O222 1.975 . S
C205 N206 1.334 . S
C205 N209 1.336 . S
N206 C205 1.334 . S
N206 C207 1.334 . S
C207 N206 1.334 . S
C207 N208 1.336 . S
N208 Zn204 2.020 . S
N208 C207 1.336 . S
N208 N209 1.354 . S
N209 C205 1.336 . S
N209 N208 1.354 . S
N209 Zn213 2.020 . S
C210 O211 1.244 . S
C210 O234 1.257 . S
O211 C210 1.244 . S
O212 Zn204 2.019 . S
O212 C232 1.257 . S
Zn213 N209 2.020 . S
Zn213 O220 1.975 . S
Zn213 N229 2.119 . S
Zn213 O234 2.019 . S
N214 Zn204 2.119 . S
N214 C216 1.334 . S
N214 C217 1.328 . S
C215 C216 1.391 . S
C215 N218 1.329 . S
C215 H236 0.930 . S
C216 N214 1.334 . S
C216 C215 1.391 . S
C216 H223 0.930 . S
C217 N214 1.328 . S
C217 C219 1.392 . S
C217 H224 0.930 . S
N218 C215 1.329 . S
N218 C219 1.331 . S
C219 C217 1.392 . S
C219 N218 1.331 . S
O220 Zn213 1.975 . S
O220 C221 1.252 . S
C221 O220 1.252 . S
C221 O222 1.252 . S
O222 Zn204 1.975 . S
O222 C221 1.252 . S
H223 C216 0.930 . S
H224 C217 0.930 . S
C225 C226 1.392 . S
C225 N229 1.328 . S
C225 H231 0.930 . S
C226 C225 1.392 . S
C226 N230 1.331 . S
C227 C228 1.391 . S
C227 N230 1.329 . S
C227 H237 0.930 . S
C228 C227 1.391 . S
C228 N229 1.334 . S
C228 H235 0.930 . S
N229 Zn213 2.119 . S
N229 C225 1.328 . S
N229 C228 1.334 . S
N230 C226 1.331 . S
N230 C227 1.329 . S
H231 C225 0.930 . S
C232 O212 1.257 . S
C232 O233 1.244 . S
O233 C232 1.244 . S
O234 C210 1.257 . S
O234 Zn213 2.019 . S
H235 C228 0.930 . S
H236 C215 0.930 . S
H237 C227 0.930 . S
Zn238 N242 2.020 . S
Zn238 O246 2.019 . S
Zn238 N248 2.119 . S
Zn238 O256 1.975 . S
C239 N240 1.334 1_655 S
C239 N243 1.336 1_655 S
N240 C239 1.334 1_455 S
N240 C241 1.334 . S
C241 N240 1.334 . S
C241 N242 1.336 . S
N242 Zn238 2.020 . S
N242 C241 1.336 . S
N242 N243 1.354 . S
N243 C239 1.336 1_455 S
N243 N242 1.354 . S
N243 Zn247 2.020 1_455 S
C244 O245 1.244 . S
C244 O268 1.257 1_455 S
O245 C244 1.244 . S
O246 Zn238 2.019 . S
O246 C266 1.257 . S
Zn247 N243 2.020 1_655 S
Zn247 O254 1.975 1_655 S
Zn247 N263 2.119 . S
Zn247 O268 2.019 . S
N248 Zn238 2.119 . S
N248 C250 1.334 . S
N248 C251 1.328 . S
C249 C250 1.391 . S
C249 N252 1.329 . S
C249 H270 0.930 . S
C250 N248 1.334 . S
C250 C249 1.391 . S
C250 H257 0.930 . S
C251 N248 1.328 . S
C251 C253 1.392 . S
C251 H258 0.930 . S
N252 C249 1.329 . S
N252 C253 1.331 . S
C253 C251 1.392 . S
C253 N252 1.331 . S
O254 Zn247 1.975 1_455 S
O254 C255 1.252 . S
C255 O254 1.252 . S
C255 O256 1.252 . S
O256 Zn238 1.975 . S
O256 C255 1.252 . S
H257 C250 0.930 . S
H258 C251 0.930 . S
C259 C260 1.392 . S
C259 N263 1.328 . S
C259 H265 0.930 . S
C260 C259 1.392 . S
C260 N264 1.331 . S
C261 C262 1.391 . S
C261 N264 1.329 . S
C261 H271 0.930 . S
C262 C261 1.391 . S
C262 N263 1.334 . S
C262 H269 0.930 . S
N263 Zn247 2.119 . S
N263 C259 1.328 . S
N263 C262 1.334 . S
N264 C260 1.331 . S
N264 C261 1.329 . S
H265 C259 0.930 . S
C266 O246 1.257 . S
C266 O267 1.244 1_455 S
O267 C266 1.244 1_655 S
O268 C244 1.257 1_655 S
O268 Zn247 2.019 . S
H269 C262 0.930 . S
H270 C249 0.930 . S
H271 C261 0.930 . S
C272 C273 1.349 1_655 S
C272 C274 1.327 . S
C272 H297 0.950 . S
C273 C272 1.349 1_455 S
C273 C289 1.349 . S
C274 C272 1.327 . S
C274 C293 1.429 1_655 S
C274 H298 0.950 . S
C275 C292 1.574 . S
C275 C294 1.368 . S
C275 H299 0.949 . S
H276 C280 0.947 1_655 S
C277 C278 1.349 . S
C277 C279 1.327 . S
C277 H300 0.950 . S
C278 C277 1.349 . S
C278 C290 1.349 . S
C279 C277 1.327 . S
C279 C295 1.429 . S
C279 H301 0.950 . S
C280 H276 0.947 1_455 S
C280 C288 1.572 1_455 S
C280 C296 1.372 . S
H281 C289 0.950 . S
H282 C287 0.950 . S
H283 C288 0.956 . S
H284 C290 0.950 1_655 S
H285 C291 0.950 1_655 S
H286 C292 0.949 . S
C287 H282 0.950 . S
C287 C289 1.327 . S
C287 C293 1.429 . S
C288 C280 1.572 1_655 S
C288 H283 0.956 . S
C288 C294 1.362 1_655 S
C289 C273 1.349 . S
C289 H281 0.950 . S
C289 C287 1.327 . S
C290 C278 1.349 . S
C290 H284 0.950 1_455 S
C290 C291 1.327 . S
C291 H285 0.950 1_455 S
C291 C290 1.327 . S
C291 C295 1.429 . S
C292 C275 1.574 . S
C292 H286 0.949 . S
C292 C296 1.368 . S
C293 C274 1.429 1_455 S
C293 C287 1.429 . S
C293 C294 1.523 1_565 S
C294 C275 1.368 . S
C294 C288 1.362 1_455 S
C294 C293 1.523 1_545 S
C295 C279 1.429 . S
C295 C291 1.429 . S
C295 C296 1.523 . S
C296 C280 1.372 . S
C296 C292 1.368 . S
C296 C295 1.523 . S
H297 C272 0.950 . S
H298 C274 0.950 . S
H299 C275 0.949 . S
H300 C277 0.950 . S
H301 C279 0.950 . S
C302 C303 1.349 . S
C302 C304 1.327 . S
C302 H327 0.950 . S
C303 C302 1.349 . S
C303 C319 1.349 . S
C304 C302 1.327 . S
C304 C323 1.429 . S
C304 H328 0.950 . S
C305 C322 1.574 . S
C305 C324 1.368 . S
C305 H329 0.949 . S
H306 C310 0.949 . S
C307 C308 1.349 . S
C307 C309 1.327 . S
C307 H330 0.950 . S
C308 C307 1.349 . S
C308 C320 1.349 . S
C309 C307 1.327 . S
C309 C325 1.429 . S
C309 H331 0.950 . S
C310 H306 0.949 . S
C310 C318 1.574 . S
C310 C326 1.368 . S
H311 C319 0.950 . S
H312 C317 0.950 . S
H313 C318 0.949 . S
H314 C320 0.950 . S
H315 C321 0.950 . S
H316 C322 0.949 . S
C317 H312 0.950 . S
C317 C319 1.327 . S
C317 C323 1.429 . S
C318 C310 1.574 . S
C318 H313 0.949 . S
C318 C324 1.368 . S
C319 C303 1.349 . S
C319 H311 0.950 . S
C319 C317 1.327 . S
C320 C308 1.349 . S
C320 H314 0.950 . S
C320 C321 1.327 . S
C321 H315 0.950 . S
C321 C320 1.327 . S
C321 C325 1.429 . S
C322 C305 1.574 . S
C322 H316 0.949 . S
C322 C326 1.368 . S
C323 C304 1.429 . S
C323 C317 1.429 . S
C323 C324 1.523 1_565 S
C324 C305 1.368 . S
C324 C318 1.368 . S
C324 C323 1.523 1_545 S
C325 C309 1.429 . S
C325 C321 1.429 . S
C325 C326 1.523 . S
C326 C310 1.368 . S
C326 C322 1.368 . S
C326 C325 1.523 . S
H327 C302 0.950 . S
H328 C304 0.950 . S
H329 C305 0.949 . S
H330 C307 0.950 . S
H331 C309 0.950 . S
C332 C333 1.349 . S
C332 C334 1.327 . S
C332 H357 0.950 . S
C333 C332 1.349 . S
C333 C349 1.349 1_655 S
C334 C332 1.327 . S
C334 C353 1.429 . S
C334 H358 0.950 . S
C335 C352 1.574 . S
C335 C354 1.368 1_455 S
C335 H359 0.949 . S
H336 C340 0.949 . S
C337 C338 1.349 . S
C337 C339 1.327 1_655 S
C337 H360 0.950 1_655 S
C338 C337 1.349 . S
C338 C350 1.349 . S
C339 C337 1.327 1_455 S
C339 C355 1.431 1_455 S
C339 H361 0.947 . S
C340 H336 0.949 . S
C340 C348 1.574 . S
C340 C356 1.368 . S
H341 C349 0.950 . S
H342 C347 0.950 . S
H343 C348 0.949 . S
H344 C350 0.950 . S
H345 C351 0.950 . S
H346 C352 0.949 . S
C347 H342 0.950 . S
C347 C349 1.327 . S
C347 C353 1.429 1_455 S
C348 C340 1.574 . S
C348 H343 0.949 . S
C348 C354 1.368 . S
C349 C333 1.349 1_455 S
C349 H341 0.950 . S
C349 C347 1.327 . S
C350 C338 1.349 . S
C350 H344 0.950 . S
C350 C351 1.327 . S
C351 H345 0.950 . S
C351 C350 1.327 . S
C351 C355 1.429 . S
C352 C335 1.574 . S
C352 H346 0.949 . S
C352 C356 1.368 1_455 S
C353 C334 1.429 . S
C353 C347 1.429 1_655 S
C353 C354 1.523 1_545 S
C354 C335 1.368 1_655 S
C354 C348 1.368 . S
C354 C353 1.523 1_565 S
C355 C339 1.431 1_655 S
C355 C351 1.429 . S
C355 C356 1.523 . S
C356 C340 1.368 . S
C356 C352 1.368 1_655 S
C356 C355 1.523 . S
H357 C332 0.950 . S
H358 C334 0.950 . S
H359 C335 0.949 . S
H360 C337 0.950 1_455 S
H361 C339 0.947 . S
C362 C363 1.349 . S
C362 C364 1.327 . S
C362 H387 0.950 . S
C363 C362 1.349 . S
C363 C379 1.349 . S
C364 C362 1.327 . S
C364 C383 1.429 . S
C364 H388 0.950 . S
C365 C382 1.574 . S
C365 C384 1.368 . S
C365 H389 0.949 . S
H366 C370 0.949 . S
C367 C368 1.349 . S
C367 C369 1.327 . S
C367 H390 0.950 . S
C368 C367 1.349 . S
C368 C380 1.349 . S
C369 C367 1.327 . S
C369 C385 1.429 . S
C369 H391 0.950 . S
C370 H366 0.949 . S
C370 C378 1.574 . S
C370 C386 1.368 . S
H371 C379 0.950 . S
H372 C377 0.950 . S
H373 C378 0.949 . S
H374 C380 0.950 . S
H375 C381 0.950 . S
H376 C382 0.949 . S
C377 H372 0.950 . S
C377 C379 1.327 . S
C377 C383 1.429 . S
C378 C370 1.574 . S
C378 H373 0.949 . S
C378 C384 1.368 . S
C379 C363 1.349 . S
C379 H371 0.950 . S
C379 C377 1.327 . S
C380 C368 1.349 . S
C380 H374 0.950 . S
C380 C381 1.327 . S
C381 H375 0.950 . S
C381 C380 1.327 . S
C381 C385 1.429 . S
C382 C365 1.574 . S
C382 H376 0.949 . S
C382 C386 1.368 . S
C383 C364 1.429 . S
C383 C377 1.429 . S
C383 C384 1.523 . S
C384 C365 1.368 . S
C384 C378 1.368 . S
C384 C383 1.523 . S
C385 C369 1.429 . S
C385 C381 1.429 . S
C385 C386 1.523 1_545 S
C386 C370 1.368 . S
C386 C382 1.368 . S
C386 C385 1.523 1_565 S
H387 C362 0.950 . S
H388 C364 0.950 . S
H389 C365 0.949 . S
H390 C367 0.950 . S
H391 C369 0.950 . S
C392 C393 1.349 . S
C392 C394 1.327 . S
C392 H417 0.950 . S
C393 C392 1.349 . S
C393 C409 1.349 . S
C394 C392 1.327 . S
C394 C413 1.429 . S
C394 H418 0.950 . S
C395 C412 1.574 . S
C395 C414 1.368 . S
C395 H419 0.949 . S
H396 C400 0.949 . S
C397 C398 1.349 . S
C397 C399 1.327 . S
C397 H420 0.950 . S
C398 C397 1.349 . S
C398 C410 1.349 . S
C399 C397 1.327 . S
C399 C415 1.429 . S
C399 H421 0.950 . S
C400 H396 0.949 . S
C400 C408 1.574 . S
C400 C416 1.368 . S
H401 C409 0.950 . S
H402 C407 0.950 . S
H403 C408 0.949 . S
H404 C410 0.950 . S
H405 C411 0.950 . S
H406 C412 0.949 . S
C407 H402 0.950 . S
C407 C409 1.327 . S
C407 C413 1.429 . S
C408 C400 1.574 . S
C408 H403 0.949 . S
C408 C414 1.368 . S
C409 C393 1.349 . S
C409 H401 0.950 . S
C409 C407 1.327 . S
C410 C398 1.349 . S
C410 H404 0.950 . S
C410 C411 1.327 . S
C411 H405 0.950 . S
C411 C410 1.327 . S
C411 C415 1.429 . S
C412 C395 1.574 . S
C412 H406 0.949 . S
C412 C416 1.368 . S
C413 C394 1.429 . S
C413 C407 1.429 . S
C413 C414 1.523 . S
C414 C395 1.368 . S
C414 C408 1.368 . S
C414 C413 1.523 . S
C415 C399 1.429 . S
C415 C411 1.429 . S
C415 C416 1.523 . S
C416 C400 1.368 . S
C416 C412 1.368 . S
C416 C415 1.523 . S
H417 C392 0.950 . S
H418 C394 0.950 . S
H419 C395 0.949 . S
H420 C397 0.950 . S
H421 C399 0.950 . S
C422 C423 1.349 1_455 S
C422 C424 1.327 . S
C422 H447 0.950 . S
C423 C422 1.349 1_655 S
C423 C439 1.349 . S
C424 C422 1.327 . S
C424 C443 1.429 1_455 S
C424 H448 0.950 . S
C425 C442 1.574 . S
C425 C444 1.368 . S
C425 H449 0.949 . S
H426 C430 0.949 . S
C427 C428 1.349 . S
C427 C429 1.327 . S
C427 H450 0.950 . S
C428 C427 1.349 . S
C428 C440 1.349 1_655 S
C429 C427 1.327 . S
C429 C445 1.429 . S
C429 H451 0.950 . S
C430 H426 0.949 . S
C430 C438 1.574 . S
C430 C446 1.368 1_455 S
H431 C439 0.950 . S
H432 C437 0.950 . S
H433 C438 0.949 . S
H434 C440 0.950 . S
H435 C441 0.950 . S
H436 C442 0.949 . S
C437 H432 0.950 . S
C437 C439 1.327 . S
C437 C443 1.429 . S
C438 C430 1.574 . S
C438 H433 0.949 . S
C438 C444 1.368 1_455 S
C439 C423 1.349 . S
C439 H431 0.950 . S
C439 C437 1.327 . S
C440 C428 1.349 1_455 S
C440 H434 0.950 . S
C440 C441 1.327 . S
C441 H435 0.950 . S
C441 C440 1.327 . S
C441 C445 1.429 1_455 S
C442 C425 1.574 . S
C442 H436 0.949 . S
C442 C446 1.368 . S
C443 C424 1.429 1_655 S
C443 C437 1.429 . S
C443 C444 1.523 . S
C444 C425 1.368 . S
C444 C438 1.368 1_655 S
C444 C443 1.523 . S
C445 C429 1.429 . S
C445 C441 1.429 1_655 S
C445 C446 1.523 . S
C446 C430 1.368 1_655 S
C446 C442 1.368 . S
C446 C445 1.523 . S
H447 C422 0.950 . S
H448 C424 0.950 . S
H449 C425 0.949 . S
H450 C427 0.950 . S
H451 C429 0.950 . S
C452 C453 1.349 . S
C452 C454 1.327 . S
C452 H477 0.950 . S
C453 C452 1.349 . S
C453 C469 1.349 . S
C454 C452 1.327 . S
C454 C473 1.429 . S
C454 H478 0.950 . S
C455 C472 1.574 . S
C455 C474 1.368 . S
C455 H479 0.949 . S
H456 C460 0.949 . S
C457 C458 1.349 . S
C457 C459 1.327 . S
C457 H480 0.950 . S
C458 C457 1.349 . S
C458 C470 1.349 . S
C459 C457 1.327 . S
C459 C475 1.429 . S
C459 H481 0.950 . S
C460 H456 0.949 . S
C460 C468 1.574 . S
C460 C476 1.368 . S
H461 C469 0.950 . S
H462 C467 0.950 . S
H463 C468 0.949 . S
H464 C470 0.950 . S
H465 C471 0.950 . S
H466 C472 0.949 . S
C467 H462 0.950 . S
C467 C469 1.327 . S
C467 C473 1.429 . S
C468 C460 1.574 . S
C468 H463 0.949 . S
C468 C474 1.368 . S
C469 C453 1.349 . S
C469 H461 0.950 . S
C469 C467 1.327 . S
C470 C458 1.349 . S
C470 H464 0.950 . S
C470 C471 1.327 . S
C471 H465 0.950 . S
C471 C470 1.327 . S
C471 C475 1.429 . S
C472 C455 1.574 . S
C472 H466 0.949 . S
C472 C476 1.368 . S
C473 C454 1.429 . S
C473 C467 1.429 . S
C473 C474 1.523 . S
C474 C455 1.368 . S
C474 C468 1.368 . S
C474 C473 1.523 . S
C475 C459 1.429 . S
C475 C471 1.429 . S
C475 C476 1.523 . S
C476 C460 1.368 . S
C476 C472 1.368 . S
C476 C475 1.523 . S
H477 C452 0.950 . S
H478 C454 0.950 . S
H479 C455 0.949 . S
H480 C457 0.950 . S
H481 C459 0.950 . S
C482 C483 1.349 . S
C482 C484 1.327 . S
C482 H507 0.950 . S
C483 C482 1.349 . S
C483 C499 1.349 . S
C484 C482 1.327 . S
C484 C503 1.429 . S
C484 H508 0.950 . S
C485 C502 1.574 . S
C485 C504 1.367 1_655 S
C485 H509 0.950 . S
H486 C490 0.949 . S
C487 C488 1.349 1_655 S
C487 C489 1.327 . S
C487 H510 0.950 . S
C488 C487 1.349 1_455 S
C488 C500 1.349 . S
C489 C487 1.327 . S
C489 C505 1.429 1_655 S
C489 H511 0.950 . S
C490 H486 0.949 . S
C490 C498 1.574 . S
C490 C506 1.368 . S
H491 C499 0.950 1_655 S
H492 C497 0.950 1_655 S
H493 C498 0.949 . S
H494 C500 0.950 . S
H495 C501 0.950 . S
H496 C502 0.949 . S
C497 H492 0.950 1_455 S
C497 C499 1.327 . S
C497 C503 1.429 . S
C498 C490 1.574 . S
C498 H493 0.949 . S
C498 C504 1.368 . S
C499 C483 1.349 . S
C499 H491 0.950 1_455 S
C499 C497 1.327 . S
C500 C488 1.349 . S
C500 H494 0.950 . S
C500 C501 1.327 . S
C501 H495 0.950 . S
C501 C500 1.327 . S
C501 C505 1.429 . S
C502 C485 1.574 . S
C502 H496 0.949 . S
C502 C506 1.368 1_655 S
C503 C484 1.429 . S
C503 C497 1.429 . S
C503 C504 1.523 . S
C504 C485 1.367 1_455 S
C504 C498 1.368 . S
C504 C503 1.523 . S
C505 C489 1.429 1_455 S
C505 C501 1.429 . S
C505 C506 1.523 . S
C506 C490 1.368 . S
C506 C502 1.368 1_455 S
C506 C505 1.523 . S
H507 C482 0.950 . S
H508 C484 0.950 . S
H509 C485 0.950 . S
H510 C487 0.950 . S
H511 C489 0.950 . S
C512 C513 1.349 . S
C512 C514 1.327 . S
C512 H537 0.950 . S
C513 C512 1.349 . S
C513 C529 1.349 . S
C514 C512 1.327 . S
C514 C533 1.429 . S
C514 H538 0.950 . S
C515 C532 1.574 . S
C515 C534 1.368 1_655 S
C515 H539 0.949 . S
H516 C520 0.949 . S
C517 C518 1.349 . S
C517 C519 1.327 . S
C517 H540 0.950 . S
C518 C517 1.349 . S
C518 C530 1.349 . S
C519 C517 1.327 . S
C519 C535 1.429 . S
C519 H541 0.950 . S
C520 H516 0.949 . S
C520 C528 1.574 . S
C520 C536 1.368 1_455 S
H521 C529 0.950 . S
H522 C527 0.950 . S
H523 C528 0.949 . S
H524 C530 0.950 . S
H525 C531 0.950 . S
H526 C532 0.949 . S
C527 H522 0.950 . S
C527 C529 1.327 . S
C527 C533 1.429 . S
C528 C520 1.574 . S
C528 H523 0.949 . S
C528 C534 1.368 1_556 S
C529 C513 1.349 . S
C529 H521 0.950 . S
C529 C527 1.327 . S
C530 C518 1.349 . S
C530 H524 0.950 . S
C530 C531 1.327 . S
C531 H525 0.950 . S
C531 C530 1.327 . S
C531 C535 1.429 . S
C532 C515 1.574 . S
C532 H526 0.949 . S
C532 C536 1.368 1_554 S
C533 C514 1.429 . S
C533 C527 1.429 . S
C533 C534 1.523 . S
C534 C515 1.368 1_455 S
C534 C528 1.368 1_554 S
C534 C533 1.523 . S
C535 C519 1.429 . S
C535 C531 1.429 . S
C535 C536 1.523 . S
C536 C520 1.368 1_655 S
C536 C532 1.368 1_556 S
C536 C535 1.523 . S
H537 C512 0.950 . S
H538 C514 0.950 . S
H539 C515 0.949 . S
H540 C517 0.950 . S
H541 C519 0.950 . S
C542 C543 1.349 . S
C542 C544 1.327 . S
C542 H567 0.950 . S
C543 C542 1.349 . S
C543 C559 1.349 . S
C544 C542 1.327 . S
C544 C563 1.429 . S
C544 H568 0.950 . S
C545 C562 1.574 1_554 S
C545 C564 1.368 . S
C545 H569 0.949 . S
H546 C550 0.949 . S
C547 C548 1.349 . S
C547 C549 1.327 . S
C547 H570 0.950 . S
C548 C547 1.349 . S
C548 C560 1.349 . S
C549 C547 1.327 . S
C549 C565 1.429 . S
C549 H571 0.950 . S
C550 H546 0.949 . S
C550 C558 1.574 1_556 S
C550 C566 1.368 . S
H551 C559 0.950 . S
H552 C557 0.950 . S
H553 C558 0.949 . S
H554 C560 0.950 . S
H555 C561 0.950 . S
H556 C562 0.949 . S
C557 H552 0.950 . S
C557 C559 1.327 . S
C557 C563 1.429 . S
C558 C550 1.574 1_554 S
C558 H553 0.949 . S
C558 C564 1.368 . S
C559 C543 1.349 . S
C559 H551 0.950 . S
C559 C557 1.327 . S
C560 C548 1.349 . S
C560 H554 0.950 . S
C560 C561 1.327 . S
C561 H555 0.950 . S
C561 C560 1.327 . S
C561 C565 1.429 . S
C562 C545 1.574 1_556 S
C562 H556 0.949 . S
C562 C566 1.368 . S
C563 C544 1.429 . S
C563 C557 1.429 . S
C563 C564 1.523 . S
C564 C545 1.368 . S
C564 C558 1.368 . S
C564 C563 1.523 . S
C565 C549 1.429 . S
C565 C561 1.429 . S
C565 C566 1.523 . S
C566 C550 1.368 . S
C566 C562 1.368 . S
C566 C565 1.523 . S
H567 C542 0.950 . S
H568 C544 0.950 . S
H569 C545 0.949 . S
H570 C547 0.950 . S
H571 C549 0.950 . S
C572 C573 1.349 . S
C572 C574 1.327 . S
C572 H597 0.950 . S
C573 C572 1.349 . S
C573 C589 1.349 . S
C574 C572 1.327 . S
C574 C593 1.429 . S
C574 H598 0.950 . S
C575 C592 1.574 1_545 S
C575 C594 1.368 . S
C575 H599 0.949 . S
H576 C580 0.949 . S
C577 C578 1.349 . S
C577 C579 1.327 . S
C577 H600 0.950 . S
C578 C577 1.349 . S
C578 C590 1.349 . S
C579 C577 1.327 . S
C579 C595 1.429 . S
C579 H601 0.950 . S
C580 H576 0.949 . S
C580 C588 1.574 1_565 S
C580 C596 1.368 . S
H581 C589 0.950 . S
H582 C587 0.950 . S
H583 C588 0.949 . S
H584 C590 0.950 . S
H585 C591 0.950 . S
H586 C592 0.949 . S
C587 H582 0.950 . S
C587 C589 1.327 . S
C587 C593 1.429 . S
C588 C580 1.574 1_545 S
C588 H583 0.949 . S
C588 C594 1.368 . S
C589 C573 1.349 . S
C589 H581 0.950 . S
C589 C587 1.327 . S
C590 C578 1.349 . S
C590 H584 0.950 . S
C590 C591 1.327 . S
C591 H585 0.950 . S
C591 C590 1.327 . S
C591 C595 1.429 . S
C592 C575 1.574 1_565 S
C592 H586 0.949 . S
C592 C596 1.368 . S
C593 C574 1.429 . S
C593 C587 1.429 . S
C593 C594 1.523 . S
C594 C575 1.368 . S
C594 C588 1.368 . S
C594 C593 1.523 . S
C595 C579 1.429 . S
C595 C591 1.429 . S
C595 C596 1.523 . S
C596 C580 1.368 . S
C596 C592 1.368 . S
C596 C595 1.523 . S
H597 C572 0.950 . S
H598 C574 0.950 . S
H599 C575 0.949 . S
H600 C577 0.950 . S
H601 C579 0.950 . S
C602 C603 1.349 1_455 S
C602 C604 1.327 . S
C602 H627 0.950 . S
C603 C602 1.349 1_655 S
C603 C619 1.349 . S
C604 C602 1.327 . S
C604 C623 1.429 1_455 S
C604 H628 0.950 . S
C605 C622 1.574 . S
C605 C624 1.368 1_545 S
C605 H629 0.949 . S
H606 C610 0.949 . S
C607 C608 1.349 1_655 S
C607 C609 1.327 . S
C607 H630 0.950 . S
C608 C607 1.349 1_455 S
C608 C620 1.349 . S
C609 C607 1.327 . S
C609 C625 1.429 1_655 S
C609 H631 0.950 . S
C610 H606 0.949 . S
C610 C618 1.574 . S
C610 C626 1.368 1_565 S
H611 C619 0.950 . S
H612 C617 0.950 . S
H613 C618 0.949 . S
H614 C620 0.950 . S
H615 C621 0.950 . S
H616 C622 0.949 . S
C617 H612 0.950 . S
C617 C619 1.327 . S
C617 C623 1.429 . S
C618 C610 1.574 . S
C618 H613 0.949 . S
C618 C624 1.368 1_455 S
C619 C603 1.349 . S
C619 H611 0.950 . S
C619 C617 1.327 . S
C620 C608 1.349 . S
C620 H614 0.950 . S
C620 C621 1.327 . S
C621 H615 0.950 . S
C621 C620 1.327 . S
C621 C625 1.429 . S
C622 C605 1.574 . S
C622 H616 0.949 . S
C622 C626 1.368 1_655 S
C623 C604 1.429 1_655 S
C623 C617 1.429 . S
C623 C624 1.523 . S
C624 C605 1.368 1_565 S
C624 C618 1.368 1_655 S
C624 C623 1.523 . S
C625 C609 1.429 1_455 S
C625 C621 1.429 . S
C625 C626 1.523 . S
C626 C610 1.368 1_545 S
C626 C622 1.368 1_455 S
C626 C625 1.523 . S
H627 C602 0.950 . S
H628 C604 0.950 . S
H629 C605 0.949 . S
H630 C607 0.950 . S
H631 C609 0.950 . S
C632 C633 1.349 . S
C632 C634 1.327 . S
C632 H657 0.950 . S
C633 C632 1.349 . S
C633 C649 1.349 . S
C634 C632 1.327 . S
C634 C653 1.429 . S
C634 H658 0.950 . S
C635 C652 1.574 . S
C635 C654 1.368 . S
C635 H659 0.949 . S
H636 C640 0.949 . S
C637 C638 1.349 . S
C637 C639 1.327 . S
C637 H660 0.950 . S
C638 C637 1.349 . S
C638 C650 1.349 . S
C639 C637 1.327 . S
C639 C655 1.429 . S
C639 H661 0.950 . S
C640 H636 0.949 . S
C640 C648 1.574 . S
C640 C656 1.368 . S
H641 C649 0.950 . S
H642 C647 0.950 . S
H643 C648 0.949 . S
H644 C650 0.950 . S
H645 C651 0.950 . S
H646 C652 0.949 . S
C647 H642 0.950 . S
C647 C649 1.327 . S
C647 C653 1.429 . S
C648 C640 1.574 . S
C648 H643 0.949 . S
C648 C654 1.368 1_556 S
C649 C633 1.349 . S
C649 H641 0.950 . S
C649 C647 1.327 . S
C650 C638 1.349 . S
C650 H644 0.950 . S
C650 C651 1.327 . S
C651 H645 0.950 . S
C651 C650 1.327 . S
C651 C655 1.429 . S
C652 C635 1.574 . S
C652 H646 0.949 . S
C652 C656 1.368 1_554 S
C653 C634 1.429 . S
C653 C647 1.429 . S
C653 C654 1.523 . S
C654 C635 1.368 . S
C654 C648 1.368 1_554 S
C654 C653 1.523 . S
C655 C639 1.429 . S
C655 C651 1.429 . S
C655 C656 1.523 . S
C656 C640 1.368 . S
C656 C652 1.368 1_556 S
C656 C655 1.523 . S
H657 C632 0.950 . S
H658 C634 0.950 . S
H659 C635 0.949 . S
H660 C637 0.950 . S
H661 C639 0.950 . S
C662 C663 1.349 . S
C662 C664 1.327 . S
C662 H687 0.950 . S
C663 C662 1.349 . S
C663 C679 1.349 . S
C664 C662 1.327 . S
C664 C683 1.429 . S
C664 H688 0.950 . S
C665 C682 1.574 . S
C665 C684 1.368 1_556 S
C665 H689 0.949 . S
H666 C670 0.949 . S
C667 C668 1.349 . S
C667 C669 1.327 . S
C667 H690 0.950 . S
C668 C667 1.349 . S
C668 C680 1.349 . S
C669 C667 1.327 . S
C669 C685 1.429 . S
C669 H691 0.950 . S
C670 H666 0.949 . S
C670 C678 1.574 . S
C670 C686 1.368 1_554 S
H671 C679 0.950 . S
H672 C677 0.950 . S
H673 C678 0.949 . S
H674 C680 0.950 . S
H675 C681 0.950 . S
H676 C682 0.949 . S
C677 H672 0.950 . S
C677 C679 1.327 . S
C677 C683 1.429 . S
C678 C670 1.574 . S
C678 H673 0.949 . S
C678 C684 1.368 . S
C679 C663 1.349 . S
C679 H671 0.950 . S
C679 C677 1.327 . S
C680 C668 1.349 . S
C680 H674 0.950 . S
C680 C681 1.327 . S
C681 H675 0.950 . S
C681 C680 1.327 . S
C681 C685 1.429 . S
C682 C665 1.574 . S
C682 H676 0.949 . S
C682 C686 1.368 . S
C683 C664 1.429 . S
C683 C677 1.429 . S
C683 C684 1.523 . S
C684 C665 1.368 1_554 S
C684 C678 1.368 . S
C684 C683 1.523 . S
C685 C669 1.429 . S
C685 C681 1.429 . S
C685 C686 1.523 . S
C686 C670 1.368 1_556 S
C686 C682 1.368 . S
C686 C685 1.523 . S
H687 C662 0.950 . S
H688 C664 0.950 . S
H689 C665 0.949 . S
H690 C667 0.950 . S
H691 C669 0.950 . S
C692 C693 1.349 . S
C692 C694 1.327 . S
C692 H717 0.950 . S
C693 C692 1.349 . S
C693 C709 1.349 . S
C694 C692 1.327 . S
C694 C713 1.429 . S
C694 H718 0.950 . S
C695 C712 1.574 . S
C695 C714 1.368 . S
C695 H719 0.949 . S
H696 C700 0.949 . S
C697 C698 1.349 . S
C697 C699 1.327 . S
C697 H720 0.950 . S
C698 C697 1.349 . S
C698 C710 1.349 . S
C699 C697 1.327 . S
C699 C715 1.429 . S
C699 H721 0.950 . S
C700 H696 0.949 . S
C700 C708 1.574 . S
C700 C716 1.368 . S
H701 C709 0.950 . S
H702 C707 0.950 . S
H703 C708 0.949 . S
H704 C710 0.950 . S
H705 C711 0.950 . S
H706 C712 0.949 . S
C707 H702 0.950 . S
C707 C709 1.327 . S
C707 C713 1.429 . S
C708 C700 1.574 . S
C708 H703 0.949 . S
C708 C714 1.368 . S
C709 C693 1.349 . S
C709 H701 0.950 . S
C709 C707 1.327 . S
C710 C698 1.349 . S
C710 H704 0.950 . S
C710 C711 1.327 . S
C711 H705 0.950 . S
C711 C710 1.327 . S
C711 C715 1.429 . S
C712 C695 1.574 . S
C712 H706 0.949 . S
C712 C716 1.368 . S
C713 C694 1.429 . S
C713 C707 1.429 . S
C713 C714 1.523 . S
C714 C695 1.368 . S
C714 C708 1.368 . S
C714 C713 1.523 . S
C715 C699 1.429 . S
C715 C711 1.429 . S
C715 C716 1.523 . S
C716 C700 1.368 . S
C716 C712 1.368 . S
C716 C715 1.523 . S
H717 C692 0.950 . S
H718 C694 0.950 . S
H719 C695 0.949 . S
H720 C697 0.950 . S
H721 C699 0.950 . S
C722 C723 1.349 . S
C722 C724 1.327 . S
C722 H747 0.950 . S
C723 C722 1.349 . S
C723 C739 1.349 . S
C724 C722 1.327 . S
C724 C743 1.429 . S
C724 H748 0.950 . S
C725 C742 1.574 . S
C725 C744 1.368 . S
C725 H749 0.949 . S
H726 C730 0.949 . S
C727 C728 1.349 . S
C727 C729 1.327 . S
C727 H750 0.950 . S
C728 C727 1.349 . S
C728 C740 1.349 . S
C729 C727 1.327 . S
C729 C745 1.429 . S
C729 H751 0.950 . S
C730 H726 0.949 . S
C730 C738 1.574 . S
C730 C746 1.368 . S
H731 C739 0.950 . S
H732 C737 0.950 . S
H733 C738 0.949 . S
H734 C740 0.950 . S
H735 C741 0.950 . S
H736 C742 0.949 . S
C737 H732 0.950 . S
C737 C739 1.327 . S
C737 C743 1.429 . S
C738 C730 1.574 . S
C738 H733 0.949 . S
C738 C744 1.368 . S
C739 C723 1.349 . S
C739 H731 0.950 . S
C739 C737 1.327 . S
C740 C728 1.349 . S
C740 H734 0.950 . S
C740 C741 1.327 . S
C741 H735 0.950 . S
C741 C740 1.327 . S
C741 C745 1.429 . S
C742 C725 1.574 . S
C742 H736 0.949 . S
C742 C746 1.368 . S
C743 C724 1.429 . S
C743 C737 1.429 . S
C743 C744 1.523 . S
C744 C725 1.368 . S
C744 C738 1.368 . S
C744 C743 1.523 . S
C745 C729 1.429 . S
C745 C741 1.429 . S
C745 C746 1.523 . S
C746 C730 1.368 . S
C746 C742 1.368 . S
C746 C745 1.523 . S
H747 C722 0.950 . S
H748 C724 0.950 . S
H749 C725 0.949 . S
H750 C727 0.950 . S
H751 C729 0.950 . S
C752 C753 1.349 . S
C752 C754 1.327 . S
C752 H777 0.950 . S
C753 C752 1.349 . S
C753 C769 1.349 . S
C754 C752 1.327 . S
C754 C773 1.429 . S
C754 H778 0.950 . S
C755 C772 1.574 . S
C755 C774 1.368 . S
C755 H779 0.949 . S
H756 C760 0.949 . S
C757 C758 1.349 . S
C757 C759 1.327 . S
C757 H780 0.950 . S
C758 C757 1.349 . S
C758 C770 1.349 . S
C759 C757 1.327 . S
C759 C775 1.429 . S
C759 H781 0.950 . S
C760 H756 0.949 . S
C760 C768 1.574 . S
C760 C776 1.368 . S
H761 C769 0.950 . S
H762 C767 0.950 . S
H763 C768 0.949 . S
H764 C770 0.950 . S
H765 C771 0.950 . S
H766 C772 0.949 . S
C767 H762 0.950 . S
C767 C769 1.327 . S
C767 C773 1.429 . S
C768 C760 1.574 . S
C768 H763 0.949 . S
C768 C774 1.368 . S
C769 C753 1.349 . S
C769 H761 0.950 . S
C769 C767 1.327 . S
C770 C758 1.349 . S
C770 H764 0.950 . S
C770 C771 1.327 . S
C771 H765 0.950 . S
C771 C770 1.327 . S
C771 C775 1.429 . S
C772 C755 1.574 . S
C772 H766 0.949 . S
C772 C776 1.368 . S
C773 C754 1.429 . S
C773 C767 1.429 . S
C773 C774 1.523 . S
C774 C755 1.368 . S
C774 C768 1.368 . S
C774 C773 1.523 . S
C775 C759 1.429 . S
C775 C771 1.429 . S
C775 C776 1.523 . S
C776 C760 1.368 . S
C776 C772 1.368 . S
C776 C775 1.523 . S
H777 C752 0.950 . S
H778 C754 0.950 . S
H779 C755 0.949 . S
H780 C757 0.950 . S
H781 C759 0.950 . S
C782 C783 1.349 . S
C782 C784 1.327 . S
C782 H807 0.950 . S
C783 C782 1.349 . S
C783 C799 1.349 . S
C784 C782 1.327 . S
C784 C803 1.429 . S
C784 H808 0.950 . S
C785 C802 1.574 . S
C785 C804 1.368 . S
C785 H809 0.949 . S
H786 C790 0.949 . S
C787 C788 1.349 . S
C787 C789 1.327 . S
C787 H810 0.950 . S
C788 C787 1.349 . S
C788 C800 1.349 . S
C789 C787 1.327 . S
C789 C805 1.429 . S
C789 H811 0.950 . S
C790 H786 0.949 . S
C790 C798 1.574 . S
C790 C806 1.368 . S
H791 C799 0.950 . S
H792 C797 0.950 . S
H793 C798 0.949 . S
H794 C800 0.950 . S
H795 C801 0.950 . S
H796 C802 0.949 . S
C797 H792 0.950 . S
C797 C799 1.327 . S
C797 C803 1.429 . S
C798 C790 1.574 . S
C798 H793 0.949 . S
C798 C804 1.368 . S
C799 C783 1.349 . S
C799 H791 0.950 . S
C799 C797 1.327 . S
C800 C788 1.349 . S
C800 H794 0.950 . S
C800 C801 1.327 . S
C801 H795 0.950 . S
C801 C800 1.327 . S
C801 C805 1.429 . S
C802 C785 1.574 . S
C802 H796 0.949 . S
C802 C806 1.368 . S
C803 C784 1.429 . S
C803 C797 1.429 . S
C803 C804 1.523 . S
C804 C785 1.368 . S
C804 C798 1.368 . S
C804 C803 1.523 . S
C805 C789 1.429 . S
C805 C801 1.429 . S
C805 C806 1.523 . S
C806 C790 1.368 . S
C806 C802 1.368 . S
C806 C805 1.523 . S
H807 C782 0.950 . S
H808 C784 0.950 . S
H809 C785 0.949 . S
H810 C787 0.950 . S
H811 C789 0.950 . S
C812 C813 1.349 . S
C812 C814 1.327 . S
C812 H837 0.950 . S
C813 C812 1.349 . S
C813 C829 1.349 . S
C814 C812 1.327 . S
C814 C833 1.429 . S
C814 H838 0.950 . S
C815 C832 1.574 . S
C815 C834 1.368 . S
C815 H839 0.949 . S
H816 C820 0.949 . S
C817 C818 1.349 . S
C817 C819 1.327 . S
C817 H840 0.950 . S
C818 C817 1.349 . S
C818 C830 1.349 . S
C819 C817 1.327 . S
C819 C835 1.429 . S
C819 H841 0.950 . S
C820 H816 0.949 . S
C820 C828 1.574 . S
C820 C836 1.368 . S
H821 C829 0.950 . S
H822 C827 0.950 . S
H823 C828 0.949 . S
H824 C830 0.950 . S
H825 C831 0.950 . S
H826 C832 0.949 . S
C827 H822 0.950 . S
C827 C829 1.327 . S
C827 C833 1.429 . S
C828 C820 1.574 . S
C828 H823 0.949 . S
C828 C834 1.368 . S
C829 C813 1.349 . S
C829 H821 0.950 . S
C829 C827 1.327 . S
C830 C818 1.349 . S
C830 H824 0.950 . S
C830 C831 1.327 . S
C831 H825 0.950 . S
C831 C830 1.327 . S
C831 C835 1.429 . S
C832 C815 1.574 . S
C832 H826 0.949 . S
C832 C836 1.368 . S
C833 C814 1.429 . S
C833 C827 1.429 . S
C833 C834 1.523 . S
C834 C815 1.368 . S
C834 C828 1.368 . S
C834 C833 1.523 . S
C835 C819 1.429 . S
C835 C831 1.429 . S
C835 C836 1.523 . S
C836 C820 1.368 . S
C836 C832 1.368 . S
C836 C835 1.523 . S
H837 C812 0.950 . S
H838 C814 0.950 . S
H839 C815 0.949 . S
H840 C817 0.950 . S
H841 C819 0.950 . S
C842 C843 1.349 . S
C842 C844 1.327 . S
C842 H867 0.950 . S
C843 C842 1.349 . S
C843 C859 1.349 . S
C844 C842 1.327 . S
C844 C863 1.429 . S
C844 H868 0.950 . S
C845 C862 1.574 . S
C845 C864 1.368 . S
C845 H869 0.949 . S
H846 C850 0.949 . S
C847 C848 1.349 . S
C847 C849 1.327 . S
C847 H870 0.950 . S
C848 C847 1.349 . S
C848 C860 1.349 . S
C849 C847 1.327 . S
C849 C865 1.429 . S
C849 H871 0.950 . S
C850 H846 0.949 . S
C850 C858 1.574 . S
C850 C866 1.368 . S
H851 C859 0.950 . S
H852 C857 0.950 . S
H853 C858 0.949 . S
H854 C860 0.950 . S
H855 C861 0.950 . S
H856 C862 0.949 . S
C857 H852 0.950 . S
C857 C859 1.327 . S
C857 C863 1.429 . S
C858 C850 1.574 . S
C858 H853 0.949 . S
C858 C864 1.368 . S
C859 C843 1.349 . S
C859 H851 0.950 . S
C859 C857 1.327 . S
C860 C848 1.349 . S
C860 H854 0.950 . S
C860 C861 1.327 . S
C861 H855 0.950 . S
C861 C860 1.327 . S
C861 C865 1.429 . S
C862 C845 1.574 . S
C862 H856 0.949 . S
C862 C866 1.368 . S
C863 C844 1.429 . S
C863 C857 1.429 . S
C863 C864 1.523 . S
C864 C845 1.368 . S
C864 C858 1.368 . S
C864 C863 1.523 . S
C865 C849 1.429 . S
C865 C861 1.429 . S
C865 C866 1.523 . S
C866 C850 1.368 . S
C866 C862 1.368 . S
C866 C865 1.523 . S
H867 C842 0.950 . S
H868 C844 0.950 . S
H869 C845 0.949 . S
H870 C847 0.950 . S
H871 C849 0.950 . S
C872 C873 1.349 1_655 S
C872 C874 1.327 . S
C872 H897 0.950 . S
C873 C872 1.349 1_455 S
C873 C889 1.349 . S
C874 C872 1.327 . S
C874 C893 1.429 1_655 S
C874 H898 0.950 . S
C875 C892 1.574 . S
C875 C894 1.368 . S
C875 H899 0.949 . S
H876 C880 0.949 . S
C877 C878 1.349 . S
C877 C879 1.327 . S
C877 H900 0.950 . S
C878 C877 1.349 . S
C878 C890 1.349 1_455 S
C879 C877 1.327 . S
C879 C895 1.429 1_554 S
C879 H901 0.950 . S
C880 H876 0.949 . S
C880 C888 1.574 . S
C880 C896 1.368 1_655 S
H881 C889 0.950 . S
H882 C887 0.950 . S
H883 C888 0.949 . S
H884 C890 0.950 . S
H885 C891 0.950 . S
H886 C892 0.949 . S
C887 H882 0.950 . S
C887 C889 1.327 . S
C887 C893 1.429 . S
C888 C880 1.574 . S
C888 H883 0.949 . S
C888 C894 1.368 1_655 S
C889 C873 1.349 . S
C889 H881 0.950 . S
C889 C887 1.327 . S
C890 C878 1.349 1_655 S
C890 H884 0.950 . S
C890 C891 1.327 1_554 S
C891 H885 0.950 . S
C891 C890 1.327 1_556 S
C891 C895 1.429 1_655 S
C892 C875 1.574 . S
C892 H886 0.949 . S
C892 C896 1.368 . S
C893 C874 1.429 1_455 S
C893 C887 1.429 . S
C893 C894 1.523 . S
C894 C875 1.368 . S
C894 C888 1.368 1_455 S
C894 C893 1.523 . S
C895 C879 1.429 1_556 S
C895 C891 1.429 1_455 S
C895 C896 1.523 . S
C896 C880 1.368 1_455 S
C896 C892 1.368 . S
C896 C895 1.523 . S
H897 C872 0.950 . S
H898 C874 0.950 . S
H899 C875 0.949 . S
H900 C877 0.950 . S
H901 C879 0.950 . S
C902 C903 1.349 . S
C902 C904 1.327 . S
C902 H927 0.950 . S
C903 C902 1.349 . S
C903 C919 1.349 . S
C904 C902 1.327 . S
C904 C923 1.429 . S
C904 H928 0.950 . S
C905 C922 1.574 . S
C905 C924 1.368 . S
C905 H929 0.949 . S
H906 C910 0.949 . S
C907 C908 1.349 . S
C907 C909 1.327 . S
C907 H930 0.950 . S
C908 C907 1.349 . S
C908 C920 1.349 . S
C909 C907 1.327 . S
C909 C925 1.429 1_556 S
C909 H931 0.950 . S
C910 H906 0.949 . S
C910 C918 1.574 . S
C910 C926 1.368 . S
H911 C919 0.950 . S
H912 C917 0.950 . S
H913 C918 0.949 . S
H914 C920 0.950 . S
H915 C921 0.950 . S
H916 C922 0.949 . S
C917 H912 0.950 . S
C917 C919 1.327 . S
C917 C923 1.429 . S
C918 C910 1.574 . S
C918 H913 0.949 . S
C918 C924 1.368 . S
C919 C903 1.349 . S
C919 H911 0.950 . S
C919 C917 1.327 . S
C920 C908 1.349 . S
C920 H914 0.950 . S
C920 C921 1.327 1_556 S
C921 H915 0.950 . S
C921 C920 1.327 1_554 S
C921 C925 1.429 . S
C922 C905 1.574 . S
C922 H916 0.949 . S
C922 C926 1.368 . S
C923 C904 1.429 . S
C923 C917 1.429 . S
C923 C924 1.523 . S
C924 C905 1.368 . S
C924 C918 1.368 . S
C924 C923 1.523 . S
C925 C909 1.429 1_554 S
C925 C921 1.429 . S
C925 C926 1.523 . S
C926 C910 1.368 . S
C926 C922 1.368 . S
C926 C925 1.523 . S
H927 C902 0.950 . S
H928 C904 0.950 . S
H929 C905 0.949 . S
H930 C907 0.950 . S
H931 C909 0.950 . S
C932 C933 1.349 . S
C932 C934 1.327 . S
C932 H957 0.950 . S
C933 C932 1.349 . S
C933 C949 1.349 1_655 S
C934 C932 1.327 . S
C934 C953 1.429 1_556 S
C934 H958 0.950 . S
C935 C952 1.574 . S
C935 C954 1.368 1_455 S
C935 H959 0.949 . S
H936 C940 0.949 . S
C937 C938 1.349 . S
C937 C939 1.329 . S
C937 H960 0.950 1_655 S
C938 C937 1.349 . S
C938 C950 1.349 . S
C939 C937 1.329 . S
C939 C955 1.434 . S
C939 H961 0.942 1_655 S
C940 H936 0.949 . S
C940 C948 1.574 . S
C940 C956 1.368 . S
H941 C949 0.950 . S
H942 C947 0.950 . S
H943 C948 0.949 . S
H944 C950 0.950 . S
H945 C951 0.950 . S
H946 C952 0.949 . S
C947 H942 0.950 . S
C947 C949 1.327 1_554 S
C947 C953 1.429 1_455 S
C948 C940 1.574 . S
C948 H943 0.949 . S
C948 C954 1.368 . S
C949 C933 1.349 1_455 S
C949 H941 0.950 . S
C949 C947 1.327 1_556 S
C950 C938 1.349 . S
C950 H944 0.950 . S
C950 C951 1.327 . S
C951 H945 0.950 . S
C951 C950 1.327 . S
C951 C955 1.429 . S
C952 C935 1.574 . S
C952 H946 0.949 . S
C952 C956 1.368 1_455 S
C953 C934 1.429 1_554 S
C953 C947 1.429 1_655 S
C953 C954 1.523 . S
C954 C935 1.368 1_655 S
C954 C948 1.368 . S
C954 C953 1.523 . S
C955 C939 1.434 . S
C955 C951 1.429 . S
C955 C956 1.523 . S
C956 C940 1.368 . S
C956 C952 1.368 1_655 S
C956 C955 1.523 . S
H957 C932 0.950 . S
H958 C934 0.950 . S
H959 C935 0.949 . S
H960 C937 0.950 1_455 S
H961 C939 0.942 1_455 S
C962 C963 1.349 . S
C962 C964 1.327 1_554 S
C962 H987 0.950 . S
C963 C962 1.349 . S
C963 C979 1.349 . S
C964 C962 1.327 1_556 S
C964 C983 1.429 . S
C964 H988 0.950 . S
C965 C982 1.574 . S
C965 C984 1.368 . S
C965 H989 0.949 . S
H966 C970 0.949 . S
C967 C968 1.349 . S
C967 C969 1.327 . S
C967 H990 0.950 . S
C968 C967 1.349 . S
C968 C980 1.349 . S
C969 C967 1.327 . S
C969 C985 1.429 . S
C969 H991 0.950 . S
C970 H966 0.949 . S
C970 C978 1.574 . S
C970 C986 1.368 . S
H971 C979 0.950 . S
H972 C977 0.950 . S
H973 C978 0.949 . S
H974 C980 0.950 . S
H975 C981 0.950 . S
H976 C982 0.949 . S
C977 H972 0.950 . S
C977 C979 1.327 . S
C977 C983 1.429 1_554 S
C978 C970 1.574 . S
C978 H973 0.949 . S
C978 C984 1.368 . S
C979 C963 1.349 . S
C979 H971 0.950 . S
C979 C977 1.327 . S
C980 C968 1.349 . S
C980 H974 0.950 . S
C980 C981 1.327 . S
C981 H975 0.950 . S
C981 C980 1.327 . S
C981 C985 1.429 . S
C982 C965 1.574 . S
C982 H976 0.949 . S
C982 C986 1.368 . S
C983 C964 1.429 . S
C983 C977 1.429 1_556 S
C983 C984 1.523 . S
C984 C965 1.368 . S
C984 C978 1.368 . S
C984 C983 1.523 . S
C985 C969 1.429 . S
C985 C981 1.429 . S
C985 C986 1.523 . S
C986 C970 1.368 . S
C986 C982 1.368 . S
C986 C985 1.523 . S
H987 C962 0.950 . S
H988 C964 0.950 . S
H989 C965 0.949 . S
H990 C967 0.950 . S
H991 C969 0.950 . S
C992 C993 1.349 . S
C992 C994 1.327 . S
C992 H1017 0.950 . S
C993 C992 1.349 . S
C993 C1009 1.349 . S
C994 C992 1.327 . S
C994 C1013 1.429 . S
C994 H1018 0.950 . S
C995 C1012 1.574 . S
C995 C1014 1.368 . S
C995 H1019 0.949 . S
H996 C1000 0.949 . S
C997 C998 1.349 . S
C997 C999 1.327 . S
C997 H1020 0.950 . S
C998 C997 1.349 . S
C998 C1010 1.349 . S
C999 C997 1.327 . S
C999 C1015 1.429 . S
C999 H1021 0.950 . S
C1000 H996 0.949 . S
C1000 C1008 1.574 . S
C1000 C1016 1.368 . S
H1001 C1009 0.950 . S
H1002 C1007 0.950 . S
H1003 C1008 0.949 . S
H1004 C1010 0.950 . S
H1005 C1011 0.950 . S
H1006 C1012 0.949 . S
C1007 H1002 0.950 . S
C1007 C1009 1.327 . S
C1007 C1013 1.429 . S
C1008 C1000 1.574 . S
C1008 H1003 0.949 . S
C1008 C1014 1.368 . S
C1009 C993 1.349 . S
C1009 H1001 0.950 . S
C1009 C1007 1.327 . S
C1010 C998 1.349 . S
C1010 H1004 0.950 . S
C1010 C1011 1.327 . S
C1011 H1005 0.950 . S
C1011 C1010 1.327 . S
C1011 C1015 1.429 . S
C1012 C995 1.574 . S
C1012 H1006 0.949 . S
C1012 C1016 1.368 . S
C1013 C994 1.429 . S
C1013 C1007 1.429 . S
C1013 C1014 1.523 . S
C1014 C995 1.368 . S
C1014 C1008 1.368 . S
C1014 C1013 1.523 . S
C1015 C999 1.429 . S
C1015 C1011 1.429 . S
C1015 C1016 1.523 . S
C1016 C1000 1.368 . S
C1016 C1012 1.368 . S
C1016 C1015 1.523 . S
H1017 C992 0.950 . S
H1018 C994 0.950 . S
H1019 C995 0.949 . S
H1020 C997 0.950 . S
H1021 C999 0.950 . S
C1022 C1023 1.349 . S
C1022 C1024 1.327 . S
C1022 H1047 0.950 1_655 S
C1023 C1022 1.349 . S
C1023 C1039 1.349 . S
C1024 C1022 1.327 . S
C1024 C1043 1.429 . S
C1024 H1048 0.950 1_655 S
C1025 C1042 1.574 . S
C1025 C1044 1.368 . S
C1025 H1049 0.949 . S
H1026 C1030 0.949 1_455 S
C1027 C1028 1.349 . S
C1027 C1029 1.327 . S
C1027 H1050 0.950 . S
C1028 C1027 1.349 . S
C1028 C1040 1.349 . S
C1029 C1027 1.327 . S
C1029 C1045 1.429 . S
C1029 H1051 0.950 . S
C1030 H1026 0.949 1_655 S
C1030 C1038 1.574 . S
C1030 C1046 1.368 . S
H1031 C1039 0.950 . S
H1032 C1037 0.950 . S
H1033 C1038 0.949 1_455 S
H1034 C1040 0.950 1_455 S
H1035 C1041 0.950 1_455 S
H1036 C1042 0.949 . S
C1037 H1032 0.950 . S
C1037 C1039 1.327 . S
C1037 C1043 1.429 . S
C1038 C1030 1.574 . S
C1038 H1033 0.949 1_655 S
C1038 C1044 1.368 . S
C1039 C1023 1.349 . S
C1039 H1031 0.950 . S
C1039 C1037 1.327 . S
C1040 C1028 1.349 . S
C1040 H1034 0.950 1_655 S
C1040 C1041 1.327 . S
C1041 H1035 0.950 1_655 S
C1041 C1040 1.327 . S
C1041 C1045 1.429 . S
C1042 C1025 1.574 . S
C1042 H1036 0.949 . S
C1042 C1046 1.368 . S
C1043 C1024 1.429 . S
C1043 C1037 1.429 . S
C1043 C1044 1.523 . S
C1044 C1025 1.368 . S
C1044 C1038 1.368 . S
C1044 C1043 1.523 . S
C1045 C1029 1.429 . S
C1045 C1041 1.429 . S
C1045 C1046 1.523 . S
C1046 C1030 1.368 . S
C1046 C1042 1.368 . S
C1046 C1045 1.523 . S
H1047 C1022 0.950 1_455 S
H1048 C1024 0.950 1_455 S
H1049 C1025 0.949 . S
H1050 C1027 0.950 . S
H1051 C1029 0.950 . S
C1052 C1053 1.349 . S
C1052 C1054 1.327 . S
C1052 H1077 0.950 . S
C1053 C1052 1.349 . S
C1053 C1069 1.349 . S
C1054 C1052 1.327 . S
C1054 C1073 1.429 . S
C1054 H1078 0.950 . S
C1055 C1072 1.574 . S
C1055 C1074 1.368 . S
C1055 H1079 0.949 . S
H1056 C1060 0.949 . S
C1057 C1058 1.349 . S
C1057 C1059 1.327 . S
C1057 H1080 0.950 . S
C1058 C1057 1.349 . S
C1058 C1070 1.349 . S
C1059 C1057 1.327 . S
C1059 C1075 1.429 . S
C1059 H1081 0.950 . S
C1060 H1056 0.949 . S
C1060 C1068 1.574 . S
C1060 C1076 1.368 . S
H1061 C1069 0.950 . S
H1062 C1067 0.950 . S
H1063 C1068 0.949 . S
H1064 C1070 0.950 . S
H1065 C1071 0.950 . S
H1066 C1072 0.949 . S
C1067 H1062 0.950 . S
C1067 C1069 1.327 . S
C1067 C1073 1.429 . S
C1068 C1060 1.574 . S
C1068 H1063 0.949 . S
C1068 C1074 1.368 . S
C1069 C1053 1.349 . S
C1069 H1061 0.950 . S
C1069 C1067 1.327 . S
C1070 C1058 1.349 . S
C1070 H1064 0.950 . S
C1070 C1071 1.327 . S
C1071 H1065 0.950 . S
C1071 C1070 1.327 . S
C1071 C1075 1.429 . S
C1072 C1055 1.574 . S
C1072 H1066 0.949 . S
C1072 C1076 1.368 . S
C1073 C1054 1.429 . S
C1073 C1067 1.429 . S
C1073 C1074 1.523 . S
C1074 C1055 1.368 . S
C1074 C1068 1.368 . S
C1074 C1073 1.523 . S
C1075 C1059 1.429 . S
C1075 C1071 1.429 . S
C1075 C1076 1.523 . S
C1076 C1060 1.368 . S
C1076 C1072 1.368 . S
C1076 C1075 1.523 . S
H1077 C1052 0.950 . S
H1078 C1054 0.950 . S
H1079 C1055 0.949 . S
H1080 C1057 0.950 . S
H1081 C1059 0.950 . S
C1082 C1083 1.349 . S
C1082 C1084 1.327 . S
C1082 H1107 0.950 . S
C1083 C1082 1.349 . S
C1083 C1099 1.349 . S
C1084 C1082 1.327 . S
C1084 C1103 1.429 . S
C1084 H1108 0.950 . S
C1085 C1102 1.574 . S
C1085 C1104 1.368 . S
C1085 H1109 0.949 . S
H1086 C1090 0.949 . S
C1087 C1088 1.349 . S
C1087 C1089 1.327 . S
C1087 H1110 0.950 . S
C1088 C1087 1.349 . S
C1088 C1100 1.349 . S
C1089 C1087 1.327 . S
C1089 C1105 1.429 . S
C1089 H1111 0.950 . S
C1090 H1086 0.949 . S
C1090 C1098 1.574 . S
C1090 C1106 1.368 . S
H1091 C1099 0.950 . S
H1092 C1097 0.950 . S
H1093 C1098 0.949 . S
H1094 C1100 0.950 . S
H1095 C1101 0.950 . S
H1096 C1102 0.949 . S
C1097 H1092 0.950 . S
C1097 C1099 1.327 . S
C1097 C1103 1.429 . S
C1098 C1090 1.574 . S
C1098 H1093 0.949 . S
C1098 C1104 1.368 . S
C1099 C1083 1.349 . S
C1099 H1091 0.950 . S
C1099 C1097 1.327 . S
C1100 C1088 1.349 . S
C1100 H1094 0.950 . S
C1100 C1101 1.327 . S
C1101 H1095 0.950 . S
C1101 C1100 1.327 . S
C1101 C1105 1.429 . S
C1102 C1085 1.574 . S
C1102 H1096 0.949 . S
C1102 C1106 1.368 . S
C1103 C1084 1.429 . S
C1103 C1097 1.429 . S
C1103 C1104 1.523 . S
C1104 C1085 1.368 . S
C1104 C1098 1.368 . S
C1104 C1103 1.523 . S
C1105 C1089 1.429 . S
C1105 C1101 1.429 . S
C1105 C1106 1.523 . S
C1106 C1090 1.368 . S
C1106 C1102 1.368 . S
C1106 C1105 1.523 . S
H1107 C1082 0.950 . S
H1108 C1084 0.950 . S
H1109 C1085 0.949 . S
H1110 C1087 0.950 . S
H1111 C1089 0.950 . S
C273 C171 1.933 . S
C278 C6 2.018 . S
C303 C139 1.933 . S
C308 C40 2.018 . S
C333 C239 1.933 . S
C338 C96 2.018 . S
C363 C130 2.018 . S
C368 C205 1.933 . S
C393 C142 2.018 . S
C398 C37 1.933 . S
C423 C3 1.933 . S
C428 C198 2.018 . S
C453 C232 2.018 . S
C458 C103 1.933 . S
C483 C266 2.018 . S
C488 C69 1.933 . S
C513 C28 0.435 . S
C518 C74 0.435 . S
C543 C108 0.435 . S
C548 C62 0.435 . S
C573 C210 0.435 . S
C578 C164 0.435 . S
C603 C176 0.435 . S
C608 C244 0.435 . S
C633 C15 2.204 . S
C638 C49 2.204 . S
C663 C124 2.204 . S
C668 C90 2.204 . S
C693 C151 2.204 . S
C698 C192 2.204 . S
C723 C260 2.204 . S
C728 C226 2.204 . S
C753 C219 0.983 . S
C758 C22 0.983 . S
C783 C56 0.983 . S
C788 C253 0.983 . S
C813 C83 0.983 . S
C818 C158 0.983 . S
C843 C117 0.983 . S
C848 C185 0.983 . S
C873 C241 1.790 . S
C878 C17 1.865 . S
C903 C207 1.790 . S
C908 C51 1.865 . S
C933 C85 1.865 . S
C938 C173 1.790 . S
C963 C119 1.865 . S
C968 C137 1.790 . S
C993 C153 1.865 . S
C998 C105 1.790 . S
C1023 C71 1.790 . S
C1028 C187 1.865 . S
C1053 C35 1.790 . S
C1058 C221 1.865 . S
C1083 C1 1.790 . S
C1088 C255 1.865 . S
