# Generated by pormake.
# Topology sxc, (6)-cn, num edge types: 1
# Building blocks:
#     Node 0, Type 0, BuildingBlock: BETDEL_clean_sbu_0, # of connection points: 6
#     Node 1, Type 0, BuildingBlock: BETDEL_clean_sbu_0, # of connection points: 6
#     Node 2, Type 0, BuildingBlock: BETDEL_clean_sbu_0, # of connection points: 6
#     Edge 3, Type (0, 0), BuildingBlock: FUNLAD_clean_linker_1, # of connection points: 2
#     Edge 4, Type (0, 0), BuildingBlock: FUNLAD_clean_linker_1, # of connection points: 2
#     Edge 5, Type (0, 0), BuildingBlock: FUNLAD_clean_linker_1, # of connection points: 2
#     Edge 6, Type (0, 0), BuildingBlock: FUNLAD_clean_linker_1, # of connection points: 2
#     Edge 7, Type (0, 0), BuildingBlock: FUNLAD_clean_linker_1, # of connection points: 2
#     Edge 8, Type (0, 0), BuildingBlock: FUNLAD_clean_linker_1, # of connection points: 2
#     Edge 9, Type (0, 0), BuildingBlock: FUNLAD_clean_linker_1, # of connection points: 2
#     Edge 10, Type (0, 0), BuildingBlock: FUNLAD_clean_linker_1, # of connection points: 2
#     Edge 11, Type (0, 0), BuildingBlock: FUNLAD_clean_linker_1, # of connection points: 2
# Relax obj value: 0.043
# Max RMSD: 0.047
# Mean RMSD: 0.036
data_MOF--net-sxc--node1-BETDEL_clean_sbu_0--edge1-FUNLAD_clean_linker_1
_symmetry_space_group_name_H-M    P1
_symmetry_Int_Tables_number       1
_symmetry_cell_setting            triclinic
loop_
_symmetry_equiv_pos_as_xyz
'x, y, z'
_cell_length_a     16.584404
_cell_length_b     16.111447
_cell_length_c     45.275753
_cell_angle_alpha  91.23979
_cell_angle_beta   94.206432
_cell_angle_gamma 113.93007
loop_
_atom_site_label
_atom_site_type_symbol
_atom_site_fract_x
_atom_site_fract_y
_atom_site_fract_z
_atom_type_partial_charge
Dy0 Dy 0.19343 0.07507 0.03041 0.0
C1 C 0.8365 0.85269 0.03089 0.0
C2 C 0.35964 0.19885 0.02294 0.0
Dy3 Dy 1.00464 0.97542 0.0253 0.0
O4 O 0.34009 0.1408 0.04345 0.0
O5 O 0.289 0.18752 1.00607 0.0
O6 O 0.20776 0.03079 0.07601 0.0
O7 O 0.09507 0.05505 0.06318 0.0
C8 C 0.13267 0.02704 0.08356 0.0
C9 C 0.06907 0.0199 0.97207 0.0
O10 O 1.00426 0.11065 0.03739 0.0
O11 O 0.14808 0.18933 0.02649 0.0
O12 O 0.85818 0.91485 0.01172 0.0
O13 O 0.90611 0.85914 0.04745 0.0
O14 O 0.99384 0.01821 0.97874 0.0
O15 O 0.10356 0.9926 0.9933 0.0
O16 O 0.19341 0.93902 0.01918 0.0
O17 O 0.04964 0.86121 0.03045 0.0
C18 C 0.07062 0.18781 0.03246 0.0
C19 C 0.12713 0.86228 0.02464 0.0
Dy20 Dy 0.91605 0.98738 0.35672 0.0
C21 C 0.26705 0.10255 0.32937 0.0
C22 C 0.76303 0.95618 0.3813 0.0
Dy23 Dy 0.10248 0.05486 0.34717 0.0
O24 O 0.76888 0.91969 0.35615 0.0
O25 O 0.84102 1.01015 0.39295 0.0
O26 O 0.87361 0.91715 0.31151 0.0
O27 O 0.98764 0.03982 0.31735 0.0
C28 C 0.94121 0.97386 0.29927 0.0
C29 C 0.07207 0.06034 0.40488 0.0
O30 O 0.0814 0.17843 0.33497 0.0
O31 O 0.95179 0.13915 0.35737 0.0
O32 O 0.2473 0.14154 0.35129 0.0
O33 O 0.19667 0.03583 0.31726 0.0
O34 O 0.13841 0.12169 0.39354 0.0
O35 O 1.02987 0.99743 0.38561 0.0
O36 O 0.93385 0.8597 0.36518 0.0
O37 O 0.06622 0.90293 0.34387 0.0
C38 C 1.01985 0.20031 0.34528 0.0
C39 C 0.9963 0.83964 0.35458 0.0
Dy40 Dy 1.03005 0.97772 0.68847 0.0
C41 C 0.23175 0.35318 0.68901 0.0
C42 C 0.9054 0.80407 0.69458 0.0
Dy43 Dy 0.10698 0.1792 0.69435 0.0
O44 O 0.96195 0.82736 0.6746 0.0
O45 O 0.92208 0.87413 0.7125 0.0
O46 O 0.07397 0.97746 0.64301 0.0
O47 O 1.03858 0.08266 0.65689 0.0
C48 C 0.0709 0.05426 0.63648 0.0
C49 C 0.06117 0.1024 0.74574 0.0
O50 O 0.96427 0.164 0.68383 0.0
O51 O 0.90742 1.00806 0.68762 0.0
O52 O 0.17678 0.32844 0.70945 0.0
O53 O 0.21324 0.28458 0.67023 0.0
O54 O 0.05489 0.1769 0.73827 0.0
O55 O 0.0977 0.07471 0.72639 0.0
O56 O 0.17269 0.99255 0.69841 0.0
O57 O 0.22949 0.14869 0.69549 0.0
C58 C 0.89525 0.08416 0.68504 0.0
C59 C 0.24165 0.07252 0.69762 0.0
H60 H 0.99264 0.26998 0.03792 0.0
C61 C 0.05785 0.27377 0.03395 0.0
H62 H 0.18823 0.35941 0.02534 0.0
H63 H 0.10035 0.67486 0.97258 0.0
H64 H 0.13415 0.61071 0.92877 0.0
H65 H 0.15728 0.46898 0.93047 0.0
H66 H 0.1459 0.39005 0.97595 0.0
C67 C 0.12355 0.35539 0.03017 0.0
C68 C 0.10933 0.44149 0.0296 0.0
C69 C 0.11804 0.48825 1.00298 0.0
C70 C 0.10625 0.57113 1.00211 0.0
C71 C 0.11143 0.61357 0.97482 0.0
C72 C 0.13013 0.57705 0.94939 0.0
C73 C 0.14305 0.4972 0.95034 0.0
C74 C 0.13668 0.45278 0.97667 0.0
H75 H 0.20482 0.77964 0.01967 0.0
C76 C 0.13972 0.77623 0.02361 0.0
H77 H 1.00919 0.69123 0.03228 0.0
H78 H 0.09622 0.37511 0.08511 0.0
H79 H 0.06286 0.4398 0.12892 0.0
H80 H 1.0398 0.58143 0.1272 0.0
H81 H 0.05106 0.66017 0.0817 0.0
C82 C 0.0738 0.69491 0.02752 0.0
C83 C 0.0876 0.6086 0.02808 0.0
C84 C 0.07883 0.56185 0.0547 0.0
C85 C 0.09056 0.47892 0.05556 0.0
C86 C 0.0853 0.4365 0.08286 0.0
C87 C 0.06677 0.47322 0.10829 0.0
C88 C 0.05392 0.5531 0.10733 0.0
C89 C 0.06025 0.59742 0.08099 0.0
H90 H 0.36383 0.06198 0.31082 0.0
C91 C 0.35678 0.11223 0.32563 0.0
H92 H 0.41336 0.20622 0.36237 0.0
H93 H 0.5076 0.88678 0.41061 0.0
H94 H 0.39462 0.88463 0.44227 0.0
H95 H 0.32133 0.98987 0.4352 0.0
H96 H 0.36041 0.09749 0.39652 0.0
C97 C 0.42154 0.15862 0.34675 0.0
C98 C 0.48266 0.11711 0.35632 0.0
C99 C 0.46069 0.05702 0.3798 0.0
C100 C 0.50307 0.99703 0.38406 0.0
C101 C 0.4779 0.9347 0.40675 0.0
C102 C 0.41303 0.93257 0.42498 0.0
C103 C 0.37169 0.99171 0.42097 0.0
C104 C 0.39469 0.0531 0.39862 0.0
H105 H 0.68958 1.01132 0.40766 0.0
C106 C 0.68251 0.96293 0.38948 0.0
H107 H 0.60816 0.89278 0.3502 0.0
H108 H 0.54808 0.23557 0.31318 0.0
H109 H 0.66734 0.24473 0.28327 0.0
H110 H 0.74261 0.14133 0.29062 0.0
H111 H 0.69896 0.02828 0.32747 0.0
C112 C 0.61305 0.9376 0.3692 0.0
C113 C 0.5679 0.99907 0.36519 0.0
C114 C 0.59447 0.06404 0.34316 0.0
C115 C 0.55164 0.1235 0.33884 0.0
C116 C 0.57857 0.18822 0.31694 0.0
C117 C 0.64697 0.19441 0.29979 0.0
C118 C 0.68935 0.13625 0.30394 0.0
C119 C 0.66356 0.07155 0.32525 0.0
H120 H 0.81371 0.66749 0.67535 0.0
C121 C 0.82127 0.72063 0.69188 0.0
H122 H 0.75713 0.77195 0.72105 0.0
H123 H 0.37059 0.58612 0.65992 0.0
H124 H 0.41157 0.74389 0.64897 0.0
H125 H 0.56531 0.85718 0.65974 0.0
H126 H 0.67896 0.81395 0.68189 0.0
C127 C 0.75047 0.71566 0.70597 0.0
C128 C 0.65824 0.64414 0.69799 0.0
C129 C 0.59155 0.67029 0.68531 0.0
C130 C 0.50236 0.60461 0.67901 0.0
C131 C 0.43859 0.63306 0.66568 0.0
C132 C 0.46135 0.7234 0.65907 0.0
C133 C 0.54793 0.78721 0.66513 0.0
C134 C 0.6125 0.76141 0.67801 0.0
H135 H 0.32448 0.48892 0.70857 0.0
C136 C 0.3163 0.43613 0.69182 0.0
H137 H 0.37962 0.38482 0.66231 0.0
H138 H 0.76673 0.57025 0.72351 0.0
H139 H 0.72592 0.41227 0.73417 0.0
H140 H 0.57235 0.29881 0.72313 0.0
H141 H 0.45861 0.34218 0.70112 0.0
C142 C 0.38674 0.44092 0.67755 0.0
C143 C 0.47911 0.51225 0.68542 0.0
C144 C 0.54587 0.48602 0.69799 0.0
C145 C 0.63503 0.55175 0.70436 0.0
C146 C 0.69879 0.52326 0.71767 0.0
C147 C 0.67613 0.43279 0.7241 0.0
C148 C 0.58963 0.3689 0.7179 0.0
C149 C 0.52502 0.39477 0.7051 0.0
H150 H 0.7529 1.00596 0.67124 0.0
C151 C 0.79922 0.07154 0.68124 0.0
H152 H 0.80791 0.19191 0.70328 0.0
H153 H 0.4271 0.17242 0.6579 0.0
H154 H 0.52503 0.30652 0.63541 0.0
H155 H 0.68592 0.3488 0.63865 0.0
H156 H 0.75 0.25588 0.6639 0.0
C157 C 0.7635 0.12649 0.69271 0.0
C158 C 0.6631 0.10049 0.69171 0.0
C159 C 0.62509 0.15631 0.6777 0.0
C160 C 0.53129 0.13334 0.67673 0.0
C161 C 0.4971 0.18818 0.66068 0.0
C162 C 0.55262 0.26504 0.64728 0.0
C163 C 0.64324 0.2888 0.64908 0.0
C164 C 0.67923 0.23501 0.66381 0.0
H165 H 0.38414 0.15064 0.71122 0.0
C166 C 0.33767 0.08503 0.70128 0.0
H167 H 0.32859 0.96432 0.67937 0.0
H168 H 0.70948 0.98354 0.72451 0.0
H169 H 0.61155 0.84949 0.74703 0.0
H170 H 0.45067 0.80728 0.74382 0.0
H171 H 0.38661 0.90025 0.71859 0.0
C172 C 0.37316 0.02982 0.68985 0.0
C173 C 0.47352 0.05565 0.69079 0.0
C174 C 0.51151 0.9998 0.70478 0.0
C175 C 0.60531 0.02276 0.70574 0.0
C176 C 0.63949 0.96786 0.72177 0.0
C177 C 0.58397 0.89102 0.73518 0.0
C178 C 0.49336 0.86729 0.7334 0.0
C179 C 0.45738 0.9211 0.71867 0.0
H180 H 0.69772 0.77408 0.01362 0.0
C181 C 0.75137 0.77374 0.02885 0.0
H182 H 0.79852 0.69499 0.05611 0.0
H183 H 0.40428 0.39248 0.06063 0.0
H184 H 0.42153 0.47141 0.10842 0.0
H185 H 0.55209 0.61442 0.12248 0.0
H186 H 0.66574 0.67975 0.08859 0.0
C187 C 0.74463 0.69686 0.04135 0.0
C188 C 0.66752 0.6101 0.03312 0.0
C189 C 0.60306 0.5722 0.05341 0.0
C190 C 0.52902 0.48894 0.04554 0.0
C191 C 0.46342 0.45416 0.06576 0.0
C192 C 0.47216 0.49915 0.09322 0.0
C193 C 0.54557 0.57974 0.10112 0.0
C194 C 0.61034 0.61638 0.08149 0.0
H195 H 0.49771 0.28344 0.03946 0.0
C196 C 0.44307 0.27964 0.02388 0.0
H197 H 0.39178 0.35169 0.99503 0.0
H198 H 0.78297 0.66215 0.98968 0.0
H199 H 0.76467 0.5841 0.94167 0.0
H200 H 0.63431 0.44081 0.92772 0.0
H201 H 0.52182 0.37441 0.96193 0.0
C202 C 0.4467 0.35376 1.01014 0.0
C203 C 0.52135 0.44292 0.01769 0.0
C204 C 0.58509 0.48149 0.99722 0.0
C205 C 0.65911 0.56483 1.00507 0.0
C206 C 0.72401 0.60024 0.98465 0.0
C207 C 0.71463 0.5558 0.95704 0.0
C208 C 0.64133 0.47506 0.9492 0.0
C209 C 0.57727 0.43776 0.96902 0.0
H210 H 0.08668 0.34125 0.33222 0.0
C211 C 1.02878 0.29493 0.34225 0.0
H212 H 0.91448 0.2826 0.36275 0.0
H213 H 0.07162 0.7029 0.4026 0.0
H214 H 0.07086 0.63469 0.44979 0.0
H215 H 1.03208 0.47024 0.452 0.0
H216 H 0.99449 0.3731 0.40701 0.0
C217 C 0.97113 0.32675 0.35171 0.0
C218 C 0.98843 0.4253 0.35007 0.0
C219 C 1.00811 0.48107 0.37659 0.0
C220 C 1.02877 0.57585 0.37534 0.0
C221 C 0.05234 0.6302 0.40221 0.0
C222 C 0.05297 0.59204 0.42949 0.0
C223 C 1.03129 0.49949 0.43074 0.0
C224 C 1.00958 0.44444 0.4047 0.0
H225 H 0.92853 0.69703 0.36581 0.0
C226 C 0.9865 0.7443 0.35605 0.0
H227 H 0.10072 0.75811 0.33519 0.0
H228 H 0.94587 0.33736 0.29499 0.0
H229 H 0.94734 0.40574 0.24777 0.0
H230 H 0.98552 0.57013 0.24557 0.0
H231 H 1.022 0.66708 0.29061 0.0
C232 C 0.044 0.71315 0.34603 0.0
C233 C 1.02751 0.61474 0.34753 0.0
C234 C 1.00815 0.55904 0.32099 0.0
C235 C 0.98764 0.46426 0.32225 0.0
C236 C 0.96478 0.41001 0.29537 0.0
C237 C 0.96461 0.44828 0.26808 0.0
C238 C 0.98597 0.54081 0.26684 0.0
C239 C 1.00701 0.59575 0.29289 0.0
H240 H 0.89414 0.91847 0.2533 0.0
C241 C 0.94816 0.97114 0.26689 0.0
H242 H 0.07113 0.08349 0.26722 0.0
H243 H 1.00916 0.85775 0.13469 0.0
H244 H 1.00653 0.72963 0.16233 0.0
H245 H 1.01634 0.73783 0.21703 0.0
H246 H 1.02616 0.87298 0.24432 0.0
C247 C 1.01786 0.02941 0.25383 0.0
C248 C 1.02128 0.02663 0.22077 0.0
C249 C 1.02096 0.94891 0.20517 0.0
C250 C 1.02162 0.94651 0.17365 0.0
C251 C 1.01403 0.86528 0.15863 0.0
C252 C 1.01163 0.79086 0.17421 0.0
C253 C 1.01668 0.7953 0.20499 0.0
C254 C 1.02145 0.87318 0.22039 0.0
H255 H 0.15929 1.00778 0.13052 0.0
C256 C 0.11217 0.01901 0.11492 0.0
H257 H 0.995 0.04081 0.11006 0.0
H258 H 1.01961 0.18506 0.24315 0.0
H259 H 1.02963 0.31572 0.21567 0.0
H260 H 1.04109 0.3154 0.1617 0.0
H261 H 1.04169 0.18424 0.13472 0.0
C262 C 1.04121 0.02658 0.12517 0.0
C263 C 1.0294 0.02427 0.15781 0.0
C264 C 1.03011 0.10201 0.17342 0.0
C265 C 1.02539 0.10291 0.20478 0.0
C266 C 1.02463 0.18105 0.21951 0.0
C267 C 1.03012 0.25658 0.204 0.0
C268 C 1.03647 0.25637 0.1736 0.0
C269 C 1.03659 0.18037 0.15838 0.0
H270 H 1.0084 0.99084 0.44382 0.0
C271 C 0.0607 0.05214 0.43698 0.0
H272 H 0.16837 0.17543 0.45104 0.0
H273 H 0.93484 0.04764 0.5699 0.0
H274 H 0.81827 0.07096 0.54078 0.0
H275 H 0.83417 0.11238 0.48875 0.0
H276 H 0.96624 0.1287 0.46532 0.0
C277 C 0.11413 0.11552 0.45774 0.0
C278 C 0.10797 0.10109 0.49026 0.0
C279 C 1.03236 0.09637 0.50421 0.0
C280 C 1.02522 0.07707 0.5348 0.0
C281 C 0.94599 0.06626 0.54731 0.0
C282 C 0.87804 0.07883 0.53074 0.0
C283 C 0.88684 0.10181 0.50141 0.0
C284 C 0.96285 0.11047 0.48818 0.0
H285 H 0.07486 0.15249 0.60229 0.0
C286 C 0.07842 0.08767 0.60608 0.0
H287 H 0.09172 0.97354 0.58739 0.0
H288 H 0.26259 0.10675 0.47088 0.0
H289 H 0.38267 0.09094 0.5005 0.0
H290 H 0.37449 0.06697 0.55402 0.0
H291 H 0.24559 0.05744 0.57816 0.0
C292 C 0.08674 0.03753 0.58316 0.0
C293 C 0.0958 0.06694 0.5519 0.0
C294 C 0.17289 0.07545 0.53815 0.0
C295 C 0.17863 0.09166 0.50738 0.0
C296 C 0.25522 0.09631 0.49422 0.0
C297 C 0.32471 0.08714 0.51096 0.0
C298 C 0.32001 0.07342 0.54107 0.0
C299 C 0.24532 0.06766 0.55462 0.0
H300 H 0.99917 0.08804 0.78747 0.0
C301 C 0.04715 0.07187 0.77621 0.0
H302 H 0.15212 0.02985 0.78207 0.0
H303 H 0.19777 0.17593 0.9183 0.0
H304 H 0.32714 0.29007 0.89937 0.0
H305 H 0.35141 0.28631 0.84635 0.0
H306 H 0.2457 0.1685 0.81185 0.0
C307 C 0.09852 0.03922 0.79202 0.0
C308 C 0.09183 0.03079 0.82477 0.0
C309 C 0.156 0.0976 0.845 0.0
C310 C 0.14292 0.0985 0.87582 0.0
C311 C 0.20544 0.16983 0.89497 0.0
C312 C 0.27988 0.23636 0.88434 0.0
C313 C 0.29347 0.23434 0.85448 0.0
C314 C 0.23229 0.16629 0.83492 0.0
H315 H 0.15429 1.0121 0.93758 0.0
C316 C 0.09527 0.02298 0.94135 0.0
H317 H 0.98563 0.04288 0.92192 0.0
H318 H 0.96207 0.8872 0.79275 0.0
H319 H 0.83464 0.76913 0.81171 0.0
H320 H 0.81277 0.76865 0.86503 0.0
H321 H 0.91786 0.88618 0.89974 0.0
C322 C 0.0465 0.03563 0.91816 0.0
C323 C 0.06674 0.03073 0.88658 0.0
C324 C 1.00504 0.96116 0.86648 0.0
C325 C 1.01757 0.96126 0.83566 0.0
C326 C 0.95493 0.89089 0.81626 0.0
C327 C 0.8818 0.8225 0.82687 0.0
C328 C 0.8695 0.82224 0.85689 0.0
C329 C 0.93018 0.8904 0.87657 0.0
loop_
_geom_bond_atom_site_label_1
_geom_bond_atom_site_label_2
_geom_bond_distance
_geom_bond_site_symmetry_2
_ccdc_geom_bond_type
Dy0 O4 2.398 . S
Dy0 O5 2.491 1_554 S
Dy0 O6 2.403 . S
Dy0 O7 2.664 1_545 S
Dy0 O11 2.326 . S
Dy0 O15 2.310 1_554 S
Dy0 O16 2.351 1_545 S
C1 O12 1.185 1_554 S
C1 O13 1.355 . S
C2 O4 1.185 . S
C2 O5 1.355 1_554 S
Dy3 O7 2.310 1_655 S
Dy3 O10 2.351 1_565 S
Dy3 O12 2.398 1_554 S
Dy3 O13 2.491 . S
Dy3 O14 2.403 1_554 S
Dy3 O15 2.664 1_664 S
Dy3 O17 2.322 1_554 S
O4 Dy0 2.398 . S
O4 C2 1.185 . S
O5 Dy0 2.491 1_556 S
O5 C2 1.355 1_556 S
O6 Dy0 2.403 . S
O6 C8 1.254 . S
O7 Dy0 2.664 1_565 S
O7 Dy3 2.310 1_455 S
O7 C8 1.268 1_565 S
C8 O6 1.254 . S
C8 O7 1.268 1_545 S
C9 O14 1.254 1_445 S
C9 O15 1.268 . S
O10 Dy3 2.351 1_545 S
O10 C18 1.249 1_655 S
O11 Dy0 2.326 . S
O11 C18 1.267 . S
O12 C1 1.185 1_556 S
O12 Dy3 2.398 1_556 S
O13 C1 1.355 . S
O13 Dy3 2.491 . S
O14 Dy3 2.403 1_556 S
O14 C9 1.254 1_665 S
O15 Dy0 2.310 1_556 S
O15 Dy3 2.664 1_446 S
O15 C9 1.268 . S
O16 Dy0 2.351 1_565 S
O16 C19 1.249 . S
O17 Dy3 2.322 1_556 S
O17 C19 1.259 1_656 S
C18 O10 1.249 1_455 S
C18 O11 1.267 . S
C19 O16 1.249 . S
C19 O17 1.259 1_454 S
Dy20 O24 2.398 . S
Dy20 O25 2.491 1_565 S
Dy20 O26 2.403 . S
Dy20 O27 2.664 1_665 S
Dy20 O31 2.326 1_565 S
Dy20 O35 2.310 1_565 S
Dy20 O36 2.351 . S
C21 O32 1.185 . S
C21 O33 1.355 . S
C22 O24 1.185 1_545 S
C22 O25 1.355 . S
Dy23 O27 2.310 . S
Dy23 O30 2.351 . S
Dy23 O32 2.398 . S
Dy23 O33 2.491 . S
Dy23 O34 2.403 . S
Dy23 O35 2.664 1_455 S
Dy23 O37 2.326 1_545 S
O24 Dy20 2.398 . S
O24 C22 1.185 1_565 S
O25 Dy20 2.491 1_545 S
O25 C22 1.355 . S
O26 Dy20 2.403 . S
O26 C28 1.254 1_565 S
O27 Dy20 2.664 1_445 S
O27 Dy23 2.310 . S
O27 C28 1.268 1_455 S
C28 O26 1.254 1_545 S
C28 O27 1.268 1_655 S
C29 O34 1.254 . S
C29 O35 1.268 1_455 S
O30 Dy23 2.351 . S
O30 C38 1.249 . S
O31 Dy20 2.326 1_545 S
O31 C38 1.267 1_655 S
O32 C21 1.185 . S
O32 Dy23 2.398 . S
O33 C21 1.355 . S
O33 Dy23 2.491 . S
O34 Dy23 2.403 . S
O34 C29 1.254 . S
O35 Dy20 2.310 1_545 S
O35 Dy23 2.664 1_655 S
O35 C29 1.268 1_655 S
O36 Dy20 2.351 . S
O36 C39 1.249 1_655 S
O37 Dy23 2.326 1_565 S
O37 C39 1.267 . S
C38 O30 1.249 . S
C38 O31 1.267 1_455 S
C39 O36 1.249 1_455 S
C39 O37 1.267 . S
Dy40 O44 2.398 . S
Dy40 O45 2.491 . S
Dy40 O46 2.403 . S
Dy40 O47 2.664 1_665 S
Dy40 O51 2.326 . S
Dy40 O55 2.310 1_565 S
Dy40 O56 2.351 1_655 S
C41 O52 1.185 . S
C41 O53 1.355 . S
C42 O44 1.185 . S
C42 O45 1.355 . S
Dy43 O47 2.310 . S
Dy43 O50 2.351 1_455 S
Dy43 O52 2.398 . S
Dy43 O53 2.491 . S
Dy43 O54 2.403 . S
Dy43 O55 2.664 1_455 S
Dy43 O57 2.326 . S
O44 Dy40 2.398 . S
O44 C42 1.185 . S
O45 Dy40 2.491 . S
O45 C42 1.355 . S
O46 Dy40 2.403 . S
O46 C48 1.254 1_665 S
O47 Dy40 2.664 1_445 S
O47 Dy43 2.310 . S
O47 C48 1.268 . S
C48 O46 1.254 1_445 S
C48 O47 1.268 . S
C49 O54 1.254 . S
C49 O55 1.268 1_455 S
O50 Dy43 2.351 1_655 S
O50 C58 1.249 . S
O51 Dy40 2.326 . S
O51 C58 1.267 1_565 S
O52 C41 1.185 . S
O52 Dy43 2.398 . S
O53 C41 1.355 . S
O53 Dy43 2.491 . S
O54 Dy43 2.403 . S
O54 C49 1.254 . S
O55 Dy40 2.310 1_545 S
O55 Dy43 2.664 1_655 S
O55 C49 1.268 1_655 S
O56 Dy40 2.351 1_455 S
O56 C59 1.249 1_565 S
O57 Dy43 2.326 . S
O57 C59 1.267 . S
C58 O50 1.249 . S
C58 O51 1.267 1_545 S
C59 O56 1.249 1_545 S
C59 O57 1.267 . S
H60 C61 0.951 1_655 S
C61 H60 0.951 1_455 S
C61 C67 1.265 . S
H62 C67 0.950 . S
H63 C71 0.949 . S
H64 C72 0.950 . S
H65 C73 0.951 . S
H66 C74 0.951 . S
C67 C61 1.265 . S
C67 H62 0.950 . S
C67 C68 1.478 . S
C68 C67 1.478 . S
C68 C69 1.397 1_554 S
C68 C85 1.394 . S
C69 C68 1.397 1_556 S
C69 C70 1.438 . S
C69 C74 1.429 . S
C70 C69 1.438 . S
C70 C71 1.428 . S
C70 C83 1.394 1_556 S
C71 H63 0.949 . S
C71 C70 1.428 . S
C71 C72 1.345 . S
C72 H64 0.950 . S
C72 C71 1.345 . S
C72 C73 1.424 . S
C73 H65 0.951 . S
C73 C72 1.424 . S
C73 C74 1.347 . S
C74 H66 0.951 . S
C74 C69 1.429 . S
C74 C73 1.347 . S
H75 C76 0.951 . S
C76 H75 0.951 . S
C76 C82 1.265 1_455 S
H77 C82 0.950 . S
H78 C86 0.949 . S
H79 C87 0.950 . S
H80 C88 0.951 . S
H81 C89 0.951 . S
C82 C76 1.265 1_655 S
C82 H77 0.950 . S
C82 C83 1.478 1_655 S
C83 C70 1.394 1_554 S
C83 C82 1.478 1_455 S
C83 C84 1.397 1_455 S
C84 C83 1.397 1_655 S
C84 C85 1.438 1_655 S
C84 C89 1.429 . S
C85 C68 1.394 . S
C85 C84 1.438 1_455 S
C85 C86 1.428 1_455 S
C86 H78 0.949 . S
C86 C85 1.428 1_655 S
C86 C87 1.345 . S
C87 H79 0.950 . S
C87 C86 1.345 . S
C87 C88 1.424 . S
C88 H80 0.951 . S
C88 C87 1.424 . S
C88 C89 1.347 . S
C89 H81 0.951 . S
C89 C84 1.429 . S
C89 C88 1.347 . S
H90 C91 0.951 . S
C91 H90 0.951 . S
C91 C97 1.265 1_565 S
H92 C97 0.950 . S
H93 C101 0.949 . S
H94 C102 0.950 . S
H95 C103 0.951 . S
H96 C104 0.951 . S
C97 C91 1.265 1_545 S
C97 H92 0.950 . S
C97 C98 1.478 . S
C98 C97 1.478 . S
C98 C99 1.397 . S
C98 C115 1.394 1_545 S
C99 C98 1.397 . S
C99 C100 1.438 . S
C99 C104 1.429 . S
C100 C99 1.438 . S
C100 C101 1.428 . S
C100 C113 1.394 . S
C101 H93 0.949 . S
C101 C100 1.428 . S
C101 C102 1.345 . S
C102 H94 0.950 . S
C102 C101 1.345 . S
C102 C103 1.424 . S
C103 H95 0.951 . S
C103 C102 1.424 . S
C103 C104 1.347 . S
C104 H96 0.951 . S
C104 C99 1.429 . S
C104 C103 1.347 . S
H105 C106 0.951 . S
C106 H105 0.951 . S
C106 C112 1.265 1_545 S
H107 C112 0.950 . S
H108 C116 0.949 . S
H109 C117 0.950 . S
H110 C118 0.951 . S
H111 C119 0.951 . S
C112 C106 1.265 1_565 S
C112 H107 0.950 . S
C112 C113 1.478 1_565 S
C113 C100 1.394 . S
C113 C112 1.478 1_545 S
C113 C114 1.397 1_545 S
C114 C113 1.397 1_565 S
C114 C115 1.438 . S
C114 C119 1.429 . S
C115 C98 1.394 1_565 S
C115 C114 1.438 . S
C115 C116 1.428 . S
C116 H108 0.949 . S
C116 C115 1.428 . S
C116 C117 1.345 . S
C117 H109 0.950 . S
C117 C116 1.345 . S
C117 C118 1.424 . S
C118 H110 0.951 . S
C118 C117 1.424 . S
C118 C119 1.347 . S
C119 H111 0.951 . S
C119 C114 1.429 . S
C119 C118 1.347 . S
H120 C121 0.951 . S
C121 H120 0.951 . S
C121 C127 1.265 . S
H122 C127 0.950 . S
H123 C131 0.949 . S
H124 C132 0.950 . S
H125 C133 0.951 . S
H126 C134 0.951 . S
C127 C121 1.265 . S
C127 H122 0.950 . S
C127 C128 1.478 . S
C128 C127 1.478 . S
C128 C129 1.397 . S
C128 C145 1.394 . S
C129 C128 1.397 . S
C129 C130 1.438 . S
C129 C134 1.429 . S
C130 C129 1.438 . S
C130 C131 1.428 . S
C130 C143 1.394 . S
C131 H123 0.949 . S
C131 C130 1.428 . S
C131 C132 1.345 . S
C132 H124 0.950 . S
C132 C131 1.345 . S
C132 C133 1.424 . S
C133 H125 0.951 . S
C133 C132 1.424 . S
C133 C134 1.347 . S
C134 H126 0.951 . S
C134 C129 1.429 . S
C134 C133 1.347 . S
H135 C136 0.951 . S
C136 H135 0.951 . S
C136 C142 1.265 . S
H137 C142 0.950 . S
H138 C146 0.949 . S
H139 C147 0.950 . S
H140 C148 0.951 . S
H141 C149 0.951 . S
C142 C136 1.265 . S
C142 H137 0.950 . S
C142 C143 1.478 . S
C143 C130 1.394 . S
C143 C142 1.478 . S
C143 C144 1.397 . S
C144 C143 1.397 . S
C144 C145 1.438 . S
C144 C149 1.429 . S
C145 C128 1.394 . S
C145 C144 1.438 . S
C145 C146 1.428 . S
C146 H138 0.949 . S
C146 C145 1.428 . S
C146 C147 1.345 . S
C147 H139 0.950 . S
C147 C146 1.345 . S
C147 C148 1.424 . S
C148 H140 0.951 . S
C148 C147 1.424 . S
C148 C149 1.347 . S
C149 H141 0.951 . S
C149 C144 1.429 . S
C149 C148 1.347 . S
H150 C151 0.951 1_565 S
C151 H150 0.951 1_545 S
C151 C157 1.265 . S
H152 C157 0.950 . S
H153 C161 0.949 . S
H154 C162 0.950 . S
H155 C163 0.951 . S
H156 C164 0.951 . S
C157 C151 1.265 . S
C157 H152 0.950 . S
C157 C158 1.478 . S
C158 C157 1.478 . S
C158 C159 1.397 . S
C158 C175 1.394 . S
C159 C158 1.397 . S
C159 C160 1.438 . S
C159 C164 1.429 . S
C160 C159 1.438 . S
C160 C161 1.428 . S
C160 C173 1.394 . S
C161 H153 0.949 . S
C161 C160 1.428 . S
C161 C162 1.345 . S
C162 H154 0.950 . S
C162 C161 1.345 . S
C162 C163 1.424 . S
C163 H155 0.951 . S
C163 C162 1.424 . S
C163 C164 1.347 . S
C164 H156 0.951 . S
C164 C159 1.429 . S
C164 C163 1.347 . S
H165 C166 0.951 . S
C166 H165 0.951 . S
C166 C172 1.274 . S
H167 C172 0.941 1_565 S
H168 C176 0.949 . S
H169 C177 0.950 . S
H170 C178 0.951 . S
H171 C179 0.951 . S
C172 C166 1.274 . S
C172 H167 0.941 1_545 S
C172 C173 1.477 . S
C173 C160 1.394 . S
C173 C172 1.477 . S
C173 C174 1.397 . S
C174 C173 1.397 . S
C174 C175 1.438 . S
C174 C179 1.429 1_545 S
C175 C158 1.394 . S
C175 C174 1.438 . S
C175 C176 1.428 . S
C176 H168 0.949 . S
C176 C175 1.428 . S
C176 C177 1.345 1_545 S
C177 H169 0.950 . S
C177 C176 1.345 1_565 S
C177 C178 1.424 . S
C178 H170 0.951 . S
C178 C177 1.424 . S
C178 C179 1.347 . S
C179 H171 0.951 . S
C179 C174 1.429 1_565 S
C179 C178 1.347 . S
H180 C181 0.951 . S
C181 H180 0.951 . S
C181 C187 1.265 . S
H182 C187 0.950 . S
H183 C191 0.949 . S
H184 C192 0.950 . S
H185 C193 0.951 . S
H186 C194 0.951 . S
C187 C181 1.265 . S
C187 H182 0.950 . S
C187 C188 1.478 . S
C188 C187 1.478 . S
C188 C189 1.397 . S
C188 C205 1.394 1_554 S
C189 C188 1.397 . S
C189 C190 1.438 . S
C189 C194 1.429 . S
C190 C189 1.438 . S
C190 C191 1.428 . S
C190 C203 1.394 . S
C191 H183 0.949 . S
C191 C190 1.428 . S
C191 C192 1.345 . S
C192 H184 0.950 . S
C192 C191 1.345 . S
C192 C193 1.424 . S
C193 H185 0.951 . S
C193 C192 1.424 . S
C193 C194 1.347 . S
C194 H186 0.951 . S
C194 C189 1.429 . S
C194 C193 1.347 . S
H195 C196 0.951 . S
C196 H195 0.951 . S
C196 C202 1.265 . S
H197 C202 0.950 . S
H198 C206 0.949 . S
H199 C207 0.950 . S
H200 C208 0.951 . S
H201 C209 0.951 . S
C202 C196 1.265 . S
C202 H197 0.950 . S
C202 C203 1.478 . S
C203 C190 1.394 . S
C203 C202 1.478 . S
C203 C204 1.397 1_554 S
C204 C203 1.397 1_556 S
C204 C205 1.438 . S
C204 C209 1.429 . S
C205 C188 1.394 1_556 S
C205 C204 1.438 . S
C205 C206 1.428 . S
C206 H198 0.949 . S
C206 C205 1.428 . S
C206 C207 1.345 . S
C207 H199 0.950 . S
C207 C206 1.345 . S
C207 C208 1.424 . S
C208 H200 0.951 . S
C208 C207 1.424 . S
C208 C209 1.347 . S
C209 H201 0.951 . S
C209 C204 1.429 . S
C209 C208 1.347 . S
H210 C211 0.951 . S
C211 H210 0.951 . S
C211 C217 1.265 1_455 S
H212 C217 0.950 . S
H213 C221 0.949 . S
H214 C222 0.950 . S
H215 C223 0.951 . S
H216 C224 0.951 . S
C217 C211 1.265 1_655 S
C217 H212 0.950 . S
C217 C218 1.478 . S
C218 C217 1.478 . S
C218 C219 1.397 . S
C218 C235 1.394 1_655 S
C219 C218 1.397 . S
C219 C220 1.435 . S
C219 C224 1.429 . S
C220 C219 1.435 . S
C220 C221 1.434 . S
C220 C233 1.390 1_655 S
C221 H213 0.949 . S
C221 C220 1.434 . S
C221 C222 1.345 . S
C222 H214 0.950 . S
C222 C221 1.345 . S
C222 C223 1.424 . S
C223 H215 0.951 . S
C223 C222 1.424 . S
C223 C224 1.347 . S
C224 H216 0.951 . S
C224 C219 1.429 . S
C224 C223 1.347 . S
H225 C226 0.951 1_655 S
C226 H225 0.951 1_455 S
C226 C232 1.265 . S
H227 C232 0.950 . S
H228 C236 0.949 . S
H229 C237 0.950 . S
H230 C238 0.951 . S
H231 C239 0.951 . S
C232 C226 1.265 . S
C232 H227 0.950 . S
C232 C233 1.478 . S
C233 C220 1.390 1_455 S
C233 C232 1.478 . S
C233 C234 1.397 . S
C234 C233 1.397 . S
C234 C235 1.438 . S
C234 C239 1.429 . S
C235 C218 1.394 1_455 S
C235 C234 1.438 . S
C235 C236 1.428 . S
C236 H228 0.949 . S
C236 C235 1.428 . S
C236 C237 1.345 . S
C237 H229 0.950 . S
C237 C236 1.345 . S
C237 C238 1.424 . S
C238 H230 0.951 . S
C238 C237 1.424 . S
C238 C239 1.347 . S
C239 H231 0.951 . S
C239 C234 1.429 . S
C239 C238 1.347 . S
H240 C241 0.951 1_655 S
C241 H240 0.951 1_455 S
C241 C247 1.265 . S
H242 C247 0.950 1_565 S
H243 C251 0.949 . S
H244 C252 0.950 . S
H245 C253 0.951 . S
H246 C254 0.951 . S
C247 C241 1.265 . S
C247 H242 0.950 1_545 S
C247 C248 1.478 . S
C248 C247 1.478 . S
C248 C249 1.397 1_545 S
C248 C265 1.394 . S
C249 C248 1.397 1_565 S
C249 C250 1.438 . S
C249 C254 1.429 . S
C250 C249 1.438 . S
C250 C251 1.428 1_455 S
C250 C263 1.394 1_565 S
C251 H243 0.949 . S
C251 C250 1.428 1_655 S
C251 C252 1.345 . S
C252 H244 0.950 . S
C252 C251 1.345 . S
C252 C253 1.424 1_655 S
C253 H245 0.951 . S
C253 C252 1.424 1_455 S
C253 C254 1.347 . S
C254 H246 0.951 . S
C254 C249 1.429 . S
C254 C253 1.347 . S
H255 C256 0.951 . S
C256 H255 0.951 . S
C256 C262 1.265 1_455 S
H257 C262 0.950 . S
H258 C266 0.949 . S
H259 C267 0.950 . S
H260 C268 0.951 . S
H261 C269 0.951 . S
C262 C256 1.265 1_655 S
C262 H257 0.950 . S
C262 C263 1.478 1_655 S
C263 C250 1.394 1_545 S
C263 C262 1.478 1_455 S
C263 C264 1.397 . S
C264 C263 1.397 . S
C264 C265 1.438 . S
C264 C269 1.429 . S
C265 C248 1.394 . S
C265 C264 1.438 . S
C265 C266 1.428 . S
C266 H258 0.949 . S
C266 C265 1.428 . S
C266 C267 1.345 . S
C267 H259 0.950 . S
C267 C266 1.345 . S
C267 C268 1.424 . S
C268 H260 0.951 . S
C268 C267 1.424 . S
C268 C269 1.347 . S
C269 H261 0.951 . S
C269 C264 1.429 . S
C269 C268 1.347 . S
H270 C271 0.951 1_655 S
C271 H270 0.951 1_455 S
C271 C277 1.265 . S
H272 C277 0.950 . S
H273 C281 0.949 . S
H274 C282 0.950 . S
H275 C283 0.951 . S
H276 C284 0.951 . S
C277 C271 1.265 . S
C277 H272 0.950 . S
C277 C278 1.478 . S
C278 C277 1.478 . S
C278 C279 1.397 . S
C278 C295 1.394 1_445 S
C279 C278 1.397 . S
C279 C280 1.438 . S
C279 C284 1.429 . S
C280 C279 1.438 . S
C280 C281 1.428 . S
C280 C293 1.392 1_455 S
C281 H273 0.949 . S
C281 C280 1.428 . S
C281 C282 1.345 . S
C282 H274 0.950 . S
C282 C281 1.345 . S
C282 C283 1.424 . S
C283 H275 0.951 . S
C283 C282 1.424 . S
C283 C284 1.347 . S
C284 H276 0.951 . S
C284 C279 1.429 . S
C284 C283 1.347 . S
H285 C286 0.951 . S
C286 H285 0.951 . S
C286 C292 1.265 1_455 S
H287 C292 0.950 . S
H288 C296 0.949 . S
H289 C297 0.950 . S
H290 C298 0.951 . S
H291 C299 0.951 . S
C292 C286 1.265 1_655 S
C292 H287 0.950 . S
C292 C293 1.479 . S
C293 C280 1.392 1_655 S
C293 C292 1.479 . S
C293 C294 1.398 1_545 S
C294 C293 1.398 1_565 S
C294 C295 1.438 . S
C294 C299 1.429 . S
C295 C278 1.394 1_665 S
C295 C294 1.438 . S
C295 C296 1.428 . S
C296 H288 0.949 . S
C296 C295 1.428 . S
C296 C297 1.345 . S
C297 H289 0.950 . S
C297 C296 1.345 . S
C297 C298 1.424 . S
C298 H290 0.951 . S
C298 C297 1.424 . S
C298 C299 1.347 . S
C299 H291 0.951 . S
C299 C294 1.429 . S
C299 C298 1.347 . S
H300 C301 0.951 1_655 S
C301 H300 0.951 1_455 S
C301 C307 1.265 . S
H302 C307 0.950 . S
H303 C311 0.949 . S
H304 C312 0.950 . S
H305 C313 0.951 . S
H306 C314 0.951 . S
C307 C301 1.265 . S
C307 H302 0.950 . S
C307 C308 1.478 . S
C308 C307 1.478 . S
C308 C309 1.397 . S
C308 C325 1.394 1_445 S
C309 C308 1.397 . S
C309 C310 1.438 . S
C309 C314 1.429 . S
C310 C309 1.438 . S
C310 C311 1.428 . S
C310 C323 1.394 . S
C311 H303 0.949 . S
C311 C310 1.428 . S
C311 C312 1.345 . S
C312 H304 0.950 . S
C312 C311 1.345 . S
C312 C313 1.424 . S
C313 H305 0.951 . S
C313 C312 1.424 . S
C313 C314 1.347 . S
C314 H306 0.951 . S
C314 C309 1.429 . S
C314 C313 1.347 . S
H315 C316 0.951 . S
C316 H315 0.951 . S
C316 C322 1.265 1_455 S
H317 C322 0.950 . S
H318 C326 0.949 . S
H319 C327 0.950 . S
H320 C328 0.951 . S
H321 C329 0.951 . S
C322 C316 1.265 1_655 S
C322 H317 0.950 . S
C322 C323 1.478 1_655 S
C323 C310 1.394 . S
C323 C322 1.478 1_455 S
C323 C324 1.397 1_445 S
C324 C323 1.397 1_665 S
C324 C325 1.438 . S
C324 C329 1.429 . S
C325 C308 1.394 1_665 S
C325 C324 1.438 . S
C325 C326 1.428 . S
C326 H318 0.949 . S
C326 C325 1.428 . S
C326 C327 1.345 . S
C327 H319 0.950 . S
C327 C326 1.345 . S
C327 C328 1.424 . S
C328 H320 0.951 . S
C328 C327 1.424 . S
C328 C329 1.347 . S
C329 H321 0.951 . S
C329 C324 1.429 . S
C329 C328 1.347 . S
C61 C18 1.845 . S
C76 C19 1.845 . S
C91 C21 0.745 1_565 S
C106 C22 0.745 . S
C121 C42 1.139 . S
C136 C41 1.139 . S
C151 C58 2.408 . S
C166 C59 2.408 . S
C181 C1 1.105 . S
C196 C2 1.105 . S
C211 C38 1.840 . S
C226 C39 1.840 . S
C241 C28 1.422 1_455 S
C256 C8 1.421 . S
C271 C29 1.483 . S
C286 C48 1.434 . S
C301 C49 1.459 . S
C316 C9 1.490 . S
