# Generated by pormake.
# Topology dia, (4)-cn, num edge types: 1
# Building blocks:
#     Node 0, Type 0, BuildingBlock: KUFVIS_clean_sbu_0, # of connection points: 4
#     Node 1, Type 0, BuildingBlock: KUFVIS_clean_sbu_0, # of connection points: 4
#     Node 2, Type 0, BuildingBlock: KUFVIS_clean_sbu_0, # of connection points: 4
#     Node 3, Type 0, BuildingBlock: KUFVIS_clean_sbu_0, # of connection points: 4
#     Node 4, Type 0, BuildingBlock: KUFVIS_clean_sbu_0, # of connection points: 4
#     Node 5, Type 0, BuildingBlock: KUFVIS_clean_sbu_0, # of connection points: 4
#     Node 6, Type 0, BuildingBlock: KUFVIS_clean_sbu_0, # of connection points: 4
#     Node 7, Type 0, BuildingBlock: KUFVIS_clean_sbu_0, # of connection points: 4
#     Edge 8, Type (0, 0), BuildingBlock: CIFDUS_clean_linker_0, # of connection points: 2
#     Edge 9, Type (0, 0), BuildingBlock: CIFDUS_clean_linker_0, # of connection points: 2
#     Edge 10, Type (0, 0), BuildingBlock: CIFDUS_clean_linker_0, # of connection points: 2
#     Edge 11, Type (0, 0), BuildingBlock: CIFDUS_clean_linker_0, # of connection points: 2
#     Edge 12, Type (0, 0), BuildingBlock: CIFDUS_clean_linker_0, # of connection points: 2
#     Edge 13, Type (0, 0), BuildingBlock: CIFDUS_clean_linker_0, # of connection points: 2
#     Edge 14, Type (0, 0), BuildingBlock: CIFDUS_clean_linker_0, # of connection points: 2
#     Edge 15, Type (0, 0), BuildingBlock: CIFDUS_clean_linker_0, # of connection points: 2
#     Edge 16, Type (0, 0), BuildingBlock: CIFDUS_clean_linker_0, # of connection points: 2
#     Edge 17, Type (0, 0), BuildingBlock: CIFDUS_clean_linker_0, # of connection points: 2
#     Edge 18, Type (0, 0), BuildingBlock: CIFDUS_clean_linker_0, # of connection points: 2
#     Edge 19, Type (0, 0), BuildingBlock: CIFDUS_clean_linker_0, # of connection points: 2
#     Edge 20, Type (0, 0), BuildingBlock: CIFDUS_clean_linker_0, # of connection points: 2
#     Edge 21, Type (0, 0), BuildingBlock: CIFDUS_clean_linker_0, # of connection points: 2
#     Edge 22, Type (0, 0), BuildingBlock: CIFDUS_clean_linker_0, # of connection points: 2
#     Edge 23, Type (0, 0), BuildingBlock: CIFDUS_clean_linker_0, # of connection points: 2
# Relax obj value: 0.070
# Max RMSD: 0.124
# Mean RMSD: 0.124
data_MOF--net-dia--node1-KUFVIS_clean_sbu_0--edge1-CIFDUS_clean_linker_0
_symmetry_space_group_name_H-M    P1
_symmetry_Int_Tables_number       1
_symmetry_cell_setting            triclinic
loop_
_symmetry_equiv_pos_as_xyz
'x, y, z'
_cell_length_a     32.777693
_cell_length_b     28.256899
_cell_length_c     28.241812
_cell_angle_alpha  91.705609
_cell_angle_beta   91.457203
_cell_angle_gamma 91.456374
loop_
_atom_site_label
_atom_site_type_symbol
_atom_site_fract_x
_atom_site_fract_y
_atom_site_fract_z
_atom_type_partial_charge
Mn0 Mn 0.14215 0.15524 0.63428 0.0
Mn1 Mn 0.17671 0.0596 0.57388 0.0
C2 C 0.10244 0.11785 0.57475 0.0
C3 C 0.10763 0.19018 0.69713 0.0
C4 C 0.20678 0.15972 0.5576 0.0
O5 O 0.18788 0.13256 0.67802 0.0
O6 O 0.20584 0.06759 0.6359 0.0
C7 C 0.14808 0.98402 0.63646 0.0
N8 N 0.14885 1.0033 0.59285 0.0
C9 C 0.1078 0.93862 0.55852 0.0
C10 C 0.10669 0.91799 0.60303 0.0
C11 C 0.12682 0.94087 0.64218 0.0
C12 C 0.12954 0.98162 0.55495 0.0
H13 H 0.16356 1.00144 0.66663 0.0
C14 C 0.20886 0.09529 0.67267 0.0
O15 O 0.1353 0.21344 0.67461 0.0
O16 O 0.10077 0.14618 0.68422 0.0
N17 N 0.15006 0.04765 0.51343 0.0
C18 C 0.15131 0.07412 0.47392 0.0
C19 C 0.13109 0.05727 0.43209 0.0
C20 C 0.11012 1.01325 0.43119 0.0
C21 C 0.10946 0.98652 0.47221 0.0
C22 C 0.13022 1.00509 0.51285 0.0
H23 H 0.16744 0.10793 0.4744 0.0
O24 O 0.0962 0.16179 0.58659 0.0
O25 O 0.13193 0.09783 0.59727 0.0
O26 O 0.18374 0.17991 0.58735 0.0
O27 O 0.20723 0.11496 0.55058 0.0
C28 C 0.08822 0.94271 0.47469 0.0
C29 C 0.08735 0.9188 0.51783 0.0
H30 H 0.09014 0.88486 0.60766 0.0
H31 H 0.12595 0.92527 0.67669 0.0
H32 H 0.13159 0.07819 0.40062 0.0
H33 H 0.09425 1.00057 0.39898 0.0
H34 H 0.07177 0.92755 0.44388 0.0
H35 H 0.07024 0.88562 0.51952 0.0
Mn36 Mn 0.90667 0.38973 0.8787 0.0
Mn37 Mn 0.87053 0.44971 0.97372 0.0
C38 C 0.94586 0.44905 0.9172 0.0
C39 C 0.9417 0.32755 0.84345 0.0
C40 C 0.84229 0.46665 0.873 0.0
O41 O 0.86065 0.34582 0.90027 0.0
O42 O 0.84085 0.38797 0.96447 0.0
C43 C 0.89725 0.38617 0.0494 0.0
N44 N 0.8972 0.42995 0.0305 0.0
C45 C 0.93789 0.46312 0.09608 0.0
C46 C 0.93824 0.41841 0.11633 0.0
C47 C 0.91792 0.37977 0.09282 0.0
C48 C 0.91668 0.46738 0.05281 0.0
H49 H 0.88167 0.35637 0.03147 0.0
C50 C 0.83846 0.35128 0.93658 0.0
O51 O 0.91411 0.35016 0.82021 0.0
O52 O 0.94815 0.33984 0.88772 0.0
N53 N 0.89742 0.50979 0.98686 0.0
C54 C 0.89684 0.54959 0.9608 0.0
C55 C 0.91725 0.59101 0.97838 0.0
C56 C 0.93774 0.5912 0.02268 0.0
C57 C 0.93769 0.5499 0.049 0.0
C58 C 0.91673 0.50971 0.02973 0.0
H59 H 0.88112 0.54966 0.92673 0.0
O60 O 0.95258 0.43758 0.87326 0.0
O61 O 0.91612 0.42633 0.93662 0.0
O62 O 0.86533 0.43652 0.85351 0.0
O63 O 0.84133 0.47388 0.91775 0.0
C64 C 0.95844 0.5467 0.09306 0.0
C65 C 0.95858 0.50333 0.11656 0.0
H66 H 0.95434 0.41325 0.14968 0.0
H67 H 0.91821 0.34512 0.10813 0.0
H68 H 0.91729 0.62269 0.95778 0.0
H69 H 0.95378 0.62308 0.03591 0.0
H70 H 0.97505 0.57714 0.10875 0.0
H71 H 0.97528 0.50109 0.14997 0.0
Mn72 Mn 0.63162 0.14037 0.14192 0.0
Mn73 Mn 0.67752 0.06206 0.06854 0.0
C74 C 0.59672 0.10488 0.07708 0.0
C75 C 0.59242 0.16253 0.20693 0.0
C76 C 0.69339 0.16748 0.06618 0.0
O77 O 0.67997 0.11923 0.18293 0.0
O78 O 0.70801 0.06911 0.12974 0.0
C79 C 0.6618 0.97618 0.12361 0.0
N80 N 0.65835 0.99962 0.08231 0.0
C81 C 0.62331 0.93275 0.04349 0.0
C82 C 0.62667 0.90783 0.08555 0.0
C83 C 0.6459 0.9297 0.12581 0.0
C84 C 0.63962 0.97903 0.04347 0.0
H85 H 0.67651 0.99284 0.15467 0.0
C86 C 0.7074 0.09015 0.17051 0.0
O87 O 0.61814 0.19173 0.18842 0.0
O88 O 0.59075 0.11948 0.18931 0.0
N89 N 0.65075 0.05134 1.00799 0.0
C90 C 0.64906 0.08067 0.97058 0.0
C91 C 0.63065 0.06421 0.92753 0.0
C92 C 0.61453 0.0177 0.92325 0.0
C93 C 0.61701 0.98802 0.96208 0.0
C94 C 0.636 1.00625 1.00395 0.0
H95 H 0.66162 0.11636 0.97356 0.0
O96 O 0.58516 0.14536 0.09433 0.0
O97 O 0.62854 0.08742 0.09734 0.0
O98 O 0.67011 0.17767 0.10025 0.0
O99 O 0.69842 0.12517 0.05079 0.0
C100 C 0.60094 0.94126 0.96105 0.0
C101 C 0.6039 0.91373 1.0018 0.0
H102 H 0.61439 0.872 0.08742 0.0
H103 H 0.64846 0.91077 0.15846 0.0
H104 H 0.62882 0.08735 0.89774 0.0
H105 H 0.60003 1.00527 0.89014 0.0
H106 H 0.58577 0.92634 0.92929 0.0
H107 H 0.59095 0.87805 1.00077 0.0
Mn108 Mn 0.91162 0.90129 0.37876 0.0
Mn109 Mn 0.87145 0.96164 0.47126 0.0
C110 C 0.94397 0.96935 0.41003 0.0
C111 C 0.95417 0.84318 0.34801 0.0
C112 C 0.83949 0.96821 0.37048 0.0
O113 O 0.87145 0.85255 0.40484 0.0
O114 O 0.8483 0.89623 0.46603 0.0
C115 C 0.90592 0.90664 0.54975 0.0
N116 N 0.90074 0.94884 0.52863 0.0
C117 C 0.93535 0.99126 0.59368 0.0
C118 C 0.94094 0.94826 0.61622 0.0
C119 C 0.92634 0.90575 0.59403 0.0
C120 C 0.91495 0.98991 0.54949 0.0
H121 H 0.89445 0.87394 0.533 0.0
C122 C 0.84919 0.85769 0.44107 0.0
O123 O 0.92357 0.85853 0.32329 0.0
O124 O 0.95892 0.85992 0.39109 0.0
N125 N 0.89156 0.02543 0.48102 0.0
C126 C 0.88655 0.06327 0.45283 0.0
C127 C 0.90171 0.10811 0.46851 0.0
C128 C 0.92128 0.11372 0.51324 0.0
C129 C 0.92564 0.07436 0.54185 0.0
C130 C 0.91011 0.0305 0.52424 0.0
H131 H 0.87134 0.05917 0.41853 0.0
O132 O 0.95087 0.95477 0.36705 0.0
O133 O 0.9185 0.94371 0.43354 0.0
O134 O 0.86436 0.93956 0.35162 0.0
O135 O 0.83931 0.97834 0.41475 0.0
C136 C 0.94541 0.07676 0.58679 0.0
C137 C 0.9501 0.03527 0.61279 0.0
H138 H 0.95675 0.94741 0.65032 0.0
H139 H 0.93068 0.87241 0.61113 0.0
H140 H 0.89826 0.13831 0.44621 0.0
H141 H 0.93305 0.14834 0.52513 0.0
H142 H 0.95772 0.11019 0.60135 0.0
H143 H 0.966 0.03742 0.6469 0.0
Mn144 Mn 0.13742 0.64695 0.13244 0.0
Mn145 Mn 0.17813 0.55472 0.07241 0.0
C146 C 0.10472 0.61451 0.06509 0.0
C147 C 0.0951 0.67851 0.19035 0.0
C148 C 0.20854 0.65583 0.06399 0.0
O149 O 0.17824 0.62196 0.18106 0.0
O150 O 0.20271 0.56156 0.1373 0.0
C151 C 0.14579 0.47685 0.1298 0.0
N152 N 0.14992 0.49717 0.08701 0.0
C153 C 0.11458 0.43133 0.04677 0.0
C154 C 0.11009 0.4096 0.09039 0.0
C155 C 0.1256 0.43257 0.1321 0.0
C156 C 0.13483 0.47555 0.04671 0.0
H157 H 0.15789 0.49426 0.1619 0.0
C158 C 0.20167 0.58679 0.17571 0.0
O159 O 0.12557 0.70296 0.17436 0.0
O160 O 0.09044 0.6351 0.17453 0.0
N161 N 0.15698 0.54339 1.00919 0.0
C162 C 0.16118 0.57073 0.97059 0.0
C163 C 0.1453 0.55403 0.92637 0.0
C164 C 0.12584 0.50917 0.92217 0.0
C165 C 0.12237 0.48142 0.96228 0.0
C166 C 0.13865 0.49999 1.00545 0.0
H167 H 0.17628 0.60514 0.97359 0.0
O168 O 0.09769 0.65759 0.07918 0.0
O169 O 0.13064 0.59157 0.09072 0.0
O170 O 0.18414 0.67417 0.0935 0.0
O171 O 0.20892 0.61159 0.05381 0.0
C172 C 0.10275 0.43643 0.96129 0.0
C173 C 0.09897 0.41133 1.00349 0.0
H174 H 0.09445 0.3755 0.09233 0.0
H175 H 0.1221 0.41611 0.16592 0.0
H176 H 0.14809 0.57566 0.89558 0.0
H177 H 0.11348 0.49651 0.88804 0.0
H178 H 0.08984 0.42116 0.92844 0.0
H179 H 0.08317 0.37717 1.00243 0.0
Mn180 Mn 0.41506 0.39028 0.3881 0.0
Mn181 Mn 0.36918 0.46367 0.46624 0.0
C182 C 0.45005 0.45542 0.42331 0.0
C183 C 0.45441 0.32524 0.36647 0.0
C184 C 0.35218 0.46483 0.36078 0.0
O185 O 0.36681 0.34918 0.40951 0.0
O186 O 0.33911 0.40207 0.46019 0.0
C187 C 0.38597 0.40996 0.55277 0.0
N188 N 0.38907 0.45089 0.52868 0.0
C189 C 0.42505 0.49057 0.59443 0.0
C190 C 0.42206 0.4489 0.62001 0.0
C191 C 0.40252 0.40841 0.59903 0.0
C192 C 0.40801 0.48998 0.54844 0.0
H193 H 0.37105 0.37871 0.53677 0.0
C194 C 0.33962 0.36134 0.43902 0.0
O195 O 0.42868 0.34343 0.33705 0.0
O196 O 0.45607 0.34326 0.40937 0.0
N197 N 0.39578 0.52443 0.47579 0.0
C198 C 0.3974 0.56122 0.44571 0.0
C199 C 0.41633 0.60431 0.46111 0.0
C200 C 0.4331 0.60924 0.50732 0.0
C201 C 0.43077 0.57101 0.53775 0.0
C202 C 0.41123 0.52907 0.52058 0.0
H203 H 0.38444 0.55768 0.41021 0.0
O204 O 0.46145 0.43804 0.3828 0.0
O205 O 0.41823 0.43517 0.4408 0.0
O206 O 0.37617 0.43144 0.3506 0.0
O207 O 0.34728 0.48039 0.40309 0.0
C208 C 0.44759 0.57265 0.5842 0.0
C209 C 0.44487 0.5324 0.61246 0.0
H210 H 0.4349 0.44751 0.65565 0.0
H211 H 0.40024 0.37606 0.61848 0.0
H212 H 0.41808 0.63363 0.43738 0.0
H213 H 0.44803 0.64237 0.51891 0.0
H214 H 0.46317 0.60448 0.59832 0.0
H215 H 0.45842 0.53388 0.64787 0.0
Mn216 Mn 0.40985 0.88236 0.88123 0.0
Mn217 Mn 0.37254 0.96161 0.96073 0.0
C218 C 0.44825 0.94874 0.90657 0.0
C219 C 0.44398 0.81424 0.85714 0.0
C220 C 0.34755 0.9584 0.85742 0.0
O221 O 0.3638 0.84422 0.91093 0.0
O222 O 0.34099 0.90089 0.96079 0.0
C223 C 0.39511 0.91113 0.04768 0.0
N224 N 0.39647 0.95103 0.02182 0.0
C225 C 0.43335 0.99436 0.08463 0.0
C226 C 0.4322 0.95378 0.112 0.0
C227 C 0.41319 0.91192 0.09333 0.0
C228 C 0.41525 0.99127 0.03916 0.0
H229 H 0.38027 0.87898 0.03362 0.0
C230 C 0.33935 0.85889 0.94242 0.0
O231 O 0.41607 0.83279 0.83091 0.0
O232 O 0.45162 0.83435 0.89857 0.0
N233 N 0.39997 0.02224 0.96556 0.0
C234 C 0.39943 0.0579 0.93411 0.0
C235 C 0.4179 0.10198 0.94697 0.0
C236 C 0.43608 0.10921 0.99227 0.0
C237 C 0.43556 0.07231 0.02437 0.0
C238 C 0.41674 0.02914 1.00954 0.0
H239 H 0.38509 0.05275 0.89943 0.0
O240 O 0.45539 0.92786 0.86613 0.0
O241 O 0.41905 0.93047 0.93088 0.0
O242 O 0.36873 0.9227 0.84683 0.0
O243 O 0.34663 0.97664 0.8992 0.0
C244 C 0.45324 0.07654 0.07036 0.0
C245 C 0.45217 0.03758 0.10045 0.0
H246 H 0.44601 0.95429 0.14728 0.0
H247 H 0.41229 0.88041 0.11418 0.0
H248 H 0.41803 0.13034 0.92206 0.0
H249 H 0.45044 0.14319 1.00199 0.0
H250 H 0.46819 0.10941 0.08272 0.0
H251 H 0.46641 0.04105 0.13546 0.0
Mn252 Mn 0.64059 0.64868 0.64532 0.0
Mn253 Mn 0.67829 0.56928 0.5664 0.0
C254 C 0.60246 0.62349 0.57843 0.0
C255 C 0.60602 0.67259 0.71323 0.0
C256 C 0.70443 0.67228 0.5707 0.0
O257 O 0.68633 0.61882 0.68399 0.0
O258 O 0.70915 0.56857 0.62766 0.0
C259 C 0.65443 0.48224 0.61592 0.0
N260 N 0.65361 0.50844 0.57622 0.0
C261 C 0.61567 0.44688 0.53232 0.0
C262 C 0.61626 0.41916 0.57268 0.0
C263 C 0.63556 0.43703 0.61471 0.0
C264 C 0.63466 0.49184 0.53578 0.0
H265 H 0.66941 0.49572 0.64823 0.0
C266 C 0.71068 0.58709 0.66965 0.0
O267 O 0.63409 0.69883 0.695 0.0
O268 O 0.59839 0.6313 0.69283 0.0
N269 N 0.65133 0.56531 0.50543 0.0
C270 C 0.65228 0.59716 0.47014 0.0
C271 C 0.63352 0.58517 0.42599 0.0
C272 C 0.61453 0.54036 0.41835 0.0
C273 C 0.61457 0.50788 0.45492 0.0
C274 C 0.63377 0.5218 0.49815 0.0
H275 H 0.66714 0.63149 0.47568 0.0
O276 O 0.59539 0.66395 0.59927 0.0
O277 O 0.63158 0.59922 0.59695 0.0
O278 O 0.68237 0.68296 0.60565 0.0
O279 O 0.70523 0.63059 0.55222 0.0
C280 C 0.59596 0.4624 0.45032 0.0
C281 C 0.59649 0.43193 0.489 0.0
H282 H 0.60178 0.38425 0.57188 0.0
H283 H 0.63602 0.41591 0.64606 0.0
H284 H 0.63372 0.61039 0.3979 0.0
H285 H 0.59992 0.53134 0.38433 0.0
H286 H 0.58069 0.45074 0.41739 0.0
H287 H 0.58155 0.39734 0.48525 0.0
H288 H 0.34413 0.26478 0.44347 0.0
H289 H 0.26356 0.38114 0.46713 0.0
H290 H 0.21495 0.3288 0.50472 0.0
H291 H 0.19772 0.25196 0.53704 0.0
H292 H 0.27694 0.1344 0.5138 0.0
H293 H 0.32345 0.18502 0.47003 0.0
C294 C 0.31551 0.27831 0.4559 0.0
C295 C 0.30768 0.32685 0.45285 0.0
C296 C 0.2877 0.24801 0.47836 0.0
C297 C 0.27055 0.34399 0.46946 0.0
C298 C 0.24273 0.31414 0.49115 0.0
C299 C 0.22515 0.23735 0.5224 0.0
C300 C 0.23414 0.18971 0.52936 0.0
C301 C 0.25151 0.26646 0.49702 0.0
C302 C 0.2694 0.17111 0.50923 0.0
C303 C 0.29603 0.20003 0.48416 0.0
H304 H 0.71121 0.58946 0.76697 0.0
H305 H 0.77944 0.54105 0.64677 0.0
H306 H 0.82622 0.50068 0.69894 0.0
H307 H 0.84591 0.47516 0.77768 0.0
H308 H 0.77876 0.52255 0.89897 0.0
H309 H 0.73373 0.56715 0.84746 0.0
C310 C 0.73666 0.57066 0.75233 0.0
C311 C 0.74148 0.56807 0.70293 0.0
C312 C 0.76351 0.54681 0.78264 0.0
C313 C 0.77461 0.54331 0.68457 0.0
C314 C 0.80147 0.52009 0.71437 0.0
C315 C 0.82145 0.49519 0.79301 0.0
C316 C 0.81556 0.49495 0.84212 0.0
C317 C 0.79577 0.52082 0.76331 0.0
C318 C 0.78397 0.52181 0.86124 0.0
C319 C 0.75816 0.54739 0.8318 0.0
H320 H 0.56176 0.117 0.98917 0.0
H321 H 0.56761 0.02196 0.10566 0.0
H322 H 0.52445 0.96382 0.06149 0.0
H323 H 0.48485 0.93999 0.99057 0.0
H324 H 0.47924 0.0315 0.87162 0.0
H325 H 0.52368 0.0906 0.91494 0.0
C326 C 0.55313 0.08368 1.00467 0.0
C327 C 0.56793 0.07324 0.05016 0.0
C328 C 0.52894 0.04975 0.97849 0.0
C329 C 0.55675 0.03022 0.07036 0.0
C330 C 0.53234 0.99692 0.04512 0.0
C331 C 0.49345 0.97294 0.97421 0.0
C332 C 0.47807 0.9825 0.92896 0.0
C333 C 0.51844 1.00624 0.99923 0.0
C334 C 0.49043 0.02416 0.907 0.0
C335 C 0.51544 0.05792 0.93186 0.0
H336 H 0.94158 0.76979 0.28393 0.0
H337 H 0.03599 0.84816 0.36387 0.0
H338 H 0.08843 0.80388 0.32291 0.0
H339 H 0.1076 0.74573 0.26076 0.0
H340 H 1.01329 0.66159 0.1868 0.0
H341 H 0.96081 0.70464 0.22904 0.0
C342 C 0.97365 0.77671 0.2926 0.0
C343 C 0.98497 0.81238 0.32651 0.0
C344 C 1.00367 0.7501 0.26987 0.0
C345 C 0.02656 0.82074 0.33795 0.0
C346 C 0.05657 0.79559 0.31439 0.0
C347 C 0.07555 0.73655 0.25441 0.0
C348 C 0.06427 0.70083 0.22055 0.0
C349 C 0.04553 0.76062 0.27979 0.0
C350 C 1.0227 0.68885 0.21289 0.0
C351 C 0.99266 0.71364 0.23683 0.0
H352 H 0.30265 0.03929 0.86082 0.0
H353 H 0.34005 0.92658 0.76573 0.0
H354 H 0.3033 0.96145 0.70057 0.0
H355 H 0.25964 0.02159 0.6705 0.0
H356 H 0.2189 0.13398 0.76342 0.0
H357 H 0.25866 0.10187 0.82926 0.0
C358 C 0.30265 0.02231 0.82588 0.0
C359 C 0.32404 0.98012 0.81852 0.0
C360 C 0.28119 0.04257 0.78804 0.0
C361 C 0.32389 0.95889 0.7728 0.0
C362 C 0.30291 0.97885 0.73529 0.0
C363 C 0.2594 0.03951 0.70499 0.0
C364 C 0.23606 0.08012 0.71188 0.0
C365 C 0.28141 0.02044 0.74255 0.0
C366 C 0.23663 0.10273 0.75696 0.0
C367 C 0.25916 0.08419 0.7947 0.0
H368 H 0.98391 0.53436 0.90219 0.0
H369 H 0.98005 0.41752 0.99682 0.0
H370 H 0.02734 0.45968 0.05202 0.0
H371 H 0.06751 0.53058 0.07505 0.0
H372 H 0.07721 0.64599 0.97965 0.0
H373 H 0.02916 0.60444 0.92334 0.0
C374 C 0.99396 0.51824 0.9347 0.0
C375 C 0.97751 0.47397 0.9467 0.0
C376 C 1.0219 0.54245 0.96603 0.0
C377 C 0.99132 0.45247 0.98802 0.0
C378 C 1.01844 0.47639 0.01943 0.0
C379 C 0.05988 0.54602 0.04134 0.0
C380 C 0.07685 0.59011 0.03035 0.0
C381 C 0.03344 0.52155 1.00912 0.0
C382 C 0.06504 0.61133 0.98803 0.0
C383 C 0.03779 0.58757 0.95593 0.0
H384 H 0.44067 0.2491 0.30628 0.0
H385 H 0.53562 0.32536 0.38727 0.0
H386 H 0.5876 0.27936 0.34719 0.0
H387 H 0.6061 0.22359 0.28235 0.0
H388 H 0.51114 0.14202 0.20673 0.0
H389 H 0.45913 0.1832 0.25171 0.0
C390 C 0.47272 0.25479 0.31583 0.0
C391 C 0.48438 0.29072 0.3494 0.0
C392 C 0.50241 0.22744 0.29333 0.0
C393 C 0.52593 0.29768 0.36174 0.0
C394 C 0.55567 0.27163 0.33856 0.0
C395 C 0.57403 0.21413 0.27662 0.0
C396 C 0.56239 0.18006 0.24115 0.0
C397 C 0.54432 0.23731 0.30335 0.0
C398 C 0.52082 0.1679 0.23409 0.0
C399 C 0.49106 0.19173 0.25954 0.0
H400 H 0.79971 0.85769 0.51612 0.0
H401 H 0.84113 0.76651 0.40269 0.0
H402 H 0.79999 0.7006 0.43259 0.0
H403 H 0.75257 0.66904 0.49208 0.0
H404 H 0.71336 0.76303 0.60479 0.0
H405 H 0.75358 0.82749 0.57372 0.0
C406 C 0.7999 0.82355 0.49753 0.0
C407 C 0.82361 0.81729 0.45707 0.0
C408 C 0.7766 0.7861 0.51493 0.0
C409 C 0.82317 0.77251 0.43386 0.0
C410 C 0.7997 0.73477 0.45102 0.0
C411 C 0.75291 0.70359 0.50987 0.0
C412 C 0.72983 0.71083 0.55088 0.0
C413 C 0.77637 0.74113 0.49174 0.0
C414 C 0.73062 0.75604 0.57326 0.0
C415 C 0.75368 0.79316 0.55552 0.0
H416 H 0.2614 0.52237 0.1727 0.0
H417 H 0.20274 0.61898 0.26903 0.0
H418 H 0.24494 0.59089 0.33484 0.0
H419 H 0.29688 0.53638 0.36525 0.0
H420 H 0.35399 0.44014 0.26682 0.0
H421 H 0.31382 0.47082 0.2018 0.0
C422 C 0.25769 0.53757 0.208 0.0
C423 C 0.22861 0.57263 0.21576 0.0
C424 C 0.28174 0.52115 0.24548 0.0
C425 C 0.22481 0.59198 0.26187 0.0
C426 C 0.24888 0.5758 0.29957 0.0
C427 C 0.30065 0.5222 0.32957 0.0
C428 C 0.32842 0.48565 0.32131 0.0
C429 C 0.27719 0.54 0.29186 0.0
C430 C 0.33289 0.46803 0.27463 0.0
C431 C 0.30988 0.48556 0.23722 0.0
H432 H 0.78049 0.35541 1.00298 0.0
H433 H 0.83311 0.25926 0.90119 0.0
H434 H 0.79172 0.19382 0.9312 0.0
H435 H 0.74367 0.16332 0.98993 0.0
H436 H 0.69318 0.26118 0.09204 0.0
H437 H 0.73103 0.32635 0.05824 0.0
C438 C 0.7829 0.32025 0.98696 0.0
C439 C 0.81021 0.31234 0.95006 0.0
C440 C 0.75966 0.28289 1.00479 0.0
C441 C 0.81236 0.2665 0.9296 0.0
C442 C 0.78887 0.22898 0.94696 0.0
C443 C 0.74086 0.19889 1.00475 0.0
C444 C 0.71576 0.20699 0.04387 0.0
C445 C 0.76294 0.23663 0.98516 0.0
C446 C 0.71232 0.25354 0.0622 0.0
C447 C 0.73397 0.29102 0.04286 0.0
H448 H 0.84921 0.99083 0.27882 0.0
H449 H 0.76573 1.00369 0.39382 0.0
H450 H 0.71901 0.04775 0.34384 0.0
H451 H 0.70034 0.07935 0.26573 0.0
H452 H 0.78484 0.06663 0.15168 0.0
H453 H 0.83296 0.02694 0.2032 0.0
C454 C 0.82066 1.00299 0.29281 0.0
C455 C 0.81065 0.99335 0.33963 0.0
C456 C 0.79432 0.029 0.26422 0.0
C457 C 0.77399 1.01035 0.35767 0.0
C458 C 0.74732 0.03571 0.3292 0.0
C459 C 0.72971 0.06891 0.25264 0.0
C460 C 0.739 0.07584 0.20502 0.0
C461 C 0.75706 0.04511 0.28228 0.0
C462 C 0.77696 0.06154 0.18824 0.0
C463 C 0.8044 0.03854 0.21755 0.0
H464 H 0.98124 0.96003 0.49377 0.0
H465 H 0.97127 0.05466 0.37774 0.0
H466 H 1.01914 0.11139 0.41913 0.0
H467 H 0.06439 0.13291 0.4893 0.0
H468 H 0.06757 0.03917 0.60694 0.0
H469 H 1.02067 0.98368 0.56479 0.0
C470 C 0.9887 0.9937 0.47817 0.0
C471 C 0.97178 1.00435 0.43399 0.0
C472 C 1.0148 0.02619 0.50261 0.0
C473 C 0.98344 0.04656 0.4125 0.0
C474 C 1.01054 0.07891 0.43618 0.0
C475 C 0.05418 0.1006 0.50563 0.0
C476 C 0.07043 0.08883 0.55008 0.0
C477 C 0.02631 0.06915 0.48148 0.0
C478 C 0.05644 0.04778 0.57186 0.0
C479 C 0.02954 0.0162 0.54795 0.0
H480 H 1.02388 0.32246 0.84797 0.0
H481 H 0.91603 0.25613 0.78252 0.0
H482 H 0.95833 0.20325 0.73534 0.0
H483 H 0.02617 0.18041 0.7081 0.0
H484 H 0.1336 0.25485 0.76524 0.0
H485 H 0.09175 0.29987 0.82043 0.0
C486 C 1.0098 0.29578 0.82394 0.0
C487 C 0.96704 0.29251 0.81903 0.0
C488 C 0.03436 0.2673 0.79523 0.0
C489 C 0.94894 0.25887 0.78697 0.0
C490 C 0.97311 0.22881 0.75996 0.0
C491 C 0.04035 0.20598 0.73323 0.0
C492 C 0.08284 0.21407 0.73316 0.0
C493 C 1.01586 0.23329 0.76313 0.0
C494 C 0.10092 0.24803 0.76493 0.0
C495 C 0.077 0.27376 0.79637 0.0
H496 H 0.52445 0.66121 0.72616 0.0
H497 H 0.63348 0.72921 0.78702 0.0
H498 H 0.59278 0.7738 0.84345 0.0
H499 H 0.5256 0.8017 0.86796 0.0
H500 H 0.41653 0.74062 0.80028 0.0
H501 H 0.45728 0.68491 0.75485 0.0
C502 C 0.53925 0.68483 0.75268 0.0
C503 C 0.58186 0.69177 0.75267 0.0
C504 C 0.51543 0.71209 0.78356 0.0
C505 C 0.60068 0.72327 0.78647 0.0
C506 C 0.5774 0.74893 0.81861 0.0
C507 C 0.51082 0.77526 0.84424 0.0
C508 C 0.46816 0.775 0.83765 0.0
C509 C 0.53465 0.74485 0.81648 0.0
C510 C 0.44935 0.74134 0.80599 0.0
C511 C 0.47267 0.70963 0.77984 0.0
H512 H 0.20459 0.75123 0.05564 0.0
H513 H 0.27524 0.63097 1.01339 0.0
H514 H 0.32026 0.68234 0.96889 0.0
H515 H 0.34089 0.76215 0.9437 0.0
H516 H 0.26949 0.88171 0.98634 0.0
H517 H 0.22337 0.82981 0.0282 0.0
C518 C 0.22996 0.73622 0.03697 0.0
C519 C 0.23666 0.68736 0.03834 0.0
C520 C 0.25551 0.76583 1.01102 0.0
C521 C 0.26938 0.66851 1.01319 0.0
C522 C 0.29514 0.69785 0.98757 0.0
C523 C 0.31487 0.77667 0.96152 0.0
C524 C 0.30881 0.82577 0.96194 0.0
C525 C 0.28856 0.74662 0.98627 0.0
C526 C 0.2751 0.84408 0.98563 0.0
C527 C 0.24869 0.81446 1.00976 0.0
H528 H 0.48607 0.54293 0.41123 0.0
H529 H 0.4793 0.42651 0.50623 0.0
H530 H 0.52397 0.46955 0.56372 0.0
H531 H 0.56516 0.53959 0.5871 0.0
H532 H 0.57154 0.65848 0.49563 0.0
H533 H 0.52584 0.61617 0.43713 0.0
C534 C 0.49476 0.52719 0.44442 0.0
C535 C 0.47924 0.48203 0.45498 0.0
C536 C 0.51991 0.55273 0.47799 0.0
C537 C 0.49061 0.46157 0.49785 0.0
C538 C 0.51595 0.48617 0.53077 0.0
C539 C 0.55652 0.55613 0.55426 0.0
C540 C 0.57247 0.60113 0.5446 0.0
C541 C 0.53064 0.53171 0.5213 0.0
C542 C 0.56 0.6233 0.50307 0.0
C543 C 0.53419 0.59902 0.46965 0.0
loop_
_geom_bond_atom_site_label_1
_geom_bond_atom_site_label_2
_geom_bond_distance
_geom_bond_site_symmetry_2
_ccdc_geom_bond_type
Mn0 O5 2.095 . S
Mn0 O15 2.162 . S
Mn0 O16 2.297 . S
Mn0 O24 2.385 . S
Mn0 O25 2.209 . S
Mn0 O26 2.094 . S
Mn1 O6 2.121 . S
Mn1 N8 2.257 1_545 S
Mn1 N17 2.282 . S
Mn1 O25 2.215 . S
Mn1 O27 2.117 . S
C2 O24 1.234 . S
C2 O25 1.283 . S
C3 O15 1.281 . S
C3 O16 1.236 . S
C4 O26 1.240 . S
C4 O27 1.264 . S
O5 Mn0 2.095 . S
O5 C14 1.250 . S
O6 Mn1 2.121 . S
O6 C14 1.258 . S
C7 N8 1.326 . S
C7 C11 1.460 . S
C7 H13 0.929 . S
N8 Mn1 2.257 1_565 S
N8 C7 1.326 . S
N8 C12 1.362 . S
C9 C10 1.258 . S
C9 C12 1.431 . S
C9 C29 1.449 . S
C10 C9 1.258 . S
C10 C11 1.477 . S
C10 H30 0.931 . S
C11 C7 1.460 . S
C11 C10 1.477 . S
C11 H31 0.930 . S
C12 N8 1.362 . S
C12 C9 1.431 . S
C12 C22 1.467 1_565 S
H13 C7 0.929 . S
C14 O5 1.250 . S
C14 O6 1.258 . S
O15 Mn0 2.162 . S
O15 C3 1.281 . S
O16 Mn0 2.297 . S
O16 C3 1.236 . S
N17 Mn1 2.282 . S
N17 C18 1.328 . S
N17 C22 1.330 . S
C18 N17 1.328 . S
C18 C19 1.457 . S
C18 H23 0.929 . S
C19 C18 1.457 . S
C19 C20 1.291 . S
C19 H32 0.931 . S
C20 C19 1.291 . S
C20 C21 1.373 1_545 S
C20 H33 0.929 . S
C21 C20 1.373 1_565 S
C21 C22 1.393 1_565 S
C21 C28 1.403 . S
C22 C12 1.467 1_545 S
C22 N17 1.330 . S
C22 C21 1.393 1_545 S
H23 C18 0.929 . S
O24 Mn0 2.385 . S
O24 C2 1.234 . S
O25 Mn0 2.209 . S
O25 Mn1 2.215 . S
O25 C2 1.283 . S
O26 Mn0 2.094 . S
O26 C4 1.240 . S
O27 Mn1 2.117 . S
O27 C4 1.264 . S
C28 C21 1.403 . S
C28 C29 1.399 . S
C28 H34 0.929 . S
C29 C9 1.449 . S
C29 C28 1.399 . S
C29 H35 0.930 . S
H30 C10 0.931 . S
H31 C11 0.930 . S
H32 C19 0.931 . S
H33 C20 0.929 . S
H34 C28 0.929 . S
H35 C29 0.930 . S
Mn36 O41 2.095 . S
Mn36 O51 2.162 . S
Mn36 O52 2.297 . S
Mn36 O60 2.385 . S
Mn36 O61 2.209 . S
Mn36 O62 2.094 . S
Mn37 O42 2.121 . S
Mn37 N44 2.257 1_556 S
Mn37 N53 2.282 . S
Mn37 O61 2.215 . S
Mn37 O63 2.117 . S
C38 O60 1.234 . S
C38 O61 1.283 . S
C39 O51 1.281 . S
C39 O52 1.236 . S
C40 O62 1.240 . S
C40 O63 1.264 . S
O41 Mn36 2.095 . S
O41 C50 1.250 . S
O42 Mn37 2.121 . S
O42 C50 1.258 . S
C43 N44 1.326 . S
C43 C47 1.460 . S
C43 H49 0.929 . S
N44 Mn37 2.257 1_554 S
N44 C43 1.326 . S
N44 C48 1.362 . S
C45 C46 1.258 . S
C45 C48 1.431 . S
C45 C65 1.449 . S
C46 C45 1.258 . S
C46 C47 1.477 . S
C46 H66 0.931 . S
C47 C43 1.460 . S
C47 C46 1.477 . S
C47 H67 0.930 . S
C48 N44 1.362 . S
C48 C45 1.431 . S
C48 C58 1.467 1_554 S
H49 C43 0.929 . S
C50 O41 1.250 . S
C50 O42 1.258 . S
O51 Mn36 2.162 . S
O51 C39 1.281 . S
O52 Mn36 2.297 . S
O52 C39 1.236 . S
N53 Mn37 2.282 . S
N53 C54 1.328 . S
N53 C58 1.329 . S
C54 N53 1.328 . S
C54 C55 1.457 . S
C54 H59 0.929 . S
C55 C54 1.457 . S
C55 C56 1.291 . S
C55 H68 0.931 . S
C56 C55 1.291 . S
C56 C57 1.373 1_556 S
C56 H69 0.929 . S
C57 C56 1.373 1_554 S
C57 C58 1.393 1_554 S
C57 C64 1.403 . S
C58 C48 1.467 1_556 S
C58 N53 1.329 . S
C58 C57 1.393 1_556 S
H59 C54 0.929 . S
O60 Mn36 2.385 . S
O60 C38 1.234 . S
O61 Mn36 2.209 . S
O61 Mn37 2.215 . S
O61 C38 1.283 . S
O62 Mn36 2.094 . S
O62 C40 1.240 . S
O63 Mn37 2.117 . S
O63 C40 1.264 . S
C64 C57 1.403 . S
C64 C65 1.399 . S
C64 H70 0.929 . S
C65 C45 1.449 . S
C65 C64 1.399 . S
C65 H71 0.930 . S
H66 C46 0.931 . S
H67 C47 0.930 . S
H68 C55 0.931 . S
H69 C56 0.929 . S
H70 C64 0.929 . S
H71 C65 0.930 . S
Mn72 O77 2.095 . S
Mn72 O87 2.162 . S
Mn72 O88 2.297 . S
Mn72 O96 2.385 . S
Mn72 O97 2.209 . S
Mn72 O98 2.094 . S
Mn73 O78 2.121 . S
Mn73 N80 2.257 1_545 S
Mn73 N89 2.282 1_554 S
Mn73 O97 2.215 . S
Mn73 O99 2.117 . S
C74 O96 1.234 . S
C74 O97 1.283 . S
C75 O87 1.281 . S
C75 O88 1.236 . S
C76 O98 1.240 . S
C76 O99 1.264 . S
O77 Mn72 2.095 . S
O77 C86 1.250 . S
O78 Mn73 2.121 . S
O78 C86 1.258 . S
C79 N80 1.326 . S
C79 C83 1.460 . S
C79 H85 0.929 . S
N80 Mn73 2.257 1_565 S
N80 C79 1.326 . S
N80 C84 1.362 . S
C81 C82 1.258 . S
C81 C84 1.431 . S
C81 C101 1.449 1_554 S
C82 C81 1.258 . S
C82 C83 1.477 . S
C82 H102 0.931 . S
C83 C79 1.460 . S
C83 C82 1.477 . S
C83 H103 0.930 . S
C84 N80 1.362 . S
C84 C81 1.431 . S
C84 C94 1.467 1_564 S
H85 C79 0.929 . S
C86 O77 1.250 . S
C86 O78 1.258 . S
O87 Mn72 2.162 . S
O87 C75 1.281 . S
O88 Mn72 2.297 . S
O88 C75 1.236 . S
N89 Mn73 2.282 1_556 S
N89 C90 1.328 . S
N89 C94 1.330 . S
C90 N89 1.328 . S
C90 C91 1.457 . S
C90 H95 0.929 . S
C91 C90 1.457 . S
C91 C92 1.291 . S
C91 H104 0.931 . S
C92 C91 1.291 . S
C92 C93 1.373 1_545 S
C92 H105 0.929 . S
C93 C92 1.373 1_565 S
C93 C94 1.393 1_565 S
C93 C100 1.403 . S
C94 C84 1.467 1_546 S
C94 N89 1.330 . S
C94 C93 1.393 1_545 S
H95 C90 0.929 . S
O96 Mn72 2.385 . S
O96 C74 1.234 . S
O97 Mn72 2.209 . S
O97 Mn73 2.215 . S
O97 C74 1.283 . S
O98 Mn72 2.094 . S
O98 C76 1.240 . S
O99 Mn73 2.117 . S
O99 C76 1.264 . S
C100 C93 1.403 . S
C100 C101 1.399 . S
C100 H106 0.929 . S
C101 C81 1.449 1_556 S
C101 C100 1.399 . S
C101 H107 0.930 . S
H102 C82 0.931 . S
H103 C83 0.930 . S
H104 C91 0.931 . S
H105 C92 0.929 . S
H106 C100 0.929 . S
H107 C101 0.930 . S
Mn108 O113 2.095 . S
Mn108 O123 2.162 . S
Mn108 O124 2.297 . S
Mn108 O132 2.385 . S
Mn108 O133 2.209 . S
Mn108 O134 2.094 . S
Mn109 O114 2.121 . S
Mn109 N116 2.257 . S
Mn109 N125 2.282 1_565 S
Mn109 O133 2.215 . S
Mn109 O135 2.117 . S
C110 O132 1.234 . S
C110 O133 1.283 . S
C111 O123 1.281 . S
C111 O124 1.236 . S
C112 O134 1.240 . S
C112 O135 1.264 . S
O113 Mn108 2.095 . S
O113 C122 1.250 . S
O114 Mn109 2.121 . S
O114 C122 1.258 . S
C115 N116 1.326 . S
C115 C119 1.460 . S
C115 H121 0.929 . S
N116 Mn109 2.257 . S
N116 C115 1.326 . S
N116 C120 1.362 . S
C117 C118 1.258 . S
C117 C120 1.431 . S
C117 C137 1.449 1_565 S
C118 C117 1.258 . S
C118 C119 1.477 . S
C118 H138 0.931 . S
C119 C115 1.460 . S
C119 C118 1.477 . S
C119 H139 0.930 . S
C120 N116 1.362 . S
C120 C117 1.431 . S
C120 C130 1.476 1_565 S
H121 C115 0.929 . S
C122 O113 1.250 . S
C122 O114 1.258 . S
O123 Mn108 2.162 . S
O123 C111 1.281 . S
O124 Mn108 2.297 . S
O124 C111 1.236 . S
N125 Mn109 2.282 1_545 S
N125 C126 1.328 . S
N125 C130 1.318 . S
C126 N125 1.328 . S
C126 C127 1.457 . S
C126 H131 0.929 . S
C127 C126 1.457 . S
C127 C128 1.291 . S
C127 H140 0.931 . S
C128 C127 1.291 . S
C128 C129 1.373 . S
C128 H141 0.929 . S
C129 C128 1.373 . S
C129 C130 1.396 . S
C129 C136 1.403 . S
C130 C120 1.476 1_545 S
C130 N125 1.318 . S
C130 C129 1.396 . S
H131 C126 0.929 . S
O132 Mn108 2.385 . S
O132 C110 1.234 . S
O133 Mn108 2.209 . S
O133 Mn109 2.215 . S
O133 C110 1.283 . S
O134 Mn108 2.094 . S
O134 C112 1.240 . S
O135 Mn109 2.117 . S
O135 C112 1.264 . S
C136 C129 1.403 . S
C136 C137 1.399 . S
C136 H142 0.929 . S
C137 C117 1.449 1_545 S
C137 C136 1.399 . S
C137 H143 0.930 . S
H138 C118 0.931 . S
H139 C119 0.930 . S
H140 C127 0.931 . S
H141 C128 0.929 . S
H142 C136 0.929 . S
H143 C137 0.930 . S
Mn144 O149 2.095 . S
Mn144 O159 2.162 . S
Mn144 O160 2.297 . S
Mn144 O168 2.385 . S
Mn144 O169 2.209 . S
Mn144 O170 2.094 . S
Mn145 O150 2.121 . S
Mn145 N152 2.257 . S
Mn145 N161 2.282 1_554 S
Mn145 O169 2.215 . S
Mn145 O171 2.117 . S
C146 O168 1.234 . S
C146 O169 1.283 . S
C147 O159 1.281 . S
C147 O160 1.236 . S
C148 O170 1.240 . S
C148 O171 1.264 . S
O149 Mn144 2.095 . S
O149 C158 1.250 . S
O150 Mn145 2.121 . S
O150 C158 1.258 . S
C151 N152 1.326 . S
C151 C155 1.460 . S
C151 H157 0.929 . S
N152 Mn145 2.257 . S
N152 C151 1.326 . S
N152 C156 1.362 . S
C153 C154 1.258 . S
C153 C156 1.431 . S
C153 C173 1.449 1_554 S
C154 C153 1.258 . S
C154 C155 1.477 . S
C154 H174 0.931 . S
C155 C151 1.460 . S
C155 C154 1.477 . S
C155 H175 0.930 . S
C156 N152 1.362 . S
C156 C153 1.431 . S
C156 C166 1.476 1_554 S
H157 C151 0.929 . S
C158 O149 1.250 . S
C158 O150 1.258 . S
O159 Mn144 2.162 . S
O159 C147 1.281 . S
O160 Mn144 2.297 . S
O160 C147 1.236 . S
N161 Mn145 2.282 1_556 S
N161 C162 1.328 . S
N161 C166 1.318 . S
C162 N161 1.328 . S
C162 C163 1.457 . S
C162 H167 0.929 . S
C163 C162 1.457 . S
C163 C164 1.291 . S
C163 H176 0.931 . S
C164 C163 1.291 . S
C164 C165 1.373 . S
C164 H177 0.929 . S
C165 C164 1.373 . S
C165 C166 1.396 . S
C165 C172 1.403 . S
C166 C156 1.476 1_556 S
C166 N161 1.318 . S
C166 C165 1.396 . S
H167 C162 0.929 . S
O168 Mn144 2.385 . S
O168 C146 1.234 . S
O169 Mn144 2.209 . S
O169 Mn145 2.215 . S
O169 C146 1.283 . S
O170 Mn144 2.094 . S
O170 C148 1.240 . S
O171 Mn145 2.117 . S
O171 C148 1.264 . S
C172 C165 1.403 . S
C172 C173 1.399 . S
C172 H178 0.929 . S
C173 C153 1.449 1_556 S
C173 C172 1.399 . S
C173 H179 0.930 . S
H174 C154 0.931 . S
H175 C155 0.930 . S
H176 C163 0.931 . S
H177 C164 0.929 . S
H178 C172 0.929 . S
H179 C173 0.930 . S
Mn180 O185 2.095 . S
Mn180 O195 2.162 . S
Mn180 O196 2.297 . S
Mn180 O204 2.385 . S
Mn180 O205 2.209 . S
Mn180 O206 2.094 . S
Mn181 O186 2.121 . S
Mn181 N188 2.257 . S
Mn181 N197 2.282 . S
Mn181 O205 2.215 . S
Mn181 O207 2.117 . S
C182 O204 1.234 . S
C182 O205 1.283 . S
C183 O195 1.281 . S
C183 O196 1.236 . S
C184 O206 1.240 . S
C184 O207 1.264 . S
O185 Mn180 2.095 . S
O185 C194 1.250 . S
O186 Mn181 2.121 . S
O186 C194 1.258 . S
C187 N188 1.326 . S
C187 C191 1.460 . S
C187 H193 0.929 . S
N188 Mn181 2.257 . S
N188 C187 1.326 . S
N188 C192 1.362 . S
C189 C190 1.258 . S
C189 C192 1.431 . S
C189 C209 1.449 . S
C190 C189 1.258 . S
C190 C191 1.477 . S
C190 H210 0.931 . S
C191 C187 1.460 . S
C191 C190 1.477 . S
C191 H211 0.930 . S
C192 N188 1.362 . S
C192 C189 1.431 . S
C192 C202 1.476 . S
H193 C187 0.929 . S
C194 O185 1.250 . S
C194 O186 1.258 . S
O195 Mn180 2.162 . S
O195 C183 1.281 . S
O196 Mn180 2.297 . S
O196 C183 1.236 . S
N197 Mn181 2.282 . S
N197 C198 1.328 . S
N197 C202 1.318 . S
C198 N197 1.328 . S
C198 C199 1.457 . S
C198 H203 0.929 . S
C199 C198 1.457 . S
C199 C200 1.291 . S
C199 H212 0.931 . S
C200 C199 1.291 . S
C200 C201 1.373 . S
C200 H213 0.929 . S
C201 C200 1.373 . S
C201 C202 1.396 . S
C201 C208 1.403 . S
C202 C192 1.476 . S
C202 N197 1.318 . S
C202 C201 1.396 . S
H203 C198 0.929 . S
O204 Mn180 2.385 . S
O204 C182 1.234 . S
O205 Mn180 2.209 . S
O205 Mn181 2.215 . S
O205 C182 1.283 . S
O206 Mn180 2.094 . S
O206 C184 1.240 . S
O207 Mn181 2.117 . S
O207 C184 1.264 . S
C208 C201 1.403 . S
C208 C209 1.399 . S
C208 H214 0.929 . S
C209 C189 1.449 . S
C209 C208 1.399 . S
C209 H215 0.930 . S
H210 C190 0.931 . S
H211 C191 0.930 . S
H212 C199 0.931 . S
H213 C200 0.929 . S
H214 C208 0.929 . S
H215 C209 0.930 . S
Mn216 O221 2.095 . S
Mn216 O231 2.162 . S
Mn216 O232 2.297 . S
Mn216 O240 2.385 . S
Mn216 O241 2.209 . S
Mn216 O242 2.094 . S
Mn217 O222 2.121 . S
Mn217 N224 2.257 1_556 S
Mn217 N233 2.282 1_565 S
Mn217 O241 2.215 . S
Mn217 O243 2.117 . S
C218 O240 1.234 . S
C218 O241 1.283 . S
C219 O231 1.281 . S
C219 O232 1.236 . S
C220 O242 1.240 . S
C220 O243 1.264 . S
O221 Mn216 2.095 . S
O221 C230 1.250 . S
O222 Mn217 2.121 . S
O222 C230 1.258 . S
C223 N224 1.326 . S
C223 C227 1.460 . S
C223 H229 0.929 . S
N224 Mn217 2.257 1_554 S
N224 C223 1.326 . S
N224 C228 1.362 . S
C225 C226 1.258 . S
C225 C228 1.431 . S
C225 C245 1.449 1_565 S
C226 C225 1.258 . S
C226 C227 1.477 . S
C226 H246 0.931 . S
C227 C223 1.460 . S
C227 C226 1.477 . S
C227 H247 0.930 . S
C228 N224 1.362 . S
C228 C225 1.431 . S
C228 C238 1.467 1_564 S
H229 C223 0.929 . S
C230 O221 1.250 . S
C230 O222 1.258 . S
O231 Mn216 2.162 . S
O231 C219 1.281 . S
O232 Mn216 2.297 . S
O232 C219 1.236 . S
N233 Mn217 2.282 1_545 S
N233 C234 1.328 . S
N233 C238 1.329 . S
C234 N233 1.328 . S
C234 C235 1.457 . S
C234 H239 0.929 . S
C235 C234 1.457 . S
C235 C236 1.291 . S
C235 H248 0.931 . S
C236 C235 1.291 . S
C236 C237 1.373 1_556 S
C236 H249 0.929 . S
C237 C236 1.373 1_554 S
C237 C238 1.393 1_554 S
C237 C244 1.403 . S
C238 C228 1.467 1_546 S
C238 N233 1.329 . S
C238 C237 1.393 1_556 S
H239 C234 0.929 . S
O240 Mn216 2.385 . S
O240 C218 1.234 . S
O241 Mn216 2.209 . S
O241 Mn217 2.215 . S
O241 C218 1.283 . S
O242 Mn216 2.094 . S
O242 C220 1.240 . S
O243 Mn217 2.117 . S
O243 C220 1.264 . S
C244 C237 1.403 . S
C244 C245 1.399 . S
C244 H250 0.929 . S
C245 C225 1.449 1_545 S
C245 C244 1.399 . S
C245 H251 0.930 . S
H246 C226 0.931 . S
H247 C227 0.930 . S
H248 C235 0.931 . S
H249 C236 0.929 . S
H250 C244 0.929 . S
H251 C245 0.930 . S
Mn252 O257 2.095 . S
Mn252 O267 2.162 . S
Mn252 O268 2.297 . S
Mn252 O276 2.385 . S
Mn252 O277 2.209 . S
Mn252 O278 2.094 . S
Mn253 O258 2.121 . S
Mn253 N260 2.257 . S
Mn253 N269 2.282 . S
Mn253 O277 2.215 . S
Mn253 O279 2.117 . S
C254 O276 1.234 . S
C254 O277 1.283 . S
C255 O267 1.281 . S
C255 O268 1.236 . S
C256 O278 1.240 . S
C256 O279 1.264 . S
O257 Mn252 2.095 . S
O257 C266 1.250 . S
O258 Mn253 2.121 . S
O258 C266 1.258 . S
C259 N260 1.326 . S
C259 C263 1.460 . S
C259 H265 0.929 . S
N260 Mn253 2.257 . S
N260 C259 1.326 . S
N260 C264 1.362 . S
C261 C262 1.258 . S
C261 C264 1.431 . S
C261 C281 1.449 . S
C262 C261 1.258 . S
C262 C263 1.477 . S
C262 H282 0.931 . S
C263 C259 1.460 . S
C263 C262 1.477 . S
C263 H283 0.930 . S
C264 N260 1.362 . S
C264 C261 1.431 . S
C264 C274 1.476 . S
H265 C259 0.929 . S
C266 O257 1.250 . S
C266 O258 1.258 . S
O267 Mn252 2.162 . S
O267 C255 1.281 . S
O268 Mn252 2.297 . S
O268 C255 1.236 . S
N269 Mn253 2.282 . S
N269 C270 1.328 . S
N269 C274 1.318 . S
C270 N269 1.328 . S
C270 C271 1.457 . S
C270 H275 0.929 . S
C271 C270 1.457 . S
C271 C272 1.291 . S
C271 H284 0.931 . S
C272 C271 1.291 . S
C272 C273 1.373 . S
C272 H285 0.929 . S
C273 C272 1.373 . S
C273 C274 1.396 . S
C273 C280 1.403 . S
C274 C264 1.476 . S
C274 N269 1.318 . S
C274 C273 1.396 . S
H275 C270 0.929 . S
O276 Mn252 2.385 . S
O276 C254 1.234 . S
O277 Mn252 2.209 . S
O277 Mn253 2.215 . S
O277 C254 1.283 . S
O278 Mn252 2.094 . S
O278 C256 1.240 . S
O279 Mn253 2.117 . S
O279 C256 1.264 . S
C280 C273 1.403 . S
C280 C281 1.399 . S
C280 H286 0.929 . S
C281 C261 1.449 . S
C281 C280 1.399 . S
C281 H287 0.930 . S
H282 C262 0.931 . S
H283 C263 0.930 . S
H284 C271 0.931 . S
H285 C272 0.929 . S
H286 C280 0.929 . S
H287 C281 0.930 . S
H288 C294 0.930 . S
H289 C297 0.930 . S
H290 C298 0.930 . S
H291 C299 0.930 . S
H292 C302 0.930 . S
H293 C303 0.930 . S
C294 H288 0.930 . S
C294 C295 1.355 . S
C294 C296 1.415 . S
C295 C294 1.355 . S
C295 C297 1.419 . S
C296 C294 1.415 . S
C296 C301 1.425 . S
C296 C303 1.409 . S
C297 H289 0.930 . S
C297 C295 1.419 . S
C297 C298 1.362 . S
C298 H290 0.930 . S
C298 C297 1.362 . S
C298 C301 1.409 . S
C299 H291 0.930 . S
C299 C300 1.355 . S
C299 C301 1.415 . S
C300 C299 1.355 . S
C300 C302 1.419 . S
C301 C296 1.425 . S
C301 C298 1.409 . S
C301 C299 1.415 . S
C302 H292 0.930 . S
C302 C300 1.419 . S
C302 C303 1.362 . S
C303 H293 0.930 . S
C303 C296 1.409 . S
C303 C302 1.362 . S
H304 C310 0.930 . S
H305 C313 0.930 . S
H306 C314 0.930 . S
H307 C315 0.930 . S
H308 C318 0.930 . S
H309 C319 0.930 . S
C310 H304 0.930 . S
C310 C311 1.355 . S
C310 C312 1.415 . S
C311 C310 1.355 . S
C311 C313 1.419 . S
C312 C310 1.415 . S
C312 C317 1.425 . S
C312 C319 1.409 . S
C313 H305 0.930 . S
C313 C311 1.419 . S
C313 C314 1.362 . S
C314 H306 0.930 . S
C314 C313 1.362 . S
C314 C317 1.409 . S
C315 H307 0.930 . S
C315 C316 1.355 . S
C315 C317 1.415 . S
C316 C315 1.355 . S
C316 C318 1.419 . S
C317 C312 1.425 . S
C317 C314 1.409 . S
C317 C315 1.415 . S
C318 H308 0.930 . S
C318 C316 1.419 . S
C318 C319 1.362 . S
C319 H309 0.930 . S
C319 C312 1.409 . S
C319 C318 1.362 . S
H320 C326 0.930 . S
H321 C329 0.930 . S
H322 C330 0.930 . S
H323 C331 0.930 . S
H324 C334 0.929 1_545 S
H325 C335 0.930 1_554 S
C326 H320 0.930 . S
C326 C327 1.355 . S
C326 C328 1.415 . S
C327 C326 1.355 . S
C327 C329 1.419 . S
C328 C326 1.415 . S
C328 C333 1.425 1_544 S
C328 C335 1.409 1_554 S
C329 H321 0.930 . S
C329 C327 1.419 . S
C329 C330 1.362 1_544 S
C330 H322 0.930 . S
C330 C329 1.362 1_566 S
C330 C333 1.409 . S
C331 H323 0.930 . S
C331 C332 1.355 . S
C331 C333 1.415 . S
C332 C331 1.355 . S
C332 C334 1.419 . S
C333 C328 1.425 1_566 S
C333 C330 1.409 . S
C333 C331 1.415 . S
C334 H324 0.929 1_565 S
C334 C332 1.419 . S
C334 C335 1.362 1_565 S
C335 H325 0.930 1_556 S
C335 C328 1.409 1_556 S
C335 C334 1.362 1_545 S
H336 C342 0.930 . S
H337 C345 0.930 . S
H338 C346 0.930 . S
H339 C347 0.930 . S
H340 C350 0.930 . S
H341 C351 0.930 . S
C342 H336 0.930 . S
C342 C343 1.355 . S
C342 C344 1.415 . S
C343 C342 1.355 . S
C343 C345 1.419 . S
C344 C342 1.415 . S
C344 C349 1.425 1_655 S
C344 C351 1.409 . S
C345 H337 0.930 . S
C345 C343 1.419 . S
C345 C346 1.362 1_655 S
C346 H338 0.930 . S
C346 C345 1.362 1_455 S
C346 C349 1.409 . S
C347 H339 0.930 . S
C347 C348 1.355 . S
C347 C349 1.415 . S
C348 C347 1.355 . S
C348 C350 1.419 . S
C349 C344 1.425 1_455 S
C349 C346 1.409 . S
C349 C347 1.415 . S
C350 H340 0.930 . S
C350 C348 1.419 . S
C350 C351 1.362 1_455 S
C351 H341 0.930 . S
C351 C344 1.409 . S
C351 C350 1.362 1_655 S
H352 C358 0.930 . S
H353 C361 0.930 . S
H354 C362 0.930 . S
H355 C363 0.930 . S
H356 C366 0.930 . S
H357 C367 0.930 . S
C358 H352 0.930 . S
C358 C359 1.355 . S
C358 C360 1.415 . S
C359 C358 1.355 . S
C359 C361 1.419 . S
C360 C358 1.415 . S
C360 C365 1.425 1_565 S
C360 C367 1.409 . S
C361 H353 0.930 . S
C361 C359 1.419 . S
C361 C362 1.362 1_565 S
C362 H354 0.930 . S
C362 C361 1.362 1_545 S
C362 C365 1.409 . S
C363 H355 0.930 . S
C363 C364 1.355 . S
C363 C365 1.415 . S
C364 C363 1.355 . S
C364 C366 1.419 . S
C365 C360 1.425 1_545 S
C365 C362 1.409 . S
C365 C363 1.415 . S
C366 H356 0.930 . S
C366 C364 1.419 . S
C366 C367 1.362 1_545 S
C367 H357 0.930 . S
C367 C360 1.409 . S
C367 C366 1.362 1_565 S
H368 C374 0.930 . S
H369 C377 0.930 . S
H370 C378 0.929 . S
H371 C379 0.930 . S
H372 C382 0.930 . S
H373 C383 0.929 . S
C374 H368 0.930 . S
C374 C375 1.355 . S
C374 C376 1.415 . S
C375 C374 1.355 . S
C375 C377 1.419 . S
C376 C374 1.415 . S
C376 C381 1.425 1_656 S
C376 C383 1.409 . S
C377 H369 0.930 . S
C377 C375 1.419 . S
C377 C378 1.364 1_656 S
C378 H370 0.929 . S
C378 C377 1.364 1_454 S
C378 C381 1.409 . S
C379 H371 0.930 . S
C379 C380 1.355 . S
C379 C381 1.415 . S
C380 C379 1.355 . S
C380 C382 1.419 . S
C381 C376 1.425 1_454 S
C381 C378 1.409 . S
C381 C379 1.415 . S
C382 H372 0.930 . S
C382 C380 1.419 . S
C382 C383 1.364 1_454 S
C383 H373 0.929 . S
C383 C376 1.409 . S
C383 C382 1.364 1_656 S
H384 C390 0.930 . S
H385 C393 0.930 . S
H386 C394 0.930 . S
H387 C395 0.930 . S
H388 C398 0.930 . S
H389 C399 0.930 . S
C390 H384 0.930 . S
C390 C391 1.355 . S
C390 C392 1.415 . S
C391 C390 1.355 . S
C391 C393 1.419 . S
C392 C390 1.415 . S
C392 C397 1.425 . S
C392 C399 1.409 . S
C393 H385 0.930 . S
C393 C391 1.419 . S
C393 C394 1.362 . S
C394 H386 0.930 . S
C394 C393 1.362 . S
C394 C397 1.409 . S
C395 H387 0.930 . S
C395 C396 1.355 . S
C395 C397 1.415 . S
C396 C395 1.355 . S
C396 C398 1.419 . S
C397 C392 1.425 . S
C397 C394 1.409 . S
C397 C395 1.415 . S
C398 H388 0.930 . S
C398 C396 1.419 . S
C398 C399 1.362 . S
C399 H389 0.930 . S
C399 C392 1.409 . S
C399 C398 1.362 . S
H400 C406 0.930 . S
H401 C409 0.930 . S
H402 C410 0.930 . S
H403 C411 0.930 . S
H404 C414 0.930 . S
H405 C415 0.930 . S
C406 H400 0.930 . S
C406 C407 1.355 . S
C406 C408 1.415 . S
C407 C406 1.355 . S
C407 C409 1.419 . S
C408 C406 1.415 . S
C408 C413 1.425 . S
C408 C415 1.409 . S
C409 H401 0.930 . S
C409 C407 1.419 . S
C409 C410 1.362 . S
C410 H402 0.930 . S
C410 C409 1.362 . S
C410 C413 1.409 . S
C411 H403 0.930 . S
C411 C412 1.355 . S
C411 C413 1.415 . S
C412 C411 1.355 . S
C412 C414 1.419 . S
C413 C408 1.425 . S
C413 C410 1.409 . S
C413 C411 1.415 . S
C414 H404 0.930 . S
C414 C412 1.419 . S
C414 C415 1.362 . S
C415 H405 0.930 . S
C415 C408 1.409 . S
C415 C414 1.362 . S
H416 C422 0.930 . S
H417 C425 0.930 . S
H418 C426 0.930 . S
H419 C427 0.930 . S
H420 C430 0.930 . S
H421 C431 0.930 . S
C422 H416 0.930 . S
C422 C423 1.355 . S
C422 C424 1.415 . S
C423 C422 1.355 . S
C423 C425 1.419 . S
C424 C422 1.415 . S
C424 C429 1.425 . S
C424 C431 1.409 . S
C425 H417 0.930 . S
C425 C423 1.419 . S
C425 C426 1.362 . S
C426 H418 0.930 . S
C426 C425 1.362 . S
C426 C429 1.409 . S
C427 H419 0.930 . S
C427 C428 1.355 . S
C427 C429 1.415 . S
C428 C427 1.355 . S
C428 C430 1.419 . S
C429 C424 1.425 . S
C429 C426 1.409 . S
C429 C427 1.415 . S
C430 H420 0.930 . S
C430 C428 1.419 . S
C430 C431 1.362 . S
C431 H421 0.930 . S
C431 C424 1.409 . S
C431 C430 1.362 . S
H432 C438 0.930 . S
H433 C441 0.930 . S
H434 C442 0.930 . S
H435 C443 0.930 . S
H436 C446 0.930 . S
H437 C447 0.930 . S
C438 H432 0.930 . S
C438 C439 1.355 . S
C438 C440 1.415 . S
C439 C438 1.355 . S
C439 C441 1.419 . S
C440 C438 1.415 . S
C440 C445 1.425 1_556 S
C440 C447 1.409 . S
C441 H433 0.930 . S
C441 C439 1.419 . S
C441 C442 1.362 1_556 S
C442 H434 0.930 . S
C442 C441 1.362 1_554 S
C442 C445 1.409 . S
C443 H435 0.930 . S
C443 C444 1.355 . S
C443 C445 1.415 . S
C444 C443 1.355 . S
C444 C446 1.419 1_554 S
C445 C440 1.425 1_554 S
C445 C442 1.409 . S
C445 C443 1.415 . S
C446 H436 0.930 . S
C446 C444 1.419 1_556 S
C446 C447 1.362 . S
C447 H437 0.930 . S
C447 C440 1.409 . S
C447 C446 1.362 . S
H448 C454 0.930 . S
H449 C457 0.930 . S
H450 C458 0.930 . S
H451 C459 0.930 . S
H452 C462 0.930 . S
H453 C463 0.930 . S
C454 H448 0.930 . S
C454 C455 1.355 . S
C454 C456 1.415 1_565 S
C455 C454 1.355 . S
C455 C457 1.419 . S
C456 C454 1.415 1_545 S
C456 C461 1.425 . S
C456 C463 1.409 . S
C457 H449 0.930 . S
C457 C455 1.419 . S
C457 C458 1.362 . S
C458 H450 0.930 . S
C458 C457 1.362 . S
C458 C461 1.409 1_565 S
C459 H451 0.930 . S
C459 C460 1.355 . S
C459 C461 1.415 . S
C460 C459 1.355 . S
C460 C462 1.419 . S
C461 C456 1.425 . S
C461 C458 1.409 1_545 S
C461 C459 1.415 . S
C462 H452 0.930 . S
C462 C460 1.419 . S
C462 C463 1.362 . S
C463 H453 0.930 . S
C463 C456 1.409 . S
C463 C462 1.362 . S
H464 C470 0.930 . S
H465 C473 0.930 . S
H466 C474 0.930 1_455 S
H467 C475 0.930 . S
H468 C478 0.930 . S
H469 C479 0.930 1_655 S
C470 H464 0.930 . S
C470 C471 1.355 . S
C470 C472 1.415 . S
C471 C470 1.355 . S
C471 C473 1.419 . S
C472 C470 1.415 . S
C472 C477 1.425 1_665 S
C472 C479 1.409 1_655 S
C473 H465 0.930 . S
C473 C471 1.419 . S
C473 C474 1.362 1_565 S
C474 H466 0.930 1_655 S
C474 C473 1.362 1_545 S
C474 C477 1.409 1_655 S
C475 H467 0.930 . S
C475 C476 1.355 . S
C475 C477 1.415 . S
C476 C475 1.355 . S
C476 C478 1.419 . S
C477 C472 1.425 1_445 S
C477 C474 1.409 1_455 S
C477 C475 1.415 . S
C478 H468 0.930 . S
C478 C476 1.419 . S
C478 C479 1.362 1_545 S
C479 H469 0.930 1_455 S
C479 C472 1.409 1_455 S
C479 C478 1.362 1_565 S
H480 C486 0.924 1_455 S
H481 C489 0.930 . S
H482 C490 0.930 . S
H483 C491 0.924 1_655 S
H484 C494 0.930 . S
H485 C495 0.930 . S
C486 H480 0.924 1_655 S
C486 C487 1.355 . S
C486 C488 1.415 1_655 S
C487 C486 1.355 . S
C487 C489 1.419 . S
C488 C486 1.415 1_455 S
C488 C493 1.425 1_455 S
C488 C495 1.409 . S
C489 H481 0.930 . S
C489 C487 1.419 . S
C489 C490 1.362 . S
C490 H482 0.930 . S
C490 C489 1.362 . S
C490 C493 1.409 . S
C491 H483 0.924 1_455 S
C491 C492 1.355 . S
C491 C493 1.415 1_455 S
C492 C491 1.355 . S
C492 C494 1.419 . S
C493 C488 1.425 1_655 S
C493 C490 1.409 . S
C493 C491 1.415 1_655 S
C494 H484 0.930 . S
C494 C492 1.419 . S
C494 C495 1.362 . S
C495 H485 0.930 . S
C495 C488 1.409 . S
C495 C494 1.362 . S
H496 C502 0.930 . S
H497 C505 0.930 . S
H498 C506 0.930 . S
H499 C507 0.930 . S
H500 C510 0.930 . S
H501 C511 0.930 . S
C502 H496 0.930 . S
C502 C503 1.355 . S
C502 C504 1.415 . S
C503 C502 1.355 . S
C503 C505 1.419 . S
C504 C502 1.415 . S
C504 C509 1.425 . S
C504 C511 1.409 . S
C505 H497 0.930 . S
C505 C503 1.419 . S
C505 C506 1.362 . S
C506 H498 0.930 . S
C506 C505 1.362 . S
C506 C509 1.409 . S
C507 H499 0.930 . S
C507 C508 1.355 . S
C507 C509 1.415 . S
C508 C507 1.355 . S
C508 C510 1.419 . S
C509 C504 1.425 . S
C509 C506 1.409 . S
C509 C507 1.415 . S
C510 H500 0.930 . S
C510 C508 1.419 . S
C510 C511 1.362 . S
C511 H501 0.930 . S
C511 C504 1.409 . S
C511 C510 1.362 . S
H512 C518 0.930 . S
H513 C521 0.930 . S
H514 C522 0.930 . S
H515 C523 0.930 . S
H516 C526 0.930 . S
H517 C527 0.930 . S
C518 H512 0.930 . S
C518 C519 1.355 . S
C518 C520 1.415 1_554 S
C519 C518 1.355 . S
C519 C521 1.419 . S
C520 C518 1.415 1_556 S
C520 C525 1.425 . S
C520 C527 1.409 . S
C521 H513 0.930 . S
C521 C519 1.419 . S
C521 C522 1.362 1_554 S
C522 H514 0.930 . S
C522 C521 1.362 1_556 S
C522 C525 1.409 . S
C523 H515 0.930 . S
C523 C524 1.355 . S
C523 C525 1.415 . S
C524 C523 1.355 . S
C524 C526 1.419 . S
C525 C520 1.425 . S
C525 C522 1.409 . S
C525 C523 1.415 . S
C526 H516 0.930 . S
C526 C524 1.419 . S
C526 C527 1.362 . S
C527 H517 0.930 . S
C527 C520 1.409 . S
C527 C526 1.362 . S
H528 C534 0.930 . S
H529 C537 0.930 . S
H530 C538 0.930 . S
H531 C539 0.930 . S
H532 C542 0.930 . S
H533 C543 0.930 . S
C534 H528 0.930 . S
C534 C535 1.355 . S
C534 C536 1.415 . S
C535 C534 1.355 . S
C535 C537 1.419 . S
C536 C534 1.415 . S
C536 C541 1.425 . S
C536 C543 1.409 . S
C537 H529 0.930 . S
C537 C535 1.419 . S
C537 C538 1.362 . S
C538 H530 0.930 . S
C538 C537 1.362 . S
C538 C541 1.409 . S
C539 H531 0.930 . S
C539 C540 1.355 . S
C539 C541 1.415 . S
C540 C539 1.355 . S
C540 C542 1.419 . S
C541 C536 1.425 . S
C541 C538 1.409 . S
C541 C539 1.415 . S
C542 H532 0.930 . S
C542 C540 1.419 . S
C542 C543 1.362 . S
C543 H533 0.930 . S
C543 C536 1.409 . S
C543 C542 1.362 . S
C295 C194 1.411 . S
C300 C4 1.515 . S
C311 C266 1.432 . S
C316 C40 1.518 . S
C327 C74 1.517 . S
C332 C218 1.510 . S
C343 C111 1.535 . S
C348 C147 1.517 . S
C359 C220 1.521 . S
C364 C14 1.479 . S
C375 C38 1.509 . S
C380 C146 1.499 . S
C391 C183 1.534 . S
C396 C75 1.521 . S
C407 C122 1.431 . S
C412 C256 1.516 . S
C423 C158 1.426 . S
C428 C184 1.516 . S
C439 C50 1.454 . S
C444 C76 1.518 . S
C455 C112 1.516 . S
C460 C86 1.416 . S
C471 C110 1.501 . S
C476 C2 1.515 . S
C487 C39 1.519 . S
C492 C3 1.517 . S
C503 C255 1.514 . S
C508 C219 1.522 . S
C519 C148 1.515 . S
C524 C230 1.411 . S
C535 C182 1.512 . S
C540 C254 1.500 . S
