# Generated by pormake.
# Topology una, (4)-cn, num edge types: 1
# Building blocks:
#     Node 0, Type 0, BuildingBlock: CEKHIL_clean_sbu_0, # of connection points: 4
#     Node 1, Type 0, BuildingBlock: CEKHIL_clean_sbu_0, # of connection points: 4
#     Node 2, Type 0, BuildingBlock: CEKHIL_clean_sbu_0, # of connection points: 4
#     Node 3, Type 0, BuildingBlock: CEKHIL_clean_sbu_0, # of connection points: 4
#     Node 4, Type 0, BuildingBlock: CEKHIL_clean_sbu_0, # of connection points: 4
#     Node 5, Type 0, BuildingBlock: CEKHIL_clean_sbu_0, # of connection points: 4
#     Node 6, Type 0, BuildingBlock: CEKHIL_clean_sbu_0, # of connection points: 4
#     Node 7, Type 0, BuildingBlock: CEKHIL_clean_sbu_0, # of connection points: 4
#     Node 8, Type 0, BuildingBlock: CEKHIL_clean_sbu_0, # of connection points: 4
#     Node 9, Type 0, BuildingBlock: CEKHIL_clean_sbu_0, # of connection points: 4
#     Node 10, Type 0, BuildingBlock: CEKHIL_clean_sbu_0, # of connection points: 4
#     Node 11, Type 0, BuildingBlock: CEKHIL_clean_sbu_0, # of connection points: 4
#     Edge 12, Type (0, 0), BuildingBlock: XUDNAN_clean_linker_2, # of connection points: 2
#     Edge 13, Type (0, 0), BuildingBlock: XUDNAN_clean_linker_2, # of connection points: 2
#     Edge 14, Type (0, 0), BuildingBlock: XUDNAN_clean_linker_2, # of connection points: 2
#     Edge 15, Type (0, 0), BuildingBlock: XUDNAN_clean_linker_2, # of connection points: 2
#     Edge 16, Type (0, 0), BuildingBlock: XUDNAN_clean_linker_2, # of connection points: 2
#     Edge 17, Type (0, 0), BuildingBlock: XUDNAN_clean_linker_2, # of connection points: 2
#     Edge 18, Type (0, 0), BuildingBlock: XUDNAN_clean_linker_2, # of connection points: 2
#     Edge 19, Type (0, 0), BuildingBlock: XUDNAN_clean_linker_2, # of connection points: 2
#     Edge 20, Type (0, 0), BuildingBlock: XUDNAN_clean_linker_2, # of connection points: 2
#     Edge 21, Type (0, 0), BuildingBlock: XUDNAN_clean_linker_2, # of connection points: 2
#     Edge 22, Type (0, 0), BuildingBlock: XUDNAN_clean_linker_2, # of connection points: 2
#     Edge 23, Type (0, 0), BuildingBlock: XUDNAN_clean_linker_2, # of connection points: 2
#     Edge 24, Type (0, 0), BuildingBlock: XUDNAN_clean_linker_2, # of connection points: 2
#     Edge 25, Type (0, 0), BuildingBlock: XUDNAN_clean_linker_2, # of connection points: 2
#     Edge 26, Type (0, 0), BuildingBlock: XUDNAN_clean_linker_2, # of connection points: 2
#     Edge 27, Type (0, 0), BuildingBlock: XUDNAN_clean_linker_2, # of connection points: 2
#     Edge 28, Type (0, 0), BuildingBlock: XUDNAN_clean_linker_2, # of connection points: 2
#     Edge 29, Type (0, 0), BuildingBlock: XUDNAN_clean_linker_2, # of connection points: 2
#     Edge 30, Type (0, 0), BuildingBlock: XUDNAN_clean_linker_2, # of connection points: 2
#     Edge 31, Type (0, 0), BuildingBlock: XUDNAN_clean_linker_2, # of connection points: 2
#     Edge 32, Type (0, 0), BuildingBlock: XUDNAN_clean_linker_2, # of connection points: 2
#     Edge 33, Type (0, 0), BuildingBlock: XUDNAN_clean_linker_2, # of connection points: 2
#     Edge 34, Type (0, 0), BuildingBlock: XUDNAN_clean_linker_2, # of connection points: 2
#     Edge 35, Type (0, 0), BuildingBlock: XUDNAN_clean_linker_2, # of connection points: 2
# Relax obj value: 0.022
# Max RMSD: 0.036
# Mean RMSD: 0.036
data_MOF--net-una--node1-CEKHIL_clean_sbu_0--edge1-XUDNAN_clean_linker_2
_symmetry_space_group_name_H-M    P1
_symmetry_Int_Tables_number       1
_symmetry_cell_setting            triclinic
loop_
_symmetry_equiv_pos_as_xyz
'x, y, z'
_cell_length_a     57.617467
_cell_length_b     57.627356
_cell_length_c     21.895006
_cell_angle_alpha  89.990707
_cell_angle_beta   89.985498
_cell_angle_gamma 120.02451
loop_
_atom_site_label
_atom_site_type_symbol
_atom_site_fract_x
_atom_site_fract_y
_atom_site_fract_z
_atom_type_partial_charge
Co0 Co 0.13151 0.44439 0.0193 0.0
O1 O 0.10534 0.43802 0.95687 0.0
O2 O 0.09605 0.41654 0.04497 0.0
C3 C 0.16183 0.44483 0.9532 0.0
O4 O 0.15397 0.44459 0.09339 0.0
Co5 Co 0.1882 0.49563 0.01519 0.0
O6 O 0.19687 0.47695 0.07891 0.0
C7 C 0.1403 0.49959 0.04679 0.0
C8 C 0.08761 0.4196 0.99201 0.0
C9 C 0.17907 0.45691 0.10867 0.0
O10 O 0.12608 0.47398 0.05527 0.0
O11 O 0.16417 0.51099 0.0254 0.0
O12 O 0.14265 0.42203 0.97347 0.0
O13 O 0.16091 0.4656 0.97077 0.0
Co14 Co 0.69513 0.13049 0.18116 0.0
O15 O 0.67288 0.10373 0.12226 0.0
O16 O 0.68983 0.09554 0.20444 0.0
C17 C 0.72107 0.16002 0.10892 0.0
O18 O 0.72041 0.15396 0.25062 0.0
Co19 Co 0.69845 0.18582 0.18225 0.0
O20 O 0.72987 0.1964 0.23531 0.0
C21 C 0.65079 0.13846 0.23374 0.0
C22 C 0.67589 0.08657 0.15435 0.0
C23 C 0.73378 0.17931 0.26345 0.0
O24 O 0.6619 0.12397 0.22748 0.0
O25 O 0.66148 0.16279 0.21564 0.0
O26 O 0.72619 0.14169 0.12782 0.0
O27 O 0.70009 0.15917 0.13217 0.0
Co28 Co 0.5749 0.69635 0.35971 0.0
O29 O 0.57941 0.6753 0.29777 0.0
O30 O 0.59811 0.68318 0.38921 0.0
C31 C 0.58231 0.72966 0.29481 0.0
O32 O 0.57581 0.71903 0.43385 0.0
Co33 Co 0.52942 0.70956 0.35014 0.0
O34 O 0.55224 0.73893 0.40695 0.0
C35 C 0.517 0.6557 0.3916 0.0
C36 C 0.59512 0.67243 0.33531 0.0
C37 C 0.5688 0.73693 0.44185 0.0
O38 O 0.5421 0.66318 0.3913 0.0
O39 O 0.50781 0.67082 0.37454 0.0
O40 O 0.60219 0.7288 0.32037 0.0
O41 O 0.55871 0.70968 0.30651 0.0
Co42 Co 0.87141 0.56118 0.52208 0.0
O43 O 0.8915 0.55891 0.4552 0.0
O44 O 0.90897 0.59044 0.52536 0.0
C45 C 0.83736 0.55533 0.461 0.0
O46 O 0.85453 0.56934 0.59688 0.0
Co47 Co 0.81577 0.51185 0.54987 0.0
O48 O 0.81051 0.53879 0.59355 0.0
C49 C 0.86508 0.51179 0.58738 0.0
C50 C 0.91216 0.5805 0.47456 0.0
C51 C 0.82998 0.56042 0.61441 0.0
O52 O 0.87976 0.53644 0.57103 0.0
O53 O 0.83964 0.49835 0.57999 0.0
O54 O 0.8579 0.57905 0.4693 0.0
O55 O 0.83866 0.536 0.4874 0.0
Co56 Co 0.31119 0.87163 0.6937 0.0
O57 O 0.33252 0.89098 0.62432 0.0
O58 O 0.32392 0.91019 0.70119 0.0
C59 C 0.27853 0.83961 0.63519 0.0
O60 O 0.28806 0.85647 0.77189 0.0
Co61 Co 0.297 0.81239 0.71484 0.0
O62 O 0.26843 0.81149 0.76636 0.0
C63 C 0.351 0.85727 0.74824 0.0
C64 C 0.33449 0.91255 0.64725 0.0
C65 C 0.27054 0.8326 0.79037 0.0
O66 O 0.34413 0.875 0.73642 0.0
O67 O 0.33564 0.83214 0.73869 0.0
O68 O 0.27866 0.86183 0.64582 0.0
O69 O 0.29849 0.83822 0.65729 0.0
Co70 Co 0.43449 0.30934 0.8556 0.0
O71 O 0.42954 0.33057 0.79461 0.0
O72 O 0.40413 0.31407 0.87659 0.0
C73 C 0.43869 0.28253 0.78641 0.0
O74 O 0.43387 0.28559 0.92768 0.0
Co75 Co 0.48808 0.30836 0.85648 0.0
O76 O 0.46955 0.2797 0.91759 0.0
C77 C 0.48668 0.35592 0.90237 0.0
C78 C 0.40926 0.32769 0.82595 0.0
C79 C 0.448 0.27488 0.94464 0.0
O80 O 0.46087 0.34356 0.8994 0.0
O81 O 0.5009 0.34597 0.8837 0.0
O82 O 0.41507 0.27723 0.80445 0.0
O83 O 0.45841 0.30425 0.80799 0.0
Co84 Co 0.56894 0.8694 0.90846 0.0
O85 O 0.57283 0.89126 0.97783 0.0
O86 O 0.59264 0.90752 0.88932 0.0
C87 C 0.57714 0.84117 0.96367 0.0
O88 O 0.57001 0.85099 0.82822 0.0
Co89 Co 0.52323 0.8107 0.91053 0.0
O90 O 0.54435 0.80663 0.8446 0.0
C91 C 0.51067 0.85351 0.88465 0.0
C92 C 0.58941 0.91186 0.94634 0.0
C93 C 0.56153 0.82628 0.81285 0.0
O94 O 0.53594 0.87073 0.8818 0.0
O95 O 0.50166 0.82902 0.89986 0.0
O96 O 0.59659 0.86304 0.94093 0.0
O97 O 0.5534 0.83781 0.95575 0.0
Co98 Co 0.69585 0.56037 0.0692 0.0
O99 O 0.67571 0.55851 0.14055 0.0
O100 O 0.6868 0.58894 0.06819 0.0
C101 C 0.72642 0.55556 0.1236 0.0
O102 O 0.71859 0.56886 0.99062 0.0
Co103 Co 0.70235 0.5116 0.03591 0.0
O104 O 0.7311 0.5376 0.98182 0.0
C105 C 0.64992 0.50872 0.02276 0.0
C106 C 0.67575 0.57971 0.12131 0.0
C107 C 0.73288 0.5597 0.96612 0.0
O108 O 0.66135 0.53446 0.02596 0.0
O109 O 0.66249 0.49592 0.03145 0.0
O110 O 0.72889 0.57908 0.11674 0.0
O111 O 0.70522 0.53593 0.09982 0.0
Co112 Co 0.12973 0.70109 0.23667 0.0
O113 O 0.10377 0.67826 0.29656 0.0
O114 O 0.0942 0.69431 0.21442 0.0
C115 C 0.15964 0.72707 0.30815 0.0
O116 O 0.15177 0.72678 0.16652 0.0
Co117 Co 0.18632 0.70765 0.22878 0.0
O118 O 0.19529 0.74102 0.1844 0.0
C119 C 0.13934 0.6584 0.18077 0.0
C120 C 0.08597 0.68015 0.26429 0.0
C121 C 0.17699 0.74302 0.15661 0.0
O122 O 0.12393 0.66833 0.18958 0.0
O123 O 0.16415 0.6704 0.19573 0.0
O124 O 0.14076 0.73183 0.2914 0.0
O125 O 0.15932 0.70678 0.28258 0.0
Co126 Co 0.43915 0.13155 0.40633 0.0
O127 O 0.43389 0.10659 0.47128 0.0
O128 O 0.41187 0.09534 0.38384 0.0
C129 C 0.43952 0.16301 0.46863 0.0
O130 O 0.43826 0.15241 0.32992 0.0
Co131 Co 0.49027 0.18837 0.4047 0.0
O132 O 0.47214 0.1952 0.33638 0.0
C133 C 0.49433 0.14029 0.37816 0.0
C134 C 0.41583 0.08792 0.43721 0.0
C135 C 0.45128 0.17687 0.30996 0.0
O136 O 0.4687 0.12606 0.37061 0.0
O137 O 0.5059 0.16441 0.39797 0.0
O138 O 0.41673 0.14294 0.45096 0.0
O139 O 0.46041 0.16214 0.45175 0.0
Co140 Co 0.30979 0.44117 0.56758 0.0
O141 O 0.33091 0.43685 0.63032 0.0
O142 O 0.31679 0.41241 0.54633 0.0
C143 C 0.28092 0.44285 0.63503 0.0
O144 O 0.28642 0.43919 0.49368 0.0
Co145 Co 0.30238 0.49137 0.56578 0.0
O146 O 0.27644 0.47234 0.49987 0.0
C147 C 0.35454 0.49596 0.53183 0.0
C148 C 0.32914 0.41711 0.59855 0.0
C149 C 0.27417 0.45146 0.47434 0.0
O150 O 0.34403 0.47023 0.52726 0.0
O151 O 0.34162 0.50701 0.5525 0.0
O152 O 0.27716 0.41974 0.61699 0.0
O153 O 0.30198 0.46334 0.61386 0.0
Co154 Co 0.87307 0.30641 0.732 0.0
O155 O 0.89182 0.32329 0.80597 0.0
O156 O 0.91099 0.3167 0.72567 0.0
C157 C 0.83796 0.27272 0.78127 0.0
O158 O 0.85827 0.28756 0.64892 0.0
Co159 Co 0.81683 0.30076 0.7103 0.0
O160 O 0.81525 0.27812 0.641 0.0
C161 C 0.86606 0.35367 0.7043 0.0
C162 C 0.91317 0.32526 0.78167 0.0
C163 C 0.83523 0.27652 0.62149 0.0
O164 O 0.8806 0.34253 0.69949 0.0
O165 O 0.84089 0.34046 0.71554 0.0
O166 O 0.85935 0.27116 0.77094 0.0
O167 O 0.83942 0.29487 0.76525 0.0
H168 H 0.2268 0.48615 0.16734 0.0
H169 H 0.15301 0.40954 0.17602 0.0
H170 H 0.17077 0.39721 0.26638 0.0
H171 H 0.27219 0.46328 0.21139 0.0
H172 H 0.29313 0.49307 0.25512 0.0
H173 H 0.27488 0.49476 0.19011 0.0
H174 H 0.25251 0.51498 0.25794 0.0
H175 H 0.27093 0.51368 0.32285 0.0
H176 H 0.23489 0.49749 0.32613 0.0
H177 H 0.19802 0.39432 0.35931 0.0
H178 H 0.22881 0.4032 0.44728 0.0
H179 H 0.28291 0.48209 0.37476 0.0
C180 C 0.21426 0.4666 0.18757 0.0
C181 C 0.18849 0.44874 0.16391 0.0
C182 C 0.1728 0.4236 0.19306 0.0
C183 C 0.18284 0.41639 0.24423 0.0
C184 C 0.20853 0.43456 0.26585 0.0
C185 C 0.22381 0.45927 0.23835 0.0
C186 C 0.25012 0.4761 0.27117 0.0
C187 C 0.27398 0.48215 0.22945 0.0
C188 C 0.25222 0.50208 0.29601 0.0
C189 C 0.2474 0.45727 0.32221 0.0
C190 C 0.22354 0.43318 0.31838 0.0
C191 C 0.21677 0.41308 0.36221 0.0
C192 C 0.23444 0.41814 0.41172 0.0
C193 C 0.25835 0.44316 0.41713 0.0
C194 C 0.26493 0.46263 0.37117 0.0
H195 H 0.82101 0.28798 0.51341 0.0
H196 H 0.83559 0.22953 0.60262 0.0
H197 H 0.81416 0.19827 0.51547 0.0
H198 H 0.75811 0.24463 0.46369 0.0
H199 H 0.76055 0.26095 0.3918 0.0
H200 H 0.78112 0.28005 0.45501 0.0
H201 H 0.824 0.29603 0.38977 0.0
H202 H 0.80351 0.27739 0.32569 0.0
H203 H 0.82986 0.27164 0.35194 0.0
H204 H 0.78386 0.17077 0.42393 0.0
H205 H 0.75248 0.15233 0.33601 0.0
H206 H 0.75958 0.23024 0.30912 0.0
C207 C 0.82082 0.26908 0.51317 0.0
C208 C 0.83059 0.26141 0.56379 0.0
C209 C 0.82902 0.2361 0.56326 0.0
C210 C 0.8166 0.21814 0.51419 0.0
C211 C 0.80612 0.22595 0.46585 0.0
C212 C 0.80873 0.25117 0.46466 0.0
C213 C 0.79421 0.25436 0.41063 0.0
C214 C 0.7722 0.26033 0.43157 0.0
C215 C 0.81408 0.27614 0.36691 0.0
C216 C 0.78227 0.2268 0.38228 0.0
C217 C 0.78926 0.21054 0.41424 0.0
C218 C 0.77876 0.1836 0.39808 0.0
C219 C 0.76083 0.17322 0.34814 0.0
C220 C 0.75355 0.18973 0.31488 0.0
C221 C 0.76479 0.21692 0.33252 0.0
H222 H 0.55808 0.724 0.56277 0.0
H223 H 0.59833 0.79112 0.43887 0.0
H224 H 0.60548 0.82254 0.52346 0.0
H225 H 0.52181 0.74818 0.63667 0.0
H226 H 0.52299 0.73588 0.71163 0.0
H227 H 0.52565 0.71914 0.64497 0.0
H228 H 0.57076 0.72514 0.68417 0.0
H229 H 0.56806 0.74163 0.75152 0.0
H230 H 0.59753 0.75814 0.7041 0.0
H231 H 0.60318 0.84632 0.61969 0.0
H232 H 0.59163 0.85974 0.71771 0.0
H233 H 0.55169 0.77668 0.77678 0.0
C234 C 0.5695 0.74538 0.55435 0.0
C235 C 0.57851 0.75527 0.49492 0.0
C236 C 0.592 0.78328 0.4846 0.0
C237 C 0.59603 0.80125 0.53232 0.0
C238 C 0.58618 0.79089 0.5902 0.0
C239 C 0.57332 0.76356 0.60143 0.0
C240 C 0.56199 0.75731 0.66564 0.0
C241 C 0.5313 0.73906 0.66462 0.0
C242 C 0.57539 0.74482 0.7036 0.0
C243 C 0.56996 0.7852 0.68825 0.0
C244 C 0.58415 0.80441 0.64456 0.0
C245 C 0.59236 0.83143 0.65452 0.0
C246 C 0.5857 0.83891 0.71035 0.0
C247 C 0.57072 0.8194 0.75532 0.0
C248 C 0.56319 0.79228 0.7438 0.0
H249 H 0.78122 0.55523 0.63669 0.0
H250 H 0.86224 0.5933 0.70793 0.0
H251 H 0.84671 0.60563 0.80183 0.0
H252 H 0.75985 0.60066 0.70947 0.0
H253 H 0.72669 0.57281 0.72342 0.0
H254 H 0.7454 0.57263 0.65757 0.0
H255 H 0.73959 0.52697 0.69187 0.0
H256 H 0.72097 0.52702 0.75752 0.0
H257 H 0.75035 0.52389 0.76726 0.0
H258 H 0.82025 0.60602 0.89529 0.0
H259 H 0.78638 0.59382 0.97715 0.0
H260 H 0.72287 0.55477 0.84435 0.0
C261 C 0.79599 0.56692 0.67113 0.0
C262 C 0.82305 0.57339 0.66466 0.0
C263 C 0.84153 0.58845 0.71126 0.0
C264 C 0.8328 0.59545 0.76487 0.0
C265 C 0.80562 0.58757 0.77079 0.0
C266 C 0.78759 0.57384 0.72457 0.0
C267 C 0.75901 0.56454 0.74416 0.0
C268 C 0.74704 0.5785 0.70641 0.0
C269 C 0.74148 0.5338 0.73998 0.0
C270 C 0.76342 0.57404 0.80979 0.0
C271 C 0.79048 0.58781 0.82413 0.0
C272 C 0.79915 0.596 0.88392 0.0
C273 C 0.77979 0.58918 0.93013 0.0
C274 C 0.75208 0.57434 0.91649 0.0
C275 C 0.74391 0.56727 0.85537 0.0
H276 H 0.22287 0.78822 0.8183 0.0
H277 H 0.28104 0.86626 0.88925 0.0
H278 H 0.25786 0.8539 0.98945 0.0
H279 H 0.16362 0.77938 0.91041 0.0
H280 H 0.15151 0.74406 0.91972 0.0
H281 H 0.16943 0.76107 0.85138 0.0
H282 H 0.20317 0.74455 0.87023 0.0
H283 H 0.18554 0.72769 0.93857 0.0
H284 H 0.22082 0.75198 0.94198 0.0
H285 H 0.23387 0.82951 0.08634 0.0
H286 H 0.21021 0.79661 0.16883 0.0
H287 H 0.16661 0.7349 0.03419 0.0
C288 C 0.23028 0.80311 0.85428 0.0
C289 C 0.25378 0.82833 0.84571 0.0
C290 C 0.26291 0.84703 0.89427 0.0
C291 C 0.24988 0.84008 0.95147 0.0
C292 C 0.22746 0.81454 0.95903 0.0
C293 C 0.21747 0.79653 0.91123 0.0
C294 C 0.19482 0.76947 0.93212 0.0
C295 C 0.16827 0.76313 0.90159 0.0
C296 C 0.20151 0.74713 0.92002 0.0
C297 C 0.19434 0.77454 0.9999 0.0
C298 C 0.21312 0.80076 0.01449 0.0
C299 C 0.21856 0.80925 0.07511 0.0
C300 C 0.20499 0.79046 0.12171 0.0
C301 C 0.18596 0.7635 0.10774 0.0
C302 C 0.18016 0.75566 0.046 0.0
H303 H 0.48448 0.2117 0.22496 0.0
H304 H 0.40013 0.16123 0.26635 0.0
H305 H 0.38874 0.18073 0.17745 0.0
H306 H 0.48279 0.26953 0.1826 0.0
H307 H 0.5072 0.27867 0.12244 0.0
H308 H 0.50793 0.25968 0.18693 0.0
H309 H 0.50477 0.22259 0.11458 0.0
H310 H 0.50444 0.24165 0.04977 0.0
H311 H 0.47784 0.20752 0.05986 0.0
H312 H 0.38798 0.21008 0.08483 0.0
H313 H 0.39774 0.24083 0.99619 0.0
H314 H 0.48257 0.26956 0.01906 0.0
C315 C 0.46353 0.20446 0.21509 0.0
C316 C 0.44319 0.18496 0.25271 0.0
C317 C 0.41605 0.17598 0.23786 0.0
C318 C 0.40946 0.18713 0.1877 0.0
C319 C 0.43024 0.20696 0.15244 0.0
C320 C 0.45672 0.21506 0.16534 0.0
C321 C 0.47567 0.23641 0.12151 0.0
C322 C 0.49449 0.26261 0.15541 0.0
C323 C 0.4916 0.22644 0.08422 0.0
C324 C 0.45593 0.23952 0.0819 0.0
C325 C 0.42976 0.22266 0.10009 0.0
C326 C 0.40845 0.22308 0.07016 0.0
C327 C 0.41414 0.24072 0.02007 0.0
C328 C 0.44088 0.25746 1.00003 0.0
C329 C 0.46182 0.2568 0.03227 0.0
H330 H 0.16182 0.55163 0.01356 0.0
H331 H 0.09586 0.4894 0.11742 0.0
H332 H 0.0834 0.52291 0.15162 0.0
H333 H 0.18263 0.59996 0.12329 0.0
H334 H 0.19272 0.6274 0.07058 0.0
H335 H 0.19283 0.59766 0.04674 0.0
H336 H 0.16164 0.59235 0.95592 0.0
H337 H 0.16137 0.62216 0.97967 0.0
H338 H 0.13023 0.59113 0.97027 0.0
H339 H 0.08194 0.56572 0.1829 0.0
H340 H 0.09353 0.61193 0.21275 0.0
H341 H 0.16182 0.6443 0.09092 0.0
C342 C 0.14441 0.54467 0.04273 0.0
C343 C 0.12987 0.51778 0.06292 0.0
C344 C 0.10725 0.50984 0.10105 0.0
C345 C 0.10003 0.52876 0.12056 0.0
C346 C 0.11551 0.55538 0.10103 0.0
C347 C 0.13721 0.56311 0.06272 0.0
C348 C 0.15268 0.59306 0.0529 0.0
C349 C 0.18192 0.60521 0.07472 0.0
C350 C 0.15139 0.60008 0.9857 0.0
C351 C 0.13694 0.60139 0.0933 0.0
C352 C 0.11515 0.57951 0.11978 0.0
C353 C 0.09874 0.58285 0.16167 0.0
C354 C 0.10533 0.60912 0.17812 0.0
C355 C 0.12843 0.63151 0.15361 0.0
C356 C 0.14388 0.62747 0.10967 0.0
H357 H 0.63813 0.16083 0.32594 0.0
H358 H 0.60404 0.09239 0.20474 0.0
H359 H 0.55827 0.08077 0.23871 0.0
H360 H 0.58627 0.12978 0.45066 0.0
H361 H 0.58806 0.16143 0.46506 0.0
H362 H 0.61738 0.16066 0.43931 0.0
H363 H 0.62198 0.1917 0.34877 0.0
H364 H 0.59258 0.19227 0.37353 0.0
H365 H 0.5942 0.18159 0.29706 0.0
H366 H 0.51608 0.08233 0.27348 0.0
H367 H 0.48317 0.09531 0.30911 0.0
H368 H 0.54663 0.16169 0.40935 0.0
C369 C 0.62102 0.14279 0.30842 0.0
C370 C 0.6244 0.1273 0.26345 0.0
C371 C 0.60172 0.10415 0.24025 0.0
C372 C 0.57571 0.09754 0.25909 0.0
C373 C 0.57297 0.114 0.30196 0.0
C374 C 0.59521 0.13583 0.32724 0.0
C375 C 0.58744 0.15191 0.36807 0.0
C376 C 0.59524 0.15087 0.43473 0.0
C377 C 0.59977 0.18106 0.34545 0.0
C378 C 0.55742 0.1366 0.35983 0.0
C379 C 0.54916 0.11462 0.32216 0.0
C380 C 0.52235 0.09916 0.3041 0.0
C381 C 0.50377 0.10667 0.32446 0.0
C382 C 0.51224 0.12957 0.36192 0.0
C383 C 0.5393 0.14407 0.38078 0.0
H384 H 0.38101 0.55002 0.54388 0.0
H385 H 0.39158 0.48547 0.47339 0.0
H386 H 0.43686 0.5194 0.43549 0.0
H387 H 0.40832 0.59256 0.42018 0.0
H388 H 0.42308 0.62266 0.46566 0.0
H389 H 0.39353 0.59318 0.4923 0.0
H390 H 0.41792 0.59452 0.59296 0.0
H391 H 0.4476 0.62413 0.56672 0.0
H392 H 0.44944 0.59505 0.58966 0.0
H393 H 0.48128 0.56259 0.40206 0.0
H394 H 0.51691 0.6084 0.37189 0.0
H395 H 0.47306 0.64188 0.46059 0.0
C396 C 0.39266 0.54259 0.52102 0.0
C397 C 0.38251 0.51486 0.51167 0.0
C398 C 0.39886 0.50655 0.48135 0.0
C399 C 0.4246 0.52571 0.45977 0.0
C400 C 0.43357 0.55297 0.46902 0.0
C401 C 0.41783 0.56116 0.49902 0.0
C402 C 0.43051 0.59127 0.50041 0.0
C403 C 0.41281 0.60043 0.46767 0.0
C404 C 0.43674 0.60185 0.56636 0.0
C405 C 0.45583 0.59913 0.46522 0.0
C406 C 0.45776 0.577 0.44832 0.0
C407 C 0.4798 0.5799 0.41522 0.0
C408 C 0.49995 0.60594 0.39843 0.0
C409 C 0.49751 0.62854 0.41363 0.0
C410 C 0.4753 0.62493 0.44792 0.0
H411 H 0.84675 0.47779 0.68289 0.0
H412 H 0.91032 0.51169 0.54851 0.0
H413 H 0.92371 0.47836 0.57731 0.0
H414 H 0.88293 0.45726 0.79786 0.0
H415 H 0.85183 0.42746 0.81663 0.0
H416 H 0.85188 0.45771 0.79525 0.0
H417 H 0.81727 0.43157 0.71008 0.0
H418 H 0.81732 0.40147 0.7305 0.0
H419 H 0.82505 0.41383 0.65323 0.0
H420 H 0.92328 0.43501 0.60621 0.0
H421 H 0.91011 0.38825 0.63452 0.0
H422 H 0.84775 0.38475 0.75153 0.0
C423 C 0.86419 0.47886 0.66138 0.0
C424 C 0.87765 0.49726 0.61397 0.0
C425 C 0.90009 0.49794 0.58579 0.0
C426 C 0.90774 0.47904 0.60178 0.0
C427 C 0.89311 0.46015 0.64695 0.0
C428 C 0.87217 0.46045 0.67729 0.0
C429 C 0.85752 0.43651 0.71886 0.0
C430 C 0.86128 0.44527 0.78614 0.0
C431 C 0.82755 0.41988 0.70209 0.0
C432 C 0.87224 0.42167 0.70433 0.0
C433 C 0.89307 0.43567 0.66377 0.0
C434 C 0.90746 0.42423 0.63918 0.0
C435 C 0.89988 0.39768 0.65544 0.0
C436 C 0.87787 0.38289 0.69503 0.0
C437 C 0.86468 0.39554 0.72115 0.0
H438 H 0.36435 0.82583 0.81377 0.0
H439 H 0.39827 0.90627 0.74049 0.0
H440 H 0.44353 0.91598 0.774 0.0
H441 H 0.40868 0.84225 0.94576 0.0
H442 H 0.40963 0.81157 0.93873 0.0
H443 H 0.3803 0.81269 0.91473 0.0
H444 H 0.38386 0.79573 0.80735 0.0
H445 H 0.41326 0.79476 0.83075 0.0
H446 H 0.41457 0.81399 0.76457 0.0
H447 H 0.486 0.91447 0.80822 0.0
H448 H 0.51998 0.90261 0.84096 0.0
H449 H 0.45611 0.82295 0.88969 0.0
C450 C 0.38117 0.84569 0.8053 0.0
C451 C 0.37777 0.86527 0.77424 0.0
C452 C 0.40038 0.891 0.76455 0.0
C453 C 0.42614 0.89662 0.78326 0.0
C454 C 0.42877 0.87639 0.81214 0.0
C455 C 0.40669 0.85154 0.82353 0.0
C456 C 0.41441 0.83251 0.85209 0.0
C457 C 0.40256 0.82429 0.91666 0.0
C458 C 0.40603 0.80781 0.81124 0.0
C459 C 0.44447 0.85023 0.85408 0.0
C460 C 0.45258 0.87554 0.83134 0.0
C461 C 0.47974 0.89478 0.82663 0.0
C462 C 0.4989 0.88783 0.84529 0.0
C463 C 0.49083 0.86181 0.868 0.0
C464 C 0.46316 0.84304 0.87281 0.0
H465 H 0.51824 0.3697 1.00119 0.0
H466 H 0.49081 0.40245 0.85943 0.0
H467 H 0.52679 0.44838 0.88672 0.0
H468 H 0.54327 0.42913 0.11167 0.0
H469 H 0.57095 0.42468 0.13357 0.0
H470 H 0.53919 0.39601 0.11322 0.0
H471 H 0.56319 0.38268 0.03216 0.0
H472 H 0.5948 0.41141 0.05117 0.0
H473 H 0.58289 0.40641 0.97349 0.0
H474 H 0.57155 0.4895 0.91677 0.0
H475 H 0.61873 0.52066 0.94754 0.0
H476 H 0.61589 0.45964 0.06797 0.0
C477 C 0.51902 0.38673 0.97821 0.0
C478 C 0.50158 0.38283 0.92938 0.0
C479 C 0.50361 0.40527 0.89826 0.0
C480 C 0.52408 0.43136 0.9133 0.0
C481 C 0.54194 0.43449 0.96007 0.0
C482 C 0.53914 0.41267 0.99289 0.0
C483 C 0.56252 0.42047 0.03547 0.0
C484 C 0.55344 0.4174 0.10245 0.0
C485 C 0.57667 0.4043 0.0222 0.0
C486 C 0.57992 0.44962 0.01858 0.0
C487 C 0.5676 0.45773 0.9763 0.0
C488 C 0.58108 0.48345 0.95084 0.0
C489 C 0.60785 0.50102 0.96843 0.0
C490 C 0.62089 0.49245 0.00985 0.0
C491 C 0.60641 0.4667 0.03608 0.0
H492 H 0.23617 0.40429 0.6984 0.0
H493 H 0.28784 0.49024 0.6739 0.0
H494 H 0.26395 0.49869 0.75496 0.0
H495 H 0.17519 0.40754 0.72835 0.0
H496 H 0.16252 0.38136 0.78508 0.0
H497 H 0.18352 0.38131 0.72416 0.0
H498 H 0.21601 0.37993 0.80388 0.0
H499 H 0.19527 0.38032 0.86507 0.0
H500 H 0.23028 0.4055 0.86193 0.0
H501 H 0.23749 0.49907 0.83931 0.0
H502 H 0.20451 0.49152 0.91815 0.0
H503 H 0.16684 0.40541 0.89068 0.0
C504 C 0.24217 0.42482 0.70987 0.0
C505 C 0.26398 0.44659 0.67992 0.0
C506 C 0.27129 0.47319 0.6961 0.0
C507 C 0.25792 0.47829 0.74239 0.0
C508 C 0.23705 0.4566 0.77197 0.0
C509 C 0.22873 0.43039 0.75616 0.0
C510 C 0.20506 0.41113 0.79545 0.0
C511 C 0.18009 0.39434 0.75589 0.0
C512 C 0.21208 0.39316 0.83386 0.0
C513 C 0.20166 0.43081 0.83549 0.0
C514 C 0.2207 0.45685 0.82107 0.0
C515 C 0.2223 0.47882 0.85094 0.0
C516 C 0.20343 0.47423 0.89591 0.0
C517 C 0.18298 0.44787 0.91053 0.0
C518 C 0.18231 0.42576 0.88057 0.0
H519 H 0.76823 0.1695 0.05495 0.0
H520 H 0.70574 0.19061 0.04572 0.0
H521 H 0.72679 0.21771 0.95399 0.0
H522 H 0.82184 0.23457 0.01129 0.0
H523 H 0.83955 0.22176 0.96773 0.0
H524 H 0.81881 0.20279 0.0311 0.0
H525 H 0.79234 0.16199 0.95962 0.0
H526 H 0.81277 0.18103 0.89578 0.0
H527 H 0.77681 0.16572 0.8917 0.0
H528 H 0.75383 0.24234 0.86487 0.0
H529 H 0.7892 0.26863 0.79002 0.0
H530 H 0.83561 0.23335 0.85663 0.0
C531 C 0.75905 0.17986 0.03353 0.0
C532 C 0.73529 0.17786 0.05717 0.0
C533 C 0.72395 0.19188 0.0284 0.0
C534 C 0.73561 0.20714 0.97597 0.0
C535 C 0.75871 0.20835 0.95313 0.0
C536 C 0.77064 0.19552 0.98133 0.0
C537 C 0.79642 0.20167 0.94915 0.0
C538 C 0.82058 0.21606 0.99239 0.0
C539 C 0.79445 0.17607 0.92248 0.0
C540 C 0.79717 0.22018 0.89897 0.0
C541 C 0.77492 0.22331 0.90176 0.0
C542 C 0.77133 0.24005 0.862 0.0
C543 C 0.79151 0.25485 0.81958 0.0
C544 C 0.81507 0.25296 0.81756 0.0
C545 C 0.8176 0.23484 0.85661 0.0
H546 H 0.54435 0.73575 0.23269 0.0
H547 H 0.63027 0.7685 0.24987 0.0
H548 H 0.63784 0.799 0.1636 0.0
H549 H 0.542 0.73704 0.07009 0.0
H550 H 0.51692 0.74698 0.06693 0.0
H551 H 0.51794 0.72793 0.13108 0.0
H552 H 0.5216 0.76457 0.20557 0.0
H553 H 0.52015 0.78351 0.14173 0.0
H554 H 0.54778 0.79883 0.19462 0.0
H555 H 0.63618 0.82439 0.07359 0.0
H556 H 0.6258 0.84717 0.99192 0.0
H557 H 0.54095 0.79877 0.03362 0.0
C558 C 0.56476 0.74953 0.21862 0.0
C559 C 0.58674 0.74974 0.24775 0.0
C560 C 0.61314 0.76804 0.2282 0.0
C561 C 0.61765 0.78533 0.17906 0.0
C562 C 0.59554 0.78415 0.15032 0.0
C563 C 0.56964 0.76705 0.16982 0.0
C564 C 0.54949 0.77018 0.13142 0.0
C565 C 0.53047 0.74397 0.0979 0.0
C566 C 0.53384 0.77986 0.17068 0.0
C567 C 0.56816 0.79166 0.08719 0.0
C568 C 0.5946 0.79923 0.0987 0.0
C569 C 0.61558 0.81875 0.06423 0.0
C570 C 0.60945 0.83148 0.01779 0.0
C571 C 0.58258 0.82475 0.00654 0.0
C572 C 0.56166 0.80422 0.041 0.0
H573 H 0.831 0.59222 0.39526 0.0
H574 H 0.79781 0.50665 0.42117 0.0
H575 H 0.76742 0.49769 0.33389 0.0
H576 H 0.7679 0.58834 0.35279 0.0
H577 H 0.78362 0.6151 0.29782 0.0
H578 H 0.80215 0.61458 0.36351 0.0
H579 H 0.83912 0.61695 0.29189 0.0
H580 H 0.82044 0.61694 0.22592 0.0
H581 H 0.83025 0.59188 0.2334 0.0
H582 H 0.74275 0.49799 0.24077 0.0
H583 H 0.72047 0.50723 0.15586 0.0
H584 H 0.76879 0.5926 0.19168 0.0
C585 C 0.81708 0.5716 0.38307 0.0
C586 C 0.81678 0.55011 0.41474 0.0
C587 C 0.79832 0.5234 0.39751 0.0
C588 C 0.78111 0.51811 0.3478 0.0
C589 C 0.78251 0.53975 0.31628 0.0
C590 C 0.79962 0.56594 0.33381 0.0
C591 C 0.79682 0.5855 0.29257 0.0
C592 C 0.78703 0.60183 0.32884 0.0
C593 C 0.82323 0.60389 0.25896 0.0
C594 C 0.77555 0.56617 0.24893 0.0
C595 C 0.7678 0.53991 0.26312 0.0
C596 C 0.7485 0.51845 0.22938 0.0
C597 C 0.73608 0.52393 0.18104 0.0
C598 C 0.74288 0.55062 0.16735 0.0
C599 C 0.76327 0.57201 0.20097 0.0
H600 H 0.17174 0.77509 0.36363 0.0
H601 H 0.18867 0.70962 0.36944 0.0
H602 H 0.21732 0.72972 0.45906 0.0
H603 H 0.23881 0.82633 0.40294 0.0
H604 H 0.22841 0.84556 0.44855 0.0
H605 H 0.20767 0.82534 0.38645 0.0
H606 H 0.16768 0.80084 0.46107 0.0
H607 H 0.18842 0.82082 0.52356 0.0
H608 H 0.17134 0.78476 0.52807 0.0
H609 H 0.24391 0.75582 0.54616 0.0
H610 H 0.27212 0.79008 0.62108 0.0
H611 H 0.24059 0.84062 0.55981 0.0
C612 C 0.18148 0.76506 0.384 0.0
C613 C 0.17787 0.74074 0.35975 0.0
C614 C 0.19114 0.72829 0.38708 0.0
C615 C 0.20733 0.73942 0.43837 0.0
C616 C 0.2103 0.76317 0.4616 0.0
C617 C 0.19818 0.77618 0.4351 0.0
C618 C 0.20639 0.80245 0.4676 0.0
C619 C 0.22121 0.82633 0.42377 0.0
C620 C 0.182 0.80219 0.49681 0.0
C621 C 0.22513 0.80211 0.51592 0.0
C622 C 0.22663 0.77898 0.51188 0.0
C623 C 0.24295 0.77404 0.55001 0.0
C624 C 0.25888 0.79365 0.59247 0.0
C625 C 0.25855 0.818 0.59623 0.0
C626 C 0.24102 0.82206 0.55831 0.0
H627 H 0.40155 0.23454 0.73329 0.0
H628 H 0.48574 0.29602 0.73064 0.0
H629 H 0.4935 0.27329 0.64495 0.0
H630 H 0.41297 0.17926 0.70003 0.0
H631 H 0.38351 0.16158 0.65303 0.0
H632 H 0.38411 0.18289 0.71391 0.0
H633 H 0.37212 0.2093 0.63659 0.0
H634 H 0.37183 0.18828 0.57532 0.0
H635 H 0.39306 0.22414 0.57044 0.0
H636 H 0.49271 0.2455 0.56013 0.0
H637 H 0.4847 0.21059 0.48565 0.0
H638 H 0.40124 0.16513 0.54154 0.0
C639 C 0.4216 0.24308 0.71473 0.0
C640 C 0.44303 0.26713 0.73845 0.0
C641 C 0.46902 0.27765 0.71329 0.0
C642 C 0.47363 0.26497 0.66432 0.0
C643 C 0.4521 0.24165 0.64127 0.0
C644 C 0.42668 0.23046 0.66591 0.0
C645 C 0.4075 0.20453 0.63333 0.0
C646 C 0.39637 0.18066 0.67772 0.0
C647 C 0.38478 0.20671 0.60207 0.0
C648 C 0.42624 0.20307 0.58666 0.0
C649 C 0.45176 0.22494 0.59206 0.0
C650 C 0.47285 0.22823 0.55539 0.0
C651 C 0.46804 0.20824 0.51308 0.0
C652 C 0.44234 0.18512 0.50773 0.0
C653 C 0.42099 0.18273 0.5442 0.0
H654 H 0.06778 0.41591 0.87619 0.0
H655 H 0.04406 0.38419 0.05965 0.0
H656 H 0.99747 0.35536 0.02379 0.0
H657 H 0.00824 0.41758 0.8374 0.0
H658 H 0.00758 0.40751 0.75919 0.0
H659 H 0.03903 0.42546 0.79912 0.0
H660 H 0.04906 0.38736 0.77485 0.0
H661 H 0.01757 0.36922 0.73506 0.0
H662 H 0.02522 0.35345 0.79682 0.0
H663 H 0.95337 0.33182 0.96957 0.0
H664 H 0.91446 0.31396 0.9004 0.0
H665 H 0.96658 0.35873 0.74964 0.0
C666 C 0.05278 0.40292 0.90891 0.0
C667 C 0.05955 0.40241 0.97098 0.0
C668 C 0.03936 0.38497 0.01207 0.0
C669 C 0.01286 0.3685 0.99204 0.0
C670 C 0.00691 0.36948 0.93061 0.0
C671 C 0.02629 0.38613 0.88951 0.0
C672 C 0.01453 0.38331 0.82594 0.0
C673 C 0.01752 0.41006 0.80415 0.0
C674 C 0.02736 0.3727 0.78049 0.0
C675 C 0.98537 0.36266 0.83779 0.0
C676 C 0.98151 0.35509 0.89864 0.0
C677 C 0.95621 0.33738 0.92179 0.0
C678 C 0.93424 0.32737 0.8821 0.0
C679 C 0.93756 0.33473 0.8196 0.0
C680 C 0.96356 0.35234 0.79691 0.0
H681 H 0.60196 0.96412 0.91825 0.0
H682 H 0.6151 0.91597 0.05085 0.0
H683 H 0.63973 0.95545 0.11696 0.0
H684 H 0.66689 0.02682 0.94203 0.0
H685 H 0.65223 0.04794 0.93468 0.0
H686 H 0.63781 0.01647 0.89444 0.0
H687 H 0.59186 1.00205 0.9448 0.0
H688 H 0.60621 0.03333 0.98564 0.0
H689 H 0.58944 1.00209 0.0269 0.0
H690 H 0.66058 0.99905 0.17222 0.0
H691 H 0.67743 0.04498 0.21168 0.0
H692 H 0.6501 0.06526 0.04597 0.0
C693 C 0.61065 0.9622 0.96044 0.0
C694 C 0.60691 0.9371 0.97926 0.0
C695 C 0.61789 0.9351 0.03559 0.0
C696 C 0.63191 0.95739 0.0735 0.0
C697 C 0.63473 0.98171 0.05483 0.0
C698 C 0.62457 0.98441 0.9996 0.0
C699 C 0.62931 0.01267 0.99258 0.0
C700 C 0.64766 0.02681 0.93768 0.0
C701 C 0.60262 0.01251 0.98717 0.0
C702 C 0.64333 0.0251 0.05256 0.0
C703 C 0.64639 0.00692 0.08758 0.0
C704 C 0.65844 0.01358 0.14511 0.0
C705 C 0.66788 0.03966 0.16729 0.0
C706 C 0.66506 0.05871 0.13218 0.0
C707 C 0.65252 0.05116 0.07413 0.0
H708 H 0.65513 0.61279 0.09115 0.0
H709 H 0.67394 0.57731 0.24445 0.0
H710 H 0.65726 0.59856 0.31587 0.0
H711 H 0.67133 0.67587 0.16595 0.0
H712 H 0.64364 0.67741 0.13195 0.0
H713 H 0.65874 0.66089 0.09224 0.0
H714 H 0.61239 0.61761 0.0848 0.0
H715 H 0.59719 0.63401 0.12445 0.0
H716 H 0.59331 0.60299 0.15347 0.0
H717 H 0.63875 0.62369 0.37175 0.0
H718 H 0.61624 0.64839 0.40691 0.0
H719 H 0.60653 0.66514 0.21838 0.0
C720 C 0.65593 0.60975 0.13974 0.0
C721 C 0.66592 0.59345 0.16217 0.0
C722 C 0.66628 0.58962 0.2261 0.0
C723 C 0.65696 0.60172 0.26721 0.0
C724 C 0.64701 0.61745 0.24392 0.0
C725 C 0.64617 0.62134 0.18173 0.0
C726 C 0.63305 0.63803 0.16903 0.0
C727 C 0.65288 0.66463 0.13796 0.0
C728 C 0.60747 0.62221 0.13068 0.0
C729 C 0.62656 0.64263 0.23359 0.0
C730 C 0.63517 0.63095 0.27618 0.0
C731 C 0.6318 0.63286 0.33882 0.0
C732 C 0.61906 0.64693 0.35845 0.0
C733 C 0.60946 0.65843 0.31548 0.0
C734 C 0.6134 0.65628 0.25233 0.0
H735 H 0.06432 0.68409 0.37233 0.0
H736 H 0.04429 0.64235 0.19882 0.0
H737 H 0.99785 0.61262 0.23501 0.0
H738 H 0.02616 0.62966 0.46917 0.0
H739 H 0.0144 0.64655 0.51887 0.0
H740 H 0.04577 0.66549 0.47908 0.0
H741 H 0.02928 0.69574 0.43112 0.0
H742 H 0.99796 0.67715 0.4715 0.0
H743 H 0.99807 0.68061 0.38968 0.0
H744 H 0.95589 0.58503 0.29275 0.0
H745 H 0.91761 0.56423 0.36236 0.0
H746 H 0.96232 0.62566 0.49823 0.0
C747 C 0.04989 0.66898 0.34177 0.0
C748 C 0.05759 0.66543 0.28269 0.0
C749 C 0.0385 0.64549 0.24379 0.0
C750 C 0.01222 0.62847 0.26417 0.0
C751 C 0.00529 0.63216 0.323 0.0
C752 C 0.02328 0.65233 0.36078 0.0
C753 C 0.01025 0.65217 0.42141 0.0
C754 C 0.02503 0.64822 0.47531 0.0
C755 C 0.00881 0.67795 0.42886 0.0
C756 C 0.98247 0.62795 0.41285 0.0
C757 C 0.98027 0.61683 0.35564 0.0
C758 C 0.9572 0.59381 0.33721 0.0
C759 C 0.93555 0.58207 0.37758 0.0
C760 C 0.93674 0.59333 0.43601 0.0
C761 C 0.96068 0.61662 0.45393 0.0
H762 H 0.40922 0.06913 0.55528 0.0
H763 H 0.38881 0.04277 0.36739 0.0
H764 H 0.36572 0.9956 0.402 0.0
H765 H 0.42125 0.01714 0.60644 0.0
H766 H 0.40608 0.01352 0.68045 0.0
H767 H 0.42092 0.04529 0.64145 0.0
H768 H 0.37618 0.04545 0.64964 0.0
H769 H 0.3612 0.01371 0.68886 0.0
H770 H 0.34585 0.01735 0.62056 0.0
H771 H 0.34759 0.95175 0.45543 0.0
H772 H 0.33165 0.9132 0.52462 0.0
H773 H 0.36038 0.96677 0.68073 0.0
C774 C 0.39981 0.0534 0.52145 0.0
C775 C 0.40093 0.05963 0.45841 0.0
C776 C 0.38818 0.03851 0.41574 0.0
C777 C 0.37508 0.01166 0.43502 0.0
C778 C 0.37451 0.00621 0.49731 0.0
C779 C 0.38618 0.02643 0.54009 0.0
C780 C 0.38214 0.01493 0.6044 0.0
C781 C 0.40921 0.02322 0.63497 0.0
C782 C 0.36534 0.02336 0.64315 0.0
C783 C 0.36673 0.98503 0.59099 0.0
C784 C 0.36282 0.98063 0.52873 0.0
C785 C 0.35029 0.95495 0.50423 0.0
C786 C 0.34142 0.93315 0.5441 0.0
C787 C 0.34468 0.93687 0.60824 0.0
C788 C 0.35736 0.96326 0.63205 0.0
H789 H 0.3795 0.42633 0.62673 0.0
H790 H 0.29523 0.36663 0.63712 0.0
H791 H 0.30611 0.33801 0.70166 0.0
H792 H 0.40274 0.37722 0.61574 0.0
H793 H 0.43273 0.39791 0.6591 0.0
H794 H 0.41798 0.4132 0.6135 0.0
H795 H 0.41577 0.43842 0.70926 0.0
H796 H 0.42997 0.42277 0.7554 0.0
H797 H 0.39826 0.41963 0.77631 0.0
H798 H 0.32622 0.31798 0.7737 0.0
H799 H 0.35451 0.3039 0.83008 0.0
H800 H 0.42583 0.37445 0.76411 0.0
C801 C 0.36348 0.40694 0.64153 0.0
C802 C 0.33656 0.3984 0.62651 0.0
C803 C 0.31601 0.37317 0.64731 0.0
C804 C 0.32199 0.35696 0.6845 0.0
C805 C 0.34871 0.3661 0.6996 0.0
C806 C 0.3692 0.39015 0.67726 0.0
C807 C 0.3963 0.39484 0.69828 0.0
C808 C 0.41345 0.39584 0.64339 0.0
C809 C 0.41093 0.42044 0.73712 0.0
C810 C 0.38785 0.36996 0.73671 0.0
C811 C 0.36029 0.35385 0.73791 0.0
C812 C 0.34784 0.33029 0.77242 0.0
C813 C 0.364 0.32257 0.80482 0.0
C814 C 0.39227 0.33808 0.80142 0.0
C815 C 0.40422 0.36219 0.76742 0.0
loop_
_geom_bond_atom_site_label_1
_geom_bond_atom_site_label_2
_geom_bond_distance
_geom_bond_site_symmetry_2
_ccdc_geom_bond_type
Co0 O1 2.216 1_554 S
Co0 O2 2.091 . S
Co0 O4 2.004 . S
Co0 O10 2.021 . S
Co0 O12 2.137 1_554 S
Co0 O13 2.244 1_554 S
O1 Co0 2.216 1_556 S
O1 C8 1.247 . S
O2 Co0 2.091 . S
O2 C8 1.261 1_554 S
C3 O12 1.247 . S
C3 O13 1.272 . S
O4 Co0 2.004 . S
O4 C9 1.259 . S
Co5 O6 2.061 . S
Co5 O11 2.052 . S
Co5 O13 2.135 1_554 S
O6 Co5 2.061 . S
O6 C9 1.235 . S
C7 O10 1.238 . S
C7 O11 1.241 . S
C8 O1 1.247 . S
C8 O2 1.261 1_556 S
C9 O4 1.259 . S
C9 O6 1.235 . S
O10 Co0 2.021 . S
O10 C7 1.238 . S
O11 Co5 2.052 . S
O11 C7 1.241 . S
O12 Co0 2.137 1_556 S
O12 C3 1.247 . S
O13 Co0 2.244 1_556 S
O13 C3 1.272 . S
O13 Co5 2.135 1_556 S
Co14 O15 2.216 . S
Co14 O16 2.091 . S
Co14 O18 2.004 . S
Co14 O24 2.021 . S
Co14 O26 2.137 . S
Co14 O27 2.244 . S
O15 Co14 2.216 . S
O15 C22 1.247 . S
O16 Co14 2.091 . S
O16 C22 1.261 . S
C17 O26 1.247 . S
C17 O27 1.272 . S
O18 Co14 2.004 . S
O18 C23 1.259 . S
Co19 O20 2.061 . S
Co19 O25 2.052 . S
Co19 O27 2.135 . S
O20 Co19 2.061 . S
O20 C23 1.235 . S
C21 O24 1.238 . S
C21 O25 1.241 . S
C22 O15 1.247 . S
C22 O16 1.261 . S
C23 O18 1.259 . S
C23 O20 1.235 . S
O24 Co14 2.021 . S
O24 C21 1.238 . S
O25 Co19 2.052 . S
O25 C21 1.241 . S
O26 Co14 2.137 . S
O26 C17 1.247 . S
O27 Co14 2.244 . S
O27 C17 1.272 . S
O27 Co19 2.135 . S
Co28 O29 2.216 . S
Co28 O30 2.091 . S
Co28 O32 2.004 . S
Co28 O38 2.021 . S
Co28 O40 2.137 . S
Co28 O41 2.244 . S
O29 Co28 2.216 . S
O29 C36 1.247 . S
O30 Co28 2.091 . S
O30 C36 1.261 . S
C31 O40 1.247 . S
C31 O41 1.272 . S
O32 Co28 2.004 . S
O32 C37 1.259 . S
Co33 O34 2.061 . S
Co33 O39 2.052 . S
Co33 O41 2.135 . S
O34 Co33 2.061 . S
O34 C37 1.235 . S
C35 O38 1.238 . S
C35 O39 1.241 . S
C36 O29 1.247 . S
C36 O30 1.261 . S
C37 O32 1.259 . S
C37 O34 1.235 . S
O38 Co28 2.021 . S
O38 C35 1.238 . S
O39 Co33 2.052 . S
O39 C35 1.241 . S
O40 Co28 2.137 . S
O40 C31 1.247 . S
O41 Co28 2.244 . S
O41 C31 1.272 . S
O41 Co33 2.135 . S
Co42 O43 2.216 . S
Co42 O44 2.091 . S
Co42 O46 2.004 . S
Co42 O52 2.021 . S
Co42 O54 2.137 . S
Co42 O55 2.244 . S
O43 Co42 2.216 . S
O43 C50 1.247 . S
O44 Co42 2.091 . S
O44 C50 1.261 . S
C45 O54 1.247 . S
C45 O55 1.272 . S
O46 Co42 2.004 . S
O46 C51 1.259 . S
Co47 O48 2.061 . S
Co47 O53 2.052 . S
Co47 O55 2.135 . S
O48 Co47 2.061 . S
O48 C51 1.235 . S
C49 O52 1.238 . S
C49 O53 1.241 . S
C50 O43 1.247 . S
C50 O44 1.261 . S
C51 O46 1.259 . S
C51 O48 1.235 . S
O52 Co42 2.021 . S
O52 C49 1.238 . S
O53 Co47 2.052 . S
O53 C49 1.241 . S
O54 Co42 2.137 . S
O54 C45 1.247 . S
O55 Co42 2.244 . S
O55 C45 1.272 . S
O55 Co47 2.135 . S
Co56 O57 2.216 . S
Co56 O58 2.091 . S
Co56 O60 2.004 . S
Co56 O66 2.021 . S
Co56 O68 2.137 . S
Co56 O69 2.244 . S
O57 Co56 2.216 . S
O57 C64 1.247 . S
O58 Co56 2.091 . S
O58 C64 1.261 . S
C59 O68 1.247 . S
C59 O69 1.272 . S
O60 Co56 2.004 . S
O60 C65 1.259 . S
Co61 O62 2.061 . S
Co61 O67 2.052 . S
Co61 O69 2.135 . S
O62 Co61 2.061 . S
O62 C65 1.235 . S
C63 O66 1.238 . S
C63 O67 1.241 . S
C64 O57 1.247 . S
C64 O58 1.261 . S
C65 O60 1.259 . S
C65 O62 1.235 . S
O66 Co56 2.021 . S
O66 C63 1.238 . S
O67 Co61 2.052 . S
O67 C63 1.241 . S
O68 Co56 2.137 . S
O68 C59 1.247 . S
O69 Co56 2.244 . S
O69 C59 1.272 . S
O69 Co61 2.135 . S
Co70 O71 2.216 . S
Co70 O72 2.091 . S
Co70 O74 2.004 . S
Co70 O80 2.021 . S
Co70 O82 2.137 . S
Co70 O83 2.244 . S
O71 Co70 2.216 . S
O71 C78 1.247 . S
O72 Co70 2.091 . S
O72 C78 1.261 . S
C73 O82 1.247 . S
C73 O83 1.272 . S
O74 Co70 2.004 . S
O74 C79 1.259 . S
Co75 O76 2.061 . S
Co75 O81 2.052 . S
Co75 O83 2.135 . S
O76 Co75 2.061 . S
O76 C79 1.235 . S
C77 O80 1.238 . S
C77 O81 1.241 . S
C78 O71 1.247 . S
C78 O72 1.261 . S
C79 O74 1.259 . S
C79 O76 1.235 . S
O80 Co70 2.021 . S
O80 C77 1.238 . S
O81 Co75 2.052 . S
O81 C77 1.241 . S
O82 Co70 2.137 . S
O82 C73 1.247 . S
O83 Co70 2.244 . S
O83 C73 1.272 . S
O83 Co75 2.135 . S
Co84 O85 2.216 . S
Co84 O86 2.091 . S
Co84 O88 2.004 . S
Co84 O94 2.021 . S
Co84 O96 2.137 . S
Co84 O97 2.244 . S
O85 Co84 2.216 . S
O85 C92 1.247 . S
O86 Co84 2.091 . S
O86 C92 1.261 . S
C87 O96 1.247 . S
C87 O97 1.272 . S
O88 Co84 2.004 . S
O88 C93 1.259 . S
Co89 O90 2.061 . S
Co89 O95 2.052 . S
Co89 O97 2.135 . S
O90 Co89 2.061 . S
O90 C93 1.235 . S
C91 O94 1.238 . S
C91 O95 1.241 . S
C92 O85 1.247 . S
C92 O86 1.261 . S
C93 O88 1.259 . S
C93 O90 1.235 . S
O94 Co84 2.021 . S
O94 C91 1.238 . S
O95 Co89 2.052 . S
O95 C91 1.241 . S
O96 Co84 2.137 . S
O96 C87 1.247 . S
O97 Co84 2.244 . S
O97 C87 1.272 . S
O97 Co89 2.135 . S
Co98 O99 2.216 . S
Co98 O100 2.091 . S
Co98 O102 2.004 1_554 S
Co98 O108 2.021 . S
Co98 O110 2.137 . S
Co98 O111 2.244 . S
O99 Co98 2.216 . S
O99 C106 1.247 . S
O100 Co98 2.091 . S
O100 C106 1.261 . S
C101 O110 1.247 . S
C101 O111 1.272 . S
O102 Co98 2.004 1_556 S
O102 C107 1.259 . S
Co103 O104 2.061 1_554 S
Co103 O109 2.052 . S
Co103 O111 2.135 . S
O104 Co103 2.061 1_556 S
O104 C107 1.235 . S
C105 O108 1.238 . S
C105 O109 1.241 . S
C106 O99 1.247 . S
C106 O100 1.261 . S
C107 O102 1.259 . S
C107 O104 1.235 . S
O108 Co98 2.021 . S
O108 C105 1.238 . S
O109 Co103 2.052 . S
O109 C105 1.241 . S
O110 Co98 2.137 . S
O110 C101 1.247 . S
O111 Co98 2.244 . S
O111 C101 1.272 . S
O111 Co103 2.135 . S
Co112 O113 2.216 . S
Co112 O114 2.091 . S
Co112 O116 2.004 . S
Co112 O122 2.021 . S
Co112 O124 2.137 . S
Co112 O125 2.244 . S
O113 Co112 2.216 . S
O113 C120 1.247 . S
O114 Co112 2.091 . S
O114 C120 1.261 . S
C115 O124 1.247 . S
C115 O125 1.272 . S
O116 Co112 2.004 . S
O116 C121 1.259 . S
Co117 O118 2.061 . S
Co117 O123 2.052 . S
Co117 O125 2.135 . S
O118 Co117 2.061 . S
O118 C121 1.235 . S
C119 O122 1.238 . S
C119 O123 1.241 . S
C120 O113 1.247 . S
C120 O114 1.261 . S
C121 O116 1.259 . S
C121 O118 1.235 . S
O122 Co112 2.021 . S
O122 C119 1.238 . S
O123 Co117 2.052 . S
O123 C119 1.241 . S
O124 Co112 2.137 . S
O124 C115 1.247 . S
O125 Co112 2.244 . S
O125 C115 1.272 . S
O125 Co117 2.135 . S
Co126 O127 2.216 . S
Co126 O128 2.091 . S
Co126 O130 2.004 . S
Co126 O136 2.021 . S
Co126 O138 2.137 . S
Co126 O139 2.244 . S
O127 Co126 2.216 . S
O127 C134 1.247 . S
O128 Co126 2.091 . S
O128 C134 1.261 . S
C129 O138 1.247 . S
C129 O139 1.272 . S
O130 Co126 2.004 . S
O130 C135 1.259 . S
Co131 O132 2.061 . S
Co131 O137 2.052 . S
Co131 O139 2.135 . S
O132 Co131 2.061 . S
O132 C135 1.235 . S
C133 O136 1.238 . S
C133 O137 1.241 . S
C134 O127 1.247 . S
C134 O128 1.261 . S
C135 O130 1.259 . S
C135 O132 1.235 . S
O136 Co126 2.021 . S
O136 C133 1.238 . S
O137 Co131 2.052 . S
O137 C133 1.241 . S
O138 Co126 2.137 . S
O138 C129 1.247 . S
O139 Co126 2.244 . S
O139 C129 1.272 . S
O139 Co131 2.135 . S
Co140 O141 2.216 . S
Co140 O142 2.091 . S
Co140 O144 2.004 . S
Co140 O150 2.021 . S
Co140 O152 2.137 . S
Co140 O153 2.244 . S
O141 Co140 2.216 . S
O141 C148 1.247 . S
O142 Co140 2.091 . S
O142 C148 1.261 . S
C143 O152 1.247 . S
C143 O153 1.272 . S
O144 Co140 2.004 . S
O144 C149 1.259 . S
Co145 O146 2.061 . S
Co145 O151 2.052 . S
Co145 O153 2.135 . S
O146 Co145 2.061 . S
O146 C149 1.235 . S
C147 O150 1.238 . S
C147 O151 1.241 . S
C148 O141 1.247 . S
C148 O142 1.261 . S
C149 O144 1.259 . S
C149 O146 1.235 . S
O150 Co140 2.021 . S
O150 C147 1.238 . S
O151 Co145 2.052 . S
O151 C147 1.241 . S
O152 Co140 2.137 . S
O152 C143 1.247 . S
O153 Co140 2.244 . S
O153 C143 1.272 . S
O153 Co145 2.135 . S
Co154 O155 2.216 . S
Co154 O156 2.091 . S
Co154 O158 2.004 . S
Co154 O164 2.021 . S
Co154 O166 2.137 . S
Co154 O167 2.244 . S
O155 Co154 2.216 . S
O155 C162 1.247 . S
O156 Co154 2.091 . S
O156 C162 1.261 . S
C157 O166 1.247 . S
C157 O167 1.272 . S
O158 Co154 2.004 . S
O158 C163 1.259 . S
Co159 O160 2.061 . S
Co159 O165 2.052 . S
Co159 O167 2.135 . S
O160 Co159 2.061 . S
O160 C163 1.235 . S
C161 O164 1.238 . S
C161 O165 1.241 . S
C162 O155 1.247 . S
C162 O156 1.261 . S
C163 O158 1.259 . S
C163 O160 1.235 . S
O164 Co154 2.021 . S
O164 C161 1.238 . S
O165 Co159 2.052 . S
O165 C161 1.241 . S
O166 Co154 2.137 . S
O166 C157 1.247 . S
O167 Co154 2.244 . S
O167 C157 1.272 . S
O167 Co159 2.135 . S
H168 C180 0.930 . S
H169 C182 0.930 . S
H170 C183 0.930 . S
H171 C187 0.959 . S
H172 C187 0.959 . S
H173 C187 0.961 . S
H174 C188 0.960 . S
H175 C188 0.961 . S
H176 C188 0.959 . S
H177 C191 0.929 . S
H178 C192 0.931 . S
H179 C194 0.930 . S
C180 H168 0.930 . S
C180 C181 1.399 . S
C180 C185 1.399 . S
C181 C180 1.399 . S
C181 C182 1.376 . S
C182 H169 0.930 . S
C182 C181 1.376 . S
C182 C183 1.388 . S
C183 H170 0.930 . S
C183 C182 1.388 . S
C183 C184 1.390 . S
C184 C183 1.390 . S
C184 C185 1.394 . S
C184 C190 1.465 . S
C185 C180 1.399 . S
C185 C184 1.394 . S
C185 C186 1.516 . S
C186 C185 1.516 . S
C186 C187 1.502 . S
C186 C188 1.561 . S
C186 C189 1.526 . S
C187 H171 0.959 . S
C187 H172 0.959 . S
C187 H173 0.961 . S
C187 C186 1.502 . S
C188 H174 0.960 . S
C188 H175 0.961 . S
C188 H176 0.959 . S
C188 C186 1.561 . S
C189 C186 1.526 . S
C189 C190 1.396 . S
C189 C194 1.390 . S
C190 C184 1.465 . S
C190 C189 1.396 . S
C190 C191 1.399 . S
C191 H177 0.929 . S
C191 C190 1.399 . S
C191 C192 1.385 . S
C192 H178 0.931 . S
C192 C191 1.385 . S
C192 C193 1.389 . S
C193 C192 1.389 . S
C193 C194 1.387 . S
C194 H179 0.930 . S
C194 C189 1.390 . S
C194 C193 1.387 . S
H195 C207 0.930 . S
H196 C209 0.930 . S
H197 C210 0.930 . S
H198 C214 0.959 . S
H199 C214 0.959 . S
H200 C214 0.961 . S
H201 C215 0.960 . S
H202 C215 0.961 . S
H203 C215 0.959 . S
H204 C218 0.929 . S
H205 C219 0.931 . S
H206 C221 0.930 . S
C207 H195 0.930 . S
C207 C208 1.399 . S
C207 C212 1.399 . S
C208 C207 1.399 . S
C208 C209 1.376 . S
C209 H196 0.930 . S
C209 C208 1.376 . S
C209 C210 1.388 . S
C210 H197 0.930 . S
C210 C209 1.388 . S
C210 C211 1.390 . S
C211 C210 1.390 . S
C211 C212 1.394 . S
C211 C217 1.465 . S
C212 C207 1.399 . S
C212 C211 1.394 . S
C212 C213 1.516 . S
C213 C212 1.516 . S
C213 C214 1.502 . S
C213 C215 1.561 . S
C213 C216 1.526 . S
C214 H198 0.959 . S
C214 H199 0.959 . S
C214 H200 0.961 . S
C214 C213 1.502 . S
C215 H201 0.960 . S
C215 H202 0.961 . S
C215 H203 0.959 . S
C215 C213 1.561 . S
C216 C213 1.526 . S
C216 C217 1.396 . S
C216 C221 1.390 . S
C217 C211 1.465 . S
C217 C216 1.396 . S
C217 C218 1.399 . S
C218 H204 0.929 . S
C218 C217 1.399 . S
C218 C219 1.385 . S
C219 H205 0.931 . S
C219 C218 1.385 . S
C219 C220 1.389 . S
C220 C219 1.389 . S
C220 C221 1.387 . S
C221 H206 0.930 . S
C221 C216 1.390 . S
C221 C220 1.387 . S
H222 C234 0.930 . S
H223 C236 0.930 . S
H224 C237 0.930 . S
H225 C241 0.959 . S
H226 C241 0.959 . S
H227 C241 0.961 . S
H228 C242 0.960 . S
H229 C242 0.961 . S
H230 C242 0.959 . S
H231 C245 0.929 . S
H232 C246 0.931 . S
H233 C248 0.930 . S
C234 H222 0.930 . S
C234 C235 1.399 . S
C234 C239 1.399 . S
C235 C234 1.399 . S
C235 C236 1.376 . S
C236 H223 0.930 . S
C236 C235 1.376 . S
C236 C237 1.388 . S
C237 H224 0.930 . S
C237 C236 1.388 . S
C237 C238 1.390 . S
C238 C237 1.390 . S
C238 C239 1.394 . S
C238 C244 1.465 . S
C239 C234 1.399 . S
C239 C238 1.394 . S
C239 C240 1.516 . S
C240 C239 1.516 . S
C240 C241 1.502 . S
C240 C242 1.561 . S
C240 C243 1.526 . S
C241 H225 0.959 . S
C241 H226 0.959 . S
C241 H227 0.961 . S
C241 C240 1.502 . S
C242 H228 0.960 . S
C242 H229 0.961 . S
C242 H230 0.959 . S
C242 C240 1.561 . S
C243 C240 1.526 . S
C243 C244 1.396 . S
C243 C248 1.390 . S
C244 C238 1.465 . S
C244 C243 1.396 . S
C244 C245 1.399 . S
C245 H231 0.929 . S
C245 C244 1.399 . S
C245 C246 1.385 . S
C246 H232 0.931 . S
C246 C245 1.385 . S
C246 C247 1.389 . S
C247 C246 1.389 . S
C247 C248 1.387 . S
C248 H233 0.930 . S
C248 C243 1.390 . S
C248 C247 1.387 . S
H249 C261 0.930 . S
H250 C263 0.930 . S
H251 C264 0.930 . S
H252 C268 0.959 . S
H253 C268 0.959 . S
H254 C268 0.961 . S
H255 C269 0.960 . S
H256 C269 0.961 . S
H257 C269 0.959 . S
H258 C272 0.929 . S
H259 C273 0.931 . S
H260 C275 0.930 . S
C261 H249 0.930 . S
C261 C262 1.399 . S
C261 C266 1.399 . S
C262 C261 1.399 . S
C262 C263 1.376 . S
C263 H250 0.930 . S
C263 C262 1.376 . S
C263 C264 1.388 . S
C264 H251 0.930 . S
C264 C263 1.388 . S
C264 C265 1.390 . S
C265 C264 1.390 . S
C265 C266 1.394 . S
C265 C271 1.465 . S
C266 C261 1.399 . S
C266 C265 1.394 . S
C266 C267 1.516 . S
C267 C266 1.516 . S
C267 C268 1.502 . S
C267 C269 1.561 . S
C267 C270 1.526 . S
C268 H252 0.959 . S
C268 H253 0.959 . S
C268 H254 0.961 . S
C268 C267 1.502 . S
C269 H255 0.960 . S
C269 H256 0.961 . S
C269 H257 0.959 . S
C269 C267 1.561 . S
C270 C267 1.526 . S
C270 C271 1.396 . S
C270 C275 1.390 . S
C271 C265 1.465 . S
C271 C270 1.396 . S
C271 C272 1.399 . S
C272 H258 0.929 . S
C272 C271 1.399 . S
C272 C273 1.385 . S
C273 H259 0.931 . S
C273 C272 1.385 . S
C273 C274 1.389 . S
C274 C273 1.389 . S
C274 C275 1.387 . S
C275 H260 0.930 . S
C275 C270 1.390 . S
C275 C274 1.387 . S
H276 C288 0.930 . S
H277 C290 0.930 . S
H278 C291 0.930 . S
H279 C295 0.959 . S
H280 C295 0.959 . S
H281 C295 0.961 . S
H282 C296 0.960 . S
H283 C296 0.961 . S
H284 C296 0.959 . S
H285 C299 0.929 . S
H286 C300 0.931 . S
H287 C302 0.930 . S
C288 H276 0.930 . S
C288 C289 1.399 . S
C288 C293 1.399 . S
C289 C288 1.399 . S
C289 C290 1.376 . S
C290 H277 0.930 . S
C290 C289 1.376 . S
C290 C291 1.388 . S
C291 H278 0.930 . S
C291 C290 1.388 . S
C291 C292 1.390 . S
C292 C291 1.390 . S
C292 C293 1.394 . S
C292 C298 1.465 . S
C293 C288 1.399 . S
C293 C292 1.394 . S
C293 C294 1.516 . S
C294 C293 1.516 . S
C294 C295 1.502 . S
C294 C296 1.561 . S
C294 C297 1.526 . S
C295 H279 0.959 . S
C295 H280 0.959 . S
C295 H281 0.961 . S
C295 C294 1.502 . S
C296 H282 0.960 . S
C296 H283 0.961 . S
C296 H284 0.959 . S
C296 C294 1.561 . S
C297 C294 1.526 . S
C297 C298 1.396 . S
C297 C302 1.390 1_556 S
C298 C292 1.465 . S
C298 C297 1.396 . S
C298 C299 1.399 1_556 S
C299 H285 0.929 . S
C299 C298 1.399 1_554 S
C299 C300 1.385 . S
C300 H286 0.931 . S
C300 C299 1.385 . S
C300 C301 1.389 . S
C301 C300 1.389 . S
C301 C302 1.387 . S
C302 H287 0.930 . S
C302 C297 1.390 1_554 S
C302 C301 1.387 . S
H303 C315 0.930 . S
H304 C317 0.930 . S
H305 C318 0.930 . S
H306 C322 0.959 . S
H307 C322 0.959 . S
H308 C322 0.961 . S
H309 C323 0.960 . S
H310 C323 0.961 . S
H311 C323 0.959 . S
H312 C326 0.929 . S
H313 C327 0.931 . S
H314 C329 0.930 . S
C315 H303 0.930 . S
C315 C316 1.399 . S
C315 C320 1.399 . S
C316 C315 1.399 . S
C316 C317 1.376 . S
C317 H304 0.930 . S
C317 C316 1.376 . S
C317 C318 1.388 . S
C318 H305 0.930 . S
C318 C317 1.388 . S
C318 C319 1.390 . S
C319 C318 1.390 . S
C319 C320 1.394 . S
C319 C325 1.465 . S
C320 C315 1.399 . S
C320 C319 1.394 . S
C320 C321 1.516 . S
C321 C320 1.516 . S
C321 C322 1.502 . S
C321 C323 1.561 . S
C321 C324 1.526 . S
C322 H306 0.959 . S
C322 H307 0.959 . S
C322 H308 0.961 . S
C322 C321 1.502 . S
C323 H309 0.960 . S
C323 H310 0.961 . S
C323 H311 0.959 . S
C323 C321 1.561 . S
C324 C321 1.526 . S
C324 C325 1.396 . S
C324 C329 1.390 . S
C325 C319 1.465 . S
C325 C324 1.396 . S
C325 C326 1.399 . S
C326 H312 0.929 . S
C326 C325 1.399 . S
C326 C327 1.385 . S
C327 H313 0.931 . S
C327 C326 1.385 . S
C327 C328 1.389 . S
C328 C327 1.389 . S
C328 C329 1.387 . S
C329 H314 0.930 . S
C329 C324 1.390 . S
C329 C328 1.387 . S
H330 C342 0.930 . S
H331 C344 0.930 . S
H332 C345 0.930 . S
H333 C349 0.959 . S
H334 C349 0.959 . S
H335 C349 0.961 . S
H336 C350 0.960 1_556 S
H337 C350 0.961 1_556 S
H338 C350 0.959 . S
H339 C353 0.929 . S
H340 C354 0.931 . S
H341 C356 0.930 . S
C342 H330 0.930 . S
C342 C343 1.399 . S
C342 C347 1.399 . S
C343 C342 1.399 . S
C343 C344 1.376 . S
C344 H331 0.930 . S
C344 C343 1.376 . S
C344 C345 1.388 . S
C345 H332 0.930 . S
C345 C344 1.388 . S
C345 C346 1.390 . S
C346 C345 1.390 . S
C346 C347 1.394 . S
C346 C352 1.465 . S
C347 C342 1.399 . S
C347 C346 1.394 . S
C347 C348 1.516 . S
C348 C347 1.516 . S
C348 C349 1.502 . S
C348 C350 1.561 . S
C348 C351 1.526 . S
C349 H333 0.959 . S
C349 H334 0.959 . S
C349 H335 0.961 . S
C349 C348 1.502 . S
C350 H336 0.960 1_554 S
C350 H337 0.961 1_554 S
C350 H338 0.959 . S
C350 C348 1.561 . S
C351 C348 1.526 . S
C351 C352 1.396 . S
C351 C356 1.390 . S
C352 C346 1.465 . S
C352 C351 1.396 . S
C352 C353 1.399 . S
C353 H339 0.929 . S
C353 C352 1.399 . S
C353 C354 1.385 . S
C354 H340 0.931 . S
C354 C353 1.385 . S
C354 C355 1.389 . S
C355 C354 1.389 . S
C355 C356 1.387 . S
C356 H341 0.930 . S
C356 C351 1.390 . S
C356 C355 1.387 . S
H357 C369 0.930 . S
H358 C371 0.930 . S
H359 C372 0.930 . S
H360 C376 0.959 . S
H361 C376 0.959 . S
H362 C376 0.961 . S
H363 C377 0.960 . S
H364 C377 0.961 . S
H365 C377 0.959 . S
H366 C380 0.929 . S
H367 C381 0.931 . S
H368 C383 0.930 . S
C369 H357 0.930 . S
C369 C370 1.399 . S
C369 C374 1.399 . S
C370 C369 1.399 . S
C370 C371 1.376 . S
C371 H358 0.930 . S
C371 C370 1.376 . S
C371 C372 1.388 . S
C372 H359 0.930 . S
C372 C371 1.388 . S
C372 C373 1.390 . S
C373 C372 1.390 . S
C373 C374 1.394 . S
C373 C379 1.465 . S
C374 C369 1.399 . S
C374 C373 1.394 . S
C374 C375 1.516 . S
C375 C374 1.516 . S
C375 C376 1.502 . S
C375 C377 1.561 . S
C375 C378 1.526 . S
C376 H360 0.959 . S
C376 H361 0.959 . S
C376 H362 0.961 . S
C376 C375 1.502 . S
C377 H363 0.960 . S
C377 H364 0.961 . S
C377 H365 0.959 . S
C377 C375 1.561 . S
C378 C375 1.526 . S
C378 C379 1.396 . S
C378 C383 1.390 . S
C379 C373 1.465 . S
C379 C378 1.396 . S
C379 C380 1.399 . S
C380 H366 0.929 . S
C380 C379 1.399 . S
C380 C381 1.385 . S
C381 H367 0.931 . S
C381 C380 1.385 . S
C381 C382 1.389 . S
C382 C381 1.389 . S
C382 C383 1.387 . S
C383 H368 0.930 . S
C383 C378 1.390 . S
C383 C382 1.387 . S
H384 C396 0.930 . S
H385 C398 0.930 . S
H386 C399 0.930 . S
H387 C403 0.959 . S
H388 C403 0.959 . S
H389 C403 0.961 . S
H390 C404 0.960 . S
H391 C404 0.961 . S
H392 C404 0.959 . S
H393 C407 0.929 . S
H394 C408 0.931 . S
H395 C410 0.930 . S
C396 H384 0.930 . S
C396 C397 1.399 . S
C396 C401 1.399 . S
C397 C396 1.399 . S
C397 C398 1.376 . S
C398 H385 0.930 . S
C398 C397 1.376 . S
C398 C399 1.388 . S
C399 H386 0.930 . S
C399 C398 1.388 . S
C399 C400 1.390 . S
C400 C399 1.390 . S
C400 C401 1.394 . S
C400 C406 1.465 . S
C401 C396 1.399 . S
C401 C400 1.394 . S
C401 C402 1.516 . S
C402 C401 1.516 . S
C402 C403 1.502 . S
C402 C404 1.561 . S
C402 C405 1.526 . S
C403 H387 0.959 . S
C403 H388 0.959 . S
C403 H389 0.961 . S
C403 C402 1.502 . S
C404 H390 0.960 . S
C404 H391 0.961 . S
C404 H392 0.959 . S
C404 C402 1.561 . S
C405 C402 1.526 . S
C405 C406 1.396 . S
C405 C410 1.390 . S
C406 C400 1.465 . S
C406 C405 1.396 . S
C406 C407 1.399 . S
C407 H393 0.929 . S
C407 C406 1.399 . S
C407 C408 1.385 . S
C408 H394 0.931 . S
C408 C407 1.385 . S
C408 C409 1.389 . S
C409 C408 1.389 . S
C409 C410 1.387 . S
C410 H395 0.930 . S
C410 C405 1.390 . S
C410 C409 1.387 . S
H411 C423 0.930 . S
H412 C425 0.930 . S
H413 C426 0.930 . S
H414 C430 0.959 . S
H415 C430 0.959 . S
H416 C430 0.961 . S
H417 C431 0.960 . S
H418 C431 0.961 . S
H419 C431 0.959 . S
H420 C434 0.929 . S
H421 C435 0.931 . S
H422 C437 0.930 . S
C423 H411 0.930 . S
C423 C424 1.399 . S
C423 C428 1.399 . S
C424 C423 1.399 . S
C424 C425 1.376 . S
C425 H412 0.930 . S
C425 C424 1.376 . S
C425 C426 1.388 . S
C426 H413 0.930 . S
C426 C425 1.388 . S
C426 C427 1.390 . S
C427 C426 1.390 . S
C427 C428 1.394 . S
C427 C433 1.465 . S
C428 C423 1.399 . S
C428 C427 1.394 . S
C428 C429 1.516 . S
C429 C428 1.516 . S
C429 C430 1.502 . S
C429 C431 1.561 . S
C429 C432 1.526 . S
C430 H414 0.959 . S
C430 H415 0.959 . S
C430 H416 0.961 . S
C430 C429 1.502 . S
C431 H417 0.960 . S
C431 H418 0.961 . S
C431 H419 0.959 . S
C431 C429 1.561 . S
C432 C429 1.526 . S
C432 C433 1.396 . S
C432 C437 1.390 . S
C433 C427 1.465 . S
C433 C432 1.396 . S
C433 C434 1.399 . S
C434 H420 0.929 . S
C434 C433 1.399 . S
C434 C435 1.385 . S
C435 H421 0.931 . S
C435 C434 1.385 . S
C435 C436 1.389 . S
C436 C435 1.389 . S
C436 C437 1.387 . S
C437 H422 0.930 . S
C437 C432 1.390 . S
C437 C436 1.387 . S
H438 C450 0.930 . S
H439 C452 0.930 . S
H440 C453 0.930 . S
H441 C457 0.959 . S
H442 C457 0.959 . S
H443 C457 0.961 . S
H444 C458 0.960 . S
H445 C458 0.961 . S
H446 C458 0.959 . S
H447 C461 0.929 . S
H448 C462 0.931 . S
H449 C464 0.930 . S
C450 H438 0.930 . S
C450 C451 1.399 . S
C450 C455 1.399 . S
C451 C450 1.399 . S
C451 C452 1.376 . S
C452 H439 0.930 . S
C452 C451 1.376 . S
C452 C453 1.388 . S
C453 H440 0.930 . S
C453 C452 1.388 . S
C453 C454 1.390 . S
C454 C453 1.390 . S
C454 C455 1.394 . S
C454 C460 1.465 . S
C455 C450 1.399 . S
C455 C454 1.394 . S
C455 C456 1.516 . S
C456 C455 1.516 . S
C456 C457 1.502 . S
C456 C458 1.561 . S
C456 C459 1.526 . S
C457 H441 0.959 . S
C457 H442 0.959 . S
C457 H443 0.961 . S
C457 C456 1.502 . S
C458 H444 0.960 . S
C458 H445 0.961 . S
C458 H446 0.959 . S
C458 C456 1.561 . S
C459 C456 1.526 . S
C459 C460 1.396 . S
C459 C464 1.390 . S
C460 C454 1.465 . S
C460 C459 1.396 . S
C460 C461 1.399 . S
C461 H447 0.929 . S
C461 C460 1.399 . S
C461 C462 1.385 . S
C462 H448 0.931 . S
C462 C461 1.385 . S
C462 C463 1.389 . S
C463 C462 1.389 . S
C463 C464 1.387 . S
C464 H449 0.930 . S
C464 C459 1.390 . S
C464 C463 1.387 . S
H465 C477 0.930 . S
H466 C479 0.930 . S
H467 C480 0.930 . S
H468 C484 0.959 . S
H469 C484 0.959 . S
H470 C484 0.961 . S
H471 C485 0.960 . S
H472 C485 0.961 . S
H473 C485 0.959 . S
H474 C488 0.929 . S
H475 C489 0.931 . S
H476 C491 0.930 1_554 S
C477 H465 0.930 . S
C477 C478 1.399 . S
C477 C482 1.399 . S
C478 C477 1.399 . S
C478 C479 1.376 . S
C479 H466 0.930 . S
C479 C478 1.376 . S
C479 C480 1.388 . S
C480 H467 0.930 . S
C480 C479 1.388 . S
C480 C481 1.390 . S
C481 C480 1.390 . S
C481 C482 1.394 . S
C481 C487 1.465 . S
C482 C477 1.399 . S
C482 C481 1.394 . S
C482 C483 1.516 . S
C483 C482 1.516 . S
C483 C484 1.502 . S
C483 C485 1.561 1_556 S
C483 C486 1.526 . S
C484 H468 0.959 . S
C484 H469 0.959 . S
C484 H470 0.961 . S
C484 C483 1.502 . S
C485 H471 0.960 . S
C485 H472 0.961 . S
C485 H473 0.959 . S
C485 C483 1.561 1_554 S
C486 C483 1.526 . S
C486 C487 1.396 . S
C486 C491 1.390 . S
C487 C481 1.465 . S
C487 C486 1.396 . S
C487 C488 1.399 . S
C488 H474 0.929 . S
C488 C487 1.399 . S
C488 C489 1.385 . S
C489 H475 0.931 . S
C489 C488 1.385 . S
C489 C490 1.389 . S
C490 C489 1.389 . S
C490 C491 1.387 . S
C491 H476 0.930 1_556 S
C491 C486 1.390 . S
C491 C490 1.387 . S
H492 C504 0.930 . S
H493 C506 0.930 . S
H494 C507 0.930 . S
H495 C511 0.959 . S
H496 C511 0.959 . S
H497 C511 0.961 . S
H498 C512 0.960 . S
H499 C512 0.961 . S
H500 C512 0.959 . S
H501 C515 0.929 . S
H502 C516 0.931 . S
H503 C518 0.930 . S
C504 H492 0.930 . S
C504 C505 1.399 . S
C504 C509 1.399 . S
C505 C504 1.399 . S
C505 C506 1.376 . S
C506 H493 0.930 . S
C506 C505 1.376 . S
C506 C507 1.388 . S
C507 H494 0.930 . S
C507 C506 1.388 . S
C507 C508 1.390 . S
C508 C507 1.390 . S
C508 C509 1.394 . S
C508 C514 1.465 . S
C509 C504 1.399 . S
C509 C508 1.394 . S
C509 C510 1.516 . S
C510 C509 1.516 . S
C510 C511 1.502 . S
C510 C512 1.561 . S
C510 C513 1.526 . S
C511 H495 0.959 . S
C511 H496 0.959 . S
C511 H497 0.961 . S
C511 C510 1.502 . S
C512 H498 0.960 . S
C512 H499 0.961 . S
C512 H500 0.959 . S
C512 C510 1.561 . S
C513 C510 1.526 . S
C513 C514 1.396 . S
C513 C518 1.390 . S
C514 C508 1.465 . S
C514 C513 1.396 . S
C514 C515 1.399 . S
C515 H501 0.929 . S
C515 C514 1.399 . S
C515 C516 1.385 . S
C516 H502 0.931 . S
C516 C515 1.385 . S
C516 C517 1.389 . S
C517 C516 1.389 . S
C517 C518 1.387 . S
C518 H503 0.930 . S
C518 C513 1.390 . S
C518 C517 1.387 . S
H519 C531 0.930 . S
H520 C533 0.930 . S
H521 C534 0.930 . S
H522 C538 0.959 . S
H523 C538 0.959 . S
H524 C538 0.961 . S
H525 C539 0.960 1_554 S
H526 C539 0.961 . S
H527 C539 0.959 . S
H528 C542 0.929 . S
H529 C543 0.931 . S
H530 C545 0.930 . S
C531 H519 0.930 . S
C531 C532 1.399 . S
C531 C536 1.399 . S
C532 C531 1.399 . S
C532 C533 1.376 . S
C533 H520 0.930 . S
C533 C532 1.376 . S
C533 C534 1.388 1_554 S
C534 H521 0.930 . S
C534 C533 1.388 1_556 S
C534 C535 1.390 . S
C535 C534 1.390 . S
C535 C536 1.394 1_556 S
C535 C541 1.465 . S
C536 C531 1.399 . S
C536 C535 1.394 1_554 S
C536 C537 1.516 1_554 S
C537 C536 1.516 1_556 S
C537 C538 1.502 1_556 S
C537 C539 1.561 . S
C537 C540 1.526 . S
C538 H522 0.959 . S
C538 H523 0.959 . S
C538 H524 0.961 . S
C538 C537 1.502 1_554 S
C539 H525 0.960 1_556 S
C539 H526 0.961 . S
C539 H527 0.959 . S
C539 C537 1.561 . S
C540 C537 1.526 . S
C540 C541 1.396 . S
C540 C545 1.390 . S
C541 C535 1.465 . S
C541 C540 1.396 . S
C541 C542 1.399 . S
C542 H528 0.929 . S
C542 C541 1.399 . S
C542 C543 1.385 . S
C543 H529 0.931 . S
C543 C542 1.385 . S
C543 C544 1.389 . S
C544 C543 1.389 . S
C544 C545 1.387 . S
C545 H530 0.930 . S
C545 C540 1.390 . S
C545 C544 1.387 . S
H546 C558 0.930 . S
H547 C560 0.930 . S
H548 C561 0.930 . S
H549 C565 0.959 . S
H550 C565 0.959 . S
H551 C565 0.961 . S
H552 C566 0.960 . S
H553 C566 0.961 . S
H554 C566 0.959 . S
H555 C569 0.929 . S
H556 C570 0.931 1_556 S
H557 C572 0.930 . S
C558 H546 0.930 . S
C558 C559 1.399 . S
C558 C563 1.399 . S
C559 C558 1.399 . S
C559 C560 1.376 . S
C560 H547 0.930 . S
C560 C559 1.376 . S
C560 C561 1.388 . S
C561 H548 0.930 . S
C561 C560 1.388 . S
C561 C562 1.390 . S
C562 C561 1.390 . S
C562 C563 1.394 . S
C562 C568 1.465 . S
C563 C558 1.399 . S
C563 C562 1.394 . S
C563 C564 1.516 . S
C564 C563 1.516 . S
C564 C565 1.502 . S
C564 C566 1.561 . S
C564 C567 1.526 . S
C565 H549 0.959 . S
C565 H550 0.959 . S
C565 H551 0.961 . S
C565 C564 1.502 . S
C566 H552 0.960 . S
C566 H553 0.961 . S
C566 H554 0.959 . S
C566 C564 1.561 . S
C567 C564 1.526 . S
C567 C568 1.396 . S
C567 C572 1.390 . S
C568 C562 1.465 . S
C568 C567 1.396 . S
C568 C569 1.399 . S
C569 H555 0.929 . S
C569 C568 1.399 . S
C569 C570 1.385 . S
C570 H556 0.931 1_554 S
C570 C569 1.385 . S
C570 C571 1.389 . S
C571 C570 1.389 . S
C571 C572 1.387 . S
C572 H557 0.930 . S
C572 C567 1.390 . S
C572 C571 1.387 . S
H573 C585 0.930 . S
H574 C587 0.930 . S
H575 C588 0.930 . S
H576 C592 0.959 . S
H577 C592 0.959 . S
H578 C592 0.961 . S
H579 C593 0.960 . S
H580 C593 0.961 . S
H581 C593 0.959 . S
H582 C596 0.929 . S
H583 C597 0.931 . S
H584 C599 0.930 . S
C585 H573 0.930 . S
C585 C586 1.399 . S
C585 C590 1.399 . S
C586 C585 1.399 . S
C586 C587 1.376 . S
C587 H574 0.930 . S
C587 C586 1.376 . S
C587 C588 1.388 . S
C588 H575 0.930 . S
C588 C587 1.388 . S
C588 C589 1.390 . S
C589 C588 1.390 . S
C589 C590 1.394 . S
C589 C595 1.465 . S
C590 C585 1.399 . S
C590 C589 1.394 . S
C590 C591 1.516 . S
C591 C590 1.516 . S
C591 C592 1.502 . S
C591 C593 1.561 . S
C591 C594 1.526 . S
C592 H576 0.959 . S
C592 H577 0.959 . S
C592 H578 0.961 . S
C592 C591 1.502 . S
C593 H579 0.960 . S
C593 H580 0.961 . S
C593 H581 0.959 . S
C593 C591 1.561 . S
C594 C591 1.526 . S
C594 C595 1.396 . S
C594 C599 1.390 . S
C595 C589 1.465 . S
C595 C594 1.396 . S
C595 C596 1.399 . S
C596 H582 0.929 . S
C596 C595 1.399 . S
C596 C597 1.385 . S
C597 H583 0.931 . S
C597 C596 1.385 . S
C597 C598 1.389 . S
C598 C597 1.389 . S
C598 C599 1.387 . S
C599 H584 0.930 . S
C599 C594 1.390 . S
C599 C598 1.387 . S
H600 C612 0.930 . S
H601 C614 0.930 . S
H602 C615 0.930 . S
H603 C619 0.959 . S
H604 C619 0.959 . S
H605 C619 0.961 . S
H606 C620 0.960 . S
H607 C620 0.961 . S
H608 C620 0.959 . S
H609 C623 0.929 . S
H610 C624 0.931 . S
H611 C626 0.930 . S
C612 H600 0.930 . S
C612 C613 1.399 . S
C612 C617 1.399 . S
C613 C612 1.399 . S
C613 C614 1.376 . S
C614 H601 0.930 . S
C614 C613 1.376 . S
C614 C615 1.388 . S
C615 H602 0.930 . S
C615 C614 1.388 . S
C615 C616 1.390 . S
C616 C615 1.390 . S
C616 C617 1.394 . S
C616 C622 1.465 . S
C617 C612 1.399 . S
C617 C616 1.394 . S
C617 C618 1.516 . S
C618 C617 1.516 . S
C618 C619 1.502 . S
C618 C620 1.561 . S
C618 C621 1.526 . S
C619 H603 0.959 . S
C619 H604 0.959 . S
C619 H605 0.961 . S
C619 C618 1.502 . S
C620 H606 0.960 . S
C620 H607 0.961 . S
C620 H608 0.959 . S
C620 C618 1.561 . S
C621 C618 1.526 . S
C621 C622 1.396 . S
C621 C626 1.390 . S
C622 C616 1.465 . S
C622 C621 1.396 . S
C622 C623 1.399 . S
C623 H609 0.929 . S
C623 C622 1.399 . S
C623 C624 1.385 . S
C624 H610 0.931 . S
C624 C623 1.385 . S
C624 C625 1.389 . S
C625 C624 1.389 . S
C625 C626 1.387 . S
C626 H611 0.930 . S
C626 C621 1.390 . S
C626 C625 1.387 . S
H627 C639 0.930 . S
H628 C641 0.930 . S
H629 C642 0.930 . S
H630 C646 0.959 . S
H631 C646 0.959 . S
H632 C646 0.961 . S
H633 C647 0.960 . S
H634 C647 0.961 . S
H635 C647 0.959 . S
H636 C650 0.929 . S
H637 C651 0.931 . S
H638 C653 0.930 . S
C639 H627 0.930 . S
C639 C640 1.399 . S
C639 C644 1.399 . S
C640 C639 1.399 . S
C640 C641 1.376 . S
C641 H628 0.930 . S
C641 C640 1.376 . S
C641 C642 1.388 . S
C642 H629 0.930 . S
C642 C641 1.388 . S
C642 C643 1.390 . S
C643 C642 1.390 . S
C643 C644 1.394 . S
C643 C649 1.465 . S
C644 C639 1.399 . S
C644 C643 1.394 . S
C644 C645 1.516 . S
C645 C644 1.516 . S
C645 C646 1.502 . S
C645 C647 1.561 . S
C645 C648 1.526 . S
C646 H630 0.959 . S
C646 H631 0.959 . S
C646 H632 0.961 . S
C646 C645 1.502 . S
C647 H633 0.960 . S
C647 H634 0.961 . S
C647 H635 0.959 . S
C647 C645 1.561 . S
C648 C645 1.526 . S
C648 C649 1.396 . S
C648 C653 1.390 . S
C649 C643 1.465 . S
C649 C648 1.396 . S
C649 C650 1.399 . S
C650 H636 0.929 . S
C650 C649 1.399 . S
C650 C651 1.385 . S
C651 H637 0.931 . S
C651 C650 1.385 . S
C651 C652 1.389 . S
C652 C651 1.389 . S
C652 C653 1.387 . S
C653 H638 0.930 . S
C653 C648 1.390 . S
C653 C652 1.387 . S
H654 C666 0.930 . S
H655 C668 0.930 1_554 S
H656 C669 0.930 . S
H657 C673 0.959 . S
H658 C673 0.959 . S
H659 C673 0.961 . S
H660 C674 0.960 . S
H661 C674 0.961 . S
H662 C674 0.959 . S
H663 C677 0.929 . S
H664 C678 0.931 . S
H665 C680 0.930 . S
C666 H654 0.930 . S
C666 C667 1.399 . S
C666 C671 1.399 . S
C667 C666 1.399 . S
C667 C668 1.376 . S
C668 H655 0.930 1_556 S
C668 C667 1.376 . S
C668 C669 1.388 . S
C669 H656 0.930 . S
C669 C668 1.388 . S
C669 C670 1.390 . S
C670 C669 1.390 . S
C670 C671 1.394 . S
C670 C676 1.465 1_455 S
C671 C666 1.399 . S
C671 C670 1.394 . S
C671 C672 1.516 . S
C672 C671 1.516 . S
C672 C673 1.502 . S
C672 C674 1.561 . S
C672 C675 1.526 1_455 S
C673 H657 0.959 . S
C673 H658 0.959 . S
C673 H659 0.961 . S
C673 C672 1.502 . S
C674 H660 0.960 . S
C674 H661 0.961 . S
C674 H662 0.959 . S
C674 C672 1.561 . S
C675 C672 1.526 1_655 S
C675 C676 1.396 . S
C675 C680 1.390 . S
C676 C670 1.465 1_655 S
C676 C675 1.396 . S
C676 C677 1.399 . S
C677 H663 0.929 . S
C677 C676 1.399 . S
C677 C678 1.385 . S
C678 H664 0.931 . S
C678 C677 1.385 . S
C678 C679 1.389 . S
C679 C678 1.389 . S
C679 C680 1.387 . S
C680 H665 0.930 . S
C680 C675 1.390 . S
C680 C679 1.387 . S
H681 C693 0.930 . S
H682 C695 0.930 . S
H683 C696 0.930 . S
H684 C700 0.959 . S
H685 C700 0.959 . S
H686 C700 0.961 . S
H687 C701 0.960 . S
H688 C701 0.961 . S
H689 C701 0.959 . S
H690 C704 0.929 1_565 S
H691 C705 0.931 . S
H692 C707 0.930 . S
C693 H681 0.930 . S
C693 C694 1.399 . S
C693 C698 1.399 . S
C694 C693 1.399 . S
C694 C695 1.376 1_556 S
C695 H682 0.930 . S
C695 C694 1.376 1_554 S
C695 C696 1.388 . S
C696 H683 0.930 . S
C696 C695 1.388 . S
C696 C697 1.390 . S
C697 C696 1.390 . S
C697 C698 1.394 1_554 S
C697 C703 1.465 1_565 S
C698 C693 1.399 . S
C698 C697 1.394 1_556 S
C698 C699 1.516 1_565 S
C699 C698 1.516 1_545 S
C699 C700 1.502 . S
C699 C701 1.561 . S
C699 C702 1.526 1_556 S
C700 H684 0.959 . S
C700 H685 0.959 . S
C700 H686 0.961 . S
C700 C699 1.502 . S
C701 H687 0.960 . S
C701 H688 0.961 . S
C701 H689 0.959 . S
C701 C699 1.561 . S
C702 C699 1.526 1_554 S
C702 C703 1.396 . S
C702 C707 1.390 . S
C703 C697 1.465 1_545 S
C703 C702 1.396 . S
C703 C704 1.399 . S
C704 H690 0.929 1_545 S
C704 C703 1.399 . S
C704 C705 1.385 . S
C705 H691 0.931 . S
C705 C704 1.385 . S
C705 C706 1.389 . S
C706 C705 1.389 . S
C706 C707 1.387 . S
C707 H692 0.930 . S
C707 C702 1.390 . S
C707 C706 1.387 . S
H708 C720 0.930 . S
H709 C722 0.930 . S
H710 C723 0.930 . S
H711 C727 0.959 . S
H712 C727 0.959 . S
H713 C727 0.961 . S
H714 C728 0.960 . S
H715 C728 0.961 . S
H716 C728 0.959 . S
H717 C731 0.929 . S
H718 C732 0.931 . S
H719 C734 0.930 . S
C720 H708 0.930 . S
C720 C721 1.399 . S
C720 C725 1.399 . S
C721 C720 1.399 . S
C721 C722 1.376 . S
C722 H709 0.930 . S
C722 C721 1.376 . S
C722 C723 1.388 . S
C723 H710 0.930 . S
C723 C722 1.388 . S
C723 C724 1.390 . S
C724 C723 1.390 . S
C724 C725 1.394 . S
C724 C730 1.465 . S
C725 C720 1.399 . S
C725 C724 1.394 . S
C725 C726 1.516 . S
C726 C725 1.516 . S
C726 C727 1.502 . S
C726 C728 1.561 . S
C726 C729 1.526 . S
C727 H711 0.959 . S
C727 H712 0.959 . S
C727 H713 0.961 . S
C727 C726 1.502 . S
C728 H714 0.960 . S
C728 H715 0.961 . S
C728 H716 0.959 . S
C728 C726 1.561 . S
C729 C726 1.526 . S
C729 C730 1.396 . S
C729 C734 1.390 . S
C730 C724 1.465 . S
C730 C729 1.396 . S
C730 C731 1.399 . S
C731 H717 0.929 . S
C731 C730 1.399 . S
C731 C732 1.385 . S
C732 H718 0.931 . S
C732 C731 1.385 . S
C732 C733 1.389 . S
C733 C732 1.389 . S
C733 C734 1.387 . S
C734 H719 0.930 . S
C734 C729 1.390 . S
C734 C733 1.387 . S
H735 C747 0.930 . S
H736 C749 0.930 . S
H737 C750 0.930 . S
H738 C754 0.959 . S
H739 C754 0.933 1_655 S
H740 C754 0.961 . S
H741 C755 0.960 . S
H742 C755 0.961 . S
H743 C755 0.959 . S
H744 C758 0.929 . S
H745 C759 0.931 . S
H746 C761 0.930 . S
C747 H735 0.930 . S
C747 C748 1.399 . S
C747 C752 1.399 . S
C748 C747 1.399 . S
C748 C749 1.376 . S
C749 H736 0.930 . S
C749 C748 1.376 . S
C749 C750 1.388 . S
C750 H737 0.930 . S
C750 C749 1.388 . S
C750 C751 1.390 . S
C751 C750 1.390 . S
C751 C752 1.394 . S
C751 C757 1.465 1_455 S
C752 C747 1.399 . S
C752 C751 1.394 . S
C752 C753 1.520 . S
C753 C752 1.520 . S
C753 C754 1.502 . S
C753 C755 1.559 1_455 S
C753 C756 1.525 1_455 S
C754 H738 0.959 . S
C754 H739 0.933 1_455 S
C754 H740 0.961 . S
C754 C753 1.502 . S
C755 H741 0.960 . S
C755 H742 0.961 . S
C755 H743 0.959 . S
C755 C753 1.559 1_655 S
C756 C753 1.525 1_655 S
C756 C757 1.396 . S
C756 C761 1.390 . S
C757 C751 1.465 1_655 S
C757 C756 1.396 . S
C757 C758 1.399 . S
C758 H744 0.929 . S
C758 C757 1.399 . S
C758 C759 1.385 . S
C759 H745 0.931 . S
C759 C758 1.385 . S
C759 C760 1.389 . S
C760 C759 1.389 . S
C760 C761 1.387 . S
C761 H746 0.930 . S
C761 C756 1.390 . S
C761 C760 1.387 . S
H762 C774 0.930 . S
H763 C776 0.930 . S
H764 C777 0.930 1_565 S
H765 C781 0.959 . S
H766 C781 0.959 . S
H767 C781 0.961 . S
H768 C782 0.960 . S
H769 C782 0.961 . S
H770 C782 0.959 . S
H771 C785 0.929 . S
H772 C786 0.931 . S
H773 C788 0.930 . S
C774 H762 0.930 . S
C774 C775 1.399 . S
C774 C779 1.399 . S
C775 C774 1.399 . S
C775 C776 1.376 . S
C776 H763 0.930 . S
C776 C775 1.376 . S
C776 C777 1.388 . S
C777 H764 0.930 1_545 S
C777 C776 1.388 . S
C777 C778 1.390 . S
C778 C777 1.390 . S
C778 C779 1.394 . S
C778 C784 1.465 1_545 S
C779 C774 1.399 . S
C779 C778 1.394 . S
C779 C780 1.516 . S
C780 C779 1.516 . S
C780 C781 1.502 . S
C780 C782 1.561 . S
C780 C783 1.526 1_545 S
C781 H765 0.959 . S
C781 H766 0.959 . S
C781 H767 0.961 . S
C781 C780 1.502 . S
C782 H768 0.960 . S
C782 H769 0.961 . S
C782 H770 0.959 . S
C782 C780 1.561 . S
C783 C780 1.526 1_565 S
C783 C784 1.396 . S
C783 C788 1.390 . S
C784 C778 1.465 1_565 S
C784 C783 1.396 . S
C784 C785 1.399 . S
C785 H771 0.929 . S
C785 C784 1.399 . S
C785 C786 1.385 . S
C786 H772 0.931 . S
C786 C785 1.385 . S
C786 C787 1.389 . S
C787 C786 1.389 . S
C787 C788 1.387 . S
C788 H773 0.930 . S
C788 C783 1.390 . S
C788 C787 1.387 . S
H789 C801 0.930 . S
H790 C803 0.930 . S
H791 C804 0.930 . S
H792 C808 0.959 . S
H793 C808 0.959 . S
H794 C808 0.961 . S
H795 C809 0.960 . S
H796 C809 0.961 . S
H797 C809 0.959 . S
H798 C812 0.929 . S
H799 C813 0.931 . S
H800 C815 0.930 . S
C801 H789 0.930 . S
C801 C802 1.399 . S
C801 C806 1.399 . S
C802 C801 1.399 . S
C802 C803 1.376 . S
C803 H790 0.930 . S
C803 C802 1.376 . S
C803 C804 1.388 . S
C804 H791 0.930 . S
C804 C803 1.388 . S
C804 C805 1.390 . S
C805 C804 1.390 . S
C805 C806 1.394 . S
C805 C811 1.465 . S
C806 C801 1.399 . S
C806 C805 1.394 . S
C806 C807 1.516 . S
C807 C806 1.516 . S
C807 C808 1.502 . S
C807 C809 1.561 . S
C807 C810 1.526 . S
C808 H792 0.959 . S
C808 H793 0.959 . S
C808 H794 0.961 . S
C808 C807 1.502 . S
C809 H795 0.960 . S
C809 H796 0.961 . S
C809 H797 0.959 . S
C809 C807 1.561 . S
C810 C807 1.526 . S
C810 C811 1.396 . S
C810 C815 1.390 . S
C811 C805 1.465 . S
C811 C810 1.396 . S
C811 C812 1.399 . S
C812 H798 0.929 . S
C812 C811 1.399 . S
C812 C813 1.385 . S
C813 H799 0.931 . S
C813 C812 1.385 . S
C813 C814 1.389 . S
C814 C813 1.389 . S
C814 C815 1.387 . S
C815 H800 0.930 . S
C815 C810 1.390 . S
C815 C814 1.387 . S
C181 C9 1.454 . S
C193 C149 1.430 . S
C208 C163 1.446 . S
C220 C23 1.455 . S
C235 C37 1.443 . S
C247 C93 1.456 . S
C262 C51 1.444 . S
C274 C107 1.412 . S
C289 C65 1.402 . S
C301 C121 1.391 . S
C316 C135 1.455 . S
C328 C79 1.446 1_554 S
C343 C7 1.597 . S
C355 C119 1.591 . S
C370 C21 1.589 . S
C382 C133 1.596 . S
C397 C147 1.592 . S
C409 C35 1.582 . S
C424 C49 1.549 . S
C436 C161 1.561 . S
C451 C63 1.589 . S
C463 C91 1.596 . S
C478 C77 1.542 . S
C490 C105 1.541 1_556 S
C505 C143 1.388 . S
C517 C3 1.390 . S
C532 C17 1.386 . S
C544 C157 1.390 . S
C559 C31 1.383 . S
C571 C87 1.382 1_554 S
C586 C45 1.386 . S
C598 C101 1.390 . S
C613 C115 1.383 . S
C625 C59 1.389 . S
C640 C73 1.388 . S
C652 C129 1.390 . S
C667 C8 1.395 . S
C679 C162 1.382 . S
C694 C92 1.376 . S
C706 C22 1.403 . S
C721 C106 1.389 . S
C733 C36 1.392 . S
C748 C120 1.396 . S
C760 C50 1.385 . S
C775 C134 1.403 . S
C787 C64 1.376 . S
C802 C148 1.381 . S
C814 C78 1.395 . S
