# Generated by pormake.
# Topology wkj, (6)-cn, num edge types: 1
# Building blocks:
#     Node 0, Type 0, BuildingBlock: UKALOJ_clean_sbu_0, # of connection points: 6
#     Node 1, Type 0, BuildingBlock: UKALOJ_clean_sbu_0, # of connection points: 6
#     Node 2, Type 0, BuildingBlock: UKALOJ_clean_sbu_0, # of connection points: 6
#     Node 3, Type 0, BuildingBlock: UKALOJ_clean_sbu_0, # of connection points: 6
#     Node 4, Type 0, BuildingBlock: UKALOJ_clean_sbu_0, # of connection points: 6
#     Node 5, Type 0, BuildingBlock: UKALOJ_clean_sbu_0, # of connection points: 6
#     Node 6, Type 0, BuildingBlock: UKALOJ_clean_sbu_0, # of connection points: 6
#     Node 7, Type 0, BuildingBlock: UKALOJ_clean_sbu_0, # of connection points: 6
#     Node 8, Type 0, BuildingBlock: UKALOJ_clean_sbu_0, # of connection points: 6
#     Node 9, Type 0, BuildingBlock: UKALOJ_clean_sbu_0, # of connection points: 6
#     Node 10, Type 0, BuildingBlock: UKALOJ_clean_sbu_0, # of connection points: 6
#     Node 11, Type 0, BuildingBlock: UKALOJ_clean_sbu_0, # of connection points: 6
#     Edge 12, Type (0, 0), BuildingBlock: OJICUG_clean_linker_0, # of connection points: 2
#     Edge 13, Type (0, 0), BuildingBlock: OJICUG_clean_linker_0, # of connection points: 2
#     Edge 14, Type (0, 0), BuildingBlock: OJICUG_clean_linker_0, # of connection points: 2
#     Edge 15, Type (0, 0), BuildingBlock: OJICUG_clean_linker_0, # of connection points: 2
#     Edge 16, Type (0, 0), BuildingBlock: OJICUG_clean_linker_0, # of connection points: 2
#     Edge 17, Type (0, 0), BuildingBlock: OJICUG_clean_linker_0, # of connection points: 2
#     Edge 18, Type (0, 0), BuildingBlock: OJICUG_clean_linker_0, # of connection points: 2
#     Edge 19, Type (0, 0), BuildingBlock: OJICUG_clean_linker_0, # of connection points: 2
#     Edge 20, Type (0, 0), BuildingBlock: OJICUG_clean_linker_0, # of connection points: 2
#     Edge 21, Type (0, 0), BuildingBlock: OJICUG_clean_linker_0, # of connection points: 2
#     Edge 22, Type (0, 0), BuildingBlock: OJICUG_clean_linker_0, # of connection points: 2
#     Edge 23, Type (0, 0), BuildingBlock: OJICUG_clean_linker_0, # of connection points: 2
#     Edge 24, Type (0, 0), BuildingBlock: OJICUG_clean_linker_0, # of connection points: 2
#     Edge 25, Type (0, 0), BuildingBlock: OJICUG_clean_linker_0, # of connection points: 2
#     Edge 26, Type (0, 0), BuildingBlock: OJICUG_clean_linker_0, # of connection points: 2
#     Edge 27, Type (0, 0), BuildingBlock: OJICUG_clean_linker_0, # of connection points: 2
#     Edge 28, Type (0, 0), BuildingBlock: OJICUG_clean_linker_0, # of connection points: 2
#     Edge 29, Type (0, 0), BuildingBlock: OJICUG_clean_linker_0, # of connection points: 2
#     Edge 30, Type (0, 0), BuildingBlock: OJICUG_clean_linker_0, # of connection points: 2
#     Edge 31, Type (0, 0), BuildingBlock: OJICUG_clean_linker_0, # of connection points: 2
#     Edge 32, Type (0, 0), BuildingBlock: OJICUG_clean_linker_0, # of connection points: 2
#     Edge 33, Type (0, 0), BuildingBlock: OJICUG_clean_linker_0, # of connection points: 2
#     Edge 34, Type (0, 0), BuildingBlock: OJICUG_clean_linker_0, # of connection points: 2
#     Edge 35, Type (0, 0), BuildingBlock: OJICUG_clean_linker_0, # of connection points: 2
#     Edge 36, Type (0, 0), BuildingBlock: OJICUG_clean_linker_0, # of connection points: 2
#     Edge 37, Type (0, 0), BuildingBlock: OJICUG_clean_linker_0, # of connection points: 2
#     Edge 38, Type (0, 0), BuildingBlock: OJICUG_clean_linker_0, # of connection points: 2
#     Edge 39, Type (0, 0), BuildingBlock: OJICUG_clean_linker_0, # of connection points: 2
#     Edge 40, Type (0, 0), BuildingBlock: OJICUG_clean_linker_0, # of connection points: 2
#     Edge 41, Type (0, 0), BuildingBlock: OJICUG_clean_linker_0, # of connection points: 2
#     Edge 42, Type (0, 0), BuildingBlock: OJICUG_clean_linker_0, # of connection points: 2
#     Edge 43, Type (0, 0), BuildingBlock: OJICUG_clean_linker_0, # of connection points: 2
#     Edge 44, Type (0, 0), BuildingBlock: OJICUG_clean_linker_0, # of connection points: 2
#     Edge 45, Type (0, 0), BuildingBlock: OJICUG_clean_linker_0, # of connection points: 2
#     Edge 46, Type (0, 0), BuildingBlock: OJICUG_clean_linker_0, # of connection points: 2
#     Edge 47, Type (0, 0), BuildingBlock: OJICUG_clean_linker_0, # of connection points: 2
# Relax obj value: 1.036
# Max RMSD: 0.242
# Mean RMSD: 0.242
data_MOF--net-wkj--node1-UKALOJ_clean_sbu_0--edge1-OJICUG_clean_linker_0
_symmetry_space_group_name_H-M    P1
_symmetry_Int_Tables_number       1
_symmetry_cell_setting            triclinic
loop_
_symmetry_equiv_pos_as_xyz
'x, y, z'
_cell_length_a     50.078831
_cell_length_b     49.910498
_cell_length_c     15.751985
_cell_angle_alpha  89.966161
_cell_angle_beta   90.07147
_cell_angle_gamma 119.9133
loop_
_atom_site_label
_atom_site_type_symbol
_atom_site_fract_x
_atom_site_fract_y
_atom_site_fract_z
_atom_type_partial_charge
Zn0 Zn 0.50159 0.06817 0.30402 0.0
O1 O 0.46543 0.04825 0.38503 0.0
C2 C 0.54076 0.12443 0.42365 0.0
Zn3 Zn 0.49418 0.10848 0.28513 0.0
C4 C 0.44751 0.05834 0.40245 0.0
O5 O 0.4542 0.08526 0.37596 0.0
C6 C 0.54801 0.11275 0.17968 0.0
O7 O 0.46071 0.07665 0.18489 0.0
O8 O 0.47207 0.04028 0.21354 0.0
N9 N 0.48399 0.14447 0.26518 0.0
C10 C 0.49019 0.16657 0.20573 0.0
C11 C 0.46855 0.17556 0.30917 0.0
N12 N 0.47049 0.15034 0.32891 0.0
N13 N 0.48092 0.18676 0.23226 0.0
C14 C 0.52758 0.04348 0.41196 0.0
C15 C 0.55735 0.04322 0.31889 0.0
N16 N 0.51159 0.03446 0.339 0.0
N17 N 0.52941 0.03138 0.28297 0.0
N18 N 0.5575 0.05311 0.39902 0.0
H19 H 0.49404 1.01879 0.50763 0.0
H20 H 0.53085 0.04909 0.5484 0.0
H21 H 0.50324 0.05747 0.49907 0.0
C22 C 0.51355 0.04245 0.49691 0.0
C23 C 0.50372 0.16693 0.12082 0.0
H24 H 0.49829 0.14322 0.10296 0.0
H25 H 0.49461 0.17614 0.07149 0.0
H26 H 0.52914 0.18178 0.12408 0.0
O27 O 0.53428 0.12833 0.19245 0.0
O28 O 0.53776 0.08695 0.21704 0.0
C29 C 0.45577 0.04894 0.17344 0.0
O30 O 0.5326 0.09763 0.39787 0.0
O31 O 0.52727 0.13783 0.39047 0.0
Zn32 Zn 0.40569 0.48276 0.59731 0.0
O33 O 0.39588 0.44635 0.49693 0.0
C34 C 0.44807 0.53247 0.47517 0.0
Zn35 Zn 0.45258 0.48706 0.5967 0.0
C36 C 0.41714 0.44067 0.47331 0.0
O37 O 0.44406 0.45691 0.50224 0.0
C38 C 0.44422 0.52826 0.73266 0.0
O39 O 0.44051 0.45175 0.67822 0.0
O40 O 0.39451 0.44622 0.69579 0.0
N41 N 0.49762 0.49511 0.59808 0.0
C42 C 0.50852 0.51436 0.66394 0.0
C43 C 0.52528 0.54139 0.5534 0.0
N44 N 0.51161 0.51155 0.52987 0.0
N45 N 0.52193 0.54376 0.63768 0.0
C46 C 0.3419 0.47706 0.53811 0.0
C47 C 0.31609 0.4628 0.65275 0.0
N48 N 0.3599 0.47387 0.59702 0.0
N49 N 0.3436 0.46494 0.66798 0.0
N50 N 0.31424 0.47048 0.57171 0.0
H51 H 0.36715 0.4767 0.42822 0.0
H52 H 0.33037 0.47384 0.40518 0.0
H53 H 0.36271 0.51016 0.43848 0.0
C54 C 0.35095 0.48472 0.44698 0.0
C55 C 0.508 0.50393 0.75285 0.0
H56 H 0.49694 0.47837 0.75597 0.0
H57 H 0.53203 0.51457 0.77631 0.0
H58 H 0.49569 0.51178 0.79484 0.0
O59 O 0.46022 0.51778 0.70089 0.0
O60 O 0.41749 0.51878 0.701 0.0
C61 C 0.41416 0.43753 0.71181 0.0
O62 O 0.41979 0.51936 0.49763 0.0
O63 O 0.46507 0.52323 0.50801 0.0
Zn64 Zn 0.94737 0.38843 0.91183 0.0
O65 O 0.9671 0.3667 0.82033 0.0
C66 C 0.95103 0.4392 0.78369 0.0
Zn67 Zn 0.99069 0.43015 0.89461 0.0
C68 C 0.99123 0.38566 0.77876 0.0
O69 O 1.00239 0.41398 0.79223 0.0
C70 C 0.95037 0.43932 0.02531 0.0
O71 O 1.00614 0.40568 0.97018 0.0
O72 O 0.96338 0.37117 0.0248 0.0
N73 N 1.03588 0.46141 0.90093 0.0
C74 C 0.05282 0.46733 0.97217 0.0
C75 C 0.08211 0.47296 0.86823 0.0
N76 N 0.05401 0.46421 0.83663 0.0
N77 N 0.08258 0.47526 0.95408 0.0
C78 C 0.88623 0.32631 0.8557 0.0
C79 C 0.8615 0.31348 0.97218 0.0
N80 N 0.90386 0.34808 0.91387 0.0
N81 N 0.88828 0.33984 0.98601 0.0
N82 N 0.85938 0.30413 0.89086 0.0
H83 H 0.91141 0.35224 0.74587 0.0
H84 H 0.90605 0.31395 0.75391 0.0
H85 H 0.87405 0.31884 0.72322 0.0
C86 C 0.89484 0.32805 0.76412 0.0
C87 C 1.03917 0.46304 0.06001 0.0
H88 H 1.01557 0.44387 0.06561 0.0
H89 H 0.05283 0.45853 0.1068 0.0
H90 H 1.03687 0.48319 0.07767 0.0
O91 O 0.97794 0.4508 0.99819 0.0
O92 O 0.93074 0.41191 1.0013 0.0
C93 C 0.99278 0.38489 0.0247 0.0
O94 O 0.93406 0.4104 0.80366 0.0
O95 O 0.97784 0.45446 0.81578 0.0
Zn96 Zn 0.57952 0.94176 0.2715 0.0
O97 O 0.61903 0.95526 0.17758 0.0
C98 C 0.5432 0.9602 0.15131 0.0
Zn99 Zn 0.59598 0.99137 0.27046 0.0
C100 C 0.6318 0.98268 0.14666 0.0
O101 O 0.62269 1.00067 0.1708 0.0
C102 C 0.54419 0.95622 0.40181 0.0
O103 O 0.63341 0.99656 0.34399 0.0
O104 O 0.60952 0.94856 0.38212 0.0
N105 N 0.61639 0.03835 0.28283 0.0
C106 C 0.6255 0.05432 0.35581 0.0
C107 C 0.6441 0.0869 0.25594 0.0
N108 N 0.62896 0.05855 0.22046 0.0
N109 N 0.64235 0.08539 0.34189 0.0
C110 C 0.57199 0.8769 0.20873 0.0
C111 C 0.55505 0.84972 0.32055 0.0
N112 N 0.56772 0.89448 0.26704 0.0
N113 N 0.5571 0.87727 0.33617 0.0
N114 N 0.56452 0.8486 0.24108 0.0
H115 H 0.57519 0.90454 0.10031 0.0
H116 H 0.60716 0.89806 0.11455 0.0
H117 H 0.57093 0.86721 0.0751 0.0
C118 C 0.58175 0.88718 0.11924 0.0
C119 C 0.61712 0.03881 0.4406 0.0
H120 H 0.63416 0.05252 0.48919 0.0
H121 H 0.59403 0.034 0.45792 0.0
H122 H 0.61446 1.01601 0.44104 0.0
O123 O 0.56583 0.98254 0.3781 0.0
O124 O 0.54173 0.93223 0.36462 0.0
C125 C 0.63131 0.9761 0.39471 0.0
O126 O 0.548 0.93764 0.16681 0.0
O127 O 0.5595 0.98588 0.18998 0.0
Zn128 Zn 0.67066 0.57355 0.59054 0.0
O129 O 0.69131 0.615 0.49804 0.0
C130 C 0.62034 0.52575 0.46295 0.0
Zn131 Zn 0.62863 0.57457 0.57279 0.0
C132 C 0.67201 0.61972 0.45626 0.0
O133 O 0.64388 0.60218 0.46985 0.0
C134 C 0.62078 0.52558 0.70494 0.0
O135 O 0.65278 0.61489 0.64756 0.0
O136 O 0.68744 0.60698 0.70324 0.0
N137 N 0.59699 0.58816 0.58024 0.0
C138 C 0.59125 0.59907 0.65202 0.0
C139 C 0.58456 0.62251 0.54886 0.0
N140 N 0.59356 0.60338 0.51642 0.0
N141 N 0.58286 0.62075 0.63478 0.0
C142 C 0.73267 0.5746 0.533 0.0
C143 C 0.74597 0.56254 0.64873 0.0
N144 N 0.71133 0.57077 0.59203 0.0
N145 N 0.71986 0.56332 0.66369 0.0
N146 N 0.75486 0.56963 0.56712 0.0
H147 H 0.74449 0.60664 0.43083 0.0
H148 H 0.73937 0.56958 0.40019 0.0
H149 H 0.70627 0.57389 0.42419 0.0
C150 C 0.73046 0.58135 0.44152 0.0
C151 C 0.596 0.5896 0.73935 0.0
H152 H 0.60037 0.60751 0.7868 0.0
H153 H 0.57622 0.56692 0.75672 0.0
H154 H 0.61543 0.58553 0.74423 0.0
O155 O 0.60884 0.54128 0.67709 0.0
O156 O 0.64814 0.53359 0.68077 0.0
C157 C 0.67342 0.62247 0.70259 0.0
O158 O 0.64909 0.53802 0.48308 0.0
O159 O 0.60468 0.53702 0.49454 0.0
Zn160 Zn 0.08548 0.61001 0.91556 0.0
O161 O 0.06361 0.62373 0.99595 0.0
C162 C 0.13272 0.61424 0.05347 0.0
Zn163 Zn 0.13008 0.65523 0.91737 0.0
C164 C 0.07739 0.64984 0.03148 0.0
O165 O 0.10614 0.66803 1.01656 0.0
C166 C 0.13414 0.61145 0.79502 0.0
O167 O 0.10603 0.66799 0.8165 0.0
O168 O 0.06625 0.62083 0.82041 0.0
N169 N 0.16908 0.69996 0.91902 0.0
C170 C 0.1901 0.71814 0.85999 0.0
C171 C 0.20443 0.74184 0.97791 0.0
N172 N 0.17822 0.71495 0.99202 0.0
N173 N 0.21284 0.74469 0.89552 0.0
C174 C 0.05379 0.55372 0.9779 0.0
C175 C 0.06224 0.53602 0.86625 0.0
N176 N 0.04665 0.56603 0.91297 0.0
N177 N 0.04798 0.55174 0.84385 0.0
N178 N 0.06791 0.53855 0.95057 0.0
H179 H 1.02783 0.56359 0.06869 0.0
H180 H 1.0295 0.52855 0.08727 0.0
H181 H 0.06227 0.56534 0.10976 0.0
C182 C 0.04268 0.55294 0.06599 0.0
C183 C 0.18711 0.71028 0.76752 0.0
H184 H 0.16267 0.69438 0.75064 0.0
H185 H 0.19627 0.73151 0.72827 0.0
H186 H 0.20039 0.69846 0.75336 0.0
O187 O 0.15094 0.63962 0.8177 0.0
O188 O 0.10777 0.59582 0.82794 0.0
C189 C 0.07879 0.64798 0.7916 0.0
O190 O 0.10614 0.59991 0.02143 0.0
O191 O 0.15172 0.64043 0.02119 0.0
Zn192 Zn 0.94506 0.5644 0.40998 0.0
O193 O 0.96983 0.6009 0.51105 0.0
C194 C 0.93919 0.51576 0.5334 0.0
Zn195 Zn 0.98874 0.56193 0.41302 0.0
C196 C 0.99684 0.60741 0.53605 0.0
O197 O 1.00869 0.59213 0.50758 0.0
C198 C 0.94095 0.51972 0.27492 0.0
O199 O 1.01155 0.59721 0.33184 0.0
O200 O 0.97015 0.60105 0.31138 0.0
N201 N 1.0267 0.55537 0.41672 0.0
C202 C 1.01901 0.53568 0.35224 0.0
C203 C 1.00972 0.50963 0.46452 0.0
N204 N 1.02481 0.53969 0.48628 0.0
N205 N 1.00404 0.50644 0.3802 0.0
C206 C 0.8862 0.56934 0.46668 0.0
C207 C 0.87388 0.58221 0.3507 0.0
N208 N 0.90719 0.57207 0.40783 0.0
N209 N 0.89933 0.58013 0.33602 0.0
N210 N 0.86478 0.57538 0.43225 0.0
H211 H 0.9123 0.57065 0.57678 0.0
H212 H 0.87868 0.5741 0.59921 0.0
H213 H 0.87445 0.53731 0.56901 0.0
C214 C 0.88808 0.56264 0.55845 0.0
C215 C 1.03022 0.54567 0.26399 0.0
H216 H 0.04575 0.57109 0.26109 0.0
H217 H 0.04272 0.53379 0.24265 0.0
H218 H 1.01072 0.53911 0.22034 0.0
O219 O 0.96732 0.53098 0.30791 0.0
O220 O 0.92272 0.52819 0.30574 0.0
C221 C 0.99871 0.61054 0.29653 0.0
O222 O 0.92305 0.52777 0.50972 0.0
O223 O 0.96557 0.52585 0.50118 0.0
Zn224 Zn 0.43359 0.98972 0.78035 0.0
O225 O 0.41825 1.00096 0.68193 0.0
C226 C 0.46006 0.9623 0.65518 0.0
Zn227 Zn 0.40553 0.94 0.77498 0.0
C228 C 0.39264 0.9816 0.65166 0.0
O229 O 0.37929 0.95361 0.67965 0.0
C230 C 0.45243 0.95458 0.9054 0.0
O231 O 0.38286 0.94285 0.89204 0.0
O232 O 0.39655 0.98821 0.84813 0.0
N233 N 0.37227 0.89251 0.76677 0.0
C234 C 0.34189 0.8778 0.78696 0.0
C235 C 0.35316 0.84299 0.75895 0.0
N236 N 0.37908 0.87067 0.74918 0.0
N237 N 0.32926 0.84655 0.78352 0.0
C238 C 0.47891 0.06287 0.80034 0.0
C239 C 0.45441 0.07238 0.89318 0.0
N240 N 0.45385 0.03582 0.81794 0.0
N241 N 0.438 0.04255 0.87242 0.0
N242 N 0.48189 0.08568 0.85412 0.0
H243 H 0.47095 0.06256 0.66748 0.0
H244 H 0.50588 0.09504 0.70606 0.0
H245 H 0.5022 0.05677 0.69427 0.0
C246 C 0.49059 0.06983 0.712 0.0
C247 C 0.32452 0.89437 0.80569 0.0
H248 H 0.33585 0.91751 0.77577 0.0
H249 H 0.30044 0.88082 0.78242 0.0
H250 H 0.32413 0.89758 0.87524 0.0
O251 O 0.43424 0.93088 0.86145 0.0
O252 O 0.45338 0.98009 0.88959 0.0
C253 C 0.38492 0.96877 0.90631 0.0
O254 O 0.46854 0.98753 0.6974 0.0
O255 O 0.43316 0.93908 0.66902 0.0
Zn256 Zn 0.49946 0.39095 0.09048 0.0
O257 O 0.46263 0.37616 0.19224 0.0
C258 C 0.54619 0.43493 0.21427 0.0
Zn259 Zn 0.49809 0.43536 0.09429 0.0
C260 C 0.45466 0.39557 0.21839 0.0
O261 O 0.46818 0.42271 0.18956 0.0
C262 C 0.54222 0.43433 0.95526 0.0
O263 O 0.46252 0.42128 1.01418 0.0
O264 O 0.4628 0.37798 0.99082 0.0
N265 N 0.50093 0.47836 0.10192 0.0
C266 C 0.52083 0.49212 0.03904 0.0
C267 C 0.5454 0.50927 0.15336 0.0
N268 N 0.51536 0.49207 0.17295 0.0
N269 N 0.54966 0.50806 0.06911 0.0
C270 C 0.49095 0.32429 0.14078 0.0
C271 C 0.50026 0.31037 0.02202 0.0
N272 N 0.49598 0.34683 0.08397 0.0
N273 N 0.50169 0.33784 1.01042 0.0
N274 N 0.4935 0.30105 0.10337 0.0
H275 H 0.49561 0.35068 0.25346 0.0
H276 H 0.46042 0.31424 0.24546 0.0
H277 H 0.49571 0.3148 0.27163 0.0
C278 C 0.48559 0.32623 0.23343 0.0
C279 C 0.51097 0.49497 0.95181 0.0
H280 H 0.48575 0.486 0.9497 0.0
H281 H 0.5235 0.51959 0.9323 0.0
H282 H 0.51652 0.48165 0.9064 0.0
O283 O 0.529 0.44771 0.9878 0.0
O284 O 0.53613 0.40828 0.98677 0.0
C285 C 0.45129 0.39555 0.9769 0.0
O286 O 0.53592 0.40694 0.19082 0.0
O287 O 0.5346 0.44992 0.18155 0.0
Zn288 Zn 0.12348 0.47516 0.41609 0.0
O289 O 0.10339 0.43361 0.5074 0.0
C290 C 0.12045 0.52245 0.54442 0.0
Zn291 Zn 0.08046 0.4742 0.43302 0.0
C292 C 0.07939 0.4288 0.54896 0.0
O293 O 0.06859 0.44625 0.5353 0.0
C294 C 0.1212 0.52354 0.30292 0.0
O295 O 0.06458 0.43433 0.35721 0.0
O296 O 0.10721 0.44205 0.30289 0.0
N297 N 1.03535 0.46071 0.42745 0.0
C298 C 1.01815 0.44977 0.35662 0.0
C299 C 0.98906 0.42646 0.46125 0.0
N300 N 1.01732 0.44559 0.49217 0.0
N301 N 0.98834 0.42822 0.37542 0.0
C302 C 0.18419 0.47369 0.47248 0.0
C303 C 0.20974 0.4867 0.3573 0.0
N304 N 0.16688 0.47817 0.41404 0.0
N305 N 0.18297 0.48622 0.3427 0.0
N306 N 0.21131 0.47881 0.43831 0.0
H307 H 0.16347 0.44077 0.5724 0.0
H308 H 0.19565 0.47719 0.6054 0.0
H309 H 0.15868 0.47399 0.58201 0.0
C310 C 0.17507 0.46618 0.5636 0.0
C311 C 1.03155 0.45893 0.2685 0.0
H312 H 1.01762 0.44075 0.22199 0.0
H313 H 1.03398 0.48143 0.25073 0.0
H314 H 0.0551 0.46325 0.2625 0.0
O315 O 0.09351 0.5077 0.32952 0.0
O316 O 0.14049 0.51537 0.32715 0.0
C317 C 0.07778 0.42672 0.30273 0.0
O318 O 0.13708 0.51027 0.52443 0.0
O319 O 0.09373 0.51134 0.51206 0.0
Zn320 Zn 0.61835 0.06769 0.80272 0.0
O321 O 0.62059 0.04164 0.70562 0.0
C322 C 0.61396 0.11384 0.68545 0.0
Zn323 Zn 0.66514 0.1093 0.78786 0.0
C324 C 0.64669 0.05089 0.67124 0.0
O325 O 0.66885 0.07842 0.68767 0.0
C326 C 0.63286 0.12049 0.92804 0.0
O327 O 0.68463 0.08869 0.87916 0.0
O328 O 0.63825 0.04878 0.8747 0.0
N329 N 0.70954 0.14709 0.76288 0.0
C330 C 0.73019 0.16935 0.8154 0.0
C331 C 0.74888 0.18077 0.69087 0.0
N332 N 0.7214 0.15433 0.68553 0.0
N333 N 0.755 0.191 0.77176 0.0
C334 C 0.55682 0.0416 0.84518 0.0
C335 C 0.56614 0.04004 0.97619 0.0
N336 N 0.57734 0.03204 0.84919 0.0
N337 N 0.58099 0.02846 0.93126 0.0
N338 N 0.55151 0.04927 0.92248 0.0
H339 H 0.54262 0.04356 0.71868 0.0
H340 H 0.52523 1.00561 0.76589 0.0
H341 H 0.51275 0.03199 0.79908 0.0
C342 C 0.53291 0.03029 0.77788 0.0
C343 C 0.72684 0.16877 0.91001 0.0
H344 H 0.7126 0.14476 0.93323 0.0
H345 H 0.74975 0.17952 0.94127 0.0
H346 H 0.71538 0.18206 0.92802 0.0
O347 O 0.65848 0.13661 0.89022 0.0
O348 O 0.61581 0.0931 0.90388 0.0
C349 C 0.6658 0.06049 0.89825 0.0
O350 O 0.59803 0.08776 0.72235 0.0
O351 O 0.64332 0.12795 0.69555 0.0
Zn352 Zn 0.58028 0.66122 0.09429 0.0
O353 O 0.62174 0.68308 0.18593 0.0
C354 C 0.53375 0.61073 0.2229 0.0
Zn355 Zn 0.58214 0.61927 0.11083 0.0
C356 C 0.62705 0.66402 0.22701 0.0
O357 O 0.61009 0.63577 0.21286 0.0
C358 C 0.53261 0.60996 0.98105 0.0
O359 O 0.62155 0.64283 0.03458 0.0
O360 O 0.61352 0.67776 0.98064 0.0
N361 N 0.59576 0.58759 0.10723 0.0
C362 C 0.60684 0.58089 0.03747 0.0
C363 C 0.63028 0.57613 0.14366 0.0
N364 N 0.61091 0.58524 0.17288 0.0
N365 N 0.62854 0.57294 0.058 0.0
C366 C 0.57367 0.72013 0.14923 0.0
C367 C 0.58049 0.74275 0.03016 0.0
N368 N 0.57757 0.70237 0.0907 0.0
N369 N 0.58173 0.71669 1.01699 0.0
N370 N 0.57537 0.74572 0.11273 0.0
H371 H 0.58076 0.69896 0.25945 0.0
H372 H 0.58106 0.73493 0.27977 0.0
H373 H 0.54536 0.69997 0.25817 0.0
C374 C 0.57024 0.71322 0.24227 0.0
C375 C 0.59791 0.58459 0.94848 0.0
H376 H 0.59319 0.60362 0.94106 0.0
H377 H 0.61636 0.58878 0.90312 0.0
H378 H 0.5758 0.56421 0.93031 0.0
O379 O 0.54892 0.59855 1.00776 0.0
O380 O 0.54016 0.63738 1.00498 0.0
C381 C 0.62894 0.66365 0.98011 0.0
O382 O 0.54525 0.63954 0.20307 0.0
O383 O 0.54533 0.59555 0.19016 0.0
C384 C 0.50819 0.23451 0.14173 0.0
C385 C 0.48371 0.21498 0.19573 0.0
H386 H 0.53033 0.27694 0.07041 0.0
C387 C 0.46299 0.22508 0.22038 0.0
H388 H 0.52549 0.22871 0.1238 0.0
C389 C 0.46645 0.25339 0.19196 0.0
C390 C 0.49073 0.27266 0.13762 0.0
H391 H 0.44391 0.21094 0.26211 0.0
H392 H 0.4497 0.25987 0.21112 0.0
C393 C 0.51134 0.26263 0.11225 0.0
C394 C 0.25796 0.45128 0.56231 0.0
C395 C 0.28831 0.47214 0.53576 0.0
H396 H 0.20979 0.43644 0.55155 0.0
C397 C 0.29268 0.49573 0.47888 0.0
H398 H 0.25372 0.43291 0.60635 0.0
C399 C 0.26747 0.49796 0.44827 0.0
C400 C 0.23713 0.47707 0.47461 0.0
H401 H 0.3156 0.51297 0.4594 0.0
H402 H 0.27174 0.51637 0.40433 0.0
C403 C 0.23274 0.45356 0.53181 0.0
C404 C 0.80331 0.26665 0.88693 0.0
C405 C 0.83317 0.27654 0.85571 0.0
H406 H 0.7553 0.23263 0.88371 0.0
C407 C 0.8367 0.25765 0.79555 0.0
H408 H 0.79961 0.28058 0.93297 0.0
C409 C 0.8111 0.22976 0.76787 0.0
C410 C 0.7814 0.2197 0.80065 0.0
H411 H 0.85928 0.26381 0.77174 0.0
H412 H 0.8146 0.21564 0.72207 0.0
C413 C 0.77786 0.23887 0.85951 0.0
C414 C 0.59279 0.8019 0.11834 0.0
C415 C 0.57331 0.7716 0.14828 0.0
H416 H 0.60647 0.84991 0.1256 0.0
C417 C 0.55064 0.76719 0.20808 0.0
H418 H 0.61058 0.80621 0.07247 0.0
C419 C 0.54758 0.7923 0.23676 0.0
C420 C 0.567 0.8227 0.20659 0.0
H421 H 0.53475 0.74422 0.23118 0.0
H422 H 0.52973 0.78787 0.28253 0.0
C423 C 0.59001 0.82705 0.14777 0.0
C424 C 0.79166 0.55 0.55861 0.0
C425 C 0.78203 0.57066 0.53032 0.0
H426 H 0.82458 0.53455 0.54886 0.0
C427 C 0.80064 0.5933 0.47061 0.0
H428 H 0.77794 0.53225 0.60448 0.0
C429 C 0.8278 0.59494 0.43969 0.0
C430 C 0.83748 0.57432 0.46827 0.0
H431 H 0.79471 0.61025 0.44919 0.0
H432 H 0.84153 0.61266 0.39377 0.0
C433 C 0.81876 0.5516 0.52762 0.0
C434 C 0.28603 0.79232 0.76767 0.0
C435 C 0.29866 0.82159 0.80679 0.0
H436 H 0.24973 0.745 0.76508 0.0
C437 C 0.28189 0.82486 0.87373 0.0
H438 H 0.2985 0.78862 0.71722 0.0
C439 C 0.25342 0.80003 0.8996 0.0
C440 C 0.24074 0.77073 0.86077 0.0
H441 H 0.29118 0.84616 0.90908 0.0
H442 H 0.24158 0.8036 0.95201 0.0
C443 C 0.25763 0.76726 0.79438 0.0
C444 C 0.60635 0.14718 0.9955 0.0
C445 C 0.62195 0.13025 1.00375 0.0
H446 H 0.57061 0.15537 0.04443 0.0
C447 C 0.61633 0.11222 0.07678 0.0
H448 H 0.60926 0.16045 0.93837 0.0
C449 C 0.59368 0.10838 0.13496 0.0
C450 C 0.57601 0.12304 0.12414 0.0
H451 H 0.6271 0.09814 0.084 0.0
H452 H 0.58864 0.09191 0.18561 0.0
C453 C 0.58375 0.14384 0.05566 0.0
C454 C 0.50072 0.60593 0.35291 0.0
C455 C 0.50639 0.59315 0.28011 0.0
H456 H 0.47617 0.59668 0.47174 0.0
C457 C 0.48731 0.56114 0.26596 0.0
H458 H 0.51489 0.63038 0.36611 0.0
C459 C 0.46528 0.54207 0.32567 0.0
C460 C 0.46129 0.55418 0.40181 0.0
H461 H 0.4906 0.55036 0.21031 0.0
H462 H 0.45309 0.5173 0.31531 0.0
C463 C 0.47843 0.58656 0.41334 0.0
C464 C 0.95359 0.48865 0.74018 0.0
C465 C 0.94055 0.45655 0.72742 0.0
H466 H 0.962 0.5321 0.69035 0.0
C467 C 0.92067 0.44323 0.65741 0.0
H468 H 0.96867 0.49985 0.79383 0.0
C469 C 0.91643 0.46213 0.59791 0.0
C470 C 0.93179 0.49459 0.60765 0.0
H471 H 0.91019 0.41867 0.64543 0.0
H472 H 0.90315 0.45163 0.54097 0.0
C473 C 0.94932 0.50725 0.68148 0.0
C474 C 0.48965 0.97951 0.02602 0.0
C475 C 0.47369 0.95392 0.97179 0.0
H476 H 0.52341 1.00148 0.12346 0.0
C477 C 0.48002 0.92946 0.97901 0.0
H478 H 0.48538 0.99871 0.02317 0.0
C479 C 0.50226 0.93105 0.03747 0.0
C480 C 0.51873 0.95716 0.0901 0.0
H481 H 0.46832 0.90941 0.93822 0.0
H482 H 0.50687 0.91206 0.04045 0.0
C483 C 0.51165 0.98109 0.08394 0.0
C484 C 0.59927 0.46704 0.28052 0.0
C485 C 0.56689 0.44973 0.28881 0.0
H486 H 0.64203 0.50492 0.32844 0.0
C487 C 0.55363 0.4551 0.36056 0.0
H488 H 0.61019 0.46408 0.2248 0.0
C489 C 0.57156 0.47854 0.41849 0.0
C490 C 0.60358 0.4977 0.40713 0.0
H491 H 0.52881 0.44275 0.36823 0.0
H492 H 0.55989 0.48266 0.47045 0.0
C493 C 0.6175 0.49076 0.33935 0.0
C494 C 0.15557 0.5794 0.73095 0.0
C495 C 0.14085 0.59709 0.72106 0.0
H496 H 0.16095 0.54171 0.68321 0.0
C497 C 0.12347 0.59267 0.64719 0.0
H498 H 0.16869 0.58182 0.78799 0.0
C499 C 0.11879 0.56972 0.58833 0.0
C500 C 0.13127 0.55019 0.60104 0.0
H501 H 0.11128 0.60532 0.63829 0.0
H502 H 0.10388 0.56623 0.53455 0.0
C503 C 0.15093 0.55621 0.67127 0.0
C504 C 0.39167 1.01061 1.00708 0.0
C505 C 0.39122 0.98238 0.9933 0.0
H506 H 0.41325 0.05457 0.0718 0.0
C507 C 0.4077 0.97436 0.04994 0.0
H508 H 0.37921 1.01755 0.96448 0.0
C509 C 0.42754 0.99572 0.10991 0.0
C510 C 0.43129 1.02568 0.11605 0.0
H511 H 0.40806 0.95299 0.0419 0.0
H512 H 0.44132 0.98915 0.14826 0.0
C513 C 0.41174 0.0322 0.06727 0.0
C514 C 0.43777 0.38654 0.36849 0.0
C515 C 0.43114 0.38951 0.2839 0.0
H516 H 0.43712 0.40004 0.497 0.0
C517 C 0.41063 0.40067 0.26731 0.0
H518 H 0.4538 0.37859 0.3834 0.0
C519 C 0.40165 0.41384 0.33217 0.0
C520 C 0.41261 0.41542 0.41478 0.0
H521 H 0.40536 0.40349 0.20228 0.0
H522 H 0.38968 0.42617 0.3156 0.0
C523 C 0.42846 0.3993 0.43341 0.0
C524 C 0.06608 0.40288 0.69048 0.0
C525 C 0.05959 0.40157 0.60347 0.0
H526 H 0.04795 0.39582 0.81675 0.0
C527 C 1.0284 0.3835 0.57812 0.0
H528 H 0.08951 0.41715 0.71285 0.0
C529 C 1.00428 0.37228 0.63791 0.0
C530 C 1.01082 0.3778 0.72479 0.0
H531 H 1.02245 0.38249 0.51154 0.0
H532 H 0.9809 0.36333 0.61538 0.0
C533 C 0.04195 0.39061 0.75029 0.0
C534 C 0.67935 1.02684 0.09357 0.0
C535 C 0.65598 0.99573 0.08056 0.0
H536 H 0.70047 0.07332 0.04507 0.0
C537 C 0.64709 0.98584 0.99701 0.0
H538 H 0.68692 0.03512 0.15762 0.0
C539 C 0.65577 1.00776 0.93178 0.0
C540 C 0.67294 0.03981 0.94961 0.0
H541 H 0.62933 0.96223 0.98433 0.0
H542 H 0.64501 0.99987 0.87014 0.0
C543 C 0.68711 0.04901 0.02909 0.0
C544 C 0.66584 0.66501 0.42807 0.0
C545 C 0.67914 0.64707 0.4022 0.0
H546 H 0.63857 0.68547 0.39142 0.0
C547 C 0.68446 0.64616 0.31515 0.0
H548 H 0.66074 0.66568 0.49466 0.0
C549 C 0.67274 0.65883 0.2557 0.0
C550 C 0.65435 0.67162 0.28148 0.0
H551 H 0.69373 0.63199 0.29229 0.0
H552 H 0.67373 0.65398 0.18906 0.0
C553 C 0.65308 0.67662 0.36861 0.0
C554 C 0.06983 0.66067 0.6452 0.0
C555 C 0.06009 0.65388 0.72955 0.0
H556 H 0.05602 0.65198 0.5149 0.0
C557 C 1.02832 0.6409 0.74729 0.0
H558 H 0.09394 0.67022 0.62941 0.0
C559 C 1.00641 0.62979 0.68175 0.0
C560 C 1.01608 0.632 0.59754 0.0
H561 H 1.02019 0.63531 0.81216 0.0
H562 H 0.98223 0.61584 0.69769 0.0
C563 C 0.04792 0.64999 0.57965 0.0
C564 C 0.60131 0.08524 0.49341 0.0
C565 C 0.58215 0.08297 0.42553 0.0
H566 H 0.64876 0.10087 0.52568 0.0
C567 C 0.59532 0.10704 0.36468 0.0
H568 H 0.59216 0.07001 0.54773 0.0
C569 C 0.62734 0.12343 0.35538 0.0
C570 C 0.64268 0.10966 0.39431 0.0
H571 H 0.58144 0.10958 0.31698 0.0
H572 H 0.63676 0.13739 0.29887 0.0
C573 C 0.63341 0.10215 0.47952 0.0
C574 C 0.53295 0.58024 0.75654 0.0
C575 C 0.51962 0.56867 0.67646 0.0
H576 H 0.56655 0.62247 0.81874 0.0
C577 C 0.51562 0.58941 0.62371 0.0
H578 H 0.53277 0.56542 0.80675 0.0
C579 C 0.53578 0.62118 0.636 0.0
C580 C 0.56211 0.62757 0.68358 0.0
H581 H 0.50243 0.58158 0.56598 0.0
H582 H 0.53712 0.63696 0.58677 0.0
C583 C 0.55283 0.61244 0.76227 0.0
C584 C 0.10495 0.50698 0.07842 0.0
C585 C 0.11039 0.49652 1.00117 0.0
H586 H 0.07872 0.52813 0.11967 0.0
C587 C 0.13026 0.52221 0.9513 0.0
H588 H 0.10132 0.49388 0.13618 0.0
C589 C 0.11871 0.54225 0.93564 0.0
C590 C 0.09455 0.53945 0.98844 0.0
H591 H 0.14445 0.52001 0.9031 0.0
H592 H 0.12384 0.55448 0.87629 0.0
C593 C 0.09295 0.52707 0.06991 0.0
C594 C 0.96589 0.43803 0.25198 0.0
C595 C 0.96049 0.42202 0.32909 0.0
H596 H 0.99248 0.4854 0.21082 0.0
C597 C 0.94098 0.4281 0.37968 0.0
H598 H 0.96921 0.42851 0.19391 0.0
C599 C 0.95294 0.45976 0.39561 0.0
C600 C 0.9771 0.48097 0.34253 0.0
H601 H 0.9268 0.41174 0.42802 0.0
H602 H 0.94815 0.46692 0.4553 0.0
C603 C 0.97829 0.47017 0.26077 0.0
C604 C 0.50692 0.08612 0.9868 0.0
C605 C 0.50898 0.10031 0.90713 0.0
H606 H 0.51648 0.05331 0.04846 0.0
C607 C 0.53722 0.11245 0.86537 0.0
H608 H 0.48767 0.08035 0.02838 0.0
C609 C 0.55411 0.09752 0.87695 0.0
C610 C 0.54417 0.0732 0.9362 0.0
H611 H 0.54187 0.12696 0.80999 0.0
H612 H 0.57258 0.1025 0.83348 0.0
C613 C 0.52292 0.07012 0.99796 0.0
C614 C 0.6294 0.52603 0.06774 0.0
C615 C 0.63468 0.55075 1.01412 0.0
H616 H 0.59172 0.49588 0.14821 0.0
C617 C 0.61804 0.53886 0.93852 0.0
H618 H 0.6463 0.5291 0.11539 0.0
C619 C 0.58617 0.51912 0.94996 0.0
C620 C 0.57619 0.50828 0.03309 0.0
H621 H 0.62679 0.55088 0.879 0.0
H622 H 0.57047 0.51709 0.90018 0.0
C623 C 0.59807 0.50665 0.0868 0.0
C624 C 0.38899 0.98284 0.49753 0.0
C625 C 0.38394 0.9929 0.57558 0.0
H626 H 0.41368 0.99655 0.38032 0.0
C627 C 0.38987 1.02378 0.58059 0.0
H628 H 0.38452 0.95935 0.4906 0.0
C629 C 0.4082 0.0458 0.51908 0.0
C630 C 0.41896 0.03659 0.44932 0.0
H631 H 0.38585 0.03221 0.63987 0.0
H632 H 0.41686 0.0701 0.53145 0.0
C633 C 0.40659 1.00456 0.43519 0.0
C634 C 0.40842 0.40216 0.92366 0.0
C635 C 0.42839 0.39018 0.9101 0.0
H636 H 0.38757 0.42682 0.86936 0.0
C637 C 0.43404 0.38478 0.82673 0.0
H638 H 0.40364 0.4065 0.98771 0.0
C639 C 0.42451 0.39619 0.75894 0.0
C640 C 0.40937 0.41323 0.77377 0.0
H641 H 0.44945 0.37588 0.8142 0.0
H642 H 0.43251 0.3952 0.69573 0.0
C643 C 0.39909 0.41381 0.85589 0.0
C644 C 0.04552 0.39839 0.08035 0.0
C645 C 1.01326 0.38423 0.09485 0.0
H646 H 0.09141 0.42309 0.13301 0.0
C647 C 1.00333 0.37764 0.17946 0.0
H648 H 0.05437 0.40394 1.01616 0.0
C649 C 1.02492 0.38792 0.24684 0.0
C650 C 0.0572 0.40584 0.23238 0.0
H651 H 0.97905 0.36723 0.19422 0.0
H652 H 1.01608 0.38451 0.31106 0.0
C653 C 0.06711 0.40935 0.14773 0.0
C654 C 0.62682 0.99698 0.61568 0.0
C655 C 0.65006 0.02845 0.61489 0.0
H656 H 0.60395 0.95414 0.54793 0.0
C657 C 0.67371 0.03778 0.55451 0.0
H658 H 0.60881 0.9884 0.66318 0.0
C659 C 0.67089 1.01766 0.48773 0.0
C660 C 0.6446 0.98781 0.48083 0.0
H661 H 0.69236 0.06151 0.55294 0.0
H662 H 0.687 1.02698 0.43541 0.0
C663 C 0.62439 0.9768 0.55027 0.0
C664 C 0.64712 0.67114 0.8255 0.0
C665 C 0.65012 0.66426 0.9102 0.0
H666 H 0.65366 0.66474 0.69399 0.0
C667 C 0.6682 0.64999 0.92508 0.0
H668 H 0.63329 0.68164 0.81038 0.0
C669 C 0.67924 0.6393 0.85797 0.0
C670 C 0.67327 0.64316 0.77309 0.0
H671 H 0.67128 0.64422 0.98932 0.0
H672 H 0.68981 0.62551 0.87296 0.0
C673 C 0.65882 0.66111 0.75836 0.0
C674 C 1.02741 0.64256 0.08203 0.0
C675 C 0.05937 0.6554 0.09631 0.0
H676 H 0.98214 0.61819 0.13656 0.0
C677 C 0.07044 0.66258 0.17953 0.0
H678 H 1.01828 0.63689 1.01805 0.0
C679 C 0.04961 0.65217 0.24741 0.0
C680 C 1.01755 0.63429 0.2328 0.0
H681 H 0.09478 0.6722 0.1926 0.0
H682 H 0.05869 0.65449 0.31117 0.0
C683 C 1.00657 0.63191 0.14989 0.0
C684 C 0.54744 0.11647 0.57444 0.0
C685 C 0.56067 0.13457 0.50232 0.0
H686 H 0.55338 0.09561 0.68622 0.0
C687 C 0.59328 0.15158 0.49949 0.0
H688 H 0.52269 0.10275 0.57683 0.0
C689 C 0.61146 0.14779 0.56328 0.0
C690 C 0.59735 0.12598 0.62962 0.0
H691 H 0.60468 0.16538 0.44401 0.0
H692 H 0.63622 0.15943 0.55552 0.0
C693 C 0.56517 0.112 0.63611 0.0
C694 C 0.47044 0.58158 0.80389 0.0
C695 C 0.45761 0.54915 0.80903 0.0
H696 H 0.50371 0.62646 0.85431 0.0
C697 C 0.46624 0.53768 0.87925 0.0
H698 H 0.46506 0.59151 0.74994 0.0
C699 C 0.48916 0.55756 0.93667 0.0
C700 C 0.50424 0.58995 0.92743 0.0
H701 H 0.45701 0.513 0.88585 0.0
H702 H 0.49617 0.54737 0.98645 0.0
C703 C 0.49304 0.60172 0.86337 0.0
C704 C 0.91825 0.44698 0.14169 0.0
C705 C 0.94182 0.45911 0.07961 0.0
H706 H 0.89921 0.45648 0.25368 0.0
C707 C 0.95918 0.49156 0.07236 0.0
H708 H 0.90406 0.4222 0.14903 0.0
C709 C 0.95555 0.51108 0.12993 0.0
C710 C 0.93467 0.49918 0.1982 0.0
H711 H 0.97675 0.50203 0.0239 0.0
H712 H 0.97096 0.53579 0.12482 0.0
C713 C 0.91511 0.46674 0.20128 0.0
C714 C 0.4914 0.93148 0.47705 0.0
C715 C 0.52248 0.95508 0.47067 0.0
H716 H 0.44745 0.91508 0.53893 0.0
C717 C 0.53259 0.97994 0.52798 0.0
H718 H 0.48244 0.91188 0.43438 0.0
C719 C 0.51254 0.98215 0.58607 0.0
C720 C 0.48138 0.95932 0.59182 0.0
H721 H 0.55627 0.99813 0.52824 0.0
H722 H 0.52159 1.00246 0.62492 0.0
C723 C 0.47122 0.93351 0.5369 0.0
C724 C 0.61413 0.48597 0.82133 0.0
C725 C 0.60153 0.49739 0.7602 0.0
H726 H 0.6055 0.45701 0.93223 0.0
C727 C 0.56915 0.48222 0.75428 0.0
H728 H 0.63889 0.49664 0.82761 0.0
C729 C 0.55014 0.45891 0.812 0.0
C730 C 0.56252 0.44976 0.87898 0.0
H731 H 0.55832 0.48926 0.70653 0.0
H732 H 0.52545 0.44942 0.80768 0.0
C733 C 0.5949 0.46281 0.88088 0.0
C734 C 0.15393 0.56311 0.18686 0.0
C735 C 0.13033 0.55206 0.24883 0.0
H736 H 0.17345 0.59156 0.0749 0.0
C737 C 0.11355 0.56772 0.25609 0.0
H738 H 0.16768 0.55205 0.1796 0.0
C739 C 0.11772 0.59108 0.1985 0.0
C740 C 0.13855 0.59965 0.13021 0.0
H741 H 0.09601 0.56093 0.30453 0.0
H742 H 0.10275 0.60088 0.20361 0.0
C743 C 0.15759 0.58621 0.12725 0.0
loop_
_geom_bond_atom_site_label_1
_geom_bond_atom_site_label_2
_geom_bond_distance
_geom_bond_site_symmetry_2
_ccdc_geom_bond_type
Zn0 O1 2.055 . S
Zn0 O8 2.046 . S
Zn0 N16 2.036 . S
Zn0 O28 2.053 . S
Zn0 O30 2.066 . S
O1 Zn0 2.055 . S
O1 C4 1.259 . S
C2 O30 1.256 . S
C2 O31 1.244 . S
Zn3 O5 2.046 . S
Zn3 O7 2.055 . S
Zn3 N9 2.036 . S
Zn3 O27 2.066 . S
Zn3 O31 2.053 . S
C4 O1 1.259 . S
C4 O5 1.254 . S
O5 Zn3 2.046 . S
O5 C4 1.254 . S
C6 O27 1.256 . S
C6 O28 1.244 . S
O7 Zn3 2.055 . S
O7 C29 1.259 . S
O8 Zn0 2.046 . S
O8 C29 1.254 . S
N9 Zn3 2.036 . S
N9 C10 1.298 . S
N9 N12 1.398 . S
C10 N9 1.298 . S
C10 N13 1.367 . S
C10 C23 1.481 . S
C11 N12 1.299 . S
C11 N13 1.379 . S
N12 N9 1.398 . S
N12 C11 1.299 . S
N13 C10 1.367 . S
N13 C11 1.379 . S
C14 N16 1.298 . S
C14 N18 1.367 1_545 S
C14 C22 1.481 . S
C15 N17 1.290 1_565 S
C15 N18 1.381 . S
N16 Zn0 2.036 . S
N16 C14 1.298 . S
N16 N17 1.398 . S
N17 C15 1.290 1_545 S
N17 N16 1.398 . S
N18 C14 1.367 1_565 S
N18 C15 1.381 . S
H19 C22 0.981 . S
H20 C22 0.980 1_565 S
H21 C22 0.982 . S
C22 C14 1.481 . S
C22 H19 0.981 . S
C22 H20 0.980 1_545 S
C22 H21 0.982 . S
C23 C10 1.481 . S
C23 H24 0.980 . S
C23 H25 0.981 . S
C23 H26 0.981 . S
H24 C23 0.980 . S
H25 C23 0.981 . S
H26 C23 0.981 . S
O27 Zn3 2.066 . S
O27 C6 1.256 . S
O28 Zn0 2.053 . S
O28 C6 1.244 . S
C29 O7 1.259 . S
C29 O8 1.254 . S
O30 Zn0 2.066 . S
O30 C2 1.256 . S
O31 C2 1.244 . S
O31 Zn3 2.053 . S
Zn32 O33 2.055 . S
Zn32 O40 2.046 . S
Zn32 N48 2.036 . S
Zn32 O60 2.053 . S
Zn32 O62 2.066 . S
O33 Zn32 2.055 . S
O33 C36 1.259 . S
C34 O62 1.256 . S
C34 O63 1.244 . S
Zn35 O37 2.046 . S
Zn35 O39 2.055 . S
Zn35 N41 2.036 . S
Zn35 O59 2.066 . S
Zn35 O63 2.053 . S
C36 O33 1.259 . S
C36 O37 1.254 . S
O37 Zn35 2.046 . S
O37 C36 1.254 . S
C38 O59 1.256 . S
C38 O60 1.244 . S
O39 Zn35 2.055 . S
O39 C61 1.259 . S
O40 Zn32 2.046 . S
O40 C61 1.254 . S
N41 Zn35 2.036 . S
N41 C42 1.298 . S
N41 N44 1.398 . S
C42 N41 1.298 . S
C42 N45 1.367 . S
C42 C55 1.481 . S
C43 N44 1.299 . S
C43 N45 1.379 . S
N44 N41 1.398 . S
N44 C43 1.299 . S
N45 C42 1.367 . S
N45 C43 1.379 . S
C46 N48 1.298 . S
C46 N50 1.367 . S
C46 C54 1.481 . S
C47 N49 1.299 . S
C47 N50 1.379 . S
N48 Zn32 2.036 . S
N48 C46 1.298 . S
N48 N49 1.398 . S
N49 C47 1.299 . S
N49 N48 1.398 . S
N50 C46 1.367 . S
N50 C47 1.379 . S
H51 C54 0.980 . S
H52 C54 0.981 . S
H53 C54 0.981 . S
C54 C46 1.481 . S
C54 H51 0.980 . S
C54 H52 0.981 . S
C54 H53 0.981 . S
C55 C42 1.481 . S
C55 H56 0.980 . S
C55 H57 0.981 . S
C55 H58 0.981 . S
H56 C55 0.980 . S
H57 C55 0.981 . S
H58 C55 0.981 . S
O59 Zn35 2.066 . S
O59 C38 1.256 . S
O60 Zn32 2.053 . S
O60 C38 1.244 . S
C61 O39 1.259 . S
C61 O40 1.254 . S
O62 Zn32 2.066 . S
O62 C34 1.256 . S
O63 C34 1.244 . S
O63 Zn35 2.053 . S
Zn64 O65 2.055 . S
Zn64 O72 2.046 1_556 S
Zn64 N80 2.036 . S
Zn64 O92 2.053 1_556 S
Zn64 O94 2.066 . S
O65 Zn64 2.055 . S
O65 C68 1.259 . S
C66 O94 1.256 . S
C66 O95 1.244 . S
Zn67 O69 2.046 . S
Zn67 O71 2.055 1_556 S
Zn67 N73 2.036 . S
Zn67 O91 2.066 1_556 S
Zn67 O95 2.053 . S
C68 O65 1.259 . S
C68 O69 1.254 . S
O69 Zn67 2.046 . S
O69 C68 1.254 . S
C70 O91 1.256 . S
C70 O92 1.244 . S
O71 Zn67 2.055 1_554 S
O71 C93 1.259 . S
O72 Zn64 2.046 1_554 S
O72 C93 1.254 . S
N73 Zn67 2.036 . S
N73 C74 1.298 . S
N73 N76 1.398 . S
C74 N73 1.298 . S
C74 N77 1.367 1_655 S
C74 C87 1.481 1_556 S
C75 N76 1.298 1_455 S
C75 N77 1.382 . S
N76 N73 1.398 . S
N76 C75 1.298 1_655 S
N77 C74 1.367 1_455 S
N77 C75 1.382 . S
C78 N80 1.298 . S
C78 N82 1.367 . S
C78 C86 1.481 . S
C79 N81 1.299 1_556 S
C79 N82 1.379 . S
N80 Zn64 2.036 . S
N80 C78 1.298 . S
N80 N81 1.398 1_556 S
N81 C79 1.299 1_554 S
N81 N80 1.398 1_554 S
N82 C78 1.367 . S
N82 C79 1.379 . S
H83 C86 0.980 . S
H84 C86 0.981 . S
H85 C86 0.981 . S
C86 C78 1.481 . S
C86 H83 0.980 . S
C86 H84 0.981 . S
C86 H85 0.981 . S
C87 C74 1.481 1_554 S
C87 H88 0.980 . S
C87 H89 0.980 1_655 S
C87 H90 0.982 . S
H88 C87 0.980 . S
H89 C87 0.980 1_455 S
H90 C87 0.982 . S
O91 Zn67 2.066 1_554 S
O91 C70 1.256 . S
O92 Zn64 2.053 1_554 S
O92 C70 1.244 . S
C93 O71 1.259 . S
C93 O72 1.254 . S
O94 Zn64 2.066 . S
O94 C66 1.256 . S
O95 C66 1.244 . S
O95 Zn67 2.053 . S
Zn96 O97 2.055 . S
Zn96 O104 2.046 . S
Zn96 N112 2.036 . S
Zn96 O124 2.053 . S
Zn96 O126 2.066 . S
O97 Zn96 2.055 . S
O97 C100 1.259 . S
C98 O126 1.256 . S
C98 O127 1.244 . S
Zn99 O101 2.046 . S
Zn99 O103 2.055 . S
Zn99 N105 2.036 . S
Zn99 O123 2.066 . S
Zn99 O127 2.053 . S
C100 O97 1.259 . S
C100 O101 1.254 . S
O101 Zn99 2.046 . S
O101 C100 1.254 . S
C102 O123 1.256 . S
C102 O124 1.244 . S
O103 Zn99 2.055 . S
O103 C125 1.259 . S
O104 Zn96 2.046 . S
O104 C125 1.254 . S
N105 Zn99 2.036 . S
N105 C106 1.298 . S
N105 N108 1.398 . S
C106 N105 1.298 . S
C106 N109 1.367 1_565 S
C106 C119 1.481 . S
C107 N108 1.290 1_545 S
C107 N109 1.381 . S
N108 N105 1.398 . S
N108 C107 1.290 1_565 S
N109 C106 1.367 1_545 S
N109 C107 1.381 . S
C110 N112 1.298 . S
C110 N114 1.367 . S
C110 C118 1.481 . S
C111 N113 1.299 . S
C111 N114 1.379 . S
N112 Zn96 2.036 . S
N112 C110 1.298 . S
N112 N113 1.398 . S
N113 C111 1.299 . S
N113 N112 1.398 . S
N114 C110 1.367 . S
N114 C111 1.379 . S
H115 C118 0.980 . S
H116 C118 0.981 . S
H117 C118 0.981 . S
C118 C110 1.481 . S
C118 H115 0.980 . S
C118 H116 0.981 . S
C118 H117 0.981 . S
C119 C106 1.481 . S
C119 H120 0.981 . S
C119 H121 0.980 1_565 S
C119 H122 0.982 . S
H120 C119 0.981 . S
H121 C119 0.980 1_545 S
H122 C119 0.982 . S
O123 Zn99 2.066 . S
O123 C102 1.256 . S
O124 Zn96 2.053 . S
O124 C102 1.244 . S
C125 O103 1.259 . S
C125 O104 1.254 . S
O126 Zn96 2.066 . S
O126 C98 1.256 . S
O127 C98 1.244 . S
O127 Zn99 2.053 . S
Zn128 O129 2.055 . S
Zn128 O136 2.046 . S
Zn128 N144 2.036 . S
Zn128 O156 2.053 . S
Zn128 O158 2.066 . S
O129 Zn128 2.055 . S
O129 C132 1.259 . S
C130 O158 1.256 . S
C130 O159 1.244 . S
Zn131 O133 2.046 . S
Zn131 O135 2.055 . S
Zn131 N137 2.036 . S
Zn131 O155 2.066 . S
Zn131 O159 2.053 . S
C132 O129 1.259 . S
C132 O133 1.254 . S
O133 Zn131 2.046 . S
O133 C132 1.254 . S
C134 O155 1.256 . S
C134 O156 1.244 . S
O135 Zn131 2.055 . S
O135 C157 1.259 . S
O136 Zn128 2.046 . S
O136 C157 1.254 . S
N137 Zn131 2.036 . S
N137 C138 1.298 . S
N137 N140 1.398 . S
C138 N137 1.298 . S
C138 N141 1.367 . S
C138 C151 1.481 . S
C139 N140 1.299 . S
C139 N141 1.379 . S
N140 N137 1.398 . S
N140 C139 1.299 . S
N141 C138 1.367 . S
N141 C139 1.379 . S
C142 N144 1.298 . S
C142 N146 1.367 . S
C142 C150 1.481 . S
C143 N145 1.299 . S
C143 N146 1.379 . S
N144 Zn128 2.036 . S
N144 C142 1.298 . S
N144 N145 1.398 . S
N145 C143 1.299 . S
N145 N144 1.398 . S
N146 C142 1.367 . S
N146 C143 1.379 . S
H147 C150 0.980 . S
H148 C150 0.981 . S
H149 C150 0.981 . S
C150 C142 1.481 . S
C150 H147 0.980 . S
C150 H148 0.981 . S
C150 H149 0.981 . S
C151 C138 1.481 . S
C151 H152 0.980 . S
C151 H153 0.981 . S
C151 H154 0.981 . S
H152 C151 0.980 . S
H153 C151 0.981 . S
H154 C151 0.981 . S
O155 Zn131 2.066 . S
O155 C134 1.256 . S
O156 Zn128 2.053 . S
O156 C134 1.244 . S
C157 O135 1.259 . S
C157 O136 1.254 . S
O158 Zn128 2.066 . S
O158 C130 1.256 . S
O159 C130 1.244 . S
O159 Zn131 2.053 . S
Zn160 O161 2.055 1_556 S
Zn160 O168 2.046 . S
Zn160 N176 2.036 . S
Zn160 O188 2.053 . S
Zn160 O190 2.066 1_556 S
O161 Zn160 2.055 1_554 S
O161 C164 1.259 . S
C162 O190 1.256 . S
C162 O191 1.244 . S
Zn163 O165 2.046 1_556 S
Zn163 O167 2.055 . S
Zn163 N169 2.036 . S
Zn163 O187 2.066 . S
Zn163 O191 2.053 1_556 S
C164 O161 1.259 . S
C164 O165 1.254 . S
O165 Zn163 2.046 1_554 S
O165 C164 1.254 . S
C166 O187 1.256 . S
C166 O188 1.244 . S
O167 Zn163 2.055 . S
O167 C189 1.259 . S
O168 Zn160 2.046 . S
O168 C189 1.254 . S
N169 Zn163 2.036 . S
N169 C170 1.298 . S
N169 N172 1.398 1_556 S
C170 N169 1.298 . S
C170 N173 1.367 . S
C170 C183 1.481 . S
C171 N172 1.299 1_556 S
C171 N173 1.379 . S
N172 N169 1.398 1_554 S
N172 C171 1.299 1_554 S
N173 C170 1.367 . S
N173 C171 1.379 . S
C174 N176 1.298 . S
C174 N178 1.367 1_455 S
C174 C182 1.481 1_556 S
C175 N177 1.298 1_655 S
C175 N178 1.382 . S
N176 Zn160 2.036 . S
N176 C174 1.298 . S
N176 N177 1.398 . S
N177 C175 1.298 1_455 S
N177 N176 1.398 . S
N178 C174 1.367 1_655 S
N178 C175 1.382 . S
H179 C182 0.980 . S
H180 C182 0.980 1_655 S
H181 C182 0.982 . S
C182 C174 1.481 1_554 S
C182 H179 0.980 . S
C182 H180 0.980 1_455 S
C182 H181 0.982 . S
C183 C170 1.481 . S
C183 H184 0.980 . S
C183 H185 0.981 . S
C183 H186 0.981 . S
H184 C183 0.980 . S
H185 C183 0.981 . S
H186 C183 0.981 . S
O187 Zn163 2.066 . S
O187 C166 1.256 . S
O188 Zn160 2.053 . S
O188 C166 1.244 . S
C189 O167 1.259 . S
C189 O168 1.254 . S
O190 Zn160 2.066 1_554 S
O190 C162 1.256 . S
O191 C162 1.244 . S
O191 Zn163 2.053 1_554 S
Zn192 O193 2.055 . S
Zn192 O200 2.046 . S
Zn192 N208 2.036 . S
Zn192 O220 2.053 . S
Zn192 O222 2.066 . S
O193 Zn192 2.055 . S
O193 C196 1.259 . S
C194 O222 1.256 . S
C194 O223 1.244 . S
Zn195 O197 2.046 . S
Zn195 O199 2.055 . S
Zn195 N201 2.036 . S
Zn195 O219 2.066 . S
Zn195 O223 2.053 . S
C196 O193 1.259 . S
C196 O197 1.254 . S
O197 Zn195 2.046 . S
O197 C196 1.254 . S
C198 O219 1.256 . S
C198 O220 1.244 . S
O199 Zn195 2.055 . S
O199 C221 1.259 . S
O200 Zn192 2.046 . S
O200 C221 1.254 . S
N201 Zn195 2.036 . S
N201 C202 1.298 . S
N201 N204 1.398 . S
C202 N201 1.298 . S
C202 N205 1.367 1_655 S
C202 C215 1.480 . S
C203 N204 1.291 1_455 S
C203 N205 1.381 . S
N204 N201 1.398 . S
N204 C203 1.291 1_655 S
N205 C202 1.367 1_455 S
N205 C203 1.381 . S
C206 N208 1.298 . S
C206 N210 1.367 . S
C206 C214 1.481 . S
C207 N209 1.299 . S
C207 N210 1.379 . S
N208 Zn192 2.036 . S
N208 C206 1.298 . S
N208 N209 1.398 . S
N209 C207 1.299 . S
N209 N208 1.398 . S
N210 C206 1.367 . S
N210 C207 1.379 . S
H211 C214 0.980 . S
H212 C214 0.981 . S
H213 C214 0.981 . S
C214 C206 1.481 . S
C214 H211 0.980 . S
C214 H212 0.981 . S
C214 H213 0.981 . S
C215 C202 1.480 . S
C215 H216 0.981 . S
C215 H217 0.979 1_655 S
C215 H218 0.982 . S
H216 C215 0.981 . S
H217 C215 0.979 1_455 S
H218 C215 0.982 . S
O219 Zn195 2.066 . S
O219 C198 1.256 . S
O220 Zn192 2.053 . S
O220 C198 1.244 . S
C221 O199 1.259 . S
C221 O200 1.254 . S
O222 Zn192 2.066 . S
O222 C194 1.256 . S
O223 C194 1.244 . S
O223 Zn195 2.053 . S
Zn224 O225 2.055 . S
Zn224 O232 2.046 . S
Zn224 N240 2.036 . S
Zn224 O252 2.053 . S
Zn224 O254 2.066 . S
O225 Zn224 2.055 . S
O225 C228 1.259 . S
C226 O254 1.256 . S
C226 O255 1.244 . S
Zn227 O229 2.046 . S
Zn227 O231 2.055 . S
Zn227 N233 2.036 . S
Zn227 O251 2.066 . S
Zn227 O255 2.053 . S
C228 O225 1.259 . S
C228 O229 1.254 . S
O229 Zn227 2.046 . S
O229 C228 1.254 . S
C230 O251 1.256 . S
C230 O252 1.244 . S
O231 Zn227 2.055 . S
O231 C253 1.259 . S
O232 Zn224 2.046 . S
O232 C253 1.254 . S
N233 Zn227 2.036 . S
N233 C234 1.298 . S
N233 N236 1.398 . S
C234 N233 1.298 . S
C234 N237 1.367 . S
C234 C247 1.481 . S
C235 N236 1.299 . S
C235 N237 1.379 . S
N236 N233 1.398 . S
N236 C235 1.299 . S
N237 C234 1.367 . S
N237 C235 1.379 . S
C238 N240 1.298 . S
C238 N242 1.367 1_565 S
C238 C246 1.481 . S
C239 N241 1.298 1_545 S
C239 N242 1.382 . S
N240 Zn224 2.036 . S
N240 C238 1.298 . S
N240 N241 1.398 . S
N241 C239 1.298 1_565 S
N241 N240 1.398 . S
N242 C238 1.367 1_545 S
N242 C239 1.382 . S
H243 C246 0.980 . S
H244 C246 0.980 1_545 S
H245 C246 0.982 . S
C246 C238 1.481 . S
C246 H243 0.980 . S
C246 H244 0.980 1_565 S
C246 H245 0.982 . S
C247 C234 1.481 . S
C247 H248 0.980 . S
C247 H249 0.981 . S
C247 H250 0.981 . S
H248 C247 0.980 . S
H249 C247 0.981 . S
H250 C247 0.981 . S
O251 Zn227 2.066 . S
O251 C230 1.256 . S
O252 Zn224 2.053 . S
O252 C230 1.244 . S
C253 O231 1.259 . S
C253 O232 1.254 . S
O254 Zn224 2.066 . S
O254 C226 1.256 . S
O255 C226 1.244 . S
O255 Zn227 2.053 . S
Zn256 O257 2.055 . S
Zn256 O264 2.046 1_554 S
Zn256 N272 2.036 . S
Zn256 O284 2.053 1_554 S
Zn256 O286 2.066 . S
O257 Zn256 2.055 . S
O257 C260 1.259 . S
C258 O286 1.256 . S
C258 O287 1.244 . S
Zn259 O261 2.046 . S
Zn259 O263 2.055 1_554 S
Zn259 N265 2.036 . S
Zn259 O283 2.066 1_554 S
Zn259 O287 2.053 . S
C260 O257 1.259 . S
C260 O261 1.254 . S
O261 Zn259 2.046 . S
O261 C260 1.254 . S
C262 O283 1.256 . S
C262 O284 1.244 . S
O263 Zn259 2.055 1_556 S
O263 C285 1.259 . S
O264 Zn256 2.046 1_556 S
O264 C285 1.254 . S
N265 Zn259 2.036 . S
N265 C266 1.298 . S
N265 N268 1.398 . S
C266 N265 1.298 . S
C266 N269 1.367 . S
C266 C279 1.481 1_554 S
C267 N268 1.299 . S
C267 N269 1.379 . S
N268 N265 1.398 . S
N268 C267 1.299 . S
N269 C266 1.367 . S
N269 C267 1.379 . S
C270 N272 1.298 . S
C270 N274 1.367 . S
C270 C278 1.481 . S
C271 N273 1.299 1_554 S
C271 N274 1.379 . S
N272 Zn256 2.036 . S
N272 C270 1.298 . S
N272 N273 1.398 1_554 S
N273 C271 1.299 1_556 S
N273 N272 1.398 1_556 S
N274 C270 1.367 . S
N274 C271 1.379 . S
H275 C278 0.980 . S
H276 C278 0.981 . S
H277 C278 0.981 . S
C278 C270 1.481 . S
C278 H275 0.980 . S
C278 H276 0.981 . S
C278 H277 0.981 . S
C279 C266 1.481 1_556 S
C279 H280 0.980 . S
C279 H281 0.981 . S
C279 H282 0.981 . S
H280 C279 0.980 . S
H281 C279 0.981 . S
H282 C279 0.981 . S
O283 Zn259 2.066 1_556 S
O283 C262 1.256 . S
O284 Zn256 2.053 1_556 S
O284 C262 1.244 . S
C285 O263 1.259 . S
C285 O264 1.254 . S
O286 Zn256 2.066 . S
O286 C258 1.256 . S
O287 C258 1.244 . S
O287 Zn259 2.053 . S
Zn288 O289 2.055 . S
Zn288 O296 2.046 . S
Zn288 N304 2.036 . S
Zn288 O316 2.053 . S
Zn288 O318 2.066 . S
O289 Zn288 2.055 . S
O289 C292 1.259 . S
C290 O318 1.256 . S
C290 O319 1.244 . S
Zn291 O293 2.046 . S
Zn291 O295 2.055 . S
Zn291 N297 2.036 . S
Zn291 O315 2.066 . S
Zn291 O319 2.053 . S
C292 O289 1.259 . S
C292 O293 1.254 . S
O293 Zn291 2.046 . S
O293 C292 1.254 . S
C294 O315 1.256 . S
C294 O316 1.244 . S
O295 Zn291 2.055 . S
O295 C317 1.259 . S
O296 Zn288 2.046 . S
O296 C317 1.254 . S
N297 Zn291 2.036 . S
N297 C298 1.298 . S
N297 N300 1.398 . S
C298 N297 1.298 . S
C298 N301 1.367 1_455 S
C298 C311 1.481 . S
C299 N300 1.290 1_655 S
C299 N301 1.381 . S
N300 N297 1.398 . S
N300 C299 1.290 1_455 S
N301 C298 1.367 1_655 S
N301 C299 1.381 . S
C302 N304 1.298 . S
C302 N306 1.367 . S
C302 C310 1.481 . S
C303 N305 1.299 . S
C303 N306 1.379 . S
N304 Zn288 2.036 . S
N304 C302 1.298 . S
N304 N305 1.398 . S
N305 C303 1.299 . S
N305 N304 1.398 . S
N306 C302 1.367 . S
N306 C303 1.379 . S
H307 C310 0.980 . S
H308 C310 0.981 . S
H309 C310 0.981 . S
C310 C302 1.481 . S
C310 H307 0.980 . S
C310 H308 0.981 . S
C310 H309 0.981 . S
C311 C298 1.481 . S
C311 H312 0.981 . S
C311 H313 0.980 1_455 S
C311 H314 0.982 . S
H312 C311 0.981 . S
H313 C311 0.980 1_655 S
H314 C311 0.982 . S
O315 Zn291 2.066 . S
O315 C294 1.256 . S
O316 Zn288 2.053 . S
O316 C294 1.244 . S
C317 O295 1.259 . S
C317 O296 1.254 . S
O318 Zn288 2.066 . S
O318 C290 1.256 . S
O319 C290 1.244 . S
O319 Zn291 2.053 . S
Zn320 O321 2.055 . S
Zn320 O328 2.046 . S
Zn320 N336 2.036 . S
Zn320 O348 2.053 . S
Zn320 O350 2.066 . S
O321 Zn320 2.055 . S
O321 C324 1.259 . S
C322 O350 1.256 . S
C322 O351 1.244 . S
Zn323 O325 2.046 . S
Zn323 O327 2.055 . S
Zn323 N329 2.036 . S
Zn323 O347 2.066 . S
Zn323 O351 2.053 . S
C324 O321 1.259 . S
C324 O325 1.254 . S
O325 Zn323 2.046 . S
O325 C324 1.254 . S
C326 O347 1.256 . S
C326 O348 1.244 . S
O327 Zn323 2.055 . S
O327 C349 1.259 . S
O328 Zn320 2.046 . S
O328 C349 1.254 . S
N329 Zn323 2.036 . S
N329 C330 1.298 . S
N329 N332 1.398 . S
C330 N329 1.298 . S
C330 N333 1.367 . S
C330 C343 1.481 . S
C331 N332 1.299 . S
C331 N333 1.379 . S
N332 N329 1.398 . S
N332 C331 1.299 . S
N333 C330 1.367 . S
N333 C331 1.379 . S
C334 N336 1.298 . S
C334 N338 1.367 1_545 S
C334 C342 1.481 . S
C335 N337 1.298 1_565 S
C335 N338 1.382 . S
N336 Zn320 2.036 . S
N336 C334 1.298 . S
N336 N337 1.398 . S
N337 C335 1.298 1_545 S
N337 N336 1.398 . S
N338 C334 1.367 1_565 S
N338 C335 1.382 . S
H339 C342 0.980 . S
H340 C342 0.980 1_565 S
H341 C342 0.982 . S
C342 C334 1.481 . S
C342 H339 0.980 . S
C342 H340 0.980 1_545 S
C342 H341 0.982 . S
C343 C330 1.481 . S
C343 H344 0.980 . S
C343 H345 0.981 . S
C343 H346 0.981 . S
H344 C343 0.980 . S
H345 C343 0.981 . S
H346 C343 0.981 . S
O347 Zn323 2.066 . S
O347 C326 1.256 . S
O348 Zn320 2.053 . S
O348 C326 1.244 . S
C349 O327 1.259 . S
C349 O328 1.254 . S
O350 Zn320 2.066 . S
O350 C322 1.256 . S
O351 C322 1.244 . S
O351 Zn323 2.053 . S
Zn352 O353 2.055 . S
Zn352 O360 2.046 1_554 S
Zn352 N368 2.036 . S
Zn352 O380 2.053 1_554 S
Zn352 O382 2.066 . S
O353 Zn352 2.055 . S
O353 C356 1.259 . S
C354 O382 1.256 . S
C354 O383 1.244 . S
Zn355 O357 2.046 . S
Zn355 O359 2.055 1_554 S
Zn355 N361 2.036 . S
Zn355 O379 2.066 1_554 S
Zn355 O383 2.053 . S
C356 O353 1.259 . S
C356 O357 1.254 . S
O357 Zn355 2.046 . S
O357 C356 1.254 . S
C358 O379 1.256 . S
C358 O380 1.244 . S
O359 Zn355 2.055 1_556 S
O359 C381 1.259 . S
O360 Zn352 2.046 1_556 S
O360 C381 1.254 . S
N361 Zn355 2.036 . S
N361 C362 1.298 . S
N361 N364 1.398 . S
C362 N361 1.298 . S
C362 N365 1.367 . S
C362 C375 1.481 1_554 S
C363 N364 1.299 . S
C363 N365 1.379 . S
N364 N361 1.398 . S
N364 C363 1.299 . S
N365 C362 1.367 . S
N365 C363 1.379 . S
C366 N368 1.298 . S
C366 N370 1.367 . S
C366 C374 1.481 . S
C367 N369 1.299 1_554 S
C367 N370 1.379 . S
N368 Zn352 2.036 . S
N368 C366 1.298 . S
N368 N369 1.398 1_554 S
N369 C367 1.299 1_556 S
N369 N368 1.398 1_556 S
N370 C366 1.367 . S
N370 C367 1.379 . S
H371 C374 0.980 . S
H372 C374 0.981 . S
H373 C374 0.981 . S
C374 C366 1.481 . S
C374 H371 0.980 . S
C374 H372 0.981 . S
C374 H373 0.981 . S
C375 C362 1.481 1_556 S
C375 H376 0.980 . S
C375 H377 0.981 . S
C375 H378 0.981 . S
H376 C375 0.980 . S
H377 C375 0.981 . S
H378 C375 0.981 . S
O379 Zn355 2.066 1_556 S
O379 C358 1.256 . S
O380 Zn352 2.053 1_556 S
O380 C358 1.244 . S
C381 O359 1.259 . S
C381 O360 1.254 . S
O382 Zn352 2.066 . S
O382 C354 1.256 . S
O383 C354 1.244 . S
O383 Zn355 2.053 . S
C384 C385 1.387 . S
C384 H388 0.950 . S
C384 C393 1.390 . S
C385 C384 1.387 . S
C385 C387 1.387 . S
H386 C393 0.950 . S
C387 C385 1.387 . S
C387 C389 1.390 . S
C387 H391 0.950 . S
H388 C384 0.950 . S
C389 C387 1.390 . S
C389 C390 1.387 . S
C389 H392 0.950 . S
C390 C389 1.387 . S
C390 C393 1.387 . S
H391 C387 0.950 . S
H392 C389 0.950 . S
C393 C384 1.390 . S
C393 H386 0.950 . S
C393 C390 1.387 . S
C394 C395 1.387 . S
C394 H398 0.950 . S
C394 C403 1.390 . S
C395 C394 1.387 . S
C395 C397 1.387 . S
H396 C403 0.950 . S
C397 C395 1.387 . S
C397 C399 1.390 . S
C397 H401 0.950 . S
H398 C394 0.950 . S
C399 C397 1.390 . S
C399 C400 1.387 . S
C399 H402 0.950 . S
C400 C399 1.387 . S
C400 C403 1.387 . S
H401 C397 0.950 . S
H402 C399 0.950 . S
C403 C394 1.390 . S
C403 H396 0.950 . S
C403 C400 1.387 . S
C404 C405 1.387 . S
C404 H408 0.950 . S
C404 C413 1.390 . S
C405 C404 1.387 . S
C405 C407 1.387 . S
H406 C413 0.950 . S
C407 C405 1.387 . S
C407 C409 1.390 . S
C407 H411 0.950 . S
H408 C404 0.950 . S
C409 C407 1.390 . S
C409 C410 1.387 . S
C409 H412 0.950 . S
C410 C409 1.387 . S
C410 C413 1.387 . S
H411 C407 0.950 . S
H412 C409 0.950 . S
C413 C404 1.390 . S
C413 H406 0.950 . S
C413 C410 1.387 . S
C414 C415 1.387 . S
C414 H418 0.950 . S
C414 C423 1.390 . S
C415 C414 1.387 . S
C415 C417 1.387 . S
H416 C423 0.950 . S
C417 C415 1.387 . S
C417 C419 1.390 . S
C417 H421 0.950 . S
H418 C414 0.950 . S
C419 C417 1.390 . S
C419 C420 1.387 . S
C419 H422 0.950 . S
C420 C419 1.387 . S
C420 C423 1.387 . S
H421 C417 0.950 . S
H422 C419 0.950 . S
C423 C414 1.390 . S
C423 H416 0.950 . S
C423 C420 1.387 . S
C424 C425 1.387 . S
C424 H428 0.950 . S
C424 C433 1.390 . S
C425 C424 1.387 . S
C425 C427 1.387 . S
H426 C433 0.950 . S
C427 C425 1.387 . S
C427 C429 1.390 . S
C427 H431 0.950 . S
H428 C424 0.950 . S
C429 C427 1.390 . S
C429 C430 1.387 . S
C429 H432 0.950 . S
C430 C429 1.387 . S
C430 C433 1.387 . S
H431 C427 0.950 . S
H432 C429 0.950 . S
C433 C424 1.390 . S
C433 H426 0.950 . S
C433 C430 1.387 . S
C434 C435 1.387 . S
C434 H438 0.950 . S
C434 C443 1.390 . S
C435 C434 1.387 . S
C435 C437 1.387 . S
H436 C443 0.950 . S
C437 C435 1.387 . S
C437 C439 1.390 . S
C437 H441 0.950 . S
H438 C434 0.950 . S
C439 C437 1.390 . S
C439 C440 1.387 . S
C439 H442 0.950 . S
C440 C439 1.387 . S
C440 C443 1.387 . S
H441 C437 0.950 . S
H442 C439 0.950 . S
C443 C434 1.390 . S
C443 H436 0.950 . S
C443 C440 1.387 . S
C444 C445 1.387 . S
C444 H448 0.950 . S
C444 C453 1.390 1_556 S
C445 C444 1.387 . S
C445 C447 1.387 . S
H446 C453 0.950 . S
C447 C445 1.387 . S
C447 C449 1.390 1_556 S
C447 H451 0.950 . S
H448 C444 0.950 . S
C449 C447 1.390 1_554 S
C449 C450 1.387 . S
C449 H452 0.950 . S
C450 C449 1.387 . S
C450 C453 1.387 . S
H451 C447 0.950 . S
H452 C449 0.950 . S
C453 C444 1.390 1_554 S
C453 H446 0.950 . S
C453 C450 1.387 . S
C454 C455 1.387 . S
C454 H458 0.950 . S
C454 C463 1.390 . S
C455 C454 1.387 . S
C455 C457 1.387 . S
H456 C463 0.950 . S
C457 C455 1.387 . S
C457 C459 1.390 . S
C457 H461 0.950 . S
H458 C454 0.950 . S
C459 C457 1.390 . S
C459 C460 1.387 . S
C459 H462 0.950 . S
C460 C459 1.387 . S
C460 C463 1.387 . S
H461 C457 0.950 . S
H462 C459 0.950 . S
C463 C454 1.390 . S
C463 H456 0.950 . S
C463 C460 1.387 . S
C464 C465 1.387 . S
C464 H468 0.950 . S
C464 C473 1.390 . S
C465 C464 1.387 . S
C465 C467 1.387 . S
H466 C473 0.950 . S
C467 C465 1.387 . S
C467 C469 1.390 . S
C467 H471 0.950 . S
H468 C464 0.950 . S
C469 C467 1.390 . S
C469 C470 1.387 . S
C469 H472 0.950 . S
C470 C469 1.387 . S
C470 C473 1.387 . S
H471 C467 0.950 . S
H472 C469 0.950 . S
C473 C464 1.390 . S
C473 H466 0.950 . S
C473 C470 1.387 . S
C474 C475 1.387 . S
C474 H478 0.950 . S
C474 C483 1.390 1_556 S
C475 C474 1.387 . S
C475 C477 1.387 . S
H476 C483 0.950 . S
C477 C475 1.387 . S
C477 C479 1.390 1_556 S
C477 H481 0.950 . S
H478 C474 0.950 . S
C479 C477 1.390 1_554 S
C479 C480 1.387 . S
C479 H482 0.950 . S
C480 C479 1.387 . S
C480 C483 1.387 . S
H481 C477 0.950 . S
H482 C479 0.950 . S
C483 C474 1.390 1_554 S
C483 H476 0.950 . S
C483 C480 1.387 . S
C484 C485 1.387 . S
C484 H488 0.950 . S
C484 C493 1.390 . S
C485 C484 1.387 . S
C485 C487 1.387 . S
H486 C493 0.950 . S
C487 C485 1.387 . S
C487 C489 1.390 . S
C487 H491 0.950 . S
H488 C484 0.950 . S
C489 C487 1.390 . S
C489 C490 1.387 . S
C489 H492 0.950 . S
C490 C489 1.387 . S
C490 C493 1.387 . S
H491 C487 0.950 . S
H492 C489 0.950 . S
C493 C484 1.390 . S
C493 H486 0.950 . S
C493 C490 1.387 . S
C494 C495 1.387 . S
C494 H498 0.950 . S
C494 C503 1.390 . S
C495 C494 1.387 . S
C495 C497 1.387 . S
H496 C503 0.950 . S
C497 C495 1.387 . S
C497 C499 1.390 . S
C497 H501 0.950 . S
H498 C494 0.950 . S
C499 C497 1.390 . S
C499 C500 1.387 . S
C499 H502 0.950 . S
C500 C499 1.387 . S
C500 C503 1.387 . S
H501 C497 0.950 . S
H502 C499 0.950 . S
C503 C494 1.390 . S
C503 H496 0.950 . S
C503 C500 1.387 . S
C504 C505 1.387 . S
C504 H508 0.950 . S
C504 C513 1.390 1_566 S
C505 C504 1.387 . S
C505 C507 1.387 . S
H506 C513 0.950 . S
C507 C505 1.387 . S
C507 C509 1.390 1_566 S
C507 H511 0.950 . S
H508 C504 0.950 . S
C509 C507 1.390 1_544 S
C509 C510 1.387 . S
C509 H512 0.950 . S
C510 C509 1.387 . S
C510 C513 1.387 . S
H511 C507 0.950 . S
H512 C509 0.950 . S
C513 C504 1.390 1_544 S
C513 H506 0.950 . S
C513 C510 1.387 . S
C514 C515 1.387 . S
C514 H518 0.950 . S
C514 C523 1.390 . S
C515 C514 1.387 . S
C515 C517 1.387 . S
H516 C523 0.950 . S
C517 C515 1.387 . S
C517 C519 1.390 . S
C517 H521 0.950 . S
H518 C514 0.950 . S
C519 C517 1.390 . S
C519 C520 1.387 . S
C519 H522 0.950 . S
C520 C519 1.387 . S
C520 C523 1.387 . S
H521 C517 0.950 . S
H522 C519 0.950 . S
C523 C514 1.390 . S
C523 H516 0.950 . S
C523 C520 1.387 . S
C524 C525 1.387 . S
C524 H528 0.950 . S
C524 C533 1.390 1_455 S
C525 C524 1.387 . S
C525 C527 1.387 . S
H526 C533 0.950 . S
C527 C525 1.387 . S
C527 C529 1.390 1_455 S
C527 H531 0.950 . S
H528 C524 0.950 . S
C529 C527 1.390 1_655 S
C529 C530 1.387 . S
C529 H532 0.950 . S
C530 C529 1.387 . S
C530 C533 1.387 . S
H531 C527 0.950 . S
H532 C529 0.950 . S
C533 C524 1.390 1_655 S
C533 H526 0.950 . S
C533 C530 1.387 . S
C534 C535 1.387 . S
C534 H538 0.950 . S
C534 C543 1.390 1_564 S
C535 C534 1.387 . S
C535 C537 1.387 . S
H536 C543 0.950 . S
C537 C535 1.387 . S
C537 C539 1.390 1_564 S
C537 H541 0.950 . S
H538 C534 0.950 . S
C539 C537 1.390 1_546 S
C539 C540 1.387 . S
C539 H542 0.950 . S
C540 C539 1.387 . S
C540 C543 1.387 . S
H541 C537 0.950 . S
H542 C539 0.950 . S
C543 C534 1.390 1_546 S
C543 H536 0.950 . S
C543 C540 1.387 . S
C544 C545 1.387 . S
C544 H548 0.950 . S
C544 C553 1.390 . S
C545 C544 1.387 . S
C545 C547 1.387 . S
H546 C553 0.950 . S
C547 C545 1.387 . S
C547 C549 1.390 . S
C547 H551 0.950 . S
H548 C544 0.950 . S
C549 C547 1.390 . S
C549 C550 1.387 . S
C549 H552 0.950 . S
C550 C549 1.387 . S
C550 C553 1.387 . S
H551 C547 0.950 . S
H552 C549 0.950 . S
C553 C544 1.390 . S
C553 H546 0.950 . S
C553 C550 1.387 . S
C554 C555 1.387 . S
C554 H558 0.950 . S
C554 C563 1.390 1_455 S
C555 C554 1.387 . S
C555 C557 1.387 . S
H556 C563 0.950 . S
C557 C555 1.387 . S
C557 C559 1.390 1_455 S
C557 H561 0.950 . S
H558 C554 0.950 . S
C559 C557 1.390 1_655 S
C559 C560 1.387 . S
C559 H562 0.950 . S
C560 C559 1.387 . S
C560 C563 1.387 . S
H561 C557 0.950 . S
H562 C559 0.950 . S
C563 C554 1.390 1_655 S
C563 H556 0.950 . S
C563 C560 1.387 . S
C564 C565 1.387 . S
C564 H568 0.950 . S
C564 C573 1.390 1_565 S
C565 C564 1.387 . S
C565 C567 1.387 . S
H566 C573 0.950 . S
C567 C565 1.387 . S
C567 C569 1.390 1_565 S
C567 H571 0.950 . S
H568 C564 0.950 . S
C569 C567 1.390 1_545 S
C569 C570 1.387 . S
C569 H572 0.950 . S
C570 C569 1.387 . S
C570 C573 1.387 . S
H571 C567 0.950 . S
H572 C569 0.950 . S
C573 C564 1.390 1_545 S
C573 H566 0.950 . S
C573 C570 1.387 . S
C574 C575 1.387 . S
C574 H578 0.950 . S
C574 C583 1.390 . S
C575 C574 1.387 . S
C575 C577 1.387 . S
H576 C583 0.950 . S
C577 C575 1.387 . S
C577 C579 1.390 . S
C577 H581 0.950 . S
H578 C574 0.950 . S
C579 C577 1.390 . S
C579 C580 1.387 . S
C579 H582 0.950 . S
C580 C579 1.387 . S
C580 C583 1.387 . S
H581 C577 0.950 . S
H582 C579 0.950 . S
C583 C574 1.390 . S
C583 H576 0.950 . S
C583 C580 1.387 . S
C584 C585 1.387 1_554 S
C584 H588 0.950 . S
C584 C593 1.390 1_455 S
C585 C584 1.387 1_556 S
C585 C587 1.387 . S
H586 C593 0.950 . S
C587 C585 1.387 . S
C587 C589 1.390 1_455 S
C587 H591 0.950 . S
H588 C584 0.950 . S
C589 C587 1.390 1_655 S
C589 C590 1.387 . S
C589 H592 0.950 . S
C590 C589 1.387 . S
C590 C593 1.387 1_556 S
H591 C587 0.950 . S
H592 C589 0.950 . S
C593 C584 1.390 1_655 S
C593 H586 0.950 . S
C593 C590 1.387 1_554 S
C594 C595 1.387 . S
C594 H598 0.950 . S
C594 C603 1.390 1_655 S
C595 C594 1.387 . S
C595 C597 1.387 . S
H596 C603 0.950 . S
C597 C595 1.387 . S
C597 C599 1.390 1_655 S
C597 H601 0.950 . S
H598 C594 0.950 . S
C599 C597 1.390 1_455 S
C599 C600 1.387 . S
C599 H602 0.950 . S
C600 C599 1.387 . S
C600 C603 1.387 . S
H601 C597 0.950 . S
H602 C599 0.950 . S
C603 C594 1.390 1_455 S
C603 H596 0.950 . S
C603 C600 1.387 . S
C604 C605 1.387 . S
C604 H608 0.950 . S
C604 C613 1.390 1_545 S
C605 C604 1.387 . S
C605 C607 1.387 . S
H606 C613 0.950 . S
C607 C605 1.387 . S
C607 C609 1.390 1_545 S
C607 H611 0.950 . S
H608 C604 0.950 . S
C609 C607 1.390 1_565 S
C609 C610 1.387 . S
C609 H612 0.950 . S
C610 C609 1.387 . S
C610 C613 1.387 . S
H611 C607 0.950 . S
H612 C609 0.950 . S
C613 C604 1.390 1_565 S
C613 H606 0.950 . S
C613 C610 1.387 . S
C614 C615 1.387 . S
C614 H618 0.950 . S
C614 C623 1.390 . S
C615 C614 1.387 . S
C615 C617 1.387 1_554 S
H616 C623 0.950 . S
C617 C615 1.387 1_556 S
C617 C619 1.390 . S
C617 H621 0.950 . S
H618 C614 0.950 . S
C619 C617 1.390 . S
C619 C620 1.387 1_556 S
C619 H622 0.950 . S
C620 C619 1.387 1_554 S
C620 C623 1.387 . S
H621 C617 0.950 . S
H622 C619 0.950 . S
C623 C614 1.390 . S
C623 H616 0.950 . S
C623 C620 1.387 . S
C624 C625 1.387 . S
C624 H628 0.950 . S
C624 C633 1.390 1_565 S
C625 C624 1.387 . S
C625 C627 1.387 . S
H626 C633 0.950 . S
C627 C625 1.387 . S
C627 C629 1.390 1_565 S
C627 H631 0.950 . S
H628 C624 0.950 . S
C629 C627 1.390 1_545 S
C629 C630 1.387 . S
C629 H632 0.950 . S
C630 C629 1.387 . S
C630 C633 1.387 . S
H631 C627 0.950 . S
H632 C629 0.950 . S
C633 C624 1.390 1_545 S
C633 H626 0.950 . S
C633 C630 1.387 . S
C634 C635 1.387 . S
C634 H638 0.950 . S
C634 C643 1.390 . S
C635 C634 1.387 . S
C635 C637 1.387 . S
H636 C643 0.950 . S
C637 C635 1.387 . S
C637 C639 1.390 . S
C637 H641 0.950 . S
H638 C634 0.950 . S
C639 C637 1.390 . S
C639 C640 1.387 . S
C639 H642 0.950 . S
C640 C639 1.387 . S
C640 C643 1.387 . S
H641 C637 0.950 . S
H642 C639 0.950 . S
C643 C634 1.390 . S
C643 H636 0.950 . S
C643 C640 1.387 . S
C644 C645 1.387 . S
C644 H648 0.950 . S
C644 C653 1.390 1_655 S
C645 C644 1.387 . S
C645 C647 1.387 . S
H646 C653 0.950 . S
C647 C645 1.387 . S
C647 C649 1.390 1_655 S
C647 H651 0.950 . S
H648 C644 0.950 . S
C649 C647 1.390 1_455 S
C649 C650 1.387 . S
C649 H652 0.950 . S
C650 C649 1.387 . S
C650 C653 1.387 . S
H651 C647 0.950 . S
H652 C649 0.950 . S
C653 C644 1.390 1_455 S
C653 H646 0.950 . S
C653 C650 1.387 . S
C654 C655 1.387 . S
C654 H658 0.950 . S
C654 C663 1.390 1_545 S
C655 C654 1.387 . S
C655 C657 1.387 . S
H656 C663 0.950 . S
C657 C655 1.387 . S
C657 C659 1.390 1_545 S
C657 H661 0.950 . S
H658 C654 0.950 . S
C659 C657 1.390 1_565 S
C659 C660 1.387 . S
C659 H662 0.950 . S
C660 C659 1.387 . S
C660 C663 1.387 . S
H661 C657 0.950 . S
H662 C659 0.950 . S
C663 C654 1.390 1_565 S
C663 H656 0.950 . S
C663 C660 1.387 . S
C664 C665 1.387 . S
C664 H668 0.950 . S
C664 C673 1.390 . S
C665 C664 1.387 . S
C665 C667 1.387 . S
H666 C673 0.950 . S
C667 C665 1.387 . S
C667 C669 1.390 . S
C667 H671 0.950 . S
H668 C664 0.950 . S
C669 C667 1.390 . S
C669 C670 1.387 . S
C669 H672 0.950 . S
C670 C669 1.387 . S
C670 C673 1.387 . S
H671 C667 0.950 . S
H672 C669 0.950 . S
C673 C664 1.390 . S
C673 H666 0.950 . S
C673 C670 1.387 . S
C674 C675 1.387 . S
C674 H678 0.950 . S
C674 C683 1.390 1_455 S
C675 C674 1.387 . S
C675 C677 1.387 . S
H676 C683 0.950 . S
C677 C675 1.387 . S
C677 C679 1.390 1_455 S
C677 H681 0.950 . S
H678 C674 0.950 . S
C679 C677 1.390 1_655 S
C679 C680 1.387 . S
C679 H682 0.950 . S
C680 C679 1.387 . S
C680 C683 1.387 . S
H681 C677 0.950 . S
H682 C679 0.950 . S
C683 C674 1.390 1_655 S
C683 H676 0.950 . S
C683 C680 1.387 . S
C684 C685 1.387 . S
C684 H688 0.950 . S
C684 C693 1.390 . S
C685 C684 1.387 . S
C685 C687 1.387 . S
H686 C693 0.950 . S
C687 C685 1.387 . S
C687 C689 1.390 . S
C687 H691 0.950 . S
H688 C684 0.950 . S
C689 C687 1.390 . S
C689 C690 1.387 . S
C689 H692 0.950 . S
C690 C689 1.387 . S
C690 C693 1.387 . S
H691 C687 0.950 . S
H692 C689 0.950 . S
C693 C684 1.390 . S
C693 H686 0.950 . S
C693 C690 1.387 . S
C694 C695 1.387 . S
C694 H698 0.950 . S
C694 C703 1.390 . S
C695 C694 1.387 . S
C695 C697 1.387 . S
H696 C703 0.950 . S
C697 C695 1.387 . S
C697 C699 1.390 . S
C697 H701 0.950 . S
H698 C694 0.950 . S
C699 C697 1.390 . S
C699 C700 1.387 . S
C699 H702 0.950 . S
C700 C699 1.387 . S
C700 C703 1.387 . S
H701 C697 0.950 . S
H702 C699 0.950 . S
C703 C694 1.390 . S
C703 H696 0.950 . S
C703 C700 1.387 . S
C704 C705 1.387 . S
C704 H708 0.950 . S
C704 C713 1.390 . S
C705 C704 1.387 . S
C705 C707 1.387 . S
H706 C713 0.950 . S
C707 C705 1.387 . S
C707 C709 1.390 . S
C707 H711 0.950 . S
H708 C704 0.950 . S
C709 C707 1.390 . S
C709 C710 1.387 . S
C709 H712 0.950 . S
C710 C709 1.387 . S
C710 C713 1.387 . S
H711 C707 0.950 . S
H712 C709 0.950 . S
C713 C704 1.390 . S
C713 H706 0.950 . S
C713 C710 1.387 . S
C714 C715 1.387 . S
C714 H718 0.950 . S
C714 C723 1.390 . S
C715 C714 1.387 . S
C715 C717 1.387 . S
H716 C723 0.950 . S
C717 C715 1.387 . S
C717 C719 1.390 . S
C717 H721 0.950 . S
H718 C714 0.950 . S
C719 C717 1.390 . S
C719 C720 1.387 . S
C719 H722 0.950 . S
C720 C719 1.387 . S
C720 C723 1.387 . S
H721 C717 0.950 . S
H722 C719 0.950 . S
C723 C714 1.390 . S
C723 H716 0.950 . S
C723 C720 1.387 . S
C724 C725 1.387 . S
C724 H728 0.950 . S
C724 C733 1.390 . S
C725 C724 1.387 . S
C725 C727 1.387 . S
H726 C733 0.950 . S
C727 C725 1.387 . S
C727 C729 1.390 . S
C727 H731 0.950 . S
H728 C724 0.950 . S
C729 C727 1.390 . S
C729 C730 1.387 . S
C729 H732 0.950 . S
C730 C729 1.387 . S
C730 C733 1.387 . S
H731 C727 0.950 . S
H732 C729 0.950 . S
C733 C724 1.390 . S
C733 H726 0.950 . S
C733 C730 1.387 . S
C734 C735 1.387 . S
C734 H738 0.950 . S
C734 C743 1.390 . S
C735 C734 1.387 . S
C735 C737 1.387 . S
H736 C743 0.950 . S
C737 C735 1.387 . S
C737 C739 1.390 . S
C737 H741 0.950 . S
H738 C734 0.950 . S
C739 C737 1.390 . S
C739 C740 1.387 . S
C739 H742 0.950 . S
C740 C739 1.387 . S
C740 C743 1.387 . S
H741 C737 0.950 . S
H742 C739 0.950 . S
C743 C734 1.390 . S
C743 H736 0.950 . S
C743 C740 1.387 . S
C385 N13 1.339 . S
C390 N274 1.339 . S
C395 N50 1.340 . S
C400 N306 1.340 . S
C405 N82 1.340 . S
C410 N333 1.339 . S
C415 N370 1.340 . S
C420 N114 1.340 . S
C425 N146 1.338 . S
C430 N210 1.338 . S
C435 N237 1.339 . S
C440 N173 1.339 . S
C445 C326 2.442 . S
C450 C6 2.442 . S
C455 C354 2.442 . S
C460 C34 2.442 . S
C465 C66 2.442 . S
C470 C194 2.441 . S
C475 C230 2.441 . S
C480 C98 2.441 . S
C485 C258 2.442 . S
C490 C130 2.442 . S
C495 C166 2.442 . S
C500 C290 2.441 . S
C505 C253 2.017 . S
C510 C29 2.017 . S
C515 C260 2.018 . S
C520 C36 2.016 . S
C525 C292 2.019 . S
C530 C68 2.018 . S
C535 C100 2.019 . S
C540 C349 2.019 . S
C545 C132 2.017 . S
C550 C356 2.018 . S
C555 C189 2.018 . S
C560 C196 2.017 . S
C565 N18 1.126 . S
C570 N109 1.126 . S
C575 N45 1.125 . S
C580 N141 1.125 . S
C585 N77 1.126 . S
C590 N178 1.126 . S
C595 N301 1.126 . S
C600 N205 1.126 . S
C605 N242 1.128 . S
C610 N338 1.128 . S
C615 N365 1.128 . S
C620 N269 1.128 . S
C625 C228 1.742 . S
C630 C4 1.742 . S
C635 C285 1.740 . S
C640 C61 1.738 . S
C645 C93 1.739 . S
C650 C317 1.738 . S
C655 C324 1.738 . S
C660 C125 1.738 . S
C665 C381 1.740 . S
C670 C157 1.742 . S
C675 C164 1.740 . S
C680 C221 1.738 . S
C685 C2 1.950 . S
C690 C322 1.950 . S
C695 C38 1.948 . S
C700 C358 1.949 . S
C705 C70 1.950 . S
C710 C198 1.948 . S
C715 C102 1.948 . S
C720 C226 1.948 . S
C725 C134 1.950 . S
C730 C262 1.948 . S
C735 C294 1.950 . S
C740 C162 1.949 . S
