# Generated by pormake.
# Topology ukt, (4)-cn, num edge types: 1
# Building blocks:
#     Node 0, Type 0, BuildingBlock: NAHDIM_clean_sbu_0, # of connection points: 4
#     Node 1, Type 0, BuildingBlock: NAHDIM_clean_sbu_0, # of connection points: 4
#     Node 2, Type 0, BuildingBlock: NAHDIM_clean_sbu_0, # of connection points: 4
#     Node 3, Type 0, BuildingBlock: NAHDIM_clean_sbu_0, # of connection points: 4
#     Node 4, Type 0, BuildingBlock: NAHDIM_clean_sbu_0, # of connection points: 4
#     Node 5, Type 0, BuildingBlock: NAHDIM_clean_sbu_0, # of connection points: 4
#     Node 6, Type 0, BuildingBlock: NAHDIM_clean_sbu_0, # of connection points: 4
#     Node 7, Type 0, BuildingBlock: NAHDIM_clean_sbu_0, # of connection points: 4
#     Node 8, Type 0, BuildingBlock: NAHDIM_clean_sbu_0, # of connection points: 4
#     Node 9, Type 0, BuildingBlock: NAHDIM_clean_sbu_0, # of connection points: 4
#     Node 10, Type 0, BuildingBlock: NAHDIM_clean_sbu_0, # of connection points: 4
#     Node 11, Type 0, BuildingBlock: NAHDIM_clean_sbu_0, # of connection points: 4
#     Node 12, Type 0, BuildingBlock: NAHDIM_clean_sbu_0, # of connection points: 4
#     Node 13, Type 0, BuildingBlock: NAHDIM_clean_sbu_0, # of connection points: 4
#     Node 14, Type 0, BuildingBlock: NAHDIM_clean_sbu_0, # of connection points: 4
#     Node 15, Type 0, BuildingBlock: NAHDIM_clean_sbu_0, # of connection points: 4
#     Edge 16, Type (0, 0), BuildingBlock: AJUNOK_clean_linker_0, # of connection points: 2
#     Edge 17, Type (0, 0), BuildingBlock: AJUNOK_clean_linker_0, # of connection points: 2
#     Edge 18, Type (0, 0), BuildingBlock: AJUNOK_clean_linker_0, # of connection points: 2
#     Edge 19, Type (0, 0), BuildingBlock: AJUNOK_clean_linker_0, # of connection points: 2
#     Edge 20, Type (0, 0), BuildingBlock: AJUNOK_clean_linker_0, # of connection points: 2
#     Edge 21, Type (0, 0), BuildingBlock: AJUNOK_clean_linker_0, # of connection points: 2
#     Edge 22, Type (0, 0), BuildingBlock: AJUNOK_clean_linker_0, # of connection points: 2
#     Edge 23, Type (0, 0), BuildingBlock: AJUNOK_clean_linker_0, # of connection points: 2
#     Edge 24, Type (0, 0), BuildingBlock: AJUNOK_clean_linker_0, # of connection points: 2
#     Edge 25, Type (0, 0), BuildingBlock: AJUNOK_clean_linker_0, # of connection points: 2
#     Edge 26, Type (0, 0), BuildingBlock: AJUNOK_clean_linker_0, # of connection points: 2
#     Edge 27, Type (0, 0), BuildingBlock: AJUNOK_clean_linker_0, # of connection points: 2
#     Edge 28, Type (0, 0), BuildingBlock: AJUNOK_clean_linker_0, # of connection points: 2
#     Edge 29, Type (0, 0), BuildingBlock: AJUNOK_clean_linker_0, # of connection points: 2
#     Edge 30, Type (0, 0), BuildingBlock: AJUNOK_clean_linker_0, # of connection points: 2
#     Edge 31, Type (0, 0), BuildingBlock: AJUNOK_clean_linker_0, # of connection points: 2
#     Edge 32, Type (0, 0), BuildingBlock: AJUNOK_clean_linker_0, # of connection points: 2
#     Edge 33, Type (0, 0), BuildingBlock: AJUNOK_clean_linker_0, # of connection points: 2
#     Edge 34, Type (0, 0), BuildingBlock: AJUNOK_clean_linker_0, # of connection points: 2
#     Edge 35, Type (0, 0), BuildingBlock: AJUNOK_clean_linker_0, # of connection points: 2
#     Edge 36, Type (0, 0), BuildingBlock: AJUNOK_clean_linker_0, # of connection points: 2
#     Edge 37, Type (0, 0), BuildingBlock: AJUNOK_clean_linker_0, # of connection points: 2
#     Edge 38, Type (0, 0), BuildingBlock: AJUNOK_clean_linker_0, # of connection points: 2
#     Edge 39, Type (0, 0), BuildingBlock: AJUNOK_clean_linker_0, # of connection points: 2
#     Edge 40, Type (0, 0), BuildingBlock: AJUNOK_clean_linker_0, # of connection points: 2
#     Edge 41, Type (0, 0), BuildingBlock: AJUNOK_clean_linker_0, # of connection points: 2
#     Edge 42, Type (0, 0), BuildingBlock: AJUNOK_clean_linker_0, # of connection points: 2
#     Edge 43, Type (0, 0), BuildingBlock: AJUNOK_clean_linker_0, # of connection points: 2
#     Edge 44, Type (0, 0), BuildingBlock: AJUNOK_clean_linker_0, # of connection points: 2
#     Edge 45, Type (0, 0), BuildingBlock: AJUNOK_clean_linker_0, # of connection points: 2
#     Edge 46, Type (0, 0), BuildingBlock: AJUNOK_clean_linker_0, # of connection points: 2
#     Edge 47, Type (0, 0), BuildingBlock: AJUNOK_clean_linker_0, # of connection points: 2
# Relax obj value: 0.316
# Max RMSD: 0.219
# Mean RMSD: 0.219
data_MOF--net-ukt--node1-NAHDIM_clean_sbu_0--edge1-AJUNOK_clean_linker_0
_symmetry_space_group_name_H-M    P1
_symmetry_Int_Tables_number       1
_symmetry_cell_setting            triclinic
loop_
_symmetry_equiv_pos_as_xyz
'x, y, z'
_cell_length_a     31.81722
_cell_length_b     31.79315
_cell_length_c     25.837676
_cell_angle_alpha  89.959912
_cell_angle_beta   90.101088
_cell_angle_gamma 89.951087
loop_
_atom_site_label
_atom_site_type_symbol
_atom_site_fract_x
_atom_site_fract_y
_atom_site_fract_z
_atom_type_partial_charge
C0 C 0.55937 0.06409 0.02556 0.0
O1 O 0.60052 0.06378 0.02138 0.0
O2 O 0.55969 0.16685 0.14658 0.0
Zn3 Zn 0.58299 0.12939 0.09032 0.0
O4 O 0.63138 0.09541 0.11653 0.0
C5 C 0.58932 0.17677 0.99365 0.0
O6 O 0.55219 0.16095 0.98297 0.0
O7 O 0.54215 0.09049 0.05586 0.0
C8 C 0.66344 0.11419 0.13436 0.0
O9 O 0.66053 0.15464 0.14427 0.0
C10 C 0.54499 0.20281 0.13451 0.0
O11 O 0.53997 0.21207 0.08538 0.0
O12 O 0.60745 0.16695 0.03581 0.0
C13 C 0.43951 0.54584 0.06889 0.0
O14 O 0.4445 0.58502 0.08356 0.0
O15 O 0.31221 0.5587 0.12579 0.0
Zn16 Zn 0.35316 0.5714 0.06741 0.0
O17 O 0.37439 0.63085 0.07118 0.0
C18 C 0.30392 0.53747 0.98103 0.0
O19 O 0.30743 0.50106 0.00471 0.0
O20 O 0.40248 0.53154 0.06303 0.0
C21 C 0.35174 0.66311 0.07897 0.0
O22 O 0.31186 0.65803 0.09046 0.0
C23 C 0.27326 0.56592 0.11824 0.0
O24 O 0.26131 0.58102 0.07324 0.0
O25 O 0.32222 0.5694 2e-05 0.0
C26 C 0.94011 0.43101 0.0825 0.0
O27 O 0.90118 0.42291 0.06874 0.0
O28 O 0.94294 0.32412 0.19661 0.0
Zn29 Zn 0.91885 0.36303 0.14317 0.0
O30 O 0.86522 0.38927 0.16687 0.0
C31 C 0.92423 0.31513 0.04596 0.0
O32 O 0.96456 0.32394 0.04603 0.0
O33 O 0.95704 0.40827 0.11732 0.0
C34 C 0.83413 0.36446 0.1707 0.0
O35 O 0.84162 0.32382 0.17161 0.0
C36 C 0.94346 0.33232 0.24464 0.0
O37 O 0.93143 0.36974 0.26031 0.0
O38 O 0.90124 0.32794 0.08279 0.0
C39 C 0.07127 0.9484 0.01633 0.0
O40 O 0.07681 0.91196 0.99337 0.0
O41 O 0.18304 0.93352 0.12315 0.0
Zn42 Zn 0.14309 0.91753 0.0647 0.0
O43 O 0.115 0.86243 0.07894 0.0
C44 C 0.19357 0.93551 0.97238 0.0
O45 O 0.18869 0.97527 0.98476 0.0
O46 O 0.09768 0.9598 0.05058 0.0
C47 C 0.13709 0.82919 0.07798 0.0
O48 O 0.17817 0.83283 0.07552 0.0
C49 C 0.22222 0.92649 0.1177 0.0
O50 O 0.23551 0.90982 0.07423 0.0
O51 O 0.1758 0.90753 0.99967 0.0
C52 C 0.54157 0.42492 0.45525 0.0
O53 O 0.57829 0.41744 0.47671 0.0
O54 O 0.55312 0.31825 0.34213 0.0
Zn55 Zn 0.57016 0.35531 0.40154 0.0
O56 O 0.62567 0.38304 0.38913 0.0
C57 C 0.55257 0.30463 0.49467 0.0
O58 O 0.51279 0.31415 0.48759 0.0
O59 O 0.52888 0.40052 0.41951 0.0
C60 C 0.65833 0.36015 0.39042 0.0
O61 O 0.65363 0.31908 0.39005 0.0
C62 C 0.54929 0.33048 0.29556 0.0
O63 O 0.55499 0.37044 0.28474 0.0
O64 O 0.57994 0.31867 0.46344 0.0
C65 C 0.05487 0.53742 0.44887 0.0
O66 O 0.06156 0.57516 0.46791 0.0
O67 O 0.15548 0.55077 0.32712 0.0
Zn68 Zn 0.1189 0.56808 0.38694 0.0
O69 O 0.08819 0.62178 0.37285 0.0
C70 C 0.17409 0.56018 0.47897 0.0
O71 O 0.16778 0.51937 0.47735 0.0
O72 O 0.07729 0.5251 0.41111 0.0
C73 C 0.1107 0.65437 0.367 0.0
O74 O 0.15124 0.64936 0.35946 0.0
C75 C 0.14678 0.56074 0.28075 0.0
O76 O 0.11066 0.5792 0.27097 0.0
O77 O 0.15704 0.5837 0.44528 0.0
C78 C 0.95429 0.05904 0.50406 0.0
O79 O 0.91558 0.05904 0.52174 0.0
O80 O 0.93704 0.16612 0.39188 0.0
Zn81 Zn 0.92058 0.1284 0.45135 0.0
O82 O 0.86777 0.09694 0.43527 0.0
C83 C 0.92452 0.17688 0.55021 0.0
O84 O 0.96405 0.16568 0.55547 0.0
O85 O 0.96517 0.08742 0.47215 0.0
C86 C 0.83517 0.11944 0.42911 0.0
O87 O 0.83993 0.1603 0.42405 0.0
C88 C 0.95397 0.2016 0.40101 0.0
O89 O 0.96343 0.21151 0.44896 0.0
O90 O 0.90377 0.16473 0.51102 0.0
C91 C 0.43357 0.94303 0.45606 0.0
O92 O 0.42597 0.90443 0.47162 0.0
O93 O 0.33319 0.93903 0.33207 0.0
Zn94 Zn 0.36936 0.91759 0.39043 0.0
O95 O 0.39854 0.8644 0.37034 0.0
C96 C 0.31893 0.91865 0.487 0.0
O97 O 0.32916 0.95838 0.49287 0.0
O98 O 0.41197 0.95787 0.41878 0.0
C99 C 0.3745 0.83349 0.3608 0.0
O100 O 0.33419 0.84095 0.35449 0.0
C101 C 0.34419 0.93363 0.28534 0.0
O102 O 0.38173 0.91818 0.2759 0.0
O103 O 0.33157 0.8986 0.44756 0.0
C104 C 0.46257 0.94243 0.90795 0.0
O105 O 0.42783 0.95253 0.88346 0.0
O106 O 0.44477 0.82917 0.82533 0.0
Zn107 Zn 0.43047 0.85994 0.89083 0.0
O108 O 0.37388 0.88736 0.88526 0.0
C109 C 0.40121 0.81993 0.98496 0.0
O110 O 0.37878 0.8544 0.98986 0.0
O111 O 0.47248 0.90384 0.91248 0.0
C112 C 0.34018 0.86802 0.8743 0.0
O113 O 0.34205 0.82785 0.86256 0.0
C114 C 0.43071 0.84008 0.78132 0.0
O115 O 0.40953 0.87544 0.77736 0.0
O116 O 0.42608 0.81628 0.94675 0.0
C117 C 0.57959 0.44288 0.99967 0.0
O118 O 0.58029 0.40271 0.01162 0.0
O119 O 0.69757 0.4393 0.90279 0.0
Zn120 Zn 0.65523 0.41774 0.95396 0.0
O121 O 0.63079 0.36358 0.92898 0.0
C122 C 0.69434 0.4267 0.05603 0.0
O123 O 0.68329 0.46647 0.05344 0.0
O124 O 0.60921 0.45797 0.97239 0.0
C125 C 0.65613 0.33309 0.92305 0.0
O126 O 0.69667 0.34039 0.92677 0.0
C127 C 0.6903 0.43942 0.85448 0.0
O128 O 0.65258 0.42909 0.83807 0.0
O129 O 0.68588 0.40229 0.01862 0.0
C130 C 0.04003 0.55967 0.98021 0.0
O131 O 0.07835 0.56651 0.99731 0.0
O132 O 0.05529 0.64805 0.84595 0.0
Zn133 Zn 0.07233 0.61569 0.90934 0.0
O134 O 0.12279 0.57966 0.89658 0.0
C135 C 0.06487 0.67918 0.98966 0.0
O136 O 0.02433 0.67237 0.9849 0.0
O137 O 0.0278 0.57899 0.9398 0.0
C138 C 0.15654 0.59537 0.87912 0.0
O139 O 0.15621 0.63466 0.86328 0.0
C140 C 0.06349 0.63607 0.80022 0.0
O141 O 0.07981 0.59852 0.79322 0.0
O142 O 0.0903 0.65815 0.96207 0.0
C143 C 0.92611 0.05488 0.97374 0.0
O144 O 0.92204 0.08969 0.0007 0.0
O145 O 0.8069 0.07589 0.88156 0.0
Zn146 Zn 0.85072 0.0876 0.93722 0.0
O147 O 0.87555 0.14507 0.92854 0.0
C148 C 0.81017 0.05856 0.03304 0.0
O149 O 0.8176 0.02023 0.01646 0.0
O150 O 0.8978 0.04569 0.94084 0.0
C151 C 0.85158 0.17649 0.93561 0.0
O152 O 0.81102 0.16983 0.94014 0.0
C153 C 0.76807 0.08138 0.89172 0.0
O154 O 0.7574 0.09335 0.93848 0.0
O155 O 0.82263 0.08967 0.00638 0.0
C156 C 0.438 0.56788 0.51518 0.0
O157 O 0.40164 0.57302 0.49179 0.0
O158 O 0.42329 0.68099 0.61851 0.0
Zn159 Zn 0.40683 0.64 0.56193 0.0
O160 O 0.35114 0.6132 0.57641 0.0
C161 C 0.42702 0.68473 0.46582 0.0
O162 O 0.46655 0.67711 0.47724 0.0
O163 O 0.44884 0.59422 0.54969 0.0
C164 C 0.31858 0.63619 0.5734 0.0
O165 O 0.32352 0.67703 0.56885 0.0
C166 C 0.41649 0.72016 0.61224 0.0
O167 O 0.39941 0.73309 0.56874 0.0
O168 O 0.39838 0.67137 0.49568 0.0
C169 C 0.91846 0.43816 0.53634 0.0
O170 O 0.90967 0.40007 0.51989 0.0
O171 O 0.81395 0.43856 0.65392 0.0
Zn172 Zn 0.85038 0.41546 0.59707 0.0
O173 O 0.87665 0.36089 0.6183 0.0
C174 C 0.79914 0.42666 0.50359 0.0
O175 O 0.80983 0.46649 0.50647 0.0
O176 O 0.89597 0.45385 0.57215 0.0
C177 C 0.85261 0.32959 0.62552 0.0
O178 O 0.81181 0.33593 0.62592 0.0
C179 C 0.8237 0.43586 0.7015 0.0
O180 O 0.86069 0.42057 0.71417 0.0
O181 O 0.81289 0.40101 0.5373 0.0
C182 C 0.06382 0.91761 0.55093 0.0
O183 O 0.10099 0.91436 0.52925 0.0
O184 O 0.07401 0.79739 0.64101 0.0
Zn185 Zn 0.09029 0.83865 0.5849 0.0
O186 O 0.14813 0.86173 0.59678 0.0
C187 C 0.06231 0.79542 0.49057 0.0
O188 O 0.024 0.8026 0.50724 0.0
O189 O 0.05052 0.88729 0.57851 0.0
C190 C 0.17947 0.83829 0.58711 0.0
O191 O 0.17272 0.79824 0.57786 0.0
C192 C 0.07902 0.75811 0.63366 0.0
O193 O 0.09452 0.74521 0.58936 0.0
O194 O 0.09332 0.80887 0.5167 0.0
C195 C 0.5644 0.04631 0.54959 0.0
O196 O 0.573 0.08266 0.52782 0.0
O197 O 0.65702 0.06603 0.67931 0.0
Zn198 Zn 0.62566 0.07963 0.6136 0.0
O199 O 0.59488 0.13447 0.61804 0.0
C200 C 0.68501 0.06061 0.52938 0.0
O201 O 0.67383 0.02111 0.5349 0.0
O202 O 0.58446 0.03587 0.59025 0.0
C203 C 0.61633 0.16809 0.61834 0.0
O204 O 0.65725 0.16529 0.62448 0.0
C205 C 0.64589 0.07952 0.72348 0.0
O206 O 0.61059 0.10072 0.72752 0.0
O207 O 0.66852 0.0885 0.55805 0.0
C208 C 0.65013 0.21999 0.96541 0.0
C209 C 0.60677 0.21176 0.96293 0.0
C210 C 0.66661 0.25806 0.94751 0.0
C211 C 0.64016 0.28956 0.92729 0.0
H212 H 0.67122 0.19781 0.98398 0.0
H213 H 0.6998 0.26394 0.95334 0.0
S214 S 0.52546 0.2804 0.90385 0.0
N215 N 0.53855 0.23557 0.93187 0.0
N216 N 0.56949 0.30755 0.89879 0.0
C217 C 0.59736 0.2801 0.9201 0.0
C218 C 0.58065 0.24103 0.93778 0.0
C219 C 0.23439 0.59761 0.88931 0.0
C220 C 0.19698 0.57414 0.89059 0.0
C221 C 0.27061 0.58329 0.9145 0.0
C222 C 0.27086 0.54488 0.94166 0.0
H223 H 0.23493 0.62883 0.8725 0.0
H224 H 0.29763 0.60399 0.91593 0.0
S225 S 0.18438 0.4667 0.94487 0.0
N226 N 0.16487 0.50688 0.9122 0.0
N227 N 0.23306 0.48002 0.95975 0.0
C228 C 0.23545 0.51867 0.93746 0.0
C229 C 0.19842 0.53333 0.91186 0.0
C230 C 0.91391 0.22076 0.95821 0.0
C231 C 0.87 0.21716 0.95224 0.0
C232 C 0.93172 0.25441 0.98548 0.0
C233 C 0.90624 0.28552 0.00791 0.0
H234 H 0.93464 0.19612 0.94458 0.0
H235 H 0.96537 0.25443 0.99192 0.0
S236 S 0.79062 0.29602 0.99364 0.0
N237 N 0.80221 0.25169 0.96359 0.0
N238 N 0.83578 0.31461 0.01522 0.0
C239 C 0.86278 0.28456 0.99796 0.0
C240 C 0.84463 0.25049 0.96991 0.0
C241 C 0.26413 0.86279 0.89654 0.0
C242 C 0.29944 0.88808 0.88681 0.0
C243 C 0.22841 0.87939 0.92058 0.0
C244 C 0.22653 0.92196 0.93555 0.0
H245 H 0.26502 0.8293 0.88892 0.0
H246 H 0.20308 0.85804 0.93023 0.0
S247 S 0.30738 0.00322 0.90898 0.0
N248 N 0.32784 0.95917 0.88648 0.0
N249 N 0.2607 0.99036 0.93183 0.0
C250 C 0.25988 0.9485 0.92122 0.0
C251 C 0.29638 0.93153 0.89685 0.0
C252 C 0.60878 0.27209 0.54865 0.0
C253 C 0.56598 0.27436 0.53505 0.0
C254 C 0.62423 0.23942 0.57955 0.0
C255 C 0.59757 0.20737 0.59765 0.0
H256 H 0.631 0.29476 0.53347 0.0
H257 H 0.65779 0.238 0.58643 0.0
S258 S 0.48178 0.20255 0.58015 0.0
N259 N 0.49624 0.24478 0.54753 0.0
N260 N 0.52531 0.18303 0.60547 0.0
C261 C 0.55412 0.21118 0.58799 0.0
C262 C 0.53831 0.24476 0.55671 0.0
C263 C 0.2748 0.57259 0.55501 0.0
C264 C 0.27741 0.61655 0.56145 0.0
C265 C 0.23964 0.55394 0.53173 0.0
C266 C 0.20595 0.5786 0.51392 0.0
H267 H 0.30114 0.55255 0.565 0.0
H268 H 0.24026 0.52038 0.52454 0.0
S269 S 0.19298 0.69375 0.53176 0.0
N270 N 0.23994 0.68328 0.55584 0.0
N271 N 0.1741 0.6482 0.51187 0.0
C272 C 0.20629 0.62198 0.5247 0.0
C273 C 0.24195 0.64097 0.54861 0.0
C274 C 0.91391 0.28065 0.61917 0.0
C275 C 0.86999 0.28655 0.61985 0.0
C276 C 0.93171 0.24314 0.60099 0.0
C277 C 0.90617 0.21044 0.58247 0.0
H278 H 0.93483 0.30615 0.62965 0.0
H279 H 0.96559 0.24117 0.59764 0.0
S280 S 0.78967 0.20645 0.58544 0.0
N281 N 0.80149 0.2536 0.60791 0.0
N282 N 0.8351 0.18346 0.57317 0.0
C283 C 0.86235 0.21423 0.58769 0.0
C284 C 0.84419 0.2522 0.60663 0.0
C285 C 0.22376 0.90206 0.57176 0.0
C286 C 0.22016 0.85785 0.57286 0.0
C287 C 0.25757 0.9218 0.54698 0.0
C288 C 0.28882 0.89802 0.52223 0.0
H289 H 0.19904 0.92175 0.58734 0.0
H290 H 0.25767 0.95581 0.5443 0.0
S291 S 0.29924 0.78172 0.52364 0.0
N292 N 0.25475 0.79112 0.55436 0.0
N293 N 0.31795 0.8283 0.50742 0.0
C294 C 0.28779 0.85397 0.52724 0.0
C295 C 0.25357 0.83385 0.55277 0.0
C296 C 0.35242 0.77813 0.04039 0.0
C297 C 0.39231 0.78286 0.01774 0.0
C298 C 0.3404 0.74001 0.06327 0.0
C299 C 0.36794 0.70532 0.06465 0.0
H300 H 0.32935 0.80313 0.03776 0.0
H301 H 0.30854 0.73717 0.07753 0.0
S302 S 0.47888 0.70465 0.01966 0.0
N303 N 0.4613 0.75192 0.00436 0.0
N304 N 0.43917 0.68051 0.04796 0.0
C305 C 0.40923 0.71101 0.04618 0.0
C306 C 0.42127 0.7497 0.02249 0.0
C307 C 0.75183 0.43923 0.11985 0.0
C308 C 0.72282 0.41154 0.09713 0.0
C309 C 0.78591 0.42385 0.14859 0.0
C310 C 0.79197 0.3803 0.15577 0.0
H311 H 0.75021 0.47267 0.11202 0.0
H312 H 0.80929 0.44613 0.16193 0.0
S313 S 0.71837 0.29584 0.11491 0.0
N314 N 0.69768 0.33951 0.09145 0.0
N315 N 0.76135 0.31047 0.14593 0.0
C316 C 0.76021 0.3528 0.13853 0.0
C317 C 0.72576 0.36847 0.10889 0.0
C318 C 0.12476 0.71768 0.0301 0.0
C319 C 0.08119 0.7143 0.02159 0.0
C320 C 0.14228 0.75377 0.05225 0.0
C321 C 0.11697 0.78815 0.06651 0.0
H322 H 0.14588 0.69297 0.01755 0.0
H323 H 0.17619 0.75551 0.05543 0.0
S324 S 0.00037 0.79244 0.0603 0.0
N325 N 0.01257 0.74631 0.03518 0.0
N326 N 0.04549 0.8143 0.07677 0.0
C327 C 0.07302 0.78382 0.06222 0.0
C328 C 0.05513 0.74687 0.03976 0.0
C329 C 0.7406 0.12119 0.12132 0.0
C330 C 0.70526 0.09492 0.12591 0.0
C331 C 0.77674 0.10743 0.09567 0.0
C332 C 0.779 0.06682 0.07419 0.0
H333 H 0.73909 0.15386 0.13308 0.0
H334 H 0.80171 0.12995 0.08898 0.0
S335 S 0.69964 0.98228 0.08881 0.0
N336 N 0.67819 0.0237 0.11684 0.0
N337 N 0.74631 -0.00218 0.06857 0.0
C338 C 0.74636 0.03842 0.08502 0.0
C339 C 0.70937 0.0525 0.11097 0.0
C340 C 0.44487 0.74743 0.41208 0.0
C341 C 0.41569 0.71636 0.42625 0.0
C342 C 0.43191 0.78388 0.38607 0.0
C343 C 0.38935 0.79042 0.37316 0.0
H344 H 0.4773 0.74527 0.42466 0.0
H345 H 0.45495 0.80836 0.37944 0.0
S346 S 0.30258 0.71362 0.39104 0.0
N347 N 0.34397 0.69085 0.4176 0.0
N348 N 0.31953 0.75911 0.36845 0.0
C349 C 0.36086 0.75726 0.38175 0.0
C350 C 0.37405 0.7203 0.40849 0.0
C351 C 0.7639 0.36828 0.45619 0.0
C352 C 0.76785 0.41173 0.4653 0.0
C353 C 0.73019 0.3521 0.4277 0.0
C354 C 0.69876 0.37869 0.40765 0.0
H355 H 0.78602 0.34629 0.47315 0.0
H356 H 0.72749 0.31825 0.42438 0.0
S357 S 0.69825 0.49542 0.41317 0.0
N358 N 0.7405 0.48154 0.44623 0.0
N359 N 0.67684 0.45111 0.39285 0.0
C360 C 0.70427 0.42248 0.41261 0.0
C361 C 0.73888 0.43901 0.44142 0.0
C362 C 0.12349 0.72746 0.39778 0.0
C363 C 0.09463 0.69551 0.38538 0.0
C364 C 0.11173 0.76157 0.42865 0.0
C365 C 0.07058 0.76532 0.44803 0.0
H366 H 0.15625 0.7247 0.38694 0.0
H367 H 0.13586 0.78381 0.43992 0.0
S368 S 0.98086 0.69509 0.41717 0.0
N369 N 0.0214 0.67343 0.38757 0.0
N370 N -0.00074 0.73777 0.44562 0.0
C371 C 0.04028 0.73615 0.4312 0.0
C372 C 0.05233 0.70118 0.39984 0.0
C373 C 0.72497 0.11583 0.48212 0.0
C374 C 0.71959 0.07302 0.49426 0.0
C375 C 0.76103 0.13009 0.4568 0.0
C376 C 0.79346 0.10217 0.44307 0.0
H377 H 0.70197 0.13895 0.49428 0.0
H378 H 0.76451 0.16366 0.45108 0.0
S379 S 0.79168 0.98605 0.45828 0.0
N380 N 0.74721 0.00207 0.4846 0.0
N381 N 0.81537 0.02895 0.43724 0.0
C382 C 0.78695 0.05883 0.45104 0.0
C383 C 0.74992 0.04422 0.47658 0.0
C384 C 0.5293 0.96732 0.9486 0.0
C385 C 0.48712 0.975 0.93539 0.0
C386 C 0.55247 -0.00341 0.97732 0.0
C387 C 0.53406 0.03422 0.99484 0.0
H388 H 0.54457 0.93842 0.93676 0.0
H389 H 0.58488 0.98926 0.98664 0.0
S390 S 0.42476 0.06968 0.97009 0.0
N391 N 0.428 0.02349 0.94124 0.0
N392 N 0.47147 0.07813 0.99595 0.0
C393 C 0.492 0.04247 0.98168 0.0
C394 C 0.46857 0.01298 0.95169 0.0
C395 C 0.47276 0.47619 0.05015 0.0
C396 C 0.47635 0.52017 0.0538 0.0
C397 C 0.5065 0.45146 0.03314 0.0
C398 C 0.54485 0.46984 0.01825 0.0
H399 H 0.44363 0.46068 0.06037 0.0
H400 H 0.50216 0.41772 0.03083 0.0
S401 S 0.57078 0.58359 0.02139 0.0
N402 N 0.52178 0.58106 0.04198 0.0
N403 N 0.58486 0.53458 0.00944 0.0
C404 C 0.54902 0.51374 0.02206 0.0
C405 C 0.51488 0.53889 0.04006 0.0
C406 C 0.02966 0.50421 0.04734 0.0
C407 C 0.01297 0.5284 0.00651 0.0
C408 C 0.00576 0.47317 0.07189 0.0
C409 C 0.96408 0.46505 0.05679 0.0
H410 H 0.06174 0.5088 0.06023 0.0
H411 H 0.02033 0.45521 0.10273 0.0
S412 S 0.90479 0.52078 0.95324 0.0
N413 N 0.95165 0.54297 0.95298 0.0
N414 N 0.9066 0.48468 0.99911 0.0
C415 C 0.94665 0.4895 0.01655 0.0
C416 C 0.9711 0.52113 0.99144 0.0
C417 C 0.03038 0.01514 0.02598 0.0
C418 C 0.03435 0.97504 0.00359 0.0
C419 C -0.00454 0.04063 0.0157 0.0
C420 C 0.96297 0.02717 0.98256 0.0
H421 H 0.05438 0.02704 0.05189 0.0
H422 H 0.99403 0.07119 0.03413 0.0
S423 S 0.95788 0.92465 0.91409 0.0
N424 N 0.00256 0.92293 0.94657 0.0
N425 N 0.93699 0.97093 0.9273 0.0
C426 C 0.96656 0.98722 0.95958 0.0
C427 C 0.0022 0.96117 0.97008 0.0
C428 C 0.45052 0.50155 0.46582 0.0
C429 C 0.46527 0.53181 0.50121 0.0
C430 C 0.47532 0.46713 0.4514 0.0
C431 C 0.51594 0.46147 0.47178 0.0
H432 H 0.41945 0.5043 0.44895 0.0
H433 H 0.46239 0.4448 0.42404 0.0
S434 S 0.56983 0.53211 0.56529 0.0
N435 N 0.52342 0.55409 0.55599 0.0
N436 N 0.57009 0.48945 0.52895 0.0
C437 C 0.53119 0.49151 0.50724 0.0
C438 C 0.50587 0.52663 0.52193 0.0
C439 C -0.0049 0.52699 0.51005 0.0
C440 C 0.02094 0.51079 0.4706 0.0
C441 C 0.96223 0.50328 0.53101 0.0
C442 C 0.95376 0.46229 0.51349 0.0
H443 H 2e-05 0.55846 0.52489 0.0
H444 H 0.94326 0.5174 0.56115 0.0
S445 S 0.01265 0.40468 0.41151 0.0
N446 N 0.03617 0.45082 0.41523 0.0
N447 N 0.97442 0.40616 0.45456 0.0
C448 C 0.97952 0.44548 0.47424 0.0
C449 C 0.01306 0.46972 0.45284 0.0
C450 C 0.99416 0.95398 0.55344 0.0
C451 C 0.03723 0.95508 0.54136 0.0
C452 C 0.96784 0.9881 0.54218 0.0
C453 C 0.98353 0.02469 0.51838 0.0
H454 H 0.98037 0.9262 0.57075 0.0
H455 H 0.93474 0.98529 0.55123 0.0
S456 S 0.0948 0.0452 0.4836 0.0
N457 N 0.095 -0.00293 0.50759 0.0
N458 N 0.04548 0.06113 0.48638 0.0
C459 C 0.02679 0.02678 0.50759 0.0
C460 C 0.05363 0.99201 0.51909 0.0
C461 C 0.50802 0.03335 0.48422 0.0
C462 C 0.53141 0.01893 0.52703 0.0
C463 C 0.47645 0.00871 0.46181 0.0
C464 C 0.46694 0.96848 0.48112 0.0
H465 H 0.51395 0.0641 0.46771 0.0
H466 H 0.4595 0.02139 0.42892 0.0
S467 S 0.51878 0.91586 0.59286 0.0
N468 N 0.54276 0.96171 0.58808 0.0
N469 N 0.48345 0.91528 0.54603 0.0
C470 C 0.49003 0.95357 0.52402 0.0
C471 C 0.52222 0.97878 0.54694 0.0
C472 C 0.54419 0.25568 0.26607 0.0
C473 C 0.54306 0.29888 0.25385 0.0
C474 C 0.543 0.22488 0.22738 0.0
C475 C 0.54028 0.23584 0.17475 0.0
H476 H 0.54742 0.24537 0.30584 0.0
H477 H 0.54537 0.19219 0.23889 0.0
S478 S 0.53258 0.34447 0.12204 0.0
N479 N 0.53623 0.35096 0.18526 0.0
N480 N 0.53373 0.29315 0.11253 0.0
C481 C 0.53702 0.27888 0.162 0.0
C482 C 0.53851 0.31034 0.2015 0.0
C483 C 0.16854 0.56795 0.1883 0.0
C484 C 0.17904 0.557 0.23944 0.0
C485 C 0.19906 0.56948 0.14941 0.0
C486 C 0.24156 0.56026 0.15986 0.0
H487 H 0.13656 0.57641 0.17823 0.0
H488 H 0.18917 0.57895 0.11098 0.0
S489 S 0.28531 0.52674 0.28667 0.0
N490 N 0.23481 0.5343 0.29792 0.0
N491 N 0.29217 0.53734 0.22471 0.0
C492 C 0.25235 0.54763 0.21038 0.0
C493 C 0.22113 0.54594 0.25014 0.0
C494 C 0.95597 0.30831 0.33558 0.0
C495 C 0.95178 0.29836 0.28279 0.0
C496 C 0.9588 0.27673 0.37326 0.0
C497 C 0.95692 0.23386 0.35976 0.0
H498 H 0.95591 0.34079 0.34816 0.0
H499 H 0.96064 0.28615 0.41348 0.0
S500 S 0.94999 0.19071 0.22663 0.0
N501 N 0.94913 0.24221 0.21864 0.0
N502 N 0.95379 0.18302 0.28965 0.0
C503 C 0.95458 0.22337 0.307 0.0
C504 C 0.95221 0.25554 0.26849 0.0
C505 C 0.32522 0.92822 0.19175 0.0
C506 C 0.31307 0.93794 0.24266 0.0
C507 C 0.29575 0.92613 0.15158 0.0
C508 C 0.25273 0.93368 0.16041 0.0
H509 H 0.35765 0.92079 0.18289 0.0
H510 H 0.30687 0.91737 0.11348 0.0
S511 S 0.20486 0.96467 0.28568 0.0
N512 N 0.25525 0.95849 0.29899 0.0
N513 N 0.19985 0.95449 0.22333 0.0
C514 C 0.24031 0.94557 0.21057 0.0
C515 C 0.27045 0.94773 0.25168 0.0
C516 C 0.41371 0.82156 0.68959 0.0
C517 C 0.43236 0.81031 0.73703 0.0
C518 C 0.40993 0.79251 0.64914 0.0
C519 C 0.42451 0.75088 0.65437 0.0
H520 H 0.40078 0.85275 0.68395 0.0
H521 H 0.39429 0.80265 0.614 0.0
S522 S 0.47967 0.70644 0.76878 0.0
N523 N 0.46855 0.75529 0.78547 0.0
N524 N 0.46124 0.70075 0.70944 0.0
C525 C 0.44492 0.73965 0.70072 0.0
C526 C 0.44894 0.76933 0.74197 0.0
C527 C 0.74852 0.44617 0.72678 0.0
C528 C 0.79105 0.44311 0.74157 0.0
C529 C 0.71632 0.44684 0.76367 0.0
C530 C 0.72523 0.44488 0.81696 0.0
H531 H 0.73972 0.44622 0.68626 0.0
H532 H 0.6841 0.44757 0.75008 0.0
S533 S 0.83172 0.44193 0.87635 0.0
N534 N 0.84055 0.44196 0.81341 0.0
N535 N 0.78014 0.44355 0.88283 0.0
C536 C 0.76776 0.44444 0.83245 0.0
C537 C 0.8006 0.44344 0.79477 0.0
C538 C 0.0816 0.68465 0.66806 0.0
C539 C 0.07043 0.72711 0.67533 0.0
C540 C 0.07736 0.65508 0.7079 0.0
C541 C 0.06172 0.66665 0.75675 0.0
H542 H 0.09492 0.67418 0.63173 0.0
H543 H 0.08776 0.62318 0.70065 0.0
S544 S 0.02357 0.77292 0.79417 0.0
N545 N 0.03984 0.77855 0.73395 0.0
N546 N 0.03173 0.72304 0.80882 0.0
C547 C 0.04842 0.70859 0.7638 0.0
C548 C 0.05285 0.73878 0.72316 0.0
C549 C 0.71778 0.06598 0.75947 0.0
C550 C 0.67526 0.07617 0.76807 0.0
C551 C 0.74729 0.06675 0.79982 0.0
C552 C 0.73552 0.07749 0.85058 0.0
H553 H 0.72881 0.05859 0.72089 0.0
H554 H 0.77977 0.05971 0.79075 0.0
S555 S 0.62712 0.10259 0.89475 0.0
N556 N 0.62227 0.09444 0.83194 0.0
N557 N 0.67743 0.09566 0.90787 0.0
C558 C 0.69269 0.08603 0.86019 0.0
C559 C 0.66268 0.08545 0.81896 0.0
loop_
_geom_bond_atom_site_label_1
_geom_bond_atom_site_label_2
_geom_bond_distance
_geom_bond_site_symmetry_2
_ccdc_geom_bond_type
C0 O1 1.160 . S
C0 O7 1.185 . S
O1 C0 1.160 . S
O2 Zn3 1.899 . S
O2 C10 1.284 . S
Zn3 O2 1.899 . S
Zn3 O4 2.032 . S
Zn3 O7 2.086 . S
Zn3 O12 1.977 . S
O4 Zn3 2.032 . S
O4 C8 1.278 . S
C5 O6 1.203 . S
C5 O12 1.267 . S
O6 C5 1.203 . S
O7 C0 1.185 . S
O7 Zn3 2.086 . S
C8 O4 1.278 . S
C8 O9 1.211 . S
O9 C8 1.211 . S
C10 O2 1.284 . S
C10 O11 1.273 . S
O11 C10 1.273 . S
O12 Zn3 1.977 . S
O12 C5 1.267 . S
C13 O14 1.160 . S
C13 O20 1.185 . S
O14 C13 1.160 . S
O15 Zn16 1.899 . S
O15 C23 1.284 . S
Zn16 O15 1.899 . S
Zn16 O17 2.032 . S
Zn16 O20 2.086 . S
Zn16 O25 1.977 . S
O17 Zn16 2.032 . S
O17 C21 1.278 . S
C18 O19 1.203 . S
C18 O25 1.267 . S
O19 C18 1.203 . S
O20 C13 1.185 . S
O20 Zn16 2.086 . S
C21 O17 1.278 . S
C21 O22 1.211 . S
O22 C21 1.211 . S
C23 O15 1.284 . S
C23 O24 1.273 . S
O24 C23 1.273 . S
O25 Zn16 1.977 . S
O25 C18 1.267 . S
C26 O27 1.160 . S
C26 O33 1.185 . S
O27 C26 1.160 . S
O28 Zn29 1.899 . S
O28 C36 1.284 . S
Zn29 O28 1.899 . S
Zn29 O30 2.032 . S
Zn29 O33 2.086 . S
Zn29 O38 1.977 . S
O30 Zn29 2.032 . S
O30 C34 1.278 . S
C31 O32 1.203 . S
C31 O38 1.267 . S
O32 C31 1.203 . S
O33 C26 1.185 . S
O33 Zn29 2.086 . S
C34 O30 1.278 . S
C34 O35 1.211 . S
O35 C34 1.211 . S
C36 O28 1.284 . S
C36 O37 1.273 . S
O37 C36 1.273 . S
O38 Zn29 1.977 . S
O38 C31 1.267 . S
C39 O40 1.160 . S
C39 O46 1.185 . S
O40 C39 1.160 . S
O41 Zn42 1.899 . S
O41 C49 1.284 . S
Zn42 O41 1.899 . S
Zn42 O43 2.032 . S
Zn42 O46 2.086 . S
Zn42 O51 1.977 . S
O43 Zn42 2.032 . S
O43 C47 1.278 . S
C44 O45 1.203 . S
C44 O51 1.267 . S
O45 C44 1.203 . S
O46 C39 1.185 . S
O46 Zn42 2.086 . S
C47 O43 1.278 . S
C47 O48 1.211 . S
O48 C47 1.211 . S
C49 O41 1.284 . S
C49 O50 1.273 . S
O50 C49 1.273 . S
O51 Zn42 1.977 . S
O51 C44 1.267 . S
C52 O53 1.160 . S
C52 O59 1.185 . S
O53 C52 1.160 . S
O54 Zn55 1.899 . S
O54 C62 1.284 . S
Zn55 O54 1.899 . S
Zn55 O56 2.032 . S
Zn55 O59 2.086 . S
Zn55 O64 1.977 . S
O56 Zn55 2.032 . S
O56 C60 1.278 . S
C57 O58 1.203 . S
C57 O64 1.267 . S
O58 C57 1.203 . S
O59 C52 1.185 . S
O59 Zn55 2.086 . S
C60 O56 1.278 . S
C60 O61 1.211 . S
O61 C60 1.211 . S
C62 O54 1.284 . S
C62 O63 1.273 . S
O63 C62 1.273 . S
O64 Zn55 1.977 . S
O64 C57 1.267 . S
C65 O66 1.160 . S
C65 O72 1.185 . S
O66 C65 1.160 . S
O67 Zn68 1.899 . S
O67 C75 1.284 . S
Zn68 O67 1.899 . S
Zn68 O69 2.032 . S
Zn68 O72 2.086 . S
Zn68 O77 1.977 . S
O69 Zn68 2.032 . S
O69 C73 1.278 . S
C70 O71 1.203 . S
C70 O77 1.267 . S
O71 C70 1.203 . S
O72 C65 1.185 . S
O72 Zn68 2.086 . S
C73 O69 1.278 . S
C73 O74 1.211 . S
O74 C73 1.211 . S
C75 O67 1.284 . S
C75 O76 1.273 . S
O76 C75 1.273 . S
O77 Zn68 1.977 . S
O77 C70 1.267 . S
C78 O79 1.160 . S
C78 O85 1.185 . S
O79 C78 1.160 . S
O80 Zn81 1.899 . S
O80 C88 1.284 . S
Zn81 O80 1.899 . S
Zn81 O82 2.032 . S
Zn81 O85 2.086 . S
Zn81 O90 1.977 . S
O82 Zn81 2.032 . S
O82 C86 1.278 . S
C83 O84 1.203 . S
C83 O90 1.267 . S
O84 C83 1.203 . S
O85 C78 1.185 . S
O85 Zn81 2.086 . S
C86 O82 1.278 . S
C86 O87 1.211 . S
O87 C86 1.211 . S
C88 O80 1.284 . S
C88 O89 1.273 . S
O89 C88 1.273 . S
O90 Zn81 1.977 . S
O90 C83 1.267 . S
C91 O92 1.160 . S
C91 O98 1.185 . S
O92 C91 1.160 . S
O93 Zn94 1.899 . S
O93 C101 1.284 . S
Zn94 O93 1.899 . S
Zn94 O95 2.032 . S
Zn94 O98 2.086 . S
Zn94 O103 1.977 . S
O95 Zn94 2.032 . S
O95 C99 1.278 . S
C96 O97 1.203 . S
C96 O103 1.267 . S
O97 C96 1.203 . S
O98 C91 1.185 . S
O98 Zn94 2.086 . S
C99 O95 1.278 . S
C99 O100 1.211 . S
O100 C99 1.211 . S
C101 O93 1.284 . S
C101 O102 1.273 . S
O102 C101 1.273 . S
O103 Zn94 1.977 . S
O103 C96 1.267 . S
C104 O105 1.160 . S
C104 O111 1.185 . S
O105 C104 1.160 . S
O106 Zn107 1.899 . S
O106 C114 1.284 . S
Zn107 O106 1.899 . S
Zn107 O108 2.032 . S
Zn107 O111 2.086 . S
Zn107 O116 1.977 . S
O108 Zn107 2.032 . S
O108 C112 1.278 . S
C109 O110 1.203 . S
C109 O116 1.267 . S
O110 C109 1.203 . S
O111 C104 1.185 . S
O111 Zn107 2.086 . S
C112 O108 1.278 . S
C112 O113 1.211 . S
O113 C112 1.211 . S
C114 O106 1.284 . S
C114 O115 1.273 . S
O115 C114 1.273 . S
O116 Zn107 1.977 . S
O116 C109 1.267 . S
C117 O118 1.160 . S
C117 O124 1.185 . S
O118 C117 1.160 . S
O119 Zn120 1.899 . S
O119 C127 1.284 . S
Zn120 O119 1.899 . S
Zn120 O121 2.032 . S
Zn120 O124 2.086 . S
Zn120 O129 1.977 . S
O121 Zn120 2.032 . S
O121 C125 1.278 . S
C122 O123 1.203 . S
C122 O129 1.267 . S
O123 C122 1.203 . S
O124 C117 1.185 . S
O124 Zn120 2.086 . S
C125 O121 1.278 . S
C125 O126 1.211 . S
O126 C125 1.211 . S
C127 O119 1.284 . S
C127 O128 1.273 . S
O128 C127 1.273 . S
O129 Zn120 1.977 . S
O129 C122 1.267 . S
C130 O131 1.160 . S
C130 O137 1.185 . S
O131 C130 1.160 . S
O132 Zn133 1.899 . S
O132 C140 1.284 . S
Zn133 O132 1.899 . S
Zn133 O134 2.032 . S
Zn133 O137 2.086 . S
Zn133 O142 1.977 . S
O134 Zn133 2.032 . S
O134 C138 1.278 . S
C135 O136 1.203 . S
C135 O142 1.267 . S
O136 C135 1.203 . S
O137 C130 1.185 . S
O137 Zn133 2.086 . S
C138 O134 1.278 . S
C138 O139 1.211 . S
O139 C138 1.211 . S
C140 O132 1.284 . S
C140 O141 1.273 . S
O141 C140 1.273 . S
O142 Zn133 1.977 . S
O142 C135 1.267 . S
C143 O144 1.160 . S
C143 O150 1.185 . S
O144 C143 1.160 . S
O145 Zn146 1.899 . S
O145 C153 1.284 . S
Zn146 O145 1.899 . S
Zn146 O147 2.032 . S
Zn146 O150 2.086 . S
Zn146 O155 1.977 . S
O147 Zn146 2.032 . S
O147 C151 1.278 . S
C148 O149 1.203 . S
C148 O155 1.267 . S
O149 C148 1.203 . S
O150 C143 1.185 . S
O150 Zn146 2.086 . S
C151 O147 1.278 . S
C151 O152 1.211 . S
O152 C151 1.211 . S
C153 O145 1.284 . S
C153 O154 1.273 . S
O154 C153 1.273 . S
O155 Zn146 1.977 . S
O155 C148 1.267 . S
C156 O157 1.160 . S
C156 O163 1.185 . S
O157 C156 1.160 . S
O158 Zn159 1.899 . S
O158 C166 1.284 . S
Zn159 O158 1.899 . S
Zn159 O160 2.032 . S
Zn159 O163 2.086 . S
Zn159 O168 1.977 . S
O160 Zn159 2.032 . S
O160 C164 1.278 . S
C161 O162 1.203 . S
C161 O168 1.267 . S
O162 C161 1.203 . S
O163 C156 1.185 . S
O163 Zn159 2.086 . S
C164 O160 1.278 . S
C164 O165 1.211 . S
O165 C164 1.211 . S
C166 O158 1.284 . S
C166 O167 1.273 . S
O167 C166 1.273 . S
O168 Zn159 1.977 . S
O168 C161 1.267 . S
C169 O170 1.160 . S
C169 O176 1.185 . S
O170 C169 1.160 . S
O171 Zn172 1.899 . S
O171 C179 1.284 . S
Zn172 O171 1.899 . S
Zn172 O173 2.032 . S
Zn172 O176 2.086 . S
Zn172 O181 1.977 . S
O173 Zn172 2.032 . S
O173 C177 1.278 . S
C174 O175 1.203 . S
C174 O181 1.267 . S
O175 C174 1.203 . S
O176 C169 1.185 . S
O176 Zn172 2.086 . S
C177 O173 1.278 . S
C177 O178 1.211 . S
O178 C177 1.211 . S
C179 O171 1.284 . S
C179 O180 1.273 . S
O180 C179 1.273 . S
O181 Zn172 1.977 . S
O181 C174 1.267 . S
C182 O183 1.160 . S
C182 O189 1.185 . S
O183 C182 1.160 . S
O184 Zn185 1.899 . S
O184 C192 1.284 . S
Zn185 O184 1.899 . S
Zn185 O186 2.032 . S
Zn185 O189 2.086 . S
Zn185 O194 1.977 . S
O186 Zn185 2.032 . S
O186 C190 1.278 . S
C187 O188 1.203 . S
C187 O194 1.267 . S
O188 C187 1.203 . S
O189 C182 1.185 . S
O189 Zn185 2.086 . S
C190 O186 1.278 . S
C190 O191 1.211 . S
O191 C190 1.211 . S
C192 O184 1.284 . S
C192 O193 1.273 . S
O193 C192 1.273 . S
O194 Zn185 1.977 . S
O194 C187 1.267 . S
C195 O196 1.160 . S
C195 O202 1.185 . S
O196 C195 1.160 . S
O197 Zn198 1.899 . S
O197 C205 1.284 . S
Zn198 O197 1.899 . S
Zn198 O199 2.032 . S
Zn198 O202 2.086 . S
Zn198 O207 1.977 . S
O199 Zn198 2.032 . S
O199 C203 1.278 . S
C200 O201 1.203 . S
C200 O207 1.267 . S
O201 C200 1.203 . S
O202 C195 1.185 . S
O202 Zn198 2.086 . S
C203 O199 1.278 . S
C203 O204 1.211 . S
O204 C203 1.211 . S
C205 O197 1.284 . S
C205 O206 1.273 . S
O206 C205 1.273 . S
O207 Zn198 1.977 . S
O207 C200 1.267 . S
C208 C209 1.369 1_554 S
C208 C210 1.419 1_554 S
C208 H212 0.930 . S
C209 C208 1.369 1_556 S
C209 C218 1.429 . S
C210 C208 1.419 1_556 S
C210 C211 1.363 . S
C210 H213 0.929 . S
C211 C210 1.363 . S
C211 C217 1.428 . S
H212 C208 0.930 . S
H213 C210 0.929 . S
S214 N215 1.613 . S
S214 N216 1.610 . S
N215 S214 1.613 . S
N215 C218 1.350 . S
N216 S214 1.610 . S
N216 C217 1.351 . S
C217 C211 1.428 . S
C217 N216 1.351 . S
C217 C218 1.434 . S
C218 C209 1.429 . S
C218 N215 1.350 . S
C218 C217 1.434 . S
C219 C220 1.369 . S
C219 C221 1.419 . S
C219 H223 0.930 . S
C220 C219 1.369 . S
C220 C229 1.429 . S
C221 C219 1.419 . S
C221 C222 1.371 . S
C221 H224 0.929 . S
C222 C221 1.371 . S
C222 C228 1.426 1_556 S
H223 C219 0.930 . S
H224 C221 0.929 . S
S225 N226 1.613 1_554 S
S225 N227 1.610 . S
N226 S225 1.613 1_556 S
N226 C229 1.350 . S
N227 S225 1.610 . S
N227 C228 1.351 . S
C228 C222 1.426 1_554 S
C228 N227 1.351 . S
C228 C229 1.434 1_554 S
C229 C220 1.429 . S
C229 N226 1.350 . S
C229 C228 1.434 1_556 S
C230 C231 1.369 . S
C230 C232 1.419 . S
C230 H234 0.930 . S
C231 C230 1.369 . S
C231 C240 1.429 . S
C232 C230 1.419 . S
C232 C233 1.363 . S
C232 H235 0.929 1_556 S
C233 C232 1.363 . S
C233 C239 1.428 . S
H234 C230 0.930 . S
H235 C232 0.929 1_554 S
S236 N237 1.613 . S
S236 N238 1.610 . S
N237 S236 1.613 . S
N237 C240 1.350 . S
N238 S236 1.610 . S
N238 C239 1.351 . S
C239 C233 1.428 . S
C239 N238 1.351 . S
C239 C240 1.434 . S
C240 C231 1.429 . S
C240 N237 1.350 . S
C240 C239 1.434 . S
C241 C242 1.369 . S
C241 C243 1.419 . S
C241 H245 0.930 . S
C242 C241 1.369 . S
C242 C251 1.429 . S
C243 C241 1.419 . S
C243 C244 1.369 . S
C243 H246 0.929 . S
C244 C243 1.369 . S
C244 C250 1.430 . S
H245 C241 0.930 . S
H246 C243 0.929 . S
S247 N248 1.612 1_554 S
S247 N249 1.611 . S
N248 S247 1.612 1_556 S
N248 C251 1.350 . S
N249 S247 1.611 . S
N249 C250 1.351 1_554 S
C250 C244 1.430 . S
C250 N249 1.351 1_556 S
C250 C251 1.434 . S
C251 C242 1.429 . S
C251 N248 1.350 . S
C251 C250 1.434 . S
C252 C253 1.369 . S
C252 C254 1.419 . S
C252 H256 0.930 . S
C253 C252 1.369 . S
C253 C262 1.429 . S
C254 C252 1.419 . S
C254 C255 1.363 . S
C254 H257 0.929 . S
C255 C254 1.363 . S
C255 C261 1.428 . S
H256 C252 0.930 . S
H257 C254 0.929 . S
S258 N259 1.613 . S
S258 N260 1.610 . S
N259 S258 1.613 . S
N259 C262 1.350 . S
N260 S258 1.610 . S
N260 C261 1.351 . S
C261 C255 1.428 . S
C261 N260 1.351 . S
C261 C262 1.434 . S
C262 C253 1.429 . S
C262 N259 1.350 . S
C262 C261 1.434 . S
C263 C264 1.369 . S
C263 C265 1.419 . S
C263 H267 0.930 . S
C264 C263 1.369 . S
C264 C273 1.429 . S
C265 C263 1.419 . S
C265 C266 1.363 . S
C265 H268 0.929 . S
C266 C265 1.363 . S
C266 C272 1.428 . S
H267 C263 0.930 . S
H268 C265 0.929 . S
S269 N270 1.613 . S
S269 N271 1.610 . S
N270 S269 1.613 . S
N270 C273 1.350 . S
N271 S269 1.610 . S
N271 C272 1.351 . S
C272 C266 1.428 . S
C272 N271 1.351 . S
C272 C273 1.434 . S
C273 C264 1.429 . S
C273 N270 1.350 . S
C273 C272 1.434 . S
C274 C275 1.369 . S
C274 C276 1.419 . S
C274 H278 0.930 . S
C275 C274 1.369 . S
C275 C284 1.429 . S
C276 C274 1.419 . S
C276 C277 1.363 . S
C276 H279 0.929 . S
C277 C276 1.363 . S
C277 C283 1.428 . S
H278 C274 0.930 . S
H279 C276 0.929 . S
S280 N281 1.613 . S
S280 N282 1.610 . S
N281 S280 1.613 . S
N281 C284 1.350 . S
N282 S280 1.610 . S
N282 C283 1.351 . S
C283 C277 1.428 . S
C283 N282 1.351 . S
C283 C284 1.434 . S
C284 C275 1.429 . S
C284 N281 1.350 . S
C284 C283 1.434 . S
C285 C286 1.369 . S
C285 C287 1.419 . S
C285 H289 0.930 . S
C286 C285 1.369 . S
C286 C295 1.429 . S
C287 C285 1.419 . S
C287 C288 1.363 . S
C287 H290 0.929 . S
C288 C287 1.363 . S
C288 C294 1.428 . S
H289 C285 0.930 . S
H290 C287 0.929 . S
S291 N292 1.613 . S
S291 N293 1.610 . S
N292 S291 1.613 . S
N292 C295 1.350 . S
N293 S291 1.610 . S
N293 C294 1.351 . S
C294 C288 1.428 . S
C294 N293 1.351 . S
C294 C295 1.434 . S
C295 C286 1.429 . S
C295 N292 1.350 . S
C295 C294 1.434 . S
C296 C297 1.369 1_556 S
C296 C298 1.419 1_556 S
C296 H300 0.930 . S
C297 C296 1.369 1_554 S
C297 C306 1.429 . S
C298 C296 1.419 1_554 S
C298 C299 1.363 . S
C298 H301 0.929 1_554 S
C299 C298 1.363 . S
C299 C305 1.428 . S
H300 C296 0.930 . S
H301 C298 0.929 1_556 S
S302 N303 1.613 . S
S302 N304 1.610 . S
N303 S302 1.613 . S
N303 C306 1.350 . S
N304 S302 1.610 . S
N304 C305 1.351 . S
C305 C299 1.428 . S
C305 N304 1.351 . S
C305 C306 1.434 . S
C306 C297 1.429 . S
C306 N303 1.350 . S
C306 C305 1.434 . S
C307 C308 1.382 . S
C307 C309 1.419 . S
C307 H311 0.930 . S
C308 C307 1.382 . S
C308 C317 1.425 1_554 S
C309 C307 1.419 . S
C309 C310 1.363 . S
C309 H312 0.929 . S
C310 C309 1.363 . S
C310 C316 1.428 . S
H311 C307 0.930 . S
H312 C309 0.929 . S
S313 N314 1.613 . S
S313 N315 1.617 . S
N314 S313 1.613 . S
N314 C317 1.350 . S
N315 S313 1.617 . S
N315 C316 1.348 1_556 S
C316 C310 1.428 . S
C316 N315 1.348 1_554 S
C316 C317 1.434 1_554 S
C317 C308 1.425 1_556 S
C317 N314 1.350 . S
C317 C316 1.434 1_556 S
C318 C319 1.377 . S
C318 C320 1.419 . S
C318 H322 0.930 . S
C319 C318 1.377 . S
C319 C328 1.424 1_554 S
C320 C318 1.419 . S
C320 C321 1.363 . S
C320 H323 0.929 . S
C321 C320 1.363 . S
C321 C327 1.428 1_554 S
H322 C318 0.930 . S
H323 C320 0.929 . S
S324 N325 1.613 . S
S324 N326 1.610 . S
N325 S324 1.613 . S
N325 C328 1.350 . S
N326 S324 1.610 . S
N326 C327 1.351 . S
C327 C321 1.428 1_556 S
C327 N326 1.351 . S
C327 C328 1.434 . S
C328 C319 1.424 1_556 S
C328 N325 1.350 . S
C328 C327 1.434 . S
C329 C330 1.369 . S
C329 C331 1.419 . S
C329 H333 0.930 . S
C330 C329 1.369 . S
C330 C339 1.429 . S
C331 C329 1.419 . S
C331 C332 1.363 . S
C331 H334 0.929 . S
C332 C331 1.363 . S
C332 C338 1.428 1_554 S
H333 C329 0.930 . S
H334 C331 0.929 . S
S335 N336 1.613 1_556 S
S335 N337 1.610 . S
N336 S335 1.613 1_554 S
N336 C339 1.350 . S
N337 S335 1.610 . S
N337 C338 1.351 . S
C338 C332 1.428 1_556 S
C338 N337 1.351 . S
C338 C339 1.434 1_556 S
C339 C330 1.429 . S
C339 N336 1.350 . S
C339 C338 1.434 1_554 S
C340 C341 1.369 . S
C340 C342 1.419 . S
C340 H344 0.930 . S
C341 C340 1.369 . S
C341 C350 1.429 . S
C342 C340 1.419 . S
C342 C343 1.363 . S
C342 H345 0.929 . S
C343 C342 1.363 . S
C343 C349 1.428 . S
H344 C340 0.930 . S
H345 C342 0.929 . S
S346 N347 1.613 . S
S346 N348 1.610 . S
N347 S346 1.613 . S
N347 C350 1.350 . S
N348 S346 1.610 . S
N348 C349 1.351 . S
C349 C343 1.428 . S
C349 N348 1.351 . S
C349 C350 1.434 . S
C350 C341 1.429 . S
C350 N347 1.350 . S
C350 C349 1.434 . S
C351 C352 1.369 . S
C351 C353 1.419 . S
C351 H355 0.930 . S
C352 C351 1.369 . S
C352 C361 1.429 . S
C353 C351 1.419 . S
C353 C354 1.363 . S
C353 H356 0.929 . S
C354 C353 1.363 . S
C354 C360 1.428 . S
H355 C351 0.930 . S
H356 C353 0.929 . S
S357 N358 1.613 . S
S357 N359 1.610 . S
N358 S357 1.613 . S
N358 C361 1.350 . S
N359 S357 1.610 . S
N359 C360 1.351 . S
C360 C354 1.428 . S
C360 N359 1.351 . S
C360 C361 1.434 . S
C361 C352 1.429 . S
C361 N358 1.350 . S
C361 C360 1.434 . S
C362 C363 1.369 . S
C362 C364 1.419 . S
C362 H366 0.930 . S
C363 C362 1.369 . S
C363 C372 1.429 . S
C364 C362 1.419 . S
C364 C365 1.363 . S
C364 H367 0.929 . S
C365 C364 1.363 . S
C365 C371 1.428 . S
H366 C362 0.930 . S
H367 C364 0.929 . S
S368 N369 1.613 1_655 S
S368 N370 1.610 1_655 S
N369 S368 1.613 1_455 S
N369 C372 1.350 . S
N370 S368 1.610 1_455 S
N370 C371 1.351 . S
C371 C365 1.428 . S
C371 N370 1.351 . S
C371 C372 1.434 . S
C372 C363 1.429 . S
C372 N369 1.350 . S
C372 C371 1.434 . S
C373 C374 1.369 . S
C373 C375 1.419 . S
C373 H377 0.930 . S
C374 C373 1.369 . S
C374 C383 1.429 . S
C375 C373 1.419 . S
C375 C376 1.363 . S
C375 H378 0.929 . S
C376 C375 1.363 . S
C376 C382 1.428 . S
H377 C373 0.930 . S
H378 C375 0.929 . S
S379 N380 1.615 . S
S379 N381 1.621 . S
N380 S379 1.615 . S
N380 C383 1.350 . S
N381 S379 1.621 . S
N381 C382 1.351 . S
C382 C376 1.428 . S
C382 N381 1.351 . S
C382 C383 1.434 . S
C383 C374 1.429 . S
C383 N380 1.350 . S
C383 C382 1.434 . S
C384 C385 1.369 . S
C384 C386 1.419 1_566 S
C384 H388 0.930 . S
C385 C384 1.369 . S
C385 C394 1.429 . S
C386 C384 1.419 1_544 S
C386 C387 1.363 . S
C386 H389 0.929 . S
C387 C386 1.363 . S
C387 C393 1.428 . S
H388 C384 0.930 . S
H389 C386 0.929 . S
S390 N391 1.613 1_545 S
S390 N392 1.610 1_556 S
N391 S390 1.613 1_565 S
N391 C394 1.350 . S
N392 S390 1.610 1_554 S
N392 C393 1.351 . S
C393 C387 1.428 . S
C393 N392 1.351 . S
C393 C394 1.434 1_544 S
C394 C385 1.429 . S
C394 N391 1.350 . S
C394 C393 1.434 1_566 S
C395 C396 1.369 1_556 S
C395 C397 1.419 . S
C395 H399 0.930 . S
C396 C395 1.369 1_554 S
C396 C405 1.429 . S
C397 C395 1.419 . S
C397 C398 1.363 . S
C397 H400 0.929 . S
C398 C397 1.363 . S
C398 C404 1.428 1_556 S
H399 C395 0.930 . S
H400 C397 0.929 . S
S401 N402 1.613 . S
S401 N403 1.610 . S
N402 S401 1.613 . S
N402 C405 1.350 . S
N403 S401 1.610 . S
N403 C404 1.351 . S
C404 C398 1.428 1_554 S
C404 N403 1.351 . S
C404 C405 1.434 . S
C405 C396 1.429 . S
C405 N402 1.350 . S
C405 C404 1.434 . S
C406 C407 1.369 1_455 S
C406 C408 1.419 . S
C406 H410 0.930 . S
C407 C406 1.369 1_655 S
C407 C416 1.429 1_556 S
C408 C406 1.419 . S
C408 C409 1.363 1_556 S
C408 H411 0.929 . S
C409 C408 1.363 1_554 S
C409 C415 1.428 1_455 S
H410 C406 0.930 . S
H411 C408 0.929 . S
S412 N413 1.613 . S
S412 N414 1.610 . S
N413 S412 1.613 . S
N413 C416 1.350 . S
N414 S412 1.610 . S
N414 C415 1.351 . S
C415 C409 1.428 1_655 S
C415 N414 1.351 . S
C415 C416 1.434 . S
C416 C407 1.429 1_554 S
C416 N413 1.350 . S
C416 C415 1.434 . S
C417 C418 1.369 1_566 S
C417 C419 1.419 1_455 S
C417 H421 0.930 . S
C418 C417 1.369 1_544 S
C418 C427 1.429 . S
C419 C417 1.419 1_655 S
C419 C420 1.363 . S
C419 H422 0.929 . S
C420 C419 1.363 . S
C420 C426 1.428 1_566 S
H421 C417 0.930 . S
H422 C419 0.929 . S
S423 N424 1.613 1_655 S
S423 N425 1.610 . S
N424 S423 1.613 1_455 S
N424 C427 1.350 . S
N425 S423 1.610 . S
N425 C426 1.351 . S
C426 C420 1.428 1_544 S
C426 N425 1.351 . S
C426 C427 1.434 1_655 S
C427 C418 1.429 . S
C427 N424 1.350 . S
C427 C426 1.434 1_455 S
C428 C429 1.369 . S
C428 C430 1.419 . S
C428 H432 0.930 . S
C429 C428 1.369 . S
C429 C438 1.429 . S
C430 C428 1.419 . S
C430 C431 1.363 . S
C430 H433 0.929 . S
C431 C430 1.363 . S
C431 C437 1.428 . S
H432 C428 0.930 . S
H433 C430 0.929 . S
S434 N435 1.613 . S
S434 N436 1.610 . S
N435 S434 1.613 . S
N435 C438 1.350 . S
N436 S434 1.610 . S
N436 C437 1.351 . S
C437 C431 1.428 . S
C437 N436 1.351 . S
C437 C438 1.434 . S
C438 C429 1.429 . S
C438 N435 1.350 . S
C438 C437 1.434 . S
C439 C440 1.369 . S
C439 C441 1.419 1_455 S
C439 H443 0.930 . S
C440 C439 1.369 . S
C440 C449 1.429 . S
C441 C439 1.419 1_655 S
C441 C442 1.363 . S
C441 H444 0.929 . S
C442 C441 1.363 . S
C442 C448 1.428 . S
H443 C439 0.930 . S
H444 C441 0.929 . S
S445 N446 1.613 . S
S445 N447 1.610 1_455 S
N446 S445 1.613 . S
N446 C449 1.350 . S
N447 S445 1.610 1_655 S
N447 C448 1.351 . S
C448 C442 1.428 . S
C448 N447 1.351 . S
C448 C449 1.434 1_655 S
C449 C440 1.429 . S
C449 N446 1.350 . S
C449 C448 1.434 1_455 S
C450 C451 1.369 1_455 S
C450 C452 1.419 1_565 S
C450 H454 0.930 . S
C451 C450 1.369 1_655 S
C451 C460 1.429 . S
C452 C450 1.419 1_545 S
C452 C453 1.363 . S
C452 H455 0.929 . S
C453 C452 1.363 . S
C453 C459 1.428 1_455 S
H454 C450 0.930 . S
H455 C452 0.929 . S
S456 N457 1.613 1_545 S
S456 N458 1.610 . S
N457 S456 1.613 1_565 S
N457 C460 1.350 . S
N458 S456 1.610 . S
N458 C459 1.351 . S
C459 C453 1.428 1_655 S
C459 N458 1.351 . S
C459 C460 1.434 1_545 S
C460 C451 1.429 . S
C460 N457 1.350 . S
C460 C459 1.434 1_565 S
C461 C462 1.369 . S
C461 C463 1.419 . S
C461 H465 0.930 . S
C462 C461 1.369 . S
C462 C471 1.429 1_565 S
C463 C461 1.419 . S
C463 C464 1.363 1_565 S
C463 H466 0.929 . S
C464 C463 1.363 1_545 S
C464 C470 1.428 . S
H465 C461 0.930 . S
H466 C463 0.929 . S
S467 N468 1.613 . S
S467 N469 1.610 . S
N468 S467 1.613 . S
N468 C471 1.350 . S
N469 S467 1.610 . S
N469 C470 1.351 . S
C470 C464 1.428 . S
C470 N469 1.351 . S
C470 C471 1.434 . S
C471 C462 1.429 1_545 S
C471 N468 1.350 . S
C471 C470 1.434 . S
C472 C473 1.369 . S
C472 C474 1.419 . S
C472 H476 0.930 . S
C473 C472 1.369 . S
C473 C482 1.429 . S
C474 C472 1.419 . S
C474 C475 1.363 . S
C474 H477 0.929 . S
C475 C474 1.363 . S
C475 C481 1.428 . S
H476 C472 0.930 . S
H477 C474 0.929 . S
S478 N479 1.613 . S
S478 N480 1.610 . S
N479 S478 1.613 . S
N479 C482 1.350 . S
N480 S478 1.610 . S
N480 C481 1.351 . S
C481 C475 1.428 . S
C481 N480 1.351 . S
C481 C482 1.434 . S
C482 C473 1.429 . S
C482 N479 1.350 . S
C482 C481 1.434 . S
C483 C484 1.369 . S
C483 C485 1.419 . S
C483 H487 0.930 . S
C484 C483 1.369 . S
C484 C493 1.429 . S
C485 C483 1.419 . S
C485 C486 1.363 . S
C485 H488 0.929 . S
C486 C485 1.363 . S
C486 C492 1.428 . S
H487 C483 0.930 . S
H488 C485 0.929 . S
S489 N490 1.613 . S
S489 N491 1.610 . S
N490 S489 1.613 . S
N490 C493 1.350 . S
N491 S489 1.610 . S
N491 C492 1.351 . S
C492 C486 1.428 . S
C492 N491 1.351 . S
C492 C493 1.434 . S
C493 C484 1.429 . S
C493 N490 1.350 . S
C493 C492 1.434 . S
C494 C495 1.369 . S
C494 C496 1.419 . S
C494 H498 0.930 . S
C495 C494 1.369 . S
C495 C504 1.429 . S
C496 C494 1.419 . S
C496 C497 1.363 . S
C496 H499 0.929 . S
C497 C496 1.363 . S
C497 C503 1.428 . S
H498 C494 0.930 . S
H499 C496 0.929 . S
S500 N501 1.613 . S
S500 N502 1.610 . S
N501 S500 1.613 . S
N501 C504 1.350 1_455 S
N502 S500 1.610 . S
N502 C503 1.351 1_455 S
C503 C497 1.428 . S
C503 N502 1.351 1_655 S
C503 C504 1.434 . S
C504 C495 1.429 . S
C504 N501 1.350 1_655 S
C504 C503 1.434 . S
C505 C506 1.369 . S
C505 C507 1.419 . S
C505 H509 0.930 . S
C506 C505 1.369 . S
C506 C515 1.429 . S
C507 C505 1.419 . S
C507 C508 1.363 . S
C507 H510 0.929 . S
C508 C507 1.363 . S
C508 C514 1.428 . S
H509 C505 0.930 . S
H510 C507 0.929 . S
S511 N512 1.613 . S
S511 N513 1.610 . S
N512 S511 1.613 . S
N512 C515 1.350 1_545 S
N513 S511 1.610 . S
N513 C514 1.351 1_545 S
C514 C508 1.428 . S
C514 N513 1.351 1_565 S
C514 C515 1.434 . S
C515 C506 1.429 . S
C515 N512 1.350 1_565 S
C515 C514 1.434 . S
C516 C517 1.369 . S
C516 C518 1.419 . S
C516 H520 0.930 . S
C517 C516 1.369 . S
C517 C526 1.429 . S
C518 C516 1.419 . S
C518 C519 1.363 . S
C518 H521 0.929 . S
C519 C518 1.363 . S
C519 C525 1.428 . S
H520 C516 0.930 . S
H521 C518 0.929 . S
S522 N523 1.613 . S
S522 N524 1.610 . S
N523 S522 1.613 . S
N523 C526 1.350 . S
N524 S522 1.610 . S
N524 C525 1.351 . S
C525 C519 1.428 . S
C525 N524 1.351 . S
C525 C526 1.434 . S
C526 C517 1.429 . S
C526 N523 1.350 . S
C526 C525 1.434 . S
C527 C528 1.369 . S
C527 C529 1.419 . S
C527 H531 0.930 . S
C528 C527 1.369 . S
C528 C537 1.429 . S
C529 C527 1.419 . S
C529 C530 1.363 . S
C529 H532 0.929 . S
C530 C529 1.363 . S
C530 C536 1.428 . S
H531 C527 0.930 . S
H532 C529 0.929 . S
S533 N534 1.613 . S
S533 N535 1.610 . S
N534 S533 1.613 . S
N534 C537 1.350 . S
N535 S533 1.610 . S
N535 C536 1.351 . S
C536 C530 1.428 . S
C536 N535 1.351 . S
C536 C537 1.434 . S
C537 C528 1.429 . S
C537 N534 1.350 . S
C537 C536 1.434 . S
C538 C539 1.369 . S
C538 C540 1.419 . S
C538 H542 0.930 . S
C539 C538 1.369 . S
C539 C548 1.429 . S
C540 C538 1.419 . S
C540 C541 1.363 . S
C540 H543 0.929 . S
C541 C540 1.363 . S
C541 C547 1.428 . S
H542 C538 0.930 . S
H543 C540 0.929 . S
S544 N545 1.617 . S
S544 N546 1.614 . S
N545 S544 1.617 . S
N545 C548 1.350 . S
N546 S544 1.614 . S
N546 C547 1.351 . S
C547 C541 1.428 . S
C547 N546 1.351 . S
C547 C548 1.434 . S
C548 C539 1.429 . S
C548 N545 1.350 . S
C548 C547 1.434 . S
C549 C550 1.369 . S
C549 C551 1.419 . S
C549 H553 0.930 . S
C550 C549 1.369 . S
C550 C559 1.429 . S
C551 C549 1.419 . S
C551 C552 1.363 . S
C551 H554 0.929 . S
C552 C551 1.363 . S
C552 C558 1.428 . S
H553 C549 0.930 . S
H554 C551 0.929 . S
S555 N556 1.613 . S
S555 N557 1.610 . S
N556 S555 1.613 . S
N556 C559 1.350 . S
N557 S555 1.610 . S
N557 C558 1.351 . S
C558 C552 1.428 . S
C558 N557 1.351 . S
C558 C559 1.434 . S
C559 C550 1.429 . S
C559 N556 1.350 . S
C559 C558 1.434 . S
C209 C5 0.897 1_556 S
C211 C125 0.928 . S
C220 C138 0.922 . S
C222 C18 0.876 1_556 S
C231 C151 0.926 . S
C233 C31 0.884 1_556 S
C242 C112 0.924 . S
C244 C44 0.876 1_556 S
C253 C57 0.880 . S
C255 C203 0.921 . S
C264 C164 0.922 . S
C266 C70 0.880 . S
C275 C177 0.925 . S
C277 C83 0.883 . S
C286 C190 0.923 . S
C288 C96 0.881 . S
C297 C109 0.896 1_554 S
C299 C21 0.928 . S
C308 C122 0.862 1_554 S
C310 C34 0.922 . S
C319 C135 0.871 1_554 S
C321 C47 0.920 . S
C330 C8 0.927 . S
C332 C148 0.892 1_554 S
C341 C161 0.896 . S
C343 C99 0.929 . S
C352 C174 0.881 . S
C354 C60 0.921 . S
C363 C73 0.930 . S
C365 C187 0.895 . S
C374 C200 0.890 . S
C376 C86 0.925 . S
C385 C104 1.675 . S
C387 C0 1.667 . S
C396 C13 1.669 . S
C398 C117 1.672 . S
C407 C130 1.675 1_655 S
C409 C26 1.667 1_455 S
C418 C39 1.671 1_545 S
C420 C143 1.669 1_565 S
C429 C156 1.672 . S
C431 C52 1.669 . S
C440 C65 1.675 . S
C442 C169 1.667 . S
C451 C182 1.673 1_655 S
C453 C78 1.669 1_455 S
C462 C195 1.666 1_565 S
C464 C91 1.673 1_545 S
C473 C62 1.692 . S
C475 C10 1.685 . S
C484 C75 1.686 . S
C486 C23 1.691 . S
C495 C36 1.686 . S
C497 C88 1.691 . S
C506 C101 1.686 . S
C508 C49 1.691 . S
C517 C114 1.686 . S
C519 C166 1.691 . S
C528 C179 1.687 . S
C530 C127 1.684 . S
C539 C192 1.692 . S
C541 C140 1.685 . S
C550 C205 1.686 . S
C552 C153 1.685 . S
