# Generated by pormake.
# Topology uks, (4)-cn, num edge types: 1
# Building blocks:
#     Node 0, Type 0, BuildingBlock: ESEHIV_clean_sbu_0, # of connection points: 4
#     Node 1, Type 0, BuildingBlock: ESEHIV_clean_sbu_0, # of connection points: 4
#     Node 2, Type 0, BuildingBlock: ESEHIV_clean_sbu_0, # of connection points: 4
#     Node 3, Type 0, BuildingBlock: ESEHIV_clean_sbu_0, # of connection points: 4
#     Node 4, Type 0, BuildingBlock: ESEHIV_clean_sbu_0, # of connection points: 4
#     Node 5, Type 0, BuildingBlock: ESEHIV_clean_sbu_0, # of connection points: 4
#     Node 6, Type 0, BuildingBlock: ESEHIV_clean_sbu_0, # of connection points: 4
#     Node 7, Type 0, BuildingBlock: ESEHIV_clean_sbu_0, # of connection points: 4
#     Node 8, Type 0, BuildingBlock: ESEHIV_clean_sbu_0, # of connection points: 4
#     Node 9, Type 0, BuildingBlock: ESEHIV_clean_sbu_0, # of connection points: 4
#     Node 10, Type 0, BuildingBlock: ESEHIV_clean_sbu_0, # of connection points: 4
#     Node 11, Type 0, BuildingBlock: ESEHIV_clean_sbu_0, # of connection points: 4
#     Node 12, Type 0, BuildingBlock: ESEHIV_clean_sbu_0, # of connection points: 4
#     Node 13, Type 0, BuildingBlock: ESEHIV_clean_sbu_0, # of connection points: 4
#     Node 14, Type 0, BuildingBlock: ESEHIV_clean_sbu_0, # of connection points: 4
#     Node 15, Type 0, BuildingBlock: ESEHIV_clean_sbu_0, # of connection points: 4
#     Node 16, Type 0, BuildingBlock: ESEHIV_clean_sbu_0, # of connection points: 4
#     Node 17, Type 0, BuildingBlock: ESEHIV_clean_sbu_0, # of connection points: 4
#     Node 18, Type 0, BuildingBlock: ESEHIV_clean_sbu_0, # of connection points: 4
#     Node 19, Type 0, BuildingBlock: ESEHIV_clean_sbu_0, # of connection points: 4
#     Node 20, Type 0, BuildingBlock: ESEHIV_clean_sbu_0, # of connection points: 4
#     Node 21, Type 0, BuildingBlock: ESEHIV_clean_sbu_0, # of connection points: 4
#     Node 22, Type 0, BuildingBlock: ESEHIV_clean_sbu_0, # of connection points: 4
#     Node 23, Type 0, BuildingBlock: ESEHIV_clean_sbu_0, # of connection points: 4
#     Edge 24, Type (0, 0), BuildingBlock: KIFKEQ_clean_linker_1, # of connection points: 2
#     Edge 25, Type (0, 0), BuildingBlock: KIFKEQ_clean_linker_1, # of connection points: 2
#     Edge 26, Type (0, 0), BuildingBlock: KIFKEQ_clean_linker_1, # of connection points: 2
#     Edge 27, Type (0, 0), BuildingBlock: KIFKEQ_clean_linker_1, # of connection points: 2
#     Edge 28, Type (0, 0), BuildingBlock: KIFKEQ_clean_linker_1, # of connection points: 2
#     Edge 29, Type (0, 0), BuildingBlock: KIFKEQ_clean_linker_1, # of connection points: 2
#     Edge 30, Type (0, 0), BuildingBlock: KIFKEQ_clean_linker_1, # of connection points: 2
#     Edge 31, Type (0, 0), BuildingBlock: KIFKEQ_clean_linker_1, # of connection points: 2
#     Edge 32, Type (0, 0), BuildingBlock: KIFKEQ_clean_linker_1, # of connection points: 2
#     Edge 33, Type (0, 0), BuildingBlock: KIFKEQ_clean_linker_1, # of connection points: 2
#     Edge 34, Type (0, 0), BuildingBlock: KIFKEQ_clean_linker_1, # of connection points: 2
#     Edge 35, Type (0, 0), BuildingBlock: KIFKEQ_clean_linker_1, # of connection points: 2
#     Edge 36, Type (0, 0), BuildingBlock: KIFKEQ_clean_linker_1, # of connection points: 2
#     Edge 37, Type (0, 0), BuildingBlock: KIFKEQ_clean_linker_1, # of connection points: 2
#     Edge 38, Type (0, 0), BuildingBlock: KIFKEQ_clean_linker_1, # of connection points: 2
#     Edge 39, Type (0, 0), BuildingBlock: KIFKEQ_clean_linker_1, # of connection points: 2
#     Edge 40, Type (0, 0), BuildingBlock: KIFKEQ_clean_linker_1, # of connection points: 2
#     Edge 41, Type (0, 0), BuildingBlock: KIFKEQ_clean_linker_1, # of connection points: 2
#     Edge 42, Type (0, 0), BuildingBlock: KIFKEQ_clean_linker_1, # of connection points: 2
#     Edge 43, Type (0, 0), BuildingBlock: KIFKEQ_clean_linker_1, # of connection points: 2
#     Edge 44, Type (0, 0), BuildingBlock: KIFKEQ_clean_linker_1, # of connection points: 2
#     Edge 45, Type (0, 0), BuildingBlock: KIFKEQ_clean_linker_1, # of connection points: 2
#     Edge 46, Type (0, 0), BuildingBlock: KIFKEQ_clean_linker_1, # of connection points: 2
#     Edge 47, Type (0, 0), BuildingBlock: KIFKEQ_clean_linker_1, # of connection points: 2
#     Edge 48, Type (0, 0), BuildingBlock: KIFKEQ_clean_linker_1, # of connection points: 2
#     Edge 49, Type (0, 0), BuildingBlock: KIFKEQ_clean_linker_1, # of connection points: 2
#     Edge 50, Type (0, 0), BuildingBlock: KIFKEQ_clean_linker_1, # of connection points: 2
#     Edge 51, Type (0, 0), BuildingBlock: KIFKEQ_clean_linker_1, # of connection points: 2
#     Edge 52, Type (0, 0), BuildingBlock: KIFKEQ_clean_linker_1, # of connection points: 2
#     Edge 53, Type (0, 0), BuildingBlock: KIFKEQ_clean_linker_1, # of connection points: 2
#     Edge 54, Type (0, 0), BuildingBlock: KIFKEQ_clean_linker_1, # of connection points: 2
#     Edge 55, Type (0, 0), BuildingBlock: KIFKEQ_clean_linker_1, # of connection points: 2
#     Edge 56, Type (0, 0), BuildingBlock: KIFKEQ_clean_linker_1, # of connection points: 2
#     Edge 57, Type (0, 0), BuildingBlock: KIFKEQ_clean_linker_1, # of connection points: 2
#     Edge 58, Type (0, 0), BuildingBlock: KIFKEQ_clean_linker_1, # of connection points: 2
#     Edge 59, Type (0, 0), BuildingBlock: KIFKEQ_clean_linker_1, # of connection points: 2
#     Edge 60, Type (0, 0), BuildingBlock: KIFKEQ_clean_linker_1, # of connection points: 2
#     Edge 61, Type (0, 0), BuildingBlock: KIFKEQ_clean_linker_1, # of connection points: 2
#     Edge 62, Type (0, 0), BuildingBlock: KIFKEQ_clean_linker_1, # of connection points: 2
#     Edge 63, Type (0, 0), BuildingBlock: KIFKEQ_clean_linker_1, # of connection points: 2
#     Edge 64, Type (0, 0), BuildingBlock: KIFKEQ_clean_linker_1, # of connection points: 2
#     Edge 65, Type (0, 0), BuildingBlock: KIFKEQ_clean_linker_1, # of connection points: 2
#     Edge 66, Type (0, 0), BuildingBlock: KIFKEQ_clean_linker_1, # of connection points: 2
#     Edge 67, Type (0, 0), BuildingBlock: KIFKEQ_clean_linker_1, # of connection points: 2
#     Edge 68, Type (0, 0), BuildingBlock: KIFKEQ_clean_linker_1, # of connection points: 2
#     Edge 69, Type (0, 0), BuildingBlock: KIFKEQ_clean_linker_1, # of connection points: 2
#     Edge 70, Type (0, 0), BuildingBlock: KIFKEQ_clean_linker_1, # of connection points: 2
#     Edge 71, Type (0, 0), BuildingBlock: KIFKEQ_clean_linker_1, # of connection points: 2
# Relax obj value: 0.050
# Max RMSD: 0.127
# Mean RMSD: 0.107
data_MOF--net-uks--node1-ESEHIV_clean_sbu_0--edge1-KIFKEQ_clean_linker_1
_symmetry_space_group_name_H-M    P1
_symmetry_Int_Tables_number       1
_symmetry_cell_setting            triclinic
loop_
_symmetry_equiv_pos_as_xyz
'x, y, z'
_cell_length_a     53.041989
_cell_length_b     61.787961
_cell_length_c     62.054729
_cell_angle_alpha  90.157445
_cell_angle_beta   89.952031
_cell_angle_gamma 86.249115
loop_
_atom_site_label
_atom_site_type_symbol
_atom_site_fract_x
_atom_site_fract_y
_atom_site_fract_z
_atom_type_partial_charge
Cu0 Cu 0.11724 0.4086 0.73211 0.0
N1 N 0.11152 0.39243 0.75697 0.0
N2 N 0.11553 0.36506 0.78062 0.0
C3 C 0.12596 0.375 0.76371 0.0
C4 C 0.0938 0.377 0.7848 0.0
C5 C 0.09134 0.39379 0.77015 0.0
O6 O 0.09443 0.39891 0.70947 0.0
C7 C 0.16891 0.41787 0.72313 0.0
O8 O 0.15995 0.43768 0.71878 0.0
H9 H 0.14335 0.36932 0.75581 0.0
H10 H 0.07549 0.40562 0.76865 0.0
N11 N 0.10989 0.4382 0.73814 0.0
N12 N 0.10535 0.4744 0.73489 0.0
C13 C 0.10745 0.45513 0.72436 0.0
C14 C 0.10884 0.44707 0.75795 0.0
C15 C 0.10602 0.46928 0.75603 0.0
C16 C 0.08765 0.37945 0.70933 0.0
O17 O 0.09862 0.36534 0.72267 0.0
H18 H 0.10873 0.45338 0.70702 0.0
H19 H 0.11093 0.43802 0.77281 0.0
O20 O 0.15355 0.40321 0.7266 0.0
H21 H 0.07999 0.37327 0.79685 0.0
H22 H 0.10507 0.48076 0.76925 0.0
Cu23 Cu 0.64351 0.62955 0.2266 0.0
N24 N 0.62606 0.6479 0.2464 0.0
N25 N 0.61147 0.6802 0.2594 0.0
C26 C 0.62712 0.66956 0.24523 0.0
C27 C 0.60011 0.66447 0.2701 0.0
C28 C 0.60901 0.64451 0.2619 0.0
O29 O 0.6236 0.63465 0.20044 0.0
C30 C 0.68748 0.63949 0.24586 0.0
O31 O 0.67341 0.63455 0.26234 0.0
H32 H 0.63909 0.67733 0.23387 0.0
H33 H 0.60285 0.62882 0.26642 0.0
N34 N 0.64531 0.5998 0.2331 0.0
N35 N 0.65338 0.56398 0.22846 0.0
C36 C 0.65295 0.58381 0.21923 0.0
C37 C 0.64095 0.58983 0.25183 0.0
C38 C 0.64576 0.56776 0.249 0.0
C39 C 0.6025 0.62579 0.20022 0.0
O40 O 0.59796 0.61185 0.21546 0.0
H41 H 0.65789 0.58673 0.20262 0.0
H42 H 0.63507 0.59801 0.2666 0.0
O43 O 0.67827 0.63835 0.2269 0.0
H44 H 0.58577 0.66717 0.2824 0.0
H45 H 0.64422 0.55551 0.26128 0.0
Cu46 Cu 0.39839 0.15075 0.72276 0.0
N47 N 0.40841 0.165 0.74761 0.0
N48 N 0.41102 0.19214 0.77133 0.0
C49 C 0.39821 0.18433 0.75451 0.0
C50 C 0.43006 0.17702 0.77515 0.0
C51 C 0.4284 0.16031 0.76047 0.0
O52 O 0.4212 0.15957 0.70009 0.0
C53 C 0.34548 0.14937 0.71232 0.0
O54 O 0.35158 0.1313 0.70186 0.0
H55 H 0.38243 0.19298 0.74659 0.0
H56 H 0.44133 0.14612 0.75882 0.0
N57 N 0.40013 0.12056 0.7268 0.0
N58 N 0.39503 0.08536 0.72038 0.0
C59 C 0.39749 0.10517 0.71165 0.0
C60 C 0.3998 0.11011 0.74576 0.0
C61 C 0.39675 0.08845 0.74188 0.0
C62 C 0.44191 0.14859 0.69614 0.0
O63 O 0.44638 0.12971 0.70553 0.0
H64 H 0.39626 0.10871 0.69461 0.0
H65 H 0.40028 0.11791 0.76136 0.0
O66 O 0.36292 0.16073 0.7194 0.0
H67 H 0.44441 0.1781 0.78743 0.0
H68 H 0.3944 0.07625 0.75407 0.0
Cu69 Cu 0.89971 0.9057 0.22026 0.0
N70 N 0.91721 0.88923 0.24129 0.0
N71 N 0.93296 0.85832 0.25635 0.0
C72 C 0.92212 0.86774 0.23877 0.0
C73 C 0.93495 0.87472 0.27061 0.0
C74 C 0.9252 0.8938 0.26126 0.0
O75 O 0.91518 0.89405 0.19368 0.0
C76 C 0.85463 0.90628 0.2422 0.0
O77 O 0.86869 0.91659 0.25573 0.0
H78 H 0.9166 0.85907 0.22454 0.0
H79 H 0.92331 0.90963 0.26878 0.0
N80 N 0.90276 0.93584 0.22252 0.0
N81 N 0.89561 0.9715 0.21615 0.0
C82 C 0.88861 0.95125 0.21181 0.0
C83 C 0.91932 0.94667 0.2341 0.0
C84 C 0.91495 0.9686 0.23024 0.0
C85 C 0.93464 0.90249 0.18613 0.0
O86 O 0.94043 0.92149 0.19346 0.0
H87 H 0.8734 0.94755 0.20108 0.0
H88 H 0.9339 0.93915 0.24427 0.0
O89 O 0.86425 0.90002 0.2242 0.0
H90 H 0.94245 0.87306 0.28677 0.0
H91 H 0.92564 0.98133 0.23694 0.0
Cu92 Cu 0.15804 0.15326 0.83818 0.0
N93 N 0.16421 0.18174 0.84619 0.0
N94 N 0.1628 0.21793 0.84303 0.0
C95 C 0.15476 0.19918 0.83517 0.0
C96 C 0.17791 0.212 0.85981 0.0
C97 C 0.17886 0.18965 0.86165 0.0
O98 O 0.12137 0.15339 0.83546 0.0
C99 C 0.20112 0.14973 0.81474 0.0
O100 O 0.20914 0.15222 0.83458 0.0
H101 H 0.14225 0.19799 0.82152 0.0
H102 H 0.18999 0.17991 0.87305 0.0
N103 N 0.16889 0.13217 0.85863 0.0
N104 N 0.18039 0.09982 0.87334 0.0
C105 C 0.1743 0.11078 0.85497 0.0
C106 C 0.17168 0.13484 0.87998 0.0
C107 C 0.1788 0.11505 0.88904 0.0
C108 C 0.10944 0.1602 0.85229 0.0
O109 O 0.12259 0.16506 0.86936 0.0
H110 H 0.17325 0.10339 0.8392 0.0
H111 H 0.16844 0.15007 0.88847 0.0
O112 O 0.17751 0.14831 0.81176 0.0
H113 H 0.1882 0.22293 0.86963 0.0
H114 H 0.18268 0.11221 0.90595 0.0
Cu115 Cu 0.91362 0.64897 0.30938 0.0
N116 N 0.92989 0.66508 0.28877 0.0
N117 N 0.94153 0.69673 0.27569 0.0
C118 C 0.92373 0.68641 0.28646 0.0
C119 C 0.95953 0.681 0.27068 0.0
C120 C 0.95241 0.66152 0.27896 0.0
O121 O 0.92914 0.65812 0.33613 0.0
C122 C 0.86933 0.65434 0.28666 0.0
O123 O 0.8857 0.64919 0.27127 0.0
H124 H 0.90712 0.69433 0.29387 0.0
H125 H 0.96381 0.64636 0.27938 0.0
N126 N 0.91775 0.61871 0.30682 0.0
N127 N 0.91055 0.58414 0.31426 0.0
C128 C 0.90659 0.60515 0.32023 0.0
C129 C 0.92928 0.60595 0.2917 0.0
C130 C 0.92499 0.58459 0.29631 0.0
C131 C 0.95176 0.65039 0.33925 0.0
O132 O 0.96096 0.63482 0.32648 0.0
H133 H 0.89552 0.61076 0.33404 0.0
H134 H 0.93948 0.61175 0.27801 0.0
O135 O 0.87739 0.65592 0.30596 0.0
H136 H 0.97743 0.68361 0.26306 0.0
H137 H 0.93132 0.57059 0.28676 0.0
Cu138 Cu 0.37992 0.40752 0.82107 0.0
N139 N 0.3764 0.37925 0.83107 0.0
N140 N 0.37854 0.34291 0.83073 0.0
C141 C 0.38541 0.36108 0.82084 0.0
C142 C 0.36466 0.34999 0.84792 0.0
C143 C 0.3634 0.37239 0.8481 0.0
O144 O 0.41571 0.4077 0.81321 0.0
C145 C 0.3324 0.40974 0.80393 0.0
O146 O 0.32822 0.40651 0.82451 0.0
H147 H 0.39604 0.36127 0.80596 0.0
H148 H 0.35316 0.38289 0.85952 0.0
N149 N 0.37289 0.4282 0.84293 0.0
N150 N 0.36597 0.46036 0.85957 0.0
C151 C 0.36597 0.44951 0.84056 0.0
C152 C 0.37713 0.42543 0.86412 0.0
C153 C 0.37277 0.4451 0.8744 0.0
C154 C 0.42969 0.4228 0.81876 0.0
O155 O 0.41903 0.44127 0.82574 0.0
H156 H 0.36247 0.45706 0.82504 0.0
H157 H 0.38389 0.41031 0.87149 0.0
O158 O 0.35509 0.41196 0.79787 0.0
H159 H 0.3559 0.33976 0.85948 0.0
H160 H 0.3749 0.44792 0.8915 0.0
Cu161 Cu 0.62909 0.89274 0.30794 0.0
N162 N 0.61368 0.87453 0.28853 0.0
N163 N 0.60282 0.84234 0.27609 0.0
C164 C 0.61859 0.85288 0.28887 0.0
C165 C 0.58742 0.85813 0.26715 0.0
C166 C 0.59401 0.87798 0.27501 0.0
O167 O 0.61367 0.88581 0.33543 0.0
C168 C 0.67331 0.88914 0.28561 0.0
O169 O 0.65651 0.89427 0.27061 0.0
H170 H 0.63309 0.84504 0.29894 0.0
H171 H 0.58432 0.8936 0.27195 0.0
N172 N 0.62365 0.92266 0.30321 0.0
N173 N 0.62726 0.95808 0.30949 0.0
C174 C 0.63149 0.93767 0.31702 0.0
C175 C 0.61411 0.93388 0.2862 0.0
C176 C 0.61618 0.95575 0.29009 0.0
C177 C 0.591 0.89372 0.33789 0.0
O178 O 0.58147 0.90737 0.32338 0.0
H179 H 0.64037 0.93353 0.33228 0.0
H180 H 0.60687 0.92671 0.27175 0.0
O181 O 0.66552 0.8867 0.30487 0.0
H182 H 0.5717 0.85551 0.25655 0.0
H183 H 0.61073 0.96882 0.27912 0.0
Cu184 Cu 0.68097 0.16016 0.38557 0.0
N185 N 0.70853 0.17332 0.3974 0.0
N186 N 0.73042 0.20082 0.40899 0.0
C187 C 0.70802 0.19471 0.40167 0.0
C188 C 0.7457 0.18245 0.40937 0.0
C189 C 0.73209 0.16546 0.40229 0.0
O190 O 0.65231 0.17425 0.40121 0.0
C191 C 0.70188 0.15737 0.34551 0.0
O192 O 0.71908 0.14704 0.35756 0.0
H193 H 0.69167 0.2057 0.39867 0.0
H194 H 0.73905 0.14872 0.40038 0.0
N195 N 0.68301 0.12991 0.38905 0.0
N196 N 0.67771 0.0949 0.38193 0.0
C197 C 0.67229 0.11571 0.37592 0.0
C198 C 0.69575 0.11773 0.40389 0.0
C199 C 0.69246 0.09616 0.39959 0.0
C200 C 0.64388 0.16557 0.41816 0.0
O201 O 0.65054 0.14514 0.42214 0.0
H202 H 0.6607 0.12066 0.36224 0.0
H203 H 0.70676 0.12407 0.41684 0.0
O204 O 0.68177 0.16538 0.35457 0.0
H205 H 0.76532 0.18137 0.41425 0.0
H206 H 0.70075 0.08248 0.40855 0.0
Cu207 Cu 0.87119 0.20004 0.87324 0.0
N208 N 0.8619 0.19306 0.84519 0.0
N209 N 0.86336 0.19259 0.80914 0.0
C210 C 0.87402 0.19943 0.82749 0.0
C211 C 0.84354 0.18156 0.81567 0.0
C212 C 0.84268 0.1819 0.83794 0.0
O213 O 0.90799 0.19969 0.87295 0.0
C214 C 0.83108 0.22878 0.88543 0.0
O215 O 0.82017 0.21043 0.8875 0.0
H216 H 0.89007 0.20934 0.82817 0.0
H217 H 0.82894 0.17468 0.84808 0.0
N218 N 0.86148 0.17951 0.89336 0.0
N219 N 0.85054 0.1646 0.92464 0.0
C220 C 0.85787 0.18264 0.91471 0.0
C221 C 0.85647 0.15878 0.88966 0.0
C222 C 0.84971 0.14956 0.90885 0.0
C223 C 0.9194 0.18234 0.86573 0.0
O224 O 0.90587 0.16615 0.86017 0.0
H225 H 0.86058 0.19788 0.92272 0.0
H226 H 0.85749 0.15093 0.87406 0.0
O227 O 0.85419 0.22834 0.87968 0.0
H228 H 0.8306 0.17373 0.80519 0.0
H229 H 0.84409 0.13317 0.91086 0.0
Cu230 Cu 0.82573 0.39268 0.39366 0.0
N231 N 0.79791 0.38205 0.4076 0.0
N232 N 0.77402 0.35555 0.41832 0.0
C233 C 0.79726 0.36088 0.41238 0.0
C234 C 0.75938 0.37425 0.41737 0.0
C235 C 0.77421 0.39063 0.41078 0.0
O236 O 0.85448 0.37832 0.40872 0.0
C237 C 0.80215 0.39548 0.35492 0.0
O238 O 0.78985 0.4106 0.36644 0.0
H239 H 0.81316 0.34927 0.40979 0.0
H240 H 0.76777 0.4072 0.40721 0.0
N241 N 0.82719 0.42299 0.39536 0.0
N242 N 0.83771 0.45661 0.38727 0.0
C243 C 0.84132 0.43519 0.38272 0.0
C244 C 0.81412 0.43713 0.40834 0.0
C245 C 0.82058 0.45781 0.40344 0.0
C246 C 0.85666 0.38459 0.4282 0.0
O247 O 0.8419 0.40114 0.43492 0.0
H248 H 0.85399 0.42839 0.37043 0.0
H249 H 0.80067 0.43272 0.42041 0.0
O250 O 0.82104 0.38492 0.36348 0.0
H251 H 0.73922 0.37581 0.4203 0.0
H252 H 0.81278 0.47261 0.41094 0.0
Cu253 Cu 0.634 0.33352 0.88278 0.0
N254 N 0.62499 0.31147 0.86427 0.0
N255 N 0.6173 0.29614 0.83244 0.0
C256 C 0.61613 0.31466 0.84409 0.0
C257 C 0.62714 0.28066 0.84588 0.0
C258 C 0.63199 0.29018 0.86545 0.0
O259 O 0.61397 0.35919 0.87262 0.0
C260 C 0.68682 0.33816 0.89272 0.0
O261 O 0.67916 0.34722 0.91091 0.0
H262 H 0.61115 0.33056 0.83749 0.0
H263 H 0.64175 0.28245 0.87896 0.0
N264 N 0.62682 0.32678 0.91173 0.0
N265 N 0.62515 0.32825 0.94788 0.0
C266 C 0.63032 0.33889 0.92953 0.0
C267 C 0.61858 0.30805 0.91912 0.0
C268 C 0.61756 0.30887 0.94131 0.0
C269 C 0.59277 0.3649 0.8813 0.0
O270 O 0.58635 0.35563 0.89932 0.0
H271 H 0.63664 0.35517 0.92902 0.0
H272 H 0.61409 0.29448 0.90914 0.0
O273 O 0.67058 0.33372 0.87853 0.0
H274 H 0.63179 0.2639 0.84153 0.0
H275 H 0.61255 0.29585 0.95177 0.0
Cu276 Cu 0.70987 0.37557 0.15154 0.0
N277 N 0.70641 0.36559 0.17962 0.0
N278 N 0.71785 0.36234 0.21423 0.0
C279 C 0.71841 0.37444 0.19619 0.0
C280 C 0.70484 0.34506 0.20871 0.0
C281 C 0.69791 0.34706 0.18727 0.0
O282 O 0.7097 0.40725 0.15471 0.0
C283 C 0.73896 0.34043 0.13492 0.0
O284 O 0.71627 0.33365 0.1321 0.0
H285 H 0.72895 0.38874 0.19447 0.0
H286 H 0.68868 0.33526 0.17768 0.0
N287 N 0.68307 0.36893 0.13329 0.0
N288 N 0.66186 0.36237 0.10295 0.0
C289 C 0.68324 0.36954 0.11155 0.0
C290 C 0.66076 0.36129 0.13869 0.0
C291 C 0.64765 0.35727 0.12006 0.0
C292 C 0.68876 0.41575 0.16198 0.0
O293 O 0.67021 0.40299 0.16504 0.0
H294 H 0.69902 0.37477 0.1023 0.0
H295 H 0.6547 0.35837 0.15501 0.0
O296 O 0.74115 0.35966 0.14199 0.0
H297 H 0.70125 0.33161 0.21916 0.0
H298 H 0.62943 0.35039 0.11925 0.0
Cu299 Cu 0.62036 0.24838 0.62021 0.0
N300 N 0.60768 0.27013 0.63917 0.0
N301 N 0.6007 0.28524 0.6716 0.0
C302 C 0.61606 0.27189 0.65951 0.0
C303 C 0.58216 0.29276 0.65817 0.0
C304 C 0.58644 0.28328 0.63813 0.0
O305 O 0.60234 0.22267 0.62735 0.0
C306 C 0.66787 0.26403 0.62312 0.0
O307 O 0.65374 0.28212 0.62064 0.0
H308 H 0.6323 0.26238 0.66574 0.0
H309 H 0.57402 0.28464 0.62432 0.0
N310 N 0.61354 0.25451 0.59121 0.0
N311 N 0.61142 0.2483 0.55563 0.0
C312 C 0.61483 0.23947 0.57544 0.0
C313 C 0.60904 0.27364 0.58121 0.0
C314 C 0.60765 0.26986 0.55927 0.0
C315 C 0.59911 0.21668 0.64673 0.0
O316 O 0.61259 0.22492 0.66206 0.0
H317 H 0.61861 0.22237 0.5786 0.0
H318 H 0.60765 0.28924 0.58921 0.0
O319 O 0.65718 0.24609 0.6235 0.0
H320 H 0.56572 0.30296 0.66293 0.0
H321 H 0.60498 0.28219 0.54699 0.0
Cu322 Cu 0.8008 0.15307 0.14319 0.0
N323 N 0.77075 0.15637 0.15906 0.0
N324 N 0.74459 0.15858 0.18741 0.0
C325 C 0.76765 0.15148 0.18 0.0
C326 C 0.7327 0.16822 0.1704 0.0
C327 C 0.74888 0.16682 0.15294 0.0
O328 O 0.82213 0.12904 0.15554 0.0
C329 C 0.81311 0.19465 0.15844 0.0
O330 O 0.80551 0.1877 0.1772 0.0
H331 H 0.78257 0.14397 0.18988 0.0
H332 H 0.74533 0.17366 0.13712 0.0
N333 N 0.79359 0.14646 0.11447 0.0
N334 N 0.79632 0.14496 0.07845 0.0
C335 C 0.80689 0.15171 0.09692 0.0
C336 C 0.77386 0.13615 0.1069 0.0
C337 C 0.77552 0.13514 0.08474 0.0
C338 C 0.81218 0.1108 0.15656 0.0
O339 O 0.78897 0.10965 0.14947 0.0
H340 H 0.82407 0.16021 0.09775 0.0
H341 H 0.75914 0.13001 0.1168 0.0
O342 O 0.81514 0.18138 0.14269 0.0
H343 H 0.71387 0.1761 0.17064 0.0
H344 H 0.76211 0.1281 0.07409 0.0
Cu345 Cu 0.90549 0.29175 0.61989 0.0
N346 N 0.9156 0.26729 0.63613 0.0
N347 N 0.91481 0.24373 0.66342 0.0
C348 C 0.90429 0.26213 0.65466 0.0
C349 C 0.93383 0.23719 0.64991 0.0
C350 C 0.93427 0.25179 0.63306 0.0
O351 O 0.92425 0.31544 0.63178 0.0
C352 C 0.85718 0.27779 0.61935 0.0
O353 O 0.87054 0.26021 0.61318 0.0
H354 H 0.88875 0.27198 0.66165 0.0
H355 H 0.94725 0.25115 0.61959 0.0
N356 N 0.91218 0.28786 0.59038 0.0
N357 N 0.91318 0.29532 0.55511 0.0
C358 C 0.91052 0.30352 0.57526 0.0
C359 C 0.91601 0.2691 0.57943 0.0
C360 C 0.9166 0.27364 0.55767 0.0
C361 C 0.94636 0.31853 0.6247 0.0
O362 O 0.95511 0.30707 0.60814 0.0
H363 H 0.90618 0.3205 0.57893 0.0
H364 H 0.91723 0.25317 0.58667 0.0
O365 O 0.86861 0.29501 0.62305 0.0
H366 H 0.94638 0.22281 0.65189 0.0
H367 H 0.91883 0.26189 0.54472 0.0
Cu368 Cu 0.39482 0.72052 0.14851 0.0
N369 N 0.40482 0.74209 0.16734 0.0
N370 N 0.4159 0.75623 0.19899 0.0
C371 C 0.41327 0.73793 0.18748 0.0
C372 C 0.40915 0.7726 0.18531 0.0
C373 C 0.40234 0.76382 0.16579 0.0
O374 O 0.42057 0.69658 0.15147 0.0
C375 C 0.34636 0.72421 0.16905 0.0
O376 O 0.35759 0.73478 0.18427 0.0
H377 H 0.4157 0.72168 0.19396 0.0
H378 H 0.39504 0.77262 0.15185 0.0
N379 N 0.39309 0.72891 0.11956 0.0
N380 N 0.38011 0.72766 0.08528 0.0
C381 C 0.37834 0.71931 0.10524 0.0
C382 C 0.40461 0.74406 0.10833 0.0
C383 C 0.39675 0.7432 0.08707 0.0
C384 C 0.44242 0.70049 0.14438 0.0
O385 O 0.44517 0.71911 0.13479 0.0
H386 H 0.36681 0.70611 0.1094 0.0
H387 H 0.41782 0.75485 0.11505 0.0
O388 O 0.35979 0.71422 0.15464 0.0
H389 H 0.40847 0.7897 0.18925 0.0
H390 H 0.40261 0.75336 0.07405 0.0
Cu391 Cu 0.41398 0.79383 0.41399 0.0
N392 N 0.42623 0.77328 0.39358 0.0
N393 N 0.43378 0.7605 0.36018 0.0
C394 C 0.42669 0.77796 0.37241 0.0
C395 C 0.43804 0.74409 0.37434 0.0
C396 C 0.43341 0.75202 0.39495 0.0
O397 O 0.43366 0.81884 0.40859 0.0
C398 C 0.36621 0.78047 0.40858 0.0
O399 O 0.37933 0.76199 0.41179 0.0
H400 H 0.4207 0.79377 0.36608 0.0
H401 H 0.43424 0.74272 0.40968 0.0
N402 N 0.41773 0.78609 0.44314 0.0
N403 N 0.4131 0.7894 0.47899 0.0
C404 C 0.40699 0.79785 0.45946 0.0
C405 C 0.43118 0.76953 0.45261 0.0
C406 C 0.4283 0.77149 0.4747 0.0
C407 C 0.45687 0.81632 0.41401 0.0
O408 O 0.46466 0.79845 0.42409 0.0
H409 H 0.3948 0.81235 0.45691 0.0
H410 H 0.4427 0.75716 0.44418 0.0
O411 O 0.37769 0.79799 0.40887 0.0
H412 H 0.44367 0.72746 0.37014 0.0
H413 H 0.43724 0.76081 0.48663 0.0
Cu414 Cu 0.27359 0.90542 0.8957 0.0
N415 N 0.30103 0.90985 0.87757 0.0
N416 N 0.32242 0.90855 0.8464 0.0
C417 C 0.30137 0.90331 0.85687 0.0
C418 C 0.336 0.91884 0.86121 0.0
C419 C 0.32266 0.91975 0.88043 0.0
O420 O 0.24855 0.92961 0.89012 0.0
C421 C 0.28305 0.86202 0.89225 0.0
O422 O 0.30419 0.86897 0.89985 0.0
H423 H 0.28633 0.89474 0.84967 0.0
H424 H 0.32815 0.92743 0.89521 0.0
N425 N 0.28071 0.90496 0.9254 0.0
N426 N 0.27356 0.90018 0.9607 0.0
C427 C 0.2636 0.90068 0.94063 0.0
C428 C 0.30242 0.90719 0.93613 0.0
C429 C 0.29807 0.90431 0.95787 0.0
C430 C 0.2544 0.94775 0.89796 0.0
O431 O 0.2754 0.94823 0.90911 0.0
H432 H 0.24431 0.89745 0.93682 0.0
H433 H 0.32025 0.91034 0.92873 0.0
O434 O 0.26463 0.87598 0.88877 0.0
H435 H 0.35392 0.92571 0.85824 0.0
H436 H 0.31194 0.90528 0.97054 0.0
Cu437 Cu 0.12889 0.75847 0.41028 0.0
N438 N 0.11748 0.78204 0.39313 0.0
N439 N 0.11428 0.80241 0.36333 0.0
C440 C 0.12614 0.78508 0.37304 0.0
C441 C 0.09739 0.81065 0.37798 0.0
C442 C 0.09927 0.79794 0.3963 0.0
O443 O 0.10835 0.73465 0.40204 0.0
C444 C 0.1769 0.77156 0.40738 0.0
O445 O 0.16399 0.78954 0.4131 0.0
H446 H 0.14094 0.77463 0.36571 0.0
H447 H 0.0877 0.79987 0.41061 0.0
N448 N 0.12541 0.763 0.44003 0.0
N449 N 0.12749 0.75542 0.47527 0.0
C450 C 0.13216 0.74802 0.45507 0.0
C451 C 0.1164 0.78062 0.45109 0.0
C452 C 0.11747 0.77593 0.47283 0.0
C453 C 0.08525 0.7368 0.40794 0.0
O454 O 0.07784 0.75374 0.41972 0.0
H455 H 0.13988 0.73182 0.45121 0.0
H456 H 0.10958 0.79581 0.44393 0.0
O457 O 0.16516 0.75432 0.40499 0.0
H458 H 0.08407 0.82443 0.37541 0.0
H459 H 0.11154 0.78681 0.48584 0.0
Cu460 Cu 0.28958 0.65644 0.89178 0.0
N461 N 0.26102 0.64938 0.87632 0.0
N462 N 0.23701 0.64612 0.84702 0.0
C463 C 0.25759 0.65466 0.85545 0.0
C464 C 0.22703 0.635 0.86331 0.0
C465 C 0.24205 0.63685 0.88132 0.0
O466 O 0.31484 0.6327 0.8853 0.0
C467 C 0.27736 0.6993 0.88636 0.0
O468 O 0.25684 0.69188 0.89467 0.0
H469 H 0.27018 0.6645 0.8466 0.0
H470 H 0.23973 0.62895 0.89663 0.0
N471 N 0.2851 0.65876 0.92178 0.0
N472 N 0.2934 0.66848 0.95573 0.0
C473 C 0.30104 0.66858 0.93496 0.0
C474 C 0.26655 0.65236 0.93464 0.0
C475 C 0.27172 0.65819 0.95559 0.0
C476 C 0.31129 0.61493 0.89499 0.0
O477 O 0.293 0.61472 0.90924 0.0
H478 H 0.31804 0.67557 0.92936 0.0
H479 H 0.25032 0.64416 0.92926 0.0
O480 O 0.29624 0.68583 0.88274 0.0
H481 H 0.21055 0.62562 0.86211 0.0
H482 H 0.26015 0.65545 0.96957 0.0
Cu483 Cu 0.15115 0.84033 0.14806 0.0
N484 N 0.1514 0.85135 0.17626 0.0
N485 N 0.14699 0.85204 0.21222 0.0
C486 C 0.14848 0.83959 0.19425 0.0
C487 C 0.14952 0.87247 0.20522 0.0
C488 C 0.15222 0.87199 0.18309 0.0
O489 O 0.11564 0.83775 0.14085 0.0
C490 C 0.18057 0.80105 0.13384 0.0
O491 O 0.17361 0.80543 0.11394 0.0
H492 H 0.14728 0.82219 0.19406 0.0
H493 H 0.15406 0.88584 0.17278 0.0
N494 N 0.16359 0.86043 0.12858 0.0
N495 N 0.18139 0.87592 0.10008 0.0
C496 C 0.18039 0.85773 0.11219 0.0
C497 C 0.15381 0.88096 0.12675 0.0
C498 C 0.16479 0.89056 0.10948 0.0
C499 C 0.10034 0.82785 0.15251 0.0
O500 O 0.10934 0.81542 0.16821 0.0
H501 H 0.19084 0.84255 0.10866 0.0
H502 H 0.13884 0.88821 0.13677 0.0
O503 O 0.17212 0.81319 0.14917 0.0
H504 H 0.14861 0.88687 0.21522 0.0
H505 H 0.16036 0.907 0.10409 0.0
Cu506 Cu 0.14597 0.6776 0.65988 0.0
N507 N 0.13587 0.70698 0.66348 0.0
N508 N 0.14294 0.74234 0.6642 0.0
C509 C 0.15302 0.72183 0.66629 0.0
C510 C 0.11822 0.74026 0.65992 0.0
C511 C 0.11393 0.7184 0.65941 0.0
O512 O 0.15582 0.67601 0.6295 0.0
C513 C 0.16267 0.67597 0.70056 0.0
O514 O 0.139 0.6836 0.70193 0.0
H515 H 0.173 0.71749 0.66813 0.0
H516 H 0.09649 0.71142 0.655 0.0
N517 N 0.12148 0.65776 0.6659 0.0
N518 N 0.10697 0.62607 0.67615 0.0
C519 C 0.12745 0.63682 0.67083 0.0
C520 C 0.09623 0.66047 0.66821 0.0
C521 C 0.08721 0.6409 0.67439 0.0
C522 C 0.13714 0.67718 0.61649 0.0
O523 O 0.11436 0.67583 0.62446 0.0
H524 H 0.14666 0.62974 0.6708 0.0
H525 H 0.0852 0.67564 0.66608 0.0
O526 O 0.17178 0.67155 0.68188 0.0
H527 H 0.10444 0.75349 0.6565 0.0
H528 H 0.06776 0.63807 0.67807 0.0
Cu529 Cu 0.32691 0.88597 0.64687 0.0
N530 N 0.29347 0.87993 0.64097 0.0
N531 N 0.25729 0.86315 0.64104 0.0
C532 C 0.28021 0.86458 0.6503 0.0
C533 C 0.25611 0.87835 0.6254 0.0
C534 C 0.27841 0.88865 0.62541 0.0
O535 O 0.34893 0.8697 0.62631 0.0
C536 C 0.35244 0.88435 0.68769 0.0
O537 O 0.37109 0.89288 0.67748 0.0
H538 H 0.28772 0.85404 0.66298 0.0
H539 H 0.28352 0.90126 0.6145 0.0
N540 N 0.3309 0.9156 0.64259 0.0
N541 N 0.34027 0.95011 0.64795 0.0
C542 C 0.33638 0.9308 0.65724 0.0
C543 C 0.331 0.92568 0.62343 0.0
C544 C 0.33669 0.94689 0.62664 0.0
C545 C 0.34521 0.85039 0.62038 0.0
O546 O 0.32763 0.84 0.6301 0.0
H547 H 0.33829 0.92754 0.67428 0.0
H548 H 0.32775 0.91796 0.60811 0.0
O549 O 0.33327 0.87901 0.67707 0.0
H550 H 0.24038 0.88166 0.61455 0.0
H551 H 0.33826 0.95889 0.61414 0.0
H552 H 0.15011 0.22873 0.80192 0.0
H553 H 0.16279 0.25627 0.8647 0.0
H554 H 0.13953 0.26474 0.78765 0.0
H555 H 0.15294 0.29261 0.85018 0.0
H556 H 0.10466 0.35082 0.82079 0.0
H557 H 0.11698 0.31546 0.83638 0.0
H558 H 0.159 0.29781 0.77863 0.0
H559 H 0.14601 0.33269 0.7628 0.0
C560 C 0.1506 0.24245 0.81274 0.0
C561 C 0.15717 0.23949 0.83454 0.0
C562 C 0.14483 0.2632 0.80446 0.0
C563 C 0.14544 0.28165 0.81772 0.0
C564 C 0.15208 0.27875 0.83953 0.0
C565 C 0.15797 0.25793 0.84782 0.0
C566 C 0.11647 0.33938 0.81139 0.0
C567 C 0.12419 0.34469 0.79046 0.0
C568 C 0.12376 0.31917 0.82043 0.0
C569 C 0.13889 0.30369 0.80873 0.0
C570 C 0.14706 0.30919 0.788 0.0
C571 C 0.13983 0.32938 0.779 0.0
H572 H 0.70419 0.65888 0.28175 0.0
H573 H 0.72954 0.63376 0.21995 0.0
H574 H 0.74731 0.66565 0.29145 0.0
H575 H 0.7732 0.63952 0.22998 0.0
H576 H 0.84846 0.66417 0.24768 0.0
H577 H 0.80439 0.66365 0.23705 0.0
H578 H 0.78466 0.64694 0.30228 0.0
H579 H 0.82875 0.6485 0.31303 0.0
C580 C 0.71909 0.65482 0.27019 0.0
C581 C 0.71352 0.64569 0.25011 0.0
C582 C 0.74392 0.65853 0.27584 0.0
C583 C 0.76402 0.65284 0.26172 0.0
C584 C 0.7583 0.64435 0.24126 0.0
C585 C 0.73327 0.64098 0.23546 0.0
C586 C 0.83462 0.66067 0.25982 0.0
C587 C 0.84208 0.65636 0.28121 0.0
C588 C 0.80932 0.66016 0.25366 0.0
C589 C 0.79077 0.65501 0.26866 0.0
C590 C 0.79822 0.65128 0.29026 0.0
C591 C 0.82355 0.65212 0.29649 0.0
H592 H 0.35013 0.30861 0.83788 0.0
H593 H 0.4188 0.32675 0.8074 0.0
H594 H 0.35837 0.27145 0.82504 0.0
H595 H 0.42674 0.28973 0.79412 0.0
H596 H 0.44543 0.21651 0.79064 0.0
H597 H 0.43786 0.25256 0.80649 0.0
H598 H 0.35867 0.2517 0.79066 0.0
H599 H 0.36615 0.21547 0.77531 0.0
C600 C 0.36707 0.30466 0.82857 0.0
C601 C 0.38377 0.32074 0.82365 0.0
C602 C 0.37167 0.28339 0.82101 0.0
C603 C 0.39319 0.27758 0.80848 0.0
C604 C 0.4101 0.29356 0.80387 0.0
C605 C 0.40541 0.31487 0.8113 0.0
C606 C 0.42636 0.22387 0.7908 0.0
C607 C 0.40642 0.21306 0.78162 0.0
C608 C 0.42205 0.24466 0.79968 0.0
C609 C 0.39767 0.2551 0.79978 0.0
C610 C 0.37765 0.2441 0.79102 0.0
C611 C 0.38198 0.22339 0.78201 0.0
H612 H 0.71489 0.88479 0.31239 0.0
H613 H 0.69346 0.89133 0.24546 0.0
H614 H 0.75934 0.88636 0.30211 0.0
H615 H 0.73732 0.8935 0.23535 0.0
H616 H 0.82072 0.88224 0.22053 0.0
H617 H 0.77791 0.87486 0.23176 0.0
H618 H 0.78661 0.91309 0.28936 0.0
H619 H 0.82931 0.91994 0.27848 0.0
C620 C 0.71964 0.88639 0.29552 0.0
C621 C 0.70056 0.88806 0.27981 0.0
C622 C 0.7451 0.88746 0.2896 0.0
C623 C 0.752 0.89019 0.26786 0.0
C624 C 0.73289 0.89112 0.25218 0.0
C625 C 0.70759 0.89005 0.25806 0.0
C626 C 0.81347 0.88902 0.23559 0.0
C627 C 0.82845 0.90176 0.24852 0.0
C628 C 0.7889 0.88483 0.24205 0.0
C629 C 0.77872 0.89334 0.26154 0.0
C630 C 0.79387 0.90592 0.27448 0.0
C631 C 0.81836 0.91004 0.26808 0.0
H632 H 0.75714 0.1278 0.21704 0.0
H633 H 0.71187 0.18763 0.20767 0.0
H634 H 0.7447 0.1276 0.25481 0.0
H635 H 0.69966 0.18769 0.24566 0.0
H636 H 0.66833 0.17032 0.3132 0.0
H637 H 0.67657 0.1701 0.27423 0.0
H638 H 0.75421 0.14787 0.28619 0.0
H639 H 0.74594 0.14761 0.3245 0.0
C640 C 0.74458 0.14095 0.22308 0.0
C641 C 0.73572 0.15781 0.20938 0.0
C642 C 0.73745 0.14089 0.24476 0.0
C643 C 0.72144 0.15782 0.25341 0.0
C644 C 0.71186 0.17433 0.23954 0.0
C645 C 0.71889 0.1743 0.21775 0.0
C646 C 0.68713 0.16547 0.30741 0.0
C647 C 0.70639 0.15881 0.32196 0.0
C648 C 0.69188 0.16536 0.28512 0.0
C649 C 0.71598 0.15863 0.27701 0.0
C650 C 0.73526 0.15257 0.29172 0.0
C651 C 0.73052 0.15259 0.3138 0.0
H652 H 0.94358 0.21676 0.68948 0.0
H653 H 0.86862 0.24767 0.6824 0.0
H654 H 0.93113 0.20142 0.72377 0.0
H655 H 0.85663 0.23336 0.717 0.0
H656 H 0.83477 0.1923 0.77275 0.0
H657 H 0.84745 0.20168 0.73641 0.0
H658 H 0.92209 0.21337 0.75973 0.0
H659 H 0.90986 0.20289 0.79572 0.0
C660 C 0.92444 0.22023 0.69514 0.0
C661 C 0.90724 0.23369 0.68321 0.0
C662 C 0.91736 0.21161 0.71494 0.0
C663 C 0.8929 0.21625 0.7233 0.0
C664 C 0.87554 0.22923 0.71106 0.0
C665 C 0.88258 0.23775 0.69128 0.0
C666 C 0.854 0.1965 0.7701 0.0
C667 C 0.87115 0.19703 0.78734 0.0
C668 C 0.86122 0.20214 0.74925 0.0
C669 C 0.88576 0.20849 0.74509 0.0
C670 C 0.9031 0.2084 0.76221 0.0
C671 C 0.89593 0.20269 0.78301 0.0
H672 H 0.76521 0.41823 0.33301 0.0
H673 H 0.81608 0.36088 0.32802 0.0
H674 H 0.74568 0.40926 0.29932 0.0
H675 H 0.79666 0.35209 0.29339 0.0
H676 H 0.73416 0.33294 0.24478 0.0
H677 H 0.75645 0.34037 0.27823 0.0
H678 H 0.75425 0.40835 0.26177 0.0
H679 H 0.73104 0.40118 0.22924 0.0
C680 C 0.77249 0.40376 0.32458 0.0
C681 C 0.7923 0.39029 0.33327 0.0
C682 C 0.76131 0.39868 0.30509 0.0
C683 C 0.76964 0.38001 0.2935 0.0
C684 C 0.78966 0.36652 0.302 0.0
C685 C 0.80095 0.37165 0.32171 0.0
C686 C 0.73818 0.34949 0.24844 0.0
C687 C 0.73068 0.36645 0.23424 0.0
C688 C 0.75131 0.3537 0.26747 0.0
C689 C 0.75714 0.37496 0.27274 0.0
C690 C 0.74982 0.39181 0.25842 0.0
C691 C 0.73668 0.38764 0.23956 0.0
H692 H 0.59056 0.32136 0.69578 0.0
H693 H 0.61158 0.25294 0.69974 0.0
H694 H 0.59372 0.32433 0.7351 0.0
H695 H 0.61367 0.25543 0.73873 0.0
H696 H 0.64398 0.26977 0.80468 0.0
H697 H 0.63912 0.26778 0.76586 0.0
H698 H 0.5766 0.31626 0.76912 0.0
H699 H 0.58233 0.31874 0.80815 0.0
C700 C 0.59561 0.30696 0.70514 0.0
C701 C 0.6013 0.28704 0.69474 0.0
C702 C 0.5973 0.30857 0.72766 0.0
C703 C 0.6043 0.29016 0.74025 0.0
C704 C 0.60903 0.27012 0.7297 0.0
C705 C 0.60775 0.26863 0.70729 0.0
C706 C 0.629 0.2798 0.79715 0.0
C707 C 0.6134 0.29427 0.80951 0.0
C708 C 0.62614 0.27867 0.77481 0.0
C709 C 0.60728 0.29172 0.76417 0.0
C710 C 0.59154 0.30615 0.77661 0.0
C711 C 0.59468 0.30749 0.799 0.0
H712 H 0.31296 0.74689 0.19538 0.0
H713 H 0.31736 0.71274 0.13452 0.0
H714 H 0.27073 0.76138 0.18666 0.0
H715 H 0.27434 0.7266 0.12607 0.0
H716 H 0.2163 0.78294 0.1061 0.0
H717 H 0.25377 0.75989 0.11529 0.0
H718 H 0.22796 0.75712 0.18127 0.0
H719 H 0.1912 0.781 0.1722 0.0
C720 C 0.30465 0.74195 0.18035 0.0
C721 C 0.31876 0.72877 0.1656 0.0
C722 C 0.2802 0.75021 0.17535 0.0
C723 C 0.26895 0.7454 0.15551 0.0
C724 C 0.28247 0.73105 0.14132 0.0
C725 C 0.30709 0.72286 0.14629 0.0
C726 C 0.21844 0.7771 0.12248 0.0
C727 C 0.20092 0.78404 0.13847 0.0
C728 C 0.23994 0.76375 0.12778 0.0
C729 C 0.24427 0.75679 0.14915 0.0
C730 C 0.22575 0.76258 0.16478 0.0
C731 C 0.20451 0.77617 0.15955 0.0
H732 H 0.34055 0.74722 0.39317 0.0
H733 H 0.32948 0.81282 0.41703 0.0
H734 H 0.29515 0.74488 0.39034 0.0
H735 H 0.28378 0.81023 0.41531 0.0
H736 H 0.20267 0.80617 0.39598 0.0
H737 H 0.24809 0.80871 0.39379 0.0
H738 H 0.25921 0.74098 0.41111 0.0
H739 H 0.21347 0.73833 0.41215 0.0
C740 C 0.32833 0.76118 0.39786 0.0
C741 C 0.33857 0.78021 0.40537 0.0
C742 C 0.30221 0.75976 0.39642 0.0
C743 C 0.28554 0.77723 0.40281 0.0
C744 C 0.29589 0.79649 0.40992 0.0
C745 C 0.32212 0.79802 0.411 0.0
C746 C 0.21485 0.79175 0.39911 0.0
C747 C 0.20453 0.77204 0.4043 0.0
C748 C 0.24097 0.79326 0.39805 0.0
C749 C 0.25758 0.77517 0.40254 0.0
C750 C 0.24716 0.75526 0.40725 0.0
C751 C 0.2209 0.75367 0.40793 0.0
H752 H 0.31954 0.83023 0.90029 0.0
H753 H 0.24381 0.84016 0.87501 0.0
H754 H 0.31814 0.79153 0.8954 0.0
H755 H 0.24266 0.80094 0.86944 0.0
H756 H 0.23883 0.72997 0.892 0.0
H757 H 0.23998 0.76901 0.89042 0.0
H758 H 0.31828 0.76207 0.87075 0.0
H759 H 0.31733 0.72257 0.87309 0.0
C760 C 0.30258 0.82419 0.89344 0.0
C761 C 0.28167 0.8384 0.88819 0.0
C762 C 0.30193 0.80185 0.89041 0.0
C763 C 0.28036 0.79294 0.88193 0.0
C764 C 0.25952 0.80717 0.87624 0.0
C765 C 0.26016 0.82967 0.87937 0.0
C766 C 0.25634 0.73666 0.88717 0.0
C767 C 0.27813 0.72305 0.88292 0.0
C768 C 0.25688 0.75919 0.88606 0.0
C769 C 0.27922 0.76886 0.88056 0.0
C770 C 0.30081 0.75523 0.87541 0.0
C771 C 0.30028 0.73256 0.87661 0.0
H772 H 0.13038 0.77997 0.64278 0.0
H773 H 0.18748 0.74876 0.6838 0.0
H774 H 0.15615 0.81099 0.63884 0.0
H775 H 0.21372 0.77915 0.67903 0.0
H776 H 0.2493 0.84354 0.67929 0.0
H777 H 0.21943 0.81613 0.6868 0.0
H778 H 0.19393 0.81959 0.6207 0.0
H779 H 0.22345 0.84718 0.61339 0.0
C780 C 0.14829 0.77977 0.65114 0.0
C781 C 0.1569 0.76169 0.66345 0.0
C782 C 0.16326 0.79748 0.64865 0.0
C783 C 0.18722 0.79757 0.65842 0.0
C784 C 0.19535 0.77983 0.67138 0.0
C785 C 0.18038 0.7622 0.67391 0.0
C786 C 0.23731 0.83844 0.66638 0.0
C787 C 0.23888 0.84756 0.64573 0.0
C788 C 0.22016 0.82269 0.67066 0.0
C789 C 0.20422 0.81551 0.65436 0.0
C790 C 0.20552 0.82493 0.63379 0.0
C791 C 0.22255 0.84076 0.62956 0.0
H792 H 0.93672 0.83657 0.29445 0.0
H793 H 0.94196 0.82743 0.22551 0.0
H794 H 0.94209 0.79749 0.2995 0.0
H795 H 0.94589 0.78838 0.23048 0.0
H796 H 0.96915 0.71809 0.24653 0.0
H797 H 0.9709 0.75729 0.24259 0.0
H798 H 0.91734 0.76733 0.29472 0.0
H799 H 0.91663 0.7286 0.29938 0.0
C800 C 0.93919 0.82631 0.28036 0.0
C801 C 0.93849 0.83529 0.25956 0.0
C802 C 0.94196 0.8038 0.28323 0.0
C803 C 0.94403 0.78963 0.26539 0.0
C804 C 0.94445 0.79868 0.24464 0.0
C805 C 0.94181 0.82117 0.24177 0.0
C806 C 0.95796 0.72866 0.25728 0.0
C807 C 0.94258 0.71996 0.27313 0.0
C808 C 0.95879 0.75119 0.25491 0.0
C809 C 0.94427 0.76561 0.26834 0.0
C810 C 0.9291 0.75686 0.28427 0.0
C811 C 0.92834 0.73444 0.28668 0.0
H812 H 0.19292 0.38088 0.73962 0.0
H813 H 0.20656 0.4461 0.7199 0.0
H814 H 0.23495 0.37709 0.75559 0.0
H815 H 0.24851 0.44234 0.73615 0.0
H816 H 0.3293 0.42363 0.76149 0.0
H817 H 0.29224 0.42342 0.73761 0.0
H818 H 0.25015 0.39448 0.78837 0.0
H819 H 0.28652 0.39469 0.81185 0.0
C820 C 0.20503 0.39426 0.73827 0.0
C821 C 0.19613 0.41391 0.72871 0.0
C822 C 0.22911 0.39213 0.74756 0.0
C823 C 0.24495 0.40955 0.74749 0.0
C824 C 0.23685 0.42859 0.73646 0.0
C825 C 0.2127 0.43076 0.72722 0.0
C826 C 0.31214 0.41712 0.7674 0.0
C827 C 0.31088 0.4093 0.78862 0.0
C828 C 0.29093 0.41703 0.75378 0.0
C829 C 0.26827 0.40874 0.76101 0.0
C830 C 0.26735 0.40061 0.78208 0.0
C831 C 0.28824 0.40096 0.79566 0.0
H832 H 0.5847 0.82014 0.24219 0.0
H833 H 0.61802 0.8115 0.3053 0.0
H834 H 0.58381 0.78082 0.23836 0.0
H835 H 0.61799 0.77239 0.30118 0.0
H836 H 0.59602 0.70277 0.29526 0.0
H837 H 0.59115 0.7422 0.29943 0.0
H838 H 0.61346 0.74985 0.23307 0.0
H839 H 0.61742 0.71069 0.22875 0.0
C840 C 0.59176 0.80991 0.25526 0.0
C841 C 0.60166 0.81909 0.27394 0.0
C842 C 0.59146 0.78733 0.25301 0.0
C843 C 0.60093 0.77336 0.26943 0.0
C844 C 0.61032 0.78259 0.28827 0.0
C845 C 0.61068 0.8051 0.2905 0.0
C846 C 0.59956 0.71288 0.28151 0.0
C847 C 0.60738 0.70348 0.26175 0.0
C848 C 0.59701 0.7355 0.28394 0.0
C849 C 0.60205 0.74928 0.26662 0.0
C850 C 0.6092 0.73983 0.24672 0.0
C851 C 0.61183 0.71728 0.24433 0.0
H852 H 0.3056 0.12342 0.70879 0.0
H853 H 0.32658 0.1841 0.73611 0.0
H854 H 0.26731 0.12541 0.73079 0.0
H855 H 0.28821 0.18614 0.75778 0.0
H856 H 0.24994 0.15969 0.8176 0.0
H857 H 0.28058 0.16249 0.78909 0.0
H858 H 0.22529 0.14523 0.74212 0.0
H859 H 0.19395 0.14242 0.77114 0.0
C860 C 0.30171 0.13752 0.71896 0.0
C861 C 0.31947 0.15338 0.72099 0.0
C862 C 0.27969 0.13865 0.73154 0.0
C863 C 0.27503 0.15568 0.74636 0.0
C864 C 0.29157 0.17257 0.74683 0.0
C865 C 0.31353 0.17144 0.73431 0.0
C866 C 0.24408 0.15649 0.80125 0.0
C867 C 0.21941 0.15079 0.79671 0.0
C868 C 0.26168 0.15835 0.78482 0.0
C869 C 0.25529 0.15443 0.76328 0.0
C870 C 0.23071 0.14845 0.75858 0.0
C871 C 0.21282 0.14682 0.77516 0.0
H872 H 0.31927 0.86482 0.71386 0.0
H873 H 0.38282 0.90506 0.71573 0.0
H874 H 0.31382 0.86929 0.7526 0.0
H875 H 0.37688 0.91012 0.75445 0.0
H876 H 0.36894 0.90267 0.82796 0.0
H877 H 0.37845 0.8946 0.79005 0.0
H878 H 0.29851 0.89766 0.77605 0.0
H879 H 0.28919 0.90539 0.81366 0.0
C880 C 0.33222 0.87449 0.72256 0.0
C881 C 0.35139 0.88467 0.71162 0.0
C882 C 0.32896 0.87723 0.7448 0.0
C883 C 0.34462 0.8904 0.7567 0.0
C884 C 0.36454 0.89978 0.7459 0.0
C885 C 0.36792 0.8969 0.72364 0.0
C886 C 0.35346 0.9017 0.81673 0.0
C887 C 0.3283 0.90447 0.82393 0.0
C888 C 0.35888 0.89706 0.79499 0.0
C889 C 0.33926 0.89519 0.77994 0.0
C890 C 0.31415 0.89835 0.78719 0.0
C891 C 0.30876 0.90286 0.80883 0.0
H892 H 0.13136 0.77821 0.32918 0.0
H893 H 0.10644 0.84346 0.34801 0.0
H894 H 0.13938 0.79065 0.29283 0.0
H895 H 0.11383 0.85589 0.31127 0.0
H896 H 0.1578 0.87272 0.24954 0.0
H897 H 0.14913 0.86115 0.28622 0.0
H898 H 0.11614 0.80418 0.26122 0.0
H899 H 0.12455 0.81576 0.22467 0.0
C900 C 0.12765 0.79525 0.32561 0.0
C901 C 0.11837 0.80985 0.34162 0.0
C902 C 0.13198 0.80235 0.30464 0.0
C903 C 0.12722 0.82427 0.29908 0.0
C904 C 0.11791 0.83892 0.31506 0.0
C905 C 0.11343 0.83177 0.33606 0.0
C906 C 0.14853 0.85782 0.25182 0.0
C907 C 0.14206 0.84515 0.23401 0.0
C908 C 0.14353 0.85119 0.27289 0.0
C909 C 0.13201 0.83169 0.27669 0.0
C910 C 0.12543 0.8191 0.25891 0.0
C911 C 0.13034 0.82574 0.23788 0.0
H912 H 0.18859 0.64551 0.83352 0.0
H913 H 0.26472 0.65195 0.8109 0.0
H914 H 0.17274 0.65171 0.79705 0.0
H915 H 0.24876 0.65863 0.77438 0.0
H916 H 0.20663 0.65018 0.70763 0.0
H917 H 0.22617 0.6414 0.74281 0.0
H918 H 0.17006 0.68451 0.77407 0.0
H919 H 0.15079 0.69313 0.73956 0.0
C920 C 0.20197 0.64804 0.82074 0.0
C921 C 0.22787 0.64847 0.8252 0.0
C922 C 0.19289 0.65177 0.79986 0.0
C923 C 0.2095 0.6559 0.78287 0.0
C924 C 0.23552 0.65548 0.78711 0.0
C925 C 0.2446 0.6519 0.80808 0.0
C926 C 0.19876 0.65793 0.72203 0.0
C927 C 0.177 0.67213 0.72083 0.0
C928 C 0.20987 0.65288 0.74213 0.0
C929 C 0.19928 0.66192 0.76124 0.0
C930 C 0.17825 0.67681 0.75976 0.0
C931 C 0.16729 0.68183 0.73988 0.0
H932 H 0.44154 0.79344 0.33262 0.0
H933 H 0.42715 0.72551 0.33457 0.0
H934 H 0.43943 0.79272 0.29342 0.0
H935 H 0.42495 0.72478 0.29532 0.0
H936 H 0.44245 0.72631 0.22346 0.0
H937 H 0.44896 0.72722 0.26232 0.0
H938 H 0.40826 0.79001 0.26543 0.0
H939 H 0.40178 0.7891 0.22663 0.0
C940 C 0.43785 0.77835 0.32471 0.0
C941 C 0.43432 0.75957 0.33686 0.0
C942 C 0.43661 0.77794 0.30218 0.0
C943 C 0.43183 0.75874 0.29111 0.0
C944 C 0.42896 0.73981 0.30323 0.0
C945 C 0.43022 0.74022 0.32579 0.0
C946 C 0.43485 0.74031 0.23241 0.0
C947 C 0.42144 0.75758 0.22179 0.0
C948 C 0.43856 0.74081 0.25475 0.0
C949 C 0.42903 0.75863 0.26713 0.0
C950 C 0.41618 0.77614 0.25644 0.0
C951 C 0.41245 0.77563 0.2341 0.0
H952 H 0.72244 0.33346 0.92446 0.0
H953 H 0.71062 0.3204 0.85689 0.0
H954 H 0.76186 0.3108 0.92344 0.0
H955 H 0.7504 0.298 0.85591 0.0
H956 H 0.83165 0.26598 0.86146 0.0
H957 H 0.8004 0.29724 0.86283 0.0
H958 H 0.76435 0.26866 0.91721 0.0
H959 H 0.79487 0.2374 0.91543 0.0
C960 C 0.72855 0.32629 0.90923 0.0
C961 C 0.71316 0.32856 0.8908 0.0
C962 C 0.75113 0.31326 0.9087 0.0
C963 C 0.75907 0.30254 0.88965 0.0
C964 C 0.74478 0.30618 0.87079 0.0
C965 C 0.72196 0.31895 0.87138 0.0
C966 C 0.81737 0.2667 0.87397 0.0
C967 C 0.81562 0.24934 0.88837 0.0
C968 C 0.79945 0.28447 0.87466 0.0
C969 C 0.78001 0.28536 0.89015 0.0
C970 C 0.77925 0.26852 0.90525 0.0
C971 C 0.79667 0.2506 0.9042 0.0
H972 H 0.81943 0.31034 0.61539 0.0
H973 H 0.83255 0.24234 0.63005 0.0
H974 H 0.77385 0.30664 0.61705 0.0
H975 H 0.78741 0.23875 0.63295 0.0
H976 H 0.70536 0.23268 0.61331 0.0
H977 H 0.75088 0.23651 0.61317 0.0
H978 H 0.73848 0.30188 0.63788 0.0
H979 H 0.69318 0.2983 0.63681 0.0
C980 C 0.81255 0.29471 0.61936 0.0
C981 C 0.82955 0.27663 0.62241 0.0
C982 C 0.78637 0.29253 0.62041 0.0
C983 C 0.77662 0.27228 0.62497 0.0
C984 C 0.79389 0.25445 0.62879 0.0
C985 C 0.81991 0.25656 0.62732 0.0
C986 C 0.71246 0.24777 0.61883 0.0
C987 C 0.69566 0.26519 0.62496 0.0
C988 C 0.73863 0.25002 0.61886 0.0
C989 C 0.74868 0.26961 0.62542 0.0
C990 C 0.7317 0.28674 0.63219 0.0
C991 C 0.70562 0.28461 0.63178 0.0
H992 H 0.74583 0.30758 0.10637 0.0
H993 H 0.7792 0.33512 0.16263 0.0
H994 H 0.7722 0.27432 0.11107 0.0
H995 H 0.80609 0.30163 0.1674 0.0
H996 H 0.80452 0.22779 0.18745 0.0
H997 H 0.795 0.26597 0.17951 0.0
H998 H 0.81237 0.25382 0.11238 0.0
H999 H 0.8214 0.21543 0.12024 0.0
C1000 C 0.7596 0.30679 0.11928 0.0
C1001 C 0.76046 0.32393 0.13411 0.0
C1002 C 0.77481 0.28768 0.12199 0.0
C1003 C 0.79115 0.2851 0.13978 0.0
C1004 C 0.79351 0.30297 0.15366 0.0
C1005 C 0.77838 0.32228 0.15078 0.0
C1006 C 0.80692 0.2333 0.17106 0.0
C1007 C 0.81329 0.21839 0.15444 0.0
C1008 C 0.8016 0.25532 0.16652 0.0
C1009 C 0.80253 0.26301 0.14523 0.0
C1010 C 0.811 0.24841 0.1289 0.0
C1011 C 0.81631 0.22638 0.13344 0.0
H1012 H 0.72887 0.34018 0.40772 0.0
H1013 H 0.80187 0.32135 0.43483 0.0
H1014 H 0.71812 0.30242 0.40793 0.0
H1015 H 0.79109 0.28359 0.43543 0.0
H1016 H 0.77623 0.21748 0.40491 0.0
H1017 H 0.78606 0.25513 0.40994 0.0
H1018 H 0.70878 0.27158 0.42902 0.0
H1019 H 0.69897 0.23394 0.42367 0.0
C1020 C 0.7424 0.32804 0.41419 0.0
C1021 C 0.7663 0.33375 0.42111 0.0
C1022 C 0.73627 0.30633 0.41431 0.0
C1023 C 0.75383 0.28983 0.42149 0.0
C1024 C 0.7773 0.29574 0.42932 0.0
C1025 C 0.78346 0.3174 0.42908 0.0
C1026 C 0.76145 0.22906 0.41048 0.0
C1027 C 0.73678 0.22271 0.41371 0.0
C1028 C 0.76706 0.2507 0.41341 0.0
C1029 C 0.74818 0.26652 0.4198 0.0
C1030 C 0.72369 0.25998 0.42368 0.0
C1031 C 0.71806 0.23838 0.42064 0.0
H1032 H 0.06857 0.59914 0.67281 0.0
H1033 H 0.14466 0.60252 0.69664 0.0
H1034 H 0.06787 0.562 0.68639 0.0
H1035 H 0.14418 0.56546 0.70967 0.0
H1036 H 0.12351 0.51007 0.75324 0.0
H1037 H 0.12328 0.54642 0.73839 0.0
H1038 H 0.08741 0.52444 0.68062 0.0
H1039 H 0.08715 0.48785 0.69582 0.0
C1040 C 0.08514 0.59199 0.6809 0.0
C1041 C 0.10666 0.6039 0.68361 0.0
C1042 C 0.08484 0.57062 0.68849 0.0
C1043 C 0.10594 0.56073 0.69919 0.0
C1044 C 0.12749 0.57261 0.70172 0.0
C1045 C 0.12786 0.59385 0.69402 0.0
C1046 C 0.11531 0.51294 0.73747 0.0
C1047 C 0.1052 0.49597 0.7258 0.0
C1048 C 0.11545 0.5338 0.72882 0.0
C1049 C 0.10542 0.53839 0.70826 0.0
C1050 C 0.09514 0.5215 0.69657 0.0
C1051 C 0.09518 0.5005 0.70519 0.0
H1052 H 0.44869 0.66757 0.17408 0.0
H1053 H 0.48817 0.70098 0.12466 0.0
H1054 H 0.48828 0.64777 0.18425 0.0
H1055 H 0.52746 0.6809 0.13435 0.0
H1056 H 0.59635 0.66474 0.17898 0.0
H1057 H 0.55742 0.68066 0.16298 0.0
H1058 H 0.52112 0.62117 0.17459 0.0
H1059 H 0.55979 0.60555 0.19103 0.0
C1060 C 0.46568 0.67033 0.16508 0.0
C1061 C 0.46527 0.68596 0.14868 0.0
C1062 C 0.48843 0.65896 0.17086 0.0
C1063 C 0.51125 0.66286 0.16026 0.0
C1064 C 0.51047 0.67778 0.14319 0.0
C1065 C 0.48783 0.6892 0.13754 0.0
C1066 C 0.58025 0.6549 0.17763 0.0
C1067 C 0.58116 0.63393 0.18638 0.0
C1068 C 0.55784 0.66402 0.16848 0.0
C1069 C 0.53588 0.65232 0.16774 0.0
C1070 C 0.53738 0.63087 0.17533 0.0
C1071 C 0.55968 0.62183 0.18456 0.0
H1072 H 0.36342 0.98339 0.62927 0.0
H1073 H 0.33567 0.96132 0.69037 0.0
H1074 H 0.37721 1.01585 0.64662 0.0
H1075 H 0.34977 0.99382 0.70774 0.0
H1076 H 0.40194 0.04388 0.73487 0.0
H1077 H 0.3887 1.01109 0.71743 0.0
H1078 H 0.35977 0.04925 0.66364 0.0
H1079 H 0.37271 0.08201 0.68107 0.0
C1080 C 0.35997 0.98547 0.64635 0.0
C1081 C 0.34825 0.96957 0.65831 0.0
C1082 C 0.36798 1.00415 0.65633 0.0
C1083 C 0.36462 1.0075 0.67858 0.0
C1084 C 0.35299 0.99164 0.69061 0.0
C1085 C 0.34487 0.97296 0.68061 0.0
C1086 C 0.39266 0.04535 0.71937 0.0
C1087 C 0.38846 0.06574 0.70947 0.0
C1088 C 0.38503 0.0265 0.70938 0.0
C1089 C 0.37309 0.0275 0.68914 0.0
C1090 C 0.3692 0.04782 0.67909 0.0
C1091 C 0.37673 0.06667 0.68911 0.0
H1092 H 0.07516 0.85507 0.12368 0.0
H1093 H 0.063 0.81506 0.17922 0.0
H1094 H 0.03169 0.87037 0.12621 0.0
H1095 H 0.01987 0.83074 0.1821 0.0
H1096 H 0.94004 0.85808 0.18187 0.0
H1097 H 0.97737 0.8367 0.16868 0.0
H1098 H 1.01125 0.89576 0.15066 0.0
H1099 H 0.97396 0.91689 0.16331 0.0
C1100 C 0.06312 0.84925 0.13622 0.0
C1101 C 0.07276 0.83401 0.15141 0.0
C1102 C 0.0382 0.85814 0.13776 0.0
C1103 C 0.02227 0.85209 0.15457 0.0
C1104 C 0.03141 0.83573 0.16883 0.0
C1105 C 0.0563 0.82678 0.16725 0.0
C1106 C 0.95513 0.86643 0.17445 0.0
C1107 C 0.95406 0.88923 0.17376 0.0
C1108 C 0.97669 0.85418 0.16711 0.0
C1109 C 0.99756 0.86445 0.15881 0.0
C1110 C 0.99558 0.88718 0.15673 0.0
C1111 C 0.97416 0.89937 0.16411 0.0
H1112 H 0.25348 0.98364 0.92303 0.0
H1113 H 0.22137 0.95909 0.86468 0.0
H1114 H 0.23287 1.01918 0.91627 0.0
H1115 H 0.20042 0.99519 0.8578 0.0
H1116 H 0.19944 0.0711 0.84295 0.0
H1117 H 0.21359 0.033 0.84843 0.0
H1118 H 0.19076 0.03809 0.9151 0.0
H1119 H 0.17647 0.07584 0.90968 0.0
C1120 C 0.24173 0.98578 0.90882 0.0
C1121 C 0.23908 0.96848 0.89441 0.0
C1122 C 0.22978 1.00621 0.90499 0.0
C1123 C 0.21493 1.01012 0.8865 0.0
C1124 C 0.21185 0.99275 0.87215 0.0
C1125 C 0.22363 0.97204 0.87617 0.0
C1126 C 0.19708 0.06404 0.8587 0.0
C1127 C 0.18715 0.07682 0.87595 0.0
C1128 C 0.20515 0.04213 0.86182 0.0
C1129 C 0.20357 0.03251 0.88227 0.0
C1130 C 0.19273 0.04506 0.89924 0.0
C1131 C 0.18461 0.06683 0.89613 0.0
H1132 H 0.99802 0.63441 0.35289 0.0
H1133 H 0.94598 0.69095 0.35771 0.0
H1134 H 0.03021 0.65373 0.37141 0.0
H1135 H 0.97844 0.71052 0.37591 0.0
H1136 H 0.03644 0.7358 0.4214 0.0
H1137 H 1.0037 0.71372 0.40769 0.0
H1138 H 0.05743 0.6823 0.36344 0.0
H1139 H 0.09048 0.70418 0.37757 0.0
C1140 C 0.99333 0.65092 0.35814 0.0
C1141 C 0.9694 0.66114 0.35377 0.0
C1142 C 0.01193 0.66208 0.36859 0.0
C1143 C 1.00716 0.68382 0.37491 0.0
C1144 C 0.9828 0.69375 0.37143 0.0
C1145 C 0.96411 0.68252 0.36101 0.0
C1146 C 0.0414 0.72406 0.40885 0.0
C1147 C 0.06615 0.72184 0.40054 0.0
C1148 C 0.0225 0.71148 0.40088 0.0
C1149 C 0.02775 0.6963 0.38432 0.0
C1150 C 0.0527 0.69365 0.37637 0.0
C1151 C 0.07168 0.70624 0.38441 0.0
H1152 H 0.31993 0.58025 0.92096 0.0
H1153 H 0.33256 0.60193 0.85603 0.0
H1154 H 0.33573 0.54378 0.91116 0.0
H1155 H 0.34865 0.56498 0.84606 0.0
H1156 H 0.33914 0.48983 0.83446 0.0
H1157 H 0.33012 0.52847 0.84191 0.0
H1158 H 0.37392 0.52218 0.90039 0.0
H1159 H 0.3831 0.48388 0.89296 0.0
C1160 C 0.32656 0.57728 0.90463 0.0
C1161 C 0.32507 0.59401 0.8893 0.0
C1162 C 0.3357 0.55633 0.89901 0.0
C1163 C 0.34343 0.55137 0.8778 0.0
C1164 C 0.34267 0.56824 0.86251 0.0
C1165 C 0.33376 0.58943 0.86826 0.0
C1166 C 0.34711 0.49672 0.84876 0.0
C1167 C 0.36152 0.48349 0.86326 0.0
C1168 C 0.34201 0.51893 0.85299 0.0
C1169 C 0.35113 0.52843 0.87185 0.0
C1170 C 0.36621 0.51535 0.88592 0.0
C1171 C 0.37136 0.49326 0.88168 0.0
H1172 H 0.45187 0.84811 0.38311 0.0
H1173 H 0.50523 0.81804 0.4282 0.0
H1174 H 0.48539 0.8686 0.36782 0.0
H1175 H 0.53853 0.83883 0.41334 0.0
H1176 H 0.59603 0.85525 0.36009 0.0
H1177 H 0.56339 0.83874 0.38107 0.0
H1178 H 0.51396 0.89658 0.37313 0.0
H1179 H 0.54629 0.91276 0.35179 0.0
C1180 C 0.4706 0.84624 0.39007 0.0
C1181 C 0.47588 0.83134 0.40677 0.0
C1182 C 0.48987 0.85802 0.38135 0.0
C1183 C 0.51483 0.85525 0.38921 0.0
C1184 C 0.51973 0.84107 0.40658 0.0
C1185 C 0.50054 0.82925 0.4152 0.0
C1186 C 0.57841 0.8646 0.36326 0.0
C1187 C 0.57371 0.88524 0.35416 0.0
C1188 C 0.55963 0.85514 0.37528 0.0
C1189 C 0.53581 0.8662 0.37857 0.0
C1190 C 0.53179 0.88737 0.37051 0.0
C1191 C 0.55045 0.89673 0.35843 0.0
H1192 H 0.59439 0.26318 0.51644 0.0
H1193 H 0.63275 0.20777 0.54745 0.0
H1194 H 0.59809 0.24427 0.48182 0.0
H1195 H 0.63595 0.18903 0.51321 0.0
H1196 H 0.62006 0.15179 0.45399 0.0
H1197 H 0.60914 0.17257 0.48643 0.0
H1198 H 0.63145 0.23082 0.45547 0.0
H1199 H 0.64221 0.21 0.42275 0.0
C1200 C 0.60362 0.24706 0.51601 0.0
C1201 C 0.61312 0.2371 0.53502 0.0
C1202 C 0.60568 0.2362 0.4961 0.0
C1203 C 0.61707 0.21504 0.49474 0.0
C1204 C 0.62653 0.20512 0.5137 0.0
C1205 C 0.62465 0.21597 0.53348 0.0
C1206 C 0.62217 0.16912 0.45389 0.0
C1207 C 0.63221 0.17916 0.43579 0.0
C1208 C 0.61608 0.18101 0.47258 0.0
C1209 C 0.61988 0.20329 0.47373 0.0
C1210 C 0.62825 0.21369 0.45513 0.0
C1211 C 0.63437 0.20175 0.43634 0.0
H1212 H 0.82497 0.17661 0.06337 0.0
H1213 H 0.78753 0.1198 0.04371 0.0
H1214 H 0.83938 0.1814 0.02641 0.0
H1215 H 0.80121 0.12496 1.00674 0.0
H1216 H 0.85147 0.12706 0.9474 0.0
H1217 H 0.83919 0.12243 0.9848 0.0
H1218 H 0.82278 0.19156 0.99077 0.0
H1219 H 0.83498 0.19622 0.95326 0.0
C1220 C 0.81987 0.16508 0.05122 0.0
C1221 C 0.80505 0.1478 0.0566 0.0
C1222 C 0.82791 0.16797 0.02995 0.0
C1223 C 0.82148 0.15357 1.01355 0.0
C1224 C 0.80678 0.13624 1.01897 0.0
C1225 C 0.79867 0.13341 0.04018 0.0
C1226 C 0.8451 0.14129 0.95658 0.0
C1227 C 0.84413 0.16202 0.94714 0.0
C1228 C 0.83805 0.13862 0.97809 0.0
C1229 C 0.82985 0.1566 0.99083 0.0
C1230 C 0.82928 0.17737 0.98154 0.0
C1231 C 0.8363 0.18005 0.95997 0.0
H1232 H 0.89219 0.28184 0.51803 0.0
H1233 H 0.92765 0.3356 0.54697 0.0
H1234 H 0.88358 0.30315 0.48554 0.0
H1235 H 0.92005 0.35677 0.51423 0.0
H1236 H 0.86809 0.39711 0.46871 0.0
H1237 H 0.88545 0.37495 0.49779 0.0
H1238 H 0.89746 0.32069 0.45402 0.0
H1239 H 0.87883 0.34298 0.42476 0.0
C1240 C 0.89864 0.29808 0.51724 0.0
C1241 C 0.91033 0.30715 0.53515 0.0
C1242 C 0.89383 0.31031 0.49853 0.0
C1243 C 0.90087 0.33186 0.49718 0.0
C1244 C 0.91374 0.34046 0.51478 0.0
C1245 C 0.91819 0.32834 0.53357 0.0
C1246 C 0.87474 0.38054 0.46511 0.0
C1247 C 0.87186 0.3718 0.44439 0.0
C1248 C 0.88496 0.36779 0.48187 0.0
C1249 C 0.89284 0.34588 0.47845 0.0
C1250 C 0.89122 0.33739 0.45739 0.0
C1251 C 0.88083 0.35022 0.44053 0.0
H1252 H 0.65825 0.35685 0.96227 0.0
H1253 H 0.6012 0.31504 0.98372 0.0
H1254 H 0.66639 0.36679 0.99959 0.0
H1255 H 0.60989 0.32439 1.02101 0.0
H1256 H 0.61543 0.36046 0.08475 0.0
H1257 H 0.60575 0.35369 0.04706 0.0
H1258 H 0.68536 0.35048 0.03186 0.0
H1259 H 0.69507 0.35718 0.06953 0.0
C1260 C 0.64726 0.34991 0.97489 0.0
C1261 C 0.62905 0.3351 0.9699 0.0
C1262 C 0.65216 0.35542 0.99635 0.0
C1263 C 0.63889 0.34634 1.0134 0.0
C1264 C 0.62033 0.33188 1.00835 0.0
C1265 C 0.61551 0.32632 0.98693 0.0
C1266 C 0.63092 0.35823 0.07343 0.0
C1267 C 0.65607 0.35932 0.08036 0.0
C1268 C 0.62534 0.35434 0.05176 0.0
C1269 C 0.64475 0.35146 0.03635 0.0
C1270 C 0.66988 0.35292 0.04318 0.0
C1271 C 0.67546 0.35678 0.06487 0.0
H1272 H 0.86876 0.58362 0.33963 0.0
H1273 H 0.92897 0.54198 0.31197 0.0
H1274 H 0.85197 0.55255 0.35715 0.0
H1275 H 0.91201 0.51072 0.32956 0.0
H1276 H 0.84363 0.49677 0.40375 0.0
H1277 H 0.86171 0.52718 0.38596 0.0
H1278 H 0.87615 0.48786 0.3291 0.0
H1279 H 0.85798 0.45737 0.3469 0.0
C1280 C 0.87865 0.5679 0.33743 0.0
C1281 C 0.90043 0.56547 0.32444 0.0
C1282 C 0.86895 0.55 0.34752 0.0
C1283 C 0.88068 0.52907 0.34494 0.0
C1284 C 0.90231 0.52654 0.33176 0.0
C1285 C 0.91206 0.5445 0.32166 0.0
C1286 C 0.85045 0.49457 0.38741 0.0
C1287 C 0.84914 0.47451 0.37681 0.0
C1288 C 0.86086 0.51208 0.37717 0.0
C1289 C 0.8703 0.51009 0.35601 0.0
C1290 C 0.86935 0.48995 0.34548 0.0
C1291 C 0.85889 0.47241 0.35573 0.0
H1292 H 0.45885 0.38604 0.80739 0.0
H1293 H 0.46276 0.44809 0.83911 0.0
H1294 H 0.50167 0.37544 0.81982 0.0
H1295 H 0.50525 0.4373 0.85168 0.0
H1296 H 0.55445 0.39081 0.89836 0.0
H1297 H 0.51787 0.40768 0.87956 0.0
H1298 H 0.5492 0.38502 0.81873 0.0
H1299 H 0.58626 0.36847 0.83759 0.0
C1300 C 0.469 0.39761 0.81657 0.0
C1301 C 0.4572 0.41785 0.82238 0.0
C1302 C 0.49356 0.39154 0.82365 0.0
C1303 C 0.5067 0.40548 0.8369 0.0
C1304 C 0.49549 0.42616 0.84165 0.0
C1305 C 0.47114 0.43234 0.83434 0.0
C1306 C 0.55385 0.38991 0.88093 0.0
C1307 C 0.57328 0.37841 0.86946 0.0
C1308 C 0.53292 0.39959 0.87015 0.0
C1309 C 0.53063 0.39761 0.84767 0.0
C1310 C 0.55045 0.38674 0.83607 0.0
C1311 C 0.57174 0.37745 0.84685 0.0
H1312 H 0.6735 0.05528 0.39999 0.0
H1313 H 0.66402 0.0901 0.33999 0.0
H1314 H 0.66089 1.02244 0.38238 0.0
H1315 H 0.65142 0.05723 0.32236 0.0
H1316 H 0.60627 0.99895 0.30315 0.0
H1317 H 0.61798 0.03229 0.32063 0.0
H1318 H 0.67615 0.99574 0.35632 0.0
H1319 H 0.66448 0.96257 0.33895 0.0
C1320 C 0.66892 0.05594 0.38301 0.0
C1321 C 0.66987 0.07545 0.37148 0.0
C1322 C 0.66167 0.03705 0.37287 0.0
C1323 C 0.65517 0.03709 0.35088 0.0
C1324 C 0.65593 0.05662 0.33937 0.0
C1325 C 0.66318 0.07553 0.34952 0.0
C1326 C 0.62166 0.99804 0.31462 0.0
C1327 C 0.63427 0.97795 0.31967 0.0
C1328 C 0.62841 1.01719 0.32465 0.0
C1329 C 0.64796 1.01676 0.34001 0.0
C1330 C 0.66066 0.99669 0.34493 0.0
C1331 C 0.65393 0.97759 0.33492 0.0
H1332 H 0.08097 0.17762 0.88521 0.0
H1333 H 0.07459 0.15136 0.82097 0.0
H1334 H 0.03544 0.18402 0.88719 0.0
H1335 H 0.02855 0.15807 0.82293 0.0
H1336 H 0.94726 0.14859 0.84731 0.0
H1337 H 0.99281 0.14416 0.84268 0.0
H1338 H 1.00042 0.2068 0.87213 0.0
H1339 H 0.95457 0.21118 0.87705 0.0
C1340 C 0.06986 0.17324 0.87142 0.0
C1341 C 0.0815 0.16386 0.85293 0.0
C1342 C 0.04368 0.17713 0.87252 0.0
C1343 C 0.0283 0.17169 0.8552 0.0
C1344 C 0.03987 0.16232 0.83663 0.0
C1345 C 0.06622 0.15851 0.83547 0.0
C1346 C 0.95857 0.16149 0.8528 0.0
C1347 C 0.94722 0.18021 0.86272 0.0
C1348 C 0.98473 0.159 0.84994 0.0
C1349 C 1.0003 0.1751 0.85701 0.0
C1350 C 0.98897 0.19397 0.8667 0.0
C1351 C 0.9627 0.19653 0.86948 0.0
H1352 H 0.85995 0.106 0.17467 0.0
H1353 H 0.79518 0.07028 0.15857 0.0
H1354 H 0.88143 0.07259 0.18881 0.0
H1355 H 0.81625 0.0374 0.17279 0.0
H1356 H 0.86924 0.97749 0.1788 0.0
H1357 H 0.8507 1.0114 0.16431 0.0
H1358 H 0.87943 0.04614 0.2185 0.0
H1359 H 0.898 1.0121 0.23312 0.0
C1360 C 0.85029 0.0911 0.17415 0.0
C1361 C 0.82584 0.0909 0.16538 0.0
C1362 C 0.86254 0.07196 0.18235 0.0
C1363 C 0.85067 0.05219 0.18182 0.0
C1364 C 0.82622 0.05215 0.17313 0.0
C1365 C 0.81403 0.07115 0.16508 0.0
C1366 C 0.8715 0.99226 0.18779 0.0
C1367 C 0.88503 0.99184 0.2073 0.0
C1368 C 0.86086 1.0118 0.17942 0.0
C1369 C 0.86339 0.03159 0.19027 0.0
C1370 C 0.87732 0.03129 0.20957 0.0
C1371 C 0.88795 1.01169 0.21798 0.0
H1372 H 0.06563 0.39962 0.67362 0.0
H1373 H 0.05978 0.34465 0.71576 0.0
H1374 H 0.02921 0.38821 0.6529 0.0
H1375 H 0.02351 0.33367 0.69549 0.0
H1376 H 0.94487 0.33056 0.66734 0.0
H1377 H 0.97774 0.34785 0.68765 0.0
H1378 H 0.02035 0.35461 0.62907 0.0
H1379 H 0.98776 0.33708 0.60884 0.0
C1380 C 0.05659 0.38519 0.6785 0.0
C1381 C 0.06578 0.37299 0.69627 0.0
C1382 C 0.03575 0.37867 0.66666 0.0
C1383 C 0.02333 0.36014 0.67269 0.0
C1384 C 0.03239 0.34818 0.6906 0.0
C1385 C 0.0534 0.35439 0.70209 0.0
C1386 C 0.96098 0.33615 0.65873 0.0
C1387 C 0.96374 0.33234 0.63649 0.0
C1388 C 0.97989 0.34592 0.67038 0.0
C1389 C 1.00174 0.35248 0.65998 0.0
C1390 C 1.00372 0.34986 0.63754 0.0
C1391 C 0.98507 0.33974 0.62597 0.0
H1392 H 0.72434 0.44637 0.16744 0.0
H1393 H 0.64447 0.43748 0.17265 0.0
H1394 H 0.71713 0.48293 0.18309 0.0
H1395 H 0.63743 0.47344 0.18799 0.0
H1396 H 0.6371 0.5249 0.23978 0.0
H1397 H 0.64749 0.48996 0.22272 0.0
H1398 H 0.69511 0.52039 0.17693 0.0
H1399 H 0.68507 0.55553 0.19439 0.0
C1400 C 0.70528 0.45226 0.17162 0.0
C1401 C 0.68506 0.43884 0.16895 0.0
C1402 C 0.70114 0.47318 0.18059 0.0
C1403 C 0.67673 0.48097 0.18717 0.0
C1404 C 0.65653 0.46782 0.18363 0.0
C1405 C 0.66061 0.44715 0.17467 0.0
C1406 C 0.64999 0.52421 0.22624 0.0
C1407 C 0.66011 0.54316 0.21846 0.0
C1408 C 0.6558 0.50415 0.21629 0.0
C1409 C 0.67199 0.50236 0.1983 0.0
C1410 C 0.68264 0.52118 0.19077 0.0
C1411 C 0.67665 0.54136 0.20066 0.0
H1412 H 0.48156 0.1276 0.67498 0.0
H1413 H 0.45 0.19162 0.69179 0.0
H1414 H 0.51949 0.14337 0.66094 0.0
H1415 H 0.48824 0.20723 0.6783 0.0
H1416 H 0.57547 0.21599 0.68562 0.0
H1417 H 0.53609 0.19978 0.69455 0.0
H1418 H 0.53235 0.17375 0.63018 0.0
H1419 H 0.57167 0.19061 0.62084 0.0
C1420 C 0.48254 0.14506 0.67533 0.0
C1421 C 0.46277 0.15837 0.68447 0.0
C1422 C 0.50423 0.15404 0.66729 0.0
C1423 C 0.50682 0.17647 0.6687 0.0
C1424 C 0.48671 0.18987 0.67711 0.0
C1425 C 0.46477 0.18095 0.68469 0.0
C1426 C 0.56649 0.20664 0.67337 0.0
C1427 C 0.57682 0.20453 0.65251 0.0
C1428 C 0.54379 0.19755 0.67846 0.0
C1429 C 0.5311 0.18572 0.663 0.0
C1430 C 0.54177 0.18287 0.64236 0.0
C1431 C 0.56426 0.19245 0.63706 0.0
H1432 H 0.41052 0.76723 0.51671 0.0
H1433 H 0.39788 0.83111 0.48913 0.0
H1434 H 0.39687 0.78156 0.55178 0.0
H1435 H 0.38338 0.84524 0.52394 0.0
H1436 H 0.37882 0.86882 0.59333 0.0
H1437 H 0.3971 0.85379 0.55992 0.0
H1438 H 0.35873 0.79508 0.56986 0.0
H1439 H 0.34091 0.80989 0.60336 0.0
C1440 C 0.40494 0.78433 0.51808 0.0
C1441 C 0.40526 0.79793 0.49992 0.0
C1442 C 0.39685 0.79254 0.5382 0.0
C1443 C 0.38893 0.81459 0.54078 0.0
C1444 C 0.38958 0.82823 0.52269 0.0
C1445 C 0.3976 0.82003 0.50258 0.0
C1446 C 0.37453 0.8526 0.58853 0.0
C1447 C 0.35832 0.84061 0.60109 0.0
C1448 C 0.38485 0.84404 0.56924 0.0
C1449 C 0.3793 0.82324 0.56202 0.0
C1450 C 0.36369 0.81104 0.57494 0.0
C1451 C 0.35334 0.81961 0.59417 0.0
H1452 H 0.1709 0.90616 0.06898 0.0
H1453 H 0.22336 0.8523 0.08547 0.0
H1454 H 0.1939 0.91159 0.03605 0.0
H1455 H 0.24587 0.85716 0.05161 0.0
H1456 H 0.29472 0.88726 0.99908 0.0
H1457 H 0.27296 0.88098 0.03287 0.0
H1458 H 0.20123 0.89593 1.00163 0.0
H1459 H 0.22288 0.90325 0.9683 0.0
C1460 C 0.18739 0.89544 0.06572 0.0
C1461 C 0.19522 0.87882 0.08021 0.0
C1462 C 0.20046 0.89839 0.0465 0.0
C1463 C 0.22173 0.88475 0.04095 0.0
C1464 C 0.2297 0.86812 0.05539 0.0
C1465 C 0.2166 0.86518 0.07475 0.0
C1466 C 0.27433 0.88943 0.99941 0.0
C1467 C 0.26071 0.89591 0.98076 0.0
C1468 C 0.26179 0.88554 1.01881 0.0
C1469 C 0.23527 0.888 1.02013 0.0
C1470 C 0.22167 0.89418 1.00142 0.0
C1471 C 0.23417 0.89814 0.9821 0.0
H1472 H 0.10083 0.67798 0.58574 0.0
H1473 H 0.17827 0.69333 0.59588 0.0
H1474 H 0.10056 0.69632 0.55117 0.0
H1475 H 0.17799 0.71152 0.56063 0.0
H1476 H 0.16504 0.7249 0.48456 0.0
H1477 H 0.17028 0.7038 0.51798 0.0
H1478 H 0.10351 0.73789 0.54414 0.0
H1479 H 0.09841 0.75897 0.511 0.0
C1480 C 0.11801 0.68493 0.58045 0.0
C1481 C 0.1395 0.68438 0.59377 0.0
C1482 C 0.11776 0.69553 0.56063 0.0
C1483 C 0.13908 0.70566 0.5534 0.0
C1484 C 0.16126 0.70388 0.5659 0.0
C1485 C 0.16144 0.6934 0.58601 0.0
C1486 C 0.15155 0.72786 0.4975 0.0
C1487 C 0.13125 0.74355 0.49514 0.0
C1488 C 0.15466 0.71592 0.51663 0.0
C1489 C 0.13722 0.71913 0.53357 0.0
C1490 C 0.11713 0.73497 0.53127 0.0
C1491 C 0.1143 0.74714 0.51237 0.0
H1492 H 0.39699 0.72753 0.04396 0.0
H1493 H 0.3336 0.71229 0.08343 0.0
H1494 H 0.37603 0.71353 1.01227 0.0
H1495 H 0.3123 0.69885 0.05188 0.0
H1496 H 0.293 0.65419 0.99692 0.0
H1497 H 0.31397 0.66923 0.02791 0.0
H1498 H 0.34235 0.71895 0.98733 0.0
H1499 H 0.32182 0.70343 0.95626 0.0
C1500 C 0.37842 0.72147 0.0458 0.0
C1501 C 0.36709 0.72083 0.06624 0.0
C1502 C 0.36633 0.71345 0.02762 0.0
C1503 C 0.34248 0.70479 0.02943 0.0
C1504 C 0.3309 0.70481 0.04985 0.0
C1505 C 0.34307 0.71261 0.06798 0.0
C1506 C 0.30359 0.6684 0.99466 0.0
C1507 C 0.30572 0.67758 0.9741 0.0
C1508 C 0.3156 0.67712 1.01246 0.0
C1509 C 0.32986 0.69545 1.01028 0.0
C1510 C 0.33192 0.70465 0.98967 0.0
C1511 C 0.32009 0.69578 0.97181 0.0
loop_
_geom_bond_atom_site_label_1
_geom_bond_atom_site_label_2
_geom_bond_distance
_geom_bond_site_symmetry_2
_ccdc_geom_bond_type
Cu0 N1 1.999 . S
Cu0 O6 1.974 . S
Cu0 N11 1.985 . S
Cu0 O20 1.959 . S
N1 Cu0 1.999 . S
N1 C3 1.263 . S
N1 C5 1.389 . S
N2 C3 1.358 . S
N2 C4 1.400 . S
C3 N1 1.263 . S
C3 N2 1.358 . S
C3 H9 0.930 . S
C4 N2 1.400 . S
C4 C5 1.351 . S
C4 H21 0.930 . S
C5 N1 1.389 . S
C5 C4 1.351 . S
C5 H10 0.930 . S
O6 Cu0 1.974 . S
O6 C16 1.282 . S
C7 O8 1.261 . S
C7 O20 1.251 . S
O8 C7 1.261 . S
H9 C3 0.930 . S
H10 C5 0.930 . S
N11 Cu0 1.985 . S
N11 C13 1.335 . S
N11 C14 1.390 . S
N12 C13 1.345 . S
N12 C15 1.336 . S
C13 N11 1.335 . S
C13 N12 1.345 . S
C13 H18 0.930 . S
C14 N11 1.390 . S
C14 C15 1.346 . S
C14 H19 0.930 . S
C15 N12 1.336 . S
C15 C14 1.346 . S
C15 H22 0.929 . S
C16 O6 1.282 . S
C16 O17 1.216 . S
O17 C16 1.216 . S
H18 C13 0.930 . S
H19 C14 0.930 . S
O20 Cu0 1.959 . S
O20 C7 1.251 . S
H21 C4 0.930 . S
H22 C15 0.929 . S
Cu23 N24 1.999 . S
Cu23 O29 1.974 . S
Cu23 N34 1.985 . S
Cu23 O43 1.959 . S
N24 Cu23 1.999 . S
N24 C26 1.263 . S
N24 C28 1.389 . S
N25 C26 1.358 . S
N25 C27 1.400 . S
C26 N24 1.263 . S
C26 N25 1.358 . S
C26 H32 0.930 . S
C27 N25 1.400 . S
C27 C28 1.351 . S
C27 H44 0.930 . S
C28 N24 1.389 . S
C28 C27 1.351 . S
C28 H33 0.930 . S
O29 Cu23 1.974 . S
O29 C39 1.282 . S
C30 O31 1.261 . S
C30 O43 1.251 . S
O31 C30 1.261 . S
H32 C26 0.930 . S
H33 C28 0.930 . S
N34 Cu23 1.985 . S
N34 C36 1.335 . S
N34 C37 1.390 . S
N35 C36 1.345 . S
N35 C38 1.336 . S
C36 N34 1.335 . S
C36 N35 1.345 . S
C36 H41 0.930 . S
C37 N34 1.390 . S
C37 C38 1.346 . S
C37 H42 0.930 . S
C38 N35 1.336 . S
C38 C37 1.346 . S
C38 H45 0.929 . S
C39 O29 1.282 . S
C39 O40 1.216 . S
O40 C39 1.216 . S
H41 C36 0.930 . S
H42 C37 0.930 . S
O43 Cu23 1.959 . S
O43 C30 1.251 . S
H44 C27 0.930 . S
H45 C38 0.929 . S
Cu46 N47 1.999 . S
Cu46 O52 1.974 . S
Cu46 N57 1.985 . S
Cu46 O66 1.959 . S
N47 Cu46 1.999 . S
N47 C49 1.263 . S
N47 C51 1.389 . S
N48 C49 1.358 . S
N48 C50 1.400 . S
C49 N47 1.263 . S
C49 N48 1.358 . S
C49 H55 0.930 . S
C50 N48 1.400 . S
C50 C51 1.351 . S
C50 H67 0.930 . S
C51 N47 1.389 . S
C51 C50 1.351 . S
C51 H56 0.930 . S
O52 Cu46 1.974 . S
O52 C62 1.282 . S
C53 O54 1.261 . S
C53 O66 1.251 . S
O54 C53 1.261 . S
H55 C49 0.930 . S
H56 C51 0.930 . S
N57 Cu46 1.985 . S
N57 C59 1.335 . S
N57 C60 1.390 . S
N58 C59 1.345 . S
N58 C61 1.336 . S
C59 N57 1.335 . S
C59 N58 1.345 . S
C59 H64 0.930 . S
C60 N57 1.390 . S
C60 C61 1.346 . S
C60 H65 0.930 . S
C61 N58 1.336 . S
C61 C60 1.346 . S
C61 H68 0.929 . S
C62 O52 1.282 . S
C62 O63 1.216 . S
O63 C62 1.216 . S
H64 C59 0.930 . S
H65 C60 0.930 . S
O66 Cu46 1.959 . S
O66 C53 1.251 . S
H67 C50 0.930 . S
H68 C61 0.929 . S
Cu69 N70 1.999 . S
Cu69 O75 1.974 . S
Cu69 N80 1.985 . S
Cu69 O89 1.959 . S
N70 Cu69 1.999 . S
N70 C72 1.263 . S
N70 C74 1.389 . S
N71 C72 1.358 . S
N71 C73 1.400 . S
C72 N70 1.263 . S
C72 N71 1.358 . S
C72 H78 0.930 . S
C73 N71 1.400 . S
C73 C74 1.351 . S
C73 H90 0.930 . S
C74 N70 1.389 . S
C74 C73 1.351 . S
C74 H79 0.930 . S
O75 Cu69 1.974 . S
O75 C85 1.282 . S
C76 O77 1.261 . S
C76 O89 1.251 . S
O77 C76 1.261 . S
H78 C72 0.930 . S
H79 C74 0.930 . S
N80 Cu69 1.985 . S
N80 C82 1.335 . S
N80 C83 1.390 . S
N81 C82 1.345 . S
N81 C84 1.336 . S
C82 N80 1.335 . S
C82 N81 1.345 . S
C82 H87 0.930 . S
C83 N80 1.390 . S
C83 C84 1.346 . S
C83 H88 0.930 . S
C84 N81 1.336 . S
C84 C83 1.346 . S
C84 H91 0.929 . S
C85 O75 1.282 . S
C85 O86 1.216 . S
O86 C85 1.216 . S
H87 C82 0.930 . S
H88 C83 0.930 . S
O89 Cu69 1.959 . S
O89 C76 1.251 . S
H90 C73 0.930 . S
H91 C84 0.929 . S
Cu92 N93 1.999 . S
Cu92 O98 1.974 . S
Cu92 N103 1.985 . S
Cu92 O112 1.959 . S
N93 Cu92 1.999 . S
N93 C95 1.263 . S
N93 C97 1.389 . S
N94 C95 1.358 . S
N94 C96 1.400 . S
C95 N93 1.263 . S
C95 N94 1.358 . S
C95 H101 0.930 . S
C96 N94 1.400 . S
C96 C97 1.351 . S
C96 H113 0.930 . S
C97 N93 1.389 . S
C97 C96 1.351 . S
C97 H102 0.930 . S
O98 Cu92 1.974 . S
O98 C108 1.282 . S
C99 O100 1.261 . S
C99 O112 1.251 . S
O100 C99 1.261 . S
H101 C95 0.930 . S
H102 C97 0.930 . S
N103 Cu92 1.985 . S
N103 C105 1.335 . S
N103 C106 1.390 . S
N104 C105 1.345 . S
N104 C107 1.336 . S
C105 N103 1.335 . S
C105 N104 1.345 . S
C105 H110 0.930 . S
C106 N103 1.390 . S
C106 C107 1.346 . S
C106 H111 0.930 . S
C107 N104 1.336 . S
C107 C106 1.346 . S
C107 H114 0.929 . S
C108 O98 1.282 . S
C108 O109 1.216 . S
O109 C108 1.216 . S
H110 C105 0.930 . S
H111 C106 0.930 . S
O112 Cu92 1.959 . S
O112 C99 1.251 . S
H113 C96 0.930 . S
H114 C107 0.929 . S
Cu115 N116 1.999 . S
Cu115 O121 1.974 . S
Cu115 N126 1.985 . S
Cu115 O135 1.959 . S
N116 Cu115 1.999 . S
N116 C118 1.263 . S
N116 C120 1.389 . S
N117 C118 1.358 . S
N117 C119 1.400 . S
C118 N116 1.263 . S
C118 N117 1.358 . S
C118 H124 0.930 . S
C119 N117 1.400 . S
C119 C120 1.351 . S
C119 H136 0.930 . S
C120 N116 1.389 . S
C120 C119 1.351 . S
C120 H125 0.930 . S
O121 Cu115 1.974 . S
O121 C131 1.282 . S
C122 O123 1.261 . S
C122 O135 1.251 . S
O123 C122 1.261 . S
H124 C118 0.930 . S
H125 C120 0.930 . S
N126 Cu115 1.985 . S
N126 C128 1.335 . S
N126 C129 1.390 . S
N127 C128 1.345 . S
N127 C130 1.336 . S
C128 N126 1.335 . S
C128 N127 1.345 . S
C128 H133 0.930 . S
C129 N126 1.390 . S
C129 C130 1.346 . S
C129 H134 0.930 . S
C130 N127 1.336 . S
C130 C129 1.346 . S
C130 H137 0.929 . S
C131 O121 1.282 . S
C131 O132 1.216 . S
O132 C131 1.216 . S
H133 C128 0.930 . S
H134 C129 0.930 . S
O135 Cu115 1.959 . S
O135 C122 1.251 . S
H136 C119 0.930 . S
H137 C130 0.929 . S
Cu138 N139 1.999 . S
Cu138 O144 1.974 . S
Cu138 N149 1.985 . S
Cu138 O158 1.959 . S
N139 Cu138 1.999 . S
N139 C141 1.263 . S
N139 C143 1.389 . S
N140 C141 1.358 . S
N140 C142 1.400 . S
C141 N139 1.263 . S
C141 N140 1.358 . S
C141 H147 0.930 . S
C142 N140 1.400 . S
C142 C143 1.351 . S
C142 H159 0.930 . S
C143 N139 1.389 . S
C143 C142 1.351 . S
C143 H148 0.930 . S
O144 Cu138 1.974 . S
O144 C154 1.282 . S
C145 O146 1.261 . S
C145 O158 1.251 . S
O146 C145 1.261 . S
H147 C141 0.930 . S
H148 C143 0.930 . S
N149 Cu138 1.985 . S
N149 C151 1.335 . S
N149 C152 1.390 . S
N150 C151 1.345 . S
N150 C153 1.336 . S
C151 N149 1.335 . S
C151 N150 1.345 . S
C151 H156 0.930 . S
C152 N149 1.390 . S
C152 C153 1.346 . S
C152 H157 0.930 . S
C153 N150 1.336 . S
C153 C152 1.346 . S
C153 H160 0.929 . S
C154 O144 1.282 . S
C154 O155 1.216 . S
O155 C154 1.216 . S
H156 C151 0.930 . S
H157 C152 0.930 . S
O158 Cu138 1.959 . S
O158 C145 1.251 . S
H159 C142 0.930 . S
H160 C153 0.929 . S
Cu161 N162 1.999 . S
Cu161 O167 1.974 . S
Cu161 N172 1.985 . S
Cu161 O181 1.959 . S
N162 Cu161 1.999 . S
N162 C164 1.263 . S
N162 C166 1.389 . S
N163 C164 1.358 . S
N163 C165 1.400 . S
C164 N162 1.263 . S
C164 N163 1.358 . S
C164 H170 0.930 . S
C165 N163 1.400 . S
C165 C166 1.351 . S
C165 H182 0.930 . S
C166 N162 1.389 . S
C166 C165 1.351 . S
C166 H171 0.930 . S
O167 Cu161 1.974 . S
O167 C177 1.282 . S
C168 O169 1.261 . S
C168 O181 1.251 . S
O169 C168 1.261 . S
H170 C164 0.930 . S
H171 C166 0.930 . S
N172 Cu161 1.985 . S
N172 C174 1.335 . S
N172 C175 1.390 . S
N173 C174 1.345 . S
N173 C176 1.336 . S
C174 N172 1.335 . S
C174 N173 1.345 . S
C174 H179 0.930 . S
C175 N172 1.390 . S
C175 C176 1.346 . S
C175 H180 0.930 . S
C176 N173 1.336 . S
C176 C175 1.346 . S
C176 H183 0.929 . S
C177 O167 1.282 . S
C177 O178 1.216 . S
O178 C177 1.216 . S
H179 C174 0.930 . S
H180 C175 0.930 . S
O181 Cu161 1.959 . S
O181 C168 1.251 . S
H182 C165 0.930 . S
H183 C176 0.929 . S
Cu184 N185 1.999 . S
Cu184 O190 1.974 . S
Cu184 N195 1.985 . S
Cu184 O204 1.959 . S
N185 Cu184 1.999 . S
N185 C187 1.263 . S
N185 C189 1.389 . S
N186 C187 1.358 . S
N186 C188 1.400 . S
C187 N185 1.263 . S
C187 N186 1.358 . S
C187 H193 0.930 . S
C188 N186 1.400 . S
C188 C189 1.351 . S
C188 H205 0.930 . S
C189 N185 1.389 . S
C189 C188 1.351 . S
C189 H194 0.930 . S
O190 Cu184 1.974 . S
O190 C200 1.282 . S
C191 O192 1.261 . S
C191 O204 1.251 . S
O192 C191 1.261 . S
H193 C187 0.930 . S
H194 C189 0.930 . S
N195 Cu184 1.985 . S
N195 C197 1.335 . S
N195 C198 1.390 . S
N196 C197 1.345 . S
N196 C199 1.336 . S
C197 N195 1.335 . S
C197 N196 1.345 . S
C197 H202 0.930 . S
C198 N195 1.390 . S
C198 C199 1.346 . S
C198 H203 0.930 . S
C199 N196 1.336 . S
C199 C198 1.346 . S
C199 H206 0.929 . S
C200 O190 1.282 . S
C200 O201 1.216 . S
O201 C200 1.216 . S
H202 C197 0.930 . S
H203 C198 0.930 . S
O204 Cu184 1.959 . S
O204 C191 1.251 . S
H205 C188 0.930 . S
H206 C199 0.929 . S
Cu207 N208 1.999 . S
Cu207 O213 1.974 . S
Cu207 N218 1.985 . S
Cu207 O227 1.959 . S
N208 Cu207 1.999 . S
N208 C210 1.263 . S
N208 C212 1.389 . S
N209 C210 1.358 . S
N209 C211 1.400 . S
C210 N208 1.263 . S
C210 N209 1.358 . S
C210 H216 0.930 . S
C211 N209 1.400 . S
C211 C212 1.351 . S
C211 H228 0.930 . S
C212 N208 1.389 . S
C212 C211 1.351 . S
C212 H217 0.930 . S
O213 Cu207 1.974 . S
O213 C223 1.282 . S
C214 O215 1.261 . S
C214 O227 1.251 . S
O215 C214 1.261 . S
H216 C210 0.930 . S
H217 C212 0.930 . S
N218 Cu207 1.985 . S
N218 C220 1.335 . S
N218 C221 1.390 . S
N219 C220 1.345 . S
N219 C222 1.336 . S
C220 N218 1.335 . S
C220 N219 1.345 . S
C220 H225 0.930 . S
C221 N218 1.390 . S
C221 C222 1.346 . S
C221 H226 0.930 . S
C222 N219 1.336 . S
C222 C221 1.346 . S
C222 H229 0.929 . S
C223 O213 1.282 . S
C223 O224 1.216 . S
O224 C223 1.216 . S
H225 C220 0.930 . S
H226 C221 0.930 . S
O227 Cu207 1.959 . S
O227 C214 1.251 . S
H228 C211 0.930 . S
H229 C222 0.929 . S
Cu230 N231 1.999 . S
Cu230 O236 1.974 . S
Cu230 N241 1.985 . S
Cu230 O250 1.959 . S
N231 Cu230 1.999 . S
N231 C233 1.263 . S
N231 C235 1.389 . S
N232 C233 1.358 . S
N232 C234 1.400 . S
C233 N231 1.263 . S
C233 N232 1.358 . S
C233 H239 0.930 . S
C234 N232 1.400 . S
C234 C235 1.351 . S
C234 H251 0.930 . S
C235 N231 1.389 . S
C235 C234 1.351 . S
C235 H240 0.930 . S
O236 Cu230 1.974 . S
O236 C246 1.282 . S
C237 O238 1.261 . S
C237 O250 1.251 . S
O238 C237 1.261 . S
H239 C233 0.930 . S
H240 C235 0.930 . S
N241 Cu230 1.985 . S
N241 C243 1.335 . S
N241 C244 1.390 . S
N242 C243 1.345 . S
N242 C245 1.336 . S
C243 N241 1.335 . S
C243 N242 1.345 . S
C243 H248 0.930 . S
C244 N241 1.390 . S
C244 C245 1.346 . S
C244 H249 0.930 . S
C245 N242 1.336 . S
C245 C244 1.346 . S
C245 H252 0.929 . S
C246 O236 1.282 . S
C246 O247 1.216 . S
O247 C246 1.216 . S
H248 C243 0.930 . S
H249 C244 0.930 . S
O250 Cu230 1.959 . S
O250 C237 1.251 . S
H251 C234 0.930 . S
H252 C245 0.929 . S
Cu253 N254 1.999 . S
Cu253 O259 1.974 . S
Cu253 N264 1.985 . S
Cu253 O273 1.959 . S
N254 Cu253 1.999 . S
N254 C256 1.263 . S
N254 C258 1.389 . S
N255 C256 1.358 . S
N255 C257 1.400 . S
C256 N254 1.263 . S
C256 N255 1.358 . S
C256 H262 0.930 . S
C257 N255 1.400 . S
C257 C258 1.351 . S
C257 H274 0.930 . S
C258 N254 1.389 . S
C258 C257 1.351 . S
C258 H263 0.930 . S
O259 Cu253 1.974 . S
O259 C269 1.282 . S
C260 O261 1.261 . S
C260 O273 1.251 . S
O261 C260 1.261 . S
H262 C256 0.930 . S
H263 C258 0.930 . S
N264 Cu253 1.985 . S
N264 C266 1.335 . S
N264 C267 1.390 . S
N265 C266 1.345 . S
N265 C268 1.336 . S
C266 N264 1.335 . S
C266 N265 1.345 . S
C266 H271 0.930 . S
C267 N264 1.390 . S
C267 C268 1.346 . S
C267 H272 0.930 . S
C268 N265 1.336 . S
C268 C267 1.346 . S
C268 H275 0.929 . S
C269 O259 1.282 . S
C269 O270 1.216 . S
O270 C269 1.216 . S
H271 C266 0.930 . S
H272 C267 0.930 . S
O273 Cu253 1.959 . S
O273 C260 1.251 . S
H274 C257 0.930 . S
H275 C268 0.929 . S
Cu276 N277 1.999 . S
Cu276 O282 1.974 . S
Cu276 N287 1.985 . S
Cu276 O296 1.959 . S
N277 Cu276 1.999 . S
N277 C279 1.263 . S
N277 C281 1.389 . S
N278 C279 1.358 . S
N278 C280 1.400 . S
C279 N277 1.263 . S
C279 N278 1.358 . S
C279 H285 0.930 . S
C280 N278 1.400 . S
C280 C281 1.351 . S
C280 H297 0.930 . S
C281 N277 1.389 . S
C281 C280 1.351 . S
C281 H286 0.930 . S
O282 Cu276 1.974 . S
O282 C292 1.282 . S
C283 O284 1.261 . S
C283 O296 1.251 . S
O284 C283 1.261 . S
H285 C279 0.930 . S
H286 C281 0.930 . S
N287 Cu276 1.985 . S
N287 C289 1.335 . S
N287 C290 1.390 . S
N288 C289 1.345 . S
N288 C291 1.336 . S
C289 N287 1.335 . S
C289 N288 1.345 . S
C289 H294 0.930 . S
C290 N287 1.390 . S
C290 C291 1.346 . S
C290 H295 0.930 . S
C291 N288 1.336 . S
C291 C290 1.346 . S
C291 H298 0.929 . S
C292 O282 1.282 . S
C292 O293 1.216 . S
O293 C292 1.216 . S
H294 C289 0.930 . S
H295 C290 0.930 . S
O296 Cu276 1.959 . S
O296 C283 1.251 . S
H297 C280 0.930 . S
H298 C291 0.929 . S
Cu299 N300 1.999 . S
Cu299 O305 1.974 . S
Cu299 N310 1.985 . S
Cu299 O319 1.959 . S
N300 Cu299 1.999 . S
N300 C302 1.263 . S
N300 C304 1.389 . S
N301 C302 1.358 . S
N301 C303 1.400 . S
C302 N300 1.263 . S
C302 N301 1.358 . S
C302 H308 0.930 . S
C303 N301 1.400 . S
C303 C304 1.351 . S
C303 H320 0.930 . S
C304 N300 1.389 . S
C304 C303 1.351 . S
C304 H309 0.930 . S
O305 Cu299 1.974 . S
O305 C315 1.282 . S
C306 O307 1.261 . S
C306 O319 1.251 . S
O307 C306 1.261 . S
H308 C302 0.930 . S
H309 C304 0.930 . S
N310 Cu299 1.985 . S
N310 C312 1.335 . S
N310 C313 1.390 . S
N311 C312 1.345 . S
N311 C314 1.336 . S
C312 N310 1.335 . S
C312 N311 1.345 . S
C312 H317 0.930 . S
C313 N310 1.390 . S
C313 C314 1.346 . S
C313 H318 0.930 . S
C314 N311 1.336 . S
C314 C313 1.346 . S
C314 H321 0.929 . S
C315 O305 1.282 . S
C315 O316 1.216 . S
O316 C315 1.216 . S
H317 C312 0.930 . S
H318 C313 0.930 . S
O319 Cu299 1.959 . S
O319 C306 1.251 . S
H320 C303 0.930 . S
H321 C314 0.929 . S
Cu322 N323 1.999 . S
Cu322 O328 1.974 . S
Cu322 N333 1.985 . S
Cu322 O342 1.959 . S
N323 Cu322 1.999 . S
N323 C325 1.263 . S
N323 C327 1.389 . S
N324 C325 1.358 . S
N324 C326 1.400 . S
C325 N323 1.263 . S
C325 N324 1.358 . S
C325 H331 0.930 . S
C326 N324 1.400 . S
C326 C327 1.351 . S
C326 H343 0.930 . S
C327 N323 1.389 . S
C327 C326 1.351 . S
C327 H332 0.930 . S
O328 Cu322 1.974 . S
O328 C338 1.282 . S
C329 O330 1.261 . S
C329 O342 1.251 . S
O330 C329 1.261 . S
H331 C325 0.930 . S
H332 C327 0.930 . S
N333 Cu322 1.985 . S
N333 C335 1.335 . S
N333 C336 1.390 . S
N334 C335 1.345 . S
N334 C337 1.336 . S
C335 N333 1.335 . S
C335 N334 1.345 . S
C335 H340 0.930 . S
C336 N333 1.390 . S
C336 C337 1.346 . S
C336 H341 0.930 . S
C337 N334 1.336 . S
C337 C336 1.346 . S
C337 H344 0.929 . S
C338 O328 1.282 . S
C338 O339 1.216 . S
O339 C338 1.216 . S
H340 C335 0.930 . S
H341 C336 0.930 . S
O342 Cu322 1.959 . S
O342 C329 1.251 . S
H343 C326 0.930 . S
H344 C337 0.929 . S
Cu345 N346 1.999 . S
Cu345 O351 1.974 . S
Cu345 N356 1.985 . S
Cu345 O365 1.959 . S
N346 Cu345 1.999 . S
N346 C348 1.263 . S
N346 C350 1.389 . S
N347 C348 1.358 . S
N347 C349 1.400 . S
C348 N346 1.263 . S
C348 N347 1.358 . S
C348 H354 0.930 . S
C349 N347 1.400 . S
C349 C350 1.351 . S
C349 H366 0.930 . S
C350 N346 1.389 . S
C350 C349 1.351 . S
C350 H355 0.930 . S
O351 Cu345 1.974 . S
O351 C361 1.282 . S
C352 O353 1.261 . S
C352 O365 1.251 . S
O353 C352 1.261 . S
H354 C348 0.930 . S
H355 C350 0.930 . S
N356 Cu345 1.985 . S
N356 C358 1.335 . S
N356 C359 1.390 . S
N357 C358 1.345 . S
N357 C360 1.336 . S
C358 N356 1.335 . S
C358 N357 1.345 . S
C358 H363 0.930 . S
C359 N356 1.390 . S
C359 C360 1.346 . S
C359 H364 0.930 . S
C360 N357 1.336 . S
C360 C359 1.346 . S
C360 H367 0.929 . S
C361 O351 1.282 . S
C361 O362 1.216 . S
O362 C361 1.216 . S
H363 C358 0.930 . S
H364 C359 0.930 . S
O365 Cu345 1.959 . S
O365 C352 1.251 . S
H366 C349 0.930 . S
H367 C360 0.929 . S
Cu368 N369 1.999 . S
Cu368 O374 1.974 . S
Cu368 N379 1.985 . S
Cu368 O388 1.959 . S
N369 Cu368 1.999 . S
N369 C371 1.263 . S
N369 C373 1.389 . S
N370 C371 1.358 . S
N370 C372 1.400 . S
C371 N369 1.263 . S
C371 N370 1.358 . S
C371 H377 0.930 . S
C372 N370 1.400 . S
C372 C373 1.351 . S
C372 H389 0.930 . S
C373 N369 1.389 . S
C373 C372 1.351 . S
C373 H378 0.930 . S
O374 Cu368 1.974 . S
O374 C384 1.282 . S
C375 O376 1.261 . S
C375 O388 1.251 . S
O376 C375 1.261 . S
H377 C371 0.930 . S
H378 C373 0.930 . S
N379 Cu368 1.985 . S
N379 C381 1.335 . S
N379 C382 1.390 . S
N380 C381 1.345 . S
N380 C383 1.336 . S
C381 N379 1.335 . S
C381 N380 1.345 . S
C381 H386 0.930 . S
C382 N379 1.390 . S
C382 C383 1.346 . S
C382 H387 0.930 . S
C383 N380 1.336 . S
C383 C382 1.346 . S
C383 H390 0.929 . S
C384 O374 1.282 . S
C384 O385 1.216 . S
O385 C384 1.216 . S
H386 C381 0.930 . S
H387 C382 0.930 . S
O388 Cu368 1.959 . S
O388 C375 1.251 . S
H389 C372 0.930 . S
H390 C383 0.929 . S
Cu391 N392 1.999 . S
Cu391 O397 1.974 . S
Cu391 N402 1.985 . S
Cu391 O411 1.959 . S
N392 Cu391 1.999 . S
N392 C394 1.263 . S
N392 C396 1.389 . S
N393 C394 1.358 . S
N393 C395 1.400 . S
C394 N392 1.263 . S
C394 N393 1.358 . S
C394 H400 0.930 . S
C395 N393 1.400 . S
C395 C396 1.351 . S
C395 H412 0.930 . S
C396 N392 1.389 . S
C396 C395 1.351 . S
C396 H401 0.930 . S
O397 Cu391 1.974 . S
O397 C407 1.282 . S
C398 O399 1.261 . S
C398 O411 1.251 . S
O399 C398 1.261 . S
H400 C394 0.930 . S
H401 C396 0.930 . S
N402 Cu391 1.985 . S
N402 C404 1.335 . S
N402 C405 1.390 . S
N403 C404 1.345 . S
N403 C406 1.336 . S
C404 N402 1.335 . S
C404 N403 1.345 . S
C404 H409 0.930 . S
C405 N402 1.390 . S
C405 C406 1.346 . S
C405 H410 0.930 . S
C406 N403 1.336 . S
C406 C405 1.346 . S
C406 H413 0.929 . S
C407 O397 1.282 . S
C407 O408 1.216 . S
O408 C407 1.216 . S
H409 C404 0.930 . S
H410 C405 0.930 . S
O411 Cu391 1.959 . S
O411 C398 1.251 . S
H412 C395 0.930 . S
H413 C406 0.929 . S
Cu414 N415 1.999 . S
Cu414 O420 1.974 . S
Cu414 N425 1.985 . S
Cu414 O434 1.959 . S
N415 Cu414 1.999 . S
N415 C417 1.263 . S
N415 C419 1.389 . S
N416 C417 1.358 . S
N416 C418 1.400 . S
C417 N415 1.263 . S
C417 N416 1.358 . S
C417 H423 0.930 . S
C418 N416 1.400 . S
C418 C419 1.351 . S
C418 H435 0.930 . S
C419 N415 1.389 . S
C419 C418 1.351 . S
C419 H424 0.930 . S
O420 Cu414 1.974 . S
O420 C430 1.282 . S
C421 O422 1.261 . S
C421 O434 1.251 . S
O422 C421 1.261 . S
H423 C417 0.930 . S
H424 C419 0.930 . S
N425 Cu414 1.985 . S
N425 C427 1.335 . S
N425 C428 1.390 . S
N426 C427 1.345 . S
N426 C429 1.336 . S
C427 N425 1.335 . S
C427 N426 1.345 . S
C427 H432 0.930 . S
C428 N425 1.390 . S
C428 C429 1.346 . S
C428 H433 0.930 . S
C429 N426 1.336 . S
C429 C428 1.346 . S
C429 H436 0.929 . S
C430 O420 1.282 . S
C430 O431 1.216 . S
O431 C430 1.216 . S
H432 C427 0.930 . S
H433 C428 0.930 . S
O434 Cu414 1.959 . S
O434 C421 1.251 . S
H435 C418 0.930 . S
H436 C429 0.929 . S
Cu437 N438 1.999 . S
Cu437 O443 1.974 . S
Cu437 N448 1.985 . S
Cu437 O457 1.959 . S
N438 Cu437 1.999 . S
N438 C440 1.263 . S
N438 C442 1.389 . S
N439 C440 1.358 . S
N439 C441 1.400 . S
C440 N438 1.263 . S
C440 N439 1.358 . S
C440 H446 0.930 . S
C441 N439 1.400 . S
C441 C442 1.351 . S
C441 H458 0.930 . S
C442 N438 1.389 . S
C442 C441 1.351 . S
C442 H447 0.930 . S
O443 Cu437 1.974 . S
O443 C453 1.282 . S
C444 O445 1.261 . S
C444 O457 1.251 . S
O445 C444 1.261 . S
H446 C440 0.930 . S
H447 C442 0.930 . S
N448 Cu437 1.985 . S
N448 C450 1.335 . S
N448 C451 1.390 . S
N449 C450 1.345 . S
N449 C452 1.336 . S
C450 N448 1.335 . S
C450 N449 1.345 . S
C450 H455 0.930 . S
C451 N448 1.390 . S
C451 C452 1.346 . S
C451 H456 0.930 . S
C452 N449 1.336 . S
C452 C451 1.346 . S
C452 H459 0.929 . S
C453 O443 1.282 . S
C453 O454 1.216 . S
O454 C453 1.216 . S
H455 C450 0.930 . S
H456 C451 0.930 . S
O457 Cu437 1.959 . S
O457 C444 1.251 . S
H458 C441 0.930 . S
H459 C452 0.929 . S
Cu460 N461 1.999 . S
Cu460 O466 1.974 . S
Cu460 N471 1.985 . S
Cu460 O480 1.959 . S
N461 Cu460 1.999 . S
N461 C463 1.263 . S
N461 C465 1.389 . S
N462 C463 1.358 . S
N462 C464 1.400 . S
C463 N461 1.263 . S
C463 N462 1.358 . S
C463 H469 0.930 . S
C464 N462 1.400 . S
C464 C465 1.351 . S
C464 H481 0.930 . S
C465 N461 1.389 . S
C465 C464 1.351 . S
C465 H470 0.930 . S
O466 Cu460 1.974 . S
O466 C476 1.282 . S
C467 O468 1.261 . S
C467 O480 1.251 . S
O468 C467 1.261 . S
H469 C463 0.930 . S
H470 C465 0.930 . S
N471 Cu460 1.985 . S
N471 C473 1.335 . S
N471 C474 1.390 . S
N472 C473 1.345 . S
N472 C475 1.336 . S
C473 N471 1.335 . S
C473 N472 1.345 . S
C473 H478 0.930 . S
C474 N471 1.390 . S
C474 C475 1.346 . S
C474 H479 0.930 . S
C475 N472 1.336 . S
C475 C474 1.346 . S
C475 H482 0.929 . S
C476 O466 1.282 . S
C476 O477 1.216 . S
O477 C476 1.216 . S
H478 C473 0.930 . S
H479 C474 0.930 . S
O480 Cu460 1.959 . S
O480 C467 1.251 . S
H481 C464 0.930 . S
H482 C475 0.929 . S
Cu483 N484 1.999 . S
Cu483 O489 1.974 . S
Cu483 N494 1.985 . S
Cu483 O503 1.959 . S
N484 Cu483 1.999 . S
N484 C486 1.263 . S
N484 C488 1.389 . S
N485 C486 1.358 . S
N485 C487 1.400 . S
C486 N484 1.263 . S
C486 N485 1.358 . S
C486 H492 0.930 . S
C487 N485 1.400 . S
C487 C488 1.351 . S
C487 H504 0.930 . S
C488 N484 1.389 . S
C488 C487 1.351 . S
C488 H493 0.930 . S
O489 Cu483 1.974 . S
O489 C499 1.282 . S
C490 O491 1.261 . S
C490 O503 1.251 . S
O491 C490 1.261 . S
H492 C486 0.930 . S
H493 C488 0.930 . S
N494 Cu483 1.985 . S
N494 C496 1.335 . S
N494 C497 1.390 . S
N495 C496 1.345 . S
N495 C498 1.336 . S
C496 N494 1.335 . S
C496 N495 1.345 . S
C496 H501 0.930 . S
C497 N494 1.390 . S
C497 C498 1.346 . S
C497 H502 0.930 . S
C498 N495 1.336 . S
C498 C497 1.346 . S
C498 H505 0.929 . S
C499 O489 1.282 . S
C499 O500 1.216 . S
O500 C499 1.216 . S
H501 C496 0.930 . S
H502 C497 0.930 . S
O503 Cu483 1.959 . S
O503 C490 1.251 . S
H504 C487 0.930 . S
H505 C498 0.929 . S
Cu506 N507 1.999 . S
Cu506 O512 1.974 . S
Cu506 N517 1.985 . S
Cu506 O526 1.959 . S
N507 Cu506 1.999 . S
N507 C509 1.263 . S
N507 C511 1.389 . S
N508 C509 1.358 . S
N508 C510 1.400 . S
C509 N507 1.263 . S
C509 N508 1.358 . S
C509 H515 0.930 . S
C510 N508 1.400 . S
C510 C511 1.351 . S
C510 H527 0.930 . S
C511 N507 1.389 . S
C511 C510 1.351 . S
C511 H516 0.930 . S
O512 Cu506 1.974 . S
O512 C522 1.282 . S
C513 O514 1.261 . S
C513 O526 1.251 . S
O514 C513 1.261 . S
H515 C509 0.930 . S
H516 C511 0.930 . S
N517 Cu506 1.985 . S
N517 C519 1.335 . S
N517 C520 1.390 . S
N518 C519 1.345 . S
N518 C521 1.336 . S
C519 N517 1.335 . S
C519 N518 1.345 . S
C519 H524 0.930 . S
C520 N517 1.390 . S
C520 C521 1.346 . S
C520 H525 0.930 . S
C521 N518 1.336 . S
C521 C520 1.346 . S
C521 H528 0.929 . S
C522 O512 1.282 . S
C522 O523 1.216 . S
O523 C522 1.216 . S
H524 C519 0.930 . S
H525 C520 0.930 . S
O526 Cu506 1.959 . S
O526 C513 1.251 . S
H527 C510 0.930 . S
H528 C521 0.929 . S
Cu529 N530 1.999 . S
Cu529 O535 1.974 . S
Cu529 N540 1.985 . S
Cu529 O549 1.959 . S
N530 Cu529 1.999 . S
N530 C532 1.263 . S
N530 C534 1.389 . S
N531 C532 1.358 . S
N531 C533 1.400 . S
C532 N530 1.263 . S
C532 N531 1.358 . S
C532 H538 0.930 . S
C533 N531 1.400 . S
C533 C534 1.351 . S
C533 H550 0.930 . S
C534 N530 1.389 . S
C534 C533 1.351 . S
C534 H539 0.930 . S
O535 Cu529 1.974 . S
O535 C545 1.282 . S
C536 O537 1.261 . S
C536 O549 1.251 . S
O537 C536 1.261 . S
H538 C532 0.930 . S
H539 C534 0.930 . S
N540 Cu529 1.985 . S
N540 C542 1.335 . S
N540 C543 1.390 . S
N541 C542 1.345 . S
N541 C544 1.336 . S
C542 N540 1.335 . S
C542 N541 1.345 . S
C542 H547 0.930 . S
C543 N540 1.390 . S
C543 C544 1.346 . S
C543 H548 0.930 . S
C544 N541 1.336 . S
C544 C543 1.346 . S
C544 H551 0.929 . S
C545 O535 1.282 . S
C545 O546 1.216 . S
O546 C545 1.216 . S
H547 C542 0.930 . S
H548 C543 0.930 . S
O549 Cu529 1.959 . S
O549 C536 1.251 . S
H550 C533 0.930 . S
H551 C544 0.929 . S
H552 C560 0.950 . S
H553 C565 0.950 . S
H554 C562 0.950 . S
H555 C564 0.950 . S
H556 C566 0.950 . S
H557 C568 0.950 . S
H558 C570 0.950 . S
H559 C571 0.950 . S
C560 H552 0.950 . S
C560 C561 1.386 . S
C560 C562 1.391 . S
C561 C560 1.386 . S
C561 C565 1.393 . S
C562 H554 0.950 . S
C562 C560 1.391 . S
C562 C563 1.400 . S
C563 C562 1.400 . S
C563 C564 1.398 . S
C563 C569 1.491 . S
C564 H555 0.950 . S
C564 C563 1.398 . S
C564 C565 1.391 . S
C565 H553 0.950 . S
C565 C561 1.393 . S
C565 C564 1.391 . S
C566 H556 0.950 . S
C566 C567 1.386 . S
C566 C568 1.391 . S
C567 C566 1.386 . S
C567 C571 1.393 . S
C568 H557 0.950 . S
C568 C566 1.391 . S
C568 C569 1.400 . S
C569 C563 1.491 . S
C569 C568 1.400 . S
C569 C570 1.398 . S
C570 H558 0.950 . S
C570 C569 1.398 . S
C570 C571 1.391 . S
C571 H559 0.950 . S
C571 C567 1.393 . S
C571 C570 1.391 . S
H572 C580 0.950 . S
H573 C585 0.950 . S
H574 C582 0.950 . S
H575 C584 0.950 . S
H576 C586 0.950 . S
H577 C588 0.950 . S
H578 C590 0.950 . S
H579 C591 0.950 . S
C580 H572 0.950 . S
C580 C581 1.386 . S
C580 C582 1.391 . S
C581 C580 1.386 . S
C581 C585 1.393 . S
C582 H574 0.950 . S
C582 C580 1.391 . S
C582 C583 1.400 . S
C583 C582 1.400 . S
C583 C584 1.398 . S
C583 C589 1.491 . S
C584 H575 0.950 . S
C584 C583 1.398 . S
C584 C585 1.391 . S
C585 H573 0.950 . S
C585 C581 1.393 . S
C585 C584 1.391 . S
C586 H576 0.950 . S
C586 C587 1.386 . S
C586 C588 1.391 . S
C587 C586 1.386 . S
C587 C591 1.393 . S
C588 H577 0.950 . S
C588 C586 1.391 . S
C588 C589 1.400 . S
C589 C583 1.491 . S
C589 C588 1.400 . S
C589 C590 1.398 . S
C590 H578 0.950 . S
C590 C589 1.398 . S
C590 C591 1.391 . S
C591 H579 0.950 . S
C591 C587 1.393 . S
C591 C590 1.391 . S
H592 C600 0.950 . S
H593 C605 0.950 . S
H594 C602 0.950 . S
H595 C604 0.950 . S
H596 C606 0.950 . S
H597 C608 0.950 . S
H598 C610 0.950 . S
H599 C611 0.950 . S
C600 H592 0.950 . S
C600 C601 1.386 . S
C600 C602 1.391 . S
C601 C600 1.386 . S
C601 C605 1.393 . S
C602 H594 0.950 . S
C602 C600 1.391 . S
C602 C603 1.400 . S
C603 C602 1.400 . S
C603 C604 1.398 . S
C603 C609 1.491 . S
C604 H595 0.950 . S
C604 C603 1.398 . S
C604 C605 1.391 . S
C605 H593 0.950 . S
C605 C601 1.393 . S
C605 C604 1.391 . S
C606 H596 0.950 . S
C606 C607 1.386 . S
C606 C608 1.391 . S
C607 C606 1.386 . S
C607 C611 1.393 . S
C608 H597 0.950 . S
C608 C606 1.391 . S
C608 C609 1.400 . S
C609 C603 1.491 . S
C609 C608 1.400 . S
C609 C610 1.398 . S
C610 H598 0.950 . S
C610 C609 1.398 . S
C610 C611 1.391 . S
C611 H599 0.950 . S
C611 C607 1.393 . S
C611 C610 1.391 . S
H612 C620 0.950 . S
H613 C625 0.950 . S
H614 C622 0.950 . S
H615 C624 0.950 . S
H616 C626 0.950 . S
H617 C628 0.950 . S
H618 C630 0.950 . S
H619 C631 0.950 . S
C620 H612 0.950 . S
C620 C621 1.386 . S
C620 C622 1.391 . S
C621 C620 1.386 . S
C621 C625 1.393 . S
C622 H614 0.950 . S
C622 C620 1.391 . S
C622 C623 1.400 . S
C623 C622 1.400 . S
C623 C624 1.398 . S
C623 C629 1.491 . S
C624 H615 0.950 . S
C624 C623 1.398 . S
C624 C625 1.391 . S
C625 H613 0.950 . S
C625 C621 1.393 . S
C625 C624 1.391 . S
C626 H616 0.950 . S
C626 C627 1.386 . S
C626 C628 1.391 . S
C627 C626 1.386 . S
C627 C631 1.393 . S
C628 H617 0.950 . S
C628 C626 1.391 . S
C628 C629 1.400 . S
C629 C623 1.491 . S
C629 C628 1.400 . S
C629 C630 1.398 . S
C630 H618 0.950 . S
C630 C629 1.398 . S
C630 C631 1.391 . S
C631 H619 0.950 . S
C631 C627 1.393 . S
C631 C630 1.391 . S
H632 C640 0.950 . S
H633 C645 0.950 . S
H634 C642 0.950 . S
H635 C644 0.950 . S
H636 C646 0.950 . S
H637 C648 0.950 . S
H638 C650 0.950 . S
H639 C651 0.950 . S
C640 H632 0.950 . S
C640 C641 1.386 . S
C640 C642 1.391 . S
C641 C640 1.386 . S
C641 C645 1.393 . S
C642 H634 0.950 . S
C642 C640 1.391 . S
C642 C643 1.400 . S
C643 C642 1.400 . S
C643 C644 1.398 . S
C643 C649 1.491 . S
C644 H635 0.950 . S
C644 C643 1.398 . S
C644 C645 1.391 . S
C645 H633 0.950 . S
C645 C641 1.393 . S
C645 C644 1.391 . S
C646 H636 0.950 . S
C646 C647 1.386 . S
C646 C648 1.391 . S
C647 C646 1.386 . S
C647 C651 1.393 . S
C648 H637 0.950 . S
C648 C646 1.391 . S
C648 C649 1.400 . S
C649 C643 1.491 . S
C649 C648 1.400 . S
C649 C650 1.398 . S
C650 H638 0.950 . S
C650 C649 1.398 . S
C650 C651 1.391 . S
C651 H639 0.950 . S
C651 C647 1.393 . S
C651 C650 1.391 . S
H652 C660 0.950 . S
H653 C665 0.950 . S
H654 C662 0.950 . S
H655 C664 0.950 . S
H656 C666 0.950 . S
H657 C668 0.950 . S
H658 C670 0.950 . S
H659 C671 0.950 . S
C660 H652 0.950 . S
C660 C661 1.386 . S
C660 C662 1.391 . S
C661 C660 1.386 . S
C661 C665 1.393 . S
C662 H654 0.950 . S
C662 C660 1.391 . S
C662 C663 1.400 . S
C663 C662 1.400 . S
C663 C664 1.398 . S
C663 C669 1.491 . S
C664 H655 0.950 . S
C664 C663 1.398 . S
C664 C665 1.391 . S
C665 H653 0.950 . S
C665 C661 1.393 . S
C665 C664 1.391 . S
C666 H656 0.950 . S
C666 C667 1.386 . S
C666 C668 1.391 . S
C667 C666 1.386 . S
C667 C671 1.393 . S
C668 H657 0.950 . S
C668 C666 1.391 . S
C668 C669 1.400 . S
C669 C663 1.491 . S
C669 C668 1.400 . S
C669 C670 1.398 . S
C670 H658 0.950 . S
C670 C669 1.398 . S
C670 C671 1.391 . S
C671 H659 0.950 . S
C671 C667 1.393 . S
C671 C670 1.391 . S
H672 C680 0.950 . S
H673 C685 0.950 . S
H674 C682 0.950 . S
H675 C684 0.950 . S
H676 C686 0.950 . S
H677 C688 0.950 . S
H678 C690 0.950 . S
H679 C691 0.950 . S
C680 H672 0.950 . S
C680 C681 1.386 . S
C680 C682 1.391 . S
C681 C680 1.386 . S
C681 C685 1.393 . S
C682 H674 0.950 . S
C682 C680 1.391 . S
C682 C683 1.400 . S
C683 C682 1.400 . S
C683 C684 1.398 . S
C683 C689 1.491 . S
C684 H675 0.950 . S
C684 C683 1.398 . S
C684 C685 1.391 . S
C685 H673 0.950 . S
C685 C681 1.393 . S
C685 C684 1.391 . S
C686 H676 0.950 . S
C686 C687 1.386 . S
C686 C688 1.391 . S
C687 C686 1.386 . S
C687 C691 1.393 . S
C688 H677 0.950 . S
C688 C686 1.391 . S
C688 C689 1.400 . S
C689 C683 1.491 . S
C689 C688 1.400 . S
C689 C690 1.398 . S
C690 H678 0.950 . S
C690 C689 1.398 . S
C690 C691 1.391 . S
C691 H679 0.950 . S
C691 C687 1.393 . S
C691 C690 1.391 . S
H692 C700 0.950 . S
H693 C705 0.950 . S
H694 C702 0.950 . S
H695 C704 0.950 . S
H696 C706 0.950 . S
H697 C708 0.950 . S
H698 C710 0.950 . S
H699 C711 0.950 . S
C700 H692 0.950 . S
C700 C701 1.386 . S
C700 C702 1.391 . S
C701 C700 1.386 . S
C701 C705 1.393 . S
C702 H694 0.950 . S
C702 C700 1.391 . S
C702 C703 1.400 . S
C703 C702 1.400 . S
C703 C704 1.398 . S
C703 C709 1.491 . S
C704 H695 0.950 . S
C704 C703 1.398 . S
C704 C705 1.391 . S
C705 H693 0.950 . S
C705 C701 1.393 . S
C705 C704 1.391 . S
C706 H696 0.950 . S
C706 C707 1.386 . S
C706 C708 1.391 . S
C707 C706 1.386 . S
C707 C711 1.393 . S
C708 H697 0.950 . S
C708 C706 1.391 . S
C708 C709 1.400 . S
C709 C703 1.491 . S
C709 C708 1.400 . S
C709 C710 1.398 . S
C710 H698 0.950 . S
C710 C709 1.398 . S
C710 C711 1.391 . S
C711 H699 0.950 . S
C711 C707 1.393 . S
C711 C710 1.391 . S
H712 C720 0.950 . S
H713 C725 0.950 . S
H714 C722 0.950 . S
H715 C724 0.950 . S
H716 C726 0.950 . S
H717 C728 0.950 . S
H718 C730 0.950 . S
H719 C731 0.950 . S
C720 H712 0.950 . S
C720 C721 1.386 . S
C720 C722 1.391 . S
C721 C720 1.386 . S
C721 C725 1.393 . S
C722 H714 0.950 . S
C722 C720 1.391 . S
C722 C723 1.400 . S
C723 C722 1.400 . S
C723 C724 1.398 . S
C723 C729 1.491 . S
C724 H715 0.950 . S
C724 C723 1.398 . S
C724 C725 1.391 . S
C725 H713 0.950 . S
C725 C721 1.393 . S
C725 C724 1.391 . S
C726 H716 0.950 . S
C726 C727 1.386 . S
C726 C728 1.391 . S
C727 C726 1.386 . S
C727 C731 1.393 . S
C728 H717 0.950 . S
C728 C726 1.391 . S
C728 C729 1.400 . S
C729 C723 1.491 . S
C729 C728 1.400 . S
C729 C730 1.398 . S
C730 H718 0.950 . S
C730 C729 1.398 . S
C730 C731 1.391 . S
C731 H719 0.950 . S
C731 C727 1.393 . S
C731 C730 1.391 . S
H732 C740 0.950 . S
H733 C745 0.950 . S
H734 C742 0.950 . S
H735 C744 0.950 . S
H736 C746 0.950 . S
H737 C748 0.950 . S
H738 C750 0.950 . S
H739 C751 0.950 . S
C740 H732 0.950 . S
C740 C741 1.386 . S
C740 C742 1.391 . S
C741 C740 1.386 . S
C741 C745 1.393 . S
C742 H734 0.950 . S
C742 C740 1.391 . S
C742 C743 1.400 . S
C743 C742 1.400 . S
C743 C744 1.398 . S
C743 C749 1.491 . S
C744 H735 0.950 . S
C744 C743 1.398 . S
C744 C745 1.391 . S
C745 H733 0.950 . S
C745 C741 1.393 . S
C745 C744 1.391 . S
C746 H736 0.950 . S
C746 C747 1.386 . S
C746 C748 1.391 . S
C747 C746 1.386 . S
C747 C751 1.393 . S
C748 H737 0.950 . S
C748 C746 1.391 . S
C748 C749 1.400 . S
C749 C743 1.491 . S
C749 C748 1.400 . S
C749 C750 1.398 . S
C750 H738 0.950 . S
C750 C749 1.398 . S
C750 C751 1.391 . S
C751 H739 0.950 . S
C751 C747 1.393 . S
C751 C750 1.391 . S
H752 C760 0.950 . S
H753 C765 0.950 . S
H754 C762 0.950 . S
H755 C764 0.950 . S
H756 C766 0.950 . S
H757 C768 0.950 . S
H758 C770 0.950 . S
H759 C771 0.950 . S
C760 H752 0.950 . S
C760 C761 1.386 . S
C760 C762 1.391 . S
C761 C760 1.386 . S
C761 C765 1.393 . S
C762 H754 0.950 . S
C762 C760 1.391 . S
C762 C763 1.400 . S
C763 C762 1.400 . S
C763 C764 1.398 . S
C763 C769 1.491 . S
C764 H755 0.950 . S
C764 C763 1.398 . S
C764 C765 1.391 . S
C765 H753 0.950 . S
C765 C761 1.393 . S
C765 C764 1.391 . S
C766 H756 0.950 . S
C766 C767 1.386 . S
C766 C768 1.391 . S
C767 C766 1.386 . S
C767 C771 1.393 . S
C768 H757 0.950 . S
C768 C766 1.391 . S
C768 C769 1.400 . S
C769 C763 1.491 . S
C769 C768 1.400 . S
C769 C770 1.398 . S
C770 H758 0.950 . S
C770 C769 1.398 . S
C770 C771 1.391 . S
C771 H759 0.950 . S
C771 C767 1.393 . S
C771 C770 1.391 . S
H772 C780 0.950 . S
H773 C785 0.950 . S
H774 C782 0.950 . S
H775 C784 0.950 . S
H776 C786 0.950 . S
H777 C788 0.950 . S
H778 C790 0.950 . S
H779 C791 0.950 . S
C780 H772 0.950 . S
C780 C781 1.386 . S
C780 C782 1.391 . S
C781 C780 1.386 . S
C781 C785 1.393 . S
C782 H774 0.950 . S
C782 C780 1.391 . S
C782 C783 1.400 . S
C783 C782 1.400 . S
C783 C784 1.398 . S
C783 C789 1.491 . S
C784 H775 0.950 . S
C784 C783 1.398 . S
C784 C785 1.391 . S
C785 H773 0.950 . S
C785 C781 1.393 . S
C785 C784 1.391 . S
C786 H776 0.950 . S
C786 C787 1.386 . S
C786 C788 1.391 . S
C787 C786 1.386 . S
C787 C791 1.393 . S
C788 H777 0.950 . S
C788 C786 1.391 . S
C788 C789 1.400 . S
C789 C783 1.491 . S
C789 C788 1.400 . S
C789 C790 1.398 . S
C790 H778 0.950 . S
C790 C789 1.398 . S
C790 C791 1.391 . S
C791 H779 0.950 . S
C791 C787 1.393 . S
C791 C790 1.391 . S
H792 C800 0.950 . S
H793 C805 0.950 . S
H794 C802 0.950 . S
H795 C804 0.950 . S
H796 C806 0.950 . S
H797 C808 0.950 . S
H798 C810 0.950 . S
H799 C811 0.950 . S
C800 H792 0.950 . S
C800 C801 1.386 . S
C800 C802 1.391 . S
C801 C800 1.386 . S
C801 C805 1.393 . S
C802 H794 0.950 . S
C802 C800 1.391 . S
C802 C803 1.400 . S
C803 C802 1.400 . S
C803 C804 1.398 . S
C803 C809 1.491 . S
C804 H795 0.950 . S
C804 C803 1.398 . S
C804 C805 1.391 . S
C805 H793 0.950 . S
C805 C801 1.393 . S
C805 C804 1.391 . S
C806 H796 0.950 . S
C806 C807 1.386 . S
C806 C808 1.391 . S
C807 C806 1.386 . S
C807 C811 1.393 . S
C808 H797 0.950 . S
C808 C806 1.391 . S
C808 C809 1.400 . S
C809 C803 1.491 . S
C809 C808 1.400 . S
C809 C810 1.398 . S
C810 H798 0.950 . S
C810 C809 1.398 . S
C810 C811 1.391 . S
C811 H799 0.950 . S
C811 C807 1.393 . S
C811 C810 1.391 . S
H812 C820 0.950 . S
H813 C825 0.950 . S
H814 C822 0.950 . S
H815 C824 0.950 . S
H816 C826 0.950 . S
H817 C828 0.950 . S
H818 C830 0.950 . S
H819 C831 0.950 . S
C820 H812 0.950 . S
C820 C821 1.386 . S
C820 C822 1.391 . S
C821 C820 1.386 . S
C821 C825 1.393 . S
C822 H814 0.950 . S
C822 C820 1.391 . S
C822 C823 1.400 . S
C823 C822 1.400 . S
C823 C824 1.398 . S
C823 C829 1.491 . S
C824 H815 0.950 . S
C824 C823 1.398 . S
C824 C825 1.391 . S
C825 H813 0.950 . S
C825 C821 1.393 . S
C825 C824 1.391 . S
C826 H816 0.950 . S
C826 C827 1.386 . S
C826 C828 1.391 . S
C827 C826 1.386 . S
C827 C831 1.393 . S
C828 H817 0.950 . S
C828 C826 1.391 . S
C828 C829 1.400 . S
C829 C823 1.491 . S
C829 C828 1.400 . S
C829 C830 1.398 . S
C830 H818 0.950 . S
C830 C829 1.398 . S
C830 C831 1.391 . S
C831 H819 0.950 . S
C831 C827 1.393 . S
C831 C830 1.391 . S
H832 C840 0.950 . S
H833 C845 0.950 . S
H834 C842 0.950 . S
H835 C844 0.950 . S
H836 C846 0.950 . S
H837 C848 0.950 . S
H838 C850 0.950 . S
H839 C851 0.950 . S
C840 H832 0.950 . S
C840 C841 1.386 . S
C840 C842 1.391 . S
C841 C840 1.386 . S
C841 C845 1.393 . S
C842 H834 0.950 . S
C842 C840 1.391 . S
C842 C843 1.400 . S
C843 C842 1.400 . S
C843 C844 1.398 . S
C843 C849 1.491 . S
C844 H835 0.950 . S
C844 C843 1.398 . S
C844 C845 1.391 . S
C845 H833 0.950 . S
C845 C841 1.393 . S
C845 C844 1.391 . S
C846 H836 0.950 . S
C846 C847 1.386 . S
C846 C848 1.391 . S
C847 C846 1.386 . S
C847 C851 1.393 . S
C848 H837 0.950 . S
C848 C846 1.391 . S
C848 C849 1.400 . S
C849 C843 1.491 . S
C849 C848 1.400 . S
C849 C850 1.398 . S
C850 H838 0.950 . S
C850 C849 1.398 . S
C850 C851 1.391 . S
C851 H839 0.950 . S
C851 C847 1.393 . S
C851 C850 1.391 . S
H852 C860 0.950 . S
H853 C865 0.950 . S
H854 C862 0.950 . S
H855 C864 0.950 . S
H856 C866 0.950 . S
H857 C868 0.950 . S
H858 C870 0.950 . S
H859 C871 0.950 . S
C860 H852 0.950 . S
C860 C861 1.386 . S
C860 C862 1.391 . S
C861 C860 1.386 . S
C861 C865 1.393 . S
C862 H854 0.950 . S
C862 C860 1.391 . S
C862 C863 1.400 . S
C863 C862 1.400 . S
C863 C864 1.398 . S
C863 C869 1.491 . S
C864 H855 0.950 . S
C864 C863 1.398 . S
C864 C865 1.391 . S
C865 H853 0.950 . S
C865 C861 1.393 . S
C865 C864 1.391 . S
C866 H856 0.950 . S
C866 C867 1.386 . S
C866 C868 1.391 . S
C867 C866 1.386 . S
C867 C871 1.393 . S
C868 H857 0.950 . S
C868 C866 1.391 . S
C868 C869 1.400 . S
C869 C863 1.491 . S
C869 C868 1.400 . S
C869 C870 1.398 . S
C870 H858 0.950 . S
C870 C869 1.398 . S
C870 C871 1.391 . S
C871 H859 0.950 . S
C871 C867 1.393 . S
C871 C870 1.391 . S
H872 C880 0.950 . S
H873 C885 0.950 . S
H874 C882 0.950 . S
H875 C884 0.950 . S
H876 C886 0.950 . S
H877 C888 0.950 . S
H878 C890 0.950 . S
H879 C891 0.950 . S
C880 H872 0.950 . S
C880 C881 1.386 . S
C880 C882 1.391 . S
C881 C880 1.386 . S
C881 C885 1.393 . S
C882 H874 0.950 . S
C882 C880 1.391 . S
C882 C883 1.400 . S
C883 C882 1.400 . S
C883 C884 1.398 . S
C883 C889 1.491 . S
C884 H875 0.950 . S
C884 C883 1.398 . S
C884 C885 1.391 . S
C885 H873 0.950 . S
C885 C881 1.393 . S
C885 C884 1.391 . S
C886 H876 0.950 . S
C886 C887 1.386 . S
C886 C888 1.391 . S
C887 C886 1.386 . S
C887 C891 1.393 . S
C888 H877 0.950 . S
C888 C886 1.391 . S
C888 C889 1.400 . S
C889 C883 1.491 . S
C889 C888 1.400 . S
C889 C890 1.398 . S
C890 H878 0.950 . S
C890 C889 1.398 . S
C890 C891 1.391 . S
C891 H879 0.950 . S
C891 C887 1.393 . S
C891 C890 1.391 . S
H892 C900 0.950 . S
H893 C905 0.950 . S
H894 C902 0.950 . S
H895 C904 0.950 . S
H896 C906 0.950 . S
H897 C908 0.950 . S
H898 C910 0.950 . S
H899 C911 0.950 . S
C900 H892 0.950 . S
C900 C901 1.386 . S
C900 C902 1.391 . S
C901 C900 1.386 . S
C901 C905 1.393 . S
C902 H894 0.950 . S
C902 C900 1.391 . S
C902 C903 1.400 . S
C903 C902 1.400 . S
C903 C904 1.398 . S
C903 C909 1.491 . S
C904 H895 0.950 . S
C904 C903 1.398 . S
C904 C905 1.391 . S
C905 H893 0.950 . S
C905 C901 1.393 . S
C905 C904 1.391 . S
C906 H896 0.950 . S
C906 C907 1.386 . S
C906 C908 1.391 . S
C907 C906 1.386 . S
C907 C911 1.393 . S
C908 H897 0.950 . S
C908 C906 1.391 . S
C908 C909 1.400 . S
C909 C903 1.491 . S
C909 C908 1.400 . S
C909 C910 1.398 . S
C910 H898 0.950 . S
C910 C909 1.398 . S
C910 C911 1.391 . S
C911 H899 0.950 . S
C911 C907 1.393 . S
C911 C910 1.391 . S
H912 C920 0.950 . S
H913 C925 0.950 . S
H914 C922 0.950 . S
H915 C924 0.950 . S
H916 C926 0.950 . S
H917 C928 0.950 . S
H918 C930 0.950 . S
H919 C931 0.950 . S
C920 H912 0.950 . S
C920 C921 1.386 . S
C920 C922 1.391 . S
C921 C920 1.386 . S
C921 C925 1.393 . S
C922 H914 0.950 . S
C922 C920 1.391 . S
C922 C923 1.400 . S
C923 C922 1.400 . S
C923 C924 1.398 . S
C923 C929 1.491 . S
C924 H915 0.950 . S
C924 C923 1.398 . S
C924 C925 1.391 . S
C925 H913 0.950 . S
C925 C921 1.393 . S
C925 C924 1.391 . S
C926 H916 0.950 . S
C926 C927 1.386 . S
C926 C928 1.391 . S
C927 C926 1.386 . S
C927 C931 1.393 . S
C928 H917 0.950 . S
C928 C926 1.391 . S
C928 C929 1.400 . S
C929 C923 1.491 . S
C929 C928 1.400 . S
C929 C930 1.398 . S
C930 H918 0.950 . S
C930 C929 1.398 . S
C930 C931 1.391 . S
C931 H919 0.950 . S
C931 C927 1.393 . S
C931 C930 1.391 . S
H932 C940 0.950 . S
H933 C945 0.950 . S
H934 C942 0.950 . S
H935 C944 0.950 . S
H936 C946 0.950 . S
H937 C948 0.950 . S
H938 C950 0.950 . S
H939 C951 0.950 . S
C940 H932 0.950 . S
C940 C941 1.386 . S
C940 C942 1.391 . S
C941 C940 1.386 . S
C941 C945 1.393 . S
C942 H934 0.950 . S
C942 C940 1.391 . S
C942 C943 1.400 . S
C943 C942 1.400 . S
C943 C944 1.398 . S
C943 C949 1.491 . S
C944 H935 0.950 . S
C944 C943 1.398 . S
C944 C945 1.391 . S
C945 H933 0.950 . S
C945 C941 1.393 . S
C945 C944 1.391 . S
C946 H936 0.950 . S
C946 C947 1.386 . S
C946 C948 1.391 . S
C947 C946 1.386 . S
C947 C951 1.393 . S
C948 H937 0.950 . S
C948 C946 1.391 . S
C948 C949 1.400 . S
C949 C943 1.491 . S
C949 C948 1.400 . S
C949 C950 1.398 . S
C950 H938 0.950 . S
C950 C949 1.398 . S
C950 C951 1.391 . S
C951 H939 0.950 . S
C951 C947 1.393 . S
C951 C950 1.391 . S
H952 C960 0.950 . S
H953 C965 0.950 . S
H954 C962 0.950 . S
H955 C964 0.950 . S
H956 C966 0.950 . S
H957 C968 0.950 . S
H958 C970 0.950 . S
H959 C971 0.950 . S
C960 H952 0.950 . S
C960 C961 1.386 . S
C960 C962 1.391 . S
C961 C960 1.386 . S
C961 C965 1.393 . S
C962 H954 0.950 . S
C962 C960 1.391 . S
C962 C963 1.400 . S
C963 C962 1.400 . S
C963 C964 1.398 . S
C963 C969 1.491 . S
C964 H955 0.950 . S
C964 C963 1.398 . S
C964 C965 1.391 . S
C965 H953 0.950 . S
C965 C961 1.393 . S
C965 C964 1.391 . S
C966 H956 0.950 . S
C966 C967 1.386 . S
C966 C968 1.391 . S
C967 C966 1.386 . S
C967 C971 1.393 . S
C968 H957 0.950 . S
C968 C966 1.391 . S
C968 C969 1.400 . S
C969 C963 1.491 . S
C969 C968 1.400 . S
C969 C970 1.398 . S
C970 H958 0.950 . S
C970 C969 1.398 . S
C970 C971 1.391 . S
C971 H959 0.950 . S
C971 C967 1.393 . S
C971 C970 1.391 . S
H972 C980 0.950 . S
H973 C985 0.950 . S
H974 C982 0.950 . S
H975 C984 0.950 . S
H976 C986 0.950 . S
H977 C988 0.950 . S
H978 C990 0.950 . S
H979 C991 0.950 . S
C980 H972 0.950 . S
C980 C981 1.386 . S
C980 C982 1.391 . S
C981 C980 1.386 . S
C981 C985 1.393 . S
C982 H974 0.950 . S
C982 C980 1.391 . S
C982 C983 1.400 . S
C983 C982 1.400 . S
C983 C984 1.398 . S
C983 C989 1.491 . S
C984 H975 0.950 . S
C984 C983 1.398 . S
C984 C985 1.391 . S
C985 H973 0.950 . S
C985 C981 1.393 . S
C985 C984 1.391 . S
C986 H976 0.950 . S
C986 C987 1.386 . S
C986 C988 1.391 . S
C987 C986 1.386 . S
C987 C991 1.393 . S
C988 H977 0.950 . S
C988 C986 1.391 . S
C988 C989 1.400 . S
C989 C983 1.491 . S
C989 C988 1.400 . S
C989 C990 1.398 . S
C990 H978 0.950 . S
C990 C989 1.398 . S
C990 C991 1.391 . S
C991 H979 0.950 . S
C991 C987 1.393 . S
C991 C990 1.391 . S
H992 C1000 0.950 . S
H993 C1005 0.950 . S
H994 C1002 0.950 . S
H995 C1004 0.950 . S
H996 C1006 0.950 . S
H997 C1008 0.950 . S
H998 C1010 0.950 . S
H999 C1011 0.950 . S
C1000 H992 0.950 . S
C1000 C1001 1.386 . S
C1000 C1002 1.391 . S
C1001 C1000 1.386 . S
C1001 C1005 1.393 . S
C1002 H994 0.950 . S
C1002 C1000 1.391 . S
C1002 C1003 1.400 . S
C1003 C1002 1.400 . S
C1003 C1004 1.398 . S
C1003 C1009 1.491 . S
C1004 H995 0.950 . S
C1004 C1003 1.398 . S
C1004 C1005 1.391 . S
C1005 H993 0.950 . S
C1005 C1001 1.393 . S
C1005 C1004 1.391 . S
C1006 H996 0.950 . S
C1006 C1007 1.386 . S
C1006 C1008 1.391 . S
C1007 C1006 1.386 . S
C1007 C1011 1.393 . S
C1008 H997 0.950 . S
C1008 C1006 1.391 . S
C1008 C1009 1.400 . S
C1009 C1003 1.491 . S
C1009 C1008 1.400 . S
C1009 C1010 1.398 . S
C1010 H998 0.950 . S
C1010 C1009 1.398 . S
C1010 C1011 1.391 . S
C1011 H999 0.950 . S
C1011 C1007 1.393 . S
C1011 C1010 1.391 . S
H1012 C1020 0.950 . S
H1013 C1025 0.950 . S
H1014 C1022 0.950 . S
H1015 C1024 0.950 . S
H1016 C1026 0.950 . S
H1017 C1028 0.950 . S
H1018 C1030 0.950 . S
H1019 C1031 0.950 . S
C1020 H1012 0.950 . S
C1020 C1021 1.386 . S
C1020 C1022 1.391 . S
C1021 C1020 1.386 . S
C1021 C1025 1.393 . S
C1022 H1014 0.950 . S
C1022 C1020 1.391 . S
C1022 C1023 1.400 . S
C1023 C1022 1.400 . S
C1023 C1024 1.398 . S
C1023 C1029 1.491 . S
C1024 H1015 0.950 . S
C1024 C1023 1.398 . S
C1024 C1025 1.391 . S
C1025 H1013 0.950 . S
C1025 C1021 1.393 . S
C1025 C1024 1.391 . S
C1026 H1016 0.950 . S
C1026 C1027 1.386 . S
C1026 C1028 1.391 . S
C1027 C1026 1.386 . S
C1027 C1031 1.393 . S
C1028 H1017 0.950 . S
C1028 C1026 1.391 . S
C1028 C1029 1.400 . S
C1029 C1023 1.491 . S
C1029 C1028 1.400 . S
C1029 C1030 1.398 . S
C1030 H1018 0.950 . S
C1030 C1029 1.398 . S
C1030 C1031 1.391 . S
C1031 H1019 0.950 . S
C1031 C1027 1.393 . S
C1031 C1030 1.391 . S
H1032 C1040 0.950 . S
H1033 C1045 0.950 . S
H1034 C1042 0.950 . S
H1035 C1044 0.950 . S
H1036 C1046 0.950 . S
H1037 C1048 0.950 . S
H1038 C1050 0.950 . S
H1039 C1051 0.950 . S
C1040 H1032 0.950 . S
C1040 C1041 1.386 . S
C1040 C1042 1.391 . S
C1041 C1040 1.386 . S
C1041 C1045 1.393 . S
C1042 H1034 0.950 . S
C1042 C1040 1.391 . S
C1042 C1043 1.400 . S
C1043 C1042 1.400 . S
C1043 C1044 1.398 . S
C1043 C1049 1.491 . S
C1044 H1035 0.950 . S
C1044 C1043 1.398 . S
C1044 C1045 1.391 . S
C1045 H1033 0.950 . S
C1045 C1041 1.393 . S
C1045 C1044 1.391 . S
C1046 H1036 0.950 . S
C1046 C1047 1.386 . S
C1046 C1048 1.391 . S
C1047 C1046 1.386 . S
C1047 C1051 1.393 . S
C1048 H1037 0.950 . S
C1048 C1046 1.391 . S
C1048 C1049 1.400 . S
C1049 C1043 1.491 . S
C1049 C1048 1.400 . S
C1049 C1050 1.398 . S
C1050 H1038 0.950 . S
C1050 C1049 1.398 . S
C1050 C1051 1.391 . S
C1051 H1039 0.950 . S
C1051 C1047 1.393 . S
C1051 C1050 1.391 . S
H1052 C1060 0.950 . S
H1053 C1065 0.950 . S
H1054 C1062 0.950 . S
H1055 C1064 0.950 . S
H1056 C1066 0.950 . S
H1057 C1068 0.950 . S
H1058 C1070 0.950 . S
H1059 C1071 0.950 . S
C1060 H1052 0.950 . S
C1060 C1061 1.386 . S
C1060 C1062 1.391 . S
C1061 C1060 1.386 . S
C1061 C1065 1.393 . S
C1062 H1054 0.950 . S
C1062 C1060 1.391 . S
C1062 C1063 1.400 . S
C1063 C1062 1.400 . S
C1063 C1064 1.398 . S
C1063 C1069 1.491 . S
C1064 H1055 0.950 . S
C1064 C1063 1.398 . S
C1064 C1065 1.391 . S
C1065 H1053 0.950 . S
C1065 C1061 1.393 . S
C1065 C1064 1.391 . S
C1066 H1056 0.950 . S
C1066 C1067 1.386 . S
C1066 C1068 1.391 . S
C1067 C1066 1.386 . S
C1067 C1071 1.393 . S
C1068 H1057 0.950 . S
C1068 C1066 1.391 . S
C1068 C1069 1.400 . S
C1069 C1063 1.491 . S
C1069 C1068 1.400 . S
C1069 C1070 1.398 . S
C1070 H1058 0.950 . S
C1070 C1069 1.398 . S
C1070 C1071 1.391 . S
C1071 H1059 0.950 . S
C1071 C1067 1.393 . S
C1071 C1070 1.391 . S
H1072 C1080 0.950 . S
H1073 C1085 0.950 . S
H1074 C1082 0.950 1_545 S
H1075 C1084 0.950 . S
H1076 C1086 0.950 . S
H1077 C1088 0.940 1_565 S
H1078 C1090 0.950 . S
H1079 C1091 0.950 . S
C1080 H1072 0.950 . S
C1080 C1081 1.386 . S
C1080 C1082 1.391 . S
C1081 C1080 1.386 . S
C1081 C1085 1.393 . S
C1082 H1074 0.950 1_565 S
C1082 C1080 1.391 . S
C1082 C1083 1.400 . S
C1083 C1082 1.400 . S
C1083 C1084 1.398 . S
C1083 C1089 1.491 1_565 S
C1084 H1075 0.950 . S
C1084 C1083 1.398 . S
C1084 C1085 1.391 . S
C1085 H1073 0.950 . S
C1085 C1081 1.393 . S
C1085 C1084 1.391 . S
C1086 H1076 0.950 . S
C1086 C1087 1.386 . S
C1086 C1088 1.398 . S
C1087 C1086 1.386 . S
C1087 C1091 1.393 . S
C1088 H1077 0.940 1_545 S
C1088 C1086 1.398 . S
C1088 C1089 1.403 . S
C1089 C1083 1.491 1_545 S
C1089 C1088 1.403 . S
C1089 C1090 1.398 . S
C1090 H1078 0.950 . S
C1090 C1089 1.398 . S
C1090 C1091 1.391 . S
C1091 H1079 0.950 . S
C1091 C1087 1.393 . S
C1091 C1090 1.391 . S
H1092 C1100 0.950 . S
H1093 C1105 0.950 . S
H1094 C1102 0.950 . S
H1095 C1104 0.950 1_655 S
H1096 C1106 0.950 . S
H1097 C1108 0.950 . S
H1098 C1110 0.928 1_455 S
H1099 C1111 0.950 . S
C1100 H1092 0.950 . S
C1100 C1101 1.386 . S
C1100 C1102 1.391 . S
C1101 C1100 1.386 . S
C1101 C1105 1.393 . S
C1102 H1094 0.950 . S
C1102 C1100 1.391 . S
C1102 C1103 1.400 . S
C1103 C1102 1.400 . S
C1103 C1104 1.398 . S
C1103 C1109 1.491 1_455 S
C1104 H1095 0.950 1_455 S
C1104 C1103 1.398 . S
C1104 C1105 1.391 . S
C1105 H1093 0.950 . S
C1105 C1101 1.393 . S
C1105 C1104 1.391 . S
C1106 H1096 0.950 . S
C1106 C1107 1.386 . S
C1106 C1108 1.391 . S
C1107 C1106 1.386 . S
C1107 C1111 1.393 . S
C1108 H1097 0.950 . S
C1108 C1106 1.391 . S
C1108 C1109 1.400 . S
C1109 C1103 1.491 1_655 S
C1109 C1108 1.400 . S
C1109 C1110 1.398 . S
C1110 H1098 0.928 1_655 S
C1110 C1109 1.398 . S
C1110 C1111 1.391 . S
C1111 H1099 0.950 . S
C1111 C1107 1.393 . S
C1111 C1110 1.391 . S
H1112 C1120 0.950 . S
H1113 C1125 0.950 . S
H1114 C1122 0.950 . S
H1115 C1124 0.950 . S
H1116 C1126 0.950 . S
H1117 C1128 0.950 . S
H1118 C1130 0.950 . S
H1119 C1131 0.950 . S
C1120 H1112 0.950 . S
C1120 C1121 1.386 . S
C1120 C1122 1.391 . S
C1121 C1120 1.386 . S
C1121 C1125 1.393 . S
C1122 H1114 0.950 . S
C1122 C1120 1.391 . S
C1122 C1123 1.400 . S
C1123 C1122 1.400 . S
C1123 C1124 1.398 . S
C1123 C1129 1.491 . S
C1124 H1115 0.950 . S
C1124 C1123 1.398 . S
C1124 C1125 1.391 . S
C1125 H1113 0.950 . S
C1125 C1121 1.393 . S
C1125 C1124 1.391 . S
C1126 H1116 0.950 . S
C1126 C1127 1.386 . S
C1126 C1128 1.391 1_545 S
C1127 C1126 1.386 . S
C1127 C1131 1.393 . S
C1128 H1117 0.950 . S
C1128 C1126 1.391 1_565 S
C1128 C1129 1.400 . S
C1129 C1123 1.491 . S
C1129 C1128 1.400 . S
C1129 C1130 1.398 1_565 S
C1130 H1118 0.950 . S
C1130 C1129 1.398 1_545 S
C1130 C1131 1.391 . S
C1131 H1119 0.950 . S
C1131 C1127 1.393 . S
C1131 C1130 1.391 . S
H1132 C1140 0.950 . S
H1133 C1145 0.950 . S
H1134 C1142 0.950 . S
H1135 C1144 0.950 . S
H1136 C1146 0.950 . S
H1137 C1148 0.950 . S
H1138 C1150 0.950 . S
H1139 C1151 0.950 . S
C1140 H1132 0.950 . S
C1140 C1141 1.386 . S
C1140 C1142 1.391 . S
C1141 C1140 1.386 . S
C1141 C1145 1.393 . S
C1142 H1134 0.950 . S
C1142 C1140 1.391 . S
C1142 C1143 1.400 . S
C1143 C1142 1.400 . S
C1143 C1144 1.398 . S
C1143 C1149 1.491 1_655 S
C1144 H1135 0.950 . S
C1144 C1143 1.398 . S
C1144 C1145 1.391 . S
C1145 H1133 0.950 . S
C1145 C1141 1.393 . S
C1145 C1144 1.391 . S
C1146 H1136 0.950 . S
C1146 C1147 1.386 . S
C1146 C1148 1.391 . S
C1147 C1146 1.386 . S
C1147 C1151 1.393 . S
C1148 H1137 0.950 . S
C1148 C1146 1.391 . S
C1148 C1149 1.400 . S
C1149 C1143 1.491 1_455 S
C1149 C1148 1.400 . S
C1149 C1150 1.398 . S
C1150 H1138 0.950 . S
C1150 C1149 1.398 . S
C1150 C1151 1.391 . S
C1151 H1139 0.950 . S
C1151 C1147 1.393 . S
C1151 C1150 1.391 . S
H1152 C1160 0.950 . S
H1153 C1165 0.950 . S
H1154 C1162 0.950 . S
H1155 C1164 0.950 . S
H1156 C1166 0.950 . S
H1157 C1168 0.950 . S
H1158 C1170 0.950 . S
H1159 C1171 0.950 . S
C1160 H1152 0.950 . S
C1160 C1161 1.386 . S
C1160 C1162 1.391 . S
C1161 C1160 1.386 . S
C1161 C1165 1.393 . S
C1162 H1154 0.950 . S
C1162 C1160 1.391 . S
C1162 C1163 1.400 . S
C1163 C1162 1.400 . S
C1163 C1164 1.398 . S
C1163 C1169 1.491 . S
C1164 H1155 0.950 . S
C1164 C1163 1.398 . S
C1164 C1165 1.391 . S
C1165 H1153 0.950 . S
C1165 C1161 1.393 . S
C1165 C1164 1.391 . S
C1166 H1156 0.950 . S
C1166 C1167 1.386 . S
C1166 C1168 1.391 . S
C1167 C1166 1.386 . S
C1167 C1171 1.393 . S
C1168 H1157 0.950 . S
C1168 C1166 1.391 . S
C1168 C1169 1.400 . S
C1169 C1163 1.491 . S
C1169 C1168 1.400 . S
C1169 C1170 1.398 . S
C1170 H1158 0.950 . S
C1170 C1169 1.398 . S
C1170 C1171 1.391 . S
C1171 H1159 0.950 . S
C1171 C1167 1.393 . S
C1171 C1170 1.391 . S
H1172 C1180 0.950 . S
H1173 C1185 0.950 . S
H1174 C1182 0.950 . S
H1175 C1184 0.950 . S
H1176 C1186 0.950 . S
H1177 C1188 0.950 . S
H1178 C1190 0.950 . S
H1179 C1191 0.950 . S
C1180 H1172 0.950 . S
C1180 C1181 1.386 . S
C1180 C1182 1.391 . S
C1181 C1180 1.386 . S
C1181 C1185 1.393 . S
C1182 H1174 0.950 . S
C1182 C1180 1.391 . S
C1182 C1183 1.400 . S
C1183 C1182 1.400 . S
C1183 C1184 1.398 . S
C1183 C1189 1.491 . S
C1184 H1175 0.950 . S
C1184 C1183 1.398 . S
C1184 C1185 1.391 . S
C1185 H1173 0.950 . S
C1185 C1181 1.393 . S
C1185 C1184 1.391 . S
C1186 H1176 0.950 . S
C1186 C1187 1.386 . S
C1186 C1188 1.391 . S
C1187 C1186 1.386 . S
C1187 C1191 1.393 . S
C1188 H1177 0.950 . S
C1188 C1186 1.391 . S
C1188 C1189 1.400 . S
C1189 C1183 1.491 . S
C1189 C1188 1.400 . S
C1189 C1190 1.398 . S
C1190 H1178 0.950 . S
C1190 C1189 1.398 . S
C1190 C1191 1.391 . S
C1191 H1179 0.950 . S
C1191 C1187 1.393 . S
C1191 C1190 1.391 . S
H1192 C1200 0.950 . S
H1193 C1205 0.950 . S
H1194 C1202 0.950 . S
H1195 C1204 0.950 . S
H1196 C1206 0.950 . S
H1197 C1208 0.950 . S
H1198 C1210 0.950 . S
H1199 C1211 0.950 . S
C1200 H1192 0.950 . S
C1200 C1201 1.386 . S
C1200 C1202 1.391 . S
C1201 C1200 1.386 . S
C1201 C1205 1.393 . S
C1202 H1194 0.950 . S
C1202 C1200 1.391 . S
C1202 C1203 1.400 . S
C1203 C1202 1.400 . S
C1203 C1204 1.398 . S
C1203 C1209 1.491 . S
C1204 H1195 0.950 . S
C1204 C1203 1.398 . S
C1204 C1205 1.391 . S
C1205 H1193 0.950 . S
C1205 C1201 1.393 . S
C1205 C1204 1.391 . S
C1206 H1196 0.950 . S
C1206 C1207 1.386 . S
C1206 C1208 1.391 . S
C1207 C1206 1.386 . S
C1207 C1211 1.393 . S
C1208 H1197 0.950 . S
C1208 C1206 1.391 . S
C1208 C1209 1.400 . S
C1209 C1203 1.491 . S
C1209 C1208 1.400 . S
C1209 C1210 1.398 . S
C1210 H1198 0.950 . S
C1210 C1209 1.398 . S
C1210 C1211 1.391 . S
C1211 H1199 0.950 . S
C1211 C1207 1.393 . S
C1211 C1210 1.391 . S
H1212 C1220 0.950 . S
H1213 C1225 0.950 . S
H1214 C1222 0.950 . S
H1215 C1224 0.950 . S
H1216 C1226 0.950 . S
H1217 C1228 0.950 1_554 S
H1218 C1230 0.950 . S
H1219 C1231 0.950 . S
C1220 H1212 0.950 . S
C1220 C1221 1.386 . S
C1220 C1222 1.391 . S
C1221 C1220 1.386 . S
C1221 C1225 1.393 . S
C1222 H1214 0.950 . S
C1222 C1220 1.391 . S
C1222 C1223 1.400 . S
C1223 C1222 1.400 . S
C1223 C1224 1.398 . S
C1223 C1229 1.490 1_554 S
C1224 H1215 0.950 . S
C1224 C1223 1.398 . S
C1224 C1225 1.391 . S
C1225 H1213 0.950 . S
C1225 C1221 1.393 . S
C1225 C1224 1.391 . S
C1226 H1216 0.950 . S
C1226 C1227 1.386 . S
C1226 C1228 1.391 . S
C1227 C1226 1.386 . S
C1227 C1231 1.393 . S
C1228 H1217 0.950 1_556 S
C1228 C1226 1.391 . S
C1228 C1229 1.400 . S
C1229 C1223 1.490 1_556 S
C1229 C1228 1.400 . S
C1229 C1230 1.399 . S
C1230 H1218 0.950 . S
C1230 C1229 1.399 . S
C1230 C1231 1.391 . S
C1231 H1219 0.950 . S
C1231 C1227 1.393 . S
C1231 C1230 1.391 . S
H1232 C1240 0.950 . S
H1233 C1245 0.950 . S
H1234 C1242 0.950 . S
H1235 C1244 0.950 . S
H1236 C1246 0.950 . S
H1237 C1248 0.950 . S
H1238 C1250 0.950 . S
H1239 C1251 0.950 . S
C1240 H1232 0.950 . S
C1240 C1241 1.386 . S
C1240 C1242 1.391 . S
C1241 C1240 1.386 . S
C1241 C1245 1.393 . S
C1242 H1234 0.950 . S
C1242 C1240 1.391 . S
C1242 C1243 1.400 . S
C1243 C1242 1.400 . S
C1243 C1244 1.398 . S
C1243 C1249 1.491 . S
C1244 H1235 0.950 . S
C1244 C1243 1.398 . S
C1244 C1245 1.391 . S
C1245 H1233 0.950 . S
C1245 C1241 1.393 . S
C1245 C1244 1.391 . S
C1246 H1236 0.950 . S
C1246 C1247 1.386 . S
C1246 C1248 1.391 . S
C1247 C1246 1.386 . S
C1247 C1251 1.393 . S
C1248 H1237 0.950 . S
C1248 C1246 1.391 . S
C1248 C1249 1.400 . S
C1249 C1243 1.491 . S
C1249 C1248 1.400 . S
C1249 C1250 1.398 . S
C1250 H1238 0.950 . S
C1250 C1249 1.398 . S
C1250 C1251 1.391 . S
C1251 H1239 0.950 . S
C1251 C1247 1.393 . S
C1251 C1250 1.391 . S
H1252 C1260 0.950 . S
H1253 C1265 0.950 . S
H1254 C1262 0.945 . S
H1255 C1264 0.950 . S
H1256 C1266 0.950 . S
H1257 C1268 0.950 . S
H1258 C1270 0.950 . S
H1259 C1271 0.950 . S
C1260 H1252 0.950 . S
C1260 C1261 1.386 . S
C1260 C1262 1.396 1_556 S
C1261 C1260 1.386 . S
C1261 C1265 1.393 . S
C1262 H1254 0.945 . S
C1262 C1260 1.396 1_554 S
C1262 C1263 1.400 1_554 S
C1263 C1262 1.400 1_556 S
C1263 C1264 1.396 . S
C1263 C1269 1.493 1_556 S
C1264 H1255 0.950 . S
C1264 C1263 1.396 . S
C1264 C1265 1.391 . S
C1265 H1253 0.950 . S
C1265 C1261 1.393 . S
C1265 C1264 1.391 . S
C1266 H1256 0.950 . S
C1266 C1267 1.386 . S
C1266 C1268 1.391 . S
C1267 C1266 1.386 . S
C1267 C1271 1.393 . S
C1268 H1257 0.950 . S
C1268 C1266 1.391 . S
C1268 C1269 1.400 . S
C1269 C1263 1.493 1_554 S
C1269 C1268 1.400 . S
C1269 C1270 1.398 . S
C1270 H1258 0.950 . S
C1270 C1269 1.398 . S
C1270 C1271 1.391 . S
C1271 H1259 0.950 . S
C1271 C1267 1.393 . S
C1271 C1270 1.391 . S
H1272 C1280 0.950 . S
H1273 C1285 0.950 . S
H1274 C1282 0.950 . S
H1275 C1284 0.950 . S
H1276 C1286 0.950 . S
H1277 C1288 0.950 . S
H1278 C1290 0.950 . S
H1279 C1291 0.950 . S
C1280 H1272 0.950 . S
C1280 C1281 1.386 . S
C1280 C1282 1.391 . S
C1281 C1280 1.386 . S
C1281 C1285 1.393 . S
C1282 H1274 0.950 . S
C1282 C1280 1.391 . S
C1282 C1283 1.400 . S
C1283 C1282 1.400 . S
C1283 C1284 1.398 . S
C1283 C1289 1.491 . S
C1284 H1275 0.950 . S
C1284 C1283 1.398 . S
C1284 C1285 1.391 . S
C1285 H1273 0.950 . S
C1285 C1281 1.393 . S
C1285 C1284 1.391 . S
C1286 H1276 0.950 . S
C1286 C1287 1.386 . S
C1286 C1288 1.391 . S
C1287 C1286 1.386 . S
C1287 C1291 1.393 . S
C1288 H1277 0.950 . S
C1288 C1286 1.391 . S
C1288 C1289 1.400 . S
C1289 C1283 1.491 . S
C1289 C1288 1.400 . S
C1289 C1290 1.398 . S
C1290 H1278 0.950 . S
C1290 C1289 1.398 . S
C1290 C1291 1.391 . S
C1291 H1279 0.950 . S
C1291 C1287 1.393 . S
C1291 C1290 1.391 . S
H1292 C1300 0.950 . S
H1293 C1305 0.950 . S
H1294 C1302 0.950 . S
H1295 C1304 0.950 . S
H1296 C1306 0.950 . S
H1297 C1308 0.950 . S
H1298 C1310 0.950 . S
H1299 C1311 0.950 . S
C1300 H1292 0.950 . S
C1300 C1301 1.386 . S
C1300 C1302 1.391 . S
C1301 C1300 1.386 . S
C1301 C1305 1.393 . S
C1302 H1294 0.950 . S
C1302 C1300 1.391 . S
C1302 C1303 1.400 . S
C1303 C1302 1.400 . S
C1303 C1304 1.398 . S
C1303 C1309 1.491 . S
C1304 H1295 0.950 . S
C1304 C1303 1.398 . S
C1304 C1305 1.391 . S
C1305 H1293 0.950 . S
C1305 C1301 1.393 . S
C1305 C1304 1.391 . S
C1306 H1296 0.950 . S
C1306 C1307 1.386 . S
C1306 C1308 1.391 . S
C1307 C1306 1.386 . S
C1307 C1311 1.393 . S
C1308 H1297 0.950 . S
C1308 C1306 1.391 . S
C1308 C1309 1.400 . S
C1309 C1303 1.491 . S
C1309 C1308 1.400 . S
C1309 C1310 1.398 . S
C1310 H1298 0.950 . S
C1310 C1309 1.398 . S
C1310 C1311 1.391 . S
C1311 H1299 0.950 . S
C1311 C1307 1.393 . S
C1311 C1310 1.391 . S
H1312 C1320 0.950 . S
H1313 C1325 0.950 . S
H1314 C1322 0.945 . S
H1315 C1324 0.950 . S
H1316 C1326 0.950 . S
H1317 C1328 0.950 1_545 S
H1318 C1330 0.950 . S
H1319 C1331 0.950 . S
C1320 H1312 0.950 . S
C1320 C1321 1.386 . S
C1320 C1322 1.391 . S
C1321 C1320 1.386 . S
C1321 C1325 1.393 . S
C1322 H1314 0.945 . S
C1322 C1320 1.391 . S
C1322 C1323 1.400 . S
C1323 C1322 1.400 . S
C1323 C1324 1.398 . S
C1323 C1329 1.491 1_545 S
C1324 H1315 0.950 . S
C1324 C1323 1.398 . S
C1324 C1325 1.391 . S
C1325 H1313 0.950 . S
C1325 C1321 1.393 . S
C1325 C1324 1.391 . S
C1326 H1316 0.950 . S
C1326 C1327 1.386 . S
C1326 C1328 1.391 . S
C1327 C1326 1.386 . S
C1327 C1331 1.393 . S
C1328 H1317 0.950 1_565 S
C1328 C1326 1.391 . S
C1328 C1329 1.400 . S
C1329 C1323 1.491 1_565 S
C1329 C1328 1.400 . S
C1329 C1330 1.398 . S
C1330 H1318 0.950 . S
C1330 C1329 1.398 . S
C1330 C1331 1.391 . S
C1331 H1319 0.950 . S
C1331 C1327 1.393 . S
C1331 C1330 1.391 . S
H1332 C1340 0.950 . S
H1333 C1345 0.950 . S
H1334 C1342 0.950 . S
H1335 C1344 0.945 1_655 S
H1336 C1346 0.950 . S
H1337 C1348 0.950 . S
H1338 C1350 0.950 1_455 S
H1339 C1351 0.950 . S
C1340 H1332 0.950 . S
C1340 C1341 1.386 . S
C1340 C1342 1.391 . S
C1341 C1340 1.386 . S
C1341 C1345 1.393 . S
C1342 H1334 0.950 . S
C1342 C1340 1.391 . S
C1342 C1343 1.400 . S
C1343 C1342 1.400 . S
C1343 C1344 1.398 . S
C1343 C1349 1.491 1_455 S
C1344 H1335 0.945 1_455 S
C1344 C1343 1.398 . S
C1344 C1345 1.391 . S
C1345 H1333 0.950 . S
C1345 C1341 1.393 . S
C1345 C1344 1.391 . S
C1346 H1336 0.950 . S
C1346 C1347 1.386 . S
C1346 C1348 1.391 . S
C1347 C1346 1.386 . S
C1347 C1351 1.393 . S
C1348 H1337 0.950 . S
C1348 C1346 1.391 . S
C1348 C1349 1.400 . S
C1349 C1343 1.491 1_655 S
C1349 C1348 1.400 . S
C1349 C1350 1.398 . S
C1350 H1338 0.950 1_655 S
C1350 C1349 1.398 . S
C1350 C1351 1.391 . S
C1351 H1339 0.950 . S
C1351 C1347 1.393 . S
C1351 C1350 1.391 . S
H1352 C1360 0.950 . S
H1353 C1365 0.950 . S
H1354 C1362 0.950 . S
H1355 C1364 0.950 . S
H1356 C1366 0.950 . S
H1357 C1368 0.950 1_545 S
H1358 C1370 0.950 . S
H1359 C1371 0.950 . S
C1360 H1352 0.950 . S
C1360 C1361 1.386 . S
C1360 C1362 1.391 . S
C1361 C1360 1.386 . S
C1361 C1365 1.393 . S
C1362 H1354 0.950 . S
C1362 C1360 1.391 . S
C1362 C1363 1.400 . S
C1363 C1362 1.400 . S
C1363 C1364 1.398 . S
C1363 C1369 1.491 . S
C1364 H1355 0.950 . S
C1364 C1363 1.398 . S
C1364 C1365 1.391 . S
C1365 H1353 0.950 . S
C1365 C1361 1.393 . S
C1365 C1364 1.391 . S
C1366 H1356 0.950 . S
C1366 C1367 1.386 . S
C1366 C1368 1.391 . S
C1367 C1366 1.386 . S
C1367 C1371 1.393 . S
C1368 H1357 0.950 1_565 S
C1368 C1366 1.391 . S
C1368 C1369 1.400 1_565 S
C1369 C1363 1.491 . S
C1369 C1368 1.400 1_545 S
C1369 C1370 1.398 1_545 S
C1370 H1358 0.950 . S
C1370 C1369 1.398 1_565 S
C1370 C1371 1.391 . S
C1371 H1359 0.950 . S
C1371 C1367 1.393 . S
C1371 C1370 1.391 . S
H1372 C1380 0.950 . S
H1373 C1385 0.950 . S
H1374 C1382 0.950 1_655 S
H1375 C1384 0.950 . S
H1376 C1386 0.950 . S
H1377 C1388 0.950 . S
H1378 C1390 0.950 . S
H1379 C1391 0.950 . S
C1380 H1372 0.950 . S
C1380 C1381 1.386 . S
C1380 C1382 1.391 . S
C1381 C1380 1.386 . S
C1381 C1385 1.393 . S
C1382 H1374 0.950 1_455 S
C1382 C1380 1.391 . S
C1382 C1383 1.400 . S
C1383 C1382 1.400 . S
C1383 C1384 1.398 . S
C1383 C1389 1.491 1_455 S
C1384 H1375 0.950 . S
C1384 C1383 1.398 . S
C1384 C1385 1.391 . S
C1385 H1373 0.950 . S
C1385 C1381 1.393 . S
C1385 C1384 1.391 . S
C1386 H1376 0.950 . S
C1386 C1387 1.386 . S
C1386 C1388 1.391 . S
C1387 C1386 1.386 . S
C1387 C1391 1.393 . S
C1388 H1377 0.950 . S
C1388 C1386 1.391 . S
C1388 C1389 1.400 . S
C1389 C1383 1.491 1_655 S
C1389 C1388 1.400 . S
C1389 C1390 1.398 . S
C1390 H1378 0.950 . S
C1390 C1389 1.398 . S
C1390 C1391 1.391 . S
C1391 H1379 0.950 . S
C1391 C1387 1.393 . S
C1391 C1390 1.391 . S
H1392 C1400 0.950 . S
H1393 C1405 0.950 . S
H1394 C1402 0.950 . S
H1395 C1404 0.950 . S
H1396 C1406 0.950 . S
H1397 C1408 0.950 . S
H1398 C1410 0.950 . S
H1399 C1411 0.950 . S
C1400 H1392 0.950 . S
C1400 C1401 1.386 . S
C1400 C1402 1.391 . S
C1401 C1400 1.386 . S
C1401 C1405 1.393 . S
C1402 H1394 0.950 . S
C1402 C1400 1.391 . S
C1402 C1403 1.400 . S
C1403 C1402 1.400 . S
C1403 C1404 1.398 . S
C1403 C1409 1.491 . S
C1404 H1395 0.950 . S
C1404 C1403 1.398 . S
C1404 C1405 1.391 . S
C1405 H1393 0.950 . S
C1405 C1401 1.393 . S
C1405 C1404 1.391 . S
C1406 H1396 0.950 . S
C1406 C1407 1.386 . S
C1406 C1408 1.391 . S
C1407 C1406 1.386 . S
C1407 C1411 1.393 . S
C1408 H1397 0.950 . S
C1408 C1406 1.391 . S
C1408 C1409 1.400 . S
C1409 C1403 1.491 . S
C1409 C1408 1.400 . S
C1409 C1410 1.398 . S
C1410 H1398 0.950 . S
C1410 C1409 1.398 . S
C1410 C1411 1.391 . S
C1411 H1399 0.950 . S
C1411 C1407 1.393 . S
C1411 C1410 1.391 . S
H1412 C1420 0.950 . S
H1413 C1425 0.950 . S
H1414 C1422 0.950 . S
H1415 C1424 0.950 . S
H1416 C1426 0.950 . S
H1417 C1428 0.950 . S
H1418 C1430 0.950 . S
H1419 C1431 0.950 . S
C1420 H1412 0.950 . S
C1420 C1421 1.386 . S
C1420 C1422 1.391 . S
C1421 C1420 1.386 . S
C1421 C1425 1.393 . S
C1422 H1414 0.950 . S
C1422 C1420 1.391 . S
C1422 C1423 1.400 . S
C1423 C1422 1.400 . S
C1423 C1424 1.398 . S
C1423 C1429 1.491 . S
C1424 H1415 0.950 . S
C1424 C1423 1.398 . S
C1424 C1425 1.391 . S
C1425 H1413 0.950 . S
C1425 C1421 1.393 . S
C1425 C1424 1.391 . S
C1426 H1416 0.950 . S
C1426 C1427 1.386 . S
C1426 C1428 1.391 . S
C1427 C1426 1.386 . S
C1427 C1431 1.393 . S
C1428 H1417 0.950 . S
C1428 C1426 1.391 . S
C1428 C1429 1.400 . S
C1429 C1423 1.491 . S
C1429 C1428 1.400 . S
C1429 C1430 1.398 . S
C1430 H1418 0.950 . S
C1430 C1429 1.398 . S
C1430 C1431 1.391 . S
C1431 H1419 0.950 . S
C1431 C1427 1.393 . S
C1431 C1430 1.391 . S
H1432 C1440 0.950 . S
H1433 C1445 0.950 . S
H1434 C1442 0.950 . S
H1435 C1444 0.950 . S
H1436 C1446 0.950 . S
H1437 C1448 0.950 . S
H1438 C1450 0.950 . S
H1439 C1451 0.950 . S
C1440 H1432 0.950 . S
C1440 C1441 1.386 . S
C1440 C1442 1.391 . S
C1441 C1440 1.386 . S
C1441 C1445 1.393 . S
C1442 H1434 0.950 . S
C1442 C1440 1.391 . S
C1442 C1443 1.400 . S
C1443 C1442 1.400 . S
C1443 C1444 1.398 . S
C1443 C1449 1.491 . S
C1444 H1435 0.950 . S
C1444 C1443 1.398 . S
C1444 C1445 1.391 . S
C1445 H1433 0.950 . S
C1445 C1441 1.393 . S
C1445 C1444 1.391 . S
C1446 H1436 0.950 . S
C1446 C1447 1.386 . S
C1446 C1448 1.391 . S
C1447 C1446 1.386 . S
C1447 C1451 1.393 . S
C1448 H1437 0.950 . S
C1448 C1446 1.391 . S
C1448 C1449 1.400 . S
C1449 C1443 1.491 . S
C1449 C1448 1.400 . S
C1449 C1450 1.398 . S
C1450 H1438 0.950 . S
C1450 C1449 1.398 . S
C1450 C1451 1.391 . S
C1451 H1439 0.950 . S
C1451 C1447 1.393 . S
C1451 C1450 1.391 . S
H1452 C1460 0.950 . S
H1453 C1465 0.950 . S
H1454 C1462 0.950 1_556 S
H1455 C1464 0.950 . S
H1456 C1466 0.950 . S
H1457 C1468 0.950 . S
H1458 C1470 0.950 . S
H1459 C1471 0.950 . S
C1460 H1452 0.950 . S
C1460 C1461 1.386 . S
C1460 C1462 1.391 . S
C1461 C1460 1.386 . S
C1461 C1465 1.393 . S
C1462 H1454 0.950 1_554 S
C1462 C1460 1.391 . S
C1462 C1463 1.400 . S
C1463 C1462 1.400 . S
C1463 C1464 1.398 . S
C1463 C1469 1.491 1_554 S
C1464 H1455 0.950 . S
C1464 C1463 1.398 . S
C1464 C1465 1.391 . S
C1465 H1453 0.950 . S
C1465 C1461 1.393 . S
C1465 C1464 1.391 . S
C1466 H1456 0.950 . S
C1466 C1467 1.386 . S
C1466 C1468 1.391 . S
C1467 C1466 1.386 . S
C1467 C1471 1.393 . S
C1468 H1457 0.950 . S
C1468 C1466 1.391 . S
C1468 C1469 1.400 . S
C1469 C1463 1.491 1_556 S
C1469 C1468 1.400 . S
C1469 C1470 1.398 . S
C1470 H1458 0.950 . S
C1470 C1469 1.398 . S
C1470 C1471 1.391 . S
C1471 H1459 0.950 . S
C1471 C1467 1.393 . S
C1471 C1470 1.391 . S
H1472 C1480 0.950 . S
H1473 C1485 0.950 . S
H1474 C1482 0.950 . S
H1475 C1484 0.950 . S
H1476 C1486 0.950 . S
H1477 C1488 0.950 . S
H1478 C1490 0.950 . S
H1479 C1491 0.950 . S
C1480 H1472 0.950 . S
C1480 C1481 1.386 . S
C1480 C1482 1.391 . S
C1481 C1480 1.386 . S
C1481 C1485 1.393 . S
C1482 H1474 0.950 . S
C1482 C1480 1.391 . S
C1482 C1483 1.400 . S
C1483 C1482 1.400 . S
C1483 C1484 1.398 . S
C1483 C1489 1.491 . S
C1484 H1475 0.950 . S
C1484 C1483 1.398 . S
C1484 C1485 1.391 . S
C1485 H1473 0.950 . S
C1485 C1481 1.393 . S
C1485 C1484 1.391 . S
C1486 H1476 0.950 . S
C1486 C1487 1.386 . S
C1486 C1488 1.391 . S
C1487 C1486 1.386 . S
C1487 C1491 1.393 . S
C1488 H1477 0.950 . S
C1488 C1486 1.391 . S
C1488 C1489 1.400 . S
C1489 C1483 1.491 . S
C1489 C1488 1.400 . S
C1489 C1490 1.398 . S
C1490 H1478 0.950 . S
C1490 C1489 1.398 . S
C1490 C1491 1.391 . S
C1491 H1479 0.950 . S
C1491 C1487 1.393 . S
C1491 C1490 1.391 . S
H1492 C1500 0.950 . S
H1493 C1505 0.950 . S
H1494 C1502 0.950 1_556 S
H1495 C1504 0.950 . S
H1496 C1506 0.950 . S
H1497 C1508 0.950 . S
H1498 C1510 0.950 . S
H1499 C1511 0.950 . S
C1500 H1492 0.950 . S
C1500 C1501 1.386 . S
C1500 C1502 1.391 . S
C1501 C1500 1.386 . S
C1501 C1505 1.393 . S
C1502 H1494 0.950 1_554 S
C1502 C1500 1.391 . S
C1502 C1503 1.400 . S
C1503 C1502 1.400 . S
C1503 C1504 1.398 . S
C1503 C1509 1.491 1_554 S
C1504 H1495 0.950 . S
C1504 C1503 1.398 . S
C1504 C1505 1.391 . S
C1505 H1493 0.950 . S
C1505 C1501 1.393 . S
C1505 C1504 1.391 . S
C1506 H1496 0.950 . S
C1506 C1507 1.386 . S
C1506 C1508 1.391 . S
C1507 C1506 1.386 . S
C1507 C1511 1.393 . S
C1508 H1497 0.950 . S
C1508 C1506 1.391 . S
C1508 C1509 1.400 . S
C1509 C1503 1.491 1_556 S
C1509 C1508 1.400 . S
C1509 C1510 1.398 . S
C1510 H1498 0.950 . S
C1510 C1509 1.398 . S
C1510 C1511 1.391 . S
C1511 H1499 0.950 . S
C1511 C1507 1.393 . S
C1511 C1510 1.391 . S
C561 N94 1.620 . S
C567 N2 1.601 . S
C581 C30 1.777 . S
C587 C122 1.778 . S
C601 N140 1.614 . S
C607 N48 1.600 . S
C621 C168 1.773 . S
C627 C76 1.780 . S
C641 N324 1.651 . S
C647 C191 1.654 . S
C661 N347 1.609 . S
C667 N209 1.608 . S
C681 C237 1.646 . S
C687 N278 1.661 . S
C701 N301 1.610 . S
C707 N255 1.606 . S
C721 C375 1.632 . S
C727 C490 1.622 . S
C741 C398 1.921 . S
C747 C444 1.923 . S
C761 C421 1.895 . S
C767 C467 1.886 . S
C781 N508 1.447 . S
C787 N531 1.465 . S
C801 N71 1.454 . S
C807 N117 1.445 . S
C821 C7 1.634 . S
C827 C145 1.638 . S
C841 N163 1.427 . S
C847 N25 1.471 . S
C861 C53 1.643 . S
C867 C99 1.629 . S
C881 C536 1.496 . S
C887 N416 1.448 . S
C901 N439 1.439 . S
C907 N485 1.438 . S
C921 N462 1.430 . S
C927 C513 1.506 . S
C941 N393 1.446 . S
C947 N370 1.428 . S
C961 C260 1.501 . S
C967 C214 1.495 . S
C981 C352 1.777 . S
C987 C306 1.767 . S
C1001 C283 1.761 . S
C1007 C329 1.754 . S
C1021 N232 1.212 . S
C1027 N186 1.236 . S
C1041 N518 1.730 . S
C1047 N12 1.705 . S
C1061 C384 1.640 . S
C1067 C39 1.637 . S
C1081 N541 1.734 . S
C1087 N58 1.709 . S
C1101 C499 1.640 . S
C1107 C85 1.636 . S
C1121 C430 1.673 . S
C1127 N104 1.633 . S
C1141 C131 1.788 . S
C1147 C453 1.787 . S
C1161 C476 1.672 . S
C1167 N150 1.632 . S
C1181 C407 1.779 . S
C1187 C177 1.779 . S
C1201 N311 1.670 . S
C1207 C200 1.713 . S
C1221 N334 1.649 . S
C1227 N219 1.658 . S
C1241 N357 1.672 . S
C1247 C246 1.716 . S
C1261 N265 1.665 . S
C1267 N288 1.644 . S
C1281 N127 1.543 . S
C1287 N242 1.546 . S
C1301 C154 1.438 . S
C1307 C269 1.435 . S
C1321 N196 1.542 . S
C1327 N173 1.541 . S
C1341 C108 1.435 . S
C1347 C223 1.431 . S
C1361 C338 1.504 . S
C1367 N81 1.526 . S
C1381 C16 1.514 . S
C1387 C361 1.515 . S
C1401 C292 1.520 . S
C1407 N35 1.518 . S
C1421 C62 1.520 . S
C1427 C315 1.517 . S
C1441 N403 1.492 . S
C1447 C545 1.485 . S
C1461 N495 1.528 . S
C1467 N426 1.527 . S
C1481 C522 1.488 . S
C1487 N449 1.494 . S
C1501 N380 1.526 . S
C1507 N472 1.529 . S
