# Generated by pormake.
# Topology umg, (4)-cn, num edge types: 1
# Building blocks:
#     Node 0, Type 0, BuildingBlock: ESEHIV_clean_sbu_0, # of connection points: 4
#     Node 1, Type 0, BuildingBlock: ESEHIV_clean_sbu_0, # of connection points: 4
#     Node 2, Type 0, BuildingBlock: ESEHIV_clean_sbu_0, # of connection points: 4
#     Node 3, Type 0, BuildingBlock: ESEHIV_clean_sbu_0, # of connection points: 4
#     Node 4, Type 0, BuildingBlock: ESEHIV_clean_sbu_0, # of connection points: 4
#     Node 5, Type 0, BuildingBlock: ESEHIV_clean_sbu_0, # of connection points: 4
#     Node 6, Type 0, BuildingBlock: ESEHIV_clean_sbu_0, # of connection points: 4
#     Node 7, Type 0, BuildingBlock: ESEHIV_clean_sbu_0, # of connection points: 4
#     Node 8, Type 0, BuildingBlock: ESEHIV_clean_sbu_0, # of connection points: 4
#     Node 9, Type 0, BuildingBlock: ESEHIV_clean_sbu_0, # of connection points: 4
#     Node 10, Type 0, BuildingBlock: ESEHIV_clean_sbu_0, # of connection points: 4
#     Node 11, Type 0, BuildingBlock: ESEHIV_clean_sbu_0, # of connection points: 4
#     Edge 12, Type (0, 0), BuildingBlock: XIVTED_clean_linker_0, # of connection points: 2
#     Edge 13, Type (0, 0), BuildingBlock: XIVTED_clean_linker_0, # of connection points: 2
#     Edge 14, Type (0, 0), BuildingBlock: XIVTED_clean_linker_0, # of connection points: 2
#     Edge 15, Type (0, 0), BuildingBlock: XIVTED_clean_linker_0, # of connection points: 2
#     Edge 16, Type (0, 0), BuildingBlock: XIVTED_clean_linker_0, # of connection points: 2
#     Edge 17, Type (0, 0), BuildingBlock: XIVTED_clean_linker_0, # of connection points: 2
#     Edge 18, Type (0, 0), BuildingBlock: XIVTED_clean_linker_0, # of connection points: 2
#     Edge 19, Type (0, 0), BuildingBlock: XIVTED_clean_linker_0, # of connection points: 2
#     Edge 20, Type (0, 0), BuildingBlock: XIVTED_clean_linker_0, # of connection points: 2
#     Edge 21, Type (0, 0), BuildingBlock: XIVTED_clean_linker_0, # of connection points: 2
#     Edge 22, Type (0, 0), BuildingBlock: XIVTED_clean_linker_0, # of connection points: 2
#     Edge 23, Type (0, 0), BuildingBlock: XIVTED_clean_linker_0, # of connection points: 2
#     Edge 24, Type (0, 0), BuildingBlock: XIVTED_clean_linker_0, # of connection points: 2
#     Edge 25, Type (0, 0), BuildingBlock: XIVTED_clean_linker_0, # of connection points: 2
#     Edge 26, Type (0, 0), BuildingBlock: XIVTED_clean_linker_0, # of connection points: 2
#     Edge 27, Type (0, 0), BuildingBlock: XIVTED_clean_linker_0, # of connection points: 2
#     Edge 28, Type (0, 0), BuildingBlock: XIVTED_clean_linker_0, # of connection points: 2
#     Edge 29, Type (0, 0), BuildingBlock: XIVTED_clean_linker_0, # of connection points: 2
#     Edge 30, Type (0, 0), BuildingBlock: XIVTED_clean_linker_0, # of connection points: 2
#     Edge 31, Type (0, 0), BuildingBlock: XIVTED_clean_linker_0, # of connection points: 2
#     Edge 32, Type (0, 0), BuildingBlock: XIVTED_clean_linker_0, # of connection points: 2
#     Edge 33, Type (0, 0), BuildingBlock: XIVTED_clean_linker_0, # of connection points: 2
#     Edge 34, Type (0, 0), BuildingBlock: XIVTED_clean_linker_0, # of connection points: 2
#     Edge 35, Type (0, 0), BuildingBlock: XIVTED_clean_linker_0, # of connection points: 2
# Relax obj value: 0.031
# Max RMSD: 0.108
# Mean RMSD: 0.084
data_MOF--net-umg--node1-ESEHIV_clean_sbu_0--edge1-XIVTED_clean_linker_0
_symmetry_space_group_name_H-M    P1
_symmetry_Int_Tables_number       1
_symmetry_cell_setting            triclinic
loop_
_symmetry_equiv_pos_as_xyz
'x, y, z'
_cell_length_a     28.954994
_cell_length_b     34.505714
_cell_length_c     90.679441
_cell_angle_alpha  89.646822
_cell_angle_beta   90.548131
_cell_angle_gamma 114.92439
loop_
_atom_site_label
_atom_site_type_symbol
_atom_site_fract_x
_atom_site_fract_y
_atom_site_fract_z
_atom_type_partial_charge
Cu0 Cu 0.31466 0.61912 0.10451 0.0
N1 N 0.32674 0.65076 0.08705 0.0
N2 N 0.33554 0.66892 0.06318 0.0
C3 C 0.32763 0.63746 0.07316 0.0
C4 C 0.3396 0.70311 0.07119 0.0
C5 C 0.33413 0.69181 0.08584 0.0
O6 O 0.35495 0.58541 0.10474 0.0
C7 C 0.21276 0.6048 0.10574 0.0
O8 O 0.23432 0.64662 0.10447 0.0
H9 H 0.32255 0.60539 0.07049 0.0
H10 H 0.33437 0.71191 0.09497 0.0
N11 N 0.33511 0.65725 0.12036 0.0
N12 N 0.33393 0.68936 0.14163 0.0
C13 C 0.30901 0.65533 0.13278 0.0
C14 C 0.37802 0.69353 0.12141 0.0
C15 C 0.37747 0.71334 0.13448 0.0
C16 C 0.40251 0.60422 0.10198 0.0
O17 O 0.42221 0.6451 0.09868 0.0
H18 H 0.27214 0.6298 0.13511 0.0
H19 H 0.40745 0.70511 0.11315 0.0
O20 O 0.24115 0.5848 0.10601 0.0
H21 H 0.3447 0.73385 0.06678 0.0
H22 H 0.40732 0.74282 0.13848 0.0
Cu23 Cu 0.74361 0.29985 0.4282 0.0
N24 N 0.72253 0.24084 0.42876 0.0
N25 N 0.66872 0.17192 0.43078 0.0
C26 C 0.67522 0.21275 0.43236 0.0
C27 C 0.71421 0.17449 0.42621 0.0
C28 C 0.74735 0.21717 0.42492 0.0
O29 O 0.70358 0.31113 0.44329 0.0
C30 C 0.69919 0.29231 0.39965 0.0
O31 O 0.66199 0.25842 0.40522 0.0
H32 H 0.64587 0.22232 0.43579 0.0
H33 H 0.78625 0.23 0.4211 0.0
N34 N 0.81216 0.32811 0.43343 0.0
N35 N 0.88724 0.38321 0.43753 0.0
C36 C 0.84344 0.36844 0.42964 0.0
C37 C 0.83725 0.31662 0.44389 0.0
C38 C 0.88363 0.35062 0.44646 0.0
C39 C 0.72079 0.34299 0.452 0.0
O40 O 0.76376 0.37575 0.44888 0.0
H41 H 0.83233 0.38777 0.42222 0.0
H42 H 0.82156 0.28667 0.44986 0.0
O43 O 0.73524 0.31625 0.40809 0.0
H44 H 0.72242 0.14758 0.42345 0.0
H45 H 0.91147 0.35191 0.45472 0.0
Cu46 Cu 0.4857 0.74928 0.74354 0.0
N47 N 0.52716 0.72087 0.74033 0.0
N48 N 0.5521 0.66803 0.73852 0.0
C49 C 0.52078 0.68207 0.74532 0.0
C50 C 0.57967 0.6994 0.72905 0.0
C51 C 0.56425 0.73195 0.73021 0.0
O52 O 0.45181 0.73366 0.76241 0.0
C53 C 0.42115 0.70355 0.71991 0.0
O54 O 0.427 0.67068 0.72548 0.0
H55 H 0.4913 0.66312 0.75293 0.0
H56 H 0.57706 0.76063 0.72355 0.0
N57 N 0.52578 0.80788 0.74433 0.0
N58 N 0.5468 0.87811 0.7448 0.0
C59 C 0.50922 0.83867 0.74255 0.0
C60 C 0.57547 0.82825 0.74782 0.0
C61 C 0.58861 0.87157 0.74808 0.0
C62 C 0.41958 0.69706 0.76659 0.0
O63 O 0.40379 0.66481 0.75735 0.0
H64 H 0.47017 0.83199 0.73979 0.0
H65 H 0.60007 0.81261 0.75034 0.0
O66 O 0.44012 0.73907 0.7267 0.0
H67 H 0.60743 0.69812 0.72139 0.0
H68 H 0.62574 0.8961 0.75095 0.0
Cu69 Cu 0.7278 0.44356 0.10812 0.0
N70 N 0.71813 0.4131 0.09049 0.0
N71 N 0.71459 0.39858 0.06641 0.0
C72 C 0.71448 0.42665 0.07672 0.0
C73 C 0.71812 0.36614 0.07395 0.0
C74 C 0.72015 0.37512 0.08878 0.0
O75 O 0.68716 0.47692 0.10751 0.0
C76 C 0.82973 0.45873 0.11138 0.0
O77 O 0.8083 0.4168 0.11212 0.0
H78 H 0.71409 0.45727 0.07429 0.0
H79 H 0.72453 0.35593 0.09769 0.0
N80 N 0.7063 0.40515 0.12401 0.0
N81 N 0.70346 0.37432 0.146 0.0
C82 C 0.72755 0.40953 0.13756 0.0
C83 C 0.66736 0.36606 0.12391 0.0
C84 C 0.66548 0.34703 0.13741 0.0
C85 C 0.63912 0.45718 0.1055 0.0
O86 O 0.61918 0.41556 0.10369 0.0
H87 H 0.76095 0.43744 0.14098 0.0
H88 H 0.64252 0.35206 0.11456 0.0
O89 O 0.80118 0.47841 0.11001 0.0
H90 H 0.7197 0.33817 0.06908 0.0
H91 H 0.63818 0.31545 0.14061 0.0
Cu92 Cu 0.27316 0.77898 0.43782 0.0
N93 N 0.29281 0.83753 0.43934 0.0
N94 N 0.34626 0.90684 0.43999 0.0
C95 C 0.34165 0.86637 0.4389 0.0
C96 C 0.29805 0.90313 0.44112 0.0
C97 C 0.2651 0.86024 0.44073 0.0
O98 O 0.31515 0.76644 0.45215 0.0
C99 C 0.29429 0.73847 0.41282 0.0
O100 O 0.29991 0.71166 0.42223 0.0
H101 H 0.37305 0.85758 0.43748 0.0
H102 H 0.224 0.84666 0.44134 0.0
N103 N 0.20501 0.7474 0.44261 0.0
N104 N 0.13157 0.6895 0.44512 0.0
C105 C 0.17499 0.70833 0.43735 0.0
C106 C 0.17958 0.75379 0.45399 0.0
C107 C 0.13417 0.71809 0.45556 0.0
C108 C 0.30131 0.73172 0.45941 0.0
O109 O 0.25966 0.69854 0.45549 0.0
H110 H 0.18678 0.69262 0.42885 0.0
H111 H 0.19448 0.78125 0.4612 0.0
O112 O 0.28377 0.76837 0.41751 0.0
H113 H 0.28723 0.9294 0.44224 0.0
H114 H 0.10634 0.71283 0.46411 0.0
Cu115 Cu 0.58735 0.28788 0.74557 0.0
N116 N 0.54667 0.31691 0.74188 0.0
N117 N 0.52259 0.37015 0.73929 0.0
C118 C 0.55486 0.35668 0.74611 0.0
C119 C 0.49262 0.33745 0.7306 0.0
C120 C 0.50753 0.30467 0.73224 0.0
O121 O 0.62085 0.30327 0.76465 0.0
C122 C 0.64838 0.32927 0.72072 0.0
O123 O 0.64264 0.36321 0.72506 0.0
H124 H 0.58602 0.37648 0.75319 0.0
H125 H 0.49268 0.27482 0.72624 0.0
N126 N 0.54638 0.22946 0.74657 0.0
N127 N 0.52458 0.1591 0.74671 0.0
C128 C 0.56181 0.1984 0.74406 0.0
C129 C 0.49772 0.20943 0.75094 0.0
C130 C 0.48409 0.166 0.751 0.0
C131 C 0.65393 0.33943 0.76893 0.0
O132 O 0.67173 0.37149 0.75958 0.0
H133 H 0.5999 0.20483 0.7405 0.0
H134 H 0.47429 0.22536 0.7542 0.0
O135 O 0.63199 0.29601 0.72883 0.0
H136 H 0.4633 0.33783 0.72318 0.0
H137 H 0.44768 0.14164 0.75442 0.0
Cu138 Cu 0.4765 0.75248 0.58819 0.0
N139 N 0.5193 0.81038 0.5864 0.0
N140 N 0.54436 0.88108 0.58611 0.0
C141 C 0.50833 0.84293 0.59049 0.0
C142 C 0.57981 0.87208 0.57921 0.0
C143 C 0.56411 0.82838 0.57937 0.0
O144 O 0.43591 0.73435 0.57026 0.0
C145 C 0.41086 0.70805 0.61154 0.0
O146 O 0.40588 0.67377 0.60421 0.0
H147 H 0.47364 0.83845 0.59612 0.0
H148 H 0.58292 0.81083 0.57419 0.0
N149 N 0.5157 0.72177 0.59028 0.0
N150 N 0.53758 0.667 0.59058 0.0
C151 C 0.50192 0.6807 0.58657 0.0
C152 C 0.56166 0.73473 0.5968 0.0
C153 C 0.57537 0.70104 0.59697 0.0
C154 C 0.41554 0.75732 0.56467 0.0
O155 O 0.41717 0.79047 0.57207 0.0
H156 H 0.46606 0.66119 0.58123 0.0
H157 H 0.583 0.76612 0.60146 0.0
O158 O 0.43678 0.74468 0.60595 0.0
H159 H 0.61327 0.89513 0.57375 0.0
H160 H 0.6096 0.70119 0.60192 0.0
Cu161 Cu 0.73526 0.44502 0.91527 0.0
N162 N 0.70764 0.41691 0.93291 0.0
N163 N 0.69325 0.40299 0.95694 0.0
C164 C 0.72786 0.42515 0.94662 0.0
C165 C 0.64997 0.37984 0.94943 0.0
C166 C 0.65901 0.38843 0.93463 0.0
O167 O 0.80944 0.47552 0.91724 0.0
C168 C 0.68298 0.49743 0.91985 0.0
O169 O 0.70042 0.49967 0.93339 0.0
H170 H 0.76606 0.4487 0.94905 0.0
H171 H 0.63146 0.37628 0.92575 0.0
N172 N 0.72203 0.40435 0.90046 0.0
N173 N 0.70988 0.37483 0.87804 0.0
C174 C 0.7149 0.4094 0.886 0.0
C175 C 0.72119 0.36523 0.90176 0.0
C176 C 0.71356 0.34688 0.88797 0.0
C177 C 0.83724 0.48785 0.90581 0.0
O178 O 0.81511 0.48545 0.89293 0.0
H179 H 0.714 0.43812 0.88143 0.0
H180 H 0.72689 0.35148 0.91199 0.0
O181 O 0.6979 0.47905 0.91004 0.0
H182 H 0.61407 0.35891 0.95434 0.0
H183 H 0.71244 0.3159 0.88541 0.0
Cu184 Cu 0.35326 0.72641 0.27481 0.0
N185 N 0.33382 0.66726 0.27409 0.0
N186 N 0.2798 0.59798 0.27247 0.0
C187 C 0.2858 0.63887 0.27112 0.0
C188 C 0.3264 0.60103 0.27639 0.0
C189 C 0.35955 0.64373 0.27741 0.0
O190 O 0.31993 0.73877 0.25791 0.0
C191 C 0.35667 0.72795 0.30459 0.0
O192 O 0.39168 0.71481 0.30116 0.0
H193 H 0.25579 0.64844 0.26824 0.0
H194 H 0.39902 0.65651 0.28085 0.0
N195 N 0.42332 0.76006 0.27275 0.0
N196 N 0.49601 0.81936 0.27076 0.0
C197 C 0.44586 0.80299 0.27397 0.0
C198 C 0.46042 0.74871 0.26866 0.0
C199 C 0.50526 0.78516 0.26745 0.0
C200 C 0.33324 0.72721 0.24597 0.0
O201 O 0.36638 0.71046 0.24653 0.0
H202 H 0.42525 0.8219 0.2766 0.0
H203 H 0.45506 0.71643 0.26629 0.0
O204 O 0.33341 0.73749 0.29418 0.0
H205 H 0.33573 0.57448 0.27892 0.0
H206 H 0.5417 0.7863 0.26422 0.0
Cu207 Cu 0.58502 0.29018 0.58516 0.0
N208 N 0.54504 0.23164 0.58284 0.0
N209 N 0.52225 0.16122 0.5827 0.0
C210 C 0.55821 0.19988 0.58666 0.0
C211 C 0.48486 0.16901 0.5762 0.0
C212 C 0.49915 0.21252 0.57625 0.0
O213 O 0.62375 0.31215 0.56712 0.0
C214 C 0.60375 0.27892 0.6145 0.0
O215 O 0.55601 0.25101 0.61339 0.0
H216 H 0.59386 0.20527 0.59208 0.0
H217 H 0.47816 0.22915 0.57151 0.0
N218 N 0.54345 0.31853 0.58747 0.0
N219 N 0.52063 0.37268 0.58862 0.0
C220 C 0.55758 0.3604 0.585 0.0
C221 C 0.49595 0.30354 0.59286 0.0
C222 C 0.48164 0.33689 0.59353 0.0
C223 C 0.637 0.28867 0.559 0.0
O224 O 0.63108 0.25098 0.56388 0.0
H225 H 0.59457 0.3814 0.58075 0.0
H226 H 0.47387 0.27097 0.59642 0.0
O227 O 0.62601 0.3003 0.60313 0.0
H228 H 0.45048 0.14519 0.57129 0.0
H229 H 0.44603 0.33515 0.59779 0.0
Cu230 Cu 0.31041 0.5974 0.91371 0.0
N231 N 0.32883 0.63362 0.92997 0.0
N232 N 0.33979 0.65637 0.95332 0.0
C233 C 0.31558 0.62305 0.94412 0.0
C234 C 0.36932 0.68899 0.94452 0.0
C235 C 0.36262 0.67481 0.93017 0.0
O236 O 0.23752 0.56057 0.91543 0.0
C237 C 0.36628 0.54684 0.90499 0.0
O238 O 0.33716 0.53371 0.8932 0.0
H239 H 0.28938 0.59134 0.94755 0.0
H240 H 0.38231 0.69286 0.9206 0.0
N241 N 0.31983 0.63155 0.89689 0.0
N242 N 0.33425 0.65715 0.87386 0.0
C243 C 0.33657 0.62771 0.88339 0.0
C244 C 0.30649 0.66439 0.89582 0.0
C245 C 0.31554 0.68037 0.88169 0.0
C246 C 0.20919 0.54752 0.90401 0.0
O247 O 0.23074 0.55268 0.89103 0.0
H248 H 0.34971 0.60373 0.88054 0.0
H249 H 0.29014 0.67528 0.90467 0.0
O250 O 0.35777 0.57037 0.91435 0.0
H251 H 0.39552 0.72045 0.94818 0.0
H252 H 0.30733 0.70613 0.87739 0.0
Cu253 Cu 0.80677 0.25417 0.26925 0.0
N254 N 0.87729 0.28234 0.27258 0.0
N255 N 0.95908 0.32963 0.27306 0.0
C256 C 0.91183 0.32057 0.2677 0.0
C257 C 0.95386 0.29592 0.2816 0.0
C258 C 0.90357 0.26707 0.28133 0.0
O259 O 0.78698 0.27331 0.25097 0.0
C260 C 0.78984 0.29684 0.29372 0.0
O261 O 0.83033 0.32906 0.28869 0.0
H262 H 0.90262 0.34132 0.26043 0.0
H263 H 0.887 0.23708 0.28727 0.0
N264 N 0.79089 0.19598 0.26682 0.0
N265 N 0.75038 0.12462 0.26513 0.0
C266 C 0.74676 0.1611 0.26905 0.0
C267 C 0.82322 0.18103 0.26135 0.0
C268 C 0.79862 0.13731 0.26036 0.0
C269 C 0.79112 0.31072 0.24795 0.0
O270 O 0.80938 0.34093 0.25794 0.0
H271 H 0.71249 0.1626 0.27308 0.0
H272 H 0.86201 0.20075 0.25813 0.0
O273 O 0.77189 0.26182 0.28657 0.0
H274 H 0.98399 0.29287 0.28796 0.0
H275 H 0.81527 0.11652 0.25645 0.0
H276 H 0.30859 0.58803 0.97212 0.0
H277 H 0.37975 0.73501 0.04405 0.0
H278 H 0.36553 0.72558 0.97114 0.0
H279 H 0.29631 0.59777 0.04583 0.0
H280 H 0.37962 0.73135 0.01729 0.0
H281 H 0.30746 0.59018 0.99903 0.0
C282 C 0.32053 0.61867 0.97748 0.0
C283 C 0.33737 0.65673 0.96923 0.0
C284 C 0.36125 0.70199 0.02352 0.0
C285 C 0.33689 0.65934 1.00013 0.0
C286 C 0.36112 0.70406 0.03886 0.0
C287 C 0.33758 0.66668 0.04731 0.0
C288 C 0.33793 0.66223 0.01647 0.0
C289 C 0.31522 0.62742 0.03984 0.0
C290 C 0.32013 0.61984 0.99289 0.0
C291 C 0.35304 0.69545 0.97694 0.0
N292 N 0.31587 0.62622 0.02485 0.0
N293 N 0.35253 0.69573 0.99191 0.0
H294 H 0.63809 0.23917 0.37821 0.0
H295 H 0.82456 0.36517 0.31248 0.0
H296 H 0.77209 0.35752 0.38397 0.0
H297 H 0.70875 0.23601 0.30852 0.0
H298 H 0.79655 0.36794 0.33759 0.0
H299 H 0.65415 0.2431 0.35171 0.0
C300 C 0.67048 0.26636 0.3739 0.0
C301 C 0.70406 0.29789 0.3834 0.0
C302 C 0.77698 0.33909 0.3312 0.0
C303 C 0.72278 0.30237 0.353 0.0
C304 C 0.79288 0.33747 0.31682 0.0
C305 C 0.76931 0.30011 0.30838 0.0
C306 C 0.73705 0.30316 0.33725 0.0
C307 C 0.72828 0.26538 0.31463 0.0
C308 C 0.67974 0.26843 0.35875 0.0
C309 C 0.74534 0.33233 0.37712 0.0
N310 N 0.71368 0.26766 0.32871 0.0
N311 N 0.75372 0.33348 0.36235 0.0
H312 H 0.41653 0.76862 0.7033 0.0
H313 H 0.36806 0.63569 0.62851 0.0
H314 H 0.38334 0.63446 0.7014 0.0
H315 H 0.41839 0.77249 0.63032 0.0
H316 H 0.35624 0.63215 0.65521 0.0
H317 H 0.39994 0.76772 0.67681 0.0
C318 C 0.40489 0.73877 0.69738 0.0
C319 C 0.4021 0.70169 0.70457 0.0
C320 C 0.36921 0.66288 0.64974 0.0
C321 C 0.38348 0.70058 0.67418 0.0
C322 C 0.37582 0.66493 0.63447 0.0
C323 C 0.395 0.70454 0.62717 0.0
C324 C 0.38189 0.70071 0.65779 0.0
C325 C 0.40411 0.74129 0.63549 0.0
C326 C 0.3956 0.73833 0.68222 0.0
C327 C 0.38656 0.66394 0.69631 0.0
N328 N 0.39805 0.73854 0.65037 0.0
N329 N 0.37846 0.66448 0.68153 0.0
H330 H 0.66045 0.43181 0.05039 0.0
H331 H 0.77578 0.40946 0.97288 0.0
H332 H 0.7674 0.37561 0.04648 0.0
H333 H 0.62481 0.40353 0.97692 0.0
H334 H 0.78377 0.41149 0.99995 0.0
H335 H 0.65727 0.43619 0.02333 0.0
C336 C 0.68352 0.42076 0.04381 0.0
C337 C 0.71391 0.40305 0.05061 0.0
C338 C 0.74899 0.40986 0.99487 0.0
C339 C 0.71101 0.40835 0.01983 0.0
C340 C 0.74457 0.40892 0.97948 0.0
C341 C 0.69945 0.40596 0.97273 0.0
C342 C 0.70842 0.40883 1.0035 0.0
C343 C 0.65992 0.4052 0.98174 0.0
C344 C 0.68153 0.42303 0.02843 0.0
C345 C 0.74298 0.38894 0.04163 0.0
N346 N 0.66539 0.40682 0.99666 0.0
N347 N 0.74101 0.39206 0.0267 0.0
H348 H 0.29803 0.76443 0.31723 0.0
H349 H 0.32825 0.68548 0.39867 0.0
H350 H 0.38601 0.69322 0.32776 0.0
H351 H 0.27378 0.78246 0.39038 0.0
H352 H 0.34011 0.6814 0.37216 0.0
H353 H 0.27954 0.76533 0.34363 0.0
C354 C 0.31332 0.74897 0.32506 0.0
C355 C 0.34386 0.72899 0.3203 0.0
C356 C 0.32551 0.70356 0.37615 0.0
C357 C 0.32262 0.72952 0.35034 0.0
C358 C 0.31865 0.70582 0.39128 0.0
C359 C 0.30034 0.73454 0.39677 0.0
C360 C 0.31366 0.72998 0.3664 0.0
C361 C 0.28836 0.76004 0.38665 0.0
C362 C 0.30287 0.74953 0.34009 0.0
C363 C 0.36264 0.70934 0.33091 0.0
N364 N 0.29524 0.75718 0.37196 0.0
N365 N 0.35167 0.71006 0.34538 0.0
H366 H 0.67909 0.39165 0.69931 0.0
H367 H 0.59168 0.22082 0.636 0.0
H368 H 0.64759 0.2591 0.70653 0.0
H369 H 0.66957 0.35551 0.62655 0.0
H370 H 0.61842 0.23504 0.66174 0.0
H371 H 0.68329 0.38106 0.67277 0.0
C372 C 0.6741 0.36055 0.69537 0.0
C373 C 0.66211 0.32604 0.70519 0.0
C374 C 0.6306 0.26153 0.65404 0.0
C375 C 0.66618 0.31362 0.67479 0.0
C376 C 0.61528 0.25338 0.63934 0.0
C377 C 0.62832 0.28706 0.6292 0.0
C378 C 0.65803 0.30387 0.65877 0.0
C379 C 0.65895 0.32866 0.63406 0.0
C380 C 0.6765 0.35454 0.6802 0.0
C381 C 0.65633 0.28655 0.69941 0.0
N382 N 0.67194 0.33606 0.6486 0.0
N383 N 0.65749 0.28127 0.6846 0.0
H384 H 0.36016 0.79482 0.22726 0.0
H385 H 0.26682 0.63185 0.16054 0.0
H386 H 0.2599 0.6614 0.23175 0.0
H387 H 0.36595 0.76591 0.1557 0.0
H388 H 0.24913 0.64534 0.18573 0.0
H389 H 0.34677 0.78878 0.20048 0.0
C390 C 0.33343 0.76477 0.22262 0.0
C391 C 0.31052 0.72866 0.23161 0.0
C392 C 0.27432 0.67194 0.17911 0.0
C393 C 0.29695 0.7208 0.20108 0.0
C394 C 0.28438 0.66425 0.16465 0.0
C395 C 0.31886 0.6976 0.156 0.0
C396 C 0.29911 0.71324 0.18504 0.0
C397 C 0.34035 0.73892 0.16205 0.0
C398 C 0.32633 0.76109 0.20733 0.0
C399 C 0.27761 0.69004 0.22511 0.0
N400 N 0.33067 0.74545 0.17623 0.0
N401 N 0.27243 0.68691 0.21021 0.0
H402 H 0.64912 0.27096 0.46477 0.0
H403 H 0.66724 0.36733 0.54549 0.0
H404 H 0.74615 0.40342 0.47393 0.0
H405 H 0.63626 0.23579 0.53674 0.0
H406 H 0.68308 0.38311 0.51902 0.0
H407 H 0.62751 0.25979 0.49085 0.0
C408 C 0.66518 0.29796 0.47219 0.0
C409 C 0.69992 0.33817 0.46713 0.0
C410 C 0.67295 0.35089 0.52298 0.0
C411 C 0.67544 0.32532 0.4971 0.0
C412 C 0.66405 0.34188 0.53805 0.0
C413 C 0.65069 0.30022 0.54336 0.0
C414 C 0.66725 0.31779 0.51317 0.0
C415 C 0.64685 0.26843 0.53321 0.0
C416 C 0.65315 0.2914 0.48712 0.0
C417 C 0.71945 0.37184 0.47735 0.0
N418 N 0.65465 0.2778 0.51863 0.0
N419 N 0.70713 0.36463 0.49189 0.0
H420 H 0.43352 0.75844 0.78717 0.0
H421 H 0.32877 0.59502 0.85467 0.0
H422 H 0.36958 0.62152 0.78165 0.0
H423 H 0.36727 0.72987 0.85765 0.0
H424 H 0.34739 0.60378 0.82823 0.0
H425 H 0.41219 0.74824 0.81325 0.0
C426 C 0.41474 0.72616 0.79143 0.0
C427 C 0.40338 0.69077 0.78219 0.0
C428 C 0.35167 0.63141 0.83468 0.0
C429 C 0.37917 0.67884 0.81219 0.0
C430 C 0.34148 0.6265 0.84979 0.0
C431 C 0.34646 0.66178 0.85839 0.0
C432 C 0.3674 0.67197 0.82816 0.0
C433 C 0.36236 0.70172 0.85143 0.0
C434 C 0.40256 0.72036 0.80635 0.0
C435 C 0.3789 0.64972 0.78836 0.0
N436 N 0.37237 0.70573 0.83677 0.0
N437 N 0.36789 0.64486 0.803 0.0
H438 H 0.75304 0.43295 0.16731 0.0
H439 H 0.74646 0.25455 0.2254 0.0
H440 H 0.68398 0.29744 0.15863 0.0
H441 H 0.80339 0.38837 0.23635 0.0
H442 H 0.7251 0.27048 0.20071 0.0
H443 H 0.77421 0.41821 0.19235 0.0
C444 C 0.74248 0.40015 0.17062 0.0
C445 C 0.71649 0.36642 0.16081 0.0
C446 C 0.74217 0.29642 0.2085 0.0
C447 C 0.7404 0.34928 0.1895 0.0
C448 C 0.75443 0.28733 0.22264 0.0
C449 C 0.77682 0.32015 0.23302 0.0
C450 C 0.7525 0.33873 0.20459 0.0
C451 C 0.78612 0.36201 0.22874 0.0
C452 C 0.75432 0.39174 0.18495 0.0
C453 C 0.70331 0.32449 0.16582 0.0
N454 N 0.77407 0.37012 0.21485 0.0
N455 N 0.71547 0.31718 0.17975 0.0
H456 H 0.40089 0.81479 0.54677 0.0
H457 H 0.28552 0.66404 0.47802 0.0
H458 H 0.39032 0.68619 0.54716 0.0
H459 H 0.37038 0.80081 0.47423 0.0
H460 H 0.31484 0.66826 0.50374 0.0
H461 H 0.37786 0.80696 0.52068 0.0
C462 C 0.39321 0.78469 0.54141 0.0
C463 C 0.39748 0.75106 0.54917 0.0
C464 C 0.32744 0.69715 0.49716 0.0
C465 C 0.37117 0.74199 0.51923 0.0
C466 C 0.31087 0.69481 0.4825 0.0
C467 C 0.32522 0.73216 0.47396 0.0
C468 C 0.35761 0.73718 0.50335 0.0
C469 C 0.35815 0.77116 0.48035 0.0
C470 C 0.38056 0.78043 0.52647 0.0
C471 C 0.38748 0.71292 0.54157 0.0
N472 N 0.37253 0.77271 0.4947 0.0
N473 N 0.37443 0.70927 0.527 0.0
H474 H 0.66711 0.3003 0.86283 0.0
H475 H 0.71018 0.4145 0.78363 0.0
H476 H 0.73947 0.43717 0.85701 0.0
H477 H 0.62947 0.27841 0.79046 0.0
H478 H 0.72657 0.42363 0.81025 0.0
H479 H 0.65789 0.29185 0.83613 0.0
C480 C 0.68131 0.32861 0.85596 0.0
C481 C 0.70398 0.36951 0.86225 0.0
C482 C 0.70549 0.39177 0.80589 0.0
C483 C 0.69321 0.36008 0.83153 0.0
C484 C 0.69631 0.38652 0.79068 0.0
C485 C 0.66821 0.34565 0.78478 0.0
C486 C 0.68656 0.35588 0.81525 0.0
C487 C 0.65107 0.31057 0.79449 0.0
C488 C 0.67583 0.32377 0.84068 0.0
C489 C 0.72106 0.40503 0.85271 0.0
N490 N 0.66037 0.31652 0.8092 0.0
N491 N 0.71534 0.3995 0.83785 0.0
H492 H 0.88982 0.54522 0.10857 0.0
H493 H 0.15275 0.51851 0.10923 0.0
H494 H 0.89874 0.42421 0.11405 0.0
H495 H 0.14405 0.63994 0.10506 0.0
H496 H 0.05967 0.4833 0.11117 0.0
H497 H 0.98307 0.58072 0.10755 0.0
C498 C 0.9113 0.52613 0.10962 0.0
C499 C 0.88624 0.48163 0.11137 0.0
C500 C 0.07819 0.51767 0.10984 0.0
C501 C 0.99309 0.522 0.11014 0.0
C502 C 0.13136 0.53777 0.10872 0.0
C503 C 0.15641 0.58227 0.10696 0.0
C504 C 0.04977 0.54221 0.10918 0.0
C505 C 0.12656 0.60556 0.10639 0.0
C506 C 0.96458 0.54639 0.10902 0.0
C507 C 0.91623 0.45857 0.11266 0.0
N508 N 0.07501 0.58531 0.10748 0.0
N509 N 0.96786 0.47895 0.11198 0.0
H510 H 0.5722 0.16535 0.42789 0.0
H511 H 0.44207 0.91544 0.44657 0.0
H512 H 0.65767 0.09155 0.43755 0.0
H513 H 0.35799 0.987 0.43242 0.0
H514 H 0.52096 0.98012 0.44458 0.0
H515 H 0.49335 0.10118 0.43089 0.0
C516 C 0.57449 0.13574 0.43078 0.0
C517 C 0.62185 0.134 0.43255 0.0
C518 C 0.48525 0.98169 0.44192 0.0
C519 C 0.5312 0.05995 0.43583 0.0
C520 C 0.44003 0.94463 0.44298 0.0
C521 C 0.393 0.94546 0.43953 0.0
C522 C 0.4837 0.02011 0.43742 0.0
C523 C 0.39307 0.9847 0.43529 0.0
C524 C 0.5293 0.09896 0.43238 0.0
C525 C 0.62213 0.09436 0.43597 0.0
N526 N 0.43767 0.02036 0.43431 0.0
N527 N 0.57753 0.05894 0.43752 0.0
H528 H 0.50611 0.41321 0.71632 0.0
H529 H 0.53467 0.6173 0.76268 0.0
H530 H 0.54572 0.42435 0.76254 0.0
H531 H 0.56327 0.62172 0.716 0.0
H532 H 0.52703 0.54351 0.76337 0.0
H533 H 0.51401 0.4866 0.71647 0.0
C534 C 0.51593 0.431 0.72655 0.0
C535 C 0.52513 0.41272 0.73946 0.0
C536 C 0.53529 0.56084 0.75302 0.0
C537 C 0.53442 0.49672 0.7397 0.0
C538 C 0.53947 0.60273 0.75262 0.0
C539 C 0.54992 0.62561 0.73929 0.0
C540 C 0.54046 0.54153 0.73993 0.0
C541 C 0.55591 0.60543 0.72653 0.0
C542 C 0.5209 0.47298 0.72659 0.0
C543 C 0.53859 0.43747 0.75235 0.0
N544 N 0.55066 0.56444 0.72714 0.0
N545 N 0.54256 0.47821 0.75219 0.0
H546 H 0.44319 0.08276 0.58443 0.0
H547 H 0.62382 0.95956 0.58617 0.0
H548 H 0.60736 0.14659 0.58434 0.0
H549 H 0.45973 0.89627 0.58766 0.0
H550 H 0.61882 0.02856 0.58614 0.0
H551 H 0.44857 1.01409 0.58619 0.0
C552 C 0.48036 0.08236 0.58476 0.0
C553 C 0.52485 0.12056 0.58421 0.0
C554 C 0.58392 0.99955 0.58655 0.0
C555 C 0.53139 0.04203 0.58632 0.0
C556 C 0.58677 0.96015 0.58651 0.0
C557 C 0.54218 0.92199 0.58691 0.0
C558 C 0.53609 1.00086 0.58692 0.0
C559 C 0.49517 0.92473 0.58754 0.0
C560 C 0.48344 0.04315 0.58584 0.0
C561 C 0.57204 0.11809 0.5849 0.0
N562 N 0.49338 0.96343 0.58745 0.0
N563 N 0.57404 0.07952 0.58586 0.0
H564 H 0.40494 0.50618 0.88587 0.0
H565 H 0.64441 0.53942 0.93801 0.0
H566 H 0.43329 0.56831 0.92829 0.0
H567 H 0.62246 0.48171 0.89492 0.0
H568 H 0.5679 0.55135 0.93421 0.0
H569 H 0.48382 0.49656 0.88877 0.0
C570 C 0.42746 0.51755 0.89583 0.0
C571 C 0.41218 0.53804 0.90686 0.0
C572 C 0.57987 0.5363 0.92552 0.0
C573 C 0.50293 0.52744 0.91019 0.0
C574 C 0.62383 0.52962 0.92766 0.0
C575 C 0.64011 0.50948 0.91678 0.0
C576 C 0.55143 0.52258 0.91241 0.0
C577 C 0.61157 0.49748 0.90361 0.0
C578 C 0.47268 0.51223 0.89744 0.0
C579 C 0.44328 0.5523 0.91948 0.0
N580 N 0.56851 0.50396 0.90183 0.0
N581 N 0.48696 0.54675 0.92078 0.0
H582 H 0.18212 0.59125 0.27222 0.0
H583 H 0.05562 0.33617 0.27302 0.0
H584 H 0.26883 0.5158 0.26949 0.0
H585 H 0.96842 0.41065 0.26848 0.0
H586 H 0.13404 0.40174 0.27162 0.0
H587 H 0.10393 0.52605 0.27063 0.0
C588 C 0.18512 0.56122 0.27116 0.0
C589 C 0.23286 0.55952 0.27105 0.0
C590 C 0.09782 0.40382 0.27084 0.0
C591 C 0.1424 0.48407 0.26944 0.0
C592 C 0.05299 0.36637 0.2717 0.0
C593 C 1.00533 0.36791 0.27098 0.0
C594 C 0.09524 0.4434 0.26937 0.0
C595 C 1.00428 0.40794 0.26901 0.0
C596 C 0.14009 0.5238 0.27031 0.0
C597 C 0.23335 0.51906 0.26986 0.0
N598 N 0.04854 0.44412 0.26842 0.0
N599 N 0.18894 0.48309 0.26918 0.0
H600 H 0.66565 0.544 0.1059 0.0
H601 H 0.37618 0.51804 0.106 0.0
H602 H 0.53499 0.422 0.10463 0.0
H603 H 0.50625 0.63862 0.09974 0.0
H604 H 0.4338 0.48242 0.10712 0.0
H605 H 0.60798 0.57958 0.10527 0.0
C606 C 0.62493 0.52468 0.10551 0.0
C607 C 0.6053 0.4799 0.10528 0.0
C608 C 0.44968 0.51669 0.10549 0.0
C609 C 0.5389 0.52043 0.10462 0.0
C610 C 0.41675 0.53704 0.10487 0.0
C611 C 0.43622 0.58143 0.10273 0.0
C612 C 0.50257 0.54088 0.10408 0.0
C613 C 0.4893 0.60434 0.10135 0.0
C614 C 0.59197 0.54501 0.10513 0.0
C615 C 0.55203 0.45658 0.10477 0.0
N616 N 0.52047 0.58389 0.10207 0.0
N617 N 0.52083 0.47705 0.10449 0.0
H618 H 0.91954 0.43986 0.41493 0.0
H619 H 0.07967 0.6368 0.46739 0.0
H620 H 0.94007 0.42642 0.46154 0.0
H621 H 0.1005 0.64177 0.42029 0.0
H622 H 1.02082 0.56132 0.46537 0.0
H623 H 0.97943 0.51549 0.41653 0.0
C624 C 0.93684 0.45284 0.42547 0.0
C625 C 0.92499 0.42684 0.4381 0.0
C626 C 0.03821 0.57892 0.45547 0.0
C627 C 0.99287 0.51321 0.44006 0.0
C628 C 0.0714 0.62211 0.4566 0.0
C629 C 0.09485 0.64561 0.44398 0.0
C630 C 1.02784 0.55912 0.44158 0.0
C631 C 0.08341 0.6247 0.43029 0.0
C632 C 0.97104 0.49588 0.42638 0.0
C633 C 0.94862 0.44514 0.45149 0.0
N634 N 0.05052 0.58268 0.42944 0.0
N635 N 0.98109 0.48726 0.45215 0.0
H636 H 0.61088 0.14556 0.74688 0.0
H637 H 0.46053 0.8912 0.74716 0.0
H638 H 0.44683 0.07943 0.74476 0.0
H639 H 0.62343 0.95789 0.74182 0.0
H640 H 0.45476 0.9596 0.74701 0.0
H641 H 0.61612 0.07712 0.74577 0.0
C642 C 0.57587 0.11683 0.74606 0.0
C643 C 0.52825 0.11864 0.74589 0.0
C644 C 0.49175 0.95923 0.74583 0.0
C645 C 0.53417 0.03961 0.74485 0.0
C646 C 0.49512 0.92004 0.74583 0.0
C647 C 0.54263 0.91843 0.7445 0.0
C648 C 0.53617 0.9973 0.74455 0.0
C649 C 0.58606 0.9573 0.74309 0.0
C650 C 0.57896 0.07759 0.7455 0.0
C651 C 0.48436 0.07985 0.74511 0.0
N652 N 0.58178 0.99505 0.74319 0.0
N653 N 0.48839 0.04201 0.74465 0.0
H654 H 0.45181 0.59265 0.58869 0.0
H655 H 0.60605 0.44743 0.58944 0.0
H656 H 0.61591 0.64336 0.58976 0.0
H657 H 0.44204 0.39612 0.5869 0.0
H658 H 0.61024 0.51935 0.58898 0.0
H659 H 0.44735 0.5206 0.58738 0.0
C660 C 0.48697 0.58876 0.58851 0.0
C661 C 0.53437 0.62429 0.58935 0.0
C662 C 0.5733 0.49238 0.58848 0.0
C663 C 0.52944 0.54158 0.58806 0.0
C664 C 0.57086 0.45116 0.58865 0.0
C665 C 0.52356 0.41545 0.58818 0.0
C666 C 0.52814 0.49814 0.58786 0.0
C667 C 0.47929 0.42258 0.58746 0.0
C668 C 0.48435 0.5475 0.58786 0.0
C669 C 0.57855 0.617 0.58933 0.0
N670 N 0.48266 0.46309 0.58734 0.0
N671 N 0.575 0.57651 0.58872 0.0
H672 H 0.13987 0.52364 0.88139 0.0
H673 H 0.89774 0.49377 0.93028 0.0
H674 H 0.15048 0.54108 0.9286 0.0
H675 H 0.90353 0.50592 0.88286 0.0
H676 H 0.98777 0.50586 0.93046 0.0
H677 H 0.05022 0.50967 0.88233 0.0
C678 C 0.1233 0.52412 0.89201 0.0
C679 C 0.15312 0.53374 0.90493 0.0
C680 C 0.96926 0.50606 0.92005 0.0
C681 C 0.0497 0.51802 0.90606 0.0
C682 C 0.91792 0.49931 0.91993 0.0
C683 C 0.89281 0.49885 0.90653 0.0
C684 C 0.99554 0.51194 0.90666 0.0
C685 C 0.92101 0.50602 0.89347 0.0
C686 C 0.07198 0.51637 0.89252 0.0
C687 C 0.12909 0.53381 0.91835 0.0
N688 N 0.97049 0.51198 0.89387 0.0
N689 N 0.07885 0.52623 0.91856 0.0
H690 H 0.49133 0.88603 0.28567 0.0
H691 H 0.74493 0.05815 0.2482 0.0
H692 H 0.58173 0.85528 0.25425 0.0
H693 H 0.66616 0.09114 0.28265 0.0
H694 H 0.68234 0.98435 0.24963 0.0
H695 H 0.55148 0.96148 0.28407 0.0
C696 C 0.52364 0.89505 0.2784 0.0
C697 C 0.53139 0.86399 0.27011 0.0
C698 C 0.6786 1.0076 0.25691 0.0
C699 C 0.60057 0.95046 0.26827 0.0
C700 C 0.71465 0.04994 0.25616 0.0
C701 C 0.71146 0.08113 0.26546 0.0
C702 C 0.63854 0.99587 0.26702 0.0
C703 C 0.6702 0.06835 0.27524 0.0
C704 C 0.55811 0.93816 0.27755 0.0
C705 C 0.57439 0.87773 0.26101 0.0
N706 N 0.63548 0.02668 0.27581 0.0
N707 N 0.60713 0.91978 0.26033 0.0
loop_
_geom_bond_atom_site_label_1
_geom_bond_atom_site_label_2
_geom_bond_distance
_geom_bond_site_symmetry_2
_ccdc_geom_bond_type
Cu0 N1 1.999 . S
Cu0 O6 1.974 . S
Cu0 N11 1.985 . S
Cu0 O20 1.959 . S
N1 Cu0 1.999 . S
N1 C3 1.263 . S
N1 C5 1.389 . S
N2 C3 1.358 . S
N2 C4 1.400 . S
C3 N1 1.263 . S
C3 N2 1.358 . S
C3 H9 0.930 . S
C4 N2 1.400 . S
C4 C5 1.351 . S
C4 H21 0.930 . S
C5 N1 1.389 . S
C5 C4 1.351 . S
C5 H10 0.930 . S
O6 Cu0 1.974 . S
O6 C16 1.282 . S
C7 O8 1.261 . S
C7 O20 1.251 . S
O8 C7 1.261 . S
H9 C3 0.930 . S
H10 C5 0.930 . S
N11 Cu0 1.985 . S
N11 C13 1.335 . S
N11 C14 1.390 . S
N12 C13 1.345 . S
N12 C15 1.336 . S
C13 N11 1.335 . S
C13 N12 1.345 . S
C13 H18 0.930 . S
C14 N11 1.390 . S
C14 C15 1.346 . S
C14 H19 0.930 . S
C15 N12 1.336 . S
C15 C14 1.346 . S
C15 H22 0.929 . S
C16 O6 1.282 . S
C16 O17 1.216 . S
O17 C16 1.216 . S
H18 C13 0.930 . S
H19 C14 0.930 . S
O20 Cu0 1.959 . S
O20 C7 1.251 . S
H21 C4 0.930 . S
H22 C15 0.929 . S
Cu23 N24 1.999 . S
Cu23 O29 1.974 . S
Cu23 N34 1.985 . S
Cu23 O43 1.959 . S
N24 Cu23 1.999 . S
N24 C26 1.263 . S
N24 C28 1.389 . S
N25 C26 1.358 . S
N25 C27 1.400 . S
C26 N24 1.263 . S
C26 N25 1.358 . S
C26 H32 0.930 . S
C27 N25 1.400 . S
C27 C28 1.351 . S
C27 H44 0.930 . S
C28 N24 1.389 . S
C28 C27 1.351 . S
C28 H33 0.930 . S
O29 Cu23 1.974 . S
O29 C39 1.282 . S
C30 O31 1.261 . S
C30 O43 1.251 . S
O31 C30 1.261 . S
H32 C26 0.930 . S
H33 C28 0.930 . S
N34 Cu23 1.985 . S
N34 C36 1.335 . S
N34 C37 1.390 . S
N35 C36 1.345 . S
N35 C38 1.336 . S
C36 N34 1.335 . S
C36 N35 1.345 . S
C36 H41 0.930 . S
C37 N34 1.390 . S
C37 C38 1.346 . S
C37 H42 0.930 . S
C38 N35 1.336 . S
C38 C37 1.346 . S
C38 H45 0.929 . S
C39 O29 1.282 . S
C39 O40 1.216 . S
O40 C39 1.216 . S
H41 C36 0.930 . S
H42 C37 0.930 . S
O43 Cu23 1.959 . S
O43 C30 1.251 . S
H44 C27 0.930 . S
H45 C38 0.929 . S
Cu46 N47 1.999 . S
Cu46 O52 1.974 . S
Cu46 N57 1.985 . S
Cu46 O66 1.959 . S
N47 Cu46 1.999 . S
N47 C49 1.263 . S
N47 C51 1.389 . S
N48 C49 1.358 . S
N48 C50 1.400 . S
C49 N47 1.263 . S
C49 N48 1.358 . S
C49 H55 0.930 . S
C50 N48 1.400 . S
C50 C51 1.351 . S
C50 H67 0.930 . S
C51 N47 1.389 . S
C51 C50 1.351 . S
C51 H56 0.930 . S
O52 Cu46 1.974 . S
O52 C62 1.282 . S
C53 O54 1.261 . S
C53 O66 1.251 . S
O54 C53 1.261 . S
H55 C49 0.930 . S
H56 C51 0.930 . S
N57 Cu46 1.985 . S
N57 C59 1.335 . S
N57 C60 1.390 . S
N58 C59 1.345 . S
N58 C61 1.336 . S
C59 N57 1.335 . S
C59 N58 1.345 . S
C59 H64 0.930 . S
C60 N57 1.390 . S
C60 C61 1.346 . S
C60 H65 0.930 . S
C61 N58 1.336 . S
C61 C60 1.346 . S
C61 H68 0.929 . S
C62 O52 1.282 . S
C62 O63 1.216 . S
O63 C62 1.216 . S
H64 C59 0.930 . S
H65 C60 0.930 . S
O66 Cu46 1.959 . S
O66 C53 1.251 . S
H67 C50 0.930 . S
H68 C61 0.929 . S
Cu69 N70 1.999 . S
Cu69 O75 1.974 . S
Cu69 N80 1.985 . S
Cu69 O89 1.959 . S
N70 Cu69 1.999 . S
N70 C72 1.263 . S
N70 C74 1.389 . S
N71 C72 1.358 . S
N71 C73 1.400 . S
C72 N70 1.263 . S
C72 N71 1.358 . S
C72 H78 0.930 . S
C73 N71 1.400 . S
C73 C74 1.351 . S
C73 H90 0.930 . S
C74 N70 1.389 . S
C74 C73 1.351 . S
C74 H79 0.930 . S
O75 Cu69 1.974 . S
O75 C85 1.282 . S
C76 O77 1.261 . S
C76 O89 1.251 . S
O77 C76 1.261 . S
H78 C72 0.930 . S
H79 C74 0.930 . S
N80 Cu69 1.985 . S
N80 C82 1.335 . S
N80 C83 1.390 . S
N81 C82 1.345 . S
N81 C84 1.336 . S
C82 N80 1.335 . S
C82 N81 1.345 . S
C82 H87 0.930 . S
C83 N80 1.390 . S
C83 C84 1.346 . S
C83 H88 0.930 . S
C84 N81 1.336 . S
C84 C83 1.346 . S
C84 H91 0.929 . S
C85 O75 1.282 . S
C85 O86 1.216 . S
O86 C85 1.216 . S
H87 C82 0.930 . S
H88 C83 0.930 . S
O89 Cu69 1.959 . S
O89 C76 1.251 . S
H90 C73 0.930 . S
H91 C84 0.929 . S
Cu92 N93 1.999 . S
Cu92 O98 1.974 . S
Cu92 N103 1.985 . S
Cu92 O112 1.959 . S
N93 Cu92 1.999 . S
N93 C95 1.263 . S
N93 C97 1.389 . S
N94 C95 1.358 . S
N94 C96 1.400 . S
C95 N93 1.263 . S
C95 N94 1.358 . S
C95 H101 0.930 . S
C96 N94 1.400 . S
C96 C97 1.351 . S
C96 H113 0.930 . S
C97 N93 1.389 . S
C97 C96 1.351 . S
C97 H102 0.930 . S
O98 Cu92 1.974 . S
O98 C108 1.282 . S
C99 O100 1.261 . S
C99 O112 1.251 . S
O100 C99 1.261 . S
H101 C95 0.930 . S
H102 C97 0.930 . S
N103 Cu92 1.985 . S
N103 C105 1.335 . S
N103 C106 1.390 . S
N104 C105 1.345 . S
N104 C107 1.336 . S
C105 N103 1.335 . S
C105 N104 1.345 . S
C105 H110 0.930 . S
C106 N103 1.390 . S
C106 C107 1.346 . S
C106 H111 0.930 . S
C107 N104 1.336 . S
C107 C106 1.346 . S
C107 H114 0.929 . S
C108 O98 1.282 . S
C108 O109 1.216 . S
O109 C108 1.216 . S
H110 C105 0.930 . S
H111 C106 0.930 . S
O112 Cu92 1.959 . S
O112 C99 1.251 . S
H113 C96 0.930 . S
H114 C107 0.929 . S
Cu115 N116 1.999 . S
Cu115 O121 1.974 . S
Cu115 N126 1.985 . S
Cu115 O135 1.959 . S
N116 Cu115 1.999 . S
N116 C118 1.263 . S
N116 C120 1.389 . S
N117 C118 1.358 . S
N117 C119 1.400 . S
C118 N116 1.263 . S
C118 N117 1.358 . S
C118 H124 0.930 . S
C119 N117 1.400 . S
C119 C120 1.351 . S
C119 H136 0.930 . S
C120 N116 1.389 . S
C120 C119 1.351 . S
C120 H125 0.930 . S
O121 Cu115 1.974 . S
O121 C131 1.282 . S
C122 O123 1.261 . S
C122 O135 1.251 . S
O123 C122 1.261 . S
H124 C118 0.930 . S
H125 C120 0.930 . S
N126 Cu115 1.985 . S
N126 C128 1.335 . S
N126 C129 1.390 . S
N127 C128 1.345 . S
N127 C130 1.336 . S
C128 N126 1.335 . S
C128 N127 1.345 . S
C128 H133 0.930 . S
C129 N126 1.390 . S
C129 C130 1.346 . S
C129 H134 0.930 . S
C130 N127 1.336 . S
C130 C129 1.346 . S
C130 H137 0.929 . S
C131 O121 1.282 . S
C131 O132 1.216 . S
O132 C131 1.216 . S
H133 C128 0.930 . S
H134 C129 0.930 . S
O135 Cu115 1.959 . S
O135 C122 1.251 . S
H136 C119 0.930 . S
H137 C130 0.929 . S
Cu138 N139 1.999 . S
Cu138 O144 1.974 . S
Cu138 N149 1.985 . S
Cu138 O158 1.959 . S
N139 Cu138 1.999 . S
N139 C141 1.263 . S
N139 C143 1.389 . S
N140 C141 1.358 . S
N140 C142 1.400 . S
C141 N139 1.263 . S
C141 N140 1.358 . S
C141 H147 0.930 . S
C142 N140 1.400 . S
C142 C143 1.351 . S
C142 H159 0.930 . S
C143 N139 1.389 . S
C143 C142 1.351 . S
C143 H148 0.930 . S
O144 Cu138 1.974 . S
O144 C154 1.282 . S
C145 O146 1.261 . S
C145 O158 1.251 . S
O146 C145 1.261 . S
H147 C141 0.930 . S
H148 C143 0.930 . S
N149 Cu138 1.985 . S
N149 C151 1.335 . S
N149 C152 1.390 . S
N150 C151 1.345 . S
N150 C153 1.336 . S
C151 N149 1.335 . S
C151 N150 1.345 . S
C151 H156 0.930 . S
C152 N149 1.390 . S
C152 C153 1.346 . S
C152 H157 0.930 . S
C153 N150 1.336 . S
C153 C152 1.346 . S
C153 H160 0.929 . S
C154 O144 1.282 . S
C154 O155 1.216 . S
O155 C154 1.216 . S
H156 C151 0.930 . S
H157 C152 0.930 . S
O158 Cu138 1.959 . S
O158 C145 1.251 . S
H159 C142 0.930 . S
H160 C153 0.929 . S
Cu161 N162 1.999 . S
Cu161 O167 1.974 . S
Cu161 N172 1.985 . S
Cu161 O181 1.959 . S
N162 Cu161 1.999 . S
N162 C164 1.263 . S
N162 C166 1.389 . S
N163 C164 1.358 . S
N163 C165 1.400 . S
C164 N162 1.263 . S
C164 N163 1.358 . S
C164 H170 0.930 . S
C165 N163 1.400 . S
C165 C166 1.351 . S
C165 H182 0.930 . S
C166 N162 1.389 . S
C166 C165 1.351 . S
C166 H171 0.930 . S
O167 Cu161 1.974 . S
O167 C177 1.282 . S
C168 O169 1.261 . S
C168 O181 1.251 . S
O169 C168 1.261 . S
H170 C164 0.930 . S
H171 C166 0.930 . S
N172 Cu161 1.985 . S
N172 C174 1.335 . S
N172 C175 1.390 . S
N173 C174 1.345 . S
N173 C176 1.336 . S
C174 N172 1.335 . S
C174 N173 1.345 . S
C174 H179 0.930 . S
C175 N172 1.390 . S
C175 C176 1.346 . S
C175 H180 0.930 . S
C176 N173 1.336 . S
C176 C175 1.346 . S
C176 H183 0.929 . S
C177 O167 1.282 . S
C177 O178 1.216 . S
O178 C177 1.216 . S
H179 C174 0.930 . S
H180 C175 0.930 . S
O181 Cu161 1.959 . S
O181 C168 1.251 . S
H182 C165 0.930 . S
H183 C176 0.929 . S
Cu184 N185 1.999 . S
Cu184 O190 1.974 . S
Cu184 N195 1.985 . S
Cu184 O204 1.959 . S
N185 Cu184 1.999 . S
N185 C187 1.263 . S
N185 C189 1.389 . S
N186 C187 1.358 . S
N186 C188 1.400 . S
C187 N185 1.263 . S
C187 N186 1.358 . S
C187 H193 0.930 . S
C188 N186 1.400 . S
C188 C189 1.351 . S
C188 H205 0.930 . S
C189 N185 1.389 . S
C189 C188 1.351 . S
C189 H194 0.930 . S
O190 Cu184 1.974 . S
O190 C200 1.282 . S
C191 O192 1.261 . S
C191 O204 1.251 . S
O192 C191 1.261 . S
H193 C187 0.930 . S
H194 C189 0.930 . S
N195 Cu184 1.985 . S
N195 C197 1.335 . S
N195 C198 1.390 . S
N196 C197 1.345 . S
N196 C199 1.336 . S
C197 N195 1.335 . S
C197 N196 1.345 . S
C197 H202 0.930 . S
C198 N195 1.390 . S
C198 C199 1.346 . S
C198 H203 0.930 . S
C199 N196 1.336 . S
C199 C198 1.346 . S
C199 H206 0.929 . S
C200 O190 1.282 . S
C200 O201 1.216 . S
O201 C200 1.216 . S
H202 C197 0.930 . S
H203 C198 0.930 . S
O204 Cu184 1.959 . S
O204 C191 1.251 . S
H205 C188 0.930 . S
H206 C199 0.929 . S
Cu207 N208 1.999 . S
Cu207 O213 1.974 . S
Cu207 N218 1.985 . S
Cu207 O227 1.959 . S
N208 Cu207 1.999 . S
N208 C210 1.263 . S
N208 C212 1.389 . S
N209 C210 1.358 . S
N209 C211 1.400 . S
C210 N208 1.263 . S
C210 N209 1.358 . S
C210 H216 0.930 . S
C211 N209 1.400 . S
C211 C212 1.351 . S
C211 H228 0.930 . S
C212 N208 1.389 . S
C212 C211 1.351 . S
C212 H217 0.930 . S
O213 Cu207 1.974 . S
O213 C223 1.282 . S
C214 O215 1.261 . S
C214 O227 1.251 . S
O215 C214 1.261 . S
H216 C210 0.930 . S
H217 C212 0.930 . S
N218 Cu207 1.985 . S
N218 C220 1.335 . S
N218 C221 1.390 . S
N219 C220 1.345 . S
N219 C222 1.336 . S
C220 N218 1.335 . S
C220 N219 1.345 . S
C220 H225 0.930 . S
C221 N218 1.390 . S
C221 C222 1.346 . S
C221 H226 0.930 . S
C222 N219 1.336 . S
C222 C221 1.346 . S
C222 H229 0.929 . S
C223 O213 1.282 . S
C223 O224 1.216 . S
O224 C223 1.216 . S
H225 C220 0.930 . S
H226 C221 0.930 . S
O227 Cu207 1.959 . S
O227 C214 1.251 . S
H228 C211 0.930 . S
H229 C222 0.929 . S
Cu230 N231 1.999 . S
Cu230 O236 1.974 . S
Cu230 N241 1.985 . S
Cu230 O250 1.959 . S
N231 Cu230 1.999 . S
N231 C233 1.263 . S
N231 C235 1.389 . S
N232 C233 1.358 . S
N232 C234 1.400 . S
C233 N231 1.263 . S
C233 N232 1.358 . S
C233 H239 0.930 . S
C234 N232 1.400 . S
C234 C235 1.351 . S
C234 H251 0.930 . S
C235 N231 1.389 . S
C235 C234 1.351 . S
C235 H240 0.930 . S
O236 Cu230 1.974 . S
O236 C246 1.282 . S
C237 O238 1.261 . S
C237 O250 1.251 . S
O238 C237 1.261 . S
H239 C233 0.930 . S
H240 C235 0.930 . S
N241 Cu230 1.985 . S
N241 C243 1.335 . S
N241 C244 1.390 . S
N242 C243 1.345 . S
N242 C245 1.336 . S
C243 N241 1.335 . S
C243 N242 1.345 . S
C243 H248 0.930 . S
C244 N241 1.390 . S
C244 C245 1.346 . S
C244 H249 0.930 . S
C245 N242 1.336 . S
C245 C244 1.346 . S
C245 H252 0.929 . S
C246 O236 1.282 . S
C246 O247 1.216 . S
O247 C246 1.216 . S
H248 C243 0.930 . S
H249 C244 0.930 . S
O250 Cu230 1.959 . S
O250 C237 1.251 . S
H251 C234 0.930 . S
H252 C245 0.929 . S
Cu253 N254 1.999 . S
Cu253 O259 1.974 . S
Cu253 N264 1.985 . S
Cu253 O273 1.959 . S
N254 Cu253 1.999 . S
N254 C256 1.263 . S
N254 C258 1.389 . S
N255 C256 1.358 . S
N255 C257 1.400 . S
C256 N254 1.263 . S
C256 N255 1.358 . S
C256 H262 0.930 . S
C257 N255 1.400 . S
C257 C258 1.351 . S
C257 H274 0.930 . S
C258 N254 1.389 . S
C258 C257 1.351 . S
C258 H263 0.930 . S
O259 Cu253 1.974 . S
O259 C269 1.282 . S
C260 O261 1.261 . S
C260 O273 1.251 . S
O261 C260 1.261 . S
H262 C256 0.930 . S
H263 C258 0.930 . S
N264 Cu253 1.985 . S
N264 C266 1.335 . S
N264 C267 1.390 . S
N265 C266 1.345 . S
N265 C268 1.336 . S
C266 N264 1.335 . S
C266 N265 1.345 . S
C266 H271 0.930 . S
C267 N264 1.390 . S
C267 C268 1.346 . S
C267 H272 0.930 . S
C268 N265 1.336 . S
C268 C267 1.346 . S
C268 H275 0.929 . S
C269 O259 1.282 . S
C269 O270 1.216 . S
O270 C269 1.216 . S
H271 C266 0.930 . S
H272 C267 0.930 . S
O273 Cu253 1.959 . S
O273 C260 1.251 . S
H274 C257 0.930 . S
H275 C268 0.929 . S
H276 C282 0.930 . S
H277 C286 0.930 . S
H278 C291 0.929 . S
H279 C289 0.929 . S
H280 C284 0.929 . S
H281 C290 0.929 . S
C282 H276 0.930 . S
C282 C283 1.367 . S
C282 C290 1.378 . S
C283 C282 1.367 . S
C283 C291 1.433 . S
C284 H280 0.929 . S
C284 C286 1.378 . S
C284 C288 1.350 . S
C285 C288 1.463 1_556 S
C285 C290 1.350 . S
C285 N293 1.427 . S
C286 H277 0.930 . S
C286 C284 1.378 . S
C286 C287 1.367 . S
C287 C286 1.367 . S
C287 C289 1.433 . S
C288 C284 1.350 . S
C288 C285 1.463 1_554 S
C288 N292 1.427 . S
C289 H279 0.929 . S
C289 C287 1.433 . S
C289 N292 1.384 . S
C290 H281 0.929 . S
C290 C282 1.378 . S
C290 C285 1.350 . S
C291 H278 0.929 . S
C291 C283 1.433 . S
C291 N293 1.384 . S
N292 C288 1.427 . S
N292 C289 1.384 . S
N293 C285 1.427 . S
N293 C291 1.384 . S
H294 C300 0.930 . S
H295 C304 0.930 . S
H296 C309 0.929 . S
H297 C307 0.929 . S
H298 C302 0.929 . S
H299 C308 0.929 . S
C300 H294 0.930 . S
C300 C301 1.367 . S
C300 C308 1.378 . S
C301 C300 1.367 . S
C301 C309 1.433 . S
C302 H298 0.929 . S
C302 C304 1.378 . S
C302 C306 1.350 . S
C303 C306 1.463 . S
C303 C308 1.350 . S
C303 N311 1.427 . S
C304 H295 0.930 . S
C304 C302 1.378 . S
C304 C305 1.367 . S
C305 C304 1.367 . S
C305 C307 1.433 . S
C306 C302 1.350 . S
C306 C303 1.463 . S
C306 N310 1.427 . S
C307 H297 0.929 . S
C307 C305 1.433 . S
C307 N310 1.384 . S
C308 H299 0.929 . S
C308 C300 1.378 . S
C308 C303 1.350 . S
C309 H296 0.929 . S
C309 C301 1.433 . S
C309 N311 1.384 . S
N310 C306 1.427 . S
N310 C307 1.384 . S
N311 C303 1.427 . S
N311 C309 1.384 . S
H312 C318 0.930 . S
H313 C322 0.930 . S
H314 C327 0.929 . S
H315 C325 0.929 . S
H316 C320 0.929 . S
H317 C326 0.929 . S
C318 H312 0.930 . S
C318 C319 1.367 . S
C318 C326 1.378 . S
C319 C318 1.367 . S
C319 C327 1.433 . S
C320 H316 0.929 . S
C320 C322 1.378 . S
C320 C324 1.350 . S
C321 C324 1.463 . S
C321 C326 1.350 . S
C321 N329 1.427 . S
C322 H313 0.930 . S
C322 C320 1.378 . S
C322 C323 1.367 . S
C323 C322 1.367 . S
C323 C325 1.433 . S
C324 C320 1.350 . S
C324 C321 1.463 . S
C324 N328 1.427 . S
C325 H315 0.929 . S
C325 C323 1.433 . S
C325 N328 1.384 . S
C326 H317 0.929 . S
C326 C318 1.378 . S
C326 C321 1.350 . S
C327 H314 0.929 . S
C327 C319 1.433 . S
C327 N329 1.384 . S
N328 C324 1.427 . S
N328 C325 1.384 . S
N329 C321 1.427 . S
N329 C327 1.384 . S
H330 C336 0.930 . S
H331 C340 0.930 . S
H332 C345 0.929 . S
H333 C343 0.929 . S
H334 C338 0.929 . S
H335 C344 0.929 . S
C336 H330 0.930 . S
C336 C337 1.367 . S
C336 C344 1.378 . S
C337 C336 1.367 . S
C337 C345 1.433 . S
C338 H334 0.929 . S
C338 C340 1.378 . S
C338 C342 1.350 . S
C339 C342 1.463 1_554 S
C339 C344 1.350 . S
C339 N347 1.427 . S
C340 H331 0.930 . S
C340 C338 1.378 . S
C340 C341 1.367 . S
C341 C340 1.367 . S
C341 C343 1.433 . S
C342 C338 1.350 . S
C342 C339 1.463 1_556 S
C342 N346 1.427 . S
C343 H333 0.929 . S
C343 C341 1.433 . S
C343 N346 1.384 . S
C344 H335 0.929 . S
C344 C336 1.378 . S
C344 C339 1.350 . S
C345 H332 0.929 . S
C345 C337 1.433 . S
C345 N347 1.384 . S
N346 C342 1.427 . S
N346 C343 1.384 . S
N347 C339 1.427 . S
N347 C345 1.384 . S
H348 C354 0.930 . S
H349 C358 0.930 . S
H350 C363 0.929 . S
H351 C361 0.929 . S
H352 C356 0.929 . S
H353 C362 0.929 . S
C354 H348 0.930 . S
C354 C355 1.367 . S
C354 C362 1.378 . S
C355 C354 1.367 . S
C355 C363 1.433 . S
C356 H352 0.929 . S
C356 C358 1.378 . S
C356 C360 1.350 . S
C357 C360 1.463 . S
C357 C362 1.350 . S
C357 N365 1.427 . S
C358 H349 0.930 . S
C358 C356 1.378 . S
C358 C359 1.367 . S
C359 C358 1.367 . S
C359 C361 1.433 . S
C360 C356 1.350 . S
C360 C357 1.463 . S
C360 N364 1.427 . S
C361 H351 0.929 . S
C361 C359 1.433 . S
C361 N364 1.384 . S
C362 H353 0.929 . S
C362 C354 1.378 . S
C362 C357 1.350 . S
C363 H350 0.929 . S
C363 C355 1.433 . S
C363 N365 1.384 . S
N364 C360 1.427 . S
N364 C361 1.384 . S
N365 C357 1.427 . S
N365 C363 1.384 . S
H366 C372 0.930 . S
H367 C376 0.930 . S
H368 C381 0.929 . S
H369 C379 0.929 . S
H370 C374 0.929 . S
H371 C380 0.929 . S
C372 H366 0.930 . S
C372 C373 1.367 . S
C372 C380 1.378 . S
C373 C372 1.367 . S
C373 C381 1.433 . S
C374 H370 0.929 . S
C374 C376 1.378 . S
C374 C378 1.350 . S
C375 C378 1.463 . S
C375 C380 1.350 . S
C375 N383 1.427 . S
C376 H367 0.930 . S
C376 C374 1.378 . S
C376 C377 1.367 . S
C377 C376 1.367 . S
C377 C379 1.433 . S
C378 C374 1.350 . S
C378 C375 1.463 . S
C378 N382 1.427 . S
C379 H369 0.929 . S
C379 C377 1.433 . S
C379 N382 1.384 . S
C380 H371 0.929 . S
C380 C372 1.378 . S
C380 C375 1.350 . S
C381 H368 0.929 . S
C381 C373 1.433 . S
C381 N383 1.384 . S
N382 C378 1.427 . S
N382 C379 1.384 . S
N383 C375 1.427 . S
N383 C381 1.384 . S
H384 C390 0.930 . S
H385 C394 0.930 . S
H386 C399 0.929 . S
H387 C397 0.929 . S
H388 C392 0.929 . S
H389 C398 0.929 . S
C390 H384 0.930 . S
C390 C391 1.367 . S
C390 C398 1.378 . S
C391 C390 1.367 . S
C391 C399 1.433 . S
C392 H388 0.929 . S
C392 C394 1.378 . S
C392 C396 1.350 . S
C393 C396 1.463 . S
C393 C398 1.350 . S
C393 N401 1.427 . S
C394 H385 0.930 . S
C394 C392 1.378 . S
C394 C395 1.367 . S
C395 C394 1.367 . S
C395 C397 1.433 . S
C396 C392 1.350 . S
C396 C393 1.463 . S
C396 N400 1.427 . S
C397 H387 0.929 . S
C397 C395 1.433 . S
C397 N400 1.384 . S
C398 H389 0.929 . S
C398 C390 1.378 . S
C398 C393 1.350 . S
C399 H386 0.929 . S
C399 C391 1.433 . S
C399 N401 1.384 . S
N400 C396 1.427 . S
N400 C397 1.384 . S
N401 C393 1.427 . S
N401 C399 1.384 . S
H402 C408 0.930 . S
H403 C412 0.930 . S
H404 C417 0.929 . S
H405 C415 0.929 . S
H406 C410 0.929 . S
H407 C416 0.929 . S
C408 H402 0.930 . S
C408 C409 1.367 . S
C408 C416 1.378 . S
C409 C408 1.367 . S
C409 C417 1.433 . S
C410 H406 0.929 . S
C410 C412 1.378 . S
C410 C414 1.350 . S
C411 C414 1.463 . S
C411 C416 1.350 . S
C411 N419 1.427 . S
C412 H403 0.930 . S
C412 C410 1.378 . S
C412 C413 1.367 . S
C413 C412 1.367 . S
C413 C415 1.433 . S
C414 C410 1.350 . S
C414 C411 1.463 . S
C414 N418 1.427 . S
C415 H405 0.929 . S
C415 C413 1.433 . S
C415 N418 1.384 . S
C416 H407 0.929 . S
C416 C408 1.378 . S
C416 C411 1.350 . S
C417 H404 0.929 . S
C417 C409 1.433 . S
C417 N419 1.384 . S
N418 C414 1.427 . S
N418 C415 1.384 . S
N419 C411 1.427 . S
N419 C417 1.384 . S
H420 C426 0.930 . S
H421 C430 0.930 . S
H422 C435 0.929 . S
H423 C433 0.929 . S
H424 C428 0.929 . S
H425 C434 0.929 . S
C426 H420 0.930 . S
C426 C427 1.367 . S
C426 C434 1.378 . S
C427 C426 1.367 . S
C427 C435 1.433 . S
C428 H424 0.929 . S
C428 C430 1.378 . S
C428 C432 1.350 . S
C429 C432 1.463 . S
C429 C434 1.350 . S
C429 N437 1.427 . S
C430 H421 0.930 . S
C430 C428 1.378 . S
C430 C431 1.367 . S
C431 C430 1.367 . S
C431 C433 1.433 . S
C432 C428 1.350 . S
C432 C429 1.463 . S
C432 N436 1.427 . S
C433 H423 0.929 . S
C433 C431 1.433 . S
C433 N436 1.384 . S
C434 H425 0.929 . S
C434 C426 1.378 . S
C434 C429 1.350 . S
C435 H422 0.929 . S
C435 C427 1.433 . S
C435 N437 1.384 . S
N436 C432 1.427 . S
N436 C433 1.384 . S
N437 C429 1.427 . S
N437 C435 1.384 . S
H438 C444 0.930 . S
H439 C448 0.930 . S
H440 C453 0.929 . S
H441 C451 0.929 . S
H442 C446 0.929 . S
H443 C452 0.929 . S
C444 H438 0.930 . S
C444 C445 1.367 . S
C444 C452 1.378 . S
C445 C444 1.367 . S
C445 C453 1.433 . S
C446 H442 0.929 . S
C446 C448 1.378 . S
C446 C450 1.350 . S
C447 C450 1.463 . S
C447 C452 1.350 . S
C447 N455 1.427 . S
C448 H439 0.930 . S
C448 C446 1.378 . S
C448 C449 1.367 . S
C449 C448 1.367 . S
C449 C451 1.433 . S
C450 C446 1.350 . S
C450 C447 1.463 . S
C450 N454 1.427 . S
C451 H441 0.929 . S
C451 C449 1.433 . S
C451 N454 1.384 . S
C452 H443 0.929 . S
C452 C444 1.378 . S
C452 C447 1.350 . S
C453 H440 0.929 . S
C453 C445 1.433 . S
C453 N455 1.384 . S
N454 C450 1.427 . S
N454 C451 1.384 . S
N455 C447 1.427 . S
N455 C453 1.384 . S
H456 C462 0.930 . S
H457 C466 0.930 . S
H458 C471 0.929 . S
H459 C469 0.929 . S
H460 C464 0.929 . S
H461 C470 0.929 . S
C462 H456 0.930 . S
C462 C463 1.367 . S
C462 C470 1.378 . S
C463 C462 1.367 . S
C463 C471 1.433 . S
C464 H460 0.929 . S
C464 C466 1.378 . S
C464 C468 1.350 . S
C465 C468 1.463 . S
C465 C470 1.350 . S
C465 N473 1.427 . S
C466 H457 0.930 . S
C466 C464 1.378 . S
C466 C467 1.367 . S
C467 C466 1.367 . S
C467 C469 1.433 . S
C468 C464 1.350 . S
C468 C465 1.463 . S
C468 N472 1.427 . S
C469 H459 0.929 . S
C469 C467 1.433 . S
C469 N472 1.384 . S
C470 H461 0.929 . S
C470 C462 1.378 . S
C470 C465 1.350 . S
C471 H458 0.929 . S
C471 C463 1.433 . S
C471 N473 1.384 . S
N472 C468 1.427 . S
N472 C469 1.384 . S
N473 C465 1.427 . S
N473 C471 1.384 . S
H474 C480 0.930 . S
H475 C484 0.930 . S
H476 C489 0.929 . S
H477 C487 0.929 . S
H478 C482 0.929 . S
H479 C488 0.929 . S
C480 H474 0.930 . S
C480 C481 1.367 . S
C480 C488 1.378 . S
C481 C480 1.367 . S
C481 C489 1.433 . S
C482 H478 0.929 . S
C482 C484 1.378 . S
C482 C486 1.350 . S
C483 C486 1.463 . S
C483 C488 1.350 . S
C483 N491 1.427 . S
C484 H475 0.930 . S
C484 C482 1.378 . S
C484 C485 1.367 . S
C485 C484 1.367 . S
C485 C487 1.433 . S
C486 C482 1.350 . S
C486 C483 1.463 . S
C486 N490 1.427 . S
C487 H477 0.929 . S
C487 C485 1.433 . S
C487 N490 1.384 . S
C488 H479 0.929 . S
C488 C480 1.378 . S
C488 C483 1.350 . S
C489 H476 0.929 . S
C489 C481 1.433 . S
C489 N491 1.384 . S
N490 C486 1.427 . S
N490 C487 1.384 . S
N491 C483 1.427 . S
N491 C489 1.384 . S
H492 C498 0.930 . S
H493 C502 0.930 . S
H494 C507 0.929 . S
H495 C505 0.929 . S
H496 C500 0.929 . S
H497 C506 0.929 . S
C498 H492 0.930 . S
C498 C499 1.367 . S
C498 C506 1.378 . S
C499 C498 1.367 . S
C499 C507 1.433 . S
C500 H496 0.929 . S
C500 C502 1.378 . S
C500 C504 1.350 . S
C501 C504 1.463 1_655 S
C501 C506 1.350 . S
C501 N509 1.427 . S
C502 H493 0.930 . S
C502 C500 1.378 . S
C502 C503 1.367 . S
C503 C502 1.367 . S
C503 C505 1.433 . S
C504 C500 1.350 . S
C504 C501 1.463 1_455 S
C504 N508 1.427 . S
C505 H495 0.929 . S
C505 C503 1.433 . S
C505 N508 1.384 . S
C506 H497 0.929 . S
C506 C498 1.378 . S
C506 C501 1.350 . S
C507 H494 0.929 . S
C507 C499 1.433 . S
C507 N509 1.384 . S
N508 C504 1.427 . S
N508 C505 1.384 . S
N509 C501 1.427 . S
N509 C507 1.384 . S
H510 C516 0.930 . S
H511 C520 0.930 . S
H512 C525 0.929 . S
H513 C523 0.929 . S
H514 C518 0.929 . S
H515 C524 0.929 . S
C516 H510 0.930 . S
C516 C517 1.367 . S
C516 C524 1.378 . S
C517 C516 1.367 . S
C517 C525 1.433 . S
C518 H514 0.929 . S
C518 C520 1.378 . S
C518 C522 1.350 . S
C519 C522 1.463 1_545 S
C519 C524 1.350 . S
C519 N527 1.427 . S
C520 H511 0.930 . S
C520 C518 1.378 . S
C520 C521 1.367 . S
C521 C520 1.367 . S
C521 C523 1.433 . S
C522 C518 1.350 . S
C522 C519 1.463 1_565 S
C522 N526 1.427 . S
C523 H513 0.929 . S
C523 C521 1.433 . S
C523 N526 1.384 . S
C524 H515 0.929 . S
C524 C516 1.378 . S
C524 C519 1.350 . S
C525 H512 0.929 . S
C525 C517 1.433 . S
C525 N527 1.384 . S
N526 C522 1.427 . S
N526 C523 1.384 . S
N527 C519 1.427 . S
N527 C525 1.384 . S
H528 C534 0.930 . S
H529 C538 0.930 . S
H530 C543 0.929 . S
H531 C541 0.929 . S
H532 C536 0.929 . S
H533 C542 0.929 . S
C534 H528 0.930 . S
C534 C535 1.367 . S
C534 C542 1.378 . S
C535 C534 1.367 . S
C535 C543 1.433 . S
C536 H532 0.929 . S
C536 C538 1.378 . S
C536 C540 1.350 . S
C537 C540 1.463 . S
C537 C542 1.350 . S
C537 N545 1.427 . S
C538 H529 0.930 . S
C538 C536 1.378 . S
C538 C539 1.367 . S
C539 C538 1.367 . S
C539 C541 1.433 . S
C540 C536 1.350 . S
C540 C537 1.463 . S
C540 N544 1.427 . S
C541 H531 0.929 . S
C541 C539 1.433 . S
C541 N544 1.384 . S
C542 H533 0.929 . S
C542 C534 1.378 . S
C542 C537 1.350 . S
C543 H530 0.929 . S
C543 C535 1.433 . S
C543 N545 1.384 . S
N544 C540 1.427 . S
N544 C541 1.384 . S
N545 C537 1.427 . S
N545 C543 1.384 . S
H546 C552 0.930 . S
H547 C556 0.930 . S
H548 C561 0.929 . S
H549 C559 0.929 . S
H550 C554 0.929 1_545 S
H551 C560 0.929 1_565 S
C552 H546 0.930 . S
C552 C553 1.367 . S
C552 C560 1.378 . S
C553 C552 1.367 . S
C553 C561 1.433 . S
C554 H550 0.929 1_565 S
C554 C556 1.378 . S
C554 C558 1.350 . S
C555 C558 1.463 1_545 S
C555 C560 1.350 . S
C555 N563 1.427 . S
C556 H547 0.930 . S
C556 C554 1.378 . S
C556 C557 1.367 . S
C557 C556 1.367 . S
C557 C559 1.433 . S
C558 C554 1.350 . S
C558 C555 1.463 1_565 S
C558 N562 1.427 . S
C559 H549 0.929 . S
C559 C557 1.433 . S
C559 N562 1.384 . S
C560 H551 0.929 1_545 S
C560 C552 1.378 . S
C560 C555 1.350 . S
C561 H548 0.929 . S
C561 C553 1.433 . S
C561 N563 1.384 . S
N562 C558 1.427 . S
N562 C559 1.384 . S
N563 C555 1.427 . S
N563 C561 1.384 . S
H564 C570 0.930 . S
H565 C574 0.930 . S
H566 C579 0.929 . S
H567 C577 0.929 . S
H568 C572 0.929 . S
H569 C578 0.929 . S
C570 H564 0.930 . S
C570 C571 1.367 . S
C570 C578 1.378 . S
C571 C570 1.367 . S
C571 C579 1.433 . S
C572 H568 0.929 . S
C572 C574 1.378 . S
C572 C576 1.350 . S
C573 C576 1.463 . S
C573 C578 1.350 . S
C573 N581 1.427 . S
C574 H565 0.930 . S
C574 C572 1.378 . S
C574 C575 1.367 . S
C575 C574 1.367 . S
C575 C577 1.433 . S
C576 C572 1.350 . S
C576 C573 1.463 . S
C576 N580 1.427 . S
C577 H567 0.929 . S
C577 C575 1.433 . S
C577 N580 1.384 . S
C578 H569 0.929 . S
C578 C570 1.378 . S
C578 C573 1.350 . S
C579 H566 0.929 . S
C579 C571 1.433 . S
C579 N581 1.384 . S
N580 C576 1.427 . S
N580 C577 1.384 . S
N581 C573 1.427 . S
N581 C579 1.384 . S
H582 C588 0.930 . S
H583 C592 0.930 . S
H584 C597 0.929 . S
H585 C595 0.929 . S
H586 C590 0.929 1_455 S
H587 C596 0.929 1_655 S
C588 H582 0.930 . S
C588 C589 1.367 . S
C588 C596 1.378 . S
C589 C588 1.367 . S
C589 C597 1.433 . S
C590 H586 0.929 1_655 S
C590 C592 1.378 . S
C590 C594 1.350 . S
C591 C594 1.463 1_455 S
C591 C596 1.350 . S
C591 N599 1.427 . S
C592 H583 0.930 . S
C592 C590 1.378 . S
C592 C593 1.367 . S
C593 C592 1.367 . S
C593 C595 1.433 . S
C594 C590 1.350 . S
C594 C591 1.463 1_655 S
C594 N598 1.427 . S
C595 H585 0.929 . S
C595 C593 1.433 . S
C595 N598 1.384 . S
C596 H587 0.929 1_455 S
C596 C588 1.378 . S
C596 C591 1.350 . S
C597 H584 0.929 . S
C597 C589 1.433 . S
C597 N599 1.384 . S
N598 C594 1.427 . S
N598 C595 1.384 . S
N599 C591 1.427 . S
N599 C597 1.384 . S
H600 C606 0.930 . S
H601 C610 0.930 . S
H602 C615 0.929 . S
H603 C613 0.929 . S
H604 C608 0.929 . S
H605 C614 0.929 . S
C606 H600 0.930 . S
C606 C607 1.367 . S
C606 C614 1.378 . S
C607 C606 1.367 . S
C607 C615 1.433 . S
C608 H604 0.929 . S
C608 C610 1.378 . S
C608 C612 1.350 . S
C609 C612 1.463 . S
C609 C614 1.350 . S
C609 N617 1.427 . S
C610 H601 0.930 . S
C610 C608 1.378 . S
C610 C611 1.367 . S
C611 C610 1.367 . S
C611 C613 1.433 . S
C612 C608 1.350 . S
C612 C609 1.463 . S
C612 N616 1.427 . S
C613 H603 0.929 . S
C613 C611 1.433 . S
C613 N616 1.384 . S
C614 H605 0.929 . S
C614 C606 1.378 . S
C614 C609 1.350 . S
C615 H602 0.929 . S
C615 C607 1.433 . S
C615 N617 1.384 . S
N616 C612 1.427 . S
N616 C613 1.384 . S
N617 C609 1.427 . S
N617 C615 1.384 . S
H618 C624 0.930 . S
H619 C628 0.930 . S
H620 C633 0.929 . S
H621 C631 0.929 . S
H622 C626 0.929 . S
H623 C632 0.929 . S
C624 H618 0.930 . S
C624 C625 1.367 . S
C624 C632 1.378 . S
C625 C624 1.367 . S
C625 C633 1.433 . S
C626 H622 0.929 . S
C626 C628 1.378 . S
C626 C630 1.350 . S
C627 C630 1.463 1_655 S
C627 C632 1.350 . S
C627 N635 1.427 . S
C628 H619 0.930 . S
C628 C626 1.378 . S
C628 C629 1.367 . S
C629 C628 1.367 . S
C629 C631 1.433 . S
C630 C626 1.350 . S
C630 C627 1.463 1_455 S
C630 N634 1.427 . S
C631 H621 0.929 . S
C631 C629 1.433 . S
C631 N634 1.384 . S
C632 H623 0.929 . S
C632 C624 1.378 . S
C632 C627 1.350 . S
C633 H620 0.929 . S
C633 C625 1.433 . S
C633 N635 1.384 . S
N634 C630 1.427 . S
N634 C631 1.384 . S
N635 C627 1.427 . S
N635 C633 1.384 . S
H636 C642 0.930 . S
H637 C646 0.930 . S
H638 C651 0.929 . S
H639 C649 0.929 . S
H640 C644 0.929 . S
H641 C650 0.929 . S
C642 H636 0.930 . S
C642 C643 1.367 . S
C642 C650 1.378 . S
C643 C642 1.367 . S
C643 C651 1.433 . S
C644 H640 0.929 . S
C644 C646 1.378 . S
C644 C648 1.350 . S
C645 C648 1.463 1_545 S
C645 C650 1.350 . S
C645 N653 1.427 . S
C646 H637 0.930 . S
C646 C644 1.378 . S
C646 C647 1.367 . S
C647 C646 1.367 . S
C647 C649 1.433 . S
C648 C644 1.350 . S
C648 C645 1.463 1_565 S
C648 N652 1.427 . S
C649 H639 0.929 . S
C649 C647 1.433 . S
C649 N652 1.384 . S
C650 H641 0.929 . S
C650 C642 1.378 . S
C650 C645 1.350 . S
C651 H638 0.929 . S
C651 C643 1.433 . S
C651 N653 1.384 . S
N652 C648 1.427 . S
N652 C649 1.384 . S
N653 C645 1.427 . S
N653 C651 1.384 . S
H654 C660 0.930 . S
H655 C664 0.930 . S
H656 C669 0.929 . S
H657 C667 0.929 . S
H658 C662 0.929 . S
H659 C668 0.929 . S
C660 H654 0.930 . S
C660 C661 1.367 . S
C660 C668 1.378 . S
C661 C660 1.367 . S
C661 C669 1.433 . S
C662 H658 0.929 . S
C662 C664 1.378 . S
C662 C666 1.350 . S
C663 C666 1.463 . S
C663 C668 1.350 . S
C663 N671 1.427 . S
C664 H655 0.930 . S
C664 C662 1.378 . S
C664 C665 1.367 . S
C665 C664 1.367 . S
C665 C667 1.433 . S
C666 C662 1.350 . S
C666 C663 1.463 . S
C666 N670 1.427 . S
C667 H657 0.929 . S
C667 C665 1.433 . S
C667 N670 1.384 . S
C668 H659 0.929 . S
C668 C660 1.378 . S
C668 C663 1.350 . S
C669 H656 0.929 . S
C669 C661 1.433 . S
C669 N671 1.384 . S
N670 C666 1.427 . S
N670 C667 1.384 . S
N671 C663 1.427 . S
N671 C669 1.384 . S
H672 C678 0.930 . S
H673 C682 0.930 . S
H674 C687 0.929 . S
H675 C685 0.929 . S
H676 C680 0.929 . S
H677 C686 0.929 . S
C678 H672 0.930 . S
C678 C679 1.367 . S
C678 C686 1.378 . S
C679 C678 1.367 . S
C679 C687 1.433 . S
C680 H676 0.929 . S
C680 C682 1.378 . S
C680 C684 1.350 . S
C681 C684 1.463 1_455 S
C681 C686 1.350 . S
C681 N689 1.427 . S
C682 H673 0.930 . S
C682 C680 1.378 . S
C682 C683 1.367 . S
C683 C682 1.367 . S
C683 C685 1.433 . S
C684 C680 1.350 . S
C684 C681 1.463 1_655 S
C684 N688 1.427 . S
C685 H675 0.929 . S
C685 C683 1.433 . S
C685 N688 1.384 . S
C686 H677 0.929 . S
C686 C678 1.378 . S
C686 C681 1.350 . S
C687 H674 0.929 . S
C687 C679 1.433 . S
C687 N689 1.384 . S
N688 C684 1.427 . S
N688 C685 1.384 . S
N689 C681 1.427 . S
N689 C687 1.384 . S
H690 C696 0.930 . S
H691 C700 0.930 . S
H692 C705 0.929 . S
H693 C703 0.929 . S
H694 C698 0.929 . S
H695 C704 0.929 . S
C696 H690 0.930 . S
C696 C697 1.367 . S
C696 C704 1.378 . S
C697 C696 1.367 . S
C697 C705 1.433 . S
C698 H694 0.929 . S
C698 C700 1.378 . S
C698 C702 1.350 . S
C699 C702 1.463 1_565 S
C699 C704 1.350 . S
C699 N707 1.427 . S
C700 H691 0.930 . S
C700 C698 1.378 . S
C700 C701 1.367 . S
C701 C700 1.367 . S
C701 C703 1.433 . S
C702 C698 1.350 . S
C702 C699 1.463 1_545 S
C702 N706 1.427 . S
C703 H693 0.929 . S
C703 C701 1.433 . S
C703 N706 1.384 . S
C704 H695 0.929 . S
C704 C696 1.378 . S
C704 C699 1.350 . S
C705 H692 0.929 . S
C705 C697 1.433 . S
C705 N707 1.384 . S
N706 C702 1.427 . S
N706 C703 1.384 . S
N707 C699 1.427 . S
N707 C705 1.384 . S
C283 N232 1.606 . S
C287 N2 1.594 . S
C301 C30 1.640 . S
C305 C260 1.643 . S
C319 C53 1.650 . S
C323 C145 1.642 . S
C337 N71 1.602 . S
C341 N163 1.611 . S
C355 C191 1.652 . S
C359 C99 1.645 . S
C373 C122 1.643 . S
C377 C214 1.640 . S
C391 C200 1.645 . S
C395 N12 1.655 . S
C409 C39 1.633 . S
C413 C223 1.627 . S
C427 C62 1.649 . S
C431 N242 1.649 . S
C445 N81 1.655 . S
C449 C269 1.645 . S
C463 C154 1.630 . S
C467 C108 1.624 . S
C481 N173 1.653 . S
C485 C131 1.639 . S
C499 C76 1.195 . S
C503 C7 1.200 . S
C517 N25 1.141 . S
C521 N94 1.145 . S
C535 N117 1.083 . S
C539 N48 1.092 . S
C553 N209 1.134 . S
C557 N140 1.133 . S
C571 C237 1.198 . S
C575 C168 1.193 . S
C589 N186 1.083 . S
C593 N255 1.089 . S
C607 C85 1.935 . S
C611 C16 1.931 . S
C625 N35 1.811 . S
C629 N104 1.801 . S
C643 N127 1.847 . S
C647 N58 1.846 . S
C661 N150 1.806 . S
C665 N219 1.801 . S
C679 C246 1.931 . S
C683 C177 1.935 . S
C697 N196 1.854 . S
C701 N265 1.845 . S
