# Generated by pormake.
# Topology crs, (6)-cn, num edge types: 1
# Building blocks:
#     Node 0, Type 0, BuildingBlock: UKALOJ_clean_sbu_0, # of connection points: 6
#     Node 1, Type 0, BuildingBlock: UKALOJ_clean_sbu_0, # of connection points: 6
#     Node 2, Type 0, BuildingBlock: UKALOJ_clean_sbu_0, # of connection points: 6
#     Node 3, Type 0, BuildingBlock: UKALOJ_clean_sbu_0, # of connection points: 6
#     Node 4, Type 0, BuildingBlock: UKALOJ_clean_sbu_0, # of connection points: 6
#     Node 5, Type 0, BuildingBlock: UKALOJ_clean_sbu_0, # of connection points: 6
#     Node 6, Type 0, BuildingBlock: UKALOJ_clean_sbu_0, # of connection points: 6
#     Node 7, Type 0, BuildingBlock: UKALOJ_clean_sbu_0, # of connection points: 6
#     Node 8, Type 0, BuildingBlock: UKALOJ_clean_sbu_0, # of connection points: 6
#     Node 9, Type 0, BuildingBlock: UKALOJ_clean_sbu_0, # of connection points: 6
#     Node 10, Type 0, BuildingBlock: UKALOJ_clean_sbu_0, # of connection points: 6
#     Node 11, Type 0, BuildingBlock: UKALOJ_clean_sbu_0, # of connection points: 6
#     Node 12, Type 0, BuildingBlock: UKALOJ_clean_sbu_0, # of connection points: 6
#     Node 13, Type 0, BuildingBlock: UKALOJ_clean_sbu_0, # of connection points: 6
#     Node 14, Type 0, BuildingBlock: UKALOJ_clean_sbu_0, # of connection points: 6
#     Node 15, Type 0, BuildingBlock: UKALOJ_clean_sbu_0, # of connection points: 6
#     Edge 16, Type (0, 0), BuildingBlock: CIFDUS_clean_linker_0, # of connection points: 2
#     Edge 17, Type (0, 0), BuildingBlock: CIFDUS_clean_linker_0, # of connection points: 2
#     Edge 18, Type (0, 0), BuildingBlock: CIFDUS_clean_linker_0, # of connection points: 2
#     Edge 19, Type (0, 0), BuildingBlock: CIFDUS_clean_linker_0, # of connection points: 2
#     Edge 20, Type (0, 0), BuildingBlock: CIFDUS_clean_linker_0, # of connection points: 2
#     Edge 21, Type (0, 0), BuildingBlock: CIFDUS_clean_linker_0, # of connection points: 2
#     Edge 22, Type (0, 0), BuildingBlock: CIFDUS_clean_linker_0, # of connection points: 2
#     Edge 23, Type (0, 0), BuildingBlock: CIFDUS_clean_linker_0, # of connection points: 2
#     Edge 24, Type (0, 0), BuildingBlock: CIFDUS_clean_linker_0, # of connection points: 2
#     Edge 25, Type (0, 0), BuildingBlock: CIFDUS_clean_linker_0, # of connection points: 2
#     Edge 26, Type (0, 0), BuildingBlock: CIFDUS_clean_linker_0, # of connection points: 2
#     Edge 27, Type (0, 0), BuildingBlock: CIFDUS_clean_linker_0, # of connection points: 2
#     Edge 28, Type (0, 0), BuildingBlock: CIFDUS_clean_linker_0, # of connection points: 2
#     Edge 29, Type (0, 0), BuildingBlock: CIFDUS_clean_linker_0, # of connection points: 2
#     Edge 30, Type (0, 0), BuildingBlock: CIFDUS_clean_linker_0, # of connection points: 2
#     Edge 31, Type (0, 0), BuildingBlock: CIFDUS_clean_linker_0, # of connection points: 2
#     Edge 32, Type (0, 0), BuildingBlock: CIFDUS_clean_linker_0, # of connection points: 2
#     Edge 33, Type (0, 0), BuildingBlock: CIFDUS_clean_linker_0, # of connection points: 2
#     Edge 34, Type (0, 0), BuildingBlock: CIFDUS_clean_linker_0, # of connection points: 2
#     Edge 35, Type (0, 0), BuildingBlock: CIFDUS_clean_linker_0, # of connection points: 2
#     Edge 36, Type (0, 0), BuildingBlock: CIFDUS_clean_linker_0, # of connection points: 2
#     Edge 37, Type (0, 0), BuildingBlock: CIFDUS_clean_linker_0, # of connection points: 2
#     Edge 38, Type (0, 0), BuildingBlock: CIFDUS_clean_linker_0, # of connection points: 2
#     Edge 39, Type (0, 0), BuildingBlock: CIFDUS_clean_linker_0, # of connection points: 2
#     Edge 40, Type (0, 0), BuildingBlock: CIFDUS_clean_linker_0, # of connection points: 2
#     Edge 41, Type (0, 0), BuildingBlock: CIFDUS_clean_linker_0, # of connection points: 2
#     Edge 42, Type (0, 0), BuildingBlock: CIFDUS_clean_linker_0, # of connection points: 2
#     Edge 43, Type (0, 0), BuildingBlock: CIFDUS_clean_linker_0, # of connection points: 2
#     Edge 44, Type (0, 0), BuildingBlock: CIFDUS_clean_linker_0, # of connection points: 2
#     Edge 45, Type (0, 0), BuildingBlock: CIFDUS_clean_linker_0, # of connection points: 2
#     Edge 46, Type (0, 0), BuildingBlock: CIFDUS_clean_linker_0, # of connection points: 2
#     Edge 47, Type (0, 0), BuildingBlock: CIFDUS_clean_linker_0, # of connection points: 2
#     Edge 48, Type (0, 0), BuildingBlock: CIFDUS_clean_linker_0, # of connection points: 2
#     Edge 49, Type (0, 0), BuildingBlock: CIFDUS_clean_linker_0, # of connection points: 2
#     Edge 50, Type (0, 0), BuildingBlock: CIFDUS_clean_linker_0, # of connection points: 2
#     Edge 51, Type (0, 0), BuildingBlock: CIFDUS_clean_linker_0, # of connection points: 2
#     Edge 52, Type (0, 0), BuildingBlock: CIFDUS_clean_linker_0, # of connection points: 2
#     Edge 53, Type (0, 0), BuildingBlock: CIFDUS_clean_linker_0, # of connection points: 2
#     Edge 54, Type (0, 0), BuildingBlock: CIFDUS_clean_linker_0, # of connection points: 2
#     Edge 55, Type (0, 0), BuildingBlock: CIFDUS_clean_linker_0, # of connection points: 2
#     Edge 56, Type (0, 0), BuildingBlock: CIFDUS_clean_linker_0, # of connection points: 2
#     Edge 57, Type (0, 0), BuildingBlock: CIFDUS_clean_linker_0, # of connection points: 2
#     Edge 58, Type (0, 0), BuildingBlock: CIFDUS_clean_linker_0, # of connection points: 2
#     Edge 59, Type (0, 0), BuildingBlock: CIFDUS_clean_linker_0, # of connection points: 2
#     Edge 60, Type (0, 0), BuildingBlock: CIFDUS_clean_linker_0, # of connection points: 2
#     Edge 61, Type (0, 0), BuildingBlock: CIFDUS_clean_linker_0, # of connection points: 2
#     Edge 62, Type (0, 0), BuildingBlock: CIFDUS_clean_linker_0, # of connection points: 2
#     Edge 63, Type (0, 0), BuildingBlock: CIFDUS_clean_linker_0, # of connection points: 2
# Relax obj value: 0.517
# Max RMSD: 0.361
# Mean RMSD: 0.260
data_MOF--net-crs--node1-UKALOJ_clean_sbu_0--edge1-CIFDUS_clean_linker_0
_symmetry_space_group_name_H-M    P1
_symmetry_Int_Tables_number       1
_symmetry_cell_setting            triclinic
loop_
_symmetry_equiv_pos_as_xyz
'x, y, z'
_cell_length_a     40.839919
_cell_length_b     40.875372
_cell_length_c     36.060933
_cell_angle_alpha  86.487671
_cell_angle_beta   94.058786
_cell_angle_gamma 103.74623
loop_
_atom_site_label
_atom_site_type_symbol
_atom_site_fract_x
_atom_site_fract_y
_atom_site_fract_z
_atom_type_partial_charge
Zn0 Zn 0.99208 0.03417 0.98296 0.0
O1 O 0.0349 0.02687 0.01692 0.0
C2 C 0.03774 0.08274 0.93329 0.0
Zn3 Zn 0.01133 0.00978 0.93831 0.0
C4 C 0.05649 0.01201 0.00639 0.0
O5 O 0.05372 0.00232 0.97318 0.0
C6 C 0.94572 0.02982 0.91615 0.0
O7 O 0.98411 0.96337 0.95801 0.0
O8 O 0.96478 0.98604 0.00287 0.0
N9 N 0.02617 0.98757 0.8955 0.0
C10 C 0.00856 0.96359 0.87303 0.0
C11 C 0.05959 0.97505 0.85772 0.0
N12 N 0.05786 -0.00507 0.8857 0.0
N13 N 0.02881 0.95565 0.84895 0.0
C14 C 0.99163 0.08389 0.04521 0.0
C15 C 0.94467 0.06232 0.06923 0.0
N16 N 0.9765 0.05657 0.02587 0.0
N17 N 0.94731 0.04326 0.04086 0.0
N18 N 0.97207 0.08811 0.07233 0.0
H19 H 0.03823 0.11693 0.06519 0.0
H20 H 0.02438 0.12559 0.01795 0.0
H21 H 0.04264 0.08994 0.02893 0.0
C22 C 0.02633 0.10517 0.03912 0.0
C23 C 0.97165 0.94696 0.87448 0.0
H24 H 0.95866 0.95823 0.89428 0.0
H25 H 0.9686 0.91981 0.88237 0.0
H26 H 0.95918 0.94853 0.84628 0.0
O27 O 0.96872 0.01744 0.90474 0.0
O28 O 0.94872 0.03993 0.94913 0.0
C29 C 0.96636 0.96006 0.98598 0.0
O30 O 0.01979 0.08165 0.961 0.0
O31 O 0.03885 0.05564 0.91879 0.0
Zn32 Zn 0.05029 0.27479 0.27121 0.0
O33 O 0.02937 0.23722 0.2328 0.0
C34 C 0.0988 0.31229 0.21514 0.0
Zn35 Zn 0.03099 0.31257 0.23505 0.0
C36 C 0.01653 0.2451 0.20142 0.0
O37 O 0.01423 0.27537 0.19444 0.0
C38 C 0.06477 0.34177 0.30558 0.0
O39 O 0.98459 0.29595 0.26117 0.0
O40 O 0.00502 0.26121 0.2999 0.0
N41 N 0.01249 0.34585 0.20048 0.0
C42 C 0.99025 0.36458 0.20502 0.0
C43 C 0.00401 0.3728 0.14861 0.0
N44 N 0.02118 0.35113 0.16548 0.0
N45 N 0.98443 0.38149 0.17292 0.0
C46 C 0.0917 0.22243 0.2962 0.0
C47 C 0.08264 0.21317 0.35384 0.0
N48 N 0.07038 0.24123 0.30416 0.0
N49 N 0.06471 0.23543 0.33999 0.0
N50 N 0.10009 0.2051 0.32689 0.0
H51 H 0.10623 0.19367 0.25462 0.0
H52 H 0.12815 0.23726 0.25509 0.0
H53 H 0.08525 0.22558 0.23599 0.0
C54 C 0.10321 0.21955 0.25818 0.0
C55 C 0.97505 0.36735 0.24099 0.0
H56 H 0.94941 0.35057 0.24102 0.0
H57 H 0.97252 0.39353 0.2437 0.0
H58 H 0.99043 0.36003 0.26516 0.0
O59 O 0.04867 0.3491 0.2759 0.0
O60 O 0.07034 0.31246 0.31033 0.0
C61 C 0.98066 0.27437 0.28842 0.0
O62 O 0.09514 0.2888 0.24041 0.0
O63 O 0.0761 0.32855 0.20894 0.0
Zn64 Zn 0.74595 0.27986 0.53506 0.0
O65 O 0.6986 0.25901 0.50933 0.0
C66 C 0.75248 0.21142 0.56204 0.0
Zn67 Zn 0.76669 0.25434 0.49274 0.0
C68 C 0.6937 0.24017 0.48185 0.0
O69 O 0.71876 0.23293 0.46802 0.0
C70 C 0.81826 0.29416 0.5466 0.0
O71 O 0.76901 0.29756 0.456 0.0
O72 O 0.7496 0.32247 0.49883 0.0
N73 N 0.79011 0.23234 0.45607 0.0
C74 C 0.81604 0.24572 0.4344 0.0
C75 C 0.80531 0.19236 0.43033 0.0
N76 N 0.78344 0.19919 0.45342 0.0
N77 N 0.82585 0.22119 0.41785 0.0
C78 C 0.6972 0.28991 0.59231 0.0
C79 C 0.71053 0.34324 0.59754 0.0
N80 N 0.72367 0.30243 0.5713 0.0
N81 N 0.73205 0.33553 0.57469 0.0
N82 N 0.68868 0.31497 0.60915 0.0
H83 H 0.68328 0.23921 0.57152 0.0
H84 H 0.65045 0.2519 0.59359 0.0
H85 H 0.68535 0.24155 0.62098 0.0
C86 C 0.67803 0.25363 0.59431 0.0
C87 C 0.83337 0.28248 0.43133 0.0
H88 H 0.82988 0.296 0.45578 0.0
H89 H 0.82263 0.29418 0.40624 0.0
H90 H 0.86083 0.28579 0.42827 0.0
O91 O 0.81393 0.27584 0.51864 0.0
O92 O 0.79296 0.3008 0.56022 0.0
C93 C 0.75994 0.32306 0.4664 0.0
O94 O 0.74305 0.23706 0.57133 0.0
O95 O 0.76349 0.21141 0.52993 0.0
Zn96 Zn 0.71555 -0.00347 0.74452 0.0
O97 O 0.73339 0.0399 0.7105 0.0
C98 C 0.66932 0.97006 0.67795 0.0
Zn99 Zn 0.73855 0.96844 0.70543 0.0
C100 C 0.74919 0.04001 0.68128 0.0
O101 O 0.75618 0.01292 0.67217 0.0
C102 C 0.705 0.92494 0.76879 0.0
O103 O 0.78284 0.9807 0.74069 0.0
O104 O 0.76112 0.00808 0.77931 0.0
N105 N 0.76156 0.93981 0.67421 0.0
C106 C 0.7756 0.91365 0.68515 0.0
C107 C 0.77862 0.92044 0.62639 0.0
N108 N 0.76362 0.94398 0.63764 0.0
N109 N 0.78613 0.90088 0.65569 0.0
C110 C 0.66901 0.04153 0.76965 0.0
C111 C 0.67691 0.0389 0.82866 0.0
N112 N 0.69224 0.02305 0.77774 0.0
N113 N 0.69716 0.02166 0.81447 0.0
N114 N 0.65879 0.05146 0.80109 0.0
H115 H 0.67521 0.04865 0.71025 0.0
H116 H 0.65553 0.07824 0.73007 0.0
H117 H 0.63233 0.03582 0.72381 0.0
C118 C 0.65768 0.05163 0.7311 0.0
C119 C 0.78073 0.90148 0.72479 0.0
H120 H 0.78144 0.92119 0.7446 0.0
H121 H 0.80461 0.89289 0.72876 0.0
H122 H 0.75971 0.8797 0.73141 0.0
O123 O 0.71981 0.92483 0.73905 0.0
O124 O 0.69886 0.95224 0.77823 0.0
C125 C 0.78604 -0.0026 0.76987 0.0
O126 O 0.67096 0.98489 0.70832 0.0
O127 O 0.69414 0.95845 0.66999 0.0
Zn128 Zn 0.56383 0.79288 0.28037 0.0
O129 O 0.54621 0.75122 0.24634 0.0
C130 C 0.61324 0.82694 0.22502 0.0
Zn131 Zn 0.54299 0.82332 0.2351 0.0
C132 C 0.53063 0.75362 0.2148 0.0
O133 O 0.52669 0.78209 0.20183 0.0
C134 C 0.57594 0.86279 0.29974 0.0
O135 O 0.4978 0.80871 0.26278 0.0
O136 O 0.51908 0.77899 0.30686 0.0
N137 N 0.52203 0.85364 0.19764 0.0
C138 C 0.48998 0.85168 0.18403 0.0
C139 C 0.51808 0.90154 0.17164 0.0
N140 N 0.53954 0.8845 0.18919 0.0
N141 N 0.48664 0.88163 0.16804 0.0
C142 C 0.58229 0.73266 0.32847 0.0
C143 C 0.6295 0.75761 0.35389 0.0
N144 N 0.5874 0.76568 0.31825 0.0
N145 N 0.61655 0.78113 0.33445 0.0
N146 N 0.6088 0.72671 0.35059 0.0
H147 H 0.52888 0.71933 0.31391 0.0
H148 H 0.54487 0.68695 0.34046 0.0
H149 H 0.55342 0.696 0.29185 0.0
C150 C 0.55047 0.70721 0.31829 0.0
C151 C 0.46158 0.82098 0.18761 0.0
H152 H 0.46995 0.79937 0.20172 0.0
H153 H 0.45104 0.81325 0.15946 0.0
H154 H 0.44107 0.82705 0.20248 0.0
O155 O 0.55997 0.86425 0.26846 0.0
O156 O 0.58049 0.83474 0.31322 0.0
C157 C 0.49403 0.78904 0.29162 0.0
O158 O 0.60881 0.80722 0.25366 0.0
O159 O 0.58857 0.83738 0.20929 0.0
Zn160 Zn 0.24759 0.77566 0.49705 0.0
O161 O 0.20711 0.73407 0.4981 0.0
C162 C 0.29441 0.73849 0.53866 0.0
Zn163 Zn 0.27407 0.74984 0.46101 0.0
C164 C 0.20856 0.70809 0.48163 0.0
O165 O 0.23418 0.70772 0.46403 0.0
C166 C 0.31376 0.81784 0.47913 0.0
O167 O 0.24998 0.76804 0.41486 0.0
O168 O 0.22364 0.79511 0.44899 0.0
N169 N 0.296 0.72379 0.42875 0.0
C170 C 0.31549 0.73346 0.3998 0.0
C171 C 0.31563 0.68213 0.41431 0.0
N172 N 0.29554 0.69174 0.43735 0.0
N173 N 0.32839 0.70779 0.39028 0.0
C174 C 0.21032 0.78884 0.564 0.0
C175 C 0.2004 0.83702 0.54944 0.0
N176 N 0.22416 0.79945 0.53128 0.0
N177 N 0.21824 0.82953 0.5224 0.0
N178 N 0.19559 0.81209 0.57614 0.0
H179 H 0.21559 0.73696 0.56469 0.0
H180 H 0.18325 0.74371 0.59258 0.0
H181 H 0.2269 0.7577 0.60769 0.0
C182 C 0.20891 0.75477 0.58292 0.0
C183 C 0.32388 0.76877 0.38287 0.0
H184 H 0.31007 0.78524 0.39503 0.0
H185 H 0.31644 0.7685 0.35275 0.0
H186 H 0.35147 0.77967 0.38637 0.0
O187 O 0.31551 0.79308 0.46028 0.0
O188 O 0.28729 0.81696 0.49582 0.0
C189 C 0.22963 0.78678 0.41713 0.0
O190 O 0.27365 0.75625 0.54412 0.0
O191 O 0.29821 0.73138 0.50591 0.0
Zn192 Zn 0.33967 0.62027 0.78353 0.0
O193 O 0.34938 0.66324 0.74873 0.0
C194 C 0.29737 0.58285 0.72004 0.0
Zn195 Zn 0.36745 0.59659 0.7465 0.0
C196 C 0.36797 0.66633 0.72145 0.0
O197 O 0.38149 0.64238 0.71494 0.0
C198 C 0.3366 0.55152 0.80905 0.0
O199 O 0.40907 0.61068 0.78418 0.0
O200 O 0.3831 0.63894 0.81753 0.0
N201 N 0.39423 0.574 0.7142 0.0
C202 C 0.40641 0.54622 0.72107 0.0
C203 C 0.41017 0.55921 0.66317 0.0
N204 N 0.39694 0.58226 0.67824 0.0
N205 N 0.41628 0.53632 0.68955 0.0
C206 C 0.28098 0.64941 0.8044 0.0
C207 C 0.28572 0.64805 0.86362 0.0
N208 N 0.31023 0.64069 0.81468 0.0
N209 N 0.31335 0.64022 0.85154 0.0
N210 N 0.26508 0.65388 0.83447 0.0
H211 H 0.28755 0.65888 0.74529 0.0
H212 H 0.25309 0.67314 0.76247 0.0
H213 H 0.2492 0.62908 0.75739 0.0
C214 C 0.2672 0.65293 0.76503 0.0
C215 C 0.40905 0.52878 0.75859 0.0
H216 H 0.41276 0.54699 0.78093 0.0
H217 H 0.43046 0.51624 0.76036 0.0
H218 H 0.38558 0.50906 0.76283 0.0
O219 O 0.35054 0.55073 0.77884 0.0
O220 O 0.33033 0.57852 0.81841 0.0
C221 C 0.40873 0.62729 0.81275 0.0
O222 O 0.29581 0.59739 0.74978 0.0
O223 O 0.32591 0.5814 0.70964 0.0
Zn224 Zn 0.02781 0.48157 0.51298 0.0
O225 O 0.05374 0.45927 0.47846 0.0
C226 C -0.00574 0.41607 0.54685 0.0
Zn227 Zn 0.05765 0.46477 0.55988 0.0
C228 C 0.07186 0.43894 0.48929 0.0
O229 O 0.07764 0.43379 0.52415 0.0
C230 C 0.01174 0.50952 0.57972 0.0
O231 O 0.0977 0.50558 0.54687 0.0
O232 O 0.06335 0.52626 0.50815 0.0
N233 N 0.0873 0.45335 0.60471 0.0
C234 C 0.10437 0.47392 0.63106 0.0
C235 C 0.12438 0.43025 0.63436 0.0
N236 N 0.09958 0.42603 0.60704 0.0
N237 N 0.12748 0.45991 0.65023 0.0
C238 C 0.97298 0.50379 0.46077 0.0
C239 C 0.00301 0.52788 0.41639 0.0
N240 N 0.00401 0.49807 0.46746 0.0
N241 N 0.02256 0.51292 0.43984 0.0
N242 N 0.97187 0.52309 0.42904 0.0
H243 H 0.94814 0.46662 0.50116 0.0
H244 H 0.9201 0.48168 0.46703 0.0
H245 H 0.94117 0.50793 0.50412 0.0
C246 C 0.9439 0.48903 0.48453 0.0
C247 C 0.10031 0.50888 0.63665 0.0
H248 H 0.09608 0.52241 0.60998 0.0
H249 H 0.12256 0.52431 0.65198 0.0
H250 H 0.07814 0.5068 0.65343 0.0
O251 O 0.03558 0.49632 0.59334 0.0
O252 O 0.00144 0.50469 0.54616 0.0
C253 C 0.09207 0.52905 0.52473 0.0
O254 O 0.99263 0.43579 0.51846 0.0
O255 O 0.01813 0.42321 0.57174 0.0
Zn256 Zn 0.22145 0.30593 0.96573 0.0
O257 O 0.26472 0.33082 -0.00382 0.0
C258 C 0.26721 0.28013 0.9194 0.0
Zn259 Zn 0.23474 0.26001 0.98999 0.0
C260 C 0.28309 0.31694 0.01871 0.0
O261 O 0.27707 0.28507 0.02259 0.0
C262 C 0.1717 0.24943 0.93896 0.0
O263 O 0.20396 0.25903 0.03366 0.0
O264 O 0.19403 0.30791 0.01384 0.0
N265 N 0.24451 0.2151 0.00475 0.0
C266 C 0.25484 0.2007 0.03654 0.0
C267 C 0.25537 0.16815 0.99272 0.0
N268 N 0.24489 0.19489 0.97763 0.0
N269 N 0.26217 0.17098 0.02968 0.0
C270 C 0.23656 0.37745 0.93122 0.0
C271 C 0.1877 0.38688 0.91868 0.0
N272 N 0.21387 0.35072 0.94479 0.0
N273 N 0.18351 0.35662 0.93722 0.0
N274 N 0.2208 0.4005 0.91502 0.0
H275 H 0.28092 0.35578 0.9363 0.0
H276 H 0.28725 0.39721 0.95263 0.0
H277 H 0.2835 0.39075 0.90353 0.0
C278 C 0.27397 0.38007 0.93082 0.0
C279 C 0.25706 0.2161 0.0736 0.0
H280 H 0.24514 0.23771 0.07217 0.0
H281 H 0.28397 0.22579 0.08266 0.0
H282 H 0.24453 0.19712 0.09459 0.0
O283 O 0.19248 0.23512 0.95736 0.0
O284 O 0.17679 0.28122 0.93759 0.0
C285 C 0.19092 0.28363 0.03831 0.0
O286 O 0.25006 0.30248 0.91705 0.0
O287 O 0.26521 0.26057 0.94786 0.0
Zn288 Zn 0.22622 -0.00452 0.24674 0.0
O289 O 0.24974 0.04075 0.21946 0.0
C290 C 0.18028 0.97701 0.17896 0.0
Zn291 Zn 0.24648 0.96468 0.20929 0.0
C292 C 0.26657 0.03843 0.19185 0.0
O293 O 0.26878 0.00973 0.18221 0.0
C294 C 0.20612 0.92135 0.26492 0.0
O295 O 0.29081 0.97071 0.24675 0.0
O296 O 0.26918 0.0002 0.28284 0.0
N297 N 0.26796 0.93962 0.17355 0.0
C298 C 0.29054 0.92043 0.18065 0.0
C299 C 0.28814 0.93105 0.12216 0.0
N300 N 0.26619 0.94583 0.13705 0.0
N301 N 0.30369 0.91486 0.14901 0.0
C302 C 0.1931 0.04692 0.28119 0.0
C303 C 0.18683 0.0257 0.33654 0.0
N304 N 0.2059 0.01937 0.28378 0.0
N305 N 0.20208 0.00631 0.3182 0.0
N306 N 0.18114 0.05144 0.31398 0.0
H307 H 0.18997 0.05344 0.22122 0.0
H308 H 0.21326 0.08954 0.24552 0.0
H309 H 0.16788 0.07854 0.24512 0.0
C310 C 0.1907 0.06816 0.24614 0.0
C311 C 0.30042 0.90743 0.21852 0.0
H312 H 0.2806 0.90621 0.2383 0.0
H313 H 0.3242 0.92423 0.22915 0.0
H314 H 0.30522 0.88197 0.21673 0.0
O315 O 0.22326 0.91925 0.23745 0.0
O316 O 0.20342 0.95007 0.2738 0.0
C317 C 0.29366 0.98809 0.27538 0.0
O318 O 0.1834 0.99174 0.20951 0.0
O319 O 0.20269 0.96177 0.17144 0.0
Zn320 Zn 0.4799 0.235 0.78686 0.0
O321 O 0.45385 0.19529 0.75428 0.0
C322 C 0.52597 0.26189 0.72456 0.0
Zn323 Zn 0.46027 0.26831 0.74357 0.0
C324 C 0.43645 0.19832 0.72423 0.0
O325 O 0.43421 0.22752 0.71165 0.0
C326 C 0.50353 0.30485 0.80634 0.0
O327 O 0.41843 0.26137 0.77655 0.0
O328 O 0.43693 0.22796 0.81901 0.0
N329 N 0.44212 0.30222 0.70861 0.0
C330 C 0.42929 0.32846 0.71613 0.0
C331 C 0.4356 0.3314 0.65773 0.0
N332 N 0.44587 0.30403 0.67226 0.0
N333 N 0.42483 0.34688 0.68472 0.0
C334 C 0.51748 0.17808 0.80959 0.0
C335 C 0.52871 0.18369 0.86771 0.0
N336 N 0.50186 0.20159 0.81993 0.0
N337 N 0.50876 0.2048 0.85614 0.0
N338 N 0.53454 0.16646 0.83909 0.0
H339 H 0.5093 0.18518 0.74929 0.0
H340 H 0.50185 0.14264 0.76683 0.0
H341 H 0.54441 0.16731 0.7642 0.0
C342 C 0.51836 0.16818 0.77023 0.0
C343 C 0.42399 0.3383 0.75432 0.0
H344 H 0.43319 0.32267 0.77678 0.0
H345 H 0.39666 0.33596 0.7571 0.0
H346 H 0.43692 0.36514 0.75797 0.0
O347 O 0.4871 0.30812 0.77569 0.0
O348 O 0.50494 0.27555 0.81928 0.0
C349 C 0.41459 0.24379 0.80691 0.0
O350 O 0.52242 0.24432 0.75482 0.0
O351 O 0.50233 0.27519 0.71135 0.0
Zn352 Zn 0.00278 0.70882 0.75863 0.0
O353 O 0.00138 0.66516 0.73166 0.0
C354 C 0.0354 0.74961 0.69275 0.0
Zn355 Zn 0.96641 0.7213 0.71378 0.0
C356 C 0.9835 0.65576 0.70228 0.0
O357 O 0.96444 0.6742 0.68713 0.0
C358 C 0.98863 0.77336 0.77179 0.0
O359 O 0.92791 0.69612 0.74777 0.0
O360 O 0.96306 0.68235 0.79148 0.0
N361 N 0.93131 0.73621 0.67596 0.0
C362 C 0.90752 0.75328 0.6815 0.0
C363 C 0.91378 0.75587 0.62324 0.0
N364 N 0.93481 0.73762 0.63963 0.0
N365 N 0.89624 0.76602 0.64885 0.0
C366 C 0.06686 0.68853 0.7954 0.0
C367 C 0.06487 0.70047 0.85183 0.0
N368 N 0.03786 0.69833 0.79801 0.0
N369 N 0.03659 0.70548 0.83315 0.0
N370 N 0.08419 0.68966 0.8288 0.0
H371 H 0.06458 0.68702 0.73507 0.0
H372 H 0.07776 0.65278 0.76006 0.0
H373 H 0.10642 0.69349 0.75761 0.0
C374 C 0.07949 0.68028 0.75984 0.0
C375 C 0.89755 0.76043 0.71895 0.0
H376 H 0.91099 0.74941 0.74219 0.0
H377 H 0.87019 0.74952 0.72143 0.0
H378 H 0.90219 0.78808 0.72169 0.0
O379 O 0.97154 0.7679 0.74105 0.0
O380 O 0.00392 0.75174 0.78597 0.0
C381 C 0.93298 0.68195 0.77928 0.0
O382 O 0.0419 0.7369 0.72475 0.0
O383 O 0.00494 0.74596 0.68051 0.0
Zn384 Zn 0.75231 0.5333 0.28037 0.0
O385 O 0.75662 0.57792 0.24514 0.0
C386 C 0.70459 0.49156 0.22454 0.0
Zn387 Zn 0.77666 0.51178 0.23766 0.0
C388 C 0.7687 0.57981 0.21334 0.0
O389 O 0.77841 0.55484 0.20266 0.0
C390 C 0.76184 0.46562 0.30479 0.0
O391 O 0.82201 0.53588 0.26402 0.0
O392 O 0.7986 0.55541 0.30826 0.0
N393 N 0.80165 0.4935 0.2001 0.0
C394 C 0.82441 0.47444 0.20506 0.0
C395 C 0.81575 0.48232 0.14648 0.0
N396 N 0.79636 0.49853 0.1637 0.0
N397 N 0.83338 0.46703 0.17201 0.0
C398 C 0.70052 0.56772 0.31046 0.0
C399 C 0.70631 0.55934 0.36927 0.0
N400 N 0.72531 0.55108 0.31715 0.0
N401 N 0.72872 0.54568 0.35366 0.0
N402 N 0.68798 0.57292 0.34272 0.0
H403 H 0.70935 0.60748 0.26862 0.0
H404 H 0.66599 0.58625 0.26976 0.0
H405 H 0.69471 0.56627 0.25037 0.0
C406 C 0.69189 0.58244 0.2728 0.0
C407 C 0.83843 0.46331 0.24202 0.0
H408 H 0.83746 0.48074 0.26395 0.0
H409 H 0.86497 0.46162 0.24007 0.0
H410 H 0.82345 0.43782 0.25008 0.0
O411 O 0.77457 0.46832 0.27331 0.0
O412 O 0.74976 0.48934 0.31495 0.0
C413 C 0.8249 0.55202 0.29349 0.0
O414 O 0.70641 0.50967 0.25234 0.0
O415 O 0.73143 0.48795 0.21154 0.0
Zn416 Zn 0.75615 0.7781 0.01573 0.0
O417 O 0.70524 0.75528 0.02378 0.0
C418 C 0.77912 0.72089 0.05013 0.0
Zn419 Zn 0.76294 0.74562 0.97176 0.0
C420 C 0.69376 0.72942 0.00483 0.0
O421 O 0.71237 0.72117 0.98185 0.0
C422 C 0.82562 0.79374 0.9859 0.0
O423 O 0.74543 0.77597 0.92817 0.0
O424 O 0.7412 0.80895 0.97224 0.0
N425 N 0.76446 0.70937 0.93612 0.0
C426 C 0.78014 0.71105 0.90426 0.0
C427 C 0.76097 0.65898 0.91876 0.0
N428 N 0.75224 0.67701 0.94492 0.0
N429 N 0.77808 0.67986 0.89273 0.0
C430 C 0.74641 0.81802 0.0827 0.0
C431 C 0.76936 0.86817 0.06364 0.0
N432 N 0.75822 0.81602 0.04941 0.0
N433 N 0.7729 0.84711 0.03782 0.0
N434 N 0.75327 0.85048 0.09238 0.0
H435 H 0.72237 0.7648 0.08976 0.0
H436 H 0.70041 0.79331 0.10805 0.0
H437 H 0.73811 0.78561 0.1319 0.0
C438 C 0.72557 0.78861 0.10404 0.0
C439 C 0.80079 0.74277 0.88667 0.0
H440 H 0.79309 0.76533 0.8949 0.0
H441 H 0.79828 0.7418 0.85591 0.0
H442 H 0.82779 0.74503 0.89551 0.0
O443 O 0.81434 0.77065 0.96318 0.0
O444 O 0.80611 0.80003 0.00869 0.0
C445 C 0.73803 0.80251 0.93806 0.0
O446 O 0.77046 0.747 0.05929 0.0
O447 O 0.77935 0.71532 0.01584 0.0
Zn448 Zn 0.47626 0.05134 0.49717 0.0
O449 O 0.50722 0.04092 0.54436 0.0
C450 C 0.52151 0.11352 0.47666 0.0
Zn451 Zn 0.51035 0.0403 0.45754 0.0
C452 C 0.53437 0.03264 0.53824 0.0
O453 O 0.54217 0.0321 0.50482 0.0
C454 C 0.45036 0.05436 0.41702 0.0
O455 O 0.49068 0.9883 0.45661 0.0
O456 O 0.45517 -0.0006 0.49441 0.0
N457 N 0.54847 0.03971 0.42548 0.0
C458 C 0.55056 0.02231 0.39582 0.0
C459 C 0.60007 0.05168 0.40957 0.0
N460 N 0.57914 0.0583 0.43378 0.0
N461 N 0.5825 0.02973 0.38503 0.0
C462 C 0.43908 0.07213 0.56022 0.0
C463 C 0.38742 0.05458 0.54164 0.0
N464 N 0.43861 0.05539 0.52919 0.0
N465 N 0.40649 0.04424 0.51783 0.0
N466 N 0.40739 0.07172 0.56868 0.0
H467 H 0.49354 0.09155 0.56661 0.0
H468 H 0.47221 0.08046 0.60916 0.0
H469 H 0.46848 0.11807 0.58281 0.0
C470 C 0.47034 0.09163 0.58049 0.0
C471 C 0.52244 -0.00487 0.38014 0.0
H472 H 0.49745 -0.00083 0.38571 0.0
H473 H 0.52475 0.97044 0.39326 0.0
H474 H 0.52422 -0.00591 0.34969 0.0
O475 O 0.47766 0.0465 0.41075 0.0
O476 O 0.44495 0.05983 0.45006 0.0
C477 C 0.4652 0.97835 0.47607 0.0
O478 O 0.4981 0.10396 0.49897 0.0
O479 O 0.52963 0.09189 0.45779 0.0
Zn480 Zn 0.48905 0.51801 0.06723 0.0
O481 O 0.51581 0.50201 0.11325 0.0
C482 C 0.55082 0.564 0.0379 0.0
Zn483 Zn 0.51485 0.49344 0.02918 0.0
C484 C 0.53683 0.48455 0.10862 0.0
O485 O 0.54136 0.4773 0.07597 0.0
C486 C 0.46746 0.52906 0.98845 0.0
O487 O 0.47757 0.44911 0.03481 0.0
O488 O 0.45133 0.47274 0.07277 0.0
N489 N 0.54103 0.47091 -0.00283 0.0
C490 C 0.53175 0.4517 0.96755 0.0
C491 C 0.58311 0.4515 0.98319 0.0
N492 N 0.57299 0.47099 0.00669 0.0
N493 N 0.55775 0.4394 0.9582 0.0
C494 C 0.47708 0.56322 0.12693 0.0
C495 C 0.42396 0.55902 0.12107 0.0
N496 N 0.46451 0.54076 0.10085 0.0
N497 N 0.43141 0.53783 0.09745 0.0
N498 N 0.45221 0.57467 0.14025 0.0
H499 H 0.51801 0.58227 0.16672 0.0
H500 H 0.52245 0.60152 0.12082 0.0
H501 H 0.52967 0.56002 0.13005 0.0
C502 C 0.51396 0.57717 0.13666 0.0
C503 C 0.4967 0.44288 0.94956 0.0
H504 H 0.47814 0.44997 0.96644 0.0
H505 H 0.48896 0.41546 0.94492 0.0
H506 H 0.49648 0.45656 0.92205 0.0
O507 O 0.48835 0.51163 0.98223 0.0
O508 O 0.46209 0.53382 0.02166 0.0
C509 C 0.45333 0.4471 0.05557 0.0
O510 O 0.52752 0.5641 0.05947 0.0
O511 O 0.55179 0.53685 0.02346 0.0
H512 H 0.98481 0.15522 0.06062 0.0
H513 H 0.97403 0.07599 0.14621 0.0
H514 H 0.98663 0.11777 0.19442 0.0
H515 H 0.00167 0.17693 0.21188 0.0
H516 H 0.00918 0.2564 0.12625 0.0
H517 H -0.00328 0.21467 0.07831 0.0
C518 C 0.98533 0.14737 0.08989 0.0
C519 C 0.97897 0.11286 0.10018 0.0
C520 C 0.99186 0.17153 0.11727 0.0
C521 C 0.97902 0.10256 0.13799 0.0
C522 C 0.98622 0.12639 0.1654 0.0
C523 C 0.00039 0.18509 0.18273 0.0
C524 C 0.00641 0.21971 0.17264 0.0
C525 C -0.00721 0.16095 0.15536 0.0
C526 C 0.00445 0.2299 0.13476 0.0
C527 C -0.00251 0.20606 0.10732 0.0
H528 H 0.83928 0.26048 0.3561 0.0
H529 H 0.87579 0.18857 0.42983 0.0
H530 H 0.92721 0.19768 0.39543 0.0
H531 H 0.96298 0.22878 0.34643 0.0
H532 H 0.92511 0.29978 0.27187 0.0
H533 H 0.87325 0.28871 0.3046 0.0
C534 C 0.85858 0.24686 0.36442 0.0
C535 C 0.85428 0.2243 0.39554 0.0
C536 C 0.88789 0.25233 0.34459 0.0
C537 C 0.87886 0.20609 0.40586 0.0
C538 C 0.90822 0.21145 0.38636 0.0
C539 C 0.94334 0.24171 0.33723 0.0
C540 C 0.94831 0.26558 0.30708 0.0
C541 C 0.91324 0.23492 0.356 0.0
C542 C 0.92234 0.28177 0.29532 0.0
C543 C 0.89252 0.27535 0.31395 0.0
H544 H 0.73317 0.09924 0.69138 0.0
H545 H 0.77995 0.04959 0.61492 0.0
H546 H 0.78551 0.09855 0.57124 0.0
H547 H 0.7747 0.15449 0.55375 0.0
H548 H 0.72708 0.20295 0.63066 0.0
H549 H 0.72404 0.15517 0.67502 0.0
C550 C 0.74492 0.09914 0.66534 0.0
C551 C 0.75612 0.07075 0.65646 0.0
C552 C 0.74754 0.12703 0.64023 0.0
C553 C 0.77118 0.07115 0.62251 0.0
C554 C 0.77421 0.09907 0.59744 0.0
C555 C 0.76367 0.15459 0.58022 0.0
C556 C 0.75096 0.18221 0.58871 0.0
C557 C 0.76204 0.12696 0.60579 0.0
C558 C 0.73693 0.18201 0.62326 0.0
C559 C 0.73523 0.15471 0.64874 0.0
H560 H 0.93092 0.00565 0.84715 0.0
H561 H 0.89047 0.05329 0.93101 0.0
H562 H 0.8377 0.04857 0.89277 0.0
H563 H 0.80209 0.02849 0.83638 0.0
H564 H 0.84342 0.97972 0.75406 0.0
H565 H 0.89659 0.98728 0.79093 0.0
C566 C 0.91073 0.0153 0.85706 0.0
C567 C 0.91473 0.02979 0.89197 0.0
C568 C 0.8804 0.01208 0.83525 0.0
C569 C 0.88815 0.04205 0.90424 0.0
C570 C 0.85789 0.03925 0.88242 0.0
C571 C 0.82279 0.01969 0.82645 0.0
C572 C 0.81858 0.00349 0.79245 0.0
C573 C 0.85356 0.02393 0.84802 0.0
C574 C 0.84575 0.99222 0.78008 0.0
C575 C 0.87629 -0.00347 0.80115 0.0
H576 H 0.0606 0.0177 0.08129 0.0
H577 H 0.1112 0.98712 0.993 0.0
H578 H 0.1528 0.97141 0.03864 0.0
H579 H 0.17536 0.96719 0.10396 0.0
H580 H 0.12372 -0.0022 0.19143 0.0
H581 H 0.08183 0.01208 0.14585 0.0
C582 C 0.0808 0.00777 0.07188 0.0
C583 C 0.08284 0.00387 0.03364 0.0
C584 C 0.10432 -0.00163 0.09827 0.0
C585 C 0.10906 0.99057 0.0222 0.0
C586 C 0.13281 0.98145 0.04833 0.0
C587 C 0.15463 0.97646 0.11308 0.0
C588 C 0.1527 0.98122 0.1512 0.0
C589 C 0.13067 0.98516 0.08651 0.0
C590 C 0.12588 -0.00624 0.16238 0.0
C591 C 0.10193 0.00212 0.13628 0.0
H592 H 0.07747 0.45689 0.41665 0.0
H593 H 0.0876 0.37676 0.49694 0.0
H594 H 0.0905 0.34029 0.44618 0.0
H595 H 0.08193 0.32906 0.3789 0.0
H596 H 0.06764 0.40905 0.30002 0.0
H597 H 0.07452 0.44768 0.35037 0.0
C598 C 0.08091 0.43161 0.42318 0.0
C599 C 0.08196 0.41942 0.46054 0.0
C600 C 0.08127 0.41061 0.39401 0.0
C601 C 0.08684 0.38679 0.46847 0.0
C602 C 0.08811 0.36584 0.4394 0.0
C603 C 0.08096 0.35512 0.37268 0.0
C604 C 0.07398 0.36606 0.33567 0.0
C605 C 0.0841 0.37711 0.40203 0.0
C606 C 0.07269 0.39987 0.32816 0.0
C607 C 0.07661 0.422 0.35697 0.0
H608 H 0.67058 0.27361 0.66805 0.0
H609 H 0.6421 0.35162 0.59653 0.0
H610 H 0.58814 0.3421 0.62613 0.0
H611 H 0.54802 0.30891 0.66979 0.0
H612 H 0.57662 0.22954 0.73992 0.0
H613 H 0.63128 0.24139 0.71257 0.0
C614 C 0.65241 0.28836 0.65906 0.0
C615 C 0.65965 0.31278 0.62998 0.0
C616 C 0.62138 0.28205 0.6754 0.0
C617 C 0.63671 0.33268 0.61902 0.0
C618 C 0.60587 0.32699 0.63561 0.0
C619 C 0.56615 0.2941 0.67888 0.0
C620 C 0.55821 0.26822 0.70655 0.0
C621 C 0.59767 0.30122 0.66329 0.0
C622 C 0.58208 0.2495 0.71849 0.0
C623 C 0.61339 0.25633 0.70302 0.0
H624 H 0.70029 0.92402 0.8433 0.0
H625 H 0.70287 0.85978 0.75356 0.0
H626 H 0.71185 0.81494 0.79837 0.0
H627 H 0.72544 0.7966 0.86292 0.0
H628 H 0.72387 0.86213 0.952 0.0
H629 H 0.70803 0.90366 0.90761 0.0
C630 C 0.70189 0.8999 0.83353 0.0
C631 C 0.70139 0.89539 0.7952 0.0
C632 C 0.7079 0.87461 0.85936 0.0
C633 C 0.70366 0.86401 0.783 0.0
C634 C 0.70894 0.83842 0.80859 0.0
C635 C 0.72138 0.81985 0.8726 0.0
C636 C 0.72632 0.82636 0.91068 0.0
C637 C 0.71233 0.8439 0.84683 0.0
C638 C 0.7206 0.85651 0.92282 0.0
C639 C 0.71143 0.88033 0.89746 0.0
H640 H 0.17551 0.33771 0.06784 0.0
H641 H 0.17114 0.23158 0.08842 0.0
H642 H 0.14747 0.23268 0.14823 0.0
H643 H 0.12481 0.2626 0.19278 0.0
H644 H 0.12643 0.36791 0.17217 0.0
H645 H 0.15534 0.36861 0.11482 0.0
C646 C 0.16917 0.31482 0.08534 0.0
C647 C 0.17471 0.28455 0.07344 0.0
C648 C 0.15571 0.31561 0.12001 0.0
C649 C 0.16689 0.2552 0.09673 0.0
C650 C 0.15354 0.2558 0.13109 0.0
C651 C 0.13254 0.28599 0.17653 0.0
C652 C 0.12395 0.31523 0.18699 0.0
C653 C 0.14772 0.28579 0.14293 0.0
C654 C 0.13317 0.34513 0.16485 0.0
C655 C 0.14928 0.34543 0.13184 0.0
H656 H 0.74803 0.45771 0.37763 0.0
H657 H 0.77727 0.40675 0.28853 0.0
H658 H 0.78039 0.35851 0.33092 0.0
H659 H 0.77453 0.3307 0.39334 0.0
H660 H 0.74508 0.38206 0.48207 0.0
H661 H 0.74248 0.43023 0.43973 0.0
C662 C 0.75492 0.43599 0.36739 0.0
C663 C 0.76243 0.43586 0.32999 0.0
C664 C 0.75678 0.40843 0.39189 0.0
C665 C 0.77154 0.40759 0.31726 0.0
C666 C 0.77331 0.37997 0.34147 0.0
C667 C 0.76771 0.35249 0.40344 0.0
C668 C 0.76001 0.35272 0.44081 0.0
C669 C 0.76605 0.38014 0.37888 0.0
C670 C 0.75111 0.38115 0.45343 0.0
C671 C 0.74955 0.40874 0.42923 0.0
H672 H 0.5839 -0.00069 0.53317 0.0
H673 H 0.53164 0.03927 0.61307 0.0
H674 H 0.56593 0.01926 0.66395 0.0
H675 H 0.61219 0.99224 0.6854 0.0
H676 H 0.66535 0.95408 0.60499 0.0
H677 H 0.62809 0.97001 0.55484 0.0
C678 C 0.58005 0.0038 0.5617 0.0
C679 C 0.55553 0.02123 0.56922 0.0
C680 C 0.5996 0.99195 0.59078 0.0
C681 C 0.55052 0.02622 0.60644 0.0
C682 C 0.57001 0.01463 0.63556 0.0
C683 C 0.61564 0.9874 0.65695 0.0
C684 C 0.64207 0.97259 0.64909 0.0
C685 C 0.5948 -0.00232 0.62803 0.0
C686 C 0.64535 0.96547 0.61204 0.0
C687 C 0.62426 0.97494 0.58321 0.0
H688 H 0.02091 0.89382 0.87816 0.0
H689 H 0.02046 0.95134 0.77445 0.0
H690 H 0.00469 0.89894 0.74021 0.0
H691 H 0.99199 0.8364 0.74076 0.0
H692 H -0.00568 0.7802 0.84582 0.0
H693 H 0.00751 0.83231 0.87901 0.0
C694 C 0.0174 0.89457 0.84803 0.0
C695 C 0.02181 0.92574 0.82848 0.0
C696 C 0.00823 0.8647 0.8291 0.0
C697 C 0.01734 0.9272 0.78961 0.0
C698 C 0.00813 0.89739 0.77028 0.0
C699 C -0.00511 0.83573 0.77092 0.0
C700 C 0.99216 0.80473 0.79096 0.0
C701 C 0.00345 0.86594 0.78981 0.0
C702 C -0.00359 0.80392 0.82995 0.0
C703 C 0.00408 0.83363 0.84891 0.0
H704 H 0.0357 0.14688 0.94778 0.0
H705 H 0.09009 0.08954 0.88902 0.0
H706 H 0.1344 0.1398 0.87788 0.0
H707 H 0.16282 0.19657 0.89618 0.0
H708 H 0.1094 0.25466 0.95444 0.0
H709 H 0.05913 0.20795 0.95356 0.0
C710 C 0.05693 0.14562 0.93192 0.0
C711 C 0.06019 0.11445 0.92032 0.0
C712 C 0.08249 0.17469 0.92556 0.0
C713 C 0.0873 0.11318 0.8989 0.0
C714 C 0.11273 0.14189 0.89248 0.0
C715 C 0.13962 0.19935 0.9072 0.0
C716 C 0.1395 0.22843 0.92559 0.0
C717 C 0.11134 0.17231 0.90726 0.0
C718 C 0.10965 0.23228 0.93992 0.0
C719 C 0.08117 0.20545 0.93991 0.0
H720 H 0.69592 0.62264 0.39002 0.0
H721 H 0.62503 0.56548 0.31045 0.0
H722 H 0.59095 0.60751 0.30786 0.0
H723 H 0.58836 0.66482 0.31978 0.0
H724 H 0.65421 0.7188 0.40623 0.0
H725 H 0.68354 0.67323 0.41477 0.0
C726 C 0.67255 0.61908 0.37288 0.0
C727 C 0.66401 0.59251 0.34847 0.0
C728 C 0.65262 0.64277 0.37249 0.0
C729 C 0.63307 0.58716 0.32753 0.0
C730 C 0.6135 0.61095 0.32634 0.0
C731 C 0.60769 0.66637 0.34194 0.0
C732 C 0.61897 0.69584 0.36205 0.0
C733 C 0.62398 0.63972 0.34739 0.0
C734 C 0.64521 0.69676 0.38986 0.0
C735 C 0.66209 0.67072 0.39478 0.0
H736 H 0.3692 0.83864 0.4375 0.0
H737 H 0.32349 0.8608 0.53464 0.0
H738 H 0.36942 0.90962 0.54497 0.0
H739 H 0.41944 0.94846 0.52427 0.0
H740 H 0.46493 0.93068 0.42534 0.0
H741 H 0.42284 0.87712 0.4185 0.0
C742 C 0.36954 0.85415 0.46094 0.0
C743 C 0.34274 0.84652 0.48482 0.0
C744 C 0.39599 0.88278 0.46658 0.0
C745 C 0.34346 0.86655 0.51534 0.0
C746 C 0.36982 0.89437 0.52151 0.0
C747 C 0.42043 0.93275 0.50137 0.0
C748 C 0.44482 0.94357 0.47511 0.0
C749 C 0.39574 0.90306 0.49693 0.0
C750 C 0.44623 0.92274 0.44594 0.0
C751 C 0.42202 0.89235 0.44183 0.0
H752 H 0.10902 0.63728 0.81358 0.0
H753 H 0.13482 0.73362 0.86362 0.0
H754 H 0.19406 0.73024 0.87273 0.0
H755 H 0.23932 0.70143 0.86156 0.0
H756 H 0.21288 0.60568 0.81022 0.0
H757 H 0.15317 0.60711 0.80592 0.0
C758 C 0.12775 0.65752 0.82625 0.0
C759 C 0.11803 0.68594 0.8372 0.0
C760 C 0.16158 0.65551 0.83086 0.0
C761 C 0.14205 0.71158 0.85488 0.0
C762 C 0.17583 0.70971 0.85989 0.0
C763 C 0.22024 0.68089 0.84989 0.0
C764 C 0.23008 0.65381 0.83561 0.0
C765 C 0.18602 0.68207 0.84732 0.0
C766 C 0.20552 0.62702 0.82065 0.0
C767 C 0.17153 0.6278 0.81831 0.0
H768 H 0.87594 0.29393 0.51499 0.0
H769 H 0.83744 0.33223 0.60768 0.0
H770 H 0.8927 0.36984 0.6208 0.0
H771 H 0.94825 0.39888 0.5984 0.0
H772 H 0.98305 0.36497 0.50088 0.0
H773 H 0.93309 0.31815 0.49721 0.0
C774 C 0.87977 0.30997 0.53856 0.0
C775 C 0.8526 0.31095 0.55982 0.0
C776 C 0.9109 0.3325 0.54476 0.0
C777 C 0.85798 0.33153 0.59054 0.0
C778 C 0.88949 0.35308 0.59798 0.0
C779 C 0.94509 0.38052 0.57715 0.0
C780 C 0.96866 0.38482 0.54991 0.0
C781 C 0.91559 0.35489 0.57417 0.0
C782 C 0.96475 0.36165 0.52197 0.0
C783 C 0.93629 0.33512 0.51984 0.0
H784 H 0.36339 0.94595 0.17889 0.0
H785 H 0.31398 0.86352 0.11115 0.0
H786 H 0.36776 0.84657 0.10833 0.0
H787 H 0.42866 0.85453 0.12785 0.0
H788 H 0.47634 0.93668 0.19741 0.0
H789 H 0.42375 0.9551 0.19624 0.0
C790 C 0.36455 0.92416 0.16376 0.0
C791 C 0.33503 0.90543 0.14595 0.0
C792 C 0.39525 0.9148 0.16244 0.0
C793 C 0.33659 0.8779 0.12536 0.0
C794 C 0.36723 0.86832 0.12381 0.0
C795 C 0.42737 0.87624 0.14292 0.0
C796 C 0.45623 0.89387 0.16322 0.0
C797 C 0.39669 0.88637 0.1427 0.0
C798 C 0.45452 0.92277 0.18152 0.0
C799 C 0.4244 0.93316 0.18112 0.0
H800 H 0.37446 0.47701 0.70408 0.0
H801 H 0.46996 0.52357 0.65885 0.0
H802 H 0.48016 0.46768 0.64975 0.0
H803 H 0.46295 0.40539 0.65905 0.0
H804 H 0.3673 0.35973 0.70464 0.0
H805 H 0.35563 0.41536 0.70934 0.0
C806 C 0.39754 0.47471 0.69246 0.0
C807 C 0.4219 0.50392 0.68294 0.0
C808 C 0.40296 0.44278 0.68739 0.0
C809 C 0.45124 0.50112 0.66672 0.0
C810 C 0.45695 0.4693 0.66156 0.0
C811 C 0.43936 0.40786 0.66927 0.0
C812 C 0.41603 0.3789 0.6818 0.0
C813 C 0.43315 0.43994 0.67227 0.0
C814 C 0.38559 0.38195 0.6953 0.0
C815 C 0.37902 0.41363 0.698 0.0
H816 H 0.13203 0.81789 0.56763 0.0
H817 H 0.20676 0.79471 0.64852 0.0
H818 H 0.16346 0.77501 0.69388 0.0
H819 H 0.10333 0.75886 0.70752 0.0
H820 H 0.02874 0.78128 0.62506 0.0
H821 H 0.07295 0.80706 0.58338 0.0
C822 C 0.1388 0.80934 0.59555 0.0
C823 C 0.17214 0.80725 0.60486 0.0
C824 C 0.11376 0.79748 0.6209 0.0
C825 C 0.18096 0.79599 0.64089 0.0
C826 C 0.15626 0.78468 0.66664 0.0
C827 C 0.0968 0.7697 0.6806 0.0
C828 C 0.06276 0.7677 0.66925 0.0
C829 C 0.12237 0.7843 0.65649 0.0
C830 C 0.05472 0.7821 0.63436 0.0
C831 C 0.07998 0.79693 0.61047 0.0
H832 H 0.21749 0.85887 0.2621 0.0
H833 H 0.16977 0.91845 0.32614 0.0
H834 H 0.16739 0.87758 0.3785 0.0
H835 H 0.18998 0.832 0.41 0.0
H836 H 0.23963 0.7739 0.34621 0.0
H837 H 0.22967 0.8068 0.28994 0.0
C838 C 0.20565 0.86241 0.28708 0.0
C839 C 0.19487 0.8921 0.29069 0.0
C840 C 0.2053 0.8394 0.31751 0.0
C841 C 0.17898 0.89607 0.32297 0.0
C842 C 0.17776 0.87282 0.35306 0.0
C843 C 0.1979 0.82606 0.38364 0.0
C844 C 0.21643 0.80134 0.38252 0.0
C845 C 0.19269 0.8455 0.35136 0.0
C846 C 0.22596 0.79339 0.34803 0.0
C847 C 0.22031 0.81219 0.31574 0.0
H848 H 0.9566 0.62894 0.63544 0.0
H849 H 0.01928 0.61162 0.73277 0.0
H850 H 0.03151 0.56358 0.7051 0.0
H851 H 0.02812 0.52855 0.65151 0.0
H852 H 0.9658 0.54551 0.55392 0.0
H853 H 0.94951 0.59061 0.58357 0.0
C854 C 0.97257 0.6144 0.65074 0.0
C855 C 0.98719 0.62434 0.68597 0.0
C856 C 0.97978 0.58649 0.63459 0.0
C857 C 0.00781 0.60498 0.70541 0.0
C858 C 0.01492 0.57733 0.68964 0.0
C859 C 0.01071 0.54182 0.63687 0.0
C860 C -0.00145 0.53361 0.60039 0.0
C861 C 0.00161 0.5682 0.65395 0.0
C862 C 0.97572 0.5511 0.58204 0.0
C863 C 0.96643 0.57716 0.59891 0.0
H864 H 0.34064 0.73597 0.32196 0.0
H865 H 0.38349 0.6859 0.41496 0.0
H866 H 0.43958 0.70534 0.39088 0.0
H867 H 0.47704 0.74361 0.34893 0.0
H868 H 0.43468 0.80148 0.26218 0.0
H869 H 0.37793 0.77401 0.27968 0.0
C870 C 0.36237 0.72974 0.33706 0.0
C871 C 0.35839 0.71092 0.37083 0.0
C872 C 0.39467 0.74342 0.32492 0.0
C873 C 0.38617 0.70076 0.38897 0.0
C874 C 0.41825 0.71234 0.37562 0.0
C875 C 0.45543 0.75037 0.33397 0.0
C876 C 0.46005 0.77464 0.30438 0.0
C877 C 0.42294 0.73504 0.34468 0.0
C878 C 0.43179 0.7829 0.28507 0.0
C879 C 0.39931 0.76706 0.2949 0.0
H880 H 0.26661 0.03731 0.11836 0.0
H881 H 0.28996 0.1045 0.2092 0.0
H882 H 0.29815 0.1533 0.16473 0.0
H883 H 0.29214 0.1754 0.10087 0.0
H884 H 0.2551 0.10626 0.01301 0.0
H885 H 0.26134 0.05952 0.05515 0.0
C886 C 0.27427 0.06267 0.12842 0.0
C887 C 0.27775 0.06765 0.16669 0.0
C888 C 0.2764 0.09007 0.10316 0.0
C889 C 0.28715 0.10041 0.17963 0.0
C890 C 0.29167 0.12812 0.1543 0.0
C891 C 0.28383 0.15034 0.09094 0.0
C892 C 0.27072 0.14463 0.05414 0.0
C893 C 0.28485 0.12312 0.11607 0.0
C894 C 0.26425 0.11165 0.04141 0.0
C895 C 0.26768 0.08473 0.06551 0.0
H896 H 0.83336 0.6568 0.90765 0.0
H897 H 0.76852 0.68523 0.81862 0.0
H898 H 0.80976 0.68246 0.77329 0.0
H899 H 0.86725 0.68046 0.76124 0.0
H900 H 0.93438 0.65646 0.85131 0.0
H901 H 0.88901 0.64804 0.89415 0.0
C902 C 0.82809 0.66127 0.87812 0.0
C903 C 0.79831 0.67106 0.86599 0.0
C904 C 0.8524 0.66077 0.85275 0.0
C905 C 0.79142 0.67747 0.82803 0.0
C906 C 0.81501 0.6761 0.80238 0.0
C907 C 0.87186 0.67272 0.79008 0.0
C908 C 0.9043 0.66963 0.80322 0.0
C909 C 0.8461 0.66906 0.81468 0.0
C910 C 0.9097 0.65927 0.84057 0.0
C911 C 0.88383 0.65462 0.86511 0.0
H912 H 0.38265 0.66716 0.64972 0.0
H913 H 0.34622 0.72381 0.72818 0.0
H914 H 0.32141 0.75371 0.67712 0.0
H915 H 0.30145 0.75592 0.6111 0.0
H916 H 0.33533 0.69573 0.53407 0.0
H917 H 0.36911 0.67467 0.58373 0.0
C918 C 0.37032 0.68687 0.65567 0.0
C919 C 0.36562 0.69277 0.69255 0.0
C920 C 0.35451 0.70246 0.62645 0.0
C921 C 0.34981 0.71857 0.69985 0.0
C922 C 0.33519 0.73533 0.67072 0.0
C923 C 0.31634 0.73831 0.60527 0.0
C924 C 0.31527 0.72688 0.56921 0.0
C925 C 0.33573 0.72603 0.63407 0.0
C926 C 0.33523 0.70457 0.56177 0.0
C927 C 0.35479 0.69262 0.59008 0.0
H928 H 0.31002 0.03414 0.32851 0.0
H929 H 0.35069 0.96388 0.272 0.0
H930 H 0.40453 0.98133 0.30778 0.0
H931 H 0.43916 0.0149 0.35729 0.0
H932 H 0.39749 0.08429 0.41402 0.0
H933 H 0.3452 0.0695 0.37513 0.0
C934 C 0.33055 0.02244 0.32404 0.0
C935 C 0.32604 -0.00271 0.29792 0.0
C936 C 0.36148 0.0329 0.34434 0.0
C937 C 0.35321 0.98293 0.29219 0.0
C938 C 0.38412 -0.00692 0.31251 0.0
C939 C 0.41895 0.0274 0.36046 0.0
C940 C 0.42225 0.05084 0.38833 0.0
C941 C 0.3885 0.01798 0.33877 0.0
C942 C 0.3956 0.06632 0.39263 0.0
C943 C 0.3656 0.05765 0.37065 0.0
H944 H 0.85661 0.83547 0.03874 0.0
H945 H 0.87061 0.80262 0.93063 0.0
H946 H 0.92028 0.84968 0.92428 0.0
H947 H 0.95297 0.90451 0.94523 0.0
H948 H 0.93301 0.94046 0.04954 0.0
H949 H 0.89199 0.88739 0.06178 0.0
C950 C 0.87073 0.83825 0.01389 0.0
C951 C 0.85962 0.81611 0.98477 0.0
C952 C 0.8977 0.86612 0.00965 0.0
C953 C 0.8786 0.81953 0.95325 0.0
C954 C 0.90673 0.84655 0.94953 0.0
C955 C 0.93995 0.90064 0.97084 0.0
C956 C 0.94548 0.92658 -0.00384 0.0
C957 C 0.91546 0.87077 0.97685 0.0
C958 C 0.92877 0.92103 0.02943 0.0
C959 C 0.90539 0.89075 0.03641 0.0
H960 H 0.63698 0.23528 0.51841 0.0
H961 H 0.67246 0.20895 0.41681 0.0
H962 H 0.61667 0.17331 0.40153 0.0
H963 H 0.56259 0.14189 0.42291 0.0
H964 H 0.53008 0.16143 0.52896 0.0
H965 H 0.57946 0.20872 0.53604 0.0
C966 C 0.63235 0.22226 0.49256 0.0
C967 C 0.65892 0.22407 0.4691 0.0
C968 C 0.60077 0.20065 0.4849 0.0
C969 C 0.6525 0.2074 0.43556 0.0
C970 C 0.62065 0.1871 0.42683 0.0
C971 C 0.56588 0.15699 0.44723 0.0
C972 C 0.54334 0.14778 0.47585 0.0
C973 C 0.59525 0.18232 0.45219 0.0
C974 C 0.54731 0.16795 0.50672 0.0
C975 C 0.57574 0.19466 0.51095 0.0
H976 H 0.89449 0.4857 0.14508 0.0
H977 H 0.82043 0.40072 0.18677 0.0
H978 H 0.86087 0.36493 0.18758 0.0
H979 H 0.91884 0.35981 0.18234 0.0
H980 H -0.00564 0.44497 0.14371 0.0
H981 H 0.952 0.4791 0.13491 0.0
C982 C 0.8873 0.45913 0.15333 0.0
C983 C 0.85493 0.44541 0.16568 0.0
C984 C 0.91099 0.43919 0.15468 0.0
C985 C 0.8454 0.41127 0.17701 0.0
C986 C 0.86848 0.39105 0.17769 0.0
C987 C 0.9258 0.38587 0.17207 0.0
C988 C 0.95941 0.40045 0.16454 0.0
C989 C 0.90158 0.40504 0.16766 0.0
C990 C 0.96844 0.43372 0.14998 0.0
C991 C 0.94434 0.45307 0.14508 0.0
H992 H 0.08224 0.59046 0.50684 0.0
H993 H 0.15995 0.53521 0.52855 0.0
H994 H 0.20326 0.58628 0.51418 0.0
H995 H 0.21842 0.64633 0.49558 0.0
H996 H 0.1411 0.70248 0.47974 0.0
H997 H 0.09754 0.65085 0.49124 0.0
C998 C 0.10869 0.58969 0.50831 0.0
C999 C 0.11822 0.55948 0.51824 0.0
C1000 C 0.13313 0.61898 0.50081 0.0
C1001 C 0.15237 0.5585 0.5209 0.0
C1002 C 0.17697 0.5875 0.51254 0.0
C1003 C 0.19194 0.64698 0.49426 0.0
C1004 C 0.18245 0.67747 0.48632 0.0
C1005 C 0.16754 0.61776 0.50233 0.0
C1006 C 0.14847 0.67882 0.48558 0.0
C1007 C 0.12378 0.64952 0.49222 0.0
H1008 H 0.66195 0.10431 0.8432 0.0
H1009 H 0.59509 0.03511 0.77067 0.0
H1010 H 0.54959 0.06335 0.77786 0.0
H1011 H 0.52889 0.10815 0.80449 0.0
H1012 H 0.59618 0.17924 0.8748 0.0
H1013 H 0.64084 0.14913 0.87041 0.0
C1014 C 0.63739 0.09561 0.82899 0.0
C1015 C 0.63214 0.06834 0.80555 0.0
C1016 C 0.61129 0.11205 0.83335 0.0
C1017 C 0.60011 0.05686 0.78766 0.0
C1018 C 0.57396 0.07274 0.79217 0.0
C1019 C 0.55347 0.1174 0.8183 0.0
C1020 C 0.55943 0.14647 0.83914 0.0
C1021 C 0.57934 0.10057 0.81466 0.0
C1022 C 0.59098 0.15703 0.85846 0.0
C1023 C 0.61661 0.13998 0.8557 0.0
H1024 H 0.79397 0.59081 0.14505 0.0
H1025 H 0.75027 0.63813 0.22653 0.0
H1026 H 0.75261 0.68758 0.1843 0.0
H1027 H 0.76385 0.71576 0.12274 0.0
H1028 H 0.80652 0.66751 0.04116 0.0
H1029 H 0.80838 0.62028 0.08533 0.0
C1030 C 0.78505 0.61196 0.15372 0.0
C1031 C 0.77147 0.61051 0.18871 0.0
C1032 C 0.78647 0.64024 0.12935 0.0
C1033 C 0.76038 0.63834 0.19956 0.0
C1034 C 0.76184 0.6667 0.17547 0.0
C1035 C 0.7741 0.69519 0.11484 0.0
C1036 C 0.78493 0.6951 0.07867 0.0
C1037 C 0.77442 0.66773 0.14011 0.0
C1038 C 0.79792 0.66814 0.06879 0.0
C1039 C 0.79887 0.64105 0.09397 0.0
H1040 H 0.96472 0.53743 0.35637 0.0
H1041 H 0.92002 0.5419 0.4602 0.0
H1042 H 0.87143 0.55702 0.42678 0.0
H1043 H 0.83865 0.56144 0.36736 0.0
H1044 H 0.88565 0.55994 0.2641 0.0
H1045 H 0.93741 0.55337 0.29825 0.0
C1046 C 0.94456 0.54207 0.3718 0.0
C1047 C 0.94488 0.53602 0.41053 0.0
C1048 C 0.91743 0.552 0.35252 0.0
C1049 C 0.91919 0.54346 0.4302 0.0
C1050 C 0.89172 0.55299 0.41112 0.0
C1051 C 0.86062 0.56087 0.35239 0.0
C1052 C 0.85819 0.56032 0.3134 0.0
C1053 C 0.89003 0.55611 0.37217 0.0
C1054 C 0.88685 0.55985 0.29423 0.0
C1055 C 0.91633 0.55578 0.31368 0.0
H1056 H 0.23769 0.55363 0.74989 0.0
H1057 H 0.28914 0.56648 0.64762 0.0
H1058 H 0.24158 0.52697 0.61776 0.0
H1059 H 0.18567 0.48814 0.62097 0.0
H1060 H 0.13379 0.4749 0.72235 0.0
H1061 H 0.18153 0.51454 0.75301 0.0
C1062 C 0.23816 0.5482 0.72088 0.0
C1063 C 0.26664 0.56317 0.70079 0.0
C1064 C 0.21113 0.52474 0.70421 0.0
C1065 C 0.26733 0.55541 0.66349 0.0
C1066 C 0.24032 0.53264 0.64652 0.0
C1067 C 0.18544 0.49351 0.65003 0.0
C1068 C 0.15712 0.47828 0.66996 0.0
C1069 C 0.21236 0.51683 0.66676 0.0
C1070 C 0.15599 0.48592 0.70712 0.0
C1071 C 0.18297 0.50882 0.72431 0.0
H1072 H 0.63245 0.87129 0.16738 0.0
H1073 H 0.66984 0.80669 0.25091 0.0
H1074 H 0.72344 0.81761 0.22151 0.0
H1075 H 0.75433 0.83578 0.16529 0.0
H1076 H 0.71387 0.89424 0.07842 0.0
H1077 H 0.66797 0.89762 0.11684 0.0
C1078 C 0.65249 0.85997 0.1794 0.0
C1079 C 0.64687 0.83729 0.21032 0.0
C1080 C 0.6829 0.86571 0.16195 0.0
C1081 C 0.67331 0.82355 0.22639 0.0
C1082 C 0.70404 0.8299 0.20978 0.0
C1083 C 0.73587 0.85 0.15552 0.0
C1084 C 0.73632 0.86365 0.11906 0.0
C1085 C 0.70838 0.84953 0.17656 0.0
C1086 C 0.71342 0.88319 0.1065 0.0
C1087 C 0.68695 0.8846 0.12816 0.0
H1088 H 0.64366 0.50026 0.24084 0.0
H1089 H 0.69204 0.45125 0.16522 0.0
H1090 H 0.64014 0.43812 0.12573 0.0
H1091 H 0.58552 0.45012 0.10712 0.0
H1092 H 0.53874 0.50289 0.18041 0.0
H1093 H 0.58525 0.50411 0.22695 0.0
C1094 C 0.64265 0.48611 0.21612 0.0
C1095 C 0.6718 0.47758 0.20533 0.0
C1096 C 0.61313 0.47952 0.19302 0.0
C1097 C 0.67004 0.45872 0.17365 0.0
C1098 C 0.64041 0.4512 0.15105 0.0
C1099 C 0.58511 0.46121 0.13362 0.0
C1100 C 0.55936 0.47724 0.13995 0.0
C1101 C 0.61244 0.46298 0.15956 0.0
C1102 C 0.55868 0.49087 0.17466 0.0
C1103 C 0.58533 0.49176 0.2012 0.0
H1104 H 0.39 0.44008 0.07734 0.0
H1105 H 0.45644 0.38467 0.03599 0.0
H1106 H 0.40931 0.33572 0.02773 0.0
H1107 H 0.34791 0.31224 0.02293 0.0
H1108 H 0.28131 0.3706 0.05736 0.0
H1109 H 0.32965 0.41453 0.07849 0.0
C1110 C 0.39427 0.41704 0.06731 0.0
C1111 C 0.4264 0.41604 0.05685 0.0
C1112 C 0.36691 0.38955 0.06125 0.0
C1113 C 0.43169 0.38609 0.0438 0.0
C1114 C 0.4048 0.35812 0.03904 0.0
C1115 C 0.34424 0.33415 0.03615 0.0
C1116 C 0.31155 0.3385 0.03883 0.0
C1117 C 0.37209 0.36003 0.04633 0.0
C1118 C 0.30658 0.36706 0.05522 0.0
C1119 C 0.3341 0.39217 0.06705 0.0
H1120 H 0.08408 0.14071 0.35156 0.0
H1121 H 0.16441 0.21853 0.30802 0.0
H1122 H 0.19822 0.1773 0.30162 0.0
H1123 H 0.20244 0.1182 0.30333 0.0
H1124 H 0.12211 0.04006 0.34638 0.0
H1125 H 0.09066 0.08206 0.35872 0.0
C1126 C 0.1093 0.14849 0.34151 0.0
C1127 C 0.12181 0.18217 0.32975 0.0
C1128 C 0.12821 0.12456 0.33744 0.0
C1129 C 0.15438 0.19243 0.31665 0.0
C1130 C 0.17356 0.16894 0.31294 0.0
C1131 C 0.17802 0.1106 0.31533 0.0
C1132 C 0.16402 0.07635 0.3232 0.0
C1133 C 0.16029 0.1348 0.3222 0.0
C1134 C 0.13296 0.06647 0.33986 0.0
C1135 C 0.11507 0.09038 0.34683 0.0
H1136 H 0.27351 0.44993 0.93418 0.0
H1137 H 0.20147 0.41431 0.84414 0.0
H1138 H 0.23397 0.45641 0.80097 0.0
H1139 H 0.28419 0.50201 0.78906 0.0
H1140 H 0.35655 0.53661 0.87936 0.0
H1141 H 0.324 0.4945 0.92225 0.0
C1142 C 0.2651 0.45156 0.90507 0.0
C1143 C 0.23564 0.42913 0.89197 0.0
C1144 C 0.2847 0.47446 0.88047 0.0
C1145 C 0.22411 0.43168 0.85458 0.0
C1146 C 0.24296 0.45521 0.82992 0.0
C1147 C 0.29324 0.49933 0.81787 0.0
C1148 C 0.32302 0.52115 0.83119 0.0
C1149 C 0.2737 0.47615 0.84243 0.0
C1150 C 0.3341 0.51903 0.86872 0.0
C1151 C 0.31523 0.49552 0.89321 0.0
H1152 H 0.30268 0.23244 0.9206 0.0
H1153 H 0.28512 0.31956 0.85546 0.0
H1154 H 0.32796 0.31418 0.81304 0.0
H1155 H 0.37228 0.28635 0.79721 0.0
H1156 H 0.3914 0.20183 0.866 0.0
H1157 H 0.34547 0.2046 0.90462 0.0
C1158 C 0.30793 0.25036 0.89708 0.0
C1159 C 0.29074 0.27655 0.8913 0.0
C1160 C 0.33286 0.24757 0.8737 0.0
C1161 C 0.29793 0.29921 0.8605 0.0
C1162 C 0.32247 0.29617 0.8364 0.0
C1163 C 0.36631 0.2684 0.82051 0.0
C1164 C 0.38537 0.24394 0.82881 0.0
C1165 C 0.34039 0.2707 0.84312 0.0
C1166 C 0.37727 0.22093 0.85912 0.0
C1167 C 0.35104 0.22252 0.88118 0.0
H1168 H 0.49356 0.5523 0.92198 0.0
H1169 H 0.40921 0.5495 0.98875 0.0
H1170 H 0.38784 0.58702 0.94319 0.0
H1171 H 0.39136 0.61795 0.88347 0.0
H1172 H 0.47293 0.61809 0.81373 0.0
H1173 H 0.49836 0.58592 0.86242 0.0
C1174 C 0.47026 0.55957 0.92617 0.0
C1175 C 0.45265 0.54778 0.95828 0.0
C1176 C 0.45835 0.58162 0.9001 0.0
C1177 C 0.42296 0.558 0.96397 0.0
C1178 C 0.41094 0.57974 0.9382 0.0
C1179 C 0.4154 0.61211 0.8794 0.0
C1180 C 0.43047 0.62069 0.84524 0.0
C1181 C 0.42845 0.59173 0.90626 0.0
C1182 C 0.46118 0.61218 0.84009 0.0
C1183 C 0.47529 0.59318 0.86758 0.0
H1184 H 0.66106 0.67746 0.96425 0.0
H1185 H 0.65394 0.72834 0.06364 0.0
H1186 H 0.60664 0.68229 0.08214 0.0
H1187 H 0.57149 0.62419 0.07291 0.0
H1188 H 0.58328 0.57383 0.97446 0.0
H1189 H 0.62468 0.62284 0.95312 0.0
C1190 C 0.64893 0.67881 0.98975 0.0
C1191 C 0.66119 0.70604 0.01267 0.0
C1192 C 0.6229 0.65193 0.00079 0.0
C1193 C 0.64491 0.70757 0.04543 0.0
C1194 C 0.6181 0.68109 0.0562 0.0
C1195 C 0.58306 0.62418 0.04677 0.0
C1196 C 0.57481 0.59516 0.02575 0.0
C1197 C 0.60757 0.65257 0.03464 0.0
C1198 C 0.58973 0.59551 0.99169 0.0
C1199 C 0.61328 0.62363 0.97921 0.0
H1200 H 0.83558 0.76601 0.67468 0.0
H1201 H 0.91501 0.82471 0.6093 0.0
H1202 H 0.88695 0.87164 0.60371 0.0
H1203 H 0.84143 0.8975 0.62107 0.0
H1204 H 0.76273 0.83893 0.68746 0.0
H1205 H 0.78904 0.79092 0.68995 0.0
C1206 C 0.8469 0.78922 0.65964 0.0
C1207 C 0.87771 0.79214 0.64311 0.0
C1208 C 0.83087 0.81631 0.65712 0.0
C1209 C 0.89134 0.82189 0.62231 0.0
C1210 C 0.87541 0.8488 0.61931 0.0
C1211 C 0.83007 0.87411 0.63584 0.0
C1212 C 0.80071 0.87202 0.65489 0.0
C1213 C 0.84542 0.84653 0.6371 0.0
C1214 C 0.78594 0.84149 0.67365 0.0
C1215 C 0.80083 0.81394 0.67481 0.0
H1216 H 0.40321 0.1952 0.65579 0.0
H1217 H 0.43747 0.13343 0.74472 0.0
H1218 H 0.425 0.08549 0.70512 0.0
H1219 H 0.41421 0.06438 0.64212 0.0
H1220 H 0.38184 0.12582 0.55263 0.0
H1221 H 0.38275 0.17042 0.59552 0.0
C1222 C 0.40724 0.17106 0.66673 0.0
C1223 C 0.42213 0.16817 0.70274 0.0
C1224 C 0.40041 0.14357 0.64363 0.0
C1225 C 0.42671 0.13657 0.71678 0.0
C1226 C 0.41958 0.10907 0.69419 0.0
C1227 C 0.40623 0.08712 0.63262 0.0
C1228 C 0.39811 0.0923 0.59477 0.0
C1229 C 0.40787 0.11274 0.65714 0.0
C1230 C 0.3879 0.12161 0.58199 0.0
C1231 C 0.38885 0.14713 0.60636 0.0
H1232 H 0.53855 0.30761 0.87356 0.0
H1233 H 0.50183 0.36981 0.78681 0.0
H1234 H 0.51921 0.41853 0.82523 0.0
H1235 H 0.53927 0.44206 0.88592 0.0
H1236 H 0.57453 0.38021 0.97325 0.0
H1237 H 0.56416 0.33286 0.93197 0.0
C1238 C 0.53477 0.33191 0.86289 0.0
C1239 C 0.51841 0.33492 0.8277 0.0
C1240 C 0.54452 0.35984 0.88525 0.0
C1241 C 0.51402 0.36668 0.81403 0.0
C1242 C 0.52392 0.39461 0.83595 0.0
C1243 C 0.54486 0.41822 0.89554 0.0
C1244 C 0.55693 0.41403 0.93237 0.0
C1245 C 0.53825 0.39122 0.87196 0.0
C1246 C 0.56507 0.38359 0.9448 0.0
C1247 C 0.55893 0.3566 0.92136 0.0
H1248 H 0.58279 0.92629 0.27154 0.0
H1249 H 0.59874 0.86847 0.37268 0.0
H1250 H 0.61189 0.91985 0.40758 0.0
H1251 H 0.60711 0.97834 0.41073 0.0
H1252 H 0.58498 0.034 0.31098 0.0
H1253 H 0.58711 0.98665 0.27334 0.0
C1254 C 0.58953 0.92498 0.30116 0.0
C1255 C 0.58877 0.89371 0.31989 0.0
C1256 C 0.5962 0.95428 0.32098 0.0
C1257 C 0.59854 0.89233 0.35794 0.0
C1258 C 0.60609 0.92163 0.37783 0.0
C1259 C 0.60443 0.98033 0.38058 0.0
C1260 C 0.59605 0.009 0.36314 0.0
C1261 C 0.60348 0.95238 0.35987 0.0
C1262 C 0.59181 0.01192 0.32437 0.0
C1263 C 0.59249 0.98477 0.30316 0.0
H1264 H 0.46216 0.63632 0.10974 0.0
H1265 H 0.45626 0.57933 0.21416 0.0
H1266 H 0.48017 0.63108 0.24751 0.0
H1267 H 0.50731 0.69141 0.24553 0.0
H1268 H 0.51522 0.74825 0.14042 0.0
H1269 H 0.48602 0.6976 0.10815 0.0
C1270 C 0.46511 0.63576 0.13989 0.0
C1271 C 0.45707 0.60476 0.15992 0.0
C1272 C 0.48003 0.66521 0.15829 0.0
C1273 C 0.46172 0.6034 0.19874 0.0
C1274 C 0.47581 0.63276 0.21752 0.0
C1275 C 0.50305 0.69257 0.21554 0.0
C1276 C 0.51414 0.72312 0.19517 0.0
C1277 C 0.48604 0.66358 0.19739 0.0
C1278 C 0.50729 0.72475 0.15649 0.0
C1279 C 0.49048 0.69593 0.13812 0.0
loop_
_geom_bond_atom_site_label_1
_geom_bond_atom_site_label_2
_geom_bond_distance
_geom_bond_site_symmetry_2
_ccdc_geom_bond_type
Zn0 O1 2.055 . S
Zn0 O8 2.048 1_445 S
Zn0 N16 2.036 1_455 S
Zn0 O28 2.053 1_454 S
Zn0 O30 2.066 . S
O1 Zn0 2.055 . S
O1 C4 1.259 . S
C2 O30 1.256 1_556 S
C2 O31 1.244 . S
Zn3 O5 2.052 1_556 S
Zn3 O7 2.064 1_456 S
Zn3 N9 2.053 . S
Zn3 O27 2.055 1_465 S
Zn3 O31 2.034 1_565 S
C4 O1 1.259 . S
C4 O5 1.254 1_545 S
O5 Zn3 2.052 1_554 S
O5 C4 1.254 1_565 S
C6 O27 1.256 . S
C6 O28 1.244 . S
O7 Zn3 2.064 1_654 S
O7 C29 1.259 . S
O8 Zn0 2.048 1_665 S
O8 C29 1.252 . S
N9 Zn3 2.053 . S
N9 C10 1.298 . S
N9 N12 1.398 . S
C10 N9 1.298 . S
C10 N13 1.367 . S
C10 C23 1.481 1_455 S
C11 N12 1.299 . S
C11 N13 1.379 . S
N12 N9 1.398 . S
N12 C11 1.299 . S
N13 C10 1.367 . S
N13 C11 1.379 . S
C14 N16 1.298 1_455 S
C14 N18 1.367 1_455 S
C14 C22 1.481 . S
C15 N17 1.299 . S
C15 N18 1.379 . S
N16 Zn0 2.036 1_655 S
N16 C14 1.298 1_655 S
N16 N17 1.398 . S
N17 C15 1.299 . S
N17 N16 1.398 . S
N18 C14 1.367 1_655 S
N18 C15 1.379 . S
H19 C22 0.980 . S
H20 C22 0.981 . S
H21 C22 0.981 . S
C22 C14 1.481 . S
C22 H19 0.980 . S
C22 H20 0.981 . S
C22 H21 0.981 . S
C23 C10 1.481 1_655 S
C23 H24 0.980 . S
C23 H25 0.981 . S
C23 H26 0.981 . S
H24 C23 0.980 . S
H25 C23 0.981 . S
H26 C23 0.981 . S
O27 Zn3 2.055 1_645 S
O27 C6 1.256 . S
O28 Zn0 2.053 1_656 S
O28 C6 1.244 . S
C29 O7 1.259 . S
C29 O8 1.252 . S
O30 Zn0 2.066 . S
O30 C2 1.256 1_554 S
O31 C2 1.244 . S
O31 Zn3 2.034 1_545 S
Zn32 O33 2.055 . S
Zn32 O40 2.046 . S
Zn32 N48 2.036 . S
Zn32 O60 2.053 . S
Zn32 O62 2.066 . S
O33 Zn32 2.055 . S
O33 C36 1.259 . S
C34 O62 1.256 . S
C34 O63 1.244 . S
Zn35 O37 2.046 . S
Zn35 O39 2.055 1_455 S
Zn35 N41 2.027 1_455 S
Zn35 O59 2.066 . S
Zn35 O63 2.053 . S
C36 O33 1.259 . S
C36 O37 1.254 . S
O37 Zn35 2.046 . S
O37 C36 1.254 . S
C38 O59 1.256 . S
C38 O60 1.244 . S
O39 Zn35 2.055 1_655 S
O39 C61 1.259 1_655 S
O40 Zn32 2.046 . S
O40 C61 1.254 . S
N41 Zn35 2.027 1_655 S
N41 C42 1.310 . S
N41 N44 1.394 1_655 S
C42 N41 1.310 . S
C42 N45 1.367 . S
C42 C55 1.481 . S
C43 N44 1.299 1_655 S
C43 N45 1.379 . S
N44 N41 1.394 1_455 S
N44 C43 1.299 1_455 S
N45 C42 1.367 . S
N45 C43 1.379 . S
C46 N48 1.298 . S
C46 N50 1.367 . S
C46 C54 1.481 . S
C47 N49 1.299 . S
C47 N50 1.379 . S
N48 Zn32 2.036 . S
N48 C46 1.298 . S
N48 N49 1.398 . S
N49 C47 1.299 . S
N49 N48 1.398 . S
N50 C46 1.367 . S
N50 C47 1.379 . S
H51 C54 0.980 . S
H52 C54 0.981 . S
H53 C54 0.981 . S
C54 C46 1.481 . S
C54 H51 0.980 . S
C54 H52 0.981 . S
C54 H53 0.981 . S
C55 C42 1.481 . S
C55 H56 0.980 . S
C55 H57 0.981 . S
C55 H58 0.981 . S
H56 C55 0.980 . S
H57 C55 0.981 . S
H58 C55 0.981 . S
O59 Zn35 2.066 . S
O59 C38 1.256 . S
O60 Zn32 2.053 . S
O60 C38 1.244 . S
C61 O39 1.259 1_455 S
C61 O40 1.254 . S
O62 Zn32 2.066 . S
O62 C34 1.256 . S
O63 C34 1.244 . S
O63 Zn35 2.053 . S
Zn64 O65 2.055 . S
Zn64 O72 2.046 . S
Zn64 N80 2.036 . S
Zn64 O92 2.053 . S
Zn64 O94 2.066 . S
O65 Zn64 2.055 . S
O65 C68 1.259 . S
C66 O94 1.256 . S
C66 O95 1.244 . S
Zn67 O69 2.046 . S
Zn67 O71 2.055 . S
Zn67 N73 2.036 . S
Zn67 O91 2.066 . S
Zn67 O95 2.053 . S
C68 O65 1.259 . S
C68 O69 1.254 . S
O69 Zn67 2.046 . S
O69 C68 1.254 . S
C70 O91 1.256 . S
C70 O92 1.244 . S
O71 Zn67 2.055 . S
O71 C93 1.259 . S
O72 Zn64 2.046 . S
O72 C93 1.254 . S
N73 Zn67 2.036 . S
N73 C74 1.298 . S
N73 N76 1.398 . S
C74 N73 1.298 . S
C74 N77 1.367 . S
C74 C87 1.481 . S
C75 N76 1.299 . S
C75 N77 1.379 . S
N76 N73 1.398 . S
N76 C75 1.299 . S
N77 C74 1.367 . S
N77 C75 1.379 . S
C78 N80 1.298 . S
C78 N82 1.367 . S
C78 C86 1.481 . S
C79 N81 1.299 . S
C79 N82 1.379 . S
N80 Zn64 2.036 . S
N80 C78 1.298 . S
N80 N81 1.398 . S
N81 C79 1.299 . S
N81 N80 1.398 . S
N82 C78 1.367 . S
N82 C79 1.379 . S
H83 C86 0.980 . S
H84 C86 0.981 . S
H85 C86 0.981 . S
C86 C78 1.481 . S
C86 H83 0.980 . S
C86 H84 0.981 . S
C86 H85 0.981 . S
C87 C74 1.481 . S
C87 H88 0.980 . S
C87 H89 0.981 . S
C87 H90 0.981 . S
H88 C87 0.980 . S
H89 C87 0.981 . S
H90 C87 0.981 . S
O91 Zn67 2.066 . S
O91 C70 1.256 . S
O92 Zn64 2.053 . S
O92 C70 1.244 . S
C93 O71 1.259 . S
C93 O72 1.254 . S
O94 Zn64 2.066 . S
O94 C66 1.256 . S
O95 C66 1.244 . S
O95 Zn67 2.053 . S
Zn96 O97 2.055 . S
Zn96 O104 2.046 . S
Zn96 N112 2.036 . S
Zn96 O124 2.053 . S
Zn96 O126 2.066 . S
O97 Zn96 2.055 . S
O97 C100 1.259 . S
C98 O126 1.256 . S
C98 O127 1.246 . S
Zn99 O101 2.046 . S
Zn99 O103 2.055 . S
Zn99 N105 2.036 1_545 S
Zn99 O123 2.066 1_545 S
Zn99 O127 2.052 . S
C100 O97 1.259 . S
C100 O101 1.254 . S
O101 Zn99 2.046 . S
O101 C100 1.254 . S
C102 O123 1.256 . S
C102 O124 1.244 1_565 S
O103 Zn99 2.055 . S
O103 C125 1.259 . S
O104 Zn96 2.046 . S
O104 C125 1.254 . S
N105 Zn99 2.036 1_565 S
N105 C106 1.298 . S
N105 N108 1.398 . S
C106 N105 1.298 . S
C106 N109 1.367 . S
C106 C119 1.481 . S
C107 N108 1.299 . S
C107 N109 1.379 . S
N108 N105 1.398 . S
N108 C107 1.299 . S
N109 C106 1.367 . S
N109 C107 1.379 . S
C110 N112 1.298 . S
C110 N114 1.367 . S
C110 C118 1.481 . S
C111 N113 1.299 . S
C111 N114 1.379 . S
N112 Zn96 2.036 . S
N112 C110 1.298 . S
N112 N113 1.398 . S
N113 C111 1.299 . S
N113 N112 1.398 . S
N114 C110 1.367 . S
N114 C111 1.379 . S
H115 C118 0.980 . S
H116 C118 0.981 . S
H117 C118 0.981 . S
C118 C110 1.481 . S
C118 H115 0.980 . S
C118 H116 0.981 . S
C118 H117 0.981 . S
C119 C106 1.481 . S
C119 H120 0.980 . S
C119 H121 0.981 . S
C119 H122 0.981 . S
H120 C119 0.980 . S
H121 C119 0.981 . S
H122 C119 0.981 . S
O123 Zn99 2.066 1_565 S
O123 C102 1.256 . S
O124 Zn96 2.053 . S
O124 C102 1.244 1_545 S
C125 O103 1.259 . S
C125 O104 1.254 . S
O126 Zn96 2.066 . S
O126 C98 1.256 . S
O127 C98 1.246 . S
O127 Zn99 2.052 . S
Zn128 O129 2.055 . S
Zn128 O136 2.046 . S
Zn128 N144 2.036 . S
Zn128 O156 2.053 . S
Zn128 O158 2.066 . S
O129 Zn128 2.055 . S
O129 C132 1.259 . S
C130 O158 1.256 . S
C130 O159 1.244 . S
Zn131 O133 2.046 . S
Zn131 O135 2.055 . S
Zn131 N137 2.036 . S
Zn131 O155 2.066 . S
Zn131 O159 2.053 . S
C132 O129 1.259 . S
C132 O133 1.254 . S
O133 Zn131 2.046 . S
O133 C132 1.254 . S
C134 O155 1.256 . S
C134 O156 1.244 . S
O135 Zn131 2.055 . S
O135 C157 1.259 . S
O136 Zn128 2.046 . S
O136 C157 1.254 . S
N137 Zn131 2.036 . S
N137 C138 1.298 . S
N137 N140 1.398 . S
C138 N137 1.298 . S
C138 N141 1.367 . S
C138 C151 1.481 . S
C139 N140 1.299 . S
C139 N141 1.379 . S
N140 N137 1.398 . S
N140 C139 1.299 . S
N141 C138 1.367 . S
N141 C139 1.379 . S
C142 N144 1.298 . S
C142 N146 1.367 . S
C142 C150 1.481 . S
C143 N145 1.299 . S
C143 N146 1.379 . S
N144 Zn128 2.036 . S
N144 C142 1.298 . S
N144 N145 1.398 . S
N145 C143 1.299 . S
N145 N144 1.398 . S
N146 C142 1.367 . S
N146 C143 1.379 . S
H147 C150 0.980 . S
H148 C150 0.981 . S
H149 C150 0.981 . S
C150 C142 1.481 . S
C150 H147 0.980 . S
C150 H148 0.981 . S
C150 H149 0.981 . S
C151 C138 1.481 . S
C151 H152 0.980 . S
C151 H153 0.981 . S
C151 H154 0.981 . S
H152 C151 0.980 . S
H153 C151 0.981 . S
H154 C151 0.981 . S
O155 Zn131 2.066 . S
O155 C134 1.256 . S
O156 Zn128 2.053 . S
O156 C134 1.244 . S
C157 O135 1.259 . S
C157 O136 1.254 . S
O158 Zn128 2.066 . S
O158 C130 1.256 . S
O159 C130 1.244 . S
O159 Zn131 2.053 . S
Zn160 O161 2.055 . S
Zn160 O168 2.046 . S
Zn160 N176 2.036 . S
Zn160 O188 2.053 . S
Zn160 O190 2.066 . S
O161 Zn160 2.055 . S
O161 C164 1.259 . S
C162 O190 1.256 . S
C162 O191 1.244 . S
Zn163 O165 2.046 . S
Zn163 O167 2.055 . S
Zn163 N169 2.036 . S
Zn163 O187 2.066 . S
Zn163 O191 2.053 . S
C164 O161 1.259 . S
C164 O165 1.254 . S
O165 Zn163 2.046 . S
O165 C164 1.254 . S
C166 O187 1.256 . S
C166 O188 1.244 . S
O167 Zn163 2.055 . S
O167 C189 1.259 . S
O168 Zn160 2.046 . S
O168 C189 1.254 . S
N169 Zn163 2.036 . S
N169 C170 1.298 . S
N169 N172 1.398 . S
C170 N169 1.298 . S
C170 N173 1.367 . S
C170 C183 1.481 . S
C171 N172 1.299 . S
C171 N173 1.379 . S
N172 N169 1.398 . S
N172 C171 1.299 . S
N173 C170 1.367 . S
N173 C171 1.379 . S
C174 N176 1.298 . S
C174 N178 1.367 . S
C174 C182 1.481 . S
C175 N177 1.299 . S
C175 N178 1.379 . S
N176 Zn160 2.036 . S
N176 C174 1.298 . S
N176 N177 1.398 . S
N177 C175 1.299 . S
N177 N176 1.398 . S
N178 C174 1.367 . S
N178 C175 1.379 . S
H179 C182 0.980 . S
H180 C182 0.981 . S
H181 C182 0.981 . S
C182 C174 1.481 . S
C182 H179 0.980 . S
C182 H180 0.981 . S
C182 H181 0.981 . S
C183 C170 1.481 . S
C183 H184 0.980 . S
C183 H185 0.981 . S
C183 H186 0.981 . S
H184 C183 0.980 . S
H185 C183 0.981 . S
H186 C183 0.981 . S
O187 Zn163 2.066 . S
O187 C166 1.256 . S
O188 Zn160 2.053 . S
O188 C166 1.244 . S
C189 O167 1.259 . S
C189 O168 1.254 . S
O190 Zn160 2.066 . S
O190 C162 1.256 . S
O191 C162 1.244 . S
O191 Zn163 2.053 . S
Zn192 O193 2.055 . S
Zn192 O200 2.046 . S
Zn192 N208 2.036 . S
Zn192 O220 2.053 . S
Zn192 O222 2.066 . S
O193 Zn192 2.055 . S
O193 C196 1.259 . S
C194 O222 1.256 . S
C194 O223 1.244 . S
Zn195 O197 2.046 . S
Zn195 O199 2.055 . S
Zn195 N201 2.036 . S
Zn195 O219 2.066 . S
Zn195 O223 2.053 . S
C196 O193 1.259 . S
C196 O197 1.254 . S
O197 Zn195 2.046 . S
O197 C196 1.254 . S
C198 O219 1.256 . S
C198 O220 1.244 . S
O199 Zn195 2.055 . S
O199 C221 1.259 . S
O200 Zn192 2.046 . S
O200 C221 1.254 . S
N201 Zn195 2.036 . S
N201 C202 1.298 . S
N201 N204 1.398 . S
C202 N201 1.298 . S
C202 N205 1.367 . S
C202 C215 1.481 . S
C203 N204 1.299 . S
C203 N205 1.379 . S
N204 N201 1.398 . S
N204 C203 1.299 . S
N205 C202 1.367 . S
N205 C203 1.379 . S
C206 N208 1.298 . S
C206 N210 1.367 . S
C206 C214 1.481 . S
C207 N209 1.299 . S
C207 N210 1.379 . S
N208 Zn192 2.036 . S
N208 C206 1.298 . S
N208 N209 1.398 . S
N209 C207 1.299 . S
N209 N208 1.398 . S
N210 C206 1.367 . S
N210 C207 1.379 . S
H211 C214 0.980 . S
H212 C214 0.981 . S
H213 C214 0.981 . S
C214 C206 1.481 . S
C214 H211 0.980 . S
C214 H212 0.981 . S
C214 H213 0.981 . S
C215 C202 1.481 . S
C215 H216 0.980 . S
C215 H217 0.981 . S
C215 H218 0.981 . S
H216 C215 0.980 . S
H217 C215 0.981 . S
H218 C215 0.981 . S
O219 Zn195 2.066 . S
O219 C198 1.256 . S
O220 Zn192 2.053 . S
O220 C198 1.244 . S
C221 O199 1.259 . S
C221 O200 1.254 . S
O222 Zn192 2.066 . S
O222 C194 1.256 . S
O223 C194 1.244 . S
O223 Zn195 2.053 . S
Zn224 O225 2.055 1_655 S
Zn224 O232 2.046 1_655 S
Zn224 N240 2.036 . S
Zn224 O252 2.053 . S
Zn224 O254 2.066 . S
O225 Zn224 2.055 1_455 S
O225 C228 1.259 . S
C226 O254 1.256 . S
C226 O255 1.244 . S
Zn227 O229 2.046 . S
Zn227 O231 2.055 . S
Zn227 N233 2.036 . S
Zn227 O251 2.066 . S
Zn227 O255 2.053 1_455 S
C228 O225 1.259 . S
C228 O229 1.254 . S
O229 Zn227 2.046 . S
O229 C228 1.254 . S
C230 O251 1.256 . S
C230 O252 1.244 1_455 S
O231 Zn227 2.055 . S
O231 C253 1.259 . S
O232 Zn224 2.046 1_455 S
O232 C253 1.254 . S
N233 Zn227 2.036 . S
N233 C234 1.298 . S
N233 N236 1.398 . S
C234 N233 1.298 . S
C234 N237 1.367 . S
C234 C247 1.481 . S
C235 N236 1.299 . S
C235 N237 1.379 . S
N236 N233 1.398 . S
N236 C235 1.299 . S
N237 C234 1.367 . S
N237 C235 1.379 . S
C238 N240 1.298 . S
C238 N242 1.367 . S
C238 C246 1.481 . S
C239 N241 1.299 . S
C239 N242 1.379 . S
N240 Zn224 2.036 . S
N240 C238 1.298 . S
N240 N241 1.398 . S
N241 C239 1.299 . S
N241 N240 1.398 . S
N242 C238 1.367 . S
N242 C239 1.379 . S
H243 C246 0.980 . S
H244 C246 0.981 . S
H245 C246 0.981 . S
C246 C238 1.481 . S
C246 H243 0.980 . S
C246 H244 0.981 . S
C246 H245 0.981 . S
C247 C234 1.481 . S
C247 H248 0.980 . S
C247 H249 0.981 . S
C247 H250 0.981 . S
H248 C247 0.980 . S
H249 C247 0.981 . S
H250 C247 0.981 . S
O251 Zn227 2.066 . S
O251 C230 1.256 . S
O252 Zn224 2.053 . S
O252 C230 1.244 1_655 S
C253 O231 1.259 . S
C253 O232 1.254 . S
O254 Zn224 2.066 . S
O254 C226 1.256 . S
O255 C226 1.244 . S
O255 Zn227 2.053 1_655 S
Zn256 O257 2.055 1_556 S
Zn256 O264 2.046 1_556 S
Zn256 N272 2.036 . S
Zn256 O284 2.053 . S
Zn256 O286 2.066 . S
O257 Zn256 2.055 1_554 S
O257 C260 1.259 . S
C258 O286 1.256 . S
C258 O287 1.244 . S
Zn259 O261 2.046 . S
Zn259 O263 2.055 . S
Zn259 N265 2.036 . S
Zn259 O283 2.066 . S
Zn259 O287 2.053 1_554 S
C260 O257 1.259 . S
C260 O261 1.254 . S
O261 Zn259 2.046 . S
O261 C260 1.254 . S
C262 O283 1.256 1_556 S
C262 O284 1.244 . S
O263 Zn259 2.055 . S
O263 C285 1.259 . S
O264 Zn256 2.046 1_554 S
O264 C285 1.254 . S
N265 Zn259 2.036 . S
N265 C266 1.298 . S
N265 N268 1.398 . S
C266 N265 1.298 . S
C266 N269 1.367 . S
C266 C279 1.481 . S
C267 N268 1.299 . S
C267 N269 1.379 . S
N268 N265 1.398 . S
N268 C267 1.299 . S
N269 C266 1.367 . S
N269 C267 1.379 . S
C270 N272 1.298 . S
C270 N274 1.367 . S
C270 C278 1.481 . S
C271 N273 1.299 . S
C271 N274 1.379 . S
N272 Zn256 2.036 . S
N272 C270 1.298 . S
N272 N273 1.398 . S
N273 C271 1.299 . S
N273 N272 1.398 . S
N274 C270 1.367 . S
N274 C271 1.379 . S
H275 C278 0.980 . S
H276 C278 0.981 . S
H277 C278 0.981 . S
C278 C270 1.481 . S
C278 H275 0.980 . S
C278 H276 0.981 . S
C278 H277 0.981 . S
C279 C266 1.481 . S
C279 H280 0.980 . S
C279 H281 0.981 . S
C279 H282 0.981 . S
H280 C279 0.980 . S
H281 C279 0.981 . S
H282 C279 0.981 . S
O283 Zn259 2.066 . S
O283 C262 1.256 1_554 S
O284 Zn256 2.053 . S
O284 C262 1.244 . S
C285 O263 1.259 . S
C285 O264 1.254 . S
O286 Zn256 2.066 . S
O286 C258 1.256 . S
O287 C258 1.244 . S
O287 Zn259 2.053 1_556 S
Zn288 O289 2.055 . S
Zn288 O296 2.046 . S
Zn288 N304 2.036 . S
Zn288 O316 2.053 1_545 S
Zn288 O318 2.066 . S
O289 Zn288 2.055 . S
O289 C292 1.259 . S
C290 O318 1.256 1_565 S
C290 O319 1.244 . S
Zn291 O293 2.046 1_565 S
Zn291 O295 2.055 1_565 S
Zn291 N297 2.036 . S
Zn291 O315 2.066 . S
Zn291 O319 2.053 . S
C292 O289 1.259 . S
C292 O293 1.254 . S
O293 Zn291 2.046 1_545 S
O293 C292 1.254 . S
C294 O315 1.256 . S
C294 O316 1.244 . S
O295 Zn291 2.055 1_545 S
O295 C317 1.259 . S
O296 Zn288 2.046 . S
O296 C317 1.254 . S
N297 Zn291 2.036 . S
N297 C298 1.298 . S
N297 N300 1.398 . S
C298 N297 1.298 . S
C298 N301 1.367 . S
C298 C311 1.481 . S
C299 N300 1.299 . S
C299 N301 1.379 . S
N300 N297 1.398 . S
N300 C299 1.299 . S
N301 C298 1.367 . S
N301 C299 1.379 . S
C302 N304 1.298 . S
C302 N306 1.367 . S
C302 C310 1.481 . S
C303 N305 1.299 . S
C303 N306 1.379 . S
N304 Zn288 2.036 . S
N304 C302 1.298 . S
N304 N305 1.398 . S
N305 C303 1.299 . S
N305 N304 1.398 . S
N306 C302 1.367 . S
N306 C303 1.379 . S
H307 C310 0.980 . S
H308 C310 0.981 . S
H309 C310 0.981 . S
C310 C302 1.481 . S
C310 H307 0.980 . S
C310 H308 0.981 . S
C310 H309 0.981 . S
C311 C298 1.481 . S
C311 H312 0.980 . S
C311 H313 0.981 . S
C311 H314 0.981 . S
H312 C311 0.980 . S
H313 C311 0.981 . S
H314 C311 0.981 . S
O315 Zn291 2.066 . S
O315 C294 1.256 . S
O316 Zn288 2.053 1_565 S
O316 C294 1.244 . S
C317 O295 1.259 . S
C317 O296 1.254 . S
O318 Zn288 2.066 . S
O318 C290 1.256 1_545 S
O319 C290 1.244 . S
O319 Zn291 2.053 . S
Zn320 O321 2.055 . S
Zn320 O328 2.046 . S
Zn320 N336 2.036 . S
Zn320 O348 2.053 . S
Zn320 O350 2.066 . S
O321 Zn320 2.055 . S
O321 C324 1.259 . S
C322 O350 1.256 . S
C322 O351 1.244 . S
Zn323 O325 2.046 . S
Zn323 O327 2.055 . S
Zn323 N329 2.036 . S
Zn323 O347 2.066 . S
Zn323 O351 2.053 . S
C324 O321 1.259 . S
C324 O325 1.254 . S
O325 Zn323 2.046 . S
O325 C324 1.254 . S
C326 O347 1.256 . S
C326 O348 1.244 . S
O327 Zn323 2.055 . S
O327 C349 1.259 . S
O328 Zn320 2.046 . S
O328 C349 1.254 . S
N329 Zn323 2.036 . S
N329 C330 1.298 . S
N329 N332 1.398 . S
C330 N329 1.298 . S
C330 N333 1.367 . S
C330 C343 1.481 . S
C331 N332 1.299 . S
C331 N333 1.379 . S
N332 N329 1.398 . S
N332 C331 1.299 . S
N333 C330 1.367 . S
N333 C331 1.379 . S
C334 N336 1.298 . S
C334 N338 1.367 . S
C334 C342 1.481 . S
C335 N337 1.299 . S
C335 N338 1.379 . S
N336 Zn320 2.036 . S
N336 C334 1.298 . S
N336 N337 1.398 . S
N337 C335 1.299 . S
N337 N336 1.398 . S
N338 C334 1.367 . S
N338 C335 1.379 . S
H339 C342 0.980 . S
H340 C342 0.981 . S
H341 C342 0.981 . S
C342 C334 1.481 . S
C342 H339 0.980 . S
C342 H340 0.981 . S
C342 H341 0.981 . S
C343 C330 1.481 . S
C343 H344 0.980 . S
C343 H345 0.981 . S
C343 H346 0.981 . S
H344 C343 0.980 . S
H345 C343 0.981 . S
H346 C343 0.981 . S
O347 Zn323 2.066 . S
O347 C326 1.256 . S
O348 Zn320 2.053 . S
O348 C326 1.244 . S
C349 O327 1.259 . S
C349 O328 1.254 . S
O350 Zn320 2.066 . S
O350 C322 1.256 . S
O351 C322 1.244 . S
O351 Zn323 2.053 . S
Zn352 O353 2.048 1_455 S
Zn352 O360 2.046 1_455 S
Zn352 N368 2.036 . S
Zn352 O380 2.053 . S
Zn352 O382 2.066 . S
O353 Zn352 2.048 1_655 S
O353 C356 1.280 . S
C354 O382 1.256 . S
C354 O383 1.244 . S
Zn355 O357 2.046 . S
Zn355 O359 2.055 . S
Zn355 N361 2.036 . S
Zn355 O379 2.070 . S
Zn355 O383 2.053 1_655 S
C356 O353 1.280 . S
C356 O357 1.254 . S
O357 Zn355 2.046 . S
O357 C356 1.254 . S
C358 O379 1.247 1_455 S
C358 O380 1.244 . S
O359 Zn355 2.055 . S
O359 C381 1.259 . S
O360 Zn352 2.046 1_655 S
O360 C381 1.254 . S
N361 Zn355 2.036 . S
N361 C362 1.298 . S
N361 N364 1.398 . S
C362 N361 1.298 . S
C362 N365 1.367 . S
C362 C375 1.481 . S
C363 N364 1.299 . S
C363 N365 1.379 . S
N364 N361 1.398 . S
N364 C363 1.299 . S
N365 C362 1.367 . S
N365 C363 1.379 . S
C366 N368 1.298 . S
C366 N370 1.367 . S
C366 C374 1.481 . S
C367 N369 1.299 . S
C367 N370 1.379 . S
N368 Zn352 2.036 . S
N368 C366 1.298 . S
N368 N369 1.398 . S
N369 C367 1.299 . S
N369 N368 1.398 . S
N370 C366 1.367 . S
N370 C367 1.379 . S
H371 C374 0.980 . S
H372 C374 0.981 . S
H373 C374 0.981 . S
C374 C366 1.481 . S
C374 H371 0.980 . S
C374 H372 0.981 . S
C374 H373 0.981 . S
C375 C362 1.481 . S
C375 H376 0.980 . S
C375 H377 0.981 . S
C375 H378 0.981 . S
H376 C375 0.980 . S
H377 C375 0.981 . S
H378 C375 0.981 . S
O379 Zn355 2.070 . S
O379 C358 1.247 1_655 S
O380 Zn352 2.053 . S
O380 C358 1.244 . S
C381 O359 1.259 . S
C381 O360 1.254 . S
O382 Zn352 2.066 . S
O382 C354 1.256 . S
O383 C354 1.244 . S
O383 Zn355 2.053 1_455 S
Zn384 O385 2.055 . S
Zn384 O392 2.046 . S
Zn384 N400 2.036 . S
Zn384 O412 2.053 . S
Zn384 O414 2.066 . S
O385 Zn384 2.055 . S
O385 C388 1.259 . S
C386 O414 1.256 . S
C386 O415 1.244 . S
Zn387 O389 2.046 . S
Zn387 O391 2.055 . S
Zn387 N393 2.036 . S
Zn387 O411 2.066 . S
Zn387 O415 2.053 . S
C388 O385 1.259 . S
C388 O389 1.254 . S
O389 Zn387 2.046 . S
O389 C388 1.254 . S
C390 O411 1.256 . S
C390 O412 1.244 . S
O391 Zn387 2.055 . S
O391 C413 1.259 . S
O392 Zn384 2.046 . S
O392 C413 1.254 . S
N393 Zn387 2.036 . S
N393 C394 1.298 . S
N393 N396 1.398 . S
C394 N393 1.298 . S
C394 N397 1.367 . S
C394 C407 1.481 . S
C395 N396 1.299 . S
C395 N397 1.379 . S
N396 N393 1.398 . S
N396 C395 1.299 . S
N397 C394 1.367 . S
N397 C395 1.379 . S
C398 N400 1.298 . S
C398 N402 1.367 . S
C398 C406 1.481 . S
C399 N401 1.299 . S
C399 N402 1.379 . S
N400 Zn384 2.036 . S
N400 C398 1.298 . S
N400 N401 1.398 . S
N401 C399 1.299 . S
N401 N400 1.398 . S
N402 C398 1.367 . S
N402 C399 1.379 . S
H403 C406 0.980 . S
H404 C406 0.981 . S
H405 C406 0.981 . S
C406 C398 1.481 . S
C406 H403 0.980 . S
C406 H404 0.981 . S
C406 H405 0.981 . S
C407 C394 1.481 . S
C407 H408 0.980 . S
C407 H409 0.981 . S
C407 H410 0.981 . S
H408 C407 0.980 . S
H409 C407 0.981 . S
H410 C407 0.981 . S
O411 Zn387 2.066 . S
O411 C390 1.256 . S
O412 Zn384 2.053 . S
O412 C390 1.244 . S
C413 O391 1.259 . S
C413 O392 1.254 . S
O414 Zn384 2.066 . S
O414 C386 1.256 . S
O415 C386 1.244 . S
O415 Zn387 2.053 . S
Zn416 O417 2.055 . S
Zn416 O424 2.046 1_554 S
Zn416 N432 2.036 . S
Zn416 O444 2.053 . S
Zn416 O446 2.066 . S
O417 Zn416 2.055 . S
O417 C420 1.259 1_554 S
C418 O446 1.256 . S
C418 O447 1.244 . S
Zn419 O421 2.046 . S
Zn419 O423 2.055 . S
Zn419 N425 2.036 . S
Zn419 O443 2.066 . S
Zn419 O447 2.053 1_556 S
C420 O417 1.259 1_556 S
C420 O421 1.254 . S
O421 Zn419 2.046 . S
O421 C420 1.254 . S
C422 O443 1.256 1_554 S
C422 O444 1.244 . S
O423 Zn419 2.055 . S
O423 C445 1.259 . S
O424 Zn416 2.046 1_556 S
O424 C445 1.254 . S
N425 Zn419 2.036 . S
N425 C426 1.298 . S
N425 N428 1.398 . S
C426 N425 1.298 . S
C426 N429 1.367 . S
C426 C439 1.481 . S
C427 N428 1.299 . S
C427 N429 1.379 . S
N428 N425 1.398 . S
N428 C427 1.299 . S
N429 C426 1.367 . S
N429 C427 1.379 . S
C430 N432 1.298 . S
C430 N434 1.367 . S
C430 C438 1.481 . S
C431 N433 1.299 . S
C431 N434 1.379 . S
N432 Zn416 2.036 . S
N432 C430 1.298 . S
N432 N433 1.398 . S
N433 C431 1.299 . S
N433 N432 1.398 . S
N434 C430 1.367 . S
N434 C431 1.379 . S
H435 C438 0.980 . S
H436 C438 0.981 . S
H437 C438 0.981 . S
C438 C430 1.481 . S
C438 H435 0.980 . S
C438 H436 0.981 . S
C438 H437 0.981 . S
C439 C426 1.481 . S
C439 H440 0.980 . S
C439 H441 0.981 . S
C439 H442 0.981 . S
H440 C439 0.980 . S
H441 C439 0.981 . S
H442 C439 0.981 . S
O443 Zn419 2.066 . S
O443 C422 1.256 1_556 S
O444 Zn416 2.053 . S
O444 C422 1.244 . S
C445 O423 1.259 . S
C445 O424 1.254 . S
O446 Zn416 2.066 . S
O446 C418 1.256 . S
O447 C418 1.244 . S
O447 Zn419 2.053 1_554 S
Zn448 O449 2.055 . S
Zn448 O456 2.044 . S
Zn448 N464 2.036 . S
Zn448 O476 2.053 . S
Zn448 O478 2.066 . S
O449 Zn448 2.055 . S
O449 C452 1.259 . S
C450 O478 1.256 . S
C450 O479 1.244 . S
Zn451 O453 2.046 1_545 S
Zn451 O455 2.055 1_545 S
Zn451 N457 2.036 1_545 S
Zn451 O475 2.066 . S
Zn451 O479 2.053 . S
C452 O449 1.259 . S
C452 O453 1.254 1_545 S
O453 Zn451 2.046 1_565 S
O453 C452 1.254 1_565 S
C454 O475 1.256 . S
C454 O476 1.244 . S
O455 Zn451 2.055 1_565 S
O455 C477 1.259 . S
O456 Zn448 2.044 . S
O456 C477 1.257 1_545 S
N457 Zn451 2.036 1_565 S
N457 C458 1.298 . S
N457 N460 1.398 . S
C458 N457 1.298 . S
C458 N461 1.367 . S
C458 C471 1.481 . S
C459 N460 1.299 . S
C459 N461 1.379 . S
N460 N457 1.398 . S
N460 C459 1.299 . S
N461 C458 1.367 . S
N461 C459 1.379 . S
C462 N464 1.298 . S
C462 N466 1.367 . S
C462 C470 1.481 . S
C463 N465 1.299 . S
C463 N466 1.379 . S
N464 Zn448 2.036 . S
N464 C462 1.298 . S
N464 N465 1.398 . S
N465 C463 1.299 . S
N465 N464 1.398 . S
N466 C462 1.367 . S
N466 C463 1.379 . S
H467 C470 0.980 . S
H468 C470 0.981 . S
H469 C470 0.981 . S
C470 C462 1.481 . S
C470 H467 0.980 . S
C470 H468 0.981 . S
C470 H469 0.981 . S
C471 C458 1.481 . S
C471 H472 0.980 . S
C471 H473 0.981 . S
C471 H474 0.981 . S
H472 C471 0.980 . S
H473 C471 0.981 . S
H474 C471 0.981 . S
O475 Zn451 2.066 . S
O475 C454 1.256 . S
O476 Zn448 2.053 . S
O476 C454 1.244 . S
C477 O455 1.259 . S
C477 O456 1.257 1_565 S
O478 Zn448 2.066 . S
O478 C450 1.256 . S
O479 C450 1.244 . S
O479 Zn451 2.053 . S
Zn480 O481 2.055 . S
Zn480 O488 2.046 . S
Zn480 N496 2.036 . S
Zn480 O508 2.053 1_554 S
Zn480 O510 2.066 . S
O481 Zn480 2.055 . S
O481 C484 1.259 . S
C482 O510 1.256 1_556 S
C482 O511 1.244 . S
Zn483 O485 2.046 1_556 S
Zn483 O487 2.055 1_556 S
Zn483 N489 2.036 . S
Zn483 O507 2.066 . S
Zn483 O511 2.053 . S
C484 O481 1.259 . S
C484 O485 1.254 . S
O485 Zn483 2.046 1_554 S
O485 C484 1.254 . S
C486 O507 1.256 . S
C486 O508 1.244 . S
O487 Zn483 2.055 1_554 S
O487 C509 1.259 . S
O488 Zn480 2.046 . S
O488 C509 1.254 . S
N489 Zn483 2.036 . S
N489 C490 1.298 . S
N489 N492 1.398 . S
C490 N489 1.298 . S
C490 N493 1.367 . S
C490 C503 1.481 . S
C491 N492 1.299 . S
C491 N493 1.379 . S
N492 N489 1.398 . S
N492 C491 1.299 . S
N493 C490 1.367 . S
N493 C491 1.379 . S
C494 N496 1.298 . S
C494 N498 1.367 . S
C494 C502 1.481 . S
C495 N497 1.299 . S
C495 N498 1.379 . S
N496 Zn480 2.036 . S
N496 C494 1.298 . S
N496 N497 1.398 . S
N497 C495 1.299 . S
N497 N496 1.398 . S
N498 C494 1.367 . S
N498 C495 1.379 . S
H499 C502 0.980 . S
H500 C502 0.981 . S
H501 C502 0.981 . S
C502 C494 1.481 . S
C502 H499 0.980 . S
C502 H500 0.981 . S
C502 H501 0.981 . S
C503 C490 1.481 . S
C503 H504 0.980 . S
C503 H505 0.981 . S
C503 H506 0.981 . S
H504 C503 0.980 . S
H505 C503 0.981 . S
H506 C503 0.981 . S
O507 Zn483 2.066 . S
O507 C486 1.256 . S
O508 Zn480 2.053 1_556 S
O508 C486 1.244 . S
C509 O487 1.259 . S
C509 O488 1.254 . S
O510 Zn480 2.066 . S
O510 C482 1.256 1_554 S
O511 C482 1.244 . S
O511 Zn483 2.053 . S
H512 C518 0.929 1_655 S
H513 C521 0.934 1_655 S
H514 C522 0.930 . S
H515 C523 0.930 . S
H516 C526 0.930 . S
H517 C527 0.930 . S
C518 H512 0.929 1_455 S
C518 C519 1.355 1_455 S
C518 C520 1.415 . S
C519 C518 1.355 1_655 S
C519 C521 1.419 1_655 S
C520 C518 1.415 . S
C520 C525 1.425 . S
C520 C527 1.409 . S
C521 H513 0.934 1_455 S
C521 C519 1.419 1_455 S
C521 C522 1.362 . S
C522 H514 0.930 . S
C522 C521 1.362 . S
C522 C525 1.409 . S
C523 H515 0.930 . S
C523 C524 1.355 . S
C523 C525 1.415 . S
C524 C523 1.355 . S
C524 C526 1.419 . S
C525 C520 1.425 . S
C525 C522 1.409 . S
C525 C523 1.415 . S
C526 H516 0.930 . S
C526 C524 1.419 . S
C526 C527 1.362 . S
C527 H517 0.930 . S
C527 C520 1.409 . S
C527 C526 1.362 . S
H528 C534 0.930 . S
H529 C537 0.930 . S
H530 C538 0.930 . S
H531 C539 0.930 . S
H532 C542 0.930 . S
H533 C543 0.930 . S
C534 H528 0.930 . S
C534 C535 1.355 . S
C534 C536 1.415 . S
C535 C534 1.355 . S
C535 C537 1.419 . S
C536 C534 1.415 . S
C536 C541 1.425 . S
C536 C543 1.409 . S
C537 H529 0.930 . S
C537 C535 1.419 . S
C537 C538 1.362 . S
C538 H530 0.930 . S
C538 C537 1.362 . S
C538 C541 1.409 . S
C539 H531 0.930 . S
C539 C540 1.355 . S
C539 C541 1.415 . S
C540 C539 1.355 . S
C540 C542 1.419 . S
C541 C536 1.425 . S
C541 C538 1.409 . S
C541 C539 1.415 . S
C542 H532 0.930 . S
C542 C540 1.419 . S
C542 C543 1.362 . S
C543 H533 0.930 . S
C543 C536 1.409 . S
C543 C542 1.362 . S
H544 C550 0.930 . S
H545 C553 0.930 . S
H546 C554 0.930 . S
H547 C555 0.930 . S
H548 C558 0.930 . S
H549 C559 0.930 . S
C550 H544 0.930 . S
C550 C551 1.355 . S
C550 C552 1.415 . S
C551 C550 1.355 . S
C551 C553 1.419 . S
C552 C550 1.415 . S
C552 C557 1.425 . S
C552 C559 1.409 . S
C553 H545 0.930 . S
C553 C551 1.419 . S
C553 C554 1.362 . S
C554 H546 0.930 . S
C554 C553 1.362 . S
C554 C557 1.409 . S
C555 H547 0.930 . S
C555 C556 1.355 . S
C555 C557 1.415 . S
C556 C555 1.355 . S
C556 C558 1.419 . S
C557 C552 1.425 . S
C557 C554 1.409 . S
C557 C555 1.415 . S
C558 H548 0.930 . S
C558 C556 1.419 . S
C558 C559 1.362 . S
C559 H549 0.930 . S
C559 C552 1.409 . S
C559 C558 1.362 . S
H560 C566 0.930 . S
H561 C569 0.930 . S
H562 C570 0.930 . S
H563 C571 0.930 . S
H564 C574 0.930 . S
H565 C575 0.930 . S
C566 H560 0.930 . S
C566 C567 1.355 . S
C566 C568 1.415 . S
C567 C566 1.355 . S
C567 C569 1.419 . S
C568 C566 1.415 . S
C568 C573 1.425 . S
C568 C575 1.409 . S
C569 H561 0.930 . S
C569 C567 1.419 . S
C569 C570 1.362 . S
C570 H562 0.930 . S
C570 C569 1.362 . S
C570 C573 1.409 . S
C571 H563 0.930 . S
C571 C572 1.355 . S
C571 C573 1.415 . S
C572 C571 1.355 . S
C572 C574 1.419 . S
C573 C568 1.425 . S
C573 C570 1.409 . S
C573 C571 1.415 . S
C574 H564 0.930 . S
C574 C572 1.419 . S
C574 C575 1.362 . S
C575 H565 0.930 . S
C575 C568 1.409 . S
C575 C574 1.362 . S
H576 C582 0.930 . S
H577 C585 0.930 . S
H578 C586 0.930 . S
H579 C587 0.930 . S
H580 C590 0.930 . S
H581 C591 0.930 . S
C582 H576 0.930 . S
C582 C583 1.371 . S
C582 C584 1.415 . S
C583 C582 1.371 . S
C583 C585 1.391 1_545 S
C584 C582 1.415 . S
C584 C589 1.425 1_545 S
C584 C591 1.409 . S
C585 H577 0.930 . S
C585 C583 1.391 1_565 S
C585 C586 1.362 . S
C586 H578 0.930 . S
C586 C585 1.362 . S
C586 C589 1.409 . S
C587 H579 0.930 . S
C587 C588 1.355 . S
C587 C589 1.415 . S
C588 C587 1.355 . S
C588 C590 1.419 1_565 S
C589 C584 1.425 1_565 S
C589 C586 1.409 . S
C589 C587 1.415 . S
C590 H580 0.930 . S
C590 C588 1.419 1_545 S
C590 C591 1.362 . S
C591 H581 0.930 . S
C591 C584 1.409 . S
C591 C590 1.362 . S
H592 C598 0.930 . S
H593 C601 0.930 . S
H594 C602 0.930 . S
H595 C603 0.930 . S
H596 C606 0.930 . S
H597 C607 0.930 . S
C598 H592 0.930 . S
C598 C599 1.355 . S
C598 C600 1.415 . S
C599 C598 1.355 . S
C599 C601 1.419 . S
C600 C598 1.415 . S
C600 C605 1.425 . S
C600 C607 1.409 . S
C601 H593 0.930 . S
C601 C599 1.419 . S
C601 C602 1.362 . S
C602 H594 0.930 . S
C602 C601 1.362 . S
C602 C605 1.409 . S
C603 H595 0.930 . S
C603 C604 1.355 . S
C603 C605 1.415 . S
C604 C603 1.355 . S
C604 C606 1.419 . S
C605 C600 1.425 . S
C605 C602 1.409 . S
C605 C603 1.415 . S
C606 H596 0.930 . S
C606 C604 1.419 . S
C606 C607 1.362 . S
C607 H597 0.930 . S
C607 C600 1.409 . S
C607 C606 1.362 . S
H608 C614 0.930 . S
H609 C617 0.930 . S
H610 C618 0.930 . S
H611 C619 0.930 . S
H612 C622 0.930 . S
H613 C623 0.930 . S
C614 H608 0.930 . S
C614 C615 1.355 . S
C614 C616 1.415 . S
C615 C614 1.355 . S
C615 C617 1.419 . S
C616 C614 1.415 . S
C616 C621 1.425 . S
C616 C623 1.409 . S
C617 H609 0.930 . S
C617 C615 1.419 . S
C617 C618 1.362 . S
C618 H610 0.930 . S
C618 C617 1.362 . S
C618 C621 1.409 . S
C619 H611 0.930 . S
C619 C620 1.355 . S
C619 C621 1.415 . S
C620 C619 1.355 . S
C620 C622 1.419 . S
C621 C616 1.425 . S
C621 C618 1.409 . S
C621 C619 1.415 . S
C622 H612 0.930 . S
C622 C620 1.419 . S
C622 C623 1.362 . S
C623 H613 0.930 . S
C623 C616 1.409 . S
C623 C622 1.362 . S
H624 C630 0.930 . S
H625 C633 0.930 . S
H626 C634 0.930 . S
H627 C635 0.930 . S
H628 C638 0.930 . S
H629 C639 0.930 . S
C630 H624 0.930 . S
C630 C631 1.355 . S
C630 C632 1.415 . S
C631 C630 1.355 . S
C631 C633 1.419 . S
C632 C630 1.415 . S
C632 C637 1.425 . S
C632 C639 1.409 . S
C633 H625 0.930 . S
C633 C631 1.419 . S
C633 C634 1.362 . S
C634 H626 0.930 . S
C634 C633 1.362 . S
C634 C637 1.409 . S
C635 H627 0.930 . S
C635 C636 1.355 . S
C635 C637 1.415 . S
C636 C635 1.355 . S
C636 C638 1.419 . S
C637 C632 1.425 . S
C637 C634 1.409 . S
C637 C635 1.415 . S
C638 H628 0.930 . S
C638 C636 1.419 . S
C638 C639 1.362 . S
C639 H629 0.930 . S
C639 C632 1.409 . S
C639 C638 1.362 . S
H640 C646 0.930 . S
H641 C649 0.930 . S
H642 C650 0.930 . S
H643 C651 0.930 . S
H644 C654 0.930 . S
H645 C655 0.930 . S
C646 H640 0.930 . S
C646 C647 1.355 . S
C646 C648 1.415 . S
C647 C646 1.355 . S
C647 C649 1.419 . S
C648 C646 1.415 . S
C648 C653 1.425 . S
C648 C655 1.409 . S
C649 H641 0.930 . S
C649 C647 1.419 . S
C649 C650 1.362 . S
C650 H642 0.930 . S
C650 C649 1.362 . S
C650 C653 1.409 . S
C651 H643 0.930 . S
C651 C652 1.355 . S
C651 C653 1.415 . S
C652 C651 1.355 . S
C652 C654 1.419 . S
C653 C648 1.425 . S
C653 C650 1.409 . S
C653 C651 1.415 . S
C654 H644 0.930 . S
C654 C652 1.419 . S
C654 C655 1.362 . S
C655 H645 0.930 . S
C655 C648 1.409 . S
C655 C654 1.362 . S
H656 C662 0.930 . S
H657 C665 0.930 . S
H658 C666 0.930 . S
H659 C667 0.930 . S
H660 C670 0.930 . S
H661 C671 0.930 . S
C662 H656 0.930 . S
C662 C663 1.355 . S
C662 C664 1.415 . S
C663 C662 1.355 . S
C663 C665 1.419 . S
C664 C662 1.415 . S
C664 C669 1.425 . S
C664 C671 1.409 . S
C665 H657 0.930 . S
C665 C663 1.419 . S
C665 C666 1.362 . S
C666 H658 0.930 . S
C666 C665 1.362 . S
C666 C669 1.409 . S
C667 H659 0.930 . S
C667 C668 1.355 . S
C667 C669 1.415 . S
C668 C667 1.355 . S
C668 C670 1.419 . S
C669 C664 1.425 . S
C669 C666 1.409 . S
C669 C667 1.415 . S
C670 H660 0.930 . S
C670 C668 1.419 . S
C670 C671 1.362 . S
C671 H661 0.930 . S
C671 C664 1.409 . S
C671 C670 1.362 . S
H672 C678 0.923 1_565 S
H673 C681 0.930 . S
H674 C682 0.930 . S
H675 C683 0.930 . S
H676 C686 0.930 . S
H677 C687 0.930 . S
C678 H672 0.923 1_545 S
C678 C679 1.362 . S
C678 C680 1.414 . S
C679 C678 1.362 . S
C679 C681 1.419 . S
C680 C678 1.414 . S
C680 C685 1.425 . S
C680 C687 1.409 1_545 S
C681 H673 0.930 . S
C681 C679 1.419 . S
C681 C682 1.362 . S
C682 H674 0.930 . S
C682 C681 1.362 . S
C682 C685 1.409 . S
C683 H675 0.930 . S
C683 C684 1.355 . S
C683 C685 1.415 . S
C684 C683 1.355 . S
C684 C686 1.419 1_545 S
C685 C680 1.425 . S
C685 C682 1.409 . S
C685 C683 1.415 . S
C686 H676 0.930 . S
C686 C684 1.419 1_565 S
C686 C687 1.362 . S
C687 H677 0.930 . S
C687 C680 1.409 1_565 S
C687 C686 1.362 . S
H688 C694 0.930 . S
H689 C697 0.930 . S
H690 C698 0.930 . S
H691 C699 0.930 . S
H692 C702 0.930 . S
H693 C703 0.930 . S
C694 H688 0.930 . S
C694 C695 1.355 . S
C694 C696 1.415 . S
C695 C694 1.355 . S
C695 C697 1.419 . S
C696 C694 1.415 . S
C696 C701 1.425 . S
C696 C703 1.409 . S
C697 H689 0.930 . S
C697 C695 1.419 . S
C697 C698 1.362 . S
C698 H690 0.930 . S
C698 C697 1.362 . S
C698 C701 1.409 . S
C699 H691 0.930 . S
C699 C700 1.355 . S
C699 C701 1.415 . S
C700 C699 1.355 . S
C700 C702 1.419 . S
C701 C696 1.425 . S
C701 C698 1.409 . S
C701 C699 1.415 . S
C702 H692 0.930 . S
C702 C700 1.419 . S
C702 C703 1.362 . S
C703 H693 0.930 . S
C703 C696 1.409 . S
C703 C702 1.362 . S
H704 C710 0.930 . S
H705 C713 0.930 . S
H706 C714 0.930 . S
H707 C715 0.930 . S
H708 C718 0.930 . S
H709 C719 0.930 . S
C710 H704 0.930 . S
C710 C711 1.355 . S
C710 C712 1.415 . S
C711 C710 1.355 . S
C711 C713 1.419 1_556 S
C712 C710 1.415 . S
C712 C717 1.425 . S
C712 C719 1.409 . S
C713 H705 0.930 . S
C713 C711 1.419 1_554 S
C713 C714 1.362 . S
C714 H706 0.930 . S
C714 C713 1.362 . S
C714 C717 1.409 1_554 S
C715 H707 0.930 . S
C715 C716 1.355 1_554 S
C715 C717 1.415 1_554 S
C716 C715 1.355 1_556 S
C716 C718 1.419 . S
C717 C712 1.425 . S
C717 C714 1.409 1_556 S
C717 C715 1.415 1_556 S
C718 H708 0.930 . S
C718 C716 1.419 . S
C718 C719 1.362 . S
C719 H709 0.930 . S
C719 C712 1.409 . S
C719 C718 1.362 . S
H720 C726 0.930 . S
H721 C729 0.930 . S
H722 C730 0.930 . S
H723 C731 0.930 . S
H724 C734 0.930 . S
H725 C735 0.930 . S
C726 H720 0.930 . S
C726 C727 1.355 . S
C726 C728 1.415 . S
C727 C726 1.355 . S
C727 C729 1.419 . S
C728 C726 1.415 . S
C728 C733 1.425 . S
C728 C735 1.409 . S
C729 H721 0.930 . S
C729 C727 1.419 . S
C729 C730 1.362 . S
C730 H722 0.930 . S
C730 C729 1.362 . S
C730 C733 1.409 . S
C731 H723 0.930 . S
C731 C732 1.355 . S
C731 C733 1.415 . S
C732 C731 1.355 . S
C732 C734 1.419 . S
C733 C728 1.425 . S
C733 C730 1.409 . S
C733 C731 1.415 . S
C734 H724 0.930 . S
C734 C732 1.419 . S
C734 C735 1.362 . S
C735 H725 0.930 . S
C735 C728 1.409 . S
C735 C734 1.362 . S
H736 C742 0.930 . S
H737 C745 0.930 . S
H738 C746 0.930 . S
H739 C747 0.930 . S
H740 C750 0.930 . S
H741 C751 0.930 . S
C742 H736 0.930 . S
C742 C743 1.355 . S
C742 C744 1.415 . S
C743 C742 1.355 . S
C743 C745 1.419 . S
C744 C742 1.415 . S
C744 C749 1.425 . S
C744 C751 1.409 . S
C745 H737 0.930 . S
C745 C743 1.419 . S
C745 C746 1.362 . S
C746 H738 0.930 . S
C746 C745 1.362 . S
C746 C749 1.409 . S
C747 H739 0.930 . S
C747 C748 1.355 . S
C747 C749 1.415 . S
C748 C747 1.355 . S
C748 C750 1.419 . S
C749 C744 1.425 . S
C749 C746 1.409 . S
C749 C747 1.415 . S
C750 H740 0.930 . S
C750 C748 1.419 . S
C750 C751 1.362 . S
C751 H741 0.930 . S
C751 C744 1.409 . S
C751 C750 1.362 . S
H752 C758 0.930 . S
H753 C761 0.930 . S
H754 C762 0.930 . S
H755 C763 0.930 . S
H756 C766 0.930 . S
H757 C767 0.930 . S
C758 H752 0.930 . S
C758 C759 1.355 . S
C758 C760 1.415 . S
C759 C758 1.355 . S
C759 C761 1.419 . S
C760 C758 1.415 . S
C760 C765 1.425 . S
C760 C767 1.409 . S
C761 H753 0.930 . S
C761 C759 1.419 . S
C761 C762 1.362 . S
C762 H754 0.930 . S
C762 C761 1.362 . S
C762 C765 1.409 . S
C763 H755 0.930 . S
C763 C764 1.355 . S
C763 C765 1.415 . S
C764 C763 1.355 . S
C764 C766 1.419 . S
C765 C760 1.425 . S
C765 C762 1.409 . S
C765 C763 1.415 . S
C766 H756 0.930 . S
C766 C764 1.419 . S
C766 C767 1.362 . S
C767 H757 0.930 . S
C767 C760 1.409 . S
C767 C766 1.362 . S
H768 C774 0.930 . S
H769 C777 0.930 . S
H770 C778 0.930 . S
H771 C779 0.930 . S
H772 C782 0.930 . S
H773 C783 0.930 . S
C774 H768 0.930 . S
C774 C775 1.355 . S
C774 C776 1.415 . S
C775 C774 1.355 . S
C775 C777 1.419 . S
C776 C774 1.415 . S
C776 C781 1.425 . S
C776 C783 1.409 . S
C777 H769 0.930 . S
C777 C775 1.419 . S
C777 C778 1.362 . S
C778 H770 0.930 . S
C778 C777 1.362 . S
C778 C781 1.409 . S
C779 H771 0.930 . S
C779 C780 1.355 . S
C779 C781 1.415 . S
C780 C779 1.355 . S
C780 C782 1.419 . S
C781 C776 1.425 . S
C781 C778 1.409 . S
C781 C779 1.415 . S
C782 H772 0.930 . S
C782 C780 1.419 . S
C782 C783 1.362 . S
C783 H773 0.930 . S
C783 C776 1.409 . S
C783 C782 1.362 . S
H784 C790 0.930 . S
H785 C793 0.930 . S
H786 C794 0.930 . S
H787 C795 0.930 . S
H788 C798 0.930 . S
H789 C799 0.930 . S
C790 H784 0.930 . S
C790 C791 1.355 . S
C790 C792 1.415 . S
C791 C790 1.355 . S
C791 C793 1.419 . S
C792 C790 1.415 . S
C792 C797 1.425 . S
C792 C799 1.409 . S
C793 H785 0.930 . S
C793 C791 1.419 . S
C793 C794 1.362 . S
C794 H786 0.930 . S
C794 C793 1.362 . S
C794 C797 1.409 . S
C795 H787 0.930 . S
C795 C796 1.355 . S
C795 C797 1.415 . S
C796 C795 1.355 . S
C796 C798 1.419 . S
C797 C792 1.425 . S
C797 C794 1.409 . S
C797 C795 1.415 . S
C798 H788 0.930 . S
C798 C796 1.419 . S
C798 C799 1.362 . S
C799 H789 0.930 . S
C799 C792 1.409 . S
C799 C798 1.362 . S
H800 C806 0.930 . S
H801 C809 0.930 . S
H802 C810 0.930 . S
H803 C811 0.930 . S
H804 C814 0.930 . S
H805 C815 0.930 . S
C806 H800 0.930 . S
C806 C807 1.355 . S
C806 C808 1.415 . S
C807 C806 1.355 . S
C807 C809 1.419 . S
C808 C806 1.415 . S
C808 C813 1.425 . S
C808 C815 1.409 . S
C809 H801 0.930 . S
C809 C807 1.419 . S
C809 C810 1.362 . S
C810 H802 0.930 . S
C810 C809 1.362 . S
C810 C813 1.409 . S
C811 H803 0.930 . S
C811 C812 1.355 . S
C811 C813 1.415 . S
C812 C811 1.355 . S
C812 C814 1.419 . S
C813 C808 1.425 . S
C813 C810 1.409 . S
C813 C811 1.415 . S
C814 H804 0.930 . S
C814 C812 1.419 . S
C814 C815 1.362 . S
C815 H805 0.930 . S
C815 C808 1.409 . S
C815 C814 1.362 . S
H816 C822 0.930 . S
H817 C825 0.930 . S
H818 C826 0.930 . S
H819 C827 0.930 . S
H820 C830 0.930 . S
H821 C831 0.930 . S
C822 H816 0.930 . S
C822 C823 1.355 . S
C822 C824 1.415 . S
C823 C822 1.355 . S
C823 C825 1.419 . S
C824 C822 1.415 . S
C824 C829 1.425 . S
C824 C831 1.409 . S
C825 H817 0.930 . S
C825 C823 1.419 . S
C825 C826 1.362 . S
C826 H818 0.930 . S
C826 C825 1.362 . S
C826 C829 1.409 . S
C827 H819 0.930 . S
C827 C828 1.355 . S
C827 C829 1.415 . S
C828 C827 1.355 . S
C828 C830 1.419 . S
C829 C824 1.425 . S
C829 C826 1.409 . S
C829 C827 1.415 . S
C830 H820 0.930 . S
C830 C828 1.419 . S
C830 C831 1.362 . S
C831 H821 0.930 . S
C831 C824 1.409 . S
C831 C830 1.362 . S
H832 C838 0.930 . S
H833 C841 0.930 . S
H834 C842 0.930 . S
H835 C843 0.930 . S
H836 C846 0.930 . S
H837 C847 0.930 . S
C838 H832 0.930 . S
C838 C839 1.355 . S
C838 C840 1.415 . S
C839 C838 1.355 . S
C839 C841 1.419 . S
C840 C838 1.415 . S
C840 C845 1.425 . S
C840 C847 1.409 . S
C841 H833 0.930 . S
C841 C839 1.419 . S
C841 C842 1.362 . S
C842 H834 0.930 . S
C842 C841 1.362 . S
C842 C845 1.409 . S
C843 H835 0.930 . S
C843 C844 1.355 . S
C843 C845 1.415 . S
C844 C843 1.355 . S
C844 C846 1.419 . S
C845 C840 1.425 . S
C845 C842 1.409 . S
C845 C843 1.415 . S
C846 H836 0.930 . S
C846 C844 1.419 . S
C846 C847 1.362 . S
C847 H837 0.930 . S
C847 C840 1.409 . S
C847 C846 1.362 . S
H848 C854 0.930 1_455 S
H849 C857 0.930 . S
H850 C858 0.930 . S
H851 C859 0.930 . S
H852 C862 0.930 . S
H853 C863 0.930 . S
C854 H848 0.930 1_655 S
C854 C855 1.355 . S
C854 C856 1.415 . S
C855 C854 1.355 . S
C855 C857 1.419 . S
C856 C854 1.415 . S
C856 C861 1.425 . S
C856 C863 1.409 1_655 S
C857 H849 0.930 . S
C857 C855 1.419 . S
C857 C858 1.362 . S
C858 H850 0.930 . S
C858 C857 1.362 . S
C858 C861 1.409 . S
C859 H851 0.930 . S
C859 C860 1.355 1_655 S
C859 C861 1.415 . S
C860 C859 1.355 1_455 S
C860 C862 1.419 . S
C861 C856 1.425 . S
C861 C858 1.409 . S
C861 C859 1.415 . S
C862 H852 0.930 . S
C862 C860 1.419 . S
C862 C863 1.362 . S
C863 H853 0.930 . S
C863 C856 1.409 1_455 S
C863 C862 1.362 . S
H864 C870 0.930 . S
H865 C873 0.930 . S
H866 C874 0.930 . S
H867 C875 0.930 . S
H868 C878 0.930 . S
H869 C879 0.930 . S
C870 H864 0.930 . S
C870 C871 1.355 . S
C870 C872 1.415 . S
C871 C870 1.355 . S
C871 C873 1.419 . S
C872 C870 1.415 . S
C872 C877 1.425 . S
C872 C879 1.409 . S
C873 H865 0.930 . S
C873 C871 1.419 . S
C873 C874 1.362 . S
C874 H866 0.930 . S
C874 C873 1.362 . S
C874 C877 1.409 . S
C875 H867 0.930 . S
C875 C876 1.355 . S
C875 C877 1.415 . S
C876 C875 1.355 . S
C876 C878 1.419 . S
C877 C872 1.425 . S
C877 C874 1.409 . S
C877 C875 1.415 . S
C878 H868 0.930 . S
C878 C876 1.419 . S
C878 C879 1.362 . S
C879 H869 0.930 . S
C879 C872 1.409 . S
C879 C878 1.362 . S
H880 C886 0.930 . S
H881 C889 0.930 . S
H882 C890 0.930 . S
H883 C891 0.930 . S
H884 C894 0.930 . S
H885 C895 0.930 . S
C886 H880 0.930 . S
C886 C887 1.355 . S
C886 C888 1.415 . S
C887 C886 1.355 . S
C887 C889 1.419 . S
C888 C886 1.415 . S
C888 C893 1.425 . S
C888 C895 1.409 . S
C889 H881 0.930 . S
C889 C887 1.419 . S
C889 C890 1.362 . S
C890 H882 0.930 . S
C890 C889 1.362 . S
C890 C893 1.409 . S
C891 H883 0.930 . S
C891 C892 1.355 . S
C891 C893 1.415 . S
C892 C891 1.355 . S
C892 C894 1.419 . S
C893 C888 1.425 . S
C893 C890 1.409 . S
C893 C891 1.415 . S
C894 H884 0.930 . S
C894 C892 1.419 . S
C894 C895 1.362 . S
C895 H885 0.930 . S
C895 C888 1.409 . S
C895 C894 1.362 . S
H896 C902 0.930 . S
H897 C905 0.930 . S
H898 C906 0.930 . S
H899 C907 0.930 . S
H900 C910 0.930 . S
H901 C911 0.930 . S
C902 H896 0.930 . S
C902 C903 1.355 . S
C902 C904 1.415 . S
C903 C902 1.355 . S
C903 C905 1.419 . S
C904 C902 1.415 . S
C904 C909 1.425 . S
C904 C911 1.409 . S
C905 H897 0.930 . S
C905 C903 1.419 . S
C905 C906 1.362 . S
C906 H898 0.930 . S
C906 C905 1.362 . S
C906 C909 1.409 . S
C907 H899 0.930 . S
C907 C908 1.355 . S
C907 C909 1.415 . S
C908 C907 1.355 . S
C908 C910 1.419 . S
C909 C904 1.425 . S
C909 C906 1.409 . S
C909 C907 1.415 . S
C910 H900 0.930 . S
C910 C908 1.419 . S
C910 C911 1.362 . S
C911 H901 0.930 . S
C911 C904 1.409 . S
C911 C910 1.362 . S
H912 C918 0.930 . S
H913 C921 0.930 . S
H914 C922 0.930 . S
H915 C923 0.930 . S
H916 C926 0.930 . S
H917 C927 0.930 . S
C918 H912 0.930 . S
C918 C919 1.355 . S
C918 C920 1.415 . S
C919 C918 1.355 . S
C919 C921 1.419 . S
C920 C918 1.415 . S
C920 C925 1.425 . S
C920 C927 1.409 . S
C921 H913 0.930 . S
C921 C919 1.419 . S
C921 C922 1.362 . S
C922 H914 0.930 . S
C922 C921 1.362 . S
C922 C925 1.409 . S
C923 H915 0.930 . S
C923 C924 1.355 . S
C923 C925 1.415 . S
C924 C923 1.355 . S
C924 C926 1.419 . S
C925 C920 1.425 . S
C925 C922 1.409 . S
C925 C923 1.415 . S
C926 H916 0.930 . S
C926 C924 1.419 . S
C926 C927 1.362 . S
C927 H917 0.930 . S
C927 C920 1.409 . S
C927 C926 1.362 . S
H928 C934 0.930 . S
H929 C937 0.930 . S
H930 C938 0.930 . S
H931 C939 0.930 . S
H932 C942 0.930 . S
H933 C943 0.930 . S
C934 H928 0.930 . S
C934 C935 1.355 . S
C934 C936 1.415 . S
C935 C934 1.355 . S
C935 C937 1.419 . S
C936 C934 1.415 . S
C936 C941 1.425 . S
C936 C943 1.409 . S
C937 H929 0.930 . S
C937 C935 1.419 . S
C937 C938 1.362 . S
C938 H930 0.930 . S
C938 C937 1.362 . S
C938 C941 1.409 . S
C939 H931 0.930 . S
C939 C940 1.355 . S
C939 C941 1.415 . S
C940 C939 1.355 . S
C940 C942 1.419 . S
C941 C936 1.425 . S
C941 C938 1.409 . S
C941 C939 1.415 . S
C942 H932 0.930 . S
C942 C940 1.419 . S
C942 C943 1.362 . S
C943 H933 0.930 . S
C943 C936 1.409 . S
C943 C942 1.362 . S
H944 C950 0.930 . S
H945 C953 0.930 . S
H946 C954 0.930 . S
H947 C955 0.930 . S
H948 C958 0.930 . S
H949 C959 0.930 . S
C950 H944 0.930 . S
C950 C951 1.355 . S
C950 C952 1.415 . S
C951 C950 1.355 . S
C951 C953 1.419 . S
C952 C950 1.415 . S
C952 C957 1.425 . S
C952 C959 1.409 . S
C953 H945 0.930 . S
C953 C951 1.419 . S
C953 C954 1.362 . S
C954 H946 0.930 . S
C954 C953 1.362 . S
C954 C957 1.409 . S
C955 H947 0.930 . S
C955 C956 1.355 . S
C955 C957 1.415 . S
C956 C955 1.355 . S
C956 C958 1.419 . S
C957 C952 1.425 . S
C957 C954 1.409 . S
C957 C955 1.415 . S
C958 H948 0.930 . S
C958 C956 1.419 . S
C958 C959 1.362 . S
C959 H949 0.930 . S
C959 C952 1.409 . S
C959 C958 1.362 . S
H960 C966 0.930 . S
H961 C969 0.930 . S
H962 C970 0.930 . S
H963 C971 0.930 . S
H964 C974 0.930 . S
H965 C975 0.930 . S
C966 H960 0.930 . S
C966 C967 1.355 . S
C966 C968 1.415 . S
C967 C966 1.355 . S
C967 C969 1.419 . S
C968 C966 1.415 . S
C968 C973 1.425 . S
C968 C975 1.409 . S
C969 H961 0.930 . S
C969 C967 1.419 . S
C969 C970 1.362 . S
C970 H962 0.930 . S
C970 C969 1.362 . S
C970 C973 1.409 . S
C971 H963 0.930 . S
C971 C972 1.355 . S
C971 C973 1.415 . S
C972 C971 1.355 . S
C972 C974 1.419 . S
C973 C968 1.425 . S
C973 C970 1.409 . S
C973 C971 1.415 . S
C974 H964 0.930 . S
C974 C972 1.419 . S
C974 C975 1.362 . S
C975 H965 0.930 . S
C975 C968 1.409 . S
C975 C974 1.362 . S
H976 C982 0.930 . S
H977 C985 0.930 . S
H978 C986 0.930 . S
H979 C987 0.930 . S
H980 C990 0.930 . S
H981 C991 0.930 . S
C982 H976 0.930 . S
C982 C983 1.355 . S
C982 C984 1.415 . S
C983 C982 1.355 . S
C983 C985 1.419 . S
C984 C982 1.415 . S
C984 C989 1.425 . S
C984 C991 1.409 . S
C985 H977 0.930 . S
C985 C983 1.419 . S
C985 C986 1.362 . S
C986 H978 0.930 . S
C986 C985 1.362 . S
C986 C989 1.409 . S
C987 H979 0.930 . S
C987 C988 1.355 . S
C987 C989 1.415 . S
C988 C987 1.355 . S
C988 C990 1.419 . S
C989 C984 1.425 . S
C989 C986 1.409 . S
C989 C987 1.415 . S
C990 H980 0.930 . S
C990 C988 1.419 . S
C990 C991 1.362 . S
C991 H981 0.930 . S
C991 C984 1.409 . S
C991 C990 1.362 . S
H992 C998 0.930 . S
H993 C1001 0.930 . S
H994 C1002 0.930 . S
H995 C1003 0.930 . S
H996 C1006 0.930 . S
H997 C1007 0.930 . S
C998 H992 0.930 . S
C998 C999 1.355 . S
C998 C1000 1.415 . S
C999 C998 1.355 . S
C999 C1001 1.419 . S
C1000 C998 1.415 . S
C1000 C1005 1.425 . S
C1000 C1007 1.409 . S
C1001 H993 0.930 . S
C1001 C999 1.419 . S
C1001 C1002 1.362 . S
C1002 H994 0.930 . S
C1002 C1001 1.362 . S
C1002 C1005 1.409 . S
C1003 H995 0.930 . S
C1003 C1004 1.355 . S
C1003 C1005 1.415 . S
C1004 C1003 1.355 . S
C1004 C1006 1.419 . S
C1005 C1000 1.425 . S
C1005 C1002 1.409 . S
C1005 C1003 1.415 . S
C1006 H996 0.930 . S
C1006 C1004 1.419 . S
C1006 C1007 1.362 . S
C1007 H997 0.930 . S
C1007 C1000 1.409 . S
C1007 C1006 1.362 . S
H1008 C1014 0.930 . S
H1009 C1017 0.930 . S
H1010 C1018 0.930 . S
H1011 C1019 0.930 . S
H1012 C1022 0.930 . S
H1013 C1023 0.930 . S
C1014 H1008 0.930 . S
C1014 C1015 1.355 . S
C1014 C1016 1.415 . S
C1015 C1014 1.355 . S
C1015 C1017 1.419 . S
C1016 C1014 1.415 . S
C1016 C1021 1.425 . S
C1016 C1023 1.409 . S
C1017 H1009 0.930 . S
C1017 C1015 1.419 . S
C1017 C1018 1.362 . S
C1018 H1010 0.930 . S
C1018 C1017 1.362 . S
C1018 C1021 1.409 . S
C1019 H1011 0.930 . S
C1019 C1020 1.355 . S
C1019 C1021 1.415 . S
C1020 C1019 1.355 . S
C1020 C1022 1.419 . S
C1021 C1016 1.425 . S
C1021 C1018 1.409 . S
C1021 C1019 1.415 . S
C1022 H1012 0.930 . S
C1022 C1020 1.419 . S
C1022 C1023 1.362 . S
C1023 H1013 0.930 . S
C1023 C1016 1.409 . S
C1023 C1022 1.362 . S
H1024 C1030 0.930 . S
H1025 C1033 0.930 . S
H1026 C1034 0.930 . S
H1027 C1035 0.930 . S
H1028 C1038 0.930 . S
H1029 C1039 0.930 . S
C1030 H1024 0.930 . S
C1030 C1031 1.355 . S
C1030 C1032 1.415 . S
C1031 C1030 1.355 . S
C1031 C1033 1.419 . S
C1032 C1030 1.415 . S
C1032 C1037 1.425 . S
C1032 C1039 1.409 . S
C1033 H1025 0.930 . S
C1033 C1031 1.419 . S
C1033 C1034 1.362 . S
C1034 H1026 0.930 . S
C1034 C1033 1.362 . S
C1034 C1037 1.409 . S
C1035 H1027 0.930 . S
C1035 C1036 1.355 . S
C1035 C1037 1.415 . S
C1036 C1035 1.355 . S
C1036 C1038 1.419 . S
C1037 C1032 1.425 . S
C1037 C1034 1.409 . S
C1037 C1035 1.415 . S
C1038 H1028 0.930 . S
C1038 C1036 1.419 . S
C1038 C1039 1.362 . S
C1039 H1029 0.930 . S
C1039 C1032 1.409 . S
C1039 C1038 1.362 . S
H1040 C1046 0.930 . S
H1041 C1049 0.930 . S
H1042 C1050 0.930 . S
H1043 C1051 0.930 . S
H1044 C1054 0.930 . S
H1045 C1055 0.930 . S
C1046 H1040 0.930 . S
C1046 C1047 1.355 . S
C1046 C1048 1.415 . S
C1047 C1046 1.355 . S
C1047 C1049 1.419 . S
C1048 C1046 1.415 . S
C1048 C1053 1.425 . S
C1048 C1055 1.409 . S
C1049 H1041 0.930 . S
C1049 C1047 1.419 . S
C1049 C1050 1.362 . S
C1050 H1042 0.930 . S
C1050 C1049 1.362 . S
C1050 C1053 1.409 . S
C1051 H1043 0.930 . S
C1051 C1052 1.355 . S
C1051 C1053 1.415 . S
C1052 C1051 1.355 . S
C1052 C1054 1.419 . S
C1053 C1048 1.425 . S
C1053 C1050 1.409 . S
C1053 C1051 1.415 . S
C1054 H1044 0.930 . S
C1054 C1052 1.419 . S
C1054 C1055 1.362 . S
C1055 H1045 0.930 . S
C1055 C1048 1.409 . S
C1055 C1054 1.362 . S
H1056 C1062 0.930 . S
H1057 C1065 0.930 . S
H1058 C1066 0.930 . S
H1059 C1067 0.930 . S
H1060 C1070 0.930 . S
H1061 C1071 0.930 . S
C1062 H1056 0.930 . S
C1062 C1063 1.355 . S
C1062 C1064 1.415 . S
C1063 C1062 1.355 . S
C1063 C1065 1.419 . S
C1064 C1062 1.415 . S
C1064 C1069 1.425 . S
C1064 C1071 1.409 . S
C1065 H1057 0.930 . S
C1065 C1063 1.419 . S
C1065 C1066 1.362 . S
C1066 H1058 0.930 . S
C1066 C1065 1.362 . S
C1066 C1069 1.409 . S
C1067 H1059 0.930 . S
C1067 C1068 1.355 . S
C1067 C1069 1.415 . S
C1068 C1067 1.355 . S
C1068 C1070 1.419 . S
C1069 C1064 1.425 . S
C1069 C1066 1.409 . S
C1069 C1067 1.415 . S
C1070 H1060 0.930 . S
C1070 C1068 1.419 . S
C1070 C1071 1.362 . S
C1071 H1061 0.930 . S
C1071 C1064 1.409 . S
C1071 C1070 1.362 . S
H1072 C1078 0.930 . S
H1073 C1081 0.930 . S
H1074 C1082 0.930 . S
H1075 C1083 0.930 . S
H1076 C1086 0.930 . S
H1077 C1087 0.930 . S
C1078 H1072 0.930 . S
C1078 C1079 1.355 . S
C1078 C1080 1.415 . S
C1079 C1078 1.355 . S
C1079 C1081 1.419 . S
C1080 C1078 1.415 . S
C1080 C1085 1.425 . S
C1080 C1087 1.409 . S
C1081 H1073 0.930 . S
C1081 C1079 1.419 . S
C1081 C1082 1.362 . S
C1082 H1074 0.930 . S
C1082 C1081 1.362 . S
C1082 C1085 1.409 . S
C1083 H1075 0.930 . S
C1083 C1084 1.355 . S
C1083 C1085 1.415 . S
C1084 C1083 1.355 . S
C1084 C1086 1.419 . S
C1085 C1080 1.425 . S
C1085 C1082 1.409 . S
C1085 C1083 1.415 . S
C1086 H1076 0.930 . S
C1086 C1084 1.419 . S
C1086 C1087 1.362 . S
C1087 H1077 0.930 . S
C1087 C1080 1.409 . S
C1087 C1086 1.362 . S
H1088 C1094 0.930 . S
H1089 C1097 0.930 . S
H1090 C1098 0.930 . S
H1091 C1099 0.930 . S
H1092 C1102 0.930 . S
H1093 C1103 0.930 . S
C1094 H1088 0.930 . S
C1094 C1095 1.355 . S
C1094 C1096 1.415 . S
C1095 C1094 1.355 . S
C1095 C1097 1.419 . S
C1096 C1094 1.415 . S
C1096 C1101 1.425 . S
C1096 C1103 1.409 . S
C1097 H1089 0.930 . S
C1097 C1095 1.419 . S
C1097 C1098 1.362 . S
C1098 H1090 0.930 . S
C1098 C1097 1.362 . S
C1098 C1101 1.409 . S
C1099 H1091 0.930 . S
C1099 C1100 1.355 . S
C1099 C1101 1.415 . S
C1100 C1099 1.355 . S
C1100 C1102 1.419 . S
C1101 C1096 1.425 . S
C1101 C1098 1.409 . S
C1101 C1099 1.415 . S
C1102 H1092 0.930 . S
C1102 C1100 1.419 . S
C1102 C1103 1.362 . S
C1103 H1093 0.930 . S
C1103 C1096 1.409 . S
C1103 C1102 1.362 . S
H1104 C1110 0.930 . S
H1105 C1113 0.930 . S
H1106 C1114 0.930 . S
H1107 C1115 0.930 . S
H1108 C1118 0.930 . S
H1109 C1119 0.930 . S
C1110 H1104 0.930 . S
C1110 C1111 1.355 . S
C1110 C1112 1.415 . S
C1111 C1110 1.355 . S
C1111 C1113 1.419 . S
C1112 C1110 1.415 . S
C1112 C1117 1.425 . S
C1112 C1119 1.409 . S
C1113 H1105 0.930 . S
C1113 C1111 1.419 . S
C1113 C1114 1.362 . S
C1114 H1106 0.930 . S
C1114 C1113 1.362 . S
C1114 C1117 1.409 . S
C1115 H1107 0.930 . S
C1115 C1116 1.355 . S
C1115 C1117 1.415 . S
C1116 C1115 1.355 . S
C1116 C1118 1.419 . S
C1117 C1112 1.425 . S
C1117 C1114 1.409 . S
C1117 C1115 1.415 . S
C1118 H1108 0.930 . S
C1118 C1116 1.419 . S
C1118 C1119 1.362 . S
C1119 H1109 0.930 . S
C1119 C1112 1.409 . S
C1119 C1118 1.362 . S
H1120 C1126 0.930 . S
H1121 C1129 0.930 . S
H1122 C1130 0.930 . S
H1123 C1131 0.930 . S
H1124 C1134 0.930 . S
H1125 C1135 0.930 . S
C1126 H1120 0.930 . S
C1126 C1127 1.355 . S
C1126 C1128 1.415 . S
C1127 C1126 1.355 . S
C1127 C1129 1.419 . S
C1128 C1126 1.415 . S
C1128 C1133 1.425 . S
C1128 C1135 1.409 . S
C1129 H1121 0.930 . S
C1129 C1127 1.419 . S
C1129 C1130 1.362 . S
C1130 H1122 0.930 . S
C1130 C1129 1.362 . S
C1130 C1133 1.409 . S
C1131 H1123 0.930 . S
C1131 C1132 1.355 . S
C1131 C1133 1.415 . S
C1132 C1131 1.355 . S
C1132 C1134 1.419 . S
C1133 C1128 1.425 . S
C1133 C1130 1.409 . S
C1133 C1131 1.415 . S
C1134 H1124 0.930 . S
C1134 C1132 1.419 . S
C1134 C1135 1.362 . S
C1135 H1125 0.930 . S
C1135 C1128 1.409 . S
C1135 C1134 1.362 . S
H1136 C1142 0.930 . S
H1137 C1145 0.930 . S
H1138 C1146 0.930 . S
H1139 C1147 0.930 . S
H1140 C1150 0.930 . S
H1141 C1151 0.930 . S
C1142 H1136 0.930 . S
C1142 C1143 1.355 . S
C1142 C1144 1.415 . S
C1143 C1142 1.355 . S
C1143 C1145 1.419 . S
C1144 C1142 1.415 . S
C1144 C1149 1.425 . S
C1144 C1151 1.409 . S
C1145 H1137 0.930 . S
C1145 C1143 1.419 . S
C1145 C1146 1.362 . S
C1146 H1138 0.930 . S
C1146 C1145 1.362 . S
C1146 C1149 1.409 . S
C1147 H1139 0.930 . S
C1147 C1148 1.355 . S
C1147 C1149 1.415 . S
C1148 C1147 1.355 . S
C1148 C1150 1.419 . S
C1149 C1144 1.425 . S
C1149 C1146 1.409 . S
C1149 C1147 1.415 . S
C1150 H1140 0.930 . S
C1150 C1148 1.419 . S
C1150 C1151 1.362 . S
C1151 H1141 0.930 . S
C1151 C1144 1.409 . S
C1151 C1150 1.362 . S
H1152 C1158 0.930 . S
H1153 C1161 0.930 . S
H1154 C1162 0.930 . S
H1155 C1163 0.930 . S
H1156 C1166 0.930 . S
H1157 C1167 0.930 . S
C1158 H1152 0.930 . S
C1158 C1159 1.355 . S
C1158 C1160 1.415 . S
C1159 C1158 1.355 . S
C1159 C1161 1.419 . S
C1160 C1158 1.415 . S
C1160 C1165 1.425 . S
C1160 C1167 1.409 . S
C1161 H1153 0.930 . S
C1161 C1159 1.419 . S
C1161 C1162 1.362 . S
C1162 H1154 0.930 . S
C1162 C1161 1.362 . S
C1162 C1165 1.409 . S
C1163 H1155 0.930 . S
C1163 C1164 1.355 . S
C1163 C1165 1.415 . S
C1164 C1163 1.355 . S
C1164 C1166 1.419 . S
C1165 C1160 1.425 . S
C1165 C1162 1.409 . S
C1165 C1163 1.415 . S
C1166 H1156 0.930 . S
C1166 C1164 1.419 . S
C1166 C1167 1.362 . S
C1167 H1157 0.930 . S
C1167 C1160 1.409 . S
C1167 C1166 1.362 . S
H1168 C1174 0.930 . S
H1169 C1177 0.930 . S
H1170 C1178 0.930 . S
H1171 C1179 0.930 . S
H1172 C1182 0.930 . S
H1173 C1183 0.930 . S
C1174 H1168 0.930 . S
C1174 C1175 1.355 . S
C1174 C1176 1.415 . S
C1175 C1174 1.355 . S
C1175 C1177 1.419 . S
C1176 C1174 1.415 . S
C1176 C1181 1.425 . S
C1176 C1183 1.409 . S
C1177 H1169 0.930 . S
C1177 C1175 1.419 . S
C1177 C1178 1.362 . S
C1178 H1170 0.930 . S
C1178 C1177 1.362 . S
C1178 C1181 1.409 . S
C1179 H1171 0.930 . S
C1179 C1180 1.355 . S
C1179 C1181 1.415 . S
C1180 C1179 1.355 . S
C1180 C1182 1.419 . S
C1181 C1176 1.425 . S
C1181 C1178 1.409 . S
C1181 C1179 1.415 . S
C1182 H1172 0.930 . S
C1182 C1180 1.419 . S
C1182 C1183 1.362 . S
C1183 H1173 0.930 . S
C1183 C1176 1.409 . S
C1183 C1182 1.362 . S
H1184 C1190 0.930 . S
H1185 C1193 0.930 1_554 S
H1186 C1194 0.930 . S
H1187 C1195 0.930 1_554 S
H1188 C1198 0.930 . S
H1189 C1199 0.930 . S
C1190 H1184 0.930 . S
C1190 C1191 1.355 . S
C1190 C1192 1.415 . S
C1191 C1190 1.355 . S
C1191 C1193 1.419 . S
C1192 C1190 1.415 . S
C1192 C1197 1.425 . S
C1192 C1199 1.409 . S
C1193 H1185 0.930 1_556 S
C1193 C1191 1.419 . S
C1193 C1194 1.362 1_556 S
C1194 H1186 0.930 . S
C1194 C1193 1.362 1_554 S
C1194 C1197 1.409 1_554 S
C1195 H1187 0.930 1_556 S
C1195 C1196 1.355 . S
C1195 C1197 1.415 . S
C1196 C1195 1.355 . S
C1196 C1198 1.419 . S
C1197 C1192 1.425 . S
C1197 C1194 1.409 1_556 S
C1197 C1195 1.415 . S
C1198 H1188 0.930 . S
C1198 C1196 1.419 . S
C1198 C1199 1.362 . S
C1199 H1189 0.930 . S
C1199 C1192 1.409 . S
C1199 C1198 1.362 . S
H1200 C1206 0.930 . S
H1201 C1209 0.930 . S
H1202 C1210 0.930 . S
H1203 C1211 0.930 . S
H1204 C1214 0.930 . S
H1205 C1215 0.930 . S
C1206 H1200 0.930 . S
C1206 C1207 1.355 . S
C1206 C1208 1.415 . S
C1207 C1206 1.355 . S
C1207 C1209 1.419 . S
C1208 C1206 1.415 . S
C1208 C1213 1.425 . S
C1208 C1215 1.409 . S
C1209 H1201 0.930 . S
C1209 C1207 1.419 . S
C1209 C1210 1.362 . S
C1210 H1202 0.930 . S
C1210 C1209 1.362 . S
C1210 C1213 1.409 . S
C1211 H1203 0.930 . S
C1211 C1212 1.355 . S
C1211 C1213 1.415 . S
C1212 C1211 1.355 . S
C1212 C1214 1.419 . S
C1213 C1208 1.425 . S
C1213 C1210 1.409 . S
C1213 C1211 1.415 . S
C1214 H1204 0.930 . S
C1214 C1212 1.419 . S
C1214 C1215 1.362 . S
C1215 H1205 0.930 . S
C1215 C1208 1.409 . S
C1215 C1214 1.362 . S
H1216 C1222 0.930 . S
H1217 C1225 0.930 . S
H1218 C1226 0.930 . S
H1219 C1227 0.930 . S
H1220 C1230 0.930 . S
H1221 C1231 0.930 . S
C1222 H1216 0.930 . S
C1222 C1223 1.355 . S
C1222 C1224 1.415 . S
C1223 C1222 1.355 . S
C1223 C1225 1.419 . S
C1224 C1222 1.415 . S
C1224 C1229 1.425 . S
C1224 C1231 1.409 . S
C1225 H1217 0.930 . S
C1225 C1223 1.419 . S
C1225 C1226 1.362 . S
C1226 H1218 0.930 . S
C1226 C1225 1.362 . S
C1226 C1229 1.409 . S
C1227 H1219 0.930 . S
C1227 C1228 1.355 . S
C1227 C1229 1.415 . S
C1228 C1227 1.355 . S
C1228 C1230 1.419 . S
C1229 C1224 1.425 . S
C1229 C1226 1.409 . S
C1229 C1227 1.415 . S
C1230 H1220 0.930 . S
C1230 C1228 1.419 . S
C1230 C1231 1.362 . S
C1231 H1221 0.930 . S
C1231 C1224 1.409 . S
C1231 C1230 1.362 . S
H1232 C1238 0.930 . S
H1233 C1241 0.930 . S
H1234 C1242 0.930 . S
H1235 C1243 0.930 . S
H1236 C1246 0.930 . S
H1237 C1247 0.930 . S
C1238 H1232 0.930 . S
C1238 C1239 1.355 . S
C1238 C1240 1.415 . S
C1239 C1238 1.355 . S
C1239 C1241 1.419 . S
C1240 C1238 1.415 . S
C1240 C1245 1.425 . S
C1240 C1247 1.409 . S
C1241 H1233 0.930 . S
C1241 C1239 1.419 . S
C1241 C1242 1.362 . S
C1242 H1234 0.930 . S
C1242 C1241 1.362 . S
C1242 C1245 1.409 . S
C1243 H1235 0.930 . S
C1243 C1244 1.355 . S
C1243 C1245 1.415 . S
C1244 C1243 1.355 . S
C1244 C1246 1.419 . S
C1245 C1240 1.425 . S
C1245 C1242 1.409 . S
C1245 C1243 1.415 . S
C1246 H1236 0.930 . S
C1246 C1244 1.419 . S
C1246 C1247 1.362 . S
C1247 H1237 0.930 . S
C1247 C1240 1.409 . S
C1247 C1246 1.362 . S
H1248 C1254 0.930 . S
H1249 C1257 0.930 . S
H1250 C1258 0.930 . S
H1251 C1259 0.930 . S
H1252 C1262 0.930 . S
H1253 C1263 0.930 . S
C1254 H1248 0.930 . S
C1254 C1255 1.355 . S
C1254 C1256 1.415 . S
C1255 C1254 1.355 . S
C1255 C1257 1.419 . S
C1256 C1254 1.415 . S
C1256 C1261 1.425 . S
C1256 C1263 1.409 . S
C1257 H1249 0.930 . S
C1257 C1255 1.419 . S
C1257 C1258 1.362 . S
C1258 H1250 0.930 . S
C1258 C1257 1.362 . S
C1258 C1261 1.409 . S
C1259 H1251 0.930 . S
C1259 C1260 1.355 . S
C1259 C1261 1.415 . S
C1260 C1259 1.355 . S
C1260 C1262 1.419 . S
C1261 C1256 1.425 . S
C1261 C1258 1.409 . S
C1261 C1259 1.415 . S
C1262 H1252 0.930 . S
C1262 C1260 1.419 . S
C1262 C1263 1.362 . S
C1263 H1253 0.930 . S
C1263 C1256 1.409 . S
C1263 C1262 1.362 . S
H1264 C1270 0.930 . S
H1265 C1273 0.930 . S
H1266 C1274 0.930 . S
H1267 C1275 0.930 . S
H1268 C1278 0.930 . S
H1269 C1279 0.930 . S
C1270 H1264 0.930 . S
C1270 C1271 1.355 . S
C1270 C1272 1.415 . S
C1271 C1270 1.355 . S
C1271 C1273 1.419 . S
C1272 C1270 1.415 . S
C1272 C1277 1.425 . S
C1272 C1279 1.409 . S
C1273 H1265 0.930 . S
C1273 C1271 1.419 . S
C1273 C1274 1.362 . S
C1274 H1266 0.930 . S
C1274 C1273 1.362 . S
C1274 C1277 1.409 . S
C1275 H1267 0.930 . S
C1275 C1276 1.355 . S
C1275 C1277 1.415 . S
C1276 C1275 1.355 . S
C1276 C1278 1.419 . S
C1277 C1272 1.425 . S
C1277 C1274 1.409 . S
C1277 C1275 1.415 . S
C1278 H1268 0.930 . S
C1278 C1276 1.419 . S
C1278 C1279 1.362 . S
C1279 H1269 0.930 . S
C1279 C1272 1.409 . S
C1279 C1278 1.362 . S
C519 N18 0.888 . S
C524 C36 0.899 . S
C535 N77 0.858 . S
C540 C61 0.851 1_655 S
C551 C100 1.528 . S
C556 C66 1.535 . S
C567 C6 1.532 . S
C572 C125 1.499 . S
C583 C4 1.721 . S
C588 C290 1.667 . S
C599 C228 1.714 . S
C604 C38 1.660 . S
C615 N82 1.107 . S
C620 C322 1.120 . S
C631 C102 1.573 . S
C636 C445 1.586 . S
C647 C285 1.716 . S
C652 C34 1.690 . S
C663 C390 1.677 . S
C668 C93 1.717 . S
C679 C452 1.579 . S
C684 C98 1.574 . S
C695 N13 1.136 . S
C700 C358 1.135 . S
C711 C2 1.286 . S
C716 C262 1.294 . S
C727 N402 0.729 . S
C732 N146 0.683 . S
C743 C166 1.237 . S
C748 C477 1.220 . S
C759 N370 0.284 . S
C764 N210 0.343 . S
C775 C70 1.278 . S
C780 C226 1.298 . S
C791 N301 0.527 . S
C796 N141 0.539 . S
C807 N205 0.429 . S
C812 N333 0.439 . S
C823 N178 0.797 . S
C828 C354 0.795 . S
C839 C294 1.082 . S
C844 C189 1.113 . S
C855 C356 1.527 . S
C860 C230 1.548 . S
C871 N173 0.507 . S
C876 C157 0.459 . S
C887 C292 0.487 . S
C892 N269 0.533 . S
C903 N429 0.661 . S
C908 C381 0.683 . S
C919 C196 1.224 . S
C924 C162 1.224 . S
C935 C317 1.372 . S
C940 C454 1.394 . S
C951 C422 1.180 . S
C956 C29 1.152 . S
C967 C68 1.185 . S
C972 C450 1.165 . S
C983 N397 0.983 . S
C988 N45 0.981 . S
C999 C253 1.150 . S
C1004 C164 1.134 . S
C1015 N114 0.501 . S
C1020 N338 0.491 . S
C1031 C388 1.385 . S
C1036 C418 1.386 . S
C1047 N242 0.545 . S
C1052 C413 0.504 . S
C1063 C194 0.866 . S
C1068 N237 0.867 . S
C1079 C130 0.692 . S
C1084 N434 0.704 . S
C1095 C386 1.084 . S
C1100 C484 1.113 . S
C1111 C509 1.106 . S
C1116 C260 1.095 . S
C1127 N50 0.969 . S
C1132 N306 0.954 . S
C1143 N274 0.917 . S
C1148 C198 0.913 . S
C1159 C258 1.550 . S
C1164 C349 1.523 . S
C1175 C486 1.221 . S
C1180 C221 1.179 . S
C1191 C420 1.217 . S
C1196 C482 1.235 . S
C1207 N365 0.531 . S
C1212 N109 0.590 . S
C1223 C324 0.728 . S
C1228 N466 0.748 . S
C1239 C326 0.678 . S
C1244 N493 0.677 . S
C1255 C134 0.734 . S
C1260 N461 0.746 . S
C1271 N498 0.413 . S
C1276 C132 0.418 . S
