# Generated by pormake.
# Topology tsi, (8)-cn, num edge types: 1
# Building blocks:
#     Node 0, Type 0, BuildingBlock: AJUNOK_clean_sbu_0, # of connection points: 8
#     Node 1, Type 0, BuildingBlock: AJUNOK_clean_sbu_0, # of connection points: 8
#     Node 2, Type 0, BuildingBlock: AJUNOK_clean_sbu_0, # of connection points: 8
#     Node 3, Type 0, BuildingBlock: AJUNOK_clean_sbu_0, # of connection points: 8
#     Edge 4, Type (0, 0), BuildingBlock: FUNLAD_clean_linker_1, # of connection points: 2
#     Edge 5, Type (0, 0), BuildingBlock: FUNLAD_clean_linker_1, # of connection points: 2
#     Edge 6, Type (0, 0), BuildingBlock: FUNLAD_clean_linker_1, # of connection points: 2
#     Edge 7, Type (0, 0), BuildingBlock: FUNLAD_clean_linker_1, # of connection points: 2
#     Edge 8, Type (0, 0), BuildingBlock: FUNLAD_clean_linker_1, # of connection points: 2
#     Edge 9, Type (0, 0), BuildingBlock: FUNLAD_clean_linker_1, # of connection points: 2
#     Edge 10, Type (0, 0), BuildingBlock: FUNLAD_clean_linker_1, # of connection points: 2
#     Edge 11, Type (0, 0), BuildingBlock: FUNLAD_clean_linker_1, # of connection points: 2
#     Edge 12, Type (0, 0), BuildingBlock: FUNLAD_clean_linker_1, # of connection points: 2
#     Edge 13, Type (0, 0), BuildingBlock: FUNLAD_clean_linker_1, # of connection points: 2
#     Edge 14, Type (0, 0), BuildingBlock: FUNLAD_clean_linker_1, # of connection points: 2
#     Edge 15, Type (0, 0), BuildingBlock: FUNLAD_clean_linker_1, # of connection points: 2
#     Edge 16, Type (0, 0), BuildingBlock: FUNLAD_clean_linker_1, # of connection points: 2
#     Edge 17, Type (0, 0), BuildingBlock: FUNLAD_clean_linker_1, # of connection points: 2
#     Edge 18, Type (0, 0), BuildingBlock: FUNLAD_clean_linker_1, # of connection points: 2
#     Edge 19, Type (0, 0), BuildingBlock: FUNLAD_clean_linker_1, # of connection points: 2
# Relax obj value: 0.178
# Max RMSD: 0.224
# Mean RMSD: 0.224
data_MOF--net-tsi--node1-AJUNOK_clean_sbu_0--edge1-FUNLAD_clean_linker_1
_symmetry_space_group_name_H-M    P1
_symmetry_Int_Tables_number       1
_symmetry_cell_setting            triclinic
loop_
_symmetry_equiv_pos_as_xyz
'x, y, z'
_cell_length_a     16.335301
_cell_length_b     16.443112
_cell_length_c     78.422905
_cell_angle_alpha  90.046282
_cell_angle_beta   90.136395
_cell_angle_gamma 90.596939
loop_
_atom_site_label
_atom_site_type_symbol
_atom_site_fract_x
_atom_site_fract_y
_atom_site_fract_z
_atom_type_partial_charge
Cd0 Cd 0.0338 0.09508 0.38781 0.0
Cd1 Cd 0.98914 0.33818 0.39646 0.0
C2 C 0.19375 0.11741 0.36209 0.0
N3 N 0.11125 0.12917 0.36264 0.0
C4 C 0.11222 0.16861 0.33311 0.0
C5 C 0.19788 0.16171 0.33259 0.0
C6 C 0.2385 0.1359 0.34736 0.0
C7 C 0.07013 0.15214 0.34833 0.0
H8 H 0.22529 0.0933 0.37307 0.0
H9 H 0.00428 0.15772 0.34868 0.0
C10 C 0.83779 0.19258 0.39855 0.0
C11 C 0.97619 0.27376 0.43644 0.0
C12 C 0.98212 0.28415 0.45418 0.0
C13 C 0.03261 0.3465 0.46091 0.0
C14 C 0.08075 0.39213 0.44953 0.0
C15 C 0.07263 0.38005 0.43197 0.0
N16 N 0.01942 0.32321 0.42575 0.0
H17 H 0.93373 0.22928 0.43126 0.0
H18 H 0.1051 0.41968 0.42324 0.0
C19 C 0.87666 0.30739 0.36269 0.0
N20 N 0.95733 0.31881 0.36658 0.0
C21 C 0.98789 0.33044 0.33657 0.0
C22 C 0.90515 0.31481 0.33234 0.0
C23 C 0.84978 0.30391 0.34579 0.0
C24 C 0.01261 0.33238 0.35385 0.0
H25 H 0.83153 0.30414 0.37264 0.0
H26 H 0.07581 0.34565 0.35705 0.0
C27 C 0.18684 0.2509 0.39627 0.0
C28 C 0.97489 0.97463 0.36588 0.0
N29 N 0.05219 0.02952 0.41477 0.0
C30 C 0.12525 0.02868 0.4232 0.0
C31 C 0.13052 0.99781 0.4399 0.0
C32 C 0.05969 0.96749 0.44812 0.0
C33 C 0.98577 0.96802 0.43888 0.0
C34 C 0.98331 -0.00067 0.42227 0.0
C35 C 0.93205 0.49868 0.39809 0.0
O36 O 0.8891 0.13928 0.3939 0.0
O37 O 0.8618 0.26449 0.40158 0.0
O38 O 0.14101 0.31322 0.39562 0.0
O39 O 0.15643 0.17968 0.39485 0.0
O40 O 0.93868 0.04205 0.36762 0.0
O41 O 0.03877 0.96207 0.37488 0.0
O42 O 1.00042 0.48326 0.39116 0.0
O43 O 0.89442 0.44063 0.40517 0.0
H44 H 0.1793 0.05382 0.41715 0.0
H45 H 0.92567 0.00149 0.41548 0.0
H46 H 0.07807 0.18819 0.32203 0.0
H47 H 0.30431 0.12834 0.34742 0.0
H48 H 0.94536 0.24552 0.46234 0.0
H49 H 0.12078 0.44038 0.45412 0.0
H50 H 0.0332 0.34173 0.32681 0.0
H51 H 0.78512 0.29421 0.34329 0.0
H52 H 0.18923 -0.00011 0.44626 0.0
H53 H 0.92956 0.94566 0.44459 0.0
Cd54 Cd 0.12242 0.74797 0.64335 0.0
Cd55 Cd 0.86218 0.74612 0.63712 0.0
C56 C 0.10717 0.83259 0.60572 0.0
N57 N 0.11476 0.75696 0.61265 0.0
C58 C 0.13282 0.7008 0.58456 0.0
C59 C 0.12224 0.77783 0.57709 0.0
C60 C 0.10961 0.84425 0.58803 0.0
C61 C 0.12812 0.69148 0.60239 0.0
H62 H 0.10179 0.88508 0.61387 0.0
H63 H 0.13682 0.63218 0.60803 0.0
C64 C 0.01522 0.57635 0.64174 0.0
C65 C 0.75678 0.67141 0.6706 0.0
C66 C 0.73403 0.66388 0.68787 0.0
C67 C 0.77104 0.71437 0.70033 0.0
C68 C 0.83036 0.77098 0.69481 0.0
C69 C 0.85076 0.77672 0.67751 0.0
N70 N 0.81431 0.72736 0.66575 0.0
H71 H 0.72884 0.63217 0.6611 0.0
H72 H 0.89632 0.82068 0.67344 0.0
C73 C 0.85211 0.58315 0.6125 0.0
N74 N 0.88247 0.6605 0.61318 0.0
C75 C 0.93351 0.64846 0.58466 0.0
C76 C 0.90506 0.5674 0.58372 0.0
C77 C 0.86409 0.53503 0.59797 0.0
C78 C 0.92171 0.69372 0.59956 0.0
H79 H 0.81909 0.55861 0.62331 0.0
H80 H 0.94337 0.75599 0.60021 0.0
C81 C 0.98553 0.92255 0.6418 0.0
C82 C 0.27419 0.82527 0.6474 0.0
N83 N 0.09565 0.73702 0.67299 0.0
C84 C 0.07413 0.8067 0.68114 0.0
C85 C 0.08336 0.81415 0.69877 0.0
C86 C 0.11499 0.74951 0.70826 0.0
C87 C 0.13172 0.67612 0.69976 0.0
C88 C 0.1222 0.67146 0.68198 0.0
C89 C 0.74119 0.81291 0.61681 0.0
O90 O 0.09027 0.59696 0.64303 0.0
O91 O 0.96297 0.63303 0.64017 0.0
O92 O 0.91409 0.89269 0.63996 0.0
O93 O 0.04546 0.87469 0.64277 0.0
O94 O 0.27256 0.74991 0.64363 0.0
O95 O 0.20688 0.8597 0.65002 0.0
O96 O 0.81473 0.8382 0.61623 0.0
O97 O 0.72391 0.75389 0.62689 0.0
H98 H 0.056 0.85926 0.67392 0.0
H99 H 0.14238 0.61781 0.67528 0.0
H100 H 0.14407 0.64804 0.57666 0.0
H101 H 0.10494 0.90548 0.5831 0.0
H102 H 0.68899 0.61818 0.6913 0.0
H103 H 0.86099 0.81091 0.70385 0.0
H104 H 0.96502 0.6775 0.5742 0.0
H105 H 0.84065 0.47316 0.59783 0.0
H106 H 0.07032 0.87188 0.70481 0.0
H107 H 0.15813 0.62519 0.70647 0.0
Cd108 Cd 0.48828 0.63975 0.89198 0.0
Cd109 Cd 0.46758 0.90339 0.89012 0.0
C110 C 0.58232 0.66105 0.85611 0.0
N111 N 0.50558 0.64061 0.86154 0.0
C112 C 0.46436 0.61631 0.83252 0.0
C113 C 0.54231 0.64024 0.82651 0.0
C114 C 0.60188 0.66197 0.83871 0.0
C115 C 0.44698 0.61746 0.8501 0.0
H116 H 0.62926 0.6761 0.86534 0.0
H117 H 0.3869 0.59949 0.85458 0.0
C118 C 0.30793 0.73559 0.89335 0.0
C119 C 0.35717 0.92831 0.9247 0.0
C120 C 0.33625 0.94869 0.94151 0.0
C121 C 0.39567 0.98068 0.95276 0.0
C122 C 0.47615 0.9904 0.94652 0.0
C123 C 0.49447 0.96901 0.92958 0.0
N124 N 0.43526 0.93859 0.91902 0.0
H125 H 0.31078 0.90432 0.91616 0.0
H126 H 0.55627 0.97664 0.92486 0.0
C127 C 0.32068 0.87354 0.86252 0.0
N128 N 0.40219 0.85923 0.86445 0.0
C129 C 0.40883 0.80941 0.83571 0.0
C130 C 0.3236 0.81813 0.83387 0.0
C131 C 0.27971 0.85074 0.84757 0.0
C132 C 0.44685 0.82955 0.85124 0.0
H133 H 0.28715 0.90187 0.87277 0.0
H134 H 0.51228 0.82278 0.85268 0.0
C135 C 0.6419 0.8035 0.89272 0.0
C136 C 0.58954 0.50625 0.89623 0.0
N137 N 0.48142 0.64056 0.92199 0.0
C138 C 0.53276 0.68851 0.93138 0.0
C139 C 0.54691 0.6711 0.94861 0.0
C140 C 0.5084 0.60362 0.95627 0.0
C141 C 0.45224 0.55785 0.94643 0.0
C142 C 0.43978 0.57754 0.92926 0.0
C143 C 0.46059 0.05092 0.87277 0.0
O144 O 0.33012 0.66138 0.89282 0.0
O145 O 0.36494 0.78904 0.89225 0.0
O146 O 0.62513 0.87852 0.89236 0.0
O147 O 0.57993 0.75625 0.89243 0.0
O148 O 0.51253 0.4965 0.89433 0.0
O149 O 0.6188 0.57762 0.89564 0.0
O150 O 0.51134 0.99625 0.86899 0.0
O151 O 0.41412 0.03885 0.88556 0.0
H152 H 0.56701 0.73694 0.92531 0.0
H153 H 0.40138 0.53873 0.9214 0.0
H154 H 0.41681 0.59761 0.82366 0.0
H155 H 0.6638 0.67776 0.83506 0.0
H156 H 0.27364 0.93955 0.94568 0.0
H157 H 0.52514 0.01329 0.95453 0.0
H158 H 0.44578 0.78602 0.82544 0.0
H159 H 0.21429 0.86003 0.8466 0.0
H160 H 0.59076 0.70787 0.95567 0.0
H161 H 0.42186 0.5043 0.95142 0.0
Cd162 Cd 0.64819 0.26881 0.13891 0.0
Cd163 Cd 0.42034 0.2195 0.14748 0.0
C164 C 0.6042 0.36891 0.10543 0.0
N165 N 0.60149 0.29014 0.1108 0.0
C166 C 0.5791 0.24497 0.08206 0.0
C167 C 0.57965 0.32596 0.07636 0.0
C168 C 0.5923 0.38827 0.08831 0.0
C169 C 0.59068 0.22819 0.09946 0.0
H170 H 0.61885 0.41714 0.1143 0.0
H171 H 0.59285 0.16586 0.10381 0.0
C172 C 0.56668 0.06655 0.14028 0.0
C173 C 0.49312 0.14909 0.18298 0.0
C174 C 0.48516 0.14126 0.20067 0.0
C175 C 0.46007 0.20781 0.21055 0.0
C176 C 0.45229 0.28361 0.20237 0.0
C177 C 0.46107 0.28883 0.18463 0.0
N178 N 0.47782 0.2214 0.17522 0.0
H179 H 0.50242 0.09507 0.17544 0.0
H180 H 0.44521 0.34476 0.17825 0.0
C181 C 0.38444 0.12958 0.11105 0.0
N182 N 0.39806 0.20619 0.11721 0.0
C183 C 0.3913 0.25947 0.08871 0.0
C184 C 0.38184 0.18059 0.08198 0.0
C185 C 0.37632 0.11533 0.09347 0.0
C186 C 0.39922 0.27107 0.10641 0.0
H187 H 0.38181 0.07878 0.11979 0.0
H188 H 0.40888 0.33168 0.11142 0.0
C189 C 0.49698 0.42037 0.14423 0.0
C190 C 0.80409 0.32021 0.12794 0.0
N191 N 0.67331 0.25916 0.16898 0.0
C192 C 0.662 0.32491 0.17927 0.0
C193 C 0.68788 0.32393 0.19638 0.0
C194 C 0.72712 0.25484 0.20301 0.0
C195 C 0.73654 0.18759 0.19213 0.0
C196 C 0.70933 0.19097 0.17516 0.0
C197 C 0.26833 0.18163 0.16261 0.0
O198 O 0.62653 0.11599 0.13823 0.0
O199 O 0.49574 0.09306 0.14348 0.0
O200 O 0.43616 0.37131 0.14452 0.0
O201 O 0.56934 0.39347 0.14347 0.0
O202 O 0.77738 0.24929 0.12473 0.0
O203 O 0.76062 0.36489 0.13733 0.0
O204 O 0.29565 0.25363 0.16159 0.0
O205 O 0.30741 0.12676 0.15491 0.0
H206 H 0.63534 0.37949 0.17409 0.0
H207 H 0.71988 0.14005 0.16675 0.0
H208 H 0.57024 0.19528 0.07316 0.0
H209 H 0.59309 0.45155 0.08448 0.0
H210 H 0.4917 0.08169 0.20638 0.0
H211 H 0.43225 0.33701 0.20916 0.0
H212 H 0.39564 0.31151 0.08029 0.0
H213 H 0.36969 0.05346 0.08889 0.0
H214 H 0.68026 0.37834 0.20392 0.0
H215 H 0.76704 0.13335 0.19656 0.0
H216 H 0.08002 0.41353 0.48348 0.0
C217 C 0.03271 0.37086 0.4793 0.0
H218 H 0.92058 0.31509 0.48635 0.0
H219 H 0.06933 0.45445 0.56075 0.0
H220 H 0.1779 0.35631 0.55733 0.0
H221 H 0.18868 0.27482 0.53108 0.0
H222 H 0.09084 0.29072 0.50795 0.0
C223 C 0.97197 0.35286 0.49034 0.0
C224 C 0.96376 0.39765 0.50688 0.0
C225 C 0.01987 0.38568 0.52049 0.0
C226 C 0.01256 0.43154 0.53586 0.0
C227 C 0.07108 0.4203 0.54897 0.0
C228 C 0.1338 0.36426 0.54716 0.0
C229 C 0.13987 0.31833 0.53235 0.0
C230 C 0.08363 0.32844 0.51914 0.0
H231 H 0.89845 0.45117 0.56927 0.0
C232 C 0.91614 0.51493 0.56828 0.0
H233 H 0.9583 0.60561 0.5511 0.0
H234 H 0.84583 0.43668 0.48342 0.0
H235 H 0.73664 0.53351 0.48708 0.0
H236 H 0.72206 0.60979 0.51397 0.0
H237 H 0.81695 0.58978 0.53738 0.0
C238 C 0.94409 0.54193 0.55311 0.0
C239 C 0.94828 0.48818 0.53776 0.0
C240 C 0.89115 0.4987 0.52433 0.0
C241 C 0.89901 0.4538 0.50889 0.0
C242 C 0.84231 0.46792 0.49553 0.0
C243 C 0.77935 0.52364 0.49743 0.0
C244 C 0.7712 0.56665 0.51256 0.0
C245 C 0.8262 0.55463 0.52589 0.0
H246 H 0.51753 0.60461 0.79965 0.0
C247 C 0.55974 0.63865 0.80768 0.0
H248 H 0.6672 0.71209 0.80753 0.0
H249 H 0.809 0.58294 0.73766 0.0
H250 H 0.89927 0.51714 0.75782 0.0
H251 H 0.87119 0.52152 0.78869 0.0
H252 H 0.75239 0.5916 0.79962 0.0
C253 C 0.62323 0.67758 0.80001 0.0
C254 C 0.63832 0.67353 0.78105 0.0
C255 C 0.70825 0.63275 0.77472 0.0
C256 C 0.72503 0.63098 0.75683 0.0
C257 C 0.79429 0.58796 0.75105 0.0
C258 C 0.84641 0.54943 0.76249 0.0
C259 C 0.83056 0.55183 0.77988 0.0
C260 C 0.76224 0.59251 0.78598 0.0
H261 H 0.79223 0.74391 0.72766 0.0
C262 C 0.75216 0.70979 0.7191 0.0
H263 H 0.64424 0.63736 0.71816 0.0
H264 H 0.50691 0.76794 0.78864 0.0
H265 H 0.41742 0.83566 0.76853 0.0
H266 H 0.44121 0.82556 0.73759 0.0
H267 H 0.55678 0.75083 0.72653 0.0
C268 C 0.68866 0.66861 0.72618 0.0
C269 C 0.67219 0.67053 0.74511 0.0
C270 C 0.60225 0.71129 0.75144 0.0
C271 C 0.58644 0.7144 0.76936 0.0
C272 C 0.51981 0.76097 0.77521 0.0
C273 C 0.46826 0.80051 0.76381 0.0
C274 C 0.48177 0.795 0.74638 0.0
C275 C 0.54817 0.75155 0.7402 0.0
H276 H 0.59104 0.60532 0.97874 0.0
C277 C 0.53442 0.57895 0.97381 0.0
H278 H 0.43705 0.49709 0.97931 0.0
H279 H 0.62177 0.27322 0.03093 0.0
H280 H 0.61178 0.18526 1.00625 0.0
H281 H 0.5652 0.23834 0.97853 0.0
H282 H 0.52657 0.37947 0.97543 0.0
C283 C 0.49353 0.52528 0.98372 0.0
C284 C 0.52709 0.49584 1.00038 0.0
C285 C 0.54816 0.41266 1.00215 0.0
C286 C 0.5748 0.38187 0.01821 0.0
C287 C 0.59832 0.29933 0.01929 0.0
C288 C 0.594 0.24827 1.00513 0.0
C289 C 0.56797 0.27821 0.98952 0.0
C290 C 0.54548 0.35933 0.98795 0.0
H291 H 0.51293 0.31418 0.0518 0.0
C292 C 0.56278 0.34575 0.05822 0.0
H293 H 0.65617 0.43406 0.05612 0.0
H294 H 0.49533 0.65954 1.00154 0.0
H295 H 0.51723 0.74944 0.02562 0.0
H296 H 0.56023 0.69601 0.05345 0.0
H297 H 0.58691 0.55298 0.05723 0.0
C298 C 0.60542 0.40335 0.04975 0.0
C299 C 0.57975 0.43423 0.0326 0.0
C300 C 0.56215 0.51819 0.03065 0.0
C301 C 0.5357 0.54899 1.01458 0.0
C302 C 0.51756 0.63282 1.01322 0.0
C303 C 0.52837 0.68514 0.02704 0.0
C304 C 0.55329 0.65514 0.0427 0.0
C305 C 0.56904 0.57269 0.04463 0.0
H306 H 0.8056 0.30721 0.31313 0.0
C307 C 0.87182 0.31144 0.31447 0.0
H308 H 0.98241 0.31666 0.30041 0.0
H309 H 0.70345 0.1647 0.24564 0.0
H310 H 0.70143 0.04673 0.26404 0.0
H311 H 0.77937 0.04586 0.29099 0.0
H312 H 0.86049 0.16305 0.29966 0.0
C313 C 0.91624 0.31113 0.29996 0.0
C314 C 0.87553 0.30763 0.28269 0.0
C315 C 0.83072 0.23742 0.27738 0.0
C316 C 0.78861 0.23644 0.26135 0.0
C317 C 0.74009 0.16747 0.25711 0.0
C318 C 0.73748 0.09954 0.2677 0.0
C319 C 0.7813 0.09909 0.28288 0.0
C320 C 0.82727 0.16704 0.28775 0.0
H321 H 0.80849 0.20406 0.22299 0.0
C322 C 0.76497 0.25223 0.22051 0.0
H323 H 0.70706 0.3545 0.23131 0.0
H324 H 0.95598 0.45142 0.28853 0.0
H325 H 0.96821 0.56521 0.26904 0.0
H326 H 0.90357 0.56015 0.24061 0.0
H327 H 0.82518 0.44185 0.23154 0.0
C328 C 0.74977 0.30535 0.23328 0.0
C329 C 0.7949 0.30399 0.25009 0.0
C330 C 0.84225 0.37295 0.25517 0.0
C331 C 0.8816 0.37509 0.27147 0.0
C332 C 0.92605 0.44595 0.27625 0.0
C333 C 0.93354 0.51178 0.26519 0.0
C334 C 0.89703 0.50898 0.24919 0.0
C335 C 0.85188 0.44068 0.24418 0.0
H336 H 0.41903 0.12905 0.23183 0.0
C337 C 0.43042 0.19216 0.22834 0.0
H338 H 0.42042 0.31383 0.23681 0.0
H339 H 0.12441 0.27052 0.28669 0.0
H340 H 0.06938 0.35941 0.26503 0.0
H341 H 0.14696 0.38952 0.23884 0.0
H342 H 0.28055 0.3314 0.23417 0.0
C343 C 0.41039 0.25014 0.23977 0.0
C344 C 0.36381 0.23041 0.25579 0.0
C345 C 0.28486 0.26402 0.25829 0.0
C346 C 0.23889 0.24493 0.27324 0.0
C347 C 0.16129 0.28125 0.27547 0.0
C348 C 0.12894 0.33279 0.26315 0.0
C349 C 0.17272 0.34981 0.24842 0.0
C350 C 0.24965 0.31611 0.24594 0.0
H351 H 0.30868 0.20562 0.31903 0.0
C352 C 0.24675 0.18244 0.31711 0.0
H353 H 0.15885 0.14506 0.2989 0.0
H354 H 0.51742 0.16518 0.25674 0.0
H355 H 0.56746 0.06666 0.27716 0.0
H356 H 0.48078 0.01938 0.30086 0.0
H357 H 0.3443 0.07189 0.30469 0.0
C358 C 0.22007 0.16942 0.30103 0.0
C359 C 0.27056 0.1905 0.28561 0.0
C360 C 0.34851 0.15501 0.28287 0.0
C361 C 0.39641 0.17761 0.26837 0.0
C362 C 0.4766 0.14657 0.26688 0.0
C363 C 0.50649 0.09055 0.27859 0.0
C364 C 0.45777 0.06419 0.29201 0.0
C365 C 0.3797 0.09565 0.29416 0.0
H366 H 0.15851 0.82735 0.72942 0.0
C367 C 0.14081 0.76525 0.7262 0.0
H368 H 0.12749 0.64566 0.73551 0.0
H369 H 0.38345 0.66004 0.79502 0.0
H370 H 0.43356 0.54987 0.77729 0.0
H371 H 0.37217 0.52201 0.74917 0.0
H372 H 0.25848 0.60118 0.73881 0.0
C373 C 0.1454 0.70791 0.73842 0.0
C374 C 0.18259 0.72605 0.75556 0.0
C375 C 0.25093 0.68066 0.76122 0.0
C376 C 0.2894 0.6996 0.77709 0.0
C377 C 0.35426 0.6501 0.78281 0.0
C378 C 0.38341 0.58668 0.77281 0.0
C379 C 0.34866 0.57077 0.75698 0.0
C380 C 0.2831 0.61674 0.75121 0.0
H381 H 0.21327 0.77824 0.81947 0.0
C382 C 0.27801 0.79297 0.81817 0.0
H383 H 0.37526 0.80714 0.80073 0.0
H384 H 0.04167 0.81253 0.75104 0.0
H385 H 0.99814 0.92887 0.76759 0.0
H386 H 0.07886 0.9766 0.79233 0.0
H387 H 0.20136 0.90635 0.8011 0.0
C388 C 0.31109 0.79193 0.80244 0.0
C389 C 0.26331 0.76721 0.78687 0.0
C390 C 0.19507 0.81288 0.78118 0.0
C391 C 0.15231 0.78963 0.76603 0.0
C392 C 0.0796 0.83105 0.7617 0.0
C393 C 0.05343 0.89743 0.7712 0.0
C394 C 0.0986 0.924 0.78519 0.0
C395 C 0.16861 0.88254 0.79017 0.0
H396 H 0.31015 0.98111 0.97481 0.0
C397 C 0.37099 0.00043 0.97079 0.0
H398 H 0.4775 0.0647 0.97875 0.0
H399 H 0.3205 0.25614 0.03994 0.0
H400 H 0.32827 0.36232 0.0187 0.0
H401 H 0.36289 0.3306 0.98889 0.0
H402 H 0.39178 0.19232 0.9802 0.0
C403 C 0.41832 0.04001 0.9824 0.0
C404 C 0.39036 0.05747 1.00036 0.0
C405 C 0.37687 0.13894 1.00559 0.0
C406 C 0.35847 0.15747 0.023 0.0
C407 C 0.33961 0.23885 0.02729 0.0
C408 C 0.34233 0.30043 1.01511 0.0
C409 C 0.36168 0.28255 0.99832 0.0
C410 C 0.37856 0.20294 0.99353 0.0
H411 H 0.43432 0.20246 0.05639 0.0
C412 C 0.38872 0.16693 0.06316 0.0
H413 H 0.29625 0.07798 0.06099 0.0
H414 H 0.40349 0.89376 0.99474 0.0
H415 H 0.38441 0.78649 0.01536 0.0
H416 H 0.36108 0.81798 0.04569 0.0
H417 H 0.35099 0.95705 0.05533 0.0
C418 C 0.34269 0.1129 0.05424 0.0
C419 C 0.35659 0.09466 0.03552 0.0
C420 C 0.36574 0.01255 0.03006 0.0
C421 C 0.38186 0.99407 1.01255 0.0
C422 C 0.39017 0.91162 1.00769 0.0
C423 C 0.38045 0.84915 0.01948 0.0
C424 C 0.36671 0.86691 0.03652 0.0
C425 C 0.36043 0.94738 0.04186 0.0
H426 H 0.99863 0.92357 0.47174 0.0
C427 C 0.05823 0.93799 0.4663 0.0
H428 H 0.18513 0.94424 0.4719 0.0
H429 H 0.1595 0.98736 0.55135 0.0
H430 H 0.20849 0.12036 0.54258 0.0
H431 H 0.21552 0.15716 0.51211 0.0
H432 H 0.17364 0.06141 0.49027 0.0
C433 C 0.12441 0.92921 0.47653 0.0
C434 C 0.11701 0.90615 0.49508 0.0
C435 C 0.14053 0.96301 0.50787 0.0
C436 C 0.13481 0.94213 0.52551 0.0
C437 C 0.16052 0.00025 0.53783 0.0
C438 C 0.18924 0.07683 0.53297 0.0
C439 C 0.19329 0.09755 0.51583 0.0
C440 C 0.16927 0.04172 0.50339 0.0
H441 H 0.16757 0.74569 0.5512 0.0
C442 C 0.12965 0.78835 0.55813 0.0
H443 H 0.05221 0.88973 0.55609 0.0
H444 H 0.07744 0.77843 0.47423 0.0
H445 H 0.02632 0.64585 0.4829 0.0
H446 H 0.00727 0.61308 0.51325 0.0
H447 H 0.03865 0.71207 0.53522 0.0
C448 C 0.09119 0.84762 0.5493 0.0
C449 C 0.10442 0.86447 0.53059 0.0
C450 C 0.08145 0.8072 0.51778 0.0
C451 C 0.08941 0.82745 0.50009 0.0
C452 C 0.06994 0.76748 0.48773 0.0
C453 C 0.04088 0.69098 0.49253 0.0
C454 C 0.03013 0.67246 0.50964 0.0
C455 C 0.04935 0.72974 0.52215 0.0
H456 H 0.97131 0.85207 0.35589 0.0
C457 C 0.93738 0.90871 0.35598 0.0
H458 H 0.82108 0.96257 0.35443 0.0
H459 H 0.89201 0.56347 0.35543 0.0
H460 H 0.87835 0.56538 0.32445 0.0
H461 H 0.83527 0.69027 0.30951 0.0
H462 H 0.80427 0.81414 0.32572 0.0
C463 C 0.85559 0.90653 0.3537 0.0
C464 C 0.81494 0.83163 0.35982 0.0
C465 C 0.8285 0.76015 0.35047 0.0
C466 C 0.85508 0.68974 0.35909 0.0
C467 C 0.87273 0.61937 0.34942 0.0
C468 C 0.86492 0.61973 0.33169 0.0
C469 C 0.84053 0.69004 0.32327 0.0
C470 C 0.82305 0.76016 0.33255 0.0
H471 H 0.82826 0.58151 0.40038 0.0
C472 C 0.89031 0.57582 0.39556 0.0
H473 H 0.98034 0.62258 0.37911 0.0
H474 H 0.75296 0.9475 0.38057 0.0
H475 H 0.75823 0.94744 0.41176 0.0
H476 H 0.81679 0.83093 0.42728 0.0
H477 H 0.86796 0.71367 0.41196 0.0
C478 C 0.92045 0.6312 0.38483 0.0
C479 C 0.86734 0.69272 0.37698 0.0
C480 C 0.83691 0.75906 0.38653 0.0
C481 C 0.80577 0.82719 0.3777 0.0
C482 C 0.77721 0.89469 0.38701 0.0
C483 C 0.7801 0.89521 0.40477 0.0
C484 C 0.81302 0.82954 0.4135 0.0
C485 C 0.84176 0.76226 0.40455 0.0
H486 H 0.40567 0.8424 0.64382 0.0
C487 C 0.34837 0.87439 0.64566 0.0
H488 H 0.28519 0.98591 0.64232 0.0
H489 H 0.6871 0.94756 0.63695 0.0
H490 H 0.69104 0.00882 0.66515 0.0
H491 H 0.56565 0.06458 0.67809 0.0
H492 H 0.43488 0.05849 0.66258 0.0
C493 C 0.34327 0.95434 0.6419 0.0
C494 C 0.41005 0.98989 0.63176 0.0
C495 C 0.48549 0.00043 0.64009 0.0
C496 C 0.55656 0.96769 0.63265 0.0
C497 C 0.63071 0.97105 0.64201 0.0
C498 C 0.63375 0.00637 0.65819 0.0
C499 C 0.56318 0.03789 0.66547 0.0
C500 C 0.48922 0.03441 0.65658 0.0
H501 H 0.69687 0.91842 0.60262 0.0
C502 C 0.67766 0.86242 0.60888 0.0
H503 H 0.58148 0.79972 0.62092 0.0
H504 H 0.27996 -0.00152 0.61035 0.0
H505 H 0.27507 0.94731 0.58093 0.0
H506 H 0.39771 0.88648 0.56785 0.0
H507 H 0.52609 0.87714 0.58399 0.0
C508 C 0.60074 0.85432 0.61414 0.0
C509 C 0.54959 0.92625 0.61682 0.0
C510 C 0.47846 0.93517 0.60682 0.0
C511 C 0.40839 0.96998 0.61427 0.0
C512 C 0.33492 0.97334 0.60482 0.0
C513 C 0.33161 0.94409 0.58812 0.0
C514 C 0.40073 0.90971 0.58076 0.0
C515 C 0.47358 0.90455 0.59004 0.0
H516 H 0.61545 0.38357 0.90309 0.0
C517 C 0.64291 0.4364 0.89692 0.0
H518 H 0.71993 0.47951 0.87748 0.0
H519 H 0.5693 0.11698 0.89643 0.0
H520 H 0.68639 0.09277 0.91474 0.0
H521 H 0.80655 0.18539 0.91427 0.0
H522 H 0.80883 0.30407 0.89521 0.0
C523 C 0.69733 0.42614 0.88425 0.0
C524 C 0.68694 0.35007 0.8744 0.0
C525 C 0.69011 0.27769 0.88388 0.0
C526 C 0.62085 0.22547 0.88409 0.0
C527 C 0.62063 0.15864 0.89549 0.0
C528 C 0.68747 0.14424 0.90614 0.0
C529 C 0.75519 0.19633 0.90587 0.0
C530 C 0.75628 0.26328 0.89497 0.0
H531 H 0.50194 0.13084 0.85266 0.0
C532 C 0.4699 0.13026 0.86481 0.0
H533 H 0.4502 0.19227 0.8877 0.0
H534 H 0.6909 0.45766 0.84831 0.0
H535 H 0.58445 0.4744 0.82654 0.0
H536 H 0.45962 0.38839 0.8269 0.0
H537 H 0.44251 0.28175 0.84824 0.0
C538 C 0.47736 0.19455 0.87505 0.0
C539 C 0.55292 0.2434 0.8734 0.0
C540 C 0.56021 0.30446 0.86079 0.0
C541 C 0.63031 0.35578 0.86087 0.0
C542 C 0.63774 0.41775 0.84854 0.0
C543 C 0.57719 0.42805 0.8362 0.0
C544 C 0.50712 0.37911 0.83633 0.0
C545 C 0.49812 0.31807 0.84856 0.0
H546 H 0.17495 0.21131 0.18006 0.0
C547 C 0.18846 0.1667 0.17023 0.0
H548 H 0.13938 0.09789 0.15045 0.0
H549 H 0.90176 0.42317 0.16707 0.0
H550 H 0.87135 0.36337 0.19464 0.0
H551 H 0.93312 0.23314 0.2032 0.0
H552 H 0.02686 0.1632 0.18435 0.0
C553 C 0.12835 0.14688 0.15943 0.0
C554 C 0.0801 0.21647 0.15311 0.0
C555 C 0.02309 0.25451 0.16406 0.0
C556 C 0.98503 0.32747 0.15887 0.0
C557 C 0.93011 0.36595 0.17016 0.0
C558 C 0.91257 0.33253 0.18607 0.0
C559 C 0.94767 0.2595 0.19093 0.0
C560 C 0.0019 0.22036 0.18005 0.0
H561 H 0.9201 0.29609 0.11641 0.0
C562 C 0.88742 0.34326 0.12326 0.0
H563 H 0.8962 0.44312 0.13967 0.0
H564 H 0.19287 0.16439 0.12909 0.0
H565 H 0.22523 0.23013 0.10243 0.0
H566 H 0.15972 0.35883 0.09425 0.0
H567 H 0.05707 0.42027 0.11274 0.0
C568 C 0.92933 0.39502 0.13331 0.0
C569 C 0.99949 0.35831 0.14229 0.0
C570 C 0.06321 0.32645 0.13231 0.0
C571 C 0.10201 0.25373 0.13735 0.0
C572 C 0.16132 0.22009 0.12626 0.0
C573 C 0.18104 0.25755 0.11085 0.0
C574 C 0.14376 0.32973 0.10618 0.0
C575 C 0.08521 0.36405 0.11676 0.0
H576 H 0.06432 0.03072 0.64666 0.0
C577 C 0.00246 0.01275 0.64303 0.0
H578 H 0.88762 0.0564 0.63502 0.0
H579 H 0.04001 0.38709 0.67432 0.0
H580 H 0.03408 0.30604 0.70013 0.0
H581 H 0.99745 0.16031 0.699 0.0
H582 H 0.96724 0.09411 0.67208 0.0
C583 C 0.9485 0.07282 0.63954 0.0
C584 C 0.97123 0.16301 0.64043 0.0
C585 C 0.98806 0.20204 0.65629 0.0
C586 C 0.00804 0.28731 0.65699 0.0
C587 C 0.02479 0.32316 0.67304 0.0
C588 C 0.02132 0.2774 0.68797 0.0
C589 C 1.00075 0.19528 0.68733 0.0
C590 C 0.984 0.15786 0.67175 0.0
H591 H 0.92304 0.47611 0.63928 0.0
C592 C 0.98789 0.48838 0.64113 0.0
H593 H 0.10335 0.43494 0.64505 0.0
H594 H 0.94234 0.11151 0.60791 0.0
H595 H 0.94755 0.19308 0.58216 0.0
H596 H 0.98139 0.33939 0.58343 0.0
H597 H 0.0095 0.40582 0.61045 0.0
C598 C 0.0387 0.42382 0.64265 0.0
C599 C 0.00997 0.33544 0.64192 0.0
C600 C 0.99194 0.29681 0.62609 0.0
C601 C 0.97255 0.21138 0.62536 0.0
C602 C 0.9566 0.17561 0.60925 0.0
C603 C 0.95962 0.22171 0.59436 0.0
C604 C 0.97863 0.30418 0.59507 0.0
C605 C 0.99463 0.34157 0.61069 0.0
H606 H 0.73586 0.70548 0.89337 0.0
C607 C 0.72917 0.77109 0.89307 0.0
H608 H 0.79236 0.8834 0.89308 0.0
H609 H 0.13912 0.79015 0.92225 0.0
H610 H 0.08269 0.86883 0.94534 0.0
H611 H 0.9382 0.91028 0.94502 0.0
H612 H 0.84854 0.8725 0.92164 0.0
C613 C 0.79917 0.81778 0.89285 0.0
C614 C 0.88769 0.78572 0.89334 0.0
C615 C 0.94184 0.80912 0.90686 0.0
C616 C 0.02707 0.78634 0.90688 0.0
C617 C 0.0759 0.80795 0.92113 0.0
C618 C 0.04399 0.85262 0.93461 0.0
C619 C 0.96256 0.87591 0.93444 0.0
C620 C 0.91183 0.85419 0.92085 0.0
H621 H 0.20811 0.82698 0.89442 0.0
C622 C 0.21857 0.76195 0.89379 0.0
H623 H 0.16079 0.6472 0.89199 0.0
H624 H 0.8085 0.73347 0.86466 0.0
H625 H 0.86525 0.65628 0.84134 0.0
H626 H 0.01063 0.61784 0.84127 0.0
H627 H 0.10072 0.65646 0.86451 0.0
C628 C 0.15094 0.71213 0.89326 0.0
C629 C 0.06123 0.74124 0.89311 0.0
C630 C 0.00704 0.71781 0.87958 0.0
C631 C 0.92158 0.73991 0.87966 0.0
C632 C 0.87226 0.7172 0.86555 0.0
C633 C 0.90426 0.67319 0.85198 0.0
C634 C 0.98617 0.65152 0.85194 0.0
C635 C 0.03717 0.6737 0.86546 0.0
H636 H 0.4213 0.53214 0.1457 0.0
C637 C 0.48348 0.51029 0.14435 0.0
H638 H 0.60741 0.54313 0.14055 0.0
H639 H 0.56138 0.89288 0.10992 0.0
H640 H 0.59744 0.81681 0.08459 0.0
H641 H 0.60582 0.66718 0.08529 0.0
H642 H 0.5771 0.59242 0.11125 0.0
C643 C 0.54565 0.56498 0.1426 0.0
C644 C 0.53441 0.65597 0.1421 0.0
C645 C 0.55305 0.6998 0.12694 0.0
C646 C 0.5494 0.78678 0.12661 0.0
C647 C 0.56512 0.82752 0.11105 0.0
C648 C 0.58551 0.78451 0.09637 0.0
C649 C 0.59016 0.70024 0.09675 0.0
C650 C 0.57393 0.65808 0.11178 0.0
H651 H 0.64147 0.9548 0.1372 0.0
C652 C 0.57976 0.97663 0.13929 0.0
H653 H 0.45638 0.94399 0.14375 0.0
H654 H 0.49969 0.59377 0.17364 0.0
H655 H 0.46249 0.66959 0.19888 0.0
H656 H 0.45498 0.81924 0.19827 0.0
H657 H 0.48532 0.89421 0.17243 0.0
C658 C 0.51762 0.92196 0.14119 0.0
C659 C 0.52836 0.83086 0.14155 0.0
C660 C 0.50941 0.78695 0.15668 0.0
C661 C 0.51289 0.70001 0.157 0.0
C662 C 0.49629 0.65915 0.17252 0.0
C663 C 0.47523 0.70202 0.18716 0.0
C664 C 0.47102 0.78629 0.18682 0.0
C665 C 0.48819 0.82856 0.17184 0.0
H666 H 0.7288 0.10958 0.39765 0.0
C667 C 0.74803 0.17268 0.39908 0.0
H668 H 0.70979 0.29467 0.40066 0.0
H669 H 0.36024 0.26006 0.36789 0.0
H670 H 0.43649 0.31445 0.34397 0.0
H671 H 0.58712 0.32564 0.34501 0.0
H672 H 0.66266 0.28109 0.3699 0.0
C673 C 0.69033 0.23131 0.40018 0.0
C674 C 0.59912 0.21597 0.39904 0.0
C675 C 0.55475 0.24422 0.38462 0.0
C676 C 0.46716 0.23928 0.38416 0.0
C677 C 0.42601 0.26454 0.36919 0.0
C678 C 0.46914 0.29549 0.3553 0.0
C679 C 0.55397 0.30171 0.35587 0.0
C680 C 0.59656 0.2763 0.37029 0.0
H681 H 0.30266 0.3234 0.39761 0.0
C682 C 0.27798 0.2618 0.39744 0.0
H683 H 0.30617 0.13684 0.39819 0.0
H684 H 0.66251 0.15605 0.42867 0.0
H685 H 0.58661 0.09844 0.45235 0.0
H686 H 0.43584 0.09008 0.45162 0.0
H687 H 0.35973 0.13978 0.42727 0.0
C688 C 0.33063 0.19846 0.39774 0.0
C689 C 0.42284 0.20769 0.39832 0.0
C690 C 0.46738 0.17759 0.41255 0.0
C691 C 0.55502 0.18196 0.41295 0.0
C692 C 0.59656 0.15335 0.42758 0.0
C693 C 0.55369 0.12028 0.44129 0.0
C694 C 0.46877 0.11556 0.44088 0.0
C695 C 0.42583 0.14404 0.42677 0.0
loop_
_geom_bond_atom_site_label_1
_geom_bond_atom_site_label_2
_geom_bond_distance
_geom_bond_site_symmetry_2
_ccdc_geom_bond_type
Cd0 N3 2.334 . S
Cd0 N29 2.304 . S
Cd0 O36 2.268 1_455 S
Cd0 O39 2.273 . S
Cd0 O40 2.417 1_455 S
Cd0 O41 2.330 1_545 S
Cd1 N16 2.304 . S
Cd1 N20 2.334 . S
Cd1 O37 2.273 . S
Cd1 O38 2.268 1_655 S
Cd1 O42 2.417 1_655 S
Cd1 O43 2.330 . S
C2 N3 1.332 . S
C2 C6 1.381 . S
C2 H8 0.931 . S
N3 Cd0 2.334 . S
N3 C2 1.332 . S
N3 C7 1.328 1_455 S
C4 C5 1.396 1_655 S
C4 C7 1.378 . S
C4 H46 0.931 . S
C5 C4 1.396 1_455 S
C5 C6 1.382 . S
C6 C2 1.381 . S
C6 C5 1.382 . S
C6 H47 0.930 . S
C7 N3 1.328 1_655 S
C7 C4 1.378 . S
C7 H9 0.930 . S
H8 C2 0.931 . S
H9 C7 0.930 . S
C10 O36 1.238 . S
C10 O37 1.253 . S
C11 C12 1.379 . S
C11 N16 1.337 . S
C11 H17 0.929 . S
C12 C11 1.379 . S
C12 C13 1.380 . S
C12 H48 0.929 . S
C13 C12 1.380 . S
C13 C14 1.399 1_655 S
C14 C13 1.399 1_455 S
C14 C15 1.376 . S
C14 H49 0.931 . S
C15 C14 1.376 . S
C15 N16 1.338 1_455 S
C15 H18 0.930 . S
N16 Cd1 2.304 . S
N16 C11 1.337 . S
N16 C15 1.338 1_655 S
H17 C11 0.929 . S
H18 C15 0.930 . S
C19 N20 1.332 . S
C19 C23 1.381 . S
C19 H25 0.931 . S
N20 Cd1 2.334 . S
N20 C19 1.332 . S
N20 C24 1.328 1_655 S
C21 C22 1.396 1_455 S
C21 C24 1.378 . S
C21 H50 0.931 . S
C22 C21 1.396 1_655 S
C22 C23 1.382 . S
C23 C19 1.381 . S
C23 C22 1.382 . S
C23 H51 0.930 . S
C24 N20 1.328 1_455 S
C24 C21 1.378 . S
C24 H26 0.930 . S
H25 C19 0.931 . S
H26 C24 0.930 . S
C27 O38 1.238 . S
C27 O39 1.253 . S
C28 O40 1.239 1_465 S
C28 O41 1.230 . S
N29 Cd0 2.304 . S
N29 C30 1.337 . S
N29 C34 1.338 1_455 S
C30 N29 1.337 . S
C30 C31 1.379 . S
C30 H44 0.929 . S
C31 C30 1.379 . S
C31 C32 1.380 . S
C31 H52 0.929 . S
C32 C31 1.380 . S
C32 C33 1.399 1_455 S
C33 C32 1.399 1_655 S
C33 C34 1.376 . S
C33 H53 0.931 . S
C34 N29 1.338 1_655 S
C34 C33 1.376 . S
C34 H45 0.930 . S
C35 O42 1.239 1_655 S
C35 O43 1.230 . S
O36 Cd0 2.268 1_655 S
O36 C10 1.238 . S
O37 Cd1 2.273 . S
O37 C10 1.253 . S
O38 Cd1 2.268 1_455 S
O38 C27 1.238 . S
O39 Cd0 2.273 . S
O39 C27 1.253 . S
O40 Cd0 2.417 1_655 S
O40 C28 1.239 1_645 S
O41 Cd0 2.330 1_565 S
O41 C28 1.230 . S
O42 Cd1 2.417 1_455 S
O42 C35 1.239 1_455 S
O43 Cd1 2.330 . S
O43 C35 1.230 . S
H44 C30 0.929 . S
H45 C34 0.930 . S
H46 C4 0.931 . S
H47 C6 0.930 . S
H48 C12 0.929 . S
H49 C14 0.931 . S
H50 C21 0.931 . S
H51 C23 0.930 . S
H52 C31 0.929 . S
H53 C33 0.931 . S
Cd54 N57 2.334 . S
Cd54 N83 2.304 . S
Cd54 O90 2.268 . S
Cd54 O93 2.273 . S
Cd54 O94 2.417 . S
Cd54 O95 2.330 . S
Cd55 N70 2.304 . S
Cd55 N74 2.334 . S
Cd55 O91 2.273 . S
Cd55 O92 2.268 . S
Cd55 O96 2.417 . S
Cd55 O97 2.330 . S
C56 N57 1.332 . S
C56 C60 1.381 . S
C56 H62 0.931 . S
N57 Cd54 2.334 . S
N57 C56 1.332 . S
N57 C61 1.328 . S
C58 C59 1.396 . S
C58 C61 1.378 . S
C58 H100 0.931 . S
C59 C58 1.396 . S
C59 C60 1.382 . S
C60 C56 1.381 . S
C60 C59 1.382 . S
C60 H101 0.930 . S
C61 N57 1.328 . S
C61 C58 1.378 . S
C61 H63 0.930 . S
H62 C56 0.931 . S
H63 C61 0.930 . S
C64 O90 1.238 1_655 S
C64 O91 1.253 . S
C65 C66 1.379 . S
C65 N70 1.337 . S
C65 H71 0.929 . S
C66 C65 1.379 . S
C66 C67 1.380 . S
C66 H102 0.929 . S
C67 C66 1.380 . S
C67 C68 1.399 . S
C68 C67 1.399 . S
C68 C69 1.376 . S
C68 H103 0.931 . S
C69 C68 1.376 . S
C69 N70 1.338 . S
C69 H72 0.930 . S
N70 Cd55 2.304 . S
N70 C65 1.337 . S
N70 C69 1.338 . S
H71 C65 0.929 . S
H72 C69 0.930 . S
C73 N74 1.332 . S
C73 C77 1.381 . S
C73 H79 0.931 . S
N74 Cd55 2.334 . S
N74 C73 1.332 . S
N74 C78 1.328 . S
C75 C76 1.396 . S
C75 C78 1.378 . S
C75 H104 0.931 . S
C76 C75 1.396 . S
C76 C77 1.382 . S
C77 C73 1.381 . S
C77 C76 1.382 . S
C77 H105 0.930 . S
C78 N74 1.328 . S
C78 C75 1.378 . S
C78 H80 0.930 . S
H79 C73 0.931 . S
H80 C78 0.930 . S
C81 O92 1.238 1_455 S
C81 O93 1.253 . S
C82 O94 1.239 . S
C82 O95 1.230 . S
N83 Cd54 2.304 . S
N83 C84 1.337 . S
N83 C88 1.338 . S
C84 N83 1.337 . S
C84 C85 1.379 . S
C84 H98 0.929 . S
C85 C84 1.379 . S
C85 C86 1.380 . S
C85 H106 0.929 . S
C86 C85 1.380 . S
C86 C87 1.399 . S
C87 C86 1.399 . S
C87 C88 1.376 . S
C87 H107 0.931 . S
C88 N83 1.338 . S
C88 C87 1.376 . S
C88 H99 0.930 . S
C89 O96 1.239 . S
C89 O97 1.230 . S
O90 Cd54 2.268 . S
O90 C64 1.238 1_455 S
O91 Cd55 2.273 . S
O91 C64 1.253 . S
O92 Cd55 2.268 . S
O92 C81 1.238 1_655 S
O93 Cd54 2.273 . S
O93 C81 1.253 . S
O94 Cd54 2.417 . S
O94 C82 1.239 . S
O95 Cd54 2.330 . S
O95 C82 1.230 . S
O96 Cd55 2.417 . S
O96 C89 1.239 . S
O97 Cd55 2.330 . S
O97 C89 1.230 . S
H98 C84 0.929 . S
H99 C88 0.930 . S
H100 C58 0.931 . S
H101 C60 0.930 . S
H102 C66 0.929 . S
H103 C68 0.931 . S
H104 C75 0.931 . S
H105 C77 0.930 . S
H106 C85 0.929 . S
H107 C87 0.931 . S
Cd108 N111 2.334 . S
Cd108 N137 2.304 . S
Cd108 O144 2.268 . S
Cd108 O147 2.273 . S
Cd108 O148 2.417 . S
Cd108 O149 2.330 . S
Cd109 N124 2.304 . S
Cd109 N128 2.334 . S
Cd109 O145 2.273 . S
Cd109 O146 2.268 . S
Cd109 O150 2.417 . S
Cd109 O151 2.330 1_565 S
C110 N111 1.332 . S
C110 C114 1.381 . S
C110 H116 0.931 . S
N111 Cd108 2.334 . S
N111 C110 1.332 . S
N111 C115 1.328 . S
C112 C113 1.396 . S
C112 C115 1.378 . S
C112 H154 0.931 . S
C113 C112 1.396 . S
C113 C114 1.382 . S
C114 C110 1.381 . S
C114 C113 1.382 . S
C114 H155 0.930 . S
C115 N111 1.328 . S
C115 C112 1.378 . S
C115 H117 0.930 . S
H116 C110 0.931 . S
H117 C115 0.930 . S
C118 O144 1.238 . S
C118 O145 1.253 . S
C119 C120 1.379 . S
C119 N124 1.337 . S
C119 H125 0.929 . S
C120 C119 1.379 . S
C120 C121 1.380 . S
C120 H156 0.929 . S
C121 C120 1.380 . S
C121 C122 1.399 . S
C122 C121 1.399 . S
C122 C123 1.376 . S
C122 H157 0.931 . S
C123 C122 1.376 . S
C123 N124 1.338 . S
C123 H126 0.930 . S
N124 Cd109 2.304 . S
N124 C119 1.337 . S
N124 C123 1.338 . S
H125 C119 0.929 . S
H126 C123 0.930 . S
C127 N128 1.332 . S
C127 C131 1.381 . S
C127 H133 0.931 . S
N128 Cd109 2.334 . S
N128 C127 1.332 . S
N128 C132 1.328 . S
C129 C130 1.396 . S
C129 C132 1.378 . S
C129 H158 0.931 . S
C130 C129 1.396 . S
C130 C131 1.382 . S
C131 C127 1.381 . S
C131 C130 1.382 . S
C131 H159 0.930 . S
C132 N128 1.328 . S
C132 C129 1.378 . S
C132 H134 0.930 . S
H133 C127 0.931 . S
H134 C132 0.930 . S
C135 O146 1.238 . S
C135 O147 1.253 . S
C136 O148 1.239 . S
C136 O149 1.230 . S
N137 Cd108 2.304 . S
N137 C138 1.337 . S
N137 C142 1.338 . S
C138 N137 1.337 . S
C138 C139 1.379 . S
C138 H152 0.929 . S
C139 C138 1.379 . S
C139 C140 1.380 . S
C139 H160 0.929 . S
C140 C139 1.380 . S
C140 C141 1.399 . S
C141 C140 1.399 . S
C141 C142 1.376 . S
C141 H161 0.931 . S
C142 N137 1.338 . S
C142 C141 1.376 . S
C142 H153 0.930 . S
C143 O150 1.239 1_545 S
C143 O151 1.230 . S
O144 Cd108 2.268 . S
O144 C118 1.238 . S
O145 Cd109 2.273 . S
O145 C118 1.253 . S
O146 Cd109 2.268 . S
O146 C135 1.238 . S
O147 Cd108 2.273 . S
O147 C135 1.253 . S
O148 Cd108 2.417 . S
O148 C136 1.239 . S
O149 Cd108 2.330 . S
O149 C136 1.230 . S
O150 Cd109 2.417 . S
O150 C143 1.239 1_565 S
O151 Cd109 2.330 1_545 S
O151 C143 1.230 . S
H152 C138 0.929 . S
H153 C142 0.930 . S
H154 C112 0.931 . S
H155 C114 0.930 . S
H156 C120 0.929 . S
H157 C122 0.931 . S
H158 C129 0.931 . S
H159 C131 0.930 . S
H160 C139 0.929 . S
H161 C141 0.931 . S
Cd162 N165 2.334 . S
Cd162 N191 2.304 . S
Cd162 O198 2.268 . S
Cd162 O201 2.273 . S
Cd162 O202 2.417 . S
Cd162 O203 2.330 . S
Cd163 N178 2.304 . S
Cd163 N182 2.334 . S
Cd163 O199 2.273 . S
Cd163 O200 2.268 . S
Cd163 O204 2.417 . S
Cd163 O205 2.330 . S
C164 N165 1.332 . S
C164 C168 1.381 . S
C164 H170 0.931 . S
N165 Cd162 2.334 . S
N165 C164 1.332 . S
N165 C169 1.328 . S
C166 C167 1.396 . S
C166 C169 1.378 . S
C166 H208 0.931 . S
C167 C166 1.396 . S
C167 C168 1.382 . S
C168 C164 1.381 . S
C168 C167 1.382 . S
C168 H209 0.930 . S
C169 N165 1.328 . S
C169 C166 1.378 . S
C169 H171 0.930 . S
H170 C164 0.931 . S
H171 C169 0.930 . S
C172 O198 1.238 . S
C172 O199 1.253 . S
C173 C174 1.379 . S
C173 N178 1.337 . S
C173 H179 0.929 . S
C174 C173 1.379 . S
C174 C175 1.380 . S
C174 H210 0.929 . S
C175 C174 1.380 . S
C175 C176 1.399 . S
C176 C175 1.399 . S
C176 C177 1.376 . S
C176 H211 0.931 . S
C177 C176 1.376 . S
C177 N178 1.338 . S
C177 H180 0.930 . S
N178 Cd163 2.304 . S
N178 C173 1.337 . S
N178 C177 1.338 . S
H179 C173 0.929 . S
H180 C177 0.930 . S
C181 N182 1.332 . S
C181 C185 1.381 . S
C181 H187 0.931 . S
N182 Cd163 2.334 . S
N182 C181 1.332 . S
N182 C186 1.328 . S
C183 C184 1.396 . S
C183 C186 1.378 . S
C183 H212 0.931 . S
C184 C183 1.396 . S
C184 C185 1.382 . S
C185 C181 1.381 . S
C185 C184 1.382 . S
C185 H213 0.930 . S
C186 N182 1.328 . S
C186 C183 1.378 . S
C186 H188 0.930 . S
H187 C181 0.931 . S
H188 C186 0.930 . S
C189 O200 1.238 . S
C189 O201 1.253 . S
C190 O202 1.239 . S
C190 O203 1.230 . S
N191 Cd162 2.304 . S
N191 C192 1.337 . S
N191 C196 1.338 . S
C192 N191 1.337 . S
C192 C193 1.379 . S
C192 H206 0.929 . S
C193 C192 1.379 . S
C193 C194 1.380 . S
C193 H214 0.929 . S
C194 C193 1.380 . S
C194 C195 1.399 . S
C195 C194 1.399 . S
C195 C196 1.376 . S
C195 H215 0.931 . S
C196 N191 1.338 . S
C196 C195 1.376 . S
C196 H207 0.930 . S
C197 O204 1.239 . S
C197 O205 1.230 . S
O198 Cd162 2.268 . S
O198 C172 1.238 . S
O199 Cd163 2.273 . S
O199 C172 1.253 . S
O200 Cd163 2.268 . S
O200 C189 1.238 . S
O201 Cd162 2.273 . S
O201 C189 1.253 . S
O202 Cd162 2.417 . S
O202 C190 1.239 . S
O203 Cd162 2.330 . S
O203 C190 1.230 . S
O204 Cd163 2.417 . S
O204 C197 1.239 . S
O205 Cd163 2.330 . S
O205 C197 1.230 . S
H206 C192 0.929 . S
H207 C196 0.930 . S
H208 C166 0.931 . S
H209 C168 0.930 . S
H210 C174 0.929 . S
H211 C176 0.931 . S
H212 C183 0.931 . S
H213 C185 0.930 . S
H214 C193 0.929 . S
H215 C195 0.931 . S
H216 C217 0.951 . S
C217 H216 0.951 . S
C217 C223 1.265 . S
H218 C223 0.950 . S
H219 C227 0.949 . S
H220 C228 0.950 . S
H221 C229 0.951 . S
H222 C230 0.951 . S
C223 C217 1.265 . S
C223 H218 0.950 . S
C223 C224 1.478 . S
C224 C223 1.478 . S
C224 C225 1.397 1_655 S
C224 C241 1.394 . S
C225 C224 1.397 1_455 S
C225 C226 1.438 1_455 S
C225 C230 1.429 . S
C226 C225 1.438 1_655 S
C226 C227 1.428 1_655 S
C226 C239 1.394 . S
C227 H219 0.949 . S
C227 C226 1.428 1_455 S
C227 C228 1.345 . S
C228 H220 0.950 . S
C228 C227 1.345 . S
C228 C229 1.424 . S
C229 H221 0.951 . S
C229 C228 1.424 . S
C229 C230 1.347 . S
C230 H222 0.951 . S
C230 C225 1.429 . S
C230 C229 1.347 . S
H231 C232 0.951 . S
C232 H231 0.951 . S
C232 C238 1.265 . S
H233 C238 0.950 . S
H234 C242 0.949 . S
H235 C243 0.950 . S
H236 C244 0.951 . S
H237 C245 0.951 . S
C238 C232 1.265 . S
C238 H233 0.950 . S
C238 C239 1.478 . S
C239 C226 1.394 . S
C239 C238 1.478 . S
C239 C240 1.397 . S
C240 C239 1.397 . S
C240 C241 1.438 . S
C240 C245 1.429 . S
C241 C224 1.394 . S
C241 C240 1.438 . S
C241 C242 1.428 . S
C242 H234 0.949 . S
C242 C241 1.428 . S
C242 C243 1.345 . S
C243 H235 0.950 . S
C243 C242 1.345 . S
C243 C244 1.424 . S
C244 H236 0.951 . S
C244 C243 1.424 . S
C244 C245 1.347 . S
C245 H237 0.951 . S
C245 C240 1.429 . S
C245 C244 1.347 . S
H246 C247 0.951 . S
C247 H246 0.951 . S
C247 C253 1.265 . S
H248 C253 0.950 . S
H249 C257 0.949 . S
H250 C258 0.950 . S
H251 C259 0.951 . S
H252 C260 0.951 . S
C253 C247 1.265 . S
C253 H248 0.950 . S
C253 C254 1.478 . S
C254 C253 1.478 . S
C254 C255 1.397 . S
C254 C271 1.394 . S
C255 C254 1.397 . S
C255 C256 1.438 . S
C255 C260 1.429 . S
C256 C255 1.438 . S
C256 C257 1.428 . S
C256 C269 1.394 . S
C257 H249 0.949 . S
C257 C256 1.428 . S
C257 C258 1.345 . S
C258 H250 0.950 . S
C258 C257 1.345 . S
C258 C259 1.424 . S
C259 H251 0.951 . S
C259 C258 1.424 . S
C259 C260 1.347 . S
C260 H252 0.951 . S
C260 C255 1.429 . S
C260 C259 1.347 . S
H261 C262 0.951 . S
C262 H261 0.951 . S
C262 C268 1.265 . S
H263 C268 0.950 . S
H264 C272 0.949 . S
H265 C273 0.950 . S
H266 C274 0.951 . S
H267 C275 0.951 . S
C268 C262 1.265 . S
C268 H263 0.950 . S
C268 C269 1.478 . S
C269 C256 1.394 . S
C269 C268 1.478 . S
C269 C270 1.397 . S
C270 C269 1.397 . S
C270 C271 1.438 . S
C270 C275 1.429 . S
C271 C254 1.394 . S
C271 C270 1.438 . S
C271 C272 1.428 . S
C272 H264 0.949 . S
C272 C271 1.428 . S
C272 C273 1.345 . S
C273 H265 0.950 . S
C273 C272 1.345 . S
C273 C274 1.424 . S
C274 H266 0.951 . S
C274 C273 1.424 . S
C274 C275 1.347 . S
C275 H267 0.951 . S
C275 C270 1.429 . S
C275 C274 1.347 . S
H276 C277 0.951 . S
C277 H276 0.951 . S
C277 C283 1.265 . S
H278 C283 0.950 . S
H279 C287 0.949 1_554 S
H280 C288 0.950 . S
H281 C289 0.951 . S
H282 C290 0.951 . S
C283 C277 1.265 . S
C283 H278 0.950 . S
C283 C284 1.478 . S
C284 C283 1.478 . S
C284 C285 1.397 . S
C284 C301 1.388 . S
C285 C284 1.397 . S
C285 C286 1.438 1_556 S
C285 C290 1.429 . S
C286 C285 1.438 1_554 S
C286 C287 1.428 1_554 S
C286 C299 1.394 . S
C287 H279 0.949 1_556 S
C287 C286 1.428 1_556 S
C287 C288 1.345 . S
C288 H280 0.950 . S
C288 C287 1.345 . S
C288 C289 1.424 . S
C289 H281 0.951 . S
C289 C288 1.424 . S
C289 C290 1.347 . S
C290 H282 0.951 . S
C290 C285 1.429 . S
C290 C289 1.347 . S
H291 C292 0.951 . S
C292 H291 0.951 . S
C292 C298 1.265 . S
H293 C298 0.950 . S
H294 C302 0.949 1_556 S
H295 C303 0.950 . S
H296 C304 0.951 . S
H297 C305 0.951 . S
C298 C292 1.265 . S
C298 H293 0.950 . S
C298 C299 1.478 . S
C299 C286 1.394 . S
C299 C298 1.478 . S
C299 C300 1.397 . S
C300 C299 1.397 . S
C300 C301 1.444 1_554 S
C300 C305 1.429 . S
C301 C284 1.388 . S
C301 C300 1.444 1_556 S
C301 C302 1.428 1_556 S
C302 H294 0.949 1_554 S
C302 C301 1.428 1_554 S
C302 C303 1.345 . S
C303 H295 0.950 . S
C303 C302 1.345 . S
C303 C304 1.424 . S
C304 H296 0.951 . S
C304 C303 1.424 . S
C304 C305 1.347 . S
C305 H297 0.951 . S
C305 C300 1.429 . S
C305 C304 1.347 . S
H306 C307 0.951 . S
C307 H306 0.951 . S
C307 C313 1.265 . S
H308 C313 0.950 . S
H309 C317 0.949 . S
H310 C318 0.950 . S
H311 C319 0.951 . S
H312 C320 0.951 . S
C313 C307 1.265 . S
C313 H308 0.950 . S
C313 C314 1.478 . S
C314 C313 1.478 . S
C314 C315 1.397 . S
C314 C331 1.394 . S
C315 C314 1.397 . S
C315 C316 1.438 . S
C315 C320 1.429 . S
C316 C315 1.438 . S
C316 C317 1.428 . S
C316 C329 1.394 . S
C317 H309 0.949 . S
C317 C316 1.428 . S
C317 C318 1.345 . S
C318 H310 0.950 . S
C318 C317 1.345 . S
C318 C319 1.424 . S
C319 H311 0.951 . S
C319 C318 1.424 . S
C319 C320 1.347 . S
C320 H312 0.951 . S
C320 C315 1.429 . S
C320 C319 1.347 . S
H321 C322 0.951 . S
C322 H321 0.951 . S
C322 C328 1.265 . S
H323 C328 0.950 . S
H324 C332 0.949 . S
H325 C333 0.950 . S
H326 C334 0.951 . S
H327 C335 0.951 . S
C328 C322 1.265 . S
C328 H323 0.950 . S
C328 C329 1.478 . S
C329 C316 1.394 . S
C329 C328 1.478 . S
C329 C330 1.397 . S
C330 C329 1.397 . S
C330 C331 1.438 . S
C330 C335 1.429 . S
C331 C314 1.394 . S
C331 C330 1.438 . S
C331 C332 1.428 . S
C332 H324 0.949 . S
C332 C331 1.428 . S
C332 C333 1.345 . S
C333 H325 0.950 . S
C333 C332 1.345 . S
C333 C334 1.424 . S
C334 H326 0.951 . S
C334 C333 1.424 . S
C334 C335 1.347 . S
C335 H327 0.951 . S
C335 C330 1.429 . S
C335 C334 1.347 . S
H336 C337 0.951 . S
C337 H336 0.951 . S
C337 C343 1.265 . S
H338 C343 0.950 . S
H339 C347 0.949 . S
H340 C348 0.950 . S
H341 C349 0.951 . S
H342 C350 0.951 . S
C343 C337 1.265 . S
C343 H338 0.950 . S
C343 C344 1.478 . S
C344 C343 1.478 . S
C344 C345 1.397 . S
C344 C361 1.394 . S
C345 C344 1.397 . S
C345 C346 1.438 . S
C345 C350 1.429 . S
C346 C345 1.438 . S
C346 C347 1.428 . S
C346 C359 1.394 . S
C347 H339 0.949 . S
C347 C346 1.428 . S
C347 C348 1.345 . S
C348 H340 0.950 . S
C348 C347 1.345 . S
C348 C349 1.424 . S
C349 H341 0.951 . S
C349 C348 1.424 . S
C349 C350 1.347 . S
C350 H342 0.951 . S
C350 C345 1.429 . S
C350 C349 1.347 . S
H351 C352 0.951 . S
C352 H351 0.951 . S
C352 C358 1.265 . S
H353 C358 0.950 . S
H354 C362 0.949 . S
H355 C363 0.950 . S
H356 C364 0.951 . S
H357 C365 0.951 . S
C358 C352 1.265 . S
C358 H353 0.950 . S
C358 C359 1.478 . S
C359 C346 1.394 . S
C359 C358 1.478 . S
C359 C360 1.397 . S
C360 C359 1.397 . S
C360 C361 1.438 . S
C360 C365 1.429 . S
C361 C344 1.394 . S
C361 C360 1.438 . S
C361 C362 1.428 . S
C362 H354 0.949 . S
C362 C361 1.428 . S
C362 C363 1.345 1_545 S
C363 H355 0.950 . S
C363 C362 1.345 1_565 S
C363 C364 1.424 . S
C364 H356 0.951 . S
C364 C363 1.424 . S
C364 C365 1.347 1_565 S
C365 H357 0.951 . S
C365 C360 1.429 . S
C365 C364 1.347 1_545 S
H366 C367 0.951 . S
C367 H366 0.951 . S
C367 C373 1.265 . S
H368 C373 0.950 . S
H369 C377 0.949 . S
H370 C378 0.950 . S
H371 C379 0.951 . S
H372 C380 0.951 . S
C373 C367 1.265 . S
C373 H368 0.950 . S
C373 C374 1.478 . S
C374 C373 1.478 . S
C374 C375 1.397 . S
C374 C391 1.394 . S
C375 C374 1.397 . S
C375 C376 1.438 . S
C375 C380 1.429 . S
C376 C375 1.438 . S
C376 C377 1.428 . S
C376 C389 1.394 . S
C377 H369 0.949 . S
C377 C376 1.428 . S
C377 C378 1.345 . S
C378 H370 0.950 . S
C378 C377 1.345 . S
C378 C379 1.424 . S
C379 H371 0.951 . S
C379 C378 1.424 . S
C379 C380 1.347 . S
C380 H372 0.951 . S
C380 C375 1.429 . S
C380 C379 1.347 . S
H381 C382 0.951 . S
C382 H381 0.951 . S
C382 C388 1.265 . S
H383 C388 0.950 . S
H384 C392 0.949 . S
H385 C393 0.950 1_545 S
H386 C394 0.951 . S
H387 C395 0.951 . S
C388 C382 1.265 . S
C388 H383 0.950 . S
C388 C389 1.478 . S
C389 C376 1.394 . S
C389 C388 1.478 . S
C389 C390 1.397 . S
C390 C389 1.397 . S
C390 C391 1.438 . S
C390 C395 1.429 . S
C391 C374 1.394 . S
C391 C390 1.438 . S
C391 C392 1.428 . S
C392 H384 0.949 . S
C392 C391 1.428 . S
C392 C393 1.345 . S
C393 H385 0.950 1_565 S
C393 C392 1.345 . S
C393 C394 1.424 1_565 S
C394 H386 0.951 . S
C394 C393 1.424 1_545 S
C394 C395 1.347 1_545 S
C395 H387 0.951 . S
C395 C390 1.429 . S
C395 C394 1.347 1_565 S
H396 C397 0.951 . S
C397 H396 0.951 . S
C397 C403 1.265 . S
H398 C403 0.950 . S
H399 C407 0.949 1_554 S
H400 C408 0.950 . S
H401 C409 0.951 . S
H402 C410 0.951 . S
C403 C397 1.265 . S
C403 H398 0.950 . S
C403 C404 1.478 1_565 S
C404 C403 1.478 1_545 S
C404 C405 1.397 . S
C404 C421 1.388 1_545 S
C405 C404 1.397 . S
C405 C406 1.438 1_556 S
C405 C410 1.429 . S
C406 C405 1.438 1_554 S
C406 C407 1.428 1_554 S
C406 C419 1.394 . S
C407 H399 0.949 1_556 S
C407 C406 1.428 1_556 S
C407 C408 1.345 . S
C408 H400 0.950 . S
C408 C407 1.345 . S
C408 C409 1.424 . S
C409 H401 0.951 . S
C409 C408 1.424 . S
C409 C410 1.347 . S
C410 H402 0.951 . S
C410 C405 1.429 . S
C410 C409 1.347 . S
H411 C412 0.951 . S
C412 H411 0.951 . S
C412 C418 1.265 . S
H413 C418 0.950 . S
H414 C422 0.949 1_556 S
H415 C423 0.950 . S
H416 C424 0.951 . S
H417 C425 0.951 . S
C418 C412 1.265 . S
C418 H413 0.950 . S
C418 C419 1.478 . S
C419 C406 1.394 . S
C419 C418 1.478 . S
C419 C420 1.391 1_545 S
C420 C419 1.391 1_565 S
C420 C421 1.447 1_554 S
C420 C425 1.432 . S
C421 C404 1.388 1_565 S
C421 C420 1.447 1_556 S
C421 C422 1.428 1_556 S
C422 H414 0.949 1_554 S
C422 C421 1.428 1_554 S
C422 C423 1.345 . S
C423 H415 0.950 . S
C423 C422 1.345 . S
C423 C424 1.424 . S
C424 H416 0.951 . S
C424 C423 1.424 . S
C424 C425 1.347 . S
C425 H417 0.951 . S
C425 C420 1.432 . S
C425 C424 1.347 . S
H426 C427 0.951 1_655 S
C427 H426 0.951 1_455 S
C427 C433 1.265 . S
H428 C433 0.950 . S
H429 C437 0.949 1_565 S
H430 C438 0.950 . S
H431 C439 0.951 . S
H432 C440 0.951 . S
C433 C427 1.265 . S
C433 H428 0.950 . S
C433 C434 1.478 . S
C434 C433 1.478 . S
C434 C435 1.397 . S
C434 C451 1.394 1_545 S
C435 C434 1.397 . S
C435 C436 1.438 1_545 S
C435 C440 1.429 . S
C436 C435 1.438 1_565 S
C436 C437 1.428 1_565 S
C436 C449 1.394 . S
C437 H429 0.949 1_545 S
C437 C436 1.428 1_545 S
C437 C438 1.345 . S
C438 H430 0.950 . S
C438 C437 1.345 . S
C438 C439 1.424 . S
C439 H431 0.951 . S
C439 C438 1.424 . S
C439 C440 1.347 . S
C440 H432 0.951 . S
C440 C435 1.429 . S
C440 C439 1.347 . S
H441 C442 0.951 . S
C442 H441 0.951 . S
C442 C448 1.265 . S
H443 C448 0.950 1_655 S
H444 C452 0.949 . S
H445 C453 0.950 . S
H446 C454 0.951 . S
H447 C455 0.951 . S
C448 C442 1.265 . S
C448 H443 0.950 1_455 S
C448 C449 1.478 . S
C449 C436 1.394 . S
C449 C448 1.478 . S
C449 C450 1.397 . S
C450 C449 1.397 . S
C450 C451 1.438 . S
C450 C455 1.429 1_455 S
C451 C434 1.394 1_565 S
C451 C450 1.438 . S
C451 C452 1.428 1_455 S
C452 H444 0.949 . S
C452 C451 1.428 1_655 S
C452 C453 1.345 . S
C453 H445 0.950 . S
C453 C452 1.345 . S
C453 C454 1.424 . S
C454 H446 0.951 . S
C454 C453 1.424 . S
C454 C455 1.347 . S
C455 H447 0.951 . S
C455 C450 1.429 1_655 S
C455 C454 1.347 . S
H456 C457 0.951 . S
C457 H456 0.951 . S
C457 C463 1.265 1_455 S
H458 C463 0.950 . S
H459 C467 0.949 . S
H460 C468 0.950 . S
H461 C469 0.951 . S
H462 C470 0.951 . S
C463 C457 1.265 1_655 S
C463 H458 0.950 . S
C463 C464 1.478 . S
C464 C463 1.478 . S
C464 C465 1.397 . S
C464 C481 1.394 1_655 S
C465 C464 1.397 . S
C465 C466 1.438 . S
C465 C470 1.429 . S
C466 C465 1.438 . S
C466 C467 1.428 . S
C466 C479 1.394 1_655 S
C467 H459 0.949 . S
C467 C466 1.428 . S
C467 C468 1.345 . S
C468 H460 0.950 . S
C468 C467 1.345 . S
C468 C469 1.424 . S
C469 H461 0.951 . S
C469 C468 1.424 . S
C469 C470 1.347 . S
C470 H462 0.951 . S
C470 C465 1.429 . S
C470 C469 1.347 . S
H471 C472 0.951 . S
C472 H471 0.951 . S
C472 C478 1.265 1_655 S
H473 C478 0.950 . S
H474 C482 0.949 . S
H475 C483 0.950 . S
H476 C484 0.951 . S
H477 C485 0.951 . S
C478 C472 1.265 1_455 S
C478 H473 0.950 . S
C478 C479 1.478 . S
C479 C466 1.394 1_455 S
C479 C478 1.478 . S
C479 C480 1.397 . S
C480 C479 1.397 . S
C480 C481 1.438 . S
C480 C485 1.429 . S
C481 C464 1.394 1_455 S
C481 C480 1.438 . S
C481 C482 1.428 . S
C482 H474 0.949 . S
C482 C481 1.428 . S
C482 C483 1.345 . S
C483 H475 0.950 . S
C483 C482 1.345 . S
C483 C484 1.424 . S
C484 H476 0.951 . S
C484 C483 1.424 . S
C484 C485 1.347 . S
C485 H477 0.951 . S
C485 C480 1.429 . S
C485 C484 1.347 . S
H486 C487 0.951 . S
C487 H486 0.951 . S
C487 C493 1.265 . S
H488 C493 0.950 . S
H489 C497 0.949 . S
H490 C498 0.950 . S
H491 C499 0.951 . S
H492 C500 0.951 . S
C493 C487 1.265 . S
C493 H488 0.950 . S
C493 C494 1.478 . S
C494 C493 1.478 . S
C494 C495 1.397 . S
C494 C511 1.394 . S
C495 C494 1.397 . S
C495 C496 1.438 . S
C495 C500 1.429 . S
C496 C495 1.438 . S
C496 C497 1.428 . S
C496 C509 1.394 . S
C497 H489 0.949 . S
C497 C496 1.428 . S
C497 C498 1.345 . S
C498 H490 0.950 . S
C498 C497 1.345 . S
C498 C499 1.424 . S
C499 H491 0.951 . S
C499 C498 1.424 . S
C499 C500 1.347 . S
C500 H492 0.951 . S
C500 C495 1.429 . S
C500 C499 1.347 . S
H501 C502 0.951 . S
C502 H501 0.951 . S
C502 C508 1.265 . S
H503 C508 0.950 . S
H504 C512 0.949 . S
H505 C513 0.950 . S
H506 C514 0.951 . S
H507 C515 0.951 . S
C508 C502 1.265 . S
C508 H503 0.950 . S
C508 C509 1.478 . S
C509 C496 1.394 . S
C509 C508 1.478 . S
C509 C510 1.397 . S
C510 C509 1.397 . S
C510 C511 1.438 . S
C510 C515 1.429 . S
C511 C494 1.394 . S
C511 C510 1.438 . S
C511 C512 1.428 . S
C512 H504 0.949 . S
C512 C511 1.428 . S
C512 C513 1.345 . S
C513 H505 0.950 . S
C513 C512 1.345 . S
C513 C514 1.424 . S
C514 H506 0.951 . S
C514 C513 1.424 . S
C514 C515 1.347 . S
C515 H507 0.951 . S
C515 C510 1.429 . S
C515 C514 1.347 . S
H516 C517 0.951 . S
C517 H516 0.951 . S
C517 C523 1.265 . S
H518 C523 0.950 . S
H519 C527 0.949 . S
H520 C528 0.950 . S
H521 C529 0.951 . S
H522 C530 0.951 . S
C523 C517 1.265 . S
C523 H518 0.950 . S
C523 C524 1.478 . S
C524 C523 1.478 . S
C524 C525 1.397 . S
C524 C541 1.394 . S
C525 C524 1.397 . S
C525 C526 1.438 . S
C525 C530 1.429 . S
C526 C525 1.438 . S
C526 C527 1.428 . S
C526 C539 1.394 . S
C527 H519 0.949 . S
C527 C526 1.428 . S
C527 C528 1.345 . S
C528 H520 0.950 . S
C528 C527 1.345 . S
C528 C529 1.424 . S
C529 H521 0.951 . S
C529 C528 1.424 . S
C529 C530 1.347 . S
C530 H522 0.951 . S
C530 C525 1.429 . S
C530 C529 1.347 . S
H531 C532 0.951 . S
C532 H531 0.951 . S
C532 C538 1.265 . S
H533 C538 0.950 . S
H534 C542 0.949 . S
H535 C543 0.950 . S
H536 C544 0.951 . S
H537 C545 0.951 . S
C538 C532 1.265 . S
C538 H533 0.950 . S
C538 C539 1.478 . S
C539 C526 1.394 . S
C539 C538 1.478 . S
C539 C540 1.397 . S
C540 C539 1.397 . S
C540 C541 1.438 . S
C540 C545 1.429 . S
C541 C524 1.394 . S
C541 C540 1.438 . S
C541 C542 1.428 . S
C542 H534 0.949 . S
C542 C541 1.428 . S
C542 C543 1.345 . S
C543 H535 0.950 . S
C543 C542 1.345 . S
C543 C544 1.424 . S
C544 H536 0.951 . S
C544 C543 1.424 . S
C544 C545 1.347 . S
C545 H537 0.951 . S
C545 C540 1.429 . S
C545 C544 1.347 . S
H546 C547 0.951 . S
C547 H546 0.951 . S
C547 C553 1.265 . S
H548 C553 0.950 . S
H549 C557 0.949 . S
H550 C558 0.950 . S
H551 C559 0.951 . S
H552 C560 0.951 . S
C553 C547 1.265 . S
C553 H548 0.950 . S
C553 C554 1.478 . S
C554 C553 1.478 . S
C554 C555 1.397 . S
C554 C571 1.394 . S
C555 C554 1.397 . S
C555 C556 1.438 1_455 S
C555 C560 1.429 . S
C556 C555 1.438 1_655 S
C556 C557 1.428 . S
C556 C569 1.394 . S
C557 H549 0.949 . S
C557 C556 1.428 . S
C557 C558 1.345 . S
C558 H550 0.950 . S
C558 C557 1.345 . S
C558 C559 1.424 1_655 S
C559 H551 0.951 . S
C559 C558 1.424 1_455 S
C559 C560 1.347 . S
C560 H552 0.951 . S
C560 C555 1.429 . S
C560 C559 1.347 . S
H561 C562 0.951 . S
C562 H561 0.951 . S
C562 C568 1.265 . S
H563 C568 0.950 . S
H564 C572 0.949 . S
H565 C573 0.950 . S
H566 C574 0.951 . S
H567 C575 0.951 . S
C568 C562 1.265 . S
C568 H563 0.950 . S
C568 C569 1.478 . S
C569 C556 1.394 . S
C569 C568 1.478 . S
C569 C570 1.397 . S
C570 C569 1.397 . S
C570 C571 1.438 1_655 S
C570 C575 1.429 . S
C571 C554 1.394 . S
C571 C570 1.438 1_455 S
C571 C572 1.428 . S
C572 H564 0.949 . S
C572 C571 1.428 . S
C572 C573 1.345 . S
C573 H565 0.950 . S
C573 C572 1.345 . S
C573 C574 1.424 1_455 S
C574 H566 0.951 . S
C574 C573 1.424 1_655 S
C574 C575 1.347 . S
C575 H567 0.951 . S
C575 C570 1.429 . S
C575 C574 1.347 . S
H576 C577 0.951 1_455 S
C577 H576 0.951 1_655 S
C577 C583 1.265 . S
H578 C583 0.950 . S
H579 C587 0.949 1_455 S
H580 C588 0.950 . S
H581 C589 0.951 . S
H582 C590 0.951 . S
C583 C577 1.265 . S
C583 H578 0.950 . S
C583 C584 1.478 . S
C584 C583 1.478 . S
C584 C585 1.397 . S
C584 C601 1.394 1_655 S
C585 C584 1.397 . S
C585 C586 1.438 . S
C585 C590 1.429 . S
C586 C585 1.438 . S
C586 C587 1.428 . S
C586 C599 1.394 1_655 S
C587 H579 0.949 1_655 S
C587 C586 1.428 . S
C587 C588 1.345 . S
C588 H580 0.950 . S
C588 C587 1.345 . S
C588 C589 1.424 . S
C589 H581 0.951 . S
C589 C588 1.424 . S
C589 C590 1.347 . S
C590 H582 0.951 . S
C590 C585 1.429 . S
C590 C589 1.347 . S
H591 C592 0.951 1_655 S
C592 H591 0.951 1_455 S
C592 C598 1.265 . S
H593 C598 0.950 . S
H594 C602 0.949 1_655 S
H595 C603 0.950 . S
H596 C604 0.951 . S
H597 C605 0.951 . S
C598 C592 1.265 . S
C598 H593 0.950 . S
C598 C599 1.478 . S
C599 C586 1.394 1_455 S
C599 C598 1.478 . S
C599 C600 1.397 . S
C600 C599 1.397 . S
C600 C601 1.438 . S
C600 C605 1.429 . S
C601 C584 1.394 1_455 S
C601 C600 1.438 . S
C601 C602 1.428 . S
C602 H594 0.949 1_455 S
C602 C601 1.428 . S
C602 C603 1.345 . S
C603 H595 0.950 . S
C603 C602 1.345 . S
C603 C604 1.424 . S
C604 H596 0.951 . S
C604 C603 1.424 . S
C604 C605 1.347 . S
C605 H597 0.951 . S
C605 C600 1.429 . S
C605 C604 1.347 . S
H606 C607 0.951 . S
C607 H606 0.951 . S
C607 C613 1.265 . S
H608 C613 0.950 . S
H609 C617 0.949 . S
H610 C618 0.950 . S
H611 C619 0.951 . S
H612 C620 0.951 . S
C613 C607 1.265 . S
C613 H608 0.950 . S
C613 C614 1.478 . S
C614 C613 1.478 . S
C614 C615 1.397 . S
C614 C631 1.394 . S
C615 C614 1.397 . S
C615 C616 1.438 1_655 S
C615 C620 1.429 . S
C616 C615 1.438 1_455 S
C616 C617 1.428 . S
C616 C629 1.394 . S
C617 H609 0.949 . S
C617 C616 1.428 . S
C617 C618 1.345 . S
C618 H610 0.950 . S
C618 C617 1.345 . S
C618 C619 1.424 1_455 S
C619 H611 0.951 . S
C619 C618 1.424 1_655 S
C619 C620 1.347 . S
C620 H612 0.951 . S
C620 C615 1.429 . S
C620 C619 1.347 . S
H621 C622 0.951 . S
C622 H621 0.951 . S
C622 C628 1.265 . S
H623 C628 0.950 . S
H624 C632 0.949 . S
H625 C633 0.950 . S
H626 C634 0.951 . S
H627 C635 0.951 . S
C628 C622 1.265 . S
C628 H623 0.950 . S
C628 C629 1.478 . S
C629 C616 1.394 . S
C629 C628 1.478 . S
C629 C630 1.397 . S
C630 C629 1.397 . S
C630 C631 1.438 1_455 S
C630 C635 1.429 . S
C631 C614 1.394 . S
C631 C630 1.438 1_655 S
C631 C632 1.428 . S
C632 H624 0.949 . S
C632 C631 1.428 . S
C632 C633 1.345 . S
C633 H625 0.950 . S
C633 C632 1.345 . S
C633 C634 1.424 1_655 S
C634 H626 0.951 . S
C634 C633 1.424 1_455 S
C634 C635 1.347 . S
C635 H627 0.951 . S
C635 C630 1.429 . S
C635 C634 1.347 . S
H636 C637 0.951 . S
C637 H636 0.951 . S
C637 C643 1.265 . S
H638 C643 0.950 . S
H639 C647 0.949 . S
H640 C648 0.950 . S
H641 C649 0.951 . S
H642 C650 0.951 . S
C643 C637 1.265 . S
C643 H638 0.950 . S
C643 C644 1.478 . S
C644 C643 1.478 . S
C644 C645 1.397 . S
C644 C661 1.394 . S
C645 C644 1.397 . S
C645 C646 1.438 . S
C645 C650 1.429 . S
C646 C645 1.438 . S
C646 C647 1.428 . S
C646 C659 1.394 . S
C647 H639 0.949 . S
C647 C646 1.428 . S
C647 C648 1.345 . S
C648 H640 0.950 . S
C648 C647 1.345 . S
C648 C649 1.424 . S
C649 H641 0.951 . S
C649 C648 1.424 . S
C649 C650 1.347 . S
C650 H642 0.951 . S
C650 C645 1.429 . S
C650 C649 1.347 . S
H651 C652 0.951 . S
C652 H651 0.951 . S
C652 C658 1.265 . S
H653 C658 0.950 . S
H654 C662 0.949 . S
H655 C663 0.950 . S
H656 C664 0.951 . S
H657 C665 0.951 . S
C658 C652 1.265 . S
C658 H653 0.950 . S
C658 C659 1.478 . S
C659 C646 1.394 . S
C659 C658 1.478 . S
C659 C660 1.397 . S
C660 C659 1.397 . S
C660 C661 1.438 . S
C660 C665 1.429 . S
C661 C644 1.394 . S
C661 C660 1.438 . S
C661 C662 1.428 . S
C662 H654 0.949 . S
C662 C661 1.428 . S
C662 C663 1.345 . S
C663 H655 0.950 . S
C663 C662 1.345 . S
C663 C664 1.424 . S
C664 H656 0.951 . S
C664 C663 1.424 . S
C664 C665 1.347 . S
C665 H657 0.951 . S
C665 C660 1.429 . S
C665 C664 1.347 . S
H666 C667 0.951 . S
C667 H666 0.951 . S
C667 C673 1.265 . S
H668 C673 0.950 . S
H669 C677 0.949 . S
H670 C678 0.950 . S
H671 C679 0.951 . S
H672 C680 0.951 . S
C673 C667 1.265 . S
C673 H668 0.950 . S
C673 C674 1.478 . S
C674 C673 1.478 . S
C674 C675 1.397 . S
C674 C691 1.394 . S
C675 C674 1.397 . S
C675 C676 1.438 . S
C675 C680 1.429 . S
C676 C675 1.438 . S
C676 C677 1.428 . S
C676 C689 1.394 . S
C677 H669 0.949 . S
C677 C676 1.428 . S
C677 C678 1.345 . S
C678 H670 0.950 . S
C678 C677 1.345 . S
C678 C679 1.424 . S
C679 H671 0.951 . S
C679 C678 1.424 . S
C679 C680 1.347 . S
C680 H672 0.951 . S
C680 C675 1.429 . S
C680 C679 1.347 . S
H681 C682 0.951 . S
C682 H681 0.951 . S
C682 C688 1.265 . S
H683 C688 0.950 . S
H684 C692 0.949 . S
H685 C693 0.950 . S
H686 C694 0.951 . S
H687 C695 0.951 . S
C688 C682 1.265 . S
C688 H683 0.950 . S
C688 C689 1.478 . S
C689 C676 1.394 . S
C689 C688 1.478 . S
C689 C690 1.397 . S
C690 C689 1.397 . S
C690 C691 1.438 . S
C690 C695 1.429 . S
C691 C674 1.394 . S
C691 C690 1.438 . S
C691 C692 1.428 . S
C692 H684 0.949 . S
C692 C691 1.428 . S
C692 C693 1.345 . S
C693 H685 0.950 . S
C693 C692 1.345 . S
C693 C694 1.424 . S
C694 H686 0.951 . S
C694 C693 1.424 . S
C694 C695 1.347 . S
C695 H687 0.951 . S
C695 C690 1.429 . S
C695 C694 1.347 . S
C217 C13 2.095 . S
C232 C76 2.101 . S
C247 C113 2.171 . S
C262 C67 2.167 . S
C277 C140 2.140 . S
C292 C167 2.144 . S
C307 C22 2.102 . S
C322 C194 2.097 . S
C337 C175 2.093 . S
C352 C5 2.098 . S
C367 C86 2.094 . S
C382 C130 2.099 . S
C397 C121 2.140 . S
C412 C184 2.144 . S
C427 C32 2.143 . S
C442 C59 2.148 . S
C457 C28 0.322 . S
C472 C35 0.322 . S
C487 C82 0.338 . S
C502 C89 0.340 . S
C517 C136 0.341 . S
C532 C143 0.334 . S
C547 C197 0.339 . S
C562 C190 0.339 . S
C577 C81 1.842 1_645 S
C592 C64 1.842 1_455 S
C607 C135 1.841 . S
C622 C118 1.841 . S
C637 C189 1.902 . S
C652 C172 1.902 1_565 S
C667 C10 1.902 . S
C682 C27 1.902 . S
