# Generated by pormake.
# Topology snz, (6)-cn, num edge types: 1
# Building blocks:
#     Node 0, Type 0, BuildingBlock: FUNLAD_clean_sbu_0, # of connection points: 6
#     Node 1, Type 0, BuildingBlock: FUNLAD_clean_sbu_0, # of connection points: 6
#     Node 2, Type 0, BuildingBlock: FUNLAD_clean_sbu_0, # of connection points: 6
#     Node 3, Type 0, BuildingBlock: FUNLAD_clean_sbu_0, # of connection points: 6
#     Node 4, Type 0, BuildingBlock: FUNLAD_clean_sbu_0, # of connection points: 6
#     Node 5, Type 0, BuildingBlock: FUNLAD_clean_sbu_0, # of connection points: 6
#     Node 6, Type 0, BuildingBlock: FUNLAD_clean_sbu_0, # of connection points: 6
#     Node 7, Type 0, BuildingBlock: FUNLAD_clean_sbu_0, # of connection points: 6
#     Node 8, Type 0, BuildingBlock: FUNLAD_clean_sbu_0, # of connection points: 6
#     Edge 9, Type (0, 0), BuildingBlock: OJICUG_clean_linker_0, # of connection points: 2
#     Edge 10, Type (0, 0), BuildingBlock: OJICUG_clean_linker_0, # of connection points: 2
#     Edge 11, Type (0, 0), BuildingBlock: OJICUG_clean_linker_0, # of connection points: 2
#     Edge 12, Type (0, 0), BuildingBlock: OJICUG_clean_linker_0, # of connection points: 2
#     Edge 13, Type (0, 0), BuildingBlock: OJICUG_clean_linker_0, # of connection points: 2
#     Edge 14, Type (0, 0), BuildingBlock: OJICUG_clean_linker_0, # of connection points: 2
#     Edge 15, Type (0, 0), BuildingBlock: OJICUG_clean_linker_0, # of connection points: 2
#     Edge 16, Type (0, 0), BuildingBlock: OJICUG_clean_linker_0, # of connection points: 2
#     Edge 17, Type (0, 0), BuildingBlock: OJICUG_clean_linker_0, # of connection points: 2
#     Edge 18, Type (0, 0), BuildingBlock: OJICUG_clean_linker_0, # of connection points: 2
#     Edge 19, Type (0, 0), BuildingBlock: OJICUG_clean_linker_0, # of connection points: 2
#     Edge 20, Type (0, 0), BuildingBlock: OJICUG_clean_linker_0, # of connection points: 2
#     Edge 21, Type (0, 0), BuildingBlock: OJICUG_clean_linker_0, # of connection points: 2
#     Edge 22, Type (0, 0), BuildingBlock: OJICUG_clean_linker_0, # of connection points: 2
#     Edge 23, Type (0, 0), BuildingBlock: OJICUG_clean_linker_0, # of connection points: 2
#     Edge 24, Type (0, 0), BuildingBlock: OJICUG_clean_linker_0, # of connection points: 2
#     Edge 25, Type (0, 0), BuildingBlock: OJICUG_clean_linker_0, # of connection points: 2
#     Edge 26, Type (0, 0), BuildingBlock: OJICUG_clean_linker_0, # of connection points: 2
#     Edge 27, Type (0, 0), BuildingBlock: OJICUG_clean_linker_0, # of connection points: 2
#     Edge 28, Type (0, 0), BuildingBlock: OJICUG_clean_linker_0, # of connection points: 2
#     Edge 29, Type (0, 0), BuildingBlock: OJICUG_clean_linker_0, # of connection points: 2
#     Edge 30, Type (0, 0), BuildingBlock: OJICUG_clean_linker_0, # of connection points: 2
#     Edge 31, Type (0, 0), BuildingBlock: OJICUG_clean_linker_0, # of connection points: 2
#     Edge 32, Type (0, 0), BuildingBlock: OJICUG_clean_linker_0, # of connection points: 2
#     Edge 33, Type (0, 0), BuildingBlock: OJICUG_clean_linker_0, # of connection points: 2
#     Edge 34, Type (0, 0), BuildingBlock: OJICUG_clean_linker_0, # of connection points: 2
#     Edge 35, Type (0, 0), BuildingBlock: OJICUG_clean_linker_0, # of connection points: 2
# Relax obj value: 0.881
# Max RMSD: 0.302
# Mean RMSD: 0.273
data_MOF--net-snz--node1-FUNLAD_clean_sbu_0--edge1-OJICUG_clean_linker_0
_symmetry_space_group_name_H-M    P1
_symmetry_Int_Tables_number       1
_symmetry_cell_setting            triclinic
loop_
_symmetry_equiv_pos_as_xyz
'x, y, z'
_cell_length_a     35.495459
_cell_length_b     41.012553
_cell_length_c     12.341069
_cell_angle_alpha  89.454973
_cell_angle_beta   88.877021
_cell_angle_gamma 120.05081
loop_
_atom_site_label
_atom_site_type_symbol
_atom_site_fract_x
_atom_site_fract_y
_atom_site_fract_z
_atom_type_partial_charge
C0 C -0.00391 0.52821 1.00957 0.0
N1 N 0.11869 0.53758 0.97577 0.0
C2 C 0.12535 0.5707 0.93186 0.0
C3 C 0.10795 0.57009 0.83105 0.0
C4 C 0.08747 0.53578 0.77702 0.0
C5 C 0.0961 0.5072 0.80874 0.0
C6 C 0.11397 0.50956 0.90981 0.0
Zn7 Zn 0.06782 0.51734 1.08855 0.0
C8 C 0.07868 0.57418 0.24463 0.0
N9 N 0.96007 0.47611 0.3072 0.0
C10 C 0.94702 0.50141 0.33038 0.0
C11 C 0.95084 0.447 0.3764 0.0
C12 C 0.93876 0.44863 0.48318 0.0
C13 C 0.94022 0.48204 0.51605 0.0
C14 C 0.93483 0.50387 0.43651 0.0
Zn15 Zn 0.01012 0.49274 0.19918 0.0
O16 O 0.03634 0.54039 0.99204 0.0
C17 C -0.00654 0.43975 1.0346 0.0
O18 O -0.02232 0.50882 0.09446 0.0
H19 H 0.95981 0.42625 0.35464 0.0
H20 H 0.13304 0.59423 0.98361 0.0
H21 H 0.9534 0.52379 0.27298 0.0
O22 O 0.03062 0.46613 1.00178 0.0
O23 O -0.02146 0.44149 0.12703 0.0
H24 H 0.11258 0.48461 0.94434 0.0
O25 O 0.04303 0.47255 0.30274 0.0
O26 O 0.09565 0.49099 0.17942 0.0
O27 O 0.0408 0.54728 0.26963 0.0
O28 O 0.10166 0.56877 0.17489 0.0
C29 C 0.07717 0.47289 0.26699 0.0
H30 H 0.10345 0.59335 0.80683 0.0
H31 H 0.08253 0.48094 0.76573 0.0
H32 H 0.93949 0.42907 0.54156 0.0
H33 H 0.93286 0.52849 0.45865 0.0
C34 C 0.39294 0.47127 0.17794 0.0
N35 N 0.51958 0.49651 0.24439 0.0
C36 C 0.5504 0.52329 0.30675 0.0
C37 C 0.56181 0.51244 0.40222 0.0
C38 C 0.53759 0.47417 0.43522 0.0
C39 C 0.519 0.44783 0.35331 0.0
C40 C 0.50684 0.45937 0.26052 0.0
Zn41 Zn 0.48947 0.51107 0.13187 0.0
C42 C 0.46285 0.45542 0.95244 0.0
N43 N 0.42133 0.53325 0.88638 0.0
C44 C 0.45104 0.56008 0.81713 0.0
C45 C 0.3891 0.50045 0.84674 0.0
C46 C 0.39808 0.48688 0.75252 0.0
C47 C 0.43868 0.50959 0.70006 0.0
C48 C 0.46187 0.54825 0.72232 0.0
Zn49 Zn 0.45377 0.52148 1.00341 0.0
O50 O 0.42871 0.47629 0.21383 0.0
C51 C 0.48457 0.58082 0.17309 0.0
O52 O 0.3932 0.48821 1.09091 0.0
H53 H 0.36255 0.48082 0.89969 0.0
H54 H 0.56267 0.55282 0.28856 0.0
H55 H 0.47371 0.58767 0.84697 0.0
O56 O 0.49737 0.56023 0.21972 0.0
O57 O 0.46547 0.57058 1.08351 0.0
H58 H 0.48344 0.43801 0.20906 0.0
O59 O 0.51693 0.55278 0.91673 0.0
O60 O 0.54837 0.54288 1.05425 0.0
O61 O 0.44376 0.47252 0.91912 0.0
O62 O 0.48319 0.46558 1.03985 0.0
C63 C 0.5508 0.55542 0.95901 0.0
H64 H 0.58104 0.53426 0.45877 0.0
H65 H 0.5033 0.41793 0.37241 0.0
H66 H 0.37777 0.45739 0.73408 0.0
H67 H 0.49187 0.56733 0.67841 0.0
C68 C 0.54333 0.02927 0.90962 0.0
N69 N 0.43006 0.92883 0.82434 0.0
C70 C 0.39153 0.92105 0.78121 0.0
C71 C 0.38644 0.91522 0.67052 0.0
C72 C 0.42457 0.92447 0.61021 0.0
C73 C 0.45286 0.91443 0.65909 0.0
C74 C 0.45775 0.92035 0.77031 0.0
Zn75 Zn 0.45195 0.96578 0.94414 0.0
C76 C 0.49112 0.93932 0.1123 0.0
N77 N 0.49532 0.04164 0.20005 0.0
C78 C 0.47224 0.05848 0.23197 0.0
C79 C 0.53278 0.04971 0.24974 0.0
C80 C 0.54157 0.06752 0.34919 0.0
C81 C 0.50698 0.06942 0.40061 0.0
C82 C 0.48124 0.07678 0.33094 0.0
Zn83 Zn 0.47377 0.00361 1.08156 0.0
O84 O 0.51509 0.0 0.86181 0.0
C85 C 0.43551 0.03015 0.91036 0.0
O86 O 0.53426 0.0361 1.00329 0.0
H87 H 0.55336 0.03938 0.21792 0.0
H88 H 0.36832 0.92552 0.82717 0.0
H89 H 0.44417 0.05431 0.18812 0.0
O90 O 0.42875 6e-05 0.86463 0.0
O91 O 0.45312 0.03762 1.00181 0.0
H92 H 0.48715 0.92463 0.80766 0.0
O93 O 0.41139 0.97036 0.16351 0.0
O94 O 0.39068 0.9329 1.02483 0.0
O95 O 0.49531 0.96806 0.16209 0.0
O96 O 0.47476 0.93257 1.01916 0.0
C97 C 0.38235 0.94106 0.11764 0.0
H98 H 0.35921 0.91566 0.63402 0.0
H99 H 0.47948 0.91525 0.61228 0.0
H100 H 0.56808 0.06896 0.39485 0.0
H101 H 0.4584 0.08463 0.36353 0.0
C102 C 0.53523 0.83218 0.29858 0.0
N103 N 0.65018 0.82582 0.25177 0.0
C104 C 0.66167 0.85633 0.18632 0.0
C105 C 0.67797 0.85724 1.08222 0.0
C106 C 0.67767 0.82457 1.04651 0.0
C107 C 0.68096 0.80149 0.12585 0.0
C108 C 0.66405 0.80103 0.22899 0.0
Zn109 Zn 0.60091 0.81005 0.36173 0.0
C110 C 0.62154 0.86574 0.52607 0.0
N111 N 0.49524 0.77026 0.5953 0.0
C112 C 0.50199 0.79915 0.66004 0.0
C113 C 0.48805 0.73722 0.64095 0.0
C114 C 0.50768 0.73852 0.73873 0.0
C115 C 0.53066 0.77354 0.78862 0.0
C116 C 0.52223 0.80235 0.75802 0.0
Zn117 Zn 0.54577 0.7889 0.48143 0.0
O118 O 0.56938 0.83254 0.26285 0.0
C119 C 0.53082 0.72931 0.3252 0.0
O120 O 0.51668 0.81385 0.38596 0.0
H121 H 0.47773 0.71272 0.59151 0.0
H122 H 0.65246 0.8769 0.20843 0.0
H123 H 0.50296 0.82389 0.62522 0.0
O124 O 0.56688 0.75601 0.28774 0.0
O125 O 0.51194 0.73554 0.40411 0.0
H126 H 0.65609 0.77759 0.28368 0.0
O127 O 0.57831 0.76787 0.58085 0.0
O128 O 0.63262 0.79163 0.46262 0.0
O129 O 0.58356 0.84157 0.56079 0.0
O130 O 0.63554 0.86102 0.43588 0.0
C131 C 0.61682 0.77623 0.55415 0.0
H132 H 0.67966 0.87826 1.02545 0.0
H133 H 0.68458 0.77776 0.10259 0.0
H134 H 0.5115 0.71489 0.76269 0.0
H135 H 0.53719 0.82905 0.79888 0.0
C136 C 0.07039 0.75896 0.5939 0.0
N137 N 0.19917 0.78148 0.64442 0.0
C138 C 0.17506 0.74601 0.6875 0.0
C139 C 0.15013 0.741 0.78129 0.0
C140 C 0.15454 0.77337 0.83062 0.0
C141 C 0.19173 0.80833 0.80518 0.0
C142 C 0.21562 0.81133 0.71113 0.0
Zn143 Zn 0.16329 0.78876 0.52627 0.0
C144 C 0.12863 0.72546 0.37654 0.0
N145 N 0.08738 0.802 0.29029 0.0
C146 C 0.04607 0.77256 0.28032 0.0
C147 C 0.10354 0.83238 0.22187 0.0
C148 C 0.0818 0.83005 0.1271 0.0
C149 C 0.04604 0.79479 0.10106 0.0
C150 C 0.02304 0.76985 0.18762 0.0
Zn151 Zn 0.12585 0.79799 0.40164 0.0
O152 O 0.10275 0.75603 0.62296 0.0
C153 C 0.15574 0.85845 0.55568 0.0
O154 O 0.07246 0.77461 0.50411 0.0
H155 H 0.13526 0.8566 0.23485 0.0
H156 H 0.1665 0.72186 0.63774 0.0
H157 H 0.03268 0.74909 0.33758 0.0
O158 O 0.16921 0.83827 0.60027 0.0
O159 O 0.1392 0.84982 0.46287 0.0
H160 H 0.239 0.8391 0.67939 0.0
O161 O 0.18331 0.8257 0.29778 0.0
O162 O 0.22099 0.82264 0.43275 0.0
O163 O 0.1099 0.74292 0.34157 0.0
O164 O 0.15578 0.73984 0.45125 0.0
C165 C 0.22001 0.83453 0.33781 0.0
H166 H 0.12326 0.71316 0.80204 0.0
H167 H 0.19803 0.83364 0.84685 0.0
H168 H 0.09868 0.85223 1.06633 0.0
H169 H -0.00674 0.74364 0.17375 0.0
C170 C 0.23296 0.36564 0.40712 0.0
N171 N 0.11865 0.26528 0.34229 0.0
C172 C 0.14549 0.25468 0.29385 0.0
C173 C 0.14231 0.24815 0.18331 0.0
C174 C 0.11622 0.25895 0.1272 0.0
C175 C 0.07845 0.25359 0.18234 0.0
C176 C 0.08182 0.25958 0.2937 0.0
Zn177 Zn 0.14364 0.30278 0.461 0.0
C178 C 0.18812 0.27832 0.61818 0.0
N179 N 0.19672 0.38009 0.71053 0.0
C180 C 0.23882 0.39205 0.73637 0.0
C181 C 0.17241 0.39118 0.76896 0.0
C182 C 0.18663 0.40655 0.8703 0.0
C183 C 0.22023 0.40207 0.91321 0.0
C184 C 0.25297 0.40678 0.83867 0.0
Zn185 Zn 0.16904 0.34168 0.59543 0.0
O186 O 0.20315 0.33574 0.36593 0.0
C187 C 0.12395 0.36645 0.44276 0.0
O188 O 0.22674 0.37416 0.50145 0.0
H189 H 0.1403 0.38421 0.74336 0.0
H190 H 0.17359 0.25759 0.33494 0.0
H191 H 0.25909 0.38531 0.68581 0.0
O192 O 0.11904 0.33771 0.39172 0.0
O193 O 0.14328 0.37412 0.53199 0.0
H194 H 0.05957 0.2663 0.33543 0.0
O195 O 0.10869 0.30752 0.69053 0.0
O196 O 0.0862 0.2706 0.55039 0.0
O197 O 0.19545 0.3086 0.66364 0.0
O198 O 0.16742 0.26939 0.53081 0.0
C199 C 0.07947 0.27781 0.64595 0.0
H200 H 0.1688 0.24689 0.14225 0.0
H201 H 0.05438 0.25724 0.13968 0.0
H202 H 0.16401 0.40985 0.92284 0.0
H203 H 0.28302 0.40925 0.86668 0.0
C204 C 0.31231 0.15388 1.01181 0.0
N205 N 0.39264 0.24019 0.77061 0.0
C206 C 0.38307 0.25639 0.85459 0.0
C207 C 0.40463 0.29501 0.86511 0.0
C208 C 0.43576 0.31798 0.787 0.0
C209 C 0.44619 0.30143 0.70102 0.0
C210 C 0.42394 0.26184 0.69439 0.0
Zn211 Zn 0.34642 0.18401 0.76072 0.0
C212 C 0.37145 0.12786 0.77035 0.0
N213 N 0.23794 0.07417 0.75407 0.0
C214 C 0.2033 0.05302 0.82282 0.0
C215 C 0.24853 0.05793 0.67223 0.0
C216 C 0.22437 0.01973 0.65565 0.0
C217 C 0.18922 -0.00282 0.7252 0.0
C218 C 0.1782 0.01377 0.80996 0.0
Zn219 Zn 0.28456 0.12977 0.76542 0.0
O220 O 0.34288 0.17986 0.95211 0.0
C221 C 0.25928 0.18551 0.75537 0.0
O222 O 0.28123 0.12746 0.95846 0.0
H223 H 0.27737 0.07412 0.622 0.0
H224 H 0.35615 0.23987 0.90999 0.0
H225 H 0.19608 0.06625 0.88918 0.0
O226 O 0.30057 0.2035 0.75665 0.0
O227 O 0.23927 0.14964 0.76001 0.0
H228 H 0.43004 0.24869 0.62595 0.0
O229 O 0.28809 0.13367 0.57408 0.0
O230 O 0.34953 0.18622 0.56761 0.0
O231 O 0.33018 0.11021 0.76986 0.0
O232 O 0.39186 0.16378 0.76577 0.0
C233 C 0.31854 0.15971 0.51431 0.0
H234 H 0.39528 0.30701 0.93113 0.0
H235 H 0.46992 0.31875 0.6386 0.0
H236 H 0.2342 0.00759 0.59102 0.0
H237 H 0.15133 -0.00332 0.86586 0.0
C238 C 0.81331 0.15712 0.5274 0.0
N239 N 0.79083 0.07095 0.76513 0.0
C240 C 0.7617 0.05638 0.68431 0.0
C241 C 0.73697 0.01816 0.67136 0.0
C242 C 0.74135 -0.00612 0.74253 0.0
C243 C 0.7722 0.00864 0.82424 0.0
C244 C 0.79683 0.04803 0.83481 0.0
Zn245 Zn 0.81155 0.12696 0.7777 0.0
C246 C 0.90031 0.18051 0.77011 0.0
N247 N 0.83172 0.2362 0.78609 0.0
C248 C 0.82406 0.25842 0.71763 0.0
C249 C 0.86159 0.25144 0.86501 0.0
C250 C 0.88566 0.28976 0.87673 0.0
C251 C 0.87947 0.31337 0.80689 0.0
C252 C 0.84771 0.29784 0.72752 0.0
Zn253 Zn 0.81148 0.18041 0.77467 0.0
O254 O 0.8146 0.13155 0.58559 0.0
C255 C 0.72277 0.12691 0.78329 0.0
O256 O 0.81203 0.18318 0.58236 0.0
H257 H 0.86924 0.2342 0.91586 0.0
H258 H 0.75475 0.07402 0.63335 0.0
H259 H 0.80092 0.24581 0.6538 0.0
O260 O 0.74365 0.10932 0.78296 0.0
O261 O 0.74387 0.16275 0.78091 0.0
H262 H 0.81916 0.06004 0.9005 0.0
O263 O 0.80913 0.17624 0.96664 0.0
O264 O 0.81054 0.12406 0.97004 0.0
O265 O 0.87936 0.19804 0.76881 0.0
O266 O 0.87925 0.14465 0.77303 0.0
C267 C 0.80987 0.15041 1.02489 0.0
H268 H 0.71343 0.00752 0.60747 0.0
H269 H 0.77623 -0.00984 0.88006 0.0
H270 H 0.9097 0.30101 0.93938 0.0
H271 H 0.84209 0.31577 0.67324 0.0
C272 C 0.80985 0.65838 1.02824 0.0
N273 N 0.82922 0.59022 0.78976 0.0
C274 C 0.85751 0.59801 0.87153 0.0
C275 C 0.88375 0.5822 0.87522 0.0
C276 C 0.88174 0.55823 0.79362 0.0
C277 C 0.85111 0.54862 0.71212 0.0
C278 C 0.82504 0.56555 0.71107 0.0
Zn279 Zn 0.81038 0.62977 0.77982 0.0
C280 C 0.7227 0.60943 0.78711 0.0
N281 N 0.79306 0.72374 0.76887 0.0
C282 C 0.79499 0.74691 0.84995 0.0
C283 C 0.76627 0.71687 0.68406 0.0
C284 C 0.73951 0.73215 0.67923 0.0
C285 C 0.73908 0.75436 0.76319 0.0
C286 C 0.768 0.76297 0.84837 0.0
Zn287 Zn 0.81234 0.68428 0.77944 0.0
O288 O 0.80813 0.63149 0.97184 0.0
C289 C 0.90011 0.70461 0.77279 0.0
O290 O 0.8115 0.68566 0.97153 0.0
H291 H 0.76164 0.69637 0.62455 0.0
H292 H 0.86335 0.61935 0.92934 0.0
H293 H 0.81516 0.75102 0.91882 0.0
O294 O 0.87806 0.66896 0.77376 0.0
O295 O 0.88024 0.72327 0.77464 0.0
H296 H 0.80352 0.56064 0.64466 0.0
O297 O 0.81532 0.68267 0.58731 0.0
O298 O 0.81074 0.62805 0.5878 0.0
O299 O 0.74463 0.64509 0.78433 0.0
O300 O 0.74262 0.59084 0.7863 0.0
C301 C 0.81304 0.65556 0.53099 0.0
H302 H 0.90681 0.58984 0.9398 0.0
H303 H 0.84863 0.52964 0.64867 0.0
H304 H 0.71751 0.72505 0.6124 0.0
H305 H 0.7684 0.78042 0.91417 0.0
C306 C 0.0469 0.54868 0.63491 0.0
C307 C 0.04759 0.52555 0.71769 0.0
H308 H 0.01085 0.55384 0.50731 0.0
C309 C 0.00853 0.49319 0.75096 0.0
H310 H 0.07623 0.57452 0.61051 0.0
C311 C 0.9704 0.48186 0.69558 0.0
C312 C 0.97095 0.50217 0.60329 0.0
H313 H 0.00767 0.47606 0.81857 0.0
H314 H 0.94169 0.45534 0.71858 0.0
C315 C 0.00888 0.5371 0.57787 0.0
C316 C 0.5054 0.50442 0.67735 0.0
C317 C 0.46195 0.49196 0.65032 0.0
H318 H 0.56404 0.50436 0.63645 0.0
C319 C 0.44096 0.46148 0.5816 0.0
H320 H 0.52175 0.52612 0.73594 0.0
C321 C 0.46504 0.44828 0.52659 0.0
C322 C 0.51086 0.46678 0.5362 0.0
H323 H 0.40679 0.4496 0.56473 0.0
H324 H 0.44847 0.4276 0.4651 0.0
C325 C 0.52941 0.49107 0.62287 0.0
C326 C 0.42044 0.97435 0.50143 0.0
C327 C 0.44554 0.96293 0.55932 0.0
H328 H 0.41775 0.0178 0.41577 0.0
C329 C 0.48811 -0.00919 0.5873 0.0
H330 H 0.38689 0.95463 0.48392 0.0
C331 C 0.50581 0.02797 0.5514 0.0
C332 C 0.48249 0.03813 0.48176 0.0
H333 H 0.50835 0.98441 0.63731 0.0
H334 H 0.53926 0.04794 0.57006 0.0
C335 C 0.43822 0.01142 0.465 0.0
C336 C 0.57307 0.7586 0.91961 0.0
C337 C 0.57125 0.78332 0.8442 0.0
H338 H 0.60984 0.75112 1.04028 0.0
C339 C 0.60984 0.81663 0.81401 0.0
H340 H 0.54437 0.73184 0.93991 0.0
C341 C 0.64828 0.82736 0.86756 0.0
C342 C 0.64835 0.80555 0.95549 0.0
H343 H 0.61007 0.83496 0.75067 0.0
H344 H 0.67651 0.85458 0.84785 0.0
C345 C 0.61129 0.76949 0.9748 0.0
C346 C 0.10524 0.79981 0.85321 0.0
C347 C 0.11623 0.77237 0.88219 0.0
H348 H 0.06802 0.82594 0.89445 0.0
C349 C 0.08909 0.74346 0.95532 0.0
H350 H 0.12342 0.82075 0.79031 0.0
C351 C 0.05638 0.74579 1.01242 0.0
C352 C 0.05213 0.77816 1.00052 0.0
H353 H 0.09521 0.72074 0.97466 0.0
H354 H 0.03962 0.72521 1.07721 0.0
C355 C 0.0724 0.80202 0.91004 0.0
C356 C 0.20344 0.33561 0.94925 0.0
C357 C 0.20256 0.36799 0.98502 0.0
H358 H 0.17441 0.27564 0.95946 0.0
C359 C 0.17369 0.3638 1.06975 0.0
H360 H 0.22543 0.33712 0.88498 0.0
C361 C 0.14367 0.32815 0.11011 0.0
C362 C 0.14236 0.29556 1.06877 0.0
H363 H 0.17259 0.38803 0.09973 0.0
H364 H 0.12189 0.32647 0.17504 0.0
C365 C 0.17332 0.2999 0.98958 0.0
C366 C 0.28263 0.12855 0.32829 0.0
C367 C 0.31718 0.15844 0.38525 0.0
H368 H 0.25337 0.10314 0.17553 0.0
C369 C 0.34992 0.18662 0.31497 0.0
H370 H 0.25623 0.10579 0.37482 0.0
C371 C 0.3482 0.18502 0.19786 0.0
C372 C 0.31365 0.15513 0.14089 0.0
H373 H 0.37745 0.21044 0.35062 0.0
H374 H 0.3746 0.20779 0.15133 0.0
C375 C 0.28091 0.12695 0.21117 0.0
C376 C 0.81137 0.18343 0.33033 0.0
C377 C 0.81264 0.15568 0.39833 0.0
H378 H 0.80958 0.20406 0.16849 0.0
C379 C 0.81278 0.12595 0.3391 0.0
H380 H 0.81111 0.20706 0.36784 0.0
C381 C 0.81179 0.12411 0.22197 0.0
C382 C 0.81054 0.15186 0.15397 0.0
H383 H 0.81361 0.10349 0.38381 0.0
H384 H 0.81204 0.10047 0.18446 0.0
C385 C 0.81041 0.1816 0.2132 0.0
C386 C 0.81374 0.68642 0.33995 0.0
C387 C 0.81244 0.65623 0.40187 0.0
H388 H 0.81396 0.71129 0.18301 0.0
C389 C 0.81011 0.62679 0.33649 0.0
H390 H 0.81543 0.71005 0.38256 0.0
C391 C 0.80922 0.62753 0.21925 0.0
C392 C 0.81048 0.65771 0.15735 0.0
H393 H 0.80895 0.60264 0.3762 0.0
H394 H 0.80753 0.60391 0.17664 0.0
C395 C 0.81281 0.68715 0.22272 0.0
C396 C 0.11149 0.3991 0.28597 0.0
C397 C 0.10993 0.39239 0.39803 0.0
H398 H 0.10419 0.43092 0.15765 0.0
C399 C 0.09797 0.41291 0.46789 0.0
H400 H 0.12055 0.38386 0.23035 0.0
C401 C 0.08736 0.43924 0.42629 0.0
C402 C 0.09033 0.44675 0.31424 0.0
H403 H 0.0965 0.40838 0.55487 0.0
H404 H 0.07739 0.45404 0.48165 0.0
C405 C 0.10257 0.4264 0.24468 0.0
C406 C 0.50592 0.64816 0.14043 0.0
C407 C 0.49479 0.61819 0.21474 0.0
H408 H 0.52634 0.70672 0.11764 0.0
C409 C 0.49328 0.62465 0.32593 0.0
H410 H 0.50757 0.64416 1.05415 0.0
C411 C 0.5025 0.66035 0.3616 0.0
C412 C 0.51476 0.69046 0.28696 0.0
H413 H 0.4847 0.60212 0.38494 0.0
H414 H 0.50173 0.66482 0.44781 0.0
C415 C 0.51653 0.68396 0.17629 0.0
C416 C 0.30178 0.89599 0.11579 0.0
C417 C 0.34044 0.91488 0.17374 0.0
H418 H 0.23315 0.85602 0.1221 0.0
C419 C 0.3394 0.90635 0.28432 0.0
H420 H 0.30186 0.90173 1.02987 0.0
C421 C 0.3005 0.87968 0.33657 0.0
C422 C 0.2615 0.86112 0.27946 0.0
H423 H 0.36906 0.91943 0.3294 0.0
H424 H 0.30098 0.87389 0.4222 0.0
C425 C 0.26254 0.86972 0.16842 0.0
C426 C 0.38911 0.04404 0.78724 0.0
C427 C 0.42308 0.05654 0.86067 0.0
H428 H 0.34617 0.05704 0.70106 0.0
C429 C 0.44371 0.09448 0.89231 0.0
H430 H 0.37266 0.01512 0.76098 0.0
C431 C 0.42939 0.11884 0.85566 0.0
C432 C 0.39346 0.10558 0.78838 0.0
H433 H 0.47031 0.10514 0.94807 0.0
H434 H 0.44465 0.14728 0.88554 0.0
C435 C 0.37409 0.06814 0.75272 0.0
C436 C 0.95128 0.3708 0.80623 0.0
C437 C 0.90611 0.35368 0.82638 0.0
H438 H 0.01496 0.4112 0.85933 0.0
C439 C 0.89024 0.36857 0.90451 0.0
H440 H 0.96408 0.35908 0.74753 0.0
C441 C 0.91905 0.39697 0.97105 0.0
C442 C 0.96415 0.4113 0.95909 0.0
H443 H 0.85559 0.35531 0.92254 0.0
H444 H 0.90584 0.40669 1.03473 0.0
C445 C -0.01975 0.39965 0.87216 0.0
C446 C 0.65364 0.61197 0.78809 0.0
C447 C 0.67517 0.59142 0.80731 0.0
H448 H 0.59655 0.61646 0.82009 0.0
C449 C 0.65264 0.55665 0.86271 0.0
H450 H 0.67022 0.63886 0.74481 0.0
C451 C 0.61112 0.54446 0.90701 0.0
C452 C 0.59107 0.56643 0.89532 0.0
H453 H 0.66822 0.54023 0.87881 0.0
H454 H 0.59532 0.51842 0.95462 0.0
C455 C 0.61162 0.59935 0.83104 0.0
C456 C 0.89643 0.50955 0.85986 0.0
C457 C 0.91163 0.54348 0.80199 0.0
H458 H 0.91173 0.47871 0.97358 0.0
C459 C 0.9567 0.56932 0.79508 0.0
H460 H 0.86184 0.48949 0.86708 0.0
C461 C -0.01461 0.5636 0.85773 0.0
C462 C 0.96894 0.53217 0.92806 0.0
H463 H 0.96891 0.59595 0.75158 0.0
H464 H 0.01949 0.58508 0.85788 0.0
C465 C 0.92485 0.50405 0.92323 0.0
C466 C 0.43233 0.40666 0.8085 0.0
C467 C 0.46202 0.42424 0.89136 0.0
H468 H 0.40218 0.35902 0.7051 0.0
C469 C 0.48999 0.41063 0.91933 0.0
H470 H 0.4104 0.41648 0.78522 0.0
C471 C 0.4856 0.37808 0.87257 0.0
C472 C 0.45342 0.35876 0.79659 0.0
H473 H 0.51373 0.42392 0.98173 0.0
H474 H 0.50464 0.36615 0.9029 0.0
C475 C 0.42808 0.37414 0.76139 0.0
C476 C 0.65213 0.11801 0.85884 0.0
C477 C 0.67472 0.10461 0.79654 0.0
H478 H 0.59273 0.1043 0.94412 0.0
C479 C 0.652 0.06721 0.76025 0.0
H480 H 0.66877 0.14651 0.88848 0.0
C481 C 0.60821 0.04309 0.79066 0.0
C482 C 0.58671 0.05569 0.86024 0.0
H483 H 0.66865 0.05612 0.7118 0.0
H484 H 0.59209 0.01408 0.76523 0.0
C485 C 0.60871 0.09368 0.89131 0.0
C486 C 0.51924 0.89423 0.09456 0.0
C487 C 0.50346 0.91275 0.16119 0.0
H488 H 0.54214 0.85467 1.08534 0.0
C489 C 0.49678 0.90348 0.27244 0.0
H490 H 0.52455 0.90064 1.00833 0.0
C491 C 0.50517 0.87598 0.31567 0.0
C492 C 0.52163 0.85789 0.24928 0.0
H493 H 0.4842 0.91689 0.32563 0.0
H494 H 0.49992 0.86964 0.40193 0.0
C495 C 0.529 0.86767 0.13836 0.0
C496 C 0.14804 0.6762 0.32804 0.0
C497 C 0.11658 0.68738 0.33841 0.0
H498 H 0.16101 0.6317 0.28794 0.0
C499 C 0.07286 0.66088 0.32037 0.0
H500 H 0.18197 0.69606 0.34233 0.0
C501 C 0.06072 0.6238 0.29428 0.0
C502 C 0.09218 0.61268 0.28202 0.0
H503 H 0.04788 0.66857 0.32923 0.0
H504 H 0.02666 0.60399 0.28112 0.0
C505 C 0.13608 0.63939 0.29777 0.0
C506 C 0.35 0.44151 0.34885 0.0
C507 C 0.35158 0.44465 0.23535 0.0
H508 H 0.31121 0.41438 0.49184 0.0
C509 C 0.31415 0.42071 0.17769 0.0
H510 H 0.37842 0.45956 0.39499 0.0
C511 C 0.27595 0.39386 0.23298 0.0
C512 C 0.27409 0.3914 0.3468 0.0
H513 H 0.31472 0.42219 1.08991 0.0
H514 H 0.24768 0.37553 0.18702 0.0
C515 C 0.31154 0.41559 0.40405 0.0
C516 C 0.66291 0.74034 0.76691 0.0
C517 C 0.70751 0.76735 0.75518 0.0
H518 H 0.59841 0.7217 0.71053 0.0
C519 C 0.72027 0.80015 0.69337 0.0
H520 H 0.65257 0.71448 0.81302 0.0
C521 C 0.68984 0.80348 0.632 0.0
C522 C 0.64612 0.77435 0.63315 0.0
H523 H 0.75445 0.82098 0.68196 0.0
H524 H 0.70102 0.82794 0.57871 0.0
C525 C 0.63217 0.74397 0.7065 0.0
C526 C 0.18445 0.93579 0.75786 0.0
C527 C 0.16757 0.95647 0.70806 0.0
H528 H 0.19461 0.88864 0.7475 0.0
C529 C 0.14248 0.94234 0.61569 0.0
H530 H 0.20495 0.94684 0.82747 0.0
C531 C 0.13742 0.90969 0.56835 0.0
C532 C 0.1575 0.89068 0.61257 0.0
H533 H 0.13016 0.95842 0.57461 0.0
H534 H 0.11957 0.90046 0.49411 0.0
C535 C 0.17935 0.90302 0.7106 0.0
C536 C 0.97197 0.18891 0.704 0.0
C537 C 0.94847 0.20293 0.75957 0.0
H538 H 0.03226 0.20205 0.62454 0.0
C539 C 0.97062 0.24081 0.79214 0.0
H540 H 0.95588 0.16001 0.67759 0.0
C541 C 0.01461 0.26483 0.76334 0.0
C542 C 0.03695 0.25155 0.69951 0.0
H543 H 0.95334 0.25238 0.83573 0.0
H544 H 0.03011 0.29427 0.7843 0.0
C545 C 0.01565 0.21309 0.67333 0.0
C546 C 0.19937 0.1922 0.67262 0.0
C547 C 0.23655 0.20705 0.73602 0.0
H548 H 0.15547 0.20331 0.58418 0.0
C549 C 0.25564 0.24487 0.76776 0.0
H550 H 0.18423 0.16337 0.6459 0.0
C551 C 0.23885 0.26768 0.73375 0.0
C552 C 0.20331 0.25346 0.66473 0.0
H553 H 0.28446 0.25718 0.81642 0.0
H554 H 0.2549 0.29687 0.75747 0.0
C555 C 0.18324 0.21526 0.63638 0.0
C556 C 0.63776 0.90895 0.68243 0.0
C557 C 0.65227 0.89522 0.59731 0.0
H558 H 0.65642 0.95119 0.80295 0.0
C559 C 0.6971 0.90836 0.58357 0.0
H560 H 0.60332 0.8985 0.69654 0.0
C561 C 0.72715 0.93722 0.64696 0.0
C562 C 0.71289 0.95368 0.72413 0.0
H563 H 0.70915 0.89725 0.52109 0.0
H564 H 0.76158 0.94934 0.6277 0.0
C565 C 0.66798 0.93815 0.74539 0.0
C566 C 0.9687 0.70124 0.7669 0.0
C567 C 0.94775 0.72261 0.75398 0.0
H568 H 0.02492 0.69621 0.7273 0.0
C569 C 0.97109 0.75859 0.70591 0.0
H570 H 0.95164 0.67348 0.80519 0.0
C571 C 0.01255 0.77115 0.6608 0.0
C572 C 0.03168 0.74823 0.66401 0.0
H573 H 0.95611 0.77579 0.69539 0.0
H574 H 0.0288 0.79814 0.61792 0.0
C575 C 0.01059 0.71409 0.72267 0.0
loop_
_geom_bond_atom_site_label_1
_geom_bond_atom_site_label_2
_geom_bond_distance
_geom_bond_site_symmetry_2
_ccdc_geom_bond_type
C0 O16 1.251 1_554 S
C0 O18 1.254 . S
N1 C2 1.333 . S
N1 C6 1.307 . S
N1 Zn7 2.020 . S
C2 N1 1.333 . S
C2 C3 1.379 . S
C2 H20 0.952 . S
C3 C2 1.379 . S
C3 C4 1.390 . S
C3 H30 0.949 . S
C4 C3 1.390 . S
C4 C5 1.357 . S
C5 C4 1.357 . S
C5 C6 1.370 . S
C5 H31 0.950 . S
C6 N1 1.307 . S
C6 C5 1.370 . S
C6 H24 0.948 . S
Zn7 N1 2.020 . S
Zn7 O16 2.039 . S
Zn7 O22 2.034 . S
Zn7 O26 2.025 1_556 S
Zn7 O28 2.024 1_556 S
C8 O27 1.246 . S
C8 O28 1.249 . S
N9 C10 1.307 1_455 S
N9 C11 1.333 . S
N9 Zn15 2.020 . S
C10 N9 1.307 1_655 S
C10 C14 1.370 . S
C10 H21 0.948 . S
C11 N9 1.333 . S
C11 C12 1.379 . S
C11 H19 0.952 . S
C12 C11 1.379 . S
C12 C13 1.390 1_455 S
C12 H32 0.949 . S
C13 C12 1.390 1_655 S
C13 C14 1.357 . S
C14 C10 1.370 . S
C14 C13 1.357 . S
C14 H33 0.950 . S
Zn15 N9 2.020 . S
Zn15 O18 2.025 . S
Zn15 O23 2.024 . S
Zn15 O25 2.039 . S
Zn15 O27 2.034 . S
O16 C0 1.251 1_556 S
O16 Zn7 2.039 . S
C17 O22 1.246 1_554 S
C17 O23 1.249 . S
O18 C0 1.254 . S
O18 Zn15 2.025 . S
H19 C11 0.952 . S
H20 C2 0.952 . S
H21 C10 0.948 . S
O22 Zn7 2.034 . S
O22 C17 1.246 1_556 S
O23 Zn15 2.024 . S
O23 C17 1.249 . S
H24 C6 0.948 . S
O25 Zn15 2.039 . S
O25 C29 1.251 . S
O26 Zn7 2.025 1_554 S
O26 C29 1.254 . S
O27 C8 1.246 . S
O27 Zn15 2.034 . S
O28 Zn7 2.024 1_554 S
O28 C8 1.249 . S
C29 O25 1.251 . S
C29 O26 1.254 . S
H30 C3 0.949 . S
H31 C5 0.950 . S
H32 C12 0.949 . S
H33 C14 0.950 . S
C34 O50 1.251 . S
C34 O52 1.247 1_554 S
N35 C36 1.333 . S
N35 C40 1.307 . S
N35 Zn41 2.020 . S
C36 N35 1.333 . S
C36 C37 1.379 . S
C36 H54 0.952 . S
C37 C36 1.379 . S
C37 C38 1.390 . S
C37 H64 0.949 . S
C38 C37 1.390 . S
C38 C39 1.357 . S
C39 C38 1.357 . S
C39 C40 1.370 . S
C39 H65 0.950 . S
C40 N35 1.307 . S
C40 C39 1.370 . S
C40 H58 0.948 . S
Zn41 N35 2.020 . S
Zn41 O50 2.039 . S
Zn41 O56 2.034 . S
Zn41 O60 2.025 . S
Zn41 O62 2.024 . S
C42 O61 1.246 . S
C42 O62 1.249 1_556 S
N43 C44 1.307 . S
N43 C45 1.333 . S
N43 Zn49 2.020 . S
C44 N43 1.307 . S
C44 C48 1.370 . S
C44 H55 0.948 . S
C45 N43 1.333 . S
C45 C46 1.379 . S
C45 H53 0.952 . S
C46 C45 1.379 . S
C46 C47 1.390 . S
C46 H66 0.949 . S
C47 C46 1.390 . S
C47 C48 1.357 . S
C48 C44 1.370 . S
C48 C47 1.357 . S
C48 H67 0.950 . S
Zn49 N43 2.020 . S
Zn49 O52 2.028 . S
Zn49 O57 2.024 . S
Zn49 O59 2.039 . S
Zn49 O61 2.034 . S
O50 C34 1.251 . S
O50 Zn41 2.039 . S
C51 O56 1.246 . S
C51 O57 1.249 1_554 S
O52 C34 1.247 1_556 S
O52 Zn49 2.028 . S
H53 C45 0.952 . S
H54 C36 0.952 . S
H55 C44 0.948 . S
O56 Zn41 2.034 . S
O56 C51 1.246 . S
O57 Zn49 2.024 . S
O57 C51 1.249 1_556 S
H58 C40 0.948 . S
O59 Zn49 2.039 . S
O59 C63 1.251 . S
O60 Zn41 2.025 . S
O60 C63 1.254 1_554 S
O61 C42 1.246 . S
O61 Zn49 2.034 . S
O62 Zn41 2.024 . S
O62 C42 1.249 1_554 S
C63 O59 1.251 . S
C63 O60 1.254 1_556 S
H64 C37 0.949 . S
H65 C39 0.950 . S
H66 C46 0.949 . S
H67 C48 0.950 . S
C68 O84 1.251 . S
C68 O86 1.254 1_556 S
N69 C70 1.333 1_565 S
N69 C74 1.307 . S
N69 Zn75 2.019 1_565 S
C70 N69 1.333 1_545 S
C70 C71 1.379 . S
C70 H88 0.952 . S
C71 C70 1.379 . S
C71 C72 1.390 1_545 S
C71 H98 0.949 . S
C72 C71 1.390 1_565 S
C72 C73 1.357 . S
C73 C72 1.357 . S
C73 C74 1.370 . S
C73 H99 0.950 . S
C74 N69 1.307 . S
C74 C73 1.370 . S
C74 H92 0.948 . S
Zn75 N69 2.019 1_545 S
Zn75 O84 2.040 . S
Zn75 O90 2.037 . S
Zn75 O94 2.025 1_545 S
Zn75 O96 2.022 1_545 S
C76 O95 1.246 . S
C76 O96 1.249 1_554 S
N77 C78 1.307 . S
N77 C79 1.333 . S
N77 Zn83 2.020 . S
C78 N77 1.307 . S
C78 C82 1.370 . S
C78 H89 0.948 . S
C79 N77 1.333 . S
C79 C80 1.379 . S
C79 H87 0.952 1_545 S
C80 C79 1.379 . S
C80 C81 1.390 . S
C80 H100 0.949 . S
C81 C80 1.390 . S
C81 C82 1.357 . S
C82 C78 1.370 . S
C82 C81 1.357 . S
C82 H101 0.950 . S
Zn83 N77 2.020 . S
Zn83 O86 2.025 . S
Zn83 O91 2.024 . S
Zn83 O93 2.039 1_545 S
Zn83 O95 2.034 1_545 S
O84 C68 1.251 . S
O84 Zn75 2.040 . S
C85 O90 1.246 . S
C85 O91 1.249 1_556 S
O86 C68 1.254 1_554 S
O86 Zn83 2.025 . S
H87 C79 0.952 1_565 S
H88 C70 0.952 . S
H89 C78 0.948 . S
O90 Zn75 2.037 . S
O90 C85 1.246 . S
O91 Zn83 2.024 . S
O91 C85 1.249 1_554 S
H92 C74 0.948 . S
O93 Zn83 2.039 1_565 S
O93 C97 1.251 . S
O94 Zn75 2.025 1_565 S
O94 C97 1.254 1_556 S
O95 C76 1.246 . S
O95 Zn83 2.034 1_565 S
O96 Zn75 2.022 1_565 S
O96 C76 1.249 1_556 S
C97 O93 1.251 . S
C97 O94 1.254 1_554 S
H98 C71 0.949 . S
H99 C73 0.950 . S
H100 C80 0.949 . S
H101 C82 0.950 . S
C102 O118 1.251 . S
C102 O120 1.254 . S
N103 C104 1.333 . S
N103 C108 1.307 . S
N103 Zn109 2.020 . S
C104 N103 1.333 . S
C104 C105 1.379 1_554 S
C104 H122 0.952 . S
C105 C104 1.379 1_556 S
C105 C106 1.390 . S
C105 H132 0.949 . S
C106 C105 1.390 . S
C106 C107 1.357 . S
C107 C106 1.357 . S
C107 C108 1.370 1_556 S
C107 H133 0.950 . S
C108 N103 1.307 . S
C108 C107 1.370 1_554 S
C108 H126 0.948 . S
Zn109 N103 2.020 . S
Zn109 O118 2.039 . S
Zn109 O124 2.034 . S
Zn109 O128 2.025 . S
Zn109 O130 2.024 . S
C110 O129 1.246 . S
C110 O130 1.249 . S
N111 C112 1.307 . S
N111 C113 1.333 . S
N111 Zn117 2.020 . S
C112 N111 1.307 . S
C112 C116 1.370 . S
C112 H123 0.948 . S
C113 N111 1.333 . S
C113 C114 1.379 . S
C113 H121 0.952 . S
C114 C113 1.379 . S
C114 C115 1.390 . S
C114 H134 0.949 . S
C115 C114 1.390 . S
C115 C116 1.357 . S
C116 C112 1.370 . S
C116 C115 1.357 . S
C116 H135 0.950 . S
Zn117 N111 2.020 . S
Zn117 O120 2.025 . S
Zn117 O125 2.024 . S
Zn117 O127 2.039 . S
Zn117 O129 2.034 . S
O118 C102 1.251 . S
O118 Zn109 2.039 . S
C119 O124 1.246 . S
C119 O125 1.249 . S
O120 C102 1.254 . S
O120 Zn117 2.025 . S
H121 C113 0.952 . S
H122 C104 0.952 . S
H123 C112 0.948 . S
O124 Zn109 2.034 . S
O124 C119 1.246 . S
O125 Zn117 2.024 . S
O125 C119 1.249 . S
H126 C108 0.948 . S
O127 Zn117 2.039 . S
O127 C131 1.251 . S
O128 Zn109 2.025 . S
O128 C131 1.254 . S
O129 C110 1.246 . S
O129 Zn117 2.034 . S
O130 Zn109 2.024 . S
O130 C110 1.249 . S
C131 O127 1.251 . S
C131 O128 1.254 . S
H132 C105 0.949 . S
H133 C107 0.950 . S
H134 C114 0.949 . S
H135 C116 0.950 . S
C136 O152 1.251 . S
C136 O154 1.254 . S
N137 C138 1.333 . S
N137 C142 1.307 . S
N137 Zn143 2.020 . S
C138 N137 1.333 . S
C138 C139 1.379 . S
C138 H156 0.952 . S
C139 C138 1.379 . S
C139 C140 1.390 . S
C139 H166 0.949 . S
C140 C139 1.390 . S
C140 C141 1.357 . S
C141 C140 1.357 . S
C141 C142 1.370 . S
C141 H167 0.950 . S
C142 N137 1.307 . S
C142 C141 1.370 . S
C142 H160 0.948 . S
Zn143 N137 2.020 . S
Zn143 O152 2.039 . S
Zn143 O158 2.034 . S
Zn143 O162 2.025 . S
Zn143 O164 2.024 . S
C144 O163 1.246 . S
C144 O164 1.249 . S
N145 C146 1.307 . S
N145 C147 1.333 . S
N145 Zn151 2.020 . S
C146 N145 1.307 . S
C146 C150 1.370 1_554 S
C146 H157 0.948 . S
C147 N145 1.333 . S
C147 C148 1.379 1_554 S
C147 H155 0.952 . S
C148 C147 1.379 1_556 S
C148 C149 1.390 . S
C148 H168 0.949 . S
C149 C148 1.390 . S
C149 C150 1.357 . S
C150 C146 1.370 1_556 S
C150 C149 1.357 . S
C150 H169 0.950 . S
Zn151 N145 2.020 . S
Zn151 O154 2.025 . S
Zn151 O159 2.024 . S
Zn151 O161 2.039 . S
Zn151 O163 2.034 . S
O152 C136 1.251 . S
O152 Zn143 2.039 . S
C153 O158 1.246 . S
C153 O159 1.249 . S
O154 C136 1.254 . S
O154 Zn151 2.025 . S
H155 C147 0.952 . S
H156 C138 0.952 . S
H157 C146 0.948 . S
O158 Zn143 2.034 . S
O158 C153 1.246 . S
O159 Zn151 2.024 . S
O159 C153 1.249 . S
H160 C142 0.948 . S
O161 Zn151 2.039 . S
O161 C165 1.251 . S
O162 Zn143 2.025 . S
O162 C165 1.254 . S
O163 C144 1.246 . S
O163 Zn151 2.034 . S
O164 Zn143 2.024 . S
O164 C144 1.249 . S
C165 O161 1.251 . S
C165 O162 1.254 . S
H166 C139 0.949 . S
H167 C141 0.950 . S
H168 C148 0.949 . S
H169 C150 0.950 . S
C170 O186 1.251 . S
C170 O188 1.254 . S
N171 C172 1.333 . S
N171 C176 1.307 . S
N171 Zn177 2.020 . S
C172 N171 1.333 . S
C172 C173 1.379 1_554 S
C172 H190 0.952 . S
C173 C172 1.379 1_556 S
C173 C174 1.390 . S
C173 H200 0.949 . S
C174 C173 1.390 . S
C174 C175 1.357 1_556 S
C175 C174 1.357 1_554 S
C175 C176 1.370 . S
C175 H201 0.952 . S
C176 N171 1.307 . S
C176 C175 1.370 . S
C176 H194 0.948 . S
Zn177 N171 2.020 . S
Zn177 O186 2.039 . S
Zn177 O192 2.034 . S
Zn177 O196 2.025 . S
Zn177 O198 2.024 . S
C178 O197 1.246 . S
C178 O198 1.249 . S
N179 C180 1.307 . S
N179 C181 1.333 . S
N179 Zn185 2.020 . S
C180 N179 1.307 . S
C180 C184 1.370 . S
C180 H191 0.948 . S
C181 N179 1.333 . S
C181 C182 1.379 . S
C181 H189 0.952 . S
C182 C181 1.379 . S
C182 C183 1.390 . S
C182 H202 0.949 . S
C183 C182 1.390 . S
C183 C184 1.357 . S
C184 C180 1.370 . S
C184 C183 1.357 . S
C184 H203 0.950 . S
Zn185 N179 2.020 . S
Zn185 O188 2.025 . S
Zn185 O193 2.024 . S
Zn185 O195 2.039 . S
Zn185 O197 2.034 . S
O186 C170 1.251 . S
O186 Zn177 2.039 . S
C187 O192 1.246 . S
C187 O193 1.249 . S
O188 C170 1.254 . S
O188 Zn185 2.025 . S
H189 C181 0.952 . S
H190 C172 0.952 . S
H191 C180 0.948 . S
O192 Zn177 2.034 . S
O192 C187 1.246 . S
O193 Zn185 2.024 . S
O193 C187 1.249 . S
H194 C176 0.948 . S
O195 Zn185 2.039 . S
O195 C199 1.251 . S
O196 Zn177 2.025 . S
O196 C199 1.254 . S
O197 C178 1.246 . S
O197 Zn185 2.034 . S
O198 Zn177 2.024 . S
O198 C178 1.249 . S
C199 O195 1.251 . S
C199 O196 1.254 . S
H200 C173 0.949 . S
H201 C175 0.952 . S
H202 C182 0.949 . S
H203 C184 0.950 . S
C204 O220 1.251 . S
C204 O222 1.254 . S
N205 C206 1.333 . S
N205 C210 1.307 . S
N205 Zn211 2.020 . S
C206 N205 1.333 . S
C206 C207 1.379 . S
C206 H224 0.952 . S
C207 C206 1.379 . S
C207 C208 1.390 . S
C207 H234 0.949 . S
C208 C207 1.390 . S
C208 C209 1.357 . S
C209 C208 1.357 . S
C209 C210 1.370 . S
C209 H235 0.950 . S
C210 N205 1.307 . S
C210 C209 1.370 . S
C210 H228 0.948 . S
Zn211 N205 2.020 . S
Zn211 O220 2.039 . S
Zn211 O226 2.034 . S
Zn211 O230 2.025 . S
Zn211 O232 2.024 . S
C212 O231 1.246 . S
C212 O232 1.249 . S
N213 C214 1.307 . S
N213 C215 1.333 . S
N213 Zn219 2.020 . S
C214 N213 1.307 . S
C214 C218 1.370 . S
C214 H225 0.948 . S
C215 N213 1.333 . S
C215 C216 1.379 . S
C215 H223 0.952 . S
C216 C215 1.379 . S
C216 C217 1.390 1_545 S
C216 H236 0.949 . S
C217 C216 1.390 1_565 S
C217 C218 1.357 1_565 S
C218 C214 1.370 . S
C218 C217 1.357 1_545 S
C218 H237 0.950 1_545 S
Zn219 N213 2.020 . S
Zn219 O222 2.025 . S
Zn219 O227 2.024 . S
Zn219 O229 2.039 . S
Zn219 O231 2.034 . S
O220 C204 1.251 . S
O220 Zn211 2.039 . S
C221 O226 1.246 . S
C221 O227 1.249 . S
O222 C204 1.254 . S
O222 Zn219 2.025 . S
H223 C215 0.952 . S
H224 C206 0.952 . S
H225 C214 0.948 . S
O226 Zn211 2.034 . S
O226 C221 1.246 . S
O227 Zn219 2.024 . S
O227 C221 1.249 . S
H228 C210 0.948 . S
O229 Zn219 2.039 . S
O229 C233 1.251 . S
O230 Zn211 2.025 . S
O230 C233 1.254 . S
O231 C212 1.246 . S
O231 Zn219 2.034 . S
O232 Zn211 2.024 . S
O232 C212 1.249 . S
C233 O229 1.251 . S
C233 O230 1.254 . S
H234 C207 0.949 . S
H235 C209 0.950 . S
H236 C216 0.949 . S
H237 C218 0.950 1_565 S
C238 O254 1.251 . S
C238 O256 1.254 . S
N239 C240 1.333 . S
N239 C244 1.307 . S
N239 Zn245 2.020 . S
C240 N239 1.333 . S
C240 C241 1.379 . S
C240 H258 0.952 . S
C241 C240 1.379 . S
C241 C242 1.390 1_545 S
C241 H268 0.949 . S
C242 C241 1.390 1_565 S
C242 C243 1.357 1_565 S
C243 C242 1.357 1_545 S
C243 C244 1.370 . S
C243 H269 0.950 1_545 S
C244 N239 1.307 . S
C244 C243 1.370 . S
C244 H262 0.948 . S
Zn245 N239 2.020 . S
Zn245 O254 2.039 . S
Zn245 O260 2.034 . S
Zn245 O264 2.025 . S
Zn245 O266 2.024 . S
C246 O265 1.246 . S
C246 O266 1.249 . S
N247 C248 1.307 . S
N247 C249 1.333 . S
N247 Zn253 2.020 . S
C248 N247 1.307 . S
C248 C252 1.370 . S
C248 H259 0.948 . S
C249 N247 1.333 . S
C249 C250 1.379 . S
C249 H257 0.952 . S
C250 C249 1.379 . S
C250 C251 1.390 . S
C250 H270 0.949 . S
C251 C250 1.390 . S
C251 C252 1.357 . S
C252 C248 1.370 . S
C252 C251 1.357 . S
C252 H271 0.950 . S
Zn253 N247 2.020 . S
Zn253 O256 2.025 . S
Zn253 O261 2.024 . S
Zn253 O263 2.039 . S
Zn253 O265 2.034 . S
O254 C238 1.251 . S
O254 Zn245 2.039 . S
C255 O260 1.246 . S
C255 O261 1.249 . S
O256 C238 1.254 . S
O256 Zn253 2.025 . S
H257 C249 0.952 . S
H258 C240 0.952 . S
H259 C248 0.948 . S
O260 Zn245 2.034 . S
O260 C255 1.246 . S
O261 Zn253 2.024 . S
O261 C255 1.249 . S
H262 C244 0.948 . S
O263 Zn253 2.039 . S
O263 C267 1.251 . S
O264 Zn245 2.025 . S
O264 C267 1.254 . S
O265 C246 1.246 . S
O265 Zn253 2.034 . S
O266 Zn245 2.024 . S
O266 C246 1.249 . S
C267 O263 1.251 . S
C267 O264 1.254 . S
H268 C241 0.949 . S
H269 C243 0.950 1_565 S
H270 C250 0.949 . S
H271 C252 0.950 . S
C272 O288 1.251 . S
C272 O290 1.254 . S
N273 C274 1.333 . S
N273 C278 1.307 . S
N273 Zn279 2.020 . S
C274 N273 1.333 . S
C274 C275 1.379 . S
C274 H292 0.952 . S
C275 C274 1.379 . S
C275 C276 1.390 . S
C275 H302 0.949 . S
C276 C275 1.390 . S
C276 C277 1.357 . S
C277 C276 1.357 . S
C277 C278 1.370 . S
C277 H303 0.950 . S
C278 N273 1.307 . S
C278 C277 1.370 . S
C278 H296 0.948 . S
Zn279 N273 2.020 . S
Zn279 O288 2.039 . S
Zn279 O294 2.034 . S
Zn279 O298 2.025 . S
Zn279 O300 2.024 . S
C280 O299 1.246 . S
C280 O300 1.249 . S
N281 C282 1.307 . S
N281 C283 1.333 . S
N281 Zn287 2.020 . S
C282 N281 1.307 . S
C282 C286 1.370 . S
C282 H293 0.948 . S
C283 N281 1.333 . S
C283 C284 1.379 . S
C283 H291 0.952 . S
C284 C283 1.379 . S
C284 C285 1.390 . S
C284 H304 0.949 . S
C285 C284 1.390 . S
C285 C286 1.357 . S
C286 C282 1.370 . S
C286 C285 1.357 . S
C286 H305 0.950 . S
Zn287 N281 2.020 . S
Zn287 O290 2.025 . S
Zn287 O295 2.024 . S
Zn287 O297 2.039 . S
Zn287 O299 2.034 . S
O288 C272 1.251 . S
O288 Zn279 2.039 . S
C289 O294 1.246 . S
C289 O295 1.249 . S
O290 C272 1.254 . S
O290 Zn287 2.025 . S
H291 C283 0.952 . S
H292 C274 0.952 . S
H293 C282 0.948 . S
O294 Zn279 2.034 . S
O294 C289 1.246 . S
O295 Zn287 2.024 . S
O295 C289 1.249 . S
H296 C278 0.948 . S
O297 Zn287 2.039 . S
O297 C301 1.251 . S
O298 Zn279 2.025 . S
O298 C301 1.254 . S
O299 C280 1.246 . S
O299 Zn287 2.034 . S
O300 Zn279 2.024 . S
O300 C280 1.249 . S
C301 O297 1.251 . S
C301 O298 1.254 . S
H302 C275 0.949 . S
H303 C277 0.950 . S
H304 C284 0.949 . S
H305 C286 0.950 . S
C306 C307 1.387 . S
C306 H310 0.950 . S
C306 C315 1.390 . S
C307 C306 1.387 . S
C307 C309 1.387 . S
H308 C315 0.950 . S
C309 C307 1.387 . S
C309 C311 1.390 . S
C309 H313 0.950 . S
H310 C306 0.950 . S
C311 C309 1.390 . S
C311 C312 1.387 . S
C311 H314 0.950 . S
C312 C311 1.387 . S
C312 C315 1.387 . S
H313 C309 0.950 . S
H314 C311 0.950 . S
C315 C306 1.390 . S
C315 H308 0.950 . S
C315 C312 1.387 . S
C316 C317 1.387 . S
C316 H320 0.950 . S
C316 C325 1.390 . S
C317 C316 1.387 . S
C317 C319 1.387 . S
H318 C325 0.950 . S
C319 C317 1.387 . S
C319 C321 1.390 . S
C319 H323 0.950 . S
H320 C316 0.950 . S
C321 C319 1.390 . S
C321 C322 1.387 . S
C321 H324 0.950 . S
C322 C321 1.387 . S
C322 C325 1.387 . S
H323 C319 0.950 . S
H324 C321 0.950 . S
C325 C316 1.390 . S
C325 H318 0.950 . S
C325 C322 1.387 . S
C326 C327 1.387 . S
C326 H330 0.950 . S
C326 C335 1.390 1_565 S
C327 C326 1.387 . S
C327 C329 1.387 1_565 S
H328 C335 0.950 . S
C329 C327 1.387 1_545 S
C329 C331 1.390 . S
C329 H333 0.950 1_545 S
H330 C326 0.950 . S
C331 C329 1.390 . S
C331 C332 1.387 . S
C331 H334 0.950 . S
C332 C331 1.387 . S
C332 C335 1.387 . S
H333 C329 0.950 1_565 S
H334 C331 0.950 . S
C335 C326 1.390 1_545 S
C335 H328 0.950 . S
C335 C332 1.387 . S
C336 C337 1.387 . S
C336 H340 0.950 . S
C336 C345 1.390 . S
C337 C336 1.387 . S
C337 C339 1.387 . S
H338 C345 0.950 . S
C339 C337 1.387 . S
C339 C341 1.390 . S
C339 H343 0.950 . S
H340 C336 0.950 . S
C341 C339 1.390 . S
C341 C342 1.387 . S
C341 H344 0.950 . S
C342 C341 1.387 . S
C342 C345 1.387 . S
H343 C339 0.950 . S
H344 C341 0.950 . S
C345 C336 1.390 . S
C345 H338 0.950 . S
C345 C342 1.387 . S
C346 C347 1.387 . S
C346 H350 0.950 . S
C346 C355 1.390 . S
C347 C346 1.387 . S
C347 C349 1.387 . S
H348 C355 0.950 . S
C349 C347 1.387 . S
C349 C351 1.390 . S
C349 H353 0.950 . S
H350 C346 0.950 . S
C351 C349 1.390 . S
C351 C352 1.387 . S
C351 H354 0.950 . S
C352 C351 1.387 . S
C352 C355 1.387 . S
H353 C349 0.950 . S
H354 C351 0.950 . S
C355 C346 1.390 . S
C355 H348 0.950 . S
C355 C352 1.387 . S
C356 C357 1.387 . S
C356 H360 0.950 . S
C356 C365 1.390 . S
C357 C356 1.387 . S
C357 C359 1.387 . S
H358 C365 0.950 . S
C359 C357 1.387 . S
C359 C361 1.390 . S
C359 H363 0.950 . S
H360 C356 0.950 . S
C361 C359 1.390 . S
C361 C362 1.387 . S
C361 H364 0.950 . S
C362 C361 1.387 . S
C362 C365 1.387 . S
H363 C359 0.950 . S
H364 C361 0.950 . S
C365 C356 1.390 . S
C365 H358 0.950 . S
C365 C362 1.387 . S
C366 C367 1.387 . S
C366 H370 0.950 . S
C366 C375 1.390 . S
C367 C366 1.387 . S
C367 C369 1.387 . S
H368 C375 0.950 . S
C369 C367 1.387 . S
C369 C371 1.390 . S
C369 H373 0.950 . S
H370 C366 0.950 . S
C371 C369 1.390 . S
C371 C372 1.387 . S
C371 H374 0.950 . S
C372 C371 1.387 . S
C372 C375 1.387 . S
H373 C369 0.950 . S
H374 C371 0.950 . S
C375 C366 1.390 . S
C375 H368 0.950 . S
C375 C372 1.387 . S
C376 C377 1.387 . S
C376 H380 0.950 . S
C376 C385 1.390 . S
C377 C376 1.387 . S
C377 C379 1.387 . S
H378 C385 0.950 . S
C379 C377 1.387 . S
C379 C381 1.390 . S
C379 H383 0.950 . S
H380 C376 0.950 . S
C381 C379 1.390 . S
C381 C382 1.387 . S
C381 H384 0.950 . S
C382 C381 1.387 . S
C382 C385 1.387 . S
H383 C379 0.950 . S
H384 C381 0.950 . S
C385 C376 1.390 . S
C385 H378 0.950 . S
C385 C382 1.387 . S
C386 C387 1.387 . S
C386 H390 0.950 . S
C386 C395 1.390 . S
C387 C386 1.387 . S
C387 C389 1.387 . S
H388 C395 0.950 . S
C389 C387 1.387 . S
C389 C391 1.390 . S
C389 H393 0.950 . S
H390 C386 0.950 . S
C391 C389 1.390 . S
C391 C392 1.387 . S
C391 H394 0.950 . S
C392 C391 1.387 . S
C392 C395 1.387 . S
H393 C389 0.950 . S
H394 C391 0.950 . S
C395 C386 1.390 . S
C395 H388 0.950 . S
C395 C392 1.387 . S
C396 C397 1.387 . S
C396 H400 0.950 . S
C396 C405 1.390 . S
C397 C396 1.387 . S
C397 C399 1.387 . S
H398 C405 0.950 . S
C399 C397 1.387 . S
C399 C401 1.390 . S
C399 H403 0.950 . S
H400 C396 0.950 . S
C401 C399 1.390 . S
C401 C402 1.387 . S
C401 H404 0.950 . S
C402 C401 1.387 . S
C402 C405 1.387 . S
H403 C399 0.950 . S
H404 C401 0.950 . S
C405 C396 1.390 . S
C405 H398 0.950 . S
C405 C402 1.387 . S
C406 C407 1.387 . S
C406 H410 0.950 . S
C406 C415 1.390 . S
C407 C406 1.387 . S
C407 C409 1.387 . S
H408 C415 0.950 . S
C409 C407 1.387 . S
C409 C411 1.390 . S
C409 H413 0.950 . S
H410 C406 0.950 . S
C411 C409 1.390 . S
C411 C412 1.387 . S
C411 H414 0.950 . S
C412 C411 1.387 . S
C412 C415 1.387 . S
H413 C409 0.950 . S
H414 C411 0.950 . S
C415 C406 1.390 . S
C415 H408 0.950 . S
C415 C412 1.387 . S
C416 C417 1.387 . S
C416 H420 0.950 . S
C416 C425 1.390 . S
C417 C416 1.387 . S
C417 C419 1.387 . S
H418 C425 0.950 . S
C419 C417 1.387 . S
C419 C421 1.390 . S
C419 H423 0.950 . S
H420 C416 0.950 . S
C421 C419 1.390 . S
C421 C422 1.387 . S
C421 H424 0.950 . S
C422 C421 1.387 . S
C422 C425 1.387 . S
H423 C419 0.950 . S
H424 C421 0.950 . S
C425 C416 1.390 . S
C425 H418 0.950 . S
C425 C422 1.387 . S
C426 C427 1.387 . S
C426 H430 0.950 . S
C426 C435 1.390 . S
C427 C426 1.387 . S
C427 C429 1.387 . S
H428 C435 0.950 . S
C429 C427 1.387 . S
C429 C431 1.390 . S
C429 H433 0.950 . S
H430 C426 0.950 . S
C431 C429 1.390 . S
C431 C432 1.387 . S
C431 H434 0.950 . S
C432 C431 1.387 . S
C432 C435 1.387 . S
H433 C429 0.950 . S
H434 C431 0.950 . S
C435 C426 1.390 . S
C435 H428 0.950 . S
C435 C432 1.387 . S
C436 C437 1.387 . S
C436 H440 0.950 . S
C436 C445 1.390 . S
C437 C436 1.387 . S
C437 C439 1.387 . S
H438 C445 0.950 . S
C439 C437 1.387 . S
C439 C441 1.390 . S
C439 H443 0.950 . S
H440 C436 0.950 . S
C441 C439 1.390 . S
C441 C442 1.387 . S
C441 H444 0.950 1_556 S
C442 C441 1.387 . S
C442 C445 1.387 . S
H443 C439 0.950 . S
H444 C441 0.950 1_554 S
C445 C436 1.390 . S
C445 H438 0.950 . S
C445 C442 1.387 . S
C446 C447 1.387 . S
C446 H450 0.950 . S
C446 C455 1.390 . S
C447 C446 1.387 . S
C447 C449 1.387 . S
H448 C455 0.950 . S
C449 C447 1.387 . S
C449 C451 1.390 . S
C449 H453 0.950 . S
H450 C446 0.950 . S
C451 C449 1.390 . S
C451 C452 1.387 . S
C451 H454 0.950 . S
C452 C451 1.387 . S
C452 C455 1.387 . S
H453 C449 0.950 . S
H454 C451 0.950 . S
C455 C446 1.390 . S
C455 H448 0.950 . S
C455 C452 1.387 . S
C456 C457 1.387 . S
C456 H460 0.950 . S
C456 C465 1.390 . S
C457 C456 1.387 . S
C457 C459 1.387 . S
H458 C465 0.950 . S
C459 C457 1.387 . S
C459 C461 1.390 . S
C459 H463 0.950 . S
H460 C456 0.950 . S
C461 C459 1.390 . S
C461 C462 1.387 . S
C461 H464 0.950 1_655 S
C462 C461 1.387 . S
C462 C465 1.387 . S
H463 C459 0.950 . S
H464 C461 0.950 1_455 S
C465 C456 1.390 . S
C465 H458 0.950 . S
C465 C462 1.387 . S
C466 C467 1.387 . S
C466 H470 0.950 . S
C466 C475 1.390 . S
C467 C466 1.387 . S
C467 C469 1.387 . S
H468 C475 0.950 . S
C469 C467 1.387 . S
C469 C471 1.390 . S
C469 H473 0.950 1_556 S
H470 C466 0.950 . S
C471 C469 1.390 . S
C471 C472 1.387 . S
C471 H474 0.950 . S
C472 C471 1.387 . S
C472 C475 1.387 . S
H473 C469 0.950 1_554 S
H474 C471 0.950 . S
C475 C466 1.390 . S
C475 H468 0.950 . S
C475 C472 1.387 . S
C476 C477 1.387 . S
C476 H480 0.950 . S
C476 C485 1.390 . S
C477 C476 1.387 . S
C477 C479 1.387 . S
H478 C485 0.950 . S
C479 C477 1.387 . S
C479 C481 1.390 . S
C479 H483 0.950 . S
H480 C476 0.950 . S
C481 C479 1.390 . S
C481 C482 1.387 . S
C481 H484 0.950 . S
C482 C481 1.387 . S
C482 C485 1.387 . S
H483 C479 0.950 . S
H484 C481 0.950 . S
C485 C476 1.390 . S
C485 H478 0.950 . S
C485 C482 1.387 . S
C486 C487 1.387 . S
C486 H490 0.950 1_554 S
C486 C495 1.390 . S
C487 C486 1.387 . S
C487 C489 1.387 . S
H488 C495 0.950 . S
C489 C487 1.387 . S
C489 C491 1.390 . S
C489 H493 0.950 . S
H490 C486 0.950 1_556 S
C491 C489 1.390 . S
C491 C492 1.387 . S
C491 H494 0.950 . S
C492 C491 1.387 . S
C492 C495 1.387 . S
H493 C489 0.950 . S
H494 C491 0.950 . S
C495 C486 1.390 . S
C495 H488 0.950 . S
C495 C492 1.387 . S
C496 C497 1.387 . S
C496 H500 0.950 . S
C496 C505 1.390 . S
C497 C496 1.387 . S
C497 C499 1.387 . S
H498 C505 0.950 . S
C499 C497 1.387 . S
C499 C501 1.390 . S
C499 H503 0.950 . S
H500 C496 0.950 . S
C501 C499 1.390 . S
C501 C502 1.387 . S
C501 H504 0.950 . S
C502 C501 1.387 . S
C502 C505 1.387 . S
H503 C499 0.950 . S
H504 C501 0.950 . S
C505 C496 1.390 . S
C505 H498 0.950 . S
C505 C502 1.387 . S
C506 C507 1.387 . S
C506 H510 0.950 . S
C506 C515 1.390 . S
C507 C506 1.387 . S
C507 C509 1.387 . S
H508 C515 0.950 . S
C509 C507 1.387 . S
C509 C511 1.390 . S
C509 H513 0.950 . S
H510 C506 0.950 . S
C511 C509 1.390 . S
C511 C512 1.387 . S
C511 H514 0.950 . S
C512 C511 1.387 . S
C512 C515 1.387 . S
H513 C509 0.950 . S
H514 C511 0.950 . S
C515 C506 1.390 . S
C515 H508 0.950 . S
C515 C512 1.387 . S
C516 C517 1.387 . S
C516 H520 0.950 . S
C516 C525 1.390 . S
C517 C516 1.387 . S
C517 C519 1.387 . S
H518 C525 0.950 . S
C519 C517 1.387 . S
C519 C521 1.390 . S
C519 H523 0.950 . S
H520 C516 0.950 . S
C521 C519 1.390 . S
C521 C522 1.387 . S
C521 H524 0.950 . S
C522 C521 1.387 . S
C522 C525 1.387 . S
H523 C519 0.950 . S
H524 C521 0.950 . S
C525 C516 1.390 . S
C525 H518 0.950 . S
C525 C522 1.387 . S
C526 C527 1.387 . S
C526 H530 0.950 . S
C526 C535 1.390 . S
C527 C526 1.387 . S
C527 C529 1.387 . S
H528 C535 0.950 . S
C529 C527 1.387 . S
C529 C531 1.390 . S
C529 H533 0.950 . S
H530 C526 0.950 . S
C531 C529 1.390 . S
C531 C532 1.387 . S
C531 H534 0.950 . S
C532 C531 1.387 . S
C532 C535 1.387 . S
H533 C529 0.950 . S
H534 C531 0.950 . S
C535 C526 1.390 . S
C535 H528 0.950 . S
C535 C532 1.387 . S
C536 C537 1.387 . S
C536 H540 0.950 . S
C536 C545 1.390 1_655 S
C537 C536 1.387 . S
C537 C539 1.387 . S
H538 C545 0.950 . S
C539 C537 1.387 . S
C539 C541 1.390 1_655 S
C539 H543 0.950 . S
H540 C536 0.950 . S
C541 C539 1.390 1_455 S
C541 C542 1.387 . S
C541 H544 0.950 . S
C542 C541 1.387 . S
C542 C545 1.387 . S
H543 C539 0.950 . S
H544 C541 0.950 . S
C545 C536 1.390 1_455 S
C545 H538 0.950 . S
C545 C542 1.387 . S
C546 C547 1.387 . S
C546 H550 0.950 . S
C546 C555 1.390 . S
C547 C546 1.387 . S
C547 C549 1.387 . S
H548 C555 0.950 . S
C549 C547 1.387 . S
C549 C551 1.390 . S
C549 H553 0.950 . S
H550 C546 0.950 . S
C551 C549 1.390 . S
C551 C552 1.387 . S
C551 H554 0.950 . S
C552 C551 1.387 . S
C552 C555 1.387 . S
H553 C549 0.950 . S
H554 C551 0.950 . S
C555 C546 1.390 . S
C555 H548 0.950 . S
C555 C552 1.387 . S
C556 C557 1.387 . S
C556 H560 0.950 . S
C556 C565 1.390 . S
C557 C556 1.387 . S
C557 C559 1.387 . S
H558 C565 0.950 1_545 S
C559 C557 1.387 . S
C559 C561 1.390 . S
C559 H563 0.950 . S
H560 C556 0.950 . S
C561 C559 1.390 . S
C561 C562 1.387 . S
C561 H564 0.950 . S
C562 C561 1.387 . S
C562 C565 1.387 . S
H563 C559 0.950 . S
H564 C561 0.950 . S
C565 C556 1.390 . S
C565 H558 0.950 1_565 S
C565 C562 1.387 . S
C566 C567 1.387 . S
C566 H570 0.950 . S
C566 C575 1.390 . S
C567 C566 1.387 . S
C567 C569 1.387 . S
H568 C575 0.950 . S
C569 C567 1.387 . S
C569 C571 1.390 1_655 S
C569 H573 0.950 . S
H570 C566 0.950 . S
C571 C569 1.390 1_455 S
C571 C572 1.387 . S
C571 H574 0.950 . S
C572 C571 1.387 . S
C572 C575 1.387 1_455 S
H573 C569 0.950 . S
H574 C571 0.950 . S
C575 C566 1.390 . S
C575 H568 0.950 . S
C575 C572 1.387 1_655 S
C307 C4 1.193 . S
C312 C13 1.193 1_455 S
C317 C47 1.078 . S
C322 C38 1.078 . S
C327 C72 0.979 . S
C332 C81 0.979 . S
C337 C115 1.196 . S
C342 C106 1.196 . S
C347 C140 1.077 . S
C352 C149 1.077 . S
C357 C183 0.972 . S
C362 C174 0.972 . S
C367 C233 3.528 . S
C372 C204 3.528 1_554 S
C377 C238 3.535 . S
C382 C267 3.535 1_554 S
C387 C301 3.548 . S
C392 C272 3.548 1_554 S
C397 C187 1.828 . S
C402 C29 1.788 . S
C407 C51 1.860 . S
C412 C119 1.824 . S
C417 C97 1.818 . S
C422 C165 1.797 . S
C427 C85 1.782 . S
C432 C212 1.795 . S
C437 C251 1.335 . S
C442 C17 1.340 1_656 S
C447 C280 1.551 . S
C452 C63 1.542 . S
C457 C276 1.245 . S
C462 C0 1.261 1_656 S
C467 C42 1.386 . S
C472 C208 1.374 . S
C477 C255 1.704 . S
C482 C68 1.694 . S
C487 C76 1.828 . S
C492 C102 1.788 . S
C497 C144 1.858 . S
C502 C8 1.822 . S
C507 C34 1.794 . S
C512 C170 1.816 . S
C517 C285 1.245 . S
C522 C131 1.261 . S
C527 C217 1.373 . S
C532 C153 1.384 . S
C537 C246 1.706 . S
C542 C199 1.695 . S
C547 C221 1.795 . S
C552 C178 1.783 . S
C557 C110 1.340 . S
C562 C242 1.336 . S
C567 C289 1.552 . S
C572 C136 1.544 . S
