# Generated by pormake.
# Topology unj, (4)-cn, num edge types: 1
# Building blocks:
#     Node 0, Type 0, BuildingBlock: KUFVIS_clean_sbu_0, # of connection points: 4
#     Node 1, Type 0, BuildingBlock: KUFVIS_clean_sbu_0, # of connection points: 4
#     Node 2, Type 0, BuildingBlock: KUFVIS_clean_sbu_0, # of connection points: 4
#     Node 3, Type 0, BuildingBlock: KUFVIS_clean_sbu_0, # of connection points: 4
#     Node 4, Type 0, BuildingBlock: KUFVIS_clean_sbu_0, # of connection points: 4
#     Node 5, Type 0, BuildingBlock: KUFVIS_clean_sbu_0, # of connection points: 4
#     Edge 6, Type (0, 0), BuildingBlock: EZIPEK_clean_linker_0, # of connection points: 2
#     Edge 7, Type (0, 0), BuildingBlock: EZIPEK_clean_linker_0, # of connection points: 2
#     Edge 8, Type (0, 0), BuildingBlock: EZIPEK_clean_linker_0, # of connection points: 2
#     Edge 9, Type (0, 0), BuildingBlock: EZIPEK_clean_linker_0, # of connection points: 2
#     Edge 10, Type (0, 0), BuildingBlock: EZIPEK_clean_linker_0, # of connection points: 2
#     Edge 11, Type (0, 0), BuildingBlock: EZIPEK_clean_linker_0, # of connection points: 2
#     Edge 12, Type (0, 0), BuildingBlock: EZIPEK_clean_linker_0, # of connection points: 2
#     Edge 13, Type (0, 0), BuildingBlock: EZIPEK_clean_linker_0, # of connection points: 2
#     Edge 14, Type (0, 0), BuildingBlock: EZIPEK_clean_linker_0, # of connection points: 2
#     Edge 15, Type (0, 0), BuildingBlock: EZIPEK_clean_linker_0, # of connection points: 2
#     Edge 16, Type (0, 0), BuildingBlock: EZIPEK_clean_linker_0, # of connection points: 2
#     Edge 17, Type (0, 0), BuildingBlock: EZIPEK_clean_linker_0, # of connection points: 2
# Relax obj value: 0.011
# Max RMSD: 0.050
# Mean RMSD: 0.050
data_MOF--net-unj--node1-KUFVIS_clean_sbu_0--edge1-EZIPEK_clean_linker_0
_symmetry_space_group_name_H-M    P1
_symmetry_Int_Tables_number       1
_symmetry_cell_setting            triclinic
loop_
_symmetry_equiv_pos_as_xyz
'x, y, z'
_cell_length_a     23.828506
_cell_length_b     24.033858
_cell_length_c     25.999609
_cell_angle_alpha  90.491175
_cell_angle_beta   89.712513
_cell_angle_gamma 119.8583
loop_
_atom_site_label
_atom_site_type_symbol
_atom_site_fract_x
_atom_site_fract_y
_atom_site_fract_z
_atom_type_partial_charge
Mn0 Mn 0.51159 0.24856 0.60179 0.0
Mn1 Mn 0.64168 0.23169 0.57769 0.0
C2 C 0.56384 0.22804 0.66867 0.0
C3 C 0.46778 0.31324 0.62549 0.0
C4 C 0.50339 0.13182 0.54739 0.0
O5 O 0.543 0.29124 0.53106 0.0
O6 O 0.63714 0.29007 0.52639 0.0
C7 C 0.74832 0.36438 0.59675 0.0
N8 N 0.717 0.3009 0.60898 0.0
C9 C 0.79131 0.32003 0.67827 0.0
C10 C 0.82391 0.38561 0.66667 0.0
C11 C 0.80246 0.40781 0.62561 0.0
C12 C 0.73787 0.27892 0.64795 0.0
H13 H 0.73175 0.38192 0.56556 0.0
C14 C 0.59821 0.30855 0.51027 0.0
O15 O 0.43338 0.25927 0.60123 0.0
O16 O 0.52801 0.33123 0.63344 0.0
N17 N 0.65118 0.1783 0.62725 0.0
C18 C 0.61556 0.11344 0.63269 0.0
C19 C 0.63127 0.0835 0.67173 0.0
C20 C 0.68388 0.12044 0.70444 0.0
C21 C 0.72099 0.1869 0.69724 0.0
C22 C 0.7033 0.21399 0.6574 0.0
H23 H 0.57566 0.08467 0.60731 0.0
O24 O 0.504 0.21401 0.67354 0.0
O25 O 0.58867 0.24951 0.62401 0.0
O26 O 0.47548 0.15909 0.56953 0.0
O27 O 0.56506 0.15643 0.54532 0.0
C28 C 0.7744 0.22741 0.72839 0.0
C29 C 0.80947 0.29394 0.71897 0.0
H30 H 0.86547 0.41934 0.68898 0.0
H31 H 0.82739 0.45836 0.61641 0.0
H32 H 0.60277 0.03208 0.67668 0.0
H33 H 0.69546 0.09727 0.73483 0.0
H34 H 0.78876 0.20792 0.75983 0.0
H35 H 0.8503 0.32459 0.74329 0.0
Mn36 Mn 0.27685 0.5043 0.76212 0.0
Mn37 Mn 0.42751 0.61817 0.72707 0.0
C38 C 0.35523 0.56157 0.82447 0.0
C39 C 0.16898 0.47234 0.78435 0.0
C40 C 0.37466 0.47489 0.71194 0.0
O41 O 0.26592 0.52509 0.68764 0.0
O42 O 0.36428 0.61239 0.67535 0.0
C43 C 0.42054 0.73777 0.73033 0.0
N44 N 0.44669 0.70234 0.74779 0.0
C45 C 0.52472 0.79088 0.79895 0.0
C46 C 0.49836 0.82816 0.7818 0.0
C47 C 0.44589 0.80139 0.74749 0.0
C48 C 0.49717 0.72766 0.78083 0.0
H49 H 0.38077 0.71771 0.70341 0.0
C50 C 0.30541 0.57462 0.66189 0.0
O51 O 0.18558 0.43254 0.76531 0.0
O52 O 0.21487 0.53153 0.78888 0.0
N53 N 0.49155 0.62829 0.77627 0.0
C54 C 0.51209 0.58642 0.78875 0.0
C55 C 0.56234 0.60485 0.82451 0.0
C56 C 0.59199 0.66668 0.84623 0.0
C57 C 0.57132 0.70962 0.83172 0.0
C58 C 0.52039 0.68822 0.7964 0.0
H59 H 0.49064 0.53948 0.77134 0.0
O60 O 0.30566 0.50601 0.83523 0.0
O61 O 0.35788 0.58021 0.77759 0.0
O62 O 0.32203 0.45559 0.73674 0.0
O63 O 0.41492 0.53394 0.70361 0.0
C64 C 0.59969 0.77301 0.85052 0.0
C65 C 0.5769 0.81379 0.83367 0.0
H66 H 0.51782 0.87726 0.79493 0.0
H67 H 0.42529 0.82985 0.73404 0.0
H68 H 0.57849 0.57162 0.83502 0.0
H69 H 0.63099 0.68088 0.87361 0.0
H70 H 0.6394 0.79107 0.87763 0.0
H71 H 0.59987 0.86266 0.84769 0.0
Mn72 Mn 0.79997 0.27722 0.93327 0.0
Mn73 Mn 0.82275 0.42507 0.91163 0.0
C74 C 0.8308 0.35279 1.00025 0.0
C75 C 0.73485 0.1695 0.95774 0.0
C76 C 0.91004 0.37679 0.86785 0.0
O77 O 0.74886 0.26636 0.86649 0.0
O78 O 0.75443 0.36239 0.86521 0.0
C79 C 0.6964 0.40726 0.9476 0.0
N80 N 0.7622 0.43863 0.9509 0.0
C81 C 0.76075 0.5035 0.02151 0.0
C82 C 0.69314 0.47263 0.01814 0.0
C83 C 0.66084 0.42423 0.98107 0.0
C84 C 0.79371 0.48504 0.98673 0.0
H85 H 0.67101 0.36799 0.92092 0.0
C86 C 0.72939 0.30408 0.84976 0.0
O87 O 0.78645 0.18804 0.93004 0.0
O88 O 0.71917 0.21257 0.96913 0.0
N89 N 0.88719 0.48789 0.95641 0.0
C90 C 0.95226 0.5108 0.95649 0.0
C91 C 0.99149 0.5587 0.99204 0.0
C92 C 0.96348 0.58254 0.02715 0.0
C93 C 0.89649 0.55856 0.02615 0.0
C94 C 0.85992 0.51143 0.98938 0.0
H95 H 0.97414 0.49261 0.92974 0.0
O96 O 0.84268 0.30571 0.00327 0.0
O97 O 0.80608 0.35547 0.95715 0.0
O98 O 0.88581 0.32619 0.89496 0.0
O99 O 0.88885 0.41632 0.87062 0.0
C100 C 0.86441 0.57858 0.06095 0.0
C101 C 0.79657 0.55089 0.05877 0.0
H102 H 0.66548 0.48502 0.04432 0.0
H103 H 0.60856 0.39928 0.97888 0.0
H104 H 0.04316 0.57691 0.99261 0.0
H105 H 0.9938 0.61888 0.05496 0.0
H106 H 0.89136 0.61452 0.09009 0.0
H107 H 0.77234 0.5659 0.0863 0.0
Mn108 Mn 0.56311 0.78838 0.08962 0.0
Mn109 Mn 0.4408 0.81766 0.06166 0.0
C110 C 0.50812 0.80989 0.15485 0.0
C111 C 0.60363 0.71964 0.11319 0.0
C112 C 0.58269 0.91222 0.04027 0.0
O113 O 0.53424 0.74951 0.01684 0.0
O114 O 0.44697 0.76258 0.00787 0.0
C115 C 0.32474 0.68832 0.06585 0.0
N116 N 0.35851 0.74982 0.08378 0.0
C117 C 0.26824 0.73528 0.13557 0.0
C118 C 0.23236 0.67198 0.11734 0.0
C119 C 0.26096 0.64826 0.08269 0.0
C120 C 0.33162 0.77294 0.11747 0.0
H121 H 0.346 0.67015 0.03845 0.0
C122 C 0.48327 0.74038 0.99269 0.0
O123 O 0.63957 0.774 0.09058 0.0
O124 O 0.54322 0.70329 0.11898 0.0
N125 N 0.42947 0.8689 0.11295 0.0
C126 C 0.47021 0.93128 0.12631 0.0
C127 C 0.45027 0.96106 0.16305 0.0
C128 C 0.38832 0.92678 0.18501 0.0
C129 C 0.34671 0.86304 0.16986 0.0
C130 C 0.36954 0.83566 0.13354 0.0
H131 H 0.51764 0.95806 0.10926 0.0
O132 O 0.56633 0.82002 0.16249 0.0
O133 O 0.48544 0.79022 0.10917 0.0
O134 O 0.60606 0.87999 0.06056 0.0
O135 O 0.52216 0.892 0.03699 0.0
C136 C 0.28337 0.82573 0.18917 0.0
C137 C 0.24393 0.76212 0.17164 0.0
H138 H 0.18316 0.64091 0.13026 0.0
H139 H 0.23371 0.59936 0.06866 0.0
H140 H 0.48255 1.01039 0.17431 0.0
H141 H 0.37307 0.94998 0.21323 0.0
H142 H 0.2644 0.84558 0.21733 0.0
H143 H 0.19526 0.73395 0.18665 0.0
Mn144 Mn 0.78918 0.53949 0.2721 0.0
Mn145 Mn 0.64165 0.41807 0.24668 0.0
C146 C 0.71582 0.48685 0.33993 0.0
C147 C 0.89974 0.57927 0.29196 0.0
C148 C 0.68885 0.55494 0.21285 0.0
O149 O 0.79641 0.50486 0.19986 0.0
O150 O 0.70336 0.41075 0.2007 0.0
C151 C 0.64659 0.30181 0.27549 0.0
N152 N 0.61978 0.33999 0.28099 0.0
C153 C 0.53552 0.26273 0.33529 0.0
C154 C 0.55939 0.22054 0.32674 0.0
C155 C 0.61574 0.24057 0.29737 0.0
C156 C 0.567 0.3222 0.31076 0.0
H157 H 0.69165 0.3184 0.25519 0.0
C158 C 0.7607 0.44661 0.18362 0.0
O159 O 0.87988 0.61538 0.27143 0.0
O160 O 0.85591 0.51982 0.29838 0.0
N161 N 0.58008 0.42242 0.2921 0.0
C162 C 0.56725 0.47111 0.30019 0.0
C163 C 0.51673 0.46192 0.33341 0.0
C164 C 0.48056 0.40315 0.35873 0.0
C165 C 0.49588 0.35444 0.3511 0.0
C166 C 0.54673 0.36637 0.31749 0.0
H167 H 0.59553 0.5169 0.28189 0.0
O168 O 0.76363 0.54489 0.34641 0.0
O169 O 0.7123 0.46426 0.29425 0.0
O170 O 0.73678 0.58025 0.24378 0.0
O171 O 0.65617 0.49443 0.20709 0.0
C172 C 0.46324 0.2948 0.37606 0.0
C173 C 0.48251 0.2487 0.36764 0.0
H174 H 0.53656 0.17357 0.34382 0.0
H175 H 0.63595 0.20931 0.29245 0.0
H176 H 0.50607 0.50026 0.33982 0.0
H177 H 0.44186 0.39633 0.38455 0.0
H178 H 0.4234 0.28397 0.40197 0.0
H179 H 0.45663 0.20314 0.38693 0.0
Mn180 Mn 0.28033 0.77248 0.42608 0.0
Mn181 Mn 0.26551 0.6298 0.39147 0.0
C182 C 0.26096 0.69503 0.48776 0.0
C183 C 0.34522 0.87901 0.45473 0.0
C184 C 0.16067 0.6645 0.37065 0.0
O185 O 0.32241 0.79127 0.35464 0.0
O186 O 0.31679 0.69595 0.34021 0.0
C187 C 0.4018 0.65928 0.39444 0.0
N188 N 0.33939 0.62354 0.41074 0.0
C189 C 0.36242 0.54762 0.45135 0.0
C190 C 0.4269 0.58347 0.43492 0.0
C191 C 0.44679 0.63991 0.40678 0.0
C192 C 0.32 0.56967 0.4384 0.0
H193 H 0.41701 0.70183 0.37169 0.0
C194 C 0.33603 0.75432 0.32829 0.0
O195 O 0.2901 0.86038 0.43216 0.0
O196 O 0.36374 0.83698 0.45879 0.0
N197 N 0.21927 0.56288 0.44019 0.0
C198 C 0.15887 0.54021 0.45994 0.0
C199 C 0.13272 0.48669 0.49244 0.0
C200 C 0.16958 0.45781 0.50496 0.0
C201 C 0.23298 0.48414 0.48621 0.0
C202 C 0.25644 0.53782 0.45442 0.0
H203 H 0.1323 0.56476 0.45281 0.0
O204 O 0.24598 0.73924 0.49681 0.0
O205 O 0.2847 0.69649 0.44258 0.0
O206 O 0.18918 0.71963 0.39286 0.0
O207 O 0.18564 0.62832 0.36806 0.0
C208 C 0.27417 0.45989 0.49845 0.0
C209 C 0.33878 0.49134 0.48066 0.0
H210 H 0.46163 0.56845 0.44412 0.0
H211 H 0.49649 0.66793 0.39404 0.0
H212 H 0.08469 0.46833 0.50833 0.0
H213 H 0.14941 0.41662 0.53012 0.0
H214 H 0.25656 0.41734 0.52179 0.0
H215 H 0.37033 0.47266 0.49037 0.0
C216 C 0.45369 0.06061 0.46961 0.0
C217 C 0.46165 0.06713 0.52375 0.0
C218 C 0.38647 0.95111 0.53277 0.0
C219 C 0.38371 0.94408 0.47831 0.0
N220 N 0.42076 0.99048 0.39467 0.0
N221 N 0.43869 1.01853 0.60754 0.0
C222 C 0.41879 0.99842 0.44667 0.0
C223 C 0.4287 1.01228 0.55555 0.0
N224 N 0.47663 0.11411 0.44004 0.0
N225 N 0.34688 0.89966 0.56266 0.0
H226 H 0.46655 0.06276 0.62576 0.0
H227 H 0.42286 0.97988 0.63242 0.0
H228 H 0.31557 0.85432 0.54743 0.0
H229 H 0.34106 0.90261 0.6021 0.0
H230 H 0.46307 0.11184 0.40183 0.0
H231 H 0.50296 0.16055 0.45498 0.0
H232 H 0.45202 0.02702 0.37017 0.0
H233 H 0.39458 0.94601 0.37636 0.0
C234 C 0.41541 0.38106 0.61516 0.0
C235 C 0.43855 0.35004 0.64781 0.0
C236 C 0.41435 0.39632 0.72381 0.0
C237 C 0.39055 0.42668 0.69095 0.0
N238 N 0.35194 0.4339 0.60751 0.0
N239 N 0.4486 0.31723 0.73313 0.0
C240 C 0.38629 0.41493 0.63724 0.0
C241 C 0.43476 0.35457 0.7022 0.0
N242 N 0.42391 0.38072 0.56313 0.0
N243 N 0.41872 0.40852 0.77553 0.0
H244 H 0.46324 0.28586 0.71879 0.0
H245 H 0.44058 0.31311 0.77264 0.0
H246 H 0.40043 0.43544 0.79295 0.0
H247 H 0.44335 0.395 0.80091 0.0
H248 H 0.41515 0.40891 0.53784 0.0
H249 H 0.44463 0.35609 0.54549 0.0
H250 H 0.33985 0.41876 0.56963 0.0
H251 H 0.32921 0.4581 0.62238 0.0
C252 C 1.00353 0.35949 0.84154 0.0
C253 C 0.97025 0.39438 0.83639 0.0
C254 C 0.06559 0.47977 0.79174 0.0
C255 C 0.10155 0.4487 0.80397 0.0
N256 N 0.10701 0.36662 0.85335 0.0
N257 N 0.9594 0.46896 0.7819 0.0
C258 C 0.07103 0.39056 0.83222 0.0
C259 C 0.99842 0.44969 0.80467 0.0
N260 N 0.97014 0.29494 0.85017 0.0
N261 N 0.09529 0.53866 0.76905 0.0
H262 H 0.90907 0.44209 0.78398 0.0
H263 H 0.97545 0.50515 0.75459 0.0
H264 H 0.14346 0.56247 0.75783 0.0
H265 H 0.07362 0.56684 0.76544 0.0
H266 H 0.99226 0.26687 0.85057 0.0
H267 H 0.91989 0.26784 0.84752 0.0
H268 H 0.0874 0.32772 0.87835 0.0
H269 H 0.1574 0.39025 0.85155 0.0
C270 C 0.66115 0.03012 0.05316 0.0
C271 C 0.62754 0.97718 0.01918 0.0
C272 C 0.66803 0.04972 0.94472 0.0
C273 C 0.69818 0.10316 0.97876 0.0
N274 N 0.72331 0.14578 0.06531 0.0
N275 N 0.5977 0.935 0.93342 0.0
C276 C 0.6947 0.09373 0.03301 0.0
C277 C 0.63098 0.98669 0.96518 0.0
N278 N 0.66156 1.01927 0.10472 0.0
N279 N 0.67546 0.05915 0.89273 0.0
H280 H 0.57846 0.88802 0.94628 0.0
H281 H 0.58731 0.93855 0.89519 0.0
H282 H 0.69856 0.10448 0.87606 0.0
H283 H 0.66139 0.02236 0.86576 0.0
H284 H 0.68988 0.05429 0.13157 0.0
H285 H 0.63605 0.97372 0.12085 0.0
H286 H 0.71613 0.14369 0.10488 0.0
H287 H 0.75307 0.1925 0.05253 0.0
C288 C 0.71375 0.66291 0.17458 0.0
C289 C 0.66879 0.59651 0.183 0.0
C290 C 0.59152 0.61091 0.12977 0.0
C291 C 0.62986 0.67841 0.13333 0.0
N292 N 0.72594 0.76868 0.16956 0.0
N293 N 0.55494 0.51168 0.17342 0.0
C294 C 0.69068 0.70465 0.15865 0.0
C295 C 0.60485 0.57145 0.16197 0.0
N296 N 0.77881 0.68613 0.17842 0.0
N297 N 0.54354 0.58376 0.09397 0.0
H298 H 0.55709 0.47941 0.19822 0.0
H299 H 0.50744 0.49645 0.16226 0.0
H300 H 0.53698 0.61137 0.06673 0.0
H301 H 0.51759 0.53448 0.08674 0.0
H302 H 0.81278 0.73335 0.16928 0.0
H303 H 0.79889 0.65658 0.18269 0.0
H304 H 0.76791 0.7882 0.19179 0.0
H305 H 0.70994 0.80087 0.16167 0.0
C306 C 0.04085 0.58317 0.36169 0.0
C307 C 0.09552 0.64137 0.34584 0.0
C308 C 1.02312 0.65466 0.28569 0.0
C309 C 0.96788 0.60431 0.3108 0.0
N310 N 0.92967 0.53743 0.3868 0.0
N311 N 0.13751 0.73439 0.29111 0.0
C312 C 0.97835 0.57393 0.35327 0.0
C313 C 0.08615 0.67837 0.30785 0.0
N314 N 0.04697 0.53394 0.38078 0.0
N315 N 1.01672 0.67688 0.23918 0.0
H316 H 0.18508 0.74981 0.30213 0.0
H317 H 0.13226 0.76665 0.2679 0.0
H318 H 0.97297 0.6577 0.21953 0.0
H319 H 0.05612 0.70919 0.21727 0.0
H320 H 1.00703 0.49026 0.39126 0.0
H321 H 0.08916 0.53183 0.37608 0.0
H322 H 0.93764 0.51748 0.41954 0.0
H323 H 0.88468 0.53483 0.3861 0.0
C324 C 0.65543 0.34031 0.42562 0.0
C325 C 0.62082 0.3523 0.46463 0.0
C326 C 0.64581 0.45297 0.42068 0.0
C327 C 0.68461 0.44274 0.38447 0.0
N328 N 0.7425 0.38646 0.3641 0.0
N329 N 0.59537 0.42836 0.50497 0.0
C330 C 0.69428 0.38938 0.39047 0.0
C331 C 0.61872 0.41068 0.46361 0.0
N332 N 0.65025 0.28114 0.42141 0.0
N333 N 0.6348 0.50304 0.41415 0.0
H334 H 0.57807 0.40116 0.5382 0.0
H335 H 0.59885 0.47315 0.50857 0.0
H336 H 0.65626 0.53637 0.38471 0.0
H337 H 0.60083 0.50873 0.43544 0.0
H338 H 0.67333 0.26899 0.39308 0.0
H339 H 0.61697 0.24165 0.44255 0.0
H340 H 0.75664 0.35272 0.37163 0.0
H341 H 0.77308 0.4215 0.3385 0.0
C342 C 0.32768 0.66008 0.53762 0.0
C343 C 0.26792 0.6586 0.53077 0.0
C344 C 0.22731 0.5963 0.61025 0.0
C345 C 0.28477 0.59192 0.6133 0.0
N346 N 0.3801 0.60389 0.57026 0.0
N347 N 0.15723 0.61845 0.55729 0.0
C348 C 0.33143 0.61825 0.57344 0.0
C349 C 0.21656 0.62455 0.56609 0.0
N350 N 0.3823 0.70434 0.51272 0.0
N351 N 0.18484 0.57754 0.65045 0.0
H352 H 0.14763 0.63905 0.52586 0.0
H353 H 0.11601 0.5879 0.57828 0.0
H354 H 0.18922 0.55558 0.68311 0.0
H355 H 0.14731 0.58784 0.65303 0.0
H356 H 0.42806 0.7108 0.52035 0.0
H357 H 0.38368 0.73979 0.48913 0.0
H358 H 0.41453 0.62047 0.541 0.0
H359 H 0.38191 0.5699 0.59382 0.0
C360 C 0.67175 0.32754 0.77814 0.0
C361 C 0.67768 0.28158 0.80847 0.0
C362 C 0.59691 0.19712 0.7511 0.0
C363 C 0.60511 0.24496 0.71537 0.0
N364 N 0.65848 0.35841 0.6939 0.0
N365 N 0.63225 0.16916 0.82913 0.0
C366 C 0.64579 0.31071 0.72817 0.0
C367 C 0.6364 0.21513 0.79637 0.0
N368 N 0.68323 0.38502 0.79829 0.0
N369 N 0.55041 0.13477 0.74233 0.0
H370 H 0.6462 0.17873 0.86755 0.0
H371 H 0.61302 0.12116 0.81867 0.0
H372 H 0.52258 0.11993 0.70889 0.0
H373 H 0.53696 0.09819 0.76894 0.0
H374 H 0.6752 0.41757 0.77789 0.0
H375 H 0.68739 0.39519 0.83736 0.0
H376 H 0.6946 0.40582 0.70034 0.0
H377 H 0.63815 0.35133 0.65759 0.0
C378 C 0.39135 0.66669 0.86942 0.0
C379 C 0.39185 0.60797 0.86624 0.0
C380 C 0.45052 0.63425 0.94799 0.0
C381 C 0.45937 0.69738 0.94656 0.0
N382 N 0.44096 0.77417 0.89938 0.0
N383 N 0.42989 0.53936 0.89954 0.0
C384 C 0.43157 0.71387 0.90526 0.0
C385 C 0.42436 0.59303 0.90441 0.0
N386 N 0.35156 0.67802 0.83894 0.0
N387 N 0.45956 0.61059 0.99273 0.0
H388 H 0.41041 0.50759 0.86856 0.0
H389 H 0.45883 0.52993 0.92378 0.0
H390 H 0.46964 0.63573 0.02737 0.0
H391 H 0.44804 0.56296 0.99694 0.0
H392 H 0.35053 0.72093 0.84067 0.0
H393 H 0.31671 0.64364 0.81469 0.0
H394 H 0.47209 0.81356 0.92188 0.0
H395 H 0.47209 0.81356 0.92188 0.0
C396 C 0.86589 0.42016 0.08195 0.0
C397 C 0.81619 0.37797 0.04786 0.0
C398 C 0.73607 0.36403 0.11244 0.0
C399 C 0.78305 0.41819 0.14114 0.0
N400 N 0.89733 0.49089 0.15636 0.0
N401 N 0.70063 0.31705 0.02936 0.0
C402 C 0.84953 0.44465 0.12667 0.0
C403 C 0.75057 0.35339 0.06218 0.0
N404 N 0.9284 0.43572 0.07218 0.0
N405 N 0.68 0.31743 0.13408 0.0
H406 H 0.70561 0.30334 0.99254 0.0
H407 H 0.65311 0.30557 0.03742 0.0
H408 H 0.67211 0.31197 0.17325 0.0
H409 H 0.64718 0.27575 0.11457 0.0
H410 H 0.96634 0.46105 0.09782 0.0
H411 H 0.94172 0.41979 0.03935 0.0
H412 H 0.9447 0.51937 0.14354 0.0
H413 H 0.89008 0.5 0.19429 0.0
C414 C 0.35911 0.7324 0.23983 0.0
C415 C 0.37637 0.77722 0.28084 0.0
C416 C 0.4784 0.84861 0.23597 0.0
C417 C 0.46389 0.79971 0.1988 0.0
N418 N 0.39876 0.68718 0.17614 0.0
N419 N 0.4595 0.87382 0.32243 0.0
C420 C 0.40666 0.73925 0.20381 0.0
C421 C 0.43768 0.83476 0.28006 0.0
N422 N 0.29695 0.68267 0.23563 0.0
N423 N 0.53087 0.90822 0.22922 0.0
H424 H 0.43315 0.86499 0.35632 0.0
H425 H 0.50651 0.91225 0.32571 0.0
H426 H 0.56232 0.91949 0.19804 0.0
H427 H 0.53977 0.94771 0.25191 0.0
H428 H 0.28119 0.64885 0.20601 0.0
H429 H 0.25936 0.67941 0.25859 0.0
H430 H 0.36075 0.64081 0.18235 0.0
H431 H 0.43368 0.68843 0.15126 0.0
loop_
_geom_bond_atom_site_label_1
_geom_bond_atom_site_label_2
_geom_bond_distance
_geom_bond_site_symmetry_2
_ccdc_geom_bond_type
Mn0 O5 2.095 . S
Mn0 O15 2.162 . S
Mn0 O16 2.297 . S
Mn0 O24 2.385 . S
Mn0 O25 2.209 . S
Mn0 O26 2.094 . S
Mn1 O6 2.121 . S
Mn1 N8 2.257 . S
Mn1 N17 2.282 . S
Mn1 O25 2.215 . S
Mn1 O27 2.117 . S
C2 O24 1.234 . S
C2 O25 1.283 . S
C3 O15 1.281 . S
C3 O16 1.236 . S
C4 O26 1.240 . S
C4 O27 1.264 . S
O5 Mn0 2.095 . S
O5 C14 1.250 . S
O6 Mn1 2.121 . S
O6 C14 1.258 . S
C7 N8 1.326 . S
C7 C11 1.460 . S
C7 H13 0.929 . S
N8 Mn1 2.257 . S
N8 C7 1.326 . S
N8 C12 1.362 . S
C9 C10 1.258 . S
C9 C12 1.431 . S
C9 C29 1.449 . S
C10 C9 1.258 . S
C10 C11 1.477 . S
C10 H30 0.931 . S
C11 C7 1.460 . S
C11 C10 1.477 . S
C11 H31 0.930 . S
C12 N8 1.362 . S
C12 C9 1.431 . S
C12 C22 1.476 . S
H13 C7 0.929 . S
C14 O5 1.250 . S
C14 O6 1.258 . S
O15 Mn0 2.162 . S
O15 C3 1.281 . S
O16 Mn0 2.297 . S
O16 C3 1.236 . S
N17 Mn1 2.282 . S
N17 C18 1.328 . S
N17 C22 1.318 . S
C18 N17 1.328 . S
C18 C19 1.457 . S
C18 H23 0.929 . S
C19 C18 1.457 . S
C19 C20 1.291 . S
C19 H32 0.931 . S
C20 C19 1.291 . S
C20 C21 1.373 . S
C20 H33 0.929 . S
C21 C20 1.373 . S
C21 C22 1.396 . S
C21 C28 1.403 . S
C22 C12 1.476 . S
C22 N17 1.318 . S
C22 C21 1.396 . S
H23 C18 0.929 . S
O24 Mn0 2.385 . S
O24 C2 1.234 . S
O25 Mn0 2.209 . S
O25 Mn1 2.215 . S
O25 C2 1.283 . S
O26 Mn0 2.094 . S
O26 C4 1.240 . S
O27 Mn1 2.117 . S
O27 C4 1.264 . S
C28 C21 1.403 . S
C28 C29 1.399 . S
C28 H34 0.929 . S
C29 C9 1.449 . S
C29 C28 1.399 . S
C29 H35 0.930 . S
H30 C10 0.931 . S
H31 C11 0.930 . S
H32 C19 0.931 . S
H33 C20 0.929 . S
H34 C28 0.929 . S
H35 C29 0.930 . S
Mn36 O41 2.095 . S
Mn36 O51 2.162 . S
Mn36 O52 2.297 . S
Mn36 O60 2.385 . S
Mn36 O61 2.209 . S
Mn36 O62 2.094 . S
Mn37 O42 2.121 . S
Mn37 N44 2.257 . S
Mn37 N53 2.282 . S
Mn37 O61 2.215 . S
Mn37 O63 2.117 . S
C38 O60 1.234 . S
C38 O61 1.283 . S
C39 O51 1.281 . S
C39 O52 1.236 . S
C40 O62 1.240 . S
C40 O63 1.264 . S
O41 Mn36 2.095 . S
O41 C50 1.250 . S
O42 Mn37 2.121 . S
O42 C50 1.258 . S
C43 N44 1.326 . S
C43 C47 1.460 . S
C43 H49 0.929 . S
N44 Mn37 2.257 . S
N44 C43 1.326 . S
N44 C48 1.362 . S
C45 C46 1.258 . S
C45 C48 1.431 . S
C45 C65 1.449 . S
C46 C45 1.258 . S
C46 C47 1.477 . S
C46 H66 0.931 . S
C47 C43 1.460 . S
C47 C46 1.477 . S
C47 H67 0.930 . S
C48 N44 1.362 . S
C48 C45 1.431 . S
C48 C58 1.476 . S
H49 C43 0.929 . S
C50 O41 1.250 . S
C50 O42 1.258 . S
O51 Mn36 2.162 . S
O51 C39 1.281 . S
O52 Mn36 2.297 . S
O52 C39 1.236 . S
N53 Mn37 2.282 . S
N53 C54 1.328 . S
N53 C58 1.318 . S
C54 N53 1.328 . S
C54 C55 1.457 . S
C54 H59 0.929 . S
C55 C54 1.457 . S
C55 C56 1.291 . S
C55 H68 0.931 . S
C56 C55 1.291 . S
C56 C57 1.373 . S
C56 H69 0.929 . S
C57 C56 1.373 . S
C57 C58 1.396 . S
C57 C64 1.403 . S
C58 C48 1.476 . S
C58 N53 1.318 . S
C58 C57 1.396 . S
H59 C54 0.929 . S
O60 Mn36 2.385 . S
O60 C38 1.234 . S
O61 Mn36 2.209 . S
O61 Mn37 2.215 . S
O61 C38 1.283 . S
O62 Mn36 2.094 . S
O62 C40 1.240 . S
O63 Mn37 2.117 . S
O63 C40 1.264 . S
C64 C57 1.403 . S
C64 C65 1.399 . S
C64 H70 0.929 . S
C65 C45 1.449 . S
C65 C64 1.399 . S
C65 H71 0.930 . S
H66 C46 0.931 . S
H67 C47 0.930 . S
H68 C55 0.931 . S
H69 C56 0.929 . S
H70 C64 0.929 . S
H71 C65 0.930 . S
Mn72 O77 2.095 . S
Mn72 O87 2.162 . S
Mn72 O88 2.297 . S
Mn72 O96 2.385 1_556 S
Mn72 O97 2.209 . S
Mn72 O98 2.094 . S
Mn73 O78 2.121 . S
Mn73 N80 2.257 . S
Mn73 N89 2.282 . S
Mn73 O97 2.215 . S
Mn73 O99 2.117 . S
C74 O96 1.234 1_556 S
C74 O97 1.283 . S
C75 O87 1.281 . S
C75 O88 1.236 . S
C76 O98 1.240 . S
C76 O99 1.264 . S
O77 Mn72 2.095 . S
O77 C86 1.250 . S
O78 Mn73 2.121 . S
O78 C86 1.258 . S
C79 N80 1.326 . S
C79 C83 1.460 . S
C79 H85 0.929 . S
N80 Mn73 2.257 . S
N80 C79 1.326 . S
N80 C84 1.362 . S
C81 C82 1.258 . S
C81 C84 1.431 . S
C81 C101 1.449 1_556 S
C82 C81 1.258 . S
C82 C83 1.477 . S
C82 H102 0.931 . S
C83 C79 1.460 . S
C83 C82 1.477 . S
C83 H103 0.930 . S
C84 N80 1.362 . S
C84 C81 1.431 . S
C84 C94 1.476 . S
H85 C79 0.929 . S
C86 O77 1.250 . S
C86 O78 1.258 . S
O87 Mn72 2.162 . S
O87 C75 1.281 . S
O88 Mn72 2.297 . S
O88 C75 1.236 . S
N89 Mn73 2.282 . S
N89 C90 1.328 . S
N89 C94 1.318 . S
C90 N89 1.328 . S
C90 C91 1.457 1_556 S
C90 H95 0.929 . S
C91 C90 1.457 1_554 S
C91 C92 1.291 . S
C91 H104 0.931 . S
C92 C91 1.291 . S
C92 C93 1.373 . S
C92 H105 0.929 . S
C93 C92 1.373 . S
C93 C94 1.396 1_554 S
C93 C100 1.403 . S
C94 C84 1.476 . S
C94 N89 1.318 . S
C94 C93 1.396 1_556 S
H95 C90 0.929 . S
O96 Mn72 2.385 1_554 S
O96 C74 1.234 1_554 S
O97 Mn72 2.209 . S
O97 Mn73 2.215 . S
O97 C74 1.283 . S
O98 Mn72 2.094 . S
O98 C76 1.240 . S
O99 Mn73 2.117 . S
O99 C76 1.264 . S
C100 C93 1.403 . S
C100 C101 1.399 . S
C100 H106 0.929 . S
C101 C81 1.449 1_554 S
C101 C100 1.399 . S
C101 H107 0.930 . S
H102 C82 0.931 . S
H103 C83 0.930 . S
H104 C91 0.931 . S
H105 C92 0.929 . S
H106 C100 0.929 . S
H107 C101 0.930 . S
Mn108 O113 2.095 . S
Mn108 O123 2.162 . S
Mn108 O124 2.297 . S
Mn108 O132 2.385 . S
Mn108 O133 2.209 . S
Mn108 O134 2.094 . S
Mn109 O114 2.121 . S
Mn109 N116 2.257 . S
Mn109 N125 2.282 . S
Mn109 O133 2.215 . S
Mn109 O135 2.117 . S
C110 O132 1.234 . S
C110 O133 1.283 . S
C111 O123 1.281 . S
C111 O124 1.236 . S
C112 O134 1.240 . S
C112 O135 1.264 . S
O113 Mn108 2.095 . S
O113 C122 1.250 1_554 S
O114 Mn109 2.121 . S
O114 C122 1.258 1_554 S
C115 N116 1.326 . S
C115 C119 1.460 . S
C115 H121 0.929 . S
N116 Mn109 2.257 . S
N116 C115 1.326 . S
N116 C120 1.362 . S
C117 C118 1.258 . S
C117 C120 1.431 . S
C117 C137 1.449 . S
C118 C117 1.258 . S
C118 C119 1.477 . S
C118 H138 0.931 . S
C119 C115 1.460 . S
C119 C118 1.477 . S
C119 H139 0.930 . S
C120 N116 1.362 . S
C120 C117 1.431 . S
C120 C130 1.476 . S
H121 C115 0.929 . S
C122 O113 1.250 1_556 S
C122 O114 1.258 1_556 S
O123 Mn108 2.162 . S
O123 C111 1.281 . S
O124 Mn108 2.297 . S
O124 C111 1.236 . S
N125 Mn109 2.282 . S
N125 C126 1.328 . S
N125 C130 1.318 . S
C126 N125 1.328 . S
C126 C127 1.457 . S
C126 H131 0.929 . S
C127 C126 1.457 . S
C127 C128 1.291 . S
C127 H140 0.931 . S
C128 C127 1.291 . S
C128 C129 1.373 . S
C128 H141 0.929 . S
C129 C128 1.373 . S
C129 C130 1.396 . S
C129 C136 1.403 . S
C130 C120 1.476 . S
C130 N125 1.318 . S
C130 C129 1.396 . S
H131 C126 0.929 . S
O132 Mn108 2.385 . S
O132 C110 1.234 . S
O133 Mn108 2.209 . S
O133 Mn109 2.215 . S
O133 C110 1.283 . S
O134 Mn108 2.094 . S
O134 C112 1.240 . S
O135 Mn109 2.117 . S
O135 C112 1.264 . S
C136 C129 1.403 . S
C136 C137 1.399 . S
C136 H142 0.929 . S
C137 C117 1.449 . S
C137 C136 1.399 . S
C137 H143 0.930 . S
H138 C118 0.931 . S
H139 C119 0.930 . S
H140 C127 0.931 . S
H141 C128 0.929 . S
H142 C136 0.929 . S
H143 C137 0.930 . S
Mn144 O149 2.095 . S
Mn144 O159 2.162 . S
Mn144 O160 2.297 . S
Mn144 O168 2.385 . S
Mn144 O169 2.209 . S
Mn144 O170 2.094 . S
Mn145 O150 2.121 . S
Mn145 N152 2.257 . S
Mn145 N161 2.282 . S
Mn145 O169 2.215 . S
Mn145 O171 2.117 . S
C146 O168 1.234 . S
C146 O169 1.283 . S
C147 O159 1.281 . S
C147 O160 1.236 . S
C148 O170 1.240 . S
C148 O171 1.264 . S
O149 Mn144 2.095 . S
O149 C158 1.250 . S
O150 Mn145 2.121 . S
O150 C158 1.258 . S
C151 N152 1.326 . S
C151 C155 1.460 . S
C151 H157 0.929 . S
N152 Mn145 2.257 . S
N152 C151 1.326 . S
N152 C156 1.362 . S
C153 C154 1.258 . S
C153 C156 1.431 . S
C153 C173 1.449 . S
C154 C153 1.258 . S
C154 C155 1.477 . S
C154 H174 0.931 . S
C155 C151 1.460 . S
C155 C154 1.477 . S
C155 H175 0.930 . S
C156 N152 1.362 . S
C156 C153 1.431 . S
C156 C166 1.476 . S
H157 C151 0.929 . S
C158 O149 1.250 . S
C158 O150 1.258 . S
O159 Mn144 2.162 . S
O159 C147 1.281 . S
O160 Mn144 2.297 . S
O160 C147 1.236 . S
N161 Mn145 2.282 . S
N161 C162 1.328 . S
N161 C166 1.318 . S
C162 N161 1.328 . S
C162 C163 1.457 . S
C162 H167 0.929 . S
C163 C162 1.457 . S
C163 C164 1.291 . S
C163 H176 0.931 . S
C164 C163 1.291 . S
C164 C165 1.373 . S
C164 H177 0.929 . S
C165 C164 1.373 . S
C165 C166 1.396 . S
C165 C172 1.403 . S
C166 C156 1.476 . S
C166 N161 1.318 . S
C166 C165 1.396 . S
H167 C162 0.929 . S
O168 Mn144 2.385 . S
O168 C146 1.234 . S
O169 Mn144 2.209 . S
O169 Mn145 2.215 . S
O169 C146 1.283 . S
O170 Mn144 2.094 . S
O170 C148 1.240 . S
O171 Mn145 2.117 . S
O171 C148 1.264 . S
C172 C165 1.403 . S
C172 C173 1.399 . S
C172 H178 0.929 . S
C173 C153 1.449 . S
C173 C172 1.399 . S
C173 H179 0.930 . S
H174 C154 0.931 . S
H175 C155 0.930 . S
H176 C163 0.931 . S
H177 C164 0.929 . S
H178 C172 0.929 . S
H179 C173 0.930 . S
Mn180 O185 2.095 . S
Mn180 O195 2.162 . S
Mn180 O196 2.297 . S
Mn180 O204 2.385 . S
Mn180 O205 2.209 . S
Mn180 O206 2.094 . S
Mn181 O186 2.121 . S
Mn181 N188 2.257 . S
Mn181 N197 2.282 . S
Mn181 O205 2.215 . S
Mn181 O207 2.117 . S
C182 O204 1.234 . S
C182 O205 1.283 . S
C183 O195 1.281 . S
C183 O196 1.236 . S
C184 O206 1.240 . S
C184 O207 1.264 . S
O185 Mn180 2.095 . S
O185 C194 1.250 . S
O186 Mn181 2.121 . S
O186 C194 1.258 . S
C187 N188 1.326 . S
C187 C191 1.460 . S
C187 H193 0.929 . S
N188 Mn181 2.257 . S
N188 C187 1.326 . S
N188 C192 1.362 . S
C189 C190 1.258 . S
C189 C192 1.431 . S
C189 C209 1.449 . S
C190 C189 1.258 . S
C190 C191 1.477 . S
C190 H210 0.931 . S
C191 C187 1.460 . S
C191 C190 1.477 . S
C191 H211 0.930 . S
C192 N188 1.362 . S
C192 C189 1.431 . S
C192 C202 1.476 . S
H193 C187 0.929 . S
C194 O185 1.250 . S
C194 O186 1.258 . S
O195 Mn180 2.162 . S
O195 C183 1.281 . S
O196 Mn180 2.297 . S
O196 C183 1.236 . S
N197 Mn181 2.282 . S
N197 C198 1.328 . S
N197 C202 1.318 . S
C198 N197 1.328 . S
C198 C199 1.457 . S
C198 H203 0.929 . S
C199 C198 1.457 . S
C199 C200 1.291 . S
C199 H212 0.931 . S
C200 C199 1.291 . S
C200 C201 1.373 . S
C200 H213 0.929 . S
C201 C200 1.373 . S
C201 C202 1.396 . S
C201 C208 1.403 . S
C202 C192 1.476 . S
C202 N197 1.318 . S
C202 C201 1.396 . S
H203 C198 0.929 . S
O204 Mn180 2.385 . S
O204 C182 1.234 . S
O205 Mn180 2.209 . S
O205 Mn181 2.215 . S
O205 C182 1.283 . S
O206 Mn180 2.094 . S
O206 C184 1.240 . S
O207 Mn181 2.117 . S
O207 C184 1.264 . S
C208 C201 1.403 . S
C208 C209 1.399 . S
C208 H214 0.929 . S
C209 C189 1.449 . S
C209 C208 1.399 . S
C209 H215 0.930 . S
H210 C190 0.931 . S
H211 C191 0.930 . S
H212 C199 0.931 . S
H213 C200 0.929 . S
H214 C208 0.929 . S
H215 C209 0.930 . S
C216 C217 1.363 . S
C216 C222 1.379 1_545 S
C216 N224 1.356 . S
C217 C216 1.363 . S
C217 C223 1.363 . S
C218 C219 1.363 . S
C218 C223 1.379 1_565 S
C218 N225 1.356 . S
C219 C218 1.363 . S
C219 C222 1.363 . S
N220 C222 1.356 . S
N220 H232 0.984 . S
N220 H233 0.985 . S
N221 C223 1.356 . S
N221 H226 0.984 . S
N221 H227 0.985 . S
C222 C216 1.379 1_565 S
C222 C219 1.363 . S
C222 N220 1.356 . S
C223 C217 1.363 . S
C223 C218 1.379 1_545 S
C223 N221 1.356 . S
N224 C216 1.356 . S
N224 H230 0.984 . S
N224 H231 0.984 . S
N225 C218 1.356 . S
N225 H228 0.984 . S
N225 H229 0.985 . S
H226 N221 0.984 . S
H227 N221 0.985 . S
H228 N225 0.984 . S
H229 N225 0.985 . S
H230 N224 0.984 . S
H231 N224 0.984 . S
H232 N220 0.984 . S
H233 N220 0.985 . S
C234 C235 1.363 . S
C234 C240 1.379 . S
C234 N242 1.356 . S
C235 C234 1.363 . S
C235 C241 1.363 . S
C236 C237 1.363 . S
C236 C241 1.379 . S
C236 N243 1.356 . S
C237 C236 1.363 . S
C237 C240 1.363 . S
N238 C240 1.356 . S
N238 H250 0.984 . S
N238 H251 0.985 . S
N239 C241 1.356 . S
N239 H244 0.984 . S
N239 H245 0.985 . S
C240 C234 1.379 . S
C240 C237 1.363 . S
C240 N238 1.356 . S
C241 C235 1.363 . S
C241 C236 1.379 . S
C241 N239 1.356 . S
N242 C234 1.356 . S
N242 H248 0.984 . S
N242 H249 0.984 . S
N243 C236 1.356 . S
N243 H246 0.984 . S
N243 H247 0.985 . S
H244 N239 0.984 . S
H245 N239 0.985 . S
H246 N243 0.984 . S
H247 N243 0.985 . S
H248 N242 0.984 . S
H249 N242 0.984 . S
H250 N238 0.984 . S
H251 N238 0.985 . S
C252 C253 1.363 . S
C252 C258 1.379 1_655 S
C252 N260 1.356 . S
C253 C252 1.363 . S
C253 C259 1.363 . S
C254 C255 1.363 . S
C254 C259 1.379 1_455 S
C254 N261 1.356 . S
C255 C254 1.363 . S
C255 C258 1.363 . S
N256 C258 1.356 . S
N256 H268 0.984 . S
N256 H269 0.985 . S
N257 C259 1.356 . S
N257 H262 0.984 . S
N257 H263 0.985 . S
C258 C252 1.379 1_455 S
C258 C255 1.363 . S
C258 N256 1.356 . S
C259 C253 1.363 . S
C259 C254 1.379 1_655 S
C259 N257 1.356 . S
N260 C252 1.356 . S
N260 H266 0.984 . S
N260 H267 0.984 . S
N261 C254 1.356 . S
N261 H264 0.984 . S
N261 H265 0.985 . S
H262 N257 0.984 . S
H263 N257 0.985 . S
H264 N261 0.984 . S
H265 N261 0.985 . S
H266 N260 0.984 . S
H267 N260 0.984 . S
H268 N256 0.984 . S
H269 N256 0.985 . S
C270 C271 1.363 . S
C270 C276 1.379 1_565 S
C270 N278 1.356 . S
C271 C270 1.363 . S
C271 C277 1.363 1_554 S
C272 C273 1.363 . S
C272 C277 1.379 1_545 S
C272 N279 1.356 . S
C273 C272 1.363 . S
C273 C276 1.363 1_556 S
N274 C276 1.356 . S
N274 H286 0.984 . S
N274 H287 0.985 . S
N275 C277 1.356 . S
N275 H280 0.984 . S
N275 H281 0.985 . S
C276 C270 1.379 1_545 S
C276 C273 1.363 1_554 S
C276 N274 1.356 . S
C277 C271 1.363 1_556 S
C277 C272 1.379 1_565 S
C277 N275 1.356 . S
N278 C270 1.356 . S
N278 H284 0.984 . S
N278 H285 0.984 . S
N279 C272 1.356 . S
N279 H282 0.984 . S
N279 H283 0.985 . S
H280 N275 0.984 . S
H281 N275 0.985 . S
H282 N279 0.984 . S
H283 N279 0.985 . S
H284 N278 0.984 . S
H285 N278 0.984 . S
H286 N274 0.984 . S
H287 N274 0.985 . S
C288 C289 1.363 . S
C288 C294 1.379 . S
C288 N296 1.356 . S
C289 C288 1.363 . S
C289 C295 1.363 . S
C290 C291 1.363 . S
C290 C295 1.379 . S
C290 N297 1.356 . S
C291 C290 1.363 . S
C291 C294 1.363 . S
N292 C294 1.356 . S
N292 H304 0.984 . S
N292 H305 0.985 . S
N293 C295 1.356 . S
N293 H298 0.984 . S
N293 H299 0.985 . S
C294 C288 1.379 . S
C294 C291 1.363 . S
C294 N292 1.356 . S
C295 C289 1.363 . S
C295 C290 1.379 . S
C295 N293 1.356 . S
N296 C288 1.356 . S
N296 H302 0.984 . S
N296 H303 0.984 . S
N297 C290 1.356 . S
N297 H300 0.984 . S
N297 H301 0.985 . S
H298 N293 0.984 . S
H299 N293 0.985 . S
H300 N297 0.984 . S
H301 N297 0.985 . S
H302 N296 0.984 . S
H303 N296 0.984 . S
H304 N292 0.984 . S
H305 N292 0.985 . S
C306 C307 1.363 . S
C306 C312 1.379 1_455 S
C306 N314 1.356 . S
C307 C306 1.363 . S
C307 C313 1.363 . S
C308 C309 1.363 . S
C308 C313 1.379 1_655 S
C308 N315 1.356 . S
C309 C308 1.363 . S
C309 C312 1.363 . S
N310 C312 1.356 . S
N310 H322 0.984 . S
N310 H323 0.985 . S
N311 C313 1.356 . S
N311 H316 0.984 . S
N311 H317 0.985 . S
C312 C306 1.379 1_655 S
C312 C309 1.363 . S
C312 N310 1.356 . S
C313 C307 1.363 . S
C313 C308 1.379 1_455 S
C313 N311 1.356 . S
N314 C306 1.356 . S
N314 H320 0.984 . S
N314 H321 0.984 . S
N315 C308 1.356 . S
N315 H318 0.984 . S
N315 H319 0.985 . S
H316 N311 0.984 . S
H317 N311 0.985 . S
H318 N315 0.984 . S
H319 N315 0.985 . S
H320 N314 0.984 . S
H321 N314 0.984 . S
H322 N310 0.984 . S
H323 N310 0.985 . S
C324 C325 1.363 . S
C324 C330 1.379 . S
C324 N332 1.356 . S
C325 C324 1.363 . S
C325 C331 1.363 . S
C326 C327 1.363 . S
C326 C331 1.379 . S
C326 N333 1.356 . S
C327 C326 1.363 . S
C327 C330 1.363 . S
N328 C330 1.356 . S
N328 H340 0.984 . S
N328 H341 0.985 . S
N329 C331 1.356 . S
N329 H334 0.984 . S
N329 H335 0.985 . S
C330 C324 1.379 . S
C330 C327 1.363 . S
C330 N328 1.356 . S
C331 C325 1.363 . S
C331 C326 1.379 . S
C331 N329 1.356 . S
N332 C324 1.356 . S
N332 H338 0.984 . S
N332 H339 0.984 . S
N333 C326 1.356 . S
N333 H336 0.984 . S
N333 H337 0.985 . S
H334 N329 0.984 . S
H335 N329 0.985 . S
H336 N333 0.984 . S
H337 N333 0.985 . S
H338 N332 0.984 . S
H339 N332 0.984 . S
H340 N328 0.984 . S
H341 N328 0.985 . S
C342 C343 1.363 . S
C342 C348 1.379 . S
C342 N350 1.356 . S
C343 C342 1.363 . S
C343 C349 1.363 . S
C344 C345 1.363 . S
C344 C349 1.379 . S
C344 N351 1.356 . S
C345 C344 1.363 . S
C345 C348 1.363 . S
N346 C348 1.356 . S
N346 H358 0.984 . S
N346 H359 0.985 . S
N347 C349 1.356 . S
N347 H352 0.984 . S
N347 H353 0.985 . S
C348 C342 1.379 . S
C348 C345 1.363 . S
C348 N346 1.356 . S
C349 C343 1.363 . S
C349 C344 1.379 . S
C349 N347 1.356 . S
N350 C342 1.356 . S
N350 H356 0.984 . S
N350 H357 0.984 . S
N351 C344 1.356 . S
N351 H354 0.984 . S
N351 H355 0.985 . S
H352 N347 0.984 . S
H353 N347 0.985 . S
H354 N351 0.984 . S
H355 N351 0.985 . S
H356 N350 0.984 . S
H357 N350 0.984 . S
H358 N346 0.984 . S
H359 N346 0.985 . S
C360 C361 1.363 . S
C360 C366 1.379 . S
C360 N368 1.356 . S
C361 C360 1.363 . S
C361 C367 1.363 . S
C362 C363 1.363 . S
C362 C367 1.379 . S
C362 N369 1.356 . S
C363 C362 1.363 . S
C363 C366 1.363 . S
N364 C366 1.356 . S
N364 H376 0.984 . S
N364 H377 0.985 . S
N365 C367 1.356 . S
N365 H370 0.984 . S
N365 H371 0.985 . S
C366 C360 1.379 . S
C366 C363 1.363 . S
C366 N364 1.356 . S
C367 C361 1.363 . S
C367 C362 1.379 . S
C367 N365 1.356 . S
N368 C360 1.356 . S
N368 H374 0.984 . S
N368 H375 0.984 . S
N369 C362 1.356 . S
N369 H372 0.984 . S
N369 H373 0.985 . S
H370 N365 0.984 . S
H371 N365 0.985 . S
H372 N369 0.984 . S
H373 N369 0.985 . S
H374 N368 0.984 . S
H375 N368 0.984 . S
H376 N364 0.984 . S
H377 N364 0.985 . S
C378 C379 1.363 . S
C378 C384 1.379 . S
C378 N386 1.356 . S
C379 C378 1.363 . S
C379 C385 1.363 . S
C380 C381 1.363 . S
C380 C385 1.379 . S
C380 N387 1.356 1_556 S
C381 C380 1.363 . S
C381 C384 1.363 . S
N382 C384 1.356 . S
N382 H394 0.984 . S
N382 H395 0.985 . S
N383 C385 1.356 . S
N383 H388 0.984 . S
N383 H389 0.985 . S
C384 C378 1.379 . S
C384 C381 1.363 . S
C384 N382 1.356 . S
C385 C379 1.363 . S
C385 C380 1.379 . S
C385 N383 1.356 . S
N386 C378 1.356 . S
N386 H392 0.984 . S
N386 H393 0.984 . S
N387 C380 1.356 1_554 S
N387 H390 0.984 . S
N387 H391 0.985 . S
H388 N383 0.984 . S
H389 N383 0.985 . S
H390 N387 0.984 . S
H391 N387 0.985 . S
H392 N386 0.984 . S
H393 N386 0.984 . S
H394 N382 0.984 . S
H395 N382 0.985 . S
C396 C397 1.363 . S
C396 C402 1.379 . S
C396 N404 1.356 1_554 S
C397 C396 1.363 . S
C397 C403 1.363 . S
C398 C399 1.363 . S
C398 C403 1.379 . S
C398 N405 1.356 . S
C399 C398 1.363 . S
C399 C402 1.363 . S
N400 C402 1.356 . S
N400 H412 0.984 . S
N400 H413 0.985 . S
N401 C403 1.356 . S
N401 H406 0.984 . S
N401 H407 0.985 . S
C402 C396 1.379 . S
C402 C399 1.363 . S
C402 N400 1.356 . S
C403 C397 1.363 . S
C403 C398 1.379 . S
C403 N401 1.356 . S
N404 C396 1.356 1_556 S
N404 H410 0.984 . S
N404 H411 0.984 . S
N405 C398 1.356 . S
N405 H408 0.984 . S
N405 H409 0.985 . S
H406 N401 0.984 . S
H407 N401 0.985 . S
H408 N405 0.984 . S
H409 N405 0.985 . S
H410 N404 0.984 . S
H411 N404 0.984 . S
H412 N400 0.984 . S
H413 N400 0.985 . S
C414 C415 1.363 . S
C414 C420 1.379 . S
C414 N422 1.356 . S
C415 C414 1.363 . S
C415 C421 1.363 . S
C416 C417 1.363 . S
C416 C421 1.379 . S
C416 N423 1.356 . S
C417 C416 1.363 . S
C417 C420 1.363 . S
N418 C420 1.356 . S
N418 H430 0.984 . S
N418 H431 0.985 . S
N419 C421 1.356 . S
N419 H424 0.984 . S
N419 H425 0.985 . S
C420 C414 1.379 . S
C420 C417 1.363 . S
C420 N418 1.356 . S
C421 C415 1.363 . S
C421 C416 1.379 . S
C421 N419 1.356 . S
N422 C414 1.356 . S
N422 H428 0.984 . S
N422 H429 0.984 . S
N423 C416 1.356 . S
N423 H426 0.984 . S
N423 H427 0.985 . S
H424 N419 0.984 . S
H425 N419 0.985 . S
H426 N423 0.984 . S
H427 N423 0.985 . S
H428 N422 0.984 . S
H429 N422 0.984 . S
H430 N418 0.984 . S
H431 N418 0.985 . S
C217 C4 1.552 . S
C219 C183 1.555 . S
C235 C3 1.555 . S
C237 C40 1.552 . S
C253 C76 1.552 . S
C255 C39 1.555 . S
C271 C112 1.552 . S
C273 C75 1.555 . S
C289 C148 1.552 . S
C291 C111 1.555 . S
C307 C184 1.552 . S
C309 C147 1.555 . S
C325 C14 1.422 . S
C327 C146 1.473 . S
C343 C182 1.473 . S
C345 C50 1.422 . S
C361 C86 1.422 . S
C363 C2 1.473 . S
C379 C38 1.473 . S
C381 C122 1.422 . S
C397 C74 1.473 1_554 S
C399 C158 1.422 . S
C415 C194 1.422 . S
C417 C110 1.473 . S
