# Generated by pormake.
# Topology yfz, (5)-cn, num edge types: 1
# Building blocks:
#     Node 0, Type 0, BuildingBlock: BEQFEK_clean_sbu_0, # of connection points: 5
#     Node 1, Type 0, BuildingBlock: BEQFEK_clean_sbu_0, # of connection points: 5
#     Node 2, Type 0, BuildingBlock: BEQFEK_clean_sbu_0, # of connection points: 5
#     Node 3, Type 0, BuildingBlock: BEQFEK_clean_sbu_0, # of connection points: 5
#     Node 4, Type 0, BuildingBlock: BEQFEK_clean_sbu_0, # of connection points: 5
#     Node 5, Type 0, BuildingBlock: BEQFEK_clean_sbu_0, # of connection points: 5
#     Node 6, Type 0, BuildingBlock: BEQFEK_clean_sbu_0, # of connection points: 5
#     Node 7, Type 0, BuildingBlock: BEQFEK_clean_sbu_0, # of connection points: 5
#     Edge 8, Type (0, 0), BuildingBlock: OJICUG_clean_linker_0, # of connection points: 2
#     Edge 9, Type (0, 0), BuildingBlock: OJICUG_clean_linker_0, # of connection points: 2
#     Edge 10, Type (0, 0), BuildingBlock: OJICUG_clean_linker_0, # of connection points: 2
#     Edge 11, Type (0, 0), BuildingBlock: OJICUG_clean_linker_0, # of connection points: 2
#     Edge 12, Type (0, 0), BuildingBlock: OJICUG_clean_linker_0, # of connection points: 2
#     Edge 13, Type (0, 0), BuildingBlock: OJICUG_clean_linker_0, # of connection points: 2
#     Edge 14, Type (0, 0), BuildingBlock: OJICUG_clean_linker_0, # of connection points: 2
#     Edge 15, Type (0, 0), BuildingBlock: OJICUG_clean_linker_0, # of connection points: 2
#     Edge 16, Type (0, 0), BuildingBlock: OJICUG_clean_linker_0, # of connection points: 2
#     Edge 17, Type (0, 0), BuildingBlock: OJICUG_clean_linker_0, # of connection points: 2
#     Edge 18, Type (0, 0), BuildingBlock: OJICUG_clean_linker_0, # of connection points: 2
#     Edge 19, Type (0, 0), BuildingBlock: OJICUG_clean_linker_0, # of connection points: 2
#     Edge 20, Type (0, 0), BuildingBlock: OJICUG_clean_linker_0, # of connection points: 2
#     Edge 21, Type (0, 0), BuildingBlock: OJICUG_clean_linker_0, # of connection points: 2
#     Edge 22, Type (0, 0), BuildingBlock: OJICUG_clean_linker_0, # of connection points: 2
#     Edge 23, Type (0, 0), BuildingBlock: OJICUG_clean_linker_0, # of connection points: 2
#     Edge 24, Type (0, 0), BuildingBlock: OJICUG_clean_linker_0, # of connection points: 2
#     Edge 25, Type (0, 0), BuildingBlock: OJICUG_clean_linker_0, # of connection points: 2
#     Edge 26, Type (0, 0), BuildingBlock: OJICUG_clean_linker_0, # of connection points: 2
#     Edge 27, Type (0, 0), BuildingBlock: OJICUG_clean_linker_0, # of connection points: 2
# Relax obj value: 0.215
# Max RMSD: 0.182
# Mean RMSD: 0.182
data_MOF--net-yfz--node1-BEQFEK_clean_sbu_0--edge1-OJICUG_clean_linker_0
_symmetry_space_group_name_H-M    P1
_symmetry_Int_Tables_number       1
_symmetry_cell_setting            triclinic
loop_
_symmetry_equiv_pos_as_xyz
'x, y, z'
_cell_length_a     38.489116
_cell_length_b     38.490535
_cell_length_c     14.930058
_cell_angle_alpha  89.947466
_cell_angle_beta   89.972095
_cell_angle_gamma 90.020621
loop_
_atom_site_label
_atom_site_type_symbol
_atom_site_fract_x
_atom_site_fract_y
_atom_site_fract_z
_atom_type_partial_charge
Co0 Co 0.59945 0.09867 0.22895 0.0
Co1 Co 0.61946 0.11826 0.42494 0.0
C2 C 0.67335 0.09379 0.29898 0.0
O3 O 0.65009 0.09142 0.23884 0.0
O4 O 0.66571 0.10304 0.3787 0.0
C5 C 0.60745 0.0703 0.05479 0.0
O6 O 0.63354 0.05271 0.08871 0.0
C7 C 0.63564 0.11427 0.61934 0.0
C8 C 0.59495 0.14994 0.66882 0.0
C9 C 0.61934 0.12586 0.69727 0.0
N10 N 0.61995 0.12946 0.54888 0.0
N11 N 0.59655 0.15157 0.57927 0.0
C12 C 0.66562 0.08968 0.61092 0.0
H13 H 0.68154 0.09659 0.55159 0.0
H14 H 0.65605 0.06278 0.60137 0.0
H15 H 0.68209 0.09053 0.67189 0.0
C16 C 0.54841 0.05326 0.32466 0.0
N17 N 0.57475 0.07639 0.32261 0.0
N18 N 0.58399 0.08396 0.40522 0.0
C19 C 0.56406 0.06541 0.46236 0.0
C20 C 0.54055 0.04571 0.41361 0.0
C21 C 0.53063 0.03961 0.24292 0.0
H22 H 0.5295 0.06008 0.19065 0.0
H23 H 0.54586 0.0175 0.21592 0.0
H24 H 0.50397 0.03047 0.25881 0.0
O25 O 0.59115 0.14901 0.22928 0.0
O26 O 0.60734 0.16317 0.3665 0.0
H27 H 0.56069 0.08867 0.59209 0.0
H28 H 0.55521 0.04215 0.59329 0.0
C29 C 0.56941 0.06395 0.56154 0.0
H30 H 0.59724 0.06 0.57548 0.0
H31 H 0.57996 0.16603 0.53848 0.0
O32 O 0.58598 0.0851 0.107 0.0
C33 C 0.5963 0.17174 0.28932 0.0
Co34 Co 0.39174 0.59957 0.73085 0.0
Co35 Co 0.36986 0.61863 0.92729 0.0
C36 C 0.39442 0.67294 0.79808 0.0
O37 O 0.39791 0.64998 0.73788 0.0
O38 O 0.38472 0.6648 0.87713 0.0
C39 C 0.42223 0.60719 0.55802 0.0
O40 O 0.43791 0.63393 0.59472 0.0
C41 C 0.38409 0.6308 0.11782 0.0
C42 C 0.33653 0.60889 0.17871 0.0
C43 C 0.3695 0.62101 0.19929 0.0
N44 N 0.36121 0.62337 0.05244 0.0
N45 N 0.33244 0.61139 0.08958 0.0
C46 C 0.42053 0.64268 0.10053 0.0
H47 H 0.42766 0.63852 0.02929 0.0
H48 H 0.43913 0.62895 0.14491 0.0
H49 H 0.42233 0.67087 0.11522 0.0
C50 C 0.43947 0.55158 0.82974 0.0
N51 N 0.41465 0.57631 0.8265 0.0
N52 N 0.40351 0.58259 0.90841 0.0
C53 C 0.41976 0.56075 0.9655 0.0
C54 C 0.44374 0.54128 0.91833 0.0
C55 C 0.45848 0.53822 0.74955 0.0
H56 H 0.46202 0.55937 0.69984 0.0
H57 H 0.48411 0.5273 0.76877 0.0
H58 H 0.44279 0.5174 0.71788 0.0
O59 O 0.341 0.59056 0.73377 0.0
O60 O 0.32517 0.60542 0.87131 0.0
H61 H 0.41356 0.52616 0.0781 0.0
H62 H 0.42439 0.56984 0.10657 0.0
C63 C 0.40882 0.55375 0.06014 0.0
H64 H 0.38081 0.55915 0.06898 0.0
H65 H 0.31101 0.6024 0.05361 0.0
O66 O 0.40606 0.58583 0.60817 0.0
C67 C 0.31763 0.59456 0.79321 0.0
Co68 Co 0.89054 0.39146 0.22842 0.0
Co69 Co 0.8706 0.37183 0.42458 0.0
C70 C 0.81667 0.39624 0.29848 0.0
O71 O 0.83992 0.39866 0.23826 0.0
O72 O 0.82433 0.38699 0.37821 0.0
C73 C 0.88258 0.41989 0.0542 0.0
O74 O 0.85655 0.43755 0.08816 0.0
C75 C 0.85438 0.37605 0.61893 0.0
C76 C 0.89471 0.34004 0.66879 0.0
C77 C 0.87051 0.36435 0.69699 0.0
N78 N 0.86999 0.36069 0.54862 0.0
N79 N 0.89317 0.33839 0.57924 0.0
C80 C 0.82462 0.4009 0.61024 0.0
H81 H 0.80869 0.3941 0.55093 0.0
H82 H 0.83443 0.42771 0.60049 0.0
H83 H 0.8081 0.40022 0.67117 0.0
C84 C 0.94134 0.43714 0.32358 0.0
N85 N 0.91516 0.41384 0.32186 0.0
N86 N 0.90609 0.40614 0.40458 0.0
C87 C 0.92606 0.4247 0.46148 0.0
C88 C 0.94932 0.44463 0.41242 0.0
C89 C 0.95884 0.45105 0.24162 0.0
H90 H 0.96036 0.43055 0.18962 0.0
H91 H 0.94315 0.47281 0.21438 0.0
H92 H 0.98531 0.46074 0.25727 0.0
O93 O 0.89888 0.3411 0.2291 0.0
O94 O 0.88275 0.32692 0.36645 0.0
H95 H 0.92953 0.40086 0.5906 0.0
H96 H 0.93566 0.44729 0.59277 0.0
C97 C 0.92106 0.42583 0.56083 0.0
H98 H 0.89333 0.43009 0.57554 0.0
H99 H 0.90966 0.32375 0.53862 0.0
O100 O 0.90401 0.405 0.10637 0.0
C101 C 0.89377 0.31836 0.28926 0.0
Co102 Co 0.09829 0.89008 0.73374 0.0
Co103 Co 0.12015 0.87099 0.9302 0.0
C104 C 0.09551 0.81669 0.80149 0.0
O105 O 0.09206 0.83969 0.74126 0.0
O106 O 0.10523 0.82479 0.88049 0.0
C107 C 0.06782 0.88241 0.56102 0.0
O108 O 0.05215 0.85566 0.59789 0.0
C109 C 0.10598 0.85885 0.12085 0.0
C110 C 0.1535 0.88088 0.18144 0.0
C111 C 0.12056 0.86868 0.20221 0.0
N112 N 0.12883 0.86632 0.05534 0.0
N113 N 0.15757 0.87839 0.09231 0.0
C114 C 0.06957 0.84688 0.10376 0.0
H115 H 0.0624 0.85105 0.03255 0.0
H116 H 0.05094 0.86054 0.14821 0.0
H117 H 0.06785 0.81867 0.11851 0.0
C118 C 0.0507 0.93821 0.83227 0.0
N119 N 0.07544 0.9134 0.82924 0.0
N120 N 0.0865 0.90708 0.9112 0.0
C121 C 0.07025 0.92895 0.96815 0.0
C122 C 0.04638 0.94852 0.92079 0.0
C123 C 0.03182 0.95164 0.75194 0.0
H124 H 0.04775 0.97222 0.71984 0.0
H125 H 0.02804 0.93044 0.70261 0.0
H126 H 0.00632 0.96288 0.77105 0.0
O127 O 0.14901 0.89906 0.73639 0.0
O128 O 0.16487 0.88416 0.87392 0.0
H129 H 0.10904 0.93048 0.07188 0.0
H130 H 0.07624 0.96341 0.08093 0.0
C131 C 0.08104 0.93585 0.06288 0.0
H132 H 0.06543 0.91968 0.10914 0.0
H133 H 0.17897 0.88742 0.0562 0.0
O134 O 0.08397 0.90379 0.61102 0.0
C135 C 0.1724 0.89503 0.79574 0.0
Co136 Co 0.59877 0.39064 0.26047 0.0
Co137 Co 0.61888 0.37117 0.06443 0.0
C138 C 0.67267 0.3958 0.19034 0.0
O139 O 0.64939 0.39805 0.2505 0.0
O140 O 0.66509 0.38656 0.11058 0.0
C141 C 0.60668 0.41903 0.43459 0.0
O142 O 0.63271 0.43672 0.4006 0.0
C143 C 0.63503 0.37516 0.86994 0.0
C144 C 0.59432 0.33945 0.82068 0.0
C145 C 0.61871 0.36354 0.7921 0.0
N146 N 0.61936 0.35997 0.94049 0.0
N147 N 0.59594 0.33784 0.91023 0.0
C148 C 0.66502 0.39976 0.87819 0.0
H149 H 0.68095 0.39288 0.93749 0.0
H150 H 0.65547 0.42666 0.88768 0.0
H151 H 0.68148 0.39889 0.81716 0.0
C152 C 0.54781 0.43609 0.16496 0.0
N153 N 0.57407 0.4129 0.1669 0.0
N154 N 0.58332 0.40536 0.08427 0.0
C155 C 0.56346 0.42399 0.0272 0.0
C156 C 0.54001 0.44372 0.07604 0.0
C157 C 0.53011 0.44981 0.24677 0.0
H158 H 0.52882 0.42931 0.29894 0.0
H159 H 0.5455 0.4718 0.27386 0.0
H160 H 0.50352 0.45914 0.23094 0.0
O161 O 0.5906 0.34027 0.26009 0.0
O162 O 0.60692 0.32621 0.12287 0.0
H163 H 0.56018 0.40082 0.89736 0.0
H164 H 0.55471 0.44734 0.89633 0.0
C165 C 0.56889 0.42552 0.92804 0.0
H166 H 0.59673 0.42948 0.91419 0.0
H167 H 0.57936 0.32338 0.95111 0.0
O168 O 0.58525 0.40415 0.38244 0.0
C169 C 0.59587 0.31758 0.20003 0.0
Co170 Co 0.09861 0.59879 0.7587 0.0
Co171 Co 0.12038 0.61887 0.56349 0.0
C172 C 0.09553 0.67244 0.69477 0.0
O173 O 0.09171 0.6492 0.75436 0.0
O174 O 0.10566 0.66468 0.6158 0.0
C175 C 0.06854 0.60373 0.93254 0.0
O176 O 0.04929 0.62858 0.89841 0.0
C177 C 0.10807 0.63313 0.37214 0.0
C178 C 0.1545 0.60817 0.31387 0.0
C179 C 0.12267 0.62259 0.29077 0.0
N180 N 0.12963 0.62355 0.43874 0.0
N181 N 0.15775 0.60964 0.40319 0.0
C182 C 0.07464 0.65199 0.38834 0.0
H183 H 0.07541 0.66542 0.454 0.0
H184 H 0.05268 0.63337 0.38991 0.0
H185 H 0.06997 0.67133 0.33451 0.0
C186 C 0.05085 0.55121 0.6589 0.0
N187 N 0.0757 0.5759 0.6627 0.0
N188 N 0.08646 0.58293 0.58083 0.0
C189 C 0.06974 0.56179 0.52295 0.0
C190 C 0.04604 0.54177 0.56989 0.0
C191 C 0.03217 0.53719 0.73895 0.0
H192 H 0.02887 0.55793 0.78981 0.0
H193 H 0.00644 0.52645 0.71995 0.0
H194 H 0.04797 0.51611 0.76912 0.0
O195 O 0.14934 0.59024 0.75593 0.0
O196 O 0.16509 0.60537 0.61873 0.0
H197 H 0.10798 0.56001 0.4181 0.0
H198 H 0.07313 0.52952 0.40497 0.0
C199 C 0.07971 0.55626 0.427 0.0
H200 H 0.0652 0.5745 0.38364 0.0
H201 H 0.17812 0.59899 0.44018 0.0
O202 O 0.08542 0.5838 0.88039 0.0
C203 C 0.17269 0.59439 0.69663 0.0
Co204 Co 0.89122 0.09942 0.26119 0.0
Co205 Co 0.87127 0.11892 0.06505 0.0
C206 C 0.81741 0.09417 0.19107 0.0
O207 O 0.84064 0.09189 0.25131 0.0
O208 O 0.82505 0.10348 0.11135 0.0
C209 C 0.88337 0.07095 0.43543 0.0
O210 O 0.85742 0.05316 0.40155 0.0
C211 C 0.85509 0.11467 0.87073 0.0
C212 C 0.89542 0.15072 0.82082 0.0
C213 C 0.87122 0.12641 0.79267 0.0
N214 N 0.87068 0.13004 0.94102 0.0
N215 N 0.89387 0.15236 0.91038 0.0
C216 C 0.82533 0.08979 0.87942 0.0
H217 H 0.80934 0.09661 0.93866 0.0
H218 H 0.83515 0.063 0.8893 0.0
H219 H 0.80886 0.09041 0.81843 0.0
C220 C 0.94223 0.05397 0.16608 0.0
N221 N 0.916 0.07719 0.16777 0.0
N222 N 0.9069 0.08479 0.08506 0.0
C223 C 0.92688 0.06623 0.02817 0.0
C224 C 0.9502 0.04641 0.07724 0.0
C225 C 0.95974 0.04015 0.24807 0.0
H226 H 0.96115 0.06067 0.30007 0.0
H227 H 0.94413 0.01832 0.27532 0.0
H228 H 0.98627 0.03059 0.23246 0.0
O229 O 0.8993 0.14982 0.26053 0.0
O230 O 0.88317 0.16391 0.12315 0.0
H231 H 0.93023 0.08979 0.89868 0.0
H232 H 0.93622 0.04334 0.89708 0.0
C233 C 0.92174 0.06491 0.9289 0.0
H234 H 0.89398 0.06068 0.91459 0.0
H235 H 0.91035 0.16701 0.95099 0.0
O236 O 0.90474 0.08595 0.3832 0.0
C237 C 0.89411 0.17253 0.20036 0.0
Co238 Co 0.39148 0.89074 0.75986 0.0
Co239 Co 0.36948 0.87168 0.56351 0.0
C240 C 0.39425 0.8174 0.69247 0.0
O241 O 0.39776 0.84036 0.75268 0.0
O242 O 0.38447 0.82554 0.61351 0.0
C243 C 0.42193 0.88316 0.93267 0.0
O244 O 0.43761 0.85642 0.89599 0.0
C245 C 0.38368 0.85954 0.37292 0.0
C246 C 0.33615 0.88147 0.31217 0.0
C247 C 0.3691 0.86934 0.29149 0.0
N248 N 0.36081 0.86696 0.43837 0.0
N249 N 0.33206 0.87896 0.40132 0.0
C250 C 0.42011 0.84765 0.39012 0.0
H251 H 0.42725 0.85181 0.46134 0.0
H252 H 0.43873 0.86138 0.34569 0.0
H253 H 0.42189 0.81946 0.37544 0.0
C254 C 0.43921 0.93872 0.66065 0.0
N255 N 0.4143 0.91406 0.66408 0.0
N256 N 0.4031 0.9078 0.58224 0.0
C257 C 0.41938 0.92958 0.52503 0.0
C258 C 0.44347 0.94899 0.57202 0.0
C259 C 0.45839 0.95197 0.74066 0.0
H260 H 0.46179 0.93082 0.79043 0.0
H261 H 0.48409 0.96268 0.72122 0.0
H262 H 0.44289 0.97293 0.77236 0.0
O263 O 0.3407 0.89956 0.75728 0.0
O264 O 0.32479 0.88474 0.61979 0.0
H265 H 0.41323 0.96416 0.41243 0.0
H266 H 0.42399 0.92048 0.38394 0.0
C267 C 0.40845 0.93658 0.43042 0.0
H268 H 0.38043 0.93121 0.42168 0.0
H269 H 0.31064 0.88795 0.43735 0.0
O270 O 0.40579 0.90451 0.8825 0.0
C271 C 0.31729 0.89552 0.69801 0.0
C272 C 0.48896 0.96383 0.45931 0.0
C273 C 0.4684 0.97396 0.53266 0.0
H274 H 0.5281 0.97862 0.36428 0.0
C275 C 0.47038 0.00822 0.5637 0.0
H276 H 0.48771 0.93748 0.43406 0.0
C277 C 0.49279 0.03194 0.52226 0.0
C278 C 0.51412 0.02157 0.45046 0.0
H279 H 0.45424 0.01677 0.61891 0.0
H280 H 0.49382 0.05835 0.54711 0.0
C281 C 0.51174 0.98738 0.41879 0.0
C282 C 0.49239 0.45793 0.96751 0.0
C283 C 0.51379 0.46809 0.03933 0.0
H284 H 0.45398 0.47347 0.87103 0.0
C285 C 0.5117 0.50227 0.07116 0.0
H286 H 0.4932 0.43153 0.94252 0.0
C287 C 0.48913 0.52602 0.03079 0.0
C288 C 0.46849 0.51611 0.95744 0.0
H289 H 0.52813 0.51087 0.12568 0.0
H290 H 0.48809 0.55236 0.05618 0.0
C291 C 0.47018 0.48185 0.92623 0.0
C292 C 0.97741 0.50329 0.41807 0.0
C293 C 0.97565 0.46892 0.44886 0.0
H294 H 0.00088 0.55344 0.43386 0.0
C295 C -0.00249 0.45847 0.51949 0.0
H296 H 0.96064 0.5121 0.36443 0.0
C297 C 0.01985 0.48226 0.56067 0.0
C298 C 0.02122 0.51672 0.53057 0.0
H299 H -0.00307 0.43193 0.54366 0.0
H300 H 0.03641 0.47364 0.61495 0.0
C301 C 0.00011 0.52695 0.45839 0.0
C302 C 0.97822 0.98773 0.07264 0.0
C303 C 0.9764 0.02196 0.04088 0.0
H304 H 0.00161 0.93753 0.05794 0.0
C305 C -0.00192 0.03209 0.96949 0.0
H306 H 0.96158 0.97915 0.12686 0.0
C307 C 0.02027 0.00809 0.92851 0.0
C308 C 0.02169 0.97379 0.95964 0.0
H309 H -0.00251 0.05852 0.94458 0.0
H310 H 0.03669 0.01644 0.8736 0.0
C311 C 0.00079 0.9639 0.03261 0.0
C312 C 0.59121 0.21972 0.17668 0.0
C313 C 0.5921 0.20895 0.26672 0.0
H314 H 0.59183 0.2625 0.08489 0.0
C315 C 0.5914 0.23424 0.33448 0.0
H316 H 0.59176 0.20089 0.12281 0.0
C317 C 0.59102 0.26956 0.31267 0.0
C318 C 0.59187 0.28034 0.22262 0.0
H319 H 0.59188 0.22678 0.40445 0.0
H320 H 0.59143 0.2884 0.36654 0.0
C321 C 0.59136 0.25504 0.15487 0.0
C322 C 0.2355 0.58877 0.65465 0.0
C323 C 0.20964 0.58951 0.72112 0.0
H324 H 0.28989 0.58917 0.62525 0.0
C325 C 0.21968 0.58847 0.81166 0.0
H326 H 0.22862 0.58933 0.58431 0.0
C327 C 0.25483 0.58874 0.83519 0.0
C328 C 0.28068 0.58959 0.76871 0.0
H329 H 0.20043 0.589 0.86458 0.0
H330 H 0.2617 0.58929 0.90553 0.0
C331 C 0.27064 0.58856 0.67818 0.0
C332 C 0.89893 0.22052 0.31287 0.0
C333 C 0.89811 0.20976 0.22286 0.0
H334 H 0.89807 0.26327 0.40454 0.0
C335 C 0.89868 0.23508 0.15503 0.0
H336 H 0.89847 0.20167 0.36679 0.0
C337 C 0.89886 0.2704 0.17674 0.0
C338 C 0.89795 0.28115 0.26676 0.0
H339 H 0.89824 0.22764 0.08508 0.0
H340 H 0.89835 0.28925 0.12282 0.0
C341 C 0.89859 0.25583 0.33458 0.0
C342 C 0.27037 0.90115 0.81349 0.0
C343 C 0.28035 0.90031 0.72287 0.0
H344 H 0.22842 0.90009 0.90769 0.0
C345 C 0.25443 0.90114 0.65661 0.0
H346 H 0.28967 0.90055 0.86625 0.0
C347 C 0.21931 0.90124 0.68042 0.0
C348 C 0.20933 0.90003 0.77102 0.0
H349 H 0.26125 0.90073 0.58621 0.0
H350 H 0.20002 0.90073 0.62763 0.0
C351 C 0.23524 0.90078 0.8373 0.0
C352 C 0.39929 0.77119 0.81012 0.0
C353 C 0.39837 0.78047 0.71871 0.0
H354 H 0.39861 0.73009 0.9071 0.0
C355 C 0.39894 0.75404 0.65414 0.0
H356 H 0.39883 0.79088 0.86189 0.0
C357 C 0.39924 0.71916 0.68035 0.0
C358 C 0.39845 0.70988 0.77177 0.0
H359 H 0.39838 0.76026 0.58338 0.0
H360 H 0.39874 0.69947 0.62859 0.0
C361 C 0.39907 0.73631 0.83633 0.0
C362 C 0.75323 0.40137 0.33565 0.0
C363 C 0.77987 0.40081 0.27153 0.0
H364 H 0.69858 0.40081 0.36032 0.0
C365 C 0.77088 0.40181 0.18 0.0
H366 H 0.75921 0.40076 0.40653 0.0
C367 C 0.73607 0.40147 0.15323 0.0
C368 C 0.70944 0.40058 0.21734 0.0
H369 H 0.79072 0.4014 0.12855 0.0
H370 H 0.73009 0.40095 0.08235 0.0
C371 C 0.71842 0.40148 0.30888 0.0
C372 C 0.09043 0.77065 0.68369 0.0
C373 C 0.0914 0.77977 0.77515 0.0
H374 H 0.0911 0.72975 0.58641 0.0
C375 C 0.0909 0.75322 0.83954 0.0
H376 H 0.09083 0.79043 0.63203 0.0
C377 C 0.09062 0.71837 0.81307 0.0
C378 C 0.09138 0.70928 0.72158 0.0
H379 H 0.09151 0.75932 0.91034 0.0
H380 H 0.09117 0.69855 0.86462 0.0
C381 C 0.09068 0.73583 0.65724 0.0
C382 C 0.75401 0.08864 0.15378 0.0
C383 C 0.78061 0.08936 0.21795 0.0
H384 H 0.69937 0.0889 0.12903 0.0
C385 C 0.77157 0.08828 0.30946 0.0
H386 H 0.76004 0.0893 0.08291 0.0
C387 C 0.73675 0.08841 0.33617 0.0
C388 C 0.71015 0.08917 0.27201 0.0
H389 H 0.79138 0.08879 0.36093 0.0
H390 H 0.73072 0.08889 0.40704 0.0
C391 C 0.71919 0.08833 0.18049 0.0
C392 C 0.62855 0.07667 0.8075 0.0
C393 C 0.61982 0.11154 0.78948 0.0
H394 H 0.63155 0.03613 0.9064 0.0
C395 C 0.60653 0.13203 0.85936 0.0
H396 H 0.63739 0.0595 0.75514 0.0
C397 C 0.60145 0.11805 0.9443 0.0
C398 C 0.61019 0.08334 0.96232 0.0
H399 H 0.59938 0.1589 0.84808 0.0
H400 H 0.5913 0.13477 -0.00353 0.0
C401 C 0.62438 0.0629 0.89374 0.0
C402 C 0.42359 0.63666 0.40795 0.0
C403 C 0.41431 0.60779 0.46091 0.0
H404 H 0.41615 0.66402 0.28415 0.0
C405 C 0.39277 0.58215 0.42365 0.0
H406 H 0.44 0.65703 0.43471 0.0
C407 C 0.37904 0.58633 0.33789 0.0
C408 C 0.38678 0.61604 0.28686 0.0
H409 H 0.38515 0.55954 0.46223 0.0
H410 H 0.36174 0.5665 0.31213 0.0
C411 C 0.40991 0.64076 0.32167 0.0
C412 C 0.8882 0.37205 0.94406 0.0
C413 C 0.87976 0.40684 0.96182 0.0
H414 H 0.89002 0.33116 0.84809 0.0
C415 C 0.86581 0.42739 0.89307 0.0
H416 H 0.89816 0.35525 -0.00363 0.0
C417 C 0.8616 0.41363 0.80689 0.0
C418 C 0.87005 0.37869 0.78912 0.0
H419 H 0.85886 0.45423 0.90554 0.0
H420 H 0.85296 0.43087 0.7544 0.0
C421 C 0.88309 0.3581 0.85918 0.0
C422 C 0.08023 0.84883 0.32484 0.0
C423 C 0.10328 0.87361 0.28982 0.0
H424 H 0.05019 0.8325 0.43806 0.0
C425 C 0.11095 0.90335 0.34066 0.0
H426 H 0.07405 0.82555 0.28747 0.0
C427 C 0.09722 0.90751 0.42644 0.0
C428 C 0.07574 0.88181 0.46389 0.0
H429 H 0.12819 0.92322 0.31474 0.0
H430 H 0.10477 0.93014 0.46487 0.0
C431 C 0.06654 0.8529 0.41113 0.0
C432 C 0.60074 0.37129 0.54515 0.0
C433 C 0.60946 0.40601 0.52706 0.0
H434 H 0.59872 0.33045 0.64142 0.0
C435 C 0.62365 0.42647 0.59555 0.0
H436 H 0.59058 0.35454 0.49305 0.0
C437 C 0.62787 0.41272 0.68178 0.0
C438 C 0.61916 0.37784 0.69987 0.0
H439 H 0.6308 0.45325 0.58283 0.0
H440 H 0.63672 0.4299 0.73408 0.0
C441 C 0.60585 0.35733 0.63007 0.0
C442 C 0.05854 0.61656 0.09534 0.0
C443 C 0.08101 0.60741 0.02533 0.0
H444 H 0.05311 0.62708 0.23448 0.0
C445 C 0.11675 0.60496 0.04234 0.0
H446 H 0.03087 0.61885 0.08343 0.0
C447 C 0.12985 0.61154 0.12751 0.0
C448 C 0.10757 0.61995 0.19906 0.0
H449 H 0.13486 0.59884 0.98903 0.0
H450 H 0.15767 0.60961 0.13719 0.0
C451 C 0.07158 0.62208 0.1819 0.0
C452 C 0.8667 0.06335 0.59663 0.0
C453 C 0.8805 0.08398 0.52781 0.0
H454 H 0.85395 0.05981 0.7354 0.0
C455 C 0.88878 0.11882 0.54552 0.0
H456 H 0.85989 0.03648 0.5842 0.0
C457 C 0.88365 0.13274 0.63042 0.0
C458 C 0.87075 0.11208 0.70055 0.0
H459 H 0.89863 0.13568 0.49315 0.0
H460 H 0.89045 0.15972 0.64148 0.0
C461 C 0.86246 0.07709 0.68283 0.0
C462 C 0.40953 0.8496 0.16905 0.0
C463 C 0.38639 0.87431 0.20387 0.0
H464 H 0.43966 0.83335 0.05602 0.0
C465 C 0.37865 0.904 0.1528 0.0
H466 H 0.41577 0.82636 0.20659 0.0
C467 C 0.39239 0.90818 0.06702 0.0
C468 C 0.41397 0.88256 0.02978 0.0
H469 H 0.36134 0.92381 0.17855 0.0
H470 H 0.38478 0.93077 0.02842 0.0
C471 C 0.42324 0.8537 0.08276 0.0
loop_
_geom_bond_atom_site_label_1
_geom_bond_atom_site_label_2
_geom_bond_distance
_geom_bond_site_symmetry_2
_ccdc_geom_bond_type
Co0 O3 1.970 . S
Co0 N17 1.989 . S
Co0 O25 1.967 . S
Co0 O32 1.920 . S
Co1 O4 1.966 . S
Co1 N10 2.022 . S
Co1 N18 1.993 . S
Co1 O26 1.941 . S
C2 O3 1.258 . S
C2 O4 1.263 . S
O3 Co0 1.970 . S
O3 C2 1.258 . S
O4 Co1 1.966 . S
O4 C2 1.263 . S
C5 O6 1.235 . S
C5 O32 1.289 . S
O6 C5 1.235 . S
C7 C9 1.400 . S
C7 N10 1.351 . S
C7 C12 1.501 . S
C8 C9 1.387 . S
C8 N11 1.341 . S
C9 C7 1.400 . S
C9 C8 1.387 . S
N10 Co1 2.022 . S
N10 C7 1.351 . S
N10 N11 1.365 . S
N11 C8 1.341 . S
N11 N10 1.365 . S
N11 H31 0.862 . S
C12 C7 1.501 . S
C12 H13 0.961 . S
C12 H14 0.961 . S
C12 H15 0.960 . S
H13 C12 0.961 . S
H14 C12 0.961 . S
H15 C12 0.960 . S
C16 N17 1.342 . S
C16 C20 1.401 . S
C16 C21 1.499 . S
N17 Co0 1.989 . S
N17 C16 1.342 . S
N17 N18 1.388 . S
N18 Co1 1.993 . S
N18 N17 1.388 . S
N18 C19 1.346 . S
C19 N18 1.346 . S
C19 C20 1.396 . S
C19 C29 1.510 . S
C20 C16 1.401 . S
C20 C19 1.396 . S
C21 C16 1.499 . S
C21 H22 0.959 . S
C21 H23 0.960 . S
C21 H24 0.961 . S
H22 C21 0.959 . S
H23 C21 0.960 . S
H24 C21 0.961 . S
O25 Co0 1.967 . S
O25 C33 1.258 . S
O26 Co1 1.941 . S
O26 C33 1.266 . S
H27 C29 0.959 . S
H28 C29 0.961 . S
C29 C19 1.510 . S
C29 H27 0.959 . S
C29 H28 0.961 . S
C29 H30 0.960 . S
H30 C29 0.960 . S
H31 N11 0.862 . S
O32 Co0 1.920 . S
O32 C5 1.289 . S
C33 O25 1.258 . S
C33 O26 1.266 . S
Co34 O37 1.970 . S
Co34 N51 1.989 . S
Co34 O59 1.967 . S
Co34 O66 1.920 . S
Co35 O38 1.966 . S
Co35 N44 2.022 1_556 S
Co35 N52 1.993 . S
Co35 O60 1.941 . S
C36 O37 1.258 . S
C36 O38 1.263 . S
O37 Co34 1.970 . S
O37 C36 1.258 . S
O38 Co35 1.966 . S
O38 C36 1.263 . S
C39 O40 1.235 . S
C39 O66 1.289 . S
O40 C39 1.235 . S
C41 C43 1.400 . S
C41 N44 1.351 . S
C41 C46 1.501 . S
C42 C43 1.387 . S
C42 N45 1.341 . S
C43 C41 1.400 . S
C43 C42 1.387 . S
N44 Co35 2.022 1_554 S
N44 C41 1.351 . S
N44 N45 1.365 . S
N45 C42 1.341 . S
N45 N44 1.365 . S
N45 H65 0.862 . S
C46 C41 1.501 . S
C46 H47 0.961 . S
C46 H48 0.961 . S
C46 H49 0.960 . S
H47 C46 0.961 . S
H48 C46 0.961 . S
H49 C46 0.960 . S
C50 N51 1.342 . S
C50 C54 1.401 . S
C50 C55 1.499 . S
N51 Co34 1.989 . S
N51 C50 1.342 . S
N51 N52 1.388 . S
N52 Co35 1.993 . S
N52 N51 1.388 . S
N52 C53 1.346 . S
C53 N52 1.346 . S
C53 C54 1.396 . S
C53 C63 1.510 1_556 S
C54 C50 1.401 . S
C54 C53 1.396 . S
C55 C50 1.499 . S
C55 H56 0.959 . S
C55 H57 0.960 . S
C55 H58 0.961 . S
H56 C55 0.959 . S
H57 C55 0.960 . S
H58 C55 0.961 . S
O59 Co34 1.967 . S
O59 C67 1.258 . S
O60 Co35 1.941 . S
O60 C67 1.266 . S
H61 C63 0.959 . S
H62 C63 0.961 . S
C63 C53 1.510 1_554 S
C63 H61 0.959 . S
C63 H62 0.961 . S
C63 H64 0.960 . S
H64 C63 0.960 . S
H65 N45 0.862 . S
O66 Co34 1.920 . S
O66 C39 1.289 . S
C67 O59 1.258 . S
C67 O60 1.266 . S
Co68 O71 1.970 . S
Co68 N85 1.989 . S
Co68 O93 1.967 . S
Co68 O100 1.920 . S
Co69 O72 1.966 . S
Co69 N78 2.022 . S
Co69 N86 1.993 . S
Co69 O94 1.941 . S
C70 O71 1.258 . S
C70 O72 1.263 . S
O71 Co68 1.970 . S
O71 C70 1.258 . S
O72 Co69 1.966 . S
O72 C70 1.263 . S
C73 O74 1.235 . S
C73 O100 1.289 . S
O74 C73 1.235 . S
C75 C77 1.400 . S
C75 N78 1.351 . S
C75 C80 1.501 . S
C76 C77 1.387 . S
C76 N79 1.341 . S
C77 C75 1.400 . S
C77 C76 1.387 . S
N78 Co69 2.022 . S
N78 C75 1.351 . S
N78 N79 1.365 . S
N79 C76 1.341 . S
N79 N78 1.365 . S
N79 H99 0.862 . S
C80 C75 1.501 . S
C80 H81 0.961 . S
C80 H82 0.961 . S
C80 H83 0.960 . S
H81 C80 0.961 . S
H82 C80 0.961 . S
H83 C80 0.960 . S
C84 N85 1.342 . S
C84 C88 1.401 . S
C84 C89 1.499 . S
N85 Co68 1.989 . S
N85 C84 1.342 . S
N85 N86 1.388 . S
N86 Co69 1.993 . S
N86 N85 1.388 . S
N86 C87 1.346 . S
C87 N86 1.346 . S
C87 C88 1.396 . S
C87 C97 1.510 . S
C88 C84 1.401 . S
C88 C87 1.396 . S
C89 C84 1.499 . S
C89 H90 0.959 . S
C89 H91 0.960 . S
C89 H92 0.961 . S
H90 C89 0.959 . S
H91 C89 0.960 . S
H92 C89 0.961 . S
O93 Co68 1.967 . S
O93 C101 1.258 . S
O94 Co69 1.941 . S
O94 C101 1.266 . S
H95 C97 0.959 . S
H96 C97 0.961 . S
C97 C87 1.510 . S
C97 H95 0.959 . S
C97 H96 0.961 . S
C97 H98 0.960 . S
H98 C97 0.960 . S
H99 N79 0.862 . S
O100 Co68 1.920 . S
O100 C73 1.289 . S
C101 O93 1.258 . S
C101 O94 1.266 . S
Co102 O105 1.970 . S
Co102 N119 1.989 . S
Co102 O127 1.967 . S
Co102 O134 1.920 . S
Co103 O106 1.966 . S
Co103 N112 2.022 1_556 S
Co103 N120 1.993 . S
Co103 O128 1.941 . S
C104 O105 1.258 . S
C104 O106 1.263 . S
O105 Co102 1.970 . S
O105 C104 1.258 . S
O106 Co103 1.966 . S
O106 C104 1.263 . S
C107 O108 1.235 . S
C107 O134 1.289 . S
O108 C107 1.235 . S
C109 C111 1.400 . S
C109 N112 1.351 . S
C109 C114 1.501 . S
C110 C111 1.387 . S
C110 N113 1.341 . S
C111 C109 1.400 . S
C111 C110 1.387 . S
N112 Co103 2.022 1_554 S
N112 C109 1.351 . S
N112 N113 1.365 . S
N113 C110 1.341 . S
N113 N112 1.365 . S
N113 H133 0.862 . S
C114 C109 1.501 . S
C114 H115 0.961 . S
C114 H116 0.961 . S
C114 H117 0.960 . S
H115 C114 0.961 . S
H116 C114 0.961 . S
H117 C114 0.960 . S
C118 N119 1.342 . S
C118 C122 1.401 . S
C118 C123 1.499 . S
N119 Co102 1.989 . S
N119 C118 1.342 . S
N119 N120 1.388 . S
N120 Co103 1.993 . S
N120 N119 1.388 . S
N120 C121 1.346 . S
C121 N120 1.346 . S
C121 C122 1.396 . S
C121 C131 1.510 1_556 S
C122 C118 1.401 . S
C122 C121 1.396 . S
C123 C118 1.499 . S
C123 H124 0.959 . S
C123 H125 0.960 . S
C123 H126 0.961 . S
H124 C123 0.959 . S
H125 C123 0.960 . S
H126 C123 0.961 . S
O127 Co102 1.967 . S
O127 C135 1.258 . S
O128 Co103 1.941 . S
O128 C135 1.266 . S
H129 C131 0.959 . S
H130 C131 0.961 . S
C131 C121 1.510 1_554 S
C131 H129 0.959 . S
C131 H130 0.961 . S
C131 H132 0.960 . S
H132 C131 0.960 . S
H133 N113 0.862 . S
O134 Co102 1.920 . S
O134 C107 1.289 . S
C135 O127 1.258 . S
C135 O128 1.266 . S
Co136 O139 1.970 . S
Co136 N153 1.989 . S
Co136 O161 1.967 . S
Co136 O168 1.920 . S
Co137 O140 1.966 . S
Co137 N146 2.022 1_554 S
Co137 N154 1.993 . S
Co137 O162 1.941 . S
C138 O139 1.258 . S
C138 O140 1.263 . S
O139 Co136 1.970 . S
O139 C138 1.258 . S
O140 Co137 1.966 . S
O140 C138 1.263 . S
C141 O142 1.235 . S
C141 O168 1.289 . S
O142 C141 1.235 . S
C143 C145 1.400 . S
C143 N146 1.351 . S
C143 C148 1.501 . S
C144 C145 1.387 . S
C144 N147 1.341 . S
C145 C143 1.400 . S
C145 C144 1.387 . S
N146 Co137 2.022 1_556 S
N146 C143 1.351 . S
N146 N147 1.365 . S
N147 C144 1.341 . S
N147 N146 1.365 . S
N147 H167 0.862 . S
C148 C143 1.501 . S
C148 H149 0.961 . S
C148 H150 0.961 . S
C148 H151 0.960 . S
H149 C148 0.961 . S
H150 C148 0.961 . S
H151 C148 0.960 . S
C152 N153 1.342 . S
C152 C156 1.401 . S
C152 C157 1.499 . S
N153 Co136 1.989 . S
N153 C152 1.342 . S
N153 N154 1.388 . S
N154 Co137 1.993 . S
N154 N153 1.388 . S
N154 C155 1.346 . S
C155 N154 1.346 . S
C155 C156 1.396 . S
C155 C165 1.510 1_554 S
C156 C152 1.401 . S
C156 C155 1.396 . S
C157 C152 1.499 . S
C157 H158 0.959 . S
C157 H159 0.960 . S
C157 H160 0.961 . S
H158 C157 0.959 . S
H159 C157 0.960 . S
H160 C157 0.961 . S
O161 Co136 1.967 . S
O161 C169 1.258 . S
O162 Co137 1.941 . S
O162 C169 1.266 . S
H163 C165 0.959 . S
H164 C165 0.961 . S
C165 C155 1.510 1_556 S
C165 H163 0.959 . S
C165 H164 0.961 . S
C165 H166 0.960 . S
H166 C165 0.960 . S
H167 N147 0.862 . S
O168 Co136 1.920 . S
O168 C141 1.289 . S
C169 O161 1.258 . S
C169 O162 1.266 . S
Co170 O173 1.970 . S
Co170 N187 1.989 . S
Co170 O195 1.967 . S
Co170 O202 1.920 . S
Co171 O174 1.966 . S
Co171 N180 2.022 . S
Co171 N188 1.993 . S
Co171 O196 1.941 . S
C172 O173 1.258 . S
C172 O174 1.263 . S
O173 Co170 1.970 . S
O173 C172 1.258 . S
O174 Co171 1.966 . S
O174 C172 1.263 . S
C175 O176 1.235 . S
C175 O202 1.289 . S
O176 C175 1.235 . S
C177 C179 1.400 . S
C177 N180 1.351 . S
C177 C182 1.501 . S
C178 C179 1.387 . S
C178 N181 1.341 . S
C179 C177 1.400 . S
C179 C178 1.387 . S
N180 Co171 2.022 . S
N180 C177 1.351 . S
N180 N181 1.365 . S
N181 C178 1.341 . S
N181 N180 1.365 . S
N181 H201 0.862 . S
C182 C177 1.501 . S
C182 H183 0.961 . S
C182 H184 0.961 . S
C182 H185 0.960 . S
H183 C182 0.961 . S
H184 C182 0.961 . S
H185 C182 0.960 . S
C186 N187 1.342 . S
C186 C190 1.401 . S
C186 C191 1.499 . S
N187 Co170 1.989 . S
N187 C186 1.342 . S
N187 N188 1.388 . S
N188 Co171 1.993 . S
N188 N187 1.388 . S
N188 C189 1.346 . S
C189 N188 1.346 . S
C189 C190 1.396 . S
C189 C199 1.510 . S
C190 C186 1.401 . S
C190 C189 1.396 . S
C191 C186 1.499 . S
C191 H192 0.959 . S
C191 H193 0.960 . S
C191 H194 0.961 . S
H192 C191 0.959 . S
H193 C191 0.960 . S
H194 C191 0.961 . S
O195 Co170 1.967 . S
O195 C203 1.258 . S
O196 Co171 1.941 . S
O196 C203 1.266 . S
H197 C199 0.959 . S
H198 C199 0.961 . S
C199 C189 1.510 . S
C199 H197 0.959 . S
C199 H198 0.961 . S
C199 H200 0.960 . S
H200 C199 0.960 . S
H201 N181 0.862 . S
O202 Co170 1.920 . S
O202 C175 1.289 . S
C203 O195 1.258 . S
C203 O196 1.266 . S
Co204 O207 1.970 . S
Co204 N221 1.989 . S
Co204 O229 1.967 . S
Co204 O236 1.920 . S
Co205 O208 1.966 . S
Co205 N214 2.022 1_554 S
Co205 N222 1.993 . S
Co205 O230 1.941 . S
C206 O207 1.258 . S
C206 O208 1.263 . S
O207 Co204 1.970 . S
O207 C206 1.258 . S
O208 Co205 1.966 . S
O208 C206 1.263 . S
C209 O210 1.235 . S
C209 O236 1.289 . S
O210 C209 1.235 . S
C211 C213 1.400 . S
C211 N214 1.351 . S
C211 C216 1.501 . S
C212 C213 1.387 . S
C212 N215 1.341 . S
C213 C211 1.400 . S
C213 C212 1.387 . S
N214 Co205 2.022 1_556 S
N214 C211 1.351 . S
N214 N215 1.365 . S
N215 C212 1.341 . S
N215 N214 1.365 . S
N215 H235 0.862 . S
C216 C211 1.501 . S
C216 H217 0.961 . S
C216 H218 0.961 . S
C216 H219 0.960 . S
H217 C216 0.961 . S
H218 C216 0.961 . S
H219 C216 0.960 . S
C220 N221 1.342 . S
C220 C224 1.401 . S
C220 C225 1.499 . S
N221 Co204 1.989 . S
N221 C220 1.342 . S
N221 N222 1.388 . S
N222 Co205 1.993 . S
N222 N221 1.388 . S
N222 C223 1.346 . S
C223 N222 1.346 . S
C223 C224 1.396 . S
C223 C233 1.510 1_554 S
C224 C220 1.401 . S
C224 C223 1.396 . S
C225 C220 1.499 . S
C225 H226 0.959 . S
C225 H227 0.960 . S
C225 H228 0.961 . S
H226 C225 0.959 . S
H227 C225 0.960 . S
H228 C225 0.961 . S
O229 Co204 1.967 . S
O229 C237 1.258 . S
O230 Co205 1.941 . S
O230 C237 1.266 . S
H231 C233 0.959 . S
H232 C233 0.961 . S
C233 C223 1.510 1_556 S
C233 H231 0.959 . S
C233 H232 0.961 . S
C233 H234 0.960 . S
H234 C233 0.960 . S
H235 N215 0.862 . S
O236 Co204 1.920 . S
O236 C209 1.289 . S
C237 O229 1.258 . S
C237 O230 1.266 . S
Co238 O241 1.970 . S
Co238 N255 1.989 . S
Co238 O263 1.967 . S
Co238 O270 1.920 . S
Co239 O242 1.966 . S
Co239 N248 2.022 . S
Co239 N256 1.993 . S
Co239 O264 1.941 . S
C240 O241 1.258 . S
C240 O242 1.263 . S
O241 Co238 1.970 . S
O241 C240 1.258 . S
O242 Co239 1.966 . S
O242 C240 1.263 . S
C243 O244 1.235 . S
C243 O270 1.289 . S
O244 C243 1.235 . S
C245 C247 1.400 . S
C245 N248 1.351 . S
C245 C250 1.501 . S
C246 C247 1.387 . S
C246 N249 1.341 . S
C247 C245 1.400 . S
C247 C246 1.387 . S
N248 Co239 2.022 . S
N248 C245 1.351 . S
N248 N249 1.365 . S
N249 C246 1.341 . S
N249 N248 1.365 . S
N249 H269 0.862 . S
C250 C245 1.501 . S
C250 H251 0.961 . S
C250 H252 0.961 . S
C250 H253 0.960 . S
H251 C250 0.961 . S
H252 C250 0.961 . S
H253 C250 0.960 . S
C254 N255 1.342 . S
C254 C258 1.401 . S
C254 C259 1.499 . S
N255 Co238 1.989 . S
N255 C254 1.342 . S
N255 N256 1.388 . S
N256 Co239 1.993 . S
N256 N255 1.388 . S
N256 C257 1.346 . S
C257 N256 1.346 . S
C257 C258 1.396 . S
C257 C267 1.510 . S
C258 C254 1.401 . S
C258 C257 1.396 . S
C259 C254 1.499 . S
C259 H260 0.959 . S
C259 H261 0.960 . S
C259 H262 0.961 . S
H260 C259 0.959 . S
H261 C259 0.960 . S
H262 C259 0.961 . S
O263 Co238 1.967 . S
O263 C271 1.258 . S
O264 Co239 1.941 . S
O264 C271 1.266 . S
H265 C267 0.959 . S
H266 C267 0.961 . S
C267 C257 1.510 . S
C267 H265 0.959 . S
C267 H266 0.961 . S
C267 H268 0.960 . S
H268 C267 0.960 . S
H269 N249 0.862 . S
O270 Co238 1.920 . S
O270 C243 1.289 . S
C271 O263 1.258 . S
C271 O264 1.266 . S
C272 C273 1.387 . S
C272 H276 0.950 . S
C272 C281 1.386 1_565 S
C273 C272 1.387 . S
C273 C275 1.387 1_565 S
H274 C281 0.947 1_565 S
C275 C273 1.387 1_545 S
C275 C277 1.390 . S
C275 H279 0.950 . S
H276 C272 0.950 . S
C277 C275 1.390 . S
C277 C278 1.387 . S
C277 H280 0.950 . S
C278 C277 1.387 . S
C278 C281 1.395 . S
H279 C275 0.950 . S
H280 C277 0.950 . S
C281 C272 1.386 1_545 S
C281 H274 0.947 1_545 S
C281 C278 1.395 . S
C282 C283 1.387 1_556 S
C282 H286 0.950 . S
C282 C291 1.390 . S
C283 C282 1.387 1_554 S
C283 C285 1.387 . S
H284 C291 0.950 . S
C285 C283 1.387 . S
C285 C287 1.390 . S
C285 H289 0.950 . S
H286 C282 0.950 . S
C287 C285 1.390 . S
C287 C288 1.387 1_554 S
C287 H290 0.950 . S
C288 C287 1.387 1_556 S
C288 C291 1.387 . S
H289 C285 0.950 . S
H290 C287 0.950 . S
C291 C282 1.390 . S
C291 H284 0.950 . S
C291 C288 1.387 . S
C292 C293 1.387 . S
C292 H296 0.950 . S
C292 C301 1.390 1_655 S
C293 C292 1.387 . S
C293 C295 1.387 1_655 S
H294 C301 0.950 . S
C295 C293 1.387 1_455 S
C295 C297 1.390 . S
C295 H299 0.950 . S
H296 C292 0.950 . S
C297 C295 1.390 . S
C297 C298 1.387 . S
C297 H300 0.950 . S
C298 C297 1.387 . S
C298 C301 1.387 . S
H299 C295 0.950 . S
H300 C297 0.950 . S
C301 C292 1.390 1_455 S
C301 H294 0.950 . S
C301 C298 1.387 . S
C302 C303 1.406 . S
C302 H306 0.942 1_545 S
C302 C311 1.379 1_644 S
C303 C302 1.406 . S
C303 C305 1.387 1_655 S
H304 C311 0.950 1_655 S
C305 C303 1.387 1_455 S
C305 C307 1.390 1_554 S
C305 H309 0.950 . S
H306 C302 0.942 1_565 S
C307 C305 1.390 1_556 S
C307 C308 1.387 1_545 S
C307 H310 0.950 . S
C308 C307 1.387 1_565 S
C308 C311 1.387 . S
H309 C305 0.950 . S
H310 C307 0.950 . S
C311 C302 1.379 1_466 S
C311 H304 0.950 1_455 S
C311 C308 1.387 . S
C312 C313 1.387 . S
C312 H316 0.950 . S
C312 C321 1.390 . S
C313 C312 1.387 . S
C313 C315 1.387 . S
H314 C321 0.950 . S
C315 C313 1.387 . S
C315 C317 1.390 . S
C315 H319 0.950 . S
H316 C312 0.950 . S
C317 C315 1.390 . S
C317 C318 1.387 . S
C317 H320 0.950 . S
C318 C317 1.387 . S
C318 C321 1.387 . S
H319 C315 0.950 . S
H320 C317 0.950 . S
C321 C312 1.390 . S
C321 H314 0.950 . S
C321 C318 1.387 . S
C322 C323 1.387 . S
C322 H326 0.950 . S
C322 C331 1.390 . S
C323 C322 1.387 . S
C323 C325 1.387 . S
H324 C331 0.950 . S
C325 C323 1.387 . S
C325 C327 1.390 . S
C325 H329 0.950 . S
H326 C322 0.950 . S
C327 C325 1.390 . S
C327 C328 1.387 . S
C327 H330 0.950 . S
C328 C327 1.387 . S
C328 C331 1.387 . S
H329 C325 0.950 . S
H330 C327 0.950 . S
C331 C322 1.390 . S
C331 H324 0.950 . S
C331 C328 1.387 . S
C332 C333 1.387 . S
C332 H336 0.950 . S
C332 C341 1.390 . S
C333 C332 1.387 . S
C333 C335 1.387 . S
H334 C341 0.950 . S
C335 C333 1.387 . S
C335 C337 1.390 . S
C335 H339 0.950 . S
H336 C332 0.950 . S
C337 C335 1.390 . S
C337 C338 1.387 . S
C337 H340 0.950 . S
C338 C337 1.387 . S
C338 C341 1.387 . S
H339 C335 0.950 . S
H340 C337 0.950 . S
C341 C332 1.390 . S
C341 H334 0.950 . S
C341 C338 1.387 . S
C342 C343 1.387 . S
C342 H346 0.950 . S
C342 C351 1.390 . S
C343 C342 1.387 . S
C343 C345 1.387 . S
H344 C351 0.950 . S
C345 C343 1.387 . S
C345 C347 1.390 . S
C345 H349 0.950 . S
H346 C342 0.950 . S
C347 C345 1.390 . S
C347 C348 1.387 . S
C347 H350 0.950 . S
C348 C347 1.387 . S
C348 C351 1.387 . S
H349 C345 0.950 . S
H350 C347 0.950 . S
C351 C342 1.390 . S
C351 H344 0.950 . S
C351 C348 1.387 . S
C352 C353 1.387 . S
C352 H356 0.950 . S
C352 C361 1.390 . S
C353 C352 1.387 . S
C353 C355 1.387 . S
H354 C361 0.950 . S
C355 C353 1.387 . S
C355 C357 1.390 . S
C355 H359 0.950 . S
H356 C352 0.950 . S
C357 C355 1.390 . S
C357 C358 1.387 . S
C357 H360 0.950 . S
C358 C357 1.387 . S
C358 C361 1.387 . S
H359 C355 0.950 . S
H360 C357 0.950 . S
C361 C352 1.390 . S
C361 H354 0.950 . S
C361 C358 1.387 . S
C362 C363 1.387 . S
C362 H366 0.950 . S
C362 C371 1.390 . S
C363 C362 1.387 . S
C363 C365 1.387 . S
H364 C371 0.950 . S
C365 C363 1.387 . S
C365 C367 1.390 . S
C365 H369 0.950 . S
H366 C362 0.950 . S
C367 C365 1.390 . S
C367 C368 1.387 . S
C367 H370 0.950 . S
C368 C367 1.387 . S
C368 C371 1.387 . S
H369 C365 0.950 . S
H370 C367 0.950 . S
C371 C362 1.390 . S
C371 H364 0.950 . S
C371 C368 1.387 . S
C372 C373 1.387 . S
C372 H376 0.950 . S
C372 C381 1.390 . S
C373 C372 1.387 . S
C373 C375 1.387 . S
H374 C381 0.950 . S
C375 C373 1.387 . S
C375 C377 1.390 . S
C375 H379 0.950 . S
H376 C372 0.950 . S
C377 C375 1.390 . S
C377 C378 1.387 . S
C377 H380 0.950 . S
C378 C377 1.387 . S
C378 C381 1.387 . S
H379 C375 0.950 . S
H380 C377 0.950 . S
C381 C372 1.390 . S
C381 H374 0.950 . S
C381 C378 1.387 . S
C382 C383 1.387 . S
C382 H386 0.950 . S
C382 C391 1.390 . S
C383 C382 1.387 . S
C383 C385 1.387 . S
H384 C391 0.950 . S
C385 C383 1.387 . S
C385 C387 1.390 . S
C385 H389 0.950 . S
H386 C382 0.950 . S
C387 C385 1.390 . S
C387 C388 1.387 . S
C387 H390 0.950 . S
C388 C387 1.387 . S
C388 C391 1.387 . S
H389 C385 0.950 . S
H390 C387 0.950 . S
C391 C382 1.390 . S
C391 H384 0.950 . S
C391 C388 1.387 . S
C392 C393 1.387 . S
C392 H396 0.950 . S
C392 C401 1.390 . S
C393 C392 1.387 . S
C393 C395 1.387 . S
H394 C401 0.950 . S
C395 C393 1.387 . S
C395 C397 1.390 . S
C395 H399 0.950 . S
H396 C392 0.950 . S
C397 C395 1.390 . S
C397 C398 1.387 . S
C397 H400 0.950 . S
C398 C397 1.387 . S
C398 C401 1.387 . S
H399 C395 0.950 . S
H400 C397 0.950 . S
C401 C392 1.390 . S
C401 H394 0.950 . S
C401 C398 1.387 . S
C402 C403 1.387 . S
C402 H406 0.950 . S
C402 C411 1.390 . S
C403 C402 1.387 . S
C403 C405 1.387 . S
H404 C411 0.950 . S
C405 C403 1.387 . S
C405 C407 1.390 . S
C405 H409 0.950 . S
H406 C402 0.950 . S
C407 C405 1.390 . S
C407 C408 1.387 . S
C407 H410 0.950 . S
C408 C407 1.387 . S
C408 C411 1.387 . S
H409 C405 0.950 . S
H410 C407 0.950 . S
C411 C402 1.390 . S
C411 H404 0.950 . S
C411 C408 1.387 . S
C412 C413 1.387 . S
C412 H416 0.950 . S
C412 C421 1.390 . S
C413 C412 1.387 . S
C413 C415 1.387 . S
H414 C421 0.950 . S
C415 C413 1.387 . S
C415 C417 1.390 . S
C415 H419 0.950 . S
H416 C412 0.950 . S
C417 C415 1.390 . S
C417 C418 1.387 . S
C417 H420 0.950 . S
C418 C417 1.387 . S
C418 C421 1.387 . S
H419 C415 0.950 . S
H420 C417 0.950 . S
C421 C412 1.390 . S
C421 H414 0.950 . S
C421 C418 1.387 . S
C422 C423 1.387 . S
C422 H426 0.950 . S
C422 C431 1.390 . S
C423 C422 1.387 . S
C423 C425 1.387 . S
H424 C431 0.950 . S
C425 C423 1.387 . S
C425 C427 1.390 . S
C425 H429 0.950 . S
H426 C422 0.950 . S
C427 C425 1.390 . S
C427 C428 1.387 . S
C427 H430 0.950 . S
C428 C427 1.387 . S
C428 C431 1.387 . S
H429 C425 0.950 . S
H430 C427 0.950 . S
C431 C422 1.390 . S
C431 H424 0.950 . S
C431 C428 1.387 . S
C432 C433 1.387 . S
C432 H436 0.950 . S
C432 C441 1.390 . S
C433 C432 1.387 . S
C433 C435 1.387 . S
H434 C441 0.950 . S
C435 C433 1.387 . S
C435 C437 1.390 . S
C435 H439 0.950 . S
H436 C432 0.950 . S
C437 C435 1.390 . S
C437 C438 1.387 . S
C437 H440 0.950 . S
C438 C437 1.387 . S
C438 C441 1.387 . S
H439 C435 0.950 . S
H440 C437 0.950 . S
C441 C432 1.390 . S
C441 H434 0.950 . S
C441 C438 1.387 . S
C442 C443 1.387 . S
C442 H446 0.950 . S
C442 C451 1.390 . S
C443 C442 1.387 . S
C443 C445 1.387 . S
H444 C451 0.950 . S
C445 C443 1.387 . S
C445 C447 1.390 . S
C445 H449 0.950 . S
H446 C442 0.950 . S
C447 C445 1.390 . S
C447 C448 1.387 . S
C447 H450 0.950 . S
C448 C447 1.387 . S
C448 C451 1.387 . S
H449 C445 0.950 . S
H450 C447 0.950 . S
C451 C442 1.390 . S
C451 H444 0.950 . S
C451 C448 1.387 . S
C452 C453 1.387 . S
C452 H456 0.950 . S
C452 C461 1.390 . S
C453 C452 1.387 . S
C453 C455 1.387 . S
H454 C461 0.950 . S
C455 C453 1.387 . S
C455 C457 1.390 . S
C455 H459 0.950 . S
H456 C452 0.950 . S
C457 C455 1.390 . S
C457 C458 1.387 . S
C457 H460 0.950 . S
C458 C457 1.387 . S
C458 C461 1.387 . S
H459 C455 0.950 . S
H460 C457 0.950 . S
C461 C452 1.390 . S
C461 H454 0.950 . S
C461 C458 1.387 . S
C462 C463 1.387 . S
C462 H466 0.950 . S
C462 C471 1.390 . S
C463 C462 1.387 . S
C463 C465 1.387 . S
H464 C471 0.950 . S
C465 C463 1.387 . S
C465 C467 1.390 . S
C465 H469 0.950 . S
H466 C462 0.950 . S
C467 C465 1.390 . S
C467 C468 1.387 . S
C467 H470 0.950 . S
C468 C467 1.387 . S
C468 C471 1.387 . S
H469 C465 0.950 . S
H470 C467 0.950 . S
C471 C462 1.390 . S
C471 H464 0.950 . S
C471 C468 1.387 . S
C273 C258 1.631 . S
C278 C20 1.632 . S
C283 C156 1.630 . S
C288 C54 1.631 . S
C293 C88 1.632 . S
C298 C190 1.632 . S
C303 C224 1.632 . S
C308 C122 1.632 . S
C313 C33 1.282 . S
C318 C169 1.282 . S
C323 C203 1.282 . S
C328 C67 1.282 . S
C333 C237 1.282 . S
C338 C101 1.282 . S
C343 C271 1.282 . S
C348 C135 1.282 . S
C353 C240 1.646 . S
C358 C36 1.646 . S
C363 C70 1.644 . S
C368 C138 1.644 . S
C373 C104 1.644 . S
C378 C172 1.644 . S
C383 C206 1.644 . S
C388 C2 1.644 . S
C393 C9 1.269 . S
C398 C5 1.332 1_556 S
C403 C39 1.332 . S
C408 C43 1.271 . S
C413 C73 1.335 1_556 S
C418 C77 1.273 . S
C423 C111 1.271 . S
C428 C107 1.332 . S
C433 C141 1.335 . S
C438 C145 1.273 . S
C443 C175 1.332 1_554 S
C448 C179 1.269 . S
C453 C209 1.332 . S
C458 C213 1.268 . S
C463 C247 1.271 . S
C468 C243 1.332 1_554 S
