# Generated by pormake.
# Topology kag, (6)-cn, num edge types: 1
# Building blocks:
#     Node 0, Type 0, BuildingBlock: JUFBIX_clean_sbu_0, # of connection points: 6
#     Node 1, Type 0, BuildingBlock: JUFBIX_clean_sbu_0, # of connection points: 6
#     Node 2, Type 0, BuildingBlock: JUFBIX_clean_sbu_0, # of connection points: 6
#     Edge 3, Type (0, 0), BuildingBlock: FUNLAD_clean_linker_1, # of connection points: 2
#     Edge 4, Type (0, 0), BuildingBlock: FUNLAD_clean_linker_1, # of connection points: 2
#     Edge 5, Type (0, 0), BuildingBlock: FUNLAD_clean_linker_1, # of connection points: 2
#     Edge 6, Type (0, 0), BuildingBlock: FUNLAD_clean_linker_1, # of connection points: 2
#     Edge 7, Type (0, 0), BuildingBlock: FUNLAD_clean_linker_1, # of connection points: 2
#     Edge 8, Type (0, 0), BuildingBlock: FUNLAD_clean_linker_1, # of connection points: 2
#     Edge 9, Type (0, 0), BuildingBlock: FUNLAD_clean_linker_1, # of connection points: 2
#     Edge 10, Type (0, 0), BuildingBlock: FUNLAD_clean_linker_1, # of connection points: 2
#     Edge 11, Type (0, 0), BuildingBlock: FUNLAD_clean_linker_1, # of connection points: 2
# Relax obj value: 0.254
# Max RMSD: 0.226
# Mean RMSD: 0.152
data_MOF--net-kag--node1-JUFBIX_clean_sbu_0--edge1-FUNLAD_clean_linker_1
_symmetry_space_group_name_H-M    P1
_symmetry_Int_Tables_number       1
_symmetry_cell_setting            triclinic
loop_
_symmetry_equiv_pos_as_xyz
'x, y, z'
_cell_length_a     30.865953
_cell_length_b     39.509491
_cell_length_c     15.441344
_cell_angle_alpha  90.249603
_cell_angle_beta   92.775576
_cell_angle_gamma 121.07375
loop_
_atom_site_label
_atom_site_type_symbol
_atom_site_fract_x
_atom_site_fract_y
_atom_site_fract_z
_atom_type_partial_charge
Co0 Co 0.99373 0.46895 0.99928 0.0
C1 C 0.01603 0.51104 0.84815 0.0
Co2 Co 0.02993 0.53351 0.02233 0.0
C3 C 0.91826 0.38626 1.00837 0.0
C4 C 0.9784 0.39581 0.92929 0.0
N5 N 0.96256 0.41495 0.97927 0.0
N6 N 0.90577 0.35006 0.97856 0.0
C7 C 0.94356 0.35587 0.92868 0.0
H8 H 0.89507 0.39184 0.04961 0.0
H9 H 0.01257 0.41008 0.89406 0.0
C10 C 1.00758 0.49139 0.17339 0.0
N11 N 0.06185 0.58772 0.04158 0.0
C12 C 0.10632 0.61547 0.01108 0.0
C13 C 0.04766 0.60802 0.09149 0.0
N14 N 0.12064 0.65219 0.04003 0.0
C15 C 0.08378 0.64775 0.09072 0.0
C16 C 0.92533 0.49481 1.00563 0.0
O17 O 0.99058 0.46178 0.12104 0.0
O18 O 0.02676 0.52594 0.14389 0.0
O19 O 0.96504 0.52878 0.01842 0.0
O20 O 0.92952 0.46478 0.99484 0.0
O21 O 0.03278 0.54062 0.90046 0.0
H22 H 0.01383 0.5947 0.12764 0.0
H23 H 0.12841 0.60885 0.96942 0.0
O24 O 0.99716 0.47657 0.87776 0.0
O25 O 0.05807 0.47352 1.00407 0.0
O26 O 0.09437 0.53753 0.02652 0.0
C27 C 0.09802 0.5072 0.01685 0.0
H28 H 0.94544 0.33326 0.89226 0.0
H29 H 0.08341 0.67114 0.12671 0.0
Co30 Co 0.53735 0.98258 1.00787 0.0
C31 C 0.52303 0.99538 0.83398 0.0
Co32 Co 0.49679 0.01492 0.98583 0.0
C33 C 0.55498 0.91802 0.0443 0.0
C34 C 0.62094 0.96997 1.00346 0.0
N35 N 0.57224 0.95577 0.02169 0.0
N36 N 0.59102 0.90841 0.04033 0.0
C37 C 0.63255 0.94111 0.01545 0.0
H38 H 0.5165 0.8978 0.06117 0.0
H39 H 0.64623 -0.00097 0.97972 0.0
C40 C 0.51123 0.00211 0.15978 0.0
N41 N 0.46324 0.04246 0.97107 0.0
C42 C 0.48134 0.07855 0.93754 0.0
C43 C 0.41812 0.03304 1.00088 0.0
N44 N 0.44992 0.09234 0.94659 0.0
C45 C 0.4098 0.06363 0.98602 0.0
C46 C 0.43281 0.93358 0.98678 0.0
O47 O 0.53294 0.98498 0.12957 0.0
O48 O 0.49278 0.0171 0.10822 0.0
O49 O 0.43409 0.966 0.97778 0.0
O50 O 0.47399 0.93387 0.99982 0.0
O51 O 0.50119 0.0124 0.86406 0.0
H52 H 0.39397 0.00653 0.03515 0.0
H53 H 0.51817 0.09544 0.91085 0.0
O54 O 0.54148 0.98047 0.88565 0.0
O55 O 0.59987 0.03181 0.01637 0.0
O56 O 0.55972 0.06347 0.99405 0.0
C57 C 0.60094 0.06409 1.0077 0.0
H58 H 0.66821 0.94338 1.00329 0.0
H59 H 0.3779 0.06518 1.00683 0.0
Co60 Co 0.49106 0.46089 0.03365 0.0
C61 C 0.51342 0.50443 0.18956 0.0
Co62 Co 0.52209 0.52486 0.01825 0.0
C63 C 0.47508 0.38164 0.01548 0.0
C64 C 0.42855 0.38629 0.10764 0.0
N65 N 0.46415 0.40748 0.05111 0.0
N66 N 0.44757 0.34524 0.04806 0.0
C67 C 0.41849 0.34817 0.10606 0.0
H68 H 0.50327 0.38965 0.96814 0.0
H69 H 0.4114 0.39799 0.14829 0.0
C70 C 0.49988 0.4814 0.86244 0.0
N71 N 0.54763 0.57809 1.00243 0.0
C72 C 0.53201 0.60083 0.03866 0.0
C73 C 0.58368 0.60209 0.94927 0.0
N74 N 0.55644 0.63792 0.00978 0.0
C75 C 0.58926 0.63899 0.95366 0.0
C76 C 0.59583 0.50457 0.03148 0.0
O77 O 0.48586 0.45217 0.91139 0.0
O78 O 0.51671 0.51573 0.89596 0.0
O79 O 0.58857 0.53327 0.02296 0.0
O80 O 0.55808 0.46971 0.0381 0.0
O81 O 0.52729 0.53356 0.14056 0.0
H82 H 0.604 0.59316 0.90895 0.0
H83 H 0.50246 0.59015 0.08423 0.0
O84 O 0.49665 0.47017 0.15599 0.0
O85 O 0.42426 0.45261 0.02851 0.0
O86 O 0.45557 0.51606 0.01347 0.0
C87 C 0.4175 0.4815 0.01957 0.0
H88 H 0.39206 0.32436 0.14505 0.0
H89 H 0.61524 0.6643 0.91783 0.0
H90 H 0.03378 0.54703 0.73163 0.0
C91 C 0.01853 0.51712 0.75394 0.0
H92 H 0.98912 0.45724 0.71681 0.0
H93 H 0.94831 0.52679 0.35156 0.0
H94 H 0.88447 0.5311 0.42828 0.0
H95 H 0.87538 0.51793 0.58442 0.0
H96 H 0.93017 0.50051 0.66483 0.0
C97 C 1.00283 0.48712 0.69564 0.0
C98 C 1.00715 0.49419 0.60102 0.0
C99 C 0.97459 0.50418 0.55498 0.0
C100 C 0.97946 0.51136 0.46475 0.0
C101 C 0.94637 0.52114 0.4202 0.0
C102 C 0.90946 0.52363 0.46339 0.0
C103 C 0.90438 0.51625 0.5513 0.0
C104 C 0.93631 0.50649 0.59682 0.0
H105 H 0.98961 0.45529 0.28972 0.0
C106 C 1.00499 0.48524 0.26755 0.0
H107 H 0.03458 0.54511 0.30499 0.0
H108 H 0.07483 0.475 0.66979 0.0
H109 H 0.13861 0.47062 0.59301 0.0
H110 H 0.14788 0.48401 0.43697 0.0
H111 H 0.09328 0.50165 0.3567 0.0
C112 C 0.02075 0.51518 0.32599 0.0
C113 C 0.01632 0.50798 0.42053 0.0
C114 C 0.04883 0.49794 0.46654 0.0
C115 C 0.04391 0.49071 0.55675 0.0
C116 C 0.07686 0.48075 0.6012 0.0
C117 C 0.11372 0.47821 0.55797 0.0
C118 C 0.1189 0.48571 0.47011 0.0
C119 C 0.08708 0.4956 0.42467 0.0
H120 H 0.48802 0.01981 0.27604 0.0
C121 C 0.50761 0.00537 0.25391 0.0
H122 H 0.54675 0.97645 0.29168 0.0
H123 H 0.56436 0.07871 0.64978 0.0
H124 H 0.6183 0.13694 0.56924 0.0
H125 H 0.63094 0.13112 0.41463 0.0
H126 H 0.58918 0.06714 0.33927 0.0
C127 C 0.52821 0.9919 0.31252 0.0
C128 C 0.52344 0.99553 0.4071 0.0
C129 C 0.54876 0.03321 0.45048 0.0
C130 C 0.54229 0.0365 0.5401 0.0
C131 C 0.5679 0.07447 0.58178 0.0
C132 C 0.59914 0.10816 0.53643 0.0
C133 C 0.60615 0.10489 0.44932 0.0
C134 C 0.58157 0.06795 0.40663 0.0
H135 H 0.54645 0.9777 0.71799 0.0
C136 C 0.52686 0.99217 0.73991 0.0
H137 H 0.48799 0.02126 0.70172 0.0
H138 H 0.47128 0.91883 0.34432 0.0
H139 H 0.41802 0.86054 0.42524 0.0
H140 H 0.40484 0.86639 0.57952 0.0
H141 H 0.44578 0.93044 0.65445 0.0
C142 C 0.50648 0.00572 0.68111 0.0
C143 C 0.51145 0.00208 0.58661 0.0
C144 C 0.48624 0.96439 0.54328 0.0
C145 C 0.49281 0.9611 0.45371 0.0
C146 C 0.46759 0.92308 0.41224 0.0
C147 C 0.4367 0.88937 0.45777 0.0
C148 C 0.42943 0.89265 0.54474 0.0
C149 C 0.45355 0.92963 0.58718 0.0
H150 H 0.48306 0.44556 0.74159 0.0
C151 C 0.49732 0.47532 0.76756 0.0
H152 H 0.52576 0.53512 0.73785 0.0
H153 H 0.57269 0.46849 0.38122 0.0
H154 H 0.63486 0.46311 0.47273 0.0
H155 H 0.64129 0.47482 0.63115 0.0
H156 H 0.58559 0.49188 0.69906 0.0
C157 C 0.51274 0.50539 0.71314 0.0
C158 C 0.50974 0.49883 0.61749 0.0
C159 C 0.54303 0.48926 0.57884 0.0
C160 C 0.53976 0.483 0.48734 0.0
C161 C 0.57344 0.47348 0.45038 0.0
C162 C 0.60941 0.47039 0.50213 0.0
C163 C 0.61302 0.47697 0.59132 0.0
C164 C 0.58052 0.48648 0.62954 0.0
H165 H 0.53022 0.54027 0.31041 0.0
C166 C 0.51609 0.51052 0.28445 0.0
H167 H 0.48802 0.45077 0.31416 0.0
H168 H 0.44085 0.51725 0.67086 0.0
H169 H 0.37849 0.52241 0.57939 0.0
H170 H 0.372 0.51062 0.42098 0.0
H171 H 0.42793 0.49384 0.35303 0.0
C172 C 0.5009 0.48048 0.33889 0.0
C173 C 0.5039 0.48702 0.43455 0.0
C174 C 0.47057 0.49656 0.47321 0.0
C175 C 0.47384 0.50281 0.56471 0.0
C176 C 0.4401 0.51227 0.60169 0.0
C177 C 0.40403 0.51523 0.54997 0.0
C178 C 0.40041 0.50864 0.46079 0.0
C179 C 0.43302 0.49925 0.42254 0.0
H180 H 0.18152 0.54098 0.03231 0.0
C181 C 0.14845 0.51152 0.02085 0.0
H182 H 0.12207 0.45103 0.99662 0.0
H183 H 0.32902 0.48461 0.8532 0.0
H184 H 0.27501 0.46444 0.72064 0.0
H185 H 0.18884 0.45374 0.72009 0.0
H186 H 0.15619 0.46321 0.85198 0.0
C187 C 0.15461 0.48048 0.01092 0.0
C188 C 0.20601 0.48579 0.01258 0.0
C189 C 0.22418 0.47953 0.93514 0.0
C190 C 0.27377 0.48555 0.93549 0.0
C191 C 0.29143 0.48001 0.85681 0.0
C192 C 0.26088 0.46855 0.78018 0.0
C193 C 0.21238 0.46254 0.77986 0.0
C194 C 0.19407 0.468 0.85613 0.0
H195 H 0.334 0.44449 0.01764 0.0
C196 C 0.36578 0.47473 0.01661 0.0
H197 H 0.38848 0.53523 0.0155 0.0
H198 H 0.18094 0.49623 0.17447 0.0
H199 H 0.23521 0.51673 0.30658 0.0
H200 H 0.32215 0.52911 0.30603 0.0
H201 H 0.35512 0.52059 0.17339 0.0
C202 C 0.35716 0.50475 0.01382 0.0
C203 C 0.30491 0.49755 0.01342 0.0
C204 C 0.28664 0.50348 0.09101 0.0
C205 C 0.23689 0.49714 0.09091 0.0
C206 C 0.21891 0.50175 0.17016 0.0
C207 C 0.24957 0.51326 0.24668 0.0
C208 C 0.29849 0.52016 0.2464 0.0
C209 C 0.31696 0.51524 0.16977 0.0
H210 H 0.6842 0.10079 0.02527 0.0
C211 C 0.64992 0.10161 0.01094 0.0
H212 H 0.6198 0.13731 0.97482 0.0
H213 H 0.84986 0.27134 0.13527 0.0
H214 H 0.81611 0.24702 0.27522 0.0
H215 H 0.73009 0.18898 0.28526 0.0
H216 H 0.67759 0.15462 0.15522 0.0
C217 C 0.65344 0.13611 0.99288 0.0
C218 C 0.70366 0.17273 0.98752 0.0
C219 C 0.73323 0.19308 0.0641 0.0
C220 C 0.78211 0.22733 0.05825 0.0
C221 C 0.81177 0.24604 0.1358 0.0
C222 C 0.79299 0.23222 0.21663 0.0
C223 C 0.74462 0.19948 0.22229 0.0
C224 C 0.71494 0.17997 0.14715 0.0
H225 H 0.82956 0.31563 0.0243 0.0
C226 C 0.85921 0.31388 0.99304 0.0
H227 H 0.87944 0.27562 0.93585 0.0
H228 H 0.65638 0.14028 0.82849 0.0
H229 H 0.6893 0.1651 0.68832 0.0
H230 H 0.77302 0.22557 0.67777 0.0
H231 H 0.82457 0.26141 0.80729 0.0
C232 C 0.85087 0.27826 0.96821 0.0
C233 C 0.80053 0.24177 0.97569 0.0
C234 C 0.77076 0.2214 0.89915 0.0
C235 C 0.72225 0.18684 0.90512 0.0
C236 C 0.6934 0.16686 0.8277 0.0
C237 C 0.7118 0.18078 0.74676 0.0
C238 C 0.75898 0.21479 0.74085 0.0
C239 C 0.78823 0.23503 0.81584 0.0
H240 H 0.62159 0.86972 0.04544 0.0
C241 C 0.58723 0.8708 0.05009 0.0
H242 H 0.50761 0.83628 0.05698 0.0
H243 H 0.50657 0.69281 0.86605 0.0
H244 H 0.45698 0.70746 0.76309 0.0
H245 H 0.4455 0.76388 0.78976 0.0
H246 H 0.48326 0.80586 0.91961 0.0
C247 C 0.54299 0.83668 0.05651 0.0
C248 C 0.54154 0.7985 0.04907 0.0
C249 C 0.51858 0.77399 0.97335 0.0
C250 C 0.52567 0.74174 0.95748 0.0
C251 C 0.50285 0.71796 0.88082 0.0
C252 C 0.47419 0.72597 0.82129 0.0
C253 C 0.4677 0.75772 0.83634 0.0
C254 C 0.48964 0.78161 0.91121 0.0
H255 H 0.5212 0.66314 0.08517 0.0
C256 C 0.54698 0.66867 0.0342 0.0
H257 H 0.59163 0.70905 0.94083 0.0
H258 H 0.58109 0.83445 0.20853 0.0
H259 H 0.62982 0.81941 0.31289 0.0
H260 H 0.64618 0.76579 0.28214 0.0
H261 H 0.61342 0.72655 0.14783 0.0
C262 C 0.56787 0.70344 0.99482 0.0
C263 C 0.55555 0.73403 0.01742 0.0
C264 C 0.57582 0.75701 0.09582 0.0
C265 C 0.56799 0.78886 0.11226 0.0
C266 C 0.58743 0.81078 0.19184 0.0
C267 C 0.61515 0.8023 0.25241 0.0
C268 C 0.62423 0.77203 0.2352 0.0
C269 C 0.605 0.74961 0.15787 0.0
H270 H 0.84196 0.45941 0.99342 0.0
C271 C 0.87426 0.48921 1.00547 0.0
H272 H 0.89752 0.5488 0.03508 0.0
H273 H 0.67307 0.49911 0.87252 0.0
H274 H 0.71795 0.521 0.74046 0.0
H275 H 0.80707 0.53866 0.73745 0.0
H276 H 0.85185 0.53443 0.86676 0.0
C277 C 0.8661 0.51875 0.02232 0.0
C278 C 0.81349 0.51063 0.02578 0.0
C279 C 0.78824 0.51413 0.95039 0.0
C280 C 0.73714 0.50466 0.95265 0.0
C281 C 0.71228 0.50698 0.87533 0.0
C282 C 0.7375 0.51924 0.79881 0.0
C283 C 0.78766 0.52914 0.79709 0.0
C284 C 0.8129 0.52658 0.87172 0.0
H285 H 0.67854 0.54266 0.02425 0.0
C286 C 0.64794 0.51228 0.03069 0.0
H287 H 0.62888 0.45295 0.04315 0.0
H288 H 0.85151 0.50177 0.18212 0.0
H289 H 0.80697 0.48021 0.31482 0.0
H290 H 0.71852 0.46413 0.31925 0.0
H291 H 0.674 0.46944 0.19098 0.0
C292 C 0.65865 0.48339 0.03459 0.0
C293 C 0.71176 0.49247 0.03101 0.0
C294 C 0.73708 0.48895 0.10638 0.0
C295 C 0.78807 0.4982 0.10385 0.0
C296 C 0.81267 0.49486 0.18034 0.0
C297 C 0.7876 0.48261 0.25699 0.0
C298 C 0.73779 0.47356 0.25946 0.0
C299 C 0.71266 0.47669 0.18533 0.0
H300 H 0.19632 0.68426 0.99143 0.0
C301 C 0.16799 0.68742 0.02369 0.0
H302 H 0.15143 0.72787 0.08073 0.0
H303 H 0.37777 0.86119 0.17343 0.0
H304 H 0.34624 0.84004 0.31605 0.0
H305 H 0.26173 0.78126 0.33262 0.0
H306 H 0.20778 0.74359 0.20662 0.0
C307 C 0.17863 0.72384 0.0473 0.0
C308 C 0.22963 0.75932 0.03621 0.0
C309 C 0.26097 0.78069 0.11072 0.0
C310 C 0.31008 0.81419 0.10131 0.0
C311 C 0.34032 0.83529 0.17681 0.0
C312 C 0.32274 0.82347 0.25914 0.0
C313 C 0.27509 0.79043 0.26844 0.0
C314 C 0.24445 0.76912 0.19543 0.0
H315 H 0.34951 0.89756 0.96966 0.0
C316 C 0.38339 0.89636 0.98552 0.0
H317 H 0.41195 0.86051 0.02882 0.0
H318 H 0.17734 0.72807 0.8794 0.0
H319 H 0.20953 0.74874 0.73702 0.0
H320 H 0.29663 0.80439 0.72123 0.0
H321 H 0.35179 0.84009 0.84793 0.0
C322 C 0.37874 0.86194 1.00851 0.0
C323 C 0.32786 0.82624 0.01748 0.0
C324 C 0.2967 0.80488 0.94293 0.0
C325 C 0.24717 0.77182 0.95219 0.0
C326 C 0.21596 0.75235 0.87642 0.0
C327 C 0.23384 0.76412 0.79418 0.0
C328 C 0.28282 0.79553 0.78528 0.0
C329 C 0.31403 0.81584 0.85853 0.0
H330 H 0.42837 0.28514 0.07306 0.0
C331 C 0.4487 0.30991 0.03096 0.0
H332 H 0.49094 0.3287 0.91858 0.0
H333 H 0.49832 0.17399 0.07995 0.0
H334 H 0.55825 0.22177 0.1885 0.0
H335 H 0.57982 0.29122 0.18814 0.0
H336 H 0.54084 0.31309 0.0794 0.0
C337 C 0.47237 0.30561 0.96483 0.0
C338 C 0.46975 0.26724 0.95124 0.0
C339 C 0.49454 0.25531 0.0125 0.0
C340 C 0.48338 0.2156 0.01075 0.0
C341 C 0.5064 0.204 0.07623 0.0
C342 C 0.54079 0.23112 0.13935 0.0
C343 C 0.55283 0.2702 0.1393 0.0
C344 C 0.53001 0.2823 0.07689 0.0
H345 H 0.49972 0.15292 0.90756 0.0
C346 C 0.46254 0.13224 0.93044 0.0
H347 H 0.3941 0.12575 0.97047 0.0
H348 H 0.42145 0.28226 0.81744 0.0
H349 H 0.36531 0.23567 0.7028 0.0
H350 H 0.34726 0.16711 0.69759 0.0
H351 H 0.38509 0.14462 0.80716 0.0
C352 C 0.43191 0.14565 0.94968 0.0
C353 C 0.44869 0.18828 0.94563 0.0
C354 C 0.42699 0.2011 0.88044 0.0
C355 C 0.43765 0.24069 0.8831 0.0
C356 C 0.41463 0.25251 0.81826 0.0
C357 C 0.38243 0.2261 0.75211 0.0
C358 C 0.37225 0.18748 0.7492 0.0
C359 C 0.3941 0.17494 0.81251 0.0
loop_
_geom_bond_atom_site_label_1
_geom_bond_atom_site_label_2
_geom_bond_distance
_geom_bond_site_symmetry_2
_ccdc_geom_bond_type
Co0 N5 2.057 1_554 S
Co0 O17 2.021 . S
Co0 O20 2.062 . S
Co0 O24 2.117 1_554 S
Co0 O25 2.020 1_655 S
C1 O21 1.259 . S
C1 O24 1.258 1_455 S
Co2 N11 2.057 1_556 S
Co2 O18 2.117 1_556 S
Co2 O19 2.020 1_455 S
Co2 O21 2.021 . S
Co2 O26 2.062 . S
C3 N5 1.316 1_554 S
C3 N6 1.347 1_554 S
C3 H8 0.931 . S
C4 N5 1.375 . S
C4 C7 1.350 . S
C4 H9 0.930 . S
N5 Co0 2.057 1_556 S
N5 C3 1.316 1_556 S
N5 C4 1.375 . S
N6 C3 1.347 1_556 S
N6 C7 1.373 . S
C7 C4 1.350 . S
C7 N6 1.373 . S
C7 H28 0.931 . S
H8 C3 0.931 . S
H9 C4 0.930 . S
C10 O17 1.259 . S
C10 O18 1.258 1_655 S
N11 Co2 2.057 1_554 S
N11 C12 1.316 1_554 S
N11 C13 1.375 . S
C12 N11 1.316 1_556 S
C12 N14 1.347 1_556 S
C12 H23 0.931 . S
C13 N11 1.375 . S
C13 C15 1.350 . S
C13 H22 0.930 . S
N14 C12 1.347 1_554 S
N14 C15 1.373 . S
C15 C13 1.350 . S
C15 N14 1.373 . S
C15 H29 0.931 . S
C16 O19 1.256 1_554 S
C16 O20 1.255 . S
O17 Co0 2.021 . S
O17 C10 1.259 . S
O18 Co2 2.117 1_554 S
O18 C10 1.258 1_455 S
O19 Co2 2.020 1_655 S
O19 C16 1.256 1_556 S
O20 Co0 2.062 . S
O20 C16 1.255 . S
O21 C1 1.259 . S
O21 Co2 2.021 . S
H22 C13 0.930 . S
H23 C12 0.931 . S
O24 Co0 2.117 1_556 S
O24 C1 1.258 1_655 S
O25 Co0 2.020 1_455 S
O25 C27 1.256 1_554 S
O26 Co2 2.062 . S
O26 C27 1.255 . S
C27 O25 1.256 1_556 S
C27 O26 1.255 . S
H28 C7 0.931 . S
H29 C15 0.931 . S
Co30 N35 2.057 1_554 S
Co30 O47 2.021 . S
Co30 O50 2.062 . S
Co30 O54 2.117 1_554 S
Co30 O55 2.020 1_565 S
C31 O51 1.259 . S
C31 O54 1.258 1_545 S
Co32 N41 2.057 1_556 S
Co32 O48 2.117 1_556 S
Co32 O49 2.020 1_545 S
Co32 O51 2.021 . S
Co32 O56 2.062 . S
C33 N35 1.316 1_554 S
C33 N36 1.347 1_554 S
C33 H38 0.931 . S
C34 N35 1.375 . S
C34 C37 1.350 . S
C34 H39 0.930 . S
N35 Co30 2.057 1_556 S
N35 C33 1.316 1_556 S
N35 C34 1.375 . S
N36 C33 1.347 1_556 S
N36 C37 1.373 . S
C37 C34 1.350 . S
C37 N36 1.373 . S
C37 H58 0.931 . S
H38 C33 0.931 . S
H39 C34 0.930 . S
C40 O47 1.259 . S
C40 O48 1.258 1_565 S
N41 Co32 2.057 1_554 S
N41 C42 1.316 1_554 S
N41 C43 1.375 . S
C42 N41 1.316 1_556 S
C42 N44 1.347 1_556 S
C42 H53 0.931 . S
C43 N41 1.375 . S
C43 C45 1.350 . S
C43 H52 0.930 . S
N44 C42 1.347 1_554 S
N44 C45 1.373 . S
C45 C43 1.350 . S
C45 N44 1.373 . S
C45 H59 0.931 . S
C46 O49 1.256 . S
C46 O50 1.254 1_556 S
O47 Co30 2.021 . S
O47 C40 1.259 . S
O48 Co32 2.117 1_554 S
O48 C40 1.258 1_545 S
O49 Co32 2.020 1_565 S
O49 C46 1.256 . S
O50 Co30 2.062 . S
O50 C46 1.254 1_554 S
O51 C31 1.259 . S
O51 Co32 2.021 . S
H52 C43 0.930 . S
H53 C42 0.931 . S
O54 Co30 2.117 1_556 S
O54 C31 1.258 1_565 S
O55 Co30 2.020 1_545 S
O55 C57 1.257 . S
O56 Co32 2.062 . S
O56 C57 1.254 1_556 S
C57 O55 1.257 . S
C57 O56 1.254 1_554 S
H58 C37 0.931 . S
H59 C45 0.931 . S
Co60 N65 2.057 1_556 S
Co60 O77 2.021 . S
Co60 O80 2.062 . S
Co60 O84 2.117 1_556 S
Co60 O85 2.020 . S
C61 O81 1.259 . S
C61 O84 1.258 . S
Co62 N71 2.057 1_554 S
Co62 O78 2.117 1_554 S
Co62 O79 2.020 . S
Co62 O81 2.021 . S
Co62 O86 2.062 . S
C63 N65 1.316 1_556 S
C63 N66 1.347 1_556 S
C63 H68 0.931 . S
C64 N65 1.375 . S
C64 C67 1.350 . S
C64 H69 0.930 . S
N65 Co60 2.057 1_554 S
N65 C63 1.316 1_554 S
N65 C64 1.375 . S
N66 C63 1.347 1_554 S
N66 C67 1.373 . S
C67 C64 1.350 . S
C67 N66 1.373 . S
C67 H88 0.931 . S
H68 C63 0.931 . S
H69 C64 0.930 . S
C70 O77 1.259 . S
C70 O78 1.258 . S
N71 Co62 2.057 1_556 S
N71 C72 1.316 1_556 S
N71 C73 1.375 . S
C72 N71 1.316 1_554 S
C72 N74 1.347 1_554 S
C72 H83 0.931 . S
C73 N71 1.375 . S
C73 C75 1.350 . S
C73 H82 0.930 . S
N74 C72 1.347 1_556 S
N74 C75 1.373 . S
C75 C73 1.350 . S
C75 N74 1.373 . S
C75 H89 0.931 . S
C76 O79 1.256 . S
C76 O80 1.254 1_554 S
O77 Co60 2.021 . S
O77 C70 1.259 . S
O78 Co62 2.117 1_556 S
O78 C70 1.258 . S
O79 Co62 2.020 . S
O79 C76 1.256 . S
O80 Co60 2.062 . S
O80 C76 1.254 1_556 S
O81 C61 1.259 . S
O81 Co62 2.021 . S
H82 C73 0.930 . S
H83 C72 0.931 . S
O84 Co60 2.117 1_554 S
O84 C61 1.258 . S
O85 Co60 2.020 . S
O85 C87 1.256 . S
O86 Co62 2.062 . S
O86 C87 1.255 1_554 S
C87 O85 1.256 . S
C87 O86 1.255 1_556 S
H88 C67 0.931 . S
H89 C75 0.931 . S
H90 C91 0.951 . S
C91 H90 0.951 . S
C91 C97 1.265 1_455 S
H92 C97 0.950 . S
H93 C101 0.949 . S
H94 C102 0.950 . S
H95 C103 0.951 . S
H96 C104 0.951 . S
C97 C91 1.265 1_655 S
C97 H92 0.950 . S
C97 C98 1.478 . S
C98 C97 1.478 . S
C98 C99 1.397 . S
C98 C115 1.394 . S
C99 C98 1.397 . S
C99 C100 1.438 1_655 S
C99 C104 1.429 . S
C100 C99 1.438 1_455 S
C100 C101 1.428 . S
C100 C113 1.394 . S
C101 H93 0.949 . S
C101 C100 1.428 . S
C101 C102 1.345 . S
C102 H94 0.950 . S
C102 C101 1.345 . S
C102 C103 1.424 1_455 S
C103 H95 0.951 . S
C103 C102 1.424 1_655 S
C103 C104 1.347 . S
C104 H96 0.951 . S
C104 C99 1.429 . S
C104 C103 1.347 . S
H105 C106 0.951 . S
C106 H105 0.951 . S
C106 C112 1.265 1_655 S
H107 C112 0.950 . S
H108 C116 0.949 . S
H109 C117 0.950 . S
H110 C118 0.951 . S
H111 C119 0.951 . S
C112 C106 1.265 1_455 S
C112 H107 0.950 . S
C112 C113 1.478 . S
C113 C100 1.394 . S
C113 C112 1.478 . S
C113 C114 1.397 . S
C114 C113 1.397 . S
C114 C115 1.438 1_455 S
C114 C119 1.429 . S
C115 C98 1.394 . S
C115 C114 1.438 1_655 S
C115 C116 1.428 . S
C116 H108 0.949 . S
C116 C115 1.428 . S
C116 C117 1.345 . S
C117 H109 0.950 . S
C117 C116 1.345 . S
C117 C118 1.424 1_655 S
C118 H110 0.951 . S
C118 C117 1.424 1_455 S
C118 C119 1.347 . S
C119 H111 0.951 . S
C119 C114 1.429 . S
C119 C118 1.347 . S
H120 C121 0.951 . S
C121 H120 0.951 . S
C121 C127 1.265 1_565 S
H122 C127 0.950 . S
H123 C131 0.949 . S
H124 C132 0.950 . S
H125 C133 0.951 . S
H126 C134 0.951 . S
C127 C121 1.265 1_545 S
C127 H122 0.950 . S
C127 C128 1.478 . S
C128 C127 1.478 . S
C128 C129 1.397 . S
C128 C145 1.394 1_545 S
C129 C128 1.397 . S
C129 C130 1.438 . S
C129 C134 1.429 . S
C130 C129 1.438 . S
C130 C131 1.428 . S
C130 C143 1.394 1_545 S
C131 H123 0.949 . S
C131 C130 1.428 . S
C131 C132 1.345 . S
C132 H124 0.950 . S
C132 C131 1.345 . S
C132 C133 1.424 . S
C133 H125 0.951 . S
C133 C132 1.424 . S
C133 C134 1.347 . S
C134 H126 0.951 . S
C134 C129 1.429 . S
C134 C133 1.347 . S
H135 C136 0.951 . S
C136 H135 0.951 . S
C136 C142 1.265 1_545 S
H137 C142 0.950 . S
H138 C146 0.949 . S
H139 C147 0.950 . S
H140 C148 0.951 . S
H141 C149 0.951 . S
C142 C136 1.265 1_565 S
C142 H137 0.950 . S
C142 C143 1.478 . S
C143 C130 1.394 1_565 S
C143 C142 1.478 . S
C143 C144 1.397 . S
C144 C143 1.397 . S
C144 C145 1.438 . S
C144 C149 1.429 . S
C145 C128 1.394 1_565 S
C145 C144 1.438 . S
C145 C146 1.428 . S
C146 H138 0.949 . S
C146 C145 1.428 . S
C146 C147 1.345 . S
C147 H139 0.950 . S
C147 C146 1.345 . S
C147 C148 1.424 . S
C148 H140 0.951 . S
C148 C147 1.424 . S
C148 C149 1.347 . S
C149 H141 0.951 . S
C149 C144 1.429 . S
C149 C148 1.347 . S
H150 C151 0.951 . S
C151 H150 0.951 . S
C151 C157 1.265 . S
H152 C157 0.950 . S
H153 C161 0.949 . S
H154 C162 0.950 . S
H155 C163 0.951 . S
H156 C164 0.951 . S
C157 C151 1.265 . S
C157 H152 0.950 . S
C157 C158 1.478 . S
C158 C157 1.478 . S
C158 C159 1.397 . S
C158 C175 1.394 . S
C159 C158 1.397 . S
C159 C160 1.438 . S
C159 C164 1.429 . S
C160 C159 1.438 . S
C160 C161 1.428 . S
C160 C173 1.394 . S
C161 H153 0.949 . S
C161 C160 1.428 . S
C161 C162 1.345 . S
C162 H154 0.950 . S
C162 C161 1.345 . S
C162 C163 1.424 . S
C163 H155 0.951 . S
C163 C162 1.424 . S
C163 C164 1.347 . S
C164 H156 0.951 . S
C164 C159 1.429 . S
C164 C163 1.347 . S
H165 C166 0.951 . S
C166 H165 0.951 . S
C166 C172 1.265 . S
H167 C172 0.950 . S
H168 C176 0.949 . S
H169 C177 0.950 . S
H170 C178 0.951 . S
H171 C179 0.951 . S
C172 C166 1.265 . S
C172 H167 0.950 . S
C172 C173 1.478 . S
C173 C160 1.394 . S
C173 C172 1.478 . S
C173 C174 1.397 . S
C174 C173 1.397 . S
C174 C175 1.438 . S
C174 C179 1.429 . S
C175 C158 1.394 . S
C175 C174 1.438 . S
C175 C176 1.428 . S
C176 H168 0.949 . S
C176 C175 1.428 . S
C176 C177 1.345 . S
C177 H169 0.950 . S
C177 C176 1.345 . S
C177 C178 1.424 . S
C178 H170 0.951 . S
C178 C177 1.424 . S
C178 C179 1.347 . S
C179 H171 0.951 . S
C179 C174 1.429 . S
C179 C178 1.347 . S
H180 C181 0.951 1_554 S
C181 H180 0.951 1_556 S
C181 C187 1.265 . S
H182 C187 0.950 . S
H183 C191 0.949 . S
H184 C192 0.950 . S
H185 C193 0.951 . S
H186 C194 0.951 . S
C187 C181 1.265 . S
C187 H182 0.950 . S
C187 C188 1.478 . S
C188 C187 1.478 . S
C188 C189 1.397 . S
C188 C205 1.394 1_556 S
C189 C188 1.397 . S
C189 C190 1.438 . S
C189 C194 1.429 . S
C190 C189 1.438 . S
C190 C191 1.428 . S
C190 C203 1.390 1_556 S
C191 H183 0.949 . S
C191 C190 1.428 . S
C191 C192 1.345 . S
C192 H184 0.950 . S
C192 C191 1.345 . S
C192 C193 1.424 . S
C193 H185 0.951 . S
C193 C192 1.424 . S
C193 C194 1.347 . S
C194 H186 0.951 . S
C194 C189 1.429 . S
C194 C193 1.347 . S
H195 C196 0.951 . S
C196 H195 0.951 . S
C196 C202 1.265 1_556 S
H197 C202 0.950 . S
H198 C206 0.949 . S
H199 C207 0.950 . S
H200 C208 0.951 . S
H201 C209 0.951 . S
C202 C196 1.265 1_554 S
C202 H197 0.950 . S
C202 C203 1.478 . S
C203 C190 1.390 1_554 S
C203 C202 1.478 . S
C203 C204 1.401 . S
C204 C203 1.401 . S
C204 C205 1.438 . S
C204 C209 1.429 . S
C205 C188 1.394 1_554 S
C205 C204 1.438 . S
C205 C206 1.428 . S
C206 H198 0.949 . S
C206 C205 1.428 . S
C206 C207 1.345 . S
C207 H199 0.950 . S
C207 C206 1.345 . S
C207 C208 1.424 . S
C208 H200 0.951 . S
C208 C207 1.424 . S
C208 C209 1.347 . S
C209 H201 0.951 . S
C209 C204 1.429 . S
C209 C208 1.347 . S
H210 C211 0.951 . S
C211 H210 0.951 . S
C211 C217 1.265 1_554 S
H212 C217 0.950 . S
H213 C221 0.949 . S
H214 C222 0.950 . S
H215 C223 0.951 . S
H216 C224 0.951 . S
C217 C211 1.265 1_556 S
C217 H212 0.950 . S
C217 C218 1.478 . S
C218 C217 1.478 . S
C218 C219 1.392 1_556 S
C218 C235 1.399 . S
C219 C218 1.392 1_554 S
C219 C220 1.438 . S
C219 C224 1.429 . S
C220 C219 1.438 . S
C220 C221 1.428 . S
C220 C233 1.394 . S
C221 H213 0.949 . S
C221 C220 1.428 . S
C221 C222 1.345 . S
C222 H214 0.950 . S
C222 C221 1.345 . S
C222 C223 1.424 . S
C223 H215 0.951 . S
C223 C222 1.424 . S
C223 C224 1.347 . S
C224 H216 0.951 . S
C224 C219 1.429 . S
C224 C223 1.347 . S
H225 C226 0.951 . S
C226 H225 0.951 . S
C226 C232 1.265 1_556 S
H227 C232 0.950 . S
H228 C236 0.949 . S
H229 C237 0.950 . S
H230 C238 0.951 . S
H231 C239 0.951 . S
C232 C226 1.265 1_554 S
C232 H227 0.950 . S
C232 C233 1.478 . S
C233 C220 1.394 . S
C233 C232 1.478 . S
C233 C234 1.397 1_554 S
C234 C233 1.397 1_556 S
C234 C235 1.438 . S
C234 C239 1.429 . S
C235 C218 1.399 . S
C235 C234 1.438 . S
C235 C236 1.428 . S
C236 H228 0.949 . S
C236 C235 1.428 . S
C236 C237 1.345 . S
C237 H229 0.950 . S
C237 C236 1.345 . S
C237 C238 1.424 . S
C238 H230 0.951 . S
C238 C237 1.424 . S
C238 C239 1.347 . S
C239 H231 0.951 . S
C239 C234 1.429 . S
C239 C238 1.347 . S
H240 C241 0.951 . S
C241 H240 0.951 . S
C241 C247 1.265 . S
H242 C247 0.950 . S
H243 C251 0.949 . S
H244 C252 0.950 . S
H245 C253 0.951 . S
H246 C254 0.951 . S
C247 C241 1.265 . S
C247 H242 0.950 . S
C247 C248 1.478 . S
C248 C247 1.478 . S
C248 C249 1.397 1_554 S
C248 C265 1.394 . S
C249 C248 1.397 1_556 S
C249 C250 1.438 . S
C249 C254 1.429 . S
C250 C249 1.438 . S
C250 C251 1.428 . S
C250 C263 1.394 1_556 S
C251 H243 0.949 . S
C251 C250 1.428 . S
C251 C252 1.345 . S
C252 H244 0.950 . S
C252 C251 1.345 . S
C252 C253 1.424 . S
C253 H245 0.951 . S
C253 C252 1.424 . S
C253 C254 1.347 . S
C254 H246 0.951 . S
C254 C249 1.429 . S
C254 C253 1.347 . S
H255 C256 0.951 . S
C256 H255 0.951 . S
C256 C262 1.265 . S
H257 C262 0.950 . S
H258 C266 0.949 . S
H259 C267 0.950 . S
H260 C268 0.951 . S
H261 C269 0.951 . S
C262 C256 1.265 . S
C262 H257 0.950 . S
C262 C263 1.478 . S
C263 C250 1.394 1_554 S
C263 C262 1.478 . S
C263 C264 1.397 . S
C264 C263 1.397 . S
C264 C265 1.438 . S
C264 C269 1.429 . S
C265 C248 1.394 . S
C265 C264 1.438 . S
C265 C266 1.428 . S
C266 H258 0.949 . S
C266 C265 1.428 . S
C266 C267 1.345 . S
C267 H259 0.950 . S
C267 C266 1.345 . S
C267 C268 1.424 . S
C268 H260 0.951 . S
C268 C267 1.424 . S
C268 C269 1.347 . S
C269 H261 0.951 . S
C269 C264 1.429 . S
C269 C268 1.347 . S
H270 C271 0.951 . S
C271 H270 0.951 . S
C271 C277 1.265 1_556 S
H272 C277 0.950 . S
H273 C281 0.949 . S
H274 C282 0.950 . S
H275 C283 0.951 . S
H276 C284 0.951 . S
C277 C271 1.265 1_554 S
C277 H272 0.950 . S
C277 C278 1.478 . S
C278 C277 1.478 . S
C278 C279 1.397 1_554 S
C278 C295 1.394 . S
C279 C278 1.397 1_556 S
C279 C280 1.438 . S
C279 C284 1.429 . S
C280 C279 1.438 . S
C280 C281 1.428 . S
C280 C293 1.394 1_556 S
C281 H273 0.949 . S
C281 C280 1.428 . S
C281 C282 1.345 . S
C282 H274 0.950 . S
C282 C281 1.345 . S
C282 C283 1.424 . S
C283 H275 0.951 . S
C283 C282 1.424 . S
C283 C284 1.347 . S
C284 H276 0.951 . S
C284 C279 1.429 . S
C284 C283 1.347 . S
H285 C286 0.951 . S
C286 H285 0.951 . S
C286 C292 1.265 . S
H287 C292 0.950 . S
H288 C296 0.949 . S
H289 C297 0.950 . S
H290 C298 0.951 . S
H291 C299 0.951 . S
C292 C286 1.265 . S
C292 H287 0.950 . S
C292 C293 1.478 . S
C293 C280 1.394 1_554 S
C293 C292 1.478 . S
C293 C294 1.397 . S
C294 C293 1.397 . S
C294 C295 1.438 . S
C294 C299 1.429 . S
C295 C278 1.394 . S
C295 C294 1.438 . S
C295 C296 1.428 . S
C296 H288 0.949 . S
C296 C295 1.428 . S
C296 C297 1.345 . S
C297 H289 0.950 . S
C297 C296 1.345 . S
C297 C298 1.424 . S
C298 H290 0.951 . S
C298 C297 1.424 . S
C298 C299 1.347 . S
C299 H291 0.951 . S
C299 C294 1.429 . S
C299 C298 1.347 . S
H300 C301 0.952 . S
C301 H300 0.952 . S
C301 C307 1.265 1_556 S
H302 C307 0.950 . S
H303 C311 0.949 . S
H304 C312 0.950 . S
H305 C313 0.951 . S
H306 C314 0.951 . S
C307 C301 1.265 1_554 S
C307 H302 0.950 . S
C307 C308 1.479 . S
C308 C307 1.479 . S
C308 C309 1.405 . S
C308 C325 1.385 1_554 S
C309 C308 1.405 . S
C309 C310 1.438 . S
C309 C314 1.429 . S
C310 C309 1.438 . S
C310 C311 1.428 . S
C310 C323 1.394 1_554 S
C311 H303 0.949 . S
C311 C310 1.428 . S
C311 C312 1.345 . S
C312 H304 0.950 . S
C312 C311 1.345 . S
C312 C313 1.424 . S
C313 H305 0.951 . S
C313 C312 1.424 . S
C313 C314 1.347 . S
C314 H306 0.951 . S
C314 C309 1.429 . S
C314 C313 1.347 . S
H315 C316 0.951 1_554 S
C316 H315 0.951 1_556 S
C316 C322 1.265 . S
H317 C322 0.950 . S
H318 C326 0.949 . S
H319 C327 0.950 . S
H320 C328 0.951 . S
H321 C329 0.951 . S
C322 C316 1.265 . S
C322 H317 0.950 . S
C322 C323 1.478 . S
C323 C310 1.394 1_556 S
C323 C322 1.478 . S
C323 C324 1.397 . S
C324 C323 1.397 . S
C324 C325 1.438 . S
C324 C329 1.429 . S
C325 C308 1.385 1_556 S
C325 C324 1.438 . S
C325 C326 1.428 . S
C326 H318 0.949 . S
C326 C325 1.428 . S
C326 C327 1.345 . S
C327 H319 0.950 . S
C327 C326 1.345 . S
C327 C328 1.424 . S
C328 H320 0.951 . S
C328 C327 1.424 . S
C328 C329 1.347 . S
C329 H321 0.951 . S
C329 C324 1.429 . S
C329 C328 1.347 . S
H330 C331 0.951 . S
C331 H330 0.951 . S
C331 C337 1.265 . S
H332 C337 0.950 . S
H333 C341 0.949 . S
H334 C342 0.950 . S
H335 C343 0.951 . S
H336 C344 0.951 . S
C337 C331 1.265 . S
C337 H332 0.950 . S
C337 C338 1.478 . S
C338 C337 1.478 . S
C338 C339 1.397 1_556 S
C338 C355 1.394 . S
C339 C338 1.397 1_554 S
C339 C340 1.438 . S
C339 C344 1.429 . S
C340 C339 1.438 . S
C340 C341 1.428 . S
C340 C353 1.394 1_554 S
C341 H333 0.949 . S
C341 C340 1.428 . S
C341 C342 1.345 . S
C342 H334 0.950 . S
C342 C341 1.345 . S
C342 C343 1.424 . S
C343 H335 0.951 . S
C343 C342 1.424 . S
C343 C344 1.347 . S
C344 H336 0.951 . S
C344 C339 1.429 . S
C344 C343 1.347 . S
H345 C346 0.951 . S
C346 H345 0.951 . S
C346 C352 1.265 . S
H347 C352 0.950 . S
H348 C356 0.949 . S
H349 C357 0.950 . S
H350 C358 0.951 . S
H351 C359 0.951 . S
C352 C346 1.265 . S
C352 H347 0.950 . S
C352 C353 1.478 . S
C353 C340 1.394 1_556 S
C353 C352 1.478 . S
C353 C354 1.397 . S
C354 C353 1.397 . S
C354 C355 1.438 . S
C354 C359 1.429 . S
C355 C338 1.394 . S
C355 C354 1.438 . S
C355 C356 1.428 . S
C356 H348 0.949 . S
C356 C355 1.428 . S
C356 C357 1.345 . S
C357 H349 0.950 . S
C357 C356 1.345 . S
C357 C358 1.424 . S
C358 H350 0.951 . S
C358 C357 1.424 . S
C358 C359 1.347 . S
C359 H351 0.951 . S
C359 C354 1.429 . S
C359 C358 1.347 . S
C91 C1 1.488 . S
C106 C10 1.488 . S
C121 C40 1.499 . S
C136 C31 1.499 . S
C151 C70 1.487 . S
C166 C61 1.487 . S
C181 C27 1.588 . S
C196 C87 1.596 . S
C211 C57 1.145 . S
C226 N6 1.114 . S
C241 N36 0.769 1_554 S
C256 N74 0.775 1_554 S
C271 C16 1.588 1_556 S
C286 C76 1.602 . S
C301 N14 1.121 1_556 S
C316 C46 1.144 . S
C331 N66 0.731 1_556 S
C346 N44 0.738 1_556 S
